# Generated by pormake.
# Topology wiv, (6)-cn, num edge types: 1
# Building blocks:
#     Node 0, Type 0, BuildingBlock: UKALOJ_clean_sbu_0, # of connection points: 6
#     Node 1, Type 0, BuildingBlock: UKALOJ_clean_sbu_0, # of connection points: 6
#     Node 2, Type 0, BuildingBlock: UKALOJ_clean_sbu_0, # of connection points: 6
#     Node 3, Type 0, BuildingBlock: UKALOJ_clean_sbu_0, # of connection points: 6
#     Node 4, Type 0, BuildingBlock: UKALOJ_clean_sbu_0, # of connection points: 6
#     Node 5, Type 0, BuildingBlock: UKALOJ_clean_sbu_0, # of connection points: 6
#     Node 6, Type 0, BuildingBlock: UKALOJ_clean_sbu_0, # of connection points: 6
#     Node 7, Type 0, BuildingBlock: UKALOJ_clean_sbu_0, # of connection points: 6
#     Node 8, Type 0, BuildingBlock: UKALOJ_clean_sbu_0, # of connection points: 6
#     Node 9, Type 0, BuildingBlock: UKALOJ_clean_sbu_0, # of connection points: 6
#     Node 10, Type 0, BuildingBlock: UKALOJ_clean_sbu_0, # of connection points: 6
#     Node 11, Type 0, BuildingBlock: UKALOJ_clean_sbu_0, # of connection points: 6
#     Node 12, Type 0, BuildingBlock: UKALOJ_clean_sbu_0, # of connection points: 6
#     Node 13, Type 0, BuildingBlock: UKALOJ_clean_sbu_0, # of connection points: 6
#     Node 14, Type 0, BuildingBlock: UKALOJ_clean_sbu_0, # of connection points: 6
#     Node 15, Type 0, BuildingBlock: UKALOJ_clean_sbu_0, # of connection points: 6
#     Edge 16, Type (0, 0), BuildingBlock: EZIPEK_clean_linker_0, # of connection points: 2
#     Edge 17, Type (0, 0), BuildingBlock: EZIPEK_clean_linker_0, # of connection points: 2
#     Edge 18, Type (0, 0), BuildingBlock: EZIPEK_clean_linker_0, # of connection points: 2
#     Edge 19, Type (0, 0), BuildingBlock: EZIPEK_clean_linker_0, # of connection points: 2
#     Edge 20, Type (0, 0), BuildingBlock: EZIPEK_clean_linker_0, # of connection points: 2
#     Edge 21, Type (0, 0), BuildingBlock: EZIPEK_clean_linker_0, # of connection points: 2
#     Edge 22, Type (0, 0), BuildingBlock: EZIPEK_clean_linker_0, # of connection points: 2
#     Edge 23, Type (0, 0), BuildingBlock: EZIPEK_clean_linker_0, # of connection points: 2
#     Edge 24, Type (0, 0), BuildingBlock: EZIPEK_clean_linker_0, # of connection points: 2
#     Edge 25, Type (0, 0), BuildingBlock: EZIPEK_clean_linker_0, # of connection points: 2
#     Edge 26, Type (0, 0), BuildingBlock: EZIPEK_clean_linker_0, # of connection points: 2
#     Edge 27, Type (0, 0), BuildingBlock: EZIPEK_clean_linker_0, # of connection points: 2
#     Edge 28, Type (0, 0), BuildingBlock: EZIPEK_clean_linker_0, # of connection points: 2
#     Edge 29, Type (0, 0), BuildingBlock: EZIPEK_clean_linker_0, # of connection points: 2
#     Edge 30, Type (0, 0), BuildingBlock: EZIPEK_clean_linker_0, # of connection points: 2
#     Edge 31, Type (0, 0), BuildingBlock: EZIPEK_clean_linker_0, # of connection points: 2
#     Edge 32, Type (0, 0), BuildingBlock: EZIPEK_clean_linker_0, # of connection points: 2
#     Edge 33, Type (0, 0), BuildingBlock: EZIPEK_clean_linker_0, # of connection points: 2
#     Edge 34, Type (0, 0), BuildingBlock: EZIPEK_clean_linker_0, # of connection points: 2
#     Edge 35, Type (0, 0), BuildingBlock: EZIPEK_clean_linker_0, # of connection points: 2
#     Edge 36, Type (0, 0), BuildingBlock: EZIPEK_clean_linker_0, # of connection points: 2
#     Edge 37, Type (0, 0), BuildingBlock: EZIPEK_clean_linker_0, # of connection points: 2
#     Edge 38, Type (0, 0), BuildingBlock: EZIPEK_clean_linker_0, # of connection points: 2
#     Edge 39, Type (0, 0), BuildingBlock: EZIPEK_clean_linker_0, # of connection points: 2
#     Edge 40, Type (0, 0), BuildingBlock: EZIPEK_clean_linker_0, # of connection points: 2
#     Edge 41, Type (0, 0), BuildingBlock: EZIPEK_clean_linker_0, # of connection points: 2
#     Edge 42, Type (0, 0), BuildingBlock: EZIPEK_clean_linker_0, # of connection points: 2
#     Edge 43, Type (0, 0), BuildingBlock: EZIPEK_clean_linker_0, # of connection points: 2
#     Edge 44, Type (0, 0), BuildingBlock: EZIPEK_clean_linker_0, # of connection points: 2
#     Edge 45, Type (0, 0), BuildingBlock: EZIPEK_clean_linker_0, # of connection points: 2
#     Edge 46, Type (0, 0), BuildingBlock: EZIPEK_clean_linker_0, # of connection points: 2
#     Edge 47, Type (0, 0), BuildingBlock: EZIPEK_clean_linker_0, # of connection points: 2
#     Edge 48, Type (0, 0), BuildingBlock: EZIPEK_clean_linker_0, # of connection points: 2
#     Edge 49, Type (0, 0), BuildingBlock: EZIPEK_clean_linker_0, # of connection points: 2
#     Edge 50, Type (0, 0), BuildingBlock: EZIPEK_clean_linker_0, # of connection points: 2
#     Edge 51, Type (0, 0), BuildingBlock: EZIPEK_clean_linker_0, # of connection points: 2
#     Edge 52, Type (0, 0), BuildingBlock: EZIPEK_clean_linker_0, # of connection points: 2
#     Edge 53, Type (0, 0), BuildingBlock: EZIPEK_clean_linker_0, # of connection points: 2
#     Edge 54, Type (0, 0), BuildingBlock: EZIPEK_clean_linker_0, # of connection points: 2
#     Edge 55, Type (0, 0), BuildingBlock: EZIPEK_clean_linker_0, # of connection points: 2
#     Edge 56, Type (0, 0), BuildingBlock: EZIPEK_clean_linker_0, # of connection points: 2
#     Edge 57, Type (0, 0), BuildingBlock: EZIPEK_clean_linker_0, # of connection points: 2
#     Edge 58, Type (0, 0), BuildingBlock: EZIPEK_clean_linker_0, # of connection points: 2
#     Edge 59, Type (0, 0), BuildingBlock: EZIPEK_clean_linker_0, # of connection points: 2
#     Edge 60, Type (0, 0), BuildingBlock: EZIPEK_clean_linker_0, # of connection points: 2
#     Edge 61, Type (0, 0), BuildingBlock: EZIPEK_clean_linker_0, # of connection points: 2
#     Edge 62, Type (0, 0), BuildingBlock: EZIPEK_clean_linker_0, # of connection points: 2
#     Edge 63, Type (0, 0), BuildingBlock: EZIPEK_clean_linker_0, # of connection points: 2
# Relax obj value: 0.139
# Max RMSD: 0.134
# Mean RMSD: 0.134
data_MOF--net-wiv--node1-UKALOJ_clean_sbu_0--edge1-EZIPEK_clean_linker_0
_symmetry_space_group_name_H-M    P1
_symmetry_Int_Tables_number       1
_symmetry_cell_setting            triclinic
loop_
_symmetry_equiv_pos_as_xyz
'x, y, z'
_cell_length_a     52.451317
_cell_length_b     52.471738
_cell_length_c     10.627987
_cell_angle_alpha  89.967195
_cell_angle_beta   89.911306
_cell_angle_gamma 90.144587
loop_
_atom_site_label
_atom_site_type_symbol
_atom_site_fract_x
_atom_site_fract_y
_atom_site_fract_z
_atom_type_partial_charge
Zn0 Zn 0.37327 0.13453 0.02948 0.0
O1 O 0.38456 0.13123 0.84318 0.0
C2 C 0.32494 0.10847 0.95128 0.0
Zn3 Zn 0.37769 0.09216 0.04057 0.0
C4 C 0.38994 0.1103 0.7895 0.0
O5 O 0.38928 0.08989 0.85345 0.0
C6 C 0.36181 0.11601 0.28119 0.0
O7 O 0.41672 0.09685 0.10279 0.0
O8 O 0.4118 0.13825 0.08927 0.0
N9 N 0.37988 0.05287 0.05976 0.0
C10 C 0.39181 0.03766 0.14394 0.0
C11 C 0.37092 1.01343 0.02045 0.0
N12 N 0.36695 0.03768 -0.01669 0.0
N13 N 0.38641 1.01289 0.12138 0.0
C14 C 0.35818 0.19254 0.05587 0.0
C15 C 0.38858 0.20986 0.9531 0.0
N16 N 0.37257 0.17351 0.00843 0.0
N17 N 0.39129 0.18442 0.94388 0.0
N18 N 0.36791 0.21544 0.02278 0.0
H19 H 0.32926 0.16865 0.14083 0.0
H20 H 0.31919 0.20052 0.09837 0.0
H21 H 0.33915 0.19616 0.23253 0.0
C22 C 0.33509 0.18894 0.13657 0.0
C23 C 0.40865 0.04699 0.24803 0.0
H24 H 0.42667 0.05445 0.20756 0.0
H25 H 0.41347 0.03154 0.31501 0.0
H26 H 0.39906 0.06255 0.29968 0.0
O27 O 0.36613 0.09511 0.22514 0.0
O28 O 0.3626 0.1366 0.21841 0.0
C29 C 0.42565 0.11927 0.11709 0.0
O30 O 0.33442 0.13061 0.96791 0.0
O31 O 0.33836 0.0889 0.97707 0.0
Zn32 Zn 0.13328 0.67717 0.85103 0.0
O33 O 0.13729 0.6671 0.03855 0.0
C34 C 0.10033 0.72029 0.94018 0.0
Zn35 Zn 0.09212 0.66655 0.85567 0.0
C36 C 0.11807 0.65881 0.09914 0.0
O37 O 0.09701 0.65602 0.04164 0.0
C38 C 0.10724 0.68521 0.60782 0.0
O39 O 0.10287 0.62913 0.79458 0.0
O40 O 0.14341 0.63981 0.79155 0.0
N41 N 0.05414 0.65626 0.8613 0.0
C42 C 0.04007 0.64078 0.78708 0.0
C43 C 1.01445 0.65901 0.91396 0.0
N44 N 0.03815 0.66743 0.94042 0.0
N45 N 1.01512 0.6423 0.81786 0.0
C46 C 0.19301 0.67849 0.85486 0.0
C47 C 0.20014 0.71574 0.78177 0.0
N48 N 0.17018 0.68957 0.83621 0.0
N49 N 0.1747 0.7127 0.79099 0.0
N50 N 0.21201 0.69449 0.82103 0.0
H51 H 0.19776 0.63872 0.82111 0.0
H52 H 0.2148 0.65045 0.95589 0.0
H53 H 0.18048 0.64604 0.96298 0.0
C54 C 0.19669 0.65191 0.90251 0.0
C55 C 0.05066 0.6243 0.68441 0.0
H56 H 0.05996 0.60745 0.72733 0.0
H57 H 0.03554 0.6174 0.62009 0.0
H58 H 0.0652 0.63487 0.62973 0.0
O59 O 0.08795 0.67751 0.66902 0.0
O60 O 0.12838 0.68713 0.66463 0.0
C61 C 0.12603 0.62327 0.77398 0.0
O62 O 0.12305 0.7142 0.91232 0.0
O63 O 0.0824 0.70435 0.92119 0.0
Zn64 Zn 0.6575 0.94547 0.04012 0.0
O65 O 0.61783 0.93938 0.08619 0.0
C66 C 0.67025 0.91917 0.2758 0.0
Zn67 Zn 0.66341 0.90319 0.02247 0.0
C68 C 0.60985 0.91663 0.10145 0.0
O69 O 0.62472 0.89821 0.07703 0.0
C70 C 0.71175 0.93076 0.96441 0.0
O71 O 0.65335 0.90785 0.83672 0.0
O72 O 0.64894 0.94921 0.8526 0.0
N73 N 0.66507 0.86456 -0.0077 0.0
C74 C 0.67664 0.84499 0.05145 0.0
C75 C 0.65179 0.82891 0.91386 0.0
N76 N 0.64979 0.85444 0.90643 0.0
N77 N 0.66851 0.82252 0.00422 0.0
C78 C 0.65597 1.00188 0.15474 0.0
C79 C 0.63509 0.02085 0.01068 0.0
N80 N 0.65179 0.98461 0.06224 0.0
N81 N 0.63887 0.99664 0.97319 0.0
N82 N 0.64549 0.02466 0.12477 0.0
H83 H 0.65728 0.98518 0.33777 0.0
H84 H 0.67537 1.01429 0.32313 0.0
H85 H 0.68716 0.98501 0.25403 0.0
C86 C 0.66986 0.99641 0.27448 0.0
C87 C 0.69492 0.84777 0.15847 0.0
H88 H 0.70732 0.83074 0.16603 0.0
H89 H 0.68399 0.84968 0.24745 0.0
H90 H 0.70684 0.86507 0.14537 0.0
O91 O 0.70201 0.90851 0.96931 0.0
O92 O 0.69807 0.95002 -0.00532 0.0
C93 C 0.64872 0.92924 0.78645 0.0
O94 O 0.66523 0.94048 0.22544 0.0
O95 O 0.6733 0.89941 0.20924 0.0
Zn96 Zn 0.9356 0.36303 0.88186 0.0
O97 O 0.92561 0.4009 0.82077 0.0
C98 C 0.91944 0.34475 0.63507 0.0
Zn99 Zn 0.89409 0.35347 0.87916 0.0
C100 C 0.90256 0.40751 0.80248 0.0
O101 O 0.88479 0.39142 0.8215 0.0
C102 C 0.92614 0.30901 0.96463 0.0
O103 O 0.89096 0.36338 0.0669 0.0
O104 O 0.93142 0.37379 0.06809 0.0
N105 N 0.8567 0.34223 0.8682 0.0
C106 C 0.83429 0.35357 0.89483 0.0
C107 C 0.82572 0.31697 0.81808 0.0
N108 N 0.85127 0.31951 0.82062 0.0
N109 N 0.81465 0.33812 0.86395 0.0
C110 C 0.98818 0.38765 0.80771 0.0
C111 C 1.0135 0.37067 0.93987 0.0
N112 N 0.97394 0.37263 0.88402 0.0
N113 N 0.98977 0.36219 0.96617 0.0
N114 N 1.01303 0.38662 0.84056 0.0
H115 H 0.96259 0.39312 0.65213 0.0
H116 H 0.9696 0.42122 0.74174 0.0
H117 H 0.99303 0.40891 0.6345 0.0
C118 C 0.97785 0.4035 0.70223 0.0
C119 C 0.83158 0.37985 0.94773 0.0
H120 H 0.84905 0.38569 -0.00146 0.0
H121 H 0.82834 0.39343 0.86933 0.0
H122 H 0.81487 0.38076 0.01176 0.0
O123 O 0.90353 0.31576 0.93817 0.0
O124 O 0.94439 0.32473 0.94704 0.0
C125 C 0.91038 0.3714 0.12648 0.0
O126 O 0.939 0.35181 0.69567 0.0
O127 O 0.89824 0.34362 0.69224 0.0
Zn128 Zn 0.35827 0.39792 0.18665 0.0
O129 O 0.37058 0.39801 0.37143 0.0
C130 C 0.31184 0.42702 0.27489 0.0
Zn131 Zn 0.3637 0.44024 0.17814 0.0
C132 C 0.37566 0.41871 0.42812 0.0
O133 O 0.37506 0.43944 0.36629 0.0
C134 C 0.34596 0.41957 0.93724 0.0
O135 O 0.40211 0.43228 0.11393 0.0
O136 O 0.3954 0.39096 0.12193 0.0
N137 N 0.37042 0.47937 0.16845 0.0
C138 C 0.38447 0.49389 0.08877 0.0
C139 C 0.36668 0.51913 0.21871 0.0
N140 N 0.35946 0.49519 0.24903 0.0
N141 N 0.38239 0.51888 0.1183 0.0
C142 C 0.35838 0.33915 0.1303 0.0
C143 C 0.33403 0.32502 0.27551 0.0
N144 N 0.35067 0.35943 0.19848 0.0
N145 N 0.33547 0.35055 0.28826 0.0
N146 N 0.34822 0.31744 0.17685 0.0
H147 H 0.39625 0.33896 0.05695 0.0
H148 H 0.37447 0.35868 0.97016 0.0
H149 H 0.37308 0.32432 0.95543 0.0
C150 C 0.37644 0.34039 0.02119 0.0
C151 C 0.40027 0.48367 -0.01729 0.0
H152 H 0.41782 0.47494 0.02146 0.0
H153 H 0.40604 0.49893 0.91626 0.0
H154 H 0.3895 0.46886 0.93113 0.0
O155 O 0.35196 0.44007 -0.0068 0.0
O156 O 0.34592 0.39888 -0.00056 0.0
C157 C 0.40991 0.40958 0.09556 0.0
O158 O 0.32142 0.40514 0.25596 0.0
O159 O 0.32475 0.44665 0.24313 0.0
Zn160 Zn 0.44054 0.6627 0.82935 0.0
O161 O 0.43756 0.62338 0.89088 0.0
C162 C 0.42173 0.67868 0.07501 0.0
Zn163 Zn 0.39824 0.66699 0.82947 0.0
C164 C 0.41526 0.61428 0.90678 0.0
O165 O 0.39615 0.62827 0.88455 0.0
C166 C 0.4221 0.71553 0.74676 0.0
O167 O 0.39652 0.65646 0.64257 0.0
O168 O 0.43797 0.65142 0.64282 0.0
N169 N 0.35949 0.66768 0.84821 0.0
C170 C 0.33977 0.67944 0.79152 0.0
C171 C 0.32438 0.65681 0.94056 0.0
N172 N 0.34978 0.65367 0.94044 0.0
N173 N 0.31759 0.67283 0.84794 0.0
C174 C 0.49686 0.6482 0.89902 0.0
C175 C 0.51843 0.66929 0.76433 0.0
N176 N 0.47999 0.66042 0.82423 0.0
N177 N 0.49352 0.67347 0.74062 0.0
N178 N 0.52103 0.6535 0.86343 0.0
H179 H 0.47311 0.63841 0.0571 0.0
H180 H 0.48458 0.61189 0.96691 0.0
H181 H 0.50584 0.62826 0.0719 0.0
C182 C 0.48976 0.63084 0.00554 0.0
C183 C 0.34237 0.69774 0.6843 0.0
H184 H 0.35805 0.69169 0.62096 0.0
H185 H 0.32428 0.69915 0.6308 0.0
H186 H 0.34719 0.71685 0.72211 0.0
O187 O 0.40035 0.70592 0.77205 0.0
O188 O 0.44211 0.70217 0.76442 0.0
C189 C 0.4169 0.65089 0.58391 0.0
O190 O 0.44217 0.6742 0.01546 0.0
O191 O 0.40077 0.67728 0.01635 0.0
Zn192 Zn 0.67223 0.6391 0.14644 0.0
O193 O 0.66122 0.63604 0.3327 0.0
C194 C 0.71884 0.61003 0.22076 0.0
Zn195 Zn 0.66556 0.59706 0.13866 0.0
C196 C 0.65503 0.61548 0.38829 0.0
O197 O 0.65462 0.5948 0.32609 0.0
C198 C 0.68257 0.62037 0.89673 0.0
O199 O 0.62706 0.60416 0.08111 0.0
O200 O 0.63385 0.64546 0.0921 0.0
N201 N 0.66178 0.55835 0.10972 0.0
C202 C 0.64195 0.54202 0.09817 0.0
C203 C 0.67563 0.52149 0.05037 0.0
N204 N 0.68261 0.54543 0.08009 0.0
N205 N 0.65018 0.51889 0.05973 0.0
C206 C 0.67172 0.69834 0.10476 0.0
C207 C 0.6937 0.71109 0.26142 0.0
N208 N 0.67848 0.67745 0.17076 0.0
N209 N 0.69214 0.68548 0.26793 0.0
N210 N 0.68107 0.71955 0.15967 0.0
H211 H 0.65323 0.67892 0.94982 0.0
H212 H 0.66413 0.71101 0.91667 0.0
H213 H 0.63648 0.70606 0.01267 0.0
C214 C 0.65555 0.69831 -0.01115 0.0
C215 C 0.61469 0.54873 0.12235 0.0
H216 H 0.61336 0.56247 0.20139 0.0
H217 H 0.60333 0.53141 0.1443 0.0
H218 H 0.60662 0.55772 0.03674 0.0
O219 O 0.67646 0.6 0.95345 0.0
O220 O 0.68319 0.64104 0.95838 0.0
C221 C 0.61905 0.62689 0.06788 0.0
O222 O 0.71047 0.63244 0.20339 0.0
O223 O 0.70445 0.59109 0.19684 0.0
Zn224 Zn 0.62846 0.36577 0.86545 0.0
O225 O 0.63536 0.37197 0.68184 0.0
C226 C 0.60103 0.31757 0.79763 0.0
Zn227 Zn 0.58593 0.37198 0.85568 0.0
C228 C 0.61533 0.37536 0.61789 0.0
O229 O 0.59352 0.37753 0.66902 0.0
C230 C 0.59946 0.36207 0.10445 0.0
O231 O 0.59208 0.41201 0.89525 0.0
O232 O 0.63323 0.40489 0.90225 0.0
N233 N 0.5469 0.37741 0.82945 0.0
C234 C 0.52922 0.3899 0.89884 0.0
C235 C 0.50905 0.36869 0.76008 0.0
N236 N 0.53421 0.36442 0.74269 0.0
N237 N 0.50546 0.38458 0.85792 0.0
C238 C 0.68714 0.35138 0.85052 0.0
C239 C 0.69997 0.36953 0.01868 0.0
N240 N 0.66648 0.36164 0.90667 0.0
N241 N 0.67461 0.3728 0.01109 0.0
N242 N 0.70834 0.35623 0.91886 0.0
H243 H 0.68181 0.3503 0.65147 0.0
H244 H 0.7052 0.32793 0.70901 0.0
H245 H 0.6715 0.32216 0.73346 0.0
C246 C 0.68655 0.337 0.72912 0.0
C247 C 0.53475 0.40629 0.01078 0.0
H248 H 0.55051 0.41962 -0.0103 0.0
H249 H 0.51784 0.41769 0.03807 0.0
H250 H 0.53994 0.394 0.09152 0.0
O251 O 0.57936 0.36574 0.04188 0.0
O252 O 0.62091 0.36004 0.05119 0.0
C253 C 0.61469 0.42019 0.91297 0.0
O254 O 0.62318 0.32629 0.82275 0.0
O255 O 0.58163 0.33188 0.8131 0.0
Zn256 Zn 0.86923 0.62945 0.51772 0.0
O257 O 0.8798 0.62537 0.33097 0.0
C258 C 0.81978 0.60667 0.4448 0.0
Zn259 Zn 0.87124 0.58663 0.53155 0.0
C260 C 0.88384 0.60393 0.2791 0.0
O261 O 0.88216 0.58379 0.34451 0.0
C262 C 0.85742 0.6118 0.77081 0.0
O263 O 0.91046 0.58869 0.58985 0.0
O264 O 0.90761 0.63034 0.5733 0.0
N265 N 0.87094 0.54697 0.54807 0.0
C266 C 0.88201 0.5305 0.62945 0.0
C267 C 0.86092 0.50825 0.49798 0.0
N268 N 0.85784 0.53298 0.46688 0.0
N269 N 0.87599 0.50612 0.59993 0.0
C270 C 0.85745 0.68839 0.54637 0.0
C271 C 0.88878 0.70434 0.44514 0.0
N272 N 0.87092 0.6687 0.49848 0.0
N273 N 0.89025 0.67879 0.43505 0.0
N274 N 0.86834 0.71086 0.51449 0.0
H275 H 0.8273 0.66583 0.62987 0.0
H276 H 0.81881 0.69815 0.58745 0.0
H277 H 0.8383 0.69276 0.72239 0.0
C278 C 0.83408 0.68582 0.62607 0.0
C279 C 0.89896 0.53822 0.73612 0.0
H280 H 0.91779 0.5441 0.69815 0.0
H281 H 0.9019 0.52228 0.80303 0.0
H282 H 0.89059 0.55463 0.78678 0.0
O283 O 0.86043 0.59043 0.71682 0.0
O284 O 0.8592 0.6321 0.7064 0.0
C285 C 0.92051 0.61071 0.60071 0.0
O286 O 0.83063 0.62817 0.45993 0.0
O287 O 0.83183 0.58624 0.4708 0.0
Zn288 Zn 0.6389 0.17547 0.44727 0.0
O289 O 0.63947 0.16402 0.63365 0.0
C290 C 0.60714 0.21992 0.5373 0.0
Zn291 Zn 0.59693 0.16672 0.44257 0.0
C292 C 0.61946 0.15635 0.69034 0.0
O293 O 0.5987 0.15459 0.62908 0.0
C294 C 0.61663 0.18573 0.19936 0.0
O295 O 0.60609 0.12908 0.37689 0.0
O296 O 0.647 0.13772 0.38615 0.0
N297 N 0.558 0.15895 0.42981 0.0
C298 C 0.54422 0.1455 0.34478 0.0
C299 C 0.51775 0.16352 0.46795 0.0
N300 N 0.54141 0.17005 0.50613 0.0
N301 N 0.51892 0.14818 0.36644 0.0
C302 C 0.69945 0.17267 0.43831 0.0
C303 C 0.70873 0.21226 0.43773 0.0
N304 N 0.67726 0.18555 0.44999 0.0
N305 N 0.68324 0.21012 0.45035 0.0
N306 N 0.71934 0.18901 0.43 0.0
H307 H 0.68914 0.1353 0.5026 0.0
H308 H 0.69566 0.13784 0.33617 0.0
H309 H 0.72162 0.13806 0.44676 0.0
C310 C 0.70168 0.14429 0.43099 0.0
C311 C 0.55546 0.12959 0.2416 0.0
H312 H 0.57189 0.13945 0.19764 0.0
H313 H 0.56239 0.11142 0.28239 0.0
H314 H 0.54114 0.125 0.16835 0.0
O315 O 0.59643 0.17927 0.25713 0.0
O316 O 0.63738 0.18649 0.26021 0.0
C317 C 0.62912 0.12216 0.36069 0.0
O318 O 0.6298 0.21316 0.51101 0.0
O319 O 0.58884 0.20461 0.51386 0.0
Zn320 Zn 0.16079 0.44292 0.59233 0.0
O321 O 0.12007 0.44064 0.63409 0.0
C322 C 0.172 0.42903 0.84166 0.0
Zn323 Zn 0.16263 0.40012 0.60444 0.0
C324 C 0.11 0.41884 0.65403 0.0
O325 O 0.12363 0.39902 0.6457 0.0
C326 C 0.21407 0.42261 0.54014 0.0
O327 O 0.15471 0.39443 0.41659 0.0
O328 O 0.15425 0.43651 0.40777 0.0
N329 N 0.16356 0.36155 0.64611 0.0
C330 C 0.17019 0.33962 0.58793 0.0
C331 C 0.15685 0.32961 0.77121 0.0
N332 N 0.15519 0.35508 0.75953 0.0
N333 N 0.16618 0.31942 0.66474 0.0
C334 C 0.1458 0.5005 0.62583 0.0
C335 C 0.17152 0.51927 0.50091 0.0
N336 N 0.15915 0.48213 0.56581 0.0
N337 N 0.17504 0.49392 0.48792 0.0
N338 N 0.15326 0.52387 0.58711 0.0
H339 H 0.10685 0.49357 0.67186 0.0
H340 H 0.1237 0.51192 0.78795 0.0
H341 H 0.12913 0.47807 0.7738 0.0
C342 C 0.12534 0.49575 0.72127 0.0
C343 C 0.18022 0.33791 0.45648 0.0
H344 H 0.16628 0.3464 0.39045 0.0
H345 H 0.18394 0.31791 0.42847 0.0
H346 H 0.19819 0.34883 0.4497 0.0
O347 O 0.20249 0.40166 0.56145 0.0
O348 O 0.20122 0.4432 0.54788 0.0
C349 C 0.15378 0.41498 0.3536 0.0
O350 O 0.16859 0.44887 0.77694 0.0
O351 O 0.17033 0.40726 0.79074 0.0
Zn352 Zn 0.39651 0.8653 0.44071 0.0
O353 O 0.39998 0.87584 0.62758 0.0
C354 C 0.42239 0.81707 0.51949 0.0
Zn355 Zn 0.43912 0.86996 0.43478 0.0
C356 C 0.42053 0.88184 0.68323 0.0
O357 O 0.44122 0.88177 0.62125 0.0
C358 C 0.41568 0.8538 0.1918 0.0
O359 O 0.43424 0.90874 0.37237 0.0
O360 O 0.39278 0.90387 0.38507 0.0
N361 N 0.4786 0.8734 0.4134 0.0
C362 C 0.49287 0.88609 0.32724 0.0
C363 C 0.5187 0.86785 0.45246 0.0
N364 N 0.4948 0.86209 0.4909 0.0
N365 N 0.51799 0.88289 0.34974 0.0
C366 C 0.33749 0.85265 0.40971 0.0
C367 C 0.32194 0.88042 0.53429 0.0
N368 N 0.35737 0.86472 0.46435 0.0
N369 N 0.34752 0.88178 0.54237 0.0
N370 N 0.31516 0.86229 0.45149 0.0
H371 H 0.35925 0.82399 0.31184 0.0
H372 H 0.32592 0.81641 0.33756 0.0
H373 H 0.3343 0.8395 0.22106 0.0
C374 C 0.33966 0.83185 0.31456 0.0
C375 C 0.4824 0.90205 0.22255 0.0
H376 H 0.47662 0.92086 0.26051 0.0
H377 H 0.49683 0.90534 0.14787 0.0
H378 H 0.46557 0.89273 0.18067 0.0
O379 O 0.43625 0.858 0.25088 0.0
O380 O 0.39465 0.8552 0.25109 0.0
C381 C 0.41189 0.91773 0.35884 0.0
O382 O 0.40041 0.82638 0.49754 0.0
O383 O 0.44225 0.83069 0.49948 0.0
Zn384 Zn 0.8679 0.93675 0.67034 0.0
O385 O 0.90605 0.92853 0.60973 0.0
C386 C 0.84993 0.9162 0.42765 0.0
Zn387 Zn 0.8605 0.89453 0.67573 0.0
C388 C 0.91382 0.9058 0.5936 0.0
O389 O 0.89884 0.8873 0.61713 0.0
C390 C 0.81441 0.92519 0.75635 0.0
O391 O 0.87172 0.89487 0.86208 0.0
O392 O 0.87914 0.93594 0.85772 0.0
N393 N 0.85281 0.85583 0.68715 0.0
C394 C 0.86078 0.83553 0.61946 0.0
C395 C 0.83613 0.82132 0.76306 0.0
N396 N 0.83744 0.84687 0.77598 0.0
N397 N 0.85059 0.81374 0.66532 0.0
C398 C 0.88916 0.98989 0.57765 0.0
C399 C 0.87111 1.01577 0.70364 0.0
N400 N 0.87502 0.97576 0.65866 0.0
N401 N 0.86391 0.99197 0.73681 0.0
N402 N 0.88695 1.01501 0.60381 0.0
H403 H 0.92257 0.97057 0.51387 0.0
H404 H 0.91105 0.9941 0.40554 0.0
H405 H 0.89442 0.96415 0.42294 0.0
C406 C 0.90512 0.97917 0.4734 0.0
C407 C 0.8791 0.83686 0.51144 0.0
H408 H 0.87749 0.8553 0.46147 0.0
H409 H 0.87568 0.821 0.44453 0.0
H410 H 0.8988 0.83506 0.5482 0.0
O411 O 0.82225 0.90256 0.73714 0.0
O412 O 0.82928 0.94387 0.73313 0.0
C413 C 0.87842 0.91512 0.91878 0.0
O414 O 0.85633 0.93645 0.48485 0.0
O415 O 0.84941 0.89538 0.48841 0.0
Zn416 Zn 0.90326 0.16107 0.28931 0.0
O417 O 0.90513 0.14973 0.10277 0.0
C418 C 0.92808 0.20928 0.20565 0.0
Zn419 Zn 0.94582 0.15681 0.29538 0.0
C420 C 0.92585 0.14433 0.04687 0.0
O421 O 0.94653 0.14508 0.10864 0.0
C422 C 0.92333 0.17304 0.5382 0.0
O423 O 0.94207 0.11775 0.35908 0.0
O424 O 0.90062 0.12276 0.34942 0.0
N425 N 0.9855 0.15485 0.30464 0.0
C426 C 1.00175 0.14295 0.38418 0.0
C427 C 0.02445 0.1629 0.2498 0.0
N428 N 0.99976 0.1672 0.22148 0.0
N429 N 0.02627 0.14774 0.3517 0.0
C430 C 0.84525 0.17596 0.32464 0.0
C431 C 0.82743 0.14356 0.24106 0.0
N432 N 0.86403 0.16097 0.27922 0.0
N433 N 0.85281 0.14094 0.22708 0.0
N434 N 0.82218 0.16532 0.30256 0.0
H435 H 0.84123 0.19991 0.48634 0.0
H436 H 0.86983 0.20587 0.39481 0.0
H437 H 0.83886 0.21603 0.33876 0.0
C438 C 0.84932 0.20088 0.38998 0.0
C439 C 0.99367 0.12644 0.49212 0.0
H440 H 0.9775 0.13528 0.54269 0.0
H441 H 0.98731 0.10769 0.45538 0.0
H442 H 1.00957 0.1232 0.55879 0.0
O443 O 0.94411 0.16861 0.48083 0.0
O444 O 0.90257 0.17192 0.47713 0.0
C445 C 0.91966 0.10885 0.37476 0.0
O446 O 0.90615 0.19966 0.22669 0.0
O447 O 0.94798 0.19611 0.22895 0.0
Zn448 Zn 0.17808 0.13286 0.62864 0.0
O449 O 0.16765 0.135 0.8159 0.0
C450 C 0.2247 0.10423 0.71378 0.0
Zn451 Zn 0.17145 0.09066 0.62957 0.0
C452 C 0.16126 0.11492 0.87522 0.0
O453 O 0.16059 0.09381 0.81654 0.0
C454 C 0.18869 0.10841 0.38361 0.0
O455 O 0.13271 0.09816 0.56942 0.0
O456 O 0.13993 0.13944 0.57045 0.0
N457 N 0.16473 0.05147 0.6303 0.0
C458 C 0.15073 0.0363 0.55371 0.0
C459 C 0.1699 1.01198 0.68306 0.0
N460 N 0.17654 0.03622 0.71062 0.0
N461 N 0.15372 1.01148 0.58471 0.0
C462 C 0.17339 0.19253 0.6465 0.0
C463 C 0.20867 0.20396 0.56353 0.0
N464 N 0.18629 0.17108 0.61764 0.0
N465 N 0.20817 0.1783 0.56611 0.0
N466 N 0.18702 0.21334 0.61305 0.0
H467 H 0.14268 0.17482 0.75033 0.0
H468 H 0.13308 0.19681 0.62963 0.0
H469 H 0.14613 0.20893 0.77369 0.0
C470 C 0.14737 0.19317 0.70436 0.0
C471 C 0.13402 0.04573 0.44947 0.0
H472 H 0.11606 0.05317 0.49039 0.0
H473 H 0.12911 0.03028 0.38258 0.0
H474 H 0.14352 0.06142 0.39804 0.0
O475 O 0.18272 0.0884 0.44358 0.0
O476 O 0.18854 0.12954 0.44141 0.0
C477 C 0.12485 0.12085 0.55131 0.0
O478 O 0.21612 0.1263 0.68932 0.0
O479 O 0.21058 0.0848 0.69327 0.0
Zn480 Zn 0.08979 0.87056 0.28928 0.0
O481 O 0.09781 0.90886 0.35353 0.0
C482 C 0.11098 0.85251 0.53137 0.0
Zn483 Zn 0.13183 0.86314 0.2818 0.0
C484 C 0.12084 0.91629 0.36668 0.0
O485 O 0.13896 0.90119 0.33946 0.0
C486 C 0.1017 0.81742 0.19872 0.0
O487 O 0.13094 0.87458 0.09498 0.0
O488 O 0.09004 0.8826 0.10247 0.0
N489 N 0.17027 0.8554 0.26729 0.0
C490 C 0.19093 0.86309 0.33295 0.0
C491 C 0.20389 0.83656 0.19504 0.0
N492 N 0.17844 0.83893 0.18181 0.0
N493 N 0.21216 0.85152 0.28938 0.0
C494 C 0.03534 0.88748 0.38699 0.0
C495 C 1.01114 0.8684 0.2563 0.0
N496 N 0.05063 0.87583 0.30204 0.0
N497 N 0.03544 0.86408 0.22107 0.0
N498 N 1.01048 0.88295 0.36062 0.0
H499 H 0.05353 0.92101 0.45757 0.0
H500 H 0.02901 0.90856 0.55956 0.0
H501 H 0.05954 0.89282 0.54763 0.0
C502 C 0.04473 0.9033 0.49478 0.0
C503 C 0.19043 0.882 0.43836 0.0
H504 H 0.17214 0.88094 0.49023 0.0
H505 H 0.20649 0.87874 0.50422 0.0
H506 H 0.19239 0.90145 0.39849 0.0
O507 O 0.12422 0.8251 0.22117 0.0
O508 O 0.08303 0.83217 0.22179 0.0
C509 C 0.11066 0.88168 0.03985 0.0
O510 O 0.09054 0.85838 0.47457 0.0
O511 O 0.13168 0.85213 0.46953 0.0
C512 C 0.39405 0.96216 0.37161 0.0
C513 C 0.40767 0.94338 0.30279 0.0
C514 C 0.41102 0.97284 0.12393 0.0
C515 C 0.39486 0.99026 0.18665 0.0
N516 N 0.3679 1.00026 0.3629 0.0
N517 N 0.42433 0.92896 0.10313 0.0
C518 C 0.38561 0.98464 0.30901 0.0
C519 C 0.41508 0.94825 0.1763 0.0
N520 N 0.38959 0.95867 0.49717 0.0
N521 N 0.42268 0.98 0.01455 0.0
H522 H 0.42613 0.91033 0.13554 0.0
H523 H 0.42764 0.9308 0.00688 0.0
H524 H 0.4202 0.99805 0.97514 0.0
H525 H 0.43658 0.96907 0.97012 0.0
H526 H 0.38193 0.9727 0.55518 0.0
H527 H 0.39565 0.94251 0.54584 0.0
H528 H 0.35844 0.99596 0.44649 0.0
H529 H 0.36117 0.01665 0.3186 0.0
C530 C 0.953 0.60752 0.77489 0.0
C531 C 0.94679 0.61436 0.64917 0.0
C532 C 0.98617 0.63946 0.63418 0.0
C533 C 0.99315 0.63131 0.75652 0.0
N534 N 0.98617 0.60357 0.93284 0.0
N535 N 0.96015 0.63175 0.44972 0.0
C536 C 0.97749 0.61394 0.82324 0.0
C537 C 0.96434 0.62865 0.57569 0.0
N538 N 0.93503 0.59657 0.85104 0.0
N539 N 0.99954 0.65859 0.57689 0.0
H540 H 0.9445 0.62371 0.40385 0.0
H541 H 0.97342 0.64003 0.38905 0.0
H542 H 1.0151 0.66755 0.6189 0.0
H543 H 0.99383 0.66713 0.49307 0.0
H544 H 0.93762 0.59382 0.94725 0.0
H545 H 0.91665 0.59225 0.82077 0.0
H546 H 0.97668 0.58902 0.9806 0.0
H547 H 1.00411 0.60797 0.96938 0.0
C548 C 0.62693 0.05033 0.29849 0.0
C549 C 0.64395 0.04816 0.19541 0.0
C550 C 0.65083 0.09445 0.19815 0.0
C551 C 0.63505 0.09653 0.30685 0.0
N552 N 0.61272 0.07551 0.47656 0.0
N553 N 0.67614 0.06681 0.06407 0.0
C554 C 0.62444 0.07416 0.36185 0.0
C555 C 0.65724 0.06987 0.15114 0.0
N556 N 0.61229 0.02988 0.33222 0.0
N557 N 0.65838 0.11585 0.13464 0.0
H558 H 0.68113 0.04893 0.0289 0.0
H559 H 0.68836 0.08145 0.0363 0.0
H560 H 0.65321 0.13422 0.16145 0.0
H561 H 0.66769 0.11531 0.04813 0.0
H562 H 0.5975 0.03095 0.39747 0.0
H563 H 0.61364 1.01226 0.28745 0.0
H564 H 0.6068 0.0595 0.5268 0.0
H565 H 0.61114 0.09243 0.52739 0.0
C566 C 0.04844 0.41767 0.847 0.0
C567 C 0.03504 0.39831 0.78214 0.0
C568 C 0.06717 0.39944 0.61425 0.0
C569 C 0.08267 0.41562 0.68922 0.0
N570 N 0.0891 0.43826 0.88432 0.0
N571 N 0.03241 0.36886 0.60936 0.0
C572 C 0.07344 0.42464 0.80682 0.0
C573 C 0.04445 0.38887 0.66621 0.0
N574 N 0.03712 0.42926 0.94747 0.0
N575 N 0.07419 0.39434 0.49298 0.0
H576 H 1.01589 0.36056 0.64576 0.0
H577 H 0.03979 0.35927 0.53171 0.0
H578 H 0.09055 0.40214 0.45206 0.0
H579 H 0.06264 0.38453 0.42969 0.0
H580 H 0.04473 0.44518 -0.00755 0.0
H581 H 0.01885 0.42429 0.97812 0.0
H582 H 0.08426 0.44306 0.97622 0.0
H583 H 0.10777 0.44304 0.86054 0.0
C584 C 0.3847 0.54891 0.93781 0.0
C585 C 0.39342 0.54106 0.05785 0.0
C586 C 0.41838 0.58061 0.07672 0.0
C587 C 0.41074 0.58783 0.95345 0.0
N588 N 0.39132 0.57621 0.75623 0.0
N589 N 0.42256 0.54643 0.22965 0.0
C590 C 0.39539 0.57107 0.88067 0.0
C591 C 0.41162 0.556 0.12326 0.0
N592 N 0.36529 0.53588 0.88127 0.0
N593 N 0.43056 0.59776 0.15257 0.0
H594 H 0.41801 0.5284 0.26465 0.0
H595 H 0.4377 0.55526 0.27583 0.0
H596 H 0.43524 0.61615 0.12355 0.0
H597 H 0.43407 0.59454 0.24769 0.0
H598 H 0.35621 0.54212 0.79986 0.0
H599 H 0.35682 0.51982 0.92157 0.0
H600 H 0.38229 0.56357 0.6952 0.0
H601 H 0.39921 0.59206 0.71115 0.0
C602 C 0.57594 0.64729 0.09099 0.0
C603 C 0.59295 0.63201 0.0194 0.0
C604 C 0.56053 0.62795 0.85387 0.0
C605 C 0.54481 0.64542 0.91901 0.0
N606 N 0.53869 0.67466 0.09022 0.0
N607 N 0.60309 0.61119 0.82271 0.0
C608 C 0.55282 0.65587 0.03533 0.0
C609 C 0.58565 0.62307 0.8983 0.0
N610 N 0.58154 0.65293 0.21346 0.0
N611 N 0.55114 0.61571 0.75045 0.0
H612 H 0.62184 0.6077 0.85002 0.0
H613 H 0.59968 0.60681 0.72866 0.0
H614 H 0.53277 0.61897 0.71656 0.0
H615 H 0.5606 0.60085 0.70545 0.0
H616 H 0.56879 0.66186 0.27423 0.0
H617 H 0.59804 0.64656 0.25808 0.0
H618 H 0.54475 0.685 0.16828 0.0
H619 H 0.52172 0.68133 0.05138 0.0
C620 C 0.63798 0.47534 0.11768 0.0
C621 C 0.63629 0.49581 0.0323 0.0
C622 C 0.61471 0.46797 0.87956 0.0
C623 C 0.61982 0.44662 0.95811 0.0
N624 N 0.63868 0.42977 0.14896 0.0
N625 N 0.62469 0.51219 0.82967 0.0
C626 C 0.63196 0.45027 0.07686 0.0
C627 C 0.62472 0.49239 0.91313 0.0
N628 N 0.64534 0.48012 0.23861 0.0
N629 N 0.60091 0.46482 0.77169 0.0
H630 H 0.63167 0.53022 0.85273 0.0
H631 H 0.61923 0.51048 0.73594 0.0
H632 H 0.59447 0.44711 0.74066 0.0
H633 H 0.59442 0.47992 0.71696 0.0
H634 H 0.64456 0.4666 0.31031 0.0
H635 H 0.6499 0.49844 0.26962 0.0
H636 H 0.65025 0.43112 0.22819 0.0
H637 H 0.63401 0.41105 0.12633 0.0
C638 C 0.44025 0.41289 0.91172 0.0
C639 C 0.43512 0.40446 0.03652 0.0
C640 C 0.47509 0.38024 0.03536 0.0
C641 C 0.48144 0.39091 0.91679 0.0
N642 N 0.47218 0.42029 0.75 0.0
N643 N 0.4495 0.38332 0.22495 0.0
C644 C 0.4646 0.40813 0.85733 0.0
C645 C 0.45309 0.38902 0.10063 0.0
N646 N 0.42143 0.42409 0.84236 0.0
N647 N 0.48969 0.36105 0.08331 0.0
H648 H 0.4338 0.38974 0.27627 0.0
H649 H 0.46316 0.37428 0.28006 0.0
H650 H 0.50557 0.35386 0.03614 0.0
H651 H 0.48475 0.3507 0.16339 0.0
H652 H 0.42329 0.42828 0.74698 0.0
H653 H 0.40306 0.42691 0.87675 0.0
H654 H 0.46188 0.43504 0.70875 0.0
H655 H 0.48988 0.417 0.70821 0.0
C656 C 0.88108 0.45038 0.82538 0.0
C657 C 0.89651 0.43351 0.75363 0.0
C658 C 0.90163 0.46666 0.59169 0.0
C659 C 0.88418 0.48242 0.65682 0.0
N660 N 0.85475 0.48849 0.82728 0.0
N661 N 0.91759 0.42392 0.55724 0.0
C662 C 0.87325 0.47408 0.77177 0.0
C663 C 0.90589 0.44125 0.63391 0.0
N664 N 0.87456 0.44411 0.94609 0.0
N665 N 0.91443 0.47626 0.4902 0.0
H666 H 0.9201 0.40489 0.58238 0.0
H667 H 0.92253 0.42771 0.46416 0.0
H668 H 0.91171 0.49486 0.45818 0.0
H669 H 0.92929 0.46673 0.44546 0.0
H670 H 0.8655 0.4566 0.00759 0.0
H671 H 0.88012 0.42709 -0.01137 0.0
H672 H 0.84398 0.4824 0.90402 0.0
H673 H 0.84891 0.50597 0.79053 0.0
C674 C 0.49142 0.14815 0.1757 0.0
C675 C 0.49721 0.13845 0.29695 0.0
C676 C 0.45619 0.11578 0.30053 0.0
C677 C 0.45122 0.12383 0.17505 0.0
N678 N 0.46646 0.14371 -0.01535 0.0
N679 N 0.48782 0.10906 0.46372 0.0
C680 C 0.46963 0.13878 0.10993 0.0
C681 C 0.48042 0.12092 0.35547 0.0
N682 N 0.50603 0.16726 0.12618 0.0
N683 N 0.43722 0.1049 0.37075 0.0
H684 H 0.50556 0.11243 0.50499 0.0
H685 H 0.47752 0.09428 0.50523 0.0
H686 H 0.41883 0.10208 0.33675 0.0
H687 H 0.43896 0.10106 0.46652 0.0
H688 H 0.50136 0.177 0.04403 0.0
H689 H 0.52176 0.17484 0.17307 0.0
H690 H 0.48036 0.15241 0.92915 0.0
H691 H 0.4509 0.13691 0.93351 0.0
C692 C 0.12407 0.58937 0.60647 0.0
C693 C 0.13272 0.59743 0.72684 0.0
C694 C 0.15628 0.55729 0.75078 0.0
C695 C 0.14596 0.54852 0.63545 0.0
N696 N 0.11746 0.55412 0.46164 0.0
N697 N 0.15394 0.58776 0.92224 0.0
C698 C 0.12906 0.564 0.56575 0.0
C699 C 0.14804 0.58104 0.80143 0.0
N700 N 0.11221 0.60634 0.52857 0.0
N701 N 0.17446 0.54309 0.80997 0.0
H702 H 0.14809 0.60488 0.96281 0.0
H703 H 0.16281 0.57558 -0.01421 0.0
H704 H 0.18059 0.52552 0.77555 0.0
H705 H 0.1848 0.54946 0.88737 0.0
H706 H 0.10774 0.60242 0.43517 0.0
H707 H 0.10885 0.62523 0.5537 0.0
H708 H 0.10291 0.56333 0.41316 0.0
H709 H 0.12109 0.53567 0.4297 0.0
C710 C 0.57769 0.92062 0.27897 0.0
C711 C 0.58428 0.911 0.15775 0.0
C712 C 0.5468 0.88266 0.16441 0.0
C713 C 0.53969 0.89313 0.28207 0.0
N714 N 0.54495 0.92545 0.43926 0.0
N715 N 0.5721 0.88697 0.97416 0.0
C716 C 0.55411 0.91322 0.33532 0.0
C717 C 0.56788 0.89322 0.09722 0.0
N718 N 0.59454 0.93549 0.34423 0.0
N719 N 0.53381 0.86203 0.11911 0.0
H720 H 0.58694 0.89488 0.9216 0.0
H721 H 0.55958 0.87599 0.92083 0.0
H722 H 0.51827 0.85404 0.16625 0.0
H723 H 0.53953 0.85172 0.04036 0.0
H724 H 0.59204 0.94041 0.43835 0.0
H725 H 0.61217 0.94118 0.30887 0.0
H726 H 0.55307 0.94199 0.47582 0.0
H727 H 0.52778 0.92028 0.48219 0.0
C728 C 0.88911 0.04374 0.41818 0.0
C729 C 0.89777 0.03689 0.53983 0.0
C730 C 0.92234 0.07675 0.55192 0.0
C731 C 0.91496 0.08286 0.42678 0.0
N732 N 0.89577 0.0696 0.23153 0.0
N733 N 0.92658 0.0439 0.71159 0.0
C734 C 0.89975 0.06547 0.35696 0.0
C735 C 0.91572 0.05249 0.60299 0.0
N736 N 0.86978 0.03019 0.36386 0.0
N737 N 0.93412 0.09466 0.62509 0.0
H738 H 0.92213 0.02612 0.74999 0.0
H739 H 0.94156 0.05324 0.75652 0.0
H740 H 0.9386 0.11288 0.59287 0.0
H741 H 0.93738 0.09226 0.72101 0.0
H742 H 0.86077 0.03573 0.28102 0.0
H743 H 0.86128 1.0145 0.40728 0.0
H744 H 0.88686 0.05643 0.17282 0.0
H745 H 0.90359 0.08513 0.18359 0.0
C746 C 0.08163 0.14116 0.57763 0.0
C747 C 0.09848 0.12588 0.50493 0.0
C748 C 0.06533 0.12144 0.34288 0.0
C749 C 0.04978 0.13902 0.40845 0.0
N750 N 0.04417 0.16832 0.57977 0.0
N751 N 0.10794 0.10507 0.30776 0.0
C752 C 0.05818 0.14955 0.52398 0.0
C753 C 0.09069 0.11678 0.38494 0.0
N754 N 0.08775 0.14708 0.69915 0.0
N755 N 0.05561 0.10897 0.24096 0.0
H756 H 0.12691 0.10222 0.33286 0.0
H757 H 0.10413 0.10037 0.21446 0.0
H758 H 0.03704 0.11198 0.20915 0.0
H759 H 0.06498 0.09409 0.19566 0.0
H760 H 0.07524 0.15606 0.76091 0.0
H761 H 0.10452 0.14093 0.74206 0.0
H762 H 0.05047 0.17878 0.65697 0.0
H763 H 0.02696 0.17478 0.54264 0.0
C764 C 0.1192 0.9489 0.54169 0.0
C765 C 0.127 0.94205 0.41798 0.0
C766 C 0.15291 0.98113 0.40547 0.0
C767 C 0.14363 0.98881 0.52488 0.0
N768 N 0.11451 0.98264 0.69651 0.0
N769 N 0.14729 0.95397 0.22279 0.0
C770 C 0.12566 0.97346 0.58966 0.0
C771 C 0.14269 0.9589 0.34704 0.0
N772 N 0.10701 0.93147 0.61632 0.0
N773 N 0.17229 0.99454 0.3504 0.0
H774 H 0.13978 0.93812 0.17643 0.0
H775 H 0.15649 0.96675 0.16288 0.0
H776 H 0.18032 1.01071 0.39146 0.0
H777 H 0.18179 0.9885 0.26967 0.0
H778 H 0.10335 0.93441 0.71155 0.0
H779 H 0.10256 0.91308 0.58645 0.0
H780 H 0.09943 0.97354 0.74213 0.0
H781 H 0.11888 1.0006 0.73285 0.0
C782 C 0.98109 0.87946 0.54382 0.0
C783 C 0.98756 0.89061 0.42633 0.0
C784 C 0.9452 0.9102 0.41517 0.0
C785 C 0.93946 0.90094 0.53776 0.0
N786 N 0.95353 0.88016 0.72769 0.0
N787 N 0.97802 0.92043 0.26197 0.0
C788 C 0.9579 0.88655 0.60485 0.0
C789 C 0.97026 0.90724 0.36599 0.0
N790 N 0.99659 0.86126 0.59417 0.0
N791 N 0.92633 0.92038 0.34232 0.0
H792 H 0.9964 0.91875 0.22519 0.0
H793 H 0.96718 0.93471 0.22008 0.0
H794 H 0.90745 0.92161 0.37216 0.0
H795 H 0.9288 0.92512 0.2479 0.0
H796 H 0.99175 0.85046 0.67291 0.0
H797 H 1.01351 0.85553 0.55111 0.0
H798 H 0.96726 0.87193 0.7854 0.0
H799 H 0.93684 0.88509 0.77526 0.0
C800 C 0.37395 0.25053 0.17385 0.0
C801 C 0.36125 0.24046 0.06734 0.0
C802 C 0.33858 0.28087 0.03828 0.0
C803 C 0.35272 0.29148 0.13896 0.0
N804 N 0.38554 0.28807 0.29505 0.0
N805 N 0.33294 0.24554 0.89235 0.0
C806 C 0.37082 0.27669 0.20516 0.0
C807 C 0.34384 0.25551 -0.0019 0.0
N808 N 0.38876 0.23481 0.24544 0.0
N809 N 0.3199 0.29509 -0.01689 0.0
H810 H 0.33609 0.22678 0.86388 0.0
H811 H 0.32185 0.25599 0.82987 0.0
H812 H 0.31614 0.31383 0.01004 0.0
H813 H 0.30725 0.28806 0.91621 0.0
H814 H 0.39676 0.24009 0.33109 0.0
H815 H 0.39157 0.21566 0.22321 0.0
H816 H 0.40082 0.27923 0.33933 0.0
H817 H 0.38353 0.30722 0.31945 0.0
C818 C 0.27681 0.66928 0.73425 0.0
C819 C 0.29198 0.68143 0.82654 0.0
C820 C 0.25422 0.70203 0.91552 0.0
C821 C 0.2391 0.69033 0.82165 0.0
N822 N 0.2358 0.66674 0.62881 0.0
N823 N 0.29676 0.71254 -0.01013 0.0
C824 C 0.25039 0.67512 0.72678 0.0
C825 C 0.28111 0.69894 0.91222 0.0
N826 N 0.28761 0.65142 0.65764 0.0
N827 N 0.24261 0.71516 0.0105 0.0
H828 H 0.31655 0.71047 -0.01192 0.0
H829 H 0.29051 0.7272 0.04808 0.0
H830 H 0.22288 0.71743 0.01536 0.0
H831 H 0.25217 0.72223 0.08882 0.0
H832 H 0.27724 0.6398 0.59698 0.0
H833 H 0.30706 0.64731 0.65993 0.0
H834 H 0.24317 0.65747 0.55025 0.0
H835 H 0.21638 0.67075 0.62201 0.0
C836 C 0.69213 0.78203 -0.00665 0.0
C837 C 0.67289 0.79707 0.04965 0.0
C838 C 0.65849 0.76054 0.17517 0.0
C839 C 0.67822 0.74571 0.12179 0.0
N840 N 0.71536 0.74193 -0.00882 0.0
N841 N 0.63949 0.80243 0.20199 0.0
C842 C 0.69553 0.75639 0.03383 0.0
C843 C 0.65658 0.78681 0.14332 0.0
N844 N 0.70666 0.79233 0.8994 0.0
N845 N 0.64123 0.7491 0.25346 0.0
H846 H 0.63739 0.82159 0.17803 0.0
H847 H 0.62845 0.79702 0.2789 0.0
H848 H 0.64247 0.72992 0.27862 0.0
H849 H 0.62492 0.75797 0.28776 0.0
H850 H 0.71959 0.78204 0.84537 0.0
H851 H 0.70491 0.81133 0.87163 0.0
H852 H 0.73005 0.74885 0.9349 0.0
H853 H 0.71779 0.72295 0.01797 0.0
C854 C 0.77522 0.35886 0.78939 0.0
C855 C 0.78765 0.34243 0.87523 0.0
C856 C 0.74665 0.33161 0.97225 0.0
C857 C 0.7346 0.34995 0.89512 0.0
N858 N 0.73729 0.38338 0.74097 0.0
N859 N 0.78635 0.3154 0.05751 0.0
C860 C 0.74884 0.36416 0.80588 0.0
C861 C 0.77364 0.3293 0.96902 0.0
N862 N 0.7886 0.3688 0.69053 0.0
N863 N 0.73205 0.3162 0.04691 0.0
H864 H 0.80617 0.31374 0.05788 0.0
H865 H 0.77759 0.30723 0.13574 0.0
H866 H 0.7122 0.31751 0.04938 0.0
H867 H 0.73926 0.30087 0.0977 0.0
H868 H 0.7802 0.37897 0.61742 0.0
H869 H 0.80794 0.36515 0.67671 0.0
H870 H 0.74712 0.39623 0.68399 0.0
H871 H 0.71798 0.3876 0.75118 0.0
C872 C 0.87504 0.7462 0.66423 0.0
C873 C 0.86242 0.73629 0.55706 0.0
C874 C 0.84099 0.77735 0.5248 0.0
C875 C 0.85495 0.78773 0.62679 0.0
N876 N 0.8871 0.7836 0.78574 0.0
N877 N 0.83506 0.74204 0.37894 0.0
C878 C 0.87244 0.77251 0.69472 0.0
C879 C 0.84576 0.75179 0.48566 0.0
N880 N 0.8892 0.73019 0.73739 0.0
N881 N 0.82287 0.79194 0.46758 0.0
H882 H 0.83781 0.72317 0.35113 0.0
H883 H 0.82458 0.75275 0.31497 0.0
H884 H 0.81947 0.81081 0.49365 0.0
H885 H 0.8103 0.78514 0.39975 0.0
H886 H 0.89709 0.73536 0.82344 0.0
H887 H 0.89158 0.71095 0.71583 0.0
H888 H 0.90196 0.77441 0.83176 0.0
H889 H 0.8855 0.80283 0.80931 0.0
C890 C 0.78008 0.18216 0.24338 0.0
C891 C 0.79702 0.17372 0.33811 0.0
C892 C 0.763 0.17755 0.49593 0.0
C893 C 0.74558 0.18377 0.39918 0.0
N894 N 0.73619 0.18924 0.17971 0.0
N895 N 0.80439 0.16015 0.55106 0.0
C896 C 0.75379 0.18539 0.27238 0.0
C897 C 0.78847 0.1707 0.46395 0.0
N898 N 0.78944 0.18748 0.12629 0.0
N899 N 0.75507 0.17847 0.61824 0.0
H900 H 0.82304 0.15479 0.52976 0.0
H901 H 0.7987 0.15511 0.64155 0.0
H902 H 0.73632 0.18285 0.64296 0.0
H903 H 0.76728 0.17661 0.69482 0.0
H904 H 0.77872 0.19579 0.05492 0.0
H905 H 0.80871 0.18545 0.10388 0.0
H906 H 0.74034 0.18815 0.08412 0.0
H907 H 0.71683 0.19172 0.19875 0.0
C908 C 0.15648 0.2777 0.56665 0.0
C909 C 0.17194 0.29283 0.64642 0.0
C910 C 0.195 0.25476 0.71504 0.0
C911 C 0.18103 0.23996 0.62763 0.0
N912 N 0.15156 0.23761 0.45513 0.0
N913 N 0.20864 0.29696 0.77986 0.0
C914 C 0.16255 0.25151 0.54914 0.0
C915 C 0.19202 0.28165 0.71599 0.0
N916 N 0.13561 0.28828 0.51086 0.0
N917 N 0.21055 0.24287 0.79954 0.0
H918 H 0.20714 0.31678 0.77962 0.0
H919 H 0.22511 0.29027 0.82318 0.0
H920 H 0.21265 0.22311 0.8021 0.0
H921 H 0.21951 0.25226 0.87364 0.0
H922 H 0.12209 0.27775 0.46141 0.0
H923 H 0.13084 0.30743 0.52227 0.0
H924 H 0.13974 0.24548 0.38681 0.0
H925 H 0.15593 0.21849 0.43966 0.0
C926 C 0.28054 0.87358 0.30472 0.0
C927 C 0.2897 0.85822 0.40466 0.0
C928 C 0.24726 0.83914 0.43153 0.0
C929 C 0.23822 0.85419 0.33026 0.0
N930 N 0.24558 0.88418 0.16369 0.0
N931 N 0.2835 0.8252 0.55731 0.0
C932 C 0.25475 0.87097 0.26476 0.0
C933 C 0.27348 0.8406 0.46637 0.0
N934 N 0.29654 0.89107 0.25092 0.0
N935 N 0.23049 0.82378 0.49457 0.0
H936 H 0.30262 0.82625 0.58393 0.0
H937 H 0.27353 0.81066 0.60227 0.0
H938 H 0.21138 0.82212 0.46851 0.0
H939 H 0.23494 0.81346 0.57507 0.0
H940 H 0.29091 0.9046 0.18515 0.0
H941 H 0.31569 0.89272 0.27596 0.0
H942 H 0.25678 0.89515 0.1036 0.0
H943 H 0.22649 0.88336 0.13657 0.0
C944 C 0.25365 0.0944 0.89847 0.0
C945 C 0.25079 0.10195 0.77036 0.0
C946 C 0.29688 0.11131 0.75891 0.0
C947 C 0.29941 0.10556 0.8892 0.0
N948 N 0.28033 0.09347 0.08626 0.0
N949 N 0.26913 0.11852 0.57917 0.0
C950 C 0.27785 0.09731 0.95954 0.0
C951 C 0.27231 0.11062 0.70088 0.0
N952 N 0.2331 0.08475 0.96226 0.0
N953 N 0.3182 0.11669 0.68958 0.0
H954 H 0.25206 0.11624 0.53012 0.0
H955 H 0.28292 0.12827 0.52759 0.0
H956 H 0.33637 0.11771 0.7286 0.0
H957 H 0.31836 0.11857 0.59222 0.0
H958 H 0.23413 0.07651 0.05109 0.0
H959 H 0.21488 0.08364 0.9237 0.0
H960 H 0.26514 0.09011 0.1471 0.0
H961 H 0.29772 0.09519 0.1331 0.0
C962 C 0.10237 0.7679 0.93432 0.0
C963 C 0.09567 0.74549 0.00086 0.0
C964 C 0.08769 0.77122 0.19121 0.0
C965 C 0.09783 0.79296 0.12914 0.0
N966 N 0.1165 0.81176 0.94295 0.0
N967 N 0.08375 0.72508 0.19595 0.0
C968 C 0.10551 0.79124 0.00083 0.0
C969 C 0.08842 0.74697 0.12987 0.0
N970 N 0.10515 0.76693 0.80641 0.0
N971 N 0.07762 0.7737 0.30925 0.0
H972 H 0.08374 0.70707 0.15473 0.0
H973 H 0.08147 0.72453 0.2932 0.0
H974 H 0.07774 0.79091 0.35841 0.0
H975 H 0.06753 0.75928 0.35483 0.0
H976 H 0.10738 0.78302 0.74998 0.0
H977 H 0.10269 0.75015 0.75507 0.0
H978 H 0.12565 0.81074 0.85613 0.0
H979 H 0.11799 0.82955 -0.01468 0.0
C980 C 0.74514 0.94669 0.80916 0.0
C981 C 0.73902 0.93349 0.92243 0.0
C982 C 0.78381 0.91951 0.93801 0.0
C983 C 0.78881 0.92942 0.81577 0.0
N984 N 0.77368 0.95078 0.62983 0.0
N985 N 0.75266 0.90752 0.09685 0.0
C986 C 0.76943 0.94289 0.75071 0.0
C987 C 0.75846 0.92 -0.01256 0.0
N988 N 0.72783 0.96293 0.75693 0.0
N989 N 0.80358 0.91059 0.0092 0.0
H990 H 0.7352 0.90956 0.1429 0.0
H991 H 0.76474 0.89443 0.13976 0.0
H992 H 0.82237 0.91032 0.97723 0.0
H993 H 0.80189 0.90561 0.10365 0.0
H994 H 0.73234 0.97554 0.68453 0.0
H995 H 0.70962 0.96563 0.79322 0.0
H996 H 0.75944 0.9579 0.57151 0.0
H997 H 0.79108 0.94834 0.58381 0.0
C998 C 0.93705 0.28112 0.15174 0.0
C999 C 0.93042 0.28332 0.02229 0.0
C1000 C 0.92297 0.237 0.01283 0.0
C1001 C 0.93018 0.23465 0.1415 0.0
N1002 N 0.94805 0.25361 0.32792 0.0
N1003 N 0.92197 0.26311 0.82367 0.0
C1004 C 0.93863 0.25646 0.20889 0.0
C1005 C 0.9248 0.26113 0.95124 0.0
N1006 N 0.94044 0.30268 0.22203 0.0
N1007 N 0.91395 0.21615 0.9497 0.0
H1008 H 0.92341 0.28045 0.77593 0.0
H1009 H 0.92049 0.24752 0.76361 0.0
H1010 H 0.91371 0.19791 -0.01165 0.0
H1011 H 0.90534 0.21706 0.86166 0.0
H1012 H 0.94216 0.30266 0.31956 0.0
H1013 H 0.93987 0.32097 0.18384 0.0
H1014 H 0.95711 0.26815 0.37741 0.0
H1015 H 0.94841 0.23611 0.37451 0.0
C1016 C 0.28151 0.44576 0.44148 0.0
C1017 C 0.28641 0.42845 0.34055 0.0
C1018 C 0.24995 0.40303 0.4113 0.0
C1019 C 0.24126 0.42297 0.49079 0.0
N1020 N 0.25085 0.46347 0.5886 0.0
N1021 N 0.27011 0.39403 0.21247 0.0
C1022 C 0.2575 0.44462 0.50649 0.0
C1023 C 0.26879 0.40836 0.31951 0.0
N1024 N 0.30026 0.46179 0.48314 0.0
N1025 N 0.24224 0.37848 0.42939 0.0
H1026 H 0.28225 0.3986 0.13786 0.0
H1027 H 0.25719 0.37946 0.1926 0.0
H1028 H 0.23306 0.37263 0.51128 0.0
H1029 H 0.24919 0.3634 0.37547 0.0
H1030 H 0.29856 0.47271 0.56453 0.0
H1031 H 0.31854 0.4624 0.44524 0.0
H1032 H 0.25984 0.48121 0.5902 0.0
H1033 H 0.23627 0.4614 0.65455 0.0
C1034 C 0.41367 0.74508 0.5632 0.0
C1035 C 0.42378 0.74134 0.68621 0.0
C1036 C 0.43367 0.78725 0.69886 0.0
C1037 C 0.42449 0.79078 0.57406 0.0
N1038 N 0.40996 0.77248 0.3794 0.0
N1039 N 0.44676 0.75803 0.86426 0.0
C1040 C 0.41559 0.76951 0.5042 0.0
C1041 C 0.43497 0.76217 0.75144 0.0
N1042 N 0.40206 0.72525 0.50251 0.0
N1043 N 0.43976 0.80806 0.77016 0.0
H1044 H 0.44677 0.74037 0.9093 0.0
H1045 H 0.45795 0.77162 0.90954 0.0
H1046 H 0.43918 0.82664 0.73575 0.0
H1047 H 0.44346 0.80716 0.86617 0.0
H1048 H 0.39114 0.72743 0.42159 0.0
H1049 H 0.40216 0.70664 0.5366 0.0
H1050 H 0.40603 0.7574 0.31881 0.0
H1051 H 0.41138 0.78997 0.33307 0.0
C1052 C 0.76644 0.61533 0.2042 0.0
C1053 C 0.74497 0.60642 0.27312 0.0
C1054 C 0.77262 0.59715 0.455 0.0
C1055 C 0.7941 0.60553 0.385 0.0
N1056 N 0.8125 0.61823 0.1865 0.0
N1057 N 0.72783 0.58544 0.45721 0.0
C1058 C 0.79128 0.61344 0.25773 0.0
C1059 C 0.74818 0.5961 0.39607 0.0
N1060 N 0.76303 0.62576 0.08742 0.0
N1061 N 0.77534 0.59155 0.58 0.0
H1062 H 0.7093 0.58582 0.42227 0.0
H1063 H 0.72954 0.57465 0.53887 0.0
H1064 H 0.79291 0.59195 0.62587 0.0
H1065 H 0.76011 0.58831 0.64086 0.0
H1066 H 0.77713 0.63574 0.0389 0.0
H1067 H 0.74559 0.62545 0.04037 0.0
H1068 H 0.81213 0.62143 0.08992 0.0
H1069 H 0.83095 0.61705 0.22206 0.0
C1070 C 0.58781 0.26413 0.55707 0.0
C1071 C 0.60274 0.24419 0.6091 0.0
C1072 C 0.61033 0.27052 0.79829 0.0
C1073 C 0.59855 0.29162 0.73902 0.0
N1074 N 0.57692 0.30905 0.55724 0.0
N1075 N 0.62864 0.2284 0.78003 0.0
C1076 C 0.58708 0.28846 0.61806 0.0
C1077 C 0.61407 0.24742 0.73002 0.0
N1078 N 0.57466 0.25997 0.44794 0.0
N1079 N 0.61694 0.27225 0.92248 0.0
H1080 H 0.62996 0.21032 0.74051 0.0
H1081 H 0.64046 0.23088 0.85765 0.0
H1082 H 0.61381 0.28862 0.97592 0.0
H1083 H 0.62307 0.25684 0.97615 0.0
H1084 H 0.56091 0.27233 0.41289 0.0
H1085 H 0.57623 0.24325 0.39566 0.0
H1086 H 0.57088 0.30877 0.46411 0.0
H1087 H 0.57622 0.32728 0.59542 0.0
C1088 C 0.36329 0.09218 0.48249 0.0
C1089 C 0.36375 0.1161 0.42056 0.0
C1090 C 0.39058 0.13343 0.58713 0.0
C1091 C 0.38965 0.10971 0.64999 0.0
N1092 N 0.38506 0.06424 0.6271 0.0
N1093 N 0.36887 0.16155 0.44376 0.0
C1094 C 0.37893 0.08828 0.58891 0.0
C1095 C 0.37492 0.13743 0.48092 0.0
N1096 N 0.34703 0.07357 0.44184 0.0
N1097 N 0.40684 0.15192 0.62882 0.0
H1098 H 0.35419 0.16507 0.38029 0.0
H1099 H 0.37536 0.17784 0.48982 0.0
H1100 H 0.41933 0.14864 0.70359 0.0
H1101 H 0.40993 0.16898 0.58088 0.0
H1102 H 0.34438 0.05638 0.4893 0.0
H1103 H 0.33405 0.07682 0.36919 0.0
H1104 H 0.37913 0.0479 0.57955 0.0
H1105 H 0.39915 0.06085 0.69416 0.0
C1106 C 0.13079 0.68883 0.40616 0.0
C1107 C 0.10733 0.68439 0.46832 0.0
C1108 C 0.09424 0.65561 0.30078 0.0
C1109 C 0.11776 0.65995 0.23872 0.0
N1110 N 0.16198 0.67151 0.26304 0.0
N1111 N 0.06309 0.67309 0.44367 0.0
C1112 C 0.13719 0.67392 0.30028 0.0
C1113 C 0.08786 0.67056 0.40656 0.0
N1114 N 0.14642 0.70803 0.4459 0.0
N1115 N 0.07861 0.63635 0.26182 0.0
H1116 H 0.05761 0.68645 0.51111 0.0
H1117 H 0.04791 0.66467 0.3959 0.0
H1118 H 0.08412 0.62365 0.19125 0.0
H1119 H 0.06209 0.63108 0.31007 0.0
H1120 H 0.16295 0.71338 0.39808 0.0
H1121 H 0.14095 0.72052 0.5175 0.0
H1122 H 0.17713 0.68 0.31072 0.0
H1123 H 0.16754 0.65807 0.19612 0.0
C1124 C 0.67853 0.93736 0.48087 0.0
C1125 C 0.667 0.91757 0.41159 0.0
C1126 C 0.63715 0.90967 0.58402 0.0
C1127 C 0.64816 0.93048 0.64897 0.0
N1128 N 0.67069 0.97056 0.63167 0.0
N1129 N 0.63288 0.8864 0.38956 0.0
C1130 C 0.6662 0.94643 0.58924 0.0
C1131 C 0.64572 0.90388 0.4611 0.0
N1132 N 0.70094 0.94786 0.44042 0.0
N1133 N 0.61864 0.89544 0.64151 0.0
H1134 H 0.63931 0.87965 0.30339 0.0
H1135 H 0.61509 0.87903 0.41378 0.0
H1136 H 0.61022 0.90114 0.72594 0.0
H1137 H 0.6122 0.87792 0.6081 0.0
H1138 H 0.71095 0.96151 0.49173 0.0
H1139 H 0.71054 0.94106 0.36107 0.0
H1140 H 0.68261 0.98335 0.58467 0.0
H1141 H 0.65983 0.97901 0.70224 0.0
C1142 C 0.93436 0.37331 0.32777 0.0
C1143 C 0.91064 0.37037 0.266 0.0
C1144 C 0.89582 0.34238 0.43373 0.0
C1145 C 0.91947 0.34543 0.49566 0.0
N1146 N 0.96433 0.35403 0.47085 0.0
N1147 N 0.8658 0.36161 0.29092 0.0
C1148 C 0.93978 0.35802 0.43362 0.0
C1149 C 0.89038 0.35767 0.32797 0.0
N1150 N 0.9511 0.39165 0.28884 0.0
N1151 N 0.87906 0.32413 0.47349 0.0
H1152 H 0.86115 0.37533 0.22372 0.0
H1153 H 0.85014 0.35408 0.33879 0.0
H1154 H 0.88377 0.31128 0.54483 0.0
H1155 H 0.86225 0.31981 0.42579 0.0
H1156 H 0.96789 0.39589 0.33696 0.0
H1157 H 0.94636 0.40473 0.21864 0.0
H1158 H 0.98002 0.3615 0.42295 0.0
H1159 H 0.96895 0.34046 0.53885 0.0
C1160 C 0.36827 0.44254 0.62825 0.0
C1161 C 0.37409 0.41921 0.56793 0.0
C1162 C 0.35289 0.39577 0.73694 0.0
C1163 C 0.34713 0.41908 0.79741 0.0
N1164 N 0.33997 0.46408 0.77259 0.0
N1165 N 0.38149 0.37427 0.59411 0.0
C1166 C 0.35192 0.44236 0.73407 0.0
C1167 C 0.36931 0.39594 0.63141 0.0
N1168 N 0.37983 0.46457 0.59022 0.0
N1169 N 0.34131 0.37375 0.77494 0.0
H1170 H 0.39543 0.37455 0.52385 0.0
H1171 H 0.38019 0.35712 0.64327 0.0
H1172 H 0.32675 0.37368 0.84197 0.0
H1173 H 0.34359 0.35645 0.72815 0.0
H1174 H 0.37765 0.48184 0.63737 0.0
H1175 H 0.39441 0.46463 0.52331 0.0
H1176 H 0.34131 0.4813 0.72407 0.0
H1177 H 0.32624 0.46383 0.84384 0.0
C1178 C 0.44365 0.66906 0.27699 0.0
C1179 C 0.42144 0.67755 0.21444 0.0
C1180 C 0.39493 0.65978 0.38154 0.0
C1181 C 0.41715 0.65146 0.44435 0.0
N1182 N 0.46078 0.63808 0.42164 0.0
N1183 N 0.37759 0.69042 0.23571 0.0
C1184 C 0.44103 0.653 0.38276 0.0
C1185 C 0.39748 0.67576 0.27541 0.0
N1186 N 0.46709 0.67759 0.23997 0.0
N1187 N 0.37153 0.65131 0.41951 0.0
H1188 H 0.37989 0.70429 0.16608 0.0
H1189 H 0.36018 0.69124 0.28289 0.0
H1190 H 0.36951 0.63736 0.48894 0.0
H1191 H 0.35476 0.65547 0.3713 0.0
H1192 H 0.48382 0.67321 0.28813 0.0
H1193 H 0.46923 0.69175 0.1717 0.0
H1194 H 0.4781 0.63708 0.37366 0.0
H1195 H 0.45841 0.62427 0.49149 0.0
C1196 C 0.6798 0.59616 0.69752 0.0
C1197 C 0.68146 0.62023 0.7574 0.0
C1198 C 0.65674 0.63934 0.58852 0.0
C1199 C 0.65545 0.61539 0.52773 0.0
N1200 N 0.65567 0.56979 0.55438 0.0
N1201 N 0.68103 0.66584 0.72988 0.0
C1202 C 0.66402 0.59331 0.59086 0.0
C1203 C 0.67265 0.64227 0.69458 0.0
N1204 N 0.69403 0.57629 0.74124 0.0
N1205 N 0.64219 0.65905 0.54579 0.0
H1206 H 0.69556 0.66828 0.7957 0.0
H1207 H 0.67638 0.68245 0.68135 0.0
H1208 H 0.62925 0.65664 0.47209 0.0
H1209 H 0.64083 0.67647 0.59236 0.0
H1210 H 0.695 0.55868 0.69624 0.0
H1211 H 0.70719 0.57865 0.81403 0.0
H1212 H 0.66002 0.55313 0.6031 0.0
H1213 H 0.64136 0.56748 0.48725 0.0
C1214 C 0.61878 0.34842 0.43025 0.0
C1215 C 0.61595 0.37307 0.48314 0.0
C1216 C 0.59733 0.38947 0.2917 0.0
C1217 C 0.59959 0.36466 0.23943 0.0
N1218 N 0.60773 0.31984 0.25961 0.0
N1219 N 0.608 0.41787 0.46378 0.0
C1220 C 0.60906 0.3439 0.30899 0.0
C1221 C 0.60662 0.39385 0.41379 0.0
N1222 N 0.63095 0.32955 0.49527 0.0
N1223 N 0.5865 0.40879 0.22442 0.0
H1224 H 0.61576 0.42139 0.55254 0.0
H1225 H 0.6037 0.43448 0.4149 0.0
H1226 H 0.58189 0.40716 0.13014 0.0
H1227 H 0.58135 0.42632 0.2622 0.0
H1228 H 0.63574 0.31195 0.45715 0.0
H1229 H 0.63806 0.33193 0.58556 0.0
H1230 H 0.61217 0.30333 0.30908 0.0
H1231 H 0.59983 0.31617 0.17132 0.0
C1232 C 0.85493 0.589 0.97361 0.0
C1233 C 0.85915 0.61232 0.90983 0.0
C1234 C 0.88817 0.62599 0.07569 0.0
C1235 C 0.88358 0.60288 0.14006 0.0
N1236 N 0.87194 0.55854 0.12122 0.0
N1237 N 0.87156 0.65654 0.92792 0.0
C1238 C 0.86968 0.58313 0.08077 0.0
C1239 C 0.87353 0.63193 0.96823 0.0
N1240 N 0.83619 0.5729 0.93296 0.0
N1241 N 0.90686 0.64199 0.11766 0.0
H1242 H 0.85774 0.6622 0.86356 0.0
H1243 H 0.88057 0.67179 0.97226 0.0
H1244 H 0.91834 0.63722 0.19434 0.0
H1245 H 0.91272 0.65821 0.06876 0.0
H1246 H 0.83075 0.55652 -0.01832 0.0
H1247 H 0.8242 0.57772 0.85827 0.0
H1248 H 0.86346 0.54317 0.07534 0.0
H1249 H 0.88539 0.55315 0.18816 0.0
C1250 C 0.64186 0.16386 0.89297 0.0
C1251 C 0.61896 0.15739 0.83021 0.0
C1252 C 0.59429 0.17767 -0.0032 0.0
C1253 C 0.61716 0.18417 0.05964 0.0
N1254 N 0.66204 0.19315 0.03702 0.0
N1255 N 0.57418 0.14811 0.85407 0.0
C1256 C 0.64087 0.18009 -0.00104 0.0
C1257 C 0.5953 0.16132 0.89135 0.0
N1258 N 0.66441 0.15366 0.85353 0.0
N1259 N 0.57175 0.18813 0.03461 0.0
H1260 H 0.57519 0.13357 0.78731 0.0
H1261 H 0.55683 0.14897 0.90183 0.0
H1262 H 0.57097 0.202 0.10494 0.0
H1263 H 0.55472 0.18554 -0.01424 0.0
H1264 H 0.68153 0.15621 0.90162 0.0
H1265 H 0.66513 0.14 0.78216 0.0
H1266 H 0.67948 0.19217 -0.00981 0.0
H1267 H 0.66105 0.20772 0.10364 0.0
C1268 C 0.1442 0.43434 0.15144 0.0
C1269 C 0.1577 0.41534 0.21788 0.0
C1270 C 0.18685 0.41036 0.04027 0.0
C1271 C 0.17368 0.43017 0.97847 0.0
N1272 N 0.14939 0.46876 0.0041 0.0
N1273 N 0.19598 0.38942 0.23606 0.0
C1274 C 0.15527 0.4447 0.04265 0.0
C1275 C 0.18013 0.40423 0.16534 0.0
N1276 N 0.12128 0.44298 0.19501 0.0
N1277 N 0.206 0.39779 0.97891 0.0
H1278 H 0.19315 0.38539 0.33029 0.0
H1279 H 0.21335 0.38255 0.20397 0.0
H1280 H 0.21339 0.40427 0.8933 0.0
H1281 H 0.21387 0.38072 0.01002 0.0
H1282 H 0.11033 0.45632 0.14674 0.0
H1283 H 0.1123 0.43498 0.27349 0.0
H1284 H 0.13678 0.48051 0.05284 0.0
H1285 H 0.16014 0.47826 0.93608 0.0
C1286 C 0.39424 0.86312 -0.01174 0.0
C1287 C 0.41645 0.85528 0.05226 0.0
C1288 C 0.44289 0.874 0.88652 0.0
C1289 C 0.42054 0.88164 0.82276 0.0
N1290 N 0.37639 0.89325 0.84122 0.0
N1291 N 0.46094 0.84443 0.03596 0.0
C1292 C 0.39663 0.87939 0.88332 0.0
C1293 C 0.44058 0.85807 -0.00674 0.0
N1294 N 0.37111 0.85329 0.02122 0.0
N1295 N 0.46609 0.88326 0.85006 0.0
H1296 H 0.459 0.83076 0.10684 0.0
H1297 H 0.47859 0.84425 -0.00923 0.0
H1298 H 0.46784 0.89745 0.78176 0.0
H1299 H 0.48285 0.87972 0.8995 0.0
H1300 H 0.35436 0.85723 0.97231 0.0
H1301 H 0.36967 0.83817 0.08452 0.0
H1302 H 0.35887 0.89369 0.8876 0.0
H1303 H 0.37837 0.90654 0.76857 0.0
C1304 C 0.85677 0.93916 0.22602 0.0
C1305 C 0.85101 0.91597 0.28811 0.0
C1306 C 0.872 0.89223 0.12078 0.0
C1307 C 0.87764 0.91541 0.05841 0.0
N1308 N 0.88558 0.96037 0.08287 0.0
N1309 N 0.84321 0.87097 0.26373 0.0
C1310 C 0.87304 0.93883 0.12011 0.0
C1311 C 0.85571 0.89254 0.22659 0.0
N1312 N 0.84577 0.96131 0.26552 0.0
N1313 N 0.88309 0.87013 0.08139 0.0
H1314 H 0.82868 0.87141 0.3309 0.0
H1315 H 0.8447 0.85367 0.21611 0.0
H1316 H 0.89679 0.86998 0.00994 0.0
H1317 H 0.88113 0.85292 0.12951 0.0
H1318 H 0.84791 0.97856 0.21791 0.0
H1319 H 0.83199 0.96152 0.33656 0.0
H1320 H 0.88428 0.97761 0.13113 0.0
H1321 H 0.90002 0.95989 0.01527 0.0
C1322 C 0.90252 0.14713 0.84484 0.0
C1323 C 0.92621 0.14491 0.90722 0.0
C1324 C 0.94693 0.16896 0.73964 0.0
C1325 C 0.92318 0.17145 0.67774 0.0
N1326 N 0.8775 0.1726 0.70239 0.0
N1327 N 0.97185 0.14348 0.88276 0.0
C1328 C 0.90059 0.16328 0.73898 0.0
C1329 C 0.9488 0.1528 0.84554 0.0
N1330 N 0.88211 0.13318 0.88542 0.0
N1331 N 0.96739 0.18295 0.6999 0.0
H1332 H 0.97335 0.12904 0.94987 0.0
H1333 H 0.98878 0.14726 0.83468 0.0
H1334 H 0.96575 0.19657 0.6287 0.0
H1335 H 0.98477 0.18328 0.74728 0.0
H1336 H 0.86478 0.13257 0.83764 0.0
H1337 H 0.88379 0.1199 0.95823 0.0
H1338 H 0.86054 0.16848 0.74948 0.0
H1339 H 0.876 0.18742 0.63744 0.0
C1340 C 0.16186 0.09077 0.07653 0.0
C1341 C 0.16233 0.11467 0.01474 0.0
C1342 C 0.18866 0.13226 0.18218 0.0
C1343 C 0.18807 0.10842 0.24416 0.0
N1344 N 0.1841 0.06294 0.21973 0.0
N1345 N 0.16636 0.16014 0.03969 0.0
C1346 C 0.17765 0.08695 0.1822 0.0
C1347 C 0.17285 0.13611 0.07666 0.0
N1348 N 0.14529 0.07227 0.03809 0.0
N1349 N 0.20515 0.15077 0.22135 0.0
H1350 H 0.15221 0.16333 0.97263 0.0
H1351 H 0.17221 0.17647 0.0875 0.0
H1352 H 0.21854 0.14736 0.29199 0.0
H1353 H 0.20766 0.16794 0.17354 0.0
H1354 H 0.14283 0.05513 0.08629 0.0
H1355 H 0.13172 0.07568 0.96834 0.0
H1356 H 0.17832 0.04659 0.17189 0.0
H1357 H 0.198 0.05975 0.28809 0.0
C1358 C 0.13445 0.86109 0.73114 0.0
C1359 C 0.11137 0.85422 0.6709 0.0
C1360 C 0.08705 0.8744 0.83945 0.0
C1361 C 0.11013 0.88105 0.90009 0.0
N1362 N 0.15482 0.89006 0.87665 0.0
N1363 N 0.06663 0.84526 0.69516 0.0
C1364 C 0.13357 0.87738 0.83685 0.0
C1365 C 0.08788 0.8581 0.73377 0.0
N1366 N 0.15692 0.85034 0.69426 0.0
N1367 N 0.0646 0.88503 0.87729 0.0
H1368 H 0.0674 0.8316 0.62384 0.0
H1369 H 0.04934 0.84589 0.74351 0.0
H1370 H 0.06398 0.89961 0.94392 0.0
H1371 H 0.04744 0.88216 0.82998 0.0
H1372 H 0.1741 0.85343 0.74105 0.0
H1373 H 0.1576 0.83554 0.62884 0.0
H1374 H 0.1721 0.88965 0.82811 0.0
H1375 H 0.15402 0.90336 0.94966 0.0
loop_
_geom_bond_atom_site_label_1
_geom_bond_atom_site_label_2
_geom_bond_distance
_geom_bond_site_symmetry_2
_ccdc_geom_bond_type
Zn0 O1 2.055 1_554 S
Zn0 O8 2.046 . S
Zn0 N16 2.036 . S
Zn0 O28 2.053 . S
Zn0 O30 2.066 . S
O1 Zn0 2.055 1_556 S
O1 C4 1.259 . S
C2 O30 1.256 . S
C2 O31 1.244 . S
Zn3 O5 2.046 1_554 S
Zn3 O7 2.055 . S
Zn3 N9 2.036 . S
Zn3 O27 2.066 . S
Zn3 O31 2.053 . S
C4 O1 1.259 . S
C4 O5 1.254 . S
O5 Zn3 2.046 1_556 S
O5 C4 1.254 . S
C6 O27 1.256 . S
C6 O28 1.244 . S
O7 Zn3 2.055 . S
O7 C29 1.259 . S
O8 Zn0 2.046 . S
O8 C29 1.254 . S
N9 Zn3 2.036 . S
N9 C10 1.298 . S
N9 N12 1.398 . S
C10 N9 1.298 . S
C10 N13 1.367 1_545 S
C10 C23 1.481 . S
C11 N12 1.274 1_565 S
C11 N13 1.382 . S
N12 N9 1.398 . S
N12 C11 1.274 1_545 S
N13 C10 1.367 1_565 S
N13 C11 1.382 . S
C14 N16 1.298 . S
C14 N18 1.367 . S
C14 C22 1.481 1_554 S
C15 N17 1.299 . S
C15 N18 1.379 . S
N16 Zn0 2.036 . S
N16 C14 1.298 . S
N16 N17 1.398 . S
N17 C15 1.299 . S
N17 N16 1.398 . S
N18 C14 1.367 . S
N18 C15 1.379 . S
H19 C22 0.980 . S
H20 C22 0.981 . S
H21 C22 0.981 . S
C22 C14 1.481 1_556 S
C22 H19 0.980 . S
C22 H20 0.981 . S
C22 H21 0.981 . S
C23 C10 1.481 . S
C23 H24 0.980 . S
C23 H25 0.981 . S
C23 H26 0.981 . S
H24 C23 0.980 . S
H25 C23 0.981 . S
H26 C23 0.981 . S
O27 Zn3 2.066 . S
O27 C6 1.256 . S
O28 Zn0 2.053 . S
O28 C6 1.244 . S
C29 O7 1.259 . S
C29 O8 1.254 . S
O30 Zn0 2.066 . S
O30 C2 1.256 . S
O31 C2 1.244 . S
O31 Zn3 2.053 . S
Zn32 O33 2.055 1_556 S
Zn32 O40 2.046 . S
Zn32 N48 2.036 . S
Zn32 O60 2.053 . S
Zn32 O62 2.066 . S
O33 Zn32 2.055 1_554 S
O33 C36 1.259 . S
C34 O62 1.256 . S
C34 O63 1.244 . S
Zn35 O37 2.046 1_556 S
Zn35 O39 2.055 . S
Zn35 N41 2.036 . S
Zn35 O59 2.066 . S
Zn35 O63 2.053 . S
C36 O33 1.259 . S
C36 O37 1.254 . S
O37 Zn35 2.046 1_554 S
O37 C36 1.254 . S
C38 O59 1.256 . S
C38 O60 1.244 . S
O39 Zn35 2.055 . S
O39 C61 1.259 . S
O40 Zn32 2.046 . S
O40 C61 1.254 . S
N41 Zn35 2.036 . S
N41 C42 1.298 . S
N41 N44 1.398 . S
C42 N41 1.298 . S
C42 N45 1.367 1_455 S
C42 C55 1.481 . S
C43 N44 1.274 1_655 S
C43 N45 1.382 . S
N44 N41 1.398 . S
N44 C43 1.274 1_455 S
N45 C42 1.367 1_655 S
N45 C43 1.382 . S
C46 N48 1.298 . S
C46 N50 1.367 . S
C46 C54 1.481 1_556 S
C47 N49 1.299 . S
C47 N50 1.379 . S
N48 Zn32 2.036 . S
N48 C46 1.298 . S
N48 N49 1.398 . S
N49 C47 1.299 . S
N49 N48 1.398 . S
N50 C46 1.367 . S
N50 C47 1.379 . S
H51 C54 0.980 . S
H52 C54 0.981 . S
H53 C54 0.981 . S
C54 C46 1.481 1_554 S
C54 H51 0.980 . S
C54 H52 0.981 . S
C54 H53 0.981 . S
C55 C42 1.481 . S
C55 H56 0.980 . S
C55 H57 0.981 . S
C55 H58 0.981 . S
H56 C55 0.980 . S
H57 C55 0.981 . S
H58 C55 0.981 . S
O59 Zn35 2.066 . S
O59 C38 1.256 . S
O60 Zn32 2.053 . S
O60 C38 1.244 . S
C61 O39 1.259 . S
C61 O40 1.254 . S
O62 Zn32 2.066 . S
O62 C34 1.256 . S
O63 C34 1.244 . S
O63 Zn35 2.053 . S
Zn64 O65 2.055 . S
Zn64 O72 2.046 1_554 S
Zn64 N80 2.036 . S
Zn64 O92 2.053 . S
Zn64 O94 2.066 . S
O65 Zn64 2.055 . S
O65 C68 1.259 . S
C66 O94 1.256 . S
C66 O95 1.244 . S
Zn67 O69 2.046 . S
Zn67 O71 2.055 1_554 S
Zn67 N73 2.036 . S
Zn67 O91 2.066 . S
Zn67 O95 2.053 . S
C68 O65 1.259 . S
C68 O69 1.254 . S
O69 Zn67 2.046 . S
O69 C68 1.254 . S
C70 O91 1.256 . S
C70 O92 1.244 . S
O71 Zn67 2.055 1_556 S
O71 C93 1.259 . S
O72 Zn64 2.046 1_556 S
O72 C93 1.254 . S
N73 Zn67 2.036 . S
N73 C74 1.298 . S
N73 N76 1.398 . S
C74 N73 1.298 . S
C74 N77 1.367 . S
C74 C87 1.481 1_554 S
C75 N76 1.299 . S
C75 N77 1.379 . S
N76 N73 1.398 . S
N76 C75 1.299 . S
N77 C74 1.367 . S
N77 C75 1.379 . S
C78 N80 1.298 . S
C78 N82 1.367 1_565 S
C78 C86 1.481 . S
C79 N81 1.274 1_545 S
C79 N82 1.382 . S
N80 Zn64 2.036 . S
N80 C78 1.298 . S
N80 N81 1.398 . S
N81 C79 1.274 1_565 S
N81 N80 1.398 . S
N82 C78 1.367 1_545 S
N82 C79 1.382 . S
H83 C86 0.980 . S
H84 C86 0.981 . S
H85 C86 0.981 . S
C86 C78 1.481 . S
C86 H83 0.980 . S
C86 H84 0.981 . S
C86 H85 0.981 . S
C87 C74 1.481 1_556 S
C87 H88 0.980 . S
C87 H89 0.981 . S
C87 H90 0.981 . S
H88 C87 0.980 . S
H89 C87 0.981 . S
H90 C87 0.981 . S
O91 Zn67 2.066 . S
O91 C70 1.256 . S
O92 Zn64 2.053 . S
O92 C70 1.244 . S
C93 O71 1.259 . S
C93 O72 1.254 . S
O94 Zn64 2.066 . S
O94 C66 1.256 . S
O95 C66 1.244 . S
O95 Zn67 2.053 . S
Zn96 O97 2.055 . S
Zn96 O104 2.046 1_556 S
Zn96 N112 2.036 . S
Zn96 O124 2.053 . S
Zn96 O126 2.066 . S
O97 Zn96 2.055 . S
O97 C100 1.259 . S
C98 O126 1.256 . S
C98 O127 1.244 . S
Zn99 O101 2.046 . S
Zn99 O103 2.055 1_556 S
Zn99 N105 2.036 . S
Zn99 O123 2.066 . S
Zn99 O127 2.053 . S
C100 O97 1.259 . S
C100 O101 1.254 . S
O101 Zn99 2.046 . S
O101 C100 1.254 . S
C102 O123 1.256 . S
C102 O124 1.244 . S
O103 Zn99 2.055 1_554 S
O103 C125 1.259 . S
O104 Zn96 2.046 1_554 S
O104 C125 1.254 . S
N105 Zn99 2.036 . S
N105 C106 1.298 . S
N105 N108 1.398 . S
C106 N105 1.298 . S
C106 N109 1.367 . S
C106 C119 1.481 1_556 S
C107 N108 1.299 . S
C107 N109 1.379 . S
N108 N105 1.398 . S
N108 C107 1.299 . S
N109 C106 1.367 . S
N109 C107 1.379 . S
C110 N112 1.298 . S
C110 N114 1.367 1_655 S
C110 C118 1.481 . S
C111 N113 1.274 1_455 S
C111 N114 1.382 . S
N112 Zn96 2.036 . S
N112 C110 1.298 . S
N112 N113 1.398 . S
N113 C111 1.274 1_655 S
N113 N112 1.398 . S
N114 C110 1.367 1_455 S
N114 C111 1.382 . S
H115 C118 0.980 . S
H116 C118 0.981 . S
H117 C118 0.981 . S
C118 C110 1.481 . S
C118 H115 0.980 . S
C118 H116 0.981 . S
C118 H117 0.981 . S
C119 C106 1.481 1_554 S
C119 H120 0.980 . S
C119 H121 0.981 . S
C119 H122 0.981 . S
H120 C119 0.980 . S
H121 C119 0.981 . S
H122 C119 0.981 . S
O123 Zn99 2.066 . S
O123 C102 1.256 . S
O124 Zn96 2.053 . S
O124 C102 1.244 . S
C125 O103 1.259 . S
C125 O104 1.254 . S
O126 Zn96 2.066 . S
O126 C98 1.256 . S
O127 C98 1.244 . S
O127 Zn99 2.053 . S
Zn128 O129 2.055 . S
Zn128 O136 2.046 . S
Zn128 N144 2.036 . S
Zn128 O156 2.053 1_554 S
Zn128 O158 2.066 . S
O129 Zn128 2.055 . S
O129 C132 1.259 . S
C130 O158 1.256 . S
C130 O159 1.244 . S
Zn131 O133 2.046 . S
Zn131 O135 2.055 . S
Zn131 N137 2.036 . S
Zn131 O155 2.066 1_554 S
Zn131 O159 2.053 . S
C132 O129 1.259 . S
C132 O133 1.254 . S
O133 Zn131 2.046 . S
O133 C132 1.254 . S
C134 O155 1.256 . S
C134 O156 1.244 . S
O135 Zn131 2.055 . S
O135 C157 1.259 . S
O136 Zn128 2.046 . S
O136 C157 1.254 . S
N137 Zn131 2.036 . S
N137 C138 1.298 . S
N137 N140 1.398 . S
C138 N137 1.298 . S
C138 N141 1.367 . S
C138 C151 1.481 1_554 S
C139 N140 1.299 . S
C139 N141 1.379 . S
N140 N137 1.398 . S
N140 C139 1.299 . S
N141 C138 1.367 . S
N141 C139 1.379 . S
C142 N144 1.298 . S
C142 N146 1.367 . S
C142 C150 1.481 . S
C143 N145 1.299 1_554 S
C143 N146 1.379 . S
N144 Zn128 2.036 . S
N144 C142 1.298 . S
N144 N145 1.398 1_554 S
N145 C143 1.299 1_556 S
N145 N144 1.398 1_556 S
N146 C142 1.367 . S
N146 C143 1.379 . S
H147 C150 0.980 . S
H148 C150 0.981 . S
H149 C150 0.981 . S
C150 C142 1.481 . S
C150 H147 0.980 . S
C150 H148 0.981 . S
C150 H149 0.981 . S
C151 C138 1.481 1_556 S
C151 H152 0.980 1_556 S
C151 H153 0.981 . S
C151 H154 0.981 . S
H152 C151 0.980 1_554 S
H153 C151 0.981 . S
H154 C151 0.981 . S
O155 Zn131 2.066 1_556 S
O155 C134 1.256 . S
O156 Zn128 2.053 1_556 S
O156 C134 1.244 . S
C157 O135 1.259 . S
C157 O136 1.254 . S
O158 Zn128 2.066 . S
O158 C130 1.256 . S
O159 C130 1.244 . S
O159 Zn131 2.053 . S
Zn160 O161 2.055 . S
Zn160 O168 2.046 . S
Zn160 N176 2.036 . S
Zn160 O188 2.053 . S
Zn160 O190 2.066 1_556 S
O161 Zn160 2.055 . S
O161 C164 1.259 . S
C162 O190 1.256 . S
C162 O191 1.244 . S
Zn163 O165 2.046 . S
Zn163 O167 2.055 . S
Zn163 N169 2.036 . S
Zn163 O187 2.066 . S
Zn163 O191 2.053 1_556 S
C164 O161 1.259 . S
C164 O165 1.254 . S
O165 Zn163 2.046 . S
O165 C164 1.254 . S
C166 O187 1.256 . S
C166 O188 1.244 . S
O167 Zn163 2.055 . S
O167 C189 1.259 . S
O168 Zn160 2.046 . S
O168 C189 1.254 . S
N169 Zn163 2.036 . S
N169 C170 1.298 . S
N169 N172 1.398 1_556 S
C170 N169 1.298 . S
C170 N173 1.367 . S
C170 C183 1.481 . S
C171 N172 1.299 1_556 S
C171 N173 1.379 . S
N172 N169 1.398 1_554 S
N172 C171 1.299 1_554 S
N173 C170 1.367 . S
N173 C171 1.379 . S
C174 N176 1.298 . S
C174 N178 1.367 . S
C174 C182 1.481 1_556 S
C175 N177 1.299 . S
C175 N178 1.379 . S
N176 Zn160 2.036 . S
N176 C174 1.298 . S
N176 N177 1.398 . S
N177 C175 1.299 . S
N177 N176 1.398 . S
N178 C174 1.367 . S
N178 C175 1.379 . S
H179 C182 0.980 1_556 S
H180 C182 0.981 . S
H181 C182 0.981 . S
C182 C174 1.481 1_554 S
C182 H179 0.980 1_554 S
C182 H180 0.981 . S
C182 H181 0.981 . S
C183 C170 1.481 . S
C183 H184 0.980 . S
C183 H185 0.981 . S
C183 H186 0.981 . S
H184 C183 0.980 . S
H185 C183 0.981 . S
H186 C183 0.981 . S
O187 Zn163 2.066 . S
O187 C166 1.256 . S
O188 Zn160 2.053 . S
O188 C166 1.244 . S
C189 O167 1.259 . S
C189 O168 1.254 . S
O190 Zn160 2.066 1_554 S
O190 C162 1.256 . S
O191 C162 1.244 . S
O191 Zn163 2.053 1_554 S
Zn192 O193 2.055 . S
Zn192 O200 2.046 . S
Zn192 N208 2.036 . S
Zn192 O220 2.053 1_554 S
Zn192 O222 2.066 . S
O193 Zn192 2.055 . S
O193 C196 1.259 . S
C194 O222 1.256 . S
C194 O223 1.244 . S
Zn195 O197 2.046 . S
Zn195 O199 2.055 . S
Zn195 N201 2.036 . S
Zn195 O219 2.066 1_554 S
Zn195 O223 2.053 . S
C196 O193 1.259 . S
C196 O197 1.254 . S
O197 Zn195 2.046 . S
O197 C196 1.254 . S
C198 O219 1.256 . S
C198 O220 1.244 . S
O199 Zn195 2.055 . S
O199 C221 1.259 . S
O200 Zn192 2.046 . S
O200 C221 1.254 . S
N201 Zn195 2.036 . S
N201 C202 1.298 . S
N201 N204 1.398 . S
C202 N201 1.298 . S
C202 N205 1.367 . S
C202 C215 1.481 1_554 S
C203 N204 1.299 . S
C203 N205 1.379 . S
N204 N201 1.398 . S
N204 C203 1.299 . S
N205 C202 1.367 . S
N205 C203 1.379 . S
C206 N208 1.298 . S
C206 N210 1.367 . S
C206 C214 1.481 . S
C207 N209 1.299 1_554 S
C207 N210 1.379 . S
N208 Zn192 2.036 . S
N208 C206 1.298 . S
N208 N209 1.398 1_554 S
N209 C207 1.299 1_556 S
N209 N208 1.398 1_556 S
N210 C206 1.367 . S
N210 C207 1.379 . S
H211 C214 0.980 . S
H212 C214 0.981 . S
H213 C214 0.981 . S
C214 C206 1.481 . S
C214 H211 0.980 . S
C214 H212 0.981 . S
C214 H213 0.981 . S
C215 C202 1.481 1_556 S
C215 H216 0.980 1_556 S
C215 H217 0.981 . S
C215 H218 0.981 . S
H216 C215 0.980 1_554 S
H217 C215 0.981 . S
H218 C215 0.981 . S
O219 Zn195 2.066 1_556 S
O219 C198 1.256 . S
O220 Zn192 2.053 1_556 S
O220 C198 1.244 . S
C221 O199 1.259 . S
C221 O200 1.254 . S
O222 Zn192 2.066 . S
O222 C194 1.256 . S
O223 C194 1.244 . S
O223 Zn195 2.053 . S
Zn224 O225 2.055 . S
Zn224 O232 2.046 . S
Zn224 N240 2.036 . S
Zn224 O252 2.053 1_556 S
Zn224 O254 2.066 . S
O225 Zn224 2.055 . S
O225 C228 1.259 . S
C226 O254 1.256 . S
C226 O255 1.244 . S
Zn227 O229 2.046 . S
Zn227 O231 2.055 . S
Zn227 N233 2.036 . S
Zn227 O251 2.066 1_556 S
Zn227 O255 2.053 . S
C228 O225 1.259 . S
C228 O229 1.254 . S
O229 Zn227 2.046 . S
O229 C228 1.254 . S
C230 O251 1.256 . S
C230 O252 1.244 . S
O231 Zn227 2.055 . S
O231 C253 1.259 . S
O232 Zn224 2.046 . S
O232 C253 1.254 . S
N233 Zn227 2.036 . S
N233 C234 1.298 . S
N233 N236 1.398 . S
C234 N233 1.298 . S
C234 N237 1.367 . S
C234 C247 1.481 1_556 S
C235 N236 1.299 . S
C235 N237 1.379 . S
N236 N233 1.398 . S
N236 C235 1.299 . S
N237 C234 1.367 . S
N237 C235 1.379 . S
C238 N240 1.298 . S
C238 N242 1.367 . S
C238 C246 1.481 . S
C239 N241 1.299 1_556 S
C239 N242 1.379 . S
N240 Zn224 2.036 . S
N240 C238 1.298 . S
N240 N241 1.398 1_556 S
N241 C239 1.299 1_554 S
N241 N240 1.398 1_554 S
N242 C238 1.367 . S
N242 C239 1.379 . S
H243 C246 0.980 . S
H244 C246 0.981 . S
H245 C246 0.981 . S
C246 C238 1.481 . S
C246 H243 0.980 . S
C246 H244 0.981 . S
C246 H245 0.981 . S
C247 C234 1.481 1_554 S
C247 H248 0.980 1_554 S
C247 H249 0.981 . S
C247 H250 0.981 . S
H248 C247 0.980 1_556 S
H249 C247 0.981 . S
H250 C247 0.981 . S
O251 Zn227 2.066 1_554 S
O251 C230 1.256 . S
O252 Zn224 2.053 1_554 S
O252 C230 1.244 . S
C253 O231 1.259 . S
C253 O232 1.254 . S
O254 Zn224 2.066 . S
O254 C226 1.256 . S
O255 C226 1.244 . S
O255 Zn227 2.053 . S
Zn256 O257 2.055 . S
Zn256 O264 2.046 . S
Zn256 N272 2.036 . S
Zn256 O284 2.053 . S
Zn256 O286 2.066 . S
O257 Zn256 2.055 . S
O257 C260 1.259 . S
C258 O286 1.256 . S
C258 O287 1.244 . S
Zn259 O261 2.046 . S
Zn259 O263 2.055 . S
Zn259 N265 2.036 . S
Zn259 O283 2.066 . S
Zn259 O287 2.053 . S
C260 O257 1.259 . S
C260 O261 1.254 . S
O261 Zn259 2.046 . S
O261 C260 1.254 . S
C262 O283 1.256 . S
C262 O284 1.244 . S
O263 Zn259 2.055 . S
O263 C285 1.259 . S
O264 Zn256 2.046 . S
O264 C285 1.254 . S
N265 Zn259 2.036 . S
N265 C266 1.298 . S
N265 N268 1.398 . S
C266 N265 1.298 . S
C266 N269 1.367 . S
C266 C279 1.481 . S
C267 N268 1.299 . S
C267 N269 1.379 . S
N268 N265 1.398 . S
N268 C267 1.299 . S
N269 C266 1.367 . S
N269 C267 1.379 . S
C270 N272 1.298 . S
C270 N274 1.367 . S
C270 C278 1.481 . S
C271 N273 1.299 . S
C271 N274 1.379 . S
N272 Zn256 2.036 . S
N272 C270 1.298 . S
N272 N273 1.398 . S
N273 C271 1.299 . S
N273 N272 1.398 . S
N274 C270 1.367 . S
N274 C271 1.379 . S
H275 C278 0.980 . S
H276 C278 0.981 . S
H277 C278 0.981 . S
C278 C270 1.481 . S
C278 H275 0.980 . S
C278 H276 0.981 . S
C278 H277 0.981 . S
C279 C266 1.481 . S
C279 H280 0.980 . S
C279 H281 0.981 . S
C279 H282 0.981 . S
H280 C279 0.980 . S
H281 C279 0.981 . S
H282 C279 0.981 . S
O283 Zn259 2.066 . S
O283 C262 1.256 . S
O284 Zn256 2.053 . S
O284 C262 1.244 . S
C285 O263 1.259 . S
C285 O264 1.254 . S
O286 Zn256 2.066 . S
O286 C258 1.256 . S
O287 C258 1.244 . S
O287 Zn259 2.053 . S
Zn288 O289 2.055 . S
Zn288 O296 2.046 . S
Zn288 N304 2.036 . S
Zn288 O316 2.053 . S
Zn288 O318 2.066 . S
O289 Zn288 2.055 . S
O289 C292 1.259 . S
C290 O318 1.256 . S
C290 O319 1.244 . S
Zn291 O293 2.046 . S
Zn291 O295 2.055 . S
Zn291 N297 2.036 . S
Zn291 O315 2.066 . S
Zn291 O319 2.053 . S
C292 O289 1.259 . S
C292 O293 1.254 . S
O293 Zn291 2.046 . S
O293 C292 1.254 . S
C294 O315 1.256 . S
C294 O316 1.244 . S
O295 Zn291 2.055 . S
O295 C317 1.259 . S
O296 Zn288 2.046 . S
O296 C317 1.254 . S
N297 Zn291 2.036 . S
N297 C298 1.298 . S
N297 N300 1.398 . S
C298 N297 1.298 . S
C298 N301 1.367 . S
C298 C311 1.481 . S
C299 N300 1.299 . S
C299 N301 1.379 . S
N300 N297 1.398 . S
N300 C299 1.299 . S
N301 C298 1.367 . S
N301 C299 1.379 . S
C302 N304 1.298 . S
C302 N306 1.367 . S
C302 C310 1.481 . S
C303 N305 1.299 . S
C303 N306 1.379 . S
N304 Zn288 2.036 . S
N304 C302 1.298 . S
N304 N305 1.398 . S
N305 C303 1.299 . S
N305 N304 1.398 . S
N306 C302 1.367 . S
N306 C303 1.379 . S
H307 C310 0.980 . S
H308 C310 0.981 . S
H309 C310 0.981 . S
C310 C302 1.481 . S
C310 H307 0.980 . S
C310 H308 0.981 . S
C310 H309 0.981 . S
C311 C298 1.481 . S
C311 H312 0.980 . S
C311 H313 0.981 . S
C311 H314 0.981 . S
H312 C311 0.980 . S
H313 C311 0.981 . S
H314 C311 0.981 . S
O315 Zn291 2.066 . S
O315 C294 1.256 . S
O316 Zn288 2.053 . S
O316 C294 1.244 . S
C317 O295 1.259 . S
C317 O296 1.254 . S
O318 Zn288 2.066 . S
O318 C290 1.256 . S
O319 C290 1.244 . S
O319 Zn291 2.053 . S
Zn320 O321 2.055 . S
Zn320 O328 2.046 . S
Zn320 N336 2.036 . S
Zn320 O348 2.053 . S
Zn320 O350 2.066 . S
O321 Zn320 2.055 . S
O321 C324 1.259 . S
C322 O350 1.256 . S
C322 O351 1.244 . S
Zn323 O325 2.046 . S
Zn323 O327 2.055 . S
Zn323 N329 2.036 . S
Zn323 O347 2.066 . S
Zn323 O351 2.053 . S
C324 O321 1.259 . S
C324 O325 1.254 . S
O325 Zn323 2.046 . S
O325 C324 1.254 . S
C326 O347 1.256 . S
C326 O348 1.244 . S
O327 Zn323 2.055 . S
O327 C349 1.259 . S
O328 Zn320 2.046 . S
O328 C349 1.254 . S
N329 Zn323 2.036 . S
N329 C330 1.298 . S
N329 N332 1.398 . S
C330 N329 1.298 . S
C330 N333 1.367 . S
C330 C343 1.481 . S
C331 N332 1.299 . S
C331 N333 1.379 . S
N332 N329 1.398 . S
N332 C331 1.299 . S
N333 C330 1.367 . S
N333 C331 1.379 . S
C334 N336 1.298 . S
C334 N338 1.367 . S
C334 C342 1.481 . S
C335 N337 1.299 . S
C335 N338 1.379 . S
N336 Zn320 2.036 . S
N336 C334 1.298 . S
N336 N337 1.398 . S
N337 C335 1.299 . S
N337 N336 1.398 . S
N338 C334 1.367 . S
N338 C335 1.379 . S
H339 C342 0.980 . S
H340 C342 0.981 . S
H341 C342 0.981 . S
C342 C334 1.481 . S
C342 H339 0.980 . S
C342 H340 0.981 . S
C342 H341 0.981 . S
C343 C330 1.481 . S
C343 H344 0.980 . S
C343 H345 0.981 . S
C343 H346 0.981 . S
H344 C343 0.980 . S
H345 C343 0.981 . S
H346 C343 0.981 . S
O347 Zn323 2.066 . S
O347 C326 1.256 . S
O348 Zn320 2.053 . S
O348 C326 1.244 . S
C349 O327 1.259 . S
C349 O328 1.254 . S
O350 Zn320 2.066 . S
O350 C322 1.256 . S
O351 C322 1.244 . S
O351 Zn323 2.053 . S
Zn352 O353 2.055 . S
Zn352 O360 2.046 . S
Zn352 N368 2.036 . S
Zn352 O380 2.053 . S
Zn352 O382 2.066 . S
O353 Zn352 2.055 . S
O353 C356 1.259 . S
C354 O382 1.256 . S
C354 O383 1.244 . S
Zn355 O357 2.046 . S
Zn355 O359 2.055 . S
Zn355 N361 2.036 . S
Zn355 O379 2.066 . S
Zn355 O383 2.053 . S
C356 O353 1.259 . S
C356 O357 1.254 . S
O357 Zn355 2.046 . S
O357 C356 1.254 . S
C358 O379 1.256 . S
C358 O380 1.244 . S
O359 Zn355 2.055 . S
O359 C381 1.259 . S
O360 Zn352 2.046 . S
O360 C381 1.254 . S
N361 Zn355 2.036 . S
N361 C362 1.298 . S
N361 N364 1.398 . S
C362 N361 1.298 . S
C362 N365 1.367 . S
C362 C375 1.481 . S
C363 N364 1.299 . S
C363 N365 1.379 . S
N364 N361 1.398 . S
N364 C363 1.299 . S
N365 C362 1.367 . S
N365 C363 1.379 . S
C366 N368 1.298 . S
C366 N370 1.367 . S
C366 C374 1.481 . S
C367 N369 1.299 . S
C367 N370 1.379 . S
N368 Zn352 2.036 . S
N368 C366 1.298 . S
N368 N369 1.398 . S
N369 C367 1.299 . S
N369 N368 1.398 . S
N370 C366 1.367 . S
N370 C367 1.379 . S
H371 C374 0.980 . S
H372 C374 0.981 . S
H373 C374 0.981 . S
C374 C366 1.481 . S
C374 H371 0.980 . S
C374 H372 0.981 . S
C374 H373 0.981 . S
C375 C362 1.481 . S
C375 H376 0.980 . S
C375 H377 0.981 . S
C375 H378 0.981 . S
H376 C375 0.980 . S
H377 C375 0.981 . S
H378 C375 0.981 . S
O379 Zn355 2.066 . S
O379 C358 1.256 . S
O380 Zn352 2.053 . S
O380 C358 1.244 . S
C381 O359 1.259 . S
C381 O360 1.254 . S
O382 Zn352 2.066 . S
O382 C354 1.256 . S
O383 C354 1.244 . S
O383 Zn355 2.053 . S
Zn384 O385 2.055 . S
Zn384 O392 2.046 . S
Zn384 N400 2.036 . S
Zn384 O412 2.053 . S
Zn384 O414 2.066 . S
O385 Zn384 2.055 . S
O385 C388 1.259 . S
C386 O414 1.256 . S
C386 O415 1.244 . S
Zn387 O389 2.046 . S
Zn387 O391 2.055 . S
Zn387 N393 2.036 . S
Zn387 O411 2.066 . S
Zn387 O415 2.053 . S
C388 O385 1.259 . S
C388 O389 1.254 . S
O389 Zn387 2.046 . S
O389 C388 1.254 . S
C390 O411 1.256 . S
C390 O412 1.244 . S
O391 Zn387 2.055 . S
O391 C413 1.259 . S
O392 Zn384 2.046 . S
O392 C413 1.254 . S
N393 Zn387 2.036 . S
N393 C394 1.298 . S
N393 N396 1.398 . S
C394 N393 1.298 . S
C394 N397 1.367 . S
C394 C407 1.481 . S
C395 N396 1.299 . S
C395 N397 1.379 . S
N396 N393 1.398 . S
N396 C395 1.299 . S
N397 C394 1.367 . S
N397 C395 1.379 . S
C398 N400 1.298 . S
C398 N402 1.367 1_565 S
C398 C406 1.481 . S
C399 N401 1.274 1_545 S
C399 N402 1.382 . S
N400 Zn384 2.036 . S
N400 C398 1.298 . S
N400 N401 1.398 . S
N401 C399 1.274 1_565 S
N401 N400 1.398 . S
N402 C398 1.367 1_545 S
N402 C399 1.382 . S
H403 C406 0.980 . S
H404 C406 0.981 . S
H405 C406 0.981 . S
C406 C398 1.481 . S
C406 H403 0.980 . S
C406 H404 0.981 . S
C406 H405 0.981 . S
C407 C394 1.481 . S
C407 H408 0.980 . S
C407 H409 0.981 . S
C407 H410 0.981 . S
H408 C407 0.980 . S
H409 C407 0.981 . S
H410 C407 0.981 . S
O411 Zn387 2.066 . S
O411 C390 1.256 . S
O412 Zn384 2.053 . S
O412 C390 1.244 . S
C413 O391 1.259 . S
C413 O392 1.254 . S
O414 Zn384 2.066 . S
O414 C386 1.256 . S
O415 C386 1.244 . S
O415 Zn387 2.053 . S
Zn416 O417 2.055 . S
Zn416 O424 2.046 . S
Zn416 N432 2.036 . S
Zn416 O444 2.053 . S
Zn416 O446 2.066 . S
O417 Zn416 2.055 . S
O417 C420 1.259 . S
C418 O446 1.256 . S
C418 O447 1.244 . S
Zn419 O421 2.046 . S
Zn419 O423 2.055 . S
Zn419 N425 2.036 . S
Zn419 O443 2.066 . S
Zn419 O447 2.053 . S
C420 O417 1.259 . S
C420 O421 1.254 . S
O421 Zn419 2.046 . S
O421 C420 1.254 . S
C422 O443 1.256 . S
C422 O444 1.244 . S
O423 Zn419 2.055 . S
O423 C445 1.259 . S
O424 Zn416 2.046 . S
O424 C445 1.254 . S
N425 Zn419 2.036 . S
N425 C426 1.298 . S
N425 N428 1.398 . S
C426 N425 1.298 . S
C426 N429 1.367 1_655 S
C426 C439 1.481 . S
C427 N428 1.274 1_455 S
C427 N429 1.382 . S
N428 N425 1.398 . S
N428 C427 1.274 1_655 S
N429 C426 1.367 1_455 S
N429 C427 1.382 . S
C430 N432 1.298 . S
C430 N434 1.367 . S
C430 C438 1.481 . S
C431 N433 1.299 . S
C431 N434 1.379 . S
N432 Zn416 2.036 . S
N432 C430 1.298 . S
N432 N433 1.398 . S
N433 C431 1.299 . S
N433 N432 1.398 . S
N434 C430 1.367 . S
N434 C431 1.379 . S
H435 C438 0.980 . S
H436 C438 0.981 . S
H437 C438 0.981 . S
C438 C430 1.481 . S
C438 H435 0.980 . S
C438 H436 0.981 . S
C438 H437 0.981 . S
C439 C426 1.481 . S
C439 H440 0.980 . S
C439 H441 0.981 . S
C439 H442 0.981 . S
H440 C439 0.980 . S
H441 C439 0.981 . S
H442 C439 0.981 . S
O443 Zn419 2.066 . S
O443 C422 1.256 . S
O444 Zn416 2.053 . S
O444 C422 1.244 . S
C445 O423 1.259 . S
C445 O424 1.254 . S
O446 Zn416 2.066 . S
O446 C418 1.256 . S
O447 C418 1.244 . S
O447 Zn419 2.053 . S
Zn448 O449 2.055 . S
Zn448 O456 2.046 . S
Zn448 N464 2.036 . S
Zn448 O476 2.053 . S
Zn448 O478 2.066 . S
O449 Zn448 2.055 . S
O449 C452 1.259 . S
C450 O478 1.256 . S
C450 O479 1.244 . S
Zn451 O453 2.046 . S
Zn451 O455 2.055 . S
Zn451 N457 2.036 . S
Zn451 O475 2.066 . S
Zn451 O479 2.053 . S
C452 O449 1.259 . S
C452 O453 1.254 . S
O453 Zn451 2.046 . S
O453 C452 1.254 . S
C454 O475 1.256 . S
C454 O476 1.244 . S
O455 Zn451 2.055 . S
O455 C477 1.259 . S
O456 Zn448 2.046 . S
O456 C477 1.254 . S
N457 Zn451 2.036 . S
N457 C458 1.298 . S
N457 N460 1.398 . S
C458 N457 1.298 . S
C458 N461 1.367 1_545 S
C458 C471 1.481 . S
C459 N460 1.274 1_565 S
C459 N461 1.382 . S
N460 N457 1.398 . S
N460 C459 1.274 1_545 S
N461 C458 1.367 1_565 S
N461 C459 1.382 . S
C462 N464 1.298 . S
C462 N466 1.367 . S
C462 C470 1.481 . S
C463 N465 1.299 . S
C463 N466 1.379 . S
N464 Zn448 2.036 . S
N464 C462 1.298 . S
N464 N465 1.398 . S
N465 C463 1.299 . S
N465 N464 1.398 . S
N466 C462 1.367 . S
N466 C463 1.379 . S
H467 C470 0.980 . S
H468 C470 0.981 . S
H469 C470 0.981 . S
C470 C462 1.481 . S
C470 H467 0.980 . S
C470 H468 0.981 . S
C470 H469 0.981 . S
C471 C458 1.481 . S
C471 H472 0.980 . S
C471 H473 0.981 . S
C471 H474 0.981 . S
H472 C471 0.980 . S
H473 C471 0.981 . S
H474 C471 0.981 . S
O475 Zn451 2.066 . S
O475 C454 1.256 . S
O476 Zn448 2.053 . S
O476 C454 1.244 . S
C477 O455 1.259 . S
C477 O456 1.254 . S
O478 Zn448 2.066 . S
O478 C450 1.256 . S
O479 C450 1.244 . S
O479 Zn451 2.053 . S
Zn480 O481 2.055 . S
Zn480 O488 2.046 . S
Zn480 N496 2.036 . S
Zn480 O508 2.053 . S
Zn480 O510 2.066 . S
O481 Zn480 2.055 . S
O481 C484 1.259 . S
C482 O510 1.256 . S
C482 O511 1.244 . S
Zn483 O485 2.046 . S
Zn483 O487 2.055 . S
Zn483 N489 2.036 . S
Zn483 O507 2.066 . S
Zn483 O511 2.053 . S
C484 O481 1.259 . S
C484 O485 1.254 . S
O485 Zn483 2.046 . S
O485 C484 1.254 . S
C486 O507 1.256 . S
C486 O508 1.244 . S
O487 Zn483 2.055 . S
O487 C509 1.259 . S
O488 Zn480 2.046 . S
O488 C509 1.254 . S
N489 Zn483 2.036 . S
N489 C490 1.298 . S
N489 N492 1.398 . S
C490 N489 1.298 . S
C490 N493 1.367 . S
C490 C503 1.481 . S
C491 N492 1.299 . S
C491 N493 1.379 . S
N492 N489 1.398 . S
N492 C491 1.299 . S
N493 C490 1.367 . S
N493 C491 1.379 . S
C494 N496 1.298 . S
C494 N498 1.367 1_455 S
C494 C502 1.481 . S
C495 N497 1.274 1_655 S
C495 N498 1.382 . S
N496 Zn480 2.036 . S
N496 C494 1.298 . S
N496 N497 1.398 . S
N497 C495 1.274 1_455 S
N497 N496 1.398 . S
N498 C494 1.367 1_655 S
N498 C495 1.382 . S
H499 C502 0.980 . S
H500 C502 0.981 . S
H501 C502 0.981 . S
C502 C494 1.481 . S
C502 H499 0.980 . S
C502 H500 0.981 . S
C502 H501 0.981 . S
C503 C490 1.481 . S
C503 H504 0.980 . S
C503 H505 0.981 . S
C503 H506 0.981 . S
H504 C503 0.980 . S
H505 C503 0.981 . S
H506 C503 0.981 . S
O507 Zn483 2.066 . S
O507 C486 1.256 . S
O508 Zn480 2.053 . S
O508 C486 1.244 . S
C509 O487 1.259 . S
C509 O488 1.254 . S
O510 Zn480 2.066 . S
O510 C482 1.256 . S
O511 C482 1.244 . S
O511 Zn483 2.053 . S
C512 C513 1.363 . S
C512 C518 1.379 . S
C512 N520 1.356 . S
C513 C512 1.363 . S
C513 C519 1.363 . S
C514 C515 1.363 . S
C514 C519 1.379 . S
C514 N521 1.356 . S
C515 C514 1.363 . S
C515 C518 1.363 . S
N516 C518 1.356 . S
N516 H528 0.984 . S
N516 H529 0.985 . S
N517 C519 1.356 . S
N517 H522 0.984 . S
N517 H523 0.985 . S
C518 C512 1.379 . S
C518 C515 1.363 . S
C518 N516 1.356 . S
C519 C513 1.363 . S
C519 C514 1.379 . S
C519 N517 1.356 . S
N520 C512 1.356 . S
N520 H526 0.984 . S
N520 H527 0.984 . S
N521 C514 1.356 . S
N521 H524 0.984 1_565 S
N521 H525 0.985 . S
H522 N517 0.984 . S
H523 N517 0.985 . S
H524 N521 0.984 1_545 S
H525 N521 0.985 . S
H526 N520 0.984 . S
H527 N520 0.984 . S
H528 N516 0.984 . S
H529 N516 0.985 . S
C530 C531 1.363 . S
C530 C536 1.379 . S
C530 N538 1.356 . S
C531 C530 1.363 . S
C531 C537 1.363 . S
C532 C533 1.363 . S
C532 C537 1.379 . S
C532 N539 1.356 . S
C533 C532 1.363 . S
C533 C536 1.363 . S
N534 C536 1.356 . S
N534 H546 0.984 1_556 S
N534 H547 0.985 . S
N535 C537 1.356 . S
N535 H540 0.984 . S
N535 H541 0.985 . S
C536 C530 1.379 . S
C536 C533 1.363 . S
C536 N534 1.356 . S
C537 C531 1.363 . S
C537 C532 1.379 . S
C537 N535 1.356 . S
N538 C530 1.356 . S
N538 H544 0.984 . S
N538 H545 0.984 . S
N539 C532 1.356 . S
N539 H542 0.961 1_655 S
N539 H543 0.985 . S
H540 N535 0.984 . S
H541 N535 0.985 . S
H542 N539 0.961 1_455 S
H543 N539 0.985 . S
H544 N538 0.984 . S
H545 N538 0.984 . S
H546 N534 0.984 1_554 S
H547 N534 0.985 . S
C548 C549 1.363 . S
C548 C554 1.379 . S
C548 N556 1.356 . S
C549 C548 1.363 . S
C549 C555 1.363 . S
C550 C551 1.363 . S
C550 C555 1.379 . S
C550 N557 1.356 . S
C551 C550 1.363 . S
C551 C554 1.363 . S
N552 C554 1.356 . S
N552 H564 0.984 . S
N552 H565 0.985 . S
N553 C555 1.356 . S
N553 H558 0.984 . S
N553 H559 0.985 . S
C554 C548 1.379 . S
C554 C551 1.363 . S
C554 N552 1.356 . S
C555 C549 1.363 . S
C555 C550 1.379 . S
C555 N553 1.356 . S
N556 C548 1.356 . S
N556 H562 0.984 . S
N556 H563 0.984 1_545 S
N557 C550 1.356 . S
N557 H560 0.984 . S
N557 H561 0.985 . S
H558 N553 0.984 . S
H559 N553 0.985 . S
H560 N557 0.984 . S
H561 N557 0.985 . S
H562 N556 0.984 . S
H563 N556 0.984 1_565 S
H564 N552 0.984 . S
H565 N552 0.985 . S
C566 C567 1.363 . S
C566 C572 1.379 . S
C566 N574 1.356 . S
C567 C566 1.363 . S
C567 C573 1.363 . S
C568 C569 1.363 . S
C568 C573 1.379 . S
C568 N575 1.356 . S
C569 C568 1.363 . S
C569 C572 1.363 . S
N570 C572 1.356 . S
N570 H582 0.984 . S
N570 H583 0.985 . S
N571 C573 1.356 . S
N571 H576 0.984 . S
N571 H577 0.985 . S
C572 C566 1.379 . S
C572 C569 1.363 . S
C572 N570 1.356 . S
C573 C567 1.363 . S
C573 C568 1.379 . S
C573 N571 1.356 . S
N574 C566 1.356 . S
N574 H580 0.984 . S
N574 H581 0.984 . S
N575 C568 1.356 . S
N575 H578 0.984 . S
N575 H579 0.985 . S
H576 N571 0.984 . S
H577 N571 0.985 . S
H578 N575 0.984 . S
H579 N575 0.985 . S
H580 N574 0.984 . S
H581 N574 0.984 . S
H582 N570 0.984 . S
H583 N570 0.985 . S
C584 C585 1.363 1_556 S
C584 C590 1.379 . S
C584 N592 1.356 . S
C585 C584 1.363 1_554 S
C585 C591 1.363 . S
C586 C587 1.363 1_554 S
C586 C591 1.379 . S
C586 N593 1.356 . S
C587 C586 1.363 1_556 S
C587 C590 1.363 . S
N588 C590 1.356 . S
N588 H600 0.984 . S
N588 H601 0.985 . S
N589 C591 1.356 . S
N589 H594 0.984 . S
N589 H595 0.985 . S
C590 C584 1.379 . S
C590 C587 1.363 . S
C590 N588 1.356 . S
C591 C585 1.363 . S
C591 C586 1.379 . S
C591 N589 1.356 . S
N592 C584 1.356 . S
N592 H598 0.984 . S
N592 H599 0.984 . S
N593 C586 1.356 . S
N593 H596 0.984 . S
N593 H597 0.985 . S
H594 N589 0.984 . S
H595 N589 0.985 . S
H596 N593 0.984 . S
H597 N593 0.985 . S
H598 N592 0.984 . S
H599 N592 0.984 . S
H600 N588 0.984 . S
H601 N588 0.985 . S
C602 C603 1.363 . S
C602 C608 1.379 . S
C602 N610 1.356 . S
C603 C602 1.363 . S
C603 C609 1.363 1_554 S
C604 C605 1.363 . S
C604 C609 1.379 . S
C604 N611 1.356 . S
C605 C604 1.363 . S
C605 C608 1.363 1_556 S
N606 C608 1.356 . S
N606 H618 0.984 . S
N606 H619 0.985 . S
N607 C609 1.356 . S
N607 H612 0.984 . S
N607 H613 0.985 . S
C608 C602 1.379 . S
C608 C605 1.363 1_554 S
C608 N606 1.356 . S
C609 C603 1.363 1_556 S
C609 C604 1.379 . S
C609 N607 1.356 . S
N610 C602 1.356 . S
N610 H616 0.984 . S
N610 H617 0.984 . S
N611 C604 1.356 . S
N611 H614 0.984 . S
N611 H615 0.985 . S
H612 N607 0.984 . S
H613 N607 0.985 . S
H614 N611 0.984 . S
H615 N611 0.985 . S
H616 N610 0.984 . S
H617 N610 0.984 . S
H618 N606 0.984 . S
H619 N606 0.985 . S
C620 C621 1.363 . S
C620 C626 1.379 . S
C620 N628 1.356 . S
C621 C620 1.363 . S
C621 C627 1.363 1_554 S
C622 C623 1.363 . S
C622 C627 1.379 . S
C622 N629 1.356 . S
C623 C622 1.363 . S
C623 C626 1.363 1_556 S
N624 C626 1.356 . S
N624 H636 0.984 . S
N624 H637 0.985 . S
N625 C627 1.356 . S
N625 H630 0.984 . S
N625 H631 0.985 . S
C626 C620 1.379 . S
C626 C623 1.363 1_554 S
C626 N624 1.356 . S
C627 C621 1.363 1_556 S
C627 C622 1.379 . S
C627 N625 1.356 . S
N628 C620 1.356 . S
N628 H634 0.984 . S
N628 H635 0.984 . S
N629 C622 1.356 . S
N629 H632 0.984 . S
N629 H633 0.985 . S
H630 N625 0.984 . S
H631 N625 0.985 . S
H632 N629 0.984 . S
H633 N629 0.985 . S
H634 N628 0.984 . S
H635 N628 0.984 . S
H636 N624 0.984 . S
H637 N624 0.985 . S
C638 C639 1.363 1_556 S
C638 C644 1.379 . S
C638 N646 1.356 . S
C639 C638 1.363 1_554 S
C639 C645 1.363 . S
C640 C641 1.363 1_554 S
C640 C645 1.379 . S
C640 N647 1.356 . S
C641 C640 1.363 1_556 S
C641 C644 1.363 . S
N642 C644 1.356 . S
N642 H654 0.984 . S
N642 H655 0.985 . S
N643 C645 1.356 . S
N643 H648 0.984 . S
N643 H649 0.985 . S
C644 C638 1.379 . S
C644 C641 1.363 . S
C644 N642 1.356 . S
C645 C639 1.363 . S
C645 C640 1.379 . S
C645 N643 1.356 . S
N646 C638 1.356 . S
N646 H652 0.984 . S
N646 H653 0.984 . S
N647 C640 1.356 . S
N647 H650 0.984 . S
N647 H651 0.985 . S
H648 N643 0.984 . S
H649 N643 0.985 . S
H650 N647 0.984 . S
H651 N647 0.985 . S
H652 N646 0.984 . S
H653 N646 0.984 . S
H654 N642 0.984 . S
H655 N642 0.985 . S
C656 C657 1.363 . S
C656 C662 1.379 . S
C656 N664 1.356 . S
C657 C656 1.363 . S
C657 C663 1.363 . S
C658 C659 1.363 . S
C658 C663 1.379 . S
C658 N665 1.356 . S
C659 C658 1.363 . S
C659 C662 1.363 . S
N660 C662 1.356 . S
N660 H672 0.984 . S
N660 H673 0.985 . S
N661 C663 1.356 . S
N661 H666 0.984 . S
N661 H667 0.985 . S
C662 C656 1.379 . S
C662 C659 1.363 . S
C662 N660 1.356 . S
C663 C657 1.363 . S
C663 C658 1.379 . S
C663 N661 1.356 . S
N664 C656 1.356 . S
N664 H670 0.984 1_556 S
N664 H671 0.984 . S
N665 C658 1.356 . S
N665 H668 0.984 . S
N665 H669 0.985 . S
H666 N661 0.984 . S
H667 N661 0.985 . S
H668 N665 0.984 . S
H669 N665 0.985 . S
H670 N664 0.984 1_554 S
H671 N664 0.984 . S
H672 N660 0.984 . S
H673 N660 0.985 . S
C674 C675 1.363 . S
C674 C680 1.379 . S
C674 N682 1.356 . S
C675 C674 1.363 . S
C675 C681 1.363 . S
C676 C677 1.363 . S
C676 C681 1.379 . S
C676 N683 1.356 . S
C677 C676 1.363 . S
C677 C680 1.363 . S
N678 C680 1.356 . S
N678 H690 0.984 . S
N678 H691 0.985 . S
N679 C681 1.356 . S
N679 H684 0.984 . S
N679 H685 0.985 . S
C680 C674 1.379 . S
C680 C677 1.363 . S
C680 N678 1.356 . S
C681 C675 1.363 . S
C681 C676 1.379 . S
C681 N679 1.356 . S
N682 C674 1.356 . S
N682 H688 0.984 . S
N682 H689 0.984 . S
N683 C676 1.356 . S
N683 H686 0.984 . S
N683 H687 0.985 . S
H684 N679 0.984 . S
H685 N679 0.985 . S
H686 N683 0.984 . S
H687 N683 0.985 . S
H688 N682 0.984 . S
H689 N682 0.984 . S
H690 N678 0.984 . S
H691 N678 0.985 . S
C692 C693 1.363 . S
C692 C698 1.379 . S
C692 N700 1.356 . S
C693 C692 1.363 . S
C693 C699 1.363 . S
C694 C695 1.363 . S
C694 C699 1.379 . S
C694 N701 1.356 . S
C695 C694 1.363 . S
C695 C698 1.363 . S
N696 C698 1.356 . S
N696 H708 0.984 . S
N696 H709 0.985 . S
N697 C699 1.356 . S
N697 H702 0.984 . S
N697 H703 0.985 1_556 S
C698 C692 1.379 . S
C698 C695 1.363 . S
C698 N696 1.356 . S
C699 C693 1.363 . S
C699 C694 1.379 . S
C699 N697 1.356 . S
N700 C692 1.356 . S
N700 H706 0.984 . S
N700 H707 0.984 . S
N701 C694 1.356 . S
N701 H704 0.984 . S
N701 H705 0.985 . S
H702 N697 0.984 . S
H703 N697 0.985 1_554 S
H704 N701 0.984 . S
H705 N701 0.985 . S
H706 N700 0.984 . S
H707 N700 0.984 . S
H708 N696 0.984 . S
H709 N696 0.985 . S
C710 C711 1.363 . S
C710 C716 1.379 . S
C710 N718 1.356 . S
C711 C710 1.363 . S
C711 C717 1.363 . S
C712 C713 1.363 . S
C712 C717 1.379 . S
C712 N719 1.356 . S
C713 C712 1.363 . S
C713 C716 1.363 . S
N714 C716 1.356 . S
N714 H726 0.984 . S
N714 H727 0.985 . S
N715 C717 1.356 . S
N715 H720 0.984 . S
N715 H721 0.985 1_554 S
C716 C710 1.379 . S
C716 C713 1.363 . S
C716 N714 1.356 . S
C717 C711 1.363 . S
C717 C712 1.379 . S
C717 N715 1.356 . S
N718 C710 1.356 . S
N718 H724 0.984 . S
N718 H725 0.984 . S
N719 C712 1.356 . S
N719 H722 0.984 . S
N719 H723 0.985 . S
H720 N715 0.984 . S
H721 N715 0.985 1_556 S
H722 N719 0.984 . S
H723 N719 0.985 . S
H724 N718 0.984 . S
H725 N718 0.984 . S
H726 N714 0.984 . S
H727 N714 0.985 . S
C728 C729 1.363 . S
C728 C734 1.379 . S
C728 N736 1.356 . S
C729 C728 1.363 . S
C729 C735 1.363 . S
C730 C731 1.363 . S
C730 C735 1.379 . S
C730 N737 1.356 . S
C731 C730 1.363 . S
C731 C734 1.363 . S
N732 C734 1.356 . S
N732 H744 0.984 . S
N732 H745 0.985 . S
N733 C735 1.356 . S
N733 H738 0.984 . S
N733 H739 0.985 . S
C734 C728 1.379 . S
C734 C731 1.363 . S
C734 N732 1.356 . S
C735 C729 1.363 . S
C735 C730 1.379 . S
C735 N733 1.356 . S
N736 C728 1.356 . S
N736 H742 0.984 . S
N736 H743 0.984 1_545 S
N737 C730 1.356 . S
N737 H740 0.984 . S
N737 H741 0.985 . S
H738 N733 0.984 . S
H739 N733 0.985 . S
H740 N737 0.984 . S
H741 N737 0.985 . S
H742 N736 0.984 . S
H743 N736 0.984 1_565 S
H744 N732 0.984 . S
H745 N732 0.985 . S
C746 C747 1.363 . S
C746 C752 1.379 . S
C746 N754 1.356 . S
C747 C746 1.363 . S
C747 C753 1.363 . S
C748 C749 1.363 . S
C748 C753 1.379 . S
C748 N755 1.356 . S
C749 C748 1.363 . S
C749 C752 1.363 . S
N750 C752 1.356 . S
N750 H762 0.984 . S
N750 H763 0.985 . S
N751 C753 1.356 . S
N751 H756 0.984 . S
N751 H757 0.985 . S
C752 C746 1.379 . S
C752 C749 1.363 . S
C752 N750 1.356 . S
C753 C747 1.363 . S
C753 C748 1.379 . S
C753 N751 1.356 . S
N754 C746 1.356 . S
N754 H760 0.984 . S
N754 H761 0.984 . S
N755 C748 1.356 . S
N755 H758 0.984 1_455 S
N755 H759 0.985 . S
H756 N751 0.984 . S
H757 N751 0.985 . S
H758 N755 0.984 1_655 S
H759 N755 0.985 . S
H760 N754 0.984 . S
H761 N754 0.984 . S
H762 N750 0.984 . S
H763 N750 0.985 . S
C764 C765 1.363 . S
C764 C770 1.379 . S
C764 N772 1.356 . S
C765 C764 1.363 . S
C765 C771 1.363 . S
C766 C767 1.363 . S
C766 C771 1.379 . S
C766 N773 1.356 . S
C767 C766 1.363 . S
C767 C770 1.363 . S
N768 C770 1.356 . S
N768 H780 0.984 . S
N768 H781 0.985 . S
N769 C771 1.356 . S
N769 H774 0.984 . S
N769 H775 0.985 . S
C770 C764 1.379 . S
C770 C767 1.363 . S
C770 N768 1.356 . S
C771 C765 1.363 . S
C771 C766 1.379 . S
C771 N769 1.356 . S
N772 C764 1.356 . S
N772 H778 0.984 . S
N772 H779 0.984 . S
N773 C766 1.356 . S
N773 H776 0.984 . S
N773 H777 0.985 . S
H774 N769 0.984 . S
H775 N769 0.985 . S
H776 N773 0.984 . S
H777 N773 0.985 . S
H778 N772 0.984 . S
H779 N772 0.984 . S
H780 N768 0.984 . S
H781 N768 0.985 . S
C782 C783 1.363 . S
C782 C788 1.379 . S
C782 N790 1.356 . S
C783 C782 1.363 . S
C783 C789 1.363 . S
C784 C785 1.363 . S
C784 C789 1.379 . S
C784 N791 1.356 . S
C785 C784 1.363 . S
C785 C788 1.363 . S
N786 C788 1.356 . S
N786 H798 0.984 . S
N786 H799 0.985 . S
N787 C789 1.356 . S
N787 H792 0.975 1_655 S
N787 H793 0.985 . S
C788 C782 1.379 . S
C788 C785 1.363 . S
C788 N786 1.356 . S
C789 C783 1.363 . S
C789 C784 1.379 . S
C789 N787 1.356 . S
N790 C782 1.356 . S
N790 H796 0.984 . S
N790 H797 0.984 . S
N791 C784 1.356 . S
N791 H794 0.984 . S
N791 H795 0.985 . S
H792 N787 0.975 1_455 S
H793 N787 0.985 . S
H794 N791 0.984 . S
H795 N791 0.985 . S
H796 N790 0.984 . S
H797 N790 0.984 . S
H798 N786 0.984 . S
H799 N786 0.985 . S
C800 C801 1.363 . S
C800 C806 1.379 . S
C800 N808 1.356 . S
C801 C800 1.363 . S
C801 C807 1.363 . S
C802 C803 1.363 . S
C802 C807 1.379 . S
C802 N809 1.356 1_554 S
C803 C802 1.363 . S
C803 C806 1.363 . S
N804 C806 1.356 . S
N804 H816 0.984 . S
N804 H817 0.985 . S
N805 C807 1.356 1_556 S
N805 H810 0.984 . S
N805 H811 0.985 . S
C806 C800 1.379 . S
C806 C803 1.363 . S
C806 N804 1.356 . S
C807 C801 1.363 . S
C807 C802 1.379 . S
C807 N805 1.356 1_554 S
N808 C800 1.356 . S
N808 H814 0.984 . S
N808 H815 0.984 . S
N809 C802 1.356 1_556 S
N809 H812 0.984 1_556 S
N809 H813 0.985 . S
H810 N805 0.984 . S
H811 N805 0.985 . S
H812 N809 0.984 1_554 S
H813 N809 0.985 . S
H814 N808 0.984 . S
H815 N808 0.984 . S
H816 N804 0.984 . S
H817 N804 0.985 . S
C818 C819 1.363 . S
C818 C824 1.379 . S
C818 N826 1.356 . S
C819 C818 1.363 . S
C819 C825 1.363 . S
C820 C821 1.363 . S
C820 C825 1.379 . S
C820 N827 1.356 1_556 S
C821 C820 1.363 . S
C821 C824 1.363 . S
N822 C824 1.356 . S
N822 H834 0.984 . S
N822 H835 0.985 . S
N823 C825 1.356 . S
N823 H828 0.984 . S
N823 H829 0.985 1_556 S
C824 C818 1.379 . S
C824 C821 1.363 . S
C824 N822 1.356 . S
C825 C819 1.363 . S
C825 C820 1.379 . S
C825 N823 1.356 . S
N826 C818 1.356 . S
N826 H832 0.984 . S
N826 H833 0.984 . S
N827 C820 1.356 1_554 S
N827 H830 0.984 . S
N827 H831 0.985 . S
H828 N823 0.984 . S
H829 N823 0.985 1_554 S
H830 N827 0.984 . S
H831 N827 0.985 . S
H832 N826 0.984 . S
H833 N826 0.984 . S
H834 N822 0.984 . S
H835 N822 0.985 . S
C836 C837 1.363 . S
C836 C842 1.379 . S
C836 N844 1.356 1_554 S
C837 C836 1.363 . S
C837 C843 1.363 . S
C838 C839 1.363 . S
C838 C843 1.379 . S
C838 N845 1.356 . S
C839 C838 1.363 . S
C839 C842 1.363 . S
N840 C842 1.356 . S
N840 H852 0.984 1_554 S
N840 H853 0.985 . S
N841 C843 1.356 . S
N841 H846 0.984 . S
N841 H847 0.985 . S
C842 C836 1.379 . S
C842 C839 1.363 . S
C842 N840 1.356 . S
C843 C837 1.363 . S
C843 C838 1.379 . S
C843 N841 1.356 . S
N844 C836 1.356 1_556 S
N844 H850 0.984 . S
N844 H851 0.984 . S
N845 C838 1.356 . S
N845 H848 0.984 . S
N845 H849 0.985 . S
H846 N841 0.984 . S
H847 N841 0.985 . S
H848 N845 0.984 . S
H849 N845 0.985 . S
H850 N844 0.984 . S
H851 N844 0.984 . S
H852 N840 0.984 1_556 S
H853 N840 0.985 . S
C854 C855 1.363 . S
C854 C860 1.379 . S
C854 N862 1.356 1_556 S
C855 C854 1.363 . S
C855 C861 1.363 . S
C856 C857 1.363 . S
C856 C861 1.379 . S
C856 N863 1.356 . S
C857 C856 1.363 . S
C857 C860 1.363 . S
N858 C860 1.356 . S
N858 H870 0.984 1_556 S
N858 H871 0.985 . S
N859 C861 1.356 . S
N859 H864 0.984 . S
N859 H865 0.985 . S
C860 C854 1.379 . S
C860 C857 1.363 . S
C860 N858 1.356 . S
C861 C855 1.363 . S
C861 C856 1.379 . S
C861 N859 1.356 . S
N862 C854 1.356 1_554 S
N862 H868 0.984 . S
N862 H869 0.984 . S
N863 C856 1.356 . S
N863 H866 0.984 . S
N863 H867 0.985 . S
H864 N859 0.984 . S
H865 N859 0.985 . S
H866 N863 0.984 . S
H867 N863 0.985 . S
H868 N862 0.984 . S
H869 N862 0.984 . S
H870 N858 0.984 1_554 S
H871 N858 0.985 . S
C872 C873 1.363 . S
C872 C878 1.379 . S
C872 N880 1.356 . S
C873 C872 1.363 . S
C873 C879 1.363 . S
C874 C875 1.363 . S
C874 C879 1.379 . S
C874 N881 1.356 . S
C875 C874 1.363 . S
C875 C878 1.363 . S
N876 C878 1.356 . S
N876 H888 0.984 . S
N876 H889 0.985 . S
N877 C879 1.356 . S
N877 H882 0.984 . S
N877 H883 0.985 . S
C878 C872 1.379 . S
C878 C875 1.363 . S
C878 N876 1.356 . S
C879 C873 1.363 . S
C879 C874 1.379 . S
C879 N877 1.356 . S
N880 C872 1.356 . S
N880 H886 0.984 . S
N880 H887 0.984 . S
N881 C874 1.356 . S
N881 H884 0.984 . S
N881 H885 0.985 . S
H882 N877 0.984 . S
H883 N877 0.985 . S
H884 N881 0.984 . S
H885 N881 0.985 . S
H886 N880 0.984 . S
H887 N880 0.984 . S
H888 N876 0.984 . S
H889 N876 0.985 . S
C890 C891 1.363 . S
C890 C896 1.379 . S
C890 N898 1.356 . S
C891 C890 1.363 . S
C891 C897 1.363 . S
C892 C893 1.363 . S
C892 C897 1.379 . S
C892 N899 1.356 . S
C893 C892 1.363 . S
C893 C896 1.363 . S
N894 C896 1.356 . S
N894 H906 0.984 . S
N894 H907 0.985 . S
N895 C897 1.356 . S
N895 H900 0.984 . S
N895 H901 0.985 . S
C896 C890 1.379 . S
C896 C893 1.363 . S
C896 N894 1.356 . S
C897 C891 1.363 . S
C897 C892 1.379 . S
C897 N895 1.356 . S
N898 C890 1.356 . S
N898 H904 0.984 . S
N898 H905 0.984 . S
N899 C892 1.356 . S
N899 H902 0.984 . S
N899 H903 0.985 . S
H900 N895 0.984 . S
H901 N895 0.985 . S
H902 N899 0.984 . S
H903 N899 0.985 . S
H904 N898 0.984 . S
H905 N898 0.984 . S
H906 N894 0.984 . S
H907 N894 0.985 . S
C908 C909 1.363 . S
C908 C914 1.379 . S
C908 N916 1.356 . S
C909 C908 1.363 . S
C909 C915 1.363 . S
C910 C911 1.363 . S
C910 C915 1.379 . S
C910 N917 1.356 . S
C911 C910 1.363 . S
C911 C914 1.363 . S
N912 C914 1.356 . S
N912 H924 0.984 . S
N912 H925 0.985 . S
N913 C915 1.356 . S
N913 H918 0.984 . S
N913 H919 0.985 . S
C914 C908 1.379 . S
C914 C911 1.363 . S
C914 N912 1.356 . S
C915 C909 1.363 . S
C915 C910 1.379 . S
C915 N913 1.356 . S
N916 C908 1.356 . S
N916 H922 0.984 . S
N916 H923 0.984 . S
N917 C910 1.356 . S
N917 H920 0.984 . S
N917 H921 0.985 . S
H918 N913 0.984 . S
H919 N913 0.985 . S
H920 N917 0.984 . S
H921 N917 0.985 . S
H922 N916 0.984 . S
H923 N916 0.984 . S
H924 N912 0.984 . S
H925 N912 0.985 . S
C926 C927 1.363 . S
C926 C932 1.379 . S
C926 N934 1.356 . S
C927 C926 1.363 . S
C927 C933 1.363 . S
C928 C929 1.363 . S
C928 C933 1.379 . S
C928 N935 1.356 . S
C929 C928 1.363 . S
C929 C932 1.363 . S
N930 C932 1.356 . S
N930 H942 0.984 . S
N930 H943 0.985 . S
N931 C933 1.356 . S
N931 H936 0.984 . S
N931 H937 0.985 . S
C932 C926 1.379 . S
C932 C929 1.363 . S
C932 N930 1.356 . S
C933 C927 1.363 . S
C933 C928 1.379 . S
C933 N931 1.356 . S
N934 C926 1.356 . S
N934 H940 0.984 . S
N934 H941 0.984 . S
N935 C928 1.356 . S
N935 H938 0.984 . S
N935 H939 0.985 . S
H936 N931 0.984 . S
H937 N931 0.985 . S
H938 N935 0.984 . S
H939 N935 0.985 . S
H940 N934 0.984 . S
H941 N934 0.984 . S
H942 N930 0.984 . S
H943 N930 0.985 . S
C944 C945 1.363 . S
C944 C950 1.379 . S
C944 N952 1.356 . S
C945 C944 1.363 . S
C945 C951 1.363 . S
C946 C947 1.363 . S
C946 C951 1.379 . S
C946 N953 1.356 . S
C947 C946 1.363 . S
C947 C950 1.363 . S
N948 C950 1.356 1_554 S
N948 H960 0.984 . S
N948 H961 0.985 . S
N949 C951 1.356 . S
N949 H954 0.984 . S
N949 H955 0.985 . S
C950 C944 1.379 . S
C950 C947 1.363 . S
C950 N948 1.356 1_556 S
C951 C945 1.363 . S
C951 C946 1.379 . S
C951 N949 1.356 . S
N952 C944 1.356 . S
N952 H958 0.984 . S
N952 H959 0.984 . S
N953 C946 1.356 . S
N953 H956 0.984 . S
N953 H957 0.985 . S
H954 N949 0.984 . S
H955 N949 0.985 . S
H956 N953 0.984 . S
H957 N953 0.985 . S
H958 N952 0.984 . S
H959 N952 0.984 . S
H960 N948 0.984 . S
H961 N948 0.985 . S
C962 C963 1.363 . S
C962 C968 1.379 . S
C962 N970 1.356 1_554 S
C963 C962 1.363 . S
C963 C969 1.363 . S
C964 C965 1.363 . S
C964 C969 1.379 . S
C964 N971 1.356 . S
C965 C964 1.363 . S
C965 C968 1.363 . S
N966 C968 1.356 . S
N966 H978 0.984 . S
N966 H979 0.985 . S
N967 C969 1.356 . S
N967 H972 0.984 . S
N967 H973 0.985 . S
C968 C962 1.379 . S
C968 C965 1.363 . S
C968 N966 1.356 . S
C969 C963 1.363 . S
C969 C964 1.379 . S
C969 N967 1.356 . S
N970 C962 1.356 1_556 S
N970 H976 0.984 . S
N970 H977 0.984 . S
N971 C964 1.356 . S
N971 H974 0.984 . S
N971 H975 0.985 . S
H972 N967 0.984 . S
H973 N967 0.985 . S
H974 N971 0.984 . S
H975 N971 0.985 . S
H976 N970 0.984 . S
H977 N970 0.984 . S
H978 N966 0.984 . S
H979 N966 0.985 . S
C980 C981 1.363 . S
C980 C986 1.379 . S
C980 N988 1.356 . S
C981 C980 1.363 . S
C981 C987 1.363 . S
C982 C983 1.363 . S
C982 C987 1.379 . S
C982 N989 1.356 . S
C983 C982 1.363 . S
C983 C986 1.363 . S
N984 C986 1.356 . S
N984 H996 0.984 . S
N984 H997 0.985 . S
N985 C987 1.356 1_554 S
N985 H990 0.984 . S
N985 H991 0.985 . S
C986 C980 1.379 . S
C986 C983 1.363 . S
C986 N984 1.356 . S
C987 C981 1.363 . S
C987 C982 1.379 . S
C987 N985 1.356 1_556 S
N988 C980 1.356 . S
N988 H994 0.984 . S
N988 H995 0.984 . S
N989 C982 1.356 . S
N989 H992 0.984 . S
N989 H993 0.985 . S
H990 N985 0.984 . S
H991 N985 0.985 . S
H992 N989 0.984 . S
H993 N989 0.985 . S
H994 N988 0.984 . S
H995 N988 0.984 . S
H996 N984 0.984 . S
H997 N984 0.985 . S
C998 C999 1.363 . S
C998 C1004 1.379 . S
C998 N1006 1.356 . S
C999 C998 1.363 . S
C999 C1005 1.363 . S
C1000 C1001 1.363 . S
C1000 C1005 1.379 . S
C1000 N1007 1.356 . S
C1001 C1000 1.363 . S
C1001 C1004 1.363 . S
N1002 C1004 1.356 . S
N1002 H1014 0.984 . S
N1002 H1015 0.985 . S
N1003 C1005 1.356 1_556 S
N1003 H1008 0.984 . S
N1003 H1009 0.985 . S
C1004 C998 1.379 . S
C1004 C1001 1.363 . S
C1004 N1002 1.356 . S
C1005 C999 1.363 . S
C1005 C1000 1.379 . S
C1005 N1003 1.356 1_554 S
N1006 C998 1.356 . S
N1006 H1012 0.984 . S
N1006 H1013 0.984 . S
N1007 C1000 1.356 . S
N1007 H1010 0.984 . S
N1007 H1011 0.985 . S
H1008 N1003 0.984 . S
H1009 N1003 0.985 . S
H1010 N1007 0.984 . S
H1011 N1007 0.985 . S
H1012 N1006 0.984 . S
H1013 N1006 0.984 . S
H1014 N1002 0.984 . S
H1015 N1002 0.985 . S
C1016 C1017 1.363 . S
C1016 C1022 1.379 . S
C1016 N1024 1.356 . S
C1017 C1016 1.363 . S
C1017 C1023 1.363 . S
C1018 C1019 1.363 . S
C1018 C1023 1.379 . S
C1018 N1025 1.356 . S
C1019 C1018 1.363 . S
C1019 C1022 1.363 . S
N1020 C1022 1.356 . S
N1020 H1032 0.984 . S
N1020 H1033 0.985 . S
N1021 C1023 1.356 . S
N1021 H1026 0.984 . S
N1021 H1027 0.985 . S
C1022 C1016 1.379 . S
C1022 C1019 1.363 . S
C1022 N1020 1.356 . S
C1023 C1017 1.363 . S
C1023 C1018 1.379 . S
C1023 N1021 1.356 . S
N1024 C1016 1.356 . S
N1024 H1030 0.984 . S
N1024 H1031 0.984 . S
N1025 C1018 1.356 . S
N1025 H1028 0.984 . S
N1025 H1029 0.985 . S
H1026 N1021 0.984 . S
H1027 N1021 0.985 . S
H1028 N1025 0.984 . S
H1029 N1025 0.985 . S
H1030 N1024 0.984 . S
H1031 N1024 0.984 . S
H1032 N1020 0.984 . S
H1033 N1020 0.985 . S
C1034 C1035 1.363 . S
C1034 C1040 1.379 . S
C1034 N1042 1.356 . S
C1035 C1034 1.363 . S
C1035 C1041 1.363 . S
C1036 C1037 1.363 . S
C1036 C1041 1.379 . S
C1036 N1043 1.356 . S
C1037 C1036 1.363 . S
C1037 C1040 1.363 . S
N1038 C1040 1.356 . S
N1038 H1050 0.984 . S
N1038 H1051 0.985 . S
N1039 C1041 1.356 . S
N1039 H1044 0.984 . S
N1039 H1045 0.985 . S
C1040 C1034 1.379 . S
C1040 C1037 1.363 . S
C1040 N1038 1.356 . S
C1041 C1035 1.363 . S
C1041 C1036 1.379 . S
C1041 N1039 1.356 . S
N1042 C1034 1.356 . S
N1042 H1048 0.984 . S
N1042 H1049 0.984 . S
N1043 C1036 1.356 . S
N1043 H1046 0.984 . S
N1043 H1047 0.985 . S
H1044 N1039 0.984 . S
H1045 N1039 0.985 . S
H1046 N1043 0.984 . S
H1047 N1043 0.985 . S
H1048 N1042 0.984 . S
H1049 N1042 0.984 . S
H1050 N1038 0.984 . S
H1051 N1038 0.985 . S
C1052 C1053 1.363 . S
C1052 C1058 1.379 . S
C1052 N1060 1.356 . S
C1053 C1052 1.363 . S
C1053 C1059 1.363 . S
C1054 C1055 1.363 . S
C1054 C1059 1.379 . S
C1054 N1061 1.356 . S
C1055 C1054 1.363 . S
C1055 C1058 1.363 . S
N1056 C1058 1.356 . S
N1056 H1068 0.984 . S
N1056 H1069 0.985 . S
N1057 C1059 1.356 . S
N1057 H1062 0.984 . S
N1057 H1063 0.985 . S
C1058 C1052 1.379 . S
C1058 C1055 1.363 . S
C1058 N1056 1.356 . S
C1059 C1053 1.363 . S
C1059 C1054 1.379 . S
C1059 N1057 1.356 . S
N1060 C1052 1.356 . S
N1060 H1066 0.984 . S
N1060 H1067 0.984 . S
N1061 C1054 1.356 . S
N1061 H1064 0.984 . S
N1061 H1065 0.985 . S
H1062 N1057 0.984 . S
H1063 N1057 0.985 . S
H1064 N1061 0.984 . S
H1065 N1061 0.985 . S
H1066 N1060 0.984 . S
H1067 N1060 0.984 . S
H1068 N1056 0.984 . S
H1069 N1056 0.985 . S
C1070 C1071 1.363 . S
C1070 C1076 1.379 . S
C1070 N1078 1.356 . S
C1071 C1070 1.363 . S
C1071 C1077 1.363 . S
C1072 C1073 1.363 . S
C1072 C1077 1.379 . S
C1072 N1079 1.356 . S
C1073 C1072 1.363 . S
C1073 C1076 1.363 . S
N1074 C1076 1.356 . S
N1074 H1086 0.984 . S
N1074 H1087 0.985 . S
N1075 C1077 1.356 . S
N1075 H1080 0.984 . S
N1075 H1081 0.985 . S
C1076 C1070 1.379 . S
C1076 C1073 1.363 . S
C1076 N1074 1.356 . S
C1077 C1071 1.363 . S
C1077 C1072 1.379 . S
C1077 N1075 1.356 . S
N1078 C1070 1.356 . S
N1078 H1084 0.984 . S
N1078 H1085 0.984 . S
N1079 C1072 1.356 . S
N1079 H1082 0.984 . S
N1079 H1083 0.985 . S
H1080 N1075 0.984 . S
H1081 N1075 0.985 . S
H1082 N1079 0.984 . S
H1083 N1079 0.985 . S
H1084 N1078 0.984 . S
H1085 N1078 0.984 . S
H1086 N1074 0.984 . S
H1087 N1074 0.985 . S
C1088 C1089 1.363 . S
C1088 C1094 1.379 . S
C1088 N1096 1.356 . S
C1089 C1088 1.363 . S
C1089 C1095 1.363 . S
C1090 C1091 1.363 . S
C1090 C1095 1.379 . S
C1090 N1097 1.356 . S
C1091 C1090 1.363 . S
C1091 C1094 1.363 . S
N1092 C1094 1.356 . S
N1092 H1104 0.984 . S
N1092 H1105 0.985 . S
N1093 C1095 1.356 . S
N1093 H1098 0.984 . S
N1093 H1099 0.985 . S
C1094 C1088 1.379 . S
C1094 C1091 1.363 . S
C1094 N1092 1.356 . S
C1095 C1089 1.363 . S
C1095 C1090 1.379 . S
C1095 N1093 1.356 . S
N1096 C1088 1.356 . S
N1096 H1102 0.984 . S
N1096 H1103 0.984 . S
N1097 C1090 1.356 . S
N1097 H1100 0.984 . S
N1097 H1101 0.985 . S
H1098 N1093 0.984 . S
H1099 N1093 0.985 . S
H1100 N1097 0.984 . S
H1101 N1097 0.985 . S
H1102 N1096 0.984 . S
H1103 N1096 0.984 . S
H1104 N1092 0.984 . S
H1105 N1092 0.985 . S
C1106 C1107 1.363 . S
C1106 C1112 1.379 . S
C1106 N1114 1.356 . S
C1107 C1106 1.363 . S
C1107 C1113 1.363 . S
C1108 C1109 1.363 . S
C1108 C1113 1.379 . S
C1108 N1115 1.356 . S
C1109 C1108 1.363 . S
C1109 C1112 1.363 . S
N1110 C1112 1.356 . S
N1110 H1122 0.984 . S
N1110 H1123 0.985 . S
N1111 C1113 1.356 . S
N1111 H1116 0.984 . S
N1111 H1117 0.985 . S
C1112 C1106 1.379 . S
C1112 C1109 1.363 . S
C1112 N1110 1.356 . S
C1113 C1107 1.363 . S
C1113 C1108 1.379 . S
C1113 N1111 1.356 . S
N1114 C1106 1.356 . S
N1114 H1120 0.984 . S
N1114 H1121 0.984 . S
N1115 C1108 1.356 . S
N1115 H1118 0.984 . S
N1115 H1119 0.985 . S
H1116 N1111 0.984 . S
H1117 N1111 0.985 . S
H1118 N1115 0.984 . S
H1119 N1115 0.985 . S
H1120 N1114 0.984 . S
H1121 N1114 0.984 . S
H1122 N1110 0.984 . S
H1123 N1110 0.985 . S
C1124 C1125 1.363 . S
C1124 C1130 1.379 . S
C1124 N1132 1.356 . S
C1125 C1124 1.363 . S
C1125 C1131 1.363 . S
C1126 C1127 1.363 . S
C1126 C1131 1.379 . S
C1126 N1133 1.356 . S
C1127 C1126 1.363 . S
C1127 C1130 1.363 . S
N1128 C1130 1.356 . S
N1128 H1140 0.984 . S
N1128 H1141 0.985 . S
N1129 C1131 1.356 . S
N1129 H1134 0.984 . S
N1129 H1135 0.985 . S
C1130 C1124 1.379 . S
C1130 C1127 1.363 . S
C1130 N1128 1.356 . S
C1131 C1125 1.363 . S
C1131 C1126 1.379 . S
C1131 N1129 1.356 . S
N1132 C1124 1.356 . S
N1132 H1138 0.984 . S
N1132 H1139 0.984 . S
N1133 C1126 1.356 . S
N1133 H1136 0.984 . S
N1133 H1137 0.985 . S
H1134 N1129 0.984 . S
H1135 N1129 0.985 . S
H1136 N1133 0.984 . S
H1137 N1133 0.985 . S
H1138 N1132 0.984 . S
H1139 N1132 0.984 . S
H1140 N1128 0.984 . S
H1141 N1128 0.985 . S
C1142 C1143 1.363 . S
C1142 C1148 1.379 . S
C1142 N1150 1.356 . S
C1143 C1142 1.363 . S
C1143 C1149 1.363 . S
C1144 C1145 1.363 . S
C1144 C1149 1.379 . S
C1144 N1151 1.356 . S
C1145 C1144 1.363 . S
C1145 C1148 1.363 . S
N1146 C1148 1.356 . S
N1146 H1158 0.984 . S
N1146 H1159 0.985 . S
N1147 C1149 1.356 . S
N1147 H1152 0.984 . S
N1147 H1153 0.985 . S
C1148 C1142 1.379 . S
C1148 C1145 1.363 . S
C1148 N1146 1.356 . S
C1149 C1143 1.363 . S
C1149 C1144 1.379 . S
C1149 N1147 1.356 . S
N1150 C1142 1.356 . S
N1150 H1156 0.984 . S
N1150 H1157 0.984 . S
N1151 C1144 1.356 . S
N1151 H1154 0.984 . S
N1151 H1155 0.985 . S
H1152 N1147 0.984 . S
H1153 N1147 0.985 . S
H1154 N1151 0.984 . S
H1155 N1151 0.985 . S
H1156 N1150 0.984 . S
H1157 N1150 0.984 . S
H1158 N1146 0.984 . S
H1159 N1146 0.985 . S
C1160 C1161 1.363 . S
C1160 C1166 1.379 . S
C1160 N1168 1.356 . S
C1161 C1160 1.363 . S
C1161 C1167 1.363 . S
C1162 C1163 1.363 . S
C1162 C1167 1.379 . S
C1162 N1169 1.356 . S
C1163 C1162 1.363 . S
C1163 C1166 1.363 . S
N1164 C1166 1.356 . S
N1164 H1176 0.984 . S
N1164 H1177 0.985 . S
N1165 C1167 1.356 . S
N1165 H1170 0.984 . S
N1165 H1171 0.985 . S
C1166 C1160 1.379 . S
C1166 C1163 1.363 . S
C1166 N1164 1.356 . S
C1167 C1161 1.363 . S
C1167 C1162 1.379 . S
C1167 N1165 1.356 . S
N1168 C1160 1.356 . S
N1168 H1174 0.984 . S
N1168 H1175 0.984 . S
N1169 C1162 1.356 . S
N1169 H1172 0.984 . S
N1169 H1173 0.985 . S
H1170 N1165 0.984 . S
H1171 N1165 0.985 . S
H1172 N1169 0.984 . S
H1173 N1169 0.985 . S
H1174 N1168 0.984 . S
H1175 N1168 0.984 . S
H1176 N1164 0.984 . S
H1177 N1164 0.985 . S
C1178 C1179 1.363 . S
C1178 C1184 1.379 . S
C1178 N1186 1.356 . S
C1179 C1178 1.363 . S
C1179 C1185 1.363 . S
C1180 C1181 1.363 . S
C1180 C1185 1.379 . S
C1180 N1187 1.356 . S
C1181 C1180 1.363 . S
C1181 C1184 1.363 . S
N1182 C1184 1.356 . S
N1182 H1194 0.984 . S
N1182 H1195 0.985 . S
N1183 C1185 1.356 . S
N1183 H1188 0.984 . S
N1183 H1189 0.985 . S
C1184 C1178 1.379 . S
C1184 C1181 1.363 . S
C1184 N1182 1.356 . S
C1185 C1179 1.363 . S
C1185 C1180 1.379 . S
C1185 N1183 1.356 . S
N1186 C1178 1.356 . S
N1186 H1192 0.984 . S
N1186 H1193 0.984 . S
N1187 C1180 1.356 . S
N1187 H1190 0.984 . S
N1187 H1191 0.985 . S
H1188 N1183 0.984 . S
H1189 N1183 0.985 . S
H1190 N1187 0.984 . S
H1191 N1187 0.985 . S
H1192 N1186 0.984 . S
H1193 N1186 0.984 . S
H1194 N1182 0.984 . S
H1195 N1182 0.985 . S
C1196 C1197 1.363 . S
C1196 C1202 1.379 . S
C1196 N1204 1.356 . S
C1197 C1196 1.363 . S
C1197 C1203 1.363 . S
C1198 C1199 1.363 . S
C1198 C1203 1.379 . S
C1198 N1205 1.356 . S
C1199 C1198 1.363 . S
C1199 C1202 1.363 . S
N1200 C1202 1.356 . S
N1200 H1212 0.984 . S
N1200 H1213 0.985 . S
N1201 C1203 1.356 . S
N1201 H1206 0.984 . S
N1201 H1207 0.985 . S
C1202 C1196 1.379 . S
C1202 C1199 1.363 . S
C1202 N1200 1.356 . S
C1203 C1197 1.363 . S
C1203 C1198 1.379 . S
C1203 N1201 1.356 . S
N1204 C1196 1.356 . S
N1204 H1210 0.984 . S
N1204 H1211 0.984 . S
N1205 C1198 1.356 . S
N1205 H1208 0.984 . S
N1205 H1209 0.985 . S
H1206 N1201 0.984 . S
H1207 N1201 0.985 . S
H1208 N1205 0.984 . S
H1209 N1205 0.985 . S
H1210 N1204 0.984 . S
H1211 N1204 0.984 . S
H1212 N1200 0.984 . S
H1213 N1200 0.985 . S
C1214 C1215 1.363 . S
C1214 C1220 1.379 . S
C1214 N1222 1.356 . S
C1215 C1214 1.363 . S
C1215 C1221 1.363 . S
C1216 C1217 1.363 . S
C1216 C1221 1.379 . S
C1216 N1223 1.356 . S
C1217 C1216 1.363 . S
C1217 C1220 1.363 . S
N1218 C1220 1.356 . S
N1218 H1230 0.984 . S
N1218 H1231 0.985 . S
N1219 C1221 1.356 . S
N1219 H1224 0.984 . S
N1219 H1225 0.985 . S
C1220 C1214 1.379 . S
C1220 C1217 1.363 . S
C1220 N1218 1.356 . S
C1221 C1215 1.363 . S
C1221 C1216 1.379 . S
C1221 N1219 1.356 . S
N1222 C1214 1.356 . S
N1222 H1228 0.984 . S
N1222 H1229 0.984 . S
N1223 C1216 1.356 . S
N1223 H1226 0.984 . S
N1223 H1227 0.985 . S
H1224 N1219 0.984 . S
H1225 N1219 0.985 . S
H1226 N1223 0.984 . S
H1227 N1223 0.985 . S
H1228 N1222 0.984 . S
H1229 N1222 0.984 . S
H1230 N1218 0.984 . S
H1231 N1218 0.985 . S
C1232 C1233 1.363 1_554 S
C1232 C1238 1.379 . S
C1232 N1240 1.356 1_554 S
C1233 C1232 1.363 1_556 S
C1233 C1239 1.363 1_556 S
C1234 C1235 1.363 . S
C1234 C1239 1.379 . S
C1234 N1241 1.356 . S
C1235 C1234 1.363 . S
C1235 C1238 1.363 . S
N1236 C1238 1.356 . S
N1236 H1248 0.984 . S
N1236 H1249 0.985 . S
N1237 C1239 1.356 1_556 S
N1237 H1242 0.984 . S
N1237 H1243 0.985 . S
C1238 C1232 1.379 . S
C1238 C1235 1.363 . S
C1238 N1236 1.356 . S
C1239 C1233 1.363 1_554 S
C1239 C1234 1.379 . S
C1239 N1237 1.356 1_554 S
N1240 C1232 1.356 1_556 S
N1240 H1246 0.984 1_556 S
N1240 H1247 0.984 . S
N1241 C1234 1.356 . S
N1241 H1244 0.984 . S
N1241 H1245 0.985 . S
H1242 N1237 0.984 . S
H1243 N1237 0.985 . S
H1244 N1241 0.984 . S
H1245 N1241 0.985 . S
H1246 N1240 0.984 1_554 S
H1247 N1240 0.984 . S
H1248 N1236 0.984 . S
H1249 N1236 0.985 . S
C1250 C1251 1.363 . S
C1250 C1256 1.379 . S
C1250 N1258 1.356 . S
C1251 C1250 1.363 . S
C1251 C1257 1.363 . S
C1252 C1253 1.363 1_556 S
C1252 C1257 1.379 . S
C1252 N1259 1.356 1_556 S
C1253 C1252 1.363 1_554 S
C1253 C1256 1.363 1_554 S
N1254 C1256 1.356 1_554 S
N1254 H1266 0.984 1_554 S
N1254 H1267 0.985 . S
N1255 C1257 1.356 . S
N1255 H1260 0.984 . S
N1255 H1261 0.985 . S
C1256 C1250 1.379 . S
C1256 C1253 1.363 1_556 S
C1256 N1254 1.356 1_556 S
C1257 C1251 1.363 . S
C1257 C1252 1.379 . S
C1257 N1255 1.356 . S
N1258 C1250 1.356 . S
N1258 H1264 0.984 . S
N1258 H1265 0.984 . S
N1259 C1252 1.356 1_554 S
N1259 H1262 0.984 . S
N1259 H1263 0.985 . S
H1260 N1255 0.984 . S
H1261 N1255 0.985 . S
H1262 N1259 0.984 . S
H1263 N1259 0.985 . S
H1264 N1258 0.984 . S
H1265 N1258 0.984 . S
H1266 N1254 0.984 1_556 S
H1267 N1254 0.985 . S
C1268 C1269 1.363 . S
C1268 C1274 1.379 . S
C1268 N1276 1.356 . S
C1269 C1268 1.363 . S
C1269 C1275 1.363 . S
C1270 C1271 1.363 1_554 S
C1270 C1275 1.379 . S
C1270 N1277 1.356 1_554 S
C1271 C1270 1.363 1_556 S
C1271 C1274 1.363 1_556 S
N1272 C1274 1.356 1_556 S
N1272 H1284 0.984 . S
N1272 H1285 0.985 . S
N1273 C1275 1.356 . S
N1273 H1278 0.984 . S
N1273 H1279 0.985 . S
C1274 C1268 1.379 . S
C1274 C1271 1.363 1_554 S
C1274 N1272 1.356 1_554 S
C1275 C1269 1.363 . S
C1275 C1270 1.379 . S
C1275 N1273 1.356 . S
N1276 C1268 1.356 . S
N1276 H1282 0.984 . S
N1276 H1283 0.984 . S
N1277 C1270 1.356 1_556 S
N1277 H1280 0.984 . S
N1277 H1281 0.985 . S
H1278 N1273 0.984 . S
H1279 N1273 0.985 . S
H1280 N1277 0.984 . S
H1281 N1277 0.985 . S
H1282 N1276 0.984 . S
H1283 N1276 0.984 . S
H1284 N1272 0.984 . S
H1285 N1272 0.985 . S
C1286 C1287 1.363 1_556 S
C1286 C1292 1.379 . S
C1286 N1294 1.356 1_556 S
C1287 C1286 1.363 1_554 S
C1287 C1293 1.363 1_554 S
C1288 C1289 1.363 . S
C1288 C1293 1.379 . S
C1288 N1295 1.356 . S
C1289 C1288 1.363 . S
C1289 C1292 1.363 . S
N1290 C1292 1.356 . S
N1290 H1302 0.984 . S
N1290 H1303 0.985 . S
N1291 C1293 1.356 1_554 S
N1291 H1296 0.984 . S
N1291 H1297 0.985 1_554 S
C1292 C1286 1.379 . S
C1292 C1289 1.363 . S
C1292 N1290 1.356 . S
C1293 C1287 1.363 1_556 S
C1293 C1288 1.379 . S
C1293 N1291 1.356 1_556 S
N1294 C1286 1.356 1_554 S
N1294 H1300 0.984 . S
N1294 H1301 0.984 . S
N1295 C1288 1.356 . S
N1295 H1298 0.984 . S
N1295 H1299 0.985 . S
H1296 N1291 0.984 . S
H1297 N1291 0.985 1_556 S
H1298 N1295 0.984 . S
H1299 N1295 0.985 . S
H1300 N1294 0.984 . S
H1301 N1294 0.984 . S
H1302 N1290 0.984 . S
H1303 N1290 0.985 . S
C1304 C1305 1.363 . S
C1304 C1310 1.379 . S
C1304 N1312 1.356 . S
C1305 C1304 1.363 . S
C1305 C1311 1.363 . S
C1306 C1307 1.359 1_554 S
C1306 C1311 1.379 . S
C1306 N1313 1.356 1_554 S
C1307 C1306 1.359 1_556 S
C1307 C1310 1.360 1_556 S
N1308 C1310 1.356 1_556 S
N1308 H1320 0.984 . S
N1308 H1321 0.985 . S
N1309 C1311 1.356 . S
N1309 H1314 0.984 . S
N1309 H1315 0.985 . S
C1310 C1304 1.379 . S
C1310 C1307 1.360 1_554 S
C1310 N1308 1.356 1_554 S
C1311 C1305 1.363 . S
C1311 C1306 1.379 . S
C1311 N1309 1.356 . S
N1312 C1304 1.356 . S
N1312 H1318 0.984 . S
N1312 H1319 0.984 . S
N1313 C1306 1.356 1_556 S
N1313 H1316 0.984 . S
N1313 H1317 0.985 1_556 S
H1314 N1309 0.984 . S
H1315 N1309 0.985 . S
H1316 N1313 0.984 . S
H1317 N1313 0.985 1_554 S
H1318 N1312 0.984 . S
H1319 N1312 0.984 . S
H1320 N1308 0.984 . S
H1321 N1308 0.985 . S
C1322 C1323 1.360 1_556 S
C1322 C1328 1.379 . S
C1322 N1330 1.356 1_556 S
C1323 C1322 1.360 1_554 S
C1323 C1329 1.359 1_554 S
C1324 C1325 1.363 . S
C1324 C1329 1.379 . S
C1324 N1331 1.356 . S
C1325 C1324 1.363 . S
C1325 C1328 1.363 . S
N1326 C1328 1.356 . S
N1326 H1338 0.984 . S
N1326 H1339 0.985 . S
N1327 C1329 1.356 1_554 S
N1327 H1332 0.984 . S
N1327 H1333 0.985 1_554 S
C1328 C1322 1.379 . S
C1328 C1325 1.363 . S
C1328 N1326 1.356 . S
C1329 C1323 1.359 1_556 S
C1329 C1324 1.379 . S
C1329 N1327 1.356 1_556 S
N1330 C1322 1.356 1_554 S
N1330 H1336 0.984 . S
N1330 H1337 0.984 . S
N1331 C1324 1.356 . S
N1331 H1334 0.984 . S
N1331 H1335 0.985 . S
H1332 N1327 0.984 . S
H1333 N1327 0.985 1_556 S
H1334 N1331 0.984 . S
H1335 N1331 0.985 . S
H1336 N1330 0.984 . S
H1337 N1330 0.984 . S
H1338 N1326 0.984 . S
H1339 N1326 0.985 . S
C1340 C1341 1.359 1_554 S
C1340 C1346 1.379 . S
C1340 N1348 1.356 1_554 S
C1341 C1340 1.359 1_556 S
C1341 C1347 1.360 1_556 S
C1342 C1343 1.363 . S
C1342 C1347 1.379 . S
C1342 N1349 1.356 . S
C1343 C1342 1.363 . S
C1343 C1346 1.363 . S
N1344 C1346 1.356 . S
N1344 H1356 0.984 . S
N1344 H1357 0.985 . S
N1345 C1347 1.356 1_556 S
N1345 H1350 0.984 . S
N1345 H1351 0.985 . S
C1346 C1340 1.379 . S
C1346 C1343 1.363 . S
C1346 N1344 1.356 . S
C1347 C1341 1.360 1_554 S
C1347 C1342 1.379 . S
C1347 N1345 1.356 1_554 S
N1348 C1340 1.356 1_556 S
N1348 H1354 0.984 1_556 S
N1348 H1355 0.984 . S
N1349 C1342 1.356 . S
N1349 H1352 0.984 . S
N1349 H1353 0.985 . S
H1350 N1345 0.984 . S
H1351 N1345 0.985 . S
H1352 N1349 0.984 . S
H1353 N1349 0.985 . S
H1354 N1348 0.984 1_554 S
H1355 N1348 0.984 . S
H1356 N1344 0.984 . S
H1357 N1344 0.985 . S
C1358 C1359 1.363 . S
C1358 C1364 1.379 . S
C1358 N1366 1.356 . S
C1359 C1358 1.363 . S
C1359 C1365 1.363 . S
C1360 C1361 1.360 1_556 S
C1360 C1365 1.379 . S
C1360 N1367 1.356 1_556 S
C1361 C1360 1.360 1_554 S
C1361 C1364 1.359 1_554 S
N1362 C1364 1.356 1_554 S
N1362 H1374 0.984 1_554 S
N1362 H1375 0.985 . S
N1363 C1365 1.356 . S
N1363 H1368 0.984 . S
N1363 H1369 0.985 . S
C1364 C1358 1.379 . S
C1364 C1361 1.359 1_556 S
C1364 N1362 1.356 1_556 S
C1365 C1359 1.363 . S
C1365 C1360 1.379 . S
C1365 N1363 1.356 . S
N1366 C1358 1.356 . S
N1366 H1372 0.984 . S
N1366 H1373 0.984 . S
N1367 C1360 1.356 1_554 S
N1367 H1370 0.984 . S
N1367 H1371 0.985 . S
H1368 N1363 0.984 . S
H1369 N1363 0.985 . S
H1370 N1367 0.984 . S
H1371 N1367 0.985 . S
H1372 N1366 0.984 . S
H1373 N1366 0.984 . S
H1374 N1362 0.984 1_556 S
H1375 N1362 0.985 . S
C513 C381 1.603 . S
C515 N13 1.612 . S
C531 C285 1.603 . S
C533 N45 1.612 . S
C549 N82 1.612 . S
C551 C317 1.603 . S
C567 N114 1.612 . S
C569 C324 1.603 . S
C585 N141 1.611 . S
C587 C164 1.602 . S
C603 C221 1.603 . S
C605 N178 1.612 . S
C621 N205 1.612 . S
C623 C253 1.603 . S
C639 C157 1.602 . S
C641 N237 1.612 . S
C657 C100 1.603 . S
C659 N269 1.612 . S
C675 N301 1.612 . S
C677 C29 1.603 . S
C693 C61 1.603 . S
C695 N338 1.612 . S
C711 C68 1.603 . S
C713 N365 1.612 . S
C729 N402 1.612 . S
C731 C445 1.603 . S
C747 C477 1.602 . S
C749 N429 1.612 . S
C765 C484 1.603 . S
C767 N461 1.612 . S
C783 N498 1.612 . S
C785 C388 1.602 . S
C801 N18 1.225 . S
C803 N146 1.225 . S
C819 N173 1.225 . S
C821 N50 1.225 . S
C837 N77 1.225 . S
C839 N210 1.225 . S
C855 N109 1.225 . S
C857 N242 1.225 . S
C873 N274 1.225 . S
C875 N397 1.225 . S
C891 N434 1.225 . S
C893 N306 1.225 . S
C909 N333 1.225 . S
C911 N466 1.225 . S
C927 N370 1.226 . S
C929 N493 1.225 . S
C945 C450 2.187 . S
C947 C2 2.187 1_556 S
C963 C34 2.187 1_554 S
C965 C486 2.187 . S
C981 C70 2.187 1_556 S
C983 C390 2.187 . S
C999 C102 2.187 1_554 S
C1001 C418 2.187 . S
C1017 C130 2.187 . S
C1019 C326 2.187 . S
C1035 C166 2.187 . S
C1037 C354 2.187 . S
C1053 C194 2.186 . S
C1055 C258 2.186 . S
C1071 C290 2.187 . S
C1073 C226 2.186 . S
C1089 C6 1.172 . S
C1091 C4 1.174 . S
C1107 C38 1.172 . S
C1109 C36 1.174 . S
C1125 C66 1.172 . S
C1127 C93 1.174 . S
C1143 C125 1.174 . S
C1145 C98 1.172 . S
C1161 C132 1.174 . S
C1163 C134 1.172 . S
C1179 C162 1.172 . S
C1181 C189 1.174 . S
C1197 C198 1.172 . S
C1199 C196 1.174 . S
C1215 C228 1.174 . S
C1217 C230 1.172 . S
C1233 C262 1.172 . S
C1235 C260 1.174 . S
C1251 C292 1.174 . S
C1253 C294 1.172 . S
C1269 C349 1.174 . S
C1271 C322 1.172 . S
C1287 C358 1.172 . S
C1289 C356 1.174 . S
C1305 C386 1.172 . S
C1307 C413 1.181 . S
C1323 C420 1.181 . S
C1325 C422 1.172 . S
C1341 C452 1.181 . S
C1343 C454 1.172 . S
C1359 C482 1.172 . S
C1361 C509 1.181 . S
