# Generated by pormake.
# Topology gsi, (4)-cn, num edge types: 1
# Building blocks:
#     Node 0, Type 0, BuildingBlock: AZAVOO_clean_sbu_0, # of connection points: 4
#     Node 1, Type 0, BuildingBlock: AZAVOO_clean_sbu_0, # of connection points: 4
#     Node 2, Type 0, BuildingBlock: AZAVOO_clean_sbu_0, # of connection points: 4
#     Node 3, Type 0, BuildingBlock: AZAVOO_clean_sbu_0, # of connection points: 4
#     Node 4, Type 0, BuildingBlock: AZAVOO_clean_sbu_0, # of connection points: 4
#     Node 5, Type 0, BuildingBlock: AZAVOO_clean_sbu_0, # of connection points: 4
#     Node 6, Type 0, BuildingBlock: AZAVOO_clean_sbu_0, # of connection points: 4
#     Node 7, Type 0, BuildingBlock: AZAVOO_clean_sbu_0, # of connection points: 4
#     Node 8, Type 0, BuildingBlock: AZAVOO_clean_sbu_0, # of connection points: 4
#     Node 9, Type 0, BuildingBlock: AZAVOO_clean_sbu_0, # of connection points: 4
#     Node 10, Type 0, BuildingBlock: AZAVOO_clean_sbu_0, # of connection points: 4
#     Node 11, Type 0, BuildingBlock: AZAVOO_clean_sbu_0, # of connection points: 4
#     Node 12, Type 0, BuildingBlock: AZAVOO_clean_sbu_0, # of connection points: 4
#     Node 13, Type 0, BuildingBlock: AZAVOO_clean_sbu_0, # of connection points: 4
#     Node 14, Type 0, BuildingBlock: AZAVOO_clean_sbu_0, # of connection points: 4
#     Node 15, Type 0, BuildingBlock: AZAVOO_clean_sbu_0, # of connection points: 4
#     Edge 16, Type (0, 0), BuildingBlock: TEMPAE_clean_linker_10, # of connection points: 2
#     Edge 17, Type (0, 0), BuildingBlock: TEMPAE_clean_linker_10, # of connection points: 2
#     Edge 18, Type (0, 0), BuildingBlock: TEMPAE_clean_linker_10, # of connection points: 2
#     Edge 19, Type (0, 0), BuildingBlock: TEMPAE_clean_linker_10, # of connection points: 2
#     Edge 20, Type (0, 0), BuildingBlock: TEMPAE_clean_linker_10, # of connection points: 2
#     Edge 21, Type (0, 0), BuildingBlock: TEMPAE_clean_linker_10, # of connection points: 2
#     Edge 22, Type (0, 0), BuildingBlock: TEMPAE_clean_linker_10, # of connection points: 2
#     Edge 23, Type (0, 0), BuildingBlock: TEMPAE_clean_linker_10, # of connection points: 2
#     Edge 24, Type (0, 0), BuildingBlock: TEMPAE_clean_linker_10, # of connection points: 2
#     Edge 25, Type (0, 0), BuildingBlock: TEMPAE_clean_linker_10, # of connection points: 2
#     Edge 26, Type (0, 0), BuildingBlock: TEMPAE_clean_linker_10, # of connection points: 2
#     Edge 27, Type (0, 0), BuildingBlock: TEMPAE_clean_linker_10, # of connection points: 2
#     Edge 28, Type (0, 0), BuildingBlock: TEMPAE_clean_linker_10, # of connection points: 2
#     Edge 29, Type (0, 0), BuildingBlock: TEMPAE_clean_linker_10, # of connection points: 2
#     Edge 30, Type (0, 0), BuildingBlock: TEMPAE_clean_linker_10, # of connection points: 2
#     Edge 31, Type (0, 0), BuildingBlock: TEMPAE_clean_linker_10, # of connection points: 2
#     Edge 32, Type (0, 0), BuildingBlock: TEMPAE_clean_linker_10, # of connection points: 2
#     Edge 33, Type (0, 0), BuildingBlock: TEMPAE_clean_linker_10, # of connection points: 2
#     Edge 34, Type (0, 0), BuildingBlock: TEMPAE_clean_linker_10, # of connection points: 2
#     Edge 35, Type (0, 0), BuildingBlock: TEMPAE_clean_linker_10, # of connection points: 2
#     Edge 36, Type (0, 0), BuildingBlock: TEMPAE_clean_linker_10, # of connection points: 2
#     Edge 37, Type (0, 0), BuildingBlock: TEMPAE_clean_linker_10, # of connection points: 2
#     Edge 38, Type (0, 0), BuildingBlock: TEMPAE_clean_linker_10, # of connection points: 2
#     Edge 39, Type (0, 0), BuildingBlock: TEMPAE_clean_linker_10, # of connection points: 2
#     Edge 40, Type (0, 0), BuildingBlock: TEMPAE_clean_linker_10, # of connection points: 2
#     Edge 41, Type (0, 0), BuildingBlock: TEMPAE_clean_linker_10, # of connection points: 2
#     Edge 42, Type (0, 0), BuildingBlock: TEMPAE_clean_linker_10, # of connection points: 2
#     Edge 43, Type (0, 0), BuildingBlock: TEMPAE_clean_linker_10, # of connection points: 2
#     Edge 44, Type (0, 0), BuildingBlock: TEMPAE_clean_linker_10, # of connection points: 2
#     Edge 45, Type (0, 0), BuildingBlock: TEMPAE_clean_linker_10, # of connection points: 2
#     Edge 46, Type (0, 0), BuildingBlock: TEMPAE_clean_linker_10, # of connection points: 2
#     Edge 47, Type (0, 0), BuildingBlock: TEMPAE_clean_linker_10, # of connection points: 2
# Relax obj value: 0.018
# Max RMSD: 0.029
# Mean RMSD: 0.026
data_MOF--net-gsi--node1-AZAVOO_clean_sbu_0--edge1-TEMPAE_clean_linker_10
_symmetry_space_group_name_H-M    P1
_symmetry_Int_Tables_number       1
_symmetry_cell_setting            triclinic
loop_
_symmetry_equiv_pos_as_xyz
'x, y, z'
_cell_length_a     43.88083
_cell_length_b     43.549809
_cell_length_c     42.662196
_cell_angle_alpha  90.049738
_cell_angle_beta   89.9905
_cell_angle_gamma 90.046433
loop_
_atom_site_label
_atom_site_type_symbol
_atom_site_fract_x
_atom_site_fract_y
_atom_site_fract_z
_atom_type_partial_charge
Mg0 Mg 0.13548 0.13226 0.14002 0.0
O1 O 0.16479 0.15838 0.17583 0.0
O2 O 0.2085 0.13229 0.18084 0.0
Mg3 Mg 0.2053 0.08789 0.15246 0.0
C4 C 0.19152 0.15524 0.18723 0.0
C5 C 0.07561 0.16433 0.13386 0.0
O6 O 0.06959 0.13477 0.13346 0.0
O7 O 0.16692 0.14859 0.10055 0.0
O8 O 0.20686 0.11762 0.10836 0.0
O9 O 0.114 0.10469 0.17809 0.0
O10 O 0.15556 0.09095 0.15253 0.0
C11 C 0.19314 0.13838 0.0926 0.0
C12 C 0.13602 0.0853 0.17424 0.0
O13 O 0.1033 0.17283 0.13536 0.0
Mg14 Mg 0.85788 0.36748 0.14177 0.0
O15 O 0.82719 0.34034 0.17551 0.0
O16 O 0.78334 0.36639 0.1795 0.0
Mg17 Mg 0.78788 0.41183 0.1531 0.0
C18 C 0.8 0.34319 0.18581 0.0
C19 C 0.90379 0.31602 0.15854 0.0
O20 O 0.89887 0.32796 0.18638 0.0
O21 O 0.82762 0.35295 0.10092 0.0
O22 O 0.78748 0.38392 0.10758 0.0
O23 O 0.87849 0.39354 0.18148 0.0
O24 O 0.83762 0.4083 0.15539 0.0
C25 C 0.8019 0.36349 0.09198 0.0
C26 C 0.85655 0.41308 0.17788 0.0
O27 O 0.88911 0.32641 0.13518 0.0
Mg28 Mg 0.14971 0.84861 0.34197 0.0
O29 O 0.17484 0.82049 0.30435 0.0
O30 O 0.21522 0.84809 0.28908 0.0
Mg31 Mg 0.21677 0.89255 0.31742 0.0
C32 C 0.19857 0.82409 0.28737 0.0
C33 C 0.09813 0.81461 0.37346 0.0
O34 O 0.0981 0.84188 0.38669 0.0
O35 O 0.18578 0.83481 0.37756 0.0
O36 O 0.2247 0.86443 0.36228 0.0
O37 O 0.12335 0.87412 0.3056 0.0
O38 O 0.16762 0.88927 0.32476 0.0
C39 C 0.21296 0.8448 0.38104 0.0
C40 C 0.14549 0.8938 0.3056 0.0
O41 O 0.11893 0.80837 0.35373 0.0
Mg42 Mg 0.85716 0.64779 0.34881 0.0
O43 O 0.82777 0.67674 0.31535 0.0
O44 O 0.78354 0.65151 0.30979 0.0
Mg45 Mg 0.78641 0.60534 0.33493 0.0
C46 C 0.80072 0.67458 0.30445 0.0
C47 C 0.91062 0.68187 0.3772 0.0
O48 O 0.90996 0.65565 0.39241 0.0
O49 O 0.82682 0.66153 0.3899 0.0
O50 O 0.78614 0.63174 0.38134 0.0
O51 O 0.87783 0.62267 0.30861 0.0
O52 O 0.83621 0.6079 0.33348 0.0
C53 C 0.80073 0.65121 0.39803 0.0
C54 C 0.85547 0.60342 0.31121 0.0
O55 O 0.88985 0.68733 0.35721 0.0
Mg56 Mg 0.36656 0.86704 0.63508 0.0
O57 O 0.3382 0.839 0.67015 0.0
O58 O 0.29589 0.86573 0.68076 0.0
Mg59 Mg 0.29616 0.90935 0.65105 0.0
C60 C 0.31286 0.84223 0.68454 0.0
C61 C 0.42685 0.83744 0.62536 0.0
O62 O 0.43131 0.86726 0.62393 0.0
O63 O 0.33493 0.85097 0.59614 0.0
O64 O 0.29377 0.87949 0.60659 0.0
O65 O 0.38803 0.89369 0.67377 0.0
O66 O 0.34587 0.9076 0.6494 0.0
C67 C 0.30789 0.85981 0.5897 0.0
C68 C 0.36556 0.91272 0.67111 0.0
O69 O 0.39974 0.82761 0.62863 0.0
Mg70 Mg 0.8638 0.85574 0.86245 0.0
O71 O 0.82595 0.83081 0.83531 0.0
O72 O 0.7814 0.85265 0.84768 0.0
Mg73 Mg 0.79111 0.89339 0.88007 0.0
C74 C 0.79695 0.83234 0.83318 0.0
C75 C 0.9245 0.82645 0.85085 0.0
O76 O 0.92634 0.83968 0.87849 0.0
O77 O 0.86247 0.89538 0.82742 0.0
O78 O 0.81871 0.91765 0.84173 0.0
O79 O 0.85493 0.82537 0.90378 0.0
O80 O 0.83244 0.87002 0.89587 0.0
C81 C 0.84279 0.91686 0.82489 0.0
C82 C 0.83466 0.84531 0.91219 0.0
O83 O 0.90011 0.82972 0.83518 0.0
Mg84 Mg 0.15227 0.65509 0.85044 0.0
O85 O 0.18882 0.67859 0.82022 0.0
O86 O 0.23357 0.6559 0.83029 0.0
Mg87 Mg 0.22535 0.61679 0.86511 0.0
C88 C 0.2176 0.67616 0.81622 0.0
C89 C 0.08735 0.67059 0.82796 0.0
O90 O 0.08271 0.64527 0.84402 0.0
O91 O 0.15138 0.61418 0.81697 0.0
O92 O 0.19529 0.59136 0.82957 0.0
O93 O 0.16281 0.68687 0.89036 0.0
O94 O 0.18587 0.64247 0.88205 0.0
C95 C 0.17035 0.59212 0.81412 0.0
C96 C 0.18412 0.66768 0.89768 0.0
O97 O 0.11453 0.67993 0.82422 0.0
Mg98 Mg 0.85626 0.14501 0.62513 0.0
O99 O 0.81844 0.16931 0.65283 0.0
O100 O 0.7741 0.14626 0.64199 0.0
Mg101 Mg 0.78399 0.10566 0.60945 0.0
C102 C 0.78955 0.16706 0.65589 0.0
C103 C 0.91665 0.17591 0.63561 0.0
O104 O 0.91856 0.16258 0.60803 0.0
O105 O 0.85635 0.10569 0.66049 0.0
O106 O 0.81282 0.08224 0.6474 0.0
O107 O 0.84633 0.1746 0.58353 0.0
O108 O 0.82457 0.12973 0.59242 0.0
C109 C 0.83722 0.08377 0.66369 0.0
C110 C 0.82638 0.15412 0.57555 0.0
O111 O 0.89248 0.1721 0.65155 0.0
Mg112 Mg 0.13887 0.35277 0.63022 0.0
O113 O 0.1772 0.33042 0.65894 0.0
O114 O 0.22123 0.35272 0.64514 0.0
Mg115 Mg 0.21096 0.39022 0.60907 0.0
C116 C 0.20616 0.33303 0.66105 0.0
C117 C 0.0751 0.3368 0.65483 0.0
O118 O 0.06974 0.36061 0.63675 0.0
O119 O 0.14023 0.39496 0.66218 0.0
O120 O 0.18324 0.41701 0.64537 0.0
O121 O 0.14684 0.31921 0.59125 0.0
O122 O 0.1706 0.36377 0.59594 0.0
C123 C 0.15945 0.41702 0.66261 0.0
C124 C 0.16788 0.33782 0.58176 0.0
O125 O 0.10258 0.32888 0.65948 0.0
Mg126 Mg 0.64456 0.14768 0.3518 0.0
O127 O 0.67777 0.1756 0.32159 0.0
O128 O 0.72329 0.15235 0.3234 0.0
Mg129 Mg 0.71993 0.11198 0.35764 0.0
C130 C 0.70576 0.17365 0.31355 0.0
C131 C 0.57948 0.17071 0.34571 0.0
O132 O 0.57892 0.15354 0.37102 0.0
O133 O 0.64297 0.10894 0.31539 0.0
O134 O 0.68804 0.0867 0.32402 0.0
O135 O 0.65599 0.17704 0.39305 0.0
O136 O 0.68101 0.13487 0.37997 0.0
C137 C 0.66215 0.08742 0.31036 0.0
C138 C 0.67879 0.15877 0.39763 0.0
O139 O 0.60407 0.17229 0.33009 0.0
Mg140 Mg 0.65011 0.64286 0.6493 0.0
O141 O 0.67582 0.66919 0.68776 0.0
O142 O 0.71628 0.64114 0.70166 0.0
Mg143 Mg 0.71695 0.59763 0.67164 0.0
C144 C 0.69974 0.66511 0.7043 0.0
C145 C 0.60404 0.69509 0.66112 0.0
O146 O 0.60702 0.68376 0.68949 0.0
O147 O 0.68632 0.6579 0.61456 0.0
O148 O 0.72533 0.62758 0.62799 0.0
O149 O 0.62356 0.616 0.68456 0.0
O150 O 0.66769 0.60142 0.66463 0.0
C151 C 0.71348 0.64816 0.61042 0.0
C152 C 0.6455 0.59616 0.68356 0.0
O153 O 0.62027 0.68419 0.63911 0.0
Mg154 Mg 0.64608 0.35495 0.84526 0.0
O155 O 0.67062 0.32784 0.80639 0.0
O156 O 0.71113 0.35539 0.79139 0.0
Mg157 Mg 0.71365 0.39867 0.82151 0.0
C158 C 0.69416 0.33167 0.78918 0.0
C159 C 0.59857 0.30384 0.83389 0.0
O160 O 0.60272 0.31416 0.80527 0.0
O161 O 0.6824 0.33919 0.87973 0.0
O162 O 0.72177 0.36843 0.86485 0.0
O163 O 0.61985 0.38259 0.81025 0.0
O164 O 0.66459 0.39591 0.82962 0.0
C165 C 0.70992 0.34832 0.883 0.0
C166 C 0.64236 0.40182 0.81101 0.0
O167 O 0.61477 0.31469 0.85596 0.0
Mg168 Mg 0.35325 0.1444 0.84657 0.0
O169 O 0.32814 0.17251 0.80895 0.0
O170 O 0.28755 0.14504 0.79392 0.0
Mg171 Mg 0.28551 0.10103 0.82277 0.0
C172 C 0.30434 0.16892 0.79206 0.0
C173 C 0.4117 0.17331 0.86444 0.0
O174 O 0.41464 0.14347 0.86792 0.0
O175 O 0.31758 0.15951 0.88222 0.0
O176 O 0.27825 0.1304 0.86694 0.0
O177 O 0.37889 0.11844 0.81013 0.0
O178 O 0.33468 0.10368 0.82971 0.0
C179 C 0.29013 0.15014 0.88551 0.0
C180 C 0.35656 0.09903 0.81022 0.0
O181 O 0.3857 0.18384 0.85685 0.0
Mg182 Mg 0.34705 0.34575 0.35676 0.0
O183 O 0.31205 0.31908 0.32772 0.0
O184 O 0.26712 0.34317 0.33139 0.0
Mg185 Mg 0.27296 0.38348 0.36543 0.0
C186 C 0.28387 0.32157 0.32079 0.0
C187 C 0.41252 0.32574 0.34248 0.0
O188 O 0.41645 0.34834 0.36252 0.0
O189 O 0.3486 0.38445 0.32044 0.0
O190 O 0.30425 0.40774 0.3304 0.0
O191 O 0.33518 0.31668 0.39803 0.0
O192 O 0.31253 0.36049 0.38639 0.0
C193 C 0.32969 0.40633 0.31591 0.0
C194 C 0.31385 0.33641 0.4038 0.0
O195 O 0.38566 0.31952 0.3334 0.0
Mg196 Mg 0.35994 0.63821 0.12313 0.0
O197 O 0.32183 0.66113 0.1515 0.0
O198 O 0.27743 0.63944 0.13823 0.0
Mg199 Mg 0.28767 0.60064 0.10356 0.0
C200 C 0.29286 0.65913 0.15375 0.0
C201 C 0.42335 0.65774 0.14518 0.0
O202 O 0.42924 0.63513 0.12569 0.0
O203 O 0.35902 0.59692 0.15608 0.0
O204 O 0.31548 0.57483 0.14073 0.0
O205 O 0.351 0.67061 0.08367 0.0
O206 O 0.32866 0.62545 0.08885 0.0
C207 C 0.33956 0.57512 0.15759 0.0
C208 C 0.33083 0.65108 0.07403 0.0
O209 O 0.39571 0.66357 0.15171 0.0
Mg210 Mg 0.64183 0.85019 0.12291 0.0
O211 O 0.6765 0.82733 0.15557 0.0
O212 O 0.72084 0.85257 0.15111 0.0
Mg213 Mg 0.71541 0.889 0.11273 0.0
C214 C 0.70435 0.8315 0.16322 0.0
C215 C 0.57881 0.82253 0.1309 0.0
O216 O 0.57783 0.83586 0.10329 0.0
O217 O 0.63855 0.89212 0.15542 0.0
O218 O 0.68238 0.91576 0.14382 0.0
O219 O 0.655 0.81752 0.0847 0.0
O220 O 0.67752 0.86216 0.0936 0.0
C221 C 0.65667 0.91501 0.15782 0.0
C222 C 0.67689 0.83651 0.07862 0.0
O223 O 0.60281 0.82542 0.14727 0.0
C224 C 0.23355 0.19091 0.20109 0.0
C225 C 0.20411 0.1799 0.20697 0.0
C226 C 0.2459 0.21487 0.21902 0.0
C227 C 0.22883 0.22721 0.24421 0.0
C228 C 0.19918 0.21583 0.2505 0.0
C229 C 0.1869 0.19268 0.23132 0.0
C230 C 0.27713 0.22709 0.21086 0.0
C231 C 0.18074 0.22764 0.27784 0.0
C232 C 0.27558 0.26669 0.30734 0.0
C233 C 0.26977 0.2977 0.30113 0.0
C234 C 0.2616 0.24349 0.28961 0.0
C235 C 0.24236 0.25161 0.26429 0.0
C236 C 0.23681 0.28299 0.25766 0.0
C237 C 0.25012 0.3057 0.27663 0.0
C238 C 0.26726 0.21032 0.2981 0.0
C239 C 0.21735 0.29256 0.23017 0.0
H240 H 0.24665 0.1812 0.18195 0.0
H241 H 0.16416 0.18398 0.23584 0.0
H242 H 0.27607 0.25231 0.20728 0.0
H243 H 0.29314 0.22284 0.23049 0.0
H244 H 0.28656 0.2163 0.18934 0.0
H245 H 0.15837 0.21585 0.27996 0.0
H246 H 0.19364 0.22432 0.29995 0.0
H247 H 0.17667 0.25264 0.27525 0.0
H248 H 0.29051 0.2606 0.32661 0.0
H249 H 0.24579 0.32976 0.27186 0.0
H250 H 0.27931 0.19855 0.27866 0.0
H251 H 0.24525 0.19825 0.30162 0.0
H252 H 0.28114 0.20796 0.31975 0.0
H253 H 0.22696 0.28299 0.20817 0.0
H254 H 0.21581 0.31791 0.22784 0.0
H255 H 0.194 0.28315 0.23273 0.0
C256 C 0.80294 0.30455 0.22886 0.0
C257 C 0.78662 0.31804 0.20429 0.0
C258 C 0.78989 0.281 0.24694 0.0
C259 C 0.76042 0.26994 0.23929 0.0
C260 C 0.74427 0.28301 0.21387 0.0
C261 C 0.75735 0.30735 0.19707 0.0
C262 C 0.80737 0.26838 0.27455 0.0
C263 C 0.71331 0.27113 0.20424 0.0
C264 C 0.7389 0.19067 0.26936 0.0
C265 C 0.71891 0.19801 0.29381 0.0
C266 C 0.75215 0.21385 0.25097 0.0
C267 C 0.74619 0.24505 0.25816 0.0
C268 C 0.72634 0.2525 0.28322 0.0
C269 C 0.71245 0.22883 0.30036 0.0
C270 C 0.77226 0.20498 0.22372 0.0
C271 C 0.72021 0.28545 0.2923 0.0
H272 H 0.82555 0.31299 0.23443 0.0
H273 H 0.74495 0.31763 0.17776 0.0
H274 H 0.79368 0.27103 0.29627 0.0
H275 H 0.81158 0.24349 0.27129 0.0
H276 H 0.82962 0.28012 0.2779 0.0
H277 H 0.70461 0.28259 0.18278 0.0
H278 H 0.71446 0.24603 0.19986 0.0
H279 H 0.69667 0.27482 0.22344 0.0
H280 H 0.74377 0.16677 0.26432 0.0
H281 H 0.69729 0.23443 0.3196 0.0
H282 H 0.79567 0.21385 0.22743 0.0
H283 H 0.76352 0.21553 0.20182 0.0
H284 H 0.77347 0.1797 0.22041 0.0
H285 H 0.74203 0.2974 0.29726 0.0
H286 H 0.70531 0.2873 0.31327 0.0
H287 H 0.70914 0.29773 0.2726 0.0
C288 C 0.24647 0.68971 0.16731 0.0
C289 C 0.27659 0.68123 0.17409 0.0
C290 C 0.23148 0.71223 0.18514 0.0
C291 C 0.24675 0.72603 0.21076 0.0
C292 C 0.27681 0.71679 0.21832 0.0
C293 C 0.2915 0.69478 0.19965 0.0
C294 C 0.1997 0.72196 0.17593 0.0
C295 C 0.29364 0.73051 0.24586 0.0
C296 C 0.22576 0.80568 0.23954 0.0
C297 C 0.20828 0.79904 0.26619 0.0
C298 C 0.23735 0.78211 0.22057 0.0
C299 C 0.23196 0.75111 0.22891 0.0
C300 C 0.21376 0.74425 0.25541 0.0
C301 C 0.20182 0.76834 0.27356 0.0
C302 C 0.25601 0.79038 0.19204 0.0
C303 C 0.20796 0.7115 0.26536 0.0
H304 H 0.23494 0.67948 0.1474 0.0
H305 H 0.3147 0.68811 0.20511 0.0
H306 H 0.18397 0.7196 0.19614 0.0
H307 H 0.19981 0.74654 0.16911 0.0
H308 H 0.1906 0.70825 0.15604 0.0
H309 H 0.31605 0.71933 0.24986 0.0
H310 H 0.29751 0.75537 0.24181 0.0
H311 H 0.27975 0.72831 0.26748 0.0
H312 H 0.23058 0.8294 0.23361 0.0
H313 H 0.18849 0.76311 0.29428 0.0
H314 H 0.24709 0.77827 0.17106 0.0
H315 H 0.27993 0.78286 0.19542 0.0
H316 H 0.25595 0.81547 0.18735 0.0
H317 H 0.19832 0.69808 0.24561 0.0
H318 H 0.1921 0.71001 0.2856 0.0
H319 H 0.22984 0.7005 0.27197 0.0
C320 C 0.7597 0.71203 0.29277 0.0
C321 C 0.78834 0.69984 0.28549 0.0
C322 C 0.74677 0.73523 0.27431 0.0
C323 C 0.76236 0.7455 0.24721 0.0
C324 C 0.79144 0.73328 0.23986 0.0
C325 C 0.80438 0.71094 0.25951 0.0
C326 C 0.71624 0.74844 0.28356 0.0
C327 C 0.8083 0.74289 0.21062 0.0
C328 C 0.7124 0.77843 0.18291 0.0
C329 C 0.71861 0.80988 0.18533 0.0
C330 C 0.72704 0.75719 0.20246 0.0
C331 C 0.74748 0.76783 0.22576 0.0
C332 C 0.7533 0.79971 0.22874 0.0
C333 C 0.73922 0.82034 0.20801 0.0
C334 C 0.72094 0.72334 0.19788 0.0
C335 C 0.77408 0.812 0.25401 0.0
H336 H 0.74749 0.7035 0.31309 0.0
H337 H 0.82646 0.70123 0.25388 0.0
H338 H 0.71744 0.77389 0.28417 0.0
H339 H 0.69881 0.74206 0.2659 0.0
H340 H 0.70855 0.74009 0.30686 0.0
H341 H 0.83088 0.73155 0.20854 0.0
H342 H 0.79452 0.737 0.18964 0.0
H343 H 0.81171 0.76812 0.21044 0.0
H344 H 0.69675 0.77035 0.16503 0.0
H345 H 0.7439 0.84473 0.20988 0.0
H346 H 0.71029 0.7136 0.21924 0.0
H347 H 0.74273 0.71096 0.19406 0.0
H348 H 0.70567 0.71881 0.17763 0.0
H349 H 0.76584 0.80443 0.27736 0.0
H350 H 0.77539 0.83748 0.25383 0.0
H351 H 0.79738 0.80265 0.25096 0.0
C352 C 0.30846 0.78655 0.6978 0.0
C353 C 0.30184 0.81724 0.705 0.0
C354 C 0.29578 0.76246 0.71538 0.0
C355 C 0.27676 0.76934 0.74127 0.0
C356 C 0.27095 0.80034 0.74932 0.0
C357 C 0.28319 0.82391 0.73079 0.0
C358 C 0.30191 0.72971 0.70564 0.0
C359 C 0.25149 0.80861 0.77728 0.0
C360 C 0.21808 0.71189 0.77042 0.0
C361 C 0.23325 0.69869 0.79595 0.0
C362 C 0.23239 0.73421 0.75178 0.0
C363 C 0.2622 0.74418 0.75949 0.0
C364 C 0.27764 0.73085 0.78523 0.0
C365 C 0.26312 0.70794 0.8029 0.0
C366 C 0.21548 0.74732 0.72403 0.0
C367 C 0.3091 0.74144 0.7947 0.0
H368 H 0.32263 0.78133 0.67767 0.0
H369 H 0.27821 0.84765 0.73651 0.0
H370 H 0.31193 0.71666 0.72542 0.0
H371 H 0.28014 0.71828 0.69934 0.0
H372 H 0.31763 0.72825 0.68528 0.0
H373 H 0.25092 0.83376 0.78161 0.0
H374 H 0.22782 0.80046 0.77352 0.0
H375 H 0.26025 0.79703 0.79862 0.0
H376 H 0.19506 0.70462 0.7649 0.0
H377 H 0.27478 0.69799 0.82286 0.0
H378 H 0.22959 0.74525 0.70254 0.0
H379 H 0.21109 0.77212 0.72786 0.0
H380 H 0.19334 0.7356 0.71993 0.0
H381 H 0.32516 0.7389 0.7748 0.0
H382 H 0.31815 0.72841 0.81504 0.0
H383 H 0.30846 0.76618 0.80093 0.0
C384 C 0.72853 0.68318 0.75137 0.0
C385 C 0.71009 0.68994 0.72546 0.0
C386 C 0.74083 0.70671 0.76999 0.0
C387 C 0.73522 0.73774 0.76198 0.0
C388 C 0.71608 0.7447 0.73622 0.0
C389 C 0.70343 0.72068 0.71849 0.0
C390 C 0.76043 0.69835 0.7978 0.0
C391 C 0.71003 0.77748 0.72657 0.0
C392 C 0.75103 0.80007 0.82228 0.0
C393 C 0.78072 0.80905 0.81423 0.0
C394 C 0.73591 0.77684 0.80554 0.0
C395 C 0.75057 0.76284 0.77965 0.0
C396 C 0.78027 0.77237 0.77096 0.0
C397 C 0.79515 0.79507 0.78863 0.0
C398 C 0.70459 0.76677 0.816 0.0
C399 C 0.79639 0.75849 0.74307 0.0
H400 H 0.73355 0.65944 0.75697 0.0
H401 H 0.68938 0.72602 0.69832 0.0
H402 H 0.78425 0.70581 0.79355 0.0
H403 H 0.7523 0.71046 0.8191 0.0
H404 H 0.76043 0.67326 0.80245 0.0
H405 H 0.69364 0.77903 0.70679 0.0
H406 H 0.7009 0.7908 0.74663 0.0
H407 H 0.73173 0.78855 0.71939 0.0
H408 H 0.73992 0.81061 0.84227 0.0
H409 H 0.81803 0.8021 0.78224 0.0
H410 H 0.70503 0.74207 0.82237 0.0
H411 H 0.68804 0.76939 0.79654 0.0
H412 H 0.69627 0.78011 0.83649 0.0
H413 H 0.80023 0.73364 0.74709 0.0
H414 H 0.81874 0.7696 0.73844 0.0
H415 H 0.78197 0.76067 0.72182 0.0
C416 C 0.72003 0.314 0.7403 0.0
C417 C 0.70359 0.30693 0.76753 0.0
C418 C 0.73183 0.29069 0.72111 0.0
C419 C 0.72784 0.25959 0.72986 0.0
C420 C 0.71062 0.2523 0.75694 0.0
C421 C 0.69833 0.27609 0.77525 0.0
C422 C 0.7493 0.29939 0.69193 0.0
C423 C 0.7064 0.21946 0.7674 0.0
C424 C 0.74288 0.1973 0.66929 0.0
C425 C 0.77337 0.18983 0.67553 0.0
C426 C 0.72769 0.21992 0.6868 0.0
C427 C 0.74316 0.23488 0.71161 0.0
C428 C 0.77371 0.22686 0.71851 0.0
C429 C 0.78857 0.20472 0.70013 0.0
C430 C 0.69538 0.22837 0.67825 0.0
C431 C 0.79079 0.24181 0.74521 0.0
H432 H 0.72393 0.33784 0.73416 0.0
H433 H 0.68585 0.27057 0.79644 0.0
H434 H 0.77363 0.2931 0.69473 0.0
H435 H 0.74042 0.28653 0.6714 0.0
H436 H 0.7479 0.32437 0.68687 0.0
H437 H 0.69113 0.21756 0.78808 0.0
H438 H 0.69681 0.20542 0.74807 0.0
H439 H 0.72887 0.20945 0.77355 0.0
H440 H 0.73111 0.18604 0.65011 0.0
H441 H 0.81207 0.19886 0.70518 0.0
H442 H 0.69436 0.25293 0.67141 0.0
H443 H 0.68018 0.22542 0.69879 0.0
H444 H 0.68642 0.21426 0.65859 0.0
H445 H 0.79339 0.26675 0.74063 0.0
H446 H 0.8138 0.23174 0.74862 0.0
H447 H 0.7777 0.23935 0.76732 0.0
C448 C 0.20865 0.29741 0.7069 0.0
C449 C 0.22305 0.31137 0.68128 0.0
C450 C 0.22397 0.27559 0.72525 0.0
C451 C 0.25413 0.26701 0.71729 0.0
C452 C 0.2689 0.28129 0.69166 0.0
C453 C 0.25329 0.30356 0.67416 0.0
C454 C 0.20768 0.26133 0.75282 0.0
C455 C 0.30078 0.27226 0.68203 0.0
C456 C 0.30049 0.22471 0.77888 0.0
C457 C 0.29445 0.19401 0.77111 0.0
C458 C 0.28794 0.24882 0.76125 0.0
C459 C 0.26954 0.24198 0.73489 0.0
C460 C 0.26462 0.21101 0.7261 0.0
C461 C 0.27683 0.1874 0.74455 0.0
C462 C 0.29326 0.28154 0.77165 0.0
C463 C 0.24578 0.20278 0.69767 0.0
H464 H 0.18536 0.30353 0.7126 0.0
H465 H 0.26442 0.31409 0.65418 0.0
H466 H 0.20413 0.23647 0.74847 0.0
H467 H 0.22179 0.2635 0.77429 0.0
H468 H 0.18516 0.27213 0.75725 0.0
H469 H 0.30949 0.28642 0.66232 0.0
H470 H 0.31663 0.27458 0.70214 0.0
H471 H 0.30104 0.24779 0.67477 0.0
H472 H 0.31389 0.2299 0.79956 0.0
H473 H 0.27231 0.16368 0.73835 0.0
H474 H 0.27128 0.29199 0.77883 0.0
H475 H 0.30232 0.29543 0.75197 0.0
H476 H 0.30941 0.28305 0.79164 0.0
H477 H 0.22177 0.2098 0.70147 0.0
H478 H 0.24625 0.17776 0.69257 0.0
H479 H 0.25423 0.21533 0.67678 0.0
C480 C 0.12405 0.92343 0.26052 0.0
C481 C 0.1454 0.92084 0.28478 0.0
C482 C 0.12286 0.94992 0.24185 0.0
C483 C 0.14323 0.97444 0.24796 0.0
C484 C 0.165 0.97181 0.27224 0.0
C485 C 0.16593 0.94496 0.29024 0.0
C486 C 0.09961 0.95183 0.21583 0.0
C487 C 0.1869 0.99761 0.27963 0.0
C488 C 0.15817 0.03367 0.18476 0.0
C489 C 0.13864 0.05754 0.19384 0.0
C490 C 0.15973 0.00637 0.20205 0.0
C491 C 0.14158 0.00308 0.22925 0.0
C492 C 0.12213 0.02727 0.23879 0.0
C493 C 0.12074 0.05418 0.22082 0.0
C494 C 0.18052 0.98093 0.19102 0.0
C495 C 0.10278 0.0247 0.26795 0.0
H496 H 0.10817 0.90482 0.2562 0.0
H497 H 0.18231 0.94322 0.30917 0.0
H498 H 0.08368 0.97108 0.22039 0.0
H499 H 0.11114 0.95665 0.19321 0.0
H500 H 0.08618 0.93033 0.21341 0.0
H501 H 0.20268 0.99174 0.29908 0.0
H502 H 0.20061 0.00335 0.25859 0.0
H503 H 0.17399 0.01854 0.28622 0.0
H504 H 0.17184 0.03602 0.16374 0.0
H505 H 0.10563 0.0726 0.22792 0.0
H506 H 0.16707 0.95977 0.18665 0.0
H507 H 0.19745 0.97544 0.20949 0.0
H508 H 0.19293 0.98706 0.16921 0.0
H509 H 0.08695 0.00494 0.26577 0.0
H510 H 0.08921 0.04578 0.27239 0.0
H511 H 0.11749 0.02031 0.28863 0.0
C512 C 0.87204 0.44339 0.22499 0.0
C513 C 0.85355 0.44022 0.19841 0.0
C514 C 0.87087 0.47007 0.24339 0.0
C515 C 0.85091 0.49417 0.23478 0.0
C516 C 0.8318 0.49087 0.2083 0.0
C517 C 0.83328 0.46386 0.19048 0.0
C518 C 0.89136 0.4727 0.2717 0.0
C519 C 0.81036 0.51616 0.19836 0.0
C520 C 0.83171 0.55327 0.29696 0.0
C521 C 0.85256 0.57674 0.29006 0.0
C522 C 0.83056 0.52644 0.27884 0.0
C523 C 0.85062 0.52313 0.25311 0.0
C524 C 0.87107 0.54714 0.24542 0.0
C525 C 0.87189 0.57364 0.2641 0.0
C526 C 0.80853 0.50126 0.28779 0.0
C527 C 0.89258 0.54452 0.21791 0.0
H528 H 0.8877 0.42516 0.23125 0.0
H529 H 0.81909 0.46165 0.16981 0.0
H530 H 0.90752 0.49205 0.26848 0.0
H531 H 0.87761 0.47778 0.29291 0.0
H532 H 0.90466 0.4514 0.27591 0.0
H533 H 0.79627 0.50954 0.1778 0.0
H534 H 0.79496 0.52236 0.21798 0.0
H535 H 0.8236 0.53704 0.19228 0.0
H536 H 0.81684 0.55542 0.31713 0.0
H537 H 0.888 0.59174 0.25862 0.0
H538 H 0.82137 0.48034 0.29453 0.0
H539 H 0.794 0.49508 0.26747 0.0
H540 H 0.79357 0.50798 0.30765 0.0
H541 H 0.90863 0.52522 0.22179 0.0
H542 H 0.906 0.56584 0.21417 0.0
H543 H 0.87963 0.53936 0.1962 0.0
C544 C 0.28434 0.18034 0.93543 0.0
C545 C 0.27225 0.15978 0.91332 0.0
C546 C 0.26982 0.18496 0.96442 0.0
C547 C 0.24308 0.16815 0.97154 0.0
C548 C 0.22934 0.14967 0.9482 0.0
C549 C 0.24395 0.14594 0.91931 0.0
C550 C 0.28441 0.20591 0.98828 0.0
C551 C 0.20082 0.13129 0.95477 0.0
C552 C 0.2335 0.13369 0.05191 0.0
C553 C 0.20779 0.14923 0.06333 0.0
C554 C 0.24606 0.14083 0.02273 0.0
C555 C 0.23299 0.16457 0.00455 0.0
C556 C 0.20835 0.18185 0.01674 0.0
C557 C 0.19574 0.17372 0.04591 0.0
C558 C 0.27221 0.12159 0.01059 0.0
C559 C 0.19443 0.20797 -0.00151 0.0
H560 H 0.30585 0.19171 0.93078 0.0
H561 H 0.23403 0.13047 0.9022 0.0
H562 H 0.26686 0.219 0.0014 0.0
H563 H 0.29735 0.19196 0.00547 0.0
H564 H 0.30046 0.22234 0.97711 0.0
H565 H 0.19119 0.12081 0.93318 0.0
H566 H 0.2062 0.11261 0.97156 0.0
H567 H 0.18314 0.14597 0.96569 0.0
H568 H 0.24321 0.11488 0.0652 0.0
H569 H 0.17614 0.18615 0.05472 0.0
H570 H 0.29157 0.13651 0.0037 0.0
H571 H 0.26487 0.10877 0.98939 0.0
H572 H 0.28049 0.10478 0.02821 0.0
H573 H 0.21219 0.22133 0.98596 0.0
H574 H 0.18141 0.22373 0.01399 0.0
H575 H 0.17851 0.19861 0.9807 0.0
C576 C 0.80011 0.32725 0.04606 0.0
C577 C 0.78867 0.35307 0.06188 0.0
C578 C 0.78857 0.31872 0.01656 0.0
C579 C 0.76565 0.3369 0.00242 0.0
C580 C 0.75342 0.36237 0.01877 0.0
C581 C 0.76488 0.36994 0.04833 0.0
C582 C 0.80164 0.29097 0.00019 0.0
C583 C 0.7291 0.38257 0.00447 0.0
C584 C 0.7567 0.35085 0.9161 0.0
C585 C 0.72765 0.33839 0.91075 0.0
C586 C 0.77097 0.34786 0.94527 0.0
C587 C 0.756 0.33165 0.96952 0.0
C588 C 0.72851 0.31585 0.9631 0.0
C589 C 0.71447 0.31958 0.93377 0.0
C590 C 0.80043 0.36491 0.95105 0.0
C591 C 0.71251 0.29733 0.98805 0.0
H592 H 0.81828 0.31389 0.05653 0.0
H593 H 0.75582 0.38988 0.06034 0.0
H594 H 0.78354 0.2778 0.98794 0.0
H595 H 0.81838 0.29853 0.98232 0.0
H596 H 0.8135 0.27547 0.01687 0.0
H597 H 0.72152 0.40104 0.02066 0.0
H598 H 0.73795 0.39342 0.98276 0.0
H599 H 0.70896 0.36859 -0.00213 0.0
H600 H 0.76748 0.36484 0.89826 0.0
H601 H 0.69234 0.30926 0.92966 0.0
H602 H 0.8169 0.35021 0.96378 0.0
H603 H 0.79583 0.38532 0.96592 0.0
H604 H 0.81117 0.37281 0.92889 0.0
H605 H 0.72915 0.284 0.00211 0.0
H606 H 0.69555 0.28127 0.97776 0.0
H607 H 0.70038 0.31309 0.00423 0.0
C608 C 0.26712 0.86421 0.54936 0.0
C609 C 0.29299 0.84888 0.56062 0.0
C610 C 0.25467 0.85707 0.52008 0.0
C611 C 0.26805 0.83357 0.50173 0.0
C612 C 0.29281 0.81648 0.51382 0.0
C613 C 0.30527 0.82458 0.54304 0.0
C614 C 0.22836 0.87606 0.50799 0.0
C615 C 0.30705 0.79064 0.49535 0.0
C616 C 0.21825 0.81592 0.43172 0.0
C617 C 0.2304 0.83629 0.40948 0.0
C618 C 0.23205 0.81235 0.4612 0.0
C619 C 0.25818 0.82996 0.46866 0.0
C620 C 0.27197 0.84847 0.44539 0.0
C621 C 0.25806 0.85118 0.41602 0.0
C622 C 0.21736 0.7915 0.48507 0.0
C623 C 0.29983 0.86771 0.45236 0.0
H624 H 0.25732 0.8829 0.56278 0.0
H625 H 0.325 0.81231 0.55177 0.0
H626 H 0.23575 0.88932 0.48711 0.0
H627 H 0.20933 0.86095 0.50058 0.0
H628 H 0.21964 0.89246 0.52582 0.0
H629 H 0.32132 0.77563 0.51042 0.0
H630 H 0.28929 0.77642 0.48383 0.0
H631 H 0.32175 0.80032 0.47666 0.0
H632 H 0.19719 0.80384 0.42671 0.0
H633 H 0.26797 0.8666 0.39888 0.0
H634 H 0.20394 0.80549 0.50186 0.0
H635 H 0.23488 0.77887 0.49867 0.0
H636 H 0.20176 0.77466 0.47386 0.0
H637 H 0.29365 0.88631 0.46899 0.0
H638 H 0.30951 0.87836 0.4309 0.0
H639 H 0.31775 0.85361 0.46364 0.0
C640 C 0.71981 0.68252 0.56368 0.0
C641 C 0.73076 0.65858 0.58258 0.0
C642 C 0.73316 0.68881 0.53447 0.0
C643 C 0.75754 0.67031 0.5238 0.0
C644 C 0.7703 0.64792 0.54391 0.0
C645 C 0.75691 0.64251 0.57316 0.0
C646 C 0.7197 0.71367 0.51413 0.0
C647 C 0.79628 0.62761 0.53342 0.0
C648 C 0.76087 0.64563 0.43919 0.0
C649 C 0.78759 0.66007 0.42872 0.0
C650 C 0.75004 0.65013 0.46965 0.0
C651 C 0.76599 0.67003 0.49013 0.0
C652 C 0.79166 0.6865 0.4791 0.0
C653 C 0.80239 0.6811 0.44853 0.0
C654 C 0.72258 0.63201 0.48047 0.0
C655 C 0.80869 0.70861 0.49997 0.0
H656 H 0.69999 0.69552 0.57105 0.0
H657 H 0.76584 0.62424 0.58773 0.0
H658 H 0.73787 0.72648 0.50162 0.0
H659 H 0.70469 0.7031 0.49619 0.0
H660 H 0.70589 0.73014 0.52806 0.0
H661 H 0.80568 0.61369 0.55296 0.0
H662 H 0.78811 0.61174 0.51485 0.0
H663 H 0.81495 0.64158 0.52325 0.0
H664 H 0.74901 0.6296 0.42405 0.0
H665 H 0.82282 0.69268 0.44053 0.0
H666 H 0.70516 0.6476 0.4905 0.0
H667 H 0.72945 0.61577 0.49922 0.0
H668 H 0.71193 0.61866 0.46116 0.0
H669 H 0.79266 0.72242 0.51433 0.0
H670 H 0.82338 0.72441 0.48619 0.0
H671 H 0.82346 0.69554 0.51629 0.0
C672 C 0.9364 0.28341 0.12375 0.0
C673 C 0.92799 0.29277 0.15402 0.0
C674 C 0.96052 0.26278 0.11907 0.0
C675 C 0.97646 0.25109 0.14529 0.0
C676 C 0.96782 0.26009 0.17592 0.0
C677 C 0.94373 0.28088 0.17991 0.0
C678 C 0.96913 0.25371 0.08606 0.0
C679 C 0.98413 0.24787 0.20447 0.0
C680 C 0.02013 0.17645 0.13707 0.0
C681 C 0.05035 0.18682 0.13498 0.0
C682 C 0.99587 0.19714 0.14007 0.0
C683 C 0.00192 0.22903 0.14079 0.0
C684 C 0.03228 0.23975 0.13799 0.0
C685 C 0.05619 0.21849 0.13522 0.0
C686 C 0.96381 0.18483 0.14313 0.0
C687 C 0.03953 0.27364 0.13843 0.0
H688 H 0.92442 0.29256 0.1036 0.0
H689 H 0.93736 0.28796 0.20338 0.0
H690 H 0.99322 0.25998 0.08143 0.0
H691 H 0.96722 0.22845 0.08322 0.0
H692 H 0.95451 0.26494 0.06819 0.0
H693 H 0.97448 0.257 0.22667 0.0
H694 H 0.98268 0.22243 0.20497 0.0
H695 H 0.00864 0.25402 0.20339 0.0
H696 H 0.01538 0.15202 0.13693 0.0
H697 H 0.07947 0.22667 0.13356 0.0
H698 H 0.94905 0.19473 0.12462 0.0
H699 H 0.95406 0.19178 0.16606 0.0
H700 H 0.9629 0.15939 0.14136 0.0
H701 H 0.0264 0.28564 0.1199 0.0
H702 H 0.06418 0.27825 0.13477 0.0
H703 H 0.03261 0.28369 0.16124 0.0
C704 C 0.96036 0.69581 0.40203 0.0
C705 C 0.93703 0.70279 0.38069 0.0
C706 C 0.98695 0.71366 0.40354 0.0
C707 C 0.9903 0.73906 0.38318 0.0
C708 C 0.96643 0.74684 0.36231 0.0
C709 C 0.94005 0.72863 0.36135 0.0
C710 C 0.01181 0.70481 0.42626 0.0
C711 C 0.96914 0.77387 0.34033 0.0
C712 C 0.04888 0.80118 0.39953 0.0
C713 C 0.07215 0.79344 0.37837 0.0
C714 C 0.02245 0.7832 0.402 0.0
C715 C 0.01919 0.7569 0.38282 0.0
C716 C 0.04305 0.74832 0.36225 0.0
C717 C 0.06929 0.76666 0.36032 0.0
C718 C 0.99759 0.79293 0.42439 0.0
C719 C 0.04042 0.72033 0.3415 0.0
H720 H 0.95817 0.67595 0.41717 0.0
H721 H 0.92212 0.73422 0.34484 0.0
H722 H 0.03251 0.69786 0.41312 0.0
H723 H 0.01814 0.72477 0.44107 0.0
H724 H 0.00491 0.68555 0.44178 0.0
H725 H 0.94804 0.7776 0.32646 0.0
H726 H 0.97422 0.79509 0.35375 0.0
H727 H 0.98836 0.77009 0.32387 0.0
H728 H 0.05095 0.82175 0.41369 0.0
H729 H 0.08716 0.7605 0.34395 0.0
H730 H 0.9912 0.77355 0.43993 0.0
H731 H 0.97692 0.79943 0.41099 0.0
H732 H 0.00453 0.81275 0.43919 0.0
H733 H 0.03521 0.69974 0.35582 0.0
H734 H 0.0616 0.71595 0.32794 0.0
H735 H 0.02132 0.72341 0.32476 0.0
C736 C 0.563 0.73085 0.67881 0.0
C737 C 0.57975 0.71766 0.65427 0.0
C738 C 0.53841 0.75049 0.67269 0.0
C739 C 0.53024 0.75692 0.64127 0.0
C740 C 0.54733 0.74406 0.61639 0.0
C741 C 0.57199 0.72469 0.62319 0.0
C742 C 0.52094 0.76411 0.69986 0.0
C743 C 0.53921 0.75034 0.5826 0.0
C744 C 0.4491 0.78452 0.62854 0.0
C745 C 0.45327 0.81638 0.62662 0.0
C746 C 0.47409 0.76475 0.63238 0.0
C747 C 0.50384 0.77721 0.63459 0.0
C748 C 0.50824 0.80926 0.63181 0.0
C749 C 0.48293 0.82843 0.62772 0.0
C750 C 0.46859 0.73061 0.63491 0.0
C751 C 0.5396 0.82342 0.63421 0.0
H752 H 0.56891 0.72561 0.70289 0.0
H753 H 0.58475 0.71448 0.60408 0.0
H754 H 0.52104 0.78954 0.69825 0.0
H755 H 0.49682 0.75654 0.69891 0.0
H756 H 0.53063 0.75735 0.7229 0.0
H757 H 0.55503 0.73887 0.56597 0.0
H758 H 0.5157 0.74223 0.57778 0.0
H759 H 0.53964 0.77541 0.57801 0.0
H760 H 0.42626 0.77504 0.6276 0.0
H761 H 0.4864 0.85303 0.62623 0.0
H762 H 0.47519 0.72252 0.65861 0.0
H763 H 0.48298 0.71812 0.61774 0.0
H764 H 0.44436 0.72443 0.63076 0.0
H765 H 0.54918 0.81907 0.65786 0.0
H766 H 0.53928 0.8486 0.6301 0.0
H767 H 0.55523 0.81267 0.61696 0.0
C768 C 0.82553 0.03201 0.68559 0.0
C769 C 0.84323 0.05885 0.68652 0.0
C770 C 0.82962 0.00855 0.70757 0.0
C771 C 0.85186 0.01199 0.73129 0.0
C772 C 0.87061 0.03848 0.73181 0.0
C773 C 0.86612 0.06163 0.70932 0.0
C774 C 0.80924 0.98059 0.70609 0.0
C775 C 0.89453 0.0429 0.75682 0.0
C776 C 0.83072 0.96926 0.80514 0.0
C777 C 0.84764 0.94209 0.80217 0.0
C778 C 0.83323 0.99287 0.78308 0.0
C779 C 0.853 0.98922 0.75718 0.0
C780 C 0.87115 0.96244 0.75463 0.0
C781 C 0.86834 0.93916 0.77729 0.0
C782 C 0.81363 0.02117 0.78681 0.0
C783 C 0.89246 0.95778 0.72727 0.0
H784 H 0.80808 0.02937 0.6678 0.0
H785 H 0.88001 0.08221 0.71011 0.0
H786 H 0.82312 0.95931 0.70652 0.0
H787 H 0.79411 0.9801 0.72692 0.0
H788 H 0.79479 0.9803 0.68471 0.0
H789 H 0.90942 0.06299 0.75197 0.0
H790 H 0.88328 0.04644 0.77984 0.0
H791 H 0.90896 0.02209 0.75887 0.0
H792 H 0.81504 0.97199 0.82459 0.0
H793 H 0.88161 0.9183 0.77493 0.0
H794 H 0.79639 0.0219 0.7678 0.0
H795 H 0.82774 0.04222 0.78479 0.0
H796 H 0.80153 0.02166 0.80968 0.0
H797 H 0.87896 0.95424 0.70558 0.0
H798 H 0.90757 0.93759 0.73063 0.0
H799 H 0.90678 0.97847 0.72363 0.0
C800 C 0.13944 0.56768 0.77112 0.0
C801 C 0.16348 0.56615 0.79276 0.0
C802 C 0.13399 0.54346 0.75002 0.0
C803 C 0.15295 0.51717 0.75076 0.0
C804 C 0.17643 0.51503 0.77336 0.0
C805 C 0.18144 0.53952 0.79397 0.0
C806 C 0.10876 0.5465 0.72619 0.0
C807 C 0.19709 0.48733 0.77503 0.0
C808 C 0.13513 0.44185 0.70961 0.0
C809 C 0.15468 0.44364 0.68366 0.0
C810 C 0.13299 0.46634 0.73102 0.0
C811 C 0.15065 0.49316 0.72611 0.0
C812 C 0.16906 0.49568 0.69903 0.0
C813 C 0.17091 0.4709 0.67824 0.0
C814 C 0.11309 0.46288 0.75965 0.0
C815 C 0.18809 0.52396 0.69278 0.0
H816 H 0.12534 0.58808 0.77014 0.0
H817 H 0.1998 0.53786 0.81088 0.0
H818 H 0.11876 0.54901 0.70244 0.0
H819 H 0.09442 0.52551 0.72595 0.0
H820 H 0.09399 0.56669 0.7309 0.0
H821 H 0.21268 0.4882 0.79553 0.0
H822 H 0.18339 0.46596 0.77646 0.0
H823 H 0.21107 0.48593 0.7534 0.0
H824 H 0.1224 0.42092 0.71385 0.0
H825 H 0.18567 0.47273 0.65794 0.0
H826 H 0.09895 0.48371 0.76315 0.0
H827 H 0.12768 0.46028 0.78072 0.0
H828 H 0.09786 0.44256 0.75798 0.0
H829 H 0.1739 0.54495 0.69463 0.0
H830 H 0.19887 0.52347 0.66922 0.0
H831 H 0.20637 0.52577 0.71066 0.0
C832 C 0.73159 0.83523 0.06412 0.0
C833 C 0.70128 0.82867 0.05646 0.0
C834 C 0.75474 0.83235 0.04174 0.0
C835 C 0.74715 0.82328 0.01086 0.0
C836 C 0.71684 0.81448 0.00367 0.0
C837 C 0.6942 0.81701 0.02679 0.0
C838 C 0.78688 0.84125 0.05058 0.0
C839 C 0.70783 0.80491 0.97094 0.0
C840 C 0.79318 0.86257 0.94772 0.0
C841 C 0.81282 0.83915 0.93779 0.0
C842 C 0.77142 0.85736 0.97103 0.0
C843 C 0.76956 0.82811 0.9853 0.0
C844 C 0.78958 0.80438 0.97579 0.0
C845 C 0.81099 0.81016 0.95199 0.0
C846 C 0.75049 0.88334 0.9805 0.0
C847 C 0.78843 0.77305 0.99084 0.0
H848 H 0.73713 0.8433 0.08744 0.0
H849 H 0.67069 0.8118 0.02105 0.0
H850 H 0.80348 0.82441 0.04116 0.0
H851 H 0.7924 0.86394 0.04021 0.0
H852 H 0.78988 0.84285 0.07639 0.0
H853 H 0.68471 0.7945 0.9703 0.0
H854 H 0.70793 0.82535 0.95542 0.0
H855 H 0.72442 0.78824 0.96121 0.0
H856 H 0.79483 0.8852 0.93737 0.0
H857 H 0.82618 0.79199 0.94444 0.0
H858 H 0.75432 0.88932 0.00548 0.0
H859 H 0.72635 0.87611 0.9781 0.0
H860 H 0.7541 0.9043 0.96614 0.0
H861 H 0.7926 0.77513 0.01641 0.0
H862 H 0.80554 0.75707 0.98073 0.0
H863 H 0.76543 0.76288 0.98786 0.0
C864 C 0.19714 0.68534 0.95154 0.0
C865 C 0.20661 0.67464 0.92218 0.0
C866 C 0.21772 0.68668 0.97672 0.0
C867 C 0.24837 0.67755 0.97201 0.0
C868 C 0.25848 0.66941 0.94162 0.0
C869 C 0.23736 0.66786 0.9171 0.0
C870 C 0.2061 0.69547 0.00879 0.0
C871 C 0.29108 0.66011 0.93544 0.0
C872 C 0.30866 0.68802 0.03514 0.0
C873 C 0.30945 0.65855 0.04838 0.0
C874 C 0.28842 0.69493 0.01061 0.0
C875 C 0.26859 0.67182 -0.00075 0.0
C876 C 0.26909 0.64219 0.01282 0.0
C877 C 0.28962 0.63589 0.03703 0.0
C878 C 0.28861 0.7267 -0.0035 0.0
C879 C 0.24831 0.61685 0.00135 0.0
H880 H 0.1733 0.69072 0.95531 0.0
H881 H 0.24483 0.66059 0.89409 0.0
H882 H 0.2044 0.67458 0.02357 0.0
H883 H 0.22214 0.71144 0.02055 0.0
H884 H 0.18326 0.70639 0.00766 0.0
H885 H 0.2962 0.65881 0.90996 0.0
H886 H 0.30711 0.67657 0.94652 0.0
H887 H 0.29538 0.63721 0.94592 0.0
H888 H 0.32394 0.70565 0.04382 0.0
H889 H 0.29036 0.61295 0.04676 0.0
H890 H 0.26532 0.73657 -0.00313 0.0
H891 H 0.2958 0.7254 0.9716 0.0
H892 H 0.30425 0.74254 0.0091 0.0
H893 H 0.22423 0.62455 0.00211 0.0
H894 H 0.25046 0.59558 0.01552 0.0
H895 H 0.25377 0.61124 0.9766 0.0
C896 C 0.73214 0.15678 0.4174 0.0
C897 C 0.7017 0.16525 0.42196 0.0
C898 C 0.75348 0.15946 0.44165 0.0
C899 C 0.74395 0.17052 0.47126 0.0
C900 C 0.71363 0.18086 0.47543 0.0
C901 C 0.69285 0.17833 0.45054 0.0
C902 C 0.78577 0.14878 0.43607 0.0
C903 C 0.70258 0.19259 0.50674 0.0
C904 C 0.78522 0.13541 0.54021 0.0
C905 C 0.80508 0.15905 0.54919 0.0
C906 C 0.76479 0.13925 0.51538 0.0
C907 C 0.7645 0.16729 0.49868 0.0
C908 C 0.78449 0.19132 0.50749 0.0
C909 C 0.80456 0.18694 0.53277 0.0
C910 C 0.74377 0.11305 0.50675 0.0
C911 C 0.78497 0.2214 0.48994 0.0
H912 H 0.73926 0.14766 0.39499 0.0
H913 H 0.6693 0.18505 0.45399 0.0
H914 H 0.80228 0.16598 0.44501 0.0
H915 H 0.78978 0.12708 0.44904 0.0
H916 H 0.79046 0.14462 0.41083 0.0
H917 H 0.67965 0.20327 0.50508 0.0
H918 H 0.70136 0.17323 0.52359 0.0
H919 H 0.71876 0.2097 0.51647 0.0
H920 H 0.7858 0.1136 0.55234 0.0
H921 H 0.81993 0.20528 0.53954 0.0
H922 H 0.74899 0.10494 0.48269 0.0
H923 H 0.71974 0.12097 0.50686 0.0
H924 H 0.74588 0.09329 0.52307 0.0
H925 H 0.79148 0.21733 0.46515 0.0
H926 H 0.80121 0.23812 0.50035 0.0
H927 H 0.76188 0.23176 0.48981 0.0
C928 C 0.22023 0.33649 0.55996 0.0
C929 C 0.18936 0.32908 0.55688 0.0
C930 C 0.24046 0.33246 0.53496 0.0
C931 C 0.2294 0.32083 0.50615 0.0
C932 C 0.19866 0.31115 0.50365 0.0
C933 C 0.17893 0.31526 0.52926 0.0
C934 C 0.27318 0.34259 0.53881 0.0
C935 C 0.18613 0.29847 0.47335 0.0
C936 C 0.27031 0.35449 0.4363 0.0
C937 C 0.29094 0.33114 0.4286 0.0
C938 C 0.24927 0.35077 0.46063 0.0
C939 C 0.24894 0.32303 0.47787 0.0
C940 C 0.26909 0.29895 0.46971 0.0
C941 C 0.28997 0.30332 0.44513 0.0
C942 C 0.2282 0.37706 0.46866 0.0
C943 C 0.26929 0.26905 0.48757 0.0
H944 H 0.22855 0.34598 0.58175 0.0
H945 H 0.15504 0.30926 0.52708 0.0
H946 H 0.28895 0.32464 0.53007 0.0
H947 H 0.27722 0.36361 0.52471 0.0
H948 H 0.27893 0.34772 0.56363 0.0
H949 H 0.1634 0.28767 0.47662 0.0
H950 H 0.18385 0.31736 0.45608 0.0
H951 H 0.20192 0.28124 0.46321 0.0
H952 H 0.27106 0.37615 0.42386 0.0
H953 H 0.30579 0.28513 0.4392 0.0
H954 H 0.23384 0.38605 0.49231 0.0
H955 H 0.20422 0.36899 0.46933 0.0
H956 H 0.2299 0.39624 0.4516 0.0
H957 H 0.27802 0.27306 0.51164 0.0
H958 H 0.28383 0.25145 0.47611 0.0
H959 H 0.24581 0.25985 0.48983 0.0
C960 C 0.0665 0.71936 0.80539 0.0
C961 C 0.06145 0.69108 0.82029 0.0
C962 C 0.0434 0.74161 0.80385 0.0
C963 C 0.01476 0.73549 0.81779 0.0
C964 C 0.00875 0.70602 0.83035 0.0
C965 C 0.03214 0.6841 0.8313 0.0
C966 C 0.05047 0.77249 0.78954 0.0
C967 C 0.97849 0.69849 0.84537 0.0
C968 C 0.97402 0.80002 0.8599 0.0
C969 C 0.94901 0.80549 0.84025 0.0
C970 C 0.99597 0.77793 0.85226 0.0
C971 C 0.9931 0.76103 0.82405 0.0
C972 C 0.96871 0.76739 0.80333 0.0
C973 C 0.94679 0.78947 0.81177 0.0
C974 C 0.02162 0.77187 0.87508 0.0
C975 C 0.96521 0.75019 0.77282 0.0
H976 H 0.08896 0.72479 0.79637 0.0
H977 H 0.02789 0.66219 0.84251 0.0
H978 H 0.03107 0.78074 0.77518 0.0
H979 H 0.05429 0.78952 0.8085 0.0
H980 H 0.07123 0.77169 0.77465 0.0
H981 H 0.97607 0.67356 0.8503 0.0
H982 H 0.9764 0.7112 0.86783 0.0
H983 H 0.95939 0.70581 0.83011 0.0
H984 H 0.97605 0.81236 0.88187 0.0
H985 H 0.9276 0.79367 0.79637 0.0
H986 H 0.04394 0.77436 0.86316 0.0
H987 H 0.02009 0.74794 0.88387 0.0
H988 H 0.02111 0.78771 0.89551 0.0
H989 H 0.98717 0.74957 0.75994 0.0
H990 H 0.94759 0.76065 0.75748 0.0
H991 H 0.95855 0.72608 0.77769 0.0
C992 C 0.0559 0.2879 0.67877 0.0
C993 C 0.04988 0.31574 0.6634 0.0
C994 C 0.03353 0.2649 0.68084 0.0
C995 C 0.00462 0.26982 0.66701 0.0
C996 C 0.9976 0.29888 0.65405 0.0
C997 C 0.02027 0.32154 0.65255 0.0
C998 C 0.04168 0.23448 0.69554 0.0
C999 C 0.967 0.30517 0.63918 0.0
C1000 C 0.96548 0.20355 0.62599 0.0
C1001 C 0.94071 0.19761 0.64585 0.0
C1002 C 0.98689 0.22633 0.63324 0.0
C1003 C 0.98373 0.24347 0.66127 0.0
C1004 C 0.95965 0.23663 0.68223 0.0
C1005 C 0.93827 0.21385 0.67419 0.0
C1006 C 0.01223 0.23287 0.61018 0.0
C1007 C 0.95584 0.25407 0.71256 0.0
H1008 H 0.07859 0.28334 0.68765 0.0
H1009 H 0.01525 0.34312 0.64101 0.0
H1010 H 0.02262 0.22573 0.7101 0.0
H1011 H 0.046 0.21735 0.67679 0.0
H1012 H 0.06246 0.23622 0.71032 0.0
H1013 H 0.96376 0.32993 0.63391 0.0
H1014 H 0.96515 0.29207 0.61693 0.0
H1015 H 0.94825 0.29743 0.6547 0.0
H1016 H 0.9677 0.19105 0.60414 0.0
H1017 H 0.91927 0.20928 0.68975 0.0
H1018 H 0.03468 0.23132 0.62201 0.0
H1019 H 0.00991 0.2566 0.60102 0.0
H1020 H 0.01212 0.21671 0.59002 0.0
H1021 H 0.97787 0.2556 0.72523 0.0
H1022 H 0.93869 0.2432 0.72818 0.0
H1023 H 0.94837 0.27787 0.70745 0.0
C1024 C 0.55475 0.21168 0.31309 0.0
C1025 C 0.55336 0.19098 0.33826 0.0
C1026 C 0.53167 0.23357 0.30842 0.0
C1027 C 0.50683 0.23487 0.32955 0.0
C1028 C 0.50459 0.21304 0.35402 0.0
C1029 C 0.5278 0.19132 0.35799 0.0
C1030 C 0.53458 0.25615 0.28177 0.0
C1031 C 0.47845 0.21361 0.37707 0.0
C1032 C 0.46671 0.30943 0.3488 0.0
C1033 C 0.43817 0.30495 0.33473 0.0
C1034 C 0.48989 0.28748 0.34583 0.0
C1035 C 0.4845 0.2605 0.32813 0.0
C1036 C 0.45651 0.25684 0.31207 0.0
C1037 C 0.43359 0.27908 0.31565 0.0
C1038 C 0.51946 0.29231 0.36329 0.0
C1039 C 0.45011 0.22863 0.29255 0.0
H1040 H 0.57432 0.21145 0.2976 0.0
H1041 H 0.5264 0.17529 0.37737 0.0
H1042 H 0.51274 0.25802 0.26881 0.0
H1043 H 0.53995 0.27925 0.29127 0.0
H1044 H 0.55285 0.24954 0.26505 0.0
H1045 H 0.47908 0.19388 0.39355 0.0
H1046 H 0.47928 0.23518 0.39092 0.0
H1047 H 0.45636 0.21324 0.36444 0.0
H1048 H 0.47057 0.32945 0.36337 0.0
H1049 H 0.4117 0.27556 0.30444 0.0
H1050 H 0.53916 0.28886 0.34739 0.0
H1051 H 0.52136 0.27513 0.38239 0.0
H1052 H 0.52107 0.31562 0.37374 0.0
H1053 H 0.46971 0.2234 0.27702 0.0
H1054 H 0.42934 0.23135 0.27793 0.0
H1055 H 0.4468 0.20857 0.30821 0.0
C1056 C 0.66441 0.54359 0.69536 0.0
C1057 C 0.64512 0.56814 0.70296 0.0
C1058 C 0.66343 0.51609 0.71232 0.0
C1059 C 0.64302 0.51328 0.73782 0.0
C1060 C 0.62371 0.53811 0.74586 0.0
C1061 C 0.6248 0.56522 0.72812 0.0
C1062 C 0.68412 0.48997 0.70283 0.0
C1063 C 0.60206 0.53608 0.77329 0.0
C1064 C 0.62248 0.43335 0.76647 0.0
C1065 C 0.64273 0.42982 0.79159 0.0
C1066 C 0.62234 0.46043 0.74862 0.0
C1067 C 0.64255 0.4846 0.75654 0.0
C1068 C 0.66287 0.48119 0.78202 0.0
C1069 C 0.66287 0.45374 0.79907 0.0
C1070 C 0.60074 0.46312 0.72123 0.0
C1071 C 0.68448 0.50661 0.79141 0.0
H1072 H 0.67993 0.5456 0.6757 0.0
H1073 H 0.60987 0.58418 0.73405 0.0
H1074 H 0.69972 0.48417 0.7224 0.0
H1075 H 0.67038 0.46915 0.69771 0.0
H1076 H 0.69804 0.49557 0.68184 0.0
H1077 H 0.58868 0.5575 0.77655 0.0
H1078 H 0.586 0.51669 0.76985 0.0
H1079 H 0.61499 0.53143 0.79513 0.0
H1080 H 0.6069 0.41489 0.76063 0.0
H1081 H 0.67834 0.45127 0.81872 0.0
H1082 H 0.61379 0.46733 0.69937 0.0
H1083 H 0.58534 0.48304 0.72467 0.0
H1084 H 0.58664 0.44215 0.71804 0.0
H1085 H 0.70021 0.51187 0.77178 0.0
H1086 H 0.69825 0.50057 0.81236 0.0
H1087 H 0.67148 0.52788 0.79655 0.0
C1088 C 0.37685 0.07053 0.76391 0.0
C1089 C 0.35608 0.07245 0.78878 0.0
C1090 C 0.37759 0.04459 0.74442 0.0
C1091 C 0.35736 0.01992 0.75028 0.0
C1092 C 0.33616 0.02186 0.77517 0.0
C1093 C 0.33566 0.04822 0.79404 0.0
C1094 C 0.40023 0.04346 0.71777 0.0
C1095 C 0.31445 0.99585 0.78229 0.0
C1096 C 0.34221 0.96313 0.68475 0.0
C1097 C 0.36243 0.93934 0.69226 0.0
C1098 C 0.34023 0.98949 0.70351 0.0
C1099 C 0.35867 0.99187 0.73059 0.0
C1100 C 0.37867 0.96764 0.73867 0.0
C1101 C 0.38045 0.9417 0.71926 0.0
C1102 C 0.31887 0.01502 0.69402 0.0
C1103 C 0.39837 0.96925 0.76765 0.0
H1104 H 0.39262 0.08925 0.75973 0.0
H1105 H 0.31972 0.04948 0.81341 0.0
H1106 H 0.41626 0.02409 0.72131 0.0
H1107 H 0.38818 0.03931 0.6953 0.0
H1108 H 0.41362 0.06502 0.7157 0.0
H1109 H 0.29908 0.00118 0.80225 0.0
H1110 H 0.30032 0.99063 0.76139 0.0
H1111 H 0.32752 0.97478 0.78797 0.0
H1112 H 0.32839 0.96153 0.66375 0.0
H1113 H 0.39605 0.92331 0.72519 0.0
H1114 H 0.33203 0.03639 0.68979 0.0
H1115 H 0.30253 0.01989 0.71322 0.0
H1116 H 0.30579 0.00938 0.67247 0.0
H1117 H 0.41427 0.98898 0.76588 0.0
H1118 H 0.41191 0.94799 0.7712 0.0
H1119 H 0.38397 0.97309 0.78867 0.0
C1120 C 0.43688 0.22491 0.86012 0.0
C1121 C 0.43911 0.19318 0.86509 0.0
C1122 C 0.46318 0.24316 0.85738 0.0
C1123 C 0.49229 0.22925 0.85935 0.0
C1124 C 0.49464 0.19743 0.86546 0.0
C1125 C 0.46805 0.17984 0.86843 0.0
C1126 C 0.45981 0.27714 0.85132 0.0
C1127 C 0.52525 0.1817 0.86753 0.0
C1128 C 0.55725 0.26835 0.81625 0.0
C1129 C 0.57281 0.28295 0.84078 0.0
C1130 C 0.53122 0.25053 0.82206 0.0
C1131 C 0.52027 0.24753 0.85313 0.0
C1132 C 0.53612 0.26183 0.87809 0.0
C1133 C 0.56234 0.27922 0.87164 0.0
C1134 C 0.51523 0.23519 0.79488 0.0
C1135 C 0.52501 0.25929 0.91148 0.0
H1136 H 0.41462 0.2354 0.85765 0.0
H1137 H 0.47004 0.15533 0.87233 0.0
H1138 H 0.47363 0.29045 0.86836 0.0
H1139 H 0.46849 0.28266 0.82756 0.0
H1140 H 0.43573 0.28482 0.85295 0.0
H1141 H 0.52319 0.15715 0.87424 0.0
H1142 H 0.53696 0.18306 0.84451 0.0
H1143 H 0.53999 0.19348 0.8849 0.0
H1144 H 0.56527 0.27105 0.79237 0.0
H1145 H 0.57413 0.2906 0.89071 0.0
H1146 H 0.4916 0.24401 0.79289 0.0
H1147 H 0.51369 0.21008 0.79898 0.0
H1148 H 0.52711 0.23915 0.77224 0.0
H1149 H 0.50175 0.26908 0.9134 0.0
H1150 H 0.54016 0.27145 0.92827 0.0
H1151 H 0.5235 0.23481 0.91848 0.0
C1152 C 0.32735 0.52217 0.17589 0.0
C1153 C 0.34449 0.54917 0.17946 0.0
C1154 C 0.32961 0.4981 0.19746 0.0
C1155 C 0.34938 0.50109 0.22347 0.0
C1156 C 0.3679 0.52759 0.22647 0.0
C1157 C 0.3653 0.55135 0.20432 0.0
C1158 C 0.3096 0.47014 0.19326 0.0
C1159 C 0.38925 0.53155 0.25391 0.0
C1160 C 0.3201 0.45862 0.2945 0.0
C1161 C 0.33704 0.43131 0.29359 0.0
C1162 C 0.32508 0.4821 0.27275 0.0
C1163 C 0.34748 0.47822 0.24924 0.0
C1164 C 0.36556 0.45129 0.24883 0.0
C1165 C 0.3602 0.42811 0.27114 0.0
C1166 C 0.30541 0.51055 0.27418 0.0
C1167 C 0.38965 0.44641 0.22408 0.0
H1168 H 0.31158 0.52 0.15645 0.0
H1169 H 0.37876 0.57205 0.20714 0.0
H1170 H 0.32329 0.44885 0.19534 0.0
H1171 H 0.29208 0.4696 0.21202 0.0
H1172 H 0.29781 0.47 0.17022 0.0
H1173 H 0.40501 0.55126 0.25061 0.0
H1174 H 0.37578 0.53554 0.27554 0.0
H1175 H 0.40288 0.51042 0.25762 0.0
H1176 H 0.3025 0.46159 0.31208 0.0
H1177 H 0.37349 0.40716 0.27038 0.0
H1178 H 0.29051 0.51151 0.25319 0.0
H1179 H 0.31983 0.53148 0.27402 0.0
H1180 H 0.29075 0.51107 0.2954 0.0
H1181 H 0.37856 0.44292 0.20098 0.0
H1182 H 0.40415 0.42611 0.22918 0.0
H1183 H 0.40443 0.46699 0.22207 0.0
C1184 C 0.62975 0.06377 0.26791 0.0
C1185 C 0.65458 0.06198 0.28857 0.0
C1186 C 0.62391 0.04006 0.24625 0.0
C1187 C 0.64331 0.01408 0.24541 0.0
C1188 C 0.66753 0.01163 0.26714 0.0
C1189 C 0.67287 0.03556 0.28832 0.0
C1190 C 0.59783 0.04339 0.22347 0.0
C1191 C 0.68873 0.98428 0.26719 0.0
C1192 C 0.62875 0.9387 0.20329 0.0
C1193 C 0.64859 0.94164 0.17771 0.0
C1194 C 0.62481 0.96309 0.22458 0.0
C1195 C 0.64096 0.99092 0.2199 0.0
C1196 C 0.65903 0.99471 0.19273 0.0
C1197 C 0.6627 0.97003 0.17208 0.0
C1198 C 0.60514 0.95829 0.25316 0.0
C1199 C 0.67643 0.02406 0.18662 0.0
H1200 H 0.61537 0.08399 0.26807 0.0
H1201 H 0.69181 0.03363 0.3045 0.0
H1202 H 0.60696 0.04793 0.19967 0.0
H1203 H 0.58442 0.02182 0.2222 0.0
H1204 H 0.58236 0.06254 0.23001 0.0
H1205 H 0.70499 0.98482 0.28714 0.0
H1206 H 0.67547 0.96262 0.26841 0.0
H1207 H 0.70201 0.98382 0.24505 0.0
H1208 H 0.6176 0.91689 0.20762 0.0
H1209 H 0.67755 0.9727 0.15195 0.0
H1210 H 0.59094 0.97885 0.25784 0.0
H1211 H 0.61993 0.95467 0.27393 0.0
H1212 H 0.59 0.93798 0.25058 0.0
H1213 H 0.66141 0.04431 0.18972 0.0
H1214 H 0.68627 0.02472 0.16263 0.0
H1215 H 0.69533 0.02616 0.20377 0.0
C1216 C 0.52942 0.79609 0.1204 0.0
C1217 C 0.55421 0.80116 0.14047 0.0
C1218 C 0.50797 0.77307 0.12669 0.0
C1219 C 0.51119 0.75476 0.1539 0.0
C1220 C 0.53513 0.7609 0.17525 0.0
C1221 C 0.55648 0.78399 0.16822 0.0
C1222 C 0.48272 0.76733 0.10331 0.0
C1223 C 0.539 0.74221 0.20475 0.0
C1224 C 0.44066 0.70702 0.16995 0.0
C1225 C 0.44766 0.67991 0.15363 0.0
C1226 C 0.46205 0.73092 0.17243 0.0
C1227 C 0.49097 0.72764 0.15811 0.0
C1228 C 0.49896 0.69938 0.14389 0.0
C1229 C 0.47725 0.67582 0.14195 0.0
C1230 C 0.45289 0.76045 0.18838 0.0
C1231 C 0.52962 0.69484 0.12848 0.0
H1232 H 0.52732 0.80938 0.09904 0.0
H1233 H 0.57547 0.78788 0.18397 0.0
H1234 H 0.48564 0.7443 0.09259 0.0
H1235 H 0.46027 0.76754 0.11526 0.0
H1236 H 0.48238 0.78472 0.08427 0.0
H1237 H 0.55578 0.75273 0.22105 0.0
H1238 H 0.5169 0.73964 0.21711 0.0
H1239 H 0.54704 0.71884 0.19856 0.0
H1240 H 0.41795 0.71028 0.17938 0.0
H1241 H 0.48301 0.65483 0.12964 0.0
H1242 H 0.44806 0.77816 0.17037 0.0
H1243 H 0.47165 0.76925 0.20333 0.0
H1244 H 0.43217 0.75749 0.20304 0.0
H1245 H 0.53105 0.70937 0.10716 0.0
H1246 H 0.53352 0.67057 0.12154 0.0
H1247 H 0.54823 0.70209 0.14444 0.0
loop_
_geom_bond_atom_site_label_1
_geom_bond_atom_site_label_2
_geom_bond_distance
_geom_bond_site_symmetry_2
_ccdc_geom_bond_type
Mg0 O1 2.028 . S
Mg0 O7 1.986 . S
Mg0 O9 2.114 . S
Mg0 O10 2.251 . S
Mg0 O13 2.010 . S
O1 Mg0 2.028 . S
O1 C4 1.250 . S
O2 Mg3 2.028 . S
O2 C4 1.248 . S
Mg3 O2 2.028 . S
Mg3 O8 2.032 . S
Mg3 O10 2.079 . S
C4 O1 1.250 . S
C4 O2 1.248 . S
C5 O6 1.264 . S
C5 O13 1.249 . S
O6 C5 1.264 . S
O7 Mg0 1.986 . S
O7 C11 1.246 . S
O8 Mg3 2.032 . S
O8 C11 1.259 . S
O9 Mg0 2.114 . S
O9 C12 1.252 . S
O10 Mg0 2.251 . S
O10 Mg3 2.079 . S
O10 C12 1.273 . S
C11 O7 1.246 . S
C11 O8 1.259 . S
C12 O9 1.252 . S
C12 O10 1.273 . S
O13 Mg0 2.010 . S
O13 C5 1.249 . S
Mg14 O15 2.028 . S
Mg14 O21 1.986 . S
Mg14 O23 2.114 . S
Mg14 O24 2.251 . S
Mg14 O27 2.010 . S
O15 Mg14 2.028 . S
O15 C18 1.250 . S
O16 Mg17 2.028 . S
O16 C18 1.248 . S
Mg17 O16 2.028 . S
Mg17 O22 2.032 . S
Mg17 O24 2.079 . S
C18 O15 1.250 . S
C18 O16 1.248 . S
C19 O20 1.264 . S
C19 O27 1.249 . S
O20 C19 1.264 . S
O21 Mg14 1.986 . S
O21 C25 1.246 . S
O22 Mg17 2.032 . S
O22 C25 1.259 . S
O23 Mg14 2.114 . S
O23 C26 1.252 . S
O24 Mg14 2.251 . S
O24 Mg17 2.079 . S
O24 C26 1.273 . S
C25 O21 1.246 . S
C25 O22 1.259 . S
C26 O23 1.252 . S
C26 O24 1.273 . S
O27 Mg14 2.010 . S
O27 C19 1.249 . S
Mg28 O29 2.028 . S
Mg28 O35 1.986 . S
Mg28 O37 2.114 . S
Mg28 O38 2.251 . S
Mg28 O41 2.010 . S
O29 Mg28 2.028 . S
O29 C32 1.250 . S
O30 Mg31 2.028 . S
O30 C32 1.248 . S
Mg31 O30 2.028 . S
Mg31 O36 2.032 . S
Mg31 O38 2.079 . S
C32 O29 1.250 . S
C32 O30 1.248 . S
C33 O34 1.264 . S
C33 O41 1.249 . S
O34 C33 1.264 . S
O35 Mg28 1.986 . S
O35 C39 1.246 . S
O36 Mg31 2.032 . S
O36 C39 1.259 . S
O37 Mg28 2.114 . S
O37 C40 1.252 . S
O38 Mg28 2.251 . S
O38 Mg31 2.079 . S
O38 C40 1.273 . S
C39 O35 1.246 . S
C39 O36 1.259 . S
C40 O37 1.252 . S
C40 O38 1.273 . S
O41 Mg28 2.010 . S
O41 C33 1.249 . S
Mg42 O43 2.028 . S
Mg42 O49 1.986 . S
Mg42 O51 2.114 . S
Mg42 O52 2.251 . S
Mg42 O55 2.010 . S
O43 Mg42 2.028 . S
O43 C46 1.250 . S
O44 Mg45 2.028 . S
O44 C46 1.248 . S
Mg45 O44 2.028 . S
Mg45 O50 2.032 . S
Mg45 O52 2.079 . S
C46 O43 1.250 . S
C46 O44 1.248 . S
C47 O48 1.264 . S
C47 O55 1.249 . S
O48 C47 1.264 . S
O49 Mg42 1.986 . S
O49 C53 1.246 . S
O50 Mg45 2.032 . S
O50 C53 1.259 . S
O51 Mg42 2.114 . S
O51 C54 1.252 . S
O52 Mg42 2.251 . S
O52 Mg45 2.079 . S
O52 C54 1.273 . S
C53 O49 1.246 . S
C53 O50 1.259 . S
C54 O51 1.252 . S
C54 O52 1.273 . S
O55 Mg42 2.010 . S
O55 C47 1.249 . S
Mg56 O57 2.028 . S
Mg56 O63 1.986 . S
Mg56 O65 2.114 . S
Mg56 O66 2.251 . S
Mg56 O69 2.010 . S
O57 Mg56 2.028 . S
O57 C60 1.250 . S
O58 Mg59 2.028 . S
O58 C60 1.248 . S
Mg59 O58 2.028 . S
Mg59 O64 2.032 . S
Mg59 O66 2.079 . S
C60 O57 1.250 . S
C60 O58 1.248 . S
C61 O62 1.264 . S
C61 O69 1.249 . S
O62 C61 1.264 . S
O63 Mg56 1.986 . S
O63 C67 1.246 . S
O64 Mg59 2.032 . S
O64 C67 1.259 . S
O65 Mg56 2.114 . S
O65 C68 1.252 . S
O66 Mg56 2.251 . S
O66 Mg59 2.079 . S
O66 C68 1.273 . S
C67 O63 1.246 . S
C67 O64 1.259 . S
C68 O65 1.252 . S
C68 O66 1.273 . S
O69 Mg56 2.010 . S
O69 C61 1.249 . S
Mg70 O71 2.028 . S
Mg70 O77 1.986 . S
Mg70 O79 2.114 . S
Mg70 O80 2.251 . S
Mg70 O83 2.010 . S
O71 Mg70 2.028 . S
O71 C74 1.250 . S
O72 Mg73 2.028 . S
O72 C74 1.248 . S
Mg73 O72 2.028 . S
Mg73 O78 2.032 . S
Mg73 O80 2.079 . S
C74 O71 1.250 . S
C74 O72 1.248 . S
C75 O76 1.264 . S
C75 O83 1.249 . S
O76 C75 1.264 . S
O77 Mg70 1.986 . S
O77 C81 1.246 . S
O78 Mg73 2.032 . S
O78 C81 1.259 . S
O79 Mg70 2.114 . S
O79 C82 1.252 . S
O80 Mg70 2.251 . S
O80 Mg73 2.079 . S
O80 C82 1.273 . S
C81 O77 1.246 . S
C81 O78 1.259 . S
C82 O79 1.252 . S
C82 O80 1.273 . S
O83 Mg70 2.010 . S
O83 C75 1.249 . S
Mg84 O85 2.028 . S
Mg84 O91 1.986 . S
Mg84 O93 2.114 . S
Mg84 O94 2.251 . S
Mg84 O97 2.010 . S
O85 Mg84 2.028 . S
O85 C88 1.250 . S
O86 Mg87 2.028 . S
O86 C88 1.248 . S
Mg87 O86 2.028 . S
Mg87 O92 2.032 . S
Mg87 O94 2.079 . S
C88 O85 1.250 . S
C88 O86 1.248 . S
C89 O90 1.264 . S
C89 O97 1.249 . S
O90 C89 1.264 . S
O91 Mg84 1.986 . S
O91 C95 1.246 . S
O92 Mg87 2.032 . S
O92 C95 1.259 . S
O93 Mg84 2.114 . S
O93 C96 1.252 . S
O94 Mg84 2.251 . S
O94 Mg87 2.079 . S
O94 C96 1.273 . S
C95 O91 1.246 . S
C95 O92 1.259 . S
C96 O93 1.252 . S
C96 O94 1.273 . S
O97 Mg84 2.010 . S
O97 C89 1.249 . S
Mg98 O99 2.028 . S
Mg98 O105 1.986 . S
Mg98 O107 2.114 . S
Mg98 O108 2.251 . S
Mg98 O111 2.010 . S
O99 Mg98 2.028 . S
O99 C102 1.250 . S
O100 Mg101 2.028 . S
O100 C102 1.248 . S
Mg101 O100 2.028 . S
Mg101 O106 2.032 . S
Mg101 O108 2.079 . S
C102 O99 1.250 . S
C102 O100 1.248 . S
C103 O104 1.264 . S
C103 O111 1.249 . S
O104 C103 1.264 . S
O105 Mg98 1.986 . S
O105 C109 1.246 . S
O106 Mg101 2.032 . S
O106 C109 1.259 . S
O107 Mg98 2.114 . S
O107 C110 1.252 . S
O108 Mg98 2.251 . S
O108 Mg101 2.079 . S
O108 C110 1.273 . S
C109 O105 1.246 . S
C109 O106 1.259 . S
C110 O107 1.252 . S
C110 O108 1.273 . S
O111 Mg98 2.010 . S
O111 C103 1.249 . S
Mg112 O113 2.028 . S
Mg112 O119 1.986 . S
Mg112 O121 2.114 . S
Mg112 O122 2.251 . S
Mg112 O125 2.010 . S
O113 Mg112 2.028 . S
O113 C116 1.250 . S
O114 Mg115 2.028 . S
O114 C116 1.248 . S
Mg115 O114 2.028 . S
Mg115 O120 2.032 . S
Mg115 O122 2.079 . S
C116 O113 1.250 . S
C116 O114 1.248 . S
C117 O118 1.264 . S
C117 O125 1.249 . S
O118 C117 1.264 . S
O119 Mg112 1.986 . S
O119 C123 1.246 . S
O120 Mg115 2.032 . S
O120 C123 1.259 . S
O121 Mg112 2.114 . S
O121 C124 1.252 . S
O122 Mg112 2.251 . S
O122 Mg115 2.079 . S
O122 C124 1.273 . S
C123 O119 1.246 . S
C123 O120 1.259 . S
C124 O121 1.252 . S
C124 O122 1.273 . S
O125 Mg112 2.010 . S
O125 C117 1.249 . S
Mg126 O127 2.028 . S
Mg126 O133 1.986 . S
Mg126 O135 2.114 . S
Mg126 O136 2.251 . S
Mg126 O139 2.010 . S
O127 Mg126 2.028 . S
O127 C130 1.250 . S
O128 Mg129 2.028 . S
O128 C130 1.248 . S
Mg129 O128 2.028 . S
Mg129 O134 2.032 . S
Mg129 O136 2.079 . S
C130 O127 1.250 . S
C130 O128 1.248 . S
C131 O132 1.264 . S
C131 O139 1.249 . S
O132 C131 1.264 . S
O133 Mg126 1.986 . S
O133 C137 1.246 . S
O134 Mg129 2.032 . S
O134 C137 1.259 . S
O135 Mg126 2.114 . S
O135 C138 1.252 . S
O136 Mg126 2.251 . S
O136 Mg129 2.079 . S
O136 C138 1.273 . S
C137 O133 1.246 . S
C137 O134 1.259 . S
C138 O135 1.252 . S
C138 O136 1.273 . S
O139 Mg126 2.010 . S
O139 C131 1.249 . S
Mg140 O141 2.028 . S
Mg140 O147 1.986 . S
Mg140 O149 2.114 . S
Mg140 O150 2.251 . S
Mg140 O153 2.010 . S
O141 Mg140 2.028 . S
O141 C144 1.250 . S
O142 Mg143 2.028 . S
O142 C144 1.248 . S
Mg143 O142 2.028 . S
Mg143 O148 2.032 . S
Mg143 O150 2.079 . S
C144 O141 1.250 . S
C144 O142 1.248 . S
C145 O146 1.264 . S
C145 O153 1.249 . S
O146 C145 1.264 . S
O147 Mg140 1.986 . S
O147 C151 1.246 . S
O148 Mg143 2.032 . S
O148 C151 1.259 . S
O149 Mg140 2.114 . S
O149 C152 1.252 . S
O150 Mg140 2.251 . S
O150 Mg143 2.079 . S
O150 C152 1.273 . S
C151 O147 1.246 . S
C151 O148 1.259 . S
C152 O149 1.252 . S
C152 O150 1.273 . S
O153 Mg140 2.010 . S
O153 C145 1.249 . S
Mg154 O155 2.028 . S
Mg154 O161 1.986 . S
Mg154 O163 2.114 . S
Mg154 O164 2.251 . S
Mg154 O167 2.010 . S
O155 Mg154 2.028 . S
O155 C158 1.250 . S
O156 Mg157 2.028 . S
O156 C158 1.248 . S
Mg157 O156 2.028 . S
Mg157 O162 2.032 . S
Mg157 O164 2.079 . S
C158 O155 1.250 . S
C158 O156 1.248 . S
C159 O160 1.264 . S
C159 O167 1.249 . S
O160 C159 1.264 . S
O161 Mg154 1.986 . S
O161 C165 1.246 . S
O162 Mg157 2.032 . S
O162 C165 1.259 . S
O163 Mg154 2.114 . S
O163 C166 1.252 . S
O164 Mg154 2.251 . S
O164 Mg157 2.079 . S
O164 C166 1.273 . S
C165 O161 1.246 . S
C165 O162 1.259 . S
C166 O163 1.252 . S
C166 O164 1.273 . S
O167 Mg154 2.010 . S
O167 C159 1.249 . S
Mg168 O169 2.028 . S
Mg168 O175 1.986 . S
Mg168 O177 2.114 . S
Mg168 O178 2.251 . S
Mg168 O181 2.010 . S
O169 Mg168 2.028 . S
O169 C172 1.250 . S
O170 Mg171 2.028 . S
O170 C172 1.248 . S
Mg171 O170 2.028 . S
Mg171 O176 2.032 . S
Mg171 O178 2.079 . S
C172 O169 1.250 . S
C172 O170 1.248 . S
C173 O174 1.264 . S
C173 O181 1.249 . S
O174 C173 1.264 . S
O175 Mg168 1.986 . S
O175 C179 1.246 . S
O176 Mg171 2.032 . S
O176 C179 1.259 . S
O177 Mg168 2.114 . S
O177 C180 1.252 . S
O178 Mg168 2.251 . S
O178 Mg171 2.079 . S
O178 C180 1.273 . S
C179 O175 1.246 . S
C179 O176 1.259 . S
C180 O177 1.252 . S
C180 O178 1.273 . S
O181 Mg168 2.010 . S
O181 C173 1.249 . S
Mg182 O183 2.028 . S
Mg182 O189 1.986 . S
Mg182 O191 2.114 . S
Mg182 O192 2.251 . S
Mg182 O195 2.010 . S
O183 Mg182 2.028 . S
O183 C186 1.250 . S
O184 Mg185 2.028 . S
O184 C186 1.248 . S
Mg185 O184 2.028 . S
Mg185 O190 2.032 . S
Mg185 O192 2.079 . S
C186 O183 1.250 . S
C186 O184 1.248 . S
C187 O188 1.264 . S
C187 O195 1.249 . S
O188 C187 1.264 . S
O189 Mg182 1.986 . S
O189 C193 1.246 . S
O190 Mg185 2.032 . S
O190 C193 1.259 . S
O191 Mg182 2.114 . S
O191 C194 1.252 . S
O192 Mg182 2.251 . S
O192 Mg185 2.079 . S
O192 C194 1.273 . S
C193 O189 1.246 . S
C193 O190 1.259 . S
C194 O191 1.252 . S
C194 O192 1.273 . S
O195 Mg182 2.010 . S
O195 C187 1.249 . S
Mg196 O197 2.028 . S
Mg196 O203 1.986 . S
Mg196 O205 2.114 . S
Mg196 O206 2.251 . S
Mg196 O209 2.010 . S
O197 Mg196 2.028 . S
O197 C200 1.250 . S
O198 Mg199 2.028 . S
O198 C200 1.248 . S
Mg199 O198 2.028 . S
Mg199 O204 2.032 . S
Mg199 O206 2.079 . S
C200 O197 1.250 . S
C200 O198 1.248 . S
C201 O202 1.264 . S
C201 O209 1.249 . S
O202 C201 1.264 . S
O203 Mg196 1.986 . S
O203 C207 1.246 . S
O204 Mg199 2.032 . S
O204 C207 1.259 . S
O205 Mg196 2.114 . S
O205 C208 1.252 . S
O206 Mg196 2.251 . S
O206 Mg199 2.079 . S
O206 C208 1.273 . S
C207 O203 1.246 . S
C207 O204 1.259 . S
C208 O205 1.252 . S
C208 O206 1.273 . S
O209 Mg196 2.010 . S
O209 C201 1.249 . S
Mg210 O211 2.028 . S
Mg210 O217 1.986 . S
Mg210 O219 2.114 . S
Mg210 O220 2.251 . S
Mg210 O223 2.010 . S
O211 Mg210 2.028 . S
O211 C214 1.250 . S
O212 Mg213 2.028 . S
O212 C214 1.248 . S
Mg213 O212 2.028 . S
Mg213 O218 2.032 . S
Mg213 O220 2.079 . S
C214 O211 1.250 . S
C214 O212 1.248 . S
C215 O216 1.264 . S
C215 O223 1.249 . S
O216 C215 1.264 . S
O217 Mg210 1.986 . S
O217 C221 1.246 . S
O218 Mg213 2.032 . S
O218 C221 1.259 . S
O219 Mg210 2.114 . S
O219 C222 1.252 . S
O220 Mg210 2.251 . S
O220 Mg213 2.079 . S
O220 C222 1.273 . S
C221 O217 1.246 . S
C221 O218 1.259 . S
C222 O219 1.252 . S
C222 O220 1.273 . S
O223 Mg210 2.010 . S
O223 C215 1.249 . S
C224 C225 1.391 . S
C224 C226 1.394 . S
C224 H240 0.931 . S
C225 C224 1.391 . S
C225 C229 1.376 . S
C226 C224 1.394 . S
C226 C227 1.369 . S
C226 C230 1.531 . S
C227 C226 1.369 . S
C227 C228 1.410 . S
C227 C235 1.503 . S
C228 C227 1.410 . S
C228 C229 1.392 . S
C228 C231 1.511 . S
C229 C225 1.376 . S
C229 C228 1.392 . S
C229 H241 0.929 . S
C230 C226 1.531 . S
C230 H242 0.960 . S
C230 H243 0.962 . S
C230 H244 0.960 . S
C231 C228 1.511 . S
C231 H245 0.961 . S
C231 H246 0.961 . S
C231 H247 0.961 . S
C232 C233 1.370 . S
C232 C234 1.363 . S
C232 H248 0.931 . S
C233 C232 1.370 . S
C233 C237 1.408 . S
C234 C232 1.363 . S
C234 C235 1.370 . S
C234 C238 1.524 . S
C235 C227 1.503 . S
C235 C234 1.370 . S
C235 C236 1.403 . S
C236 C235 1.403 . S
C236 C237 1.404 . S
C236 C239 1.539 . S
C237 C233 1.408 . S
C237 C236 1.404 . S
C237 H249 0.930 . S
C238 C234 1.524 . S
C238 H250 0.956 . S
C238 H251 0.961 . S
C238 H252 0.961 . S
C239 C236 1.539 . S
C239 H253 0.958 . S
C239 H254 0.961 . S
C239 H255 0.960 . S
H240 C224 0.931 . S
H241 C229 0.929 . S
H242 C230 0.960 . S
H243 C230 0.962 . S
H244 C230 0.960 . S
H245 C231 0.961 . S
H246 C231 0.961 . S
H247 C231 0.961 . S
H248 C232 0.931 . S
H249 C237 0.930 . S
H250 C238 0.956 . S
H251 C238 0.961 . S
H252 C238 0.961 . S
H253 C239 0.958 . S
H254 C239 0.961 . S
H255 C239 0.960 . S
C256 C257 1.391 . S
C256 C258 1.394 . S
C256 H272 0.931 . S
C257 C256 1.391 . S
C257 C261 1.376 . S
C258 C256 1.394 . S
C258 C259 1.369 . S
C258 C262 1.531 . S
C259 C258 1.369 . S
C259 C260 1.410 . S
C259 C267 1.503 . S
C260 C259 1.410 . S
C260 C261 1.392 . S
C260 C263 1.511 . S
C261 C257 1.376 . S
C261 C260 1.392 . S
C261 H273 0.929 . S
C262 C258 1.531 . S
C262 H274 0.960 . S
C262 H275 0.962 . S
C262 H276 0.960 . S
C263 C260 1.511 . S
C263 H277 0.961 . S
C263 H278 0.961 . S
C263 H279 0.961 . S
C264 C265 1.370 . S
C264 C266 1.363 . S
C264 H280 0.931 . S
C265 C264 1.370 . S
C265 C269 1.408 . S
C266 C264 1.363 . S
C266 C267 1.370 . S
C266 C270 1.524 . S
C267 C259 1.503 . S
C267 C266 1.370 . S
C267 C268 1.403 . S
C268 C267 1.403 . S
C268 C269 1.404 . S
C268 C271 1.539 . S
C269 C265 1.408 . S
C269 C268 1.404 . S
C269 H281 0.930 . S
C270 C266 1.524 . S
C270 H282 0.956 . S
C270 H283 0.961 . S
C270 H284 0.961 . S
C271 C268 1.539 . S
C271 H285 0.958 . S
C271 H286 0.961 . S
C271 H287 0.960 . S
H272 C256 0.931 . S
H273 C261 0.929 . S
H274 C262 0.960 . S
H275 C262 0.962 . S
H276 C262 0.960 . S
H277 C263 0.961 . S
H278 C263 0.961 . S
H279 C263 0.961 . S
H280 C264 0.931 . S
H281 C269 0.930 . S
H282 C270 0.956 . S
H283 C270 0.961 . S
H284 C270 0.961 . S
H285 C271 0.958 . S
H286 C271 0.961 . S
H287 C271 0.960 . S
C288 C289 1.391 . S
C288 C290 1.394 . S
C288 H304 0.931 . S
C289 C288 1.391 . S
C289 C293 1.376 . S
C290 C288 1.394 . S
C290 C291 1.369 . S
C290 C294 1.531 . S
C291 C290 1.369 . S
C291 C292 1.410 . S
C291 C299 1.503 . S
C292 C291 1.410 . S
C292 C293 1.392 . S
C292 C295 1.511 . S
C293 C289 1.376 . S
C293 C292 1.392 . S
C293 H305 0.929 . S
C294 C290 1.531 . S
C294 H306 0.960 . S
C294 H307 0.962 . S
C294 H308 0.960 . S
C295 C292 1.511 . S
C295 H309 0.961 . S
C295 H310 0.961 . S
C295 H311 0.961 . S
C296 C297 1.370 . S
C296 C298 1.363 . S
C296 H312 0.931 . S
C297 C296 1.370 . S
C297 C301 1.408 . S
C298 C296 1.363 . S
C298 C299 1.370 . S
C298 C302 1.524 . S
C299 C291 1.503 . S
C299 C298 1.370 . S
C299 C300 1.403 . S
C300 C299 1.403 . S
C300 C301 1.404 . S
C300 C303 1.539 . S
C301 C297 1.408 . S
C301 C300 1.404 . S
C301 H313 0.930 . S
C302 C298 1.524 . S
C302 H314 0.956 . S
C302 H315 0.961 . S
C302 H316 0.961 . S
C303 C300 1.539 . S
C303 H317 0.958 . S
C303 H318 0.961 . S
C303 H319 0.960 . S
H304 C288 0.931 . S
H305 C293 0.929 . S
H306 C294 0.960 . S
H307 C294 0.962 . S
H308 C294 0.960 . S
H309 C295 0.961 . S
H310 C295 0.961 . S
H311 C295 0.961 . S
H312 C296 0.931 . S
H313 C301 0.930 . S
H314 C302 0.956 . S
H315 C302 0.961 . S
H316 C302 0.961 . S
H317 C303 0.958 . S
H318 C303 0.961 . S
H319 C303 0.960 . S
C320 C321 1.391 . S
C320 C322 1.394 . S
C320 H336 0.931 . S
C321 C320 1.391 . S
C321 C325 1.376 . S
C322 C320 1.394 . S
C322 C323 1.369 . S
C322 C326 1.531 . S
C323 C322 1.369 . S
C323 C324 1.410 . S
C323 C331 1.503 . S
C324 C323 1.410 . S
C324 C325 1.392 . S
C324 C327 1.511 . S
C325 C321 1.376 . S
C325 C324 1.392 . S
C325 H337 0.929 . S
C326 C322 1.531 . S
C326 H338 0.960 . S
C326 H339 0.962 . S
C326 H340 0.960 . S
C327 C324 1.511 . S
C327 H341 0.961 . S
C327 H342 0.961 . S
C327 H343 0.961 . S
C328 C329 1.370 . S
C328 C330 1.363 . S
C328 H344 0.931 . S
C329 C328 1.370 . S
C329 C333 1.408 . S
C330 C328 1.363 . S
C330 C331 1.370 . S
C330 C334 1.524 . S
C331 C323 1.503 . S
C331 C330 1.370 . S
C331 C332 1.403 . S
C332 C331 1.403 . S
C332 C333 1.404 . S
C332 C335 1.539 . S
C333 C329 1.408 . S
C333 C332 1.404 . S
C333 H345 0.930 . S
C334 C330 1.524 . S
C334 H346 0.956 . S
C334 H347 0.961 . S
C334 H348 0.961 . S
C335 C332 1.539 . S
C335 H349 0.958 . S
C335 H350 0.961 . S
C335 H351 0.960 . S
H336 C320 0.931 . S
H337 C325 0.929 . S
H338 C326 0.960 . S
H339 C326 0.962 . S
H340 C326 0.960 . S
H341 C327 0.961 . S
H342 C327 0.961 . S
H343 C327 0.961 . S
H344 C328 0.931 . S
H345 C333 0.930 . S
H346 C334 0.956 . S
H347 C334 0.961 . S
H348 C334 0.961 . S
H349 C335 0.958 . S
H350 C335 0.961 . S
H351 C335 0.960 . S
C352 C353 1.391 . S
C352 C354 1.394 . S
C352 H368 0.931 . S
C353 C352 1.391 . S
C353 C357 1.376 . S
C354 C352 1.394 . S
C354 C355 1.369 . S
C354 C358 1.531 . S
C355 C354 1.369 . S
C355 C356 1.410 . S
C355 C363 1.503 . S
C356 C355 1.410 . S
C356 C357 1.392 . S
C356 C359 1.511 . S
C357 C353 1.376 . S
C357 C356 1.392 . S
C357 H369 0.929 . S
C358 C354 1.531 . S
C358 H370 0.960 . S
C358 H371 0.962 . S
C358 H372 0.960 . S
C359 C356 1.511 . S
C359 H373 0.961 . S
C359 H374 0.961 . S
C359 H375 0.961 . S
C360 C361 1.370 . S
C360 C362 1.363 . S
C360 H376 0.931 . S
C361 C360 1.370 . S
C361 C365 1.408 . S
C362 C360 1.363 . S
C362 C363 1.370 . S
C362 C366 1.524 . S
C363 C355 1.503 . S
C363 C362 1.370 . S
C363 C364 1.403 . S
C364 C363 1.403 . S
C364 C365 1.404 . S
C364 C367 1.539 . S
C365 C361 1.408 . S
C365 C364 1.404 . S
C365 H377 0.930 . S
C366 C362 1.524 . S
C366 H378 0.956 . S
C366 H379 0.961 . S
C366 H380 0.961 . S
C367 C364 1.539 . S
C367 H381 0.958 . S
C367 H382 0.961 . S
C367 H383 0.960 . S
H368 C352 0.931 . S
H369 C357 0.929 . S
H370 C358 0.960 . S
H371 C358 0.962 . S
H372 C358 0.960 . S
H373 C359 0.961 . S
H374 C359 0.961 . S
H375 C359 0.961 . S
H376 C360 0.931 . S
H377 C365 0.930 . S
H378 C366 0.956 . S
H379 C366 0.961 . S
H380 C366 0.961 . S
H381 C367 0.958 . S
H382 C367 0.961 . S
H383 C367 0.960 . S
C384 C385 1.391 . S
C384 C386 1.394 . S
C384 H400 0.931 . S
C385 C384 1.391 . S
C385 C389 1.376 . S
C386 C384 1.394 . S
C386 C387 1.369 . S
C386 C390 1.531 . S
C387 C386 1.369 . S
C387 C388 1.410 . S
C387 C395 1.503 . S
C388 C387 1.410 . S
C388 C389 1.392 . S
C388 C391 1.511 . S
C389 C385 1.376 . S
C389 C388 1.392 . S
C389 H401 0.929 . S
C390 C386 1.531 . S
C390 H402 0.960 . S
C390 H403 0.962 . S
C390 H404 0.960 . S
C391 C388 1.511 . S
C391 H405 0.961 . S
C391 H406 0.961 . S
C391 H407 0.961 . S
C392 C393 1.370 . S
C392 C394 1.363 . S
C392 H408 0.931 . S
C393 C392 1.370 . S
C393 C397 1.408 . S
C394 C392 1.363 . S
C394 C395 1.370 . S
C394 C398 1.524 . S
C395 C387 1.503 . S
C395 C394 1.370 . S
C395 C396 1.403 . S
C396 C395 1.403 . S
C396 C397 1.404 . S
C396 C399 1.539 . S
C397 C393 1.408 . S
C397 C396 1.404 . S
C397 H409 0.930 . S
C398 C394 1.524 . S
C398 H410 0.956 . S
C398 H411 0.961 . S
C398 H412 0.961 . S
C399 C396 1.539 . S
C399 H413 0.958 . S
C399 H414 0.961 . S
C399 H415 0.960 . S
H400 C384 0.931 . S
H401 C389 0.929 . S
H402 C390 0.960 . S
H403 C390 0.962 . S
H404 C390 0.960 . S
H405 C391 0.961 . S
H406 C391 0.961 . S
H407 C391 0.961 . S
H408 C392 0.931 . S
H409 C397 0.930 . S
H410 C398 0.956 . S
H411 C398 0.961 . S
H412 C398 0.961 . S
H413 C399 0.958 . S
H414 C399 0.961 . S
H415 C399 0.960 . S
C416 C417 1.391 . S
C416 C418 1.394 . S
C416 H432 0.931 . S
C417 C416 1.391 . S
C417 C421 1.376 . S
C418 C416 1.394 . S
C418 C419 1.369 . S
C418 C422 1.531 . S
C419 C418 1.369 . S
C419 C420 1.410 . S
C419 C427 1.503 . S
C420 C419 1.410 . S
C420 C421 1.392 . S
C420 C423 1.511 . S
C421 C417 1.376 . S
C421 C420 1.392 . S
C421 H433 0.929 . S
C422 C418 1.531 . S
C422 H434 0.960 . S
C422 H435 0.962 . S
C422 H436 0.960 . S
C423 C420 1.511 . S
C423 H437 0.961 . S
C423 H438 0.961 . S
C423 H439 0.961 . S
C424 C425 1.370 . S
C424 C426 1.363 . S
C424 H440 0.931 . S
C425 C424 1.370 . S
C425 C429 1.408 . S
C426 C424 1.363 . S
C426 C427 1.370 . S
C426 C430 1.524 . S
C427 C419 1.503 . S
C427 C426 1.370 . S
C427 C428 1.403 . S
C428 C427 1.403 . S
C428 C429 1.404 . S
C428 C431 1.539 . S
C429 C425 1.408 . S
C429 C428 1.404 . S
C429 H441 0.930 . S
C430 C426 1.524 . S
C430 H442 0.956 . S
C430 H443 0.961 . S
C430 H444 0.961 . S
C431 C428 1.539 . S
C431 H445 0.958 . S
C431 H446 0.961 . S
C431 H447 0.960 . S
H432 C416 0.931 . S
H433 C421 0.929 . S
H434 C422 0.960 . S
H435 C422 0.962 . S
H436 C422 0.960 . S
H437 C423 0.961 . S
H438 C423 0.961 . S
H439 C423 0.961 . S
H440 C424 0.931 . S
H441 C429 0.930 . S
H442 C430 0.956 . S
H443 C430 0.961 . S
H444 C430 0.961 . S
H445 C431 0.958 . S
H446 C431 0.961 . S
H447 C431 0.960 . S
C448 C449 1.391 . S
C448 C450 1.394 . S
C448 H464 0.931 . S
C449 C448 1.391 . S
C449 C453 1.376 . S
C450 C448 1.394 . S
C450 C451 1.369 . S
C450 C454 1.531 . S
C451 C450 1.369 . S
C451 C452 1.410 . S
C451 C459 1.503 . S
C452 C451 1.410 . S
C452 C453 1.392 . S
C452 C455 1.511 . S
C453 C449 1.376 . S
C453 C452 1.392 . S
C453 H465 0.929 . S
C454 C450 1.531 . S
C454 H466 0.960 . S
C454 H467 0.962 . S
C454 H468 0.960 . S
C455 C452 1.511 . S
C455 H469 0.961 . S
C455 H470 0.961 . S
C455 H471 0.961 . S
C456 C457 1.370 . S
C456 C458 1.363 . S
C456 H472 0.931 . S
C457 C456 1.370 . S
C457 C461 1.408 . S
C458 C456 1.363 . S
C458 C459 1.370 . S
C458 C462 1.524 . S
C459 C451 1.503 . S
C459 C458 1.370 . S
C459 C460 1.403 . S
C460 C459 1.403 . S
C460 C461 1.404 . S
C460 C463 1.539 . S
C461 C457 1.408 . S
C461 C460 1.404 . S
C461 H473 0.930 . S
C462 C458 1.524 . S
C462 H474 0.956 . S
C462 H475 0.961 . S
C462 H476 0.961 . S
C463 C460 1.539 . S
C463 H477 0.958 . S
C463 H478 0.961 . S
C463 H479 0.960 . S
H464 C448 0.931 . S
H465 C453 0.929 . S
H466 C454 0.960 . S
H467 C454 0.962 . S
H468 C454 0.960 . S
H469 C455 0.961 . S
H470 C455 0.961 . S
H471 C455 0.961 . S
H472 C456 0.931 . S
H473 C461 0.930 . S
H474 C462 0.956 . S
H475 C462 0.961 . S
H476 C462 0.961 . S
H477 C463 0.958 . S
H478 C463 0.961 . S
H479 C463 0.960 . S
C480 C481 1.391 . S
C480 C482 1.394 . S
C480 H496 0.931 . S
C481 C480 1.391 . S
C481 C485 1.376 . S
C482 C480 1.394 . S
C482 C483 1.369 . S
C482 C486 1.531 . S
C483 C482 1.369 . S
C483 C484 1.410 . S
C483 C491 1.503 1_565 S
C484 C483 1.410 . S
C484 C485 1.392 . S
C484 C487 1.511 1_565 S
C485 C481 1.376 . S
C485 C484 1.392 . S
C485 H497 0.929 . S
C486 C482 1.531 . S
C486 H498 0.960 . S
C486 H499 0.962 . S
C486 H500 0.960 . S
C487 C484 1.511 1_545 S
C487 H501 0.961 . S
C487 H502 0.961 . S
C487 H503 0.961 . S
C488 C489 1.370 . S
C488 C490 1.363 . S
C488 H504 0.931 . S
C489 C488 1.370 . S
C489 C493 1.408 . S
C490 C488 1.363 . S
C490 C491 1.370 . S
C490 C494 1.524 . S
C491 C483 1.503 1_545 S
C491 C490 1.370 . S
C491 C492 1.403 . S
C492 C491 1.403 . S
C492 C493 1.404 . S
C492 C495 1.539 1_545 S
C493 C489 1.408 . S
C493 C492 1.404 . S
C493 H505 0.930 . S
C494 C490 1.524 . S
C494 H506 0.956 . S
C494 H507 0.961 . S
C494 H508 0.961 . S
C495 C492 1.539 1_565 S
C495 H509 0.958 . S
C495 H510 0.961 1_565 S
C495 H511 0.960 . S
H496 C480 0.931 . S
H497 C485 0.929 . S
H498 C486 0.960 . S
H499 C486 0.962 . S
H500 C486 0.960 . S
H501 C487 0.961 . S
H502 C487 0.961 . S
H503 C487 0.961 . S
H504 C488 0.931 . S
H505 C493 0.930 . S
H506 C494 0.956 . S
H507 C494 0.961 . S
H508 C494 0.961 . S
H509 C495 0.958 . S
H510 C495 0.961 1_545 S
H511 C495 0.960 . S
C512 C513 1.391 . S
C512 C514 1.394 . S
C512 H528 0.931 . S
C513 C512 1.391 . S
C513 C517 1.376 . S
C514 C512 1.394 . S
C514 C515 1.369 . S
C514 C518 1.531 . S
C515 C514 1.369 . S
C515 C516 1.410 . S
C515 C523 1.503 . S
C516 C515 1.410 . S
C516 C517 1.392 . S
C516 C519 1.511 . S
C517 C513 1.376 . S
C517 C516 1.392 . S
C517 H529 0.929 . S
C518 C514 1.531 . S
C518 H530 0.960 . S
C518 H531 0.962 . S
C518 H532 0.960 . S
C519 C516 1.511 . S
C519 H533 0.961 . S
C519 H534 0.961 . S
C519 H535 0.961 . S
C520 C521 1.370 . S
C520 C522 1.363 . S
C520 H536 0.931 . S
C521 C520 1.370 . S
C521 C525 1.408 . S
C522 C520 1.363 . S
C522 C523 1.370 . S
C522 C526 1.524 . S
C523 C515 1.503 . S
C523 C522 1.370 . S
C523 C524 1.403 . S
C524 C523 1.403 . S
C524 C525 1.404 . S
C524 C527 1.539 . S
C525 C521 1.408 . S
C525 C524 1.404 . S
C525 H537 0.930 . S
C526 C522 1.524 . S
C526 H538 0.956 . S
C526 H539 0.961 . S
C526 H540 0.961 . S
C527 C524 1.539 . S
C527 H541 0.958 . S
C527 H542 0.961 . S
C527 H543 0.960 . S
H528 C512 0.931 . S
H529 C517 0.929 . S
H530 C518 0.960 . S
H531 C518 0.962 . S
H532 C518 0.960 . S
H533 C519 0.961 . S
H534 C519 0.961 . S
H535 C519 0.961 . S
H536 C520 0.931 . S
H537 C525 0.930 . S
H538 C526 0.956 . S
H539 C526 0.961 . S
H540 C526 0.961 . S
H541 C527 0.958 . S
H542 C527 0.961 . S
H543 C527 0.960 . S
C544 C545 1.391 . S
C544 C546 1.394 . S
C544 H560 0.931 . S
C545 C544 1.391 . S
C545 C549 1.376 . S
C546 C544 1.394 . S
C546 C547 1.369 . S
C546 C550 1.531 1_556 S
C547 C546 1.369 . S
C547 C548 1.410 . S
C547 C555 1.503 1_556 S
C548 C547 1.410 . S
C548 C549 1.392 . S
C548 C551 1.511 . S
C549 C545 1.376 . S
C549 C548 1.392 . S
C549 H561 0.929 . S
C550 C546 1.531 1_554 S
C550 H562 0.960 . S
C550 H563 0.962 . S
C550 H564 0.969 . S
C551 C548 1.511 . S
C551 H565 0.961 . S
C551 H566 0.961 . S
C551 H567 0.961 . S
C552 C553 1.370 . S
C552 C554 1.363 . S
C552 H568 0.931 . S
C553 C552 1.370 . S
C553 C557 1.408 . S
C554 C552 1.363 . S
C554 C555 1.370 . S
C554 C558 1.524 . S
C555 C547 1.503 1_554 S
C555 C554 1.370 . S
C555 C556 1.403 . S
C556 C555 1.403 . S
C556 C557 1.404 . S
C556 C559 1.539 1_554 S
C557 C553 1.408 . S
C557 C556 1.404 . S
C557 H569 0.930 . S
C558 C554 1.524 . S
C558 H570 0.956 . S
C558 H571 0.961 . S
C558 H572 0.961 . S
C559 C556 1.539 1_556 S
C559 H573 0.958 . S
C559 H574 0.961 . S
C559 H575 0.960 . S
H560 C544 0.931 . S
H561 C549 0.929 . S
H562 C550 0.960 . S
H563 C550 0.962 . S
H564 C550 0.969 . S
H565 C551 0.961 . S
H566 C551 0.961 . S
H567 C551 0.961 . S
H568 C552 0.931 . S
H569 C557 0.930 . S
H570 C558 0.956 . S
H571 C558 0.961 . S
H572 C558 0.961 . S
H573 C559 0.958 . S
H574 C559 0.961 . S
H575 C559 0.960 . S
C576 C577 1.391 . S
C576 C578 1.394 . S
C576 H592 0.931 . S
C577 C576 1.391 . S
C577 C581 1.376 . S
C578 C576 1.394 . S
C578 C579 1.369 . S
C578 C582 1.531 . S
C579 C578 1.369 . S
C579 C580 1.410 . S
C579 C587 1.503 1_554 S
C580 C579 1.410 . S
C580 C581 1.392 . S
C580 C583 1.511 . S
C581 C577 1.376 . S
C581 C580 1.392 . S
C581 H593 0.929 . S
C582 C578 1.531 . S
C582 H594 0.960 . S
C582 H595 0.962 . S
C582 H596 0.960 . S
C583 C580 1.511 . S
C583 H597 0.961 . S
C583 H598 0.961 1_554 S
C583 H599 0.961 . S
C584 C585 1.370 . S
C584 C586 1.363 . S
C584 H600 0.931 . S
C585 C584 1.370 . S
C585 C589 1.408 . S
C586 C584 1.363 . S
C586 C587 1.370 . S
C586 C590 1.524 . S
C587 C579 1.503 1_556 S
C587 C586 1.370 . S
C587 C588 1.403 . S
C588 C587 1.403 . S
C588 C589 1.404 . S
C588 C591 1.539 1_556 S
C589 C585 1.408 . S
C589 C588 1.404 . S
C589 H601 0.930 . S
C590 C586 1.524 . S
C590 H602 0.956 . S
C590 H603 0.961 . S
C590 H604 0.961 . S
C591 C588 1.539 1_554 S
C591 H605 0.958 . S
C591 H606 0.961 . S
C591 H607 0.960 . S
H592 C576 0.931 . S
H593 C581 0.929 . S
H594 C582 0.960 . S
H595 C582 0.962 . S
H596 C582 0.960 . S
H597 C583 0.961 . S
H598 C583 0.961 1_556 S
H599 C583 0.961 . S
H600 C584 0.931 . S
H601 C589 0.930 . S
H602 C590 0.956 . S
H603 C590 0.961 . S
H604 C590 0.961 . S
H605 C591 0.958 . S
H606 C591 0.961 . S
H607 C591 0.960 . S
C608 C609 1.391 . S
C608 C610 1.394 . S
C608 H624 0.931 . S
C609 C608 1.391 . S
C609 C613 1.376 . S
C610 C608 1.394 . S
C610 C611 1.369 . S
C610 C614 1.531 . S
C611 C610 1.369 . S
C611 C612 1.410 . S
C611 C619 1.503 . S
C612 C611 1.410 . S
C612 C613 1.392 . S
C612 C615 1.511 . S
C613 C609 1.376 . S
C613 C612 1.392 . S
C613 H625 0.929 . S
C614 C610 1.531 . S
C614 H626 0.960 . S
C614 H627 0.962 . S
C614 H628 0.960 . S
C615 C612 1.511 . S
C615 H629 0.961 . S
C615 H630 0.961 . S
C615 H631 0.961 . S
C616 C617 1.370 . S
C616 C618 1.363 . S
C616 H632 0.931 . S
C617 C616 1.370 . S
C617 C621 1.408 . S
C618 C616 1.363 . S
C618 C619 1.370 . S
C618 C622 1.524 . S
C619 C611 1.503 . S
C619 C618 1.370 . S
C619 C620 1.403 . S
C620 C619 1.403 . S
C620 C621 1.404 . S
C620 C623 1.539 . S
C621 C617 1.408 . S
C621 C620 1.404 . S
C621 H633 0.930 . S
C622 C618 1.524 . S
C622 H634 0.956 . S
C622 H635 0.961 . S
C622 H636 0.961 . S
C623 C620 1.539 . S
C623 H637 0.958 . S
C623 H638 0.961 . S
C623 H639 0.960 . S
H624 C608 0.931 . S
H625 C613 0.929 . S
H626 C614 0.960 . S
H627 C614 0.962 . S
H628 C614 0.960 . S
H629 C615 0.961 . S
H630 C615 0.961 . S
H631 C615 0.961 . S
H632 C616 0.931 . S
H633 C621 0.930 . S
H634 C622 0.956 . S
H635 C622 0.961 . S
H636 C622 0.961 . S
H637 C623 0.958 . S
H638 C623 0.961 . S
H639 C623 0.960 . S
C640 C641 1.391 . S
C640 C642 1.394 . S
C640 H656 0.931 . S
C641 C640 1.391 . S
C641 C645 1.376 . S
C642 C640 1.394 . S
C642 C643 1.369 . S
C642 C646 1.531 . S
C643 C642 1.369 . S
C643 C644 1.410 . S
C643 C651 1.503 . S
C644 C643 1.410 . S
C644 C645 1.392 . S
C644 C647 1.511 . S
C645 C641 1.376 . S
C645 C644 1.392 . S
C645 H657 0.929 . S
C646 C642 1.531 . S
C646 H658 0.960 . S
C646 H659 0.962 . S
C646 H660 0.960 . S
C647 C644 1.511 . S
C647 H661 0.961 . S
C647 H662 0.961 . S
C647 H663 0.961 . S
C648 C649 1.370 . S
C648 C650 1.363 . S
C648 H664 0.931 . S
C649 C648 1.370 . S
C649 C653 1.408 . S
C650 C648 1.363 . S
C650 C651 1.370 . S
C650 C654 1.524 . S
C651 C643 1.503 . S
C651 C650 1.370 . S
C651 C652 1.403 . S
C652 C651 1.403 . S
C652 C653 1.404 . S
C652 C655 1.539 . S
C653 C649 1.408 . S
C653 C652 1.404 . S
C653 H665 0.930 . S
C654 C650 1.524 . S
C654 H666 0.956 . S
C654 H667 0.961 . S
C654 H668 0.961 . S
C655 C652 1.539 . S
C655 H669 0.958 . S
C655 H670 0.961 . S
C655 H671 0.960 . S
H656 C640 0.931 . S
H657 C645 0.929 . S
H658 C646 0.960 . S
H659 C646 0.962 . S
H660 C646 0.960 . S
H661 C647 0.961 . S
H662 C647 0.961 . S
H663 C647 0.961 . S
H664 C648 0.931 . S
H665 C653 0.930 . S
H666 C654 0.956 . S
H667 C654 0.961 . S
H668 C654 0.961 . S
H669 C655 0.958 . S
H670 C655 0.961 . S
H671 C655 0.960 . S
C672 C673 1.391 . S
C672 C674 1.394 . S
C672 H688 0.931 . S
C673 C672 1.391 . S
C673 C677 1.376 . S
C674 C672 1.394 . S
C674 C675 1.369 . S
C674 C678 1.531 . S
C675 C674 1.369 . S
C675 C676 1.410 . S
C675 C683 1.503 1_655 S
C676 C675 1.410 . S
C676 C677 1.392 . S
C676 C679 1.511 1_655 S
C677 C673 1.376 . S
C677 C676 1.392 . S
C677 H689 0.929 . S
C678 C674 1.531 . S
C678 H690 0.960 . S
C678 H691 0.962 . S
C678 H692 0.960 . S
C679 C676 1.511 1_455 S
C679 H693 0.961 . S
C679 H694 0.961 . S
C679 H695 0.961 . S
C680 C681 1.370 . S
C680 C682 1.363 . S
C680 H696 0.931 . S
C681 C680 1.370 . S
C681 C685 1.408 . S
C682 C680 1.363 . S
C682 C683 1.370 . S
C682 C686 1.524 1_455 S
C683 C675 1.503 1_455 S
C683 C682 1.370 . S
C683 C684 1.403 . S
C684 C683 1.403 . S
C684 C685 1.404 . S
C684 C687 1.539 . S
C685 C681 1.408 . S
C685 C684 1.404 . S
C685 H697 0.930 . S
C686 C682 1.524 1_655 S
C686 H698 0.956 . S
C686 H699 0.961 . S
C686 H700 0.961 . S
C687 C684 1.539 . S
C687 H701 0.958 . S
C687 H702 0.961 . S
C687 H703 0.960 . S
H688 C672 0.931 . S
H689 C677 0.929 . S
H690 C678 0.960 . S
H691 C678 0.962 . S
H692 C678 0.960 . S
H693 C679 0.961 . S
H694 C679 0.961 . S
H695 C679 0.961 . S
H696 C680 0.931 . S
H697 C685 0.930 . S
H698 C686 0.956 . S
H699 C686 0.961 . S
H700 C686 0.961 . S
H701 C687 0.958 . S
H702 C687 0.961 . S
H703 C687 0.960 . S
C704 C705 1.391 . S
C704 C706 1.394 . S
C704 H720 0.931 . S
C705 C704 1.391 . S
C705 C709 1.376 . S
C706 C704 1.394 . S
C706 C707 1.369 . S
C706 C710 1.531 1_655 S
C707 C706 1.369 . S
C707 C708 1.410 . S
C707 C715 1.503 1_655 S
C708 C707 1.410 . S
C708 C709 1.392 . S
C708 C711 1.511 . S
C709 C705 1.376 . S
C709 C708 1.392 . S
C709 H721 0.929 . S
C710 C706 1.531 1_455 S
C710 H722 0.960 . S
C710 H723 0.962 . S
C710 H724 0.960 . S
C711 C708 1.511 . S
C711 H725 0.961 . S
C711 H726 0.961 . S
C711 H727 0.961 . S
C712 C713 1.370 . S
C712 C714 1.363 . S
C712 H728 0.931 . S
C713 C712 1.370 . S
C713 C717 1.408 . S
C714 C712 1.363 . S
C714 C715 1.370 . S
C714 C718 1.524 1_455 S
C715 C707 1.503 1_455 S
C715 C714 1.370 . S
C715 C716 1.403 . S
C716 C715 1.403 . S
C716 C717 1.404 . S
C716 C719 1.539 . S
C717 C713 1.408 . S
C717 C716 1.404 . S
C717 H729 0.930 . S
C718 C714 1.524 1_655 S
C718 H730 0.956 . S
C718 H731 0.961 . S
C718 H732 0.952 1_655 S
C719 C716 1.539 . S
C719 H733 0.958 . S
C719 H734 0.961 . S
C719 H735 0.960 . S
H720 C704 0.931 . S
H721 C709 0.929 . S
H722 C710 0.960 . S
H723 C710 0.962 . S
H724 C710 0.960 . S
H725 C711 0.961 . S
H726 C711 0.961 . S
H727 C711 0.961 . S
H728 C712 0.931 . S
H729 C717 0.930 . S
H730 C718 0.956 . S
H731 C718 0.961 . S
H732 C718 0.952 1_455 S
H733 C719 0.958 . S
H734 C719 0.961 . S
H735 C719 0.960 . S
C736 C737 1.391 . S
C736 C738 1.394 . S
C736 H752 0.931 . S
C737 C736 1.391 . S
C737 C741 1.376 . S
C738 C736 1.394 . S
C738 C739 1.369 . S
C738 C742 1.531 . S
C739 C738 1.369 . S
C739 C740 1.410 . S
C739 C747 1.503 . S
C740 C739 1.410 . S
C740 C741 1.392 . S
C740 C743 1.511 . S
C741 C737 1.376 . S
C741 C740 1.392 . S
C741 H753 0.929 . S
C742 C738 1.531 . S
C742 H754 0.960 . S
C742 H755 0.962 . S
C742 H756 0.960 . S
C743 C740 1.511 . S
C743 H757 0.961 . S
C743 H758 0.961 . S
C743 H759 0.961 . S
C744 C745 1.370 . S
C744 C746 1.363 . S
C744 H760 0.931 . S
C745 C744 1.370 . S
C745 C749 1.408 . S
C746 C744 1.363 . S
C746 C747 1.370 . S
C746 C750 1.524 . S
C747 C739 1.503 . S
C747 C746 1.370 . S
C747 C748 1.403 . S
C748 C747 1.403 . S
C748 C749 1.404 . S
C748 C751 1.539 . S
C749 C745 1.408 . S
C749 C748 1.404 . S
C749 H761 0.930 . S
C750 C746 1.524 . S
C750 H762 0.956 . S
C750 H763 0.961 . S
C750 H764 0.961 . S
C751 C748 1.539 . S
C751 H765 0.958 . S
C751 H766 0.961 . S
C751 H767 0.960 . S
H752 C736 0.931 . S
H753 C741 0.929 . S
H754 C742 0.960 . S
H755 C742 0.962 . S
H756 C742 0.960 . S
H757 C743 0.961 . S
H758 C743 0.961 . S
H759 C743 0.961 . S
H760 C744 0.931 . S
H761 C749 0.930 . S
H762 C750 0.956 . S
H763 C750 0.961 . S
H764 C750 0.961 . S
H765 C751 0.958 . S
H766 C751 0.961 . S
H767 C751 0.960 . S
C768 C769 1.391 . S
C768 C770 1.394 . S
C768 H784 0.931 . S
C769 C768 1.391 . S
C769 C773 1.376 . S
C770 C768 1.394 . S
C770 C771 1.369 . S
C770 C774 1.531 . S
C771 C770 1.369 . S
C771 C772 1.410 . S
C771 C779 1.503 1_545 S
C772 C771 1.410 . S
C772 C773 1.392 . S
C772 C775 1.511 1_545 S
C773 C769 1.376 . S
C773 C772 1.392 . S
C773 H785 0.929 . S
C774 C770 1.531 . S
C774 H786 0.960 . S
C774 H787 0.962 . S
C774 H788 0.960 . S
C775 C772 1.511 1_565 S
C775 H789 0.961 1_565 S
C775 H790 0.961 . S
C775 H791 0.961 . S
C776 C777 1.370 . S
C776 C778 1.363 . S
C776 H792 0.931 . S
C777 C776 1.370 . S
C777 C781 1.408 . S
C778 C776 1.363 . S
C778 C779 1.370 . S
C778 C782 1.524 1_565 S
C779 C771 1.503 1_565 S
C779 C778 1.370 . S
C779 C780 1.403 . S
C780 C779 1.403 . S
C780 C781 1.404 . S
C780 C783 1.539 . S
C781 C777 1.408 . S
C781 C780 1.404 . S
C781 H793 0.930 . S
C782 C778 1.524 1_545 S
C782 H794 0.956 . S
C782 H795 0.961 . S
C782 H796 0.961 . S
C783 C780 1.539 . S
C783 H797 0.958 . S
C783 H798 0.961 . S
C783 H799 0.960 . S
H784 C768 0.931 . S
H785 C773 0.929 . S
H786 C774 0.960 . S
H787 C774 0.962 . S
H788 C774 0.960 . S
H789 C775 0.961 1_545 S
H790 C775 0.961 . S
H791 C775 0.961 . S
H792 C776 0.931 . S
H793 C781 0.930 . S
H794 C782 0.956 . S
H795 C782 0.961 . S
H796 C782 0.961 . S
H797 C783 0.958 . S
H798 C783 0.961 . S
H799 C783 0.960 . S
C800 C801 1.391 . S
C800 C802 1.394 . S
C800 H816 0.931 . S
C801 C800 1.391 . S
C801 C805 1.376 . S
C802 C800 1.394 . S
C802 C803 1.369 . S
C802 C806 1.531 . S
C803 C802 1.369 . S
C803 C804 1.410 . S
C803 C811 1.503 . S
C804 C803 1.410 . S
C804 C805 1.392 . S
C804 C807 1.511 . S
C805 C801 1.376 . S
C805 C804 1.392 . S
C805 H817 0.929 . S
C806 C802 1.531 . S
C806 H818 0.960 . S
C806 H819 0.962 . S
C806 H820 0.960 . S
C807 C804 1.511 . S
C807 H821 0.961 . S
C807 H822 0.961 . S
C807 H823 0.961 . S
C808 C809 1.370 . S
C808 C810 1.363 . S
C808 H824 0.931 . S
C809 C808 1.370 . S
C809 C813 1.408 . S
C810 C808 1.363 . S
C810 C811 1.370 . S
C810 C814 1.524 . S
C811 C803 1.503 . S
C811 C810 1.370 . S
C811 C812 1.403 . S
C812 C811 1.403 . S
C812 C813 1.404 . S
C812 C815 1.539 . S
C813 C809 1.408 . S
C813 C812 1.404 . S
C813 H825 0.930 . S
C814 C810 1.524 . S
C814 H826 0.956 . S
C814 H827 0.961 . S
C814 H828 0.961 . S
C815 C812 1.539 . S
C815 H829 0.958 . S
C815 H830 0.961 . S
C815 H831 0.960 . S
H816 C800 0.931 . S
H817 C805 0.929 . S
H818 C806 0.960 . S
H819 C806 0.962 . S
H820 C806 0.960 . S
H821 C807 0.961 . S
H822 C807 0.961 . S
H823 C807 0.961 . S
H824 C808 0.931 . S
H825 C813 0.930 . S
H826 C814 0.956 . S
H827 C814 0.961 . S
H828 C814 0.961 . S
H829 C815 0.958 . S
H830 C815 0.961 . S
H831 C815 0.960 . S
C832 C833 1.391 . S
C832 C834 1.394 . S
C832 H848 0.931 . S
C833 C832 1.391 . S
C833 C837 1.376 . S
C834 C832 1.394 . S
C834 C835 1.369 . S
C834 C838 1.531 . S
C835 C834 1.369 . S
C835 C836 1.410 . S
C835 C843 1.503 1_554 S
C836 C835 1.410 . S
C836 C837 1.392 . S
C836 C839 1.511 1_554 S
C837 C833 1.376 . S
C837 C836 1.392 . S
C837 H849 0.929 . S
C838 C834 1.531 . S
C838 H850 0.960 . S
C838 H851 0.962 . S
C838 H852 0.960 . S
C839 C836 1.511 1_556 S
C839 H853 0.961 . S
C839 H854 0.961 . S
C839 H855 0.961 . S
C840 C841 1.370 . S
C840 C842 1.363 . S
C840 H856 0.931 . S
C841 C840 1.370 . S
C841 C845 1.408 . S
C842 C840 1.363 . S
C842 C843 1.370 . S
C842 C846 1.524 1_556 S
C843 C835 1.503 1_556 S
C843 C842 1.370 . S
C843 C844 1.403 . S
C844 C843 1.403 . S
C844 C845 1.404 . S
C844 C847 1.539 . S
C845 C841 1.408 . S
C845 C844 1.404 . S
C845 H857 0.930 . S
C846 C842 1.524 1_554 S
C846 H858 0.956 . S
C846 H859 0.961 . S
C846 H860 0.961 1_554 S
C847 C844 1.539 . S
C847 H861 0.958 . S
C847 H862 0.961 . S
C847 H863 0.960 . S
H848 C832 0.931 . S
H849 C837 0.929 . S
H850 C838 0.960 . S
H851 C838 0.962 . S
H852 C838 0.960 . S
H853 C839 0.961 . S
H854 C839 0.961 . S
H855 C839 0.961 . S
H856 C840 0.931 . S
H857 C845 0.930 . S
H858 C846 0.956 . S
H859 C846 0.961 . S
H860 C846 0.961 1_556 S
H861 C847 0.958 . S
H862 C847 0.961 . S
H863 C847 0.960 . S
C864 C865 1.391 . S
C864 C866 1.394 . S
C864 H880 0.931 . S
C865 C864 1.391 . S
C865 C869 1.376 . S
C866 C864 1.394 . S
C866 C867 1.369 . S
C866 C870 1.531 1_556 S
C867 C866 1.369 . S
C867 C868 1.410 . S
C867 C875 1.503 1_556 S
C868 C867 1.410 . S
C868 C869 1.392 . S
C868 C871 1.511 . S
C869 C865 1.376 . S
C869 C868 1.392 . S
C869 H881 0.929 . S
C870 C866 1.531 1_554 S
C870 H882 0.960 . S
C870 H883 0.962 . S
C870 H884 0.960 . S
C871 C868 1.511 . S
C871 H885 0.961 . S
C871 H886 0.961 . S
C871 H887 0.961 . S
C872 C873 1.370 . S
C872 C874 1.363 . S
C872 H888 0.931 . S
C873 C872 1.370 . S
C873 C877 1.408 . S
C874 C872 1.363 . S
C874 C875 1.370 . S
C874 C878 1.524 . S
C875 C867 1.503 1_554 S
C875 C874 1.370 . S
C875 C876 1.403 . S
C876 C875 1.403 . S
C876 C877 1.404 . S
C876 C879 1.539 . S
C877 C873 1.408 . S
C877 C876 1.404 . S
C877 H889 0.930 . S
C878 C874 1.524 . S
C878 H890 0.956 . S
C878 H891 0.961 . S
C878 H892 0.961 . S
C879 C876 1.539 . S
C879 H893 0.958 . S
C879 H894 0.961 . S
C879 H895 0.960 1_554 S
H880 C864 0.931 . S
H881 C869 0.929 . S
H882 C870 0.960 . S
H883 C870 0.962 . S
H884 C870 0.960 . S
H885 C871 0.961 . S
H886 C871 0.961 . S
H887 C871 0.961 . S
H888 C872 0.931 . S
H889 C877 0.930 . S
H890 C878 0.956 . S
H891 C878 0.961 . S
H892 C878 0.961 . S
H893 C879 0.958 . S
H894 C879 0.961 . S
H895 C879 0.960 1_556 S
C896 C897 1.391 . S
C896 C898 1.394 . S
C896 H912 0.931 . S
C897 C896 1.391 . S
C897 C901 1.376 . S
C898 C896 1.394 . S
C898 C899 1.369 . S
C898 C902 1.531 . S
C899 C898 1.369 . S
C899 C900 1.410 . S
C899 C907 1.503 . S
C900 C899 1.410 . S
C900 C901 1.392 . S
C900 C903 1.511 . S
C901 C897 1.376 . S
C901 C900 1.392 . S
C901 H913 0.929 . S
C902 C898 1.531 . S
C902 H914 0.960 . S
C902 H915 0.962 . S
C902 H916 0.960 . S
C903 C900 1.511 . S
C903 H917 0.961 . S
C903 H918 0.961 . S
C903 H919 0.961 . S
C904 C905 1.370 . S
C904 C906 1.363 . S
C904 H920 0.931 . S
C905 C904 1.370 . S
C905 C909 1.408 . S
C906 C904 1.363 . S
C906 C907 1.370 . S
C906 C910 1.524 . S
C907 C899 1.503 . S
C907 C906 1.370 . S
C907 C908 1.403 . S
C908 C907 1.403 . S
C908 C909 1.404 . S
C908 C911 1.539 . S
C909 C905 1.408 . S
C909 C908 1.404 . S
C909 H921 0.930 . S
C910 C906 1.524 . S
C910 H922 0.956 . S
C910 H923 0.961 . S
C910 H924 0.961 . S
C911 C908 1.539 . S
C911 H925 0.958 . S
C911 H926 0.961 . S
C911 H927 0.960 . S
H912 C896 0.931 . S
H913 C901 0.929 . S
H914 C902 0.960 . S
H915 C902 0.962 . S
H916 C902 0.960 . S
H917 C903 0.961 . S
H918 C903 0.961 . S
H919 C903 0.961 . S
H920 C904 0.931 . S
H921 C909 0.930 . S
H922 C910 0.956 . S
H923 C910 0.961 . S
H924 C910 0.961 . S
H925 C911 0.958 . S
H926 C911 0.961 . S
H927 C911 0.960 . S
C928 C929 1.391 . S
C928 C930 1.394 . S
C928 H944 0.931 . S
C929 C928 1.391 . S
C929 C933 1.376 . S
C930 C928 1.394 . S
C930 C931 1.369 . S
C930 C934 1.531 . S
C931 C930 1.369 . S
C931 C932 1.410 . S
C931 C939 1.503 . S
C932 C931 1.410 . S
C932 C933 1.392 . S
C932 C935 1.511 . S
C933 C929 1.376 . S
C933 C932 1.392 . S
C933 H945 0.929 . S
C934 C930 1.531 . S
C934 H946 0.960 . S
C934 H947 0.962 . S
C934 H948 0.960 . S
C935 C932 1.511 . S
C935 H949 0.961 . S
C935 H950 0.961 . S
C935 H951 0.961 . S
C936 C937 1.370 . S
C936 C938 1.363 . S
C936 H952 0.931 . S
C937 C936 1.370 . S
C937 C941 1.408 . S
C938 C936 1.363 . S
C938 C939 1.370 . S
C938 C942 1.524 . S
C939 C931 1.503 . S
C939 C938 1.370 . S
C939 C940 1.403 . S
C940 C939 1.403 . S
C940 C941 1.404 . S
C940 C943 1.539 . S
C941 C937 1.408 . S
C941 C940 1.404 . S
C941 H953 0.930 . S
C942 C938 1.524 . S
C942 H954 0.956 . S
C942 H955 0.961 . S
C942 H956 0.961 . S
C943 C940 1.539 . S
C943 H957 0.958 . S
C943 H958 0.961 . S
C943 H959 0.960 . S
H944 C928 0.931 . S
H945 C933 0.929 . S
H946 C934 0.960 . S
H947 C934 0.962 . S
H948 C934 0.960 . S
H949 C935 0.961 . S
H950 C935 0.961 . S
H951 C935 0.961 . S
H952 C936 0.931 . S
H953 C941 0.930 . S
H954 C942 0.956 . S
H955 C942 0.961 . S
H956 C942 0.961 . S
H957 C943 0.958 . S
H958 C943 0.961 . S
H959 C943 0.960 . S
C960 C961 1.391 . S
C960 C962 1.394 . S
C960 H976 0.931 . S
C961 C960 1.391 . S
C961 C965 1.376 . S
C962 C960 1.394 . S
C962 C963 1.369 . S
C962 C966 1.531 . S
C963 C962 1.369 . S
C963 C964 1.410 . S
C963 C971 1.503 1_455 S
C964 C963 1.410 . S
C964 C965 1.392 . S
C964 C967 1.511 1_455 S
C965 C961 1.376 . S
C965 C964 1.392 . S
C965 H977 0.929 . S
C966 C962 1.531 . S
C966 H978 0.960 . S
C966 H979 0.962 . S
C966 H980 0.960 . S
C967 C964 1.511 1_655 S
C967 H981 0.961 . S
C967 H982 0.961 . S
C967 H983 0.961 . S
C968 C969 1.370 . S
C968 C970 1.363 . S
C968 H984 0.931 . S
C969 C968 1.370 . S
C969 C973 1.408 . S
C970 C968 1.363 . S
C970 C971 1.370 . S
C970 C974 1.524 . S
C971 C963 1.503 1_655 S
C971 C970 1.370 . S
C971 C972 1.403 . S
C972 C971 1.403 . S
C972 C973 1.404 . S
C972 C975 1.539 . S
C973 C969 1.408 . S
C973 C972 1.404 . S
C973 H985 0.930 . S
C974 C970 1.524 . S
C974 H986 0.956 1_655 S
C974 H987 0.961 . S
C974 H988 0.961 . S
C975 C972 1.539 . S
C975 H989 0.958 . S
C975 H990 0.961 . S
C975 H991 0.960 . S
H976 C960 0.931 . S
H977 C965 0.929 . S
H978 C966 0.960 . S
H979 C966 0.962 . S
H980 C966 0.960 . S
H981 C967 0.961 . S
H982 C967 0.961 . S
H983 C967 0.961 . S
H984 C968 0.931 . S
H985 C973 0.930 . S
H986 C974 0.956 1_455 S
H987 C974 0.961 . S
H988 C974 0.961 . S
H989 C975 0.958 . S
H990 C975 0.961 . S
H991 C975 0.960 . S
C992 C993 1.391 . S
C992 C994 1.394 . S
C992 H1008 0.931 . S
C993 C992 1.391 . S
C993 C997 1.376 . S
C994 C992 1.394 . S
C994 C995 1.369 . S
C994 C998 1.531 . S
C995 C994 1.369 . S
C995 C996 1.410 . S
C995 C1003 1.503 1_455 S
C996 C995 1.410 . S
C996 C997 1.392 . S
C996 C999 1.511 1_455 S
C997 C993 1.376 . S
C997 C996 1.392 . S
C997 H1009 0.929 . S
C998 C994 1.531 . S
C998 H1010 0.960 . S
C998 H1011 0.962 . S
C998 H1012 0.960 . S
C999 C996 1.511 1_655 S
C999 H1013 0.961 . S
C999 H1014 0.961 . S
C999 H1015 0.961 . S
C1000 C1001 1.370 . S
C1000 C1002 1.363 . S
C1000 H1016 0.931 . S
C1001 C1000 1.370 . S
C1001 C1005 1.408 . S
C1002 C1000 1.363 . S
C1002 C1003 1.370 . S
C1002 C1006 1.524 . S
C1003 C995 1.503 1_655 S
C1003 C1002 1.370 . S
C1003 C1004 1.403 . S
C1004 C1003 1.403 . S
C1004 C1005 1.404 . S
C1004 C1007 1.539 . S
C1005 C1001 1.408 . S
C1005 C1004 1.404 . S
C1005 H1017 0.930 . S
C1006 C1002 1.524 . S
C1006 H1018 0.956 1_655 S
C1006 H1019 0.961 . S
C1006 H1020 0.961 . S
C1007 C1004 1.539 . S
C1007 H1021 0.958 1_655 S
C1007 H1022 0.961 . S
C1007 H1023 0.957 1_655 S
H1008 C992 0.931 . S
H1009 C997 0.929 . S
H1010 C998 0.960 . S
H1011 C998 0.962 . S
H1012 C998 0.960 . S
H1013 C999 0.961 . S
H1014 C999 0.961 . S
H1015 C999 0.961 . S
H1016 C1000 0.931 . S
H1017 C1005 0.930 . S
H1018 C1006 0.956 1_455 S
H1019 C1006 0.961 . S
H1020 C1006 0.961 . S
H1021 C1007 0.958 1_455 S
H1022 C1007 0.961 . S
H1023 C1007 0.957 1_455 S
C1024 C1025 1.391 . S
C1024 C1026 1.394 . S
C1024 H1040 0.931 . S
C1025 C1024 1.391 . S
C1025 C1029 1.376 . S
C1026 C1024 1.394 . S
C1026 C1027 1.369 . S
C1026 C1030 1.531 . S
C1027 C1026 1.369 . S
C1027 C1028 1.410 . S
C1027 C1035 1.503 . S
C1028 C1027 1.410 . S
C1028 C1029 1.392 . S
C1028 C1031 1.511 . S
C1029 C1025 1.376 . S
C1029 C1028 1.392 . S
C1029 H1041 0.929 . S
C1030 C1026 1.531 . S
C1030 H1042 0.960 . S
C1030 H1043 0.962 . S
C1030 H1044 0.960 . S
C1031 C1028 1.511 . S
C1031 H1045 0.961 . S
C1031 H1046 0.961 . S
C1031 H1047 0.961 . S
C1032 C1033 1.370 . S
C1032 C1034 1.363 . S
C1032 H1048 0.931 . S
C1033 C1032 1.370 . S
C1033 C1037 1.408 . S
C1034 C1032 1.363 . S
C1034 C1035 1.370 . S
C1034 C1038 1.524 . S
C1035 C1027 1.503 . S
C1035 C1034 1.370 . S
C1035 C1036 1.403 . S
C1036 C1035 1.403 . S
C1036 C1037 1.404 . S
C1036 C1039 1.539 . S
C1037 C1033 1.408 . S
C1037 C1036 1.404 . S
C1037 H1049 0.930 . S
C1038 C1034 1.524 . S
C1038 H1050 0.956 . S
C1038 H1051 0.961 . S
C1038 H1052 0.961 . S
C1039 C1036 1.539 . S
C1039 H1053 0.958 . S
C1039 H1054 0.961 . S
C1039 H1055 0.960 . S
H1040 C1024 0.931 . S
H1041 C1029 0.929 . S
H1042 C1030 0.960 . S
H1043 C1030 0.962 . S
H1044 C1030 0.960 . S
H1045 C1031 0.961 . S
H1046 C1031 0.961 . S
H1047 C1031 0.961 . S
H1048 C1032 0.931 . S
H1049 C1037 0.930 . S
H1050 C1038 0.956 . S
H1051 C1038 0.961 . S
H1052 C1038 0.961 . S
H1053 C1039 0.958 . S
H1054 C1039 0.961 . S
H1055 C1039 0.960 . S
C1056 C1057 1.391 . S
C1056 C1058 1.394 . S
C1056 H1072 0.931 . S
C1057 C1056 1.391 . S
C1057 C1061 1.376 . S
C1058 C1056 1.394 . S
C1058 C1059 1.369 . S
C1058 C1062 1.531 . S
C1059 C1058 1.369 . S
C1059 C1060 1.410 . S
C1059 C1067 1.503 . S
C1060 C1059 1.410 . S
C1060 C1061 1.392 . S
C1060 C1063 1.511 . S
C1061 C1057 1.376 . S
C1061 C1060 1.392 . S
C1061 H1073 0.929 . S
C1062 C1058 1.531 . S
C1062 H1074 0.960 . S
C1062 H1075 0.962 . S
C1062 H1076 0.960 . S
C1063 C1060 1.511 . S
C1063 H1077 0.961 . S
C1063 H1078 0.961 . S
C1063 H1079 0.961 . S
C1064 C1065 1.370 . S
C1064 C1066 1.363 . S
C1064 H1080 0.931 . S
C1065 C1064 1.370 . S
C1065 C1069 1.408 . S
C1066 C1064 1.363 . S
C1066 C1067 1.370 . S
C1066 C1070 1.524 . S
C1067 C1059 1.503 . S
C1067 C1066 1.370 . S
C1067 C1068 1.403 . S
C1068 C1067 1.403 . S
C1068 C1069 1.404 . S
C1068 C1071 1.539 . S
C1069 C1065 1.408 . S
C1069 C1068 1.404 . S
C1069 H1081 0.930 . S
C1070 C1066 1.524 . S
C1070 H1082 0.956 . S
C1070 H1083 0.961 . S
C1070 H1084 0.961 . S
C1071 C1068 1.539 . S
C1071 H1085 0.958 . S
C1071 H1086 0.961 . S
C1071 H1087 0.960 . S
H1072 C1056 0.931 . S
H1073 C1061 0.929 . S
H1074 C1062 0.960 . S
H1075 C1062 0.962 . S
H1076 C1062 0.960 . S
H1077 C1063 0.961 . S
H1078 C1063 0.961 . S
H1079 C1063 0.961 . S
H1080 C1064 0.931 . S
H1081 C1069 0.930 . S
H1082 C1070 0.956 . S
H1083 C1070 0.961 . S
H1084 C1070 0.961 . S
H1085 C1071 0.958 . S
H1086 C1071 0.961 . S
H1087 C1071 0.960 . S
C1088 C1089 1.391 . S
C1088 C1090 1.394 . S
C1088 H1104 0.931 . S
C1089 C1088 1.391 . S
C1089 C1093 1.376 . S
C1090 C1088 1.394 . S
C1090 C1091 1.369 . S
C1090 C1094 1.531 . S
C1091 C1090 1.369 . S
C1091 C1092 1.410 . S
C1091 C1099 1.503 1_545 S
C1092 C1091 1.410 . S
C1092 C1093 1.392 . S
C1092 C1095 1.511 1_545 S
C1093 C1089 1.376 . S
C1093 C1092 1.392 . S
C1093 H1105 0.929 . S
C1094 C1090 1.531 . S
C1094 H1106 0.960 . S
C1094 H1107 0.962 . S
C1094 H1108 0.960 . S
C1095 C1092 1.511 1_565 S
C1095 H1109 0.961 . S
C1095 H1110 0.961 . S
C1095 H1111 0.961 . S
C1096 C1097 1.370 . S
C1096 C1098 1.363 . S
C1096 H1112 0.931 . S
C1097 C1096 1.370 . S
C1097 C1101 1.408 . S
C1098 C1096 1.363 . S
C1098 C1099 1.370 . S
C1098 C1102 1.524 . S
C1099 C1091 1.503 1_565 S
C1099 C1098 1.370 . S
C1099 C1100 1.403 . S
C1100 C1099 1.403 . S
C1100 C1101 1.404 . S
C1100 C1103 1.539 1_565 S
C1101 C1097 1.408 . S
C1101 C1100 1.404 . S
C1101 H1113 0.930 . S
C1102 C1098 1.524 . S
C1102 H1114 0.956 . S
C1102 H1115 0.961 . S
C1102 H1116 0.961 . S
C1103 C1100 1.539 1_545 S
C1103 H1117 0.958 . S
C1103 H1118 0.961 1_545 S
C1103 H1119 0.960 . S
H1104 C1088 0.931 . S
H1105 C1093 0.929 . S
H1106 C1094 0.960 . S
H1107 C1094 0.962 . S
H1108 C1094 0.960 . S
H1109 C1095 0.961 . S
H1110 C1095 0.961 . S
H1111 C1095 0.961 . S
H1112 C1096 0.931 . S
H1113 C1101 0.930 . S
H1114 C1102 0.956 . S
H1115 C1102 0.961 . S
H1116 C1102 0.961 . S
H1117 C1103 0.958 . S
H1118 C1103 0.961 1_565 S
H1119 C1103 0.960 . S
C1120 C1121 1.391 . S
C1120 C1122 1.394 . S
C1120 H1136 0.931 . S
C1121 C1120 1.391 . S
C1121 C1125 1.376 . S
C1122 C1120 1.394 . S
C1122 C1123 1.369 . S
C1122 C1126 1.531 . S
C1123 C1122 1.369 . S
C1123 C1124 1.410 . S
C1123 C1131 1.503 . S
C1124 C1123 1.410 . S
C1124 C1125 1.392 . S
C1124 C1127 1.511 . S
C1125 C1121 1.376 . S
C1125 C1124 1.392 . S
C1125 H1137 0.929 . S
C1126 C1122 1.531 . S
C1126 H1138 0.960 . S
C1126 H1139 0.962 . S
C1126 H1140 0.960 . S
C1127 C1124 1.511 . S
C1127 H1141 0.961 . S
C1127 H1142 0.961 . S
C1127 H1143 0.961 . S
C1128 C1129 1.370 . S
C1128 C1130 1.363 . S
C1128 H1144 0.931 . S
C1129 C1128 1.370 . S
C1129 C1133 1.408 . S
C1130 C1128 1.363 . S
C1130 C1131 1.370 . S
C1130 C1134 1.524 . S
C1131 C1123 1.503 . S
C1131 C1130 1.370 . S
C1131 C1132 1.403 . S
C1132 C1131 1.403 . S
C1132 C1133 1.404 . S
C1132 C1135 1.539 . S
C1133 C1129 1.408 . S
C1133 C1132 1.404 . S
C1133 H1145 0.930 . S
C1134 C1130 1.524 . S
C1134 H1146 0.956 . S
C1134 H1147 0.961 . S
C1134 H1148 0.961 . S
C1135 C1132 1.539 . S
C1135 H1149 0.958 . S
C1135 H1150 0.961 . S
C1135 H1151 0.960 . S
H1136 C1120 0.931 . S
H1137 C1125 0.929 . S
H1138 C1126 0.960 . S
H1139 C1126 0.962 . S
H1140 C1126 0.960 . S
H1141 C1127 0.961 . S
H1142 C1127 0.961 . S
H1143 C1127 0.961 . S
H1144 C1128 0.931 . S
H1145 C1133 0.930 . S
H1146 C1134 0.956 . S
H1147 C1134 0.961 . S
H1148 C1134 0.961 . S
H1149 C1135 0.958 . S
H1150 C1135 0.961 . S
H1151 C1135 0.960 . S
C1152 C1153 1.391 . S
C1152 C1154 1.394 . S
C1152 H1168 0.931 . S
C1153 C1152 1.391 . S
C1153 C1157 1.376 . S
C1154 C1152 1.394 . S
C1154 C1155 1.369 . S
C1154 C1158 1.531 . S
C1155 C1154 1.369 . S
C1155 C1156 1.410 . S
C1155 C1163 1.503 . S
C1156 C1155 1.410 . S
C1156 C1157 1.392 . S
C1156 C1159 1.511 . S
C1157 C1153 1.376 . S
C1157 C1156 1.392 . S
C1157 H1169 0.929 . S
C1158 C1154 1.531 . S
C1158 H1170 0.960 . S
C1158 H1171 0.962 . S
C1158 H1172 0.960 . S
C1159 C1156 1.511 . S
C1159 H1173 0.961 . S
C1159 H1174 0.961 . S
C1159 H1175 0.961 . S
C1160 C1161 1.370 . S
C1160 C1162 1.363 . S
C1160 H1176 0.931 . S
C1161 C1160 1.370 . S
C1161 C1165 1.408 . S
C1162 C1160 1.363 . S
C1162 C1163 1.370 . S
C1162 C1166 1.524 . S
C1163 C1155 1.503 . S
C1163 C1162 1.370 . S
C1163 C1164 1.403 . S
C1164 C1163 1.403 . S
C1164 C1165 1.404 . S
C1164 C1167 1.539 . S
C1165 C1161 1.408 . S
C1165 C1164 1.404 . S
C1165 H1177 0.930 . S
C1166 C1162 1.524 . S
C1166 H1178 0.956 . S
C1166 H1179 0.961 . S
C1166 H1180 0.961 . S
C1167 C1164 1.539 . S
C1167 H1181 0.958 . S
C1167 H1182 0.961 . S
C1167 H1183 0.960 . S
H1168 C1152 0.931 . S
H1169 C1157 0.929 . S
H1170 C1158 0.960 . S
H1171 C1158 0.962 . S
H1172 C1158 0.960 . S
H1173 C1159 0.961 . S
H1174 C1159 0.961 . S
H1175 C1159 0.961 . S
H1176 C1160 0.931 . S
H1177 C1165 0.930 . S
H1178 C1166 0.956 . S
H1179 C1166 0.961 . S
H1180 C1166 0.961 . S
H1181 C1167 0.958 . S
H1182 C1167 0.961 . S
H1183 C1167 0.960 . S
C1184 C1185 1.391 . S
C1184 C1186 1.394 . S
C1184 H1200 0.931 . S
C1185 C1184 1.391 . S
C1185 C1189 1.376 . S
C1186 C1184 1.394 . S
C1186 C1187 1.369 . S
C1186 C1190 1.531 . S
C1187 C1186 1.369 . S
C1187 C1188 1.410 . S
C1187 C1195 1.503 1_545 S
C1188 C1187 1.410 . S
C1188 C1189 1.392 . S
C1188 C1191 1.523 . S
C1189 C1185 1.376 . S
C1189 C1188 1.392 . S
C1189 H1201 0.929 . S
C1190 C1186 1.531 . S
C1190 H1202 0.960 . S
C1190 H1203 0.962 . S
C1190 H1204 0.960 . S
C1191 C1188 1.523 . S
C1191 H1205 0.960 . S
C1191 H1206 0.944 1_545 S
C1191 H1207 0.966 . S
C1192 C1193 1.370 . S
C1192 C1194 1.363 . S
C1192 H1208 0.931 . S
C1193 C1192 1.370 . S
C1193 C1197 1.408 . S
C1194 C1192 1.363 . S
C1194 C1195 1.370 . S
C1194 C1198 1.524 . S
C1195 C1187 1.503 1_565 S
C1195 C1194 1.370 . S
C1195 C1196 1.403 . S
C1196 C1195 1.403 . S
C1196 C1197 1.404 . S
C1196 C1199 1.539 1_565 S
C1197 C1193 1.408 . S
C1197 C1196 1.404 . S
C1197 H1209 0.930 . S
C1198 C1194 1.524 . S
C1198 H1210 0.956 . S
C1198 H1211 0.961 . S
C1198 H1212 0.961 . S
C1199 C1196 1.539 1_545 S
C1199 H1213 0.958 . S
C1199 H1214 0.961 . S
C1199 H1215 0.960 . S
H1200 C1184 0.931 . S
H1201 C1189 0.929 . S
H1202 C1190 0.960 . S
H1203 C1190 0.962 . S
H1204 C1190 0.960 . S
H1205 C1191 0.960 . S
H1206 C1191 0.944 1_565 S
H1207 C1191 0.966 . S
H1208 C1192 0.931 . S
H1209 C1197 0.930 . S
H1210 C1198 0.956 . S
H1211 C1198 0.961 . S
H1212 C1198 0.961 . S
H1213 C1199 0.958 . S
H1214 C1199 0.961 . S
H1215 C1199 0.960 . S
C1216 C1217 1.391 . S
C1216 C1218 1.394 . S
C1216 H1232 0.931 . S
C1217 C1216 1.391 . S
C1217 C1221 1.376 . S
C1218 C1216 1.394 . S
C1218 C1219 1.369 . S
C1218 C1222 1.531 . S
C1219 C1218 1.369 . S
C1219 C1220 1.410 . S
C1219 C1227 1.503 . S
C1220 C1219 1.410 . S
C1220 C1221 1.392 . S
C1220 C1223 1.511 . S
C1221 C1217 1.376 . S
C1221 C1220 1.392 . S
C1221 H1233 0.929 . S
C1222 C1218 1.531 . S
C1222 H1234 0.960 . S
C1222 H1235 0.962 . S
C1222 H1236 0.960 . S
C1223 C1220 1.511 . S
C1223 H1237 0.961 . S
C1223 H1238 0.961 . S
C1223 H1239 0.961 . S
C1224 C1225 1.370 . S
C1224 C1226 1.363 . S
C1224 H1240 0.931 . S
C1225 C1224 1.370 . S
C1225 C1229 1.408 . S
C1226 C1224 1.363 . S
C1226 C1227 1.370 . S
C1226 C1230 1.524 . S
C1227 C1219 1.503 . S
C1227 C1226 1.370 . S
C1227 C1228 1.403 . S
C1228 C1227 1.403 . S
C1228 C1229 1.404 . S
C1228 C1231 1.539 . S
C1229 C1225 1.408 . S
C1229 C1228 1.404 . S
C1229 H1241 0.930 . S
C1230 C1226 1.524 . S
C1230 H1242 0.956 . S
C1230 H1243 0.961 . S
C1230 H1244 0.961 . S
C1231 C1228 1.539 . S
C1231 H1245 0.958 . S
C1231 H1246 0.961 . S
C1231 H1247 0.960 . S
H1232 C1216 0.931 . S
H1233 C1221 0.929 . S
H1234 C1222 0.960 . S
H1235 C1222 0.962 . S
H1236 C1222 0.960 . S
H1237 C1223 0.961 . S
H1238 C1223 0.961 . S
H1239 C1223 0.961 . S
H1240 C1224 0.931 . S
H1241 C1229 0.930 . S
H1242 C1230 0.956 . S
H1243 C1230 0.961 . S
H1244 C1230 0.961 . S
H1245 C1231 0.958 . S
H1246 C1231 0.961 . S
H1247 C1231 0.960 . S
C225 C4 1.222 . S
C233 C186 1.200 . S
C257 C18 1.180 . S
C265 C130 1.221 . S
C289 C200 1.205 . S
C297 C32 1.207 . S
C321 C46 1.230 . S
C329 C214 1.197 . S
C353 C60 1.220 . S
C361 C88 1.205 . S
C385 C144 1.183 . S
C393 C74 1.216 . S
C417 C158 1.178 . S
C425 C102 1.221 . S
C449 C116 1.207 . S
C457 C172 1.212 . S
C481 C40 1.517 . S
C489 C12 1.526 . S
C513 C26 1.526 . S
C521 C54 1.523 . S
C545 C179 1.449 . S
C553 C11 1.476 . S
C577 C25 1.438 . S
C585 C165 1.475 . S
C609 C67 1.484 . S
C617 C39 1.456 . S
C641 C151 1.442 . S
C649 C53 1.478 . S
C673 C19 1.315 . S
C681 C5 1.384 . S
C705 C47 1.377 . S
C713 C33 1.393 . S
C737 C145 1.426 . S
C745 C61 1.365 . S
C769 C109 1.521 . S
C777 C81 1.524 . S
C801 C95 1.515 . S
C809 C123 1.528 . S
C833 C222 1.508 . S
C841 C82 1.511 . S
C865 C96 1.511 . S
C873 C208 1.515 . S
C897 C138 1.504 . S
C905 C110 1.512 . S
C929 C124 1.507 . S
C937 C194 1.511 . S
C961 C89 1.363 . S
C969 C75 1.344 . S
C993 C117 1.368 . S
C1001 C103 1.342 . S
C1025 C131 1.304 . S
C1033 C187 1.350 . S
C1057 C152 1.524 . S
C1065 C166 1.524 . S
C1089 C180 1.517 . S
C1097 C68 1.526 . S
C1121 C173 1.319 . S
C1129 C159 1.377 . S
C1153 C207 1.546 . S
C1161 C193 1.536 . S
C1185 C137 1.508 . S
C1193 C221 1.524 . S
C1217 C215 1.355 . S
C1225 C201 1.306 . S
