# Generated by pormake.
# Topology uop, (4)-cn, num edge types: 1
# Building blocks:
#     Node 0, Type 0, BuildingBlock: QUQFOY_clean_sbu_1, # of connection points: 4
#     Node 1, Type 0, BuildingBlock: QUQFOY_clean_sbu_1, # of connection points: 4
#     Node 2, Type 0, BuildingBlock: QUQFOY_clean_sbu_1, # of connection points: 4
#     Node 3, Type 0, BuildingBlock: QUQFOY_clean_sbu_1, # of connection points: 4
#     Node 4, Type 0, BuildingBlock: QUQFOY_clean_sbu_1, # of connection points: 4
#     Node 5, Type 0, BuildingBlock: QUQFOY_clean_sbu_1, # of connection points: 4
#     Node 6, Type 0, BuildingBlock: QUQFOY_clean_sbu_1, # of connection points: 4
#     Node 7, Type 0, BuildingBlock: QUQFOY_clean_sbu_1, # of connection points: 4
#     Node 8, Type 0, BuildingBlock: QUQFOY_clean_sbu_1, # of connection points: 4
#     Node 9, Type 0, BuildingBlock: QUQFOY_clean_sbu_1, # of connection points: 4
#     Node 10, Type 0, BuildingBlock: QUQFOY_clean_sbu_1, # of connection points: 4
#     Node 11, Type 0, BuildingBlock: QUQFOY_clean_sbu_1, # of connection points: 4
#     Edge 12, Type (0, 0), BuildingBlock: CIFDUS_clean_linker_0, # of connection points: 2
#     Edge 13, Type (0, 0), BuildingBlock: CIFDUS_clean_linker_0, # of connection points: 2
#     Edge 14, Type (0, 0), BuildingBlock: CIFDUS_clean_linker_0, # of connection points: 2
#     Edge 15, Type (0, 0), BuildingBlock: CIFDUS_clean_linker_0, # of connection points: 2
#     Edge 16, Type (0, 0), BuildingBlock: CIFDUS_clean_linker_0, # of connection points: 2
#     Edge 17, Type (0, 0), BuildingBlock: CIFDUS_clean_linker_0, # of connection points: 2
#     Edge 18, Type (0, 0), BuildingBlock: CIFDUS_clean_linker_0, # of connection points: 2
#     Edge 19, Type (0, 0), BuildingBlock: CIFDUS_clean_linker_0, # of connection points: 2
#     Edge 20, Type (0, 0), BuildingBlock: CIFDUS_clean_linker_0, # of connection points: 2
#     Edge 21, Type (0, 0), BuildingBlock: CIFDUS_clean_linker_0, # of connection points: 2
#     Edge 22, Type (0, 0), BuildingBlock: CIFDUS_clean_linker_0, # of connection points: 2
#     Edge 23, Type (0, 0), BuildingBlock: CIFDUS_clean_linker_0, # of connection points: 2
#     Edge 24, Type (0, 0), BuildingBlock: CIFDUS_clean_linker_0, # of connection points: 2
#     Edge 25, Type (0, 0), BuildingBlock: CIFDUS_clean_linker_0, # of connection points: 2
#     Edge 26, Type (0, 0), BuildingBlock: CIFDUS_clean_linker_0, # of connection points: 2
#     Edge 27, Type (0, 0), BuildingBlock: CIFDUS_clean_linker_0, # of connection points: 2
#     Edge 28, Type (0, 0), BuildingBlock: CIFDUS_clean_linker_0, # of connection points: 2
#     Edge 29, Type (0, 0), BuildingBlock: CIFDUS_clean_linker_0, # of connection points: 2
#     Edge 30, Type (0, 0), BuildingBlock: CIFDUS_clean_linker_0, # of connection points: 2
#     Edge 31, Type (0, 0), BuildingBlock: CIFDUS_clean_linker_0, # of connection points: 2
#     Edge 32, Type (0, 0), BuildingBlock: CIFDUS_clean_linker_0, # of connection points: 2
#     Edge 33, Type (0, 0), BuildingBlock: CIFDUS_clean_linker_0, # of connection points: 2
#     Edge 34, Type (0, 0), BuildingBlock: CIFDUS_clean_linker_0, # of connection points: 2
#     Edge 35, Type (0, 0), BuildingBlock: CIFDUS_clean_linker_0, # of connection points: 2
# Relax obj value: 0.098
# Max RMSD: 0.120
# Mean RMSD: 0.120
data_MOF--net-uop--node1-QUQFOY_clean_sbu_1--edge1-CIFDUS_clean_linker_0
_symmetry_space_group_name_H-M    P1
_symmetry_Int_Tables_number       1
_symmetry_cell_setting            triclinic
loop_
_symmetry_equiv_pos_as_xyz
'x, y, z'
_cell_length_a     28.961015
_cell_length_b     28.963144
_cell_length_c     45.367329
_cell_angle_alpha  90.0944
_cell_angle_beta   89.67576
_cell_angle_gamma 119.94518
loop_
_atom_site_label
_atom_site_type_symbol
_atom_site_fract_x
_atom_site_fract_y
_atom_site_fract_z
_atom_type_partial_charge
O0 O 0.22299 0.4664 0.22972 0.0
Cd1 Cd 0.23135 0.39953 0.23167 0.0
Cd2 Cd 0.2708 0.44334 0.28268 0.0
O3 O 0.23051 0.48519 0.27718 0.0
O4 O 0.18071 0.34922 0.20207 0.0
O5 O 0.1718 0.33355 0.25011 0.0
C6 C 0.1531 0.31923 0.22379 0.0
C7 C 0.27564 0.39861 0.32472 0.0
C8 C 0.22035 0.49361 0.25105 0.0
C9 C 0.34559 0.45093 0.23487 0.0
O10 O 0.33845 0.47291 0.25725 0.0
O11 O 0.30648 0.41133 0.22272 0.0
O12 O 0.29994 0.44996 0.32343 0.0
O13 O 0.24454 0.37225 0.30317 0.0
O14 O 0.75614 0.21974 0.56867 0.0
Cd15 Cd 0.83279 0.23229 0.57192 0.0
Cd16 Cd 0.82212 0.26919 0.62251 0.0
O17 O 0.7406 0.22276 0.61602 0.0
O18 O 0.83661 0.18457 0.54158 0.0
O19 O 0.84159 0.17355 0.58949 0.0
C20 C 0.83897 0.15636 0.56288 0.0
C21 C 0.87053 0.28387 0.6665 0.0
C22 C 0.72393 0.21344 0.58951 0.0
C23 C 0.88738 0.34641 0.57546 0.0
O24 O 0.8553 0.33649 0.59679 0.0
O25 O 0.89332 0.30948 0.56426 0.0
O26 O 0.83712 0.30058 0.66304 0.0
O27 O 0.87286 0.254 0.64602 0.0
O28 O 0.53327 0.75521 0.90495 0.0
Cd29 Cd 0.59707 0.83209 0.9073 0.0
Cd30 Cd 0.54956 0.82332 0.9584 0.0
O31 O 0.51412 0.7416 0.95233 0.0
O32 O 0.64687 0.83495 0.87597 0.0
O33 O 0.66609 0.84233 0.92348 0.0
C34 C 0.67908 0.83882 0.89659 0.0
C35 C 0.58231 0.872 1.00251 0.0
C36 C 0.50707 0.72391 0.92601 0.0
C37 C 0.53735 0.88698 0.91047 0.0
O38 O 0.51586 0.85632 0.93237 0.0
O39 O 0.57966 0.89185 0.89897 0.0
O40 O 0.5323 0.83881 0.99872 0.0
O41 O 0.61492 0.87404 0.98231 0.0
O42 O 0.77146 0.53195 0.24518 0.0
Cd43 Cd 0.75865 0.59596 0.2464 0.0
Cd44 Cd 0.72342 0.55403 0.29852 0.0
O45 O 0.76589 0.51425 0.29273 0.0
O46 O 0.80511 0.6441 0.21448 0.0
O47 O 0.81779 0.66541 0.26177 0.0
C48 C 0.83392 0.67704 0.23475 0.0
C49 C 0.71948 0.60109 0.33983 0.0
C50 C 0.77595 0.50593 0.26645 0.0
C51 C 0.64431 0.53787 0.25148 0.0
O52 O 0.6544 0.51988 0.27453 0.0
O53 O 0.68135 0.57765 0.238 0.0
O54 O 0.69643 0.54975 0.33982 0.0
O55 O 0.74874 0.62633 0.31729 0.0
O56 O 0.23187 0.77504 0.56713 0.0
Cd57 Cd 0.15545 0.76211 0.57265 0.0
Cd58 Cd 0.17042 0.72704 0.62232 0.0
O59 O 0.25171 0.77034 0.61344 0.0
O60 O 0.14954 0.80819 0.54209 0.0
O61 O 0.14832 0.82212 0.58997 0.0
C62 C 0.14926 0.83789 0.56322 0.0
C63 C 0.12192 0.72422 0.66457 0.0
C64 C 0.26584 0.78031 0.58645 0.0
C65 C 0.10065 0.6477 0.57751 0.0
O66 O 0.13347 0.65803 0.5983 0.0
O67 O 0.09484 0.68455 0.56617 0.0
O68 O 0.15061 0.70152 0.66402 0.0
O69 O 0.12446 0.75273 0.64205 0.0
O70 O 0.4596 0.23524 0.89205 0.0
Cd71 Cd 0.39619 0.15961 0.89996 0.0
Cd72 Cd 0.45037 0.17717 0.94777 0.0
O73 O 0.48516 0.25775 0.93799 0.0
O74 O 0.34046 0.15155 0.87162 0.0
O75 O 0.3319 0.15468 0.91999 0.0
C76 C 0.31347 0.15327 0.8939 0.0
C77 C 0.41719 0.13214 0.99284 0.0
C78 C 0.48857 0.27041 0.91083 0.0
C79 C 0.45582 0.10494 0.90328 0.0
O80 O 0.48146 0.14048 0.92242 0.0
O81 O 0.41132 0.09755 0.894 0.0
O82 O 0.46735 0.16488 0.98868 0.0
O83 O 0.38481 0.1289 0.97237 0.0
O84 O 0.56275 0.76894 0.56774 0.0
Cd85 Cd 0.62991 0.76402 0.55753 0.0
Cd86 Cd 0.57301 0.72417 0.51114 0.0
O87 O 0.53665 0.76819 0.52219 0.0
O88 O 0.68586 0.81582 0.58442 0.0
O89 O 0.68804 0.82674 0.53602 0.0
C90 C 0.70797 0.84563 0.56164 0.0
C91 C 0.59978 0.70859 0.46486 0.0
C92 C 0.53282 0.77512 0.54967 0.0
C93 C 0.57824 0.65072 0.55431 0.0
O94 O 0.54794 0.65841 0.53748 0.0
O95 O 0.6231 0.68966 0.56171 0.0
O96 O 0.55027 0.69079 0.47135 0.0
O97 O 0.63491 0.74054 0.48348 0.0
O98 O 0.79467 0.56807 0.89221 0.0
Cd99 Cd 0.86724 0.63522 0.88325 0.0
Cd100 Cd 0.85232 0.57806 0.83648 0.0
O101 O 0.77149 0.54125 0.8465 0.0
O102 O 0.86994 0.68906 0.91155 0.0
O103 O 0.86387 0.69524 0.86325 0.0
C104 C 0.86342 0.71302 0.88937 0.0
C105 C 0.89614 0.6047 0.79053 0.0
C106 C 0.7595 0.53781 0.87381 0.0
C107 C 0.92866 0.58301 0.88132 0.0
O108 O 0.89206 0.55324 0.86362 0.0
O109 O 0.93415 0.62776 0.8888 0.0
O110 O 0.8647 0.5552 0.79699 0.0
O111 O 0.8984 0.63986 0.80897 0.0
O112 O 0.22141 0.78062 0.21112 0.0
Cd113 Cd 0.22546 0.85404 0.20998 0.0
Cd114 Cd 0.27202 0.85451 0.15935 0.0
O115 O 0.23367 0.77226 0.16384 0.0
O116 O 0.17469 0.84834 0.24144 0.0
O117 O 0.16158 0.85579 0.19412 0.0
C118 C 0.1442 0.84877 0.22098 0.0
C119 C 0.28177 0.90452 0.11658 0.0
C120 C 0.22175 0.75236 0.1897 0.0
C121 C 0.33951 0.92118 0.20935 0.0
O122 O 0.3359 0.89312 0.18706 0.0
O123 O 0.29823 0.91952 0.22022 0.0
O124 O 0.30718 0.87884 0.11979 0.0
O125 O 0.24706 0.89826 0.13654 0.0
O126 O 0.44336 0.21873 0.54476 0.0
Cd127 Cd 0.37678 0.22741 0.54246 0.0
Cd128 Cd 0.42762 0.27383 0.49249 0.0
O129 O 0.46569 0.22974 0.49771 0.0
O130 O 0.32901 0.17801 0.57357 0.0
O131 O 0.30992 0.1657 0.52608 0.0
C132 C 0.29799 0.14842 0.55287 0.0
C133 C 0.39921 0.29368 0.44798 0.0
C134 C 0.47165 0.21695 0.52372 0.0
C135 C 0.43029 0.34207 0.54278 0.0
O136 O 0.45522 0.33706 0.52107 0.0
O137 O 0.3883 0.30198 0.55262 0.0
O138 O 0.4489 0.3118 0.45366 0.0
O139 O 0.36479 0.25986 0.4664 0.0
O140 O 0.22095 0.44286 0.8829 0.0
Cd141 Cd 0.14584 0.37618 0.88101 0.0
Cd142 Cd 0.15073 0.42152 0.83025 0.0
O143 O 0.23288 0.46198 0.83549 0.0
O144 O 0.14757 0.32799 0.91164 0.0
O145 O 0.14108 0.30992 0.86393 0.0
C146 C 0.14669 0.29764 0.89055 0.0
C147 C 0.10072 0.37929 0.78797 0.0
C148 C 0.25124 0.46982 0.86164 0.0
C149 C 0.08411 0.42884 0.87866 0.0
O150 O 0.1138 0.45132 0.85649 0.0
O151 O 0.08265 0.38823 0.89023 0.0
O152 O 0.12846 0.43053 0.78989 0.0
O153 O 0.10496 0.35156 0.80899 0.0
O154 O 0.76762 0.21733 0.22209 0.0
Cd155 Cd 0.76117 0.14312 0.21829 0.0
Cd156 Cd 0.7212 0.14923 0.16834 0.0
O157 O 0.76252 0.23113 0.17477 0.0
O158 O 0.8134 0.14414 0.24691 0.0
O159 O 0.82237 0.14151 0.19851 0.0
C160 C 0.84198 0.14574 0.22457 0.0
C161 C 0.71445 0.10063 0.12547 0.0
C162 C 0.77174 0.24844 0.2012 0.0
C163 C 0.64742 0.07938 0.21551 0.0
O164 O 0.65433 0.11075 0.19435 0.0
O165 O 0.68686 0.07779 0.22645 0.0
O166 O 0.69064 0.1281 0.12777 0.0
O167 O 0.7462 0.10448 0.14645 0.0
H168 H 0.20816 0.70481 0.24325 0.0
H169 H 0.21678 0.67807 0.1502 0.0
H170 H 0.21205 0.59316 0.16114 0.0
H171 H 0.21259 0.53027 0.19713 0.0
H172 H 0.20845 0.5593 0.29025 0.0
H173 H 0.20382 0.63947 0.27915 0.0
C174 C 0.20842 0.68025 0.22525 0.0
C175 C 0.21311 0.69816 0.19587 0.0
C176 C 0.20676 0.63198 0.23173 0.0
C177 C 0.21338 0.66555 0.17298 0.0
C178 C 0.21079 0.61699 0.17924 0.0
C179 C 0.21001 0.55366 0.21508 0.0
C180 C 0.2111 0.53869 0.24456 0.0
C181 C 0.20853 0.60034 0.20855 0.0
C182 C 0.20782 0.56978 0.2674 0.0
C183 C 0.20532 0.61576 0.26106 0.0
H184 H 0.682 0.20444 0.53485 0.0
H185 H 0.64311 0.19826 0.62733 0.0
H186 H 0.55867 0.19303 0.61468 0.0
H187 H 0.50053 0.19932 0.57771 0.0
H188 H 0.54189 0.21044 0.48537 0.0
H189 H 0.62062 0.20413 0.49771 0.0
C190 C 0.65483 0.20118 0.55232 0.0
C191 C 0.66929 0.20216 0.58208 0.0
C192 C 0.60695 0.19952 0.5449 0.0
C193 C 0.63329 0.1978 0.60429 0.0
C194 C 0.58503 0.19501 0.59705 0.0
C195 C 0.52629 0.19968 0.56017 0.0
C196 C 0.51533 0.20582 0.5306 0.0
C197 C 0.57214 0.19725 0.56747 0.0
C198 C 0.5493 0.20602 0.50828 0.0
C199 C 0.59447 0.20256 0.51535 0.0
H200 H 0.47422 0.68012 0.87163 0.0
H201 H 0.44115 0.64462 0.96434 0.0
H202 H 0.3618 0.56002 0.9522 0.0
H203 H 0.29746 0.50077 0.91554 0.0
H204 H 0.32804 0.53863 0.82291 0.0
H205 H 0.41311 0.6176 0.83484 0.0
C206 C 0.45019 0.65364 0.88927 0.0
C207 C 0.46363 0.66912 0.91894 0.0
C208 C 0.40389 0.60567 0.88213 0.0
C209 C 0.43183 0.63401 0.94137 0.0
C210 C 0.38628 0.58566 0.93442 0.0
C211 C 0.32291 0.52583 0.89785 0.0
C212 C 0.30594 0.51382 0.86831 0.0
C213 C 0.37122 0.57178 0.90491 0.0
C214 C 0.33979 0.54687 0.8458 0.0
C215 C 0.38843 0.59217 0.85263 0.0
H216 H 0.78946 0.47377 0.21233 0.0
H217 H 0.78407 0.43713 0.30496 0.0
H218 H 0.78736 0.35653 0.29269 0.0
H219 H 0.78307 0.29247 0.25568 0.0
H220 H 0.78385 0.32724 0.16308 0.0
H221 H 0.79132 0.41286 0.17545 0.0
C222 C 0.78972 0.44865 0.22996 0.0
C223 C 0.78612 0.46151 0.2596 0.0
C224 C 0.79027 0.40174 0.22272 0.0
C225 C 0.78667 0.42832 0.282 0.0
C226 C 0.78831 0.38205 0.27497 0.0
C227 C 0.78547 0.31895 0.23812 0.0
C228 C 0.78245 0.30303 0.20842 0.0
C229 C 0.78874 0.36771 0.2454 0.0
C230 C 0.7858 0.33815 0.18608 0.0
C231 C 0.78998 0.38714 0.19315 0.0
H232 H 0.46441 0.79657 0.51895 0.0
H233 H 0.50508 0.7748 0.60725 0.0
H234 H 0.42911 0.77932 0.62695 0.0
H235 H 0.34601 0.78114 0.61887 0.0
H236 H 0.30624 0.80431 0.5306 0.0
H237 H 0.38677 0.80826 0.51152 0.0
C238 C 0.45704 0.79343 0.54252 0.0
C239 C 0.49024 0.78469 0.56142 0.0
C240 C 0.41303 0.79608 0.55388 0.0
C241 C 0.48019 0.78125 0.59201 0.0
C242 C 0.43654 0.78371 0.6034 0.0
C243 C 0.35538 0.78796 0.59555 0.0
C244 C 0.31948 0.79167 0.57628 0.0
C245 C 0.40193 0.78991 0.5845 0.0
C246 C 0.33266 0.80075 0.54607 0.0
C247 C 0.37879 0.80289 0.53501 0.0
H248 H 0.56485 0.35376 0.94282 0.0
H249 H 0.50756 0.30642 0.85404 0.0
H250 H 0.58417 0.3865 0.83466 0.0
H251 H 0.67217 0.46602 0.84237 0.0
H252 H 0.72863 0.51384 0.93124 0.0
H253 H 0.64797 0.43831 0.9508 0.0
C254 C 0.56862 0.36133 0.91928 0.0
C255 C 0.53062 0.32352 0.90002 0.0
C256 C 0.61317 0.40757 0.9081 0.0
C257 C 0.53625 0.33441 0.86952 0.0
C258 C 0.58028 0.38026 0.85831 0.0
C259 C 0.66656 0.4603 0.86601 0.0
C260 C 0.70697 0.49541 0.88516 0.0
C261 C 0.61977 0.41647 0.87731 0.0
C262 C 0.69857 0.48745 0.91581 0.0
C263 C 0.65234 0.44405 0.92713 0.0
H264 H 0.59209 0.58353 0.22607 0.0
H265 H 0.57296 0.43267 0.25393 0.0
H266 H 0.47752 0.38894 0.24444 0.0
H267 H 0.39806 0.39662 0.23631 0.0
H268 H 0.41564 0.54923 0.21468 0.0
H269 H 0.51269 0.58916 0.21278 0.0
C270 C 0.56703 0.54092 0.22936 0.0
C271 C 0.58903 0.51138 0.24096 0.0
C272 C 0.51178 0.51643 0.225 0.0
C273 C 0.55645 0.45624 0.24537 0.0
C274 C 0.50195 0.4312 0.23992 0.0
C275 C 0.4233 0.43808 0.23009 0.0
C276 C 0.40046 0.47003 0.22527 0.0
C277 C 0.47889 0.46125 0.23084 0.0
C278 C 0.43299 0.52406 0.21809 0.0
C279 C 0.48832 0.54691 0.21732 0.0
H280 H 0.99538 0.59337 0.56478 0.0
H281 H 0.13558 0.57787 0.56959 0.0
H282 H 0.08147 0.48151 0.56317 0.0
H283 H 0.99323 0.4009 0.56453 0.0
H284 H 0.85264 0.41603 0.56612 0.0
H285 H 0.90728 0.51275 0.56111 0.0
C286 C 0.01395 0.56885 0.56359 0.0
C287 C 0.069 0.59215 0.56775 0.0
C288 C 0.9823 0.51324 0.56133 0.0
C289 C 0.09298 0.56031 0.56661 0.0
C290 C 0.06211 0.50531 0.56301 0.0
C291 C 0.97476 0.42544 0.56284 0.0
C292 C 0.91938 0.40193 0.56566 0.0
C293 C 0.00655 0.48112 0.56155 0.0
C294 C 0.89547 0.43376 0.56403 0.0
C295 C 0.92664 0.48896 0.56131 0.0
H296 H 0.40142 0.99799 0.89676 0.0
H297 H 0.55848 0.13578 0.89064 0.0
H298 H 0.59794 0.07859 0.88645 0.0
H299 H 0.5887 0.99019 0.89314 0.0
H300 H 0.43238 0.85353 0.90557 0.0
H301 H 0.3915 0.90875 0.89825 0.0
C302 C 0.44405 0.0152 0.8936 0.0
C303 C 0.47715 0.07063 0.89404 0.0
C304 C 0.46661 0.98213 0.89277 0.0
C305 C 0.53244 0.09293 0.89044 0.0
C306 C 0.55499 0.06032 0.88818 0.0
C307 C 0.54569 0.9725 0.89339 0.0
C308 C 0.51349 0.91827 0.89999 0.0
C309 C 0.52267 0.00495 0.8906 0.0
C310 C 0.45781 0.89551 0.9007 0.0
C311 C 0.43446 0.92702 0.8966 0.0
H312 H 0.47941 0.57342 0.5686 0.0
H313 H 0.64025 0.60457 0.55667 0.0
H314 H 0.60807 0.50863 0.55604 0.0
H315 H 0.53274 0.41747 0.55024 0.0
H316 H 0.3719 0.38629 0.56235 0.0
H317 H 0.40545 0.48103 0.57205 0.0
C318 C 0.50746 0.55903 0.56668 0.0
C319 C 0.56189 0.59549 0.56227 0.0
C320 C 0.48856 0.50413 0.56599 0.0
C321 C 0.59819 0.57696 0.56013 0.0
C322 C 0.57972 0.52223 0.55948 0.0
C323 C 0.50521 0.43141 0.55564 0.0
C324 C 0.45002 0.39561 0.55508 0.0
C325 C 0.5248 0.48565 0.56104 0.0
C326 C 0.41453 0.41344 0.56258 0.0
C327 C 0.4337 0.46753 0.56792 0.0
H328 H 0.90407 0.48404 0.89721 0.0
H329 H 0.03667 0.64309 0.88541 0.0
H330 H 0.09878 0.6089 0.88774 0.0
H331 H 0.1129 0.53201 0.88449 0.0
H332 H 0.98038 0.37299 0.89662 0.0
H333 H 0.92019 0.40886 0.90334 0.0
C334 C 0.94672 0.51127 0.89596 0.0
C335 C 0.96609 0.56574 0.89075 0.0
C336 C 0.98179 0.49122 0.89703 0.0
C337 C 0.02117 0.60102 0.88948 0.0
C338 C 0.0565 0.58139 0.89052 0.0
C339 C 0.07099 0.50543 0.88929 0.0
C340 C 0.05057 0.45004 0.88959 0.0
C341 C 0.03695 0.52634 0.89297 0.0
C342 C 0.99665 0.41575 0.89626 0.0
C343 C 0.96233 0.43624 0.89987 0.0
H344 H 0.41336 0.89444 0.22216 0.0
H345 H 0.38453 0.0267 0.22209 0.0
H346 H 0.47994 0.08887 0.22892 0.0
H347 H 0.57183 0.10528 0.22575 0.0
H348 H 0.60059 0.97295 0.22631 0.0
H349 H 0.50446 0.91043 0.22912 0.0
C350 C 0.42801 0.93682 0.22451 0.0
C351 C 0.39272 0.95647 0.22129 0.0
C352 C 0.48261 0.97194 0.22823 0.0
C353 C 0.41136 0.01107 0.22458 0.0
C354 C 0.46581 0.04647 0.22822 0.0
C355 C 0.55689 0.06274 0.22736 0.0
C356 C 0.5926 0.0433 0.22543 0.0
C357 C 0.50189 0.02741 0.22873 0.0
C358 C 0.57349 0.98846 0.2278 0.0
C359 C 0.51866 0.95286 0.22913 0.0
H360 H 0.37101 0.43272 0.35021 0.0
H361 H 0.20926 0.30232 0.35139 0.0
H362 H 0.23257 0.25731 0.38953 0.0
H363 H 0.2999 0.25587 0.42302 0.0
H364 H 0.4631 0.3839 0.4173 0.0
H365 H 0.43849 0.42837 0.38039 0.0
C366 C 0.34071 0.39464 0.35901 0.0
C367 C 0.28823 0.3714 0.34846 0.0
C368 C 0.35492 0.36822 0.37997 0.0
C369 C 0.2498 0.32129 0.35942 0.0
C370 C 0.26322 0.29552 0.38115 0.0
C371 C 0.33009 0.29322 0.41347 0.0
C372 C 0.38336 0.31637 0.42311 0.0
C373 C 0.31579 0.31859 0.39162 0.0
C374 C 0.42191 0.36479 0.41034 0.0
C375 C 0.40784 0.3906 0.38928 0.0
H376 H 0.93329 0.24475 0.68828 0.0
H377 H 0.89612 0.37063 0.70013 0.0
H378 H 0.96557 0.41217 0.73701 0.0
H379 H 0.03828 0.41462 0.76546 0.0
H380 H 0.07137 0.28565 0.75842 0.0
H381 H 0.00278 0.24374 0.72018 0.0
C382 C 0.94011 0.28095 0.69917 0.0
C383 C 0.9093 0.30441 0.69128 0.0
C384 C 0.97992 0.3045 0.72105 0.0
C385 C 0.91869 0.3513 0.70576 0.0
C386 C 0.95879 0.37544 0.7268 0.0
C387 C 0.03077 0.37752 0.75537 0.0
C388 C 0.06059 0.35382 0.76427 0.0
C389 C 0.98996 0.35277 0.73442 0.0
C390 C 0.04933 0.30495 0.75167 0.0
C391 C 0.01 0.28097 0.72988 0.0
H392 H 0.68363 0.9344 1.02491 0.0
H393 H 0.52059 0.89786 1.03576 0.0
H394 H 0.54776 0.96704 0.07294 0.0
H395 H 0.61733 0.03914 0.10205 0.0
H396 H 0.77926 0.07154 0.09596 0.0
H397 H 0.75339 0.00345 0.05732 0.0
C398 C 0.65408 0.94131 1.03564 0.0
C399 C 0.60005 0.91074 1.02739 0.0
C400 C 0.66989 0.98095 0.05768 0.0
C401 C 0.56232 0.92025 1.04166 0.0
C402 C 0.57785 0.96019 0.06288 0.0
C403 C 0.64709 0.03163 0.09207 0.0
C404 C 0.70034 0.06109 0.10137 0.0
C405 C 0.63148 0.99108 0.07087 0.0
C406 C 0.73813 0.04979 0.0889 0.0
C407 C 0.72325 0.01074 0.06689 0.0
H408 H 0.69868 0.74531 0.43894 0.0
H409 H 0.53406 0.62083 0.4331 0.0
H410 H 0.55723 0.57597 0.39544 0.0
H411 H 0.62403 0.56963 0.36508 0.0
H412 H 0.78727 0.69681 0.36629 0.0
H413 H 0.7652 0.74274 0.40476 0.0
C414 C 0.66785 0.70875 0.42914 0.0
C415 C 0.61462 0.68661 0.43905 0.0
C416 C 0.68134 0.68315 0.40688 0.0
C417 C 0.57524 0.63919 0.42595 0.0
C418 C 0.58848 0.61312 0.40447 0.0
C419 C 0.65486 0.60727 0.37392 0.0
C420 C 0.70742 0.62927 0.36337 0.0
C421 C 0.6414 0.63427 0.39505 0.0
C422 C 0.74664 0.67881 0.37435 0.0
C423 C 0.73394 0.70509 0.39627 0.0
H424 H 0.06034 0.62937 0.69085 0.0
H425 H 0.09328 0.7917 0.69114 0.0
H426 H 0.0257 0.76966 0.72992 0.0
H427 H 0.95736 0.70332 0.76436 0.0
H428 H 0.92015 0.53938 0.75941 0.0
H429 H 0.98833 0.56269 0.72175 0.0
C430 C 0.05303 0.66004 0.6996 0.0
C431 C 0.08256 0.71235 0.68865 0.0
C432 C 0.01272 0.64653 0.72089 0.0
C433 C 0.0715 0.7513 0.69951 0.0
C434 C 0.03273 0.7386 0.7216 0.0
C435 C 0.9638 0.67266 0.75478 0.0
C436 C 0.93343 0.61958 0.7649 0.0
C437 C 0.00295 0.68621 0.7325 0.0
C438 C 0.9424 0.58043 0.75208 0.0
C439 C 0.9818 0.59377 0.7306 0.0
H440 H 0.38042 0.96967 0.09535 0.0
H441 H 0.21712 0.93051 0.08495 0.0
H442 H 0.244 0.99817 1.04594 0.0
H443 H 0.3149 0.0681 1.01411 0.0
H444 H 0.47871 0.11105 1.02894 0.0
H445 H 0.45084 0.04313 0.06698 0.0
C446 C 0.35063 0.97569 0.08439 0.0
C447 C 0.29673 0.94439 0.09256 0.0
C448 C 0.36666 0.0159 0.06292 0.0
C449 C 0.25879 0.95372 0.07879 0.0
C450 C 0.27423 0.99251 0.05656 0.0
C451 C 0.34447 0.06295 1.02592 0.0
C452 C 0.39893 0.09485 1.01848 0.0
C453 C 0.32818 0.02393 1.04837 0.0
C454 C 0.43663 0.08757 1.03415 0.0
C455 C 0.42072 0.04835 0.05586 0.0
H456 H 0.91832 0.17254 0.18234 0.0
H457 H 0.89285 0.15385 0.27642 0.0
H458 H 0.98884 0.19951 0.28438 0.0
H459 H 0.07924 0.2576 0.26507 0.0
H460 H 0.1043 0.27969 0.17107 0.0
H461 H 0.00961 0.21934 0.1627 0.0
C462 C 0.93369 0.17719 0.20455 0.0
C463 C 0.89841 0.16057 0.22874 0.0
C464 C 0.98906 0.20489 0.20904 0.0
C465 C 0.91908 0.16675 0.25738 0.0
C466 C 0.97406 0.19314 0.26199 0.0
C467 C 0.06422 0.24827 0.24273 0.0
C468 C 0.09871 0.27391 0.21878 0.0
C469 C 0.00939 0.21445 0.23806 0.0
C470 C 0.07858 0.26104 0.18996 0.0
C471 C 0.02432 0.22661 0.18512 0.0
H472 H 0.832 0.08289 0.60288 0.0
H473 H 0.82726 0.10833 0.50948 0.0
H474 H 0.79399 0.01404 0.50021 0.0
H475 H 0.75241 0.92258 0.51934 0.0
H476 H 0.75471 0.8968 0.61287 0.0
H477 H 0.80361 0.99273 0.62119 0.0
C478 C 0.82489 0.06808 0.58043 0.0
C479 C 0.83119 0.10255 0.557 0.0
C480 C 0.80471 0.01344 0.57525 0.0
C481 C 0.82221 0.08267 0.52802 0.0
C482 C 0.80294 0.02859 0.52266 0.0
C483 C 0.76478 0.9379 0.54146 0.0
C484 C 0.74899 0.90244 0.56547 0.0
C485 C 0.7919 0.99325 0.54622 0.0
C486 C 0.76576 0.9231 0.59397 0.0
C487 C 0.79354 0.97807 0.59881 0.0
H488 H 0.8287 0.75756 0.84857 0.0
H489 H 0.85956 0.75802 0.94156 0.0
H490 H 0.81118 0.80518 0.95174 0.0
H491 H 0.74757 0.83235 0.93517 0.0
H492 H 0.71424 0.82893 0.84233 0.0
H493 H 0.77656 0.79777 0.83123 0.0
C494 C 0.8261 0.76921 0.87098 0.0
C495 C 0.84697 0.75339 0.89429 0.0
C496 C 0.79697 0.79518 0.87681 0.0
C497 C 0.84341 0.76913 0.92319 0.0
C498 C 0.81544 0.79591 0.92908 0.0
C499 C 0.75485 0.826 0.91245 0.0
C500 C 0.72547 0.83205 0.8897 0.0
C501 C 0.79004 0.80697 0.90622 0.0
C502 C 0.73578 0.82401 0.86035 0.0
C503 C 0.77135 0.80598 0.85395 0.0
H504 H 0.91306 0.74019 0.27268 0.0
H505 H 0.87523 0.71476 0.18009 0.0
H506 H 0.96865 0.77415 0.1674 0.0
H507 H 0.06244 0.82083 0.18265 0.0
H508 H 0.10047 0.84203 0.27529 0.0
H509 H 0.00591 0.79777 0.28782 0.0
C510 C 0.925 0.74869 0.24973 0.0
C511 C 0.88731 0.72237 0.2274 0.0
C512 C 0.97912 0.78171 0.24255 0.0
C513 C 0.9035 0.734 0.19775 0.0
C514 C 0.95703 0.76784 0.19045 0.0
C515 C 0.0501 0.81702 0.20555 0.0
C516 C 0.08847 0.83399 0.22798 0.0
C517 C 0.99548 0.79006 0.21266 0.0
C518 C 0.07175 0.82879 0.25757 0.0
C519 C 0.0176 0.80327 0.26478 0.0
H520 H 0.16878 0.9168 0.60242 0.0
H521 H 0.15159 0.88104 0.5094 0.0
H522 H 0.18853 0.97524 0.49788 0.0
H523 H 0.23995 0.06853 0.51399 0.0
H524 H 0.26079 0.10421 0.60699 0.0
H525 H 0.20752 0.00962 0.61866 0.0
C526 C 0.1718 0.9294 0.57965 0.0
C527 C 0.15832 0.89197 0.55683 0.0
C528 C 0.19449 0.98391 0.57312 0.0
C529 C 0.16223 0.90903 0.52744 0.0
C530 C 0.18362 0.96303 0.52079 0.0
C531 C 0.23167 0.05575 0.53681 0.0
C532 C 0.25515 0.09338 0.55955 0.0
C533 C 0.20213 0.00103 0.54341 0.0
C534 C 0.24378 0.07608 0.58902 0.0
C535 C 0.21345 0.02189 0.59575 0.0
H536 H 0.16568 0.23869 0.85057 0.0
H537 H 0.15964 0.26294 0.94409 0.0
H538 H 0.20375 0.21162 0.95385 0.0
H539 H 0.25766 0.17377 0.93538 0.0
H540 H 0.26676 0.15272 0.84173 0.0
H541 H 0.20719 0.18783 0.83261 0.0
C542 C 0.17273 0.23158 0.87312 0.0
C543 C 0.16025 0.25552 0.89649 0.0
C544 C 0.19941 0.20312 0.87859 0.0
C545 C 0.16939 0.24556 0.92561 0.0
C546 C 0.19488 0.21637 0.93125 0.0
C547 C 0.24556 0.17558 0.91303 0.0
C548 C 0.2675 0.16157 0.88927 0.0
C549 C 0.21224 0.19708 0.90784 0.0
C550 C 0.25103 0.16383 0.86045 0.0
C551 C 0.21708 0.18415 0.85517 0.0
loop_
_geom_bond_atom_site_label_1
_geom_bond_atom_site_label_2
_geom_bond_distance
_geom_bond_site_symmetry_2
_ccdc_geom_bond_type
O0 Cd1 2.223 . S
O0 C8 1.315 . S
Cd1 O0 2.223 . S
Cd1 O4 2.297 . S
Cd1 O5 2.439 . S
Cd1 O11 2.240 . S
Cd2 O3 2.240 . S
Cd2 O10 2.223 . S
Cd2 O12 2.297 . S
Cd2 O13 2.439 . S
O3 Cd2 2.240 . S
O3 C8 1.279 . S
O4 Cd1 2.297 . S
O4 C6 1.247 . S
O5 Cd1 2.439 . S
O5 C6 1.208 . S
C6 O4 1.247 . S
C6 O5 1.208 . S
C7 O12 1.247 . S
C7 O13 1.208 . S
C8 O0 1.315 . S
C8 O3 1.279 . S
C9 O10 1.315 . S
C9 O11 1.279 . S
O10 Cd2 2.223 . S
O10 C9 1.315 . S
O11 Cd1 2.240 . S
O11 C9 1.279 . S
O12 Cd2 2.297 . S
O12 C7 1.247 . S
O13 Cd2 2.439 . S
O13 C7 1.208 . S
O14 Cd15 2.223 . S
O14 C22 1.315 . S
Cd15 O14 2.223 . S
Cd15 O18 2.297 . S
Cd15 O19 2.439 . S
Cd15 O25 2.240 . S
Cd16 O17 2.240 . S
Cd16 O24 2.223 . S
Cd16 O26 2.297 . S
Cd16 O27 2.439 . S
O17 Cd16 2.240 . S
O17 C22 1.279 . S
O18 Cd15 2.297 . S
O18 C20 1.247 . S
O19 Cd15 2.439 . S
O19 C20 1.208 . S
C20 O18 1.247 . S
C20 O19 1.208 . S
C21 O26 1.247 . S
C21 O27 1.208 . S
C22 O14 1.315 . S
C22 O17 1.279 . S
C23 O24 1.315 . S
C23 O25 1.279 . S
O24 Cd16 2.223 . S
O24 C23 1.315 . S
O25 Cd15 2.240 . S
O25 C23 1.279 . S
O26 Cd16 2.297 . S
O26 C21 1.247 . S
O27 Cd16 2.439 . S
O27 C21 1.208 . S
O28 Cd29 2.223 . S
O28 C36 1.315 . S
Cd29 O28 2.223 . S
Cd29 O32 2.297 . S
Cd29 O33 2.439 . S
Cd29 O39 2.240 . S
Cd30 O31 2.240 . S
Cd30 O38 2.223 . S
Cd30 O40 2.297 . S
Cd30 O41 2.439 . S
O31 Cd30 2.240 . S
O31 C36 1.279 . S
O32 Cd29 2.297 . S
O32 C34 1.247 . S
O33 Cd29 2.439 . S
O33 C34 1.208 . S
C34 O32 1.247 . S
C34 O33 1.208 . S
C35 O40 1.247 . S
C35 O41 1.208 . S
C36 O28 1.315 . S
C36 O31 1.279 . S
C37 O38 1.315 . S
C37 O39 1.279 . S
O38 Cd30 2.223 . S
O38 C37 1.315 . S
O39 Cd29 2.240 . S
O39 C37 1.279 . S
O40 Cd30 2.297 . S
O40 C35 1.247 . S
O41 Cd30 2.439 . S
O41 C35 1.208 . S
O42 Cd43 2.223 . S
O42 C50 1.315 . S
Cd43 O42 2.223 . S
Cd43 O46 2.297 . S
Cd43 O47 2.439 . S
Cd43 O53 2.240 . S
Cd44 O45 2.240 . S
Cd44 O52 2.223 . S
Cd44 O54 2.297 . S
Cd44 O55 2.439 . S
O45 Cd44 2.240 . S
O45 C50 1.279 . S
O46 Cd43 2.297 . S
O46 C48 1.247 . S
O47 Cd43 2.439 . S
O47 C48 1.208 . S
C48 O46 1.247 . S
C48 O47 1.208 . S
C49 O54 1.247 . S
C49 O55 1.208 . S
C50 O42 1.315 . S
C50 O45 1.279 . S
C51 O52 1.315 . S
C51 O53 1.279 . S
O52 Cd44 2.223 . S
O52 C51 1.315 . S
O53 Cd43 2.240 . S
O53 C51 1.279 . S
O54 Cd44 2.297 . S
O54 C49 1.247 . S
O55 Cd44 2.439 . S
O55 C49 1.208 . S
O56 Cd57 2.223 . S
O56 C64 1.315 . S
Cd57 O56 2.223 . S
Cd57 O60 2.297 . S
Cd57 O61 2.439 . S
Cd57 O67 2.240 . S
Cd58 O59 2.240 . S
Cd58 O66 2.223 . S
Cd58 O68 2.297 . S
Cd58 O69 2.439 . S
O59 Cd58 2.240 . S
O59 C64 1.279 . S
O60 Cd57 2.297 . S
O60 C62 1.247 . S
O61 Cd57 2.439 . S
O61 C62 1.208 . S
C62 O60 1.247 . S
C62 O61 1.208 . S
C63 O68 1.247 . S
C63 O69 1.208 . S
C64 O56 1.315 . S
C64 O59 1.279 . S
C65 O66 1.315 . S
C65 O67 1.279 . S
O66 Cd58 2.223 . S
O66 C65 1.315 . S
O67 Cd57 2.240 . S
O67 C65 1.279 . S
O68 Cd58 2.297 . S
O68 C63 1.247 . S
O69 Cd58 2.439 . S
O69 C63 1.208 . S
O70 Cd71 2.223 . S
O70 C78 1.315 . S
Cd71 O70 2.223 . S
Cd71 O74 2.297 . S
Cd71 O75 2.439 . S
Cd71 O81 2.240 . S
Cd72 O73 2.240 . S
Cd72 O80 2.223 . S
Cd72 O82 2.297 . S
Cd72 O83 2.439 . S
O73 Cd72 2.240 . S
O73 C78 1.279 . S
O74 Cd71 2.297 . S
O74 C76 1.247 . S
O75 Cd71 2.439 . S
O75 C76 1.208 . S
C76 O74 1.247 . S
C76 O75 1.208 . S
C77 O82 1.247 . S
C77 O83 1.208 . S
C78 O70 1.315 . S
C78 O73 1.279 . S
C79 O80 1.315 . S
C79 O81 1.279 . S
O80 Cd72 2.223 . S
O80 C79 1.315 . S
O81 Cd71 2.240 . S
O81 C79 1.279 . S
O82 Cd72 2.297 . S
O82 C77 1.247 . S
O83 Cd72 2.439 . S
O83 C77 1.208 . S
O84 Cd85 2.223 . S
O84 C92 1.315 . S
Cd85 O84 2.223 . S
Cd85 O88 2.297 . S
Cd85 O89 2.439 . S
Cd85 O95 2.240 . S
Cd86 O87 2.240 . S
Cd86 O94 2.223 . S
Cd86 O96 2.297 . S
Cd86 O97 2.439 . S
O87 Cd86 2.240 . S
O87 C92 1.279 . S
O88 Cd85 2.297 . S
O88 C90 1.247 . S
O89 Cd85 2.439 . S
O89 C90 1.208 . S
C90 O88 1.247 . S
C90 O89 1.208 . S
C91 O96 1.247 . S
C91 O97 1.208 . S
C92 O84 1.315 . S
C92 O87 1.279 . S
C93 O94 1.315 . S
C93 O95 1.279 . S
O94 Cd86 2.223 . S
O94 C93 1.315 . S
O95 Cd85 2.240 . S
O95 C93 1.279 . S
O96 Cd86 2.297 . S
O96 C91 1.247 . S
O97 Cd86 2.439 . S
O97 C91 1.208 . S
O98 Cd99 2.223 . S
O98 C106 1.315 . S
Cd99 O98 2.223 . S
Cd99 O102 2.297 . S
Cd99 O103 2.439 . S
Cd99 O109 2.240 . S
Cd100 O101 2.240 . S
Cd100 O108 2.223 . S
Cd100 O110 2.297 . S
Cd100 O111 2.439 . S
O101 Cd100 2.240 . S
O101 C106 1.279 . S
O102 Cd99 2.297 . S
O102 C104 1.247 . S
O103 Cd99 2.439 . S
O103 C104 1.208 . S
C104 O102 1.247 . S
C104 O103 1.208 . S
C105 O110 1.247 . S
C105 O111 1.208 . S
C106 O98 1.315 . S
C106 O101 1.279 . S
C107 O108 1.315 . S
C107 O109 1.279 . S
O108 Cd100 2.223 . S
O108 C107 1.315 . S
O109 Cd99 2.240 . S
O109 C107 1.279 . S
O110 Cd100 2.297 . S
O110 C105 1.247 . S
O111 Cd100 2.439 . S
O111 C105 1.208 . S
O112 Cd113 2.223 . S
O112 C120 1.315 . S
Cd113 O112 2.223 . S
Cd113 O116 2.297 . S
Cd113 O117 2.439 . S
Cd113 O123 2.240 . S
Cd114 O115 2.240 . S
Cd114 O122 2.223 . S
Cd114 O124 2.297 . S
Cd114 O125 2.439 . S
O115 Cd114 2.240 . S
O115 C120 1.279 . S
O116 Cd113 2.297 . S
O116 C118 1.247 . S
O117 Cd113 2.439 . S
O117 C118 1.208 . S
C118 O116 1.247 . S
C118 O117 1.208 . S
C119 O124 1.247 . S
C119 O125 1.208 . S
C120 O112 1.315 . S
C120 O115 1.279 . S
C121 O122 1.315 . S
C121 O123 1.279 . S
O122 Cd114 2.223 . S
O122 C121 1.315 . S
O123 Cd113 2.240 . S
O123 C121 1.279 . S
O124 Cd114 2.297 . S
O124 C119 1.247 . S
O125 Cd114 2.439 . S
O125 C119 1.208 . S
O126 Cd127 2.223 . S
O126 C134 1.315 . S
Cd127 O126 2.223 . S
Cd127 O130 2.297 . S
Cd127 O131 2.439 . S
Cd127 O137 2.240 . S
Cd128 O129 2.240 . S
Cd128 O136 2.223 . S
Cd128 O138 2.297 . S
Cd128 O139 2.439 . S
O129 Cd128 2.240 . S
O129 C134 1.279 . S
O130 Cd127 2.297 . S
O130 C132 1.247 . S
O131 Cd127 2.439 . S
O131 C132 1.208 . S
C132 O130 1.247 . S
C132 O131 1.208 . S
C133 O138 1.247 . S
C133 O139 1.208 . S
C134 O126 1.315 . S
C134 O129 1.279 . S
C135 O136 1.315 . S
C135 O137 1.279 . S
O136 Cd128 2.223 . S
O136 C135 1.315 . S
O137 Cd127 2.240 . S
O137 C135 1.279 . S
O138 Cd128 2.297 . S
O138 C133 1.247 . S
O139 Cd128 2.439 . S
O139 C133 1.208 . S
O140 Cd141 2.223 . S
O140 C148 1.315 . S
Cd141 O140 2.223 . S
Cd141 O144 2.297 . S
Cd141 O145 2.439 . S
Cd141 O151 2.240 . S
Cd142 O143 2.240 . S
Cd142 O150 2.223 . S
Cd142 O152 2.297 . S
Cd142 O153 2.439 . S
O143 Cd142 2.240 . S
O143 C148 1.279 . S
O144 Cd141 2.297 . S
O144 C146 1.247 . S
O145 Cd141 2.439 . S
O145 C146 1.208 . S
C146 O144 1.247 . S
C146 O145 1.208 . S
C147 O152 1.247 . S
C147 O153 1.208 . S
C148 O140 1.315 . S
C148 O143 1.279 . S
C149 O150 1.315 . S
C149 O151 1.279 . S
O150 Cd142 2.223 . S
O150 C149 1.315 . S
O151 Cd141 2.240 . S
O151 C149 1.279 . S
O152 Cd142 2.297 . S
O152 C147 1.247 . S
O153 Cd142 2.439 . S
O153 C147 1.208 . S
O154 Cd155 2.223 . S
O154 C162 1.315 . S
Cd155 O154 2.223 . S
Cd155 O158 2.297 . S
Cd155 O159 2.439 . S
Cd155 O165 2.240 . S
Cd156 O157 2.240 . S
Cd156 O164 2.223 . S
Cd156 O166 2.297 . S
Cd156 O167 2.439 . S
O157 Cd156 2.240 . S
O157 C162 1.279 . S
O158 Cd155 2.297 . S
O158 C160 1.247 . S
O159 Cd155 2.439 . S
O159 C160 1.208 . S
C160 O158 1.247 . S
C160 O159 1.208 . S
C161 O166 1.247 . S
C161 O167 1.208 . S
C162 O154 1.315 . S
C162 O157 1.279 . S
C163 O164 1.315 . S
C163 O165 1.279 . S
O164 Cd156 2.223 . S
O164 C163 1.315 . S
O165 Cd155 2.240 . S
O165 C163 1.279 . S
O166 Cd156 2.297 . S
O166 C161 1.247 . S
O167 Cd156 2.439 . S
O167 C161 1.208 . S
H168 C174 0.930 . S
H169 C177 0.930 . S
H170 C178 0.930 . S
H171 C179 0.930 . S
H172 C182 0.930 . S
H173 C183 0.930 . S
C174 H168 0.930 . S
C174 C175 1.355 . S
C174 C176 1.415 . S
C175 C174 1.355 . S
C175 C177 1.419 . S
C176 C174 1.415 . S
C176 C181 1.425 . S
C176 C183 1.409 . S
C177 H169 0.930 . S
C177 C175 1.419 . S
C177 C178 1.362 . S
C178 H170 0.930 . S
C178 C177 1.362 . S
C178 C181 1.409 . S
C179 H171 0.930 . S
C179 C180 1.355 . S
C179 C181 1.415 . S
C180 C179 1.355 . S
C180 C182 1.419 . S
C181 C176 1.425 . S
C181 C178 1.409 . S
C181 C179 1.415 . S
C182 H172 0.930 . S
C182 C180 1.419 . S
C182 C183 1.362 . S
C183 H173 0.930 . S
C183 C176 1.409 . S
C183 C182 1.362 . S
H184 C190 0.930 . S
H185 C193 0.930 . S
H186 C194 0.930 . S
H187 C195 0.930 . S
H188 C198 0.930 . S
H189 C199 0.930 . S
C190 H184 0.930 . S
C190 C191 1.355 . S
C190 C192 1.415 . S
C191 C190 1.355 . S
C191 C193 1.419 . S
C192 C190 1.415 . S
C192 C197 1.425 . S
C192 C199 1.409 . S
C193 H185 0.930 . S
C193 C191 1.419 . S
C193 C194 1.362 . S
C194 H186 0.930 . S
C194 C193 1.362 . S
C194 C197 1.409 . S
C195 H187 0.930 . S
C195 C196 1.355 . S
C195 C197 1.415 . S
C196 C195 1.355 . S
C196 C198 1.419 . S
C197 C192 1.425 . S
C197 C194 1.409 . S
C197 C195 1.415 . S
C198 H188 0.930 . S
C198 C196 1.419 . S
C198 C199 1.362 . S
C199 H189 0.930 . S
C199 C192 1.409 . S
C199 C198 1.362 . S
H200 C206 0.930 . S
H201 C209 0.930 . S
H202 C210 0.930 . S
H203 C211 0.930 . S
H204 C214 0.930 . S
H205 C215 0.930 . S
C206 H200 0.930 . S
C206 C207 1.355 . S
C206 C208 1.415 . S
C207 C206 1.355 . S
C207 C209 1.419 . S
C208 C206 1.415 . S
C208 C213 1.425 . S
C208 C215 1.409 . S
C209 H201 0.930 . S
C209 C207 1.419 . S
C209 C210 1.362 . S
C210 H202 0.930 . S
C210 C209 1.362 . S
C210 C213 1.409 . S
C211 H203 0.930 . S
C211 C212 1.355 . S
C211 C213 1.415 . S
C212 C211 1.355 . S
C212 C214 1.419 . S
C213 C208 1.425 . S
C213 C210 1.409 . S
C213 C211 1.415 . S
C214 H204 0.930 . S
C214 C212 1.419 . S
C214 C215 1.362 . S
C215 H205 0.930 . S
C215 C208 1.409 . S
C215 C214 1.362 . S
H216 C222 0.930 . S
H217 C225 0.930 . S
H218 C226 0.930 . S
H219 C227 0.930 . S
H220 C230 0.930 . S
H221 C231 0.930 . S
C222 H216 0.930 . S
C222 C223 1.355 . S
C222 C224 1.415 . S
C223 C222 1.355 . S
C223 C225 1.419 . S
C224 C222 1.415 . S
C224 C229 1.425 . S
C224 C231 1.409 . S
C225 H217 0.930 . S
C225 C223 1.419 . S
C225 C226 1.362 . S
C226 H218 0.930 . S
C226 C225 1.362 . S
C226 C229 1.409 . S
C227 H219 0.930 . S
C227 C228 1.355 . S
C227 C229 1.415 . S
C228 C227 1.355 . S
C228 C230 1.419 . S
C229 C224 1.425 . S
C229 C226 1.409 . S
C229 C227 1.415 . S
C230 H220 0.930 . S
C230 C228 1.419 . S
C230 C231 1.362 . S
C231 H221 0.930 . S
C231 C224 1.409 . S
C231 C230 1.362 . S
H232 C238 0.930 . S
H233 C241 0.930 . S
H234 C242 0.930 . S
H235 C243 0.930 . S
H236 C246 0.930 . S
H237 C247 0.930 . S
C238 H232 0.930 . S
C238 C239 1.355 . S
C238 C240 1.415 . S
C239 C238 1.355 . S
C239 C241 1.419 . S
C240 C238 1.415 . S
C240 C245 1.425 . S
C240 C247 1.409 . S
C241 H233 0.930 . S
C241 C239 1.419 . S
C241 C242 1.362 . S
C242 H234 0.930 . S
C242 C241 1.362 . S
C242 C245 1.409 . S
C243 H235 0.930 . S
C243 C244 1.355 . S
C243 C245 1.415 . S
C244 C243 1.355 . S
C244 C246 1.419 . S
C245 C240 1.425 . S
C245 C242 1.409 . S
C245 C243 1.415 . S
C246 H236 0.930 . S
C246 C244 1.419 . S
C246 C247 1.362 . S
C247 H237 0.930 . S
C247 C240 1.409 . S
C247 C246 1.362 . S
H248 C254 0.930 . S
H249 C257 0.930 . S
H250 C258 0.930 . S
H251 C259 0.930 . S
H252 C262 0.930 . S
H253 C263 0.930 . S
C254 H248 0.930 . S
C254 C255 1.355 . S
C254 C256 1.415 . S
C255 C254 1.355 . S
C255 C257 1.419 . S
C256 C254 1.415 . S
C256 C261 1.425 . S
C256 C263 1.409 . S
C257 H249 0.930 . S
C257 C255 1.419 . S
C257 C258 1.362 . S
C258 H250 0.930 . S
C258 C257 1.362 . S
C258 C261 1.409 . S
C259 H251 0.930 . S
C259 C260 1.355 . S
C259 C261 1.415 . S
C260 C259 1.355 . S
C260 C262 1.419 . S
C261 C256 1.425 . S
C261 C258 1.409 . S
C261 C259 1.415 . S
C262 H252 0.930 . S
C262 C260 1.419 . S
C262 C263 1.362 . S
C263 H253 0.930 . S
C263 C256 1.409 . S
C263 C262 1.362 . S
H264 C270 0.930 . S
H265 C273 0.930 . S
H266 C274 0.930 . S
H267 C275 0.930 . S
H268 C278 0.930 . S
H269 C279 0.930 . S
C270 H264 0.930 . S
C270 C271 1.355 . S
C270 C272 1.415 . S
C271 C270 1.355 . S
C271 C273 1.419 . S
C272 C270 1.415 . S
C272 C277 1.425 . S
C272 C279 1.409 . S
C273 H265 0.930 . S
C273 C271 1.419 . S
C273 C274 1.362 . S
C274 H266 0.930 . S
C274 C273 1.362 . S
C274 C277 1.409 . S
C275 H267 0.930 . S
C275 C276 1.355 . S
C275 C277 1.415 . S
C276 C275 1.355 . S
C276 C278 1.419 . S
C277 C272 1.425 . S
C277 C274 1.409 . S
C277 C275 1.415 . S
C278 H268 0.930 . S
C278 C276 1.419 . S
C278 C279 1.362 . S
C279 H269 0.930 . S
C279 C272 1.409 . S
C279 C278 1.362 . S
H280 C286 0.930 1_655 S
H281 C289 0.930 . S
H282 C290 0.930 . S
H283 C291 0.930 1_455 S
H284 C294 0.930 . S
H285 C295 0.930 . S
C286 H280 0.930 1_455 S
C286 C287 1.355 . S
C286 C288 1.415 1_455 S
C287 C286 1.355 . S
C287 C289 1.419 . S
C288 C286 1.415 1_655 S
C288 C293 1.425 1_655 S
C288 C295 1.409 . S
C289 H281 0.930 . S
C289 C287 1.419 . S
C289 C290 1.362 . S
C290 H282 0.930 . S
C290 C289 1.362 . S
C290 C293 1.409 . S
C291 H283 0.930 1_655 S
C291 C292 1.355 . S
C291 C293 1.415 1_655 S
C292 C291 1.355 . S
C292 C294 1.419 . S
C293 C288 1.425 1_455 S
C293 C290 1.409 . S
C293 C291 1.415 1_455 S
C294 H284 0.930 . S
C294 C292 1.419 . S
C294 C295 1.362 . S
C295 H285 0.930 . S
C295 C288 1.409 . S
C295 C294 1.362 . S
H296 C302 0.930 1_565 S
H297 C305 0.930 . S
H298 C306 0.930 . S
H299 C307 0.930 1_545 S
H300 C310 0.930 . S
H301 C311 0.930 . S
C302 H296 0.930 1_545 S
C302 C303 1.355 . S
C302 C304 1.415 1_545 S
C303 C302 1.355 . S
C303 C305 1.419 . S
C304 C302 1.415 1_565 S
C304 C309 1.425 1_565 S
C304 C311 1.409 . S
C305 H297 0.930 . S
C305 C303 1.419 . S
C305 C306 1.362 . S
C306 H298 0.930 . S
C306 C305 1.362 . S
C306 C309 1.409 . S
C307 H299 0.930 1_565 S
C307 C308 1.355 . S
C307 C309 1.415 1_565 S
C308 C307 1.355 . S
C308 C310 1.419 . S
C309 C304 1.425 1_545 S
C309 C306 1.409 . S
C309 C307 1.415 1_545 S
C310 H300 0.930 . S
C310 C308 1.419 . S
C310 C311 1.362 . S
C311 H301 0.930 . S
C311 C304 1.409 . S
C311 C310 1.362 . S
H312 C318 0.930 . S
H313 C321 0.930 . S
H314 C322 0.930 . S
H315 C323 0.930 . S
H316 C326 0.930 . S
H317 C327 0.930 . S
C318 H312 0.930 . S
C318 C319 1.355 . S
C318 C320 1.415 . S
C319 C318 1.355 . S
C319 C321 1.419 . S
C320 C318 1.415 . S
C320 C325 1.425 . S
C320 C327 1.409 . S
C321 H313 0.930 . S
C321 C319 1.419 . S
C321 C322 1.362 . S
C322 H314 0.930 . S
C322 C321 1.362 . S
C322 C325 1.409 . S
C323 H315 0.930 . S
C323 C324 1.355 . S
C323 C325 1.415 . S
C324 C323 1.355 . S
C324 C326 1.419 . S
C325 C320 1.425 . S
C325 C322 1.409 . S
C325 C323 1.415 . S
C326 H316 0.930 . S
C326 C324 1.419 . S
C326 C327 1.362 . S
C327 H317 0.930 . S
C327 C320 1.409 . S
C327 C326 1.362 . S
H328 C334 0.930 . S
H329 C337 0.930 . S
H330 C338 0.930 . S
H331 C339 0.930 . S
H332 C342 0.930 . S
H333 C343 0.930 . S
C334 H328 0.930 . S
C334 C335 1.355 . S
C334 C336 1.415 . S
C335 C334 1.355 . S
C335 C337 1.419 . S
C336 C334 1.415 . S
C336 C341 1.425 1_655 S
C336 C343 1.409 . S
C337 H329 0.930 . S
C337 C335 1.419 . S
C337 C338 1.362 1_655 S
C338 H330 0.930 . S
C338 C337 1.362 1_455 S
C338 C341 1.409 . S
C339 H331 0.930 . S
C339 C340 1.355 . S
C339 C341 1.415 . S
C340 C339 1.355 . S
C340 C342 1.419 . S
C341 C336 1.425 1_455 S
C341 C338 1.409 . S
C341 C339 1.415 . S
C342 H332 0.930 . S
C342 C340 1.419 . S
C342 C343 1.362 1_455 S
C343 H333 0.930 . S
C343 C336 1.409 . S
C343 C342 1.362 1_655 S
H344 C350 0.930 . S
H345 C353 0.930 . S
H346 C354 0.930 . S
H347 C355 0.930 . S
H348 C358 0.930 . S
H349 C359 0.930 . S
C350 H344 0.930 . S
C350 C351 1.355 . S
C350 C352 1.415 . S
C351 C350 1.355 . S
C351 C353 1.419 1_565 S
C352 C350 1.415 . S
C352 C357 1.425 1_565 S
C352 C359 1.409 . S
C353 H345 0.930 . S
C353 C351 1.419 1_545 S
C353 C354 1.362 . S
C354 H346 0.930 . S
C354 C353 1.362 . S
C354 C357 1.409 . S
C355 H347 0.930 . S
C355 C356 1.355 . S
C355 C357 1.415 . S
C356 C355 1.355 . S
C356 C358 1.419 1_545 S
C357 C352 1.425 1_545 S
C357 C354 1.409 . S
C357 C355 1.415 . S
C358 H348 0.930 . S
C358 C356 1.419 1_565 S
C358 C359 1.362 . S
C359 H349 0.930 . S
C359 C352 1.409 . S
C359 C358 1.362 . S
H360 C366 0.930 . S
H361 C369 0.930 . S
H362 C370 0.930 . S
H363 C371 0.930 . S
H364 C374 0.930 . S
H365 C375 0.930 . S
C366 H360 0.930 . S
C366 C367 1.355 . S
C366 C368 1.415 . S
C367 C366 1.355 . S
C367 C369 1.419 . S
C368 C366 1.415 . S
C368 C373 1.425 . S
C368 C375 1.409 . S
C369 H361 0.930 . S
C369 C367 1.419 . S
C369 C370 1.362 . S
C370 H362 0.930 . S
C370 C369 1.362 . S
C370 C373 1.409 . S
C371 H363 0.930 . S
C371 C372 1.355 . S
C371 C373 1.415 . S
C372 C371 1.355 . S
C372 C374 1.419 . S
C373 C368 1.425 . S
C373 C370 1.409 . S
C373 C371 1.415 . S
C374 H364 0.930 . S
C374 C372 1.419 . S
C374 C375 1.362 . S
C375 H365 0.930 . S
C375 C368 1.409 . S
C375 C374 1.362 . S
H376 C382 0.930 . S
H377 C385 0.930 . S
H378 C386 0.930 . S
H379 C387 0.930 . S
H380 C390 0.930 . S
H381 C391 0.930 . S
C382 H376 0.930 . S
C382 C383 1.355 . S
C382 C384 1.415 . S
C383 C382 1.355 . S
C383 C385 1.419 1_655 S
C384 C382 1.415 . S
C384 C389 1.425 1_655 S
C384 C391 1.409 . S
C385 H377 0.930 . S
C385 C383 1.419 1_455 S
C385 C386 1.362 . S
C386 H378 0.930 . S
C386 C385 1.362 . S
C386 C389 1.409 . S
C387 H379 0.930 . S
C387 C388 1.355 . S
C387 C389 1.415 . S
C388 C387 1.355 . S
C388 C390 1.419 1_455 S
C389 C384 1.425 1_455 S
C389 C386 1.409 . S
C389 C387 1.415 . S
C390 H380 0.930 . S
C390 C388 1.419 1_655 S
C390 C391 1.362 . S
C391 H381 0.930 . S
C391 C384 1.409 . S
C391 C390 1.362 . S
H392 C398 0.930 . S
H393 C401 0.930 . S
H394 C402 0.930 1_554 S
H395 C403 0.930 . S
H396 C406 0.930 . S
H397 C407 0.930 . S
C398 H392 0.930 . S
C398 C399 1.355 . S
C398 C400 1.441 1_565 S
C399 C398 1.355 . S
C399 C401 1.419 . S
C400 C398 1.441 1_545 S
C400 C405 1.414 1_546 S
C400 C407 1.393 1_556 S
C401 H393 0.930 . S
C401 C399 1.419 . S
C401 C402 1.362 . S
C402 H394 0.930 1_556 S
C402 C401 1.362 . S
C402 C405 1.409 1_556 S
C403 H395 0.930 . S
C403 C404 1.355 . S
C403 C405 1.415 1_545 S
C404 C403 1.355 . S
C404 C406 1.419 . S
C405 C400 1.414 1_564 S
C405 C402 1.409 1_554 S
C405 C403 1.415 1_565 S
C406 H396 0.930 . S
C406 C404 1.419 . S
C406 C407 1.362 . S
C407 H397 0.930 . S
C407 C400 1.393 1_554 S
C407 C406 1.362 . S
H408 C414 0.930 . S
H409 C417 0.930 . S
H410 C418 0.930 . S
H411 C419 0.930 . S
H412 C422 0.930 . S
H413 C423 0.930 . S
C414 H408 0.930 . S
C414 C415 1.355 . S
C414 C416 1.415 . S
C415 C414 1.355 . S
C415 C417 1.419 . S
C416 C414 1.415 . S
C416 C421 1.425 . S
C416 C423 1.409 . S
C417 H409 0.930 . S
C417 C415 1.419 . S
C417 C418 1.362 . S
C418 H410 0.930 . S
C418 C417 1.362 . S
C418 C421 1.409 . S
C419 H411 0.930 . S
C419 C420 1.355 . S
C419 C421 1.415 . S
C420 C419 1.355 . S
C420 C422 1.419 . S
C421 C416 1.425 . S
C421 C418 1.409 . S
C421 C419 1.415 . S
C422 H412 0.930 . S
C422 C420 1.419 . S
C422 C423 1.362 . S
C423 H413 0.930 . S
C423 C416 1.409 . S
C423 C422 1.362 . S
H424 C430 0.930 . S
H425 C433 0.930 . S
H426 C434 0.930 . S
H427 C435 0.930 . S
H428 C438 0.930 . S
H429 C439 0.930 . S
C430 H424 0.930 . S
C430 C431 1.355 1_655 S
C430 C432 1.415 . S
C431 C430 1.355 1_455 S
C431 C433 1.419 . S
C432 C430 1.415 . S
C432 C437 1.425 1_655 S
C432 C439 1.409 . S
C433 H425 0.930 . S
C433 C431 1.419 . S
C433 C434 1.362 . S
C434 H426 0.930 . S
C434 C433 1.362 . S
C434 C437 1.409 . S
C435 H427 0.930 . S
C435 C436 1.355 1_455 S
C435 C437 1.415 . S
C436 C435 1.355 1_655 S
C436 C438 1.419 . S
C437 C432 1.425 1_455 S
C437 C434 1.409 . S
C437 C435 1.415 . S
C438 H428 0.930 . S
C438 C436 1.419 . S
C438 C439 1.362 . S
C439 H429 0.930 . S
C439 C432 1.409 . S
C439 C438 1.362 . S
H440 C446 0.932 . S
H441 C449 0.930 . S
H442 C450 0.930 1_556 S
H443 C451 0.932 . S
H444 C454 0.930 . S
H445 C455 0.930 . S
C446 H440 0.932 . S
C446 C447 1.348 1_545 S
C446 C448 1.419 . S
C447 C446 1.348 1_565 S
C447 C449 1.419 . S
C448 C446 1.419 . S
C448 C453 1.425 1_544 S
C448 C455 1.409 . S
C449 H441 0.930 . S
C449 C447 1.419 . S
C449 C450 1.362 . S
C450 H442 0.930 1_554 S
C450 C449 1.362 . S
C450 C453 1.409 1_554 S
C451 H443 0.932 . S
C451 C452 1.348 1_565 S
C451 C453 1.419 . S
C452 C451 1.348 1_545 S
C452 C454 1.419 . S
C453 C448 1.425 1_566 S
C453 C450 1.409 1_556 S
C453 C451 1.419 . S
C454 H444 0.930 . S
C454 C452 1.419 . S
C454 C455 1.362 1_556 S
C455 H445 0.930 . S
C455 C448 1.409 . S
C455 C454 1.362 1_554 S
H456 C462 0.930 . S
H457 C465 0.930 . S
H458 C466 0.930 . S
H459 C467 0.930 . S
H460 C470 0.930 . S
H461 C471 0.930 . S
C462 H456 0.930 . S
C462 C463 1.355 . S
C462 C464 1.415 . S
C463 C462 1.355 . S
C463 C465 1.419 . S
C464 C462 1.415 . S
C464 C469 1.425 1_655 S
C464 C471 1.409 1_655 S
C465 H457 0.930 . S
C465 C463 1.419 . S
C465 C466 1.362 . S
C466 H458 0.930 . S
C466 C465 1.362 . S
C466 C469 1.409 1_655 S
C467 H459 0.930 . S
C467 C468 1.355 . S
C467 C469 1.415 . S
C468 C467 1.355 . S
C468 C470 1.419 . S
C469 C464 1.425 1_455 S
C469 C466 1.409 1_455 S
C469 C467 1.415 . S
C470 H460 0.930 . S
C470 C468 1.419 . S
C470 C471 1.362 . S
C471 H461 0.930 . S
C471 C464 1.409 1_455 S
C471 C470 1.362 . S
H472 C478 0.930 . S
H473 C481 0.930 . S
H474 C482 0.930 . S
H475 C483 0.930 . S
H476 C486 0.930 . S
H477 C487 0.930 . S
C478 H472 0.930 . S
C478 C479 1.355 . S
C478 C480 1.415 . S
C479 C478 1.355 . S
C479 C481 1.419 . S
C480 C478 1.415 . S
C480 C485 1.425 1_545 S
C480 C487 1.409 1_545 S
C481 H473 0.930 . S
C481 C479 1.419 . S
C481 C482 1.362 . S
C482 H474 0.930 . S
C482 C481 1.362 . S
C482 C485 1.409 1_545 S
C483 H475 0.930 . S
C483 C484 1.355 . S
C483 C485 1.415 . S
C484 C483 1.355 . S
C484 C486 1.419 . S
C485 C480 1.425 1_565 S
C485 C482 1.409 1_565 S
C485 C483 1.415 . S
C486 H476 0.930 . S
C486 C484 1.419 . S
C486 C487 1.362 . S
C487 H477 0.930 . S
C487 C480 1.409 1_565 S
C487 C486 1.362 . S
H488 C494 0.930 . S
H489 C497 0.930 . S
H490 C498 0.930 . S
H491 C499 0.930 . S
H492 C502 0.930 . S
H493 C503 0.930 . S
C494 H488 0.930 . S
C494 C495 1.355 . S
C494 C496 1.415 . S
C495 C494 1.355 . S
C495 C497 1.419 . S
C496 C494 1.415 . S
C496 C501 1.425 . S
C496 C503 1.409 . S
C497 H489 0.930 . S
C497 C495 1.419 . S
C497 C498 1.362 . S
C498 H490 0.930 . S
C498 C497 1.362 . S
C498 C501 1.409 . S
C499 H491 0.930 . S
C499 C500 1.355 . S
C499 C501 1.415 . S
C500 C499 1.355 . S
C500 C502 1.419 . S
C501 C496 1.425 . S
C501 C498 1.409 . S
C501 C499 1.415 . S
C502 H492 0.930 . S
C502 C500 1.419 . S
C502 C503 1.362 . S
C503 H493 0.930 . S
C503 C496 1.409 . S
C503 C502 1.362 . S
H504 C510 0.930 . S
H505 C513 0.930 . S
H506 C514 0.930 . S
H507 C515 0.930 . S
H508 C518 0.930 . S
H509 C519 0.930 . S
C510 H504 0.930 . S
C510 C511 1.355 . S
C510 C512 1.415 . S
C511 C510 1.355 . S
C511 C513 1.419 . S
C512 C510 1.415 . S
C512 C517 1.425 1_655 S
C512 C519 1.409 1_655 S
C513 H505 0.930 . S
C513 C511 1.419 . S
C513 C514 1.362 . S
C514 H506 0.930 . S
C514 C513 1.362 . S
C514 C517 1.409 1_655 S
C515 H507 0.930 . S
C515 C516 1.355 . S
C515 C517 1.415 . S
C516 C515 1.355 . S
C516 C518 1.419 . S
C517 C512 1.425 1_455 S
C517 C514 1.409 1_455 S
C517 C515 1.415 . S
C518 H508 0.930 . S
C518 C516 1.419 . S
C518 C519 1.362 . S
C519 H509 0.930 . S
C519 C512 1.409 1_455 S
C519 C518 1.362 . S
H520 C526 0.930 . S
H521 C529 0.930 . S
H522 C530 0.930 . S
H523 C531 0.930 . S
H524 C534 0.930 . S
H525 C535 0.930 . S
C526 H520 0.930 . S
C526 C527 1.355 . S
C526 C528 1.415 . S
C527 C526 1.355 . S
C527 C529 1.419 . S
C528 C526 1.415 . S
C528 C533 1.425 1_565 S
C528 C535 1.409 1_565 S
C529 H521 0.930 . S
C529 C527 1.419 . S
C529 C530 1.362 . S
C530 H522 0.930 . S
C530 C529 1.362 . S
C530 C533 1.409 1_565 S
C531 H523 0.930 . S
C531 C532 1.355 . S
C531 C533 1.415 . S
C532 C531 1.355 . S
C532 C534 1.419 . S
C533 C528 1.425 1_545 S
C533 C530 1.409 1_545 S
C533 C531 1.415 . S
C534 H524 0.930 . S
C534 C532 1.419 . S
C534 C535 1.362 . S
C535 H525 0.930 . S
C535 C528 1.409 1_545 S
C535 C534 1.362 . S
H536 C542 0.930 . S
H537 C545 0.930 . S
H538 C546 0.930 . S
H539 C547 0.930 . S
H540 C550 0.930 . S
H541 C551 0.930 . S
C542 H536 0.930 . S
C542 C543 1.355 . S
C542 C544 1.415 . S
C543 C542 1.355 . S
C543 C545 1.419 . S
C544 C542 1.415 . S
C544 C549 1.425 . S
C544 C551 1.409 . S
C545 H537 0.930 . S
C545 C543 1.419 . S
C545 C546 1.362 . S
C546 H538 0.930 . S
C546 C545 1.362 . S
C546 C549 1.409 . S
C547 H539 0.930 . S
C547 C548 1.355 . S
C547 C549 1.415 . S
C548 C547 1.355 . S
C548 C550 1.419 . S
C549 C544 1.425 . S
C549 C546 1.409 . S
C549 C547 1.415 . S
C550 H540 0.930 . S
C550 C548 1.419 . S
C550 C551 1.362 . S
C551 H541 0.930 . S
C551 C544 1.409 . S
C551 C550 1.362 . S
C175 C120 2.069 . S
C180 C8 2.084 . S
C191 C22 2.090 . S
C196 C134 2.077 . S
C207 C36 2.091 . S
C212 C148 2.074 . S
C223 C50 2.090 . S
C228 C162 2.070 . S
C239 C92 2.071 . S
C244 C64 2.079 . S
C255 C78 2.069 . S
C260 C106 2.084 . S
C271 C51 0.798 . S
C276 C9 0.839 . S
C287 C65 0.771 . S
C292 C23 0.880 . S
C303 C79 0.812 . S
C308 C37 0.825 . S
C319 C93 0.905 . S
C324 C135 0.764 . S
C335 C107 0.822 . S
C340 C149 0.911 . S
C351 C121 0.908 . S
C356 C163 0.826 . S
C367 C7 1.520 . S
C372 C133 1.474 . S
C383 C21 1.490 . S
C388 C147 1.542 . S
C399 C35 1.474 . S
C404 C161 1.524 . S
C415 C91 1.474 . S
C420 C49 1.522 . S
C431 C63 1.517 . S
C436 C105 1.474 . S
C447 C119 1.525 . S
C452 C77 1.474 . S
C463 C160 1.296 . S
C468 C6 1.277 . S
C479 C20 1.289 . S
C484 C90 1.280 . S
C495 C104 1.294 . S
C500 C34 1.277 . S
C511 C48 1.286 . S
C516 C118 1.282 . S
C527 C62 1.292 . S
C532 C132 1.278 . S
C543 C146 1.280 . S
C548 C76 1.289 . S
