# Generated by pormake.
# Topology wmi, (6)-cn, num edge types: 1
# Building blocks:
#     Node 0, Type 0, BuildingBlock: CUKXOW_clean_sbu_0, # of connection points: 6
#     Node 1, Type 0, BuildingBlock: CUKXOW_clean_sbu_0, # of connection points: 6
#     Node 2, Type 0, BuildingBlock: CUKXOW_clean_sbu_0, # of connection points: 6
#     Node 3, Type 0, BuildingBlock: CUKXOW_clean_sbu_0, # of connection points: 6
#     Node 4, Type 0, BuildingBlock: CUKXOW_clean_sbu_0, # of connection points: 6
#     Node 5, Type 0, BuildingBlock: CUKXOW_clean_sbu_0, # of connection points: 6
#     Node 6, Type 0, BuildingBlock: CUKXOW_clean_sbu_0, # of connection points: 6
#     Node 7, Type 0, BuildingBlock: CUKXOW_clean_sbu_0, # of connection points: 6
#     Node 8, Type 0, BuildingBlock: CUKXOW_clean_sbu_0, # of connection points: 6
#     Node 9, Type 0, BuildingBlock: CUKXOW_clean_sbu_0, # of connection points: 6
#     Node 10, Type 0, BuildingBlock: CUKXOW_clean_sbu_0, # of connection points: 6
#     Node 11, Type 0, BuildingBlock: CUKXOW_clean_sbu_0, # of connection points: 6
#     Node 12, Type 0, BuildingBlock: CUKXOW_clean_sbu_0, # of connection points: 6
#     Node 13, Type 0, BuildingBlock: CUKXOW_clean_sbu_0, # of connection points: 6
#     Node 14, Type 0, BuildingBlock: CUKXOW_clean_sbu_0, # of connection points: 6
#     Node 15, Type 0, BuildingBlock: CUKXOW_clean_sbu_0, # of connection points: 6
#     Node 16, Type 0, BuildingBlock: CUKXOW_clean_sbu_0, # of connection points: 6
#     Node 17, Type 0, BuildingBlock: CUKXOW_clean_sbu_0, # of connection points: 6
#     Edge 18, Type (0, 0), BuildingBlock: XIVTED_clean_linker_0, # of connection points: 2
#     Edge 19, Type (0, 0), BuildingBlock: XIVTED_clean_linker_0, # of connection points: 2
#     Edge 20, Type (0, 0), BuildingBlock: XIVTED_clean_linker_0, # of connection points: 2
#     Edge 21, Type (0, 0), BuildingBlock: XIVTED_clean_linker_0, # of connection points: 2
#     Edge 22, Type (0, 0), BuildingBlock: XIVTED_clean_linker_0, # of connection points: 2
#     Edge 23, Type (0, 0), BuildingBlock: XIVTED_clean_linker_0, # of connection points: 2
#     Edge 24, Type (0, 0), BuildingBlock: XIVTED_clean_linker_0, # of connection points: 2
#     Edge 25, Type (0, 0), BuildingBlock: XIVTED_clean_linker_0, # of connection points: 2
#     Edge 26, Type (0, 0), BuildingBlock: XIVTED_clean_linker_0, # of connection points: 2
#     Edge 27, Type (0, 0), BuildingBlock: XIVTED_clean_linker_0, # of connection points: 2
#     Edge 28, Type (0, 0), BuildingBlock: XIVTED_clean_linker_0, # of connection points: 2
#     Edge 29, Type (0, 0), BuildingBlock: XIVTED_clean_linker_0, # of connection points: 2
#     Edge 30, Type (0, 0), BuildingBlock: XIVTED_clean_linker_0, # of connection points: 2
#     Edge 31, Type (0, 0), BuildingBlock: XIVTED_clean_linker_0, # of connection points: 2
#     Edge 32, Type (0, 0), BuildingBlock: XIVTED_clean_linker_0, # of connection points: 2
#     Edge 33, Type (0, 0), BuildingBlock: XIVTED_clean_linker_0, # of connection points: 2
#     Edge 34, Type (0, 0), BuildingBlock: XIVTED_clean_linker_0, # of connection points: 2
#     Edge 35, Type (0, 0), BuildingBlock: XIVTED_clean_linker_0, # of connection points: 2
#     Edge 36, Type (0, 0), BuildingBlock: XIVTED_clean_linker_0, # of connection points: 2
#     Edge 37, Type (0, 0), BuildingBlock: XIVTED_clean_linker_0, # of connection points: 2
#     Edge 38, Type (0, 0), BuildingBlock: XIVTED_clean_linker_0, # of connection points: 2
#     Edge 39, Type (0, 0), BuildingBlock: XIVTED_clean_linker_0, # of connection points: 2
#     Edge 40, Type (0, 0), BuildingBlock: XIVTED_clean_linker_0, # of connection points: 2
#     Edge 41, Type (0, 0), BuildingBlock: XIVTED_clean_linker_0, # of connection points: 2
#     Edge 42, Type (0, 0), BuildingBlock: XIVTED_clean_linker_0, # of connection points: 2
#     Edge 43, Type (0, 0), BuildingBlock: XIVTED_clean_linker_0, # of connection points: 2
#     Edge 44, Type (0, 0), BuildingBlock: XIVTED_clean_linker_0, # of connection points: 2
#     Edge 45, Type (0, 0), BuildingBlock: XIVTED_clean_linker_0, # of connection points: 2
#     Edge 46, Type (0, 0), BuildingBlock: XIVTED_clean_linker_0, # of connection points: 2
#     Edge 47, Type (0, 0), BuildingBlock: XIVTED_clean_linker_0, # of connection points: 2
#     Edge 48, Type (0, 0), BuildingBlock: XIVTED_clean_linker_0, # of connection points: 2
#     Edge 49, Type (0, 0), BuildingBlock: XIVTED_clean_linker_0, # of connection points: 2
#     Edge 50, Type (0, 0), BuildingBlock: XIVTED_clean_linker_0, # of connection points: 2
#     Edge 51, Type (0, 0), BuildingBlock: XIVTED_clean_linker_0, # of connection points: 2
#     Edge 52, Type (0, 0), BuildingBlock: XIVTED_clean_linker_0, # of connection points: 2
#     Edge 53, Type (0, 0), BuildingBlock: XIVTED_clean_linker_0, # of connection points: 2
#     Edge 54, Type (0, 0), BuildingBlock: XIVTED_clean_linker_0, # of connection points: 2
#     Edge 55, Type (0, 0), BuildingBlock: XIVTED_clean_linker_0, # of connection points: 2
#     Edge 56, Type (0, 0), BuildingBlock: XIVTED_clean_linker_0, # of connection points: 2
#     Edge 57, Type (0, 0), BuildingBlock: XIVTED_clean_linker_0, # of connection points: 2
#     Edge 58, Type (0, 0), BuildingBlock: XIVTED_clean_linker_0, # of connection points: 2
#     Edge 59, Type (0, 0), BuildingBlock: XIVTED_clean_linker_0, # of connection points: 2
#     Edge 60, Type (0, 0), BuildingBlock: XIVTED_clean_linker_0, # of connection points: 2
#     Edge 61, Type (0, 0), BuildingBlock: XIVTED_clean_linker_0, # of connection points: 2
#     Edge 62, Type (0, 0), BuildingBlock: XIVTED_clean_linker_0, # of connection points: 2
#     Edge 63, Type (0, 0), BuildingBlock: XIVTED_clean_linker_0, # of connection points: 2
#     Edge 64, Type (0, 0), BuildingBlock: XIVTED_clean_linker_0, # of connection points: 2
#     Edge 65, Type (0, 0), BuildingBlock: XIVTED_clean_linker_0, # of connection points: 2
#     Edge 66, Type (0, 0), BuildingBlock: XIVTED_clean_linker_0, # of connection points: 2
#     Edge 67, Type (0, 0), BuildingBlock: XIVTED_clean_linker_0, # of connection points: 2
#     Edge 68, Type (0, 0), BuildingBlock: XIVTED_clean_linker_0, # of connection points: 2
#     Edge 69, Type (0, 0), BuildingBlock: XIVTED_clean_linker_0, # of connection points: 2
#     Edge 70, Type (0, 0), BuildingBlock: XIVTED_clean_linker_0, # of connection points: 2
#     Edge 71, Type (0, 0), BuildingBlock: XIVTED_clean_linker_0, # of connection points: 2
# Relax obj value: 0.053
# Max RMSD: 0.152
# Mean RMSD: 0.152
data_MOF--net-wmi--node1-CUKXOW_clean_sbu_0--edge1-XIVTED_clean_linker_0
_symmetry_space_group_name_H-M    P1
_symmetry_Int_Tables_number       1
_symmetry_cell_setting            triclinic
loop_
_symmetry_equiv_pos_as_xyz
'x, y, z'
_cell_length_a     32.299022
_cell_length_b     32.254105
_cell_length_c     85.895561
_cell_angle_alpha  89.879803
_cell_angle_beta   90.246389
_cell_angle_gamma 120.0012
loop_
_atom_site_label
_atom_site_type_symbol
_atom_site_fract_x
_atom_site_fract_y
_atom_site_fract_z
_atom_type_partial_charge
Tb0 Tb 0.49142 0.05944 0.09468 0.0
C1 C 0.46714 1.00047 0.12566 0.0
Tb2 Tb 0.50924 0.97466 0.09613 0.0
O3 O 0.4143 0.0124 0.09857 0.0
O4 O 0.45482 0.98686 0.08782 0.0
O5 O 0.4791 0.04275 0.11943 0.0
C6 C 0.51407 0.89485 0.09958 0.0
O7 O 0.47258 0.96751 0.11816 0.0
C8 C 0.58614 0.05946 0.09547 0.0
C9 C 0.51509 0.02106 0.06363 0.0
O10 O 0.53911 0.9343 0.10729 0.0
O11 O 0.48553 0.89999 0.09009 0.0
O12 O 0.58344 0.0211 0.08977 0.0
O13 O 0.5478 0.04867 0.10254 0.0
O14 O 0.50609 0.9812 0.07103 0.0
O15 O 0.51701 0.05837 0.07099 0.0
C16 C 0.50139 0.14702 0.09302 0.0
O17 O 0.46973 0.10936 0.08556 0.0
O18 O 0.52769 0.13542 0.10134 0.0
C19 C 0.4143 0.97463 0.0933 0.0
Tb20 Tb 0.98658 0.44489 0.09335 0.0
C21 C 0.03566 0.47875 0.12705 0.0
Tb22 Tb 0.06073 0.55099 0.09873 0.0
O23 O 0.04014 0.43121 0.08234 0.0
O24 O 0.05944 0.48546 0.09867 0.0
O25 O 0.9993 0.44546 0.11869 0.0
C26 C 0.13711 0.63913 0.09886 0.0
O27 O 0.06681 0.52124 0.12103 0.0
C28 C 0.97099 0.52629 0.10276 0.0
C29 C 0.02331 0.5119 0.06414 0.0
O30 O 0.09608 0.6268 0.10511 0.0
O31 O 0.1353 0.60172 0.09254 0.0
O32 O 1.00603 0.56036 0.11048 0.0
O33 O 0.98765 0.51086 0.09259 0.0
O34 O 0.05553 0.54725 0.07306 0.0
O35 O 0.98908 0.47065 0.06985 0.0
C36 C 0.90146 0.36503 0.09462 0.0
O37 O 0.93968 0.36863 0.08831 0.0
O38 O 0.91132 0.40628 0.10025 0.0
C39 C 0.07567 0.46844 0.08895 0.0
Tb40 Tb 0.59566 0.55232 0.09497 0.0
C41 C 0.56253 0.58419 0.1247 0.0
Tb42 Tb 0.49371 0.53563 0.09564 0.0
O43 O 0.6274 0.63062 0.09714 0.0
O44 O 0.56047 0.58833 0.08711 0.0
O45 O 0.59207 0.57034 0.11918 0.0
C46 C 0.41178 0.53637 0.09594 0.0
O47 O 0.52407 0.57764 0.11689 0.0
C48 C 0.50013 0.45761 0.09698 0.0
C49 C 0.5345 0.52541 0.06379 0.0
O50 O 0.42745 0.52097 0.10721 0.0
O51 O 0.44253 0.55205 0.08472 0.0
O52 O 0.46357 0.45913 0.09149 0.0
O53 O 0.52844 0.49749 0.10311 0.0
O54 O 0.50474 0.53648 0.07076 0.0
O55 O 0.56899 0.5229 0.07156 0.0
C56 C 0.66976 0.53778 0.09576 0.0
O57 O 0.66341 0.56361 0.08544 0.0
O58 O 0.6346 0.52036 0.10552 0.0
C59 C 0.5893 0.62988 0.09175 0.0
Tb60 Tb 0.0694 0.49466 0.91722 0.0
C61 C 0.01185 0.4709 0.88601 0.0
Tb62 Tb 0.98682 0.51697 0.91505 0.0
O63 O 0.02068 0.41709 0.91462 0.0
O64 O 0.99672 0.46145 0.92351 0.0
O65 O 0.05311 0.48087 0.89258 0.0
C66 C 0.90678 0.5212 0.91191 0.0
O67 O 0.98017 0.47951 0.893 0.0
C68 C 0.07294 0.59129 0.91522 0.0
C69 C 0.0347 0.52426 0.94776 0.0
O70 O 0.94467 0.54397 0.90335 0.0
O71 O 0.91372 0.49553 0.92213 0.0
O72 O 0.03556 0.59191 0.92028 0.0
O73 O 0.0603 0.55152 0.90882 0.0
O74 O 0.99598 0.51864 0.94031 0.0
O75 O 0.0698 0.52156 0.94065 0.0
C76 C 0.1563 0.50422 0.91901 0.0
O77 O 0.1188 0.47274 0.92651 0.0
O78 O 0.14488 0.53037 0.91054 0.0
C79 C 0.98338 0.41984 0.91869 0.0
Tb80 Tb 0.55972 0.59631 0.91643 0.0
C81 C 0.58448 0.5633 0.88534 0.0
Tb82 Tb 0.54069 0.49295 0.91436 0.0
O83 O 0.63687 0.62582 0.91275 0.0
O84 O 0.59499 0.55902 0.92305 0.0
O85 O 0.57274 0.5935 0.89172 0.0
C86 C 0.53662 0.40889 0.91058 0.0
O87 O 0.57809 0.52402 0.89254 0.0
C88 C 0.46484 0.50244 0.91479 0.0
C89 C 0.53506 0.53197 0.9471 0.0
O90 O 0.51059 0.42281 0.9032 0.0
O91 O 0.56556 0.44266 0.91995 0.0
O92 O 0.46614 0.46577 0.92034 0.0
O93 O 0.50383 0.52992 0.90807 0.0
O94 O 0.54325 0.50101 0.93947 0.0
O95 O 0.53395 0.56828 0.94002 0.0
C96 C 0.54899 0.67324 0.91817 0.0
O97 O 0.58151 0.66801 0.92541 0.0
O98 O 0.52238 0.63502 0.91006 0.0
C99 C 0.63587 0.58727 0.91781 0.0
Tb100 Tb 0.45998 0.98615 0.91562 0.0
C101 C 0.49289 0.04887 0.8854 0.0
Tb102 Tb 0.56222 0.07147 0.9146 0.0
O103 O 0.42918 0.03319 0.91261 0.0
O104 O 0.49564 0.05797 0.92307 0.0
O105 O 0.46392 1.00542 0.89111 0.0
C106 C 0.64524 0.1537 0.91373 0.0
O107 O 0.53094 0.08169 0.8932 0.0
C108 C 0.55556 0.98697 0.91359 0.0
C109 C 0.521 0.02222 0.94675 0.0
O110 O 0.62544 0.12528 0.90195 0.0
O111 O 0.61791 0.13632 0.92577 0.0
O112 O 0.59249 0.02529 0.91873 0.0
O113 O 0.52708 0.9983 0.90747 0.0
O114 O 0.55028 0.06305 0.9396 0.0
O115 O 0.48697 0.98474 0.93908 0.0
C116 C 0.38384 0.89835 0.91696 0.0
O117 O 0.3896 0.93506 0.92492 0.0
O118 O 0.42091 0.91108 0.90821 0.0
C119 C 0.46707 0.0706 0.91806 0.0
Tb120 Tb 0.15789 0.39762 0.42655 0.0
C121 C 0.13823 0.34397 0.4596 0.0
Tb122 Tb 0.18653 0.32141 0.43146 0.0
O123 O 0.08974 0.34695 0.41513 0.0
O124 O 0.12272 0.32368 0.43082 0.0
O125 O 0.14348 0.38193 0.45168 0.0
C126 C 0.19891 0.24528 0.43134 0.0
O127 O 0.14798 0.31224 0.45322 0.0
C128 C 0.25376 0.41077 0.43675 0.0
C129 C 0.19204 0.36426 0.39747 0.0
O130 O 0.22466 0.28465 0.43897 0.0
O131 O 0.16593 0.24858 0.42369 0.0
O132 O 0.25034 0.37413 0.44411 0.0
O133 O 0.22242 0.39576 0.42625 0.0
O134 O 0.18881 0.32813 0.40594 0.0
O135 O 0.18871 0.40011 0.40376 0.0
C136 C 0.16309 0.48253 0.42975 0.0
O137 O 0.13854 0.45099 0.4191 0.0
O138 O 0.18454 0.46624 0.43852 0.0
C139 C 0.08986 0.30962 0.42091 0.0
Tb140 Tb 0.66276 0.78059 0.42598 0.0
C141 C 0.71508 0.81799 0.45927 0.0
Tb142 Tb 0.73974 0.88596 0.43007 0.0
O143 O 0.71293 0.76124 0.41524 0.0
O144 O 0.73635 0.81919 0.43013 0.0
O145 O 0.67895 0.78371 0.45109 0.0
C146 C 0.81453 0.97462 0.42761 0.0
O147 O 0.74542 0.86056 0.45316 0.0
C148 C 0.6512 0.86441 0.43568 0.0
C149 C 0.69941 0.84435 0.39652 0.0
O150 O 0.77062 0.96194 0.42427 0.0
O151 O 0.81635 0.93749 0.43251 0.0
O152 O 0.68813 0.89761 0.44303 0.0
O153 O 0.66545 0.84742 0.42522 0.0
O154 O 0.7376 0.87461 0.40477 0.0
O155 O 0.66099 0.80892 0.40319 0.0
C156 C 0.57719 0.70228 0.42909 0.0
O157 O 0.60848 0.70841 0.41852 0.0
O158 O 0.59424 0.73994 0.43789 0.0
C159 C 0.75034 0.79912 0.42077 0.0
Tb160 Tb 0.27903 0.8999 0.42755 0.0
C161 C 0.23986 0.91966 0.45858 0.0
Tb162 Tb 0.17317 0.87198 0.42984 0.0
O163 O 0.30462 0.97624 0.43138 0.0
O164 O 0.23723 0.93121 0.42175 0.0
O165 O 0.26942 0.90671 0.45247 0.0
C166 C 0.08494 0.85778 0.42624 0.0
O167 O 0.20124 0.91351 0.45107 0.0
C168 C 0.19504 0.80667 0.43889 0.0
C169 C 0.21791 0.87273 0.39663 0.0
O170 O 0.12078 0.89584 0.43222 0.0
O171 O 0.09871 0.8277 0.42241 0.0
O172 O 0.16131 0.81192 0.44504 0.0
O173 O 0.21243 0.83592 0.42788 0.0
O174 O 0.18124 0.86972 0.40461 0.0
O175 O 0.25911 0.88203 0.40317 0.0
C176 C 0.35534 0.88896 0.42866 0.0
O177 O 0.34927 0.91614 0.41874 0.0
O178 O 0.31853 0.86807 0.43777 0.0
C179 C 0.26418 0.97256 0.42709 0.0
Tb180 Tb 0.73402 0.82818 0.24873 0.0
C181 C 0.67365 0.80201 0.21805 0.0
Tb182 Tb 0.64868 0.84525 0.24758 0.0
O183 O 0.68699 0.75064 0.24525 0.0
O184 O 0.66193 0.7916 0.25598 0.0
O185 O 0.71639 0.81507 0.22409 0.0
C186 C 0.5681 0.8488 0.24454 0.0
O187 O 0.64075 0.80721 0.22566 0.0
C188 C 0.7331 0.92265 0.24773 0.0
C189 C 0.69796 0.85365 0.27984 0.0
O190 O 0.6066 0.87317 0.23639 0.0
O191 O 0.57461 0.82163 0.25424 0.0
O192 O 0.69492 0.92011 0.25346 0.0
O193 O 0.72218 0.88388 0.24086 0.0
O194 O 0.65751 0.84398 0.27267 0.0
O195 O 0.7347 0.85528 0.27228 0.0
C196 C 0.82182 0.83908 0.2501 0.0
O197 O 0.78472 0.80739 0.25771 0.0
O198 O 0.80951 0.8648 0.24176 0.0
C199 C 0.6495 0.75072 0.25068 0.0
Tb200 Tb 0.22591 0.93073 0.24948 0.0
C201 C 0.25421 0.89492 0.21977 0.0
Tb202 Tb 0.20791 0.82822 0.24944 0.0
O203 O 0.30357 0.96097 0.24679 0.0
O204 O 0.26156 0.89526 0.25765 0.0
O205 O 0.24081 0.92487 0.22521 0.0
C206 C 0.20799 0.74588 0.24963 0.0
O207 O 0.24833 0.85702 0.22779 0.0
C208 C 0.13055 0.83537 0.24806 0.0
C209 C 0.19693 0.87088 0.28087 0.0
O210 O 0.18957 0.75965 0.23872 0.0
O211 O 0.22727 0.77888 0.26017 0.0
O212 O 0.13186 0.7988 0.25366 0.0
O213 O 0.17022 0.86319 0.24177 0.0
O214 O 0.20539 0.83871 0.2743 0.0
O215 O 0.19774 0.90679 0.27299 0.0
C216 C 0.21349 1.00621 0.24888 0.0
O217 O 0.24032 0.99988 0.25879 0.0
O218 O 0.19387 0.97026 0.23937 0.0
C219 C 0.30279 0.9233 0.25261 0.0
Tb220 Tb 0.12083 0.32109 0.25252 0.0
C221 C 0.15092 0.36945 0.21855 0.0
Tb222 Tb 0.22555 0.39735 0.2462 0.0
O223 O 0.10697 0.37437 0.26389 0.0
O224 O 0.15914 0.39386 0.24695 0.0
O225 O 0.11908 0.33297 0.22718 0.0
C226 C 0.31347 0.47413 0.24555 0.0
O227 O 0.19362 0.40172 0.22417 0.0
C228 C 0.20233 0.30797 0.24178 0.0
C229 C 0.19093 0.35882 0.28093 0.0
O230 O 0.3015 0.43195 0.2403 0.0
O231 O 0.27578 0.47332 0.25115 0.0
O232 O 0.23485 0.34337 0.2338 0.0
O233 O 0.18761 0.32412 0.25234 0.0
O234 O 0.22304 0.39377 0.27191 0.0
O235 O 0.15108 0.32222 0.27526 0.0
C236 C 0.04113 0.23566 0.25146 0.0
O237 O 0.046 0.27294 0.25891 0.0
O238 O 0.08104 0.24663 0.2446 0.0
C239 C 0.1427 0.41009 0.25684 0.0
Tb240 Tb 0.83139 0.73362 0.76261 0.0
C241 C 0.80604 0.67577 0.79371 0.0
Tb242 Tb 0.84956 0.64878 0.76479 0.0
O243 O 0.75403 0.68575 0.7661 0.0
O244 O 0.79601 0.66119 0.75584 0.0
O245 O 0.81838 0.7179 0.78732 0.0
C246 C 0.85162 0.56758 0.76826 0.0
O247 O 0.81198 0.64263 0.78655 0.0
C248 C 0.92607 0.73373 0.76439 0.0
C249 C 0.85727 0.69501 0.73213 0.0
O250 O 0.87805 0.60701 0.77584 0.0
O251 O 0.82346 0.57364 0.75889 0.0
O252 O 0.92437 0.6954 0.75905 0.0
O253 O 0.88708 0.72274 0.77103 0.0
O254 O 0.84817 0.65536 0.73968 0.0
O255 O 0.85854 0.73235 0.73924 0.0
C256 C 0.84132 0.82091 0.76043 0.0
O257 O 0.80966 0.78299 0.75307 0.0
O258 O 0.86757 0.8097 0.76894 0.0
C259 C 0.75501 0.64836 0.76094 0.0
Tb260 Tb 0.32246 0.12131 0.76092 0.0
C261 C 0.38309 0.15662 0.79153 0.0
Tb262 Tb 0.40551 0.22507 0.76193 0.0
O263 O 0.37093 0.09293 0.76453 0.0
O264 O 0.39439 0.15885 0.75361 0.0
O265 O 0.34071 0.12568 0.78552 0.0
C266 C 0.48513 0.30972 0.76527 0.0
O267 O 0.41479 0.1956 0.78391 0.0
C268 C 0.31978 0.21456 0.76232 0.0
C269 C 0.35647 0.18347 0.72962 0.0
O270 O 0.44611 0.29502 0.77317 0.0
O271 O 0.47961 0.27642 0.75559 0.0
O272 O 0.35689 0.25131 0.75649 0.0
O273 O 0.33252 0.18779 0.76898 0.0
O274 O 0.39545 0.21709 0.73677 0.0
O275 O 0.32188 0.14578 0.73703 0.0
C276 C 0.23496 0.04432 0.75987 0.0
O277 O 0.27243 0.04856 0.75284 0.0
O278 O 0.24677 0.08345 0.76744 0.0
C279 C 0.40777 0.13116 0.75903 0.0
Tb280 Tb 0.93302 0.22501 0.7622 0.0
C281 C 0.90026 0.25173 0.79301 0.0
Tb282 Tb 0.83023 0.20687 0.7638 0.0
O283 O 0.96307 0.30237 0.76567 0.0
O284 O 0.89647 0.26071 0.75519 0.0
O285 O 0.93035 0.23952 0.78684 0.0
C286 C 0.74691 0.20468 0.76684 0.0
O287 O 0.86109 0.24507 0.78564 0.0
C288 C 0.83885 0.13024 0.76389 0.0
C289 C 0.86922 0.19899 0.73132 0.0
O290 O 0.76004 0.17873 0.77467 0.0
O291 O 0.78102 0.23242 0.75744 0.0
O292 O 0.80242 0.13169 0.7582 0.0
O293 O 0.8665 0.16953 0.7705 0.0
O294 O 0.83848 0.20797 0.7387 0.0
O295 O 0.9051 0.19783 0.73867 0.0
C296 C 1.00984 0.21446 0.7603 0.0
O297 O 1.00357 0.24573 0.75268 0.0
O298 O 0.97279 0.18905 0.76897 0.0
C299 C 0.92492 0.30172 0.7604 0.0
Tb300 Tb 0.40179 0.15755 0.58415 0.0
C301 C 0.35049 0.14086 0.55082 0.0
Tb302 Tb 0.31963 0.18415 0.57946 0.0
O303 O 0.34967 0.08863 0.59504 0.0
O304 O 0.32828 0.1239 0.57971 0.0
O305 O 0.38597 0.14197 0.55922 0.0
C306 C 0.23662 0.18269 0.57764 0.0
O307 O 0.32012 0.15378 0.55655 0.0
C308 C 0.40586 0.26095 0.57968 0.0
C309 C 0.36327 0.18685 0.61308 0.0
O310 O 0.27186 0.20417 0.56792 0.0
O311 O 0.24775 0.16104 0.58828 0.0
O312 O 0.36672 0.26226 0.57767 0.0
O313 O 0.39394 0.21774 0.58111 0.0
O314 O 0.32559 0.18126 0.6049 0.0
O315 O 0.40102 0.18735 0.60673 0.0
C316 C 0.48633 0.1615 0.58303 0.0
O317 O 0.44993 0.13156 0.5913 0.0
O318 O 0.47499 0.189 0.57528 0.0
C319 C 0.31312 0.08968 0.58902 0.0
Tb320 Tb 0.8953 0.26598 0.58385 0.0
C321 C 0.92255 0.23451 0.55296 0.0
Tb322 Tb 0.87847 0.16363 0.58191 0.0
O323 O 0.97276 0.29631 0.58049 0.0
O324 O 0.93135 0.22978 0.59091 0.0
O325 O 0.90928 0.2637 0.55919 0.0
C326 C 0.87665 0.08049 0.57847 0.0
O327 O 0.91698 0.19563 0.56025 0.0
C328 C 0.80131 0.17094 0.58169 0.0
C329 C 0.86931 0.20156 0.61451 0.0
O330 O 0.8507 0.09378 0.57072 0.0
O331 O 0.9043 0.11442 0.588 0.0
O332 O 0.80336 0.13476 0.58732 0.0
O333 O 0.84048 0.19925 0.57519 0.0
O334 O 0.87877 0.1712 0.60705 0.0
O335 O 0.86806 0.23758 0.60728 0.0
C336 C 0.88373 0.34243 0.58556 0.0
O337 O 0.91624 0.3374 0.59288 0.0
O338 O 0.85757 0.30427 0.57736 0.0
C339 C 0.97233 0.25833 0.58584 0.0
Tb340 Tb 0.79213 0.65525 0.58443 0.0
C341 C 0.82579 0.7156 0.55387 0.0
Tb342 Tb 0.89422 0.73941 0.58328 0.0
O343 O 0.76267 0.70296 0.58061 0.0
O344 O 0.82812 0.72722 0.59179 0.0
O345 O 0.79685 0.6723 0.55969 0.0
C346 C 0.97665 0.8217 0.5824 0.0
O347 O 0.86357 0.7487 0.56166 0.0
C348 C 0.88668 0.65462 0.58268 0.0
C349 C 0.85362 0.69121 0.61558 0.0
O350 O 0.96117 0.78919 0.5716 0.0
O351 O 0.94535 0.80834 0.59342 0.0
O352 O 0.92332 0.6927 0.58812 0.0
O353 O 0.8587 0.66614 0.57623 0.0
O354 O 0.88464 0.73092 0.60828 0.0
O355 O 0.81758 0.65472 0.60819 0.0
C356 C 0.71467 0.56875 0.58646 0.0
O357 O 0.75473 0.5779 0.58011 0.0
O358 O 0.71826 0.60819 0.5916 0.0
C359 C 0.80013 0.74008 0.58636 0.0
H360 H 0.57899 0.88449 0.11705 0.0
H361 H 0.51771 0.63577 0.07718 0.0
H362 H 0.46779 0.81216 0.08272 0.0
H363 H 0.63504 0.71183 0.10918 0.0
H364 H 0.49633 0.69803 0.08014 0.0
H365 H 0.59694 0.81928 0.11567 0.0
C366 C 0.55805 0.85459 0.10934 0.0
C367 C 0.52193 0.85362 0.09996 0.0
C368 C 0.52677 0.70124 0.08653 0.0
C369 C 0.54249 0.77921 0.0982 0.0
C370 C 0.53888 0.66563 0.08487 0.0
C371 C 0.57806 0.66874 0.09297 0.0
C372 C 0.55409 0.74035 0.0964 0.0
C373 C 0.60475 0.70839 0.10264 0.0
C374 C 0.56844 0.81751 0.1085 0.0
C375 C 0.49595 0.81422 0.09014 0.0
N376 N 0.59223 0.7427 0.10411 0.0
N377 N 0.50686 0.77865 0.08947 0.0
H378 H 0.40647 0.89545 0.07914 0.0
H379 H 0.14406 0.71885 0.11224 0.0
H380 H 0.33048 0.9414 0.10915 0.0
H381 H 0.22376 0.67098 0.08483 0.0
H382 H 0.21183 0.80061 0.11116 0.0
H383 H 0.33997 0.81311 0.08096 0.0
C384 C 0.37585 0.88806 0.0862 0.0
C385 C 0.37398 0.92507 0.09409 0.0
C386 C 0.21463 0.77228 0.1054 0.0
C387 C 0.29747 0.83115 0.09609 0.0
C388 C 0.17595 0.72562 0.10602 0.0
C389 C 0.17841 0.68825 0.09859 0.0
C390 C 0.25605 0.7817 0.09724 0.0
C391 C 0.22049 0.69887 0.0907 0.0
C392 C 0.33781 0.84111 0.08718 0.0
C393 C 0.33318 0.91382 0.10285 0.0
N394 N 0.25765 0.74467 0.0902 0.0
N395 N 0.2965 0.86784 0.10361 0.0
H396 H 0.1228 0.44574 0.06707 0.0
H397 H 0.3507 0.52212 0.11975 0.0
H398 H 0.14234 0.51792 0.11103 0.0
H399 H 0.36389 0.5357 0.0698 0.0
H400 H 0.26847 0.5069 0.11749 0.0
H401 H 0.20695 0.46511 0.06833 0.0
C402 C 0.14478 0.46561 0.07693 0.0
C403 C 0.12586 0.48026 0.08896 0.0
C404 C 0.28958 0.51348 0.10706 0.0
C405 C 0.22059 0.5015 0.0906 0.0
C406 C 0.33626 0.52212 0.10835 0.0
C407 C 0.36379 0.53039 0.09495 0.0
C408 C 0.27023 0.51193 0.09225 0.0
C409 C 0.34366 0.52983 0.0804 0.0
C410 C 0.19253 0.47674 0.07762 0.0
C411 C 0.15557 0.50604 0.10149 0.0
N412 N 0.29771 0.52018 0.07939 0.0
N413 N 0.20134 0.51539 0.10208 0.0
H414 H 0.89272 0.58147 0.89316 0.0
H415 H 0.64329 0.51687 0.9327 0.0
H416 H 0.82589 0.47612 0.92944 0.0
H417 H 0.71666 0.63271 0.90009 0.0
H418 H 0.70703 0.49747 0.93016 0.0
H419 H 0.82552 0.59648 0.89388 0.0
C420 C 0.86364 0.56123 0.90118 0.0
C421 C 0.86477 0.52765 0.9113 0.0
C422 C 0.70928 0.52712 0.92353 0.0
C423 C 0.7881 0.54474 0.91226 0.0
C424 C 0.6728 0.53805 0.92494 0.0
C425 C 0.67483 0.57631 0.91656 0.0
C426 C 0.7481 0.55469 0.91366 0.0
C427 C 0.71407 0.6031 0.90682 0.0
C428 C 0.82542 0.56992 0.90163 0.0
C429 C 0.82636 0.50241 0.92148 0.0
N430 N 0.74923 0.59175 0.90562 0.0
N431 N 0.78963 0.51158 0.92174 0.0
H432 H 0.54204 0.14938 0.93092 0.0
H433 H 0.47069 0.33297 0.89361 0.0
H434 H 0.4181 0.10541 0.9017 0.0
H435 H 0.58626 0.37415 0.9264 0.0
H436 H 0.45468 0.25038 0.89467 0.0
H437 H 0.56214 0.2327 0.92789 0.0
C438 C 0.51909 0.15739 0.92385 0.0
C439 C 0.47832 0.12065 0.91658 0.0
C440 C 0.48371 0.27749 0.90157 0.0
C441 C 0.50096 0.21583 0.91305 0.0
C442 C 0.49298 0.32463 0.90092 0.0
C443 C 0.52974 0.36022 0.90997 0.0
C444 C 0.51147 0.26597 0.91135 0.0
C445 C 0.55752 0.34765 0.91926 0.0
C446 C 0.53052 0.20492 0.92213 0.0
C447 C 0.44965 0.1328 0.9076 0.0
N448 N 0.54769 0.30148 0.91976 0.0
N449 N 0.46152 0.17945 0.90607 0.0
H450 H 0.70501 0.18324 0.93855 0.0
H451 H 0.9064 0.42466 0.90776 0.0
H452 H 0.6972 0.21465 0.89015 0.0
H453 H 0.94726 0.32623 0.92648 0.0
H454 H 0.82364 0.35919 0.90574 0.0
H455 H 0.78904 0.24735 0.93918 0.0
C456 C 0.72092 0.20405 0.92812 0.0
C457 C 0.69448 0.19403 0.91427 0.0
C458 C 0.85088 0.35215 0.91028 0.0
C459 C 0.78944 0.26716 0.91505 0.0
C460 C 0.89794 0.38947 0.91158 0.0
C461 C 0.9335 0.38084 0.91742 0.0
C462 C 0.83927 0.30638 0.91536 0.0
C463 C 0.92067 0.33417 0.92193 0.0
C464 C 0.7687 0.24012 0.92848 0.0
C465 C 0.71666 0.22151 0.90102 0.0
N466 N 0.87422 0.2986 0.92107 0.0
N467 N 0.76296 0.25752 0.90177 0.0
H468 H 0.18667 0.97381 0.41468 0.0
H469 H 0.26897 0.23762 0.44638 0.0
H470 H 0.31492 0.05878 0.44155 0.0
H471 H 0.14731 0.15962 0.41609 0.0
H472 H 0.28353 0.17028 0.44583 0.0
H473 H 0.16865 0.03911 0.41615 0.0
C474 C 0.2109 1.00619 0.42094 0.0
C475 C 0.25237 0.01112 0.42798 0.0
C476 C 0.25359 0.16774 0.4393 0.0
C477 C 0.23222 0.08585 0.42967 0.0
C478 C 0.24525 0.20618 0.43963 0.0
C479 C 0.20698 0.20413 0.43123 0.0
C480 C 0.22338 0.1268 0.43052 0.0
C481 C 0.17729 0.16257 0.42269 0.0
C482 C 0.20071 0.04346 0.42173 0.0
C483 C 0.28272 0.05374 0.43588 0.0
N484 N 0.18614 0.12549 0.42254 0.0
N485 N 0.27205 0.08946 0.43651 0.0
H486 H 1.00516 0.27384 0.40475 0.0
H487 H 0.90707 1.00625 0.43592 0.0
H488 H 0.08375 0.23227 0.43562 0.0
H489 H 0.8157 0.053 0.41503 0.0
H490 H 0.97519 0.08727 0.43297 0.0
H491 H 0.93785 0.19108 0.40541 0.0
C492 C 1.00841 0.24722 0.41152 0.0
C493 C 0.05007 0.25976 0.42009 0.0
C494 C 0.94026 0.07986 0.42902 0.0
C495 C 0.97374 0.16559 0.42091 0.0
C496 C 0.90144 0.03365 0.4307 0.0
C497 C 0.85583 0.0232 0.4258 0.0
C498 C 0.93343 0.11577 0.42228 0.0
C499 C 0.85038 0.05983 0.41904 0.0
C500 C 0.97004 0.20015 0.41194 0.0
C501 C 0.05248 0.22407 0.42873 0.0
N502 N 0.88877 0.10459 0.41746 0.0
N503 N 0.0149 0.17869 0.42892 0.0
H504 H 1.0092 0.78267 0.41176 0.0
H505 H 0.82486 0.86443 0.43793 0.0
H506 H 0.05008 0.9146 0.43605 0.0
H507 H 0.78867 0.75523 0.40317 0.0
H508 H 0.90675 0.88064 0.43805 0.0
H509 H 0.92762 0.76906 0.40913 0.0
C510 C 1.00095 0.80878 0.4165 0.0
C511 C 0.03616 0.84969 0.4242 0.0
C512 C 0.88121 0.85345 0.43025 0.0
C513 C 0.94332 0.83433 0.42131 0.0
C514 C 0.83439 0.84441 0.43009 0.0
C515 C 0.80013 0.80909 0.4203 0.0
C516 C 0.89399 0.82641 0.42074 0.0
C517 C 0.81418 0.78301 0.41081 0.0
C518 C 0.95452 0.80107 0.41496 0.0
C519 C 0.02386 0.88252 0.43008 0.0
N520 N 0.86015 0.79203 0.41131 0.0
N521 N 0.97838 0.87397 0.4286 0.0
H522 H 0.31036 0.85366 0.26806 0.0
H523 H 0.5548 0.91058 0.22637 0.0
H524 H 0.38245 0.96621 0.2343 0.0
H525 H 0.48753 0.80441 0.26239 0.0
H526 H 0.48928 0.92788 0.22783 0.0
H527 H 0.37253 0.83207 0.26511 0.0
C528 C 0.33926 0.87367 0.25997 0.0
C529 C 0.34131 0.91159 0.25137 0.0
C530 C 0.48866 0.90062 0.23536 0.0
C531 C 0.41279 0.88746 0.24798 0.0
C532 C 0.52594 0.89059 0.23448 0.0
C533 C 0.52651 0.8561 0.2443 0.0
C534 C 0.45169 0.87596 0.24615 0.0
C535 C 0.48838 0.83131 0.25463 0.0
C536 C 0.37483 0.86148 0.25833 0.0
C537 C 0.37982 0.93691 0.24122 0.0
N538 N 0.45258 0.84185 0.25533 0.0
N539 N 0.41405 0.92434 0.23979 0.0
H540 H 0.21597 0.7029 0.27586 0.0
H541 H 0.18112 0.47199 0.23289 0.0
H542 H 0.1841 0.67947 0.22677 0.0
H543 H 0.12727 0.46109 0.2795 0.0
H544 H 0.19813 0.55423 0.23147 0.0
H545 H 0.19891 0.61989 0.27838 0.0
C546 C 0.20587 0.68037 0.2656 0.0
C547 C 0.20153 0.69772 0.25106 0.0
C548 C 0.18258 0.53388 0.24201 0.0
C549 C 0.18241 0.60382 0.25387 0.0
C550 C 0.17305 0.48699 0.24289 0.0
C551 C 0.15268 0.45976 0.25635 0.0
C552 C 0.17259 0.55415 0.25479 0.0
C553 C 0.14275 0.48102 0.26891 0.0
C554 C 0.19577 0.63313 0.2671 0.0
C555 C 0.18791 0.66726 0.23815 0.0
N556 N 0.1532 0.52743 0.26789 0.0
N557 N 0.17915 0.62175 0.23984 0.0
H558 H 0.57096 0.74343 0.265 0.0
H559 H 0.39317 0.47916 0.23306 0.0
H560 H 0.61551 0.66623 0.23496 0.0
H561 H 0.34547 0.56269 0.25845 0.0
H562 H 0.47502 0.54667 0.23407 0.0
H563 H 0.48848 0.6772 0.26324 0.0
C564 C 0.56323 0.71262 0.25794 0.0
C565 C 0.5999 0.71038 0.25 0.0
C566 C 0.44671 0.55039 0.23939 0.0
C567 C 0.50581 0.63409 0.24811 0.0
C568 C 0.39998 0.51185 0.23882 0.0
C569 C 0.36261 0.51544 0.2457 0.0
C570 C 0.45624 0.59282 0.24698 0.0
C571 C 0.37334 0.55854 0.253 0.0
C572 C 0.5162 0.67472 0.25699 0.0
C573 C 0.58822 0.66926 0.24128 0.0
N574 N 0.41923 0.59553 0.2535 0.0
N575 N 0.54218 0.63271 0.24057 0.0
H576 H 0.80181 0.48482 0.75169 0.0
H577 H 0.96922 0.38026 0.77922 0.0
H578 H 0.91568 0.55471 0.78532 0.0
H579 H 0.85518 0.3108 0.74565 0.0
H580 H 0.94843 0.44315 0.7824 0.0
H581 H 0.81791 0.41837 0.75042 0.0
C582 C 0.82989 0.48588 0.75892 0.0
C583 C 0.85759 0.52522 0.76859 0.0
C584 C 0.92784 0.4141 0.77437 0.0
C585 C 0.87662 0.4498 0.76709 0.0
C586 C 0.93989 0.37842 0.77249 0.0
C587 C 0.91374 0.34043 0.76219 0.0
C588 C 0.88955 0.41179 0.76579 0.0
C589 C 0.87581 0.3393 0.75385 0.0
C590 C 0.8392 0.44807 0.75816 0.0
C591 C 0.89356 0.52496 0.77771 0.0
N592 N 0.86489 0.37452 0.7558 0.0
N593 N 0.90226 0.48796 0.77667 0.0
H594 H 0.74783 0.57173 0.74545 0.0
H595 H 0.49687 0.38378 0.78357 0.0
H596 H 0.67345 0.61156 0.77837 0.0
H597 H 0.56756 0.34655 0.7484 0.0
H598 H 0.56341 0.46636 0.78311 0.0
H599 H 0.6842 0.48827 0.74748 0.0
C600 C 0.71812 0.56273 0.75318 0.0
C601 C 0.71586 0.59834 0.76182 0.0
C602 C 0.56452 0.44013 0.77554 0.0
C603 C 0.64262 0.50304 0.76411 0.0
C604 C 0.52665 0.39299 0.77584 0.0
C605 C 0.5268 0.35848 0.76598 0.0
C606 C 0.60281 0.45281 0.76529 0.0
C607 C 0.56612 0.37218 0.75617 0.0
C608 C 0.6817 0.51514 0.75429 0.0
C609 C 0.67629 0.58506 0.77146 0.0
N610 N 0.6025 0.41835 0.75604 0.0
N611 N 0.64117 0.53838 0.77237 0.0
H612 H 0.4428 0.08726 0.77766 0.0
H613 H 0.71376 0.25388 0.74991 0.0
H614 H 0.48636 0.20216 0.74455 0.0
H615 H 0.6704 0.14163 0.78407 0.0
H616 H 0.63136 0.23816 0.74866 0.0
H617 H 0.52643 0.10829 0.78079 0.0
C618 C 0.47007 0.11687 0.77103 0.0
C619 C 0.45789 0.14308 0.76083 0.0
C620 C 0.63989 0.21716 0.75651 0.0
C621 C 0.55353 0.16752 0.76436 0.0
C622 C 0.68691 0.22623 0.75725 0.0
C623 C 0.69868 0.19888 0.76707 0.0
C624 C 0.60443 0.18031 0.7656 0.0
C625 C 0.66269 0.16347 0.77633 0.0
C626 C 0.5178 0.12904 0.77287 0.0
C627 C 0.49447 0.18138 0.75262 0.0
N628 N 0.6171 0.155 0.7753 0.0
N629 N 0.54067 0.19238 0.75452 0.0
H630 H 0.04991 0.30056 0.56664 0.0
H631 H 0.16094 0.14227 0.5977 0.0
H632 H 0.98206 0.19006 0.60132 0.0
H633 H 0.21638 0.23705 0.5582 0.0
H634 H 0.09501 0.15912 0.59931 0.0
H635 H 0.11226 0.27894 0.56369 0.0
C636 C 0.04836 0.2719 0.57368 0.0
C637 C 1.01099 0.247 0.58424 0.0
C638 C 0.12139 0.17597 0.59021 0.0
C639 C 0.08177 0.22191 0.58093 0.0
C640 C 0.1589 0.16624 0.58928 0.0
C641 C 0.19407 0.18838 0.57783 0.0
C642 C 0.11937 0.2084 0.5797 0.0
C643 C 0.18993 0.21924 0.56722 0.0
C644 C 0.08369 0.25933 0.57193 0.0
C645 C 1.01019 0.20984 0.59297 0.0
N646 N 0.15348 0.22862 0.56847 0.0
N647 N 0.04515 0.19851 0.59117 0.0
H648 H 0.75647 0.77521 0.56754 0.0
H649 H 0.92527 0.0466 0.59533 0.0
H650 H 0.87062 0.81856 0.601 0.0
H651 H 0.81319 1.00421 0.56109 0.0
H652 H 0.90846 0.96376 0.59658 0.0
H653 H 0.77822 0.85923 0.56431 0.0
C654 C 0.786 0.80249 0.57424 0.0
C655 C 0.81184 0.79019 0.58456 0.0
C656 C 0.88773 0.97258 0.58871 0.0
C657 C 0.83713 0.88612 0.5809 0.0
C658 C 0.89745 0.01987 0.58796 0.0
C659 C 0.87045 0.03205 0.57813 0.0
C660 C 0.85058 0.93726 0.57961 0.0
C661 C 0.83477 0.99617 0.56884 0.0
C662 C 0.7986 0.85041 0.57234 0.0
C663 C 0.8501 0.82675 0.59284 0.0
N664 N 0.82565 0.95031 0.56988 0.0
N665 N 0.86153 0.87308 0.59087 0.0
H666 H 0.26759 0.01775 0.61056 0.0
H667 H 0.03854 0.86684 0.55857 0.0
H668 H 0.24529 0.07359 0.56759 0.0
H669 H 0.02462 0.86924 0.60844 0.0
H670 H 0.12122 0.93331 0.5608 0.0
H671 H 0.1835 0.95238 0.60939 0.0
C672 C 0.24504 0.0162 0.60094 0.0
C673 C 0.26311 0.05085 0.58917 0.0
C674 C 0.09984 0.91925 0.57122 0.0
C675 C 0.16864 0.97671 0.5876 0.0
C676 C 0.05293 0.88157 0.56995 0.0
C677 C 0.02504 0.86316 0.58333 0.0
C678 C 0.11904 0.93743 0.586 0.0
C679 C 0.04512 0.88303 0.59785 0.0
C680 C 0.19737 0.97926 0.6003 0.0
C681 C 0.2327 0.04761 0.57693 0.0
N682 N 0.09129 0.91892 0.59885 0.0
N683 N 0.18708 0.01085 0.57636 0.0
H684 H 0.54804 0.09881 0.04414 0.0
H685 H 0.47633 0.94387 0.96603 0.0
H686 H 0.49231 0.94607 0.04391 0.0
H687 H 0.5705 0.09709 0.96677 0.0
H688 H 0.47736 0.94363 0.99456 0.0
H689 H 0.55208 0.09885 0.01567 0.0
C690 C 0.5368 0.06533 0.03813 0.0
C691 C 0.51983 0.0224 0.04645 0.0
C692 C 0.49802 0.97723 0.98845 0.0
C693 C 0.52396 0.02212 0.01387 0.0
C694 C 0.49739 0.97739 0.97217 0.0
C695 C 0.52333 0.02054 0.96396 0.0
C696 C 0.52425 0.02058 0.99659 0.0
C697 C 0.55004 0.06291 0.97256 0.0
C698 C 0.53922 0.06539 0.02188 0.0
C699 C 0.50582 0.98009 0.03801 0.0
N700 N 0.5495 0.0619 0.98838 0.0
N701 N 0.50788 0.98097 0.0222 0.0
H702 H 0.99722 0.56654 0.96643 0.0
H703 H 1.0099 0.4439 0.04318 0.0
H704 H 0.0764 0.49147 0.96813 0.0
H705 H 0.04434 0.5912 0.04628 0.0
H706 H 0.01606 0.45131 0.0148 0.0
H707 H 0.9974 0.56817 0.99516 0.0
C708 C 0.01482 0.5507 0.97283 0.0
C709 C 0.03691 0.52892 0.96492 0.0
C710 C 0.02218 0.48195 0.02171 0.0
C711 C 0.03611 0.52964 0.99748 0.0
C712 C 0.01842 0.47773 0.03785 0.0
C713 C 0.02659 0.51702 0.04703 0.0
C714 C 0.03279 0.52532 0.01463 0.0
C715 C 0.03797 0.56019 0.03955 0.0
C716 C 0.01506 0.55185 0.98914 0.0
C717 C 0.05924 0.50891 0.97375 0.0
N718 N 0.04015 0.5631 0.0237 0.0
N719 N 0.05756 0.50902 0.98955 0.0
H720 H 0.50222 0.57531 0.96707 0.0
H721 H 0.58166 0.49509 0.04427 0.0
H722 H 0.55993 0.48006 0.96624 0.0
H723 H 0.48163 0.54704 0.04407 0.0
H724 H 0.57956 0.49408 0.01568 0.0
H725 H 0.49998 0.5707 0.99553 0.0
C726 C 0.51424 0.55332 0.97286 0.0
C727 C 0.53118 0.52799 0.96425 0.0
C728 C 0.55788 0.50536 0.02196 0.0
C729 C 0.5292 0.52292 0.99679 0.0
C730 C 0.5591 0.50598 0.03825 0.0
C731 C 0.53183 0.52116 0.04661 0.0
C732 C 0.52975 0.52069 0.01402 0.0
C733 C 0.50322 0.53492 0.03818 0.0
C734 C 0.51287 0.55059 0.98909 0.0
C735 C 0.54631 0.49999 0.97239 0.0
N736 N 0.50324 0.53472 0.02239 0.0
N737 N 0.5453 0.49849 0.9882 0.0
H738 H 0.1773 0.28901 0.37895 0.0
H739 H 0.24642 0.43743 0.29917 0.0
H740 H 0.22219 0.43943 0.37701 0.0
H741 H 0.15295 0.28441 0.30158 0.0
H742 H 0.25232 0.43993 0.32771 0.0
H743 H 0.18282 0.28821 0.35056 0.0
C744 C 0.18884 0.32202 0.37259 0.0
C745 C 0.19904 0.36431 0.3804 0.0
C746 C 0.23084 0.40582 0.32195 0.0
C747 C 0.20557 0.36359 0.34786 0.0
C748 C 0.2277 0.40432 0.30567 0.0
C749 C 0.19897 0.36067 0.29798 0.0
C750 C 0.20571 0.36328 0.33056 0.0
C751 C 0.17521 0.3189 0.30702 0.0
C752 C 0.19175 0.32145 0.35637 0.0
C753 C 0.21362 0.40592 0.37148 0.0
N754 N 0.17913 0.32124 0.3228 0.0
N755 N 0.21645 0.40453 0.3557 0.0
H756 H 0.62261 0.80572 0.37678 0.0
H757 H 0.77652 0.88436 0.29893 0.0
H758 H 0.77622 0.8954 0.37724 0.0
H759 H 0.62494 0.83361 0.29999 0.0
H760 H 0.77789 0.88614 0.32746 0.0
H761 H 0.62323 0.81238 0.34847 0.0
C762 C 0.65651 0.82691 0.37093 0.0
C763 C 0.69946 0.84995 0.37941 0.0
C764 C 0.74445 0.875 0.32142 0.0
C765 C 0.70043 0.85749 0.34691 0.0
C766 C 0.7436 0.87388 0.30513 0.0
C767 C 0.70051 0.85863 0.29702 0.0
C768 C 0.7018 0.86015 0.32964 0.0
C769 C 0.65902 0.84564 0.3057 0.0
C770 C 0.65681 0.83086 0.35476 0.0
C771 C 0.74226 0.87715 0.37118 0.0
N772 N 0.66064 0.84628 0.32151 0.0
N773 N 0.74172 0.87985 0.35536 0.0
H774 H 0.15127 0.79264 0.29969 0.0
H775 H 0.28756 0.92425 0.37549 0.0
H776 H 0.23495 0.94682 0.30067 0.0
H777 H 0.13883 0.8158 0.37908 0.0
H778 H 0.27843 0.92415 0.34709 0.0
H779 H 0.15391 0.79178 0.32833 0.0
C780 C 0.16965 0.82624 0.30597 0.0
C781 C 0.19264 0.86989 0.29792 0.0
C782 C 0.24796 0.90031 0.35415 0.0
C783 C 0.19728 0.86895 0.33031 0.0
C784 C 0.25321 0.89998 0.37026 0.0
C785 C 0.21387 0.8699 0.37955 0.0
C786 C 0.20348 0.86939 0.34731 0.0
C787 C 0.16994 0.83954 0.37226 0.0
C788 C 0.17115 0.82568 0.32221 0.0
C789 C 0.21632 0.9125 0.3065 0.0
N790 N 0.16596 0.83964 0.35649 0.0
N791 N 0.21879 0.91096 0.32227 0.0
H792 H 0.89114 0.7721 0.7124 0.0
H793 H 0.80711 0.614 0.6352 0.0
H794 H 0.83241 0.61887 0.7128 0.0
H795 H 0.90783 0.76594 0.63506 0.0
H796 H 0.81105 0.61482 0.66371 0.0
H797 H 0.89287 0.77067 0.68393 0.0
C798 C 0.87886 0.73824 0.70652 0.0
C799 C 0.86164 0.69558 0.715 0.0
C800 C 0.83249 0.64786 0.65739 0.0
C801 C 0.863 0.6936 0.68247 0.0
C802 C 0.83016 0.64743 0.64114 0.0
C803 C 0.85712 0.68993 0.63272 0.0
C804 C 0.86143 0.69121 0.66525 0.0
C805 C 0.88648 0.73224 0.64103 0.0
C806 C 0.87994 0.73744 0.69028 0.0
C807 C 0.84621 0.65269 0.70675 0.0
N808 N 0.88755 0.73186 0.65683 0.0
N809 N 0.84687 0.65273 0.69095 0.0
H810 H 0.39111 0.1415 0.63355 0.0
H811 H 0.38593 0.26268 0.71111 0.0
H812 H 0.33126 0.23464 0.63159 0.0
H813 H 0.32128 0.10905 0.70917 0.0
H814 H 0.38494 0.26478 0.68239 0.0
H815 H 0.38596 0.14074 0.66205 0.0
C816 C 0.37736 0.1622 0.63915 0.0
C817 C 0.36169 0.18829 0.63026 0.0
C818 C 0.37066 0.23073 0.68834 0.0
C819 C 0.35657 0.18816 0.66274 0.0
C820 C 0.37135 0.22948 0.70464 0.0
C821 C 0.35347 0.1856 0.71247 0.0
C822 C 0.35361 0.188 0.67991 0.0
C823 C 0.33502 0.14356 0.70358 0.0
C824 C 0.37416 0.16145 0.65534 0.0
C825 C 0.34361 0.21405 0.63807 0.0
N826 N 0.33634 0.14585 0.68776 0.0
N827 N 0.3421 0.2139 0.65395 0.0
H828 H 0.83566 0.24527 0.63409 0.0
H829 H 0.91406 0.16649 0.71179 0.0
H830 H 0.89228 0.14908 0.63411 0.0
H831 H 0.81668 0.22161 0.71163 0.0
H832 H 0.91083 0.16399 0.68328 0.0
H833 H 0.83256 0.24136 0.66258 0.0
C834 C 0.84721 0.22317 0.64006 0.0
C835 C 0.86425 0.1975 0.63167 0.0
C836 C 0.88993 0.1763 0.68951 0.0
C837 C 0.86131 0.19328 0.66426 0.0
C838 C 0.89184 0.17783 0.70578 0.0
C839 C 0.86563 0.19428 0.71414 0.0
C840 C 0.8622 0.19201 0.68153 0.0
C841 C 0.83737 0.20848 0.70571 0.0
C842 C 0.84535 0.22087 0.65631 0.0
C843 C 0.87869 0.16936 0.64005 0.0
N844 N 0.83673 0.20739 0.68989 0.0
N845 N 0.87727 0.16834 0.65587 0.0
H846 H 0.27702 0.9716 0.20068 0.0
H847 H 0.43911 0.91894 0.1429 0.0
H848 H 0.29773 0.84995 0.20577 0.0
H849 H 0.43273 0.04949 0.14227 0.0
H850 H 0.38643 0.89208 0.16552 0.0
H851 H 0.33101 0.99834 0.17848 0.0
C852 C 0.29247 0.95013 0.19706 0.0
C853 C 0.28253 0.90826 0.20516 0.0
C854 C 0.39685 0.92676 0.16051 0.0
C855 C 0.34519 0.93927 0.1797 0.0
C856 C 0.42715 0.94229 0.1476 0.0
C857 C 0.44056 0.98668 0.14061 0.0
C858 C 0.37937 0.95557 0.16645 0.0
C859 C 0.42364 0.01513 0.14726 0.0
C860 C 0.32364 0.96569 0.1844 0.0
C861 C 0.30401 0.88227 0.19987 0.0
N862 N 0.39374 0.99897 0.15971 0.0
N863 N 0.33435 0.89823 0.18751 0.0
H864 H 0.11428 0.5317 0.14545 0.0
H865 H 0.06416 0.31724 0.20359 0.0
H866 H 0.98794 0.39193 0.14222 0.0
H867 H 0.19914 0.44919 0.20027 0.0
H868 H 0.03366 0.34393 0.18192 0.0
H869 H 0.14238 0.50329 0.1671 0.0
C870 C 0.09199 0.4952 0.14941 0.0
C871 C 0.04863 0.46419 0.14189 0.0
C872 C 0.07006 0.36681 0.18587 0.0
C873 C 0.08124 0.43108 0.16667 0.0
C874 C 0.08767 0.35147 0.19819 0.0
C875 C 0.13437 0.38097 0.20384 0.0
C876 C 0.09919 0.41215 0.17923 0.0
C877 C 0.16296 0.42507 0.19637 0.0
C878 C 0.10836 0.47885 0.16172 0.0
C879 C 0.02158 0.41719 0.14761 0.0
N880 N 0.1448 0.4394 0.18458 0.0
N881 N 0.03842 0.40202 0.15961 0.0
H882 H 0.72562 0.77292 0.20058 0.0
H883 H 0.51414 0.62246 0.13961 0.0
H884 H 0.58896 0.76664 0.20192 0.0
H885 H 0.64368 0.61482 0.14243 0.0
H886 H 0.54189 0.67765 0.1617 0.0
H887 H 0.69803 0.71925 0.17815 0.0
C888 C 0.69002 0.76082 0.19607 0.0
C889 C 0.65965 0.77451 0.20322 0.0
C890 C 0.56411 0.66367 0.15754 0.0
C891 C 0.62753 0.71227 0.17754 0.0
C892 C 0.54818 0.6319 0.14495 0.0
C893 C 0.57645 0.61363 0.13912 0.0
C894 C 0.60884 0.67766 0.16435 0.0
C895 C 0.62045 0.62766 0.14651 0.0
C896 C 0.67415 0.7298 0.18329 0.0
C897 C 0.61375 0.75722 0.19683 0.0
N898 N 0.63531 0.65891 0.15866 0.0
N899 N 0.59909 0.72696 0.1844 0.0
H900 H 0.0641 0.44218 0.86853 0.0
H901 H 0.84986 0.28525 0.8092 0.0
H902 H 0.92661 0.43406 0.8701 0.0
H903 H 0.98352 0.28518 0.8099 0.0
H904 H 0.87766 0.34045 0.83122 0.0
H905 H 0.03637 0.3875 0.84635 0.0
C906 C 0.02827 0.42945 0.86412 0.0
C907 C 0.99774 0.44299 0.87126 0.0
C908 C 0.90081 0.32814 0.82663 0.0
C909 C 0.96546 0.37953 0.84588 0.0
C910 C 0.88484 0.2963 0.81408 0.0
C911 C 0.91426 0.28022 0.80764 0.0
C912 C 0.94671 0.34439 0.83283 0.0
C913 C 0.95939 0.29627 0.81448 0.0
C914 C 0.01234 0.39788 0.85149 0.0
C915 C 0.95159 0.42492 0.865 0.0
N916 N 0.97427 0.32758 0.82662 0.0
N917 N 0.93685 0.39405 0.85274 0.0
H918 H 0.61631 0.5124 0.8687 0.0
H919 H 0.7761 0.72826 0.81059 0.0
H920 H 0.61856 0.64742 0.86896 0.0
H921 H 0.76991 0.59136 0.80984 0.0
H922 H 0.7202 0.70034 0.83239 0.0
H923 H 0.67207 0.54079 0.84697 0.0
C924 C 0.62798 0.54781 0.86408 0.0
C925 C 0.61255 0.5775 0.87072 0.0
C926 C 0.73132 0.67654 0.8275 0.0
C927 C 0.67732 0.61062 0.84589 0.0
C928 C 0.76358 0.69258 0.81512 0.0
C929 C 0.77789 0.66218 0.80832 0.0
C930 C 0.71312 0.62971 0.83315 0.0
C931 C 0.76006 0.61619 0.81467 0.0
C932 C 0.66016 0.56413 0.8517 0.0
C933 C 0.62925 0.62314 0.86421 0.0
N934 N 0.72852 0.60135 0.82666 0.0
N935 N 0.66091 0.63838 0.85223 0.0
H936 H 0.46775 0.20825 0.80757 0.0
H937 H 0.41297 0.99571 0.86736 0.0
H938 H 0.33403 0.07453 0.80892 0.0
H939 H 0.53899 0.13575 0.8703 0.0
H940 H 0.38569 0.02289 0.84508 0.0
H941 H 0.49557 0.18202 0.83002 0.0
C942 C 0.44393 0.17362 0.81267 0.0
C943 C 0.39828 0.14371 0.80629 0.0
C944 C 0.41942 0.04765 0.85055 0.0
C945 C 0.43046 0.11305 0.83194 0.0
C946 C 0.43526 0.03204 0.86325 0.0
C947 C 0.47853 0.06336 0.87078 0.0
C948 C 0.44698 0.09499 0.84522 0.0
C949 C 0.50551 0.11016 0.86489 0.0
C950 C 0.46001 0.15856 0.82547 0.0
C951 C 0.36937 0.09903 0.81341 0.0
N952 N 0.48928 0.12452 0.8525 0.0
N953 N 0.38602 0.08503 0.82575 0.0
H954 H 0.94642 0.31374 0.53483 0.0
H955 H 0.11681 0.26758 0.47863 0.0
H956 H 0.96535 0.1906 0.53811 0.0
H957 H 0.09721 0.39011 0.47441 0.0
H958 H 0.06345 0.24059 0.501 0.0
H959 H 1.0014 0.34253 0.51277 0.0
C960 C 0.96162 0.2924 0.53083 0.0
C961 C 0.95094 0.24949 0.53837 0.0
C962 C 0.071 0.27354 0.49525 0.0
C963 C 0.01471 0.28282 0.51321 0.0
C964 C 0.10178 0.28919 0.48249 0.0
C965 C 0.11155 0.33119 0.47453 0.0
C966 C 0.04955 0.29992 0.50014 0.0
C967 C 0.09082 0.35754 0.48015 0.0
C968 C 0.99331 0.30908 0.51827 0.0
C969 C 0.97216 0.22371 0.53267 0.0
N970 N 0.06062 0.34132 0.49254 0.0
N971 N 1.00306 0.24084 0.5205 0.0
H972 H 0.66572 0.733 0.47517 0.0
H973 H 0.87142 0.8029 0.53924 0.0
H974 H 0.79306 0.87211 0.478 0.0
H975 H 0.74649 0.66229 0.53549 0.0
H976 H 0.84265 0.82912 0.51712 0.0
H977 H 0.69279 0.70774 0.49799 0.0
C978 C 0.69906 0.75854 0.48068 0.0
C979 C 0.72716 0.80482 0.47454 0.0
C980 C 0.82162 0.79244 0.52107 0.0
C981 C 0.75877 0.77566 0.50066 0.0
C982 C 0.83821 0.77726 0.53367 0.0
C983 C 0.81153 0.73012 0.53927 0.0
C984 C 0.77788 0.76039 0.51395 0.0
C985 C 0.7685 0.69886 0.53159 0.0
C986 C 0.71466 0.7439 0.49369 0.0
C987 C 0.77009 0.83611 0.48226 0.0
N988 N 0.753 0.71459 0.51938 0.0
N989 N 0.78467 0.82087 0.49483 0.0
H990 H 0.31863 0.94423 0.47698 0.0
H991 H 0.27445 0.1198 0.53149 0.0
H992 H 0.19592 0.96336 0.47288 0.0
H993 H 0.39664 0.09993 0.53604 0.0
H994 H 0.24691 0.06502 0.50937 0.0
H995 H 0.34781 1.0011 0.4986 0.0
C996 C 0.29744 0.95985 0.48073 0.0
C997 C 0.25458 0.94871 0.47307 0.0
C998 C 0.27994 0.07291 0.51513 0.0
C999 C 0.28839 0.01474 0.49771 0.0
C1000 C 0.29598 0.10459 0.52772 0.0
C1001 C 0.33797 0.11458 0.53576 0.0
C1002 C 0.30595 0.05084 0.51048 0.0
C1003 C 0.36405 0.0934 0.53028 0.0
C1004 C 0.31436 0.99265 0.49303 0.0
C1005 C 0.22898 0.97051 0.47843 0.0
N1006 N 0.34746 0.06236 0.51807 0.0
N1007 N 0.24636 1.00255 0.49036 0.0
H1008 H 0.56198 0.43715 0.11327 0.0
H1009 H 0.44802 0.17429 0.07586 0.0
H1010 H 0.44937 0.37979 0.07888 0.0
H1011 H 0.56228 0.22757 0.10966 0.0
H1012 H 0.45107 0.25143 0.0763 0.0
H1013 H 0.56615 0.36309 0.11164 0.0
C1014 C 0.53865 0.40931 0.10525 0.0
C1015 C 0.5055 0.4147 0.09613 0.0
C1016 C 0.47569 0.24652 0.08361 0.0
C1017 C 0.50938 0.32983 0.09437 0.0
C1018 C 0.47393 0.2024 0.08334 0.0
C1019 C 0.50483 0.19453 0.09276 0.0
C1020 C 0.50851 0.28324 0.09343 0.0
C1021 C 0.53776 0.23224 0.10222 0.0
C1022 C 0.54076 0.36693 0.1044 0.0
C1023 C 0.47536 0.3771 0.08617 0.0
N1024 N 0.53863 0.27495 0.10238 0.0
N1025 N 0.47797 0.33643 0.08558 0.0
H1026 H 0.66311 0.0834 0.0776 0.0
H1027 H 0.81993 0.35226 0.10864 0.0
H1028 H 0.60999 0.14231 0.11198 0.0
H1029 H 0.8751 0.27875 0.08131 0.0
H1030 H 0.74107 0.27916 0.10871 0.0
H1031 H 0.73867 0.1583 0.07724 0.0
C1032 C 0.66733 0.11234 0.08506 0.0
C1033 C 0.63025 0.10663 0.09486 0.0
C1034 C 0.77047 0.27907 0.10273 0.0
C1035 C 0.71727 0.19297 0.09455 0.0
C1036 C 0.8154 0.32069 0.10268 0.0
C1037 C 0.85398 0.32135 0.09497 0.0
C1038 C 0.76418 0.2381 0.09491 0.0
C1039 C 0.84632 0.27969 0.08741 0.0
C1040 C 0.71063 0.15516 0.08486 0.0
C1041 C 0.63761 0.14544 0.10418 0.0
N1042 N 0.80233 0.23985 0.08754 0.0
N1043 N 0.68048 0.1871 0.10384 0.0
H1044 H 0.6998 0.50955 0.12108 0.0
H1045 H 0.90838 0.49339 0.0784 0.0
H1046 H 0.7336 0.55032 0.07293 0.0
H1047 H 0.92466 0.5454 0.12554 0.0
H1048 H 0.8318 0.49194 0.07656 0.0
H1049 H 0.77102 0.50109 0.12314 0.0
C1050 C 0.72208 0.51634 0.11093 0.0
C1051 C 0.71129 0.53092 0.09684 0.0
C1052 C 0.85207 0.50323 0.08732 0.0
C1053 C 0.79155 0.52039 0.09904 0.0
C1054 C 0.89542 0.50379 0.08843 0.0
C1055 C 0.92271 0.51986 0.10212 0.0
C1056 C 0.83561 0.51767 0.10013 0.0
C1057 C 0.9046 0.53308 0.11477 0.0
C1058 C 0.76256 0.51163 0.11213 0.0
C1059 C 0.7411 0.53933 0.08401 0.0
N1060 N 0.86194 0.53159 0.11349 0.0
N1061 N 0.77993 0.53367 0.08538 0.0
H1062 H 0.44354 0.56257 0.89805 0.0
H1063 H 0.18406 0.45236 0.93673 0.0
H1064 H 0.39003 0.45543 0.93418 0.0
H1065 H 0.23597 0.56444 0.90224 0.0
H1066 H 0.26139 0.45606 0.93652 0.0
H1067 H 0.3701 0.56746 0.89996 0.0
C1068 C 0.41667 0.54066 0.90652 0.0
C1069 C 0.4228 0.50873 0.91602 0.0
C1070 C 0.25611 0.48007 0.92902 0.0
C1071 C 0.33877 0.51335 0.9181 0.0
C1072 C 0.21192 0.47791 0.92915 0.0
C1073 C 0.20369 0.50798 0.91945 0.0
C1074 C 0.29238 0.51239 0.91903 0.0
C1075 C 0.24098 0.54054 0.90987 0.0
C1076 C 0.37469 0.54318 0.90754 0.0
C1077 C 0.38659 0.48038 0.92659 0.0
N1078 N 0.28372 0.54174 0.90983 0.0
N1079 N 0.34617 0.48325 0.9273 0.0
H1080 H 0.60497 0.96081 0.93264 0.0
H1081 H 0.48607 0.69062 0.90192 0.0
H1082 H 0.494 0.90383 0.89768 0.0
H1083 H 0.60318 0.7552 0.93462 0.0
H1084 H 0.48351 0.76547 0.90131 0.0
H1085 H 0.59995 0.88321 0.93462 0.0
C1086 C 0.57928 0.93173 0.92541 0.0
C1087 C 0.54974 0.93868 0.91501 0.0
C1088 C 0.5096 0.76316 0.90866 0.0
C1089 C 0.54386 0.84926 0.91716 0.0
C1090 C 0.51104 0.72049 0.90903 0.0
C1091 C 0.54503 0.71691 0.9183 0.0
C1092 C 0.54235 0.80238 0.91766 0.0
C1093 C 0.5765 0.75651 0.92729 0.0
C1094 C 0.5764 0.88732 0.92656 0.0
C1095 C 0.51696 0.89971 0.90599 0.0
N1096 N 0.57447 0.79756 0.92671 0.0
N1097 N 0.51503 0.85658 0.90721 0.0
H1098 H 0.36489 0.81938 0.89971 0.0
H1099 H 0.10267 0.66402 0.93555 0.0
H1100 H 0.30597 0.86832 0.93542 0.0
H1101 H 0.15353 0.61216 0.89822 0.0
H1102 H 0.18057 0.73612 0.93703 0.0
H1103 H 0.29142 0.74079 0.90017 0.0
C1104 C 0.33655 0.81343 0.90769 0.0
C1105 C 0.34117 0.85029 0.91748 0.0
C1106 C 0.17509 0.70902 0.92856 0.0
C1107 C 0.25755 0.76097 0.9181 0.0
C1108 C 0.13054 0.66779 0.92771 0.0
C1109 C 0.12176 0.63228 0.91672 0.0
C1110 C 0.2113 0.71524 0.91822 0.0
C1111 C 0.15915 0.6387 0.90693 0.0
C1112 C 0.29473 0.76868 0.90795 0.0
C1113 C 0.30369 0.84091 0.92763 0.0
N1114 N 0.20238 0.67975 0.90781 0.0
N1115 N 0.26346 0.79727 0.92763 0.0
H1116 H 0.16361 0.73837 0.46189 0.0
H1117 H 0.14922 0.53497 0.40752 0.0
H1118 H 0.22506 0.77015 0.4159 0.0
H1119 H 0.18681 0.53786 0.45588 0.0
H1120 H 0.1599 0.61556 0.41044 0.0
H1121 H 0.15664 0.65873 0.46026 0.0
C1122 C 0.17595 0.72873 0.45154 0.0
C1123 C 0.19495 0.76078 0.43903 0.0
C1124 C 0.16567 0.59838 0.4204 0.0
C1125 C 0.18565 0.66996 0.43691 0.0
C1126 C 0.15935 0.55246 0.41876 0.0
C1127 C 0.16732 0.53002 0.43147 0.0
C1128 C 0.17871 0.62131 0.43494 0.0
C1129 C 0.18058 0.55421 0.4458 0.0
C1130 C 0.17193 0.68348 0.45062 0.0
C1131 C 0.2103 0.74657 0.42584 0.0
N1132 N 0.18544 0.59848 0.44721 0.0
N1133 N 0.20462 0.70196 0.42502 0.0
H1134 H 0.52074 0.6734 0.45482 0.0
H1135 H 0.28915 0.47234 0.41214 0.0
H1136 H 0.52436 0.6361 0.40687 0.0
H1137 H 0.32028 0.45403 0.45971 0.0
H1138 H 0.36809 0.54469 0.41034 0.0
H1139 H 0.43987 0.60382 0.45714 0.0
C1140 C 0.50442 0.65054 0.44479 0.0
C1141 C 0.52911 0.66011 0.43066 0.0
C1142 C 0.35737 0.52494 0.42118 0.0
C1143 C 0.43676 0.58177 0.43312 0.0
C1144 C 0.31232 0.48399 0.42227 0.0
C1145 C 0.29845 0.45726 0.4361 0.0
C1146 C 0.38811 0.53978 0.43412 0.0
C1147 C 0.32987 0.4737 0.44885 0.0
C1148 C 0.45849 0.61099 0.44613 0.0
C1149 C 0.50652 0.62959 0.41799 0.0
N1150 N 0.3733 0.51413 0.44759 0.0
N1151 N 0.46131 0.59193 0.41947 0.0
H1152 H 0.5887 0.8367 0.4113 0.0
H1153 H 0.38526 0.86051 0.454 0.0
H1154 H 0.60841 0.88831 0.45857 0.0
H1155 H 0.42145 0.90456 0.4062 0.0
H1156 H 0.45632 0.85171 0.45615 0.0
H1157 H 0.51545 0.84159 0.40953 0.0
C1158 C 0.57723 0.84842 0.42138 0.0
C1159 C 0.60458 0.86231 0.43511 0.0
C1160 C 0.44856 0.86324 0.44521 0.0
C1161 C 0.52094 0.86739 0.43317 0.0
C1162 C 0.40812 0.86812 0.44395 0.0
C1163 C 0.39781 0.88344 0.42991 0.0
C1164 C 0.478 0.87242 0.43221 0.0
C1165 C 0.42846 0.89293 0.41724 0.0
C1166 C 0.53574 0.85151 0.4203 0.0
C1167 C 0.58829 0.87746 0.44778 0.0
N1168 N 0.46706 0.88681 0.41863 0.0
N1169 N 0.54725 0.87936 0.44655 0.0
H1170 H 0.90149 0.90062 0.23338 0.0
H1171 H 0.05461 0.78659 0.2668 0.0
H1172 H 0.85064 0.78705 0.2673 0.0
H1173 H 0.10898 0.89607 0.23143 0.0
H1174 H 0.98169 0.79086 0.26799 0.0
H1175 H 0.97929 0.904 0.23329 0.0
C1176 C 0.90682 0.87658 0.24085 0.0
C1177 C 0.8696 0.84337 0.25033 0.0
C1178 C 1.00947 0.81423 0.25999 0.0
C1179 C 0.95818 0.847 0.25029 0.0
C1180 C 0.05123 0.81178 0.2593 0.0
C1181 C 0.08793 0.84105 0.249 0.0
C1182 C 1.00385 0.84605 0.25023 0.0
C1183 C 0.0817 0.87323 0.23963 0.0
C1184 C 0.95115 0.87851 0.24078 0.0
C1185 C 0.8783 0.8131 0.25979 0.0
N1186 N 0.04023 0.87472 0.2404 0.0
N1187 N 0.92153 0.81558 0.25949 0.0
H1188 H 0.23032 0.07107 0.27181 0.0
H1189 H 0.21979 0.26244 0.21827 0.0
H1190 H 0.18306 0.03651 0.22413 0.0
H1191 H 0.17275 0.24514 0.26598 0.0
H1192 H 0.21751 0.18522 0.21986 0.0
H1193 H 0.22131 0.14219 0.26989 0.0
C1194 C 0.21803 0.07854 0.26097 0.0
C1195 C 0.20741 0.04827 0.2481 0.0
C1196 C 0.20725 0.19827 0.22989 0.0
C1197 C 0.19787 0.12914 0.24577 0.0
C1198 C 0.20862 0.24212 0.229 0.0
C1199 C 0.19656 0.25989 0.24201 0.0
C1200 C 0.19504 0.17304 0.24402 0.0
C1201 C 0.18226 0.23247 0.25569 0.0
C1202 C 0.21267 0.11876 0.25991 0.0
C1203 C 0.19148 0.05914 0.23431 0.0
N1204 N 0.18265 0.19062 0.25643 0.0
N1205 N 0.18777 0.09919 0.23342 0.0
H1206 H 0.75798 0.99799 0.26664 0.0
H1207 H 0.02593 0.15602 0.23537 0.0
H1208 H 0.81585 0.94685 0.23128 0.0
H1209 H 0.95696 0.20749 0.26641 0.0
H1210 H 0.95238 0.07756 0.2347 0.0
H1211 H 0.83362 0.07268 0.26789 0.0
C1212 C 0.78685 1.00246 0.25915 0.0
C1213 C 0.78064 0.96618 0.24883 0.0
C1214 C 0.95339 0.10602 0.24165 0.0
C1215 C 0.86786 0.05226 0.25014 0.0
C1216 C 0.99528 0.15074 0.24204 0.0
C1217 C 0.99734 0.18822 0.25094 0.0
C1218 C 0.91349 0.09881 0.25029 0.0
C1219 C 0.95682 0.17959 0.25938 0.0
C1220 C 0.83012 0.04525 0.25987 0.0
C1221 C 0.81937 0.97382 0.23949 0.0
N1222 N 0.91665 0.13585 0.25885 0.0
N1223 N 0.86144 0.01624 0.24031 0.0
H1224 H 0.78854 0.84782 0.7428 0.0
H1225 H 0.8999 0.10976 0.7805 0.0
H1226 H 0.90185 0.90157 0.77695 0.0
H1227 H 0.79016 0.05359 0.74513 0.0
H1228 H 0.90465 0.03608 0.77885 0.0
H1229 H 0.79165 0.92501 0.74294 0.0
C1230 C 0.81425 0.87605 0.75028 0.0
C1231 C 0.84485 0.86834 0.75991 0.0
C1232 C 0.8798 0.0401 0.77138 0.0
C1233 C 0.84858 0.95696 0.76024 0.0
C1234 C 0.87734 0.08224 0.77226 0.0
C1235 C 0.84477 0.08778 0.76289 0.0
C1236 C 0.84931 1.00341 0.76109 0.0
C1237 C 0.81565 0.0507 0.75262 0.0
C1238 C 0.81605 0.92017 0.75038 0.0
C1239 C 0.87756 0.90614 0.76937 0.0
N1240 N 0.81852 0.01018 0.75203 0.0
N1241 N 0.87843 0.94881 0.76937 0.0
H1242 H 0.15514 0.0289 0.77576 0.0
H1243 H 0.99991 0.75943 0.74483 0.0
H1244 H 0.20629 0.96159 0.74387 0.0
H1245 H 0.94885 0.81699 0.78033 0.0
H1246 H 0.07291 0.83648 0.74284 0.0
H1247 H 0.07698 0.95498 0.77622 0.0
C1248 C 0.14979 0.9986 0.76881 0.0
C1249 C 0.18715 1.00111 0.7598 0.0
C1250 C 0.04581 0.83261 0.75104 0.0
C1251 C 0.09821 0.91685 0.76025 0.0
C1252 C 1.00404 0.78853 0.75218 0.0
C1253 C 0.96836 0.78188 0.76277 0.0
C1254 C 0.05237 0.8706 0.76064 0.0
C1255 C 0.97541 0.82087 0.77192 0.0
C1256 C 0.10527 0.9565 0.76909 0.0
C1257 C 0.17848 0.96106 0.751 0.0
N1258 N 0.01686 0.86367 0.77071 0.0
N1259 N 0.135 0.92062 0.75147 0.0
H1260 H 0.2402 0.1556 0.77998 0.0
H1261 H 0.08767 0.26436 0.7419 0.0
H1262 H 0.28948 0.25966 0.74291 0.0
H1263 H 0.03053 0.15503 0.77732 0.0
H1264 H 0.16084 0.2599 0.74166 0.0
H1265 H 0.16178 0.15099 0.77874 0.0
C1266 C 0.23426 0.17687 0.77145 0.0
C1267 C 0.27118 0.20793 0.7615 0.0
C1268 C 0.13234 0.23666 0.74947 0.0
C1269 C 0.18245 0.20358 0.76017 0.0
C1270 C 0.09054 0.23925 0.7496 0.0
C1271 C 0.05321 0.21018 0.75968 0.0
C1272 C 0.13709 0.2049 0.75958 0.0
C1273 C 0.05869 0.17816 0.7694 0.0
C1274 C 0.18972 0.17451 0.77081 0.0
C1275 C 0.26205 0.23542 0.75086 0.0
N1276 N 0.10002 0.17652 0.76918 0.0
N1277 N 0.2188 0.23272 0.75052 0.0
H1278 H 0.51339 0.10668 0.59935 0.0
H1279 H 0.77933 0.23045 0.56471 0.0
H1280 H 0.56619 0.22319 0.56647 0.0
H1281 H 0.72334 0.11867 0.59933 0.0
H1282 H 0.70317 0.23068 0.56518 0.0
H1283 H 0.59133 0.11187 0.59933 0.0
C1284 C 0.5415 0.13337 0.5921 0.0
C1285 C 0.53341 0.16445 0.58288 0.0
C1286 C 0.70779 0.20634 0.57272 0.0
C1287 C 0.62305 0.17083 0.58277 0.0
C1288 C 0.75129 0.20646 0.57252 0.0
C1289 C 0.75758 0.17463 0.58204 0.0
C1290 C 0.6706 0.17403 0.58247 0.0
C1291 C 0.71992 0.14368 0.59176 0.0
C1292 C 0.5861 0.13643 0.5921 0.0
C1293 C 0.57108 0.19847 0.57372 0.0
N1294 N 0.67816 0.14408 0.59169 0.0
N1295 N 0.61436 0.20075 0.57387 0.0
H1296 H 0.82107 0.3599 0.56912 0.0
H1297 H 0.93538 0.62771 0.60176 0.0
H1298 H 0.93641 0.42365 0.60248 0.0
H1299 H 0.82639 0.57231 0.56613 0.0
H1300 H 0.93119 0.55044 0.60324 0.0
H1301 H 0.8175 0.43428 0.56888 0.0
C1302 C 0.84544 0.38948 0.57645 0.0
C1303 C 0.87922 0.38581 0.5858 0.0
C1304 C 0.90791 0.55481 0.59512 0.0
C1305 C 0.87538 0.4707 0.58558 0.0
C1306 C 0.91031 0.59905 0.59426 0.0
C1307 C 0.88115 0.60639 0.58382 0.0
C1308 C 0.87625 0.5173 0.58538 0.0
C1309 C 0.84915 0.56791 0.57446 0.0
C1310 C 0.84342 0.43188 0.57629 0.0
C1311 C 0.90992 0.42503 0.59507 0.0
N1312 N 0.84769 0.52494 0.5754 0.0
N1313 N 0.90732 0.46578 0.5947 0.0
H1314 H 0.49261 0.26741 0.58678 0.0
H1315 H 0.62593 0.55048 0.59413 0.0
H1316 H 0.42702 0.35208 0.57582 0.0
H1317 H 0.70379 0.48085 0.57958 0.0
H1318 H 0.55182 0.47351 0.59312 0.0
H1319 H 0.57056 0.34171 0.58896 0.0
C1320 C 0.49473 0.30139 0.58461 0.0
C1321 C 0.45364 0.30366 0.58084 0.0
C1322 C 0.58516 0.47503 0.5902 0.0
C1323 C 0.54129 0.38799 0.58396 0.0
C1324 C 0.62739 0.51883 0.59083 0.0
C1325 C 0.67073 0.52183 0.58681 0.0
C1326 C 0.58635 0.43384 0.58571 0.0
C1327 C 0.6708 0.4798 0.58265 0.0
C1328 C 0.53895 0.34364 0.58598 0.0
C1329 C 0.45788 0.34869 0.57867 0.0
N1330 N 0.62904 0.43722 0.58221 0.0
N1331 N 0.50081 0.38903 0.58036 0.0
loop_
_geom_bond_atom_site_label_1
_geom_bond_atom_site_label_2
_geom_bond_distance
_geom_bond_site_symmetry_2
_ccdc_geom_bond_type
Tb0 O3 2.453 1_545 S
Tb0 O4 2.596 1_545 S
Tb0 O5 2.374 . S
Tb0 O13 2.343 . S
Tb0 O15 2.353 . S
Tb0 O17 2.427 . S
Tb0 O18 2.513 . S
C1 O5 1.251 1_565 S
C1 O7 1.263 . S
Tb2 O4 2.343 . S
Tb2 O7 2.353 . S
Tb2 O10 2.427 . S
Tb2 O11 2.513 . S
Tb2 O12 2.453 1_565 S
Tb2 O13 2.596 1_565 S
Tb2 O14 2.374 . S
O3 Tb0 2.453 1_565 S
O3 C19 1.245 . S
O4 Tb0 2.596 1_565 S
O4 Tb2 2.343 . S
O4 C19 1.259 . S
O5 Tb0 2.374 . S
O5 C1 1.251 1_545 S
C6 O10 1.275 . S
C6 O11 1.246 . S
O7 C1 1.263 . S
O7 Tb2 2.353 . S
C8 O12 1.245 . S
C8 O13 1.259 . S
C9 O14 1.250 1_545 S
C9 O15 1.263 . S
O10 Tb2 2.427 . S
O10 C6 1.275 . S
O11 Tb2 2.513 . S
O11 C6 1.246 . S
O12 Tb2 2.453 1_545 S
O12 C8 1.245 . S
O13 Tb0 2.343 . S
O13 Tb2 2.596 1_545 S
O13 C8 1.259 . S
O14 Tb2 2.374 . S
O14 C9 1.250 1_565 S
O15 Tb0 2.353 . S
O15 C9 1.263 . S
C16 O17 1.275 . S
C16 O18 1.246 . S
O17 Tb0 2.427 . S
O17 C16 1.275 . S
O18 Tb0 2.513 . S
O18 C16 1.246 . S
C19 O3 1.245 . S
C19 O4 1.259 . S
Tb20 O23 2.453 . S
Tb20 O24 2.596 . S
Tb20 O25 2.374 . S
Tb20 O33 2.343 1_455 S
Tb20 O35 2.353 . S
Tb20 O37 2.427 1_455 S
Tb20 O38 2.513 1_455 S
C21 O25 1.251 . S
C21 O27 1.263 . S
Tb22 O24 2.343 . S
Tb22 O27 2.353 . S
Tb22 O30 2.427 . S
Tb22 O31 2.513 . S
Tb22 O32 2.453 1_455 S
Tb22 O33 2.596 1_455 S
Tb22 O34 2.374 . S
O23 Tb20 2.453 . S
O23 C39 1.245 . S
O24 Tb20 2.596 . S
O24 Tb22 2.343 . S
O24 C39 1.259 . S
O25 Tb20 2.374 . S
O25 C21 1.251 . S
C26 O30 1.275 . S
C26 O31 1.246 . S
O27 C21 1.263 . S
O27 Tb22 2.353 . S
C28 O32 1.245 . S
C28 O33 1.259 . S
C29 O34 1.250 . S
C29 O35 1.263 . S
O30 Tb22 2.427 . S
O30 C26 1.275 . S
O31 Tb22 2.513 . S
O31 C26 1.246 . S
O32 Tb22 2.453 1_655 S
O32 C28 1.245 . S
O33 Tb20 2.343 1_655 S
O33 Tb22 2.596 1_655 S
O33 C28 1.259 . S
O34 Tb22 2.374 . S
O34 C29 1.250 . S
O35 Tb20 2.353 . S
O35 C29 1.263 . S
C36 O37 1.275 . S
C36 O38 1.246 . S
O37 Tb20 2.427 1_655 S
O37 C36 1.275 . S
O38 Tb20 2.513 1_655 S
O38 C36 1.246 . S
C39 O23 1.245 . S
C39 O24 1.259 . S
Tb40 O43 2.453 . S
Tb40 O44 2.596 . S
Tb40 O45 2.374 . S
Tb40 O53 2.343 . S
Tb40 O55 2.353 . S
Tb40 O57 2.427 . S
Tb40 O58 2.513 . S
C41 O45 1.251 . S
C41 O47 1.263 . S
Tb42 O44 2.343 . S
Tb42 O47 2.353 . S
Tb42 O50 2.427 . S
Tb42 O51 2.513 . S
Tb42 O52 2.453 . S
Tb42 O53 2.596 . S
Tb42 O54 2.374 . S
O43 Tb40 2.453 . S
O43 C59 1.245 . S
O44 Tb40 2.596 . S
O44 Tb42 2.343 . S
O44 C59 1.259 . S
O45 Tb40 2.374 . S
O45 C41 1.251 . S
C46 O50 1.275 . S
C46 O51 1.246 . S
O47 C41 1.263 . S
O47 Tb42 2.353 . S
C48 O52 1.245 . S
C48 O53 1.259 . S
C49 O54 1.250 . S
C49 O55 1.263 . S
O50 Tb42 2.427 . S
O50 C46 1.275 . S
O51 Tb42 2.513 . S
O51 C46 1.246 . S
O52 Tb42 2.453 . S
O52 C48 1.245 . S
O53 Tb40 2.343 . S
O53 Tb42 2.596 . S
O53 C48 1.259 . S
O54 Tb42 2.374 . S
O54 C49 1.250 . S
O55 Tb40 2.353 . S
O55 C49 1.263 . S
C56 O57 1.275 . S
C56 O58 1.246 . S
O57 Tb40 2.427 . S
O57 C56 1.275 . S
O58 Tb40 2.513 . S
O58 C56 1.246 . S
C59 O43 1.245 . S
C59 O44 1.259 . S
Tb60 O63 2.453 1_455 S
Tb60 O64 2.596 1_455 S
Tb60 O65 2.374 . S
Tb60 O73 2.343 . S
Tb60 O75 2.353 . S
Tb60 O77 2.427 . S
Tb60 O78 2.513 . S
C61 O65 1.251 1_655 S
C61 O67 1.263 . S
Tb62 O64 2.343 . S
Tb62 O67 2.353 . S
Tb62 O70 2.427 . S
Tb62 O71 2.513 . S
Tb62 O72 2.453 1_655 S
Tb62 O73 2.596 1_655 S
Tb62 O74 2.374 . S
O63 Tb60 2.453 1_655 S
O63 C79 1.245 . S
O64 Tb60 2.596 1_655 S
O64 Tb62 2.343 . S
O64 C79 1.259 . S
O65 Tb60 2.374 . S
O65 C61 1.251 1_455 S
C66 O70 1.275 . S
C66 O71 1.246 . S
O67 C61 1.263 . S
O67 Tb62 2.353 . S
C68 O72 1.245 . S
C68 O73 1.259 . S
C69 O74 1.250 1_455 S
C69 O75 1.263 . S
O70 Tb62 2.427 . S
O70 C66 1.275 . S
O71 Tb62 2.513 . S
O71 C66 1.246 . S
O72 Tb62 2.453 1_455 S
O72 C68 1.245 . S
O73 Tb60 2.343 . S
O73 Tb62 2.596 1_455 S
O73 C68 1.259 . S
O74 Tb62 2.374 . S
O74 C69 1.250 1_655 S
O75 Tb60 2.353 . S
O75 C69 1.263 . S
C76 O77 1.275 . S
C76 O78 1.246 . S
O77 Tb60 2.427 . S
O77 C76 1.275 . S
O78 Tb60 2.513 . S
O78 C76 1.246 . S
C79 O63 1.245 . S
C79 O64 1.259 . S
Tb80 O83 2.453 . S
Tb80 O84 2.596 . S
Tb80 O85 2.374 . S
Tb80 O93 2.343 . S
Tb80 O95 2.353 . S
Tb80 O97 2.427 . S
Tb80 O98 2.513 . S
C81 O85 1.251 . S
C81 O87 1.263 . S
Tb82 O84 2.343 . S
Tb82 O87 2.353 . S
Tb82 O90 2.427 . S
Tb82 O91 2.513 . S
Tb82 O92 2.453 . S
Tb82 O93 2.596 . S
Tb82 O94 2.374 . S
O83 Tb80 2.453 . S
O83 C99 1.245 . S
O84 Tb80 2.596 . S
O84 Tb82 2.343 . S
O84 C99 1.259 . S
O85 Tb80 2.374 . S
O85 C81 1.251 . S
C86 O90 1.275 . S
C86 O91 1.246 . S
O87 C81 1.263 . S
O87 Tb82 2.353 . S
C88 O92 1.245 . S
C88 O93 1.259 . S
C89 O94 1.250 . S
C89 O95 1.263 . S
O90 Tb82 2.427 . S
O90 C86 1.275 . S
O91 Tb82 2.513 . S
O91 C86 1.246 . S
O92 Tb82 2.453 . S
O92 C88 1.245 . S
O93 Tb80 2.343 . S
O93 Tb82 2.596 . S
O93 C88 1.259 . S
O94 Tb82 2.374 . S
O94 C89 1.250 . S
O95 Tb80 2.353 . S
O95 C89 1.263 . S
C96 O97 1.275 . S
C96 O98 1.246 . S
O97 Tb80 2.427 . S
O97 C96 1.275 . S
O98 Tb80 2.513 . S
O98 C96 1.246 . S
C99 O83 1.245 . S
C99 O84 1.259 . S
Tb100 O103 2.453 . S
Tb100 O104 2.596 . S
Tb100 O105 2.374 . S
Tb100 O113 2.343 1_545 S
Tb100 O115 2.353 . S
Tb100 O117 2.427 1_545 S
Tb100 O118 2.513 1_545 S
C101 O105 1.251 . S
C101 O107 1.263 . S
Tb102 O104 2.343 . S
Tb102 O107 2.353 . S
Tb102 O110 2.427 . S
Tb102 O111 2.513 . S
Tb102 O112 2.453 1_545 S
Tb102 O113 2.596 1_545 S
Tb102 O114 2.374 . S
O103 Tb100 2.453 . S
O103 C119 1.245 . S
O104 Tb100 2.596 . S
O104 Tb102 2.343 . S
O104 C119 1.259 . S
O105 Tb100 2.374 . S
O105 C101 1.251 . S
C106 O110 1.275 . S
C106 O111 1.246 . S
O107 C101 1.263 . S
O107 Tb102 2.353 . S
C108 O112 1.245 . S
C108 O113 1.259 . S
C109 O114 1.250 . S
C109 O115 1.263 . S
O110 Tb102 2.427 . S
O110 C106 1.275 . S
O111 Tb102 2.513 . S
O111 C106 1.246 . S
O112 Tb102 2.453 1_565 S
O112 C108 1.245 . S
O113 Tb100 2.343 1_565 S
O113 Tb102 2.596 1_565 S
O113 C108 1.259 . S
O114 Tb102 2.374 . S
O114 C109 1.250 . S
O115 Tb100 2.353 . S
O115 C109 1.263 . S
C116 O117 1.275 . S
C116 O118 1.246 . S
O117 Tb100 2.427 1_565 S
O117 C116 1.275 . S
O118 Tb100 2.513 1_565 S
O118 C116 1.246 . S
C119 O103 1.245 . S
C119 O104 1.259 . S
Tb120 O123 2.453 . S
Tb120 O124 2.596 . S
Tb120 O125 2.374 . S
Tb120 O133 2.343 . S
Tb120 O135 2.353 . S
Tb120 O137 2.427 . S
Tb120 O138 2.513 . S
C121 O125 1.251 . S
C121 O127 1.263 . S
Tb122 O124 2.343 . S
Tb122 O127 2.353 . S
Tb122 O130 2.427 . S
Tb122 O131 2.513 . S
Tb122 O132 2.453 . S
Tb122 O133 2.596 . S
Tb122 O134 2.374 . S
O123 Tb120 2.453 . S
O123 C139 1.245 . S
O124 Tb120 2.596 . S
O124 Tb122 2.343 . S
O124 C139 1.259 . S
O125 Tb120 2.374 . S
O125 C121 1.251 . S
C126 O130 1.275 . S
C126 O131 1.246 . S
O127 C121 1.263 . S
O127 Tb122 2.353 . S
C128 O132 1.245 . S
C128 O133 1.259 . S
C129 O134 1.250 . S
C129 O135 1.263 . S
O130 Tb122 2.427 . S
O130 C126 1.275 . S
O131 Tb122 2.513 . S
O131 C126 1.246 . S
O132 Tb122 2.453 . S
O132 C128 1.245 . S
O133 Tb120 2.343 . S
O133 Tb122 2.596 . S
O133 C128 1.259 . S
O134 Tb122 2.374 . S
O134 C129 1.250 . S
O135 Tb120 2.353 . S
O135 C129 1.263 . S
C136 O137 1.275 . S
C136 O138 1.246 . S
O137 Tb120 2.427 . S
O137 C136 1.275 . S
O138 Tb120 2.513 . S
O138 C136 1.246 . S
C139 O123 1.245 . S
C139 O124 1.259 . S
Tb140 O143 2.453 . S
Tb140 O144 2.596 . S
Tb140 O145 2.374 . S
Tb140 O153 2.343 . S
Tb140 O155 2.353 . S
Tb140 O157 2.427 . S
Tb140 O158 2.513 . S
C141 O145 1.251 . S
C141 O147 1.263 . S
Tb142 O144 2.343 . S
Tb142 O147 2.353 . S
Tb142 O150 2.427 . S
Tb142 O151 2.513 . S
Tb142 O152 2.453 . S
Tb142 O153 2.596 . S
Tb142 O154 2.374 . S
O143 Tb140 2.453 . S
O143 C159 1.245 . S
O144 Tb140 2.596 . S
O144 Tb142 2.343 . S
O144 C159 1.259 . S
O145 Tb140 2.374 . S
O145 C141 1.251 . S
C146 O150 1.275 . S
C146 O151 1.246 . S
O147 C141 1.263 . S
O147 Tb142 2.353 . S
C148 O152 1.245 . S
C148 O153 1.259 . S
C149 O154 1.250 . S
C149 O155 1.263 . S
O150 Tb142 2.427 . S
O150 C146 1.275 . S
O151 Tb142 2.513 . S
O151 C146 1.246 . S
O152 Tb142 2.453 . S
O152 C148 1.245 . S
O153 Tb140 2.343 . S
O153 Tb142 2.596 . S
O153 C148 1.259 . S
O154 Tb142 2.374 . S
O154 C149 1.250 . S
O155 Tb140 2.353 . S
O155 C149 1.263 . S
C156 O157 1.275 . S
C156 O158 1.246 . S
O157 Tb140 2.427 . S
O157 C156 1.275 . S
O158 Tb140 2.513 . S
O158 C156 1.246 . S
C159 O143 1.245 . S
C159 O144 1.259 . S
Tb160 O163 2.453 . S
Tb160 O164 2.596 . S
Tb160 O165 2.374 . S
Tb160 O173 2.343 . S
Tb160 O175 2.353 . S
Tb160 O177 2.427 . S
Tb160 O178 2.513 . S
C161 O165 1.251 . S
C161 O167 1.263 . S
Tb162 O164 2.343 . S
Tb162 O167 2.353 . S
Tb162 O170 2.427 . S
Tb162 O171 2.513 . S
Tb162 O172 2.453 . S
Tb162 O173 2.596 . S
Tb162 O174 2.374 . S
O163 Tb160 2.453 . S
O163 C179 1.245 . S
O164 Tb160 2.596 . S
O164 Tb162 2.343 . S
O164 C179 1.259 . S
O165 Tb160 2.374 . S
O165 C161 1.251 . S
C166 O170 1.275 . S
C166 O171 1.246 . S
O167 C161 1.263 . S
O167 Tb162 2.353 . S
C168 O172 1.245 . S
C168 O173 1.259 . S
C169 O174 1.250 . S
C169 O175 1.263 . S
O170 Tb162 2.427 . S
O170 C166 1.275 . S
O171 Tb162 2.513 . S
O171 C166 1.246 . S
O172 Tb162 2.453 . S
O172 C168 1.245 . S
O173 Tb160 2.343 . S
O173 Tb162 2.596 . S
O173 C168 1.259 . S
O174 Tb162 2.374 . S
O174 C169 1.250 . S
O175 Tb160 2.353 . S
O175 C169 1.263 . S
C176 O177 1.275 . S
C176 O178 1.246 . S
O177 Tb160 2.427 . S
O177 C176 1.275 . S
O178 Tb160 2.513 . S
O178 C176 1.246 . S
C179 O163 1.245 . S
C179 O164 1.259 . S
Tb180 O183 2.453 . S
Tb180 O184 2.596 . S
Tb180 O185 2.374 . S
Tb180 O193 2.343 . S
Tb180 O195 2.353 . S
Tb180 O197 2.427 . S
Tb180 O198 2.513 . S
C181 O185 1.251 . S
C181 O187 1.263 . S
Tb182 O184 2.343 . S
Tb182 O187 2.353 . S
Tb182 O190 2.427 . S
Tb182 O191 2.513 . S
Tb182 O192 2.453 . S
Tb182 O193 2.596 . S
Tb182 O194 2.374 . S
O183 Tb180 2.453 . S
O183 C199 1.245 . S
O184 Tb180 2.596 . S
O184 Tb182 2.343 . S
O184 C199 1.259 . S
O185 Tb180 2.374 . S
O185 C181 1.251 . S
C186 O190 1.275 . S
C186 O191 1.246 . S
O187 C181 1.263 . S
O187 Tb182 2.353 . S
C188 O192 1.245 . S
C188 O193 1.259 . S
C189 O194 1.250 . S
C189 O195 1.263 . S
O190 Tb182 2.427 . S
O190 C186 1.275 . S
O191 Tb182 2.513 . S
O191 C186 1.246 . S
O192 Tb182 2.453 . S
O192 C188 1.245 . S
O193 Tb180 2.343 . S
O193 Tb182 2.596 . S
O193 C188 1.259 . S
O194 Tb182 2.374 . S
O194 C189 1.250 . S
O195 Tb180 2.353 . S
O195 C189 1.263 . S
C196 O197 1.275 . S
C196 O198 1.246 . S
O197 Tb180 2.427 . S
O197 C196 1.275 . S
O198 Tb180 2.513 . S
O198 C196 1.246 . S
C199 O183 1.245 . S
C199 O184 1.259 . S
Tb200 O203 2.453 . S
Tb200 O204 2.596 . S
Tb200 O205 2.374 . S
Tb200 O213 2.343 . S
Tb200 O215 2.353 . S
Tb200 O217 2.427 . S
Tb200 O218 2.513 . S
C201 O205 1.251 . S
C201 O207 1.263 . S
Tb202 O204 2.343 . S
Tb202 O207 2.353 . S
Tb202 O210 2.427 . S
Tb202 O211 2.513 . S
Tb202 O212 2.453 . S
Tb202 O213 2.596 . S
Tb202 O214 2.374 . S
O203 Tb200 2.453 . S
O203 C219 1.245 . S
O204 Tb200 2.596 . S
O204 Tb202 2.343 . S
O204 C219 1.259 . S
O205 Tb200 2.374 . S
O205 C201 1.251 . S
C206 O210 1.275 . S
C206 O211 1.246 . S
O207 C201 1.263 . S
O207 Tb202 2.353 . S
C208 O212 1.245 . S
C208 O213 1.259 . S
C209 O214 1.250 . S
C209 O215 1.263 . S
O210 Tb202 2.427 . S
O210 C206 1.275 . S
O211 Tb202 2.513 . S
O211 C206 1.246 . S
O212 Tb202 2.453 . S
O212 C208 1.245 . S
O213 Tb200 2.343 . S
O213 Tb202 2.596 . S
O213 C208 1.259 . S
O214 Tb202 2.374 . S
O214 C209 1.250 . S
O215 Tb200 2.353 . S
O215 C209 1.263 . S
C216 O217 1.275 . S
C216 O218 1.246 . S
O217 Tb200 2.427 . S
O217 C216 1.275 . S
O218 Tb200 2.513 . S
O218 C216 1.246 . S
C219 O203 1.245 . S
C219 O204 1.259 . S
Tb220 O223 2.453 . S
Tb220 O224 2.596 . S
Tb220 O225 2.374 . S
Tb220 O233 2.343 . S
Tb220 O235 2.353 . S
Tb220 O237 2.427 . S
Tb220 O238 2.513 . S
C221 O225 1.251 . S
C221 O227 1.263 . S
Tb222 O224 2.343 . S
Tb222 O227 2.353 . S
Tb222 O230 2.427 . S
Tb222 O231 2.513 . S
Tb222 O232 2.453 . S
Tb222 O233 2.596 . S
Tb222 O234 2.374 . S
O223 Tb220 2.453 . S
O223 C239 1.245 . S
O224 Tb220 2.596 . S
O224 Tb222 2.343 . S
O224 C239 1.259 . S
O225 Tb220 2.374 . S
O225 C221 1.251 . S
C226 O230 1.275 . S
C226 O231 1.246 . S
O227 C221 1.263 . S
O227 Tb222 2.353 . S
C228 O232 1.245 . S
C228 O233 1.259 . S
C229 O234 1.250 . S
C229 O235 1.263 . S
O230 Tb222 2.427 . S
O230 C226 1.275 . S
O231 Tb222 2.513 . S
O231 C226 1.246 . S
O232 Tb222 2.453 . S
O232 C228 1.245 . S
O233 Tb220 2.343 . S
O233 Tb222 2.596 . S
O233 C228 1.259 . S
O234 Tb222 2.374 . S
O234 C229 1.250 . S
O235 Tb220 2.353 . S
O235 C229 1.263 . S
C236 O237 1.275 . S
C236 O238 1.246 . S
O237 Tb220 2.427 . S
O237 C236 1.275 . S
O238 Tb220 2.513 . S
O238 C236 1.246 . S
C239 O223 1.245 . S
C239 O224 1.259 . S
Tb240 O243 2.453 . S
Tb240 O244 2.596 . S
Tb240 O245 2.374 . S
Tb240 O253 2.343 . S
Tb240 O255 2.353 . S
Tb240 O257 2.427 . S
Tb240 O258 2.513 . S
C241 O245 1.251 . S
C241 O247 1.263 . S
Tb242 O244 2.343 . S
Tb242 O247 2.353 . S
Tb242 O250 2.427 . S
Tb242 O251 2.513 . S
Tb242 O252 2.453 . S
Tb242 O253 2.596 . S
Tb242 O254 2.374 . S
O243 Tb240 2.453 . S
O243 C259 1.245 . S
O244 Tb240 2.596 . S
O244 Tb242 2.343 . S
O244 C259 1.259 . S
O245 Tb240 2.374 . S
O245 C241 1.251 . S
C246 O250 1.275 . S
C246 O251 1.246 . S
O247 C241 1.263 . S
O247 Tb242 2.353 . S
C248 O252 1.245 . S
C248 O253 1.259 . S
C249 O254 1.250 . S
C249 O255 1.263 . S
O250 Tb242 2.427 . S
O250 C246 1.275 . S
O251 Tb242 2.513 . S
O251 C246 1.246 . S
O252 Tb242 2.453 . S
O252 C248 1.245 . S
O253 Tb240 2.343 . S
O253 Tb242 2.596 . S
O253 C248 1.259 . S
O254 Tb242 2.374 . S
O254 C249 1.250 . S
O255 Tb240 2.353 . S
O255 C249 1.263 . S
C256 O257 1.275 . S
C256 O258 1.246 . S
O257 Tb240 2.427 . S
O257 C256 1.275 . S
O258 Tb240 2.513 . S
O258 C256 1.246 . S
C259 O243 1.245 . S
C259 O244 1.259 . S
Tb260 O263 2.453 . S
Tb260 O264 2.596 . S
Tb260 O265 2.374 . S
Tb260 O273 2.343 . S
Tb260 O275 2.353 . S
Tb260 O277 2.427 . S
Tb260 O278 2.513 . S
C261 O265 1.251 . S
C261 O267 1.263 . S
Tb262 O264 2.343 . S
Tb262 O267 2.353 . S
Tb262 O270 2.427 . S
Tb262 O271 2.513 . S
Tb262 O272 2.453 . S
Tb262 O273 2.596 . S
Tb262 O274 2.374 . S
O263 Tb260 2.453 . S
O263 C279 1.245 . S
O264 Tb260 2.596 . S
O264 Tb262 2.343 . S
O264 C279 1.259 . S
O265 Tb260 2.374 . S
O265 C261 1.251 . S
C266 O270 1.275 . S
C266 O271 1.246 . S
O267 C261 1.263 . S
O267 Tb262 2.353 . S
C268 O272 1.245 . S
C268 O273 1.259 . S
C269 O274 1.250 . S
C269 O275 1.263 . S
O270 Tb262 2.427 . S
O270 C266 1.275 . S
O271 Tb262 2.513 . S
O271 C266 1.246 . S
O272 Tb262 2.453 . S
O272 C268 1.245 . S
O273 Tb260 2.343 . S
O273 Tb262 2.596 . S
O273 C268 1.259 . S
O274 Tb262 2.374 . S
O274 C269 1.250 . S
O275 Tb260 2.353 . S
O275 C269 1.263 . S
C276 O277 1.275 . S
C276 O278 1.246 . S
O277 Tb260 2.427 . S
O277 C276 1.275 . S
O278 Tb260 2.513 . S
O278 C276 1.246 . S
C279 O263 1.245 . S
C279 O264 1.259 . S
Tb280 O283 2.453 . S
Tb280 O284 2.596 . S
Tb280 O285 2.374 . S
Tb280 O293 2.343 . S
Tb280 O295 2.353 . S
Tb280 O297 2.427 . S
Tb280 O298 2.513 . S
C281 O285 1.251 . S
C281 O287 1.263 . S
Tb282 O284 2.343 . S
Tb282 O287 2.353 . S
Tb282 O290 2.427 . S
Tb282 O291 2.513 . S
Tb282 O292 2.453 . S
Tb282 O293 2.596 . S
Tb282 O294 2.374 . S
O283 Tb280 2.453 . S
O283 C299 1.245 . S
O284 Tb280 2.596 . S
O284 Tb282 2.343 . S
O284 C299 1.259 . S
O285 Tb280 2.374 . S
O285 C281 1.251 . S
C286 O290 1.275 . S
C286 O291 1.246 . S
O287 C281 1.263 . S
O287 Tb282 2.353 . S
C288 O292 1.245 . S
C288 O293 1.259 . S
C289 O294 1.250 . S
C289 O295 1.263 . S
O290 Tb282 2.427 . S
O290 C286 1.275 . S
O291 Tb282 2.513 . S
O291 C286 1.246 . S
O292 Tb282 2.453 . S
O292 C288 1.245 . S
O293 Tb280 2.343 . S
O293 Tb282 2.596 . S
O293 C288 1.259 . S
O294 Tb282 2.374 . S
O294 C289 1.250 . S
O295 Tb280 2.353 . S
O295 C289 1.263 . S
C296 O297 1.275 . S
C296 O298 1.246 . S
O297 Tb280 2.427 . S
O297 C296 1.275 . S
O298 Tb280 2.513 . S
O298 C296 1.246 . S
C299 O283 1.245 . S
C299 O284 1.259 . S
Tb300 O303 2.453 . S
Tb300 O304 2.596 . S
Tb300 O305 2.374 . S
Tb300 O313 2.343 . S
Tb300 O315 2.353 . S
Tb300 O317 2.427 . S
Tb300 O318 2.513 . S
C301 O305 1.251 . S
C301 O307 1.263 . S
Tb302 O304 2.343 . S
Tb302 O307 2.353 . S
Tb302 O310 2.427 . S
Tb302 O311 2.513 . S
Tb302 O312 2.453 . S
Tb302 O313 2.596 . S
Tb302 O314 2.374 . S
O303 Tb300 2.453 . S
O303 C319 1.245 . S
O304 Tb300 2.596 . S
O304 Tb302 2.343 . S
O304 C319 1.259 . S
O305 Tb300 2.374 . S
O305 C301 1.251 . S
C306 O310 1.275 . S
C306 O311 1.246 . S
O307 C301 1.263 . S
O307 Tb302 2.353 . S
C308 O312 1.245 . S
C308 O313 1.259 . S
C309 O314 1.250 . S
C309 O315 1.263 . S
O310 Tb302 2.427 . S
O310 C306 1.275 . S
O311 Tb302 2.513 . S
O311 C306 1.246 . S
O312 Tb302 2.453 . S
O312 C308 1.245 . S
O313 Tb300 2.343 . S
O313 Tb302 2.596 . S
O313 C308 1.259 . S
O314 Tb302 2.374 . S
O314 C309 1.250 . S
O315 Tb300 2.353 . S
O315 C309 1.263 . S
C316 O317 1.275 . S
C316 O318 1.246 . S
O317 Tb300 2.427 . S
O317 C316 1.275 . S
O318 Tb300 2.513 . S
O318 C316 1.246 . S
C319 O303 1.245 . S
C319 O304 1.259 . S
Tb320 O323 2.453 . S
Tb320 O324 2.596 . S
Tb320 O325 2.374 . S
Tb320 O333 2.343 . S
Tb320 O335 2.353 . S
Tb320 O337 2.427 . S
Tb320 O338 2.513 . S
C321 O325 1.251 . S
C321 O327 1.263 . S
Tb322 O324 2.343 . S
Tb322 O327 2.353 . S
Tb322 O330 2.427 . S
Tb322 O331 2.513 . S
Tb322 O332 2.453 . S
Tb322 O333 2.596 . S
Tb322 O334 2.374 . S
O323 Tb320 2.453 . S
O323 C339 1.245 . S
O324 Tb320 2.596 . S
O324 Tb322 2.343 . S
O324 C339 1.259 . S
O325 Tb320 2.374 . S
O325 C321 1.251 . S
C326 O330 1.275 . S
C326 O331 1.246 . S
O327 C321 1.263 . S
O327 Tb322 2.353 . S
C328 O332 1.245 . S
C328 O333 1.259 . S
C329 O334 1.250 . S
C329 O335 1.263 . S
O330 Tb322 2.427 . S
O330 C326 1.275 . S
O331 Tb322 2.513 . S
O331 C326 1.246 . S
O332 Tb322 2.453 . S
O332 C328 1.245 . S
O333 Tb320 2.343 . S
O333 Tb322 2.596 . S
O333 C328 1.259 . S
O334 Tb322 2.374 . S
O334 C329 1.250 . S
O335 Tb320 2.353 . S
O335 C329 1.263 . S
C336 O337 1.275 . S
C336 O338 1.246 . S
O337 Tb320 2.427 . S
O337 C336 1.275 . S
O338 Tb320 2.513 . S
O338 C336 1.246 . S
C339 O323 1.245 . S
C339 O324 1.259 . S
Tb340 O343 2.453 . S
Tb340 O344 2.596 . S
Tb340 O345 2.374 . S
Tb340 O353 2.343 . S
Tb340 O355 2.353 . S
Tb340 O357 2.427 . S
Tb340 O358 2.513 . S
C341 O345 1.251 . S
C341 O347 1.263 . S
Tb342 O344 2.343 . S
Tb342 O347 2.353 . S
Tb342 O350 2.427 . S
Tb342 O351 2.513 . S
Tb342 O352 2.453 . S
Tb342 O353 2.596 . S
Tb342 O354 2.374 . S
O343 Tb340 2.453 . S
O343 C359 1.245 . S
O344 Tb340 2.596 . S
O344 Tb342 2.343 . S
O344 C359 1.259 . S
O345 Tb340 2.374 . S
O345 C341 1.251 . S
C346 O350 1.275 . S
C346 O351 1.246 . S
O347 C341 1.263 . S
O347 Tb342 2.353 . S
C348 O352 1.245 . S
C348 O353 1.259 . S
C349 O354 1.250 . S
C349 O355 1.263 . S
O350 Tb342 2.427 . S
O350 C346 1.275 . S
O351 Tb342 2.513 . S
O351 C346 1.246 . S
O352 Tb342 2.453 . S
O352 C348 1.245 . S
O353 Tb340 2.343 . S
O353 Tb342 2.596 . S
O353 C348 1.259 . S
O354 Tb342 2.374 . S
O354 C349 1.250 . S
O355 Tb340 2.353 . S
O355 C349 1.263 . S
C356 O357 1.275 . S
C356 O358 1.246 . S
O357 Tb340 2.427 . S
O357 C356 1.275 . S
O358 Tb340 2.513 . S
O358 C356 1.246 . S
C359 O343 1.245 . S
C359 O344 1.259 . S
H360 C366 0.930 . S
H361 C370 0.930 . S
H362 C375 0.929 . S
H363 C373 0.929 . S
H364 C368 0.929 . S
H365 C374 0.929 . S
C366 H360 0.930 . S
C366 C367 1.367 . S
C366 C374 1.378 . S
C367 C366 1.367 . S
C367 C375 1.433 . S
C368 H364 0.929 . S
C368 C370 1.378 . S
C368 C372 1.350 . S
C369 C372 1.463 . S
C369 C374 1.350 . S
C369 N377 1.427 . S
C370 H361 0.930 . S
C370 C368 1.378 . S
C370 C371 1.367 . S
C371 C370 1.367 . S
C371 C373 1.433 . S
C372 C368 1.350 . S
C372 C369 1.463 . S
C372 N376 1.427 . S
C373 H363 0.929 . S
C373 C371 1.433 . S
C373 N376 1.384 . S
C374 H365 0.929 . S
C374 C366 1.378 . S
C374 C369 1.350 . S
C375 H362 0.929 . S
C375 C367 1.433 . S
C375 N377 1.384 . S
N376 C372 1.427 . S
N376 C373 1.384 . S
N377 C369 1.427 . S
N377 C375 1.384 . S
H378 C384 0.930 . S
H379 C388 0.930 . S
H380 C393 0.929 . S
H381 C391 0.929 . S
H382 C386 0.929 . S
H383 C392 0.929 . S
C384 H378 0.930 . S
C384 C385 1.367 . S
C384 C392 1.378 . S
C385 C384 1.367 . S
C385 C393 1.433 . S
C386 H382 0.929 . S
C386 C388 1.378 . S
C386 C390 1.350 . S
C387 C390 1.463 . S
C387 C392 1.350 . S
C387 N395 1.427 . S
C388 H379 0.930 . S
C388 C386 1.378 . S
C388 C389 1.367 . S
C389 C388 1.367 . S
C389 C391 1.433 . S
C390 C386 1.350 . S
C390 C387 1.463 . S
C390 N394 1.427 . S
C391 H381 0.929 . S
C391 C389 1.433 . S
C391 N394 1.384 . S
C392 H383 0.929 . S
C392 C384 1.378 . S
C392 C387 1.350 . S
C393 H380 0.929 . S
C393 C385 1.433 . S
C393 N395 1.384 . S
N394 C390 1.427 . S
N394 C391 1.384 . S
N395 C387 1.427 . S
N395 C393 1.384 . S
H396 C402 0.930 . S
H397 C406 0.930 . S
H398 C411 0.929 . S
H399 C409 0.929 . S
H400 C404 0.929 . S
H401 C410 0.929 . S
C402 H396 0.930 . S
C402 C403 1.367 . S
C402 C410 1.378 . S
C403 C402 1.367 . S
C403 C411 1.433 . S
C404 H400 0.929 . S
C404 C406 1.378 . S
C404 C408 1.350 . S
C405 C408 1.463 . S
C405 C410 1.350 . S
C405 N413 1.427 . S
C406 H397 0.930 . S
C406 C404 1.378 . S
C406 C407 1.367 . S
C407 C406 1.367 . S
C407 C409 1.433 . S
C408 C404 1.350 . S
C408 C405 1.463 . S
C408 N412 1.427 . S
C409 H399 0.929 . S
C409 C407 1.433 . S
C409 N412 1.384 . S
C410 H401 0.929 . S
C410 C402 1.378 . S
C410 C405 1.350 . S
C411 H398 0.929 . S
C411 C403 1.433 . S
C411 N413 1.384 . S
N412 C408 1.427 . S
N412 C409 1.384 . S
N413 C405 1.427 . S
N413 C411 1.384 . S
H414 C420 0.930 . S
H415 C424 0.930 . S
H416 C429 0.929 . S
H417 C427 0.929 . S
H418 C422 0.929 . S
H419 C428 0.929 . S
C420 H414 0.930 . S
C420 C421 1.367 . S
C420 C428 1.378 . S
C421 C420 1.367 . S
C421 C429 1.433 . S
C422 H418 0.929 . S
C422 C424 1.378 . S
C422 C426 1.350 . S
C423 C426 1.463 . S
C423 C428 1.350 . S
C423 N431 1.427 . S
C424 H415 0.930 . S
C424 C422 1.378 . S
C424 C425 1.367 . S
C425 C424 1.367 . S
C425 C427 1.433 . S
C426 C422 1.350 . S
C426 C423 1.463 . S
C426 N430 1.427 . S
C427 H417 0.929 . S
C427 C425 1.433 . S
C427 N430 1.384 . S
C428 H419 0.929 . S
C428 C420 1.378 . S
C428 C423 1.350 . S
C429 H416 0.929 . S
C429 C421 1.433 . S
C429 N431 1.384 . S
N430 C426 1.427 . S
N430 C427 1.384 . S
N431 C423 1.427 . S
N431 C429 1.384 . S
H432 C438 0.930 . S
H433 C442 0.930 . S
H434 C447 0.929 . S
H435 C445 0.929 . S
H436 C440 0.929 . S
H437 C446 0.929 . S
C438 H432 0.930 . S
C438 C439 1.367 . S
C438 C446 1.378 . S
C439 C438 1.367 . S
C439 C447 1.433 . S
C440 H436 0.929 . S
C440 C442 1.378 . S
C440 C444 1.350 . S
C441 C444 1.463 . S
C441 C446 1.350 . S
C441 N449 1.427 . S
C442 H433 0.930 . S
C442 C440 1.378 . S
C442 C443 1.367 . S
C443 C442 1.367 . S
C443 C445 1.433 . S
C444 C440 1.350 . S
C444 C441 1.463 . S
C444 N448 1.427 . S
C445 H435 0.929 . S
C445 C443 1.433 . S
C445 N448 1.384 . S
C446 H437 0.929 . S
C446 C438 1.378 . S
C446 C441 1.350 . S
C447 H434 0.929 . S
C447 C439 1.433 . S
C447 N449 1.384 . S
N448 C444 1.427 . S
N448 C445 1.384 . S
N449 C441 1.427 . S
N449 C447 1.384 . S
H450 C456 0.930 . S
H451 C460 0.930 . S
H452 C465 0.929 . S
H453 C463 0.929 . S
H454 C458 0.929 . S
H455 C464 0.929 . S
C456 H450 0.930 . S
C456 C457 1.367 . S
C456 C464 1.378 . S
C457 C456 1.367 . S
C457 C465 1.433 . S
C458 H454 0.929 . S
C458 C460 1.378 . S
C458 C462 1.350 . S
C459 C462 1.463 . S
C459 C464 1.350 . S
C459 N467 1.427 . S
C460 H451 0.930 . S
C460 C458 1.378 . S
C460 C461 1.367 . S
C461 C460 1.367 . S
C461 C463 1.433 . S
C462 C458 1.350 . S
C462 C459 1.463 . S
C462 N466 1.427 . S
C463 H453 0.929 . S
C463 C461 1.433 . S
C463 N466 1.384 . S
C464 H455 0.929 . S
C464 C456 1.378 . S
C464 C459 1.350 . S
C465 H452 0.929 . S
C465 C457 1.433 . S
C465 N467 1.384 . S
N466 C462 1.427 . S
N466 C463 1.384 . S
N467 C459 1.427 . S
N467 C465 1.384 . S
H468 C474 0.930 . S
H469 C478 0.930 . S
H470 C483 0.929 . S
H471 C481 0.929 . S
H472 C476 0.929 . S
H473 C482 0.929 . S
C474 H468 0.930 . S
C474 C475 1.367 . S
C474 C482 1.378 1_565 S
C475 C474 1.367 . S
C475 C483 1.433 1_565 S
C476 H472 0.929 . S
C476 C478 1.378 . S
C476 C480 1.350 . S
C477 C480 1.463 . S
C477 C482 1.350 . S
C477 N485 1.427 . S
C478 H469 0.930 . S
C478 C476 1.378 . S
C478 C479 1.367 . S
C479 C478 1.367 . S
C479 C481 1.433 . S
C480 C476 1.350 . S
C480 C477 1.463 . S
C480 N484 1.427 . S
C481 H471 0.929 . S
C481 C479 1.433 . S
C481 N484 1.384 . S
C482 H473 0.929 . S
C482 C474 1.378 1_545 S
C482 C477 1.350 . S
C483 H470 0.929 . S
C483 C475 1.433 1_545 S
C483 N485 1.384 . S
N484 C480 1.427 . S
N484 C481 1.384 . S
N485 C477 1.427 . S
N485 C483 1.384 . S
H486 C492 0.930 . S
H487 C496 0.930 1_565 S
H488 C501 0.929 . S
H489 C499 0.929 . S
H490 C494 0.929 . S
H491 C500 0.929 . S
C492 H486 0.930 . S
C492 C493 1.367 . S
C492 C500 1.378 1_455 S
C493 C492 1.367 . S
C493 C501 1.433 . S
C494 H490 0.929 . S
C494 C496 1.378 . S
C494 C498 1.350 . S
C495 C498 1.463 . S
C495 C500 1.350 . S
C495 N503 1.427 1_655 S
C496 H487 0.930 1_545 S
C496 C494 1.378 . S
C496 C497 1.368 . S
C497 C496 1.368 . S
C497 C499 1.431 . S
C498 C494 1.350 . S
C498 C495 1.463 . S
C498 N502 1.427 . S
C499 H489 0.929 . S
C499 C497 1.431 . S
C499 N502 1.384 . S
C500 H491 0.929 . S
C500 C492 1.378 1_655 S
C500 C495 1.350 . S
C501 H488 0.929 . S
C501 C493 1.433 . S
C501 N503 1.384 . S
N502 C498 1.427 . S
N502 C499 1.384 . S
N503 C495 1.427 1_455 S
N503 C501 1.384 . S
H504 C510 0.930 . S
H505 C514 0.930 . S
H506 C519 0.929 . S
H507 C517 0.929 . S
H508 C512 0.929 . S
H509 C518 0.929 . S
C510 H504 0.930 . S
C510 C511 1.367 . S
C510 C518 1.378 1_455 S
C511 C510 1.367 . S
C511 C519 1.433 . S
C512 H508 0.929 . S
C512 C514 1.378 . S
C512 C516 1.350 . S
C513 C516 1.463 . S
C513 C518 1.350 . S
C513 N521 1.427 . S
C514 H505 0.930 . S
C514 C512 1.378 . S
C514 C515 1.367 . S
C515 C514 1.367 . S
C515 C517 1.433 . S
C516 C512 1.350 . S
C516 C513 1.463 . S
C516 N520 1.427 . S
C517 H507 0.929 . S
C517 C515 1.433 . S
C517 N520 1.384 . S
C518 H509 0.929 . S
C518 C510 1.378 1_655 S
C518 C513 1.350 . S
C519 H506 0.929 . S
C519 C511 1.433 . S
C519 N521 1.384 1_455 S
N520 C516 1.427 . S
N520 C517 1.384 . S
N521 C513 1.427 . S
N521 C519 1.384 1_655 S
H522 C528 0.930 . S
H523 C532 0.930 . S
H524 C537 0.929 . S
H525 C535 0.929 . S
H526 C530 0.929 . S
H527 C536 0.929 . S
C528 H522 0.930 . S
C528 C529 1.367 . S
C528 C536 1.378 . S
C529 C528 1.367 . S
C529 C537 1.433 . S
C530 H526 0.929 . S
C530 C532 1.378 . S
C530 C534 1.350 . S
C531 C534 1.463 . S
C531 C536 1.350 . S
C531 N539 1.427 . S
C532 H523 0.930 . S
C532 C530 1.378 . S
C532 C533 1.367 . S
C533 C532 1.367 . S
C533 C535 1.433 . S
C534 C530 1.350 . S
C534 C531 1.463 . S
C534 N538 1.427 . S
C535 H525 0.929 . S
C535 C533 1.433 . S
C535 N538 1.384 . S
C536 H527 0.929 . S
C536 C528 1.378 . S
C536 C531 1.350 . S
C537 H524 0.929 . S
C537 C529 1.433 . S
C537 N539 1.384 . S
N538 C534 1.427 . S
N538 C535 1.384 . S
N539 C531 1.427 . S
N539 C537 1.384 . S
H540 C546 0.930 . S
H541 C550 0.930 . S
H542 C555 0.929 . S
H543 C553 0.929 . S
H544 C548 0.929 . S
H545 C554 0.929 . S
C546 H540 0.930 . S
C546 C547 1.367 . S
C546 C554 1.378 . S
C547 C546 1.367 . S
C547 C555 1.433 . S
C548 H544 0.929 . S
C548 C550 1.378 . S
C548 C552 1.350 . S
C549 C552 1.463 . S
C549 C554 1.350 . S
C549 N557 1.427 . S
C550 H541 0.930 . S
C550 C548 1.378 . S
C550 C551 1.367 . S
C551 C550 1.367 . S
C551 C553 1.433 . S
C552 C548 1.350 . S
C552 C549 1.463 . S
C552 N556 1.427 . S
C553 H543 0.929 . S
C553 C551 1.433 . S
C553 N556 1.384 . S
C554 H545 0.929 . S
C554 C546 1.378 . S
C554 C549 1.350 . S
C555 H542 0.929 . S
C555 C547 1.433 . S
C555 N557 1.384 . S
N556 C552 1.427 . S
N556 C553 1.384 . S
N557 C549 1.427 . S
N557 C555 1.384 . S
H558 C564 0.930 . S
H559 C568 0.930 . S
H560 C573 0.929 . S
H561 C571 0.929 . S
H562 C566 0.929 . S
H563 C572 0.929 . S
C564 H558 0.930 . S
C564 C565 1.367 . S
C564 C572 1.378 . S
C565 C564 1.367 . S
C565 C573 1.433 . S
C566 H562 0.929 . S
C566 C568 1.378 . S
C566 C570 1.350 . S
C567 C570 1.463 . S
C567 C572 1.350 . S
C567 N575 1.427 . S
C568 H559 0.930 . S
C568 C566 1.378 . S
C568 C569 1.367 . S
C569 C568 1.367 . S
C569 C571 1.433 . S
C570 C566 1.350 . S
C570 C567 1.463 . S
C570 N574 1.427 . S
C571 H561 0.929 . S
C571 C569 1.433 . S
C571 N574 1.384 . S
C572 H563 0.929 . S
C572 C564 1.378 . S
C572 C567 1.350 . S
C573 H560 0.929 . S
C573 C565 1.433 . S
C573 N575 1.384 . S
N574 C570 1.427 . S
N574 C571 1.384 . S
N575 C567 1.427 . S
N575 C573 1.384 . S
H576 C582 0.930 . S
H577 C586 0.930 . S
H578 C591 0.929 . S
H579 C589 0.929 . S
H580 C584 0.929 . S
H581 C590 0.929 . S
C582 H576 0.930 . S
C582 C583 1.367 . S
C582 C590 1.378 . S
C583 C582 1.367 . S
C583 C591 1.433 . S
C584 H580 0.929 . S
C584 C586 1.378 . S
C584 C588 1.350 . S
C585 C588 1.463 . S
C585 C590 1.350 . S
C585 N593 1.427 . S
C586 H577 0.930 . S
C586 C584 1.378 . S
C586 C587 1.367 . S
C587 C586 1.367 . S
C587 C589 1.433 . S
C588 C584 1.350 . S
C588 C585 1.463 . S
C588 N592 1.427 . S
C589 H579 0.929 . S
C589 C587 1.433 . S
C589 N592 1.384 . S
C590 H581 0.929 . S
C590 C582 1.378 . S
C590 C585 1.350 . S
C591 H578 0.929 . S
C591 C583 1.433 . S
C591 N593 1.384 . S
N592 C588 1.427 . S
N592 C589 1.384 . S
N593 C585 1.427 . S
N593 C591 1.384 . S
H594 C600 0.930 . S
H595 C604 0.930 . S
H596 C609 0.929 . S
H597 C607 0.929 . S
H598 C602 0.929 . S
H599 C608 0.929 . S
C600 H594 0.930 . S
C600 C601 1.367 . S
C600 C608 1.378 . S
C601 C600 1.367 . S
C601 C609 1.433 . S
C602 H598 0.929 . S
C602 C604 1.378 . S
C602 C606 1.350 . S
C603 C606 1.463 . S
C603 C608 1.350 . S
C603 N611 1.427 . S
C604 H595 0.930 . S
C604 C602 1.378 . S
C604 C605 1.367 . S
C605 C604 1.367 . S
C605 C607 1.433 . S
C606 C602 1.350 . S
C606 C603 1.463 . S
C606 N610 1.427 . S
C607 H597 0.929 . S
C607 C605 1.433 . S
C607 N610 1.384 . S
C608 H599 0.929 . S
C608 C600 1.378 . S
C608 C603 1.350 . S
C609 H596 0.929 . S
C609 C601 1.433 . S
C609 N611 1.384 . S
N610 C606 1.427 . S
N610 C607 1.384 . S
N611 C603 1.427 . S
N611 C609 1.384 . S
H612 C618 0.930 . S
H613 C622 0.930 . S
H614 C627 0.929 . S
H615 C625 0.929 . S
H616 C620 0.929 . S
H617 C626 0.929 . S
C618 H612 0.930 . S
C618 C619 1.367 . S
C618 C626 1.378 . S
C619 C618 1.367 . S
C619 C627 1.433 . S
C620 H616 0.929 . S
C620 C622 1.378 . S
C620 C624 1.350 . S
C621 C624 1.463 . S
C621 C626 1.350 . S
C621 N629 1.427 . S
C622 H613 0.930 . S
C622 C620 1.378 . S
C622 C623 1.367 . S
C623 C622 1.367 . S
C623 C625 1.433 . S
C624 C620 1.350 . S
C624 C621 1.463 . S
C624 N628 1.427 . S
C625 H615 0.929 . S
C625 C623 1.433 . S
C625 N628 1.384 . S
C626 H617 0.929 . S
C626 C618 1.378 . S
C626 C621 1.350 . S
C627 H614 0.929 . S
C627 C619 1.433 . S
C627 N629 1.384 . S
N628 C624 1.427 . S
N628 C625 1.384 . S
N629 C621 1.427 . S
N629 C627 1.384 . S
H630 C636 0.930 . S
H631 C640 0.930 . S
H632 C645 0.929 . S
H633 C643 0.929 . S
H634 C638 0.929 . S
H635 C644 0.929 . S
C636 H630 0.930 . S
C636 C637 1.367 1_455 S
C636 C644 1.378 . S
C637 C636 1.367 1_655 S
C637 C645 1.433 . S
C638 H634 0.929 . S
C638 C640 1.378 . S
C638 C642 1.350 . S
C639 C642 1.463 . S
C639 C644 1.350 . S
C639 N647 1.427 . S
C640 H631 0.930 . S
C640 C638 1.378 . S
C640 C641 1.367 . S
C641 C640 1.367 . S
C641 C643 1.433 . S
C642 C638 1.350 . S
C642 C639 1.463 . S
C642 N646 1.427 . S
C643 H633 0.929 . S
C643 C641 1.433 . S
C643 N646 1.384 . S
C644 H635 0.929 . S
C644 C636 1.378 . S
C644 C639 1.350 . S
C645 H632 0.929 . S
C645 C637 1.433 . S
C645 N647 1.384 1_655 S
N646 C642 1.427 . S
N646 C643 1.384 . S
N647 C639 1.427 . S
N647 C645 1.384 1_455 S
H648 C654 0.930 . S
H649 C658 0.930 . S
H650 C663 0.929 . S
H651 C661 0.929 . S
H652 C656 0.929 . S
H653 C662 0.929 . S
C654 H648 0.930 . S
C654 C655 1.367 . S
C654 C662 1.378 . S
C655 C654 1.367 . S
C655 C663 1.433 . S
C656 H652 0.929 . S
C656 C658 1.378 1_565 S
C656 C660 1.350 . S
C657 C660 1.463 . S
C657 C662 1.350 . S
C657 N665 1.427 . S
C658 H649 0.930 . S
C658 C656 1.378 1_545 S
C658 C659 1.367 . S
C659 C658 1.367 . S
C659 C661 1.433 . S
C660 C656 1.350 . S
C660 C657 1.463 . S
C660 N664 1.427 . S
C661 H651 0.929 . S
C661 C659 1.433 . S
C661 N664 1.384 1_545 S
C662 H653 0.929 . S
C662 C654 1.378 . S
C662 C657 1.350 . S
C663 H650 0.929 . S
C663 C655 1.433 . S
C663 N665 1.384 . S
N664 C660 1.427 . S
N664 C661 1.384 1_565 S
N665 C657 1.427 . S
N665 C663 1.384 . S
H666 C672 0.930 . S
H667 C676 0.930 . S
H668 C681 0.929 . S
H669 C679 0.929 1_655 S
H670 C674 0.929 . S
H671 C680 0.929 1_565 S
C672 H666 0.930 . S
C672 C673 1.367 . S
C672 C680 1.378 . S
C673 C672 1.367 . S
C673 C681 1.433 . S
C674 H670 0.929 . S
C674 C676 1.378 . S
C674 C678 1.350 . S
C675 C678 1.463 . S
C675 C680 1.350 1_565 S
C675 N683 1.427 . S
C676 H667 0.930 . S
C676 C674 1.378 . S
C676 C677 1.373 . S
C677 C676 1.373 . S
C677 C679 1.435 . S
C678 C674 1.350 . S
C678 C675 1.463 . S
C678 N682 1.427 . S
C679 H669 0.929 1_455 S
C679 C677 1.435 . S
C679 N682 1.384 . S
C680 H671 0.929 1_545 S
C680 C672 1.378 . S
C680 C675 1.350 1_545 S
C681 H668 0.929 . S
C681 C673 1.433 . S
C681 N683 1.384 1_545 S
N682 C678 1.427 . S
N682 C679 1.384 . S
N683 C675 1.427 . S
N683 C681 1.384 1_565 S
H684 C690 0.930 . S
H685 C694 0.930 . S
H686 C699 0.929 . S
H687 C697 0.929 . S
H688 C692 0.929 . S
H689 C698 0.929 . S
C690 H684 0.930 . S
C690 C691 1.367 . S
C690 C698 1.378 . S
C691 C690 1.367 . S
C691 C699 1.433 1_545 S
C692 H688 0.929 . S
C692 C694 1.378 . S
C692 C696 1.350 1_565 S
C693 C696 1.463 1_554 S
C693 C698 1.350 . S
C693 N701 1.427 1_545 S
C694 H685 0.930 . S
C694 C692 1.378 . S
C694 C695 1.367 1_565 S
C695 C694 1.367 1_545 S
C695 C697 1.433 . S
C696 C692 1.350 1_545 S
C696 C693 1.463 1_556 S
C696 N700 1.427 . S
C697 H687 0.929 . S
C697 C695 1.433 . S
C697 N700 1.384 . S
C698 H689 0.929 . S
C698 C690 1.378 . S
C698 C693 1.350 . S
C699 H686 0.929 . S
C699 C691 1.433 1_565 S
C699 N701 1.384 . S
N700 C696 1.427 . S
N700 C697 1.384 . S
N701 C693 1.427 1_565 S
N701 C699 1.384 . S
H702 C708 0.945 . S
H703 C712 0.930 . S
H704 C717 0.929 . S
H705 C715 0.929 . S
H706 C710 0.929 . S
H707 C716 0.929 1_655 S
C708 H702 0.945 . S
C708 C709 1.367 . S
C708 C716 1.378 . S
C709 C708 1.367 . S
C709 C717 1.433 . S
C710 H706 0.929 . S
C710 C712 1.378 . S
C710 C714 1.350 . S
C711 C714 1.463 1_556 S
C711 C716 1.350 . S
C711 N719 1.427 . S
C712 H703 0.930 . S
C712 C710 1.378 . S
C712 C713 1.367 . S
C713 C712 1.367 . S
C713 C715 1.433 1_455 S
C714 C710 1.350 . S
C714 C711 1.463 1_554 S
C714 N718 1.433 . S
C715 H705 0.929 . S
C715 C713 1.433 1_655 S
C715 N718 1.383 1_655 S
C716 H707 0.929 1_455 S
C716 C708 1.378 . S
C716 C711 1.350 . S
C717 H704 0.929 . S
C717 C709 1.433 . S
C717 N719 1.384 . S
N718 C714 1.433 . S
N718 C715 1.383 1_455 S
N719 C711 1.427 . S
N719 C717 1.384 . S
H720 C726 0.930 . S
H721 C730 0.930 . S
H722 C735 0.929 . S
H723 C733 0.929 . S
H724 C728 0.929 . S
H725 C734 0.929 . S
C726 H720 0.930 . S
C726 C727 1.367 . S
C726 C734 1.378 . S
C727 C726 1.367 . S
C727 C735 1.433 . S
C728 H724 0.929 . S
C728 C730 1.378 . S
C728 C732 1.350 . S
C729 C732 1.463 1_556 S
C729 C734 1.350 . S
C729 N737 1.427 . S
C730 H721 0.930 . S
C730 C728 1.378 . S
C730 C731 1.367 . S
C731 C730 1.367 . S
C731 C733 1.433 . S
C732 C728 1.350 . S
C732 C729 1.463 1_554 S
C732 N736 1.427 . S
C733 H723 0.929 . S
C733 C731 1.433 . S
C733 N736 1.384 . S
C734 H725 0.929 . S
C734 C726 1.378 . S
C734 C729 1.350 . S
C735 H722 0.929 . S
C735 C727 1.433 . S
C735 N737 1.384 . S
N736 C732 1.427 . S
N736 C733 1.384 . S
N737 C729 1.427 . S
N737 C735 1.384 . S
H738 C744 0.930 . S
H739 C748 0.930 . S
H740 C753 0.929 . S
H741 C751 0.929 . S
H742 C746 0.929 . S
H743 C752 0.929 . S
C744 H738 0.930 . S
C744 C745 1.367 . S
C744 C752 1.378 . S
C745 C744 1.367 . S
C745 C753 1.433 . S
C746 H742 0.929 . S
C746 C748 1.378 . S
C746 C750 1.350 . S
C747 C750 1.463 . S
C747 C752 1.350 . S
C747 N755 1.427 . S
C748 H739 0.930 . S
C748 C746 1.378 . S
C748 C749 1.367 . S
C749 C748 1.367 . S
C749 C751 1.433 . S
C750 C746 1.350 . S
C750 C747 1.463 . S
C750 N754 1.427 . S
C751 H741 0.929 . S
C751 C749 1.433 . S
C751 N754 1.384 . S
C752 H743 0.929 . S
C752 C744 1.378 . S
C752 C747 1.350 . S
C753 H740 0.929 . S
C753 C745 1.433 . S
C753 N755 1.384 . S
N754 C750 1.427 . S
N754 C751 1.384 . S
N755 C747 1.427 . S
N755 C753 1.384 . S
H756 C762 0.930 . S
H757 C766 0.930 . S
H758 C771 0.929 . S
H759 C769 0.929 . S
H760 C764 0.929 . S
H761 C770 0.929 . S
C762 H756 0.930 . S
C762 C763 1.367 . S
C762 C770 1.378 . S
C763 C762 1.367 . S
C763 C771 1.433 . S
C764 H760 0.929 . S
C764 C766 1.378 . S
C764 C768 1.350 . S
C765 C768 1.463 . S
C765 C770 1.350 . S
C765 N773 1.427 . S
C766 H757 0.930 . S
C766 C764 1.378 . S
C766 C767 1.367 . S
C767 C766 1.367 . S
C767 C769 1.433 . S
C768 C764 1.350 . S
C768 C765 1.463 . S
C768 N772 1.427 . S
C769 H759 0.929 . S
C769 C767 1.433 . S
C769 N772 1.384 . S
C770 H761 0.929 . S
C770 C762 1.378 . S
C770 C765 1.350 . S
C771 H758 0.929 . S
C771 C763 1.433 . S
C771 N773 1.384 . S
N772 C768 1.427 . S
N772 C769 1.384 . S
N773 C765 1.427 . S
N773 C771 1.384 . S
H774 C780 0.930 . S
H775 C784 0.930 . S
H776 C789 0.929 . S
H777 C787 0.929 . S
H778 C782 0.929 . S
H779 C788 0.929 . S
C780 H774 0.930 . S
C780 C781 1.367 . S
C780 C788 1.378 . S
C781 C780 1.367 . S
C781 C789 1.433 . S
C782 H778 0.929 . S
C782 C784 1.378 . S
C782 C786 1.350 . S
C783 C786 1.463 . S
C783 C788 1.350 . S
C783 N791 1.427 . S
C784 H775 0.930 . S
C784 C782 1.378 . S
C784 C785 1.367 . S
C785 C784 1.367 . S
C785 C787 1.433 . S
C786 C782 1.350 . S
C786 C783 1.463 . S
C786 N790 1.427 . S
C787 H777 0.929 . S
C787 C785 1.433 . S
C787 N790 1.384 . S
C788 H779 0.929 . S
C788 C780 1.378 . S
C788 C783 1.350 . S
C789 H776 0.929 . S
C789 C781 1.433 . S
C789 N791 1.384 . S
N790 C786 1.427 . S
N790 C787 1.384 . S
N791 C783 1.427 . S
N791 C789 1.384 . S
H792 C798 0.930 . S
H793 C802 0.930 . S
H794 C807 0.929 . S
H795 C805 0.929 . S
H796 C800 0.929 . S
H797 C806 0.929 . S
C798 H792 0.930 . S
C798 C799 1.367 . S
C798 C806 1.378 . S
C799 C798 1.367 . S
C799 C807 1.433 . S
C800 H796 0.929 . S
C800 C802 1.378 . S
C800 C804 1.350 . S
C801 C804 1.463 . S
C801 C806 1.350 . S
C801 N809 1.427 . S
C802 H793 0.930 . S
C802 C800 1.378 . S
C802 C803 1.367 . S
C803 C802 1.367 . S
C803 C805 1.433 . S
C804 C800 1.350 . S
C804 C801 1.463 . S
C804 N808 1.427 . S
C805 H795 0.929 . S
C805 C803 1.433 . S
C805 N808 1.384 . S
C806 H797 0.929 . S
C806 C798 1.378 . S
C806 C801 1.350 . S
C807 H794 0.929 . S
C807 C799 1.433 . S
C807 N809 1.384 . S
N808 C804 1.427 . S
N808 C805 1.384 . S
N809 C801 1.427 . S
N809 C807 1.384 . S
H810 C816 0.930 . S
H811 C820 0.930 . S
H812 C825 0.929 . S
H813 C823 0.929 . S
H814 C818 0.929 . S
H815 C824 0.929 . S
C816 H810 0.930 . S
C816 C817 1.367 . S
C816 C824 1.378 . S
C817 C816 1.367 . S
C817 C825 1.433 . S
C818 H814 0.929 . S
C818 C820 1.378 . S
C818 C822 1.350 . S
C819 C822 1.463 . S
C819 C824 1.350 . S
C819 N827 1.427 . S
C820 H811 0.930 . S
C820 C818 1.378 . S
C820 C821 1.367 . S
C821 C820 1.367 . S
C821 C823 1.433 . S
C822 C818 1.350 . S
C822 C819 1.463 . S
C822 N826 1.427 . S
C823 H813 0.929 . S
C823 C821 1.433 . S
C823 N826 1.384 . S
C824 H815 0.929 . S
C824 C816 1.378 . S
C824 C819 1.350 . S
C825 H812 0.929 . S
C825 C817 1.433 . S
C825 N827 1.384 . S
N826 C822 1.427 . S
N826 C823 1.384 . S
N827 C819 1.427 . S
N827 C825 1.384 . S
H828 C834 0.930 . S
H829 C838 0.930 . S
H830 C843 0.929 . S
H831 C841 0.929 . S
H832 C836 0.929 . S
H833 C842 0.929 . S
C834 H828 0.930 . S
C834 C835 1.367 . S
C834 C842 1.378 . S
C835 C834 1.367 . S
C835 C843 1.433 . S
C836 H832 0.929 . S
C836 C838 1.378 . S
C836 C840 1.350 . S
C837 C840 1.463 . S
C837 C842 1.350 . S
C837 N845 1.427 . S
C838 H829 0.930 . S
C838 C836 1.378 . S
C838 C839 1.367 . S
C839 C838 1.367 . S
C839 C841 1.433 . S
C840 C836 1.350 . S
C840 C837 1.463 . S
C840 N844 1.427 . S
C841 H831 0.929 . S
C841 C839 1.433 . S
C841 N844 1.384 . S
C842 H833 0.929 . S
C842 C834 1.378 . S
C842 C837 1.350 . S
C843 H830 0.929 . S
C843 C835 1.433 . S
C843 N845 1.384 . S
N844 C840 1.427 . S
N844 C841 1.384 . S
N845 C837 1.427 . S
N845 C843 1.384 . S
H846 C852 0.930 . S
H847 C856 0.930 . S
H848 C861 0.929 . S
H849 C859 0.929 1_545 S
H850 C854 0.929 . S
H851 C860 0.929 . S
C852 H846 0.930 . S
C852 C853 1.367 . S
C852 C860 1.378 . S
C853 C852 1.367 . S
C853 C861 1.433 . S
C854 H850 0.929 . S
C854 C856 1.378 . S
C854 C858 1.350 . S
C855 C858 1.463 . S
C855 C860 1.350 . S
C855 N863 1.427 . S
C856 H847 0.930 . S
C856 C854 1.378 . S
C856 C857 1.367 . S
C857 C856 1.367 . S
C857 C859 1.433 . S
C858 C854 1.350 . S
C858 C855 1.463 . S
C858 N862 1.427 . S
C859 H849 0.929 1_565 S
C859 C857 1.433 . S
C859 N862 1.384 . S
C860 H851 0.929 . S
C860 C852 1.378 . S
C860 C855 1.350 . S
C861 H848 0.929 . S
C861 C853 1.433 . S
C861 N863 1.384 . S
N862 C858 1.427 . S
N862 C859 1.384 . S
N863 C855 1.427 . S
N863 C861 1.384 . S
H864 C870 0.930 . S
H865 C874 0.930 . S
H866 C879 0.929 . S
H867 C877 0.929 . S
H868 C872 0.929 . S
H869 C878 0.929 . S
C870 H864 0.930 . S
C870 C871 1.367 . S
C870 C878 1.378 . S
C871 C870 1.367 . S
C871 C879 1.433 . S
C872 H868 0.929 . S
C872 C874 1.378 . S
C872 C876 1.350 . S
C873 C876 1.463 . S
C873 C878 1.350 . S
C873 N881 1.427 . S
C874 H865 0.930 . S
C874 C872 1.378 . S
C874 C875 1.367 . S
C875 C874 1.367 . S
C875 C877 1.433 . S
C876 C872 1.350 . S
C876 C873 1.463 . S
C876 N880 1.427 . S
C877 H867 0.929 . S
C877 C875 1.433 . S
C877 N880 1.384 . S
C878 H869 0.929 . S
C878 C870 1.378 . S
C878 C873 1.350 . S
C879 H866 0.929 . S
C879 C871 1.433 . S
C879 N881 1.384 . S
N880 C876 1.427 . S
N880 C877 1.384 . S
N881 C873 1.427 . S
N881 C879 1.384 . S
H882 C888 0.930 . S
H883 C892 0.930 . S
H884 C897 0.929 . S
H885 C895 0.929 . S
H886 C890 0.929 . S
H887 C896 0.929 . S
C888 H882 0.930 . S
C888 C889 1.367 . S
C888 C896 1.378 . S
C889 C888 1.367 . S
C889 C897 1.433 . S
C890 H886 0.929 . S
C890 C892 1.378 . S
C890 C894 1.350 . S
C891 C894 1.463 . S
C891 C896 1.350 . S
C891 N899 1.427 . S
C892 H883 0.930 . S
C892 C890 1.378 . S
C892 C893 1.367 . S
C893 C892 1.367 . S
C893 C895 1.433 . S
C894 C890 1.350 . S
C894 C891 1.463 . S
C894 N898 1.427 . S
C895 H885 0.929 . S
C895 C893 1.433 . S
C895 N898 1.384 . S
C896 H887 0.929 . S
C896 C888 1.378 . S
C896 C891 1.350 . S
C897 H884 0.929 . S
C897 C889 1.433 . S
C897 N899 1.384 . S
N898 C894 1.427 . S
N898 C895 1.384 . S
N899 C891 1.427 . S
N899 C897 1.384 . S
H900 C906 0.930 1_455 S
H901 C910 0.930 . S
H902 C915 0.929 . S
H903 C913 0.929 . S
H904 C908 0.929 . S
H905 C914 0.929 . S
C906 H900 0.930 1_655 S
C906 C907 1.367 . S
C906 C914 1.378 . S
C907 C906 1.367 . S
C907 C915 1.433 . S
C908 H904 0.929 . S
C908 C910 1.378 . S
C908 C912 1.350 . S
C909 C912 1.463 . S
C909 C914 1.350 . S
C909 N917 1.427 . S
C910 H901 0.930 . S
C910 C908 1.378 . S
C910 C911 1.367 . S
C911 C910 1.367 . S
C911 C913 1.433 . S
C912 C908 1.350 . S
C912 C909 1.463 . S
C912 N916 1.427 . S
C913 H903 0.929 . S
C913 C911 1.433 . S
C913 N916 1.384 . S
C914 H905 0.929 . S
C914 C906 1.378 . S
C914 C909 1.350 . S
C915 H902 0.929 . S
C915 C907 1.433 . S
C915 N917 1.384 . S
N916 C912 1.427 . S
N916 C913 1.384 . S
N917 C909 1.427 . S
N917 C915 1.384 . S
H918 C924 0.930 . S
H919 C928 0.930 . S
H920 C933 0.929 . S
H921 C931 0.929 . S
H922 C926 0.929 . S
H923 C932 0.929 . S
C924 H918 0.930 . S
C924 C925 1.367 . S
C924 C932 1.378 . S
C925 C924 1.367 . S
C925 C933 1.433 . S
C926 H922 0.929 . S
C926 C928 1.378 . S
C926 C930 1.350 . S
C927 C930 1.463 . S
C927 C932 1.350 . S
C927 N935 1.427 . S
C928 H919 0.930 . S
C928 C926 1.378 . S
C928 C929 1.367 . S
C929 C928 1.367 . S
C929 C931 1.433 . S
C930 C926 1.350 . S
C930 C927 1.463 . S
C930 N934 1.427 . S
C931 H921 0.929 . S
C931 C929 1.433 . S
C931 N934 1.384 . S
C932 H923 0.929 . S
C932 C924 1.378 . S
C932 C927 1.350 . S
C933 H920 0.929 . S
C933 C925 1.433 . S
C933 N935 1.384 . S
N934 C930 1.427 . S
N934 C931 1.384 . S
N935 C927 1.427 . S
N935 C933 1.384 . S
H936 C942 0.930 . S
H937 C946 0.930 . S
H938 C951 0.929 . S
H939 C949 0.929 . S
H940 C944 0.929 . S
H941 C950 0.929 . S
C942 H936 0.930 . S
C942 C943 1.367 . S
C942 C950 1.378 . S
C943 C942 1.367 . S
C943 C951 1.433 . S
C944 H940 0.929 . S
C944 C946 1.378 . S
C944 C948 1.350 . S
C945 C948 1.463 . S
C945 C950 1.350 . S
C945 N953 1.427 . S
C946 H937 0.930 . S
C946 C944 1.378 . S
C946 C947 1.367 . S
C947 C946 1.367 . S
C947 C949 1.433 . S
C948 C944 1.350 . S
C948 C945 1.463 . S
C948 N952 1.427 . S
C949 H939 0.929 . S
C949 C947 1.433 . S
C949 N952 1.384 . S
C950 H941 0.929 . S
C950 C942 1.378 . S
C950 C945 1.350 . S
C951 H938 0.929 . S
C951 C943 1.433 . S
C951 N953 1.384 . S
N952 C948 1.427 . S
N952 C949 1.384 . S
N953 C945 1.427 . S
N953 C951 1.384 . S
H954 C960 0.930 . S
H955 C964 0.930 . S
H956 C969 0.929 . S
H957 C967 0.929 . S
H958 C962 0.929 1_655 S
H959 C968 0.929 . S
C960 H954 0.930 . S
C960 C961 1.367 . S
C960 C968 1.378 1_655 S
C961 C960 1.367 . S
C961 C969 1.433 . S
C962 H958 0.929 1_455 S
C962 C964 1.378 . S
C962 C966 1.350 . S
C963 C966 1.477 . S
C963 C968 1.351 . S
C963 N971 1.412 1_455 S
C964 H955 0.930 . S
C964 C962 1.378 . S
C964 C965 1.367 . S
C965 C964 1.367 . S
C965 C967 1.433 . S
C966 C962 1.350 . S
C966 C963 1.477 . S
C966 N970 1.427 . S
C967 H957 0.929 . S
C967 C965 1.433 . S
C967 N970 1.384 . S
C968 H959 0.929 . S
C968 C960 1.378 1_455 S
C968 C963 1.351 . S
C969 H956 0.929 . S
C969 C961 1.433 . S
C969 N971 1.384 . S
N970 C966 1.427 . S
N970 C967 1.384 . S
N971 C963 1.412 1_655 S
N971 C969 1.384 . S
H972 C978 0.930 . S
H973 C982 0.930 . S
H974 C987 0.929 . S
H975 C985 0.929 . S
H976 C980 0.929 . S
H977 C986 0.929 . S
C978 H972 0.930 . S
C978 C979 1.367 . S
C978 C986 1.378 . S
C979 C978 1.367 . S
C979 C987 1.433 . S
C980 H976 0.929 . S
C980 C982 1.378 . S
C980 C984 1.350 . S
C981 C984 1.463 . S
C981 C986 1.350 . S
C981 N989 1.427 . S
C982 H973 0.930 . S
C982 C980 1.378 . S
C982 C983 1.367 . S
C983 C982 1.367 . S
C983 C985 1.433 . S
C984 C980 1.350 . S
C984 C981 1.463 . S
C984 N988 1.427 . S
C985 H975 0.929 . S
C985 C983 1.433 . S
C985 N988 1.384 . S
C986 H977 0.929 . S
C986 C978 1.378 . S
C986 C981 1.350 . S
C987 H974 0.929 . S
C987 C979 1.433 . S
C987 N989 1.384 . S
N988 C984 1.427 . S
N988 C985 1.384 . S
N989 C981 1.427 . S
N989 C987 1.384 . S
H990 C996 0.930 . S
H991 C1000 0.930 . S
H992 C1005 0.929 . S
H993 C1003 0.929 . S
H994 C998 0.929 1_565 S
H995 C1004 0.929 . S
C996 H990 0.930 . S
C996 C997 1.367 . S
C996 C1004 1.378 1_565 S
C997 C996 1.367 . S
C997 C1005 1.433 . S
C998 H994 0.929 1_545 S
C998 C1000 1.378 . S
C998 C1002 1.350 . S
C999 C1002 1.478 . S
C999 C1004 1.353 . S
C999 N1007 1.409 1_545 S
C1000 H991 0.930 . S
C1000 C998 1.378 . S
C1000 C1001 1.367 . S
C1001 C1000 1.367 . S
C1001 C1003 1.433 . S
C1002 C998 1.350 . S
C1002 C999 1.478 . S
C1002 N1006 1.427 . S
C1003 H993 0.929 . S
C1003 C1001 1.433 . S
C1003 N1006 1.384 . S
C1004 H995 0.929 . S
C1004 C996 1.378 1_545 S
C1004 C999 1.353 . S
C1005 H992 0.929 . S
C1005 C997 1.433 . S
C1005 N1007 1.384 . S
N1006 C1002 1.427 . S
N1006 C1003 1.384 . S
N1007 C999 1.409 1_565 S
N1007 C1005 1.384 . S
H1008 C1014 0.930 . S
H1009 C1018 0.930 . S
H1010 C1023 0.929 . S
H1011 C1021 0.929 . S
H1012 C1016 0.929 . S
H1013 C1022 0.929 . S
C1014 H1008 0.930 . S
C1014 C1015 1.367 . S
C1014 C1022 1.378 . S
C1015 C1014 1.367 . S
C1015 C1023 1.433 . S
C1016 H1012 0.929 . S
C1016 C1018 1.378 . S
C1016 C1020 1.350 . S
C1017 C1020 1.463 . S
C1017 C1022 1.350 . S
C1017 N1025 1.427 . S
C1018 H1009 0.930 . S
C1018 C1016 1.378 . S
C1018 C1019 1.367 . S
C1019 C1018 1.367 . S
C1019 C1021 1.433 . S
C1020 C1016 1.350 . S
C1020 C1017 1.463 . S
C1020 N1024 1.427 . S
C1021 H1011 0.929 . S
C1021 C1019 1.433 . S
C1021 N1024 1.384 . S
C1022 H1013 0.929 . S
C1022 C1014 1.378 . S
C1022 C1017 1.350 . S
C1023 H1010 0.929 . S
C1023 C1015 1.433 . S
C1023 N1025 1.384 . S
N1024 C1020 1.427 . S
N1024 C1021 1.384 . S
N1025 C1017 1.427 . S
N1025 C1023 1.384 . S
H1026 C1032 0.930 . S
H1027 C1036 0.930 . S
H1028 C1041 0.929 . S
H1029 C1039 0.929 . S
H1030 C1034 0.929 . S
H1031 C1040 0.929 . S
C1032 H1026 0.930 . S
C1032 C1033 1.367 . S
C1032 C1040 1.378 . S
C1033 C1032 1.367 . S
C1033 C1041 1.433 . S
C1034 H1030 0.929 . S
C1034 C1036 1.378 . S
C1034 C1038 1.350 . S
C1035 C1038 1.463 . S
C1035 C1040 1.350 . S
C1035 N1043 1.427 . S
C1036 H1027 0.930 . S
C1036 C1034 1.378 . S
C1036 C1037 1.367 . S
C1037 C1036 1.367 . S
C1037 C1039 1.433 . S
C1038 C1034 1.350 . S
C1038 C1035 1.463 . S
C1038 N1042 1.427 . S
C1039 H1029 0.929 . S
C1039 C1037 1.433 . S
C1039 N1042 1.384 . S
C1040 H1031 0.929 . S
C1040 C1032 1.378 . S
C1040 C1035 1.350 . S
C1041 H1028 0.929 . S
C1041 C1033 1.433 . S
C1041 N1043 1.384 . S
N1042 C1038 1.427 . S
N1042 C1039 1.384 . S
N1043 C1035 1.427 . S
N1043 C1041 1.384 . S
H1044 C1050 0.930 . S
H1045 C1054 0.930 . S
H1046 C1059 0.929 . S
H1047 C1057 0.929 . S
H1048 C1052 0.929 . S
H1049 C1058 0.929 . S
C1050 H1044 0.930 . S
C1050 C1051 1.367 . S
C1050 C1058 1.378 . S
C1051 C1050 1.367 . S
C1051 C1059 1.433 . S
C1052 H1048 0.929 . S
C1052 C1054 1.378 . S
C1052 C1056 1.350 . S
C1053 C1056 1.463 . S
C1053 C1058 1.350 . S
C1053 N1061 1.427 . S
C1054 H1045 0.930 . S
C1054 C1052 1.378 . S
C1054 C1055 1.367 . S
C1055 C1054 1.367 . S
C1055 C1057 1.433 . S
C1056 C1052 1.350 . S
C1056 C1053 1.463 . S
C1056 N1060 1.427 . S
C1057 H1047 0.929 . S
C1057 C1055 1.433 . S
C1057 N1060 1.384 . S
C1058 H1049 0.929 . S
C1058 C1050 1.378 . S
C1058 C1053 1.350 . S
C1059 H1046 0.929 . S
C1059 C1051 1.433 . S
C1059 N1061 1.384 . S
N1060 C1056 1.427 . S
N1060 C1057 1.384 . S
N1061 C1053 1.427 . S
N1061 C1059 1.384 . S
H1062 C1068 0.930 . S
H1063 C1072 0.930 . S
H1064 C1077 0.929 . S
H1065 C1075 0.929 . S
H1066 C1070 0.929 . S
H1067 C1076 0.929 . S
C1068 H1062 0.930 . S
C1068 C1069 1.367 . S
C1068 C1076 1.378 . S
C1069 C1068 1.367 . S
C1069 C1077 1.433 . S
C1070 H1066 0.929 . S
C1070 C1072 1.378 . S
C1070 C1074 1.350 . S
C1071 C1074 1.463 . S
C1071 C1076 1.350 . S
C1071 N1079 1.427 . S
C1072 H1063 0.930 . S
C1072 C1070 1.378 . S
C1072 C1073 1.367 . S
C1073 C1072 1.367 . S
C1073 C1075 1.433 . S
C1074 C1070 1.350 . S
C1074 C1071 1.463 . S
C1074 N1078 1.427 . S
C1075 H1065 0.929 . S
C1075 C1073 1.433 . S
C1075 N1078 1.384 . S
C1076 H1067 0.929 . S
C1076 C1068 1.378 . S
C1076 C1071 1.350 . S
C1077 H1064 0.929 . S
C1077 C1069 1.433 . S
C1077 N1079 1.384 . S
N1078 C1074 1.427 . S
N1078 C1075 1.384 . S
N1079 C1071 1.427 . S
N1079 C1077 1.384 . S
H1080 C1086 0.930 . S
H1081 C1090 0.930 . S
H1082 C1095 0.929 . S
H1083 C1093 0.929 . S
H1084 C1088 0.929 . S
H1085 C1094 0.929 . S
C1086 H1080 0.930 . S
C1086 C1087 1.367 . S
C1086 C1094 1.378 . S
C1087 C1086 1.367 . S
C1087 C1095 1.433 . S
C1088 H1084 0.929 . S
C1088 C1090 1.378 . S
C1088 C1092 1.350 . S
C1089 C1092 1.463 . S
C1089 C1094 1.350 . S
C1089 N1097 1.427 . S
C1090 H1081 0.930 . S
C1090 C1088 1.378 . S
C1090 C1091 1.367 . S
C1091 C1090 1.367 . S
C1091 C1093 1.433 . S
C1092 C1088 1.350 . S
C1092 C1089 1.463 . S
C1092 N1096 1.427 . S
C1093 H1083 0.929 . S
C1093 C1091 1.433 . S
C1093 N1096 1.384 . S
C1094 H1085 0.929 . S
C1094 C1086 1.378 . S
C1094 C1089 1.350 . S
C1095 H1082 0.929 . S
C1095 C1087 1.433 . S
C1095 N1097 1.384 . S
N1096 C1092 1.427 . S
N1096 C1093 1.384 . S
N1097 C1089 1.427 . S
N1097 C1095 1.384 . S
H1098 C1104 0.930 . S
H1099 C1108 0.930 . S
H1100 C1113 0.929 . S
H1101 C1111 0.929 . S
H1102 C1106 0.929 . S
H1103 C1112 0.929 . S
C1104 H1098 0.930 . S
C1104 C1105 1.367 . S
C1104 C1112 1.378 . S
C1105 C1104 1.367 . S
C1105 C1113 1.433 . S
C1106 H1102 0.929 . S
C1106 C1108 1.378 . S
C1106 C1110 1.350 . S
C1107 C1110 1.463 . S
C1107 C1112 1.350 . S
C1107 N1115 1.427 . S
C1108 H1099 0.930 . S
C1108 C1106 1.378 . S
C1108 C1109 1.367 . S
C1109 C1108 1.367 . S
C1109 C1111 1.433 . S
C1110 C1106 1.350 . S
C1110 C1107 1.463 . S
C1110 N1114 1.427 . S
C1111 H1101 0.929 . S
C1111 C1109 1.433 . S
C1111 N1114 1.384 . S
C1112 H1103 0.929 . S
C1112 C1104 1.378 . S
C1112 C1107 1.350 . S
C1113 H1100 0.929 . S
C1113 C1105 1.433 . S
C1113 N1115 1.384 . S
N1114 C1110 1.427 . S
N1114 C1111 1.384 . S
N1115 C1107 1.427 . S
N1115 C1113 1.384 . S
H1116 C1122 0.930 . S
H1117 C1126 0.930 . S
H1118 C1131 0.929 . S
H1119 C1129 0.929 . S
H1120 C1124 0.929 . S
H1121 C1130 0.929 . S
C1122 H1116 0.930 . S
C1122 C1123 1.367 . S
C1122 C1130 1.378 . S
C1123 C1122 1.367 . S
C1123 C1131 1.433 . S
C1124 H1120 0.929 . S
C1124 C1126 1.378 . S
C1124 C1128 1.350 . S
C1125 C1128 1.463 . S
C1125 C1130 1.350 . S
C1125 N1133 1.427 . S
C1126 H1117 0.930 . S
C1126 C1124 1.378 . S
C1126 C1127 1.367 . S
C1127 C1126 1.367 . S
C1127 C1129 1.433 . S
C1128 C1124 1.350 . S
C1128 C1125 1.463 . S
C1128 N1132 1.427 . S
C1129 H1119 0.929 . S
C1129 C1127 1.433 . S
C1129 N1132 1.384 . S
C1130 H1121 0.929 . S
C1130 C1122 1.378 . S
C1130 C1125 1.350 . S
C1131 H1118 0.929 . S
C1131 C1123 1.433 . S
C1131 N1133 1.384 . S
N1132 C1128 1.427 . S
N1132 C1129 1.384 . S
N1133 C1125 1.427 . S
N1133 C1131 1.384 . S
H1134 C1140 0.930 . S
H1135 C1144 0.930 . S
H1136 C1149 0.929 . S
H1137 C1147 0.929 . S
H1138 C1142 0.929 . S
H1139 C1148 0.929 . S
C1140 H1134 0.930 . S
C1140 C1141 1.367 . S
C1140 C1148 1.378 . S
C1141 C1140 1.367 . S
C1141 C1149 1.433 . S
C1142 H1138 0.929 . S
C1142 C1144 1.378 . S
C1142 C1146 1.350 . S
C1143 C1146 1.463 . S
C1143 C1148 1.350 . S
C1143 N1151 1.427 . S
C1144 H1135 0.930 . S
C1144 C1142 1.378 . S
C1144 C1145 1.367 . S
C1145 C1144 1.367 . S
C1145 C1147 1.433 . S
C1146 C1142 1.350 . S
C1146 C1143 1.463 . S
C1146 N1150 1.427 . S
C1147 H1137 0.929 . S
C1147 C1145 1.433 . S
C1147 N1150 1.384 . S
C1148 H1139 0.929 . S
C1148 C1140 1.378 . S
C1148 C1143 1.350 . S
C1149 H1136 0.929 . S
C1149 C1141 1.433 . S
C1149 N1151 1.384 . S
N1150 C1146 1.427 . S
N1150 C1147 1.384 . S
N1151 C1143 1.427 . S
N1151 C1149 1.384 . S
H1152 C1158 0.930 . S
H1153 C1162 0.930 . S
H1154 C1167 0.929 . S
H1155 C1165 0.929 . S
H1156 C1160 0.929 . S
H1157 C1166 0.929 . S
C1158 H1152 0.930 . S
C1158 C1159 1.367 . S
C1158 C1166 1.378 . S
C1159 C1158 1.367 . S
C1159 C1167 1.433 . S
C1160 H1156 0.929 . S
C1160 C1162 1.378 . S
C1160 C1164 1.350 . S
C1161 C1164 1.463 . S
C1161 C1166 1.350 . S
C1161 N1169 1.427 . S
C1162 H1153 0.930 . S
C1162 C1160 1.378 . S
C1162 C1163 1.367 . S
C1163 C1162 1.367 . S
C1163 C1165 1.433 . S
C1164 C1160 1.350 . S
C1164 C1161 1.463 . S
C1164 N1168 1.427 . S
C1165 H1155 0.929 . S
C1165 C1163 1.433 . S
C1165 N1168 1.384 . S
C1166 H1157 0.929 . S
C1166 C1158 1.378 . S
C1166 C1161 1.350 . S
C1167 H1154 0.929 . S
C1167 C1159 1.433 . S
C1167 N1169 1.384 . S
N1168 C1164 1.427 . S
N1168 C1165 1.384 . S
N1169 C1161 1.427 . S
N1169 C1167 1.384 . S
H1170 C1176 0.930 . S
H1171 C1180 0.930 . S
H1172 C1185 0.929 . S
H1173 C1183 0.929 . S
H1174 C1178 0.929 1_655 S
H1175 C1184 0.929 . S
C1176 H1170 0.930 . S
C1176 C1177 1.367 . S
C1176 C1184 1.378 . S
C1177 C1176 1.367 . S
C1177 C1185 1.433 . S
C1178 H1174 0.929 1_455 S
C1178 C1180 1.378 . S
C1178 C1182 1.350 1_455 S
C1179 C1182 1.463 . S
C1179 C1184 1.350 . S
C1179 N1187 1.427 . S
C1180 H1171 0.930 . S
C1180 C1178 1.378 . S
C1180 C1181 1.367 . S
C1181 C1180 1.367 . S
C1181 C1183 1.433 . S
C1182 C1178 1.350 1_655 S
C1182 C1179 1.463 . S
C1182 N1186 1.427 1_655 S
C1183 H1173 0.929 . S
C1183 C1181 1.433 . S
C1183 N1186 1.384 . S
C1184 H1175 0.929 . S
C1184 C1176 1.378 . S
C1184 C1179 1.350 . S
C1185 H1172 0.929 . S
C1185 C1177 1.433 . S
C1185 N1187 1.384 . S
N1186 C1182 1.427 1_455 S
N1186 C1183 1.384 . S
N1187 C1179 1.427 . S
N1187 C1185 1.384 . S
H1188 C1194 0.930 . S
H1189 C1198 0.930 . S
H1190 C1203 0.929 . S
H1191 C1201 0.929 . S
H1192 C1196 0.929 . S
H1193 C1202 0.929 . S
C1194 H1188 0.930 . S
C1194 C1195 1.367 . S
C1194 C1202 1.378 . S
C1195 C1194 1.367 . S
C1195 C1203 1.433 . S
C1196 H1192 0.929 . S
C1196 C1198 1.378 . S
C1196 C1200 1.350 . S
C1197 C1200 1.463 . S
C1197 C1202 1.350 . S
C1197 N1205 1.427 . S
C1198 H1189 0.930 . S
C1198 C1196 1.378 . S
C1198 C1199 1.367 . S
C1199 C1198 1.367 . S
C1199 C1201 1.433 . S
C1200 C1196 1.350 . S
C1200 C1197 1.463 . S
C1200 N1204 1.427 . S
C1201 H1191 0.929 . S
C1201 C1199 1.433 . S
C1201 N1204 1.384 . S
C1202 H1193 0.929 . S
C1202 C1194 1.378 . S
C1202 C1197 1.350 . S
C1203 H1190 0.929 . S
C1203 C1195 1.433 . S
C1203 N1205 1.384 . S
N1204 C1200 1.427 . S
N1204 C1201 1.384 . S
N1205 C1197 1.427 . S
N1205 C1203 1.384 . S
H1206 C1212 0.930 . S
H1207 C1216 0.930 . S
H1208 C1221 0.929 . S
H1209 C1219 0.929 1_455 S
H1210 C1214 0.929 . S
H1211 C1220 0.929 . S
C1212 H1206 0.930 . S
C1212 C1213 1.367 . S
C1212 C1220 1.378 1_565 S
C1213 C1212 1.367 . S
C1213 C1221 1.433 . S
C1214 H1210 0.929 . S
C1214 C1216 1.378 . S
C1214 C1218 1.350 . S
C1215 C1218 1.463 . S
C1215 C1220 1.350 . S
C1215 N1223 1.427 . S
C1216 H1207 0.930 . S
C1216 C1214 1.378 . S
C1216 C1217 1.376 . S
C1217 C1216 1.376 . S
C1217 C1219 1.431 . S
C1218 C1214 1.350 . S
C1218 C1215 1.463 . S
C1218 N1222 1.427 . S
C1219 H1209 0.929 1_655 S
C1219 C1217 1.431 . S
C1219 N1222 1.384 . S
C1220 H1211 0.929 . S
C1220 C1212 1.378 1_545 S
C1220 C1215 1.350 . S
C1221 H1208 0.929 . S
C1221 C1213 1.433 . S
C1221 N1223 1.384 1_565 S
N1222 C1218 1.427 . S
N1222 C1219 1.384 . S
N1223 C1215 1.427 . S
N1223 C1221 1.384 1_545 S
H1224 C1230 0.930 . S
H1225 C1234 0.930 . S
H1226 C1239 0.929 . S
H1227 C1237 0.929 . S
H1228 C1232 0.929 . S
H1229 C1238 0.929 . S
C1230 H1224 0.930 . S
C1230 C1231 1.367 . S
C1230 C1238 1.378 . S
C1231 C1230 1.367 . S
C1231 C1239 1.433 . S
C1232 H1228 0.929 . S
C1232 C1234 1.378 . S
C1232 C1236 1.350 1_545 S
C1233 C1236 1.463 . S
C1233 C1238 1.350 . S
C1233 N1241 1.427 . S
C1234 H1225 0.930 . S
C1234 C1232 1.378 . S
C1234 C1235 1.367 . S
C1235 C1234 1.367 . S
C1235 C1237 1.433 . S
C1236 C1232 1.350 1_565 S
C1236 C1233 1.463 . S
C1236 N1240 1.427 1_565 S
C1237 H1227 0.929 . S
C1237 C1235 1.433 . S
C1237 N1240 1.384 . S
C1238 H1229 0.929 . S
C1238 C1230 1.378 . S
C1238 C1233 1.350 . S
C1239 H1226 0.929 . S
C1239 C1231 1.433 . S
C1239 N1241 1.384 . S
N1240 C1236 1.427 1_545 S
N1240 C1237 1.384 . S
N1241 C1233 1.427 . S
N1241 C1239 1.384 . S
H1242 C1248 0.930 . S
H1243 C1252 0.930 . S
H1244 C1257 0.929 . S
H1245 C1255 0.929 . S
H1246 C1250 0.929 . S
H1247 C1256 0.929 . S
C1248 H1242 0.930 . S
C1248 C1249 1.370 . S
C1248 C1256 1.378 1_545 S
C1249 C1248 1.370 . S
C1249 C1257 1.428 1_545 S
C1250 H1246 0.929 . S
C1250 C1252 1.378 1_455 S
C1250 C1254 1.350 . S
C1251 C1254 1.463 . S
C1251 C1256 1.350 . S
C1251 N1259 1.427 . S
C1252 H1243 0.930 . S
C1252 C1250 1.378 1_655 S
C1252 C1253 1.367 . S
C1253 C1252 1.367 . S
C1253 C1255 1.433 . S
C1254 C1250 1.350 . S
C1254 C1251 1.463 . S
C1254 N1258 1.427 . S
C1255 H1245 0.929 . S
C1255 C1253 1.433 . S
C1255 N1258 1.384 1_655 S
C1256 H1247 0.929 . S
C1256 C1248 1.378 1_565 S
C1256 C1251 1.350 . S
C1257 H1244 0.929 . S
C1257 C1249 1.428 1_565 S
C1257 N1259 1.384 . S
N1258 C1254 1.427 . S
N1258 C1255 1.384 1_455 S
N1259 C1251 1.427 . S
N1259 C1257 1.384 . S
H1260 C1266 0.930 . S
H1261 C1270 0.930 . S
H1262 C1275 0.929 . S
H1263 C1273 0.929 . S
H1264 C1268 0.929 . S
H1265 C1274 0.929 . S
C1266 H1260 0.930 . S
C1266 C1267 1.367 . S
C1266 C1274 1.378 . S
C1267 C1266 1.367 . S
C1267 C1275 1.433 . S
C1268 H1264 0.929 . S
C1268 C1270 1.378 . S
C1268 C1272 1.350 . S
C1269 C1272 1.463 . S
C1269 C1274 1.350 . S
C1269 N1277 1.427 . S
C1270 H1261 0.930 . S
C1270 C1268 1.378 . S
C1270 C1271 1.367 . S
C1271 C1270 1.367 . S
C1271 C1273 1.433 . S
C1272 C1268 1.350 . S
C1272 C1269 1.463 . S
C1272 N1276 1.427 . S
C1273 H1263 0.929 . S
C1273 C1271 1.433 . S
C1273 N1276 1.384 . S
C1274 H1265 0.929 . S
C1274 C1266 1.378 . S
C1274 C1269 1.350 . S
C1275 H1262 0.929 . S
C1275 C1267 1.433 . S
C1275 N1277 1.384 . S
N1276 C1272 1.427 . S
N1276 C1273 1.384 . S
N1277 C1269 1.427 . S
N1277 C1275 1.384 . S
H1278 C1284 0.930 . S
H1279 C1288 0.930 . S
H1280 C1293 0.929 . S
H1281 C1291 0.929 . S
H1282 C1286 0.929 . S
H1283 C1292 0.929 . S
C1284 H1278 0.930 . S
C1284 C1285 1.367 . S
C1284 C1292 1.378 . S
C1285 C1284 1.367 . S
C1285 C1293 1.433 . S
C1286 H1282 0.929 . S
C1286 C1288 1.378 . S
C1286 C1290 1.350 . S
C1287 C1290 1.463 . S
C1287 C1292 1.350 . S
C1287 N1295 1.427 . S
C1288 H1279 0.930 . S
C1288 C1286 1.378 . S
C1288 C1289 1.367 . S
C1289 C1288 1.367 . S
C1289 C1291 1.433 . S
C1290 C1286 1.350 . S
C1290 C1287 1.463 . S
C1290 N1294 1.427 . S
C1291 H1281 0.929 . S
C1291 C1289 1.433 . S
C1291 N1294 1.384 . S
C1292 H1283 0.929 . S
C1292 C1284 1.378 . S
C1292 C1287 1.350 . S
C1293 H1280 0.929 . S
C1293 C1285 1.433 . S
C1293 N1295 1.384 . S
N1294 C1290 1.427 . S
N1294 C1291 1.384 . S
N1295 C1287 1.427 . S
N1295 C1293 1.384 . S
H1296 C1302 0.930 . S
H1297 C1306 0.930 . S
H1298 C1311 0.929 . S
H1299 C1309 0.929 . S
H1300 C1304 0.929 . S
H1301 C1310 0.929 . S
C1302 H1296 0.930 . S
C1302 C1303 1.367 . S
C1302 C1310 1.378 . S
C1303 C1302 1.367 . S
C1303 C1311 1.433 . S
C1304 H1300 0.929 . S
C1304 C1306 1.378 . S
C1304 C1308 1.350 . S
C1305 C1308 1.463 . S
C1305 C1310 1.350 . S
C1305 N1313 1.427 . S
C1306 H1297 0.930 . S
C1306 C1304 1.378 . S
C1306 C1307 1.367 . S
C1307 C1306 1.367 . S
C1307 C1309 1.433 . S
C1308 C1304 1.350 . S
C1308 C1305 1.463 . S
C1308 N1312 1.427 . S
C1309 H1299 0.929 . S
C1309 C1307 1.433 . S
C1309 N1312 1.384 . S
C1310 H1301 0.929 . S
C1310 C1302 1.378 . S
C1310 C1305 1.350 . S
C1311 H1298 0.929 . S
C1311 C1303 1.433 . S
C1311 N1313 1.384 . S
N1312 C1308 1.427 . S
N1312 C1309 1.384 . S
N1313 C1305 1.427 . S
N1313 C1311 1.384 . S
H1314 C1320 0.930 . S
H1315 C1324 0.930 . S
H1316 C1329 0.929 . S
H1317 C1327 0.929 . S
H1318 C1322 0.929 . S
H1319 C1328 0.929 . S
C1320 H1314 0.930 . S
C1320 C1321 1.367 . S
C1320 C1328 1.378 . S
C1321 C1320 1.367 . S
C1321 C1329 1.433 . S
C1322 H1318 0.929 . S
C1322 C1324 1.378 . S
C1322 C1326 1.350 . S
C1323 C1326 1.463 . S
C1323 C1328 1.350 . S
C1323 N1331 1.427 . S
C1324 H1315 0.930 . S
C1324 C1322 1.378 . S
C1324 C1325 1.367 . S
C1325 C1324 1.367 . S
C1325 C1327 1.433 . S
C1326 C1322 1.350 . S
C1326 C1323 1.463 . S
C1326 N1330 1.427 . S
C1327 H1317 0.929 . S
C1327 C1325 1.433 . S
C1327 N1330 1.384 . S
C1328 H1319 0.929 . S
C1328 C1320 1.378 . S
C1328 C1323 1.350 . S
C1329 H1316 0.929 . S
C1329 C1321 1.433 . S
C1329 N1331 1.384 . S
N1330 C1326 1.427 . S
N1330 C1327 1.384 . S
N1331 C1323 1.427 . S
N1331 C1329 1.384 . S
C367 C6 1.124 . S
C371 C59 1.149 . S
C385 C19 1.135 . S
C389 C26 1.136 . S
C403 C39 1.134 . S
C407 C46 1.139 . S
C421 C66 1.125 . S
C425 C99 1.149 . S
C439 C119 1.142 . S
C443 C86 1.129 . S
C457 C106 1.128 . S
C461 C79 1.148 . S
C475 C179 1.140 . S
C479 C126 1.130 . S
C493 C139 1.134 . S
C497 C146 1.143 1_545 S
C511 C166 1.127 . S
C515 C159 1.149 . S
C529 C219 1.134 . S
C533 C186 1.138 . S
C547 C206 1.131 . S
C551 C239 1.147 . S
C565 C199 1.143 . S
C569 C226 1.128 . S
C583 C246 1.136 . S
C587 C299 1.143 . S
C601 C259 1.142 . S
C605 C266 1.129 . S
C619 C279 1.142 . S
C623 C286 1.137 . S
C637 C339 1.137 . S
C641 C306 1.141 . S
C655 C359 1.145 . S
C659 C326 1.133 . S
C673 C319 1.139 . S
C677 C346 1.128 1_455 S
C691 C9 1.731 . S
C695 C109 1.727 . S
C709 C69 1.725 . S
C713 C29 1.719 . S
C727 C89 1.728 . S
C731 C49 1.730 . S
C745 C129 1.718 . S
C749 C229 1.719 . S
C763 C149 1.728 . S
C767 C189 1.731 . S
C781 C209 1.728 . S
C785 C169 1.721 . S
C799 C249 1.731 . S
C803 C349 1.726 . S
C817 C309 1.721 . S
C821 C269 1.728 . S
C835 C329 1.727 . S
C839 C289 1.731 . S
C853 C201 1.887 . S
C857 C1 1.891 . S
C871 C21 1.895 . S
C875 C221 1.892 . S
C889 C181 1.887 . S
C893 C41 1.888 . S
C907 C61 1.892 . S
C911 C281 1.894 . S
C925 C81 1.888 . S
C929 C241 1.887 . S
C943 C261 1.894 . S
C947 C101 1.889 . S
C961 C321 1.887 . S
C965 C121 1.889 . S
C979 C141 1.894 . S
C983 C341 1.894 . S
C997 C161 1.887 . S
C1001 C301 1.889 . S
C1015 C48 1.723 . S
C1019 C16 1.803 . S
C1033 C8 1.726 . S
C1037 C36 1.803 . S
C1051 C56 1.798 . S
C1055 C28 1.735 . S
C1069 C88 1.733 . S
C1073 C76 1.798 . S
C1087 C108 1.732 . S
C1091 C96 1.800 . S
C1105 C116 1.802 . S
C1109 C68 1.728 . S
C1123 C168 1.722 . S
C1127 C136 1.804 . S
C1141 C156 1.800 . S
C1145 C128 1.732 . S
C1159 C148 1.734 . S
C1163 C176 1.799 . S
C1177 C196 1.802 . S
C1181 C208 1.729 . S
C1195 C216 1.803 1_545 S
C1199 C228 1.723 . S
C1213 C188 1.733 . S
C1217 C236 1.794 1_655 S
C1231 C256 1.800 . S
C1235 C288 1.728 . S
C1249 C276 1.806 . S
C1253 C248 1.721 . S
C1267 C268 1.725 . S
C1271 C296 1.802 1_455 S
C1285 C316 1.801 . S
C1289 C328 1.726 . S
C1303 C336 1.804 . S
C1307 C348 1.723 . S
C1321 C308 1.735 . S
C1325 C356 1.798 . S
