# Generated by pormake.
# Topology snl, (6)-cn, num edge types: 1
# Building blocks:
#     Node 0, Type 0, BuildingBlock: CUWYAW_clean_sbu_0, # of connection points: 6
#     Node 1, Type 0, BuildingBlock: CUWYAW_clean_sbu_0, # of connection points: 6
#     Node 2, Type 0, BuildingBlock: CUWYAW_clean_sbu_0, # of connection points: 6
#     Node 3, Type 0, BuildingBlock: CUWYAW_clean_sbu_0, # of connection points: 6
#     Node 4, Type 0, BuildingBlock: CUWYAW_clean_sbu_0, # of connection points: 6
#     Node 5, Type 0, BuildingBlock: CUWYAW_clean_sbu_0, # of connection points: 6
#     Node 6, Type 0, BuildingBlock: CUWYAW_clean_sbu_0, # of connection points: 6
#     Node 7, Type 0, BuildingBlock: CUWYAW_clean_sbu_0, # of connection points: 6
#     Node 8, Type 0, BuildingBlock: CUWYAW_clean_sbu_0, # of connection points: 6
#     Node 9, Type 0, BuildingBlock: CUWYAW_clean_sbu_0, # of connection points: 6
#     Node 10, Type 0, BuildingBlock: CUWYAW_clean_sbu_0, # of connection points: 6
#     Node 11, Type 0, BuildingBlock: CUWYAW_clean_sbu_0, # of connection points: 6
#     Node 12, Type 0, BuildingBlock: CUWYAW_clean_sbu_0, # of connection points: 6
#     Node 13, Type 0, BuildingBlock: CUWYAW_clean_sbu_0, # of connection points: 6
#     Node 14, Type 0, BuildingBlock: CUWYAW_clean_sbu_0, # of connection points: 6
#     Node 15, Type 0, BuildingBlock: CUWYAW_clean_sbu_0, # of connection points: 6
#     Edge 16, Type (0, 0), BuildingBlock: UVAHIK_clean_linker_0, # of connection points: 2
#     Edge 17, Type (0, 0), BuildingBlock: UVAHIK_clean_linker_0, # of connection points: 2
#     Edge 18, Type (0, 0), BuildingBlock: UVAHIK_clean_linker_0, # of connection points: 2
#     Edge 19, Type (0, 0), BuildingBlock: UVAHIK_clean_linker_0, # of connection points: 2
#     Edge 20, Type (0, 0), BuildingBlock: UVAHIK_clean_linker_0, # of connection points: 2
#     Edge 21, Type (0, 0), BuildingBlock: UVAHIK_clean_linker_0, # of connection points: 2
#     Edge 22, Type (0, 0), BuildingBlock: UVAHIK_clean_linker_0, # of connection points: 2
#     Edge 23, Type (0, 0), BuildingBlock: UVAHIK_clean_linker_0, # of connection points: 2
#     Edge 24, Type (0, 0), BuildingBlock: UVAHIK_clean_linker_0, # of connection points: 2
#     Edge 25, Type (0, 0), BuildingBlock: UVAHIK_clean_linker_0, # of connection points: 2
#     Edge 26, Type (0, 0), BuildingBlock: UVAHIK_clean_linker_0, # of connection points: 2
#     Edge 27, Type (0, 0), BuildingBlock: UVAHIK_clean_linker_0, # of connection points: 2
#     Edge 28, Type (0, 0), BuildingBlock: UVAHIK_clean_linker_0, # of connection points: 2
#     Edge 29, Type (0, 0), BuildingBlock: UVAHIK_clean_linker_0, # of connection points: 2
#     Edge 30, Type (0, 0), BuildingBlock: UVAHIK_clean_linker_0, # of connection points: 2
#     Edge 31, Type (0, 0), BuildingBlock: UVAHIK_clean_linker_0, # of connection points: 2
#     Edge 32, Type (0, 0), BuildingBlock: UVAHIK_clean_linker_0, # of connection points: 2
#     Edge 33, Type (0, 0), BuildingBlock: UVAHIK_clean_linker_0, # of connection points: 2
#     Edge 34, Type (0, 0), BuildingBlock: UVAHIK_clean_linker_0, # of connection points: 2
#     Edge 35, Type (0, 0), BuildingBlock: UVAHIK_clean_linker_0, # of connection points: 2
#     Edge 36, Type (0, 0), BuildingBlock: UVAHIK_clean_linker_0, # of connection points: 2
#     Edge 37, Type (0, 0), BuildingBlock: UVAHIK_clean_linker_0, # of connection points: 2
#     Edge 38, Type (0, 0), BuildingBlock: UVAHIK_clean_linker_0, # of connection points: 2
#     Edge 39, Type (0, 0), BuildingBlock: UVAHIK_clean_linker_0, # of connection points: 2
#     Edge 40, Type (0, 0), BuildingBlock: UVAHIK_clean_linker_0, # of connection points: 2
#     Edge 41, Type (0, 0), BuildingBlock: UVAHIK_clean_linker_0, # of connection points: 2
#     Edge 42, Type (0, 0), BuildingBlock: UVAHIK_clean_linker_0, # of connection points: 2
#     Edge 43, Type (0, 0), BuildingBlock: UVAHIK_clean_linker_0, # of connection points: 2
#     Edge 44, Type (0, 0), BuildingBlock: UVAHIK_clean_linker_0, # of connection points: 2
#     Edge 45, Type (0, 0), BuildingBlock: UVAHIK_clean_linker_0, # of connection points: 2
#     Edge 46, Type (0, 0), BuildingBlock: UVAHIK_clean_linker_0, # of connection points: 2
#     Edge 47, Type (0, 0), BuildingBlock: UVAHIK_clean_linker_0, # of connection points: 2
#     Edge 48, Type (0, 0), BuildingBlock: UVAHIK_clean_linker_0, # of connection points: 2
#     Edge 49, Type (0, 0), BuildingBlock: UVAHIK_clean_linker_0, # of connection points: 2
#     Edge 50, Type (0, 0), BuildingBlock: UVAHIK_clean_linker_0, # of connection points: 2
#     Edge 51, Type (0, 0), BuildingBlock: UVAHIK_clean_linker_0, # of connection points: 2
#     Edge 52, Type (0, 0), BuildingBlock: UVAHIK_clean_linker_0, # of connection points: 2
#     Edge 53, Type (0, 0), BuildingBlock: UVAHIK_clean_linker_0, # of connection points: 2
#     Edge 54, Type (0, 0), BuildingBlock: UVAHIK_clean_linker_0, # of connection points: 2
#     Edge 55, Type (0, 0), BuildingBlock: UVAHIK_clean_linker_0, # of connection points: 2
#     Edge 56, Type (0, 0), BuildingBlock: UVAHIK_clean_linker_0, # of connection points: 2
#     Edge 57, Type (0, 0), BuildingBlock: UVAHIK_clean_linker_0, # of connection points: 2
#     Edge 58, Type (0, 0), BuildingBlock: UVAHIK_clean_linker_0, # of connection points: 2
#     Edge 59, Type (0, 0), BuildingBlock: UVAHIK_clean_linker_0, # of connection points: 2
#     Edge 60, Type (0, 0), BuildingBlock: UVAHIK_clean_linker_0, # of connection points: 2
#     Edge 61, Type (0, 0), BuildingBlock: UVAHIK_clean_linker_0, # of connection points: 2
#     Edge 62, Type (0, 0), BuildingBlock: UVAHIK_clean_linker_0, # of connection points: 2
#     Edge 63, Type (0, 0), BuildingBlock: UVAHIK_clean_linker_0, # of connection points: 2
# Relax obj value: 0.183
# Max RMSD: 0.237
# Mean RMSD: 0.214
data_MOF--net-snl--node1-CUWYAW_clean_sbu_0--edge1-UVAHIK_clean_linker_0
_symmetry_space_group_name_H-M    P1
_symmetry_Int_Tables_number       1
_symmetry_cell_setting            triclinic
loop_
_symmetry_equiv_pos_as_xyz
'x, y, z'
_cell_length_a     74.447704
_cell_length_b     73.933072
_cell_length_c     30.478293
_cell_angle_alpha  87.260518
_cell_angle_beta   92.723407
_cell_angle_gamma 90.186338
loop_
_atom_site_label
_atom_site_type_symbol
_atom_site_fract_x
_atom_site_fract_y
_atom_site_fract_z
_atom_type_partial_charge
C0 C 0.13057 0.63942 0.02084 0.0
Eu1 Eu 0.1391 0.62998 0.10304 0.0
C2 C 0.13322 0.6346 0.97484 0.0
C3 C 0.15033 0.63478 0.95707 0.0
C4 C 0.15219 0.63189 0.91234 0.0
C5 C 0.13701 0.62873 0.88433 0.0
C6 C 0.11998 0.62815 0.90253 0.0
C7 C 0.11813 0.63109 0.94714 0.0
C8 C 0.17316 0.63013 0.1401 0.0
C9 C 0.14604 0.58642 0.11432 0.0
C10 C 0.15256 0.60368 0.27584 0.0
Eu11 Eu 0.14321 0.61274 0.1938 0.0
C12 C 0.1504 0.60873 0.32189 0.0
C13 C 0.13347 0.6088 0.34049 0.0
C14 C 0.13202 0.61167 0.38535 0.0
C15 C 0.14745 0.61454 0.41271 0.0
C16 C 0.16432 0.61494 0.39368 0.0
C17 C 0.16576 0.61202 0.3489 0.0
C18 C 0.10885 0.61218 0.15892 0.0
C19 C 0.13527 0.65631 0.18005 0.0
O20 O 0.12079 0.6285 0.04497 0.0
O21 O 0.14422 0.64617 0.04325 0.0
O22 O 0.16616 0.64362 0.11659 0.0
O23 O 0.16227 0.61711 0.14158 0.0
O24 O 0.13945 0.60013 0.0893 0.0
O25 O 0.15109 0.58848 0.15602 0.0
O26 O 0.16221 0.61431 0.25072 0.0
O27 O 0.13859 0.59704 0.25451 0.0
O28 O 0.11633 0.59915 0.18308 0.0
O29 O 0.11956 0.62541 0.15566 0.0
O30 O 0.14305 0.64328 0.2056 0.0
O31 O 0.12926 0.65317 0.13978 0.0
H32 H 0.16226 0.63745 0.97748 0.0
H33 H 0.16554 0.6322 0.89967 0.0
H34 H 0.10796 0.626 0.882 0.0
H35 H 0.10477 0.63106 0.95982 0.0
H36 H 0.12134 0.60631 0.32065 0.0
H37 H 0.11878 0.61153 0.39865 0.0
H38 H 0.17652 0.6169 0.4137 0.0
H39 H 0.179 0.61185 0.33557 0.0
C40 C 0.63193 0.86313 0.49288 0.0
Eu41 Eu 0.64089 0.87212 0.41288 0.0
C42 C 0.63425 0.86834 0.53925 0.0
C43 C 0.65119 0.86821 0.56178 0.0
C44 C 0.65271 0.87148 0.60677 0.0
C45 C 0.63734 0.87489 0.63032 0.0
C46 C 0.62049 0.87547 0.60731 0.0
C47 C 0.61897 0.87219 0.56244 0.0
C48 C 0.67422 0.87098 0.37935 0.0
C49 C 0.6478 0.91578 0.40059 0.0
C50 C 0.65956 0.89875 0.2427 0.0
Eu51 Eu 0.64525 0.8896 0.31699 0.0
C52 C 0.65685 0.89642 0.1949 0.0
C53 C 0.63969 0.89716 0.1736 0.0
C54 C 0.63768 0.89546 0.12797 0.0
C55 C 0.65278 0.89294 0.10272 0.0
C56 C 0.66989 0.89194 0.12448 0.0
C57 C 0.67188 0.89369 0.16998 0.0
C58 C 0.6094 0.88651 0.33269 0.0
C59 C 0.63534 0.84676 0.33295 0.0
O60 O 0.62218 0.87377 0.46571 0.0
O61 O 0.64579 0.85634 0.47449 0.0
O62 O 0.66764 0.85798 0.40394 0.0
O63 O 0.66332 0.88401 0.37538 0.0
O64 O 0.64439 0.90159 0.42701 0.0
O65 O 0.64956 0.91454 0.35763 0.0
O66 O 0.66439 0.88432 0.26705 0.0
O67 O 0.64801 0.90891 0.26146 0.0
O68 O 0.61561 0.89333 0.2964 0.0
O69 O 0.62259 0.8818 0.35814 0.0
O70 O 0.64436 0.85889 0.30906 0.0
O71 O 0.62928 0.85043 0.37153 0.0
H72 H 0.66324 0.86521 0.54496 0.0
H73 H 0.66589 0.87075 0.62337 0.0
H74 H 0.60839 0.87837 0.62405 0.0
H75 H 0.60575 0.87231 0.54597 0.0
H76 H 0.62786 0.89921 0.1921 0.0
H77 H 0.62432 0.89646 0.1124 0.0
H78 H 0.68179 0.88968 0.10642 0.0
H79 H 0.68523 0.89297 0.18575 0.0
C80 C 0.38351 0.35896 0.56438 0.0
Eu81 Eu 0.37776 0.36866 0.64384 0.0
C82 C 0.38058 0.36414 0.51703 0.0
C83 C 0.3635 0.36318 0.49545 0.0
C84 C 0.3615 0.36628 0.44975 0.0
C85 C 0.37651 0.3704 0.42467 0.0
C86 C 0.39349 0.37176 0.44656 0.0
C87 C 0.39549 0.36862 0.49211 0.0
C88 C 0.34501 0.36841 0.68086 0.0
C89 C 0.37202 0.41219 0.64577 0.0
C90 C 0.37075 0.39471 0.80975 0.0
Eu91 Eu 0.37729 0.38531 0.73042 0.0
C92 C 0.37201 0.38883 0.85698 0.0
C93 C 0.38853 0.38888 0.88137 0.0
C94 C 0.38915 0.38566 0.92705 0.0
C95 C 0.37328 0.38234 0.94942 0.0
C96 C 0.35685 0.3817 0.92479 0.0
C97 C 0.35622 0.38498 0.87915 0.0
C98 C 0.41024 0.38635 0.69494 0.0
C99 C 0.38484 0.342 0.72588 0.0
O100 O 0.39472 0.36883 0.58741 0.0
O101 O 0.36972 0.35344 0.5865 0.0
O102 O 0.35132 0.35488 0.66084 0.0
O103 O 0.35593 0.38144 0.67946 0.0
O104 O 0.3771 0.39845 0.62325 0.0
O105 O 0.36887 0.4101 0.68803 0.0
O106 O 0.35895 0.38666 0.78413 0.0
O107 O 0.38565 0.39858 0.7903 0.0
O108 O 0.40348 0.39935 0.71592 0.0
O109 O 0.39957 0.373 0.69482 0.0
O110 O 0.37771 0.3547 0.74886 0.0
O111 O 0.38929 0.34548 0.68514 0.0
H112 H 0.35174 0.35968 0.51364 0.0
H113 H 0.3482 0.36532 0.43402 0.0
H114 H 0.40538 0.37463 0.42832 0.0
H115 H 0.40884 0.36921 0.50775 0.0
H116 H 0.40096 0.3919 0.86543 0.0
H117 H 0.40206 0.38601 0.94494 0.0
H118 H 0.34434 0.3794 0.94097 0.0
H119 H 0.34327 0.38511 0.86134 0.0
C120 C 0.88699 0.1399 0.99366 0.0
Eu121 Eu 0.88021 0.13007 0.91329 0.0
C122 C 0.88407 0.13488 0.04055 0.0
C123 C 0.86888 0.14109 0.06108 0.0
C124 C 0.86726 0.13819 0.10646 0.0
C125 C 0.88086 0.12913 0.1325 0.0
C126 C 0.89581 0.12251 0.11174 0.0
C127 C 0.89742 0.12539 0.06639 0.0
C128 C 0.84704 0.13 0.87155 0.0
C129 C 0.87437 0.08638 0.91086 0.0
C130 C 0.87145 0.10329 0.74606 0.0
Eu131 Eu 0.87859 0.11293 0.82653 0.0
C132 C 0.87306 0.10898 0.699 0.0
C133 C 0.888 0.10364 0.67619 0.0
C134 C 0.88862 0.1071 0.63076 0.0
C135 C 0.87427 0.11588 0.60684 0.0
C136 C 0.85949 0.12156 0.62982 0.0
C137 C 0.85887 0.1181 0.67531 0.0
C138 C 0.91199 0.11297 0.86722 0.0
C139 C 0.88561 0.15646 0.83107 0.0
O140 O 0.89774 0.1297 0.97272 0.0
O141 O 0.87323 0.14581 0.9688 0.0
O142 O 0.85347 0.14352 0.89287 0.0
O143 O 0.858 0.11701 0.87449 0.0
O144 O 0.87991 0.1002 0.93392 0.0
O145 O 0.87046 0.08841 0.86816 0.0
O146 O 0.86007 0.11194 0.76888 0.0
O147 O 0.88618 0.09884 0.76903 0.0
O148 O 0.90536 0.09957 0.84584 0.0
O149 O 0.90102 0.12598 0.86492 0.0
O150 O 0.87837 0.14346 0.80748 0.0
O151 O 0.89078 0.15328 0.8726 0.0
H152 H 0.85846 0.14868 0.04234 0.0
H153 H 0.85567 0.14366 0.12138 0.0
H154 H 0.90642 0.11526 0.13066 0.0
H155 H 0.90939 0.12058 0.05177 0.0
H156 H 0.89902 0.0963 0.69321 0.0
H157 H 0.90009 0.10229 0.61415 0.0
H158 H 0.84829 0.12854 0.61257 0.0
H159 H 0.84706 0.12221 0.69171 0.0
C160 C 0.13241 0.36038 1.00021 0.0
Eu161 Eu 0.13905 0.3703 0.91907 0.0
C162 C 0.13477 0.36555 0.04652 0.0
C163 C 0.15187 0.36713 0.06767 0.0
C164 C 0.15357 0.37029 0.11269 0.0
C165 C 0.13822 0.37194 0.13752 0.0
C166 C 0.12116 0.37076 0.11592 0.0
C167 C 0.11948 0.36757 0.07105 0.0
C168 C 0.1722 0.37027 0.88421 0.0
C169 C 0.14493 0.41396 0.90865 0.0
C170 C 0.14785 0.39703 0.748 0.0
Eu171 Eu 0.14051 0.38747 0.82901 0.0
C172 C 0.14647 0.39143 0.70188 0.0
C173 C 0.12974 0.38948 0.67914 0.0
C174 C 0.12884 0.38634 0.6341 0.0
C175 C 0.14463 0.38508 0.61076 0.0
C176 C 0.16134 0.3865 0.63394 0.0
C177 C 0.16223 0.38968 0.67889 0.0
C178 C 0.10704 0.3877 0.86162 0.0
C179 C 0.13352 0.3438 0.84219 0.0
O180 O 0.12133 0.37009 0.97421 0.0
O181 O 0.14655 0.35514 0.98032 0.0
O182 O 0.16568 0.35671 0.90689 0.0
O183 O 0.1613 0.38332 0.88214 0.0
O184 O 0.13948 0.40008 0.93346 0.0
O185 O 0.14861 0.41206 0.86708 0.0
O186 O 0.15915 0.38828 0.77547 0.0
O187 O 0.13308 0.40148 0.76632 0.0
O188 O 0.11387 0.40094 0.8385 0.0
O189 O 0.11793 0.37457 0.86537 0.0
O190 O 0.14051 0.35692 0.81714 0.0
O191 O 0.12856 0.34687 0.882 0.0
H192 H 0.16394 0.36563 0.0497 0.0
H193 H 0.16691 0.37134 0.12811 0.0
H194 H 0.10905 0.37171 0.13399 0.0
H195 H 0.10614 0.36621 0.05569 0.0
H196 H 0.11732 0.39078 0.69583 0.0
H197 H 0.11575 0.38507 0.61746 0.0
H198 H 0.17377 0.38582 0.61702 0.0
H199 H 0.1753 0.39133 0.69546 0.0
C200 C 0.88492 0.85704 0.0584 0.0
Eu201 Eu 0.87938 0.86712 0.13762 0.0
C202 C 0.88326 0.86239 1.01098 0.0
C203 C 0.86645 0.86453 0.98833 0.0
C204 C 0.86537 0.86746 0.94251 0.0
C205 C 0.88106 0.86823 0.91846 0.0
C206 C 0.89785 0.86669 0.94148 0.0
C207 C 0.89892 0.86375 0.98714 0.0
C208 C 0.84691 0.867 0.17578 0.0
C209 C 0.87445 0.91077 0.13999 0.0
C210 C 0.87338 0.8935 0.3037 0.0
Eu211 Eu 0.8795 0.88373 0.2245 0.0
C212 C 0.87371 0.8875 0.35078 0.0
C213 C 0.88999 0.88458 0.37538 0.0
C214 C 0.89006 0.8813 0.42101 0.0
C215 C 0.87386 0.88095 0.44306 0.0
C216 C 0.85757 0.88326 0.41812 0.0
C217 C 0.85751 0.88655 0.37257 0.0
C218 C 0.91218 0.88446 0.18786 0.0
C219 C 0.88614 0.84022 0.21972 0.0
O220 O 0.89689 0.86556 0.08253 0.0
O221 O 0.87028 0.85319 0.07909 0.0
O222 O 0.85304 0.85343 0.15554 0.0
O223 O 0.85788 0.87999 0.17408 0.0
O224 O 0.87915 0.89697 0.11711 0.0
O225 O 0.87148 0.90865 0.18234 0.0
O226 O 0.86103 0.88663 0.27738 0.0
O227 O 0.88873 0.89593 0.28516 0.0
O228 O 0.9057 0.89759 0.20894 0.0
O229 O 0.90138 0.87122 0.18815 0.0
O230 O 0.87961 0.85315 0.24307 0.0
O231 O 0.89018 0.8435 0.17859 0.0
H232 H 0.85412 0.86344 1.00575 0.0
H233 H 0.85222 0.86846 0.92579 0.0
H234 H 0.91021 0.86753 0.92413 0.0
H235 H 0.91204 0.86207 1.00375 0.0
H236 H 0.90274 0.88536 0.35967 0.0
H237 H 0.90286 0.87977 0.43918 0.0
H238 H 0.84484 0.88277 0.4339 0.0
H239 H 0.84478 0.88887 0.35449 0.0
C240 C 0.38796 0.63968 0.49739 0.0
Eu241 Eu 0.37986 0.63034 0.41726 0.0
C242 C 0.38529 0.6347 0.5443 0.0
C243 C 0.36824 0.63524 0.56218 0.0
C244 C 0.36642 0.63224 0.6075 0.0
C245 C 0.38159 0.62863 0.63591 0.0
C246 C 0.39855 0.62766 0.61769 0.0
C247 C 0.40037 0.63071 0.57248 0.0
C248 C 0.3463 0.6305 0.37758 0.0
C249 C 0.37322 0.58684 0.41355 0.0
C250 C 0.36804 0.60466 0.24886 0.0
Eu251 Eu 0.37694 0.61357 0.32898 0.0
C252 C 0.37028 0.60984 0.20187 0.0
C253 C 0.3872 0.60962 0.18325 0.0
C254 C 0.38867 0.61261 0.13783 0.0
C255 C 0.37327 0.6159 0.11001 0.0
C256 C 0.35643 0.61663 0.12894 0.0
C257 C 0.35496 0.61358 0.1743 0.0
C258 C 0.41082 0.61331 0.367 0.0
C259 C 0.38479 0.65696 0.33476 0.0
O260 O 0.39796 0.62894 0.47588 0.0
O261 O 0.37425 0.64626 0.47336 0.0
O262 O 0.35283 0.64381 0.39952 0.0
O263 O 0.35731 0.61759 0.37921 0.0
O264 O 0.37937 0.60038 0.43672 0.0
O265 O 0.36872 0.58918 0.37115 0.0
O266 O 0.35821 0.61517 0.27136 0.0
O267 O 0.38199 0.59808 0.27188 0.0
O268 O 0.4042 0.60049 0.34357 0.0
O269 O 0.39974 0.62617 0.36685 0.0
O270 O 0.37731 0.64415 0.31097 0.0
O271 O 0.39017 0.65359 0.37613 0.0
H272 H 0.35634 0.63829 0.54136 0.0
H273 H 0.35313 0.63285 0.62034 0.0
H274 H 0.41055 0.62515 0.63855 0.0
H275 H 0.41368 0.63041 0.55964 0.0
H276 H 0.39928 0.60677 0.20357 0.0
H277 H 0.40187 0.6122 0.12444 0.0
H278 H 0.34427 0.61892 0.10853 0.0
H279 H 0.34174 0.61364 0.18772 0.0
C280 C 0.62999 0.13963 0.52089 0.0
Eu281 Eu 0.63833 0.12998 0.60309 0.0
C282 C 0.63245 0.13469 0.47481 0.0
C283 C 0.64869 0.13815 0.45409 0.0
C284 C 0.65011 0.1352 0.40926 0.0
C285 C 0.63531 0.12881 0.38393 0.0
C286 C 0.61922 0.12495 0.40502 0.0
C287 C 0.61781 0.12791 0.44978 0.0
C288 C 0.67236 0.13003 0.64052 0.0
C289 C 0.64525 0.08647 0.61337 0.0
C290 C 0.65138 0.10311 0.77541 0.0
Eu291 Eu 0.64226 0.11245 0.69339 0.0
C292 C 0.64911 0.10803 0.82158 0.0
C293 C 0.63281 0.10494 0.8423 0.0
C294 C 0.63151 0.10778 0.88719 0.0
C295 C 0.64648 0.11373 0.91262 0.0
C296 C 0.66264 0.11723 0.89153 0.0
C297 C 0.66394 0.11436 0.84668 0.0
C298 C 0.60795 0.11197 0.6581 0.0
C299 C 0.63426 0.15603 0.68053 0.0
O300 O 0.61994 0.12903 0.54514 0.0
O301 O 0.64381 0.14606 0.54328 0.0
O302 O 0.66536 0.14361 0.61734 0.0
O303 O 0.66147 0.11699 0.64157 0.0
O304 O 0.63848 0.10021 0.58879 0.0
O305 O 0.65042 0.08845 0.65504 0.0
O306 O 0.66111 0.1138 0.75058 0.0
O307 O 0.6375 0.09649 0.7537 0.0
O308 O 0.61542 0.09884 0.68194 0.0
O309 O 0.61866 0.12522 0.65532 0.0
O310 O 0.642 0.14293 0.70592 0.0
O311 O 0.62841 0.15306 0.64005 0.0
H312 H 0.66021 0.14356 0.47217 0.0
H313 H 0.66265 0.13852 0.39415 0.0
H314 H 0.60762 0.11976 0.38686 0.0
H315 H 0.60507 0.12524 0.46463 0.0
H316 H 0.62114 0.09987 0.82416 0.0
H317 H 0.61891 0.10472 0.90225 0.0
H318 H 0.67439 0.12209 0.90976 0.0
H319 H 0.67673 0.11674 0.8318 0.0
C320 C 0.87194 0.40117 0.7303 0.0
Eu321 Eu 0.87964 0.39108 0.81266 0.0
C322 C 0.87399 0.39604 0.68413 0.0
C323 C 0.88895 0.40198 0.66079 0.0
C324 C 0.88994 0.3989 0.61596 0.0
C325 C 0.87596 0.38992 0.59308 0.0
C326 C 0.86116 0.38369 0.61666 0.0
C327 C 0.86016 0.38676 0.66152 0.0
C328 C 0.91353 0.39046 0.85091 0.0
C329 C 0.88657 0.34734 0.8241 0.0
C330 C 0.88839 0.36239 0.98446 0.0
Eu331 Eu 0.88168 0.37284 0.90199 0.0
C332 C 0.88586 0.36749 0.03045 0.0
C333 C 0.87102 0.36099 0.05346 0.0
C334 C 0.86967 0.3641 0.09821 0.0
C335 C 0.88319 0.37366 0.12128 0.0
C336 C 0.89783 0.38048 0.09799 0.0
C337 C 0.89917 0.3774 0.05325 0.0
C338 C 0.84823 0.37347 0.86096 0.0
C339 C 0.87611 0.41652 0.89347 0.0
O340 O 0.86112 0.39151 0.75469 0.0
O341 O 0.88627 0.40643 0.75264 0.0
O342 O 0.90668 0.40397 0.82722 0.0
O343 O 0.90242 0.3775 0.85233 0.0
O344 O 0.87944 0.36073 0.79862 0.0
O345 O 0.89179 0.34987 0.86521 0.0
O346 O 0.8995 0.37209 0.96102 0.0
O347 O 0.87429 0.35716 0.96106 0.0
O348 O 0.85485 0.35961 0.88383 0.0
O349 O 0.85921 0.38646 0.86191 0.0
O350 O 0.88191 0.40235 0.91796 0.0
O351 O 0.87188 0.41521 0.85108 0.0
H352 H 0.89971 0.40945 0.67685 0.0
H353 H 0.90143 0.40414 0.59891 0.0
H354 H 0.85023 0.37652 0.60038 0.0
H355 H 0.84834 0.38219 0.67826 0.0
H356 H 0.86066 0.35306 0.03722 0.0
H357 H 0.85832 0.35844 0.11509 0.0
H358 H 0.90838 0.3881 0.11444 0.0
H359 H 0.91088 0.38246 0.03678 0.0
C360 C 0.37479 0.09801 0.77986 0.0
Eu361 Eu 0.3817 0.10887 0.69927 0.0
C362 C 0.37605 0.10344 0.82637 0.0
C363 C 0.39206 0.10098 0.85242 0.0
C364 C 0.39261 0.10425 0.8974 0.0
C365 C 0.37714 0.10996 0.91772 0.0
C366 C 0.36122 0.11274 0.89143 0.0
C367 C 0.36067 0.10946 0.84644 0.0
C368 C 0.41481 0.10984 0.66536 0.0
C369 C 0.38786 0.15284 0.69118 0.0
C370 C 0.38903 0.13934 0.52915 0.0
Eu371 Eu 0.38279 0.12829 0.60993 0.0
C372 C 0.38688 0.1342 0.48251 0.0
C373 C 0.37062 0.13719 0.45777 0.0
C374 C 0.36937 0.13411 0.41265 0.0
C375 C 0.38438 0.12809 0.39098 0.0
C376 C 0.4005 0.12473 0.41602 0.0
C377 C 0.40175 0.1278 0.46108 0.0
C378 C 0.34996 0.12668 0.64583 0.0
C379 C 0.37748 0.08435 0.61587 0.0
O380 O 0.36307 0.10633 0.75267 0.0
O381 O 0.38972 0.09439 0.76111 0.0
O382 O 0.40841 0.09613 0.68773 0.0
O383 O 0.40378 0.12285 0.66329 0.0
O384 O 0.38136 0.13899 0.7147 0.0
O385 O 0.39254 0.15107 0.65045 0.0
O386 O 0.40065 0.13022 0.55505 0.0
O387 O 0.37465 0.1437 0.54935 0.0
O388 O 0.35585 0.14083 0.62406 0.0
O389 O 0.36122 0.11403 0.64599 0.0
O390 O 0.38271 0.09884 0.59282 0.0
O391 O 0.3739 0.08511 0.6579 0.0
H392 H 0.4041 0.09608 0.83836 0.0
H393 H 0.40504 0.1017 0.91653 0.0
H394 H 0.3491 0.11736 0.90566 0.0
H395 H 0.34806 0.1113 0.82753 0.0
H396 H 0.35894 0.14235 0.47296 0.0
H397 H 0.35679 0.13705 0.39447 0.0
H398 H 0.41227 0.11984 0.40074 0.0
H399 H 0.41452 0.12552 0.47897 0.0
C400 C 0.65859 0.62129 0.48595 0.0
Eu401 Eu 0.64472 0.62357 0.40553 0.0
C402 C 0.65347 0.62128 0.53236 0.0
C403 C 0.65038 0.63759 0.55267 0.0
C404 C 0.64729 0.63757 0.59757 0.0
C405 C 0.6473 0.62126 0.62328 0.0
C406 C 0.65001 0.60492 0.60275 0.0
C407 C 0.65313 0.60494 0.55785 0.0
C408 C 0.63555 0.65487 0.3611 0.0
C409 C 0.60265 0.62287 0.38311 0.0
C410 C 0.61955 0.61947 0.23123 0.0
Eu411 Eu 0.63349 0.61874 0.31165 0.0
C412 C 0.62473 0.61954 0.18484 0.0
C413 C 0.62786 0.60322 0.16458 0.0
C414 C 0.63106 0.60323 0.11974 0.0
C415 C 0.63112 0.61953 0.09401 0.0
C416 C 0.62835 0.63588 0.11447 0.0
C417 C 0.62511 0.63587 0.15931 0.0
C418 C 0.64084 0.58759 0.36093 0.0
C419 C 0.67507 0.62201 0.33041 0.0
O420 O 0.65411 0.60717 0.46355 0.0
O421 O 0.657 0.63648 0.4623 0.0
O422 O 0.63147 0.65078 0.40127 0.0
O423 O 0.64486 0.64248 0.34599 0.0
O424 O 0.61494 0.61934 0.41517 0.0
O425 O 0.60721 0.62534 0.34189 0.0
O426 O 0.62294 0.63402 0.25299 0.0
O427 O 0.62226 0.60461 0.25554 0.0
O428 O 0.64587 0.59041 0.32098 0.0
O429 O 0.63212 0.60096 0.37215 0.0
O430 O 0.66218 0.62506 0.30001 0.0
O431 O 0.67136 0.61862 0.37219 0.0
H432 H 0.65067 0.65045 0.53413 0.0
H433 H 0.64502 0.65038 0.61223 0.0
H434 H 0.65033 0.59214 0.62166 0.0
H435 H 0.65572 0.59217 0.5433 0.0
H436 H 0.62751 0.59037 0.18313 0.0
H437 H 0.63336 0.59042 0.10514 0.0
H438 H 0.62807 0.64865 0.09552 0.0
H439 H 0.62248 0.64865 0.17374 0.0
C440 C 0.14791 0.90026 0.2798 0.0
Eu441 Eu 0.13923 0.89143 0.19932 0.0
C442 C 0.14563 0.895 0.32688 0.0
C443 C 0.1308 0.9012 0.34881 0.0
C444 C 0.12974 0.89808 0.39427 0.0
C445 C 0.14352 0.88876 0.41909 0.0
C446 C 0.15815 0.8822 0.39696 0.0
C447 C 0.15922 0.88533 0.35146 0.0
C448 C 0.10473 0.89071 0.16481 0.0
C449 C 0.13262 0.8478 0.1932 0.0
C450 C 0.12947 0.86575 0.03241 0.0
Eu451 Eu 0.13651 0.87526 0.11303 0.0
C452 C 0.13252 0.87079 0.98556 0.0
C453 C 0.14714 0.8636 0.96457 0.0
C454 C 0.1488 0.86657 0.91921 0.0
C455 C 0.13579 0.87666 0.89361 0.0
C456 C 0.12141 0.88422 0.91483 0.0
C457 C 0.11977 0.88128 0.96017 0.0
C458 C 0.17056 0.87609 0.15107 0.0
C459 C 0.14064 0.9189 0.11555 0.0
O460 O 0.1579 0.89002 0.25703 0.0
O461 O 0.13391 0.90667 0.25674 0.0
O462 O 0.11173 0.90386 0.18638 0.0
O463 O 0.11605 0.87806 0.16348 0.0
O464 O 0.14019 0.86064 0.21677 0.0
O465 O 0.12655 0.8515 0.1526 0.0
O466 O 0.11898 0.87613 0.05353 0.0
O467 O 0.14309 0.85949 0.05721 0.0
O468 O 0.16383 0.86241 0.13095 0.0
O469 O 0.1593 0.88881 0.14934 0.0
O470 O 0.13493 0.90504 0.0931 0.0
O471 O 0.14574 0.91672 0.15764 0.0
H472 H 0.12022 0.90895 0.33112 0.0
H473 H 0.1184 0.90358 0.41017 0.0
H474 H 0.16891 0.87478 0.41487 0.0
H475 H 0.17094 0.88055 0.33572 0.0
H476 H 0.15706 0.85522 0.98293 0.0
H477 H 0.15992 0.86036 0.90394 0.0
H478 H 0.11128 0.89226 0.89627 0.0
H479 H 0.10824 0.88687 0.97513 0.0
C480 C 0.87502 0.59801 0.28467 0.0
Eu481 Eu 0.88253 0.60854 0.20428 0.0
C482 C 0.87685 0.60305 0.33135 0.0
C483 C 0.89335 0.60148 0.35573 0.0
C484 C 0.89436 0.60444 0.4009 0.0
C485 C 0.8789 0.60896 0.42292 0.0
C486 C 0.8625 0.61091 0.3982 0.0
C487 C 0.86149 0.60794 0.3531 0.0
C488 C 0.91596 0.60975 0.17218 0.0
C489 C 0.88826 0.65261 0.19525 0.0
C490 C 0.89166 0.63809 0.03403 0.0
Eu491 Eu 0.88427 0.62751 0.11435 0.0
C492 C 0.88977 0.63291 0.98745 0.0
C493 C 0.87325 0.63446 0.96312 0.0
C494 C 0.87219 0.63133 0.91803 0.0
C495 C 0.88761 0.62665 0.89606 0.0
C496 C 0.90401 0.62469 0.92075 0.0
C497 C 0.90508 0.62784 0.96575 0.0
C498 C 0.85099 0.62589 0.1479 0.0
C499 C 0.87876 0.58362 0.12142 0.0
O500 O 0.86406 0.60759 0.25806 0.0
O501 O 0.88947 0.59311 0.26554 0.0
O502 O 0.90961 0.59614 0.19495 0.0
O503 O 0.90475 0.6226 0.16904 0.0
O504 O 0.88207 0.63867 0.21903 0.0
O505 O 0.89305 0.65081 0.15458 0.0
O506 O 0.90272 0.62859 0.06062 0.0
O507 O 0.87723 0.64301 0.05326 0.0
O508 O 0.85683 0.63968 0.12476 0.0
O509 O 0.86243 0.61335 0.14994 0.0
O510 O 0.88437 0.59792 0.09824 0.0
O511 O 0.87469 0.58473 0.16305 0.0
H512 H 0.90543 0.59754 0.34022 0.0
H513 H 0.90718 0.60259 0.41882 0.0
H514 H 0.85036 0.61464 0.41375 0.0
H515 H 0.84855 0.60911 0.33536 0.0
H516 H 0.8612 0.63853 0.97859 0.0
H517 H 0.85936 0.63316 0.90012 0.0
H518 H 0.91612 0.62084 0.90524 0.0
H519 H 0.91803 0.62667 0.98344 0.0
C520 C 0.15646 0.10411 0.99147 0.0
Eu521 Eu 0.14727 0.11828 0.91391 0.0
C522 C 0.1536 0.1064 0.03834 0.0
C523 C 0.15089 0.12354 0.05481 0.0
C524 C 0.14878 0.12531 0.09983 0.0
C525 C 0.14923 0.10995 0.12906 0.0
C526 C 0.1517 0.09281 0.11213 0.0
C527 C 0.15387 0.09107 0.06723 0.0
C528 C 0.14149 0.15379 0.88786 0.0
C529 C 0.10431 0.12407 0.88986 0.0
C530 C 0.12339 0.13088 0.73202 0.0
Eu531 Eu 0.13172 0.12167 0.81402 0.0
C532 C 0.12877 0.1283 0.68677 0.0
C533 C 0.13241 0.11105 0.67189 0.0
C534 C 0.13591 0.10891 0.62769 0.0
C535 C 0.13593 0.12398 0.59764 0.0
C536 C 0.13277 0.14126 0.61306 0.0
C537 C 0.1292 0.14337 0.65713 0.0
C538 C 0.13349 0.08801 0.85474 0.0
C539 C 0.17536 0.11882 0.83418 0.0
O540 O 0.1426 0.09852 0.96759 0.0
O541 O 0.16594 0.1166 0.971 0.0
O542 O 0.14795 0.14858 0.92679 0.0
O543 O 0.13839 0.13989 0.86664 0.0
O544 O 0.1166 0.11602 0.9172 0.0
O545 O 0.1083 0.13096 0.85073 0.0
O546 O 0.13416 0.14046 0.75708 0.0
O547 O 0.11629 0.117 0.75327 0.0
O548 O 0.12075 0.09296 0.82606 0.0
O549 O 0.14482 0.10053 0.85812 0.0
O550 O 0.16172 0.12106 0.8048 0.0
O551 O 0.1731 0.11651 0.87712 0.0
H552 H 0.1505 0.13554 0.03296 0.0
H553 H 0.14667 0.13867 0.11171 0.0
H554 H 0.15234 0.08074 0.13371 0.0
H555 H 0.15595 0.07773 0.05509 0.0
H556 H 0.13224 0.09919 0.69417 0.0
H557 H 0.13852 0.09545 0.61698 0.0
H558 H 0.13247 0.15312 0.59077 0.0
H559 H 0.12635 0.15678 0.66787 0.0
C560 C 0.64781 0.39902 0.7819 0.0
Eu561 Eu 0.63835 0.39075 0.70145 0.0
C562 C 0.64542 0.3939 0.82892 0.0
C563 C 0.62857 0.39489 0.84766 0.0
C564 C 0.62705 0.39203 0.89313 0.0
C565 C 0.64233 0.38811 0.92092 0.0
C566 C 0.65908 0.38661 0.90186 0.0
C567 C 0.6606 0.38953 0.85646 0.0
C568 C 0.60365 0.39118 0.668 0.0
C569 C 0.63056 0.34736 0.69472 0.0
C570 C 0.62617 0.36585 0.53408 0.0
Eu571 Eu 0.63451 0.37481 0.61451 0.0
C572 C 0.62916 0.37061 0.48716 0.0
C573 C 0.64618 0.36911 0.46946 0.0
C574 C 0.6482 0.37193 0.42413 0.0
C575 C 0.63328 0.3763 0.39549 0.0
C576 C 0.61638 0.37822 0.41353 0.0
C577 C 0.61435 0.37536 0.45874 0.0
C578 C 0.66878 0.37458 0.65134 0.0
C579 C 0.64121 0.41816 0.6177 0.0
O580 O 0.65708 0.38814 0.75909 0.0
O581 O 0.63414 0.40625 0.75905 0.0
O582 O 0.61122 0.40403 0.6896 0.0
O583 O 0.61457 0.37821 0.66601 0.0
O584 O 0.63867 0.35994 0.71813 0.0
O585 O 0.6242 0.35131 0.65447 0.0
O586 O 0.61666 0.37707 0.55544 0.0
O587 O 0.63947 0.35862 0.55839 0.0
O588 O 0.66169 0.36122 0.63059 0.0
O589 O 0.65782 0.38751 0.65043 0.0
O590 O 0.63474 0.40468 0.59491 0.0
O591 O 0.64604 0.41569 0.65989 0.0
H592 H 0.61659 0.39824 0.8274 0.0
H593 H 0.61391 0.39304 0.90657 0.0
H594 H 0.67117 0.38382 0.92221 0.0
H595 H 0.67378 0.38887 0.84298 0.0
H596 H 0.65788 0.36545 0.49044 0.0
H597 H 0.66145 0.37057 0.41149 0.0
H598 H 0.60454 0.38133 0.39253 0.0
H599 H 0.60106 0.3764 0.47139 0.0
C600 C 0.37241 0.90093 0.22583 0.0
Eu601 Eu 0.38135 0.89159 0.30798 0.0
C602 C 0.37469 0.89603 0.1797 0.0
C603 C 0.39151 0.89703 0.16053 0.0
C604 C 0.39296 0.89418 0.11566 0.0
C605 C 0.37764 0.89027 0.08883 0.0
C606 C 0.36091 0.88886 0.10839 0.0
C607 C 0.35946 0.89175 0.15318 0.0
C608 C 0.41585 0.8912 0.34294 0.0
C609 C 0.38848 0.848 0.32108 0.0
C610 C 0.39212 0.86434 0.48029 0.0
Eu611 Eu 0.38446 0.87421 0.39786 0.0
C612 C 0.38953 0.86926 0.52631 0.0
C613 C 0.37262 0.86805 0.54503 0.0
C614 C 0.37092 0.87101 0.58979 0.0
C615 C 0.38606 0.87522 0.61693 0.0
C616 C 0.40287 0.8768 0.59781 0.0
C617 C 0.40457 0.8738 0.55316 0.0
C618 C 0.35044 0.87478 0.35949 0.0
C619 C 0.37856 0.91772 0.38775 0.0
O620 O 0.36266 0.89021 0.2505 0.0
O621 O 0.38628 0.90751 0.24766 0.0
O622 O 0.40866 0.90434 0.3186 0.0
O623 O 0.4047 0.87832 0.34657 0.0
O624 O 0.38092 0.86113 0.29554 0.0
O625 O 0.39433 0.851 0.3615 0.0
O626 O 0.40248 0.8748 0.45657 0.0
O627 O 0.37829 0.85823 0.45734 0.0
O628 O 0.35724 0.86107 0.38257 0.0
O629 O 0.36156 0.88765 0.35894 0.0
O630 O 0.38501 0.90387 0.41236 0.0
O631 O 0.37359 0.91587 0.34594 0.0
H632 H 0.40353 0.90033 0.17995 0.0
H633 H 0.4061 0.89513 0.10193 0.0
H634 H 0.34878 0.8861 0.08879 0.0
H635 H 0.34629 0.89111 0.16689 0.0
H636 H 0.36074 0.86452 0.52538 0.0
H637 H 0.35772 0.86991 0.60317 0.0
H638 H 0.41487 0.87977 0.61765 0.0
H639 H 0.4178 0.8746 0.53984 0.0
C640 C 0.15076 0.63765 0.81226 0.0
C641 C 0.1388 0.62666 0.83612 0.0
C642 C 0.15189 0.63626 0.76676 0.0
C643 C 0.14104 0.60576 0.67544 0.0
H644 H 0.14557 0.64964 0.60191 0.0
C645 C 0.13414 0.60553 0.48522 0.0
C646 C 0.14605 0.61647 0.46108 0.0
C647 C 0.13326 0.60685 0.53078 0.0
C648 C 0.14451 0.63722 0.62194 0.0
H649 H 0.11894 0.60527 0.83049 0.0
H650 H 0.12071 0.60304 0.75125 0.0
H651 H 0.14431 0.65157 0.68133 0.0
H652 H 0.16614 0.63766 0.46632 0.0
H653 H 0.16477 0.6398 0.54573 0.0
H654 H 0.14121 0.59142 0.61603 0.0
C655 C 0.12933 0.61267 0.76775 0.0
C656 C 0.1438 0.63833 0.66761 0.0
C657 C 0.12817 0.61409 0.81323 0.0
C658 C 0.15693 0.6289 0.4838 0.0
C659 C 0.15601 0.63025 0.52936 0.0
C660 C 0.14174 0.60466 0.62977 0.0
C661 C 0.14112 0.62382 0.74379 0.0
C662 C 0.14204 0.62261 0.69505 0.0
C663 C 0.14423 0.61918 0.55357 0.0
C664 C 0.14348 0.62037 0.60233 0.0
H665 H 0.15902 0.64762 0.82857 0.0
H666 H 0.16128 0.64493 0.74961 0.0
H667 H 0.13997 0.59334 0.69546 0.0
H668 H 0.1257 0.59566 0.46903 0.0
H669 H 0.12388 0.59824 0.54813 0.0
C670 C 0.6635 0.89952 0.02626 0.0
C671 C 0.6508 0.89148 0.05393 0.0
C672 C 0.66185 0.89799 0.98063 0.0
C673 C 0.64005 0.87025 0.89463 0.0
H674 H 0.65202 0.911 0.81655 0.0
C675 C 0.62577 0.86965 0.70633 0.0
C676 C 0.63876 0.87726 0.67884 0.0
C677 C 0.62714 0.87158 0.75184 0.0
C678 C 0.64881 0.89941 0.83784 0.0
H679 H 0.62635 0.87547 0.05471 0.0
H680 H 0.62325 0.87313 0.97516 0.0
H681 H 0.65438 0.91405 0.89591 0.0
H682 H 0.66335 0.89306 0.67817 0.0
H683 H 0.66591 0.89616 0.7576 0.0
H684 H 0.63448 0.8556 0.83658 0.0
C685 C 0.63466 0.88045 0.98886 0.0
C686 C 0.65016 0.90116 0.88346 0.0
C687 C 0.63631 0.88198 0.03454 0.0
C688 C 0.65316 0.88689 0.69825 0.0
C689 C 0.65452 0.88884 0.74382 0.0
C690 C 0.63868 0.8685 0.84903 0.0
C691 C 0.64743 0.8884 0.96125 0.0
C692 C 0.64581 0.8866 0.91253 0.0
C693 C 0.64155 0.88116 0.77128 0.0
C694 C 0.64305 0.88305 0.81996 0.0
H695 H 0.67472 0.90716 0.03982 0.0
H696 H 0.67206 0.90414 0.9606 0.0
H697 H 0.63687 0.85864 0.91589 0.0
H698 H 0.61461 0.86194 0.69278 0.0
H699 H 0.61678 0.86565 0.77177 0.0
C700 C 0.38467 0.38571 0.35273 0.0
C701 C 0.37472 0.37248 0.37575 0.0
C702 C 0.38385 0.38693 0.30673 0.0
C703 C 0.37265 0.35981 0.21009 0.0
H704 H 0.37298 0.40648 0.14643 0.0
C705 C 0.36289 0.36766 0.02017 0.0
C706 C 0.37373 0.38049 0.99837 0.0
C707 C 0.36279 0.36652 0.06615 0.0
C708 C 0.37308 0.39333 0.16371 0.0
H709 H 0.35594 0.35023 0.36814 0.0
H710 H 0.35421 0.3526 0.28798 0.0
H711 H 0.3727 0.40511 0.22647 0.0
H712 H 0.39293 0.40224 1.00806 0.0
H713 H 0.39298 0.40005 0.08809 0.0
H714 H 0.37303 0.34805 0.14725 0.0
C715 C 0.36284 0.36191 0.30553 0.0
C716 C 0.37291 0.39255 0.20964 0.0
C717 C 0.36365 0.36071 0.35155 0.0
C718 C 0.38458 0.39205 0.02372 0.0
C719 C 0.38443 0.39095 0.06964 0.0
C720 C 0.37279 0.3606 0.16413 0.0
C721 C 0.37306 0.37493 0.2825 0.0
C722 C 0.37276 0.37578 0.23347 0.0
C723 C 0.37347 0.37825 0.09145 0.0
C724 C 0.37308 0.37737 0.14036 0.0
H725 H 0.39319 0.39512 0.37028 0.0
H726 H 0.39203 0.39703 0.29016 0.0
H727 H 0.37283 0.34666 0.22734 0.0
H728 H 0.35447 0.35847 1.00167 0.0
H729 H 0.35409 0.35666 0.08184 0.0
C730 C 0.89039 0.12305 0.5372 0.0
C731 C 0.87444 0.11839 0.55798 0.0
C732 C 0.89072 0.12457 0.49129 0.0
C733 C 0.86608 0.11006 0.39035 0.0
H734 H 0.89413 0.14777 0.33304 0.0
C735 C 0.86351 0.12336 0.20094 0.0
C736 C 0.87987 0.12736 0.18129 0.0
C737 C 0.86258 0.12227 0.24679 0.0
C738 C 0.88638 0.13703 0.34852 0.0
H739 H 0.84627 0.1117 0.54637 0.0
H740 H 0.84674 0.11476 0.46647 0.0
H741 H 0.8929 0.14624 0.41289 0.0
H742 H 0.90806 0.13348 0.19476 0.0
H743 H 0.90651 0.13126 0.27446 0.0
H744 H 0.85957 0.10087 0.3259 0.0
C745 C 0.85908 0.11703 0.48569 0.0
C746 C 0.88567 0.13616 0.39437 0.0
C747 C 0.85875 0.11552 0.5316 0.0
C748 C 0.89528 0.13015 0.20868 0.0
C749 C 0.89434 0.12911 0.25446 0.0
C750 C 0.86677 0.11096 0.34447 0.0
C751 C 0.87509 0.12147 0.4649 0.0
C752 C 0.87556 0.12262 0.41594 0.0
C753 C 0.87797 0.12524 0.27414 0.0
C754 C 0.87699 0.12441 0.32296 0.0
H755 H 0.90269 0.12553 0.55644 0.0
H756 H 0.90333 0.12785 0.47649 0.0
H757 H 0.85839 0.09928 0.40582 0.0
H758 H 0.85141 0.121 0.18087 0.0
H759 H 0.84972 0.1194 0.26079 0.0
C760 C 0.12816 0.38569 0.20639 0.0
C761 C 0.13989 0.37419 0.18598 0.0
C762 C 0.12907 0.38705 0.25211 0.0
C763 C 0.14514 0.36226 0.35509 0.0
H764 H 0.13826 0.40845 0.40696 0.0
C765 C 0.15589 0.37187 0.54235 0.0
C766 C 0.14372 0.38311 0.56217 0.0
C767 C 0.15548 0.37064 0.49659 0.0
C768 C 0.14 0.3954 0.39305 0.0
H769 H 0.16189 0.35517 0.19803 0.0
H770 H 0.16373 0.35781 0.27757 0.0
H771 H 0.13784 0.40691 0.3272 0.0
H772 H 0.12159 0.4019 0.549 0.0
H773 H 0.12068 0.39951 0.46944 0.0
H774 H 0.14729 0.35075 0.42098 0.0
C775 C 0.15365 0.36563 0.25824 0.0
C776 C 0.13977 0.39452 0.34724 0.0
C777 C 0.15275 0.3643 0.2125 0.0
C778 C 0.13103 0.39295 0.535 0.0
C779 C 0.13066 0.39176 0.48926 0.0
C780 C 0.14538 0.36314 0.40092 0.0
C781 C 0.14174 0.37693 0.27872 0.0
C782 C 0.1423 0.37793 0.3276 0.0
C783 C 0.14295 0.38067 0.46939 0.0
C784 C 0.14277 0.37971 0.42053 0.0
H785 H 0.1182 0.39365 0.18702 0.0
H786 H 0.11958 0.39577 0.26666 0.0
H787 H 0.14683 0.3492 0.3412 0.0
H788 H 0.16574 0.36398 0.56224 0.0
H789 H 0.16524 0.36207 0.48248 0.0
C790 C 0.86751 0.88139 0.84654 0.0
C791 C 0.88 0.86977 0.86949 0.0
C792 C 0.86652 0.88259 0.80048 0.0
C793 C 0.87827 0.85752 0.70346 0.0
H794 H 0.87269 0.90426 0.64118 0.0
C795 C 0.88598 0.86714 0.5157 0.0
C796 C 0.874 0.87907 0.49198 0.0
C797 C 0.8864 0.86586 0.5617 0.0
C798 C 0.87403 0.89107 0.65803 0.0
H799 H 0.90103 0.85007 0.86181 0.0
H800 H 0.89952 0.8524 0.78182 0.0
H801 H 0.87385 0.90242 0.72136 0.0
H802 H 0.85318 0.89912 0.49835 0.0
H803 H 0.85363 0.89657 0.57832 0.0
H804 H 0.87846 0.84616 0.64017 0.0
C805 C 0.89039 0.86051 0.79932 0.0
C806 C 0.87469 0.89002 0.70404 0.0
C807 C 0.89141 0.85935 0.84526 0.0
C808 C 0.86241 0.88961 0.51545 0.0
C809 C 0.86284 0.88833 0.5614 0.0
C810 C 0.87759 0.85857 0.65747 0.0
C811 C 0.87792 0.87212 0.77632 0.0
C812 C 0.87687 0.87324 0.72733 0.0
C813 C 0.87488 0.8765 0.58515 0.0
C814 C 0.87549 0.87536 0.63415 0.0
H815 H 0.8586 0.88969 0.86417 0.0
H816 H 0.85665 0.89155 0.7838 0.0
H817 H 0.87967 0.84434 0.72032 0.0
H818 H 0.895 0.85873 0.4987 0.0
H819 H 0.89597 0.85673 0.57892 0.0
C820 C 0.39014 0.61361 0.7099 0.0
C821 C 0.37991 0.62659 0.68448 0.0
C822 C 0.38924 0.61233 0.75572 0.0
C823 C 0.36125 0.62504 0.84704 0.0
H824 H 0.40546 0.61748 0.9179 0.0
C825 C 0.36415 0.63065 0.03603 0.0
C826 C 0.37463 0.61783 0.06133 0.0
C827 C 0.36491 0.63191 0.99017 0.0
C828 C 0.39295 0.61939 0.89865 0.0
H829 H 0.36069 0.64842 0.68763 0.0
H830 H 0.35911 0.64619 0.7674 0.0
H831 H 0.40626 0.6189 0.83797 0.0
H832 H 0.39402 0.59618 0.05792 0.0
H833 H 0.39532 0.59834 0.97812 0.0
H834 H 0.34794 0.62551 0.90773 0.0
C835 C 0.36766 0.6368 0.75187 0.0
C836 C 0.39341 0.6202 0.85274 0.0
C837 C 0.36855 0.63807 0.70605 0.0
C838 C 0.386 0.60642 0.03959 0.0
C839 C 0.38673 0.60765 0.99375 0.0
C840 C 0.36079 0.62422 0.89296 0.0
C841 C 0.37809 0.62401 0.77736 0.0
C842 C 0.37756 0.62302 0.8263 0.0
C843 C 0.37613 0.62035 0.96837 0.0
C844 C 0.37664 0.62139 0.91941 0.0
H845 H 0.39882 0.60436 0.69436 0.0
H846 H 0.39722 0.60209 0.77418 0.0
H847 H 0.34875 0.62697 0.82776 0.0
H848 H 0.35543 0.63982 0.05171 0.0
H849 H 0.35679 0.64206 0.9718 0.0
C850 C 0.65993 0.11045 0.99022 0.0
C851 C 0.64542 0.11568 0.96111 0.0
C852 C 0.65886 0.11186 0.0357 0.0
C853 C 0.6335 0.13471 0.11958 0.0
H854 H 0.65401 0.09679 0.19869 0.0
C855 C 0.62183 0.13178 0.30637 0.0
C856 C 0.63642 0.12679 0.3355 0.0
C857 C 0.62293 0.13031 0.26093 0.0
C858 C 0.64839 0.10762 0.17715 0.0
H859 H 0.61843 0.12677 0.95759 0.0
H860 H 0.61641 0.12889 0.0368 0.0
H861 H 0.65588 0.09457 0.11949 0.0
H862 H 0.66355 0.11608 0.33914 0.0
H863 H 0.66557 0.11378 0.25991 0.0
H864 H 0.62598 0.14773 0.17724 0.0
C865 C 0.62874 0.12386 0.02439 0.0
C866 C 0.64946 0.10635 0.13161 0.0
C867 C 0.62982 0.12244 0.97888 0.0
C868 C 0.65211 0.1202 0.3178 0.0
C869 C 0.65319 0.1187 0.27231 0.0
C870 C 0.63241 0.13597 0.16511 0.0
C871 C 0.64323 0.11854 0.0535 0.0
C872 C 0.64205 0.11988 0.10213 0.0
C873 C 0.63863 0.1238 0.24319 0.0
C874 C 0.63983 0.12244 0.19458 0.0
H875 H 0.67209 0.10495 0.97797 0.0
H876 H 0.67037 0.10782 0.0569 0.0
H877 H 0.62789 0.14554 0.09807 0.0
H878 H 0.6096 0.13713 0.31859 0.0
H879 H 0.61136 0.13417 0.23969 0.0
C880 C 0.89799 0.37401 0.19745 0.0
C881 C 0.88238 0.37588 0.16969 0.0
C882 C 0.89721 0.37554 0.24296 0.0
C883 C 0.86911 0.39347 0.32856 0.0
H884 H 0.89713 0.36042 0.40692 0.0
C885 C 0.86093 0.38985 0.51703 0.0
C886 C 0.87655 0.38764 0.54462 0.0
C887 C 0.86155 0.38828 0.47148 0.0
C888 C 0.88937 0.36991 0.38559 0.0
H889 H 0.85372 0.38116 0.16845 0.0
H890 H 0.85233 0.38361 0.24781 0.0
H891 H 0.8984 0.35819 0.32761 0.0
H892 H 0.90508 0.3817 0.54543 0.0
H893 H 0.90623 0.37929 0.46612 0.0
H894 H 0.86012 0.40523 0.38653 0.0
C895 C 0.86523 0.38107 0.2343 0.0
C896 C 0.8901 0.36863 0.33998 0.0
C897 C 0.86599 0.37948 0.18876 0.0
C898 C 0.8928 0.38367 0.5253 0.0
C899 C 0.89342 0.38208 0.47975 0.0
C900 C 0.8684 0.39477 0.37418 0.0
C901 C 0.88082 0.37903 0.26209 0.0
C902 C 0.87999 0.3804 0.31079 0.0
C903 C 0.87782 0.38444 0.45212 0.0
C904 C 0.87852 0.38301 0.40339 0.0
H905 H 0.91081 0.37102 0.18413 0.0
H906 H 0.90954 0.37409 0.26316 0.0
H907 H 0.86134 0.40295 0.30718 0.0
H908 H 0.8482 0.39314 0.5305 0.0
H909 H 0.84921 0.38998 0.45146 0.0
C910 C 0.36798 0.11885 0.32087 0.0
C911 C 0.38344 0.12594 0.3423 0.0
C912 C 0.36708 0.11716 0.27515 0.0
C913 C 0.38784 0.13459 0.1727 0.0
H914 H 0.36579 0.09228 0.12232 0.0
C915 C 0.39263 0.11987 0.98829 0.0
C916 C 0.37749 0.11243 0.96627 0.0
C917 C 0.39311 0.1217 0.03391 0.0
C918 C 0.3718 0.10431 0.13571 0.0
H919 H 0.40999 0.13701 0.33175 0.0
H920 H 0.40855 0.13376 0.25254 0.0
H921 H 0.36704 0.09499 0.20182 0.0
H922 H 0.35099 0.101 0.97572 0.0
H923 H 0.35169 0.10456 0.05483 0.0
H924 H 0.3926 0.14392 0.10665 0.0
C925 C 0.39703 0.12963 0.27099 0.0
C926 C 0.37253 0.10586 0.18144 0.0
C927 C 0.39795 0.13127 0.31664 0.0
C928 C 0.36281 0.10699 0.99126 0.0
C929 C 0.3633 0.10881 0.03688 0.0
C930 C 0.3871 0.13305 0.12699 0.0
C931 C 0.38157 0.12259 0.24951 0.0
C932 C 0.3806 0.121 0.20064 0.0
C933 C 0.37848 0.11614 0.05894 0.0
C934 C 0.37911 0.11787 0.10778 0.0
H935 H 0.35659 0.11445 0.33947 0.0
H936 H 0.35488 0.11184 0.25983 0.0
H937 H 0.39388 0.1466 0.18611 0.0
H938 H 0.40412 0.12438 0.97023 0.0
H939 H 0.40512 0.12724 0.04965 0.0
C940 C 0.62462 0.60628 0.02053 0.0
C941 C 0.63336 0.61942 0.04575 0.0
C942 C 0.62621 0.60645 0.975 0.0
C943 C 0.65451 0.62385 0.88579 0.0
H944 H 0.61214 0.61456 0.81122 0.0
C945 C 0.65395 0.63449 0.69673 0.0
C946 C 0.64517 0.62135 0.67159 0.0
C947 C 0.65243 0.63432 0.74229 0.0
C948 C 0.62415 0.61699 0.83159 0.0
H949 H 0.65088 0.64289 0.04281 0.0
H950 H 0.65346 0.64335 0.96322 0.0
H951 H 0.60985 0.61405 0.89081 0.0
H952 H 0.62766 0.59788 0.67469 0.0
H953 H 0.62519 0.59743 0.7543 0.0
H954 H 0.66881 0.62679 0.82655 0.0
C955 C 0.64547 0.63282 0.97876 0.0
C956 C 0.62284 0.61669 0.87723 0.0
C957 C 0.64385 0.63266 0.02433 0.0
C958 C 0.63471 0.60811 0.69311 0.0
C959 C 0.63315 0.60796 0.73869 0.0
C960 C 0.65582 0.62415 0.84013 0.0
C961 C 0.63659 0.61977 0.95351 0.0
C962 C 0.63801 0.6201 0.90491 0.0
C963 C 0.64206 0.62102 0.76387 0.0
C964 C 0.64065 0.62072 0.81246 0.0
H965 H 0.61626 0.59601 0.03587 0.0
H966 H 0.61935 0.59608 0.95664 0.0
H967 H 0.66652 0.62627 0.90616 0.0
H968 H 0.66229 0.64476 0.68131 0.0
H969 H 0.65931 0.6447 0.76058 0.0
C970 C 0.12664 0.88308 0.4883 0.0
C971 C 0.14295 0.88661 0.46799 0.0
C972 C 0.12601 0.88189 0.53419 0.0
C973 C 0.15452 0.87462 0.63663 0.0
H974 H 0.11485 0.89737 0.69075 0.0
C975 C 0.1533 0.88147 0.82511 0.0
C976 C 0.13676 0.87857 0.84481 0.0
C977 C 0.15418 0.88269 0.77924 0.0
C978 C 0.12593 0.89076 0.67623 0.0
H979 H 0.17141 0.8917 0.48051 0.0
H980 H 0.17032 0.8895 0.56036 0.0
H981 H 0.11609 0.89854 0.61091 0.0
H982 H 0.1082 0.87442 0.8314 0.0
H983 H 0.10974 0.87649 0.75172 0.0
H984 H 0.16433 0.86677 0.70194 0.0
C985 C 0.15803 0.88743 0.54076 0.0
C986 C 0.12663 0.89143 0.63037 0.0
C987 C 0.15866 0.88866 0.49488 0.0
C988 C 0.12113 0.877 0.81744 0.0
C989 C 0.12201 0.87818 0.77164 0.0
C990 C 0.1538 0.87392 0.68252 0.0
C991 C 0.14168 0.88416 0.56104 0.0
C992 C 0.14092 0.88336 0.60994 0.0
C993 C 0.13856 0.88099 0.75187 0.0
C994 C 0.13948 0.88195 0.70296 0.0
H995 H 0.11432 0.88114 0.46872 0.0
H996 H 0.11323 0.87905 0.54865 0.0
H997 H 0.1656 0.86805 0.62204 0.0
H998 H 0.16557 0.88297 0.84515 0.0
H999 H 0.16712 0.88515 0.76525 0.0
C1000 C 0.8719 0.61606 0.82642 0.0
C1001 C 0.88676 0.62443 0.84743 0.0
C1002 C 0.87105 0.6143 0.78075 0.0
C1003 C 0.89009 0.63337 0.6777 0.0
H1004 H 0.87121 0.58947 0.62824 0.0
C1005 C 0.89456 0.61941 0.49272 0.0
C1006 C 0.87973 0.61105 0.4716 0.0
C1007 C 0.8954 0.62107 0.53842 0.0
C1008 C 0.87633 0.60192 0.64139 0.0
H1009 H 0.91229 0.63769 0.83621 0.0
H1010 H 0.91098 0.63429 0.75707 0.0
H1011 H 0.87263 0.5922 0.70772 0.0
H1012 H 0.85424 0.59769 0.48265 0.0
H1013 H 0.85552 0.60094 0.56185 0.0
H1014 H 0.89377 0.6431 0.61139 0.0
C1015 C 0.89987 0.62922 0.77581 0.0
C1016 C 0.87715 0.60349 0.6871 0.0
C1017 C 0.90073 0.63095 0.82142 0.0
C1018 C 0.86577 0.60443 0.49753 0.0
C1019 C 0.86662 0.60607 0.54318 0.0
C1020 C 0.88927 0.63181 0.63201 0.0
C1021 C 0.885 0.62091 0.75475 0.0
C1022 C 0.88405 0.61924 0.70594 0.0
C1023 C 0.88146 0.6144 0.56434 0.0
C1024 C 0.88237 0.61606 0.61316 0.0
H1025 H 0.86095 0.61073 0.84531 0.0
H1026 H 0.8593 0.60798 0.76575 0.0
H1027 H 0.89521 0.64583 0.69085 0.0
H1028 H 0.90551 0.62481 0.47391 0.0
H1029 H 0.90714 0.6274 0.55349 0.0
C1030 C 0.14886 0.13412 0.52571 0.0
C1031 C 0.13846 0.1217 0.55005 0.0
C1032 C 0.15036 0.13258 0.48047 0.0
C1033 C 0.12708 0.11313 0.38385 0.0
H1034 H 0.1724 0.12207 0.32898 0.0
C1035 C 0.13721 0.09922 0.20155 0.0
C1036 C 0.14745 0.11175 0.17711 0.0
C1037 C 0.13605 0.10052 0.24696 0.0
C1038 C 0.15959 0.11974 0.3437 0.0
H1039 H 0.12159 0.09781 0.54581 0.0
H1040 H 0.12446 0.09494 0.46706 0.0
H1041 H 0.17089 0.12376 0.40845 0.0
H1042 H 0.16449 0.13551 0.18141 0.0
H1043 H 0.16223 0.13795 0.26051 0.0
H1044 H 0.11576 0.10915 0.31914 0.0
C1045 C 0.13131 0.106 0.4829 0.0
C1046 C 0.15873 0.12069 0.38929 0.0
C1047 C 0.12985 0.10751 0.52817 0.0
C1048 C 0.15636 0.12573 0.19915 0.0
C1049 C 0.15524 0.127 0.2446 0.0
C1050 C 0.12793 0.11219 0.33828 0.0
C1051 C 0.14146 0.1186 0.45841 0.0
C1052 C 0.14246 0.11739 0.40994 0.0
C1053 C 0.14514 0.11435 0.26911 0.0
C1054 C 0.1442 0.11548 0.31761 0.0
H1055 H 0.1558 0.1451 0.54162 0.0
H1056 H 0.15818 0.14259 0.4626 0.0
H1057 H 0.11426 0.11082 0.39856 0.0
H1058 H 0.13003 0.0884 0.18556 0.0
H1059 H 0.12828 0.09046 0.26483 0.0
C1060 C 0.62548 0.39158 0.32126 0.0
C1061 C 0.63511 0.3782 0.34688 0.0
C1062 C 0.62649 0.39276 0.27545 0.0
C1063 C 0.65397 0.37867 0.18433 0.0
H1064 H 0.61021 0.38826 0.11307 0.0
C1065 C 0.65097 0.37317 0.99509 0.0
C1066 C 0.64097 0.38634 0.96968 0.0
C1067 C 0.65019 0.372 0.04098 0.0
C1068 C 0.62261 0.38577 0.1324 0.0
H1069 H 0.65338 0.35554 0.34397 0.0
H1070 H 0.65515 0.35761 0.26422 0.0
H1071 H 0.6093 0.38694 0.19296 0.0
H1072 H 0.62241 0.40872 0.97302 0.0
H1073 H 0.62106 0.40672 0.05281 0.0
H1074 H 0.66729 0.37753 0.12376 0.0
C1075 C 0.647 0.36737 0.27962 0.0
C1076 C 0.62209 0.38502 0.17832 0.0
C1077 C 0.646 0.3662 0.32545 0.0
C1078 C 0.63005 0.3982 0.99139 0.0
C1079 C 0.62929 0.39706 0.03726 0.0
C1080 C 0.6545 0.37943 0.13839 0.0
C1081 C 0.63714 0.38058 0.25394 0.0
C1082 C 0.63776 0.38147 0.20495 0.0
C1083 C 0.63941 0.38399 0.06274 0.0
C1084 C 0.63882 0.383 0.11176 0.0
H1085 H 0.61719 0.40124 0.33665 0.0
H1086 H 0.61897 0.40331 0.25688 0.0
H1087 H 0.66636 0.37615 0.20371 0.0
H1088 H 0.65934 0.36364 0.97947 0.0
H1089 H 0.65792 0.36156 0.05937 0.0
C1090 C 0.36874 0.87514 0.0184 0.0
C1091 C 0.37896 0.88827 0.04045 0.0
C1092 C 0.36953 0.8737 0.97284 0.0
C1093 C 0.38176 0.89981 0.8713 0.0
H1094 H 0.38154 0.85265 0.82088 0.0
C1095 C 0.39454 0.89061 0.68727 0.0
C1096 C 0.3845 0.87735 0.6652 0.0
C1097 C 0.39364 0.8921 0.73279 0.0
C1098 C 0.38138 0.86595 0.83429 0.0
H1099 H 0.398 0.91024 0.03131 0.0
H1100 H 0.39961 0.90753 0.95218 0.0
H1101 H 0.38066 0.85475 0.90033 0.0
H1102 H 0.36561 0.85525 0.6743 0.0
H1103 H 0.36376 0.85808 0.75332 0.0
H1104 H 0.38248 0.91101 0.80526 0.0
C1105 C 0.39084 0.89843 0.97007 0.0
C1106 C 0.38089 0.86715 0.87997 0.0
C1107 C 0.39009 0.89983 0.01565 0.0
C1108 C 0.37339 0.86575 0.68995 0.0
C1109 C 0.37251 0.86722 0.73548 0.0
C1110 C 0.38224 0.89861 0.82561 0.0
C1111 C 0.38051 0.88539 0.94795 0.0
C1112 C 0.38109 0.8841 0.89917 0.0
C1113 C 0.3827 0.88035 0.75763 0.0
C1114 C 0.38206 0.88166 0.80641 0.0
H1115 H 0.36015 0.86589 0.0364 0.0
H1116 H 0.36126 0.8636 0.957 0.0
H1117 H 0.38163 0.9131 0.88473 0.0
H1118 H 0.40311 0.8999 0.66933 0.0
H1119 H 0.4018 0.90228 0.74863 0.0
C1120 C 0.11982 0.6862 0.17619 0.0
C1121 C 0.13346 0.67492 0.19537 0.0
C1122 C 0.11933 0.70454 0.18489 0.0
C1123 C 0.13774 0.74046 0.25612 0.0
H1124 H 0.12573 0.77066 0.15138 0.0
C1125 C 0.14512 0.82013 0.23555 0.0
C1126 C 0.13107 0.82881 0.21031 0.0
C1127 C 0.14527 0.80113 0.24177 0.0
C1128 C 0.12895 0.76245 0.18111 0.0
H1129 H 0.15683 0.67386 0.24053 0.0
H1130 H 0.15624 0.70624 0.25516 0.0
H1131 H 0.12643 0.73806 0.14678 0.0
H1132 H 0.10544 0.82472 0.17551 0.0
H1133 H 0.10552 0.79196 0.18699 0.0
H1134 H 0.14056 0.76532 0.28999 0.0
C1135 C 0.14576 0.70077 0.23373 0.0
C1136 C 0.12929 0.74369 0.17853 0.0
C1137 C 0.14611 0.68223 0.22538 0.0
C1138 C 0.11654 0.81839 0.19469 0.0
C1139 C 0.11664 0.79959 0.20105 0.0
C1140 C 0.1375 0.75943 0.25865 0.0
C1141 C 0.13266 0.71226 0.21245 0.0
C1142 C 0.13331 0.73236 0.21607 0.0
C1143 C 0.13135 0.79065 0.22287 0.0
C1144 C 0.13274 0.77058 0.22124 0.0
H1145 H 0.10969 0.68093 0.15346 0.0
H1146 H 0.10868 0.71279 0.16899 0.0
H1147 H 0.14095 0.73216 0.28567 0.0
H1148 H 0.15655 0.82784 0.24766 0.0
H1149 H 0.15678 0.7946 0.25882 0.0
C1150 C 0.58276 0.87442 0.37458 0.0
C1151 C 0.5899 0.88574 0.34132 0.0
C1152 C 0.56397 0.8733 0.37898 0.0
C1153 C 0.52086 0.88407 0.31374 0.0
H1154 H 0.49834 0.87872 0.42572 0.0
C1155 C 0.44701 0.9027 0.33171 0.0
C1156 C 0.43573 0.88933 0.34994 0.0
C1157 C 0.4657 0.90066 0.33439 0.0
C1158 C 0.50448 0.88005 0.39422 0.0
H1159 H 0.58303 0.90536 0.28817 0.0
H1160 H 0.55094 0.90406 0.29675 0.0
H1161 H 0.53131 0.87828 0.42356 0.0
H1162 H 0.43541 0.86361 0.38708 0.0
H1163 H 0.46842 0.86026 0.39278 0.0
H1164 H 0.49417 0.88657 0.28459 0.0
C1165 C 0.55945 0.89539 0.31846 0.0
C1166 C 0.52338 0.87975 0.39289 0.0
C1167 C 0.57799 0.8963 0.31377 0.0
C1168 C 0.44373 0.87413 0.37259 0.0
C1169 C 0.46259 0.87223 0.37594 0.0
C1170 C 0.50212 0.88464 0.31516 0.0
C1171 C 0.55201 0.88359 0.35038 0.0
C1172 C 0.53188 0.88217 0.3526 0.0
C1173 C 0.47376 0.88534 0.35603 0.0
C1174 C 0.49367 0.88296 0.35537 0.0
H1175 H 0.59161 0.86609 0.39629 0.0
H1176 H 0.55884 0.86404 0.40398 0.0
H1177 H 0.52669 0.88532 0.28187 0.0
H1178 H 0.44138 0.91463 0.31423 0.0
H1179 H 0.47392 0.91108 0.3191 0.0
C1180 C 0.37409 0.31365 0.76526 0.0
C1181 C 0.38772 0.3233 0.74393 0.0
C1182 C 0.37498 0.29465 0.77052 0.0
C1183 C 0.39266 0.25831 0.70947 0.0
H1184 H 0.38239 0.22528 0.80777 0.0
C1185 C 0.40292 0.18286 0.69405 0.0
C1186 C 0.3897 0.17094 0.7096 0.0
C1187 C 0.40335 0.20084 0.70589 0.0
C1188 C 0.38513 0.23435 0.77993 0.0
H1189 H 0.41368 0.3211 0.71548 0.0
H1190 H 0.41542 0.28829 0.72545 0.0
H1191 H 0.38184 0.25818 0.81682 0.0
H1192 H 0.36707 0.16824 0.75154 0.0
H1193 H 0.36745 0.20004 0.77138 0.0
H1194 H 0.39547 0.23499 0.672 0.0
C1195 C 0.40388 0.29516 0.73724 0.0
C1196 C 0.38484 0.25315 0.78519 0.0
C1197 C 0.40294 0.31395 0.73177 0.0
C1198 C 0.37744 0.17715 0.73917 0.0
C1199 C 0.37768 0.19536 0.75054 0.0
C1200 C 0.39279 0.23971 0.70413 0.0
C1201 C 0.38953 0.28522 0.75457 0.0
C1202 C 0.38895 0.26528 0.75012 0.0
C1203 C 0.39033 0.20756 0.73286 0.0
C1204 C 0.38938 0.22742 0.7394 0.0
H1205 H 0.36213 0.32056 0.77449 0.0
H1206 H 0.36373 0.28731 0.78401 0.0
H1207 H 0.39537 0.26731 0.68145 0.0
H1208 H 0.41273 0.17838 0.67179 0.0
H1209 H 0.41367 0.20964 0.6928 0.0
C1210 C 0.93997 0.13138 0.88083 0.0
C1211 C 0.93136 0.11446 0.88016 0.0
C1212 C 0.95866 0.13251 0.88872 0.0
C1213 C 1.00028 0.10375 0.88936 0.0
H1214 H 0.02291 0.14638 0.93668 0.0
C1215 C 0.07749 0.10937 0.92385 0.0
C1216 C 0.08513 0.12422 0.90098 0.0
C1217 C 0.05879 0.10826 0.92772 0.0
C1218 C 0.01675 0.13437 0.92357 0.0
H1219 H 0.93533 0.08555 0.88954 0.0
H1220 H 0.96757 0.08743 0.90595 0.0
H1221 H 0.99017 0.144 0.93245 0.0
H1222 H 0.07932 0.14996 0.8663 0.0
H1223 H 0.04683 0.14834 0.87458 0.0
H1224 H 0.02701 0.09404 0.88157 0.0
C1225 C 0.96025 0.09989 0.89835 0.0
C1226 C 0.99793 0.13303 0.92069 0.0
C1227 C 0.94166 0.09877 0.88941 0.0
C1228 C 0.07382 0.13836 0.88417 0.0
C1229 C 0.05522 0.13746 0.88897 0.0
C1230 C 0.01907 0.10493 0.89317 0.0
C1231 C 0.96918 0.11675 0.89714 0.0
C1232 C 0.98934 0.1178 0.90291 0.0
C1233 C 0.04745 0.1222 0.90977 0.0
C1234 C 0.02751 0.12035 0.90974 0.0
H1235 H 0.93237 0.14372 0.87352 0.0
H1236 H 0.96485 0.14576 0.88673 0.0
H1237 H 0.99443 0.09197 0.87449 0.0
H1238 H 0.08584 0.09818 0.93672 0.0
H1239 H 0.05314 0.09636 0.94401 0.0
C1240 C 0.14461 0.3178 0.80055 0.0
C1241 C 0.1319 0.32503 0.82749 0.0
C1242 C 0.14494 0.29912 0.79414 0.0
C1243 C 0.15106 0.25916 0.82273 0.0
H1244 H 0.10832 0.22913 0.81331 0.0
C1245 C 0.1487 0.18635 0.89562 0.0
C1246 C 0.1402 0.17288 0.87114 0.0
C1247 C 0.14788 0.2045 0.88083 0.0
C1248 C 0.12041 0.23731 0.81533 0.0
H1249 H 0.10882 0.31865 0.86616 0.0
H1250 H 0.10921 0.28633 0.85447 0.0
H1251 H 0.10579 0.26203 0.80122 0.0
H1252 H 0.12398 0.16782 0.81215 0.0
H1253 H 0.12219 0.19989 0.78645 0.0
H1254 H 0.16557 0.23455 0.83858 0.0
C1255 C 0.11898 0.29493 0.8384 0.0
C1256 C 0.11895 0.25615 0.80869 0.0
C1257 C 0.11882 0.31346 0.84533 0.0
C1258 C 0.13072 0.17795 0.83151 0.0
C1259 C 0.12966 0.19626 0.81694 0.0
C1260 C 0.15248 0.24037 0.82981 0.0
C1261 C 0.13237 0.28741 0.81391 0.0
C1262 C 0.1342 0.26734 0.81341 0.0
C1263 C 0.13835 0.20972 0.8414 0.0
C1264 C 0.13712 0.22927 0.82735 0.0
H1265 H 0.15492 0.32638 0.78662 0.0
H1266 H 0.15536 0.29375 0.77485 0.0
H1267 H 0.16305 0.26735 0.82699 0.0
H1268 H 0.15608 0.18287 0.92633 0.0
H1269 H 0.15445 0.21454 0.90082 0.0
C1270 C 0.07375 0.90376 0.16152 0.0
C1271 C 0.08493 0.88872 0.15738 0.0
C1272 C 0.05502 0.90205 0.15818 0.0
C1273 C 0.01822 0.86857 0.17012 0.0
H1274 H 0.98919 0.90794 0.11688 0.0
C1275 C 0.93953 0.86747 0.16578 0.0
C1276 C 0.93138 0.88371 0.1765 0.0
C1277 C 0.95803 0.86693 0.15821 0.0
C1278 C 0.99705 0.89684 0.13216 0.0
H1279 H 0.08514 0.86006 0.14562 0.0
H1280 H 0.05225 0.85703 0.13961 0.0
H1281 H 0.02175 0.90899 0.11262 0.0
H1282 H 0.93615 0.91216 0.18665 0.0
H1283 H 0.9681 0.91127 0.17354 0.0
H1284 H 0.99343 0.85659 0.19022 0.0
C1285 C 0.05804 0.87017 0.14579 0.0
C1286 C 0.01579 0.89745 0.12971 0.0
C1287 C 0.07689 0.87192 0.14889 0.0
C1288 C 0.94199 0.89943 0.17844 0.0
C1289 C 0.96035 0.89893 0.17063 0.0
C1290 C 0.99941 0.86796 0.17255 0.0
C1291 C 0.04683 0.88522 0.15068 0.0
C1292 C 0.02671 0.88353 0.14945 0.0
C1293 C 0.96872 0.88267 0.16073 0.0
C1294 C 0.98858 0.88229 0.1544 0.0
H1295 H 0.0795 0.91689 0.16814 0.0
H1296 H 0.04694 0.91391 0.1628 0.0
H1297 H 0.02614 0.85766 0.18602 0.0
H1298 H 0.93171 0.85513 0.16404 0.0
H1299 H 0.96395 0.8542 0.15031 0.0
C1300 C 0.40195 0.68574 0.33211 0.0
C1301 C 0.38731 0.67557 0.31618 0.0
C1302 C 0.40287 0.70432 0.32244 0.0
C1303 C 0.38419 0.74351 0.25532 0.0
H1304 H 0.39611 0.76825 0.36226 0.0
C1305 C 0.37696 0.82177 0.27809 0.0
C1306 C 0.39024 0.82944 0.30581 0.0
C1307 C 0.37705 0.80308 0.27147 0.0
C1308 C 0.393 0.76162 0.33188 0.0
H1309 H 0.36274 0.67655 0.27517 0.0
H1310 H 0.36418 0.70942 0.25867 0.0
H1311 H 0.39551 0.73549 0.36426 0.0
H1312 H 0.4149 0.82407 0.34484 0.0
H1313 H 0.41538 0.79187 0.33236 0.0
H1314 H 0.38155 0.77002 0.22325 0.0
C1315 C 0.37503 0.7029 0.27833 0.0
C1316 C 0.39265 0.74278 0.33303 0.0
C1317 C 0.37421 0.68412 0.2877 0.0
C1318 C 0.40433 0.81847 0.32387 0.0
C1319 C 0.40454 0.79999 0.3169 0.0
C1320 C 0.38456 0.76255 0.25415 0.0
C1321 C 0.38903 0.71328 0.29715 0.0
C1322 C 0.38857 0.73344 0.29473 0.0
C1323 C 0.39051 0.7919 0.29228 0.0
C1324 C 0.3893 0.77178 0.29238 0.0
H1325 H 0.41238 0.67945 0.35364 0.0
H1326 H 0.4141 0.71182 0.33643 0.0
H1327 H 0.3809 0.73668 0.22532 0.0
H1328 H 0.36591 0.82995 0.26391 0.0
H1329 H 0.36607 0.79726 0.25226 0.0
C1330 C 0.57783 0.09724 0.65521 0.0
C1331 C 0.58819 0.113 0.64953 0.0
C1332 C 0.55907 0.09802 0.65227 0.0
C1333 C 0.51951 0.12605 0.61433 0.0
H1334 H 0.49634 0.09665 0.70404 0.0
C1335 C 0.44218 0.12805 0.64467 0.0
C1336 C 0.43413 0.11133 0.65585 0.0
C1337 C 0.46088 0.12928 0.64038 0.0
C1338 C 0.50252 0.10479 0.67838 0.0
H1339 H 0.58701 0.1419 0.63432 0.0
H1340 H 0.554 0.14335 0.62946 0.0
H1341 H 0.52889 0.09699 0.7026 0.0
H1342 H 0.43917 0.08268 0.66883 0.0
H1343 H 0.47145 0.08473 0.66078 0.0
H1344 H 0.49288 0.13384 0.59034 0.0
C1345 C 0.56046 0.13033 0.63603 0.0
C1346 C 0.52125 0.10499 0.67755 0.0
C1347 C 0.57936 0.12953 0.63889 0.0
C1348 C 0.44499 0.09581 0.66074 0.0
C1349 C 0.46355 0.09701 0.65639 0.0
C1350 C 0.50063 0.12585 0.61518 0.0
C1351 C 0.55008 0.11462 0.64377 0.0
C1352 C 0.53004 0.11537 0.64515 0.0
C1353 C 0.47185 0.1138 0.64722 0.0
C1354 C 0.4919 0.11497 0.64685 0.0
H1355 H 0.58423 0.08426 0.66293 0.0
H1356 H 0.55157 0.08557 0.65729 0.0
H1357 H 0.52582 0.13419 0.58888 0.0
H1358 H 0.43413 0.14025 0.64064 0.0
H1359 H 0.46681 0.14243 0.63332 0.0
C1360 C 0.90252 0.18537 0.8279 0.0
C1361 C 0.8879 0.17508 0.81235 0.0
C1362 C 0.90316 0.20399 0.81874 0.0
C1363 C 0.88357 0.24335 0.75392 0.0
H1364 H 0.8956 0.26743 0.86174 0.0
C1365 C 0.87545 0.32131 0.77983 0.0
C1366 C 0.88862 0.32896 0.8079 0.0
C1367 C 0.87579 0.30268 0.77247 0.0
C1368 C 0.89246 0.261 0.8311 0.0
H1369 H 0.86303 0.17595 0.77251 0.0
H1370 H 0.86398 0.20891 0.75684 0.0
H1371 H 0.89551 0.23469 0.86229 0.0
H1372 H 0.9133 0.32366 0.84682 0.0
H1373 H 0.91425 0.2916 0.83296 0.0
H1374 H 0.88042 0.27003 0.72303 0.0
C1375 C 0.87504 0.20244 0.7758 0.0
C1376 C 0.89239 0.24217 0.83143 0.0
C1377 C 0.8745 0.1836 0.78467 0.0
C1378 C 0.90283 0.31807 0.82556 0.0
C1379 C 0.90329 0.29966 0.81783 0.0
C1380 C 0.88367 0.26239 0.75356 0.0
C1381 C 0.88904 0.2129 0.79435 0.0
C1382 C 0.88827 0.23306 0.79281 0.0
C1383 C 0.88938 0.29154 0.79286 0.0
C1384 C 0.88845 0.27141 0.7921 0.0
H1385 H 0.91315 0.17911 0.84888 0.0
H1386 H 0.91437 0.21157 0.83252 0.0
H1387 H 0.88023 0.23671 0.72369 0.0
H1388 H 0.8643 0.32943 0.76598 0.0
H1389 H 0.86488 0.29685 0.753 0.0
C1390 C 0.64623 0.81951 0.29532 0.0
C1391 C 0.63312 0.82792 0.31907 0.0
C1392 C 0.64577 0.80068 0.29057 0.0
C1393 C 0.62921 0.76033 0.35106 0.0
H1394 H 0.64051 0.73359 0.24952 0.0
C1395 C 0.61951 0.68418 0.35619 0.0
C1396 C 0.6335 0.67356 0.34216 0.0
C1397 C 0.61887 0.70273 0.34573 0.0
C1398 C 0.63746 0.7409 0.2782 0.0
H1399 H 0.6084 0.82356 0.35288 0.0
H1400 H 0.60735 0.79109 0.34378 0.0
H1401 H 0.64041 0.76691 0.24439 0.0
H1402 H 0.65726 0.67371 0.30382 0.0
H1403 H 0.6564 0.70654 0.28605 0.0
H1404 H 0.6265 0.73471 0.38526 0.0
C1405 C 0.61831 0.79879 0.32996 0.0
C1406 C 0.63739 0.75996 0.27525 0.0
C1407 C 0.61885 0.81744 0.33497 0.0
C1408 C 0.6463 0.68165 0.31497 0.0
C1409 C 0.64579 0.70041 0.30484 0.0
C1410 C 0.62931 0.74147 0.35401 0.0
C1411 C 0.63214 0.79004 0.30937 0.0
C1412 C 0.63295 0.76986 0.31155 0.0
C1413 C 0.63241 0.71126 0.32155 0.0
C1414 C 0.63312 0.73145 0.31751 0.0
H1415 H 0.65744 0.82725 0.28289 0.0
H1416 H 0.65661 0.79435 0.27449 0.0
H1417 H 0.62629 0.76748 0.3801 0.0
H1418 H 0.60934 0.67823 0.37671 0.0
H1419 H 0.60806 0.71054 0.35802 0.0
C1420 C 0.90152 0.68368 0.19578 0.0
C1421 C 0.88981 0.67073 0.21394 0.0
C1422 C 0.90218 0.70126 0.21067 0.0
C1423 C 0.87447 0.73515 0.257 0.0
H1424 H 0.91976 0.76079 0.27061 0.0
C1425 C 0.87708 0.81334 0.26781 0.0
C1426 C 0.88891 0.82151 0.23821 0.0
C1427 C 0.87801 0.79459 0.278 0.0
C1428 C 0.90698 0.75385 0.26701 0.0
H1429 H 0.86977 0.66598 0.26253 0.0
H1430 H 0.87065 0.69701 0.28802 0.0
H1431 H 0.91975 0.7281 0.26296 0.0
H1432 H 0.91166 0.81682 0.19847 0.0
H1433 H 0.91335 0.78458 0.2161 0.0
H1434 H 0.86171 0.76105 0.25847 0.0
C1435 C 0.87942 0.69341 0.26246 0.0
C1436 C 0.90699 0.73512 0.2627 0.0
C1437 C 0.87899 0.67566 0.24803 0.0
C1438 C 0.90232 0.81089 0.2213 0.0
C1439 C 0.90336 0.79236 0.23172 0.0
C1440 C 0.87446 0.75398 0.26095 0.0
C1441 C 0.89097 0.70642 0.2437 0.0
C1442 C 0.89077 0.72564 0.25615 0.0
C1443 C 0.89095 0.78383 0.25924 0.0
C1444 C 0.89075 0.76364 0.26438 0.0
H1445 H 0.91007 0.68032 0.16957 0.0
H1446 H 0.91106 0.711 0.19518 0.0
H1447 H 0.86176 0.72823 0.25182 0.0
H1448 H 0.86653 0.82119 0.28107 0.0
H1449 H 0.86832 0.78846 0.29957 0.0
C1450 C 0.61835 0.18564 0.67759 0.0
C1451 C 0.63221 0.17453 0.6963 0.0
C1452 C 0.61764 0.20394 0.68651 0.0
C1453 C 0.63588 0.24003 0.75739 0.0
H1454 H 0.62349 0.27009 0.65267 0.0
C1455 C 0.64296 0.31962 0.73693 0.0
C1456 C 0.62898 0.32832 0.71148 0.0
C1457 C 0.64309 0.30063 0.74312 0.0
C1458 C 0.62679 0.26192 0.6824 0.0
H1459 H 0.65574 0.17368 0.74095 0.0
H1460 H 0.65478 0.20603 0.75595 0.0
H1461 H 0.62437 0.2375 0.64819 0.0
H1462 H 0.60342 0.32426 0.67628 0.0
H1463 H 0.60347 0.29149 0.68773 0.0
H1464 H 0.6386 0.26491 0.79115 0.0
C1465 C 0.6443 0.20045 0.73472 0.0
C1466 C 0.62725 0.24316 0.67988 0.0
C1467 C 0.64487 0.18194 0.72615 0.0
C1468 C 0.61449 0.31791 0.69559 0.0
C1469 C 0.61456 0.29912 0.70194 0.0
C1470 C 0.63551 0.25899 0.75987 0.0
C1471 C 0.63098 0.21179 0.71381 0.0
C1472 C 0.63144 0.23188 0.71741 0.0
C1473 C 0.62922 0.29016 0.724 0.0
C1474 C 0.63061 0.2701 0.72246 0.0
H1475 H 0.60822 0.18027 0.655 0.0
H1476 H 0.60685 0.21207 0.67092 0.0
H1477 H 0.63921 0.23176 0.78692 0.0
H1478 H 0.65435 0.32732 0.7493 0.0
H1479 H 0.65455 0.29411 0.76036 0.0
C1480 C 0.94127 0.37211 0.8744 0.0
C1481 C 0.93319 0.38883 0.86156 0.0
C1482 C 0.96007 0.37071 0.88084 0.0
C1483 C 1.00149 0.3987 0.89875 0.0
H1484 H 0.02615 0.35862 0.85043 0.0
C1485 C 0.0768 0.40219 0.86314 0.0
C1486 C 0.08752 0.3866 0.86993 0.0
C1487 C 0.0582 0.40136 0.86775 0.0
C1488 C 0.0195 0.36977 0.86475 0.0
H1489 H 0.9385 0.41722 0.84647 0.0
H1490 H 0.97099 0.41484 0.85755 0.0
H1491 H 0.99328 0.35911 0.84862 0.0
H1492 H 0.08709 0.3579 0.8877 0.0
H1493 H 0.05443 0.3564 0.89586 0.0
H1494 H 0.02761 0.40954 0.91419 0.0
C1495 C 0.96295 0.40278 0.86305 0.0
C1496 C 1.0006 0.37005 0.86372 0.0
C1497 C 0.94427 0.40414 0.85641 0.0
C1498 C 0.0792 0.37015 0.88227 0.0
C1499 C 0.06047 0.36928 0.88663 0.0
C1500 C 0.02032 0.39842 0.89975 0.0
C1501 C 0.9712 0.38603 0.87499 0.0
C1502 C 0.99131 0.38472 0.87991 0.0
C1503 C 0.04969 0.38489 0.8792 0.0
C1504 C 0.02963 0.38415 0.88197 0.0
H1505 H 0.9331 0.36005 0.87858 0.0
H1506 H 0.96589 0.35763 0.89042 0.0
H1507 H 0.99488 0.41002 0.91247 0.0
H1508 H 0.08277 0.41507 0.85354 0.0
H1509 H 0.05042 0.41361 0.8611 0.0
C1510 C 0.43737 0.63068 0.3972 0.0
C1511 C 0.43016 0.61469 0.38039 0.0
C1512 C 0.45593 0.6323 0.40647 0.0
C1513 C 0.496 0.63634 0.39156 0.0
H1514 H 0.52533 0.59549 0.43527 0.0
C1515 C 0.57116 0.63166 0.35955 0.0
C1516 C 0.58321 0.62388 0.392 0.0
C1517 C 0.55268 0.63172 0.36541 0.0
C1518 C 0.51735 0.60712 0.42363 0.0
H1519 H 0.43664 0.58767 0.36163 0.0
H1520 H 0.4689 0.59051 0.37733 0.0
H1521 H 0.49258 0.59301 0.43374 0.0
H1522 H 0.5852 0.61037 0.4567 0.0
H1523 H 0.55266 0.6104 0.467 0.0
H1524 H 0.52073 0.6504 0.38106 0.0
C1525 C 0.4603 0.60177 0.38381 0.0
C1526 C 0.49855 0.60564 0.42225 0.0
C1527 C 0.44179 0.60018 0.37447 0.0
C1528 C 0.57629 0.61649 0.43109 0.0
C1529 C 0.55766 0.61641 0.43684 0.0
C1530 C 0.51477 0.63781 0.39285 0.0
C1531 C 0.46768 0.61795 0.39932 0.0
C1532 C 0.48762 0.6201 0.40534 0.0
C1533 C 0.54562 0.62394 0.40386 0.0
C1534 C 0.52571 0.62309 0.40796 0.0
H1535 H 0.42872 0.64207 0.40232 0.0
H1536 H 0.46108 0.64488 0.41891 0.0
H1537 H 0.48809 0.64773 0.37806 0.0
H1538 H 0.57596 0.63756 0.32905 0.0
H1539 H 0.54387 0.6374 0.33902 0.0
C1540 C 0.44011 0.40147 0.68851 0.0
C1541 C 0.42962 0.38573 0.6851 0.0
C1542 C 0.45866 0.40105 0.6831 0.0
C1543 C 0.49599 0.37444 0.64055 0.0
H1544 H 0.52484 0.40283 0.72122 0.0
C1545 C 0.5751 0.37308 0.6547 0.0
C1546 C 0.58373 0.38966 0.66255 0.0
C1547 C 0.55622 0.3717 0.65456 0.0
C1548 C 0.51704 0.39498 0.69799 0.0
H1549 H 0.43035 0.35724 0.67174 0.0
H1550 H 0.46295 0.35642 0.66254 0.0
H1551 H 0.49241 0.40196 0.72623 0.0
H1552 H 0.57923 0.41793 0.6741 0.0
H1553 H 0.54663 0.41565 0.67319 0.0
H1554 H 0.52087 0.36745 0.61251 0.0
C1555 C 0.45676 0.36916 0.66923 0.0
C1556 C 0.49834 0.39448 0.70088 0.0
C1557 C 0.43807 0.3696 0.67462 0.0
C1558 C 0.57305 0.40491 0.66843 0.0
C1559 C 0.55431 0.40356 0.66823 0.0
C1560 C 0.51481 0.37493 0.63767 0.0
C1561 C 0.46737 0.38484 0.67426 0.0
C1562 C 0.48746 0.38444 0.67184 0.0
C1563 C 0.54558 0.38687 0.66231 0.0
C1564 C 0.52558 0.38545 0.66598 0.0
H1565 H 0.43402 0.41417 0.69606 0.0
H1566 H 0.46621 0.41351 0.68612 0.0
H1567 H 0.48809 0.3666 0.61751 0.0
H1568 H 0.58295 0.36106 0.6501 0.0
H1569 H 0.55001 0.35862 0.64994 0.0
C1570 C 0.07872 0.59748 0.15708 0.0
C1571 C 0.08908 0.61321 0.15071 0.0
C1572 C 0.05997 0.59829 0.15471 0.0
C1573 C 0.02024 0.62603 0.11728 0.0
H1574 H 0.99777 0.59748 0.20964 0.0
C1575 C 0.94311 0.62796 0.1499 0.0
C1576 C 0.93525 0.6113 0.16242 0.0
C1577 C 0.96178 0.62927 0.14505 0.0
C1578 C 1.00375 0.60538 0.18326 0.0
H1579 H 0.08788 0.64206 0.13475 0.0
H1580 H 0.05485 0.64354 0.13082 0.0
H1581 H 0.03028 0.59786 0.20683 0.0
H1582 H 0.94056 0.58281 0.17726 0.0
H1583 H 0.97276 0.58498 0.16822 0.0
H1584 H 0.99346 0.6335 0.09385 0.0
C1585 C 0.06133 0.63054 0.13755 0.0
C1586 C 0.02246 0.6056 0.18166 0.0
C1587 C 0.08023 0.62971 0.13986 0.0
C1588 C 0.94624 0.5959 0.16815 0.0
C1589 C 0.96475 0.59717 0.16323 0.0
C1590 C 1.00139 0.62579 0.11886 0.0
C1591 C 0.05098 0.61488 0.14609 0.0
C1592 C 0.03099 0.61566 0.14828 0.0
C1593 C 0.97288 0.61392 0.15264 0.0
C1594 C 0.9929 0.6152 0.15152 0.0
H1595 H 0.08513 0.58452 0.16496 0.0
H1596 H 0.05247 0.58588 0.16036 0.0
H1597 H 0.02636 0.63392 0.09111 0.0
H1598 H 0.93495 0.64006 0.14517 0.0
H1599 H 0.96757 0.64238 0.1369 0.0
C1600 C 0.15037 0.55247 0.11958 0.0
C1601 C 0.14801 0.56868 0.09395 0.0
C1602 C 0.15114 0.53579 0.09951 0.0
C1603 C 0.13927 0.51461 0.99276 0.0
H1604 H 0.16911 0.47523 0.04263 0.0
C1605 C 0.14877 0.44794 0.90297 0.0
C1606 C 0.14708 0.43182 0.92887 0.0
C1607 C 0.14986 0.46474 0.9226 0.0
C1608 C 0.16064 0.48608 0.02839 0.0
H1609 H 0.14534 0.58005 0.02698 0.0
H1610 H 0.14725 0.55133 0.99233 0.0
H1611 H 0.16924 0.50413 0.07818 0.0
H1612 H 0.14566 0.42079 0.99594 0.0
H1613 H 0.14771 0.4499 0.02985 0.0
H1614 H 0.13084 0.49657 0.94274 0.0
C1615 C 0.1479 0.55127 0.0279 0.0
C1616 C 0.16064 0.50266 0.04892 0.0
C1617 C 0.14693 0.56784 0.04788 0.0
C1618 C 0.1469 0.4329 0.97485 0.0
C1619 C 0.1482 0.44961 0.99443 0.0
C1620 C 0.13941 0.49811 0.97205 0.0
C1621 C 0.14975 0.53493 0.05332 0.0
C1622 C 0.14991 0.51718 0.03149 0.0
C1623 C 0.14952 0.46577 0.9686 0.0
C1624 C 0.15002 0.4836 0.98968 0.0
H1625 H 0.15117 0.55262 0.15513 0.0
H1626 H 0.15239 0.52353 0.12033 0.0
H1627 H 0.13051 0.52524 0.9787 0.0
H1628 H 0.14893 0.44762 0.8675 0.0
H1629 H 0.15101 0.47693 0.90177 0.0
C1630 C 0.69938 0.88639 0.33972 0.0
C1631 C 0.69181 0.87047 0.35808 0.0
C1632 C 0.7161 0.886 0.3203 0.0
C1633 C 0.74721 0.85602 0.2674 0.0
H1634 H 0.78364 0.89137 0.29818 0.0
C1635 C 0.81953 0.85133 0.20471 0.0
C1636 C 0.82929 0.86736 0.19694 0.0
C1637 C 0.80293 0.85164 0.22477 0.0
C1638 C 0.7736 0.88155 0.2884 0.0
H1639 H 0.69574 0.84161 0.36973 0.0
H1640 H 0.72475 0.84084 0.33499 0.0
H1641 H 0.75442 0.89223 0.3308 0.0
H1642 H 0.8292 0.89635 0.20395 0.0
H1643 H 0.80006 0.89712 0.23705 0.0
H1644 H 0.76597 0.84563 0.22395 0.0
C1645 C 0.71782 0.85366 0.33591 0.0
C1646 C 0.7568 0.88201 0.30744 0.0
C1647 C 0.70123 0.85411 0.35601 0.0
C1648 C 0.82204 0.88374 0.20961 0.0
C1649 C 0.80532 0.88411 0.22904 0.0
C1650 C 0.76389 0.85572 0.24776 0.0
C1651 C 0.72555 0.86962 0.31805 0.0
C1652 C 0.7434 0.86921 0.29736 0.0
C1653 C 0.79543 0.86806 0.23709 0.0
C1654 C 0.77746 0.86844 0.25799 0.0
H1655 H 0.69244 0.89921 0.34068 0.0
H1656 H 0.72156 0.89851 0.30654 0.0
H1657 H 0.73713 0.84608 0.25847 0.0
H1658 H 0.82482 0.83846 0.19572 0.0
H1659 H 0.79614 0.83889 0.23107 0.0
C1660 C 0.36905 0.44615 0.64524 0.0
C1661 C 0.3698 0.43015 0.62228 0.0
C1662 C 0.36812 0.46307 0.62239 0.0
C1663 C 0.37717 0.48496 0.51291 0.0
H1664 H 0.35035 0.52491 0.5552 0.0
C1665 C 0.36784 0.5532 0.41279 0.0
C1666 C 0.37103 0.56885 0.43646 0.0
C1667 C 0.36658 0.5362 0.43486 0.0
C1668 C 0.35797 0.51389 0.5431 0.0
H1669 H 0.3694 0.41938 0.55722 0.0
H1670 H 0.36723 0.44862 0.51769 0.0
H1671 H 0.35008 0.49549 0.59512 0.0
H1672 H 0.37496 0.57889 0.50205 0.0
H1673 H 0.37265 0.54937 0.54024 0.0
H1674 H 0.38493 0.50336 0.46073 0.0
C1675 C 0.36795 0.44827 0.55329 0.0
C1676 C 0.35788 0.49703 0.56608 0.0
C1677 C 0.36907 0.43143 0.57605 0.0
C1678 C 0.37255 0.56714 0.48268 0.0
C1679 C 0.37111 0.55021 0.50469 0.0
C1680 C 0.37712 0.50175 0.48977 0.0
C1681 C 0.36774 0.46436 0.57606 0.0
C1682 C 0.36754 0.48233 0.55141 0.0
C1683 C 0.36826 0.53452 0.48107 0.0
C1684 C 0.36761 0.51645 0.50469 0.0
H1685 H 0.36967 0.44563 0.68086 0.0
H1686 H 0.36817 0.47514 0.64114 0.0
H1687 H 0.38509 0.47412 0.50099 0.0
H1688 H 0.36661 0.55403 0.3772 0.0
H1689 H 0.36424 0.52437 0.41576 0.0
C1690 C 0.81961 0.14599 0.83853 0.0
C1691 C 0.82927 0.12982 0.84737 0.0
C1692 C 0.80287 0.14592 0.81545 0.0
C1693 C 0.76405 0.11693 0.78947 0.0
H1694 H 0.75395 0.15182 0.69253 0.0
C1695 C 0.69797 0.11367 0.68139 0.0
C1696 C 0.69037 0.12993 0.66357 0.0
C1697 C 0.71497 0.11355 0.70325 0.0
C1698 C 0.75633 0.14215 0.71996 0.0
H1699 H 0.82897 0.10089 0.83901 0.0
H1700 H 0.79949 0.10069 0.79955 0.0
H1701 H 0.78321 0.15195 0.73193 0.0
H1702 H 0.69444 0.15887 0.65542 0.0
H1703 H 0.72372 0.15886 0.69486 0.0
H1704 H 0.7371 0.10745 0.77878 0.0
C1705 C 0.80492 0.11344 0.81033 0.0
C1706 C 0.77321 0.14218 0.74241 0.0
C1707 C 0.82181 0.11356 0.83278 0.0
C1708 C 0.70004 0.1461 0.66844 0.0
C1709 C 0.71693 0.14604 0.69087 0.0
C1710 C 0.74706 0.11707 0.7675 0.0
C1711 C 0.79526 0.12963 0.80129 0.0
C1712 C 0.7773 0.12955 0.77735 0.0
C1713 C 0.72474 0.12975 0.70853 0.0
C1714 C 0.74291 0.12965 0.73225 0.0
H1715 H 0.82505 0.15874 0.84922 0.0
H1716 H 0.79573 0.15859 0.80926 0.0
H1717 H 0.7667 0.10716 0.81661 0.0
H1718 H 0.69084 0.10098 0.67805 0.0
H1719 H 0.72052 0.10066 0.71547 0.0
C1720 C 0.87403 0.54974 0.12241 0.0
C1721 C 0.8766 0.56629 0.09884 0.0
C1722 C 0.87272 0.53349 0.10042 0.0
C1723 C 0.86297 0.51507 0.9906 0.0
H1724 H 0.89087 0.47386 0.03779 0.0
C1725 C 0.873 0.45061 0.89162 0.0
C1726 C 0.87412 0.43388 0.91546 0.0
C1727 C 0.87234 0.46685 0.91369 0.0
C1728 C 0.88274 0.48511 0.02436 0.0
H1729 H 0.87937 0.57869 0.03341 0.0
H1730 H 0.87701 0.55055 0.99551 0.0
H1731 H 0.89088 0.50157 0.07779 0.0
H1732 H 0.87458 0.42109 0.98115 0.0
H1733 H 0.87289 0.44903 0.01905 0.0
H1734 H 0.85471 0.49859 0.9373 0.0
C1735 C 0.87597 0.55007 0.03088 0.0
C1736 C 0.88278 0.50103 0.0474 0.0
C1737 C 0.87746 0.56622 0.05279 0.0
C1738 C 0.87399 0.43373 0.96162 0.0
C1739 C 0.87315 0.44984 0.98352 0.0
C1740 C 0.8628 0.49907 0.96768 0.0
C1741 C 0.87372 0.53348 0.05436 0.0
C1742 C 0.87296 0.51625 0.03076 0.0
C1743 C 0.87262 0.46668 0.96004 0.0
C1744 C 0.87272 0.48385 0.98419 0.0
H1745 H 0.87331 0.5493 0.15785 0.0
H1746 H 0.87086 0.52093 0.11944 0.0
H1747 H 0.85512 0.5265 0.97705 0.0
H1748 H 0.87313 0.4512 0.85607 0.0
H1749 H 0.87209 0.47954 0.89441 0.0
C1750 C 0.2091 0.12079 0.84596 0.0
C1751 C 0.19386 0.11851 0.81764 0.0
C1752 C 0.22641 0.12122 0.82954 0.0
C1753 C 0.25228 0.10708 0.73653 0.0
H1754 H 0.28558 0.14513 0.76919 0.0
C1755 C 0.32625 0.10877 0.68444 0.0
C1756 C 0.33256 0.12551 0.66755 0.0
C1757 C 0.30973 0.10759 0.70459 0.0
C1758 C 0.27642 0.13444 0.75971 0.0
H1759 H 0.18501 0.11458 0.74985 0.0
H1760 H 0.21507 0.11507 0.72162 0.0
H1761 H 0.25603 0.14338 0.80119 0.0
H1762 H 0.32669 0.15417 0.65918 0.0
H1763 H 0.29788 0.15215 0.69473 0.0
H1764 H 0.27259 0.09818 0.6949 0.0
C1765 C 0.21367 0.11657 0.75647 0.0
C1766 C 0.25956 0.13334 0.77835 0.0
C1767 C 0.1964 0.11639 0.7727 0.0
C1768 C 0.32214 0.14108 0.67176 0.0
C1769 C 0.3057 0.13993 0.69238 0.0
C1770 C 0.26921 0.10804 0.71835 0.0
C1771 C 0.2289 0.1191 0.78457 0.0
C1772 C 0.24721 0.11975 0.76663 0.0
C1773 C 0.29923 0.12315 0.70879 0.0
C1774 C 0.28144 0.12182 0.72939 0.0
H1775 H 0.20766 0.12252 0.8807 0.0
H1776 H 0.23788 0.12308 0.8521 0.0
H1777 H 0.24315 0.09637 0.72704 0.0
H1778 H 0.33402 0.09654 0.68181 0.0
H1779 H 0.30523 0.09449 0.71724 0.0
C1780 C 0.63685 0.56935 0.43113 0.0
C1781 C 0.64292 0.57045 0.38806 0.0
C1782 C 0.63835 0.5532 0.45691 0.0
C1783 C 0.63943 0.50427 0.44864 0.0
H1784 H 0.65861 0.50299 0.56929 0.0
C1785 C 0.64645 0.43645 0.54854 0.0
C1786 C 0.64373 0.43591 0.59389 0.0
C1787 C 0.64775 0.45294 0.52457 0.0
C1788 C 0.65295 0.50308 0.53592 0.0
H1789 H 0.65519 0.5554 0.33815 0.0
H1790 H 0.65731 0.52689 0.38286 0.0
H1791 H 0.6582 0.5315 0.52532 0.0
H1792 H 0.64049 0.45233 0.64985 0.0
H1793 H 0.64195 0.48129 0.60774 0.0
H1794 H 0.63334 0.47624 0.45921 0.0
C1795 C 0.65162 0.53868 0.39678 0.0
C1796 C 0.65284 0.51944 0.51062 0.0
C1797 C 0.65045 0.55498 0.37123 0.0
C1798 C 0.64267 0.45232 0.61497 0.0
C1799 C 0.64359 0.46894 0.5907 0.0
C1800 C 0.63922 0.48801 0.47408 0.0
C1801 C 0.64558 0.53762 0.43992 0.0
C1802 C 0.64615 0.5202 0.46663 0.0
C1803 C 0.64593 0.46949 0.54493 0.0
C1804 C 0.64608 0.48707 0.5181 0.0
H1805 H 0.63074 0.58095 0.44487 0.0
H1806 H 0.63338 0.55277 0.48978 0.0
H1807 H 0.63389 0.50449 0.41511 0.0
H1808 H 0.64761 0.42403 0.53138 0.0
H1809 H 0.65016 0.45262 0.48987 0.0
C1810 C 0.32188 0.85945 0.33414 0.0
C1811 C 0.33202 0.87539 0.33811 0.0
C1812 C 0.30452 0.85989 0.31403 0.0
C1813 C 0.27275 0.88975 0.24306 0.0
H1814 H 0.23762 0.85438 0.28178 0.0
C1815 C 0.19653 0.89287 0.18671 0.0
C1816 C 0.18885 0.87654 0.17303 0.0
C1817 C 0.2139 0.89315 0.20696 0.0
C1818 C 0.24729 0.8643 0.27039 0.0
H1819 H 0.33183 0.90436 0.3241 0.0
H1820 H 0.30136 0.90535 0.29072 0.0
H1821 H 0.26766 0.85427 0.31702 0.0
H1822 H 0.1933 0.84768 0.1706 0.0
H1823 H 0.22335 0.8481 0.20667 0.0
H1824 H 0.25198 0.90004 0.19726 0.0
C1825 C 0.30688 0.89233 0.30193 0.0
C1826 C 0.26466 0.86419 0.29046 0.0
C1827 C 0.32437 0.89182 0.32147 0.0
C1828 C 0.19884 0.86049 0.1806 0.0
C1829 C 0.21604 0.86072 0.2015 0.0
C1830 C 0.25526 0.89002 0.22349 0.0
C1831 C 0.2966 0.87636 0.29783 0.0
C1832 C 0.2778 0.87681 0.27692 0.0
C1833 C 0.22387 0.87705 0.21479 0.0
C1834 C 0.24234 0.8772 0.23662 0.0
H1835 H 0.32746 0.84653 0.34621 0.0
H1836 H 0.29743 0.84719 0.31079 0.0
H1837 H 0.28238 0.89952 0.23087 0.0
H1838 H 0.18917 0.90546 0.18146 0.0
H1839 H 0.21945 0.90594 0.21706 0.0
C1840 C 0.64869 0.95004 0.39616 0.0
C1841 C 0.64989 0.93358 0.42119 0.0
C1842 C 0.6494 0.96663 0.41686 0.0
C1843 C 0.64324 0.98586 0.52632 0.0
H1844 H 0.66574 0.02842 0.4738 0.0
C1845 C 0.65182 0.05288 0.61751 0.0
C1846 C 0.64739 0.06886 0.5925 0.0
C1847 C 0.65314 0.03632 0.59713 0.0
C1848 C 0.65931 0.01668 0.48881 0.0
H1849 H 0.6536 0.92178 0.48764 0.0
H1850 H 0.6553 0.95039 0.52316 0.0
H1851 H 0.66615 0.99991 0.43665 0.0
H1852 H 0.64123 0.07989 0.52615 0.0
H1853 H 0.64358 0.05125 0.49105 0.0
H1854 H 0.63647 0.00263 0.57854 0.0
C1855 C 0.65323 0.95063 0.48773 0.0
C1856 C 0.65948 1.00032 0.46739 0.0
C1857 C 0.65237 0.93414 0.46718 0.0
C1858 C 0.64463 0.0679 0.54663 0.0
C1859 C 0.6461 0.05145 0.52632 0.0
C1860 C 0.64317 0.00217 0.54784 0.0
C1861 C 0.65145 0.96714 0.46305 0.0
C1862 C 0.65141 0.98466 0.48576 0.0
C1863 C 0.65027 0.03542 0.55124 0.0
C1864 C 0.65112 0.01782 0.52929 0.0
H1865 H 0.64671 0.95011 0.36071 0.0
H1866 H 0.64784 0.97903 0.39669 0.0
H1867 H 0.63654 0.97425 0.5412 0.0
H1868 H 0.65403 0.05312 0.65286 0.0
H1869 H 0.65652 0.02424 0.61727 0.0
C1870 C 0.1974 0.38649 0.84624 0.0
C1871 C 0.18984 0.3703 0.8631 0.0
C1872 C 0.21411 0.38645 0.82664 0.0
C1873 C 0.24507 0.35719 0.77079 0.0
H1874 H 0.28165 0.39208 0.80364 0.0
C1875 C 0.31747 0.35267 0.70871 0.0
C1876 C 0.32731 0.36871 0.70164 0.0
C1877 C 0.30083 0.35292 0.72855 0.0
C1878 C 0.27156 0.3824 0.7933 0.0
H1879 H 0.19381 0.34132 0.87189 0.0
H1880 H 0.22276 0.34119 0.83696 0.0
H1881 H 0.25245 0.39268 0.83646 0.0
H1882 H 0.3273 0.39764 0.70966 0.0
H1883 H 0.29809 0.39829 0.74247 0.0
H1884 H 0.26379 0.34718 0.72671 0.0
C1885 C 0.21583 0.35395 0.83915 0.0
C1886 C 0.25477 0.38271 0.81243 0.0
C1887 C 0.19928 0.35404 0.85939 0.0
C1888 C 0.32008 0.38502 0.71477 0.0
C1889 C 0.30332 0.38533 0.73402 0.0
C1890 C 0.26175 0.35704 0.75111 0.0
C1891 C 0.22354 0.37016 0.82269 0.0
C1892 C 0.24133 0.37005 0.80164 0.0
C1893 C 0.29337 0.36927 0.74137 0.0
C1894 C 0.27537 0.36958 0.76215 0.0
H1895 H 0.19044 0.39924 0.84847 0.0
H1896 H 0.21955 0.39916 0.81401 0.0
H1897 H 0.23496 0.34738 0.76126 0.0
H1898 H 0.32274 0.33985 0.69934 0.0
H1899 H 0.29396 0.34016 0.7343 0.0
C1900 C 0.87107 0.94463 0.1409 0.0
C1901 C 0.87252 0.92891 0.11713 0.0
C1902 C 0.87013 0.96174 0.11902 0.0
C1903 C 0.85931 0.98489 1.01068 0.0
H1904 H 0.88985 0.0231 0.05516 0.0
C1905 C 0.87032 0.05254 0.91074 0.0
C1906 C 0.87248 0.0684 0.93408 0.0
C1907 C 0.86945 0.03557 0.93317 0.0
C1908 C 0.88099 0.01271 0.04256 0.0
H1909 H 0.87368 0.91888 0.05151 0.0
H1910 H 0.87191 0.94861 0.0136 0.0
H1911 H 0.88945 0.9937 0.09465 0.0
H1912 H 0.87485 0.07887 0.99944 0.0
H1913 H 0.87284 0.04954 0.03827 0.0
H1914 H 0.85072 0.0039 0.95878 0.0
C1915 C 0.87149 0.94774 0.04911 0.0
C1916 C 0.88081 0.99582 0.06526 0.0
C1917 C 0.87262 0.93068 0.07095 0.0
C1918 C 0.87336 0.06693 0.98031 0.0
C1919 C 0.87233 0.05004 1.00267 0.0
C1920 C 0.85938 0.00185 0.98814 0.0
C1921 C 0.8704 0.96349 0.07286 0.0
C1922 C 0.87003 0.98167 0.04951 0.0
C1923 C 0.87058 0.03407 0.97949 0.0
C1924 C 0.87027 0.016 1.00367 0.0
H1925 H 0.87097 0.94377 0.17646 0.0
H1926 H 0.86913 0.97362 0.13824 0.0
H1927 H 0.85071 0.97432 0.99793 0.0
H1928 H 0.86968 0.05317 0.87512 0.0
H1929 H 0.86832 0.0236 0.9141 0.0
C1930 C 0.20044 0.64655 0.16909 0.0
C1931 C 0.19103 0.63024 0.16372 0.0
C1932 C 0.21716 0.64668 0.19231 0.0
C1933 C 0.25629 0.61827 0.225 0.0
H1934 H 0.2652 0.65224 0.31657 0.0
C1935 C 0.32125 0.61441 0.33755 0.0
C1936 C 0.32857 0.63053 0.35325 0.0
C1937 C 0.3045 0.61441 0.31456 0.0
C1938 C 0.26315 0.64285 0.29062 0.0
H1939 H 0.19175 0.60127 0.17824 0.0
H1940 H 0.22116 0.60143 0.21784 0.0
H1941 H 0.23625 0.6524 0.27566 0.0
H1942 H 0.32428 0.65936 0.35645 0.0
H1943 H 0.29544 0.6596 0.315 0.0
H1944 H 0.28325 0.60903 0.23864 0.0
C1945 C 0.21558 0.61413 0.20428 0.0
C1946 C 0.24646 0.6429 0.26731 0.0
C1947 C 0.19872 0.61404 0.18174 0.0
C1948 C 0.31888 0.6467 0.34511 0.0
C1949 C 0.30224 0.64677 0.32153 0.0
C1950 C 0.2731 0.6184 0.24778 0.0
C1951 C 0.22496 0.63046 0.21 0.0
C1952 C 0.2428 0.63056 0.23439 0.0
C1953 C 0.29471 0.63061 0.30601 0.0
C1954 C 0.27679 0.63063 0.28117 0.0
H1955 H 0.1948 0.65925 0.15574 0.0
H1956 H 0.2241 0.65945 0.19596 0.0
H1957 H 0.25396 0.60873 0.19944 0.0
H1958 H 0.3284 0.60172 0.34345 0.0
H1959 H 0.29914 0.60161 0.30408 0.0
C1960 C 0.37778 0.93557 0.45525 0.0
C1961 C 0.37632 0.93518 0.40907 0.0
C1962 C 0.3762 0.95181 0.47629 0.0
C1963 C 0.38195 0.00081 0.45967 0.0
H1964 H 0.35521 0.00288 0.56552 0.0
C1965 C 0.37452 0.06771 0.54641 0.0
C1966 C 0.37528 0.06721 0.59266 0.0
C1967 C 0.37332 0.05177 0.52365 0.0
C1968 C 0.36293 0.00251 0.53635 0.0
H1969 H 0.37189 0.95166 0.34886 0.0
H1970 H 0.36933 0.98027 0.38583 0.0
H1971 H 0.35524 0.97505 0.52559 0.0
H1972 H 0.37507 0.04946 0.65126 0.0
H1973 H 0.37342 0.02146 0.61153 0.0
H1974 H 0.39009 0.02801 0.47084 0.0
C1975 C 0.3717 0.96787 0.4056 0.0
C1976 C 0.36286 0.98656 0.51331 0.0
C1977 C 0.37308 0.95149 0.38443 0.0
C1978 C 0.37446 0.05032 0.61565 0.0
C1979 C 0.37344 0.03427 0.59278 0.0
C1980 C 0.38214 0.0167 0.48287 0.0
C1981 C 0.37327 0.96819 0.45182 0.0
C1982 C 0.37244 0.98549 0.4748 0.0
C1983 C 0.37303 0.03479 0.5464 0.0
C1984 C 0.37266 0.01779 0.52162 0.0
H1985 H 0.3802 0.92328 0.47545 0.0
H1986 H 0.3777 0.95158 0.51184 0.0
H1987 H 0.3897 1.00034 0.43056 0.0
H1988 H 0.37487 0.08048 0.5275 0.0
H1989 H 0.37257 0.05282 0.48806 0.0
C1990 C 0.82093 0.63925 0.16102 0.0
C1991 C 0.83325 0.62493 0.16816 0.0
C1992 C 0.80418 0.63846 0.18012 0.0
C1993 C 0.77996 0.61903 0.27251 0.0
H1994 H 0.73726 0.62749 0.19674 0.0
C1995 C 0.70751 0.61188 0.33744 0.0
C1996 C 0.69392 0.62279 0.31657 0.0
C1997 C 0.72485 0.61177 0.32098 0.0
C1998 C 0.74898 0.62544 0.21878 0.0
H1999 H 0.83759 0.5985 0.20069 0.0
H2000 H 0.80854 0.59745 0.23548 0.0
H2001 H 0.76668 0.62838 0.16541 0.0
H2002 H 0.6881 0.64287 0.26377 0.0
H2003 H 0.71819 0.64348 0.23678 0.0
H2004 H 0.76241 0.61675 0.32623 0.0
C2005 C 0.81187 0.60923 0.21493 0.0
C2006 C 0.76588 0.62582 0.20057 0.0
C2007 C 0.82848 0.60984 0.19502 0.0
C2008 C 0.6982 0.63408 0.28018 0.0
C2009 C 0.71551 0.63427 0.26439 0.0
C2010 C 0.76303 0.619 0.29099 0.0
C2011 C 0.79949 0.62349 0.20744 0.0
C2012 C 0.78156 0.62268 0.22717 0.0
C2013 C 0.72905 0.62282 0.28375 0.0
C2014 C 0.74724 0.62234 0.26443 0.0
H2015 H 0.82419 0.65105 0.14048 0.0
H2016 H 0.79493 0.64968 0.1739 0.0
H2017 H 0.79185 0.61664 0.29385 0.0
H2018 H 0.70457 0.60297 0.36544 0.0
H2019 H 0.73476 0.60263 0.33677 0.0
C2020 C 0.1186 0.05998 0.88576 0.0
C2021 C 0.13386 0.07108 0.88291 0.0
C2022 C 0.119 0.0442 0.91328 0.0
C2023 C 0.12605 0.00635 0.95332 0.0
H2024 H 0.15522 0.00388 0.06229 0.0
C2025 C 0.14053 0.938 0.0456 0.0
C2026 C 0.14125 0.93696 0.09186 0.0
C2027 C 0.13978 0.95471 0.02221 0.0
C2028 C 0.14684 0.00434 0.03223 0.0
H2029 H 0.16155 0.07435 0.90631 0.0
H2030 H 0.16248 0.04668 0.95317 0.0
H2031 H 0.15283 0.03236 0.0187 0.0
H2032 H 0.14209 0.95285 0.14978 0.0
H2033 H 0.14038 0.98221 0.10884 0.0
H2034 H 0.11956 0.97858 0.96738 0.0
C2035 C 0.15001 0.05025 0.93518 0.0
C2036 C 0.14567 0.02067 1.00679 0.0
C2037 C 0.14955 0.06607 0.90794 0.0
C2038 C 0.14161 0.95317 0.11418 0.0
C2039 C 0.14067 0.97001 0.09062 0.0
C2040 C 0.12711 0.99011 0.97885 0.0
C2041 C 0.13474 0.03904 0.93831 0.0
C2042 C 0.1354 0.02188 0.96666 0.0
C2043 C 0.13949 0.971 0.04421 0.0
C2044 C 0.13773 0.98875 0.0184 0.0
H2045 H 0.10627 0.06359 0.86714 0.0
H2046 H 0.10686 0.03616 0.91523 0.0
H2047 H 0.11815 0.00656 0.92255 0.0
H2048 H 0.14046 0.92582 0.02718 0.0
H2049 H 0.13945 0.9548 0.98664 0.0
C2050 C 0.69496 0.39095 0.68668 0.0
C2051 C 0.68724 0.37477 0.67233 0.0
C2052 C 0.71243 0.39114 0.70618 0.0
C2053 C 0.75454 0.36291 0.72171 0.0
H2054 H 0.76698 0.39718 0.81065 0.0
C2055 C 0.82027 0.35795 0.83263 0.0
C2056 C 0.83007 0.37402 0.8383 0.0
C2057 C 0.80312 0.35832 0.81142 0.0
C2058 C 0.76376 0.38761 0.7856 0.0
H2059 H 0.69165 0.34601 0.66814 0.0
H2060 H 0.72171 0.34608 0.70352 0.0
H2061 H 0.73662 0.39704 0.77692 0.0
H2062 H 0.82954 0.40312 0.82608 0.0
H2063 H 0.79937 0.40383 0.78988 0.0
H2064 H 0.78162 0.35315 0.73174 0.0
C2065 C 0.71466 0.35885 0.69852 0.0
C2066 C 0.74631 0.38756 0.76597 0.0
C2067 C 0.69729 0.35874 0.67844 0.0
C2068 C 0.82231 0.39051 0.82231 0.0
C2069 C 0.80501 0.39091 0.80173 0.0
C2070 C 0.77189 0.36279 0.74186 0.0
C2071 C 0.72262 0.37507 0.71255 0.0
C2072 C 0.74136 0.3752 0.73361 0.0
C2073 C 0.7952 0.37481 0.79592 0.0
C2074 C 0.77675 0.37514 0.77405 0.0
H2075 H 0.68757 0.40356 0.68236 0.0
H2076 H 0.71801 0.40399 0.71564 0.0
H2077 H 0.75159 0.35344 0.69635 0.0
H2078 H 0.8259 0.34503 0.84446 0.0
H2079 H 0.79592 0.34569 0.8078 0.0
loop_
_geom_bond_atom_site_label_1
_geom_bond_atom_site_label_2
_geom_bond_distance
_geom_bond_site_symmetry_2
_ccdc_geom_bond_type
C0 Eu1 2.835 . S
C0 C2 1.500 . S
C0 O20 1.257 . S
C0 O21 1.260 . S
Eu1 C0 2.835 . S
Eu1 O20 2.473 . S
Eu1 O21 2.480 . S
Eu1 O22 2.430 . S
Eu1 O23 2.670 . S
Eu1 O24 2.394 . S
Eu1 O29 2.355 . S
Eu1 O31 2.374 . S
C2 C0 1.500 . S
C2 C3 1.377 1_554 S
C2 C7 1.377 1_554 S
C3 C2 1.377 1_556 S
C3 C4 1.395 . S
C3 H32 0.931 . S
C4 C3 1.395 . S
C4 C5 1.383 . S
C4 H33 0.931 . S
C5 C4 1.383 . S
C5 C6 1.394 . S
C6 C5 1.394 . S
C6 C7 1.378 . S
C6 H34 0.931 . S
C7 C2 1.377 1_556 S
C7 C6 1.378 . S
C7 H35 0.931 1_556 S
C8 O22 1.259 . S
C8 O23 1.270 . S
C9 O24 1.251 . S
C9 O25 1.251 . S
C10 Eu11 2.835 . S
C10 C12 1.500 . S
C10 O26 1.257 . S
C10 O27 1.260 . S
Eu11 C10 2.835 . S
Eu11 O23 2.355 . S
Eu11 O25 2.374 . S
Eu11 O26 2.473 . S
Eu11 O27 2.480 . S
Eu11 O28 2.430 . S
Eu11 O29 2.670 . S
Eu11 O30 2.394 . S
C12 C10 1.500 . S
C12 C13 1.377 . S
C12 C17 1.377 . S
C13 C12 1.377 . S
C13 C14 1.395 . S
C13 H36 0.931 . S
C14 C13 1.395 . S
C14 C15 1.383 . S
C14 H37 0.931 . S
C15 C14 1.383 . S
C15 C16 1.394 . S
C16 C15 1.394 . S
C16 C17 1.378 . S
C16 H38 0.931 . S
C17 C12 1.377 . S
C17 C16 1.378 . S
C17 H39 0.931 . S
C18 O28 1.259 . S
C18 O29 1.270 . S
C19 O30 1.251 . S
C19 O31 1.251 . S
O20 C0 1.257 . S
O20 Eu1 2.473 . S
O21 C0 1.260 . S
O21 Eu1 2.480 . S
O22 Eu1 2.430 . S
O22 C8 1.259 . S
O23 Eu1 2.670 . S
O23 C8 1.270 . S
O23 Eu11 2.355 . S
O24 Eu1 2.394 . S
O24 C9 1.251 . S
O25 C9 1.251 . S
O25 Eu11 2.374 . S
O26 C10 1.257 . S
O26 Eu11 2.473 . S
O27 C10 1.260 . S
O27 Eu11 2.480 . S
O28 Eu11 2.430 . S
O28 C18 1.259 . S
O29 Eu1 2.355 . S
O29 Eu11 2.670 . S
O29 C18 1.270 . S
O30 Eu11 2.394 . S
O30 C19 1.251 . S
O31 Eu1 2.374 . S
O31 C19 1.251 . S
H32 C3 0.931 . S
H33 C4 0.931 . S
H34 C6 0.931 . S
H35 C7 0.931 1_554 S
H36 C13 0.931 . S
H37 C14 0.931 . S
H38 C16 0.931 . S
H39 C17 0.931 . S
C40 Eu41 2.835 . S
C40 C42 1.500 . S
C40 O60 1.257 . S
C40 O61 1.260 . S
Eu41 C40 2.835 . S
Eu41 O60 2.473 . S
Eu41 O61 2.480 . S
Eu41 O62 2.430 . S
Eu41 O63 2.670 . S
Eu41 O64 2.394 . S
Eu41 O69 2.355 . S
Eu41 O71 2.374 . S
C42 C40 1.500 . S
C42 C43 1.377 . S
C42 C47 1.377 . S
C43 C42 1.377 . S
C43 C44 1.395 . S
C43 H72 0.931 . S
C44 C43 1.395 . S
C44 C45 1.383 . S
C44 H73 0.931 . S
C45 C44 1.383 . S
C45 C46 1.394 . S
C46 C45 1.394 . S
C46 C47 1.378 . S
C46 H74 0.931 . S
C47 C42 1.377 . S
C47 C46 1.378 . S
C47 H75 0.931 . S
C48 O62 1.259 . S
C48 O63 1.270 . S
C49 O64 1.251 . S
C49 O65 1.251 . S
C50 Eu51 2.835 . S
C50 C52 1.500 . S
C50 O66 1.257 . S
C50 O67 1.260 . S
Eu51 C50 2.835 . S
Eu51 O63 2.355 . S
Eu51 O65 2.374 . S
Eu51 O66 2.473 . S
Eu51 O67 2.480 . S
Eu51 O68 2.430 . S
Eu51 O69 2.670 . S
Eu51 O70 2.394 . S
C52 C50 1.500 . S
C52 C53 1.377 . S
C52 C57 1.377 . S
C53 C52 1.377 . S
C53 C54 1.395 . S
C53 H76 0.931 . S
C54 C53 1.395 . S
C54 C55 1.383 . S
C54 H77 0.931 . S
C55 C54 1.383 . S
C55 C56 1.394 . S
C56 C55 1.394 . S
C56 C57 1.378 . S
C56 H78 0.931 . S
C57 C52 1.377 . S
C57 C56 1.378 . S
C57 H79 0.931 . S
C58 O68 1.259 . S
C58 O69 1.270 . S
C59 O70 1.251 . S
C59 O71 1.251 . S
O60 C40 1.257 . S
O60 Eu41 2.473 . S
O61 C40 1.260 . S
O61 Eu41 2.480 . S
O62 Eu41 2.430 . S
O62 C48 1.259 . S
O63 Eu41 2.670 . S
O63 C48 1.270 . S
O63 Eu51 2.355 . S
O64 Eu41 2.394 . S
O64 C49 1.251 . S
O65 C49 1.251 . S
O65 Eu51 2.374 . S
O66 C50 1.257 . S
O66 Eu51 2.473 . S
O67 C50 1.260 . S
O67 Eu51 2.480 . S
O68 Eu51 2.430 . S
O68 C58 1.259 . S
O69 Eu41 2.355 . S
O69 Eu51 2.670 . S
O69 C58 1.270 . S
O70 Eu51 2.394 . S
O70 C59 1.251 . S
O71 Eu41 2.374 . S
O71 C59 1.251 . S
H72 C43 0.931 . S
H73 C44 0.931 . S
H74 C46 0.931 . S
H75 C47 0.931 . S
H76 C53 0.931 . S
H77 C54 0.931 . S
H78 C56 0.931 . S
H79 C57 0.931 . S
C80 Eu81 2.835 . S
C80 C82 1.500 . S
C80 O100 1.257 . S
C80 O101 1.260 . S
Eu81 C80 2.835 . S
Eu81 O100 2.473 . S
Eu81 O101 2.480 . S
Eu81 O102 2.430 . S
Eu81 O103 2.670 . S
Eu81 O104 2.394 . S
Eu81 O109 2.355 . S
Eu81 O111 2.374 . S
C82 C80 1.500 . S
C82 C83 1.377 . S
C82 C87 1.377 . S
C83 C82 1.377 . S
C83 C84 1.395 . S
C83 H112 0.931 . S
C84 C83 1.395 . S
C84 C85 1.383 . S
C84 H113 0.931 . S
C85 C84 1.383 . S
C85 C86 1.394 . S
C86 C85 1.394 . S
C86 C87 1.378 . S
C86 H114 0.931 . S
C87 C82 1.377 . S
C87 C86 1.378 . S
C87 H115 0.931 . S
C88 O102 1.259 . S
C88 O103 1.270 . S
C89 O104 1.251 . S
C89 O105 1.251 . S
C90 Eu91 2.835 . S
C90 C92 1.500 . S
C90 O106 1.257 . S
C90 O107 1.260 . S
Eu91 C90 2.835 . S
Eu91 O103 2.355 . S
Eu91 O105 2.374 . S
Eu91 O106 2.473 . S
Eu91 O107 2.480 . S
Eu91 O108 2.430 . S
Eu91 O109 2.670 . S
Eu91 O110 2.394 . S
C92 C90 1.500 . S
C92 C93 1.377 . S
C92 C97 1.377 . S
C93 C92 1.377 . S
C93 C94 1.395 . S
C93 H116 0.931 . S
C94 C93 1.395 . S
C94 C95 1.383 . S
C94 H117 0.931 . S
C95 C94 1.383 . S
C95 C96 1.394 . S
C96 C95 1.394 . S
C96 C97 1.378 . S
C96 H118 0.931 . S
C97 C92 1.377 . S
C97 C96 1.378 . S
C97 H119 0.931 . S
C98 O108 1.259 . S
C98 O109 1.270 . S
C99 O110 1.251 . S
C99 O111 1.251 . S
O100 C80 1.257 . S
O100 Eu81 2.473 . S
O101 C80 1.260 . S
O101 Eu81 2.480 . S
O102 Eu81 2.430 . S
O102 C88 1.259 . S
O103 Eu81 2.670 . S
O103 C88 1.270 . S
O103 Eu91 2.355 . S
O104 Eu81 2.394 . S
O104 C89 1.251 . S
O105 C89 1.251 . S
O105 Eu91 2.374 . S
O106 C90 1.257 . S
O106 Eu91 2.473 . S
O107 C90 1.260 . S
O107 Eu91 2.480 . S
O108 Eu91 2.430 . S
O108 C98 1.259 . S
O109 Eu81 2.355 . S
O109 Eu91 2.670 . S
O109 C98 1.270 . S
O110 Eu91 2.394 . S
O110 C99 1.251 . S
O111 Eu81 2.374 . S
O111 C99 1.251 . S
H112 C83 0.931 . S
H113 C84 0.931 . S
H114 C86 0.931 . S
H115 C87 0.931 . S
H116 C93 0.931 . S
H117 C94 0.931 . S
H118 C96 0.931 . S
H119 C97 0.931 . S
C120 Eu121 2.835 . S
C120 C122 1.500 1_556 S
C120 O140 1.257 . S
C120 O141 1.260 . S
Eu121 C120 2.835 . S
Eu121 O140 2.473 . S
Eu121 O141 2.480 . S
Eu121 O142 2.430 . S
Eu121 O143 2.670 . S
Eu121 O144 2.394 . S
Eu121 O149 2.355 . S
Eu121 O151 2.374 . S
C122 C120 1.500 1_554 S
C122 C123 1.377 . S
C122 C127 1.377 . S
C123 C122 1.377 . S
C123 C124 1.395 . S
C123 H152 0.931 . S
C124 C123 1.395 . S
C124 C125 1.383 . S
C124 H153 0.931 . S
C125 C124 1.383 . S
C125 C126 1.394 . S
C126 C125 1.394 . S
C126 C127 1.378 . S
C126 H154 0.931 . S
C127 C122 1.377 . S
C127 C126 1.378 . S
C127 H155 0.931 . S
C128 O142 1.259 . S
C128 O143 1.270 . S
C129 O144 1.251 . S
C129 O145 1.251 . S
C130 Eu131 2.835 . S
C130 C132 1.500 . S
C130 O146 1.257 . S
C130 O147 1.260 . S
Eu131 C130 2.835 . S
Eu131 O143 2.355 . S
Eu131 O145 2.374 . S
Eu131 O146 2.473 . S
Eu131 O147 2.480 . S
Eu131 O148 2.430 . S
Eu131 O149 2.670 . S
Eu131 O150 2.394 . S
C132 C130 1.500 . S
C132 C133 1.377 . S
C132 C137 1.377 . S
C133 C132 1.377 . S
C133 C134 1.395 . S
C133 H156 0.931 . S
C134 C133 1.395 . S
C134 C135 1.383 . S
C134 H157 0.931 . S
C135 C134 1.383 . S
C135 C136 1.394 . S
C136 C135 1.394 . S
C136 C137 1.378 . S
C136 H158 0.931 . S
C137 C132 1.377 . S
C137 C136 1.378 . S
C137 H159 0.931 . S
C138 O148 1.259 . S
C138 O149 1.270 . S
C139 O150 1.251 . S
C139 O151 1.251 . S
O140 C120 1.257 . S
O140 Eu121 2.473 . S
O141 C120 1.260 . S
O141 Eu121 2.480 . S
O142 Eu121 2.430 . S
O142 C128 1.259 . S
O143 Eu121 2.670 . S
O143 C128 1.270 . S
O143 Eu131 2.355 . S
O144 Eu121 2.394 . S
O144 C129 1.251 . S
O145 C129 1.251 . S
O145 Eu131 2.374 . S
O146 C130 1.257 . S
O146 Eu131 2.473 . S
O147 C130 1.260 . S
O147 Eu131 2.480 . S
O148 Eu131 2.430 . S
O148 C138 1.259 . S
O149 Eu121 2.355 . S
O149 Eu131 2.670 . S
O149 C138 1.270 . S
O150 Eu131 2.394 . S
O150 C139 1.251 . S
O151 Eu121 2.374 . S
O151 C139 1.251 . S
H152 C123 0.931 . S
H153 C124 0.931 . S
H154 C126 0.931 . S
H155 C127 0.931 . S
H156 C133 0.931 . S
H157 C134 0.931 . S
H158 C136 0.931 . S
H159 C137 0.931 . S
C160 Eu161 2.835 . S
C160 C162 1.500 1_556 S
C160 O180 1.257 . S
C160 O181 1.260 . S
Eu161 C160 2.835 . S
Eu161 O180 2.473 . S
Eu161 O181 2.480 . S
Eu161 O182 2.430 . S
Eu161 O183 2.670 . S
Eu161 O184 2.394 . S
Eu161 O189 2.355 . S
Eu161 O191 2.374 . S
C162 C160 1.500 1_554 S
C162 C163 1.377 . S
C162 C167 1.377 . S
C163 C162 1.377 . S
C163 C164 1.395 . S
C163 H192 0.931 . S
C164 C163 1.395 . S
C164 C165 1.383 . S
C164 H193 0.931 . S
C165 C164 1.383 . S
C165 C166 1.394 . S
C166 C165 1.394 . S
C166 C167 1.378 . S
C166 H194 0.931 . S
C167 C162 1.377 . S
C167 C166 1.378 . S
C167 H195 0.931 . S
C168 O182 1.259 . S
C168 O183 1.270 . S
C169 O184 1.251 . S
C169 O185 1.251 . S
C170 Eu171 2.835 . S
C170 C172 1.500 . S
C170 O186 1.257 . S
C170 O187 1.260 . S
Eu171 C170 2.835 . S
Eu171 O183 2.355 . S
Eu171 O185 2.374 . S
Eu171 O186 2.473 . S
Eu171 O187 2.480 . S
Eu171 O188 2.430 . S
Eu171 O189 2.670 . S
Eu171 O190 2.394 . S
C172 C170 1.500 . S
C172 C173 1.377 . S
C172 C177 1.377 . S
C173 C172 1.377 . S
C173 C174 1.395 . S
C173 H196 0.931 . S
C174 C173 1.395 . S
C174 C175 1.383 . S
C174 H197 0.931 . S
C175 C174 1.383 . S
C175 C176 1.394 . S
C176 C175 1.394 . S
C176 C177 1.378 . S
C176 H198 0.931 . S
C177 C172 1.377 . S
C177 C176 1.378 . S
C177 H199 0.931 . S
C178 O188 1.259 . S
C178 O189 1.270 . S
C179 O190 1.251 . S
C179 O191 1.251 . S
O180 C160 1.257 . S
O180 Eu161 2.473 . S
O181 C160 1.260 . S
O181 Eu161 2.480 . S
O182 Eu161 2.430 . S
O182 C168 1.259 . S
O183 Eu161 2.670 . S
O183 C168 1.270 . S
O183 Eu171 2.355 . S
O184 Eu161 2.394 . S
O184 C169 1.251 . S
O185 C169 1.251 . S
O185 Eu171 2.374 . S
O186 C170 1.257 . S
O186 Eu171 2.473 . S
O187 C170 1.260 . S
O187 Eu171 2.480 . S
O188 Eu171 2.430 . S
O188 C178 1.259 . S
O189 Eu161 2.355 . S
O189 Eu171 2.670 . S
O189 C178 1.270 . S
O190 Eu171 2.394 . S
O190 C179 1.251 . S
O191 Eu161 2.374 . S
O191 C179 1.251 . S
H192 C163 0.931 . S
H193 C164 0.931 . S
H194 C166 0.931 . S
H195 C167 0.931 . S
H196 C173 0.931 . S
H197 C174 0.931 . S
H198 C176 0.931 . S
H199 C177 0.931 . S
C200 Eu201 2.835 . S
C200 C202 1.500 . S
C200 O220 1.257 . S
C200 O221 1.260 . S
Eu201 C200 2.835 . S
Eu201 O220 2.473 . S
Eu201 O221 2.480 . S
Eu201 O222 2.430 . S
Eu201 O223 2.670 . S
Eu201 O224 2.394 . S
Eu201 O229 2.355 . S
Eu201 O231 2.374 . S
C202 C200 1.500 . S
C202 C203 1.377 1_554 S
C202 C207 1.377 1_554 S
C203 C202 1.377 1_556 S
C203 C204 1.395 . S
C203 H232 0.931 . S
C204 C203 1.395 . S
C204 C205 1.383 . S
C204 H233 0.931 . S
C205 C204 1.383 . S
C205 C206 1.394 . S
C206 C205 1.394 . S
C206 C207 1.378 . S
C206 H234 0.931 . S
C207 C202 1.377 1_556 S
C207 C206 1.378 . S
C207 H235 0.931 1_556 S
C208 O222 1.259 . S
C208 O223 1.270 . S
C209 O224 1.251 . S
C209 O225 1.251 . S
C210 Eu211 2.835 . S
C210 C212 1.500 . S
C210 O226 1.257 . S
C210 O227 1.260 . S
Eu211 C210 2.835 . S
Eu211 O223 2.355 . S
Eu211 O225 2.374 . S
Eu211 O226 2.473 . S
Eu211 O227 2.480 . S
Eu211 O228 2.430 . S
Eu211 O229 2.670 . S
Eu211 O230 2.394 . S
C212 C210 1.500 . S
C212 C213 1.377 . S
C212 C217 1.377 . S
C213 C212 1.377 . S
C213 C214 1.395 . S
C213 H236 0.931 . S
C214 C213 1.395 . S
C214 C215 1.383 . S
C214 H237 0.931 . S
C215 C214 1.383 . S
C215 C216 1.394 . S
C216 C215 1.394 . S
C216 C217 1.378 . S
C216 H238 0.931 . S
C217 C212 1.377 . S
C217 C216 1.378 . S
C217 H239 0.931 . S
C218 O228 1.259 . S
C218 O229 1.270 . S
C219 O230 1.251 . S
C219 O231 1.251 . S
O220 C200 1.257 . S
O220 Eu201 2.473 . S
O221 C200 1.260 . S
O221 Eu201 2.480 . S
O222 Eu201 2.430 . S
O222 C208 1.259 . S
O223 Eu201 2.670 . S
O223 C208 1.270 . S
O223 Eu211 2.355 . S
O224 Eu201 2.394 . S
O224 C209 1.251 . S
O225 C209 1.251 . S
O225 Eu211 2.374 . S
O226 C210 1.257 . S
O226 Eu211 2.473 . S
O227 C210 1.260 . S
O227 Eu211 2.480 . S
O228 Eu211 2.430 . S
O228 C218 1.259 . S
O229 Eu201 2.355 . S
O229 Eu211 2.670 . S
O229 C218 1.270 . S
O230 Eu211 2.394 . S
O230 C219 1.251 . S
O231 Eu201 2.374 . S
O231 C219 1.251 . S
H232 C203 0.931 . S
H233 C204 0.931 . S
H234 C206 0.931 . S
H235 C207 0.931 1_554 S
H236 C213 0.931 . S
H237 C214 0.931 . S
H238 C216 0.931 . S
H239 C217 0.931 . S
C240 Eu241 2.835 . S
C240 C242 1.500 . S
C240 O260 1.257 . S
C240 O261 1.260 . S
Eu241 C240 2.835 . S
Eu241 O260 2.473 . S
Eu241 O261 2.480 . S
Eu241 O262 2.430 . S
Eu241 O263 2.670 . S
Eu241 O264 2.394 . S
Eu241 O269 2.355 . S
Eu241 O271 2.374 . S
C242 C240 1.500 . S
C242 C243 1.377 . S
C242 C247 1.377 . S
C243 C242 1.377 . S
C243 C244 1.395 . S
C243 H272 0.931 . S
C244 C243 1.395 . S
C244 C245 1.383 . S
C244 H273 0.931 . S
C245 C244 1.383 . S
C245 C246 1.394 . S
C246 C245 1.394 . S
C246 C247 1.378 . S
C246 H274 0.931 . S
C247 C242 1.377 . S
C247 C246 1.378 . S
C247 H275 0.931 . S
C248 O262 1.259 . S
C248 O263 1.270 . S
C249 O264 1.251 . S
C249 O265 1.251 . S
C250 Eu251 2.835 . S
C250 C252 1.500 . S
C250 O266 1.257 . S
C250 O267 1.260 . S
Eu251 C250 2.835 . S
Eu251 O263 2.355 . S
Eu251 O265 2.374 . S
Eu251 O266 2.473 . S
Eu251 O267 2.480 . S
Eu251 O268 2.430 . S
Eu251 O269 2.670 . S
Eu251 O270 2.394 . S
C252 C250 1.500 . S
C252 C253 1.377 . S
C252 C257 1.377 . S
C253 C252 1.377 . S
C253 C254 1.395 . S
C253 H276 0.931 . S
C254 C253 1.395 . S
C254 C255 1.383 . S
C254 H277 0.931 . S
C255 C254 1.383 . S
C255 C256 1.394 . S
C256 C255 1.394 . S
C256 C257 1.378 . S
C256 H278 0.931 . S
C257 C252 1.377 . S
C257 C256 1.378 . S
C257 H279 0.931 . S
C258 O268 1.259 . S
C258 O269 1.270 . S
C259 O270 1.251 . S
C259 O271 1.251 . S
O260 C240 1.257 . S
O260 Eu241 2.473 . S
O261 C240 1.260 . S
O261 Eu241 2.480 . S
O262 Eu241 2.430 . S
O262 C248 1.259 . S
O263 Eu241 2.670 . S
O263 C248 1.270 . S
O263 Eu251 2.355 . S
O264 Eu241 2.394 . S
O264 C249 1.251 . S
O265 C249 1.251 . S
O265 Eu251 2.374 . S
O266 C250 1.257 . S
O266 Eu251 2.473 . S
O267 C250 1.260 . S
O267 Eu251 2.480 . S
O268 Eu251 2.430 . S
O268 C258 1.259 . S
O269 Eu241 2.355 . S
O269 Eu251 2.670 . S
O269 C258 1.270 . S
O270 Eu251 2.394 . S
O270 C259 1.251 . S
O271 Eu241 2.374 . S
O271 C259 1.251 . S
H272 C243 0.931 . S
H273 C244 0.931 . S
H274 C246 0.931 . S
H275 C247 0.931 . S
H276 C253 0.931 . S
H277 C254 0.931 . S
H278 C256 0.931 . S
H279 C257 0.931 . S
C280 Eu281 2.835 . S
C280 C282 1.500 . S
C280 O300 1.257 . S
C280 O301 1.260 . S
Eu281 C280 2.835 . S
Eu281 O300 2.473 . S
Eu281 O301 2.480 . S
Eu281 O302 2.430 . S
Eu281 O303 2.670 . S
Eu281 O304 2.394 . S
Eu281 O309 2.355 . S
Eu281 O311 2.374 . S
C282 C280 1.500 . S
C282 C283 1.377 . S
C282 C287 1.377 . S
C283 C282 1.377 . S
C283 C284 1.395 . S
C283 H312 0.931 . S
C284 C283 1.395 . S
C284 C285 1.383 . S
C284 H313 0.931 . S
C285 C284 1.383 . S
C285 C286 1.394 . S
C286 C285 1.394 . S
C286 C287 1.378 . S
C286 H314 0.931 . S
C287 C282 1.377 . S
C287 C286 1.378 . S
C287 H315 0.931 . S
C288 O302 1.259 . S
C288 O303 1.270 . S
C289 O304 1.251 . S
C289 O305 1.251 . S
C290 Eu291 2.835 . S
C290 C292 1.500 . S
C290 O306 1.257 . S
C290 O307 1.260 . S
Eu291 C290 2.835 . S
Eu291 O303 2.355 . S
Eu291 O305 2.374 . S
Eu291 O306 2.473 . S
Eu291 O307 2.480 . S
Eu291 O308 2.430 . S
Eu291 O309 2.670 . S
Eu291 O310 2.394 . S
C292 C290 1.500 . S
C292 C293 1.377 . S
C292 C297 1.377 . S
C293 C292 1.377 . S
C293 C294 1.395 . S
C293 H316 0.931 . S
C294 C293 1.395 . S
C294 C295 1.383 . S
C294 H317 0.931 . S
C295 C294 1.383 . S
C295 C296 1.394 . S
C296 C295 1.394 . S
C296 C297 1.378 . S
C296 H318 0.931 . S
C297 C292 1.377 . S
C297 C296 1.378 . S
C297 H319 0.931 . S
C298 O308 1.259 . S
C298 O309 1.270 . S
C299 O310 1.251 . S
C299 O311 1.251 . S
O300 C280 1.257 . S
O300 Eu281 2.473 . S
O301 C280 1.260 . S
O301 Eu281 2.480 . S
O302 Eu281 2.430 . S
O302 C288 1.259 . S
O303 Eu281 2.670 . S
O303 C288 1.270 . S
O303 Eu291 2.355 . S
O304 Eu281 2.394 . S
O304 C289 1.251 . S
O305 C289 1.251 . S
O305 Eu291 2.374 . S
O306 C290 1.257 . S
O306 Eu291 2.473 . S
O307 C290 1.260 . S
O307 Eu291 2.480 . S
O308 Eu291 2.430 . S
O308 C298 1.259 . S
O309 Eu281 2.355 . S
O309 Eu291 2.670 . S
O309 C298 1.270 . S
O310 Eu291 2.394 . S
O310 C299 1.251 . S
O311 Eu281 2.374 . S
O311 C299 1.251 . S
H312 C283 0.931 . S
H313 C284 0.931 . S
H314 C286 0.931 . S
H315 C287 0.931 . S
H316 C293 0.931 . S
H317 C294 0.931 . S
H318 C296 0.931 . S
H319 C297 0.931 . S
C320 Eu321 2.835 . S
C320 C322 1.500 . S
C320 O340 1.257 . S
C320 O341 1.260 . S
Eu321 C320 2.835 . S
Eu321 O340 2.473 . S
Eu321 O341 2.480 . S
Eu321 O342 2.430 . S
Eu321 O343 2.670 . S
Eu321 O344 2.394 . S
Eu321 O349 2.355 . S
Eu321 O351 2.374 . S
C322 C320 1.500 . S
C322 C323 1.377 . S
C322 C327 1.377 . S
C323 C322 1.377 . S
C323 C324 1.395 . S
C323 H352 0.931 . S
C324 C323 1.395 . S
C324 C325 1.383 . S
C324 H353 0.931 . S
C325 C324 1.383 . S
C325 C326 1.394 . S
C326 C325 1.394 . S
C326 C327 1.378 . S
C326 H354 0.931 . S
C327 C322 1.377 . S
C327 C326 1.378 . S
C327 H355 0.931 . S
C328 O342 1.259 . S
C328 O343 1.270 . S
C329 O344 1.251 . S
C329 O345 1.251 . S
C330 Eu331 2.835 . S
C330 C332 1.500 . S
C330 O346 1.257 . S
C330 O347 1.260 . S
Eu331 C330 2.835 . S
Eu331 O343 2.355 . S
Eu331 O345 2.374 . S
Eu331 O346 2.473 . S
Eu331 O347 2.480 . S
Eu331 O348 2.430 . S
Eu331 O349 2.670 . S
Eu331 O350 2.394 . S
C332 C330 1.500 . S
C332 C333 1.377 1_556 S
C332 C337 1.377 1_556 S
C333 C332 1.377 1_554 S
C333 C334 1.395 . S
C333 H356 0.931 . S
C334 C333 1.395 . S
C334 C335 1.383 . S
C334 H357 0.931 . S
C335 C334 1.383 . S
C335 C336 1.394 . S
C336 C335 1.394 . S
C336 C337 1.378 . S
C336 H358 0.931 . S
C337 C332 1.377 1_554 S
C337 C336 1.378 . S
C337 H359 0.931 1_554 S
C338 O348 1.259 . S
C338 O349 1.270 . S
C339 O350 1.251 . S
C339 O351 1.251 . S
O340 C320 1.257 . S
O340 Eu321 2.473 . S
O341 C320 1.260 . S
O341 Eu321 2.480 . S
O342 Eu321 2.430 . S
O342 C328 1.259 . S
O343 Eu321 2.670 . S
O343 C328 1.270 . S
O343 Eu331 2.355 . S
O344 Eu321 2.394 . S
O344 C329 1.251 . S
O345 C329 1.251 . S
O345 Eu331 2.374 . S
O346 C330 1.257 . S
O346 Eu331 2.473 . S
O347 C330 1.260 . S
O347 Eu331 2.480 . S
O348 Eu331 2.430 . S
O348 C338 1.259 . S
O349 Eu321 2.355 . S
O349 Eu331 2.670 . S
O349 C338 1.270 . S
O350 Eu331 2.394 . S
O350 C339 1.251 . S
O351 Eu321 2.374 . S
O351 C339 1.251 . S
H352 C323 0.931 . S
H353 C324 0.931 . S
H354 C326 0.931 . S
H355 C327 0.931 . S
H356 C333 0.931 . S
H357 C334 0.931 . S
H358 C336 0.931 . S
H359 C337 0.931 1_556 S
C360 Eu361 2.835 . S
C360 C362 1.500 . S
C360 O380 1.257 . S
C360 O381 1.260 . S
Eu361 C360 2.835 . S
Eu361 O380 2.473 . S
Eu361 O381 2.480 . S
Eu361 O382 2.430 . S
Eu361 O383 2.670 . S
Eu361 O384 2.394 . S
Eu361 O389 2.355 . S
Eu361 O391 2.374 . S
C362 C360 1.500 . S
C362 C363 1.377 . S
C362 C367 1.377 . S
C363 C362 1.377 . S
C363 C364 1.395 . S
C363 H392 0.931 . S
C364 C363 1.395 . S
C364 C365 1.383 . S
C364 H393 0.931 . S
C365 C364 1.383 . S
C365 C366 1.394 . S
C366 C365 1.394 . S
C366 C367 1.378 . S
C366 H394 0.931 . S
C367 C362 1.377 . S
C367 C366 1.378 . S
C367 H395 0.931 . S
C368 O382 1.259 . S
C368 O383 1.270 . S
C369 O384 1.251 . S
C369 O385 1.251 . S
C370 Eu371 2.835 . S
C370 C372 1.500 . S
C370 O386 1.257 . S
C370 O387 1.260 . S
Eu371 C370 2.835 . S
Eu371 O383 2.355 . S
Eu371 O385 2.374 . S
Eu371 O386 2.473 . S
Eu371 O387 2.480 . S
Eu371 O388 2.430 . S
Eu371 O389 2.670 . S
Eu371 O390 2.394 . S
C372 C370 1.500 . S
C372 C373 1.377 . S
C372 C377 1.377 . S
C373 C372 1.377 . S
C373 C374 1.395 . S
C373 H396 0.931 . S
C374 C373 1.395 . S
C374 C375 1.383 . S
C374 H397 0.931 . S
C375 C374 1.383 . S
C375 C376 1.394 . S
C376 C375 1.394 . S
C376 C377 1.378 . S
C376 H398 0.931 . S
C377 C372 1.377 . S
C377 C376 1.378 . S
C377 H399 0.931 . S
C378 O388 1.259 . S
C378 O389 1.270 . S
C379 O390 1.251 . S
C379 O391 1.251 . S
O380 C360 1.257 . S
O380 Eu361 2.473 . S
O381 C360 1.260 . S
O381 Eu361 2.480 . S
O382 Eu361 2.430 . S
O382 C368 1.259 . S
O383 Eu361 2.670 . S
O383 C368 1.270 . S
O383 Eu371 2.355 . S
O384 Eu361 2.394 . S
O384 C369 1.251 . S
O385 C369 1.251 . S
O385 Eu371 2.374 . S
O386 C370 1.257 . S
O386 Eu371 2.473 . S
O387 C370 1.260 . S
O387 Eu371 2.480 . S
O388 Eu371 2.430 . S
O388 C378 1.259 . S
O389 Eu361 2.355 . S
O389 Eu371 2.670 . S
O389 C378 1.270 . S
O390 Eu371 2.394 . S
O390 C379 1.251 . S
O391 Eu361 2.374 . S
O391 C379 1.251 . S
H392 C363 0.931 . S
H393 C364 0.931 . S
H394 C366 0.931 . S
H395 C367 0.931 . S
H396 C373 0.931 . S
H397 C374 0.931 . S
H398 C376 0.931 . S
H399 C377 0.931 . S
C400 Eu401 2.835 . S
C400 C402 1.500 . S
C400 O420 1.257 . S
C400 O421 1.260 . S
Eu401 C400 2.835 . S
Eu401 O420 2.473 . S
Eu401 O421 2.480 . S
Eu401 O422 2.430 . S
Eu401 O423 2.670 . S
Eu401 O424 2.394 . S
Eu401 O429 2.355 . S
Eu401 O431 2.374 . S
C402 C400 1.500 . S
C402 C403 1.377 . S
C402 C407 1.377 . S
C403 C402 1.377 . S
C403 C404 1.395 . S
C403 H432 0.931 . S
C404 C403 1.395 . S
C404 C405 1.383 . S
C404 H433 0.931 . S
C405 C404 1.383 . S
C405 C406 1.394 . S
C406 C405 1.394 . S
C406 C407 1.378 . S
C406 H434 0.931 . S
C407 C402 1.377 . S
C407 C406 1.378 . S
C407 H435 0.931 . S
C408 O422 1.259 . S
C408 O423 1.270 . S
C409 O424 1.251 . S
C409 O425 1.251 . S
C410 Eu411 2.835 . S
C410 C412 1.500 . S
C410 O426 1.257 . S
C410 O427 1.260 . S
Eu411 C410 2.835 . S
Eu411 O423 2.355 . S
Eu411 O425 2.374 . S
Eu411 O426 2.473 . S
Eu411 O427 2.480 . S
Eu411 O428 2.430 . S
Eu411 O429 2.670 . S
Eu411 O430 2.394 . S
C412 C410 1.500 . S
C412 C413 1.377 . S
C412 C417 1.377 . S
C413 C412 1.377 . S
C413 C414 1.395 . S
C413 H436 0.931 . S
C414 C413 1.395 . S
C414 C415 1.383 . S
C414 H437 0.931 . S
C415 C414 1.383 . S
C415 C416 1.394 . S
C416 C415 1.394 . S
C416 C417 1.378 . S
C416 H438 0.931 . S
C417 C412 1.377 . S
C417 C416 1.378 . S
C417 H439 0.931 . S
C418 O428 1.259 . S
C418 O429 1.270 . S
C419 O430 1.251 . S
C419 O431 1.251 . S
O420 C400 1.257 . S
O420 Eu401 2.473 . S
O421 C400 1.260 . S
O421 Eu401 2.480 . S
O422 Eu401 2.430 . S
O422 C408 1.259 . S
O423 Eu401 2.670 . S
O423 C408 1.270 . S
O423 Eu411 2.355 . S
O424 Eu401 2.394 . S
O424 C409 1.251 . S
O425 C409 1.251 . S
O425 Eu411 2.374 . S
O426 C410 1.257 . S
O426 Eu411 2.473 . S
O427 C410 1.260 . S
O427 Eu411 2.480 . S
O428 Eu411 2.430 . S
O428 C418 1.259 . S
O429 Eu401 2.355 . S
O429 Eu411 2.670 . S
O429 C418 1.270 . S
O430 Eu411 2.394 . S
O430 C419 1.251 . S
O431 Eu401 2.374 . S
O431 C419 1.251 . S
H432 C403 0.931 . S
H433 C404 0.931 . S
H434 C406 0.931 . S
H435 C407 0.931 . S
H436 C413 0.931 . S
H437 C414 0.931 . S
H438 C416 0.931 . S
H439 C417 0.931 . S
C440 Eu441 2.835 . S
C440 C442 1.500 . S
C440 O460 1.257 . S
C440 O461 1.260 . S
Eu441 C440 2.835 . S
Eu441 O460 2.473 . S
Eu441 O461 2.480 . S
Eu441 O462 2.430 . S
Eu441 O463 2.670 . S
Eu441 O464 2.394 . S
Eu441 O469 2.355 . S
Eu441 O471 2.374 . S
C442 C440 1.500 . S
C442 C443 1.377 . S
C442 C447 1.377 . S
C443 C442 1.377 . S
C443 C444 1.395 . S
C443 H472 0.931 . S
C444 C443 1.395 . S
C444 C445 1.383 . S
C444 H473 0.931 . S
C445 C444 1.383 . S
C445 C446 1.394 . S
C446 C445 1.394 . S
C446 C447 1.378 . S
C446 H474 0.931 . S
C447 C442 1.377 . S
C447 C446 1.378 . S
C447 H475 0.931 . S
C448 O462 1.259 . S
C448 O463 1.270 . S
C449 O464 1.251 . S
C449 O465 1.251 . S
C450 Eu451 2.835 . S
C450 C452 1.500 1_554 S
C450 O466 1.257 . S
C450 O467 1.260 . S
Eu451 C450 2.835 . S
Eu451 O463 2.355 . S
Eu451 O465 2.374 . S
Eu451 O466 2.473 . S
Eu451 O467 2.480 . S
Eu451 O468 2.430 . S
Eu451 O469 2.670 . S
Eu451 O470 2.394 . S
C452 C450 1.500 1_556 S
C452 C453 1.377 . S
C452 C457 1.377 . S
C453 C452 1.377 . S
C453 C454 1.395 . S
C453 H476 0.931 . S
C454 C453 1.395 . S
C454 C455 1.383 . S
C454 H477 0.931 . S
C455 C454 1.383 . S
C455 C456 1.394 . S
C456 C455 1.394 . S
C456 C457 1.378 . S
C456 H478 0.931 . S
C457 C452 1.377 . S
C457 C456 1.378 . S
C457 H479 0.931 . S
C458 O468 1.259 . S
C458 O469 1.270 . S
C459 O470 1.251 . S
C459 O471 1.251 . S
O460 C440 1.257 . S
O460 Eu441 2.473 . S
O461 C440 1.260 . S
O461 Eu441 2.480 . S
O462 Eu441 2.430 . S
O462 C448 1.259 . S
O463 Eu441 2.670 . S
O463 C448 1.270 . S
O463 Eu451 2.355 . S
O464 Eu441 2.394 . S
O464 C449 1.251 . S
O465 C449 1.251 . S
O465 Eu451 2.374 . S
O466 C450 1.257 . S
O466 Eu451 2.473 . S
O467 C450 1.260 . S
O467 Eu451 2.480 . S
O468 Eu451 2.430 . S
O468 C458 1.259 . S
O469 Eu441 2.355 . S
O469 Eu451 2.670 . S
O469 C458 1.270 . S
O470 Eu451 2.394 . S
O470 C459 1.251 . S
O471 Eu441 2.374 . S
O471 C459 1.251 . S
H472 C443 0.931 . S
H473 C444 0.931 . S
H474 C446 0.931 . S
H475 C447 0.931 . S
H476 C453 0.931 . S
H477 C454 0.931 . S
H478 C456 0.931 . S
H479 C457 0.931 . S
C480 Eu481 2.835 . S
C480 C482 1.500 . S
C480 O500 1.257 . S
C480 O501 1.260 . S
Eu481 C480 2.835 . S
Eu481 O500 2.473 . S
Eu481 O501 2.480 . S
Eu481 O502 2.430 . S
Eu481 O503 2.670 . S
Eu481 O504 2.394 . S
Eu481 O509 2.355 . S
Eu481 O511 2.374 . S
C482 C480 1.500 . S
C482 C483 1.377 . S
C482 C487 1.377 . S
C483 C482 1.377 . S
C483 C484 1.395 . S
C483 H512 0.931 . S
C484 C483 1.395 . S
C484 C485 1.383 . S
C484 H513 0.931 . S
C485 C484 1.383 . S
C485 C486 1.394 . S
C486 C485 1.394 . S
C486 C487 1.378 . S
C486 H514 0.931 . S
C487 C482 1.377 . S
C487 C486 1.378 . S
C487 H515 0.931 . S
C488 O502 1.259 . S
C488 O503 1.270 . S
C489 O504 1.251 . S
C489 O505 1.251 . S
C490 Eu491 2.835 . S
C490 C492 1.500 1_554 S
C490 O506 1.257 . S
C490 O507 1.260 . S
Eu491 C490 2.835 . S
Eu491 O503 2.355 . S
Eu491 O505 2.374 . S
Eu491 O506 2.473 . S
Eu491 O507 2.480 . S
Eu491 O508 2.430 . S
Eu491 O509 2.670 . S
Eu491 O510 2.394 . S
C492 C490 1.500 1_556 S
C492 C493 1.377 . S
C492 C497 1.377 . S
C493 C492 1.377 . S
C493 C494 1.395 . S
C493 H516 0.931 . S
C494 C493 1.395 . S
C494 C495 1.383 . S
C494 H517 0.931 . S
C495 C494 1.383 . S
C495 C496 1.394 . S
C496 C495 1.394 . S
C496 C497 1.378 . S
C496 H518 0.931 . S
C497 C492 1.377 . S
C497 C496 1.378 . S
C497 H519 0.931 . S
C498 O508 1.259 . S
C498 O509 1.270 . S
C499 O510 1.251 . S
C499 O511 1.251 . S
O500 C480 1.257 . S
O500 Eu481 2.473 . S
O501 C480 1.260 . S
O501 Eu481 2.480 . S
O502 Eu481 2.430 . S
O502 C488 1.259 . S
O503 Eu481 2.670 . S
O503 C488 1.270 . S
O503 Eu491 2.355 . S
O504 Eu481 2.394 . S
O504 C489 1.251 . S
O505 C489 1.251 . S
O505 Eu491 2.374 . S
O506 C490 1.257 . S
O506 Eu491 2.473 . S
O507 C490 1.260 . S
O507 Eu491 2.480 . S
O508 Eu491 2.430 . S
O508 C498 1.259 . S
O509 Eu481 2.355 . S
O509 Eu491 2.670 . S
O509 C498 1.270 . S
O510 Eu491 2.394 . S
O510 C499 1.251 . S
O511 Eu481 2.374 . S
O511 C499 1.251 . S
H512 C483 0.931 . S
H513 C484 0.931 . S
H514 C486 0.931 . S
H515 C487 0.931 . S
H516 C493 0.931 . S
H517 C494 0.931 . S
H518 C496 0.931 . S
H519 C497 0.931 . S
C520 Eu521 2.835 . S
C520 C522 1.500 . S
C520 O540 1.257 . S
C520 O541 1.260 . S
Eu521 C520 2.835 . S
Eu521 O540 2.473 . S
Eu521 O541 2.480 . S
Eu521 O542 2.430 . S
Eu521 O543 2.670 . S
Eu521 O544 2.394 . S
Eu521 O549 2.355 . S
Eu521 O551 2.374 . S
C522 C520 1.500 . S
C522 C523 1.377 1_556 S
C522 C527 1.377 1_556 S
C523 C522 1.377 1_554 S
C523 C524 1.395 . S
C523 H552 0.931 . S
C524 C523 1.395 . S
C524 C525 1.383 . S
C524 H553 0.931 . S
C525 C524 1.383 . S
C525 C526 1.394 . S
C526 C525 1.394 . S
C526 C527 1.378 . S
C526 H554 0.931 . S
C527 C522 1.377 1_554 S
C527 C526 1.378 . S
C527 H555 0.931 1_554 S
C528 O542 1.259 . S
C528 O543 1.270 . S
C529 O544 1.251 . S
C529 O545 1.251 . S
C530 Eu531 2.835 . S
C530 C532 1.500 . S
C530 O546 1.257 . S
C530 O547 1.260 . S
Eu531 C530 2.835 . S
Eu531 O543 2.355 . S
Eu531 O545 2.374 . S
Eu531 O546 2.473 . S
Eu531 O547 2.480 . S
Eu531 O548 2.430 . S
Eu531 O549 2.670 . S
Eu531 O550 2.394 . S
C532 C530 1.500 . S
C532 C533 1.377 . S
C532 C537 1.377 . S
C533 C532 1.377 . S
C533 C534 1.395 . S
C533 H556 0.931 . S
C534 C533 1.395 . S
C534 C535 1.383 . S
C534 H557 0.931 . S
C535 C534 1.383 . S
C535 C536 1.394 . S
C536 C535 1.394 . S
C536 C537 1.378 . S
C536 H558 0.931 . S
C537 C532 1.377 . S
C537 C536 1.378 . S
C537 H559 0.931 . S
C538 O548 1.259 . S
C538 O549 1.270 . S
C539 O550 1.251 . S
C539 O551 1.251 . S
O540 C520 1.257 . S
O540 Eu521 2.473 . S
O541 C520 1.260 . S
O541 Eu521 2.480 . S
O542 Eu521 2.430 . S
O542 C528 1.259 . S
O543 Eu521 2.670 . S
O543 C528 1.270 . S
O543 Eu531 2.355 . S
O544 Eu521 2.394 . S
O544 C529 1.251 . S
O545 C529 1.251 . S
O545 Eu531 2.374 . S
O546 C530 1.257 . S
O546 Eu531 2.473 . S
O547 C530 1.260 . S
O547 Eu531 2.480 . S
O548 Eu531 2.430 . S
O548 C538 1.259 . S
O549 Eu521 2.355 . S
O549 Eu531 2.670 . S
O549 C538 1.270 . S
O550 Eu531 2.394 . S
O550 C539 1.251 . S
O551 Eu521 2.374 . S
O551 C539 1.251 . S
H552 C523 0.931 . S
H553 C524 0.931 . S
H554 C526 0.931 . S
H555 C527 0.931 1_556 S
H556 C533 0.931 . S
H557 C534 0.931 . S
H558 C536 0.931 . S
H559 C537 0.931 . S
C560 Eu561 2.835 . S
C560 C562 1.500 . S
C560 O580 1.257 . S
C560 O581 1.260 . S
Eu561 C560 2.835 . S
Eu561 O580 2.473 . S
Eu561 O581 2.480 . S
Eu561 O582 2.430 . S
Eu561 O583 2.670 . S
Eu561 O584 2.394 . S
Eu561 O589 2.355 . S
Eu561 O591 2.374 . S
C562 C560 1.500 . S
C562 C563 1.377 . S
C562 C567 1.377 . S
C563 C562 1.377 . S
C563 C564 1.395 . S
C563 H592 0.931 . S
C564 C563 1.395 . S
C564 C565 1.383 . S
C564 H593 0.931 . S
C565 C564 1.383 . S
C565 C566 1.394 . S
C566 C565 1.394 . S
C566 C567 1.378 . S
C566 H594 0.931 . S
C567 C562 1.377 . S
C567 C566 1.378 . S
C567 H595 0.931 . S
C568 O582 1.259 . S
C568 O583 1.270 . S
C569 O584 1.251 . S
C569 O585 1.251 . S
C570 Eu571 2.835 . S
C570 C572 1.500 . S
C570 O586 1.257 . S
C570 O587 1.260 . S
Eu571 C570 2.835 . S
Eu571 O583 2.355 . S
Eu571 O585 2.374 . S
Eu571 O586 2.473 . S
Eu571 O587 2.480 . S
Eu571 O588 2.430 . S
Eu571 O589 2.670 . S
Eu571 O590 2.394 . S
C572 C570 1.500 . S
C572 C573 1.377 . S
C572 C577 1.377 . S
C573 C572 1.377 . S
C573 C574 1.395 . S
C573 H596 0.931 . S
C574 C573 1.395 . S
C574 C575 1.383 . S
C574 H597 0.931 . S
C575 C574 1.383 . S
C575 C576 1.394 . S
C576 C575 1.394 . S
C576 C577 1.378 . S
C576 H598 0.931 . S
C577 C572 1.377 . S
C577 C576 1.378 . S
C577 H599 0.931 . S
C578 O588 1.259 . S
C578 O589 1.270 . S
C579 O590 1.251 . S
C579 O591 1.251 . S
O580 C560 1.257 . S
O580 Eu561 2.473 . S
O581 C560 1.260 . S
O581 Eu561 2.480 . S
O582 Eu561 2.430 . S
O582 C568 1.259 . S
O583 Eu561 2.670 . S
O583 C568 1.270 . S
O583 Eu571 2.355 . S
O584 Eu561 2.394 . S
O584 C569 1.251 . S
O585 C569 1.251 . S
O585 Eu571 2.374 . S
O586 C570 1.257 . S
O586 Eu571 2.473 . S
O587 C570 1.260 . S
O587 Eu571 2.480 . S
O588 Eu571 2.430 . S
O588 C578 1.259 . S
O589 Eu561 2.355 . S
O589 Eu571 2.670 . S
O589 C578 1.270 . S
O590 Eu571 2.394 . S
O590 C579 1.251 . S
O591 Eu561 2.374 . S
O591 C579 1.251 . S
H592 C563 0.931 . S
H593 C564 0.931 . S
H594 C566 0.931 . S
H595 C567 0.931 . S
H596 C573 0.931 . S
H597 C574 0.931 . S
H598 C576 0.931 . S
H599 C577 0.931 . S
C600 Eu601 2.835 . S
C600 C602 1.500 . S
C600 O620 1.257 . S
C600 O621 1.260 . S
Eu601 C600 2.835 . S
Eu601 O620 2.473 . S
Eu601 O621 2.480 . S
Eu601 O622 2.430 . S
Eu601 O623 2.670 . S
Eu601 O624 2.394 . S
Eu601 O629 2.355 . S
Eu601 O631 2.374 . S
C602 C600 1.500 . S
C602 C603 1.377 . S
C602 C607 1.377 . S
C603 C602 1.377 . S
C603 C604 1.395 . S
C603 H632 0.931 . S
C604 C603 1.395 . S
C604 C605 1.383 . S
C604 H633 0.931 . S
C605 C604 1.383 . S
C605 C606 1.394 . S
C606 C605 1.394 . S
C606 C607 1.378 . S
C606 H634 0.931 . S
C607 C602 1.377 . S
C607 C606 1.378 . S
C607 H635 0.931 . S
C608 O622 1.259 . S
C608 O623 1.270 . S
C609 O624 1.251 . S
C609 O625 1.251 . S
C610 Eu611 2.835 . S
C610 C612 1.500 . S
C610 O626 1.257 . S
C610 O627 1.260 . S
Eu611 C610 2.835 . S
Eu611 O623 2.355 . S
Eu611 O625 2.374 . S
Eu611 O626 2.473 . S
Eu611 O627 2.480 . S
Eu611 O628 2.430 . S
Eu611 O629 2.670 . S
Eu611 O630 2.394 . S
C612 C610 1.500 . S
C612 C613 1.377 . S
C612 C617 1.377 . S
C613 C612 1.377 . S
C613 C614 1.395 . S
C613 H636 0.931 . S
C614 C613 1.395 . S
C614 C615 1.383 . S
C614 H637 0.931 . S
C615 C614 1.383 . S
C615 C616 1.394 . S
C616 C615 1.394 . S
C616 C617 1.378 . S
C616 H638 0.931 . S
C617 C612 1.377 . S
C617 C616 1.378 . S
C617 H639 0.931 . S
C618 O628 1.259 . S
C618 O629 1.270 . S
C619 O630 1.251 . S
C619 O631 1.251 . S
O620 C600 1.257 . S
O620 Eu601 2.473 . S
O621 C600 1.260 . S
O621 Eu601 2.480 . S
O622 Eu601 2.430 . S
O622 C608 1.259 . S
O623 Eu601 2.670 . S
O623 C608 1.270 . S
O623 Eu611 2.355 . S
O624 Eu601 2.394 . S
O624 C609 1.251 . S
O625 C609 1.251 . S
O625 Eu611 2.374 . S
O626 C610 1.257 . S
O626 Eu611 2.473 . S
O627 C610 1.260 . S
O627 Eu611 2.480 . S
O628 Eu611 2.430 . S
O628 C618 1.259 . S
O629 Eu601 2.355 . S
O629 Eu611 2.670 . S
O629 C618 1.270 . S
O630 Eu611 2.394 . S
O630 C619 1.251 . S
O631 Eu601 2.374 . S
O631 C619 1.251 . S
H632 C603 0.931 . S
H633 C604 0.931 . S
H634 C606 0.931 . S
H635 C607 0.931 . S
H636 C613 0.931 . S
H637 C614 0.931 . S
H638 C616 0.931 . S
H639 C617 0.931 . S
C640 C641 1.349 . S
C640 C642 1.327 . S
C640 H665 0.950 . S
C641 C640 1.349 . S
C641 C657 1.349 . S
C642 C640 1.327 . S
C642 C661 1.429 . S
C642 H666 0.950 . S
C643 C660 1.574 . S
C643 C662 1.368 . S
C643 H667 0.949 . S
H644 C648 0.949 . S
C645 C646 1.349 . S
C645 C647 1.327 . S
C645 H668 0.950 . S
C646 C645 1.349 . S
C646 C658 1.349 . S
C647 C645 1.327 . S
C647 C663 1.429 . S
C647 H669 0.950 . S
C648 H644 0.949 . S
C648 C656 1.574 . S
C648 C664 1.368 . S
H649 C657 0.950 . S
H650 C655 0.950 . S
H651 C656 0.949 . S
H652 C658 0.950 . S
H653 C659 0.950 . S
H654 C660 0.949 . S
C655 H650 0.950 . S
C655 C657 1.327 . S
C655 C661 1.429 . S
C656 C648 1.574 . S
C656 H651 0.949 . S
C656 C662 1.368 . S
C657 C641 1.349 . S
C657 H649 0.950 . S
C657 C655 1.327 . S
C658 C646 1.349 . S
C658 H652 0.950 . S
C658 C659 1.327 . S
C659 H653 0.950 . S
C659 C658 1.327 . S
C659 C663 1.429 . S
C660 C643 1.574 . S
C660 H654 0.949 . S
C660 C664 1.368 . S
C661 C642 1.429 . S
C661 C655 1.429 . S
C661 C662 1.523 . S
C662 C643 1.368 . S
C662 C656 1.368 . S
C662 C661 1.523 . S
C663 C647 1.429 . S
C663 C659 1.429 . S
C663 C664 1.523 . S
C664 C648 1.368 . S
C664 C660 1.368 . S
C664 C663 1.523 . S
H665 C640 0.950 . S
H666 C642 0.950 . S
H667 C643 0.949 . S
H668 C645 0.950 . S
H669 C647 0.950 . S
C670 C671 1.349 . S
C670 C672 1.327 1_554 S
C670 H695 0.950 . S
C671 C670 1.349 . S
C671 C687 1.349 1_554 S
C672 C670 1.327 1_556 S
C672 C691 1.429 . S
C672 H696 0.950 . S
C673 C690 1.574 . S
C673 C692 1.368 . S
C673 H697 0.949 . S
H674 C678 0.949 . S
C675 C676 1.349 . S
C675 C677 1.327 . S
C675 H698 0.950 . S
C676 C675 1.349 . S
C676 C688 1.349 . S
C677 C675 1.327 . S
C677 C693 1.429 . S
C677 H699 0.950 . S
C678 H674 0.949 . S
C678 C686 1.574 . S
C678 C694 1.368 . S
H679 C687 0.950 1_554 S
H680 C685 0.950 . S
H681 C686 0.949 . S
H682 C688 0.950 . S
H683 C689 0.950 . S
H684 C690 0.949 . S
C685 H680 0.950 . S
C685 C687 1.327 . S
C685 C691 1.429 . S
C686 C678 1.574 . S
C686 H681 0.949 . S
C686 C692 1.368 . S
C687 C671 1.349 1_556 S
C687 H679 0.950 1_556 S
C687 C685 1.327 . S
C688 C676 1.349 . S
C688 H682 0.950 . S
C688 C689 1.327 . S
C689 H683 0.950 . S
C689 C688 1.327 . S
C689 C693 1.429 . S
C690 C673 1.574 . S
C690 H684 0.949 . S
C690 C694 1.368 . S
C691 C672 1.429 . S
C691 C685 1.429 . S
C691 C692 1.523 . S
C692 C673 1.368 . S
C692 C686 1.368 . S
C692 C691 1.523 . S
C693 C677 1.429 . S
C693 C689 1.429 . S
C693 C694 1.523 . S
C694 C678 1.368 . S
C694 C690 1.368 . S
C694 C693 1.523 . S
H695 C670 0.950 . S
H696 C672 0.950 . S
H697 C673 0.949 . S
H698 C675 0.950 . S
H699 C677 0.950 . S
C700 C701 1.349 . S
C700 C702 1.327 . S
C700 H725 0.950 . S
C701 C700 1.349 . S
C701 C717 1.349 . S
C702 C700 1.327 . S
C702 C721 1.429 . S
C702 H726 0.950 . S
C703 C720 1.574 . S
C703 C722 1.368 . S
C703 H727 0.949 . S
H704 C708 0.949 . S
C705 C706 1.349 . S
C705 C707 1.327 . S
C705 H728 0.950 . S
C706 C705 1.349 . S
C706 C718 1.349 . S
C707 C705 1.327 . S
C707 C723 1.429 . S
C707 H729 0.950 . S
C708 H704 0.949 . S
C708 C716 1.574 . S
C708 C724 1.368 . S
H709 C717 0.950 . S
H710 C715 0.950 . S
H711 C716 0.949 . S
H712 C718 0.950 . S
H713 C719 0.950 . S
H714 C720 0.949 . S
C715 H710 0.950 . S
C715 C717 1.327 . S
C715 C721 1.429 . S
C716 C708 1.574 . S
C716 H711 0.949 . S
C716 C722 1.368 . S
C717 C701 1.349 . S
C717 H709 0.950 . S
C717 C715 1.327 . S
C718 C706 1.349 . S
C718 H712 0.950 . S
C718 C719 1.327 . S
C719 H713 0.950 . S
C719 C718 1.327 . S
C719 C723 1.429 . S
C720 C703 1.574 . S
C720 H714 0.949 . S
C720 C724 1.368 . S
C721 C702 1.429 . S
C721 C715 1.429 . S
C721 C722 1.523 . S
C722 C703 1.368 . S
C722 C716 1.368 . S
C722 C721 1.523 . S
C723 C707 1.429 . S
C723 C719 1.429 . S
C723 C724 1.523 . S
C724 C708 1.368 . S
C724 C720 1.368 . S
C724 C723 1.523 . S
H725 C700 0.950 . S
H726 C702 0.950 . S
H727 C703 0.949 . S
H728 C705 0.950 . S
H729 C707 0.950 . S
C730 C731 1.349 . S
C730 C732 1.327 . S
C730 H755 0.950 . S
C731 C730 1.349 . S
C731 C747 1.349 . S
C732 C730 1.327 . S
C732 C751 1.429 . S
C732 H756 0.950 . S
C733 C750 1.574 . S
C733 C752 1.368 . S
C733 H757 0.949 . S
H734 C738 0.949 . S
C735 C736 1.349 . S
C735 C737 1.327 . S
C735 H758 0.950 . S
C736 C735 1.349 . S
C736 C748 1.349 . S
C737 C735 1.327 . S
C737 C753 1.429 . S
C737 H759 0.950 . S
C738 H734 0.949 . S
C738 C746 1.574 . S
C738 C754 1.368 . S
H739 C747 0.950 . S
H740 C745 0.950 . S
H741 C746 0.949 . S
H742 C748 0.950 . S
H743 C749 0.950 . S
H744 C750 0.949 . S
C745 H740 0.950 . S
C745 C747 1.327 . S
C745 C751 1.429 . S
C746 C738 1.574 . S
C746 H741 0.949 . S
C746 C752 1.368 . S
C747 C731 1.349 . S
C747 H739 0.950 . S
C747 C745 1.327 . S
C748 C736 1.349 . S
C748 H742 0.950 . S
C748 C749 1.327 . S
C749 H743 0.950 . S
C749 C748 1.327 . S
C749 C753 1.429 . S
C750 C733 1.574 . S
C750 H744 0.949 . S
C750 C754 1.368 . S
C751 C732 1.429 . S
C751 C745 1.429 . S
C751 C752 1.523 . S
C752 C733 1.368 . S
C752 C746 1.368 . S
C752 C751 1.523 . S
C753 C737 1.429 . S
C753 C749 1.429 . S
C753 C754 1.523 . S
C754 C738 1.368 . S
C754 C750 1.368 . S
C754 C753 1.523 . S
H755 C730 0.950 . S
H756 C732 0.950 . S
H757 C733 0.949 . S
H758 C735 0.950 . S
H759 C737 0.950 . S
C760 C761 1.349 . S
C760 C762 1.327 . S
C760 H785 0.950 . S
C761 C760 1.349 . S
C761 C777 1.349 . S
C762 C760 1.327 . S
C762 C781 1.429 . S
C762 H786 0.950 . S
C763 C780 1.574 . S
C763 C782 1.368 . S
C763 H787 0.949 . S
H764 C768 0.949 . S
C765 C766 1.349 . S
C765 C767 1.327 . S
C765 H788 0.950 . S
C766 C765 1.349 . S
C766 C778 1.349 . S
C767 C765 1.327 . S
C767 C783 1.429 . S
C767 H789 0.950 . S
C768 H764 0.949 . S
C768 C776 1.574 . S
C768 C784 1.368 . S
H769 C777 0.950 . S
H770 C775 0.950 . S
H771 C776 0.949 . S
H772 C778 0.950 . S
H773 C779 0.950 . S
H774 C780 0.949 . S
C775 H770 0.950 . S
C775 C777 1.327 . S
C775 C781 1.429 . S
C776 C768 1.574 . S
C776 H771 0.949 . S
C776 C782 1.368 . S
C777 C761 1.349 . S
C777 H769 0.950 . S
C777 C775 1.327 . S
C778 C766 1.349 . S
C778 H772 0.950 . S
C778 C779 1.327 . S
C779 H773 0.950 . S
C779 C778 1.327 . S
C779 C783 1.429 . S
C780 C763 1.574 . S
C780 H774 0.949 . S
C780 C784 1.368 . S
C781 C762 1.429 . S
C781 C775 1.429 . S
C781 C782 1.523 . S
C782 C763 1.368 . S
C782 C776 1.368 . S
C782 C781 1.523 . S
C783 C767 1.429 . S
C783 C779 1.429 . S
C783 C784 1.523 . S
C784 C768 1.368 . S
C784 C780 1.368 . S
C784 C783 1.523 . S
H785 C760 0.950 . S
H786 C762 0.950 . S
H787 C763 0.949 . S
H788 C765 0.950 . S
H789 C767 0.950 . S
C790 C791 1.349 . S
C790 C792 1.327 . S
C790 H815 0.950 . S
C791 C790 1.349 . S
C791 C807 1.349 . S
C792 C790 1.327 . S
C792 C811 1.429 . S
C792 H816 0.950 . S
C793 C810 1.574 . S
C793 C812 1.368 . S
C793 H817 0.949 . S
H794 C798 0.949 . S
C795 C796 1.349 . S
C795 C797 1.327 . S
C795 H818 0.950 . S
C796 C795 1.349 . S
C796 C808 1.349 . S
C797 C795 1.327 . S
C797 C813 1.429 . S
C797 H819 0.950 . S
C798 H794 0.949 . S
C798 C806 1.574 . S
C798 C814 1.368 . S
H799 C807 0.950 . S
H800 C805 0.950 . S
H801 C806 0.949 . S
H802 C808 0.950 . S
H803 C809 0.950 . S
H804 C810 0.949 . S
C805 H800 0.950 . S
C805 C807 1.327 . S
C805 C811 1.429 . S
C806 C798 1.574 . S
C806 H801 0.949 . S
C806 C812 1.368 . S
C807 C791 1.349 . S
C807 H799 0.950 . S
C807 C805 1.327 . S
C808 C796 1.349 . S
C808 H802 0.950 . S
C808 C809 1.327 . S
C809 H803 0.950 . S
C809 C808 1.327 . S
C809 C813 1.429 . S
C810 C793 1.574 . S
C810 H804 0.949 . S
C810 C814 1.368 . S
C811 C792 1.429 . S
C811 C805 1.429 . S
C811 C812 1.523 . S
C812 C793 1.368 . S
C812 C806 1.368 . S
C812 C811 1.523 . S
C813 C797 1.429 . S
C813 C809 1.429 . S
C813 C814 1.523 . S
C814 C798 1.368 . S
C814 C810 1.368 . S
C814 C813 1.523 . S
H815 C790 0.950 . S
H816 C792 0.950 . S
H817 C793 0.949 . S
H818 C795 0.950 . S
H819 C797 0.950 . S
C820 C821 1.349 . S
C820 C822 1.327 . S
C820 H845 0.950 . S
C821 C820 1.349 . S
C821 C837 1.349 . S
C822 C820 1.327 . S
C822 C841 1.429 . S
C822 H846 0.950 . S
C823 C840 1.574 . S
C823 C842 1.368 . S
C823 H847 0.949 . S
H824 C828 0.949 . S
C825 C826 1.349 1_556 S
C825 C827 1.327 . S
C825 H848 0.950 . S
C826 C825 1.349 1_554 S
C826 C838 1.349 . S
C827 C825 1.327 . S
C827 C843 1.429 . S
C827 H849 0.950 . S
C828 H824 0.949 . S
C828 C836 1.574 . S
C828 C844 1.368 . S
H829 C837 0.950 . S
H830 C835 0.950 . S
H831 C836 0.949 . S
H832 C838 0.950 . S
H833 C839 0.950 . S
H834 C840 0.949 . S
C835 H830 0.950 . S
C835 C837 1.327 . S
C835 C841 1.429 . S
C836 C828 1.574 . S
C836 H831 0.949 . S
C836 C842 1.368 . S
C837 C821 1.349 . S
C837 H829 0.950 . S
C837 C835 1.327 . S
C838 C826 1.349 . S
C838 H832 0.950 . S
C838 C839 1.327 1_554 S
C839 H833 0.950 . S
C839 C838 1.327 1_556 S
C839 C843 1.429 . S
C840 C823 1.574 . S
C840 H834 0.949 . S
C840 C844 1.368 . S
C841 C822 1.429 . S
C841 C835 1.429 . S
C841 C842 1.523 . S
C842 C823 1.368 . S
C842 C836 1.368 . S
C842 C841 1.523 . S
C843 C827 1.429 . S
C843 C839 1.429 . S
C843 C844 1.523 . S
C844 C828 1.368 . S
C844 C840 1.368 . S
C844 C843 1.523 . S
H845 C820 0.950 . S
H846 C822 0.950 . S
H847 C823 0.949 . S
H848 C825 0.950 . S
H849 C827 0.950 . S
C850 C851 1.349 . S
C850 C852 1.327 . S
C850 H875 0.950 . S
C851 C850 1.349 . S
C851 C867 1.349 . S
C852 C850 1.327 . S
C852 C871 1.429 . S
C852 H876 0.950 . S
C853 C870 1.574 . S
C853 C872 1.368 . S
C853 H877 0.949 . S
H854 C858 0.949 . S
C855 C856 1.349 . S
C855 C857 1.327 . S
C855 H878 0.950 . S
C856 C855 1.349 . S
C856 C868 1.349 . S
C857 C855 1.327 . S
C857 C873 1.429 . S
C857 H879 0.950 . S
C858 H854 0.949 . S
C858 C866 1.574 . S
C858 C874 1.368 . S
H859 C867 0.950 . S
H860 C865 0.950 . S
H861 C866 0.949 . S
H862 C868 0.950 . S
H863 C869 0.950 . S
H864 C870 0.949 . S
C865 H860 0.950 . S
C865 C867 1.327 . S
C865 C871 1.429 . S
C866 C858 1.574 . S
C866 H861 0.949 . S
C866 C872 1.368 . S
C867 C851 1.349 . S
C867 H859 0.950 . S
C867 C865 1.327 . S
C868 C856 1.349 . S
C868 H862 0.950 . S
C868 C869 1.327 . S
C869 H863 0.950 . S
C869 C868 1.327 . S
C869 C873 1.429 . S
C870 C853 1.574 . S
C870 H864 0.949 . S
C870 C874 1.368 . S
C871 C852 1.429 . S
C871 C865 1.429 . S
C871 C872 1.523 . S
C872 C853 1.368 . S
C872 C866 1.368 . S
C872 C871 1.523 . S
C873 C857 1.429 . S
C873 C869 1.429 . S
C873 C874 1.523 . S
C874 C858 1.368 . S
C874 C870 1.368 . S
C874 C873 1.523 . S
H875 C850 0.950 . S
H876 C852 0.950 . S
H877 C853 0.949 . S
H878 C855 0.950 . S
H879 C857 0.950 . S
C880 C881 1.349 . S
C880 C882 1.327 . S
C880 H905 0.950 . S
C881 C880 1.349 . S
C881 C897 1.349 . S
C882 C880 1.327 . S
C882 C901 1.429 . S
C882 H906 0.950 . S
C883 C900 1.574 . S
C883 C902 1.368 . S
C883 H907 0.949 . S
H884 C888 0.949 . S
C885 C886 1.349 . S
C885 C887 1.327 . S
C885 H908 0.950 . S
C886 C885 1.349 . S
C886 C898 1.349 . S
C887 C885 1.327 . S
C887 C903 1.429 . S
C887 H909 0.950 . S
C888 H884 0.949 . S
C888 C896 1.574 . S
C888 C904 1.368 . S
H889 C897 0.950 . S
H890 C895 0.950 . S
H891 C896 0.949 . S
H892 C898 0.950 . S
H893 C899 0.950 . S
H894 C900 0.949 . S
C895 H890 0.950 . S
C895 C897 1.327 . S
C895 C901 1.429 . S
C896 C888 1.574 . S
C896 H891 0.949 . S
C896 C902 1.368 . S
C897 C881 1.349 . S
C897 H889 0.950 . S
C897 C895 1.327 . S
C898 C886 1.349 . S
C898 H892 0.950 . S
C898 C899 1.327 . S
C899 H893 0.950 . S
C899 C898 1.327 . S
C899 C903 1.429 . S
C900 C883 1.574 . S
C900 H894 0.949 . S
C900 C904 1.368 . S
C901 C882 1.429 . S
C901 C895 1.429 . S
C901 C902 1.523 . S
C902 C883 1.368 . S
C902 C896 1.368 . S
C902 C901 1.523 . S
C903 C887 1.429 . S
C903 C899 1.429 . S
C903 C904 1.523 . S
C904 C888 1.368 . S
C904 C900 1.368 . S
C904 C903 1.523 . S
H905 C880 0.950 . S
H906 C882 0.950 . S
H907 C883 0.949 . S
H908 C885 0.950 . S
H909 C887 0.950 . S
C910 C911 1.349 . S
C910 C912 1.327 . S
C910 H935 0.950 . S
C911 C910 1.349 . S
C911 C927 1.349 . S
C912 C910 1.327 . S
C912 C931 1.429 . S
C912 H936 0.950 . S
C913 C930 1.574 . S
C913 C932 1.368 . S
C913 H937 0.949 . S
H914 C918 0.949 . S
C915 C916 1.349 1_554 S
C915 C917 1.327 . S
C915 H938 0.950 1_554 S
C916 C915 1.349 1_556 S
C916 C928 1.349 . S
C917 C915 1.327 . S
C917 C933 1.429 . S
C917 H939 0.950 . S
C918 H914 0.949 . S
C918 C926 1.574 . S
C918 C934 1.368 . S
H919 C927 0.950 . S
H920 C925 0.950 . S
H921 C926 0.949 . S
H922 C928 0.950 . S
H923 C929 0.950 . S
H924 C930 0.949 . S
C925 H920 0.950 . S
C925 C927 1.327 . S
C925 C931 1.429 . S
C926 C918 1.574 . S
C926 H921 0.949 . S
C926 C932 1.368 . S
C927 C911 1.349 . S
C927 H919 0.950 . S
C927 C925 1.327 . S
C928 C916 1.349 . S
C928 H922 0.950 . S
C928 C929 1.327 1_556 S
C929 H923 0.950 . S
C929 C928 1.327 1_554 S
C929 C933 1.429 . S
C930 C913 1.574 . S
C930 H924 0.949 . S
C930 C934 1.368 . S
C931 C912 1.429 . S
C931 C925 1.429 . S
C931 C932 1.523 . S
C932 C913 1.368 . S
C932 C926 1.368 . S
C932 C931 1.523 . S
C933 C917 1.429 . S
C933 C929 1.429 . S
C933 C934 1.523 . S
C934 C918 1.368 . S
C934 C930 1.368 . S
C934 C933 1.523 . S
H935 C910 0.950 . S
H936 C912 0.950 . S
H937 C913 0.949 . S
H938 C915 0.950 1_556 S
H939 C917 0.950 . S
C940 C941 1.349 . S
C940 C942 1.327 . S
C940 H965 0.950 . S
C941 C940 1.349 . S
C941 C957 1.349 . S
C942 C940 1.327 . S
C942 C961 1.429 . S
C942 H966 0.950 . S
C943 C960 1.574 . S
C943 C962 1.368 . S
C943 H967 0.949 . S
H944 C948 0.949 . S
C945 C946 1.349 . S
C945 C947 1.327 . S
C945 H968 0.950 . S
C946 C945 1.349 . S
C946 C958 1.349 . S
C947 C945 1.327 . S
C947 C963 1.429 . S
C947 H969 0.950 . S
C948 H944 0.949 . S
C948 C956 1.574 . S
C948 C964 1.368 . S
H949 C957 0.950 . S
H950 C955 0.950 . S
H951 C956 0.949 . S
H952 C958 0.950 . S
H953 C959 0.950 . S
H954 C960 0.949 . S
C955 H950 0.950 . S
C955 C957 1.327 . S
C955 C961 1.429 . S
C956 C948 1.574 . S
C956 H951 0.949 . S
C956 C962 1.368 . S
C957 C941 1.349 . S
C957 H949 0.950 . S
C957 C955 1.327 . S
C958 C946 1.349 . S
C958 H952 0.950 . S
C958 C959 1.327 . S
C959 H953 0.950 . S
C959 C958 1.327 . S
C959 C963 1.429 . S
C960 C943 1.574 . S
C960 H954 0.949 . S
C960 C964 1.368 . S
C961 C942 1.429 . S
C961 C955 1.429 . S
C961 C962 1.523 . S
C962 C943 1.368 . S
C962 C956 1.368 . S
C962 C961 1.523 . S
C963 C947 1.429 . S
C963 C959 1.429 . S
C963 C964 1.523 . S
C964 C948 1.368 . S
C964 C960 1.368 . S
C964 C963 1.523 . S
H965 C940 0.950 . S
H966 C942 0.950 . S
H967 C943 0.949 . S
H968 C945 0.950 . S
H969 C947 0.950 . S
C970 C971 1.349 . S
C970 C972 1.327 . S
C970 H995 0.950 . S
C971 C970 1.349 . S
C971 C987 1.349 . S
C972 C970 1.327 . S
C972 C991 1.429 . S
C972 H996 0.950 . S
C973 C990 1.574 . S
C973 C992 1.368 . S
C973 H997 0.949 . S
H974 C978 0.949 . S
C975 C976 1.349 . S
C975 C977 1.327 . S
C975 H998 0.950 . S
C976 C975 1.349 . S
C976 C988 1.349 . S
C977 C975 1.327 . S
C977 C993 1.429 . S
C977 H999 0.950 . S
C978 H974 0.949 . S
C978 C986 1.574 . S
C978 C994 1.368 . S
H979 C987 0.950 . S
H980 C985 0.950 . S
H981 C986 0.949 . S
H982 C988 0.950 . S
H983 C989 0.950 . S
H984 C990 0.949 . S
C985 H980 0.950 . S
C985 C987 1.327 . S
C985 C991 1.429 . S
C986 C978 1.574 . S
C986 H981 0.949 . S
C986 C992 1.368 . S
C987 C971 1.349 . S
C987 H979 0.950 . S
C987 C985 1.327 . S
C988 C976 1.349 . S
C988 H982 0.950 . S
C988 C989 1.327 . S
C989 H983 0.950 . S
C989 C988 1.327 . S
C989 C993 1.429 . S
C990 C973 1.574 . S
C990 H984 0.949 . S
C990 C994 1.368 . S
C991 C972 1.429 . S
C991 C985 1.429 . S
C991 C992 1.523 . S
C992 C973 1.368 . S
C992 C986 1.368 . S
C992 C991 1.523 . S
C993 C977 1.429 . S
C993 C989 1.429 . S
C993 C994 1.523 . S
C994 C978 1.368 . S
C994 C990 1.368 . S
C994 C993 1.523 . S
H995 C970 0.950 . S
H996 C972 0.950 . S
H997 C973 0.949 . S
H998 C975 0.950 . S
H999 C977 0.950 . S
C1000 C1001 1.349 . S
C1000 C1002 1.327 . S
C1000 H1025 0.950 . S
C1001 C1000 1.349 . S
C1001 C1017 1.349 . S
C1002 C1000 1.327 . S
C1002 C1021 1.429 . S
C1002 H1026 0.950 . S
C1003 C1020 1.574 . S
C1003 C1022 1.368 . S
C1003 H1027 0.949 . S
H1004 C1008 0.949 . S
C1005 C1006 1.349 . S
C1005 C1007 1.327 . S
C1005 H1028 0.950 . S
C1006 C1005 1.349 . S
C1006 C1018 1.349 . S
C1007 C1005 1.327 . S
C1007 C1023 1.429 . S
C1007 H1029 0.950 . S
C1008 H1004 0.949 . S
C1008 C1016 1.574 . S
C1008 C1024 1.368 . S
H1009 C1017 0.950 . S
H1010 C1015 0.950 . S
H1011 C1016 0.949 . S
H1012 C1018 0.950 . S
H1013 C1019 0.950 . S
H1014 C1020 0.949 . S
C1015 H1010 0.950 . S
C1015 C1017 1.327 . S
C1015 C1021 1.429 . S
C1016 C1008 1.574 . S
C1016 H1011 0.949 . S
C1016 C1022 1.368 . S
C1017 C1001 1.349 . S
C1017 H1009 0.950 . S
C1017 C1015 1.327 . S
C1018 C1006 1.349 . S
C1018 H1012 0.950 . S
C1018 C1019 1.327 . S
C1019 H1013 0.950 . S
C1019 C1018 1.327 . S
C1019 C1023 1.429 . S
C1020 C1003 1.574 . S
C1020 H1014 0.949 . S
C1020 C1024 1.368 . S
C1021 C1002 1.429 . S
C1021 C1015 1.429 . S
C1021 C1022 1.523 . S
C1022 C1003 1.368 . S
C1022 C1016 1.368 . S
C1022 C1021 1.523 . S
C1023 C1007 1.429 . S
C1023 C1019 1.429 . S
C1023 C1024 1.523 . S
C1024 C1008 1.368 . S
C1024 C1020 1.368 . S
C1024 C1023 1.523 . S
H1025 C1000 0.950 . S
H1026 C1002 0.950 . S
H1027 C1003 0.949 . S
H1028 C1005 0.950 . S
H1029 C1007 0.950 . S
C1030 C1031 1.349 . S
C1030 C1032 1.327 . S
C1030 H1055 0.950 . S
C1031 C1030 1.349 . S
C1031 C1047 1.349 . S
C1032 C1030 1.327 . S
C1032 C1051 1.429 . S
C1032 H1056 0.950 . S
C1033 C1050 1.574 . S
C1033 C1052 1.368 . S
C1033 H1057 0.949 . S
H1034 C1038 0.949 . S
C1035 C1036 1.349 . S
C1035 C1037 1.327 . S
C1035 H1058 0.950 . S
C1036 C1035 1.349 . S
C1036 C1048 1.349 . S
C1037 C1035 1.327 . S
C1037 C1053 1.429 . S
C1037 H1059 0.950 . S
C1038 H1034 0.949 . S
C1038 C1046 1.574 . S
C1038 C1054 1.368 . S
H1039 C1047 0.950 . S
H1040 C1045 0.950 . S
H1041 C1046 0.949 . S
H1042 C1048 0.950 . S
H1043 C1049 0.950 . S
H1044 C1050 0.949 . S
C1045 H1040 0.950 . S
C1045 C1047 1.327 . S
C1045 C1051 1.429 . S
C1046 C1038 1.574 . S
C1046 H1041 0.949 . S
C1046 C1052 1.368 . S
C1047 C1031 1.349 . S
C1047 H1039 0.950 . S
C1047 C1045 1.327 . S
C1048 C1036 1.349 . S
C1048 H1042 0.950 . S
C1048 C1049 1.327 . S
C1049 H1043 0.950 . S
C1049 C1048 1.327 . S
C1049 C1053 1.429 . S
C1050 C1033 1.574 . S
C1050 H1044 0.949 . S
C1050 C1054 1.368 . S
C1051 C1032 1.429 . S
C1051 C1045 1.429 . S
C1051 C1052 1.523 . S
C1052 C1033 1.368 . S
C1052 C1046 1.368 . S
C1052 C1051 1.523 . S
C1053 C1037 1.429 . S
C1053 C1049 1.429 . S
C1053 C1054 1.523 . S
C1054 C1038 1.368 . S
C1054 C1050 1.368 . S
C1054 C1053 1.523 . S
H1055 C1030 0.950 . S
H1056 C1032 0.950 . S
H1057 C1033 0.949 . S
H1058 C1035 0.950 . S
H1059 C1037 0.950 . S
C1060 C1061 1.349 . S
C1060 C1062 1.327 . S
C1060 H1085 0.950 . S
C1061 C1060 1.349 . S
C1061 C1077 1.349 . S
C1062 C1060 1.327 . S
C1062 C1081 1.429 . S
C1062 H1086 0.950 . S
C1063 C1080 1.574 . S
C1063 C1082 1.368 . S
C1063 H1087 0.949 . S
H1064 C1068 0.949 . S
C1065 C1066 1.349 1_554 S
C1065 C1067 1.327 . S
C1065 H1088 0.950 . S
C1066 C1065 1.349 1_556 S
C1066 C1078 1.349 . S
C1067 C1065 1.327 . S
C1067 C1083 1.429 . S
C1067 H1089 0.950 . S
C1068 H1064 0.949 . S
C1068 C1076 1.574 . S
C1068 C1084 1.368 . S
H1069 C1077 0.950 . S
H1070 C1075 0.950 . S
H1071 C1076 0.949 . S
H1072 C1078 0.950 . S
H1073 C1079 0.950 . S
H1074 C1080 0.949 . S
C1075 H1070 0.950 . S
C1075 C1077 1.327 . S
C1075 C1081 1.429 . S
C1076 C1068 1.574 . S
C1076 H1071 0.949 . S
C1076 C1082 1.368 . S
C1077 C1061 1.349 . S
C1077 H1069 0.950 . S
C1077 C1075 1.327 . S
C1078 C1066 1.349 . S
C1078 H1072 0.950 . S
C1078 C1079 1.327 1_556 S
C1079 H1073 0.950 . S
C1079 C1078 1.327 1_554 S
C1079 C1083 1.429 . S
C1080 C1063 1.574 . S
C1080 H1074 0.949 . S
C1080 C1084 1.368 . S
C1081 C1062 1.429 . S
C1081 C1075 1.429 . S
C1081 C1082 1.523 . S
C1082 C1063 1.368 . S
C1082 C1076 1.368 . S
C1082 C1081 1.523 . S
C1083 C1067 1.429 . S
C1083 C1079 1.429 . S
C1083 C1084 1.523 . S
C1084 C1068 1.368 . S
C1084 C1080 1.368 . S
C1084 C1083 1.523 . S
H1085 C1060 0.950 . S
H1086 C1062 0.950 . S
H1087 C1063 0.949 . S
H1088 C1065 0.950 . S
H1089 C1067 0.950 . S
C1090 C1091 1.349 . S
C1090 C1092 1.327 . S
C1090 H1115 0.950 . S
C1091 C1090 1.349 . S
C1091 C1107 1.349 . S
C1092 C1090 1.327 . S
C1092 C1111 1.429 . S
C1092 H1116 0.950 . S
C1093 C1110 1.574 . S
C1093 C1112 1.368 . S
C1093 H1117 0.949 . S
H1094 C1098 0.949 . S
C1095 C1096 1.349 . S
C1095 C1097 1.327 . S
C1095 H1118 0.950 . S
C1096 C1095 1.349 . S
C1096 C1108 1.349 . S
C1097 C1095 1.327 . S
C1097 C1113 1.429 . S
C1097 H1119 0.950 . S
C1098 H1094 0.949 . S
C1098 C1106 1.574 . S
C1098 C1114 1.368 . S
H1099 C1107 0.950 . S
H1100 C1105 0.950 . S
H1101 C1106 0.949 . S
H1102 C1108 0.950 . S
H1103 C1109 0.950 . S
H1104 C1110 0.949 . S
C1105 H1100 0.950 . S
C1105 C1107 1.327 . S
C1105 C1111 1.429 . S
C1106 C1098 1.574 . S
C1106 H1101 0.949 . S
C1106 C1112 1.368 . S
C1107 C1091 1.349 . S
C1107 H1099 0.950 . S
C1107 C1105 1.327 . S
C1108 C1096 1.349 . S
C1108 H1102 0.950 . S
C1108 C1109 1.327 . S
C1109 H1103 0.950 . S
C1109 C1108 1.327 . S
C1109 C1113 1.429 . S
C1110 C1093 1.574 . S
C1110 H1104 0.949 . S
C1110 C1114 1.368 . S
C1111 C1092 1.429 . S
C1111 C1105 1.429 . S
C1111 C1112 1.523 . S
C1112 C1093 1.368 . S
C1112 C1106 1.368 . S
C1112 C1111 1.523 . S
C1113 C1097 1.429 . S
C1113 C1109 1.429 . S
C1113 C1114 1.523 . S
C1114 C1098 1.368 . S
C1114 C1110 1.368 . S
C1114 C1113 1.523 . S
H1115 C1090 0.950 . S
H1116 C1092 0.950 . S
H1117 C1093 0.949 . S
H1118 C1095 0.950 . S
H1119 C1097 0.950 . S
C1120 C1121 1.349 . S
C1120 C1122 1.327 . S
C1120 H1145 0.950 . S
C1121 C1120 1.349 . S
C1121 C1137 1.349 . S
C1122 C1120 1.327 . S
C1122 C1141 1.429 . S
C1122 H1146 0.950 . S
C1123 C1140 1.574 . S
C1123 C1142 1.368 . S
C1123 H1147 0.949 . S
H1124 C1128 0.949 . S
C1125 C1126 1.349 . S
C1125 C1127 1.327 . S
C1125 H1148 0.950 . S
C1126 C1125 1.349 . S
C1126 C1138 1.349 . S
C1127 C1125 1.327 . S
C1127 C1143 1.429 . S
C1127 H1149 0.950 . S
C1128 H1124 0.949 . S
C1128 C1136 1.574 . S
C1128 C1144 1.368 . S
H1129 C1137 0.950 . S
H1130 C1135 0.950 . S
H1131 C1136 0.949 . S
H1132 C1138 0.950 . S
H1133 C1139 0.950 . S
H1134 C1140 0.949 . S
C1135 H1130 0.950 . S
C1135 C1137 1.327 . S
C1135 C1141 1.429 . S
C1136 C1128 1.574 . S
C1136 H1131 0.949 . S
C1136 C1142 1.368 . S
C1137 C1121 1.349 . S
C1137 H1129 0.950 . S
C1137 C1135 1.327 . S
C1138 C1126 1.349 . S
C1138 H1132 0.950 . S
C1138 C1139 1.327 . S
C1139 H1133 0.950 . S
C1139 C1138 1.327 . S
C1139 C1143 1.429 . S
C1140 C1123 1.574 . S
C1140 H1134 0.949 . S
C1140 C1144 1.368 . S
C1141 C1122 1.429 . S
C1141 C1135 1.429 . S
C1141 C1142 1.523 . S
C1142 C1123 1.368 . S
C1142 C1136 1.368 . S
C1142 C1141 1.523 . S
C1143 C1127 1.429 . S
C1143 C1139 1.429 . S
C1143 C1144 1.523 . S
C1144 C1128 1.368 . S
C1144 C1140 1.368 . S
C1144 C1143 1.523 . S
H1145 C1120 0.950 . S
H1146 C1122 0.950 . S
H1147 C1123 0.949 . S
H1148 C1125 0.950 . S
H1149 C1127 0.950 . S
C1150 C1151 1.349 . S
C1150 C1152 1.327 . S
C1150 H1175 0.950 . S
C1151 C1150 1.349 . S
C1151 C1167 1.349 . S
C1152 C1150 1.327 . S
C1152 C1171 1.429 . S
C1152 H1176 0.950 . S
C1153 C1170 1.574 . S
C1153 C1172 1.368 . S
C1153 H1177 0.949 . S
H1154 C1158 0.949 . S
C1155 C1156 1.349 . S
C1155 C1157 1.327 . S
C1155 H1178 0.950 . S
C1156 C1155 1.349 . S
C1156 C1168 1.349 . S
C1157 C1155 1.327 . S
C1157 C1173 1.429 . S
C1157 H1179 0.950 . S
C1158 H1154 0.949 . S
C1158 C1166 1.574 . S
C1158 C1174 1.368 . S
H1159 C1167 0.950 . S
H1160 C1165 0.950 . S
H1161 C1166 0.949 . S
H1162 C1168 0.950 . S
H1163 C1169 0.950 . S
H1164 C1170 0.949 . S
C1165 H1160 0.950 . S
C1165 C1167 1.327 . S
C1165 C1171 1.429 . S
C1166 C1158 1.574 . S
C1166 H1161 0.949 . S
C1166 C1172 1.368 . S
C1167 C1151 1.349 . S
C1167 H1159 0.950 . S
C1167 C1165 1.327 . S
C1168 C1156 1.349 . S
C1168 H1162 0.950 . S
C1168 C1169 1.327 . S
C1169 H1163 0.950 . S
C1169 C1168 1.327 . S
C1169 C1173 1.429 . S
C1170 C1153 1.574 . S
C1170 H1164 0.949 . S
C1170 C1174 1.368 . S
C1171 C1152 1.429 . S
C1171 C1165 1.429 . S
C1171 C1172 1.523 . S
C1172 C1153 1.368 . S
C1172 C1166 1.368 . S
C1172 C1171 1.523 . S
C1173 C1157 1.429 . S
C1173 C1169 1.429 . S
C1173 C1174 1.523 . S
C1174 C1158 1.368 . S
C1174 C1170 1.368 . S
C1174 C1173 1.523 . S
H1175 C1150 0.950 . S
H1176 C1152 0.950 . S
H1177 C1153 0.949 . S
H1178 C1155 0.950 . S
H1179 C1157 0.950 . S
C1180 C1181 1.349 . S
C1180 C1182 1.327 . S
C1180 H1205 0.950 . S
C1181 C1180 1.349 . S
C1181 C1197 1.349 . S
C1182 C1180 1.327 . S
C1182 C1201 1.429 . S
C1182 H1206 0.950 . S
C1183 C1200 1.574 . S
C1183 C1202 1.368 . S
C1183 H1207 0.949 . S
H1184 C1188 0.949 . S
C1185 C1186 1.349 . S
C1185 C1187 1.327 . S
C1185 H1208 0.950 . S
C1186 C1185 1.349 . S
C1186 C1198 1.349 . S
C1187 C1185 1.327 . S
C1187 C1203 1.429 . S
C1187 H1209 0.950 . S
C1188 H1184 0.949 . S
C1188 C1196 1.574 . S
C1188 C1204 1.368 . S
H1189 C1197 0.950 . S
H1190 C1195 0.950 . S
H1191 C1196 0.949 . S
H1192 C1198 0.950 . S
H1193 C1199 0.950 . S
H1194 C1200 0.949 . S
C1195 H1190 0.950 . S
C1195 C1197 1.327 . S
C1195 C1201 1.429 . S
C1196 C1188 1.574 . S
C1196 H1191 0.949 . S
C1196 C1202 1.368 . S
C1197 C1181 1.349 . S
C1197 H1189 0.950 . S
C1197 C1195 1.327 . S
C1198 C1186 1.349 . S
C1198 H1192 0.950 . S
C1198 C1199 1.327 . S
C1199 H1193 0.950 . S
C1199 C1198 1.327 . S
C1199 C1203 1.429 . S
C1200 C1183 1.574 . S
C1200 H1194 0.949 . S
C1200 C1204 1.368 . S
C1201 C1182 1.429 . S
C1201 C1195 1.429 . S
C1201 C1202 1.523 . S
C1202 C1183 1.368 . S
C1202 C1196 1.368 . S
C1202 C1201 1.523 . S
C1203 C1187 1.429 . S
C1203 C1199 1.429 . S
C1203 C1204 1.523 . S
C1204 C1188 1.368 . S
C1204 C1200 1.368 . S
C1204 C1203 1.523 . S
H1205 C1180 0.950 . S
H1206 C1182 0.950 . S
H1207 C1183 0.949 . S
H1208 C1185 0.950 . S
H1209 C1187 0.950 . S
C1210 C1211 1.349 . S
C1210 C1212 1.327 . S
C1210 H1235 0.950 . S
C1211 C1210 1.349 . S
C1211 C1227 1.349 . S
C1212 C1210 1.327 . S
C1212 C1231 1.429 . S
C1212 H1236 0.950 . S
C1213 C1230 1.574 1_655 S
C1213 C1232 1.368 . S
C1213 H1237 0.949 . S
H1214 C1218 0.949 . S
C1215 C1216 1.349 . S
C1215 C1217 1.327 . S
C1215 H1238 0.950 . S
C1216 C1215 1.349 . S
C1216 C1228 1.349 . S
C1217 C1215 1.327 . S
C1217 C1233 1.429 . S
C1217 H1239 0.950 . S
C1218 H1214 0.949 . S
C1218 C1226 1.574 1_455 S
C1218 C1234 1.368 . S
H1219 C1227 0.950 . S
H1220 C1225 0.950 . S
H1221 C1226 0.949 . S
H1222 C1228 0.950 . S
H1223 C1229 0.950 . S
H1224 C1230 0.949 . S
C1225 H1220 0.950 . S
C1225 C1227 1.327 . S
C1225 C1231 1.429 . S
C1226 C1218 1.574 1_655 S
C1226 H1221 0.949 . S
C1226 C1232 1.368 . S
C1227 C1211 1.349 . S
C1227 H1219 0.950 . S
C1227 C1225 1.327 . S
C1228 C1216 1.349 . S
C1228 H1222 0.950 . S
C1228 C1229 1.327 . S
C1229 H1223 0.950 . S
C1229 C1228 1.327 . S
C1229 C1233 1.429 . S
C1230 C1213 1.574 1_455 S
C1230 H1224 0.949 . S
C1230 C1234 1.368 . S
C1231 C1212 1.429 . S
C1231 C1225 1.429 . S
C1231 C1232 1.523 . S
C1232 C1213 1.368 . S
C1232 C1226 1.368 . S
C1232 C1231 1.523 . S
C1233 C1217 1.429 . S
C1233 C1229 1.429 . S
C1233 C1234 1.523 . S
C1234 C1218 1.368 . S
C1234 C1230 1.368 . S
C1234 C1233 1.523 . S
H1235 C1210 0.950 . S
H1236 C1212 0.950 . S
H1237 C1213 0.949 . S
H1238 C1215 0.950 . S
H1239 C1217 0.950 . S
C1240 C1241 1.349 . S
C1240 C1242 1.327 . S
C1240 H1265 0.950 . S
C1241 C1240 1.349 . S
C1241 C1257 1.349 . S
C1242 C1240 1.327 . S
C1242 C1261 1.429 . S
C1242 H1266 0.950 . S
C1243 C1260 1.574 . S
C1243 C1262 1.368 . S
C1243 H1267 0.949 . S
H1244 C1248 0.949 . S
C1245 C1246 1.349 . S
C1245 C1247 1.327 . S
C1245 H1268 0.950 . S
C1246 C1245 1.349 . S
C1246 C1258 1.349 . S
C1247 C1245 1.327 . S
C1247 C1263 1.429 . S
C1247 H1269 0.950 . S
C1248 H1244 0.949 . S
C1248 C1256 1.574 . S
C1248 C1264 1.368 . S
H1249 C1257 0.950 . S
H1250 C1255 0.950 . S
H1251 C1256 0.949 . S
H1252 C1258 0.950 . S
H1253 C1259 0.950 . S
H1254 C1260 0.949 . S
C1255 H1250 0.950 . S
C1255 C1257 1.327 . S
C1255 C1261 1.429 . S
C1256 C1248 1.574 . S
C1256 H1251 0.949 . S
C1256 C1262 1.368 . S
C1257 C1241 1.349 . S
C1257 H1249 0.950 . S
C1257 C1255 1.327 . S
C1258 C1246 1.349 . S
C1258 H1252 0.950 . S
C1258 C1259 1.327 . S
C1259 H1253 0.950 . S
C1259 C1258 1.327 . S
C1259 C1263 1.429 . S
C1260 C1243 1.574 . S
C1260 H1254 0.949 . S
C1260 C1264 1.368 . S
C1261 C1242 1.429 . S
C1261 C1255 1.429 . S
C1261 C1262 1.523 . S
C1262 C1243 1.368 . S
C1262 C1256 1.368 . S
C1262 C1261 1.523 . S
C1263 C1247 1.429 . S
C1263 C1259 1.429 . S
C1263 C1264 1.523 . S
C1264 C1248 1.368 . S
C1264 C1260 1.368 . S
C1264 C1263 1.523 . S
H1265 C1240 0.950 . S
H1266 C1242 0.950 . S
H1267 C1243 0.949 . S
H1268 C1245 0.950 . S
H1269 C1247 0.950 . S
C1270 C1271 1.349 . S
C1270 C1272 1.327 . S
C1270 H1295 0.950 . S
C1271 C1270 1.349 . S
C1271 C1287 1.349 . S
C1272 C1270 1.327 . S
C1272 C1291 1.429 . S
C1272 H1296 0.950 . S
C1273 C1290 1.574 1_455 S
C1273 C1292 1.368 . S
C1273 H1297 0.949 . S
H1274 C1278 0.949 . S
C1275 C1276 1.349 . S
C1275 C1277 1.327 . S
C1275 H1298 0.950 . S
C1276 C1275 1.349 . S
C1276 C1288 1.349 . S
C1277 C1275 1.327 . S
C1277 C1293 1.429 . S
C1277 H1299 0.950 . S
C1278 H1274 0.949 . S
C1278 C1286 1.574 1_655 S
C1278 C1294 1.368 . S
H1279 C1287 0.950 . S
H1280 C1285 0.950 . S
H1281 C1286 0.949 . S
H1282 C1288 0.950 . S
H1283 C1289 0.950 . S
H1284 C1290 0.949 . S
C1285 H1280 0.950 . S
C1285 C1287 1.327 . S
C1285 C1291 1.429 . S
C1286 C1278 1.574 1_455 S
C1286 H1281 0.949 . S
C1286 C1292 1.368 . S
C1287 C1271 1.349 . S
C1287 H1279 0.950 . S
C1287 C1285 1.327 . S
C1288 C1276 1.349 . S
C1288 H1282 0.950 . S
C1288 C1289 1.327 . S
C1289 H1283 0.950 . S
C1289 C1288 1.327 . S
C1289 C1293 1.429 . S
C1290 C1273 1.574 1_655 S
C1290 H1284 0.949 . S
C1290 C1294 1.368 . S
C1291 C1272 1.429 . S
C1291 C1285 1.429 . S
C1291 C1292 1.523 . S
C1292 C1273 1.368 . S
C1292 C1286 1.368 . S
C1292 C1291 1.523 . S
C1293 C1277 1.429 . S
C1293 C1289 1.429 . S
C1293 C1294 1.523 . S
C1294 C1278 1.368 . S
C1294 C1290 1.368 . S
C1294 C1293 1.523 . S
H1295 C1270 0.950 . S
H1296 C1272 0.950 . S
H1297 C1273 0.949 . S
H1298 C1275 0.950 . S
H1299 C1277 0.950 . S
C1300 C1301 1.349 . S
C1300 C1302 1.327 . S
C1300 H1325 0.950 . S
C1301 C1300 1.349 . S
C1301 C1317 1.349 . S
C1302 C1300 1.327 . S
C1302 C1321 1.429 . S
C1302 H1326 0.950 . S
C1303 C1320 1.574 . S
C1303 C1322 1.368 . S
C1303 H1327 0.949 . S
H1304 C1308 0.949 . S
C1305 C1306 1.349 . S
C1305 C1307 1.327 . S
C1305 H1328 0.950 . S
C1306 C1305 1.349 . S
C1306 C1318 1.349 . S
C1307 C1305 1.327 . S
C1307 C1323 1.429 . S
C1307 H1329 0.950 . S
C1308 H1304 0.949 . S
C1308 C1316 1.574 . S
C1308 C1324 1.368 . S
H1309 C1317 0.950 . S
H1310 C1315 0.950 . S
H1311 C1316 0.949 . S
H1312 C1318 0.950 . S
H1313 C1319 0.950 . S
H1314 C1320 0.949 . S
C1315 H1310 0.950 . S
C1315 C1317 1.327 . S
C1315 C1321 1.429 . S
C1316 C1308 1.574 . S
C1316 H1311 0.949 . S
C1316 C1322 1.368 . S
C1317 C1301 1.349 . S
C1317 H1309 0.950 . S
C1317 C1315 1.327 . S
C1318 C1306 1.349 . S
C1318 H1312 0.950 . S
C1318 C1319 1.327 . S
C1319 H1313 0.950 . S
C1319 C1318 1.327 . S
C1319 C1323 1.429 . S
C1320 C1303 1.574 . S
C1320 H1314 0.949 . S
C1320 C1324 1.368 . S
C1321 C1302 1.429 . S
C1321 C1315 1.429 . S
C1321 C1322 1.523 . S
C1322 C1303 1.368 . S
C1322 C1316 1.368 . S
C1322 C1321 1.523 . S
C1323 C1307 1.429 . S
C1323 C1319 1.429 . S
C1323 C1324 1.523 . S
C1324 C1308 1.368 . S
C1324 C1320 1.368 . S
C1324 C1323 1.523 . S
H1325 C1300 0.950 . S
H1326 C1302 0.950 . S
H1327 C1303 0.949 . S
H1328 C1305 0.950 . S
H1329 C1307 0.950 . S
C1330 C1331 1.349 . S
C1330 C1332 1.327 . S
C1330 H1355 0.950 . S
C1331 C1330 1.349 . S
C1331 C1347 1.349 . S
C1332 C1330 1.327 . S
C1332 C1351 1.429 . S
C1332 H1356 0.950 . S
C1333 C1350 1.574 . S
C1333 C1352 1.368 . S
C1333 H1357 0.949 . S
H1334 C1338 0.949 . S
C1335 C1336 1.349 . S
C1335 C1337 1.327 . S
C1335 H1358 0.950 . S
C1336 C1335 1.349 . S
C1336 C1348 1.349 . S
C1337 C1335 1.327 . S
C1337 C1353 1.429 . S
C1337 H1359 0.950 . S
C1338 H1334 0.949 . S
C1338 C1346 1.574 . S
C1338 C1354 1.368 . S
H1339 C1347 0.950 . S
H1340 C1345 0.950 . S
H1341 C1346 0.949 . S
H1342 C1348 0.950 . S
H1343 C1349 0.950 . S
H1344 C1350 0.949 . S
C1345 H1340 0.950 . S
C1345 C1347 1.327 . S
C1345 C1351 1.429 . S
C1346 C1338 1.574 . S
C1346 H1341 0.949 . S
C1346 C1352 1.368 . S
C1347 C1331 1.349 . S
C1347 H1339 0.950 . S
C1347 C1345 1.327 . S
C1348 C1336 1.349 . S
C1348 H1342 0.950 . S
C1348 C1349 1.327 . S
C1349 H1343 0.950 . S
C1349 C1348 1.327 . S
C1349 C1353 1.429 . S
C1350 C1333 1.574 . S
C1350 H1344 0.949 . S
C1350 C1354 1.368 . S
C1351 C1332 1.429 . S
C1351 C1345 1.429 . S
C1351 C1352 1.523 . S
C1352 C1333 1.368 . S
C1352 C1346 1.368 . S
C1352 C1351 1.523 . S
C1353 C1337 1.429 . S
C1353 C1349 1.429 . S
C1353 C1354 1.523 . S
C1354 C1338 1.368 . S
C1354 C1350 1.368 . S
C1354 C1353 1.523 . S
H1355 C1330 0.950 . S
H1356 C1332 0.950 . S
H1357 C1333 0.949 . S
H1358 C1335 0.950 . S
H1359 C1337 0.950 . S
C1360 C1361 1.349 . S
C1360 C1362 1.327 . S
C1360 H1385 0.950 . S
C1361 C1360 1.349 . S
C1361 C1377 1.349 . S
C1362 C1360 1.327 . S
C1362 C1381 1.429 . S
C1362 H1386 0.950 . S
C1363 C1380 1.574 . S
C1363 C1382 1.368 . S
C1363 H1387 0.949 . S
H1364 C1368 0.949 . S
C1365 C1366 1.349 . S
C1365 C1367 1.327 . S
C1365 H1388 0.950 . S
C1366 C1365 1.349 . S
C1366 C1378 1.349 . S
C1367 C1365 1.327 . S
C1367 C1383 1.429 . S
C1367 H1389 0.950 . S
C1368 H1364 0.949 . S
C1368 C1376 1.574 . S
C1368 C1384 1.368 . S
H1369 C1377 0.950 . S
H1370 C1375 0.950 . S
H1371 C1376 0.949 . S
H1372 C1378 0.950 . S
H1373 C1379 0.950 . S
H1374 C1380 0.949 . S
C1375 H1370 0.950 . S
C1375 C1377 1.327 . S
C1375 C1381 1.429 . S
C1376 C1368 1.574 . S
C1376 H1371 0.949 . S
C1376 C1382 1.368 . S
C1377 C1361 1.349 . S
C1377 H1369 0.950 . S
C1377 C1375 1.327 . S
C1378 C1366 1.349 . S
C1378 H1372 0.950 . S
C1378 C1379 1.327 . S
C1379 H1373 0.950 . S
C1379 C1378 1.327 . S
C1379 C1383 1.429 . S
C1380 C1363 1.574 . S
C1380 H1374 0.949 . S
C1380 C1384 1.368 . S
C1381 C1362 1.429 . S
C1381 C1375 1.429 . S
C1381 C1382 1.523 . S
C1382 C1363 1.368 . S
C1382 C1376 1.368 . S
C1382 C1381 1.523 . S
C1383 C1367 1.429 . S
C1383 C1379 1.429 . S
C1383 C1384 1.523 . S
C1384 C1368 1.368 . S
C1384 C1380 1.368 . S
C1384 C1383 1.523 . S
H1385 C1360 0.950 . S
H1386 C1362 0.950 . S
H1387 C1363 0.949 . S
H1388 C1365 0.950 . S
H1389 C1367 0.950 . S
C1390 C1391 1.349 . S
C1390 C1392 1.327 . S
C1390 H1415 0.950 . S
C1391 C1390 1.349 . S
C1391 C1407 1.349 . S
C1392 C1390 1.327 . S
C1392 C1411 1.429 . S
C1392 H1416 0.950 . S
C1393 C1410 1.574 . S
C1393 C1412 1.368 . S
C1393 H1417 0.949 . S
H1394 C1398 0.949 . S
C1395 C1396 1.349 . S
C1395 C1397 1.327 . S
C1395 H1418 0.950 . S
C1396 C1395 1.349 . S
C1396 C1408 1.349 . S
C1397 C1395 1.327 . S
C1397 C1413 1.429 . S
C1397 H1419 0.950 . S
C1398 H1394 0.949 . S
C1398 C1406 1.574 . S
C1398 C1414 1.368 . S
H1399 C1407 0.950 . S
H1400 C1405 0.950 . S
H1401 C1406 0.949 . S
H1402 C1408 0.950 . S
H1403 C1409 0.950 . S
H1404 C1410 0.949 . S
C1405 H1400 0.950 . S
C1405 C1407 1.327 . S
C1405 C1411 1.429 . S
C1406 C1398 1.574 . S
C1406 H1401 0.949 . S
C1406 C1412 1.368 . S
C1407 C1391 1.349 . S
C1407 H1399 0.950 . S
C1407 C1405 1.327 . S
C1408 C1396 1.349 . S
C1408 H1402 0.950 . S
C1408 C1409 1.327 . S
C1409 H1403 0.950 . S
C1409 C1408 1.327 . S
C1409 C1413 1.429 . S
C1410 C1393 1.574 . S
C1410 H1404 0.949 . S
C1410 C1414 1.368 . S
C1411 C1392 1.429 . S
C1411 C1405 1.429 . S
C1411 C1412 1.523 . S
C1412 C1393 1.368 . S
C1412 C1406 1.368 . S
C1412 C1411 1.523 . S
C1413 C1397 1.429 . S
C1413 C1409 1.429 . S
C1413 C1414 1.523 . S
C1414 C1398 1.368 . S
C1414 C1410 1.368 . S
C1414 C1413 1.523 . S
H1415 C1390 0.950 . S
H1416 C1392 0.950 . S
H1417 C1393 0.949 . S
H1418 C1395 0.950 . S
H1419 C1397 0.950 . S
C1420 C1421 1.349 . S
C1420 C1422 1.327 . S
C1420 H1445 0.950 . S
C1421 C1420 1.349 . S
C1421 C1437 1.349 . S
C1422 C1420 1.327 . S
C1422 C1441 1.429 . S
C1422 H1446 0.950 . S
C1423 C1440 1.574 . S
C1423 C1442 1.368 . S
C1423 H1447 0.949 . S
H1424 C1428 0.949 . S
C1425 C1426 1.349 . S
C1425 C1427 1.327 . S
C1425 H1448 0.950 . S
C1426 C1425 1.349 . S
C1426 C1438 1.349 . S
C1427 C1425 1.327 . S
C1427 C1443 1.429 . S
C1427 H1449 0.950 . S
C1428 H1424 0.949 . S
C1428 C1436 1.574 . S
C1428 C1444 1.368 . S
H1429 C1437 0.950 . S
H1430 C1435 0.950 . S
H1431 C1436 0.949 . S
H1432 C1438 0.950 . S
H1433 C1439 0.950 . S
H1434 C1440 0.949 . S
C1435 H1430 0.950 . S
C1435 C1437 1.327 . S
C1435 C1441 1.429 . S
C1436 C1428 1.574 . S
C1436 H1431 0.949 . S
C1436 C1442 1.368 . S
C1437 C1421 1.349 . S
C1437 H1429 0.950 . S
C1437 C1435 1.327 . S
C1438 C1426 1.349 . S
C1438 H1432 0.950 . S
C1438 C1439 1.327 . S
C1439 H1433 0.950 . S
C1439 C1438 1.327 . S
C1439 C1443 1.429 . S
C1440 C1423 1.574 . S
C1440 H1434 0.949 . S
C1440 C1444 1.368 . S
C1441 C1422 1.429 . S
C1441 C1435 1.429 . S
C1441 C1442 1.523 . S
C1442 C1423 1.368 . S
C1442 C1436 1.368 . S
C1442 C1441 1.523 . S
C1443 C1427 1.429 . S
C1443 C1439 1.429 . S
C1443 C1444 1.523 . S
C1444 C1428 1.368 . S
C1444 C1440 1.368 . S
C1444 C1443 1.523 . S
H1445 C1420 0.950 . S
H1446 C1422 0.950 . S
H1447 C1423 0.949 . S
H1448 C1425 0.950 . S
H1449 C1427 0.950 . S
C1450 C1451 1.349 . S
C1450 C1452 1.327 . S
C1450 H1475 0.950 . S
C1451 C1450 1.349 . S
C1451 C1467 1.349 . S
C1452 C1450 1.327 . S
C1452 C1471 1.429 . S
C1452 H1476 0.950 . S
C1453 C1470 1.574 . S
C1453 C1472 1.368 . S
C1453 H1477 0.949 . S
H1454 C1458 0.949 . S
C1455 C1456 1.349 . S
C1455 C1457 1.327 . S
C1455 H1478 0.950 . S
C1456 C1455 1.349 . S
C1456 C1468 1.349 . S
C1457 C1455 1.327 . S
C1457 C1473 1.429 . S
C1457 H1479 0.950 . S
C1458 H1454 0.949 . S
C1458 C1466 1.574 . S
C1458 C1474 1.368 . S
H1459 C1467 0.950 . S
H1460 C1465 0.950 . S
H1461 C1466 0.949 . S
H1462 C1468 0.950 . S
H1463 C1469 0.950 . S
H1464 C1470 0.949 . S
C1465 H1460 0.950 . S
C1465 C1467 1.327 . S
C1465 C1471 1.429 . S
C1466 C1458 1.574 . S
C1466 H1461 0.949 . S
C1466 C1472 1.368 . S
C1467 C1451 1.349 . S
C1467 H1459 0.950 . S
C1467 C1465 1.327 . S
C1468 C1456 1.349 . S
C1468 H1462 0.950 . S
C1468 C1469 1.327 . S
C1469 H1463 0.950 . S
C1469 C1468 1.327 . S
C1469 C1473 1.429 . S
C1470 C1453 1.574 . S
C1470 H1464 0.949 . S
C1470 C1474 1.368 . S
C1471 C1452 1.429 . S
C1471 C1465 1.429 . S
C1471 C1472 1.523 . S
C1472 C1453 1.368 . S
C1472 C1466 1.368 . S
C1472 C1471 1.523 . S
C1473 C1457 1.429 . S
C1473 C1469 1.429 . S
C1473 C1474 1.523 . S
C1474 C1458 1.368 . S
C1474 C1470 1.368 . S
C1474 C1473 1.523 . S
H1475 C1450 0.950 . S
H1476 C1452 0.950 . S
H1477 C1453 0.949 . S
H1478 C1455 0.950 . S
H1479 C1457 0.950 . S
C1480 C1481 1.349 . S
C1480 C1482 1.327 . S
C1480 H1505 0.950 . S
C1481 C1480 1.349 . S
C1481 C1497 1.349 . S
C1482 C1480 1.327 . S
C1482 C1501 1.429 . S
C1482 H1506 0.950 . S
C1483 C1500 1.574 1_655 S
C1483 C1502 1.368 . S
C1483 H1507 0.949 . S
H1484 C1488 0.949 . S
C1485 C1486 1.349 . S
C1485 C1487 1.327 . S
C1485 H1508 0.950 . S
C1486 C1485 1.349 . S
C1486 C1498 1.349 . S
C1487 C1485 1.327 . S
C1487 C1503 1.429 . S
C1487 H1509 0.950 . S
C1488 H1484 0.949 . S
C1488 C1496 1.574 1_455 S
C1488 C1504 1.368 . S
H1489 C1497 0.950 . S
H1490 C1495 0.950 . S
H1491 C1496 0.949 . S
H1492 C1498 0.950 . S
H1493 C1499 0.950 . S
H1494 C1500 0.949 . S
C1495 H1490 0.950 . S
C1495 C1497 1.327 . S
C1495 C1501 1.429 . S
C1496 C1488 1.574 1_655 S
C1496 H1491 0.949 . S
C1496 C1502 1.368 . S
C1497 C1481 1.349 . S
C1497 H1489 0.950 . S
C1497 C1495 1.327 . S
C1498 C1486 1.349 . S
C1498 H1492 0.950 . S
C1498 C1499 1.327 . S
C1499 H1493 0.950 . S
C1499 C1498 1.327 . S
C1499 C1503 1.429 . S
C1500 C1483 1.574 1_455 S
C1500 H1494 0.949 . S
C1500 C1504 1.368 . S
C1501 C1482 1.429 . S
C1501 C1495 1.429 . S
C1501 C1502 1.523 . S
C1502 C1483 1.368 . S
C1502 C1496 1.368 . S
C1502 C1501 1.523 . S
C1503 C1487 1.429 . S
C1503 C1499 1.429 . S
C1503 C1504 1.523 . S
C1504 C1488 1.368 . S
C1504 C1500 1.368 . S
C1504 C1503 1.523 . S
H1505 C1480 0.950 . S
H1506 C1482 0.950 . S
H1507 C1483 0.949 . S
H1508 C1485 0.950 . S
H1509 C1487 0.950 . S
C1510 C1511 1.349 . S
C1510 C1512 1.327 . S
C1510 H1535 0.950 . S
C1511 C1510 1.349 . S
C1511 C1527 1.349 . S
C1512 C1510 1.327 . S
C1512 C1531 1.429 . S
C1512 H1536 0.950 . S
C1513 C1530 1.574 . S
C1513 C1532 1.368 . S
C1513 H1537 0.949 . S
H1514 C1518 0.949 . S
C1515 C1516 1.349 . S
C1515 C1517 1.327 . S
C1515 H1538 0.950 . S
C1516 C1515 1.349 . S
C1516 C1528 1.349 . S
C1517 C1515 1.327 . S
C1517 C1533 1.429 . S
C1517 H1539 0.950 . S
C1518 H1514 0.949 . S
C1518 C1526 1.574 . S
C1518 C1534 1.368 . S
H1519 C1527 0.950 . S
H1520 C1525 0.950 . S
H1521 C1526 0.949 . S
H1522 C1528 0.950 . S
H1523 C1529 0.950 . S
H1524 C1530 0.949 . S
C1525 H1520 0.950 . S
C1525 C1527 1.327 . S
C1525 C1531 1.429 . S
C1526 C1518 1.574 . S
C1526 H1521 0.949 . S
C1526 C1532 1.368 . S
C1527 C1511 1.349 . S
C1527 H1519 0.950 . S
C1527 C1525 1.327 . S
C1528 C1516 1.349 . S
C1528 H1522 0.950 . S
C1528 C1529 1.327 . S
C1529 H1523 0.950 . S
C1529 C1528 1.327 . S
C1529 C1533 1.429 . S
C1530 C1513 1.574 . S
C1530 H1524 0.949 . S
C1530 C1534 1.368 . S
C1531 C1512 1.429 . S
C1531 C1525 1.429 . S
C1531 C1532 1.523 . S
C1532 C1513 1.368 . S
C1532 C1526 1.368 . S
C1532 C1531 1.523 . S
C1533 C1517 1.429 . S
C1533 C1529 1.429 . S
C1533 C1534 1.523 . S
C1534 C1518 1.368 . S
C1534 C1530 1.368 . S
C1534 C1533 1.523 . S
H1535 C1510 0.950 . S
H1536 C1512 0.950 . S
H1537 C1513 0.949 . S
H1538 C1515 0.950 . S
H1539 C1517 0.950 . S
C1540 C1541 1.349 . S
C1540 C1542 1.327 . S
C1540 H1565 0.950 . S
C1541 C1540 1.349 . S
C1541 C1557 1.349 . S
C1542 C1540 1.327 . S
C1542 C1561 1.429 . S
C1542 H1566 0.950 . S
C1543 C1560 1.574 . S
C1543 C1562 1.368 . S
C1543 H1567 0.949 . S
H1544 C1548 0.949 . S
C1545 C1546 1.349 . S
C1545 C1547 1.327 . S
C1545 H1568 0.950 . S
C1546 C1545 1.349 . S
C1546 C1558 1.349 . S
C1547 C1545 1.327 . S
C1547 C1563 1.429 . S
C1547 H1569 0.950 . S
C1548 H1544 0.949 . S
C1548 C1556 1.574 . S
C1548 C1564 1.368 . S
H1549 C1557 0.950 . S
H1550 C1555 0.950 . S
H1551 C1556 0.949 . S
H1552 C1558 0.950 . S
H1553 C1559 0.950 . S
H1554 C1560 0.949 . S
C1555 H1550 0.950 . S
C1555 C1557 1.327 . S
C1555 C1561 1.429 . S
C1556 C1548 1.574 . S
C1556 H1551 0.949 . S
C1556 C1562 1.368 . S
C1557 C1541 1.349 . S
C1557 H1549 0.950 . S
C1557 C1555 1.327 . S
C1558 C1546 1.349 . S
C1558 H1552 0.950 . S
C1558 C1559 1.327 . S
C1559 H1553 0.950 . S
C1559 C1558 1.327 . S
C1559 C1563 1.429 . S
C1560 C1543 1.574 . S
C1560 H1554 0.949 . S
C1560 C1564 1.368 . S
C1561 C1542 1.429 . S
C1561 C1555 1.429 . S
C1561 C1562 1.523 . S
C1562 C1543 1.368 . S
C1562 C1556 1.368 . S
C1562 C1561 1.523 . S
C1563 C1547 1.429 . S
C1563 C1559 1.429 . S
C1563 C1564 1.523 . S
C1564 C1548 1.368 . S
C1564 C1560 1.368 . S
C1564 C1563 1.523 . S
H1565 C1540 0.950 . S
H1566 C1542 0.950 . S
H1567 C1543 0.949 . S
H1568 C1545 0.950 . S
H1569 C1547 0.950 . S
C1570 C1571 1.349 . S
C1570 C1572 1.327 . S
C1570 H1595 0.950 . S
C1571 C1570 1.349 . S
C1571 C1587 1.349 . S
C1572 C1570 1.327 . S
C1572 C1591 1.429 . S
C1572 H1596 0.950 . S
C1573 C1590 1.574 1_455 S
C1573 C1592 1.368 . S
C1573 H1597 0.949 . S
H1574 C1578 0.949 . S
C1575 C1576 1.349 . S
C1575 C1577 1.327 . S
C1575 H1598 0.950 . S
C1576 C1575 1.349 . S
C1576 C1588 1.349 . S
C1577 C1575 1.327 . S
C1577 C1593 1.429 . S
C1577 H1599 0.950 . S
C1578 H1574 0.949 . S
C1578 C1586 1.574 1_655 S
C1578 C1594 1.368 . S
H1579 C1587 0.950 . S
H1580 C1585 0.950 . S
H1581 C1586 0.949 . S
H1582 C1588 0.950 . S
H1583 C1589 0.950 . S
H1584 C1590 0.949 . S
C1585 H1580 0.950 . S
C1585 C1587 1.327 . S
C1585 C1591 1.429 . S
C1586 C1578 1.574 1_455 S
C1586 H1581 0.949 . S
C1586 C1592 1.368 . S
C1587 C1571 1.349 . S
C1587 H1579 0.950 . S
C1587 C1585 1.327 . S
C1588 C1576 1.349 . S
C1588 H1582 0.950 . S
C1588 C1589 1.327 . S
C1589 H1583 0.950 . S
C1589 C1588 1.327 . S
C1589 C1593 1.429 . S
C1590 C1573 1.574 1_655 S
C1590 H1584 0.949 . S
C1590 C1594 1.368 . S
C1591 C1572 1.429 . S
C1591 C1585 1.429 . S
C1591 C1592 1.523 . S
C1592 C1573 1.368 . S
C1592 C1586 1.368 . S
C1592 C1591 1.523 . S
C1593 C1577 1.429 . S
C1593 C1589 1.429 . S
C1593 C1594 1.523 . S
C1594 C1578 1.368 . S
C1594 C1590 1.368 . S
C1594 C1593 1.523 . S
H1595 C1570 0.950 . S
H1596 C1572 0.950 . S
H1597 C1573 0.949 . S
H1598 C1575 0.950 . S
H1599 C1577 0.950 . S
C1600 C1601 1.349 . S
C1600 C1602 1.327 . S
C1600 H1625 0.950 . S
C1601 C1600 1.349 . S
C1601 C1617 1.349 . S
C1602 C1600 1.327 . S
C1602 C1621 1.429 . S
C1602 H1626 0.950 . S
C1603 C1620 1.574 1_554 S
C1603 C1622 1.368 . S
C1603 H1627 0.949 . S
H1604 C1608 0.949 . S
C1605 C1606 1.349 . S
C1605 C1607 1.327 . S
C1605 H1628 0.950 . S
C1606 C1605 1.349 . S
C1606 C1618 1.349 . S
C1607 C1605 1.327 . S
C1607 C1623 1.429 . S
C1607 H1629 0.950 . S
C1608 H1604 0.949 . S
C1608 C1616 1.574 . S
C1608 C1624 1.368 1_554 S
H1609 C1617 0.950 . S
H1610 C1615 0.950 . S
H1611 C1616 0.949 . S
H1612 C1618 0.950 . S
H1613 C1619 0.950 . S
H1614 C1620 0.949 . S
C1615 H1610 0.950 . S
C1615 C1617 1.327 . S
C1615 C1621 1.429 . S
C1616 C1608 1.574 . S
C1616 H1611 0.949 . S
C1616 C1622 1.368 . S
C1617 C1601 1.349 . S
C1617 H1609 0.950 . S
C1617 C1615 1.327 . S
C1618 C1606 1.349 . S
C1618 H1612 0.950 . S
C1618 C1619 1.327 . S
C1619 H1613 0.950 . S
C1619 C1618 1.327 . S
C1619 C1623 1.429 . S
C1620 C1603 1.574 1_556 S
C1620 H1614 0.949 . S
C1620 C1624 1.368 . S
C1621 C1602 1.429 . S
C1621 C1615 1.429 . S
C1621 C1622 1.523 . S
C1622 C1603 1.368 . S
C1622 C1616 1.368 . S
C1622 C1621 1.523 . S
C1623 C1607 1.429 . S
C1623 C1619 1.429 . S
C1623 C1624 1.523 . S
C1624 C1608 1.368 1_556 S
C1624 C1620 1.368 . S
C1624 C1623 1.523 . S
H1625 C1600 0.950 . S
H1626 C1602 0.950 . S
H1627 C1603 0.949 . S
H1628 C1605 0.950 . S
H1629 C1607 0.950 . S
C1630 C1631 1.349 . S
C1630 C1632 1.327 . S
C1630 H1655 0.950 . S
C1631 C1630 1.349 . S
C1631 C1647 1.349 . S
C1632 C1630 1.327 . S
C1632 C1651 1.429 . S
C1632 H1656 0.950 . S
C1633 C1650 1.574 . S
C1633 C1652 1.368 . S
C1633 H1657 0.949 . S
H1634 C1638 0.949 . S
C1635 C1636 1.349 . S
C1635 C1637 1.327 . S
C1635 H1658 0.950 . S
C1636 C1635 1.349 . S
C1636 C1648 1.349 . S
C1637 C1635 1.327 . S
C1637 C1653 1.429 . S
C1637 H1659 0.950 . S
C1638 H1634 0.949 . S
C1638 C1646 1.574 . S
C1638 C1654 1.368 . S
H1639 C1647 0.950 . S
H1640 C1645 0.950 . S
H1641 C1646 0.949 . S
H1642 C1648 0.950 . S
H1643 C1649 0.950 . S
H1644 C1650 0.949 . S
C1645 H1640 0.950 . S
C1645 C1647 1.327 . S
C1645 C1651 1.429 . S
C1646 C1638 1.574 . S
C1646 H1641 0.949 . S
C1646 C1652 1.368 . S
C1647 C1631 1.349 . S
C1647 H1639 0.950 . S
C1647 C1645 1.327 . S
C1648 C1636 1.349 . S
C1648 H1642 0.950 . S
C1648 C1649 1.327 . S
C1649 H1643 0.950 . S
C1649 C1648 1.327 . S
C1649 C1653 1.429 . S
C1650 C1633 1.574 . S
C1650 H1644 0.949 . S
C1650 C1654 1.368 . S
C1651 C1632 1.429 . S
C1651 C1645 1.429 . S
C1651 C1652 1.523 . S
C1652 C1633 1.368 . S
C1652 C1646 1.368 . S
C1652 C1651 1.523 . S
C1653 C1637 1.429 . S
C1653 C1649 1.429 . S
C1653 C1654 1.523 . S
C1654 C1638 1.368 . S
C1654 C1650 1.368 . S
C1654 C1653 1.523 . S
H1655 C1630 0.950 . S
H1656 C1632 0.950 . S
H1657 C1633 0.949 . S
H1658 C1635 0.950 . S
H1659 C1637 0.950 . S
C1660 C1661 1.349 . S
C1660 C1662 1.327 . S
C1660 H1685 0.950 . S
C1661 C1660 1.349 . S
C1661 C1677 1.349 . S
C1662 C1660 1.327 . S
C1662 C1681 1.429 . S
C1662 H1686 0.950 . S
C1663 C1680 1.574 . S
C1663 C1682 1.368 . S
C1663 H1687 0.949 . S
H1664 C1668 0.949 . S
C1665 C1666 1.349 . S
C1665 C1667 1.327 . S
C1665 H1688 0.950 . S
C1666 C1665 1.349 . S
C1666 C1678 1.349 . S
C1667 C1665 1.327 . S
C1667 C1683 1.429 . S
C1667 H1689 0.950 . S
C1668 H1664 0.949 . S
C1668 C1676 1.574 . S
C1668 C1684 1.368 . S
H1669 C1677 0.950 . S
H1670 C1675 0.950 . S
H1671 C1676 0.949 . S
H1672 C1678 0.950 . S
H1673 C1679 0.950 . S
H1674 C1680 0.949 . S
C1675 H1670 0.950 . S
C1675 C1677 1.327 . S
C1675 C1681 1.429 . S
C1676 C1668 1.574 . S
C1676 H1671 0.949 . S
C1676 C1682 1.368 . S
C1677 C1661 1.349 . S
C1677 H1669 0.950 . S
C1677 C1675 1.327 . S
C1678 C1666 1.349 . S
C1678 H1672 0.950 . S
C1678 C1679 1.327 . S
C1679 H1673 0.950 . S
C1679 C1678 1.327 . S
C1679 C1683 1.429 . S
C1680 C1663 1.574 . S
C1680 H1674 0.949 . S
C1680 C1684 1.368 . S
C1681 C1662 1.429 . S
C1681 C1675 1.429 . S
C1681 C1682 1.523 . S
C1682 C1663 1.368 . S
C1682 C1676 1.368 . S
C1682 C1681 1.523 . S
C1683 C1667 1.429 . S
C1683 C1679 1.429 . S
C1683 C1684 1.523 . S
C1684 C1668 1.368 . S
C1684 C1680 1.368 . S
C1684 C1683 1.523 . S
H1685 C1660 0.950 . S
H1686 C1662 0.950 . S
H1687 C1663 0.949 . S
H1688 C1665 0.950 . S
H1689 C1667 0.950 . S
C1690 C1691 1.349 . S
C1690 C1692 1.327 . S
C1690 H1715 0.950 . S
C1691 C1690 1.349 . S
C1691 C1707 1.349 . S
C1692 C1690 1.327 . S
C1692 C1711 1.429 . S
C1692 H1716 0.950 . S
C1693 C1710 1.574 . S
C1693 C1712 1.368 . S
C1693 H1717 0.949 . S
H1694 C1698 0.949 . S
C1695 C1696 1.349 . S
C1695 C1697 1.327 . S
C1695 H1718 0.950 . S
C1696 C1695 1.349 . S
C1696 C1708 1.349 . S
C1697 C1695 1.327 . S
C1697 C1713 1.429 . S
C1697 H1719 0.950 . S
C1698 H1694 0.949 . S
C1698 C1706 1.574 . S
C1698 C1714 1.368 . S
H1699 C1707 0.950 . S
H1700 C1705 0.950 . S
H1701 C1706 0.949 . S
H1702 C1708 0.950 . S
H1703 C1709 0.950 . S
H1704 C1710 0.949 . S
C1705 H1700 0.950 . S
C1705 C1707 1.327 . S
C1705 C1711 1.429 . S
C1706 C1698 1.574 . S
C1706 H1701 0.949 . S
C1706 C1712 1.368 . S
C1707 C1691 1.349 . S
C1707 H1699 0.950 . S
C1707 C1705 1.327 . S
C1708 C1696 1.349 . S
C1708 H1702 0.950 . S
C1708 C1709 1.327 . S
C1709 H1703 0.950 . S
C1709 C1708 1.327 . S
C1709 C1713 1.429 . S
C1710 C1693 1.574 . S
C1710 H1704 0.949 . S
C1710 C1714 1.368 . S
C1711 C1692 1.429 . S
C1711 C1705 1.429 . S
C1711 C1712 1.523 . S
C1712 C1693 1.368 . S
C1712 C1706 1.368 . S
C1712 C1711 1.523 . S
C1713 C1697 1.429 . S
C1713 C1709 1.429 . S
C1713 C1714 1.523 . S
C1714 C1698 1.368 . S
C1714 C1710 1.368 . S
C1714 C1713 1.523 . S
H1715 C1690 0.950 . S
H1716 C1692 0.950 . S
H1717 C1693 0.949 . S
H1718 C1695 0.950 . S
H1719 C1697 0.950 . S
C1720 C1721 1.349 . S
C1720 C1722 1.327 . S
C1720 H1745 0.950 . S
C1721 C1720 1.349 . S
C1721 C1737 1.349 . S
C1722 C1720 1.327 . S
C1722 C1741 1.429 . S
C1722 H1746 0.950 . S
C1723 C1740 1.574 . S
C1723 C1742 1.368 1_556 S
C1723 H1747 0.949 . S
H1724 C1728 0.949 . S
C1725 C1726 1.349 . S
C1725 C1727 1.327 . S
C1725 H1748 0.950 . S
C1726 C1725 1.349 . S
C1726 C1738 1.349 . S
C1727 C1725 1.327 . S
C1727 C1743 1.429 . S
C1727 H1749 0.950 . S
C1728 H1724 0.949 . S
C1728 C1736 1.574 1_556 S
C1728 C1744 1.368 . S
H1729 C1737 0.950 . S
H1730 C1735 0.950 . S
H1731 C1736 0.949 . S
H1732 C1738 0.950 . S
H1733 C1739 0.950 . S
H1734 C1740 0.949 . S
C1735 H1730 0.950 . S
C1735 C1737 1.327 . S
C1735 C1741 1.429 . S
C1736 C1728 1.574 1_554 S
C1736 H1731 0.949 . S
C1736 C1742 1.368 . S
C1737 C1721 1.349 . S
C1737 H1729 0.950 . S
C1737 C1735 1.327 . S
C1738 C1726 1.349 . S
C1738 H1732 0.950 . S
C1738 C1739 1.327 . S
C1739 H1733 0.950 . S
C1739 C1738 1.327 . S
C1739 C1743 1.429 . S
C1740 C1723 1.574 . S
C1740 H1734 0.949 . S
C1740 C1744 1.368 . S
C1741 C1722 1.429 . S
C1741 C1735 1.429 . S
C1741 C1742 1.523 . S
C1742 C1723 1.368 1_554 S
C1742 C1736 1.368 . S
C1742 C1741 1.523 . S
C1743 C1727 1.429 . S
C1743 C1739 1.429 . S
C1743 C1744 1.523 . S
C1744 C1728 1.368 . S
C1744 C1740 1.368 . S
C1744 C1743 1.523 . S
H1745 C1720 0.950 . S
H1746 C1722 0.950 . S
H1747 C1723 0.949 . S
H1748 C1725 0.950 . S
H1749 C1727 0.950 . S
C1750 C1751 1.349 . S
C1750 C1752 1.327 . S
C1750 H1775 0.950 . S
C1751 C1750 1.349 . S
C1751 C1767 1.349 . S
C1752 C1750 1.327 . S
C1752 C1771 1.429 . S
C1752 H1776 0.950 . S
C1753 C1770 1.574 . S
C1753 C1772 1.368 . S
C1753 H1777 0.949 . S
H1754 C1758 0.949 . S
C1755 C1756 1.349 . S
C1755 C1757 1.327 . S
C1755 H1778 0.950 . S
C1756 C1755 1.349 . S
C1756 C1768 1.349 . S
C1757 C1755 1.327 . S
C1757 C1773 1.429 . S
C1757 H1779 0.950 . S
C1758 H1754 0.949 . S
C1758 C1766 1.574 . S
C1758 C1774 1.368 . S
H1759 C1767 0.950 . S
H1760 C1765 0.950 . S
H1761 C1766 0.949 . S
H1762 C1768 0.950 . S
H1763 C1769 0.950 . S
H1764 C1770 0.949 . S
C1765 H1760 0.950 . S
C1765 C1767 1.327 . S
C1765 C1771 1.429 . S
C1766 C1758 1.574 . S
C1766 H1761 0.949 . S
C1766 C1772 1.368 . S
C1767 C1751 1.349 . S
C1767 H1759 0.950 . S
C1767 C1765 1.327 . S
C1768 C1756 1.349 . S
C1768 H1762 0.950 . S
C1768 C1769 1.327 . S
C1769 H1763 0.950 . S
C1769 C1768 1.327 . S
C1769 C1773 1.429 . S
C1770 C1753 1.574 . S
C1770 H1764 0.949 . S
C1770 C1774 1.368 . S
C1771 C1752 1.429 . S
C1771 C1765 1.429 . S
C1771 C1772 1.523 . S
C1772 C1753 1.368 . S
C1772 C1766 1.368 . S
C1772 C1771 1.523 . S
C1773 C1757 1.429 . S
C1773 C1769 1.429 . S
C1773 C1774 1.523 . S
C1774 C1758 1.368 . S
C1774 C1770 1.368 . S
C1774 C1773 1.523 . S
H1775 C1750 0.950 . S
H1776 C1752 0.950 . S
H1777 C1753 0.949 . S
H1778 C1755 0.950 . S
H1779 C1757 0.950 . S
C1780 C1781 1.349 . S
C1780 C1782 1.327 . S
C1780 H1805 0.950 . S
C1781 C1780 1.349 . S
C1781 C1797 1.349 . S
C1782 C1780 1.327 . S
C1782 C1801 1.429 . S
C1782 H1806 0.950 . S
C1783 C1800 1.574 . S
C1783 C1802 1.368 . S
C1783 H1807 0.949 . S
H1784 C1788 0.949 . S
C1785 C1786 1.349 . S
C1785 C1787 1.327 . S
C1785 H1808 0.950 . S
C1786 C1785 1.349 . S
C1786 C1798 1.349 . S
C1787 C1785 1.327 . S
C1787 C1803 1.429 . S
C1787 H1809 0.950 . S
C1788 H1784 0.949 . S
C1788 C1796 1.574 . S
C1788 C1804 1.368 . S
H1789 C1797 0.950 . S
H1790 C1795 0.950 . S
H1791 C1796 0.949 . S
H1792 C1798 0.950 . S
H1793 C1799 0.950 . S
H1794 C1800 0.949 . S
C1795 H1790 0.950 . S
C1795 C1797 1.327 . S
C1795 C1801 1.429 . S
C1796 C1788 1.574 . S
C1796 H1791 0.949 . S
C1796 C1802 1.368 . S
C1797 C1781 1.349 . S
C1797 H1789 0.950 . S
C1797 C1795 1.327 . S
C1798 C1786 1.349 . S
C1798 H1792 0.950 . S
C1798 C1799 1.327 . S
C1799 H1793 0.950 . S
C1799 C1798 1.327 . S
C1799 C1803 1.429 . S
C1800 C1783 1.574 . S
C1800 H1794 0.949 . S
C1800 C1804 1.368 . S
C1801 C1782 1.429 . S
C1801 C1795 1.429 . S
C1801 C1802 1.523 . S
C1802 C1783 1.368 . S
C1802 C1796 1.368 . S
C1802 C1801 1.523 . S
C1803 C1787 1.429 . S
C1803 C1799 1.429 . S
C1803 C1804 1.523 . S
C1804 C1788 1.368 . S
C1804 C1800 1.368 . S
C1804 C1803 1.523 . S
H1805 C1780 0.950 . S
H1806 C1782 0.950 . S
H1807 C1783 0.949 . S
H1808 C1785 0.950 . S
H1809 C1787 0.950 . S
C1810 C1811 1.349 . S
C1810 C1812 1.327 . S
C1810 H1835 0.950 . S
C1811 C1810 1.349 . S
C1811 C1827 1.349 . S
C1812 C1810 1.327 . S
C1812 C1831 1.429 . S
C1812 H1836 0.950 . S
C1813 C1830 1.574 . S
C1813 C1832 1.368 . S
C1813 H1837 0.949 . S
H1814 C1818 0.949 . S
C1815 C1816 1.349 . S
C1815 C1817 1.327 . S
C1815 H1838 0.950 . S
C1816 C1815 1.349 . S
C1816 C1828 1.349 . S
C1817 C1815 1.327 . S
C1817 C1833 1.429 . S
C1817 H1839 0.950 . S
C1818 H1814 0.949 . S
C1818 C1826 1.574 . S
C1818 C1834 1.368 . S
H1819 C1827 0.950 . S
H1820 C1825 0.950 . S
H1821 C1826 0.949 . S
H1822 C1828 0.950 . S
H1823 C1829 0.950 . S
H1824 C1830 0.949 . S
C1825 H1820 0.950 . S
C1825 C1827 1.327 . S
C1825 C1831 1.429 . S
C1826 C1818 1.574 . S
C1826 H1821 0.949 . S
C1826 C1832 1.368 . S
C1827 C1811 1.349 . S
C1827 H1819 0.950 . S
C1827 C1825 1.327 . S
C1828 C1816 1.349 . S
C1828 H1822 0.950 . S
C1828 C1829 1.327 . S
C1829 H1823 0.950 . S
C1829 C1828 1.327 . S
C1829 C1833 1.429 . S
C1830 C1813 1.574 . S
C1830 H1824 0.949 . S
C1830 C1834 1.368 . S
C1831 C1812 1.429 . S
C1831 C1825 1.429 . S
C1831 C1832 1.523 . S
C1832 C1813 1.368 . S
C1832 C1826 1.368 . S
C1832 C1831 1.523 . S
C1833 C1817 1.429 . S
C1833 C1829 1.429 . S
C1833 C1834 1.523 . S
C1834 C1818 1.368 . S
C1834 C1830 1.368 . S
C1834 C1833 1.523 . S
H1835 C1810 0.950 . S
H1836 C1812 0.950 . S
H1837 C1813 0.949 . S
H1838 C1815 0.950 . S
H1839 C1817 0.950 . S
C1840 C1841 1.349 . S
C1840 C1842 1.327 . S
C1840 H1865 0.950 . S
C1841 C1840 1.349 . S
C1841 C1857 1.349 . S
C1842 C1840 1.327 . S
C1842 C1861 1.429 . S
C1842 H1866 0.950 . S
C1843 C1860 1.593 . S
C1843 C1862 1.368 . S
C1843 H1867 0.949 . S
H1844 C1848 0.949 . S
C1845 C1846 1.349 . S
C1845 C1847 1.327 . S
C1845 H1868 0.950 . S
C1846 C1845 1.349 . S
C1846 C1858 1.349 . S
C1847 C1845 1.327 . S
C1847 C1863 1.429 . S
C1847 H1869 0.950 . S
C1848 H1844 0.949 . S
C1848 C1856 1.574 1_545 S
C1848 C1864 1.368 . S
H1849 C1857 0.950 . S
H1850 C1855 0.950 . S
H1851 C1856 0.949 . S
H1852 C1858 0.950 . S
H1853 C1859 0.950 . S
H1854 C1860 0.940 1_545 S
C1855 H1850 0.950 . S
C1855 C1857 1.327 . S
C1855 C1861 1.429 . S
C1856 C1848 1.574 1_565 S
C1856 H1851 0.949 . S
C1856 C1862 1.368 . S
C1857 C1841 1.349 . S
C1857 H1849 0.950 . S
C1857 C1855 1.327 . S
C1858 C1846 1.349 . S
C1858 H1852 0.950 . S
C1858 C1859 1.327 . S
C1859 H1853 0.950 . S
C1859 C1858 1.327 . S
C1859 C1863 1.429 . S
C1860 C1843 1.593 . S
C1860 H1854 0.940 1_565 S
C1860 C1864 1.353 1_565 S
C1861 C1842 1.429 . S
C1861 C1855 1.429 . S
C1861 C1862 1.523 . S
C1862 C1843 1.368 . S
C1862 C1856 1.368 . S
C1862 C1861 1.523 . S
C1863 C1847 1.429 . S
C1863 C1859 1.429 . S
C1863 C1864 1.523 . S
C1864 C1848 1.368 . S
C1864 C1860 1.353 1_545 S
C1864 C1863 1.523 . S
H1865 C1840 0.950 . S
H1866 C1842 0.950 . S
H1867 C1843 0.949 . S
H1868 C1845 0.950 . S
H1869 C1847 0.950 . S
C1870 C1871 1.349 . S
C1870 C1872 1.327 . S
C1870 H1895 0.950 . S
C1871 C1870 1.349 . S
C1871 C1887 1.349 . S
C1872 C1870 1.327 . S
C1872 C1891 1.429 . S
C1872 H1896 0.950 . S
C1873 C1890 1.574 . S
C1873 C1892 1.368 . S
C1873 H1897 0.949 . S
H1874 C1878 0.949 . S
C1875 C1876 1.349 . S
C1875 C1877 1.327 . S
C1875 H1898 0.950 . S
C1876 C1875 1.349 . S
C1876 C1888 1.349 . S
C1877 C1875 1.327 . S
C1877 C1893 1.429 . S
C1877 H1899 0.950 . S
C1878 H1874 0.949 . S
C1878 C1886 1.574 . S
C1878 C1894 1.368 . S
H1879 C1887 0.950 . S
H1880 C1885 0.950 . S
H1881 C1886 0.949 . S
H1882 C1888 0.950 . S
H1883 C1889 0.950 . S
H1884 C1890 0.949 . S
C1885 H1880 0.950 . S
C1885 C1887 1.327 . S
C1885 C1891 1.429 . S
C1886 C1878 1.574 . S
C1886 H1881 0.949 . S
C1886 C1892 1.368 . S
C1887 C1871 1.349 . S
C1887 H1879 0.950 . S
C1887 C1885 1.327 . S
C1888 C1876 1.349 . S
C1888 H1882 0.950 . S
C1888 C1889 1.327 . S
C1889 H1883 0.950 . S
C1889 C1888 1.327 . S
C1889 C1893 1.429 . S
C1890 C1873 1.574 . S
C1890 H1884 0.949 . S
C1890 C1894 1.368 . S
C1891 C1872 1.429 . S
C1891 C1885 1.429 . S
C1891 C1892 1.523 . S
C1892 C1873 1.368 . S
C1892 C1886 1.368 . S
C1892 C1891 1.523 . S
C1893 C1877 1.429 . S
C1893 C1889 1.429 . S
C1893 C1894 1.523 . S
C1894 C1878 1.368 . S
C1894 C1890 1.368 . S
C1894 C1893 1.523 . S
H1895 C1870 0.950 . S
H1896 C1872 0.950 . S
H1897 C1873 0.949 . S
H1898 C1875 0.950 . S
H1899 C1877 0.950 . S
C1900 C1901 1.349 . S
C1900 C1902 1.327 . S
C1900 H1925 0.950 . S
C1901 C1900 1.349 . S
C1901 C1917 1.349 . S
C1902 C1900 1.327 . S
C1902 C1921 1.429 . S
C1902 H1926 0.950 . S
C1903 C1920 1.581 1_565 S
C1903 C1922 1.355 1_556 S
C1903 H1927 0.954 . S
H1904 C1908 0.949 . S
C1905 C1906 1.349 . S
C1905 C1907 1.327 . S
C1905 H1928 0.950 . S
C1906 C1905 1.349 . S
C1906 C1918 1.349 . S
C1907 C1905 1.327 . S
C1907 C1923 1.429 . S
C1907 H1929 0.950 . S
C1908 H1904 0.949 . S
C1908 C1916 1.574 . S
C1908 C1924 1.368 1_554 S
H1909 C1917 0.950 . S
H1910 C1915 0.950 . S
H1911 C1916 0.949 . S
H1912 C1918 0.950 . S
H1913 C1919 0.950 1_554 S
H1914 C1920 0.949 . S
C1915 H1910 0.950 . S
C1915 C1917 1.327 . S
C1915 C1921 1.429 . S
C1916 C1908 1.574 . S
C1916 H1911 0.949 . S
C1916 C1922 1.368 1_545 S
C1917 C1901 1.349 . S
C1917 H1909 0.950 . S
C1917 C1915 1.327 . S
C1918 C1906 1.349 . S
C1918 H1912 0.950 . S
C1918 C1919 1.327 . S
C1919 H1913 0.950 1_556 S
C1919 C1918 1.327 . S
C1919 C1923 1.429 . S
C1920 C1903 1.581 1_545 S
C1920 H1914 0.949 . S
C1920 C1924 1.368 . S
C1921 C1902 1.429 . S
C1921 C1915 1.429 . S
C1921 C1922 1.523 . S
C1922 C1903 1.355 1_554 S
C1922 C1916 1.368 1_565 S
C1922 C1921 1.523 . S
C1923 C1907 1.429 . S
C1923 C1919 1.429 . S
C1923 C1924 1.523 . S
C1924 C1908 1.368 1_556 S
C1924 C1920 1.368 . S
C1924 C1923 1.523 . S
H1925 C1900 0.950 . S
H1926 C1902 0.950 . S
H1927 C1903 0.954 . S
H1928 C1905 0.950 . S
H1929 C1907 0.950 . S
C1930 C1931 1.349 . S
C1930 C1932 1.327 . S
C1930 H1955 0.950 . S
C1931 C1930 1.349 . S
C1931 C1947 1.349 . S
C1932 C1930 1.327 . S
C1932 C1951 1.429 . S
C1932 H1956 0.950 . S
C1933 C1950 1.574 . S
C1933 C1952 1.368 . S
C1933 H1957 0.949 . S
H1934 C1938 0.949 . S
C1935 C1936 1.349 . S
C1935 C1937 1.327 . S
C1935 H1958 0.950 . S
C1936 C1935 1.349 . S
C1936 C1948 1.349 . S
C1937 C1935 1.327 . S
C1937 C1953 1.429 . S
C1937 H1959 0.950 . S
C1938 H1934 0.949 . S
C1938 C1946 1.574 . S
C1938 C1954 1.368 . S
H1939 C1947 0.950 . S
H1940 C1945 0.950 . S
H1941 C1946 0.949 . S
H1942 C1948 0.950 . S
H1943 C1949 0.950 . S
H1944 C1950 0.949 . S
C1945 H1940 0.950 . S
C1945 C1947 1.327 . S
C1945 C1951 1.429 . S
C1946 C1938 1.574 . S
C1946 H1941 0.949 . S
C1946 C1952 1.368 . S
C1947 C1931 1.349 . S
C1947 H1939 0.950 . S
C1947 C1945 1.327 . S
C1948 C1936 1.349 . S
C1948 H1942 0.950 . S
C1948 C1949 1.327 . S
C1949 H1943 0.950 . S
C1949 C1948 1.327 . S
C1949 C1953 1.429 . S
C1950 C1933 1.574 . S
C1950 H1944 0.949 . S
C1950 C1954 1.368 . S
C1951 C1932 1.429 . S
C1951 C1945 1.429 . S
C1951 C1952 1.523 . S
C1952 C1933 1.368 . S
C1952 C1946 1.368 . S
C1952 C1951 1.523 . S
C1953 C1937 1.429 . S
C1953 C1949 1.429 . S
C1953 C1954 1.523 . S
C1954 C1938 1.368 . S
C1954 C1950 1.368 . S
C1954 C1953 1.523 . S
H1955 C1930 0.950 . S
H1956 C1932 0.950 . S
H1957 C1933 0.949 . S
H1958 C1935 0.950 . S
H1959 C1937 0.950 . S
C1960 C1961 1.349 . S
C1960 C1962 1.327 . S
C1960 H1985 0.950 . S
C1961 C1960 1.349 . S
C1961 C1977 1.349 . S
C1962 C1960 1.327 . S
C1962 C1981 1.429 . S
C1962 H1986 0.950 . S
C1963 C1980 1.574 . S
C1963 C1982 1.368 1_545 S
C1963 H1987 0.949 . S
H1964 C1968 0.950 1_565 S
C1965 C1966 1.349 . S
C1965 C1967 1.327 . S
C1965 H1988 0.950 . S
C1966 C1965 1.349 . S
C1966 C1978 1.349 . S
C1967 C1965 1.327 . S
C1967 C1983 1.429 . S
C1967 H1989 0.950 . S
C1968 H1964 0.950 1_545 S
C1968 C1976 1.574 1_545 S
C1968 C1984 1.368 . S
H1969 C1977 0.950 . S
H1970 C1975 0.950 . S
H1971 C1976 0.949 . S
H1972 C1978 0.950 . S
H1973 C1979 0.950 . S
H1974 C1980 0.949 . S
C1975 H1970 0.950 . S
C1975 C1977 1.327 . S
C1975 C1981 1.429 . S
C1976 C1968 1.574 1_565 S
C1976 H1971 0.949 . S
C1976 C1982 1.368 . S
C1977 C1961 1.349 . S
C1977 H1969 0.950 . S
C1977 C1975 1.327 . S
C1978 C1966 1.349 . S
C1978 H1972 0.950 . S
C1978 C1979 1.327 . S
C1979 H1973 0.950 . S
C1979 C1978 1.327 . S
C1979 C1983 1.429 . S
C1980 C1963 1.574 . S
C1980 H1974 0.949 . S
C1980 C1984 1.368 . S
C1981 C1962 1.429 . S
C1981 C1975 1.429 . S
C1981 C1982 1.523 . S
C1982 C1963 1.368 1_565 S
C1982 C1976 1.368 . S
C1982 C1981 1.523 . S
C1983 C1967 1.429 . S
C1983 C1979 1.429 . S
C1983 C1984 1.523 . S
C1984 C1968 1.368 . S
C1984 C1980 1.368 . S
C1984 C1983 1.523 . S
H1985 C1960 0.950 . S
H1986 C1962 0.950 . S
H1987 C1963 0.949 . S
H1988 C1965 0.950 . S
H1989 C1967 0.950 . S
C1990 C1991 1.349 . S
C1990 C1992 1.327 . S
C1990 H2015 0.950 . S
C1991 C1990 1.349 . S
C1991 C2007 1.349 . S
C1992 C1990 1.327 . S
C1992 C2011 1.429 . S
C1992 H2016 0.950 . S
C1993 C2010 1.574 . S
C1993 C2012 1.368 . S
C1993 H2017 0.949 . S
H1994 C1998 0.949 . S
C1995 C1996 1.349 . S
C1995 C1997 1.327 . S
C1995 H2018 0.950 . S
C1996 C1995 1.349 . S
C1996 C2008 1.349 . S
C1997 C1995 1.327 . S
C1997 C2013 1.429 . S
C1997 H2019 0.950 . S
C1998 H1994 0.949 . S
C1998 C2006 1.574 . S
C1998 C2014 1.368 . S
H1999 C2007 0.950 . S
H2000 C2005 0.950 . S
H2001 C2006 0.949 . S
H2002 C2008 0.950 . S
H2003 C2009 0.950 . S
H2004 C2010 0.949 . S
C2005 H2000 0.950 . S
C2005 C2007 1.327 . S
C2005 C2011 1.429 . S
C2006 C1998 1.574 . S
C2006 H2001 0.949 . S
C2006 C2012 1.368 . S
C2007 C1991 1.349 . S
C2007 H1999 0.950 . S
C2007 C2005 1.327 . S
C2008 C1996 1.349 . S
C2008 H2002 0.950 . S
C2008 C2009 1.327 . S
C2009 H2003 0.950 . S
C2009 C2008 1.327 . S
C2009 C2013 1.429 . S
C2010 C1993 1.574 . S
C2010 H2004 0.949 . S
C2010 C2014 1.368 . S
C2011 C1992 1.429 . S
C2011 C2005 1.429 . S
C2011 C2012 1.523 . S
C2012 C1993 1.368 . S
C2012 C2006 1.368 . S
C2012 C2011 1.523 . S
C2013 C1997 1.429 . S
C2013 C2009 1.429 . S
C2013 C2014 1.523 . S
C2014 C1998 1.368 . S
C2014 C2010 1.368 . S
C2014 C2013 1.523 . S
H2015 C1990 0.950 . S
H2016 C1992 0.950 . S
H2017 C1993 0.949 . S
H2018 C1995 0.950 . S
H2019 C1997 0.950 . S
C2020 C2021 1.349 . S
C2020 C2022 1.327 . S
C2020 H2045 0.950 . S
C2021 C2020 1.349 . S
C2021 C2037 1.349 . S
C2022 C2020 1.327 . S
C2022 C2041 1.429 . S
C2022 H2046 0.950 . S
C2023 C2040 1.614 . S
C2023 C2042 1.328 1_565 S
C2023 H2047 0.950 . S
H2024 C2028 0.950 . S
C2025 C2026 1.349 . S
C2025 C2027 1.327 . S
C2025 H2048 0.950 . S
C2026 C2025 1.349 . S
C2026 C2038 1.349 . S
C2027 C2025 1.327 . S
C2027 C2043 1.429 . S
C2027 H2049 0.950 1_554 S
C2028 H2024 0.950 . S
C2028 C2036 1.542 1_564 S
C2028 C2044 1.402 1_554 S
H2029 C2037 0.950 . S
H2030 C2035 0.950 . S
H2031 C2036 0.949 . S
H2032 C2038 0.950 . S
H2033 C2039 0.950 . S
H2034 C2040 0.949 . S
C2035 H2030 0.950 . S
C2035 C2037 1.327 . S
C2035 C2041 1.429 . S
C2036 C2028 1.542 1_546 S
C2036 H2031 0.949 . S
C2036 C2042 1.368 . S
C2037 C2021 1.349 . S
C2037 H2029 0.950 . S
C2037 C2035 1.327 . S
C2038 C2026 1.349 . S
C2038 H2032 0.950 . S
C2038 C2039 1.327 . S
C2039 H2033 0.950 . S
C2039 C2038 1.327 . S
C2039 C2043 1.429 . S
C2040 C2023 1.614 . S
C2040 H2034 0.949 . S
C2040 C2044 1.368 . S
C2041 C2022 1.429 . S
C2041 C2035 1.429 . S
C2041 C2042 1.523 . S
C2042 C2023 1.328 1_545 S
C2042 C2036 1.368 . S
C2042 C2041 1.523 . S
C2043 C2027 1.429 . S
C2043 C2039 1.429 . S
C2043 C2044 1.523 1_554 S
C2044 C2028 1.402 1_556 S
C2044 C2040 1.368 . S
C2044 C2043 1.523 1_556 S
H2045 C2020 0.950 . S
H2046 C2022 0.950 . S
H2047 C2023 0.950 . S
H2048 C2025 0.950 . S
H2049 C2027 0.950 1_556 S
C2050 C2051 1.349 . S
C2050 C2052 1.327 . S
C2050 H2075 0.950 . S
C2051 C2050 1.349 . S
C2051 C2067 1.349 . S
C2052 C2050 1.327 . S
C2052 C2071 1.429 . S
C2052 H2076 0.950 . S
C2053 C2070 1.574 . S
C2053 C2072 1.368 . S
C2053 H2077 0.949 . S
H2054 C2058 0.949 . S
C2055 C2056 1.349 . S
C2055 C2057 1.327 . S
C2055 H2078 0.950 . S
C2056 C2055 1.349 . S
C2056 C2068 1.349 . S
C2057 C2055 1.327 . S
C2057 C2073 1.429 . S
C2057 H2079 0.950 . S
C2058 H2054 0.949 . S
C2058 C2066 1.574 . S
C2058 C2074 1.368 . S
H2059 C2067 0.950 . S
H2060 C2065 0.950 . S
H2061 C2066 0.949 . S
H2062 C2068 0.950 . S
H2063 C2069 0.950 . S
H2064 C2070 0.949 . S
C2065 H2060 0.950 . S
C2065 C2067 1.327 . S
C2065 C2071 1.429 . S
C2066 C2058 1.574 . S
C2066 H2061 0.949 . S
C2066 C2072 1.368 . S
C2067 C2051 1.349 . S
C2067 H2059 0.950 . S
C2067 C2065 1.327 . S
C2068 C2056 1.349 . S
C2068 H2062 0.950 . S
C2068 C2069 1.327 . S
C2069 H2063 0.950 . S
C2069 C2068 1.327 . S
C2069 C2073 1.429 . S
C2070 C2053 1.574 . S
C2070 H2064 0.949 . S
C2070 C2074 1.368 . S
C2071 C2052 1.429 . S
C2071 C2065 1.429 . S
C2071 C2072 1.523 . S
C2072 C2053 1.368 . S
C2072 C2066 1.368 . S
C2072 C2071 1.523 . S
C2073 C2057 1.429 . S
C2073 C2069 1.429 . S
C2073 C2074 1.523 . S
C2074 C2058 1.368 . S
C2074 C2070 1.368 . S
C2074 C2073 1.523 . S
H2075 C2050 0.950 . S
H2076 C2052 0.950 . S
H2077 C2053 0.949 . S
H2078 C2055 0.950 . S
H2079 C2057 0.950 . S
C641 C5 1.611 . S
C646 C15 1.611 . S
C671 C55 1.544 . S
C676 C45 1.544 . S
C701 C85 1.765 . S
C706 C95 1.765 1_554 S
C731 C135 1.691 . S
C736 C125 1.691 . S
C761 C165 1.544 . S
C766 C175 1.544 . S
C791 C205 1.765 . S
C796 C215 1.765 . S
C821 C245 1.691 . S
C826 C255 1.691 . S
C851 C295 1.611 1_554 S
C856 C285 1.611 . S
C881 C335 1.607 . S
C886 C325 1.607 . S
C911 C375 1.542 . S
C916 C365 1.542 . S
C941 C415 1.805 1_556 S
C946 C405 1.805 . S
C971 C445 1.694 . S
C976 C455 1.694 . S
C1001 C495 1.542 . S
C1006 C485 1.542 . S
C1031 C535 1.805 . S
C1036 C525 1.805 . S
C1061 C575 1.694 . S
C1066 C565 1.694 . S
C1091 C605 1.607 1_556 S
C1096 C615 1.607 . S
C1121 C19 1.960 . S
C1126 C449 1.966 . S
C1151 C58 1.564 . S
C1156 C608 1.577 . S
C1181 C99 1.968 . S
C1186 C369 2.013 . S
C1211 C138 1.485 . S
C1216 C529 1.528 . S
C1241 C179 1.922 . S
C1246 C528 1.864 . S
C1271 C448 1.481 . S
C1276 C218 1.523 . S
C1301 C259 1.921 . S
C1306 C609 1.916 . S
C1331 C298 1.526 . S
C1336 C368 1.516 . S
C1361 C139 1.921 . S
C1366 C329 1.916 . S
C1391 C59 1.922 . S
C1396 C408 1.864 . S
C1421 C489 2.013 . S
C1426 C219 1.968 . S
C1451 C299 1.960 . S
C1456 C569 1.966 . S
C1481 C328 1.577 . S
C1486 C178 1.564 . S
C1511 C258 1.485 . S
C1516 C409 1.528 . S
C1541 C98 1.523 . S
C1546 C568 1.481 . S
C1571 C18 1.526 . S
C1576 C488 1.516 . S
C1601 C9 1.993 . S
C1606 C169 1.998 . S
C1631 C48 1.711 . S
C1636 C208 1.710 . S
C1661 C89 1.712 . S
C1666 C249 1.713 . S
C1691 C128 1.426 . S
C1696 C288 1.415 . S
C1721 C499 1.958 . S
C1726 C339 1.954 . S
C1751 C539 1.630 . S
C1756 C378 1.610 . S
C1781 C418 1.879 . S
C1786 C579 1.887 . S
C1811 C618 1.468 . S
C1816 C458 1.478 . S
C1841 C49 1.998 . S
C1846 C289 1.993 . S
C1871 C168 1.711 . S
C1876 C88 1.710 . S
C1901 C209 1.712 . S
C1906 C129 1.713 . S
C1931 C8 1.415 . S
C1936 C248 1.426 . S
C1961 C619 1.954 . S
C1966 C379 1.958 . S
C1991 C498 1.610 . S
C1996 C419 1.630 . S
C2021 C538 1.879 . S
C2026 C459 1.887 . S
C2051 C578 1.478 . S
C2056 C338 1.468 . S
