# Generated by pormake.
# Topology wjy, (5)-cn, num edge types: 1
# Building blocks:
#     Node 0, Type 0, BuildingBlock: BEQFEK_clean_sbu_0, # of connection points: 5
#     Node 1, Type 0, BuildingBlock: BEQFEK_clean_sbu_0, # of connection points: 5
#     Node 2, Type 0, BuildingBlock: BEQFEK_clean_sbu_0, # of connection points: 5
#     Node 3, Type 0, BuildingBlock: BEQFEK_clean_sbu_0, # of connection points: 5
#     Node 4, Type 0, BuildingBlock: BEQFEK_clean_sbu_0, # of connection points: 5
#     Node 5, Type 0, BuildingBlock: BEQFEK_clean_sbu_0, # of connection points: 5
#     Node 6, Type 0, BuildingBlock: BEQFEK_clean_sbu_0, # of connection points: 5
#     Node 7, Type 0, BuildingBlock: BEQFEK_clean_sbu_0, # of connection points: 5
#     Node 8, Type 0, BuildingBlock: BEQFEK_clean_sbu_0, # of connection points: 5
#     Node 9, Type 0, BuildingBlock: BEQFEK_clean_sbu_0, # of connection points: 5
#     Node 10, Type 0, BuildingBlock: BEQFEK_clean_sbu_0, # of connection points: 5
#     Node 11, Type 0, BuildingBlock: BEQFEK_clean_sbu_0, # of connection points: 5
#     Edge 12, Type (0, 0), BuildingBlock: EZIPEK_clean_linker_0, # of connection points: 2
#     Edge 13, Type (0, 0), BuildingBlock: EZIPEK_clean_linker_0, # of connection points: 2
#     Edge 14, Type (0, 0), BuildingBlock: EZIPEK_clean_linker_0, # of connection points: 2
#     Edge 15, Type (0, 0), BuildingBlock: EZIPEK_clean_linker_0, # of connection points: 2
#     Edge 16, Type (0, 0), BuildingBlock: EZIPEK_clean_linker_0, # of connection points: 2
#     Edge 17, Type (0, 0), BuildingBlock: EZIPEK_clean_linker_0, # of connection points: 2
#     Edge 18, Type (0, 0), BuildingBlock: EZIPEK_clean_linker_0, # of connection points: 2
#     Edge 19, Type (0, 0), BuildingBlock: EZIPEK_clean_linker_0, # of connection points: 2
#     Edge 20, Type (0, 0), BuildingBlock: EZIPEK_clean_linker_0, # of connection points: 2
#     Edge 21, Type (0, 0), BuildingBlock: EZIPEK_clean_linker_0, # of connection points: 2
#     Edge 22, Type (0, 0), BuildingBlock: EZIPEK_clean_linker_0, # of connection points: 2
#     Edge 23, Type (0, 0), BuildingBlock: EZIPEK_clean_linker_0, # of connection points: 2
#     Edge 24, Type (0, 0), BuildingBlock: EZIPEK_clean_linker_0, # of connection points: 2
#     Edge 25, Type (0, 0), BuildingBlock: EZIPEK_clean_linker_0, # of connection points: 2
#     Edge 26, Type (0, 0), BuildingBlock: EZIPEK_clean_linker_0, # of connection points: 2
#     Edge 27, Type (0, 0), BuildingBlock: EZIPEK_clean_linker_0, # of connection points: 2
#     Edge 28, Type (0, 0), BuildingBlock: EZIPEK_clean_linker_0, # of connection points: 2
#     Edge 29, Type (0, 0), BuildingBlock: EZIPEK_clean_linker_0, # of connection points: 2
#     Edge 30, Type (0, 0), BuildingBlock: EZIPEK_clean_linker_0, # of connection points: 2
#     Edge 31, Type (0, 0), BuildingBlock: EZIPEK_clean_linker_0, # of connection points: 2
#     Edge 32, Type (0, 0), BuildingBlock: EZIPEK_clean_linker_0, # of connection points: 2
#     Edge 33, Type (0, 0), BuildingBlock: EZIPEK_clean_linker_0, # of connection points: 2
#     Edge 34, Type (0, 0), BuildingBlock: EZIPEK_clean_linker_0, # of connection points: 2
#     Edge 35, Type (0, 0), BuildingBlock: EZIPEK_clean_linker_0, # of connection points: 2
#     Edge 36, Type (0, 0), BuildingBlock: EZIPEK_clean_linker_0, # of connection points: 2
#     Edge 37, Type (0, 0), BuildingBlock: EZIPEK_clean_linker_0, # of connection points: 2
#     Edge 38, Type (0, 0), BuildingBlock: EZIPEK_clean_linker_0, # of connection points: 2
#     Edge 39, Type (0, 0), BuildingBlock: EZIPEK_clean_linker_0, # of connection points: 2
#     Edge 40, Type (0, 0), BuildingBlock: EZIPEK_clean_linker_0, # of connection points: 2
#     Edge 41, Type (0, 0), BuildingBlock: EZIPEK_clean_linker_0, # of connection points: 2
# Relax obj value: 0.151
# Max RMSD: 0.171
# Mean RMSD: 0.171
data_MOF--net-wjy--node1-BEQFEK_clean_sbu_0--edge1-EZIPEK_clean_linker_0
_symmetry_space_group_name_H-M    P1
_symmetry_Int_Tables_number       1
_symmetry_cell_setting            triclinic
loop_
_symmetry_equiv_pos_as_xyz
'x, y, z'
_cell_length_a     54.279912
_cell_length_b     54.367597
_cell_length_c     15.044164
_cell_angle_alpha  89.979763
_cell_angle_beta   90.119379
_cell_angle_gamma 119.9656
loop_
_atom_site_label
_atom_site_type_symbol
_atom_site_fract_x
_atom_site_fract_y
_atom_site_fract_z
_atom_type_partial_charge
Co0 Co 0.4559 0.1077 0.20521 0.0
Co1 Co 0.48297 0.12087 0.01498 0.0
C2 C 0.43429 0.06256 0.07041 0.0
O3 O 0.43071 0.06961 0.14827 0.0
O4 O 0.4536 0.08032 0.01927 0.0
C5 C 0.44746 0.09204 0.38506 0.0
O6 O 0.44524 0.06857 0.35263 0.0
C7 C 0.47352 0.11703 0.82416 0.0
C8 C 0.51584 0.14681 0.76921 0.0
C9 C 0.48796 0.12773 0.74525 0.0
N10 N 0.49188 0.12913 0.89199 0.0
N11 N 0.51714 0.14706 0.85879 0.0
C12 C 0.44294 0.09476 0.83501 0.0
H13 H 0.43382 0.09975 0.8936 0.0
H14 H 0.43028 0.09295 0.77495 0.0
H15 H 0.44155 0.07393 0.84632 0.0
C16 C 0.4505 0.15822 0.16266 0.0
N17 N 0.45709 0.13818 0.14022 0.0
N18 N 0.46885 0.14398 0.06095 0.0
C19 C 0.46991 0.16778 0.03013 0.0
C20 C 0.45845 0.17771 0.09365 0.0
C21 C 0.43911 0.15989 0.25148 0.0
H22 H 0.4559 0.1655 0.30248 0.0
H23 H 0.42088 0.13881 0.2691 0.0
H24 H 0.43236 0.17609 0.25212 0.0
O25 O 0.49473 0.1134 0.21528 0.0
O26 O 0.5166 0.12555 0.08479 0.0
H27 H 0.50542 0.18661 0.94184 0.0
H28 H 0.48201 0.20127 0.9327 0.0
C29 C 0.48295 0.18156 0.94341 0.0
H30 H 0.47144 0.16654 0.88849 0.0
H31 H 0.53532 0.15918 0.89716 0.0
O32 O 0.4477 0.11029 0.33183 0.0
C33 C 0.51658 0.12049 0.16768 0.0
Co34 Co 0.35392 0.45269 0.36888 0.0
Co35 Co 0.36243 0.47732 0.17649 0.0
C36 C 0.37753 0.43205 0.23469 0.0
O37 O 0.36789 0.42852 0.3138 0.0
O38 O 0.37668 0.45015 0.18302 0.0
C39 C 0.33667 0.42734 0.55444 0.0
O40 O 0.32553 0.40089 0.52793 0.0
C41 C 0.35205 0.46279 0.9896 0.0
C42 C 0.36396 0.50335 0.92279 0.0
C43 C 0.35401 0.47476 0.90709 0.0
N44 N 0.36035 0.48317 0.05184 0.0
N45 N 0.36739 0.50742 0.01154 0.0
C46 C 0.34277 0.43239 0.00891 0.0
H47 H 0.33164 0.42608 0.07383 0.0
H48 H 0.32862 0.41824 0.95564 0.0
H49 H 0.36181 0.42987 0.01251 0.0
C50 C 0.29506 0.44269 0.3332 0.0
N51 N 0.32185 0.45054 0.30784 0.0
N52 N 0.32586 0.4611 0.22698 0.0
C53 C 0.30196 0.46031 0.19847 0.0
C54 C 0.28158 0.4486 0.26458 0.0
C55 C 0.28351 0.43205 0.42386 0.0
H56 H 0.2967 0.44841 0.47385 0.0
H57 H 0.28498 0.4128 0.43782 0.0
H58 H 0.26106 0.42692 0.42976 0.0
O59 O 0.38603 0.49206 0.36876 0.0
O60 O 0.38892 0.51339 0.24114 0.0
H61 H 0.31702 0.49488 0.10667 0.0
H62 H 0.27874 0.47191 0.10588 0.0
C63 C 0.29945 0.4726 0.11225 0.0
H64 H 0.30144 0.46031 0.05688 0.0
H65 H 0.37479 0.52676 0.04442 0.0
O66 O 0.34745 0.44756 0.4989 0.0
C67 C 0.39719 0.51433 0.32118 0.0
Co68 Co 0.90269 0.35085 0.53021 0.0
Co69 Co 0.89055 0.36421 0.33846 0.0
C70 C 0.94878 0.37477 0.39961 0.0
O71 O 0.94096 0.36377 0.4766 0.0
O72 O 0.93159 0.37654 0.34608 0.0
C73 C 0.91968 0.35672 0.70904 0.0
O74 O 0.94413 0.37617 0.67603 0.0
C75 C 0.89479 0.3579 0.14886 0.0
C76 C 0.86756 0.37326 0.09061 0.0
C77 C 0.8855 0.36289 0.06886 0.0
N78 N 0.88294 0.36495 0.21519 0.0
N79 N 0.86652 0.37395 0.18009 0.0
C80 C 0.91568 0.34788 0.16233 0.0
H81 H 0.91041 0.33487 0.22366 0.0
H82 H 0.91596 0.33537 0.10454 0.0
H83 H 0.93727 0.3666 0.17015 0.0
C84 C 0.85292 0.29458 0.4863 0.0
N85 N 0.87283 0.32126 0.46425 0.0
N86 N 0.86754 0.32691 0.38376 0.0
C87 C 0.8441 0.30396 0.35188 0.0
C88 C 0.83398 0.28271 0.41585 0.0
C89 C 0.85083 0.28173 0.57582 0.0
H90 H 0.87191 0.28481 0.59537 0.0
H91 H 0.83475 0.25877 0.57641 0.0
H92 H 0.84479 0.29286 0.62548 0.0
O93 O 0.8968 0.38388 0.53827 0.0
O94 O 0.88426 0.39223 0.40592 0.0
H95 H 0.81077 0.28252 0.25359 0.0
H96 H 0.84593 0.30561 0.21022 0.0
C97 C 0.8308 0.30294 0.26378 0.0
H98 H 0.82641 0.32075 0.25917 0.0
H99 H 0.85506 0.38108 0.2171 0.0
O100 O 0.89999 0.34025 0.6565 0.0
C101 C 0.88912 0.39774 0.48859 0.0
Co102 Co 0.5527 0.89935 0.68232 0.0
Co103 Co 0.52707 0.88658 0.49147 0.0
C104 C 0.57513 0.94489 0.55078 0.0
O105 O 0.57859 0.93729 0.62781 0.0
O106 O 0.55584 0.92748 0.4986 0.0
C107 C 0.57353 0.89665 0.87157 0.0
O108 O 0.5966 0.89588 0.85083 0.0
C109 C 0.53437 0.89233 0.29925 0.0
C110 C 0.49966 0.85096 0.25208 0.0
C111 C 0.52393 0.87536 0.22435 0.0
N112 N 0.51788 0.87807 0.36885 0.0
N113 N 0.49655 0.85381 0.33959 0.0
C114 C 0.55971 0.92162 0.30463 0.0
H115 H 0.55334 0.93611 0.3356 0.0
H116 H 0.57633 0.92129 0.34684 0.0
H117 H 0.56863 0.93013 0.23806 0.0
C118 C 0.55855 0.84785 0.64039 0.0
N119 N 0.55196 0.86812 0.61925 0.0
N120 N 0.54196 0.86357 0.53723 0.0
C121 C 0.54284 0.84093 0.50361 0.0
C122 C 0.55309 0.83017 0.56784 0.0
C123 C 0.56831 0.84403 0.72944 0.0
H124 H 0.59118 0.85988 0.73699 0.0
H125 H 0.56577 0.82256 0.73645 0.0
H126 H 0.55595 0.84706 0.7822 0.0
O127 O 0.51387 0.89386 0.68827 0.0
O128 O 0.4924 0.87994 0.55765 0.0
H129 H 0.51003 0.81715 0.40932 0.0
H130 H 0.54123 0.81405 0.39528 0.0
C131 C 0.53357 0.82895 0.41238 0.0
H132 H 0.5421 0.84631 0.36312 0.0
H133 H 0.48086 0.83847 0.38033 0.0
O134 O 0.55852 0.89882 0.81093 0.0
C135 C 0.49203 0.88562 0.63957 0.0
Co136 Co 0.6583 0.55357 0.8598 0.0
Co137 Co 0.64632 0.52798 0.66922 0.0
C138 C 0.63492 0.57536 0.72677 0.0
O139 O 0.64615 0.57919 0.80368 0.0
O140 O 0.63316 0.55603 0.67531 0.0
C141 C 0.68118 0.5741 0.0487 0.0
O142 O 0.70515 0.59683 0.02698 0.0
C143 C 0.64882 0.53575 0.47728 0.0
C144 C 0.65451 0.50046 0.42992 0.0
C145 C 0.65484 0.52497 0.40228 0.0
N146 N 0.64627 0.5191 0.54681 0.0
N147 N 0.64871 0.4975 0.51754 0.0
C148 C 0.64553 0.56149 0.48283 0.0
H149 H 0.62445 0.55539 0.51156 0.0
H150 H 0.66222 0.57749 0.5271 0.0
H151 H 0.64684 0.57103 0.41665 0.0
C152 C 0.71566 0.55871 0.82229 0.0
N153 N 0.68914 0.55287 0.79899 0.0
N154 N 0.68409 0.54303 0.71682 0.0
C155 C 0.70755 0.5433 0.68523 0.0
C156 C 0.72808 0.55298 0.751 0.0
C157 C 0.72852 0.56741 0.91265 0.0
H158 H 0.7124 0.55533 0.96387 0.0
H159 H 0.73667 0.59045 0.92095 0.0
H160 H 0.74666 0.56361 0.92143 0.0
O161 O 0.62533 0.51469 0.86455 0.0
O162 O 0.61853 0.49318 0.73436 0.0
H163 H 0.69809 0.50998 0.59289 0.0
H164 H 0.73294 0.5404 0.57972 0.0
C165 C 0.7104 0.53348 0.59511 0.0
H166 H 0.70226 0.54227 0.54418 0.0
H167 H 0.64794 0.48158 0.55821 0.0
O168 O 0.66371 0.55919 0.98867 0.0
C169 C 0.61228 0.4928 0.81601 0.0
Co170 Co 0.10786 0.65946 0.05035 0.0
Co171 Co 0.12267 0.64714 0.86181 0.0
C172 C 0.06324 0.63521 0.91743 0.0
O173 O 0.0701 0.64705 0.9937 0.0
O174 O 0.08123 0.6333 0.86819 0.0
C175 C 0.09057 0.6548 0.23226 0.0
O176 O 0.06499 0.63752 0.20095 0.0
C177 C 0.11821 0.65402 0.67231 0.0
C178 C 0.14282 0.63616 0.61152 0.0
C179 C 0.12599 0.64797 0.59135 0.0
N180 N 0.12987 0.64626 0.73768 0.0
N181 N 0.14477 0.63577 0.70094 0.0
C182 C 0.09861 0.66549 0.68749 0.0
H183 H 0.1038 0.67729 0.75133 0.0
H184 H 0.09994 0.67957 0.63206 0.0
H185 H 0.07642 0.64752 0.69086 0.0
C186 C 0.1582 0.71632 0.00969 0.0
N187 N 0.13833 0.68969 0.98638 0.0
N188 N 0.144 0.68445 0.90595 0.0
C189 C 0.16753 0.70744 0.8754 0.0
C190 C 0.17744 0.72845 0.94011 0.0
C191 C 0.16016 0.72877 0.09978 0.0
H192 H 0.16637 0.71758 0.14883 0.0
H193 H 0.139 0.72539 0.11941 0.0
H194 H 0.17607 0.75178 0.10118 0.0
O195 O 0.11286 0.62574 0.05782 0.0
O196 O 0.13211 0.62186 0.93338 0.0
H197 H 0.20164 0.72873 0.77969 0.0
H198 H 0.16676 0.70601 0.73363 0.0
C199 C 0.18142 0.70843 0.78863 0.0
H200 H 0.18556 0.69043 0.78494 0.0
H201 H 0.15558 0.62763 0.7368 0.0
O202 O 0.11066 0.66931 0.17835 0.0
C203 C 0.12416 0.6141 0.01326 0.0
Co204 Co 0.90524 0.5533 0.63254 0.0
Co205 Co 0.89102 0.52625 0.82249 0.0
C206 C 0.94964 0.5751 0.76847 0.0
O207 O 0.94294 0.57891 0.69039 0.0
O208 O 0.93159 0.55561 0.81838 0.0
C209 C 0.90276 0.57369 0.44192 0.0
O210 O 0.90208 0.59685 0.4618 0.0
C211 C 0.8962 0.53352 0.01511 0.0
C212 C 0.85508 0.49839 0.06189 0.0
C213 C 0.87931 0.52283 0.08993 0.0
N214 N 0.88209 0.51698 0.94519 0.0
N215 N 0.85799 0.49542 0.97425 0.0
C216 C 0.92541 0.55904 0.01049 0.0
H217 H 0.94016 0.55292 0.98 0.0
H218 H 0.92492 0.57557 0.96847 0.0
H219 H 0.93381 0.56797 0.07723 0.0
C220 C 0.85314 0.55825 0.67118 0.0
N221 N 0.87339 0.55176 0.69384 0.0
N222 N 0.86782 0.54069 0.77445 0.0
C223 C 0.84443 0.54066 0.80558 0.0
C224 C 0.83432 0.55151 0.74111 0.0
C225 C 0.85049 0.56921 0.58288 0.0
H226 H 0.86724 0.59181 0.5776 0.0
H227 H 0.82952 0.56785 0.57488 0.0
H228 H 0.85307 0.55677 0.52935 0.0
O229 O 0.8997 0.51464 0.62622 0.0
O230 O 0.88606 0.49233 0.75528 0.0
H231 H 0.8205 0.50656 0.89523 0.0
H232 H 0.81515 0.53637 0.90974 0.0
C233 C 0.83123 0.53004 0.89462 0.0
H234 H 0.84785 0.53883 0.94668 0.0
H235 H 0.84282 0.47953 0.93343 0.0
O236 O 0.90499 0.55897 0.50329 0.0
C237 C 0.8919 0.49258 0.67317 0.0
Co238 Co 0.35348 0.9023 0.79869 0.0
Co239 Co 0.3694 0.89011 0.98789 0.0
C240 C 0.3774 0.94779 0.93107 0.0
O241 O 0.36588 0.94028 0.85449 0.0
O242 O 0.38016 0.93054 0.98131 0.0
C243 C 0.32916 0.89829 0.60644 0.0
O244 O 0.30447 0.89622 0.6231 0.0
C245 C 0.36809 0.89619 0.18066 0.0
C246 C 0.36352 0.85582 0.22917 0.0
C247 C 0.36232 0.8796 0.25625 0.0
N248 N 0.37112 0.88225 0.11138 0.0
N249 N 0.36945 0.85863 0.14156 0.0
C250 C 0.37049 0.92482 0.17446 0.0
H251 H 0.39113 0.94001 0.14369 0.0
H252 H 0.35313 0.92345 0.13184 0.0
H253 H 0.36952 0.93321 0.24075 0.0
C254 C 0.29735 0.85103 0.84598 0.0
N255 N 0.3244 0.87123 0.86476 0.0
N256 N 0.33111 0.86632 0.94462 0.0
C257 C 0.3082 0.84328 0.97916 0.0
C258 C 0.28625 0.83282 0.91782 0.0
C259 C 0.28269 0.84802 0.75939 0.0
H260 H 0.29677 0.8493 0.7043 0.0
H261 H 0.27791 0.86553 0.75325 0.0
H262 H 0.26243 0.82752 0.75484 0.0
O263 O 0.38649 0.89662 0.78839 0.0
O264 O 0.39784 0.88499 0.91679 0.0
H265 H 0.32027 0.82045 0.06752 0.0
H266 H 0.28496 0.81441 0.08635 0.0
C267 C 0.30701 0.83068 0.06839 0.0
H268 H 0.31516 0.84754 0.11938 0.0
H269 H 0.37056 0.84357 0.10139 0.0
O270 O 0.34569 0.90099 0.67004 0.0
C271 C 0.40187 0.88971 0.8335 0.0
Co272 Co 0.45838 0.35249 0.96179 0.0
Co273 Co 0.48407 0.36695 0.15319 0.0
C274 C 0.43465 0.37494 0.09235 0.0
O275 O 0.43202 0.36412 0.01527 0.0
O276 O 0.45399 0.37761 0.14598 0.0
C277 C 0.44977 0.3598 0.78369 0.0
O278 O 0.44696 0.38052 0.81771 0.0
C279 C 0.47489 0.36216 0.34411 0.0
C280 C 0.51735 0.3747 0.39879 0.0
C281 C 0.48955 0.36606 0.42287 0.0
N282 N 0.49307 0.36815 0.27621 0.0
N283 N 0.51843 0.37555 0.30922 0.0
C284 C 0.44424 0.35372 0.33332 0.0
H285 H 0.44272 0.37297 0.31958 0.0
H286 H 0.43498 0.33902 0.27604 0.0
H287 H 0.43182 0.34352 0.39416 0.0
C288 C 0.45305 0.29685 0.00691 0.0
N289 N 0.45963 0.32354 0.02803 0.0
N290 N 0.47064 0.3296 0.10845 0.0
C291 C 0.47126 0.30683 0.14132 0.0
C292 C 0.46025 0.28534 0.078 0.0
C293 C 0.44204 0.28355 0.91797 0.0
H294 H 0.45888 0.29484 0.86746 0.0
H295 H 0.42362 0.28604 0.89923 0.0
H296 H 0.43567 0.26073 0.91778 0.0
O297 O 0.49692 0.38604 0.95347 0.0
O298 O 0.51811 0.39568 0.08527 0.0
H299 H 0.50573 0.32314 0.23406 0.0
H300 H 0.48176 0.28524 0.24287 0.0
C301 C 0.48317 0.30601 0.2303 0.0
H302 H 0.47122 0.30991 0.28272 0.0
H303 H 0.53649 0.38139 0.27069 0.0
O304 O 0.45061 0.34179 0.83548 0.0
C305 C 0.51855 0.40066 0.00228 0.0
Co306 Co 0.10932 0.45754 0.13566 0.0
Co307 Co 0.1237 0.4813 0.32677 0.0
C308 C 0.06423 0.43536 0.26733 0.0
O309 O 0.07125 0.43202 0.18932 0.0
O310 O 0.08234 0.45392 0.31992 0.0
C311 C 0.10986 0.43594 0.94832 0.0
O312 O 0.10675 0.41138 0.9729 0.0
C313 C 0.1178 0.47401 0.51845 0.0
C314 C 0.1612 0.50498 0.56363 0.0
C315 C 0.13543 0.48255 0.59217 0.0
N316 N 0.13291 0.48964 0.44859 0.0
N317 N 0.15844 0.50889 0.47671 0.0
C318 C 0.087 0.45164 0.51472 0.0
H319 H 0.07476 0.46035 0.48137 0.0
H320 H 0.08452 0.43325 0.47553 0.0
H321 H 0.078 0.44436 0.58204 0.0
C322 C 0.15889 0.44739 0.17416 0.0
N323 N 0.1399 0.45569 0.19629 0.0
N324 N 0.14478 0.46474 0.2793 0.0
C325 C 0.16619 0.46152 0.31245 0.0
C326 C 0.17611 0.45104 0.24682 0.0
C327 C 0.16126 0.43639 0.08561 0.0
H328 H 0.14412 0.41396 0.07951 0.0
H329 H 0.18197 0.43714 0.07822 0.0
H330 H 0.1591 0.44898 0.03202 0.0
O331 O 0.11545 0.49682 0.13581 0.0
O332 O 0.13306 0.51732 0.26474 0.0
H333 H 0.19175 0.49116 0.41263 0.0
H334 H 0.18985 0.45739 0.42131 0.0
C335 C 0.1774 0.46797 0.4054 0.0
H336 H 0.15957 0.46036 0.45288 0.0
H337 H 0.17453 0.5235 0.4354 0.0
O338 O 0.10996 0.45292 0.00615 0.0
C339 C 0.12573 0.51866 0.18542 0.0
Co340 Co 0.65794 0.10739 0.29423 0.0
Co341 Co 0.64671 0.11893 0.48918 0.0
C342 C 0.63487 0.0608 0.42312 0.0
O343 O 0.64519 0.06885 0.34549 0.0
O344 O 0.63381 0.07789 0.47851 0.0
C345 C 0.66315 0.09023 0.11435 0.0
O346 O 0.65659 0.06523 0.14652 0.0
C347 C 0.65566 0.11354 0.67592 0.0
C348 C 0.64154 0.14052 0.74264 0.0
C349 C 0.65218 0.12244 0.75843 0.0
N350 N 0.64758 0.12577 0.61355 0.0
N351 N 0.63928 0.14204 0.6537 0.0
C352 C 0.66583 0.0931 0.65669 0.0
H353 H 0.67766 0.09865 0.59293 0.0
H354 H 0.6796 0.09302 0.71119 0.0
H355 H 0.64717 0.0714 0.65072 0.0
C356 C 0.71489 0.15694 0.335 0.0
N357 N 0.68843 0.13688 0.35888 0.0
N358 N 0.68358 0.1419 0.44064 0.0
C359 C 0.70681 0.16529 0.47143 0.0
C360 C 0.72743 0.17566 0.40551 0.0
C361 C 0.72696 0.15926 0.24418 0.0
H362 H 0.71397 0.16314 0.19516 0.0
H363 H 0.72567 0.13883 0.22674 0.0
H364 H 0.74938 0.17671 0.24028 0.0
O365 O 0.62511 0.11386 0.29235 0.0
O366 O 0.61831 0.12604 0.42723 0.0
H367 H 0.69067 0.18254 0.56766 0.0
H368 H 0.72903 0.19848 0.56936 0.0
C369 C 0.7086 0.17839 0.56033 0.0
H370 H 0.70663 0.16327 0.61302 0.0
H371 H 0.63166 0.15377 0.62055 0.0
O372 O 0.66695 0.11018 0.16637 0.0
C373 C 0.61196 0.12161 0.34489 0.0
Co374 Co 0.55425 0.65369 0.45135 0.0
Co375 Co 0.52933 0.64457 0.643 0.0
C376 C 0.57549 0.63061 0.58577 0.0
O377 O 0.57937 0.64099 0.50757 0.0
O378 O 0.55669 0.63031 0.63695 0.0
C379 C 0.57946 0.67136 0.26546 0.0
O380 O 0.60606 0.6834 0.29182 0.0
C381 C 0.54386 0.65516 0.82988 0.0
C382 C 0.50316 0.64298 0.89642 0.0
C383 C 0.53184 0.65319 0.9123 0.0
N384 N 0.5234 0.64662 0.76756 0.0
N385 N 0.49907 0.63941 0.80769 0.0
C386 C 0.57436 0.66469 0.8107 0.0
H387 H 0.58055 0.67568 0.7455 0.0
H388 H 0.58848 0.679 0.86372 0.0
H389 H 0.57712 0.64582 0.80769 0.0
C390 C 0.56246 0.71178 0.48518 0.0
N391 N 0.55546 0.68531 0.51136 0.0
N392 N 0.54496 0.68116 0.59227 0.0
C393 C 0.54488 0.70468 0.61994 0.0
C394 C 0.55597 0.72492 0.5532 0.0
C395 C 0.57291 0.72331 0.39436 0.0
H396 H 0.55678 0.70965 0.34441 0.0
H397 H 0.59266 0.72263 0.38107 0.0
H398 H 0.57724 0.74545 0.38765 0.0
O399 O 0.51505 0.62099 0.4513 0.0
O400 O 0.49335 0.61799 0.5782 0.0
H401 H 0.51018 0.6891 0.71137 0.0
H402 H 0.53265 0.72739 0.71205 0.0
C403 C 0.53237 0.70691 0.70597 0.0
H404 H 0.54479 0.70515 0.76157 0.0
H405 H 0.47967 0.63183 0.77472 0.0
O406 O 0.55932 0.66006 0.32119 0.0
C407 C 0.49265 0.60971 0.49839 0.0
C408 C 0.43313 0.23189 0.08722 0.0
C409 C 0.45954 0.25761 0.08173 0.0
C410 C 0.48488 0.23105 0.09697 0.0
C411 C 0.4586 0.20518 0.09279 0.0
N412 N 0.40778 0.18062 0.07132 0.0
N413 N 0.5105 0.28135 0.06402 0.0
C414 C 0.43269 0.20548 0.08452 0.0
C415 C 0.48543 0.2571 0.08171 0.0
N416 N 0.40854 0.2327 0.09762 0.0
N417 N 0.50927 0.23082 0.11823 0.0
H418 H 0.51178 0.3008 0.05106 0.0
H419 H 0.52961 0.28162 0.05384 0.0
H420 H 0.50969 0.21219 0.13131 0.0
H421 H 0.52853 0.24917 0.13131 0.0
H422 H 0.389 0.21484 0.11165 0.0
H423 H 0.40802 0.25162 0.09941 0.0
H424 H 0.3887 0.17971 0.05502 0.0
H425 H 0.4066 0.16087 0.0698 0.0
C426 C 0.2293 0.47554 0.25565 0.0
C427 C 0.20291 0.4498 0.24992 0.0
C428 C 0.22802 0.42271 0.25411 0.0
C429 C 0.25408 0.44841 0.26693 0.0
N430 N 0.27881 0.49852 0.29954 0.0
N431 N 0.17639 0.39871 0.25647 0.0
C432 C 0.25447 0.4746 0.2738 0.0
C433 C 0.20203 0.42328 0.25273 0.0
N434 N 0.23049 0.50091 0.24026 0.0
N435 N 0.22821 0.39795 0.24073 0.0
H436 H 0.15702 0.39839 0.25422 0.0
H437 H 0.17427 0.37887 0.26818 0.0
H438 H 0.24675 0.39669 0.24371 0.0
H439 H 0.21037 0.37908 0.22109 0.0
H440 H 0.2495 0.52007 0.2343 0.0
H441 H 0.21263 0.50253 0.22463 0.0
H442 H 0.2796 0.5176 0.31461 0.0
H443 H 0.29764 0.49861 0.31437 0.0
C444 C 0.75471 0.22901 0.40455 0.0
C445 C 0.75489 0.203 0.40591 0.0
C446 C 0.80711 0.22928 0.40651 0.0
C447 C 0.80677 0.25513 0.41407 0.0
N448 N 0.78026 0.27933 0.4376 0.0
N449 N 0.78086 0.17794 0.42045 0.0
C450 C 0.78055 0.25492 0.41801 0.0
C451 C 0.78101 0.203 0.4102 0.0
N452 N 0.72997 0.22903 0.3876 0.0
N453 N 0.83231 0.22988 0.39328 0.0
H454 H 0.76218 0.15829 0.42236 0.0
H455 H 0.79905 0.17673 0.43384 0.0
H456 H 0.85184 0.2487 0.39113 0.0
H457 H 0.83371 0.21196 0.37758 0.0
H458 H 0.72909 0.24749 0.37645 0.0
H459 H 0.71063 0.21051 0.37627 0.0
H460 H 0.76169 0.27985 0.45075 0.0
H461 H 0.79871 0.29871 0.44901 0.0
C462 C 0.58151 0.77842 0.56096 0.0
C463 C 0.55581 0.75223 0.55032 0.0
C464 C 0.52847 0.77691 0.55926 0.0
C465 C 0.55421 0.80333 0.56319 0.0
N466 N 0.60535 0.82988 0.55366 0.0
N467 N 0.50545 0.72707 0.52003 0.0
C468 C 0.58081 0.80428 0.56004 0.0
C469 C 0.52947 0.75166 0.54352 0.0
N470 N 0.60645 0.77849 0.57466 0.0
N471 N 0.50307 0.77575 0.57423 0.0
H472 H 0.5054 0.70819 0.50715 0.0
H473 H 0.48621 0.72603 0.50502 0.0
H474 H 0.50142 0.79369 0.58771 0.0
H475 H 0.48393 0.75681 0.58165 0.0
H476 H 0.62536 0.79652 0.59297 0.0
H477 H 0.60784 0.76004 0.57368 0.0
H478 H 0.62517 0.83193 0.54156 0.0
H479 H 0.60563 0.84921 0.55355 0.0
C480 C 0.75511 0.52656 0.75049 0.0
C481 C 0.75547 0.55284 0.74976 0.0
C482 C 0.8077 0.57842 0.75015 0.0
C483 C 0.80719 0.55215 0.74252 0.0
N484 N 0.78052 0.50153 0.71838 0.0
N485 N 0.78165 0.60382 0.73689 0.0
C486 C 0.78091 0.52629 0.73787 0.0
C487 C 0.78167 0.57882 0.74634 0.0
N488 N 0.73025 0.5019 0.76635 0.0
N489 N 0.83299 0.60287 0.76362 0.0
H490 H 0.76302 0.60493 0.73492 0.0
H491 H 0.79989 0.62318 0.72421 0.0
H492 H 0.85246 0.60339 0.76583 0.0
H493 H 0.83454 0.62224 0.77937 0.0
H494 H 0.72922 0.48248 0.77723 0.0
H495 H 0.71093 0.50119 0.77698 0.0
H496 H 0.76193 0.48256 0.70456 0.0
H497 H 0.79893 0.50044 0.70781 0.0
C498 C 0.23277 0.80754 0.93122 0.0
C499 C 0.25816 0.8062 0.92443 0.0
C500 C 0.2308 0.75456 0.94387 0.0
C501 C 0.20518 0.75552 0.94025 0.0
N502 N 0.18127 0.7824 0.91978 0.0
N503 N 0.28087 0.778 0.90745 0.0
C504 C 0.206 0.7819 0.93118 0.0
C505 C 0.25706 0.77957 0.92618 0.0
N506 N 0.23427 0.83327 0.9403 0.0
N507 N 0.23012 0.72986 0.96639 0.0
H508 H 0.30042 0.79576 0.89231 0.0
H509 H 0.28062 0.75888 0.89851 0.0
H510 H 0.21131 0.71118 0.98112 0.0
H511 H 0.24834 0.72861 0.97896 0.0
H512 H 0.21675 0.83551 0.95501 0.0
H513 H 0.25346 0.85246 0.94034 0.0
H514 H 0.18062 0.80063 0.90276 0.0
H515 H 0.16129 0.76411 0.92098 0.0
C516 C 0.45599 0.12363 0.61734 0.0
C517 C 0.47704 0.11829 0.65372 0.0
C518 C 0.48073 0.09885 0.51133 0.0
C519 C 0.45705 0.10056 0.47836 0.0
N520 N 0.4193 0.11081 0.5055 0.0
N521 N 0.50461 0.09472 0.6412 0.0
C522 C 0.44385 0.11193 0.53295 0.0
C523 C 0.48793 0.10403 0.60256 0.0
N524 N 0.44823 0.14057 0.66203 0.0
N525 N 0.49771 0.09425 0.45488 0.0
H526 H 0.50991 0.09745 0.70854 0.0
H527 H 0.51067 0.08172 0.60827 0.0
H528 H 0.49481 0.09266 0.38632 0.0
H529 H 0.51678 0.09568 0.4749 0.0
H530 H 0.43518 0.14758 0.63466 0.0
H531 H 0.4568 0.14963 0.72365 0.0
H532 H 0.40724 0.11622 0.54625 0.0
H533 H 0.40955 0.10197 0.44484 0.0
C534 C 0.3677 0.44899 0.68705 0.0
C535 C 0.33992 0.43479 0.65017 0.0
C536 C 0.32082 0.44367 0.78659 0.0
C537 C 0.34903 0.46056 0.81921 0.0
N538 N 0.3996 0.48038 0.80103 0.0
N539 N 0.2899 0.41855 0.66171 0.0
C540 C 0.37256 0.46342 0.76969 0.0
C541 C 0.31635 0.43177 0.69961 0.0
N542 N 0.38927 0.4479 0.64367 0.0
N543 N 0.29834 0.43896 0.8391 0.0
H544 H 0.28569 0.40818 0.60061 0.0
H545 H 0.27233 0.4187 0.68858 0.0
H546 H 0.30083 0.44852 0.90103 0.0
H547 H 0.27725 0.4244 0.82411 0.0
H548 H 0.4095 0.45539 0.6702 0.0
H549 H 0.38622 0.43711 0.58367 0.0
H550 H 0.41781 0.48629 0.76359 0.0
H551 H 0.40401 0.49 0.86346 0.0
C552 C 0.89892 0.33337 0.85578 0.0
C553 C 0.91246 0.35835 0.80313 0.0
C554 C 0.912 0.38643 0.92974 0.0
C555 C 0.89535 0.36114 0.97843 0.0
N556 N 0.86891 0.30995 0.98305 0.0
N557 N 0.92441 0.40739 0.78392 0.0
C558 C 0.88767 0.33438 0.94021 0.0
C559 C 0.91711 0.38462 0.83836 0.0
N560 N 0.89744 0.3089 0.8262 0.0
N561 N 0.92346 0.41225 0.97093 0.0
H562 H 0.92622 0.40669 0.71517 0.0
H563 H 0.92526 0.426 0.80569 0.0
H564 H 0.92068 0.41453 0.0384 0.0
H565 H 0.93814 0.43112 0.94014 0.0
H566 H 0.89026 0.2908 0.86536 0.0
H567 H 0.90589 0.30753 0.76542 0.0
H568 H 0.8602 0.28991 0.9541 0.0
H569 H 0.86019 0.30988 0.04483 0.0
C570 C 0.53127 0.87473 0.97427 0.0
C571 C 0.5614 0.88984 0.96295 0.0
C572 C 0.56629 0.8892 0.12412 0.0
C573 C 0.53697 0.88032 0.13462 0.0
N574 N 0.49296 0.87099 0.0644 0.0
N575 N 0.60763 0.91697 0.03334 0.0
C576 C 0.51984 0.87504 0.05817 0.0
C577 C 0.57905 0.89868 0.03958 0.0
N578 N 0.51341 0.8586 0.90745 0.0
N579 N 0.58178 0.88753 0.19301 0.0
H580 H 0.61777 0.92631 0.97386 0.0
H581 H 0.62058 0.92542 0.08926 0.0
H582 H 0.57282 0.87872 0.25426 0.0
H583 H 0.60266 0.89182 0.18542 0.0
H584 H 0.49154 0.84584 0.91676 0.0
H585 H 0.5205 0.85456 0.84794 0.0
H586 H 0.4808 0.86927 0.00845 0.0
H587 H 0.4842 0.87268 0.12409 0.0
C588 C 0.66065 0.53186 0.15171 0.0
C589 C 0.67624 0.56195 0.14007 0.0
C590 C 0.6834 0.5668 0.30075 0.0
C591 C 0.6625 0.53775 0.31219 0.0
N592 N 0.62636 0.49418 0.24416 0.0
N593 N 0.69705 0.60824 0.21048 0.0
C594 C 0.64957 0.5207 0.23643 0.0
C595 C 0.68619 0.5796 0.2165 0.0
N596 N 0.65777 0.51372 0.08438 0.0
N597 N 0.7013 0.58199 0.36858 0.0
H598 H 0.69744 0.61846 0.15151 0.0
H599 H 0.70242 0.62124 0.26648 0.0
H600 H 0.7013 0.57293 0.4296 0.0
H601 H 0.71818 0.60263 0.3602 0.0
H602 H 0.64801 0.49181 0.09345 0.0
H603 H 0.66856 0.52045 0.02423 0.0
H604 H 0.61513 0.48216 0.18895 0.0
H605 H 0.61643 0.48565 0.30468 0.0
C606 C 0.08951 0.62622 0.36605 0.0
C607 C 0.09766 0.65309 0.327 0.0
C608 C 0.12569 0.67682 0.4605 0.0
C609 C 0.11553 0.64999 0.50172 0.0
N610 N 0.0823 0.59964 0.5021 0.0
N611 N 0.11888 0.70379 0.34421 0.0
C612 C 0.09565 0.62484 0.45714 0.0
C613 C 0.11444 0.67838 0.37639 0.0
N614 N 0.07768 0.60213 0.31521 0.0
N615 N 0.14671 0.70073 0.50039 0.0
H616 H 0.11036 0.70563 0.28401 0.0
H617 H 0.12858 0.72254 0.38093 0.0
H618 H 0.15527 0.70043 0.56226 0.0
H619 H 0.1572 0.72045 0.4692 0.0
H620 H 0.07314 0.58237 0.33942 0.0
H621 H 0.07527 0.60213 0.24653 0.0
H622 H 0.06536 0.58123 0.47563 0.0
H623 H 0.08616 0.59778 0.56902 0.0
C624 C 0.89284 0.5651 0.18995 0.0
C625 C 0.88433 0.53591 0.17977 0.0
C626 C 0.88043 0.53089 0.34061 0.0
C627 C 0.89536 0.56104 0.35097 0.0
N628 N 0.9213 0.60689 0.27829 0.0
N629 N 0.87621 0.49245 0.25007 0.0
C630 C 0.90315 0.57829 0.27365 0.0
C631 C 0.88002 0.51919 0.25643 0.0
N632 N 0.89017 0.58006 0.12141 0.0
N633 N 0.86503 0.51324 0.40862 0.0
H634 H 0.87727 0.48347 0.19001 0.0
H635 H 0.8753 0.48063 0.30591 0.0
H636 H 0.86111 0.52048 0.46807 0.0
H637 H 0.8526 0.49131 0.40061 0.0
H638 H 0.89423 0.60084 0.12884 0.0
H639 H 0.88079 0.57071 0.06092 0.0
H640 H 0.92894 0.61956 0.22165 0.0
H641 H 0.9314 0.61735 0.33674 0.0
C642 C 0.35271 0.87874 0.50645 0.0
C643 C 0.3363 0.89249 0.51586 0.0
C644 C 0.33177 0.89158 0.35416 0.0
C645 C 0.35327 0.88404 0.3455 0.0
N646 N 0.38888 0.87685 0.41902 0.0
N647 N 0.31604 0.91807 0.44247 0.0
C648 C 0.36525 0.87962 0.42331 0.0
C649 C 0.32743 0.9007 0.438 0.0
N650 N 0.35493 0.8632 0.57419 0.0
N651 N 0.31455 0.8889 0.28422 0.0
H652 H 0.31455 0.92729 0.50139 0.0
H653 H 0.31138 0.92605 0.38576 0.0
H654 H 0.3154 0.88019 0.22348 0.0
H655 H 0.29728 0.8922 0.29049 0.0
H656 H 0.36538 0.85161 0.56689 0.0
H657 H 0.34296 0.85833 0.63223 0.0
H658 H 0.39941 0.87586 0.47582 0.0
H659 H 0.39974 0.87887 0.35996 0.0
C660 C 0.45793 0.33779 0.55009 0.0
C661 C 0.47877 0.3643 0.5145 0.0
C662 C 0.48251 0.38699 0.65786 0.0
C663 C 0.45908 0.3614 0.69014 0.0
N664 N 0.42148 0.31348 0.66164 0.0
N665 N 0.50615 0.41534 0.5287 0.0
C666 C 0.4459 0.33704 0.6347 0.0
C667 C 0.48961 0.38928 0.56657 0.0
N668 N 0.45029 0.31327 0.50449 0.0
N669 N 0.49931 0.40852 0.7149 0.0
H670 H 0.51142 0.41808 0.4614 0.0
H671 H 0.51215 0.43429 0.56222 0.0
H672 H 0.49638 0.40722 0.78344 0.0
H673 H 0.51827 0.42627 0.69531 0.0
H674 H 0.43741 0.29315 0.53128 0.0
H675 H 0.45884 0.31299 0.44275 0.0
H676 H 0.40942 0.29616 0.62031 0.0
H677 H 0.41181 0.31235 0.72253 0.0
C678 C 0.11616 0.43999 0.69489 0.0
C679 C 0.12935 0.46986 0.68238 0.0
C680 C 0.13716 0.47608 0.84158 0.0
C681 C 0.1179 0.44664 0.85577 0.0
N682 N 0.08478 0.40114 0.78978 0.0
N683 N 0.14658 0.516 0.74969 0.0
C684 C 0.10614 0.42859 0.78074 0.0
C685 C 0.13814 0.48785 0.75739 0.0
N686 N 0.11432 0.42259 0.62674 0.0
N687 N 0.15583 0.49268 0.90587 0.0
H688 H 0.14522 0.52523 0.69051 0.0
H689 H 0.15167 0.5293 0.80465 0.0
H690 H 0.1576 0.48502 0.96744 0.0
H691 H 0.17217 0.51329 0.89271 0.0
H692 H 0.1067 0.40094 0.63553 0.0
H693 H 0.12351 0.43032 0.56481 0.0
H694 H 0.07435 0.38827 0.73514 0.0
H695 H 0.07533 0.39227 0.85048 0.0
C696 C 0.63109 0.09052 0.89012 0.0
C697 C 0.65552 0.11199 0.84614 0.0
C698 C 0.68573 0.1152 0.97234 0.0
C699 C 0.66119 0.09449 0.01784 0.0
N700 N 0.61101 0.05991 0.01885 0.0
N701 N 0.70634 0.14221 0.83705 0.0
C702 C 0.63403 0.08119 0.97594 0.0
C703 C 0.68297 0.1235 0.88475 0.0
N704 N 0.60497 0.07968 0.85037 0.0
N705 N 0.71155 0.12725 0.01427 0.0
H706 H 0.70496 0.14955 0.77425 0.0
H707 H 0.72723 0.14958 0.85688 0.0
H708 H 0.71455 0.11986 0.07502 0.0
H709 H 0.72992 0.14481 0.99074 0.0
H710 H 0.58572 0.06636 0.88136 0.0
H711 H 0.6022 0.08475 0.78564 0.0
H712 H 0.59123 0.04724 0.98964 0.0
H713 H 0.61169 0.05369 0.08381 0.0
C714 C 0.57474 0.69129 0.11961 0.0
C715 C 0.57186 0.66791 0.16974 0.0
C716 C 0.54328 0.63504 0.05067 0.0
C717 C 0.54609 0.6584 0.00032 0.0
N718 N 0.56758 0.70895 0.97917 0.0
N719 N 0.55905 0.61873 0.17732 0.0
C720 C 0.56289 0.68663 0.03239 0.0
C721 C 0.55777 0.64011 0.13341 0.0
N722 N 0.5877 0.71775 0.15704 0.0
N723 N 0.52635 0.60797 0.02001 0.0
H724 H 0.56992 0.62192 0.23734 0.0
H725 H 0.55166 0.59852 0.15116 0.0
H726 H 0.51672 0.60338 0.95752 0.0
H727 H 0.52044 0.58989 0.05812 0.0
H728 H 0.58738 0.73514 0.12951 0.0
H729 H 0.59795 0.72213 0.21847 0.0
H730 H 0.58213 0.73004 0.99382 0.0
H731 H 0.55806 0.70632 0.91701 0.0
C732 C 0.53774 0.09734 0.26089 0.0
C733 C 0.54169 0.12136 0.21135 0.0
C734 C 0.5923 0.14654 0.25285 0.0
C735 C 0.58754 0.12341 0.30817 0.0
N736 N 0.55476 0.07922 0.37874 0.0
N737 N 0.57165 0.17078 0.17342 0.0
C738 C 0.55991 0.09963 0.31676 0.0
C739 C 0.56873 0.14653 0.21063 0.0
N740 N 0.51323 0.07185 0.2515 0.0
N741 N 0.6194 0.16838 0.23994 0.0
H742 H 0.55488 0.17179 0.14312 0.0
H743 H 0.59004 0.19051 0.17916 0.0
H744 H 0.63691 0.16984 0.27365 0.0
H745 H 0.6247 0.18413 0.19226 0.0
H746 H 0.51045 0.05291 0.27789 0.0
H747 H 0.49651 0.069 0.21065 0.0
H748 H 0.53443 0.06285 0.39439 0.0
H749 H 0.57049 0.08018 0.42086 0.0
C750 C 0.44271 0.56303 0.31582 0.0
C751 C 0.41947 0.54138 0.36394 0.0
C752 C 0.44387 0.56429 0.50336 0.0
C753 C 0.46566 0.5874 0.45524 0.0
N754 N 0.4773 0.613 0.31524 0.0
N755 N 0.39378 0.52992 0.50365 0.0
C756 C 0.4624 0.58819 0.36128 0.0
C757 C 0.41866 0.5447 0.45781 0.0
N758 N 0.44734 0.55952 0.22878 0.0
N759 N 0.44733 0.55966 0.59053 0.0
H760 H 0.37422 0.51762 0.47208 0.0
H761 H 0.39218 0.53316 0.57125 0.0
H762 H 0.46614 0.57163 0.62578 0.0
H763 H 0.43246 0.54156 0.62448 0.0
H764 H 0.46554 0.57427 0.19494 0.0
H765 H 0.43527 0.54077 0.19354 0.0
H766 H 0.47411 0.61457 0.24755 0.0
H767 H 0.48964 0.63254 0.34661 0.0
C768 C 0.86496 0.41726 0.58453 0.0
C769 C 0.88803 0.42205 0.52887 0.0
C770 C 0.9148 0.47135 0.57994 0.0
C771 C 0.89078 0.46746 0.62931 0.0
N772 N 0.84105 0.43792 0.66526 0.0
N773 N 0.93281 0.45471 0.46094 0.0
C774 C 0.8653 0.44068 0.6284 0.0
C775 C 0.91224 0.44949 0.52238 0.0
N776 N 0.84282 0.39026 0.59611 0.0
N777 N 0.94056 0.49546 0.59136 0.0
H778 H 0.93178 0.43915 0.41811 0.0
H779 H 0.94951 0.47499 0.4467 0.0
H780 H 0.94369 0.51159 0.63527 0.0
H781 H 0.95944 0.4982 0.56455 0.0
H782 H 0.82708 0.38489 0.64389 0.0
H783 H 0.84113 0.37286 0.56139 0.0
H784 H 0.82117 0.41979 0.65818 0.0
H785 H 0.84022 0.45459 0.69652 0.0
C786 C 0.44312 0.9106 0.72734 0.0
C787 C 0.42512 0.88807 0.78561 0.0
C788 C 0.45027 0.86265 0.7438 0.0
C789 C 0.46648 0.88417 0.68067 0.0
N790 N 0.47406 0.92544 0.59882 0.0
N791 N 0.40775 0.83985 0.83468 0.0
C792 C 0.46139 0.90702 0.66785 0.0
C793 C 0.42768 0.8633 0.79017 0.0
N794 N 0.44399 0.93613 0.73209 0.0
N795 N 0.45655 0.84164 0.75972 0.0
H796 H 0.39047 0.83909 0.86729 0.0
H797 H 0.40683 0.82027 0.83247 0.0
H798 H 0.47175 0.83954 0.72337 0.0
H799 H 0.44785 0.8273 0.81209 0.0
H800 H 0.45884 0.9542 0.69821 0.0
H801 H 0.43198 0.94025 0.77716 0.0
H802 H 0.46883 0.94077 0.58058 0.0
H803 H 0.48772 0.92362 0.55419 0.0
C804 C 0.53973 0.44549 0.91372 0.0
C805 C 0.54371 0.42496 0.95995 0.0
C806 C 0.59345 0.44887 0.91039 0.0
C807 C 0.58825 0.46728 0.85655 0.0
N808 N 0.55514 0.47987 0.7943 0.0
N809 N 0.57329 0.40458 0.99262 0.0
C810 C 0.56091 0.46447 0.85406 0.0
C811 C 0.57035 0.42599 0.95605 0.0
N812 N 0.5162 0.44773 0.93032 0.0
N813 N 0.62053 0.45355 0.91896 0.0
H814 H 0.55693 0.38758 0.02667 0.0
H815 H 0.59121 0.40256 0.98358 0.0
H816 H 0.63765 0.46926 0.88333 0.0
H817 H 0.62629 0.44305 0.96522 0.0
H818 H 0.51323 0.46388 0.90484 0.0
H819 H 0.50121 0.43528 0.97791 0.0
H820 H 0.5348 0.47675 0.78369 0.0
H821 H 0.57016 0.4938 0.74899 0.0
C822 C 0.13604 0.55108 0.05465 0.0
C823 C 0.1297 0.54583 0.14641 0.0
C824 C 0.1303 0.59115 0.15284 0.0
C825 C 0.12828 0.59161 0.05802 0.0
N826 N 0.12307 0.5657 0.92057 0.0
N827 N 0.11663 0.5607 0.28188 0.0
C828 C 0.12955 0.56992 0.00901 0.0
C829 C 0.1257 0.56584 0.19579 0.0
N830 N 0.14949 0.53917 0.01129 0.0
N831 N 0.13799 0.61503 0.20203 0.0
H832 H 0.11081 0.54173 0.31465 0.0
H833 H 0.11204 0.57431 0.31771 0.0
H834 H 0.14511 0.63492 0.17344 0.0
H835 H 0.14133 0.61584 0.27051 0.0
H836 H 0.15708 0.54522 0.94685 0.0
H837 H 0.15681 0.52713 0.04406 0.0
H838 H 0.12239 0.54875 0.8859 0.0
H839 H 0.11468 0.57622 0.8849 0.0
C840 C 0.38884 0.01862 0.02199 0.0
C841 C 0.4185 0.03251 0.0399 0.0
C842 C 0.42115 0.99287 0.97191 0.0
C843 C 0.39121 0.97787 0.96072 0.0
N844 N 0.34578 0.97446 0.98545 0.0
N845 N 0.46198 0.03065 0.0466 0.0
C846 C 0.37478 0.99021 0.98842 0.0
C847 C 0.43436 0.01897 0.01888 0.0
N848 N 0.37435 0.03291 0.03385 0.0
N849 N 0.43716 0.98248 0.93525 0.0
H850 H 0.47257 0.0498 0.08102 0.0
H851 H 0.47361 0.02019 0.04284 0.0
H852 H 0.42828 0.96332 0.90073 0.0
H853 H 0.45927 0.99397 0.93181 0.0
H854 H 0.35346 0.02518 0.0129 0.0
H855 H 0.38389 0.05351 0.05923 0.0
H856 H 0.33251 0.98099 0.0138 0.0
H857 H 0.33494 0.9539 0.95964 0.0
C858 C 0.42763 0.41665 0.10214 0.0
C859 C 0.41704 0.38752 0.11916 0.0
C860 C 0.3784 0.38623 0.20759 0.0
C861 C 0.39157 0.4163 0.20076 0.0
N862 N 0.43331 0.46056 0.1598 0.0
N863 N 0.38413 0.34478 0.19627 0.0
C864 C 0.41748 0.43165 0.15296 0.0
C865 C 0.39295 0.37234 0.17459 0.0
N866 N 0.44724 0.42997 0.03664 0.0
N867 N 0.35154 0.37076 0.2412 0.0
H868 H 0.39344 0.33365 0.16952 0.0
H869 H 0.36882 0.33363 0.24459 0.0
H870 H 0.33974 0.37991 0.26306 0.0
H871 H 0.33995 0.34866 0.23963 0.0
H872 H 0.45402 0.45073 0.01646 0.0
H873 H 0.45398 0.41906 0.99554 0.0
H874 H 0.45353 0.47239 0.13229 0.0
H875 H 0.42789 0.47237 0.20182 0.0
C876 C 0.01964 0.38878 0.30247 0.0
C877 C 0.03421 0.41893 0.29812 0.0
C878 C 0.99498 0.41923 0.37798 0.0
C879 C 0.97916 0.38921 0.3737 0.0
N880 N 0.97451 0.34517 0.32217 0.0
N881 N 0.03294 0.46249 0.31479 0.0
C882 C 0.99094 0.37387 0.33316 0.0
C883 C 0.0211 0.43407 0.33141 0.0
N884 N 0.03352 0.37444 0.28109 0.0
N885 N 0.98518 0.43357 0.42782 0.0
H886 H 0.05139 0.47399 0.27733 0.0
H887 H 0.02288 0.47402 0.32978 0.0
H888 H 0.96625 0.42329 0.46378 0.0
H889 H 0.99711 0.45527 0.4407 0.0
H890 H 0.02499 0.35276 0.29187 0.0
H891 H 0.05455 0.38457 0.2593 0.0
H892 H 0.98072 0.33322 0.28405 0.0
H893 H 0.95381 0.33358 0.34661 0.0
C894 C 0.57635 0.98925 0.50043 0.0
C895 C 0.59156 0.9751 0.52225 0.0
C896 C 0.63615 0.01745 0.47735 0.0
C897 C 0.62038 0.03033 0.44809 0.0
N898 N 0.57508 0.02624 0.41444 0.0
N899 N 0.63538 0.97393 0.51984 0.0
C900 C 0.59033 0.01549 0.45437 0.0
C901 C 0.62138 0.98872 0.50774 0.0
N902 N 0.54875 0.97816 0.52725 0.0
N903 N 0.66518 0.0329 0.47837 0.0
H904 H 0.62529 0.95302 0.54255 0.0
H905 H 0.65645 0.98164 0.50133 0.0
H906 H 0.67653 0.05363 0.45422 0.0
H907 H 0.67788 0.02587 0.50815 0.0
H908 H 0.53741 0.98887 0.52091 0.0
H909 H 0.53815 0.95959 0.56465 0.0
H910 H 0.55299 0.01509 0.4093 0.0
H911 H 0.58467 0.04514 0.37829 0.0
C912 C 0.62175 0.6325 0.62683 0.0
C913 C 0.59163 0.61687 0.61849 0.0
C914 C 0.59051 0.57691 0.69805 0.0
C915 C 0.62062 0.59125 0.69807 0.0
N916 N 0.66526 0.6311 0.65251 0.0
N917 N 0.54791 0.57197 0.62959 0.0
C918 C 0.63639 0.61864 0.65965 0.0
C919 C 0.57616 0.58844 0.64967 0.0
N920 N 0.63626 0.66081 0.60711 0.0
N921 N 0.5756 0.55246 0.74599 0.0
H922 H 0.53679 0.57921 0.59119 0.0
H923 H 0.53623 0.55029 0.64284 0.0
H924 H 0.58552 0.54375 0.78367 0.0
H925 H 0.55371 0.54248 0.75577 0.0
H926 H 0.6578 0.67397 0.6208 0.0
H927 H 0.62631 0.67172 0.58361 0.0
H928 H 0.67764 0.64952 0.61606 0.0
H929 H 0.67664 0.6219 0.67833 0.0
C930 C 0.01852 0.59061 0.88107 0.0
C931 C 0.03327 0.62063 0.88641 0.0
C932 C 0.99287 0.62144 0.81506 0.0
C933 C 0.97939 0.5916 0.80205 0.0
N934 N 0.98213 0.54862 0.80702 0.0
N935 N 0.03664 0.66524 0.84838 0.0
C936 C 0.99301 0.57643 0.83084 0.0
C937 C 0.02104 0.63627 0.85069 0.0
N938 N 0.02864 0.57557 0.92584 0.0
N939 N 0.9784 0.63543 0.79687 0.0
H940 H 0.05697 0.6767 0.87591 0.0
H941 H 0.03024 0.67776 0.81415 0.0
H942 H 0.95785 0.62533 0.77066 0.0
H943 H 0.98588 0.65656 0.81398 0.0
H944 H 0.01727 0.55356 0.93239 0.0
H945 H 0.04721 0.58524 0.96395 0.0
H946 H 0.99273 0.53734 0.81776 0.0
H947 H 0.96385 0.53756 0.76839 0.0
loop_
_geom_bond_atom_site_label_1
_geom_bond_atom_site_label_2
_geom_bond_distance
_geom_bond_site_symmetry_2
_ccdc_geom_bond_type
Co0 O3 1.970 . S
Co0 N17 1.989 . S
Co0 O25 1.967 . S
Co0 O32 1.920 . S
Co1 O4 1.966 . S
Co1 N10 2.022 1_554 S
Co1 N18 1.993 . S
Co1 O26 1.941 . S
C2 O3 1.258 . S
C2 O4 1.263 . S
O3 Co0 1.970 . S
O3 C2 1.258 . S
O4 Co1 1.966 . S
O4 C2 1.263 . S
C5 O6 1.235 . S
C5 O32 1.289 . S
O6 C5 1.235 . S
C7 C9 1.400 . S
C7 N10 1.351 . S
C7 C12 1.501 . S
C8 C9 1.387 . S
C8 N11 1.341 . S
C9 C7 1.400 . S
C9 C8 1.387 . S
N10 Co1 2.022 1_556 S
N10 C7 1.351 . S
N10 N11 1.365 . S
N11 C8 1.341 . S
N11 N10 1.365 . S
N11 H31 0.862 . S
C12 C7 1.501 . S
C12 H13 0.961 . S
C12 H14 0.961 . S
C12 H15 0.960 . S
H13 C12 0.961 . S
H14 C12 0.961 . S
H15 C12 0.960 . S
C16 N17 1.342 . S
C16 C20 1.401 . S
C16 C21 1.499 . S
N17 Co0 1.989 . S
N17 C16 1.342 . S
N17 N18 1.388 . S
N18 Co1 1.993 . S
N18 N17 1.388 . S
N18 C19 1.346 . S
C19 N18 1.346 . S
C19 C20 1.396 . S
C19 C29 1.510 1_554 S
C20 C16 1.401 . S
C20 C19 1.396 . S
C21 C16 1.499 . S
C21 H22 0.959 . S
C21 H23 0.960 . S
C21 H24 0.961 . S
H22 C21 0.959 . S
H23 C21 0.960 . S
H24 C21 0.961 . S
O25 Co0 1.967 . S
O25 C33 1.258 . S
O26 Co1 1.941 . S
O26 C33 1.266 . S
H27 C29 0.959 . S
H28 C29 0.961 . S
C29 C19 1.510 1_556 S
C29 H27 0.959 . S
C29 H28 0.961 . S
C29 H30 0.960 . S
H30 C29 0.960 . S
H31 N11 0.862 . S
O32 Co0 1.920 . S
O32 C5 1.289 . S
C33 O25 1.258 . S
C33 O26 1.266 . S
Co34 O37 1.970 . S
Co34 N51 1.989 . S
Co34 O59 1.967 . S
Co34 O66 1.920 . S
Co35 O38 1.966 . S
Co35 N44 2.022 . S
Co35 N52 1.993 . S
Co35 O60 1.941 . S
C36 O37 1.258 . S
C36 O38 1.263 . S
O37 Co34 1.970 . S
O37 C36 1.258 . S
O38 Co35 1.966 . S
O38 C36 1.263 . S
C39 O40 1.235 . S
C39 O66 1.289 . S
O40 C39 1.235 . S
C41 C43 1.400 . S
C41 N44 1.351 1_556 S
C41 C46 1.501 . S
C42 C43 1.387 . S
C42 N45 1.341 . S
C43 C41 1.400 . S
C43 C42 1.387 . S
N44 Co35 2.022 . S
N44 C41 1.351 1_554 S
N44 N45 1.365 1_554 S
N45 C42 1.341 . S
N45 N44 1.365 1_556 S
N45 H65 0.862 1_556 S
C46 C41 1.501 . S
C46 H47 0.961 1_556 S
C46 H48 0.961 . S
C46 H49 0.960 . S
H47 C46 0.961 1_554 S
H48 C46 0.961 . S
H49 C46 0.960 . S
C50 N51 1.342 . S
C50 C54 1.401 . S
C50 C55 1.499 . S
N51 Co34 1.989 . S
N51 C50 1.342 . S
N51 N52 1.388 . S
N52 Co35 1.993 . S
N52 N51 1.388 . S
N52 C53 1.346 . S
C53 N52 1.346 . S
C53 C54 1.396 . S
C53 C63 1.510 . S
C54 C50 1.401 . S
C54 C53 1.396 . S
C55 C50 1.499 . S
C55 H56 0.959 . S
C55 H57 0.960 . S
C55 H58 0.961 . S
H56 C55 0.959 . S
H57 C55 0.960 . S
H58 C55 0.961 . S
O59 Co34 1.967 . S
O59 C67 1.258 . S
O60 Co35 1.941 . S
O60 C67 1.266 . S
H61 C63 0.959 . S
H62 C63 0.961 . S
C63 C53 1.510 . S
C63 H61 0.959 . S
C63 H62 0.961 . S
C63 H64 0.960 . S
H64 C63 0.960 . S
H65 N45 0.862 1_554 S
O66 Co34 1.920 . S
O66 C39 1.289 . S
C67 O59 1.258 . S
C67 O60 1.266 . S
Co68 O71 1.970 . S
Co68 N85 1.989 . S
Co68 O93 1.967 . S
Co68 O100 1.920 . S
Co69 O72 1.966 . S
Co69 N78 2.022 . S
Co69 N86 1.993 . S
Co69 O94 1.941 . S
C70 O71 1.258 . S
C70 O72 1.263 . S
O71 Co68 1.970 . S
O71 C70 1.258 . S
O72 Co69 1.966 . S
O72 C70 1.263 . S
C73 O74 1.235 . S
C73 O100 1.289 . S
O74 C73 1.235 . S
C75 C77 1.400 . S
C75 N78 1.351 . S
C75 C80 1.501 . S
C76 C77 1.387 . S
C76 N79 1.341 . S
C77 C75 1.400 . S
C77 C76 1.387 . S
N78 Co69 2.022 . S
N78 C75 1.351 . S
N78 N79 1.365 . S
N79 C76 1.341 . S
N79 N78 1.365 . S
N79 H99 0.862 . S
C80 C75 1.501 . S
C80 H81 0.961 . S
C80 H82 0.961 . S
C80 H83 0.960 . S
H81 C80 0.961 . S
H82 C80 0.961 . S
H83 C80 0.960 . S
C84 N85 1.342 . S
C84 C88 1.401 . S
C84 C89 1.499 . S
N85 Co68 1.989 . S
N85 C84 1.342 . S
N85 N86 1.388 . S
N86 Co69 1.993 . S
N86 N85 1.388 . S
N86 C87 1.346 . S
C87 N86 1.346 . S
C87 C88 1.396 . S
C87 C97 1.510 . S
C88 C84 1.401 . S
C88 C87 1.396 . S
C89 C84 1.499 . S
C89 H90 0.959 . S
C89 H91 0.960 . S
C89 H92 0.961 . S
H90 C89 0.959 . S
H91 C89 0.960 . S
H92 C89 0.961 . S
O93 Co68 1.967 . S
O93 C101 1.258 . S
O94 Co69 1.941 . S
O94 C101 1.266 . S
H95 C97 0.959 . S
H96 C97 0.961 . S
C97 C87 1.510 . S
C97 H95 0.959 . S
C97 H96 0.961 . S
C97 H98 0.960 . S
H98 C97 0.960 . S
H99 N79 0.862 . S
O100 Co68 1.920 . S
O100 C73 1.289 . S
C101 O93 1.258 . S
C101 O94 1.266 . S
Co102 O105 1.970 . S
Co102 N119 1.989 . S
Co102 O127 1.967 . S
Co102 O134 1.920 . S
Co103 O106 1.966 . S
Co103 N112 2.022 . S
Co103 N120 1.993 . S
Co103 O128 1.941 . S
C104 O105 1.258 . S
C104 O106 1.263 . S
O105 Co102 1.970 . S
O105 C104 1.258 . S
O106 Co103 1.966 . S
O106 C104 1.263 . S
C107 O108 1.235 . S
C107 O134 1.289 . S
O108 C107 1.235 . S
C109 C111 1.400 . S
C109 N112 1.351 . S
C109 C114 1.501 . S
C110 C111 1.387 . S
C110 N113 1.341 . S
C111 C109 1.400 . S
C111 C110 1.387 . S
N112 Co103 2.022 . S
N112 C109 1.351 . S
N112 N113 1.365 . S
N113 C110 1.341 . S
N113 N112 1.365 . S
N113 H133 0.862 . S
C114 C109 1.501 . S
C114 H115 0.961 . S
C114 H116 0.961 . S
C114 H117 0.960 . S
H115 C114 0.961 . S
H116 C114 0.961 . S
H117 C114 0.960 . S
C118 N119 1.342 . S
C118 C122 1.401 . S
C118 C123 1.499 . S
N119 Co102 1.989 . S
N119 C118 1.342 . S
N119 N120 1.388 . S
N120 Co103 1.993 . S
N120 N119 1.388 . S
N120 C121 1.346 . S
C121 N120 1.346 . S
C121 C122 1.396 . S
C121 C131 1.510 . S
C122 C118 1.401 . S
C122 C121 1.396 . S
C123 C118 1.499 . S
C123 H124 0.959 . S
C123 H125 0.960 . S
C123 H126 0.961 . S
H124 C123 0.959 . S
H125 C123 0.960 . S
H126 C123 0.961 . S
O127 Co102 1.967 . S
O127 C135 1.258 . S
O128 Co103 1.941 . S
O128 C135 1.266 . S
H129 C131 0.959 . S
H130 C131 0.961 . S
C131 C121 1.510 . S
C131 H129 0.959 . S
C131 H130 0.961 . S
C131 H132 0.960 . S
H132 C131 0.960 . S
H133 N113 0.862 . S
O134 Co102 1.920 . S
O134 C107 1.289 . S
C135 O127 1.258 . S
C135 O128 1.266 . S
Co136 O139 1.970 . S
Co136 N153 1.989 . S
Co136 O161 1.967 . S
Co136 O168 1.920 1_556 S
Co137 O140 1.966 . S
Co137 N146 2.022 . S
Co137 N154 1.993 . S
Co137 O162 1.941 . S
C138 O139 1.258 . S
C138 O140 1.263 . S
O139 Co136 1.970 . S
O139 C138 1.258 . S
O140 Co137 1.966 . S
O140 C138 1.263 . S
C141 O142 1.235 1_554 S
C141 O168 1.289 . S
O142 C141 1.235 1_556 S
C143 C145 1.400 . S
C143 N146 1.351 . S
C143 C148 1.501 . S
C144 C145 1.387 . S
C144 N147 1.341 . S
C145 C143 1.400 . S
C145 C144 1.387 . S
N146 Co137 2.022 . S
N146 C143 1.351 . S
N146 N147 1.365 . S
N147 C144 1.341 . S
N147 N146 1.365 . S
N147 H167 0.862 . S
C148 C143 1.501 . S
C148 H149 0.961 . S
C148 H150 0.961 . S
C148 H151 0.960 . S
H149 C148 0.961 . S
H150 C148 0.961 . S
H151 C148 0.960 . S
C152 N153 1.342 . S
C152 C156 1.401 . S
C152 C157 1.499 . S
N153 Co136 1.989 . S
N153 C152 1.342 . S
N153 N154 1.388 . S
N154 Co137 1.993 . S
N154 N153 1.388 . S
N154 C155 1.346 . S
C155 N154 1.346 . S
C155 C156 1.396 . S
C155 C165 1.510 . S
C156 C152 1.401 . S
C156 C155 1.396 . S
C157 C152 1.499 . S
C157 H158 0.959 . S
C157 H159 0.960 . S
C157 H160 0.961 . S
H158 C157 0.959 . S
H159 C157 0.960 . S
H160 C157 0.961 . S
O161 Co136 1.967 . S
O161 C169 1.258 . S
O162 Co137 1.941 . S
O162 C169 1.266 . S
H163 C165 0.959 . S
H164 C165 0.961 . S
C165 C155 1.510 . S
C165 H163 0.959 . S
C165 H164 0.961 . S
C165 H166 0.960 . S
H166 C165 0.960 . S
H167 N147 0.862 . S
O168 Co136 1.920 1_554 S
O168 C141 1.289 . S
C169 O161 1.258 . S
C169 O162 1.266 . S
Co170 O173 1.970 1_554 S
Co170 N187 1.989 1_554 S
Co170 O195 1.967 . S
Co170 O202 1.920 . S
Co171 O174 1.966 . S
Co171 N180 2.022 . S
Co171 N188 1.993 . S
Co171 O196 1.941 . S
C172 O173 1.258 . S
C172 O174 1.263 . S
O173 Co170 1.970 1_556 S
O173 C172 1.258 . S
O174 Co171 1.966 . S
O174 C172 1.263 . S
C175 O176 1.235 . S
C175 O202 1.289 . S
O176 C175 1.235 . S
C177 C179 1.400 . S
C177 N180 1.351 . S
C177 C182 1.501 . S
C178 C179 1.387 . S
C178 N181 1.341 . S
C179 C177 1.400 . S
C179 C178 1.387 . S
N180 Co171 2.022 . S
N180 C177 1.351 . S
N180 N181 1.365 . S
N181 C178 1.341 . S
N181 N180 1.365 . S
N181 H201 0.862 . S
C182 C177 1.501 . S
C182 H183 0.961 . S
C182 H184 0.961 . S
C182 H185 0.960 . S
H183 C182 0.961 . S
H184 C182 0.961 . S
H185 C182 0.960 . S
C186 N187 1.342 1_554 S
C186 C190 1.401 1_554 S
C186 C191 1.499 . S
N187 Co170 1.989 1_556 S
N187 C186 1.342 1_556 S
N187 N188 1.388 . S
N188 Co171 1.993 . S
N188 N187 1.388 . S
N188 C189 1.346 . S
C189 N188 1.346 . S
C189 C190 1.396 . S
C189 C199 1.510 . S
C190 C186 1.401 1_556 S
C190 C189 1.396 . S
C191 C186 1.499 . S
C191 H192 0.959 . S
C191 H193 0.960 . S
C191 H194 0.961 . S
H192 C191 0.959 . S
H193 C191 0.960 . S
H194 C191 0.961 . S
O195 Co170 1.967 . S
O195 C203 1.258 1_554 S
O196 Co171 1.941 . S
O196 C203 1.266 . S
H197 C199 0.959 . S
H198 C199 0.961 . S
C199 C189 1.510 . S
C199 H197 0.959 . S
C199 H198 0.961 . S
C199 H200 0.960 . S
H200 C199 0.960 . S
H201 N181 0.862 . S
O202 Co170 1.920 . S
O202 C175 1.289 . S
C203 O195 1.258 1_556 S
C203 O196 1.266 . S
Co204 O207 1.970 . S
Co204 N221 1.989 . S
Co204 O229 1.967 . S
Co204 O236 1.920 . S
Co205 O208 1.966 . S
Co205 N214 2.022 . S
Co205 N222 1.993 . S
Co205 O230 1.941 . S
C206 O207 1.258 . S
C206 O208 1.263 . S
O207 Co204 1.970 . S
O207 C206 1.258 . S
O208 Co205 1.966 . S
O208 C206 1.263 . S
C209 O210 1.235 . S
C209 O236 1.289 . S
O210 C209 1.235 . S
C211 C213 1.400 . S
C211 N214 1.351 1_554 S
C211 C216 1.501 . S
C212 C213 1.387 . S
C212 N215 1.341 . S
C213 C211 1.400 . S
C213 C212 1.387 . S
N214 Co205 2.022 . S
N214 C211 1.351 1_556 S
N214 N215 1.365 1_556 S
N215 C212 1.341 . S
N215 N214 1.365 1_554 S
N215 H235 0.862 1_554 S
C216 C211 1.501 . S
C216 H217 0.961 1_554 S
C216 H218 0.961 . S
C216 H219 0.960 . S
H217 C216 0.961 1_556 S
H218 C216 0.961 . S
H219 C216 0.960 . S
C220 N221 1.342 . S
C220 C224 1.401 . S
C220 C225 1.499 . S
N221 Co204 1.989 . S
N221 C220 1.342 . S
N221 N222 1.388 . S
N222 Co205 1.993 . S
N222 N221 1.388 . S
N222 C223 1.346 . S
C223 N222 1.346 . S
C223 C224 1.396 . S
C223 C233 1.510 . S
C224 C220 1.401 . S
C224 C223 1.396 . S
C225 C220 1.499 . S
C225 H226 0.959 . S
C225 H227 0.960 . S
C225 H228 0.961 . S
H226 C225 0.959 . S
H227 C225 0.960 . S
H228 C225 0.961 . S
O229 Co204 1.967 . S
O229 C237 1.258 . S
O230 Co205 1.941 . S
O230 C237 1.266 . S
H231 C233 0.959 . S
H232 C233 0.961 . S
C233 C223 1.510 . S
C233 H231 0.959 . S
C233 H232 0.961 . S
C233 H234 0.960 . S
H234 C233 0.960 . S
H235 N215 0.862 1_556 S
O236 Co204 1.920 . S
O236 C209 1.289 . S
C237 O229 1.258 . S
C237 O230 1.266 . S
Co238 O241 1.970 . S
Co238 N255 1.989 . S
Co238 O263 1.967 . S
Co238 O270 1.920 . S
Co239 O242 1.966 . S
Co239 N248 2.022 1_556 S
Co239 N256 1.993 . S
Co239 O264 1.941 . S
C240 O241 1.258 . S
C240 O242 1.263 . S
O241 Co238 1.970 . S
O241 C240 1.258 . S
O242 Co239 1.966 . S
O242 C240 1.263 . S
C243 O244 1.235 . S
C243 O270 1.289 . S
O244 C243 1.235 . S
C245 C247 1.400 . S
C245 N248 1.351 . S
C245 C250 1.501 . S
C246 C247 1.387 . S
C246 N249 1.341 . S
C247 C245 1.400 . S
C247 C246 1.387 . S
N248 Co239 2.022 1_554 S
N248 C245 1.351 . S
N248 N249 1.365 . S
N249 C246 1.341 . S
N249 N248 1.365 . S
N249 H269 0.862 . S
C250 C245 1.501 . S
C250 H251 0.961 . S
C250 H252 0.961 . S
C250 H253 0.960 . S
H251 C250 0.961 . S
H252 C250 0.961 . S
H253 C250 0.960 . S
C254 N255 1.342 . S
C254 C258 1.401 . S
C254 C259 1.499 . S
N255 Co238 1.989 . S
N255 C254 1.342 . S
N255 N256 1.388 . S
N256 Co239 1.993 . S
N256 N255 1.388 . S
N256 C257 1.346 . S
C257 N256 1.346 . S
C257 C258 1.396 . S
C257 C267 1.510 1_556 S
C258 C254 1.401 . S
C258 C257 1.396 . S
C259 C254 1.499 . S
C259 H260 0.959 . S
C259 H261 0.960 . S
C259 H262 0.961 . S
H260 C259 0.959 . S
H261 C259 0.960 . S
H262 C259 0.961 . S
O263 Co238 1.967 . S
O263 C271 1.258 . S
O264 Co239 1.941 . S
O264 C271 1.266 . S
H265 C267 0.959 . S
H266 C267 0.961 . S
C267 C257 1.510 1_554 S
C267 H265 0.959 . S
C267 H266 0.961 . S
C267 H268 0.960 . S
H268 C267 0.960 . S
H269 N249 0.862 . S
O270 Co238 1.920 . S
O270 C243 1.289 . S
C271 O263 1.258 . S
C271 O264 1.266 . S
Co272 O275 1.970 1_556 S
Co272 N289 1.989 1_556 S
Co272 O297 1.967 . S
Co272 O304 1.920 . S
Co273 O276 1.966 . S
Co273 N282 2.022 . S
Co273 N290 1.993 . S
Co273 O298 1.941 . S
C274 O275 1.258 . S
C274 O276 1.263 . S
O275 Co272 1.970 1_554 S
O275 C274 1.258 . S
O276 Co273 1.966 . S
O276 C274 1.263 . S
C277 O278 1.235 . S
C277 O304 1.289 . S
O278 C277 1.235 . S
C279 C281 1.400 . S
C279 N282 1.351 . S
C279 C284 1.501 . S
C280 C281 1.387 . S
C280 N283 1.341 . S
C281 C279 1.400 . S
C281 C280 1.387 . S
N282 Co273 2.022 . S
N282 C279 1.351 . S
N282 N283 1.365 . S
N283 C280 1.341 . S
N283 N282 1.365 . S
N283 H303 0.862 . S
C284 C279 1.501 . S
C284 H285 0.961 . S
C284 H286 0.961 . S
C284 H287 0.960 . S
H285 C284 0.961 . S
H286 C284 0.961 . S
H287 C284 0.960 . S
C288 N289 1.342 1_556 S
C288 C292 1.401 1_556 S
C288 C293 1.499 . S
N289 Co272 1.989 1_554 S
N289 C288 1.342 1_554 S
N289 N290 1.388 . S
N290 Co273 1.993 . S
N290 N289 1.388 . S
N290 C291 1.346 . S
C291 N290 1.346 . S
C291 C292 1.396 . S
C291 C301 1.510 . S
C292 C288 1.401 1_554 S
C292 C291 1.396 . S
C293 C288 1.499 . S
C293 H294 0.959 . S
C293 H295 0.960 . S
C293 H296 0.961 . S
H294 C293 0.959 . S
H295 C293 0.960 . S
H296 C293 0.961 . S
O297 Co272 1.967 . S
O297 C305 1.258 1_556 S
O298 Co273 1.941 . S
O298 C305 1.266 . S
H299 C301 0.959 . S
H300 C301 0.961 . S
C301 C291 1.510 . S
C301 H299 0.959 . S
C301 H300 0.961 . S
C301 H302 0.960 . S
H302 C301 0.960 . S
H303 N283 0.862 . S
O304 Co272 1.920 . S
O304 C277 1.289 . S
C305 O297 1.258 1_554 S
C305 O298 1.266 . S
Co306 O309 1.970 . S
Co306 N323 1.989 . S
Co306 O331 1.967 . S
Co306 O338 1.920 1_554 S
Co307 O310 1.966 . S
Co307 N316 2.022 . S
Co307 N324 1.993 . S
Co307 O332 1.941 . S
C308 O309 1.258 . S
C308 O310 1.263 . S
O309 Co306 1.970 . S
O309 C308 1.258 . S
O310 Co307 1.966 . S
O310 C308 1.263 . S
C311 O312 1.235 1_556 S
C311 O338 1.289 . S
O312 C311 1.235 1_554 S
C313 C315 1.400 . S
C313 N316 1.351 . S
C313 C318 1.501 . S
C314 C315 1.387 . S
C314 N317 1.341 . S
C315 C313 1.400 . S
C315 C314 1.387 . S
N316 Co307 2.022 . S
N316 C313 1.351 . S
N316 N317 1.365 . S
N317 C314 1.341 . S
N317 N316 1.365 . S
N317 H337 0.862 . S
C318 C313 1.501 . S
C318 H319 0.961 . S
C318 H320 0.961 . S
C318 H321 0.960 . S
H319 C318 0.961 . S
H320 C318 0.961 . S
H321 C318 0.960 . S
C322 N323 1.342 . S
C322 C326 1.401 . S
C322 C327 1.499 . S
N323 Co306 1.989 . S
N323 C322 1.342 . S
N323 N324 1.388 . S
N324 Co307 1.993 . S
N324 N323 1.388 . S
N324 C325 1.346 . S
C325 N324 1.346 . S
C325 C326 1.396 . S
C325 C335 1.510 . S
C326 C322 1.401 . S
C326 C325 1.396 . S
C327 C322 1.499 . S
C327 H328 0.959 . S
C327 H329 0.960 . S
C327 H330 0.961 . S
H328 C327 0.959 . S
H329 C327 0.960 . S
H330 C327 0.961 . S
O331 Co306 1.967 . S
O331 C339 1.258 . S
O332 Co307 1.941 . S
O332 C339 1.266 . S
H333 C335 0.959 . S
H334 C335 0.961 . S
C335 C325 1.510 . S
C335 H333 0.959 . S
C335 H334 0.961 . S
C335 H336 0.960 . S
H336 C335 0.960 . S
H337 N317 0.862 . S
O338 Co306 1.920 1_556 S
O338 C311 1.289 . S
C339 O331 1.258 . S
C339 O332 1.266 . S
Co340 O343 1.970 . S
Co340 N357 1.989 . S
Co340 O365 1.967 . S
Co340 O372 1.920 . S
Co341 O344 1.966 . S
Co341 N350 2.022 . S
Co341 N358 1.993 . S
Co341 O366 1.941 . S
C342 O343 1.258 . S
C342 O344 1.263 . S
O343 Co340 1.970 . S
O343 C342 1.258 . S
O344 Co341 1.966 . S
O344 C342 1.263 . S
C345 O346 1.235 . S
C345 O372 1.289 . S
O346 C345 1.235 . S
C347 C349 1.400 . S
C347 N350 1.351 . S
C347 C352 1.501 . S
C348 C349 1.387 . S
C348 N351 1.341 . S
C349 C347 1.400 . S
C349 C348 1.387 . S
N350 Co341 2.022 . S
N350 C347 1.351 . S
N350 N351 1.365 . S
N351 C348 1.341 . S
N351 N350 1.365 . S
N351 H371 0.862 . S
C352 C347 1.501 . S
C352 H353 0.961 . S
C352 H354 0.961 . S
C352 H355 0.960 . S
H353 C352 0.961 . S
H354 C352 0.961 . S
H355 C352 0.960 . S
C356 N357 1.342 . S
C356 C360 1.401 . S
C356 C361 1.499 . S
N357 Co340 1.989 . S
N357 C356 1.342 . S
N357 N358 1.388 . S
N358 Co341 1.993 . S
N358 N357 1.388 . S
N358 C359 1.346 . S
C359 N358 1.346 . S
C359 C360 1.396 . S
C359 C369 1.510 . S
C360 C356 1.401 . S
C360 C359 1.396 . S
C361 C356 1.499 . S
C361 H362 0.959 . S
C361 H363 0.960 . S
C361 H364 0.961 . S
H362 C361 0.959 . S
H363 C361 0.960 . S
H364 C361 0.961 . S
O365 Co340 1.967 . S
O365 C373 1.258 . S
O366 Co341 1.941 . S
O366 C373 1.266 . S
H367 C369 0.959 . S
H368 C369 0.961 . S
C369 C359 1.510 . S
C369 H367 0.959 . S
C369 H368 0.961 . S
C369 H370 0.960 . S
H370 C369 0.960 . S
H371 N351 0.862 . S
O372 Co340 1.920 . S
O372 C345 1.289 . S
C373 O365 1.258 . S
C373 O366 1.266 . S
Co374 O377 1.970 . S
Co374 N391 1.989 . S
Co374 O399 1.967 . S
Co374 O406 1.920 . S
Co375 O378 1.966 . S
Co375 N384 2.022 . S
Co375 N392 1.993 . S
Co375 O400 1.941 . S
C376 O377 1.258 . S
C376 O378 1.263 . S
O377 Co374 1.970 . S
O377 C376 1.258 . S
O378 Co375 1.966 . S
O378 C376 1.263 . S
C379 O380 1.235 . S
C379 O406 1.289 . S
O380 C379 1.235 . S
C381 C383 1.400 . S
C381 N384 1.351 . S
C381 C386 1.501 . S
C382 C383 1.387 . S
C382 N385 1.341 . S
C383 C381 1.400 . S
C383 C382 1.387 . S
N384 Co375 2.022 . S
N384 C381 1.351 . S
N384 N385 1.365 . S
N385 C382 1.341 . S
N385 N384 1.365 . S
N385 H405 0.862 . S
C386 C381 1.501 . S
C386 H387 0.961 . S
C386 H388 0.961 . S
C386 H389 0.960 . S
H387 C386 0.961 . S
H388 C386 0.961 . S
H389 C386 0.960 . S
C390 N391 1.342 . S
C390 C394 1.401 . S
C390 C395 1.499 . S
N391 Co374 1.989 . S
N391 C390 1.342 . S
N391 N392 1.388 . S
N392 Co375 1.993 . S
N392 N391 1.388 . S
N392 C393 1.346 . S
C393 N392 1.346 . S
C393 C394 1.396 . S
C393 C403 1.510 . S
C394 C390 1.401 . S
C394 C393 1.396 . S
C395 C390 1.499 . S
C395 H396 0.959 . S
C395 H397 0.960 . S
C395 H398 0.961 . S
H396 C395 0.959 . S
H397 C395 0.960 . S
H398 C395 0.961 . S
O399 Co374 1.967 . S
O399 C407 1.258 . S
O400 Co375 1.941 . S
O400 C407 1.266 . S
H401 C403 0.959 . S
H402 C403 0.961 . S
C403 C393 1.510 . S
C403 H401 0.959 . S
C403 H402 0.961 . S
C403 H404 0.960 . S
H404 C403 0.960 . S
H405 N385 0.862 . S
O406 Co374 1.920 . S
O406 C379 1.289 . S
C407 O399 1.258 . S
C407 O400 1.266 . S
C408 C409 1.363 . S
C408 C414 1.379 . S
C408 N416 1.356 1_554 S
C409 C408 1.363 . S
C409 C415 1.363 . S
C410 C411 1.363 . S
C410 C415 1.379 . S
C410 N417 1.356 . S
C411 C410 1.363 . S
C411 C414 1.363 . S
N412 C414 1.356 . S
N412 H424 0.984 1_554 S
N412 H425 0.985 . S
N413 C415 1.356 . S
N413 H418 0.984 . S
N413 H419 0.985 . S
C414 C408 1.379 . S
C414 C411 1.363 . S
C414 N412 1.356 . S
C415 C409 1.363 . S
C415 C410 1.379 . S
C415 N413 1.356 . S
N416 C408 1.356 1_556 S
N416 H422 0.984 . S
N416 H423 0.984 . S
N417 C410 1.356 . S
N417 H420 0.984 . S
N417 H421 0.985 . S
H418 N413 0.984 . S
H419 N413 0.985 . S
H420 N417 0.984 . S
H421 N417 0.985 . S
H422 N416 0.984 . S
H423 N416 0.984 . S
H424 N412 0.984 1_556 S
H425 N412 0.985 . S
C426 C427 1.363 . S
C426 C432 1.379 . S
C426 N434 1.356 . S
C427 C426 1.363 . S
C427 C433 1.363 . S
C428 C429 1.363 . S
C428 C433 1.379 . S
C428 N435 1.356 . S
C429 C428 1.363 . S
C429 C432 1.363 . S
N430 C432 1.356 . S
N430 H442 0.984 . S
N430 H443 0.985 . S
N431 C433 1.356 . S
N431 H436 0.984 . S
N431 H437 0.985 . S
C432 C426 1.379 . S
C432 C429 1.363 . S
C432 N430 1.356 . S
C433 C427 1.363 . S
C433 C428 1.379 . S
C433 N431 1.356 . S
N434 C426 1.356 . S
N434 H440 0.984 . S
N434 H441 0.984 . S
N435 C428 1.356 . S
N435 H438 0.984 . S
N435 H439 0.985 . S
H436 N431 0.984 . S
H437 N431 0.985 . S
H438 N435 0.984 . S
H439 N435 0.985 . S
H440 N434 0.984 . S
H441 N434 0.984 . S
H442 N430 0.984 . S
H443 N430 0.985 . S
C444 C445 1.363 . S
C444 C450 1.379 . S
C444 N452 1.356 . S
C445 C444 1.363 . S
C445 C451 1.363 . S
C446 C447 1.363 . S
C446 C451 1.379 . S
C446 N453 1.356 . S
C447 C446 1.363 . S
C447 C450 1.363 . S
N448 C450 1.356 . S
N448 H460 0.984 . S
N448 H461 0.985 . S
N449 C451 1.356 . S
N449 H454 0.984 . S
N449 H455 0.985 . S
C450 C444 1.379 . S
C450 C447 1.363 . S
C450 N448 1.356 . S
C451 C445 1.363 . S
C451 C446 1.379 . S
C451 N449 1.356 . S
N452 C444 1.356 . S
N452 H458 0.984 . S
N452 H459 0.984 . S
N453 C446 1.356 . S
N453 H456 0.984 . S
N453 H457 0.985 . S
H454 N449 0.984 . S
H455 N449 0.985 . S
H456 N453 0.984 . S
H457 N453 0.985 . S
H458 N452 0.984 . S
H459 N452 0.984 . S
H460 N448 0.984 . S
H461 N448 0.985 . S
C462 C463 1.363 . S
C462 C468 1.379 . S
C462 N470 1.356 . S
C463 C462 1.363 . S
C463 C469 1.363 . S
C464 C465 1.363 . S
C464 C469 1.379 . S
C464 N471 1.356 . S
C465 C464 1.363 . S
C465 C468 1.363 . S
N466 C468 1.356 . S
N466 H478 0.984 . S
N466 H479 0.985 . S
N467 C469 1.356 . S
N467 H472 0.984 . S
N467 H473 0.985 . S
C468 C462 1.379 . S
C468 C465 1.363 . S
C468 N466 1.356 . S
C469 C463 1.363 . S
C469 C464 1.379 . S
C469 N467 1.356 . S
N470 C462 1.356 . S
N470 H476 0.984 . S
N470 H477 0.984 . S
N471 C464 1.356 . S
N471 H474 0.984 . S
N471 H475 0.985 . S
H472 N467 0.984 . S
H473 N467 0.985 . S
H474 N471 0.984 . S
H475 N471 0.985 . S
H476 N470 0.984 . S
H477 N470 0.984 . S
H478 N466 0.984 . S
H479 N466 0.985 . S
C480 C481 1.363 . S
C480 C486 1.379 . S
C480 N488 1.356 . S
C481 C480 1.363 . S
C481 C487 1.363 . S
C482 C483 1.363 . S
C482 C487 1.379 . S
C482 N489 1.356 . S
C483 C482 1.363 . S
C483 C486 1.363 . S
N484 C486 1.356 . S
N484 H496 0.984 . S
N484 H497 0.985 . S
N485 C487 1.356 . S
N485 H490 0.984 . S
N485 H491 0.985 . S
C486 C480 1.379 . S
C486 C483 1.363 . S
C486 N484 1.356 . S
C487 C481 1.363 . S
C487 C482 1.379 . S
C487 N485 1.356 . S
N488 C480 1.356 . S
N488 H494 0.984 . S
N488 H495 0.984 . S
N489 C482 1.356 . S
N489 H492 0.984 . S
N489 H493 0.985 . S
H490 N485 0.984 . S
H491 N485 0.985 . S
H492 N489 0.984 . S
H493 N489 0.985 . S
H494 N488 0.984 . S
H495 N488 0.984 . S
H496 N484 0.984 . S
H497 N484 0.985 . S
C498 C499 1.363 . S
C498 C504 1.379 . S
C498 N506 1.356 . S
C499 C498 1.363 . S
C499 C505 1.363 . S
C500 C501 1.363 . S
C500 C505 1.379 . S
C500 N507 1.356 1_556 S
C501 C500 1.363 . S
C501 C504 1.363 . S
N502 C504 1.356 . S
N502 H514 0.984 . S
N502 H515 0.985 . S
N503 C505 1.356 1_554 S
N503 H508 0.984 . S
N503 H509 0.985 . S
C504 C498 1.379 . S
C504 C501 1.363 . S
C504 N502 1.356 . S
C505 C499 1.363 . S
C505 C500 1.379 . S
C505 N503 1.356 1_556 S
N506 C498 1.356 . S
N506 H512 0.984 . S
N506 H513 0.984 . S
N507 C500 1.356 1_554 S
N507 H510 0.984 . S
N507 H511 0.985 . S
H508 N503 0.984 . S
H509 N503 0.985 . S
H510 N507 0.984 . S
H511 N507 0.985 . S
H512 N506 0.984 . S
H513 N506 0.984 . S
H514 N502 0.984 . S
H515 N502 0.985 . S
C516 C517 1.363 . S
C516 C522 1.379 . S
C516 N524 1.356 . S
C517 C516 1.363 . S
C517 C523 1.363 . S
C518 C519 1.363 . S
C518 C523 1.379 . S
C518 N525 1.356 . S
C519 C518 1.363 . S
C519 C522 1.363 . S
N520 C522 1.356 . S
N520 H532 0.984 . S
N520 H533 0.985 . S
N521 C523 1.356 . S
N521 H526 0.984 . S
N521 H527 0.985 . S
C522 C516 1.379 . S
C522 C519 1.363 . S
C522 N520 1.356 . S
C523 C517 1.363 . S
C523 C518 1.379 . S
C523 N521 1.356 . S
N524 C516 1.356 . S
N524 H530 0.984 . S
N524 H531 0.984 . S
N525 C518 1.356 . S
N525 H528 0.984 . S
N525 H529 0.985 . S
H526 N521 0.984 . S
H527 N521 0.985 . S
H528 N525 0.984 . S
H529 N525 0.985 . S
H530 N524 0.984 . S
H531 N524 0.984 . S
H532 N520 0.984 . S
H533 N520 0.985 . S
C534 C535 1.363 . S
C534 C540 1.379 . S
C534 N542 1.356 . S
C535 C534 1.363 . S
C535 C541 1.363 . S
C536 C537 1.363 . S
C536 C541 1.379 . S
C536 N543 1.356 . S
C537 C536 1.363 . S
C537 C540 1.363 . S
N538 C540 1.356 . S
N538 H550 0.984 . S
N538 H551 0.985 . S
N539 C541 1.356 . S
N539 H544 0.984 . S
N539 H545 0.985 . S
C540 C534 1.379 . S
C540 C537 1.363 . S
C540 N538 1.356 . S
C541 C535 1.363 . S
C541 C536 1.379 . S
C541 N539 1.356 . S
N542 C534 1.356 . S
N542 H548 0.984 . S
N542 H549 0.984 . S
N543 C536 1.356 . S
N543 H546 0.984 . S
N543 H547 0.985 . S
H544 N539 0.984 . S
H545 N539 0.985 . S
H546 N543 0.984 . S
H547 N543 0.985 . S
H548 N542 0.984 . S
H549 N542 0.984 . S
H550 N538 0.984 . S
H551 N538 0.985 . S
C552 C553 1.363 . S
C552 C558 1.379 . S
C552 N560 1.356 . S
C553 C552 1.363 . S
C553 C559 1.363 . S
C554 C555 1.363 . S
C554 C559 1.379 . S
C554 N561 1.356 . S
C555 C554 1.363 . S
C555 C558 1.363 . S
N556 C558 1.356 . S
N556 H568 0.984 . S
N556 H569 0.985 1_556 S
N557 C559 1.356 . S
N557 H562 0.984 . S
N557 H563 0.985 . S
C558 C552 1.379 . S
C558 C555 1.363 . S
C558 N556 1.356 . S
C559 C553 1.363 . S
C559 C554 1.379 . S
C559 N557 1.356 . S
N560 C552 1.356 . S
N560 H566 0.984 . S
N560 H567 0.984 . S
N561 C554 1.356 . S
N561 H564 0.984 1_556 S
N561 H565 0.985 . S
H562 N557 0.984 . S
H563 N557 0.985 . S
H564 N561 0.984 1_554 S
H565 N561 0.985 . S
H566 N560 0.984 . S
H567 N560 0.984 . S
H568 N556 0.984 . S
H569 N556 0.985 1_554 S
C570 C571 1.363 . S
C570 C576 1.379 1_556 S
C570 N578 1.356 . S
C571 C570 1.363 . S
C571 C577 1.363 1_556 S
C572 C573 1.363 . S
C572 C577 1.379 . S
C572 N579 1.356 . S
C573 C572 1.363 . S
C573 C576 1.363 . S
N574 C576 1.356 . S
N574 H586 0.984 . S
N574 H587 0.985 . S
N575 C577 1.356 1_556 S
N575 H580 0.984 . S
N575 H581 0.985 1_556 S
C576 C570 1.379 1_554 S
C576 C573 1.363 . S
C576 N574 1.356 . S
C577 C571 1.363 1_554 S
C577 C572 1.379 . S
C577 N575 1.356 1_554 S
N578 C570 1.356 . S
N578 H584 0.984 . S
N578 H585 0.984 . S
N579 C572 1.356 . S
N579 H582 0.984 . S
N579 H583 0.985 . S
H580 N575 0.984 . S
H581 N575 0.985 1_554 S
H582 N579 0.984 . S
H583 N579 0.985 . S
H584 N578 0.984 . S
H585 N578 0.984 . S
H586 N574 0.984 . S
H587 N574 0.985 . S
C588 C589 1.363 . S
C588 C594 1.379 . S
C588 N596 1.356 . S
C589 C588 1.363 . S
C589 C595 1.363 . S
C590 C591 1.363 . S
C590 C595 1.379 . S
C590 N597 1.356 . S
C591 C590 1.363 . S
C591 C594 1.363 . S
N592 C594 1.356 . S
N592 H604 0.984 . S
N592 H605 0.985 . S
N593 C595 1.356 . S
N593 H598 0.984 . S
N593 H599 0.985 . S
C594 C588 1.379 . S
C594 C591 1.363 . S
C594 N592 1.356 . S
C595 C589 1.363 . S
C595 C590 1.379 . S
C595 N593 1.356 . S
N596 C588 1.356 . S
N596 H602 0.984 . S
N596 H603 0.984 . S
N597 C590 1.356 . S
N597 H600 0.984 . S
N597 H601 0.985 . S
H598 N593 0.984 . S
H599 N593 0.985 . S
H600 N597 0.984 . S
H601 N597 0.985 . S
H602 N596 0.984 . S
H603 N596 0.984 . S
H604 N592 0.984 . S
H605 N592 0.985 . S
C606 C607 1.363 . S
C606 C612 1.379 . S
C606 N614 1.356 . S
C607 C606 1.363 . S
C607 C613 1.363 . S
C608 C609 1.363 . S
C608 C613 1.379 . S
C608 N615 1.356 . S
C609 C608 1.363 . S
C609 C612 1.363 . S
N610 C612 1.356 . S
N610 H622 0.984 . S
N610 H623 0.985 . S
N611 C613 1.356 . S
N611 H616 0.984 . S
N611 H617 0.985 . S
C612 C606 1.379 . S
C612 C609 1.363 . S
C612 N610 1.356 . S
C613 C607 1.363 . S
C613 C608 1.379 . S
C613 N611 1.356 . S
N614 C606 1.356 . S
N614 H620 0.984 . S
N614 H621 0.984 . S
N615 C608 1.356 . S
N615 H618 0.984 . S
N615 H619 0.985 . S
H616 N611 0.984 . S
H617 N611 0.985 . S
H618 N615 0.984 . S
H619 N615 0.985 . S
H620 N614 0.984 . S
H621 N614 0.984 . S
H622 N610 0.984 . S
H623 N610 0.985 . S
C624 C625 1.363 . S
C624 C630 1.379 . S
C624 N632 1.356 . S
C625 C624 1.363 . S
C625 C631 1.363 . S
C626 C627 1.363 . S
C626 C631 1.379 . S
C626 N633 1.356 . S
C627 C626 1.363 . S
C627 C630 1.363 . S
N628 C630 1.356 . S
N628 H640 0.984 . S
N628 H641 0.985 . S
N629 C631 1.356 . S
N629 H634 0.984 . S
N629 H635 0.985 . S
C630 C624 1.379 . S
C630 C627 1.363 . S
C630 N628 1.356 . S
C631 C625 1.363 . S
C631 C626 1.379 . S
C631 N629 1.356 . S
N632 C624 1.356 . S
N632 H638 0.984 . S
N632 H639 0.984 . S
N633 C626 1.356 . S
N633 H636 0.984 . S
N633 H637 0.985 . S
H634 N629 0.984 . S
H635 N629 0.985 . S
H636 N633 0.984 . S
H637 N633 0.985 . S
H638 N632 0.984 . S
H639 N632 0.984 . S
H640 N628 0.984 . S
H641 N628 0.985 . S
C642 C643 1.363 . S
C642 C648 1.379 . S
C642 N650 1.356 . S
C643 C642 1.363 . S
C643 C649 1.363 . S
C644 C645 1.363 . S
C644 C649 1.379 . S
C644 N651 1.356 . S
C645 C644 1.363 . S
C645 C648 1.363 . S
N646 C648 1.356 . S
N646 H658 0.984 . S
N646 H659 0.985 . S
N647 C649 1.356 . S
N647 H652 0.984 . S
N647 H653 0.985 . S
C648 C642 1.379 . S
C648 C645 1.363 . S
C648 N646 1.356 . S
C649 C643 1.363 . S
C649 C644 1.379 . S
C649 N647 1.356 . S
N650 C642 1.356 . S
N650 H656 0.984 . S
N650 H657 0.984 . S
N651 C644 1.356 . S
N651 H654 0.984 . S
N651 H655 0.985 . S
H652 N647 0.984 . S
H653 N647 0.985 . S
H654 N651 0.984 . S
H655 N651 0.985 . S
H656 N650 0.984 . S
H657 N650 0.984 . S
H658 N646 0.984 . S
H659 N646 0.985 . S
C660 C661 1.363 . S
C660 C666 1.379 . S
C660 N668 1.356 . S
C661 C660 1.363 . S
C661 C667 1.363 . S
C662 C663 1.363 . S
C662 C667 1.379 . S
C662 N669 1.356 . S
C663 C662 1.363 . S
C663 C666 1.363 . S
N664 C666 1.356 . S
N664 H676 0.984 . S
N664 H677 0.985 . S
N665 C667 1.356 . S
N665 H670 0.984 . S
N665 H671 0.985 . S
C666 C660 1.379 . S
C666 C663 1.363 . S
C666 N664 1.356 . S
C667 C661 1.363 . S
C667 C662 1.379 . S
C667 N665 1.356 . S
N668 C660 1.356 . S
N668 H674 0.984 . S
N668 H675 0.984 . S
N669 C662 1.356 . S
N669 H672 0.984 . S
N669 H673 0.985 . S
H670 N665 0.984 . S
H671 N665 0.985 . S
H672 N669 0.984 . S
H673 N669 0.985 . S
H674 N668 0.984 . S
H675 N668 0.984 . S
H676 N664 0.984 . S
H677 N664 0.985 . S
C678 C679 1.363 . S
C678 C684 1.379 . S
C678 N686 1.356 . S
C679 C678 1.363 . S
C679 C685 1.363 . S
C680 C681 1.363 . S
C680 C685 1.379 . S
C680 N687 1.356 . S
C681 C680 1.363 . S
C681 C684 1.363 . S
N682 C684 1.356 . S
N682 H694 0.984 . S
N682 H695 0.985 . S
N683 C685 1.356 . S
N683 H688 0.984 . S
N683 H689 0.985 . S
C684 C678 1.379 . S
C684 C681 1.363 . S
C684 N682 1.356 . S
C685 C679 1.363 . S
C685 C680 1.379 . S
C685 N683 1.356 . S
N686 C678 1.356 . S
N686 H692 0.984 . S
N686 H693 0.984 . S
N687 C680 1.356 . S
N687 H690 0.984 . S
N687 H691 0.985 . S
H688 N683 0.984 . S
H689 N683 0.985 . S
H690 N687 0.984 . S
H691 N687 0.985 . S
H692 N686 0.984 . S
H693 N686 0.984 . S
H694 N682 0.984 . S
H695 N682 0.985 . S
C696 C697 1.363 . S
C696 C702 1.379 . S
C696 N704 1.356 . S
C697 C696 1.363 . S
C697 C703 1.363 . S
C698 C699 1.363 1_556 S
C698 C703 1.379 . S
C698 N705 1.356 1_556 S
C699 C698 1.363 1_554 S
C699 C702 1.363 1_554 S
N700 C702 1.356 1_554 S
N700 H712 0.984 . S
N700 H713 0.985 . S
N701 C703 1.356 . S
N701 H706 0.984 . S
N701 H707 0.985 . S
C702 C696 1.379 . S
C702 C699 1.363 1_556 S
C702 N700 1.356 1_556 S
C703 C697 1.363 . S
C703 C698 1.379 . S
C703 N701 1.356 . S
N704 C696 1.356 . S
N704 H710 0.984 . S
N704 H711 0.984 . S
N705 C698 1.356 1_554 S
N705 H708 0.984 . S
N705 H709 0.985 . S
H706 N701 0.984 . S
H707 N701 0.985 . S
H708 N705 0.984 . S
H709 N705 0.985 . S
H710 N704 0.984 . S
H711 N704 0.984 . S
H712 N700 0.984 . S
H713 N700 0.985 . S
C714 C715 1.363 . S
C714 C720 1.379 . S
C714 N722 1.356 . S
C715 C714 1.363 . S
C715 C721 1.363 . S
C716 C717 1.363 . S
C716 C721 1.379 . S
C716 N723 1.356 1_554 S
C717 C716 1.363 . S
C717 C720 1.363 . S
N718 C720 1.356 . S
N718 H730 0.984 . S
N718 H731 0.985 1_554 S
N719 C721 1.356 . S
N719 H724 0.984 . S
N719 H725 0.985 . S
C720 C714 1.379 . S
C720 C717 1.363 . S
C720 N718 1.356 . S
C721 C715 1.363 . S
C721 C716 1.379 . S
C721 N719 1.356 . S
N722 C714 1.356 . S
N722 H728 0.984 . S
N722 H729 0.984 . S
N723 C716 1.356 1_556 S
N723 H726 0.984 . S
N723 H727 0.985 1_556 S
H724 N719 0.984 . S
H725 N719 0.985 . S
H726 N723 0.984 . S
H727 N723 0.985 1_554 S
H728 N722 0.984 . S
H729 N722 0.984 . S
H730 N718 0.984 . S
H731 N718 0.985 1_556 S
C732 C733 1.363 . S
C732 C738 1.379 . S
C732 N740 1.356 . S
C733 C732 1.363 . S
C733 C739 1.363 . S
C734 C735 1.363 . S
C734 C739 1.379 . S
C734 N741 1.356 . S
C735 C734 1.363 . S
C735 C738 1.363 . S
N736 C738 1.356 . S
N736 H748 0.984 . S
N736 H749 0.985 . S
N737 C739 1.356 . S
N737 H742 0.984 . S
N737 H743 0.985 . S
C738 C732 1.379 . S
C738 C735 1.363 . S
C738 N736 1.356 . S
C739 C733 1.363 . S
C739 C734 1.379 . S
C739 N737 1.356 . S
N740 C732 1.356 . S
N740 H746 0.984 . S
N740 H747 0.984 . S
N741 C734 1.356 . S
N741 H744 0.984 . S
N741 H745 0.985 . S
H742 N737 0.984 . S
H743 N737 0.985 . S
H744 N741 0.984 . S
H745 N741 0.985 . S
H746 N740 0.984 . S
H747 N740 0.984 . S
H748 N736 0.984 . S
H749 N736 0.985 . S
C750 C751 1.363 . S
C750 C756 1.379 . S
C750 N758 1.356 . S
C751 C750 1.363 . S
C751 C757 1.363 . S
C752 C753 1.363 . S
C752 C757 1.379 . S
C752 N759 1.356 . S
C753 C752 1.363 . S
C753 C756 1.363 . S
N754 C756 1.356 . S
N754 H766 0.984 . S
N754 H767 0.985 . S
N755 C757 1.356 . S
N755 H760 0.984 . S
N755 H761 0.985 . S
C756 C750 1.379 . S
C756 C753 1.363 . S
C756 N754 1.356 . S
C757 C751 1.363 . S
C757 C752 1.379 . S
C757 N755 1.356 . S
N758 C750 1.356 . S
N758 H764 0.984 . S
N758 H765 0.984 . S
N759 C752 1.356 . S
N759 H762 0.984 . S
N759 H763 0.985 . S
H760 N755 0.984 . S
H761 N755 0.985 . S
H762 N759 0.984 . S
H763 N759 0.985 . S
H764 N758 0.984 . S
H765 N758 0.984 . S
H766 N754 0.984 . S
H767 N754 0.985 . S
C768 C769 1.363 . S
C768 C774 1.379 . S
C768 N776 1.356 . S
C769 C768 1.363 . S
C769 C775 1.363 . S
C770 C771 1.363 . S
C770 C775 1.379 . S
C770 N777 1.356 . S
C771 C770 1.363 . S
C771 C774 1.363 . S
N772 C774 1.356 . S
N772 H784 0.984 . S
N772 H785 0.985 . S
N773 C775 1.356 . S
N773 H778 0.984 . S
N773 H779 0.985 . S
C774 C768 1.379 . S
C774 C771 1.363 . S
C774 N772 1.356 . S
C775 C769 1.363 . S
C775 C770 1.379 . S
C775 N773 1.356 . S
N776 C768 1.356 . S
N776 H782 0.984 . S
N776 H783 0.984 . S
N777 C770 1.356 . S
N777 H780 0.984 . S
N777 H781 0.985 . S
H778 N773 0.984 . S
H779 N773 0.985 . S
H780 N777 0.984 . S
H781 N777 0.985 . S
H782 N776 0.984 . S
H783 N776 0.984 . S
H784 N772 0.984 . S
H785 N772 0.985 . S
C786 C787 1.363 . S
C786 C792 1.379 . S
C786 N794 1.356 . S
C787 C786 1.363 . S
C787 C793 1.363 . S
C788 C789 1.363 . S
C788 C793 1.379 . S
C788 N795 1.356 . S
C789 C788 1.363 . S
C789 C792 1.363 . S
N790 C792 1.356 . S
N790 H802 0.984 . S
N790 H803 0.985 . S
N791 C793 1.356 . S
N791 H796 0.984 . S
N791 H797 0.985 . S
C792 C786 1.379 . S
C792 C789 1.363 . S
C792 N790 1.356 . S
C793 C787 1.363 . S
C793 C788 1.379 . S
C793 N791 1.356 . S
N794 C786 1.356 . S
N794 H800 0.984 . S
N794 H801 0.984 . S
N795 C788 1.356 . S
N795 H798 0.984 . S
N795 H799 0.985 . S
H796 N791 0.984 . S
H797 N791 0.985 . S
H798 N795 0.984 . S
H799 N795 0.985 . S
H800 N794 0.984 . S
H801 N794 0.984 . S
H802 N790 0.984 . S
H803 N790 0.985 . S
C804 C805 1.363 . S
C804 C810 1.379 . S
C804 N812 1.356 . S
C805 C804 1.363 . S
C805 C811 1.363 . S
C806 C807 1.363 . S
C806 C811 1.379 . S
C806 N813 1.356 . S
C807 C806 1.363 . S
C807 C810 1.363 . S
N808 C810 1.356 . S
N808 H820 0.984 . S
N808 H821 0.985 . S
N809 C811 1.356 . S
N809 H814 0.984 1_556 S
N809 H815 0.985 . S
C810 C804 1.379 . S
C810 C807 1.363 . S
C810 N808 1.356 . S
C811 C805 1.363 . S
C811 C806 1.379 . S
C811 N809 1.356 . S
N812 C804 1.356 . S
N812 H818 0.984 . S
N812 H819 0.984 1_556 S
N813 C806 1.356 . S
N813 H816 0.984 . S
N813 H817 0.985 . S
H814 N809 0.984 1_554 S
H815 N809 0.985 . S
H816 N813 0.984 . S
H817 N813 0.985 . S
H818 N812 0.984 . S
H819 N812 0.984 1_554 S
H820 N808 0.984 . S
H821 N808 0.985 . S
C822 C823 1.363 . S
C822 C828 1.379 1_554 S
C822 N830 1.356 . S
C823 C822 1.363 . S
C823 C829 1.363 . S
C824 C825 1.363 . S
C824 C829 1.379 . S
C824 N831 1.356 . S
C825 C824 1.363 . S
C825 C828 1.363 1_554 S
N826 C828 1.356 . S
N826 H838 0.984 . S
N826 H839 0.985 . S
N827 C829 1.356 . S
N827 H832 0.984 . S
N827 H833 0.985 . S
C828 C822 1.379 1_556 S
C828 C825 1.363 1_556 S
C828 N826 1.356 . S
C829 C823 1.363 . S
C829 C824 1.379 . S
C829 N827 1.356 . S
N830 C822 1.356 . S
N830 H836 0.988 . S
N830 H837 0.984 . S
N831 C824 1.356 . S
N831 H834 0.984 . S
N831 H835 0.985 . S
H832 N827 0.984 . S
H833 N827 0.985 . S
H834 N831 0.984 . S
H835 N831 0.985 . S
H836 N830 0.988 . S
H837 N830 0.984 . S
H838 N826 0.984 . S
H839 N826 0.985 . S
C840 C841 1.363 . S
C840 C846 1.379 1_545 S
C840 N848 1.356 . S
C841 C840 1.363 . S
C841 C847 1.363 1_554 S
C842 C843 1.363 . S
C842 C847 1.379 1_565 S
C842 N849 1.356 . S
C843 C842 1.363 . S
C843 C846 1.363 1_556 S
N844 C846 1.356 . S
N844 H856 0.984 . S
N844 H857 0.985 1_554 S
N845 C847 1.356 . S
N845 H850 0.984 1_556 S
N845 H851 0.985 . S
C846 C840 1.379 1_565 S
C846 C843 1.363 1_554 S
C846 N844 1.356 . S
C847 C841 1.363 1_556 S
C847 C842 1.379 1_545 S
C847 N845 1.356 . S
N848 C840 1.356 . S
N848 H854 0.997 . S
N848 H855 0.984 . S
N849 C842 1.356 . S
N849 H852 0.984 . S
N849 H853 0.997 . S
H850 N845 0.984 1_554 S
H851 N845 0.985 . S
H852 N849 0.984 . S
H853 N849 0.997 . S
H854 N848 0.997 . S
H855 N848 0.984 . S
H856 N844 0.984 . S
H857 N844 0.985 1_556 S
C858 C859 1.363 . S
C858 C864 1.379 . S
C858 N866 1.356 . S
C859 C858 1.363 . S
C859 C865 1.363 . S
C860 C861 1.363 . S
C860 C865 1.379 . S
C860 N867 1.356 . S
C861 C860 1.363 . S
C861 C864 1.363 . S
N862 C864 1.356 . S
N862 H874 0.984 . S
N862 H875 0.985 . S
N863 C865 1.356 . S
N863 H868 0.984 . S
N863 H869 0.985 . S
C864 C858 1.379 . S
C864 C861 1.363 . S
C864 N862 1.356 . S
C865 C859 1.363 . S
C865 C860 1.379 . S
C865 N863 1.356 . S
N866 C858 1.356 . S
N866 H872 0.984 . S
N866 H873 0.984 . S
N867 C860 1.356 . S
N867 H870 0.984 . S
N867 H871 0.985 . S
H868 N863 0.984 . S
H869 N863 0.985 . S
H870 N867 0.984 . S
H871 N867 0.985 . S
H872 N866 0.984 . S
H873 N866 0.984 . S
H874 N862 0.984 . S
H875 N862 0.985 . S
C876 C877 1.363 . S
C876 C882 1.379 1_455 S
C876 N884 1.356 . S
C877 C876 1.363 . S
C877 C883 1.363 . S
C878 C879 1.363 . S
C878 C883 1.379 1_655 S
C878 N885 1.356 . S
C879 C878 1.363 . S
C879 C882 1.363 . S
N880 C882 1.356 . S
N880 H892 0.984 . S
N880 H893 0.985 . S
N881 C883 1.356 . S
N881 H886 0.984 . S
N881 H887 0.985 . S
C882 C876 1.379 1_655 S
C882 C879 1.363 . S
C882 N880 1.356 . S
C883 C877 1.363 . S
C883 C878 1.379 1_455 S
C883 N881 1.356 . S
N884 C876 1.356 . S
N884 H890 0.984 . S
N884 H891 0.984 . S
N885 C878 1.356 . S
N885 H888 0.984 . S
N885 H889 0.985 . S
H886 N881 0.984 . S
H887 N881 0.985 . S
H888 N885 0.984 . S
H889 N885 0.985 . S
H890 N884 0.984 . S
H891 N884 0.984 . S
H892 N880 0.984 . S
H893 N880 0.985 . S
C894 C895 1.363 . S
C894 C900 1.379 1_565 S
C894 N902 1.356 . S
C895 C894 1.363 . S
C895 C901 1.363 . S
C896 C897 1.363 . S
C896 C901 1.379 1_545 S
C896 N903 1.356 . S
C897 C896 1.363 . S
C897 C900 1.363 . S
N898 C900 1.356 . S
N898 H910 0.984 . S
N898 H911 0.985 . S
N899 C901 1.356 . S
N899 H904 0.984 . S
N899 H905 0.985 . S
C900 C894 1.379 1_545 S
C900 C897 1.363 . S
C900 N898 1.356 . S
C901 C895 1.363 . S
C901 C896 1.379 1_565 S
C901 N899 1.356 . S
N902 C894 1.356 . S
N902 H908 0.984 . S
N902 H909 0.984 . S
N903 C896 1.356 . S
N903 H906 0.984 . S
N903 H907 0.985 . S
H904 N899 0.984 . S
H905 N899 0.985 . S
H906 N903 0.984 . S
H907 N903 0.985 . S
H908 N902 0.984 . S
H909 N902 0.984 . S
H910 N898 0.984 . S
H911 N898 0.985 . S
C912 C913 1.363 . S
C912 C918 1.379 . S
C912 N920 1.356 . S
C913 C912 1.363 . S
C913 C919 1.363 . S
C914 C915 1.363 . S
C914 C919 1.379 . S
C914 N921 1.356 . S
C915 C914 1.363 . S
C915 C918 1.363 . S
N916 C918 1.356 . S
N916 H928 0.984 . S
N916 H929 0.985 . S
N917 C919 1.356 . S
N917 H922 0.984 . S
N917 H923 0.985 . S
C918 C912 1.379 . S
C918 C915 1.363 . S
C918 N916 1.356 . S
C919 C913 1.363 . S
C919 C914 1.379 . S
C919 N917 1.356 . S
N920 C912 1.356 . S
N920 H926 0.984 . S
N920 H927 0.984 . S
N921 C914 1.356 . S
N921 H924 0.984 . S
N921 H925 0.985 . S
H922 N917 0.984 . S
H923 N917 0.985 . S
H924 N921 0.984 . S
H925 N921 0.985 . S
H926 N920 0.984 . S
H927 N920 0.984 . S
H928 N916 0.984 . S
H929 N916 0.985 . S
C930 C931 1.363 . S
C930 C936 1.379 1_455 S
C930 N938 1.356 . S
C931 C930 1.363 . S
C931 C937 1.363 . S
C932 C933 1.363 . S
C932 C937 1.379 1_655 S
C932 N939 1.356 . S
C933 C932 1.363 . S
C933 C936 1.363 . S
N934 C936 1.356 . S
N934 H946 0.984 . S
N934 H947 0.985 . S
N935 C937 1.356 . S
N935 H940 0.984 . S
N935 H941 0.985 . S
C936 C930 1.379 1_655 S
C936 C933 1.363 . S
C936 N934 1.356 . S
C937 C931 1.363 . S
C937 C932 1.379 1_455 S
C937 N935 1.356 . S
N938 C930 1.356 . S
N938 H944 0.984 . S
N938 H945 0.984 . S
N939 C932 1.356 . S
N939 H942 0.984 . S
N939 H943 0.985 . S
H940 N935 0.984 . S
H941 N935 0.985 . S
H942 N939 0.984 . S
H943 N939 0.985 . S
H944 N938 0.984 . S
H945 N938 0.984 . S
H946 N934 0.984 . S
H947 N934 0.985 . S
C409 C292 1.521 . S
C411 C20 1.521 . S
C427 C326 1.521 . S
C429 C54 1.521 . S
C445 C360 1.521 . S
C447 C88 1.521 . S
C463 C394 1.521 . S
C465 C122 1.521 . S
C481 C156 1.521 . S
C483 C224 1.521 . S
C499 C258 1.521 . S
C501 C190 1.521 . S
C517 C9 1.420 . S
C519 C5 1.403 . S
C535 C39 1.403 . S
C537 C43 1.420 . S
C553 C73 1.403 . S
C555 C77 1.420 1_556 S
C571 C107 1.403 . S
C573 C111 1.420 . S
C589 C141 1.403 . S
C591 C145 1.420 . S
C607 C175 1.403 . S
C609 C179 1.420 . S
C625 C213 1.420 . S
C627 C209 1.403 . S
C643 C243 1.403 . S
C645 C247 1.420 . S
C661 C281 1.420 . S
C663 C277 1.403 . S
C679 C315 1.420 . S
C681 C311 1.403 . S
C697 C349 1.420 . S
C699 C345 1.403 . S
C715 C379 1.403 . S
C717 C383 1.420 1_554 S
C733 C33 1.647 . S
C735 C373 1.647 . S
C751 C67 1.647 . S
C753 C407 1.647 . S
C769 C101 1.647 . S
C771 C237 1.647 . S
C787 C271 1.647 . S
C789 C135 1.647 . S
C805 C305 1.647 1_556 S
C807 C169 1.647 . S
C823 C339 1.647 . S
C825 C203 1.647 1_554 S
C841 C2 1.628 . S
C843 C240 1.628 . S
C859 C274 1.628 . S
C861 C36 1.628 . S
C877 C308 1.628 . S
C879 C70 1.628 . S
C895 C104 1.628 . S
C897 C342 1.628 . S
C913 C376 1.628 . S
C915 C138 1.628 . S
C931 C172 1.628 . S
C933 C206 1.628 . S
