# Generated by pormake.
# Topology pts-e, (5)-cn, num edge types: 1
# Building blocks:
#     Node 0, Type 0, BuildingBlock: XOMCOT_clean_sbu_0, # of connection points: 5
#     Node 1, Type 0, BuildingBlock: XOMCOT_clean_sbu_0, # of connection points: 5
#     Node 2, Type 0, BuildingBlock: XOMCOT_clean_sbu_0, # of connection points: 5
#     Node 3, Type 0, BuildingBlock: XOMCOT_clean_sbu_0, # of connection points: 5
#     Node 4, Type 0, BuildingBlock: XOMCOT_clean_sbu_0, # of connection points: 5
#     Node 5, Type 0, BuildingBlock: XOMCOT_clean_sbu_0, # of connection points: 5
#     Node 6, Type 0, BuildingBlock: XOMCOT_clean_sbu_0, # of connection points: 5
#     Node 7, Type 0, BuildingBlock: XOMCOT_clean_sbu_0, # of connection points: 5
#     Edge 8, Type (0, 0), BuildingBlock: EZIPEK_clean_linker_0, # of connection points: 2
#     Edge 9, Type (0, 0), BuildingBlock: EZIPEK_clean_linker_0, # of connection points: 2
#     Edge 10, Type (0, 0), BuildingBlock: EZIPEK_clean_linker_0, # of connection points: 2
#     Edge 11, Type (0, 0), BuildingBlock: EZIPEK_clean_linker_0, # of connection points: 2
#     Edge 12, Type (0, 0), BuildingBlock: EZIPEK_clean_linker_0, # of connection points: 2
#     Edge 13, Type (0, 0), BuildingBlock: EZIPEK_clean_linker_0, # of connection points: 2
#     Edge 14, Type (0, 0), BuildingBlock: EZIPEK_clean_linker_0, # of connection points: 2
#     Edge 15, Type (0, 0), BuildingBlock: EZIPEK_clean_linker_0, # of connection points: 2
#     Edge 16, Type (0, 0), BuildingBlock: EZIPEK_clean_linker_0, # of connection points: 2
#     Edge 17, Type (0, 0), BuildingBlock: EZIPEK_clean_linker_0, # of connection points: 2
#     Edge 18, Type (0, 0), BuildingBlock: EZIPEK_clean_linker_0, # of connection points: 2
#     Edge 19, Type (0, 0), BuildingBlock: EZIPEK_clean_linker_0, # of connection points: 2
#     Edge 20, Type (0, 0), BuildingBlock: EZIPEK_clean_linker_0, # of connection points: 2
#     Edge 21, Type (0, 0), BuildingBlock: EZIPEK_clean_linker_0, # of connection points: 2
#     Edge 22, Type (0, 0), BuildingBlock: EZIPEK_clean_linker_0, # of connection points: 2
#     Edge 23, Type (0, 0), BuildingBlock: EZIPEK_clean_linker_0, # of connection points: 2
#     Edge 24, Type (0, 0), BuildingBlock: EZIPEK_clean_linker_0, # of connection points: 2
#     Edge 25, Type (0, 0), BuildingBlock: EZIPEK_clean_linker_0, # of connection points: 2
#     Edge 26, Type (0, 0), BuildingBlock: EZIPEK_clean_linker_0, # of connection points: 2
#     Edge 27, Type (0, 0), BuildingBlock: EZIPEK_clean_linker_0, # of connection points: 2
# Relax obj value: 0.557
# Max RMSD: 0.259
# Mean RMSD: 0.259
data_MOF--net-pts-e--node1-XOMCOT_clean_sbu_0--edge1-EZIPEK_clean_linker_0
_symmetry_space_group_name_H-M    P1
_symmetry_Int_Tables_number       1
_symmetry_cell_setting            triclinic
loop_
_symmetry_equiv_pos_as_xyz
'x, y, z'
_cell_length_a     26.464623
_cell_length_b     26.463571
_cell_length_c     35.651517
_cell_angle_alpha  89.866155
_cell_angle_beta   90.035023
_cell_angle_gamma 90.063993
loop_
_atom_site_label
_atom_site_type_symbol
_atom_site_fract_x
_atom_site_fract_y
_atom_site_fract_z
_atom_type_partial_charge
Co0 Co 0.2694 0.99319 0.14705 0.0
C1 C 0.37895 0.984 0.13729 0.0
C2 C 0.35046 0.91593 0.16173 0.0
C3 C 0.4028 0.91383 0.16145 0.0
N4 N 0.33568 0.96117 0.14805 0.0
N5 N 0.42011 0.95733 0.14652 0.0
H6 H 0.38116 0.02042 0.12368 0.0
H7 H 0.3255 0.88682 0.17184 0.0
C8 C 0.24514 0.91932 0.21211 0.0
O9 O 0.28457 0.93608 0.23075 0.0
N10 N 0.20511 0.02699 0.14488 0.0
C11 C 0.19773 0.07733 0.14787 0.0
C12 C 0.14715 0.08731 0.14366 0.0
C13 C 0.15925 0.00693 0.13854 0.0
N14 N 0.1234 0.04299 0.1381 0.0
C15 C 0.32443 0.06851 0.18863 0.0
C16 C 0.24828 0.08299 0.24001 0.0
C17 C 0.28323 0.1216 0.23349 0.0
C18 C 0.32462 0.11207 0.21053 0.0
C19 C 0.25058 0.0392 0.21872 0.0
N20 N 0.28599 0.03393 0.19112 0.0
H21 H 0.3514 0.06732 0.16642 0.0
H22 H 0.21898 0.01397 0.2205 0.0
H23 H 0.22729 0.10485 0.15219 0.0
H24 H 0.1521 0.96696 0.13484 0.0
O25 O 0.29299 0.0398 0.10849 0.0
O26 O 0.25737 0.96577 0.09706 0.0
O27 O 0.23636 0.93618 0.17876 0.0
C28 C 0.2769 0.00744 0.08391 0.0
H29 H 0.4262 0.884 0.17286 0.0
H30 H 0.12896 0.12387 0.14528 0.0
H31 H 0.21592 0.08904 0.25809 0.0
H32 H 0.35274 0.1411 0.20548 0.0
Co33 Co 0.03132 0.25883 0.63575 0.0
C34 C 0.02706 0.36502 0.65941 0.0
C35 C 0.10172 0.34515 0.64161 0.0
C36 C 0.09913 0.39711 0.64542 0.0
N37 N 0.05616 0.32509 0.64999 0.0
N38 N 0.05195 0.40907 0.65637 0.0
H39 H 0.98723 0.36332 0.66521 0.0
H40 H 0.13329 0.32409 0.63045 0.0
C41 C 0.09928 0.2359 0.70424 0.0
O42 O 0.09281 0.2818 0.7173 0.0
N43 N 0.00478 0.19398 0.62107 0.0
C44 C 0.95938 0.18523 0.60502 0.0
C45 C 0.95219 0.13387 0.60223 0.0
C46 C 0.02492 0.14809 0.6274 0.0
N47 N 0.99347 0.11106 0.61628 0.0
C48 C 0.93098 0.28706 0.65482 0.0
C49 C 0.9229 0.22809 0.71831 0.0
C50 C 0.87918 0.24604 0.70078 0.0
C51 C 0.88356 0.2784 0.67019 0.0
C52 C 0.97002 0.23877 0.70245 0.0
N53 N 0.9735 0.26509 0.66957 0.0
H54 H 0.9326 0.3093 0.62953 0.0
H55 H 0.00272 0.22333 0.71567 0.0
H56 H 0.93271 0.21409 0.59677 0.0
H57 H 0.06112 0.1415 0.64062 0.0
O58 O 0.0006 0.28864 0.59172 0.0
O59 O 0.07749 0.2566 0.59289 0.0
O60 O 0.07697 0.2225 0.67391 0.0
C61 C 0.04105 0.27688 0.57345 0.0
H62 H 0.12827 0.42413 0.63814 0.0
H63 H 0.91896 0.11468 0.5917 0.0
H64 H 0.92045 0.20361 0.74265 0.0
H65 H 0.85027 0.29341 0.65642 0.0
Co66 Co 0.76302 0.03872 0.14155 0.0
C67 C 0.65237 0.03701 0.13612 0.0
C68 C 0.67559 0.10688 0.16078 0.0
C69 C 0.62332 0.1042 0.16154 0.0
N70 N 0.69388 0.06361 0.14601 0.0
N71 N 0.60936 0.05975 0.14637 0.0
H72 H 0.65291 0.00046 0.12269 0.0
H73 H 0.698 0.138 0.171 0.0
C74 C 0.78565 0.11693 0.20338 0.0
O75 O 0.75254 0.0944 0.22522 0.0
N76 N 0.83022 0.01211 0.13604 0.0
C77 C 0.8432 0.96291 0.13885 0.0
C78 C 0.89471 0.95893 0.13589 0.0
C79 C 0.8737 0.03748 0.13104 0.0
N80 N 0.91338 0.00574 0.13105 0.0
C81 C 0.71935 0.96157 0.18826 0.0
C82 C 0.80079 0.95634 0.23638 0.0
C83 C 0.76627 0.9164 0.23503 0.0
C84 C 0.7231 0.92091 0.21295 0.0
C85 C 0.79477 0.99713 0.21218 0.0
N86 N 0.75584 0.99821 0.18695 0.0
H87 H 0.69019 0.95958 0.16756 0.0
H88 H 0.82504 0.02441 0.21054 0.0
H89 H 0.81697 0.93223 0.14366 0.0
H90 H 0.87659 0.07804 0.12867 0.0
O91 O 0.74065 0.9889 0.10524 0.0
O92 O 0.76682 0.06621 0.0911 0.0
O93 O 0.7926 0.09931 0.17023 0.0
C94 C 0.75068 0.02237 0.07956 0.0
H95 H 0.59776 0.13158 0.17364 0.0
H96 H 0.917 0.92483 0.13855 0.0
H97 H 0.83463 0.9538 0.25342 0.0
H98 H 0.69586 0.89038 0.21147 0.0
Co99 Co 0.99257 0.75531 0.65362 0.0
C100 C 0.98649 0.64452 0.6472 0.0
C101 C 0.9179 0.67308 0.67056 0.0
C102 C 0.91664 0.62086 0.67215 0.0
N103 N 0.96291 0.68796 0.65653 0.0
N104 N 0.96018 0.60353 0.65765 0.0
H105 H 0.02298 0.64221 0.63378 0.0
H106 H 0.88808 0.69799 0.67928 0.0
C107 C 0.91687 0.7805 0.71688 0.0
O108 O 0.93496 0.74328 0.73731 0.0
N109 N 0.02313 0.8212 0.64983 0.0
C110 C 0.07249 0.83271 0.6545 0.0
C111 C 0.07885 0.88376 0.64905 0.0
C112 C 0.00013 0.865 0.64136 0.0
N113 N 0.03331 0.90354 0.64105 0.0
C114 C 0.06899 0.70524 0.6972 0.0
C115 C 0.07968 0.78305 0.74771 0.0
C116 C 0.11913 0.74864 0.74294 0.0
C117 C 0.11163 0.70666 0.72015 0.0
C118 C 0.03688 0.77916 0.72534 0.0
N119 N 0.0333 0.74265 0.69844 0.0
H120 H 0.06907 0.67764 0.67539 0.0
H121 H 0.01079 0.81002 0.72606 0.0
H122 H 0.10187 0.8057 0.66086 0.0
H123 H 0.96008 0.86873 0.63583 0.0
O124 O 0.04076 0.73151 0.6165 0.0
O125 O 0.96558 0.76328 0.60305 0.0
O126 O 0.93389 0.7877 0.68344 0.0
C127 C 0.00828 0.74485 0.59105 0.0
H128 H 0.88689 0.59757 0.68384 0.0
H129 H 0.11383 0.90484 0.65097 0.0
H130 H 0.0842 0.81585 0.76557 0.0
H131 H 0.14141 0.67909 0.71632 0.0
Co132 Co 0.26185 0.03724 0.86027 0.0
C133 C 0.37033 0.04178 0.84266 0.0
C134 C 0.33933 0.11625 0.84656 0.0
C135 C 0.39114 0.12017 0.84157 0.0
N136 N 0.32639 0.06688 0.84686 0.0
N137 N 0.40996 0.07302 0.83923 0.0
H138 H 0.37473 0.00154 0.8443 0.0
H139 H 0.31338 0.14704 0.85155 0.0
C140 C 0.2344 0.10285 0.79155 0.0
O141 O 0.27794 0.09207 0.77583 0.0
N142 N 0.1986 0.00621 0.87415 0.0
C143 C 0.19304 0.95902 0.88805 0.0
C144 C 0.14239 0.94883 0.89202 0.0
C145 C 0.15144 0.02444 0.87019 0.0
N146 N 0.11675 0.98999 0.88077 0.0
C147 C 0.2987 0.94134 0.83668 0.0
C148 C 0.23072 0.92913 0.77901 0.0
C149 C 0.25497 0.88682 0.79413 0.0
C150 C 0.29231 0.89364 0.82108 0.0
C151 C 0.23977 0.97663 0.79441 0.0
N152 N 0.27106 0.98209 0.82457 0.0
H153 H 0.3222 0.94345 0.86126 0.0
H154 H 0.21779 0.00736 0.78411 0.0
H155 H 0.22369 0.93348 0.89443 0.0
H156 H 0.14243 0.06171 0.85964 0.0
O157 O 0.29271 0.00478 0.90315 0.0
O158 O 0.258 0.08044 0.9044 0.0
O159 O 0.2234 0.08372 0.82365 0.0
C160 C 0.27889 0.04335 0.92286 0.0
H161 H 0.41343 0.15448 0.84176 0.0
H162 H 0.12556 0.91399 0.90196 0.0
H163 H 0.20214 0.92497 0.75745 0.0
H164 H 0.31204 0.86153 0.83297 0.0
Co165 Co 0.99699 0.26752 0.35232 0.0
C166 C 0.99886 0.37855 0.34858 0.0
C167 C 0.93056 0.35163 0.32366 0.0
C168 C 0.93229 0.40372 0.3199 0.0
N169 N 0.9735 0.33564 0.3405 0.0
N170 N 0.97572 0.41992 0.3354 0.0
H171 H 0.03334 0.38053 0.36459 0.0
H172 H 0.89987 0.32771 0.31465 0.0
C173 C 0.93411 0.24297 0.28259 0.0
O174 O 0.95851 0.27858 0.26429 0.0
N175 N 0.02221 0.20136 0.36518 0.0
C176 C 0.07061 0.19156 0.37468 0.0
C177 C 0.07601 0.1406 0.38024 0.0
C178 C 0.99843 0.15636 0.36547 0.0
N179 N 0.03072 0.11885 0.37456 0.0
C180 C 0.08695 0.30471 0.31723 0.0
C181 C 0.10095 0.22056 0.27309 0.0
C182 C 0.14131 0.25353 0.2795 0.0
C183 C 0.13335 0.29757 0.29979 0.0
C184 C 0.0547 0.22971 0.2904 0.0
N185 N 0.04851 0.27048 0.31342 0.0
H186 H 0.08533 0.33425 0.33747 0.0
H187 H 0.02637 0.20042 0.28925 0.0
H188 H 0.10011 0.21966 0.3769 0.0
H189 H 0.95881 0.151 0.35903 0.0
O190 O 0.03707 0.29389 0.39326 0.0
O191 O 0.95784 0.26819 0.39847 0.0
O192 O 0.94455 0.23474 0.31729 0.0
C193 C 0.99884 0.28433 0.41491 0.0
H194 H 0.90429 0.42767 0.3067 0.0
H195 H 0.1103 0.12085 0.38795 0.0
H196 H 0.10646 0.18574 0.25768 0.0
H197 H 0.16432 0.32323 0.30555 0.0
Co198 Co 0.75502 0.99504 0.85532 0.0
C199 C 0.64731 0.00364 0.84028 0.0
C200 C 0.66598 0.92644 0.8522 0.0
C201 C 0.61401 0.9305 0.84889 0.0
N202 N 0.68677 0.97227 0.84585 0.0
N203 N 0.60283 0.97924 0.84166 0.0
H204 H 0.6505 0.04421 0.83771 0.0
H205 H 0.68687 0.89304 0.86032 0.0
C206 C 0.77177 0.91287 0.79418 0.0
O207 O 0.72339 0.90818 0.7869 0.0
N208 N 0.82238 0.02004 0.86579 0.0
C209 C 0.83456 0.06529 0.88085 0.0
C210 C 0.88599 0.06821 0.88495 0.0
C211 C 0.86671 0.99545 0.86195 0.0
N212 N 0.90587 0.02433 0.87319 0.0
C213 C 0.73957 0.09618 0.83019 0.0
C214 C 0.74182 0.07799 0.75436 0.0
C215 C 0.73902 0.12879 0.76644 0.0
C216 C 0.73681 0.13667 0.80544 0.0
C217 C 0.74433 0.0385 0.78032 0.0
N218 N 0.7463 0.04799 0.81779 0.0
H219 H 0.73666 0.10425 0.85966 0.0
H220 H 0.74495 0.00061 0.76987 0.0
H221 H 0.80822 0.09378 0.88987 0.0
H222 H 0.87045 0.95704 0.85201 0.0
O223 O 0.73035 0.03138 0.89852 0.0
O224 O 0.75871 0.95298 0.89997 0.0
O225 O 0.78736 0.94559 0.81806 0.0
C226 C 0.74199 0.99199 0.91841 0.0
H227 H 0.58652 0.90087 0.85365 0.0
H228 H 0.90718 0.09929 0.89689 0.0
H229 H 0.74444 0.06758 0.72524 0.0
H230 H 0.73548 0.17367 0.81789 0.0
Co231 Co 0.04184 0.76137 0.36753 0.0
C232 C 0.04064 0.65327 0.34876 0.0
C233 C 0.11669 0.68063 0.35199 0.0
C234 C 0.11788 0.62902 0.3455 0.0
N235 N 0.06803 0.69574 0.35361 0.0
N236 N 0.06979 0.61255 0.34347 0.0
H237 H 0.00029 0.65068 0.35093 0.0
H238 H 0.14891 0.70502 0.3566 0.0
C239 C 0.10862 0.78679 0.29921 0.0
O240 O 0.09277 0.74556 0.28244 0.0
N241 N 0.01384 0.8256 0.38192 0.0
C242 C 0.96626 0.83281 0.39449 0.0
C243 C 0.95773 0.88372 0.3981 0.0
C244 C 0.03402 0.87204 0.37854 0.0
N245 N 0.00027 0.90786 0.38794 0.0
C246 C 0.94494 0.7304 0.34097 0.0
C247 C 0.93906 0.80034 0.28389 0.0
C248 C 0.89509 0.77681 0.29668 0.0
C249 C 0.89853 0.73907 0.32374 0.0
C250 C 0.9849 0.78968 0.30123 0.0
N251 N 0.9875 0.75659 0.3306 0.0
H252 H 0.94463 0.70646 0.3654 0.0
H253 H 0.01642 0.81224 0.2932 0.0
H254 H 0.93903 0.80314 0.39966 0.0
H255 H 0.072 0.87975 0.36893 0.0
O256 O 0.00637 0.73123 0.40949 0.0
O257 O 0.08389 0.7615 0.41245 0.0
O258 O 0.09169 0.79776 0.332 0.0
C259 C 0.04512 0.74239 0.43006 0.0
H260 H 0.15106 0.60525 0.34393 0.0
H261 H 0.92284 0.90178 0.40646 0.0
H262 H 0.93732 0.82985 0.26279 0.0
H263 H 0.86488 0.72046 0.33422 0.0
C264 C 0.23965 0.04808 0.02606 0.0
C265 C 0.27863 0.01904 0.04292 0.0
C266 C 0.3233 0.0183 0.98258 0.0
C267 C 0.28058 0.04041 0.96467 0.0
N268 N 0.19244 0.06489 0.9697 0.0
N269 N 0.35488 0.97046 0.03576 0.0
C270 C 0.2373 0.05263 0.98644 0.0
C271 C 0.31975 0.00237 0.02073 0.0
N272 N 0.20469 0.07186 0.04774 0.0
N273 N 0.3678 0.01383 0.96346 0.0
H274 H 0.35315 0.95785 0.06345 0.0
H275 H 0.38293 0.95302 0.01992 0.0
H276 H 0.37226 0.02668 0.936 0.0
H277 H 0.40147 0.00243 0.97602 0.0
H278 H 0.17902 0.09817 0.0372 0.0
H279 H 0.20459 0.06876 0.07665 0.0
H280 H 0.15874 0.06837 0.98459 0.0
H281 H 0.18692 0.06613 0.94087 0.0
C282 C 0.00346 0.23793 0.47647 0.0
C283 C 0.00597 0.28439 0.45645 0.0
C284 C 0.04065 0.3257 0.51293 0.0
C285 C 0.04017 0.27857 0.53181 0.0
N286 N 0.03616 0.18802 0.5278 0.0
N287 N 0.0277 0.3728 0.45503 0.0
C288 C 0.02607 0.23422 0.51245 0.0
C289 C 0.02511 0.3284 0.47455 0.0
N290 N 0.97855 0.19723 0.46187 0.0
N291 N 0.0563 0.36763 0.53195 0.0
H292 H 0.01165 0.37703 0.42855 0.0
H293 H 0.04572 0.40524 0.4646 0.0
H294 H 0.0726 0.36516 0.55856 0.0
H295 H 0.05309 0.40442 0.52193 0.0
H296 H 0.96961 0.16539 0.47781 0.0
H297 H 0.96227 0.19654 0.43539 0.0
H298 H 0.03237 0.15443 0.5129 0.0
H299 H 0.0545 0.18371 0.55345 0.0
C300 C 0.70696 0.0339 0.0173 0.0
C301 C 0.74537 0.01056 0.03895 0.0
C302 C 0.78219 0.97504 0.98171 0.0
C303 C 0.74123 0.9945 0.96024 0.0
N304 N 0.65799 0.03195 0.95994 0.0
N305 N 0.81106 0.94735 0.04249 0.0
C306 C 0.70161 0.02091 0.97874 0.0
C307 C 0.77994 0.97713 0.02144 0.0
N308 N 0.67568 0.0687 0.03337 0.0
N309 N 0.82521 0.9581 0.96467 0.0
H310 H 0.8105 0.94735 0.07155 0.0
H311 H 0.83325 0.91874 0.03108 0.0
H312 H 0.83124 0.95931 0.93589 0.0
H313 H 0.85777 0.94853 0.97951 0.0
H314 H 0.65068 0.09099 0.01798 0.0
H315 H 0.67721 0.07789 0.06176 0.0
H316 H 0.62599 0.04666 0.97294 0.0
H317 H 0.65178 0.0213 0.93222 0.0
C318 C 0.01621 0.69869 0.48943 0.0
C319 C 0.04109 0.74027 0.4719 0.0
C320 C 0.05252 0.779 0.53375 0.0
C321 C 0.02085 0.74184 0.5503 0.0
N322 N 0.96831 0.66813 0.54302 0.0
N323 N 0.07103 0.82666 0.47789 0.0
C324 C 0.00132 0.70221 0.52784 0.0
C325 C 0.05639 0.78214 0.49414 0.0
N326 N 0.0083 0.65513 0.46978 0.0
N327 N 0.07949 0.81138 0.5557 0.0
H328 H 0.07164 0.83293 0.44912 0.0
H329 H 0.07692 0.85965 0.49321 0.0
H330 H 0.07835 0.80987 0.58472 0.0
H331 H 0.10696 0.8358 0.54512 0.0
H332 H 0.99479 0.62195 0.48193 0.0
H333 H 0.02019 0.65058 0.44214 0.0
H334 H 0.94865 0.6416 0.52714 0.0
H335 H 0.95769 0.66881 0.57117 0.0
C336 C 0.20798 0.24 0.23181 0.0
C337 C 0.1929 0.23742 0.26966 0.0
C338 C 0.26383 0.18169 0.28389 0.0
C339 C 0.26938 0.17333 0.24512 0.0
N340 N 0.25338 0.19986 0.18121 0.0
N341 N 0.20889 0.21097 0.3335 0.0
C342 C 0.24477 0.2054 0.21874 0.0
C343 C 0.22254 0.21105 0.29655 0.0
N344 N 0.18609 0.27474 0.20853 0.0
N345 N 0.29675 0.15912 0.30816 0.0
H346 H 0.17969 0.23321 0.34393 0.0
H347 H 0.2252 0.18758 0.35363 0.0
H348 H 0.32671 0.13702 0.29849 0.0
H349 H 0.29722 0.16586 0.33692 0.0
H350 H 0.19797 0.28155 0.18116 0.0
H351 H 0.15878 0.30012 0.21802 0.0
H352 H 0.23119 0.21646 0.16048 0.0
H353 H 0.28236 0.17768 0.17051 0.0
C354 C 0.76269 0.1629 0.70269 0.0
C355 C 0.74703 0.17256 0.73968 0.0
C356 C 0.80202 0.24631 0.74174 0.0
C357 C 0.82915 0.22575 0.7111 0.0
N358 N 0.83176 0.16735 0.65874 0.0
N359 N 0.72248 0.24482 0.77564 0.0
C360 C 0.80783 0.18562 0.68979 0.0
C361 C 0.75743 0.22133 0.75377 0.0
N362 N 0.73242 0.13537 0.67955 0.0
N363 N 0.81956 0.2881 0.75994 0.0
H364 H 0.68789 0.22746 0.7816 0.0
H365 H 0.7258 0.28222 0.78437 0.0
H366 H 0.8514 0.30802 0.75092 0.0
H367 H 0.80371 0.30134 0.78479 0.0
H368 H 0.73982 0.13052 0.65107 0.0
H369 H 0.69733 0.12208 0.68876 0.0
H370 H 0.81988 0.1348 0.64487 0.0
H371 H 0.86513 0.18281 0.6483 0.0
C372 C 0.78455 0.86574 0.29173 0.0
C373 C 0.78059 0.86778 0.2523 0.0
C374 C 0.83129 0.79103 0.24722 0.0
C375 C 0.84589 0.79753 0.28492 0.0
N376 N 0.83539 0.83958 0.3446 0.0
N377 N 0.79862 0.83131 0.19148 0.0
C378 C 0.8211 0.83344 0.30806 0.0
C379 C 0.80213 0.82918 0.2297 0.0
N380 N 0.75453 0.89611 0.31313 0.0
N381 N 0.84705 0.74925 0.22812 0.0
H382 H 0.77708 0.85802 0.17722 0.0
H383 H 0.81929 0.80807 0.17366 0.0
H384 H 0.86891 0.72122 0.24088 0.0
H385 H 0.83447 0.74009 0.20129 0.0
H386 H 0.75274 0.8938 0.34227 0.0
H387 H 0.72774 0.92022 0.30116 0.0
H388 H 0.82337 0.86955 0.36123 0.0
H389 H 0.86134 0.81613 0.35796 0.0
C390 C 0.20436 0.80926 0.80993 0.0
C391 C 0.23625 0.83586 0.78452 0.0
C392 C 0.20505 0.78572 0.73227 0.0
C393 C 0.16968 0.7628 0.7571 0.0
N394 N 0.14894 0.73719 0.81965 0.0
N395 N 0.28069 0.83705 0.7259 0.0
C396 C 0.17477 0.76876 0.79617 0.0
C397 C 0.24159 0.81928 0.74717 0.0
N398 N 0.19876 0.8253 0.84609 0.0
N399 N 0.20109 0.77913 0.69439 0.0
H400 H 0.3076 0.86201 0.73669 0.0
H401 H 0.28917 0.82341 0.69926 0.0
H402 H 0.17645 0.75343 0.68208 0.0
H403 H 0.22104 0.8007 0.67492 0.0
H404 H 0.17119 0.81125 0.86415 0.0
H405 H 0.21965 0.85469 0.85764 0.0
H406 H 0.15368 0.73702 0.84866 0.0
H407 H 0.12654 0.70779 0.80933 0.0
C408 C 0.88594 0.86881 0.73564 0.0
C409 C 0.87795 0.81548 0.73409 0.0
C410 C 0.80358 0.82626 0.77538 0.0
C411 C 0.80898 0.87968 0.77391 0.0
N412 N 0.85153 0.95208 0.74729 0.0
N413 N 0.82225 0.74526 0.74715 0.0
C414 C 0.8491 0.90096 0.75257 0.0
C415 C 0.83476 0.79483 0.75247 0.0
N416 N 0.9301 0.88916 0.72295 0.0
N417 N 0.77028 0.80509 0.80018 0.0
H418 H 0.84337 0.72093 0.73052 0.0
H419 H 0.78825 0.72954 0.75616 0.0
H420 H 0.7478 0.82639 0.8182 0.0
H421 H 0.76867 0.76645 0.8057 0.0
H422 H 0.94116 0.92611 0.72869 0.0
H423 H 0.95773 0.86834 0.70953 0.0
H424 H 0.87551 0.96926 0.7279 0.0
H425 H 0.8269 0.97734 0.75996 0.0
C426 C 0.22641 0.83611 0.24611 0.0
C427 C 0.20897 0.88344 0.23188 0.0
C428 C 0.12972 0.87127 0.26767 0.0
C429 C 0.14469 0.82167 0.27855 0.0
N430 N 0.20671 0.75516 0.27508 0.0
N431 N 0.13819 0.94014 0.22365 0.0
C432 C 0.1928 0.80361 0.26666 0.0
C433 C 0.15889 0.89902 0.2409 0.0
N434 N 0.27552 0.82221 0.2405 0.0
N435 N 0.08834 0.89324 0.28358 0.0
H436 H 0.15763 0.96221 0.20453 0.0
H437 H 0.09998 0.9493 0.22537 0.0
H438 H 0.06608 0.8755 0.30352 0.0
H439 H 0.07937 0.93131 0.28024 0.0
H440 H 0.29261 0.79191 0.25418 0.0
H441 H 0.30039 0.8427 0.22375 0.0
H442 H 0.23773 0.73722 0.26308 0.0
H443 H 0.18577 0.73169 0.29271 0.0
C444 C 0.11605 0.15238 0.73885 0.0
C445 C 0.13391 0.19974 0.72496 0.0
C446 C 0.21443 0.18583 0.75885 0.0
C447 C 0.19778 0.13738 0.77117 0.0
N448 N 0.13248 0.07349 0.77115 0.0
N449 N 0.20444 0.25585 0.71531 0.0
C450 C 0.14835 0.12067 0.76097 0.0
C451 C 0.18428 0.21486 0.73334 0.0
N452 N 0.06742 0.13788 0.73194 0.0
N453 N 0.25833 0.20536 0.77295 0.0
H454 H 0.18439 0.27705 0.6956 0.0
H455 H 0.24247 0.26575 0.7168 0.0
H456 H 0.28082 0.18609 0.79226 0.0
H457 H 0.2699 0.24253 0.7686 0.0
H458 H 0.04874 0.10968 0.74691 0.0
H459 H 0.04502 0.1546 0.71158 0.0
H460 H 0.10167 0.05515 0.75914 0.0
H461 H 0.15078 0.05163 0.79108 0.0
C462 C 0.86752 0.1697 0.20374 0.0
C463 C 0.81977 0.15789 0.2198 0.0
C464 C 0.84438 0.20733 0.27608 0.0
C465 C 0.89465 0.21219 0.26205 0.0
N466 N 0.95557 0.18825 0.21479 0.0
N467 N 0.75648 0.18671 0.26309 0.0
C468 C 0.90649 0.19079 0.22649 0.0
C469 C 0.80647 0.18231 0.25401 0.0
N470 N 0.87444 0.16623 0.16591 0.0
N471 N 0.83253 0.22641 0.31056 0.0
H472 H 0.72771 0.17571 0.24484 0.0
H473 H 0.74299 0.20735 0.28576 0.0
H474 H 0.85694 0.24883 0.32623 0.0
H475 H 0.79929 0.21778 0.3248 0.0
H476 H 0.90753 0.17769 0.15252 0.0
H477 H 0.8446 0.16088 0.14731 0.0
H478 H 0.96671 0.16752 0.19137 0.0
H479 H 0.98577 0.20193 0.23047 0.0
C480 C 0.04069 0.03978 0.16901 0.0
C481 C 0.06998 0.03531 0.13597 0.0
C482 C 0.99428 0.01753 0.09891 0.0
C483 C 0.96561 0.01918 0.13228 0.0
N484 N 0.95912 0.02873 0.19905 0.0
N485 N 0.07739 0.01972 0.06988 0.0
C486 C 0.98809 0.03006 0.16733 0.0
C487 C 0.04747 0.02416 0.10091 0.0
N488 N 0.06358 0.05319 0.20189 0.0
N489 N 0.96998 0.01005 0.06554 0.0
H490 H 0.11622 0.02611 0.07069 0.0
H491 H 0.06463 0.00831 0.04365 0.0
H492 H 0.93094 0.00492 0.06386 0.0
H493 H 0.98749 0.01116 0.03946 0.0
H494 H 0.04404 0.06398 0.22584 0.0
H495 H 0.10268 0.05572 0.20488 0.0
H496 H 0.97344 0.0314 0.22612 0.0
H497 H 0.92024 0.02245 0.19846 0.0
C498 C -0.00017 0.03864 0.65909 0.0
C499 C 0.00059 0.058 0.62213 0.0
C500 C 0.01803 0.97377 0.5974 0.0
C501 C 0.02211 0.95566 0.63459 0.0
N502 N 0.02504 0.97117 0.70094 0.0
N503 N 0.01569 0.04677 0.55632 0.0
C504 C 0.01537 0.98823 0.66553 0.0
C505 C 0.01079 0.02623 0.59123 0.0
N506 N 0.98223 0.06801 0.68767 0.0
N507 N 0.02099 0.94061 0.56819 0.0
H508 H 0.00982 0.08502 0.55104 0.0
H509 H 0.02916 0.0267 0.53339 0.0
H510 H 0.02827 0.90225 0.5721 0.0
H511 H 0.01313 0.95036 0.54049 0.0
H512 H 0.97608 0.05443 0.71473 0.0
H513 H 0.96928 0.1048 0.68338 0.0
H514 H 0.02688 0.99502 0.72407 0.0
H515 H 0.03486 0.9338 0.70669 0.0
C516 C 0.98618 0.00412 0.84158 0.0
C517 C 0.95825 0.01068 0.87507 0.0
C518 C 0.03553 0.00389 0.91236 0.0
C519 C 0.063 0.9953 0.87903 0.0
N520 N 0.06473 0.97658 0.8132 0.0
N521 N 0.95347 0.00678 0.94236 0.0
C522 C 0.03831 0.99215 0.84394 0.0
C523 C 0.98216 0.00752 0.91055 0.0
N524 N 0.96338 0.01191 0.80769 0.0
N525 N 0.06083 0.01018 0.94542 0.0
H526 H 0.91416 0.00871 0.94165 0.0
H527 H 0.96806 -0.00019 0.96899 0.0
H528 H 0.10003 0.00722 0.94741 0.0
H529 H 0.04356 0.02181 0.97017 0.0
H530 H 0.98299 0.01282 0.78241 0.0
H531 H 0.92534 0.02149 0.80509 0.0
H532 H 0.0478 0.96826 0.78759 0.0
H533 H 0.10312 0.96773 0.81433 0.0
C534 C 0.01824 0.98981 0.41688 0.0
C535 C 0.00656 0.9613 0.38461 0.0
C536 C 0.01126 0.03691 0.34542 0.0
C537 C 0.01999 0.06599 0.37801 0.0
N538 N 0.02557 0.07275 0.44503 0.0
N539 N 0.98388 0.95671 0.31946 0.0
C540 C 0.02171 0.0431 0.4139 0.0
C541 C 0.00064 0.98461 0.34917 0.0
N542 N 0.02743 0.96543 0.44998 0.0
N543 N 0.01565 0.05892 0.31092 0.0
H544 H 0.97634 0.9181 0.32156 0.0
H545 H 0.974 0.97231 0.29364 0.0
H546 H 0.02389 0.09716 0.30731 0.0
H547 H 0.01532 0.03845 0.28607 0.0
H548 H 0.04173 0.98327 0.4737 0.0
H549 H 0.0241 0.92634 0.45286 0.0
H550 H 0.02165 0.05917 0.47225 0.0
H551 H 0.02904 0.11189 0.44346 0.0
C552 C 0.49178 0.99466 0.18147 0.0
C553 C 0.47038 0.97824 0.14711 0.0
C554 C 0.53704 0.02272 0.11252 0.0
C555 C 0.56066 0.03537 0.14689 0.0
N556 N 0.5672 0.02279 0.21367 0.0
N557 N 0.47574 0.96983 0.08032 0.0
C558 C 0.53994 0.01834 0.18132 0.0
C559 C 0.49417 0.99023 0.11268 0.0
N560 N 0.46504 0.99004 0.21404 0.0
N561 N 0.55513 0.04297 0.07994 0.0
H562 H 0.44504 0.94504 0.08029 0.0
H563 H 0.49323 0.97372 0.05433 0.0
H564 H 0.58569 0.06789 0.07955 0.0
H565 H 0.53752 0.03871 0.05402 0.0
H566 H 0.47659 0.00634 0.23921 0.0
H567 H 0.42914 0.97396 0.21528 0.0
H568 H 0.55611 0.0063 0.23893 0.0
H569 H 0.60322 0.03871 0.21451 0.0
C570 C 0.97124 0.52038 0.62816 0.0
C571 C 0.97995 0.55296 0.65881 0.0
C572 C 0.03523 0.48987 0.68832 0.0
C573 C 0.02882 0.45837 0.6567 0.0
N574 N 0.99383 0.44319 0.59549 0.0
N575 N 0.02206 0.57219 0.71678 0.0
C576 C 0.99739 0.47346 0.62634 0.0
C577 C 0.01242 0.53855 0.68864 0.0
N578 N 0.93775 0.5348 0.60099 0.0
N579 N 0.06192 0.4722 0.71841 0.0
H580 H 0.00388 0.60705 0.71861 0.0
H581 H 0.04946 0.56684 0.73733 0.0
H582 H 0.07932 0.43683 0.71845 0.0
H583 H 0.06447 0.49085 0.744 0.0
H584 H 0.92612 0.51188 0.57896 0.0
H585 H 0.91922 0.56958 0.60165 0.0
H586 H 0.9752 0.45305 0.57086 0.0
H587 H 0.01199 0.40844 0.59381 0.0
C588 C 0.4852 0.04577 0.87429 0.0
C589 C 0.46176 0.05657 0.8395 0.0
C590 C 0.53282 0.01795 0.80607 0.0
C591 C 0.55396 0.00313 0.84091 0.0
N592 N 0.54923 0.99841 0.90815 0.0
N593 N 0.45992 0.05103 0.77245 0.0
C594 C 0.52985 0.01591 0.87508 0.0
C595 C 0.48493 0.04242 0.80536 0.0
N596 N 0.46453 0.06457 0.90644 0.0
N597 N 0.55897 0.00863 0.77381 0.0
H598 H 0.42566 0.07049 0.77143 0.0
H599 H 0.47168 0.03722 0.74659 0.0
H600 H 0.59294 0.98865 0.77361 0.0
H601 H 0.54852 0.02261 0.74762 0.0
H602 H 0.48145 0.06197 0.93272 0.0
H603 H 0.43182 0.08651 0.90633 0.0
H604 H 0.53137 0.00225 0.93397 0.0
H605 H 0.58192 0.97662 0.90949 0.0
C606 C 0.00239 0.49421 0.3716 0.0
C607 C 0.99682 0.47003 0.33649 0.0
C608 C 0.04264 0.53932 0.30583 0.0
C609 C 0.05099 0.56163 0.3413 0.0
N610 N 0.0472 0.55703 0.40839 0.0
N611 N 0.01891 0.46411 0.2712 0.0
C612 C 0.03334 0.53791 0.37439 0.0
C613 C 0.01887 0.49115 0.30376 0.0
N614 N 0.97692 0.47571 0.40197 0.0
N615 N 0.05633 0.56502 0.27418 0.0
H616 H 0.00197 0.42865 0.26892 0.0
H617 H 0.03882 0.47503 0.24733 0.0
H618 H 0.07506 0.59972 0.27519 0.0
H619 H 0.04653 0.55354 0.24722 0.0
H620 H 0.97586 0.49364 0.42791 0.0
H621 H 0.95318 0.44428 0.40015 0.0
H622 H 0.03911 0.53955 0.43388 0.0
H623 H 0.07098 0.58833 0.41077 0.0
loop_
_geom_bond_atom_site_label_1
_geom_bond_atom_site_label_2
_geom_bond_distance
_geom_bond_site_symmetry_2
_ccdc_geom_bond_type
Co0 N4 2.147 1_545 S
Co0 N10 2.130 . S
Co0 N20 2.202 . S
Co0 O25 2.356 . S
Co0 O26 2.151 1_545 S
Co0 O27 2.087 1_545 S
C1 N4 1.301 1_545 S
C1 N5 1.328 . S
C1 H6 0.930 . S
C2 C3 1.333 . S
C2 N4 1.317 . S
C2 H7 0.930 . S
C3 C2 1.333 . S
C3 N5 1.350 1_565 S
C3 H29 0.931 . S
N4 Co0 2.147 1_565 S
N4 C1 1.301 1_565 S
N4 C2 1.317 . S
N5 C1 1.328 . S
N5 C3 1.350 1_545 S
H6 C1 0.930 . S
H7 C2 0.930 . S
C8 O9 1.224 . S
C8 O27 1.247 . S
O9 C8 1.224 . S
N10 Co0 2.130 . S
N10 C11 1.355 . S
N10 C13 1.311 1_545 S
C11 N10 1.355 . S
C11 C12 1.363 . S
C11 H23 0.929 . S
C12 C11 1.363 . S
C12 N14 1.375 . S
C12 H30 0.931 . S
C13 N10 1.311 1_565 S
C13 N14 1.347 1_565 S
C13 H24 0.929 . S
N14 C12 1.375 . S
N14 C13 1.347 1_545 S
C15 C18 1.365 . S
C15 N20 1.328 . S
C15 H21 0.929 . S
C16 C17 1.362 . S
C16 C19 1.378 . S
C16 H31 0.929 . S
C17 C16 1.362 . S
C17 C18 1.366 . S
C18 C15 1.365 . S
C18 C17 1.366 . S
C18 H32 0.930 . S
C19 C16 1.378 . S
C19 N20 1.315 . S
C19 H22 0.930 . S
N20 Co0 2.202 . S
N20 C15 1.328 . S
N20 C19 1.315 . S
H21 C15 0.929 . S
H22 C19 0.930 . S
H23 C11 0.929 . S
H24 C13 0.929 . S
O25 Co0 2.356 . S
O25 C28 1.244 . S
O26 Co0 2.151 1_565 S
O26 C28 1.240 1_565 S
O27 Co0 2.087 1_565 S
O27 C8 1.247 . S
C28 O25 1.244 . S
C28 O26 1.240 1_545 S
H29 C3 0.931 . S
H30 C12 0.931 . S
H31 C16 0.929 . S
H32 C18 0.930 . S
Co33 N37 2.148 . S
Co33 N43 2.128 . S
Co33 N53 2.194 1_455 S
Co33 O58 2.351 1_455 S
Co33 O59 2.155 . S
Co33 O60 2.096 . S
C34 N37 1.301 . S
C34 N38 1.328 . S
C34 H39 0.930 1_455 S
C35 C36 1.333 . S
C35 N37 1.317 . S
C35 H40 0.930 . S
C36 C35 1.333 . S
C36 N38 1.350 . S
C36 H62 0.931 . S
N37 Co33 2.148 . S
N37 C34 1.301 . S
N37 C35 1.317 . S
N38 C34 1.328 . S
N38 C36 1.350 . S
H39 C34 0.930 1_655 S
H40 C35 0.930 . S
C41 O42 1.224 . S
C41 O60 1.247 . S
O42 C41 1.224 . S
N43 Co33 2.128 . S
N43 C44 1.355 1_455 S
N43 C46 1.311 . S
C44 N43 1.355 1_655 S
C44 C45 1.363 . S
C44 H56 0.929 . S
C45 C44 1.363 . S
C45 N47 1.375 1_655 S
C45 H63 0.931 . S
C46 N43 1.311 . S
C46 N47 1.347 . S
C46 H57 0.929 . S
N47 C45 1.375 1_455 S
N47 C46 1.347 . S
C48 C51 1.365 . S
C48 N53 1.328 . S
C48 H54 0.929 . S
C49 C50 1.362 . S
C49 C52 1.378 . S
C49 H64 0.929 . S
C50 C49 1.362 . S
C50 C51 1.366 . S
C51 C48 1.365 . S
C51 C50 1.366 . S
C51 H65 0.930 . S
C52 C49 1.378 . S
C52 N53 1.315 . S
C52 H55 0.930 . S
N53 Co33 2.194 1_655 S
N53 C48 1.328 . S
N53 C52 1.315 . S
H54 C48 0.929 . S
H55 C52 0.930 . S
H56 C44 0.929 . S
H57 C46 0.929 . S
O58 Co33 2.351 1_655 S
O58 C61 1.244 1_655 S
O59 Co33 2.155 . S
O59 C61 1.240 . S
O60 Co33 2.096 . S
O60 C41 1.247 . S
C61 O58 1.244 1_455 S
C61 O59 1.240 . S
H62 C36 0.931 . S
H63 C45 0.931 . S
H64 C49 0.929 . S
H65 C51 0.930 . S
Co66 N70 2.148 . S
Co66 N76 2.128 . S
Co66 N86 2.194 1_545 S
Co66 O91 2.351 1_545 S
Co66 O92 2.155 . S
Co66 O93 2.096 . S
C67 N70 1.301 . S
C67 N71 1.328 . S
C67 H72 0.930 1_545 S
C68 C69 1.333 . S
C68 N70 1.317 . S
C68 H73 0.930 . S
C69 C68 1.333 . S
C69 N71 1.350 . S
C69 H95 0.931 . S
N70 Co66 2.148 . S
N70 C67 1.301 . S
N70 C68 1.317 . S
N71 C67 1.328 . S
N71 C69 1.350 . S
H72 C67 0.930 1_565 S
H73 C68 0.930 . S
C74 O75 1.224 . S
C74 O93 1.247 . S
O75 C74 1.224 . S
N76 Co66 2.128 . S
N76 C77 1.355 1_545 S
N76 C79 1.311 . S
C77 N76 1.355 1_565 S
C77 C78 1.363 . S
C77 H89 0.929 . S
C78 C77 1.363 . S
C78 N80 1.375 1_565 S
C78 H96 0.931 . S
C79 N76 1.311 . S
C79 N80 1.347 . S
C79 H90 0.929 . S
N80 C78 1.375 1_545 S
N80 C79 1.347 . S
C81 C84 1.365 . S
C81 N86 1.328 . S
C81 H87 0.929 . S
C82 C83 1.362 . S
C82 C85 1.378 . S
C82 H97 0.929 . S
C83 C82 1.362 . S
C83 C84 1.366 . S
C84 C81 1.365 . S
C84 C83 1.366 . S
C84 H98 0.930 . S
C85 C82 1.378 . S
C85 N86 1.315 . S
C85 H88 0.930 . S
N86 Co66 2.194 1_565 S
N86 C81 1.328 . S
N86 C85 1.315 . S
H87 C81 0.929 . S
H88 C85 0.930 . S
H89 C77 0.929 . S
H90 C79 0.929 . S
O91 Co66 2.351 1_565 S
O91 C94 1.244 1_565 S
O92 Co66 2.155 . S
O92 C94 1.240 . S
O93 Co66 2.096 . S
O93 C74 1.247 . S
C94 O91 1.244 1_545 S
C94 O92 1.240 . S
H95 C69 0.931 . S
H96 C78 0.931 . S
H97 C82 0.929 . S
H98 C84 0.930 . S
Co99 N103 2.147 1_455 S
Co99 N109 2.130 . S
Co99 N119 2.201 . S
Co99 O124 2.356 . S
Co99 O125 2.152 1_455 S
Co99 O126 2.087 1_455 S
C100 N103 1.301 1_455 S
C100 N104 1.328 . S
C100 H105 0.930 . S
C101 C102 1.333 . S
C101 N103 1.317 . S
C101 H106 0.930 . S
C102 C101 1.333 . S
C102 N104 1.350 1_655 S
C102 H128 0.931 . S
N103 Co99 2.147 1_655 S
N103 C100 1.301 1_655 S
N103 C101 1.317 . S
N104 C100 1.328 . S
N104 C102 1.350 1_455 S
H105 C100 0.930 . S
H106 C101 0.930 . S
C107 O108 1.224 . S
C107 O126 1.247 . S
O108 C107 1.224 . S
N109 Co99 2.130 . S
N109 C110 1.355 . S
N109 C112 1.311 1_455 S
C110 N109 1.355 . S
C110 C111 1.363 . S
C110 H122 0.929 . S
C111 C110 1.363 . S
C111 N113 1.375 . S
C111 H129 0.931 . S
C112 N109 1.311 1_655 S
C112 N113 1.347 1_655 S
C112 H123 0.929 . S
N113 C111 1.375 . S
N113 C112 1.347 1_455 S
C114 C117 1.365 . S
C114 N119 1.328 . S
C114 H120 0.929 . S
C115 C116 1.362 . S
C115 C118 1.378 . S
C115 H130 0.929 . S
C116 C115 1.362 . S
C116 C117 1.366 . S
C117 C114 1.365 . S
C117 C116 1.366 . S
C117 H131 0.930 . S
C118 C115 1.378 . S
C118 N119 1.315 . S
C118 H121 0.930 . S
N119 Co99 2.201 . S
N119 C114 1.328 . S
N119 C118 1.315 . S
H120 C114 0.929 . S
H121 C118 0.930 . S
H122 C110 0.929 . S
H123 C112 0.929 . S
O124 Co99 2.356 . S
O124 C127 1.244 . S
O125 Co99 2.152 1_655 S
O125 C127 1.240 1_655 S
O126 Co99 2.087 1_655 S
O126 C107 1.247 . S
C127 O124 1.244 . S
C127 O125 1.240 1_455 S
H128 C102 0.931 . S
H129 C111 0.931 . S
H130 C115 0.929 . S
H131 C117 0.930 . S
Co132 N136 2.148 . S
Co132 N142 2.128 . S
Co132 N152 2.194 1_545 S
Co132 O157 2.351 1_545 S
Co132 O158 2.155 . S
Co132 O159 2.096 . S
C133 N136 1.301 . S
C133 N137 1.328 . S
C133 H138 0.930 1_545 S
C134 C135 1.333 . S
C134 N136 1.317 . S
C134 H139 0.930 . S
C135 C134 1.333 . S
C135 N137 1.350 . S
C135 H161 0.931 . S
N136 Co132 2.148 . S
N136 C133 1.301 . S
N136 C134 1.317 . S
N137 C133 1.328 . S
N137 C135 1.350 . S
H138 C133 0.930 1_565 S
H139 C134 0.930 . S
C140 O141 1.224 . S
C140 O159 1.247 . S
O141 C140 1.224 . S
N142 Co132 2.128 . S
N142 C143 1.355 1_545 S
N142 C145 1.311 . S
C143 N142 1.355 1_565 S
C143 C144 1.363 . S
C143 H155 0.929 . S
C144 C143 1.363 . S
C144 N146 1.375 1_565 S
C144 H162 0.931 . S
C145 N142 1.311 . S
C145 N146 1.347 . S
C145 H156 0.929 . S
N146 C144 1.375 1_545 S
N146 C145 1.347 . S
C147 C150 1.365 . S
C147 N152 1.328 . S
C147 H153 0.929 . S
C148 C149 1.362 . S
C148 C151 1.378 . S
C148 H163 0.929 . S
C149 C148 1.362 . S
C149 C150 1.366 . S
C150 C147 1.365 . S
C150 C149 1.366 . S
C150 H164 0.930 . S
C151 C148 1.378 . S
C151 N152 1.315 . S
C151 H154 0.930 . S
N152 Co132 2.194 1_565 S
N152 C147 1.328 . S
N152 C151 1.315 . S
H153 C147 0.929 . S
H154 C151 0.930 . S
H155 C143 0.929 . S
H156 C145 0.929 . S
O157 Co132 2.351 1_565 S
O157 C160 1.244 1_565 S
O158 Co132 2.155 . S
O158 C160 1.240 . S
O159 Co132 2.096 . S
O159 C140 1.247 . S
C160 O157 1.244 1_545 S
C160 O158 1.240 . S
H161 C135 0.931 . S
H162 C144 0.931 . S
H163 C148 0.929 . S
H164 C150 0.930 . S
Co165 N169 2.147 1_455 S
Co165 N175 2.130 . S
Co165 N185 2.202 . S
Co165 O190 2.356 . S
Co165 O191 2.151 1_455 S
Co165 O192 2.087 1_455 S
C166 N169 1.301 1_455 S
C166 N170 1.328 . S
C166 H171 0.930 . S
C167 C168 1.333 . S
C167 N169 1.317 . S
C167 H172 0.930 . S
C168 C167 1.333 . S
C168 N170 1.350 1_655 S
C168 H194 0.931 . S
N169 Co165 2.147 1_655 S
N169 C166 1.301 1_655 S
N169 C167 1.317 . S
N170 C166 1.328 . S
N170 C168 1.350 1_455 S
H171 C166 0.930 . S
H172 C167 0.930 . S
C173 O174 1.224 . S
C173 O192 1.247 . S
O174 C173 1.224 . S
N175 Co165 2.130 . S
N175 C176 1.355 . S
N175 C178 1.311 1_455 S
C176 N175 1.355 . S
C176 C177 1.363 . S
C176 H188 0.929 . S
C177 C176 1.363 . S
C177 N179 1.375 . S
C177 H195 0.931 . S
C178 N175 1.311 1_655 S
C178 N179 1.347 1_655 S
C178 H189 0.929 . S
N179 C177 1.375 . S
N179 C178 1.347 1_455 S
C180 C183 1.365 . S
C180 N185 1.328 . S
C180 H186 0.929 . S
C181 C182 1.362 . S
C181 C184 1.378 . S
C181 H196 0.929 . S
C182 C181 1.362 . S
C182 C183 1.366 . S
C183 C180 1.365 . S
C183 C182 1.366 . S
C183 H197 0.930 . S
C184 C181 1.378 . S
C184 N185 1.315 . S
C184 H187 0.930 . S
N185 Co165 2.202 . S
N185 C180 1.328 . S
N185 C184 1.315 . S
H186 C180 0.929 . S
H187 C184 0.930 . S
H188 C176 0.929 . S
H189 C178 0.929 . S
O190 Co165 2.356 . S
O190 C193 1.244 . S
O191 Co165 2.151 1_655 S
O191 C193 1.240 1_655 S
O192 Co165 2.087 1_655 S
O192 C173 1.247 . S
C193 O190 1.244 . S
C193 O191 1.240 1_455 S
H194 C168 0.931 . S
H195 C177 0.931 . S
H196 C181 0.929 . S
H197 C183 0.930 . S
Co198 N202 2.147 1_545 S
Co198 N208 2.130 . S
Co198 N218 2.201 . S
Co198 O223 2.356 . S
Co198 O224 2.152 1_545 S
Co198 O225 2.087 1_545 S
C199 N202 1.301 1_545 S
C199 N203 1.328 . S
C199 H204 0.930 . S
C200 C201 1.333 . S
C200 N202 1.317 . S
C200 H205 0.930 . S
C201 C200 1.333 . S
C201 N203 1.350 1_565 S
C201 H227 0.931 . S
N202 Co198 2.147 1_565 S
N202 C199 1.301 1_565 S
N202 C200 1.317 . S
N203 C199 1.328 . S
N203 C201 1.350 1_545 S
H204 C199 0.930 . S
H205 C200 0.930 . S
C206 O207 1.224 . S
C206 O225 1.247 . S
O207 C206 1.224 . S
N208 Co198 2.130 . S
N208 C209 1.355 . S
N208 C211 1.311 1_545 S
C209 N208 1.355 . S
C209 C210 1.363 . S
C209 H221 0.929 . S
C210 C209 1.363 . S
C210 N212 1.375 . S
C210 H228 0.931 . S
C211 N208 1.311 1_565 S
C211 N212 1.347 1_565 S
C211 H222 0.929 . S
N212 C210 1.375 . S
N212 C211 1.347 1_545 S
C213 C216 1.365 . S
C213 N218 1.328 . S
C213 H219 0.929 . S
C214 C215 1.362 . S
C214 C217 1.378 . S
C214 H229 0.929 . S
C215 C214 1.362 . S
C215 C216 1.366 . S
C216 C213 1.365 . S
C216 C215 1.366 . S
C216 H230 0.930 . S
C217 C214 1.378 . S
C217 N218 1.315 . S
C217 H220 0.930 . S
N218 Co198 2.201 . S
N218 C213 1.328 . S
N218 C217 1.315 . S
H219 C213 0.929 . S
H220 C217 0.930 . S
H221 C209 0.929 . S
H222 C211 0.929 . S
O223 Co198 2.356 . S
O223 C226 1.244 . S
O224 Co198 2.152 1_565 S
O224 C226 1.240 1_565 S
O225 Co198 2.087 1_565 S
O225 C206 1.247 . S
C226 O223 1.244 . S
C226 O224 1.240 1_545 S
H227 C201 0.931 . S
H228 C210 0.931 . S
H229 C214 0.929 . S
H230 C216 0.930 . S
Co231 N235 2.148 . S
Co231 N241 2.128 . S
Co231 N251 2.194 1_455 S
Co231 O256 2.351 1_455 S
Co231 O257 2.155 . S
Co231 O258 2.096 . S
C232 N235 1.301 . S
C232 N236 1.328 . S
C232 H237 0.930 1_455 S
C233 C234 1.333 . S
C233 N235 1.317 . S
C233 H238 0.930 . S
C234 C233 1.333 . S
C234 N236 1.350 . S
C234 H260 0.931 . S
N235 Co231 2.148 . S
N235 C232 1.301 . S
N235 C233 1.317 . S
N236 C232 1.328 . S
N236 C234 1.350 . S
H237 C232 0.930 1_655 S
H238 C233 0.930 . S
C239 O240 1.224 . S
C239 O258 1.247 . S
O240 C239 1.224 . S
N241 Co231 2.128 . S
N241 C242 1.355 1_455 S
N241 C244 1.311 . S
C242 N241 1.355 1_655 S
C242 C243 1.363 . S
C242 H254 0.929 . S
C243 C242 1.363 . S
C243 N245 1.375 1_655 S
C243 H261 0.931 . S
C244 N241 1.311 . S
C244 N245 1.347 . S
C244 H255 0.929 . S
N245 C243 1.375 1_455 S
N245 C244 1.347 . S
C246 C249 1.365 . S
C246 N251 1.328 . S
C246 H252 0.929 . S
C247 C248 1.362 . S
C247 C250 1.378 . S
C247 H262 0.929 . S
C248 C247 1.362 . S
C248 C249 1.366 . S
C249 C246 1.365 . S
C249 C248 1.366 . S
C249 H263 0.930 . S
C250 C247 1.378 . S
C250 N251 1.315 . S
C250 H253 0.930 . S
N251 Co231 2.194 1_655 S
N251 C246 1.328 . S
N251 C250 1.315 . S
H252 C246 0.929 . S
H253 C250 0.930 . S
H254 C242 0.929 . S
H255 C244 0.929 . S
O256 Co231 2.351 1_655 S
O256 C259 1.244 1_655 S
O257 Co231 2.155 . S
O257 C259 1.240 . S
O258 Co231 2.096 . S
O258 C239 1.247 . S
C259 O256 1.244 1_455 S
C259 O257 1.240 . S
H260 C234 0.931 . S
H261 C243 0.931 . S
H262 C247 0.929 . S
H263 C249 0.930 . S
C264 C265 1.363 . S
C264 C270 1.379 1_554 S
C264 N272 1.356 . S
C265 C264 1.363 . S
C265 C271 1.363 1_545 S
C266 C267 1.363 1_565 S
C266 C271 1.379 1_556 S
C266 N273 1.356 . S
C267 C266 1.363 1_545 S
C267 C270 1.363 . S
N268 C270 1.356 . S
N268 H280 0.984 . S
N268 H281 0.985 . S
N269 C271 1.356 . S
N269 H274 0.984 . S
N269 H275 0.985 . S
C270 C264 1.379 1_556 S
C270 C267 1.363 . S
C270 N268 1.356 . S
C271 C265 1.363 1_565 S
C271 C266 1.379 1_554 S
C271 N269 1.356 . S
N272 C264 1.356 . S
N272 H278 0.984 . S
N272 H279 0.984 . S
N273 C266 1.356 . S
N273 H276 0.984 . S
N273 H277 0.985 . S
H274 N269 0.984 . S
H275 N269 0.985 . S
H276 N273 0.984 . S
H277 N273 0.985 . S
H278 N272 0.984 . S
H279 N272 0.984 . S
H280 N268 0.984 . S
H281 N268 0.985 . S
C282 C283 1.363 1_655 S
C282 C288 1.379 . S
C282 N290 1.356 . S
C283 C282 1.363 1_455 S
C283 C289 1.363 . S
C284 C285 1.363 . S
C284 C289 1.379 . S
C284 N291 1.356 . S
C285 C284 1.363 . S
C285 C288 1.363 1_455 S
N286 C288 1.356 . S
N286 H298 0.984 . S
N286 H299 0.985 . S
N287 C289 1.356 . S
N287 H292 0.984 . S
N287 H293 0.985 . S
C288 C282 1.379 . S
C288 C285 1.363 1_655 S
C288 N286 1.356 . S
C289 C283 1.363 . S
C289 C284 1.379 . S
C289 N287 1.356 . S
N290 C282 1.356 . S
N290 H296 0.984 . S
N290 H297 0.984 . S
N291 C284 1.356 . S
N291 H294 0.984 . S
N291 H295 0.985 . S
H292 N287 0.984 . S
H293 N287 0.985 . S
H294 N291 0.984 . S
H295 N291 0.985 . S
H296 N290 0.984 . S
H297 N290 0.984 . S
H298 N286 0.984 . S
H299 N286 0.985 . S
C300 C301 1.363 . S
C300 C306 1.379 1_554 S
C300 N308 1.356 . S
C301 C300 1.363 . S
C301 C307 1.363 1_545 S
C302 C303 1.363 1_565 S
C302 C307 1.379 1_556 S
C302 N309 1.356 . S
C303 C302 1.363 1_545 S
C303 C306 1.363 . S
N304 C306 1.356 . S
N304 H316 0.984 . S
N304 H317 0.985 . S
N305 C307 1.356 . S
N305 H310 0.984 . S
N305 H311 0.985 . S
C306 C300 1.379 1_556 S
C306 C303 1.363 . S
C306 N304 1.356 . S
C307 C301 1.363 1_565 S
C307 C302 1.379 1_554 S
C307 N305 1.356 . S
N308 C300 1.356 . S
N308 H314 0.984 . S
N308 H315 0.984 . S
N309 C302 1.356 . S
N309 H312 0.984 . S
N309 H313 0.985 . S
H310 N305 0.984 . S
H311 N305 0.985 . S
H312 N309 0.984 . S
H313 N309 0.985 . S
H314 N308 0.984 . S
H315 N308 0.984 . S
H316 N304 0.984 . S
H317 N304 0.985 . S
C318 C319 1.363 1_655 S
C318 C324 1.379 . S
C318 N326 1.356 . S
C319 C318 1.363 1_455 S
C319 C325 1.363 . S
C320 C321 1.363 . S
C320 C325 1.379 . S
C320 N327 1.356 . S
C321 C320 1.363 . S
C321 C324 1.363 1_455 S
N322 C324 1.356 . S
N322 H334 0.984 . S
N322 H335 0.985 . S
N323 C325 1.356 . S
N323 H328 0.984 . S
N323 H329 0.985 . S
C324 C318 1.379 . S
C324 C321 1.363 1_655 S
C324 N322 1.356 . S
C325 C319 1.363 . S
C325 C320 1.379 . S
C325 N323 1.356 . S
N326 C318 1.356 . S
N326 H332 0.984 . S
N326 H333 0.984 . S
N327 C320 1.356 . S
N327 H330 0.984 . S
N327 H331 0.985 . S
H328 N323 0.984 . S
H329 N323 0.985 . S
H330 N327 0.984 . S
H331 N327 0.985 . S
H332 N326 0.984 . S
H333 N326 0.984 . S
H334 N322 0.984 . S
H335 N322 0.985 . S
C336 C337 1.363 . S
C336 C342 1.379 . S
C336 N344 1.356 . S
C337 C336 1.363 . S
C337 C343 1.363 . S
C338 C339 1.363 . S
C338 C343 1.379 . S
C338 N345 1.356 . S
C339 C338 1.363 . S
C339 C342 1.363 . S
N340 C342 1.356 . S
N340 H352 0.984 . S
N340 H353 0.985 . S
N341 C343 1.356 . S
N341 H346 0.984 . S
N341 H347 0.985 . S
C342 C336 1.379 . S
C342 C339 1.363 . S
C342 N340 1.356 . S
C343 C337 1.363 . S
C343 C338 1.379 . S
C343 N341 1.356 . S
N344 C336 1.356 . S
N344 H350 0.984 . S
N344 H351 0.984 . S
N345 C338 1.356 . S
N345 H348 0.984 . S
N345 H349 0.985 . S
H346 N341 0.984 . S
H347 N341 0.985 . S
H348 N345 0.984 . S
H349 N345 0.985 . S
H350 N344 0.984 . S
H351 N344 0.984 . S
H352 N340 0.984 . S
H353 N340 0.985 . S
C354 C355 1.363 . S
C354 C360 1.379 . S
C354 N362 1.356 . S
C355 C354 1.363 . S
C355 C361 1.363 . S
C356 C357 1.363 . S
C356 C361 1.379 . S
C356 N363 1.356 . S
C357 C356 1.363 . S
C357 C360 1.363 . S
N358 C360 1.356 . S
N358 H370 0.984 . S
N358 H371 0.985 . S
N359 C361 1.356 . S
N359 H364 0.984 . S
N359 H365 0.985 . S
C360 C354 1.379 . S
C360 C357 1.363 . S
C360 N358 1.356 . S
C361 C355 1.363 . S
C361 C356 1.379 . S
C361 N359 1.356 . S
N362 C354 1.356 . S
N362 H368 0.984 . S
N362 H369 0.984 . S
N363 C356 1.356 . S
N363 H366 0.984 . S
N363 H367 0.985 . S
H364 N359 0.984 . S
H365 N359 0.985 . S
H366 N363 0.984 . S
H367 N363 0.985 . S
H368 N362 0.984 . S
H369 N362 0.984 . S
H370 N358 0.984 . S
H371 N358 0.985 . S
C372 C373 1.363 . S
C372 C378 1.379 . S
C372 N380 1.356 . S
C373 C372 1.363 . S
C373 C379 1.363 . S
C374 C375 1.363 . S
C374 C379 1.379 . S
C374 N381 1.356 . S
C375 C374 1.363 . S
C375 C378 1.363 . S
N376 C378 1.356 . S
N376 H388 0.984 . S
N376 H389 0.985 . S
N377 C379 1.356 . S
N377 H382 0.984 . S
N377 H383 0.985 . S
C378 C372 1.379 . S
C378 C375 1.363 . S
C378 N376 1.356 . S
C379 C373 1.363 . S
C379 C374 1.379 . S
C379 N377 1.356 . S
N380 C372 1.356 . S
N380 H386 0.984 . S
N380 H387 0.984 . S
N381 C374 1.356 . S
N381 H384 0.984 . S
N381 H385 0.985 . S
H382 N377 0.984 . S
H383 N377 0.985 . S
H384 N381 0.984 . S
H385 N381 0.985 . S
H386 N380 0.984 . S
H387 N380 0.984 . S
H388 N376 0.984 . S
H389 N376 0.985 . S
C390 C391 1.363 . S
C390 C396 1.379 . S
C390 N398 1.356 . S
C391 C390 1.363 . S
C391 C397 1.363 . S
C392 C393 1.363 . S
C392 C397 1.379 . S
C392 N399 1.356 . S
C393 C392 1.363 . S
C393 C396 1.363 . S
N394 C396 1.356 . S
N394 H406 0.984 . S
N394 H407 0.985 . S
N395 C397 1.356 . S
N395 H400 0.984 . S
N395 H401 0.985 . S
C396 C390 1.379 . S
C396 C393 1.363 . S
C396 N394 1.356 . S
C397 C391 1.363 . S
C397 C392 1.379 . S
C397 N395 1.356 . S
N398 C390 1.356 . S
N398 H404 0.984 . S
N398 H405 0.984 . S
N399 C392 1.356 . S
N399 H402 0.984 . S
N399 H403 0.985 . S
H400 N395 0.984 . S
H401 N395 0.985 . S
H402 N399 0.984 . S
H403 N399 0.985 . S
H404 N398 0.984 . S
H405 N398 0.984 . S
H406 N394 0.984 . S
H407 N394 0.985 . S
C408 C409 1.363 . S
C408 C414 1.379 . S
C408 N416 1.356 . S
C409 C408 1.363 . S
C409 C415 1.363 . S
C410 C411 1.363 . S
C410 C415 1.379 . S
C410 N417 1.356 . S
C411 C410 1.363 . S
C411 C414 1.363 . S
N412 C414 1.356 . S
N412 H424 0.984 . S
N412 H425 0.985 . S
N413 C415 1.356 . S
N413 H418 0.984 . S
N413 H419 0.985 . S
C414 C408 1.379 . S
C414 C411 1.363 . S
C414 N412 1.356 . S
C415 C409 1.363 . S
C415 C410 1.379 . S
C415 N413 1.356 . S
N416 C408 1.356 . S
N416 H422 0.984 . S
N416 H423 0.984 . S
N417 C410 1.356 . S
N417 H420 0.984 . S
N417 H421 0.985 . S
H418 N413 0.984 . S
H419 N413 0.985 . S
H420 N417 0.984 . S
H421 N417 0.985 . S
H422 N416 0.984 . S
H423 N416 0.984 . S
H424 N412 0.984 . S
H425 N412 0.985 . S
C426 C427 1.363 . S
C426 C432 1.379 . S
C426 N434 1.356 . S
C427 C426 1.363 . S
C427 C433 1.363 . S
C428 C429 1.363 . S
C428 C433 1.379 . S
C428 N435 1.356 . S
C429 C428 1.363 . S
C429 C432 1.363 . S
N430 C432 1.356 . S
N430 H442 0.984 . S
N430 H443 0.985 . S
N431 C433 1.356 . S
N431 H436 0.984 . S
N431 H437 0.985 . S
C432 C426 1.379 . S
C432 C429 1.363 . S
C432 N430 1.356 . S
C433 C427 1.363 . S
C433 C428 1.379 . S
C433 N431 1.356 . S
N434 C426 1.356 . S
N434 H440 0.984 . S
N434 H441 0.984 . S
N435 C428 1.356 . S
N435 H438 0.984 . S
N435 H439 0.985 . S
H436 N431 0.984 . S
H437 N431 0.985 . S
H438 N435 0.984 . S
H439 N435 0.985 . S
H440 N434 0.984 . S
H441 N434 0.984 . S
H442 N430 0.984 . S
H443 N430 0.985 . S
C444 C445 1.363 . S
C444 C450 1.379 . S
C444 N452 1.356 . S
C445 C444 1.363 . S
C445 C451 1.363 . S
C446 C447 1.363 . S
C446 C451 1.379 . S
C446 N453 1.356 . S
C447 C446 1.363 . S
C447 C450 1.363 . S
N448 C450 1.356 . S
N448 H460 0.984 . S
N448 H461 0.985 . S
N449 C451 1.356 . S
N449 H454 0.984 . S
N449 H455 0.985 . S
C450 C444 1.379 . S
C450 C447 1.363 . S
C450 N448 1.356 . S
C451 C445 1.363 . S
C451 C446 1.379 . S
C451 N449 1.356 . S
N452 C444 1.356 . S
N452 H458 0.984 . S
N452 H459 0.984 . S
N453 C446 1.356 . S
N453 H456 0.984 . S
N453 H457 0.985 . S
H454 N449 0.984 . S
H455 N449 0.985 . S
H456 N453 0.984 . S
H457 N453 0.985 . S
H458 N452 0.984 . S
H459 N452 0.984 . S
H460 N448 0.984 . S
H461 N448 0.985 . S
C462 C463 1.363 . S
C462 C468 1.379 . S
C462 N470 1.356 . S
C463 C462 1.363 . S
C463 C469 1.363 . S
C464 C465 1.363 . S
C464 C469 1.379 . S
C464 N471 1.356 . S
C465 C464 1.363 . S
C465 C468 1.363 . S
N466 C468 1.356 . S
N466 H478 0.984 . S
N466 H479 0.985 . S
N467 C469 1.356 . S
N467 H472 0.984 . S
N467 H473 0.985 . S
C468 C462 1.379 . S
C468 C465 1.363 . S
C468 N466 1.356 . S
C469 C463 1.363 . S
C469 C464 1.379 . S
C469 N467 1.356 . S
N470 C462 1.356 . S
N470 H476 0.984 . S
N470 H477 0.984 . S
N471 C464 1.356 . S
N471 H474 0.984 . S
N471 H475 0.985 . S
H472 N467 0.984 . S
H473 N467 0.985 . S
H474 N471 0.984 . S
H475 N471 0.985 . S
H476 N470 0.984 . S
H477 N470 0.984 . S
H478 N466 0.984 . S
H479 N466 0.985 . S
C480 C481 1.363 . S
C480 C486 1.379 1_455 S
C480 N488 1.356 . S
C481 C480 1.363 . S
C481 C487 1.363 1_565 S
C482 C483 1.363 . S
C482 C487 1.379 1_655 S
C482 N489 1.356 . S
C483 C482 1.363 . S
C483 C486 1.363 1_545 S
N484 C486 1.356 . S
N484 H496 0.984 . S
N484 H497 0.985 1_565 S
N485 C487 1.356 . S
N485 H490 0.984 . S
N485 H491 0.985 . S
C486 C480 1.379 1_655 S
C486 C483 1.363 1_565 S
C486 N484 1.356 . S
C487 C481 1.363 1_545 S
C487 C482 1.379 1_455 S
C487 N485 1.356 . S
N488 C480 1.356 . S
N488 H494 0.984 . S
N488 H495 0.984 . S
N489 C482 1.356 . S
N489 H492 0.984 . S
N489 H493 0.985 . S
H490 N485 0.984 . S
H491 N485 0.985 . S
H492 N489 0.984 . S
H493 N489 0.985 . S
H494 N488 0.984 . S
H495 N488 0.984 . S
H496 N484 0.984 . S
H497 N484 0.985 1_545 S
C498 C499 1.363 . S
C498 C504 1.379 1_545 S
C498 N506 1.356 . S
C499 C498 1.363 . S
C499 C505 1.363 1_455 S
C500 C501 1.363 . S
C500 C505 1.379 1_565 S
C500 N507 1.356 . S
C501 C500 1.363 . S
C501 C504 1.363 1_655 S
N502 C504 1.356 . S
N502 H514 0.984 . S
N502 H515 0.985 . S
N503 C505 1.356 . S
N503 H508 0.984 1_655 S
N503 H509 0.985 . S
C504 C498 1.379 1_565 S
C504 C501 1.363 1_455 S
C504 N502 1.356 . S
C505 C499 1.363 1_655 S
C505 C500 1.379 1_545 S
C505 N503 1.356 . S
N506 C498 1.356 . S
N506 H512 0.984 . S
N506 H513 0.984 . S
N507 C500 1.356 . S
N507 H510 0.984 . S
N507 H511 0.985 . S
H508 N503 0.984 1_455 S
H509 N503 0.985 . S
H510 N507 0.984 . S
H511 N507 0.985 . S
H512 N506 0.984 . S
H513 N506 0.984 . S
H514 N502 0.984 . S
H515 N502 0.985 . S
C516 C517 1.363 . S
C516 C522 1.379 1_655 S
C516 N524 1.356 . S
C517 C516 1.363 . S
C517 C523 1.363 1_565 S
C518 C519 1.363 . S
C518 C523 1.379 1_455 S
C518 N525 1.356 . S
C519 C518 1.363 . S
C519 C522 1.363 1_545 S
N520 C522 1.356 . S
N520 H532 0.984 . S
N520 H533 0.985 1_565 S
N521 C523 1.356 . S
N521 H526 0.984 . S
N521 H527 0.985 . S
C522 C516 1.379 1_455 S
C522 C519 1.363 1_565 S
C522 N520 1.356 . S
C523 C517 1.363 1_545 S
C523 C518 1.379 1_655 S
C523 N521 1.356 . S
N524 C516 1.356 . S
N524 H530 0.984 . S
N524 H531 0.984 . S
N525 C518 1.356 . S
N525 H528 0.984 . S
N525 H529 0.985 . S
H526 N521 0.984 . S
H527 N521 0.985 . S
H528 N525 0.984 . S
H529 N525 0.985 . S
H530 N524 0.984 . S
H531 N524 0.984 . S
H532 N520 0.984 . S
H533 N520 0.985 1_545 S
C534 C535 1.363 1_655 S
C534 C540 1.379 1_565 S
C534 N542 1.356 . S
C535 C534 1.363 1_455 S
C535 C541 1.363 . S
C536 C537 1.363 1_455 S
C536 C541 1.379 1_545 S
C536 N543 1.356 . S
C537 C536 1.363 1_655 S
C537 C540 1.363 . S
N538 C540 1.356 . S
N538 H550 0.984 . S
N538 H551 0.985 . S
N539 C541 1.356 . S
N539 H544 0.984 . S
N539 H545 0.985 . S
C540 C534 1.379 1_545 S
C540 C537 1.363 . S
C540 N538 1.356 . S
C541 C535 1.363 . S
C541 C536 1.379 1_565 S
C541 N539 1.356 . S
N542 C534 1.356 . S
N542 H548 0.984 . S
N542 H549 0.984 1_655 S
N543 C536 1.356 . S
N543 H546 0.984 . S
N543 H547 0.985 . S
H544 N539 0.984 . S
H545 N539 0.985 . S
H546 N543 0.984 . S
H547 N543 0.985 . S
H548 N542 0.984 . S
H549 N542 0.984 1_455 S
H550 N538 0.984 . S
H551 N538 0.985 . S
C552 C553 1.363 . S
C552 C558 1.379 . S
C552 N560 1.356 . S
C553 C552 1.363 . S
C553 C559 1.363 1_545 S
C554 C555 1.363 1_565 S
C554 C559 1.379 . S
C554 N561 1.356 . S
C555 C554 1.363 1_545 S
C555 C558 1.363 . S
N556 C558 1.356 . S
N556 H568 0.984 . S
N556 H569 0.985 . S
N557 C559 1.356 . S
N557 H562 0.984 . S
N557 H563 0.985 . S
C558 C552 1.379 . S
C558 C555 1.363 . S
C558 N556 1.356 . S
C559 C553 1.363 1_565 S
C559 C554 1.379 . S
C559 N557 1.356 . S
N560 C552 1.356 . S
N560 H566 0.984 . S
N560 H567 0.984 . S
N561 C554 1.356 . S
N561 H564 0.984 . S
N561 H565 0.985 . S
H562 N557 0.984 . S
H563 N557 0.985 . S
H564 N561 0.984 . S
H565 N561 0.985 . S
H566 N560 0.984 . S
H567 N560 0.984 . S
H568 N556 0.984 . S
H569 N556 0.985 . S
C570 C571 1.363 1_655 S
C570 C576 1.379 . S
C570 N578 1.356 . S
C571 C570 1.363 1_455 S
C571 C577 1.363 . S
C572 C573 1.363 . S
C572 C577 1.379 . S
C572 N579 1.356 . S
C573 C572 1.363 . S
C573 C576 1.363 1_455 S
N574 C576 1.356 . S
N574 H586 0.984 . S
N574 H587 0.985 . S
N575 C577 1.356 . S
N575 H580 0.984 . S
N575 H581 0.985 . S
C576 C570 1.379 . S
C576 C573 1.363 1_655 S
C576 N574 1.356 . S
C577 C571 1.363 . S
C577 C572 1.379 . S
C577 N575 1.356 . S
N578 C570 1.356 . S
N578 H584 0.984 . S
N578 H585 0.984 . S
N579 C572 1.356 . S
N579 H582 0.984 . S
N579 H583 0.985 . S
H580 N575 0.984 . S
H581 N575 0.985 . S
H582 N579 0.984 . S
H583 N579 0.985 . S
H584 N578 0.984 . S
H585 N578 0.984 . S
H586 N574 0.984 . S
H587 N574 0.985 . S
C588 C589 1.363 . S
C588 C594 1.379 . S
C588 N596 1.356 . S
C589 C588 1.363 . S
C589 C595 1.363 1_545 S
C590 C591 1.363 1_565 S
C590 C595 1.379 . S
C590 N597 1.356 . S
C591 C590 1.363 1_545 S
C591 C594 1.363 . S
N592 C594 1.356 . S
N592 H604 0.984 . S
N592 H605 0.985 . S
N593 C595 1.356 . S
N593 H598 0.984 . S
N593 H599 0.985 . S
C594 C588 1.379 . S
C594 C591 1.363 . S
C594 N592 1.356 . S
C595 C589 1.363 1_565 S
C595 C590 1.379 . S
C595 N593 1.356 . S
N596 C588 1.356 . S
N596 H602 0.984 . S
N596 H603 0.984 . S
N597 C590 1.356 . S
N597 H600 0.984 . S
N597 H601 0.985 . S
H598 N593 0.984 . S
H599 N593 0.985 . S
H600 N597 0.984 . S
H601 N597 0.985 . S
H602 N596 0.984 . S
H603 N596 0.984 . S
H604 N592 0.984 . S
H605 N592 0.985 . S
C606 C607 1.363 1_655 S
C606 C612 1.379 . S
C606 N614 1.356 . S
C607 C606 1.363 1_455 S
C607 C613 1.363 . S
C608 C609 1.363 . S
C608 C613 1.379 . S
C608 N615 1.356 . S
C609 C608 1.363 . S
C609 C612 1.363 1_455 S
N610 C612 1.356 . S
N610 H622 0.984 . S
N610 H623 0.985 . S
N611 C613 1.356 . S
N611 H616 0.984 . S
N611 H617 0.985 . S
C612 C606 1.379 . S
C612 C609 1.363 1_655 S
C612 N610 1.356 . S
C613 C607 1.363 . S
C613 C608 1.379 . S
C613 N611 1.356 . S
N614 C606 1.356 . S
N614 H620 0.984 . S
N614 H621 0.984 . S
N615 C608 1.356 . S
N615 H618 0.984 . S
N615 H619 0.985 . S
H616 N611 0.984 . S
H617 N611 0.985 . S
H618 N615 0.984 . S
H619 N615 0.985 . S
H620 N614 0.984 . S
H621 N614 0.984 . S
H622 N610 0.984 . S
H623 N610 0.985 . S
C265 C28 1.662 . S
C267 C160 1.662 . S
C283 C193 1.662 . S
C285 C61 1.662 . S
C301 C94 1.662 . S
C303 C226 1.662 . S
C319 C259 1.662 . S
C321 C127 1.662 . S
C337 C182 0.572 . S
C339 C17 0.572 . S
C355 C215 0.572 . S
C357 C50 0.572 . S
C373 C83 0.571 . S
C375 C248 0.571 . S
C391 C149 0.572 . S
C393 C116 0.572 . S
C409 C107 1.546 . S
C411 C206 1.546 . S
C427 C8 1.545 . S
C429 C239 1.545 . S
C445 C41 1.545 . S
C447 C140 1.545 . S
C463 C74 1.545 . S
C465 C173 1.545 . S
C481 N14 0.893 1_565 S
C483 N80 0.893 . S
C499 N47 0.893 . S
C501 N113 0.893 1_655 S
C517 N212 0.893 1_565 S
C519 N146 0.893 . S
C535 N245 0.893 . S
C537 N179 0.893 1_655 S
C553 N5 1.156 . S
C555 N71 1.156 . S
C571 N104 1.156 . S
C573 N38 1.156 . S
C589 N137 1.156 . S
C591 N203 1.156 . S
C607 N170 1.156 . S
C609 N236 1.156 . S
