# Generated by pormake.
# Topology afw, (4)-cn, num edge types: 1
# Building blocks:
#     Node 0, Type 0, BuildingBlock: TATPOV_clean_sbu_0, # of connection points: 4
#     Node 1, Type 0, BuildingBlock: TATPOV_clean_sbu_0, # of connection points: 4
#     Node 2, Type 0, BuildingBlock: TATPOV_clean_sbu_0, # of connection points: 4
#     Node 3, Type 0, BuildingBlock: TATPOV_clean_sbu_0, # of connection points: 4
#     Node 4, Type 0, BuildingBlock: TATPOV_clean_sbu_0, # of connection points: 4
#     Node 5, Type 0, BuildingBlock: TATPOV_clean_sbu_0, # of connection points: 4
#     Node 6, Type 0, BuildingBlock: TATPOV_clean_sbu_0, # of connection points: 4
#     Node 7, Type 0, BuildingBlock: TATPOV_clean_sbu_0, # of connection points: 4
#     Node 8, Type 0, BuildingBlock: TATPOV_clean_sbu_0, # of connection points: 4
#     Edge 9, Type (0, 0), BuildingBlock: FUNLAD_clean_linker_1, # of connection points: 2
#     Edge 10, Type (0, 0), BuildingBlock: FUNLAD_clean_linker_1, # of connection points: 2
#     Edge 11, Type (0, 0), BuildingBlock: FUNLAD_clean_linker_1, # of connection points: 2
#     Edge 12, Type (0, 0), BuildingBlock: FUNLAD_clean_linker_1, # of connection points: 2
#     Edge 13, Type (0, 0), BuildingBlock: FUNLAD_clean_linker_1, # of connection points: 2
#     Edge 14, Type (0, 0), BuildingBlock: FUNLAD_clean_linker_1, # of connection points: 2
#     Edge 15, Type (0, 0), BuildingBlock: FUNLAD_clean_linker_1, # of connection points: 2
#     Edge 16, Type (0, 0), BuildingBlock: FUNLAD_clean_linker_1, # of connection points: 2
#     Edge 17, Type (0, 0), BuildingBlock: FUNLAD_clean_linker_1, # of connection points: 2
#     Edge 18, Type (0, 0), BuildingBlock: FUNLAD_clean_linker_1, # of connection points: 2
#     Edge 19, Type (0, 0), BuildingBlock: FUNLAD_clean_linker_1, # of connection points: 2
#     Edge 20, Type (0, 0), BuildingBlock: FUNLAD_clean_linker_1, # of connection points: 2
#     Edge 21, Type (0, 0), BuildingBlock: FUNLAD_clean_linker_1, # of connection points: 2
#     Edge 22, Type (0, 0), BuildingBlock: FUNLAD_clean_linker_1, # of connection points: 2
#     Edge 23, Type (0, 0), BuildingBlock: FUNLAD_clean_linker_1, # of connection points: 2
#     Edge 24, Type (0, 0), BuildingBlock: FUNLAD_clean_linker_1, # of connection points: 2
#     Edge 25, Type (0, 0), BuildingBlock: FUNLAD_clean_linker_1, # of connection points: 2
#     Edge 26, Type (0, 0), BuildingBlock: FUNLAD_clean_linker_1, # of connection points: 2
# Relax obj value: 0.192
# Max RMSD: 0.220
# Mean RMSD: 0.215
data_MOF--net-afw--node1-TATPOV_clean_sbu_0--edge1-FUNLAD_clean_linker_1
_symmetry_space_group_name_H-M    P1
_symmetry_Int_Tables_number       1
_symmetry_cell_setting            triclinic
loop_
_symmetry_equiv_pos_as_xyz
'x, y, z'
_cell_length_a     42.415936
_cell_length_b     41.477751
_cell_length_c     37.107924
_cell_angle_alpha  90.291739
_cell_angle_beta   90.524955
_cell_angle_gamma 120.44593
loop_
_atom_site_label
_atom_site_type_symbol
_atom_site_fract_x
_atom_site_fract_y
_atom_site_fract_z
_atom_type_partial_charge
Zn0 Zn 0.03522 0.20736 0.08201 0.0
Zn1 Zn 0.03994 0.24932 0.02491 0.0
O2 O 0.09113 0.25494 0.02696 0.0
O3 O 0.08563 0.2172 0.07111 0.0
O4 O 0.04237 0.27916 0.98095 0.0
O5 O 0.02881 0.24242 0.11437 0.0
O6 O 0.02998 0.27528 0.06727 0.0
C7 C 0.10443 0.23938 0.04636 0.0
C8 C 0.98155 0.16507 0.02816 0.0
O9 O -0.00209 0.19605 0.01155 0.0
O10 O 0.99156 0.16259 0.05976 0.0
C11 C 0.05607 0.27436 0.95251 0.0
O12 O 0.06803 0.25073 0.95281 0.0
C13 C 0.02703 0.26948 0.10114 0.0
Zn14 Zn 0.8466 0.83517 0.929 0.0
Zn15 Zn 0.81942 0.80615 0.99384 0.0
O16 O 0.86851 0.80746 0.99372 0.0
O17 O 0.89314 0.83617 0.94291 0.0
O18 O 0.79755 0.78156 0.04105 0.0
O19 O 0.80505 0.79035 0.90406 0.0
O20 O 0.78036 0.77073 0.95728 0.0
C21 C 0.89529 0.82178 0.97218 0.0
C22 C 0.83476 0.88443 0.97451 0.0
O23 O 0.82645 0.85889 0.9977 0.0
O24 O 0.84226 0.88009 0.94251 0.0
C25 C 0.76717 0.77667 0.05205 0.0
O26 O 0.74948 0.78921 0.03292 0.0
C27 C 0.77888 0.76705 0.92315 0.0
Zn28 Zn 0.21263 0.05317 0.09332 0.0
Zn29 Zn 0.23431 0.04139 0.02954 0.0
O30 O 0.18153 0.99827 0.03143 0.0
O31 O 0.1608 0.01326 0.07913 0.0
O32 O 0.25086 0.03474 0.98089 0.0
O33 O 0.24588 0.03852 0.11799 0.0
O34 O 0.26876 0.03648 0.06551 0.0
C35 C 0.15539 0.99212 0.05221 0.0
C36 C 0.23929 0.11631 0.04806 0.0
O37 O 0.23898 0.093 0.02546 0.0
O38 O 0.23162 0.10736 0.08072 0.0
C39 C 0.23944 0.04279 0.95243 0.0
O40 O 0.21667 0.05532 0.955 0.0
C41 C 0.26855 0.03417 0.09972 0.0
Zn42 Zn 0.65626 0.5263 0.27209 0.0
Zn43 Zn 0.63821 0.55275 0.32889 0.0
O44 O 0.59622 0.49767 0.32553 0.0
O45 O 0.61279 0.47503 0.28042 0.0
O46 O 0.62397 0.57208 0.37176 0.0
O47 O 0.65407 0.56425 0.24021 0.0
O48 O 0.64214 0.58805 0.28777 0.0
C49 C 0.59093 0.47023 0.3056 0.0
C50 C 0.71038 0.5526 0.32883 0.0
O51 O 0.68761 0.55872 0.34513 0.0
O52 O 0.70368 0.53967 0.29691 0.0
C53 C 0.62498 0.55955 0.40266 0.0
O54 O 0.63534 0.53474 0.40566 0.0
C55 C 0.64851 0.58881 0.2542 0.0
Zn56 Zn 0.51038 0.14797 0.30088 0.0
Zn57 Zn 0.49042 0.12355 0.36392 0.0
O58 O 0.54293 0.13171 0.36266 0.0
O59 O 0.56151 0.16097 0.31113 0.0
O60 O 0.47169 0.09955 0.41228 0.0
O61 O 0.47718 0.10024 0.2757 0.0
O62 O 0.45073 0.08446 0.32838 0.0
C63 C 0.56818 0.1491 0.33985 0.0
C64 C 0.49175 0.19434 0.34064 0.0
O65 O 0.49208 0.1743 0.3664 0.0
O66 O 0.49544 0.18661 0.30847 0.0
C67 C 0.44157 0.0945 0.42436 0.0
O68 O 0.423 0.1063 0.40572 0.0
C69 C 0.45066 0.07778 0.29478 0.0
Zn70 Zn 0.85969 0.40828 0.24158 0.0
Zn71 Zn 0.89113 0.40527 0.30483 0.0
O72 O 0.88381 0.45018 0.31213 0.0
O73 O 0.85862 0.45315 0.26096 0.0
O74 O 0.91069 0.40128 0.35304 0.0
O75 O 0.90451 0.4154 0.2162 0.0
O76 O 0.92859 0.41005 0.26724 0.0
C77 C 0.87052 0.46555 0.29239 0.0
C78 C 0.81763 0.33911 0.2795 0.0
O79 O 0.84402 0.35511 0.30196 0.0
O80 O 0.81727 0.35565 0.25104 0.0
C81 C 0.88901 0.39247 0.37947 0.0
O82 O 0.85621 0.38759 0.37424 0.0
C83 C 0.92987 0.41412 0.23312 0.0
Zn84 Zn 0.32623 0.84712 0.77113 0.0
Zn85 Zn 0.34269 0.88918 0.71187 0.0
O86 O 0.38789 0.8838 0.72102 0.0
O87 O 0.37593 0.85234 0.77161 0.0
O88 O 0.35715 0.92207 0.66789 0.0
O89 O 0.31724 0.88299 0.79852 0.0
O90 O 0.33054 0.91798 0.75011 0.0
C91 C 0.39704 0.86866 0.74563 0.0
C92 C 0.27928 0.80822 0.7101 0.0
O93 O 0.29883 0.83925 0.6943 0.0
O94 O 0.28526 0.80459 0.74293 0.0
C95 C 0.36854 0.91274 0.6404 0.0
O96 O 0.37004 0.8819 0.64112 0.0
C97 C 0.32087 0.91168 0.783 0.0
Zn98 Zn 0.14002 0.47787 0.59107 0.0
Zn99 Zn 0.09893 0.44664 0.64985 0.0
O100 O 0.14327 0.43923 0.65507 0.0
O101 O 0.17777 0.46566 0.60796 0.0
O102 O 0.07033 0.42093 0.69453 0.0
O103 O 0.09819 0.44208 0.55952 0.0
O104 O 0.06287 0.42063 0.60712 0.0
C105 C 0.17221 0.44856 0.63747 0.0
C106 C 0.13161 0.52997 0.63685 0.0
O107 O 0.11373 0.5016 0.65678 0.0
O108 O 0.14453 0.52688 0.6072 0.0
C109 C 0.08833 0.42747 0.72391 0.0
O110 O 0.12362 0.45177 0.72427 0.0
C111 C 0.06715 0.42129 0.57309 0.0
Zn112 Zn 0.48688 0.64363 0.75189 0.0
Zn113 Zn 0.51369 0.64384 0.68535 0.0
O114 O 0.46304 0.59664 0.68557 0.0
O115 O 0.44137 0.59414 0.73986 0.0
O116 O 0.53252 0.64046 0.63686 0.0
O117 O 0.53117 0.64525 0.77437 0.0
O118 O 0.55246 0.64608 0.72021 0.0
C119 C 0.43782 0.58031 0.70855 0.0
C120 C 0.50138 0.70739 0.70703 0.0
O121 O 0.51193 0.69217 0.684 0.0
O122 O 0.48955 0.6923 0.73738 0.0
C123 C 0.52325 0.6501 0.60802 0.0
O124 O 0.50132 0.66373 0.60952 0.0
C125 C 0.55578 0.6465 0.75434 0.0
H126 H 0.22435 0.14726 0.01164 0.0
C127 C 0.24129 0.15065 0.03506 0.0
H128 H 0.273 0.18326 0.07819 0.0
H129 H 0.16437 0.2287 0.98173 0.0
H130 H 0.19032 0.22182 0.92621 0.0
H131 H 0.24381 0.21318 0.92753 0.0
H132 H 0.27051 0.20953 0.98507 0.0
C133 C 0.25702 0.18244 0.05489 0.0
C134 C 0.245 0.21069 0.0516 0.0
C135 C 0.23224 0.21648 0.0182 0.0
C136 C 0.2031 0.22405 0.01756 0.0
C137 C 0.18753 0.22468 0.98389 0.0
C138 C 0.20219 0.22072 0.9518 0.0
C139 C 0.23226 0.21576 0.95252 0.0
C140 C 0.2472 0.21357 0.98538 0.0
H141 H 0.16044 0.27061 0.02403 0.0
C142 C 0.14173 0.24662 0.03988 0.0
H143 H 0.13333 0.19985 0.06951 0.0
H144 H 0.2794 0.22386 0.1178 0.0
H145 H 0.26225 0.24304 0.17252 0.0
H146 H 0.21208 0.25686 0.17189 0.0
H147 H 0.17885 0.25162 0.11623 0.0
C148 C 0.15219 0.22339 0.05321 0.0
C149 C 0.18963 0.2293 0.05055 0.0
C150 C 0.20914 0.23314 0.08297 0.0
C151 C 0.23749 0.22445 0.08344 0.0
C152 C 0.25649 0.22837 0.11621 0.0
C153 C 0.24728 0.23996 0.14772 0.0
C154 C 0.21909 0.24783 0.14736 0.0
C155 C 0.20014 0.24452 0.11539 0.0
H156 H 0.84317 0.9271 0.01516 0.0
C157 C 0.84126 0.92135 0.98636 0.0
H158 H 0.84941 0.94381 0.93414 0.0
H159 H 0.87355 0.08191 0.04758 0.0
H160 H 0.80856 0.04415 0.05963 0.0
H161 H 0.7714 0.98118 0.03253 0.0
H162 H 0.79904 0.95547 0.99336 0.0
C163 C 0.85065 0.94933 0.96293 0.0
C164 C 0.87117 0.989 0.97542 0.0
C165 C 0.85446 0.00383 0.99764 0.0
C166 C 0.87581 0.0403 0.01292 0.0
C167 C 0.85858 0.0543 0.03542 0.0
C168 C 0.82132 0.03298 0.04243 0.0
C169 C 0.8004 0.99751 0.02719 0.0
C170 C 0.81661 0.98299 0.00495 0.0
H171 H 0.94763 0.13288 0.98095 0.0
C172 C 0.95307 0.13113 0.00934 0.0
H173 H 0.94145 0.09566 0.05411 0.0
H174 H 0.9113 0.97004 0.93158 0.0
H175 H 0.97578 0.0079 0.91906 0.0
H176 H 0.01304 0.07063 0.94645 0.0
H177 H 0.98596 0.09586 0.98627 0.0
C178 C 0.93678 0.09769 0.02559 0.0
C179 C 0.91367 0.062 0.00557 0.0
C180 C 0.9301 0.04776 0.98212 0.0
C181 C 0.90871 0.01136 0.96672 0.0
C182 C 0.92598 0.99754 0.94392 0.0
C183 C 0.96312 0.01895 0.93655 0.0
C184 C 0.98408 0.05426 0.95194 0.0
C185 C 0.96801 0.06852 0.97464 0.0
H186 H 0.93098 0.80623 0.00216 0.0
C187 C 0.9306 0.82621 0.9836 0.0
H188 H 0.96082 0.87754 0.95704 0.0
H189 H 0.07902 0.90109 0.08652 0.0
H190 H 0.03041 0.88317 0.12995 0.0
H191 H 0.96714 0.86119 0.10947 0.0
H192 H 0.95179 0.85528 0.0461 0.0
C193 C 0.96178 0.8576 0.97528 0.0
C194 C -0.0014 0.86754 0.98943 0.0
C195 C 0.00701 0.87308 0.02695 0.0
C196 C 0.04393 0.88901 0.03888 0.0
C197 C 0.05161 0.89131 0.07631 0.0
C198 C 0.02401 0.8809 0.10141 0.0
C199 C 0.98837 0.86832 0.08987 0.0
C200 C 0.97984 0.86461 0.05316 0.0
H201 H 0.09569 0.96536 0.05323 0.0
C202 C 0.11801 0.96187 0.04387 0.0
H203 H 0.13319 0.92755 0.01606 0.0
H204 H 0.9912 0.85367 0.9168 0.0
H205 H 0.04032 0.8725 0.87402 0.0
H206 H 0.10479 0.90618 0.89447 0.0
H207 H 0.12054 0.92061 0.95764 0.0
C208 C 0.11079 0.93103 0.02504 0.0
C209 C 0.07255 0.90336 0.01347 0.0
C210 C 0.06404 0.89513 0.97632 0.0
C211 C 0.02694 0.87664 0.96441 0.0
C212 C 0.01901 0.86848 0.92718 0.0
C213 C 0.04691 0.87897 0.90236 0.0
C214 C 0.08319 0.89787 0.91388 0.0
C215 C 0.09184 0.90602 0.95035 0.0
H216 H 0.85348 0.50701 0.2879 0.0
C217 C 0.86498 0.49542 0.30661 0.0
H218 H 0.87695 0.49146 0.36123 0.0
H219 H 0.82316 0.61543 0.31868 0.0
H220 H 0.88496 0.65507 0.29605 0.0
H221 H 0.93086 0.63532 0.30101 0.0
H222 H 0.91516 0.57567 0.32854 0.0
C223 C 0.8675 0.50432 0.34183 0.0
C224 C 0.84876 0.52437 0.35443 0.0
C225 C 0.85882 0.55976 0.34009 0.0
C226 C 0.83249 0.5711 0.33737 0.0
C227 C 0.84241 0.60566 0.32112 0.0
C228 C 0.87767 0.62857 0.30824 0.0
C229 C 0.90353 0.61745 0.31103 0.0
C230 C 0.89428 0.58332 0.32667 0.0
H231 H 0.74724 0.56525 0.37638 0.0
C232 C 0.74329 0.55759 0.34796 0.0
H233 H 0.76285 0.54273 0.30254 0.0
H234 H 0.82572 0.46143 0.39454 0.0
H235 H 0.7659 0.42428 0.42147 0.0
H236 H 0.71944 0.4431 0.41582 0.0
H237 H 0.7325 0.4991 0.38355 0.0
C238 C 0.7663 0.54935 0.3312 0.0
C239 C 0.79645 0.54712 0.34931 0.0
C240 C 0.78854 0.51503 0.3696 0.0
C241 C 0.81513 0.50389 0.37254 0.0
C242 C 0.80631 0.47086 0.39136 0.0
C243 C 0.77216 0.44939 0.40699 0.0
C244 C 0.74601 0.46001 0.40383 0.0
C245 C 0.75387 0.49228 0.38517 0.0
H246 H 0.51452 0.24895 0.36746 0.0
C247 C 0.49402 0.23035 0.34792 0.0
H248 H 0.45665 0.22329 0.30721 0.0
H249 H 0.55241 0.40097 0.37609 0.0
H250 H 0.52813 0.37477 0.43441 0.0
H251 H 0.4849 0.30717 0.44093 0.0
H252 H 0.46687 0.26518 0.38904 0.0
C253 C 0.47746 0.24304 0.32583 0.0
C254 C 0.49249 0.28401 0.32056 0.0
C255 C 0.5002 0.30858 0.35042 0.0
C256 C 0.52299 0.34793 0.34613 0.0
C257 C 0.53362 0.37122 0.37722 0.0
C258 C 0.52003 0.35647 0.41101 0.0
C259 C 0.49583 0.31839 0.41472 0.0
C260 C 0.48596 0.29458 0.38486 0.0
H261 H 0.53619 0.42845 0.32608 0.0
C262 C 0.56072 0.43213 0.31329 0.0
H263 H 0.58947 0.40685 0.29365 0.0
H264 H 0.47885 0.24563 0.25567 0.0
H265 H 0.4962 0.27247 0.19673 0.0
H266 H 0.53025 0.34084 0.18889 0.0
H267 H 0.54767 0.38271 0.24053 0.0
C268 C 0.56455 0.40246 0.30623 0.0
C269 C 0.53534 0.36278 0.31132 0.0
C270 C 0.52346 0.33849 0.28087 0.0
C271 C 0.50266 0.29908 0.28541 0.0
C272 C 0.49368 0.27574 0.25436 0.0
C273 C 0.50359 0.29081 0.22005 0.0
C274 C 0.52282 0.32927 0.21563 0.0
C275 C 0.53279 0.35295 0.24555 0.0
H276 H 0.61263 0.15107 0.3738 0.0
C277 C 0.6062 0.159 0.34811 0.0
H278 H 0.62645 0.18847 0.29967 0.0
H279 H 0.77314 0.30752 0.37917 0.0
H280 H 0.73648 0.31667 0.42337 0.0
H281 H 0.67014 0.27233 0.4271 0.0
H282 H 0.64022 0.21864 0.38712 0.0
C283 C 0.63311 0.18138 0.32571 0.0
C284 C 0.67276 0.19917 0.33404 0.0
C285 C 0.68973 0.22992 0.35855 0.0
C286 C 0.72786 0.25586 0.35607 0.0
C287 C 0.74422 0.28711 0.37984 0.0
C288 C 0.72352 0.29268 0.40533 0.0
C289 C 0.68618 0.26771 0.40744 0.0
C290 C 0.6693 0.23683 0.38425 0.0
H291 H 0.76268 0.29081 0.26914 0.0
C292 C 0.78602 0.3022 0.2876 0.0
H293 H 0.80648 0.29551 0.33754 0.0
H294 H 0.65008 0.13851 0.28979 0.0
H295 H 0.68782 0.12785 0.24779 0.0
H296 H 0.75388 0.17345 0.24313 0.0
H297 H 0.78259 0.23003 0.28041 0.0
C298 C 0.78391 0.28399 0.3182 0.0
C299 C 0.74835 0.25139 0.32863 0.0
C300 C 0.73243 0.21818 0.30762 0.0
C301 C 0.69452 0.19196 0.31039 0.0
C302 C 0.67883 0.15944 0.28834 0.0
C303 C 0.70019 0.15296 0.26436 0.0
C304 C 0.73739 0.17865 0.26173 0.0
C305 C 0.75348 0.21099 0.28305 0.0
H306 H 0.43478 0.85065 0.76384 0.0
C307 C 0.42897 0.86398 0.74164 0.0
H308 H 0.43778 0.87817 0.68671 0.0
H309 H 0.54334 0.81136 0.75244 0.0
H310 H 0.57816 0.87117 0.78387 0.0
H311 H 0.56098 0.91959 0.77807 0.0
H312 H 0.5087 0.9084 0.74078 0.0
C313 C 0.44476 0.86677 0.70968 0.0
C314 C 0.46284 0.84444 0.70357 0.0
C315 C 0.49393 0.85174 0.7244 0.0
C316 C 0.50389 0.82393 0.72754 0.0
C317 C 0.53448 0.83153 0.74937 0.0
C318 C 0.55474 0.86574 0.76739 0.0
C319 C 0.54506 0.89301 0.76414 0.0
C320 C 0.51499 0.88622 0.74291 0.0
H321 H 0.50959 0.75305 0.67058 0.0
C322 C 0.50098 0.74166 0.69737 0.0
H323 H 0.4799 0.74664 0.74707 0.0
H324 H 0.40679 0.82509 0.65492 0.0
H325 H 0.37347 0.76665 0.62169 0.0
H326 H 0.38917 0.71732 0.62865 0.0
H327 H 0.43848 0.72633 0.66848 0.0
C328 C 0.48775 0.75724 0.71992 0.0
C329 C 0.4829 0.78904 0.70954 0.0
C330 C 0.45412 0.78326 0.68563 0.0
C331 C 0.44451 0.81137 0.68219 0.0
C332 C 0.41515 0.80468 0.6588 0.0
C333 C 0.39577 0.77123 0.63948 0.0
C334 C 0.40466 0.74349 0.64335 0.0
C335 C 0.43326 0.74916 0.66627 0.0
H336 H 0.25154 0.77747 0.65994 0.0
C337 C 0.25257 0.77513 0.68904 0.0
H338 H 0.2341 0.7386 0.73351 0.0
H339 H 0.10411 0.60678 0.64169 0.0
H340 H 0.06986 0.63415 0.66608 0.0
H341 H 0.10145 0.69486 0.69834 0.0
H342 H 0.16756 0.72874 0.7062 0.0
C343 C 0.2333 0.74146 0.70448 0.0
C344 C 0.21447 0.70647 0.6827 0.0
C345 C 0.17593 0.68701 0.67852 0.0
C346 C 0.15769 0.65177 0.66038 0.0
C347 C 0.11923 0.63324 0.65594 0.0
C348 C 0.09929 0.64874 0.66963 0.0
C349 C 0.11708 0.68295 0.68777 0.0
C350 C 0.15497 0.70205 0.69217 0.0
H351 H 0.13475 0.57005 0.67812 0.0
C352 C 0.14066 0.56728 0.6502 0.0
H353 H 0.16642 0.59554 0.60253 0.0
H354 H 0.28884 0.73621 0.68693 0.0
H355 H 0.32287 0.7085 0.66353 0.0
H356 H 0.29139 0.64753 0.63186 0.0
H357 H 0.2256 0.61374 0.62376 0.0
C358 C 0.15955 0.59803 0.63016 0.0
C359 C 0.17811 0.63593 0.64697 0.0
C360 C 0.21679 0.65577 0.65057 0.0
C361 C 0.23498 0.691 0.66863 0.0
C362 C 0.27354 0.70958 0.67303 0.0
C363 C 0.2935 0.69397 0.65976 0.0
C364 C 0.27576 0.65963 0.64198 0.0
C365 C 0.2379 0.64058 0.63744 0.0
H366 H 0.19832 0.43617 0.68271 0.0
C367 C 0.20224 0.44623 0.65518 0.0
H368 H 0.24069 0.47538 0.61449 0.0
H369 H 0.35117 0.57409 0.74098 0.0
H370 H 0.31428 0.60337 0.74152 0.0
H371 H 0.25636 0.57614 0.70685 0.0
H372 H 0.23494 0.51939 0.6718 0.0
C373 C 0.23608 0.46418 0.64158 0.0
C374 C 0.26878 0.47792 0.66535 0.0
C375 C 0.2807 0.51112 0.68602 0.0
C376 C 0.31428 0.52707 0.70562 0.0
C377 C 0.32586 0.56057 0.72559 0.0
C378 C 0.30496 0.5778 0.72612 0.0
C379 C 0.27235 0.56246 0.70665 0.0
C380 C 0.2603 0.52965 0.68671 0.0
H381 H 0.39844 0.54191 0.66793 0.0
C382 C 0.40253 0.54827 0.69666 0.0
H383 H 0.37756 0.53793 0.74751 0.0
H384 H 0.25245 0.41325 0.63012 0.0
H385 H 0.28941 0.38361 0.62972 0.0
H386 H 0.34776 0.4113 0.66382 0.0
H387 H 0.36962 0.46888 0.69847 0.0
C388 C 0.37402 0.53105 0.71891 0.0
C389 C 0.33625 0.51033 0.70371 0.0
C390 C 0.32358 0.47635 0.68431 0.0
C391 C 0.28979 0.46019 0.66497 0.0
C392 C 0.27797 0.42661 0.64525 0.0
C393 C 0.29886 0.40933 0.64488 0.0
C394 C 0.33174 0.42495 0.66406 0.0
C395 C 0.34407 0.45805 0.68366 0.0
H396 H 0.07617 0.29364 0.89793 0.0
C397 C 0.05992 0.29553 0.91944 0.0
H398 H 0.02837 0.31905 0.93615 0.0
H399 H 0.10669 0.45697 0.83097 0.0
H400 H 0.11972 0.48719 0.88976 0.0
H401 H 0.10173 0.44991 0.94528 0.0
H402 H 0.0703 0.38223 0.94239 0.0
C403 C 0.04426 0.31645 0.91473 0.0
C404 C 0.05077 0.33865 0.8812 0.0
C405 C 0.06912 0.37822 0.88342 0.0
C406 C 0.08018 0.39976 0.8514 0.0
C407 C 0.09829 0.43926 0.85442 0.0
C408 C 0.10583 0.45698 0.88799 0.0
C409 C 0.09566 0.43599 0.91925 0.0
C410 C 0.07758 0.39709 0.91717 0.0
H411 H 0.04074 0.38847 0.7565 0.0
C412 C 0.07038 0.40573 0.75644 0.0
H413 H 0.11976 0.42252 0.78472 0.0
H414 H 0.00752 0.26372 0.86716 0.0
H415 H -0.00454 0.23311 0.8086 0.0
H416 H 0.02091 0.26998 0.75349 0.0
H417 H 0.0574 0.33744 0.75643 0.0
C418 C 0.09014 0.40493 0.78463 0.0
C419 C 0.07342 0.38178 0.81722 0.0
C420 C 0.05367 0.34208 0.81495 0.0
C421 C 0.04114 0.32061 0.84693 0.0
C422 C 0.01935 0.28119 0.84386 0.0
C423 C 0.01198 0.26329 0.8104 0.0
C424 C 0.02614 0.28406 0.77938 0.0
C425 C 0.04685 0.32295 0.78146 0.0
H426 H 0.72032 0.72422 0.92186 0.0
C427 C 0.74489 0.73797 0.90572 0.0
H428 H 0.76708 0.74553 0.85371 0.0
H429 H 0.59421 0.60295 0.83667 0.0
H430 H 0.61348 0.56722 0.87298 0.0
H431 H 0.67586 0.59706 0.89906 0.0
H432 H 0.71931 0.66286 0.88913 0.0
C433 C 0.74272 0.73135 0.87007 0.0
C434 C 0.70665 0.71173 0.85132 0.0
C435 C 0.6819 0.67318 0.85694 0.0
C436 C 0.64612 0.65587 0.84154 0.0
C437 C 0.62173 0.61742 0.84779 0.0
C438 C 0.63246 0.59661 0.86849 0.0
C439 C 0.66758 0.61343 0.88321 0.0
C440 C 0.69217 0.65124 0.8775 0.0
H441 H 0.61239 0.6577 0.7522 0.0
C442 C 0.59054 0.65326 0.77028 0.0
H443 H 0.57621 0.65543 0.82436 0.0
H444 H 0.74819 0.78602 0.83392 0.0
H445 H 0.7289 0.82156 0.79793 0.0
H446 H 0.66636 0.79192 0.77244 0.0
H447 H 0.62295 0.72659 0.78261 0.0
C448 C 0.59757 0.65964 0.80576 0.0
C449 C 0.63547 0.67706 0.82025 0.0
C450 C 0.66045 0.71554 0.81414 0.0
C451 C 0.69626 0.73275 0.8293 0.0
C452 C 0.72063 0.77131 0.823 0.0
C453 C 0.7099 0.79217 0.80244 0.0
C454 C 0.67473 0.77548 0.78806 0.0
C455 C 0.65013 0.73775 0.79392 0.0
H456 H 0.30402 0.92838 0.83168 0.0
C457 C 0.31218 0.93629 0.80389 0.0
H458 H 0.32054 0.97572 0.76339 0.0
H459 H 0.20713 0.96809 0.89214 0.0
H460 H 0.16179 0.91538 0.8569 0.0
H461 H 0.17881 0.8955 0.80118 0.0
H462 H 0.2418 0.92821 0.7808 0.0
C463 C 0.31211 0.9663 0.79073 0.0
C464 C 0.30007 0.98667 0.81481 0.0
C465 C 0.26297 0.96898 0.82515 0.0
C466 C 0.25303 0.98139 0.85649 0.0
C467 C 0.21621 0.961 0.86785 0.0
C468 C 0.18984 0.93043 0.84794 0.0
C469 C 0.19943 0.91916 0.81664 0.0
C470 C 0.23558 0.93801 0.80533 0.0
H471 H 0.23804 0.0418 0.89289 0.0
C472 C 0.24985 0.03629 0.91652 0.0
H473 H 0.28471 0.01753 0.93577 0.0
H474 H 0.37189 0.03057 0.79768 0.0
H475 H 0.4172 0.08654 0.83003 0.0
H476 H 0.39999 0.10955 0.8835 0.0
H477 H 0.33751 0.07672 0.90512 0.0
C478 C 0.27185 0.02209 0.91243 0.0
C479 C 0.28022 0.01264 0.87643 0.0
C480 C 0.31657 0.03271 0.86369 0.0
C481 C 0.32649 0.01968 0.83275 0.0
C482 C 0.36315 0.03945 0.82114 0.0
C483 C 0.38929 0.07158 0.83936 0.0
C484 C 0.37959 0.08453 0.86948 0.0
C485 C 0.34371 0.06541 0.88167 0.0
H486 H 0.39108 0.04163 0.28887 0.0
C487 C 0.41698 0.04918 0.27639 0.0
H488 H 0.44381 0.04877 0.22915 0.0
H489 H 0.26735 0.96009 0.17846 0.0
H490 H 0.26021 0.90791 0.21419 0.0
H491 H 0.31142 0.91356 0.25125 0.0
H492 H 0.3702 0.97149 0.25277 0.0
C493 C 0.41775 0.04097 0.24142 0.0
C494 C 0.38766 0.03554 0.21678 0.0
C495 C 0.3537 0.00162 0.21617 0.0
C496 C 0.32424 0.99842 0.19478 0.0
C497 C 0.29056 0.96412 0.19446 0.0
C498 C 0.28614 0.93395 0.21476 0.0
C499 C 0.31498 0.93713 0.23564 0.0
C500 C 0.34847 0.97051 0.2364 0.0
H501 H 0.31849 0.03012 0.10264 0.0
C502 C 0.29651 0.02909 0.11836 0.0
H503 H 0.27491 0.02482 0.17044 0.0
H504 H 0.45032 0.10418 0.21009 0.0
H505 H 0.45698 0.15669 0.17609 0.0
H506 H 0.40487 0.15239 0.14185 0.0
H507 H 0.34612 0.09545 0.14116 0.0
C508 C 0.29719 0.02688 0.15446 0.0
C509 C 0.32888 0.02923 0.17424 0.0
C510 C 0.36301 0.06322 0.17475 0.0
C511 C 0.39268 0.06607 0.1954 0.0
C512 C 0.42661 0.10028 0.19521 0.0
C513 C 0.43089 0.13082 0.17579 0.0
C514 C 0.40161 0.12838 0.15646 0.0
C515 C 0.368 0.0952 0.15603 0.0
H516 H 0.01636 0.28527 0.15414 0.0
C517 C 0.01994 0.29283 0.12582 0.0
H518 H 0.01989 0.33009 0.08707 0.0
H519 H 0.91798 0.32801 0.22452 0.0
H520 H 0.87486 0.26495 0.20411 0.0
H521 H 0.88981 0.23617 0.15375 0.0
H522 H 0.94812 0.27017 0.12387 0.0
C523 C 0.01564 0.32117 0.11496 0.0
C524 C 0.00456 0.34052 0.14139 0.0
C525 C 0.9698 0.32058 0.15781 0.0
C526 C 0.96075 0.33757 0.18602 0.0
C527 C 0.92621 0.31668 0.20262 0.0
C528 C 0.90113 0.28041 0.19118 0.0
C529 C 0.90958 0.26418 0.1629 0.0
C530 C 0.94336 0.28392 0.14622 0.0
H531 H 0.95872 0.41816 0.18313 0.0
C532 C 0.95758 0.41173 0.21166 0.0
H533 H 0.97079 0.38396 0.25116 0.0
H534 H 0.07251 0.387 0.11419 0.0
H535 H 0.11453 0.45131 0.13275 0.0
H536 H 0.09796 0.48137 0.18061 0.0
H537 H 0.03928 0.44719 0.21042 0.0
C538 C 0.97404 0.39337 0.22344 0.0
C539 C 0.98574 0.37506 0.19657 0.0
C540 C 0.01989 0.39545 0.17933 0.0
C541 C 0.02937 0.37811 0.1517 0.0
C542 C 0.06391 0.39889 0.13525 0.0
C543 C 0.08824 0.43579 0.14565 0.0
C544 C 0.0789 0.45273 0.17259 0.0
C545 C 0.04516 0.4329 0.18938 0.0
H546 H 0.64722 0.64085 0.24427 0.0
C547 C 0.65261 0.62025 0.23212 0.0
H548 H 0.67115 0.60476 0.18621 0.0
H549 H 0.65755 0.69831 0.0652 0.0
H550 H 0.60287 0.63859 0.05276 0.0
H551 H 0.58007 0.58776 0.09711 0.0
H552 H 0.61206 0.59636 0.15417 0.0
C553 C 0.66616 0.62551 0.19864 0.0
C554 C 0.67493 0.65886 0.17666 0.0
C555 C 0.65537 0.6539 0.14397 0.0
C556 C 0.66822 0.68342 0.11866 0.0
C557 C 0.64887 0.67706 0.0856 0.0
C558 C 0.6174 0.64287 0.07809 0.0
C559 C 0.60459 0.61423 0.10304 0.0
C560 C 0.62327 0.61949 0.1356 0.0
H561 H 0.76548 0.74173 0.09719 0.0
C562 C 0.75083 0.75389 0.08434 0.0
H563 H 0.70257 0.75687 0.08383 0.0
H564 H 0.71854 0.67884 0.23761 0.0
H565 H 0.76995 0.74014 0.25207 0.0
H566 H 0.78909 0.79259 0.21009 0.0
H567 H 0.75721 0.78359 0.15286 0.0
C568 C 0.71805 0.74585 0.09701 0.0
C569 C 0.70055 0.71795 0.12626 0.0
C570 C 0.71792 0.72416 0.16051 0.0
C571 C 0.70571 0.69434 0.18543 0.0
C572 C 0.72556 0.70066 0.21817 0.0
C573 C 0.75532 0.73577 0.22678 0.0
C574 C 0.76618 0.76527 0.2031 0.0
C575 C 0.74783 0.75968 0.17028 0.0
H576 H 0.04235 0.401 0.51982 0.0
C577 C 0.03594 0.40158 0.54807 0.0
H578 H -0.005 0.39433 0.58453 0.0
H579 H 0.9368 0.45042 0.45417 0.0
H580 H 0.95105 0.49759 0.50013 0.0
H581 H 0.97593 0.49414 0.55938 0.0
H582 H 0.98689 0.44349 0.57284 0.0
C583 C 0.00158 0.39158 0.55688 0.0
C584 C 0.97541 0.38624 0.52728 0.0
C585 C 0.96728 0.4149 0.52062 0.0
C586 C 0.95219 0.41642 0.48673 0.0
C587 C 0.94705 0.44703 0.47977 0.0
C588 C 0.95538 0.47455 0.50588 0.0
C589 C 0.96946 0.47265 0.5392 0.0
C590 C 0.97564 0.44341 0.54655 0.0
H591 H 0.881 0.38197 0.4378 0.0
C592 C 0.90011 0.38813 0.41598 0.0
H593 H 0.95186 0.39699 0.40135 0.0
H594 H 0.98044 0.32372 0.53504 0.0
H595 H 0.96301 0.27406 0.49041 0.0
H596 H 0.9364 0.27617 0.43165 0.0
H597 H 0.92702 0.3278 0.4171 0.0
C598 C 0.93299 0.3922 0.42305 0.0
C599 C 0.94414 0.38845 0.46015 0.0
C600 C 0.94906 0.35791 0.46823 0.0
C601 C 0.96455 0.35673 0.50194 0.0
C602 C 0.96933 0.32607 0.50945 0.0
C603 C 0.95926 0.29738 0.48422 0.0
C604 C 0.94425 0.29857 0.45114 0.0
C605 C 0.93912 0.3284 0.44309 0.0
H606 H 0.61715 0.56148 0.46103 0.0
C607 C 0.61451 0.57217 0.43517 0.0
H608 H 0.59721 0.60553 0.40827 0.0
H609 H 0.49145 0.57876 0.54121 0.0
H610 H 0.44747 0.53709 0.49655 0.0
H611 H 0.46771 0.52672 0.43773 0.0
H612 H 0.53222 0.55776 0.42346 0.0
C613 C 0.60134 0.59552 0.43387 0.0
C614 C 0.5893 0.60569 0.46733 0.0
C615 C 0.55149 0.58851 0.47468 0.0
C616 C 0.53982 0.59527 0.50823 0.0
C617 C 0.50192 0.57585 0.51572 0.0
C618 C 0.47632 0.55155 0.49039 0.0
C619 C 0.48772 0.54565 0.45731 0.0
C620 C 0.52482 0.56368 0.44946 0.0
H621 H 0.52803 0.65419 0.5488 0.0
C622 C 0.5356 0.64455 0.57276 0.0
H623 H 0.56282 0.6176 0.59329 0.0
H624 H 0.66366 0.64561 0.46009 0.0
H625 H 0.70793 0.68836 0.50422 0.0
H626 H 0.68783 0.70063 0.56226 0.0
H627 H 0.62337 0.67027 0.57653 0.0
C628 C 0.55444 0.62668 0.56949 0.0
C629 C 0.56609 0.62023 0.53383 0.0
C630 C 0.60389 0.63814 0.52602 0.0
C631 C 0.61551 0.63096 0.49266 0.0
C632 C 0.65339 0.64961 0.48529 0.0
C633 C 0.67908 0.67436 0.5103 0.0
C634 C 0.66776 0.68128 0.54297 0.0
C635 C 0.63066 0.66356 0.55085 0.0
H636 H 0.39047 0.92669 0.5855 0.0
C637 C 0.38069 0.93612 0.60789 0.0
H638 H 0.37204 0.97885 0.62762 0.0
H639 H 0.48745 0.1022 0.52388 0.0
H640 H 0.51702 0.12467 0.5823 0.0
H641 H 0.49127 0.08665 0.63672 0.0
H642 H 0.4357 0.02603 0.63313 0.0
C643 C 0.38054 0.96834 0.60508 0.0
C644 C 0.39489 0.99194 0.57234 0.0
C645 C 0.42742 0.02733 0.5749 0.0
C646 C 0.44254 0.04907 0.54344 0.0
C647 C 0.47499 0.08436 0.54684 0.0
C648 C 0.49222 0.09763 0.58022 0.0
C649 C 0.47771 0.07624 0.61087 0.0
C650 C 0.44574 0.04148 0.60841 0.0
H651 H 0.40024 0.07002 0.46703 0.0
C652 C 0.42613 0.07366 0.45794 0.0
H653 H 0.46832 0.06186 0.46823 0.0
H654 H 0.32933 0.92804 0.55865 0.0
H655 H 0.30062 0.90474 0.50008 0.0
H656 H 0.32925 0.9401 0.44493 0.0
H657 H 0.38631 0.99926 0.4481 0.0
C658 C 0.44203 0.05778 0.47647 0.0
C659 C 0.42518 0.0354 0.50942 0.0
C660 C 0.39245 1.0001 0.50686 0.0
C661 C 0.37685 0.97879 0.53847 0.0
C662 C 0.34318 0.94461 0.53538 0.0
C663 C 0.32625 0.93102 0.50193 0.0
C664 C 0.3423 0.951 0.47091 0.0
C665 C 0.375 0.9851 0.47316 0.0
loop_
_geom_bond_atom_site_label_1
_geom_bond_atom_site_label_2
_geom_bond_distance
_geom_bond_site_symmetry_2
_ccdc_geom_bond_type
Zn0 O3 2.031 . S
Zn0 O5 2.049 1_455 S
Zn0 O10 2.067 1_455 S
Zn1 O2 1.962 . S
Zn1 O4 1.986 1_554 S
Zn1 O6 1.996 . S
Zn1 O9 1.943 1_454 S
O2 Zn1 1.962 . S
O2 C7 1.254 . S
O3 Zn0 2.031 . S
O3 C7 1.269 . S
O4 Zn1 1.986 1_556 S
O4 C11 1.262 . S
O5 Zn0 2.049 1_655 S
O5 C13 1.260 . S
O6 Zn1 1.996 . S
O6 C13 1.257 1_455 S
C7 O2 1.254 . S
C7 O3 1.269 . S
C8 O9 1.249 1_554 S
C8 O10 1.270 . S
O9 Zn1 1.943 1_656 S
O9 C8 1.249 1_556 S
O10 Zn0 2.067 1_655 S
O10 C8 1.270 . S
C11 O4 1.262 . S
C11 O12 1.232 . S
O12 C11 1.232 . S
C13 O5 1.260 . S
C13 O6 1.257 1_655 S
Zn14 O17 2.031 . S
Zn14 O19 2.049 . S
Zn14 O24 2.067 . S
Zn15 O16 1.962 . S
Zn15 O18 1.986 . S
Zn15 O20 1.996 1_554 S
Zn15 O23 1.943 . S
O16 Zn15 1.962 . S
O16 C21 1.261 . S
O17 Zn14 2.031 . S
O17 C21 1.262 1_556 S
O18 Zn15 1.986 . S
O18 C25 1.262 . S
O19 Zn14 2.049 . S
O19 C27 1.260 . S
O20 Zn15 1.996 1_556 S
O20 C27 1.257 . S
C21 O16 1.261 . S
C21 O17 1.262 1_554 S
C22 O23 1.249 . S
C22 O24 1.270 1_554 S
O23 Zn15 1.943 . S
O23 C22 1.249 . S
O24 Zn14 2.067 . S
O24 C22 1.270 1_556 S
C25 O18 1.262 . S
C25 O26 1.232 . S
O26 C25 1.232 . S
C27 O19 1.260 . S
C27 O20 1.257 . S
Zn28 O31 2.031 1_545 S
Zn28 O33 2.049 . S
Zn28 O38 2.067 . S
Zn29 O30 1.962 1_545 S
Zn29 O32 1.986 1_554 S
Zn29 O34 1.996 . S
Zn29 O37 1.943 1_554 S
O30 Zn29 1.962 1_565 S
O30 C35 1.254 . S
O31 Zn28 2.031 1_565 S
O31 C35 1.269 . S
O32 Zn29 1.986 1_556 S
O32 C39 1.262 1_545 S
O33 Zn28 2.049 . S
O33 C41 1.260 . S
O34 Zn29 1.996 . S
O34 C41 1.257 . S
C35 O30 1.254 . S
C35 O31 1.269 . S
C36 O37 1.249 1_554 S
C36 O38 1.270 . S
O37 Zn29 1.943 1_556 S
O37 C36 1.249 1_556 S
O38 Zn28 2.067 . S
O38 C36 1.270 . S
C39 O32 1.262 1_565 S
C39 O40 1.232 . S
O40 C39 1.232 . S
C41 O33 1.260 . S
C41 O34 1.257 . S
Zn42 O45 2.031 . S
Zn42 O47 2.049 . S
Zn42 O52 2.067 . S
Zn43 O44 1.962 . S
Zn43 O46 1.986 . S
Zn43 O48 1.996 . S
Zn43 O51 1.943 . S
O44 Zn43 1.962 . S
O44 C49 1.254 . S
O45 Zn42 2.031 . S
O45 C49 1.269 . S
O46 Zn43 1.986 . S
O46 C53 1.262 . S
O47 Zn42 2.049 . S
O47 C55 1.260 . S
O48 Zn43 1.996 . S
O48 C55 1.257 . S
C49 O44 1.254 . S
C49 O45 1.269 . S
C50 O51 1.249 . S
C50 O52 1.270 . S
O51 Zn43 1.943 . S
O51 C50 1.249 . S
O52 Zn42 2.067 . S
O52 C50 1.270 . S
C53 O46 1.262 . S
C53 O54 1.232 . S
O54 C53 1.232 . S
C55 O47 1.260 . S
C55 O48 1.257 . S
Zn56 O59 2.031 . S
Zn56 O61 2.049 . S
Zn56 O66 2.067 . S
Zn57 O58 1.962 . S
Zn57 O60 1.986 . S
Zn57 O62 1.996 . S
Zn57 O65 1.943 . S
O58 Zn57 1.962 . S
O58 C63 1.254 . S
O59 Zn56 2.031 . S
O59 C63 1.269 . S
O60 Zn57 1.986 . S
O60 C67 1.262 . S
O61 Zn56 2.049 . S
O61 C69 1.260 . S
O62 Zn57 1.996 . S
O62 C69 1.257 . S
C63 O58 1.254 . S
C63 O59 1.269 . S
C64 O65 1.249 . S
C64 O66 1.270 . S
O65 Zn57 1.943 . S
O65 C64 1.249 . S
O66 Zn56 2.067 . S
O66 C64 1.270 . S
C67 O60 1.262 . S
C67 O68 1.232 . S
O68 C67 1.232 . S
C69 O61 1.260 . S
C69 O62 1.257 . S
Zn70 O73 2.031 . S
Zn70 O75 2.049 . S
Zn70 O80 2.067 . S
Zn71 O72 1.962 . S
Zn71 O74 1.986 . S
Zn71 O76 1.996 . S
Zn71 O79 1.943 . S
O72 Zn71 1.962 . S
O72 C77 1.254 . S
O73 Zn70 2.031 . S
O73 C77 1.269 . S
O74 Zn71 1.986 . S
O74 C81 1.262 . S
O75 Zn70 2.049 . S
O75 C83 1.260 . S
O76 Zn71 1.996 . S
O76 C83 1.257 . S
C77 O72 1.254 . S
C77 O73 1.269 . S
C78 O79 1.249 . S
C78 O80 1.270 . S
O79 Zn71 1.943 . S
O79 C78 1.249 . S
O80 Zn70 2.067 . S
O80 C78 1.270 . S
C81 O74 1.262 . S
C81 O82 1.232 . S
O82 C81 1.232 . S
C83 O75 1.260 . S
C83 O76 1.257 . S
Zn84 O87 2.031 . S
Zn84 O89 2.049 . S
Zn84 O94 2.067 . S
Zn85 O86 1.962 . S
Zn85 O88 1.986 . S
Zn85 O90 1.996 . S
Zn85 O93 1.943 . S
O86 Zn85 1.962 . S
O86 C91 1.254 . S
O87 Zn84 2.031 . S
O87 C91 1.269 . S
O88 Zn85 1.986 . S
O88 C95 1.262 . S
O89 Zn84 2.049 . S
O89 C97 1.260 . S
O90 Zn85 1.996 . S
O90 C97 1.257 . S
C91 O86 1.254 . S
C91 O87 1.269 . S
C92 O93 1.249 . S
C92 O94 1.270 . S
O93 Zn85 1.943 . S
O93 C92 1.249 . S
O94 Zn84 2.067 . S
O94 C92 1.270 . S
C95 O88 1.262 . S
C95 O96 1.232 . S
O96 C95 1.232 . S
C97 O89 1.260 . S
C97 O90 1.257 . S
Zn98 O101 2.031 . S
Zn98 O103 2.049 . S
Zn98 O108 2.067 . S
Zn99 O100 1.962 . S
Zn99 O102 1.986 . S
Zn99 O104 1.996 . S
Zn99 O107 1.943 . S
O100 Zn99 1.962 . S
O100 C105 1.254 . S
O101 Zn98 2.031 . S
O101 C105 1.269 . S
O102 Zn99 1.986 . S
O102 C109 1.262 . S
O103 Zn98 2.049 . S
O103 C111 1.260 . S
O104 Zn99 1.996 . S
O104 C111 1.257 . S
C105 O100 1.254 . S
C105 O101 1.269 . S
C106 O107 1.249 . S
C106 O108 1.270 . S
O107 Zn99 1.943 . S
O107 C106 1.249 . S
O108 Zn98 2.067 . S
O108 C106 1.270 . S
C109 O102 1.262 . S
C109 O110 1.232 . S
O110 C109 1.232 . S
C111 O103 1.260 . S
C111 O104 1.257 . S
Zn112 O115 2.031 . S
Zn112 O117 2.049 . S
Zn112 O122 2.067 . S
Zn113 O114 1.962 . S
Zn113 O116 1.986 . S
Zn113 O118 1.996 . S
Zn113 O121 1.943 . S
O114 Zn113 1.962 . S
O114 C119 1.254 . S
O115 Zn112 2.031 . S
O115 C119 1.269 . S
O116 Zn113 1.986 . S
O116 C123 1.262 . S
O117 Zn112 2.049 . S
O117 C125 1.260 . S
O118 Zn113 1.996 . S
O118 C125 1.257 . S
C119 O114 1.254 . S
C119 O115 1.269 . S
C120 O121 1.249 . S
C120 O122 1.270 . S
O121 Zn113 1.943 . S
O121 C120 1.249 . S
O122 Zn112 2.067 . S
O122 C120 1.270 . S
C123 O116 1.262 . S
C123 O124 1.232 . S
O124 C123 1.232 . S
C125 O117 1.260 . S
C125 O118 1.257 . S
H126 C127 0.953 . S
C127 H126 0.953 . S
C127 C133 1.265 . S
H128 C133 0.946 1_556 S
H129 C137 0.949 . S
H130 C138 0.950 . S
H131 C139 0.951 . S
H132 C140 0.951 . S
C133 C127 1.265 . S
C133 H128 0.946 1_554 S
C133 C134 1.478 . S
C134 C133 1.478 . S
C134 C135 1.397 1_554 S
C134 C151 1.394 . S
C135 C134 1.397 1_556 S
C135 C136 1.438 . S
C135 C140 1.429 . S
C136 C135 1.438 . S
C136 C137 1.428 . S
C136 C149 1.394 1_556 S
C137 H129 0.949 . S
C137 C136 1.428 . S
C137 C138 1.345 . S
C138 H130 0.950 . S
C138 C137 1.345 . S
C138 C139 1.424 . S
C139 H131 0.951 . S
C139 C138 1.424 . S
C139 C140 1.347 . S
C140 H132 0.951 . S
C140 C135 1.429 . S
C140 C139 1.347 . S
H141 C142 0.951 . S
C142 H141 0.951 . S
C142 C148 1.265 . S
H143 C148 0.950 . S
H144 C152 0.949 . S
H145 C153 0.950 . S
H146 C154 0.951 . S
H147 C155 0.951 . S
C148 C142 1.265 . S
C148 H143 0.950 . S
C148 C149 1.478 . S
C149 C136 1.394 1_554 S
C149 C148 1.478 . S
C149 C150 1.397 . S
C150 C149 1.397 . S
C150 C151 1.438 . S
C150 C155 1.429 . S
C151 C134 1.394 . S
C151 C150 1.438 . S
C151 C152 1.428 . S
C152 H144 0.949 . S
C152 C151 1.428 . S
C152 C153 1.345 . S
C153 H145 0.950 . S
C153 C152 1.345 . S
C153 C154 1.424 . S
C154 H146 0.951 . S
C154 C153 1.424 . S
C154 C155 1.347 . S
C155 H147 0.951 . S
C155 C150 1.429 . S
C155 C154 1.347 . S
H156 C157 0.951 . S
C157 H156 0.951 . S
C157 C163 1.265 . S
H158 C163 0.950 . S
H159 C167 0.949 . S
H160 C168 0.950 . S
H161 C169 0.951 . S
H162 C170 0.951 . S
C163 C157 1.265 . S
C163 H158 0.950 . S
C163 C164 1.478 . S
C164 C163 1.478 . S
C164 C165 1.397 1_565 S
C164 C181 1.394 1_554 S
C165 C164 1.397 1_545 S
C165 C166 1.438 . S
C165 C170 1.429 1_545 S
C166 C165 1.438 . S
C166 C167 1.428 . S
C166 C179 1.394 . S
C167 H159 0.949 . S
C167 C166 1.428 . S
C167 C168 1.345 . S
C168 H160 0.950 . S
C168 C167 1.345 . S
C168 C169 1.424 . S
C169 H161 0.951 . S
C169 C168 1.424 . S
C169 C170 1.347 1_545 S
C170 H162 0.951 . S
C170 C165 1.429 1_565 S
C170 C169 1.347 1_565 S
H171 C172 0.951 . S
C172 H171 0.951 . S
C172 C178 1.265 . S
H173 C178 0.950 1_556 S
H174 C182 0.949 . S
H175 C183 0.950 . S
H176 C184 0.951 . S
H177 C185 0.951 . S
C178 C172 1.265 . S
C178 H173 0.950 1_554 S
C178 C179 1.478 . S
C179 C166 1.394 . S
C179 C178 1.478 . S
C179 C180 1.397 1_554 S
C180 C179 1.397 1_556 S
C180 C181 1.438 1_545 S
C180 C185 1.429 . S
C181 C164 1.394 1_556 S
C181 C180 1.438 1_565 S
C181 C182 1.428 . S
C182 H174 0.949 . S
C182 C181 1.428 . S
C182 C183 1.345 . S
C183 H175 0.950 . S
C183 C182 1.345 . S
C183 C184 1.424 1_565 S
C184 H176 0.951 . S
C184 C183 1.424 1_545 S
C184 C185 1.347 . S
C185 H177 0.951 . S
C185 C180 1.429 . S
C185 C184 1.347 . S
H186 C187 0.951 1_556 S
C187 H186 0.951 1_554 S
C187 C193 1.265 . S
H188 C193 0.950 . S
H189 C197 0.949 . S
H190 C198 0.950 . S
H191 C199 0.967 . S
H192 C200 0.951 . S
C193 C187 1.265 . S
C193 H188 0.950 . S
C193 C194 1.478 . S
C194 C193 1.478 . S
C194 C195 1.397 . S
C194 C211 1.394 1_554 S
C195 C194 1.397 . S
C195 C196 1.438 1_655 S
C195 C200 1.429 . S
C196 C195 1.438 1_455 S
C196 C197 1.428 . S
C196 C209 1.394 . S
C197 H189 0.949 . S
C197 C196 1.428 . S
C197 C198 1.345 . S
C198 H190 0.950 . S
C198 C197 1.345 . S
C198 C199 1.396 1_455 S
C199 H191 0.967 . S
C199 C198 1.396 1_655 S
C199 C200 1.359 . S
C200 H192 0.951 . S
C200 C195 1.429 . S
C200 C199 1.359 . S
H201 C202 0.951 . S
C202 H201 0.951 . S
C202 C208 1.265 . S
H203 C208 0.950 . S
H204 C212 0.949 . S
H205 C213 0.950 . S
H206 C214 0.951 . S
H207 C215 0.951 . S
C208 C202 1.265 . S
C208 H203 0.950 . S
C208 C209 1.478 . S
C209 C196 1.394 . S
C209 C208 1.478 . S
C209 C210 1.397 1_554 S
C210 C209 1.397 1_556 S
C210 C211 1.438 1_455 S
C210 C215 1.429 . S
C211 C194 1.394 1_556 S
C211 C210 1.438 1_655 S
C211 C212 1.428 . S
C212 H204 0.949 . S
C212 C211 1.428 . S
C212 C213 1.345 . S
C213 H205 0.950 . S
C213 C212 1.345 . S
C213 C214 1.424 1_655 S
C214 H206 0.951 . S
C214 C213 1.424 1_455 S
C214 C215 1.347 . S
C215 H207 0.951 . S
C215 C210 1.429 . S
C215 C214 1.347 . S
H216 C217 0.951 . S
C217 H216 0.951 . S
C217 C223 1.265 . S
H218 C223 0.950 . S
H219 C227 0.949 . S
H220 C228 0.950 . S
H221 C229 0.951 . S
H222 C230 0.951 . S
C223 C217 1.265 . S
C223 H218 0.950 . S
C223 C224 1.478 . S
C224 C223 1.478 . S
C224 C225 1.397 . S
C224 C241 1.394 . S
C225 C224 1.397 . S
C225 C226 1.438 . S
C225 C230 1.429 . S
C226 C225 1.438 . S
C226 C227 1.428 . S
C226 C239 1.394 . S
C227 H219 0.949 . S
C227 C226 1.428 . S
C227 C228 1.345 . S
C228 H220 0.950 . S
C228 C227 1.345 . S
C228 C229 1.424 . S
C229 H221 0.951 . S
C229 C228 1.424 . S
C229 C230 1.347 . S
C230 H222 0.951 . S
C230 C225 1.429 . S
C230 C229 1.347 . S
H231 C232 0.951 . S
C232 H231 0.951 . S
C232 C238 1.265 . S
H233 C238 0.950 . S
H234 C242 0.949 . S
H235 C243 0.950 . S
H236 C244 0.951 . S
H237 C245 0.951 . S
C238 C232 1.265 . S
C238 H233 0.950 . S
C238 C239 1.478 . S
C239 C226 1.394 . S
C239 C238 1.478 . S
C239 C240 1.397 . S
C240 C239 1.397 . S
C240 C241 1.438 . S
C240 C245 1.429 . S
C241 C224 1.394 . S
C241 C240 1.438 . S
C241 C242 1.428 . S
C242 H234 0.949 . S
C242 C241 1.428 . S
C242 C243 1.345 . S
C243 H235 0.950 . S
C243 C242 1.345 . S
C243 C244 1.424 . S
C244 H236 0.951 . S
C244 C243 1.424 . S
C244 C245 1.347 . S
C245 H237 0.951 . S
C245 C240 1.429 . S
C245 C244 1.347 . S
H246 C247 0.951 . S
C247 H246 0.951 . S
C247 C253 1.265 . S
H248 C253 0.950 . S
H249 C257 0.949 . S
H250 C258 0.950 . S
H251 C259 0.951 . S
H252 C260 0.951 . S
C253 C247 1.265 . S
C253 H248 0.950 . S
C253 C254 1.478 . S
C254 C253 1.478 . S
C254 C255 1.397 . S
C254 C271 1.394 . S
C255 C254 1.397 . S
C255 C256 1.438 . S
C255 C260 1.429 . S
C256 C255 1.438 . S
C256 C257 1.428 . S
C256 C269 1.394 . S
C257 H249 0.949 . S
C257 C256 1.428 . S
C257 C258 1.345 . S
C258 H250 0.950 . S
C258 C257 1.345 . S
C258 C259 1.424 . S
C259 H251 0.951 . S
C259 C258 1.424 . S
C259 C260 1.347 . S
C260 H252 0.951 . S
C260 C255 1.429 . S
C260 C259 1.347 . S
H261 C262 0.951 . S
C262 H261 0.951 . S
C262 C268 1.265 . S
H263 C268 0.950 . S
H264 C272 0.949 . S
H265 C273 0.950 . S
H266 C274 0.951 . S
H267 C275 0.951 . S
C268 C262 1.265 . S
C268 H263 0.950 . S
C268 C269 1.478 . S
C269 C256 1.394 . S
C269 C268 1.478 . S
C269 C270 1.397 . S
C270 C269 1.397 . S
C270 C271 1.438 . S
C270 C275 1.429 . S
C271 C254 1.394 . S
C271 C270 1.438 . S
C271 C272 1.428 . S
C272 H264 0.949 . S
C272 C271 1.428 . S
C272 C273 1.345 . S
C273 H265 0.950 . S
C273 C272 1.345 . S
C273 C274 1.424 . S
C274 H266 0.951 . S
C274 C273 1.424 . S
C274 C275 1.347 . S
C275 H267 0.951 . S
C275 C270 1.429 . S
C275 C274 1.347 . S
H276 C277 0.951 . S
C277 H276 0.951 . S
C277 C283 1.265 . S
H278 C283 0.950 . S
H279 C287 0.949 . S
H280 C288 0.950 . S
H281 C289 0.951 . S
H282 C290 0.951 . S
C283 C277 1.265 . S
C283 H278 0.950 . S
C283 C284 1.478 . S
C284 C283 1.478 . S
C284 C285 1.397 . S
C284 C301 1.394 . S
C285 C284 1.397 . S
C285 C286 1.438 . S
C285 C290 1.429 . S
C286 C285 1.438 . S
C286 C287 1.428 . S
C286 C299 1.394 . S
C287 H279 0.949 . S
C287 C286 1.428 . S
C287 C288 1.345 . S
C288 H280 0.950 . S
C288 C287 1.345 . S
C288 C289 1.424 . S
C289 H281 0.951 . S
C289 C288 1.424 . S
C289 C290 1.347 . S
C290 H282 0.951 . S
C290 C285 1.429 . S
C290 C289 1.347 . S
H291 C292 0.951 . S
C292 H291 0.951 . S
C292 C298 1.265 . S
H293 C298 0.950 . S
H294 C302 0.949 . S
H295 C303 0.950 . S
H296 C304 0.951 . S
H297 C305 0.951 . S
C298 C292 1.265 . S
C298 H293 0.950 . S
C298 C299 1.478 . S
C299 C286 1.394 . S
C299 C298 1.478 . S
C299 C300 1.397 . S
C300 C299 1.397 . S
C300 C301 1.438 . S
C300 C305 1.429 . S
C301 C284 1.394 . S
C301 C300 1.438 . S
C301 C302 1.428 . S
C302 H294 0.949 . S
C302 C301 1.428 . S
C302 C303 1.345 . S
C303 H295 0.950 . S
C303 C302 1.345 . S
C303 C304 1.424 . S
C304 H296 0.951 . S
C304 C303 1.424 . S
C304 C305 1.347 . S
C305 H297 0.951 . S
C305 C300 1.429 . S
C305 C304 1.347 . S
H306 C307 0.951 . S
C307 H306 0.951 . S
C307 C313 1.265 . S
H308 C313 0.950 . S
H309 C317 0.949 . S
H310 C318 0.950 . S
H311 C319 0.951 . S
H312 C320 0.951 . S
C313 C307 1.265 . S
C313 H308 0.950 . S
C313 C314 1.478 . S
C314 C313 1.478 . S
C314 C315 1.397 . S
C314 C331 1.394 . S
C315 C314 1.397 . S
C315 C316 1.438 . S
C315 C320 1.429 . S
C316 C315 1.438 . S
C316 C317 1.428 . S
C316 C329 1.394 . S
C317 H309 0.949 . S
C317 C316 1.428 . S
C317 C318 1.345 . S
C318 H310 0.950 . S
C318 C317 1.345 . S
C318 C319 1.424 . S
C319 H311 0.951 . S
C319 C318 1.424 . S
C319 C320 1.347 . S
C320 H312 0.951 . S
C320 C315 1.429 . S
C320 C319 1.347 . S
H321 C322 0.951 . S
C322 H321 0.951 . S
C322 C328 1.265 . S
H323 C328 0.950 . S
H324 C332 0.949 . S
H325 C333 0.950 . S
H326 C334 0.951 . S
H327 C335 0.951 . S
C328 C322 1.265 . S
C328 H323 0.950 . S
C328 C329 1.478 . S
C329 C316 1.394 . S
C329 C328 1.478 . S
C329 C330 1.397 . S
C330 C329 1.397 . S
C330 C331 1.438 . S
C330 C335 1.429 . S
C331 C314 1.394 . S
C331 C330 1.438 . S
C331 C332 1.428 . S
C332 H324 0.949 . S
C332 C331 1.428 . S
C332 C333 1.345 . S
C333 H325 0.950 . S
C333 C332 1.345 . S
C333 C334 1.424 . S
C334 H326 0.951 . S
C334 C333 1.424 . S
C334 C335 1.347 . S
C335 H327 0.951 . S
C335 C330 1.429 . S
C335 C334 1.347 . S
H336 C337 0.951 . S
C337 H336 0.951 . S
C337 C343 1.265 . S
H338 C343 0.950 . S
H339 C347 0.949 . S
H340 C348 0.950 . S
H341 C349 0.951 . S
H342 C350 0.951 . S
C343 C337 1.265 . S
C343 H338 0.950 . S
C343 C344 1.478 . S
C344 C343 1.478 . S
C344 C345 1.397 . S
C344 C361 1.394 . S
C345 C344 1.397 . S
C345 C346 1.438 . S
C345 C350 1.429 . S
C346 C345 1.438 . S
C346 C347 1.428 . S
C346 C359 1.394 . S
C347 H339 0.949 . S
C347 C346 1.428 . S
C347 C348 1.345 . S
C348 H340 0.950 . S
C348 C347 1.345 . S
C348 C349 1.424 . S
C349 H341 0.951 . S
C349 C348 1.424 . S
C349 C350 1.347 . S
C350 H342 0.951 . S
C350 C345 1.429 . S
C350 C349 1.347 . S
H351 C352 0.951 . S
C352 H351 0.951 . S
C352 C358 1.265 . S
H353 C358 0.950 . S
H354 C362 0.949 . S
H355 C363 0.950 . S
H356 C364 0.951 . S
H357 C365 0.951 . S
C358 C352 1.265 . S
C358 H353 0.950 . S
C358 C359 1.478 . S
C359 C346 1.394 . S
C359 C358 1.478 . S
C359 C360 1.397 . S
C360 C359 1.397 . S
C360 C361 1.438 . S
C360 C365 1.429 . S
C361 C344 1.394 . S
C361 C360 1.438 . S
C361 C362 1.428 . S
C362 H354 0.949 . S
C362 C361 1.428 . S
C362 C363 1.345 . S
C363 H355 0.950 . S
C363 C362 1.345 . S
C363 C364 1.424 . S
C364 H356 0.951 . S
C364 C363 1.424 . S
C364 C365 1.347 . S
C365 H357 0.951 . S
C365 C360 1.429 . S
C365 C364 1.347 . S
H366 C367 0.951 . S
C367 H366 0.951 . S
C367 C373 1.265 . S
H368 C373 0.950 . S
H369 C377 0.949 . S
H370 C378 0.950 . S
H371 C379 0.951 . S
H372 C380 0.951 . S
C373 C367 1.265 . S
C373 H368 0.950 . S
C373 C374 1.478 . S
C374 C373 1.478 . S
C374 C375 1.397 . S
C374 C391 1.394 . S
C375 C374 1.397 . S
C375 C376 1.438 . S
C375 C380 1.429 . S
C376 C375 1.438 . S
C376 C377 1.428 . S
C376 C389 1.394 . S
C377 H369 0.949 . S
C377 C376 1.428 . S
C377 C378 1.345 . S
C378 H370 0.950 . S
C378 C377 1.345 . S
C378 C379 1.424 . S
C379 H371 0.951 . S
C379 C378 1.424 . S
C379 C380 1.347 . S
C380 H372 0.951 . S
C380 C375 1.429 . S
C380 C379 1.347 . S
H381 C382 0.951 . S
C382 H381 0.951 . S
C382 C388 1.265 . S
H383 C388 0.950 . S
H384 C392 0.949 . S
H385 C393 0.950 . S
H386 C394 0.951 . S
H387 C395 0.951 . S
C388 C382 1.265 . S
C388 H383 0.950 . S
C388 C389 1.478 . S
C389 C376 1.394 . S
C389 C388 1.478 . S
C389 C390 1.397 . S
C390 C389 1.397 . S
C390 C391 1.438 . S
C390 C395 1.429 . S
C391 C374 1.394 . S
C391 C390 1.438 . S
C391 C392 1.428 . S
C392 H384 0.949 . S
C392 C391 1.428 . S
C392 C393 1.345 . S
C393 H385 0.950 . S
C393 C392 1.345 . S
C393 C394 1.424 . S
C394 H386 0.951 . S
C394 C393 1.424 . S
C394 C395 1.347 . S
C395 H387 0.951 . S
C395 C390 1.429 . S
C395 C394 1.347 . S
H396 C397 0.951 . S
C397 H396 0.951 . S
C397 C403 1.265 . S
H398 C403 0.950 . S
H399 C407 0.949 . S
H400 C408 0.950 . S
H401 C409 0.951 . S
H402 C410 0.951 . S
C403 C397 1.265 . S
C403 H398 0.950 . S
C403 C404 1.478 . S
C404 C403 1.478 . S
C404 C405 1.397 . S
C404 C421 1.394 . S
C405 C404 1.397 . S
C405 C406 1.438 . S
C405 C410 1.429 . S
C406 C405 1.438 . S
C406 C407 1.428 . S
C406 C419 1.394 . S
C407 H399 0.949 . S
C407 C406 1.428 . S
C407 C408 1.345 . S
C408 H400 0.950 . S
C408 C407 1.345 . S
C408 C409 1.424 . S
C409 H401 0.951 . S
C409 C408 1.424 . S
C409 C410 1.347 . S
C410 H402 0.951 . S
C410 C405 1.429 . S
C410 C409 1.347 . S
H411 C412 0.951 . S
C412 H411 0.951 . S
C412 C418 1.265 . S
H413 C418 0.950 . S
H414 C422 0.949 . S
H415 C423 0.950 . S
H416 C424 0.951 . S
H417 C425 0.951 . S
C418 C412 1.265 . S
C418 H413 0.950 . S
C418 C419 1.478 . S
C419 C406 1.394 . S
C419 C418 1.478 . S
C419 C420 1.397 . S
C420 C419 1.397 . S
C420 C421 1.438 . S
C420 C425 1.429 . S
C421 C404 1.394 . S
C421 C420 1.438 . S
C421 C422 1.428 . S
C422 H414 0.949 . S
C422 C421 1.428 . S
C422 C423 1.345 . S
C423 H415 0.950 . S
C423 C422 1.345 . S
C423 C424 1.424 . S
C424 H416 0.951 . S
C424 C423 1.424 . S
C424 C425 1.347 . S
C425 H417 0.951 . S
C425 C420 1.429 . S
C425 C424 1.347 . S
H426 C427 0.951 . S
C427 H426 0.951 . S
C427 C433 1.265 . S
H428 C433 0.950 . S
H429 C437 0.949 . S
H430 C438 0.950 . S
H431 C439 0.951 . S
H432 C440 0.951 . S
C433 C427 1.265 . S
C433 H428 0.950 . S
C433 C434 1.478 . S
C434 C433 1.478 . S
C434 C435 1.397 . S
C434 C451 1.394 . S
C435 C434 1.397 . S
C435 C436 1.438 . S
C435 C440 1.429 . S
C436 C435 1.438 . S
C436 C437 1.428 . S
C436 C449 1.394 . S
C437 H429 0.949 . S
C437 C436 1.428 . S
C437 C438 1.345 . S
C438 H430 0.950 . S
C438 C437 1.345 . S
C438 C439 1.424 . S
C439 H431 0.951 . S
C439 C438 1.424 . S
C439 C440 1.347 . S
C440 H432 0.951 . S
C440 C435 1.429 . S
C440 C439 1.347 . S
H441 C442 0.951 . S
C442 H441 0.951 . S
C442 C448 1.265 . S
H443 C448 0.950 . S
H444 C452 0.949 . S
H445 C453 0.950 . S
H446 C454 0.951 . S
H447 C455 0.951 . S
C448 C442 1.265 . S
C448 H443 0.950 . S
C448 C449 1.478 . S
C449 C436 1.394 . S
C449 C448 1.478 . S
C449 C450 1.397 . S
C450 C449 1.397 . S
C450 C451 1.438 . S
C450 C455 1.429 . S
C451 C434 1.394 . S
C451 C450 1.438 . S
C451 C452 1.428 . S
C452 H444 0.949 . S
C452 C451 1.428 . S
C452 C453 1.345 . S
C453 H445 0.950 . S
C453 C452 1.345 . S
C453 C454 1.424 . S
C454 H446 0.951 . S
C454 C453 1.424 . S
C454 C455 1.347 . S
C455 H447 0.951 . S
C455 C450 1.429 . S
C455 C454 1.347 . S
H456 C457 0.951 . S
C457 H456 0.951 . S
C457 C463 1.265 . S
H458 C463 0.950 . S
H459 C467 0.949 . S
H460 C468 0.950 . S
H461 C469 0.951 . S
H462 C470 0.951 . S
C463 C457 1.265 . S
C463 H458 0.950 . S
C463 C464 1.478 . S
C464 C463 1.478 . S
C464 C465 1.397 . S
C464 C481 1.394 . S
C465 C464 1.397 . S
C465 C466 1.438 . S
C465 C470 1.429 . S
C466 C465 1.438 . S
C466 C467 1.428 . S
C466 C479 1.394 . S
C467 H459 0.949 . S
C467 C466 1.428 . S
C467 C468 1.345 . S
C468 H460 0.950 . S
C468 C467 1.345 . S
C468 C469 1.424 . S
C469 H461 0.951 . S
C469 C468 1.424 . S
C469 C470 1.347 . S
C470 H462 0.951 . S
C470 C465 1.429 . S
C470 C469 1.347 . S
H471 C472 0.951 . S
C472 H471 0.951 . S
C472 C478 1.265 . S
H473 C478 0.951 . S
H474 C482 0.949 1_565 S
H475 C483 0.950 . S
H476 C484 0.951 . S
H477 C485 0.951 . S
C478 C472 1.265 . S
C478 H473 0.951 . S
C478 C479 1.478 . S
C479 C466 1.394 . S
C479 C478 1.478 . S
C479 C480 1.397 . S
C480 C479 1.397 . S
C480 C481 1.438 . S
C480 C485 1.429 1_565 S
C481 C464 1.394 . S
C481 C480 1.438 . S
C481 C482 1.428 1_565 S
C482 H474 0.949 1_545 S
C482 C481 1.428 1_545 S
C482 C483 1.345 . S
C483 H475 0.950 . S
C483 C482 1.345 . S
C483 C484 1.424 . S
C484 H476 0.951 . S
C484 C483 1.424 . S
C484 C485 1.347 . S
C485 H477 0.951 . S
C485 C480 1.429 1_545 S
C485 C484 1.347 . S
H486 C487 0.951 . S
C487 H486 0.951 . S
C487 C493 1.265 . S
H488 C493 0.950 . S
H489 C497 0.949 1_565 S
H490 C498 0.950 . S
H491 C499 0.951 . S
H492 C500 0.951 . S
C493 C487 1.265 . S
C493 H488 0.950 . S
C493 C494 1.478 . S
C494 C493 1.478 . S
C494 C495 1.397 . S
C494 C511 1.394 . S
C495 C494 1.397 . S
C495 C496 1.438 . S
C495 C500 1.429 . S
C496 C495 1.438 . S
C496 C497 1.428 . S
C496 C509 1.394 . S
C497 H489 0.949 1_545 S
C497 C496 1.428 . S
C497 C498 1.345 1_545 S
C498 H490 0.950 . S
C498 C497 1.345 1_565 S
C498 C499 1.424 . S
C499 H491 0.951 . S
C499 C498 1.424 . S
C499 C500 1.347 1_565 S
C500 H492 0.951 . S
C500 C495 1.429 . S
C500 C499 1.347 1_545 S
H501 C502 0.951 . S
C502 H501 0.951 . S
C502 C508 1.265 . S
H503 C508 0.950 . S
H504 C512 0.949 . S
H505 C513 0.950 . S
H506 C514 0.951 . S
H507 C515 0.951 . S
C508 C502 1.265 . S
C508 H503 0.950 . S
C508 C509 1.478 . S
C509 C496 1.394 . S
C509 C508 1.478 . S
C509 C510 1.397 . S
C510 C509 1.397 . S
C510 C511 1.438 . S
C510 C515 1.429 . S
C511 C494 1.394 . S
C511 C510 1.438 . S
C511 C512 1.428 . S
C512 H504 0.949 . S
C512 C511 1.428 . S
C512 C513 1.345 . S
C513 H505 0.950 . S
C513 C512 1.345 . S
C513 C514 1.424 . S
C514 H506 0.951 . S
C514 C513 1.424 . S
C514 C515 1.347 . S
C515 H507 0.951 . S
C515 C510 1.429 . S
C515 C514 1.347 . S
H516 C517 0.951 . S
C517 H516 0.951 . S
C517 C523 1.265 . S
H518 C523 0.950 . S
H519 C527 0.949 . S
H520 C528 0.950 . S
H521 C529 0.951 . S
H522 C530 0.951 . S
C523 C517 1.265 . S
C523 H518 0.950 . S
C523 C524 1.478 . S
C524 C523 1.478 . S
C524 C525 1.397 . S
C524 C541 1.394 . S
C525 C524 1.397 . S
C525 C526 1.438 . S
C525 C530 1.429 . S
C526 C525 1.438 . S
C526 C527 1.428 . S
C526 C539 1.394 . S
C527 H519 0.949 . S
C527 C526 1.428 . S
C527 C528 1.345 . S
C528 H520 0.950 . S
C528 C527 1.345 . S
C528 C529 1.424 . S
C529 H521 0.951 . S
C529 C528 1.424 . S
C529 C530 1.347 . S
C530 H522 0.951 . S
C530 C525 1.429 . S
C530 C529 1.347 . S
H531 C532 0.951 . S
C532 H531 0.951 . S
C532 C538 1.265 . S
H533 C538 0.950 . S
H534 C542 0.949 . S
H535 C543 0.950 . S
H536 C544 0.951 . S
H537 C545 0.951 . S
C538 C532 1.265 . S
C538 H533 0.950 . S
C538 C539 1.478 . S
C539 C526 1.394 . S
C539 C538 1.478 . S
C539 C540 1.397 . S
C540 C539 1.397 . S
C540 C541 1.438 . S
C540 C545 1.429 1_655 S
C541 C524 1.394 . S
C541 C540 1.438 . S
C541 C542 1.428 1_655 S
C542 H534 0.949 . S
C542 C541 1.428 1_455 S
C542 C543 1.345 . S
C543 H535 0.950 . S
C543 C542 1.345 . S
C543 C544 1.424 . S
C544 H536 0.951 . S
C544 C543 1.424 . S
C544 C545 1.347 . S
C545 H537 0.951 . S
C545 C540 1.429 1_455 S
C545 C544 1.347 . S
H546 C547 0.951 . S
C547 H546 0.951 . S
C547 C553 1.265 . S
H548 C553 0.950 . S
H549 C557 0.949 . S
H550 C558 0.950 . S
H551 C559 0.951 . S
H552 C560 0.951 . S
C553 C547 1.265 . S
C553 H548 0.950 . S
C553 C554 1.478 . S
C554 C553 1.478 . S
C554 C555 1.397 . S
C554 C571 1.394 . S
C555 C554 1.397 . S
C555 C556 1.438 . S
C555 C560 1.429 . S
C556 C555 1.438 . S
C556 C557 1.428 . S
C556 C569 1.394 . S
C557 H549 0.949 . S
C557 C556 1.428 . S
C557 C558 1.345 . S
C558 H550 0.950 . S
C558 C557 1.345 . S
C558 C559 1.424 . S
C559 H551 0.951 . S
C559 C558 1.424 . S
C559 C560 1.347 . S
C560 H552 0.951 . S
C560 C555 1.429 . S
C560 C559 1.347 . S
H561 C562 0.951 . S
C562 H561 0.951 . S
C562 C568 1.265 . S
H563 C568 0.950 . S
H564 C572 0.949 . S
H565 C573 0.950 . S
H566 C574 0.951 . S
H567 C575 0.951 . S
C568 C562 1.265 . S
C568 H563 0.950 . S
C568 C569 1.478 . S
C569 C556 1.394 . S
C569 C568 1.478 . S
C569 C570 1.397 . S
C570 C569 1.397 . S
C570 C571 1.438 . S
C570 C575 1.429 . S
C571 C554 1.394 . S
C571 C570 1.438 . S
C571 C572 1.428 . S
C572 H564 0.949 . S
C572 C571 1.428 . S
C572 C573 1.345 . S
C573 H565 0.950 . S
C573 C572 1.345 . S
C573 C574 1.424 . S
C574 H566 0.951 . S
C574 C573 1.424 . S
C574 C575 1.347 . S
C575 H567 0.951 . S
C575 C570 1.429 . S
C575 C574 1.347 . S
H576 C577 0.951 . S
C577 H576 0.951 . S
C577 C583 1.265 . S
H578 C583 0.950 . S
H579 C587 0.949 . S
H580 C588 0.950 . S
H581 C589 0.951 . S
H582 C590 0.951 . S
C583 C577 1.265 . S
C583 H578 0.950 . S
C583 C584 1.478 . S
C584 C583 1.478 . S
C584 C585 1.397 . S
C584 C601 1.394 . S
C585 C584 1.397 . S
C585 C586 1.438 . S
C585 C590 1.429 . S
C586 C585 1.438 . S
C586 C587 1.428 . S
C586 C599 1.394 1_455 S
C587 H579 0.949 . S
C587 C586 1.428 . S
C587 C588 1.345 . S
C588 H580 0.950 . S
C588 C587 1.345 . S
C588 C589 1.424 . S
C589 H581 0.951 . S
C589 C588 1.424 . S
C589 C590 1.347 . S
C590 H582 0.951 . S
C590 C585 1.429 . S
C590 C589 1.347 . S
H591 C592 0.951 . S
C592 H591 0.951 . S
C592 C598 1.265 . S
H593 C598 0.950 . S
H594 C602 0.949 . S
H595 C603 0.950 . S
H596 C604 0.951 . S
H597 C605 0.951 . S
C598 C592 1.265 . S
C598 H593 0.950 . S
C598 C599 1.478 . S
C599 C586 1.394 1_655 S
C599 C598 1.478 . S
C599 C600 1.397 . S
C600 C599 1.397 . S
C600 C601 1.438 1_655 S
C600 C605 1.429 . S
C601 C584 1.394 . S
C601 C600 1.438 1_455 S
C601 C602 1.428 . S
C602 H594 0.949 . S
C602 C601 1.428 . S
C602 C603 1.345 1_455 S
C603 H595 0.950 . S
C603 C602 1.345 1_655 S
C603 C604 1.424 . S
C604 H596 0.951 . S
C604 C603 1.424 . S
C604 C605 1.347 . S
C605 H597 0.951 . S
C605 C600 1.429 . S
C605 C604 1.347 . S
H606 C607 0.951 . S
C607 H606 0.951 . S
C607 C613 1.265 . S
H608 C613 0.950 . S
H609 C617 0.949 . S
H610 C618 0.950 . S
H611 C619 0.951 . S
H612 C620 0.951 . S
C613 C607 1.265 . S
C613 H608 0.950 . S
C613 C614 1.478 . S
C614 C613 1.478 . S
C614 C615 1.397 . S
C614 C631 1.394 . S
C615 C614 1.397 . S
C615 C616 1.438 . S
C615 C620 1.429 . S
C616 C615 1.438 . S
C616 C617 1.428 . S
C616 C629 1.394 . S
C617 H609 0.949 . S
C617 C616 1.428 . S
C617 C618 1.345 . S
C618 H610 0.950 . S
C618 C617 1.345 . S
C618 C619 1.424 . S
C619 H611 0.951 . S
C619 C618 1.424 . S
C619 C620 1.347 . S
C620 H612 0.951 . S
C620 C615 1.429 . S
C620 C619 1.347 . S
H621 C622 0.951 . S
C622 H621 0.951 . S
C622 C628 1.265 . S
H623 C628 0.950 . S
H624 C632 0.949 . S
H625 C633 0.950 . S
H626 C634 0.951 . S
H627 C635 0.951 . S
C628 C622 1.265 . S
C628 H623 0.950 . S
C628 C629 1.478 . S
C629 C616 1.394 . S
C629 C628 1.478 . S
C629 C630 1.397 . S
C630 C629 1.397 . S
C630 C631 1.438 . S
C630 C635 1.429 . S
C631 C614 1.394 . S
C631 C630 1.438 . S
C631 C632 1.428 . S
C632 H624 0.949 . S
C632 C631 1.428 . S
C632 C633 1.345 . S
C633 H625 0.950 . S
C633 C632 1.345 . S
C633 C634 1.424 . S
C634 H626 0.951 . S
C634 C633 1.424 . S
C634 C635 1.347 . S
C635 H627 0.951 . S
C635 C630 1.429 . S
C635 C634 1.347 . S
H636 C637 0.951 . S
C637 H636 0.951 . S
C637 C643 1.265 . S
H638 C643 0.950 . S
H639 C647 0.949 . S
H640 C648 0.950 . S
H641 C649 0.951 . S
H642 C650 0.951 . S
C643 C637 1.265 . S
C643 H638 0.950 . S
C643 C644 1.478 . S
C644 C643 1.478 . S
C644 C645 1.397 1_565 S
C644 C661 1.394 . S
C645 C644 1.397 1_545 S
C645 C646 1.438 . S
C645 C650 1.429 . S
C646 C645 1.438 . S
C646 C647 1.428 . S
C646 C659 1.394 . S
C647 H639 0.949 . S
C647 C646 1.428 . S
C647 C648 1.345 . S
C648 H640 0.950 . S
C648 C647 1.345 . S
C648 C649 1.424 . S
C649 H641 0.951 . S
C649 C648 1.424 . S
C649 C650 1.347 . S
C650 H642 0.951 . S
C650 C645 1.429 . S
C650 C649 1.347 . S
H651 C652 0.951 . S
C652 H651 0.951 . S
C652 C658 1.265 . S
H653 C658 0.950 . S
H654 C662 0.949 . S
H655 C663 0.950 . S
H656 C664 0.951 . S
H657 C665 0.951 . S
C658 C652 1.265 . S
C658 H653 0.950 . S
C658 C659 1.478 . S
C659 C646 1.394 . S
C659 C658 1.478 . S
C659 C660 1.397 1_545 S
C660 C659 1.397 1_565 S
C660 C661 1.438 . S
C660 C665 1.429 . S
C661 C644 1.394 . S
C661 C660 1.438 . S
C661 C662 1.428 . S
C662 H654 0.949 . S
C662 C661 1.428 . S
C662 C663 1.345 . S
C663 H655 0.950 . S
C663 C662 1.345 . S
C663 C664 1.424 . S
C664 H656 0.951 . S
C664 C663 1.424 . S
C664 C665 1.347 . S
C665 H657 0.951 . S
C665 C660 1.429 . S
C665 C664 1.347 . S
C127 C36 0.994 . S
C142 C7 1.091 . S
C157 C22 0.998 . S
C172 C8 1.044 . S
C187 C21 0.996 . S
C202 C35 0.895 . S
C217 C77 0.951 . S
C232 C50 1.013 . S
C247 C64 0.916 . S
C262 C49 1.017 . S
C277 C63 1.082 . S
C292 C78 0.989 . S
C307 C91 0.922 . S
C322 C120 1.003 . S
C337 C92 1.043 . S
C352 C106 0.996 . S
C367 C105 0.967 . S
C382 C119 0.894 . S
C397 C11 1.301 . S
C412 C109 1.361 . S
C427 C27 1.243 . S
C442 C125 1.295 . S
C457 C97 1.221 . S
C472 C39 1.307 . S
C487 C69 1.278 . S
C502 C41 1.312 . S
C517 C13 1.245 . S
C532 C83 1.253 . S
C547 C55 1.328 . S
C562 C25 1.305 . S
C577 C111 1.235 . S
C592 C81 1.303 . S
C607 C53 1.276 . S
C622 C123 1.284 . S
C637 C95 1.317 . S
C652 C67 1.364 . S
