# Generated by pormake.
# Topology ulh, (4)-cn, num edge types: 1
# Building blocks:
#     Node 0, Type 0, BuildingBlock: MUDLON_clean_sbu_0, # of connection points: 4
#     Node 1, Type 0, BuildingBlock: MUDLON_clean_sbu_0, # of connection points: 4
#     Node 2, Type 0, BuildingBlock: MUDLON_clean_sbu_0, # of connection points: 4
#     Node 3, Type 0, BuildingBlock: MUDLON_clean_sbu_0, # of connection points: 4
#     Node 4, Type 0, BuildingBlock: MUDLON_clean_sbu_0, # of connection points: 4
#     Node 5, Type 0, BuildingBlock: MUDLON_clean_sbu_0, # of connection points: 4
#     Node 6, Type 0, BuildingBlock: MUDLON_clean_sbu_0, # of connection points: 4
#     Node 7, Type 0, BuildingBlock: MUDLON_clean_sbu_0, # of connection points: 4
#     Node 8, Type 0, BuildingBlock: MUDLON_clean_sbu_0, # of connection points: 4
#     Node 9, Type 0, BuildingBlock: MUDLON_clean_sbu_0, # of connection points: 4
#     Node 10, Type 0, BuildingBlock: MUDLON_clean_sbu_0, # of connection points: 4
#     Node 11, Type 0, BuildingBlock: MUDLON_clean_sbu_0, # of connection points: 4
#     Node 12, Type 0, BuildingBlock: MUDLON_clean_sbu_0, # of connection points: 4
#     Node 13, Type 0, BuildingBlock: MUDLON_clean_sbu_0, # of connection points: 4
#     Node 14, Type 0, BuildingBlock: MUDLON_clean_sbu_0, # of connection points: 4
#     Node 15, Type 0, BuildingBlock: MUDLON_clean_sbu_0, # of connection points: 4
#     Node 16, Type 0, BuildingBlock: MUDLON_clean_sbu_0, # of connection points: 4
#     Node 17, Type 0, BuildingBlock: MUDLON_clean_sbu_0, # of connection points: 4
#     Node 18, Type 0, BuildingBlock: MUDLON_clean_sbu_0, # of connection points: 4
#     Node 19, Type 0, BuildingBlock: MUDLON_clean_sbu_0, # of connection points: 4
#     Node 20, Type 0, BuildingBlock: MUDLON_clean_sbu_0, # of connection points: 4
#     Node 21, Type 0, BuildingBlock: MUDLON_clean_sbu_0, # of connection points: 4
#     Node 22, Type 0, BuildingBlock: MUDLON_clean_sbu_0, # of connection points: 4
#     Node 23, Type 0, BuildingBlock: MUDLON_clean_sbu_0, # of connection points: 4
#     Node 24, Type 0, BuildingBlock: MUDLON_clean_sbu_0, # of connection points: 4
#     Node 25, Type 0, BuildingBlock: MUDLON_clean_sbu_0, # of connection points: 4
#     Node 26, Type 0, BuildingBlock: MUDLON_clean_sbu_0, # of connection points: 4
#     Node 27, Type 0, BuildingBlock: MUDLON_clean_sbu_0, # of connection points: 4
#     Node 28, Type 0, BuildingBlock: MUDLON_clean_sbu_0, # of connection points: 4
#     Node 29, Type 0, BuildingBlock: MUDLON_clean_sbu_0, # of connection points: 4
#     Node 30, Type 0, BuildingBlock: MUDLON_clean_sbu_0, # of connection points: 4
#     Node 31, Type 0, BuildingBlock: MUDLON_clean_sbu_0, # of connection points: 4
#     Node 32, Type 0, BuildingBlock: MUDLON_clean_sbu_0, # of connection points: 4
#     Node 33, Type 0, BuildingBlock: MUDLON_clean_sbu_0, # of connection points: 4
#     Node 34, Type 0, BuildingBlock: MUDLON_clean_sbu_0, # of connection points: 4
#     Node 35, Type 0, BuildingBlock: MUDLON_clean_sbu_0, # of connection points: 4
#     Node 36, Type 0, BuildingBlock: MUDLON_clean_sbu_0, # of connection points: 4
#     Node 37, Type 0, BuildingBlock: MUDLON_clean_sbu_0, # of connection points: 4
#     Node 38, Type 0, BuildingBlock: MUDLON_clean_sbu_0, # of connection points: 4
#     Node 39, Type 0, BuildingBlock: MUDLON_clean_sbu_0, # of connection points: 4
#     Node 40, Type 0, BuildingBlock: MUDLON_clean_sbu_0, # of connection points: 4
#     Node 41, Type 0, BuildingBlock: MUDLON_clean_sbu_0, # of connection points: 4
#     Node 42, Type 0, BuildingBlock: MUDLON_clean_sbu_0, # of connection points: 4
#     Node 43, Type 0, BuildingBlock: MUDLON_clean_sbu_0, # of connection points: 4
#     Node 44, Type 0, BuildingBlock: MUDLON_clean_sbu_0, # of connection points: 4
#     Node 45, Type 0, BuildingBlock: MUDLON_clean_sbu_0, # of connection points: 4
#     Node 46, Type 0, BuildingBlock: MUDLON_clean_sbu_0, # of connection points: 4
#     Node 47, Type 0, BuildingBlock: MUDLON_clean_sbu_0, # of connection points: 4
#     Node 48, Type 0, BuildingBlock: MUDLON_clean_sbu_0, # of connection points: 4
#     Node 49, Type 0, BuildingBlock: MUDLON_clean_sbu_0, # of connection points: 4
#     Node 50, Type 0, BuildingBlock: MUDLON_clean_sbu_0, # of connection points: 4
#     Node 51, Type 0, BuildingBlock: MUDLON_clean_sbu_0, # of connection points: 4
#     Node 52, Type 0, BuildingBlock: MUDLON_clean_sbu_0, # of connection points: 4
#     Node 53, Type 0, BuildingBlock: MUDLON_clean_sbu_0, # of connection points: 4
#     Node 54, Type 0, BuildingBlock: MUDLON_clean_sbu_0, # of connection points: 4
#     Node 55, Type 0, BuildingBlock: MUDLON_clean_sbu_0, # of connection points: 4
#     Node 56, Type 0, BuildingBlock: MUDLON_clean_sbu_0, # of connection points: 4
#     Node 57, Type 0, BuildingBlock: MUDLON_clean_sbu_0, # of connection points: 4
#     Node 58, Type 0, BuildingBlock: MUDLON_clean_sbu_0, # of connection points: 4
#     Node 59, Type 0, BuildingBlock: MUDLON_clean_sbu_0, # of connection points: 4
#     Node 60, Type 0, BuildingBlock: MUDLON_clean_sbu_0, # of connection points: 4
#     Node 61, Type 0, BuildingBlock: MUDLON_clean_sbu_0, # of connection points: 4
#     Node 62, Type 0, BuildingBlock: MUDLON_clean_sbu_0, # of connection points: 4
#     Node 63, Type 0, BuildingBlock: MUDLON_clean_sbu_0, # of connection points: 4
#     Node 64, Type 0, BuildingBlock: MUDLON_clean_sbu_0, # of connection points: 4
#     Node 65, Type 0, BuildingBlock: MUDLON_clean_sbu_0, # of connection points: 4
#     Node 66, Type 0, BuildingBlock: MUDLON_clean_sbu_0, # of connection points: 4
#     Node 67, Type 0, BuildingBlock: MUDLON_clean_sbu_0, # of connection points: 4
#     Node 68, Type 0, BuildingBlock: MUDLON_clean_sbu_0, # of connection points: 4
#     Node 69, Type 0, BuildingBlock: MUDLON_clean_sbu_0, # of connection points: 4
#     Node 70, Type 0, BuildingBlock: MUDLON_clean_sbu_0, # of connection points: 4
#     Node 71, Type 0, BuildingBlock: MUDLON_clean_sbu_0, # of connection points: 4
#     Node 72, Type 0, BuildingBlock: MUDLON_clean_sbu_0, # of connection points: 4
#     Node 73, Type 0, BuildingBlock: MUDLON_clean_sbu_0, # of connection points: 4
#     Node 74, Type 0, BuildingBlock: MUDLON_clean_sbu_0, # of connection points: 4
#     Node 75, Type 0, BuildingBlock: MUDLON_clean_sbu_0, # of connection points: 4
#     Node 76, Type 0, BuildingBlock: MUDLON_clean_sbu_0, # of connection points: 4
#     Node 77, Type 0, BuildingBlock: MUDLON_clean_sbu_0, # of connection points: 4
#     Node 78, Type 0, BuildingBlock: MUDLON_clean_sbu_0, # of connection points: 4
#     Node 79, Type 0, BuildingBlock: MUDLON_clean_sbu_0, # of connection points: 4
#     Node 80, Type 0, BuildingBlock: MUDLON_clean_sbu_0, # of connection points: 4
#     Node 81, Type 0, BuildingBlock: MUDLON_clean_sbu_0, # of connection points: 4
#     Node 82, Type 0, BuildingBlock: MUDLON_clean_sbu_0, # of connection points: 4
#     Node 83, Type 0, BuildingBlock: MUDLON_clean_sbu_0, # of connection points: 4
#     Node 84, Type 0, BuildingBlock: MUDLON_clean_sbu_0, # of connection points: 4
#     Node 85, Type 0, BuildingBlock: MUDLON_clean_sbu_0, # of connection points: 4
#     Node 86, Type 0, BuildingBlock: MUDLON_clean_sbu_0, # of connection points: 4
#     Node 87, Type 0, BuildingBlock: MUDLON_clean_sbu_0, # of connection points: 4
#     Node 88, Type 0, BuildingBlock: MUDLON_clean_sbu_0, # of connection points: 4
#     Node 89, Type 0, BuildingBlock: MUDLON_clean_sbu_0, # of connection points: 4
#     Node 90, Type 0, BuildingBlock: MUDLON_clean_sbu_0, # of connection points: 4
#     Node 91, Type 0, BuildingBlock: MUDLON_clean_sbu_0, # of connection points: 4
#     Node 92, Type 0, BuildingBlock: MUDLON_clean_sbu_0, # of connection points: 4
#     Node 93, Type 0, BuildingBlock: MUDLON_clean_sbu_0, # of connection points: 4
#     Node 94, Type 0, BuildingBlock: MUDLON_clean_sbu_0, # of connection points: 4
#     Node 95, Type 0, BuildingBlock: MUDLON_clean_sbu_0, # of connection points: 4
#     Edge 96, Type (0, 0), BuildingBlock: AJUNOK_clean_linker_0, # of connection points: 2
#     Edge 97, Type (0, 0), BuildingBlock: AJUNOK_clean_linker_0, # of connection points: 2
#     Edge 98, Type (0, 0), BuildingBlock: AJUNOK_clean_linker_0, # of connection points: 2
#     Edge 99, Type (0, 0), BuildingBlock: AJUNOK_clean_linker_0, # of connection points: 2
#     Edge 100, Type (0, 0), BuildingBlock: AJUNOK_clean_linker_0, # of connection points: 2
#     Edge 101, Type (0, 0), BuildingBlock: AJUNOK_clean_linker_0, # of connection points: 2
#     Edge 102, Type (0, 0), BuildingBlock: AJUNOK_clean_linker_0, # of connection points: 2
#     Edge 103, Type (0, 0), BuildingBlock: AJUNOK_clean_linker_0, # of connection points: 2
#     Edge 104, Type (0, 0), BuildingBlock: AJUNOK_clean_linker_0, # of connection points: 2
#     Edge 105, Type (0, 0), BuildingBlock: AJUNOK_clean_linker_0, # of connection points: 2
#     Edge 106, Type (0, 0), BuildingBlock: AJUNOK_clean_linker_0, # of connection points: 2
#     Edge 107, Type (0, 0), BuildingBlock: AJUNOK_clean_linker_0, # of connection points: 2
#     Edge 108, Type (0, 0), BuildingBlock: AJUNOK_clean_linker_0, # of connection points: 2
#     Edge 109, Type (0, 0), BuildingBlock: AJUNOK_clean_linker_0, # of connection points: 2
#     Edge 110, Type (0, 0), BuildingBlock: AJUNOK_clean_linker_0, # of connection points: 2
#     Edge 111, Type (0, 0), BuildingBlock: AJUNOK_clean_linker_0, # of connection points: 2
#     Edge 112, Type (0, 0), BuildingBlock: AJUNOK_clean_linker_0, # of connection points: 2
#     Edge 113, Type (0, 0), BuildingBlock: AJUNOK_clean_linker_0, # of connection points: 2
#     Edge 114, Type (0, 0), BuildingBlock: AJUNOK_clean_linker_0, # of connection points: 2
#     Edge 115, Type (0, 0), BuildingBlock: AJUNOK_clean_linker_0, # of connection points: 2
#     Edge 116, Type (0, 0), BuildingBlock: AJUNOK_clean_linker_0, # of connection points: 2
#     Edge 117, Type (0, 0), BuildingBlock: AJUNOK_clean_linker_0, # of connection points: 2
#     Edge 118, Type (0, 0), BuildingBlock: AJUNOK_clean_linker_0, # of connection points: 2
#     Edge 119, Type (0, 0), BuildingBlock: AJUNOK_clean_linker_0, # of connection points: 2
#     Edge 120, Type (0, 0), BuildingBlock: AJUNOK_clean_linker_0, # of connection points: 2
#     Edge 121, Type (0, 0), BuildingBlock: AJUNOK_clean_linker_0, # of connection points: 2
#     Edge 122, Type (0, 0), BuildingBlock: AJUNOK_clean_linker_0, # of connection points: 2
#     Edge 123, Type (0, 0), BuildingBlock: AJUNOK_clean_linker_0, # of connection points: 2
#     Edge 124, Type (0, 0), BuildingBlock: AJUNOK_clean_linker_0, # of connection points: 2
#     Edge 125, Type (0, 0), BuildingBlock: AJUNOK_clean_linker_0, # of connection points: 2
#     Edge 126, Type (0, 0), BuildingBlock: AJUNOK_clean_linker_0, # of connection points: 2
#     Edge 127, Type (0, 0), BuildingBlock: AJUNOK_clean_linker_0, # of connection points: 2
#     Edge 128, Type (0, 0), BuildingBlock: AJUNOK_clean_linker_0, # of connection points: 2
#     Edge 129, Type (0, 0), BuildingBlock: AJUNOK_clean_linker_0, # of connection points: 2
#     Edge 130, Type (0, 0), BuildingBlock: AJUNOK_clean_linker_0, # of connection points: 2
#     Edge 131, Type (0, 0), BuildingBlock: AJUNOK_clean_linker_0, # of connection points: 2
#     Edge 132, Type (0, 0), BuildingBlock: AJUNOK_clean_linker_0, # of connection points: 2
#     Edge 133, Type (0, 0), BuildingBlock: AJUNOK_clean_linker_0, # of connection points: 2
#     Edge 134, Type (0, 0), BuildingBlock: AJUNOK_clean_linker_0, # of connection points: 2
#     Edge 135, Type (0, 0), BuildingBlock: AJUNOK_clean_linker_0, # of connection points: 2
#     Edge 136, Type (0, 0), BuildingBlock: AJUNOK_clean_linker_0, # of connection points: 2
#     Edge 137, Type (0, 0), BuildingBlock: AJUNOK_clean_linker_0, # of connection points: 2
#     Edge 138, Type (0, 0), BuildingBlock: AJUNOK_clean_linker_0, # of connection points: 2
#     Edge 139, Type (0, 0), BuildingBlock: AJUNOK_clean_linker_0, # of connection points: 2
#     Edge 140, Type (0, 0), BuildingBlock: AJUNOK_clean_linker_0, # of connection points: 2
#     Edge 141, Type (0, 0), BuildingBlock: AJUNOK_clean_linker_0, # of connection points: 2
#     Edge 142, Type (0, 0), BuildingBlock: AJUNOK_clean_linker_0, # of connection points: 2
#     Edge 143, Type (0, 0), BuildingBlock: AJUNOK_clean_linker_0, # of connection points: 2
#     Edge 144, Type (0, 0), BuildingBlock: AJUNOK_clean_linker_0, # of connection points: 2
#     Edge 145, Type (0, 0), BuildingBlock: AJUNOK_clean_linker_0, # of connection points: 2
#     Edge 146, Type (0, 0), BuildingBlock: AJUNOK_clean_linker_0, # of connection points: 2
#     Edge 147, Type (0, 0), BuildingBlock: AJUNOK_clean_linker_0, # of connection points: 2
#     Edge 148, Type (0, 0), BuildingBlock: AJUNOK_clean_linker_0, # of connection points: 2
#     Edge 149, Type (0, 0), BuildingBlock: AJUNOK_clean_linker_0, # of connection points: 2
#     Edge 150, Type (0, 0), BuildingBlock: AJUNOK_clean_linker_0, # of connection points: 2
#     Edge 151, Type (0, 0), BuildingBlock: AJUNOK_clean_linker_0, # of connection points: 2
#     Edge 152, Type (0, 0), BuildingBlock: AJUNOK_clean_linker_0, # of connection points: 2
#     Edge 153, Type (0, 0), BuildingBlock: AJUNOK_clean_linker_0, # of connection points: 2
#     Edge 154, Type (0, 0), BuildingBlock: AJUNOK_clean_linker_0, # of connection points: 2
#     Edge 155, Type (0, 0), BuildingBlock: AJUNOK_clean_linker_0, # of connection points: 2
#     Edge 156, Type (0, 0), BuildingBlock: AJUNOK_clean_linker_0, # of connection points: 2
#     Edge 157, Type (0, 0), BuildingBlock: AJUNOK_clean_linker_0, # of connection points: 2
#     Edge 158, Type (0, 0), BuildingBlock: AJUNOK_clean_linker_0, # of connection points: 2
#     Edge 159, Type (0, 0), BuildingBlock: AJUNOK_clean_linker_0, # of connection points: 2
#     Edge 160, Type (0, 0), BuildingBlock: AJUNOK_clean_linker_0, # of connection points: 2
#     Edge 161, Type (0, 0), BuildingBlock: AJUNOK_clean_linker_0, # of connection points: 2
#     Edge 162, Type (0, 0), BuildingBlock: AJUNOK_clean_linker_0, # of connection points: 2
#     Edge 163, Type (0, 0), BuildingBlock: AJUNOK_clean_linker_0, # of connection points: 2
#     Edge 164, Type (0, 0), BuildingBlock: AJUNOK_clean_linker_0, # of connection points: 2
#     Edge 165, Type (0, 0), BuildingBlock: AJUNOK_clean_linker_0, # of connection points: 2
#     Edge 166, Type (0, 0), BuildingBlock: AJUNOK_clean_linker_0, # of connection points: 2
#     Edge 167, Type (0, 0), BuildingBlock: AJUNOK_clean_linker_0, # of connection points: 2
#     Edge 168, Type (0, 0), BuildingBlock: AJUNOK_clean_linker_0, # of connection points: 2
#     Edge 169, Type (0, 0), BuildingBlock: AJUNOK_clean_linker_0, # of connection points: 2
#     Edge 170, Type (0, 0), BuildingBlock: AJUNOK_clean_linker_0, # of connection points: 2
#     Edge 171, Type (0, 0), BuildingBlock: AJUNOK_clean_linker_0, # of connection points: 2
#     Edge 172, Type (0, 0), BuildingBlock: AJUNOK_clean_linker_0, # of connection points: 2
#     Edge 173, Type (0, 0), BuildingBlock: AJUNOK_clean_linker_0, # of connection points: 2
#     Edge 174, Type (0, 0), BuildingBlock: AJUNOK_clean_linker_0, # of connection points: 2
#     Edge 175, Type (0, 0), BuildingBlock: AJUNOK_clean_linker_0, # of connection points: 2
#     Edge 176, Type (0, 0), BuildingBlock: AJUNOK_clean_linker_0, # of connection points: 2
#     Edge 177, Type (0, 0), BuildingBlock: AJUNOK_clean_linker_0, # of connection points: 2
#     Edge 178, Type (0, 0), BuildingBlock: AJUNOK_clean_linker_0, # of connection points: 2
#     Edge 179, Type (0, 0), BuildingBlock: AJUNOK_clean_linker_0, # of connection points: 2
#     Edge 180, Type (0, 0), BuildingBlock: AJUNOK_clean_linker_0, # of connection points: 2
#     Edge 181, Type (0, 0), BuildingBlock: AJUNOK_clean_linker_0, # of connection points: 2
#     Edge 182, Type (0, 0), BuildingBlock: AJUNOK_clean_linker_0, # of connection points: 2
#     Edge 183, Type (0, 0), BuildingBlock: AJUNOK_clean_linker_0, # of connection points: 2
#     Edge 184, Type (0, 0), BuildingBlock: AJUNOK_clean_linker_0, # of connection points: 2
#     Edge 185, Type (0, 0), BuildingBlock: AJUNOK_clean_linker_0, # of connection points: 2
#     Edge 186, Type (0, 0), BuildingBlock: AJUNOK_clean_linker_0, # of connection points: 2
#     Edge 187, Type (0, 0), BuildingBlock: AJUNOK_clean_linker_0, # of connection points: 2
#     Edge 188, Type (0, 0), BuildingBlock: AJUNOK_clean_linker_0, # of connection points: 2
#     Edge 189, Type (0, 0), BuildingBlock: AJUNOK_clean_linker_0, # of connection points: 2
#     Edge 190, Type (0, 0), BuildingBlock: AJUNOK_clean_linker_0, # of connection points: 2
#     Edge 191, Type (0, 0), BuildingBlock: AJUNOK_clean_linker_0, # of connection points: 2
#     Edge 192, Type (0, 0), BuildingBlock: AJUNOK_clean_linker_0, # of connection points: 2
#     Edge 193, Type (0, 0), BuildingBlock: AJUNOK_clean_linker_0, # of connection points: 2
#     Edge 194, Type (0, 0), BuildingBlock: AJUNOK_clean_linker_0, # of connection points: 2
#     Edge 195, Type (0, 0), BuildingBlock: AJUNOK_clean_linker_0, # of connection points: 2
#     Edge 196, Type (0, 0), BuildingBlock: AJUNOK_clean_linker_0, # of connection points: 2
#     Edge 197, Type (0, 0), BuildingBlock: AJUNOK_clean_linker_0, # of connection points: 2
#     Edge 198, Type (0, 0), BuildingBlock: AJUNOK_clean_linker_0, # of connection points: 2
#     Edge 199, Type (0, 0), BuildingBlock: AJUNOK_clean_linker_0, # of connection points: 2
#     Edge 200, Type (0, 0), BuildingBlock: AJUNOK_clean_linker_0, # of connection points: 2
#     Edge 201, Type (0, 0), BuildingBlock: AJUNOK_clean_linker_0, # of connection points: 2
#     Edge 202, Type (0, 0), BuildingBlock: AJUNOK_clean_linker_0, # of connection points: 2
#     Edge 203, Type (0, 0), BuildingBlock: AJUNOK_clean_linker_0, # of connection points: 2
#     Edge 204, Type (0, 0), BuildingBlock: AJUNOK_clean_linker_0, # of connection points: 2
#     Edge 205, Type (0, 0), BuildingBlock: AJUNOK_clean_linker_0, # of connection points: 2
#     Edge 206, Type (0, 0), BuildingBlock: AJUNOK_clean_linker_0, # of connection points: 2
#     Edge 207, Type (0, 0), BuildingBlock: AJUNOK_clean_linker_0, # of connection points: 2
#     Edge 208, Type (0, 0), BuildingBlock: AJUNOK_clean_linker_0, # of connection points: 2
#     Edge 209, Type (0, 0), BuildingBlock: AJUNOK_clean_linker_0, # of connection points: 2
#     Edge 210, Type (0, 0), BuildingBlock: AJUNOK_clean_linker_0, # of connection points: 2
#     Edge 211, Type (0, 0), BuildingBlock: AJUNOK_clean_linker_0, # of connection points: 2
#     Edge 212, Type (0, 0), BuildingBlock: AJUNOK_clean_linker_0, # of connection points: 2
#     Edge 213, Type (0, 0), BuildingBlock: AJUNOK_clean_linker_0, # of connection points: 2
#     Edge 214, Type (0, 0), BuildingBlock: AJUNOK_clean_linker_0, # of connection points: 2
#     Edge 215, Type (0, 0), BuildingBlock: AJUNOK_clean_linker_0, # of connection points: 2
#     Edge 216, Type (0, 0), BuildingBlock: AJUNOK_clean_linker_0, # of connection points: 2
#     Edge 217, Type (0, 0), BuildingBlock: AJUNOK_clean_linker_0, # of connection points: 2
#     Edge 218, Type (0, 0), BuildingBlock: AJUNOK_clean_linker_0, # of connection points: 2
#     Edge 219, Type (0, 0), BuildingBlock: AJUNOK_clean_linker_0, # of connection points: 2
#     Edge 220, Type (0, 0), BuildingBlock: AJUNOK_clean_linker_0, # of connection points: 2
#     Edge 221, Type (0, 0), BuildingBlock: AJUNOK_clean_linker_0, # of connection points: 2
#     Edge 222, Type (0, 0), BuildingBlock: AJUNOK_clean_linker_0, # of connection points: 2
#     Edge 223, Type (0, 0), BuildingBlock: AJUNOK_clean_linker_0, # of connection points: 2
#     Edge 224, Type (0, 0), BuildingBlock: AJUNOK_clean_linker_0, # of connection points: 2
#     Edge 225, Type (0, 0), BuildingBlock: AJUNOK_clean_linker_0, # of connection points: 2
#     Edge 226, Type (0, 0), BuildingBlock: AJUNOK_clean_linker_0, # of connection points: 2
#     Edge 227, Type (0, 0), BuildingBlock: AJUNOK_clean_linker_0, # of connection points: 2
#     Edge 228, Type (0, 0), BuildingBlock: AJUNOK_clean_linker_0, # of connection points: 2
#     Edge 229, Type (0, 0), BuildingBlock: AJUNOK_clean_linker_0, # of connection points: 2
#     Edge 230, Type (0, 0), BuildingBlock: AJUNOK_clean_linker_0, # of connection points: 2
#     Edge 231, Type (0, 0), BuildingBlock: AJUNOK_clean_linker_0, # of connection points: 2
#     Edge 232, Type (0, 0), BuildingBlock: AJUNOK_clean_linker_0, # of connection points: 2
#     Edge 233, Type (0, 0), BuildingBlock: AJUNOK_clean_linker_0, # of connection points: 2
#     Edge 234, Type (0, 0), BuildingBlock: AJUNOK_clean_linker_0, # of connection points: 2
#     Edge 235, Type (0, 0), BuildingBlock: AJUNOK_clean_linker_0, # of connection points: 2
#     Edge 236, Type (0, 0), BuildingBlock: AJUNOK_clean_linker_0, # of connection points: 2
#     Edge 237, Type (0, 0), BuildingBlock: AJUNOK_clean_linker_0, # of connection points: 2
#     Edge 238, Type (0, 0), BuildingBlock: AJUNOK_clean_linker_0, # of connection points: 2
#     Edge 239, Type (0, 0), BuildingBlock: AJUNOK_clean_linker_0, # of connection points: 2
#     Edge 240, Type (0, 0), BuildingBlock: AJUNOK_clean_linker_0, # of connection points: 2
#     Edge 241, Type (0, 0), BuildingBlock: AJUNOK_clean_linker_0, # of connection points: 2
#     Edge 242, Type (0, 0), BuildingBlock: AJUNOK_clean_linker_0, # of connection points: 2
#     Edge 243, Type (0, 0), BuildingBlock: AJUNOK_clean_linker_0, # of connection points: 2
#     Edge 244, Type (0, 0), BuildingBlock: AJUNOK_clean_linker_0, # of connection points: 2
#     Edge 245, Type (0, 0), BuildingBlock: AJUNOK_clean_linker_0, # of connection points: 2
#     Edge 246, Type (0, 0), BuildingBlock: AJUNOK_clean_linker_0, # of connection points: 2
#     Edge 247, Type (0, 0), BuildingBlock: AJUNOK_clean_linker_0, # of connection points: 2
#     Edge 248, Type (0, 0), BuildingBlock: AJUNOK_clean_linker_0, # of connection points: 2
#     Edge 249, Type (0, 0), BuildingBlock: AJUNOK_clean_linker_0, # of connection points: 2
#     Edge 250, Type (0, 0), BuildingBlock: AJUNOK_clean_linker_0, # of connection points: 2
#     Edge 251, Type (0, 0), BuildingBlock: AJUNOK_clean_linker_0, # of connection points: 2
#     Edge 252, Type (0, 0), BuildingBlock: AJUNOK_clean_linker_0, # of connection points: 2
#     Edge 253, Type (0, 0), BuildingBlock: AJUNOK_clean_linker_0, # of connection points: 2
#     Edge 254, Type (0, 0), BuildingBlock: AJUNOK_clean_linker_0, # of connection points: 2
#     Edge 255, Type (0, 0), BuildingBlock: AJUNOK_clean_linker_0, # of connection points: 2
#     Edge 256, Type (0, 0), BuildingBlock: AJUNOK_clean_linker_0, # of connection points: 2
#     Edge 257, Type (0, 0), BuildingBlock: AJUNOK_clean_linker_0, # of connection points: 2
#     Edge 258, Type (0, 0), BuildingBlock: AJUNOK_clean_linker_0, # of connection points: 2
#     Edge 259, Type (0, 0), BuildingBlock: AJUNOK_clean_linker_0, # of connection points: 2
#     Edge 260, Type (0, 0), BuildingBlock: AJUNOK_clean_linker_0, # of connection points: 2
#     Edge 261, Type (0, 0), BuildingBlock: AJUNOK_clean_linker_0, # of connection points: 2
#     Edge 262, Type (0, 0), BuildingBlock: AJUNOK_clean_linker_0, # of connection points: 2
#     Edge 263, Type (0, 0), BuildingBlock: AJUNOK_clean_linker_0, # of connection points: 2
#     Edge 264, Type (0, 0), BuildingBlock: AJUNOK_clean_linker_0, # of connection points: 2
#     Edge 265, Type (0, 0), BuildingBlock: AJUNOK_clean_linker_0, # of connection points: 2
#     Edge 266, Type (0, 0), BuildingBlock: AJUNOK_clean_linker_0, # of connection points: 2
#     Edge 267, Type (0, 0), BuildingBlock: AJUNOK_clean_linker_0, # of connection points: 2
#     Edge 268, Type (0, 0), BuildingBlock: AJUNOK_clean_linker_0, # of connection points: 2
#     Edge 269, Type (0, 0), BuildingBlock: AJUNOK_clean_linker_0, # of connection points: 2
#     Edge 270, Type (0, 0), BuildingBlock: AJUNOK_clean_linker_0, # of connection points: 2
#     Edge 271, Type (0, 0), BuildingBlock: AJUNOK_clean_linker_0, # of connection points: 2
#     Edge 272, Type (0, 0), BuildingBlock: AJUNOK_clean_linker_0, # of connection points: 2
#     Edge 273, Type (0, 0), BuildingBlock: AJUNOK_clean_linker_0, # of connection points: 2
#     Edge 274, Type (0, 0), BuildingBlock: AJUNOK_clean_linker_0, # of connection points: 2
#     Edge 275, Type (0, 0), BuildingBlock: AJUNOK_clean_linker_0, # of connection points: 2
#     Edge 276, Type (0, 0), BuildingBlock: AJUNOK_clean_linker_0, # of connection points: 2
#     Edge 277, Type (0, 0), BuildingBlock: AJUNOK_clean_linker_0, # of connection points: 2
#     Edge 278, Type (0, 0), BuildingBlock: AJUNOK_clean_linker_0, # of connection points: 2
#     Edge 279, Type (0, 0), BuildingBlock: AJUNOK_clean_linker_0, # of connection points: 2
#     Edge 280, Type (0, 0), BuildingBlock: AJUNOK_clean_linker_0, # of connection points: 2
#     Edge 281, Type (0, 0), BuildingBlock: AJUNOK_clean_linker_0, # of connection points: 2
#     Edge 282, Type (0, 0), BuildingBlock: AJUNOK_clean_linker_0, # of connection points: 2
#     Edge 283, Type (0, 0), BuildingBlock: AJUNOK_clean_linker_0, # of connection points: 2
#     Edge 284, Type (0, 0), BuildingBlock: AJUNOK_clean_linker_0, # of connection points: 2
#     Edge 285, Type (0, 0), BuildingBlock: AJUNOK_clean_linker_0, # of connection points: 2
#     Edge 286, Type (0, 0), BuildingBlock: AJUNOK_clean_linker_0, # of connection points: 2
#     Edge 287, Type (0, 0), BuildingBlock: AJUNOK_clean_linker_0, # of connection points: 2
# Relax obj value: 0.240
# Max RMSD: 0.304
# Mean RMSD: 0.304
data_MOF--net-ulh--node1-MUDLON_clean_sbu_0--edge1-AJUNOK_clean_linker_0
_symmetry_space_group_name_H-M    P1
_symmetry_Int_Tables_number       1
_symmetry_cell_setting            triclinic
loop_
_symmetry_equiv_pos_as_xyz
'x, y, z'
_cell_length_a     64.300627
_cell_length_b     64.312967
_cell_length_c     64.245449
_cell_angle_alpha  90.013698
_cell_angle_beta   90.03268
_cell_angle_gamma 89.918882
loop_
_atom_site_label
_atom_site_type_symbol
_atom_site_fract_x
_atom_site_fract_y
_atom_site_fract_z
_atom_type_partial_charge
Mg0 Mg 0.03909 0.32393 0.09064 0.0
C1 C 0.0237 0.3125 0.0489 0.0
O2 O 0.03489 0.29627 0.05433 0.0
C3 C 0.05092 0.35404 0.12372 0.0
O4 O 0.06692 0.34132 0.12344 0.0
C5 C 0.03006 0.29324 0.12581 0.0
O6 O 0.03924 0.30784 0.13673 0.0
O7 O 0.0289 0.29537 0.10615 0.0
O8 O 0.02144 0.32723 0.06192 0.0
O9 O 0.0713 0.32625 0.0806 0.0
C10 C 0.0739 0.3414 0.0681 0.0
O11 O 0.05746 0.35204 0.06221 0.0
O12 O 0.03572 0.3504 0.11152 0.0
Mg13 Mg 0.92756 0.29338 0.33872 0.0
C14 C 0.9305 0.28134 0.29367 0.0
O15 O 0.93735 0.30055 0.29308 0.0
C16 C 0.90136 0.30131 0.37578 0.0
O17 O 0.91764 0.31318 0.37912 0.0
C18 C 0.96922 0.2737 0.34993 0.0
O19 O 0.96769 0.26717 0.33062 0.0
O20 O 0.95541 0.28608 0.35689 0.0
O21 O 0.92553 0.27347 0.31118 0.0
O22 O 0.92289 0.32506 0.32764 0.0
C23 C 0.90573 0.32642 0.31779 0.0
O24 O 0.89433 0.30958 0.31595 0.0
O25 O 0.90132 0.28971 0.35971 0.0
Mg26 Mg 0.96933 0.17959 0.58609 0.0
C27 C 0.97917 0.18506 0.54069 0.0
O28 O 0.96001 0.19214 0.54126 0.0
C29 C 0.96209 0.1501 0.62076 0.0
O30 O 0.94942 0.1655 0.6253 0.0
C31 C 0.98919 0.22073 0.59803 0.0
O32 O 0.99457 0.22002 0.57832 0.0
O33 O 0.97748 0.20647 0.60516 0.0
O34 O 0.98774 0.17904 0.55753 0.0
O35 O 0.93708 0.17592 0.57666 0.0
C36 C 0.9349 0.15984 0.5653 0.0
O37 O 0.95146 0.14866 0.56095 0.0
O38 O 0.97392 0.15196 0.60499 0.0
Mg39 Mg 0.07827 0.21986 0.83529 0.0
C40 C 0.07396 0.23021 0.79004 0.0
O41 O 0.06589 0.21147 0.7905 0.0
C42 C 0.10653 0.21207 0.87086 0.0
O43 O 0.09104 0.19933 0.8747 0.0
C44 C 0.03641 0.23943 0.84358 0.0
O45 O 0.03763 0.2419 0.82332 0.0
O46 O 0.05066 0.22915 0.85272 0.0
O47 O 0.08032 0.23837 0.80694 0.0
O48 O 0.08181 0.18759 0.82574 0.0
C49 C 0.09799 0.18543 0.81449 0.0
O50 O 0.10926 0.20196 0.81043 0.0
O51 O 0.10516 0.22412 0.85521 0.0
Mg52 Mg 0.03924 0.6805 0.92526 0.0
C53 C 0.02759 0.6825 0.97055 0.0
O54 O 0.04659 0.68995 0.9712 0.0
C55 C 0.04808 0.65454 0.8881 0.0
O56 O 0.05956 0.67108 0.8847 0.0
C57 C 0.01897 0.72236 0.91848 0.0
O58 O 0.01632 0.7202 0.93864 0.0
O59 O 0.02956 0.70868 0.90884 0.0
O60 O 0.02009 0.67691 0.95307 0.0
O61 O 0.07143 0.67737 0.93528 0.0
C62 C 0.07418 0.65997 0.94437 0.0
O63 O 0.05801 0.64774 0.9468 0.0
O64 O 0.0363 0.65437 0.90403 0.0
Mg65 Mg 0.57659 0.29314 0.16761 0.0
C66 C 0.56673 0.28012 0.21027 0.0
O67 O 0.55281 0.29453 0.20615 0.0
C68 C 0.60187 0.30536 0.13228 0.0
O69 O 0.58489 0.31669 0.13099 0.0
C70 C 0.53753 0.26904 0.15604 0.0
O71 O 0.54091 0.26113 0.17457 0.0
O72 O 0.54934 0.28356 0.14959 0.0
O73 O 0.5795 0.27492 0.19605 0.0
O74 O 0.57836 0.32528 0.17806 0.0
C75 C 0.59273 0.32776 0.19149 0.0
O76 O 0.60319 0.31135 0.19772 0.0
O77 O 0.60308 0.29187 0.14674 0.0
Mg78 Mg 0.97227 0.83385 0.42045 0.0
C79 C 0.98417 0.82996 0.46471 0.0
O80 O 0.96791 0.81777 0.46281 0.0
C81 C 0.97532 0.85878 0.37941 0.0
O82 O 0.98217 0.84126 0.37142 0.0
C83 C 0.99246 0.7912 0.41427 0.0
O84 O 0.99443 0.7928 0.43455 0.0
O85 O 0.98283 0.80552 0.40451 0.0
O86 O 0.99088 0.83916 0.44848 0.0
O87 O 0.94036 0.83527 0.43182 0.0
C88 C 0.93782 0.85153 0.44289 0.0
O89 O 0.9538 0.86393 0.4457 0.0
O90 O 0.97181 0.85997 0.39887 0.0
Mg91 Mg 0.43031 0.21837 0.6732 0.0
C92 C 0.44292 0.23534 0.71411 0.0
O93 O 0.45907 0.22393 0.7089 0.0
C94 C 0.40235 0.22048 0.63473 0.0
O95 O 0.41944 0.22654 0.62535 0.0
C96 C 0.465 0.24591 0.65759 0.0
O97 O 0.45874 0.2566 0.67384 0.0
O98 O 0.45652 0.22841 0.65386 0.0
O99 O 0.4279 0.23709 0.70134 0.0
O100 O 0.42984 0.18653 0.68458 0.0
C101 C 0.41537 0.18409 0.69791 0.0
O102 O 0.40449 0.20047 0.70349 0.0
O103 O 0.40229 0.21809 0.65438 0.0
Mg104 Mg 0.08431 0.04212 0.32986 0.0
C105 C 0.04229 0.02924 0.3174 0.0
O106 O 0.04624 0.04529 0.3054 0.0
C107 C 0.12164 0.04472 0.35786 0.0
O108 O 0.1301 0.04996 0.34002 0.0
C109 C 0.09857 0.02097 0.28983 0.0
O110 O 0.07933 0.01419 0.29024 0.0
O111 O 0.10445 0.03379 0.30373 0.0
O112 O 0.05623 0.02326 0.33014 0.0
O113 O 0.07227 0.07367 0.33151 0.0
C114 C 0.08355 0.08905 0.33655 0.0
O115 O 0.10382 0.08666 0.33718 0.0
O116 O 0.10264 0.03917 0.35812 0.0
Mg117 Mg 0.22426 0.33353 0.57824 0.0
C118 C 0.23832 0.29188 0.5662 0.0
O119 O 0.22598 0.2977 0.55096 0.0
C120 C 0.21236 0.36697 0.60776 0.0
O121 O 0.19745 0.36776 0.59378 0.0
C122 C 0.23679 0.36855 0.54869 0.0
O123 O 0.23065 0.37992 0.56452 0.0
O124 O 0.23483 0.3489 0.54977 0.0
O125 O 0.24152 0.30454 0.58107 0.0
O126 O 0.19186 0.32414 0.5796 0.0
C127 C 0.18847 0.31156 0.59452 0.0
O128 O 0.20442 0.30507 0.60555 0.0
O129 O 0.22712 0.354 0.60511 0.0
Mg130 Mg 0.92449 0.47173 0.83214 0.0
C131 C 0.96997 0.48194 0.82891 0.0
O132 O 0.96961 0.4632 0.82079 0.0
C133 C 0.88822 0.46244 0.85865 0.0
O134 O 0.88537 0.45049 0.84232 0.0
C135 C 0.91694 0.49178 0.79016 0.0
O136 O 0.93718 0.49405 0.79172 0.0
O137 O 0.90752 0.48155 0.80424 0.0
O138 O 0.95297 0.49013 0.83499 0.0
O139 O 0.93386 0.43933 0.83534 0.0
C140 C 0.94496 0.43674 0.85159 0.0
O141 O 0.94935 0.45304 0.8631 0.0
O142 O 0.90365 0.47484 0.85861 0.0
Mg143 Mg 0.79253 0.16995 0.08682 0.0
C144 C 0.78149 0.21434 0.08695 0.0
O145 O 0.79652 0.21298 0.07318 0.0
C146 C 0.78607 0.12924 0.11267 0.0
O147 O 0.7724 0.12396 0.09844 0.0
C148 C 0.78264 0.13992 0.05067 0.0
O149 O 0.79821 0.12925 0.05855 0.0
O150 O 0.77791 0.1573 0.05883 0.0
O151 O 0.77531 0.19774 0.09581 0.0
O152 O 0.82413 0.18159 0.08433 0.0
C153 C 0.83922 0.17053 0.09069 0.0
O154 O 0.83608 0.15064 0.09413 0.0
O155 O 0.7949 0.14691 0.11164 0.0
Mg156 Mg 0.09065 0.96567 0.6775 0.0
C157 C 0.04705 0.97952 0.66535 0.0
O158 O 0.04945 0.9645 0.65172 0.0
C159 C 0.12594 0.95874 0.64935 0.0
O160 O 0.13022 0.94698 0.66551 0.0
C161 C 0.10311 0.98637 0.71806 0.0
O162 O 0.0835 0.99207 0.71722 0.0
O163 O 0.10998 0.97398 0.70421 0.0
O164 O 0.06214 0.98403 0.67734 0.0
O165 O 0.08207 0.93334 0.67292 0.0
C166 C 0.06483 0.92494 0.67768 0.0
O167 O 0.05178 0.93474 0.68996 0.0
O168 O 0.10982 0.97026 0.65011 0.0
Mg169 Mg 0.29195 0.33817 0.93237 0.0
C170 C 0.28035 0.29337 0.93747 0.0
O171 O 0.29917 0.2935 0.94541 0.0
C172 C 0.30043 0.37369 0.90455 0.0
O173 O 0.31183 0.37786 0.92101 0.0
C174 C 0.27063 0.351 0.97261 0.0
O175 O 0.26366 0.33186 0.97112 0.0
O176 O 0.2839 0.35728 0.95934 0.0
O177 O 0.27251 0.31038 0.931 0.0
O178 O 0.32395 0.32767 0.92876 0.0
C179 C 0.32589 0.31628 0.91263 0.0
O180 O 0.30922 0.3123 0.90149 0.0
O181 O 0.28872 0.35775 0.90504 0.0
Mg182 Mg 0.92056 0.53802 0.18651 0.0
C183 C 0.95877 0.51572 0.19963 0.0
O184 O 0.95151 0.5228 0.21738 0.0
C185 C 0.88732 0.55129 0.1573 0.0
O186 O 0.88784 0.56663 0.17079 0.0
C187 C 0.88511 0.52748 0.21635 0.0
O188 O 0.87405 0.53519 0.201 0.0
O189 O 0.90485 0.52795 0.21502 0.0
O190 O 0.94842 0.51909 0.1831 0.0
O191 O 0.93157 0.56992 0.18454 0.0
C192 C 0.94419 0.57245 0.16947 0.0
O193 O 0.94997 0.55598 0.15882 0.0
O194 O 0.89951 0.53588 0.16003 0.0
Mg195 Mg 0.71797 0.1768 0.42776 0.0
C196 C 0.73124 0.21893 0.44026 0.0
O197 O 0.7165 0.21459 0.45373 0.0
C198 C 0.70919 0.14152 0.40023 0.0
O199 O 0.69774 0.1379 0.41677 0.0
C200 C 0.74053 0.16336 0.46746 0.0
O201 O 0.74817 0.18221 0.4659 0.0
O202 O 0.72688 0.15748 0.45435 0.0
O203 O 0.73603 0.20541 0.42663 0.0
O204 O 0.68556 0.1861 0.4255 0.0
C205 C 0.68241 0.19983 0.41156 0.0
O206 O 0.6986 0.20786 0.40205 0.0
O207 O 0.72104 0.15737 0.40035 0.0
Mg208 Mg 0.3281 0.08327 0.03833 0.0
C209 C 0.31677 0.04054 0.02483 0.0
O210 O 0.3031 0.04415 0.03959 0.0
C211 C 0.35642 0.11846 0.04619 0.0
O212 O 0.34078 0.12228 0.0588 0.0
C213 C 0.28854 0.09662 0.01598 0.0
O214 O 0.29098 0.07816 0.00759 0.0
O215 O 0.30113 0.10236 0.03016 0.0
O216 O 0.32948 0.05487 0.01992 0.0
O217 O 0.33135 0.07338 0.07054 0.0
C218 C 0.34582 0.06002 0.07283 0.0
O219 O 0.35564 0.05343 0.05616 0.0
O220 O 0.35531 0.10269 0.03428 0.0
Mg221 Mg 0.82903 0.92245 0.47166 0.0
C222 C 0.81585 0.96468 0.48416 0.0
O223 O 0.80221 0.95979 0.46973 0.0
C224 C 0.85791 0.88758 0.46385 0.0
O225 O 0.84192 0.88305 0.45193 0.0
C226 C 0.79012 0.91007 0.49525 0.0
O227 O 0.79337 0.92851 0.50334 0.0
O228 O 0.80212 0.9037 0.48081 0.0
O229 O 0.82975 0.95147 0.4891 0.0
O230 O 0.83194 0.93191 0.43932 0.0
C231 C 0.84657 0.94508 0.43715 0.0
O232 O 0.85647 0.95137 0.45389 0.0
O233 O 0.85671 0.90351 0.47555 0.0
Mg234 Mg 0.34082 0.07625 0.71879 0.0
C235 C 0.29713 0.08702 0.73419 0.0
O236 O 0.29847 0.10132 0.71964 0.0
C237 C 0.37639 0.10443 0.7135 0.0
O238 O 0.38066 0.08891 0.70089 0.0
C239 C 0.35365 0.0354 0.73849 0.0
O240 O 0.33437 0.03659 0.74517 0.0
O241 O 0.36008 0.0491 0.72573 0.0
O242 O 0.31272 0.07532 0.73761 0.0
O243 O 0.33168 0.08215 0.68676 0.0
C244 C 0.3142 0.07771 0.67863 0.0
O245 O 0.30132 0.06542 0.6886 0.0
O246 O 0.36015 0.10322 0.72477 0.0
Mg247 Mg 0.18194 0.58497 0.9696 0.0
C248 C 0.18126 0.53944 0.98006 0.0
O249 O 0.18594 0.5388 0.9602 0.0
C250 C 0.15441 0.62338 0.96511 0.0
O251 O 0.17215 0.63173 0.95941 0.0
C252 C 0.20595 0.61521 0.99488 0.0
O253 O 0.18681 0.61781 1.00154 0.0
O254 O 0.20934 0.6021 0.98042 0.0
O255 O 0.17871 0.55707 0.98874 0.0
O256 O 0.1811 0.57367 0.93759 0.0
C257 C 0.17623 0.58502 0.92216 0.0
O258 O 0.17579 0.60528 0.92453 0.0
O259 O 0.15428 0.60459 0.97139 0.0
Mg260 Mg 0.17246 0.93143 0.22293 0.0
C261 C 0.21572 0.93673 0.23866 0.0
O262 O 0.21567 0.94904 0.22233 0.0
C263 C 0.13618 0.90489 0.21289 0.0
O264 O 0.13259 0.92138 0.20137 0.0
C265 C 0.15914 0.97114 0.24491 0.0
O266 O 0.17703 0.96816 0.25433 0.0
O267 O 0.15403 0.95897 0.23016 0.0
O268 O 0.19891 0.92763 0.24366 0.0
O269 O 0.18462 0.92809 0.19153 0.0
C270 C 0.19653 0.91232 0.19002 0.0
O271 O 0.20033 0.90139 0.20687 0.0
O272 O 0.15187 0.90498 0.22497 0.0
Mg273 Mg 0.67693 0.92327 0.04199 0.0
C274 C 0.69178 0.96284 0.02288 0.0
O275 O 0.70912 0.95515 0.0305 0.0
C276 C 0.65047 0.88628 0.04756 0.0
O277 O 0.66712 0.88184 0.05857 0.0
C278 C 0.70985 0.90696 0.01356 0.0
O279 O 0.69937 0.91952 1.00129 0.0
O280 O 0.70446 0.90557 0.03259 0.0
O281 O 0.67504 0.95253 0.02498 0.0
O282 O 0.67332 0.93089 0.07477 0.0
C283 C 0.67459 0.94936 0.08177 0.0
O284 O 0.68202 0.9641 0.06978 0.0
O285 O 0.65027 0.90316 0.03719 0.0
Mg286 Mg 0.34187 0.42977 0.7897 0.0
C287 C 0.29694 0.4349 0.77876 0.0
O288 O 0.29762 0.44331 0.79738 0.0
C289 C 0.37747 0.40222 0.79904 0.0
O290 O 0.38077 0.41837 0.81111 0.0
C291 C 0.35271 0.47055 0.76836 0.0
O292 O 0.33298 0.46933 0.7632 0.0
O293 O 0.36022 0.45685 0.78055 0.0
O294 O 0.31369 0.42791 0.7708 0.0
O295 O 0.33184 0.42694 0.82193 0.0
C296 C 0.32115 0.41048 0.82459 0.0
O297 O 0.31727 0.39875 0.80829 0.0
O298 O 0.36195 0.40272 0.78671 0.0
Mg299 Mg 0.67049 0.08179 0.2867 0.0
C300 C 0.71326 0.06869 0.27727 0.0
O301 O 0.70802 0.05736 0.29345 0.0
C302 C 0.63532 0.10997 0.29367 0.0
O303 O 0.631 0.09358 0.30507 0.0
C304 C 0.65784 0.0406 0.26644 0.0
O305 O 0.67756 0.04044 0.26118 0.0
O306 O 0.65113 0.05522 0.27802 0.0
O307 O 0.69991 0.0813 0.26984 0.0
O308 O 0.67936 0.08525 0.31914 0.0
C309 C 0.69186 0.10043 0.32148 0.0
O310 O 0.69818 0.11037 0.30477 0.0
O311 O 0.6516 0.10949 0.28238 0.0
Mg312 Mg 0.0393 0.82817 0.58861 0.0
C313 C 0.02408 0.84261 0.54545 0.0
O314 O 0.0388 0.85662 0.54742 0.0
C315 C 0.039 0.85403 0.62792 0.0
O316 O 0.04136 0.83559 0.63639 0.0
C317 C 0.01965 0.78616 0.59669 0.0
O318 O 0.01731 0.78736 0.57641 0.0
O319 O 0.02967 0.80052 0.60592 0.0
O320 O 0.02077 0.82999 0.56033 0.0
O321 O 0.07184 0.83129 0.57998 0.0
C322 C 0.07884 0.82908 0.5616 0.0
O323 O 0.06727 0.81982 0.54753 0.0
O324 O 0.03574 0.85532 0.60841 0.0
Mg325 Mg 0.93178 0.78919 0.84016 0.0
C326 C 0.944 0.77302 0.79914 0.0
O327 O 0.95996 0.78449 0.80469 0.0
C328 C 0.90186 0.80139 0.8731 0.0
O329 O 0.91526 0.8168 0.87334 0.0
C330 C 0.96098 0.77713 0.87557 0.0
O331 O 0.94477 0.78286 0.8866 0.0
O332 O 0.96038 0.77941 0.85591 0.0
O333 O 0.92909 0.77075 0.81193 0.0
O334 O 0.92911 0.82114 0.82926 0.0
C335 C 0.9153 0.82309 0.81515 0.0
O336 O 0.90581 0.80631 0.80843 0.0
O337 O 0.90508 0.78626 0.86072 0.0
Mg338 Mg 0.96852 0.6783 0.09252 0.0
C339 C 0.98032 0.68336 0.04779 0.0
O340 O 0.96165 0.69167 0.048 0.0
C341 C 0.9607 0.65148 0.12897 0.0
O342 O 0.949 0.66783 0.13267 0.0
C343 C 0.98936 0.71877 0.10489 0.0
O344 O 0.99697 0.71675 0.08602 0.0
O345 O 0.97591 0.70569 0.11112 0.0
O346 O 0.98807 0.6767 0.06477 0.0
O347 O 0.93662 0.67455 0.0819 0.0
C348 C 0.93473 0.65872 0.07013 0.0
O349 O 0.95139 0.64764 0.06594 0.0
O350 O 0.97219 0.65159 0.11283 0.0
Mg351 Mg 0.0798 0.72047 0.34061 0.0
C352 C 0.07578 0.73566 0.2977 0.0
O353 O 0.0637 0.71921 0.29829 0.0
C354 C 0.10796 0.72764 0.38036 0.0
O355 O 0.09587 0.74334 0.38537 0.0
C356 C 0.046 0.73023 0.37354 0.0
O357 O 0.05731 0.71808 0.38549 0.0
O358 O 0.05104 0.73225 0.35452 0.0
O359 O 0.08551 0.74092 0.31416 0.0
O360 O 0.08091 0.68941 0.32688 0.0
C361 C 0.09713 0.68748 0.3156 0.0
O362 O 0.1096 0.70354 0.31381 0.0
O363 O 0.10483 0.71789 0.36341 0.0
Mg364 Mg 0.0399 0.18367 0.41927 0.0
C365 C 0.02534 0.18769 0.46288 0.0
O366 O 0.04359 0.19684 0.46332 0.0
C367 C 0.05344 0.1604 0.38303 0.0
O368 O 0.06493 0.17729 0.38334 0.0
C369 C 0.0181 0.22394 0.40752 0.0
O370 O 0.00925 0.22053 0.42563 0.0
O371 O 0.03277 0.21195 0.40174 0.0
O372 O 0.01878 0.18037 0.44566 0.0
O373 O 0.0709 0.1792 0.43225 0.0
C374 C 0.07165 0.16234 0.44268 0.0
O375 O 0.05457 0.15127 0.44433 0.0
O376 O 0.03926 0.1585 0.39673 0.0
Mg377 Mg 0.57554 0.79033 0.67338 0.0
C378 C 0.56734 0.78004 0.71745 0.0
O379 O 0.5549 0.79592 0.71408 0.0
C380 C 0.60284 0.79822 0.63736 0.0
O381 O 0.58665 0.81012 0.63353 0.0
C382 C 0.5347 0.76857 0.6646 0.0
O383 O 0.53711 0.76387 0.68434 0.0
O384 O 0.54785 0.78065 0.65608 0.0
O385 O 0.57828 0.77316 0.70244 0.0
O386 O 0.57849 0.82271 0.68263 0.0
C387 C 0.59451 0.82528 0.69404 0.0
O388 O 0.60566 0.80884 0.69889 0.0
O389 O 0.60233 0.78649 0.6533 0.0
Mg390 Mg 0.97304 0.32722 0.92407 0.0
C391 C 0.99042 0.31404 0.96453 0.0
O392 O 0.98112 0.29715 0.95781 0.0
C393 C 0.96064 0.35741 0.89136 0.0
O394 O 0.94534 0.34388 0.89096 0.0
C395 C 0.9834 0.29747 0.88844 0.0
O396 O 0.97566 0.31282 0.87741 0.0
O397 O 0.98316 0.29888 0.90819 0.0
O398 O 0.99072 0.32997 0.95281 0.0
O399 O 0.94089 0.32897 0.93414 0.0
C400 C 0.93805 0.34404 0.94668 0.0
O401 O 0.95433 0.35485 0.95264 0.0
O402 O 0.97578 0.35419 0.90376 0.0
Mg403 Mg 0.43206 0.71641 0.16911 0.0
C404 C 0.43783 0.72952 0.21248 0.0
O405 O 0.44967 0.71296 0.21057 0.0
C406 C 0.40976 0.70111 0.1331 0.0
O407 O 0.42673 0.68978 0.13446 0.0
C408 C 0.47495 0.73599 0.16295 0.0
O409 O 0.4733 0.73825 0.18317 0.0
O410 O 0.46063 0.72634 0.15325 0.0
O411 O 0.42724 0.73555 0.19683 0.0
O412 O 0.4295 0.68456 0.18027 0.0
C413 C 0.41335 0.6821 0.1915 0.0
O414 O 0.4021 0.69852 0.19616 0.0
O415 O 0.40736 0.71602 0.14595 0.0
Mg416 Mg 0.09158 0.54242 0.82849 0.0
C417 C 0.04736 0.52862 0.82617 0.0
O418 O 0.0466 0.54697 0.81724 0.0
C419 C 0.12821 0.55576 0.85145 0.0
O420 O 0.12802 0.56709 0.83442 0.0
C421 C 0.10351 0.51874 0.78929 0.0
O422 O 0.08595 0.50926 0.79365 0.0
O423 O 0.10887 0.53427 0.80033 0.0
O424 O 0.06483 0.52189 0.8327 0.0
O425 O 0.07967 0.57399 0.83168 0.0
C426 C 0.06975 0.57617 0.84871 0.0
O427 O 0.06737 0.55978 0.86068 0.0
O428 O 0.11425 0.5419 0.85361 0.0
Mg429 Mg 0.22302 0.8362 0.08346 0.0
C430 C 0.23511 0.79095 0.08044 0.0
O431 O 0.21587 0.78997 0.07362 0.0
C432 C 0.21509 0.87199 0.11142 0.0
O433 O 0.20341 0.87642 0.09522 0.0
C434 C 0.24311 0.84896 0.04213 0.0
O435 O 0.24772 0.82907 0.04121 0.0
O436 O 0.2318 0.85549 0.057 0.0
O437 O 0.24257 0.80856 0.08552 0.0
O438 O 0.1908 0.82635 0.08604 0.0
C439 C 0.18767 0.81621 0.10278 0.0
O440 O 0.20364 0.81251 0.11502 0.0
O441 O 0.22638 0.85573 0.11076 0.0
Mg442 Mg 0.92228 0.96832 0.32917 0.0
C443 C 0.96052 0.99031 0.31507 0.0
O444 O 0.95157 0.98567 0.29728 0.0
C445 C 0.88728 0.96013 0.35795 0.0
O446 O 0.88291 0.948 0.34207 0.0
C447 C 0.90217 0.97624 0.2848 0.0
O448 O 0.91143 0.9592 0.27835 0.0
O449 O 0.90422 0.98185 0.30368 0.0
O450 O 0.95147 0.98517 0.33188 0.0
O451 O 0.92976 0.9353 0.33008 0.0
C452 C 0.94843 0.92878 0.3288 0.0
O453 O 0.96298 0.94152 0.32231 0.0
O454 O 0.9033 0.97168 0.35688 0.0
Mg455 Mg 0.79138 0.67739 0.58398 0.0
C456 C 0.77171 0.71717 0.57044 0.0
O457 O 0.78086 0.7109 0.55327 0.0
C458 C 0.80057 0.64123 0.61076 0.0
O459 O 0.81263 0.63829 0.59452 0.0
C460 C 0.76343 0.66239 0.54964 0.0
O461 O 0.75124 0.6756 0.55934 0.0
O462 O 0.78193 0.6598 0.55628 0.0
O463 O 0.77311 0.70589 0.58666 0.0
O464 O 0.82403 0.68618 0.5864 0.0
C465 C 0.82942 0.70496 0.58957 0.0
O466 O 0.81553 0.71979 0.5875 0.0
O467 O 0.78829 0.65679 0.61064 0.0
Mg468 Mg 0.08423 0.46823 0.18301 0.0
C469 C 0.04151 0.47887 0.19646 0.0
O470 O 0.04652 0.46334 0.20878 0.0
C471 C 0.11857 0.46118 0.15371 0.0
O472 O 0.12378 0.45006 0.17007 0.0
C473 C 0.09818 0.49048 0.22269 0.0
O474 O 0.07863 0.49641 0.2226 0.0
O475 O 0.10436 0.47777 0.20879 0.0
O476 O 0.05488 0.48525 0.18335 0.0
O477 O 0.0758 0.43558 0.18037 0.0
C478 C 0.06172 0.43264 0.16671 0.0
O479 O 0.05353 0.44896 0.15753 0.0
O480 O 0.10215 0.47223 0.1547 0.0
Mg481 Mg 0.28059 0.8326 0.42311 0.0
C482 C 0.26722 0.78953 0.42815 0.0
O483 O 0.28101 0.79266 0.44291 0.0
C484 C 0.28018 0.87462 0.39991 0.0
O485 O 0.27322 0.88221 0.41756 0.0
C486 C 0.27579 0.8598 0.46329 0.0
O487 O 0.29483 0.86612 0.4595 0.0
O488 O 0.26755 0.84639 0.4513 0.0
O489 O 0.26236 0.80479 0.4165 0.0
O490 O 0.31244 0.82098 0.42329 0.0
C491 C 0.31548 0.80933 0.40753 0.0
O492 O 0.29986 0.80596 0.39479 0.0
O493 O 0.28236 0.85506 0.39784 0.0
Mg494 Mg 0.92306 0.03486 0.67592 0.0
C495 C 0.96748 0.02138 0.67883 0.0
O496 O 0.96733 0.03805 0.69068 0.0
C497 C 0.8861 0.04594 0.65061 0.0
O498 O 0.88409 0.05813 0.66689 0.0
C499 C 0.91575 0.0138 0.71765 0.0
O500 O 0.93572 0.01008 0.71545 0.0
O501 O 0.90667 0.02506 0.70412 0.0
O502 O 0.95047 0.0155 0.6706 0.0
O503 O 0.93391 0.06685 0.67358 0.0
C504 C 0.94512 0.06945 0.65743 0.0
O505 O 0.94882 0.05329 0.64548 0.0
O506 O 0.90118 0.03309 0.65026 0.0
Mg507 Mg 0.72121 0.67155 0.93191 0.0
C508 C 0.74295 0.71068 0.94354 0.0
O509 O 0.73679 0.70385 0.9618 0.0
C510 C 0.70705 0.63816 0.90324 0.0
O511 O 0.692 0.63891 0.91703 0.0
C512 C 0.73279 0.63655 0.96153 0.0
O513 O 0.72504 0.62557 0.94614 0.0
O514 O 0.73192 0.65627 0.96041 0.0
O515 O 0.7398 0.69946 0.92756 0.0
O516 O 0.6894 0.68292 0.93031 0.0
C517 C 0.68729 0.69558 0.9152 0.0
O518 O 0.70381 0.70039 0.90422 0.0
O519 O 0.72261 0.6502 0.90559 0.0
Mg520 Mg 0.33453 0.58715 0.53325 0.0
C521 C 0.33014 0.54306 0.52138 0.0
O522 O 0.31937 0.54456 0.53868 0.0
C523 C 0.35783 0.62587 0.54029 0.0
O524 O 0.34197 0.62753 0.55306 0.0
C525 C 0.29187 0.59614 0.51457 0.0
O526 O 0.29559 0.57817 0.50561 0.0
O527 O 0.3048 0.60293 0.52796 0.0
O528 O 0.3383 0.55949 0.514 0.0
O529 O 0.34264 0.57652 0.56433 0.0
C530 C 0.33214 0.56973 0.57962 0.0
O531 O 0.31175 0.56932 0.57852 0.0
O532 O 0.35858 0.61019 0.5282 0.0
Mg533 Mg 0.83073 0.4189 0.97158 0.0
C534 C 0.8197 0.46107 0.98677 0.0
O535 O 0.80534 0.45787 0.97258 0.0
C536 C 0.85831 0.38324 0.963 0.0
O537 O 0.84201 0.37932 0.95132 0.0
C538 C 0.79088 0.40608 0.99395 0.0
O539 O 0.7927 0.42498 1.00141 0.0
O540 O 0.80388 0.39985 0.98035 0.0
O541 O 0.83282 0.44677 0.99061 0.0
O542 O 0.83344 0.42969 0.93957 0.0
C543 C 0.84822 0.44269 0.93735 0.0
O544 O 0.85843 0.44862 0.95404 0.0
O545 O 0.85791 0.39923 0.97467 0.0
Mg546 Mg 0.33674 0.57628 0.22064 0.0
C547 C 0.29782 0.56429 0.24236 0.0
O548 O 0.30611 0.54622 0.23763 0.0
C549 C 0.37078 0.60423 0.20765 0.0
O550 O 0.37155 0.58909 0.19394 0.0
C551 C 0.37193 0.54879 0.23703 0.0
O552 O 0.38289 0.56484 0.23086 0.0
O553 O 0.35242 0.54872 0.23356 0.0
O554 O 0.30768 0.58073 0.23755 0.0
O555 O 0.32882 0.57681 0.18765 0.0
C556 C 0.31022 0.57972 0.18151 0.0
O557 O 0.29487 0.57737 0.19476 0.0
O558 O 0.35746 0.60303 0.2223 0.0
Mg559 Mg 0.17634 0.08523 0.47332 0.0
C560 C 0.18772 0.04209 0.4836 0.0
O561 O 0.20053 0.04689 0.46842 0.0
C562 C 0.14857 0.12081 0.46542 0.0
O563 O 0.16538 0.12542 0.45475 0.0
C564 C 0.21735 0.0972 0.49489 0.0
O565 O 0.21814 0.07717 0.49877 0.0
O566 O 0.20258 0.10425 0.48371 0.0
O567 O 0.17501 0.05582 0.49008 0.0
O568 O 0.17429 0.07617 0.44081 0.0
C569 C 0.15846 0.06458 0.43815 0.0
O570 O 0.1473 0.05965 0.45456 0.0
O571 O 0.14867 0.10435 0.47644 0.0
Mg572 Mg 0.1746 0.42984 0.71949 0.0
C573 C 0.21941 0.43535 0.73188 0.0
O574 O 0.21993 0.44241 0.71271 0.0
C575 C 0.13968 0.40144 0.71106 0.0
O576 O 0.13578 0.41735 0.69882 0.0
C577 C 0.16173 0.47106 0.739 0.0
O578 O 0.18132 0.4707 0.7448 0.0
O579 O 0.1551 0.45667 0.72711 0.0
O580 O 0.20217 0.42905 0.7393 0.0
O581 O 0.18506 0.4255 0.68754 0.0
C582 C 0.19664 0.40949 0.68586 0.0
O583 O 0.20116 0.39894 0.70278 0.0
O584 O 0.15524 0.40251 0.72326 0.0
Mg585 Mg 0.68038 0.42879 0.5449 0.0
C586 C 0.69268 0.46609 0.51978 0.0
O587 O 0.7109 0.45723 0.52254 0.0
C588 C 0.64981 0.39591 0.55662 0.0
O589 O 0.6627 0.39551 0.5725 0.0
C590 C 0.70823 0.39299 0.53155 0.0
O591 O 0.69194 0.3826 0.53811 0.0
O592 O 0.70842 0.41264 0.53391 0.0
O593 O 0.67653 0.457 0.52662 0.0
O594 O 0.67831 0.43863 0.57732 0.0
C595 C 0.67707 0.45785 0.58199 0.0
O596 O 0.68143 0.47176 0.5677 0.0
O597 O 0.65354 0.4084 0.54169 0.0
Mg598 Mg 0.33786 0.93377 0.296 0.0
C599 C 0.295 0.92149 0.28022 0.0
O600 O 0.29809 0.90577 0.29291 0.0
C601 C 0.37514 0.90587 0.29341 0.0
O602 O 0.38431 0.92358 0.2978 0.0
C603 C 0.35087 0.9741 0.27547 0.0
O604 O 0.33113 0.97389 0.27024 0.0
O605 O 0.35763 0.96005 0.28769 0.0
O606 O 0.30934 0.93488 0.27794 0.0
O607 O 0.32968 0.92854 0.32843 0.0
C608 C 0.3113 0.93025 0.33556 0.0
O609 O 0.2973 0.94052 0.32477 0.0
O610 O 0.35566 0.90579 0.28993 0.0
Mg611 Mg 0.67308 0.57839 0.78833 0.0
C612 C 0.71702 0.56832 0.77975 0.0
O613 O 0.71223 0.55629 0.79555 0.0
C614 C 0.63742 0.60573 0.79694 0.0
O615 O 0.63411 0.58941 0.80876 0.0
C616 C 0.66417 0.53762 0.76576 0.0
O617 O 0.68405 0.53953 0.76152 0.0
O618 O 0.65567 0.55097 0.7777 0.0
O619 O 0.70302 0.58025 0.77234 0.0
O620 O 0.6809 0.58108 0.8212 0.0
C621 C 0.69324 0.59624 0.82439 0.0
O622 O 0.70024 0.60658 0.80822 0.0
O623 O 0.65306 0.60545 0.78476 0.0
Mg624 Mg 0.53527 0.3347 0.58653 0.0
C625 C 0.52701 0.32232 0.54308 0.0
O626 O 0.54323 0.31107 0.54842 0.0
C627 C 0.54047 0.36295 0.62201 0.0
O628 O 0.55219 0.34688 0.62677 0.0
C629 C 0.5147 0.29359 0.59908 0.0
O630 O 0.50911 0.29368 0.57942 0.0
O631 O 0.5265 0.30802 0.60573 0.0
O632 O 0.51911 0.33442 0.55663 0.0
O633 O 0.56806 0.33858 0.57914 0.0
C634 C 0.57107 0.35272 0.5656 0.0
O635 O 0.55478 0.36186 0.55729 0.0
O636 O 0.52976 0.36219 0.60535 0.0
Mg637 Mg 0.43375 0.28748 0.83885 0.0
C638 C 0.4439 0.27413 0.79578 0.0
O639 O 0.45791 0.28857 0.79921 0.0
C640 C 0.405 0.29722 0.87354 0.0
O641 O 0.42081 0.30962 0.87726 0.0
C642 C 0.47941 0.27688 0.8519 0.0
O643 O 0.48467 0.28625 0.83454 0.0
O644 O 0.46032 0.27646 0.85716 0.0
O645 O 0.43124 0.26949 0.81024 0.0
O646 O 0.43194 0.31985 0.82911 0.0
C647 C 0.41679 0.32266 0.81662 0.0
O648 O 0.40603 0.30634 0.81069 0.0
O649 O 0.40622 0.28474 0.85821 0.0
Mg650 Mg 0.46904 0.17826 0.08476 0.0
C651 C 0.4809 0.19034 0.04223 0.0
O652 O 0.4652 0.20271 0.04654 0.0
C653 C 0.46248 0.15118 0.12097 0.0
O654 O 0.45147 0.16784 0.12535 0.0
C655 C 0.49036 0.21843 0.09802 0.0
O656 O 0.49857 0.21648 0.07941 0.0
O657 O 0.47658 0.20543 0.10374 0.0
O658 O 0.48709 0.17766 0.05612 0.0
O659 O 0.43696 0.1745 0.07482 0.0
C660 C 0.43511 0.15977 0.06169 0.0
O661 O 0.45202 0.15006 0.05558 0.0
O662 O 0.47326 0.15114 0.10435 0.0
Mg663 Mg 0.57712 0.22418 0.33301 0.0
C664 C 0.56591 0.24396 0.29323 0.0
O665 O 0.54811 0.23649 0.2999 0.0
C666 C 0.60407 0.21251 0.36852 0.0
O667 O 0.59037 0.19739 0.36803 0.0
C668 C 0.54115 0.23216 0.3646 0.0
O669 O 0.55127 0.21917 0.37672 0.0
O670 O 0.54785 0.23545 0.34628 0.0
O671 O 0.58191 0.24205 0.30471 0.0
O672 O 0.57991 0.19206 0.32268 0.0
C673 C 0.59585 0.18951 0.31117 0.0
O674 O 0.607 0.20593 0.30637 0.0
O675 O 0.60224 0.22729 0.35545 0.0
Mg676 Mg 0.53737 0.68078 0.41846 0.0
C677 C 0.52621 0.69434 0.46072 0.0
O678 O 0.54171 0.7066 0.4556 0.0
C679 C 0.53343 0.65188 0.38117 0.0
O680 O 0.52911 0.66926 0.37136 0.0
C681 C 0.51508 0.72028 0.40393 0.0
O682 O 0.50936 0.72074 0.42354 0.0
O683 O 0.52784 0.70632 0.39805 0.0
O684 O 0.51981 0.68112 0.44744 0.0
O685 O 0.5696 0.67883 0.42858 0.0
C686 C 0.57167 0.66414 0.44174 0.0
O687 O 0.55499 0.65377 0.44733 0.0
O688 O 0.53525 0.65202 0.4009 0.0
Mg689 Mg 0.07992 0.28968 0.66811 0.0
C690 C 0.07417 0.27688 0.71252 0.0
O691 O 0.06647 0.2958 0.71286 0.0
C692 C 0.10774 0.29725 0.63229 0.0
O693 O 0.09198 0.30968 0.62843 0.0
C694 C 0.0394 0.26926 0.6555 0.0
O695 O 0.0414 0.26162 0.67436 0.0
O696 O 0.05252 0.2827 0.64931 0.0
O697 O 0.08104 0.26964 0.69541 0.0
O698 O 0.08438 0.32132 0.67925 0.0
C699 C 0.10049 0.32272 0.69072 0.0
O700 O 0.11129 0.30576 0.69441 0.0
O701 O 0.10678 0.28547 0.64819 0.0
Mg702 Mg 0.47262 0.82896 0.91921 0.0
C703 C 0.48911 0.8166 0.96002 0.0
O704 O 0.47989 0.7997 0.95319 0.0
C705 C 0.47347 0.85402 0.87921 0.0
O706 O 0.47455 0.83534 0.87102 0.0
C707 C 0.47902 0.78454 0.89863 0.0
O708 O 0.4598 0.77998 0.90377 0.0
O709 O 0.48628 0.8024 0.90304 0.0
O710 O 0.48968 0.83247 0.94823 0.0
O711 O 0.44015 0.82916 0.92887 0.0
C712 C 0.43695 0.84408 0.94156 0.0
O713 O 0.45296 0.85532 0.94743 0.0
O714 O 0.47395 0.85596 0.89894 0.0
Mg715 Mg 0.93146 0.21746 0.17361 0.0
C716 C 0.93199 0.23182 0.21782 0.0
O717 O 0.94103 0.21354 0.21915 0.0
C718 C 0.90981 0.20264 0.13664 0.0
O719 O 0.92667 0.19114 0.13798 0.0
C720 C 0.97423 0.23666 0.16881 0.0
O721 O 0.97144 0.23935 0.18887 0.0
O722 O 0.96059 0.22656 0.15862 0.0
O723 O 0.92585 0.23817 0.20005 0.0
O724 O 0.92828 0.18604 0.18583 0.0
C725 C 0.91102 0.18413 0.19538 0.0
O726 O 0.89886 0.2005 0.19684 0.0
O727 O 0.90738 0.21728 0.14978 0.0
Mg728 Mg 0.58719 0.03674 0.83724 0.0
C729 C 0.54348 0.02379 0.83205 0.0
O730 O 0.54454 0.04147 0.82188 0.0
C731 C 0.62436 0.04645 0.86242 0.0
O732 O 0.62639 0.05876 0.84623 0.0
C733 C 0.59851 0.01684 0.79581 0.0
O734 O 0.58075 0.0074 0.7993 0.0
O735 O 0.60429 0.03104 0.80835 0.0
O736 O 0.56006 0.01667 0.84025 0.0
O737 O 0.57487 0.06748 0.84372 0.0
C738 C 0.57316 0.08422 0.8334 0.0
O739 O 0.57993 0.08496 0.81413 0.0
O740 O 0.60924 0.03368 0.86265 0.0
Mg741 Mg 0.7228 0.33566 0.08516 0.0
C742 C 0.73833 0.29329 0.09796 0.0
O743 O 0.72045 0.29361 0.10783 0.0
C744 C 0.71784 0.37451 0.11126 0.0
O745 O 0.71164 0.38189 0.09323 0.0
C746 C 0.74402 0.34796 0.04468 0.0
O747 O 0.75177 0.32916 0.04677 0.0
O748 O 0.73056 0.35419 0.0578 0.0
O749 O 0.74389 0.30934 0.08782 0.0
O750 O 0.69183 0.32225 0.08634 0.0
C751 C 0.67568 0.33339 0.08856 0.0
O752 O 0.67735 0.35366 0.08672 0.0
O753 O 0.72434 0.35582 0.11227 0.0
Mg754 Mg 0.41997 0.47562 0.33936 0.0
C755 C 0.46451 0.48615 0.33595 0.0
O756 O 0.46256 0.46922 0.32471 0.0
C757 C 0.37794 0.47912 0.36148 0.0
O758 O 0.37059 0.48141 0.34255 0.0
C759 C 0.41423 0.49573 0.29705 0.0
O760 O 0.43368 0.50067 0.30085 0.0
O761 O 0.40485 0.48394 0.30989 0.0
O762 O 0.44826 0.49373 0.34437 0.0
O763 O 0.42997 0.44386 0.34539 0.0
C764 C 0.43692 0.42881 0.33464 0.0
O765 O 0.43812 0.43053 0.3143 0.0
O766 O 0.39752 0.47861 0.36436 0.0
Mg767 Mg 0.29099 0.16839 0.58353 0.0
C768 C 0.27285 0.208 0.568 0.0
O769 O 0.28143 0.20012 0.5512 0.0
C770 C 0.2863 0.12918 0.60952 0.0
O771 O 0.28365 0.1207 0.59111 0.0
C772 C 0.26246 0.15235 0.55037 0.0
O773 O 0.25045 0.16572 0.56011 0.0
O774 O 0.28125 0.15032 0.55632 0.0
O775 O 0.27391 0.19772 0.58489 0.0
O776 O 0.32383 0.17611 0.58629 0.0
C777 C 0.33043 0.19476 0.58648 0.0
O778 O 0.31804 0.20986 0.58052 0.0
O779 O 0.2877 0.14888 0.61098 0.0
Mg780 Mg 0.5851 0.96703 0.17967 0.0
C781 C 0.54462 0.98401 0.1934 0.0
O782 O 0.55007 0.97205 0.20906 0.0
C783 C 0.62385 0.97331 0.15269 0.0
O784 O 0.63207 0.98018 0.1701 0.0
C785 C 0.60029 0.99406 0.21478 0.0
O786 O 0.58488 0.00535 0.20755 0.0
O787 O 0.60373 0.97631 0.20667 0.0
O788 O 0.55687 0.98569 0.17796 0.0
O789 O 0.57477 0.93486 0.17794 0.0
C790 C 0.55984 0.93209 0.16519 0.0
O791 O 0.55133 0.94848 0.15646 0.0
O792 O 0.60464 0.96861 0.15217 0.0
Mg793 Mg 0.78846 0.34086 0.43532 0.0
C794 C 0.77279 0.29904 0.44369 0.0
O795 O 0.78556 0.30298 0.45917 0.0
C796 C 0.80295 0.37723 0.41267 0.0
O797 O 0.81482 0.37611 0.4293 0.0
C798 C 0.76008 0.35052 0.47099 0.0
O799 O 0.74965 0.33621 0.46084 0.0
O800 O 0.77799 0.35574 0.46431 0.0
O801 O 0.77003 0.31293 0.42985 0.0
O802 O 0.82037 0.32964 0.43317 0.0
C803 C 0.82284 0.31832 0.41706 0.0
O804 O 0.80643 0.31406 0.40563 0.0
O805 O 0.78826 0.3641 0.41073 0.0
Mg806 Mg 0.41992 0.54205 0.67603 0.0
C807 C 0.46303 0.53222 0.68763 0.0
O808 O 0.4577 0.54733 0.70033 0.0
C809 C 0.38088 0.54412 0.6516 0.0
O810 O 0.37482 0.55029 0.67012 0.0
C811 C 0.40819 0.51825 0.71523 0.0
O812 O 0.42619 0.50941 0.71127 0.0
O813 O 0.40223 0.53327 0.70377 0.0
O814 O 0.44956 0.52555 0.67473 0.0
O815 O 0.42811 0.57462 0.67251 0.0
C816 C 0.44096 0.5775 0.6577 0.0
O817 O 0.4484 0.56114 0.64796 0.0
O818 O 0.39956 0.53789 0.64934 0.0
Mg819 Mg 0.2199 0.172 0.92913 0.0
C820 C 0.23282 0.2164 0.9358 0.0
O821 O 0.21384 0.21682 0.94333 0.0
C822 C 0.21239 0.13637 0.9011 0.0
O823 O 0.20133 0.13164 0.91762 0.0
C824 C 0.24083 0.15731 0.96893 0.0
O825 O 0.24885 0.17606 0.96783 0.0
O826 O 0.22712 0.15207 0.95564 0.0
O827 O 0.23996 0.19933 0.92871 0.0
O828 O 0.18805 0.18287 0.92562 0.0
C829 C 0.18608 0.1947 0.90985 0.0
O830 O 0.20276 0.19913 0.89892 0.0
O831 O 0.22339 0.15281 0.90156 0.0
Mg832 Mg 0.82623 0.08761 0.53851 0.0
C833 C 0.81293 0.04611 0.52314 0.0
O834 O 0.79794 0.05072 0.53624 0.0
C835 C 0.85515 0.12213 0.54682 0.0
O836 O 0.83934 0.12639 0.55906 0.0
C837 C 0.78902 0.10295 0.51394 0.0
O838 O 0.79309 0.08575 0.50368 0.0
O839 O 0.79966 0.10714 0.53011 0.0
O840 O 0.82736 0.05926 0.52011 0.0
O841 O 0.82912 0.07758 0.57069 0.0
C842 C 0.84354 0.06415 0.57291 0.0
O843 O 0.85308 0.05736 0.55615 0.0
O844 O 0.85386 0.10642 0.53484 0.0
Mg845 Mg 0.32981 0.91868 0.9661 0.0
C846 C 0.31623 0.95891 0.98564 0.0
O847 O 0.29837 0.95187 0.97864 0.0
C848 C 0.35686 0.88213 0.95889 0.0
O849 O 0.34058 0.87814 0.94719 0.0
C850 C 0.29704 0.9037 0.9951 0.0
O851 O 0.30789 0.91639 0.00685 0.0
O852 O 0.30232 0.90134 0.97614 0.0
O853 O 0.33249 0.94787 0.98319 0.0
O854 O 0.33309 0.92668 0.93338 0.0
C855 C 0.33062 0.94496 0.92619 0.0
O856 O 0.32186 0.95925 0.93786 0.0
O857 O 0.35652 0.89838 0.97024 0.0
Mg858 Mg 0.8363 0.07677 0.22189 0.0
C859 C 0.79734 0.0638 0.24368 0.0
O860 O 0.80618 0.04573 0.24012 0.0
C861 C 0.87203 0.1052 0.21461 0.0
O862 O 0.87749 0.08875 0.20376 0.0
C863 C 0.85647 0.03256 0.22954 0.0
O864 O 0.84842 0.02682 0.21165 0.0
O865 O 0.85375 0.05111 0.23588 0.0
O866 O 0.80679 0.08024 0.23811 0.0
O867 O 0.82937 0.07705 0.18869 0.0
C868 C 0.8106 0.07698 0.18234 0.0
O869 O 0.79578 0.07209 0.19549 0.0
O870 O 0.85524 0.10449 0.22507 0.0
Mg871 Mg 0.68057 0.5921 0.47123 0.0
C872 C 0.69158 0.54904 0.48329 0.0
O873 O 0.70428 0.55275 0.46771 0.0
C874 C 0.65114 0.62575 0.46115 0.0
O875 O 0.66703 0.62958 0.44889 0.0
C876 C 0.72023 0.60624 0.49372 0.0
O877 O 0.72114 0.5865 0.49885 0.0
O878 O 0.70607 0.61225 0.48122 0.0
O879 O 0.67953 0.56353 0.48936 0.0
O880 O 0.67872 0.58214 0.43891 0.0
C881 C 0.66368 0.5695 0.43633 0.0
O882 O 0.65306 0.56369 0.45279 0.0
O883 O 0.65244 0.61057 0.47379 0.0
Mg884 Mg 0.6683 0.93291 0.71918 0.0
C885 C 0.71128 0.91894 0.73309 0.0
O886 O 0.7077 0.90451 0.71907 0.0
C887 C 0.63278 0.90502 0.71248 0.0
O888 O 0.62809 0.92153 0.70138 0.0
C889 C 0.65582 0.97297 0.74119 0.0
O890 O 0.67549 0.97223 0.74665 0.0
O891 O 0.64897 0.95934 0.72856 0.0
O892 O 0.69707 0.93215 0.73703 0.0
O893 O 0.67663 0.92918 0.68659 0.0
C894 C 0.69472 0.93232 0.67922 0.0
O895 O 0.70842 0.94258 0.69037 0.0
O896 O 0.64929 0.90542 0.72344 0.0
Mg897 Mg 0.17617 0.91723 0.53322 0.0
C898 C 0.18831 0.95842 0.51767 0.0
O899 O 0.20383 0.95295 0.52977 0.0
C900 C 0.14833 0.87859 0.53143 0.0
O901 O 0.16514 0.86943 0.52428 0.0
C902 C 0.22119 0.90161 0.5228 0.0
O903 O 0.2276 0.9162 0.53558 0.0
O904 O 0.20175 0.89875 0.52041 0.0
O905 O 0.17324 0.94584 0.51524 0.0
O906 O 0.17708 0.92787 0.56533 0.0
C907 C 0.16212 0.94048 0.56861 0.0
O908 O 0.15041 0.94588 0.55273 0.0
O909 O 0.1483 0.89817 0.53429 0.0
Mg910 Mg 0.83009 0.4332 0.29498 0.0
C911 C 0.78615 0.44294 0.28594 0.0
O912 O 0.79011 0.454 0.30267 0.0
C913 C 0.86791 0.40526 0.29514 0.0
O914 O 0.8768 0.42291 0.30031 0.0
C915 C 0.83957 0.47423 0.27362 0.0
O916 O 0.81935 0.47349 0.27091 0.0
O917 O 0.84822 0.46003 0.28439 0.0
O918 O 0.80064 0.43183 0.27825 0.0
O919 O 0.82029 0.43164 0.32737 0.0
C920 C 0.83208 0.42481 0.3417 0.0
O921 O 0.85199 0.42244 0.33786 0.0
O922 O 0.8486 0.4052 0.29075 0.0
Mg923 Mg 0.17275 0.07875 0.78651 0.0
C924 C 0.21697 0.07252 0.77443 0.0
O925 O 0.21535 0.06099 0.79123 0.0
C926 C 0.13709 0.10645 0.79559 0.0
O927 O 0.13378 0.09072 0.80822 0.0
C928 C 0.16063 0.03862 0.76436 0.0
O929 O 0.17912 0.04128 0.75609 0.0
O930 O 0.1546 0.05122 0.77841 0.0
O931 O 0.20078 0.08176 0.76774 0.0
O932 O 0.18294 0.08195 0.81863 0.0
C933 C 0.19407 0.09813 0.82115 0.0
O934 O 0.1985 0.10944 0.80471 0.0
O935 O 0.15248 0.10548 0.78318 0.0
Mg936 Mg 0.53756 0.82582 0.08608 0.0
C937 C 0.52193 0.81492 0.04451 0.0
O938 O 0.53301 0.79861 0.04994 0.0
C939 C 0.54895 0.8547 0.12029 0.0
O940 O 0.56512 0.84223 0.11937 0.0
C941 C 0.53006 0.79312 0.11986 0.0
O942 O 0.54034 0.80671 0.13109 0.0
O943 O 0.52772 0.79658 0.1005 0.0
O944 O 0.5198 0.82966 0.05754 0.0
O945 O 0.56964 0.82914 0.07584 0.0
C946 C 0.57184 0.84504 0.06422 0.0
O947 O 0.55517 0.85582 0.05931 0.0
O948 O 0.53376 0.8514 0.10798 0.0
Mg949 Mg 0.42223 0.78741 0.33369 0.0
C950 C 0.4368 0.77184 0.29241 0.0
O951 O 0.45324 0.78201 0.299 0.0
C952 C 0.39539 0.79156 0.37055 0.0
O953 O 0.41089 0.80423 0.3746 0.0
C954 C 0.45954 0.76268 0.34697 0.0
O955 O 0.45156 0.75055 0.33261 0.0
O956 O 0.45079 0.78006 0.35074 0.0
O957 O 0.42082 0.77101 0.30402 0.0
O958 O 0.41537 0.81968 0.3268 0.0
C959 C 0.42204 0.83092 0.31199 0.0
O960 O 0.43748 0.82442 0.30031 0.0
O961 O 0.39632 0.7805 0.35413 0.0
Mg962 Mg 0.46886 0.68493 0.58224 0.0
C963 C 0.49067 0.69794 0.54393 0.0
O964 O 0.48273 0.71549 0.55077 0.0
C965 C 0.45465 0.65587 0.61502 0.0
O966 O 0.43956 0.66963 0.61426 0.0
C967 C 0.47964 0.71386 0.61824 0.0
O968 O 0.47201 0.69822 0.62891 0.0
O969 O 0.479 0.71308 0.59846 0.0
O970 O 0.48819 0.68156 0.55471 0.0
O971 O 0.43712 0.68352 0.5706 0.0
C972 C 0.43479 0.66963 0.55665 0.0
O973 O 0.45139 0.65984 0.54985 0.0
O974 O 0.47029 0.65829 0.60309 0.0
Mg975 Mg 0.58108 0.71999 0.8382 0.0
C976 C 0.56747 0.74295 0.80003 0.0
O977 O 0.54937 0.73841 0.80832 0.0
C978 C 0.60876 0.71183 0.87417 0.0
O979 O 0.59275 0.69983 0.87824 0.0
C980 C 0.5356 0.72746 0.8558 0.0
O981 O 0.52915 0.71206 0.84402 0.0
O982 O 0.55482 0.73213 0.85601 0.0
O983 O 0.58396 0.738 0.80975 0.0
O984 O 0.58292 0.6876 0.82841 0.0
C985 C 0.59772 0.68494 0.81547 0.0
O986 O 0.60809 0.70138 0.80922 0.0
O987 O 0.60817 0.72321 0.85798 0.0
Mg988 Mg 0.54016 0.17905 0.92166 0.0
C989 C 0.51887 0.19151 0.96005 0.0
O990 O 0.52708 0.20887 0.95312 0.0
C991 C 0.54696 0.15611 0.88186 0.0
O992 O 0.55445 0.17454 0.87733 0.0
C993 C 0.53625 0.22058 0.89515 0.0
O994 O 0.55619 0.21909 0.89098 0.0
O995 O 0.52777 0.20706 0.90682 0.0
O996 O 0.52119 0.17501 0.94939 0.0
O997 O 0.5721 0.17742 0.93313 0.0
C998 C 0.57423 0.16296 0.94657 0.0
O999 O 0.55767 0.15238 0.95204 0.0
O1000 O 0.53859 0.15341 0.89962 0.0
Mg1001 Mg 0.07836 0.79036 0.17369 0.0
C1002 C 0.07616 0.78115 0.21962 0.0
O1003 O 0.07011 0.80066 0.21955 0.0
C1004 C 0.10674 0.79774 0.13833 0.0
O1005 O 0.09071 0.8096 0.13382 0.0
C1006 C 0.03761 0.76943 0.1622 0.0
O1007 O 0.03875 0.76381 0.18182 0.0
O1008 O 0.05143 0.78161 0.15501 0.0
O1009 O 0.08016 0.77222 0.20238 0.0
O1010 O 0.08163 0.82279 0.18247 0.0
C1011 C 0.09876 0.82554 0.19205 0.0
O1012 O 0.11074 0.8093 0.19539 0.0
O1013 O 0.1057 0.78618 0.15438 0.0
Mg1014 Mg 0.46954 0.33106 0.42043 0.0
C1015 C 0.49411 0.31898 0.45844 0.0
O1016 O 0.49233 0.30098 0.449 0.0
C1017 C 0.46448 0.35636 0.38185 0.0
O1018 O 0.45999 0.33765 0.37501 0.0
C1019 C 0.48015 0.28595 0.40462 0.0
O1020 O 0.46786 0.27917 0.41945 0.0
O1021 O 0.48251 0.30543 0.40209 0.0
O1022 O 0.48654 0.33504 0.4497 0.0
O1023 O 0.43663 0.33088 0.42799 0.0
C1024 C 0.43046 0.33232 0.44675 0.0
O1025 O 0.44366 0.3287 0.46193 0.0
O1026 O 0.47055 0.35845 0.40061 0.0
Mg1027 Mg 0.93248 0.72029 0.67526 0.0
C1028 C 0.94405 0.73931 0.71502 0.0
O1029 O 0.96117 0.73005 0.70876 0.0
C1030 C 0.9023 0.7286 0.63759 0.0
O1031 O 0.91475 0.74365 0.63168 0.0
C1032 C 0.96479 0.72891 0.64062 0.0
O1033 O 0.95299 0.71641 0.62958 0.0
O1034 O 0.96034 0.73192 0.65966 0.0
O1035 O 0.92827 0.73909 0.70307 0.0
O1036 O 0.93208 0.68842 0.68664 0.0
C1037 C 0.91829 0.68578 0.70065 0.0
O1038 O 0.90818 0.70213 0.70755 0.0
O1039 O 0.90585 0.71897 0.6545 0.0
Mg1040 Mg 0.58796 0.54153 0.33068 0.0
C1041 C 0.54521 0.52655 0.34619 0.0
O1042 O 0.54726 0.5418 0.35965 0.0
C1043 C 0.62435 0.55055 0.35714 0.0
O1044 O 0.62703 0.5629 0.34108 0.0
C1045 C 0.59404 0.52279 0.28813 0.0
O1046 O 0.57374 0.52139 0.29002 0.0
O1047 O 0.60419 0.53209 0.30235 0.0
O1048 O 0.55995 0.52281 0.33353 0.0
O1049 O 0.57919 0.57389 0.33417 0.0
C1050 C 0.56089 0.58105 0.33194 0.0
O1051 O 0.54678 0.56982 0.32235 0.0
O1052 O 0.60904 0.538 0.35684 0.0
Mg1053 Mg 0.7179 0.8403 0.5845 0.0
C1054 C 0.73124 0.79818 0.57277 0.0
O1055 O 0.71617 0.80252 0.55965 0.0
C1056 C 0.72259 0.87959 0.61097 0.0
O1057 O 0.7287 0.88772 0.59326 0.0
C1058 C 0.7415 0.85305 0.54539 0.0
O1059 O 0.74994 0.83467 0.5483 0.0
O1060 O 0.7269 0.85887 0.55745 0.0
O1061 O 0.73639 0.81187 0.58612 0.0
O1062 O 0.68588 0.82964 0.58562 0.0
C1063 C 0.68301 0.81662 0.60027 0.0
O1064 O 0.69922 0.81065 0.61123 0.0
O1065 O 0.71895 0.86015 0.61196 0.0
Mg1066 Mg 0.42076 0.96542 0.8302 0.0
C1067 C 0.46468 0.97963 0.84201 0.0
O1068 O 0.46411 0.96286 0.85367 0.0
C1069 C 0.38106 0.97088 0.85582 0.0
O1070 O 0.37256 0.97431 0.83755 0.0
C1071 C 0.41009 0.98583 0.78901 0.0
O1072 O 0.42945 0.992 0.79105 0.0
O1073 O 0.40269 0.97335 0.80248 0.0
O1074 O 0.44862 0.98463 0.83156 0.0
O1075 O 0.43003 0.93329 0.83466 0.0
C1076 C 0.44669 0.92433 0.8289 0.0
O1077 O 0.45922 0.93367 0.81577 0.0
O1078 O 0.4007 0.96877 0.85719 0.0
Mg1079 Mg 0.29339 0.66875 0.08117 0.0
C1080 C 0.28293 0.7141 0.08177 0.0
O1081 O 0.30148 0.71422 0.07328 0.0
C1082 C 0.28917 0.6296 0.109 0.0
O1083 O 0.27884 0.62167 0.09325 0.0
C1084 C 0.26633 0.66145 0.04373 0.0
O1085 O 0.26227 0.68102 0.04795 0.0
O1086 O 0.28015 0.65214 0.05447 0.0
O1087 O 0.27495 0.69676 0.08703 0.0
O1088 O 0.32516 0.68 0.07906 0.0
C1089 C 0.34001 0.66879 0.08569 0.0
O1090 O 0.33671 0.64886 0.08864 0.0
O1091 O 0.29515 0.64843 0.10826 0.0
Mg1092 Mg 0.58442 0.47482 0.67785 0.0
C1093 C 0.54668 0.49749 0.68954 0.0
O1094 O 0.55326 0.48923 0.70705 0.0
C1095 C 0.6232 0.4841 0.64985 0.0
O1096 O 0.6273 0.49955 0.66257 0.0
C1097 C 0.61844 0.48171 0.71101 0.0
O1098 O 0.62918 0.46918 0.69894 0.0
O1099 O 0.59951 0.48531 0.70652 0.0
O1100 O 0.55756 0.49496 0.6732 0.0
O1101 O 0.57125 0.44366 0.67662 0.0
C1102 C 0.55816 0.44186 0.66181 0.0
O1103 O 0.55361 0.45847 0.65083 0.0
O1104 O 0.60678 0.47341 0.65244 0.0
Mg1105 Mg 0.78645 0.83805 0.92819 0.0
C1106 C 0.77613 0.79479 0.94024 0.0
O1107 O 0.79148 0.79943 0.95292 0.0
C1108 C 0.7941 0.87267 0.89917 0.0
O1109 O 0.80433 0.87819 0.91599 0.0
C1110 C 0.76589 0.85147 0.96937 0.0
O1111 O 0.76341 0.83135 0.97173 0.0
O1112 O 0.77586 0.8581 0.95359 0.0
O1113 O 0.76952 0.80869 0.92777 0.0
O1114 O 0.81911 0.8293 0.92673 0.0
C1115 C 0.82218 0.81545 0.91287 0.0
O1116 O 0.80604 0.80809 0.90276 0.0
O1117 O 0.78346 0.85599 0.89971 0.0
Mg1118 Mg 0.42182 0.03862 0.18087 0.0
C1119 C 0.4638 0.02463 0.19361 0.0
O1120 O 0.45958 0.03911 0.20741 0.0
C1121 C 0.38647 0.04605 0.15234 0.0
O1122 O 0.38287 0.05926 0.16753 0.0
C1123 C 0.40844 0.01643 0.22031 0.0
O1124 O 0.42555 0.00608 0.21615 0.0
O1125 O 0.40347 0.03169 0.20869 0.0
O1126 O 0.45021 0.02022 0.17993 0.0
O1127 O 0.43202 0.07053 0.17685 0.0
C1128 C 0.44457 0.07249 0.16166 0.0
O1129 O 0.45039 0.05562 0.15166 0.0
O1130 O 0.40205 0.03392 0.1539 0.0
Mg1131 Mg 0.21236 0.66629 0.43279 0.0
C1132 C 0.22887 0.70804 0.41718 0.0
O1133 O 0.21422 0.70555 0.40313 0.0
C1134 C 0.2099 0.62719 0.40775 0.0
O1135 O 0.20504 0.62022 0.42633 0.0
C1136 C 0.23654 0.65324 0.47142 0.0
O1137 O 0.24373 0.67225 0.46939 0.0
O1138 O 0.22198 0.64729 0.45939 0.0
O1139 O 0.2319 0.69378 0.43057 0.0
O1140 O 0.18017 0.67668 0.43046 0.0
C1141 C 0.17454 0.69549 0.43309 0.0
O1142 O 0.18755 0.70855 0.44188 0.0
O1143 O 0.21499 0.64622 0.40575 0.0
Mg1144 Mg 0.82849 0.58411 0.04173 0.0
C1145 C 0.81909 0.54068 0.02921 0.0
O1146 O 0.80389 0.54475 0.04226 0.0
C1147 C 0.85589 0.61989 0.05037 0.0
O1148 O 0.84015 0.62315 0.063 0.0
C1149 C 0.7909 0.59295 0.01523 0.0
O1150 O 0.79761 0.57549 0.00704 0.0
O1151 O 0.80041 0.60034 0.03096 0.0
O1152 O 0.83227 0.55483 0.02515 0.0
O1153 O 0.83089 0.57599 0.0745 0.0
C1154 C 0.84575 0.56333 0.07797 0.0
O1155 O 0.8561 0.55589 0.06198 0.0
O1156 O 0.85501 0.60449 0.03796 0.0
Mg1157 Mg 0.32959 0.41922 0.46651 0.0
C1158 C 0.34318 0.46286 0.4806 0.0
O1159 O 0.35544 0.46175 0.46428 0.0
C1160 C 0.35765 0.38059 0.47015 0.0
O1161 O 0.3407 0.37134 0.47679 0.0
C1162 C 0.289 0.41092 0.48807 0.0
O1163 O 0.28987 0.4313 0.48917 0.0
O1164 O 0.3031 0.4014 0.47795 0.0
O1165 O 0.33208 0.4472 0.48535 0.0
O1166 O 0.32963 0.42884 0.43419 0.0
C1167 C 0.32546 0.44703 0.42763 0.0
O1168 O 0.31539 0.46004 0.43974 0.0
O1169 O 0.35747 0.40009 0.46683 0.0
Mg1170 Mg 0.83927 0.57998 0.72357 0.0
C1171 C 0.80053 0.56668 0.74468 0.0
O1172 O 0.80803 0.54906 0.73754 0.0
C1173 C 0.87348 0.6087 0.71225 0.0
O1174 O 0.87312 0.59566 0.6965 0.0
C1175 C 0.87411 0.54966 0.73514 0.0
O1176 O 0.88554 0.56525 0.72862 0.0
O1177 O 0.85442 0.55099 0.73345 0.0
O1178 O 0.8109 0.58326 0.74181 0.0
O1179 O 0.82909 0.58336 0.69139 0.0
C1180 C 0.8168 0.59875 0.68908 0.0
O1181 O 0.81084 0.60896 0.70576 0.0
O1182 O 0.86079 0.60584 0.72719 0.0
Mg1183 Mg 0.682 0.08915 0.97567 0.0
C1184 C 0.69131 0.04531 0.98567 0.0
O1185 O 0.70269 0.04895 0.96909 0.0
C1186 C 0.65348 0.12401 0.96589 0.0
O1187 O 0.66911 0.12715 0.95311 0.0
C1188 C 0.72456 0.09775 0.99519 0.0
O1189 O 0.72472 0.07737 0.99623 0.0
O1190 O 0.70935 0.10672 0.98616 0.0
O1191 O 0.68011 0.05995 0.99293 0.0
O1192 O 0.67958 0.0796 0.94321 0.0
C1193 C 0.66407 0.06752 0.94079 0.0
O1194 O 0.65316 0.06243 0.9573 0.0
O1195 O 0.65472 0.10899 0.97876 0.0
Mg1196 Mg 0.66881 0.43412 0.22009 0.0
C1197 C 0.70512 0.44667 0.24577 0.0
O1198 O 0.6981 0.46472 0.23926 0.0
C1199 C 0.63471 0.40583 0.20684 0.0
O1200 O 0.63513 0.41939 0.19155 0.0
C1201 C 0.63421 0.46414 0.23222 0.0
O1202 O 0.62286 0.44775 0.22784 0.0
O1203 O 0.65369 0.46337 0.22886 0.0
O1204 O 0.6953 0.43028 0.24078 0.0
O1205 O 0.68209 0.43071 0.1891 0.0
C1206 C 0.69403 0.41489 0.18843 0.0
O1207 O 0.69684 0.40421 0.20563 0.0
O1208 O 0.64707 0.40837 0.22212 0.0
Mg1209 Mg 0.17898 0.41853 0.04203 0.0
C1210 C 0.18293 0.46291 0.02848 0.0
O1211 O 0.19118 0.46371 0.04717 0.0
C1212 C 0.15271 0.38197 0.05116 0.0
O1213 O 0.16873 0.37924 0.06356 0.0
C1214 C 0.22037 0.40793 0.02184 0.0
O1215 O 0.21809 0.42706 0.01505 0.0
O1216 O 0.20705 0.40078 0.03463 0.0
O1217 O 0.1764 0.44551 0.02167 0.0
O1218 O 0.17446 0.43009 0.07356 0.0
C1219 C 0.15783 0.44082 0.07487 0.0
O1220 O 0.14674 0.4436 0.05791 0.0
O1221 O 0.15289 0.39743 0.03878 0.0
Mg1222 Mg 0.8368 0.92759 0.78438 0.0
C1223 C 0.79297 0.93175 0.77081 0.0
O1224 O 0.79438 0.94524 0.78611 0.0
C1225 C 0.87094 0.89974 0.79862 0.0
O1226 O 0.86967 0.91322 0.81395 0.0
C1227 C 0.87117 0.95835 0.77362 0.0
O1228 O 0.88241 0.94369 0.78236 0.0
O1229 O 0.85147 0.95641 0.77354 0.0
O1230 O 0.80924 0.92177 0.76553 0.0
O1231 O 0.82544 0.92556 0.81626 0.0
C1232 C 0.81511 0.90887 0.81896 0.0
O1233 O 0.81224 0.8966 0.80285 0.0
O1234 O 0.85904 0.90209 0.78293 0.0
Mg1235 Mg 0.17154 0.58247 0.28741 0.0
C1236 C 0.21369 0.56826 0.27625 0.0
O1237 O 0.20776 0.55519 0.29078 0.0
C1238 C 0.13476 0.60917 0.29214 0.0
O1239 O 0.13048 0.59286 0.30369 0.0
C1240 C 0.1576 0.54332 0.26553 0.0
O1241 O 0.17421 0.5479 0.25459 0.0
O1242 O 0.15328 0.55444 0.28136 0.0
O1243 O 0.20094 0.58227 0.27045 0.0
O1244 O 0.18041 0.5897 0.31914 0.0
C1245 C 0.18733 0.57912 0.33433 0.0
O1246 O 0.18903 0.55883 0.33267 0.0
O1247 O 0.15136 0.60889 0.28132 0.0
C1248 C 0.0121 0.29524 0.01612 0.0
C1249 C 0.01483 0.31366 0.02761 0.0
C1250 C 1.00436 0.29563 0.99574 0.0
C1251 C 0.99936 0.31448 0.98583 0.0
H1252 H 0.01582 0.28029 0.02296 0.0
H1253 H 1.0024 0.28097 0.98767 0.0
S1254 S 1.00394 0.3672 0.00892 0.0
N1255 N 0.012 0.35139 0.02751 0.0
N1256 N 0.99771 0.35214 0.98905 0.0
C1257 C 1.00217 0.33308 0.99703 0.0
C1258 C 0.00979 0.33266 0.01796 0.0
C1259 C 0.93148 0.23538 0.25658 0.0
C1260 C 0.92991 0.2448 0.23682 0.0
C1261 C 0.931 0.24722 0.27491 0.0
C1262 C 0.92928 0.26898 0.27421 0.0
H1263 H 0.93329 0.21869 0.25793 0.0
H1264 H 0.93262 0.23928 0.2897 0.0
S1265 S 0.92341 0.30121 0.2266 0.0
N1266 N 0.92549 0.27718 0.21779 0.0
N1267 N 0.92486 0.29946 0.2522 0.0
C1268 C 0.92717 0.27859 0.25461 0.0
C1269 C 0.92738 0.2665 0.23594 0.0
C1270 C 0.01235 0.18666 0.5205 0.0
C1271 C 0.99062 0.18456 0.5207 0.0
C1272 C 0.02337 0.1875 0.5017 0.0
C1273 C 0.01314 0.18587 0.48236 0.0
H1274 H 0.02089 0.18821 0.53496 0.0
H1275 H 0.04009 0.18947 0.50237 0.0
S1276 S 0.95645 0.17867 0.47447 0.0
N1277 N 0.95927 0.17994 0.49999 0.0
N1278 N 0.98005 0.18117 0.46466 0.0
C1279 C 0.99146 0.18309 0.48236 0.0
C1280 C 0.98019 0.18256 0.50152 0.0
C1281 C 0.07396 0.26356 0.77008 0.0
C1282 C 0.07504 0.24174 0.77016 0.0
C1283 C 0.07374 0.27473 0.75135 0.0
C1284 C 0.075 0.26453 0.73198 0.0
H1285 H 0.07276 0.27207 0.78459 0.0
H1286 H 0.0726 0.29152 0.7521 0.0
S1287 S 0.07948 0.20757 0.72379 0.0
N1288 N 0.07822 0.21032 0.74932 0.0
N1289 N 0.07815 0.23132 0.71411 0.0
C1290 C 0.07669 0.24272 0.73186 0.0
C1291 C 0.0766 0.23133 0.75095 0.0
C1292 C 0.01387 0.68241 0.02808 0.0
C1293 C 0.99203 0.68195 0.02799 0.0
C1294 C 0.02518 0.68235 0.00942 0.0
C1295 C 0.01511 0.68143 0.98995 0.0
H1296 H 0.0223 0.68339 0.04266 0.0
H1297 H 0.04199 0.68312 0.0103 0.0
S1298 S 0.9581 0.67838 0.98135 0.0
N1299 N 0.96071 0.67954 0.00689 0.0
N1300 N 0.98195 0.67911 0.97185 0.0
C1301 C 0.99327 0.68026 0.98969 0.0
C1302 C 0.98174 0.68063 0.00869 0.0
C1303 C 0.54906 0.27036 0.2433 0.0
C1304 C 0.56727 0.27052 0.2312 0.0
C1305 C 0.54892 0.26188 0.26336 0.0
C1306 C 0.56707 0.25357 0.27232 0.0
H1307 H 0.53467 0.27665 0.23717 0.0
H1308 H 0.53442 0.26195 0.27195 0.0
S1309 S 0.61902 0.25063 0.24733 0.0
N1310 N 0.60405 0.26178 0.22964 0.0
N1311 N 0.60387 0.24612 0.26758 0.0
C1312 C 0.5855 0.25384 0.26051 0.0
C1313 C 0.58557 0.2622 0.23988 0.0
C1314 C 0.02002 0.8504 0.50734 0.0
C1315 C 0.01298 0.83999 0.52529 0.0
C1316 C 0.01069 0.84709 0.48784 0.0
C1317 C 0.99388 0.83328 0.48549 0.0
H1318 H 0.0331 0.86095 0.50822 0.0
H1319 H 0.0168 0.85537 0.47451 0.0
S1320 S 0.96889 0.80281 0.52785 0.0
N1321 N 0.98767 0.81578 0.53954 0.0
N1322 N 0.97019 0.80954 0.50311 0.0
C1323 C 0.98646 0.82303 0.50342 0.0
C1324 C 0.99597 0.82639 0.52323 0.0
C1325 C 0.46112 0.25232 0.7438 0.0
C1326 C 0.44242 0.24559 0.7347 0.0
C1327 C 0.46136 0.26155 0.76355 0.0
C1328 C 0.44299 0.26388 0.77519 0.0
H1329 H 0.47569 0.25063 0.73552 0.0
H1330 H 0.47612 0.26668 0.76984 0.0
S1331 S 0.38997 0.24838 0.75855 0.0
N1332 N 0.40503 0.24182 0.73878 0.0
N1333 N 0.40555 0.25866 0.77623 0.0
C1334 C 0.42418 0.257 0.76639 0.0
C1335 C 0.42388 0.24802 0.74604 0.0
C1336 C 0.99399 0.99901 0.33321 0.0
C1337 C 0.98128 1.00037 0.3154 0.0
C1338 C 0.01391 0.00795 0.33362 0.0
C1339 C 0.02172 0.01889 0.31635 0.0
H1340 H 0.98862 0.99079 0.3469 0.0
H1341 H 0.02309 0.00659 0.3477 0.0
S1342 S 0.99476 0.0268 0.26583 0.0
N1343 N 0.97812 0.01334 0.27996 0.0
N1344 N 0.01532 0.03027 0.28081 0.0
C1345 C 0.00919 0.02033 0.29844 0.0
C1346 C 0.98904 0.01105 0.29794 0.0
C1347 C 0.25419 0.26156 0.58512 0.0
C1348 C 0.24732 0.2706 0.56637 0.0
C1349 C 0.26198 0.24113 0.58565 0.0
C1350 C 0.26349 0.2291 0.5674 0.0
H1351 H 0.25332 0.27021 0.59956 0.0
H1352 H 0.26716 0.23487 0.60042 0.0
S1353 S 0.24764 0.24549 0.51429 0.0
N1354 N 0.24253 0.26583 0.52909 0.0
N1355 N 0.25727 0.22768 0.53008 0.0
C1356 C 0.25671 0.23798 0.54856 0.0
C1357 C 0.24861 0.25864 0.54805 0.0
C1358 C 0.98985 0.51533 0.82821 0.0
C1359 C 0.98982 0.49355 0.82989 0.0
C1360 C 0.00857 0.52647 0.82728 0.0
C1361 C 0.02798 0.51632 0.8284 0.0
H1362 H 0.97533 0.5238 0.82693 0.0
H1363 H 0.00777 0.5432 0.82554 0.0
S1364 S 0.0363 0.45955 0.83459 0.0
N1365 N 0.01077 0.46226 0.83373 0.0
N1366 N 0.04592 0.48324 0.83235 0.0
C1367 C 0.02815 0.4946 0.83088 0.0
C1368 C 0.00908 0.48321 0.8315 0.0
C1369 C 0.75209 0.23581 0.10111 0.0
C1370 C 0.77157 0.23478 0.09123 0.0
C1371 C 0.74178 0.25488 0.10381 0.0
C1372 C 0.75055 0.27369 0.09677 0.0
H1373 H 0.74443 0.22175 0.10629 0.0
H1374 H 0.72653 0.25473 0.11097 0.0
S1375 S 0.80246 0.27974 0.07222 0.0
N1376 N 0.8001 0.25449 0.07606 0.0
N1377 N 0.78073 0.29018 0.08107 0.0
C1378 C 0.77045 0.27296 0.0877 0.0
C1379 C 0.78094 0.25356 0.08495 0.0
C1380 C 0.02491 0.00742 0.68116 0.0
C1381 C 0.02662 0.99013 0.66784 0.0
C1382 C 0.00577 0.01729 0.68454 0.0
C1383 C 0.98741 0.01029 0.67485 0.0
H1384 H 0.03847 0.01342 0.68914 0.0
H1385 H 0.00544 0.03054 0.69496 0.0
S1386 S 0.98329 0.96553 0.63853 0.0
N1387 N 0.00816 0.96636 0.64484 0.0
N1388 N 0.97221 0.9849 0.65125 0.0
C1389 C 0.98885 0.99303 0.66142 0.0
C1390 C 0.00842 0.98299 0.65791 0.0
C1391 C 0.23539 0.25519 0.937 0.0
C1392 C 0.24538 0.23573 0.93544 0.0
C1393 C 0.24675 0.27379 0.93717 0.0
C1394 C 0.26858 0.27364 0.93618 0.0
H1395 H 0.2186 0.25611 0.93806 0.0
H1396 H 0.23839 0.28836 0.93854 0.0
S1397 S 0.30228 0.22699 0.93113 0.0
N1398 N 0.27843 0.21758 0.93216 0.0
N1399 N 0.29979 0.25249 0.93281 0.0
C1400 C 0.27878 0.25435 0.93437 0.0
C1401 C 0.2672 0.23541 0.93389 0.0
C1402 C 0.01178 0.49815 0.18006 0.0
C1403 C 0.02043 0.48819 0.19755 0.0
C1404 C 0.99159 0.5065 0.18064 0.0
C1405 C 0.97946 0.50554 0.19885 0.0
H1406 H 0.02057 0.49931 0.16573 0.0
H1407 H 0.98562 0.51414 0.16684 0.0
S1408 S 0.9949 0.48116 0.24889 0.0
N1409 N 0.01521 0.47775 0.23356 0.0
N1410 N 0.97751 0.49368 0.23473 0.0
C1411 C 0.98794 0.49565 0.21643 0.0
C1412 C 0.00835 0.4869 0.21576 0.0
C1413 C 0.74833 0.24939 0.42294 0.0
C1414 C 0.74201 0.2392 0.44126 0.0
C1415 C 0.75779 0.26907 0.42373 0.0
C1416 C 0.76175 0.27891 0.44289 0.0
H1417 H 0.74561 0.24227 0.4079 0.0
H1418 H 0.76242 0.27644 0.40929 0.0
S1419 S 0.7485 0.25857 0.49527 0.0
N1420 N 0.74035 0.24042 0.47903 0.0
N1421 N 0.7586 0.27701 0.48055 0.0
C1422 C 0.75566 0.26877 0.46128 0.0
C1423 C 0.74567 0.24901 0.46046 0.0
C1424 C 0.2991 0.98797 1.00485 0.0
C1425 C 0.31716 0.9796 0.99575 0.0
C1426 C 0.29921 0.00765 0.01418 0.0
C1427 C 0.31726 0.01997 0.01443 0.0
H1428 H 0.28475 0.97916 1.00494 0.0
H1429 H 0.28491 0.01333 0.02108 0.0
S1430 S 0.36867 0.00539 0.9926 0.0
N1431 N 0.35368 0.98516 0.98761 0.0
N1432 N 0.35376 0.02237 1.00484 0.0
C1433 C 0.33543 0.01189 0.00528 0.0
C1434 C 0.33542 0.99165 0.99606 0.0
C1435 C 0.83251 0.01574 0.50862 0.0
C1436 C 0.81339 0.02555 0.51285 0.0
C1437 C 0.83322 0.99578 0.49976 0.0
C1438 C 0.81485 0.98524 0.49436 0.0
H1439 H 0.84701 0.02336 0.51252 0.0
H1440 H 0.84824 0.98873 0.49679 0.0
S1441 S 0.76091 1.00424 0.50203 0.0
N1442 N 0.77571 0.02317 0.51107 0.0
N1443 N 0.77706 0.986 0.49389 0.0
C1444 C 0.79568 0.99496 0.49833 0.0
C1445 C 0.79494 0.01504 0.50773 0.0
C1446 C 0.25901 0.09405 0.73874 0.0
C1447 C 0.27707 0.08339 0.74513 0.0
C1448 C 0.23967 0.09028 0.74811 0.0
C1449 C 0.23755 0.07574 0.76435 0.0
H1450 H 0.2597 0.10531 0.72623 0.0
H1451 H 0.22631 0.09894 0.74259 0.0
S1452 S 0.28007 0.04375 0.78711 0.0
N1453 N 0.29156 0.05771 0.76892 0.0
N1454 N 0.25534 0.05063 0.78648 0.0
C1455 C 0.25551 0.06501 0.77097 0.0
C1456 C 0.2752 0.06883 0.76141 0.0
C1457 C 0.18392 0.50168 0.02542 0.0
C1458 C 0.18135 0.48214 0.01581 0.0
C1459 C 0.18324 0.52017 0.01388 0.0
C1460 C 0.18025 0.51986 0.99221 0.0
H1461 H 0.18658 0.50275 0.04204 0.0
H1462 H 0.18562 0.53476 0.02195 0.0
S1463 S 0.17165 0.47293 0.9596 0.0
N1464 N 0.17483 0.46374 0.98338 0.0
N1465 N 0.17373 0.49842 0.96166 0.0
C1466 C 0.17722 0.50048 0.98243 0.0
C1467 C 0.17771 0.48165 0.99423 0.0
C1468 C 0.27249 0.94022 0.25457 0.0
C1469 C 0.2746 0.92461 0.26979 0.0
C1470 C 0.25338 0.94407 0.24484 0.0
C1471 C 0.23548 0.9326 0.24995 0.0
H1472 H 0.28571 0.94959 0.25006 0.0
H1473 H 0.25272 0.95623 0.23317 0.0
S1474 S 0.2325 0.89006 0.28894 0.0
N1475 N 0.25701 0.89761 0.28962 0.0
N1476 N 0.22109 0.9049 0.27135 0.0
C1477 C 0.23729 0.91696 0.26521 0.0
C1478 C 0.25685 0.91295 0.27507 0.0
C1479 C 0.67396 0.99643 0.01406 0.0
C1480 C 0.69172 0.98364 0.01301 0.0
C1481 C 0.67403 0.01659 0.00561 0.0
C1482 C 0.69171 0.02446 0.99542 0.0
H1483 H 0.66002 0.99097 0.02176 0.0
H1484 H 0.66004 0.02593 0.00676 0.0
S1485 S 0.74209 0.99711 0.98833 0.0
N1486 N 0.72743 0.98033 1.00104 0.0
N1487 N 0.72744 0.01792 0.98485 0.0
C1488 C 0.70949 0.01175 0.99415 0.0
C1489 C 0.70953 0.99143 1.00304 0.0
C1490 C 0.27695 0.43395 0.74532 0.0
C1491 C 0.27701 0.43411 0.7672 0.0
C1492 C 0.25824 0.43433 0.7341 0.0
C1493 C 0.23884 0.43449 0.7443 0.0
H1494 H 0.29147 0.43401 0.73678 0.0
H1495 H 0.25901 0.43445 0.71725 0.0
S1496 S 0.23049 0.43392 0.80144 0.0
N1497 N 0.25602 0.43382 0.7987 0.0
N1498 N 0.22089 0.43419 0.77759 0.0
C1499 C 0.23868 0.43413 0.76618 0.0
C1500 C 0.25774 0.43406 0.77762 0.0
C1501 C 0.74319 0.08367 0.2572 0.0
C1502 C 0.73451 0.06703 0.26844 0.0
C1503 C 0.76364 0.08267 0.24957 0.0
C1504 C 0.77607 0.06487 0.25261 0.0
H1505 H 0.73424 0.0977 0.25454 0.0
H1506 H 0.76964 0.09587 0.24101 0.0
S1507 S 0.76049 0.01687 0.28063 0.0
N1508 N 0.73988 0.03212 0.28202 0.0
N1509 N 0.77809 0.03018 0.26755 0.0
C1510 C 0.76749 0.04807 0.26366 0.0
C1511 C 0.74679 0.04917 0.27161 0.0
C1512 C 0.96184 0.76146 0.7667 0.0
C1513 C 0.94323 0.76404 0.7779 0.0
C1514 C 0.96182 0.75369 0.74635 0.0
C1515 C 0.94316 0.74849 0.73617 0.0
H1516 H 0.97665 0.76532 0.77375 0.0
H1517 H 0.97662 0.75182 0.73851 0.0
S1518 S 0.89007 0.7527 0.75845 0.0
N1519 N 0.90553 0.76094 0.77725 0.0
N1520 N 0.90547 0.74654 0.73882 0.0
C1521 C 0.92437 0.75118 0.74707 0.0
C1522 C 0.92441 0.75885 0.76798 0.0
C1523 C 0.07388 0.73731 0.25897 0.0
C1524 C 0.07768 0.74747 0.27802 0.0
C1525 C 0.07409 0.74818 0.24006 0.0
C1526 C 0.07767 0.76971 0.23954 0.0
H1527 H 0.07057 0.7208 0.25864 0.0
H1528 H 0.07078 0.73975 0.22584 0.0
S1529 S 0.08952 0.80345 0.28492 0.0
N1530 N 0.08614 0.78011 0.29508 0.0
N1531 N 0.08612 0.80068 0.25959 0.0
C1532 C 0.08195 0.78 0.25842 0.0
C1533 C 0.0821 0.76884 0.27765 0.0
C1534 C 0.55109 0.77286 0.75192 0.0
C1535 C 0.56808 0.77037 0.73835 0.0
C1536 C 0.55116 0.76406 0.77184 0.0
C1537 C 0.56838 0.75273 0.77918 0.0
H1538 H 0.53745 0.78148 0.74703 0.0
H1539 H 0.53759 0.76623 0.7816 0.0
S1540 S 0.61703 0.74202 0.74996 0.0
N1541 N 0.60271 0.75585 0.7337 0.0
N1542 N 0.603 0.73956 0.77134 0.0
C1543 C 0.58563 0.75032 0.7659 0.0
C1544 C 0.58542 0.75903 0.74543 0.0
C1545 C 0.41924 0.74942 0.24046 0.0
C1546 C 0.43777 0.74108 0.23235 0.0
C1547 C 0.41892 0.7591 0.26009 0.0
C1548 C 0.43722 0.76123 0.27196 0.0
H1549 H 0.40483 0.74798 0.23183 0.0
H1550 H 0.4043 0.76515 0.26591 0.0
S1551 S 0.48985 0.74265 0.2572 0.0
N1552 N 0.47486 0.73585 0.23748 0.0
N1553 N 0.47438 0.75443 0.27398 0.0
C1554 C 0.45588 0.7533 0.26377 0.0
C1555 C 0.45612 0.74312 0.24407 0.0
C1556 C 0.24919 0.73355 0.08238 0.0
C1557 C 0.27102 0.73376 0.08331 0.0
C1558 C 0.23776 0.75213 0.08164 0.0
C1559 C 0.24769 0.77165 0.08213 0.0
H1560 H 0.24087 0.71893 0.08152 0.0
H1561 H 0.22098 0.75114 0.08053 0.0
S1562 S 0.30457 0.78062 0.08617 0.0
N1563 N 0.30215 0.75508 0.08576 0.0
N1564 N 0.28069 0.78995 0.08465 0.0
C1565 C 0.2695 0.77206 0.08382 0.0
C1566 C 0.28114 0.75313 0.08432 0.0
C1567 C 0.7602 0.74927 0.58944 0.0
C1568 C 0.7609 0.73751 0.57097 0.0
C1569 C 0.75095 0.76909 0.58986 0.0
C1570 C 0.74169 0.77763 0.57193 0.0
H1571 H 0.76718 0.7433 0.60358 0.0
H1572 H 0.7508 0.77763 0.60439 0.0
S1573 S 0.73901 0.75285 0.51977 0.0
N1574 N 0.75141 0.73576 0.53439 0.0
N1575 N 0.73377 0.77269 0.53522 0.0
C1576 C 0.74212 0.76589 0.55344 0.0
C1577 C 0.75179 0.74592 0.55294 0.0
C1578 C 0.23258 0.74584 0.40814 0.0
C1579 C 0.23985 0.72829 0.4191 0.0
C1580 C 0.24159 0.76552 0.41098 0.0
C1581 C 0.25822 0.76847 0.42492 0.0
H1582 H 0.21951 0.74452 0.39758 0.0
H1583 H 0.23523 0.77856 0.40242 0.0
S1584 S 0.2842 0.72723 0.45614 0.0
N1585 N 0.26553 0.71497 0.44353 0.0
N1586 N 0.28241 0.75178 0.4489 0.0
C1587 C 0.26602 0.75092 0.43554 0.0
C1588 C 0.25687 0.73091 0.43263 0.0
C1589 C 0.76204 0.74069 0.95897 0.0
C1590 C 0.75191 0.73181 0.94173 0.0
C1591 C 0.76978 0.76102 0.95824 0.0
C1592 C 0.76733 0.77349 0.9404 0.0
H1593 H 0.76408 0.73183 0.97317 0.0
H1594 H 0.77755 0.76709 0.97192 0.0
S1595 S 0.74164 0.75772 0.89113 0.0
N1596 N 0.73978 0.73704 0.90624 0.0
N1597 N 0.75401 0.77544 0.90501 0.0
C1598 C 0.75712 0.76487 0.92305 0.0
C1599 C 0.74954 0.74398 0.92367 0.0
C1600 C 0.34613 0.52057 0.49365 0.0
C1601 C 0.33337 0.52242 0.51136 0.0
C1602 C 0.3496 0.50121 0.48413 0.0
C1603 C 0.34044 0.4829 0.49187 0.0
H1604 H 0.35349 0.53415 0.48701 0.0
H1605 H 0.35934 0.50071 0.47037 0.0
S1606 S 0.3061 0.47911 0.53823 0.0
N1607 N 0.3118 0.50405 0.53649 0.0
N1608 N 0.31835 0.46786 0.51868 0.0
C1609 C 0.32783 0.48449 0.50973 0.0
C1610 C 0.32429 0.50418 0.51942 0.0
C1611 C 0.80139 0.49092 1.00327 0.0
C1612 C 0.82019 0.48099 0.99815 0.0
C1613 C 0.80125 0.5101 0.01358 0.0
C1614 C 0.8199 0.52034 0.01858 0.0
H1615 H 0.78665 0.48371 0.99944 0.0
H1616 H 0.7864 0.51715 0.01732 0.0
S1617 S 0.87327 0.50102 0.00829 0.0
N1618 N 0.85794 0.48266 0.99894 0.0
N1619 N 0.85768 0.51916 0.01772 0.0
C1620 C 0.83882 0.51067 0.01341 0.0
C1621 C 0.83896 0.49085 1.00338 0.0
C1622 C 0.26433 0.58326 0.24934 0.0
C1623 C 0.27668 0.56529 0.25162 0.0
C1624 C 0.24386 0.58401 0.25701 0.0
C1625 C 0.23506 0.56694 0.26751 0.0
H1626 H 0.27038 0.59674 0.24127 0.0
H1627 H 0.23497 0.59817 0.25486 0.0
S1628 S 0.26104 0.51633 0.2779 0.0
N1629 N 0.27865 0.5301 0.26533 0.0
N1630 N 0.24043 0.53153 0.2798 0.0
C1631 C 0.24733 0.54895 0.27002 0.0
C1632 C 0.26805 0.54812 0.26207 0.0
C1633 C 0.16949 0.99066 0.5063 0.0
C1634 C 0.18815 0.97935 0.50817 0.0
C1635 C 0.16947 0.01121 0.49882 0.0
C1636 C 0.18803 0.02089 0.49248 0.0
H1637 H 0.1549 0.98377 0.51111 0.0
H1638 H 0.1548 0.01943 0.49767 0.0
S1639 S 0.2409 0.99778 0.49392 0.0
N1640 N 0.2256 0.97933 0.50306 0.0
N1641 N 0.22547 0.01759 0.48848 0.0
C1642 C 0.2067 0.00962 0.49402 0.0
C1643 C 0.20679 0.98894 0.50201 0.0
C1644 C 0.7079 0.51434 0.48951 0.0
C1645 C 0.69122 0.5281 0.493 0.0
C1646 C 0.70807 0.49432 0.49807 0.0
C1647 C 0.69143 0.48705 0.51023 0.0
H1648 H 0.72111 0.51911 0.48021 0.0
H1649 H 0.72139 0.48444 0.49504 0.0
S1650 S 0.64381 0.51679 0.52392 0.0
N1651 N 0.6575 0.53298 0.50946 0.0
N1652 N 0.65771 0.49523 0.52537 0.0
C1653 C 0.67451 0.50054 0.51372 0.0
C1654 C 0.67445 0.52109 0.50519 0.0
C1655 C 0.74667 0.58527 0.76081 0.0
C1656 C 0.73832 0.56775 0.77091 0.0
C1657 C 0.76706 0.58508 0.75291 0.0
C1658 C 0.77966 0.56721 0.75446 0.0
H1659 H 0.73748 0.59931 0.75919 0.0
H1660 H 0.77281 0.59886 0.74514 0.0
S1661 S 0.76512 0.51727 0.7794 0.0
N1662 N 0.74434 0.53211 0.78211 0.0
N1663 N 0.78236 0.53166 0.767 0.0
C1664 C 0.77147 0.54962 0.76449 0.0
C1665 C 0.75089 0.54991 0.77279 0.0
C1666 C 0.50616 0.33736 0.51355 0.0
C1667 C 0.51871 0.32125 0.52151 0.0
C1668 C 0.4987 0.33682 0.49298 0.0
C1669 C 0.50327 0.32002 0.47967 0.0
H1670 H 0.5022 0.35059 0.52321 0.0
H1671 H 0.48897 0.3495 0.48762 0.0
S1672 S 0.53551 0.2739 0.4929 0.0
N1673 N 0.53542 0.28803 0.51434 0.0
N1674 N 0.52136 0.28699 0.47592 0.0
C1675 C 0.51583 0.30385 0.48744 0.0
C1676 C 0.52355 0.30447 0.50827 0.0
C1677 C 0.50876 0.17309 0.99293 0.0
C1678 C 0.50844 0.19118 0.98059 0.0
C1679 C 0.50018 0.17301 0.01304 0.0
C1680 C 0.49061 0.19088 0.02134 0.0
H1681 H 0.51608 0.15903 0.98719 0.0
H1682 H 0.50081 0.15877 0.02203 0.0
S1683 S 0.48534 0.24206 0.99514 0.0
N1684 N 0.49765 0.22734 0.97807 0.0
N1685 N 0.48126 0.22708 0.01559 0.0
C1686 C 0.48998 0.20896 0.00904 0.0
C1687 C 0.49897 0.20913 0.98875 0.0
C1688 C 0.50782 0.67795 0.49095 0.0
C1689 C 0.51708 0.69555 0.48185 0.0
C1690 C 0.49987 0.67864 0.51129 0.0
C1691 C 0.50053 0.69707 0.52311 0.0
H1692 H 0.50695 0.66346 0.4824 0.0
H1693 H 0.49276 0.66475 0.51763 0.0
S1694 S 0.52304 0.74747 0.50642 0.0
N1695 N 0.52653 0.7319 0.48629 0.0
N1696 N 0.5113 0.73327 0.52428 0.0
C1697 C 0.50969 0.71476 0.51417 0.0
C1698 C 0.51805 0.71399 0.49361 0.0
C1699 C 0.50262 0.79814 0.99136 0.0
C1700 C 0.4978 0.81702 0.9814 0.0
C1701 C 0.51024 0.79772 0.01176 0.0
C1702 C 0.51306 0.81613 0.02324 0.0
H1703 H 0.50062 0.78349 0.98328 0.0
H1704 H 0.51385 0.78276 0.01863 0.0
S1705 S 0.50253 0.86972 1.00449 0.0
N1706 N 0.49632 0.85469 0.98459 0.0
N1707 N 0.51042 0.85388 0.02313 0.0
C1708 C 0.50816 0.83517 0.01357 0.0
C1709 C 0.50064 0.83562 0.9926 0.0
C1710 C 0.50296 0.98384 0.84849 0.0
C1711 C 0.48437 0.99158 0.8398 0.0
C1712 C 0.52196 0.99425 0.84585 0.0
C1713 C 0.52319 0.0129 0.83444 0.0
H1714 H 0.50296 0.96945 0.85725 0.0
H1715 H 0.53578 0.98757 0.8528 0.0
S1716 S 0.47892 0.04013 0.80893 0.0
N1717 N 0.46838 0.01934 0.81961 0.0
N1718 N 0.50391 0.03887 0.81465 0.0
C1719 C 0.50467 0.02093 0.82581 0.0
C1720 C 0.48533 0.01031 0.82849 0.0
C1721 C 0.50727 0.52269 0.35464 0.0
C1722 C 0.52509 0.51532 0.34422 0.0
C1723 C 0.48778 0.51323 0.35191 0.0
C1724 C 0.48531 0.49593 0.33871 0.0
H1725 H 0.50824 0.53614 0.36476 0.0
H1726 H 0.47455 0.51961 0.36016 0.0
S1727 S 0.52726 0.47003 0.30837 0.0
N1728 N 0.53906 0.48924 0.32059 0.0
N1729 N 0.50265 0.4715 0.31545 0.0
C1730 C 0.5031 0.48819 0.32845 0.0
C1731 C 0.52291 0.49785 0.3312 0.0
C1732 C 0.51321 0.99799 0.17504 0.0
C1733 C 0.52428 0.99478 0.19366 0.0
C1734 C 0.49341 0.00725 0.17516 0.0
C1735 C 0.48426 0.01407 0.19385 0.0
H1736 H 0.5197 0.99296 0.16031 0.0
H1737 H 0.48538 0.00939 0.16049 0.0
S1738 S 0.50705 0.00959 0.24674 0.0
N1739 N 0.52468 0.99916 0.23124 0.0
N1740 N 0.4878 0.01701 0.23142 0.0
C1741 C 0.49529 0.01115 0.21252 0.0
C1742 C 0.51522 1.00137 0.21244 0.0
C1743 C 0.51362 0.50637 0.67072 0.0
C1744 C 0.52597 0.50758 0.68878 0.0
C1745 C 0.49315 0.5141 0.6705 0.0
C1746 C 0.48446 0.52365 0.68821 0.0
H1747 H 0.51959 0.4989 0.65684 0.0
H1748 H 0.48414 0.51271 0.65632 0.0
S1749 S 0.51067 0.53126 0.73918 0.0
N1750 N 0.52818 0.51935 0.72466 0.0
N1751 N 0.49 0.53411 0.72419 0.0
C1752 C 0.49683 0.52528 0.70622 0.0
C1753 C 0.5175 0.51718 0.70652 0.0
C1754 C 0.73539 0.93634 0.75824 0.0
C1755 C 0.73219 0.92114 0.7428 0.0
C1756 C 0.75505 0.93958 0.76704 0.0
C1757 C 0.77247 0.92785 0.7608 0.0
H1758 H 0.72262 0.94595 0.76357 0.0
H1759 H 0.75653 0.95153 0.77884 0.0
S1760 S 0.77258 0.88594 0.72101 0.0
N1761 N 0.74822 0.89405 0.7217 0.0
N1762 N 0.78517 0.9002 0.73826 0.0
C1763 C 0.76953 0.91249 0.74544 0.0
C1764 C 0.74942 0.90913 0.73648 0.0
C1765 C 0.75793 0.42728 0.26401 0.0
C1766 C 0.76531 0.44394 0.27613 0.0
C1767 C 0.73812 0.42794 0.25481 0.0
C1768 C 0.72518 0.44548 0.25703 0.0
H1769 H 0.76746 0.41356 0.26173 0.0
H1770 H 0.73314 0.41485 0.24544 0.0
S1771 S 0.73712 0.49317 0.28723 0.0
N1772 N 0.75794 0.47838 0.29004 0.0
N1773 N 0.72099 0.47974 0.27245 0.0
C1774 C 0.73235 0.46219 0.26914 0.0
C1775 C 0.75233 0.4614 0.27877 0.0
C1776 C 1.00338 0.2647 0.1256 0.0
C1777 C 0.01838 0.27635 0.13653 0.0
C1778 C 0.98992 0.25099 0.13598 0.0
C1779 C 0.99089 0.24834 0.15773 0.0
H1780 H 1.00132 0.26685 0.109 0.0
H1781 H 0.97804 0.24317 0.12695 0.0
S1782 S 0.02961 0.27256 0.19313 0.0
N1783 N 0.035 0.28237 0.17002 0.0
N1784 N 0.00979 0.2567 0.18946 0.0
C1785 C 0.00675 0.2588 0.16862 0.0
C1786 C 0.02045 0.27276 0.15806 0.0
C1787 C 0.98109 0.26479 0.38607 0.0
C1788 C 0.98437 0.26375 0.36442 0.0
C1789 C 0.99286 0.2527 0.39994 0.0
C1790 C 0.00857 0.23916 0.39282 0.0
H1791 H 0.96862 0.27423 0.39236 0.0
H1792 H 0.98902 0.25342 0.41634 0.0
S1793 S 0.02541 0.23292 0.33786 0.0
N1794 N 0.00599 0.24969 0.33671 0.0
N1795 N 0.02818 0.22711 0.36273 0.0
C1796 C 0.01302 0.23908 0.37134 0.0
C1797 C 1.0009 0.2513 0.35718 0.0
C1798 C 0.99841 0.23248 0.6341 0.0
C1799 C 0.99947 0.23569 0.61245 0.0
C1800 C 0.01057 0.24418 0.64793 0.0
C1801 C 0.02426 0.25969 0.64077 0.0
H1802 H 0.98883 0.22019 0.64044 0.0
H1803 H 0.00975 0.24043 0.66435 0.0
S1804 S 0.03065 0.2763 0.58576 0.0
N1805 N 0.01372 0.25706 0.58466 0.0
N1806 N 0.0365 0.27906 0.61062 0.0
C1807 C 0.02443 0.26403 0.61927 0.0
C1808 C 0.01208 0.25203 0.60515 0.0
C1809 C 0.99444 0.2791 0.85593 0.0
C1810 C 0.99469 0.28024 0.87781 0.0
C1811 C 0.00713 0.26505 0.84513 0.0
C1812 C 0.02076 0.25151 0.85569 0.0
H1813 H 0.98485 0.28965 0.84692 0.0
H1814 H 0.00679 0.26544 0.82828 0.0
S1815 S 0.02564 0.24644 0.91309 0.0
N1816 N 0.00839 0.26518 0.90978 0.0
N1817 N 0.0323 0.23882 0.88948 0.0
C1818 C 0.02029 0.25158 0.87762 0.0
C1819 C 0.00727 0.26591 0.88867 0.0
C1820 C 0.99304 0.75143 0.91804 0.0
C1821 C 0.00686 0.73849 0.90699 0.0
C1822 C 0.97904 0.76458 0.90771 0.0
C1823 C 0.97825 0.76552 0.88584 0.0
H1824 H 0.99239 0.75087 0.93488 0.0
H1825 H 0.96827 0.77358 0.91704 0.0
S1826 S 0.01274 0.73667 0.84949 0.0
N1827 N 0.0201 0.72884 0.87283 0.0
N1828 N 0.99383 0.75362 0.85342 0.0
C1829 C 0.99284 0.75365 0.87455 0.0
C1830 C 0.0071 0.74013 0.88511 0.0
C1831 C 0.5252 0.2608 0.11995 0.0
C1832 C 0.52273 0.25865 0.14161 0.0
C1833 C 0.51387 0.24844 0.10597 0.0
C1834 C 0.49945 0.23355 0.11303 0.0
H1835 H 0.53672 0.27135 0.11369 0.0
H1836 H 0.51704 0.2501 0.0895 0.0
S1837 S 0.48504 0.22395 0.16819 0.0
N1838 N 0.50322 0.24201 0.16941 0.0
N1839 N 0.48184 0.21894 0.1432 0.0
C1840 C 0.49578 0.23228 0.13461 0.0
C1841 C 0.50746 0.24476 0.14886 0.0
C1842 C 0.01388 0.75859 0.41441 0.0
C1843 C 1.00357 0.77421 0.40298 0.0
C1844 C 0.02668 0.74385 0.40463 0.0
C1845 C 0.02984 0.74404 0.38294 0.0
H1846 H 0.01261 0.75805 0.43121 0.0
H1847 H 0.03475 0.73268 0.41434 0.0
S1848 S 0.0048 0.78038 0.3455 0.0
N1849 N 0.99616 0.78795 0.36847 0.0
N1850 N 0.02017 0.76031 0.35009 0.0
C1851 C 0.01876 0.7589 0.37115 0.0
C1852 C 0.00567 0.77394 0.38115 0.0
C1853 C 0.50429 0.2839 0.63539 0.0
C1854 C 0.50452 0.2791 0.614 0.0
C1855 C 0.49217 0.27246 0.64944 0.0
C1856 C 0.47996 0.25554 0.64281 0.0
H1857 H 0.51277 0.29721 0.64125 0.0
H1858 H 0.49192 0.27734 0.66558 0.0
S1859 S 0.47695 0.23499 0.5889 0.0
N1860 N 0.49277 0.25512 0.58717 0.0
N1861 N 0.4702 0.2335 0.61364 0.0
C1862 C 0.48103 0.24974 0.62171 0.0
C1863 C 0.49322 0.26156 0.60731 0.0
C1864 C 0.13538 0.01176 0.28075 0.0
C1865 C 0.11405 0.01095 0.27583 0.0
C1866 C 0.14996 0.99961 0.26995 0.0
C1867 C 0.14389 0.98627 0.25365 0.0
H1868 H 0.14079 0.02105 0.29373 0.0
H1869 H 0.16603 1.00016 0.27499 0.0
S1870 S 0.09031 0.98075 0.23268 0.0
N1871 N 0.08789 0.99736 0.25212 0.0
N1872 N 0.11524 0.97469 0.23174 0.0
C1873 C 0.12281 0.98641 0.24763 0.0
C1874 C 0.10793 0.99868 0.25874 0.0
C1875 C 0.24822 0.40034 0.52945 0.0
C1876 C 0.24807 0.37852 0.5311 0.0
C1877 C 0.26071 0.41053 0.5148 0.0
C1878 C 0.27377 0.39938 0.50117 0.0
H1879 H 0.23903 0.40977 0.53998 0.0
H1880 H 0.26064 0.42737 0.51475 0.0
S1881 S 0.27777 0.34185 0.49768 0.0
N1882 N 0.261 0.34596 0.51669 0.0
N1883 N 0.28457 0.36511 0.48923 0.0
C1884 C 0.27303 0.37749 0.50191 0.0
C1885 C 0.26017 0.36708 0.51682 0.0
C1886 C 0.90594 0.53064 0.74699 0.0
C1887 C 0.88411 0.53235 0.74691 0.0
C1888 C 0.91624 0.51668 0.76021 0.0
C1889 C 0.90523 0.50382 0.7741 0.0
H1890 H 0.9153 0.54067 0.73722 0.0
H1891 H 0.93309 0.51662 0.76004 0.0
S1892 S 0.8477 0.50057 0.77852 0.0
N1893 N 0.85167 0.51865 0.76073 0.0
N1894 N 0.87102 0.49247 0.78565 0.0
C1895 C 0.88332 0.50448 0.77336 0.0
C1896 C 0.87278 0.5187 0.75977 0.0
C1897 C 0.77183 0.10953 0.02874 0.0
C1898 C 0.76909 0.13051 0.03434 0.0
C1899 C 0.75786 0.09941 0.01538 0.0
C1900 C 0.74054 0.10984 0.00687 0.0
H1901 H 0.78449 0.10051 0.03529 0.0
H1902 H 0.7604 0.08307 0.01218 0.0
S1903 S 0.72735 0.16552 0.01485 0.0
N1904 N 0.74848 0.16186 0.029 0.0
N1905 N 0.7223 0.14288 1.00387 0.0
C1906 C 0.73818 0.13113 0.01145 0.0
C1907 C 0.75239 0.14144 0.02518 0.0
C1908 C 0.15309 0.00952 0.73948 0.0
C1909 C 0.14605 0.02309 0.75521 0.0
C1910 C 0.13926 0.99679 0.72839 0.0
C1911 C 0.11774 0.99716 0.73242 0.0
H1912 H 0.16936 0.00921 0.73513 0.0
H1913 H 0.14544 0.98732 0.71589 0.0
S1914 S 0.09155 0.02782 0.77384 0.0
N1915 N 0.11626 0.0345 0.77563 0.0
N1916 N 0.09033 0.0107 0.75474 0.0
C1917 C 0.11064 0.0097 0.74895 0.0
C1918 C 0.12475 0.0226 0.76035 0.0
C1919 C 0.23358 0.37211 0.01365 0.0
C1920 C 0.23582 0.39381 0.01185 0.0
C1921 C 0.24566 0.35841 1.00167 0.0
C1922 C 0.26062 0.36577 0.98746 0.0
H1923 H 0.22171 0.36559 0.02365 0.0
H1924 H 0.24264 0.3419 1.00306 0.0
S1925 S 0.27469 0.42115 0.97904 0.0
N1926 N 0.25571 0.42197 0.99631 0.0
N1927 N 0.27844 0.39628 0.97392 0.0
C1928 C 0.26401 0.3874 0.98655 0.0
C1929 C 0.25162 0.40138 0.99869 0.0
C1930 C 0.85272 0.51702 0.23512 0.0
C1931 C 0.87451 0.51595 0.23342 0.0
C1932 C 0.84177 0.50423 0.24893 0.0
C1933 C 0.85208 0.48966 0.26167 0.0
H1934 H 0.84387 0.5274 0.22521 0.0
H1935 H 0.82496 0.50532 0.24902 0.0
S1936 S 0.90928 0.48204 0.26483 0.0
N1937 N 0.90622 0.50023 0.24695 0.0
N1938 N 0.88564 0.47611 0.27286 0.0
C1939 C 0.87399 0.48919 0.26101 0.0
C1940 C 0.88519 0.50233 0.24692 0.0
C1941 C 0.76066 0.11214 0.48887 0.0
C1942 C 0.77431 0.11835 0.50485 0.0
C1943 C 0.74881 0.12668 0.4777 0.0
C1944 C 0.75031 0.14811 0.48186 0.0
H1945 H 0.75958 0.09592 0.48443 0.0
H1946 H 0.73921 0.12111 0.46502 0.0
S1947 S 0.78188 0.17241 0.52372 0.0
N1948 N 0.78714 0.14734 0.52553 0.0
N1949 N 0.76506 0.17467 0.50442 0.0
C1950 C 0.76299 0.15446 0.49858 0.0
C1951 C 0.77491 0.1396 0.51012 0.0
C1952 C 0.26532 0.14785 0.99782 0.0
C1953 C 0.25017 0.14163 0.98324 0.0
C1954 C 0.2768 0.13322 0.00928 0.0
C1955 C 0.27375 0.11173 0.00653 0.0
H1956 H 0.26895 0.16416 0.99988 0.0
H1957 H 0.28888 0.13885 0.0196 0.0
S1958 S 0.23407 0.08721 0.97245 0.0
N1959 N 0.23127 0.11239 0.96836 0.0
N1960 N 0.25293 0.08498 0.98975 0.0
C1961 C 0.25777 0.1053 0.99299 0.0
C1962 C 0.24596 0.1202 0.98141 0.0
C1963 C 0.76621 0.86038 0.51616 0.0
C1964 C 0.75108 0.8677 0.53026 0.0
C1965 C 0.77788 0.8741 0.50387 0.0
C1966 C 0.77507 0.89575 0.50534 0.0
H1967 H 0.76963 0.84392 0.51511 0.0
H1968 H 0.78994 0.86771 0.49398 0.0
S1969 S 0.73568 0.92289 0.53774 0.0
N1970 N 0.73252 0.89804 0.54331 0.0
N1971 N 0.75459 0.92378 0.5204 0.0
C1972 C 0.75915 0.90323 0.5184 0.0
C1973 C 0.74712 0.88924 0.53078 0.0
C1974 C 0.36085 0.00611 0.76324 0.0
C1975 C 0.36836 0.0205 0.74851 0.0
C1976 C 0.37443 0.99411 0.77543 0.0
C1977 C 0.39615 0.99602 0.77351 0.0
H1978 H 0.3443 0.00462 0.766 0.0
H1979 H 0.36777 0.98397 0.7871 0.0
S1980 S 0.4239 0.02938 0.73537 0.0
N1981 N 0.39905 0.03439 0.73129 0.0
N1982 N 0.42453 0.01192 0.75419 0.0
C1983 C 0.40389 0.00938 0.75795 0.0
C1984 C 0.39003 0.02156 0.74546 0.0
C1985 C 0.21874 0.64755 0.01173 0.0
C1986 C 0.2229 0.62725 1.00478 0.0
C1987 C 0.23333 0.65872 0.02341 0.0
C1988 C 0.25259 0.6499 0.02908 0.0
H1989 H 0.20386 0.65477 0.00844 0.0
H1990 H 0.22904 0.67412 0.02871 0.0
S1991 S 0.27146 0.59745 0.01391 0.0
N1992 N 0.24803 0.59905 1.00344 0.0
N1993 N 0.2754 0.61983 0.02592 0.0
C1994 C 0.25724 0.62979 0.02169 0.0
C1995 C 0.24244 0.61854 0.00939 0.0
C1996 C 0.73616 0.89976 0.98592 0.0
C1997 C 0.72641 0.8936 1.00453 0.0
C1998 C 0.74986 0.88648 0.97534 0.0
C1999 C 0.75412 0.8663 0.98272 0.0
H2000 H 0.7328 0.91481 0.97914 0.0
H2001 H 0.75636 0.89178 0.96073 0.0
S2002 S 0.73397 0.84327 0.03173 0.0
N2003 N 0.72315 0.86655 0.03074 0.0
N2004 N 0.74864 0.84142 0.01071 0.0
C2005 C 0.74522 0.86029 1.00183 0.0
C2006 C 0.73145 0.87398 0.01278 0.0
C2007 C 0.38838 0.48194 0.75745 0.0
C2008 C 0.36673 0.48527 0.75725 0.0
C2009 C 0.40171 0.49337 0.74452 0.0
C2010 C 0.39404 0.50878 0.73094 0.0
H2011 H 0.39507 0.46973 0.76696 0.0
H2012 H 0.41813 0.48957 0.74471 0.0
S2013 S 0.33889 0.52544 0.72634 0.0
N2014 N 0.33845 0.5065 0.74368 0.0
N2015 N 0.36349 0.52803 0.71951 0.0
C2016 C 0.37258 0.5132 0.73154 0.0
C2017 C 0.35896 0.50144 0.74463 0.0
C2018 C 0.6079 0.02032 0.2424 0.0
C2019 C 0.61464 1.00327 0.23039 0.0
C2020 C 0.62173 0.03149 0.25503 0.0
C2021 C 0.64298 0.02628 0.25597 0.0
H2022 H 0.59189 0.02552 0.24156 0.0
H2023 H 0.61584 0.04494 0.26329 0.0
S2024 S 0.66817 0.98165 0.22924 0.0
N2025 N 0.64366 0.98063 0.22163 0.0
N2026 N 0.66973 1.00174 0.24516 0.0
C2027 C 0.64972 0.00857 0.24492 0.0
C2028 C 0.63554 0.99703 0.23222 0.0
C2029 C 0.99634 0.75496 0.59789 0.0
C2030 C 0.00818 0.76993 0.60865 0.0
C2031 C 0.98315 0.74116 0.60843 0.0
C2032 C 0.98112 0.74171 0.63024 0.0
H2033 H 0.9967 0.75425 0.58104 0.0
H2034 H 0.97391 0.73049 0.59925 0.0
S2035 S 0.01039 0.77639 0.66608 0.0
N2036 N 0.01827 0.78328 0.64263 0.0
N2037 N 0.99352 0.75741 0.66243 0.0
C2038 C 0.9937 0.75586 0.64133 0.0
C2039 C 0.00719 0.76992 0.63056 0.0
C2040 C 0.02583 0.7601 0.12617 0.0
C2041 C 0.02274 0.75896 0.14784 0.0
C2042 C 0.01421 0.74782 0.11238 0.0
C2043 C 0.99889 0.73395 0.1196 0.0
H2044 H 0.03797 0.76983 0.11979 0.0
H2045 H 0.01786 0.7487 0.09594 0.0
S2046 S 0.98263 0.72728 0.17468 0.0
N2047 N 1.00168 0.74442 0.17571 0.0
N2048 N 0.97981 0.72145 0.14982 0.0
C2049 C 0.99466 0.73369 0.14112 0.0
C2050 C 0.00659 0.74615 0.1552 0.0
C2051 C 0.4913 0.73098 0.65116 0.0
C2052 C 0.49146 0.73045 0.62926 0.0
C2053 C 0.50456 0.74417 0.66231 0.0
C2054 C 0.51865 0.75744 0.65212 0.0
H2055 H 0.48134 0.72059 0.65989 0.0
H2056 H 0.50422 0.74334 0.67915 0.0
S2057 S 0.52374 0.76379 0.59487 0.0
N2058 N 0.50572 0.74574 0.59768 0.0
N2059 N 0.53069 0.77052 0.61868 0.0
C2060 C 0.51814 0.75803 0.63019 0.0
C2061 C 0.50455 0.74455 0.61877 0.0
C2062 C 0.48896 0.75177 0.13002 0.0
C2063 C 0.4913 0.74764 0.15142 0.0
C2064 C 0.50227 0.76563 0.11962 0.0
C2065 C 0.51847 0.77593 0.13021 0.0
H2066 H 0.47614 0.74507 0.1214 0.0
H2067 H 0.49917 0.76901 0.1034 0.0
S2068 S 0.53342 0.7678 0.18547 0.0
N2069 N 0.51271 0.75302 0.18219 0.0
N2070 N 0.53762 0.77897 0.16274 0.0
C2071 C 0.52187 0.77079 0.15124 0.0
C2072 C 0.50834 0.75669 0.16181 0.0
C2073 C 0.1114 0.49272 0.76129 0.0
C2074 C 0.11817 0.50925 0.774 0.0
C2075 C 0.12541 0.48126 0.74906 0.0
C2076 C 0.14685 0.48568 0.74914 0.0
H2077 H 0.09522 0.48807 0.76131 0.0
H2078 H 0.11945 0.46819 0.74027 0.0
S2079 S 0.17233 0.52897 0.77765 0.0
N2080 N 0.1476 0.5307 0.7843 0.0
N2081 N 0.17388 0.50908 0.76148 0.0
C2082 C 0.15367 0.50293 0.7608 0.0
C2083 C 0.13936 0.51473 0.77316 0.0
C2084 C 0.26504 0.85667 0.01069 0.0
C2085 C 0.25391 0.86396 0.02814 0.0
C2086 C 0.27797 0.86995 0.99909 0.0
C2087 C 0.28051 0.8909 1.00475 0.0
H2088 H 0.26436 0.84041 0.00634 0.0
H2089 H 0.28692 0.86346 0.98636 0.0
S2090 S 0.25312 0.91845 0.04744 0.0
N2091 N 0.24484 0.89423 0.0491 0.0
N2092 N 0.26942 0.91886 0.02761 0.0
C2093 C 0.26864 0.89867 0.02139 0.0
C2094 C 0.25524 0.8853 0.03299 0.0
C2095 C 0.8841 0.0098 0.27673 0.0
C2096 C 0.89031 0.98984 0.27017 0.0
C2097 C 0.87334 0.02334 0.26346 0.0
C2098 C 0.86807 0.01757 0.24297 0.0
H2099 H 0.88772 0.01523 0.29228 0.0
H2100 H 0.86904 0.03848 0.26946 0.0
S2101 S 0.88039 0.96691 0.21803 0.0
N2102 N 0.89024 0.96489 0.24169 0.0
N2103 N 0.86985 0.9903 0.21676 0.0
C2104 C 0.87404 0.9976 0.23617 0.0
C2105 C 0.88518 0.98378 0.24972 0.0
C2106 C 0.76089 0.62838 0.53067 0.0
C2107 C 0.75469 0.64925 0.5328 0.0
C2108 C 0.75027 0.6148 0.51722 0.0
C2109 C 0.73326 0.62164 0.50513 0.0
H2110 H 0.7733 0.6222 0.54027 0.0
H2111 H 0.755 0.59864 0.51684 0.0
S2112 S 0.71284 0.6757 0.50307 0.0
N2113 N 0.73181 0.67665 0.52036 0.0
N2114 N 0.71212 0.65138 0.49485 0.0
C2115 C 0.72788 0.64287 0.50612 0.0
C2116 C 0.73849 0.65658 0.52003 0.0
C2117 C 0.13474 0.50115 0.23105 0.0
C2118 C 0.11348 0.50133 0.23628 0.0
C2119 C 0.14903 0.51402 0.24135 0.0
C2120 C 0.14275 0.52747 0.25748 0.0
H2121 H 0.14029 0.49177 0.21819 0.0
H2122 H 0.16503 0.51391 0.23608 0.0
S2123 S 0.08936 0.53176 0.27911 0.0
N2124 N 0.08723 0.51461 0.26011 0.0
N2125 N 0.11409 0.53864 0.27955 0.0
C2126 C 0.12181 0.52676 0.26385 0.0
C2127 C 0.10719 0.51376 0.25322 0.0
C2128 C 0.22881 0.87391 0.49644 0.0
C2129 C 0.23616 0.88992 0.50945 0.0
C2130 C 0.2419 0.86392 0.48214 0.0
C2131 C 0.26298 0.86949 0.48008 0.0
H2132 H 0.21263 0.86926 0.49693 0.0
H2133 H 0.23518 0.85204 0.47226 0.0
S2134 S 0.29051 0.90937 0.51153 0.0
N2135 N 0.26635 0.91007 0.52016 0.0
N2136 N 0.29092 0.89133 0.49326 0.0
C2137 C 0.27079 0.88494 0.49352 0.0
C2138 C 0.25741 0.89512 0.50819 0.0
C2139 C 0.90357 0.97615 0.7615 0.0
C2140 C 0.88169 0.97507 0.76148 0.0
C2141 C 0.9143 0.98948 0.74803 0.0
C2142 C 0.90369 1.00242 0.73387 0.0
H2143 H 0.91264 0.96605 0.7715 0.0
H2144 H 0.93114 0.98905 0.74827 0.0
S2145 S 0.8463 0.00748 0.7292 0.0
N2146 N 0.84969 0.98958 0.74732 0.0
N2147 N 0.86986 0.01467 0.722 0.0
C2148 C 0.88177 1.00248 0.73453 0.0
C2149 C 0.87079 0.98883 0.74831 0.0
C2150 C 0.76092 0.59365 0.99065 0.0
C2151 C 0.7739 0.60445 1.00457 0.0
C2152 C 0.74685 0.60414 0.97774 0.0
C2153 C 0.74521 0.62597 0.97801 0.0
H2154 H 0.76208 0.5769 0.98918 0.0
H2155 H 0.73781 0.59501 0.96685 0.0
S2156 S 0.7742 0.66151 0.0132 0.0
N2157 N 0.78302 0.63812 0.01914 0.0
N2158 N 0.75663 0.65796 0.99477 0.0
C2159 C 0.75721 0.63693 0.99276 0.0
C2160 C 0.77152 0.62616 0.00606 0.0
C2161 C 0.26295 0.64537 0.49908 0.0
C2162 C 0.2478 0.63813 0.48499 0.0
C2163 C 0.27627 0.6316 0.5096 0.0
C2164 C 0.27517 0.60998 0.50632 0.0
H2165 H 0.26512 0.6619 0.50146 0.0
H2166 H 0.28821 0.6381 0.51955 0.0
S2167 S 0.23658 0.58273 0.47307 0.0
N2168 N 0.23118 0.60763 0.46994 0.0
N2169 N 0.25628 0.58184 0.48953 0.0
C2170 C 0.25927 0.60243 0.49327 0.0
C2171 C 0.24556 0.61645 0.48268 0.0
C2172 C 0.78064 0.36974 1.00366 0.0
C2173 C 0.77637 0.3912 1.00406 0.0
C2174 C 0.76939 0.35576 0.01607 0.0
C2175 C 0.75329 0.36261 0.0293 0.0
H2176 H 0.79349 0.36377 0.99452 0.0
H2177 H 0.77396 0.33955 0.01585 0.0
S2178 S 0.7338 0.41688 0.03349 0.0
N2179 N 0.75339 0.41835 0.01696 0.0
N2180 N 0.73214 0.39214 0.04012 0.0
C2181 C 0.74789 0.38385 0.02869 0.0
C2182 C 0.75946 0.39811 0.01614 0.0
C2183 C 0.40387 0.53208 0.25165 0.0
C2184 C 0.38203 0.53256 0.25017 0.0
C2185 C 0.41405 0.51929 0.26608 0.0
C2186 C 0.4029 0.50638 0.2798 0.0
H2187 H 0.41327 0.5422 0.24203 0.0
H2188 H 0.43085 0.52014 0.26692 0.0
S2189 S 0.34546 0.50025 0.28103 0.0
N2190 N 0.34955 0.51773 0.26267 0.0
N2191 N 0.36869 0.49369 0.28984 0.0
C2192 C 0.38107 0.50578 0.27773 0.0
C2193 C 0.37065 0.51885 0.26292 0.0
C2194 C 0.22474 0.13248 0.5096 0.0
C2195 C 0.23109 0.11175 0.5065 0.0
C2196 C 0.23552 0.14569 0.52319 0.0
C2197 C 0.25334 0.13889 0.53397 0.0
H2198 H 0.21072 0.13832 0.50228 0.0
H2199 H 0.2295 0.16124 0.52568 0.0
S2200 S 0.27779 0.08678 0.52968 0.0
N2201 N 0.25731 0.08553 0.5142 0.0
N2202 N 0.27776 0.11052 0.53946 0.0
C2203 C 0.26062 0.11862 0.53009 0.0
C2204 C 0.24945 0.10502 0.51645 0.0
C2205 C 0.73429 0.35058 0.49985 0.0
C2206 C 0.74989 0.36116 0.48879 0.0
C2207 C 0.72183 0.36079 0.51451 0.0
C2208 C 0.7242 0.38217 0.51863 0.0
H2209 H 0.7312 0.33432 0.49669 0.0
H2210 H 0.70964 0.35192 0.52201 0.0
S2211 S 0.76412 0.41667 0.49515 0.0
N2212 N 0.76817 0.39386 0.48404 0.0
N2213 N 0.74458 0.41325 0.51148 0.0
C2214 C 0.74054 0.39274 0.50851 0.0
C2215 C 0.75342 0.38219 0.49364 0.0
C2216 C 0.40086 0.99284 0.25033 0.0
C2217 C 0.39403 0.0085 0.2366 0.0
C2218 C 0.38703 0.98272 0.26382 0.0
C2219 C 0.36571 0.9877 0.26405 0.0
H2220 H 0.41693 0.98777 0.2502 0.0
H2221 H 0.39301 0.97019 0.27338 0.0
S2222 S 0.34026 0.0294 0.23314 0.0
N2223 N 0.36479 0.02992 0.2256 0.0
N2224 N 0.33881 0.01085 0.25084 0.0
C2225 C 0.35888 1.00422 0.25135 0.0
C2226 C 0.37302 0.01464 0.23768 0.0
C2227 C 0.65094 0.49291 0.72941 0.0
C2228 C 0.62916 0.49408 0.72747 0.0
C2229 C 0.66192 0.50641 0.74255 0.0
C2230 C 0.65166 0.52168 0.75447 0.0
H2231 H 0.65978 0.48199 0.72009 0.0
H2232 H 0.67872 0.50524 0.74283 0.0
S2233 S 0.5945 0.52981 0.75694 0.0
N2234 N 0.59751 0.5107 0.74005 0.0
N2235 N 0.61816 0.53603 0.76475 0.0
C2236 C 0.62977 0.52227 0.75364 0.0
C2237 C 0.61854 0.50852 0.74016 0.0
C2238 C 0.48827 0.25214 0.88075 0.0
C2239 C 0.49496 0.26455 0.86399 0.0
C2240 C 0.5019 0.23857 0.89104 0.0
C2241 C 0.52293 0.23676 0.88514 0.0
H2242 H 0.47216 0.25241 0.88568 0.0
H2243 H 0.49567 0.22908 0.90348 0.0
S2244 S 0.54893 0.26716 0.84348 0.0
N2245 N 0.52453 0.27516 0.84288 0.0
N2246 N 0.55014 0.24967 0.86225 0.0
C2247 C 0.53012 0.24974 0.86902 0.0
C2248 C 0.51617 0.26359 0.85846 0.0
C2249 C 0.51447 0.23935 0.39226 0.0
C2250 C 0.52369 0.24483 0.37314 0.0
C2251 C 0.4996 0.25222 0.40183 0.0
C2252 C 0.49359 0.27126 0.39285 0.0
H2253 H 0.5191 0.22522 0.40018 0.0
H2254 H 0.49346 0.2476 0.41683 0.0
S2255 S 0.51163 0.29216 0.34214 0.0
N2256 N 0.52449 0.27009 0.34489 0.0
N2257 N 0.49691 0.2943 0.36306 0.0
C2258 C 0.50205 0.27657 0.37337 0.0
C2259 C 0.51697 0.26335 0.36347 0.0
C2260 C 0.47716 0.75988 0.38165 0.0
C2261 C 0.47646 0.7546 0.36043 0.0
C2262 C 0.49055 0.74945 0.39543 0.0
C2263 C 0.50397 0.73353 0.38847 0.0
H2264 H 0.46645 0.7713 0.38791 0.0
H2265 H 0.48975 0.75336 0.41181 0.0
S2266 S 0.51034 0.71631 0.33362 0.0
N2267 N 0.49185 0.73412 0.33263 0.0
N2268 N 0.51728 0.71481 0.35831 0.0
C2269 C 0.50452 0.72928 0.36696 0.0
C2270 C 0.49067 0.73971 0.35301 0.0
C2271 C 0.52771 0.75973 0.87605 0.0
C2272 C 0.52063 0.74093 0.86734 0.0
C2273 C 0.51415 0.77348 0.8861 0.0
C2274 C 0.49279 0.7691 0.8881 0.0
H2275 H 0.54392 0.76415 0.87488 0.0
H2276 H 0.52058 0.78775 0.89231 0.0
S2277 S 0.46624 0.72162 0.86876 0.0
N2278 N 0.49076 0.71839 0.86185 0.0
N2279 N 0.46522 0.74423 0.88092 0.0
C2280 C 0.48546 0.75019 0.87982 0.0
C2281 C 0.49935 0.73615 0.8694 0.0
C2282 C 0.61967 0.98249 0.75249 0.0
C2283 C 0.64112 0.98689 0.75254 0.0
C2284 C 0.60589 0.99304 0.76577 0.0
C2285 C 0.61289 0.00856 0.77957 0.0
H2286 H 0.61354 0.97009 0.74288 0.0
H2287 H 0.58971 0.98837 0.76571 0.0
S2288 S 0.66711 0.02808 0.7836 0.0
N2289 N 0.66836 0.0094 0.76602 0.0
N2290 N 0.6425 0.02927 0.79082 0.0
C2291 C 0.63407 0.01413 0.77873 0.0
C2292 C 0.64815 1.00327 0.76528 0.0
C2293 C 0.60293 0.48337 0.24502 0.0
C2294 C 0.62472 0.48173 0.24393 0.0
C2295 C 0.59325 0.49754 0.25848 0.0
C2296 C 0.60492 0.51062 0.27163 0.0
H2297 H 0.59316 0.47312 0.2359 0.0
H2298 H 0.57642 0.49754 0.25916 0.0
S2299 S 0.66258 0.51403 0.27327 0.0
N2300 N 0.65779 0.49568 0.25596 0.0
N2301 N 0.63962 0.52222 0.28136 0.0
C2302 C 0.62676 0.51001 0.26985 0.0
C2303 C 0.63665 0.49562 0.25599 0.0
C2304 C 0.09652 0.36463 0.04683 0.0
C2305 C 0.09485 0.34897 0.06207 0.0
C2306 C 0.11548 0.37448 0.04271 0.0
C2307 C 0.13364 0.36914 0.05368 0.0
H2308 H 0.08289 0.36988 0.03839 0.0
H2309 H 0.11565 0.38692 0.03135 0.0
S2310 S 0.13823 0.32747 0.09354 0.0
N2311 N 0.11341 0.32735 0.08696 0.0
N2312 N 0.14913 0.34576 0.07922 0.0
C2313 C 0.13249 0.35265 0.06813 0.0
C2314 C 0.1131 0.34258 0.07231 0.0
C2315 C 0.90587 0.36547 0.31693 0.0
C2316 C 0.89779 0.34652 0.30961 0.0
C2317 C 0.89675 0.38451 0.3113 0.0
C2318 C 0.87917 0.38532 0.29819 0.0
H2319 H 0.9188 0.36559 0.32774 0.0
H2320 H 0.90299 0.39862 0.31806 0.0
S2321 S 0.85412 0.34035 0.27217 0.0
N2322 N 0.87271 0.32995 0.28654 0.0
N2323 N 0.85555 0.36565 0.27621 0.0
C2324 C 0.87175 0.36658 0.28979 0.0
C2325 C 0.88105 0.34722 0.29543 0.0
C2326 C 0.87706 0.14849 0.56532 0.0
C2327 C 0.87498 0.13373 0.54921 0.0
C2328 C 0.89629 0.15775 0.56981 0.0
C2329 C 0.91418 0.15254 0.5584 0.0
H2330 H 0.86393 0.1524 0.57513 0.0
H2331 H 0.8973 0.16831 0.58291 0.0
S2332 S 0.91657 0.11739 0.5126 0.0
N2333 N 0.89212 0.11622 0.52033 0.0
N2334 N 0.92819 0.13359 0.52878 0.0
C2335 C 0.91209 0.13883 0.54145 0.0
C2336 C 0.89251 0.12945 0.53684 0.0
C2337 C 0.1105 0.12782 0.81451 0.0
C2338 C 0.12491 0.12595 0.79805 0.0
C2339 C 0.10086 0.14687 0.81909 0.0
C2340 C 0.10535 0.16479 0.80744 0.0
H2341 H 0.1072 0.11468 0.82451 0.0
H2342 H 0.09065 0.14778 0.83246 0.0
S2343 S 0.13919 0.16764 0.76073 0.0
N2344 N 0.14118 0.14328 0.76859 0.0
N2345 N 0.12314 0.179 0.77724 0.0
C2346 C 0.11864 0.16287 0.79014 0.0
C2347 C 0.12839 0.14348 0.78542 0.0
C2348 C 0.09644 0.63407 0.96284 0.0
C2349 C 0.095 0.65261 0.95124 0.0
C2350 C 0.11569 0.62528 0.96794 0.0
C2351 C 0.13444 0.6346 0.96171 0.0
H2352 H 0.08254 0.62591 0.96768 0.0
H2353 H 0.11578 0.61072 0.97641 0.0
S2354 S 0.1394 0.68421 0.93241 0.0
N2355 N 0.11408 0.68071 0.93469 0.0
N2356 N 0.15037 0.66424 0.94431 0.0
C2357 C 0.13331 0.65367 0.95088 0.0
C2358 C 0.11359 0.66265 0.94565 0.0
C2359 C 0.59818 0.3655 0.18377 0.0
C2360 C 0.6002 0.34866 0.19755 0.0
C2361 C 0.6087 0.38425 0.18742 0.0
C2362 C 0.62153 0.38693 0.20503 0.0
H2363 H 0.58938 0.36382 0.16949 0.0
H2364 H 0.60735 0.39644 0.17586 0.0
S2365 S 0.62927 0.34851 0.2475 0.0
N2366 N 0.61402 0.33656 0.23065 0.0
N2367 N 0.63367 0.37177 0.23757 0.0
C2368 C 0.62246 0.37067 0.21966 0.0
C2369 C 0.61184 0.35156 0.21589 0.0
C2370 C 0.87964 0.8609 0.44542 0.0
C2371 C 0.87784 0.87612 0.46115 0.0
C2372 C 0.89892 0.85197 0.44035 0.0
C2373 C 0.91715 0.85799 0.45078 0.0
H2374 H 0.86621 0.85642 0.43628 0.0
H2375 H 0.89969 0.84113 0.42747 0.0
S2376 S 0.92051 0.8945 0.49546 0.0
N2377 N 0.89572 0.89483 0.48878 0.0
N2378 N 0.93187 0.87811 0.47926 0.0
C2379 C 0.91537 0.87208 0.46748 0.0
C2380 C 0.89575 0.88112 0.47268 0.0
C2381 C 0.40343 0.1264 0.69611 0.0
C2382 C 0.38858 0.124 0.71209 0.0
C2383 C 0.41308 0.14559 0.69236 0.0
C2384 C 0.40827 0.16315 0.70446 0.0
H2385 H 0.40702 0.11361 0.68574 0.0
H2386 H 0.42355 0.14689 0.67923 0.0
S2387 S 0.37313 0.16442 0.75035 0.0
N2388 N 0.37146 0.14034 0.74163 0.0
N2389 N 0.38963 0.17632 0.7347 0.0
C2390 C 0.39458 0.16063 0.7214 0.0
C2391 C 0.38474 0.1411 0.72519 0.0
C2392 C 0.07875 0.14329 0.359 0.0
C2393 C 0.05923 0.14298 0.36896 0.0
C2394 C 0.08603 0.12614 0.3477 0.0
C2395 C 0.07399 0.10806 0.34557 0.0
H2396 H 0.08898 0.15656 0.36063 0.0
H2397 H 0.10151 0.12687 0.3411 0.0
S2398 S 0.02081 0.10005 0.36673 0.0
N2399 N 0.02731 0.12359 0.37465 0.0
N2400 N 0.04081 0.09143 0.35312 0.0
C2401 C 0.05391 0.10795 0.35441 0.0
C2402 C 0.04659 0.12537 0.36619 0.0
C2403 C 0.16451 0.29141 0.6174 0.0
C2404 C 0.16711 0.30617 0.60143 0.0
C2405 C 0.14508 0.28792 0.62657 0.0
C2406 C 0.12736 0.29907 0.6202 0.0
H2407 H 0.17773 0.28286 0.62344 0.0
H2408 H 0.14417 0.27692 0.6393 0.0
S2409 S 0.12525 0.33779 0.57728 0.0
N2410 N 0.14992 0.33077 0.57837 0.0
N2411 N 0.11333 0.32421 0.5955 0.0
C2412 C 0.12947 0.31303 0.60339 0.0
C2413 C 0.14933 0.31657 0.59402 0.0
C2414 C 0.93837 0.39859 0.85519 0.0
C2415 C 0.95117 0.41585 0.85897 0.0
C2416 C 0.94211 0.37951 0.86511 0.0
C2417 C 0.9589 0.3769 0.87904 0.0
H2418 H 0.92475 0.4001 0.84537 0.0
H2419 H 0.93129 0.36692 0.86233 0.0
S2420 S 0.99879 0.41667 0.89164 0.0
N2421 N 0.98254 0.42865 0.87575 0.0
N2422 N 0.98969 0.39282 0.89426 0.0
C2423 C 0.97261 0.39371 0.88181 0.0
C2424 C 0.9687 0.41317 0.87183 0.0
C2425 C 0.87607 0.16827 0.10261 0.0
C2426 C 0.85833 0.18051 0.09895 0.0
C2427 C 0.89302 0.17603 0.11388 0.0
C2428 C 0.89283 0.19627 0.12229 0.0
H2429 H 0.87659 0.15226 0.09737 0.0
H2430 H 0.90596 0.16563 0.11682 0.0
S2431 S 0.85097 0.23544 0.11541 0.0
N2432 N 0.84231 0.21461 0.10316 0.0
N2433 N 0.87407 0.22902 0.12468 0.0
C2434 C 0.87565 0.20908 0.11786 0.0
C2435 C 0.85846 0.20127 0.10608 0.0
C2436 C 0.04195 0.87269 0.66215 0.0
C2437 C 0.0438 0.87294 0.64027 0.0
C2438 C 0.04837 0.88972 0.6743 0.0
C2439 C 0.05751 0.90723 0.66502 0.0
H2440 H 0.03562 0.85918 0.66995 0.0
H2441 H 0.04671 0.88895 0.69106 0.0
S2442 S 0.06498 0.91625 0.60848 0.0
N2443 N 0.05446 0.89289 0.60989 0.0
N2444 N 0.06718 0.92435 0.63275 0.0
C2445 C 0.05915 0.90783 0.64321 0.0
C2446 C 0.05212 0.89083 0.63083 0.0
C2447 C 0.36452 0.3205 0.9099 0.0
C2448 C 0.34648 0.3092 0.90505 0.0
C2449 C 0.38356 0.31592 0.90025 0.0
C2450 C 0.38533 0.2998 0.88545 0.0
H2451 H 0.36375 0.3336 0.92048 0.0
H2452 H 0.39681 0.32564 0.90393 0.0
S2453 S 0.34323 0.26353 0.86982 0.0
N2454 N 0.33199 0.27972 0.88629 0.0
N2455 N 0.3677 0.27109 0.86821 0.0
C2456 C 0.36765 0.28755 0.88149 0.0
C2457 C 0.34826 0.29227 0.89126 0.0
C2458 C 0.96887 0.61402 0.13578 0.0
C2459 C 0.95837 0.63228 0.14168 0.0
C2460 C 0.96489 0.59502 0.14563 0.0
C2461 C 0.95023 0.5934 0.16185 0.0
H2462 H 0.97975 0.61417 0.12292 0.0
H2463 H 0.97293 0.58135 0.13994 0.0
S2464 S 0.9202 0.637 0.1849 0.0
N2465 N 0.93395 0.64788 0.16616 0.0
N2466 N 0.92644 0.61209 0.18456 0.0
C2467 C 0.94048 0.61173 0.16876 0.0
C2468 C 0.94455 0.63116 0.1587 0.0
C2469 C 0.6586 0.22109 0.38939 0.0
C2470 C 0.66124 0.20463 0.40363 0.0
C2471 C 0.63974 0.22417 0.3789 0.0
C2472 C 0.62272 0.21085 0.38212 0.0
H2473 H 0.67145 0.23132 0.38571 0.0
H2474 H 0.63884 0.23658 0.36754 0.0
S2475 S 0.62067 0.16692 0.41966 0.0
N2476 N 0.64457 0.17599 0.4218 0.0
N2477 N 0.60909 0.18174 0.40215 0.0
C2478 C 0.62472 0.19509 0.39725 0.0
C2479 C 0.64396 0.192 0.40801 0.0
C2480 C 0.34948 0.06682 0.11108 0.0
C2481 C 0.35376 0.0542 0.09374 0.0
C2482 C 0.35948 0.06347 0.1302 0.0
C2483 C 0.37414 0.04735 0.13278 0.0
H2484 H 0.33904 0.07999 0.10966 0.0
H2485 H 0.35621 0.07416 0.14282 0.0
S2486 S 0.38848 0.00797 0.093 0.0
N2487 N 0.37192 0.0235 0.08099 0.0
N2488 N 0.3907 0.01726 0.11686 0.0
C2489 C 0.37757 0.03382 0.11592 0.0
C2490 C 0.36739 0.03723 0.09644 0.0
C2491 C 0.86044 0.94223 0.37981 0.0
C2492 C 0.87504 0.95841 0.3775 0.0
C2493 C 0.85039 0.93864 0.39885 0.0
C2494 C 0.85455 0.95109 0.41634 0.0
H2495 H 0.85727 0.93169 0.36705 0.0
H2496 H 0.84001 0.92545 0.40009 0.0
S2497 S 0.88902 0.9974 0.41775 0.0
N2498 N 0.89139 0.98836 0.39382 0.0
N2499 N 0.8725 0.9817 0.42951 0.0
C2500 C 0.86813 0.9681 0.41391 0.0
C2501 C 0.87837 0.97174 0.39453 0.0
C2502 C 0.31405 0.11061 0.65811 0.0
C2503 C 0.30685 0.0901 0.6606 0.0
C2504 C 0.30664 0.12334 0.64205 0.0
C2505 C 0.29205 0.11595 0.62751 0.0
H2506 H 0.3253 0.11708 0.66886 0.0
H2507 H 0.31284 0.13894 0.64072 0.0
S2508 S 0.2682 0.06346 0.6271 0.0
N2509 N 0.28396 0.0631 0.64742 0.0
N2510 N 0.27057 0.08681 0.61666 0.0
C2511 C 0.28474 0.09546 0.62974 0.0
C2512 C 0.29196 0.08261 0.64644 0.0
C2513 C 0.15288 0.58065 0.8682 0.0
C2514 C 0.14263 0.5613 0.86866 0.0
C2515 C 0.16461 0.58769 0.88517 0.0
C2516 C 0.16688 0.57558 0.90323 0.0
H2517 H 0.15115 0.59094 0.85497 0.0
H2518 H 0.17141 0.60307 0.88435 0.0
S2519 S 0.14508 0.52271 0.91153 0.0
N2520 N 0.13683 0.52942 0.88812 0.0
N2521 N 0.15912 0.54247 0.91994 0.0
C2522 C 0.15774 0.55564 0.90345 0.0
C2523 C 0.14553 0.54857 0.88622 0.0
C2524 C 0.19304 0.90977 0.15125 0.0
C2525 C 0.20376 0.90444 0.16956 0.0
C2526 C 0.19748 0.89983 0.13232 0.0
C2527 C 0.21285 0.88421 0.13094 0.0
H2528 H 0.18044 0.92096 0.1517 0.0
H2529 H 0.18818 0.90389 0.11886 0.0
S2530 S 0.24758 0.86699 0.17381 0.0
N2531 N 0.23204 0.8843 0.18468 0.0
N2532 N 0.24037 0.86566 0.14919 0.0
C2533 C 0.2246 0.87975 0.14888 0.0
C2534 C 0.22005 0.88985 0.16815 0.0
C2535 C 0.63225 0.95029 0.12265 0.0
C2536 C 0.63735 0.96769 0.1349 0.0
C2537 C 0.64498 0.94393 0.10616 0.0
C2538 C 0.6631 0.95501 0.10093 0.0
H2539 H 0.61839 0.94131 0.12595 0.0
H2540 H 0.64019 0.9306 0.09704 0.0
S2541 S 0.68352 1.00152 0.12823 0.0
N2542 N 0.66207 0.99557 0.14106 0.0
N2543 N 0.68566 0.98409 0.10946 0.0
C2544 C 0.66845 0.9724 0.11306 0.0
C2545 C 0.65569 0.9786 0.13021 0.0
C2546 C 0.29523 0.37766 0.86616 0.0
C2547 C 0.30369 0.38533 0.88482 0.0
C2548 C 0.30039 0.38649 0.84693 0.0
C2549 C 0.31417 0.40344 0.84547 0.0
H2550 H 0.28513 0.3642 0.86625 0.0
H2551 H 0.29389 0.37952 0.83302 0.0
S2552 S 0.33879 0.43095 0.88984 0.0
N2553 N 0.3252 0.41213 0.90077 0.0
N2554 N 0.33488 0.42866 0.86455 0.0
C2555 C 0.32186 0.41205 0.86406 0.0
C2556 C 0.31664 0.403 0.88372 0.0
C2557 C 0.71668 0.13465 0.36263 0.0
C2558 C 0.70634 0.12892 0.38102 0.0
C2559 C 0.71246 0.12469 0.34371 0.0
C2560 C 0.69774 0.10854 0.34231 0.0
H2561 H 0.72768 0.14739 0.36263 0.0
H2562 H 0.72048 0.13018 0.32994 0.0
S2563 S 0.66783 0.08615 0.38628 0.0
N2564 N 0.68181 0.10484 0.39695 0.0
N2565 N 0.67388 0.08624 0.36131 0.0
C2566 C 0.68803 0.10191 0.36075 0.0
C2567 C 0.69232 0.11207 0.38009 0.0
C2568 C 0.12447 0.84784 0.52884 0.0
C2569 C 0.13086 0.86591 0.53937 0.0
C2570 C 0.10794 0.83569 0.53637 0.0
C2571 C 0.09764 0.84082 0.55504 0.0
H2572 H 0.13202 0.84331 0.51446 0.0
H2573 H 0.10312 0.82225 0.52743 0.0
S2574 S 0.10987 0.88577 0.58935 0.0
N2575 N 0.12641 0.88783 0.56984 0.0
N2576 N 0.09585 0.86488 0.58432 0.0
C2577 C 0.10446 0.85851 0.56607 0.0
C2578 C 0.12092 0.87109 0.55814 0.0
C2579 C 0.90826 0.86063 0.82262 0.0
C2580 C 0.90718 0.84371 0.80884 0.0
C2581 C 0.89716 0.87901 0.81869 0.0
C2582 C 0.88465 0.88124 0.80078 0.0
H2583 H 0.9168 0.85929 0.8371 0.0
H2584 H 0.89783 0.89127 0.83024 0.0
S2585 S 0.87923 0.84249 0.75826 0.0
N2586 N 0.89454 0.83109 0.77547 0.0
N2587 N 0.87377 0.8656 0.76803 0.0
C2588 C 0.88463 0.86492 0.78618 0.0
C2589 C 0.89585 0.84618 0.79024 0.0
C2590 C 0.8771 0.64641 0.06947 0.0
C2591 C 0.87537 0.63203 0.05297 0.0
C2592 C 0.89612 0.65595 0.07427 0.0
C2593 C 0.91416 0.6514 0.06282 0.0
H2594 H 0.86387 0.64975 0.07936 0.0
H2595 H 0.89688 0.66614 0.08768 0.0
S2596 S 0.91742 0.6176 0.01607 0.0
N2597 N 0.89297 0.61571 0.02367 0.0
N2598 N 0.92865 0.63358 0.03273 0.0
C2599 C 0.91239 0.63815 0.04546 0.0
C2600 C 0.89302 0.62849 0.04052 0.0
C2601 C 0.09765 0.64851 0.31611 0.0
C2602 C 0.10366 0.66724 0.30667 0.0
C2603 C 0.10693 0.62958 0.31039 0.0
C2604 C 0.12256 0.62865 0.29498 0.0
H2605 H 0.08659 0.64858 0.32883 0.0
H2606 H 0.10251 0.61574 0.31889 0.0
S2607 S 0.14087 0.67294 0.26284 0.0
N2608 N 0.12402 0.68339 0.27917 0.0
N2609 N 0.14145 0.64791 0.26846 0.0
C2610 C 0.12744 0.64708 0.28427 0.0
C2611 C 0.11801 0.66634 0.29012 0.0
C2612 C 0.12907 0.1496 0.44771 0.0
C2613 C 0.12923 0.13312 0.46222 0.0
C2614 C 0.11055 0.1598 0.44224 0.0
C2615 C 0.09144 0.15389 0.451 0.0
H2616 H 0.14324 0.15421 0.43988 0.0
H2617 H 0.11111 0.17173 0.43035 0.0
S2618 S 0.08366 0.11387 0.49195 0.0
N2619 N 0.1088 0.11296 0.48686 0.0
N2620 N 0.07408 0.1321 0.4766 0.0
C2621 C 0.09154 0.13834 0.46645 0.0
C2622 C 0.11039 0.12798 0.47206 0.0
C2623 C 0.62835 0.86686 0.71857 0.0
C2624 C 0.62084 0.88541 0.70977 0.0
C2625 C 0.61914 0.84769 0.71399 0.0
C2626 C 0.60196 0.84618 0.70044 0.0
H2627 H 0.64196 0.86697 0.72852 0.0
H2628 H 0.626 0.83385 0.72074 0.0
S2629 S 0.57476 0.89035 0.6751 0.0
N2630 N 0.59395 0.90127 0.68821 0.0
N2631 N 0.57672 0.86515 0.67959 0.0
C2632 C 0.59354 0.8647 0.69241 0.0
C2633 C 0.60295 0.8843 0.69707 0.0
C2634 C 0.91499 0.36746 0.96733 0.0
C2635 C 0.91696 0.35138 0.95256 0.0
C2636 C 0.89582 0.37699 0.97126 0.0
C2637 C 0.87773 0.3709 0.96059 0.0
H2638 H 0.92852 0.37326 0.97553 0.0
H2639 H 0.89538 0.38974 0.98227 0.0
S2640 S 0.87397 0.32798 0.92199 0.0
N2641 N 0.89882 0.32862 0.92841 0.0
N2642 N 0.86269 0.34644 0.93583 0.0
C2643 C 0.87922 0.35403 0.94661 0.0
C2644 C 0.89883 0.34429 0.9426 0.0
C2645 C 0.39095 0.6594 0.21352 0.0
C2646 C 0.40537 0.66124 0.19714 0.0
C2647 C 0.38052 0.64067 0.21739 0.0
C2648 C 0.38392 0.62304 0.20489 0.0
H2649 H 0.38721 0.67273 0.22314 0.0
H2650 H 0.36915 0.6403 0.22981 0.0
S2651 S 0.42113 0.61938 0.16071 0.0
N2652 N 0.42334 0.64357 0.16897 0.0
N2653 N 0.40379 0.60835 0.17609 0.0
C2654 C 0.39899 0.62443 0.18897 0.0
C2655 C 0.40972 0.64351 0.18514 0.0
C2656 C 0.04851 0.59746 0.87326 0.0
C2657 C 0.06227 0.5967 0.85621 0.0
C2658 C 0.04314 0.61633 0.88273 0.0
C2659 C 0.0514 0.63529 0.87567 0.0
H2660 H 0.04224 0.58328 0.8798 0.0
H2661 H 0.03309 0.61587 0.89625 0.0
S2662 S 0.08635 0.64212 0.83011 0.0
N2663 N 0.0827 0.61676 0.83155 0.0
N2664 N 0.07266 0.6523 0.84933 0.0
C2665 C 0.06428 0.6349 0.8579 0.0
C2666 C 0.06968 0.61561 0.84817 0.0
C2667 C 0.16453 0.79636 0.12675 0.0
C2668 C 0.16657 0.80973 0.10951 0.0
C2669 C 0.14505 0.79172 0.13528 0.0
C2670 C 0.12672 0.80036 0.12701 0.0
H2671 H 0.17817 0.78978 0.13418 0.0
H2672 H 0.14451 0.78193 0.14897 0.0
S2673 S 0.12325 0.83456 0.08049 0.0
N2674 N 0.1484 0.83023 0.08341 0.0
N2675 N 0.11171 0.82157 0.09939 0.0
C2676 C 0.1284 0.81289 0.10907 0.0
C2677 C 0.14832 0.81755 0.10033 0.0
C2678 C 0.95088 0.88771 0.37094 0.0
C2679 C 0.96862 0.87603 0.36564 0.0
C2680 C 0.94381 0.90396 0.35824 0.0
C2681 C 0.95449 0.90953 0.33996 0.0
H2682 H 0.94228 0.88422 0.38502 0.0
H2683 H 0.93032 0.91273 0.36326 0.0
S2684 S 1.00154 0.88359 0.31889 0.0
N2685 N 0.99628 0.87062 0.34046 0.0
N2686 N 0.9835 0.90182 0.31698 0.0
C2687 C 0.97215 0.89787 0.33436 0.0
C2688 C 0.97906 0.88094 0.34706 0.0
C2689 C 0.85776 0.73008 0.59861 0.0
C2690 C 0.84955 0.70981 0.59973 0.0
C2691 C 0.87518 0.73593 0.61043 0.0
C2692 C 0.88473 0.72187 0.62422 0.0
H2693 H 0.85041 0.74165 0.5888 0.0
H2694 H 0.88076 0.75177 0.60928 0.0
S2695 S 0.86991 0.6666 0.63228 0.0
N2696 N 0.85297 0.67537 0.61508 0.0
N2697 N 0.88536 0.68641 0.6375 0.0
C2698 C 0.87702 0.70138 0.62508 0.0
C2699 C 0.85955 0.69533 0.61277 0.0
C2700 C 0.06911 0.37668 0.14971 0.0
C2701 C 0.05172 0.37312 0.1368 0.0
C2702 C 0.07165 0.39551 0.16043 0.0
C2703 C 0.05697 0.4116 0.15856 0.0
H2704 H 0.08128 0.3651 0.15108 0.0
H2705 H 0.08574 0.39781 0.16939 0.0
S2706 S 0.00732 0.40928 0.12909 0.0
N2707 N 0.01854 0.38663 0.12452 0.0
N2708 N 0.02336 0.422 0.14458 0.0
C2709 C 0.03892 0.40782 0.14672 0.0
C2710 C 0.03628 0.38861 0.13587 0.0
C2711 C 0.35418 0.81355 0.40679 0.0
C2712 C 0.33646 0.80197 0.40149 0.0
C2713 C 0.37351 0.80923 0.3976 0.0
C2714 C 0.37583 0.79317 0.38279 0.0
H2715 H 0.3529 0.8268 0.41712 0.0
H2716 H 0.38646 0.8193 0.40138 0.0
S2717 S 0.33484 0.7559 0.36669 0.0
N2718 N 0.32295 0.772 0.38279 0.0
N2719 N 0.35919 0.76391 0.36553 0.0
C2720 C 0.35854 0.78045 0.37869 0.0
C2721 C 0.33888 0.78486 0.38803 0.0
C2722 C 0.94499 0.12764 0.64767 0.0
C2723 C 0.9603 0.13002 0.63213 0.0
C2724 C 0.9409 0.1082 0.65672 0.0
C2725 C 0.95191 0.09037 0.65052 0.0
H2726 H 0.93546 0.14072 0.65238 0.0
H2727 H 0.92834 0.107 0.66789 0.0
S2728 S 0.99569 0.08861 0.61285 0.0
N2729 N 0.98807 0.11313 0.61271 0.0
N2730 N 0.98038 0.0767 0.62965 0.0
C2731 C 0.96814 0.09274 0.63599 0.0
C2732 C 0.97235 0.11253 0.62683 0.0
C2733 C 0.62999 0.6939 0.90156 0.0
C2734 C 0.62802 0.71005 0.88683 0.0
C2735 C 0.6489 0.69005 0.91177 0.0
C2736 C 0.66656 0.7022 0.90763 0.0
H2737 H 0.61709 0.68353 0.90461 0.0
H2738 H 0.64993 0.6768 0.92213 0.0
S2739 S 0.66884 0.74845 0.87312 0.0
N2740 N 0.64482 0.73979 0.87058 0.0
N2741 N 0.68027 0.73259 0.88978 0.0
C2742 C 0.66444 0.71926 0.89406 0.0
C2743 C 0.64521 0.72318 0.88366 0.0
C2744 C 0.36484 0.55678 0.59625 0.0
C2745 C 0.3435 0.56154 0.59805 0.0
C2746 C 0.37653 0.5501 0.6134 0.0
C2747 C 0.36746 0.5481 0.63319 0.0
H2748 H 0.37277 0.55847 0.58147 0.0
H2749 H 0.39299 0.54726 0.61122 0.0
S2750 S 0.31183 0.557 0.64609 0.0
N2751 N 0.31349 0.56248 0.62103 0.0
N2752 N 0.33549 0.55013 0.65338 0.0
C2753 C 0.34597 0.55206 0.63512 0.0
C2754 C 0.33399 0.5587 0.61754 0.0
C2755 C 0.87156 0.46454 0.9153 0.0
C2756 C 0.85579 0.44939 0.91654 0.0
C2757 C 0.88124 0.46938 0.89638 0.0
C2758 C 0.8756 0.45925 0.87782 0.0
H2759 H 0.87703 0.47236 0.92921 0.0
H2760 H 0.89377 0.4806 0.89652 0.0
S2761 S 0.83352 0.42005 0.87208 0.0
N2762 N 0.83375 0.42555 0.89718 0.0
N2763 N 0.85182 0.43464 0.86157 0.0
C2764 C 0.85902 0.44491 0.87859 0.0
C2765 C 0.84913 0.43999 0.89793 0.0
C2766 C 0.28232 0.59993 0.13342 0.0
C2767 C 0.29523 0.61632 0.12689 0.0
C2768 C 0.28756 0.58765 0.15076 0.0
C2769 C 0.30624 0.59086 0.16171 0.0
H2770 H 0.26776 0.59696 0.12547 0.0
H2771 H 0.2768 0.57572 0.15578 0.0
S2772 S 0.34599 0.6311 0.15021 0.0
N2773 N 0.32778 0.63477 0.13247 0.0
N2774 N 0.33793 0.61132 0.16443 0.0
C2775 C 0.31963 0.60674 0.15487 0.0
C2776 C 0.31404 0.61958 0.13763 0.0
C2777 C 0.13338 0.04531 0.41567 0.0
C2778 C 0.15118 0.05799 0.41721 0.0
C2779 C 0.12448 0.04047 0.3964 0.0
C2780 C 0.13303 0.04797 0.37774 0.0
H2781 H 0.12579 0.03945 0.42953 0.0
H2782 H 0.11046 0.03116 0.39622 0.0
S2783 S 0.1806 0.08041 0.37293 0.0
N2784 N 0.1778 0.07694 0.39824 0.0
N2785 N 0.16118 0.06775 0.3619 0.0
C2786 C 0.15142 0.05986 0.37891 0.0
C2787 C 0.16046 0.0649 0.39865 0.0
C2788 C 0.19447 0.39446 0.62884 0.0
C2789 C 0.21064 0.37972 0.627 0.0
C2790 C 0.19075 0.40501 0.64759 0.0
C2791 C 0.20294 0.40109 0.66532 0.0
H2792 H 0.18413 0.39747 0.61587 0.0
H2793 H 0.1776 0.41552 0.64846 0.0
S2794 S 0.24881 0.36606 0.66819 0.0
N2795 N 0.24018 0.36334 0.64414 0.0
N2796 N 0.2331 0.38304 0.67936 0.0
C2797 C 0.21986 0.3873 0.66341 0.0
C2798 C 0.22375 0.37666 0.64428 0.0
C2799 C 0.65162 0.45049 0.61042 0.0
C2800 C 0.66573 0.46433 0.60106 0.0
C2801 C 0.6381 0.45708 0.62618 0.0
C2802 C 0.6383 0.47771 0.63355 0.0
H2803 H 0.65033 0.4346 0.60494 0.0
H2804 H 0.62725 0.44587 0.63253 0.0
S2805 S 0.67342 0.5197 0.61545 0.0
N2806 N 0.67982 0.4994 0.60104 0.0
N2807 N 0.65468 0.51167 0.63106 0.0
C2808 C 0.65295 0.4915 0.62501 0.0
C2809 C 0.66656 0.48485 0.60867 0.0
C2810 C 0.27895 0.90821 0.38 0.0
C2811 C 0.28837 0.8888 0.38369 0.0
C2812 C 0.28671 0.92179 0.36471 0.0
C2813 C 0.30456 0.91674 0.35305 0.0
H2814 H 0.26524 0.91275 0.38869 0.0
H2815 H 0.27862 0.93631 0.36194 0.0
S2816 S 0.33571 0.86822 0.35779 0.0
N2817 N 0.31686 0.86548 0.37498 0.0
N2818 N 0.33174 0.89105 0.34676 0.0
C2819 C 0.31446 0.89759 0.35708 0.0
C2820 C 0.30628 0.88361 0.37225 0.0
C2821 C 0.7147 0.61808 0.84822 0.0
C2822 C 0.69809 0.60405 0.84557 0.0
C2823 C 0.71806 0.62829 0.86719 0.0
C2824 C 0.70483 0.62505 0.8843 0.0
H2825 H 0.72491 0.62171 0.83532 0.0
H2826 H 0.73065 0.63942 0.86813 0.0
S2827 S 0.66025 0.58834 0.88616 0.0
N2828 N 0.66919 0.58627 0.86217 0.0
N2829 N 0.67541 0.60544 0.89786 0.0
C2830 C 0.68878 0.61025 0.88221 0.0
C2831 C 0.68544 0.59974 0.86287 0.0
C2832 C 0.6268 0.3699 0.57426 0.0
C2833 C 0.63063 0.38301 0.55709 0.0
C2834 C 0.60795 0.35915 0.57636 0.0
C2835 C 0.5921 0.36118 0.56143 0.0
H2836 H 0.6382 0.36836 0.58659 0.0
H2837 H 0.60544 0.34998 0.59027 0.0
S2838 S 0.59516 0.39129 0.5122 0.0
N2839 N 0.61761 0.39571 0.52386 0.0
N2840 N 0.58221 0.37561 0.52785 0.0
C2841 C 0.59613 0.37329 0.54362 0.0
C2842 C 0.61536 0.38417 0.54143 0.0
C2843 C 0.39359 0.34553 0.79543 0.0
C2844 C 0.40941 0.34371 0.81051 0.0
C2845 C 0.38404 0.36464 0.79116 0.0
C2846 C 0.38985 0.38283 0.80181 0.0
H2847 H 0.388 0.33193 0.78721 0.0
H2848 H 0.37148 0.36495 0.77992 0.0
S2849 S 0.43205 0.387 0.84121 0.0
N2850 N 0.43163 0.36211 0.83495 0.0
N2851 N 0.4138 0.39811 0.82693 0.0
C2852 C 0.40646 0.38149 0.81613 0.0
C2853 C 0.41622 0.36194 0.82047 0.0
C2854 C 0.39682 0.15585 0.06767 0.0
C2855 C 0.41446 0.15157 0.0555 0.0
C2856 C 0.37789 0.14569 0.06396 0.0
C2857 C 0.37583 0.13086 0.04791 0.0
H2858 H 0.39783 0.16642 0.08076 0.0
H2859 H 0.365 0.14896 0.0743 0.0
S2860 S 0.4166 0.11645 0.00962 0.0
N2861 N 0.42809 0.13324 0.02527 0.0
N2862 N 0.39259 0.11414 0.01836 0.0
C2863 C 0.39302 0.12742 0.03482 0.0
C2864 C 0.4123 0.13776 0.0386 0.0
C2865 C 0.62037 0.16705 0.29103 0.0
C2866 C 0.60349 0.16859 0.30495 0.0
C2867 C 0.62994 0.14794 0.28675 0.0
C2868 C 0.62308 0.12948 0.29622 0.0
H2869 H 0.62674 0.18084 0.28377 0.0
H2870 H 0.64329 0.14781 0.27648 0.0
S2871 S 0.57806 0.12461 0.33222 0.0
N2872 N 0.5793 0.1497 0.32697 0.0
N2873 N 0.59714 0.11372 0.31892 0.0
C2874 C 0.60549 0.13059 0.30933 0.0
C2875 C 0.59573 0.15013 0.31368 0.0
C2876 C 0.61024 0.66105 0.43695 0.0
C2877 C 0.59238 0.65677 0.44877 0.0
C2878 C 0.62935 0.65156 0.44161 0.0
C2879 C 0.63137 0.63744 0.45829 0.0
H2880 H 0.60929 0.67108 0.42343 0.0
H2881 H 0.64244 0.6548 0.43152 0.0
S2882 S 0.58988 0.62331 0.49585 0.0
N2883 N 0.57839 0.63918 0.47924 0.0
N2884 N 0.61421 0.62135 0.48792 0.0
C2885 C 0.61389 0.63399 0.47097 0.0
C2886 C 0.59444 0.64364 0.46622 0.0
C2887 C 0.11225 0.38049 0.69295 0.0
C2888 C 0.12786 0.38176 0.70834 0.0
C2889 C 0.10266 0.36153 0.68802 0.0
C2890 C 0.10837 0.34306 0.69821 0.0
H2891 H 0.10784 0.39411 0.68406 0.0
H2892 H 0.09138 0.36123 0.67549 0.0
S2893 S 0.14619 0.33829 0.74171 0.0
N2894 N 0.14696 0.36311 0.73521 0.0
N2895 N 0.129 0.32755 0.72595 0.0
C2896 C 0.12305 0.34429 0.71446 0.0
C2897 C 0.13276 0.3636 0.71954 0.0
C2898 C 0.39442 0.87598 0.96706 0.0
C2899 C 0.37631 0.86979 0.95648 0.0
C2900 C 0.41368 0.86672 0.96284 0.0
C2901 C 0.41575 0.85084 0.94786 0.0
H2902 H 0.39394 0.88866 0.97815 0.0
H2903 H 0.4272 0.87266 0.97096 0.0
S2904 S 0.37273 0.82697 0.91772 0.0
N2905 N 0.36135 0.8452 0.93179 0.0
N2906 N 0.39765 0.82793 0.92384 0.0
C2907 C 0.3976 0.84353 0.93812 0.0
C2908 C 0.37788 0.85298 0.94242 0.0
C2909 C 0.90993 0.14524 0.19327 0.0
C2910 C 0.90339 0.16375 0.20288 0.0
C2911 C 0.90029 0.12621 0.19787 0.0
C2912 C 0.88381 0.12495 0.21231 0.0
H2913 H 0.92185 0.14558 0.18137 0.0
H2914 H 0.90532 0.11254 0.18939 0.0
S2915 S 0.86324 0.16858 0.24413 0.0
N2916 N 0.88112 0.17934 0.22921 0.0
N2917 N 0.86309 0.14368 0.23789 0.0
C2918 C 0.87811 0.14318 0.22302 0.0
C2919 C 0.88787 0.16253 0.21828 0.0
C2920 C 0.54884 0.11777 0.87554 0.0
C2921 C 0.55118 0.13812 0.86792 0.0
C2922 C 0.55537 0.10055 0.86391 0.0
C2923 C 0.56447 0.10285 0.84407 0.0
H2924 H 0.54262 0.11507 0.89097 0.0
H2925 H 0.55369 0.08531 0.87086 0.0
S2926 S 0.57184 0.15267 0.81591 0.0
N2927 N 0.56157 0.15952 0.83845 0.0
N2928 N 0.57383 0.12708 0.81659 0.0
C2929 C 0.56587 0.12302 0.83575 0.0
C2930 C 0.55926 0.14065 0.84767 0.0
C2931 C 0.62031 0.32966 0.10829 0.0
C2932 C 0.62002 0.31055 0.11899 0.0
C2933 C 0.63804 0.33641 0.09763 0.0
C2934 C 0.6562 0.32424 0.09696 0.0
H2935 H 0.60701 0.34001 0.10883 0.0
H2936 H 0.63767 0.35162 0.0904 0.0
S2937 S 0.66274 0.27173 0.12029 0.0
N2938 N 0.6389 0.27871 0.1268 0.0
N2939 N 0.67217 0.29118 0.10646 0.0
C2940 C 0.65573 0.30448 0.10651 0.0
C2941 C 0.63769 0.29771 0.11762 0.0
C2942 C 0.45541 0.39403 0.37878 0.0
C2943 C 0.45931 0.37487 0.36901 0.0
C2944 C 0.44829 0.41122 0.36746 0.0
C2945 C 0.44495 0.41015 0.34578 0.0
H2946 H 0.45724 0.39565 0.39547 0.0
H2947 H 0.44528 0.42548 0.37592 0.0
S2948 S 0.45409 0.36388 0.31248 0.0
N2949 N 0.46014 0.35599 0.33619 0.0
N2950 N 0.44697 0.38845 0.31484 0.0
C2951 C 0.44939 0.39126 0.33567 0.0
C2952 C 0.45648 0.37361 0.34728 0.0
C2953 C 0.36143 0.21762 0.59211 0.0
C2954 C 0.34981 0.19997 0.59776 0.0
C2955 C 0.37863 0.22407 0.60398 0.0
C2956 C 0.38428 0.21354 0.62231 0.0
H2957 H 0.35714 0.22656 0.57848 0.0
H2958 H 0.38723 0.23767 0.59905 0.0
S2959 S 0.35907 0.16632 0.64384 0.0
N2960 N 0.34553 0.17181 0.6227 0.0
N2961 N 0.37731 0.1843 0.64526 0.0
C2962 C 0.37286 0.19582 0.62807 0.0
C2963 C 0.35576 0.18893 0.61573 0.0
C2964 C 0.5671 0.87654 0.14695 0.0
C2965 C 0.54962 0.87326 0.13408 0.0
C2966 C 0.56965 0.89507 0.15816 0.0
C2967 C 0.55488 0.91113 0.1569 0.0
H2968 H 0.57938 0.86502 0.14782 0.0
H2969 H 0.58386 0.8972 0.16698 0.0
S2970 S 0.50484 0.90926 0.12804 0.0
N2971 N 0.51617 0.88685 0.12267 0.0
N2972 N 0.52098 0.92165 0.1437 0.0
C2973 C 0.53667 0.90754 0.14524 0.0
C2974 C 0.53403 0.88863 0.13385 0.0
C2975 C 0.84505 0.29751 0.39297 0.0
C2976 C 0.84369 0.31202 0.40935 0.0
C2977 C 0.86393 0.2934 0.38292 0.0
C2978 C 0.88233 0.30365 0.38876 0.0
H2979 H 0.83124 0.28969 0.38731 0.0
H2980 H 0.86387 0.28265 0.36993 0.0
S2981 S 0.8877 0.34139 0.43231 0.0
N2982 N 0.86274 0.3354 0.43213 0.0
N2983 N 0.89832 0.32767 0.41335 0.0
C2984 C 0.88146 0.31731 0.40595 0.0
C2985 C 0.86215 0.32148 0.41623 0.0
C2986 C 0.46544 0.61973 0.62469 0.0
C2987 C 0.45249 0.637 0.62818 0.0
C2988 C 0.46211 0.60088 0.63508 0.0
C2989 C 0.44579 0.59853 0.64953 0.0
H2990 H 0.47778 0.62046 0.61325 0.0
H2991 H 0.4721 0.58785 0.63126 0.0
S2992 S 0.40891 0.63974 0.66608 0.0
N2993 N 0.42375 0.6511 0.64849 0.0
N2994 N 0.41757 0.61565 0.66801 0.0
C2995 C 0.43346 0.61601 0.65407 0.0
C2996 C 0.43677 0.63522 0.64338 0.0
C2997 C 0.12825 0.19452 0.89811 0.0
C2998 C 0.12626 0.21013 0.88281 0.0
C2999 C 0.14743 0.19032 0.90768 0.0
C3000 C 0.16538 0.20151 0.90226 0.0
H3001 H 0.11509 0.18488 0.90223 0.0
H3002 H 0.14835 0.17758 0.91866 0.0
S3003 S 0.16802 0.246 0.8655 0.0
N3004 N 0.14356 0.23831 0.86444 0.0
N3005 N 0.17952 0.23041 0.88237 0.0
C3006 C 0.16336 0.218 0.88797 0.0
C3007 C 0.14383 0.22232 0.87828 0.0
C3008 C 0.87696 0.03766 0.61366 0.0
C3009 C 0.87279 0.04902 0.6319 0.0
C3010 C 0.86662 0.04206 0.59499 0.0
C3011 C 0.85162 0.05799 0.59369 0.0
H3012 H 0.88885 0.02572 0.61354 0.0
H3013 H 0.87098 0.03326 0.58129 0.0
S3014 S 0.8332 0.09085 0.63746 0.0
N3015 N 0.85121 0.07578 0.6479 0.0
N3016 N 0.83186 0.08405 0.61272 0.0
C3017 C 0.84639 0.0687 0.61205 0.0
C3018 C 0.85696 0.06423 0.63114 0.0
C3019 C 0.36199 0.94236 0.90366 0.0
C3020 C 0.34235 0.95126 0.90742 0.0
C3021 C 0.37457 0.94931 0.88732 0.0
C3022 C 0.36783 0.9651 0.87375 0.0
H3023 H 0.36798 0.93026 0.91378 0.0
H3024 H 0.38958 0.94195 0.8851 0.0
S3025 S 0.31749 0.99316 0.87653 0.0
N3026 N 0.31674 0.97675 0.89631 0.0
N3027 N 0.34008 0.98923 0.8649 0.0
C3028 C 0.34808 0.97391 0.87707 0.0
C3029 C 0.33544 0.96717 0.8941 0.0
C3030 C 0.81836 0.10337 0.1549 0.0
C3031 C 0.80511 0.0878 0.16267 0.0
C3032 C 0.81207 0.1165 0.13867 0.0
C3033 C 0.7924 0.11441 0.12923 0.0
H3034 H 0.83338 0.10614 0.16202 0.0
H3035 H 0.82268 0.12856 0.13363 0.0
S3036 S 0.75258 0.07489 0.14255 0.0
N3037 N 0.77185 0.07027 0.15893 0.0
N3038 N 0.76021 0.09464 0.12803 0.0
C3039 C 0.77938 0.09826 0.13615 0.0
C3040 C 0.78568 0.08507 0.15295 0.0
C3041 C 0.63113 0.54316 0.39478 0.0
C3042 C 0.63687 0.55352 0.3764 0.0
C3043 C 0.64065 0.54782 0.41383 0.0
C3044 C 0.65635 0.563 0.41538 0.0
H3045 H 0.61863 0.5319 0.39469 0.0
H3046 H 0.6351 0.53983 0.42759 0.0
S3047 S 0.67883 0.59294 0.37148 0.0
N3048 N 0.66066 0.57841 0.36063 0.0
N3049 N 0.67844 0.58716 0.39651 0.0
C3050 C 0.66312 0.57264 0.39695 0.0
C3051 C 0.65339 0.56791 0.37747 0.0
C3052 C 0.69243 0.90046 0.65718 0.0
C3053 C 0.70166 0.91993 0.66101 0.0
C3054 C 0.69976 0.88734 0.6414 0.0
C3055 C 0.71634 0.89331 0.62845 0.0
H3056 H 0.67971 0.89501 0.66679 0.0
H3057 H 0.69207 0.87253 0.6391 0.0
S3058 S 0.74574 0.9428 0.63174 0.0
N3059 N 0.7284 0.94449 0.65063 0.0
N3060 N 0.74172 0.92011 0.62038 0.0
C3061 C 0.72557 0.91284 0.63189 0.0
C3062 C 0.71838 0.92605 0.64832 0.0
C3063 C 0.13089 0.96628 0.61146 0.0
C3064 C 0.13775 0.95614 0.6296 0.0
C3065 C 0.13971 0.96183 0.59204 0.0
C3066 C 0.15578 0.94707 0.58985 0.0
H3067 H 0.11805 0.97717 0.61207 0.0
H3068 H 0.13328 0.9696 0.57852 0.0
S3069 S 0.18116 0.918 0.63279 0.0
N3070 N 0.16305 0.93204 0.64438 0.0
N3071 N 0.17947 0.92366 0.60778 0.0
C3072 C 0.16369 0.93773 0.60798 0.0
C3073 C 0.1547 0.94227 0.62785 0.0
C3074 C 0.82896 0.40001 0.39505 0.0
C3075 C 0.80876 0.39155 0.3955 0.0
C3076 C 0.83599 0.41163 0.37802 0.0
C3077 C 0.82304 0.4156 0.36085 0.0
H3078 H 0.83983 0.39693 0.40756 0.0
H3079 H 0.85195 0.41702 0.37807 0.0
S3080 S 0.76805 0.39875 0.35519 0.0
N3081 N 0.77538 0.38917 0.37788 0.0
N3082 N 0.78844 0.41132 0.34598 0.0
C3083 C 0.80239 0.40823 0.36158 0.0
C3084 C 0.79531 0.39611 0.37885 0.0
C3085 C 0.21372 0.12299 0.8436 0.0
C3086 C 0.2005 0.1056 0.84208 0.0
C3087 C 0.21824 0.13221 0.86282 0.0
C3088 C 0.2097 0.12449 0.88141 0.0
H3089 H 0.22024 0.13001 0.82974 0.0
H3090 H 0.22793 0.14597 0.86294 0.0
S3091 S 0.17597 0.07784 0.88632 0.0
N3092 N 0.18026 0.07996 0.86108 0.0
N3093 N 0.18876 0.09721 0.89727 0.0
C3094 C 0.19733 0.10642 0.88028 0.0
C3095 C 0.19274 0.09699 0.86063 0.0
C3096 C 0.59377 0.8703 0.04454 0.0
C3097 C 0.59261 0.8531 0.05807 0.0
C3098 C 0.61267 0.88028 0.04045 0.0
C3099 C 0.6313 0.87352 0.04973 0.0
H3100 H 0.57983 0.87662 0.03746 0.0
H3101 H 0.61248 0.89387 0.0305 0.0
S3102 S 0.63721 0.82766 0.0845 0.0
N3103 N 0.61207 0.82863 0.07938 0.0
N3104 N 0.64768 0.84726 0.07166 0.0
C3105 C 0.63059 0.85558 0.06237 0.0
C3106 C 0.61126 0.84539 0.06654 0.0
C3107 C 0.40867 0.88601 0.29534 0.0
C3108 C 0.38675 0.88609 0.29602 0.0
C3109 C 0.42012 0.86796 0.3 0.0
C3110 C 0.41004 0.84959 0.30606 0.0
H3111 H 0.41708 0.90006 0.29144 0.0
H3112 H 0.43695 0.86858 0.29949 0.0
S3113 S 0.35304 0.84105 0.30893 0.0
N3114 N 0.35547 0.86563 0.30199 0.0
N3115 N 0.37698 0.83205 0.31124 0.0
C3116 C 0.38817 0.84929 0.3063 0.0
C3117 C 0.37652 0.86745 0.30113 0.0
C3118 C 0.39394 0.63639 0.53037 0.0
C3119 C 0.37603 0.63997 0.5424 0.0
C3120 C 0.41248 0.64707 0.53432 0.0
C3121 C 0.41396 0.66183 0.55047 0.0
H3122 H 0.39398 0.62458 0.51834 0.0
H3123 H 0.42602 0.64305 0.52512 0.0
S3124 S 0.37081 0.67912 0.5847 0.0
N3125 N 0.36033 0.66107 0.56974 0.0
N3126 N 0.39528 0.68101 0.5772 0.0
C3127 C 0.3958 0.66667 0.56166 0.0
C3128 C 0.37684 0.65578 0.55763 0.0
C3129 C 0.62083 0.66235 0.79387 0.0
C3130 C 0.60518 0.66397 0.80915 0.0
C3131 C 0.63048 0.64332 0.78936 0.0
C3132 C 0.62492 0.62503 0.79994 0.0
H3133 H 0.62623 0.67603 0.78567 0.0
H3134 H 0.6429 0.64317 0.77798 0.0
S3135 S 0.58327 0.62033 0.83982 0.0
N3136 N 0.58342 0.64526 0.83372 0.0
N3137 N 0.6014 0.60944 0.82525 0.0
C3138 C 0.60848 0.62617 0.81447 0.0
C3139 C 0.59864 0.64563 0.81906 0.0
C3140 C 0.61287 0.15987 0.94188 0.0
C3141 C 0.595 0.1558 0.95377 0.0
C3142 C 0.63192 0.15021 0.94651 0.0
C3143 C 0.63389 0.13612 0.96325 0.0
H3144 H 0.61194 0.16977 0.92828 0.0
H3145 H 0.64499 0.15324 0.93633 0.0
S3146 S 0.59244 0.12273 1.00114 0.0
N3147 N 0.58103 0.1386 0.98447 0.0
N3148 N 0.61672 0.12048 0.99311 0.0
C3149 C 0.61644 0.133 0.97607 0.0
C3150 C 0.59706 0.14282 0.97135 0.0
C3151 C 0.1314 0.86676 0.21841 0.0
C3152 C 0.12428 0.88541 0.20945 0.0
C3153 C 0.12245 0.84765 0.2132 0.0
C3154 C 0.10589 0.84633 0.19892 0.0
H3155 H 0.14455 0.86674 0.22896 0.0
H3156 H 0.12898 0.83373 0.22011 0.0
S3157 S 0.07987 0.89071 0.17277 0.0
N3158 N 0.09843 0.90151 0.18684 0.0
N3159 N 0.08161 0.86546 0.17712 0.0
C3160 C 0.09779 0.86491 0.19072 0.0
C3161 C 0.10699 0.88446 0.19595 0.0
C3162 C 0.3818 0.35029 0.47515 0.0
C3163 C 0.37591 0.36806 0.4638 0.0
C3164 C 0.39923 0.33842 0.4693 0.0
C3165 C 0.41085 0.34345 0.45145 0.0
H3166 H 0.37319 0.34585 0.48894 0.0
H3167 H 0.40371 0.32528 0.47886 0.0
S3168 S 0.40127 0.38797 0.41588 0.0
N3169 N 0.38285 0.38987 0.43367 0.0
N3170 N 0.41503 0.36725 0.42231 0.0
C3171 C 0.40473 0.36084 0.43964 0.0
C3172 C 0.38741 0.37323 0.44591 0.0
C3173 C 0.90046 0.63012 0.69411 0.0
C3174 C 0.88732 0.62719 0.71144 0.0
C3175 C 0.91177 0.64856 0.69143 0.0
C3176 C 0.91031 0.66484 0.70594 0.0
H3177 H 0.90146 0.61842 0.68202 0.0
H3178 H 0.92074 0.6505 0.6773 0.0
S3179 S 0.88065 0.66396 0.7555 0.0
N3180 N 0.87542 0.64137 0.74449 0.0
N3181 N 0.8966 0.676 0.73941 0.0
C3182 C 0.89836 0.6616 0.72401 0.0
C3183 C 0.88689 0.6428 0.72679 0.0
C3184 C 0.53099 0.629 0.34965 0.0
C3185 C 0.54 0.63338 0.36914 0.0
C3186 C 0.53787 0.6121 0.33757 0.0
C3187 C 0.55447 0.59948 0.34423 0.0
H3188 H 0.51843 0.63859 0.34379 0.0
H3189 H 0.53027 0.60902 0.32284 0.0
S3190 S 0.58371 0.6048 0.39388 0.0
N3191 N 0.56645 0.6238 0.39448 0.0
N3192 N 0.57972 0.59255 0.37167 0.0
C3193 C 0.56377 0.60389 0.3636 0.0
C3194 C 0.55644 0.62071 0.37608 0.0
C3195 C 0.65994 0.79526 0.62299 0.0
C3196 C 0.6619 0.81006 0.60695 0.0
C3197 C 0.64064 0.79075 0.63197 0.0
C3198 C 0.62241 0.80087 0.62533 0.0
H3199 H 0.67355 0.7875 0.62924 0.0
H3200 H 0.6402 0.77982 0.64478 0.0
S3201 S 0.61859 0.83899 0.58199 0.0
N3202 N 0.64361 0.83341 0.58344 0.0
N3203 N 0.60726 0.82492 0.60022 0.0
C3204 C 0.62391 0.81477 0.60841 0.0
C3205 C 0.64365 0.81936 0.59923 0.0
C3206 C 0.44951 0.90515 0.86239 0.0
C3207 C 0.45396 0.90612 0.84096 0.0
C3208 C 0.45658 0.88864 0.87469 0.0
C3209 C 0.46804 0.87215 0.866 0.0
H3210 H 0.44066 0.91742 0.86984 0.0
H3211 H 0.45253 0.88858 0.89106 0.0
S3212 S 0.48398 0.86734 0.81068 0.0
N3213 N 0.47097 0.88949 0.81162 0.0
N3214 N 0.48371 0.85791 0.8346 0.0
C3215 C 0.47266 0.87291 0.84458 0.0
C3216 C 0.4658 0.89005 0.83211 0.0
C3217 C 0.37623 0.66615 0.09943 0.0
C3218 C 0.35887 0.6786 0.09475 0.0
C3219 C 0.39291 0.67393 0.11108 0.0
C3220 C 0.39284 0.69443 0.11885 0.0
H3221 H 0.37668 0.65001 0.09462 0.0
H3222 H 0.40558 0.66342 0.11473 0.0
S3223 S 0.35182 0.73401 0.10977 0.0
N3224 N 0.34324 0.71302 0.09773 0.0
N3225 N 0.37451 0.72747 0.11992 0.0
C3226 C 0.37598 0.70734 0.11363 0.0
C3227 C 0.35906 0.6995 0.10148 0.0
C3228 C 0.55775 0.38412 0.64982 0.0
C3229 C 0.54229 0.38246 0.63431 0.0
C3230 C 0.56197 0.40312 0.65968 0.0
C3231 C 0.5509 0.42123 0.65443 0.0
H3232 H 0.56737 0.37086 0.65379 0.0
H3233 H 0.57472 0.4038 0.67069 0.0
S3234 S 0.50651 0.42456 0.61751 0.0
N3235 N 0.5142 0.40011 0.61609 0.0
N3236 N 0.52202 0.43574 0.63465 0.0
C3237 C 0.5344 0.41947 0.64008 0.0
C3238 C 0.53013 0.40012 0.63001 0.0
C3239 C 0.85987 0.82393 0.90814 0.0
C3240 C 0.84337 0.80985 0.90573 0.0
C3241 C 0.87901 0.82057 0.89821 0.0
C3242 C 0.88244 0.80295 0.88557 0.0
H3243 H 0.85769 0.83818 0.91687 0.0
H3244 H 0.89094 0.83233 0.8999 0.0
S3245 S 0.8451 0.75982 0.87689 0.0
N3246 N 0.83235 0.7765 0.8917 0.0
N3247 N 0.86828 0.77015 0.87311 0.0
C3248 C 0.86648 0.78808 0.88419 0.0
C3249 C 0.84697 0.79154 0.89424 0.0
C3250 C 0.4643 0.09423 0.13623 0.0
C3251 C 0.4509 0.09317 0.15354 0.0
C3252 C 0.46872 0.11315 0.12641 0.0
C3253 C 0.45992 0.13189 0.13347 0.0
H3254 H 0.47101 0.08021 0.12969 0.0
H3255 H 0.47853 0.1129 0.11272 0.0
S3256 S 0.4258 0.13808 0.17977 0.0
N3257 N 0.43031 0.11284 0.17846 0.0
N3258 N 0.43864 0.14847 0.16012 0.0
C3259 C 0.44742 0.13126 0.1515 0.0
C3260 C 0.4429 0.11192 0.16151 0.0
C3261 C 0.14732 0.69143 0.40559 0.0
C3262 C 0.156 0.70347 0.42169 0.0
C3263 C 0.13187 0.69945 0.39247 0.0
C3264 C 0.12414 0.7198 0.39498 0.0
H3265 H 0.15296 0.67585 0.40252 0.0
H3266 H 0.12604 0.68954 0.38015 0.0
S3267 S 0.14051 0.75733 0.4357 0.0
N3268 N 0.15501 0.73656 0.44003 0.0
N3269 N 0.12566 0.75152 0.41555 0.0
C3270 C 0.13209 0.73179 0.4115 0.0
C3271 C 0.14807 0.72367 0.42478 0.0
C3272 C 0.87782 0.53953 0.12138 0.0
C3273 C 0.8743 0.55301 0.13825 0.0
C3274 C 0.86768 0.54246 0.1023 0.0
C3275 C 0.85346 0.55887 0.09929 0.0
H3276 H 0.88913 0.52709 0.1226 0.0
H3277 H 0.87155 0.53208 0.08959 0.0
S3278 S 0.8369 0.59714 0.13921 0.0
N3279 N 0.85416 0.58239 0.15124 0.0
N3280 N 0.83513 0.5878 0.11534 0.0
C3281 C 0.84884 0.57174 0.11637 0.0
C3282 C 0.85928 0.56884 0.13582 0.0
C3283 C 0.35823 0.44794 0.40721 0.0
C3284 C 0.33773 0.45514 0.40993 0.0
C3285 C 0.37119 0.45634 0.39192 0.0
C3286 C 0.36407 0.47196 0.37837 0.0
H3287 H 0.36458 0.43602 0.41731 0.0
H3288 H 0.38682 0.45019 0.39047 0.0
S3289 S 0.31163 0.49602 0.37872 0.0
N3290 N 0.31094 0.47899 0.39798 0.0
N3291 N 0.33512 0.49418 0.36842 0.0
C3292 C 0.34353 0.47914 0.38066 0.0
C3293 C 0.33043 0.47093 0.39668 0.0
C3294 C 0.79603 0.6229 0.66678 0.0
C3295 C 0.8111 0.60704 0.66823 0.0
C3296 C 0.79211 0.63323 0.64797 0.0
C3297 C 0.80314 0.6282 0.62975 0.0
H3298 H 0.78751 0.62788 0.68044 0.0
H3299 H 0.78081 0.64573 0.64795 0.0
S3300 S 0.84295 0.58649 0.62468 0.0
N3301 N 0.83611 0.5858 0.64943 0.0
N3302 N 0.82879 0.6051 0.61404 0.0
C3303 C 0.81755 0.61164 0.63072 0.0
C3304 C 0.82151 0.60108 0.64993 0.0
C3305 C 0.64159 0.04479 0.91885 0.0
C3306 C 0.65682 0.06047 0.92 0.0
C3307 C 0.63203 0.03957 0.89998 0.0
C3308 C 0.63721 0.04987 0.88139 0.0
H3309 H 0.63645 0.03683 0.93278 0.0
H3310 H 0.61987 0.02794 0.90019 0.0
S3311 S 0.67795 0.09042 0.87547 0.0
N3312 N 0.67801 0.08498 0.90058 0.0
N3313 N 0.66011 0.07521 0.86501 0.0
C3314 C 0.65334 0.06473 0.88207 0.0
C3315 C 0.66314 0.07001 0.90137 0.0
C3316 C 0.694 0.41296 0.14938 0.0
C3317 C 0.7026 0.40681 0.16854 0.0
C3318 C 0.69978 0.4031 0.13074 0.0
C3319 C 0.71433 0.38668 0.13059 0.0
H3320 H 0.68203 0.42483 0.14883 0.0
H3321 H 0.69205 0.40779 0.1165 0.0
S3322 S 0.74389 0.367 0.17613 0.0
N3323 N 0.72831 0.38496 0.18584 0.0
N3324 N 0.73893 0.36639 0.15093 0.0
C3325 C 0.72398 0.38129 0.14946 0.0
C3326 C 0.71819 0.39137 0.16839 0.0
C3327 C 0.14665 0.44402 0.13279 0.0
C3328 C 0.13018 0.4585 0.13387 0.0
C3329 C 0.15627 0.4391 0.11381 0.0
C3330 C 0.14974 0.44839 0.09513 0.0
H3331 H 0.15177 0.43582 0.1466 0.0
H3332 H 0.16827 0.42726 0.1137 0.0
S3333 S 0.10935 0.48942 0.08973 0.0
N3334 N 0.10927 0.48361 0.11475 0.0
N3335 N 0.12729 0.4744 0.07916 0.0
C3336 C 0.13413 0.46377 0.09613 0.0
C3337 C 0.12437 0.46882 0.11546 0.0
C3338 C 0.78988 0.87551 0.86054 0.0
C3339 C 0.79739 0.88401 0.87925 0.0
C3340 C 0.79505 0.88426 0.84127 0.0
C3341 C 0.80791 0.90192 0.8398 0.0
H3342 H 0.78052 0.86153 0.86065 0.0
H3343 H 0.78932 0.87666 0.82735 0.0
S3344 S 0.82982 0.93159 0.8842 0.0
N3345 N 0.81699 0.91226 0.89517 0.0
N3346 N 0.8267 0.9286 0.85887 0.0
C3347 C 0.81462 0.91129 0.8584 0.0
C3348 C 0.80938 0.90234 0.87811 0.0
C3349 C 0.20374 0.62354 0.36955 0.0
C3350 C 0.20624 0.61405 0.3891 0.0
C3351 C 0.19785 0.612 0.35207 0.0
C3352 C 0.19441 0.59039 0.35324 0.0
H3353 H 0.20568 0.64018 0.3678 0.0
H3354 H 0.19582 0.62024 0.3375 0.0
S3355 S 0.20054 0.55771 0.40043 0.0
N3356 N 0.20596 0.5815 0.40842 0.0
N3357 N 0.19508 0.55975 0.37539 0.0
C3358 C 0.19765 0.58051 0.3725 0.0
C3359 C 0.20348 0.59235 0.39044 0.0
loop_
_geom_bond_atom_site_label_1
_geom_bond_atom_site_label_2
_geom_bond_distance
_geom_bond_site_symmetry_2
_ccdc_geom_bond_type
Mg0 O7 2.141 . S
Mg0 O8 2.048 . S
Mg0 O9 2.048 . S
Mg0 O12 2.141 . S
C1 O2 1.313 . S
C1 O8 1.195 . S
O2 C1 1.313 . S
C3 O4 1.245 . S
C3 O12 1.289 . S
O4 C3 1.245 . S
C5 O6 1.245 . S
C5 O7 1.289 . S
O6 C5 1.245 . S
O7 Mg0 2.141 . S
O7 C5 1.289 . S
O8 Mg0 2.048 . S
O8 C1 1.195 . S
O9 Mg0 2.048 . S
O9 C10 1.195 . S
C10 O9 1.195 . S
C10 O11 1.313 . S
O11 C10 1.313 . S
O12 Mg0 2.141 . S
O12 C3 1.289 . S
Mg13 O20 2.141 . S
Mg13 O21 2.048 . S
Mg13 O22 2.048 . S
Mg13 O25 2.141 . S
C14 O15 1.313 . S
C14 O21 1.195 . S
O15 C14 1.313 . S
C16 O17 1.245 . S
C16 O25 1.289 . S
O17 C16 1.245 . S
C18 O19 1.245 . S
C18 O20 1.289 . S
O19 C18 1.245 . S
O20 Mg13 2.141 . S
O20 C18 1.289 . S
O21 Mg13 2.048 . S
O21 C14 1.195 . S
O22 Mg13 2.048 . S
O22 C23 1.195 . S
C23 O22 1.195 . S
C23 O24 1.313 . S
O24 C23 1.313 . S
O25 Mg13 2.141 . S
O25 C16 1.289 . S
Mg26 O33 2.141 . S
Mg26 O34 2.048 . S
Mg26 O35 2.048 . S
Mg26 O38 2.141 . S
C27 O28 1.313 . S
C27 O34 1.195 . S
O28 C27 1.313 . S
C29 O30 1.245 . S
C29 O38 1.289 . S
O30 C29 1.245 . S
C31 O32 1.245 . S
C31 O33 1.289 . S
O32 C31 1.245 . S
O33 Mg26 2.141 . S
O33 C31 1.289 . S
O34 Mg26 2.048 . S
O34 C27 1.195 . S
O35 Mg26 2.048 . S
O35 C36 1.195 . S
C36 O35 1.195 . S
C36 O37 1.313 . S
O37 C36 1.313 . S
O38 Mg26 2.141 . S
O38 C29 1.289 . S
Mg39 O46 2.141 . S
Mg39 O47 2.048 . S
Mg39 O48 2.048 . S
Mg39 O51 2.141 . S
C40 O41 1.313 . S
C40 O47 1.195 . S
O41 C40 1.313 . S
C42 O43 1.245 . S
C42 O51 1.289 . S
O43 C42 1.245 . S
C44 O45 1.245 . S
C44 O46 1.289 . S
O45 C44 1.245 . S
O46 Mg39 2.141 . S
O46 C44 1.289 . S
O47 Mg39 2.048 . S
O47 C40 1.195 . S
O48 Mg39 2.048 . S
O48 C49 1.195 . S
C49 O48 1.195 . S
C49 O50 1.313 . S
O50 C49 1.313 . S
O51 Mg39 2.141 . S
O51 C42 1.289 . S
Mg52 O59 2.141 . S
Mg52 O60 2.048 . S
Mg52 O61 2.048 . S
Mg52 O64 2.141 . S
C53 O54 1.313 . S
C53 O60 1.195 . S
O54 C53 1.313 . S
C55 O56 1.245 . S
C55 O64 1.289 . S
O56 C55 1.245 . S
C57 O58 1.245 . S
C57 O59 1.289 . S
O58 C57 1.245 . S
O59 Mg52 2.141 . S
O59 C57 1.289 . S
O60 Mg52 2.048 . S
O60 C53 1.195 . S
O61 Mg52 2.048 . S
O61 C62 1.195 . S
C62 O61 1.195 . S
C62 O63 1.313 . S
O63 C62 1.313 . S
O64 Mg52 2.141 . S
O64 C55 1.289 . S
Mg65 O72 2.141 . S
Mg65 O73 2.048 . S
Mg65 O74 2.048 . S
Mg65 O77 2.141 . S
C66 O67 1.313 . S
C66 O73 1.195 . S
O67 C66 1.313 . S
C68 O69 1.245 . S
C68 O77 1.289 . S
O69 C68 1.245 . S
C70 O71 1.245 . S
C70 O72 1.289 . S
O71 C70 1.245 . S
O72 Mg65 2.141 . S
O72 C70 1.289 . S
O73 Mg65 2.048 . S
O73 C66 1.195 . S
O74 Mg65 2.048 . S
O74 C75 1.195 . S
C75 O74 1.195 . S
C75 O76 1.313 . S
O76 C75 1.313 . S
O77 Mg65 2.141 . S
O77 C68 1.289 . S
Mg78 O85 2.141 . S
Mg78 O86 2.048 . S
Mg78 O87 2.048 . S
Mg78 O90 2.141 . S
C79 O80 1.313 . S
C79 O86 1.195 . S
O80 C79 1.313 . S
C81 O82 1.245 . S
C81 O90 1.289 . S
O82 C81 1.245 . S
C83 O84 1.245 . S
C83 O85 1.289 . S
O84 C83 1.245 . S
O85 Mg78 2.141 . S
O85 C83 1.289 . S
O86 Mg78 2.048 . S
O86 C79 1.195 . S
O87 Mg78 2.048 . S
O87 C88 1.195 . S
C88 O87 1.195 . S
C88 O89 1.313 . S
O89 C88 1.313 . S
O90 Mg78 2.141 . S
O90 C81 1.289 . S
Mg91 O98 2.141 . S
Mg91 O99 2.048 . S
Mg91 O100 2.048 . S
Mg91 O103 2.141 . S
C92 O93 1.313 . S
C92 O99 1.195 . S
O93 C92 1.313 . S
C94 O95 1.245 . S
C94 O103 1.289 . S
O95 C94 1.245 . S
C96 O97 1.245 . S
C96 O98 1.289 . S
O97 C96 1.245 . S
O98 Mg91 2.141 . S
O98 C96 1.289 . S
O99 Mg91 2.048 . S
O99 C92 1.195 . S
O100 Mg91 2.048 . S
O100 C101 1.195 . S
C101 O100 1.195 . S
C101 O102 1.313 . S
O102 C101 1.313 . S
O103 Mg91 2.141 . S
O103 C94 1.289 . S
Mg104 O111 2.141 . S
Mg104 O112 2.048 . S
Mg104 O113 2.048 . S
Mg104 O116 2.141 . S
C105 O106 1.313 . S
C105 O112 1.195 . S
O106 C105 1.313 . S
C107 O108 1.245 . S
C107 O116 1.289 . S
O108 C107 1.245 . S
C109 O110 1.245 . S
C109 O111 1.289 . S
O110 C109 1.245 . S
O111 Mg104 2.141 . S
O111 C109 1.289 . S
O112 Mg104 2.048 . S
O112 C105 1.195 . S
O113 Mg104 2.048 . S
O113 C114 1.195 . S
C114 O113 1.195 . S
C114 O115 1.313 . S
O115 C114 1.313 . S
O116 Mg104 2.141 . S
O116 C107 1.289 . S
Mg117 O124 2.141 . S
Mg117 O125 2.048 . S
Mg117 O126 2.048 . S
Mg117 O129 2.141 . S
C118 O119 1.313 . S
C118 O125 1.195 . S
O119 C118 1.313 . S
C120 O121 1.245 . S
C120 O129 1.289 . S
O121 C120 1.245 . S
C122 O123 1.245 . S
C122 O124 1.289 . S
O123 C122 1.245 . S
O124 Mg117 2.141 . S
O124 C122 1.289 . S
O125 Mg117 2.048 . S
O125 C118 1.195 . S
O126 Mg117 2.048 . S
O126 C127 1.195 . S
C127 O126 1.195 . S
C127 O128 1.313 . S
O128 C127 1.313 . S
O129 Mg117 2.141 . S
O129 C120 1.289 . S
Mg130 O137 2.141 . S
Mg130 O138 2.048 . S
Mg130 O139 2.048 . S
Mg130 O142 2.141 . S
C131 O132 1.313 . S
C131 O138 1.195 . S
O132 C131 1.313 . S
C133 O134 1.245 . S
C133 O142 1.289 . S
O134 C133 1.245 . S
C135 O136 1.245 . S
C135 O137 1.289 . S
O136 C135 1.245 . S
O137 Mg130 2.141 . S
O137 C135 1.289 . S
O138 Mg130 2.048 . S
O138 C131 1.195 . S
O139 Mg130 2.048 . S
O139 C140 1.195 . S
C140 O139 1.195 . S
C140 O141 1.313 . S
O141 C140 1.313 . S
O142 Mg130 2.141 . S
O142 C133 1.289 . S
Mg143 O150 2.141 . S
Mg143 O151 2.048 . S
Mg143 O152 2.048 . S
Mg143 O155 2.141 . S
C144 O145 1.313 . S
C144 O151 1.195 . S
O145 C144 1.313 . S
C146 O147 1.245 . S
C146 O155 1.289 . S
O147 C146 1.245 . S
C148 O149 1.245 . S
C148 O150 1.289 . S
O149 C148 1.245 . S
O150 Mg143 2.141 . S
O150 C148 1.289 . S
O151 Mg143 2.048 . S
O151 C144 1.195 . S
O152 Mg143 2.048 . S
O152 C153 1.195 . S
C153 O152 1.195 . S
C153 O154 1.313 . S
O154 C153 1.313 . S
O155 Mg143 2.141 . S
O155 C146 1.289 . S
Mg156 O163 2.141 . S
Mg156 O164 2.048 . S
Mg156 O165 2.048 . S
Mg156 O168 2.141 . S
C157 O158 1.313 . S
C157 O164 1.195 . S
O158 C157 1.313 . S
C159 O160 1.245 . S
C159 O168 1.289 . S
O160 C159 1.245 . S
C161 O162 1.245 . S
C161 O163 1.289 . S
O162 C161 1.245 . S
O163 Mg156 2.141 . S
O163 C161 1.289 . S
O164 Mg156 2.048 . S
O164 C157 1.195 . S
O165 Mg156 2.048 . S
O165 C166 1.195 . S
C166 O165 1.195 . S
C166 O167 1.313 . S
O167 C166 1.313 . S
O168 Mg156 2.141 . S
O168 C159 1.289 . S
Mg169 O176 2.141 . S
Mg169 O177 2.048 . S
Mg169 O178 2.048 . S
Mg169 O181 2.141 . S
C170 O171 1.313 . S
C170 O177 1.195 . S
O171 C170 1.313 . S
C172 O173 1.245 . S
C172 O181 1.289 . S
O173 C172 1.245 . S
C174 O175 1.245 . S
C174 O176 1.289 . S
O175 C174 1.245 . S
O176 Mg169 2.141 . S
O176 C174 1.289 . S
O177 Mg169 2.048 . S
O177 C170 1.195 . S
O178 Mg169 2.048 . S
O178 C179 1.195 . S
C179 O178 1.195 . S
C179 O180 1.313 . S
O180 C179 1.313 . S
O181 Mg169 2.141 . S
O181 C172 1.289 . S
Mg182 O189 2.141 . S
Mg182 O190 2.048 . S
Mg182 O191 2.048 . S
Mg182 O194 2.141 . S
C183 O184 1.313 . S
C183 O190 1.195 . S
O184 C183 1.313 . S
C185 O186 1.245 . S
C185 O194 1.289 . S
O186 C185 1.245 . S
C187 O188 1.245 . S
C187 O189 1.289 . S
O188 C187 1.245 . S
O189 Mg182 2.141 . S
O189 C187 1.289 . S
O190 Mg182 2.048 . S
O190 C183 1.195 . S
O191 Mg182 2.048 . S
O191 C192 1.195 . S
C192 O191 1.195 . S
C192 O193 1.313 . S
O193 C192 1.313 . S
O194 Mg182 2.141 . S
O194 C185 1.289 . S
Mg195 O202 2.141 . S
Mg195 O203 2.048 . S
Mg195 O204 2.048 . S
Mg195 O207 2.141 . S
C196 O197 1.313 . S
C196 O203 1.195 . S
O197 C196 1.313 . S
C198 O199 1.245 . S
C198 O207 1.289 . S
O199 C198 1.245 . S
C200 O201 1.245 . S
C200 O202 1.289 . S
O201 C200 1.245 . S
O202 Mg195 2.141 . S
O202 C200 1.289 . S
O203 Mg195 2.048 . S
O203 C196 1.195 . S
O204 Mg195 2.048 . S
O204 C205 1.195 . S
C205 O204 1.195 . S
C205 O206 1.313 . S
O206 C205 1.313 . S
O207 Mg195 2.141 . S
O207 C198 1.289 . S
Mg208 O215 2.141 . S
Mg208 O216 2.048 . S
Mg208 O217 2.048 . S
Mg208 O220 2.141 . S
C209 O210 1.313 . S
C209 O216 1.195 . S
O210 C209 1.313 . S
C211 O212 1.245 . S
C211 O220 1.289 . S
O212 C211 1.245 . S
C213 O214 1.245 . S
C213 O215 1.289 . S
O214 C213 1.245 . S
O215 Mg208 2.141 . S
O215 C213 1.289 . S
O216 Mg208 2.048 . S
O216 C209 1.195 . S
O217 Mg208 2.048 . S
O217 C218 1.195 . S
C218 O217 1.195 . S
C218 O219 1.313 . S
O219 C218 1.313 . S
O220 Mg208 2.141 . S
O220 C211 1.289 . S
Mg221 O228 2.141 . S
Mg221 O229 2.048 . S
Mg221 O230 2.048 . S
Mg221 O233 2.141 . S
C222 O223 1.313 . S
C222 O229 1.195 . S
O223 C222 1.313 . S
C224 O225 1.245 . S
C224 O233 1.289 . S
O225 C224 1.245 . S
C226 O227 1.245 . S
C226 O228 1.289 . S
O227 C226 1.245 . S
O228 Mg221 2.141 . S
O228 C226 1.289 . S
O229 Mg221 2.048 . S
O229 C222 1.195 . S
O230 Mg221 2.048 . S
O230 C231 1.195 . S
C231 O230 1.195 . S
C231 O232 1.313 . S
O232 C231 1.313 . S
O233 Mg221 2.141 . S
O233 C224 1.289 . S
Mg234 O241 2.141 . S
Mg234 O242 2.048 . S
Mg234 O243 2.048 . S
Mg234 O246 2.141 . S
C235 O236 1.313 . S
C235 O242 1.195 . S
O236 C235 1.313 . S
C237 O238 1.245 . S
C237 O246 1.289 . S
O238 C237 1.245 . S
C239 O240 1.245 . S
C239 O241 1.289 . S
O240 C239 1.245 . S
O241 Mg234 2.141 . S
O241 C239 1.289 . S
O242 Mg234 2.048 . S
O242 C235 1.195 . S
O243 Mg234 2.048 . S
O243 C244 1.195 . S
C244 O243 1.195 . S
C244 O245 1.313 . S
O245 C244 1.313 . S
O246 Mg234 2.141 . S
O246 C237 1.289 . S
Mg247 O254 2.141 . S
Mg247 O255 2.048 . S
Mg247 O256 2.048 . S
Mg247 O259 2.141 . S
C248 O249 1.313 . S
C248 O255 1.195 . S
O249 C248 1.313 . S
C250 O251 1.245 . S
C250 O259 1.289 . S
O251 C250 1.245 . S
C252 O253 1.245 . S
C252 O254 1.289 . S
O253 C252 1.245 . S
O254 Mg247 2.141 . S
O254 C252 1.289 . S
O255 Mg247 2.048 . S
O255 C248 1.195 . S
O256 Mg247 2.048 . S
O256 C257 1.195 . S
C257 O256 1.195 . S
C257 O258 1.313 . S
O258 C257 1.313 . S
O259 Mg247 2.141 . S
O259 C250 1.289 . S
Mg260 O267 2.141 . S
Mg260 O268 2.048 . S
Mg260 O269 2.048 . S
Mg260 O272 2.141 . S
C261 O262 1.313 . S
C261 O268 1.195 . S
O262 C261 1.313 . S
C263 O264 1.245 . S
C263 O272 1.289 . S
O264 C263 1.245 . S
C265 O266 1.245 . S
C265 O267 1.289 . S
O266 C265 1.245 . S
O267 Mg260 2.141 . S
O267 C265 1.289 . S
O268 Mg260 2.048 . S
O268 C261 1.195 . S
O269 Mg260 2.048 . S
O269 C270 1.195 . S
C270 O269 1.195 . S
C270 O271 1.313 . S
O271 C270 1.313 . S
O272 Mg260 2.141 . S
O272 C263 1.289 . S
Mg273 O280 2.141 . S
Mg273 O281 2.048 . S
Mg273 O282 2.048 . S
Mg273 O285 2.141 . S
C274 O275 1.313 . S
C274 O281 1.195 . S
O275 C274 1.313 . S
C276 O277 1.245 . S
C276 O285 1.289 . S
O277 C276 1.245 . S
C278 O279 1.245 . S
C278 O280 1.289 . S
O279 C278 1.245 . S
O280 Mg273 2.141 . S
O280 C278 1.289 . S
O281 Mg273 2.048 . S
O281 C274 1.195 . S
O282 Mg273 2.048 . S
O282 C283 1.195 . S
C283 O282 1.195 . S
C283 O284 1.313 . S
O284 C283 1.313 . S
O285 Mg273 2.141 . S
O285 C276 1.289 . S
Mg286 O293 2.141 . S
Mg286 O294 2.048 . S
Mg286 O295 2.048 . S
Mg286 O298 2.141 . S
C287 O288 1.313 . S
C287 O294 1.195 . S
O288 C287 1.313 . S
C289 O290 1.245 . S
C289 O298 1.289 . S
O290 C289 1.245 . S
C291 O292 1.245 . S
C291 O293 1.289 . S
O292 C291 1.245 . S
O293 Mg286 2.141 . S
O293 C291 1.289 . S
O294 Mg286 2.048 . S
O294 C287 1.195 . S
O295 Mg286 2.048 . S
O295 C296 1.195 . S
C296 O295 1.195 . S
C296 O297 1.313 . S
O297 C296 1.313 . S
O298 Mg286 2.141 . S
O298 C289 1.289 . S
Mg299 O306 2.141 . S
Mg299 O307 2.048 . S
Mg299 O308 2.048 . S
Mg299 O311 2.141 . S
C300 O301 1.313 . S
C300 O307 1.195 . S
O301 C300 1.313 . S
C302 O303 1.245 . S
C302 O311 1.289 . S
O303 C302 1.245 . S
C304 O305 1.245 . S
C304 O306 1.289 . S
O305 C304 1.245 . S
O306 Mg299 2.141 . S
O306 C304 1.289 . S
O307 Mg299 2.048 . S
O307 C300 1.195 . S
O308 Mg299 2.048 . S
O308 C309 1.195 . S
C309 O308 1.195 . S
C309 O310 1.313 . S
O310 C309 1.313 . S
O311 Mg299 2.141 . S
O311 C302 1.289 . S
Mg312 O319 2.141 . S
Mg312 O320 2.048 . S
Mg312 O321 2.048 . S
Mg312 O324 2.141 . S
C313 O314 1.313 . S
C313 O320 1.195 . S
O314 C313 1.313 . S
C315 O316 1.245 . S
C315 O324 1.289 . S
O316 C315 1.245 . S
C317 O318 1.245 . S
C317 O319 1.289 . S
O318 C317 1.245 . S
O319 Mg312 2.141 . S
O319 C317 1.289 . S
O320 Mg312 2.048 . S
O320 C313 1.195 . S
O321 Mg312 2.048 . S
O321 C322 1.195 . S
C322 O321 1.195 . S
C322 O323 1.313 . S
O323 C322 1.313 . S
O324 Mg312 2.141 . S
O324 C315 1.289 . S
Mg325 O332 2.141 . S
Mg325 O333 2.048 . S
Mg325 O334 2.048 . S
Mg325 O337 2.141 . S
C326 O327 1.313 . S
C326 O333 1.195 . S
O327 C326 1.313 . S
C328 O329 1.245 . S
C328 O337 1.289 . S
O329 C328 1.245 . S
C330 O331 1.245 . S
C330 O332 1.289 . S
O331 C330 1.245 . S
O332 Mg325 2.141 . S
O332 C330 1.289 . S
O333 Mg325 2.048 . S
O333 C326 1.195 . S
O334 Mg325 2.048 . S
O334 C335 1.195 . S
C335 O334 1.195 . S
C335 O336 1.313 . S
O336 C335 1.313 . S
O337 Mg325 2.141 . S
O337 C328 1.289 . S
Mg338 O345 2.141 . S
Mg338 O346 2.048 . S
Mg338 O347 2.048 . S
Mg338 O350 2.141 . S
C339 O340 1.313 . S
C339 O346 1.195 . S
O340 C339 1.313 . S
C341 O342 1.245 . S
C341 O350 1.289 . S
O342 C341 1.245 . S
C343 O344 1.245 . S
C343 O345 1.289 . S
O344 C343 1.245 . S
O345 Mg338 2.141 . S
O345 C343 1.289 . S
O346 Mg338 2.048 . S
O346 C339 1.195 . S
O347 Mg338 2.048 . S
O347 C348 1.195 . S
C348 O347 1.195 . S
C348 O349 1.313 . S
O349 C348 1.313 . S
O350 Mg338 2.141 . S
O350 C341 1.289 . S
Mg351 O358 2.141 . S
Mg351 O359 2.048 . S
Mg351 O360 2.048 . S
Mg351 O363 2.141 . S
C352 O353 1.313 . S
C352 O359 1.195 . S
O353 C352 1.313 . S
C354 O355 1.245 . S
C354 O363 1.289 . S
O355 C354 1.245 . S
C356 O357 1.245 . S
C356 O358 1.289 . S
O357 C356 1.245 . S
O358 Mg351 2.141 . S
O358 C356 1.289 . S
O359 Mg351 2.048 . S
O359 C352 1.195 . S
O360 Mg351 2.048 . S
O360 C361 1.195 . S
C361 O360 1.195 . S
C361 O362 1.313 . S
O362 C361 1.313 . S
O363 Mg351 2.141 . S
O363 C354 1.289 . S
Mg364 O371 2.141 . S
Mg364 O372 2.048 . S
Mg364 O373 2.048 . S
Mg364 O376 2.141 . S
C365 O366 1.313 . S
C365 O372 1.195 . S
O366 C365 1.313 . S
C367 O368 1.245 . S
C367 O376 1.289 . S
O368 C367 1.245 . S
C369 O370 1.245 . S
C369 O371 1.289 . S
O370 C369 1.245 . S
O371 Mg364 2.141 . S
O371 C369 1.289 . S
O372 Mg364 2.048 . S
O372 C365 1.195 . S
O373 Mg364 2.048 . S
O373 C374 1.195 . S
C374 O373 1.195 . S
C374 O375 1.313 . S
O375 C374 1.313 . S
O376 Mg364 2.141 . S
O376 C367 1.289 . S
Mg377 O384 2.141 . S
Mg377 O385 2.048 . S
Mg377 O386 2.048 . S
Mg377 O389 2.141 . S
C378 O379 1.313 . S
C378 O385 1.195 . S
O379 C378 1.313 . S
C380 O381 1.245 . S
C380 O389 1.289 . S
O381 C380 1.245 . S
C382 O383 1.245 . S
C382 O384 1.289 . S
O383 C382 1.245 . S
O384 Mg377 2.141 . S
O384 C382 1.289 . S
O385 Mg377 2.048 . S
O385 C378 1.195 . S
O386 Mg377 2.048 . S
O386 C387 1.195 . S
C387 O386 1.195 . S
C387 O388 1.313 . S
O388 C387 1.313 . S
O389 Mg377 2.141 . S
O389 C380 1.289 . S
Mg390 O397 2.141 . S
Mg390 O398 2.048 . S
Mg390 O399 2.048 . S
Mg390 O402 2.141 . S
C391 O392 1.313 . S
C391 O398 1.195 . S
O392 C391 1.313 . S
C393 O394 1.245 . S
C393 O402 1.289 . S
O394 C393 1.245 . S
C395 O396 1.245 . S
C395 O397 1.289 . S
O396 C395 1.245 . S
O397 Mg390 2.141 . S
O397 C395 1.289 . S
O398 Mg390 2.048 . S
O398 C391 1.195 . S
O399 Mg390 2.048 . S
O399 C400 1.195 . S
C400 O399 1.195 . S
C400 O401 1.313 . S
O401 C400 1.313 . S
O402 Mg390 2.141 . S
O402 C393 1.289 . S
Mg403 O410 2.141 . S
Mg403 O411 2.048 . S
Mg403 O412 2.048 . S
Mg403 O415 2.141 . S
C404 O405 1.313 . S
C404 O411 1.195 . S
O405 C404 1.313 . S
C406 O407 1.245 . S
C406 O415 1.289 . S
O407 C406 1.245 . S
C408 O409 1.245 . S
C408 O410 1.289 . S
O409 C408 1.245 . S
O410 Mg403 2.141 . S
O410 C408 1.289 . S
O411 Mg403 2.048 . S
O411 C404 1.195 . S
O412 Mg403 2.048 . S
O412 C413 1.195 . S
C413 O412 1.195 . S
C413 O414 1.313 . S
O414 C413 1.313 . S
O415 Mg403 2.141 . S
O415 C406 1.289 . S
Mg416 O423 2.141 . S
Mg416 O424 2.048 . S
Mg416 O425 2.048 . S
Mg416 O428 2.141 . S
C417 O418 1.313 . S
C417 O424 1.195 . S
O418 C417 1.313 . S
C419 O420 1.245 . S
C419 O428 1.289 . S
O420 C419 1.245 . S
C421 O422 1.245 . S
C421 O423 1.289 . S
O422 C421 1.245 . S
O423 Mg416 2.141 . S
O423 C421 1.289 . S
O424 Mg416 2.048 . S
O424 C417 1.195 . S
O425 Mg416 2.048 . S
O425 C426 1.195 . S
C426 O425 1.195 . S
C426 O427 1.313 . S
O427 C426 1.313 . S
O428 Mg416 2.141 . S
O428 C419 1.289 . S
Mg429 O436 2.141 . S
Mg429 O437 2.048 . S
Mg429 O438 2.048 . S
Mg429 O441 2.141 . S
C430 O431 1.313 . S
C430 O437 1.195 . S
O431 C430 1.313 . S
C432 O433 1.245 . S
C432 O441 1.289 . S
O433 C432 1.245 . S
C434 O435 1.245 . S
C434 O436 1.289 . S
O435 C434 1.245 . S
O436 Mg429 2.141 . S
O436 C434 1.289 . S
O437 Mg429 2.048 . S
O437 C430 1.195 . S
O438 Mg429 2.048 . S
O438 C439 1.195 . S
C439 O438 1.195 . S
C439 O440 1.313 . S
O440 C439 1.313 . S
O441 Mg429 2.141 . S
O441 C432 1.289 . S
Mg442 O449 2.141 . S
Mg442 O450 2.048 . S
Mg442 O451 2.048 . S
Mg442 O454 2.141 . S
C443 O444 1.313 . S
C443 O450 1.195 . S
O444 C443 1.313 . S
C445 O446 1.245 . S
C445 O454 1.289 . S
O446 C445 1.245 . S
C447 O448 1.245 . S
C447 O449 1.289 . S
O448 C447 1.245 . S
O449 Mg442 2.141 . S
O449 C447 1.289 . S
O450 Mg442 2.048 . S
O450 C443 1.195 . S
O451 Mg442 2.048 . S
O451 C452 1.195 . S
C452 O451 1.195 . S
C452 O453 1.313 . S
O453 C452 1.313 . S
O454 Mg442 2.141 . S
O454 C445 1.289 . S
Mg455 O462 2.141 . S
Mg455 O463 2.048 . S
Mg455 O464 2.048 . S
Mg455 O467 2.141 . S
C456 O457 1.313 . S
C456 O463 1.195 . S
O457 C456 1.313 . S
C458 O459 1.245 . S
C458 O467 1.289 . S
O459 C458 1.245 . S
C460 O461 1.245 . S
C460 O462 1.289 . S
O461 C460 1.245 . S
O462 Mg455 2.141 . S
O462 C460 1.289 . S
O463 Mg455 2.048 . S
O463 C456 1.195 . S
O464 Mg455 2.048 . S
O464 C465 1.195 . S
C465 O464 1.195 . S
C465 O466 1.313 . S
O466 C465 1.313 . S
O467 Mg455 2.141 . S
O467 C458 1.289 . S
Mg468 O475 2.141 . S
Mg468 O476 2.048 . S
Mg468 O477 2.048 . S
Mg468 O480 2.141 . S
C469 O470 1.313 . S
C469 O476 1.195 . S
O470 C469 1.313 . S
C471 O472 1.245 . S
C471 O480 1.289 . S
O472 C471 1.245 . S
C473 O474 1.245 . S
C473 O475 1.289 . S
O474 C473 1.245 . S
O475 Mg468 2.141 . S
O475 C473 1.289 . S
O476 Mg468 2.048 . S
O476 C469 1.195 . S
O477 Mg468 2.048 . S
O477 C478 1.195 . S
C478 O477 1.195 . S
C478 O479 1.313 . S
O479 C478 1.313 . S
O480 Mg468 2.141 . S
O480 C471 1.289 . S
Mg481 O488 2.141 . S
Mg481 O489 2.048 . S
Mg481 O490 2.048 . S
Mg481 O493 2.141 . S
C482 O483 1.313 . S
C482 O489 1.195 . S
O483 C482 1.313 . S
C484 O485 1.245 . S
C484 O493 1.289 . S
O485 C484 1.245 . S
C486 O487 1.245 . S
C486 O488 1.289 . S
O487 C486 1.245 . S
O488 Mg481 2.141 . S
O488 C486 1.289 . S
O489 Mg481 2.048 . S
O489 C482 1.195 . S
O490 Mg481 2.048 . S
O490 C491 1.195 . S
C491 O490 1.195 . S
C491 O492 1.313 . S
O492 C491 1.313 . S
O493 Mg481 2.141 . S
O493 C484 1.289 . S
Mg494 O501 2.141 . S
Mg494 O502 2.048 . S
Mg494 O503 2.048 . S
Mg494 O506 2.141 . S
C495 O496 1.313 . S
C495 O502 1.195 . S
O496 C495 1.313 . S
C497 O498 1.245 . S
C497 O506 1.289 . S
O498 C497 1.245 . S
C499 O500 1.245 . S
C499 O501 1.289 . S
O500 C499 1.245 . S
O501 Mg494 2.141 . S
O501 C499 1.289 . S
O502 Mg494 2.048 . S
O502 C495 1.195 . S
O503 Mg494 2.048 . S
O503 C504 1.195 . S
C504 O503 1.195 . S
C504 O505 1.313 . S
O505 C504 1.313 . S
O506 Mg494 2.141 . S
O506 C497 1.289 . S
Mg507 O514 2.141 . S
Mg507 O515 2.048 . S
Mg507 O516 2.048 . S
Mg507 O519 2.141 . S
C508 O509 1.313 . S
C508 O515 1.195 . S
O509 C508 1.313 . S
C510 O511 1.245 . S
C510 O519 1.289 . S
O511 C510 1.245 . S
C512 O513 1.245 . S
C512 O514 1.289 . S
O513 C512 1.245 . S
O514 Mg507 2.141 . S
O514 C512 1.289 . S
O515 Mg507 2.048 . S
O515 C508 1.195 . S
O516 Mg507 2.048 . S
O516 C517 1.195 . S
C517 O516 1.195 . S
C517 O518 1.313 . S
O518 C517 1.313 . S
O519 Mg507 2.141 . S
O519 C510 1.289 . S
Mg520 O527 2.141 . S
Mg520 O528 2.048 . S
Mg520 O529 2.048 . S
Mg520 O532 2.141 . S
C521 O522 1.313 . S
C521 O528 1.195 . S
O522 C521 1.313 . S
C523 O524 1.245 . S
C523 O532 1.289 . S
O524 C523 1.245 . S
C525 O526 1.245 . S
C525 O527 1.289 . S
O526 C525 1.245 . S
O527 Mg520 2.141 . S
O527 C525 1.289 . S
O528 Mg520 2.048 . S
O528 C521 1.195 . S
O529 Mg520 2.048 . S
O529 C530 1.195 . S
C530 O529 1.195 . S
C530 O531 1.313 . S
O531 C530 1.313 . S
O532 Mg520 2.141 . S
O532 C523 1.289 . S
Mg533 O540 2.141 . S
Mg533 O541 2.048 . S
Mg533 O542 2.048 . S
Mg533 O545 2.141 . S
C534 O535 1.313 . S
C534 O541 1.195 . S
O535 C534 1.313 . S
C536 O537 1.245 . S
C536 O545 1.289 . S
O537 C536 1.245 . S
C538 O539 1.245 . S
C538 O540 1.289 . S
O539 C538 1.245 . S
O540 Mg533 2.141 . S
O540 C538 1.289 . S
O541 Mg533 2.048 . S
O541 C534 1.195 . S
O542 Mg533 2.048 . S
O542 C543 1.195 . S
C543 O542 1.195 . S
C543 O544 1.313 . S
O544 C543 1.313 . S
O545 Mg533 2.141 . S
O545 C536 1.289 . S
Mg546 O553 2.141 . S
Mg546 O554 2.048 . S
Mg546 O555 2.048 . S
Mg546 O558 2.141 . S
C547 O548 1.313 . S
C547 O554 1.195 . S
O548 C547 1.313 . S
C549 O550 1.245 . S
C549 O558 1.289 . S
O550 C549 1.245 . S
C551 O552 1.245 . S
C551 O553 1.289 . S
O552 C551 1.245 . S
O553 Mg546 2.141 . S
O553 C551 1.289 . S
O554 Mg546 2.048 . S
O554 C547 1.195 . S
O555 Mg546 2.048 . S
O555 C556 1.195 . S
C556 O555 1.195 . S
C556 O557 1.313 . S
O557 C556 1.313 . S
O558 Mg546 2.141 . S
O558 C549 1.289 . S
Mg559 O566 2.141 . S
Mg559 O567 2.048 . S
Mg559 O568 2.048 . S
Mg559 O571 2.141 . S
C560 O561 1.313 . S
C560 O567 1.195 . S
O561 C560 1.313 . S
C562 O563 1.245 . S
C562 O571 1.289 . S
O563 C562 1.245 . S
C564 O565 1.245 . S
C564 O566 1.289 . S
O565 C564 1.245 . S
O566 Mg559 2.141 . S
O566 C564 1.289 . S
O567 Mg559 2.048 . S
O567 C560 1.195 . S
O568 Mg559 2.048 . S
O568 C569 1.195 . S
C569 O568 1.195 . S
C569 O570 1.313 . S
O570 C569 1.313 . S
O571 Mg559 2.141 . S
O571 C562 1.289 . S
Mg572 O579 2.141 . S
Mg572 O580 2.048 . S
Mg572 O581 2.048 . S
Mg572 O584 2.141 . S
C573 O574 1.313 . S
C573 O580 1.195 . S
O574 C573 1.313 . S
C575 O576 1.245 . S
C575 O584 1.289 . S
O576 C575 1.245 . S
C577 O578 1.245 . S
C577 O579 1.289 . S
O578 C577 1.245 . S
O579 Mg572 2.141 . S
O579 C577 1.289 . S
O580 Mg572 2.048 . S
O580 C573 1.195 . S
O581 Mg572 2.048 . S
O581 C582 1.195 . S
C582 O581 1.195 . S
C582 O583 1.313 . S
O583 C582 1.313 . S
O584 Mg572 2.141 . S
O584 C575 1.289 . S
Mg585 O592 2.141 . S
Mg585 O593 2.048 . S
Mg585 O594 2.048 . S
Mg585 O597 2.141 . S
C586 O587 1.313 . S
C586 O593 1.195 . S
O587 C586 1.313 . S
C588 O589 1.245 . S
C588 O597 1.289 . S
O589 C588 1.245 . S
C590 O591 1.245 . S
C590 O592 1.289 . S
O591 C590 1.245 . S
O592 Mg585 2.141 . S
O592 C590 1.289 . S
O593 Mg585 2.048 . S
O593 C586 1.195 . S
O594 Mg585 2.048 . S
O594 C595 1.195 . S
C595 O594 1.195 . S
C595 O596 1.313 . S
O596 C595 1.313 . S
O597 Mg585 2.141 . S
O597 C588 1.289 . S
Mg598 O605 2.141 . S
Mg598 O606 2.048 . S
Mg598 O607 2.048 . S
Mg598 O610 2.141 . S
C599 O600 1.313 . S
C599 O606 1.195 . S
O600 C599 1.313 . S
C601 O602 1.245 . S
C601 O610 1.289 . S
O602 C601 1.245 . S
C603 O604 1.245 . S
C603 O605 1.289 . S
O604 C603 1.245 . S
O605 Mg598 2.141 . S
O605 C603 1.289 . S
O606 Mg598 2.048 . S
O606 C599 1.195 . S
O607 Mg598 2.048 . S
O607 C608 1.195 . S
C608 O607 1.195 . S
C608 O609 1.313 . S
O609 C608 1.313 . S
O610 Mg598 2.141 . S
O610 C601 1.289 . S
Mg611 O618 2.141 . S
Mg611 O619 2.048 . S
Mg611 O620 2.048 . S
Mg611 O623 2.141 . S
C612 O613 1.313 . S
C612 O619 1.195 . S
O613 C612 1.313 . S
C614 O615 1.245 . S
C614 O623 1.289 . S
O615 C614 1.245 . S
C616 O617 1.245 . S
C616 O618 1.289 . S
O617 C616 1.245 . S
O618 Mg611 2.141 . S
O618 C616 1.289 . S
O619 Mg611 2.048 . S
O619 C612 1.195 . S
O620 Mg611 2.048 . S
O620 C621 1.195 . S
C621 O620 1.195 . S
C621 O622 1.313 . S
O622 C621 1.313 . S
O623 Mg611 2.141 . S
O623 C614 1.289 . S
Mg624 O631 2.141 . S
Mg624 O632 2.048 . S
Mg624 O633 2.048 . S
Mg624 O636 2.141 . S
C625 O626 1.313 . S
C625 O632 1.195 . S
O626 C625 1.313 . S
C627 O628 1.245 . S
C627 O636 1.289 . S
O628 C627 1.245 . S
C629 O630 1.245 . S
C629 O631 1.289 . S
O630 C629 1.245 . S
O631 Mg624 2.141 . S
O631 C629 1.289 . S
O632 Mg624 2.048 . S
O632 C625 1.195 . S
O633 Mg624 2.048 . S
O633 C634 1.195 . S
C634 O633 1.195 . S
C634 O635 1.313 . S
O635 C634 1.313 . S
O636 Mg624 2.141 . S
O636 C627 1.289 . S
Mg637 O644 2.141 . S
Mg637 O645 2.048 . S
Mg637 O646 2.048 . S
Mg637 O649 2.141 . S
C638 O639 1.313 . S
C638 O645 1.195 . S
O639 C638 1.313 . S
C640 O641 1.245 . S
C640 O649 1.289 . S
O641 C640 1.245 . S
C642 O643 1.245 . S
C642 O644 1.289 . S
O643 C642 1.245 . S
O644 Mg637 2.141 . S
O644 C642 1.289 . S
O645 Mg637 2.048 . S
O645 C638 1.195 . S
O646 Mg637 2.048 . S
O646 C647 1.195 . S
C647 O646 1.195 . S
C647 O648 1.313 . S
O648 C647 1.313 . S
O649 Mg637 2.141 . S
O649 C640 1.289 . S
Mg650 O657 2.141 . S
Mg650 O658 2.048 . S
Mg650 O659 2.048 . S
Mg650 O662 2.141 . S
C651 O652 1.313 . S
C651 O658 1.195 . S
O652 C651 1.313 . S
C653 O654 1.245 . S
C653 O662 1.289 . S
O654 C653 1.245 . S
C655 O656 1.245 . S
C655 O657 1.289 . S
O656 C655 1.245 . S
O657 Mg650 2.141 . S
O657 C655 1.289 . S
O658 Mg650 2.048 . S
O658 C651 1.195 . S
O659 Mg650 2.048 . S
O659 C660 1.195 . S
C660 O659 1.195 . S
C660 O661 1.313 . S
O661 C660 1.313 . S
O662 Mg650 2.141 . S
O662 C653 1.289 . S
Mg663 O670 2.141 . S
Mg663 O671 2.048 . S
Mg663 O672 2.048 . S
Mg663 O675 2.141 . S
C664 O665 1.313 . S
C664 O671 1.195 . S
O665 C664 1.313 . S
C666 O667 1.245 . S
C666 O675 1.289 . S
O667 C666 1.245 . S
C668 O669 1.245 . S
C668 O670 1.289 . S
O669 C668 1.245 . S
O670 Mg663 2.141 . S
O670 C668 1.289 . S
O671 Mg663 2.048 . S
O671 C664 1.195 . S
O672 Mg663 2.048 . S
O672 C673 1.195 . S
C673 O672 1.195 . S
C673 O674 1.313 . S
O674 C673 1.313 . S
O675 Mg663 2.141 . S
O675 C666 1.289 . S
Mg676 O683 2.141 . S
Mg676 O684 2.048 . S
Mg676 O685 2.048 . S
Mg676 O688 2.141 . S
C677 O678 1.313 . S
C677 O684 1.195 . S
O678 C677 1.313 . S
C679 O680 1.245 . S
C679 O688 1.289 . S
O680 C679 1.245 . S
C681 O682 1.245 . S
C681 O683 1.289 . S
O682 C681 1.245 . S
O683 Mg676 2.141 . S
O683 C681 1.289 . S
O684 Mg676 2.048 . S
O684 C677 1.195 . S
O685 Mg676 2.048 . S
O685 C686 1.195 . S
C686 O685 1.195 . S
C686 O687 1.313 . S
O687 C686 1.313 . S
O688 Mg676 2.141 . S
O688 C679 1.289 . S
Mg689 O696 2.141 . S
Mg689 O697 2.048 . S
Mg689 O698 2.048 . S
Mg689 O701 2.141 . S
C690 O691 1.313 . S
C690 O697 1.195 . S
O691 C690 1.313 . S
C692 O693 1.245 . S
C692 O701 1.289 . S
O693 C692 1.245 . S
C694 O695 1.245 . S
C694 O696 1.289 . S
O695 C694 1.245 . S
O696 Mg689 2.141 . S
O696 C694 1.289 . S
O697 Mg689 2.048 . S
O697 C690 1.195 . S
O698 Mg689 2.048 . S
O698 C699 1.195 . S
C699 O698 1.195 . S
C699 O700 1.313 . S
O700 C699 1.313 . S
O701 Mg689 2.141 . S
O701 C692 1.289 . S
Mg702 O709 2.141 . S
Mg702 O710 2.048 . S
Mg702 O711 2.048 . S
Mg702 O714 2.141 . S
C703 O704 1.313 . S
C703 O710 1.195 . S
O704 C703 1.313 . S
C705 O706 1.245 . S
C705 O714 1.289 . S
O706 C705 1.245 . S
C707 O708 1.245 . S
C707 O709 1.289 . S
O708 C707 1.245 . S
O709 Mg702 2.141 . S
O709 C707 1.289 . S
O710 Mg702 2.048 . S
O710 C703 1.195 . S
O711 Mg702 2.048 . S
O711 C712 1.195 . S
C712 O711 1.195 . S
C712 O713 1.313 . S
O713 C712 1.313 . S
O714 Mg702 2.141 . S
O714 C705 1.289 . S
Mg715 O722 2.141 . S
Mg715 O723 2.048 . S
Mg715 O724 2.048 . S
Mg715 O727 2.141 . S
C716 O717 1.313 . S
C716 O723 1.195 . S
O717 C716 1.313 . S
C718 O719 1.245 . S
C718 O727 1.289 . S
O719 C718 1.245 . S
C720 O721 1.245 . S
C720 O722 1.289 . S
O721 C720 1.245 . S
O722 Mg715 2.141 . S
O722 C720 1.289 . S
O723 Mg715 2.048 . S
O723 C716 1.195 . S
O724 Mg715 2.048 . S
O724 C725 1.195 . S
C725 O724 1.195 . S
C725 O726 1.313 . S
O726 C725 1.313 . S
O727 Mg715 2.141 . S
O727 C718 1.289 . S
Mg728 O735 2.141 . S
Mg728 O736 2.048 . S
Mg728 O737 2.048 . S
Mg728 O740 2.141 . S
C729 O730 1.313 . S
C729 O736 1.195 . S
O730 C729 1.313 . S
C731 O732 1.245 . S
C731 O740 1.289 . S
O732 C731 1.245 . S
C733 O734 1.245 . S
C733 O735 1.289 . S
O734 C733 1.245 . S
O735 Mg728 2.141 . S
O735 C733 1.289 . S
O736 Mg728 2.048 . S
O736 C729 1.195 . S
O737 Mg728 2.048 . S
O737 C738 1.195 . S
C738 O737 1.195 . S
C738 O739 1.313 . S
O739 C738 1.313 . S
O740 Mg728 2.141 . S
O740 C731 1.289 . S
Mg741 O748 2.141 . S
Mg741 O749 2.048 . S
Mg741 O750 2.048 . S
Mg741 O753 2.141 . S
C742 O743 1.313 . S
C742 O749 1.195 . S
O743 C742 1.313 . S
C744 O745 1.245 . S
C744 O753 1.289 . S
O745 C744 1.245 . S
C746 O747 1.245 . S
C746 O748 1.289 . S
O747 C746 1.245 . S
O748 Mg741 2.141 . S
O748 C746 1.289 . S
O749 Mg741 2.048 . S
O749 C742 1.195 . S
O750 Mg741 2.048 . S
O750 C751 1.195 . S
C751 O750 1.195 . S
C751 O752 1.313 . S
O752 C751 1.313 . S
O753 Mg741 2.141 . S
O753 C744 1.289 . S
Mg754 O761 2.141 . S
Mg754 O762 2.048 . S
Mg754 O763 2.048 . S
Mg754 O766 2.141 . S
C755 O756 1.313 . S
C755 O762 1.195 . S
O756 C755 1.313 . S
C757 O758 1.245 . S
C757 O766 1.289 . S
O758 C757 1.245 . S
C759 O760 1.245 . S
C759 O761 1.289 . S
O760 C759 1.245 . S
O761 Mg754 2.141 . S
O761 C759 1.289 . S
O762 Mg754 2.048 . S
O762 C755 1.195 . S
O763 Mg754 2.048 . S
O763 C764 1.195 . S
C764 O763 1.195 . S
C764 O765 1.313 . S
O765 C764 1.313 . S
O766 Mg754 2.141 . S
O766 C757 1.289 . S
Mg767 O774 2.141 . S
Mg767 O775 2.048 . S
Mg767 O776 2.048 . S
Mg767 O779 2.141 . S
C768 O769 1.313 . S
C768 O775 1.195 . S
O769 C768 1.313 . S
C770 O771 1.245 . S
C770 O779 1.289 . S
O771 C770 1.245 . S
C772 O773 1.245 . S
C772 O774 1.289 . S
O773 C772 1.245 . S
O774 Mg767 2.141 . S
O774 C772 1.289 . S
O775 Mg767 2.048 . S
O775 C768 1.195 . S
O776 Mg767 2.048 . S
O776 C777 1.195 . S
C777 O776 1.195 . S
C777 O778 1.313 . S
O778 C777 1.313 . S
O779 Mg767 2.141 . S
O779 C770 1.289 . S
Mg780 O787 2.141 . S
Mg780 O788 2.048 . S
Mg780 O789 2.048 . S
Mg780 O792 2.141 . S
C781 O782 1.313 . S
C781 O788 1.195 . S
O782 C781 1.313 . S
C783 O784 1.245 . S
C783 O792 1.289 . S
O784 C783 1.245 . S
C785 O786 1.245 . S
C785 O787 1.289 . S
O786 C785 1.245 . S
O787 Mg780 2.141 . S
O787 C785 1.289 . S
O788 Mg780 2.048 . S
O788 C781 1.195 . S
O789 Mg780 2.048 . S
O789 C790 1.195 . S
C790 O789 1.195 . S
C790 O791 1.313 . S
O791 C790 1.313 . S
O792 Mg780 2.141 . S
O792 C783 1.289 . S
Mg793 O800 2.141 . S
Mg793 O801 2.048 . S
Mg793 O802 2.048 . S
Mg793 O805 2.141 . S
C794 O795 1.313 . S
C794 O801 1.195 . S
O795 C794 1.313 . S
C796 O797 1.245 . S
C796 O805 1.289 . S
O797 C796 1.245 . S
C798 O799 1.245 . S
C798 O800 1.289 . S
O799 C798 1.245 . S
O800 Mg793 2.141 . S
O800 C798 1.289 . S
O801 Mg793 2.048 . S
O801 C794 1.195 . S
O802 Mg793 2.048 . S
O802 C803 1.195 . S
C803 O802 1.195 . S
C803 O804 1.313 . S
O804 C803 1.313 . S
O805 Mg793 2.141 . S
O805 C796 1.289 . S
Mg806 O813 2.141 . S
Mg806 O814 2.048 . S
Mg806 O815 2.048 . S
Mg806 O818 2.141 . S
C807 O808 1.313 . S
C807 O814 1.195 . S
O808 C807 1.313 . S
C809 O810 1.245 . S
C809 O818 1.289 . S
O810 C809 1.245 . S
C811 O812 1.245 . S
C811 O813 1.289 . S
O812 C811 1.245 . S
O813 Mg806 2.141 . S
O813 C811 1.289 . S
O814 Mg806 2.048 . S
O814 C807 1.195 . S
O815 Mg806 2.048 . S
O815 C816 1.195 . S
C816 O815 1.195 . S
C816 O817 1.313 . S
O817 C816 1.313 . S
O818 Mg806 2.141 . S
O818 C809 1.289 . S
Mg819 O826 2.141 . S
Mg819 O827 2.048 . S
Mg819 O828 2.048 . S
Mg819 O831 2.141 . S
C820 O821 1.313 . S
C820 O827 1.195 . S
O821 C820 1.313 . S
C822 O823 1.245 . S
C822 O831 1.289 . S
O823 C822 1.245 . S
C824 O825 1.245 . S
C824 O826 1.289 . S
O825 C824 1.245 . S
O826 Mg819 2.141 . S
O826 C824 1.289 . S
O827 Mg819 2.048 . S
O827 C820 1.195 . S
O828 Mg819 2.048 . S
O828 C829 1.195 . S
C829 O828 1.195 . S
C829 O830 1.313 . S
O830 C829 1.313 . S
O831 Mg819 2.141 . S
O831 C822 1.289 . S
Mg832 O839 2.141 . S
Mg832 O840 2.048 . S
Mg832 O841 2.048 . S
Mg832 O844 2.141 . S
C833 O834 1.313 . S
C833 O840 1.195 . S
O834 C833 1.313 . S
C835 O836 1.245 . S
C835 O844 1.289 . S
O836 C835 1.245 . S
C837 O838 1.245 . S
C837 O839 1.289 . S
O838 C837 1.245 . S
O839 Mg832 2.141 . S
O839 C837 1.289 . S
O840 Mg832 2.048 . S
O840 C833 1.195 . S
O841 Mg832 2.048 . S
O841 C842 1.195 . S
C842 O841 1.195 . S
C842 O843 1.313 . S
O843 C842 1.313 . S
O844 Mg832 2.141 . S
O844 C835 1.289 . S
Mg845 O852 2.141 . S
Mg845 O853 2.048 . S
Mg845 O854 2.048 . S
Mg845 O857 2.141 . S
C846 O847 1.313 . S
C846 O853 1.195 . S
O847 C846 1.313 . S
C848 O849 1.245 . S
C848 O857 1.289 . S
O849 C848 1.245 . S
C850 O851 1.245 . S
C850 O852 1.289 . S
O851 C850 1.245 . S
O852 Mg845 2.141 . S
O852 C850 1.289 . S
O853 Mg845 2.048 . S
O853 C846 1.195 . S
O854 Mg845 2.048 . S
O854 C855 1.195 . S
C855 O854 1.195 . S
C855 O856 1.313 . S
O856 C855 1.313 . S
O857 Mg845 2.141 . S
O857 C848 1.289 . S
Mg858 O865 2.141 . S
Mg858 O866 2.048 . S
Mg858 O867 2.048 . S
Mg858 O870 2.141 . S
C859 O860 1.313 . S
C859 O866 1.195 . S
O860 C859 1.313 . S
C861 O862 1.245 . S
C861 O870 1.289 . S
O862 C861 1.245 . S
C863 O864 1.245 . S
C863 O865 1.289 . S
O864 C863 1.245 . S
O865 Mg858 2.141 . S
O865 C863 1.289 . S
O866 Mg858 2.048 . S
O866 C859 1.195 . S
O867 Mg858 2.048 . S
O867 C868 1.195 . S
C868 O867 1.195 . S
C868 O869 1.313 . S
O869 C868 1.313 . S
O870 Mg858 2.141 . S
O870 C861 1.289 . S
Mg871 O878 2.141 . S
Mg871 O879 2.048 . S
Mg871 O880 2.048 . S
Mg871 O883 2.141 . S
C872 O873 1.313 . S
C872 O879 1.195 . S
O873 C872 1.313 . S
C874 O875 1.245 . S
C874 O883 1.289 . S
O875 C874 1.245 . S
C876 O877 1.245 . S
C876 O878 1.289 . S
O877 C876 1.245 . S
O878 Mg871 2.141 . S
O878 C876 1.289 . S
O879 Mg871 2.048 . S
O879 C872 1.195 . S
O880 Mg871 2.048 . S
O880 C881 1.195 . S
C881 O880 1.195 . S
C881 O882 1.313 . S
O882 C881 1.313 . S
O883 Mg871 2.141 . S
O883 C874 1.289 . S
Mg884 O891 2.141 . S
Mg884 O892 2.048 . S
Mg884 O893 2.048 . S
Mg884 O896 2.141 . S
C885 O886 1.313 . S
C885 O892 1.195 . S
O886 C885 1.313 . S
C887 O888 1.245 . S
C887 O896 1.289 . S
O888 C887 1.245 . S
C889 O890 1.245 . S
C889 O891 1.289 . S
O890 C889 1.245 . S
O891 Mg884 2.141 . S
O891 C889 1.289 . S
O892 Mg884 2.048 . S
O892 C885 1.195 . S
O893 Mg884 2.048 . S
O893 C894 1.195 . S
C894 O893 1.195 . S
C894 O895 1.313 . S
O895 C894 1.313 . S
O896 Mg884 2.141 . S
O896 C887 1.289 . S
Mg897 O904 2.141 . S
Mg897 O905 2.048 . S
Mg897 O906 2.048 . S
Mg897 O909 2.141 . S
C898 O899 1.313 . S
C898 O905 1.195 . S
O899 C898 1.313 . S
C900 O901 1.245 . S
C900 O909 1.289 . S
O901 C900 1.245 . S
C902 O903 1.245 . S
C902 O904 1.289 . S
O903 C902 1.245 . S
O904 Mg897 2.141 . S
O904 C902 1.289 . S
O905 Mg897 2.048 . S
O905 C898 1.195 . S
O906 Mg897 2.048 . S
O906 C907 1.195 . S
C907 O906 1.195 . S
C907 O908 1.313 . S
O908 C907 1.313 . S
O909 Mg897 2.141 . S
O909 C900 1.289 . S
Mg910 O917 2.141 . S
Mg910 O918 2.048 . S
Mg910 O919 2.048 . S
Mg910 O922 2.141 . S
C911 O912 1.313 . S
C911 O918 1.195 . S
O912 C911 1.313 . S
C913 O914 1.245 . S
C913 O922 1.289 . S
O914 C913 1.245 . S
C915 O916 1.245 . S
C915 O917 1.289 . S
O916 C915 1.245 . S
O917 Mg910 2.141 . S
O917 C915 1.289 . S
O918 Mg910 2.048 . S
O918 C911 1.195 . S
O919 Mg910 2.048 . S
O919 C920 1.195 . S
C920 O919 1.195 . S
C920 O921 1.313 . S
O921 C920 1.313 . S
O922 Mg910 2.141 . S
O922 C913 1.289 . S
Mg923 O930 2.141 . S
Mg923 O931 2.048 . S
Mg923 O932 2.048 . S
Mg923 O935 2.141 . S
C924 O925 1.313 . S
C924 O931 1.195 . S
O925 C924 1.313 . S
C926 O927 1.245 . S
C926 O935 1.289 . S
O927 C926 1.245 . S
C928 O929 1.245 . S
C928 O930 1.289 . S
O929 C928 1.245 . S
O930 Mg923 2.141 . S
O930 C928 1.289 . S
O931 Mg923 2.048 . S
O931 C924 1.195 . S
O932 Mg923 2.048 . S
O932 C933 1.195 . S
C933 O932 1.195 . S
C933 O934 1.313 . S
O934 C933 1.313 . S
O935 Mg923 2.141 . S
O935 C926 1.289 . S
Mg936 O943 2.141 . S
Mg936 O944 2.048 . S
Mg936 O945 2.048 . S
Mg936 O948 2.141 . S
C937 O938 1.313 . S
C937 O944 1.195 . S
O938 C937 1.313 . S
C939 O940 1.245 . S
C939 O948 1.289 . S
O940 C939 1.245 . S
C941 O942 1.245 . S
C941 O943 1.289 . S
O942 C941 1.245 . S
O943 Mg936 2.141 . S
O943 C941 1.289 . S
O944 Mg936 2.048 . S
O944 C937 1.195 . S
O945 Mg936 2.048 . S
O945 C946 1.195 . S
C946 O945 1.195 . S
C946 O947 1.313 . S
O947 C946 1.313 . S
O948 Mg936 2.141 . S
O948 C939 1.289 . S
Mg949 O956 2.141 . S
Mg949 O957 2.048 . S
Mg949 O958 2.048 . S
Mg949 O961 2.141 . S
C950 O951 1.313 . S
C950 O957 1.195 . S
O951 C950 1.313 . S
C952 O953 1.245 . S
C952 O961 1.289 . S
O953 C952 1.245 . S
C954 O955 1.245 . S
C954 O956 1.289 . S
O955 C954 1.245 . S
O956 Mg949 2.141 . S
O956 C954 1.289 . S
O957 Mg949 2.048 . S
O957 C950 1.195 . S
O958 Mg949 2.048 . S
O958 C959 1.195 . S
C959 O958 1.195 . S
C959 O960 1.313 . S
O960 C959 1.313 . S
O961 Mg949 2.141 . S
O961 C952 1.289 . S
Mg962 O969 2.141 . S
Mg962 O970 2.048 . S
Mg962 O971 2.048 . S
Mg962 O974 2.141 . S
C963 O964 1.313 . S
C963 O970 1.195 . S
O964 C963 1.313 . S
C965 O966 1.245 . S
C965 O974 1.289 . S
O966 C965 1.245 . S
C967 O968 1.245 . S
C967 O969 1.289 . S
O968 C967 1.245 . S
O969 Mg962 2.141 . S
O969 C967 1.289 . S
O970 Mg962 2.048 . S
O970 C963 1.195 . S
O971 Mg962 2.048 . S
O971 C972 1.195 . S
C972 O971 1.195 . S
C972 O973 1.313 . S
O973 C972 1.313 . S
O974 Mg962 2.141 . S
O974 C965 1.289 . S
Mg975 O982 2.141 . S
Mg975 O983 2.048 . S
Mg975 O984 2.048 . S
Mg975 O987 2.141 . S
C976 O977 1.313 . S
C976 O983 1.195 . S
O977 C976 1.313 . S
C978 O979 1.245 . S
C978 O987 1.289 . S
O979 C978 1.245 . S
C980 O981 1.245 . S
C980 O982 1.289 . S
O981 C980 1.245 . S
O982 Mg975 2.141 . S
O982 C980 1.289 . S
O983 Mg975 2.048 . S
O983 C976 1.195 . S
O984 Mg975 2.048 . S
O984 C985 1.195 . S
C985 O984 1.195 . S
C985 O986 1.313 . S
O986 C985 1.313 . S
O987 Mg975 2.141 . S
O987 C978 1.289 . S
Mg988 O995 2.141 . S
Mg988 O996 2.048 . S
Mg988 O997 2.048 . S
Mg988 O1000 2.141 . S
C989 O990 1.313 . S
C989 O996 1.195 . S
O990 C989 1.313 . S
C991 O992 1.245 . S
C991 O1000 1.289 . S
O992 C991 1.245 . S
C993 O994 1.245 . S
C993 O995 1.289 . S
O994 C993 1.245 . S
O995 Mg988 2.141 . S
O995 C993 1.289 . S
O996 Mg988 2.048 . S
O996 C989 1.195 . S
O997 Mg988 2.048 . S
O997 C998 1.195 . S
C998 O997 1.195 . S
C998 O999 1.313 . S
O999 C998 1.313 . S
O1000 Mg988 2.141 . S
O1000 C991 1.289 . S
Mg1001 O1008 2.141 . S
Mg1001 O1009 2.048 . S
Mg1001 O1010 2.048 . S
Mg1001 O1013 2.141 . S
C1002 O1003 1.313 . S
C1002 O1009 1.195 . S
O1003 C1002 1.313 . S
C1004 O1005 1.245 . S
C1004 O1013 1.289 . S
O1005 C1004 1.245 . S
C1006 O1007 1.245 . S
C1006 O1008 1.289 . S
O1007 C1006 1.245 . S
O1008 Mg1001 2.141 . S
O1008 C1006 1.289 . S
O1009 Mg1001 2.048 . S
O1009 C1002 1.195 . S
O1010 Mg1001 2.048 . S
O1010 C1011 1.195 . S
C1011 O1010 1.195 . S
C1011 O1012 1.313 . S
O1012 C1011 1.313 . S
O1013 Mg1001 2.141 . S
O1013 C1004 1.289 . S
Mg1014 O1021 2.141 . S
Mg1014 O1022 2.048 . S
Mg1014 O1023 2.048 . S
Mg1014 O1026 2.141 . S
C1015 O1016 1.313 . S
C1015 O1022 1.195 . S
O1016 C1015 1.313 . S
C1017 O1018 1.245 . S
C1017 O1026 1.289 . S
O1018 C1017 1.245 . S
C1019 O1020 1.245 . S
C1019 O1021 1.289 . S
O1020 C1019 1.245 . S
O1021 Mg1014 2.141 . S
O1021 C1019 1.289 . S
O1022 Mg1014 2.048 . S
O1022 C1015 1.195 . S
O1023 Mg1014 2.048 . S
O1023 C1024 1.195 . S
C1024 O1023 1.195 . S
C1024 O1025 1.313 . S
O1025 C1024 1.313 . S
O1026 Mg1014 2.141 . S
O1026 C1017 1.289 . S
Mg1027 O1034 2.141 . S
Mg1027 O1035 2.048 . S
Mg1027 O1036 2.048 . S
Mg1027 O1039 2.141 . S
C1028 O1029 1.313 . S
C1028 O1035 1.195 . S
O1029 C1028 1.313 . S
C1030 O1031 1.245 . S
C1030 O1039 1.289 . S
O1031 C1030 1.245 . S
C1032 O1033 1.245 . S
C1032 O1034 1.289 . S
O1033 C1032 1.245 . S
O1034 Mg1027 2.141 . S
O1034 C1032 1.289 . S
O1035 Mg1027 2.048 . S
O1035 C1028 1.195 . S
O1036 Mg1027 2.048 . S
O1036 C1037 1.195 . S
C1037 O1036 1.195 . S
C1037 O1038 1.313 . S
O1038 C1037 1.313 . S
O1039 Mg1027 2.141 . S
O1039 C1030 1.289 . S
Mg1040 O1047 2.141 . S
Mg1040 O1048 2.048 . S
Mg1040 O1049 2.048 . S
Mg1040 O1052 2.141 . S
C1041 O1042 1.313 . S
C1041 O1048 1.195 . S
O1042 C1041 1.313 . S
C1043 O1044 1.245 . S
C1043 O1052 1.289 . S
O1044 C1043 1.245 . S
C1045 O1046 1.245 . S
C1045 O1047 1.289 . S
O1046 C1045 1.245 . S
O1047 Mg1040 2.141 . S
O1047 C1045 1.289 . S
O1048 Mg1040 2.048 . S
O1048 C1041 1.195 . S
O1049 Mg1040 2.048 . S
O1049 C1050 1.195 . S
C1050 O1049 1.195 . S
C1050 O1051 1.313 . S
O1051 C1050 1.313 . S
O1052 Mg1040 2.141 . S
O1052 C1043 1.289 . S
Mg1053 O1060 2.141 . S
Mg1053 O1061 2.048 . S
Mg1053 O1062 2.048 . S
Mg1053 O1065 2.141 . S
C1054 O1055 1.313 . S
C1054 O1061 1.195 . S
O1055 C1054 1.313 . S
C1056 O1057 1.245 . S
C1056 O1065 1.289 . S
O1057 C1056 1.245 . S
C1058 O1059 1.245 . S
C1058 O1060 1.289 . S
O1059 C1058 1.245 . S
O1060 Mg1053 2.141 . S
O1060 C1058 1.289 . S
O1061 Mg1053 2.048 . S
O1061 C1054 1.195 . S
O1062 Mg1053 2.048 . S
O1062 C1063 1.195 . S
C1063 O1062 1.195 . S
C1063 O1064 1.313 . S
O1064 C1063 1.313 . S
O1065 Mg1053 2.141 . S
O1065 C1056 1.289 . S
Mg1066 O1073 2.141 . S
Mg1066 O1074 2.048 . S
Mg1066 O1075 2.048 . S
Mg1066 O1078 2.141 . S
C1067 O1068 1.313 . S
C1067 O1074 1.195 . S
O1068 C1067 1.313 . S
C1069 O1070 1.245 . S
C1069 O1078 1.289 . S
O1070 C1069 1.245 . S
C1071 O1072 1.245 . S
C1071 O1073 1.289 . S
O1072 C1071 1.245 . S
O1073 Mg1066 2.141 . S
O1073 C1071 1.289 . S
O1074 Mg1066 2.048 . S
O1074 C1067 1.195 . S
O1075 Mg1066 2.048 . S
O1075 C1076 1.195 . S
C1076 O1075 1.195 . S
C1076 O1077 1.313 . S
O1077 C1076 1.313 . S
O1078 Mg1066 2.141 . S
O1078 C1069 1.289 . S
Mg1079 O1086 2.141 . S
Mg1079 O1087 2.048 . S
Mg1079 O1088 2.048 . S
Mg1079 O1091 2.141 . S
C1080 O1081 1.313 . S
C1080 O1087 1.195 . S
O1081 C1080 1.313 . S
C1082 O1083 1.245 . S
C1082 O1091 1.289 . S
O1083 C1082 1.245 . S
C1084 O1085 1.245 . S
C1084 O1086 1.289 . S
O1085 C1084 1.245 . S
O1086 Mg1079 2.141 . S
O1086 C1084 1.289 . S
O1087 Mg1079 2.048 . S
O1087 C1080 1.195 . S
O1088 Mg1079 2.048 . S
O1088 C1089 1.195 . S
C1089 O1088 1.195 . S
C1089 O1090 1.313 . S
O1090 C1089 1.313 . S
O1091 Mg1079 2.141 . S
O1091 C1082 1.289 . S
Mg1092 O1099 2.141 . S
Mg1092 O1100 2.048 . S
Mg1092 O1101 2.048 . S
Mg1092 O1104 2.141 . S
C1093 O1094 1.313 . S
C1093 O1100 1.195 . S
O1094 C1093 1.313 . S
C1095 O1096 1.245 . S
C1095 O1104 1.289 . S
O1096 C1095 1.245 . S
C1097 O1098 1.245 . S
C1097 O1099 1.289 . S
O1098 C1097 1.245 . S
O1099 Mg1092 2.141 . S
O1099 C1097 1.289 . S
O1100 Mg1092 2.048 . S
O1100 C1093 1.195 . S
O1101 Mg1092 2.048 . S
O1101 C1102 1.195 . S
C1102 O1101 1.195 . S
C1102 O1103 1.313 . S
O1103 C1102 1.313 . S
O1104 Mg1092 2.141 . S
O1104 C1095 1.289 . S
Mg1105 O1112 2.141 . S
Mg1105 O1113 2.048 . S
Mg1105 O1114 2.048 . S
Mg1105 O1117 2.141 . S
C1106 O1107 1.313 . S
C1106 O1113 1.195 . S
O1107 C1106 1.313 . S
C1108 O1109 1.245 . S
C1108 O1117 1.289 . S
O1109 C1108 1.245 . S
C1110 O1111 1.245 . S
C1110 O1112 1.289 . S
O1111 C1110 1.245 . S
O1112 Mg1105 2.141 . S
O1112 C1110 1.289 . S
O1113 Mg1105 2.048 . S
O1113 C1106 1.195 . S
O1114 Mg1105 2.048 . S
O1114 C1115 1.195 . S
C1115 O1114 1.195 . S
C1115 O1116 1.313 . S
O1116 C1115 1.313 . S
O1117 Mg1105 2.141 . S
O1117 C1108 1.289 . S
Mg1118 O1125 2.141 . S
Mg1118 O1126 2.048 . S
Mg1118 O1127 2.048 . S
Mg1118 O1130 2.141 . S
C1119 O1120 1.313 . S
C1119 O1126 1.195 . S
O1120 C1119 1.313 . S
C1121 O1122 1.245 . S
C1121 O1130 1.289 . S
O1122 C1121 1.245 . S
C1123 O1124 1.245 . S
C1123 O1125 1.289 . S
O1124 C1123 1.245 . S
O1125 Mg1118 2.141 . S
O1125 C1123 1.289 . S
O1126 Mg1118 2.048 . S
O1126 C1119 1.195 . S
O1127 Mg1118 2.048 . S
O1127 C1128 1.195 . S
C1128 O1127 1.195 . S
C1128 O1129 1.313 . S
O1129 C1128 1.313 . S
O1130 Mg1118 2.141 . S
O1130 C1121 1.289 . S
Mg1131 O1138 2.141 . S
Mg1131 O1139 2.048 . S
Mg1131 O1140 2.048 . S
Mg1131 O1143 2.141 . S
C1132 O1133 1.313 . S
C1132 O1139 1.195 . S
O1133 C1132 1.313 . S
C1134 O1135 1.245 . S
C1134 O1143 1.289 . S
O1135 C1134 1.245 . S
C1136 O1137 1.245 . S
C1136 O1138 1.289 . S
O1137 C1136 1.245 . S
O1138 Mg1131 2.141 . S
O1138 C1136 1.289 . S
O1139 Mg1131 2.048 . S
O1139 C1132 1.195 . S
O1140 Mg1131 2.048 . S
O1140 C1141 1.195 . S
C1141 O1140 1.195 . S
C1141 O1142 1.313 . S
O1142 C1141 1.313 . S
O1143 Mg1131 2.141 . S
O1143 C1134 1.289 . S
Mg1144 O1151 2.141 . S
Mg1144 O1152 2.048 . S
Mg1144 O1153 2.048 . S
Mg1144 O1156 2.141 . S
C1145 O1146 1.313 . S
C1145 O1152 1.195 . S
O1146 C1145 1.313 . S
C1147 O1148 1.245 . S
C1147 O1156 1.289 . S
O1148 C1147 1.245 . S
C1149 O1150 1.245 . S
C1149 O1151 1.289 . S
O1150 C1149 1.245 . S
O1151 Mg1144 2.141 . S
O1151 C1149 1.289 . S
O1152 Mg1144 2.048 . S
O1152 C1145 1.195 . S
O1153 Mg1144 2.048 . S
O1153 C1154 1.195 . S
C1154 O1153 1.195 . S
C1154 O1155 1.313 . S
O1155 C1154 1.313 . S
O1156 Mg1144 2.141 . S
O1156 C1147 1.289 . S
Mg1157 O1164 2.141 . S
Mg1157 O1165 2.048 . S
Mg1157 O1166 2.048 . S
Mg1157 O1169 2.141 . S
C1158 O1159 1.313 . S
C1158 O1165 1.195 . S
O1159 C1158 1.313 . S
C1160 O1161 1.245 . S
C1160 O1169 1.289 . S
O1161 C1160 1.245 . S
C1162 O1163 1.245 . S
C1162 O1164 1.289 . S
O1163 C1162 1.245 . S
O1164 Mg1157 2.141 . S
O1164 C1162 1.289 . S
O1165 Mg1157 2.048 . S
O1165 C1158 1.195 . S
O1166 Mg1157 2.048 . S
O1166 C1167 1.195 . S
C1167 O1166 1.195 . S
C1167 O1168 1.313 . S
O1168 C1167 1.313 . S
O1169 Mg1157 2.141 . S
O1169 C1160 1.289 . S
Mg1170 O1177 2.141 . S
Mg1170 O1178 2.048 . S
Mg1170 O1179 2.048 . S
Mg1170 O1182 2.141 . S
C1171 O1172 1.313 . S
C1171 O1178 1.195 . S
O1172 C1171 1.313 . S
C1173 O1174 1.245 . S
C1173 O1182 1.289 . S
O1174 C1173 1.245 . S
C1175 O1176 1.245 . S
C1175 O1177 1.289 . S
O1176 C1175 1.245 . S
O1177 Mg1170 2.141 . S
O1177 C1175 1.289 . S
O1178 Mg1170 2.048 . S
O1178 C1171 1.195 . S
O1179 Mg1170 2.048 . S
O1179 C1180 1.195 . S
C1180 O1179 1.195 . S
C1180 O1181 1.313 . S
O1181 C1180 1.313 . S
O1182 Mg1170 2.141 . S
O1182 C1173 1.289 . S
Mg1183 O1190 2.141 . S
Mg1183 O1191 2.048 . S
Mg1183 O1192 2.048 . S
Mg1183 O1195 2.141 . S
C1184 O1185 1.313 . S
C1184 O1191 1.195 . S
O1185 C1184 1.313 . S
C1186 O1187 1.245 . S
C1186 O1195 1.289 . S
O1187 C1186 1.245 . S
C1188 O1189 1.245 . S
C1188 O1190 1.289 . S
O1189 C1188 1.245 . S
O1190 Mg1183 2.141 . S
O1190 C1188 1.289 . S
O1191 Mg1183 2.048 . S
O1191 C1184 1.195 . S
O1192 Mg1183 2.048 . S
O1192 C1193 1.195 . S
C1193 O1192 1.195 . S
C1193 O1194 1.313 . S
O1194 C1193 1.313 . S
O1195 Mg1183 2.141 . S
O1195 C1186 1.289 . S
Mg1196 O1203 2.141 . S
Mg1196 O1204 2.048 . S
Mg1196 O1205 2.048 . S
Mg1196 O1208 2.141 . S
C1197 O1198 1.313 . S
C1197 O1204 1.195 . S
O1198 C1197 1.313 . S
C1199 O1200 1.245 . S
C1199 O1208 1.289 . S
O1200 C1199 1.245 . S
C1201 O1202 1.245 . S
C1201 O1203 1.289 . S
O1202 C1201 1.245 . S
O1203 Mg1196 2.141 . S
O1203 C1201 1.289 . S
O1204 Mg1196 2.048 . S
O1204 C1197 1.195 . S
O1205 Mg1196 2.048 . S
O1205 C1206 1.195 . S
C1206 O1205 1.195 . S
C1206 O1207 1.313 . S
O1207 C1206 1.313 . S
O1208 Mg1196 2.141 . S
O1208 C1199 1.289 . S
Mg1209 O1216 2.141 . S
Mg1209 O1217 2.048 . S
Mg1209 O1218 2.048 . S
Mg1209 O1221 2.141 . S
C1210 O1211 1.313 . S
C1210 O1217 1.195 . S
O1211 C1210 1.313 . S
C1212 O1213 1.245 . S
C1212 O1221 1.289 . S
O1213 C1212 1.245 . S
C1214 O1215 1.245 . S
C1214 O1216 1.289 . S
O1215 C1214 1.245 . S
O1216 Mg1209 2.141 . S
O1216 C1214 1.289 . S
O1217 Mg1209 2.048 . S
O1217 C1210 1.195 . S
O1218 Mg1209 2.048 . S
O1218 C1219 1.195 . S
C1219 O1218 1.195 . S
C1219 O1220 1.313 . S
O1220 C1219 1.313 . S
O1221 Mg1209 2.141 . S
O1221 C1212 1.289 . S
Mg1222 O1229 2.141 . S
Mg1222 O1230 2.048 . S
Mg1222 O1231 2.048 . S
Mg1222 O1234 2.141 . S
C1223 O1224 1.313 . S
C1223 O1230 1.195 . S
O1224 C1223 1.313 . S
C1225 O1226 1.245 . S
C1225 O1234 1.289 . S
O1226 C1225 1.245 . S
C1227 O1228 1.245 . S
C1227 O1229 1.289 . S
O1228 C1227 1.245 . S
O1229 Mg1222 2.141 . S
O1229 C1227 1.289 . S
O1230 Mg1222 2.048 . S
O1230 C1223 1.195 . S
O1231 Mg1222 2.048 . S
O1231 C1232 1.195 . S
C1232 O1231 1.195 . S
C1232 O1233 1.313 . S
O1233 C1232 1.313 . S
O1234 Mg1222 2.141 . S
O1234 C1225 1.289 . S
Mg1235 O1242 2.141 . S
Mg1235 O1243 2.048 . S
Mg1235 O1244 2.048 . S
Mg1235 O1247 2.141 . S
C1236 O1237 1.313 . S
C1236 O1243 1.195 . S
O1237 C1236 1.313 . S
C1238 O1239 1.245 . S
C1238 O1247 1.289 . S
O1239 C1238 1.245 . S
C1240 O1241 1.245 . S
C1240 O1242 1.289 . S
O1241 C1240 1.245 . S
O1242 Mg1235 2.141 . S
O1242 C1240 1.289 . S
O1243 Mg1235 2.048 . S
O1243 C1236 1.195 . S
O1244 Mg1235 2.048 . S
O1244 C1245 1.195 . S
C1245 O1244 1.195 . S
C1245 O1246 1.313 . S
O1246 C1245 1.313 . S
O1247 Mg1235 2.141 . S
O1247 C1238 1.289 . S
C1248 C1249 1.369 . S
C1248 C1250 1.419 1_454 S
C1248 H1252 0.930 . S
C1249 C1248 1.369 . S
C1249 C1258 1.429 . S
C1250 C1248 1.419 1_656 S
C1250 C1251 1.363 . S
C1250 H1253 0.929 . S
C1251 C1250 1.363 . S
C1251 C1257 1.428 . S
H1252 C1248 0.930 . S
H1253 C1250 0.929 . S
S1254 N1255 1.583 1_655 S
S1254 N1256 1.610 1_554 S
N1255 S1254 1.583 1_455 S
N1255 C1258 1.352 . S
N1256 S1254 1.610 1_556 S
N1256 C1257 1.351 . S
C1257 C1251 1.428 . S
C1257 N1256 1.351 . S
C1257 C1258 1.434 1_656 S
C1258 C1249 1.429 . S
C1258 N1255 1.352 . S
C1258 C1257 1.434 1_454 S
C1259 C1260 1.369 . S
C1259 C1261 1.419 . S
C1259 H1263 0.930 . S
C1260 C1259 1.369 . S
C1260 C1269 1.429 . S
C1261 C1259 1.419 . S
C1261 C1262 1.363 . S
C1261 H1264 0.929 . S
C1262 C1261 1.363 . S
C1262 C1268 1.428 . S
H1263 C1259 0.930 . S
H1264 C1261 0.929 . S
S1265 N1266 1.613 . S
S1265 N1267 1.610 . S
N1266 S1265 1.613 . S
N1266 C1269 1.350 . S
N1267 S1265 1.610 . S
N1267 C1268 1.351 . S
C1268 C1262 1.428 . S
C1268 N1267 1.351 . S
C1268 C1269 1.434 . S
C1269 C1260 1.429 . S
C1269 N1266 1.350 . S
C1269 C1268 1.434 . S
C1270 C1271 1.369 1_455 S
C1270 C1272 1.419 . S
C1270 H1274 0.930 . S
C1271 C1270 1.369 1_655 S
C1271 C1280 1.429 . S
C1272 C1270 1.419 . S
C1272 C1273 1.363 . S
C1272 H1275 0.929 . S
C1273 C1272 1.363 . S
C1273 C1279 1.428 1_455 S
H1274 C1270 0.930 . S
H1275 C1272 0.929 . S
S1276 N1277 1.613 . S
S1276 N1278 1.610 . S
N1277 S1276 1.613 . S
N1277 C1280 1.350 . S
N1278 S1276 1.610 . S
N1278 C1279 1.351 . S
C1279 C1273 1.428 1_655 S
C1279 N1278 1.351 . S
C1279 C1280 1.434 . S
C1280 C1271 1.429 . S
C1280 N1277 1.350 . S
C1280 C1279 1.434 . S
C1281 C1282 1.369 . S
C1281 C1283 1.419 . S
C1281 H1285 0.930 . S
C1282 C1281 1.369 . S
C1282 C1291 1.429 . S
C1283 C1281 1.419 . S
C1283 C1284 1.363 . S
C1283 H1286 0.929 . S
C1284 C1283 1.363 . S
C1284 C1290 1.428 . S
H1285 C1281 0.930 . S
H1286 C1283 0.929 . S
S1287 N1288 1.613 . S
S1287 N1289 1.610 . S
N1288 S1287 1.613 . S
N1288 C1291 1.350 . S
N1289 S1287 1.610 . S
N1289 C1290 1.351 . S
C1290 C1284 1.428 . S
C1290 N1289 1.351 . S
C1290 C1291 1.434 . S
C1291 C1282 1.429 . S
C1291 N1288 1.350 . S
C1291 C1290 1.434 . S
C1292 C1293 1.369 1_455 S
C1292 C1294 1.419 . S
C1292 H1296 0.930 . S
C1293 C1292 1.369 1_655 S
C1293 C1302 1.429 1_554 S
C1294 C1292 1.419 . S
C1294 C1295 1.363 1_554 S
C1294 H1297 0.929 . S
C1295 C1294 1.363 1_556 S
C1295 C1301 1.428 1_455 S
H1296 C1292 0.930 . S
H1297 C1294 0.929 . S
S1298 N1299 1.613 . S
S1298 N1300 1.610 . S
N1299 S1298 1.613 . S
N1299 C1302 1.350 . S
N1300 S1298 1.610 . S
N1300 C1301 1.351 . S
C1301 C1295 1.428 1_655 S
C1301 N1300 1.351 . S
C1301 C1302 1.434 . S
C1302 C1293 1.429 1_556 S
C1302 N1299 1.350 . S
C1302 C1301 1.434 . S
C1303 C1304 1.369 . S
C1303 C1305 1.419 . S
C1303 H1307 0.930 . S
C1304 C1303 1.369 . S
C1304 C1313 1.429 . S
C1305 C1303 1.419 . S
C1305 C1306 1.363 . S
C1305 H1308 0.929 . S
C1306 C1305 1.363 . S
C1306 C1312 1.428 . S
H1307 C1303 0.930 . S
H1308 C1305 0.929 . S
S1309 N1310 1.613 . S
S1309 N1311 1.610 . S
N1310 S1309 1.613 . S
N1310 C1313 1.350 . S
N1311 S1309 1.610 . S
N1311 C1312 1.351 . S
C1312 C1306 1.428 . S
C1312 N1311 1.351 . S
C1312 C1313 1.434 . S
C1313 C1304 1.429 . S
C1313 N1310 1.350 . S
C1313 C1312 1.434 . S
C1314 C1315 1.369 . S
C1314 C1316 1.419 . S
C1314 H1318 0.930 . S
C1315 C1314 1.369 . S
C1315 C1324 1.429 1_455 S
C1316 C1314 1.419 . S
C1316 C1317 1.363 1_455 S
C1316 H1319 0.929 . S
C1317 C1316 1.363 1_655 S
C1317 C1323 1.428 . S
H1318 C1314 0.930 . S
H1319 C1316 0.929 . S
S1320 N1321 1.613 . S
S1320 N1322 1.610 . S
N1321 S1320 1.613 . S
N1321 C1324 1.350 . S
N1322 S1320 1.610 . S
N1322 C1323 1.351 . S
C1323 C1317 1.428 . S
C1323 N1322 1.351 . S
C1323 C1324 1.434 . S
C1324 C1315 1.429 1_655 S
C1324 N1321 1.350 . S
C1324 C1323 1.434 . S
C1325 C1326 1.369 . S
C1325 C1327 1.419 . S
C1325 H1329 0.930 . S
C1326 C1325 1.369 . S
C1326 C1335 1.429 . S
C1327 C1325 1.419 . S
C1327 C1328 1.363 . S
C1327 H1330 0.929 . S
C1328 C1327 1.363 . S
C1328 C1334 1.428 . S
H1329 C1325 0.930 . S
H1330 C1327 0.929 . S
S1331 N1332 1.613 . S
S1331 N1333 1.610 . S
N1332 S1331 1.613 . S
N1332 C1335 1.350 . S
N1333 S1331 1.610 . S
N1333 C1334 1.351 . S
C1334 C1328 1.428 . S
C1334 N1333 1.351 . S
C1334 C1335 1.434 . S
C1335 C1326 1.429 . S
C1335 N1332 1.350 . S
C1335 C1334 1.434 . S
C1336 C1337 1.370 1_545 S
C1336 C1338 1.401 1_655 S
C1336 H1340 0.928 . S
C1337 C1336 1.370 1_565 S
C1337 C1346 1.408 1_655 S
C1338 C1336 1.401 1_455 S
C1338 C1339 1.381 . S
C1338 H1341 0.929 . S
C1339 C1338 1.381 . S
C1339 C1345 1.390 1_545 S
H1340 C1336 0.928 . S
H1341 C1338 0.929 . S
S1342 N1343 1.613 . S
S1342 N1344 1.610 . S
N1343 S1342 1.613 . S
N1343 C1346 1.354 . S
N1344 S1342 1.610 . S
N1344 C1345 1.360 . S
C1345 C1339 1.390 1_565 S
C1345 N1344 1.360 . S
C1345 C1346 1.490 . S
C1346 C1337 1.408 1_455 S
C1346 N1343 1.354 . S
C1346 C1345 1.490 . S
C1347 C1348 1.369 . S
C1347 C1349 1.419 . S
C1347 H1351 0.930 . S
C1348 C1347 1.369 . S
C1348 C1357 1.429 . S
C1349 C1347 1.419 . S
C1349 C1350 1.363 . S
C1349 H1352 0.929 . S
C1350 C1349 1.363 . S
C1350 C1356 1.428 . S
H1351 C1347 0.930 . S
H1352 C1349 0.929 . S
S1353 N1354 1.613 . S
S1353 N1355 1.610 . S
N1354 S1353 1.613 . S
N1354 C1357 1.350 . S
N1355 S1353 1.610 . S
N1355 C1356 1.351 . S
C1356 C1350 1.428 . S
C1356 N1355 1.351 . S
C1356 C1357 1.434 . S
C1357 C1348 1.429 . S
C1357 N1354 1.350 . S
C1357 C1356 1.434 . S
C1358 C1359 1.369 . S
C1358 C1360 1.419 . S
C1358 H1362 0.930 . S
C1359 C1358 1.369 . S
C1359 C1368 1.429 1_655 S
C1360 C1358 1.419 . S
C1360 C1361 1.363 1_655 S
C1360 H1363 0.929 . S
C1361 C1360 1.363 1_455 S
C1361 C1367 1.428 . S
H1362 C1358 0.930 . S
H1363 C1360 0.929 . S
S1364 N1365 1.613 . S
S1364 N1366 1.610 . S
N1365 S1364 1.613 . S
N1365 C1368 1.350 . S
N1366 S1364 1.610 . S
N1366 C1367 1.351 . S
C1367 C1361 1.428 . S
C1367 N1366 1.351 . S
C1367 C1368 1.434 . S
C1368 C1359 1.429 1_455 S
C1368 N1365 1.350 . S
C1368 C1367 1.434 . S
C1369 C1370 1.369 . S
C1369 C1371 1.419 . S
C1369 H1373 0.930 . S
C1370 C1369 1.369 . S
C1370 C1379 1.429 . S
C1371 C1369 1.419 . S
C1371 C1372 1.363 . S
C1371 H1374 0.929 . S
C1372 C1371 1.363 . S
C1372 C1378 1.428 . S
H1373 C1369 0.930 . S
H1374 C1371 0.929 . S
S1375 N1376 1.613 . S
S1375 N1377 1.610 . S
N1376 S1375 1.613 . S
N1376 C1379 1.350 . S
N1377 S1375 1.610 . S
N1377 C1378 1.351 . S
C1378 C1372 1.428 . S
C1378 N1377 1.351 . S
C1378 C1379 1.434 . S
C1379 C1370 1.429 . S
C1379 N1376 1.350 . S
C1379 C1378 1.434 . S
C1380 C1381 1.369 1_545 S
C1380 C1382 1.419 . S
C1380 H1384 0.930 . S
C1381 C1380 1.369 1_565 S
C1381 C1390 1.429 1_455 S
C1382 C1380 1.419 . S
C1382 C1383 1.363 1_455 S
C1382 H1385 0.929 . S
C1383 C1382 1.363 1_655 S
C1383 C1389 1.428 1_545 S
H1384 C1380 0.930 . S
H1385 C1382 0.929 . S
S1386 N1387 1.613 . S
S1386 N1388 1.610 . S
N1387 S1386 1.613 . S
N1387 C1390 1.350 . S
N1388 S1386 1.610 . S
N1388 C1389 1.351 . S
C1389 C1383 1.428 1_565 S
C1389 N1388 1.351 . S
C1389 C1390 1.434 . S
C1390 C1381 1.429 1_655 S
C1390 N1387 1.350 . S
C1390 C1389 1.434 . S
C1391 C1392 1.369 . S
C1391 C1393 1.419 . S
C1391 H1395 0.930 . S
C1392 C1391 1.369 . S
C1392 C1401 1.429 . S
C1393 C1391 1.419 . S
C1393 C1394 1.363 . S
C1393 H1396 0.929 . S
C1394 C1393 1.363 . S
C1394 C1400 1.428 . S
H1395 C1391 0.930 . S
H1396 C1393 0.929 . S
S1397 N1398 1.613 . S
S1397 N1399 1.610 . S
N1398 S1397 1.613 . S
N1398 C1401 1.350 . S
N1399 S1397 1.610 . S
N1399 C1400 1.351 . S
C1400 C1394 1.428 . S
C1400 N1399 1.351 . S
C1400 C1401 1.434 . S
C1401 C1392 1.429 . S
C1401 N1398 1.350 . S
C1401 C1400 1.434 . S
C1402 C1403 1.369 . S
C1402 C1404 1.419 . S
C1402 H1406 0.930 . S
C1403 C1402 1.369 . S
C1403 C1412 1.429 1_455 S
C1404 C1402 1.419 . S
C1404 C1405 1.363 1_455 S
C1404 H1407 0.929 . S
C1405 C1404 1.363 1_655 S
C1405 C1411 1.428 . S
H1406 C1402 0.930 . S
H1407 C1404 0.929 . S
S1408 N1409 1.613 . S
S1408 N1410 1.610 . S
N1409 S1408 1.613 . S
N1409 C1412 1.350 . S
N1410 S1408 1.610 . S
N1410 C1411 1.351 . S
C1411 C1405 1.428 . S
C1411 N1410 1.351 . S
C1411 C1412 1.434 . S
C1412 C1403 1.429 1_655 S
C1412 N1409 1.350 . S
C1412 C1411 1.434 . S
C1413 C1414 1.369 . S
C1413 C1415 1.419 . S
C1413 H1417 0.930 . S
C1414 C1413 1.369 . S
C1414 C1423 1.429 . S
C1415 C1413 1.419 . S
C1415 C1416 1.363 . S
C1415 H1418 0.929 . S
C1416 C1415 1.363 . S
C1416 C1422 1.428 . S
H1417 C1413 0.930 . S
H1418 C1415 0.929 . S
S1419 N1420 1.613 . S
S1419 N1421 1.610 . S
N1420 S1419 1.613 . S
N1420 C1423 1.350 . S
N1421 S1419 1.610 . S
N1421 C1422 1.351 . S
C1422 C1416 1.428 . S
C1422 N1421 1.351 . S
C1422 C1423 1.434 . S
C1423 C1414 1.429 . S
C1423 N1420 1.350 . S
C1423 C1422 1.434 . S
C1424 C1425 1.369 . S
C1424 C1426 1.419 1_566 S
C1424 H1428 0.930 . S
C1425 C1424 1.369 . S
C1425 C1434 1.442 . S
C1426 C1424 1.419 1_544 S
C1426 C1427 1.363 . S
C1426 H1429 0.929 . S
C1427 C1426 1.363 . S
C1427 C1433 1.465 . S
H1428 C1424 0.930 . S
H1429 C1426 0.929 . S
S1430 N1431 1.613 . S
S1430 N1432 1.645 . S
N1431 S1430 1.613 . S
N1431 C1434 1.348 1_554 S
N1432 S1430 1.645 . S
N1432 C1433 1.347 1_565 S
C1433 C1427 1.465 . S
C1433 N1432 1.347 1_545 S
C1433 C1434 1.383 1_544 S
C1434 C1425 1.442 . S
C1434 N1431 1.348 1_556 S
C1434 C1433 1.383 1_566 S
C1435 C1436 1.369 . S
C1435 C1437 1.419 1_545 S
C1435 H1439 0.930 . S
C1436 C1435 1.369 . S
C1436 C1445 1.429 . S
C1437 C1435 1.419 1_565 S
C1437 C1438 1.363 . S
C1437 H1440 0.929 . S
C1438 C1437 1.363 . S
C1438 C1444 1.428 . S
H1439 C1435 0.930 . S
H1440 C1437 0.929 . S
S1441 N1442 1.613 . S
S1441 N1443 1.610 1_545 S
N1442 S1441 1.613 . S
N1442 C1445 1.350 . S
N1443 S1441 1.610 1_565 S
N1443 C1444 1.351 . S
C1444 C1438 1.428 . S
C1444 N1443 1.351 . S
C1444 C1445 1.434 1_565 S
C1445 C1436 1.429 . S
C1445 N1442 1.350 . S
C1445 C1444 1.434 1_545 S
C1446 C1447 1.369 . S
C1446 C1448 1.419 . S
C1446 H1450 0.930 . S
C1447 C1446 1.369 . S
C1447 C1456 1.429 . S
C1448 C1446 1.419 . S
C1448 C1449 1.363 . S
C1448 H1451 0.929 . S
C1449 C1448 1.363 . S
C1449 C1455 1.428 . S
H1450 C1446 0.930 . S
H1451 C1448 0.929 . S
S1452 N1453 1.613 . S
S1452 N1454 1.610 . S
N1453 S1452 1.613 . S
N1453 C1456 1.350 . S
N1454 S1452 1.610 . S
N1454 C1455 1.351 . S
C1455 C1449 1.428 . S
C1455 N1454 1.351 . S
C1455 C1456 1.434 . S
C1456 C1447 1.429 . S
C1456 N1453 1.350 . S
C1456 C1455 1.434 . S
C1457 C1458 1.369 . S
C1457 C1459 1.419 . S
C1457 H1461 0.930 . S
C1458 C1457 1.369 . S
C1458 C1467 1.429 1_554 S
C1459 C1457 1.419 . S
C1459 C1460 1.363 1_554 S
C1459 H1462 0.929 . S
C1460 C1459 1.363 1_556 S
C1460 C1466 1.428 . S
H1461 C1457 0.930 . S
H1462 C1459 0.929 . S
S1463 N1464 1.613 . S
S1463 N1465 1.610 . S
N1464 S1463 1.613 . S
N1464 C1467 1.350 . S
N1465 S1463 1.610 . S
N1465 C1466 1.351 . S
C1466 C1460 1.428 . S
C1466 N1465 1.351 . S
C1466 C1467 1.434 . S
C1467 C1458 1.429 1_556 S
C1467 N1464 1.350 . S
C1467 C1466 1.434 . S
C1468 C1469 1.369 . S
C1468 C1470 1.419 . S
C1468 H1472 0.930 . S
C1469 C1468 1.369 . S
C1469 C1478 1.429 . S
C1470 C1468 1.419 . S
C1470 C1471 1.363 . S
C1470 H1473 0.929 . S
C1471 C1470 1.363 . S
C1471 C1477 1.428 . S
H1472 C1468 0.930 . S
H1473 C1470 0.929 . S
S1474 N1475 1.613 . S
S1474 N1476 1.610 . S
N1475 S1474 1.613 . S
N1475 C1478 1.350 . S
N1476 S1474 1.610 . S
N1476 C1477 1.351 . S
C1477 C1471 1.428 . S
C1477 N1476 1.351 . S
C1477 C1478 1.434 . S
C1478 C1469 1.429 . S
C1478 N1475 1.350 . S
C1478 C1477 1.434 . S
C1479 C1480 1.369 . S
C1479 C1481 1.419 1_564 S
C1479 H1483 0.930 . S
C1480 C1479 1.369 . S
C1480 C1489 1.429 . S
C1481 C1479 1.419 1_546 S
C1481 C1482 1.363 . S
C1481 H1484 0.929 . S
C1482 C1481 1.363 . S
C1482 C1488 1.428 . S
H1483 C1479 0.930 . S
H1484 C1481 0.929 . S
S1485 N1486 1.613 1_556 S
S1485 N1487 1.610 1_565 S
N1486 S1485 1.613 1_554 S
N1486 C1489 1.350 . S
N1487 S1485 1.610 1_545 S
N1487 C1488 1.351 . S
C1488 C1482 1.428 . S
C1488 N1487 1.351 . S
C1488 C1489 1.434 1_546 S
C1489 C1480 1.429 . S
C1489 N1486 1.350 . S
C1489 C1488 1.434 1_564 S
C1490 C1491 1.369 . S
C1490 C1492 1.419 . S
C1490 H1494 0.930 . S
C1491 C1490 1.369 . S
C1491 C1500 1.429 . S
C1492 C1490 1.419 . S
C1492 C1493 1.363 . S
C1492 H1495 0.929 . S
C1493 C1492 1.363 . S
C1493 C1499 1.428 . S
H1494 C1490 0.930 . S
H1495 C1492 0.929 . S
S1496 N1497 1.613 . S
S1496 N1498 1.610 . S
N1497 S1496 1.613 . S
N1497 C1500 1.350 . S
N1498 S1496 1.610 . S
N1498 C1499 1.351 . S
C1499 C1493 1.428 . S
C1499 N1498 1.351 . S
C1499 C1500 1.434 . S
C1500 C1491 1.429 . S
C1500 N1497 1.350 . S
C1500 C1499 1.434 . S
C1501 C1502 1.369 . S
C1501 C1503 1.419 . S
C1501 H1505 0.930 . S
C1502 C1501 1.369 . S
C1502 C1511 1.429 . S
C1503 C1501 1.419 . S
C1503 C1504 1.363 . S
C1503 H1506 0.929 . S
C1504 C1503 1.363 . S
C1504 C1510 1.428 . S
H1505 C1501 0.930 . S
H1506 C1503 0.929 . S
S1507 N1508 1.613 1_565 S
S1507 N1509 1.610 1_565 S
N1508 S1507 1.613 1_545 S
N1508 C1511 1.350 . S
N1509 S1507 1.610 1_545 S
N1509 C1510 1.351 . S
C1510 C1504 1.428 . S
C1510 N1509 1.351 . S
C1510 C1511 1.434 . S
C1511 C1502 1.429 . S
C1511 N1508 1.350 . S
C1511 C1510 1.434 . S
C1512 C1513 1.369 . S
C1512 C1514 1.419 . S
C1512 H1516 0.930 . S
C1513 C1512 1.369 . S
C1513 C1522 1.429 . S
C1514 C1512 1.419 . S
C1514 C1515 1.363 . S
C1514 H1517 0.929 . S
C1515 C1514 1.363 . S
C1515 C1521 1.428 . S
H1516 C1512 0.930 . S
H1517 C1514 0.929 . S
S1518 N1519 1.613 . S
S1518 N1520 1.610 . S
N1519 S1518 1.613 . S
N1519 C1522 1.350 . S
N1520 S1518 1.610 . S
N1520 C1521 1.351 . S
C1521 C1515 1.428 . S
C1521 N1520 1.351 . S
C1521 C1522 1.434 . S
C1522 C1513 1.429 . S
C1522 N1519 1.350 . S
C1522 C1521 1.434 . S
C1523 C1524 1.369 . S
C1523 C1525 1.419 . S
C1523 H1527 0.930 . S
C1524 C1523 1.369 . S
C1524 C1533 1.429 . S
C1525 C1523 1.419 . S
C1525 C1526 1.363 . S
C1525 H1528 0.929 . S
C1526 C1525 1.363 . S
C1526 C1532 1.428 . S
H1527 C1523 0.930 . S
H1528 C1525 0.929 . S
S1529 N1530 1.613 . S
S1529 N1531 1.610 . S
N1530 S1529 1.613 . S
N1530 C1533 1.350 . S
N1531 S1529 1.610 . S
N1531 C1532 1.351 . S
C1532 C1526 1.428 . S
C1532 N1531 1.351 . S
C1532 C1533 1.434 . S
C1533 C1524 1.429 . S
C1533 N1530 1.350 . S
C1533 C1532 1.434 . S
C1534 C1535 1.369 . S
C1534 C1536 1.419 . S
C1534 H1538 0.930 . S
C1535 C1534 1.369 . S
C1535 C1544 1.429 . S
C1536 C1534 1.419 . S
C1536 C1537 1.363 . S
C1536 H1539 0.929 . S
C1537 C1536 1.363 . S
C1537 C1543 1.428 . S
H1538 C1534 0.930 . S
H1539 C1536 0.929 . S
S1540 N1541 1.613 . S
S1540 N1542 1.610 . S
N1541 S1540 1.613 . S
N1541 C1544 1.350 . S
N1542 S1540 1.610 . S
N1542 C1543 1.351 . S
C1543 C1537 1.428 . S
C1543 N1542 1.351 . S
C1543 C1544 1.434 . S
C1544 C1535 1.429 . S
C1544 N1541 1.350 . S
C1544 C1543 1.434 . S
C1545 C1546 1.369 . S
C1545 C1547 1.419 . S
C1545 H1549 0.930 . S
C1546 C1545 1.369 . S
C1546 C1555 1.429 . S
C1547 C1545 1.419 . S
C1547 C1548 1.363 . S
C1547 H1550 0.929 . S
C1548 C1547 1.363 . S
C1548 C1554 1.428 . S
H1549 C1545 0.930 . S
H1550 C1547 0.929 . S
S1551 N1552 1.613 . S
S1551 N1553 1.610 . S
N1552 S1551 1.613 . S
N1552 C1555 1.350 . S
N1553 S1551 1.610 . S
N1553 C1554 1.351 . S
C1554 C1548 1.428 . S
C1554 N1553 1.351 . S
C1554 C1555 1.434 . S
C1555 C1546 1.429 . S
C1555 N1552 1.350 . S
C1555 C1554 1.434 . S
C1556 C1557 1.369 . S
C1556 C1558 1.419 . S
C1556 H1560 0.930 . S
C1557 C1556 1.369 . S
C1557 C1566 1.429 . S
C1558 C1556 1.419 . S
C1558 C1559 1.363 . S
C1558 H1561 0.929 . S
C1559 C1558 1.363 . S
C1559 C1565 1.428 . S
H1560 C1556 0.930 . S
H1561 C1558 0.929 . S
S1562 N1563 1.613 . S
S1562 N1564 1.610 . S
N1563 S1562 1.613 . S
N1563 C1566 1.350 . S
N1564 S1562 1.610 . S
N1564 C1565 1.351 . S
C1565 C1559 1.428 . S
C1565 N1564 1.351 . S
C1565 C1566 1.434 . S
C1566 C1557 1.429 . S
C1566 N1563 1.350 . S
C1566 C1565 1.434 . S
C1567 C1568 1.369 . S
C1567 C1569 1.419 . S
C1567 H1571 0.930 . S
C1568 C1567 1.369 . S
C1568 C1577 1.429 . S
C1569 C1567 1.419 . S
C1569 C1570 1.363 . S
C1569 H1572 0.929 . S
C1570 C1569 1.363 . S
C1570 C1576 1.428 . S
H1571 C1567 0.930 . S
H1572 C1569 0.929 . S
S1573 N1574 1.613 . S
S1573 N1575 1.610 . S
N1574 S1573 1.613 . S
N1574 C1577 1.350 . S
N1575 S1573 1.610 . S
N1575 C1576 1.351 . S
C1576 C1570 1.428 . S
C1576 N1575 1.351 . S
C1576 C1577 1.434 . S
C1577 C1568 1.429 . S
C1577 N1574 1.350 . S
C1577 C1576 1.434 . S
C1578 C1579 1.369 . S
C1578 C1580 1.419 . S
C1578 H1582 0.930 . S
C1579 C1578 1.369 . S
C1579 C1588 1.429 . S
C1580 C1578 1.419 . S
C1580 C1581 1.363 . S
C1580 H1583 0.929 . S
C1581 C1580 1.363 . S
C1581 C1587 1.428 . S
H1582 C1578 0.930 . S
H1583 C1580 0.929 . S
S1584 N1585 1.613 . S
S1584 N1586 1.610 . S
N1585 S1584 1.613 . S
N1585 C1588 1.350 . S
N1586 S1584 1.610 . S
N1586 C1587 1.351 . S
C1587 C1581 1.428 . S
C1587 N1586 1.351 . S
C1587 C1588 1.434 . S
C1588 C1579 1.429 . S
C1588 N1585 1.350 . S
C1588 C1587 1.434 . S
C1589 C1590 1.369 . S
C1589 C1591 1.419 . S
C1589 H1593 0.930 . S
C1590 C1589 1.369 . S
C1590 C1599 1.429 . S
C1591 C1589 1.419 . S
C1591 C1592 1.363 . S
C1591 H1594 0.929 . S
C1592 C1591 1.363 . S
C1592 C1598 1.428 . S
H1593 C1589 0.930 . S
H1594 C1591 0.929 . S
S1595 N1596 1.613 . S
S1595 N1597 1.610 . S
N1596 S1595 1.613 . S
N1596 C1599 1.350 . S
N1597 S1595 1.610 . S
N1597 C1598 1.351 . S
C1598 C1592 1.428 . S
C1598 N1597 1.351 . S
C1598 C1599 1.434 . S
C1599 C1590 1.429 . S
C1599 N1596 1.350 . S
C1599 C1598 1.434 . S
C1600 C1601 1.369 . S
C1600 C1602 1.419 . S
C1600 H1604 0.930 . S
C1601 C1600 1.369 . S
C1601 C1610 1.429 . S
C1602 C1600 1.419 . S
C1602 C1603 1.363 . S
C1602 H1605 0.929 . S
C1603 C1602 1.363 . S
C1603 C1609 1.428 . S
H1604 C1600 0.930 . S
H1605 C1602 0.929 . S
S1606 N1607 1.613 . S
S1606 N1608 1.610 . S
N1607 S1606 1.613 . S
N1607 C1610 1.350 . S
N1608 S1606 1.610 . S
N1608 C1609 1.351 . S
C1609 C1603 1.428 . S
C1609 N1608 1.351 . S
C1609 C1610 1.434 . S
C1610 C1601 1.429 . S
C1610 N1607 1.350 . S
C1610 C1609 1.434 . S
C1611 C1612 1.369 1_554 S
C1611 C1613 1.419 . S
C1611 H1615 0.930 . S
C1612 C1611 1.369 1_556 S
C1612 C1621 1.429 . S
C1613 C1611 1.419 . S
C1613 C1614 1.363 . S
C1613 H1616 0.929 . S
C1614 C1613 1.363 . S
C1614 C1620 1.428 1_554 S
H1615 C1611 0.930 . S
H1616 C1613 0.929 . S
S1617 N1618 1.613 . S
S1617 N1619 1.610 . S
N1618 S1617 1.613 . S
N1618 C1621 1.350 . S
N1619 S1617 1.610 . S
N1619 C1620 1.351 . S
C1620 C1614 1.428 1_556 S
C1620 N1619 1.351 . S
C1620 C1621 1.434 . S
C1621 C1612 1.429 . S
C1621 N1618 1.350 . S
C1621 C1620 1.434 . S
C1622 C1623 1.369 . S
C1622 C1624 1.419 . S
C1622 H1626 0.930 . S
C1623 C1622 1.369 . S
C1623 C1632 1.429 . S
C1624 C1622 1.419 . S
C1624 C1625 1.363 . S
C1624 H1627 0.929 . S
C1625 C1624 1.363 . S
C1625 C1631 1.428 . S
H1626 C1622 0.930 . S
H1627 C1624 0.929 . S
S1628 N1629 1.613 . S
S1628 N1630 1.610 . S
N1629 S1628 1.613 . S
N1629 C1632 1.350 . S
N1630 S1628 1.610 . S
N1630 C1631 1.351 . S
C1631 C1625 1.428 . S
C1631 N1630 1.351 . S
C1631 C1632 1.434 . S
C1632 C1623 1.429 . S
C1632 N1629 1.350 . S
C1632 C1631 1.434 . S
C1633 C1634 1.369 . S
C1633 C1635 1.422 1_565 S
C1633 H1637 0.930 . S
C1634 C1633 1.369 . S
C1634 C1643 1.429 1_565 S
C1635 C1633 1.422 1_545 S
C1635 C1636 1.359 . S
C1635 H1638 0.928 1_545 S
C1636 C1635 1.359 . S
C1636 C1642 1.428 . S
H1637 C1633 0.930 . S
H1638 C1635 0.928 1_565 S
S1639 N1640 1.613 . S
S1639 N1641 1.610 . S
N1640 S1639 1.613 . S
N1640 C1643 1.350 . S
N1641 S1639 1.610 . S
N1641 C1642 1.351 . S
C1642 C1636 1.428 . S
C1642 N1641 1.351 . S
C1642 C1643 1.434 . S
C1643 C1634 1.429 1_545 S
C1643 N1640 1.350 . S
C1643 C1642 1.434 . S
C1644 C1645 1.369 . S
C1644 C1646 1.419 . S
C1644 H1648 0.930 . S
C1645 C1644 1.369 . S
C1645 C1654 1.429 . S
C1646 C1644 1.419 . S
C1646 C1647 1.363 . S
C1646 H1649 0.929 . S
C1647 C1646 1.363 . S
C1647 C1653 1.428 . S
H1648 C1644 0.930 . S
H1649 C1646 0.929 . S
S1650 N1651 1.613 . S
S1650 N1652 1.610 . S
N1651 S1650 1.613 . S
N1651 C1654 1.350 . S
N1652 S1650 1.610 . S
N1652 C1653 1.351 . S
C1653 C1647 1.428 . S
C1653 N1652 1.351 . S
C1653 C1654 1.434 . S
C1654 C1645 1.429 . S
C1654 N1651 1.350 . S
C1654 C1653 1.434 . S
C1655 C1656 1.369 . S
C1655 C1657 1.419 . S
C1655 H1659 0.930 . S
C1656 C1655 1.369 . S
C1656 C1665 1.429 . S
C1657 C1655 1.419 . S
C1657 C1658 1.363 . S
C1657 H1660 0.929 . S
C1658 C1657 1.363 . S
C1658 C1664 1.428 . S
H1659 C1655 0.930 . S
H1660 C1657 0.929 . S
S1661 N1662 1.613 . S
S1661 N1663 1.610 . S
N1662 S1661 1.613 . S
N1662 C1665 1.350 . S
N1663 S1661 1.610 . S
N1663 C1664 1.351 . S
C1664 C1658 1.428 . S
C1664 N1663 1.351 . S
C1664 C1665 1.434 . S
C1665 C1656 1.429 . S
C1665 N1662 1.350 . S
C1665 C1664 1.434 . S
C1666 C1667 1.369 . S
C1666 C1668 1.419 . S
C1666 H1670 0.930 . S
C1667 C1666 1.369 . S
C1667 C1676 1.429 . S
C1668 C1666 1.419 . S
C1668 C1669 1.363 . S
C1668 H1671 0.929 . S
C1669 C1668 1.363 . S
C1669 C1675 1.428 . S
H1670 C1666 0.930 . S
H1671 C1668 0.929 . S
S1672 N1673 1.613 . S
S1672 N1674 1.610 . S
N1673 S1672 1.613 . S
N1673 C1676 1.350 . S
N1674 S1672 1.610 . S
N1674 C1675 1.351 . S
C1675 C1669 1.428 . S
C1675 N1674 1.351 . S
C1675 C1676 1.434 . S
C1676 C1667 1.429 . S
C1676 N1673 1.350 . S
C1676 C1675 1.434 . S
C1677 C1678 1.369 . S
C1677 C1679 1.419 1_556 S
C1677 H1681 0.930 . S
C1678 C1677 1.369 . S
C1678 C1687 1.429 . S
C1679 C1677 1.419 1_554 S
C1679 C1680 1.363 . S
C1679 H1682 0.929 . S
C1680 C1679 1.363 . S
C1680 C1686 1.428 . S
H1681 C1677 0.930 . S
H1682 C1679 0.929 . S
S1683 N1684 1.613 1_554 S
S1683 N1685 1.610 . S
N1684 S1683 1.613 1_556 S
N1684 C1687 1.350 . S
N1685 S1683 1.610 . S
N1685 C1686 1.351 . S
C1686 C1680 1.428 . S
C1686 N1685 1.351 . S
C1686 C1687 1.434 1_554 S
C1687 C1678 1.429 . S
C1687 N1684 1.350 . S
C1687 C1686 1.434 1_556 S
C1688 C1689 1.369 . S
C1688 C1690 1.419 . S
C1688 H1692 0.930 . S
C1689 C1688 1.369 . S
C1689 C1698 1.429 . S
C1690 C1688 1.419 . S
C1690 C1691 1.363 . S
C1690 H1693 0.929 . S
C1691 C1690 1.363 . S
C1691 C1697 1.428 . S
H1692 C1688 0.930 . S
H1693 C1690 0.929 . S
S1694 N1695 1.613 . S
S1694 N1696 1.610 . S
N1695 S1694 1.613 . S
N1695 C1698 1.350 . S
N1696 S1694 1.610 . S
N1696 C1697 1.351 . S
C1697 C1691 1.428 . S
C1697 N1696 1.351 . S
C1697 C1698 1.434 . S
C1698 C1689 1.429 . S
C1698 N1695 1.350 . S
C1698 C1697 1.434 . S
C1699 C1700 1.369 . S
C1699 C1701 1.419 1_556 S
C1699 H1703 0.930 . S
C1700 C1699 1.369 . S
C1700 C1709 1.429 . S
C1701 C1699 1.419 1_554 S
C1701 C1702 1.363 . S
C1701 H1704 0.929 . S
C1702 C1701 1.363 . S
C1702 C1708 1.428 . S
H1703 C1699 0.930 . S
H1704 C1701 0.929 . S
S1705 N1706 1.613 . S
S1705 N1707 1.610 1_556 S
N1706 S1705 1.613 . S
N1706 C1709 1.350 . S
N1707 S1705 1.610 1_554 S
N1707 C1708 1.351 . S
C1708 C1702 1.428 . S
C1708 N1707 1.351 . S
C1708 C1709 1.434 1_554 S
C1709 C1700 1.429 . S
C1709 N1706 1.350 . S
C1709 C1708 1.434 1_556 S
C1710 C1711 1.369 . S
C1710 C1712 1.419 . S
C1710 H1714 0.930 . S
C1711 C1710 1.369 . S
C1711 C1720 1.429 1_565 S
C1712 C1710 1.419 . S
C1712 C1713 1.363 1_565 S
C1712 H1715 0.929 . S
C1713 C1712 1.363 1_545 S
C1713 C1719 1.428 . S
H1714 C1710 0.930 . S
H1715 C1712 0.929 . S
S1716 N1717 1.613 . S
S1716 N1718 1.610 . S
N1717 S1716 1.613 . S
N1717 C1720 1.350 . S
N1718 S1716 1.610 . S
N1718 C1719 1.351 . S
C1719 C1713 1.428 . S
C1719 N1718 1.351 . S
C1719 C1720 1.434 . S
C1720 C1711 1.429 1_545 S
C1720 N1717 1.350 . S
C1720 C1719 1.434 . S
C1721 C1722 1.369 . S
C1721 C1723 1.419 . S
C1721 H1725 0.930 . S
C1722 C1721 1.369 . S
C1722 C1731 1.429 . S
C1723 C1721 1.419 . S
C1723 C1724 1.363 . S
C1723 H1726 0.929 . S
C1724 C1723 1.363 . S
C1724 C1730 1.428 . S
H1725 C1721 0.930 . S
H1726 C1723 0.929 . S
S1727 N1728 1.613 . S
S1727 N1729 1.610 . S
N1728 S1727 1.613 . S
N1728 C1731 1.350 . S
N1729 S1727 1.610 . S
N1729 C1730 1.351 . S
C1730 C1724 1.428 . S
C1730 N1729 1.351 . S
C1730 C1731 1.434 . S
C1731 C1722 1.429 . S
C1731 N1728 1.350 . S
C1731 C1730 1.434 . S
C1732 C1733 1.369 . S
C1732 C1734 1.419 1_565 S
C1732 H1736 0.930 . S
C1733 C1732 1.369 . S
C1733 C1742 1.429 . S
C1734 C1732 1.419 1_545 S
C1734 C1735 1.363 . S
C1734 H1737 0.929 . S
C1735 C1734 1.363 . S
C1735 C1741 1.428 . S
H1736 C1732 0.930 . S
H1737 C1734 0.929 . S
S1738 N1739 1.613 . S
S1738 N1740 1.610 1_565 S
N1739 S1738 1.613 . S
N1739 C1742 1.350 . S
N1740 S1738 1.610 1_545 S
N1740 C1741 1.351 . S
C1741 C1735 1.428 . S
C1741 N1740 1.351 . S
C1741 C1742 1.434 1_545 S
C1742 C1733 1.429 . S
C1742 N1739 1.350 . S
C1742 C1741 1.434 1_565 S
C1743 C1744 1.369 . S
C1743 C1745 1.419 . S
C1743 H1747 0.930 . S
C1744 C1743 1.369 . S
C1744 C1753 1.429 . S
C1745 C1743 1.419 . S
C1745 C1746 1.363 . S
C1745 H1748 0.929 . S
C1746 C1745 1.363 . S
C1746 C1752 1.428 . S
H1747 C1743 0.930 . S
H1748 C1745 0.929 . S
S1749 N1750 1.613 . S
S1749 N1751 1.610 . S
N1750 S1749 1.613 . S
N1750 C1753 1.350 . S
N1751 S1749 1.610 . S
N1751 C1752 1.351 . S
C1752 C1746 1.428 . S
C1752 N1751 1.351 . S
C1752 C1753 1.434 . S
C1753 C1744 1.429 . S
C1753 N1750 1.350 . S
C1753 C1752 1.434 . S
C1754 C1755 1.369 . S
C1754 C1756 1.419 . S
C1754 H1758 0.930 . S
C1755 C1754 1.369 . S
C1755 C1764 1.429 . S
C1756 C1754 1.419 . S
C1756 C1757 1.363 . S
C1756 H1759 0.929 . S
C1757 C1756 1.363 . S
C1757 C1763 1.428 . S
H1758 C1754 0.930 . S
H1759 C1756 0.929 . S
S1760 N1761 1.613 . S
S1760 N1762 1.610 . S
N1761 S1760 1.613 . S
N1761 C1764 1.350 . S
N1762 S1760 1.610 . S
N1762 C1763 1.351 . S
C1763 C1757 1.428 . S
C1763 N1762 1.351 . S
C1763 C1764 1.434 . S
C1764 C1755 1.429 . S
C1764 N1761 1.350 . S
C1764 C1763 1.434 . S
C1765 C1766 1.369 . S
C1765 C1767 1.419 . S
C1765 H1769 0.930 . S
C1766 C1765 1.369 . S
C1766 C1775 1.429 . S
C1767 C1765 1.419 . S
C1767 C1768 1.363 . S
C1767 H1770 0.929 . S
C1768 C1767 1.363 . S
C1768 C1774 1.428 . S
H1769 C1765 0.930 . S
H1770 C1767 0.929 . S
S1771 N1772 1.613 . S
S1771 N1773 1.610 . S
N1772 S1771 1.613 . S
N1772 C1775 1.350 . S
N1773 S1771 1.610 . S
N1773 C1774 1.351 . S
C1774 C1768 1.428 . S
C1774 N1773 1.351 . S
C1774 C1775 1.434 . S
C1775 C1766 1.429 . S
C1775 N1772 1.350 . S
C1775 C1774 1.434 . S
C1776 C1777 1.369 . S
C1776 C1778 1.419 . S
C1776 H1780 0.930 . S
C1777 C1776 1.369 . S
C1777 C1786 1.429 1_655 S
C1778 C1776 1.419 . S
C1778 C1779 1.363 . S
C1778 H1781 0.929 . S
C1779 C1778 1.363 . S
C1779 C1785 1.428 . S
H1780 C1776 0.930 . S
H1781 C1778 0.929 . S
S1782 N1783 1.613 . S
S1782 N1784 1.610 . S
N1783 S1782 1.613 . S
N1783 C1786 1.350 . S
N1784 S1782 1.610 . S
N1784 C1785 1.351 1_455 S
C1785 C1779 1.428 . S
C1785 N1784 1.351 1_655 S
C1785 C1786 1.434 1_655 S
C1786 C1777 1.429 1_455 S
C1786 N1783 1.350 . S
C1786 C1785 1.434 1_455 S
C1787 C1788 1.369 . S
C1787 C1789 1.419 . S
C1787 H1791 0.930 . S
C1788 C1787 1.369 . S
C1788 C1797 1.429 . S
C1789 C1787 1.419 . S
C1789 C1790 1.363 . S
C1789 H1792 0.929 . S
C1790 C1789 1.363 . S
C1790 C1796 1.428 1_655 S
H1791 C1787 0.930 . S
H1792 C1789 0.929 . S
S1793 N1794 1.613 . S
S1793 N1795 1.610 . S
N1794 S1793 1.613 . S
N1794 C1797 1.350 1_455 S
N1795 S1793 1.610 . S
N1795 C1796 1.351 . S
C1796 C1790 1.428 1_455 S
C1796 N1795 1.351 . S
C1796 C1797 1.434 1_455 S
C1797 C1788 1.429 . S
C1797 N1794 1.350 1_655 S
C1797 C1796 1.434 1_655 S
C1798 C1799 1.369 1_655 S
C1798 C1800 1.419 1_655 S
C1798 H1802 0.930 . S
C1799 C1798 1.369 1_455 S
C1799 C1808 1.429 . S
C1800 C1798 1.419 1_455 S
C1800 C1801 1.363 . S
C1800 H1803 0.929 . S
C1801 C1800 1.363 . S
C1801 C1807 1.428 . S
H1802 C1798 0.930 . S
H1803 C1800 0.929 . S
S1804 N1805 1.613 . S
S1804 N1806 1.610 . S
N1805 S1804 1.613 . S
N1805 C1808 1.350 . S
N1806 S1804 1.610 . S
N1806 C1807 1.351 . S
C1807 C1801 1.428 . S
C1807 N1806 1.351 . S
C1807 C1808 1.434 . S
C1808 C1799 1.429 . S
C1808 N1805 1.350 . S
C1808 C1807 1.434 . S
C1809 C1810 1.369 1_655 S
C1809 C1811 1.419 1_655 S
C1809 H1813 0.930 . S
C1810 C1809 1.369 1_455 S
C1810 C1819 1.429 . S
C1811 C1809 1.419 1_455 S
C1811 C1812 1.363 . S
C1811 H1814 0.939 . S
C1812 C1811 1.363 . S
C1812 C1818 1.428 . S
H1813 C1809 0.930 . S
H1814 C1811 0.939 . S
S1815 N1816 1.613 . S
S1815 N1817 1.610 . S
N1816 S1815 1.613 . S
N1816 C1819 1.350 . S
N1817 S1815 1.610 . S
N1817 C1818 1.351 . S
C1818 C1812 1.428 . S
C1818 N1817 1.351 . S
C1818 C1819 1.434 . S
C1819 C1810 1.429 . S
C1819 N1816 1.350 . S
C1819 C1818 1.434 . S
C1820 C1821 1.369 1_455 S
C1820 C1822 1.419 1_455 S
C1820 H1824 0.930 . S
C1821 C1820 1.369 1_655 S
C1821 C1830 1.429 . S
C1822 C1820 1.419 1_655 S
C1822 C1823 1.363 . S
C1822 H1825 0.929 . S
C1823 C1822 1.363 . S
C1823 C1829 1.428 . S
H1824 C1820 0.930 . S
H1825 C1822 0.929 . S
S1826 N1827 1.613 . S
S1826 N1828 1.610 . S
N1827 S1826 1.613 . S
N1827 C1830 1.350 . S
N1828 S1826 1.610 . S
N1828 C1829 1.351 . S
C1829 C1823 1.428 . S
C1829 N1828 1.351 . S
C1829 C1830 1.434 . S
C1830 C1821 1.429 . S
C1830 N1827 1.350 . S
C1830 C1829 1.434 . S
C1831 C1832 1.369 . S
C1831 C1833 1.419 . S
C1831 H1835 0.930 . S
C1832 C1831 1.369 . S
C1832 C1841 1.429 . S
C1833 C1831 1.419 . S
C1833 C1834 1.363 . S
C1833 H1836 0.929 . S
C1834 C1833 1.363 . S
C1834 C1840 1.428 . S
H1835 C1831 0.930 . S
H1836 C1833 0.929 . S
S1837 N1838 1.613 . S
S1837 N1839 1.610 . S
N1838 S1837 1.613 . S
N1838 C1841 1.350 . S
N1839 S1837 1.610 . S
N1839 C1840 1.351 . S
C1840 C1834 1.428 . S
C1840 N1839 1.351 . S
C1840 C1841 1.434 . S
C1841 C1832 1.429 . S
C1841 N1838 1.350 . S
C1841 C1840 1.434 . S
C1842 C1843 1.369 1_655 S
C1842 C1844 1.419 1_655 S
C1842 H1846 0.930 . S
C1843 C1842 1.369 1_455 S
C1843 C1852 1.429 . S
C1844 C1842 1.419 1_455 S
C1844 C1845 1.363 . S
C1844 H1847 0.929 . S
C1845 C1844 1.363 . S
C1845 C1851 1.428 . S
H1846 C1842 0.930 . S
H1847 C1844 0.929 . S
S1848 N1849 1.613 . S
S1848 N1850 1.610 . S
N1849 S1848 1.613 . S
N1849 C1852 1.350 . S
N1850 S1848 1.610 . S
N1850 C1851 1.351 . S
C1851 C1845 1.428 . S
C1851 N1850 1.351 . S
C1851 C1852 1.434 . S
C1852 C1843 1.429 . S
C1852 N1849 1.350 . S
C1852 C1851 1.434 . S
C1853 C1854 1.369 . S
C1853 C1855 1.419 . S
C1853 H1857 0.930 . S
C1854 C1853 1.369 . S
C1854 C1863 1.429 . S
C1855 C1853 1.419 . S
C1855 C1856 1.363 . S
C1855 H1858 0.929 . S
C1856 C1855 1.363 . S
C1856 C1862 1.428 . S
H1857 C1853 0.930 . S
H1858 C1855 0.929 . S
S1859 N1860 1.613 . S
S1859 N1861 1.610 . S
N1860 S1859 1.613 . S
N1860 C1863 1.350 . S
N1861 S1859 1.610 . S
N1861 C1862 1.351 . S
C1862 C1856 1.428 . S
C1862 N1861 1.351 . S
C1862 C1863 1.434 . S
C1863 C1854 1.429 . S
C1863 N1860 1.350 . S
C1863 C1862 1.434 . S
C1864 C1865 1.369 . S
C1864 C1866 1.419 . S
C1864 H1868 0.930 . S
C1865 C1864 1.369 . S
C1865 C1874 1.429 1_565 S
C1866 C1864 1.419 . S
C1866 C1867 1.363 . S
C1866 H1869 0.929 . S
C1867 C1866 1.363 . S
C1867 C1873 1.428 . S
H1868 C1864 0.930 . S
H1869 C1866 0.929 . S
S1870 N1871 1.613 . S
S1870 N1872 1.610 1_545 S
N1871 S1870 1.613 . S
N1871 C1874 1.350 . S
N1872 S1870 1.610 1_565 S
N1872 C1873 1.351 . S
C1873 C1867 1.428 . S
C1873 N1872 1.351 . S
C1873 C1874 1.434 1_565 S
C1874 C1865 1.429 1_545 S
C1874 N1871 1.350 . S
C1874 C1873 1.434 1_545 S
C1875 C1876 1.369 . S
C1875 C1877 1.419 . S
C1875 H1879 0.930 . S
C1876 C1875 1.369 . S
C1876 C1885 1.429 . S
C1877 C1875 1.419 . S
C1877 C1878 1.363 . S
C1877 H1880 0.929 . S
C1878 C1877 1.363 . S
C1878 C1884 1.428 . S
H1879 C1875 0.930 . S
H1880 C1877 0.929 . S
S1881 N1882 1.613 . S
S1881 N1883 1.610 . S
N1882 S1881 1.613 . S
N1882 C1885 1.350 . S
N1883 S1881 1.610 . S
N1883 C1884 1.351 . S
C1884 C1878 1.428 . S
C1884 N1883 1.351 . S
C1884 C1885 1.434 . S
C1885 C1876 1.429 . S
C1885 N1882 1.350 . S
C1885 C1884 1.434 . S
C1886 C1887 1.369 . S
C1886 C1888 1.419 . S
C1886 H1890 0.930 . S
C1887 C1886 1.369 . S
C1887 C1896 1.429 . S
C1888 C1886 1.419 . S
C1888 C1889 1.363 . S
C1888 H1891 0.929 . S
C1889 C1888 1.363 . S
C1889 C1895 1.428 . S
H1890 C1886 0.930 . S
H1891 C1888 0.929 . S
S1892 N1893 1.613 . S
S1892 N1894 1.610 . S
N1893 S1892 1.613 . S
N1893 C1896 1.350 . S
N1894 S1892 1.610 . S
N1894 C1895 1.351 . S
C1895 C1889 1.428 . S
C1895 N1894 1.351 . S
C1895 C1896 1.434 . S
C1896 C1887 1.429 . S
C1896 N1893 1.350 . S
C1896 C1895 1.434 . S
C1897 C1898 1.369 . S
C1897 C1899 1.419 1_554 S
C1897 H1901 0.930 . S
C1898 C1897 1.369 . S
C1898 C1907 1.429 . S
C1899 C1897 1.419 1_556 S
C1899 C1900 1.363 1_556 S
C1899 H1902 0.929 . S
C1900 C1899 1.363 1_554 S
C1900 C1906 1.428 . S
H1901 C1897 0.930 . S
H1902 C1899 0.929 . S
S1903 N1904 1.613 . S
S1903 N1905 1.610 . S
N1904 S1903 1.613 . S
N1904 C1907 1.350 . S
N1905 S1903 1.610 . S
N1905 C1906 1.351 . S
C1906 C1900 1.428 . S
C1906 N1905 1.351 . S
C1906 C1907 1.434 . S
C1907 C1898 1.429 . S
C1907 N1904 1.350 . S
C1907 C1906 1.434 . S
C1908 C1909 1.369 . S
C1908 C1910 1.419 . S
C1908 H1912 0.930 . S
C1909 C1908 1.369 . S
C1909 C1918 1.429 . S
C1910 C1908 1.419 . S
C1910 C1911 1.363 . S
C1910 H1913 0.929 . S
C1911 C1910 1.363 . S
C1911 C1917 1.424 1_545 S
H1912 C1908 0.930 . S
H1913 C1910 0.929 . S
S1914 N1915 1.613 1_565 S
S1914 N1916 1.610 . S
N1915 S1914 1.613 1_545 S
N1915 C1918 1.350 . S
N1916 S1914 1.610 . S
N1916 C1917 1.388 . S
C1917 C1911 1.424 1_565 S
C1917 N1916 1.388 . S
C1917 C1918 1.404 1_565 S
C1918 C1909 1.429 . S
C1918 N1915 1.350 . S
C1918 C1917 1.404 1_545 S
C1919 C1920 1.369 1_554 S
C1919 C1921 1.419 1_554 S
C1919 H1923 0.930 . S
C1920 C1919 1.369 1_556 S
C1920 C1929 1.429 . S
C1921 C1919 1.419 1_556 S
C1921 C1922 1.363 . S
C1921 H1924 0.929 . S
C1922 C1921 1.363 . S
C1922 C1928 1.428 . S
H1923 C1919 0.930 . S
H1924 C1921 0.929 . S
S1925 N1926 1.613 . S
S1925 N1927 1.610 . S
N1926 S1925 1.613 . S
N1926 C1929 1.350 . S
N1927 S1925 1.610 . S
N1927 C1928 1.351 . S
C1928 C1922 1.428 . S
C1928 N1927 1.351 . S
C1928 C1929 1.434 . S
C1929 C1920 1.429 . S
C1929 N1926 1.350 . S
C1929 C1928 1.434 . S
C1930 C1931 1.369 . S
C1930 C1932 1.419 . S
C1930 H1934 0.930 . S
C1931 C1930 1.369 . S
C1931 C1940 1.429 . S
C1932 C1930 1.419 . S
C1932 C1933 1.363 . S
C1932 H1935 0.929 . S
C1933 C1932 1.363 . S
C1933 C1939 1.428 . S
H1934 C1930 0.930 . S
H1935 C1932 0.929 . S
S1936 N1937 1.613 . S
S1936 N1938 1.610 . S
N1937 S1936 1.613 . S
N1937 C1940 1.350 . S
N1938 S1936 1.610 . S
N1938 C1939 1.351 . S
C1939 C1933 1.428 . S
C1939 N1938 1.351 . S
C1939 C1940 1.434 . S
C1940 C1931 1.429 . S
C1940 N1937 1.350 . S
C1940 C1939 1.434 . S
C1941 C1942 1.369 . S
C1941 C1943 1.419 . S
C1941 H1945 0.930 . S
C1942 C1941 1.369 . S
C1942 C1951 1.429 . S
C1943 C1941 1.419 . S
C1943 C1944 1.363 . S
C1943 H1946 0.929 . S
C1944 C1943 1.363 . S
C1944 C1950 1.428 . S
H1945 C1941 0.930 . S
H1946 C1943 0.929 . S
S1947 N1948 1.613 . S
S1947 N1949 1.610 . S
N1948 S1947 1.613 . S
N1948 C1951 1.350 . S
N1949 S1947 1.610 . S
N1949 C1950 1.351 . S
C1950 C1944 1.428 . S
C1950 N1949 1.351 . S
C1950 C1951 1.434 . S
C1951 C1942 1.429 . S
C1951 N1948 1.350 . S
C1951 C1950 1.434 . S
C1952 C1953 1.369 . S
C1952 C1954 1.419 . S
C1952 H1956 0.930 . S
C1953 C1952 1.369 . S
C1953 C1962 1.429 . S
C1954 C1952 1.419 . S
C1954 C1955 1.363 . S
C1954 H1957 0.929 . S
C1955 C1954 1.363 . S
C1955 C1961 1.428 . S
H1956 C1952 0.930 . S
H1957 C1954 0.929 . S
S1958 N1959 1.613 1_554 S
S1958 N1960 1.610 . S
N1959 S1958 1.613 1_556 S
N1959 C1962 1.350 . S
N1960 S1958 1.610 . S
N1960 C1961 1.351 1_554 S
C1961 C1955 1.428 . S
C1961 N1960 1.351 1_556 S
C1961 C1962 1.434 . S
C1962 C1953 1.429 . S
C1962 N1959 1.350 . S
C1962 C1961 1.434 . S
C1963 C1964 1.369 . S
C1963 C1965 1.419 . S
C1963 H1967 0.930 . S
C1964 C1963 1.369 . S
C1964 C1973 1.429 . S
C1965 C1963 1.419 . S
C1965 C1966 1.363 . S
C1965 H1968 0.929 . S
C1966 C1965 1.363 . S
C1966 C1972 1.428 . S
H1967 C1963 0.930 . S
H1968 C1965 0.929 . S
S1969 N1970 1.613 . S
S1969 N1971 1.610 . S
N1970 S1969 1.613 . S
N1970 C1973 1.350 . S
N1971 S1969 1.610 . S
N1971 C1972 1.351 . S
C1972 C1966 1.428 . S
C1972 N1971 1.351 . S
C1972 C1973 1.434 . S
C1973 C1964 1.429 . S
C1973 N1970 1.350 . S
C1973 C1972 1.434 . S
C1974 C1975 1.369 . S
C1974 C1976 1.419 . S
C1974 H1978 0.930 . S
C1975 C1974 1.369 . S
C1975 C1984 1.429 . S
C1976 C1974 1.419 . S
C1976 C1977 1.363 . S
C1976 H1979 0.929 1_545 S
C1977 C1976 1.363 . S
C1977 C1983 1.428 . S
H1978 C1974 0.930 . S
H1979 C1976 0.929 1_565 S
S1980 N1981 1.613 . S
S1980 N1982 1.610 . S
N1981 S1980 1.613 . S
N1981 C1984 1.350 . S
N1982 S1980 1.610 . S
N1982 C1983 1.351 . S
C1983 C1977 1.428 . S
C1983 N1982 1.351 . S
C1983 C1984 1.434 . S
C1984 C1975 1.429 . S
C1984 N1981 1.350 . S
C1984 C1983 1.434 . S
C1985 C1986 1.369 1_556 S
C1985 C1987 1.419 1_556 S
C1985 H1989 0.930 . S
C1986 C1985 1.369 1_554 S
C1986 C1995 1.429 . S
C1987 C1985 1.419 1_554 S
C1987 C1988 1.363 . S
C1987 H1990 0.930 1_554 S
C1988 C1987 1.363 . S
C1988 C1994 1.428 . S
H1989 C1985 0.930 . S
H1990 C1987 0.930 1_556 S
S1991 N1992 1.613 . S
S1991 N1993 1.610 . S
N1992 S1991 1.613 . S
N1992 C1995 1.350 . S
N1993 S1991 1.610 . S
N1993 C1994 1.351 . S
C1994 C1988 1.428 . S
C1994 N1993 1.351 . S
C1994 C1995 1.434 . S
C1995 C1986 1.429 . S
C1995 N1992 1.350 . S
C1995 C1994 1.434 . S
C1996 C1997 1.369 . S
C1996 C1998 1.419 . S
C1996 H2000 0.930 . S
C1997 C1996 1.369 . S
C1997 C2006 1.429 1_556 S
C1998 C1996 1.419 . S
C1998 C1999 1.363 . S
C1998 H2001 0.929 . S
C1999 C1998 1.363 . S
C1999 C2005 1.428 . S
H2000 C1996 0.930 . S
H2001 C1998 0.929 . S
S2002 N2003 1.613 . S
S2002 N2004 1.610 1_554 S
N2003 S2002 1.613 . S
N2003 C2006 1.350 . S
N2004 S2002 1.610 1_556 S
N2004 C2005 1.351 . S
C2005 C1999 1.428 . S
C2005 N2004 1.351 . S
C2005 C2006 1.434 1_556 S
C2006 C1997 1.429 1_554 S
C2006 N2003 1.350 . S
C2006 C2005 1.434 1_554 S
C2007 C2008 1.369 . S
C2007 C2009 1.419 . S
C2007 H2011 0.930 . S
C2008 C2007 1.369 . S
C2008 C2017 1.429 . S
C2009 C2007 1.419 . S
C2009 C2010 1.363 . S
C2009 H2012 0.929 . S
C2010 C2009 1.363 . S
C2010 C2016 1.428 . S
H2011 C2007 0.930 . S
H2012 C2009 0.929 . S
S2013 N2014 1.613 . S
S2013 N2015 1.610 . S
N2014 S2013 1.613 . S
N2014 C2017 1.350 . S
N2015 S2013 1.610 . S
N2015 C2016 1.351 . S
C2016 C2010 1.428 . S
C2016 N2015 1.351 . S
C2016 C2017 1.434 . S
C2017 C2008 1.429 . S
C2017 N2014 1.350 . S
C2017 C2016 1.434 . S
C2018 C2019 1.369 . S
C2018 C2020 1.419 . S
C2018 H2022 0.930 . S
C2019 C2018 1.369 . S
C2019 C2028 1.429 1_545 S
C2020 C2018 1.419 . S
C2020 C2021 1.363 . S
C2020 H2023 0.929 . S
C2021 C2020 1.363 . S
C2021 C2027 1.428 . S
H2022 C2018 0.930 . S
H2023 C2020 0.929 . S
S2024 N2025 1.613 . S
S2024 N2026 1.610 . S
N2025 S2024 1.613 . S
N2025 C2028 1.350 . S
N2026 S2024 1.610 . S
N2026 C2027 1.351 1_565 S
C2027 C2021 1.428 . S
C2027 N2026 1.351 1_545 S
C2027 C2028 1.434 1_545 S
C2028 C2019 1.429 1_565 S
C2028 N2025 1.350 . S
C2028 C2027 1.434 1_565 S
C2029 C2030 1.369 1_455 S
C2029 C2031 1.419 1_455 S
C2029 H2033 0.930 . S
C2030 C2029 1.369 1_655 S
C2030 C2039 1.429 . S
C2031 C2029 1.419 1_655 S
C2031 C2032 1.363 . S
C2031 H2034 0.929 . S
C2032 C2031 1.363 . S
C2032 C2038 1.428 . S
H2033 C2029 0.930 . S
H2034 C2031 0.929 . S
S2035 N2036 1.613 . S
S2035 N2037 1.610 . S
N2036 S2035 1.613 . S
N2036 C2039 1.350 . S
N2037 S2035 1.610 . S
N2037 C2038 1.351 . S
C2038 C2032 1.428 . S
C2038 N2037 1.351 . S
C2038 C2039 1.434 . S
C2039 C2030 1.429 . S
C2039 N2036 1.350 . S
C2039 C2038 1.434 . S
C2040 C2041 1.369 . S
C2040 C2042 1.419 . S
C2040 H2044 0.930 . S
C2041 C2040 1.369 . S
C2041 C2050 1.429 . S
C2042 C2040 1.419 . S
C2042 C2043 1.363 . S
C2042 H2045 0.939 . S
C2043 C2042 1.363 . S
C2043 C2049 1.428 . S
H2044 C2040 0.930 . S
H2045 C2042 0.939 . S
S2046 N2047 1.613 . S
S2046 N2048 1.610 . S
N2047 S2046 1.613 . S
N2047 C2050 1.350 . S
N2048 S2046 1.610 . S
N2048 C2049 1.351 . S
C2049 C2043 1.428 . S
C2049 N2048 1.351 . S
C2049 C2050 1.434 . S
C2050 C2041 1.429 . S
C2050 N2047 1.350 . S
C2050 C2049 1.434 . S
C2051 C2052 1.369 . S
C2051 C2053 1.419 . S
C2051 H2055 0.930 . S
C2052 C2051 1.369 . S
C2052 C2061 1.429 . S
C2053 C2051 1.419 . S
C2053 C2054 1.363 . S
C2053 H2056 0.929 . S
C2054 C2053 1.363 . S
C2054 C2060 1.428 . S
H2055 C2051 0.930 . S
H2056 C2053 0.929 . S
S2057 N2058 1.613 . S
S2057 N2059 1.610 . S
N2058 S2057 1.613 . S
N2058 C2061 1.350 . S
N2059 S2057 1.610 . S
N2059 C2060 1.351 . S
C2060 C2054 1.428 . S
C2060 N2059 1.351 . S
C2060 C2061 1.434 . S
C2061 C2052 1.429 . S
C2061 N2058 1.350 . S
C2061 C2060 1.434 . S
C2062 C2063 1.369 . S
C2062 C2064 1.419 . S
C2062 H2066 0.930 . S
C2063 C2062 1.369 . S
C2063 C2072 1.429 . S
C2064 C2062 1.419 . S
C2064 C2065 1.363 . S
C2064 H2067 0.929 . S
C2065 C2064 1.363 . S
C2065 C2071 1.428 . S
H2066 C2062 0.930 . S
H2067 C2064 0.929 . S
S2068 N2069 1.613 . S
S2068 N2070 1.610 . S
N2069 S2068 1.613 . S
N2069 C2072 1.350 . S
N2070 S2068 1.610 . S
N2070 C2071 1.351 . S
C2071 C2065 1.428 . S
C2071 N2070 1.351 . S
C2071 C2072 1.434 . S
C2072 C2063 1.429 . S
C2072 N2069 1.350 . S
C2072 C2071 1.434 . S
C2073 C2074 1.369 . S
C2073 C2075 1.419 . S
C2073 H2077 0.930 . S
C2074 C2073 1.369 . S
C2074 C2083 1.429 . S
C2075 C2073 1.419 . S
C2075 C2076 1.363 . S
C2075 H2078 0.929 . S
C2076 C2075 1.363 . S
C2076 C2082 1.428 . S
H2077 C2073 0.930 . S
H2078 C2075 0.929 . S
S2079 N2080 1.613 . S
S2079 N2081 1.610 . S
N2080 S2079 1.613 . S
N2080 C2083 1.350 . S
N2081 S2079 1.610 . S
N2081 C2082 1.351 . S
C2082 C2076 1.428 . S
C2082 N2081 1.351 . S
C2082 C2083 1.434 . S
C2083 C2074 1.429 . S
C2083 N2080 1.350 . S
C2083 C2082 1.434 . S
C2084 C2085 1.369 . S
C2084 C2086 1.419 . S
C2084 H2088 0.930 . S
C2085 C2084 1.369 . S
C2085 C2094 1.429 . S
C2086 C2084 1.419 . S
C2086 C2087 1.363 . S
C2086 H2089 0.929 . S
C2087 C2086 1.363 . S
C2087 C2093 1.428 . S
H2088 C2084 0.930 . S
H2089 C2086 0.929 . S
S2090 N2091 1.613 1_556 S
S2090 N2092 1.610 . S
N2091 S2090 1.613 1_554 S
N2091 C2094 1.350 . S
N2092 S2090 1.610 . S
N2092 C2093 1.351 1_556 S
C2093 C2087 1.428 . S
C2093 N2092 1.351 1_554 S
C2093 C2094 1.434 . S
C2094 C2085 1.429 . S
C2094 N2091 1.350 . S
C2094 C2093 1.434 . S
C2095 C2096 1.369 . S
C2095 C2097 1.419 . S
C2095 H2099 0.930 . S
C2096 C2095 1.369 . S
C2096 C2105 1.429 1_545 S
C2097 C2095 1.419 . S
C2097 C2098 1.363 . S
C2097 H2100 0.929 . S
C2098 C2097 1.363 . S
C2098 C2104 1.428 . S
H2099 C2095 0.930 . S
H2100 C2097 0.929 . S
S2101 N2102 1.613 . S
S2101 N2103 1.610 . S
N2102 S2101 1.613 . S
N2102 C2105 1.350 . S
N2103 S2101 1.610 . S
N2103 C2104 1.351 1_565 S
C2104 C2098 1.428 . S
C2104 N2103 1.351 1_545 S
C2104 C2105 1.434 1_545 S
C2105 C2096 1.429 1_565 S
C2105 N2102 1.350 . S
C2105 C2104 1.434 1_565 S
C2106 C2107 1.369 . S
C2106 C2108 1.419 . S
C2106 H2110 0.930 . S
C2107 C2106 1.369 . S
C2107 C2116 1.429 . S
C2108 C2106 1.419 . S
C2108 C2109 1.363 . S
C2108 H2111 0.929 . S
C2109 C2108 1.363 . S
C2109 C2115 1.428 . S
H2110 C2106 0.930 . S
H2111 C2108 0.929 . S
S2112 N2113 1.613 . S
S2112 N2114 1.610 . S
N2113 S2112 1.613 . S
N2113 C2116 1.350 . S
N2114 S2112 1.610 . S
N2114 C2115 1.351 . S
C2115 C2109 1.428 . S
C2115 N2114 1.351 . S
C2115 C2116 1.434 . S
C2116 C2107 1.429 . S
C2116 N2113 1.350 . S
C2116 C2115 1.434 . S
C2117 C2118 1.369 . S
C2117 C2119 1.419 . S
C2117 H2121 0.930 . S
C2118 C2117 1.369 . S
C2118 C2127 1.429 . S
C2119 C2117 1.419 . S
C2119 C2120 1.363 . S
C2119 H2122 0.929 . S
C2120 C2119 1.363 . S
C2120 C2126 1.428 . S
H2121 C2117 0.930 . S
H2122 C2119 0.929 . S
S2123 N2124 1.613 . S
S2123 N2125 1.610 . S
N2124 S2123 1.613 . S
N2124 C2127 1.350 . S
N2125 S2123 1.610 . S
N2125 C2126 1.351 . S
C2126 C2120 1.428 . S
C2126 N2125 1.351 . S
C2126 C2127 1.434 . S
C2127 C2118 1.429 . S
C2127 N2124 1.350 . S
C2127 C2126 1.434 . S
C2128 C2129 1.369 . S
C2128 C2130 1.419 . S
C2128 H2132 0.930 . S
C2129 C2128 1.369 . S
C2129 C2138 1.429 . S
C2130 C2128 1.419 . S
C2130 C2131 1.363 . S
C2130 H2133 0.929 . S
C2131 C2130 1.363 . S
C2131 C2137 1.428 . S
H2132 C2128 0.930 . S
H2133 C2130 0.929 . S
S2134 N2135 1.613 . S
S2134 N2136 1.610 . S
N2135 S2134 1.613 . S
N2135 C2138 1.350 . S
N2136 S2134 1.610 . S
N2136 C2137 1.351 . S
C2137 C2131 1.428 . S
C2137 N2136 1.351 . S
C2137 C2138 1.434 . S
C2138 C2129 1.429 . S
C2138 N2135 1.350 . S
C2138 C2137 1.434 . S
C2139 C2140 1.369 . S
C2139 C2141 1.419 1_565 S
C2139 H2143 0.930 . S
C2140 C2139 1.369 . S
C2140 C2149 1.429 . S
C2141 C2139 1.419 1_545 S
C2141 C2142 1.363 1_545 S
C2141 H2144 0.929 . S
C2142 C2141 1.363 1_565 S
C2142 C2148 1.428 . S
H2143 C2139 0.930 . S
H2144 C2141 0.929 . S
S2145 N2146 1.613 . S
S2145 N2147 1.610 . S
N2146 S2145 1.613 . S
N2146 C2149 1.350 . S
N2147 S2145 1.610 . S
N2147 C2148 1.351 . S
C2148 C2142 1.428 . S
C2148 N2147 1.351 . S
C2148 C2149 1.434 . S
C2149 C2140 1.429 . S
C2149 N2146 1.350 . S
C2149 C2148 1.434 . S
C2150 C2151 1.369 . S
C2150 C2152 1.419 . S
C2150 H2154 0.930 1_556 S
C2151 C2150 1.369 . S
C2151 C2160 1.429 . S
C2152 C2150 1.419 . S
C2152 C2153 1.363 . S
C2152 H2155 0.929 . S
C2153 C2152 1.363 . S
C2153 C2159 1.428 . S
H2154 C2150 0.930 1_554 S
H2155 C2152 0.929 . S
S2156 N2157 1.613 . S
S2156 N2158 1.610 . S
N2157 S2156 1.613 . S
N2157 C2160 1.350 . S
N2158 S2156 1.610 . S
N2158 C2159 1.351 . S
C2159 C2153 1.428 . S
C2159 N2158 1.351 . S
C2159 C2160 1.434 . S
C2160 C2151 1.429 . S
C2160 N2157 1.350 . S
C2160 C2159 1.434 . S
C2161 C2162 1.369 . S
C2161 C2163 1.419 . S
C2161 H2165 0.930 . S
C2162 C2161 1.369 . S
C2162 C2171 1.429 . S
C2163 C2161 1.419 . S
C2163 C2164 1.363 . S
C2163 H2166 0.929 . S
C2164 C2163 1.363 . S
C2164 C2170 1.428 . S
H2165 C2161 0.930 . S
H2166 C2163 0.929 . S
S2167 N2168 1.613 . S
S2167 N2169 1.610 . S
N2168 S2167 1.613 . S
N2168 C2171 1.350 . S
N2169 S2167 1.610 . S
N2169 C2170 1.351 . S
C2170 C2164 1.428 . S
C2170 N2169 1.351 . S
C2170 C2171 1.434 . S
C2171 C2162 1.429 . S
C2171 N2168 1.350 . S
C2171 C2170 1.434 . S
C2172 C2173 1.369 . S
C2172 C2174 1.419 . S
C2172 H2176 0.930 . S
C2173 C2172 1.369 . S
C2173 C2182 1.429 1_554 S
C2174 C2172 1.419 . S
C2174 C2175 1.363 . S
C2174 H2177 0.929 . S
C2175 C2174 1.363 . S
C2175 C2181 1.428 . S
H2176 C2172 0.930 . S
H2177 C2174 0.929 . S
S2178 N2179 1.613 . S
S2178 N2180 1.610 1_556 S
N2179 S2178 1.613 . S
N2179 C2182 1.350 . S
N2180 S2178 1.610 1_554 S
N2180 C2181 1.351 . S
C2181 C2175 1.428 . S
C2181 N2180 1.351 . S
C2181 C2182 1.434 1_554 S
C2182 C2173 1.429 1_556 S
C2182 N2179 1.350 . S
C2182 C2181 1.434 1_556 S
C2183 C2184 1.369 . S
C2183 C2185 1.419 . S
C2183 H2187 0.930 . S
C2184 C2183 1.369 . S
C2184 C2193 1.429 . S
C2185 C2183 1.419 . S
C2185 C2186 1.363 . S
C2185 H2188 0.929 . S
C2186 C2185 1.363 . S
C2186 C2192 1.428 . S
H2187 C2183 0.930 . S
H2188 C2185 0.929 . S
S2189 N2190 1.613 . S
S2189 N2191 1.610 . S
N2190 S2189 1.613 . S
N2190 C2193 1.350 . S
N2191 S2189 1.610 . S
N2191 C2192 1.351 . S
C2192 C2186 1.428 . S
C2192 N2191 1.351 . S
C2192 C2193 1.434 . S
C2193 C2184 1.429 . S
C2193 N2190 1.350 . S
C2193 C2192 1.434 . S
C2194 C2195 1.369 . S
C2194 C2196 1.419 . S
C2194 H2198 0.930 . S
C2195 C2194 1.369 . S
C2195 C2204 1.429 . S
C2196 C2194 1.419 . S
C2196 C2197 1.363 . S
C2196 H2199 0.929 . S
C2197 C2196 1.363 . S
C2197 C2203 1.428 . S
H2198 C2194 0.930 . S
H2199 C2196 0.929 . S
S2200 N2201 1.613 . S
S2200 N2202 1.610 . S
N2201 S2200 1.613 . S
N2201 C2204 1.350 . S
N2202 S2200 1.610 . S
N2202 C2203 1.351 . S
C2203 C2197 1.428 . S
C2203 N2202 1.351 . S
C2203 C2204 1.434 . S
C2204 C2195 1.429 . S
C2204 N2201 1.350 . S
C2204 C2203 1.434 . S
C2205 C2206 1.369 . S
C2205 C2207 1.419 . S
C2205 H2209 0.930 . S
C2206 C2205 1.369 . S
C2206 C2215 1.429 . S
C2207 C2205 1.419 . S
C2207 C2208 1.363 . S
C2207 H2210 0.929 . S
C2208 C2207 1.363 . S
C2208 C2214 1.428 . S
H2209 C2205 0.930 . S
H2210 C2207 0.929 . S
S2211 N2212 1.613 . S
S2211 N2213 1.610 . S
N2212 S2211 1.613 . S
N2212 C2215 1.350 . S
N2213 S2211 1.610 . S
N2213 C2214 1.351 . S
C2214 C2208 1.428 . S
C2214 N2213 1.351 . S
C2214 C2215 1.434 . S
C2215 C2206 1.429 . S
C2215 N2212 1.350 . S
C2215 C2214 1.434 . S
C2216 C2217 1.369 . S
C2216 C2218 1.419 . S
C2216 H2220 0.930 . S
C2217 C2216 1.369 . S
C2217 C2226 1.429 1_565 S
C2218 C2216 1.419 . S
C2218 C2219 1.363 . S
C2218 H2221 0.929 . S
C2219 C2218 1.363 . S
C2219 C2225 1.428 . S
H2220 C2216 0.930 . S
H2221 C2218 0.929 . S
S2222 N2223 1.613 . S
S2222 N2224 1.610 . S
N2223 S2222 1.613 . S
N2223 C2226 1.350 . S
N2224 S2222 1.610 . S
N2224 C2225 1.351 1_545 S
C2225 C2219 1.428 . S
C2225 N2224 1.351 1_565 S
C2225 C2226 1.434 1_565 S
C2226 C2217 1.429 1_545 S
C2226 N2223 1.350 . S
C2226 C2225 1.434 1_545 S
C2227 C2228 1.369 . S
C2227 C2229 1.419 . S
C2227 H2231 0.930 . S
C2228 C2227 1.369 . S
C2228 C2237 1.429 . S
C2229 C2227 1.419 . S
C2229 C2230 1.363 . S
C2229 H2232 0.929 . S
C2230 C2229 1.363 . S
C2230 C2236 1.428 . S
H2231 C2227 0.930 . S
H2232 C2229 0.929 . S
S2233 N2234 1.613 . S
S2233 N2235 1.610 . S
N2234 S2233 1.613 . S
N2234 C2237 1.350 . S
N2235 S2233 1.610 . S
N2235 C2236 1.351 . S
C2236 C2230 1.428 . S
C2236 N2235 1.351 . S
C2236 C2237 1.434 . S
C2237 C2228 1.429 . S
C2237 N2234 1.350 . S
C2237 C2236 1.434 . S
C2238 C2239 1.369 . S
C2238 C2240 1.419 . S
C2238 H2242 0.930 . S
C2239 C2238 1.369 . S
C2239 C2248 1.429 . S
C2240 C2238 1.419 . S
C2240 C2241 1.363 . S
C2240 H2243 0.929 . S
C2241 C2240 1.363 . S
C2241 C2247 1.428 . S
H2242 C2238 0.930 . S
H2243 C2240 0.929 . S
S2244 N2245 1.613 . S
S2244 N2246 1.610 . S
N2245 S2244 1.613 . S
N2245 C2248 1.350 . S
N2246 S2244 1.610 . S
N2246 C2247 1.351 . S
C2247 C2241 1.428 . S
C2247 N2246 1.351 . S
C2247 C2248 1.434 . S
C2248 C2239 1.429 . S
C2248 N2245 1.350 . S
C2248 C2247 1.434 . S
C2249 C2250 1.369 . S
C2249 C2251 1.419 . S
C2249 H2253 0.930 . S
C2250 C2249 1.369 . S
C2250 C2259 1.429 . S
C2251 C2249 1.419 . S
C2251 C2252 1.363 . S
C2251 H2254 0.929 . S
C2252 C2251 1.363 . S
C2252 C2258 1.428 . S
H2253 C2249 0.930 . S
H2254 C2251 0.929 . S
S2255 N2256 1.613 . S
S2255 N2257 1.610 . S
N2256 S2255 1.613 . S
N2256 C2259 1.350 . S
N2257 S2255 1.610 . S
N2257 C2258 1.351 . S
C2258 C2252 1.428 . S
C2258 N2257 1.351 . S
C2258 C2259 1.434 . S
C2259 C2250 1.429 . S
C2259 N2256 1.350 . S
C2259 C2258 1.434 . S
C2260 C2261 1.369 . S
C2260 C2262 1.419 . S
C2260 H2264 0.930 . S
C2261 C2260 1.369 . S
C2261 C2270 1.429 . S
C2262 C2260 1.419 . S
C2262 C2263 1.363 . S
C2262 H2265 0.929 . S
C2263 C2262 1.363 . S
C2263 C2269 1.428 . S
H2264 C2260 0.930 . S
H2265 C2262 0.929 . S
S2266 N2267 1.613 . S
S2266 N2268 1.610 . S
N2267 S2266 1.613 . S
N2267 C2270 1.350 . S
N2268 S2266 1.610 . S
N2268 C2269 1.351 . S
C2269 C2263 1.428 . S
C2269 N2268 1.351 . S
C2269 C2270 1.434 . S
C2270 C2261 1.429 . S
C2270 N2267 1.350 . S
C2270 C2269 1.434 . S
C2271 C2272 1.369 . S
C2271 C2273 1.419 . S
C2271 H2275 0.930 . S
C2272 C2271 1.369 . S
C2272 C2281 1.429 . S
C2273 C2271 1.419 . S
C2273 C2274 1.363 . S
C2273 H2276 0.929 . S
C2274 C2273 1.363 . S
C2274 C2280 1.428 . S
H2275 C2271 0.930 . S
H2276 C2273 0.929 . S
S2277 N2278 1.613 . S
S2277 N2279 1.610 . S
N2278 S2277 1.613 . S
N2278 C2281 1.350 . S
N2279 S2277 1.610 . S
N2279 C2280 1.351 . S
C2280 C2274 1.428 . S
C2280 N2279 1.351 . S
C2280 C2281 1.434 . S
C2281 C2272 1.429 . S
C2281 N2278 1.350 . S
C2281 C2280 1.434 . S
C2282 C2283 1.369 . S
C2282 C2284 1.419 . S
C2282 H2286 0.930 . S
C2283 C2282 1.369 . S
C2283 C2292 1.429 . S
C2284 C2282 1.419 . S
C2284 C2285 1.363 . S
C2284 H2287 0.929 1_565 S
C2285 C2284 1.363 . S
C2285 C2291 1.428 . S
H2286 C2282 0.930 . S
H2287 C2284 0.929 1_545 S
S2288 N2289 1.613 . S
S2288 N2290 1.610 . S
N2289 S2288 1.613 . S
N2289 C2292 1.350 . S
N2290 S2288 1.610 . S
N2290 C2291 1.351 . S
C2291 C2285 1.428 . S
C2291 N2290 1.351 . S
C2291 C2292 1.434 . S
C2292 C2283 1.429 . S
C2292 N2289 1.350 . S
C2292 C2291 1.434 . S
C2293 C2294 1.369 . S
C2293 C2295 1.419 . S
C2293 H2297 0.930 . S
C2294 C2293 1.369 . S
C2294 C2303 1.429 . S
C2295 C2293 1.419 . S
C2295 C2296 1.363 . S
C2295 H2298 0.929 . S
C2296 C2295 1.363 . S
C2296 C2302 1.428 . S
H2297 C2293 0.930 . S
H2298 C2295 0.929 . S
S2299 N2300 1.613 . S
S2299 N2301 1.610 . S
N2300 S2299 1.613 . S
N2300 C2303 1.350 . S
N2301 S2299 1.610 . S
N2301 C2302 1.351 . S
C2302 C2296 1.428 . S
C2302 N2301 1.351 . S
C2302 C2303 1.434 . S
C2303 C2294 1.429 . S
C2303 N2300 1.350 . S
C2303 C2302 1.434 . S
C2304 C2305 1.369 . S
C2304 C2306 1.419 . S
C2304 H2308 0.930 . S
C2305 C2304 1.369 . S
C2305 C2314 1.429 . S
C2306 C2304 1.419 . S
C2306 C2307 1.363 . S
C2306 H2309 0.929 . S
C2307 C2306 1.363 . S
C2307 C2313 1.428 . S
H2308 C2304 0.930 . S
H2309 C2306 0.929 . S
S2310 N2311 1.613 . S
S2310 N2312 1.610 . S
N2311 S2310 1.613 . S
N2311 C2314 1.350 . S
N2312 S2310 1.610 . S
N2312 C2313 1.351 . S
C2313 C2307 1.428 . S
C2313 N2312 1.351 . S
C2313 C2314 1.434 . S
C2314 C2305 1.429 . S
C2314 N2311 1.350 . S
C2314 C2313 1.434 . S
C2315 C2316 1.369 . S
C2315 C2317 1.419 . S
C2315 H2319 0.930 . S
C2316 C2315 1.369 . S
C2316 C2325 1.429 . S
C2317 C2315 1.419 . S
C2317 C2318 1.363 . S
C2317 H2320 0.929 . S
C2318 C2317 1.363 . S
C2318 C2324 1.428 . S
H2319 C2315 0.930 . S
H2320 C2317 0.929 . S
S2321 N2322 1.613 . S
S2321 N2323 1.610 . S
N2322 S2321 1.613 . S
N2322 C2325 1.350 . S
N2323 S2321 1.610 . S
N2323 C2324 1.351 . S
C2324 C2318 1.428 . S
C2324 N2323 1.351 . S
C2324 C2325 1.434 . S
C2325 C2316 1.429 . S
C2325 N2322 1.350 . S
C2325 C2324 1.434 . S
C2326 C2327 1.369 . S
C2326 C2328 1.419 . S
C2326 H2330 0.930 . S
C2327 C2326 1.369 . S
C2327 C2336 1.429 . S
C2328 C2326 1.419 . S
C2328 C2329 1.363 . S
C2328 H2331 0.929 . S
C2329 C2328 1.363 . S
C2329 C2335 1.428 . S
H2330 C2326 0.930 . S
H2331 C2328 0.929 . S
S2332 N2333 1.613 . S
S2332 N2334 1.610 . S
N2333 S2332 1.613 . S
N2333 C2336 1.350 . S
N2334 S2332 1.610 . S
N2334 C2335 1.351 . S
C2335 C2329 1.428 . S
C2335 N2334 1.351 . S
C2335 C2336 1.434 . S
C2336 C2327 1.429 . S
C2336 N2333 1.350 . S
C2336 C2335 1.434 . S
C2337 C2338 1.369 . S
C2337 C2339 1.419 . S
C2337 H2341 0.930 . S
C2338 C2337 1.369 . S
C2338 C2347 1.429 . S
C2339 C2337 1.419 . S
C2339 C2340 1.363 . S
C2339 H2342 0.929 . S
C2340 C2339 1.363 . S
C2340 C2346 1.428 . S
H2341 C2337 0.930 . S
H2342 C2339 0.929 . S
S2343 N2344 1.613 . S
S2343 N2345 1.610 . S
N2344 S2343 1.613 . S
N2344 C2347 1.350 . S
N2345 S2343 1.610 . S
N2345 C2346 1.351 . S
C2346 C2340 1.428 . S
C2346 N2345 1.351 . S
C2346 C2347 1.434 . S
C2347 C2338 1.429 . S
C2347 N2344 1.350 . S
C2347 C2346 1.434 . S
C2348 C2349 1.369 . S
C2348 C2350 1.419 . S
C2348 H2352 0.930 . S
C2349 C2348 1.369 . S
C2349 C2358 1.429 . S
C2350 C2348 1.419 . S
C2350 C2351 1.363 . S
C2350 H2353 0.929 . S
C2351 C2350 1.363 . S
C2351 C2357 1.428 . S
H2352 C2348 0.930 . S
H2353 C2350 0.929 . S
S2354 N2355 1.613 . S
S2354 N2356 1.610 . S
N2355 S2354 1.613 . S
N2355 C2358 1.350 . S
N2356 S2354 1.610 . S
N2356 C2357 1.351 . S
C2357 C2351 1.428 . S
C2357 N2356 1.351 . S
C2357 C2358 1.434 . S
C2358 C2349 1.429 . S
C2358 N2355 1.350 . S
C2358 C2357 1.434 . S
C2359 C2360 1.369 . S
C2359 C2361 1.419 . S
C2359 H2363 0.930 . S
C2360 C2359 1.369 . S
C2360 C2369 1.429 . S
C2361 C2359 1.419 . S
C2361 C2362 1.363 . S
C2361 H2364 0.929 . S
C2362 C2361 1.363 . S
C2362 C2368 1.428 . S
H2363 C2359 0.930 . S
H2364 C2361 0.929 . S
S2365 N2366 1.613 . S
S2365 N2367 1.610 . S
N2366 S2365 1.613 . S
N2366 C2369 1.350 . S
N2367 S2365 1.610 . S
N2367 C2368 1.351 . S
C2368 C2362 1.428 . S
C2368 N2367 1.351 . S
C2368 C2369 1.434 . S
C2369 C2360 1.429 . S
C2369 N2366 1.350 . S
C2369 C2368 1.434 . S
C2370 C2371 1.369 . S
C2370 C2372 1.419 . S
C2370 H2374 0.930 . S
C2371 C2370 1.369 . S
C2371 C2380 1.429 . S
C2372 C2370 1.419 . S
C2372 C2373 1.363 . S
C2372 H2375 0.929 . S
C2373 C2372 1.363 . S
C2373 C2379 1.428 . S
H2374 C2370 0.930 . S
H2375 C2372 0.929 . S
S2376 N2377 1.613 . S
S2376 N2378 1.610 . S
N2377 S2376 1.613 . S
N2377 C2380 1.350 . S
N2378 S2376 1.610 . S
N2378 C2379 1.351 . S
C2379 C2373 1.428 . S
C2379 N2378 1.351 . S
C2379 C2380 1.434 . S
C2380 C2371 1.429 . S
C2380 N2377 1.350 . S
C2380 C2379 1.434 . S
C2381 C2382 1.369 . S
C2381 C2383 1.419 . S
C2381 H2385 0.930 . S
C2382 C2381 1.369 . S
C2382 C2391 1.429 . S
C2383 C2381 1.419 . S
C2383 C2384 1.363 . S
C2383 H2386 0.929 . S
C2384 C2383 1.363 . S
C2384 C2390 1.428 . S
H2385 C2381 0.930 . S
H2386 C2383 0.929 . S
S2387 N2388 1.613 . S
S2387 N2389 1.610 . S
N2388 S2387 1.613 . S
N2388 C2391 1.350 . S
N2389 S2387 1.610 . S
N2389 C2390 1.351 . S
C2390 C2384 1.428 . S
C2390 N2389 1.351 . S
C2390 C2391 1.434 . S
C2391 C2382 1.429 . S
C2391 N2388 1.350 . S
C2391 C2390 1.434 . S
C2392 C2393 1.369 . S
C2392 C2394 1.419 . S
C2392 H2396 0.930 . S
C2393 C2392 1.369 . S
C2393 C2402 1.429 . S
C2394 C2392 1.419 . S
C2394 C2395 1.363 . S
C2394 H2397 0.929 . S
C2395 C2394 1.363 . S
C2395 C2401 1.428 . S
H2396 C2392 0.930 . S
H2397 C2394 0.929 . S
S2398 N2399 1.613 . S
S2398 N2400 1.610 . S
N2399 S2398 1.613 . S
N2399 C2402 1.350 . S
N2400 S2398 1.610 . S
N2400 C2401 1.351 . S
C2401 C2395 1.428 . S
C2401 N2400 1.351 . S
C2401 C2402 1.434 . S
C2402 C2393 1.429 . S
C2402 N2399 1.350 . S
C2402 C2401 1.434 . S
C2403 C2404 1.369 . S
C2403 C2405 1.419 . S
C2403 H2407 0.930 . S
C2404 C2403 1.369 . S
C2404 C2413 1.429 . S
C2405 C2403 1.419 . S
C2405 C2406 1.363 . S
C2405 H2408 0.929 . S
C2406 C2405 1.363 . S
C2406 C2412 1.428 . S
H2407 C2403 0.930 . S
H2408 C2405 0.929 . S
S2409 N2410 1.613 . S
S2409 N2411 1.610 . S
N2410 S2409 1.613 . S
N2410 C2413 1.350 . S
N2411 S2409 1.610 . S
N2411 C2412 1.351 . S
C2412 C2406 1.428 . S
C2412 N2411 1.351 . S
C2412 C2413 1.434 . S
C2413 C2404 1.429 . S
C2413 N2410 1.350 . S
C2413 C2412 1.434 . S
C2414 C2415 1.369 . S
C2414 C2416 1.419 . S
C2414 H2418 0.930 . S
C2415 C2414 1.369 . S
C2415 C2424 1.429 . S
C2416 C2414 1.419 . S
C2416 C2417 1.363 . S
C2416 H2419 0.929 . S
C2417 C2416 1.363 . S
C2417 C2423 1.428 . S
H2418 C2414 0.930 . S
H2419 C2416 0.929 . S
S2420 N2421 1.613 . S
S2420 N2422 1.610 . S
N2421 S2420 1.613 . S
N2421 C2424 1.350 . S
N2422 S2420 1.610 . S
N2422 C2423 1.351 . S
C2423 C2417 1.428 . S
C2423 N2422 1.351 . S
C2423 C2424 1.434 . S
C2424 C2415 1.429 . S
C2424 N2421 1.350 . S
C2424 C2423 1.434 . S
C2425 C2426 1.369 . S
C2425 C2427 1.419 . S
C2425 H2429 0.930 . S
C2426 C2425 1.369 . S
C2426 C2435 1.429 . S
C2427 C2425 1.419 . S
C2427 C2428 1.363 . S
C2427 H2430 0.929 . S
C2428 C2427 1.363 . S
C2428 C2434 1.428 . S
H2429 C2425 0.930 . S
H2430 C2427 0.929 . S
S2431 N2432 1.613 . S
S2431 N2433 1.610 . S
N2432 S2431 1.613 . S
N2432 C2435 1.350 . S
N2433 S2431 1.610 . S
N2433 C2434 1.351 . S
C2434 C2428 1.428 . S
C2434 N2433 1.351 . S
C2434 C2435 1.434 . S
C2435 C2426 1.429 . S
C2435 N2432 1.350 . S
C2435 C2434 1.434 . S
C2436 C2437 1.369 . S
C2436 C2438 1.419 . S
C2436 H2440 0.930 . S
C2437 C2436 1.369 . S
C2437 C2446 1.429 . S
C2438 C2436 1.419 . S
C2438 C2439 1.363 . S
C2438 H2441 0.929 . S
C2439 C2438 1.363 . S
C2439 C2445 1.428 . S
H2440 C2436 0.930 . S
H2441 C2438 0.929 . S
S2442 N2443 1.613 . S
S2442 N2444 1.610 . S
N2443 S2442 1.613 . S
N2443 C2446 1.350 . S
N2444 S2442 1.610 . S
N2444 C2445 1.351 . S
C2445 C2439 1.428 . S
C2445 N2444 1.351 . S
C2445 C2446 1.434 . S
C2446 C2437 1.429 . S
C2446 N2443 1.350 . S
C2446 C2445 1.434 . S
C2447 C2448 1.369 . S
C2447 C2449 1.419 . S
C2447 H2451 0.930 . S
C2448 C2447 1.369 . S
C2448 C2457 1.429 . S
C2449 C2447 1.419 . S
C2449 C2450 1.363 . S
C2449 H2452 0.929 . S
C2450 C2449 1.363 . S
C2450 C2456 1.428 . S
H2451 C2447 0.930 . S
H2452 C2449 0.929 . S
S2453 N2454 1.613 . S
S2453 N2455 1.610 . S
N2454 S2453 1.613 . S
N2454 C2457 1.350 . S
N2455 S2453 1.610 . S
N2455 C2456 1.351 . S
C2456 C2450 1.428 . S
C2456 N2455 1.351 . S
C2456 C2457 1.434 . S
C2457 C2448 1.429 . S
C2457 N2454 1.350 . S
C2457 C2456 1.434 . S
C2458 C2459 1.369 . S
C2458 C2460 1.419 . S
C2458 H2462 0.930 . S
C2459 C2458 1.369 . S
C2459 C2468 1.429 . S
C2460 C2458 1.419 . S
C2460 C2461 1.363 . S
C2460 H2463 0.929 . S
C2461 C2460 1.363 . S
C2461 C2467 1.428 . S
H2462 C2458 0.930 . S
H2463 C2460 0.929 . S
S2464 N2465 1.613 . S
S2464 N2466 1.610 . S
N2465 S2464 1.613 . S
N2465 C2468 1.350 . S
N2466 S2464 1.610 . S
N2466 C2467 1.351 . S
C2467 C2461 1.428 . S
C2467 N2466 1.351 . S
C2467 C2468 1.434 . S
C2468 C2459 1.429 . S
C2468 N2465 1.350 . S
C2468 C2467 1.434 . S
C2469 C2470 1.369 . S
C2469 C2471 1.419 . S
C2469 H2473 0.930 . S
C2470 C2469 1.369 . S
C2470 C2479 1.429 . S
C2471 C2469 1.419 . S
C2471 C2472 1.363 . S
C2471 H2474 0.929 . S
C2472 C2471 1.363 . S
C2472 C2478 1.428 . S
H2473 C2469 0.930 . S
H2474 C2471 0.929 . S
S2475 N2476 1.613 . S
S2475 N2477 1.610 . S
N2476 S2475 1.613 . S
N2476 C2479 1.350 . S
N2477 S2475 1.610 . S
N2477 C2478 1.351 . S
C2478 C2472 1.428 . S
C2478 N2477 1.351 . S
C2478 C2479 1.434 . S
C2479 C2470 1.429 . S
C2479 N2476 1.350 . S
C2479 C2478 1.434 . S
C2480 C2481 1.369 . S
C2480 C2482 1.419 . S
C2480 H2484 0.930 . S
C2481 C2480 1.369 . S
C2481 C2490 1.429 . S
C2482 C2480 1.419 . S
C2482 C2483 1.363 . S
C2482 H2485 0.929 . S
C2483 C2482 1.363 . S
C2483 C2489 1.428 . S
H2484 C2480 0.930 . S
H2485 C2482 0.929 . S
S2486 N2487 1.613 . S
S2486 N2488 1.610 . S
N2487 S2486 1.613 . S
N2487 C2490 1.350 . S
N2488 S2486 1.610 . S
N2488 C2489 1.351 . S
C2489 C2483 1.428 . S
C2489 N2488 1.351 . S
C2489 C2490 1.434 . S
C2490 C2481 1.429 . S
C2490 N2487 1.350 . S
C2490 C2489 1.434 . S
C2491 C2492 1.369 . S
C2491 C2493 1.419 . S
C2491 H2495 0.930 . S
C2492 C2491 1.369 . S
C2492 C2501 1.429 . S
C2493 C2491 1.419 . S
C2493 C2494 1.363 . S
C2493 H2496 0.929 . S
C2494 C2493 1.363 . S
C2494 C2500 1.428 . S
H2495 C2491 0.930 . S
H2496 C2493 0.929 . S
S2497 N2498 1.613 . S
S2497 N2499 1.610 . S
N2498 S2497 1.613 . S
N2498 C2501 1.350 . S
N2499 S2497 1.610 . S
N2499 C2500 1.351 . S
C2500 C2494 1.428 . S
C2500 N2499 1.351 . S
C2500 C2501 1.434 . S
C2501 C2492 1.429 . S
C2501 N2498 1.350 . S
C2501 C2500 1.434 . S
C2502 C2503 1.369 . S
C2502 C2504 1.419 . S
C2502 H2506 0.930 . S
C2503 C2502 1.369 . S
C2503 C2512 1.429 . S
C2504 C2502 1.419 . S
C2504 C2505 1.363 . S
C2504 H2507 0.929 . S
C2505 C2504 1.363 . S
C2505 C2511 1.428 . S
H2506 C2502 0.930 . S
H2507 C2504 0.929 . S
S2508 N2509 1.613 . S
S2508 N2510 1.610 . S
N2509 S2508 1.613 . S
N2509 C2512 1.350 . S
N2510 S2508 1.610 . S
N2510 C2511 1.351 . S
C2511 C2505 1.428 . S
C2511 N2510 1.351 . S
C2511 C2512 1.434 . S
C2512 C2503 1.429 . S
C2512 N2509 1.350 . S
C2512 C2511 1.434 . S
C2513 C2514 1.369 . S
C2513 C2515 1.419 . S
C2513 H2517 0.930 . S
C2514 C2513 1.369 . S
C2514 C2523 1.429 . S
C2515 C2513 1.419 . S
C2515 C2516 1.363 . S
C2515 H2518 0.929 . S
C2516 C2515 1.363 . S
C2516 C2522 1.428 . S
H2517 C2513 0.930 . S
H2518 C2515 0.929 . S
S2519 N2520 1.613 . S
S2519 N2521 1.610 . S
N2520 S2519 1.613 . S
N2520 C2523 1.350 . S
N2521 S2519 1.610 . S
N2521 C2522 1.351 . S
C2522 C2516 1.428 . S
C2522 N2521 1.351 . S
C2522 C2523 1.434 . S
C2523 C2514 1.429 . S
C2523 N2520 1.350 . S
C2523 C2522 1.434 . S
C2524 C2525 1.369 . S
C2524 C2526 1.419 . S
C2524 H2528 0.930 . S
C2525 C2524 1.369 . S
C2525 C2534 1.429 . S
C2526 C2524 1.419 . S
C2526 C2527 1.363 . S
C2526 H2529 0.929 . S
C2527 C2526 1.363 . S
C2527 C2533 1.428 . S
H2528 C2524 0.930 . S
H2529 C2526 0.929 . S
S2530 N2531 1.613 . S
S2530 N2532 1.610 . S
N2531 S2530 1.613 . S
N2531 C2534 1.350 . S
N2532 S2530 1.610 . S
N2532 C2533 1.351 . S
C2533 C2527 1.428 . S
C2533 N2532 1.351 . S
C2533 C2534 1.434 . S
C2534 C2525 1.429 . S
C2534 N2531 1.350 . S
C2534 C2533 1.434 . S
C2535 C2536 1.369 . S
C2535 C2537 1.419 . S
C2535 H2539 0.930 . S
C2536 C2535 1.369 . S
C2536 C2545 1.429 . S
C2537 C2535 1.419 . S
C2537 C2538 1.363 . S
C2537 H2540 0.929 . S
C2538 C2537 1.363 . S
C2538 C2544 1.428 . S
H2539 C2535 0.930 . S
H2540 C2537 0.929 . S
S2541 N2542 1.613 . S
S2541 N2543 1.610 . S
N2542 S2541 1.613 . S
N2542 C2545 1.350 . S
N2543 S2541 1.610 . S
N2543 C2544 1.351 . S
C2544 C2538 1.428 . S
C2544 N2543 1.351 . S
C2544 C2545 1.434 . S
C2545 C2536 1.429 . S
C2545 N2542 1.350 . S
C2545 C2544 1.434 . S
C2546 C2547 1.369 . S
C2546 C2548 1.419 . S
C2546 H2550 0.930 . S
C2547 C2546 1.369 . S
C2547 C2556 1.429 . S
C2548 C2546 1.419 . S
C2548 C2549 1.363 . S
C2548 H2551 0.929 . S
C2549 C2548 1.363 . S
C2549 C2555 1.428 . S
H2550 C2546 0.930 . S
H2551 C2548 0.929 . S
S2552 N2553 1.613 . S
S2552 N2554 1.610 . S
N2553 S2552 1.613 . S
N2553 C2556 1.350 . S
N2554 S2552 1.610 . S
N2554 C2555 1.351 . S
C2555 C2549 1.428 . S
C2555 N2554 1.351 . S
C2555 C2556 1.434 . S
C2556 C2547 1.429 . S
C2556 N2553 1.350 . S
C2556 C2555 1.434 . S
C2557 C2558 1.369 . S
C2557 C2559 1.419 . S
C2557 H2561 0.930 . S
C2558 C2557 1.369 . S
C2558 C2567 1.429 . S
C2559 C2557 1.419 . S
C2559 C2560 1.363 . S
C2559 H2562 0.929 . S
C2560 C2559 1.363 . S
C2560 C2566 1.428 . S
H2561 C2557 0.930 . S
H2562 C2559 0.929 . S
S2563 N2564 1.613 . S
S2563 N2565 1.610 . S
N2564 S2563 1.613 . S
N2564 C2567 1.350 . S
N2565 S2563 1.610 . S
N2565 C2566 1.351 . S
C2566 C2560 1.428 . S
C2566 N2565 1.351 . S
C2566 C2567 1.434 . S
C2567 C2558 1.429 . S
C2567 N2564 1.350 . S
C2567 C2566 1.434 . S
C2568 C2569 1.369 . S
C2568 C2570 1.419 . S
C2568 H2572 0.930 . S
C2569 C2568 1.369 . S
C2569 C2578 1.429 . S
C2570 C2568 1.419 . S
C2570 C2571 1.363 . S
C2570 H2573 0.929 . S
C2571 C2570 1.363 . S
C2571 C2577 1.428 . S
H2572 C2568 0.930 . S
H2573 C2570 0.929 . S
S2574 N2575 1.613 . S
S2574 N2576 1.610 . S
N2575 S2574 1.613 . S
N2575 C2578 1.350 . S
N2576 S2574 1.610 . S
N2576 C2577 1.351 . S
C2577 C2571 1.428 . S
C2577 N2576 1.351 . S
C2577 C2578 1.434 . S
C2578 C2569 1.429 . S
C2578 N2575 1.350 . S
C2578 C2577 1.434 . S
C2579 C2580 1.369 . S
C2579 C2581 1.419 . S
C2579 H2583 0.930 . S
C2580 C2579 1.369 . S
C2580 C2589 1.429 . S
C2581 C2579 1.419 . S
C2581 C2582 1.363 . S
C2581 H2584 0.929 . S
C2582 C2581 1.363 . S
C2582 C2588 1.428 . S
H2583 C2579 0.930 . S
H2584 C2581 0.929 . S
S2585 N2586 1.613 . S
S2585 N2587 1.610 . S
N2586 S2585 1.613 . S
N2586 C2589 1.350 . S
N2587 S2585 1.610 . S
N2587 C2588 1.351 . S
C2588 C2582 1.428 . S
C2588 N2587 1.351 . S
C2588 C2589 1.434 . S
C2589 C2580 1.429 . S
C2589 N2586 1.350 . S
C2589 C2588 1.434 . S
C2590 C2591 1.369 . S
C2590 C2592 1.419 . S
C2590 H2594 0.930 . S
C2591 C2590 1.369 . S
C2591 C2600 1.429 . S
C2592 C2590 1.419 . S
C2592 C2593 1.363 . S
C2592 H2595 0.929 . S
C2593 C2592 1.363 . S
C2593 C2599 1.428 . S
H2594 C2590 0.930 . S
H2595 C2592 0.929 . S
S2596 N2597 1.613 . S
S2596 N2598 1.610 . S
N2597 S2596 1.613 . S
N2597 C2600 1.350 . S
N2598 S2596 1.610 . S
N2598 C2599 1.351 . S
C2599 C2593 1.428 . S
C2599 N2598 1.351 . S
C2599 C2600 1.434 . S
C2600 C2591 1.429 . S
C2600 N2597 1.350 . S
C2600 C2599 1.434 . S
C2601 C2602 1.369 . S
C2601 C2603 1.419 . S
C2601 H2605 0.930 . S
C2602 C2601 1.369 . S
C2602 C2611 1.429 . S
C2603 C2601 1.419 . S
C2603 C2604 1.363 . S
C2603 H2606 0.929 . S
C2604 C2603 1.363 . S
C2604 C2610 1.428 . S
H2605 C2601 0.930 . S
H2606 C2603 0.929 . S
S2607 N2608 1.613 . S
S2607 N2609 1.610 . S
N2608 S2607 1.613 . S
N2608 C2611 1.350 . S
N2609 S2607 1.610 . S
N2609 C2610 1.351 . S
C2610 C2604 1.428 . S
C2610 N2609 1.351 . S
C2610 C2611 1.434 . S
C2611 C2602 1.429 . S
C2611 N2608 1.350 . S
C2611 C2610 1.434 . S
C2612 C2613 1.369 . S
C2612 C2614 1.419 . S
C2612 H2616 0.930 . S
C2613 C2612 1.369 . S
C2613 C2622 1.429 . S
C2614 C2612 1.419 . S
C2614 C2615 1.363 . S
C2614 H2617 0.929 . S
C2615 C2614 1.363 . S
C2615 C2621 1.428 . S
H2616 C2612 0.930 . S
H2617 C2614 0.929 . S
S2618 N2619 1.613 . S
S2618 N2620 1.610 . S
N2619 S2618 1.613 . S
N2619 C2622 1.350 . S
N2620 S2618 1.610 . S
N2620 C2621 1.351 . S
C2621 C2615 1.428 . S
C2621 N2620 1.351 . S
C2621 C2622 1.434 . S
C2622 C2613 1.429 . S
C2622 N2619 1.350 . S
C2622 C2621 1.434 . S
C2623 C2624 1.369 . S
C2623 C2625 1.419 . S
C2623 H2627 0.930 . S
C2624 C2623 1.369 . S
C2624 C2633 1.429 . S
C2625 C2623 1.419 . S
C2625 C2626 1.363 . S
C2625 H2628 0.929 . S
C2626 C2625 1.363 . S
C2626 C2632 1.428 . S
H2627 C2623 0.930 . S
H2628 C2625 0.929 . S
S2629 N2630 1.613 . S
S2629 N2631 1.610 . S
N2630 S2629 1.613 . S
N2630 C2633 1.350 . S
N2631 S2629 1.610 . S
N2631 C2632 1.351 . S
C2632 C2626 1.428 . S
C2632 N2631 1.351 . S
C2632 C2633 1.434 . S
C2633 C2624 1.429 . S
C2633 N2630 1.350 . S
C2633 C2632 1.434 . S
C2634 C2635 1.369 . S
C2634 C2636 1.419 . S
C2634 H2638 0.930 . S
C2635 C2634 1.369 . S
C2635 C2644 1.429 . S
C2636 C2634 1.419 . S
C2636 C2637 1.363 . S
C2636 H2639 0.929 . S
C2637 C2636 1.363 . S
C2637 C2643 1.428 . S
H2638 C2634 0.930 . S
H2639 C2636 0.929 . S
S2640 N2641 1.613 . S
S2640 N2642 1.610 . S
N2641 S2640 1.613 . S
N2641 C2644 1.350 . S
N2642 S2640 1.610 . S
N2642 C2643 1.351 . S
C2643 C2637 1.428 . S
C2643 N2642 1.351 . S
C2643 C2644 1.434 . S
C2644 C2635 1.429 . S
C2644 N2641 1.350 . S
C2644 C2643 1.434 . S
C2645 C2646 1.369 . S
C2645 C2647 1.419 . S
C2645 H2649 0.930 . S
C2646 C2645 1.369 . S
C2646 C2655 1.429 . S
C2647 C2645 1.419 . S
C2647 C2648 1.363 . S
C2647 H2650 0.929 . S
C2648 C2647 1.363 . S
C2648 C2654 1.428 . S
H2649 C2645 0.930 . S
H2650 C2647 0.929 . S
S2651 N2652 1.613 . S
S2651 N2653 1.610 . S
N2652 S2651 1.613 . S
N2652 C2655 1.350 . S
N2653 S2651 1.610 . S
N2653 C2654 1.351 . S
C2654 C2648 1.428 . S
C2654 N2653 1.351 . S
C2654 C2655 1.434 . S
C2655 C2646 1.429 . S
C2655 N2652 1.350 . S
C2655 C2654 1.434 . S
C2656 C2657 1.369 . S
C2656 C2658 1.419 . S
C2656 H2660 0.930 . S
C2657 C2656 1.369 . S
C2657 C2666 1.429 . S
C2658 C2656 1.419 . S
C2658 C2659 1.363 . S
C2658 H2661 0.929 . S
C2659 C2658 1.363 . S
C2659 C2665 1.428 . S
H2660 C2656 0.930 . S
H2661 C2658 0.929 . S
S2662 N2663 1.613 . S
S2662 N2664 1.610 . S
N2663 S2662 1.613 . S
N2663 C2666 1.350 . S
N2664 S2662 1.610 . S
N2664 C2665 1.351 . S
C2665 C2659 1.428 . S
C2665 N2664 1.351 . S
C2665 C2666 1.434 . S
C2666 C2657 1.429 . S
C2666 N2663 1.350 . S
C2666 C2665 1.434 . S
C2667 C2668 1.369 . S
C2667 C2669 1.419 . S
C2667 H2671 0.930 . S
C2668 C2667 1.369 . S
C2668 C2677 1.429 . S
C2669 C2667 1.419 . S
C2669 C2670 1.363 . S
C2669 H2672 0.929 . S
C2670 C2669 1.363 . S
C2670 C2676 1.428 . S
H2671 C2667 0.930 . S
H2672 C2669 0.929 . S
S2673 N2674 1.613 . S
S2673 N2675 1.610 . S
N2674 S2673 1.613 . S
N2674 C2677 1.350 . S
N2675 S2673 1.610 . S
N2675 C2676 1.351 . S
C2676 C2670 1.428 . S
C2676 N2675 1.351 . S
C2676 C2677 1.434 . S
C2677 C2668 1.429 . S
C2677 N2674 1.350 . S
C2677 C2676 1.434 . S
C2678 C2679 1.369 . S
C2678 C2680 1.419 . S
C2678 H2682 0.930 . S
C2679 C2678 1.369 . S
C2679 C2688 1.429 . S
C2680 C2678 1.419 . S
C2680 C2681 1.363 . S
C2680 H2683 0.929 . S
C2681 C2680 1.363 . S
C2681 C2687 1.428 . S
H2682 C2678 0.930 . S
H2683 C2680 0.929 . S
S2684 N2685 1.613 . S
S2684 N2686 1.610 . S
N2685 S2684 1.613 . S
N2685 C2688 1.350 . S
N2686 S2684 1.610 . S
N2686 C2687 1.351 . S
C2687 C2681 1.428 . S
C2687 N2686 1.351 . S
C2687 C2688 1.434 . S
C2688 C2679 1.429 . S
C2688 N2685 1.350 . S
C2688 C2687 1.434 . S
C2689 C2690 1.369 . S
C2689 C2691 1.419 . S
C2689 H2693 0.930 . S
C2690 C2689 1.369 . S
C2690 C2699 1.429 . S
C2691 C2689 1.419 . S
C2691 C2692 1.363 . S
C2691 H2694 0.929 . S
C2692 C2691 1.363 . S
C2692 C2698 1.428 . S
H2693 C2689 0.930 . S
H2694 C2691 0.929 . S
S2695 N2696 1.613 . S
S2695 N2697 1.610 . S
N2696 S2695 1.613 . S
N2696 C2699 1.350 . S
N2697 S2695 1.610 . S
N2697 C2698 1.351 . S
C2698 C2692 1.428 . S
C2698 N2697 1.351 . S
C2698 C2699 1.434 . S
C2699 C2690 1.429 . S
C2699 N2696 1.350 . S
C2699 C2698 1.434 . S
C2700 C2701 1.369 . S
C2700 C2702 1.419 . S
C2700 H2704 0.930 . S
C2701 C2700 1.369 . S
C2701 C2710 1.429 . S
C2702 C2700 1.419 . S
C2702 C2703 1.363 . S
C2702 H2705 0.929 . S
C2703 C2702 1.363 . S
C2703 C2709 1.428 . S
H2704 C2700 0.930 . S
H2705 C2702 0.929 . S
S2706 N2707 1.613 . S
S2706 N2708 1.610 . S
N2707 S2706 1.613 . S
N2707 C2710 1.350 . S
N2708 S2706 1.610 . S
N2708 C2709 1.351 . S
C2709 C2703 1.428 . S
C2709 N2708 1.351 . S
C2709 C2710 1.434 . S
C2710 C2701 1.429 . S
C2710 N2707 1.350 . S
C2710 C2709 1.434 . S
C2711 C2712 1.369 . S
C2711 C2713 1.419 . S
C2711 H2715 0.930 . S
C2712 C2711 1.369 . S
C2712 C2721 1.429 . S
C2713 C2711 1.419 . S
C2713 C2714 1.363 . S
C2713 H2716 0.929 . S
C2714 C2713 1.363 . S
C2714 C2720 1.428 . S
H2715 C2711 0.930 . S
H2716 C2713 0.929 . S
S2717 N2718 1.613 . S
S2717 N2719 1.610 . S
N2718 S2717 1.613 . S
N2718 C2721 1.350 . S
N2719 S2717 1.610 . S
N2719 C2720 1.351 . S
C2720 C2714 1.428 . S
C2720 N2719 1.351 . S
C2720 C2721 1.434 . S
C2721 C2712 1.429 . S
C2721 N2718 1.350 . S
C2721 C2720 1.434 . S
C2722 C2723 1.369 . S
C2722 C2724 1.419 . S
C2722 H2726 0.930 . S
C2723 C2722 1.369 . S
C2723 C2732 1.429 . S
C2724 C2722 1.419 . S
C2724 C2725 1.363 . S
C2724 H2727 0.929 . S
C2725 C2724 1.363 . S
C2725 C2731 1.428 . S
H2726 C2722 0.930 . S
H2727 C2724 0.929 . S
S2728 N2729 1.613 . S
S2728 N2730 1.610 . S
N2729 S2728 1.613 . S
N2729 C2732 1.350 . S
N2730 S2728 1.610 . S
N2730 C2731 1.351 . S
C2731 C2725 1.428 . S
C2731 N2730 1.351 . S
C2731 C2732 1.434 . S
C2732 C2723 1.429 . S
C2732 N2729 1.350 . S
C2732 C2731 1.434 . S
C2733 C2734 1.369 . S
C2733 C2735 1.419 . S
C2733 H2737 0.930 . S
C2734 C2733 1.369 . S
C2734 C2743 1.429 . S
C2735 C2733 1.419 . S
C2735 C2736 1.363 . S
C2735 H2738 0.929 . S
C2736 C2735 1.363 . S
C2736 C2742 1.428 . S
H2737 C2733 0.930 . S
H2738 C2735 0.929 . S
S2739 N2740 1.613 . S
S2739 N2741 1.610 . S
N2740 S2739 1.613 . S
N2740 C2743 1.350 . S
N2741 S2739 1.610 . S
N2741 C2742 1.351 . S
C2742 C2736 1.428 . S
C2742 N2741 1.351 . S
C2742 C2743 1.434 . S
C2743 C2734 1.429 . S
C2743 N2740 1.350 . S
C2743 C2742 1.434 . S
C2744 C2745 1.369 . S
C2744 C2746 1.419 . S
C2744 H2748 0.930 . S
C2745 C2744 1.369 . S
C2745 C2754 1.429 . S
C2746 C2744 1.419 . S
C2746 C2747 1.363 . S
C2746 H2749 0.929 . S
C2747 C2746 1.363 . S
C2747 C2753 1.428 . S
H2748 C2744 0.930 . S
H2749 C2746 0.929 . S
S2750 N2751 1.613 . S
S2750 N2752 1.610 . S
N2751 S2750 1.613 . S
N2751 C2754 1.350 . S
N2752 S2750 1.610 . S
N2752 C2753 1.351 . S
C2753 C2747 1.428 . S
C2753 N2752 1.351 . S
C2753 C2754 1.434 . S
C2754 C2745 1.429 . S
C2754 N2751 1.350 . S
C2754 C2753 1.434 . S
C2755 C2756 1.369 . S
C2755 C2757 1.419 . S
C2755 H2759 0.930 . S
C2756 C2755 1.369 . S
C2756 C2765 1.429 . S
C2757 C2755 1.419 . S
C2757 C2758 1.363 . S
C2757 H2760 0.929 . S
C2758 C2757 1.363 . S
C2758 C2764 1.428 . S
H2759 C2755 0.930 . S
H2760 C2757 0.929 . S
S2761 N2762 1.613 . S
S2761 N2763 1.610 . S
N2762 S2761 1.613 . S
N2762 C2765 1.350 . S
N2763 S2761 1.610 . S
N2763 C2764 1.351 . S
C2764 C2758 1.428 . S
C2764 N2763 1.351 . S
C2764 C2765 1.434 . S
C2765 C2756 1.429 . S
C2765 N2762 1.350 . S
C2765 C2764 1.434 . S
C2766 C2767 1.369 . S
C2766 C2768 1.419 . S
C2766 H2770 0.930 . S
C2767 C2766 1.369 . S
C2767 C2776 1.429 . S
C2768 C2766 1.419 . S
C2768 C2769 1.363 . S
C2768 H2771 0.929 . S
C2769 C2768 1.363 . S
C2769 C2775 1.428 . S
H2770 C2766 0.930 . S
H2771 C2768 0.929 . S
S2772 N2773 1.613 . S
S2772 N2774 1.610 . S
N2773 S2772 1.613 . S
N2773 C2776 1.350 . S
N2774 S2772 1.610 . S
N2774 C2775 1.351 . S
C2775 C2769 1.428 . S
C2775 N2774 1.351 . S
C2775 C2776 1.434 . S
C2776 C2767 1.429 . S
C2776 N2773 1.350 . S
C2776 C2775 1.434 . S
C2777 C2778 1.369 . S
C2777 C2779 1.419 . S
C2777 H2781 0.930 . S
C2778 C2777 1.369 . S
C2778 C2787 1.429 . S
C2779 C2777 1.419 . S
C2779 C2780 1.363 . S
C2779 H2782 0.929 . S
C2780 C2779 1.363 . S
C2780 C2786 1.428 . S
H2781 C2777 0.930 . S
H2782 C2779 0.929 . S
S2783 N2784 1.613 . S
S2783 N2785 1.610 . S
N2784 S2783 1.613 . S
N2784 C2787 1.350 . S
N2785 S2783 1.610 . S
N2785 C2786 1.351 . S
C2786 C2780 1.428 . S
C2786 N2785 1.351 . S
C2786 C2787 1.434 . S
C2787 C2778 1.429 . S
C2787 N2784 1.350 . S
C2787 C2786 1.434 . S
C2788 C2789 1.369 . S
C2788 C2790 1.419 . S
C2788 H2792 0.930 . S
C2789 C2788 1.369 . S
C2789 C2798 1.429 . S
C2790 C2788 1.419 . S
C2790 C2791 1.363 . S
C2790 H2793 0.929 . S
C2791 C2790 1.363 . S
C2791 C2797 1.428 . S
H2792 C2788 0.930 . S
H2793 C2790 0.929 . S
S2794 N2795 1.613 . S
S2794 N2796 1.610 . S
N2795 S2794 1.613 . S
N2795 C2798 1.350 . S
N2796 S2794 1.610 . S
N2796 C2797 1.351 . S
C2797 C2791 1.428 . S
C2797 N2796 1.351 . S
C2797 C2798 1.434 . S
C2798 C2789 1.429 . S
C2798 N2795 1.350 . S
C2798 C2797 1.434 . S
C2799 C2800 1.369 . S
C2799 C2801 1.419 . S
C2799 H2803 0.930 . S
C2800 C2799 1.369 . S
C2800 C2809 1.429 . S
C2801 C2799 1.419 . S
C2801 C2802 1.363 . S
C2801 H2804 0.929 . S
C2802 C2801 1.363 . S
C2802 C2808 1.428 . S
H2803 C2799 0.930 . S
H2804 C2801 0.929 . S
S2805 N2806 1.613 . S
S2805 N2807 1.610 . S
N2806 S2805 1.613 . S
N2806 C2809 1.350 . S
N2807 S2805 1.610 . S
N2807 C2808 1.351 . S
C2808 C2802 1.428 . S
C2808 N2807 1.351 . S
C2808 C2809 1.434 . S
C2809 C2800 1.429 . S
C2809 N2806 1.350 . S
C2809 C2808 1.434 . S
C2810 C2811 1.369 . S
C2810 C2812 1.419 . S
C2810 H2814 0.930 . S
C2811 C2810 1.369 . S
C2811 C2820 1.429 . S
C2812 C2810 1.419 . S
C2812 C2813 1.363 . S
C2812 H2815 0.929 . S
C2813 C2812 1.363 . S
C2813 C2819 1.428 . S
H2814 C2810 0.930 . S
H2815 C2812 0.929 . S
S2816 N2817 1.613 . S
S2816 N2818 1.610 . S
N2817 S2816 1.613 . S
N2817 C2820 1.350 . S
N2818 S2816 1.610 . S
N2818 C2819 1.351 . S
C2819 C2813 1.428 . S
C2819 N2818 1.351 . S
C2819 C2820 1.434 . S
C2820 C2811 1.429 . S
C2820 N2817 1.350 . S
C2820 C2819 1.434 . S
C2821 C2822 1.369 . S
C2821 C2823 1.419 . S
C2821 H2825 0.930 . S
C2822 C2821 1.369 . S
C2822 C2831 1.429 . S
C2823 C2821 1.419 . S
C2823 C2824 1.363 . S
C2823 H2826 0.929 . S
C2824 C2823 1.363 . S
C2824 C2830 1.428 . S
H2825 C2821 0.930 . S
H2826 C2823 0.929 . S
S2827 N2828 1.613 . S
S2827 N2829 1.610 . S
N2828 S2827 1.613 . S
N2828 C2831 1.350 . S
N2829 S2827 1.610 . S
N2829 C2830 1.351 . S
C2830 C2824 1.428 . S
C2830 N2829 1.351 . S
C2830 C2831 1.434 . S
C2831 C2822 1.429 . S
C2831 N2828 1.350 . S
C2831 C2830 1.434 . S
C2832 C2833 1.369 . S
C2832 C2834 1.419 . S
C2832 H2836 0.930 . S
C2833 C2832 1.369 . S
C2833 C2842 1.429 . S
C2834 C2832 1.419 . S
C2834 C2835 1.363 . S
C2834 H2837 0.929 . S
C2835 C2834 1.363 . S
C2835 C2841 1.428 . S
H2836 C2832 0.930 . S
H2837 C2834 0.929 . S
S2838 N2839 1.613 . S
S2838 N2840 1.610 . S
N2839 S2838 1.613 . S
N2839 C2842 1.350 . S
N2840 S2838 1.610 . S
N2840 C2841 1.351 . S
C2841 C2835 1.428 . S
C2841 N2840 1.351 . S
C2841 C2842 1.434 . S
C2842 C2833 1.429 . S
C2842 N2839 1.350 . S
C2842 C2841 1.434 . S
C2843 C2844 1.369 . S
C2843 C2845 1.419 . S
C2843 H2847 0.930 . S
C2844 C2843 1.369 . S
C2844 C2853 1.429 . S
C2845 C2843 1.419 . S
C2845 C2846 1.363 . S
C2845 H2848 0.929 . S
C2846 C2845 1.363 . S
C2846 C2852 1.428 . S
H2847 C2843 0.930 . S
H2848 C2845 0.929 . S
S2849 N2850 1.613 . S
S2849 N2851 1.610 . S
N2850 S2849 1.613 . S
N2850 C2853 1.350 . S
N2851 S2849 1.610 . S
N2851 C2852 1.351 . S
C2852 C2846 1.428 . S
C2852 N2851 1.351 . S
C2852 C2853 1.434 . S
C2853 C2844 1.429 . S
C2853 N2850 1.350 . S
C2853 C2852 1.434 . S
C2854 C2855 1.369 . S
C2854 C2856 1.419 . S
C2854 H2858 0.930 . S
C2855 C2854 1.369 . S
C2855 C2864 1.429 . S
C2856 C2854 1.419 . S
C2856 C2857 1.363 . S
C2856 H2859 0.929 . S
C2857 C2856 1.363 . S
C2857 C2863 1.428 . S
H2858 C2854 0.930 . S
H2859 C2856 0.929 . S
S2860 N2861 1.613 . S
S2860 N2862 1.610 . S
N2861 S2860 1.613 . S
N2861 C2864 1.350 . S
N2862 S2860 1.610 . S
N2862 C2863 1.351 . S
C2863 C2857 1.428 . S
C2863 N2862 1.351 . S
C2863 C2864 1.434 . S
C2864 C2855 1.429 . S
C2864 N2861 1.350 . S
C2864 C2863 1.434 . S
C2865 C2866 1.369 . S
C2865 C2867 1.419 . S
C2865 H2869 0.930 . S
C2866 C2865 1.369 . S
C2866 C2875 1.429 . S
C2867 C2865 1.419 . S
C2867 C2868 1.363 . S
C2867 H2870 0.929 . S
C2868 C2867 1.363 . S
C2868 C2874 1.428 . S
H2869 C2865 0.930 . S
H2870 C2867 0.929 . S
S2871 N2872 1.613 . S
S2871 N2873 1.610 . S
N2872 S2871 1.613 . S
N2872 C2875 1.350 . S
N2873 S2871 1.610 . S
N2873 C2874 1.351 . S
C2874 C2868 1.428 . S
C2874 N2873 1.351 . S
C2874 C2875 1.434 . S
C2875 C2866 1.429 . S
C2875 N2872 1.350 . S
C2875 C2874 1.434 . S
C2876 C2877 1.369 . S
C2876 C2878 1.419 . S
C2876 H2880 0.930 . S
C2877 C2876 1.369 . S
C2877 C2886 1.429 . S
C2878 C2876 1.419 . S
C2878 C2879 1.363 . S
C2878 H2881 0.929 . S
C2879 C2878 1.363 . S
C2879 C2885 1.428 . S
H2880 C2876 0.930 . S
H2881 C2878 0.929 . S
S2882 N2883 1.613 . S
S2882 N2884 1.610 . S
N2883 S2882 1.613 . S
N2883 C2886 1.350 . S
N2884 S2882 1.610 . S
N2884 C2885 1.351 . S
C2885 C2879 1.428 . S
C2885 N2884 1.351 . S
C2885 C2886 1.434 . S
C2886 C2877 1.429 . S
C2886 N2883 1.350 . S
C2886 C2885 1.434 . S
C2887 C2888 1.369 . S
C2887 C2889 1.419 . S
C2887 H2891 0.930 . S
C2888 C2887 1.369 . S
C2888 C2897 1.429 . S
C2889 C2887 1.419 . S
C2889 C2890 1.363 . S
C2889 H2892 0.929 . S
C2890 C2889 1.363 . S
C2890 C2896 1.428 . S
H2891 C2887 0.930 . S
H2892 C2889 0.929 . S
S2893 N2894 1.613 . S
S2893 N2895 1.610 . S
N2894 S2893 1.613 . S
N2894 C2897 1.350 . S
N2895 S2893 1.610 . S
N2895 C2896 1.351 . S
C2896 C2890 1.428 . S
C2896 N2895 1.351 . S
C2896 C2897 1.434 . S
C2897 C2888 1.429 . S
C2897 N2894 1.350 . S
C2897 C2896 1.434 . S
C2898 C2899 1.369 . S
C2898 C2900 1.419 . S
C2898 H2902 0.930 . S
C2899 C2898 1.369 . S
C2899 C2908 1.429 . S
C2900 C2898 1.419 . S
C2900 C2901 1.363 . S
C2900 H2903 0.929 . S
C2901 C2900 1.363 . S
C2901 C2907 1.428 . S
H2902 C2898 0.930 . S
H2903 C2900 0.929 . S
S2904 N2905 1.613 . S
S2904 N2906 1.610 . S
N2905 S2904 1.613 . S
N2905 C2908 1.350 . S
N2906 S2904 1.610 . S
N2906 C2907 1.351 . S
C2907 C2901 1.428 . S
C2907 N2906 1.351 . S
C2907 C2908 1.434 . S
C2908 C2899 1.429 . S
C2908 N2905 1.350 . S
C2908 C2907 1.434 . S
C2909 C2910 1.369 . S
C2909 C2911 1.419 . S
C2909 H2913 0.930 . S
C2910 C2909 1.369 . S
C2910 C2919 1.429 . S
C2911 C2909 1.419 . S
C2911 C2912 1.363 . S
C2911 H2914 0.929 . S
C2912 C2911 1.363 . S
C2912 C2918 1.428 . S
H2913 C2909 0.930 . S
H2914 C2911 0.929 . S
S2915 N2916 1.613 . S
S2915 N2917 1.610 . S
N2916 S2915 1.613 . S
N2916 C2919 1.350 . S
N2917 S2915 1.610 . S
N2917 C2918 1.351 . S
C2918 C2912 1.428 . S
C2918 N2917 1.351 . S
C2918 C2919 1.434 . S
C2919 C2910 1.429 . S
C2919 N2916 1.350 . S
C2919 C2918 1.434 . S
C2920 C2921 1.369 . S
C2920 C2922 1.419 . S
C2920 H2924 0.930 . S
C2921 C2920 1.369 . S
C2921 C2930 1.429 . S
C2922 C2920 1.419 . S
C2922 C2923 1.363 . S
C2922 H2925 0.929 . S
C2923 C2922 1.363 . S
C2923 C2929 1.428 . S
H2924 C2920 0.930 . S
H2925 C2922 0.929 . S
S2926 N2927 1.613 . S
S2926 N2928 1.610 . S
N2927 S2926 1.613 . S
N2927 C2930 1.350 . S
N2928 S2926 1.610 . S
N2928 C2929 1.351 . S
C2929 C2923 1.428 . S
C2929 N2928 1.351 . S
C2929 C2930 1.434 . S
C2930 C2921 1.429 . S
C2930 N2927 1.350 . S
C2930 C2929 1.434 . S
C2931 C2932 1.369 . S
C2931 C2933 1.419 . S
C2931 H2935 0.930 . S
C2932 C2931 1.369 . S
C2932 C2941 1.429 . S
C2933 C2931 1.419 . S
C2933 C2934 1.363 . S
C2933 H2936 0.929 . S
C2934 C2933 1.363 . S
C2934 C2940 1.428 . S
H2935 C2931 0.930 . S
H2936 C2933 0.929 . S
S2937 N2938 1.613 . S
S2937 N2939 1.610 . S
N2938 S2937 1.613 . S
N2938 C2941 1.350 . S
N2939 S2937 1.610 . S
N2939 C2940 1.351 . S
C2940 C2934 1.428 . S
C2940 N2939 1.351 . S
C2940 C2941 1.434 . S
C2941 C2932 1.429 . S
C2941 N2938 1.350 . S
C2941 C2940 1.434 . S
C2942 C2943 1.369 . S
C2942 C2944 1.419 . S
C2942 H2946 0.930 . S
C2943 C2942 1.369 . S
C2943 C2952 1.429 . S
C2944 C2942 1.419 . S
C2944 C2945 1.363 . S
C2944 H2947 0.929 . S
C2945 C2944 1.363 . S
C2945 C2951 1.428 . S
H2946 C2942 0.930 . S
H2947 C2944 0.929 . S
S2948 N2949 1.613 . S
S2948 N2950 1.610 . S
N2949 S2948 1.613 . S
N2949 C2952 1.350 . S
N2950 S2948 1.610 . S
N2950 C2951 1.351 . S
C2951 C2945 1.428 . S
C2951 N2950 1.351 . S
C2951 C2952 1.434 . S
C2952 C2943 1.429 . S
C2952 N2949 1.350 . S
C2952 C2951 1.434 . S
C2953 C2954 1.369 . S
C2953 C2955 1.419 . S
C2953 H2957 0.930 . S
C2954 C2953 1.369 . S
C2954 C2963 1.429 . S
C2955 C2953 1.419 . S
C2955 C2956 1.363 . S
C2955 H2958 0.929 . S
C2956 C2955 1.363 . S
C2956 C2962 1.428 . S
H2957 C2953 0.930 . S
H2958 C2955 0.929 . S
S2959 N2960 1.613 . S
S2959 N2961 1.610 . S
N2960 S2959 1.613 . S
N2960 C2963 1.350 . S
N2961 S2959 1.610 . S
N2961 C2962 1.351 . S
C2962 C2956 1.428 . S
C2962 N2961 1.351 . S
C2962 C2963 1.434 . S
C2963 C2954 1.429 . S
C2963 N2960 1.350 . S
C2963 C2962 1.434 . S
C2964 C2965 1.369 . S
C2964 C2966 1.419 . S
C2964 H2968 0.930 . S
C2965 C2964 1.369 . S
C2965 C2974 1.429 . S
C2966 C2964 1.419 . S
C2966 C2967 1.363 . S
C2966 H2969 0.929 . S
C2967 C2966 1.363 . S
C2967 C2973 1.428 . S
H2968 C2964 0.930 . S
H2969 C2966 0.929 . S
S2970 N2971 1.613 . S
S2970 N2972 1.610 . S
N2971 S2970 1.613 . S
N2971 C2974 1.350 . S
N2972 S2970 1.610 . S
N2972 C2973 1.351 . S
C2973 C2967 1.428 . S
C2973 N2972 1.351 . S
C2973 C2974 1.434 . S
C2974 C2965 1.429 . S
C2974 N2971 1.350 . S
C2974 C2973 1.434 . S
C2975 C2976 1.369 . S
C2975 C2977 1.419 . S
C2975 H2979 0.930 . S
C2976 C2975 1.369 . S
C2976 C2985 1.429 . S
C2977 C2975 1.419 . S
C2977 C2978 1.363 . S
C2977 H2980 0.929 . S
C2978 C2977 1.363 . S
C2978 C2984 1.428 . S
H2979 C2975 0.930 . S
H2980 C2977 0.929 . S
S2981 N2982 1.613 . S
S2981 N2983 1.610 . S
N2982 S2981 1.613 . S
N2982 C2985 1.350 . S
N2983 S2981 1.610 . S
N2983 C2984 1.351 . S
C2984 C2978 1.428 . S
C2984 N2983 1.351 . S
C2984 C2985 1.434 . S
C2985 C2976 1.429 . S
C2985 N2982 1.350 . S
C2985 C2984 1.434 . S
C2986 C2987 1.369 . S
C2986 C2988 1.419 . S
C2986 H2990 0.930 . S
C2987 C2986 1.369 . S
C2987 C2996 1.429 . S
C2988 C2986 1.419 . S
C2988 C2989 1.363 . S
C2988 H2991 0.929 . S
C2989 C2988 1.363 . S
C2989 C2995 1.428 . S
H2990 C2986 0.930 . S
H2991 C2988 0.929 . S
S2992 N2993 1.613 . S
S2992 N2994 1.610 . S
N2993 S2992 1.613 . S
N2993 C2996 1.350 . S
N2994 S2992 1.610 . S
N2994 C2995 1.351 . S
C2995 C2989 1.428 . S
C2995 N2994 1.351 . S
C2995 C2996 1.434 . S
C2996 C2987 1.429 . S
C2996 N2993 1.350 . S
C2996 C2995 1.434 . S
C2997 C2998 1.369 . S
C2997 C2999 1.419 . S
C2997 H3001 0.930 . S
C2998 C2997 1.369 . S
C2998 C3007 1.429 . S
C2999 C2997 1.419 . S
C2999 C3000 1.363 . S
C2999 H3002 0.929 . S
C3000 C2999 1.363 . S
C3000 C3006 1.428 . S
H3001 C2997 0.930 . S
H3002 C2999 0.929 . S
S3003 N3004 1.613 . S
S3003 N3005 1.610 . S
N3004 S3003 1.613 . S
N3004 C3007 1.350 . S
N3005 S3003 1.610 . S
N3005 C3006 1.351 . S
C3006 C3000 1.428 . S
C3006 N3005 1.351 . S
C3006 C3007 1.434 . S
C3007 C2998 1.429 . S
C3007 N3004 1.350 . S
C3007 C3006 1.434 . S
C3008 C3009 1.369 . S
C3008 C3010 1.419 . S
C3008 H3012 0.930 . S
C3009 C3008 1.369 . S
C3009 C3018 1.429 . S
C3010 C3008 1.419 . S
C3010 C3011 1.363 . S
C3010 H3013 0.929 . S
C3011 C3010 1.363 . S
C3011 C3017 1.428 . S
H3012 C3008 0.930 . S
H3013 C3010 0.929 . S
S3014 N3015 1.613 . S
S3014 N3016 1.610 . S
N3015 S3014 1.613 . S
N3015 C3018 1.350 . S
N3016 S3014 1.610 . S
N3016 C3017 1.351 . S
C3017 C3011 1.428 . S
C3017 N3016 1.351 . S
C3017 C3018 1.434 . S
C3018 C3009 1.429 . S
C3018 N3015 1.350 . S
C3018 C3017 1.434 . S
C3019 C3020 1.369 . S
C3019 C3021 1.419 . S
C3019 H3023 0.930 . S
C3020 C3019 1.369 . S
C3020 C3029 1.429 . S
C3021 C3019 1.419 . S
C3021 C3022 1.363 . S
C3021 H3024 0.929 . S
C3022 C3021 1.363 . S
C3022 C3028 1.428 . S
H3023 C3019 0.930 . S
H3024 C3021 0.929 . S
S3025 N3026 1.613 . S
S3025 N3027 1.610 . S
N3026 S3025 1.613 . S
N3026 C3029 1.350 . S
N3027 S3025 1.610 . S
N3027 C3028 1.351 . S
C3028 C3022 1.428 . S
C3028 N3027 1.351 . S
C3028 C3029 1.434 . S
C3029 C3020 1.429 . S
C3029 N3026 1.350 . S
C3029 C3028 1.434 . S
C3030 C3031 1.369 . S
C3030 C3032 1.419 . S
C3030 H3034 0.930 . S
C3031 C3030 1.369 . S
C3031 C3040 1.429 . S
C3032 C3030 1.419 . S
C3032 C3033 1.363 . S
C3032 H3035 0.929 . S
C3033 C3032 1.363 . S
C3033 C3039 1.428 . S
H3034 C3030 0.930 . S
H3035 C3032 0.929 . S
S3036 N3037 1.613 . S
S3036 N3038 1.610 . S
N3037 S3036 1.613 . S
N3037 C3040 1.350 . S
N3038 S3036 1.610 . S
N3038 C3039 1.351 . S
C3039 C3033 1.428 . S
C3039 N3038 1.351 . S
C3039 C3040 1.434 . S
C3040 C3031 1.429 . S
C3040 N3037 1.350 . S
C3040 C3039 1.434 . S
C3041 C3042 1.369 . S
C3041 C3043 1.419 . S
C3041 H3045 0.930 . S
C3042 C3041 1.369 . S
C3042 C3051 1.429 . S
C3043 C3041 1.419 . S
C3043 C3044 1.363 . S
C3043 H3046 0.929 . S
C3044 C3043 1.363 . S
C3044 C3050 1.428 . S
H3045 C3041 0.930 . S
H3046 C3043 0.929 . S
S3047 N3048 1.613 . S
S3047 N3049 1.610 . S
N3048 S3047 1.613 . S
N3048 C3051 1.350 . S
N3049 S3047 1.610 . S
N3049 C3050 1.351 . S
C3050 C3044 1.428 . S
C3050 N3049 1.351 . S
C3050 C3051 1.434 . S
C3051 C3042 1.429 . S
C3051 N3048 1.350 . S
C3051 C3050 1.434 . S
C3052 C3053 1.369 . S
C3052 C3054 1.419 . S
C3052 H3056 0.930 . S
C3053 C3052 1.369 . S
C3053 C3062 1.429 . S
C3054 C3052 1.419 . S
C3054 C3055 1.363 . S
C3054 H3057 0.929 . S
C3055 C3054 1.363 . S
C3055 C3061 1.428 . S
H3056 C3052 0.930 . S
H3057 C3054 0.929 . S
S3058 N3059 1.613 . S
S3058 N3060 1.610 . S
N3059 S3058 1.613 . S
N3059 C3062 1.350 . S
N3060 S3058 1.610 . S
N3060 C3061 1.351 . S
C3061 C3055 1.428 . S
C3061 N3060 1.351 . S
C3061 C3062 1.434 . S
C3062 C3053 1.429 . S
C3062 N3059 1.350 . S
C3062 C3061 1.434 . S
C3063 C3064 1.369 . S
C3063 C3065 1.419 . S
C3063 H3067 0.930 . S
C3064 C3063 1.369 . S
C3064 C3073 1.429 . S
C3065 C3063 1.419 . S
C3065 C3066 1.363 . S
C3065 H3068 0.929 . S
C3066 C3065 1.363 . S
C3066 C3072 1.428 . S
H3067 C3063 0.930 . S
H3068 C3065 0.929 . S
S3069 N3070 1.613 . S
S3069 N3071 1.610 . S
N3070 S3069 1.613 . S
N3070 C3073 1.350 . S
N3071 S3069 1.610 . S
N3071 C3072 1.351 . S
C3072 C3066 1.428 . S
C3072 N3071 1.351 . S
C3072 C3073 1.434 . S
C3073 C3064 1.429 . S
C3073 N3070 1.350 . S
C3073 C3072 1.434 . S
C3074 C3075 1.369 . S
C3074 C3076 1.419 . S
C3074 H3078 0.930 . S
C3075 C3074 1.369 . S
C3075 C3084 1.429 . S
C3076 C3074 1.419 . S
C3076 C3077 1.363 . S
C3076 H3079 0.929 . S
C3077 C3076 1.363 . S
C3077 C3083 1.428 . S
H3078 C3074 0.930 . S
H3079 C3076 0.929 . S
S3080 N3081 1.613 . S
S3080 N3082 1.610 . S
N3081 S3080 1.613 . S
N3081 C3084 1.350 . S
N3082 S3080 1.610 . S
N3082 C3083 1.351 . S
C3083 C3077 1.428 . S
C3083 N3082 1.351 . S
C3083 C3084 1.434 . S
C3084 C3075 1.429 . S
C3084 N3081 1.350 . S
C3084 C3083 1.434 . S
C3085 C3086 1.369 . S
C3085 C3087 1.419 . S
C3085 H3089 0.930 . S
C3086 C3085 1.369 . S
C3086 C3095 1.429 . S
C3087 C3085 1.419 . S
C3087 C3088 1.363 . S
C3087 H3090 0.929 . S
C3088 C3087 1.363 . S
C3088 C3094 1.428 . S
H3089 C3085 0.930 . S
H3090 C3087 0.929 . S
S3091 N3092 1.613 . S
S3091 N3093 1.610 . S
N3092 S3091 1.613 . S
N3092 C3095 1.350 . S
N3093 S3091 1.610 . S
N3093 C3094 1.351 . S
C3094 C3088 1.428 . S
C3094 N3093 1.351 . S
C3094 C3095 1.434 . S
C3095 C3086 1.429 . S
C3095 N3092 1.350 . S
C3095 C3094 1.434 . S
C3096 C3097 1.369 . S
C3096 C3098 1.419 . S
C3096 H3100 0.930 . S
C3097 C3096 1.369 . S
C3097 C3106 1.429 . S
C3098 C3096 1.419 . S
C3098 C3099 1.363 . S
C3098 H3101 0.929 . S
C3099 C3098 1.363 . S
C3099 C3105 1.428 . S
H3100 C3096 0.930 . S
H3101 C3098 0.929 . S
S3102 N3103 1.613 . S
S3102 N3104 1.610 . S
N3103 S3102 1.613 . S
N3103 C3106 1.350 . S
N3104 S3102 1.610 . S
N3104 C3105 1.351 . S
C3105 C3099 1.428 . S
C3105 N3104 1.351 . S
C3105 C3106 1.434 . S
C3106 C3097 1.429 . S
C3106 N3103 1.350 . S
C3106 C3105 1.434 . S
C3107 C3108 1.369 . S
C3107 C3109 1.419 . S
C3107 H3111 0.930 . S
C3108 C3107 1.369 . S
C3108 C3117 1.429 . S
C3109 C3107 1.419 . S
C3109 C3110 1.363 . S
C3109 H3112 0.929 . S
C3110 C3109 1.363 . S
C3110 C3116 1.428 . S
H3111 C3107 0.930 . S
H3112 C3109 0.929 . S
S3113 N3114 1.613 . S
S3113 N3115 1.610 . S
N3114 S3113 1.613 . S
N3114 C3117 1.350 . S
N3115 S3113 1.610 . S
N3115 C3116 1.351 . S
C3116 C3110 1.428 . S
C3116 N3115 1.351 . S
C3116 C3117 1.434 . S
C3117 C3108 1.429 . S
C3117 N3114 1.350 . S
C3117 C3116 1.434 . S
C3118 C3119 1.369 . S
C3118 C3120 1.419 . S
C3118 H3122 0.930 . S
C3119 C3118 1.369 . S
C3119 C3128 1.429 . S
C3120 C3118 1.419 . S
C3120 C3121 1.363 . S
C3120 H3123 0.929 . S
C3121 C3120 1.363 . S
C3121 C3127 1.428 . S
H3122 C3118 0.930 . S
H3123 C3120 0.929 . S
S3124 N3125 1.613 . S
S3124 N3126 1.610 . S
N3125 S3124 1.613 . S
N3125 C3128 1.350 . S
N3126 S3124 1.610 . S
N3126 C3127 1.351 . S
C3127 C3121 1.428 . S
C3127 N3126 1.351 . S
C3127 C3128 1.434 . S
C3128 C3119 1.429 . S
C3128 N3125 1.350 . S
C3128 C3127 1.434 . S
C3129 C3130 1.369 . S
C3129 C3131 1.419 . S
C3129 H3133 0.930 . S
C3130 C3129 1.369 . S
C3130 C3139 1.429 . S
C3131 C3129 1.419 . S
C3131 C3132 1.363 . S
C3131 H3134 0.929 . S
C3132 C3131 1.363 . S
C3132 C3138 1.428 . S
H3133 C3129 0.930 . S
H3134 C3131 0.929 . S
S3135 N3136 1.613 . S
S3135 N3137 1.610 . S
N3136 S3135 1.613 . S
N3136 C3139 1.350 . S
N3137 S3135 1.610 . S
N3137 C3138 1.351 . S
C3138 C3132 1.428 . S
C3138 N3137 1.351 . S
C3138 C3139 1.434 . S
C3139 C3130 1.429 . S
C3139 N3136 1.350 . S
C3139 C3138 1.434 . S
C3140 C3141 1.369 . S
C3140 C3142 1.419 . S
C3140 H3144 0.930 . S
C3141 C3140 1.369 . S
C3141 C3150 1.429 . S
C3142 C3140 1.419 . S
C3142 C3143 1.363 . S
C3142 H3145 0.929 . S
C3143 C3142 1.363 . S
C3143 C3149 1.428 . S
H3144 C3140 0.930 . S
H3145 C3142 0.929 . S
S3146 N3147 1.613 . S
S3146 N3148 1.610 . S
N3147 S3146 1.613 . S
N3147 C3150 1.350 . S
N3148 S3146 1.610 . S
N3148 C3149 1.351 . S
C3149 C3143 1.428 . S
C3149 N3148 1.351 . S
C3149 C3150 1.434 . S
C3150 C3141 1.429 . S
C3150 N3147 1.350 . S
C3150 C3149 1.434 . S
C3151 C3152 1.369 . S
C3151 C3153 1.419 . S
C3151 H3155 0.930 . S
C3152 C3151 1.369 . S
C3152 C3161 1.429 . S
C3153 C3151 1.419 . S
C3153 C3154 1.363 . S
C3153 H3156 0.929 . S
C3154 C3153 1.363 . S
C3154 C3160 1.428 . S
H3155 C3151 0.930 . S
H3156 C3153 0.929 . S
S3157 N3158 1.613 . S
S3157 N3159 1.610 . S
N3158 S3157 1.613 . S
N3158 C3161 1.350 . S
N3159 S3157 1.610 . S
N3159 C3160 1.351 . S
C3160 C3154 1.428 . S
C3160 N3159 1.351 . S
C3160 C3161 1.434 . S
C3161 C3152 1.429 . S
C3161 N3158 1.350 . S
C3161 C3160 1.434 . S
C3162 C3163 1.369 . S
C3162 C3164 1.419 . S
C3162 H3166 0.930 . S
C3163 C3162 1.369 . S
C3163 C3172 1.429 . S
C3164 C3162 1.419 . S
C3164 C3165 1.363 . S
C3164 H3167 0.929 . S
C3165 C3164 1.363 . S
C3165 C3171 1.428 . S
H3166 C3162 0.930 . S
H3167 C3164 0.929 . S
S3168 N3169 1.613 . S
S3168 N3170 1.610 . S
N3169 S3168 1.613 . S
N3169 C3172 1.350 . S
N3170 S3168 1.610 . S
N3170 C3171 1.351 . S
C3171 C3165 1.428 . S
C3171 N3170 1.351 . S
C3171 C3172 1.434 . S
C3172 C3163 1.429 . S
C3172 N3169 1.350 . S
C3172 C3171 1.434 . S
C3173 C3174 1.369 . S
C3173 C3175 1.419 . S
C3173 H3177 0.930 . S
C3174 C3173 1.369 . S
C3174 C3183 1.429 . S
C3175 C3173 1.419 . S
C3175 C3176 1.363 . S
C3175 H3178 0.929 . S
C3176 C3175 1.363 . S
C3176 C3182 1.428 . S
H3177 C3173 0.930 . S
H3178 C3175 0.929 . S
S3179 N3180 1.613 . S
S3179 N3181 1.610 . S
N3180 S3179 1.613 . S
N3180 C3183 1.350 . S
N3181 S3179 1.610 . S
N3181 C3182 1.351 . S
C3182 C3176 1.428 . S
C3182 N3181 1.351 . S
C3182 C3183 1.434 . S
C3183 C3174 1.429 . S
C3183 N3180 1.350 . S
C3183 C3182 1.434 . S
C3184 C3185 1.369 . S
C3184 C3186 1.419 . S
C3184 H3188 0.930 . S
C3185 C3184 1.369 . S
C3185 C3194 1.429 . S
C3186 C3184 1.419 . S
C3186 C3187 1.363 . S
C3186 H3189 0.929 . S
C3187 C3186 1.363 . S
C3187 C3193 1.428 . S
H3188 C3184 0.930 . S
H3189 C3186 0.929 . S
S3190 N3191 1.613 . S
S3190 N3192 1.610 . S
N3191 S3190 1.613 . S
N3191 C3194 1.350 . S
N3192 S3190 1.610 . S
N3192 C3193 1.351 . S
C3193 C3187 1.428 . S
C3193 N3192 1.351 . S
C3193 C3194 1.434 . S
C3194 C3185 1.429 . S
C3194 N3191 1.350 . S
C3194 C3193 1.434 . S
C3195 C3196 1.369 . S
C3195 C3197 1.419 . S
C3195 H3199 0.930 . S
C3196 C3195 1.369 . S
C3196 C3205 1.429 . S
C3197 C3195 1.419 . S
C3197 C3198 1.363 . S
C3197 H3200 0.929 . S
C3198 C3197 1.363 . S
C3198 C3204 1.428 . S
H3199 C3195 0.930 . S
H3200 C3197 0.929 . S
S3201 N3202 1.613 . S
S3201 N3203 1.610 . S
N3202 S3201 1.613 . S
N3202 C3205 1.350 . S
N3203 S3201 1.610 . S
N3203 C3204 1.351 . S
C3204 C3198 1.428 . S
C3204 N3203 1.351 . S
C3204 C3205 1.434 . S
C3205 C3196 1.429 . S
C3205 N3202 1.350 . S
C3205 C3204 1.434 . S
C3206 C3207 1.369 . S
C3206 C3208 1.419 . S
C3206 H3210 0.930 . S
C3207 C3206 1.369 . S
C3207 C3216 1.429 . S
C3208 C3206 1.419 . S
C3208 C3209 1.363 . S
C3208 H3211 0.929 . S
C3209 C3208 1.363 . S
C3209 C3215 1.428 . S
H3210 C3206 0.930 . S
H3211 C3208 0.929 . S
S3212 N3213 1.613 . S
S3212 N3214 1.610 . S
N3213 S3212 1.613 . S
N3213 C3216 1.350 . S
N3214 S3212 1.610 . S
N3214 C3215 1.351 . S
C3215 C3209 1.428 . S
C3215 N3214 1.351 . S
C3215 C3216 1.434 . S
C3216 C3207 1.429 . S
C3216 N3213 1.350 . S
C3216 C3215 1.434 . S
C3217 C3218 1.369 . S
C3217 C3219 1.419 . S
C3217 H3221 0.930 . S
C3218 C3217 1.369 . S
C3218 C3227 1.429 . S
C3219 C3217 1.419 . S
C3219 C3220 1.363 . S
C3219 H3222 0.929 . S
C3220 C3219 1.363 . S
C3220 C3226 1.428 . S
H3221 C3217 0.930 . S
H3222 C3219 0.929 . S
S3223 N3224 1.613 . S
S3223 N3225 1.610 . S
N3224 S3223 1.613 . S
N3224 C3227 1.350 . S
N3225 S3223 1.610 . S
N3225 C3226 1.351 . S
C3226 C3220 1.428 . S
C3226 N3225 1.351 . S
C3226 C3227 1.434 . S
C3227 C3218 1.429 . S
C3227 N3224 1.350 . S
C3227 C3226 1.434 . S
C3228 C3229 1.369 . S
C3228 C3230 1.419 . S
C3228 H3232 0.930 . S
C3229 C3228 1.369 . S
C3229 C3238 1.429 . S
C3230 C3228 1.419 . S
C3230 C3231 1.363 . S
C3230 H3233 0.929 . S
C3231 C3230 1.363 . S
C3231 C3237 1.428 . S
H3232 C3228 0.930 . S
H3233 C3230 0.929 . S
S3234 N3235 1.613 . S
S3234 N3236 1.610 . S
N3235 S3234 1.613 . S
N3235 C3238 1.350 . S
N3236 S3234 1.610 . S
N3236 C3237 1.351 . S
C3237 C3231 1.428 . S
C3237 N3236 1.351 . S
C3237 C3238 1.434 . S
C3238 C3229 1.429 . S
C3238 N3235 1.350 . S
C3238 C3237 1.434 . S
C3239 C3240 1.369 . S
C3239 C3241 1.419 . S
C3239 H3243 0.930 . S
C3240 C3239 1.369 . S
C3240 C3249 1.429 . S
C3241 C3239 1.419 . S
C3241 C3242 1.363 . S
C3241 H3244 0.929 . S
C3242 C3241 1.363 . S
C3242 C3248 1.428 . S
H3243 C3239 0.930 . S
H3244 C3241 0.929 . S
S3245 N3246 1.613 . S
S3245 N3247 1.610 . S
N3246 S3245 1.613 . S
N3246 C3249 1.350 . S
N3247 S3245 1.610 . S
N3247 C3248 1.351 . S
C3248 C3242 1.428 . S
C3248 N3247 1.351 . S
C3248 C3249 1.434 . S
C3249 C3240 1.429 . S
C3249 N3246 1.350 . S
C3249 C3248 1.434 . S
C3250 C3251 1.369 . S
C3250 C3252 1.419 . S
C3250 H3254 0.930 . S
C3251 C3250 1.369 . S
C3251 C3260 1.429 . S
C3252 C3250 1.419 . S
C3252 C3253 1.363 . S
C3252 H3255 0.929 . S
C3253 C3252 1.363 . S
C3253 C3259 1.428 . S
H3254 C3250 0.930 . S
H3255 C3252 0.929 . S
S3256 N3257 1.613 . S
S3256 N3258 1.610 . S
N3257 S3256 1.613 . S
N3257 C3260 1.350 . S
N3258 S3256 1.610 . S
N3258 C3259 1.351 . S
C3259 C3253 1.428 . S
C3259 N3258 1.351 . S
C3259 C3260 1.434 . S
C3260 C3251 1.429 . S
C3260 N3257 1.350 . S
C3260 C3259 1.434 . S
C3261 C3262 1.369 . S
C3261 C3263 1.419 . S
C3261 H3265 0.930 . S
C3262 C3261 1.369 . S
C3262 C3271 1.429 . S
C3263 C3261 1.419 . S
C3263 C3264 1.363 . S
C3263 H3266 0.929 . S
C3264 C3263 1.363 . S
C3264 C3270 1.428 . S
H3265 C3261 0.930 . S
H3266 C3263 0.929 . S
S3267 N3268 1.613 . S
S3267 N3269 1.610 . S
N3268 S3267 1.613 . S
N3268 C3271 1.350 . S
N3269 S3267 1.610 . S
N3269 C3270 1.351 . S
C3270 C3264 1.428 . S
C3270 N3269 1.351 . S
C3270 C3271 1.434 . S
C3271 C3262 1.429 . S
C3271 N3268 1.350 . S
C3271 C3270 1.434 . S
C3272 C3273 1.369 . S
C3272 C3274 1.419 . S
C3272 H3276 0.930 . S
C3273 C3272 1.369 . S
C3273 C3282 1.429 . S
C3274 C3272 1.419 . S
C3274 C3275 1.363 . S
C3274 H3277 0.929 . S
C3275 C3274 1.363 . S
C3275 C3281 1.428 . S
H3276 C3272 0.930 . S
H3277 C3274 0.929 . S
S3278 N3279 1.613 . S
S3278 N3280 1.610 . S
N3279 S3278 1.613 . S
N3279 C3282 1.350 . S
N3280 S3278 1.610 . S
N3280 C3281 1.351 . S
C3281 C3275 1.428 . S
C3281 N3280 1.351 . S
C3281 C3282 1.434 . S
C3282 C3273 1.429 . S
C3282 N3279 1.350 . S
C3282 C3281 1.434 . S
C3283 C3284 1.369 . S
C3283 C3285 1.419 . S
C3283 H3287 0.930 . S
C3284 C3283 1.369 . S
C3284 C3293 1.429 . S
C3285 C3283 1.419 . S
C3285 C3286 1.363 . S
C3285 H3288 0.929 . S
C3286 C3285 1.363 . S
C3286 C3292 1.428 . S
H3287 C3283 0.930 . S
H3288 C3285 0.929 . S
S3289 N3290 1.613 . S
S3289 N3291 1.610 . S
N3290 S3289 1.613 . S
N3290 C3293 1.350 . S
N3291 S3289 1.610 . S
N3291 C3292 1.351 . S
C3292 C3286 1.428 . S
C3292 N3291 1.351 . S
C3292 C3293 1.434 . S
C3293 C3284 1.429 . S
C3293 N3290 1.350 . S
C3293 C3292 1.434 . S
C3294 C3295 1.369 . S
C3294 C3296 1.419 . S
C3294 H3298 0.930 . S
C3295 C3294 1.369 . S
C3295 C3304 1.429 . S
C3296 C3294 1.419 . S
C3296 C3297 1.363 . S
C3296 H3299 0.929 . S
C3297 C3296 1.363 . S
C3297 C3303 1.428 . S
H3298 C3294 0.930 . S
H3299 C3296 0.929 . S
S3300 N3301 1.613 . S
S3300 N3302 1.610 . S
N3301 S3300 1.613 . S
N3301 C3304 1.350 . S
N3302 S3300 1.610 . S
N3302 C3303 1.351 . S
C3303 C3297 1.428 . S
C3303 N3302 1.351 . S
C3303 C3304 1.434 . S
C3304 C3295 1.429 . S
C3304 N3301 1.350 . S
C3304 C3303 1.434 . S
C3305 C3306 1.369 . S
C3305 C3307 1.419 . S
C3305 H3309 0.930 . S
C3306 C3305 1.369 . S
C3306 C3315 1.429 . S
C3307 C3305 1.419 . S
C3307 C3308 1.363 . S
C3307 H3310 0.929 . S
C3308 C3307 1.363 . S
C3308 C3314 1.428 . S
H3309 C3305 0.930 . S
H3310 C3307 0.929 . S
S3311 N3312 1.613 . S
S3311 N3313 1.610 . S
N3312 S3311 1.613 . S
N3312 C3315 1.350 . S
N3313 S3311 1.610 . S
N3313 C3314 1.351 . S
C3314 C3308 1.428 . S
C3314 N3313 1.351 . S
C3314 C3315 1.434 . S
C3315 C3306 1.429 . S
C3315 N3312 1.350 . S
C3315 C3314 1.434 . S
C3316 C3317 1.369 . S
C3316 C3318 1.419 . S
C3316 H3320 0.930 . S
C3317 C3316 1.369 . S
C3317 C3326 1.429 . S
C3318 C3316 1.419 . S
C3318 C3319 1.363 . S
C3318 H3321 0.929 . S
C3319 C3318 1.363 . S
C3319 C3325 1.428 . S
H3320 C3316 0.930 . S
H3321 C3318 0.929 . S
S3322 N3323 1.613 . S
S3322 N3324 1.610 . S
N3323 S3322 1.613 . S
N3323 C3326 1.350 . S
N3324 S3322 1.610 . S
N3324 C3325 1.351 . S
C3325 C3319 1.428 . S
C3325 N3324 1.351 . S
C3325 C3326 1.434 . S
C3326 C3317 1.429 . S
C3326 N3323 1.350 . S
C3326 C3325 1.434 . S
C3327 C3328 1.369 . S
C3327 C3329 1.419 . S
C3327 H3331 0.930 . S
C3328 C3327 1.369 . S
C3328 C3337 1.429 . S
C3329 C3327 1.419 . S
C3329 C3330 1.363 . S
C3329 H3332 0.929 . S
C3330 C3329 1.363 . S
C3330 C3336 1.428 . S
H3331 C3327 0.930 . S
H3332 C3329 0.929 . S
S3333 N3334 1.613 . S
S3333 N3335 1.610 . S
N3334 S3333 1.613 . S
N3334 C3337 1.350 . S
N3335 S3333 1.610 . S
N3335 C3336 1.351 . S
C3336 C3330 1.428 . S
C3336 N3335 1.351 . S
C3336 C3337 1.434 . S
C3337 C3328 1.429 . S
C3337 N3334 1.350 . S
C3337 C3336 1.434 . S
C3338 C3339 1.369 . S
C3338 C3340 1.419 . S
C3338 H3342 0.930 . S
C3339 C3338 1.369 . S
C3339 C3348 1.429 . S
C3340 C3338 1.419 . S
C3340 C3341 1.363 . S
C3340 H3343 0.929 . S
C3341 C3340 1.363 . S
C3341 C3347 1.428 . S
H3342 C3338 0.930 . S
H3343 C3340 0.929 . S
S3344 N3345 1.613 . S
S3344 N3346 1.610 . S
N3345 S3344 1.613 . S
N3345 C3348 1.350 . S
N3346 S3344 1.610 . S
N3346 C3347 1.351 . S
C3347 C3341 1.428 . S
C3347 N3346 1.351 . S
C3347 C3348 1.434 . S
C3348 C3339 1.429 . S
C3348 N3345 1.350 . S
C3348 C3347 1.434 . S
C3349 C3350 1.369 . S
C3349 C3351 1.419 . S
C3349 H3353 0.930 . S
C3350 C3349 1.369 . S
C3350 C3359 1.429 . S
C3351 C3349 1.419 . S
C3351 C3352 1.363 . S
C3351 H3354 0.929 . S
C3352 C3351 1.363 . S
C3352 C3358 1.428 . S
H3353 C3349 0.930 . S
H3354 C3351 0.929 . S
S3355 N3356 1.613 . S
S3355 N3357 1.610 . S
N3356 S3355 1.613 . S
N3356 C3359 1.350 . S
N3357 S3355 1.610 . S
N3357 C3358 1.351 . S
C3358 C3352 1.428 . S
C3358 N3357 1.351 . S
C3358 C3359 1.434 . S
C3359 C3350 1.429 . S
C3359 N3356 1.350 . S
C3359 C3358 1.434 . S
C1249 C1 2.046 . S
C1251 C391 2.048 . S
C1260 C716 2.047 . S
C1262 C14 2.050 . S
C1271 C27 2.050 . S
C1273 C365 2.047 . S
C1282 C40 2.048 . S
C1284 C690 2.046 . S
C1293 C339 2.050 . S
C1295 C53 2.047 . S
C1304 C66 2.046 . S
C1306 C664 2.049 . S
C1315 C313 2.048 . S
C1317 C79 2.050 . S
C1326 C92 2.046 . S
C1328 C638 2.048 . S
C1337 C443 2.051 . S
C1339 C105 2.048 . S
C1348 C118 2.050 . S
C1350 C768 2.049 . S
C1359 C131 2.050 . S
C1361 C417 2.047 . S
C1370 C144 2.048 . S
C1372 C742 2.046 . S
C1381 C157 2.049 . S
C1383 C495 2.046 . S
C1392 C820 2.048 . S
C1394 C170 2.050 . S
C1403 C469 2.050 . S
C1405 C183 2.047 . S
C1414 C196 2.050 . S
C1416 C794 2.050 . S
C1425 C846 2.046 . S
C1427 C209 2.048 . S
C1436 C833 2.050 . S
C1438 C222 2.050 . S
C1447 C235 2.047 . S
C1449 C924 2.050 . S
C1458 C1210 2.048 . S
C1460 C248 2.050 . S
C1469 C599 2.048 . S
C1471 C261 2.046 . S
C1480 C274 2.050 . S
C1482 C1184 2.050 . S
C1491 C287 2.050 . S
C1493 C573 2.047 . S
C1502 C300 2.050 . S
C1504 C859 2.049 . S
C1513 C326 2.046 . S
C1515 C1028 2.047 . S
C1524 C352 2.047 . S
C1526 C1002 2.050 . S
C1535 C378 2.046 . S
C1537 C976 2.048 . S
C1546 C404 2.050 . S
C1548 C950 2.050 . S
C1557 C1080 2.048 . S
C1559 C430 2.046 . S
C1568 C456 2.051 . S
C1570 C1054 2.048 . S
C1579 C1132 2.047 . S
C1581 C482 2.050 . S
C1590 C508 2.046 . S
C1592 C1106 2.047 . S
C1601 C521 2.050 . S
C1603 C1158 2.047 . S
C1612 C534 2.048 . S
C1614 C1145 2.046 . S
C1623 C547 2.049 . S
C1625 C1236 2.050 . S
C1634 C898 2.051 . S
C1636 C560 2.048 . S
C1645 C872 2.046 . S
C1647 C586 2.048 . S
C1656 C612 2.050 . S
C1658 C1171 2.050 . S
C1667 C625 2.051 . S
C1669 C1015 2.048 . S
C1678 C989 2.051 . S
C1680 C651 2.048 . S
C1689 C677 2.050 . S
C1691 C963 2.047 . S
C1700 C703 2.046 . S
C1702 C937 2.048 . S
C1711 C1067 2.047 . S
C1713 C729 2.050 . S
C1722 C1041 2.047 . S
C1724 C755 2.050 . S
C1733 C781 2.051 . S
C1735 C1119 2.048 . S
C1744 C1093 2.049 . S
C1746 C807 2.050 . S
C1755 C885 2.049 . S
C1757 C1223 2.046 . S
C1766 C911 2.050 . S
C1768 C1197 2.047 . S
C1777 C5 1.490 1_655 S
C1779 C720 1.490 . S
C1788 C18 1.493 . S
C1790 C369 1.490 1_655 S
C1799 C31 1.495 1_455 S
C1801 C694 1.492 . S
C1810 C395 1.495 1_455 S
C1812 C44 1.495 . S
C1821 C57 1.495 1_655 S
C1823 C330 1.495 . S
C1832 C70 1.496 . S
C1834 C655 1.493 . S
C1843 C83 1.494 1_455 S
C1845 C356 1.495 . S
C1854 C629 1.496 . S
C1856 C96 1.493 . S
C1865 C109 1.492 1_565 S
C1867 C265 1.490 . S
C1876 C122 1.494 . S
C1878 C1162 1.495 . S
C1887 C1175 1.495 . S
C1889 C135 1.495 . S
C1898 C148 1.495 . S
C1900 C1188 1.495 1_554 S
C1909 C928 1.489 . S
C1911 C161 1.490 1_545 S
C1920 C1214 1.496 1_556 S
C1922 C174 1.493 . S
C1931 C187 1.495 . S
C1933 C915 1.494 . S
C1942 C837 1.491 . S
C1944 C200 1.494 . S
C1953 C824 1.489 . S
C1955 C213 1.491 1_556 S
C1964 C1058 1.491 . S
C1966 C226 1.494 . S
C1975 C239 1.490 . S
C1977 C1071 1.493 1_545 S
C1986 C252 1.495 1_554 S
C1988 C1084 1.494 . S
C1997 C278 1.489 1_556 S
C1999 C1110 1.493 . S
C2008 C291 1.495 . S
C2010 C811 1.492 . S
C2019 C785 1.489 1_545 S
C2021 C304 1.491 . S
C2030 C317 1.494 1_655 S
C2032 C1032 1.495 . S
C2041 C1006 1.496 . S
C2043 C343 1.494 1_455 S
C2052 C967 1.495 . S
C2054 C382 1.494 . S
C2063 C408 1.492 . S
C2065 C941 1.490 . S
C2074 C421 1.489 . S
C2076 C577 1.492 . S
C2085 C434 1.489 . S
C2087 C850 1.491 1_554 S
C2096 C447 1.490 1_545 S
C2098 C863 1.490 . S
C2107 C460 1.496 . S
C2109 C876 1.493 . S
C2118 C473 1.494 . S
C2120 C1240 1.491 . S
C2129 C902 1.491 . S
C2131 C486 1.490 . S
C2140 C1227 1.495 . S
C2142 C499 1.495 1_565 S
C2151 C1149 1.492 1_556 S
C2153 C512 1.495 . S
C2162 C1136 1.489 . S
C2164 C525 1.491 . S
C2173 C538 1.491 1_554 S
C2175 C746 1.490 . S
C2184 C551 1.495 . S
C2186 C759 1.495 . S
C2195 C564 1.495 . S
C2197 C772 1.491 . S
C2206 C798 1.492 . S
C2208 C590 1.495 . S
C2217 C1123 1.489 1_565 S
C2219 C603 1.492 . S
C2228 C1097 1.495 . S
C2230 C616 1.495 . S
C2239 C642 1.492 . S
C2241 C993 1.490 . S
C2250 C668 1.495 . S
C2252 C1019 1.494 . S
C2261 C954 1.494 . S
C2263 C681 1.491 . S
C2272 C980 1.490 . S
C2274 C707 1.490 . S
C2283 C889 1.496 . S
C2285 C733 1.494 1_565 S
C2294 C1201 1.495 . S
C2296 C1045 1.495 . S
C2305 C10 1.786 . S
C2307 C1212 1.818 . S
C2316 C23 1.793 . S
C2318 C913 1.815 . S
C2327 C835 1.816 . S
C2329 C36 1.791 . S
C2338 C926 1.817 . S
C2340 C49 1.791 . S
C2349 C62 1.787 . S
C2351 C250 1.818 . S
C2360 C75 1.793 . S
C2362 C1199 1.815 . S
C2371 C224 1.816 . S
C2373 C88 1.789 . S
C2382 C237 1.813 . S
C2384 C101 1.793 . S
C2393 C367 1.813 . S
C2395 C114 1.792 . S
C2404 C127 1.784 . S
C2406 C692 1.820 . S
C2415 C140 1.794 . S
C2417 C393 1.814 . S
C2426 C153 1.794 . S
C2428 C718 1.814 . S
C2437 C315 1.813 . S
C2439 C166 1.792 . S
C2448 C179 1.794 . S
C2450 C640 1.814 . S
C2459 C341 1.821 . S
C2461 C192 1.785 . S
C2470 C205 1.788 . S
C2472 C666 1.817 . S
C2481 C218 1.793 . S
C2483 C1121 1.815 . S
C2492 C445 1.812 . S
C2494 C231 1.793 . S
C2503 C244 1.786 . S
C2505 C770 1.820 . S
C2514 C419 1.813 . S
C2516 C257 1.792 . S
C2525 C270 1.791 . S
C2527 C432 1.817 . S
C2536 C783 1.817 . S
C2538 C283 1.790 . S
C2547 C172 1.822 . S
C2549 C296 1.785 . S
C2558 C198 1.821 . S
C2560 C309 1.787 . S
C2569 C900 1.814 . S
C2571 C322 1.791 . S
C2580 C335 1.794 . S
C2582 C1225 1.815 . S
C2591 C1147 1.815 . S
C2593 C348 1.792 . S
C2602 C361 1.788 . S
C2604 C1238 1.819 . S
C2613 C562 1.814 . S
C2615 C374 1.793 . S
C2624 C887 1.822 . S
C2626 C387 1.785 . S
C2635 C400 1.784 . S
C2637 C536 1.821 . S
C2646 C413 1.790 . S
C2648 C549 1.815 . S
C2657 C426 1.784 . S
C2659 C55 1.820 . S
C2668 C439 1.789 . S
C2670 C1004 1.816 . S
C2679 C81 1.820 . S
C2681 C452 1.787 . S
C2690 C465 1.794 . S
C2692 C1030 1.813 . S
C2701 C3 1.812 . S
C2703 C478 1.793 . S
C2712 C491 1.788 . S
C2714 C952 1.819 . S
C2723 C29 1.812 . S
C2725 C504 1.793 . S
C2734 C978 1.812 . S
C2736 C517 1.793 . S
C2745 C530 1.787 . S
C2747 C809 1.820 . S
C2756 C543 1.785 . S
C2758 C133 1.819 . S
C2767 C1082 1.814 . S
C2769 C556 1.790 . S
C2778 C569 1.788 . S
C2780 C107 1.816 . S
C2789 C120 1.812 . S
C2791 C582 1.793 . S
C2800 C595 1.784 . S
C2802 C1095 1.821 . S
C2811 C484 1.815 . S
C2813 C608 1.790 . S
C2822 C621 1.790 . S
C2824 C510 1.815 . S
C2833 C588 1.814 . S
C2835 C634 1.792 . S
C2844 C647 1.785 . S
C2846 C289 1.819 . S
C2855 C660 1.794 . S
C2857 C211 1.814 . S
C2866 C673 1.788 . S
C2868 C302 1.816 . S
C2877 C686 1.790 . S
C2879 C874 1.817 . S
C2888 C575 1.813 . S
C2890 C699 1.793 . S
C2899 C848 1.821 . S
C2901 C712 1.785 . S
C2910 C725 1.793 . S
C2912 C861 1.815 . S
C2921 C991 1.820 . S
C2923 C738 1.787 . S
C2932 C68 1.812 . S
C2934 C751 1.793 . S
C2943 C1017 1.820 . S
C2945 C764 1.787 . S
C2954 C777 1.794 . S
C2956 C94 1.813 . S
C2965 C939 1.815 . S
C2967 C790 1.792 . S
C2976 C803 1.792 . S
C2978 C16 1.814 . S
C2987 C965 1.821 . S
C2989 C816 1.787 . S
C2998 C42 1.817 . S
C3000 C829 1.790 . S
C3009 C497 1.822 . S
C3011 C842 1.785 . S
C3020 C855 1.784 . S
C3022 C1069 1.820 . S
C3031 C868 1.786 . S
C3033 C146 1.820 . S
C3042 C1043 1.821 . S
C3044 C881 1.787 . S
C3053 C894 1.785 . S
C3055 C1056 1.820 . S
C3064 C159 1.821 . S
C3066 C907 1.786 . S
C3075 C796 1.812 . S
C3077 C920 1.793 . S
C3086 C933 1.784 . S
C3088 C822 1.820 . S
C3097 C946 1.784 . S
C3099 C276 1.820 . S
C3108 C601 1.813 . S
C3110 C959 1.792 . S
C3119 C523 1.816 . S
C3121 C972 1.789 . S
C3130 C985 1.784 . S
C3132 C614 1.820 . S
C3141 C998 1.789 . S
C3143 C1186 1.818 . S
C3152 C263 1.820 . S
C3154 C1011 1.786 . S
C3163 C1160 1.815 . S
C3165 C1024 1.789 . S
C3174 C1173 1.813 . S
C3176 C1037 1.791 . S
C3185 C679 1.815 . S
C3187 C1050 1.790 . S
C3196 C1063 1.784 . S
C3198 C380 1.820 . S
C3207 C1076 1.784 . S
C3209 C705 1.821 . S
C3218 C1089 1.794 . S
C3220 C406 1.814 . S
C3229 C627 1.812 . S
C3231 C1102 1.793 . S
C3240 C1115 1.788 . S
C3242 C328 1.819 . S
C3251 C1128 1.784 . S
C3253 C653 1.821 . S
C3262 C1141 1.784 . S
C3264 C354 1.821 . S
C3273 C185 1.818 . S
C3275 C1154 1.787 . S
C3284 C1167 1.784 . S
C3286 C757 1.821 . S
C3295 C1180 1.784 . S
C3297 C458 1.821 . S
C3306 C1193 1.784 . S
C3308 C731 1.820 . S
C3317 C1206 1.790 . S
C3319 C744 1.817 . S
C3328 C471 1.813 . S
C3330 C1219 1.793 . S
C3339 C1108 1.817 . S
C3341 C1232 1.790 . S
C3350 C1134 1.820 . S
C3352 C1245 1.788 . S
