# Generated by pormake.
# Topology wjd, (6)-cn, num edge types: 1
# Building blocks:
#     Node 0, Type 0, BuildingBlock: VOLQOD_clean_sbu_1, # of connection points: 6
#     Node 1, Type 0, BuildingBlock: VOLQOD_clean_sbu_1, # of connection points: 6
#     Node 2, Type 0, BuildingBlock: VOLQOD_clean_sbu_1, # of connection points: 6
#     Node 3, Type 0, BuildingBlock: VOLQOD_clean_sbu_1, # of connection points: 6
#     Node 4, Type 0, BuildingBlock: VOLQOD_clean_sbu_1, # of connection points: 6
#     Node 5, Type 0, BuildingBlock: VOLQOD_clean_sbu_1, # of connection points: 6
#     Node 6, Type 0, BuildingBlock: VOLQOD_clean_sbu_1, # of connection points: 6
#     Node 7, Type 0, BuildingBlock: VOLQOD_clean_sbu_1, # of connection points: 6
#     Node 8, Type 0, BuildingBlock: VOLQOD_clean_sbu_1, # of connection points: 6
#     Node 9, Type 0, BuildingBlock: VOLQOD_clean_sbu_1, # of connection points: 6
#     Node 10, Type 0, BuildingBlock: VOLQOD_clean_sbu_1, # of connection points: 6
#     Node 11, Type 0, BuildingBlock: VOLQOD_clean_sbu_1, # of connection points: 6
#     Edge 12, Type (0, 0), BuildingBlock: CIFDUS_clean_linker_0, # of connection points: 2
#     Edge 13, Type (0, 0), BuildingBlock: CIFDUS_clean_linker_0, # of connection points: 2
#     Edge 14, Type (0, 0), BuildingBlock: CIFDUS_clean_linker_0, # of connection points: 2
#     Edge 15, Type (0, 0), BuildingBlock: CIFDUS_clean_linker_0, # of connection points: 2
#     Edge 16, Type (0, 0), BuildingBlock: CIFDUS_clean_linker_0, # of connection points: 2
#     Edge 17, Type (0, 0), BuildingBlock: CIFDUS_clean_linker_0, # of connection points: 2
#     Edge 18, Type (0, 0), BuildingBlock: CIFDUS_clean_linker_0, # of connection points: 2
#     Edge 19, Type (0, 0), BuildingBlock: CIFDUS_clean_linker_0, # of connection points: 2
#     Edge 20, Type (0, 0), BuildingBlock: CIFDUS_clean_linker_0, # of connection points: 2
#     Edge 21, Type (0, 0), BuildingBlock: CIFDUS_clean_linker_0, # of connection points: 2
#     Edge 22, Type (0, 0), BuildingBlock: CIFDUS_clean_linker_0, # of connection points: 2
#     Edge 23, Type (0, 0), BuildingBlock: CIFDUS_clean_linker_0, # of connection points: 2
#     Edge 24, Type (0, 0), BuildingBlock: CIFDUS_clean_linker_0, # of connection points: 2
#     Edge 25, Type (0, 0), BuildingBlock: CIFDUS_clean_linker_0, # of connection points: 2
#     Edge 26, Type (0, 0), BuildingBlock: CIFDUS_clean_linker_0, # of connection points: 2
#     Edge 27, Type (0, 0), BuildingBlock: CIFDUS_clean_linker_0, # of connection points: 2
#     Edge 28, Type (0, 0), BuildingBlock: CIFDUS_clean_linker_0, # of connection points: 2
#     Edge 29, Type (0, 0), BuildingBlock: CIFDUS_clean_linker_0, # of connection points: 2
#     Edge 30, Type (0, 0), BuildingBlock: CIFDUS_clean_linker_0, # of connection points: 2
#     Edge 31, Type (0, 0), BuildingBlock: CIFDUS_clean_linker_0, # of connection points: 2
#     Edge 32, Type (0, 0), BuildingBlock: CIFDUS_clean_linker_0, # of connection points: 2
#     Edge 33, Type (0, 0), BuildingBlock: CIFDUS_clean_linker_0, # of connection points: 2
#     Edge 34, Type (0, 0), BuildingBlock: CIFDUS_clean_linker_0, # of connection points: 2
#     Edge 35, Type (0, 0), BuildingBlock: CIFDUS_clean_linker_0, # of connection points: 2
#     Edge 36, Type (0, 0), BuildingBlock: CIFDUS_clean_linker_0, # of connection points: 2
#     Edge 37, Type (0, 0), BuildingBlock: CIFDUS_clean_linker_0, # of connection points: 2
#     Edge 38, Type (0, 0), BuildingBlock: CIFDUS_clean_linker_0, # of connection points: 2
#     Edge 39, Type (0, 0), BuildingBlock: CIFDUS_clean_linker_0, # of connection points: 2
#     Edge 40, Type (0, 0), BuildingBlock: CIFDUS_clean_linker_0, # of connection points: 2
#     Edge 41, Type (0, 0), BuildingBlock: CIFDUS_clean_linker_0, # of connection points: 2
#     Edge 42, Type (0, 0), BuildingBlock: CIFDUS_clean_linker_0, # of connection points: 2
#     Edge 43, Type (0, 0), BuildingBlock: CIFDUS_clean_linker_0, # of connection points: 2
#     Edge 44, Type (0, 0), BuildingBlock: CIFDUS_clean_linker_0, # of connection points: 2
#     Edge 45, Type (0, 0), BuildingBlock: CIFDUS_clean_linker_0, # of connection points: 2
#     Edge 46, Type (0, 0), BuildingBlock: CIFDUS_clean_linker_0, # of connection points: 2
#     Edge 47, Type (0, 0), BuildingBlock: CIFDUS_clean_linker_0, # of connection points: 2
# Relax obj value: 0.308
# Max RMSD: 0.232
# Mean RMSD: 0.231
data_MOF--net-wjd--node1-VOLQOD_clean_sbu_1--edge1-CIFDUS_clean_linker_0
_symmetry_space_group_name_H-M    P1
_symmetry_Int_Tables_number       1
_symmetry_cell_setting            triclinic
loop_
_symmetry_equiv_pos_as_xyz
'x, y, z'
_cell_length_a     29.040417
_cell_length_b     28.943655
_cell_length_c     58.805127
_cell_angle_alpha  89.573225
_cell_angle_beta   90.274463
_cell_angle_gamma 120.30254
loop_
_atom_site_label
_atom_site_type_symbol
_atom_site_fract_x
_atom_site_fract_y
_atom_site_fract_z
_atom_type_partial_charge
O0 O 0.35289 0.225 0.09497 0.0
Zn1 Zn 0.28839 0.14913 0.09189 0.0
O2 O 0.29551 0.09827 0.11259 0.0
Zn3 Zn 0.29836 0.04189 0.09565 0.0
Zn4 Zn 0.35815 0.13539 0.13126 0.0
Zn5 Zn 0.23629 0.06479 0.13314 0.0
O6 O 0.23654 0.96734 0.10267 0.0
O7 O 0.18925 -0.01123 0.12528 0.0
O8 O 0.27425 0.12037 0.05889 0.0
O9 O 0.28337 0.04902 0.06368 0.0
O10 O 0.37136 0.04828 0.0973 0.0
O11 O 0.41113 0.1153 0.12189 0.0
O12 O 0.34505 0.12028 0.16504 0.0
O13 O 0.22646 0.15821 0.1024 0.0
O14 O 0.25699 0.06988 0.16576 0.0
O15 O 0.1944 0.1008 0.13125 0.0
C16 C 0.38618 0.2442 0.1114 0.0
C17 C 0.19414 0.95451 0.11377 0.0
C18 C 0.41211 0.08101 0.1088 0.0
C19 C 0.27321 0.07864 0.05115 0.0
C20 C 0.30163 0.09338 0.17593 0.0
C21 C 0.19387 0.13661 0.11887 0.0
O22 O 0.38946 0.21385 0.12633 0.0
O23 O 0.79141 0.55094 0.36038 0.0
Zn24 Zn 0.78731 0.61504 0.34968 0.0
O25 O 0.73734 0.62288 0.36887 0.0
Zn26 Zn 0.67831 0.61843 0.35123 0.0
Zn27 Zn 0.71223 0.57199 0.39344 0.0
Zn28 Zn 0.77508 0.69023 0.38349 0.0
O29 O 0.67534 0.68703 0.35572 0.0
O30 O 0.75866 0.74015 0.36792 0.0
O31 O 0.76601 0.60965 0.31638 0.0
O32 O 0.69022 0.6114 0.31783 0.0
O33 O 0.6092 0.55088 0.36004 0.0
O34 O 0.63841 0.51636 0.38646 0.0
O35 O 0.70652 0.60272 0.42354 0.0
O36 O 0.86309 0.67598 0.3539 0.0
O37 O 0.75112 0.68912 0.4155 0.0
O38 O 0.85302 0.7181 0.38316 0.0
C39 C 0.78232 0.5282 0.37985 0.0
C40 C 0.71418 0.73324 0.36087 0.0
C41 C 0.60129 0.51338 0.37389 0.0
C42 C 0.7261 0.60846 0.30656 0.0
C43 C 0.72337 0.65103 0.42921 0.0
C44 C 0.88269 0.71068 0.36964 0.0
O45 O 0.75634 0.53649 0.39516 0.0
O46 O 0.73949 0.16856 0.09879 0.0
Zn47 Zn 0.81295 0.17503 0.09615 0.0
O48 O 0.85827 0.21613 0.12181 0.0
Zn49 Zn 0.92338 0.27845 0.11132 0.0
Zn50 Zn 0.82239 0.24147 0.13994 0.0
Zn51 Zn 0.87209 0.172 0.14176 0.0
O52 O -0.01142 0.28051 0.12503 0.0
O53 O 0.949 0.19657 0.13813 0.0
O54 O 0.85304 0.20336 0.06566 0.0
O55 O 0.93139 0.26694 0.07887 0.0
O56 O 0.91842 0.34698 0.11187 0.0
O57 O 0.83924 0.31242 0.12851 0.0
O58 O 0.83864 0.24397 0.1735 0.0
O59 O 0.79475 0.09817 0.09919 0.0
O60 O 0.85981 0.18036 0.17496 0.0
O61 O 0.82782 0.09445 0.13287 0.0
C62 C 0.71772 0.17118 0.11724 0.0
C63 C -0.00911 0.24029 0.1327 0.0
C64 C 0.87814 0.35051 0.11798 0.0
C65 C 0.90227 0.23834 0.06261 0.0
C66 C 0.84985 0.21331 0.18487 0.0
C67 C 0.80066 0.07154 0.11512 0.0
O68 O 0.74537 0.19376 0.13488 0.0
O69 O 0.35788 0.19404 0.36363 0.0
Zn70 Zn 0.29902 0.12508 0.35179 0.0
O71 O 0.28753 0.06735 0.37221 0.0
Zn72 Zn 0.29691 0.01421 0.35529 0.0
Zn73 Zn 0.33588 0.09426 0.39782 0.0
Zn74 Zn 0.21751 0.03834 0.38508 0.0
O75 O 0.22851 0.94139 0.3571 0.0
O76 O 0.17406 0.96517 0.37321 0.0
O77 O 0.31368 0.11236 0.32003 0.0
O78 O 0.31024 0.03398 0.32179 0.0
O79 O 0.36317 0.01375 0.36665 0.0
O80 O 0.39268 0.07657 0.39325 0.0
O81 O 0.30017 0.05918 0.42776 0.0
O82 O 0.23635 0.13597 0.34997 0.0
O83 O 0.2153 0.02766 0.4189 0.0
O84 O 0.184 0.08265 0.37746 0.0
C85 C 0.3799 0.20876 0.38306 0.0
C86 C 0.18237 0.93049 0.3639 0.0
C87 C 0.39835 0.04347 0.38121 0.0
C88 C 0.31618 0.07438 0.31052 0.0
C89 C 0.25112 0.03522 0.43331 0.0
C90 C 0.19511 0.11838 0.36232 0.0
O91 O 0.37201 0.17495 0.39881 0.0
O92 O 0.79527 0.59327 0.08326 0.0
Zn93 Zn 0.79199 0.66219 0.08369 0.0
O94 O 0.74195 0.65729 0.10796 0.0
Zn95 Zn 0.6837 0.66551 0.09485 0.0
Zn96 Zn 0.71272 0.59047 0.12479 0.0
Zn97 Zn 0.78001 0.71126 0.13063 0.0
O98 O 0.68471 0.73142 0.10803 0.0
O99 O 0.7565 0.76444 0.13032 0.0
O100 O 0.76873 0.67754 0.05237 0.0
O101 O 0.69659 0.68174 0.06142 0.0
O102 O 0.61118 0.59521 0.09767 0.0
O103 O 0.63593 0.54677 0.11836 0.0
O104 O 0.72144 0.59671 0.15925 0.0
O105 O 0.86911 0.71937 0.09134 0.0
O106 O 0.77279 0.68432 0.16258 0.0
O107 O 0.85695 0.74717 0.12461 0.0
C108 C 0.77612 0.55359 0.09702 0.0
C109 C 0.71815 0.76745 0.12141 0.0
C110 C 0.60035 0.55162 0.10779 0.0
C111 C 0.73031 0.68513 0.04676 0.0
C112 C 0.7481 0.63798 0.17146 0.0
C113 C 0.88768 0.74764 0.10923 0.0
O114 O 0.74578 0.54935 0.11342 0.0
O115 O 0.71812 0.11858 0.37399 0.0
Zn116 Zn 0.78593 0.12259 0.36446 0.0
O117 O 0.84462 0.17419 0.38303 0.0
Zn118 Zn 0.89804 0.23076 0.36321 0.0
Zn119 Zn 0.81873 0.20314 0.40591 0.0
Zn120 Zn 0.87359 0.1375 0.39995 0.0
O121 O -0.03 0.23485 0.36724 0.0
O122 O 0.94507 0.16076 0.38784 0.0
O123 O 0.79921 0.13862 0.33097 0.0
O124 O 0.87759 0.21405 0.32995 0.0
O125 O 0.90017 0.30114 0.36909 0.0
O126 O 0.83885 0.27644 0.39621 0.0
O127 O 0.85394 0.21125 0.43685 0.0
O128 O 0.77255 0.04855 0.36937 0.0
O129 O 0.88868 0.15922 0.43272 0.0
O130 O 0.82772 0.05777 0.39751 0.0
C131 C 0.70396 0.13167 0.39217 0.0
C132 C -0.02008 0.2009 0.37667 0.0
C133 C 0.87169 0.31129 0.38233 0.0
C134 C 0.83744 0.17625 0.31987 0.0
C135 C 0.88059 0.19073 0.44475 0.0
C136 C 0.79018 0.02847 0.38385 0.0
O137 O 0.73797 0.1607 0.40724 0.0
O138 O 0.21234 0.36675 0.6286 0.0
Zn139 Zn 0.14149 0.31444 0.64072 0.0
O140 O 0.08701 0.30247 0.61879 0.0
Zn141 Zn 0.03438 0.31555 0.63345 0.0
Zn142 Zn 0.11875 0.34773 0.59239 0.0
Zn143 Zn 0.05608 0.23046 0.60799 0.0
O144 O -0.03964 0.24948 0.63015 0.0
O145 O -0.01721 0.18888 0.62042 0.0
O146 O 0.13091 0.33964 0.6706 0.0
O147 O 0.04924 0.32751 0.66745 0.0
O148 O 0.04089 0.38432 0.62011 0.0
O149 O 0.10529 0.40806 0.59444 0.0
O150 O 0.08217 0.30961 0.56315 0.0
O151 O 0.14667 0.24903 0.64634 0.0
O152 O 0.0438 0.22476 0.57408 0.0
O153 O 0.10025 0.19774 0.61724 0.0
C154 C 0.23046 0.38614 0.60904 0.0
C155 C 0.94839 0.20116 0.62663 0.0
C156 C 0.07287 0.41719 0.60521 0.0
C157 C 0.09081 0.33953 0.67918 0.0
C158 C 0.05398 0.25989 0.55878 0.0
C159 C 0.13188 0.20811 0.634 0.0
O160 O 0.19936 0.37922 0.59232 0.0
O161 O 0.11499 0.74983 0.90405 0.0
Zn162 Zn 0.12233 0.82367 0.90248 0.0
O163 O 0.16932 0.86626 0.87736 0.0
Zn164 Zn 0.23058 0.93224 0.8886 0.0
Zn165 Zn 0.19439 0.82543 0.86198 0.0
Zn166 Zn 0.12956 0.88051 0.85474 0.0
O167 O 0.23104 -0.00309 0.87451 0.0
O168 O 0.15277 0.95775 0.85633 0.0
O169 O 0.14684 0.86501 0.93238 0.0
O170 O 0.21933 0.9401 0.92141 0.0
O171 O 0.30077 0.93047 0.88635 0.0
O172 O 0.26821 0.84958 0.87126 0.0
O173 O 0.19661 0.83369 0.82798 0.0
O174 O 0.04665 0.8059 0.896 0.0
O175 O 0.14395 0.86747 0.82261 0.0
O176 O 0.05081 0.83624 0.8608 0.0
C177 C 0.1222 0.72465 0.88801 0.0
C178 C 0.19431 -0.00059 0.8635 0.0
C179 C 0.30665 0.89177 0.87974 0.0
C180 C 0.18565 0.91193 0.93664 0.0
C181 C 0.17318 0.85022 0.81477 0.0
C182 C 0.02392 0.81038 0.87821 0.0
O183 O 0.14875 0.74879 0.8703 0.0
O184 O 0.55695 0.81857 0.61238 0.0
Zn185 Zn 0.61803 0.81202 0.62292 0.0
O186 O 0.62551 0.76553 0.60149 0.0
Zn187 Zn 0.62025 0.70387 0.61757 0.0
Zn188 Zn 0.57686 0.74437 0.57624 0.0
Zn189 Zn 0.69271 0.80761 0.58751 0.0
O190 O 0.69068 0.70527 0.61556 0.0
O191 O 0.73988 0.78977 0.60369 0.0
O192 O 0.6074 0.78425 0.65549 0.0
O193 O 0.61155 0.71015 0.65145 0.0
O194 O 0.55543 0.63528 0.60598 0.0
O195 O 0.52281 0.66843 0.58039 0.0
O196 O 0.61046 0.74541 0.54578 0.0
O197 O 0.68001 0.88855 0.62187 0.0
O198 O 0.69597 0.79058 0.55491 0.0
O199 O 0.72022 0.88555 0.59046 0.0
C200 C 0.53313 0.81174 0.59339 0.0
C201 C 0.73575 0.74766 0.61254 0.0
C202 C 0.51977 0.62918 0.59152 0.0
C203 C 0.60705 0.74341 0.66399 0.0
C204 C 0.65928 0.7649 0.54049 0.0
C205 C 0.71411 0.912 0.60612 0.0
O206 O 0.53987 0.78733 0.57687 0.0
O207 O 0.17642 0.37321 0.9041 0.0
Zn208 Zn 0.10191 0.30661 0.90306 0.0
O209 O 0.06244 0.3098 0.87647 0.0
Zn210 Zn -0.00213 0.30941 0.88519 0.0
Zn211 Zn 0.10738 0.37145 0.85825 0.0
Zn212 Zn 0.04304 0.25021 0.85718 0.0
O213 O 0.93102 0.24477 0.87257 0.0
O214 O -0.03246 0.19668 0.86201 0.0
O215 O 0.05768 0.29335 0.93236 0.0
O216 O -0.01204 0.29631 0.91833 0.0
O217 O 0.00494 0.38206 0.87904 0.0
O218 O 0.0858 0.42562 0.86323 0.0
O219 O 0.0998 0.35724 0.82439 0.0
O220 O 0.1188 0.24702 0.89869 0.0
O221 O 0.04772 0.2692 0.82424 0.0
O222 O 0.08831 0.21813 0.86385 0.0
C223 C 0.20428 0.40151 0.88724 0.0
C224 C 0.92682 0.20077 0.86614 0.0
C225 C 0.04432 0.42453 0.87083 0.0
C226 C 0.01219 0.28971 0.93495 0.0
C227 C 0.07228 0.3136 0.81369 0.0
C228 C 0.11436 0.21862 0.88141 0.0
O229 O 0.18297 0.40098 0.86816 0.0
O230 O 0.10607 0.73147 0.62789 0.0
Zn231 Zn 0.11715 0.80362 0.63408 0.0
O232 O 0.17404 0.85844 0.61588 0.0
Zn233 Zn 0.23235 0.90655 0.63665 0.0
Zn234 Zn 0.19477 0.8236 0.59338 0.0
Zn235 Zn 0.1483 0.89793 0.59887 0.0
O236 O 0.24573 -0.01728 0.63482 0.0
O237 O 0.18528 0.97246 0.60892 0.0
O238 O 0.13015 0.81819 0.66723 0.0
O239 O 0.21417 0.88426 0.66987 0.0
O240 O 0.29919 0.90583 0.62813 0.0
O241 O 0.2698 0.84694 0.59981 0.0
O242 O 0.19632 0.84956 0.56092 0.0
O243 O 0.04869 0.80007 0.62782 0.0
O244 O 0.1626 0.90239 0.56549 0.0
O245 O 0.07139 0.86904 0.60449 0.0
C246 C 0.12018 0.71215 0.61185 0.0
C247 C 0.22258 0.00144 0.62257 0.0
C248 C 0.30691 0.87933 0.6129 0.0
C249 C 0.17036 0.8499 0.6791 0.0
C250 C 0.18293 0.88206 0.55281 0.0
C251 C 0.03697 0.82975 0.6162 0.0
O252 O 0.15208 0.7422 0.59632 0.0
O253 O 0.5569 0.81587 0.88591 0.0
Zn254 Zn 0.62192 0.8052 0.88673 0.0
O255 O 0.61544 0.75173 0.86387 0.0
Zn256 Zn 0.62038 0.69374 0.87914 0.0
Zn257 Zn 0.54926 0.72459 0.84731 0.0
Zn258 Zn 0.66973 0.78343 0.8405 0.0
O259 O 0.68521 0.69017 0.86819 0.0
O260 O 0.72229 0.75968 0.84442 0.0
O261 O 0.63704 0.78601 0.91899 0.0
O262 O 0.63701 0.71052 0.91223 0.0
O263 O 0.54892 0.62328 0.87703 0.0
O264 O 0.50126 0.64848 0.85586 0.0
O265 O 0.55588 0.72935 0.81289 0.0
O266 O 0.68287 0.87823 0.87728 0.0
O267 O 0.64293 0.76654 0.8081 0.0
O268 O 0.70836 0.86244 0.84402 0.0
C269 C 0.52009 0.79975 0.87092 0.0
C270 C 0.72332 0.72195 0.85514 0.0
C271 C 0.50544 0.61327 0.86728 0.0
C272 C 0.64299 0.74718 0.9258 0.0
C273 C 0.59617 0.74619 0.7999 0.0
C274 C 0.71127 0.89472 0.8593 0.0
O275 O 0.51516 0.76644 0.85575 0.0
H276 H 0.01427 0.17521 0.15633 0.0
H277 H 0.07934 0.30203 0.10629 0.0
H278 H 0.15026 0.28236 0.09777 0.0
H279 H 0.18708 0.22162 0.10164 0.0
H280 H 0.11553 0.0917 0.15047 0.0
H281 H 0.05326 0.11943 0.16187 0.0
C282 C 0.0445 0.19925 0.14381 0.0
C283 C 0.0413 0.23959 0.13183 0.0
C284 C 0.08324 0.18619 0.13832 0.0
C285 C 0.08112 0.27086 0.11587 0.0
C286 C 0.12116 0.25907 0.11075 0.0
C287 C 0.15778 0.19941 0.11472 0.0
C288 C 0.15579 0.15426 0.12493 0.0
C289 C 0.1214 0.21545 0.12129 0.0
C290 C 0.11797 0.12635 0.14211 0.0
C291 C 0.08233 0.14227 0.1488 0.0
H292 H 0.11622 0.8765 0.39749 0.0
H293 H 0.14433 0.86561 0.32645 0.0
H294 H 0.05296 0.78948 0.32233 0.0
H295 H -0.03891 0.73715 0.33797 0.0
H296 H 0.93462 0.75592 0.40868 0.0
H297 H 0.02932 0.8179 0.41397 0.0
C298 C 0.10267 0.85634 0.38125 0.0
C299 C 0.13617 0.87631 0.36227 0.0
C300 C 0.05006 0.81492 0.37891 0.0
C301 C 0.11892 0.8503 0.3413 0.0
C302 C 0.06657 0.80742 0.33892 0.0
C303 C -0.02364 0.75426 0.35457 0.0
C304 C 0.94088 0.74297 0.37279 0.0
C305 C 0.03106 0.79109 0.35741 0.0
C306 C -0.03899 0.76499 0.39427 0.0
C307 C 0.01517 0.80021 0.39737 0.0
H308 H 0.78424 4e-05 0.14869 0.0
H309 H 0.75853 0.01057 0.07695 0.0
H310 H 0.72112 0.91408 0.07324 0.0
H311 H 0.705 0.82835 0.08969 0.0
H312 H 0.73462 0.81989 0.16106 0.0
H313 H 0.75967 0.91344 0.16576 0.0
C314 C 0.77026 -0.01873 0.13224 0.0
C315 C 0.77509 0.01267 0.11307 0.0
C316 C 0.74893 0.9259 0.13022 0.0
C317 C 0.75579 -0.01256 0.09197 0.0
C318 C 0.73428 0.93221 0.08983 0.0
C319 C 0.71517 0.84665 0.10637 0.0
C320 C 0.7178 0.8175 0.12504 0.0
C321 C 0.73165 0.90117 0.10875 0.0
C322 C 0.73214 0.84173 0.14651 0.0
C323 C 0.74698 0.8953 0.14915 0.0
H324 H 0.16246 0.15613 0.39614 0.0
H325 H 0.15457 0.13605 0.32348 0.0
H326 H 0.09284 0.1705 0.32059 0.0
H327 H 0.03254 0.19533 0.33981 0.0
H328 H 0.04274 0.21577 0.41251 0.0
H329 H 0.11383 0.19432 0.41437 0.0
C330 C 0.14738 0.15973 0.37969 0.0
C331 C 0.16144 0.14251 0.36013 0.0
C332 C 0.11311 0.1804 0.3782 0.0
C333 C 0.14326 0.14851 0.33877 0.0
C334 C 0.10823 0.16829 0.33713 0.0
C335 C 0.0521 0.19723 0.35583 0.0
C336 C 0.03314 0.20733 0.37598 0.0
C337 C 0.09186 0.18316 0.35683 0.0
C338 C 0.05751 0.2086 0.39681 0.0
C339 C 0.09751 0.19562 0.39791 0.0
H340 H 0.11938 0.90007 0.14506 0.0
H341 H 0.15938 0.89352 0.07519 0.0
H342 H 0.06678 0.82402 0.06746 0.0
H343 H -0.02851 0.77577 0.07959 0.0
H344 H 0.93476 0.7893 0.14957 0.0
H345 H 0.02845 0.8455 0.15804 0.0
C346 C 0.1081 0.88228 0.12829 0.0
C347 C 0.14573 0.90191 0.11072 0.0
C348 C 0.05483 0.8446 0.1238 0.0
C349 C 0.131 0.87856 0.08907 0.0
C350 C 0.07787 0.83951 0.08456 0.0
C351 C -0.01585 0.79077 0.09668 0.0
C352 C 0.94578 0.77932 0.1137 0.0
C353 C 0.03888 0.82401 0.10159 0.0
C354 C -0.037 0.79843 0.13589 0.0
C355 C 0.01679 0.83036 0.14091 0.0
H356 H 0.73392 0.79148 0.3978 0.0
H357 H 0.68115 0.7793 0.32839 0.0
H358 H 0.69444 0.87022 0.33044 0.0
H359 H 0.73456 0.95704 0.35039 0.0
H360 H 0.79469 0.969 0.41875 0.0
H361 H 0.76525 0.87391 0.41874 0.0
C362 C 0.7242 0.80844 0.38328 0.0
C363 C 0.70709 0.77962 0.36293 0.0
C364 C 0.73436 0.86083 0.38432 0.0
C365 C 0.69412 0.80111 0.34422 0.0
C366 C 0.7024 0.85314 0.34536 0.0
C367 C 0.74052 0.9386 0.36538 0.0
C368 C 0.76754 0.97008 0.38443 0.0
C369 C 0.72467 0.88409 0.36504 0.0
C370 C 0.77487 0.94577 0.40376 0.0
C371 C 0.75786 0.89143 0.40381 0.0
H372 H 0.2034 0.04314 0.65953 0.0
H373 H 0.26007 0.07827 0.59047 0.0
H374 H 0.23944 0.15018 0.58847 0.0
H375 H 0.18945 0.19028 0.60385 0.0
H376 H 0.1311 0.15537 0.67264 0.0
H377 H 0.16738 0.09538 0.67739 0.0
C378 C 0.21365 0.06849 0.64453 0.0
C379 C 0.23349 0.05616 0.62522 0.0
C380 C 0.19921 0.10798 0.64318 0.0
C381 C 0.24549 0.08797 0.60558 0.0
C382 C 0.23275 0.12829 0.6043 0.0
C383 C 0.1852 0.16973 0.6199 0.0
C384 C 0.15658 0.1754 0.63767 0.0
C385 C 0.20681 0.13641 0.62252 0.0
C386 C 0.15231 0.15032 0.65867 0.0
C387 C 0.17321 0.1164 0.66138 0.0
H388 H -0.03846 0.79085 0.84093 0.0
H389 H 0.95365 0.76963 0.91383 0.0
H390 H 0.85682 0.73043 0.91259 0.0
H391 H 0.77582 0.71141 0.89117 0.0
H392 H 0.78564 0.73696 0.81862 0.0
H393 H 0.87994 0.76363 0.81924 0.0
C394 C 0.9387 0.77752 0.85657 0.0
C395 C -0.03502 0.78411 0.87748 0.0
C396 C 0.8832 0.75514 0.85575 0.0
C397 C 0.93454 0.76557 0.89751 0.0
C398 C 0.87912 0.74301 0.89682 0.0
C399 C 0.79828 0.72099 0.87544 0.0
C400 C 0.77399 0.72194 0.85485 0.0
C401 C 0.85312 0.73856 0.87608 0.0
C402 C 0.80363 0.73564 0.83462 0.0
C403 C 0.85762 0.75145 0.83501 0.0
H404 H 0.74351 -0.01944 0.64215 0.0
H405 H 0.76272 -0.02482 0.56961 0.0
H406 H 0.83064 0.06952 0.56929 0.0
H407 H 0.89401 0.14875 0.59019 0.0
H408 H 0.88138 0.15467 0.66285 0.0
H409 H 0.80061 0.06552 0.66266 0.0
C410 C 0.76189 0.00043 0.62626 0.0
C411 C 0.7489 0.97075 0.60601 0.0
C412 C 0.80209 0.05472 0.62626 0.0
C413 C 0.77282 -0.00308 0.5855 0.0
C414 C 0.81155 0.0509 0.58526 0.0
C415 C 0.87231 0.13109 0.60585 0.0
C416 C 0.89278 0.15769 0.62645 0.0
C417 C 0.82783 0.07952 0.60562 0.0
C418 C 0.86543 0.13479 0.64678 0.0
C419 C 0.81983 0.08367 0.64666 0.0
H420 H 0.12745 0.16894 0.84533 0.0
H421 H 0.16079 0.19553 0.91719 0.0
H422 H 0.19849 0.13661 0.91699 0.0
H423 H 0.21231 0.06958 0.89714 0.0
H424 H 0.17284 0.03962 0.82599 0.0
H425 H 0.14859 0.10909 0.82497 0.0
C426 C 0.14312 0.16214 0.86098 0.0
C427 C 0.14036 0.18585 0.88134 0.0
C428 C 0.16419 0.12803 0.86077 0.0
C429 C 0.16185 0.1773 0.90133 0.0
C430 C 0.18352 0.14371 0.90122 0.0
C431 C 0.20017 0.07976 0.88129 0.0
C432 C 0.19476 0.05021 0.86159 0.0
C433 C 0.18383 0.11794 0.88113 0.0
C434 C 0.17768 0.06243 0.84125 0.0
C435 C 0.1633 0.10165 0.84074 0.0
H436 H 0.94449 0.735 0.61908 0.0
H437 H 0.01077 0.90627 0.61785 0.0
H438 H 0.92185 0.89425 0.6211 0.0
H439 H 0.82705 0.83639 0.62135 0.0
H440 H 0.75682 0.66499 0.61726 0.0
H441 H 0.84613 0.67534 0.62011 0.0
C442 C 0.93905 0.76941 0.61958 0.0
C443 C -0.01665 0.82135 0.61794 0.0
C444 C 0.8877 0.76213 0.62074 0.0
C445 C -0.02328 0.866 0.61865 0.0
C446 C 0.92618 0.85918 0.6207 0.0
C447 C 0.83102 0.80104 0.62108 0.0
C448 C 0.78592 0.75012 0.61852 0.0
C449 C 0.88163 0.80756 0.6213 0.0
C450 C 0.79135 0.70464 0.61904 0.0
C451 C 0.84224 0.71065 0.62043 0.0
H452 H 0.89767 0.12492 0.83481 0.0
H453 H 0.84077 0.16577 0.89454 0.0
H454 H 0.76537 0.07356 0.8971 0.0
H455 H 0.72315 -0.02108 0.88491 0.0
H456 H 0.78431 0.94054 0.82549 0.0
H457 H 0.85076 0.03418 0.82038 0.0
C458 C 0.86803 0.11384 0.8481 0.0
C459 C 0.87464 0.1515 0.86456 0.0
C460 C 0.82629 0.06098 0.8498 0.0
C461 C 0.83603 0.13724 0.8816 0.0
C462 C 0.79347 0.08444 0.88322 0.0
C463 C 0.75085 -0.00886 0.87079 0.0
C464 C 0.74922 0.95247 0.85587 0.0
C465 C 0.78942 0.0455 0.86789 0.0
C466 C 0.78486 0.96914 0.83742 0.0
C467 C 0.82291 0.02281 0.8344 0.0
H468 H 0.27105 0.10968 0.28053 0.0
H469 H 0.3721 0.04068 0.28482 0.0
H470 H 0.37972 0.0434 0.24316 0.0
H471 H 0.35578 0.06447 0.20534 0.0
H472 H 0.24665 0.12418 0.20203 0.0
H473 H 0.24404 0.12637 0.24349 0.0
C474 C 0.29503 0.09557 0.27233 0.0
C475 C 0.32151 0.07563 0.28558 0.0
C476 C 0.29762 0.09559 0.24857 0.0
C477 C 0.3515 0.05631 0.27484 0.0
C478 C 0.35587 0.05795 0.25108 0.0
C479 C 0.33175 0.0781 0.21384 0.0
C480 C 0.30173 0.09453 0.20088 0.0
C481 C 0.32893 0.07739 0.23775 0.0
C482 C 0.27 0.11139 0.21184 0.0
C483 C 0.26853 0.11269 0.23547 0.0
H484 H 0.80627 0.65327 0.27567 0.0
H485 H 0.63534 0.55597 0.2813 0.0
H486 H 0.62697 0.55222 0.23981 0.0
H487 H 0.66828 0.58016 0.20172 0.0
H488 H 0.83822 0.68584 0.19662 0.0
H489 H 0.8472 0.68262 0.23789 0.0
C490 C 0.76729 0.63087 0.26777 0.0
C491 C 0.72154 0.60466 0.28148 0.0
C492 C 0.76267 0.63054 0.24394 0.0
C493 C 0.67114 0.57654 0.27106 0.0
C494 C 0.66634 0.57434 0.24735 0.0
C495 C 0.7072 0.60193 0.20973 0.0
C496 C 0.75259 0.63283 0.19626 0.0
C497 C 0.71179 0.60163 0.23359 0.0
C498 C 0.80278 0.66176 0.20674 0.0
C499 C 0.80793 0.65995 0.23031 0.0
H500 H 0.81798 0.13057 0.21441 0.0
H501 H 0.88379 0.30137 0.21149 0.0
H502 H 0.88771 0.3056 0.25311 0.0
H503 H 0.87249 0.26033 0.29044 0.0
H504 H 0.79845 0.08846 0.29308 0.0
H505 H 0.79753 0.08485 0.25154 0.0
C506 C 0.83326 0.16868 0.22293 0.0
C507 C 0.85105 0.21566 0.20998 0.0
C508 C 0.83382 0.17052 0.24681 0.0
C509 C 0.86988 0.2647 0.22116 0.0
C510 C 0.87222 0.26712 0.24493 0.0
C511 C 0.85624 0.22219 0.28186 0.0
C512 C 0.83591 0.17476 0.29474 0.0
C513 C 0.85436 0.22028 0.25794 0.0
C514 C 0.8142 0.12547 0.28349 0.0
C515 C 0.81379 0.12339 0.25976 0.0
H516 H 0.01429 0.27808 0.70935 0.0
H517 H 0.17022 0.41853 0.70393 0.0
H518 H 0.17709 0.42544 0.74546 0.0
H519 H 0.14128 0.38726 0.78329 0.0
H520 H -0.01071 0.24104 0.78821 0.0
H521 H -0.02165 0.2403 0.74703 0.0
C522 C 0.04917 0.31077 0.71734 0.0
C523 C 0.09135 0.34821 0.7038 0.0
C524 C 0.05389 0.31283 0.74114 0.0
C525 C 0.13712 0.38961 0.71418 0.0
C526 C 0.14116 0.39334 0.73787 0.0
C527 C 0.10571 0.35547 0.77531 0.0
C528 C 0.06631 0.31419 0.78874 0.0
C529 C 0.10026 0.35449 0.75152 0.0
C530 C 0.0205 0.27299 0.7782 0.0
C531 C 0.01405 0.27264 0.75467 0.0
H532 H 0.10359 0.83929 0.7816 0.0
H533 H 0.26068 0.86214 0.79244 0.0
H534 H 0.27516 0.86638 0.7513 0.0
H535 H 0.24284 0.86391 0.71203 0.0
H536 H 0.08268 0.83328 0.70178 0.0
H537 H 0.06973 0.83194 0.74278 0.0
C538 C 0.14098 0.84521 0.77493 0.0
C539 C 0.18109 0.85071 0.78996 0.0
C540 C 0.14848 0.8463 0.75133 0.0
C541 C 0.2291 0.85762 0.78114 0.0
C542 C 0.23748 0.86025 0.75764 0.0
C543 C 0.20526 0.85706 0.71887 0.0
C544 C 0.16387 0.84894 0.70399 0.0
C545 C 0.19747 0.85475 0.74255 0.0
C546 C 0.11504 0.8394 0.71296 0.0
C547 C 0.10761 0.83874 0.73638 0.0
H548 H 0.55165 0.76469 0.69567 0.0
H549 H 0.66303 0.70864 0.68849 0.0
H550 H 0.67007 0.7049 0.7298 0.0
H551 H 0.64709 0.72066 0.76815 0.0
H552 H 0.52905 0.76785 0.77569 0.0
H553 H 0.52177 0.77174 0.73426 0.0
C554 C 0.57712 0.75134 0.70321 0.0
C555 C 0.60701 0.73727 0.68905 0.0
C556 C 0.57987 0.74783 0.72707 0.0
C557 C 0.63943 0.71945 0.69902 0.0
C558 C 0.64368 0.71753 0.72265 0.0
C559 C 0.6196 0.7315 0.76067 0.0
C560 C 0.58901 0.74442 0.7749 0.0
C561 C 0.61449 0.73209 0.73686 0.0
C562 C 0.55295 0.75766 0.76505 0.0
C563 C 0.54893 0.76007 0.74137 0.0
H564 H 0.2383 0.01754 0.94747 0.0
H565 H 0.14645 0.85965 0.97707 0.0
H566 H 0.16204 0.89889 0.015 0.0
H567 H 0.20684 -0.02304 0.03969 0.0
H568 H 0.29793 0.13531 0.01078 0.0
H569 H 0.27666 0.09697 0.97231 0.0
C570 C 0.22161 -0.00832 0.96223 0.0
C571 C 0.19197 0.93557 0.9595 0.0
C572 C 0.23043 0.01459 0.98395 0.0
C573 C 0.16962 0.90277 0.97871 0.0
C574 C 0.17857 0.9252 0.00038 0.0
C575 C 0.22167 0.00319 0.02493 0.0
C576 C 0.25447 0.0588 0.02793 0.0
C577 C 0.20962 -0.01913 0.00317 0.0
C578 C 0.27261 0.09247 0.0088 0.0
C579 C 0.26079 0.07045 0.9869 0.0
H580 H 0.76405 0.74798 0.4497 0.0
H581 H 0.64331 0.58164 0.45757 0.0
H582 H 0.60968 0.60311 0.49151 0.0
H583 H 0.61458 0.66933 0.51912 0.0
H584 H 0.73948 0.83409 0.5128 0.0
H585 H 0.77081 0.81339 0.47784 0.0
C586 C 0.73056 0.71631 0.4589 0.0
C587 C 0.70635 0.66322 0.45105 0.0
C588 C 0.71164 0.72886 0.47849 0.0
C589 C 0.66307 0.62275 0.46328 0.0
C590 C 0.6435 0.63506 0.48261 0.0
C591 C 0.64809 0.70073 0.50982 0.0
C592 C 0.67413 0.75334 0.51817 0.0
C593 C 0.66724 0.68802 0.4903 0.0
C594 C 0.71851 0.79347 0.50646 0.0
C595 C 0.7366 0.78156 0.48659 0.0
H596 H 0.05392 0.29531 0.97748 0.0
H597 H 0.90634 0.24952 0.94227 0.0
H598 H 0.85839 0.22631 0.97815 0.0
H599 H 0.85816 0.22189 0.02001 0.0
H600 H 0.00634 0.27142 0.05529 0.0
H601 H 0.05346 0.28959 0.01926 0.0
C602 C 0.01129 0.28005 0.97768 0.0
C603 C -0.01587 0.27468 0.95718 0.0
C604 C -0.01633 0.26733 -0.00148 0.0
C605 C 0.92868 0.25482 0.95779 0.0
C606 C 0.90095 0.24125 0.97834 0.0
C607 C 0.90061 0.23621 0.01974 0.0
C608 C 0.92858 0.24553 0.04029 0.0
C609 C 0.92801 0.24776 -0.00113 0.0
C610 C -0.0162 0.26443 0.03969 0.0
C611 C 0.01094 0.27481 0.01907 0.0
H612 H 0.28824 -0.01938 0.45754 0.0
H613 H 0.17413 0.0341 0.45968 0.0
H614 H 0.14103 -0.01084 0.49639 0.0
H615 H 0.14483 0.93506 0.52787 0.0
H616 H 0.25505 0.87654 0.52479 0.0
H617 H 0.28842 0.92181 0.48821 0.0
C618 C 0.25659 -0.01712 0.46624 0.0
C619 C 0.2343 0.01146 0.45623 0.0
C620 C 0.23644 0.95524 0.48693 0.0
C621 C 0.19224 0.01284 0.46726 0.0
C622 C 0.17315 -0.01308 0.48815 0.0
C623 C 0.1758 0.93172 0.51911 0.0
C624 C 0.19742 0.90246 0.52914 0.0
C625 C 0.19481 0.95784 0.4981 0.0
C626 C 0.23733 0.89838 0.51743 0.0
C627 C 0.25684 0.92473 0.4966 0.0
H628 H 0.68045 0.73804 0.0317 0.0
H629 H 0.76354 0.65941 0.0077 0.0
H630 H 0.74435 0.67246 0.96832 0.0
H631 H 0.70046 0.70254 0.94081 0.0
H632 H 0.62154 0.78551 0.96455 0.0
H633 H 0.64277 0.77463 0.00396 0.0
C634 C 0.6946 0.72392 0.01785 0.0
C635 C 0.72303 0.69721 0.02273 0.0
C636 C 0.68395 0.73219 -0.00477 0.0
C637 C 0.74169 0.68003 0.00452 0.0
C638 C 0.73049 0.6873 0.98198 0.0
C639 C 0.68793 0.71836 0.9546 0.0
C640 C 0.65874 0.74424 0.94971 0.0
C641 C 0.70106 0.71269 0.97715 0.0
C642 C 0.64384 0.76538 0.96779 0.0
C643 C 0.65588 0.75899 0.99033 0.0
H644 H 0.00887 0.30612 0.53401 0.0
H645 H 0.03499 0.17215 0.53453 0.0
H646 H -0.01772 0.13795 0.49965 0.0
H647 H 0.92796 0.14566 0.4693 0.0
H648 H 0.89677 0.27653 0.47022 0.0
H649 H 0.95122 0.31172 0.50447 0.0
C650 C 0.00364 0.26988 0.52625 0.0
C651 C 0.02668 0.24223 0.53653 0.0
C652 C -0.02846 0.24938 0.50671 0.0
C653 C 0.01822 0.19444 0.52674 0.0
C654 C -0.01218 0.17474 0.5069 0.0
C655 C 0.93267 0.18167 0.47706 0.0
C656 C 0.90816 0.20833 0.4671 0.0
C657 C -0.03605 0.20165 0.49683 0.0
C658 C 0.9147 0.25486 0.47753 0.0
C659 C 0.94627 0.27532 0.49705 0.0
H660 H 0.64129 0.12588 0.08356 0.0
H661 H 0.6622 0.16328 0.15532 0.0
H662 H 0.56817 0.13153 0.15922 0.0
H663 H 0.48183 0.10135 0.14221 0.0
H664 H 0.45687 0.06459 0.0708 0.0
H665 H 0.55005 0.08637 0.06694 0.0
C666 C 0.62511 0.12671 0.10003 0.0
C667 C 0.65928 0.14804 0.11896 0.0
C668 C 0.57021 0.1083 0.1023 0.0
C669 C 0.63741 0.14811 0.14029 0.0
C670 C 0.58338 0.12969 0.14265 0.0
C671 C 0.49659 0.09731 0.12585 0.0
C672 C 0.46312 0.08207 0.10679 0.0
C673 C 0.54979 0.11093 0.12374 0.0
C674 C 0.48217 0.07617 0.08574 0.0
C675 C 0.5355 0.08917 0.08351 0.0
H676 H 0.5654 0.43894 0.40723 0.0
H677 H 0.52162 0.47421 0.34186 0.0
H678 H 0.44503 0.38312 0.34012 0.0
H679 H 0.39799 0.29126 0.35503 0.0
H680 H 0.44499 0.25583 0.4197 0.0
H681 H 0.51323 0.34979 0.42383 0.0
C682 C 0.53879 0.42697 0.39268 0.0
C683 C 0.54965 0.46288 0.37449 0.0
C684 C 0.49598 0.37449 0.39156 0.0
C685 C 0.51421 0.44719 0.35602 0.0
C686 C 0.47071 0.39505 0.35495 0.0
C687 C 0.42285 0.30406 0.37014 0.0
C688 C 0.41705 0.26635 0.38685 0.0
C689 C 0.46242 0.35794 0.37226 0.0
C690 C 0.44895 0.28386 0.40648 0.0
C691 C 0.48801 0.33756 0.40885 0.0
H692 H 0.78576 0.34502 0.10822 0.0
H693 H 0.95501 0.45668 0.11031 0.0
H694 H 0.93884 0.53028 0.10059 0.0
H695 H 0.87453 0.56308 0.09533 0.0
H696 H 0.70585 0.4485 0.09497 0.0
H697 H 0.7238 0.37533 0.09977 0.0
C698 C 0.81934 0.38548 0.10659 0.0
C699 C 0.87143 0.39573 0.11055 0.0
C700 C 0.80966 0.42684 0.10111 0.0
C701 C 0.9145 0.448 0.10762 0.0
C702 C 0.90518 0.48994 0.10208 0.0
C703 C 0.84205 0.5219 0.09567 0.0
C704 C 0.78893 0.51079 0.09468 0.0
C705 C 0.85272 0.47994 0.09923 0.0
C706 C 0.74692 0.45762 0.09559 0.0
C707 C 0.75716 0.41593 0.0985 0.0
H708 H 0.47535 0.09383 0.413 0.0
H709 H 0.43752 -0.0034 0.35278 0.0
H710 H 0.52857 0.01244 0.35196 0.0
H711 H 0.62065 0.0613 0.36608 0.0
H712 H 0.65857 0.16102 0.42553 0.0
H713 H 0.56527 0.13671 0.42884 0.0
C714 C 0.48668 0.07551 0.39979 0.0
C715 C 0.4498 0.04463 0.38278 0.0
C716 C 0.53921 0.08579 0.39913 0.0
C717 C 0.46509 0.02064 0.36604 0.0
C718 C 0.51725 0.03001 0.36548 0.0
C719 C 0.60857 0.07756 0.37986 0.0
C720 C 0.6468 0.1136 0.39535 0.0
C721 C 0.55497 0.06379 0.38155 0.0
C722 C 0.63016 0.13356 0.41328 0.0
C723 C 0.5768 0.11969 0.41517 0.0
H724 H 0.41105 0.32592 0.08038 0.0
H725 H 0.43789 0.29489 0.1498 0.0
H726 H 0.49856 0.38936 0.15572 0.0
H727 H 0.55172 0.47898 0.14056 0.0
H728 H 0.53234 0.51335 0.07096 0.0
H729 H 0.45986 0.42029 0.06599 0.0
C730 C 0.42992 0.34001 0.09681 0.0
C731 C 0.42059 0.3029 0.11443 0.0
C732 C 0.46585 0.39517 0.10017 0.0
C733 C 0.44501 0.32204 0.13571 0.0
C734 C 0.47958 0.37629 0.13925 0.0
C735 C 0.53073 0.46643 0.12443 0.0
C736 C 0.54737 0.5027 0.10614 0.0
C737 C 0.49128 0.4129 0.1215 0.0
C738 C 0.51981 0.48619 0.08537 0.0
C739 C 0.47899 0.43277 0.08245 0.0
H740 H 0.84336 0.50423 0.35269 0.0
H741 H 0.76633 0.46906 0.41839 0.0
H742 H 0.79435 0.4042 0.42602 0.0
H743 H 0.83356 0.35227 0.41296 0.0
H744 H 0.90773 0.38341 0.34686 0.0
H745 H 0.88936 0.45642 0.34078 0.0
C746 C 0.83289 0.48257 0.36873 0.0
C747 C 0.80205 0.49101 0.38479 0.0
C748 C 0.84887 0.44493 0.37301 0.0
C749 C 0.78951 0.46307 0.4056 0.0
C750 C 0.80562 0.426 0.41003 0.0
C751 C 0.84635 0.37539 0.39729 0.0
C752 C 0.8713 0.36197 0.38025 0.0
C753 C 0.83432 0.41591 0.39369 0.0
C754 C 0.88842 0.39292 0.36025 0.0
C755 C 0.87745 0.43429 0.35668 0.0
H756 H 0.13779 0.65393 0.58041 0.0
H757 H 0.05765 0.63905 0.64405 0.0
H758 H 0.03089 0.54483 0.6465 0.0
H759 H 0.03661 0.46826 0.6323 0.0
H760 H 0.11783 0.48375 0.56893 0.0
H761 H 0.1369 0.57542 0.5646 0.0
C762 C 0.11413 0.63003 0.59472 0.0
C763 C 0.10045 0.6539 0.6121 0.0
C764 C 0.09898 0.57572 0.59615 0.0
C765 C 0.06925 0.62201 0.63044 0.0
C766 C 0.05383 0.56797 0.63191 0.0
C767 C 0.05762 0.49137 0.61736 0.0
C768 C 0.07624 0.46931 0.60115 0.0
C769 C 0.06933 0.5446 0.61509 0.0
C770 C 0.10353 0.49991 0.58186 0.0
C771 C 0.1146 0.55247 0.57934 0.0
H772 H 0.34888 0.86362 0.84664 0.0
H773 H 0.37847 0.92181 0.91538 0.0
H774 H 0.45104 0.90139 0.91876 0.0
H775 H 0.49857 0.85636 0.90302 0.0
H776 H 0.46135 0.795 0.83443 0.0
H777 H 0.39924 0.82672 0.83031 0.0
C778 C 0.37199 0.87289 0.86224 0.0
C779 C 0.35852 0.89399 0.88072 0.0
C780 C 0.4116 0.85925 0.86424 0.0
C781 C 0.38867 0.90606 0.90082 0.0
C782 C 0.42956 0.89363 0.90282 0.0
C783 C 0.477 0.85026 0.8872 0.0
C784 C 0.48408 0.8222 0.86928 0.0
C785 C 0.44018 0.86842 0.88484 0.0
C786 C 0.45614 0.81523 0.84876 0.0
C787 C 0.42069 0.83374 0.84624 0.0
H788 H 0.47501 0.54622 0.62161 0.0
H789 H 0.45427 0.59552 0.55474 0.0
H790 H 0.36369 0.51958 0.55291 0.0
H791 H 0.28626 0.44772 0.57267 0.0
H792 H 0.30635 0.40015 0.64009 0.0
H793 H 0.40096 0.46619 0.63915 0.0
C794 C 0.45112 0.53948 0.60642 0.0
C795 C 0.47084 0.57687 0.58857 0.0
C796 C 0.39846 0.49648 0.60568 0.0
C797 C 0.43953 0.56767 0.56893 0.0
C798 C 0.38765 0.52434 0.56785 0.0
C799 C 0.31149 0.45116 0.58699 0.0
C800 C 0.28892 0.41994 0.60658 0.0
C801 C 0.36594 0.48985 0.58654 0.0
C802 C 0.32239 0.42445 0.6249 0.0
C803 C 0.37665 0.46221 0.62442 0.0
H804 H 0.10106 0.6588 0.8526 0.0
H805 H 0.08754 0.6584 0.92564 0.0
H806 H 0.05328 0.56159 0.92652 0.0
H807 H 0.03655 0.47912 0.9065 0.0
H808 H 0.05523 0.48349 0.83371 0.0
H809 H 0.07704 0.5767 0.83262 0.0
C810 C 0.09057 0.63766 0.86877 0.0
C811 C 0.09791 0.66586 0.88907 0.0
C812 C 0.07136 0.58263 0.8691 0.0
C813 C 0.08279 0.63759 0.90979 0.0
C814 C 0.0632 0.58231 0.91029 0.0
C815 C 0.0438 0.50028 0.89042 0.0
C816 C 0.0439 0.47489 0.87016 0.0
C817 C 0.05839 0.55461 0.89006 0.0
C818 C 0.05453 0.50253 0.84941 0.0
C819 C 0.06745 0.5558 0.84882 0.0
H820 H 0.3414 0.84833 0.57697 0.0
H821 H 0.38948 0.91964 0.64348 0.0
H822 H 0.46893 0.91096 0.64169 0.0
H823 H 0.51688 0.87215 0.62352 0.0
H824 H 0.46479 0.79529 0.55814 0.0
H825 H 0.39421 0.81759 0.55717 0.0
C826 C 0.36945 0.86242 0.59104 0.0
C827 C 0.35912 0.88337 0.61058 0.0
C828 C 0.41373 0.85585 0.59017 0.0
C829 C 0.39644 0.90286 0.62837 0.0
C830 C 0.44159 0.89764 0.62739 0.0
C831 C 0.49039 0.86055 0.60894 0.0
C832 C 0.4952 0.83101 0.59115 0.0
C833 C 0.44938 0.87235 0.60875 0.0
C834 C 0.46141 0.81742 0.57218 0.0
C835 C 0.42107 0.83008 0.57163 0.0
H836 H 0.447 0.56879 0.90537 0.0
H837 H 0.45362 0.54384 0.83361 0.0
H838 H 0.36065 0.47161 0.83409 0.0
H839 H 0.275 0.42528 0.85354 0.0
H840 H 0.26518 0.45085 0.92506 0.0
H841 H 0.36193 0.51308 0.92621 0.0
C842 C 0.42842 0.54596 0.89011 0.0
C843 C 0.4569 0.56073 0.86952 0.0
C844 C 0.37419 0.5058 0.89038 0.0
C845 C 0.4324 0.53229 0.84965 0.0
C846 C 0.37916 0.49154 0.84988 0.0
C847 C 0.29406 0.44419 0.86945 0.0
C848 C 0.26298 0.43455 0.88907 0.0
C849 C 0.3492 0.47961 0.86992 0.0
C850 C 0.28831 0.45817 0.90968 0.0
C851 C 0.34354 0.49371 0.91032 0.0
loop_
_geom_bond_atom_site_label_1
_geom_bond_atom_site_label_2
_geom_bond_distance
_geom_bond_site_symmetry_2
_ccdc_geom_bond_type
O0 Zn1 1.953 . S
O0 C16 1.225 . S
Zn1 O0 1.953 . S
Zn1 O2 1.949 . S
Zn1 O8 1.919 . S
Zn1 O13 1.924 . S
O2 Zn1 1.949 . S
O2 Zn3 1.923 . S
O2 Zn4 1.950 . S
O2 Zn5 1.945 . S
Zn3 O2 1.923 . S
Zn3 O6 1.933 1_545 S
Zn3 O9 1.941 . S
Zn3 O10 1.965 . S
Zn4 O2 1.950 . S
Zn4 O11 1.938 . S
Zn4 O12 1.906 . S
Zn4 O22 1.953 . S
Zn5 O2 1.945 . S
Zn5 O7 1.932 . S
Zn5 O14 1.977 . S
Zn5 O15 1.910 . S
O6 Zn3 1.933 1_565 S
O6 C17 1.226 . S
O7 Zn5 1.932 . S
O7 C17 1.307 1_545 S
O8 Zn1 1.919 . S
O8 C19 1.253 . S
O9 Zn3 1.941 . S
O9 C19 1.283 . S
O10 Zn3 1.965 . S
O10 C18 1.303 . S
O11 Zn4 1.938 . S
O11 C18 1.247 . S
O12 Zn4 1.906 . S
O12 C20 1.304 . S
O13 Zn1 1.924 . S
O13 C21 1.311 . S
O14 Zn5 1.977 . S
O14 C20 1.272 . S
O15 Zn5 1.910 . S
O15 C21 1.231 . S
C16 O0 1.225 . S
C16 O22 1.298 . S
C17 O6 1.226 . S
C17 O7 1.307 1_565 S
C18 O10 1.303 . S
C18 O11 1.247 . S
C19 O8 1.253 . S
C19 O9 1.283 . S
C20 O12 1.304 . S
C20 O14 1.272 . S
C21 O13 1.311 . S
C21 O15 1.231 . S
O22 Zn4 1.953 . S
O22 C16 1.298 . S
O23 Zn24 1.953 . S
O23 C39 1.225 . S
Zn24 O23 1.953 . S
Zn24 O25 1.949 . S
Zn24 O31 1.919 . S
Zn24 O36 1.924 . S
O25 Zn24 1.949 . S
O25 Zn26 1.923 . S
O25 Zn27 1.950 . S
O25 Zn28 1.945 . S
Zn26 O25 1.923 . S
Zn26 O29 1.933 . S
Zn26 O32 1.941 . S
Zn26 O33 1.965 . S
Zn27 O25 1.950 . S
Zn27 O34 1.938 . S
Zn27 O35 1.906 . S
Zn27 O45 1.953 . S
Zn28 O25 1.945 . S
Zn28 O30 1.932 . S
Zn28 O37 1.977 . S
Zn28 O38 1.910 . S
O29 Zn26 1.933 . S
O29 C40 1.226 . S
O30 Zn28 1.932 . S
O30 C40 1.307 . S
O31 Zn24 1.919 . S
O31 C42 1.253 . S
O32 Zn26 1.941 . S
O32 C42 1.283 . S
O33 Zn26 1.965 . S
O33 C41 1.303 . S
O34 Zn27 1.938 . S
O34 C41 1.247 . S
O35 Zn27 1.906 . S
O35 C43 1.304 . S
O36 Zn24 1.924 . S
O36 C44 1.311 . S
O37 Zn28 1.977 . S
O37 C43 1.272 . S
O38 Zn28 1.910 . S
O38 C44 1.231 . S
C39 O23 1.225 . S
C39 O45 1.298 . S
C40 O29 1.226 . S
C40 O30 1.307 . S
C41 O33 1.303 . S
C41 O34 1.247 . S
C42 O31 1.253 . S
C42 O32 1.283 . S
C43 O35 1.304 . S
C43 O37 1.272 . S
C44 O36 1.311 . S
C44 O38 1.231 . S
O45 Zn27 1.953 . S
O45 C39 1.298 . S
O46 Zn47 1.953 . S
O46 C62 1.225 . S
Zn47 O46 1.953 . S
Zn47 O48 1.949 . S
Zn47 O54 1.919 . S
Zn47 O59 1.924 . S
O48 Zn47 1.949 . S
O48 Zn49 1.923 . S
O48 Zn50 1.950 . S
O48 Zn51 1.945 . S
Zn49 O48 1.923 . S
Zn49 O52 1.933 1_655 S
Zn49 O55 1.941 . S
Zn49 O56 1.965 . S
Zn50 O48 1.950 . S
Zn50 O57 1.938 . S
Zn50 O58 1.906 . S
Zn50 O68 1.953 . S
Zn51 O48 1.945 . S
Zn51 O53 1.932 . S
Zn51 O60 1.977 . S
Zn51 O61 1.910 . S
O52 Zn49 1.933 1_455 S
O52 C63 1.226 . S
O53 Zn51 1.932 . S
O53 C63 1.307 1_655 S
O54 Zn47 1.919 . S
O54 C65 1.253 . S
O55 Zn49 1.941 . S
O55 C65 1.283 . S
O56 Zn49 1.965 . S
O56 C64 1.303 . S
O57 Zn50 1.938 . S
O57 C64 1.247 . S
O58 Zn50 1.906 . S
O58 C66 1.304 . S
O59 Zn47 1.924 . S
O59 C67 1.311 . S
O60 Zn51 1.977 . S
O60 C66 1.272 . S
O61 Zn51 1.910 . S
O61 C67 1.231 . S
C62 O46 1.225 . S
C62 O68 1.298 . S
C63 O52 1.226 . S
C63 O53 1.307 1_455 S
C64 O56 1.303 . S
C64 O57 1.247 . S
C65 O54 1.253 . S
C65 O55 1.283 . S
C66 O58 1.304 . S
C66 O60 1.272 . S
C67 O59 1.311 . S
C67 O61 1.231 . S
O68 Zn50 1.953 . S
O68 C62 1.298 . S
O69 Zn70 1.953 . S
O69 C85 1.225 . S
Zn70 O69 1.953 . S
Zn70 O71 1.949 . S
Zn70 O77 1.919 . S
Zn70 O82 1.924 . S
O71 Zn70 1.949 . S
O71 Zn72 1.923 . S
O71 Zn73 1.950 . S
O71 Zn74 1.945 . S
Zn72 O71 1.923 . S
Zn72 O75 1.933 1_545 S
Zn72 O78 1.941 . S
Zn72 O79 1.965 . S
Zn73 O71 1.950 . S
Zn73 O80 1.938 . S
Zn73 O81 1.906 . S
Zn73 O91 1.953 . S
Zn74 O71 1.945 . S
Zn74 O76 1.932 1_545 S
Zn74 O83 1.977 . S
Zn74 O84 1.910 . S
O75 Zn72 1.933 1_565 S
O75 C86 1.226 . S
O76 Zn74 1.932 1_565 S
O76 C86 1.307 . S
O77 Zn70 1.919 . S
O77 C88 1.253 . S
O78 Zn72 1.941 . S
O78 C88 1.283 . S
O79 Zn72 1.965 . S
O79 C87 1.303 . S
O80 Zn73 1.938 . S
O80 C87 1.247 . S
O81 Zn73 1.906 . S
O81 C89 1.304 . S
O82 Zn70 1.924 . S
O82 C90 1.311 . S
O83 Zn74 1.977 . S
O83 C89 1.272 . S
O84 Zn74 1.910 . S
O84 C90 1.231 . S
C85 O69 1.225 . S
C85 O91 1.298 . S
C86 O75 1.226 . S
C86 O76 1.307 . S
C87 O79 1.303 . S
C87 O80 1.247 . S
C88 O77 1.253 . S
C88 O78 1.283 . S
C89 O81 1.304 . S
C89 O83 1.272 . S
C90 O82 1.311 . S
C90 O84 1.231 . S
O91 Zn73 1.953 . S
O91 C85 1.298 . S
O92 Zn93 1.953 . S
O92 C108 1.225 . S
Zn93 O92 1.953 . S
Zn93 O94 1.949 . S
Zn93 O100 1.919 . S
Zn93 O105 1.924 . S
O94 Zn93 1.949 . S
O94 Zn95 1.923 . S
O94 Zn96 1.950 . S
O94 Zn97 1.945 . S
Zn95 O94 1.923 . S
Zn95 O98 1.933 . S
Zn95 O101 1.941 . S
Zn95 O102 1.965 . S
Zn96 O94 1.950 . S
Zn96 O103 1.938 . S
Zn96 O104 1.906 . S
Zn96 O114 1.953 . S
Zn97 O94 1.945 . S
Zn97 O99 1.932 . S
Zn97 O106 1.977 . S
Zn97 O107 1.910 . S
O98 Zn95 1.933 . S
O98 C109 1.226 . S
O99 Zn97 1.932 . S
O99 C109 1.307 . S
O100 Zn93 1.919 . S
O100 C111 1.253 . S
O101 Zn95 1.941 . S
O101 C111 1.283 . S
O102 Zn95 1.965 . S
O102 C110 1.303 . S
O103 Zn96 1.938 . S
O103 C110 1.247 . S
O104 Zn96 1.906 . S
O104 C112 1.304 . S
O105 Zn93 1.924 . S
O105 C113 1.311 . S
O106 Zn97 1.977 . S
O106 C112 1.272 . S
O107 Zn97 1.910 . S
O107 C113 1.231 . S
C108 O92 1.225 . S
C108 O114 1.298 . S
C109 O98 1.226 . S
C109 O99 1.307 . S
C110 O102 1.303 . S
C110 O103 1.247 . S
C111 O100 1.253 . S
C111 O101 1.283 . S
C112 O104 1.304 . S
C112 O106 1.272 . S
C113 O105 1.311 . S
C113 O107 1.231 . S
O114 Zn96 1.953 . S
O114 C108 1.298 . S
O115 Zn116 1.953 . S
O115 C131 1.225 . S
Zn116 O115 1.953 . S
Zn116 O117 1.949 . S
Zn116 O123 1.919 . S
Zn116 O128 1.924 . S
O117 Zn116 1.949 . S
O117 Zn118 1.923 . S
O117 Zn119 1.950 . S
O117 Zn120 1.945 . S
Zn118 O117 1.923 . S
Zn118 O121 1.933 1_655 S
Zn118 O124 1.941 . S
Zn118 O125 1.965 . S
Zn119 O117 1.950 . S
Zn119 O126 1.938 . S
Zn119 O127 1.906 . S
Zn119 O137 1.953 . S
Zn120 O117 1.945 . S
Zn120 O122 1.932 1_655 S
Zn120 O129 1.977 . S
Zn120 O130 1.910 . S
O121 Zn118 1.933 1_455 S
O121 C132 1.226 . S
O122 Zn120 1.932 1_455 S
O122 C132 1.307 . S
O123 Zn116 1.919 . S
O123 C134 1.253 . S
O124 Zn118 1.941 . S
O124 C134 1.283 . S
O125 Zn118 1.965 . S
O125 C133 1.303 . S
O126 Zn119 1.938 . S
O126 C133 1.247 . S
O127 Zn119 1.906 . S
O127 C135 1.304 . S
O128 Zn116 1.924 . S
O128 C136 1.311 . S
O129 Zn120 1.977 . S
O129 C135 1.272 . S
O130 Zn120 1.910 . S
O130 C136 1.231 . S
C131 O115 1.225 . S
C131 O137 1.298 . S
C132 O121 1.226 . S
C132 O122 1.307 . S
C133 O125 1.303 . S
C133 O126 1.247 . S
C134 O123 1.253 . S
C134 O124 1.283 . S
C135 O127 1.304 . S
C135 O129 1.272 . S
C136 O128 1.311 . S
C136 O130 1.231 . S
O137 Zn119 1.953 . S
O137 C131 1.298 . S
O138 Zn139 1.953 . S
O138 C154 1.225 . S
Zn139 O138 1.953 . S
Zn139 O140 1.949 . S
Zn139 O146 1.919 . S
Zn139 O151 1.924 . S
O140 Zn139 1.949 . S
O140 Zn141 1.923 . S
O140 Zn142 1.950 . S
O140 Zn143 1.945 . S
Zn141 O140 1.923 . S
Zn141 O144 1.933 1_455 S
Zn141 O147 1.941 . S
Zn141 O148 1.965 . S
Zn142 O140 1.950 . S
Zn142 O149 1.938 . S
Zn142 O150 1.906 . S
Zn142 O160 1.953 . S
Zn143 O140 1.945 . S
Zn143 O145 1.932 1_455 S
Zn143 O152 1.977 . S
Zn143 O153 1.910 . S
O144 Zn141 1.933 1_655 S
O144 C155 1.226 . S
O145 Zn143 1.932 1_655 S
O145 C155 1.307 . S
O146 Zn139 1.919 . S
O146 C157 1.253 . S
O147 Zn141 1.941 . S
O147 C157 1.283 . S
O148 Zn141 1.965 . S
O148 C156 1.303 . S
O149 Zn142 1.938 . S
O149 C156 1.247 . S
O150 Zn142 1.906 . S
O150 C158 1.304 . S
O151 Zn139 1.924 . S
O151 C159 1.311 . S
O152 Zn143 1.977 . S
O152 C158 1.272 . S
O153 Zn143 1.910 . S
O153 C159 1.231 . S
C154 O138 1.225 . S
C154 O160 1.298 . S
C155 O144 1.226 . S
C155 O145 1.307 . S
C156 O148 1.303 . S
C156 O149 1.247 . S
C157 O146 1.253 . S
C157 O147 1.283 . S
C158 O150 1.304 . S
C158 O152 1.272 . S
C159 O151 1.311 . S
C159 O153 1.231 . S
O160 Zn142 1.953 . S
O160 C154 1.298 . S
O161 Zn162 1.953 . S
O161 C177 1.225 . S
Zn162 O161 1.953 . S
Zn162 O163 1.949 . S
Zn162 O169 1.919 . S
Zn162 O174 1.924 . S
O163 Zn162 1.949 . S
O163 Zn164 1.923 . S
O163 Zn165 1.950 . S
O163 Zn166 1.945 . S
Zn164 O163 1.923 . S
Zn164 O167 1.933 1_565 S
Zn164 O170 1.941 . S
Zn164 O171 1.965 . S
Zn165 O163 1.950 . S
Zn165 O172 1.938 . S
Zn165 O173 1.906 . S
Zn165 O183 1.953 . S
Zn166 O163 1.945 . S
Zn166 O168 1.932 . S
Zn166 O175 1.977 . S
Zn166 O176 1.910 . S
O167 Zn164 1.933 1_545 S
O167 C178 1.226 . S
O168 Zn166 1.932 . S
O168 C178 1.307 1_565 S
O169 Zn162 1.919 . S
O169 C180 1.253 . S
O170 Zn164 1.941 . S
O170 C180 1.283 . S
O171 Zn164 1.965 . S
O171 C179 1.303 . S
O172 Zn165 1.938 . S
O172 C179 1.247 . S
O173 Zn165 1.906 . S
O173 C181 1.304 . S
O174 Zn162 1.924 . S
O174 C182 1.311 . S
O175 Zn166 1.977 . S
O175 C181 1.272 . S
O176 Zn166 1.910 . S
O176 C182 1.231 . S
C177 O161 1.225 . S
C177 O183 1.298 . S
C178 O167 1.226 . S
C178 O168 1.307 1_545 S
C179 O171 1.303 . S
C179 O172 1.247 . S
C180 O169 1.253 . S
C180 O170 1.283 . S
C181 O173 1.304 . S
C181 O175 1.272 . S
C182 O174 1.311 . S
C182 O176 1.231 . S
O183 Zn165 1.953 . S
O183 C177 1.298 . S
O184 Zn185 1.953 . S
O184 C200 1.225 . S
Zn185 O184 1.953 . S
Zn185 O186 1.949 . S
Zn185 O192 1.919 . S
Zn185 O197 1.924 . S
O186 Zn185 1.949 . S
O186 Zn187 1.923 . S
O186 Zn188 1.950 . S
O186 Zn189 1.945 . S
Zn187 O186 1.923 . S
Zn187 O190 1.933 . S
Zn187 O193 1.941 . S
Zn187 O194 1.965 . S
Zn188 O186 1.950 . S
Zn188 O195 1.938 . S
Zn188 O196 1.906 . S
Zn188 O206 1.953 . S
Zn189 O186 1.945 . S
Zn189 O191 1.932 . S
Zn189 O198 1.977 . S
Zn189 O199 1.910 . S
O190 Zn187 1.933 . S
O190 C201 1.226 . S
O191 Zn189 1.932 . S
O191 C201 1.307 . S
O192 Zn185 1.919 . S
O192 C203 1.253 . S
O193 Zn187 1.941 . S
O193 C203 1.283 . S
O194 Zn187 1.965 . S
O194 C202 1.303 . S
O195 Zn188 1.938 . S
O195 C202 1.247 . S
O196 Zn188 1.906 . S
O196 C204 1.304 . S
O197 Zn185 1.924 . S
O197 C205 1.311 . S
O198 Zn189 1.977 . S
O198 C204 1.272 . S
O199 Zn189 1.910 . S
O199 C205 1.231 . S
C200 O184 1.225 . S
C200 O206 1.298 . S
C201 O190 1.226 . S
C201 O191 1.307 . S
C202 O194 1.303 . S
C202 O195 1.247 . S
C203 O192 1.253 . S
C203 O193 1.283 . S
C204 O196 1.304 . S
C204 O198 1.272 . S
C205 O197 1.311 . S
C205 O199 1.231 . S
O206 Zn188 1.953 . S
O206 C200 1.298 . S
O207 Zn208 1.953 . S
O207 C223 1.225 . S
Zn208 O207 1.953 . S
Zn208 O209 1.949 . S
Zn208 O215 1.919 . S
Zn208 O220 1.924 . S
O209 Zn208 1.949 . S
O209 Zn210 1.923 . S
O209 Zn211 1.950 . S
O209 Zn212 1.945 . S
Zn210 O209 1.923 . S
Zn210 O213 1.933 1_455 S
Zn210 O216 1.941 . S
Zn210 O217 1.965 . S
Zn211 O209 1.950 . S
Zn211 O218 1.938 . S
Zn211 O219 1.906 . S
Zn211 O229 1.953 . S
Zn212 O209 1.945 . S
Zn212 O214 1.932 . S
Zn212 O221 1.977 . S
Zn212 O222 1.910 . S
O213 Zn210 1.933 1_655 S
O213 C224 1.226 . S
O214 Zn212 1.932 . S
O214 C224 1.307 1_455 S
O215 Zn208 1.919 . S
O215 C226 1.253 . S
O216 Zn210 1.941 . S
O216 C226 1.283 . S
O217 Zn210 1.965 . S
O217 C225 1.303 . S
O218 Zn211 1.938 . S
O218 C225 1.247 . S
O219 Zn211 1.906 . S
O219 C227 1.304 . S
O220 Zn208 1.924 . S
O220 C228 1.311 . S
O221 Zn212 1.977 . S
O221 C227 1.272 . S
O222 Zn212 1.910 . S
O222 C228 1.231 . S
C223 O207 1.225 . S
C223 O229 1.298 . S
C224 O213 1.226 . S
C224 O214 1.307 1_655 S
C225 O217 1.303 . S
C225 O218 1.247 . S
C226 O215 1.253 . S
C226 O216 1.283 . S
C227 O219 1.304 . S
C227 O221 1.272 . S
C228 O220 1.311 . S
C228 O222 1.231 . S
O229 Zn211 1.953 . S
O229 C223 1.298 . S
O230 Zn231 1.953 . S
O230 C246 1.225 . S
Zn231 O230 1.953 . S
Zn231 O232 1.949 . S
Zn231 O238 1.919 . S
Zn231 O243 1.924 . S
O232 Zn231 1.949 . S
O232 Zn233 1.923 . S
O232 Zn234 1.950 . S
O232 Zn235 1.945 . S
Zn233 O232 1.923 . S
Zn233 O236 1.933 1_565 S
Zn233 O239 1.941 . S
Zn233 O240 1.965 . S
Zn234 O232 1.950 . S
Zn234 O241 1.938 . S
Zn234 O242 1.906 . S
Zn234 O252 1.953 . S
Zn235 O232 1.945 . S
Zn235 O237 1.932 1_565 S
Zn235 O244 1.977 . S
Zn235 O245 1.910 . S
O236 Zn233 1.933 1_545 S
O236 C247 1.226 . S
O237 Zn235 1.932 1_545 S
O237 C247 1.307 . S
O238 Zn231 1.919 . S
O238 C249 1.253 . S
O239 Zn233 1.941 . S
O239 C249 1.283 . S
O240 Zn233 1.965 . S
O240 C248 1.303 . S
O241 Zn234 1.938 . S
O241 C248 1.247 . S
O242 Zn234 1.906 . S
O242 C250 1.304 . S
O243 Zn231 1.924 . S
O243 C251 1.311 . S
O244 Zn235 1.977 . S
O244 C250 1.272 . S
O245 Zn235 1.910 . S
O245 C251 1.231 . S
C246 O230 1.225 . S
C246 O252 1.298 . S
C247 O236 1.226 . S
C247 O237 1.307 . S
C248 O240 1.303 . S
C248 O241 1.247 . S
C249 O238 1.253 . S
C249 O239 1.283 . S
C250 O242 1.304 . S
C250 O244 1.272 . S
C251 O243 1.311 . S
C251 O245 1.231 . S
O252 Zn234 1.953 . S
O252 C246 1.298 . S
O253 Zn254 1.953 . S
O253 C269 1.225 . S
Zn254 O253 1.953 . S
Zn254 O255 1.949 . S
Zn254 O261 1.919 . S
Zn254 O266 1.924 . S
O255 Zn254 1.949 . S
O255 Zn256 1.923 . S
O255 Zn257 1.950 . S
O255 Zn258 1.945 . S
Zn256 O255 1.923 . S
Zn256 O259 1.933 . S
Zn256 O262 1.941 . S
Zn256 O263 1.965 . S
Zn257 O255 1.950 . S
Zn257 O264 1.938 . S
Zn257 O265 1.906 . S
Zn257 O275 1.953 . S
Zn258 O255 1.945 . S
Zn258 O260 1.932 . S
Zn258 O267 1.977 . S
Zn258 O268 1.910 . S
O259 Zn256 1.933 . S
O259 C270 1.226 . S
O260 Zn258 1.932 . S
O260 C270 1.307 . S
O261 Zn254 1.919 . S
O261 C272 1.253 . S
O262 Zn256 1.941 . S
O262 C272 1.283 . S
O263 Zn256 1.965 . S
O263 C271 1.303 . S
O264 Zn257 1.938 . S
O264 C271 1.247 . S
O265 Zn257 1.906 . S
O265 C273 1.304 . S
O266 Zn254 1.924 . S
O266 C274 1.311 . S
O267 Zn258 1.977 . S
O267 C273 1.272 . S
O268 Zn258 1.910 . S
O268 C274 1.231 . S
C269 O253 1.225 . S
C269 O275 1.298 . S
C270 O259 1.226 . S
C270 O260 1.307 . S
C271 O263 1.303 . S
C271 O264 1.247 . S
C272 O261 1.253 . S
C272 O262 1.283 . S
C273 O265 1.304 . S
C273 O267 1.272 . S
C274 O266 1.311 . S
C274 O268 1.231 . S
O275 Zn257 1.953 . S
O275 C269 1.298 . S
H276 C282 0.930 . S
H277 C285 0.930 . S
H278 C286 0.930 . S
H279 C287 0.930 . S
H280 C290 0.930 . S
H281 C291 0.930 . S
C282 H276 0.930 . S
C282 C283 1.355 . S
C282 C284 1.415 . S
C283 C282 1.355 . S
C283 C285 1.419 . S
C284 C282 1.415 . S
C284 C289 1.425 . S
C284 C291 1.409 . S
C285 H277 0.930 . S
C285 C283 1.419 . S
C285 C286 1.362 . S
C286 H278 0.930 . S
C286 C285 1.362 . S
C286 C289 1.409 . S
C287 H279 0.930 . S
C287 C288 1.355 . S
C287 C289 1.415 . S
C288 C287 1.355 . S
C288 C290 1.419 . S
C289 C284 1.425 . S
C289 C286 1.409 . S
C289 C287 1.415 . S
C290 H280 0.930 . S
C290 C288 1.419 . S
C290 C291 1.362 . S
C291 H281 0.930 . S
C291 C284 1.409 . S
C291 C290 1.362 . S
H292 C298 0.930 . S
H293 C301 0.930 . S
H294 C302 0.930 . S
H295 C303 0.930 1_655 S
H296 C306 0.930 1_655 S
H297 C307 0.930 . S
C298 H292 0.930 . S
C298 C299 1.355 . S
C298 C300 1.415 . S
C299 C298 1.355 . S
C299 C301 1.419 . S
C300 C298 1.415 . S
C300 C305 1.425 . S
C300 C307 1.409 . S
C301 H293 0.930 . S
C301 C299 1.419 . S
C301 C302 1.362 . S
C302 H294 0.930 . S
C302 C301 1.362 . S
C302 C305 1.409 . S
C303 H295 0.930 1_455 S
C303 C304 1.355 1_455 S
C303 C305 1.415 . S
C304 C303 1.355 1_655 S
C304 C306 1.419 1_655 S
C305 C300 1.425 . S
C305 C302 1.409 . S
C305 C303 1.415 . S
C306 H296 0.930 1_455 S
C306 C304 1.419 1_455 S
C306 C307 1.362 . S
C307 H297 0.930 . S
C307 C300 1.409 . S
C307 C306 1.362 . S
H308 C314 0.930 1_545 S
H309 C317 0.930 1_545 S
H310 C318 0.930 . S
H311 C319 0.930 . S
H312 C322 0.930 . S
H313 C323 0.930 . S
C314 H308 0.930 1_565 S
C314 C315 1.355 1_565 S
C314 C316 1.415 . S
C315 C314 1.355 1_545 S
C315 C317 1.419 1_545 S
C316 C314 1.415 . S
C316 C321 1.425 . S
C316 C323 1.409 . S
C317 H309 0.930 1_565 S
C317 C315 1.419 1_565 S
C317 C318 1.362 . S
C318 H310 0.930 . S
C318 C317 1.362 . S
C318 C321 1.409 . S
C319 H311 0.930 . S
C319 C320 1.355 . S
C319 C321 1.415 . S
C320 C319 1.355 . S
C320 C322 1.419 . S
C321 C316 1.425 . S
C321 C318 1.409 . S
C321 C319 1.415 . S
C322 H312 0.930 . S
C322 C320 1.419 . S
C322 C323 1.362 . S
C323 H313 0.930 . S
C323 C316 1.409 . S
C323 C322 1.362 . S
H324 C330 0.930 . S
H325 C333 0.930 . S
H326 C334 0.930 . S
H327 C335 0.930 . S
H328 C338 0.930 . S
H329 C339 0.930 . S
C330 H324 0.930 . S
C330 C331 1.355 . S
C330 C332 1.415 . S
C331 C330 1.355 . S
C331 C333 1.419 . S
C332 C330 1.415 . S
C332 C337 1.425 . S
C332 C339 1.409 . S
C333 H325 0.930 . S
C333 C331 1.419 . S
C333 C334 1.362 . S
C334 H326 0.930 . S
C334 C333 1.362 . S
C334 C337 1.409 . S
C335 H327 0.930 . S
C335 C336 1.355 . S
C335 C337 1.415 . S
C336 C335 1.355 . S
C336 C338 1.419 . S
C337 C332 1.425 . S
C337 C334 1.409 . S
C337 C335 1.415 . S
C338 H328 0.930 . S
C338 C336 1.419 . S
C338 C339 1.362 . S
C339 H329 0.930 . S
C339 C332 1.409 . S
C339 C338 1.362 . S
H340 C346 0.930 . S
H341 C349 0.930 . S
H342 C350 0.930 . S
H343 C351 0.930 1_655 S
H344 C354 0.930 1_655 S
H345 C355 0.930 . S
C346 H340 0.930 . S
C346 C347 1.355 . S
C346 C348 1.415 . S
C347 C346 1.355 . S
C347 C349 1.419 . S
C348 C346 1.415 . S
C348 C353 1.425 . S
C348 C355 1.409 . S
C349 H341 0.930 . S
C349 C347 1.419 . S
C349 C350 1.362 . S
C350 H342 0.930 . S
C350 C349 1.362 . S
C350 C353 1.409 . S
C351 H343 0.930 1_455 S
C351 C352 1.355 1_455 S
C351 C353 1.415 . S
C352 C351 1.355 1_655 S
C352 C354 1.419 1_655 S
C353 C348 1.425 . S
C353 C350 1.409 . S
C353 C351 1.415 . S
C354 H344 0.930 1_455 S
C354 C352 1.419 1_455 S
C354 C355 1.362 . S
C355 H345 0.930 . S
C355 C348 1.409 . S
C355 C354 1.362 . S
H356 C362 0.930 . S
H357 C365 0.930 . S
H358 C366 0.930 . S
H359 C367 0.930 . S
H360 C370 0.930 . S
H361 C371 0.930 . S
C362 H356 0.930 . S
C362 C363 1.355 . S
C362 C364 1.415 . S
C363 C362 1.355 . S
C363 C365 1.419 . S
C364 C362 1.415 . S
C364 C369 1.425 . S
C364 C371 1.409 . S
C365 H357 0.930 . S
C365 C363 1.419 . S
C365 C366 1.362 . S
C366 H358 0.930 . S
C366 C365 1.362 . S
C366 C369 1.409 . S
C367 H359 0.930 . S
C367 C368 1.355 1_565 S
C367 C369 1.415 . S
C368 C367 1.355 1_545 S
C368 C370 1.419 . S
C369 C364 1.425 . S
C369 C366 1.409 . S
C369 C367 1.415 . S
C370 H360 0.930 . S
C370 C368 1.419 . S
C370 C371 1.362 1_545 S
C371 H361 0.930 . S
C371 C364 1.409 . S
C371 C370 1.362 1_565 S
H372 C378 0.930 . S
H373 C381 0.930 . S
H374 C382 0.930 . S
H375 C383 0.930 . S
H376 C386 0.930 . S
H377 C387 0.930 . S
C378 H372 0.930 . S
C378 C379 1.355 . S
C378 C380 1.415 . S
C379 C378 1.355 . S
C379 C381 1.419 . S
C380 C378 1.415 . S
C380 C385 1.425 . S
C380 C387 1.409 . S
C381 H373 0.930 . S
C381 C379 1.419 . S
C381 C382 1.362 . S
C382 H374 0.930 . S
C382 C381 1.362 . S
C382 C385 1.409 . S
C383 H375 0.930 . S
C383 C384 1.355 . S
C383 C385 1.415 . S
C384 C383 1.355 . S
C384 C386 1.419 . S
C385 C380 1.425 . S
C385 C382 1.409 . S
C385 C383 1.415 . S
C386 H376 0.930 . S
C386 C384 1.419 . S
C386 C387 1.362 . S
C387 H377 0.930 . S
C387 C380 1.409 . S
C387 C386 1.362 . S
H388 C394 0.930 1_455 S
H389 C397 0.930 1_455 S
H390 C398 0.930 . S
H391 C399 0.930 . S
H392 C402 0.930 . S
H393 C403 0.930 . S
C394 H388 0.930 1_655 S
C394 C395 1.355 1_655 S
C394 C396 1.415 . S
C395 C394 1.355 1_455 S
C395 C397 1.419 1_455 S
C396 C394 1.415 . S
C396 C401 1.425 . S
C396 C403 1.409 . S
C397 H389 0.930 1_655 S
C397 C395 1.419 1_655 S
C397 C398 1.362 . S
C398 H390 0.930 . S
C398 C397 1.362 . S
C398 C401 1.409 . S
C399 H391 0.930 . S
C399 C400 1.355 . S
C399 C401 1.415 . S
C400 C399 1.355 . S
C400 C402 1.419 . S
C401 C396 1.425 . S
C401 C398 1.409 . S
C401 C399 1.415 . S
C402 H392 0.930 . S
C402 C400 1.419 . S
C402 C403 1.362 . S
C403 H393 0.930 . S
C403 C396 1.409 . S
C403 C402 1.362 . S
H404 C410 0.930 1_565 S
H405 C413 0.930 1_565 S
H406 C414 0.930 . S
H407 C415 0.930 . S
H408 C418 0.951 . S
H409 C419 0.930 . S
C410 H404 0.930 1_545 S
C410 C411 1.355 1_545 S
C410 C412 1.415 . S
C411 C410 1.355 1_565 S
C411 C413 1.419 1_565 S
C412 C410 1.415 . S
C412 C417 1.425 . S
C412 C419 1.409 . S
C413 H405 0.930 1_545 S
C413 C411 1.419 1_545 S
C413 C414 1.362 . S
C414 H406 0.930 . S
C414 C413 1.362 . S
C414 C417 1.409 . S
C415 H407 0.930 . S
C415 C416 1.355 . S
C415 C417 1.415 . S
C416 C415 1.355 . S
C416 C418 1.419 . S
C417 C412 1.425 . S
C417 C414 1.409 . S
C417 C415 1.415 . S
C418 H408 0.951 . S
C418 C416 1.419 . S
C418 C419 1.362 . S
C419 H409 0.930 . S
C419 C412 1.409 . S
C419 C418 1.362 . S
H420 C426 0.930 . S
H421 C429 0.930 . S
H422 C430 0.930 . S
H423 C431 0.930 . S
H424 C434 0.930 . S
H425 C435 0.930 . S
C426 H420 0.930 . S
C426 C427 1.355 . S
C426 C428 1.415 . S
C427 C426 1.355 . S
C427 C429 1.419 . S
C428 C426 1.415 . S
C428 C433 1.425 . S
C428 C435 1.409 . S
C429 H421 0.930 . S
C429 C427 1.419 . S
C429 C430 1.362 . S
C430 H422 0.930 . S
C430 C429 1.362 . S
C430 C433 1.409 . S
C431 H423 0.930 . S
C431 C432 1.355 . S
C431 C433 1.415 . S
C432 C431 1.355 . S
C432 C434 1.419 . S
C433 C428 1.425 . S
C433 C430 1.409 . S
C433 C431 1.415 . S
C434 H424 0.930 . S
C434 C432 1.419 . S
C434 C435 1.362 . S
C435 H425 0.930 . S
C435 C428 1.409 . S
C435 C434 1.362 . S
H436 C442 0.930 . S
H437 C445 0.930 . S
H438 C446 0.930 . S
H439 C447 0.930 . S
H440 C450 0.930 . S
H441 C451 0.930 . S
C442 H436 0.930 . S
C442 C443 1.355 1_655 S
C442 C444 1.415 . S
C443 C442 1.355 1_455 S
C443 C445 1.419 . S
C444 C442 1.415 . S
C444 C449 1.425 . S
C444 C451 1.409 . S
C445 H437 0.930 . S
C445 C443 1.419 . S
C445 C446 1.362 1_455 S
C446 H438 0.930 . S
C446 C445 1.362 1_655 S
C446 C449 1.409 . S
C447 H439 0.930 . S
C447 C448 1.355 . S
C447 C449 1.415 . S
C448 C447 1.355 . S
C448 C450 1.419 . S
C449 C444 1.425 . S
C449 C446 1.409 . S
C449 C447 1.415 . S
C450 H440 0.930 . S
C450 C448 1.419 . S
C450 C451 1.362 . S
C451 H441 0.930 . S
C451 C444 1.409 . S
C451 C450 1.362 . S
H452 C458 0.930 . S
H453 C461 0.930 . S
H454 C462 0.930 . S
H455 C463 0.930 . S
H456 C466 0.930 . S
H457 C467 0.930 . S
C458 H452 0.930 . S
C458 C459 1.355 . S
C458 C460 1.415 . S
C459 C458 1.355 . S
C459 C461 1.419 . S
C460 C458 1.415 . S
C460 C465 1.425 . S
C460 C467 1.409 . S
C461 H453 0.930 . S
C461 C459 1.419 . S
C461 C462 1.362 . S
C462 H454 0.930 . S
C462 C461 1.362 . S
C462 C465 1.409 . S
C463 H455 0.930 . S
C463 C464 1.355 1_545 S
C463 C465 1.415 . S
C464 C463 1.355 1_565 S
C464 C466 1.419 . S
C465 C460 1.425 . S
C465 C462 1.409 . S
C465 C463 1.415 . S
C466 H456 0.930 . S
C466 C464 1.419 . S
C466 C467 1.362 1_565 S
C467 H457 0.930 . S
C467 C460 1.409 . S
C467 C466 1.362 1_545 S
H468 C474 0.930 . S
H469 C477 0.930 . S
H470 C478 0.930 . S
H471 C479 0.930 . S
H472 C482 0.930 . S
H473 C483 0.930 . S
C474 H468 0.930 . S
C474 C475 1.355 . S
C474 C476 1.415 . S
C475 C474 1.355 . S
C475 C477 1.419 . S
C476 C474 1.415 . S
C476 C481 1.425 . S
C476 C483 1.409 . S
C477 H469 0.930 . S
C477 C475 1.419 . S
C477 C478 1.362 . S
C478 H470 0.930 . S
C478 C477 1.362 . S
C478 C481 1.409 . S
C479 H471 0.930 . S
C479 C480 1.355 . S
C479 C481 1.415 . S
C480 C479 1.355 . S
C480 C482 1.419 . S
C481 C476 1.425 . S
C481 C478 1.409 . S
C481 C479 1.415 . S
C482 H472 0.930 . S
C482 C480 1.419 . S
C482 C483 1.362 . S
C483 H473 0.930 . S
C483 C476 1.409 . S
C483 C482 1.362 . S
H484 C490 0.930 . S
H485 C493 0.930 . S
H486 C494 0.930 . S
H487 C495 0.930 . S
H488 C498 0.930 . S
H489 C499 0.930 . S
C490 H484 0.930 . S
C490 C491 1.355 . S
C490 C492 1.415 . S
C491 C490 1.355 . S
C491 C493 1.419 . S
C492 C490 1.415 . S
C492 C497 1.425 . S
C492 C499 1.409 . S
C493 H485 0.930 . S
C493 C491 1.419 . S
C493 C494 1.362 . S
C494 H486 0.930 . S
C494 C493 1.362 . S
C494 C497 1.409 . S
C495 H487 0.930 . S
C495 C496 1.355 . S
C495 C497 1.415 . S
C496 C495 1.355 . S
C496 C498 1.419 . S
C497 C492 1.425 . S
C497 C494 1.409 . S
C497 C495 1.415 . S
C498 H488 0.930 . S
C498 C496 1.419 . S
C498 C499 1.362 . S
C499 H489 0.930 . S
C499 C492 1.409 . S
C499 C498 1.362 . S
H500 C506 0.930 . S
H501 C509 0.930 . S
H502 C510 0.930 . S
H503 C511 0.930 . S
H504 C514 0.930 . S
H505 C515 0.930 . S
C506 H500 0.930 . S
C506 C507 1.355 . S
C506 C508 1.415 . S
C507 C506 1.355 . S
C507 C509 1.419 . S
C508 C506 1.415 . S
C508 C513 1.425 . S
C508 C515 1.409 . S
C509 H501 0.930 . S
C509 C507 1.419 . S
C509 C510 1.362 . S
C510 H502 0.930 . S
C510 C509 1.362 . S
C510 C513 1.409 . S
C511 H503 0.930 . S
C511 C512 1.355 . S
C511 C513 1.415 . S
C512 C511 1.355 . S
C512 C514 1.419 . S
C513 C508 1.425 . S
C513 C510 1.409 . S
C513 C511 1.415 . S
C514 H504 0.930 . S
C514 C512 1.419 . S
C514 C515 1.362 . S
C515 H505 0.930 . S
C515 C508 1.409 . S
C515 C514 1.362 . S
H516 C522 0.930 . S
H517 C525 0.930 . S
H518 C526 0.930 . S
H519 C527 0.930 . S
H520 C530 0.930 . S
H521 C531 0.930 . S
C522 H516 0.930 . S
C522 C523 1.355 . S
C522 C524 1.415 . S
C523 C522 1.355 . S
C523 C525 1.419 . S
C524 C522 1.415 . S
C524 C529 1.425 . S
C524 C531 1.409 . S
C525 H517 0.930 . S
C525 C523 1.419 . S
C525 C526 1.362 . S
C526 H518 0.930 . S
C526 C525 1.362 . S
C526 C529 1.409 . S
C527 H519 0.930 . S
C527 C528 1.355 . S
C527 C529 1.415 . S
C528 C527 1.355 . S
C528 C530 1.419 . S
C529 C524 1.425 . S
C529 C526 1.409 . S
C529 C527 1.415 . S
C530 H520 0.930 . S
C530 C528 1.419 . S
C530 C531 1.362 . S
C531 H521 0.930 . S
C531 C524 1.409 . S
C531 C530 1.362 . S
H532 C538 0.930 . S
H533 C541 0.930 . S
H534 C542 0.930 . S
H535 C543 0.930 . S
H536 C546 0.930 . S
H537 C547 0.930 . S
C538 H532 0.930 . S
C538 C539 1.355 . S
C538 C540 1.415 . S
C539 C538 1.355 . S
C539 C541 1.419 . S
C540 C538 1.415 . S
C540 C545 1.425 . S
C540 C547 1.409 . S
C541 H533 0.930 . S
C541 C539 1.419 . S
C541 C542 1.362 . S
C542 H534 0.930 . S
C542 C541 1.362 . S
C542 C545 1.409 . S
C543 H535 0.930 . S
C543 C544 1.355 . S
C543 C545 1.415 . S
C544 C543 1.355 . S
C544 C546 1.419 . S
C545 C540 1.425 . S
C545 C542 1.409 . S
C545 C543 1.415 . S
C546 H536 0.930 . S
C546 C544 1.419 . S
C546 C547 1.362 . S
C547 H537 0.930 . S
C547 C540 1.409 . S
C547 C546 1.362 . S
H548 C554 0.930 . S
H549 C557 0.930 . S
H550 C558 0.930 . S
H551 C559 0.930 . S
H552 C562 0.930 . S
H553 C563 0.930 . S
C554 H548 0.930 . S
C554 C555 1.355 . S
C554 C556 1.415 . S
C555 C554 1.355 . S
C555 C557 1.419 . S
C556 C554 1.415 . S
C556 C561 1.425 . S
C556 C563 1.409 . S
C557 H549 0.930 . S
C557 C555 1.419 . S
C557 C558 1.362 . S
C558 H550 0.930 . S
C558 C557 1.362 . S
C558 C561 1.409 . S
C559 H551 0.930 . S
C559 C560 1.355 . S
C559 C561 1.415 . S
C560 C559 1.355 . S
C560 C562 1.419 . S
C561 C556 1.425 . S
C561 C558 1.409 . S
C561 C559 1.415 . S
C562 H552 0.930 . S
C562 C560 1.419 . S
C562 C563 1.362 . S
C563 H553 0.930 . S
C563 C556 1.409 . S
C563 C562 1.362 . S
H564 C570 0.920 1_545 S
H565 C573 0.930 . S
H566 C574 0.930 . S
H567 C575 0.919 1_565 S
H568 C578 0.930 . S
H569 C579 0.930 . S
C570 H564 0.920 1_565 S
C570 C571 1.368 . S
C570 C572 1.411 1_565 S
C571 C570 1.368 . S
C571 C573 1.419 . S
C572 C570 1.411 1_545 S
C572 C577 1.425 1_546 S
C572 C579 1.409 . S
C573 H565 0.930 . S
C573 C571 1.419 . S
C573 C574 1.362 1_556 S
C574 H566 0.930 . S
C574 C573 1.362 1_554 S
C574 C577 1.409 . S
C575 H567 0.919 1_545 S
C575 C576 1.369 . S
C575 C577 1.411 1_545 S
C576 C575 1.369 . S
C576 C578 1.419 . S
C577 C572 1.425 1_564 S
C577 C574 1.409 . S
C577 C575 1.411 1_565 S
C578 H568 0.930 . S
C578 C576 1.419 . S
C578 C579 1.362 1_554 S
C579 H569 0.930 . S
C579 C572 1.409 . S
C579 C578 1.362 1_556 S
H580 C586 0.930 . S
H581 C589 0.930 . S
H582 C590 0.930 . S
H583 C591 0.930 . S
H584 C594 0.930 . S
H585 C595 0.930 . S
C586 H580 0.930 . S
C586 C587 1.355 . S
C586 C588 1.415 . S
C587 C586 1.355 . S
C587 C589 1.419 . S
C588 C586 1.415 . S
C588 C593 1.425 . S
C588 C595 1.409 . S
C589 H581 0.930 . S
C589 C587 1.419 . S
C589 C590 1.362 . S
C590 H582 0.930 . S
C590 C589 1.362 . S
C590 C593 1.409 . S
C591 H583 0.930 . S
C591 C592 1.355 . S
C591 C593 1.415 . S
C592 C591 1.355 . S
C592 C594 1.419 . S
C593 C588 1.425 . S
C593 C590 1.409 . S
C593 C591 1.415 . S
C594 H584 0.930 . S
C594 C592 1.419 . S
C594 C595 1.362 . S
C595 H585 0.930 . S
C595 C588 1.409 . S
C595 C594 1.362 . S
H596 C602 0.930 . S
H597 C605 0.930 . S
H598 C606 0.930 . S
H599 C607 0.930 . S
H600 C610 0.930 . S
H601 C611 0.930 . S
C602 H596 0.930 . S
C602 C603 1.355 . S
C602 C604 1.392 1_556 S
C603 C602 1.355 . S
C603 C605 1.419 1_455 S
C604 C602 1.392 1_554 S
C604 C609 1.424 1_454 S
C604 C611 1.433 . S
C605 H597 0.930 . S
C605 C603 1.419 1_655 S
C605 C606 1.362 . S
C606 H598 0.930 . S
C606 C605 1.362 . S
C606 C609 1.433 . S
C607 H599 0.930 . S
C607 C608 1.355 . S
C607 C609 1.392 1_554 S
C608 C607 1.355 . S
C608 C610 1.419 1_655 S
C609 C604 1.424 1_656 S
C609 C606 1.433 . S
C609 C607 1.392 1_556 S
C610 H600 0.930 . S
C610 C608 1.419 1_455 S
C610 C611 1.362 . S
C611 H601 0.930 . S
C611 C604 1.433 . S
C611 C610 1.362 . S
H612 C618 0.930 . S
H613 C621 0.930 . S
H614 C622 0.930 . S
H615 C623 0.930 . S
H616 C626 0.930 . S
H617 C627 0.930 . S
C618 H612 0.930 . S
C618 C619 1.355 . S
C618 C620 1.415 . S
C619 C618 1.355 . S
C619 C621 1.419 1_545 S
C620 C618 1.415 . S
C620 C625 1.425 1_545 S
C620 C627 1.409 . S
C621 H613 0.930 . S
C621 C619 1.419 1_565 S
C621 C622 1.362 . S
C622 H614 0.930 . S
C622 C621 1.362 . S
C622 C625 1.409 . S
C623 H615 0.930 . S
C623 C624 1.355 . S
C623 C625 1.415 . S
C624 C623 1.355 . S
C624 C626 1.419 1_565 S
C625 C620 1.425 1_565 S
C625 C622 1.409 . S
C625 C623 1.415 . S
C626 H616 0.930 . S
C626 C624 1.419 1_545 S
C626 C627 1.362 . S
C627 H617 0.930 . S
C627 C620 1.409 . S
C627 C626 1.362 . S
H628 C634 0.930 . S
H629 C637 0.930 . S
H630 C638 0.914 1_556 S
H631 C639 0.930 . S
H632 C642 0.930 . S
H633 C643 0.914 1_554 S
C634 H628 0.930 . S
C634 C635 1.355 . S
C634 C636 1.415 . S
C635 C634 1.355 . S
C635 C637 1.419 . S
C636 C634 1.415 . S
C636 C641 1.425 1_554 S
C636 C643 1.400 1_554 S
C637 H629 0.930 . S
C637 C635 1.419 . S
C637 C638 1.387 . S
C638 H630 0.914 1_554 S
C638 C637 1.387 . S
C638 C641 1.400 1_554 S
C639 H631 0.930 . S
C639 C640 1.355 . S
C639 C641 1.415 . S
C640 C639 1.355 . S
C640 C642 1.419 . S
C641 C636 1.425 1_556 S
C641 C638 1.400 1_556 S
C641 C639 1.415 . S
C642 H632 0.930 . S
C642 C640 1.419 . S
C642 C643 1.387 . S
C643 H633 0.914 1_556 S
C643 C636 1.400 1_556 S
C643 C642 1.387 . S
H644 C650 0.930 . S
H645 C653 0.930 . S
H646 C654 0.930 . S
H647 C655 0.930 . S
H648 C658 0.930 . S
H649 C659 0.930 . S
C650 H644 0.930 . S
C650 C651 1.355 . S
C650 C652 1.415 1_455 S
C651 C650 1.355 . S
C651 C653 1.419 . S
C652 C650 1.415 1_655 S
C652 C657 1.425 1_655 S
C652 C659 1.409 . S
C653 H645 0.930 . S
C653 C651 1.419 . S
C653 C654 1.362 . S
C654 H646 0.930 . S
C654 C653 1.362 . S
C654 C657 1.409 . S
C655 H647 0.930 . S
C655 C656 1.355 . S
C655 C657 1.415 1_655 S
C656 C655 1.355 . S
C656 C658 1.419 . S
C657 C652 1.425 1_455 S
C657 C654 1.409 . S
C657 C655 1.415 1_455 S
C658 H648 0.930 . S
C658 C656 1.419 . S
C658 C659 1.362 . S
C659 H649 0.930 . S
C659 C652 1.409 . S
C659 C658 1.362 . S
H660 C666 0.930 . S
H661 C669 0.930 . S
H662 C670 0.930 . S
H663 C671 0.930 . S
H664 C674 0.930 . S
H665 C675 0.930 . S
C666 H660 0.930 . S
C666 C667 1.355 . S
C666 C668 1.415 . S
C667 C666 1.355 . S
C667 C669 1.419 . S
C668 C666 1.415 . S
C668 C673 1.425 . S
C668 C675 1.409 . S
C669 H661 0.930 . S
C669 C667 1.419 . S
C669 C670 1.362 . S
C670 H662 0.930 . S
C670 C669 1.362 . S
C670 C673 1.409 . S
C671 H663 0.930 . S
C671 C672 1.355 . S
C671 C673 1.415 . S
C672 C671 1.355 . S
C672 C674 1.419 . S
C673 C668 1.425 . S
C673 C670 1.409 . S
C673 C671 1.415 . S
C674 H664 0.930 . S
C674 C672 1.419 . S
C674 C675 1.362 . S
C675 H665 0.930 . S
C675 C668 1.409 . S
C675 C674 1.362 . S
H676 C682 0.930 . S
H677 C685 0.930 . S
H678 C686 0.930 . S
H679 C687 0.930 . S
H680 C690 0.930 . S
H681 C691 0.930 . S
C682 H676 0.930 . S
C682 C683 1.355 . S
C682 C684 1.415 . S
C683 C682 1.355 . S
C683 C685 1.419 . S
C684 C682 1.415 . S
C684 C689 1.425 . S
C684 C691 1.409 . S
C685 H677 0.930 . S
C685 C683 1.419 . S
C685 C686 1.362 . S
C686 H678 0.930 . S
C686 C685 1.362 . S
C686 C689 1.409 . S
C687 H679 0.930 . S
C687 C688 1.355 . S
C687 C689 1.415 . S
C688 C687 1.355 . S
C688 C690 1.419 . S
C689 C684 1.425 . S
C689 C686 1.409 . S
C689 C687 1.415 . S
C690 H680 0.930 . S
C690 C688 1.419 . S
C690 C691 1.362 . S
C691 H681 0.930 . S
C691 C684 1.409 . S
C691 C690 1.362 . S
H692 C698 0.930 . S
H693 C701 0.930 . S
H694 C702 0.930 . S
H695 C703 0.930 . S
H696 C706 0.930 . S
H697 C707 0.930 . S
C698 H692 0.930 . S
C698 C699 1.355 . S
C698 C700 1.415 . S
C699 C698 1.355 . S
C699 C701 1.419 . S
C700 C698 1.415 . S
C700 C705 1.425 . S
C700 C707 1.409 . S
C701 H693 0.930 . S
C701 C699 1.419 . S
C701 C702 1.362 . S
C702 H694 0.930 . S
C702 C701 1.362 . S
C702 C705 1.409 . S
C703 H695 0.930 . S
C703 C704 1.355 . S
C703 C705 1.415 . S
C704 C703 1.355 . S
C704 C706 1.419 . S
C705 C700 1.425 . S
C705 C702 1.409 . S
C705 C703 1.415 . S
C706 H696 0.930 . S
C706 C704 1.419 . S
C706 C707 1.362 . S
C707 H697 0.930 . S
C707 C700 1.409 . S
C707 C706 1.362 . S
H708 C714 0.930 . S
H709 C717 0.930 . S
H710 C718 0.930 . S
H711 C719 0.930 . S
H712 C722 0.930 . S
H713 C723 0.930 . S
C714 H708 0.930 . S
C714 C715 1.355 . S
C714 C716 1.415 . S
C715 C714 1.355 . S
C715 C717 1.419 . S
C716 C714 1.415 . S
C716 C721 1.425 . S
C716 C723 1.409 . S
C717 H709 0.930 . S
C717 C715 1.419 . S
C717 C718 1.362 . S
C718 H710 0.930 . S
C718 C717 1.362 . S
C718 C721 1.409 . S
C719 H711 0.930 . S
C719 C720 1.355 . S
C719 C721 1.415 . S
C720 C719 1.355 . S
C720 C722 1.419 . S
C721 C716 1.425 . S
C721 C718 1.409 . S
C721 C719 1.415 . S
C722 H712 0.930 . S
C722 C720 1.419 . S
C722 C723 1.362 . S
C723 H713 0.930 . S
C723 C716 1.409 . S
C723 C722 1.362 . S
H724 C730 0.930 . S
H725 C733 0.930 . S
H726 C734 0.930 . S
H727 C735 0.930 . S
H728 C738 0.930 . S
H729 C739 0.930 . S
C730 H724 0.930 . S
C730 C731 1.355 . S
C730 C732 1.415 . S
C731 C730 1.355 . S
C731 C733 1.419 . S
C732 C730 1.415 . S
C732 C737 1.425 . S
C732 C739 1.409 . S
C733 H725 0.930 . S
C733 C731 1.419 . S
C733 C734 1.362 . S
C734 H726 0.930 . S
C734 C733 1.362 . S
C734 C737 1.409 . S
C735 H727 0.930 . S
C735 C736 1.355 . S
C735 C737 1.415 . S
C736 C735 1.355 . S
C736 C738 1.419 . S
C737 C732 1.425 . S
C737 C734 1.409 . S
C737 C735 1.415 . S
C738 H728 0.930 . S
C738 C736 1.419 . S
C738 C739 1.362 . S
C739 H729 0.930 . S
C739 C732 1.409 . S
C739 C738 1.362 . S
H740 C746 0.930 . S
H741 C749 0.930 . S
H742 C750 0.930 . S
H743 C751 0.930 . S
H744 C754 0.930 . S
H745 C755 0.930 . S
C746 H740 0.930 . S
C746 C747 1.355 . S
C746 C748 1.415 . S
C747 C746 1.355 . S
C747 C749 1.419 . S
C748 C746 1.415 . S
C748 C753 1.425 . S
C748 C755 1.409 . S
C749 H741 0.930 . S
C749 C747 1.419 . S
C749 C750 1.362 . S
C750 H742 0.930 . S
C750 C749 1.362 . S
C750 C753 1.409 . S
C751 H743 0.930 . S
C751 C752 1.355 . S
C751 C753 1.415 . S
C752 C751 1.355 . S
C752 C754 1.419 . S
C753 C748 1.425 . S
C753 C750 1.409 . S
C753 C751 1.415 . S
C754 H744 0.930 . S
C754 C752 1.419 . S
C754 C755 1.362 . S
C755 H745 0.930 . S
C755 C748 1.409 . S
C755 C754 1.362 . S
H756 C762 0.930 . S
H757 C765 0.930 . S
H758 C766 0.930 . S
H759 C767 0.930 . S
H760 C770 0.930 . S
H761 C771 0.930 . S
C762 H756 0.930 . S
C762 C763 1.355 . S
C762 C764 1.415 . S
C763 C762 1.355 . S
C763 C765 1.419 . S
C764 C762 1.415 . S
C764 C769 1.425 . S
C764 C771 1.409 . S
C765 H757 0.930 . S
C765 C763 1.419 . S
C765 C766 1.362 . S
C766 H758 0.930 . S
C766 C765 1.362 . S
C766 C769 1.409 . S
C767 H759 0.930 . S
C767 C768 1.355 . S
C767 C769 1.415 . S
C768 C767 1.355 . S
C768 C770 1.419 . S
C769 C764 1.425 . S
C769 C766 1.409 . S
C769 C767 1.415 . S
C770 H760 0.930 . S
C770 C768 1.419 . S
C770 C771 1.362 . S
C771 H761 0.930 . S
C771 C764 1.409 . S
C771 C770 1.362 . S
H772 C778 0.930 . S
H773 C781 0.930 . S
H774 C782 0.930 . S
H775 C783 0.930 . S
H776 C786 0.930 . S
H777 C787 0.930 . S
C778 H772 0.930 . S
C778 C779 1.355 . S
C778 C780 1.415 . S
C779 C778 1.355 . S
C779 C781 1.419 . S
C780 C778 1.415 . S
C780 C785 1.425 . S
C780 C787 1.409 . S
C781 H773 0.930 . S
C781 C779 1.419 . S
C781 C782 1.362 . S
C782 H774 0.930 . S
C782 C781 1.362 . S
C782 C785 1.409 . S
C783 H775 0.930 . S
C783 C784 1.355 . S
C783 C785 1.415 . S
C784 C783 1.355 . S
C784 C786 1.419 . S
C785 C780 1.425 . S
C785 C782 1.409 . S
C785 C783 1.415 . S
C786 H776 0.930 . S
C786 C784 1.419 . S
C786 C787 1.362 . S
C787 H777 0.930 . S
C787 C780 1.409 . S
C787 C786 1.362 . S
H788 C794 0.930 . S
H789 C797 0.930 . S
H790 C798 0.930 . S
H791 C799 0.930 . S
H792 C802 0.930 . S
H793 C803 0.930 . S
C794 H788 0.930 . S
C794 C795 1.355 . S
C794 C796 1.415 . S
C795 C794 1.355 . S
C795 C797 1.419 . S
C796 C794 1.415 . S
C796 C801 1.425 . S
C796 C803 1.409 . S
C797 H789 0.930 . S
C797 C795 1.419 . S
C797 C798 1.362 . S
C798 H790 0.930 . S
C798 C797 1.362 . S
C798 C801 1.409 . S
C799 H791 0.930 . S
C799 C800 1.355 . S
C799 C801 1.415 . S
C800 C799 1.355 . S
C800 C802 1.419 . S
C801 C796 1.425 . S
C801 C798 1.409 . S
C801 C799 1.415 . S
C802 H792 0.930 . S
C802 C800 1.419 . S
C802 C803 1.362 . S
C803 H793 0.930 . S
C803 C796 1.409 . S
C803 C802 1.362 . S
H804 C810 0.930 . S
H805 C813 0.930 . S
H806 C814 0.930 . S
H807 C815 0.930 . S
H808 C818 0.930 . S
H809 C819 0.930 . S
C810 H804 0.930 . S
C810 C811 1.355 . S
C810 C812 1.415 . S
C811 C810 1.355 . S
C811 C813 1.419 . S
C812 C810 1.415 . S
C812 C817 1.425 . S
C812 C819 1.409 . S
C813 H805 0.930 . S
C813 C811 1.419 . S
C813 C814 1.362 . S
C814 H806 0.930 . S
C814 C813 1.362 . S
C814 C817 1.409 . S
C815 H807 0.930 . S
C815 C816 1.355 . S
C815 C817 1.415 . S
C816 C815 1.355 . S
C816 C818 1.419 . S
C817 C812 1.425 . S
C817 C814 1.409 . S
C817 C815 1.415 . S
C818 H808 0.930 . S
C818 C816 1.419 . S
C818 C819 1.362 . S
C819 H809 0.930 . S
C819 C812 1.409 . S
C819 C818 1.362 . S
H820 C826 0.930 . S
H821 C829 0.930 . S
H822 C830 0.930 . S
H823 C831 0.930 . S
H824 C834 0.930 . S
H825 C835 0.930 . S
C826 H820 0.930 . S
C826 C827 1.355 . S
C826 C828 1.415 . S
C827 C826 1.355 . S
C827 C829 1.419 . S
C828 C826 1.415 . S
C828 C833 1.425 . S
C828 C835 1.409 . S
C829 H821 0.930 . S
C829 C827 1.419 . S
C829 C830 1.362 . S
C830 H822 0.930 . S
C830 C829 1.362 . S
C830 C833 1.409 . S
C831 H823 0.930 . S
C831 C832 1.355 . S
C831 C833 1.415 . S
C832 C831 1.355 . S
C832 C834 1.419 . S
C833 C828 1.425 . S
C833 C830 1.409 . S
C833 C831 1.415 . S
C834 H824 0.930 . S
C834 C832 1.419 . S
C834 C835 1.362 . S
C835 H825 0.930 . S
C835 C828 1.409 . S
C835 C834 1.362 . S
H836 C842 0.930 . S
H837 C845 0.930 . S
H838 C846 0.930 . S
H839 C847 0.930 . S
H840 C850 0.930 . S
H841 C851 0.930 . S
C842 H836 0.930 . S
C842 C843 1.355 . S
C842 C844 1.415 . S
C843 C842 1.355 . S
C843 C845 1.419 . S
C844 C842 1.415 . S
C844 C849 1.425 . S
C844 C851 1.409 . S
C845 H837 0.930 . S
C845 C843 1.419 . S
C845 C846 1.362 . S
C846 H838 0.930 . S
C846 C845 1.362 . S
C846 C849 1.409 . S
C847 H839 0.930 . S
C847 C848 1.355 . S
C847 C849 1.415 . S
C848 C847 1.355 . S
C848 C850 1.419 . S
C849 C844 1.425 . S
C849 C846 1.409 . S
C849 C847 1.415 . S
C850 H840 0.930 . S
C850 C848 1.419 . S
C850 C851 1.362 . S
C851 H841 0.930 . S
C851 C844 1.409 . S
C851 C850 1.362 . S
C283 C63 1.080 . S
C288 C21 1.012 . S
C299 C86 1.026 . S
C304 C44 1.009 . S
C315 C67 1.051 . S
C320 C109 1.040 . S
C331 C90 0.990 . S
C336 C132 0.931 . S
C347 C17 0.987 . S
C352 C113 1.072 . S
C363 C40 1.035 . S
C368 C136 0.959 . S
C379 C247 0.971 . S
C384 C159 0.951 . S
C395 C182 1.076 . S
C400 C270 0.999 . S
C411 C205 1.019 . S
C416 C155 0.929 . S
C427 C228 1.024 . S
C432 C178 1.072 . S
C443 C251 0.949 . S
C448 C201 1.027 . S
C459 C224 1.080 . S
C464 C274 1.012 . S
C475 C88 1.470 . S
C480 C20 1.490 . S
C491 C42 1.474 . S
C496 C112 1.487 . S
C507 C66 1.488 . S
C512 C134 1.510 . S
C523 C157 1.459 . S
C528 C227 1.505 . S
C539 C181 1.510 . S
C544 C249 1.490 . S
C555 C203 1.511 . S
C560 C273 1.479 . S
C571 C180 1.515 . S
C576 C19 1.538 . S
C587 C43 1.545 . S
C592 C204 1.540 . S
C603 C226 1.525 . S
C608 C65 1.534 . S
C619 C89 1.546 . S
C624 C250 1.545 . S
C635 C111 1.513 . S
C640 C272 1.540 . S
C651 C158 1.538 . S
C656 C135 1.550 . S
C667 C62 1.208 . S
C672 C18 1.229 . S
C683 C41 1.257 . S
C688 C85 1.260 . S
C699 C64 1.227 . S
C704 C108 1.216 . S
C715 C87 1.251 . S
C720 C131 1.258 . S
C731 C16 1.218 . S
C736 C110 1.225 . S
C747 C39 1.240 . S
C752 C133 1.224 . S
C763 C246 1.225 . S
C768 C156 1.193 . S
C779 C179 1.196 . S
C784 C269 1.209 . S
C795 C202 1.194 . S
C800 C154 1.227 . S
C811 C177 1.212 . S
C816 C225 1.189 . S
C827 C248 1.253 . S
C832 C200 1.257 . S
C843 C271 1.179 . S
C848 C223 1.220 . S
