# Generated by pormake.
# Topology fnp, (5)-cn, num edge types: 1
# Building blocks:
#     Node 0, Type 0, BuildingBlock: BEQFEK_clean_sbu_0, # of connection points: 5
#     Node 1, Type 0, BuildingBlock: BEQFEK_clean_sbu_0, # of connection points: 5
#     Node 2, Type 0, BuildingBlock: BEQFEK_clean_sbu_0, # of connection points: 5
#     Node 3, Type 0, BuildingBlock: BEQFEK_clean_sbu_0, # of connection points: 5
#     Node 4, Type 0, BuildingBlock: BEQFEK_clean_sbu_0, # of connection points: 5
#     Node 5, Type 0, BuildingBlock: BEQFEK_clean_sbu_0, # of connection points: 5
#     Node 6, Type 0, BuildingBlock: BEQFEK_clean_sbu_0, # of connection points: 5
#     Node 7, Type 0, BuildingBlock: BEQFEK_clean_sbu_0, # of connection points: 5
#     Node 8, Type 0, BuildingBlock: BEQFEK_clean_sbu_0, # of connection points: 5
#     Node 9, Type 0, BuildingBlock: BEQFEK_clean_sbu_0, # of connection points: 5
#     Node 10, Type 0, BuildingBlock: BEQFEK_clean_sbu_0, # of connection points: 5
#     Node 11, Type 0, BuildingBlock: BEQFEK_clean_sbu_0, # of connection points: 5
#     Node 12, Type 0, BuildingBlock: BEQFEK_clean_sbu_0, # of connection points: 5
#     Node 13, Type 0, BuildingBlock: BEQFEK_clean_sbu_0, # of connection points: 5
#     Node 14, Type 0, BuildingBlock: BEQFEK_clean_sbu_0, # of connection points: 5
#     Node 15, Type 0, BuildingBlock: BEQFEK_clean_sbu_0, # of connection points: 5
#     Node 16, Type 0, BuildingBlock: BEQFEK_clean_sbu_0, # of connection points: 5
#     Node 17, Type 0, BuildingBlock: BEQFEK_clean_sbu_0, # of connection points: 5
#     Node 18, Type 0, BuildingBlock: BEQFEK_clean_sbu_0, # of connection points: 5
#     Node 19, Type 0, BuildingBlock: BEQFEK_clean_sbu_0, # of connection points: 5
#     Node 20, Type 0, BuildingBlock: BEQFEK_clean_sbu_0, # of connection points: 5
#     Node 21, Type 0, BuildingBlock: BEQFEK_clean_sbu_0, # of connection points: 5
#     Node 22, Type 0, BuildingBlock: BEQFEK_clean_sbu_0, # of connection points: 5
#     Node 23, Type 0, BuildingBlock: BEQFEK_clean_sbu_0, # of connection points: 5
#     Edge 24, Type (0, 0), None
#     Edge 25, Type (0, 0), None
#     Edge 26, Type (0, 0), None
#     Edge 27, Type (0, 0), None
#     Edge 28, Type (0, 0), None
#     Edge 29, Type (0, 0), None
#     Edge 30, Type (0, 0), None
#     Edge 31, Type (0, 0), None
#     Edge 32, Type (0, 0), None
#     Edge 33, Type (0, 0), None
#     Edge 34, Type (0, 0), None
#     Edge 35, Type (0, 0), None
#     Edge 36, Type (0, 0), None
#     Edge 37, Type (0, 0), None
#     Edge 38, Type (0, 0), None
#     Edge 39, Type (0, 0), None
#     Edge 40, Type (0, 0), None
#     Edge 41, Type (0, 0), None
#     Edge 42, Type (0, 0), None
#     Edge 43, Type (0, 0), None
#     Edge 44, Type (0, 0), None
#     Edge 45, Type (0, 0), None
#     Edge 46, Type (0, 0), None
#     Edge 47, Type (0, 0), None
#     Edge 48, Type (0, 0), None
#     Edge 49, Type (0, 0), None
#     Edge 50, Type (0, 0), None
#     Edge 51, Type (0, 0), None
#     Edge 52, Type (0, 0), None
#     Edge 53, Type (0, 0), None
#     Edge 54, Type (0, 0), None
#     Edge 55, Type (0, 0), None
#     Edge 56, Type (0, 0), None
#     Edge 57, Type (0, 0), None
#     Edge 58, Type (0, 0), None
#     Edge 59, Type (0, 0), None
#     Edge 60, Type (0, 0), None
#     Edge 61, Type (0, 0), None
#     Edge 62, Type (0, 0), None
#     Edge 63, Type (0, 0), None
#     Edge 64, Type (0, 0), None
#     Edge 65, Type (0, 0), None
#     Edge 66, Type (0, 0), None
#     Edge 67, Type (0, 0), None
#     Edge 68, Type (0, 0), None
#     Edge 69, Type (0, 0), None
#     Edge 70, Type (0, 0), None
#     Edge 71, Type (0, 0), None
#     Edge 72, Type (0, 0), None
#     Edge 73, Type (0, 0), None
#     Edge 74, Type (0, 0), None
#     Edge 75, Type (0, 0), None
#     Edge 76, Type (0, 0), None
#     Edge 77, Type (0, 0), None
#     Edge 78, Type (0, 0), None
#     Edge 79, Type (0, 0), None
#     Edge 80, Type (0, 0), None
#     Edge 81, Type (0, 0), None
#     Edge 82, Type (0, 0), None
#     Edge 83, Type (0, 0), None
# Relax obj value: 0.831
# Max RMSD: 0.226
# Mean RMSD: 0.226
data_MOF--net-fnp--node1-BEQFEK_clean_sbu_0--edge1-none
_symmetry_space_group_name_H-M    P1
_symmetry_Int_Tables_number       1
_symmetry_cell_setting            triclinic
loop_
_symmetry_equiv_pos_as_xyz
'x, y, z'
_cell_length_a     27.661547
_cell_length_b     27.661669
_cell_length_c     27.661934
_cell_angle_alpha  89.99953
_cell_angle_beta   89.999591
_cell_angle_gamma 90.000354
loop_
_atom_site_label
_atom_site_type_symbol
_atom_site_fract_x
_atom_site_fract_y
_atom_site_fract_z
_atom_type_partial_charge
Co0 Co 0.30953 0.22741 0.74308 0.0
Co1 Co 0.21302 0.25172 0.71965 0.0
C2 C 0.24222 0.30141 0.80256 0.0
O3 O 0.28213 0.28133 0.78991 0.0
O4 O 0.2032 0.28771 0.78219 0.0
C5 C 0.3469 0.17089 0.81326 0.0
O6 O 0.37556 0.1358 0.82598 0.0
C7 C 0.11763 0.25458 0.70389 0.0
C8 C 0.11759 0.19381 0.65215 0.0
C9 C 0.09185 0.21401 0.68999 0.0
N10 N 0.15917 0.25472 0.67947 0.0
N11 N 0.15769 0.22041 0.64631 0.0
C12 C 0.1001 0.29852 0.73021 0.0
H13 H 0.11758 0.33128 0.71495 0.0
H14 H 0.11068 0.29689 0.76875 0.0
H15 H 1.06036 0.30239 0.72668 0.0
C16 C 0.27839 0.12398 0.719 0.0
N17 N 0.27058 0.1725 0.72273 0.0
N18 N 0.22456 0.1809 0.72697 0.0
C19 C 0.20166 0.13711 0.73152 0.0
C20 C 0.23467 0.09864 0.72618 0.0
C21 C 0.32796 0.10281 0.71582 0.0
H22 H 0.35368 0.12967 0.70075 0.0
H23 H 0.34006 0.09289 0.7524 0.0
H24 H 0.32847 1.06961 0.69362 0.0
O25 O 0.33627 0.26159 0.68826 0.0
O26 O 0.26468 0.29552 0.68795 0.0
H27 H 0.1288 0.12046 0.71329 0.0
H28 H 0.14535 0.10097 0.77144 0.0
C29 C 0.14995 0.13102 0.74556 0.0
H30 H 0.13607 0.1647 0.76213 0.0
H31 H 0.18746 0.20976 0.62572 0.0
O32 O 0.36041 0.19736 0.77846 0.0
C33 C 0.30971 0.29723 0.67735 0.0
Co34 Co 0.91536 0.80953 0.24306 0.0
Co35 Co 0.89105 0.71302 0.21965 0.0
C36 C 0.84136 0.74222 0.30255 0.0
O37 O 0.86144 0.78213 0.2899 0.0
O38 O 0.85506 0.70321 0.28218 0.0
C39 C 0.97187 0.84694 0.31323 0.0
O40 O 1.00693 0.87562 0.32597 0.0
C41 C 0.88819 0.61762 0.20389 0.0
C42 C 0.94896 0.61759 0.15215 0.0
C43 C 0.92876 0.59185 0.18999 0.0
N44 N 0.88805 0.65917 0.17946 0.0
N45 N 0.92237 0.65768 0.1463 0.0
C46 C 0.84426 0.6001 0.23021 0.0
H47 H 0.8115 0.61758 0.21497 0.0
H48 H 0.84589 0.61068 0.26876 0.0
H49 H 0.84039 0.56036 0.22669 0.0
C50 C 1.01879 0.77839 0.21898 0.0
N51 N 0.97027 0.77059 0.22271 0.0
N52 N 0.96187 0.72456 0.22696 0.0
C53 C 1.00566 0.70166 0.23151 0.0
C54 C 1.04413 0.73467 0.22616 0.0
C55 C 1.03997 0.82796 0.21577 0.0
H56 H 1.01312 0.85366 0.20065 0.0
H57 H 1.04984 0.8401 0.25235 0.0
H58 H 0.07319 0.82845 0.19362 0.0
O59 O 0.88118 0.83626 0.18823 0.0
O60 O 0.84725 0.76467 0.18794 0.0
H61 H 1.02231 0.6288 0.21328 0.0
H62 H 1.04181 0.64535 0.27142 0.0
C63 C 1.01175 0.64996 0.24555 0.0
H64 H 0.97808 0.63607 0.26213 0.0
H65 H 0.93301 0.68745 0.12571 0.0
O66 O 0.9454 0.86042 0.27843 0.0
C67 C 0.84554 0.8097 0.17734 0.0
Co68 Co 0.33322 0.41537 0.74308 0.0
Co69 Co 0.42975 0.39106 0.71965 0.0
C70 C 0.40053 0.34137 0.80256 0.0
O71 O 0.36062 0.36145 0.78991 0.0
O72 O 0.43955 0.35506 0.78218 0.0
C73 C 0.29585 0.47189 0.81324 0.0
O74 O 0.26719 0.50699 0.82596 0.0
C75 C 0.52515 0.38821 0.70391 0.0
C76 C 0.5252 0.44897 0.65216 0.0
C77 C 0.55094 0.42877 0.69 0.0
N78 N 0.48361 0.38807 0.67948 0.0
N79 N 0.4851 0.42238 0.64631 0.0
C80 C 0.54267 0.34428 0.73024 0.0
H81 H 0.52518 0.31151 0.71501 0.0
H82 H 0.53208 0.34592 0.76879 0.0
H83 H 0.5824 0.34039 0.72672 0.0
C84 C 0.36437 0.5188 0.719 0.0
N85 N 0.37217 0.47028 0.72273 0.0
N86 N 0.4182 0.46188 0.72696 0.0
C87 C 0.44111 0.50567 0.73152 0.0
C88 C 0.40809 0.54414 0.72618 0.0
C89 C 0.3148 0.53998 0.71582 0.0
H90 H 0.28908 0.51311 0.70077 0.0
H91 H 0.30271 0.54991 0.7524 0.0
H92 H 0.31429 0.57317 0.69362 0.0
O93 O 0.3065 0.3812 0.68824 0.0
O94 O 0.37811 0.34726 0.68791 0.0
H95 H 0.51396 0.52232 0.71328 0.0
H96 H 0.49741 0.54181 0.77143 0.0
C97 C 0.49281 0.51176 0.74555 0.0
H98 H 0.50669 0.47808 0.76212 0.0
H99 H 0.45534 0.43303 0.62572 0.0
O100 O 0.28234 0.44542 0.77845 0.0
C101 C 0.33308 0.34558 0.67732 0.0
Co102 Co 0.7274 0.83322 0.24308 0.0
Co103 Co 0.75172 0.92974 0.21964 0.0
C104 C 0.80141 0.90053 0.30256 0.0
O105 O 0.78133 0.86062 0.2899 0.0
O106 O 0.78772 0.93954 0.28218 0.0
C107 C 0.67088 0.79585 0.31325 0.0
O108 O 0.63578 0.7672 0.32597 0.0
C109 C 0.75457 1.02515 0.2039 0.0
C110 C 0.69381 1.0252 0.15215 0.0
C111 C 0.71401 1.05093 0.18999 0.0
N112 N 0.75471 0.98361 0.17947 0.0
N113 N 0.7204 0.9851 0.14631 0.0
C114 C 0.7985 1.04266 0.23023 0.0
H115 H 0.83127 1.02518 0.21499 0.0
H116 H 0.79687 1.03208 0.26878 0.0
H117 H 0.80239 0.0824 0.22671 0.0
C118 C 0.62398 0.86437 0.219 0.0
N119 N 0.6725 0.87217 0.22273 0.0
N120 N 0.6809 0.9182 0.22696 0.0
C121 C 0.63711 0.94111 0.23151 0.0
C122 C 0.59864 0.90809 0.22617 0.0
C123 C 0.6028 0.81481 0.21582 0.0
H124 H 0.62967 0.78908 0.20077 0.0
H125 H 0.59286 0.80271 0.2524 0.0
H126 H 0.56961 0.81429 0.19361 0.0
O127 O 0.76157 0.80649 0.18824 0.0
O128 O 0.79551 0.8781 0.1879 0.0
H129 H 0.62046 1.01396 0.21328 0.0
H130 H 0.60097 0.99741 0.27143 0.0
C131 C 0.63102 0.99281 0.24555 0.0
H132 H 0.6647 1.00669 0.26212 0.0
H133 H 0.70975 0.95533 0.12571 0.0
O134 O 0.69735 0.78235 0.27846 0.0
C135 C 0.79719 0.83307 0.17731 0.0
Co136 Co 0.30954 0.41537 0.89969 0.0
Co137 Co 0.21303 0.39106 0.92313 0.0
C138 C 0.24222 0.34137 0.84021 0.0
O139 O 0.28213 0.36145 0.85286 0.0
O140 O 0.20321 0.35507 0.86059 0.0
C141 C 0.34688 0.47192 0.82953 0.0
O142 O 0.37551 0.50703 0.81679 0.0
C143 C 0.11764 0.38821 0.93889 0.0
C144 C 0.11761 0.44898 0.99063 0.0
C145 C 0.09186 0.42879 0.9528 0.0
N146 N 0.15918 0.38806 0.96332 0.0
N147 N 0.1577 0.42238 0.99648 0.0
C148 C 0.10011 0.34429 0.91257 0.0
H149 H 0.11758 0.31152 0.92781 0.0
H150 H 0.11069 0.34591 0.87402 0.0
H151 H 1.06037 0.34041 0.91609 0.0
C152 C 0.27841 0.5188 0.92376 0.0
N153 N 0.2706 0.47028 0.92004 0.0
N154 N 0.22457 0.46188 0.91582 0.0
C155 C 0.20167 0.50567 0.91126 0.0
C156 C 0.23468 0.54414 0.91659 0.0
C157 C 0.32797 0.53998 0.92693 0.0
H158 H 0.35371 0.5131 0.94193 0.0
H159 H 0.34003 0.54997 0.89035 0.0
H160 H 0.3285 0.57314 0.94918 0.0
O161 O 0.33628 0.38119 0.95451 0.0
O162 O 0.26469 0.34726 0.95483 0.0
H163 H 0.12881 0.52233 0.92948 0.0
H164 H 0.14537 0.54181 0.87133 0.0
C165 C 0.14997 0.51176 0.89722 0.0
H166 H 0.13608 0.47809 0.88065 0.0
H167 H 0.18747 0.43303 1.01707 0.0
O168 O 0.36041 0.44542 0.8643 0.0
C169 C 0.30971 0.34555 0.96542 0.0
Co170 Co 0.7274 0.80954 0.39969 0.0
Co171 Co 0.75171 0.71302 0.42312 0.0
C172 C 0.8014 0.74223 0.34021 0.0
O173 O 0.78132 0.78213 0.35286 0.0
O174 O 0.7877 0.70321 0.36058 0.0
C175 C 0.67086 0.84689 0.32954 0.0
O176 O 0.63576 0.87552 0.3168 0.0
C177 C 0.75456 0.61763 0.43888 0.0
C178 C 0.69379 0.6176 0.49062 0.0
C179 C 0.71399 0.59186 0.45279 0.0
N180 N 0.75471 0.65917 0.4633 0.0
N181 N 0.72039 0.65769 0.49647 0.0
C182 C 0.79848 0.6001 0.41255 0.0
H183 H 0.83125 0.61758 0.42779 0.0
H184 H 0.79685 0.61068 0.374 0.0
H185 H 0.80236 0.56036 0.41607 0.0
C186 C 0.62397 0.77839 0.42377 0.0
N187 N 0.67249 0.77059 0.42005 0.0
N188 N 0.68089 0.72456 0.41581 0.0
C189 C 0.6371 0.70166 0.41125 0.0
C190 C 0.59863 0.73467 0.41659 0.0
C191 C 0.60278 0.82795 0.42695 0.0
H192 H 0.62966 0.85369 0.44197 0.0
H193 H 0.59281 0.84003 0.39037 0.0
H194 H 0.56961 0.82847 0.44919 0.0
O195 O 0.76159 0.83626 0.45452 0.0
O196 O 0.79551 0.76468 0.45482 0.0
H197 H 0.62045 0.6288 0.42947 0.0
H198 H 0.60096 0.64536 0.37132 0.0
C199 C 0.63101 0.64996 0.39721 0.0
H200 H 0.66469 0.63608 0.38064 0.0
H201 H 0.70975 0.68746 0.51706 0.0
O202 O 0.69735 0.86041 0.36431 0.0
C203 C 0.79723 0.8097 0.46542 0.0
Co204 Co 0.33322 0.2274 0.8997 0.0
Co205 Co 0.42975 0.25172 0.92313 0.0
C206 C 0.40053 0.30141 0.84022 0.0
O207 O 0.36062 0.28133 0.85287 0.0
O208 O 0.43955 0.28771 0.86059 0.0
C209 C 0.29587 0.17087 0.82955 0.0
O210 O 0.26724 0.13577 0.8168 0.0
C211 C 0.52515 0.25456 0.93887 0.0
C212 C 0.52519 0.1938 0.99062 0.0
C213 C 0.55093 0.21399 0.95278 0.0
N214 N 0.48361 0.25471 0.9633 0.0
N215 N 0.48509 0.2204 0.99647 0.0
C216 C 0.54267 0.29847 0.91252 0.0
H217 H 0.52519 0.33125 0.92775 0.0
H218 H 0.53209 0.29682 0.87397 0.0
H219 H 0.58241 0.30236 0.91604 0.0
C220 C 0.36437 0.12398 0.92378 0.0
N221 N 0.37217 0.1725 0.92006 0.0
N222 N 0.4182 0.1809 0.91582 0.0
C223 C 0.44111 0.13711 0.91126 0.0
C224 C 0.40809 0.09864 0.9166 0.0
C225 C 0.31481 0.10279 0.92696 0.0
H226 H 0.28908 0.12966 0.942 0.0
H227 H 0.30272 0.09283 0.89039 0.0
H228 H 0.3143 1.06962 0.9492 0.0
O229 O 0.3065 0.26158 0.95454 0.0
O230 O 0.37811 0.29552 0.95486 0.0
H231 H 0.51396 0.12046 0.92947 0.0
H232 H 0.4974 0.10097 0.87133 0.0
C233 C 0.4928 0.13102 0.89721 0.0
H234 H 0.50668 0.1647 0.88064 0.0
H235 H 0.45533 0.20976 1.01706 0.0
O236 O 0.28235 0.19735 0.86433 0.0
C237 C 0.33308 0.2972 0.96546 0.0
Co238 Co 0.91537 0.83322 0.39969 0.0
Co239 Co 0.89106 0.92974 0.42313 0.0
C240 C 0.84137 0.90053 0.34021 0.0
O241 O 0.86145 0.86062 0.35286 0.0
O242 O 0.85506 0.93954 0.36059 0.0
C243 C 0.97191 0.7959 0.32953 0.0
O244 O 1.00703 0.76729 0.31677 0.0
C245 C 0.88822 1.02515 0.43887 0.0
C246 C 0.94897 1.02519 0.49063 0.0
C247 C 0.92878 1.05092 0.45278 0.0
N248 N 0.88806 0.9836 0.4633 0.0
N249 N 0.92237 0.98509 0.49647 0.0
C250 C 0.8443 1.04266 0.41252 0.0
H251 H 0.81152 1.02518 0.42775 0.0
H252 H 0.84595 1.03208 0.37397 0.0
H253 H 0.84041 0.0824 0.41604 0.0
C254 C 1.0188 0.86436 0.42377 0.0
N255 N 0.97028 0.87217 0.42005 0.0
N256 N 0.96188 0.9182 0.41582 0.0
C257 C 1.00567 0.9411 0.41127 0.0
C258 C 1.04414 0.90808 0.4166 0.0
C259 C 1.03997 0.8148 0.42695 0.0
H260 H 1.01309 0.78907 0.44197 0.0
H261 H 1.04995 0.80272 0.39038 0.0
H262 H 0.07314 0.81429 0.4492 0.0
O263 O 0.88119 0.80649 0.45452 0.0
O264 O 0.84726 0.8781 0.45486 0.0
H265 H 1.02232 1.01396 0.42949 0.0
H266 H 1.04182 0.9974 0.37135 0.0
C267 C 1.01176 0.9928 0.39723 0.0
H268 H 0.97809 1.00668 0.38065 0.0
H269 H 0.93301 0.95533 0.51707 0.0
O270 O 0.94544 0.78236 0.3643 0.0
C271 C 0.84558 0.83307 0.46545 0.0
Co272 Co 0.74308 0.30953 0.22741 0.0
Co273 Co 0.71966 0.21302 0.25173 0.0
C274 C 0.80258 0.24224 0.3014 0.0
O275 O 0.78992 0.28214 0.28133 0.0
O276 O 0.78221 0.20322 0.28771 0.0
C277 C 0.81325 0.34692 0.17089 0.0
O278 O 0.82597 0.37557 0.1358 0.0
C279 C 0.70396 0.11762 0.25455 0.0
C280 C 0.65219 0.1176 0.19381 0.0
C281 C 0.69009 0.0919 0.21394 0.0
N282 N 0.67949 0.15915 0.25475 0.0
N283 N 0.64631 0.15766 0.22045 0.0
C284 C 0.73035 0.10009 0.29844 0.0
H285 H 0.71515 0.11756 0.33123 0.0
H286 H 0.76889 0.11067 0.29675 0.0
H287 H 0.72683 1.06035 0.3023 0.0
C288 C 0.719 0.2784 0.12398 0.0
N289 N 0.72272 0.27058 0.1725 0.0
N290 N 0.72697 0.22456 0.1809 0.0
C291 C 0.73154 0.20166 0.13711 0.0
C292 C 0.72619 0.23468 0.09864 0.0
C293 C 0.71583 0.32796 0.10281 0.0
H294 H 0.70079 0.35369 0.12968 0.0
H295 H 0.75241 0.34005 0.09286 0.0
H296 H 0.69361 0.32848 1.06962 0.0
O297 O 0.68825 0.33626 0.26159 0.0
O298 O 0.68795 0.26468 0.29553 0.0
H299 H 0.71335 0.1288 0.12046 0.0
H300 H 0.77147 0.14539 0.10093 0.0
C301 C 0.74561 0.14997 0.131 0.0
H302 H 0.76222 0.13611 0.16466 0.0
H303 H 0.62567 0.18741 0.20986 0.0
O304 O 0.77845 0.36042 0.19736 0.0
C305 C 0.67735 0.3097 0.29724 0.0
Co306 Co 0.83325 0.24308 0.72741 0.0
Co307 Co 0.92977 0.21966 0.75172 0.0
C308 C 0.90055 0.30258 0.8014 0.0
O309 O 0.86064 0.28992 0.78133 0.0
O310 O 0.93956 0.28221 0.7877 0.0
C311 C 0.79587 0.31325 0.67089 0.0
O312 O 0.76722 0.32597 0.63579 0.0
C313 C 1.02516 0.20396 0.75454 0.0
C314 C 1.02518 0.15219 0.6938 0.0
C315 C 1.05088 0.19009 0.71393 0.0
N316 N 0.98364 0.17949 0.75475 0.0
N317 N 0.98512 0.14631 0.72045 0.0
C318 C 1.0427 0.23036 0.79842 0.0
H319 H 1.02523 0.21516 0.83122 0.0
H320 H 1.03211 0.2689 0.79674 0.0
H321 H 0.08244 0.22685 0.80229 0.0
C322 C 0.86438 0.219 0.62398 0.0
N323 N 0.8722 0.22272 0.6725 0.0
N324 N 0.91822 0.22696 0.68089 0.0
C325 C 0.94112 0.23153 0.6371 0.0
C326 C 0.9081 0.22619 0.59863 0.0
C327 C 0.81482 0.21583 0.60281 0.0
H328 H 0.78909 0.20079 0.62968 0.0
H329 H 0.80273 0.2524 0.59286 0.0
H330 H 0.81429 0.1936 0.56963 0.0
O331 O 0.80652 0.18825 0.76159 0.0
O332 O 0.87811 0.18795 0.79553 0.0
H333 H 1.01398 0.21335 0.62045 0.0
H334 H 0.99739 0.27146 0.60092 0.0
C335 C 0.99281 0.2456 0.63099 0.0
H336 H 1.00668 0.26222 0.66465 0.0
H337 H 0.95537 0.12567 0.70986 0.0
O338 O 0.78237 0.27845 0.69736 0.0
C339 C 0.83308 0.17735 0.79723 0.0
Co340 Co 0.8997 0.33325 0.22741 0.0
Co341 Co 0.92312 0.42976 0.25173 0.0
C342 C 0.8402 0.40054 0.30141 0.0
O343 O 0.85286 0.36063 0.28133 0.0
O344 O 0.86057 0.43956 0.28771 0.0
C345 C 0.82955 0.29588 0.17087 0.0
O346 O 0.8168 0.26724 0.13578 0.0
C347 C 0.93882 0.52516 0.25455 0.0
C348 C 0.99059 0.52518 0.1938 0.0
C349 C 0.95269 0.55088 0.21393 0.0
N350 N 0.96329 0.48364 0.25475 0.0
N351 N 0.99647 0.48512 0.22045 0.0
C352 C 0.91242 0.54269 0.29843 0.0
H353 H 0.92762 0.52523 0.33123 0.0
H354 H 0.87388 0.5321 0.29674 0.0
H355 H 0.91593 0.58243 0.30229 0.0
C356 C 0.92377 0.36438 0.12398 0.0
N357 N 0.92005 0.37219 0.1725 0.0
N358 N 0.91582 0.41822 0.1809 0.0
C359 C 0.91124 0.44112 0.1371 0.0
C360 C 0.91659 0.4081 0.09864 0.0
C361 C 0.92695 0.31481 0.10281 0.0
H362 H 0.94198 0.28908 0.12969 0.0
H363 H 0.89038 0.30273 0.09284 0.0
H364 H 0.94919 0.31429 1.06964 0.0
O365 O 0.95453 0.30652 0.26159 0.0
O366 O 0.95483 0.3781 0.29552 0.0
H367 H 0.92943 0.51398 0.12045 0.0
H368 H 0.87131 0.49739 0.10092 0.0
C369 C 0.89717 0.4928 0.131 0.0
H370 H 0.88056 0.50667 0.16466 0.0
H371 H 1.01711 0.45537 0.20985 0.0
O372 O 0.86433 0.28237 0.19736 0.0
C373 C 0.96543 0.33308 0.29723 0.0
Co374 Co 0.80954 0.3997 0.72741 0.0
Co375 Co 0.71302 0.42312 0.75173 0.0
C376 C 0.74224 0.3402 0.80141 0.0
O377 O 0.78215 0.35286 0.78133 0.0
O378 O 0.70322 0.36057 0.78771 0.0
C379 C 0.8469 0.32955 0.67088 0.0
O380 O 0.87555 0.3168 0.63578 0.0
C381 C 0.61763 0.43883 0.75456 0.0
C382 C 0.61761 0.49059 0.69381 0.0
C383 C 0.59191 0.4527 0.71394 0.0
N384 N 0.65915 0.46329 0.75475 0.0
N385 N 0.65767 0.49647 0.72045 0.0
C386 C 0.6001 0.41244 0.79844 0.0
H387 H 0.61757 0.42763 0.83124 0.0
H388 H 0.61067 0.37389 0.79676 0.0
H389 H 0.56035 0.41596 0.80231 0.0
C390 C 0.7784 0.42377 0.62398 0.0
N391 N 0.77059 0.42005 0.6725 0.0
N392 N 0.72456 0.41581 0.6809 0.0
C393 C 0.70167 0.41124 0.63711 0.0
C394 C 0.73468 0.41659 0.59864 0.0
C395 C 0.82796 0.42695 0.60281 0.0
H396 H 0.8537 0.44198 0.62968 0.0
H397 H 0.84005 0.39037 0.59284 0.0
H398 H 0.82849 0.44918 0.56963 0.0
O399 O 0.83627 0.45453 0.76159 0.0
O400 O 0.76469 0.45483 0.79553 0.0
H401 H 0.6288 0.42942 0.62046 0.0
H402 H 0.64539 0.3713 0.60094 0.0
C403 C 0.64998 0.39717 0.63101 0.0
H404 H 0.63611 0.38056 0.66467 0.0
H405 H 0.68742 0.51711 0.70986 0.0
O406 O 0.86042 0.36433 0.69736 0.0
C407 C 0.80971 0.46543 0.79723 0.0
Co408 Co 0.74307 0.33324 0.41538 0.0
Co409 Co 0.71962 0.42976 0.39105 0.0
C410 C 0.80254 0.40054 0.34136 0.0
O411 O 0.78989 0.36063 0.36145 0.0
O412 O 0.78216 0.43956 0.35505 0.0
C413 C 0.81325 0.29587 0.47188 0.0
O414 O 0.82596 0.26723 0.50699 0.0
C415 C 0.70392 0.52516 0.38824 0.0
C416 C 0.65217 0.52518 0.449 0.0
C417 C 0.69006 0.55089 0.42885 0.0
N418 N 0.67946 0.48364 0.38804 0.0
N419 N 0.64628 0.48512 0.42235 0.0
C420 C 0.73032 0.54269 0.34435 0.0
H421 H 0.71511 0.52522 0.31156 0.0
H422 H 0.76886 0.5321 0.34604 0.0
H423 H 0.72681 0.58243 0.34048 0.0
C424 C 0.71901 0.36439 0.51881 0.0
N425 N 0.72271 0.37219 0.47028 0.0
N426 N 0.72695 0.41822 0.46188 0.0
C427 C 0.73155 0.44112 0.50566 0.0
C428 C 0.72626 0.40811 0.54413 0.0
C429 C 0.71583 0.31483 0.53999 0.0
H430 H 0.70078 0.2891 0.51313 0.0
H431 H 0.75241 0.30273 0.54993 0.0
H432 H 0.69363 0.31432 0.57318 0.0
O433 O 0.68823 0.3065 0.3812 0.0
O434 O 0.6879 0.37811 0.34726 0.0
H435 H 0.71338 0.51399 0.52231 0.0
H436 H 0.77152 0.4974 0.54179 0.0
C437 C 0.74563 0.49281 0.51174 0.0
H438 H 0.76221 0.50667 0.47807 0.0
H439 H 0.62565 0.45537 0.43295 0.0
O440 O 0.77845 0.28237 0.44542 0.0
C441 C 0.67731 0.33308 0.34558 0.0
Co442 Co 0.80954 0.24306 0.91537 0.0
Co443 Co 0.71302 0.21962 0.89105 0.0
C444 C 0.74224 0.30254 0.84136 0.0
O445 O 0.78215 0.28989 0.86145 0.0
O446 O 0.70323 0.28216 0.85505 0.0
C447 C 0.84692 0.31324 0.97188 0.0
O448 O 0.87557 0.32596 1.00698 0.0
C449 C 0.61762 0.20392 0.88823 0.0
C450 C 0.6176 0.15217 0.94899 0.0
C451 C 0.59189 0.19006 0.92884 0.0
N452 N 0.65915 0.17945 0.88804 0.0
N453 N 0.65766 0.14628 0.92235 0.0
C454 C 0.60009 0.2303 0.84434 0.0
H455 H 0.61757 0.21509 0.81155 0.0
H456 H 0.61068 0.26884 0.84601 0.0
H457 H 0.56035 0.22678 0.84047 0.0
C458 C 0.77839 0.21901 1.01881 0.0
N459 N 0.77059 0.22271 0.97028 0.0
N460 N 0.72456 0.22695 0.96187 0.0
C461 C 0.70165 0.23155 1.00566 0.0
C462 C 0.73467 0.22626 1.04413 0.0
C463 C 0.82795 0.21583 1.03999 0.0
H464 H 0.85367 0.20076 1.01313 0.0
H465 H 0.84005 0.25241 1.04992 0.0
H466 H 0.82846 0.19363 0.07319 0.0
O467 O 0.83628 0.18823 0.8812 0.0
O468 O 0.76467 0.1879 0.84726 0.0
H469 H 0.62879 0.21338 1.02231 0.0
H470 H 0.64538 0.27152 1.04178 0.0
C471 C 0.64997 0.24563 1.01174 0.0
H472 H 0.63611 0.26221 0.97806 0.0
H473 H 0.68741 0.12565 0.93296 0.0
O474 O 0.86042 0.27844 0.94542 0.0
C475 C 0.8097 0.17731 0.84558 0.0
Co476 Co 0.89972 0.30954 0.41537 0.0
Co477 Co 0.92316 0.21302 0.39104 0.0
C478 C 0.84024 0.24224 0.34135 0.0
O479 O 0.85289 0.28215 0.36144 0.0
O480 O 0.86062 0.20322 0.35505 0.0
C481 C 0.82955 0.3469 0.47189 0.0
O482 O 0.81681 0.37555 0.50698 0.0
C483 C 0.93886 0.11762 0.38823 0.0
C484 C 0.99061 0.11759 0.44899 0.0
C485 C 0.95272 0.09189 0.42884 0.0
N486 N 0.96332 0.15914 0.38804 0.0
N487 N 0.99649 0.15765 0.42235 0.0
C488 C 0.91248 0.10009 0.34434 0.0
H489 H 0.92768 0.11756 0.31155 0.0
H490 H 0.87393 0.11067 0.34601 0.0
H491 H 0.91599 1.06035 0.34047 0.0
C492 C 0.92376 0.27839 0.5188 0.0
N493 N 0.92007 0.27058 0.47028 0.0
N494 N 0.91583 0.22456 0.46187 0.0
C495 C 0.91123 0.20165 0.50565 0.0
C496 C 0.91651 0.23467 0.54413 0.0
C497 C 0.92695 0.32795 0.53999 0.0
H498 H 0.94201 0.35367 0.51313 0.0
H499 H 0.89037 0.34004 0.54992 0.0
H500 H 0.94916 0.32845 0.57318 0.0
O501 O 0.95456 0.33627 0.3812 0.0
O502 O 0.95489 0.26467 0.34725 0.0
H503 H 0.92939 0.12878 0.52231 0.0
H504 H 0.87125 0.14538 0.54178 0.0
C505 C 0.89715 0.14997 0.51174 0.0
H506 H 0.88057 0.1361 0.47806 0.0
H507 H 1.01713 0.18741 0.43296 0.0
O508 O 0.86434 0.36041 0.44541 0.0
C509 C 0.96548 0.3097 0.34558 0.0
Co510 Co 0.83325 0.39971 0.91537 0.0
Co511 Co 0.92977 0.42315 0.89105 0.0
C512 C 0.90055 0.34024 0.84135 0.0
O513 O 0.86064 0.35289 0.86144 0.0
O514 O 0.93956 0.36062 0.85505 0.0
C515 C 0.79589 0.32955 0.97189 0.0
O516 O 0.76725 0.31681 1.00699 0.0
C517 C 1.02517 0.43885 0.88824 0.0
C518 C 1.02519 0.49061 0.949 0.0
C519 C 1.0509 0.45271 0.92886 0.0
N520 N 0.98365 0.46332 0.88804 0.0
N521 N 0.98513 0.49649 0.92235 0.0
C522 C 1.0427 0.41245 0.84436 0.0
H523 H 1.02524 0.42765 0.81156 0.0
H524 H 1.03211 0.37391 0.84605 0.0
H525 H 0.08244 0.41596 0.84049 0.0
C526 C 0.86439 0.42376 1.0188 0.0
N527 N 0.8722 0.42006 0.97028 0.0
N528 N 0.91823 0.41582 0.96187 0.0
C529 C 0.94113 0.41123 1.00566 0.0
C530 C 0.90811 0.41651 1.04413 0.0
C531 C 0.81483 0.42694 1.03999 0.0
H532 H 0.7891 0.44199 1.01312 0.0
H533 H 0.80274 0.39037 1.04993 0.0
H534 H 0.81432 0.44916 0.07317 0.0
O535 O 0.80651 0.45455 0.8812 0.0
O536 O 0.87812 0.45488 0.84725 0.0
H537 H 1.014 0.42939 1.02231 0.0
H538 H 0.9974 0.37125 1.04179 0.0
C539 C 0.99282 0.39715 1.01174 0.0
H540 H 1.00668 0.38057 0.97807 0.0
H541 H 0.95538 0.51713 0.93295 0.0
O542 O 0.78237 0.36433 0.94541 0.0
C543 C 0.83309 0.46547 0.84558 0.0
Co544 Co 0.2274 0.74306 0.30952 0.0
Co545 Co 0.25172 0.71966 0.213 0.0
C546 C 0.3014 0.80257 0.24222 0.0
O547 O 0.28132 0.7899 0.28212 0.0
O548 O 0.2877 0.78219 0.2032 0.0
C549 C 0.17089 0.81321 0.34695 0.0
O550 O 0.13581 0.82592 0.37563 0.0
C551 C 0.25456 0.70391 0.1176 0.0
C552 C 0.19379 0.65217 0.11757 0.0
C553 C 0.21399 0.69 0.09183 0.0
N554 N 0.2547 0.67948 0.15915 0.0
N555 N 0.22039 0.64632 0.15767 0.0
C556 C 0.29848 0.73024 0.10008 0.0
H557 H 0.33125 0.715 0.11757 0.0
H558 H 0.29685 0.76879 0.11067 0.0
H559 H 0.30237 0.72673 1.06034 0.0
C560 C 0.12396 0.719 0.27836 0.0
N561 N 0.17248 0.72272 0.27057 0.0
N562 N 0.1809 0.72698 0.22455 0.0
C563 C 0.13712 0.73156 0.20163 0.0
C564 C 0.09864 0.72626 0.23464 0.0
C565 C 0.10277 0.71579 0.32792 0.0
H566 H 0.12961 0.70067 0.35363 0.0
H567 H 0.09288 0.75236 0.34006 0.0
H568 H 1.06955 0.69362 0.3284 0.0
O569 O 0.26159 0.68822 0.33623 0.0
O570 O 0.29552 0.68795 0.26465 0.0
H571 H 0.12046 0.71336 0.12877 0.0
H572 H 0.10102 0.77152 0.14533 0.0
C573 C 0.13105 0.74562 0.14993 0.0
H574 H 0.16474 0.76217 0.13606 0.0
H575 H 0.20974 0.62573 0.18743 0.0
O576 O 0.19737 0.77841 0.36042 0.0
C577 C 0.29723 0.67734 0.30967 0.0
Co578 Co 0.22739 0.89967 0.33322 0.0
Co579 Co 0.25173 0.92312 0.42971 0.0
C580 C 0.3014 0.84019 0.40052 0.0
O581 O 0.28131 0.85284 0.36062 0.0
O582 O 0.28772 0.86058 0.43954 0.0
C583 C 0.17083 0.82952 0.29591 0.0
O584 O 0.13568 0.8168 0.26732 0.0
C585 C 0.25459 0.9389 0.52511 0.0
C586 C 0.19382 0.99063 0.52514 0.0
C587 C 0.21403 0.9528 0.55089 0.0
N588 N 0.25473 0.96331 0.48356 0.0
N589 N 0.22041 0.99647 0.48504 0.0
C590 C 0.29853 0.91258 0.54263 0.0
H591 H 0.33129 0.92783 0.52514 0.0
H592 H 0.29691 0.87403 0.53206 0.0
H593 H 0.30242 0.91612 0.58237 0.0
C594 C 0.12396 0.92374 0.36438 0.0
N595 N 0.17249 0.92003 0.37217 0.0
N596 N 0.18091 0.9158 0.4182 0.0
C597 C 0.13713 0.91122 0.44112 0.0
C598 C 0.09864 0.9165 0.40811 0.0
C599 C 0.10276 0.92694 0.31483 0.0
H600 H 0.12963 0.94197 0.28909 0.0
H601 H 0.09278 0.89037 0.30274 0.0
H602 H 1.0696 0.94918 0.31434 0.0
O603 O 0.26158 0.95449 0.30646 0.0
O604 O 0.29551 0.95482 0.37804 0.0
H605 H 0.12048 0.92942 0.51398 0.0
H606 H 0.10104 0.87125 0.49742 0.0
C607 C 0.13107 0.89717 0.49282 0.0
H608 H 0.16476 0.88062 0.50668 0.0
H609 H 0.20975 1.01705 0.45527 0.0
O610 O 0.19732 0.86428 0.28237 0.0
C611 C 0.29721 0.96541 0.33301 0.0
Co612 Co 0.24308 0.7274 0.83324 0.0
Co613 Co 0.21964 0.75174 0.92975 0.0
C614 C 0.30256 0.80142 0.90054 0.0
O615 O 0.28991 0.78133 0.86063 0.0
O616 O 0.28218 0.78772 0.93955 0.0
C617 C 0.31326 0.67088 0.7959 0.0
O618 O 0.32597 0.63576 0.76727 0.0
C619 C 0.20392 0.75456 1.02514 0.0
C620 C 0.15217 0.6938 1.02515 0.0
C621 C 0.19006 0.71394 1.05086 0.0
N622 N 0.17946 0.75476 0.98361 0.0
N623 N 0.14629 0.72045 0.9851 0.0
C624 C 0.23032 0.79845 1.04267 0.0
H625 H 0.21512 0.83124 1.02521 0.0
H626 H 0.26886 0.79676 1.03209 0.0
H627 H 0.22681 0.80231 0.08241 0.0
C628 C 0.21901 0.62398 0.86439 0.0
N629 N 0.22272 0.6725 0.8722 0.0
N630 N 0.22696 0.68091 0.91822 0.0
C631 C 0.23155 0.63712 0.94113 0.0
C632 C 0.22626 0.59865 0.90811 0.0
C633 C 0.21582 0.60279 0.81484 0.0
H634 H 0.20075 0.62965 0.78911 0.0
H635 H 0.25239 0.59285 0.80273 0.0
H636 H 0.1936 0.5696 0.81434 0.0
O637 O 0.18825 0.76158 0.80649 0.0
O638 O 0.18794 0.79553 0.87807 0.0
H639 H 0.21339 0.62047 1.014 0.0
H640 H 0.27153 0.60099 0.9974 0.0
C641 C 0.24564 0.63104 0.99281 0.0
H642 H 0.26223 0.66472 1.00667 0.0
H643 H 0.12566 0.70985 0.95534 0.0
O644 O 0.27846 0.69734 0.78238 0.0
C645 C 0.17735 0.79723 0.83305 0.0
Co646 Co 0.41538 0.74307 0.33322 0.0
Co647 Co 0.39104 0.71962 0.42973 0.0
C648 C 0.34136 0.80254 0.40052 0.0
O649 O 0.36145 0.78989 0.36062 0.0
O650 O 0.35504 0.78215 0.43954 0.0
C651 C 0.47189 0.81326 0.29587 0.0
O652 O 0.50701 0.82597 0.26725 0.0
C653 C 0.38818 0.70385 0.52512 0.0
C654 C 0.44896 0.65213 0.52516 0.0
C655 C 0.42875 0.68996 0.5509 0.0
N656 N 0.38805 0.67943 0.48358 0.0
N657 N 0.42237 0.64628 0.48506 0.0
C658 C 0.34424 0.73017 0.54264 0.0
H659 H 0.31148 0.71491 0.52516 0.0
H660 H 0.34586 0.76871 0.53206 0.0
H661 H 0.34036 0.72664 0.58238 0.0
C662 C 0.5188 0.71901 0.36438 0.0
N663 N 0.47028 0.72271 0.37217 0.0
N664 N 0.46186 0.72695 0.4182 0.0
C665 C 0.50564 0.73153 0.44111 0.0
C666 C 0.54412 0.72625 0.40811 0.0
C667 C 0.54 0.71581 0.31483 0.0
H668 H 0.51314 0.70073 0.2891 0.0
H669 H 0.54992 0.75239 0.30271 0.0
H670 H 0.5732 0.69362 0.31434 0.0
O671 O 0.3812 0.68824 0.30647 0.0
O672 O 0.34725 0.68789 0.37807 0.0
H673 H 0.52229 0.71334 0.51398 0.0
H674 H 0.54173 0.7715 0.49741 0.0
C675 C 0.5117 0.74559 0.49281 0.0
H676 H 0.47801 0.76213 0.50668 0.0
H677 H 0.43303 0.62569 0.45529 0.0
O678 O 0.44543 0.77846 0.28236 0.0
C679 C 0.34558 0.67731 0.33305 0.0
Co680 Co 0.39969 0.91539 0.83322 0.0
Co681 Co 0.42314 0.89105 0.92972 0.0
C682 C 0.34022 0.84137 0.90053 0.0
O683 O 0.35286 0.86146 0.86062 0.0
O684 O 0.36061 0.85506 0.93954 0.0
C685 C 0.3295 0.97191 0.79589 0.0
O686 O 0.3168 1.00704 0.76726 0.0
C687 C 0.43893 0.88818 1.02511 0.0
C688 C 0.49065 0.94897 1.02513 0.0
C689 C 0.45282 0.92875 1.05088 0.0
N690 N 0.46334 0.88805 0.98356 0.0
N691 N 0.49649 0.92238 0.98503 0.0
C692 C 0.41262 0.84424 1.04264 0.0
H693 H 0.42789 0.81148 1.02516 0.0
H694 H 0.37408 0.84585 1.03206 0.0
H695 H 0.41615 0.84037 0.08238 0.0
C696 C 0.42375 1.01882 0.86438 0.0
N697 N 0.42005 0.97029 0.87218 0.0
N698 N 0.41581 0.96187 0.9182 0.0
C699 C 0.41123 1.00565 0.94112 0.0
C700 C 0.41651 1.04413 0.90811 0.0
C701 C 0.42695 1.04001 0.81483 0.0
H702 H 0.44202 1.01316 0.7891 0.0
H703 H 0.39037 1.04994 0.80272 0.0
H704 H 0.44915 0.07321 0.81434 0.0
O705 O 0.45451 0.8812 0.80647 0.0
O706 O 0.45484 0.84726 0.87805 0.0
H707 H 0.42943 1.0223 1.01398 0.0
H708 H 0.37126 1.04173 0.99742 0.0
C709 C 0.39718 1.01171 0.99282 0.0
H710 H 0.38064 0.97802 1.00669 0.0
H711 H 0.51707 0.93303 0.95526 0.0
O712 O 0.3643 0.94545 0.78237 0.0
C713 C 0.46542 0.84556 0.83302 0.0
Co714 Co 0.41536 0.89972 0.30951 0.0
Co715 Co 0.39105 0.92313 0.21297 0.0
C716 C 0.34135 0.84022 0.24222 0.0
O717 O 0.36143 0.85288 0.28212 0.0
O718 O 0.35506 0.86059 0.2032 0.0
C719 C 0.47187 0.82956 0.3469 0.0
O720 O 0.50695 0.81681 0.37557 0.0
C721 C 0.38826 0.93881 0.11757 0.0
C722 C 0.44901 0.99058 0.11755 0.0
C723 C 0.42888 0.95268 0.09185 0.0
N724 N 0.38805 0.96328 0.15909 0.0
N725 N 0.42235 0.99646 0.1576 0.0
C726 C 0.34439 0.91238 0.10005 0.0
H727 H 0.31159 0.92756 0.11751 0.0
H728 H 0.34611 0.87384 0.11064 0.0
H729 H 0.34052 0.91588 1.06031 0.0
C730 C 0.5188 0.92377 0.27836 0.0
N731 N 0.47028 0.92006 0.27055 0.0
N732 N 0.46187 0.91581 0.22453 0.0
C733 C 0.50566 0.91122 0.20163 0.0
C734 C 0.54413 0.91651 0.23465 0.0
C735 C 0.53998 0.92697 0.32792 0.0
H736 H 0.51313 0.94207 0.35363 0.0
H737 H 0.54989 0.8904 0.34005 0.0
H738 H 0.57319 0.94916 0.32841 0.0
O739 O 0.38119 0.95457 0.33621 0.0
O740 O 0.34724 0.95487 0.26461 0.0
H741 H 0.52232 0.92937 0.12876 0.0
H742 H 0.5418 0.87124 0.14536 0.0
C743 C 0.51175 0.89713 0.14995 0.0
H744 H 0.47808 0.88054 0.13608 0.0
H745 H 0.43294 1.0171 0.18735 0.0
O746 O 0.4454 0.86436 0.3604 0.0
C747 C 0.34556 0.96547 0.30963 0.0
Co748 Co 0.24305 0.91537 0.80952 0.0
Co749 Co 0.21964 0.89105 0.713 0.0
C750 C 0.30255 0.84137 0.74223 0.0
O751 O 0.28989 0.86145 0.78214 0.0
O752 O 0.28218 0.85506 0.70322 0.0
C753 C 0.3132 0.9719 0.84692 0.0
O754 O 0.32595 1.00697 0.87558 0.0
C755 C 0.20397 0.88825 0.61759 0.0
C756 C 0.1522 0.94899 0.61755 0.0
C757 C 0.1901 0.92886 0.59186 0.0
N758 N 0.17949 0.88805 0.65911 0.0
N759 N 0.14631 0.92235 0.65761 0.0
C760 C 0.23039 0.84437 0.60008 0.0
H761 H 0.21521 0.81158 0.61756 0.0
H762 H 0.26893 0.84609 0.61066 0.0
H763 H 0.22689 0.84049 0.56034 0.0
C764 C 0.21899 1.01881 0.77837 0.0
N765 N 0.22271 0.97028 0.77057 0.0
N766 N 0.22696 0.96188 0.72455 0.0
C767 C 0.23155 1.00566 0.70164 0.0
C768 C 0.22625 1.04414 0.73466 0.0
C769 C 0.21579 1.03999 0.82793 0.0
H770 H 0.2007 1.01313 0.85364 0.0
H771 H 0.25236 1.04991 0.84006 0.0
H772 H 0.19359 0.07319 0.82842 0.0
O773 O 0.18821 0.8812 0.83624 0.0
O774 O 0.1879 0.84725 0.76464 0.0
H775 H 0.21339 1.02231 0.62877 0.0
H776 H 0.27152 1.0418 0.64537 0.0
C777 C 0.24564 1.01175 0.64996 0.0
H778 H 0.26223 0.97808 0.6361 0.0
H779 H 0.12567 0.93294 0.68736 0.0
O780 O 0.27841 0.94541 0.86041 0.0
C781 C 0.1773 0.84557 0.80966 0.0
Co782 Co 0.39973 0.72741 0.80952 0.0
Co783 Co 0.42313 0.75173 0.71299 0.0
C784 C 0.34022 0.80142 0.74223 0.0
O785 O 0.35288 0.78134 0.78214 0.0
O786 O 0.36058 0.78772 0.70321 0.0
C787 C 0.32957 0.6709 0.84693 0.0
O788 O 0.31682 0.63584 0.8756 0.0
C789 C 0.43881 0.75453 0.61758 0.0
C790 C 0.49058 0.69378 0.61757 0.0
C791 C 0.45268 0.71391 0.59186 0.0
N792 N 0.46328 0.75474 0.6591 0.0
N793 N 0.49646 0.72044 0.65762 0.0
C794 C 0.41238 0.7984 0.60006 0.0
H795 H 0.42756 0.8312 0.61752 0.0
H796 H 0.37384 0.79669 0.61065 0.0
H797 H 0.41589 0.80227 0.56032 0.0
C798 C 0.42377 0.62398 0.77837 0.0
N799 N 0.42006 0.6725 0.77056 0.0
N800 N 0.41581 0.68091 0.72454 0.0
C801 C 0.41121 0.63712 0.70164 0.0
C802 C 0.41651 0.59865 0.73465 0.0
C803 C 0.42698 0.60279 0.82792 0.0
H804 H 0.44209 0.62964 0.85363 0.0
H805 H 0.39041 0.59289 0.84006 0.0
H806 H 0.44916 0.56958 0.82841 0.0
O807 O 0.45458 0.76159 0.83622 0.0
O808 O 0.45486 0.79554 0.76462 0.0
H809 H 0.42937 0.62047 0.62877 0.0
H810 H 0.37123 0.60098 0.64537 0.0
C811 C 0.39712 0.63103 0.64995 0.0
H812 H 0.38053 0.66471 0.63609 0.0
H813 H 0.5171 0.70985 0.68737 0.0
O814 O 0.36437 0.69738 0.86041 0.0
C815 C 0.46547 0.79722 0.80964 0.0
loop_
_geom_bond_atom_site_label_1
_geom_bond_atom_site_label_2
_geom_bond_distance
_geom_bond_site_symmetry_2
_ccdc_geom_bond_type
Co0 O3 1.970 . S
Co0 N17 1.989 . S
Co0 O25 1.967 . S
Co0 O32 1.920 . S
Co1 O4 1.966 . S
Co1 N10 2.022 . S
Co1 N18 1.993 . S
Co1 O26 1.941 . S
C2 O3 1.258 . S
C2 O4 1.263 . S
O3 Co0 1.970 . S
O3 C2 1.258 . S
O4 Co1 1.966 . S
O4 C2 1.263 . S
C5 O6 1.235 . S
C5 O32 1.289 . S
O6 C5 1.235 . S
C7 C9 1.400 . S
C7 N10 1.351 . S
C7 C12 1.501 . S
C8 C9 1.387 . S
C8 N11 1.341 . S
C9 C7 1.400 . S
C9 C8 1.387 . S
N10 Co1 2.022 . S
N10 C7 1.351 . S
N10 N11 1.365 . S
N11 C8 1.341 . S
N11 N10 1.365 . S
N11 H31 0.862 . S
C12 C7 1.501 . S
C12 H13 0.961 . S
C12 H14 0.961 . S
C12 H15 0.960 . S
H13 C12 0.961 . S
H14 C12 0.961 . S
H15 C12 0.960 . S
C16 N17 1.342 . S
C16 C20 1.401 . S
C16 C21 1.499 . S
N17 Co0 1.989 . S
N17 C16 1.342 . S
N17 N18 1.388 . S
N18 Co1 1.993 . S
N18 N17 1.388 . S
N18 C19 1.346 . S
C19 N18 1.346 . S
C19 C20 1.396 . S
C19 C29 1.510 . S
C20 C16 1.401 . S
C20 C19 1.396 . S
C21 C16 1.499 . S
C21 H22 0.959 . S
C21 H23 0.960 . S
C21 H24 0.961 . S
H22 C21 0.959 . S
H23 C21 0.960 . S
H24 C21 0.961 . S
O25 Co0 1.967 . S
O25 C33 1.258 . S
O26 Co1 1.941 . S
O26 C33 1.266 . S
H27 C29 0.959 . S
H28 C29 0.961 . S
C29 C19 1.510 . S
C29 H27 0.959 . S
C29 H28 0.961 . S
C29 H30 0.960 . S
H30 C29 0.960 . S
H31 N11 0.862 . S
O32 Co0 1.920 . S
O32 C5 1.289 . S
C33 O25 1.258 . S
C33 O26 1.266 . S
Co34 O37 1.970 . S
Co34 N51 1.989 . S
Co34 O59 1.967 . S
Co34 O66 1.920 . S
Co35 O38 1.966 . S
Co35 N44 2.022 . S
Co35 N52 1.993 . S
Co35 O60 1.941 . S
C36 O37 1.258 . S
C36 O38 1.263 . S
O37 Co34 1.970 . S
O37 C36 1.258 . S
O38 Co35 1.966 . S
O38 C36 1.263 . S
C39 O40 1.235 . S
C39 O66 1.289 . S
O40 C39 1.235 . S
C41 C43 1.400 . S
C41 N44 1.351 . S
C41 C46 1.501 . S
C42 C43 1.387 . S
C42 N45 1.341 . S
C43 C41 1.400 . S
C43 C42 1.387 . S
N44 Co35 2.022 . S
N44 C41 1.351 . S
N44 N45 1.365 . S
N45 C42 1.341 . S
N45 N44 1.365 . S
N45 H65 0.862 . S
C46 C41 1.501 . S
C46 H47 0.961 . S
C46 H48 0.961 . S
C46 H49 0.960 . S
H47 C46 0.961 . S
H48 C46 0.961 . S
H49 C46 0.960 . S
C50 N51 1.342 . S
C50 C54 1.401 . S
C50 C55 1.499 . S
N51 Co34 1.989 . S
N51 C50 1.342 . S
N51 N52 1.388 . S
N52 Co35 1.993 . S
N52 N51 1.388 . S
N52 C53 1.346 . S
C53 N52 1.346 . S
C53 C54 1.396 . S
C53 C63 1.510 . S
C54 C50 1.401 . S
C54 C53 1.396 . S
C55 C50 1.499 . S
C55 H56 0.959 . S
C55 H57 0.960 . S
C55 H58 0.961 . S
H56 C55 0.959 . S
H57 C55 0.960 . S
H58 C55 0.961 . S
O59 Co34 1.967 . S
O59 C67 1.258 . S
O60 Co35 1.941 . S
O60 C67 1.266 . S
H61 C63 0.959 . S
H62 C63 0.961 . S
C63 C53 1.510 . S
C63 H61 0.959 . S
C63 H62 0.961 . S
C63 H64 0.960 . S
H64 C63 0.960 . S
H65 N45 0.862 . S
O66 Co34 1.920 . S
O66 C39 1.289 . S
C67 O59 1.258 . S
C67 O60 1.266 . S
Co68 O71 1.970 . S
Co68 N85 1.989 . S
Co68 O93 1.967 . S
Co68 O100 1.920 . S
Co69 O72 1.966 . S
Co69 N78 2.022 . S
Co69 N86 1.993 . S
Co69 O94 1.941 . S
C70 O71 1.258 . S
C70 O72 1.263 . S
O71 Co68 1.970 . S
O71 C70 1.258 . S
O72 Co69 1.966 . S
O72 C70 1.263 . S
C73 O74 1.235 . S
C73 O100 1.289 . S
O74 C73 1.235 . S
C75 C77 1.400 . S
C75 N78 1.351 . S
C75 C80 1.501 . S
C76 C77 1.387 . S
C76 N79 1.341 . S
C77 C75 1.400 . S
C77 C76 1.387 . S
N78 Co69 2.022 . S
N78 C75 1.351 . S
N78 N79 1.365 . S
N79 C76 1.341 . S
N79 N78 1.365 . S
N79 H99 0.862 . S
C80 C75 1.501 . S
C80 H81 0.961 . S
C80 H82 0.961 . S
C80 H83 0.960 . S
H81 C80 0.961 . S
H82 C80 0.961 . S
H83 C80 0.960 . S
C84 N85 1.342 . S
C84 C88 1.401 . S
C84 C89 1.499 . S
N85 Co68 1.989 . S
N85 C84 1.342 . S
N85 N86 1.388 . S
N86 Co69 1.993 . S
N86 N85 1.388 . S
N86 C87 1.346 . S
C87 N86 1.346 . S
C87 C88 1.396 . S
C87 C97 1.510 . S
C88 C84 1.401 . S
C88 C87 1.396 . S
C89 C84 1.499 . S
C89 H90 0.959 . S
C89 H91 0.960 . S
C89 H92 0.961 . S
H90 C89 0.959 . S
H91 C89 0.960 . S
H92 C89 0.961 . S
O93 Co68 1.967 . S
O93 C101 1.258 . S
O94 Co69 1.941 . S
O94 C101 1.266 . S
H95 C97 0.959 . S
H96 C97 0.961 . S
C97 C87 1.510 . S
C97 H95 0.959 . S
C97 H96 0.961 . S
C97 H98 0.960 . S
H98 C97 0.960 . S
H99 N79 0.862 . S
O100 Co68 1.920 . S
O100 C73 1.289 . S
C101 O93 1.258 . S
C101 O94 1.266 . S
Co102 O105 1.970 . S
Co102 N119 1.989 . S
Co102 O127 1.967 . S
Co102 O134 1.920 . S
Co103 O106 1.966 . S
Co103 N112 2.022 . S
Co103 N120 1.993 . S
Co103 O128 1.941 . S
C104 O105 1.258 . S
C104 O106 1.263 . S
O105 Co102 1.970 . S
O105 C104 1.258 . S
O106 Co103 1.966 . S
O106 C104 1.263 . S
C107 O108 1.235 . S
C107 O134 1.289 . S
O108 C107 1.235 . S
C109 C111 1.400 . S
C109 N112 1.351 . S
C109 C114 1.501 . S
C110 C111 1.387 . S
C110 N113 1.341 . S
C111 C109 1.400 . S
C111 C110 1.387 . S
N112 Co103 2.022 . S
N112 C109 1.351 . S
N112 N113 1.365 . S
N113 C110 1.341 . S
N113 N112 1.365 . S
N113 H133 0.862 . S
C114 C109 1.501 . S
C114 H115 0.961 . S
C114 H116 0.961 . S
C114 H117 0.960 . S
H115 C114 0.961 . S
H116 C114 0.961 . S
H117 C114 0.960 . S
C118 N119 1.342 . S
C118 C122 1.401 . S
C118 C123 1.499 . S
N119 Co102 1.989 . S
N119 C118 1.342 . S
N119 N120 1.388 . S
N120 Co103 1.993 . S
N120 N119 1.388 . S
N120 C121 1.346 . S
C121 N120 1.346 . S
C121 C122 1.396 . S
C121 C131 1.510 . S
C122 C118 1.401 . S
C122 C121 1.396 . S
C123 C118 1.499 . S
C123 H124 0.959 . S
C123 H125 0.960 . S
C123 H126 0.961 . S
H124 C123 0.959 . S
H125 C123 0.960 . S
H126 C123 0.961 . S
O127 Co102 1.967 . S
O127 C135 1.258 . S
O128 Co103 1.941 . S
O128 C135 1.266 . S
H129 C131 0.959 . S
H130 C131 0.961 . S
C131 C121 1.510 . S
C131 H129 0.959 . S
C131 H130 0.961 . S
C131 H132 0.960 . S
H132 C131 0.960 . S
H133 N113 0.862 . S
O134 Co102 1.920 . S
O134 C107 1.289 . S
C135 O127 1.258 . S
C135 O128 1.266 . S
Co136 O139 1.970 . S
Co136 N153 1.989 . S
Co136 O161 1.967 . S
Co136 O168 1.920 . S
Co137 O140 1.966 . S
Co137 N146 2.022 . S
Co137 N154 1.993 . S
Co137 O162 1.941 . S
C138 O139 1.258 . S
C138 O140 1.263 . S
O139 Co136 1.970 . S
O139 C138 1.258 . S
O140 Co137 1.966 . S
O140 C138 1.263 . S
C141 O142 1.235 . S
C141 O168 1.289 . S
O142 C141 1.235 . S
C143 C145 1.400 . S
C143 N146 1.351 . S
C143 C148 1.501 . S
C144 C145 1.387 . S
C144 N147 1.341 . S
C145 C143 1.400 . S
C145 C144 1.387 . S
N146 Co137 2.022 . S
N146 C143 1.351 . S
N146 N147 1.365 . S
N147 C144 1.341 . S
N147 N146 1.365 . S
N147 H167 0.862 . S
C148 C143 1.501 . S
C148 H149 0.961 . S
C148 H150 0.961 . S
C148 H151 0.960 . S
H149 C148 0.961 . S
H150 C148 0.961 . S
H151 C148 0.960 . S
C152 N153 1.342 . S
C152 C156 1.401 . S
C152 C157 1.499 . S
N153 Co136 1.989 . S
N153 C152 1.342 . S
N153 N154 1.388 . S
N154 Co137 1.993 . S
N154 N153 1.388 . S
N154 C155 1.346 . S
C155 N154 1.346 . S
C155 C156 1.396 . S
C155 C165 1.510 . S
C156 C152 1.401 . S
C156 C155 1.396 . S
C157 C152 1.499 . S
C157 H158 0.959 . S
C157 H159 0.960 . S
C157 H160 0.961 . S
H158 C157 0.959 . S
H159 C157 0.960 . S
H160 C157 0.961 . S
O161 Co136 1.967 . S
O161 C169 1.258 . S
O162 Co137 1.941 . S
O162 C169 1.266 . S
H163 C165 0.959 . S
H164 C165 0.961 . S
C165 C155 1.510 . S
C165 H163 0.959 . S
C165 H164 0.961 . S
C165 H166 0.960 . S
H166 C165 0.960 . S
H167 N147 0.862 . S
O168 Co136 1.920 . S
O168 C141 1.289 . S
C169 O161 1.258 . S
C169 O162 1.266 . S
Co170 O173 1.970 . S
Co170 N187 1.989 . S
Co170 O195 1.967 . S
Co170 O202 1.920 . S
Co171 O174 1.966 . S
Co171 N180 2.022 . S
Co171 N188 1.993 . S
Co171 O196 1.941 . S
C172 O173 1.258 . S
C172 O174 1.263 . S
O173 Co170 1.970 . S
O173 C172 1.258 . S
O174 Co171 1.966 . S
O174 C172 1.263 . S
C175 O176 1.235 . S
C175 O202 1.289 . S
O176 C175 1.235 . S
C177 C179 1.400 . S
C177 N180 1.351 . S
C177 C182 1.501 . S
C178 C179 1.387 . S
C178 N181 1.341 . S
C179 C177 1.400 . S
C179 C178 1.387 . S
N180 Co171 2.022 . S
N180 C177 1.351 . S
N180 N181 1.365 . S
N181 C178 1.341 . S
N181 N180 1.365 . S
N181 H201 0.862 . S
C182 C177 1.501 . S
C182 H183 0.961 . S
C182 H184 0.961 . S
C182 H185 0.960 . S
H183 C182 0.961 . S
H184 C182 0.961 . S
H185 C182 0.960 . S
C186 N187 1.342 . S
C186 C190 1.401 . S
C186 C191 1.499 . S
N187 Co170 1.989 . S
N187 C186 1.342 . S
N187 N188 1.388 . S
N188 Co171 1.993 . S
N188 N187 1.388 . S
N188 C189 1.346 . S
C189 N188 1.346 . S
C189 C190 1.396 . S
C189 C199 1.510 . S
C190 C186 1.401 . S
C190 C189 1.396 . S
C191 C186 1.499 . S
C191 H192 0.959 . S
C191 H193 0.960 . S
C191 H194 0.961 . S
H192 C191 0.959 . S
H193 C191 0.960 . S
H194 C191 0.961 . S
O195 Co170 1.967 . S
O195 C203 1.258 . S
O196 Co171 1.941 . S
O196 C203 1.266 . S
H197 C199 0.959 . S
H198 C199 0.961 . S
C199 C189 1.510 . S
C199 H197 0.959 . S
C199 H198 0.961 . S
C199 H200 0.960 . S
H200 C199 0.960 . S
H201 N181 0.862 . S
O202 Co170 1.920 . S
O202 C175 1.289 . S
C203 O195 1.258 . S
C203 O196 1.266 . S
Co204 O207 1.970 . S
Co204 N221 1.989 . S
Co204 O229 1.967 . S
Co204 O236 1.920 . S
Co205 O208 1.966 . S
Co205 N214 2.022 . S
Co205 N222 1.993 . S
Co205 O230 1.941 . S
C206 O207 1.258 . S
C206 O208 1.263 . S
O207 Co204 1.970 . S
O207 C206 1.258 . S
O208 Co205 1.966 . S
O208 C206 1.263 . S
C209 O210 1.235 . S
C209 O236 1.289 . S
O210 C209 1.235 . S
C211 C213 1.400 . S
C211 N214 1.351 . S
C211 C216 1.501 . S
C212 C213 1.387 . S
C212 N215 1.341 . S
C213 C211 1.400 . S
C213 C212 1.387 . S
N214 Co205 2.022 . S
N214 C211 1.351 . S
N214 N215 1.365 . S
N215 C212 1.341 . S
N215 N214 1.365 . S
N215 H235 0.862 . S
C216 C211 1.501 . S
C216 H217 0.961 . S
C216 H218 0.961 . S
C216 H219 0.960 . S
H217 C216 0.961 . S
H218 C216 0.961 . S
H219 C216 0.960 . S
C220 N221 1.342 . S
C220 C224 1.401 . S
C220 C225 1.499 . S
N221 Co204 1.989 . S
N221 C220 1.342 . S
N221 N222 1.388 . S
N222 Co205 1.993 . S
N222 N221 1.388 . S
N222 C223 1.346 . S
C223 N222 1.346 . S
C223 C224 1.396 . S
C223 C233 1.510 . S
C224 C220 1.401 . S
C224 C223 1.396 . S
C225 C220 1.499 . S
C225 H226 0.959 . S
C225 H227 0.960 . S
C225 H228 0.961 . S
H226 C225 0.959 . S
H227 C225 0.960 . S
H228 C225 0.961 . S
O229 Co204 1.967 . S
O229 C237 1.258 . S
O230 Co205 1.941 . S
O230 C237 1.266 . S
H231 C233 0.959 . S
H232 C233 0.961 . S
C233 C223 1.510 . S
C233 H231 0.959 . S
C233 H232 0.961 . S
C233 H234 0.960 . S
H234 C233 0.960 . S
H235 N215 0.862 . S
O236 Co204 1.920 . S
O236 C209 1.289 . S
C237 O229 1.258 . S
C237 O230 1.266 . S
Co238 O241 1.970 . S
Co238 N255 1.989 . S
Co238 O263 1.967 . S
Co238 O270 1.920 . S
Co239 O242 1.966 . S
Co239 N248 2.022 . S
Co239 N256 1.993 . S
Co239 O264 1.941 . S
C240 O241 1.258 . S
C240 O242 1.263 . S
O241 Co238 1.970 . S
O241 C240 1.258 . S
O242 Co239 1.966 . S
O242 C240 1.263 . S
C243 O244 1.235 . S
C243 O270 1.289 . S
O244 C243 1.235 . S
C245 C247 1.400 . S
C245 N248 1.351 . S
C245 C250 1.501 . S
C246 C247 1.387 . S
C246 N249 1.341 . S
C247 C245 1.400 . S
C247 C246 1.387 . S
N248 Co239 2.022 . S
N248 C245 1.351 . S
N248 N249 1.365 . S
N249 C246 1.341 . S
N249 N248 1.365 . S
N249 H269 0.862 . S
C250 C245 1.501 . S
C250 H251 0.961 . S
C250 H252 0.961 . S
C250 H253 0.960 . S
H251 C250 0.961 . S
H252 C250 0.961 . S
H253 C250 0.960 . S
C254 N255 1.342 . S
C254 C258 1.401 . S
C254 C259 1.499 . S
N255 Co238 1.989 . S
N255 C254 1.342 . S
N255 N256 1.388 . S
N256 Co239 1.993 . S
N256 N255 1.388 . S
N256 C257 1.346 . S
C257 N256 1.346 . S
C257 C258 1.396 . S
C257 C267 1.510 . S
C258 C254 1.401 . S
C258 C257 1.396 . S
C259 C254 1.499 . S
C259 H260 0.959 . S
C259 H261 0.960 . S
C259 H262 0.961 . S
H260 C259 0.959 . S
H261 C259 0.960 . S
H262 C259 0.961 . S
O263 Co238 1.967 . S
O263 C271 1.258 . S
O264 Co239 1.941 . S
O264 C271 1.266 . S
H265 C267 0.959 . S
H266 C267 0.961 . S
C267 C257 1.510 . S
C267 H265 0.959 . S
C267 H266 0.961 . S
C267 H268 0.960 . S
H268 C267 0.960 . S
H269 N249 0.862 . S
O270 Co238 1.920 . S
O270 C243 1.289 . S
C271 O263 1.258 . S
C271 O264 1.266 . S
Co272 O275 1.970 . S
Co272 N289 1.989 . S
Co272 O297 1.967 . S
Co272 O304 1.920 . S
Co273 O276 1.966 . S
Co273 N282 2.022 . S
Co273 N290 1.993 . S
Co273 O298 1.941 . S
C274 O275 1.258 . S
C274 O276 1.263 . S
O275 Co272 1.970 . S
O275 C274 1.258 . S
O276 Co273 1.966 . S
O276 C274 1.263 . S
C277 O278 1.235 . S
C277 O304 1.289 . S
O278 C277 1.235 . S
C279 C281 1.400 . S
C279 N282 1.351 . S
C279 C284 1.501 . S
C280 C281 1.387 . S
C280 N283 1.341 . S
C281 C279 1.400 . S
C281 C280 1.387 . S
N282 Co273 2.022 . S
N282 C279 1.351 . S
N282 N283 1.365 . S
N283 C280 1.341 . S
N283 N282 1.365 . S
N283 H303 0.862 . S
C284 C279 1.501 . S
C284 H285 0.961 . S
C284 H286 0.961 . S
C284 H287 0.960 . S
H285 C284 0.961 . S
H286 C284 0.961 . S
H287 C284 0.960 . S
C288 N289 1.342 . S
C288 C292 1.401 . S
C288 C293 1.499 . S
N289 Co272 1.989 . S
N289 C288 1.342 . S
N289 N290 1.388 . S
N290 Co273 1.993 . S
N290 N289 1.388 . S
N290 C291 1.346 . S
C291 N290 1.346 . S
C291 C292 1.396 . S
C291 C301 1.510 . S
C292 C288 1.401 . S
C292 C291 1.396 . S
C293 C288 1.499 . S
C293 H294 0.959 . S
C293 H295 0.960 . S
C293 H296 0.961 . S
H294 C293 0.959 . S
H295 C293 0.960 . S
H296 C293 0.961 . S
O297 Co272 1.967 . S
O297 C305 1.258 . S
O298 Co273 1.941 . S
O298 C305 1.266 . S
H299 C301 0.959 . S
H300 C301 0.961 . S
C301 C291 1.510 . S
C301 H299 0.959 . S
C301 H300 0.961 . S
C301 H302 0.960 . S
H302 C301 0.960 . S
H303 N283 0.862 . S
O304 Co272 1.920 . S
O304 C277 1.289 . S
C305 O297 1.258 . S
C305 O298 1.266 . S
Co306 O309 1.970 . S
Co306 N323 1.989 . S
Co306 O331 1.967 . S
Co306 O338 1.920 . S
Co307 O310 1.966 . S
Co307 N316 2.022 . S
Co307 N324 1.993 . S
Co307 O332 1.941 . S
C308 O309 1.258 . S
C308 O310 1.263 . S
O309 Co306 1.970 . S
O309 C308 1.258 . S
O310 Co307 1.966 . S
O310 C308 1.263 . S
C311 O312 1.235 . S
C311 O338 1.289 . S
O312 C311 1.235 . S
C313 C315 1.400 . S
C313 N316 1.351 . S
C313 C318 1.501 . S
C314 C315 1.387 . S
C314 N317 1.341 . S
C315 C313 1.400 . S
C315 C314 1.387 . S
N316 Co307 2.022 . S
N316 C313 1.351 . S
N316 N317 1.365 . S
N317 C314 1.341 . S
N317 N316 1.365 . S
N317 H337 0.862 . S
C318 C313 1.501 . S
C318 H319 0.961 . S
C318 H320 0.961 . S
C318 H321 0.960 . S
H319 C318 0.961 . S
H320 C318 0.961 . S
H321 C318 0.960 . S
C322 N323 1.342 . S
C322 C326 1.401 . S
C322 C327 1.499 . S
N323 Co306 1.989 . S
N323 C322 1.342 . S
N323 N324 1.388 . S
N324 Co307 1.993 . S
N324 N323 1.388 . S
N324 C325 1.346 . S
C325 N324 1.346 . S
C325 C326 1.396 . S
C325 C335 1.510 . S
C326 C322 1.401 . S
C326 C325 1.396 . S
C327 C322 1.499 . S
C327 H328 0.959 . S
C327 H329 0.960 . S
C327 H330 0.961 . S
H328 C327 0.959 . S
H329 C327 0.960 . S
H330 C327 0.961 . S
O331 Co306 1.967 . S
O331 C339 1.258 . S
O332 Co307 1.941 . S
O332 C339 1.266 . S
H333 C335 0.959 . S
H334 C335 0.961 . S
C335 C325 1.510 . S
C335 H333 0.959 . S
C335 H334 0.961 . S
C335 H336 0.960 . S
H336 C335 0.960 . S
H337 N317 0.862 . S
O338 Co306 1.920 . S
O338 C311 1.289 . S
C339 O331 1.258 . S
C339 O332 1.266 . S
Co340 O343 1.970 . S
Co340 N357 1.989 . S
Co340 O365 1.967 . S
Co340 O372 1.920 . S
Co341 O344 1.966 . S
Co341 N350 2.022 . S
Co341 N358 1.993 . S
Co341 O366 1.941 . S
C342 O343 1.258 . S
C342 O344 1.263 . S
O343 Co340 1.970 . S
O343 C342 1.258 . S
O344 Co341 1.966 . S
O344 C342 1.263 . S
C345 O346 1.235 . S
C345 O372 1.289 . S
O346 C345 1.235 . S
C347 C349 1.400 . S
C347 N350 1.351 . S
C347 C352 1.501 . S
C348 C349 1.387 . S
C348 N351 1.341 . S
C349 C347 1.400 . S
C349 C348 1.387 . S
N350 Co341 2.022 . S
N350 C347 1.351 . S
N350 N351 1.365 . S
N351 C348 1.341 . S
N351 N350 1.365 . S
N351 H371 0.862 . S
C352 C347 1.501 . S
C352 H353 0.961 . S
C352 H354 0.961 . S
C352 H355 0.960 . S
H353 C352 0.961 . S
H354 C352 0.961 . S
H355 C352 0.960 . S
C356 N357 1.342 . S
C356 C360 1.401 . S
C356 C361 1.499 . S
N357 Co340 1.989 . S
N357 C356 1.342 . S
N357 N358 1.388 . S
N358 Co341 1.993 . S
N358 N357 1.388 . S
N358 C359 1.346 . S
C359 N358 1.346 . S
C359 C360 1.396 . S
C359 C369 1.510 . S
C360 C356 1.401 . S
C360 C359 1.396 . S
C361 C356 1.499 . S
C361 H362 0.959 . S
C361 H363 0.960 . S
C361 H364 0.961 . S
H362 C361 0.959 . S
H363 C361 0.960 . S
H364 C361 0.961 . S
O365 Co340 1.967 . S
O365 C373 1.258 . S
O366 Co341 1.941 . S
O366 C373 1.266 . S
H367 C369 0.959 . S
H368 C369 0.961 . S
C369 C359 1.510 . S
C369 H367 0.959 . S
C369 H368 0.961 . S
C369 H370 0.960 . S
H370 C369 0.960 . S
H371 N351 0.862 . S
O372 Co340 1.920 . S
O372 C345 1.289 . S
C373 O365 1.258 . S
C373 O366 1.266 . S
Co374 O377 1.970 . S
Co374 N391 1.989 . S
Co374 O399 1.967 . S
Co374 O406 1.920 . S
Co375 O378 1.966 . S
Co375 N384 2.022 . S
Co375 N392 1.993 . S
Co375 O400 1.941 . S
C376 O377 1.258 . S
C376 O378 1.263 . S
O377 Co374 1.970 . S
O377 C376 1.258 . S
O378 Co375 1.966 . S
O378 C376 1.263 . S
C379 O380 1.235 . S
C379 O406 1.289 . S
O380 C379 1.235 . S
C381 C383 1.400 . S
C381 N384 1.351 . S
C381 C386 1.501 . S
C382 C383 1.387 . S
C382 N385 1.341 . S
C383 C381 1.400 . S
C383 C382 1.387 . S
N384 Co375 2.022 . S
N384 C381 1.351 . S
N384 N385 1.365 . S
N385 C382 1.341 . S
N385 N384 1.365 . S
N385 H405 0.862 . S
C386 C381 1.501 . S
C386 H387 0.961 . S
C386 H388 0.961 . S
C386 H389 0.960 . S
H387 C386 0.961 . S
H388 C386 0.961 . S
H389 C386 0.960 . S
C390 N391 1.342 . S
C390 C394 1.401 . S
C390 C395 1.499 . S
N391 Co374 1.989 . S
N391 C390 1.342 . S
N391 N392 1.388 . S
N392 Co375 1.993 . S
N392 N391 1.388 . S
N392 C393 1.346 . S
C393 N392 1.346 . S
C393 C394 1.396 . S
C393 C403 1.510 . S
C394 C390 1.401 . S
C394 C393 1.396 . S
C395 C390 1.499 . S
C395 H396 0.959 . S
C395 H397 0.960 . S
C395 H398 0.961 . S
H396 C395 0.959 . S
H397 C395 0.960 . S
H398 C395 0.961 . S
O399 Co374 1.967 . S
O399 C407 1.258 . S
O400 Co375 1.941 . S
O400 C407 1.266 . S
H401 C403 0.959 . S
H402 C403 0.961 . S
C403 C393 1.510 . S
C403 H401 0.959 . S
C403 H402 0.961 . S
C403 H404 0.960 . S
H404 C403 0.960 . S
H405 N385 0.862 . S
O406 Co374 1.920 . S
O406 C379 1.289 . S
C407 O399 1.258 . S
C407 O400 1.266 . S
Co408 O411 1.970 . S
Co408 N425 1.989 . S
Co408 O433 1.967 . S
Co408 O440 1.920 . S
Co409 O412 1.966 . S
Co409 N418 2.022 . S
Co409 N426 1.993 . S
Co409 O434 1.941 . S
C410 O411 1.258 . S
C410 O412 1.263 . S
O411 Co408 1.970 . S
O411 C410 1.258 . S
O412 Co409 1.966 . S
O412 C410 1.263 . S
C413 O414 1.235 . S
C413 O440 1.289 . S
O414 C413 1.235 . S
C415 C417 1.400 . S
C415 N418 1.351 . S
C415 C420 1.501 . S
C416 C417 1.387 . S
C416 N419 1.341 . S
C417 C415 1.400 . S
C417 C416 1.387 . S
N418 Co409 2.022 . S
N418 C415 1.351 . S
N418 N419 1.365 . S
N419 C416 1.341 . S
N419 N418 1.365 . S
N419 H439 0.862 . S
C420 C415 1.501 . S
C420 H421 0.961 . S
C420 H422 0.961 . S
C420 H423 0.960 . S
H421 C420 0.961 . S
H422 C420 0.961 . S
H423 C420 0.960 . S
C424 N425 1.342 . S
C424 C428 1.401 . S
C424 C429 1.499 . S
N425 Co408 1.989 . S
N425 C424 1.342 . S
N425 N426 1.388 . S
N426 Co409 1.993 . S
N426 N425 1.388 . S
N426 C427 1.346 . S
C427 N426 1.346 . S
C427 C428 1.396 . S
C427 C437 1.510 . S
C428 C424 1.401 . S
C428 C427 1.396 . S
C429 C424 1.499 . S
C429 H430 0.959 . S
C429 H431 0.960 . S
C429 H432 0.961 . S
H430 C429 0.959 . S
H431 C429 0.960 . S
H432 C429 0.961 . S
O433 Co408 1.967 . S
O433 C441 1.258 . S
O434 Co409 1.941 . S
O434 C441 1.266 . S
H435 C437 0.959 . S
H436 C437 0.961 . S
C437 C427 1.510 . S
C437 H435 0.959 . S
C437 H436 0.961 . S
C437 H438 0.960 . S
H438 C437 0.960 . S
H439 N419 0.862 . S
O440 Co408 1.920 . S
O440 C413 1.289 . S
C441 O433 1.258 . S
C441 O434 1.266 . S
Co442 O445 1.970 . S
Co442 N459 1.989 . S
Co442 O467 1.967 . S
Co442 O474 1.920 . S
Co443 O446 1.966 . S
Co443 N452 2.022 . S
Co443 N460 1.993 . S
Co443 O468 1.941 . S
C444 O445 1.258 . S
C444 O446 1.263 . S
O445 Co442 1.970 . S
O445 C444 1.258 . S
O446 Co443 1.966 . S
O446 C444 1.263 . S
C447 O448 1.235 . S
C447 O474 1.289 . S
O448 C447 1.235 . S
C449 C451 1.400 . S
C449 N452 1.351 . S
C449 C454 1.501 . S
C450 C451 1.387 . S
C450 N453 1.341 . S
C451 C449 1.400 . S
C451 C450 1.387 . S
N452 Co443 2.022 . S
N452 C449 1.351 . S
N452 N453 1.365 . S
N453 C450 1.341 . S
N453 N452 1.365 . S
N453 H473 0.862 . S
C454 C449 1.501 . S
C454 H455 0.961 . S
C454 H456 0.961 . S
C454 H457 0.960 . S
H455 C454 0.961 . S
H456 C454 0.961 . S
H457 C454 0.960 . S
C458 N459 1.342 . S
C458 C462 1.401 . S
C458 C463 1.499 . S
N459 Co442 1.989 . S
N459 C458 1.342 . S
N459 N460 1.388 . S
N460 Co443 1.993 . S
N460 N459 1.388 . S
N460 C461 1.346 . S
C461 N460 1.346 . S
C461 C462 1.396 . S
C461 C471 1.510 . S
C462 C458 1.401 . S
C462 C461 1.396 . S
C463 C458 1.499 . S
C463 H464 0.959 . S
C463 H465 0.960 . S
C463 H466 0.961 . S
H464 C463 0.959 . S
H465 C463 0.960 . S
H466 C463 0.961 . S
O467 Co442 1.967 . S
O467 C475 1.258 . S
O468 Co443 1.941 . S
O468 C475 1.266 . S
H469 C471 0.959 . S
H470 C471 0.961 . S
C471 C461 1.510 . S
C471 H469 0.959 . S
C471 H470 0.961 . S
C471 H472 0.960 . S
H472 C471 0.960 . S
H473 N453 0.862 . S
O474 Co442 1.920 . S
O474 C447 1.289 . S
C475 O467 1.258 . S
C475 O468 1.266 . S
Co476 O479 1.970 . S
Co476 N493 1.989 . S
Co476 O501 1.967 . S
Co476 O508 1.920 . S
Co477 O480 1.966 . S
Co477 N486 2.022 . S
Co477 N494 1.993 . S
Co477 O502 1.941 . S
C478 O479 1.258 . S
C478 O480 1.263 . S
O479 Co476 1.970 . S
O479 C478 1.258 . S
O480 Co477 1.966 . S
O480 C478 1.263 . S
C481 O482 1.235 . S
C481 O508 1.289 . S
O482 C481 1.235 . S
C483 C485 1.400 . S
C483 N486 1.351 . S
C483 C488 1.501 . S
C484 C485 1.387 . S
C484 N487 1.341 . S
C485 C483 1.400 . S
C485 C484 1.387 . S
N486 Co477 2.022 . S
N486 C483 1.351 . S
N486 N487 1.365 . S
N487 C484 1.341 . S
N487 N486 1.365 . S
N487 H507 0.862 . S
C488 C483 1.501 . S
C488 H489 0.961 . S
C488 H490 0.961 . S
C488 H491 0.960 . S
H489 C488 0.961 . S
H490 C488 0.961 . S
H491 C488 0.960 . S
C492 N493 1.342 . S
C492 C496 1.401 . S
C492 C497 1.499 . S
N493 Co476 1.989 . S
N493 C492 1.342 . S
N493 N494 1.388 . S
N494 Co477 1.993 . S
N494 N493 1.388 . S
N494 C495 1.346 . S
C495 N494 1.346 . S
C495 C496 1.396 . S
C495 C505 1.510 . S
C496 C492 1.401 . S
C496 C495 1.396 . S
C497 C492 1.499 . S
C497 H498 0.959 . S
C497 H499 0.960 . S
C497 H500 0.961 . S
H498 C497 0.959 . S
H499 C497 0.960 . S
H500 C497 0.961 . S
O501 Co476 1.967 . S
O501 C509 1.258 . S
O502 Co477 1.941 . S
O502 C509 1.266 . S
H503 C505 0.959 . S
H504 C505 0.961 . S
C505 C495 1.510 . S
C505 H503 0.959 . S
C505 H504 0.961 . S
C505 H506 0.960 . S
H506 C505 0.960 . S
H507 N487 0.862 . S
O508 Co476 1.920 . S
O508 C481 1.289 . S
C509 O501 1.258 . S
C509 O502 1.266 . S
Co510 O513 1.970 . S
Co510 N527 1.989 . S
Co510 O535 1.967 . S
Co510 O542 1.920 . S
Co511 O514 1.966 . S
Co511 N520 2.022 . S
Co511 N528 1.993 . S
Co511 O536 1.941 . S
C512 O513 1.258 . S
C512 O514 1.263 . S
O513 Co510 1.970 . S
O513 C512 1.258 . S
O514 Co511 1.966 . S
O514 C512 1.263 . S
C515 O516 1.235 . S
C515 O542 1.289 . S
O516 C515 1.235 . S
C517 C519 1.400 . S
C517 N520 1.351 . S
C517 C522 1.501 . S
C518 C519 1.387 . S
C518 N521 1.341 . S
C519 C517 1.400 . S
C519 C518 1.387 . S
N520 Co511 2.022 . S
N520 C517 1.351 . S
N520 N521 1.365 . S
N521 C518 1.341 . S
N521 N520 1.365 . S
N521 H541 0.862 . S
C522 C517 1.501 . S
C522 H523 0.961 . S
C522 H524 0.961 . S
C522 H525 0.960 . S
H523 C522 0.961 . S
H524 C522 0.961 . S
H525 C522 0.960 . S
C526 N527 1.342 . S
C526 C530 1.401 . S
C526 C531 1.499 . S
N527 Co510 1.989 . S
N527 C526 1.342 . S
N527 N528 1.388 . S
N528 Co511 1.993 . S
N528 N527 1.388 . S
N528 C529 1.346 . S
C529 N528 1.346 . S
C529 C530 1.396 . S
C529 C539 1.510 . S
C530 C526 1.401 . S
C530 C529 1.396 . S
C531 C526 1.499 . S
C531 H532 0.959 . S
C531 H533 0.960 . S
C531 H534 0.961 . S
H532 C531 0.959 . S
H533 C531 0.960 . S
H534 C531 0.961 . S
O535 Co510 1.967 . S
O535 C543 1.258 . S
O536 Co511 1.941 . S
O536 C543 1.266 . S
H537 C539 0.959 . S
H538 C539 0.961 . S
C539 C529 1.510 . S
C539 H537 0.959 . S
C539 H538 0.961 . S
C539 H540 0.960 . S
H540 C539 0.960 . S
H541 N521 0.862 . S
O542 Co510 1.920 . S
O542 C515 1.289 . S
C543 O535 1.258 . S
C543 O536 1.266 . S
Co544 O547 1.970 . S
Co544 N561 1.989 . S
Co544 O569 1.967 . S
Co544 O576 1.920 . S
Co545 O548 1.966 . S
Co545 N554 2.022 . S
Co545 N562 1.993 . S
Co545 O570 1.941 . S
C546 O547 1.258 . S
C546 O548 1.263 . S
O547 Co544 1.970 . S
O547 C546 1.258 . S
O548 Co545 1.966 . S
O548 C546 1.263 . S
C549 O550 1.235 . S
C549 O576 1.289 . S
O550 C549 1.235 . S
C551 C553 1.400 . S
C551 N554 1.351 . S
C551 C556 1.501 . S
C552 C553 1.387 . S
C552 N555 1.341 . S
C553 C551 1.400 . S
C553 C552 1.387 . S
N554 Co545 2.022 . S
N554 C551 1.351 . S
N554 N555 1.365 . S
N555 C552 1.341 . S
N555 N554 1.365 . S
N555 H575 0.862 . S
C556 C551 1.501 . S
C556 H557 0.961 . S
C556 H558 0.961 . S
C556 H559 0.960 . S
H557 C556 0.961 . S
H558 C556 0.961 . S
H559 C556 0.960 . S
C560 N561 1.342 . S
C560 C564 1.401 . S
C560 C565 1.499 . S
N561 Co544 1.989 . S
N561 C560 1.342 . S
N561 N562 1.388 . S
N562 Co545 1.993 . S
N562 N561 1.388 . S
N562 C563 1.346 . S
C563 N562 1.346 . S
C563 C564 1.396 . S
C563 C573 1.510 . S
C564 C560 1.401 . S
C564 C563 1.396 . S
C565 C560 1.499 . S
C565 H566 0.959 . S
C565 H567 0.960 . S
C565 H568 0.961 . S
H566 C565 0.959 . S
H567 C565 0.960 . S
H568 C565 0.961 . S
O569 Co544 1.967 . S
O569 C577 1.258 . S
O570 Co545 1.941 . S
O570 C577 1.266 . S
H571 C573 0.959 . S
H572 C573 0.961 . S
C573 C563 1.510 . S
C573 H571 0.959 . S
C573 H572 0.961 . S
C573 H574 0.960 . S
H574 C573 0.960 . S
H575 N555 0.862 . S
O576 Co544 1.920 . S
O576 C549 1.289 . S
C577 O569 1.258 . S
C577 O570 1.266 . S
Co578 O581 1.970 . S
Co578 N595 1.989 . S
Co578 O603 1.967 . S
Co578 O610 1.920 . S
Co579 O582 1.966 . S
Co579 N588 2.022 . S
Co579 N596 1.993 . S
Co579 O604 1.941 . S
C580 O581 1.258 . S
C580 O582 1.263 . S
O581 Co578 1.970 . S
O581 C580 1.258 . S
O582 Co579 1.966 . S
O582 C580 1.263 . S
C583 O584 1.235 . S
C583 O610 1.289 . S
O584 C583 1.235 . S
C585 C587 1.400 . S
C585 N588 1.351 . S
C585 C590 1.501 . S
C586 C587 1.387 . S
C586 N589 1.341 . S
C587 C585 1.400 . S
C587 C586 1.387 . S
N588 Co579 2.022 . S
N588 C585 1.351 . S
N588 N589 1.365 . S
N589 C586 1.341 . S
N589 N588 1.365 . S
N589 H609 0.862 . S
C590 C585 1.501 . S
C590 H591 0.961 . S
C590 H592 0.961 . S
C590 H593 0.960 . S
H591 C590 0.961 . S
H592 C590 0.961 . S
H593 C590 0.960 . S
C594 N595 1.342 . S
C594 C598 1.401 . S
C594 C599 1.499 . S
N595 Co578 1.989 . S
N595 C594 1.342 . S
N595 N596 1.388 . S
N596 Co579 1.993 . S
N596 N595 1.388 . S
N596 C597 1.346 . S
C597 N596 1.346 . S
C597 C598 1.396 . S
C597 C607 1.510 . S
C598 C594 1.401 . S
C598 C597 1.396 . S
C599 C594 1.499 . S
C599 H600 0.959 . S
C599 H601 0.960 . S
C599 H602 0.961 . S
H600 C599 0.959 . S
H601 C599 0.960 . S
H602 C599 0.961 . S
O603 Co578 1.967 . S
O603 C611 1.258 . S
O604 Co579 1.941 . S
O604 C611 1.266 . S
H605 C607 0.959 . S
H606 C607 0.961 . S
C607 C597 1.510 . S
C607 H605 0.959 . S
C607 H606 0.961 . S
C607 H608 0.960 . S
H608 C607 0.960 . S
H609 N589 0.862 . S
O610 Co578 1.920 . S
O610 C583 1.289 . S
C611 O603 1.258 . S
C611 O604 1.266 . S
Co612 O615 1.970 . S
Co612 N629 1.989 . S
Co612 O637 1.967 . S
Co612 O644 1.920 . S
Co613 O616 1.966 . S
Co613 N622 2.022 . S
Co613 N630 1.993 . S
Co613 O638 1.941 . S
C614 O615 1.258 . S
C614 O616 1.263 . S
O615 Co612 1.970 . S
O615 C614 1.258 . S
O616 Co613 1.966 . S
O616 C614 1.263 . S
C617 O618 1.235 . S
C617 O644 1.289 . S
O618 C617 1.235 . S
C619 C621 1.400 . S
C619 N622 1.351 . S
C619 C624 1.501 . S
C620 C621 1.387 . S
C620 N623 1.341 . S
C621 C619 1.400 . S
C621 C620 1.387 . S
N622 Co613 2.022 . S
N622 C619 1.351 . S
N622 N623 1.365 . S
N623 C620 1.341 . S
N623 N622 1.365 . S
N623 H643 0.862 . S
C624 C619 1.501 . S
C624 H625 0.961 . S
C624 H626 0.961 . S
C624 H627 0.960 . S
H625 C624 0.961 . S
H626 C624 0.961 . S
H627 C624 0.960 . S
C628 N629 1.342 . S
C628 C632 1.401 . S
C628 C633 1.499 . S
N629 Co612 1.989 . S
N629 C628 1.342 . S
N629 N630 1.388 . S
N630 Co613 1.993 . S
N630 N629 1.388 . S
N630 C631 1.346 . S
C631 N630 1.346 . S
C631 C632 1.396 . S
C631 C641 1.510 . S
C632 C628 1.401 . S
C632 C631 1.396 . S
C633 C628 1.499 . S
C633 H634 0.959 . S
C633 H635 0.960 . S
C633 H636 0.961 . S
H634 C633 0.959 . S
H635 C633 0.960 . S
H636 C633 0.961 . S
O637 Co612 1.967 . S
O637 C645 1.258 . S
O638 Co613 1.941 . S
O638 C645 1.266 . S
H639 C641 0.959 . S
H640 C641 0.961 . S
C641 C631 1.510 . S
C641 H639 0.959 . S
C641 H640 0.961 . S
C641 H642 0.960 . S
H642 C641 0.960 . S
H643 N623 0.862 . S
O644 Co612 1.920 . S
O644 C617 1.289 . S
C645 O637 1.258 . S
C645 O638 1.266 . S
Co646 O649 1.970 . S
Co646 N663 1.989 . S
Co646 O671 1.967 . S
Co646 O678 1.920 . S
Co647 O650 1.966 . S
Co647 N656 2.022 . S
Co647 N664 1.993 . S
Co647 O672 1.941 . S
C648 O649 1.258 . S
C648 O650 1.263 . S
O649 Co646 1.970 . S
O649 C648 1.258 . S
O650 Co647 1.966 . S
O650 C648 1.263 . S
C651 O652 1.235 . S
C651 O678 1.289 . S
O652 C651 1.235 . S
C653 C655 1.400 . S
C653 N656 1.351 . S
C653 C658 1.501 . S
C654 C655 1.387 . S
C654 N657 1.341 . S
C655 C653 1.400 . S
C655 C654 1.387 . S
N656 Co647 2.022 . S
N656 C653 1.351 . S
N656 N657 1.365 . S
N657 C654 1.341 . S
N657 N656 1.365 . S
N657 H677 0.862 . S
C658 C653 1.501 . S
C658 H659 0.961 . S
C658 H660 0.961 . S
C658 H661 0.960 . S
H659 C658 0.961 . S
H660 C658 0.961 . S
H661 C658 0.960 . S
C662 N663 1.342 . S
C662 C666 1.401 . S
C662 C667 1.499 . S
N663 Co646 1.989 . S
N663 C662 1.342 . S
N663 N664 1.388 . S
N664 Co647 1.993 . S
N664 N663 1.388 . S
N664 C665 1.346 . S
C665 N664 1.346 . S
C665 C666 1.396 . S
C665 C675 1.510 . S
C666 C662 1.401 . S
C666 C665 1.396 . S
C667 C662 1.499 . S
C667 H668 0.959 . S
C667 H669 0.960 . S
C667 H670 0.961 . S
H668 C667 0.959 . S
H669 C667 0.960 . S
H670 C667 0.961 . S
O671 Co646 1.967 . S
O671 C679 1.258 . S
O672 Co647 1.941 . S
O672 C679 1.266 . S
H673 C675 0.959 . S
H674 C675 0.961 . S
C675 C665 1.510 . S
C675 H673 0.959 . S
C675 H674 0.961 . S
C675 H676 0.960 . S
H676 C675 0.960 . S
H677 N657 0.862 . S
O678 Co646 1.920 . S
O678 C651 1.289 . S
C679 O671 1.258 . S
C679 O672 1.266 . S
Co680 O683 1.970 . S
Co680 N697 1.989 . S
Co680 O705 1.967 . S
Co680 O712 1.920 . S
Co681 O684 1.966 . S
Co681 N690 2.022 . S
Co681 N698 1.993 . S
Co681 O706 1.941 . S
C682 O683 1.258 . S
C682 O684 1.263 . S
O683 Co680 1.970 . S
O683 C682 1.258 . S
O684 Co681 1.966 . S
O684 C682 1.263 . S
C685 O686 1.235 . S
C685 O712 1.289 . S
O686 C685 1.235 . S
C687 C689 1.400 . S
C687 N690 1.351 . S
C687 C692 1.501 . S
C688 C689 1.387 . S
C688 N691 1.341 . S
C689 C687 1.400 . S
C689 C688 1.387 . S
N690 Co681 2.022 . S
N690 C687 1.351 . S
N690 N691 1.365 . S
N691 C688 1.341 . S
N691 N690 1.365 . S
N691 H711 0.862 . S
C692 C687 1.501 . S
C692 H693 0.961 . S
C692 H694 0.961 . S
C692 H695 0.960 . S
H693 C692 0.961 . S
H694 C692 0.961 . S
H695 C692 0.960 . S
C696 N697 1.342 . S
C696 C700 1.401 . S
C696 C701 1.499 . S
N697 Co680 1.989 . S
N697 C696 1.342 . S
N697 N698 1.388 . S
N698 Co681 1.993 . S
N698 N697 1.388 . S
N698 C699 1.346 . S
C699 N698 1.346 . S
C699 C700 1.396 . S
C699 C709 1.510 . S
C700 C696 1.401 . S
C700 C699 1.396 . S
C701 C696 1.499 . S
C701 H702 0.959 . S
C701 H703 0.960 . S
C701 H704 0.961 . S
H702 C701 0.959 . S
H703 C701 0.960 . S
H704 C701 0.961 . S
O705 Co680 1.967 . S
O705 C713 1.258 . S
O706 Co681 1.941 . S
O706 C713 1.266 . S
H707 C709 0.959 . S
H708 C709 0.961 . S
C709 C699 1.510 . S
C709 H707 0.959 . S
C709 H708 0.961 . S
C709 H710 0.960 . S
H710 C709 0.960 . S
H711 N691 0.862 . S
O712 Co680 1.920 . S
O712 C685 1.289 . S
C713 O705 1.258 . S
C713 O706 1.266 . S
Co714 O717 1.970 . S
Co714 N731 1.989 . S
Co714 O739 1.967 . S
Co714 O746 1.920 . S
Co715 O718 1.966 . S
Co715 N724 2.022 . S
Co715 N732 1.993 . S
Co715 O740 1.941 . S
C716 O717 1.258 . S
C716 O718 1.263 . S
O717 Co714 1.970 . S
O717 C716 1.258 . S
O718 Co715 1.966 . S
O718 C716 1.263 . S
C719 O720 1.235 . S
C719 O746 1.289 . S
O720 C719 1.235 . S
C721 C723 1.400 . S
C721 N724 1.351 . S
C721 C726 1.501 . S
C722 C723 1.387 . S
C722 N725 1.341 . S
C723 C721 1.400 . S
C723 C722 1.387 . S
N724 Co715 2.022 . S
N724 C721 1.351 . S
N724 N725 1.365 . S
N725 C722 1.341 . S
N725 N724 1.365 . S
N725 H745 0.862 . S
C726 C721 1.501 . S
C726 H727 0.961 . S
C726 H728 0.961 . S
C726 H729 0.960 . S
H727 C726 0.961 . S
H728 C726 0.961 . S
H729 C726 0.960 . S
C730 N731 1.342 . S
C730 C734 1.401 . S
C730 C735 1.499 . S
N731 Co714 1.989 . S
N731 C730 1.342 . S
N731 N732 1.388 . S
N732 Co715 1.993 . S
N732 N731 1.388 . S
N732 C733 1.346 . S
C733 N732 1.346 . S
C733 C734 1.396 . S
C733 C743 1.510 . S
C734 C730 1.401 . S
C734 C733 1.396 . S
C735 C730 1.499 . S
C735 H736 0.959 . S
C735 H737 0.960 . S
C735 H738 0.961 . S
H736 C735 0.959 . S
H737 C735 0.960 . S
H738 C735 0.961 . S
O739 Co714 1.967 . S
O739 C747 1.258 . S
O740 Co715 1.941 . S
O740 C747 1.266 . S
H741 C743 0.959 . S
H742 C743 0.961 . S
C743 C733 1.510 . S
C743 H741 0.959 . S
C743 H742 0.961 . S
C743 H744 0.960 . S
H744 C743 0.960 . S
H745 N725 0.862 . S
O746 Co714 1.920 . S
O746 C719 1.289 . S
C747 O739 1.258 . S
C747 O740 1.266 . S
Co748 O751 1.970 . S
Co748 N765 1.989 . S
Co748 O773 1.967 . S
Co748 O780 1.920 . S
Co749 O752 1.966 . S
Co749 N758 2.022 . S
Co749 N766 1.993 . S
Co749 O774 1.941 . S
C750 O751 1.258 . S
C750 O752 1.263 . S
O751 Co748 1.970 . S
O751 C750 1.258 . S
O752 Co749 1.966 . S
O752 C750 1.263 . S
C753 O754 1.235 . S
C753 O780 1.289 . S
O754 C753 1.235 . S
C755 C757 1.400 . S
C755 N758 1.351 . S
C755 C760 1.501 . S
C756 C757 1.387 . S
C756 N759 1.341 . S
C757 C755 1.400 . S
C757 C756 1.387 . S
N758 Co749 2.022 . S
N758 C755 1.351 . S
N758 N759 1.365 . S
N759 C756 1.341 . S
N759 N758 1.365 . S
N759 H779 0.862 . S
C760 C755 1.501 . S
C760 H761 0.961 . S
C760 H762 0.961 . S
C760 H763 0.960 . S
H761 C760 0.961 . S
H762 C760 0.961 . S
H763 C760 0.960 . S
C764 N765 1.342 . S
C764 C768 1.401 . S
C764 C769 1.499 . S
N765 Co748 1.989 . S
N765 C764 1.342 . S
N765 N766 1.388 . S
N766 Co749 1.993 . S
N766 N765 1.388 . S
N766 C767 1.346 . S
C767 N766 1.346 . S
C767 C768 1.396 . S
C767 C777 1.510 . S
C768 C764 1.401 . S
C768 C767 1.396 . S
C769 C764 1.499 . S
C769 H770 0.959 . S
C769 H771 0.960 . S
C769 H772 0.961 . S
H770 C769 0.959 . S
H771 C769 0.960 . S
H772 C769 0.961 . S
O773 Co748 1.967 . S
O773 C781 1.258 . S
O774 Co749 1.941 . S
O774 C781 1.266 . S
H775 C777 0.959 . S
H776 C777 0.961 . S
C777 C767 1.510 . S
C777 H775 0.959 . S
C777 H776 0.961 . S
C777 H778 0.960 . S
H778 C777 0.960 . S
H779 N759 0.862 . S
O780 Co748 1.920 . S
O780 C753 1.289 . S
C781 O773 1.258 . S
C781 O774 1.266 . S
Co782 O785 1.970 . S
Co782 N799 1.989 . S
Co782 O807 1.967 . S
Co782 O814 1.920 . S
Co783 O786 1.966 . S
Co783 N792 2.022 . S
Co783 N800 1.993 . S
Co783 O808 1.941 . S
C784 O785 1.258 . S
C784 O786 1.263 . S
O785 Co782 1.970 . S
O785 C784 1.258 . S
O786 Co783 1.966 . S
O786 C784 1.263 . S
C787 O788 1.235 . S
C787 O814 1.289 . S
O788 C787 1.235 . S
C789 C791 1.400 . S
C789 N792 1.351 . S
C789 C794 1.501 . S
C790 C791 1.387 . S
C790 N793 1.341 . S
C791 C789 1.400 . S
C791 C790 1.387 . S
N792 Co783 2.022 . S
N792 C789 1.351 . S
N792 N793 1.365 . S
N793 C790 1.341 . S
N793 N792 1.365 . S
N793 H813 0.862 . S
C794 C789 1.501 . S
C794 H795 0.961 . S
C794 H796 0.961 . S
C794 H797 0.960 . S
H795 C794 0.961 . S
H796 C794 0.961 . S
H797 C794 0.960 . S
C798 N799 1.342 . S
C798 C802 1.401 . S
C798 C803 1.499 . S
N799 Co782 1.989 . S
N799 C798 1.342 . S
N799 N800 1.388 . S
N800 Co783 1.993 . S
N800 N799 1.388 . S
N800 C801 1.346 . S
C801 N800 1.346 . S
C801 C802 1.396 . S
C801 C811 1.510 . S
C802 C798 1.401 . S
C802 C801 1.396 . S
C803 C798 1.499 . S
C803 H804 0.959 . S
C803 H805 0.960 . S
C803 H806 0.961 . S
H804 C803 0.959 . S
H805 C803 0.960 . S
H806 C803 0.961 . S
O807 Co782 1.967 . S
O807 C815 1.258 . S
O808 Co783 1.941 . S
O808 C815 1.266 . S
H809 C811 0.959 . S
H810 C811 0.961 . S
C811 C801 1.510 . S
C811 H809 0.959 . S
C811 H810 0.961 . S
C811 H812 0.960 . S
H812 C811 0.960 . S
H813 N793 0.862 . S
O814 Co782 1.920 . S
O814 C787 1.289 . S
C815 O807 1.258 . S
C815 O808 1.266 . S
C101 C33 2.901 . S
C67 C135 2.901 . S
C169 C237 2.901 . S
C271 C203 2.901 . S
C441 C305 2.901 . S
C339 C475 2.901 . S
C509 C373 2.901 . S
C543 C407 2.901 . S
C577 C679 2.901 . S
C611 C747 2.901 . S
C645 C781 2.901 . S
C815 C713 2.901 . S
C138 C2 2.633 . S
C172 C36 2.633 . S
C206 C70 2.633 . S
C240 C104 2.633 . S
C274 C478 2.633 . S
C512 C308 2.633 . S
C410 C342 2.633 . S
C444 C376 2.633 . S
C716 C546 2.633 . S
C580 C648 2.633 . S
C614 C682 2.633 . S
C784 C750 2.633 . S
C243 C39 2.324 . S
C73 C141 2.324 . S
C175 C107 2.324 . S
C209 C5 2.324 . S
C753 C685 2.324 . S
C549 C583 2.324 . S
C617 C787 2.324 . S
C719 C651 2.324 . S
C447 C515 2.324 . S
C311 C379 2.324 . S
C345 C277 2.324 . S
C413 C481 2.324 . S
C768 C20 3.222 1_565 S
C564 C54 3.222 1_455 S
C802 C88 3.222 . S
C734 C122 3.222 . S
C156 C632 3.222 . S
C190 C666 3.222 . S
C224 C700 3.222 1_545 S
C598 C258 3.222 1_455 S
C292 C462 3.222 1_554 S
C496 C326 3.222 . S
C530 C360 3.222 1_556 S
C428 C394 3.222 . S
C247 C485 3.319 1_565 S
C145 C519 3.319 1_455 S
C417 C179 3.319 . S
C451 C213 3.319 . S
C43 C349 3.319 . S
C383 C77 3.319 . S
C281 C111 3.319 1_545 S
C315 C9 3.319 1_655 S
C723 C689 3.319 1_554 S
C757 C587 3.319 . S
C621 C553 3.319 1_556 S
C791 C655 3.319 . S
