# Generated by pormake.
# Topology umd, (4)-cn, num edge types: 1
# Building blocks:
#     Node 0, Type 0, BuildingBlock: ICAMEG_clean_sbu_1, # of connection points: 4
#     Node 1, Type 0, BuildingBlock: ICAMEG_clean_sbu_1, # of connection points: 4
#     Node 2, Type 0, BuildingBlock: ICAMEG_clean_sbu_1, # of connection points: 4
#     Node 3, Type 0, BuildingBlock: ICAMEG_clean_sbu_1, # of connection points: 4
#     Node 4, Type 0, BuildingBlock: ICAMEG_clean_sbu_1, # of connection points: 4
#     Node 5, Type 0, BuildingBlock: ICAMEG_clean_sbu_1, # of connection points: 4
#     Node 6, Type 0, BuildingBlock: ICAMEG_clean_sbu_1, # of connection points: 4
#     Node 7, Type 0, BuildingBlock: ICAMEG_clean_sbu_1, # of connection points: 4
#     Node 8, Type 0, BuildingBlock: ICAMEG_clean_sbu_1, # of connection points: 4
#     Node 9, Type 0, BuildingBlock: ICAMEG_clean_sbu_1, # of connection points: 4
#     Node 10, Type 0, BuildingBlock: ICAMEG_clean_sbu_1, # of connection points: 4
#     Node 11, Type 0, BuildingBlock: ICAMEG_clean_sbu_1, # of connection points: 4
#     Node 12, Type 0, BuildingBlock: ICAMEG_clean_sbu_1, # of connection points: 4
#     Node 13, Type 0, BuildingBlock: ICAMEG_clean_sbu_1, # of connection points: 4
#     Node 14, Type 0, BuildingBlock: ICAMEG_clean_sbu_1, # of connection points: 4
#     Node 15, Type 0, BuildingBlock: ICAMEG_clean_sbu_1, # of connection points: 4
#     Edge 16, Type (0, 0), BuildingBlock: KIFKEQ_clean_linker_1, # of connection points: 2
#     Edge 17, Type (0, 0), BuildingBlock: KIFKEQ_clean_linker_1, # of connection points: 2
#     Edge 18, Type (0, 0), BuildingBlock: KIFKEQ_clean_linker_1, # of connection points: 2
#     Edge 19, Type (0, 0), BuildingBlock: KIFKEQ_clean_linker_1, # of connection points: 2
#     Edge 20, Type (0, 0), BuildingBlock: KIFKEQ_clean_linker_1, # of connection points: 2
#     Edge 21, Type (0, 0), BuildingBlock: KIFKEQ_clean_linker_1, # of connection points: 2
#     Edge 22, Type (0, 0), BuildingBlock: KIFKEQ_clean_linker_1, # of connection points: 2
#     Edge 23, Type (0, 0), BuildingBlock: KIFKEQ_clean_linker_1, # of connection points: 2
#     Edge 24, Type (0, 0), BuildingBlock: KIFKEQ_clean_linker_1, # of connection points: 2
#     Edge 25, Type (0, 0), BuildingBlock: KIFKEQ_clean_linker_1, # of connection points: 2
#     Edge 26, Type (0, 0), BuildingBlock: KIFKEQ_clean_linker_1, # of connection points: 2
#     Edge 27, Type (0, 0), BuildingBlock: KIFKEQ_clean_linker_1, # of connection points: 2
#     Edge 28, Type (0, 0), BuildingBlock: KIFKEQ_clean_linker_1, # of connection points: 2
#     Edge 29, Type (0, 0), BuildingBlock: KIFKEQ_clean_linker_1, # of connection points: 2
#     Edge 30, Type (0, 0), BuildingBlock: KIFKEQ_clean_linker_1, # of connection points: 2
#     Edge 31, Type (0, 0), BuildingBlock: KIFKEQ_clean_linker_1, # of connection points: 2
#     Edge 32, Type (0, 0), BuildingBlock: KIFKEQ_clean_linker_1, # of connection points: 2
#     Edge 33, Type (0, 0), BuildingBlock: KIFKEQ_clean_linker_1, # of connection points: 2
#     Edge 34, Type (0, 0), BuildingBlock: KIFKEQ_clean_linker_1, # of connection points: 2
#     Edge 35, Type (0, 0), BuildingBlock: KIFKEQ_clean_linker_1, # of connection points: 2
#     Edge 36, Type (0, 0), BuildingBlock: KIFKEQ_clean_linker_1, # of connection points: 2
#     Edge 37, Type (0, 0), BuildingBlock: KIFKEQ_clean_linker_1, # of connection points: 2
#     Edge 38, Type (0, 0), BuildingBlock: KIFKEQ_clean_linker_1, # of connection points: 2
#     Edge 39, Type (0, 0), BuildingBlock: KIFKEQ_clean_linker_1, # of connection points: 2
#     Edge 40, Type (0, 0), BuildingBlock: KIFKEQ_clean_linker_1, # of connection points: 2
#     Edge 41, Type (0, 0), BuildingBlock: KIFKEQ_clean_linker_1, # of connection points: 2
#     Edge 42, Type (0, 0), BuildingBlock: KIFKEQ_clean_linker_1, # of connection points: 2
#     Edge 43, Type (0, 0), BuildingBlock: KIFKEQ_clean_linker_1, # of connection points: 2
#     Edge 44, Type (0, 0), BuildingBlock: KIFKEQ_clean_linker_1, # of connection points: 2
#     Edge 45, Type (0, 0), BuildingBlock: KIFKEQ_clean_linker_1, # of connection points: 2
#     Edge 46, Type (0, 0), BuildingBlock: KIFKEQ_clean_linker_1, # of connection points: 2
#     Edge 47, Type (0, 0), BuildingBlock: KIFKEQ_clean_linker_1, # of connection points: 2
# Relax obj value: 0.055
# Max RMSD: 0.157
# Mean RMSD: 0.157
data_MOF--net-umd--node1-ICAMEG_clean_sbu_1--edge1-KIFKEQ_clean_linker_1
_symmetry_space_group_name_H-M    P1
_symmetry_Int_Tables_number       1
_symmetry_cell_setting            triclinic
loop_
_symmetry_equiv_pos_as_xyz
'x, y, z'
_cell_length_a     42.417492
_cell_length_b     42.424862
_cell_length_c     61.942979
_cell_angle_alpha  90.001976
_cell_angle_beta   90.007494
_cell_angle_gamma 90.005184
loop_
_atom_site_label
_atom_site_type_symbol
_atom_site_fract_x
_atom_site_fract_y
_atom_site_fract_z
_atom_type_partial_charge
Co0 Co 0.18183 0.48713 0.12593 0.0
Co1 Co 0.15881 0.41333 0.14357 0.0
O2 O 0.18218 0.44123 0.12441 0.0
C3 C 0.15831 0.47231 0.0825 0.0
O4 O 0.13872 0.45306 0.09223 0.0
C5 C 0.22525 0.39438 0.14834 0.0
O6 O 0.23205 0.42451 0.14954 0.0
O7 O 0.173 0.43713 0.16941 0.0
O8 O 0.18571 0.48595 0.15817 0.0
H9 H 0.08592 0.38713 0.20493 0.0
H10 H 0.22692 0.45475 0.09679 0.0
O11 O 0.17771 0.48862 0.09358 0.0
H12 H 0.29262 0.51573 0.14749 0.0
H13 H 0.21114 0.59573 0.10015 0.0
H14 H 0.15169 0.53469 0.15431 0.0
H15 H 0.23461 0.51769 0.14985 0.0
H16 H 0.21137 0.53757 0.0993 0.0
O17 O 0.19676 0.38548 0.146 0.0
H18 H 0.11505 0.42246 0.18037 0.0
H19 H 0.15405 0.34352 0.14775 0.0
H20 H 0.151 0.5928 0.15586 0.0
H21 H 0.28485 0.45229 0.09375 0.0
H22 H 0.18089 0.62371 0.12864 0.0
H23 H 0.3181 0.48284 0.11927 0.0
O24 O 0.13502 0.48817 0.12874 0.0
H25 H 0.17338 0.35933 0.07207 0.0
H26 H 0.0965 0.38999 0.12798 0.0
H27 H 0.07809 0.3622 0.09535 0.0
H28 H 0.11666 0.34667 0.06712 0.0
H29 H 0.19074 0.38736 0.10488 0.0
H30 H 0.12553 0.30732 0.17205 0.0
H31 H 0.09108 0.32911 0.20084 0.0
O32 O 0.1207 0.44071 0.14158 0.0
C33 C 0.18192 0.46536 0.17302 0.0
C34 C 0.10077 0.37735 0.1924 0.0
C35 C 0.12304 0.33256 0.17397 0.0
N36 N 0.136 0.38505 0.16255 0.0
C37 C 0.11724 0.39723 0.17841 0.0
C38 C 0.13917 0.35316 0.16028 0.0
C39 C 0.1037 0.3448 0.19011 0.0
C40 C 0.24123 0.46837 0.10781 0.0
N41 N 0.2274 0.48646 0.12341 0.0
C42 C 0.27402 0.46677 0.10607 0.0
C43 C 0.29266 0.48389 0.12042 0.0
C44 C 0.27838 0.50232 0.13626 0.0
C45 C 0.24552 0.5033 0.13755 0.0
C46 C 0.19808 0.58252 0.11212 0.0
C47 C 0.16491 0.54799 0.14249 0.0
C48 C 0.19807 0.54961 0.1117 0.0
N49 N 0.18177 0.5328 0.12685 0.0
C50 C 0.16436 0.58088 0.14342 0.0
C51 C 0.18111 0.59821 0.12812 0.0
C52 C 0.1143 0.46875 0.13556 0.0
C53 C 0.15636 0.36589 0.08429 0.0
C54 C 0.11343 0.38332 0.11576 0.0
C55 C 0.10287 0.36755 0.09734 0.0
C56 C 0.12452 0.35883 0.08151 0.0
N57 N 0.14469 0.39013 0.11838 0.0
C58 C 0.16607 0.38164 0.10294 0.0
Co59 Co 0.51239 0.18036 0.6263 0.0
Co60 Co 0.58704 0.15927 0.64358 0.0
O61 O 0.55831 0.182 0.62462 0.0
C62 C 0.52746 0.15722 0.58287 0.0
O63 O 0.54744 0.13824 0.59248 0.0
C64 C 0.60449 0.22621 0.64866 0.0
O65 O 0.57427 0.23271 0.64964 0.0
O66 O 0.5629 0.17257 0.66957 0.0
O67 O 0.51369 0.1842 0.65844 0.0
H68 H 0.61548 0.08646 0.7045 0.0
H69 H 0.54324 0.22627 0.59696 0.0
O70 O 0.51074 0.17616 0.59401 0.0
H71 H 0.48109 0.29035 0.64794 0.0
H72 H 0.40289 0.20708 0.60093 0.0
H73 H 0.46576 0.14859 0.65459 0.0
H74 H 0.48076 0.23231 0.65038 0.0
H75 H 0.46103 0.20882 0.59994 0.0
O76 O 0.61378 0.19788 0.64626 0.0
H77 H 0.57928 0.11476 0.68006 0.0
H78 H 0.65703 0.15667 0.64778 0.0
H79 H 0.4077 0.14638 0.6563 0.0
H80 H 0.54406 0.28422 0.59385 0.0
H81 H 0.37586 0.17578 0.62932 0.0
H82 H 0.5129 0.31667 0.61951 0.0
O83 O 0.51261 0.1336 0.62925 0.0
H84 H 0.63945 0.17659 0.57182 0.0
H85 H 0.61371 0.09833 0.62796 0.0
H86 H 0.64191 0.08132 0.59514 0.0
H87 H 0.65497 0.12062 0.56679 0.0
H88 H 0.61101 0.19248 0.60481 0.0
H89 H 0.69407 0.12905 0.67197 0.0
H90 H 0.67332 0.09354 0.70052 0.0
O91 O 0.56095 0.12023 0.64119 0.0
C92 C 0.53448 0.18093 0.67318 0.0
C93 C 0.62481 0.10178 0.69207 0.0
C94 C 0.66892 0.12572 0.67384 0.0
N95 N 0.61605 0.13711 0.66241 0.0
C96 C 0.60444 0.11778 0.67815 0.0
C97 C 0.64784 0.14135 0.66022 0.0
C98 C 0.65726 0.10579 0.68985 0.0
C99 C 0.52936 0.24021 0.60804 0.0
N100 N 0.51183 0.22592 0.62375 0.0
C101 C 0.53003 0.27302 0.60626 0.0
C102 C 0.51258 0.29122 0.62069 0.0
C103 C 0.49474 0.27646 0.63665 0.0
C104 C 0.49469 0.2436 0.63798 0.0
C105 C 0.4165 0.19423 0.61281 0.0
C106 C 0.45206 0.16163 0.6429 0.0
C107 C 0.44941 0.19509 0.6123 0.0
N108 N 0.46673 0.17908 0.62733 0.0
C109 C 0.4192 0.1602 0.6439 0.0
C110 C 0.40135 0.17668 0.62875 0.0
C111 C 0.53284 0.11334 0.63556 0.0
C112 C 0.63392 0.15925 0.58407 0.0
C113 C 0.61917 0.1155 0.61564 0.0
C114 C 0.63524 0.10577 0.59713 0.0
C115 C 0.64259 0.12784 0.58124 0.0
N116 N 0.61068 0.14633 0.61827 0.0
C117 C 0.61791 0.16813 0.60281 0.0
Co118 Co 0.81849 0.51262 0.12469 0.0
Co119 Co 0.83847 0.58676 0.14317 0.0
O120 O 0.81591 0.55851 0.12382 0.0
C121 C 0.83847 0.53056 0.08115 0.0
O122 O 0.85663 0.55116 0.09088 0.0
C123 C 0.77176 0.60505 0.1484 0.0
O124 O 0.76535 0.57518 0.1518 0.0
O125 O 0.82396 0.56249 0.16874 0.0
O126 O 0.81625 0.51277 0.15702 0.0
H127 H 0.90911 0.61417 0.20552 0.0
H128 H 0.77045 0.54369 0.09715 0.0
O129 O 0.8212 0.51208 0.09228 0.0
H130 H 0.71039 0.47811 0.14843 0.0
H131 H 0.79287 0.40345 0.0982 0.0
H132 H 0.85277 0.46583 0.15141 0.0
H133 H 0.76852 0.47895 0.14944 0.0
H134 H 0.78974 0.46154 0.09823 0.0
O135 O 0.80001 0.61387 0.14493 0.0
H136 H 0.88132 0.57837 0.18055 0.0
H137 H 0.84175 0.65666 0.14751 0.0
H138 H 0.8564 0.4078 0.15209 0.0
H139 H 0.71234 0.54339 0.09548 0.0
H140 H 0.8263 0.37621 0.12534 0.0
H141 H 0.68192 0.51047 0.12129 0.0
O142 O 0.86525 0.51378 0.12634 0.0
H143 H 0.82459 0.64134 0.0718 0.0
H144 H 0.90074 0.61137 0.12836 0.0
H145 H 0.91937 0.63991 0.0961 0.0
H146 H 0.88116 0.65509 0.06755 0.0
H147 H 0.80701 0.61253 0.10422 0.0
H148 H 0.86891 0.69331 0.17222 0.0
H149 H 0.90297 0.67209 0.20143 0.0
O150 O 0.87739 0.56024 0.14163 0.0
C151 C 0.81762 0.53347 0.172 0.0
C152 C 0.89442 0.6237 0.19281 0.0
C153 C 0.87183 0.66812 0.17414 0.0
N154 N 0.86019 0.61543 0.16248 0.0
C155 C 0.87871 0.60356 0.17859 0.0
C156 C 0.85647 0.64726 0.16022 0.0
C157 C 0.89094 0.6562 0.19052 0.0
C158 C 0.75738 0.52909 0.1083 0.0
N159 N 0.77285 0.51121 0.12328 0.0
C160 C 0.72448 0.52911 0.10734 0.0
C161 C 0.70742 0.51067 0.12184 0.0
C162 C 0.72338 0.49252 0.13709 0.0
C163 C 0.75629 0.49313 0.1376 0.0
C164 C 0.80602 0.41695 0.10998 0.0
C165 C 0.8394 0.45222 0.13984 0.0
C166 C 0.80437 0.44983 0.11006 0.0
N167 N 0.82078 0.46699 0.12497 0.0
C168 C 0.84164 0.41938 0.14025 0.0
C169 C 0.82478 0.40168 0.12521 0.0
C170 C 0.88505 0.53323 0.13425 0.0
C171 C 0.84144 0.63494 0.08417 0.0
C172 C 0.88397 0.61784 0.11599 0.0
C173 C 0.89465 0.63406 0.09778 0.0
C174 C 0.8732 0.6426 0.08177 0.0
N175 N 0.85279 0.61039 0.11821 0.0
C176 C 0.83161 0.61875 0.10261 0.0
Co177 Co 0.48744 0.81684 0.62584 0.0
Co178 Co 0.41261 0.83963 0.6415 0.0
O179 O 0.44166 0.81602 0.62335 0.0
C180 C 0.47426 0.84043 0.58219 0.0
O181 O 0.45427 0.8596 0.5916 0.0
C182 C 0.394 0.77318 0.64785 0.0
O183 O 0.42381 0.76677 0.65147 0.0
O184 O 0.43576 0.82701 0.66815 0.0
O185 O 0.48469 0.8128 0.65793 0.0
H186 H 0.38259 0.91436 0.70096 0.0
H187 H 0.4566 0.77167 0.59596 0.0
O188 O 0.49039 0.82119 0.59353 0.0
H189 H 0.51613 0.70619 0.64758 0.0
H190 H 0.59742 0.7887 0.60226 0.0
H191 H 0.53346 0.84679 0.65552 0.0
H192 H 0.51739 0.76419 0.6502 0.0
H193 H 0.53933 0.78807 0.60013 0.0
O194 O 0.38534 0.80134 0.64388 0.0
H195 H 0.41942 0.88509 0.67754 0.0
H196 H 0.34253 0.84298 0.64442 0.0
H197 H 0.59146 0.84787 0.65835 0.0
H198 H 0.45487 0.71376 0.59264 0.0
H199 H 0.62384 0.81867 0.63158 0.0
H200 H 0.48473 0.68061 0.61861 0.0
O201 O 0.48808 0.86365 0.62893 0.0
H202 H 0.36265 0.8212 0.56902 0.0
H203 H 0.38741 0.90049 0.62469 0.0
H204 H 0.36065 0.91705 0.5912 0.0
H205 H 0.34809 0.87724 0.56308 0.0
H206 H 0.38965 0.80575 0.60266 0.0
H207 H 0.30486 0.8716 0.66758 0.0
H208 H 0.32486 0.90769 0.69604 0.0
O209 O 0.43926 0.87821 0.63917 0.0
C210 C 0.46371 0.81761 0.67236 0.0
C211 C 0.37359 0.89879 0.68857 0.0
C212 C 0.32996 0.87476 0.66985 0.0
N213 N 0.38313 0.86258 0.65953 0.0
C214 C 0.39433 0.88224 0.67522 0.0
C215 C 0.3514 0.85856 0.65682 0.0
C216 C 0.3412 0.89501 0.68581 0.0
C217 C 0.46987 0.75741 0.6072 0.0
N218 N 0.48722 0.77129 0.62317 0.0
C219 C 0.46871 0.72463 0.60529 0.0
C220 C 0.48544 0.70604 0.61989 0.0
C221 C 0.50305 0.72038 0.63615 0.0
C222 C 0.50363 0.75323 0.63758 0.0
C223 C 0.58357 0.80148 0.61403 0.0
C224 C 0.54739 0.83389 0.64388 0.0
C225 C 0.55068 0.80127 0.61288 0.0
N226 N 0.53305 0.81722 0.62777 0.0
C227 C 0.58022 0.83466 0.64553 0.0
C228 C 0.59838 0.81829 0.6305 0.0
C229 C 0.46785 0.88443 0.63443 0.0
C230 C 0.36797 0.83876 0.58116 0.0
C231 C 0.38215 0.88308 0.61249 0.0
C232 C 0.3669 0.89257 0.59359 0.0
C233 C 0.35984 0.87021 0.57783 0.0
N234 N 0.39011 0.85221 0.61562 0.0
C235 C 0.38316 0.83013 0.60027 0.0
Co236 Co 0.18212 0.51205 0.37571 0.0
Co237 Co 0.16072 0.58652 0.3585 0.0
O238 O 0.18391 0.55792 0.37726 0.0
C239 C 0.16101 0.52845 0.41934 0.0
O240 O 0.14285 0.54916 0.40972 0.0
C241 C 0.2273 0.60495 0.35259 0.0
O242 O 0.23365 0.57508 0.34917 0.0
O243 O 0.17418 0.56277 0.33242 0.0
O244 O 0.1853 0.51341 0.34343 0.0
H245 H 0.08786 0.61513 0.29761 0.0
H246 H 0.22885 0.5432 0.40426 0.0
O247 O 0.17861 0.51041 0.4081 0.0
H248 H 0.29146 0.48013 0.35294 0.0
H249 H 0.20874 0.40249 0.40095 0.0
H250 H 0.15003 0.46556 0.3475 0.0
H251 H 0.23336 0.47994 0.35121 0.0
H252 H 0.21073 0.46061 0.40192 0.0
O253 O 0.19911 0.61374 0.35634 0.0
H254 H 0.11652 0.57885 0.32177 0.0
H255 H 0.15722 0.65649 0.3549 0.0
H256 H 0.14756 0.4075 0.34582 0.0
H257 H 0.2869 0.54389 0.40668 0.0
H258 H 0.17707 0.37558 0.37269 0.0
H259 H 0.3186 0.51225 0.38085 0.0
O260 O 0.13527 0.51231 0.37349 0.0
H261 H 0.17703 0.63943 0.43022 0.0
H262 H 0.09898 0.6107 0.37458 0.0
H263 H 0.08143 0.63841 0.40745 0.0
H264 H 0.1206 0.65297 0.43555 0.0
H265 H 0.19352 0.61148 0.39719 0.0
H266 H 0.12919 0.69362 0.331 0.0
H267 H 0.09412 0.67297 0.30216 0.0
O268 O 0.12202 0.55989 0.3604 0.0
C269 C 0.1821 0.53426 0.32868 0.0
C270 C 0.10299 0.62442 0.31017 0.0
C271 C 0.12622 0.66847 0.32889 0.0
N272 N 0.13829 0.61556 0.33984 0.0
C273 C 0.11919 0.604 0.32394 0.0
C274 C 0.14207 0.64734 0.34235 0.0
C275 C 0.10654 0.65687 0.31272 0.0
C276 C 0.24248 0.52915 0.39309 0.0
N277 N 0.22774 0.51141 0.37769 0.0
C278 C 0.27534 0.52973 0.39448 0.0
C279 C 0.29311 0.512 0.37997 0.0
C280 C 0.2779 0.49399 0.3643 0.0
C281 C 0.245 0.49402 0.36337 0.0
C282 C 0.19583 0.41614 0.38913 0.0
C283 C 0.16309 0.45181 0.35915 0.0
C284 C 0.19682 0.44904 0.38963 0.0
N285 N 0.18071 0.46641 0.37467 0.0
C286 C 0.16153 0.41895 0.35817 0.0
C287 C 0.17806 0.40106 0.37327 0.0
C288 C 0.11497 0.53211 0.36662 0.0
C289 C 0.15976 0.63331 0.41806 0.0
C290 C 0.11616 0.61693 0.38674 0.0
C291 C 0.10609 0.63267 0.4053 0.0
C292 C 0.12808 0.64085 0.42106 0.0
N293 N 0.14727 0.6096 0.38392 0.0
C294 C 0.16898 0.61761 0.39928 0.0
Co295 Co 0.48877 0.18128 0.87654 0.0
Co296 Co 0.41482 0.16131 0.85768 0.0
O297 O 0.44285 0.18394 0.87715 0.0
C298 C 0.47033 0.16176 0.92003 0.0
O299 O 0.4498 0.14353 0.91028 0.0
C300 C 0.39623 0.22796 0.85228 0.0
O301 O 0.42608 0.23458 0.84894 0.0
O302 O 0.43934 0.17587 0.83224 0.0
O303 O 0.489 0.18319 0.84422 0.0
H304 H 0.38824 0.09058 0.79523 0.0
H305 H 0.45745 0.22964 0.90367 0.0
O306 O 0.48894 0.1789 0.90893 0.0
H307 H 0.52371 0.28908 0.85247 0.0
H308 H 0.59769 0.20705 0.90349 0.0
H309 H 0.53583 0.14663 0.85027 0.0
H310 H 0.5228 0.23095 0.85173 0.0
H311 H 0.53959 0.21027 0.90312 0.0
O312 O 0.3876 0.19966 0.85578 0.0
H313 H 0.42371 0.11848 0.82036 0.0
H314 H 0.34496 0.15782 0.85302 0.0
H315 H 0.59387 0.1429 0.84993 0.0
H316 H 0.45782 0.28775 0.90507 0.0
H317 H 0.62519 0.17328 0.87669 0.0
H318 H 0.49108 0.31786 0.8793 0.0
O319 O 0.48756 0.13452 0.87511 0.0
H320 H 0.35947 0.17514 0.92878 0.0
H321 H 0.39015 0.09901 0.8724 0.0
H322 H 0.36131 0.08036 0.90452 0.0
H323 H 0.34576 0.11856 0.93299 0.0
H324 H 0.3886 0.19274 0.8965 0.0
H325 H 0.30863 0.13055 0.82813 0.0
H326 H 0.33025 0.09654 0.79904 0.0
O327 O 0.44139 0.12244 0.85938 0.0
C328 C 0.46846 0.18197 0.82915 0.0
C329 C 0.37853 0.10524 0.80789 0.0
C330 C 0.33385 0.12771 0.82634 0.0
N331 N 0.3864 0.13951 0.83824 0.0
C332 C 0.39849 0.12101 0.8222 0.0
C333 C 0.35453 0.14313 0.84035 0.0
C334 C 0.346 0.10862 0.81002 0.0
C335 C 0.4722 0.24258 0.89254 0.0
N336 N 0.49023 0.22693 0.87774 0.0
C337 C 0.47222 0.27548 0.89335 0.0
C338 C 0.49085 0.29236 0.87887 0.0
C339 C 0.50915 0.27622 0.8638 0.0
C340 C 0.5085 0.24331 0.86344 0.0
C341 C 0.5843 0.19379 0.8917 0.0
C342 C 0.54932 0.16012 0.86183 0.0
C343 C 0.55142 0.19549 0.89144 0.0
N344 N 0.5344 0.17893 0.87652 0.0
C345 C 0.58217 0.15782 0.86162 0.0
C346 C 0.59972 0.17483 0.87666 0.0
C347 C 0.46824 0.11474 0.86704 0.0
C348 C 0.36603 0.15829 0.91645 0.0
C349 C 0.38353 0.11577 0.88474 0.0
C350 C 0.36714 0.10508 0.90287 0.0
C351 C 0.35839 0.12653 0.91882 0.0
N352 N 0.39096 0.14696 0.88254 0.0
C353 C 0.3824 0.16814 0.89809 0.0
Co354 Co 0.81844 0.48816 0.37526 0.0
Co355 Co 0.83941 0.4143 0.3567 0.0
O356 O 0.8169 0.44224 0.37631 0.0
C357 C 0.84092 0.47212 0.41867 0.0
O358 O 0.86036 0.45274 0.40892 0.0
C359 C 0.77266 0.39571 0.3527 0.0
O360 O 0.76591 0.42585 0.35152 0.0
O361 O 0.82436 0.43843 0.33123 0.0
O362 O 0.81536 0.48787 0.34297 0.0
H363 H 0.9099 0.38804 0.29405 0.0
H364 H 0.77185 0.4565 0.40365 0.0
O365 O 0.82188 0.48887 0.40761 0.0
H366 H 0.70895 0.52 0.35275 0.0
H367 H 0.79103 0.5969 0.40175 0.0
H368 H 0.8511 0.53556 0.34808 0.0
H369 H 0.76704 0.52044 0.35099 0.0
H370 H 0.78921 0.53875 0.40191 0.0
O371 O 0.80118 0.38674 0.35477 0.0
H372 H 0.88187 0.42339 0.3192 0.0
H373 H 0.84349 0.34448 0.35219 0.0
H374 H 0.85342 0.59365 0.34721 0.0
H375 H 0.71382 0.45555 0.40608 0.0
H376 H 0.82321 0.62471 0.37419 0.0
H377 H 0.68197 0.48739 0.38046 0.0
O378 O 0.86521 0.48798 0.37294 0.0
H379 H 0.82681 0.35978 0.42818 0.0
H380 H 0.90204 0.3902 0.37118 0.0
H381 H 0.92129 0.36193 0.40337 0.0
H382 H 0.88354 0.34652 0.43216 0.0
H383 H 0.80861 0.38828 0.39578 0.0
H384 H 0.87088 0.30826 0.32731 0.0
H385 H 0.90448 0.33003 0.29804 0.0
O386 O 0.87802 0.44129 0.35821 0.0
C387 C 0.81716 0.46724 0.32799 0.0
C388 C 0.89541 0.37827 0.30679 0.0
C389 C 0.87348 0.33349 0.32543 0.0
N390 N 0.8613 0.38599 0.33724 0.0
C391 C 0.87957 0.39816 0.3211 0.0
C392 C 0.85798 0.35411 0.33944 0.0
C393 C 0.89233 0.34572 0.30902 0.0
C394 C 0.75816 0.47067 0.39259 0.0
N395 N 0.77282 0.48863 0.37727 0.0
C396 C 0.72531 0.46993 0.39398 0.0
C397 C 0.70745 0.48776 0.37958 0.0
C398 C 0.72257 0.50605 0.36402 0.0
C399 C 0.75547 0.50616 0.36307 0.0
C400 C 0.80421 0.58363 0.38987 0.0
C401 C 0.8377 0.54893 0.35975 0.0
C402 C 0.8033 0.55071 0.3899 0.0
N403 N 0.81974 0.53383 0.37486 0.0
C404 C 0.83919 0.58181 0.35924 0.0
C405 C 0.82227 0.59922 0.3744 0.0
C406 C 0.88529 0.46864 0.36521 0.0
C407 C 0.84347 0.36629 0.41572 0.0
C408 C 0.88548 0.3836 0.38364 0.0
C409 C 0.89651 0.36755 0.40182 0.0
C410 C 0.87531 0.3589 0.41795 0.0
N411 N 0.8542 0.39075 0.38156 0.0
C412 C 0.83328 0.38231 0.3973 0.0
Co413 Co 0.51134 0.81768 0.87544 0.0
Co414 Co 0.58533 0.8397 0.85761 0.0
O415 O 0.55728 0.81614 0.87654 0.0
C416 C 0.52842 0.83826 0.91908 0.0
O417 O 0.54893 0.8566 0.90942 0.0
C418 C 0.60453 0.77338 0.85137 0.0
O419 O 0.57473 0.76663 0.84799 0.0
O420 O 0.56121 0.82613 0.8317 0.0
O421 O 0.51202 0.81507 0.84313 0.0
H422 H 0.61207 0.91309 0.79664 0.0
H423 H 0.5433 0.77069 0.90334 0.0
O424 O 0.51031 0.82069 0.90787 0.0
H425 H 0.47965 0.70855 0.85207 0.0
H426 H 0.40244 0.78995 0.90149 0.0
H427 H 0.46408 0.84999 0.84795 0.0
H428 H 0.47908 0.76666 0.85081 0.0
H429 H 0.4606 0.7883 0.90189 0.0
O430 O 0.61294 0.80166 0.85516 0.0
H431 H 0.57653 0.88395 0.82104 0.0
H432 H 0.65521 0.84398 0.85344 0.0
H433 H 0.40597 0.85212 0.84685 0.0
H434 H 0.5444 0.71263 0.90529 0.0
H435 H 0.37477 0.82195 0.87376 0.0
H436 H 0.51246 0.68116 0.87949 0.0
O437 O 0.5113 0.86454 0.87359 0.0
H438 H 0.63971 0.82361 0.92884 0.0
H439 H 0.60925 0.90159 0.87362 0.0
H440 H 0.63742 0.91926 0.90628 0.0
H441 H 0.65285 0.88013 0.93417 0.0
H442 H 0.61128 0.807 0.89603 0.0
H443 H 0.69161 0.87252 0.82929 0.0
H444 H 0.67006 0.90746 0.80069 0.0
O445 O 0.55838 0.8781 0.85984 0.0
C446 C 0.53258 0.81834 0.82819 0.0
C447 C 0.62175 0.89802 0.80909 0.0
C448 C 0.66639 0.87522 0.82739 0.0
N449 N 0.6138 0.86252 0.83875 0.0
C450 C 0.60175 0.88154 0.82299 0.0
C451 C 0.64567 0.85908 0.84099 0.0
C452 C 0.65428 0.89483 0.81136 0.0
C453 C 0.52912 0.75716 0.89219 0.0
N454 N 0.51101 0.77204 0.87707 0.0
C455 C 0.52993 0.72429 0.89331 0.0
C456 C 0.51204 0.70665 0.87881 0.0
C457 C 0.49364 0.722 0.86342 0.0
C458 C 0.49345 0.75491 0.86275 0.0
C459 C 0.41578 0.80315 0.88965 0.0
C460 C 0.45064 0.83664 0.85962 0.0
C461 C 0.4487 0.80235 0.88983 0.0
N462 N 0.46567 0.81883 0.87485 0.0
C463 C 0.41776 0.83801 0.85896 0.0
C464 C 0.40026 0.8211 0.87408 0.0
C465 C 0.53079 0.88497 0.86651 0.0
C466 C 0.63321 0.84087 0.91677 0.0
C467 C 0.61585 0.88443 0.88569 0.0
C468 C 0.63185 0.89456 0.90413 0.0
C469 C 0.64052 0.87259 0.91977 0.0
N470 N 0.60874 0.85327 0.88287 0.0
C471 C 0.61723 0.83158 0.89811 0.0
Co472 Co 0.81723 0.51409 0.87465 0.0
Co473 Co 0.84053 0.58764 0.8567 0.0
O474 O 0.81687 0.56001 0.87589 0.0
C475 C 0.84004 0.52942 0.91815 0.0
O476 O 0.85969 0.54869 0.90848 0.0
C477 C 0.77415 0.6065 0.85136 0.0
O478 O 0.76739 0.57635 0.85025 0.0
O479 O 0.82674 0.56348 0.83091 0.0
O480 O 0.81385 0.51484 0.8424 0.0
H481 H 0.91431 0.61297 0.79566 0.0
H482 H 0.77169 0.54687 0.90325 0.0
O483 O 0.82084 0.51298 0.907 0.0
H484 H 0.70677 0.48521 0.85246 0.0
H485 H 0.7875 0.40582 0.90086 0.0
H486 H 0.84786 0.46617 0.84681 0.0
H487 H 0.76482 0.4832 0.85054 0.0
H488 H 0.78723 0.46399 0.90134 0.0
O489 O 0.8026 0.61545 0.85382 0.0
H490 H 0.88485 0.578 0.82027 0.0
H491 H 0.84533 0.65739 0.85207 0.0
H492 H 0.8486 0.40805 0.84562 0.0
H493 H 0.71372 0.54939 0.90584 0.0
H494 H 0.81826 0.37749 0.8728 0.0
H495 H 0.68086 0.51849 0.88027 0.0
O496 O 0.86407 0.51304 0.87221 0.0
H497 H 0.82489 0.64279 0.92768 0.0
H498 H 0.90261 0.6112 0.87257 0.0
H499 H 0.92053 0.63955 0.90509 0.0
H500 H 0.88153 0.65555 0.93292 0.0
H501 H 0.80803 0.6142 0.89497 0.0
H502 H 0.87417 0.69324 0.8277 0.0
H503 H 0.90905 0.67105 0.79931 0.0
O504 O 0.87865 0.5603 0.85915 0.0
C505 C 0.81785 0.5352 0.82745 0.0
C506 C 0.89927 0.62293 0.80802 0.0
C507 C 0.8767 0.66798 0.82598 0.0
N508 N 0.86362 0.61566 0.83769 0.0
C509 C 0.88261 0.60325 0.82204 0.0
C510 C 0.86039 0.64758 0.8397 0.0
C511 C 0.89628 0.65551 0.81006 0.0
C512 C 0.75755 0.53311 0.89221 0.0
N513 N 0.77162 0.51479 0.87683 0.0
C514 C 0.72474 0.53473 0.89369 0.0
C515 C 0.70631 0.51742 0.87932 0.0
C516 C 0.72084 0.49876 0.8637 0.0
C517 C 0.75371 0.49776 0.86267 0.0
C518 C 0.80077 0.41888 0.88891 0.0
C519 C 0.83444 0.45302 0.8586 0.0
C520 C 0.80075 0.4518 0.88913 0.0
N521 N 0.8173 0.46842 0.87401 0.0
C522 C 0.83502 0.42012 0.85789 0.0
C523 C 0.81802 0.40299 0.87315 0.0
C524 C 0.88493 0.53235 0.86543 0.0
C525 C 0.8421 0.63603 0.91563 0.0
C526 C 0.8855 0.61807 0.88461 0.0
C527 C 0.89578 0.63416 0.90298 0.0
C528 C 0.87388 0.64314 0.91858 0.0
N529 N 0.85428 0.61121 0.88182 0.0
C530 C 0.83267 0.61996 0.89704 0.0
Co531 Co 0.48774 0.81715 0.37558 0.0
Co532 Co 0.41313 0.83979 0.35902 0.0
O533 O 0.44179 0.81591 0.3774 0.0
C534 C 0.47188 0.83899 0.4192 0.0
O535 O 0.45069 0.85669 0.40967 0.0
C536 C 0.39556 0.77307 0.35252 0.0
O537 O 0.42578 0.76652 0.35169 0.0
O538 O 0.43738 0.8281 0.33271 0.0
O539 O 0.48586 0.81317 0.34342 0.0
H540 H 0.38501 0.91604 0.30004 0.0
H541 H 0.45652 0.77158 0.40497 0.0
O542 O 0.48991 0.82147 0.40791 0.0
H543 H 0.51786 0.70684 0.35392 0.0
H544 H 0.59734 0.78992 0.40049 0.0
H545 H 0.53425 0.84763 0.34654 0.0
H546 H 0.51879 0.76486 0.35148 0.0
H547 H 0.53921 0.78872 0.40187 0.0
O548 O 0.38632 0.80136 0.35525 0.0
H549 H 0.42108 0.88636 0.32377 0.0
H550 H 0.34317 0.84277 0.35481 0.0
H551 H 0.5923 0.84927 0.34445 0.0
H552 H 0.45507 0.71364 0.40808 0.0
H553 H 0.62425 0.82027 0.37157 0.0
H554 H 0.48583 0.68086 0.38239 0.0
O555 O 0.48809 0.86396 0.37272 0.0
H556 H 0.36011 0.81835 0.43005 0.0
H557 H 0.38696 0.89991 0.3764 0.0
H558 H 0.35869 0.91504 0.40962 0.0
H559 H 0.34509 0.87409 0.43673 0.0
H560 H 0.38861 0.80433 0.39669 0.0
H561 H 0.30625 0.87179 0.3313 0.0
H562 H 0.32714 0.90883 0.30373 0.0
O563 O 0.4393 0.87857 0.36249 0.0
C564 C 0.46528 0.81839 0.32877 0.0
C565 C 0.37562 0.90006 0.31204 0.0
C566 C 0.33141 0.87519 0.32957 0.0
N567 N 0.38422 0.86309 0.34077 0.0
C568 C 0.39592 0.88328 0.32557 0.0
C569 C 0.35243 0.85878 0.3428 0.0
C570 C 0.34315 0.89597 0.31411 0.0
C571 C 0.47021 0.75749 0.39387 0.0
N572 N 0.48786 0.77159 0.37815 0.0
C573 C 0.4692 0.72468 0.39565 0.0
C574 C 0.48642 0.70631 0.38121 0.0
C575 C 0.50438 0.72087 0.36522 0.0
C576 C 0.50478 0.75373 0.3639 0.0
C577 C 0.58368 0.80262 0.38857 0.0
C578 C 0.548 0.83481 0.35832 0.0
C579 C 0.55077 0.80209 0.3893 0.0
N580 N 0.53339 0.81794 0.37422 0.0
C581 C 0.58085 0.83589 0.35709 0.0
C582 C 0.59876 0.81964 0.37233 0.0
C583 C 0.4678 0.8848 0.36748 0.0
C584 C 0.36585 0.8364 0.41834 0.0
C585 C 0.3812 0.88199 0.38815 0.0
C586 C 0.36512 0.89068 0.4069 0.0
C587 C 0.35747 0.86768 0.42209 0.0
N588 N 0.3894 0.85128 0.38461 0.0
C589 C 0.38187 0.82858 0.39939 0.0
Co590 Co 0.18101 0.48559 0.87584 0.0
Co591 Co 0.15924 0.41147 0.85794 0.0
O592 O 0.18259 0.43964 0.87699 0.0
C593 C 0.15996 0.46853 0.91943 0.0
O594 O 0.14204 0.44761 0.9098 0.0
C595 C 0.22598 0.39398 0.85225 0.0
O596 O 0.23228 0.42423 0.85127 0.0
O597 O 0.17218 0.43599 0.83211 0.0
O598 O 0.18432 0.48486 0.84355 0.0
H599 H 0.08526 0.3846 0.79732 0.0
H600 H 0.2275 0.45391 0.90428 0.0
O601 O 0.1774 0.48675 0.90821 0.0
H602 H 0.29058 0.51735 0.85345 0.0
H603 H 0.20796 0.59464 0.90196 0.0
H604 H 0.14905 0.53264 0.84802 0.0
H605 H 0.23249 0.51789 0.85166 0.0
H606 H 0.20979 0.5365 0.90246 0.0
O607 O 0.1977 0.38454 0.85478 0.0
H608 H 0.11427 0.42018 0.82177 0.0
H609 H 0.15591 0.34163 0.85329 0.0
H610 H 0.14676 0.59073 0.84681 0.0
H611 H 0.28553 0.45285 0.90675 0.0
H612 H 0.17637 0.62211 0.87393 0.0
H613 H 0.31747 0.48466 0.88116 0.0
O614 O 0.13418 0.48545 0.87358 0.0
H615 H 0.17723 0.35646 0.92871 0.0
H616 H 0.09794 0.3865 0.87423 0.0
H617 H 0.08118 0.35773 0.90687 0.0
H618 H 0.12097 0.34253 0.93439 0.0
H619 H 0.19294 0.38545 0.89591 0.0
H620 H 0.12754 0.30519 0.82908 0.0
H621 H 0.09182 0.32665 0.8009 0.0
O622 O 0.12051 0.43788 0.86065 0.0
C623 C 0.1806 0.4644 0.82861 0.0
C624 C 0.10067 0.37496 0.80958 0.0
C625 C 0.12443 0.33039 0.82739 0.0
N626 N 0.13654 0.38297 0.83904 0.0
C627 C 0.11708 0.39498 0.82351 0.0
C628 C 0.14048 0.35113 0.84102 0.0
C629 C 0.10439 0.34244 0.81158 0.0
C630 C 0.24123 0.46807 0.89324 0.0
N631 N 0.22663 0.48606 0.87792 0.0
C632 C 0.27409 0.46726 0.89465 0.0
C633 C 0.292 0.48508 0.88026 0.0
C634 C 0.27692 0.50341 0.8647 0.0
C635 C 0.24403 0.50358 0.86374 0.0
C636 C 0.19501 0.58122 0.89004 0.0
C637 C 0.16216 0.54616 0.85978 0.0
C638 C 0.19591 0.54831 0.89027 0.0
N639 N 0.17975 0.53125 0.87518 0.0
C640 C 0.16069 0.57903 0.85906 0.0
C641 C 0.17729 0.59663 0.8743 0.0
C642 C 0.11368 0.46568 0.86696 0.0
C643 C 0.15969 0.36286 0.9168 0.0
C644 C 0.1154 0.37997 0.88613 0.0
C645 C 0.10577 0.36364 0.90456 0.0
C646 C 0.12811 0.3551 0.91999 0.0
N647 N 0.14642 0.3875 0.88312 0.0
C648 C 0.16847 0.37915 0.89815 0.0
Co649 Co 0.51164 0.18064 0.37659 0.0
Co650 Co 0.58653 0.16058 0.35929 0.0
O651 O 0.55753 0.18316 0.3781 0.0
C652 C 0.52855 0.15921 0.41999 0.0
O653 O 0.54953 0.14153 0.41022 0.0
C654 C 0.60418 0.22756 0.35349 0.0
O655 O 0.5743 0.2338 0.34998 0.0
O656 O 0.56237 0.17388 0.33325 0.0
O657 O 0.5128 0.18405 0.34441 0.0
H658 H 0.61604 0.08852 0.2982 0.0
H659 H 0.54206 0.22751 0.40542 0.0
O660 O 0.51021 0.1767 0.40892 0.0
H661 H 0.47815 0.28971 0.35435 0.0
H662 H 0.40186 0.20564 0.40218 0.0
H663 H 0.46539 0.14792 0.34851 0.0
H664 H 0.47889 0.23164 0.35229 0.0
H665 H 0.45997 0.20842 0.40299 0.0
O666 O 0.6131 0.19941 0.35716 0.0
H667 H 0.57942 0.11636 0.32258 0.0
H668 H 0.65658 0.15853 0.35538 0.0
H669 H 0.40736 0.14467 0.34699 0.0
H670 H 0.54184 0.28552 0.40815 0.0
H671 H 0.3752 0.17368 0.37397 0.0
H672 H 0.50976 0.31702 0.38245 0.0
O673 O 0.51258 0.13391 0.37401 0.0
H674 H 0.63854 0.17769 0.43123 0.0
H675 H 0.61337 0.09966 0.37482 0.0
H676 H 0.64148 0.08257 0.40765 0.0
H677 H 0.65425 0.12175 0.43615 0.0
H678 H 0.61016 0.19366 0.39825 0.0
H679 H 0.69403 0.13136 0.33125 0.0
H680 H 0.67379 0.09595 0.30247 0.0
O681 O 0.56069 0.12122 0.36138 0.0
C682 C 0.53368 0.18139 0.32966 0.0
C683 C 0.62514 0.10379 0.31073 0.0
C684 C 0.66892 0.12787 0.32926 0.0
N685 N 0.61587 0.13879 0.3405 0.0
C686 C 0.60453 0.11953 0.32462 0.0
C687 C 0.6476 0.14324 0.34284 0.0
C688 C 0.65754 0.108 0.31312 0.0
C689 C 0.52782 0.24105 0.39431 0.0
N690 N 0.51034 0.22622 0.37882 0.0
C691 C 0.52789 0.27389 0.39588 0.0
C692 C 0.50992 0.29155 0.38143 0.0
C693 C 0.49219 0.27624 0.36565 0.0
C694 C 0.49274 0.24337 0.36455 0.0
C695 C 0.41562 0.19296 0.3903 0.0
C696 C 0.45154 0.16079 0.3602 0.0
C697 C 0.44851 0.1944 0.3907 0.0
N698 N 0.466 0.17859 0.37568 0.0
C699 C 0.4187 0.15878 0.3593 0.0
C700 C 0.40067 0.17503 0.37447 0.0
C701 C 0.53284 0.11393 0.36738 0.0
C702 C 0.63314 0.16041 0.41892 0.0
C703 C 0.61869 0.11678 0.3872 0.0
C704 C 0.63472 0.10701 0.40572 0.0
C705 C 0.64191 0.12901 0.42168 0.0
N706 N 0.61006 0.14759 0.38464 0.0
C707 C 0.61718 0.16933 0.40017 0.0
Co708 Co 0.81845 0.48624 0.6252 0.0
Co709 Co 0.83972 0.41182 0.64257 0.0
O710 O 0.81655 0.44038 0.62377 0.0
C711 C 0.8395 0.46957 0.58164 0.0
O712 O 0.85753 0.44877 0.59129 0.0
C713 C 0.77309 0.39381 0.64854 0.0
O714 O 0.7669 0.42373 0.65188 0.0
O715 O 0.82648 0.43579 0.66862 0.0
O716 O 0.81528 0.48505 0.65745 0.0
H717 H 0.91278 0.38327 0.70336 0.0
H718 H 0.77163 0.45507 0.59674 0.0
O719 O 0.82197 0.48772 0.59284 0.0
H720 H 0.70921 0.51861 0.64789 0.0
H721 H 0.79216 0.59577 0.59974 0.0
H722 H 0.85072 0.53276 0.6533 0.0
H723 H 0.76731 0.51864 0.64962 0.0
H724 H 0.78998 0.53765 0.59889 0.0
O725 O 0.80124 0.38482 0.64487 0.0
H726 H 0.88415 0.41952 0.67917 0.0
H727 H 0.84291 0.34186 0.64637 0.0
H728 H 0.85336 0.59081 0.65485 0.0
H729 H 0.71358 0.45452 0.59433 0.0
H730 H 0.82393 0.62271 0.62793 0.0
H731 H 0.68198 0.4864 0.62008 0.0
O732 O 0.86528 0.48583 0.6274 0.0
H733 H 0.82288 0.35852 0.57104 0.0
H734 H 0.90128 0.38727 0.62643 0.0
H735 H 0.91857 0.35927 0.59361 0.0
H736 H 0.87922 0.34471 0.56563 0.0
H737 H 0.80664 0.38675 0.60401 0.0
H738 H 0.87091 0.30475 0.67031 0.0
H739 H 0.90624 0.32543 0.699 0.0
O740 O 0.87852 0.43825 0.64049 0.0
C741 C 0.81854 0.46432 0.67226 0.0
C742 C 0.89754 0.37397 0.69087 0.0
C743 C 0.87401 0.3299 0.67234 0.0
N744 N 0.86211 0.3828 0.66127 0.0
C745 C 0.88135 0.39438 0.67709 0.0
C746 C 0.85817 0.35102 0.65886 0.0
C747 C 0.89383 0.34152 0.68843 0.0
C748 C 0.75804 0.46922 0.60787 0.0
N749 N 0.77283 0.487 0.62322 0.0
C750 C 0.72518 0.46872 0.60649 0.0
C751 C 0.70746 0.48658 0.62095 0.0
C752 C 0.72272 0.50464 0.63657 0.0
C753 C 0.75562 0.50453 0.6375 0.0
C754 C 0.80503 0.58213 0.61158 0.0
C755 C 0.83769 0.5465 0.64162 0.0
C756 C 0.80394 0.54923 0.61115 0.0
N757 N 0.82 0.53188 0.62614 0.0
C758 C 0.83935 0.57935 0.64254 0.0
C759 C 0.82286 0.59723 0.62741 0.0
C760 C 0.88558 0.46598 0.63419 0.0
C761 C 0.84022 0.36464 0.58314 0.0
C762 C 0.88402 0.38104 0.61433 0.0
C763 C 0.89394 0.36514 0.59579 0.0
C764 C 0.87185 0.35695 0.58011 0.0
N765 N 0.85296 0.38851 0.61719 0.0
C766 C 0.83115 0.3805 0.6019 0.0
Co767 Co 0.51141 0.81813 0.12577 0.0
Co768 Co 0.58557 0.84009 0.14336 0.0
O769 O 0.55732 0.81702 0.12425 0.0
C770 C 0.52645 0.84088 0.08218 0.0
O771 O 0.54598 0.86036 0.09176 0.0
C772 C 0.60389 0.77347 0.14823 0.0
O773 O 0.57373 0.76683 0.14944 0.0
O774 O 0.56166 0.82626 0.16923 0.0
O775 O 0.51255 0.81462 0.15804 0.0
H776 H 0.61281 0.91274 0.20465 0.0
H777 H 0.54304 0.77216 0.09689 0.0
O778 O 0.50993 0.82184 0.09341 0.0
H779 H 0.48103 0.70811 0.14798 0.0
H780 H 0.40231 0.79025 0.10019 0.0
H781 H 0.46436 0.84941 0.15398 0.0
H782 H 0.48002 0.76616 0.15001 0.0
H783 H 0.46046 0.78906 0.09934 0.0
O784 O 0.61298 0.80188 0.14582 0.0
H785 H 0.57707 0.884 0.18014 0.0
H786 H 0.65547 0.84406 0.14744 0.0
H787 H 0.40626 0.85107 0.15553 0.0
H788 H 0.54455 0.71418 0.09417 0.0
H789 H 0.37485 0.82133 0.1285 0.0
H790 H 0.51346 0.68175 0.11989 0.0
O791 O 0.51113 0.86499 0.12833 0.0
H792 H 0.63928 0.82462 0.07184 0.0
H793 H 0.6097 0.90204 0.12766 0.0
H794 H 0.63772 0.91999 0.09501 0.0
H795 H 0.6527 0.88113 0.06682 0.0
H796 H 0.61104 0.80774 0.10468 0.0
H797 H 0.69207 0.87216 0.17169 0.0
H798 H 0.67076 0.90689 0.20049 0.0
O799 O 0.55871 0.87852 0.14135 0.0
C800 C 0.53324 0.81798 0.17287 0.0
C801 C 0.62238 0.89776 0.19211 0.0
C802 C 0.66687 0.87495 0.17364 0.0
N803 N 0.61419 0.8626 0.16228 0.0
C804 C 0.60227 0.88151 0.17815 0.0
C805 C 0.64604 0.85905 0.15998 0.0
C806 C 0.65489 0.89444 0.18979 0.0
C807 C 0.5292 0.75822 0.108 0.0
N808 N 0.51134 0.77253 0.12352 0.0
C809 C 0.53025 0.72539 0.10644 0.0
C810 C 0.51284 0.70721 0.1209 0.0
C811 C 0.49466 0.72198 0.13667 0.0
C812 C 0.49423 0.75486 0.13777 0.0
C813 C 0.41574 0.80325 0.11209 0.0
C814 C 0.45084 0.83625 0.14225 0.0
C815 C 0.44865 0.80271 0.11166 0.0
N816 N 0.46574 0.81894 0.1267 0.0
C817 C 0.41796 0.83736 0.14317 0.0
C818 C 0.40034 0.82069 0.12798 0.0
C819 C 0.53084 0.88538 0.13522 0.0
C820 C 0.63296 0.84176 0.08404 0.0
C821 C 0.61612 0.885 0.11546 0.0
C822 C 0.63203 0.89529 0.09702 0.0
C823 C 0.64044 0.87348 0.08122 0.0
N824 N 0.6089 0.85385 0.11812 0.0
C825 C 0.61709 0.83232 0.10271 0.0
Co826 Co 0.1824 0.51212 0.62601 0.0
Co827 Co 0.15939 0.586 0.64349 0.0
O828 O 0.18289 0.55802 0.62444 0.0
C829 C 0.15942 0.52676 0.58242 0.0
O830 O 0.1398 0.54615 0.59199 0.0
C831 C 0.2258 0.60499 0.64849 0.0
O832 O 0.23265 0.57488 0.64978 0.0
O833 O 0.17335 0.56228 0.66942 0.0
O834 O 0.18588 0.51337 0.65827 0.0
H835 H 0.08611 0.61242 0.70458 0.0
H836 H 0.22795 0.54431 0.59711 0.0
O837 O 0.17869 0.51051 0.59364 0.0
H838 H 0.29283 0.48326 0.64826 0.0
H839 H 0.21173 0.40336 0.60056 0.0
H840 H 0.15173 0.46472 0.65426 0.0
H841 H 0.23478 0.48147 0.65028 0.0
H842 H 0.21215 0.46151 0.59964 0.0
O843 O 0.19732 0.61383 0.64602 0.0
H844 H 0.11536 0.57701 0.68015 0.0
H845 H 0.15465 0.65583 0.64756 0.0
H846 H 0.15084 0.40662 0.65588 0.0
H847 H 0.28592 0.54659 0.59441 0.0
H848 H 0.181 0.37555 0.62889 0.0
H849 H 0.31876 0.516 0.62015 0.0
O850 O 0.13555 0.51122 0.62853 0.0
H851 H 0.17459 0.63987 0.57201 0.0
H852 H 0.09723 0.60934 0.62763 0.0
H853 H 0.07911 0.63712 0.59493 0.0
H854 H 0.11793 0.65259 0.56684 0.0
H855 H 0.19165 0.61185 0.60489 0.0
H856 H 0.12602 0.69212 0.67174 0.0
H857 H 0.09136 0.67043 0.70045 0.0
O858 O 0.12126 0.55868 0.64139 0.0
C859 C 0.1821 0.53402 0.67308 0.0
C860 C 0.10105 0.62216 0.69209 0.0
C861 C 0.12349 0.66689 0.67367 0.0
N862 N 0.13646 0.61436 0.66235 0.0
C863 C 0.11759 0.60223 0.67817 0.0
C864 C 0.13968 0.64624 0.66006 0.0
C865 C 0.10404 0.6547 0.68977 0.0
C866 C 0.24208 0.53067 0.60823 0.0
N867 N 0.228 0.51265 0.62377 0.0
C868 C 0.2749 0.53217 0.60668 0.0
C869 C 0.29331 0.51503 0.62115 0.0
C870 C 0.27877 0.49668 0.63694 0.0
C871 C 0.2459 0.4958 0.63803 0.0
C872 C 0.19854 0.41664 0.61243 0.0
C873 C 0.16507 0.45135 0.64255 0.0
C874 C 0.19865 0.44955 0.61197 0.0
N875 N 0.18219 0.46645 0.62699 0.0
C876 C 0.1644 0.41847 0.6435 0.0
C877 C 0.18131 0.40105 0.62834 0.0
C878 C 0.11482 0.53069 0.63528 0.0
C879 C 0.15746 0.63334 0.58416 0.0
C880 C 0.11426 0.61598 0.61548 0.0
C881 C 0.10386 0.63175 0.59701 0.0
C882 C 0.12566 0.64043 0.58126 0.0
N883 N 0.14549 0.60915 0.61822 0.0
C884 C 0.167 0.6176 0.60286 0.0
Co885 Co 0.48792 0.18187 0.12643 0.0
Co886 Co 0.41412 0.16097 0.14494 0.0
O887 O 0.44205 0.18361 0.12546 0.0
C888 C 0.47162 0.16022 0.08293 0.0
O889 O 0.45235 0.1406 0.09263 0.0
C890 C 0.39475 0.22742 0.1497 0.0
O891 O 0.4245 0.23427 0.15319 0.0
O892 O 0.43809 0.17622 0.17048 0.0
O893 O 0.48773 0.18423 0.15872 0.0
H894 H 0.38756 0.09076 0.20767 0.0
H895 H 0.45613 0.22918 0.09868 0.0
O896 O 0.48845 0.1791 0.09406 0.0
H897 H 0.52037 0.29071 0.14995 0.0
H898 H 0.59664 0.20951 0.10001 0.0
H899 H 0.53534 0.14845 0.15317 0.0
H900 H 0.52058 0.23259 0.15111 0.0
H901 H 0.53849 0.21151 0.09998 0.0
O902 O 0.38635 0.19901 0.14635 0.0
H903 H 0.42303 0.1188 0.18261 0.0
H904 H 0.34426 0.15663 0.14914 0.0
H905 H 0.59344 0.14594 0.1539 0.0
H906 H 0.45541 0.28726 0.09684 0.0
H907 H 0.62448 0.17664 0.12718 0.0
H908 H 0.48764 0.31842 0.12264 0.0
O909 O 0.48757 0.13507 0.1283 0.0
H910 H 0.36017 0.17272 0.07316 0.0
H911 H 0.39043 0.09813 0.13059 0.0
H912 H 0.36253 0.07848 0.09836 0.0
H913 H 0.34719 0.1159 0.06936 0.0
H914 H 0.38832 0.19132 0.10559 0.0
H915 H 0.30792 0.1292 0.17393 0.0
H916 H 0.32955 0.09588 0.20339 0.0
O917 O 0.44127 0.12251 0.1437 0.0
C918 C 0.46709 0.18278 0.17371 0.0
C919 C 0.37785 0.10512 0.19485 0.0
C920 C 0.33315 0.12673 0.17593 0.0
N921 N 0.38571 0.13909 0.16434 0.0
C922 C 0.39781 0.12098 0.18058 0.0
C923 C 0.35383 0.14225 0.16197 0.0
C924 C 0.3453 0.10803 0.19246 0.0
C925 C 0.47044 0.24258 0.10983 0.0
N926 N 0.48852 0.22752 0.1249 0.0
C927 C 0.46984 0.27545 0.10877 0.0
C928 C 0.4879 0.29292 0.12327 0.0
C929 C 0.50626 0.27739 0.1386 0.0
C930 C 0.50623 0.24448 0.13921 0.0
C931 C 0.58338 0.19611 0.11178 0.0
C932 C 0.5487 0.16208 0.14162 0.0
C933 C 0.55047 0.19712 0.11183 0.0
N934 N 0.53359 0.18041 0.12673 0.0
C935 C 0.58159 0.16047 0.14205 0.0
C936 C 0.59899 0.17767 0.12703 0.0
C937 C 0.46838 0.11512 0.13634 0.0
C938 C 0.36665 0.1562 0.08571 0.0
C939 C 0.38388 0.11455 0.11803 0.0
C940 C 0.36803 0.10329 0.09983 0.0
C941 C 0.35941 0.12431 0.08358 0.0
N942 N 0.39089 0.14587 0.12001 0.0
C943 C 0.38248 0.16662 0.10415 0.0
H944 H 0.08971 0.52621 0.12413 0.0
H945 H 0.06292 0.43411 0.14788 0.0
H946 H 0.03443 0.54198 0.12389 0.0
H947 H 0.0079 0.45014 0.14789 0.0
H948 H 0.93538 0.56831 0.14825 0.0
H949 H 0.99075 0.55308 0.14894 0.0
H950 H 0.96665 0.46255 0.12163 0.0
H951 H 0.91127 0.47743 0.12118 0.0
C952 C 0.07212 0.50935 0.12937 0.0
C953 C 0.08084 0.47881 0.13591 0.0
C954 C 0.04045 0.51848 0.12934 0.0
C955 C 0.01679 0.49726 0.13579 0.0
C956 C 0.02553 0.46687 0.14252 0.0
C957 C 0.05714 0.45776 0.14261 0.0
C958 C 0.94183 0.54514 0.14237 0.0
C959 C 0.91878 0.52412 0.13464 0.0
C960 C 0.97362 0.5365 0.14267 0.0
C961 C 0.98308 0.50662 0.13535 0.0
C962 C 0.96007 0.48561 0.12764 0.0
C963 C 0.92831 0.49424 0.12727 0.0
H964 H 0.4324 0.93564 0.6241 0.0
H965 H 0.52547 0.9083 0.64506 0.0
H966 H 0.44832 0.99058 0.62397 0.0
H967 H 0.54112 0.96351 0.6464 0.0
H968 H 0.56977 0.06232 0.62708 0.0
H969 H 0.55428 0.00721 0.62631 0.0
H970 H 0.45958 0.03365 0.64504 0.0
H971 H 0.47488 0.08891 0.6443 0.0
C972 C 0.45618 0.9415 0.629 0.0
C973 C 0.47769 0.91775 0.63462 0.0
C974 C 0.46532 0.97309 0.62909 0.0
C975 C 0.49603 0.98182 0.63531 0.0
C976 C 0.51747 0.95787 0.64109 0.0
C977 C 0.5085 0.92617 0.64048 0.0
C978 C 0.54568 0.05627 0.63104 0.0
C979 C 0.52352 0.07986 0.63572 0.0
C980 C 0.53676 0.02459 0.63075 0.0
C981 C 0.5056 0.01566 0.63565 0.0
C982 C 0.48359 0.03945 0.64068 0.0
C983 C 0.49237 0.07118 0.64043 0.0
H984 H 0.08936 0.47504 0.37783 0.0
H985 H 0.0642 0.56764 0.35419 0.0
H986 H 0.03395 0.45986 0.37732 0.0
H987 H 0.009 0.55218 0.3534 0.0
H988 H 0.91101 0.52474 0.37826 0.0
H989 H 0.96641 0.5397 0.37856 0.0
H990 H 0.99134 0.44919 0.35157 0.0
H991 H 0.93601 0.4339 0.35153 0.0
C992 C 0.07209 0.49215 0.37248 0.0
C993 C 0.08133 0.52263 0.36614 0.0
C994 C 0.04034 0.48336 0.37206 0.0
C995 C 0.01707 0.50482 0.36535 0.0
C996 C 0.0263 0.53523 0.35894 0.0
C997 C 0.05802 0.54402 0.35931 0.0
C998 C 0.92825 0.50798 0.37237 0.0
C999 C 0.91896 0.47805 0.36493 0.0
C1000 C 0.96002 0.51665 0.37244 0.0
C1001 C 0.98328 0.49562 0.36511 0.0
C1002 C 0.97403 0.46577 0.35759 0.0
C1003 C 0.94225 0.45709 0.35746 0.0
H1004 H 0.47378 0.91027 0.87824 0.0
H1005 H 0.56609 0.93597 0.85432 0.0
H1006 H 0.4586 0.9657 0.8784 0.0
H1007 H 0.55066 0.99116 0.85425 0.0
H1008 H 0.43305 0.06445 0.85315 0.0
H1009 H 0.44794 0.00901 0.85287 0.0
H1010 H 0.53843 0.03291 0.88034 0.0
H1011 H 0.52386 0.0884 0.88041 0.0
C1012 C 0.49082 0.92766 0.87298 0.0
C1013 C 0.52123 0.91858 0.86637 0.0
C1014 C 0.48203 0.95942 0.87295 0.0
C1015 C 0.50346 0.98281 0.86639 0.0
C1016 C 0.53377 0.97374 0.85969 0.0
C1017 C 0.54254 0.94203 0.85964 0.0
C1018 C 0.45613 0.05796 0.85915 0.0
C1019 C 0.47722 0.08098 0.86683 0.0
C1020 C 0.46458 0.02612 0.85909 0.0
C1021 C 0.49434 0.01658 0.86659 0.0
C1022 C 0.51545 0.03956 0.87422 0.0
C1023 C 0.50699 0.07137 0.87437 0.0
H1024 H 0.93656 0.56633 0.85266 0.0
H1025 H 0.90927 0.47541 0.87817 0.0
H1026 H 0.99151 0.54999 0.85296 0.0
H1027 H 0.96442 0.45937 0.87878 0.0
H1028 H 0.08858 0.52259 0.87895 0.0
H1029 H 0.03336 0.53825 0.87873 0.0
H1030 H 0.00741 0.44662 0.85403 0.0
H1031 H 0.0625 0.43064 0.85457 0.0
C1032 C 0.94222 0.54289 0.8584 0.0
C1033 C 0.91839 0.52222 0.86543 0.0
C1034 C 0.9738 0.53361 0.85869 0.0
C1035 C 0.98235 0.50343 0.86596 0.0
C1036 C 0.95856 0.48267 0.87287 0.0
C1037 C 0.92695 0.49195 0.87262 0.0
C1038 C 0.07114 0.50571 0.8735 0.0
C1039 C 0.08008 0.47531 0.86682 0.0
C1040 C 0.03948 0.51478 0.87326 0.0
C1041 C 0.01599 0.49369 0.86634 0.0
C1042 C 0.02488 0.46329 0.85971 0.0
C1043 C 0.05654 0.45421 0.85992 0.0
H1044 H 0.4747 0.08946 0.35932 0.0
H1045 H 0.57021 0.06273 0.37477 0.0
H1046 H 0.4594 0.03427 0.35845 0.0
H1047 H 0.55474 0.0076 0.37547 0.0
H1048 H 0.52526 0.90883 0.35672 0.0
H1049 H 0.54096 0.96401 0.35568 0.0
H1050 H 0.44856 0.99082 0.37904 0.0
H1051 H 0.43254 0.93587 0.37852 0.0
C1052 C 0.49235 0.07171 0.36278 0.0
C1053 C 0.52366 0.08037 0.36705 0.0
C1054 C 0.48356 0.03998 0.36247 0.0
C1055 C 0.50571 0.01612 0.36701 0.0
C1056 C 0.53706 0.02501 0.37143 0.0
C1057 C 0.54598 0.05672 0.37118 0.0
C1058 C 0.50838 0.92664 0.36157 0.0
C1059 C 0.47765 0.91814 0.36758 0.0
C1060 C 0.5174 0.95834 0.36114 0.0
C1061 C 0.4961 0.98223 0.36726 0.0
C1062 C 0.46547 0.97341 0.37365 0.0
C1063 C 0.45626 0.94181 0.37354 0.0
H1064 H 0.93638 0.4306 0.64681 0.0
H1065 H 0.9112 0.52263 0.62216 0.0
H1066 H 0.99163 0.44604 0.6473 0.0
H1067 H 0.96657 0.53775 0.62233 0.0
H1068 H 0.08999 0.47382 0.62279 0.0
H1069 H 0.03468 0.45823 0.62239 0.0
H1070 H 0.00853 0.54918 0.64811 0.0
H1071 H 0.06358 0.56507 0.64821 0.0
C1072 C 0.94257 0.45407 0.64141 0.0
C1073 C 0.91924 0.47535 0.63443 0.0
C1074 C 0.97431 0.46284 0.64159 0.0
C1075 C 0.98349 0.4931 0.63484 0.0
C1076 C 0.96021 0.51439 0.62788 0.0
C1077 C 0.92847 0.50563 0.62767 0.0
C1078 C 0.07248 0.49052 0.62837 0.0
C1079 C 0.08132 0.52076 0.63545 0.0
C1080 C 0.04078 0.4815 0.62824 0.0
C1081 C 0.01721 0.5025 0.63516 0.0
C1082 C 0.02606 0.53263 0.64236 0.0
C1083 C 0.05771 0.54165 0.64253 0.0
H1084 H 0.52405 0.08904 0.12279 0.0
H1085 H 0.43359 0.06471 0.15042 0.0
H1086 H 0.53865 0.03354 0.12248 0.0
H1087 H 0.4485 0.0093 0.15032 0.0
H1088 H 0.56643 0.93611 0.14751 0.0
H1089 H 0.55115 0.99131 0.14808 0.0
H1090 H 0.45865 0.96643 0.12442 0.0
H1091 H 0.47368 0.91095 0.12408 0.0
C1092 C 0.5073 0.07194 0.12886 0.0
C1093 C 0.47759 0.08143 0.13658 0.0
C1094 C 0.51575 0.04012 0.12878 0.0
C1095 C 0.49471 0.01704 0.13636 0.0
C1096 C 0.46506 0.02649 0.14411 0.0
C1097 C 0.45661 0.05831 0.14427 0.0
C1098 C 0.54281 0.94229 0.1424 0.0
C1099 C 0.52132 0.91899 0.13567 0.0
C1100 C 0.53413 0.97401 0.14264 0.0
C1101 C 0.50374 0.98325 0.13623 0.0
C1102 C 0.48215 0.96001 0.12965 0.0
C1103 C 0.49085 0.92823 0.12935 0.0
H1104 H 0.17086 0.56914 0.29232 0.0
H1105 H 0.20388 0.47765 0.31323 0.0
H1106 H 0.17456 0.55231 0.25495 0.0
H1107 H 0.20853 0.46117 0.2757 0.0
H1108 H 0.17026 0.43076 0.20941 0.0
H1109 H 0.17394 0.44767 0.24672 0.0
H1110 H 0.20908 0.53835 0.22595 0.0
H1111 H 0.20447 0.52176 0.1884 0.0
C1112 C 0.17937 0.54557 0.28898 0.0
C1113 C 0.18688 0.5247 0.30587 0.0
C1114 C 0.1817 0.53598 0.26747 0.0
C1115 C 0.19176 0.50533 0.26225 0.0
C1116 C 0.2002 0.48478 0.27912 0.0
C1117 C 0.1977 0.4943 0.30067 0.0
C1118 C 0.17905 0.45424 0.21272 0.0
C1119 C 0.18689 0.47494 0.19581 0.0
C1120 C 0.18135 0.46388 0.23421 0.0
C1121 C 0.19174 0.49442 0.2394 0.0
C1122 C 0.20052 0.51483 0.22253 0.0
C1123 C 0.19805 0.50524 0.20098 0.0
H1124 H 0.4754 0.17607 0.69019 0.0
H1125 H 0.57181 0.19702 0.70739 0.0
H1126 H 0.46019 0.17931 0.72785 0.0
H1127 H 0.55636 0.20239 0.74506 0.0
H1128 H 0.52651 0.1697 0.81228 0.0
H1129 H 0.54248 0.1725 0.77468 0.0
H1130 H 0.45076 0.20987 0.75786 0.0
H1131 H 0.43432 0.20497 0.79535 0.0
C1132 C 0.49325 0.18201 0.702 0.0
C1133 C 0.52485 0.186 0.69584 0.0
C1134 C 0.4845 0.18414 0.72368 0.0
C1135 C 0.507 0.19103 0.73972 0.0
C1136 C 0.53844 0.19627 0.73335 0.0
C1137 C 0.54731 0.19344 0.7117 0.0
C1138 C 0.50988 0.1787 0.80054 0.0
C1139 C 0.47909 0.18683 0.8067 0.0
C1140 C 0.51908 0.18055 0.77893 0.0
C1141 C 0.49791 0.19125 0.763 0.0
C1142 C 0.46751 0.20071 0.76945 0.0
C1143 C 0.4581 0.19815 0.79099 0.0
H1144 H 0.79671 0.56881 0.2059 0.0
H1145 H 0.82735 0.47495 0.189 0.0
H1146 H 0.79145 0.55279 0.24345 0.0
H1147 H 0.82409 0.4593 0.22665 0.0
H1148 H 0.79823 0.43121 0.29385 0.0
H1149 H 0.79332 0.44708 0.25625 0.0
H1150 H 0.82175 0.54177 0.27349 0.0
H1151 H 0.82466 0.52621 0.31116 0.0
C1152 C 0.80243 0.54475 0.21026 0.0
C1153 C 0.81256 0.52317 0.19453 0.0
C1154 C 0.79966 0.53557 0.23185 0.0
C1155 C 0.80763 0.50477 0.23832 0.0
C1156 C 0.81717 0.48306 0.22239 0.0
C1157 C 0.81928 0.49207 0.20074 0.0
C1158 C 0.80307 0.45551 0.28958 0.0
C1159 C 0.81196 0.47743 0.30545 0.0
C1160 C 0.80051 0.4646 0.26797 0.0
C1161 C 0.80745 0.4957 0.26161 0.0
C1162 C 0.81566 0.51775 0.27766 0.0
C1163 C 0.81756 0.5088 0.29933 0.0
H1164 H 0.56739 0.82803 0.7916 0.0
H1165 H 0.47485 0.79893 0.8131 0.0
H1166 H 0.55004 0.8246 0.75434 0.0
H1167 H 0.45777 0.79465 0.77563 0.0
H1168 H 0.42909 0.83211 0.70838 0.0
H1169 H 0.44556 0.82902 0.74592 0.0
H1170 H 0.53476 0.78924 0.72611 0.0
H1171 H 0.51871 0.79315 0.68849 0.0
C1172 C 0.54344 0.82047 0.78841 0.0
C1173 C 0.52251 0.81388 0.80544 0.0
C1174 C 0.53354 0.8183 0.76696 0.0
C1175 C 0.50248 0.80936 0.76193 0.0
C1176 C 0.48173 0.80204 0.77893 0.0
C1177 C 0.4916 0.80432 0.80043 0.0
C1178 C 0.45213 0.82243 0.71199 0.0
C1179 C 0.47263 0.81308 0.69532 0.0
C1180 C 0.46151 0.8205 0.73358 0.0
C1181 C 0.49157 0.80903 0.73908 0.0
C1182 C 0.51166 0.79871 0.72245 0.0
C1183 C 0.50236 0.80078 0.70085 0.0
H1184 H 0.79567 0.47849 0.81239 0.0
H1185 H 0.82973 0.56932 0.79088 0.0
H1186 H 0.7914 0.46135 0.77495 0.0
H1187 H 0.82636 0.55184 0.75367 0.0
H1188 H 0.79638 0.52091 0.68739 0.0
H1189 H 0.79164 0.53781 0.72482 0.0
H1190 H 0.82628 0.44719 0.74608 0.0
H1191 H 0.8301 0.42992 0.7088 0.0
C1192 C 0.80213 0.49486 0.79972 0.0
C1193 C 0.81314 0.52527 0.80472 0.0
C1194 C 0.79986 0.48495 0.77824 0.0
C1195 C 0.80866 0.50515 0.76126 0.0
C1196 C 0.81892 0.53579 0.76627 0.0
C1197 C 0.82105 0.54576 0.7877 0.0
C1198 C 0.8027 0.50446 0.70004 0.0
C1199 C 0.81374 0.47408 0.69502 0.0
C1200 C 0.80014 0.51423 0.72152 0.0
C1201 C 0.80874 0.49394 0.7385 0.0
C1202 C 0.81903 0.46331 0.73347 0.0
C1203 C 0.82142 0.45347 0.71202 0.0
H1204 H 0.43085 0.83243 0.29264 0.0
H1205 H 0.52067 0.79429 0.3129 0.0
H1206 H 0.44728 0.82874 0.25517 0.0
H1207 H 0.53671 0.78976 0.27527 0.0
H1208 H 0.56851 0.82785 0.20922 0.0
H1209 H 0.55164 0.82454 0.24657 0.0
H1210 H 0.45937 0.79368 0.22587 0.0
H1211 H 0.47596 0.79784 0.1883 0.0
C1212 C 0.45395 0.82283 0.28913 0.0
C1213 C 0.47449 0.81384 0.30588 0.0
C1214 C 0.4633 0.82052 0.26757 0.0
C1215 C 0.49336 0.80902 0.26216 0.0
C1216 C 0.51357 0.79919 0.27887 0.0
C1217 C 0.50429 0.80163 0.30046 0.0
C1218 C 0.54467 0.82009 0.21256 0.0
C1219 C 0.52356 0.81328 0.19566 0.0
C1220 C 0.53505 0.81799 0.23406 0.0
C1221 C 0.50411 0.8089 0.23928 0.0
C1222 C 0.48324 0.80121 0.22242 0.0
C1223 C 0.49282 0.80343 0.20087 0.0
H1224 H 0.16909 0.43007 0.79207 0.0
H1225 H 0.2027 0.52111 0.81348 0.0
H1226 H 0.17318 0.44717 0.7548 0.0
H1227 H 0.2077 0.53788 0.776 0.0
H1228 H 0.17037 0.56874 0.70943 0.0
H1229 H 0.17357 0.55179 0.74677 0.0
H1230 H 0.20833 0.46091 0.72612 0.0
H1231 H 0.20421 0.47752 0.68856 0.0
C1232 C 0.17779 0.45361 0.78886 0.0
C1233 C 0.18539 0.47426 0.80586 0.0
C1234 C 0.18035 0.46336 0.7674 0.0
C1235 C 0.19074 0.49394 0.76234 0.0
C1236 C 0.19917 0.51432 0.77931 0.0
C1237 C 0.19645 0.50463 0.80082 0.0
C1238 C 0.17897 0.5452 0.71278 0.0
C1239 C 0.18683 0.52444 0.6959 0.0
C1240 C 0.18101 0.53554 0.73428 0.0
C1241 C 0.19112 0.50493 0.73951 0.0
C1242 C 0.19996 0.48449 0.72267 0.0
C1243 C 0.19777 0.49409 0.70112 0.0
H1244 H 0.47481 0.17449 0.31266 0.0
H1245 H 0.5703 0.1993 0.2955 0.0
H1246 H 0.45931 0.17788 0.27506 0.0
H1247 H 0.55448 0.20482 0.2579 0.0
H1248 H 0.52562 0.17252 0.19044 0.0
H1249 H 0.54159 0.17517 0.22801 0.0
H1250 H 0.44854 0.20855 0.24532 0.0
H1251 H 0.43215 0.2038 0.2078 0.0
C1252 C 0.49238 0.18129 0.30087 0.0
C1253 C 0.52383 0.18635 0.30702 0.0
C1254 C 0.48344 0.18351 0.27922 0.0
C1255 C 0.50559 0.19156 0.26321 0.0
C1256 C 0.53686 0.19782 0.26959 0.0
C1257 C 0.54594 0.19489 0.29119 0.0
C1258 C 0.50866 0.18063 0.20227 0.0
C1259 C 0.47756 0.18767 0.19621 0.0
C1260 C 0.51787 0.18239 0.22389 0.0
C1261 C 0.49638 0.19192 0.23994 0.0
C1262 C 0.46559 0.20031 0.23362 0.0
C1263 C 0.4562 0.19784 0.21206 0.0
H1264 H 0.13792 0.42466 0.94763 0.0
H1265 H 0.18313 0.51582 0.94511 0.0
H1266 H 0.13829 0.42661 0.98678 0.0
H1267 H 0.18233 0.51849 0.98451 0.0
H1268 H 0.20358 0.49756 0.05606 0.0
H1269 H 0.20461 0.49725 0.01663 0.0
H1270 H 0.1134 0.45173 0.01586 0.0
H1271 H 0.1131 0.45085 0.05504 0.0
C1272 C 0.14765 0.44532 0.95547 0.0
C1273 C 0.16033 0.47017 0.94327 0.0
C1274 C 0.1477 0.44655 0.97797 0.0
C1275 C 0.16003 0.47287 0.98892 0.0
C1276 C 0.17293 0.49769 0.97668 0.0
C1277 C 0.17323 0.49628 0.95409 0.0
C1278 C 0.18374 0.4876 0.0474 0.0
C1279 C 0.15836 0.47404 0.05865 0.0
C1280 C 0.18424 0.48755 0.0248 0.0
C1281 C 0.15921 0.47422 0.01297 0.0
C1282 C 0.13347 0.46149 0.02434 0.0
C1283 C 0.13317 0.46119 0.04687 0.0
H1284 H 0.48119 0.18145 0.44595 0.0
H1285 H 0.57308 0.13762 0.44782 0.0
H1286 H 0.47907 0.1804 0.48537 0.0
H1287 H 0.57167 0.13779 0.48696 0.0
H1288 H 0.54902 0.11223 0.55532 0.0
H1289 H 0.54732 0.11243 0.51614 0.0
H1290 H 0.50063 0.20303 0.51727 0.0
H1291 H 0.50111 0.20206 0.55667 0.0
C1292 C 0.501 0.17181 0.4548 0.0
C1293 C 0.52717 0.15937 0.44381 0.0
C1294 C 0.4999 0.17136 0.47738 0.0
C1295 C 0.5251 0.15879 0.48942 0.0
C1296 C 0.55146 0.14692 0.4783 0.0
C1297 C 0.55238 0.14699 0.4558 0.0
C1298 C 0.53825 0.13213 0.54721 0.0
C1299 C 0.5253 0.15717 0.55907 0.0
C1300 C 0.53746 0.13237 0.52471 0.0
C1301 C 0.52417 0.15793 0.51345 0.0
C1302 C 0.51075 0.1828 0.52536 0.0
C1303 C 0.51116 0.18234 0.54795 0.0
H1304 H 0.81539 0.48369 0.05509 0.0
H1305 H 0.85971 0.57533 0.05336 0.0
H1306 H 0.816 0.48189 0.01566 0.0
H1307 H 0.85912 0.57424 0.01421 0.0
H1308 H 0.88484 0.55117 0.94581 0.0
H1309 H 0.88435 0.54982 0.98498 0.0
H1310 H 0.79351 0.50358 0.98374 0.0
H1311 H 0.79474 0.50374 0.94433 0.0
C1312 C 0.82501 0.50354 0.04627 0.0
C1313 C 0.83776 0.52951 0.05731 0.0
C1314 C 0.82521 0.50261 0.02367 0.0
C1315 C 0.83784 0.52781 0.01167 0.0
C1316 C 0.84994 0.55403 0.02284 0.0
C1317 C 0.85011 0.55477 0.04535 0.0
C1318 C 0.8648 0.54059 0.95388 0.0
C1319 C 0.83979 0.52765 0.94197 0.0
C1320 C 0.86439 0.54002 0.97639 0.0
C1321 C 0.83872 0.52691 0.98763 0.0
C1322 C 0.81383 0.51356 0.97568 0.0
C1323 C 0.81444 0.51379 0.95308 0.0
H1324 H 0.4541 0.88604 0.55467 0.0
H1325 H 0.50017 0.79526 0.55593 0.0
H1326 H 0.45574 0.88591 0.51551 0.0
H1327 H 0.50062 0.79441 0.51647 0.0
H1328 H 0.51932 0.81579 0.44481 0.0
H1329 H 0.52209 0.81662 0.48424 0.0
H1330 H 0.43035 0.86092 0.48658 0.0
H1331 H 0.42826 0.86124 0.44747 0.0
C1332 C 0.46449 0.86595 0.54655 0.0
C1333 C 0.47686 0.84059 0.55839 0.0
C1334 C 0.46523 0.86575 0.52404 0.0
C1335 C 0.4779 0.83994 0.51272 0.0
C1336 C 0.49092 0.81481 0.52461 0.0
C1337 C 0.49055 0.81521 0.54722 0.0
C1338 C 0.49984 0.82577 0.45382 0.0
C1339 C 0.47373 0.83873 0.44304 0.0
C1340 C 0.50133 0.82609 0.47642 0.0
C1341 C 0.47657 0.83909 0.48868 0.0
C1342 C 0.45025 0.85146 0.47776 0.0
C1343 C 0.44895 0.85148 0.45526 0.0
H1344 H 0.1846 0.48154 0.44522 0.0
H1345 H 0.1389 0.57248 0.44735 0.0
H1346 H 0.18391 0.47933 0.48466 0.0
H1347 H 0.1394 0.57099 0.48648 0.0
H1348 H 0.1142 0.54761 0.55477 0.0
H1349 H 0.11456 0.5461 0.51561 0.0
H1350 H 0.20598 0.50102 0.51677 0.0
H1351 H 0.20487 0.50132 0.5562 0.0
C1352 C 0.17462 0.50113 0.45412 0.0
C1353 C 0.16153 0.52703 0.44319 0.0
C1354 C 0.17438 0.49997 0.47673 0.0
C1355 C 0.16135 0.52486 0.48885 0.0
C1356 C 0.14889 0.551 0.47778 0.0
C1357 C 0.14877 0.55196 0.45527 0.0
C1358 C 0.13433 0.53724 0.54669 0.0
C1359 C 0.15956 0.5247 0.55858 0.0
C1360 C 0.13467 0.53657 0.52417 0.0
C1361 C 0.16049 0.52379 0.51291 0.0
C1362 C 0.18555 0.51076 0.52485 0.0
C1363 C 0.18501 0.51106 0.54746 0.0
H1364 H 0.51729 0.18451 0.94611 0.0
H1365 H 0.42515 0.14119 0.94773 0.0
H1366 H 0.51893 0.18406 0.98553 0.0
H1367 H 0.42608 0.14196 0.9869 0.0
H1368 H 0.49741 0.20547 0.05679 0.0
H1369 H 0.49737 0.20685 0.01738 0.0
H1370 H 0.45028 0.11645 0.01611 0.0
H1371 H 0.44913 0.11584 0.05528 0.0
C1372 C 0.49729 0.17515 0.9549 0.0
C1373 C 0.47123 0.16262 0.94385 0.0
C1374 C 0.49813 0.17505 0.97749 0.0
C1375 C 0.47275 0.16274 0.98947 0.0
C1376 C 0.44642 0.15089 0.97828 0.0
C1377 C 0.44578 0.15062 0.95578 0.0
C1378 C 0.48712 0.18591 0.04803 0.0
C1379 C 0.47311 0.16064 0.05911 0.0
C1380 C 0.48722 0.1866 0.02544 0.0
C1381 C 0.47361 0.16187 0.01349 0.0
C1382 C 0.4603 0.13629 0.02471 0.0
C1383 C 0.45983 0.13581 0.04721 0.0
H1384 H 0.79577 0.49769 0.44502 0.0
H1385 H 0.88588 0.45028 0.44616 0.0
H1386 H 0.79476 0.49767 0.48444 0.0
H1387 H 0.88563 0.45148 0.48533 0.0
H1388 H 0.86109 0.42529 0.55364 0.0
H1389 H 0.86057 0.42684 0.5145 0.0
H1390 H 0.81728 0.51909 0.51641 0.0
H1391 H 0.81658 0.51681 0.55583 0.0
C1392 C 0.81552 0.48761 0.4537 0.0
C1393 C 0.8408 0.47379 0.4425 0.0
C1394 C 0.81504 0.48774 0.4763 0.0
C1395 C 0.84 0.47435 0.48815 0.0
C1396 C 0.86562 0.46131 0.47682 0.0
C1397 C 0.86589 0.46081 0.45431 0.0
C1398 C 0.85148 0.44594 0.54573 0.0
C1399 C 0.83903 0.47101 0.55782 0.0
C1400 C 0.85136 0.44694 0.52323 0.0
C1401 C 0.83921 0.47325 0.51219 0.0
C1402 C 0.82654 0.4983 0.52432 0.0
C1403 C 0.82629 0.49711 0.54692 0.0
H1404 H 0.54795 0.88563 0.0544 0.0
H1405 H 0.50076 0.79543 0.05607 0.0
H1406 H 0.54666 0.88492 0.01523 0.0
H1407 H 0.50069 0.79396 0.01665 0.0
H1408 H 0.48149 0.81492 0.94504 0.0
H1409 H 0.47932 0.81583 0.98447 0.0
H1410 H 0.57129 0.85976 0.98615 0.0
H1411 H 0.57273 0.86006 0.94701 0.0
C1412 C 0.53743 0.86552 0.04637 0.0
C1413 C 0.52455 0.84054 0.05833 0.0
C1414 C 0.53689 0.86498 0.02385 0.0
C1415 C 0.52392 0.83919 0.01265 0.0
C1416 C 0.51059 0.81436 0.02467 0.0
C1417 C 0.51076 0.81511 0.04728 0.0
C1418 C 0.50117 0.8248 0.95391 0.0
C1419 C 0.52713 0.83769 0.94293 0.0
C1420 C 0.50003 0.82517 0.97651 0.0
C1421 C 0.52501 0.83813 0.9886 0.0
C1422 C 0.55123 0.85035 0.97748 0.0
C1423 C 0.55217 0.85034 0.95497 0.0
H1424 H 0.21932 0.33149 0.15606 0.0
H1425 H 0.28848 0.40358 0.14251 0.0
H1426 H 0.26076 0.29197 0.15699 0.0
H1427 H 0.32999 0.36378 0.14252 0.0
H1428 H 0.40034 0.28814 0.16422 0.0
H1429 H 0.35974 0.32891 0.16458 0.0
H1430 H 0.2948 0.2645 0.13374 0.0
H1431 H 0.33481 0.2236 0.13425 0.0
C1432 C 0.24341 0.33885 0.15313 0.0
C1433 C 0.25065 0.37062 0.14919 0.0
C1434 C 0.26719 0.31614 0.15352 0.0
C1435 C 0.29878 0.32456 0.14965 0.0
C1436 C 0.30602 0.35646 0.14585 0.0
C1437 C 0.28221 0.37928 0.14573 0.0
C1438 C 0.37735 0.28276 0.15756 0.0
C1439 C 0.37069 0.2526 0.14938 0.0
C1440 C 0.35412 0.30617 0.15764 0.0
C1441 C 0.32385 0.3 0.14932 0.0
C1442 C 0.31753 0.26994 0.14076 0.0
C1443 C 0.34058 0.2465 0.14093 0.0
H1444 H 0.77566 0.33351 0.63375 0.0
H1445 H 0.71254 0.40092 0.66318 0.0
H1446 H 0.73408 0.29426 0.63387 0.0
H1447 H 0.67101 0.36103 0.66413 0.0
H1448 H 0.59539 0.28946 0.64242 0.0
H1449 H 0.63548 0.33084 0.6423 0.0
H1450 H 0.70664 0.26165 0.65822 0.0
H1451 H 0.66697 0.22043 0.65748 0.0
C1452 C 0.75293 0.33987 0.64045 0.0
C1453 C 0.74744 0.37026 0.6486 0.0
C1454 C 0.72909 0.31726 0.64064 0.0
C1455 C 0.69924 0.3243 0.64926 0.0
C1456 C 0.69362 0.35486 0.6572 0.0
C1457 C 0.71745 0.37767 0.65678 0.0
C1458 C 0.61962 0.28322 0.64597 0.0
C1459 C 0.62811 0.25171 0.64979 0.0
C1460 C 0.64257 0.30693 0.64599 0.0
C1461 C 0.67439 0.29958 0.65005 0.0
C1462 C 0.68255 0.26811 0.65449 0.0
C1463 C 0.65975 0.24446 0.6542 0.0
H1464 H 0.71121 0.5986 0.16318 0.0
H1465 H 0.77471 0.66508 0.13314 0.0
H1466 H 0.67001 0.63881 0.16395 0.0
H1467 H 0.73344 0.70465 0.13306 0.0
H1468 H 0.66666 0.77933 0.15627 0.0
H1469 H 0.70623 0.73798 0.157 0.0
H1470 H 0.63459 0.66877 0.14214 0.0
H1471 H 0.59466 0.71023 0.1423 0.0
C1472 C 0.71627 0.62171 0.15659 0.0
C1473 C 0.74627 0.62877 0.14829 0.0
C1474 C 0.69262 0.64471 0.15691 0.0
C1475 C 0.69843 0.67512 0.14873 0.0
C1476 C 0.7283 0.6818 0.14001 0.0
C1477 C 0.75196 0.659 0.13992 0.0
C1478 C 0.65933 0.75527 0.15322 0.0
C1479 C 0.62758 0.74802 0.14916 0.0
C1480 C 0.68207 0.73154 0.15349 0.0
C1481 C 0.67373 0.70001 0.14939 0.0
C1482 C 0.64183 0.69272 0.14559 0.0
C1483 C 0.61896 0.71648 0.14559 0.0
H1484 H 0.28911 0.596 0.6428 0.0
H1485 H 0.21959 0.66787 0.65605 0.0
H1486 H 0.3304 0.63608 0.64252 0.0
H1487 H 0.26079 0.70763 0.65666 0.0
H1488 H 0.33392 0.77598 0.63259 0.0
H1489 H 0.29431 0.73471 0.63277 0.0
H1490 H 0.36006 0.67179 0.66422 0.0
H1491 H 0.40028 0.71294 0.6632 0.0
C1492 C 0.28273 0.62031 0.64591 0.0
C1493 C 0.25111 0.62884 0.64933 0.0
C1494 C 0.3064 0.64328 0.64585 0.0
C1495 C 0.29896 0.67518 0.64942 0.0
C1496 C 0.26736 0.68345 0.65334 0.0
C1497 C 0.24371 0.66061 0.65314 0.0
C1498 C 0.33996 0.75334 0.63956 0.0
C1499 C 0.37018 0.74777 0.648 0.0
C1500 C 0.31715 0.72969 0.63979 0.0
C1501 C 0.3238 0.69995 0.64872 0.0
C1502 C 0.35418 0.69428 0.65702 0.0
C1503 C 0.37719 0.71792 0.65656 0.0
H1504 H 0.40464 0.70976 0.35836 0.0
H1505 H 0.33304 0.77893 0.34367 0.0
H1506 H 0.36459 0.66839 0.35837 0.0
H1507 H 0.29336 0.73768 0.34279 0.0
H1508 H 0.22445 0.66537 0.36719 0.0
H1509 H 0.26584 0.70484 0.3669 0.0
H1510 H 0.32913 0.63822 0.3367 0.0
H1511 H 0.28782 0.59814 0.33782 0.0
C1512 C 0.38042 0.71604 0.35485 0.0
C1513 C 0.37193 0.74759 0.35117 0.0
C1514 C 0.35747 0.69233 0.35476 0.0
C1515 C 0.32563 0.69968 0.35077 0.0
C1516 C 0.31747 0.73119 0.34646 0.0
C1517 C 0.34027 0.75486 0.34682 0.0
C1518 C 0.24719 0.6591 0.36047 0.0
C1519 C 0.2528 0.62868 0.3524 0.0
C1520 C 0.27092 0.68184 0.36017 0.0
C1521 C 0.3008 0.67491 0.35154 0.0
C1522 C 0.30652 0.64432 0.34365 0.0
C1523 C 0.2828 0.62139 0.34417 0.0
H1524 H 0.40219 0.28854 0.83743 0.0
H1525 H 0.33613 0.22448 0.86735 0.0
H1526 H 0.36155 0.32932 0.83646 0.0
H1527 H 0.29614 0.26533 0.86721 0.0
H1528 H 0.22086 0.33123 0.84392 0.0
H1529 H 0.26267 0.29213 0.84313 0.0
H1530 H 0.33106 0.36447 0.85818 0.0
H1531 H 0.28915 0.40392 0.85808 0.0
C1532 C 0.37909 0.28327 0.84395 0.0
C1533 C 0.37227 0.25323 0.85227 0.0
C1534 C 0.35584 0.30667 0.8435 0.0
C1535 C 0.32542 0.30058 0.85158 0.0
C1536 C 0.31899 0.27068 0.86034 0.0
C1537 C 0.34203 0.24726 0.86055 0.0
C1538 C 0.24484 0.33882 0.84698 0.0
C1539 C 0.25172 0.37061 0.85113 0.0
C1540 C 0.26883 0.31635 0.84667 0.0
C1541 C 0.30027 0.32502 0.85083 0.0
C1542 C 0.3072 0.35698 0.85468 0.0
C1543 C 0.28318 0.37957 0.85472 0.0
H1544 H 0.66417 0.22492 0.36888 0.0
H1545 H 0.59773 0.28801 0.33842 0.0
H1546 H 0.70372 0.26621 0.36881 0.0
H1547 H 0.63793 0.32924 0.33752 0.0
H1548 H 0.70938 0.40491 0.35865 0.0
H1549 H 0.66792 0.36498 0.35909 0.0
H1550 H 0.73718 0.29315 0.34484 0.0
H1551 H 0.77852 0.33275 0.34528 0.0
C1552 C 0.65809 0.24758 0.36197 0.0
C1553 C 0.62787 0.25313 0.35352 0.0
C1554 C 0.68088 0.27126 0.36181 0.0
C1555 C 0.67423 0.30103 0.35292 0.0
C1556 C 0.64382 0.30672 0.34467 0.0
C1557 C 0.62082 0.28304 0.34507 0.0
C1558 C 0.71565 0.38057 0.35557 0.0
C1559 C 0.74722 0.37193 0.35206 0.0
C1560 C 0.69188 0.35769 0.35572 0.0
C1561 C 0.69916 0.32574 0.35215 0.0
C1562 C 0.73072 0.31736 0.34816 0.0
C1563 C 0.75446 0.34012 0.34827 0.0
H1564 H 0.71091 0.59723 0.8571 0.0
H1565 H 0.77999 0.66937 0.84347 0.0
H1566 H 0.66937 0.63702 0.85715 0.0
H1567 H 0.73852 0.70886 0.8426 0.0
H1568 H 0.66477 0.777 0.86627 0.0
H1569 H 0.70478 0.73613 0.86618 0.0
H1570 H 0.63938 0.67215 0.83538 0.0
H1571 H 0.59875 0.71291 0.83633 0.0
C1572 C 0.71714 0.62154 0.85385 0.0
C1573 C 0.74871 0.63022 0.85039 0.0
C1574 C 0.69332 0.64435 0.85378 0.0
C1575 C 0.70054 0.67626 0.85001 0.0
C1576 C 0.73211 0.68468 0.84606 0.0
C1577 C 0.75591 0.66199 0.84641 0.0
C1578 C 0.65889 0.75422 0.85946 0.0
C1579 C 0.62863 0.74823 0.8512 0.0
C1580 C 0.68194 0.73079 0.85927 0.0
C1581 C 0.6755 0.70085 0.85057 0.0
C1582 C 0.64511 0.69479 0.84242 0.0
C1583 C 0.62186 0.7182 0.84284 0.0
loop_
_geom_bond_atom_site_label_1
_geom_bond_atom_site_label_2
_geom_bond_distance
_geom_bond_site_symmetry_2
_ccdc_geom_bond_type
Co0 O2 2.143 . S
Co0 O8 2.074 . S
Co0 O11 2.093 . S
Co0 O24 2.097 . S
Co0 N41 2.151 . S
Co0 N49 2.214 . S
Co1 O2 2.160 . S
Co1 O7 2.058 . S
Co1 O17 2.057 . S
Co1 O32 2.037 . S
Co1 N36 2.145 . S
Co1 N57 2.257 . S
O2 Co0 2.143 . S
O2 Co1 2.160 . S
C3 O4 1.278 . S
C3 O11 1.224 . S
O4 C3 1.278 . S
C5 O6 1.245 . S
C5 O17 1.232 . S
O6 C5 1.245 . S
O7 Co1 2.058 . S
O7 C33 1.269 . S
O8 Co0 2.074 . S
O8 C33 1.257 . S
H9 C34 0.930 . S
H10 C40 0.930 . S
O11 Co0 2.093 . S
O11 C3 1.224 . S
H12 C44 0.929 . S
H13 C46 0.930 . S
H14 C47 0.930 . S
H15 C45 0.929 . S
H16 C48 0.928 . S
O17 Co1 2.057 . S
O17 C5 1.232 . S
H18 C37 0.929 . S
H19 C38 0.929 . S
H20 C50 0.931 . S
H21 C42 0.929 . S
H22 C51 0.930 . S
H23 C43 0.931 . S
O24 Co0 2.097 . S
O24 C52 1.214 . S
H25 C53 0.929 . S
H26 C54 0.929 . S
H27 C55 0.930 . S
H28 C56 0.929 . S
H29 C58 0.930 . S
H30 C35 0.930 . S
H31 C39 0.930 . S
O32 Co1 2.037 . S
O32 C52 1.234 . S
C33 O7 1.269 . S
C33 O8 1.257 . S
C34 H9 0.930 . S
C34 C37 1.388 . S
C34 C39 1.418 . S
C35 H30 0.930 . S
C35 C38 1.404 . S
C35 C39 1.353 . S
N36 Co1 2.145 . S
N36 C37 1.397 . S
N36 C38 1.334 . S
C37 H18 0.929 . S
C37 C34 1.388 . S
C37 N36 1.397 . S
C38 H19 0.929 . S
C38 C35 1.404 . S
C38 N36 1.334 . S
C39 H31 0.930 . S
C39 C34 1.418 . S
C39 C35 1.353 . S
C40 H10 0.930 . S
C40 N41 1.330 . S
C40 C42 1.446 . S
N41 Co0 2.151 . S
N41 C40 1.330 . S
N41 C45 1.418 . S
C42 H21 0.929 . S
C42 C40 1.446 . S
C42 C43 1.332 . S
C43 H23 0.931 . S
C43 C42 1.332 . S
C43 C44 1.267 . S
C44 H12 0.929 . S
C44 C43 1.267 . S
C44 C45 1.251 . S
C45 H15 0.929 . S
C45 N41 1.418 . S
C45 C44 1.251 . S
C46 H13 0.930 . S
C46 C48 1.406 . S
C46 C51 1.261 . S
C47 H14 0.930 . S
C47 N49 1.325 . S
C47 C50 1.357 . S
C48 H16 0.928 . S
C48 C46 1.406 . S
C48 N49 1.261 . S
N49 Co0 2.214 . S
N49 C47 1.325 . S
N49 C48 1.261 . S
C50 H20 0.931 . S
C50 C47 1.357 . S
C50 C51 1.312 . S
C51 H22 0.930 . S
C51 C46 1.261 . S
C51 C50 1.312 . S
C52 O24 1.214 . S
C52 O32 1.234 . S
C53 H25 0.929 . S
C53 C56 1.391 . S
C53 C58 1.391 . S
C54 H26 0.929 . S
C54 C55 1.390 . S
C54 N57 1.391 . S
C55 H27 0.930 . S
C55 C54 1.390 . S
C55 C56 1.392 . S
C56 H28 0.929 . S
C56 C53 1.391 . S
C56 C55 1.392 . S
N57 Co1 2.257 . S
N57 C54 1.391 . S
N57 C58 1.388 . S
C58 H29 0.930 . S
C58 C53 1.391 . S
C58 N57 1.388 . S
Co59 O61 2.143 . S
Co59 O67 2.074 . S
Co59 O70 2.093 . S
Co59 O83 2.097 . S
Co59 N100 2.151 . S
Co59 N108 2.214 . S
Co60 O61 2.160 . S
Co60 O66 2.058 . S
Co60 O76 2.057 . S
Co60 O91 2.037 . S
Co60 N95 2.145 . S
Co60 N116 2.257 . S
O61 Co59 2.143 . S
O61 Co60 2.160 . S
C62 O63 1.278 . S
C62 O70 1.224 . S
O63 C62 1.278 . S
C64 O65 1.245 . S
C64 O76 1.232 . S
O65 C64 1.245 . S
O66 Co60 2.058 . S
O66 C92 1.269 . S
O67 Co59 2.074 . S
O67 C92 1.257 . S
H68 C93 0.930 . S
H69 C99 0.930 . S
O70 Co59 2.093 . S
O70 C62 1.224 . S
H71 C103 0.929 . S
H72 C105 0.930 . S
H73 C106 0.930 . S
H74 C104 0.929 . S
H75 C107 0.928 . S
O76 Co60 2.057 . S
O76 C64 1.232 . S
H77 C96 0.929 . S
H78 C97 0.929 . S
H79 C109 0.931 . S
H80 C101 0.929 . S
H81 C110 0.930 . S
H82 C102 0.931 . S
O83 Co59 2.097 . S
O83 C111 1.214 . S
H84 C112 0.929 . S
H85 C113 0.929 . S
H86 C114 0.930 . S
H87 C115 0.929 . S
H88 C117 0.930 . S
H89 C94 0.930 . S
H90 C98 0.930 . S
O91 Co60 2.037 . S
O91 C111 1.234 . S
C92 O66 1.269 . S
C92 O67 1.257 . S
C93 H68 0.930 . S
C93 C96 1.388 . S
C93 C98 1.418 . S
C94 H89 0.930 . S
C94 C97 1.404 . S
C94 C98 1.353 . S
N95 Co60 2.145 . S
N95 C96 1.397 . S
N95 C97 1.334 . S
C96 H77 0.929 . S
C96 C93 1.388 . S
C96 N95 1.397 . S
C97 H78 0.929 . S
C97 C94 1.404 . S
C97 N95 1.334 . S
C98 H90 0.930 . S
C98 C93 1.418 . S
C98 C94 1.353 . S
C99 H69 0.930 . S
C99 N100 1.330 . S
C99 C101 1.446 . S
N100 Co59 2.151 . S
N100 C99 1.330 . S
N100 C104 1.418 . S
C101 H80 0.929 . S
C101 C99 1.446 . S
C101 C102 1.332 . S
C102 H82 0.931 . S
C102 C101 1.332 . S
C102 C103 1.267 . S
C103 H71 0.929 . S
C103 C102 1.267 . S
C103 C104 1.251 . S
C104 H74 0.929 . S
C104 N100 1.418 . S
C104 C103 1.251 . S
C105 H72 0.930 . S
C105 C107 1.406 . S
C105 C110 1.261 . S
C106 H73 0.930 . S
C106 N108 1.325 . S
C106 C109 1.357 . S
C107 H75 0.928 . S
C107 C105 1.406 . S
C107 N108 1.261 . S
N108 Co59 2.214 . S
N108 C106 1.325 . S
N108 C107 1.261 . S
C109 H79 0.931 . S
C109 C106 1.357 . S
C109 C110 1.312 . S
C110 H81 0.930 . S
C110 C105 1.261 . S
C110 C109 1.312 . S
C111 O83 1.214 . S
C111 O91 1.234 . S
C112 H84 0.929 . S
C112 C115 1.391 . S
C112 C117 1.391 . S
C113 H85 0.929 . S
C113 C114 1.390 . S
C113 N116 1.391 . S
C114 H86 0.930 . S
C114 C113 1.390 . S
C114 C115 1.392 . S
C115 H87 0.929 . S
C115 C112 1.391 . S
C115 C114 1.392 . S
N116 Co60 2.257 . S
N116 C113 1.391 . S
N116 C117 1.388 . S
C117 H88 0.930 . S
C117 C112 1.391 . S
C117 N116 1.388 . S
Co118 O120 2.143 . S
Co118 O126 2.074 . S
Co118 O129 2.093 . S
Co118 O142 2.097 . S
Co118 N159 2.151 . S
Co118 N167 2.214 . S
Co119 O120 2.160 . S
Co119 O125 2.058 . S
Co119 O135 2.057 . S
Co119 O150 2.037 . S
Co119 N154 2.145 . S
Co119 N175 2.257 . S
O120 Co118 2.143 . S
O120 Co119 2.160 . S
C121 O122 1.278 . S
C121 O129 1.224 . S
O122 C121 1.278 . S
C123 O124 1.245 . S
C123 O135 1.232 . S
O124 C123 1.245 . S
O125 Co119 2.058 . S
O125 C151 1.269 . S
O126 Co118 2.074 . S
O126 C151 1.257 . S
H127 C152 0.930 . S
H128 C158 0.930 . S
O129 Co118 2.093 . S
O129 C121 1.224 . S
H130 C162 0.929 . S
H131 C164 0.930 . S
H132 C165 0.930 . S
H133 C163 0.929 . S
H134 C166 0.928 . S
O135 Co119 2.057 . S
O135 C123 1.232 . S
H136 C155 0.929 . S
H137 C156 0.929 . S
H138 C168 0.931 . S
H139 C160 0.929 . S
H140 C169 0.930 . S
H141 C161 0.931 . S
O142 Co118 2.097 . S
O142 C170 1.214 . S
H143 C171 0.929 . S
H144 C172 0.929 . S
H145 C173 0.930 . S
H146 C174 0.929 . S
H147 C176 0.930 . S
H148 C153 0.930 . S
H149 C157 0.930 . S
O150 Co119 2.037 . S
O150 C170 1.234 . S
C151 O125 1.269 . S
C151 O126 1.257 . S
C152 H127 0.930 . S
C152 C155 1.388 . S
C152 C157 1.418 . S
C153 H148 0.930 . S
C153 C156 1.404 . S
C153 C157 1.353 . S
N154 Co119 2.145 . S
N154 C155 1.397 . S
N154 C156 1.334 . S
C155 H136 0.929 . S
C155 C152 1.388 . S
C155 N154 1.397 . S
C156 H137 0.929 . S
C156 C153 1.404 . S
C156 N154 1.334 . S
C157 H149 0.930 . S
C157 C152 1.418 . S
C157 C153 1.353 . S
C158 H128 0.930 . S
C158 N159 1.330 . S
C158 C160 1.446 . S
N159 Co118 2.151 . S
N159 C158 1.330 . S
N159 C163 1.418 . S
C160 H139 0.929 . S
C160 C158 1.446 . S
C160 C161 1.332 . S
C161 H141 0.931 . S
C161 C160 1.332 . S
C161 C162 1.267 . S
C162 H130 0.929 . S
C162 C161 1.267 . S
C162 C163 1.251 . S
C163 H133 0.929 . S
C163 N159 1.418 . S
C163 C162 1.251 . S
C164 H131 0.930 . S
C164 C166 1.406 . S
C164 C169 1.261 . S
C165 H132 0.930 . S
C165 N167 1.325 . S
C165 C168 1.357 . S
C166 H134 0.928 . S
C166 C164 1.406 . S
C166 N167 1.261 . S
N167 Co118 2.214 . S
N167 C165 1.325 . S
N167 C166 1.261 . S
C168 H138 0.931 . S
C168 C165 1.357 . S
C168 C169 1.312 . S
C169 H140 0.930 . S
C169 C164 1.261 . S
C169 C168 1.312 . S
C170 O142 1.214 . S
C170 O150 1.234 . S
C171 H143 0.929 . S
C171 C174 1.391 . S
C171 C176 1.391 . S
C172 H144 0.929 . S
C172 C173 1.390 . S
C172 N175 1.391 . S
C173 H145 0.930 . S
C173 C172 1.390 . S
C173 C174 1.392 . S
C174 H146 0.929 . S
C174 C171 1.391 . S
C174 C173 1.392 . S
N175 Co119 2.257 . S
N175 C172 1.391 . S
N175 C176 1.388 . S
C176 H147 0.930 . S
C176 C171 1.391 . S
C176 N175 1.388 . S
Co177 O179 2.143 . S
Co177 O185 2.074 . S
Co177 O188 2.093 . S
Co177 O201 2.097 . S
Co177 N218 2.151 . S
Co177 N226 2.214 . S
Co178 O179 2.160 . S
Co178 O184 2.058 . S
Co178 O194 2.057 . S
Co178 O209 2.037 . S
Co178 N213 2.145 . S
Co178 N234 2.257 . S
O179 Co177 2.143 . S
O179 Co178 2.160 . S
C180 O181 1.278 . S
C180 O188 1.224 . S
O181 C180 1.278 . S
C182 O183 1.245 . S
C182 O194 1.232 . S
O183 C182 1.245 . S
O184 Co178 2.058 . S
O184 C210 1.269 . S
O185 Co177 2.074 . S
O185 C210 1.257 . S
H186 C211 0.930 . S
H187 C217 0.930 . S
O188 Co177 2.093 . S
O188 C180 1.224 . S
H189 C221 0.929 . S
H190 C223 0.930 . S
H191 C224 0.930 . S
H192 C222 0.929 . S
H193 C225 0.928 . S
O194 Co178 2.057 . S
O194 C182 1.232 . S
H195 C214 0.929 . S
H196 C215 0.929 . S
H197 C227 0.931 . S
H198 C219 0.929 . S
H199 C228 0.930 . S
H200 C220 0.931 . S
O201 Co177 2.097 . S
O201 C229 1.214 . S
H202 C230 0.929 . S
H203 C231 0.929 . S
H204 C232 0.930 . S
H205 C233 0.929 . S
H206 C235 0.930 . S
H207 C212 0.930 . S
H208 C216 0.930 . S
O209 Co178 2.037 . S
O209 C229 1.234 . S
C210 O184 1.269 . S
C210 O185 1.257 . S
C211 H186 0.930 . S
C211 C214 1.388 . S
C211 C216 1.418 . S
C212 H207 0.930 . S
C212 C215 1.404 . S
C212 C216 1.353 . S
N213 Co178 2.145 . S
N213 C214 1.397 . S
N213 C215 1.334 . S
C214 H195 0.929 . S
C214 C211 1.388 . S
C214 N213 1.397 . S
C215 H196 0.929 . S
C215 C212 1.404 . S
C215 N213 1.334 . S
C216 H208 0.930 . S
C216 C211 1.418 . S
C216 C212 1.353 . S
C217 H187 0.930 . S
C217 N218 1.330 . S
C217 C219 1.446 . S
N218 Co177 2.151 . S
N218 C217 1.330 . S
N218 C222 1.418 . S
C219 H198 0.929 . S
C219 C217 1.446 . S
C219 C220 1.332 . S
C220 H200 0.931 . S
C220 C219 1.332 . S
C220 C221 1.267 . S
C221 H189 0.929 . S
C221 C220 1.267 . S
C221 C222 1.251 . S
C222 H192 0.929 . S
C222 N218 1.418 . S
C222 C221 1.251 . S
C223 H190 0.930 . S
C223 C225 1.406 . S
C223 C228 1.261 . S
C224 H191 0.930 . S
C224 N226 1.325 . S
C224 C227 1.357 . S
C225 H193 0.928 . S
C225 C223 1.406 . S
C225 N226 1.261 . S
N226 Co177 2.214 . S
N226 C224 1.325 . S
N226 C225 1.261 . S
C227 H197 0.931 . S
C227 C224 1.357 . S
C227 C228 1.312 . S
C228 H199 0.930 . S
C228 C223 1.261 . S
C228 C227 1.312 . S
C229 O201 1.214 . S
C229 O209 1.234 . S
C230 H202 0.929 . S
C230 C233 1.391 . S
C230 C235 1.391 . S
C231 H203 0.929 . S
C231 C232 1.390 . S
C231 N234 1.391 . S
C232 H204 0.930 . S
C232 C231 1.390 . S
C232 C233 1.392 . S
C233 H205 0.929 . S
C233 C230 1.391 . S
C233 C232 1.392 . S
N234 Co178 2.257 . S
N234 C231 1.391 . S
N234 C235 1.388 . S
C235 H206 0.930 . S
C235 C230 1.391 . S
C235 N234 1.388 . S
Co236 O238 2.143 . S
Co236 O244 2.074 . S
Co236 O247 2.093 . S
Co236 O260 2.097 . S
Co236 N277 2.151 . S
Co236 N285 2.214 . S
Co237 O238 2.160 . S
Co237 O243 2.058 . S
Co237 O253 2.057 . S
Co237 O268 2.037 . S
Co237 N272 2.145 . S
Co237 N293 2.257 . S
O238 Co236 2.143 . S
O238 Co237 2.160 . S
C239 O240 1.278 . S
C239 O247 1.224 . S
O240 C239 1.278 . S
C241 O242 1.245 . S
C241 O253 1.232 . S
O242 C241 1.245 . S
O243 Co237 2.058 . S
O243 C269 1.269 . S
O244 Co236 2.074 . S
O244 C269 1.257 . S
H245 C270 0.930 . S
H246 C276 0.930 . S
O247 Co236 2.093 . S
O247 C239 1.224 . S
H248 C280 0.929 . S
H249 C282 0.930 . S
H250 C283 0.930 . S
H251 C281 0.929 . S
H252 C284 0.928 . S
O253 Co237 2.057 . S
O253 C241 1.232 . S
H254 C273 0.929 . S
H255 C274 0.929 . S
H256 C286 0.931 . S
H257 C278 0.929 . S
H258 C287 0.930 . S
H259 C279 0.931 . S
O260 Co236 2.097 . S
O260 C288 1.214 . S
H261 C289 0.929 . S
H262 C290 0.929 . S
H263 C291 0.930 . S
H264 C292 0.929 . S
H265 C294 0.930 . S
H266 C271 0.930 . S
H267 C275 0.930 . S
O268 Co237 2.037 . S
O268 C288 1.234 . S
C269 O243 1.269 . S
C269 O244 1.257 . S
C270 H245 0.930 . S
C270 C273 1.388 . S
C270 C275 1.418 . S
C271 H266 0.930 . S
C271 C274 1.404 . S
C271 C275 1.353 . S
N272 Co237 2.145 . S
N272 C273 1.397 . S
N272 C274 1.334 . S
C273 H254 0.929 . S
C273 C270 1.388 . S
C273 N272 1.397 . S
C274 H255 0.929 . S
C274 C271 1.404 . S
C274 N272 1.334 . S
C275 H267 0.930 . S
C275 C270 1.418 . S
C275 C271 1.353 . S
C276 H246 0.930 . S
C276 N277 1.330 . S
C276 C278 1.446 . S
N277 Co236 2.151 . S
N277 C276 1.330 . S
N277 C281 1.418 . S
C278 H257 0.929 . S
C278 C276 1.446 . S
C278 C279 1.332 . S
C279 H259 0.931 . S
C279 C278 1.332 . S
C279 C280 1.267 . S
C280 H248 0.929 . S
C280 C279 1.267 . S
C280 C281 1.251 . S
C281 H251 0.929 . S
C281 N277 1.418 . S
C281 C280 1.251 . S
C282 H249 0.930 . S
C282 C284 1.406 . S
C282 C287 1.261 . S
C283 H250 0.930 . S
C283 N285 1.325 . S
C283 C286 1.357 . S
C284 H252 0.928 . S
C284 C282 1.406 . S
C284 N285 1.261 . S
N285 Co236 2.214 . S
N285 C283 1.325 . S
N285 C284 1.261 . S
C286 H256 0.931 . S
C286 C283 1.357 . S
C286 C287 1.312 . S
C287 H258 0.930 . S
C287 C282 1.261 . S
C287 C286 1.312 . S
C288 O260 1.214 . S
C288 O268 1.234 . S
C289 H261 0.929 . S
C289 C292 1.391 . S
C289 C294 1.391 . S
C290 H262 0.929 . S
C290 C291 1.390 . S
C290 N293 1.391 . S
C291 H263 0.930 . S
C291 C290 1.390 . S
C291 C292 1.392 . S
C292 H264 0.929 . S
C292 C289 1.391 . S
C292 C291 1.392 . S
N293 Co237 2.257 . S
N293 C290 1.391 . S
N293 C294 1.388 . S
C294 H265 0.930 . S
C294 C289 1.391 . S
C294 N293 1.388 . S
Co295 O297 2.143 . S
Co295 O303 2.074 . S
Co295 O306 2.093 . S
Co295 O319 2.097 . S
Co295 N336 2.151 . S
Co295 N344 2.214 . S
Co296 O297 2.160 . S
Co296 O302 2.058 . S
Co296 O312 2.057 . S
Co296 O327 2.037 . S
Co296 N331 2.145 . S
Co296 N352 2.257 . S
O297 Co295 2.143 . S
O297 Co296 2.160 . S
C298 O299 1.278 . S
C298 O306 1.224 . S
O299 C298 1.278 . S
C300 O301 1.245 . S
C300 O312 1.232 . S
O301 C300 1.245 . S
O302 Co296 2.058 . S
O302 C328 1.269 . S
O303 Co295 2.074 . S
O303 C328 1.257 . S
H304 C329 0.930 . S
H305 C335 0.930 . S
O306 Co295 2.093 . S
O306 C298 1.224 . S
H307 C339 0.929 . S
H308 C341 0.930 . S
H309 C342 0.930 . S
H310 C340 0.929 . S
H311 C343 0.928 . S
O312 Co296 2.057 . S
O312 C300 1.232 . S
H313 C332 0.929 . S
H314 C333 0.929 . S
H315 C345 0.931 . S
H316 C337 0.929 . S
H317 C346 0.930 . S
H318 C338 0.931 . S
O319 Co295 2.097 . S
O319 C347 1.214 . S
H320 C348 0.929 . S
H321 C349 0.929 . S
H322 C350 0.930 . S
H323 C351 0.929 . S
H324 C353 0.930 . S
H325 C330 0.930 . S
H326 C334 0.930 . S
O327 Co296 2.037 . S
O327 C347 1.234 . S
C328 O302 1.269 . S
C328 O303 1.257 . S
C329 H304 0.930 . S
C329 C332 1.388 . S
C329 C334 1.418 . S
C330 H325 0.930 . S
C330 C333 1.404 . S
C330 C334 1.353 . S
N331 Co296 2.145 . S
N331 C332 1.397 . S
N331 C333 1.334 . S
C332 H313 0.929 . S
C332 C329 1.388 . S
C332 N331 1.397 . S
C333 H314 0.929 . S
C333 C330 1.404 . S
C333 N331 1.334 . S
C334 H326 0.930 . S
C334 C329 1.418 . S
C334 C330 1.353 . S
C335 H305 0.930 . S
C335 N336 1.330 . S
C335 C337 1.446 . S
N336 Co295 2.151 . S
N336 C335 1.330 . S
N336 C340 1.418 . S
C337 H316 0.929 . S
C337 C335 1.446 . S
C337 C338 1.332 . S
C338 H318 0.931 . S
C338 C337 1.332 . S
C338 C339 1.267 . S
C339 H307 0.929 . S
C339 C338 1.267 . S
C339 C340 1.251 . S
C340 H310 0.929 . S
C340 N336 1.418 . S
C340 C339 1.251 . S
C341 H308 0.930 . S
C341 C343 1.406 . S
C341 C346 1.261 . S
C342 H309 0.930 . S
C342 N344 1.325 . S
C342 C345 1.357 . S
C343 H311 0.928 . S
C343 C341 1.406 . S
C343 N344 1.261 . S
N344 Co295 2.214 . S
N344 C342 1.325 . S
N344 C343 1.261 . S
C345 H315 0.931 . S
C345 C342 1.357 . S
C345 C346 1.312 . S
C346 H317 0.930 . S
C346 C341 1.261 . S
C346 C345 1.312 . S
C347 O319 1.214 . S
C347 O327 1.234 . S
C348 H320 0.929 . S
C348 C351 1.391 . S
C348 C353 1.391 . S
C349 H321 0.929 . S
C349 C350 1.390 . S
C349 N352 1.391 . S
C350 H322 0.930 . S
C350 C349 1.390 . S
C350 C351 1.392 . S
C351 H323 0.929 . S
C351 C348 1.391 . S
C351 C350 1.392 . S
N352 Co296 2.257 . S
N352 C349 1.391 . S
N352 C353 1.388 . S
C353 H324 0.930 . S
C353 C348 1.391 . S
C353 N352 1.388 . S
Co354 O356 2.143 . S
Co354 O362 2.074 . S
Co354 O365 2.093 . S
Co354 O378 2.097 . S
Co354 N395 2.151 . S
Co354 N403 2.214 . S
Co355 O356 2.160 . S
Co355 O361 2.058 . S
Co355 O371 2.057 . S
Co355 O386 2.037 . S
Co355 N390 2.145 . S
Co355 N411 2.257 . S
O356 Co354 2.143 . S
O356 Co355 2.160 . S
C357 O358 1.278 . S
C357 O365 1.224 . S
O358 C357 1.278 . S
C359 O360 1.245 . S
C359 O371 1.232 . S
O360 C359 1.245 . S
O361 Co355 2.058 . S
O361 C387 1.269 . S
O362 Co354 2.074 . S
O362 C387 1.257 . S
H363 C388 0.930 . S
H364 C394 0.930 . S
O365 Co354 2.093 . S
O365 C357 1.224 . S
H366 C398 0.929 . S
H367 C400 0.930 . S
H368 C401 0.930 . S
H369 C399 0.929 . S
H370 C402 0.928 . S
O371 Co355 2.057 . S
O371 C359 1.232 . S
H372 C391 0.929 . S
H373 C392 0.929 . S
H374 C404 0.931 . S
H375 C396 0.929 . S
H376 C405 0.930 . S
H377 C397 0.931 . S
O378 Co354 2.097 . S
O378 C406 1.214 . S
H379 C407 0.929 . S
H380 C408 0.929 . S
H381 C409 0.930 . S
H382 C410 0.929 . S
H383 C412 0.930 . S
H384 C389 0.930 . S
H385 C393 0.930 . S
O386 Co355 2.037 . S
O386 C406 1.234 . S
C387 O361 1.269 . S
C387 O362 1.257 . S
C388 H363 0.930 . S
C388 C391 1.388 . S
C388 C393 1.418 . S
C389 H384 0.930 . S
C389 C392 1.404 . S
C389 C393 1.353 . S
N390 Co355 2.145 . S
N390 C391 1.397 . S
N390 C392 1.334 . S
C391 H372 0.929 . S
C391 C388 1.388 . S
C391 N390 1.397 . S
C392 H373 0.929 . S
C392 C389 1.404 . S
C392 N390 1.334 . S
C393 H385 0.930 . S
C393 C388 1.418 . S
C393 C389 1.353 . S
C394 H364 0.930 . S
C394 N395 1.330 . S
C394 C396 1.446 . S
N395 Co354 2.151 . S
N395 C394 1.330 . S
N395 C399 1.418 . S
C396 H375 0.929 . S
C396 C394 1.446 . S
C396 C397 1.332 . S
C397 H377 0.931 . S
C397 C396 1.332 . S
C397 C398 1.267 . S
C398 H366 0.929 . S
C398 C397 1.267 . S
C398 C399 1.251 . S
C399 H369 0.929 . S
C399 N395 1.418 . S
C399 C398 1.251 . S
C400 H367 0.930 . S
C400 C402 1.406 . S
C400 C405 1.261 . S
C401 H368 0.930 . S
C401 N403 1.325 . S
C401 C404 1.357 . S
C402 H370 0.928 . S
C402 C400 1.406 . S
C402 N403 1.261 . S
N403 Co354 2.214 . S
N403 C401 1.325 . S
N403 C402 1.261 . S
C404 H374 0.931 . S
C404 C401 1.357 . S
C404 C405 1.312 . S
C405 H376 0.930 . S
C405 C400 1.261 . S
C405 C404 1.312 . S
C406 O378 1.214 . S
C406 O386 1.234 . S
C407 H379 0.929 . S
C407 C410 1.391 . S
C407 C412 1.391 . S
C408 H380 0.929 . S
C408 C409 1.390 . S
C408 N411 1.391 . S
C409 H381 0.930 . S
C409 C408 1.390 . S
C409 C410 1.392 . S
C410 H382 0.929 . S
C410 C407 1.391 . S
C410 C409 1.392 . S
N411 Co355 2.257 . S
N411 C408 1.391 . S
N411 C412 1.388 . S
C412 H383 0.930 . S
C412 C407 1.391 . S
C412 N411 1.388 . S
Co413 O415 2.143 . S
Co413 O421 2.074 . S
Co413 O424 2.093 . S
Co413 O437 2.097 . S
Co413 N454 2.151 . S
Co413 N462 2.214 . S
Co414 O415 2.160 . S
Co414 O420 2.058 . S
Co414 O430 2.057 . S
Co414 O445 2.037 . S
Co414 N449 2.145 . S
Co414 N470 2.257 . S
O415 Co413 2.143 . S
O415 Co414 2.160 . S
C416 O417 1.278 . S
C416 O424 1.224 . S
O417 C416 1.278 . S
C418 O419 1.245 . S
C418 O430 1.232 . S
O419 C418 1.245 . S
O420 Co414 2.058 . S
O420 C446 1.269 . S
O421 Co413 2.074 . S
O421 C446 1.257 . S
H422 C447 0.930 . S
H423 C453 0.930 . S
O424 Co413 2.093 . S
O424 C416 1.224 . S
H425 C457 0.929 . S
H426 C459 0.930 . S
H427 C460 0.930 . S
H428 C458 0.929 . S
H429 C461 0.928 . S
O430 Co414 2.057 . S
O430 C418 1.232 . S
H431 C450 0.929 . S
H432 C451 0.929 . S
H433 C463 0.931 . S
H434 C455 0.929 . S
H435 C464 0.930 . S
H436 C456 0.931 . S
O437 Co413 2.097 . S
O437 C465 1.214 . S
H438 C466 0.929 . S
H439 C467 0.929 . S
H440 C468 0.930 . S
H441 C469 0.929 . S
H442 C471 0.930 . S
H443 C448 0.930 . S
H444 C452 0.930 . S
O445 Co414 2.037 . S
O445 C465 1.234 . S
C446 O420 1.269 . S
C446 O421 1.257 . S
C447 H422 0.930 . S
C447 C450 1.388 . S
C447 C452 1.418 . S
C448 H443 0.930 . S
C448 C451 1.404 . S
C448 C452 1.353 . S
N449 Co414 2.145 . S
N449 C450 1.397 . S
N449 C451 1.334 . S
C450 H431 0.929 . S
C450 C447 1.388 . S
C450 N449 1.397 . S
C451 H432 0.929 . S
C451 C448 1.404 . S
C451 N449 1.334 . S
C452 H444 0.930 . S
C452 C447 1.418 . S
C452 C448 1.353 . S
C453 H423 0.930 . S
C453 N454 1.330 . S
C453 C455 1.446 . S
N454 Co413 2.151 . S
N454 C453 1.330 . S
N454 C458 1.418 . S
C455 H434 0.929 . S
C455 C453 1.446 . S
C455 C456 1.332 . S
C456 H436 0.931 . S
C456 C455 1.332 . S
C456 C457 1.267 . S
C457 H425 0.929 . S
C457 C456 1.267 . S
C457 C458 1.251 . S
C458 H428 0.929 . S
C458 N454 1.418 . S
C458 C457 1.251 . S
C459 H426 0.930 . S
C459 C461 1.406 . S
C459 C464 1.261 . S
C460 H427 0.930 . S
C460 N462 1.325 . S
C460 C463 1.357 . S
C461 H429 0.928 . S
C461 C459 1.406 . S
C461 N462 1.261 . S
N462 Co413 2.214 . S
N462 C460 1.325 . S
N462 C461 1.261 . S
C463 H433 0.931 . S
C463 C460 1.357 . S
C463 C464 1.312 . S
C464 H435 0.930 . S
C464 C459 1.261 . S
C464 C463 1.312 . S
C465 O437 1.214 . S
C465 O445 1.234 . S
C466 H438 0.929 . S
C466 C469 1.391 . S
C466 C471 1.391 . S
C467 H439 0.929 . S
C467 C468 1.390 . S
C467 N470 1.391 . S
C468 H440 0.930 . S
C468 C467 1.390 . S
C468 C469 1.392 . S
C469 H441 0.929 . S
C469 C466 1.391 . S
C469 C468 1.392 . S
N470 Co414 2.257 . S
N470 C467 1.391 . S
N470 C471 1.388 . S
C471 H442 0.930 . S
C471 C466 1.391 . S
C471 N470 1.388 . S
Co472 O474 2.143 . S
Co472 O480 2.074 . S
Co472 O483 2.093 . S
Co472 O496 2.097 . S
Co472 N513 2.151 . S
Co472 N521 2.214 . S
Co473 O474 2.160 . S
Co473 O479 2.058 . S
Co473 O489 2.057 . S
Co473 O504 2.037 . S
Co473 N508 2.145 . S
Co473 N529 2.257 . S
O474 Co472 2.143 . S
O474 Co473 2.160 . S
C475 O476 1.278 . S
C475 O483 1.224 . S
O476 C475 1.278 . S
C477 O478 1.245 . S
C477 O489 1.232 . S
O478 C477 1.245 . S
O479 Co473 2.058 . S
O479 C505 1.269 . S
O480 Co472 2.074 . S
O480 C505 1.257 . S
H481 C506 0.930 . S
H482 C512 0.930 . S
O483 Co472 2.093 . S
O483 C475 1.224 . S
H484 C516 0.929 . S
H485 C518 0.930 . S
H486 C519 0.930 . S
H487 C517 0.929 . S
H488 C520 0.928 . S
O489 Co473 2.057 . S
O489 C477 1.232 . S
H490 C509 0.929 . S
H491 C510 0.929 . S
H492 C522 0.931 . S
H493 C514 0.929 . S
H494 C523 0.930 . S
H495 C515 0.931 . S
O496 Co472 2.097 . S
O496 C524 1.214 . S
H497 C525 0.929 . S
H498 C526 0.929 . S
H499 C527 0.930 . S
H500 C528 0.929 . S
H501 C530 0.930 . S
H502 C507 0.930 . S
H503 C511 0.930 . S
O504 Co473 2.037 . S
O504 C524 1.234 . S
C505 O479 1.269 . S
C505 O480 1.257 . S
C506 H481 0.930 . S
C506 C509 1.388 . S
C506 C511 1.418 . S
C507 H502 0.930 . S
C507 C510 1.404 . S
C507 C511 1.353 . S
N508 Co473 2.145 . S
N508 C509 1.397 . S
N508 C510 1.334 . S
C509 H490 0.929 . S
C509 C506 1.388 . S
C509 N508 1.397 . S
C510 H491 0.929 . S
C510 C507 1.404 . S
C510 N508 1.334 . S
C511 H503 0.930 . S
C511 C506 1.418 . S
C511 C507 1.353 . S
C512 H482 0.930 . S
C512 N513 1.330 . S
C512 C514 1.446 . S
N513 Co472 2.151 . S
N513 C512 1.330 . S
N513 C517 1.418 . S
C514 H493 0.929 . S
C514 C512 1.446 . S
C514 C515 1.332 . S
C515 H495 0.931 . S
C515 C514 1.332 . S
C515 C516 1.267 . S
C516 H484 0.929 . S
C516 C515 1.267 . S
C516 C517 1.251 . S
C517 H487 0.929 . S
C517 N513 1.418 . S
C517 C516 1.251 . S
C518 H485 0.930 . S
C518 C520 1.406 . S
C518 C523 1.261 . S
C519 H486 0.930 . S
C519 N521 1.325 . S
C519 C522 1.357 . S
C520 H488 0.928 . S
C520 C518 1.406 . S
C520 N521 1.261 . S
N521 Co472 2.214 . S
N521 C519 1.325 . S
N521 C520 1.261 . S
C522 H492 0.931 . S
C522 C519 1.357 . S
C522 C523 1.312 . S
C523 H494 0.930 . S
C523 C518 1.261 . S
C523 C522 1.312 . S
C524 O496 1.214 . S
C524 O504 1.234 . S
C525 H497 0.929 . S
C525 C528 1.391 . S
C525 C530 1.391 . S
C526 H498 0.929 . S
C526 C527 1.390 . S
C526 N529 1.391 . S
C527 H499 0.930 . S
C527 C526 1.390 . S
C527 C528 1.392 . S
C528 H500 0.929 . S
C528 C525 1.391 . S
C528 C527 1.392 . S
N529 Co473 2.257 . S
N529 C526 1.391 . S
N529 C530 1.388 . S
C530 H501 0.930 . S
C530 C525 1.391 . S
C530 N529 1.388 . S
Co531 O533 2.143 . S
Co531 O539 2.074 . S
Co531 O542 2.093 . S
Co531 O555 2.097 . S
Co531 N572 2.151 . S
Co531 N580 2.214 . S
Co532 O533 2.160 . S
Co532 O538 2.058 . S
Co532 O548 2.057 . S
Co532 O563 2.037 . S
Co532 N567 2.145 . S
Co532 N588 2.257 . S
O533 Co531 2.143 . S
O533 Co532 2.160 . S
C534 O535 1.278 . S
C534 O542 1.224 . S
O535 C534 1.278 . S
C536 O537 1.245 . S
C536 O548 1.232 . S
O537 C536 1.245 . S
O538 Co532 2.058 . S
O538 C564 1.269 . S
O539 Co531 2.074 . S
O539 C564 1.257 . S
H540 C565 0.930 . S
H541 C571 0.930 . S
O542 Co531 2.093 . S
O542 C534 1.224 . S
H543 C575 0.929 . S
H544 C577 0.930 . S
H545 C578 0.930 . S
H546 C576 0.929 . S
H547 C579 0.928 . S
O548 Co532 2.057 . S
O548 C536 1.232 . S
H549 C568 0.929 . S
H550 C569 0.929 . S
H551 C581 0.931 . S
H552 C573 0.929 . S
H553 C582 0.930 . S
H554 C574 0.931 . S
O555 Co531 2.097 . S
O555 C583 1.214 . S
H556 C584 0.929 . S
H557 C585 0.929 . S
H558 C586 0.930 . S
H559 C587 0.929 . S
H560 C589 0.930 . S
H561 C566 0.930 . S
H562 C570 0.930 . S
O563 Co532 2.037 . S
O563 C583 1.234 . S
C564 O538 1.269 . S
C564 O539 1.257 . S
C565 H540 0.930 . S
C565 C568 1.388 . S
C565 C570 1.418 . S
C566 H561 0.930 . S
C566 C569 1.404 . S
C566 C570 1.353 . S
N567 Co532 2.145 . S
N567 C568 1.397 . S
N567 C569 1.334 . S
C568 H549 0.929 . S
C568 C565 1.388 . S
C568 N567 1.397 . S
C569 H550 0.929 . S
C569 C566 1.404 . S
C569 N567 1.334 . S
C570 H562 0.930 . S
C570 C565 1.418 . S
C570 C566 1.353 . S
C571 H541 0.930 . S
C571 N572 1.330 . S
C571 C573 1.446 . S
N572 Co531 2.151 . S
N572 C571 1.330 . S
N572 C576 1.418 . S
C573 H552 0.929 . S
C573 C571 1.446 . S
C573 C574 1.332 . S
C574 H554 0.931 . S
C574 C573 1.332 . S
C574 C575 1.267 . S
C575 H543 0.929 . S
C575 C574 1.267 . S
C575 C576 1.251 . S
C576 H546 0.929 . S
C576 N572 1.418 . S
C576 C575 1.251 . S
C577 H544 0.930 . S
C577 C579 1.406 . S
C577 C582 1.261 . S
C578 H545 0.930 . S
C578 N580 1.325 . S
C578 C581 1.357 . S
C579 H547 0.928 . S
C579 C577 1.406 . S
C579 N580 1.261 . S
N580 Co531 2.214 . S
N580 C578 1.325 . S
N580 C579 1.261 . S
C581 H551 0.931 . S
C581 C578 1.357 . S
C581 C582 1.312 . S
C582 H553 0.930 . S
C582 C577 1.261 . S
C582 C581 1.312 . S
C583 O555 1.214 . S
C583 O563 1.234 . S
C584 H556 0.929 . S
C584 C587 1.391 . S
C584 C589 1.391 . S
C585 H557 0.929 . S
C585 C586 1.390 . S
C585 N588 1.391 . S
C586 H558 0.930 . S
C586 C585 1.390 . S
C586 C587 1.392 . S
C587 H559 0.929 . S
C587 C584 1.391 . S
C587 C586 1.392 . S
N588 Co532 2.257 . S
N588 C585 1.391 . S
N588 C589 1.388 . S
C589 H560 0.930 . S
C589 C584 1.391 . S
C589 N588 1.388 . S
Co590 O592 2.143 . S
Co590 O598 2.074 . S
Co590 O601 2.093 . S
Co590 O614 2.097 . S
Co590 N631 2.151 . S
Co590 N639 2.214 . S
Co591 O592 2.160 . S
Co591 O597 2.058 . S
Co591 O607 2.057 . S
Co591 O622 2.037 . S
Co591 N626 2.145 . S
Co591 N647 2.257 . S
O592 Co590 2.143 . S
O592 Co591 2.160 . S
C593 O594 1.278 . S
C593 O601 1.224 . S
O594 C593 1.278 . S
C595 O596 1.245 . S
C595 O607 1.232 . S
O596 C595 1.245 . S
O597 Co591 2.058 . S
O597 C623 1.269 . S
O598 Co590 2.074 . S
O598 C623 1.257 . S
H599 C624 0.930 . S
H600 C630 0.930 . S
O601 Co590 2.093 . S
O601 C593 1.224 . S
H602 C634 0.929 . S
H603 C636 0.930 . S
H604 C637 0.930 . S
H605 C635 0.929 . S
H606 C638 0.928 . S
O607 Co591 2.057 . S
O607 C595 1.232 . S
H608 C627 0.929 . S
H609 C628 0.929 . S
H610 C640 0.931 . S
H611 C632 0.929 . S
H612 C641 0.930 . S
H613 C633 0.931 . S
O614 Co590 2.097 . S
O614 C642 1.214 . S
H615 C643 0.929 . S
H616 C644 0.929 . S
H617 C645 0.930 . S
H618 C646 0.929 . S
H619 C648 0.930 . S
H620 C625 0.930 . S
H621 C629 0.930 . S
O622 Co591 2.037 . S
O622 C642 1.234 . S
C623 O597 1.269 . S
C623 O598 1.257 . S
C624 H599 0.930 . S
C624 C627 1.388 . S
C624 C629 1.418 . S
C625 H620 0.930 . S
C625 C628 1.404 . S
C625 C629 1.353 . S
N626 Co591 2.145 . S
N626 C627 1.397 . S
N626 C628 1.334 . S
C627 H608 0.929 . S
C627 C624 1.388 . S
C627 N626 1.397 . S
C628 H609 0.929 . S
C628 C625 1.404 . S
C628 N626 1.334 . S
C629 H621 0.930 . S
C629 C624 1.418 . S
C629 C625 1.353 . S
C630 H600 0.930 . S
C630 N631 1.330 . S
C630 C632 1.446 . S
N631 Co590 2.151 . S
N631 C630 1.330 . S
N631 C635 1.418 . S
C632 H611 0.929 . S
C632 C630 1.446 . S
C632 C633 1.332 . S
C633 H613 0.931 . S
C633 C632 1.332 . S
C633 C634 1.267 . S
C634 H602 0.929 . S
C634 C633 1.267 . S
C634 C635 1.251 . S
C635 H605 0.929 . S
C635 N631 1.418 . S
C635 C634 1.251 . S
C636 H603 0.930 . S
C636 C638 1.406 . S
C636 C641 1.261 . S
C637 H604 0.930 . S
C637 N639 1.325 . S
C637 C640 1.357 . S
C638 H606 0.928 . S
C638 C636 1.406 . S
C638 N639 1.261 . S
N639 Co590 2.214 . S
N639 C637 1.325 . S
N639 C638 1.261 . S
C640 H610 0.931 . S
C640 C637 1.357 . S
C640 C641 1.312 . S
C641 H612 0.930 . S
C641 C636 1.261 . S
C641 C640 1.312 . S
C642 O614 1.214 . S
C642 O622 1.234 . S
C643 H615 0.929 . S
C643 C646 1.391 . S
C643 C648 1.391 . S
C644 H616 0.929 . S
C644 C645 1.390 . S
C644 N647 1.391 . S
C645 H617 0.930 . S
C645 C644 1.390 . S
C645 C646 1.392 . S
C646 H618 0.929 . S
C646 C643 1.391 . S
C646 C645 1.392 . S
N647 Co591 2.257 . S
N647 C644 1.391 . S
N647 C648 1.388 . S
C648 H619 0.930 . S
C648 C643 1.391 . S
C648 N647 1.388 . S
Co649 O651 2.143 . S
Co649 O657 2.074 . S
Co649 O660 2.093 . S
Co649 O673 2.097 . S
Co649 N690 2.151 . S
Co649 N698 2.214 . S
Co650 O651 2.160 . S
Co650 O656 2.058 . S
Co650 O666 2.057 . S
Co650 O681 2.037 . S
Co650 N685 2.145 . S
Co650 N706 2.257 . S
O651 Co649 2.143 . S
O651 Co650 2.160 . S
C652 O653 1.278 . S
C652 O660 1.224 . S
O653 C652 1.278 . S
C654 O655 1.245 . S
C654 O666 1.232 . S
O655 C654 1.245 . S
O656 Co650 2.058 . S
O656 C682 1.269 . S
O657 Co649 2.074 . S
O657 C682 1.257 . S
H658 C683 0.930 . S
H659 C689 0.930 . S
O660 Co649 2.093 . S
O660 C652 1.224 . S
H661 C693 0.929 . S
H662 C695 0.930 . S
H663 C696 0.930 . S
H664 C694 0.929 . S
H665 C697 0.928 . S
O666 Co650 2.057 . S
O666 C654 1.232 . S
H667 C686 0.929 . S
H668 C687 0.929 . S
H669 C699 0.931 . S
H670 C691 0.929 . S
H671 C700 0.930 . S
H672 C692 0.931 . S
O673 Co649 2.097 . S
O673 C701 1.214 . S
H674 C702 0.929 . S
H675 C703 0.929 . S
H676 C704 0.930 . S
H677 C705 0.929 . S
H678 C707 0.930 . S
H679 C684 0.930 . S
H680 C688 0.930 . S
O681 Co650 2.037 . S
O681 C701 1.234 . S
C682 O656 1.269 . S
C682 O657 1.257 . S
C683 H658 0.930 . S
C683 C686 1.388 . S
C683 C688 1.418 . S
C684 H679 0.930 . S
C684 C687 1.404 . S
C684 C688 1.353 . S
N685 Co650 2.145 . S
N685 C686 1.397 . S
N685 C687 1.334 . S
C686 H667 0.929 . S
C686 C683 1.388 . S
C686 N685 1.397 . S
C687 H668 0.929 . S
C687 C684 1.404 . S
C687 N685 1.334 . S
C688 H680 0.930 . S
C688 C683 1.418 . S
C688 C684 1.353 . S
C689 H659 0.930 . S
C689 N690 1.330 . S
C689 C691 1.446 . S
N690 Co649 2.151 . S
N690 C689 1.330 . S
N690 C694 1.418 . S
C691 H670 0.929 . S
C691 C689 1.446 . S
C691 C692 1.332 . S
C692 H672 0.931 . S
C692 C691 1.332 . S
C692 C693 1.267 . S
C693 H661 0.929 . S
C693 C692 1.267 . S
C693 C694 1.251 . S
C694 H664 0.929 . S
C694 N690 1.418 . S
C694 C693 1.251 . S
C695 H662 0.930 . S
C695 C697 1.406 . S
C695 C700 1.261 . S
C696 H663 0.930 . S
C696 N698 1.325 . S
C696 C699 1.357 . S
C697 H665 0.928 . S
C697 C695 1.406 . S
C697 N698 1.261 . S
N698 Co649 2.214 . S
N698 C696 1.325 . S
N698 C697 1.261 . S
C699 H669 0.931 . S
C699 C696 1.357 . S
C699 C700 1.312 . S
C700 H671 0.930 . S
C700 C695 1.261 . S
C700 C699 1.312 . S
C701 O673 1.214 . S
C701 O681 1.234 . S
C702 H674 0.929 . S
C702 C705 1.391 . S
C702 C707 1.391 . S
C703 H675 0.929 . S
C703 C704 1.390 . S
C703 N706 1.391 . S
C704 H676 0.930 . S
C704 C703 1.390 . S
C704 C705 1.392 . S
C705 H677 0.929 . S
C705 C702 1.391 . S
C705 C704 1.392 . S
N706 Co650 2.257 . S
N706 C703 1.391 . S
N706 C707 1.388 . S
C707 H678 0.930 . S
C707 C702 1.391 . S
C707 N706 1.388 . S
Co708 O710 2.143 . S
Co708 O716 2.074 . S
Co708 O719 2.093 . S
Co708 O732 2.097 . S
Co708 N749 2.151 . S
Co708 N757 2.214 . S
Co709 O710 2.160 . S
Co709 O715 2.058 . S
Co709 O725 2.057 . S
Co709 O740 2.037 . S
Co709 N744 2.145 . S
Co709 N765 2.257 . S
O710 Co708 2.143 . S
O710 Co709 2.160 . S
C711 O712 1.278 . S
C711 O719 1.224 . S
O712 C711 1.278 . S
C713 O714 1.245 . S
C713 O725 1.232 . S
O714 C713 1.245 . S
O715 Co709 2.058 . S
O715 C741 1.269 . S
O716 Co708 2.074 . S
O716 C741 1.257 . S
H717 C742 0.930 . S
H718 C748 0.930 . S
O719 Co708 2.093 . S
O719 C711 1.224 . S
H720 C752 0.929 . S
H721 C754 0.930 . S
H722 C755 0.930 . S
H723 C753 0.929 . S
H724 C756 0.928 . S
O725 Co709 2.057 . S
O725 C713 1.232 . S
H726 C745 0.929 . S
H727 C746 0.929 . S
H728 C758 0.931 . S
H729 C750 0.929 . S
H730 C759 0.930 . S
H731 C751 0.931 . S
O732 Co708 2.097 . S
O732 C760 1.214 . S
H733 C761 0.929 . S
H734 C762 0.929 . S
H735 C763 0.930 . S
H736 C764 0.929 . S
H737 C766 0.930 . S
H738 C743 0.930 . S
H739 C747 0.930 . S
O740 Co709 2.037 . S
O740 C760 1.234 . S
C741 O715 1.269 . S
C741 O716 1.257 . S
C742 H717 0.930 . S
C742 C745 1.388 . S
C742 C747 1.418 . S
C743 H738 0.930 . S
C743 C746 1.404 . S
C743 C747 1.353 . S
N744 Co709 2.145 . S
N744 C745 1.397 . S
N744 C746 1.334 . S
C745 H726 0.929 . S
C745 C742 1.388 . S
C745 N744 1.397 . S
C746 H727 0.929 . S
C746 C743 1.404 . S
C746 N744 1.334 . S
C747 H739 0.930 . S
C747 C742 1.418 . S
C747 C743 1.353 . S
C748 H718 0.930 . S
C748 N749 1.330 . S
C748 C750 1.446 . S
N749 Co708 2.151 . S
N749 C748 1.330 . S
N749 C753 1.418 . S
C750 H729 0.929 . S
C750 C748 1.446 . S
C750 C751 1.332 . S
C751 H731 0.931 . S
C751 C750 1.332 . S
C751 C752 1.267 . S
C752 H720 0.929 . S
C752 C751 1.267 . S
C752 C753 1.251 . S
C753 H723 0.929 . S
C753 N749 1.418 . S
C753 C752 1.251 . S
C754 H721 0.930 . S
C754 C756 1.406 . S
C754 C759 1.261 . S
C755 H722 0.930 . S
C755 N757 1.325 . S
C755 C758 1.357 . S
C756 H724 0.928 . S
C756 C754 1.406 . S
C756 N757 1.261 . S
N757 Co708 2.214 . S
N757 C755 1.325 . S
N757 C756 1.261 . S
C758 H728 0.931 . S
C758 C755 1.357 . S
C758 C759 1.312 . S
C759 H730 0.930 . S
C759 C754 1.261 . S
C759 C758 1.312 . S
C760 O732 1.214 . S
C760 O740 1.234 . S
C761 H733 0.929 . S
C761 C764 1.391 . S
C761 C766 1.391 . S
C762 H734 0.929 . S
C762 C763 1.390 . S
C762 N765 1.391 . S
C763 H735 0.930 . S
C763 C762 1.390 . S
C763 C764 1.392 . S
C764 H736 0.929 . S
C764 C761 1.391 . S
C764 C763 1.392 . S
N765 Co709 2.257 . S
N765 C762 1.391 . S
N765 C766 1.388 . S
C766 H737 0.930 . S
C766 C761 1.391 . S
C766 N765 1.388 . S
Co767 O769 2.143 . S
Co767 O775 2.074 . S
Co767 O778 2.093 . S
Co767 O791 2.097 . S
Co767 N808 2.151 . S
Co767 N816 2.214 . S
Co768 O769 2.160 . S
Co768 O774 2.058 . S
Co768 O784 2.057 . S
Co768 O799 2.037 . S
Co768 N803 2.145 . S
Co768 N824 2.257 . S
O769 Co767 2.143 . S
O769 Co768 2.160 . S
C770 O771 1.278 . S
C770 O778 1.224 . S
O771 C770 1.278 . S
C772 O773 1.245 . S
C772 O784 1.232 . S
O773 C772 1.245 . S
O774 Co768 2.058 . S
O774 C800 1.269 . S
O775 Co767 2.074 . S
O775 C800 1.257 . S
H776 C801 0.930 . S
H777 C807 0.930 . S
O778 Co767 2.093 . S
O778 C770 1.224 . S
H779 C811 0.929 . S
H780 C813 0.930 . S
H781 C814 0.930 . S
H782 C812 0.929 . S
H783 C815 0.928 . S
O784 Co768 2.057 . S
O784 C772 1.232 . S
H785 C804 0.929 . S
H786 C805 0.929 . S
H787 C817 0.931 . S
H788 C809 0.929 . S
H789 C818 0.930 . S
H790 C810 0.931 . S
O791 Co767 2.097 . S
O791 C819 1.214 . S
H792 C820 0.929 . S
H793 C821 0.929 . S
H794 C822 0.930 . S
H795 C823 0.929 . S
H796 C825 0.930 . S
H797 C802 0.930 . S
H798 C806 0.930 . S
O799 Co768 2.037 . S
O799 C819 1.234 . S
C800 O774 1.269 . S
C800 O775 1.257 . S
C801 H776 0.930 . S
C801 C804 1.388 . S
C801 C806 1.418 . S
C802 H797 0.930 . S
C802 C805 1.404 . S
C802 C806 1.353 . S
N803 Co768 2.145 . S
N803 C804 1.397 . S
N803 C805 1.334 . S
C804 H785 0.929 . S
C804 C801 1.388 . S
C804 N803 1.397 . S
C805 H786 0.929 . S
C805 C802 1.404 . S
C805 N803 1.334 . S
C806 H798 0.930 . S
C806 C801 1.418 . S
C806 C802 1.353 . S
C807 H777 0.930 . S
C807 N808 1.330 . S
C807 C809 1.446 . S
N808 Co767 2.151 . S
N808 C807 1.330 . S
N808 C812 1.418 . S
C809 H788 0.929 . S
C809 C807 1.446 . S
C809 C810 1.332 . S
C810 H790 0.931 . S
C810 C809 1.332 . S
C810 C811 1.267 . S
C811 H779 0.929 . S
C811 C810 1.267 . S
C811 C812 1.251 . S
C812 H782 0.929 . S
C812 N808 1.418 . S
C812 C811 1.251 . S
C813 H780 0.930 . S
C813 C815 1.406 . S
C813 C818 1.261 . S
C814 H781 0.930 . S
C814 N816 1.325 . S
C814 C817 1.357 . S
C815 H783 0.928 . S
C815 C813 1.406 . S
C815 N816 1.261 . S
N816 Co767 2.214 . S
N816 C814 1.325 . S
N816 C815 1.261 . S
C817 H787 0.931 . S
C817 C814 1.357 . S
C817 C818 1.312 . S
C818 H789 0.930 . S
C818 C813 1.261 . S
C818 C817 1.312 . S
C819 O791 1.214 . S
C819 O799 1.234 . S
C820 H792 0.929 . S
C820 C823 1.391 . S
C820 C825 1.391 . S
C821 H793 0.929 . S
C821 C822 1.390 . S
C821 N824 1.391 . S
C822 H794 0.930 . S
C822 C821 1.390 . S
C822 C823 1.392 . S
C823 H795 0.929 . S
C823 C820 1.391 . S
C823 C822 1.392 . S
N824 Co768 2.257 . S
N824 C821 1.391 . S
N824 C825 1.388 . S
C825 H796 0.930 . S
C825 C820 1.391 . S
C825 N824 1.388 . S
Co826 O828 2.143 . S
Co826 O834 2.074 . S
Co826 O837 2.093 . S
Co826 O850 2.097 . S
Co826 N867 2.151 . S
Co826 N875 2.214 . S
Co827 O828 2.160 . S
Co827 O833 2.058 . S
Co827 O843 2.057 . S
Co827 O858 2.037 . S
Co827 N862 2.145 . S
Co827 N883 2.257 . S
O828 Co826 2.143 . S
O828 Co827 2.160 . S
C829 O830 1.278 . S
C829 O837 1.224 . S
O830 C829 1.278 . S
C831 O832 1.245 . S
C831 O843 1.232 . S
O832 C831 1.245 . S
O833 Co827 2.058 . S
O833 C859 1.269 . S
O834 Co826 2.074 . S
O834 C859 1.257 . S
H835 C860 0.930 . S
H836 C866 0.930 . S
O837 Co826 2.093 . S
O837 C829 1.224 . S
H838 C870 0.929 . S
H839 C872 0.930 . S
H840 C873 0.930 . S
H841 C871 0.929 . S
H842 C874 0.928 . S
O843 Co827 2.057 . S
O843 C831 1.232 . S
H844 C863 0.929 . S
H845 C864 0.929 . S
H846 C876 0.931 . S
H847 C868 0.929 . S
H848 C877 0.930 . S
H849 C869 0.931 . S
O850 Co826 2.097 . S
O850 C878 1.214 . S
H851 C879 0.929 . S
H852 C880 0.929 . S
H853 C881 0.930 . S
H854 C882 0.929 . S
H855 C884 0.930 . S
H856 C861 0.930 . S
H857 C865 0.930 . S
O858 Co827 2.037 . S
O858 C878 1.234 . S
C859 O833 1.269 . S
C859 O834 1.257 . S
C860 H835 0.930 . S
C860 C863 1.388 . S
C860 C865 1.418 . S
C861 H856 0.930 . S
C861 C864 1.404 . S
C861 C865 1.353 . S
N862 Co827 2.145 . S
N862 C863 1.397 . S
N862 C864 1.334 . S
C863 H844 0.929 . S
C863 C860 1.388 . S
C863 N862 1.397 . S
C864 H845 0.929 . S
C864 C861 1.404 . S
C864 N862 1.334 . S
C865 H857 0.930 . S
C865 C860 1.418 . S
C865 C861 1.353 . S
C866 H836 0.930 . S
C866 N867 1.330 . S
C866 C868 1.446 . S
N867 Co826 2.151 . S
N867 C866 1.330 . S
N867 C871 1.418 . S
C868 H847 0.929 . S
C868 C866 1.446 . S
C868 C869 1.332 . S
C869 H849 0.931 . S
C869 C868 1.332 . S
C869 C870 1.267 . S
C870 H838 0.929 . S
C870 C869 1.267 . S
C870 C871 1.251 . S
C871 H841 0.929 . S
C871 N867 1.418 . S
C871 C870 1.251 . S
C872 H839 0.930 . S
C872 C874 1.406 . S
C872 C877 1.261 . S
C873 H840 0.930 . S
C873 N875 1.325 . S
C873 C876 1.357 . S
C874 H842 0.928 . S
C874 C872 1.406 . S
C874 N875 1.261 . S
N875 Co826 2.214 . S
N875 C873 1.325 . S
N875 C874 1.261 . S
C876 H846 0.931 . S
C876 C873 1.357 . S
C876 C877 1.312 . S
C877 H848 0.930 . S
C877 C872 1.261 . S
C877 C876 1.312 . S
C878 O850 1.214 . S
C878 O858 1.234 . S
C879 H851 0.929 . S
C879 C882 1.391 . S
C879 C884 1.391 . S
C880 H852 0.929 . S
C880 C881 1.390 . S
C880 N883 1.391 . S
C881 H853 0.930 . S
C881 C880 1.390 . S
C881 C882 1.392 . S
C882 H854 0.929 . S
C882 C879 1.391 . S
C882 C881 1.392 . S
N883 Co827 2.257 . S
N883 C880 1.391 . S
N883 C884 1.388 . S
C884 H855 0.930 . S
C884 C879 1.391 . S
C884 N883 1.388 . S
Co885 O887 2.143 . S
Co885 O893 2.074 . S
Co885 O896 2.093 . S
Co885 O909 2.097 . S
Co885 N926 2.151 . S
Co885 N934 2.214 . S
Co886 O887 2.160 . S
Co886 O892 2.058 . S
Co886 O902 2.057 . S
Co886 O917 2.037 . S
Co886 N921 2.145 . S
Co886 N942 2.257 . S
O887 Co885 2.143 . S
O887 Co886 2.160 . S
C888 O889 1.278 . S
C888 O896 1.224 . S
O889 C888 1.278 . S
C890 O891 1.245 . S
C890 O902 1.232 . S
O891 C890 1.245 . S
O892 Co886 2.058 . S
O892 C918 1.269 . S
O893 Co885 2.074 . S
O893 C918 1.257 . S
H894 C919 0.930 . S
H895 C925 0.930 . S
O896 Co885 2.093 . S
O896 C888 1.224 . S
H897 C929 0.929 . S
H898 C931 0.930 . S
H899 C932 0.930 . S
H900 C930 0.929 . S
H901 C933 0.928 . S
O902 Co886 2.057 . S
O902 C890 1.232 . S
H903 C922 0.929 . S
H904 C923 0.929 . S
H905 C935 0.931 . S
H906 C927 0.929 . S
H907 C936 0.930 . S
H908 C928 0.931 . S
O909 Co885 2.097 . S
O909 C937 1.214 . S
H910 C938 0.929 . S
H911 C939 0.929 . S
H912 C940 0.930 . S
H913 C941 0.929 . S
H914 C943 0.930 . S
H915 C920 0.930 . S
H916 C924 0.930 . S
O917 Co886 2.037 . S
O917 C937 1.234 . S
C918 O892 1.269 . S
C918 O893 1.257 . S
C919 H894 0.930 . S
C919 C922 1.388 . S
C919 C924 1.418 . S
C920 H915 0.930 . S
C920 C923 1.404 . S
C920 C924 1.353 . S
N921 Co886 2.145 . S
N921 C922 1.397 . S
N921 C923 1.334 . S
C922 H903 0.929 . S
C922 C919 1.388 . S
C922 N921 1.397 . S
C923 H904 0.929 . S
C923 C920 1.404 . S
C923 N921 1.334 . S
C924 H916 0.930 . S
C924 C919 1.418 . S
C924 C920 1.353 . S
C925 H895 0.930 . S
C925 N926 1.330 . S
C925 C927 1.446 . S
N926 Co885 2.151 . S
N926 C925 1.330 . S
N926 C930 1.418 . S
C927 H906 0.929 . S
C927 C925 1.446 . S
C927 C928 1.332 . S
C928 H908 0.931 . S
C928 C927 1.332 . S
C928 C929 1.267 . S
C929 H897 0.929 . S
C929 C928 1.267 . S
C929 C930 1.251 . S
C930 H900 0.929 . S
C930 N926 1.418 . S
C930 C929 1.251 . S
C931 H898 0.930 . S
C931 C933 1.406 . S
C931 C936 1.261 . S
C932 H899 0.930 . S
C932 N934 1.325 . S
C932 C935 1.357 . S
C933 H901 0.928 . S
C933 C931 1.406 . S
C933 N934 1.261 . S
N934 Co885 2.214 . S
N934 C932 1.325 . S
N934 C933 1.261 . S
C935 H905 0.931 . S
C935 C932 1.357 . S
C935 C936 1.312 . S
C936 H907 0.930 . S
C936 C931 1.261 . S
C936 C935 1.312 . S
C937 O909 1.214 . S
C937 O917 1.234 . S
C938 H910 0.929 . S
C938 C941 1.391 . S
C938 C943 1.391 . S
C939 H911 0.929 . S
C939 C940 1.390 . S
C939 N942 1.391 . S
C940 H912 0.930 . S
C940 C939 1.390 . S
C940 C941 1.392 . S
C941 H913 0.929 . S
C941 C938 1.391 . S
C941 C940 1.392 . S
N942 Co886 2.257 . S
N942 C939 1.391 . S
N942 C943 1.388 . S
C943 H914 0.930 . S
C943 C938 1.391 . S
C943 N942 1.388 . S
H944 C952 0.950 . S
H945 C957 0.950 . S
H946 C954 0.950 . S
H947 C956 0.950 . S
H948 C958 0.950 . S
H949 C960 0.950 . S
H950 C962 0.950 . S
H951 C963 0.950 . S
C952 H944 0.950 . S
C952 C953 1.386 . S
C952 C954 1.391 . S
C953 C952 1.386 . S
C953 C957 1.393 . S
C954 H946 0.950 . S
C954 C952 1.391 . S
C954 C955 1.400 . S
C955 C954 1.400 . S
C955 C956 1.398 . S
C955 C961 1.491 1_455 S
C956 H947 0.950 . S
C956 C955 1.398 . S
C956 C957 1.391 . S
C957 H945 0.950 . S
C957 C953 1.393 . S
C957 C956 1.391 . S
C958 H948 0.950 . S
C958 C959 1.386 . S
C958 C960 1.391 . S
C959 C958 1.386 . S
C959 C963 1.393 . S
C960 H949 0.950 . S
C960 C958 1.391 . S
C960 C961 1.400 . S
C961 C955 1.491 1_655 S
C961 C960 1.400 . S
C961 C962 1.398 . S
C962 H950 0.950 . S
C962 C961 1.398 . S
C962 C963 1.391 . S
C963 H951 0.950 . S
C963 C959 1.393 . S
C963 C962 1.391 . S
H964 C972 0.950 . S
H965 C977 0.950 . S
H966 C974 0.950 . S
H967 C976 0.950 . S
H968 C978 0.950 . S
H969 C980 0.950 . S
H970 C982 0.950 . S
H971 C983 0.950 . S
C972 H964 0.950 . S
C972 C973 1.386 . S
C972 C974 1.391 . S
C973 C972 1.386 . S
C973 C977 1.393 . S
C974 H966 0.950 . S
C974 C972 1.391 . S
C974 C975 1.400 . S
C975 C974 1.400 . S
C975 C976 1.398 . S
C975 C981 1.491 1_565 S
C976 H967 0.950 . S
C976 C975 1.398 . S
C976 C977 1.391 . S
C977 H965 0.950 . S
C977 C973 1.393 . S
C977 C976 1.391 . S
C978 H968 0.950 . S
C978 C979 1.386 . S
C978 C980 1.391 . S
C979 C978 1.386 . S
C979 C983 1.393 . S
C980 H969 0.950 . S
C980 C978 1.391 . S
C980 C981 1.400 . S
C981 C975 1.491 1_545 S
C981 C980 1.400 . S
C981 C982 1.398 . S
C982 H970 0.950 . S
C982 C981 1.398 . S
C982 C983 1.391 . S
C983 H971 0.950 . S
C983 C979 1.393 . S
C983 C982 1.391 . S
H984 C992 0.950 . S
H985 C997 0.950 . S
H986 C994 0.950 . S
H987 C996 0.950 . S
H988 C998 0.950 . S
H989 C1000 0.950 . S
H990 C1002 0.950 . S
H991 C1003 0.950 . S
C992 H984 0.950 . S
C992 C993 1.386 . S
C992 C994 1.391 . S
C993 C992 1.386 . S
C993 C997 1.393 . S
C994 H986 0.950 . S
C994 C992 1.391 . S
C994 C995 1.400 . S
C995 C994 1.400 . S
C995 C996 1.398 . S
C995 C1001 1.491 1_455 S
C996 H987 0.950 . S
C996 C995 1.398 . S
C996 C997 1.391 . S
C997 H985 0.950 . S
C997 C993 1.393 . S
C997 C996 1.391 . S
C998 H988 0.950 . S
C998 C999 1.386 . S
C998 C1000 1.391 . S
C999 C998 1.386 . S
C999 C1003 1.393 . S
C1000 H989 0.950 . S
C1000 C998 1.391 . S
C1000 C1001 1.400 . S
C1001 C995 1.491 1_655 S
C1001 C1000 1.400 . S
C1001 C1002 1.398 . S
C1002 H990 0.950 . S
C1002 C1001 1.398 . S
C1002 C1003 1.391 . S
C1003 H991 0.950 . S
C1003 C999 1.393 . S
C1003 C1002 1.391 . S
H1004 C1012 0.950 . S
H1005 C1017 0.950 . S
H1006 C1014 0.950 . S
H1007 C1016 0.950 . S
H1008 C1018 0.950 . S
H1009 C1020 0.950 . S
H1010 C1022 0.950 . S
H1011 C1023 0.950 . S
C1012 H1004 0.950 . S
C1012 C1013 1.386 . S
C1012 C1014 1.391 . S
C1013 C1012 1.386 . S
C1013 C1017 1.393 . S
C1014 H1006 0.950 . S
C1014 C1012 1.391 . S
C1014 C1015 1.400 . S
C1015 C1014 1.400 . S
C1015 C1016 1.398 . S
C1015 C1021 1.491 1_565 S
C1016 H1007 0.950 . S
C1016 C1015 1.398 . S
C1016 C1017 1.391 . S
C1017 H1005 0.950 . S
C1017 C1013 1.393 . S
C1017 C1016 1.391 . S
C1018 H1008 0.950 . S
C1018 C1019 1.386 . S
C1018 C1020 1.391 . S
C1019 C1018 1.386 . S
C1019 C1023 1.393 . S
C1020 H1009 0.950 . S
C1020 C1018 1.391 . S
C1020 C1021 1.400 . S
C1021 C1015 1.491 1_545 S
C1021 C1020 1.400 . S
C1021 C1022 1.398 . S
C1022 H1010 0.950 . S
C1022 C1021 1.398 . S
C1022 C1023 1.391 . S
C1023 H1011 0.950 . S
C1023 C1019 1.393 . S
C1023 C1022 1.391 . S
H1024 C1032 0.950 . S
H1025 C1037 0.950 . S
H1026 C1034 0.950 . S
H1027 C1036 0.950 . S
H1028 C1038 0.950 . S
H1029 C1040 0.950 . S
H1030 C1042 0.950 . S
H1031 C1043 0.950 . S
C1032 H1024 0.950 . S
C1032 C1033 1.386 . S
C1032 C1034 1.391 . S
C1033 C1032 1.386 . S
C1033 C1037 1.393 . S
C1034 H1026 0.950 . S
C1034 C1032 1.391 . S
C1034 C1035 1.400 . S
C1035 C1034 1.400 . S
C1035 C1036 1.398 . S
C1035 C1041 1.491 1_655 S
C1036 H1027 0.950 . S
C1036 C1035 1.398 . S
C1036 C1037 1.391 . S
C1037 H1025 0.950 . S
C1037 C1033 1.393 . S
C1037 C1036 1.391 . S
C1038 H1028 0.950 . S
C1038 C1039 1.386 . S
C1038 C1040 1.391 . S
C1039 C1038 1.386 . S
C1039 C1043 1.393 . S
C1040 H1029 0.950 . S
C1040 C1038 1.391 . S
C1040 C1041 1.400 . S
C1041 C1035 1.491 1_455 S
C1041 C1040 1.400 . S
C1041 C1042 1.398 . S
C1042 H1030 0.950 . S
C1042 C1041 1.398 . S
C1042 C1043 1.391 . S
C1043 H1031 0.950 . S
C1043 C1039 1.393 . S
C1043 C1042 1.391 . S
H1044 C1052 0.950 . S
H1045 C1057 0.950 . S
H1046 C1054 0.950 . S
H1047 C1056 0.950 . S
H1048 C1058 0.950 . S
H1049 C1060 0.950 . S
H1050 C1062 0.950 . S
H1051 C1063 0.950 . S
C1052 H1044 0.950 . S
C1052 C1053 1.386 . S
C1052 C1054 1.391 . S
C1053 C1052 1.386 . S
C1053 C1057 1.393 . S
C1054 H1046 0.950 . S
C1054 C1052 1.391 . S
C1054 C1055 1.400 . S
C1055 C1054 1.400 . S
C1055 C1056 1.398 . S
C1055 C1061 1.491 1_545 S
C1056 H1047 0.950 . S
C1056 C1055 1.398 . S
C1056 C1057 1.391 . S
C1057 H1045 0.950 . S
C1057 C1053 1.393 . S
C1057 C1056 1.391 . S
C1058 H1048 0.950 . S
C1058 C1059 1.386 . S
C1058 C1060 1.391 . S
C1059 C1058 1.386 . S
C1059 C1063 1.393 . S
C1060 H1049 0.950 . S
C1060 C1058 1.391 . S
C1060 C1061 1.400 . S
C1061 C1055 1.491 1_565 S
C1061 C1060 1.400 . S
C1061 C1062 1.398 . S
C1062 H1050 0.950 . S
C1062 C1061 1.398 . S
C1062 C1063 1.391 . S
C1063 H1051 0.950 . S
C1063 C1059 1.393 . S
C1063 C1062 1.391 . S
H1064 C1072 0.950 . S
H1065 C1077 0.950 . S
H1066 C1074 0.950 . S
H1067 C1076 0.950 . S
H1068 C1078 0.950 . S
H1069 C1080 0.950 . S
H1070 C1082 0.950 . S
H1071 C1083 0.950 . S
C1072 H1064 0.950 . S
C1072 C1073 1.386 . S
C1072 C1074 1.391 . S
C1073 C1072 1.386 . S
C1073 C1077 1.393 . S
C1074 H1066 0.950 . S
C1074 C1072 1.391 . S
C1074 C1075 1.400 . S
C1075 C1074 1.400 . S
C1075 C1076 1.398 . S
C1075 C1081 1.491 1_655 S
C1076 H1067 0.950 . S
C1076 C1075 1.398 . S
C1076 C1077 1.391 . S
C1077 H1065 0.950 . S
C1077 C1073 1.393 . S
C1077 C1076 1.391 . S
C1078 H1068 0.950 . S
C1078 C1079 1.386 . S
C1078 C1080 1.391 . S
C1079 C1078 1.386 . S
C1079 C1083 1.393 . S
C1080 H1069 0.950 . S
C1080 C1078 1.391 . S
C1080 C1081 1.400 . S
C1081 C1075 1.491 1_455 S
C1081 C1080 1.400 . S
C1081 C1082 1.398 . S
C1082 H1070 0.950 . S
C1082 C1081 1.398 . S
C1082 C1083 1.391 . S
C1083 H1071 0.950 . S
C1083 C1079 1.393 . S
C1083 C1082 1.391 . S
H1084 C1092 0.950 . S
H1085 C1097 0.950 . S
H1086 C1094 0.950 . S
H1087 C1096 0.950 . S
H1088 C1098 0.950 . S
H1089 C1100 0.950 . S
H1090 C1102 0.950 . S
H1091 C1103 0.950 . S
C1092 H1084 0.950 . S
C1092 C1093 1.386 . S
C1092 C1094 1.391 . S
C1093 C1092 1.386 . S
C1093 C1097 1.393 . S
C1094 H1086 0.950 . S
C1094 C1092 1.391 . S
C1094 C1095 1.400 . S
C1095 C1094 1.400 . S
C1095 C1096 1.398 . S
C1095 C1101 1.491 1_545 S
C1096 H1087 0.950 . S
C1096 C1095 1.398 . S
C1096 C1097 1.391 . S
C1097 H1085 0.950 . S
C1097 C1093 1.393 . S
C1097 C1096 1.391 . S
C1098 H1088 0.950 . S
C1098 C1099 1.386 . S
C1098 C1100 1.391 . S
C1099 C1098 1.386 . S
C1099 C1103 1.393 . S
C1100 H1089 0.950 . S
C1100 C1098 1.391 . S
C1100 C1101 1.400 . S
C1101 C1095 1.491 1_565 S
C1101 C1100 1.400 . S
C1101 C1102 1.398 . S
C1102 H1090 0.950 . S
C1102 C1101 1.398 . S
C1102 C1103 1.391 . S
C1103 H1091 0.950 . S
C1103 C1099 1.393 . S
C1103 C1102 1.391 . S
H1104 C1112 0.950 . S
H1105 C1117 0.950 . S
H1106 C1114 0.950 . S
H1107 C1116 0.950 . S
H1108 C1118 0.950 . S
H1109 C1120 0.950 . S
H1110 C1122 0.950 . S
H1111 C1123 0.950 . S
C1112 H1104 0.950 . S
C1112 C1113 1.386 . S
C1112 C1114 1.391 . S
C1113 C1112 1.386 . S
C1113 C1117 1.393 . S
C1114 H1106 0.950 . S
C1114 C1112 1.391 . S
C1114 C1115 1.400 . S
C1115 C1114 1.400 . S
C1115 C1116 1.398 . S
C1115 C1121 1.491 . S
C1116 H1107 0.950 . S
C1116 C1115 1.398 . S
C1116 C1117 1.391 . S
C1117 H1105 0.950 . S
C1117 C1113 1.393 . S
C1117 C1116 1.391 . S
C1118 H1108 0.950 . S
C1118 C1119 1.386 . S
C1118 C1120 1.391 . S
C1119 C1118 1.386 . S
C1119 C1123 1.393 . S
C1120 H1109 0.950 . S
C1120 C1118 1.391 . S
C1120 C1121 1.400 . S
C1121 C1115 1.491 . S
C1121 C1120 1.400 . S
C1121 C1122 1.398 . S
C1122 H1110 0.950 . S
C1122 C1121 1.398 . S
C1122 C1123 1.391 . S
C1123 H1111 0.950 . S
C1123 C1119 1.393 . S
C1123 C1122 1.391 . S
H1124 C1132 0.950 . S
H1125 C1137 0.950 . S
H1126 C1134 0.950 . S
H1127 C1136 0.950 . S
H1128 C1138 0.950 . S
H1129 C1140 0.950 . S
H1130 C1142 0.950 . S
H1131 C1143 0.950 . S
C1132 H1124 0.950 . S
C1132 C1133 1.386 . S
C1132 C1134 1.391 . S
C1133 C1132 1.386 . S
C1133 C1137 1.393 . S
C1134 H1126 0.950 . S
C1134 C1132 1.391 . S
C1134 C1135 1.400 . S
C1135 C1134 1.400 . S
C1135 C1136 1.398 . S
C1135 C1141 1.491 . S
C1136 H1127 0.950 . S
C1136 C1135 1.398 . S
C1136 C1137 1.391 . S
C1137 H1125 0.950 . S
C1137 C1133 1.393 . S
C1137 C1136 1.391 . S
C1138 H1128 0.950 . S
C1138 C1139 1.386 . S
C1138 C1140 1.391 . S
C1139 C1138 1.386 . S
C1139 C1143 1.393 . S
C1140 H1129 0.950 . S
C1140 C1138 1.391 . S
C1140 C1141 1.400 . S
C1141 C1135 1.491 . S
C1141 C1140 1.400 . S
C1141 C1142 1.398 . S
C1142 H1130 0.950 . S
C1142 C1141 1.398 . S
C1142 C1143 1.391 . S
C1143 H1131 0.950 . S
C1143 C1139 1.393 . S
C1143 C1142 1.391 . S
H1144 C1152 0.950 . S
H1145 C1157 0.950 . S
H1146 C1154 0.950 . S
H1147 C1156 0.950 . S
H1148 C1158 0.950 . S
H1149 C1160 0.950 . S
H1150 C1162 0.950 . S
H1151 C1163 0.950 . S
C1152 H1144 0.950 . S
C1152 C1153 1.386 . S
C1152 C1154 1.391 . S
C1153 C1152 1.386 . S
C1153 C1157 1.393 . S
C1154 H1146 0.950 . S
C1154 C1152 1.391 . S
C1154 C1155 1.400 . S
C1155 C1154 1.400 . S
C1155 C1156 1.398 . S
C1155 C1161 1.491 . S
C1156 H1147 0.950 . S
C1156 C1155 1.398 . S
C1156 C1157 1.391 . S
C1157 H1145 0.950 . S
C1157 C1153 1.393 . S
C1157 C1156 1.391 . S
C1158 H1148 0.950 . S
C1158 C1159 1.386 . S
C1158 C1160 1.391 . S
C1159 C1158 1.386 . S
C1159 C1163 1.393 . S
C1160 H1149 0.950 . S
C1160 C1158 1.391 . S
C1160 C1161 1.400 . S
C1161 C1155 1.491 . S
C1161 C1160 1.400 . S
C1161 C1162 1.398 . S
C1162 H1150 0.950 . S
C1162 C1161 1.398 . S
C1162 C1163 1.391 . S
C1163 H1151 0.950 . S
C1163 C1159 1.393 . S
C1163 C1162 1.391 . S
H1164 C1172 0.950 . S
H1165 C1177 0.950 . S
H1166 C1174 0.950 . S
H1167 C1176 0.950 . S
H1168 C1178 0.950 . S
H1169 C1180 0.950 . S
H1170 C1182 0.950 . S
H1171 C1183 0.950 . S
C1172 H1164 0.950 . S
C1172 C1173 1.386 . S
C1172 C1174 1.391 . S
C1173 C1172 1.386 . S
C1173 C1177 1.393 . S
C1174 H1166 0.950 . S
C1174 C1172 1.391 . S
C1174 C1175 1.400 . S
C1175 C1174 1.400 . S
C1175 C1176 1.398 . S
C1175 C1181 1.491 . S
C1176 H1167 0.950 . S
C1176 C1175 1.398 . S
C1176 C1177 1.391 . S
C1177 H1165 0.950 . S
C1177 C1173 1.393 . S
C1177 C1176 1.391 . S
C1178 H1168 0.950 . S
C1178 C1179 1.386 . S
C1178 C1180 1.391 . S
C1179 C1178 1.386 . S
C1179 C1183 1.393 . S
C1180 H1169 0.950 . S
C1180 C1178 1.391 . S
C1180 C1181 1.400 . S
C1181 C1175 1.491 . S
C1181 C1180 1.400 . S
C1181 C1182 1.398 . S
C1182 H1170 0.950 . S
C1182 C1181 1.398 . S
C1182 C1183 1.391 . S
C1183 H1171 0.950 . S
C1183 C1179 1.393 . S
C1183 C1182 1.391 . S
H1184 C1192 0.950 . S
H1185 C1197 0.950 . S
H1186 C1194 0.950 . S
H1187 C1196 0.950 . S
H1188 C1198 0.950 . S
H1189 C1200 0.950 . S
H1190 C1202 0.950 . S
H1191 C1203 0.950 . S
C1192 H1184 0.950 . S
C1192 C1193 1.386 . S
C1192 C1194 1.391 . S
C1193 C1192 1.386 . S
C1193 C1197 1.393 . S
C1194 H1186 0.950 . S
C1194 C1192 1.391 . S
C1194 C1195 1.400 . S
C1195 C1194 1.400 . S
C1195 C1196 1.398 . S
C1195 C1201 1.491 . S
C1196 H1187 0.950 . S
C1196 C1195 1.398 . S
C1196 C1197 1.391 . S
C1197 H1185 0.950 . S
C1197 C1193 1.393 . S
C1197 C1196 1.391 . S
C1198 H1188 0.950 . S
C1198 C1199 1.386 . S
C1198 C1200 1.391 . S
C1199 C1198 1.386 . S
C1199 C1203 1.393 . S
C1200 H1189 0.950 . S
C1200 C1198 1.391 . S
C1200 C1201 1.400 . S
C1201 C1195 1.491 . S
C1201 C1200 1.400 . S
C1201 C1202 1.398 . S
C1202 H1190 0.950 . S
C1202 C1201 1.398 . S
C1202 C1203 1.391 . S
C1203 H1191 0.950 . S
C1203 C1199 1.393 . S
C1203 C1202 1.391 . S
H1204 C1212 0.950 . S
H1205 C1217 0.950 . S
H1206 C1214 0.950 . S
H1207 C1216 0.950 . S
H1208 C1218 0.950 . S
H1209 C1220 0.950 . S
H1210 C1222 0.950 . S
H1211 C1223 0.950 . S
C1212 H1204 0.950 . S
C1212 C1213 1.386 . S
C1212 C1214 1.391 . S
C1213 C1212 1.386 . S
C1213 C1217 1.393 . S
C1214 H1206 0.950 . S
C1214 C1212 1.391 . S
C1214 C1215 1.400 . S
C1215 C1214 1.400 . S
C1215 C1216 1.398 . S
C1215 C1221 1.491 . S
C1216 H1207 0.950 . S
C1216 C1215 1.398 . S
C1216 C1217 1.391 . S
C1217 H1205 0.950 . S
C1217 C1213 1.393 . S
C1217 C1216 1.391 . S
C1218 H1208 0.950 . S
C1218 C1219 1.386 . S
C1218 C1220 1.391 . S
C1219 C1218 1.386 . S
C1219 C1223 1.393 . S
C1220 H1209 0.950 . S
C1220 C1218 1.391 . S
C1220 C1221 1.400 . S
C1221 C1215 1.491 . S
C1221 C1220 1.400 . S
C1221 C1222 1.398 . S
C1222 H1210 0.950 . S
C1222 C1221 1.398 . S
C1222 C1223 1.391 . S
C1223 H1211 0.950 . S
C1223 C1219 1.393 . S
C1223 C1222 1.391 . S
H1224 C1232 0.950 . S
H1225 C1237 0.950 . S
H1226 C1234 0.950 . S
H1227 C1236 0.950 . S
H1228 C1238 0.950 . S
H1229 C1240 0.950 . S
H1230 C1242 0.950 . S
H1231 C1243 0.950 . S
C1232 H1224 0.950 . S
C1232 C1233 1.386 . S
C1232 C1234 1.391 . S
C1233 C1232 1.386 . S
C1233 C1237 1.393 . S
C1234 H1226 0.950 . S
C1234 C1232 1.391 . S
C1234 C1235 1.400 . S
C1235 C1234 1.400 . S
C1235 C1236 1.398 . S
C1235 C1241 1.491 . S
C1236 H1227 0.950 . S
C1236 C1235 1.398 . S
C1236 C1237 1.391 . S
C1237 H1225 0.950 . S
C1237 C1233 1.393 . S
C1237 C1236 1.391 . S
C1238 H1228 0.950 . S
C1238 C1239 1.386 . S
C1238 C1240 1.391 . S
C1239 C1238 1.386 . S
C1239 C1243 1.393 . S
C1240 H1229 0.950 . S
C1240 C1238 1.391 . S
C1240 C1241 1.400 . S
C1241 C1235 1.491 . S
C1241 C1240 1.400 . S
C1241 C1242 1.398 . S
C1242 H1230 0.950 . S
C1242 C1241 1.398 . S
C1242 C1243 1.391 . S
C1243 H1231 0.950 . S
C1243 C1239 1.393 . S
C1243 C1242 1.391 . S
H1244 C1252 0.950 . S
H1245 C1257 0.950 . S
H1246 C1254 0.950 . S
H1247 C1256 0.950 . S
H1248 C1258 0.950 . S
H1249 C1260 0.950 . S
H1250 C1262 0.950 . S
H1251 C1263 0.950 . S
C1252 H1244 0.950 . S
C1252 C1253 1.386 . S
C1252 C1254 1.391 . S
C1253 C1252 1.386 . S
C1253 C1257 1.393 . S
C1254 H1246 0.950 . S
C1254 C1252 1.391 . S
C1254 C1255 1.400 . S
C1255 C1254 1.400 . S
C1255 C1256 1.398 . S
C1255 C1261 1.491 . S
C1256 H1247 0.950 . S
C1256 C1255 1.398 . S
C1256 C1257 1.391 . S
C1257 H1245 0.950 . S
C1257 C1253 1.393 . S
C1257 C1256 1.391 . S
C1258 H1248 0.950 . S
C1258 C1259 1.386 . S
C1258 C1260 1.391 . S
C1259 C1258 1.386 . S
C1259 C1263 1.393 . S
C1260 H1249 0.950 . S
C1260 C1258 1.391 . S
C1260 C1261 1.400 . S
C1261 C1255 1.491 . S
C1261 C1260 1.400 . S
C1261 C1262 1.398 . S
C1262 H1250 0.950 . S
C1262 C1261 1.398 . S
C1262 C1263 1.391 . S
C1263 H1251 0.950 . S
C1263 C1259 1.393 . S
C1263 C1262 1.391 . S
H1264 C1272 0.950 . S
H1265 C1277 0.950 . S
H1266 C1274 0.950 . S
H1267 C1276 0.950 . S
H1268 C1278 0.950 . S
H1269 C1280 0.950 . S
H1270 C1282 0.950 . S
H1271 C1283 0.950 . S
C1272 H1264 0.950 . S
C1272 C1273 1.386 . S
C1272 C1274 1.391 . S
C1273 C1272 1.386 . S
C1273 C1277 1.393 . S
C1274 H1266 0.950 . S
C1274 C1272 1.391 . S
C1274 C1275 1.400 . S
C1275 C1274 1.400 . S
C1275 C1276 1.398 . S
C1275 C1281 1.491 1_556 S
C1276 H1267 0.950 . S
C1276 C1275 1.398 . S
C1276 C1277 1.391 . S
C1277 H1265 0.950 . S
C1277 C1273 1.393 . S
C1277 C1276 1.391 . S
C1278 H1268 0.950 . S
C1278 C1279 1.386 . S
C1278 C1280 1.391 . S
C1279 C1278 1.386 . S
C1279 C1283 1.393 . S
C1280 H1269 0.950 . S
C1280 C1278 1.391 . S
C1280 C1281 1.400 . S
C1281 C1275 1.491 1_554 S
C1281 C1280 1.400 . S
C1281 C1282 1.398 . S
C1282 H1270 0.950 . S
C1282 C1281 1.398 . S
C1282 C1283 1.391 . S
C1283 H1271 0.950 . S
C1283 C1279 1.393 . S
C1283 C1282 1.391 . S
H1284 C1292 0.950 . S
H1285 C1297 0.950 . S
H1286 C1294 0.950 . S
H1287 C1296 0.950 . S
H1288 C1298 0.950 . S
H1289 C1300 0.950 . S
H1290 C1302 0.950 . S
H1291 C1303 0.950 . S
C1292 H1284 0.950 . S
C1292 C1293 1.386 . S
C1292 C1294 1.391 . S
C1293 C1292 1.386 . S
C1293 C1297 1.393 . S
C1294 H1286 0.950 . S
C1294 C1292 1.391 . S
C1294 C1295 1.400 . S
C1295 C1294 1.400 . S
C1295 C1296 1.398 . S
C1295 C1301 1.491 . S
C1296 H1287 0.950 . S
C1296 C1295 1.398 . S
C1296 C1297 1.391 . S
C1297 H1285 0.950 . S
C1297 C1293 1.393 . S
C1297 C1296 1.391 . S
C1298 H1288 0.950 . S
C1298 C1299 1.386 . S
C1298 C1300 1.391 . S
C1299 C1298 1.386 . S
C1299 C1303 1.393 . S
C1300 H1289 0.950 . S
C1300 C1298 1.391 . S
C1300 C1301 1.400 . S
C1301 C1295 1.491 . S
C1301 C1300 1.400 . S
C1301 C1302 1.398 . S
C1302 H1290 0.950 . S
C1302 C1301 1.398 . S
C1302 C1303 1.391 . S
C1303 H1291 0.950 . S
C1303 C1299 1.393 . S
C1303 C1302 1.391 . S
H1304 C1312 0.950 . S
H1305 C1317 0.950 . S
H1306 C1314 0.950 . S
H1307 C1316 0.950 . S
H1308 C1318 0.950 . S
H1309 C1320 0.950 . S
H1310 C1322 0.950 . S
H1311 C1323 0.950 . S
C1312 H1304 0.950 . S
C1312 C1313 1.386 . S
C1312 C1314 1.391 . S
C1313 C1312 1.386 . S
C1313 C1317 1.393 . S
C1314 H1306 0.950 . S
C1314 C1312 1.391 . S
C1314 C1315 1.400 . S
C1315 C1314 1.400 . S
C1315 C1316 1.398 . S
C1315 C1321 1.491 1_554 S
C1316 H1307 0.950 . S
C1316 C1315 1.398 . S
C1316 C1317 1.391 . S
C1317 H1305 0.950 . S
C1317 C1313 1.393 . S
C1317 C1316 1.391 . S
C1318 H1308 0.950 . S
C1318 C1319 1.386 . S
C1318 C1320 1.391 . S
C1319 C1318 1.386 . S
C1319 C1323 1.393 . S
C1320 H1309 0.950 . S
C1320 C1318 1.391 . S
C1320 C1321 1.400 . S
C1321 C1315 1.491 1_556 S
C1321 C1320 1.400 . S
C1321 C1322 1.398 . S
C1322 H1310 0.950 . S
C1322 C1321 1.398 . S
C1322 C1323 1.391 . S
C1323 H1311 0.950 . S
C1323 C1319 1.393 . S
C1323 C1322 1.391 . S
H1324 C1332 0.950 . S
H1325 C1337 0.950 . S
H1326 C1334 0.950 . S
H1327 C1336 0.950 . S
H1328 C1338 0.950 . S
H1329 C1340 0.950 . S
H1330 C1342 0.950 . S
H1331 C1343 0.950 . S
C1332 H1324 0.950 . S
C1332 C1333 1.386 . S
C1332 C1334 1.391 . S
C1333 C1332 1.386 . S
C1333 C1337 1.393 . S
C1334 H1326 0.950 . S
C1334 C1332 1.391 . S
C1334 C1335 1.400 . S
C1335 C1334 1.400 . S
C1335 C1336 1.398 . S
C1335 C1341 1.491 . S
C1336 H1327 0.950 . S
C1336 C1335 1.398 . S
C1336 C1337 1.391 . S
C1337 H1325 0.950 . S
C1337 C1333 1.393 . S
C1337 C1336 1.391 . S
C1338 H1328 0.950 . S
C1338 C1339 1.386 . S
C1338 C1340 1.391 . S
C1339 C1338 1.386 . S
C1339 C1343 1.393 . S
C1340 H1329 0.950 . S
C1340 C1338 1.391 . S
C1340 C1341 1.400 . S
C1341 C1335 1.491 . S
C1341 C1340 1.400 . S
C1341 C1342 1.398 . S
C1342 H1330 0.950 . S
C1342 C1341 1.398 . S
C1342 C1343 1.391 . S
C1343 H1331 0.950 . S
C1343 C1339 1.393 . S
C1343 C1342 1.391 . S
H1344 C1352 0.950 . S
H1345 C1357 0.950 . S
H1346 C1354 0.950 . S
H1347 C1356 0.950 . S
H1348 C1358 0.950 . S
H1349 C1360 0.950 . S
H1350 C1362 0.950 . S
H1351 C1363 0.950 . S
C1352 H1344 0.950 . S
C1352 C1353 1.386 . S
C1352 C1354 1.391 . S
C1353 C1352 1.386 . S
C1353 C1357 1.393 . S
C1354 H1346 0.950 . S
C1354 C1352 1.391 . S
C1354 C1355 1.400 . S
C1355 C1354 1.400 . S
C1355 C1356 1.398 . S
C1355 C1361 1.491 . S
C1356 H1347 0.950 . S
C1356 C1355 1.398 . S
C1356 C1357 1.391 . S
C1357 H1345 0.950 . S
C1357 C1353 1.393 . S
C1357 C1356 1.391 . S
C1358 H1348 0.950 . S
C1358 C1359 1.386 . S
C1358 C1360 1.391 . S
C1359 C1358 1.386 . S
C1359 C1363 1.393 . S
C1360 H1349 0.950 . S
C1360 C1358 1.391 . S
C1360 C1361 1.400 . S
C1361 C1355 1.491 . S
C1361 C1360 1.400 . S
C1361 C1362 1.398 . S
C1362 H1350 0.950 . S
C1362 C1361 1.398 . S
C1362 C1363 1.391 . S
C1363 H1351 0.950 . S
C1363 C1359 1.393 . S
C1363 C1362 1.391 . S
H1364 C1372 0.950 . S
H1365 C1377 0.950 . S
H1366 C1374 0.950 . S
H1367 C1376 0.950 . S
H1368 C1378 0.950 . S
H1369 C1380 0.950 . S
H1370 C1382 0.950 . S
H1371 C1383 0.950 . S
C1372 H1364 0.950 . S
C1372 C1373 1.386 . S
C1372 C1374 1.391 . S
C1373 C1372 1.386 . S
C1373 C1377 1.393 . S
C1374 H1366 0.950 . S
C1374 C1372 1.391 . S
C1374 C1375 1.400 . S
C1375 C1374 1.400 . S
C1375 C1376 1.398 . S
C1375 C1381 1.491 1_556 S
C1376 H1367 0.950 . S
C1376 C1375 1.398 . S
C1376 C1377 1.391 . S
C1377 H1365 0.950 . S
C1377 C1373 1.393 . S
C1377 C1376 1.391 . S
C1378 H1368 0.950 . S
C1378 C1379 1.386 . S
C1378 C1380 1.391 . S
C1379 C1378 1.386 . S
C1379 C1383 1.393 . S
C1380 H1369 0.950 . S
C1380 C1378 1.391 . S
C1380 C1381 1.400 . S
C1381 C1375 1.491 1_554 S
C1381 C1380 1.400 . S
C1381 C1382 1.398 . S
C1382 H1370 0.950 . S
C1382 C1381 1.398 . S
C1382 C1383 1.391 . S
C1383 H1371 0.950 . S
C1383 C1379 1.393 . S
C1383 C1382 1.391 . S
H1384 C1392 0.950 . S
H1385 C1397 0.950 . S
H1386 C1394 0.950 . S
H1387 C1396 0.950 . S
H1388 C1398 0.950 . S
H1389 C1400 0.950 . S
H1390 C1402 0.950 . S
H1391 C1403 0.950 . S
C1392 H1384 0.950 . S
C1392 C1393 1.386 . S
C1392 C1394 1.391 . S
C1393 C1392 1.386 . S
C1393 C1397 1.393 . S
C1394 H1386 0.950 . S
C1394 C1392 1.391 . S
C1394 C1395 1.400 . S
C1395 C1394 1.400 . S
C1395 C1396 1.398 . S
C1395 C1401 1.491 . S
C1396 H1387 0.950 . S
C1396 C1395 1.398 . S
C1396 C1397 1.391 . S
C1397 H1385 0.950 . S
C1397 C1393 1.393 . S
C1397 C1396 1.391 . S
C1398 H1388 0.950 . S
C1398 C1399 1.386 . S
C1398 C1400 1.391 . S
C1399 C1398 1.386 . S
C1399 C1403 1.393 . S
C1400 H1389 0.950 . S
C1400 C1398 1.391 . S
C1400 C1401 1.400 . S
C1401 C1395 1.491 . S
C1401 C1400 1.400 . S
C1401 C1402 1.398 . S
C1402 H1390 0.950 . S
C1402 C1401 1.398 . S
C1402 C1403 1.391 . S
C1403 H1391 0.950 . S
C1403 C1399 1.393 . S
C1403 C1402 1.391 . S
H1404 C1412 0.950 . S
H1405 C1417 0.950 . S
H1406 C1414 0.950 . S
H1407 C1416 0.950 . S
H1408 C1418 0.950 . S
H1409 C1420 0.950 . S
H1410 C1422 0.950 . S
H1411 C1423 0.950 . S
C1412 H1404 0.950 . S
C1412 C1413 1.386 . S
C1412 C1414 1.391 . S
C1413 C1412 1.386 . S
C1413 C1417 1.393 . S
C1414 H1406 0.950 . S
C1414 C1412 1.391 . S
C1414 C1415 1.400 . S
C1415 C1414 1.400 . S
C1415 C1416 1.398 . S
C1415 C1421 1.491 1_554 S
C1416 H1407 0.950 . S
C1416 C1415 1.398 . S
C1416 C1417 1.391 . S
C1417 H1405 0.950 . S
C1417 C1413 1.393 . S
C1417 C1416 1.391 . S
C1418 H1408 0.950 . S
C1418 C1419 1.386 . S
C1418 C1420 1.391 . S
C1419 C1418 1.386 . S
C1419 C1423 1.393 . S
C1420 H1409 0.950 . S
C1420 C1418 1.391 . S
C1420 C1421 1.400 . S
C1421 C1415 1.491 1_556 S
C1421 C1420 1.400 . S
C1421 C1422 1.398 . S
C1422 H1410 0.950 . S
C1422 C1421 1.398 . S
C1422 C1423 1.391 . S
C1423 H1411 0.950 . S
C1423 C1419 1.393 . S
C1423 C1422 1.391 . S
H1424 C1432 0.950 . S
H1425 C1437 0.950 . S
H1426 C1434 0.950 . S
H1427 C1436 0.950 . S
H1428 C1438 0.950 . S
H1429 C1440 0.950 . S
H1430 C1442 0.950 . S
H1431 C1443 0.950 . S
C1432 H1424 0.950 . S
C1432 C1433 1.386 . S
C1432 C1434 1.391 . S
C1433 C1432 1.386 . S
C1433 C1437 1.393 . S
C1434 H1426 0.950 . S
C1434 C1432 1.391 . S
C1434 C1435 1.400 . S
C1435 C1434 1.400 . S
C1435 C1436 1.398 . S
C1435 C1441 1.491 . S
C1436 H1427 0.950 . S
C1436 C1435 1.398 . S
C1436 C1437 1.391 . S
C1437 H1425 0.950 . S
C1437 C1433 1.393 . S
C1437 C1436 1.391 . S
C1438 H1428 0.950 . S
C1438 C1439 1.386 . S
C1438 C1440 1.391 . S
C1439 C1438 1.386 . S
C1439 C1443 1.393 . S
C1440 H1429 0.950 . S
C1440 C1438 1.391 . S
C1440 C1441 1.400 . S
C1441 C1435 1.491 . S
C1441 C1440 1.400 . S
C1441 C1442 1.398 . S
C1442 H1430 0.950 . S
C1442 C1441 1.398 . S
C1442 C1443 1.391 . S
C1443 H1431 0.950 . S
C1443 C1439 1.393 . S
C1443 C1442 1.391 . S
H1444 C1452 0.950 . S
H1445 C1457 0.950 . S
H1446 C1454 0.950 . S
H1447 C1456 0.950 . S
H1448 C1458 0.950 . S
H1449 C1460 0.950 . S
H1450 C1462 0.950 . S
H1451 C1463 0.950 . S
C1452 H1444 0.950 . S
C1452 C1453 1.386 . S
C1452 C1454 1.391 . S
C1453 C1452 1.386 . S
C1453 C1457 1.393 . S
C1454 H1446 0.950 . S
C1454 C1452 1.391 . S
C1454 C1455 1.400 . S
C1455 C1454 1.400 . S
C1455 C1456 1.398 . S
C1455 C1461 1.491 . S
C1456 H1447 0.950 . S
C1456 C1455 1.398 . S
C1456 C1457 1.391 . S
C1457 H1445 0.950 . S
C1457 C1453 1.393 . S
C1457 C1456 1.391 . S
C1458 H1448 0.950 . S
C1458 C1459 1.386 . S
C1458 C1460 1.391 . S
C1459 C1458 1.386 . S
C1459 C1463 1.393 . S
C1460 H1449 0.950 . S
C1460 C1458 1.391 . S
C1460 C1461 1.400 . S
C1461 C1455 1.491 . S
C1461 C1460 1.400 . S
C1461 C1462 1.398 . S
C1462 H1450 0.950 . S
C1462 C1461 1.398 . S
C1462 C1463 1.391 . S
C1463 H1451 0.950 . S
C1463 C1459 1.393 . S
C1463 C1462 1.391 . S
H1464 C1472 0.950 . S
H1465 C1477 0.950 . S
H1466 C1474 0.950 . S
H1467 C1476 0.950 . S
H1468 C1478 0.950 . S
H1469 C1480 0.950 . S
H1470 C1482 0.950 . S
H1471 C1483 0.950 . S
C1472 H1464 0.950 . S
C1472 C1473 1.386 . S
C1472 C1474 1.391 . S
C1473 C1472 1.386 . S
C1473 C1477 1.393 . S
C1474 H1466 0.950 . S
C1474 C1472 1.391 . S
C1474 C1475 1.400 . S
C1475 C1474 1.400 . S
C1475 C1476 1.398 . S
C1475 C1481 1.491 . S
C1476 H1467 0.950 . S
C1476 C1475 1.398 . S
C1476 C1477 1.391 . S
C1477 H1465 0.950 . S
C1477 C1473 1.393 . S
C1477 C1476 1.391 . S
C1478 H1468 0.950 . S
C1478 C1479 1.386 . S
C1478 C1480 1.391 . S
C1479 C1478 1.386 . S
C1479 C1483 1.393 . S
C1480 H1469 0.950 . S
C1480 C1478 1.391 . S
C1480 C1481 1.400 . S
C1481 C1475 1.491 . S
C1481 C1480 1.400 . S
C1481 C1482 1.398 . S
C1482 H1470 0.950 . S
C1482 C1481 1.398 . S
C1482 C1483 1.391 . S
C1483 H1471 0.950 . S
C1483 C1479 1.393 . S
C1483 C1482 1.391 . S
H1484 C1492 0.950 . S
H1485 C1497 0.950 . S
H1486 C1494 0.950 . S
H1487 C1496 0.950 . S
H1488 C1498 0.950 . S
H1489 C1500 0.950 . S
H1490 C1502 0.950 . S
H1491 C1503 0.950 . S
C1492 H1484 0.950 . S
C1492 C1493 1.386 . S
C1492 C1494 1.391 . S
C1493 C1492 1.386 . S
C1493 C1497 1.393 . S
C1494 H1486 0.950 . S
C1494 C1492 1.391 . S
C1494 C1495 1.400 . S
C1495 C1494 1.400 . S
C1495 C1496 1.398 . S
C1495 C1501 1.491 . S
C1496 H1487 0.950 . S
C1496 C1495 1.398 . S
C1496 C1497 1.391 . S
C1497 H1485 0.950 . S
C1497 C1493 1.393 . S
C1497 C1496 1.391 . S
C1498 H1488 0.950 . S
C1498 C1499 1.386 . S
C1498 C1500 1.391 . S
C1499 C1498 1.386 . S
C1499 C1503 1.393 . S
C1500 H1489 0.950 . S
C1500 C1498 1.391 . S
C1500 C1501 1.400 . S
C1501 C1495 1.491 . S
C1501 C1500 1.400 . S
C1501 C1502 1.398 . S
C1502 H1490 0.950 . S
C1502 C1501 1.398 . S
C1502 C1503 1.391 . S
C1503 H1491 0.950 . S
C1503 C1499 1.393 . S
C1503 C1502 1.391 . S
H1504 C1512 0.950 . S
H1505 C1517 0.950 . S
H1506 C1514 0.950 . S
H1507 C1516 0.950 . S
H1508 C1518 0.950 . S
H1509 C1520 0.950 . S
H1510 C1522 0.950 . S
H1511 C1523 0.950 . S
C1512 H1504 0.950 . S
C1512 C1513 1.386 . S
C1512 C1514 1.391 . S
C1513 C1512 1.386 . S
C1513 C1517 1.393 . S
C1514 H1506 0.950 . S
C1514 C1512 1.391 . S
C1514 C1515 1.400 . S
C1515 C1514 1.400 . S
C1515 C1516 1.398 . S
C1515 C1521 1.491 . S
C1516 H1507 0.950 . S
C1516 C1515 1.398 . S
C1516 C1517 1.391 . S
C1517 H1505 0.950 . S
C1517 C1513 1.393 . S
C1517 C1516 1.391 . S
C1518 H1508 0.950 . S
C1518 C1519 1.386 . S
C1518 C1520 1.391 . S
C1519 C1518 1.386 . S
C1519 C1523 1.393 . S
C1520 H1509 0.950 . S
C1520 C1518 1.391 . S
C1520 C1521 1.400 . S
C1521 C1515 1.491 . S
C1521 C1520 1.400 . S
C1521 C1522 1.398 . S
C1522 H1510 0.950 . S
C1522 C1521 1.398 . S
C1522 C1523 1.391 . S
C1523 H1511 0.950 . S
C1523 C1519 1.393 . S
C1523 C1522 1.391 . S
H1524 C1532 0.950 . S
H1525 C1537 0.950 . S
H1526 C1534 0.950 . S
H1527 C1536 0.950 . S
H1528 C1538 0.950 . S
H1529 C1540 0.950 . S
H1530 C1542 0.950 . S
H1531 C1543 0.950 . S
C1532 H1524 0.950 . S
C1532 C1533 1.386 . S
C1532 C1534 1.391 . S
C1533 C1532 1.386 . S
C1533 C1537 1.393 . S
C1534 H1526 0.950 . S
C1534 C1532 1.391 . S
C1534 C1535 1.400 . S
C1535 C1534 1.400 . S
C1535 C1536 1.398 . S
C1535 C1541 1.491 . S
C1536 H1527 0.950 . S
C1536 C1535 1.398 . S
C1536 C1537 1.391 . S
C1537 H1525 0.950 . S
C1537 C1533 1.393 . S
C1537 C1536 1.391 . S
C1538 H1528 0.950 . S
C1538 C1539 1.386 . S
C1538 C1540 1.391 . S
C1539 C1538 1.386 . S
C1539 C1543 1.393 . S
C1540 H1529 0.950 . S
C1540 C1538 1.391 . S
C1540 C1541 1.400 . S
C1541 C1535 1.491 . S
C1541 C1540 1.400 . S
C1541 C1542 1.398 . S
C1542 H1530 0.950 . S
C1542 C1541 1.398 . S
C1542 C1543 1.391 . S
C1543 H1531 0.950 . S
C1543 C1539 1.393 . S
C1543 C1542 1.391 . S
H1544 C1552 0.950 . S
H1545 C1557 0.950 . S
H1546 C1554 0.950 . S
H1547 C1556 0.950 . S
H1548 C1558 0.950 . S
H1549 C1560 0.950 . S
H1550 C1562 0.950 . S
H1551 C1563 0.950 . S
C1552 H1544 0.950 . S
C1552 C1553 1.386 . S
C1552 C1554 1.391 . S
C1553 C1552 1.386 . S
C1553 C1557 1.393 . S
C1554 H1546 0.950 . S
C1554 C1552 1.391 . S
C1554 C1555 1.400 . S
C1555 C1554 1.400 . S
C1555 C1556 1.398 . S
C1555 C1561 1.491 . S
C1556 H1547 0.950 . S
C1556 C1555 1.398 . S
C1556 C1557 1.391 . S
C1557 H1545 0.950 . S
C1557 C1553 1.393 . S
C1557 C1556 1.391 . S
C1558 H1548 0.950 . S
C1558 C1559 1.386 . S
C1558 C1560 1.391 . S
C1559 C1558 1.386 . S
C1559 C1563 1.393 . S
C1560 H1549 0.950 . S
C1560 C1558 1.391 . S
C1560 C1561 1.400 . S
C1561 C1555 1.491 . S
C1561 C1560 1.400 . S
C1561 C1562 1.398 . S
C1562 H1550 0.950 . S
C1562 C1561 1.398 . S
C1562 C1563 1.391 . S
C1563 H1551 0.950 . S
C1563 C1559 1.393 . S
C1563 C1562 1.391 . S
H1564 C1572 0.950 . S
H1565 C1577 0.950 . S
H1566 C1574 0.950 . S
H1567 C1576 0.950 . S
H1568 C1578 0.950 . S
H1569 C1580 0.950 . S
H1570 C1582 0.950 . S
H1571 C1583 0.950 . S
C1572 H1564 0.950 . S
C1572 C1573 1.386 . S
C1572 C1574 1.391 . S
C1573 C1572 1.386 . S
C1573 C1577 1.393 . S
C1574 H1566 0.950 . S
C1574 C1572 1.391 . S
C1574 C1575 1.400 . S
C1575 C1574 1.400 . S
C1575 C1576 1.398 . S
C1575 C1581 1.491 . S
C1576 H1567 0.950 . S
C1576 C1575 1.398 . S
C1576 C1577 1.391 . S
C1577 H1565 0.950 . S
C1577 C1573 1.393 . S
C1577 C1576 1.391 . S
C1578 H1568 0.950 . S
C1578 C1579 1.386 . S
C1578 C1580 1.391 . S
C1579 C1578 1.386 . S
C1579 C1583 1.393 . S
C1580 H1569 0.950 . S
C1580 C1578 1.391 . S
C1580 C1581 1.400 . S
C1581 C1575 1.491 . S
C1581 C1580 1.400 . S
C1581 C1582 1.398 . S
C1582 H1570 0.950 . S
C1582 C1581 1.398 . S
C1582 C1583 1.391 . S
C1583 H1571 0.950 . S
C1583 C1579 1.393 . S
C1583 C1582 1.391 . S
C953 C52 1.415 . S
C959 C170 1.420 . S
C973 C229 1.417 . S
C979 C111 1.411 . S
C993 C288 1.416 . S
C999 C406 1.419 . S
C1013 C465 1.415 . S
C1019 C347 1.420 . S
C1033 C524 1.417 . S
C1039 C642 1.418 . S
C1053 C701 1.418 . S
C1059 C583 1.411 . S
C1073 C760 1.415 . S
C1079 C878 1.419 . S
C1093 C937 1.414 . S
C1099 C819 1.412 . S
C1113 C269 1.286 . S
C1119 C33 1.282 . S
C1133 C92 1.268 . S
C1139 C328 1.277 . S
C1153 C151 1.283 . S
C1159 C387 1.276 . S
C1173 C446 1.272 . S
C1179 C210 1.265 . S
C1193 C505 1.285 . S
C1199 C741 1.280 . S
C1213 C564 1.264 . S
C1219 C800 1.271 . S
C1233 C623 1.283 . S
C1239 C859 1.286 . S
C1253 C682 1.272 . S
C1259 C918 1.265 . S
C1273 C593 1.371 . S
C1279 C3 1.371 . S
C1293 C652 1.364 . S
C1299 C62 1.379 . S
C1313 C121 1.378 . S
C1319 C475 1.364 . S
C1333 C180 1.369 . S
C1339 C534 1.373 . S
C1353 C239 1.369 . S
C1359 C829 1.373 . S
C1373 C298 1.379 . S
C1379 C888 1.363 . S
C1393 C357 1.380 . S
C1399 C711 1.362 . S
C1413 C770 1.379 . S
C1419 C416 1.363 . S
C1433 C5 1.430 . S
C1439 C890 1.435 . S
C1453 C713 1.435 . S
C1459 C64 1.431 . S
C1473 C123 1.434 . S
C1479 C772 1.431 . S
C1493 C831 1.432 . S
C1499 C182 1.434 . S
C1513 C536 1.435 . S
C1519 C241 1.431 . S
C1533 C300 1.435 . S
C1539 C595 1.430 . S
C1553 C654 1.431 . S
C1559 C359 1.435 . S
C1573 C477 1.435 . S
C1579 C418 1.430 . S
