# Generated by pormake.
# Topology ukp, (4)-cn, num edge types: 1
# Building blocks:
#     Node 0, Type 0, BuildingBlock: KOZSID_clean_sbu_0, # of connection points: 4
#     Node 1, Type 0, BuildingBlock: KOZSID_clean_sbu_0, # of connection points: 4
#     Node 2, Type 0, BuildingBlock: KOZSID_clean_sbu_0, # of connection points: 4
#     Node 3, Type 0, BuildingBlock: KOZSID_clean_sbu_0, # of connection points: 4
#     Node 4, Type 0, BuildingBlock: KOZSID_clean_sbu_0, # of connection points: 4
#     Node 5, Type 0, BuildingBlock: KOZSID_clean_sbu_0, # of connection points: 4
#     Node 6, Type 0, BuildingBlock: KOZSID_clean_sbu_0, # of connection points: 4
#     Node 7, Type 0, BuildingBlock: KOZSID_clean_sbu_0, # of connection points: 4
#     Node 8, Type 0, BuildingBlock: KOZSID_clean_sbu_0, # of connection points: 4
#     Node 9, Type 0, BuildingBlock: KOZSID_clean_sbu_0, # of connection points: 4
#     Node 10, Type 0, BuildingBlock: KOZSID_clean_sbu_0, # of connection points: 4
#     Node 11, Type 0, BuildingBlock: KOZSID_clean_sbu_0, # of connection points: 4
#     Node 12, Type 0, BuildingBlock: KOZSID_clean_sbu_0, # of connection points: 4
#     Node 13, Type 0, BuildingBlock: KOZSID_clean_sbu_0, # of connection points: 4
#     Node 14, Type 0, BuildingBlock: KOZSID_clean_sbu_0, # of connection points: 4
#     Node 15, Type 0, BuildingBlock: KOZSID_clean_sbu_0, # of connection points: 4
#     Node 16, Type 0, BuildingBlock: KOZSID_clean_sbu_0, # of connection points: 4
#     Node 17, Type 0, BuildingBlock: KOZSID_clean_sbu_0, # of connection points: 4
#     Node 18, Type 0, BuildingBlock: KOZSID_clean_sbu_0, # of connection points: 4
#     Node 19, Type 0, BuildingBlock: KOZSID_clean_sbu_0, # of connection points: 4
#     Node 20, Type 0, BuildingBlock: KOZSID_clean_sbu_0, # of connection points: 4
#     Node 21, Type 0, BuildingBlock: KOZSID_clean_sbu_0, # of connection points: 4
#     Node 22, Type 0, BuildingBlock: KOZSID_clean_sbu_0, # of connection points: 4
#     Node 23, Type 0, BuildingBlock: KOZSID_clean_sbu_0, # of connection points: 4
#     Node 24, Type 0, BuildingBlock: KOZSID_clean_sbu_0, # of connection points: 4
#     Node 25, Type 0, BuildingBlock: KOZSID_clean_sbu_0, # of connection points: 4
#     Node 26, Type 0, BuildingBlock: KOZSID_clean_sbu_0, # of connection points: 4
#     Node 27, Type 0, BuildingBlock: KOZSID_clean_sbu_0, # of connection points: 4
#     Node 28, Type 0, BuildingBlock: KOZSID_clean_sbu_0, # of connection points: 4
#     Node 29, Type 0, BuildingBlock: KOZSID_clean_sbu_0, # of connection points: 4
#     Node 30, Type 0, BuildingBlock: KOZSID_clean_sbu_0, # of connection points: 4
#     Node 31, Type 0, BuildingBlock: KOZSID_clean_sbu_0, # of connection points: 4
#     Node 32, Type 0, BuildingBlock: KOZSID_clean_sbu_0, # of connection points: 4
#     Node 33, Type 0, BuildingBlock: KOZSID_clean_sbu_0, # of connection points: 4
#     Node 34, Type 0, BuildingBlock: KOZSID_clean_sbu_0, # of connection points: 4
#     Node 35, Type 0, BuildingBlock: KOZSID_clean_sbu_0, # of connection points: 4
#     Node 36, Type 0, BuildingBlock: KOZSID_clean_sbu_0, # of connection points: 4
#     Node 37, Type 0, BuildingBlock: KOZSID_clean_sbu_0, # of connection points: 4
#     Node 38, Type 0, BuildingBlock: KOZSID_clean_sbu_0, # of connection points: 4
#     Node 39, Type 0, BuildingBlock: KOZSID_clean_sbu_0, # of connection points: 4
#     Node 40, Type 0, BuildingBlock: KOZSID_clean_sbu_0, # of connection points: 4
#     Node 41, Type 0, BuildingBlock: KOZSID_clean_sbu_0, # of connection points: 4
#     Node 42, Type 0, BuildingBlock: KOZSID_clean_sbu_0, # of connection points: 4
#     Node 43, Type 0, BuildingBlock: KOZSID_clean_sbu_0, # of connection points: 4
#     Node 44, Type 0, BuildingBlock: KOZSID_clean_sbu_0, # of connection points: 4
#     Node 45, Type 0, BuildingBlock: KOZSID_clean_sbu_0, # of connection points: 4
#     Node 46, Type 0, BuildingBlock: KOZSID_clean_sbu_0, # of connection points: 4
#     Node 47, Type 0, BuildingBlock: KOZSID_clean_sbu_0, # of connection points: 4
#     Edge 48, Type (0, 0), BuildingBlock: OJICUG_clean_linker_0, # of connection points: 2
#     Edge 49, Type (0, 0), BuildingBlock: OJICUG_clean_linker_0, # of connection points: 2
#     Edge 50, Type (0, 0), BuildingBlock: OJICUG_clean_linker_0, # of connection points: 2
#     Edge 51, Type (0, 0), BuildingBlock: OJICUG_clean_linker_0, # of connection points: 2
#     Edge 52, Type (0, 0), BuildingBlock: OJICUG_clean_linker_0, # of connection points: 2
#     Edge 53, Type (0, 0), BuildingBlock: OJICUG_clean_linker_0, # of connection points: 2
#     Edge 54, Type (0, 0), BuildingBlock: OJICUG_clean_linker_0, # of connection points: 2
#     Edge 55, Type (0, 0), BuildingBlock: OJICUG_clean_linker_0, # of connection points: 2
#     Edge 56, Type (0, 0), BuildingBlock: OJICUG_clean_linker_0, # of connection points: 2
#     Edge 57, Type (0, 0), BuildingBlock: OJICUG_clean_linker_0, # of connection points: 2
#     Edge 58, Type (0, 0), BuildingBlock: OJICUG_clean_linker_0, # of connection points: 2
#     Edge 59, Type (0, 0), BuildingBlock: OJICUG_clean_linker_0, # of connection points: 2
#     Edge 60, Type (0, 0), BuildingBlock: OJICUG_clean_linker_0, # of connection points: 2
#     Edge 61, Type (0, 0), BuildingBlock: OJICUG_clean_linker_0, # of connection points: 2
#     Edge 62, Type (0, 0), BuildingBlock: OJICUG_clean_linker_0, # of connection points: 2
#     Edge 63, Type (0, 0), BuildingBlock: OJICUG_clean_linker_0, # of connection points: 2
#     Edge 64, Type (0, 0), BuildingBlock: OJICUG_clean_linker_0, # of connection points: 2
#     Edge 65, Type (0, 0), BuildingBlock: OJICUG_clean_linker_0, # of connection points: 2
#     Edge 66, Type (0, 0), BuildingBlock: OJICUG_clean_linker_0, # of connection points: 2
#     Edge 67, Type (0, 0), BuildingBlock: OJICUG_clean_linker_0, # of connection points: 2
#     Edge 68, Type (0, 0), BuildingBlock: OJICUG_clean_linker_0, # of connection points: 2
#     Edge 69, Type (0, 0), BuildingBlock: OJICUG_clean_linker_0, # of connection points: 2
#     Edge 70, Type (0, 0), BuildingBlock: OJICUG_clean_linker_0, # of connection points: 2
#     Edge 71, Type (0, 0), BuildingBlock: OJICUG_clean_linker_0, # of connection points: 2
#     Edge 72, Type (0, 0), BuildingBlock: OJICUG_clean_linker_0, # of connection points: 2
#     Edge 73, Type (0, 0), BuildingBlock: OJICUG_clean_linker_0, # of connection points: 2
#     Edge 74, Type (0, 0), BuildingBlock: OJICUG_clean_linker_0, # of connection points: 2
#     Edge 75, Type (0, 0), BuildingBlock: OJICUG_clean_linker_0, # of connection points: 2
#     Edge 76, Type (0, 0), BuildingBlock: OJICUG_clean_linker_0, # of connection points: 2
#     Edge 77, Type (0, 0), BuildingBlock: OJICUG_clean_linker_0, # of connection points: 2
#     Edge 78, Type (0, 0), BuildingBlock: OJICUG_clean_linker_0, # of connection points: 2
#     Edge 79, Type (0, 0), BuildingBlock: OJICUG_clean_linker_0, # of connection points: 2
#     Edge 80, Type (0, 0), BuildingBlock: OJICUG_clean_linker_0, # of connection points: 2
#     Edge 81, Type (0, 0), BuildingBlock: OJICUG_clean_linker_0, # of connection points: 2
#     Edge 82, Type (0, 0), BuildingBlock: OJICUG_clean_linker_0, # of connection points: 2
#     Edge 83, Type (0, 0), BuildingBlock: OJICUG_clean_linker_0, # of connection points: 2
#     Edge 84, Type (0, 0), BuildingBlock: OJICUG_clean_linker_0, # of connection points: 2
#     Edge 85, Type (0, 0), BuildingBlock: OJICUG_clean_linker_0, # of connection points: 2
#     Edge 86, Type (0, 0), BuildingBlock: OJICUG_clean_linker_0, # of connection points: 2
#     Edge 87, Type (0, 0), BuildingBlock: OJICUG_clean_linker_0, # of connection points: 2
#     Edge 88, Type (0, 0), BuildingBlock: OJICUG_clean_linker_0, # of connection points: 2
#     Edge 89, Type (0, 0), BuildingBlock: OJICUG_clean_linker_0, # of connection points: 2
#     Edge 90, Type (0, 0), BuildingBlock: OJICUG_clean_linker_0, # of connection points: 2
#     Edge 91, Type (0, 0), BuildingBlock: OJICUG_clean_linker_0, # of connection points: 2
#     Edge 92, Type (0, 0), BuildingBlock: OJICUG_clean_linker_0, # of connection points: 2
#     Edge 93, Type (0, 0), BuildingBlock: OJICUG_clean_linker_0, # of connection points: 2
#     Edge 94, Type (0, 0), BuildingBlock: OJICUG_clean_linker_0, # of connection points: 2
#     Edge 95, Type (0, 0), BuildingBlock: OJICUG_clean_linker_0, # of connection points: 2
#     Edge 96, Type (0, 0), BuildingBlock: OJICUG_clean_linker_0, # of connection points: 2
#     Edge 97, Type (0, 0), BuildingBlock: OJICUG_clean_linker_0, # of connection points: 2
#     Edge 98, Type (0, 0), BuildingBlock: OJICUG_clean_linker_0, # of connection points: 2
#     Edge 99, Type (0, 0), BuildingBlock: OJICUG_clean_linker_0, # of connection points: 2
#     Edge 100, Type (0, 0), BuildingBlock: OJICUG_clean_linker_0, # of connection points: 2
#     Edge 101, Type (0, 0), BuildingBlock: OJICUG_clean_linker_0, # of connection points: 2
#     Edge 102, Type (0, 0), BuildingBlock: OJICUG_clean_linker_0, # of connection points: 2
#     Edge 103, Type (0, 0), BuildingBlock: OJICUG_clean_linker_0, # of connection points: 2
#     Edge 104, Type (0, 0), BuildingBlock: OJICUG_clean_linker_0, # of connection points: 2
#     Edge 105, Type (0, 0), BuildingBlock: OJICUG_clean_linker_0, # of connection points: 2
#     Edge 106, Type (0, 0), BuildingBlock: OJICUG_clean_linker_0, # of connection points: 2
#     Edge 107, Type (0, 0), BuildingBlock: OJICUG_clean_linker_0, # of connection points: 2
#     Edge 108, Type (0, 0), BuildingBlock: OJICUG_clean_linker_0, # of connection points: 2
#     Edge 109, Type (0, 0), BuildingBlock: OJICUG_clean_linker_0, # of connection points: 2
#     Edge 110, Type (0, 0), BuildingBlock: OJICUG_clean_linker_0, # of connection points: 2
#     Edge 111, Type (0, 0), BuildingBlock: OJICUG_clean_linker_0, # of connection points: 2
#     Edge 112, Type (0, 0), BuildingBlock: OJICUG_clean_linker_0, # of connection points: 2
#     Edge 113, Type (0, 0), BuildingBlock: OJICUG_clean_linker_0, # of connection points: 2
#     Edge 114, Type (0, 0), BuildingBlock: OJICUG_clean_linker_0, # of connection points: 2
#     Edge 115, Type (0, 0), BuildingBlock: OJICUG_clean_linker_0, # of connection points: 2
#     Edge 116, Type (0, 0), BuildingBlock: OJICUG_clean_linker_0, # of connection points: 2
#     Edge 117, Type (0, 0), BuildingBlock: OJICUG_clean_linker_0, # of connection points: 2
#     Edge 118, Type (0, 0), BuildingBlock: OJICUG_clean_linker_0, # of connection points: 2
#     Edge 119, Type (0, 0), BuildingBlock: OJICUG_clean_linker_0, # of connection points: 2
#     Edge 120, Type (0, 0), BuildingBlock: OJICUG_clean_linker_0, # of connection points: 2
#     Edge 121, Type (0, 0), BuildingBlock: OJICUG_clean_linker_0, # of connection points: 2
#     Edge 122, Type (0, 0), BuildingBlock: OJICUG_clean_linker_0, # of connection points: 2
#     Edge 123, Type (0, 0), BuildingBlock: OJICUG_clean_linker_0, # of connection points: 2
#     Edge 124, Type (0, 0), BuildingBlock: OJICUG_clean_linker_0, # of connection points: 2
#     Edge 125, Type (0, 0), BuildingBlock: OJICUG_clean_linker_0, # of connection points: 2
#     Edge 126, Type (0, 0), BuildingBlock: OJICUG_clean_linker_0, # of connection points: 2
#     Edge 127, Type (0, 0), BuildingBlock: OJICUG_clean_linker_0, # of connection points: 2
#     Edge 128, Type (0, 0), BuildingBlock: OJICUG_clean_linker_0, # of connection points: 2
#     Edge 129, Type (0, 0), BuildingBlock: OJICUG_clean_linker_0, # of connection points: 2
#     Edge 130, Type (0, 0), BuildingBlock: OJICUG_clean_linker_0, # of connection points: 2
#     Edge 131, Type (0, 0), BuildingBlock: OJICUG_clean_linker_0, # of connection points: 2
#     Edge 132, Type (0, 0), BuildingBlock: OJICUG_clean_linker_0, # of connection points: 2
#     Edge 133, Type (0, 0), BuildingBlock: OJICUG_clean_linker_0, # of connection points: 2
#     Edge 134, Type (0, 0), BuildingBlock: OJICUG_clean_linker_0, # of connection points: 2
#     Edge 135, Type (0, 0), BuildingBlock: OJICUG_clean_linker_0, # of connection points: 2
#     Edge 136, Type (0, 0), BuildingBlock: OJICUG_clean_linker_0, # of connection points: 2
#     Edge 137, Type (0, 0), BuildingBlock: OJICUG_clean_linker_0, # of connection points: 2
#     Edge 138, Type (0, 0), BuildingBlock: OJICUG_clean_linker_0, # of connection points: 2
#     Edge 139, Type (0, 0), BuildingBlock: OJICUG_clean_linker_0, # of connection points: 2
#     Edge 140, Type (0, 0), BuildingBlock: OJICUG_clean_linker_0, # of connection points: 2
#     Edge 141, Type (0, 0), BuildingBlock: OJICUG_clean_linker_0, # of connection points: 2
#     Edge 142, Type (0, 0), BuildingBlock: OJICUG_clean_linker_0, # of connection points: 2
#     Edge 143, Type (0, 0), BuildingBlock: OJICUG_clean_linker_0, # of connection points: 2
# Relax obj value: 0.174
# Max RMSD: 0.270
# Mean RMSD: 0.231
data_MOF--net-ukp--node1-KOZSID_clean_sbu_0--edge1-OJICUG_clean_linker_0
_symmetry_space_group_name_H-M    P1
_symmetry_Int_Tables_number       1
_symmetry_cell_setting            triclinic
loop_
_symmetry_equiv_pos_as_xyz
'x, y, z'
_cell_length_a     55.791153
_cell_length_b     61.624164
_cell_length_c     61.628747
_cell_angle_alpha  90.001685
_cell_angle_beta   90.000169
_cell_angle_gamma 90.007204
loop_
_atom_site_label
_atom_site_type_symbol
_atom_site_fract_x
_atom_site_fract_y
_atom_site_fract_z
_atom_type_partial_charge
C0 C 0.22951 0.29449 0.39017 0.0
C1 C 0.25261 0.29249 0.39831 0.0
C2 C 0.25352 0.30478 0.41687 0.0
C3 C 0.23099 0.31348 0.41909 0.0
N4 N 0.21602 0.30737 0.40312 0.0
Co5 Co 0.18196 0.31593 0.40044 0.0
N6 N 0.18693 0.34198 0.41871 0.0
C7 C 0.20512 0.34487 0.43276 0.0
C8 C 0.20382 0.36429 0.44361 0.0
C9 C 0.18344 0.37414 0.43602 0.0
C10 C 0.17338 0.36013 0.42089 0.0
N11 N 0.1478 0.32464 0.3983 0.0
C12 C 0.13721 0.34415 0.40238 0.0
C13 C 0.11269 0.34278 0.399 0.0
C14 C 0.10797 0.32172 0.39272 0.0
C15 C 0.12978 0.31129 0.39264 0.0
N16 N 0.17769 0.28997 0.38195 0.0
C17 C 0.15659 0.28052 0.37739 0.0
C18 C 0.15914 0.26372 0.36285 0.0
C19 C 0.1833 0.2627 0.3581 0.0
C20 C 0.19434 0.2789 0.37009 0.0
N21 N 0.17371 0.29835 0.42659 0.0
C22 C 0.15421 0.27021 0.45871 0.0
C23 C 0.17259 0.26332 0.44468 0.0
C24 C 0.18191 0.27748 0.42874 0.0
C25 C 0.14687 0.29195 0.45696 0.0
C26 C 0.15705 0.30575 0.4412 0.0
N27 N 0.18898 0.33255 0.37376 0.0
C28 C 0.17732 0.3399 0.33673 0.0
C29 C 0.19939 0.34953 0.33226 0.0
C30 C 0.21606 0.35119 0.34938 0.0
C31 C 0.21033 0.34291 0.37014 0.0
C32 C 0.17264 0.33142 0.3572 0.0
H33 H 0.22344 0.34416 0.38299 0.0
H34 H 0.15602 0.32289 0.35905 0.0
H35 H 0.19508 0.2712 0.41754 0.0
H36 H 0.15059 0.32222 0.44028 0.0
C37 C 0.22475 0.33067 0.43285 0.0
C38 C 0.22059 0.28316 0.37082 0.0
C39 C 0.14987 0.36362 0.41062 0.0
C40 C 0.13492 0.29078 0.38344 0.0
H41 H 0.26726 0.28321 0.39151 0.0
H42 H 0.2691 0.30787 0.42687 0.0
H43 H 0.21651 0.37081 0.45519 0.0
H44 H 0.17658 0.38969 0.44131 0.0
H45 H 0.09964 0.35564 0.40087 0.0
H46 H 0.0908 0.31511 0.3879 0.0
H47 H 0.14501 0.25414 0.35556 0.0
H48 H 0.19167 0.25152 0.3469 0.0
H49 H 0.17903 0.24676 0.44534 0.0
H50 H 0.13311 0.29828 0.46762 0.0
H51 H 0.16405 0.33773 0.32408 0.0
H52 H 0.23344 0.35854 0.34668 0.0
C53 C 0.04011 0.88783 0.63998 0.0
C54 C 0.05165 0.8689 0.63356 0.0
C55 C 0.04901 0.86733 0.61167 0.0
C56 C 0.0357 0.88505 0.60586 0.0
N57 N 0.0294 0.89788 0.62267 0.0
Co58 Co 0.00871 0.92462 0.62048 0.0
N59 N 1.00171 0.91971 0.58879 0.0
C60 C 0.01076 0.90357 0.57648 0.0
C61 C 1.00154 0.90277 0.55592 0.0
C62 C 0.98601 0.9198 0.5548 0.0
C63 C 0.98706 0.93042 0.57468 0.0
N64 N 0.98894 0.9517 0.61809 0.0
C65 C 0.97803 0.96119 0.60059 0.0
C66 C 0.97003 0.9819 0.60577 0.0
C67 C 0.97581 0.98547 0.62702 0.0
C68 C 0.98726 0.96697 0.63369 0.0
N69 N 0.01494 0.92842 0.65259 0.0
C70 C 0.0088 0.94612 0.66422 0.0
C71 C 0.01594 0.9452 0.68548 0.0
C72 C 0.02761 0.92579 0.68758 0.0
C73 C 0.02695 0.91577 0.66742 0.0
N74 N 0.03692 0.9433 0.61314 0.0
C75 C 0.05229 0.98639 0.60649 0.0
C76 C 0.05557 0.97614 0.62659 0.0
C77 C 0.04877 0.95431 0.62927 0.0
C78 C 0.04534 0.97329 0.58902 0.0
C79 C 0.03857 0.95173 0.59256 0.0
N80 N 0.97939 0.90777 0.62748 0.0
C81 C 0.93994 0.90843 0.64375 0.0
C82 C 0.93209 0.89176 0.63015 0.0
C83 C 0.94888 0.88213 0.61626 0.0
C84 C 0.97254 0.89002 0.61556 0.0
C85 C 0.96339 0.91622 0.64208 0.0
H86 H 0.98483 0.88219 0.60471 0.0
H87 H 0.9679 0.92989 0.65195 0.0
H88 H 0.05175 0.94712 0.64493 0.0
H89 H 0.03305 0.94281 0.5785 0.0
C90 C 0.02671 0.88866 0.58517 0.0
C91 C 0.04016 0.89543 0.66271 0.0
C92 C 0.9761 0.9518 0.57853 0.0
C93 C 0.99682 0.96344 0.65436 0.0
H94 H 0.06079 0.85716 0.64363 0.0
H95 H 0.05533 0.85436 0.60129 0.0
H96 H 1.00546 0.89107 0.54331 0.0
H97 H 0.97551 0.92406 0.54068 0.0
H98 H 0.96157 0.9936 0.59518 0.0
H99 H 0.97253 1.00004 0.63636 0.0
H100 H 0.01346 0.95743 0.69789 0.0
H101 H 0.03642 0.9201 0.70214 0.0
H102 H 0.06277 0.98501 0.64029 0.0
H103 H 0.04367 0.97988 0.5728 0.0
H104 H 0.92765 0.9162 0.65494 0.0
H105 H 0.94371 0.86874 0.60587 0.0
C106 C 0.28688 0.72779 0.88822 0.0
C107 C 0.26366 0.72984 0.89608 0.0
C108 C 0.26249 0.71767 0.91471 0.0
C109 C 0.28499 0.70899 0.91724 0.0
N110 N 0.30017 0.715 0.90138 0.0
Co111 Co 0.33431 0.70661 0.89927 0.0
N112 N 0.32914 0.68068 0.91766 0.0
C113 C 0.31074 0.67781 0.93149 0.0
C114 C 0.31197 0.65845 0.94246 0.0
C115 C 0.33251 0.64863 0.93517 0.0
C116 C 0.34272 0.66259 0.92008 0.0
N117 N 0.36857 0.69815 0.8979 0.0
C118 C 0.37919 0.67872 0.90225 0.0
C119 C 0.40376 0.68018 0.89926 0.0
C120 C 0.40849 0.70124 0.89295 0.0
C121 C 0.38661 0.71156 0.89244 0.0
N122 N 0.3388 0.73235 0.88053 0.0
C123 C 0.35992 0.74187 0.87618 0.0
C124 C 0.35752 0.75851 0.86144 0.0
C125 C 0.33343 0.75937 0.85636 0.0
C126 C 0.32229 0.74322 0.86835 0.0
N127 N 0.34183 0.72453 0.92535 0.0
C128 C 0.3605 0.75311 0.95757 0.0
C129 C 0.34357 0.76014 0.94215 0.0
C130 C 0.3344 0.7457 0.92645 0.0
C131 C 0.36667 0.73096 0.9571 0.0
C132 C 0.35722 0.71706 0.94102 0.0
N133 N 0.32795 0.6897 0.8726 0.0
C134 C 0.34037 0.68236 0.83576 0.0
C135 C 0.31819 0.67318 0.83077 0.0
C136 C 0.30112 0.67162 0.84757 0.0
C137 C 0.30652 0.67965 0.8685 0.0
C138 C 0.34474 0.69061 0.85639 0.0
H139 H 0.29308 0.67854 0.88107 0.0
H140 H 0.36146 0.69888 0.85859 0.0
H141 H 0.32196 0.75199 0.91459 0.0
H142 H 0.36328 0.70043 0.94071 0.0
C143 C 0.29106 0.69194 0.93123 0.0
C144 C 0.29606 0.73892 0.86887 0.0
C145 C 0.36641 0.65918 0.91014 0.0
C146 C 0.38153 0.73188 0.8828 0.0
H147 H 0.2491 0.73907 0.88905 0.0
H148 H 0.24678 0.71465 0.92456 0.0
H149 H 0.29914 0.65194 0.95392 0.0
H150 H 0.33938 0.63315 0.94064 0.0
H151 H 0.41684 0.66738 0.90132 0.0
H152 H 0.4257 0.70787 0.88829 0.0
H153 H 0.37171 0.76813 0.8543 0.0
H154 H 0.32516 0.77044 0.84499 0.0
H155 H 0.33757 0.77684 0.94197 0.0
H156 H 0.37958 0.72448 0.9685 0.0
H157 H 0.35397 0.68442 0.82339 0.0
H158 H 0.28367 0.66457 0.84449 0.0
C159 C 0.47467 0.13363 0.14076 0.0
C160 C 0.46252 0.15236 0.13471 0.0
C161 C 0.46419 0.15391 0.11272 0.0
C162 C 0.47763 0.13642 0.1065 0.0
N163 N 0.48492 0.12378 0.12312 0.0
Co164 Co 0.50651 0.09775 0.12035 0.0
N165 N 0.51338 0.10366 0.08882 0.0
C166 C 0.50223 0.11862 0.07647 0.0
C167 C 0.51004 0.11921 0.05543 0.0
C168 C 0.52705 0.1034 0.0541 0.0
C169 C 0.5288 0.09404 0.07457 0.0
N170 N 0.52748 0.07155 0.11746 0.0
C171 C 0.54038 0.06378 0.10027 0.0
C172 C 0.55078 0.04395 0.10526 0.0
C173 C 0.54373 0.03883 0.12592 0.0
C174 C 0.52957 0.0558 0.13251 0.0
N175 N 0.49997 0.09277 0.1522 0.0
C176 C 0.50563 0.07447 0.16306 0.0
C177 C 0.49829 0.07465 0.1843 0.0
C178 C 0.48698 0.09417 0.18713 0.0
C179 C 0.48805 0.10501 0.16742 0.0
N180 N 0.47918 0.07832 0.11237 0.0
C181 C 0.46397 0.03483 0.10906 0.0
C182 C 0.45778 0.04749 0.12719 0.0
C183 C 0.4649 0.06944 0.12819 0.0
C184 C 0.47365 0.04568 0.09119 0.0
C185 C 0.48036 0.06745 0.09295 0.0
N186 N 0.53512 0.11519 0.12803 0.0
C187 C 0.57445 0.11339 0.1442 0.0
C188 C 0.58321 0.12909 0.1299 0.0
C189 C 0.56667 0.1396 0.11632 0.0
C190 C 0.5426 0.1325 0.11576 0.0
C191 C 0.55059 0.10683 0.1431 0.0
H192 H 0.5306 0.14013 0.10441 0.0
H193 H 0.54548 0.09369 0.15344 0.0
H194 H 0.46058 0.07842 0.14266 0.0
H195 H 0.48843 0.07436 0.07881 0.0
C196 C 0.48581 0.13286 0.08554 0.0
C197 C 0.47518 0.1257 0.16339 0.0
C198 C 0.54242 0.07406 0.07869 0.0
C199 C 0.51877 0.05797 0.15291 0.0
H200 H 0.45349 0.16394 0.14504 0.0
H201 H 0.45713 0.16672 0.10254 0.0
H202 H 0.50402 0.12984 0.04255 0.0
H203 H 0.53634 0.09879 0.03941 0.0
H204 H 0.56199 0.03404 0.09492 0.0
H205 H 0.54838 0.02443 0.13505 0.0
H206 H 0.50075 0.06202 0.19631 0.0
H207 H 0.47825 0.09949 0.20187 0.0
H208 H 0.4489 0.04026 0.14104 0.0
H209 H 0.47704 0.03717 0.07612 0.0
H210 H 0.58633 0.10533 0.15554 0.0
H211 H 0.57253 0.15223 0.10531 0.0
C212 C 0.23046 0.73022 0.13334 0.0
C213 C 0.25362 0.7324 0.12539 0.0
C214 C 0.25485 0.72 0.10691 0.0
C215 C 0.23244 0.71108 0.10457 0.0
N216 N 0.21725 0.71714 0.12038 0.0
Co217 Co 0.18319 0.70843 0.12272 0.0
N218 N 0.18851 0.68239 0.10448 0.0
C219 C 0.207 0.67946 0.09076 0.0
C220 C 0.20589 0.66003 0.07991 0.0
C221 C 0.18533 0.6502 0.08715 0.0
C222 C 0.17497 0.66425 0.10208 0.0
N223 N 0.14895 0.6998 0.12412 0.0
C224 C 0.13836 0.68038 0.11967 0.0
C225 C 0.11378 0.68177 0.12264 0.0
C226 C 0.10899 0.70277 0.12905 0.0
C227 C 0.13084 0.71312 0.12963 0.0
N228 N 0.17855 0.73421 0.1414 0.0
C229 C 0.15736 0.7435 0.14594 0.0
C230 C 0.15968 0.76021 0.16062 0.0
C231 C 0.1838 0.76135 0.16549 0.0
C232 C 0.19502 0.7453 0.15343 0.0
N233 N 0.17546 0.72612 0.09655 0.0
C234 C 0.1567 0.75424 0.064 0.0
C235 C 0.17343 0.76157 0.07947 0.0
C236 C 0.18263 0.74736 0.09534 0.0
C237 C 0.15077 0.73204 0.06461 0.0
C238 C 0.16026 0.71837 0.08086 0.0
N239 N 0.18988 0.69175 0.14952 0.0
C240 C 0.1773 0.68386 0.18621 0.0
C241 C 0.20036 0.67712 0.19213 0.0
C242 C 0.21772 0.6763 0.17544 0.0
C243 C 0.21198 0.68326 0.15421 0.0
C244 C 0.17269 0.69151 0.16539 0.0
H245 H 0.22576 0.68275 0.14193 0.0
H246 H 0.15524 0.69829 0.1628 0.0
H247 H 0.19492 0.75386 0.10721 0.0
H248 H 0.1544 0.70169 0.08125 0.0
C249 C 0.22653 0.69376 0.09085 0.0
C250 C 0.22129 0.74135 0.15269 0.0
C251 C 0.15114 0.66087 0.11177 0.0
C252 C 0.13583 0.73338 0.13938 0.0
H253 H 0.26812 0.7418 0.13229 0.0
H254 H 0.27057 0.71698 0.09707 0.0
H255 H 0.21878 0.65351 0.06852 0.0
H256 H 0.17851 0.63469 0.08171 0.0
H257 H 0.10073 0.66895 0.12052 0.0
H258 H 0.09177 0.70934 0.13374 0.0
H259 H 0.14544 0.76971 0.16783 0.0
H260 H 0.19205 0.77256 0.17674 0.0
H261 H 0.17924 0.77832 0.07954 0.0
H262 H 0.13803 0.72534 0.05319 0.0
H263 H 0.16267 0.68393 0.19772 0.0
H264 H 0.23587 0.67111 0.17875 0.0
C265 C 0.47387 0.89131 0.38172 0.0
C266 C 0.45808 0.875 0.38794 0.0
C267 C 0.45867 0.87404 0.41003 0.0
C268 C 0.47489 0.88954 0.41617 0.0
N269 N 0.48473 0.90044 0.39942 0.0
Co270 Co 0.51097 0.92259 0.40218 0.0
N271 N 0.50643 0.92536 0.43438 0.0
C272 C 0.4928 0.91227 0.44679 0.0
C273 C 0.4917 0.91851 0.46811 0.0
C274 C 0.5059 0.9365 0.46946 0.0
C275 C 0.5152 0.94007 0.44885 0.0
N276 N 0.53742 0.94431 0.40505 0.0
C277 C 0.54507 0.95621 0.42244 0.0
C278 C 0.56556 0.96787 0.41723 0.0
C279 C 0.57102 0.963 0.39609 0.0
C280 C 0.5537 0.94861 0.38951 0.0
N281 N 0.51469 0.91966 0.36982 0.0
C282 C 0.53352 0.92725 0.35844 0.0
C283 C 0.53162 0.92344 0.33657 0.0
C284 C 0.51045 0.91244 0.33392 0.0
C285 C 0.50057 0.90981 0.35442 0.0
N286 N 0.48838 0.94691 0.39789 0.0
C287 C 0.47005 0.98935 0.40279 0.0
C288 C 0.48647 0.98434 0.38635 0.0
C289 C 0.49504 0.96318 0.38401 0.0
C290 C 0.4608 0.97185 0.41495 0.0
C291 C 0.47002 0.95075 0.4121 0.0
N292 N 0.53546 0.89962 0.40667 0.0
C293 C 0.56466 0.87652 0.38905 0.0
C294 C 0.58198 0.8822 0.40458 0.0
C295 C 0.57455 0.89407 0.42259 0.0
C296 C 0.55127 0.90219 0.42354 0.0
C297 C 0.5413 0.88519 0.39057 0.0
H298 H 0.54739 0.91248 0.43706 0.0
H299 H 0.52875 0.88163 0.37774 0.0
H300 H 0.50891 0.96074 0.37223 0.0
H301 H 0.46353 0.93797 0.4225 0.0
C302 C 0.47944 0.89568 0.43749 0.0
C303 C 0.47886 0.89642 0.35873 0.0
C304 C 0.53494 0.95535 0.44463 0.0
C305 C 0.55112 0.93995 0.36859 0.0
H306 H 0.44747 0.86454 0.37765 0.0
H307 H 0.44824 0.86348 0.42042 0.0
H308 H 0.48153 0.91104 0.48107 0.0
H309 H 0.5096 0.94554 0.48414 0.0
H310 H 0.57584 0.9784 0.42775 0.0
H311 H 0.58586 0.96923 0.38665 0.0
H312 H 0.54389 0.92851 0.32394 0.0
H313 H 0.5033 0.90685 0.31861 0.0
H314 H 0.49424 0.99688 0.37628 0.0
H315 H 0.44725 0.97449 0.42724 0.0
H316 H 0.56954 0.86681 0.37509 0.0
H317 H 0.58715 0.89827 0.43531 0.0
C318 C 0.28697 0.29355 0.63235 0.0
C319 C 0.26376 0.29196 0.62438 0.0
C320 C 0.26285 0.30456 0.60602 0.0
C321 C 0.2855 0.31301 0.60376 0.0
N322 N 0.30051 0.30645 0.61952 0.0
Co323 Co 0.33469 0.31448 0.62215 0.0
N324 N 0.32998 0.34089 0.60435 0.0
C325 C 0.31176 0.34424 0.59041 0.0
C326 C 0.31334 0.3638 0.57986 0.0
C327 C 0.33391 0.37326 0.58752 0.0
C328 C 0.3438 0.35888 0.60241 0.0
N329 N 0.36896 0.3227 0.62431 0.0
C330 C 0.37981 0.34213 0.62049 0.0
C331 C 0.40433 0.34044 0.62375 0.0
C332 C 0.40879 0.31923 0.62965 0.0
C333 C 0.38682 0.30906 0.62967 0.0
N334 N 0.33877 0.28813 0.64012 0.0
C335 C 0.35973 0.27825 0.64428 0.0
C336 C 0.35701 0.26117 0.65847 0.0
C337 C 0.33288 0.26042 0.66338 0.0
C338 C 0.32206 0.27706 0.65185 0.0
N339 N 0.34239 0.29724 0.59572 0.0
C340 C 0.3611 0.26919 0.56315 0.0
C341 C 0.3437 0.26206 0.57807 0.0
C342 C 0.3345 0.27625 0.59394 0.0
C343 C 0.36772 0.29121 0.56423 0.0
C344 C 0.35824 0.30485 0.58051 0.0
N345 N 0.32802 0.33068 0.6491 0.0
C346 C 0.33805 0.335 0.68696 0.0
C347 C 0.31667 0.34601 0.69091 0.0
C348 C 0.30153 0.35038 0.67316 0.0
C349 C 0.30751 0.34246 0.65231 0.0
C350 C 0.34344 0.32774 0.66615 0.0
H351 H 0.29523 0.34512 0.63902 0.0
H352 H 0.35972 0.31867 0.66428 0.0
H353 H 0.32168 0.26988 0.60542 0.0
H354 H 0.36463 0.32136 0.58136 0.0
C355 C 0.2919 0.3303 0.5902 0.0
C356 C 0.29595 0.28178 0.65139 0.0
C357 C 0.3674 0.36188 0.61263 0.0
C358 C 0.38151 0.28838 0.63838 0.0
H359 H 0.24903 0.28276 0.63116 0.0
H360 H 0.24723 0.308 0.5962 0.0
H361 H 0.30071 0.37066 0.56843 0.0
H362 H 0.34101 0.38879 0.58243 0.0
H363 H 0.41756 0.35316 0.62203 0.0
H364 H 0.42589 0.31234 0.63425 0.0
H365 H 0.37103 0.25123 0.66544 0.0
H366 H 0.32439 0.24912 0.67439 0.0
H367 H 0.33739 0.24545 0.57774 0.0
H368 H 0.38098 0.29771 0.55319 0.0
H369 H 0.35044 0.33157 0.70006 0.0
H370 H 0.28483 0.359 0.67553 0.0
C371 C 0.04325 0.13343 0.88213 0.0
C372 C 0.05589 0.15183 0.88835 0.0
C373 C 0.05445 0.1531 0.91037 0.0
C374 C 0.04065 0.13578 0.91645 0.0
N375 N 0.03295 0.12352 0.89971 0.0
Co376 Co 0.01073 0.09792 0.90223 0.0
N377 N 1.00394 0.10371 0.93379 0.0
C378 C 0.01554 0.11825 0.9463 0.0
C379 C 1.00769 0.11886 0.96733 0.0
C380 C 0.99018 0.10347 0.96848 0.0
C381 C 0.98822 0.09433 0.94792 0.0
N382 N 0.98909 0.07215 0.90485 0.0
C383 C 0.97597 0.0645 0.92195 0.0
C384 C 0.96516 0.04489 0.9168 0.0
C385 C 0.97218 0.03976 0.89614 0.0
C386 C 0.98673 0.05652 0.8897 0.0
N387 N 0.01729 0.093 0.87039 0.0
C388 C 0.01143 0.07481 0.85944 0.0
C389 C 0.01875 0.07505 0.83819 0.0
C390 C 0.03025 0.09451 0.83546 0.0
C391 C 0.02928 0.10524 0.85524 0.0
N392 N 0.03756 0.07795 0.91011 0.0
C393 C 0.05303 0.03452 0.91266 0.0
C394 C 0.05956 0.04764 0.89497 0.0
C395 C 0.05228 0.06956 0.89436 0.0
C396 C 0.04277 0.04484 0.93058 0.0
C397 C 0.03585 0.06656 0.9292 0.0
N398 N 0.98267 0.11603 0.89452 0.0
C399 C 0.94462 0.11713 0.87588 0.0
C400 C 0.93627 0.13362 0.88949 0.0
C401 C 0.95224 0.14213 0.90491 0.0
C402 C 0.97554 0.13342 0.90684 0.0
C403 C 0.96753 0.1086 0.8787 0.0
H404 H 0.98725 0.14018 0.91895 0.0
H405 H 0.97214 0.09501 0.86875 0.0
H406 H 0.05683 0.07892 0.88019 0.0
H407 H 0.02716 0.07298 0.94325 0.0
C408 C 0.03239 0.13218 0.93738 0.0
C409 C 0.04229 0.12583 0.85939 0.0
C410 C 0.97422 0.07458 0.94366 0.0
C411 C 0.99782 0.05853 0.86941 0.0
H412 H 0.06508 0.1634 0.87812 0.0
H413 H 0.06185 0.16566 0.92067 0.0
H414 H 0.014 0.12922 0.98032 0.0
H415 H 0.98073 0.09895 0.98311 0.0
H416 H 0.95373 0.03509 0.92707 0.0
H417 H 0.96731 0.02547 0.88693 0.0
H418 H 0.01609 0.06255 0.82609 0.0
H419 H 0.03898 0.09988 0.82074 0.0
H420 H 0.06883 0.04081 0.88114 0.0
H421 H 0.03904 0.03593 0.94535 0.0
H422 H 0.93301 0.10988 0.8638 0.0
H423 H 0.94669 0.15517 0.91555 0.0
C424 C 0.36041 0.25768 0.25217 0.0
C425 C 0.37392 0.27636 0.24906 0.0
C426 C 0.39505 0.27338 0.26004 0.0
C427 C 0.39327 0.2532 0.26933 0.0
N428 N 0.37232 0.24333 0.26489 0.0
Co429 Co 0.36241 0.21435 0.27554 0.0
N430 N 0.38579 0.2154 0.29972 0.0
C431 C 0.40528 0.22823 0.30059 0.0
C432 C 0.41845 0.2253 0.31918 0.0
C433 C 0.40654 0.20958 0.33065 0.0
C434 C 0.38666 0.20377 0.31838 0.0
N435 N 0.35295 0.18527 0.28627 0.0
C436 C 0.35673 0.17585 0.30598 0.0
C437 C 0.34701 0.15515 0.3064 0.0
C438 C 0.33701 0.1516 0.28626 0.0
C439 C 0.34113 0.17028 0.27458 0.0
N440 N 0.33889 0.21385 0.25149 0.0
C441 C 0.32827 0.19598 0.24354 0.0
C442 C 0.31219 0.20083 0.2273 0.0
C443 C 0.3129 0.22309 0.22502 0.0
C444 C 0.32936 0.23068 0.24006 0.0
N445 N 0.38691 0.20011 0.25623 0.0
C446 C 0.41707 0.1757 0.22741 0.0
C447 C 0.40231 0.19269 0.21994 0.0
C448 C 0.38785 0.20479 0.23447 0.0
C449 C 0.41685 0.17187 0.24995 0.0
C450 C 0.40161 0.18393 0.26389 0.0
N451 N 0.33729 0.22768 0.2942 0.0
C452 C 0.29602 0.22718 0.30663 0.0
C453 C 0.29913 0.24628 0.31866 0.0
C454 C 0.32215 0.25585 0.3181 0.0
C455 C 0.34094 0.24627 0.30593 0.0
C456 C 0.315 0.21831 0.29467 0.0
H457 H 0.35834 0.25395 0.30587 0.0
H458 H 0.31133 0.20386 0.28548 0.0
H459 H 0.3769 0.21763 0.22787 0.0
H460 H 0.4013 0.17967 0.28087 0.0
C461 C 0.40829 0.2451 0.28562 0.0
C462 C 0.3369 0.25364 0.24218 0.0
C463 C 0.37037 0.18586 0.32399 0.0
C464 C 0.33054 0.17599 0.25456 0.0
H465 H 0.36904 0.29073 0.24001 0.0
H466 H 0.40939 0.28505 0.26199 0.0
H467 H 0.43433 0.23407 0.32418 0.0
H468 H 0.41203 0.20297 0.34614 0.0
H469 H 0.34709 0.14386 0.31985 0.0
H470 H 0.32702 0.13746 0.28111 0.0
H471 H 0.30052 0.18967 0.2188 0.0
H472 H 0.30255 0.23265 0.21365 0.0
H473 H 0.40191 0.19669 0.20283 0.0
H474 H 0.42775 0.15902 0.25674 0.0
H475 H 0.27874 0.21921 0.306 0.0
H476 H 0.32575 0.27052 0.3272 0.0
C477 C 0.03358 0.13934 0.54375 0.0
C478 C 0.01028 0.14713 0.54232 0.0
C479 C 0.00926 0.16538 0.55506 0.0
C480 C 0.03192 0.16778 0.56342 0.0
N481 N 0.04707 0.15222 0.55667 0.0
Co482 Co 0.08139 0.14998 0.56448 0.0
N483 N 0.0766 0.16742 0.59112 0.0
C484 C 0.05816 0.18105 0.59472 0.0
C485 C 0.05971 0.19147 0.61435 0.0
C486 C 0.08052 0.18407 0.62358 0.0
C487 C 0.09057 0.16946 0.60901 0.0
N488 N 0.11582 0.14843 0.5724 0.0
C489 C 0.12683 0.15229 0.59175 0.0
C490 C 0.1514 0.14954 0.58975 0.0
C491 C 0.1557 0.14391 0.56843 0.0
C492 C 0.13361 0.14356 0.55849 0.0
N493 N 0.08542 0.13226 0.53797 0.0
C494 C 0.10637 0.12833 0.528 0.0
C495 C 0.10374 0.11398 0.51103 0.0
C496 C 0.07969 0.10871 0.51047 0.0
C497 C 0.06877 0.12021 0.52709 0.0
N498 N 0.08859 0.17675 0.54745 0.0
C499 C 0.10765 0.20926 0.51952 0.0
C500 C 0.08929 0.19522 0.51261 0.0
C501 C 0.08018 0.1791 0.52667 0.0
C502 C 0.11507 0.20742 0.54123 0.0
C503 C 0.10509 0.19147 0.55493 0.0
N504 N 0.07547 0.12261 0.5804 0.0
C505 C 0.08819 0.08547 0.58501 0.0
C506 C 0.06594 0.07956 0.59345 0.0
C507 C 0.04899 0.09616 0.59693 0.0
C508 C 0.05418 0.11769 0.59037 0.0
C509 C 0.09244 0.10667 0.57848 0.0
H510 H 0.04062 0.13005 0.59237 0.0
H511 H 0.1092 0.1095 0.57051 0.0
H512 H 0.06708 0.16785 0.52034 0.0
H513 H 0.1117 0.19042 0.57134 0.0
C514 C 0.03823 0.18119 0.58086 0.0
C515 C 0.04262 0.12032 0.53196 0.0
C516 C 0.11448 0.15972 0.61172 0.0
C517 C 0.12815 0.13466 0.53791 0.0
H518 H 0.99557 0.14028 0.53315 0.0
H519 H 0.99354 0.17503 0.55867 0.0
H520 H 0.04696 0.20268 0.62137 0.0
H521 H 0.08769 0.1892 0.63907 0.0
H522 H 0.16475 0.15137 0.60235 0.0
H523 H 0.17281 0.13964 0.56133 0.0
H524 H 0.1178 0.10714 0.50105 0.0
H525 H 0.07134 0.09747 0.49932 0.0
H526 H 0.08276 0.19598 0.49608 0.0
H527 H 0.1288 0.2181 0.54759 0.0
H528 H 0.10213 0.07348 0.58251 0.0
H529 H 0.03154 0.09239 0.60364 0.0
C530 C 0.15599 0.76314 0.75087 0.0
C531 C 0.14262 0.74435 0.74791 0.0
C532 C 0.12147 0.74728 0.75886 0.0
C533 C 0.12308 0.76754 0.768 0.0
N534 N 0.14395 0.7775 0.76348 0.0
Co535 Co 0.15369 0.80658 0.77401 0.0
N536 N 0.13041 0.80547 0.79827 0.0
C537 C 0.111 0.79255 0.79923 0.0
C538 C 0.09791 0.79544 0.81787 0.0
C539 C 0.10979 0.81123 0.82928 0.0
C540 C 0.12957 0.81711 0.81693 0.0
N541 N 0.16297 0.83574 0.78463 0.0
C542 C 0.15926 0.84516 0.80435 0.0
C543 C 0.16883 0.86591 0.80469 0.0
C544 C 0.17868 0.86948 0.78448 0.0
C545 C 0.17462 0.85077 0.77285 0.0
N546 N 0.17711 0.80712 0.74991 0.0
C547 C 0.18756 0.82502 0.74185 0.0
C548 C 0.2037 0.82018 0.72565 0.0
C549 C 0.2032 0.79789 0.72352 0.0
C550 C 0.18682 0.79027 0.7386 0.0
N551 N 0.12903 0.82062 0.75475 0.0
C552 C 0.09869 0.84488 0.72599 0.0
C553 C 0.1135 0.82794 0.71849 0.0
C554 C 0.12805 0.81591 0.73299 0.0
C555 C 0.09896 0.84873 0.74852 0.0
C556 C 0.11427 0.83674 0.76243 0.0
N557 N 0.17895 0.79348 0.7926 0.0
C558 C 0.22027 0.79428 0.80479 0.0
C559 C 0.21737 0.77517 0.81682 0.0
C560 C 0.19445 0.76543 0.81642 0.0
C561 C 0.17551 0.77488 0.80436 0.0
C562 C 0.20115 0.80301 0.79295 0.0
H563 H 0.15816 0.76708 0.80439 0.0
H564 H 0.20465 0.81747 0.78373 0.0
H565 H 0.13906 0.8031 0.72639 0.0
H566 H 0.11462 0.84102 0.77941 0.0
C567 C 0.10805 0.77562 0.78431 0.0
C568 C 0.17951 0.76726 0.7409 0.0
C569 C 0.14582 0.83508 0.82246 0.0
C570 C 0.18517 0.84504 0.7528 0.0
H571 H 0.14763 0.72993 0.73901 0.0
H572 H 0.10724 0.73552 0.76092 0.0
H573 H 0.08211 0.7866 0.82295 0.0
H574 H 0.10434 0.81783 0.84479 0.0
H575 H 0.16877 0.87722 0.81812 0.0
H576 H 0.18856 0.88367 0.77927 0.0
H577 H 0.21529 0.83137 0.71709 0.0
H578 H 0.21366 0.78834 0.71223 0.0
H579 H 0.11387 0.82392 0.70139 0.0
H580 H 0.08802 0.86155 0.75533 0.0
H581 H 0.23749 0.80236 0.80406 0.0
H582 H 0.19103 0.75075 0.82555 0.0
C583 C 0.48026 0.88421 0.04332 0.0
C584 C 0.50344 0.87628 0.04123 0.0
C585 C 0.50456 0.85767 0.05343 0.0
C586 C 0.48207 0.85522 0.06216 0.0
N587 N 0.46694 0.87111 0.05615 0.0
Co588 Co 0.43285 0.8734 0.06461 0.0
N589 N 0.43803 0.8551 0.09058 0.0
C590 C 0.45636 0.84119 0.09346 0.0
C591 C 0.45512 0.83031 0.11287 0.0
C592 C 0.43466 0.83774 0.12271 0.0
C593 C 0.42449 0.85282 0.10871 0.0
N594 N 0.39864 0.87497 0.07313 0.0
C595 C 0.38807 0.87076 0.0926 0.0
C596 C 0.36351 0.87385 0.09121 0.0
C597 C 0.35874 0.88008 0.07015 0.0
C598 C 0.38058 0.88044 0.05976 0.0
N599 N 0.42836 0.89205 0.03881 0.0
C600 C 0.40725 0.89644 0.02931 0.0
C601 C 0.40968 0.91113 0.01262 0.0
C602 C 0.43379 0.91614 0.01172 0.0
C603 C 0.44489 0.90415 0.02789 0.0
N604 N 0.42515 0.84727 0.04684 0.0
C605 C 0.40643 0.81479 0.01856 0.0
C606 C 0.42332 0.83018 0.01137 0.0
C607 C 0.43252 0.84601 0.02565 0.0
C608 C 0.4003 0.81545 0.04071 0.0
C609 C 0.40977 0.83166 0.05446 0.0
N610 N 0.43941 0.90011 0.08141 0.0
C611 C 0.42726 0.93702 0.08878 0.0
C612 C 0.44943 0.94186 0.09805 0.0
C613 C 0.46637 0.92496 0.0996 0.0
C614 C 0.46084 0.90407 0.09151 0.0
C615 C 0.42276 0.91643 0.08047 0.0
H616 H 0.47419 0.89142 0.09264 0.0
H617 H 0.40604 0.91432 0.07216 0.0
H618 H 0.44494 0.85782 0.01925 0.0
H619 H 0.40374 0.8321 0.07109 0.0
C620 C 0.476 0.8413 0.07927 0.0
C621 C 0.47111 0.90357 0.0322 0.0
C622 C 0.40089 0.8629 0.11213 0.0
C623 C 0.38563 0.88996 0.03938 0.0
H624 H 0.51801 0.88326 0.03197 0.0
H625 H 0.52025 0.84778 0.05645 0.0
H626 H 0.4679 0.81882 0.11939 0.0
H627 H 0.4278 0.83238 0.13824 0.0
H628 H 0.35047 0.8719 0.10406 0.0
H629 H 0.34153 0.88478 0.06354 0.0
H630 H 0.39551 0.91829 1.00301 0.0
H631 H 0.44209 0.92746 1.00062 0.0
H632 H 0.42929 0.83022 0.99466 0.0
H633 H 0.38742 0.8041 0.04731 0.0
H634 H 0.41375 0.94949 0.08673 0.0
H635 H 0.48382 0.92792 0.10671 0.0
C636 C 0.35933 0.76639 0.27048 0.0
C637 C 0.37216 0.74749 0.27429 0.0
C638 C 0.39387 0.74993 0.26404 0.0
C639 C 0.3931 0.77012 0.25459 0.0
N640 N 0.3723 0.78047 0.25837 0.0
Co641 Co 0.36349 0.80954 0.24742 0.0
N642 N 0.38707 0.80763 0.22353 0.0
C643 C 0.40625 0.7944 0.22307 0.0
C644 C 0.41964 0.79677 0.20452 0.0
C645 C 0.4082 0.81255 0.19268 0.0
C646 C 0.38835 0.81893 0.20469 0.0
N647 N 0.35504 0.8387 0.23638 0.0
C648 C 0.35914 0.84771 0.21655 0.0
C649 C 0.35001 0.86862 0.2158 0.0
C650 C 0.34003 0.87268 0.23588 0.0
C651 C 0.34358 0.8541 0.24784 0.0
N652 N 0.33974 0.81081 0.27119 0.0
C653 C 0.32959 0.82897 0.27898 0.0
C654 C 0.31277 0.82449 0.29472 0.0
C655 C 0.31248 0.80217 0.29678 0.0
C656 C 0.32914 0.79419 0.28214 0.0
N657 N 0.38825 0.82336 0.26681 0.0
C658 C 0.41938 0.84708 0.29533 0.0
C659 C 0.40374 0.8309 0.30308 0.0
C660 C 0.38879 0.81909 0.28868 0.0
C661 C 0.41944 0.85056 0.27277 0.0
C662 C 0.40371 0.83887 0.25896 0.0
N663 N 0.33824 0.79664 0.22867 0.0
C664 C 0.29705 0.79765 0.21615 0.0
C665 C 0.29981 0.77826 0.20452 0.0
C666 C 0.32262 0.76833 0.20524 0.0
C667 C 0.34155 0.7778 0.21727 0.0
C668 C 0.3162 0.80643 0.22795 0.0
H669 H 0.35879 0.76981 0.21752 0.0
H670 H 0.31284 0.82111 0.23687 0.0
H671 H 0.37718 0.8068 0.29543 0.0
H672 H 0.4037 0.84286 0.24191 0.0
C673 C 0.40867 0.77769 0.23839 0.0
C674 C 0.33543 0.77099 0.27932 0.0
C675 C 0.37248 0.83705 0.19873 0.0
C676 C 0.3326 0.84883 0.26783 0.0
H677 H 0.36637 0.73339 0.28336 0.0
H678 H 0.4079 0.73789 0.26259 0.0
H679 H 0.43535 0.78762 0.19978 0.0
H680 H 0.41397 0.8188 0.17712 0.0
H681 H 0.35041 0.8797 0.20219 0.0
H682 H 0.33037 0.88711 0.24076 0.0
H683 H 0.30112 0.83592 0.30287 0.0
H684 H 0.30115 0.79287 0.30758 0.0
H685 H 0.40303 0.82736 0.32028 0.0
H686 H 0.43105 0.86282 0.26584 0.0
H687 H 0.27994 0.80591 0.21661 0.0
H688 H 0.32595 0.75345 0.19642 0.0
C689 C 0.48089 0.13834 0.47777 0.0
C690 C 0.50414 0.14622 0.47929 0.0
C691 C 0.50511 0.16455 0.46666 0.0
C692 C 0.48245 0.16689 0.45824 0.0
N693 N 0.46738 0.1512 0.46486 0.0
Co694 Co 0.43316 0.14872 0.45688 0.0
N695 N 0.43789 0.1665 0.43046 0.0
C696 C 0.45619 0.18033 0.42706 0.0
C697 C 0.45462 0.19091 0.40752 0.0
C698 C 0.43395 0.18337 0.39812 0.0
C699 C 0.42401 0.16853 0.41251 0.0
N700 N 0.39885 0.14669 0.44874 0.0
C701 C 0.38794 0.15062 0.42936 0.0
C702 C 0.36341 0.14746 0.43112 0.0
C703 C 0.359 0.14153 0.45233 0.0
C704 C 0.381 0.14139 0.46242 0.0
N705 N 0.42906 0.13076 0.48325 0.0
C706 C 0.40809 0.12668 0.49317 0.0
C707 C 0.41077 0.11249 0.51025 0.0
C708 C 0.43488 0.1075 0.51099 0.0
C709 C 0.44573 0.11899 0.49433 0.0
N710 N 0.42562 0.17519 0.47413 0.0
C711 C 0.40709 0.2079 0.50212 0.0
C712 C 0.42439 0.19289 0.50928 0.0
C713 C 0.4335 0.17695 0.49512 0.0
C714 C 0.40049 0.20682 0.4801 0.0
C715 C 0.40987 0.19047 0.46649 0.0
N716 N 0.43966 0.12175 0.44066 0.0
C717 C 0.42938 0.08397 0.43617 0.0
C718 C 0.45068 0.07997 0.42505 0.0
C719 C 0.4659 0.09768 0.42071 0.0
C720 C 0.46008 0.11851 0.42877 0.0
C721 C 0.42417 0.10476 0.44359 0.0
H722 H 0.47242 0.13177 0.42611 0.0
H723 H 0.40795 0.10667 0.45275 0.0
H724 H 0.44624 0.16542 0.50151 0.0
H725 H 0.40348 0.18964 0.44998 0.0
C726 C 0.47609 0.18046 0.44095 0.0
C727 C 0.47184 0.11936 0.48962 0.0
C728 C 0.40029 0.15849 0.40959 0.0
C729 C 0.38633 0.13266 0.48308 0.0
H730 H 0.51885 0.13942 0.48849 0.0
H731 H 0.52077 0.17431 0.46317 0.0
H732 H 0.4673 0.20228 0.40063 0.0
H733 H 0.42683 0.18853 0.38263 0.0
H734 H 0.35014 0.14926 0.41845 0.0
H735 H 0.3419 0.13701 0.45927 0.0
H736 H 0.39674 0.10558 0.52022 0.0
H737 H 0.44332 0.09647 0.52229 0.0
H738 H 0.43069 0.19322 0.52589 0.0
H739 H 0.3873 0.21792 0.47357 0.0
H740 H 0.41693 0.07092 0.43958 0.0
H741 H 0.48255 0.09529 0.41201 0.0
C742 C 0.1585 0.25702 0.7695 0.0
C743 C 0.14554 0.27583 0.77345 0.0
C744 C 0.12381 0.27331 0.76327 0.0
C745 C 0.12467 0.25316 0.75374 0.0
N746 N 0.14556 0.24291 0.75738 0.0
Co747 Co 0.15435 0.21382 0.74637 0.0
N748 N 0.13046 0.2156 0.72268 0.0
C749 C 0.11124 0.22878 0.72239 0.0
C750 C 0.0976 0.22633 0.704 0.0
C751 C 0.10892 0.21055 0.69208 0.0
C752 C 0.12895 0.20424 0.70388 0.0
N753 N 0.16276 0.18466 0.73524 0.0
C754 C 0.15842 0.17557 0.71548 0.0
C755 C 0.16763 0.15469 0.71468 0.0
C756 C 0.17789 0.15072 0.73465 0.0
C757 C 0.17442 0.16932 0.74661 0.0
N758 N 0.17838 0.21267 0.76994 0.0
C759 C 0.1887 0.19453 0.7776 0.0
C760 C 0.20559 0.19902 0.79326 0.0
C761 C 0.20576 0.22133 0.79544 0.0
C762 C 0.18892 0.2293 0.78095 0.0
N763 N 0.12994 0.19996 0.766 0.0
C764 C 0.09995 0.17581 0.79512 0.0
C765 C 0.11526 0.19244 0.80249 0.0
C766 C 0.12964 0.20443 0.78782 0.0
C767 C 0.09953 0.17223 0.77255 0.0
C768 C 0.11469 0.18416 0.75845 0.0
N769 N 0.17929 0.22674 0.7274 0.0
C770 C 0.22029 0.22567 0.71452 0.0
C771 C 0.21742 0.24509 0.70301 0.0
C772 C 0.19467 0.25509 0.70395 0.0
C773 C 0.17586 0.24561 0.71609 0.0
C774 C 0.2013 0.21691 0.72647 0.0
H775 H 0.15864 0.25361 0.71653 0.0
H776 H 0.20475 0.20222 0.73533 0.0
H777 H 0.14107 0.21699 0.79432 0.0
H778 H 0.11451 0.18008 0.74142 0.0
C779 C 0.10897 0.24551 0.7377 0.0
C780 C 0.18241 0.25251 0.77839 0.0
C781 C 0.14475 0.18612 0.69775 0.0
C782 C 0.18562 0.17467 0.76648 0.0
H783 H 0.15125 0.2899 0.78259 0.0
H784 H 0.10966 0.28526 0.76197 0.0
H785 H 0.0818 0.23543 0.69943 0.0
H786 H 0.10294 0.20424 0.67661 0.0
H787 H 0.16709 0.14358 0.7011 0.0
H788 H 0.18767 0.13634 0.73947 0.0
H789 H 0.21735 0.18761 0.80131 0.0
H790 H 0.2171 0.23061 0.80623 0.0
H791 H 0.11616 0.19623 0.81963 0.0
H792 H 0.08819 0.15965 0.76583 0.0
H793 H 0.23741 0.21739 0.71479 0.0
H794 H 0.19132 0.27002 0.69522 0.0
C795 C 0.0369 0.88405 0.97683 0.0
C796 C 0.01369 0.87613 0.97877 0.0
C797 C 0.01262 0.85755 0.96653 0.0
C798 C 0.03517 0.8551 0.95792 0.0
N799 N 0.05028 0.87097 0.96403 0.0
Co800 Co 0.08446 0.87318 0.95575 0.0
N801 N 0.07946 0.8548 0.92979 0.0
C802 C 0.0611 0.84095 0.92681 0.0
C803 C 0.06246 0.82999 0.90746 0.0
C804 C 0.08304 0.83731 0.89774 0.0
C805 C 0.09315 0.85241 0.91176 0.0
N806 N 0.11875 0.87469 0.94741 0.0
C807 C 0.12948 0.87035 0.92803 0.0
C808 C 0.15404 0.87342 0.92958 0.0
C809 C 0.15865 0.87975 0.95065 0.0
C810 C 0.13672 0.8802 0.96088 0.0
N811 N 0.08879 0.8919 0.98155 0.0
C812 C 0.10986 0.89628 0.99114 0.0
C813 C 0.10735 0.91093 1.00785 0.0
C814 C 0.08324 0.91591 1.00869 0.0
C815 C 0.07221 0.90395 0.99246 0.0
N816 N 0.09198 0.84711 0.97364 0.0
C817 C 0.11064 0.81494 1.00223 0.0
C818 C 0.09358 0.83025 1.00921 0.0
C819 C 0.08442 0.84594 0.99477 0.0
C820 C 0.11695 0.81547 0.98011 0.0
C821 C 0.10749 0.83153 0.96621 0.0
N822 N 0.07806 0.89982 0.93885 0.0
C823 C 0.09021 0.93674 0.93161 0.0
C824 C 0.06808 0.94155 0.92224 0.0
C825 C 0.05121 0.92461 0.92051 0.0
C826 C 0.05671 0.90373 0.9286 0.0
C827 C 0.09469 0.91615 0.9399 0.0
H828 H 0.0434 0.89106 0.92738 0.0
H829 H 0.11136 0.91405 0.9483 0.0
H830 H 0.07188 0.85773 1.00101 0.0
H831 H 0.11365 0.83189 0.94961 0.0
C832 C 0.04135 0.84116 0.94087 0.0
C833 C 0.04599 0.90335 0.98813 0.0
C834 C 0.11685 0.86237 0.90845 0.0
C835 C 0.13153 0.88976 0.9812 0.0
H836 H 0.99907 0.88308 0.98799 0.0
H837 H 0.99695 0.84767 0.96343 0.0
H838 H 0.04968 0.81852 0.90089 0.0
H839 H 0.09001 0.83186 0.88229 0.0
H840 H 0.16719 0.87138 0.91684 0.0
H841 H 0.17581 0.88445 0.95735 0.0
H842 H 0.12148 0.91807 0.01754 0.0
H843 H 0.0749 0.9272 0.0198 0.0
H844 H 0.08746 0.83037 0.02588 0.0
H845 H 0.12996 0.80414 0.97368 0.0
H846 H 0.10367 0.94923 0.93381 0.0
H847 H 0.0338 0.92754 0.91331 0.0
C848 C 0.22506 0.3917 0.14096 0.0
C849 C 0.21254 0.38586 0.12235 0.0
C850 C 0.21379 0.36386 0.12076 0.0
C851 C 0.22735 0.35742 0.1381 0.0
N852 N 0.2351 0.37391 0.15067 0.0
Co853 Co 0.2569 0.37085 0.17649 0.0
N854 N 0.26324 0.33927 0.17044 0.0
C855 C 0.2517 0.32706 0.1556 0.0
C856 C 0.25925 0.30594 0.15486 0.0
C857 C 0.2765 0.30442 0.17045 0.0
C858 C 0.27863 0.32486 0.17983 0.0
N859 N 0.27808 0.36767 0.20251 0.0
C860 C 0.2909 0.35035 0.21006 0.0
C861 C 0.30159 0.35516 0.22981 0.0
C862 C 0.29479 0.37584 0.23511 0.0
C863 C 0.2805 0.38262 0.21831 0.0
N864 N 0.25088 0.40274 0.18165 0.0
C865 C 0.25679 0.41347 0.19997 0.0
C866 C 0.24979 0.43481 0.19988 0.0
C867 C 0.23843 0.43784 0.18041 0.0
C868 C 0.23914 0.41814 0.16953 0.0
N869 N 0.22966 0.36316 0.19606 0.0
C870 C 0.21432 0.36033 0.2395 0.0
C871 C 0.20816 0.37833 0.22665 0.0
C872 C 0.21535 0.37909 0.20472 0.0
C873 C 0.22403 0.34233 0.22889 0.0
C874 C 0.23083 0.34385 0.20715 0.0
N875 N 0.28539 0.37825 0.15884 0.0
C876 C 0.32493 0.39402 0.16025 0.0
C877 C 0.33325 0.37974 0.14434 0.0
C878 C 0.31638 0.36639 0.13395 0.0
C879 C 0.29244 0.36602 0.14136 0.0
C880 C 0.30117 0.39311 0.16711 0.0
H881 H 0.28017 0.35484 0.13382 0.0
H882 H 0.29639 0.4034 0.1804 0.0
H883 H 0.21113 0.39347 0.19557 0.0
H884 H 0.23905 0.32969 0.20045 0.0
C885 C 0.23522 0.33633 0.14155 0.0
C886 C 0.22607 0.41429 0.14894 0.0
C887 C 0.29254 0.3288 0.19968 0.0
C888 C 0.26993 0.40313 0.21634 0.0
H889 H 0.20352 0.39635 0.11091 0.0
H890 H 0.20637 0.35379 0.10802 0.0
H891 H 0.25293 0.29315 0.14427 0.0
H892 H 0.28569 0.28963 0.17491 0.0
H893 H 0.31282 0.34467 0.23956 0.0
H894 H 0.29971 0.38486 0.24951 0.0
H895 H 0.25251 0.44675 0.21253 0.0
H896 H 0.22991 0.4527 0.17516 0.0
H897 H 0.19928 0.39225 0.23372 0.0
H898 H 0.22741 0.32736 0.23758 0.0
H899 H 0.33708 0.40518 0.16823 0.0
H900 H 0.32191 0.35541 0.12118 0.0
C901 C 0.72547 0.13258 0.88333 0.0
C902 C 0.71326 0.13874 0.902 0.0
C903 C 0.71483 0.16074 0.90337 0.0
C904 C 0.72827 0.16687 0.88584 0.0
N905 N 0.73564 0.15017 0.87336 0.0
Co906 Co 0.75724 0.15278 0.84733 0.0
N907 N 0.76408 0.18435 0.85304 0.0
C908 C 0.75287 0.1968 0.86788 0.0
C909 C 0.76068 0.21785 0.86835 0.0
C910 C 0.77777 0.21906 0.85258 0.0
C911 C 0.77954 0.19852 0.84338 0.0
N912 N 0.77822 0.1555 0.82112 0.0
C913 C 0.79118 0.17263 0.81329 0.0
C914 C 0.80159 0.16752 0.7935 0.0
C915 C 0.79449 0.14685 0.78846 0.0
C916 C 0.7803 0.14038 0.80545 0.0
N917 N 0.75074 0.1209 0.84253 0.0
C918 C 0.75637 0.10994 0.82428 0.0
C919 C 0.74907 0.08868 0.82461 0.0
C920 C 0.73783 0.08595 0.84418 0.0
C921 C 0.7389 0.10574 0.85489 0.0
N922 N 0.72992 0.1606 0.82787 0.0
C923 C 0.71459 0.16344 0.78442 0.0
C924 C 0.70834 0.14549 0.79729 0.0
C925 C 0.71553 0.14473 0.81923 0.0
C926 C 0.72437 0.18141 0.79501 0.0
C927 C 0.73116 0.17989 0.81677 0.0
N928 N 0.78581 0.14523 0.86483 0.0
C929 C 0.82513 0.12904 0.86324 0.0
C930 C 0.8338 0.14338 0.87895 0.0
C931 C 0.81722 0.15699 0.88935 0.0
C932 C 0.7932 0.15754 0.88214 0.0
C933 C 0.80132 0.13013 0.85657 0.0
H934 H 0.78115 0.16892 0.88968 0.0
H935 H 0.79627 0.11977 0.84342 0.0
H936 H 0.7112 0.13037 0.8284 0.0
H937 H 0.73938 0.19406 0.82347 0.0
C938 C 0.73641 0.18782 0.88214 0.0
C939 C 0.7261 0.10989 0.87557 0.0
C940 C 0.79323 0.19426 0.82346 0.0
C941 C 0.76948 0.11999 0.80772 0.0
H942 H 0.70427 0.12846 0.91366 0.0
H943 H 0.70772 0.171 0.9161 0.0
H944 H 0.75462 0.2308 0.87887 0.0
H945 H 0.78708 0.23372 0.8479 0.0
H946 H 0.81285 0.17779 0.78355 0.0
H947 H 0.79915 0.13765 0.77411 0.0
H948 H 0.75152 0.0766 0.81205 0.0
H949 H 0.72915 0.07123 0.84962 0.0
H950 H 0.69938 0.13158 0.79025 0.0
H951 H 0.72782 0.19636 0.7863 0.0
H952 H 0.83706 0.11769 0.85525 0.0
H953 H 0.82301 0.16803 0.90198 0.0
C954 C 0.11521 0.49789 0.01787 0.0
C955 C 0.1327 0.48844 1.00483 0.0
C956 C 0.15347 0.49995 1.00802 0.0
C957 C 0.14794 0.51494 0.02368 0.0
N958 N 0.12513 0.51344 0.03054 0.0
Co959 Co 0.114 0.52523 0.05856 0.0
N960 N 0.13748 0.5492 0.0572 0.0
C961 C 0.15794 0.54886 0.04566 0.0
C962 C 0.17127 0.56742 0.04822 0.0
C963 C 0.15845 0.58006 0.06244 0.0
C964 C 0.13795 0.56843 0.06786 0.0
N965 N 0.10376 0.53701 0.0869 0.0
C966 C 0.10728 0.55706 0.09564 0.0
C967 C 0.09723 0.5581 0.11619 0.0
C968 C 0.08737 0.53797 0.12032 0.0
C969 C 0.09188 0.52568 0.10212 0.0
N970 N 0.0904 0.50131 0.05922 0.0
C971 C 0.08027 0.49343 0.07733 0.0
C972 C 0.06588 0.47583 0.07307 0.0
C973 C 0.06712 0.47268 0.05091 0.0
C974 C 0.08168 0.48898 0.04258 0.0
N975 N 0.13797 0.50634 0.07406 0.0
C976 C 0.168 0.47819 0.09925 0.0
C977 C 0.15332 0.47027 0.08246 0.0
C978 C 0.13891 0.48444 0.07001 0.0
C979 C 0.16771 0.50081 0.1026 0.0
C980 C 0.1525 0.51444 0.09014 0.0
N981 N 0.0893 0.5434 0.0441 0.0
C982 C 0.04815 0.55602 0.04419 0.0
C983 C 0.05159 0.56802 0.02517 0.0
C984 C 0.07463 0.56716 0.01564 0.0
C985 C 0.09325 0.55485 0.0254 0.0
C986 C 0.0669 0.54399 0.05321 0.0
H987 H 0.11076 0.55454 0.01789 0.0
H988 H 0.06296 0.53492 0.06768 0.0
H989 H 0.12808 0.47742 0.05733 0.0
H990 H 0.15215 0.53154 0.09392 0.0
C991 C 0.16273 0.53176 0.03123 0.0
C992 C 0.08999 0.49071 0.01959 0.0
C993 C 0.12121 0.57474 0.08522 0.0
C994 C 0.08202 0.50513 0.09703 0.0
H995 H 0.13093 0.47435 0.9945 0.0
H996 H 0.17054 0.49751 1.00005 0.0
H997 H 0.18816 0.57139 0.04055 0.0
H998 H 0.164 0.59568 0.06869 0.0
H999 H 0.0971 0.5719 0.12705 0.0
H1000 H 0.07733 0.53319 0.13457 0.0
H1001 H 0.05541 0.46655 0.08458 0.0
H1002 H 0.05893 0.45941 0.04217 0.0
H1003 H 0.15297 0.45307 0.07887 0.0
H1004 H 0.17857 0.50791 0.11531 0.0
H1005 H 0.0308 0.55555 0.05205 0.0
H1006 H 0.07839 0.57616 1.00094 0.0
C1007 C 0.79203 0.89139 0.37923 0.0
C1008 C 0.808 0.88539 0.39547 0.0
C1009 C 0.80746 0.86331 0.39671 0.0
C1010 C 0.79111 0.85695 0.38142 0.0
N1011 N 0.78116 0.87355 0.37038 0.0
Co1012 Co 0.75487 0.8705 0.34833 0.0
N1013 N 0.75952 0.83829 0.34588 0.0
C1014 C 0.77314 0.82604 0.35912 0.0
C1015 C 0.77431 0.80467 0.3531 0.0
C1016 C 0.76017 0.8031 0.33509 0.0
C1017 C 0.75083 0.82366 0.33129 0.0
N1018 N 0.72843 0.86735 0.32664 0.0
C1019 C 0.72101 0.84986 0.31474 0.0
C1020 C 0.70057 0.85491 0.30296 0.0
C1021 C 0.6949 0.87604 0.30774 0.0
C1022 C 0.71206 0.88277 0.32221 0.0
N1023 N 0.75093 0.90284 0.35103 0.0
C1024 C 0.73194 0.91405 0.3435 0.0
C1025 C 0.73365 0.93595 0.34725 0.0
C1026 C 0.75485 0.9388 0.35816 0.0
C1027 C 0.76495 0.91839 0.36076 0.0
N1028 N 0.77738 0.87469 0.32394 0.0
C1029 C 0.79558 0.86967 0.28149 0.0
C1030 C 0.7792 0.88614 0.28649 0.0
C1031 C 0.77068 0.88854 0.30766 0.0
C1032 C 0.80486 0.85754 0.29899 0.0
C1033 C 0.7957 0.86045 0.32009 0.0
N1034 N 0.73051 0.86611 0.37138 0.0
C1035 C 0.70228 0.88346 0.39557 0.0
C1036 C 0.68438 0.86817 0.39023 0.0
C1037 C 0.69144 0.85038 0.37766 0.0
C1038 C 0.71443 0.84948 0.36883 0.0
C1039 C 0.72528 0.88198 0.38619 0.0
H1040 H 0.71787 0.83623 0.35806 0.0
H1041 H 0.73811 0.8946 0.38969 0.0
H1042 H 0.75683 0.90033 0.3101 0.0
H1043 H 0.8022 0.85007 0.33289 0.0
C1044 C 0.78655 0.83556 0.37556 0.0
C1045 C 0.78682 0.91429 0.37397 0.0
C1046 C 0.73125 0.82772 0.3158 0.0
C1047 C 0.71444 0.90373 0.33082 0.0
H1048 H 0.81869 0.89584 0.40573 0.0
H1049 H 0.81801 0.85307 0.40732 0.0
H1050 H 0.78453 0.79181 0.36069 0.0
H1051 H 0.75658 0.78833 0.32616 0.0
H1052 H 0.69044 0.84429 0.2924 0.0
H1053 H 0.68004 0.88536 0.30139 0.0
H1054 H 0.72124 0.94847 0.3422 0.0
H1055 H 0.76188 0.95418 0.3637 0.0
H1056 H 0.77141 0.89619 0.27393 0.0
H1057 H 0.81838 0.84523 0.29634 0.0
H1058 H 0.69835 0.89703 0.40614 0.0
H1059 H 0.67885 0.83788 0.37298 0.0
C1060 C 0.90605 0.0211 0.01406 0.0
C1061 C 0.89263 0.02432 0.99535 0.0
C1062 C 0.87151 0.01328 0.99816 0.0
C1063 C 0.8732 1.00385 0.01828 0.0
N1064 N 0.89409 1.00826 0.02827 0.0
Co1065 Co 0.90385 0.99741 0.05724 0.0
N1066 N 0.88049 0.97319 0.05594 0.0
C1067 C 0.86109 0.97238 0.04299 0.0
C1068 C 0.84792 0.95375 0.04572 0.0
C1069 C 0.85973 0.94219 0.06145 0.0
C1070 C 0.87955 0.95445 0.06745 0.0
N1071 N 0.91315 0.98646 0.08628 0.0
C1072 C 0.90931 0.9667 0.09558 0.0
C1073 C 0.9189 0.96617 0.11632 0.0
C1074 C 0.9289 0.9863 0.12002 0.0
C1075 C 0.92489 0.99807 0.10139 0.0
N1076 N 0.92735 0.02147 0.05797 0.0
C1077 C 0.93788 0.0293 0.07594 0.0
C1078 C 0.95398 0.04558 0.07128 0.0
C1079 C 0.95337 0.04803 0.04903 0.0
C1080 C 0.93696 0.03304 0.04126 0.0
N1081 N 0.87929 0.01658 0.0715 0.0
C1082 C 0.84932 0.04527 0.09616 0.0
C1083 C 0.86406 0.05285 0.07922 0.0
C1084 C 0.87842 0.03839 0.06698 0.0
C1085 C 0.84942 0.0227 0.0998 0.0
C1086 C 0.86457 1.00882 0.0876 0.0
N1087 N 0.92902 0.97889 0.0439 0.0
C1088 C 0.97031 0.96663 0.04445 0.0
C1089 C 0.96733 0.95485 0.0252 0.0
C1090 C 0.94438 0.95539 0.01553 0.0
C1091 C 0.9255 0.96737 0.02516 0.0
C1092 C 0.95124 0.9784 0.05337 0.0
H1093 H 0.90813 0.96746 0.01741 0.0
H1094 H 0.95479 0.98744 0.06794 0.0
H1095 H 0.88939 0.04505 0.05418 0.0
H1096 H 0.86483 0.9918 0.09172 0.0
C1097 C 0.85818 0.98746 0.02621 0.0
C1098 C 0.92954 0.03111 0.01825 0.0
C1099 C 0.8957 0.94873 0.08544 0.0
C1100 C 0.9355 0.01814 0.09584 0.0
H1101 H 0.89757 0.03348 0.98107 0.0
H1102 H 0.85724 0.01138 0.98642 0.0
H1103 H 0.83211 0.9488 0.03684 0.0
H1104 H 0.85419 0.92666 0.06793 0.0
H1105 H 0.91875 0.95266 0.12754 0.0
H1106 H 0.93881 0.99136 0.13424 0.0
H1107 H 0.96558 0.05401 0.08254 0.0
H1108 H 0.96376 0.05949 0.0396 0.0
H1109 H 0.86453 0.06999 0.07538 0.0
H1110 H 0.83851 0.01584 0.11261 0.0
H1111 H 0.98755 0.96724 0.0525 0.0
H1112 H 0.94092 0.94645 1.00074 0.0
C1113 C 0.29336 0.63092 0.6391 0.0
C1114 C 0.30517 0.63698 0.62019 0.0
C1115 C 0.30309 0.65892 0.61847 0.0
C1116 C 0.28978 0.6651 0.63607 0.0
N1117 N 0.28295 0.64849 0.64892 0.0
Co1118 Co 0.26173 0.65115 0.6752 0.0
N1119 N 0.25427 0.68254 0.66914 0.0
C1120 C 0.26503 0.69494 0.65399 0.0
C1121 C 0.2569 0.71588 0.65335 0.0
C1122 C 0.24008 0.71709 0.66934 0.0
C1123 C 0.23877 0.69665 0.67883 0.0
N1124 N 0.24109 0.65394 0.70162 0.0
C1125 C 0.22799 0.671 0.70939 0.0
C1126 C 0.21795 0.66602 0.72937 0.0
C1127 C 0.22544 0.6455 0.73458 0.0
C1128 C 0.23948 0.63898 0.7175 0.0
N1129 N 0.26893 0.61944 0.68037 0.0
C1130 C 0.26378 0.60866 0.69885 0.0
C1131 C 0.27149 0.58753 0.69874 0.0
C1132 C 0.28252 0.5847 0.67908 0.0
C1133 C 0.28091 0.6043 0.6681 0.0
N1134 N 0.2892 0.65965 0.69419 0.0
C1135 C 0.30433 0.66295 0.73765 0.0
C1136 C 0.31094 0.64503 0.72489 0.0
C1137 C 0.3039 0.64407 0.70293 0.0
C1138 C 0.29436 0.68076 0.7269 0.0
C1139 C 0.28771 0.67903 0.70512 0.0
N1140 N 0.23299 0.6429 0.65821 0.0
C1141 C 0.19425 0.62564 0.66049 0.0
C1142 C 0.18466 0.63989 0.64515 0.0
C1143 C 0.20055 0.65402 0.6345 0.0
C1144 C 0.22475 0.65511 0.64115 0.0
C1145 C 0.21817 0.62736 0.66669 0.0
H1146 H 0.23623 0.66681 0.63338 0.0
H1147 H 0.22383 0.61705 0.67967 0.0
H1148 H 0.30851 0.62974 0.69384 0.0
H1149 H 0.27936 0.69305 0.69825 0.0
C1150 C 0.28135 0.68598 0.63959 0.0
C1151 C 0.29335 0.60837 0.64722 0.0
C1152 C 0.22544 0.69246 0.69896 0.0
C1153 C 0.25065 0.61874 0.7154 0.0
H1154 H 0.31425 0.62668 0.60861 0.0
H1155 H 0.30983 0.6691 0.60552 0.0
H1156 H 0.26257 0.72876 0.64257 0.0
H1157 H 0.23063 0.73169 0.67395 0.0
H1158 H 0.2067 0.67628 0.73933 0.0
H1159 H 0.22116 0.63644 0.74911 0.0
H1160 H 0.26945 0.57559 0.71149 0.0
H1161 H 0.29141 0.57004 0.67374 0.0
H1162 H 0.32007 0.63127 0.73203 0.0
H1163 H 0.29068 0.69573 0.73549 0.0
H1164 H 0.18298 0.61382 0.66859 0.0
H1165 H 0.1941 0.66501 0.6221 0.0
C1166 C 0.11661 0.52655 0.50524 0.0
C1167 C 0.13415 0.53561 0.51848 0.0
C1168 C 0.15479 0.52393 0.51521 0.0
C1169 C 0.14916 0.50922 0.49932 0.0
N1170 N 0.1264 0.51107 0.49239 0.0
Co1171 Co 0.11519 0.49959 0.46426 0.0
N1172 N 0.13833 0.47536 0.46546 0.0
C1173 C 0.15877 0.47537 0.47703 0.0
C1174 C 0.17181 0.45667 0.47437 0.0
C1175 C 0.15882 0.44427 0.46005 0.0
C1176 C 0.13851 0.45618 0.45469 0.0
N1177 N 0.10483 0.48812 0.43583 0.0
C1178 C 0.10802 0.46807 0.42698 0.0
C1179 C 0.09793 0.46727 0.40644 0.0
C1180 C 0.08838 0.48754 0.40242 0.0
C1181 C 0.0931 0.49967 0.42069 0.0
N1182 N 0.0919 0.52376 0.46376 0.0
C1183 C 0.08192 0.53188 0.44569 0.0
C1184 C 0.06777 0.54962 0.45005 0.0
C1185 C 0.06902 0.5526 0.47223 0.0
C1186 C 0.08332 0.53607 0.48047 0.0
N1187 N 0.13949 0.51839 0.44893 0.0
C1188 C 0.17057 0.54623 0.42434 0.0
C1189 C 0.15561 0.55432 0.44081 0.0
C1190 C 0.1407 0.54029 0.45301 0.0
C1191 C 0.16992 0.52364 0.42088 0.0
C1192 C 0.15418 0.51018 0.43301 0.0
N1193 N 0.09025 0.48154 0.47859 0.0
C1194 C 0.04898 0.46917 0.47849 0.0
C1195 C 0.05239 0.45687 0.49734 0.0
C1196 C 0.07549 0.45747 0.50678 0.0
C1197 C 0.09416 0.4698 0.49712 0.0
C1198 C 0.0678 0.48122 0.46955 0.0
H1199 H 0.11171 0.46988 0.50458 0.0
H1200 H 0.06392 0.49049 0.4552 0.0
H1201 H 0.12975 0.54741 0.46556 0.0
H1202 H 0.15362 0.4931 0.42914 0.0
C1203 C 0.16373 0.4923 0.49164 0.0
C1204 C 0.09149 0.53406 0.50349 0.0
C1205 C 0.12163 0.45014 0.43731 0.0
C1206 C 0.08352 0.52029 0.42592 0.0
H1207 H 0.13252 0.54958 0.529 0.0
H1208 H 0.17184 0.52607 0.52329 0.0
H1209 H 0.18861 0.45242 0.48206 0.0
H1210 H 0.16412 0.42861 0.45373 0.0
H1211 H 0.09755 0.45353 0.39551 0.0
H1212 H 0.07839 0.49252 0.38822 0.0
H1213 H 0.05746 0.55909 0.43859 0.0
H1214 H 0.06099 0.5659 0.48105 0.0
H1215 H 0.15546 0.57154 0.44436 0.0
H1216 H 0.181 0.51645 0.40838 0.0
H1217 H 0.0316 0.46985 0.47068 0.0
H1218 H 0.07926 0.44824 0.52133 0.0
C1219 C 0.40418 0.50015 1.00784 0.0
C1220 C 0.39073 0.49696 0.02654 0.0
C1221 C 0.36965 0.50806 0.02371 0.0
C1222 C 0.37139 0.51749 1.00359 0.0
N1223 N 0.39227 0.51301 0.99362 0.0
Co1224 Co 0.40214 0.52387 0.9647 0.0
N1225 N 0.379 0.54823 0.96606 0.0
C1226 C 0.35957 0.54912 0.97896 0.0
C1227 C 0.34661 0.56787 0.97629 0.0
C1228 C 0.35859 0.57943 0.96067 0.0
C1229 C 0.37831 0.56705 0.95466 0.0
N1230 N 0.41158 0.53483 0.93571 0.0
C1231 C 0.40801 0.55468 0.92653 0.0
C1232 C 0.41766 0.55523 0.90581 0.0
C1233 C 0.42741 0.53502 0.90202 0.0
C1234 C 0.42322 0.52318 0.92057 0.0
N1235 N 0.42541 0.49965 0.96393 0.0
C1236 C 0.43588 0.49177 0.94595 0.0
C1237 C 0.45191 0.47544 0.95062 0.0
C1238 C 0.45133 0.47302 0.97288 0.0
C1239 C 0.43501 0.48809 0.98065 0.0
N1240 N 0.3774 0.50493 0.95034 0.0
C1241 C 0.34689 0.47682 0.92561 0.0
C1242 C 0.36156 0.46889 0.94241 0.0
C1243 C 0.37623 0.48309 0.9547 0.0
C1244 C 0.34738 0.49936 0.92204 0.0
C1245 C 0.36277 0.51297 0.93429 0.0
N1246 N 0.42744 0.5422 0.97809 0.0
C1247 C 0.46873 0.55446 0.97742 0.0
C1248 C 0.46571 0.56653 0.99648 0.0
C1249 C 0.44277 0.56605 1.00618 0.0
C1250 C 0.4239 0.55393 0.99669 0.0
C1251 C 0.44968 0.54256 0.96864 0.0
H1252 H 0.40652 0.55394 1.00442 0.0
H1253 H 0.45323 0.53337 0.95417 0.0
H1254 H 0.38717 0.47621 0.9674 0.0
H1255 H 0.36328 0.53001 0.93027 0.0
C1256 C 0.35649 0.53399 0.99569 0.0
C1257 C 0.42768 0.49014 1.00368 0.0
C1258 C 0.39463 0.57272 0.93678 0.0
C1259 C 0.43362 0.503 0.92607 0.0
H1260 H 0.39564 0.4878 0.04083 0.0
H1261 H 0.35539 0.51001 0.03545 0.0
H1262 H 0.33082 0.57292 0.98517 0.0
H1263 H 0.35326 0.59504 0.95426 0.0
H1264 H 0.41772 0.5688 0.89467 0.0
H1265 H 0.43731 0.52994 0.8878 0.0
H1266 H 0.46349 0.46697 0.93936 0.0
H1267 H 0.46171 0.46157 0.98231 0.0
H1268 H 0.36178 0.45169 0.94602 0.0
H1269 H 0.33649 0.5064 0.90931 0.0
H1270 H 0.48597 0.55379 0.96938 0.0
H1271 H 0.43928 0.57519 0.02084 0.0
C1272 C 0.72901 0.79438 0.88953 0.0
C1273 C 0.75219 0.79254 0.89752 0.0
C1274 C 0.75318 0.80495 0.916 0.0
C1275 C 0.73061 0.81355 0.91831 0.0
N1276 N 0.71557 0.80727 0.90247 0.0
Co1277 Co 0.68147 0.8156 0.89988 0.0
N1278 N 0.68642 0.8418 0.91794 0.0
C1279 C 0.70463 0.84485 0.93194 0.0
C1280 C 0.70325 0.86433 0.94267 0.0
C1281 C 0.68282 0.87406 0.93504 0.0
C1282 C 0.6728 0.85991 0.92 0.0
N1283 N 0.6473 0.82414 0.89777 0.0
C1284 C 0.63665 0.84365 0.90172 0.0
C1285 C 0.61213 0.8422 0.89841 0.0
C1286 C 0.60745 0.82106 0.89233 0.0
C1287 C 0.6293 0.8107 0.89228 0.0
N1288 N 0.67717 0.78946 0.88164 0.0
C1289 C 0.65611 0.7798 0.87737 0.0
C1290 C 0.65867 0.76283 0.86303 0.0
C1291 C 0.68281 0.76191 0.85813 0.0
C1292 C 0.69379 0.77836 0.86983 0.0
N1293 N 0.67356 0.79813 0.92614 0.0
C1294 C 0.6545 0.76982 0.95838 0.0
C1295 C 0.67192 0.76277 0.94344 0.0
C1296 C 0.68128 0.77707 0.92773 0.0
C1297 C 0.64803 0.79189 0.95747 0.0
C1298 C 0.65768 0.80566 0.94137 0.0
N1299 N 0.68833 0.832 0.87307 0.0
C1300 C 0.67827 0.83673 0.83528 0.0
C1301 C 0.69982 0.84745 0.83133 0.0
C1302 C 0.71508 0.85149 0.84908 0.0
C1303 C 0.70902 0.84353 0.8699 0.0
C1304 C 0.67282 0.82939 0.85604 0.0
H1305 H 0.72139 0.84593 0.88318 0.0
H1306 H 0.65641 0.8205 0.85786 0.0
H1307 H 0.69409 0.77074 0.91623 0.0
H1308 H 0.65141 0.82222 0.94068 0.0
C1309 C 0.72436 0.83076 0.93204 0.0
C1310 C 0.71995 0.78284 0.87036 0.0
C1311 C 0.64928 0.86324 0.90973 0.0
C1312 C 0.63442 0.79006 0.88336 0.0
H1313 H 0.76685 0.78328 0.89068 0.0
H1314 H 0.76882 0.80817 0.92589 0.0
H1315 H 0.71594 0.87098 0.95417 0.0
H1316 H 0.67589 0.88961 0.94024 0.0
H1317 H 0.59904 0.85503 0.90018 0.0
H1318 H 0.59029 0.81436 0.88764 0.0
H1319 H 0.64457 0.75307 0.85595 0.0
H1320 H 0.6912 0.75064 0.84704 0.0
H1321 H 0.67815 0.74614 0.94363 0.0
H1322 H 0.63475 0.79837 0.96852 0.0
H1323 H 0.66578 0.83355 0.82218 0.0
H1324 H 0.73193 0.85989 0.84673 0.0
C1325 C 0.54264 0.38883 0.13971 0.0
C1326 C 0.55519 0.37037 0.13349 0.0
C1327 C 0.55361 0.36902 0.11148 0.0
C1328 C 0.53984 0.38635 0.10541 0.0
N1329 N 0.53227 0.39869 0.12214 0.0
Co1330 Co 0.51006 0.42429 0.11962 0.0
N1331 N 0.50301 0.41835 0.08813 0.0
C1332 C 0.51453 0.40376 0.07562 0.0
C1333 C 0.50651 0.40306 0.05464 0.0
C1334 C 0.48899 0.41844 0.05353 0.0
C1335 C 0.48718 0.42766 0.07406 0.0
N1336 N 0.48841 0.45005 0.11701 0.0
C1337 C 0.47515 0.45763 0.09995 0.0
C1338 C 0.46441 0.47727 0.10508 0.0
C1339 C 0.47161 0.4825 0.12567 0.0
C1340 C 0.48619 0.46576 0.13209 0.0
N1341 N 0.51687 0.42936 0.1514 0.0
C1342 C 0.51112 0.4476 0.1623 0.0
C1343 C 0.51859 0.44745 0.18351 0.0
C1344 C 0.53007 0.42799 0.18626 0.0
C1345 C 0.52894 0.41716 0.16654 0.0
N1346 N 0.53683 0.44423 0.11147 0.0
C1347 C 0.55207 0.48771 0.10855 0.0
C1348 C 0.55876 0.47474 0.1263 0.0
C1349 C 0.55159 0.45279 0.1271 0.0
C1350 C 0.5418 0.47721 0.09074 0.0
C1351 C 0.535 0.45547 0.0923 0.0
N1352 N 0.48204 0.40624 0.1276 0.0
C1353 C 0.44416 0.40527 0.1465 0.0
C1354 C 0.43563 0.38879 0.13298 0.0
C1355 C 0.45144 0.3802 0.11747 0.0
C1356 C 0.47475 0.38884 0.11537 0.0
C1357 C 0.46706 0.41373 0.14351 0.0
H1358 H 0.48635 0.38202 0.1032 0.0
H1359 H 0.47179 0.42733 0.1534 0.0
H1360 H 0.55625 0.44355 0.14132 0.0
H1361 H 0.52632 0.44889 0.07831 0.0
C1362 C 0.53143 0.38987 0.0845 0.0
C1363 C 0.54185 0.39651 0.16243 0.0
C1364 C 0.47319 0.44742 0.07832 0.0
C1365 C 0.49744 0.46384 0.15233 0.0
H1366 H 0.56438 0.3588 0.14372 0.0
H1367 H 0.5609 0.3564 0.10119 0.0
H1368 H 0.51273 0.39264 0.04166 0.0
H1369 H 0.47943 0.42289 0.03893 0.0
H1370 H 0.45291 0.48702 0.09484 0.0
H1371 H 0.46682 0.49684 0.13483 0.0
H1372 H 0.51603 0.46001 0.19556 0.0
H1373 H 0.53888 0.42268 0.20096 0.0
H1374 H 0.56805 0.48171 0.14005 0.0
H1375 H 0.53796 0.486 0.07591 0.0
H1376 H 0.43267 0.41256 0.15866 0.0
H1377 H 0.44575 0.36716 0.10687 0.0
C1378 C 0.78792 0.22872 0.38849 0.0
C1379 C 0.76479 0.23087 0.39653 0.0
C1380 C 0.76375 0.21877 0.4152 0.0
C1381 C 0.78624 0.21002 0.41759 0.0
N1382 N 0.8013 0.21593 0.4016 0.0
Co1383 Co 0.83537 0.20737 0.39921 0.0
N1384 N 0.83026 0.18151 0.41772 0.0
C1385 C 0.81195 0.17873 0.43167 0.0
C1386 C 0.81318 0.15939 0.44267 0.0
C1387 C 0.83361 0.14947 0.43527 0.0
C1388 C 0.84378 0.16338 0.4201 0.0
N1389 N 0.86956 0.19875 0.39754 0.0
C1390 C 0.88014 0.17931 0.40191 0.0
C1391 C 0.9047 0.18067 0.39874 0.0
C1392 C 0.90945 0.20168 0.39227 0.0
C1393 C 0.88761 0.21207 0.39188 0.0
N1394 N 0.83978 0.23305 0.38036 0.0
C1395 C 0.8609 0.24245 0.37579 0.0
C1396 C 0.85843 0.25906 0.361 0.0
C1397 C 0.83429 0.26 0.35613 0.0
C1398 C 0.8232 0.24394 0.36828 0.0
N1399 N 0.8433 0.22531 0.42519 0.0
C1400 C 0.86244 0.25376 0.45735 0.0
C1401 C 0.84549 0.26091 0.44199 0.0
C1402 C 0.83608 0.24655 0.42633 0.0
C1403 C 0.86841 0.23156 0.45682 0.0
C1404 C 0.85874 0.21774 0.44077 0.0
N1405 N 0.82861 0.19041 0.37265 0.0
C1406 C 0.8405 0.18289 0.3357 0.0
C1407 C 0.81825 0.17369 0.331 0.0
C1408 C 0.80142 0.17223 0.34801 0.0
C1409 C 0.80711 0.18037 0.36884 0.0
C1410 C 0.84517 0.19123 0.35625 0.0
H1411 H 0.79384 0.17933 0.38156 0.0
H1412 H 0.86194 0.19948 0.35824 0.0
H1413 H 0.82362 0.25292 0.41454 0.0
H1414 H 0.86466 0.20107 0.44044 0.0
C1415 C 0.79235 0.19295 0.43154 0.0
C1416 C 0.79695 0.23975 0.36902 0.0
C1417 C 0.86739 0.15985 0.41004 0.0
C1418 C 0.88253 0.23238 0.38223 0.0
H1419 H 0.75019 0.24011 0.38958 0.0
H1420 H 0.74812 0.21581 0.42517 0.0
H1421 H 0.80041 0.15295 0.45422 0.0
H1422 H 0.84045 0.13397 0.44072 0.0
H1423 H 0.91774 0.16785 0.40079 0.0
H1424 H 0.92664 0.20824 0.38747 0.0
H1425 H 0.87259 0.26858 0.3537 0.0
H1426 H 0.82596 0.27106 0.34478 0.0
H1427 H 0.83964 0.27766 0.44185 0.0
H1428 H 0.88133 0.22497 0.46815 0.0
H1429 H 0.85394 0.18488 0.32316 0.0
H1430 H 0.78393 0.16517 0.34517 0.0
C1431 C 0.97445 0.63372 0.64049 0.0
C1432 C 0.96315 0.65281 0.63422 0.0
C1433 C 0.96605 0.65464 0.61236 0.0
C1434 C 0.97926 0.63689 0.60644 0.0
N1435 N 0.98521 0.6238 0.62314 0.0
Co1436 Co 1.0058 0.59703 0.62085 0.0
N1437 N 0.01391 0.60272 0.58953 0.0
C1438 C 1.00501 0.61894 0.57728 0.0
C1439 C 0.0151 0.62035 0.55708 0.0
C1440 C 0.03105 0.60363 0.55614 0.0
C1441 C 0.02941 0.59258 0.57574 0.0
N1442 N 0.02557 0.56995 0.61836 0.0
C1443 C 0.03737 0.56104 0.60104 0.0
C1444 C 0.04487 0.54007 0.60579 0.0
C1445 C 0.03776 0.53572 0.62656 0.0
C1446 C 0.02609 0.55405 0.63338 0.0
N1447 N 0.99828 0.59234 0.65259 0.0
C1448 C 1.00315 0.574 0.66368 0.0
C1449 C 0.99534 0.57445 0.68477 0.0
C1450 C 0.98455 0.59424 0.68728 0.0
C1451 C 0.98637 0.60492 0.66752 0.0
N1452 N 0.97787 0.5787 0.61222 0.0
C1453 C 0.96326 0.53519 0.60851 0.0
C1454 C 0.95679 0.54761 0.62671 0.0
C1455 C 0.96352 0.56962 0.62786 0.0
C1456 C 0.9726 0.54634 0.59065 0.0
C1457 C 0.97889 0.56821 0.59258 0.0
N1458 N 0.03484 0.61353 0.62926 0.0
C1459 C 0.0731 0.61231 0.64756 0.0
C1460 C 0.08185 0.62953 0.63509 0.0
C1461 C 0.06601 0.63951 0.62048 0.0
C1462 C 0.04246 0.63154 0.61814 0.0
C1463 C 0.04986 0.60461 0.64438 0.0
H1464 H 0.0309 0.63952 0.60671 0.0
H1465 H 0.04473 0.59058 0.65351 0.0
H1466 H 0.95902 0.57846 0.64238 0.0
H1467 H 0.98663 0.57557 0.57848 0.0
C1468 C 0.98876 0.63364 0.58588 0.0
C1469 C 0.97407 0.62578 0.66312 0.0
C1470 C 0.04027 0.5711 0.57936 0.0
C1471 C 0.01531 0.55686 0.65368 0.0
H1472 H 0.95404 0.66451 0.64435 0.0
H1473 H 0.96005 0.66783 0.60211 0.0
H1474 H 0.0115 0.63229 0.54462 0.0
H1475 H 0.04218 0.59978 0.54229 0.0
H1476 H 0.05376 0.52868 0.59516 0.0
H1477 H 0.04028 0.52074 0.63544 0.0
H1478 H 0.99697 0.56176 0.69682 0.0
H1479 H 0.97556 0.5998 0.7018 0.0
H1480 H 0.94806 0.54017 0.64052 0.0
H1481 H 0.97603 0.53801 0.57548 0.0
H1482 H 0.08457 0.60397 0.65904 0.0
H1483 H 0.07182 0.65319 0.61079 0.0
C1484 C 0.73184 0.22766 0.63356 0.0
C1485 C 0.75508 0.22952 0.62572 0.0
C1486 C 0.75622 0.21714 0.60723 0.0
C1487 C 0.73367 0.20854 0.60475 0.0
N1488 N 0.7185 0.21479 0.62052 0.0
Co1489 Co 0.6843 0.2066 0.62269 0.0
N1490 N 0.68935 0.18047 0.60456 0.0
C1491 C 0.70776 0.17734 0.5908 0.0
C1492 C 0.7064 0.1579 0.58 0.0
C1493 C 0.68576 0.14829 0.58732 0.0
C1494 C 0.67562 0.16246 0.60226 0.0
N1495 N 0.64999 0.19836 0.62413 0.0
C1496 C 0.63923 0.17898 0.6199 0.0
C1497 C 0.61466 0.1806 0.62284 0.0
C1498 C 0.61007 0.20172 0.62898 0.0
C1499 C 0.63202 0.21191 0.62944 0.0
N1500 N 0.67993 0.23256 0.64115 0.0
C1501 C 0.65888 0.24224 0.64538 0.0
C1502 C 0.66137 0.25905 0.65992 0.0
C1503 C 0.68546 0.25984 0.66501 0.0
C1504 C 0.69649 0.24349 0.65321 0.0
N1505 N 0.67695 0.22425 0.59643 0.0
C1506 C 0.65858 0.25247 0.56382 0.0
C1507 C 0.67545 0.25964 0.57922 0.0
C1508 C 0.68449 0.24538 0.59511 0.0
C1509 C 0.65232 0.23035 0.5645 0.0
C1510 C 0.66162 0.21663 0.58078 0.0
N1511 N 0.69054 0.18991 0.6495 0.0
C1512 C 0.67817 0.18288 0.68641 0.0
C1513 C 0.70024 0.17347 0.69137 0.0
C1514 C 0.71722 0.17165 0.67453 0.0
C1515 C 0.71185 0.17965 0.65358 0.0
C1516 C 0.67383 0.19109 0.66575 0.0
H1517 H 0.72523 0.17833 0.64098 0.0
H1518 H 0.6572 0.19951 0.66352 0.0
H1519 H 0.6969 0.25176 0.60694 0.0
H1520 H 0.65547 0.20003 0.58126 0.0
C1521 C 0.72754 0.19137 0.59093 0.0
C1522 C 0.72267 0.23906 0.65275 0.0
C1523 C 0.65187 0.15932 0.61214 0.0
C1524 C 0.63721 0.2323 0.63886 0.0
H1525 H 0.76969 0.23876 0.63267 0.0
H1526 H 0.77194 0.21394 0.59744 0.0
H1527 H 0.7192 0.15122 0.56862 0.0
H1528 H 0.67876 0.13281 0.58196 0.0
H1529 H 0.60149 0.16786 0.62084 0.0
H1530 H 0.5929 0.20849 0.63354 0.0
H1531 H 0.64724 0.26882 0.66693 0.0
H1532 H 0.69379 0.271 0.67625 0.0
H1533 H 0.68149 0.27634 0.57923 0.0
H1534 H 0.63945 0.22379 0.55311 0.0
H1535 H 0.66464 0.18513 0.69883 0.0
H1536 H 0.73458 0.16443 0.67758 0.0
C1537 C 0.97672 0.38901 0.88143 0.0
C1538 C 0.96522 0.37 0.88764 0.0
C1539 C 0.96754 0.36837 0.90956 0.0
C1540 C 0.98061 0.38616 0.91559 0.0
N1541 N 0.98708 0.39908 0.89889 0.0
Co1542 Co 1.00741 0.426 0.90139 0.0
N1543 N 0.014 0.42105 0.93314 0.0
C1544 C 1.00503 0.40475 0.94527 0.0
C1545 C 0.01402 0.40395 0.96591 0.0
C1546 C 0.02932 0.42113 0.96727 0.0
C1547 C 0.02837 0.43184 0.94743 0.0
N1548 N 0.02676 0.45331 0.90412 0.0
C1549 C 0.03731 0.46284 0.92176 0.0
C1550 C 0.04503 0.48369 0.91679 0.0
C1551 C 0.03947 0.4873 0.8955 0.0
C1552 C 0.02839 0.46869 0.88862 0.0
N1553 N 1.00172 0.42982 0.86922 0.0
C1554 C 1.00789 0.44759 0.85771 0.0
C1555 C 1.00114 0.44663 0.83634 0.0
C1556 C 0.98972 0.42711 0.83405 0.0
C1557 C 0.99012 0.4171 0.85421 0.0
N1558 N 0.97887 0.44435 0.90839 0.0
C1559 C 0.96304 0.48732 0.91479 0.0
C1560 C 0.96013 0.47702 0.89467 0.0
C1561 C 0.96713 0.45524 0.89211 0.0
C1562 C 0.96983 0.4743 0.93237 0.0
C1563 C 0.97684 0.45278 0.92894 0.0
N1564 N 0.03704 0.4095 0.89478 0.0
C1565 C 0.0773 0.41144 0.88045 0.0
C1566 C 0.08496 0.39457 0.894 0.0
C1567 C 0.06737 0.38387 0.90635 0.0
C1568 C 0.04354 0.39139 0.90628 0.0
C1569 C 0.05354 0.41856 0.88108 0.0
H1570 H 0.03085 0.38311 0.9164 0.0
H1571 H 0.04914 0.43228 0.87122 0.0
H1572 H 0.96448 0.448 0.87642 0.0
H1573 H 0.98229 0.44392 0.94307 0.0
C1574 C 0.98932 0.38975 0.93638 0.0
C1575 C 0.97698 0.39669 0.85873 0.0
C1576 C 0.03919 0.45331 0.94375 0.0
C1577 C 0.01933 0.46507 0.86778 0.0
H1578 H 0.95632 0.35823 0.87742 0.0
H1579 H 0.96116 0.35533 0.91982 0.0
H1580 H 0.01009 0.39215 0.97843 0.0
H1581 H 0.03962 0.42542 0.9815 0.0
H1582 H 0.05319 0.49543 0.92753 0.0
H1583 H 0.04267 0.50195 0.88626 0.0
H1584 H 1.00368 0.45891 0.82399 0.0
H1585 H 0.98122 0.42137 0.81936 0.0
H1586 H 0.95308 0.48583 0.88087 0.0
H1587 H 0.97121 0.48093 0.94859 0.0
H1588 H 0.08973 0.41965 0.86974 0.0
H1589 H 0.07209 0.37041 0.91679 0.0
C1590 C 0.78598 0.79393 0.13265 0.0
C1591 C 0.76283 0.79216 0.12458 0.0
C1592 C 0.76194 0.80466 0.10616 0.0
C1593 C 0.78453 0.81325 0.10395 0.0
N1594 N 0.79951 0.80686 0.1198 0.0
Co1595 Co 0.83361 0.81522 0.12254 0.0
N1596 N 0.82875 0.84153 0.10459 0.0
C1597 C 0.81055 0.84466 0.0906 0.0
C1598 C 0.81198 0.86417 0.07993 0.0
C1599 C 0.83245 0.87383 0.08758 0.0
C1600 C 0.84244 0.85961 0.10257 0.0
N1601 N 0.86778 0.82375 0.12483 0.0
C1602 C 0.87852 0.84322 0.12087 0.0
C1603 C 0.90303 0.8417 0.12425 0.0
C1604 C 0.90761 0.82057 0.13035 0.0
C1605 C 0.88572 0.81027 0.13037 0.0
N1606 N 0.83778 0.78898 0.14069 0.0
C1607 C 0.85882 0.77931 0.14503 0.0
C1608 C 0.85619 0.76231 0.15932 0.0
C1609 C 0.83203 0.76137 0.16411 0.0
C1610 C 0.8211 0.77784 0.15241 0.0
N1611 N 0.84172 0.79793 0.09621 0.0
C1612 C 0.86125 0.77008 0.0638 0.0
C1613 C 0.84391 0.76271 0.07867 0.0
C1614 C 0.83429 0.77679 0.09447 0.0
C1615 C 0.86738 0.79222 0.06487 0.0
C1616 C 0.85751 0.80575 0.08105 0.0
N1617 N 0.82661 0.83151 0.14937 0.0
C1618 C 0.83654 0.83632 0.18717 0.0
C1619 C 0.81507 0.84722 0.19099 0.0
C1620 C 0.79991 0.85128 0.17317 0.0
C1621 C 0.80599 0.84318 0.15242 0.0
C1622 C 0.842 0.82884 0.16647 0.0
H1623 H 0.79372 0.84562 0.13907 0.0
H1624 H 0.85836 0.81985 0.16473 0.0
H1625 H 0.82154 0.77026 0.1059 0.0
H1626 H 0.86357 0.82235 0.08186 0.0
C1627 C 0.79083 0.83056 0.09037 0.0
C1628 C 0.79492 0.7823 0.15181 0.0
C1629 C 0.86603 0.86284 0.11275 0.0
C1630 C 0.88053 0.7896 0.13918 0.0
H1631 H 0.74814 0.7829 0.13134 0.0
H1632 H 0.74634 0.80797 0.09625 0.0
H1633 H 0.79933 0.87087 0.06843 0.0
H1634 H 0.83943 0.88937 0.0824 0.0
H1635 H 0.91618 0.85448 0.12247 0.0
H1636 H 0.92474 0.81381 0.13506 0.0
H1637 H 0.87026 0.75254 0.16643 0.0
H1638 H 0.82361 0.75007 0.17516 0.0
H1639 H 0.83793 0.746 0.07835 0.0
H1640 H 0.88059 0.79894 0.0539 0.0
H1641 H 0.84894 0.83311 0.20032 0.0
H1642 H 0.78313 0.85981 0.17543 0.0
C1643 C 0.54536 0.62986 0.38188 0.0
C1644 C 0.56117 0.64615 0.38812 0.0
C1645 C 0.56064 0.64704 0.41021 0.0
C1646 C 0.54444 0.63153 0.41634 0.0
N1647 N 0.53457 0.62066 0.39959 0.0
Co1648 Co 0.50834 0.59848 0.40235 0.0
N1649 N 0.51278 0.59581 0.43457 0.0
C1650 C 0.52635 0.60894 0.44698 0.0
C1651 C 0.52739 0.60278 0.46832 0.0
C1652 C 0.51322 0.58478 0.46969 0.0
C1653 C 0.504 0.58112 0.44907 0.0
N1654 N 0.48195 0.57669 0.40522 0.0
C1655 C 0.4744 0.56469 0.42259 0.0
C1656 C 0.45404 0.55287 0.41734 0.0
C1657 C 0.44856 0.55772 0.3962 0.0
C1658 C 0.46574 0.57226 0.38965 0.0
N1659 N 0.50459 0.60141 0.36999 0.0
C1660 C 0.48575 0.5938 0.35862 0.0
C1661 C 0.48756 0.59772 0.33676 0.0
C1662 C 0.50865 0.60883 0.33411 0.0
C1663 C 0.51859 0.61141 0.35459 0.0
N1664 N 0.53096 0.57417 0.39811 0.0
C1665 C 0.54906 0.53166 0.40302 0.0
C1666 C 0.53287 0.53678 0.38643 0.0
C1667 C 0.52441 0.55798 0.38409 0.0
C1668 C 0.55824 0.54907 0.41533 0.0
C1669 C 0.54913 0.57021 0.41247 0.0
N1670 N 0.48388 0.62142 0.40676 0.0
C1671 C 0.45553 0.6453 0.38918 0.0
C1672 C 0.43752 0.63966 0.40423 0.0
C1673 C 0.44455 0.62722 0.42213 0.0
C1674 C 0.46767 0.61871 0.42326 0.0
C1675 C 0.47865 0.63624 0.3909 0.0
H1676 H 0.47112 0.60798 0.43655 0.0
H1677 H 0.49159 0.63994 0.37844 0.0
H1678 H 0.5107 0.5605 0.37218 0.0
H1679 H 0.55555 0.58293 0.42299 0.0
C1680 C 0.5398 0.62546 0.43765 0.0
C1681 C 0.54021 0.62492 0.35888 0.0
C1682 C 0.48444 0.56567 0.44481 0.0
C1683 C 0.46826 0.58098 0.36876 0.0
H1684 H 0.57172 0.65668 0.37784 0.0
H1685 H 0.57105 0.65762 0.4206 0.0
H1686 H 0.53754 0.61028 0.48127 0.0
H1687 H 0.50954 0.57575 0.48438 0.0
H1688 H 0.44385 0.54225 0.42784 0.0
H1689 H 0.4338 0.55137 0.38673 0.0
H1690 H 0.47527 0.59266 0.32415 0.0
H1691 H 0.5157 0.61454 0.3188 0.0
H1692 H 0.52517 0.52431 0.37623 0.0
H1693 H 0.57163 0.54634 0.42774 0.0
H1694 H 0.45161 0.65582 0.37557 0.0
H1695 H 0.43186 0.62239 0.43449 0.0
C1696 C 0.8573 0.75751 0.75207 0.0
C1697 C 0.87027 0.77629 0.74801 0.0
C1698 C 0.89203 0.77378 0.75814 0.0
C1699 C 0.89117 0.75367 0.76774 0.0
N1700 N 0.87025 0.74343 0.7642 0.0
Co1701 Co 0.8614 0.71441 0.7753 0.0
N1702 N 0.88531 0.71626 0.79895 0.0
C1703 C 0.90458 0.7294 0.79916 0.0
C1704 C 0.91824 0.72698 0.81754 0.0
C1705 C 0.90689 0.71128 0.82954 0.0
C1706 C 0.88682 0.70497 0.81778 0.0
N1707 N 0.85294 0.68531 0.78653 0.0
C1708 C 0.85727 0.6763 0.80632 0.0
C1709 C 0.84804 0.65543 0.80721 0.0
C1710 C 0.83777 0.65138 0.78726 0.0
C1711 C 0.84126 0.66993 0.77523 0.0
N1712 N 0.83737 0.71318 0.75175 0.0
C1713 C 0.82702 0.69503 0.74415 0.0
C1714 C 0.81009 0.6995 0.72851 0.0
C1715 C 0.80993 0.7218 0.72631 0.0
C1716 C 0.82682 0.72979 0.74074 0.0
N1717 N 0.88578 0.70046 0.75572 0.0
C1718 C 0.91585 0.67625 0.72668 0.0
C1719 C 0.90062 0.69294 0.71927 0.0
C1720 C 0.88619 0.70493 0.7339 0.0
C1721 C 0.91611 0.67263 0.74925 0.0
C1722 C 0.90094 0.6846 0.76331 0.0
N1723 N 0.83648 0.72743 0.79424 0.0
C1724 C 0.79545 0.72648 0.80713 0.0
C1725 C 0.79837 0.74592 0.81863 0.0
C1726 C 0.82115 0.75586 0.81766 0.0
C1727 C 0.83995 0.74632 0.80553 0.0
C1728 C 0.81443 0.71766 0.7952 0.0
H1729 H 0.85719 0.75429 0.80508 0.0
H1730 H 0.81094 0.70296 0.78636 0.0
H1731 H 0.87482 0.71752 0.72737 0.0
H1732 H 0.90105 0.68052 0.78033 0.0
C1733 C 0.9069 0.74606 0.78378 0.0
C1734 C 0.83335 0.75299 0.7433 0.0
C1735 C 0.87096 0.68692 0.82398 0.0
C1736 C 0.83006 0.6752 0.75533 0.0
H1737 H 0.86455 0.79033 0.73883 0.0
H1738 H 0.90621 0.78572 0.75936 0.0
H1739 H 0.93409 0.73606 0.82206 0.0
H1740 H 0.91288 0.70501 0.84502 0.0
H1741 H 0.84857 0.64437 0.82084 0.0
H1742 H 0.82797 0.63698 0.7825 0.0
H1743 H 0.79828 0.68808 0.72053 0.0
H1744 H 0.79854 0.73107 0.71555 0.0
H1745 H 0.89984 0.69679 0.70214 0.0
H1746 H 0.92736 0.66002 0.75601 0.0
H1747 H 0.77832 0.71823 0.80686 0.0
H1748 H 0.82456 0.77079 0.82638 0.0
C1749 C 0.53492 0.63829 0.04391 0.0
C1750 C 0.51167 0.6461 0.04202 0.0
C1751 C 0.51052 0.66465 0.05432 0.0
C1752 C 0.53307 0.66718 0.06291 0.0
N1753 N 0.54826 0.65141 0.05672 0.0
Co1754 Co 0.58244 0.64927 0.06496 0.0
N1755 N 0.57736 0.66744 0.09105 0.0
C1756 C 0.55894 0.68121 0.09412 0.0
C1757 C 0.56026 0.69203 0.11356 0.0
C1758 C 0.58088 0.6847 0.12322 0.0
C1759 C 0.59104 0.66974 0.10908 0.0
N1760 N 0.61673 0.64784 0.07325 0.0
C1761 C 0.62745 0.65207 0.09265 0.0
C1762 C 0.65202 0.64912 0.09107 0.0
C1763 C 0.65664 0.64296 0.06995 0.0
C1764 C 0.63471 0.6425 0.05973 0.0
N1765 N 0.58683 0.63074 0.03904 0.0
C1766 C 0.60789 0.6265 0.02939 0.0
C1767 C 0.60543 0.61186 0.01267 0.0
C1768 C 0.58135 0.60673 0.0119 0.0
C1769 C 0.57029 0.6186 0.02817 0.0
N1770 N 0.58984 0.67551 0.04727 0.0
C1771 C 0.60832 0.70816 0.0191 0.0
C1772 C 0.59152 0.69271 0.01187 0.0
C1773 C 0.58243 0.6768 0.02611 0.0
C1774 C 0.61447 0.70748 0.04125 0.0
C1775 C 0.60513 0.69118 0.05494 0.0
N1776 N 0.57617 0.6225 0.08169 0.0
C1777 C 0.58854 0.58561 0.08882 0.0
C1778 C 0.56651 0.58071 0.09835 0.0
C1779 C 0.54956 0.59758 0.10017 0.0
C1780 C 0.55491 0.61848 0.09205 0.0
C1781 C 0.59286 0.60623 0.08052 0.0
H1782 H 0.54155 0.63111 0.09336 0.0
H1783 H 0.60946 0.60842 0.07203 0.0
H1784 H 0.57006 0.66495 0.01969 0.0
H1785 H 0.6112 0.69072 0.07155 0.0
C1786 C 0.53919 0.68104 0.08006 0.0
C1787 C 0.54409 0.61903 0.03262 0.0
C1788 C 0.61477 0.65983 0.11228 0.0
C1789 C 0.62955 0.63305 0.03935 0.0
H1790 H 0.49707 0.63909 0.03283 0.0
H1791 H 0.4948 0.67443 0.0575 0.0
H1792 H 0.54745 0.70341 0.12021 0.0
H1793 H 0.58783 0.69006 0.13871 0.0
H1794 H 0.66517 0.65111 0.10382 0.0
H1795 H 0.67382 0.63838 0.06321 0.0
H1796 H 0.61958 0.6048 1.00295 0.0
H1797 H 0.57306 0.59539 1.00081 0.0
H1798 H 0.58557 0.69268 0.99515 0.0
H1799 H 0.62729 0.71888 0.04786 0.0
H1800 H 0.60204 0.57318 0.08655 0.0
H1801 H 0.53223 0.59458 0.10749 0.0
C1802 C 0.65636 0.2644 0.25109 0.0
C1803 C 0.64286 0.2457 0.24808 0.0
C1804 C 0.6218 0.24866 0.25917 0.0
C1805 C 0.62361 0.26886 0.26842 0.0
N1806 N 0.64451 0.27874 0.26385 0.0
Co1807 Co 0.65444 0.30776 0.27441 0.0
N1808 N 0.63125 0.30669 0.29873 0.0
C1809 C 0.61176 0.29386 0.29972 0.0
C1810 C 0.59877 0.29675 0.31842 0.0
C1811 C 0.61079 0.31245 0.32984 0.0
C1812 C 0.63056 0.31827 0.31743 0.0
N1813 N 0.66391 0.33685 0.28508 0.0
C1814 C 0.66036 0.34621 0.30485 0.0
C1815 C 0.67004 0.36692 0.30523 0.0
C1816 C 0.67981 0.37052 0.28499 0.0
C1817 C 0.67559 0.35187 0.27331 0.0
N1818 N 0.67777 0.30827 0.25023 0.0
C1819 C 0.68828 0.32616 0.24219 0.0
C1820 C 0.70425 0.32133 0.22586 0.0
C1821 C 0.70358 0.29905 0.22361 0.0
C1822 C 0.68726 0.29144 0.23876 0.0
N1823 N 0.62979 0.32192 0.25524 0.0
C1824 C 0.59963 0.34636 0.22649 0.0
C1825 C 0.61429 0.32933 0.21899 0.0
C1826 C 0.62875 0.3172 0.23348 0.0
C1827 C 0.59992 0.35022 0.24902 0.0
C1828 C 0.61516 0.33813 0.26293 0.0
N1829 N 0.67972 0.29452 0.29292 0.0
C1830 C 0.72108 0.29516 0.30502 0.0
C1831 C 0.71812 0.2761 0.31711 0.0
C1832 C 0.69515 0.26645 0.31676 0.0
C1833 C 0.67622 0.27595 0.30471 0.0
C1834 C 0.70197 0.30395 0.29319 0.0
H1835 H 0.65883 0.26822 0.30479 0.0
H1836 H 0.70552 0.31838 0.28394 0.0
H1837 H 0.63964 0.30433 0.22687 0.0
H1838 H 0.61556 0.34241 0.27991 0.0
C1839 C 0.60868 0.27697 0.28478 0.0
C1840 C 0.6798 0.26847 0.24095 0.0
C1841 C 0.64697 0.33611 0.32298 0.0
C1842 C 0.68604 0.34616 0.25322 0.0
H1843 H 0.64771 0.23133 0.23901 0.0
H1844 H 0.60749 0.23697 0.2612 0.0
H1845 H 0.58295 0.28796 0.32353 0.0
H1846 H 0.60546 0.31901 0.34538 0.0
H1847 H 0.67011 0.37817 0.31871 0.0
H1848 H 0.68976 0.38468 0.2798 0.0
H1849 H 0.71583 0.3325 0.21727 0.0
H1850 H 0.71387 0.28951 0.21218 0.0
H1851 H 0.61464 0.32532 0.20188 0.0
H1852 H 0.58908 0.36311 0.25582 0.0
H1853 H 0.73833 0.30318 0.30423 0.0
H1854 H 0.69168 0.2518 0.32593 0.0
C1855 C 0.98297 0.38437 0.54411 0.0
C1856 C 1.00619 0.37649 0.54225 0.0
C1857 C 1.00722 0.35785 0.5544 0.0
C1858 C 0.98462 0.35532 0.56288 0.0
N1859 N 0.96952 0.37118 0.55675 0.0
Co1860 Co 0.9353 0.37332 0.5649 0.0
N1861 N 0.94023 0.35499 0.59092 0.0
C1862 C 0.95861 0.34118 0.59396 0.0
C1863 C 0.9572 0.33024 0.61332 0.0
C1864 C 0.93656 0.33753 0.62297 0.0
C1865 C 0.92647 0.35259 0.6089 0.0
N1866 N 0.90096 0.37469 0.57309 0.0
C1867 C 0.89014 0.37034 0.59243 0.0
C1868 C 0.86558 0.37331 0.59074 0.0
C1869 C 0.86108 0.3796 0.56965 0.0
C1870 C 0.88306 0.38012 0.55952 0.0
N1871 N 0.9311 0.39203 0.5391 0.0
C1872 C 0.91008 0.3964 0.52943 0.0
C1873 C 0.91265 0.41121 0.51286 0.0
C1874 C 0.93675 0.41632 0.51223 0.0
C1875 C 0.94773 0.40427 0.52842 0.0
N1876 N 0.92788 0.34718 0.54701 0.0
C1877 C 0.90904 0.31491 0.51852 0.0
C1878 C 0.92596 0.33033 0.51142 0.0
C1879 C 0.93522 0.34605 0.52581 0.0
C1880 C 0.90298 0.31542 0.5407 0.0
C1881 C 0.91251 0.33151 0.55454 0.0
N1882 N 0.9415 0.40003 0.58178 0.0
C1883 C 0.92883 0.43682 0.58903 0.0
C1884 C 0.95096 0.44195 0.59821 0.0
C1885 C 0.96815 0.42527 0.59981 0.0
C1886 C 0.9629 0.40428 0.59184 0.0
C1887 C 0.92462 0.41616 0.58081 0.0
H1888 H 0.97642 0.39179 0.593 0.0
H1889 H 0.90795 0.41389 0.57249 0.0
H1890 H 0.94765 0.35789 0.51949 0.0
H1891 H 0.90648 0.33184 0.57117 0.0
C1892 C 0.9784 0.34138 0.57994 0.0
C1893 C 0.97394 0.40378 0.53297 0.0
C1894 C 0.9027 0.36246 0.6121 0.0
C1895 C 0.88837 0.38977 0.53925 0.0
H1896 H 0.02087 0.38354 0.53317 0.0
H1897 H 0.0229 0.34801 0.55757 0.0
H1898 H 0.96996 0.31878 0.61993 0.0
H1899 H 0.92954 0.33206 0.6384 0.0
H1900 H 0.85236 0.37124 0.60342 0.0
H1901 H 0.84394 0.38425 0.56286 0.0
H1902 H 0.89856 0.41839 0.50317 0.0
H1903 H 0.9451 0.42777 0.5013 0.0
H1904 H 0.93188 0.33049 0.49469 0.0
H1905 H 0.89009 0.30404 0.54724 0.0
H1906 H 0.91514 0.44911 0.58694 0.0
H1907 H 0.98557 0.42849 0.60686 0.0
C1908 C 0.8623 0.2643 0.7705 0.0
C1909 C 0.87557 0.2455 0.77373 0.0
C1910 C 0.89676 0.24822 0.76278 0.0
C1911 C 0.89526 0.26837 0.75339 0.0
N1912 N 0.87443 0.27847 0.75774 0.0
Co1913 Co 0.8649 0.30749 0.74689 0.0
N1914 N 0.88833 0.30608 0.72275 0.0
C1915 C 0.90767 0.29306 0.72199 0.0
C1916 C 0.92089 0.29572 0.70339 0.0
C1917 C 0.90918 0.31147 0.69179 0.0
C1918 C 0.88936 0.31756 0.70399 0.0
N1919 N 0.85584 0.33659 0.73593 0.0
C1920 C 0.85973 0.34582 0.71615 0.0
C1921 C 0.85026 0.36661 0.71558 0.0
C1922 C 0.84029 0.37039 0.7357 0.0
C1923 C 0.84418 0.35177 0.74752 0.0
N1924 N 0.84133 0.30835 0.77087 0.0
C1925 C 0.83092 0.32638 0.7787 0.0
C1926 C 0.81472 0.32178 0.79492 0.0
C1927 C 0.81514 0.29952 0.79733 0.0
C1928 C 0.83154 0.29167 0.78238 0.0
N1929 N 0.88947 0.32157 0.76615 0.0
C1930 C 0.91947 0.34597 0.79501 0.0
C1931 C 0.90466 0.32902 0.80248 0.0
C1932 C 0.89028 0.31692 0.78793 0.0
C1933 C 0.91942 0.34974 0.77247 0.0
C1934 C 0.90426 0.33766 0.75849 0.0
N1935 N 0.83973 0.29432 0.72831 0.0
C1936 C 0.79847 0.29509 0.71601 0.0
C1937 C 0.80135 0.27581 0.70427 0.0
C1938 C 0.82422 0.266 0.70484 0.0
C1939 C 0.84315 0.27555 0.71681 0.0
C1940 C 0.81758 0.30392 0.72777 0.0
H1941 H 0.86047 0.2677 0.71694 0.0
H1942 H 0.81411 0.31851 0.73679 0.0
H1943 H 0.87924 0.30413 0.79451 0.0
H1944 H 0.90405 0.34186 0.74149 0.0
C1945 C 0.91042 0.27624 0.73707 0.0
C1946 C 0.83879 0.26862 0.78041 0.0
C1947 C 0.87326 0.33556 0.6982 0.0
C1948 C 0.83348 0.34627 0.76756 0.0
H1949 H 0.87048 0.23122 0.78282 0.0
H1950 H 0.91096 0.23639 0.76092 0.0
H1951 H 0.93666 0.28676 0.69847 0.0
H1952 H 0.91477 0.3179 0.67625 0.0
H1953 H 0.85046 0.3778 0.70205 0.0
H1954 H 0.83044 0.38466 0.74073 0.0
H1955 H 0.80317 0.33311 0.80333 0.0
H1956 H 0.80463 0.29014 0.80873 0.0
H1957 H 0.90416 0.32508 0.81959 0.0
H1958 H 0.93039 0.36256 0.76569 0.0
H1959 H 0.78128 0.30323 0.71658 0.0
H1960 H 0.8276 0.25118 0.69592 0.0
C1961 C 0.98232 0.63976 0.97754 0.0
C1962 C 1.00566 0.64745 0.979 0.0
C1963 C 1.00679 0.66576 0.96637 0.0
C1964 C 0.98413 0.6683 0.95803 0.0
N1965 N 0.9689 0.65276 0.96469 0.0
Co1966 Co 0.93454 0.65081 0.957 0.0
N1967 N 0.93937 0.66846 0.93051 0.0
C1968 C 0.9579 0.68198 0.92693 0.0
C1969 C 0.95635 0.69251 0.90735 0.0
C1970 C 0.93545 0.68527 0.89813 0.0
C1971 C 0.92536 0.67065 0.91267 0.0
N1972 N 0.90005 0.64971 0.94929 0.0
C1973 C 0.88899 0.65379 0.93001 0.0
C1974 C 0.86441 0.65122 0.93208 0.0
C1975 C 0.86014 0.64546 0.95337 0.0
C1976 C 0.88228 0.64485 0.96322 0.0
N1977 N 0.93044 0.63275 0.98328 0.0
C1978 C 0.9095 0.62883 0.99329 0.0
C1979 C 0.9121 0.61436 1.01015 0.0
C1980 C 0.93613 0.609 1.01062 0.0
C1981 C 0.94704 0.62057 0.99404 0.0
N1982 N 0.92774 0.6774 0.97437 0.0
C1983 C 0.90888 0.70975 1.00266 0.0
C1984 C 0.92596 0.69453 1.00981 0.0
C1985 C 0.93526 0.67877 0.9955 0.0
C1986 C 0.90281 0.70914 0.98049 0.0
C1987 C 0.91236 0.693 0.96674 0.0
N1988 N 0.94011 0.62358 0.94074 0.0
C1989 C 0.92701 0.58658 0.9358 0.0
C1990 C 0.9493 0.5805 0.92758 0.0
C1991 C 0.96646 0.59697 0.92431 0.0
C1992 C 0.96143 0.61852 0.9309 0.0
C1993 C 0.92291 0.60779 0.94239 0.0
H1994 H 0.97515 0.63075 0.92908 0.0
H1995 H 0.9061 0.61074 0.95023 0.0
H1996 H 0.94774 0.66701 1.00189 0.0
H1997 H 0.90624 0.69251 0.95014 0.0
C1998 C 0.97788 0.6819 0.94072 0.0
C1999 C 0.97318 0.62072 0.9892 0.0
C2000 C 0.90138 0.66105 0.91002 0.0
C2001 C 0.88774 0.63555 0.98361 0.0
H2002 H 0.02035 0.64049 0.98812 0.0
H2003 H 0.02255 0.67537 0.96282 0.0
H2004 H 0.96917 0.70367 0.90033 0.0
H2005 H 0.92826 0.6905 0.88269 0.0
H2006 H 0.85102 0.65319 0.91953 0.0
H2007 H 0.84304 0.64121 0.96048 0.0
H2008 H 0.89805 0.60757 0.02017 0.0
H2009 H 0.94449 0.59772 0.02171 0.0
H2010 H 0.9319 0.69449 0.02653 0.0
H2011 H 0.88982 0.72042 0.97392 0.0
H2012 H 0.91291 0.5747 0.93812 0.0
H2013 H 0.98394 0.59308 0.91776 0.0
C2014 C 0.65754 0.75659 0.27037 0.0
C2015 C 0.64454 0.77536 0.27439 0.0
C2016 C 0.62277 0.77279 0.26428 0.0
C2017 C 0.62366 0.75265 0.25473 0.0
N2018 N 0.6446 0.74246 0.2583 0.0
Co2019 Co 0.65355 0.71347 0.24721 0.0
N2020 N 0.62972 0.71529 0.2235 0.0
C2021 C 0.61043 0.7284 0.22322 0.0
C2022 C 0.59687 0.72597 0.20479 0.0
C2023 C 0.6083 0.71029 0.19282 0.0
C2024 C 0.62832 0.70401 0.20465 0.0
N2025 N 0.66212 0.68439 0.23602 0.0
C2026 C 0.65786 0.67537 0.21622 0.0
C2027 C 0.66714 0.65452 0.21536 0.0
C2028 C 0.67737 0.6505 0.23533 0.0
C2029 C 0.67382 0.66905 0.24735 0.0
N2030 N 0.67753 0.71231 0.2708 0.0
C2031 C 0.68794 0.6942 0.27843 0.0
C2032 C 0.7049 0.69875 0.29402 0.0
C2033 C 0.70502 0.72106 0.29615 0.0
C2034 C 0.68809 0.72897 0.28172 0.0
N2035 N 0.62908 0.69942 0.26673 0.0
C2036 C 0.5985 0.67528 0.29539 0.0
C2037 C 0.61405 0.69155 0.30309 0.0
C2038 C 0.62873 0.70357 0.28863 0.0
C2039 C 0.59823 0.67193 0.27281 0.0
C2040 C 0.61369 0.68383 0.25893 0.0
N2041 N 0.67852 0.72658 0.2283 0.0
C2042 C 0.71955 0.72575 0.21534 0.0
C2043 C 0.71657 0.74516 0.2038 0.0
C2044 C 0.69375 0.75503 0.2048 0.0
C2045 C 0.67499 0.74545 0.21699 0.0
C2046 C 0.7006 0.71688 0.22732 0.0
H2047 H 0.65773 0.75338 0.21744 0.0
H2048 H 0.70414 0.7022 0.23617 0.0
H2049 H 0.64029 0.71591 0.29535 0.0
H2050 H 0.61356 0.67992 0.24187 0.0
C2051 C 0.60801 0.74503 0.23862 0.0
C2052 C 0.68155 0.75215 0.27904 0.0
C2053 C 0.64423 0.68596 0.19853 0.0
C2054 C 0.68497 0.67436 0.26726 0.0
H2055 H 0.65026 0.78945 0.28351 0.0
H2056 H 0.6086 0.78472 0.26302 0.0
H2057 H 0.58103 0.73502 0.20021 0.0
H2058 H 0.6024 0.70402 0.17731 0.0
H2059 H 0.66666 0.64345 0.20174 0.0
H2060 H 0.68719 0.63613 0.24011 0.0
H2061 H 0.71676 0.68738 0.302 0.0
H2062 H 0.71643 0.73039 0.30685 0.0
H2063 H 0.61491 0.695 0.3203 0.0
H2064 H 0.58667 0.65961 0.26591 0.0
H2065 H 0.7367 0.71754 0.21559 0.0
H2066 H 0.69026 0.76994 0.19607 0.0
C2067 C 0.53859 0.38267 0.47801 0.0
C2068 C 0.51538 0.37473 0.47974 0.0
C2069 C 0.51436 0.35634 0.46721 0.0
C2070 C 0.53695 0.35402 0.45865 0.0
N2071 N 0.55202 0.36978 0.46507 0.0
Co2072 Co 0.58617 0.37232 0.45685 0.0
N2073 N 0.58126 0.3544 0.43055 0.0
C2074 C 0.563 0.34046 0.42737 0.0
C2075 C 0.56443 0.32983 0.40784 0.0
C2076 C 0.58493 0.33745 0.39822 0.0
C2077 C 0.59494 0.35239 0.41248 0.0
N2078 N 0.62038 0.37439 0.44842 0.0
C2079 C 0.63108 0.37051 0.42893 0.0
C2080 C 0.65561 0.37377 0.43047 0.0
C2081 C 0.66023 0.37972 0.45164 0.0
C2082 C 0.63835 0.37978 0.46194 0.0
N2083 N 0.59045 0.39041 0.4831 0.0
C2084 C 0.61149 0.39457 0.49284 0.0
C2085 C 0.60892 0.40881 0.50989 0.0
C2086 C 0.58481 0.41375 0.51079 0.0
C2087 C 0.57384 0.40217 0.49424 0.0
N2088 N 0.59392 0.34596 0.4742 0.0
C2089 C 0.61272 0.31351 0.50236 0.0
C2090 C 0.59532 0.32845 0.50944 0.0
C2091 C 0.58609 0.34427 0.49521 0.0
C2092 C 0.61929 0.31451 0.48032 0.0
C2093 C 0.60976 0.33073 0.46662 0.0
N2094 N 0.57945 0.3992 0.44055 0.0
C2095 C 0.58962 0.43699 0.43591 0.0
C2096 C 0.56818 0.44095 0.42501 0.0
C2097 C 0.55293 0.42322 0.42084 0.0
C2098 C 0.55888 0.4024 0.42886 0.0
C2099 C 0.59495 0.41622 0.4433 0.0
H2100 H 0.54652 0.38913 0.42635 0.0
H2101 H 0.61128 0.41436 0.45231 0.0
H2102 H 0.57329 0.35577 0.50156 0.0
H2103 H 0.6161 0.33149 0.45009 0.0
C2104 C 0.54322 0.34035 0.44139 0.0
C2105 C 0.54769 0.40172 0.48972 0.0
C2106 C 0.61851 0.36263 0.40927 0.0
C2107 C 0.63319 0.38858 0.48261 0.0
H2108 H 0.50072 0.38154 0.48902 0.0
H2109 H 0.49871 0.3465 0.4639 0.0
H2110 H 0.55173 0.3184 0.40109 0.0
H2111 H 0.5919 0.33231 0.38267 0.0
H2112 H 0.66874 0.37202 0.41766 0.0
H2113 H 0.67739 0.38434 0.45841 0.0
H2114 H 0.62302 0.41579 0.51973 0.0
H2115 H 0.57642 0.42479 0.52211 0.0
H2116 H 0.58901 0.32818 0.52606 0.0
H2117 H 0.63255 0.30346 0.47383 0.0
H2118 H 0.60209 0.45007 0.43919 0.0
H2119 H 0.53617 0.42559 0.4123 0.0
C2120 C 0.72173 0.89121 0.64252 0.0
C2121 C 0.70576 0.88501 0.62634 0.0
C2122 C 0.70635 0.86293 0.62532 0.0
C2123 C 0.72275 0.85678 0.64064 0.0
N2124 N 0.73267 0.8735 0.65153 0.0
Co2125 Co 0.75924 0.87073 0.67335 0.0
N2126 N 0.75511 0.83844 0.67573 0.0
C2127 C 0.74142 0.82606 0.66267 0.0
C2128 C 0.74061 0.80467 0.66867 0.0
C2129 C 0.75505 0.80323 0.68649 0.0
C2130 C 0.76419 0.82388 0.69019 0.0
N2131 N 0.78603 0.86782 0.69472 0.0
C2132 C 0.79395 0.85035 0.70637 0.0
C2133 C 0.81455 0.85556 0.71786 0.0
C2134 C 0.8198 0.87679 0.71316 0.0
C2135 C 0.80223 0.88342 0.69904 0.0
N2136 N 0.7626 0.90317 0.67086 0.0
C2137 C 0.78141 0.91461 0.67841 0.0
C2138 C 0.77939 0.93649 0.67468 0.0
C2139 C 0.75818 0.93907 0.66373 0.0
C2140 C 0.74841 0.91854 0.66107 0.0
N2141 N 0.73697 0.87448 0.69802 0.0
C2142 C 0.71909 0.86932 0.74061 0.0
C2143 C 0.7353 0.88589 0.73551 0.0
C2144 C 0.74366 0.88835 0.7143 0.0
C2145 C 0.70987 0.85706 0.72317 0.0
C2146 C 0.71886 0.86004 0.702 0.0
N2147 N 0.78343 0.86687 0.65003 0.0
C2148 C 0.8128 0.88616 0.62853 0.0
C2149 C 0.83045 0.87098 0.63432 0.0
C2150 C 0.82306 0.85209 0.64484 0.0
C2151 C 0.79951 0.85017 0.65215 0.0
C2152 C 0.78916 0.88354 0.6362 0.0
H2153 H 0.79564 0.83614 0.66176 0.0
H2154 H 0.7763 0.89612 0.63269 0.0
H2155 H 0.75737 0.90026 0.7118 0.0
H2156 H 0.71237 0.8496 0.68925 0.0
C2157 C 0.72763 0.83544 0.64643 0.0
C2158 C 0.72684 0.91417 0.64756 0.0
C2159 C 0.78388 0.82815 0.70548 0.0
C2160 C 0.79931 0.90444 0.69074 0.0
H2161 H 0.69505 0.8953 0.61596 0.0
H2162 H 0.6959 0.85256 0.61475 0.0
H2163 H 0.73041 0.79172 0.6612 0.0
H2164 H 0.75892 0.78849 0.69536 0.0
H2165 H 0.82501 0.84499 0.72819 0.0
H2166 H 0.83463 0.88626 0.71936 0.0
H2167 H 0.79167 0.94915 0.67966 0.0
H2168 H 0.75098 0.95436 0.65809 0.0
H2169 H 0.74307 0.89602 0.748 0.0
H2170 H 0.69649 0.84464 0.7259 0.0
H2171 H 0.81758 0.90075 0.61975 0.0
H2172 H 0.83589 0.83953 0.64894 0.0
C2173 C 0.22679 0.63245 0.38187 0.0
C2174 C 0.21229 0.63843 0.3992 0.0
C2175 C 0.21394 0.66043 0.40113 0.0
C2176 C 0.22948 0.66673 0.38513 0.0
N2177 N 0.23786 0.65018 0.37301 0.0
Co2178 Co 0.26264 0.65305 0.34956 0.0
N2179 N 0.25926 0.68547 0.34836 0.0
C2180 C 0.24735 0.69774 0.36288 0.0
C2181 C 0.24674 0.71934 0.35765 0.0
C2182 C 0.25945 0.72101 0.33879 0.0
C2183 C 0.26744 0.70027 0.3337 0.0
N2184 N 0.28738 0.65596 0.32631 0.0
C2185 C 0.29451 0.67351 0.31435 0.0
C2186 C 0.31355 0.66808 0.30093 0.0
C2187 C 0.31861 0.64663 0.30469 0.0
C2188 C 0.3025 0.64009 0.3202 0.0
N2189 N 0.2656 0.62055 0.35137 0.0
C2190 C 0.28354 0.60898 0.3424 0.0
C2191 C 0.28112 0.58704 0.34552 0.0
C2192 C 0.26058 0.58453 0.35748 0.0
C2193 C 0.25156 0.60516 0.36131 0.0
N2194 N 0.23826 0.65021 0.32633 0.0
C2195 C 0.22027 0.65629 0.28381 0.0
C2196 C 0.23278 0.63741 0.28956 0.0
C2197 C 0.24171 0.63481 0.31059 0.0
C2198 C 0.21399 0.67043 0.30091 0.0
C2199 C 0.22249 0.66668 0.32209 0.0
N2200 N 0.28875 0.65611 0.37123 0.0
C2201 C 0.31755 0.63804 0.39443 0.0
C2202 C 0.33529 0.65315 0.38861 0.0
C2203 C 0.32842 0.67103 0.37628 0.0
C2204 C 0.30521 0.67236 0.3681 0.0
C2205 C 0.29423 0.63995 0.38571 0.0
H2206 H 0.30177 0.68572 0.3575 0.0
H2207 H 0.2813 0.62748 0.38945 0.0
H2208 H 0.2531 0.62107 0.31321 0.0
H2209 H 0.21787 0.67825 0.33452 0.0
C2210 C 0.23467 0.68814 0.37975 0.0
C2211 C 0.23059 0.60956 0.37558 0.0
C2212 C 0.28544 0.69598 0.31677 0.0
C2213 C 0.30008 0.61904 0.32855 0.0
H2214 H 0.20187 0.62802 0.40971 0.0
H2215 H 0.20466 0.67066 0.41268 0.0
H2216 H 0.23774 0.73229 0.36629 0.0
H2217 H 0.26299 0.73593 0.3301 0.0
H2218 H 0.32318 0.67865 0.28995 0.0
H2219 H 0.33242 0.63697 0.29702 0.0
H2220 H 0.29248 0.57428 0.3392 0.0
H2221 H 0.25317 0.56919 0.36271 0.0
H2222 H 0.23684 0.62499 0.27771 0.0
H2223 H 0.20378 0.68505 0.29801 0.0
H2224 H 0.32204 0.62415 0.40439 0.0
H2225 H 0.34137 0.68338 0.37186 0.0
C2226 C 0.60923 1.00111 0.51529 0.0
C2227 C 0.62219 0.99711 0.4965 0.0
C2228 C 0.64391 1.00734 0.49898 0.0
C2229 C 0.64302 0.01695 0.5191 0.0
N2230 N 0.62215 0.01328 0.52936 0.0
Co2231 Co 0.61319 0.02444 0.55832 0.0
N2232 N 0.63684 0.0483 0.55637 0.0
C2233 C 0.65608 0.04864 0.5432 0.0
C2234 C 0.66953 0.06716 0.54554 0.0
C2235 C 0.65808 0.0791 0.56123 0.0
C2236 C 0.63816 0.06717 0.56761 0.0
N2237 N 0.60458 0.03568 0.58737 0.0
C2238 C 0.60877 0.0555 0.59635 0.0
C2239 C 0.59955 0.05636 0.61722 0.0
C2240 C 0.58943 0.03635 0.62131 0.0
C2241 C 0.593 0.02433 0.60278 0.0
N2242 N 0.58937 1.00071 0.55962 0.0
C2243 C 0.57906 0.99308 0.57777 0.0
C2244 C 0.56218 0.97739 0.5733 0.0
C2245 C 0.562 0.9752 0.55101 0.0
C2246 C 0.57883 0.98968 0.54301 0.0
N2247 N 0.6378 1.00519 0.57241 0.0
C2248 C 0.66853 0.97696 0.59674 0.0
C2249 C 0.6531 0.969 0.5805 0.0
C2250 C 0.63834 0.98327 0.56837 0.0
C2251 C 0.66862 0.99954 0.59996 0.0
C2252 C 0.6531 0.01321 0.58795 0.0
N2253 N 0.58812 0.04314 0.54519 0.0
C2254 C 0.54708 0.05597 0.54608 0.0
C2255 C 0.55004 0.06748 0.52666 0.0
C2256 C 0.57283 0.06654 0.51675 0.0
C2257 C 0.59161 0.05443 0.52631 0.0
C2258 C 0.56606 0.04404 0.55492 0.0
H2259 H 0.60887 0.05402 0.51838 0.0
H2260 H 0.56257 0.0352 0.56963 0.0
H2261 H 0.62684 0.9764 0.55606 0.0
H2262 H 0.65307 0.0303 0.59175 0.0
C2263 C 0.65857 0.03319 0.52662 0.0
C2264 C 0.58527 0.99233 0.5198 0.0
C2265 C 0.62231 0.07322 0.58572 0.0
C2266 C 0.58199 1.00433 0.59756 0.0
H2267 H 0.61648 0.98793 0.48245 0.0
H2268 H 0.65803 1.00867 0.48701 0.0
H2269 H 0.68532 0.07179 0.53644 0.0
H2270 H 0.66392 0.09464 0.56746 0.0
H2271 H 0.59998 0.07001 0.62827 0.0
H2272 H 0.5797 0.03155 0.63572 0.0
H2273 H 0.55039 0.9694 0.58473 0.0
H2274 H 0.55061 0.96443 0.54174 0.0
H2275 H 0.6524 0.95176 0.57718 0.0
H2276 H 0.68009 1.00659 0.61226 0.0
H2277 H 0.52993 0.05571 0.5543 0.0
H2278 H 0.57626 0.07527 0.50183 0.0
C2279 C 0.29452 0.39082 0.8793 0.0
C2280 C 0.31054 0.38465 0.89544 0.0
C2281 C 0.30967 0.36259 0.89675 0.0
C2282 C 0.29308 0.35642 0.88159 0.0
N2283 N 0.28333 0.3731 0.87052 0.0
Co2284 Co 0.25668 0.37029 0.84876 0.0
N2285 N 0.26015 0.3379 0.84699 0.0
C2286 C 0.27354 0.32557 0.86035 0.0
C2287 C 0.2739 0.30404 0.85482 0.0
C2288 C 0.25951 0.30247 0.83698 0.0
C2289 C 0.25084 0.32319 0.83279 0.0
N2290 N 0.22993 0.36736 0.82733 0.0
C2291 C 0.222 0.34988 0.81567 0.0
C2292 C 0.20168 0.35522 0.80384 0.0
C2293 C 0.19663 0.37654 0.80833 0.0
C2294 C 0.21401 0.38309 0.82266 0.0
N2295 N 0.25373 0.40279 0.85083 0.0
C2296 C 0.23501 0.41429 0.84317 0.0
C2297 C 0.23716 0.43618 0.84677 0.0
C2298 C 0.25834 0.43872 0.85778 0.0
C2299 C 0.26797 0.41815 0.86058 0.0
N2300 N 0.27901 0.37337 0.82405 0.0
C2301 C 0.29712 0.36787 0.78158 0.0
C2302 C 0.28121 0.38471 0.78657 0.0
C2303 C 0.27273 0.38733 0.80772 0.0
C2304 C 0.30588 0.35541 0.79907 0.0
C2305 C 0.29677 0.35855 0.82018 0.0
N2306 N 0.23258 0.36716 0.87216 0.0
C2307 C 0.20569 0.38677 0.89578 0.0
C2308 C 0.18674 0.37262 0.8905 0.0
C2309 C 0.19247 0.35396 0.87862 0.0
C2310 C 0.21541 0.35142 0.86995 0.0
C2311 C 0.22859 0.3835 0.88678 0.0
H2312 H 0.218 0.33779 0.85941 0.0
H2313 H 0.24235 0.39531 0.89016 0.0
H2314 H 0.25928 0.39949 0.81011 0.0
H2315 H 0.30291 0.348 0.83297 0.0
C2316 C 0.28767 0.33506 0.87627 0.0
C2317 C 0.28944 0.41379 0.87422 0.0
C2318 C 0.23166 0.32754 0.81698 0.0
C2319 C 0.21711 0.40415 0.83081 0.0
H2320 H 0.3214 0.39495 0.90568 0.0
H2321 H 0.31999 0.35226 0.90744 0.0
H2322 H 0.28386 0.2911 0.86254 0.0
H2323 H 0.25548 0.28763 0.82833 0.0
H2324 H 0.19126 0.34468 0.79344 0.0
H2325 H 0.18205 0.38613 0.80181 0.0
H2326 H 0.22497 0.44886 0.84168 0.0
H2327 H 0.26559 0.45399 0.86338 0.0
H2328 H 0.27376 0.39498 0.77403 0.0
H2329 H 0.31899 0.34275 0.79643 0.0
H2330 H 0.2026 0.40092 0.90581 0.0
H2331 H 0.17887 0.34224 0.87421 0.0
C2332 C 0.41052 0.51973 0.51567 0.0
C2333 C 0.39751 0.52371 0.4969 0.0
C2334 C 0.37576 0.51356 0.49949 0.0
C2335 C 0.37667 0.50403 0.51964 0.0
N2336 N 0.39761 0.50765 0.52982 0.0
Co2337 Co 0.40658 0.49659 0.55882 0.0
N2338 N 0.38276 0.47286 0.55706 0.0
C2339 C 0.36346 0.47257 0.54396 0.0
C2340 C 0.34989 0.45414 0.54643 0.0
C2341 C 0.36132 0.44221 0.56213 0.0
C2342 C 0.38135 0.45405 0.56839 0.0
N2343 N 0.4152 0.48543 0.5879 0.0
C2344 C 0.41094 0.46565 0.59696 0.0
C2345 C 0.42023 0.46483 0.61781 0.0
C2346 C 0.43046 0.48482 0.6218 0.0
C2347 C 0.4269 0.49679 0.60323 0.0
N2348 N 0.43055 0.52021 0.55994 0.0
C2349 C 0.44095 0.52787 0.57804 0.0
C2350 C 0.45786 0.5435 0.57348 0.0
C2351 C 0.45797 0.54562 0.55118 0.0
C2352 C 0.44107 0.53115 0.54327 0.0
N2353 N 0.38217 0.51608 0.57285 0.0
C2354 C 0.35194 0.5449 0.59713 0.0
C2355 C 0.36717 0.55244 0.5805 0.0
C2356 C 0.38169 0.53791 0.56846 0.0
C2357 C 0.35177 0.52232 0.60066 0.0
C2358 C 0.36703 0.50838 0.58866 0.0
N2359 N 0.4315 0.47771 0.54572 0.0
C2360 C 0.47253 0.46486 0.5465 0.0
C2361 C 0.46951 0.45337 0.52708 0.0
C2362 C 0.44668 0.45431 0.51723 0.0
C2363 C 0.42793 0.46642 0.52685 0.0
C2364 C 0.45358 0.47678 0.55541 0.0
H2365 H 0.41065 0.46684 0.51896 0.0
H2366 H 0.45713 0.48562 0.57009 0.0
H2367 H 0.39305 0.54453 0.55591 0.0
H2368 H 0.36699 0.49134 0.59269 0.0
C2369 C 0.36103 0.48794 0.52729 0.0
C2370 C 0.43451 0.52848 0.52009 0.0
C2371 C 0.39727 0.44795 0.58643 0.0
C2372 C 0.43801 0.51671 0.59789 0.0
H2373 H 0.4032 0.53282 0.4828 0.0
H2374 H 0.36158 0.51227 0.48757 0.0
H2375 H 0.33404 0.44955 0.5374 0.0
H2376 H 0.35542 0.42672 0.56844 0.0
H2377 H 0.41975 0.45123 0.62891 0.0
H2378 H 0.44028 0.48963 0.63616 0.0
H2379 H 0.46971 0.55151 0.58485 0.0
H2380 H 0.46934 0.55635 0.54185 0.0
H2381 H 0.36789 0.56959 0.57673 0.0
H2382 H 0.34052 0.51547 0.61323 0.0
H2383 H 0.4897 0.46512 0.55468 0.0
H2384 H 0.44321 0.44559 0.50231 0.0
C2385 C 0.79294 0.13193 0.13915 0.0
C2386 C 0.80553 0.13812 0.12069 0.0
C2387 C 0.80411 0.16014 0.1194 0.0
C2388 C 0.79038 0.16625 0.13676 0.0
N2389 N 0.78271 0.14953 0.14906 0.0
Co2390 Co 0.76052 0.15208 0.17468 0.0
N2391 N 0.75369 0.18361 0.1688 0.0
C2392 C 0.76525 0.1961 0.15422 0.0
C2393 C 0.75737 0.21712 0.15357 0.0
C2394 C 0.73988 0.21828 0.16897 0.0
C2395 C 0.73796 0.19774 0.17816 0.0
N2396 N 0.73892 0.15472 0.20046 0.0
C2397 C 0.72582 0.17184 0.20809 0.0
C2398 C 0.71504 0.16674 0.22773 0.0
C2399 C 0.72208 0.14608 0.23289 0.0
C2400 C 0.7366 0.13961 0.21612 0.0
N2401 N 0.76713 0.12026 0.17966 0.0
C2402 C 0.7613 0.10932 0.19787 0.0
C2403 C 0.76862 0.08807 0.19764 0.0
C2404 C 0.78008 0.08532 0.17816 0.0
C2405 C 0.77909 0.10509 0.16741 0.0
N2406 N 0.78736 0.16007 0.19465 0.0
C2407 C 0.80279 0.16309 0.23811 0.0
C2408 C 0.80922 0.1452 0.22521 0.0
C2409 C 0.80195 0.14434 0.20329 0.0
C2410 C 0.79263 0.18091 0.22755 0.0
C2411 C 0.78574 0.1793 0.20583 0.0
N2412 N 0.73242 0.14429 0.15663 0.0
C2413 C 0.69434 0.12568 0.15573 0.0
C2414 C 0.68586 0.13931 0.13932 0.0
C2415 C 0.7018 0.15471 0.13071 0.0
C2416 C 0.72517 0.15662 0.13928 0.0
C2417 C 0.71732 0.12847 0.16412 0.0
H2418 H 0.73685 0.16873 0.13246 0.0
H2419 H 0.72201 0.1185 0.17767 0.0
H2420 H 0.80645 0.13003 0.19411 0.0
H2421 H 0.7772 0.19333 0.19921 0.0
C2422 C 0.7821 0.18718 0.14031 0.0
C2423 C 0.792 0.1092 0.14677 0.0
C2424 C 0.72403 0.1935 0.19794 0.0
C2425 C 0.7477 0.11932 0.21415 0.0
H2426 H 0.81464 0.12787 0.1091 0.0
H2427 H 0.81145 0.17042 0.10681 0.0
H2428 H 0.76365 0.23009 0.14318 0.0
H2429 H 0.73043 0.23292 0.17346 0.0
H2430 H 0.70364 0.17703 0.23751 0.0
H2431 H 0.71724 0.13691 0.24721 0.0
H2432 H 0.76597 0.07598 0.21015 0.0
H2433 H 0.78878 0.07059 0.17278 0.0
H2434 H 0.81841 0.13141 0.23222 0.0
H2435 H 0.78899 0.19582 0.23625 0.0
H2436 H 0.68277 0.1136 0.16305 0.0
H2437 H 0.69617 0.16538 0.11771 0.0
C2438 C 0.61126 0.02162 1.00794 0.0
C2439 C 0.62468 0.02465 0.02668 0.0
C2440 C 0.64579 0.01362 0.02378 0.0
C2441 C 0.6441 1.00437 1.00357 0.0
N2442 N 0.62323 1.0089 0.99362 0.0
Co2443 Co 0.61343 0.99828 0.96459 0.0
N2444 N 0.63664 0.97397 0.96575 0.0
C2445 C 0.65608 0.97302 0.97864 0.0
C2446 C 0.66909 0.95432 0.97583 0.0
C2447 C 0.65713 0.94286 0.96011 0.0
C2448 C 0.63738 0.95525 0.9542 0.0
N2449 N 0.60409 0.98756 0.93549 0.0
C2450 C 0.60768 0.96778 0.92616 0.0
C2451 C 0.59807 0.96737 0.90543 0.0
C2452 C 0.5883 0.9876 0.90177 0.0
C2453 C 0.59245 0.99931 0.92042 0.0
N2454 N 0.59008 0.02244 0.96399 0.0
C2455 C 0.57963 0.03045 0.94606 0.0
C2456 C 0.56357 0.04673 0.95085 0.0
C2457 C 0.5641 0.04896 0.97313 0.0
C2458 C 0.58044 0.03385 0.9808 0.0
N2459 N 0.63811 0.01744 0.95046 0.0
C2460 C 0.66828 0.04611 0.92597 0.0
C2461 C 0.65359 0.05367 0.94296 0.0
C2462 C 0.63912 0.0392 0.95511 0.0
C2463 C 0.66803 0.02357 0.9222 0.0
C2464 C 0.65278 1.00969 0.93431 0.0
N2465 N 0.58817 0.97979 0.97776 0.0
C2466 C 0.54685 0.96765 0.97701 0.0
C2467 C 0.54978 0.95559 0.99608 0.0
C2468 C 0.57271 0.95596 1.0058 0.0
C2469 C 0.59164 0.96802 0.99635 0.0
C2470 C 0.56596 0.97949 0.96827 0.0
H2471 H 0.609 0.96797 1.00412 0.0
H2472 H 0.56245 0.98871 0.95382 0.0
H2473 H 0.62818 0.04585 0.96794 0.0
H2474 H 0.6524 0.9927 0.93008 0.0
C2475 C 0.65908 0.988 0.99552 0.0
C2476 C 0.58777 0.03164 1.00381 0.0
C2477 C 0.62105 0.94966 0.93631 0.0
C2478 C 0.58197 0.01941 0.92608 0.0
H2479 H 0.61973 0.03367 0.04105 0.0
H2480 H 0.66005 0.01159 0.03552 0.0
H2481 H 0.68487 0.94923 0.98468 0.0
H2482 H 0.66249 0.9273 0.95359 0.0
H2483 H 0.59804 0.95388 0.89419 0.0
H2484 H 0.57841 0.99278 0.88758 0.0
H2485 H 0.552 0.05527 0.93964 0.0
H2486 H 0.5537 0.06033 0.98264 0.0
H2487 H 0.65322 0.07079 0.94691 0.0
H2488 H 0.67889 0.01673 0.90935 0.0
H2489 H 0.52962 0.9684 0.96895 0.0
H2490 H 0.57613 0.94681 0.02047 0.0
C2491 C 0.89994 0.99683 0.50443 0.0
C2492 C 0.88226 0.98772 0.51749 0.0
C2493 C 0.86168 0.99946 0.51416 0.0
C2494 C 0.86748 0.01425 0.49839 0.0
N2495 N 0.89029 0.0124 0.4916 0.0
Co2496 Co 0.90167 0.02386 0.46352 0.0
N2497 N 0.87859 0.04814 0.46466 0.0
C2498 C 0.85809 0.04815 0.47613 0.0
C2499 C 0.8451 0.06689 0.47343 0.0
C2500 C 0.85822 0.07928 0.4592 0.0
C2501 C 0.87853 0.06733 0.45392 0.0
N2502 N 0.91221 0.03533 0.43515 0.0
C2503 C 0.90913 0.0554 0.42632 0.0
C2504 C 0.91932 0.05621 0.40582 0.0
C2505 C 0.92884 0.03592 0.40181 0.0
C2506 C 0.92398 0.02377 0.42004 0.0
N2507 N 0.92487 0.99962 0.46308 0.0
C2508 C 0.93495 0.99151 0.44505 0.0
C2509 C 0.94911 0.97379 0.44947 0.0
C2510 C 0.94775 0.97082 0.47165 0.0
C2511 C 0.93336 0.98731 0.47982 0.0
N2512 N 0.87736 1.00517 0.44805 0.0
C2513 C 0.84624 0.97755 0.42329 0.0
C2514 C 0.86091 0.96936 0.43992 0.0
C2515 C 0.8759 0.98329 0.45218 0.0
C2516 C 0.84723 1.0001 0.41972 0.0
C2517 C 0.86294 0.01346 0.43198 0.0
N2518 N 0.92661 0.04186 0.47794 0.0
C2519 C 0.96785 0.05434 0.47783 0.0
C2520 C 0.96435 0.06677 0.49657 0.0
C2521 C 0.94124 0.06616 0.506 0.0
C2522 C 0.92262 0.05371 0.49639 0.0
C2523 C 0.94909 0.04215 0.46896 0.0
H2524 H 0.90505 0.05366 0.5038 0.0
H2525 H 0.95303 0.03279 0.45468 0.0
H2526 H 0.88669 0.97611 0.4648 0.0
H2527 H 0.86371 0.03053 0.42808 0.0
C2528 C 0.85299 0.03121 0.49068 0.0
C2529 C 0.92506 0.98929 0.50279 0.0
C2530 C 0.89551 0.07334 0.43662 0.0
C2531 C 0.93349 1.00313 0.42529 0.0
H2532 H 0.88373 0.97363 0.52787 0.0
H2533 H 0.84454 0.99728 0.52208 0.0
H2534 H 0.82827 0.07115 0.48104 0.0
H2535 H 0.85299 0.09495 0.45287 0.0
H2536 H 0.9198 0.06996 0.39491 0.0
H2537 H 0.93889 0.03094 0.38765 0.0
H2538 H 0.95953 0.96435 0.43806 0.0
H2539 H 0.9558 0.95756 0.48053 0.0
H2540 H 0.86083 0.95215 0.44351 0.0
H2541 H 0.83638 1.00734 0.40708 0.0
H2542 H 0.98524 0.05368 0.47005 0.0
H2543 H 0.93742 0.07548 0.52047 0.0
C2544 C 0.14472 0.22668 0.50278 0.0
C2545 C 0.11952 0.22514 0.50413 0.0
H2546 H 0.17531 0.24153 0.48742 0.0
C2547 C 0.10592 0.23871 0.49043 0.0
H2548 H 0.15587 0.21645 0.51289 0.0
C2549 C 0.11711 0.25346 0.47611 0.0
C2550 C 0.14232 0.25478 0.47454 0.0
H2551 H 0.08653 0.23809 0.49095 0.0
H2552 H 0.10597 0.26361 0.46591 0.0
C2553 C 0.15592 0.24103 0.48805 0.0
C2554 C 0.05935 0.8635 0.71442 0.0
C2555 C 0.08372 0.8586 0.71039 0.0
H2556 H 0.0266 0.87823 0.7028 0.0
C2557 C 0.09374 0.867 0.69111 0.0
H2558 H 0.05081 0.85745 0.72899 0.0
C2559 C 0.08002 0.87955 0.67642 0.0
C2560 C 0.05539 0.88369 0.67992 0.0
H2561 H 0.11243 0.86402 0.68741 0.0
H2562 H 0.08866 0.88571 0.66195 0.0
C2563 C 0.0454 0.87557 0.69937 0.0
C2564 C 0.389 0.7774 1.00937 0.0
C2565 C 0.39483 0.79878 1.00299 0.0
H2566 H 0.37386 0.74652 1.00054 0.0
C2567 C 0.38903 0.80486 0.98154 0.0
H2568 H 0.3932 0.77186 0.02559 0.0
C2569 C 0.37786 0.79026 0.9671 0.0
C2570 C 0.37212 0.76885 0.97341 0.0
H2571 H 0.39282 0.82114 0.97588 0.0
H2572 H 0.37404 0.79575 0.95078 0.0
C2573 C 0.37801 0.7627 0.99483 0.0
C2574 C 0.42171 0.15348 0.19257 0.0
C2575 C 0.43191 0.16191 0.21176 0.0
H2576 H 0.42654 0.13488 0.16332 0.0
C2577 C 0.45634 0.15702 0.21559 0.0
H2578 H 0.40298 0.15642 0.18903 0.0
C2579 C 0.47017 0.14502 0.20037 0.0
C2580 C 0.46003 0.13702 0.18094 0.0
H2581 H 0.465 0.16306 0.23011 0.0
H2582 H 0.48902 0.14239 0.20362 0.0
C2583 C 0.43532 0.14102 0.17773 0.0
C2584 C 0.13904 0.79112 0.05406 0.0
C2585 C 0.14505 0.76972 0.04797 0.0
H2586 H 0.12386 0.82179 0.04491 0.0
C2587 C 0.1394 0.76332 0.02656 0.0
H2588 H 0.14268 0.79679 0.07035 0.0
C2589 C 0.12837 0.77779 0.01184 0.0
C2590 C 0.12228 0.79917 0.01799 0.0
H2591 H 0.14377 0.74713 0.02102 0.0
H2592 H 0.12435 0.77207 0.99563 0.0
C2593 C 0.12784 0.8055 0.03942 0.0
C2594 C 0.43874 0.88686 0.34062 0.0
C2595 C 0.46404 0.88525 0.34083 0.0
H2596 H 0.40517 0.87607 0.32691 0.0
C2597 C 0.47444 0.87114 0.32535 0.0
H2598 H 0.42985 0.89729 0.35225 0.0
C2599 C 0.46018 0.8593 0.31035 0.0
C2600 C 0.4349 0.8605 0.31067 0.0
H2601 H 0.49366 0.86873 0.3252 0.0
H2602 H 0.46896 0.84862 0.29888 0.0
C2603 C 0.42449 0.87456 0.32609 0.0
C2604 C 0.3787 0.25988 0.52591 0.0
C2605 C 0.37278 0.2536 0.54729 0.0
H2606 H 0.39386 0.2508 0.4951 0.0
C2607 C 0.37849 0.23219 0.55354 0.0
H2608 H 0.37457 0.2761 0.5203 0.0
C2609 C 0.38969 0.21766 0.53907 0.0
C2610 C 0.39548 0.22385 0.51766 0.0
H2611 H 0.37461 0.22664 0.56983 0.0
H2612 H 0.3935 0.20137 0.54466 0.0
C2613 C 0.38967 0.24523 0.51132 0.0
C2614 C 0.09563 0.15333 0.8298 0.0
C2615 C 0.08519 0.16209 0.81087 0.0
H2616 H 0.09106 0.13443 0.8589 0.0
C2617 C 0.06063 0.15756 0.80736 0.0
H2618 H 0.11447 0.15598 0.83307 0.0
C2619 C 0.0469 0.14556 0.82264 0.0
C2620 C 0.05729 0.13722 0.84181 0.0
H2621 H 0.05179 0.16386 0.79304 0.0
H2622 H 0.02796 0.14317 0.81964 0.0
C2623 C 0.0821 0.14086 0.8447 0.0
C2624 C 0.22126 0.45117 0.12952 0.0
C2625 C 0.21096 0.43197 0.13791 0.0
H2626 H 0.21614 0.48071 0.11116 0.0
C2627 C 0.18612 0.42905 0.13452 0.0
H2628 H 0.24022 0.45416 0.13172 0.0
C2629 C 0.17247 0.44391 0.12218 0.0
C2630 C 0.18282 0.46282 0.11327 0.0
H2631 H 0.17728 0.4148 0.14098 0.0
H2632 H 0.15362 0.44058 0.11962 0.0
C2633 C 0.20739 0.46641 0.11761 0.0
C2634 C 0.6863 0.09553 0.89092 0.0
C2635 C 0.71103 0.09239 0.88701 0.0
H2636 H 0.65399 0.08422 0.90636 0.0
C2637 C 0.72127 0.07308 0.89519 0.0
H2638 H 0.67745 0.10985 0.88463 0.0
C2639 C 0.7075 0.05792 0.90729 0.0
C2640 C 0.68305 0.06169 0.91209 0.0
H2641 H 0.74015 0.0699 0.89261 0.0
H2642 H 0.71622 0.04349 0.91346 0.0
C2643 C 0.67275 0.08075 0.90348 0.0
C2644 C 0.82679 0.93289 0.38292 0.0
C2645 C 0.80154 0.93235 0.38495 0.0
H2646 H 0.86034 0.94688 0.39337 0.0
C2647 C 0.79116 0.94754 0.39937 0.0
H2648 H 0.83565 0.92145 0.37226 0.0
C2649 C 0.80542 0.96255 0.41119 0.0
C2650 C 0.83067 0.96257 0.40956 0.0
H2651 H 0.77199 0.94742 0.40206 0.0
H2652 H 0.79669 0.97373 0.42221 0.0
C2653 C 0.84104 0.94748 0.39513 0.0
C2654 C 0.81015 0.05728 0.11479 0.0
C2655 C 0.83467 0.06084 0.11015 0.0
H2656 H 0.77756 0.06948 0.12941 0.0
C2657 C 0.84517 0.07971 0.11898 0.0
H2658 H 0.80128 0.04299 0.10845 0.0
C2659 C 0.83173 0.09452 0.13161 0.0
C2660 C 0.80693 0.09162 0.13533 0.0
H2661 H 0.86399 0.08301 0.11622 0.0
H2662 H 0.84072 0.1087 0.13806 0.0
C2663 C 0.79649 0.07249 0.12695 0.0
C2664 C 0.29868 0.57147 0.62792 0.0
C2665 C 0.30865 0.59098 0.63588 0.0
H2666 H 0.30408 0.54183 0.60984 0.0
C2667 C 0.33329 0.59446 0.63178 0.0
H2668 H 0.27988 0.56805 0.63064 0.0
C2669 C 0.34702 0.57975 0.61928 0.0
C2670 C 0.33698 0.56047 0.61089 0.0
H2671 H 0.34191 0.60898 0.63788 0.0
H2672 H 0.3657 0.58346 0.6163 0.0
C2673 C 0.31262 0.55642 0.61585 0.0
C2674 C 0.22582 0.57513 0.39935 0.0
C2675 C 0.2155 0.59166 0.38644 0.0
H2676 H 0.22016 0.54779 0.42077 0.0
C2677 C 0.19018 0.59245 0.3858 0.0
H2678 H 0.2451 0.57419 0.40104 0.0
C2679 C 0.17585 0.57783 0.3979 0.0
C2680 C 0.18616 0.56134 0.41075 0.0
H2681 H 0.18136 0.60491 0.37632 0.0
H2682 H 0.15654 0.57946 0.39723 0.0
C2683 C 0.21144 0.56005 0.41096 0.0
C2684 C 0.30659 0.46139 0.91274 0.0
C2685 C 0.33187 0.46167 0.9116 0.0
H2686 H 0.27357 0.44616 0.9026 0.0
C2687 C 0.34278 0.447 0.89708 0.0
H2688 H 0.29746 0.47231 0.92374 0.0
C2689 C 0.329 0.43253 0.88429 0.0
C2690 C 0.30373 0.4317 0.88585 0.0
H2691 H 0.36212 0.44668 0.89562 0.0
H2692 H 0.33824 0.42141 0.87355 0.0
C2693 C 0.29281 0.44649 0.90035 0.0
C2694 C 0.62599 0.71806 0.98223 0.0
C2695 C 0.61989 0.7242 1.00359 0.0
H2696 H 0.64134 0.72713 0.9516 0.0
C2697 C 0.62542 0.74565 1.00993 0.0
H2698 H 0.62243 0.70173 0.97661 0.0
C2699 C 0.63645 0.76037 0.99544 0.0
C2700 C 0.6427 0.75414 0.97413 0.0
H2701 H 0.62098 0.75123 0.02609 0.0
H2702 H 0.64038 0.77662 1.0011 0.0
C2703 C 0.63723 0.73267 0.96785 0.0
C2704 C 0.59521 0.36883 0.19182 0.0
C2705 C 0.58486 0.36021 0.21085 0.0
H2706 H 0.59057 0.38765 0.16268 0.0
C2707 C 0.56038 0.36493 0.21452 0.0
H2708 H 0.614 0.36601 0.18842 0.0
C2709 C 0.54662 0.37695 0.19928 0.0
C2710 C 0.5569 0.38513 0.17999 0.0
H2711 H 0.55162 0.35874 0.22893 0.0
H2712 H 0.52772 0.37947 0.2024 0.0
C2713 C 0.58167 0.38133 0.17697 0.0
C2714 C 0.89147 0.30525 0.48146 0.0
C2715 C 0.89731 0.29904 0.50287 0.0
H2716 H 0.87625 0.29638 0.45071 0.0
C2717 C 0.89137 0.27765 0.50915 0.0
H2718 H 0.89533 0.32154 0.47588 0.0
C2719 C 0.8802 0.26309 0.49458 0.0
C2720 C 0.87425 0.26938 0.4732 0.0
H2721 H 0.89559 0.272 0.52533 0.0
H2722 H 0.87596 0.24691 0.50023 0.0
C2723 C 0.88012 0.29078 0.46699 0.0
C2724 C 0.92071 0.65447 0.69155 0.0
C2725 C 0.93073 0.66254 0.71098 0.0
H2726 H 0.92571 0.63606 0.66219 0.0
C2727 C 0.955 0.65729 0.71508 0.0
H2728 H 0.90208 0.65768 0.68779 0.0
C2729 C 0.96885 0.6452 0.69997 0.0
C2730 C 0.95888 0.63747 0.68037 0.0
H2731 H 0.96355 0.66307 0.72976 0.0
H2732 H 0.98758 0.64221 0.70348 0.0
C2733 C 0.93435 0.64195 0.67679 0.0
C2734 C 0.62987 0.30386 0.53948 0.0
C2735 C 0.62441 0.29766 0.51799 0.0
H2736 H 0.64461 0.29495 0.57039 0.0
C2737 C 0.63056 0.27635 0.51168 0.0
H2738 H 0.62582 0.32011 0.54506 0.0
C2739 C 0.64152 0.26178 0.52636 0.0
C2740 C 0.64706 0.26805 0.54782 0.0
H2741 H 0.62663 0.27076 0.49542 0.0
H2742 H 0.64591 0.24562 0.52074 0.0
C2743 C 0.64103 0.2894 0.55404 0.0
C2744 C 0.92385 0.36826 0.82978 0.0
C2745 C 0.93418 0.3598 0.81067 0.0
H2746 H 0.9285 0.38705 0.85895 0.0
C2747 C 0.9586 0.36467 0.8069 0.0
H2748 H 0.90511 0.36529 0.83326 0.0
C2749 C 0.97231 0.37679 0.82208 0.0
C2750 C 0.96202 0.38497 0.84137 0.0
H2751 H 0.96735 0.35856 0.79246 0.0
H2752 H 0.99117 0.37944 0.81888 0.0
C2753 C 0.93735 0.38085 0.84459 0.0
C2754 C 0.8792 0.73327 0.05402 0.0
C2755 C 0.87334 0.7547 0.04793 0.0
H2756 H 0.8947 0.70267 0.04503 0.0
C2757 C 0.87955 0.76124 0.0267 0.0
H2758 H 0.87512 0.72752 0.07021 0.0
C2759 C 0.89096 0.74686 0.01212 0.0
C2760 C 0.89691 0.72545 0.01828 0.0
H2761 H 0.87531 0.77747 0.02117 0.0
H2762 H 0.89536 0.75266 0.99602 0.0
C2763 C 0.89082 0.719 0.03956 0.0
C2764 C 0.54402 0.65059 0.32576 0.0
C2765 C 0.55473 0.63638 0.34097 0.0
H2766 H 0.54899 0.67341 0.29947 0.0
C2767 C 0.58003 0.63493 0.34047 0.0
H2768 H 0.52478 0.65286 0.32582 0.0
C2769 C 0.594 0.64747 0.32592 0.0
C2770 C 0.58329 0.66162 0.31077 0.0
H2771 H 0.58915 0.62442 0.35189 0.0
H2772 H 0.61334 0.64606 0.32651 0.0
C2773 C 0.55799 0.66268 0.31073 0.0
C2774 C 0.72303 0.94699 0.62164 0.0
C2775 C 0.71234 0.93203 0.6361 0.0
H2776 H 0.718 0.9729 0.59841 0.0
C2777 C 0.68707 0.9326 0.63773 0.0
H2778 H 0.74227 0.94685 0.6193 0.0
C2779 C 0.67307 0.94697 0.62503 0.0
C2780 C 0.68376 0.96182 0.61056 0.0
H2781 H 0.67799 0.92135 0.64844 0.0
H2782 H 0.65374 0.94645 0.62654 0.0
C2783 C 0.70904 0.96182 0.60937 0.0
C2784 C 0.22945 0.35081 0.2769 0.0
C2785 C 0.21148 0.36007 0.26369 0.0
H2786 H 0.23997 0.34058 0.30883 0.0
C2787 C 0.19082 0.36829 0.2738 0.0
H2788 H 0.24587 0.34473 0.26976 0.0
C2789 C 0.18757 0.36606 0.29629 0.0
C2790 C 0.20499 0.35576 0.30932 0.0
H2791 H 0.17668 0.3756 0.26424 0.0
H2792 H 0.171 0.37178 0.30343 0.0
C2793 C 0.22628 0.34873 0.2994 0.0
C2794 C 0.9292 0.98165 0.54399 0.0
C2795 C 0.93942 0.98194 0.52288 0.0
H2796 H 0.93134 0.97062 0.577 0.0
C2797 C 0.96381 0.97577 0.52168 0.0
H2798 H 0.91216 0.98899 0.54746 0.0
C2799 C 0.976 0.9671 0.53983 0.0
C2800 C 0.96427 0.96395 0.55988 0.0
H2801 H 0.97387 0.97782 0.50686 0.0
H2802 H 0.99458 0.96233 0.53799 0.0
C2803 C 0.94085 0.97193 0.56174 0.0
C2804 C 0.33048 0.65706 0.79471 0.0
C2805 C 0.31293 0.6673 0.80765 0.0
H2806 H 0.34174 0.64769 0.76272 0.0
C2807 C 0.29181 0.67449 0.79753 0.0
H2808 H 0.34693 0.65119 0.80197 0.0
C2809 C 0.28891 0.67256 0.77499 0.0
C2810 C 0.30698 0.6633 0.76189 0.0
H2811 H 0.27802 0.6826 0.80688 0.0
H2812 H 0.27257 0.67868 0.76773 0.0
C2813 C 0.32751 0.65499 0.77217 0.0
C2814 C 0.55553 0.03345 0.03278 0.0
C2815 C 0.57503 0.04319 0.02205 0.0
H2816 H 0.53006 0.03541 0.05905 0.0
C2817 C 0.584 0.06287 0.03036 0.0
H2818 H 0.54841 0.01817 0.02694 0.0
C2819 C 0.57397 0.07241 0.04903 0.0
C2820 C 0.55448 0.06269 0.05983 0.0
H2821 H 0.59916 0.07065 0.02262 0.0
H2822 H 0.5813 0.08757 0.05496 0.0
C2823 C 0.54529 0.04313 0.05136 0.0
C2824 C 0.19224 0.68106 0.23258 0.0
C2825 C 0.20582 0.67178 0.21557 0.0
H2826 H 0.18486 0.68287 0.26647 0.0
C2827 C 0.22442 0.65751 0.22141 0.0
H2828 H 0.17829 0.69279 0.22931 0.0
C2829 C 0.2291 0.65265 0.24329 0.0
C2830 C 0.21498 0.66141 0.26026 0.0
H2831 H 0.23541 0.64987 0.20914 0.0
H2832 H 0.24416 0.64216 0.24673 0.0
C2833 C 0.19643 0.6757 0.25436 0.0
C2834 C 0.57025 0.96024 0.49792 0.0
C2835 C 0.57096 0.98277 0.50139 0.0
H2836 H 0.55898 0.93408 0.47717 0.0
C2837 C 0.56052 0.99637 0.4856 0.0
H2838 H 0.57877 0.94936 0.50938 0.0
C2839 C 0.54914 0.98763 0.46711 0.0
C2840 C 0.54824 0.96506 0.46374 0.0
H2841 H 0.5613 0.01383 0.48755 0.0
H2842 H 0.54096 0.99851 0.45546 0.0
C2843 C 0.55915 0.95152 0.47934 0.0
C2844 C 0.30635 0.37335 0.71999 0.0
C2845 C 0.31043 0.35177 0.71375 0.0
H2846 H 0.30034 0.3956 0.74608 0.0
C2847 C 0.31061 0.33564 0.72991 0.0
H2848 H 0.30656 0.38617 0.70796 0.0
C2849 C 0.30668 0.34088 0.75176 0.0
C2850 C 0.30281 0.36252 0.75826 0.0
H2851 H 0.31372 0.31883 0.72558 0.0
H2852 H 0.30626 0.32781 0.76348 0.0
C2853 C 0.30282 0.37869 0.74195 0.0
C2854 C 0.96149 0.03331 0.98905 0.0
C2855 C 0.94216 0.04294 1.00012 0.0
H2856 H 0.98665 0.03561 0.96258 0.0
C2857 C 0.93319 0.06279 0.99224 0.0
H2858 H 0.96859 0.01791 0.99455 0.0
C2859 C 0.94306 0.07261 0.97364 0.0
C2860 C 0.96237 0.063 0.96249 0.0
H2861 H 0.91814 0.07049 1.00025 0.0
H2862 H 0.93574 0.08789 0.96803 0.0
C2863 C 0.97156 0.04327 0.97055 0.0
C2864 C 0.26157 0.24225 0.34199 0.0
C2865 C 0.27839 0.2558 0.33142 0.0
H2866 H 0.23045 0.23998 0.36253 0.0
C2867 C 0.27482 0.2784 0.33295 0.0
H2868 H 0.26374 0.2248 0.34167 0.0
C2869 C 0.25535 0.28706 0.34472 0.0
C2870 C 0.23874 0.27348 0.35536 0.0
H2871 H 0.28705 0.28948 0.32498 0.0
H2872 H 0.25354 0.30453 0.34592 0.0
C2873 C 0.24219 0.25094 0.35384 0.0
C2874 C 0.06585 0.01852 0.58433 0.0
C2875 C 0.0558 1.01037 0.60358 0.0
H2876 H 0.07608 0.04636 0.56589 0.0
C2877 C 0.048 0.02539 0.61938 0.0
H2878 H 0.07221 1.00763 0.5718 0.0
C2879 C 0.0504 0.04793 0.61602 0.0
C2880 C 0.06085 0.05592 0.59685 0.0
H2881 H 0.03976 0.01975 0.63426 0.0
H2882 H 0.04461 0.05904 0.62858 0.0
C2883 C 0.06822 0.04085 0.58099 0.0
C2884 C 0.24211 0.74325 0.8308 0.0
C2885 C 0.23825 0.76582 0.82945 0.0
H2886 H 0.2637 0.71729 0.84365 0.0
C2887 C 0.25491 0.77951 0.84004 0.0
H2888 H 0.23001 0.7321 0.82278 0.0
C2889 C 0.27439 0.77097 0.85182 0.0
C2890 C 0.27809 0.74845 0.85323 0.0
H2891 H 0.2525 0.79694 0.83981 0.0
H2892 H 0.286 0.782 0.86059 0.0
C2893 C 0.26169 0.73474 0.8425 0.0
C2894 C 0.47908 0.9975 0.09909 0.0
C2895 C 0.46115 1.01062 0.10854 0.0
H2896 H 0.4897 0.96564 0.08872 0.0
C2897 C 0.44056 1.00038 0.11679 0.0
H2898 H 0.49545 1.00473 0.09297 0.0
C2899 C 0.4374 0.97787 0.11448 0.0
C2900 C 0.45483 0.96493 0.10408 0.0
H2901 H 0.42644 1.00985 0.12423 0.0
H2902 H 0.42091 0.97065 0.1203 0.0
C2903 C 0.476 0.97499 0.09695 0.0
C2904 C 0.27516 0.74617 0.19078 0.0
C2905 C 0.27892 0.76876 0.19199 0.0
H2906 H 0.25376 0.72002 0.17804 0.0
C2907 C 0.26222 0.7823 0.18127 0.0
H2908 H 0.28728 0.73511 0.1989 0.0
C2909 C 0.24279 0.7736 0.16953 0.0
C2910 C 0.23922 0.75106 0.16825 0.0
H2911 H 0.26454 0.79974 0.18136 0.0
H2912 H 0.23113 0.78451 0.16069 0.0
C2913 C 0.25567 0.73749 0.17908 0.0
C2914 C 0.45996 0.01899 0.42977 0.0
C2915 C 0.46437 0.01266 0.40817 0.0
H2916 H 0.45258 0.045 0.45191 0.0
C2917 C 0.46496 0.02911 0.39216 0.0
H2918 H 0.45995 1.00716 0.44275 0.0
C2919 C 0.46144 0.05105 0.39762 0.0
C2920 C 0.45679 0.05712 0.41916 0.0
H2921 H 0.46791 0.02511 0.37528 0.0
H2922 H 0.46169 0.06319 0.38491 0.0
C2923 C 0.45607 0.04081 0.43513 0.0
C2924 C 0.24238 0.27707 0.68971 0.0
C2925 C 0.23817 0.25453 0.69038 0.0
H2926 H 0.26426 0.30312 0.67746 0.0
C2927 C 0.25438 0.24094 0.67915 0.0
H2928 H 0.23061 0.28812 0.69825 0.0
C2929 C 0.27383 0.24957 0.66743 0.0
C2930 C 0.27791 0.27205 0.66675 0.0
H2931 H 0.25166 0.22355 0.67885 0.0
H2932 H 0.28513 0.23867 0.65819 0.0
C2933 C 0.26192 0.28567 0.67806 0.0
C2934 C 0.0801 0.97787 0.90649 0.0
C2935 C 0.06259 0.96463 0.91641 0.0
H2936 H 0.09102 1.01009 0.89754 0.0
C2937 C 0.04118 0.97441 0.92334 0.0
H2938 H 0.09677 0.97086 0.90081 0.0
C2939 C 0.03796 0.99693 0.92154 0.0
C2940 C 0.056 1.01033 0.91267 0.0
H2941 H 0.0274 0.96484 0.9312 0.0
H2942 H 0.02141 1.00393 0.9275 0.0
C2943 C 0.07681 1.00039 0.90455 0.0
C2944 C 0.29503 0.3015 0.23061 0.0
C2945 C 0.30427 0.30978 0.21099 0.0
H2946 H 0.2979 0.27719 0.25566 0.0
C2947 C 0.32354 0.29871 0.20123 0.0
H2948 H 0.27996 0.30943 0.23836 0.0
C2949 C 0.33332 0.27997 0.21081 0.0
C2950 C 0.32432 0.27188 0.23056 0.0
H2951 H 0.33089 0.3045 0.18603 0.0
H2952 H 0.34835 0.27201 0.20302 0.0
C2953 C 0.30502 0.28286 0.24033 0.0
C2954 C 0.82477 0.2239 0.82163 0.0
C2955 C 0.80529 0.21303 0.81198 0.0
H2956 H 0.85002 0.25025 0.81965 0.0
C2957 C 0.79616 0.22132 0.79232 0.0
H2958 H 0.83205 0.2181 0.83685 0.0
C2959 C 0.80645 0.23978 0.78248 0.0
C2960 C 0.82596 0.25056 0.79214 0.0
H2961 H 0.78093 0.21357 0.78464 0.0
H2962 H 0.79939 0.24547 0.76712 0.0
C2963 C 0.83486 0.24245 0.81192 0.0
C2964 C 1.00738 0.59412 0.98487 0.0
C2965 C 0.99122 0.60508 0.99867 0.0
H2966 H 0.03883 0.57408 0.9821 0.0
C2967 C 0.99524 0.60388 0.02114 0.0
H2968 H 1.00515 0.59514 0.96744 0.0
C2969 C 0.01469 0.59199 0.02956 0.0
C2970 C 0.03103 0.58107 0.01581 0.0
H2971 H 0.98389 0.61285 0.03221 0.0
H2972 H 0.0173 0.59188 0.04697 0.0
C2973 C 0.02695 0.58232 0.99328 0.0
C2974 C 0.7063 0.78633 0.27491 0.0
C2975 C 0.6958 0.77062 0.28855 0.0
H2976 H 0.72575 0.81654 0.27269 0.0
C2977 C 0.69624 0.77427 0.31106 0.0
H2978 H 0.7057 0.78425 0.25747 0.0
C2979 C 0.70716 0.79297 0.31971 0.0
C2980 C 0.71813 0.8085 0.30613 0.0
H2981 H 0.68766 0.76287 0.32195 0.0
H2982 H 0.70713 0.79529 0.33714 0.0
C2983 C 0.7175 0.80494 0.28359 0.0
C2984 C 0.02431 0.91989 0.02042 0.0
C2985 C 0.02796 0.91879 0.99788 0.0
H2986 H 1.00248 0.93155 0.04659 0.0
C2987 C 0.01152 0.92968 0.98434 0.0
H2988 H 0.03595 0.91099 0.03131 0.0
C2989 C 0.99196 0.94126 0.99305 0.0
C2990 C 0.98817 0.94233 0.01564 0.0
H2991 H 0.0135 0.92877 0.96688 0.0
H2992 H 0.97984 0.94943 0.98203 0.0
C2993 C 1.00485 0.93155 0.02915 0.0
C2994 C 0.22247 0.72003 0.72965 0.0
C2995 C 0.21319 0.71123 0.71028 0.0
H2996 H 0.2193 0.74471 0.75434 0.0
C2997 C 0.19346 0.72169 0.70061 0.0
H2998 H 0.2379 0.71261 0.73732 0.0
C2999 C 0.1833 0.74037 0.70999 0.0
C3000 C 0.19235 0.749 0.7295 0.0
H3001 H 0.18607 0.71552 0.68557 0.0
H3002 H 0.16797 0.74787 0.70224 0.0
C3003 C 0.21209 0.73861 0.7392 0.0
C3004 C 1.00847 0.43005 0.53751 0.0
C3005 C 0.99205 0.41949 0.52366 0.0
H3006 H 0.04007 0.44989 0.54041 0.0
C3007 C 0.99577 0.42122 0.50118 0.0
H3008 H 1.00647 0.42865 0.55495 0.0
C3009 C 0.01519 0.43323 0.49281 0.0
C3010 C 0.03178 0.44376 0.50662 0.0
H3011 H 0.98421 0.41258 0.49002 0.0
H3012 H 0.01755 0.43374 0.47538 0.0
C3013 C 0.028 0.44198 0.52916 0.0
C3014 C 0.49036 0.58068 0.02837 0.0
C3015 C 0.48648 0.57931 1.00581 0.0
H3016 H 0.51191 0.59365 0.0543 0.0
C3017 C 0.503 0.59003 0.9921 0.0
H3018 H 0.47835 0.57257 0.03953 0.0
C3019 C 0.52239 0.60196 1.00061 0.0
C3020 C 0.52614 0.60335 0.02312 0.0
H3021 H 0.50055 0.58979 0.97468 0.0
H3022 H 0.53389 0.61081 0.98957 0.0
C3023 C 0.50985 0.59251 0.03685 0.0
C3024 C 0.70549 0.83714 0.79228 0.0
C3025 C 0.7061 0.8532 0.80849 0.0
H3026 H 0.70938 0.82936 0.75865 0.0
C3027 C 0.71057 0.87473 0.8023 0.0
H3028 H 0.70208 0.82037 0.79657 0.0
C3029 C 0.71403 0.8801 0.78034 0.0
C3030 C 0.71354 0.86399 0.76397 0.0
H3031 H 0.7107 0.88751 0.81438 0.0
H3032 H 0.71681 0.89698 0.77625 0.0
C3033 C 0.70932 0.8424 0.77042 0.0
C3034 C 0.47015 0.47851 0.0512 0.0
C3035 C 0.46108 0.45884 0.05951 0.0
H3036 H 0.46691 0.50364 0.02697 0.0
C3037 C 0.44168 0.4491 0.04862 0.0
H3038 H 0.48531 0.48627 0.05897 0.0
C3039 C 0.43159 0.45873 0.03001 0.0
C3040 C 0.44045 0.47852 0.02186 0.0
H3041 H 0.43444 0.43386 0.05442 0.0
H3042 H 0.41649 0.45094 0.02219 0.0
C3043 C 0.45987 0.48828 0.03268 0.0
C3044 C 0.83001 0.15748 0.2948 0.0
C3045 C 0.81264 0.1677 0.30796 0.0
H3046 H 0.84072 0.14802 0.26267 0.0
C3047 C 0.79128 0.1747 0.29814 0.0
H3048 H 0.84663 0.15174 0.30184 0.0
C3049 C 0.78796 0.17264 0.27565 0.0
C3050 C 0.80585 0.16343 0.26231 0.0
H3051 H 0.77761 0.18278 0.30765 0.0
H3052 H 0.77145 0.17866 0.26862 0.0
C3053 C 0.82662 0.15528 0.27231 0.0
C3054 C 0.0754 0.55081 0.56254 0.0
C3055 C 0.05215 0.55917 0.5606 0.0
H3056 H 0.10395 0.53356 0.54821 0.0
C3057 C 0.04057 0.55649 0.54041 0.0
H3058 H 0.08474 0.55172 0.57792 0.0
C3059 C 0.05276 0.54786 0.52225 0.0
C3060 C 0.07703 0.54133 0.52355 0.0
H3061 H 0.0221 0.56155 0.5385 0.0
H3062 H 0.04278 0.54611 0.50736 0.0
C3063 C 0.08706 0.54119 0.54474 0.0
C3064 C 0.7268 0.17469 0.72447 0.0
C3065 C 0.70554 0.16763 0.71449 0.0
H3066 H 0.74626 0.17884 0.75416 0.0
C3067 C 0.68799 0.15753 0.72754 0.0
H3068 H 0.74059 0.18269 0.71503 0.0
C3069 C 0.69112 0.15546 0.75007 0.0
C3070 C 0.71179 0.16365 0.76021 0.0
H3071 H 0.67144 0.15178 0.72037 0.0
H3072 H 0.67691 0.14826 0.75963 0.0
C3073 C 0.72984 0.17278 0.747 0.0
C3074 C 0.07425 0.47356 0.96064 0.0
C3075 C 0.05091 0.46541 0.96248 0.0
H3076 H 0.10279 0.49079 0.97498 0.0
C3077 C 0.03913 0.46842 0.98253 0.0
H3078 H 0.08377 0.47238 0.94536 0.0
C3079 C 0.05125 0.47711 1.0007 0.0
C3080 C 0.07559 0.48341 0.99951 0.0
H3081 H 0.02059 0.46354 0.98433 0.0
H3082 H 0.04117 0.47907 0.01551 0.0
C3083 C 0.08581 0.4833 0.9784 0.0
C3084 C 0.80068 0.88022 0.24171 0.0
C3085 C 0.80119 0.86422 0.25818 0.0
H3086 H 0.80407 0.8874 0.20763 0.0
C3087 C 0.80546 0.84259 0.2519 0.0
H3088 H 0.79782 0.89712 0.2457 0.0
C3089 C 0.80935 0.83719 0.23009 0.0
C3090 C 0.80875 0.85314 0.21377 0.0
H3091 H 0.8054 0.82963 0.26375 0.0
H3092 H 0.81279 0.82039 0.22593 0.0
C3093 C 0.80421 0.87471 0.21979 0.0
C3094 C 0.44914 0.56062 0.49808 0.0
C3095 C 0.44871 0.53809 0.50163 0.0
H3096 H 0.46009 0.58681 0.47724 0.0
C3097 C 0.45928 0.52454 0.48588 0.0
H3098 H 0.44052 0.57145 0.50951 0.0
C3099 C 0.47055 0.53332 0.46735 0.0
C3100 C 0.47119 0.55588 0.46391 0.0
H3101 H 0.45871 0.50708 0.48789 0.0
H3102 H 0.47886 0.52248 0.45574 0.0
C3103 C 0.46012 0.56937 0.47946 0.0
C3104 C 0.74183 0.75057 0.8541 0.0
C3105 C 0.73796 0.77309 0.85495 0.0
H3106 H 0.7638 0.72447 0.84256 0.0
C3107 C 0.75411 0.78666 0.84377 0.0
H3108 H 0.7304 0.7397 0.86323 0.0
C3109 C 0.77361 0.77799 0.83209 0.0
C3110 C 0.77762 0.75543 0.83126 0.0
H3111 H 0.75194 0.80412 0.8445 0.0
H3112 H 0.7855 0.78902 0.82366 0.0
C3113 C 0.76124 0.74188 0.84236 0.0
C3114 C 0.53673 0.52517 0.0995 0.0
C3115 C 0.5549 0.51192 0.10836 0.0
H3116 H 0.52592 0.55715 0.08971 0.0
C3117 C 0.57572 0.52201 0.1163 0.0
H3118 H 0.52019 0.51805 0.09366 0.0
C3119 C 0.57887 0.54454 0.1142 0.0
C3120 C 0.56121 0.55762 0.1043 0.0
H3121 H 0.59002 0.51242 0.1233 0.0
H3122 H 0.59552 0.55166 0.11975 0.0
C3123 C 0.53981 0.54769 0.09754 0.0
C3124 C 0.74272 0.24413 0.33123 0.0
C3125 C 0.739 0.2667 0.32974 0.0
H3126 H 0.76423 0.21813 0.34414 0.0
C3127 C 0.75579 0.28037 0.34019 0.0
H3128 H 0.73051 0.23299 0.32333 0.0
C3129 C 0.77529 0.2718 0.35194 0.0
C3130 C 0.77887 0.24928 0.35346 0.0
H3131 H 0.7535 0.29781 0.33987 0.0
H3132 H 0.78702 0.28282 0.36058 0.0
C3133 C 0.76231 0.23559 0.3429 0.0
C3134 C 0.97918 0.49817 0.5984 0.0
C3135 C 0.96104 0.51094 0.60799 0.0
H3136 H 0.99049 0.46644 0.58816 0.0
C3137 C 0.9409 0.50031 0.61665 0.0
H3138 H 0.99523 0.50571 0.592 0.0
C3139 C 0.93835 0.47773 0.61463 0.0
C3140 C 0.95595 0.4651 0.60409 0.0
H3141 H 0.92664 0.50951 0.62421 0.0
H3142 H 0.92217 0.47018 0.62074 0.0
C3143 C 0.9767 0.47556 0.59652 0.0
C3144 C 0.76398 0.27992 0.68087 0.0
C3145 C 0.78048 0.26633 0.69177 0.0
H3146 H 0.73298 0.28219 0.6602 0.0
C3147 C 0.77648 0.24377 0.69085 0.0
H3148 H 0.76652 0.29734 0.68077 0.0
C3149 C 0.75689 0.23515 0.67927 0.0
C3150 C 0.74063 0.24876 0.66825 0.0
H3151 H 0.78848 0.23272 0.69912 0.0
H3152 H 0.75474 0.21769 0.67845 0.0
C3153 C 0.74448 0.27127 0.66921 0.0
C3154 C 0.9651 0.54882 0.90524 0.0
C3155 C 0.95425 0.55683 0.92421 0.0
H3156 H 0.97612 0.52063 0.88721 0.0
C3157 C 0.94649 0.54178 0.93993 0.0
H3158 H 0.97121 0.55992 0.89279 0.0
C3159 C 0.94892 0.51945 0.93665 0.0
C3160 C 0.9594 0.51128 0.9176 0.0
H3161 H 0.93832 0.5473 0.95489 0.0
H3162 H 0.94231 0.50856 0.94908 0.0
C3163 C 0.96755 0.52629 0.90192 0.0
C3164 C 0.74112 0.77732 0.19005 0.0
C3165 C 0.73727 0.75473 0.19107 0.0
H3166 H 0.7626 0.8035 0.17746 0.0
C3167 C 0.75375 0.74123 0.18002 0.0
H3168 H 0.72916 0.78833 0.19841 0.0
C3169 C 0.77309 0.74997 0.16819 0.0
C3170 C 0.77683 0.7725 0.16719 0.0
H3171 H 0.75133 0.7238 0.17995 0.0
H3172 H 0.7846 0.73909 0.15914 0.0
C3173 C 0.76055 0.78603 0.17829 0.0
C3174 C 0.55872 0.50187 0.42996 0.0
C3175 C 0.55459 0.5083 0.40835 0.0
H3176 H 0.56586 0.47574 0.45204 0.0
C3177 C 0.55415 0.49193 0.39226 0.0
H3178 H 0.55861 0.51364 0.443 0.0
C3179 C 0.55759 0.46996 0.39765 0.0
C3180 C 0.56198 0.46379 0.4192 0.0
H3181 H 0.55142 0.49601 0.37536 0.0
H3182 H 0.55749 0.45788 0.38488 0.0
C3183 C 0.56253 0.48002 0.43525 0.0
C3184 C 0.79753 0.80578 0.738 0.0
C3185 C 0.79703 0.80908 0.71542 0.0
H3186 H 0.80914 0.78536 0.76441 0.0
C3187 C 0.80807 0.7934 0.70206 0.0
H3188 H 0.78923 0.81749 0.74873 0.0
C3189 C 0.81891 0.77479 0.71097 0.0
C3190 C 0.8192 0.77138 0.73352 0.0
H3191 H 0.80819 0.79553 0.68461 0.0
H3192 H 0.82754 0.76327 0.70024 0.0
C3193 C 0.80865 0.78726 0.74693 0.0
C3194 C 0.2976 0.71935 0.28445 0.0
C3195 C 0.29865 0.71501 0.30685 0.0
H3196 H 0.30819 0.74055 0.25829 0.0
C3197 C 0.3114 0.72964 0.32015 0.0
H3198 H 0.28797 0.70845 0.27377 0.0
C3199 C 0.32238 0.74825 0.31141 0.0
C3200 C 0.32117 0.75268 0.28907 0.0
H3201 H 0.31273 0.72671 0.33744 0.0
H3202 H 0.33229 0.75898 0.32206 0.0
C3203 C 0.3089 0.73786 0.27565 0.0
C3204 C 0.49379 0.10327 0.52194 0.0
C3205 C 0.48984 0.10398 0.49943 0.0
H3206 H 0.51575 0.09173 0.54806 0.0
C3207 C 0.50585 0.09261 0.48589 0.0
H3208 H 0.48248 0.11255 0.53279 0.0
C3209 C 0.52528 0.08087 0.49458 0.0
C3210 C 0.52936 0.08016 0.51713 0.0
H3211 H 0.50361 0.09322 0.46844 0.0
H3212 H 0.53708 0.0723 0.48358 0.0
C3213 C 0.51313 0.09145 0.53066 0.0
C3214 C 0.20699 0.29298 0.81999 0.0
C3215 C 0.21854 0.30853 0.80683 0.0
H3216 H 0.18723 0.26297 0.82151 0.0
C3217 C 0.21855 0.30514 0.78425 0.0
H3218 H 0.20644 0.29516 0.83743 0.0
C3219 C 0.20748 0.28665 0.77514 0.0
C3220 C 0.19645 0.27089 0.78838 0.0
H3221 H 0.22724 0.31674 0.77365 0.0
H3222 H 0.20741 0.2847 0.75767 0.0
C3223 C 0.19622 0.2744 0.81092 0.0
C3224 C 0.50654 0.42952 0.53092 0.0
C3225 C 0.49019 0.44076 0.51746 0.0
H3226 H 0.5373 0.40855 0.53292 0.0
C3227 C 0.49416 0.44006 0.49489 0.0
H3228 H 0.50401 0.42924 0.54833 0.0
C3229 C 0.51359 0.42839 0.48612 0.0
C3230 C 0.52973 0.41708 0.4996 0.0
H3231 H 0.48227 0.44859 0.48394 0.0
H3232 H 0.51574 0.42778 0.46866 0.0
C3233 C 0.52589 0.41778 0.52212 0.0
C3234 C 0.71162 0.23919 0.23889 0.0
C3235 C 0.69229 0.25022 0.22924 0.0
H3236 H 0.73668 0.21263 0.23672 0.0
C3237 C 0.68317 0.24219 0.20951 0.0
H3238 H 0.71883 0.24481 0.25422 0.0
C3239 C 0.6929 0.22346 0.19983 0.0
C3240 C 0.71222 0.21237 0.20946 0.0
H3241 H 0.66811 0.25017 0.20181 0.0
H3242 H 0.68547 0.21774 0.18464 0.0
C3243 C 0.72156 0.22057 0.22907 0.0
C3244 C 0.49283 0.92056 1.0002 0.0
C3245 C 0.48908 0.9192 0.02271 0.0
H3246 H 0.51478 0.93255 0.97427 0.0
C3247 C 0.50544 0.92993 0.03645 0.0
H3248 H 0.48126 0.91178 0.98917 0.0
C3249 C 0.52503 0.94163 0.02796 0.0
C3250 C 0.52893 0.94295 1.00541 0.0
H3251 H 0.50338 0.9288 0.0539 0.0
H3252 H 0.5371 0.94967 0.03913 0.0
C3253 C 0.51232 0.93234 0.99169 0.0
C3254 C 1.00828 0.09385 0.53656 0.0
C3255 C 0.02453 0.10457 0.52266 0.0
H3256 H 0.97685 0.07379 0.53958 0.0
C3257 C 0.02065 0.10288 0.50019 0.0
H3258 H 0.01039 0.0952 0.55399 0.0
C3259 C 1.00129 0.09073 0.49189 0.0
C3260 C 0.98488 0.08005 0.50576 0.0
H3261 H 0.03202 0.11165 0.48898 0.0
H3262 H 0.99882 0.09022 0.47447 0.0
C3263 C 0.98879 0.08181 0.52829 0.0
C3264 C 0.13838 0.42465 0.40881 0.0
C3265 C 0.12397 0.4279 0.42728 0.0
H3266 H 0.1576 0.40172 0.38897 0.0
C3267 C 0.1157 0.40947 0.43853 0.0
H3268 H 0.14562 0.43848 0.40018 0.0
C3269 C 0.12233 0.38839 0.43196 0.0
C3270 C 0.13767 0.38519 0.4141 0.0
H3271 H 0.10511 0.41144 0.45313 0.0
H3272 H 0.11677 0.37466 0.4417 0.0
C3273 C 0.14525 0.40358 0.4024 0.0
C3274 C 0.89557 0.87918 0.65021 0.0
C3275 C 0.90642 0.88501 0.63051 0.0
H3276 H 0.86327 0.87011 0.66666 0.0
C3277 C 0.89213 0.88602 0.61169 0.0
H3278 H 0.90606 0.87842 0.66499 0.0
C3279 C 0.86736 0.8817 0.6127 0.0
C3280 C 0.8566 0.87576 0.63246 0.0
H3281 H 0.89999 0.89078 0.59634 0.0
H3282 H 0.85667 0.88287 0.59808 0.0
C3283 C 0.87107 0.87442 0.65114 0.0
C3284 C 0.39428 0.63439 0.93108 0.0
C3285 C 0.37852 0.63757 0.91354 0.0
H3286 H 0.4119 0.61137 0.952 0.0
C3287 C 0.37054 0.61916 0.90208 0.0
H3288 H 0.40016 0.64815 0.94065 0.0
C3289 C 0.37743 0.5981 0.90845 0.0
C3290 C 0.39229 0.59488 0.92662 0.0
H3291 H 0.35787 0.62102 0.88889 0.0
H3292 H 0.36988 0.58426 0.90004 0.0
C3293 C 0.40097 0.61332 0.9376 0.0
C3294 C 0.64505 0.15594 0.13194 0.0
C3295 C 0.66017 0.13761 0.13251 0.0
H3296 H 0.60866 0.16776 0.13068 0.0
C3297 C 0.64984 0.11703 0.12948 0.0
H3298 H 0.65242 0.17202 0.13436 0.0
C3299 C 0.62504 0.11463 0.12754 0.0
C3300 C 0.60969 0.13271 0.12854 0.0
H3301 H 0.66094 0.10261 0.1295 0.0
H3302 H 0.61774 0.0984 0.12599 0.0
C3303 C 0.62 0.15351 0.12993 0.0
C3304 C 0.12337 0.63643 0.0903 0.0
C3305 C 0.13883 0.6394 0.10811 0.0
H3306 H 0.1055 0.61364 0.0693 0.0
C3307 C 0.14603 0.62093 0.11987 0.0
H3308 H 0.11806 0.65024 0.08055 0.0
C3309 C 0.13863 0.59998 0.11357 0.0
C3310 C 0.12404 0.59694 0.09519 0.0
H3311 H 0.15843 0.62262 0.13329 0.0
H3312 H 0.14557 0.58605 0.12225 0.0
C3313 C 0.11619 0.61547 0.08386 0.0
C3314 C 0.64864 0.89259 0.39728 0.0
C3315 C 0.65828 0.87151 0.39575 0.0
H3316 H 0.61721 0.91228 0.40118 0.0
C3317 C 0.64222 0.8538 0.39755 0.0
H3318 H 0.65995 0.90674 0.39555 0.0
C3319 C 0.61743 0.8571 0.39999 0.0
C3320 C 0.60807 0.87816 0.4013 0.0
H3321 H 0.64868 0.83726 0.39702 0.0
H3322 H 0.60562 0.84319 0.40115 0.0
C3323 C 0.62398 0.89583 0.40021 0.0
C3324 C 0.40274 0.40729 0.58537 0.0
C3325 C 0.39436 0.42579 0.59642 0.0
H3326 H 0.40137 0.3725 0.58222 0.0
C3327 C 0.37947 0.42273 0.61459 0.0
H3328 H 0.41372 0.40914 0.57099 0.0
C3329 C 0.37226 0.40175 0.62091 0.0
C3330 C 0.37994 0.38329 0.60938 0.0
H3331 H 0.37217 0.43664 0.62305 0.0
H3332 H 0.35956 0.40001 0.6341 0.0
C3333 C 0.39573 0.3863 0.59183 0.0
C3334 C 0.89546 0.14109 0.90602 0.0
C3335 C 0.91066 0.14059 0.88775 0.0
H3336 H 0.85903 0.14237 0.91771 0.0
C3337 C 0.90045 0.14379 0.86715 0.0
H3338 H 0.90275 0.13854 0.92211 0.0
C3339 C 0.87567 0.14582 0.86466 0.0
C3340 C 0.86024 0.14474 0.88268 0.0
H3341 H 0.91162 0.14381 0.85276 0.0
H3342 H 0.86845 0.14748 0.84842 0.0
C3343 C 0.87044 0.14319 0.90351 0.0
C3344 C 0.39516 0.15061 0.36965 0.0
C3345 C 0.38762 0.16196 0.38827 0.0
H3346 H 0.3951 0.14889 0.33474 0.0
C3347 C 0.37182 0.17954 0.38553 0.0
H3348 H 0.40785 0.13739 0.37118 0.0
C3349 C 0.3647 0.18625 0.36464 0.0
C3350 C 0.37299 0.17541 0.34597 0.0
H3351 H 0.36628 0.18902 0.39945 0.0
H3352 H 0.35379 0.20069 0.36299 0.0
C3353 C 0.38784 0.15717 0.34877 0.0
C3354 C 0.14275 0.18078 0.63604 0.0
C3355 C 0.12716 0.16307 0.63308 0.0
H3356 H 0.16066 0.20178 0.65881 0.0
C3357 C 0.11977 0.15145 0.65159 0.0
H3358 H 0.14817 0.19048 0.62222 0.0
C3359 C 0.12706 0.15782 0.67254 0.0
C3360 C 0.14176 0.17614 0.67556 0.0
H3361 H 0.10723 0.13814 0.64992 0.0
H3362 H 0.11997 0.14926 0.68648 0.0
C3363 C 0.14985 0.18729 0.65701 0.0
C3364 C 0.12131 0.87016 0.86842 0.0
C3365 C 0.12916 0.85885 0.88696 0.0
H3366 H 0.12093 0.8719 0.8335 0.0
C3367 C 0.14502 0.84133 0.88404 0.0
H3368 H 0.10858 0.88332 0.87009 0.0
C3369 C 0.15191 0.83467 0.86307 0.0
C3370 C 0.14334 0.84548 0.84449 0.0
H3371 H 0.15081 0.83189 0.8979 0.0
H3372 H 0.1629 0.82029 0.86131 0.0
C3373 C 0.1284 0.86364 0.84746 0.0
C3374 C 0.37302 0.84219 0.13704 0.0
C3375 C 0.38884 0.85967 0.13375 0.0
H3376 H 0.35531 0.82151 0.16022 0.0
C3377 C 0.39692 0.87122 0.15206 0.0
H3378 H 0.36707 0.83257 0.12336 0.0
C3379 C 0.39004 0.865 0.17316 0.0
C3380 C 0.37509 0.84691 0.17649 0.0
H3381 H 0.40964 0.88436 0.1501 0.0
H3382 H 0.39762 0.87348 0.18694 0.0
C3383 C 0.36634 0.83583 0.15815 0.0
C3384 C 0.39462 0.38168 0.11673 0.0
C3385 C 0.41001 0.38193 0.13488 0.0
H3386 H 0.35805 0.3808 0.10537 0.0
C3387 C 0.4 0.37864 0.15555 0.0
H3388 H 0.40176 0.38431 0.10061 0.0
C3389 C 0.37523 0.37679 0.15824 0.0
C3390 C 0.35962 0.37815 0.14036 0.0
H3391 H 0.41133 0.37845 0.16983 0.0
H3392 H 0.36817 0.37507 0.17452 0.0
C3393 C 0.36961 0.37977 0.11945 0.0
C3394 C 0.90141 0.90804 0.08503 0.0
C3395 C 0.89297 0.92669 0.0958 0.0
H3396 H 0.9001 0.8732 0.0823 0.0
C3397 C 0.87799 0.92381 0.11395 0.0
H3398 H 0.91243 0.90973 0.07065 0.0
C3399 C 0.87076 0.90289 0.1205 0.0
C3400 C 0.87851 0.88428 0.10924 0.0
H3401 H 0.87061 0.93781 0.12221 0.0
H3402 H 0.85801 0.9013 0.13366 0.0
C3403 C 0.89439 0.88711 0.09172 0.0
C3404 C 0.14291 0.63966 0.66015 0.0
C3405 C 0.15807 0.64052 0.64191 0.0
H3406 H 0.1072 0.63607 0.67229 0.0
C3407 C 0.14751 0.6406 0.62116 0.0
H3408 H 0.15032 0.64016 0.67639 0.0
C3409 C 0.12249 0.63833 0.6188 0.0
C3410 C 0.1076 0.636 0.63715 0.0
H3411 H 0.15864 0.64133 0.60679 0.0
H3412 H 0.11496 0.63723 0.60264 0.0
C3413 C 0.11812 0.63741 0.65782 0.0
C3414 C 0.6382 0.9243 0.90793 0.0
C3415 C 0.62331 0.92752 0.92608 0.0
H3416 H 0.6578 0.90137 0.88841 0.0
C3417 C 0.61457 0.90908 0.93702 0.0
H3418 H 0.64581 0.93814 0.89956 0.0
C3419 C 0.62124 0.88801 0.93049 0.0
C3420 C 0.63706 0.88482 0.91299 0.0
H3421 H 0.60361 0.91104 0.9514 0.0
H3422 H 0.61533 0.87426 0.94004 0.0
C3423 C 0.64508 0.90323 0.90155 0.0
C3424 C 0.87197 0.11992 0.40178 0.0
C3425 C 0.87952 0.13828 0.41354 0.0
H3426 H 0.87164 0.08503 0.39946 0.0
C3427 C 0.89484 0.13506 0.4314 0.0
H3428 H 0.85965 0.12181 0.38833 0.0
C3429 C 0.90149 0.11397 0.43792 0.0
C3430 C 0.89326 0.09557 0.4266 0.0
H3431 H 0.90038 0.14877 0.44118 0.0
H3432 H 0.91206 0.11197 0.45253 0.0
C3433 C 0.87886 0.09885 0.40814 0.0
C3434 C 0.64723 0.11941 0.62024 0.0
C3435 C 0.63951 0.13787 0.60874 0.0
H3436 H 0.6474 0.08452 0.62233 0.0
C3437 C 0.62376 0.13486 0.59116 0.0
H3438 H 0.65989 0.12115 0.63346 0.0
C3439 C 0.61681 0.11387 0.58465 0.0
C3440 C 0.62521 0.09537 0.59569 0.0
H3441 H 0.61809 0.14867 0.58157 0.0
H3442 H 0.60584 0.11201 0.57027 0.0
C3443 C 0.64008 0.09843 0.61388 0.0
C3444 C 0.11885 0.3673 0.89812 0.0
C3445 C 0.11111 0.38886 0.89539 0.0
H3446 H 0.14851 0.34527 0.89959 0.0
C3447 C 0.12874 0.40516 0.89351 0.0
H3448 H 0.10597 0.35425 0.8997 0.0
C3449 C 0.15318 0.39998 0.89308 0.0
C3450 C 0.16094 0.37832 0.89473 0.0
H3451 H 0.12368 0.42205 0.89203 0.0
H3452 H 0.1659 0.41298 0.89045 0.0
C3453 C 0.14338 0.36212 0.89785 0.0
C3454 C 0.37748 0.64848 0.37566 0.0
C3455 C 0.36125 0.64967 0.39308 0.0
H3456 H 0.41369 0.6441 0.36531 0.0
C3457 C 0.37025 0.64863 0.41429 0.0
H3458 H 0.37101 0.64926 0.35909 0.0
C3459 C 0.39501 0.64644 0.41797 0.0
C3460 C 0.41139 0.6447 0.40051 0.0
H3461 H 0.35819 0.64989 0.428 0.0
H3462 H 0.4012 0.64613 0.4346 0.0
C3463 C 0.4021 0.64585 0.37928 0.0
C3464 C 0.89607 0.65257 0.87023 0.0
C3465 C 0.88871 0.6643 0.88868 0.0
H3466 H 0.89579 0.65016 0.83536 0.0
C3467 C 0.87306 0.68196 0.88566 0.0
H3468 H 0.90865 0.63929 0.87196 0.0
C3469 C 0.86588 0.68831 0.86468 0.0
C3470 C 0.87395 0.67705 0.84618 0.0
H3471 H 0.86766 0.69172 0.89943 0.0
H3472 H 0.85503 0.70276 0.86281 0.0
C3473 C 0.8887 0.65879 0.84927 0.0
C3474 C 0.61931 0.65162 0.1522 0.0
C3475 C 0.62707 0.66319 0.13378 0.0
H3476 H 0.61913 0.64939 0.18708 0.0
C3477 C 0.64283 0.68075 0.13687 0.0
H3478 H 0.60665 0.63842 0.15039 0.0
C3479 C 0.64978 0.68716 0.15789 0.0
C3480 C 0.64136 0.67605 0.17635 0.0
H3481 H 0.64853 0.69038 0.1231 0.0
H3482 H 0.66075 0.70154 0.15981 0.0
C3483 C 0.62646 0.6579 0.1732 0.0
C3484 C 0.62986 0.36454 0.34829 0.0
C3485 C 0.64473 0.34637 0.34509 0.0
H3486 H 0.61018 0.38404 0.37117 0.0
C3487 C 0.6534 0.33541 0.36354 0.0
H3488 H 0.6223 0.37292 0.33444 0.0
C3489 C 0.64665 0.34191 0.38459 0.0
C3490 C 0.63083 0.35941 0.38774 0.0
H3491 H 0.66434 0.32102 0.3616 0.0
H3492 H 0.65249 0.33233 0.39835 0.0
C3493 C 0.6229 0.37089 0.36933 0.0
C3494 C 0.89091 0.36393 0.67308 0.0
C3495 C 0.87595 0.34578 0.67609 0.0
H3496 H 0.91081 0.38353 0.65044 0.0
C3497 C 0.8675 0.33488 0.65752 0.0
H3498 H 0.8983 0.37227 0.68703 0.0
C3499 C 0.87448 0.34145 0.63654 0.0
C3500 C 0.89033 0.35898 0.63358 0.0
H3501 H 0.8565 0.3205 0.65931 0.0
H3502 H 0.86875 0.33195 0.6227 0.0
C3503 C 0.89809 0.37036 0.65212 0.0
loop_
_geom_bond_atom_site_label_1
_geom_bond_atom_site_label_2
_geom_bond_distance
_geom_bond_site_symmetry_2
_ccdc_geom_bond_type
C0 C1 1.443 . S
C0 N4 1.376 . S
C0 C38 1.389 . S
C1 C0 1.443 . S
C1 C2 1.340 . S
C1 H41 0.951 . S
C2 C1 1.340 . S
C2 C3 1.439 . S
C2 H42 0.950 . S
C3 C2 1.439 . S
C3 N4 1.374 . S
C3 C37 1.395 . S
N4 C0 1.376 . S
N4 C3 1.374 . S
N4 Co5 2.008 . S
Co5 N4 2.008 . S
Co5 N6 1.995 . S
Co5 N11 2.008 . S
Co5 N16 1.995 . S
Co5 N21 2.282 . S
Co5 N27 2.282 . S
N6 Co5 1.995 . S
N6 C7 1.376 . S
N6 C10 1.383 . S
C7 N6 1.376 . S
C7 C8 1.446 . S
C7 C37 1.391 . S
C8 C7 1.446 . S
C8 C9 1.339 . S
C8 H43 0.949 . S
C9 C8 1.339 . S
C9 C10 1.439 . S
C9 H44 0.950 . S
C10 N6 1.383 . S
C10 C9 1.439 . S
C10 C39 1.392 . S
N11 Co5 2.008 . S
N11 C12 1.376 . S
N11 C15 1.374 . S
C12 N11 1.376 . S
C12 C13 1.443 . S
C12 C39 1.389 . S
C13 C12 1.443 . S
C13 C14 1.340 . S
C13 H45 0.951 . S
C14 C13 1.340 . S
C14 C15 1.439 . S
C14 H46 0.950 . S
C15 N11 1.374 . S
C15 C14 1.439 . S
C15 C40 1.395 . S
N16 Co5 1.995 . S
N16 C17 1.376 . S
N16 C20 1.383 . S
C17 N16 1.376 . S
C17 C18 1.446 . S
C17 C40 1.391 . S
C18 C17 1.446 . S
C18 C19 1.339 . S
C18 H47 0.949 . S
C19 C18 1.339 . S
C19 C20 1.439 . S
C19 H48 0.950 . S
C20 N16 1.383 . S
C20 C19 1.439 . S
C20 C38 1.392 . S
N21 Co5 2.282 . S
N21 C24 1.332 . S
N21 C26 1.332 . S
C22 C23 1.386 . S
C22 C25 1.388 . S
C23 C22 1.386 . S
C23 C24 1.382 . S
C23 H49 0.950 . S
C24 N21 1.332 . S
C24 C23 1.382 . S
C24 H35 0.952 . S
C25 C22 1.388 . S
C25 C26 1.382 . S
C25 H50 0.950 . S
C26 N21 1.332 . S
C26 C25 1.382 . S
C26 H36 0.948 . S
N27 Co5 2.282 . S
N27 C31 1.332 . S
N27 C32 1.332 . S
C28 C29 1.388 . S
C28 C32 1.382 . S
C28 H51 0.950 . S
C29 C28 1.388 . S
C29 C30 1.386 . S
C30 C29 1.386 . S
C30 C31 1.382 . S
C30 H52 0.950 . S
C31 N27 1.332 . S
C31 C30 1.382 . S
C31 H33 0.952 . S
C32 N27 1.332 . S
C32 C28 1.382 . S
C32 H34 0.948 . S
H33 C31 0.952 . S
H34 C32 0.948 . S
H35 C24 0.952 . S
H36 C26 0.948 . S
C37 C3 1.395 . S
C37 C7 1.391 . S
C38 C0 1.389 . S
C38 C20 1.392 . S
C39 C10 1.392 . S
C39 C12 1.389 . S
C40 C15 1.395 . S
C40 C17 1.391 . S
H41 C1 0.951 . S
H42 C2 0.950 . S
H43 C8 0.949 . S
H44 C9 0.950 . S
H45 C13 0.951 . S
H46 C14 0.950 . S
H47 C18 0.949 . S
H48 C19 0.950 . S
H49 C23 0.950 . S
H50 C25 0.950 . S
H51 C28 0.950 . S
H52 C30 0.950 . S
C53 C54 1.443 . S
C53 N57 1.376 . S
C53 C91 1.389 . S
C54 C53 1.443 . S
C54 C55 1.340 . S
C54 H94 0.951 . S
C55 C54 1.340 . S
C55 C56 1.439 . S
C55 H95 0.950 . S
C56 C55 1.439 . S
C56 N57 1.374 . S
C56 C90 1.395 . S
N57 C53 1.376 . S
N57 C56 1.374 . S
N57 Co58 2.008 1_455 S
Co58 N57 2.008 1_655 S
Co58 N59 1.995 . S
Co58 N64 2.008 . S
Co58 N69 1.995 . S
Co58 N74 2.282 1_655 S
Co58 N80 2.282 . S
N59 Co58 1.995 . S
N59 C60 1.376 . S
N59 C63 1.383 . S
C60 N59 1.376 . S
C60 C61 1.446 . S
C60 C90 1.391 1_655 S
C61 C60 1.446 . S
C61 C62 1.339 . S
C61 H96 0.949 . S
C62 C61 1.339 . S
C62 C63 1.439 . S
C62 H97 0.950 . S
C63 N59 1.383 . S
C63 C62 1.439 . S
C63 C92 1.392 . S
N64 Co58 2.008 . S
N64 C65 1.376 . S
N64 C68 1.374 . S
C65 N64 1.376 . S
C65 C66 1.443 . S
C65 C92 1.389 . S
C66 C65 1.443 . S
C66 C67 1.340 . S
C66 H98 0.951 . S
C67 C66 1.340 . S
C67 C68 1.439 . S
C67 H99 0.950 . S
C68 N64 1.374 . S
C68 C67 1.439 . S
C68 C93 1.395 . S
N69 Co58 1.995 . S
N69 C70 1.376 . S
N69 C73 1.383 1_655 S
C70 N69 1.376 . S
C70 C71 1.446 . S
C70 C93 1.391 . S
C71 C70 1.446 . S
C71 C72 1.339 1_655 S
C71 H100 0.949 . S
C72 C71 1.339 1_455 S
C72 C73 1.439 . S
C72 H101 0.950 . S
C73 N69 1.383 1_455 S
C73 C72 1.439 . S
C73 C91 1.392 . S
N74 Co58 2.282 1_455 S
N74 C77 1.332 . S
N74 C79 1.332 . S
C75 C76 1.386 . S
C75 C78 1.388 . S
C76 C75 1.386 . S
C76 C77 1.382 . S
C76 H102 0.950 . S
C77 N74 1.332 . S
C77 C76 1.382 . S
C77 H88 0.952 . S
C78 C75 1.388 . S
C78 C79 1.382 . S
C78 H103 0.950 . S
C79 N74 1.332 . S
C79 C78 1.382 . S
C79 H89 0.948 . S
N80 Co58 2.282 . S
N80 C84 1.332 . S
N80 C85 1.332 . S
C81 C82 1.388 . S
C81 C85 1.382 . S
C81 H104 0.950 . S
C82 C81 1.388 . S
C82 C83 1.386 . S
C83 C82 1.386 . S
C83 C84 1.382 . S
C83 H105 0.950 . S
C84 N80 1.332 . S
C84 C83 1.382 . S
C84 H86 0.952 . S
C85 N80 1.332 . S
C85 C81 1.382 . S
C85 H87 0.948 . S
H86 C84 0.952 . S
H87 C85 0.948 . S
H88 C77 0.952 . S
H89 C79 0.948 . S
C90 C56 1.395 . S
C90 C60 1.391 1_455 S
C91 C53 1.389 . S
C91 C73 1.392 . S
C92 C63 1.392 . S
C92 C65 1.389 . S
C93 C68 1.395 . S
C93 C70 1.391 . S
H94 C54 0.951 . S
H95 C55 0.950 . S
H96 C61 0.949 . S
H97 C62 0.950 . S
H98 C66 0.951 . S
H99 C67 0.950 . S
H100 C71 0.949 . S
H101 C72 0.950 . S
H102 C76 0.950 . S
H103 C78 0.950 . S
H104 C81 0.950 . S
H105 C83 0.950 . S
C106 C107 1.443 . S
C106 N110 1.376 . S
C106 C144 1.389 . S
C107 C106 1.443 . S
C107 C108 1.340 . S
C107 H147 0.951 . S
C108 C107 1.340 . S
C108 C109 1.439 . S
C108 H148 0.950 . S
C109 C108 1.439 . S
C109 N110 1.374 . S
C109 C143 1.395 . S
N110 C106 1.376 . S
N110 C109 1.374 . S
N110 Co111 2.008 . S
Co111 N110 2.008 . S
Co111 N112 1.995 . S
Co111 N117 2.008 . S
Co111 N122 1.995 . S
Co111 N127 2.282 . S
Co111 N133 2.282 . S
N112 Co111 1.995 . S
N112 C113 1.376 . S
N112 C116 1.383 . S
C113 N112 1.376 . S
C113 C114 1.446 . S
C113 C143 1.391 . S
C114 C113 1.446 . S
C114 C115 1.339 . S
C114 H149 0.949 . S
C115 C114 1.339 . S
C115 C116 1.439 . S
C115 H150 0.950 . S
C116 N112 1.383 . S
C116 C115 1.439 . S
C116 C145 1.392 . S
N117 Co111 2.008 . S
N117 C118 1.376 . S
N117 C121 1.374 . S
C118 N117 1.376 . S
C118 C119 1.443 . S
C118 C145 1.389 . S
C119 C118 1.443 . S
C119 C120 1.340 . S
C119 H151 0.951 . S
C120 C119 1.340 . S
C120 C121 1.439 . S
C120 H152 0.950 . S
C121 N117 1.374 . S
C121 C120 1.439 . S
C121 C146 1.395 . S
N122 Co111 1.995 . S
N122 C123 1.376 . S
N122 C126 1.383 . S
C123 N122 1.376 . S
C123 C124 1.446 . S
C123 C146 1.391 . S
C124 C123 1.446 . S
C124 C125 1.339 . S
C124 H153 0.949 . S
C125 C124 1.339 . S
C125 C126 1.439 . S
C125 H154 0.950 . S
C126 N122 1.383 . S
C126 C125 1.439 . S
C126 C144 1.392 . S
N127 Co111 2.282 . S
N127 C130 1.332 . S
N127 C132 1.332 . S
C128 C129 1.386 . S
C128 C131 1.388 . S
C129 C128 1.386 . S
C129 C130 1.382 . S
C129 H155 0.950 . S
C130 N127 1.332 . S
C130 C129 1.382 . S
C130 H141 0.952 . S
C131 C128 1.388 . S
C131 C132 1.382 . S
C131 H156 0.950 . S
C132 N127 1.332 . S
C132 C131 1.382 . S
C132 H142 0.948 . S
N133 Co111 2.282 . S
N133 C137 1.332 . S
N133 C138 1.332 . S
C134 C135 1.388 . S
C134 C138 1.382 . S
C134 H157 0.950 . S
C135 C134 1.388 . S
C135 C136 1.386 . S
C136 C135 1.386 . S
C136 C137 1.382 . S
C136 H158 0.950 . S
C137 N133 1.332 . S
C137 C136 1.382 . S
C137 H139 0.952 . S
C138 N133 1.332 . S
C138 C134 1.382 . S
C138 H140 0.948 . S
H139 C137 0.952 . S
H140 C138 0.948 . S
H141 C130 0.952 . S
H142 C132 0.948 . S
C143 C109 1.395 . S
C143 C113 1.391 . S
C144 C106 1.389 . S
C144 C126 1.392 . S
C145 C116 1.392 . S
C145 C118 1.389 . S
C146 C121 1.395 . S
C146 C123 1.391 . S
H147 C107 0.951 . S
H148 C108 0.950 . S
H149 C114 0.949 . S
H150 C115 0.950 . S
H151 C119 0.951 . S
H152 C120 0.950 . S
H153 C124 0.949 . S
H154 C125 0.950 . S
H155 C129 0.950 . S
H156 C131 0.950 . S
H157 C134 0.950 . S
H158 C136 0.950 . S
C159 C160 1.443 . S
C159 N163 1.376 . S
C159 C197 1.389 . S
C160 C159 1.443 . S
C160 C161 1.340 . S
C160 H200 0.951 . S
C161 C160 1.340 . S
C161 C162 1.439 . S
C161 H201 0.950 . S
C162 C161 1.439 . S
C162 N163 1.374 . S
C162 C196 1.395 . S
N163 C159 1.376 . S
N163 C162 1.374 . S
N163 Co164 2.008 . S
Co164 N163 2.008 . S
Co164 N165 1.995 . S
Co164 N170 2.008 . S
Co164 N175 1.995 . S
Co164 N180 2.282 . S
Co164 N186 2.282 . S
N165 Co164 1.995 . S
N165 C166 1.376 . S
N165 C169 1.383 . S
C166 N165 1.376 . S
C166 C167 1.446 . S
C166 C196 1.391 . S
C167 C166 1.446 . S
C167 C168 1.339 . S
C167 H202 0.949 . S
C168 C167 1.339 . S
C168 C169 1.439 . S
C168 H203 0.950 . S
C169 N165 1.383 . S
C169 C168 1.439 . S
C169 C198 1.392 . S
N170 Co164 2.008 . S
N170 C171 1.376 . S
N170 C174 1.374 . S
C171 N170 1.376 . S
C171 C172 1.443 . S
C171 C198 1.389 . S
C172 C171 1.443 . S
C172 C173 1.340 . S
C172 H204 0.951 . S
C173 C172 1.340 . S
C173 C174 1.439 . S
C173 H205 0.950 . S
C174 N170 1.374 . S
C174 C173 1.439 . S
C174 C199 1.395 . S
N175 Co164 1.995 . S
N175 C176 1.376 . S
N175 C179 1.383 . S
C176 N175 1.376 . S
C176 C177 1.446 . S
C176 C199 1.391 . S
C177 C176 1.446 . S
C177 C178 1.339 . S
C177 H206 0.949 . S
C178 C177 1.339 . S
C178 C179 1.439 . S
C178 H207 0.950 . S
C179 N175 1.383 . S
C179 C178 1.439 . S
C179 C197 1.392 . S
N180 Co164 2.282 . S
N180 C183 1.332 . S
N180 C185 1.332 . S
C181 C182 1.386 . S
C181 C184 1.388 . S
C182 C181 1.386 . S
C182 C183 1.382 . S
C182 H208 0.950 . S
C183 N180 1.332 . S
C183 C182 1.382 . S
C183 H194 0.952 . S
C184 C181 1.388 . S
C184 C185 1.382 . S
C184 H209 0.950 . S
C185 N180 1.332 . S
C185 C184 1.382 . S
C185 H195 0.948 . S
N186 Co164 2.282 . S
N186 C190 1.332 . S
N186 C191 1.332 . S
C187 C188 1.388 . S
C187 C191 1.382 . S
C187 H210 0.950 . S
C188 C187 1.388 . S
C188 C189 1.386 . S
C189 C188 1.386 . S
C189 C190 1.382 . S
C189 H211 0.950 . S
C190 N186 1.332 . S
C190 C189 1.382 . S
C190 H192 0.952 . S
C191 N186 1.332 . S
C191 C187 1.382 . S
C191 H193 0.948 . S
H192 C190 0.952 . S
H193 C191 0.948 . S
H194 C183 0.952 . S
H195 C185 0.948 . S
C196 C162 1.395 . S
C196 C166 1.391 . S
C197 C159 1.389 . S
C197 C179 1.392 . S
C198 C169 1.392 . S
C198 C171 1.389 . S
C199 C174 1.395 . S
C199 C176 1.391 . S
H200 C160 0.951 . S
H201 C161 0.950 . S
H202 C167 0.949 . S
H203 C168 0.950 . S
H204 C172 0.951 . S
H205 C173 0.950 . S
H206 C177 0.949 . S
H207 C178 0.950 . S
H208 C182 0.950 . S
H209 C184 0.950 . S
H210 C187 0.950 . S
H211 C189 0.950 . S
C212 C213 1.443 . S
C212 N216 1.376 . S
C212 C250 1.389 . S
C213 C212 1.443 . S
C213 C214 1.340 . S
C213 H253 0.951 . S
C214 C213 1.340 . S
C214 C215 1.439 . S
C214 H254 0.950 . S
C215 C214 1.439 . S
C215 N216 1.374 . S
C215 C249 1.395 . S
N216 C212 1.376 . S
N216 C215 1.374 . S
N216 Co217 2.008 . S
Co217 N216 2.008 . S
Co217 N218 1.995 . S
Co217 N223 2.008 . S
Co217 N228 1.995 . S
Co217 N233 2.282 . S
Co217 N239 2.282 . S
N218 Co217 1.995 . S
N218 C219 1.376 . S
N218 C222 1.383 . S
C219 N218 1.376 . S
C219 C220 1.446 . S
C219 C249 1.391 . S
C220 C219 1.446 . S
C220 C221 1.339 . S
C220 H255 0.949 . S
C221 C220 1.339 . S
C221 C222 1.439 . S
C221 H256 0.950 . S
C222 N218 1.383 . S
C222 C221 1.439 . S
C222 C251 1.392 . S
N223 Co217 2.008 . S
N223 C224 1.376 . S
N223 C227 1.374 . S
C224 N223 1.376 . S
C224 C225 1.443 . S
C224 C251 1.389 . S
C225 C224 1.443 . S
C225 C226 1.340 . S
C225 H257 0.951 . S
C226 C225 1.340 . S
C226 C227 1.439 . S
C226 H258 0.950 . S
C227 N223 1.374 . S
C227 C226 1.439 . S
C227 C252 1.395 . S
N228 Co217 1.995 . S
N228 C229 1.376 . S
N228 C232 1.383 . S
C229 N228 1.376 . S
C229 C230 1.446 . S
C229 C252 1.391 . S
C230 C229 1.446 . S
C230 C231 1.339 . S
C230 H259 0.949 . S
C231 C230 1.339 . S
C231 C232 1.439 . S
C231 H260 0.950 . S
C232 N228 1.383 . S
C232 C231 1.439 . S
C232 C250 1.392 . S
N233 Co217 2.282 . S
N233 C236 1.332 . S
N233 C238 1.332 . S
C234 C235 1.386 . S
C234 C237 1.388 . S
C235 C234 1.386 . S
C235 C236 1.382 . S
C235 H261 0.950 . S
C236 N233 1.332 . S
C236 C235 1.382 . S
C236 H247 0.952 . S
C237 C234 1.388 . S
C237 C238 1.382 . S
C237 H262 0.950 . S
C238 N233 1.332 . S
C238 C237 1.382 . S
C238 H248 0.948 . S
N239 Co217 2.282 . S
N239 C243 1.332 . S
N239 C244 1.332 . S
C240 C241 1.388 . S
C240 C244 1.382 . S
C240 H263 0.950 . S
C241 C240 1.388 . S
C241 C242 1.386 . S
C242 C241 1.386 . S
C242 C243 1.382 . S
C242 H264 0.950 . S
C243 N239 1.332 . S
C243 C242 1.382 . S
C243 H245 0.952 . S
C244 N239 1.332 . S
C244 C240 1.382 . S
C244 H246 0.948 . S
H245 C243 0.952 . S
H246 C244 0.948 . S
H247 C236 0.952 . S
H248 C238 0.948 . S
C249 C215 1.395 . S
C249 C219 1.391 . S
C250 C212 1.389 . S
C250 C232 1.392 . S
C251 C222 1.392 . S
C251 C224 1.389 . S
C252 C227 1.395 . S
C252 C229 1.391 . S
H253 C213 0.951 . S
H254 C214 0.950 . S
H255 C220 0.949 . S
H256 C221 0.950 . S
H257 C225 0.951 . S
H258 C226 0.950 . S
H259 C230 0.949 . S
H260 C231 0.950 . S
H261 C235 0.950 . S
H262 C237 0.950 . S
H263 C240 0.950 . S
H264 C242 0.950 . S
C265 C266 1.443 . S
C265 N269 1.376 . S
C265 C303 1.389 . S
C266 C265 1.443 . S
C266 C267 1.340 . S
C266 H306 0.951 . S
C267 C266 1.340 . S
C267 C268 1.439 . S
C267 H307 0.950 . S
C268 C267 1.439 . S
C268 N269 1.374 . S
C268 C302 1.395 . S
N269 C265 1.376 . S
N269 C268 1.374 . S
N269 Co270 2.008 . S
Co270 N269 2.008 . S
Co270 N271 1.995 . S
Co270 N276 2.008 . S
Co270 N281 1.995 . S
Co270 N286 2.282 . S
Co270 N292 2.282 . S
N271 Co270 1.995 . S
N271 C272 1.376 . S
N271 C275 1.383 . S
C272 N271 1.376 . S
C272 C273 1.446 . S
C272 C302 1.391 . S
C273 C272 1.446 . S
C273 C274 1.339 . S
C273 H308 0.949 . S
C274 C273 1.339 . S
C274 C275 1.439 . S
C274 H309 0.950 . S
C275 N271 1.383 . S
C275 C274 1.439 . S
C275 C304 1.392 . S
N276 Co270 2.008 . S
N276 C277 1.376 . S
N276 C280 1.374 . S
C277 N276 1.376 . S
C277 C278 1.443 . S
C277 C304 1.389 . S
C278 C277 1.443 . S
C278 C279 1.340 . S
C278 H310 0.951 . S
C279 C278 1.340 . S
C279 C280 1.439 . S
C279 H311 0.950 . S
C280 N276 1.374 . S
C280 C279 1.439 . S
C280 C305 1.395 . S
N281 Co270 1.995 . S
N281 C282 1.376 . S
N281 C285 1.383 . S
C282 N281 1.376 . S
C282 C283 1.446 . S
C282 C305 1.391 . S
C283 C282 1.446 . S
C283 C284 1.339 . S
C283 H312 0.949 . S
C284 C283 1.339 . S
C284 C285 1.439 . S
C284 H313 0.950 . S
C285 N281 1.383 . S
C285 C284 1.439 . S
C285 C303 1.392 . S
N286 Co270 2.282 . S
N286 C289 1.332 . S
N286 C291 1.332 . S
C287 C288 1.386 . S
C287 C290 1.388 . S
C288 C287 1.386 . S
C288 C289 1.382 . S
C288 H314 0.950 . S
C289 N286 1.332 . S
C289 C288 1.382 . S
C289 H300 0.952 . S
C290 C287 1.388 . S
C290 C291 1.382 . S
C290 H315 0.950 . S
C291 N286 1.332 . S
C291 C290 1.382 . S
C291 H301 0.948 . S
N292 Co270 2.282 . S
N292 C296 1.332 . S
N292 C297 1.332 . S
C293 C294 1.388 . S
C293 C297 1.382 . S
C293 H316 0.950 . S
C294 C293 1.388 . S
C294 C295 1.386 . S
C295 C294 1.386 . S
C295 C296 1.382 . S
C295 H317 0.950 . S
C296 N292 1.332 . S
C296 C295 1.382 . S
C296 H298 0.952 . S
C297 N292 1.332 . S
C297 C293 1.382 . S
C297 H299 0.948 . S
H298 C296 0.952 . S
H299 C297 0.948 . S
H300 C289 0.952 . S
H301 C291 0.948 . S
C302 C268 1.395 . S
C302 C272 1.391 . S
C303 C265 1.389 . S
C303 C285 1.392 . S
C304 C275 1.392 . S
C304 C277 1.389 . S
C305 C280 1.395 . S
C305 C282 1.391 . S
H306 C266 0.951 . S
H307 C267 0.950 . S
H308 C273 0.949 . S
H309 C274 0.950 . S
H310 C278 0.951 . S
H311 C279 0.950 . S
H312 C283 0.949 . S
H313 C284 0.950 . S
H314 C288 0.950 . S
H315 C290 0.950 . S
H316 C293 0.950 . S
H317 C295 0.950 . S
C318 C319 1.443 . S
C318 N322 1.376 . S
C318 C356 1.389 . S
C319 C318 1.443 . S
C319 C320 1.340 . S
C319 H359 0.951 . S
C320 C319 1.340 . S
C320 C321 1.439 . S
C320 H360 0.950 . S
C321 C320 1.439 . S
C321 N322 1.374 . S
C321 C355 1.395 . S
N322 C318 1.376 . S
N322 C321 1.374 . S
N322 Co323 2.008 . S
Co323 N322 2.008 . S
Co323 N324 1.995 . S
Co323 N329 2.008 . S
Co323 N334 1.995 . S
Co323 N339 2.282 . S
Co323 N345 2.282 . S
N324 Co323 1.995 . S
N324 C325 1.376 . S
N324 C328 1.383 . S
C325 N324 1.376 . S
C325 C326 1.446 . S
C325 C355 1.391 . S
C326 C325 1.446 . S
C326 C327 1.339 . S
C326 H361 0.949 . S
C327 C326 1.339 . S
C327 C328 1.439 . S
C327 H362 0.950 . S
C328 N324 1.383 . S
C328 C327 1.439 . S
C328 C357 1.392 . S
N329 Co323 2.008 . S
N329 C330 1.376 . S
N329 C333 1.374 . S
C330 N329 1.376 . S
C330 C331 1.443 . S
C330 C357 1.389 . S
C331 C330 1.443 . S
C331 C332 1.340 . S
C331 H363 0.951 . S
C332 C331 1.340 . S
C332 C333 1.439 . S
C332 H364 0.950 . S
C333 N329 1.374 . S
C333 C332 1.439 . S
C333 C358 1.395 . S
N334 Co323 1.995 . S
N334 C335 1.376 . S
N334 C338 1.383 . S
C335 N334 1.376 . S
C335 C336 1.446 . S
C335 C358 1.391 . S
C336 C335 1.446 . S
C336 C337 1.339 . S
C336 H365 0.949 . S
C337 C336 1.339 . S
C337 C338 1.439 . S
C337 H366 0.950 . S
C338 N334 1.383 . S
C338 C337 1.439 . S
C338 C356 1.392 . S
N339 Co323 2.282 . S
N339 C342 1.332 . S
N339 C344 1.332 . S
C340 C341 1.386 . S
C340 C343 1.388 . S
C341 C340 1.386 . S
C341 C342 1.382 . S
C341 H367 0.950 . S
C342 N339 1.332 . S
C342 C341 1.382 . S
C342 H353 0.952 . S
C343 C340 1.388 . S
C343 C344 1.382 . S
C343 H368 0.950 . S
C344 N339 1.332 . S
C344 C343 1.382 . S
C344 H354 0.948 . S
N345 Co323 2.282 . S
N345 C349 1.332 . S
N345 C350 1.332 . S
C346 C347 1.388 . S
C346 C350 1.382 . S
C346 H369 0.950 . S
C347 C346 1.388 . S
C347 C348 1.386 . S
C348 C347 1.386 . S
C348 C349 1.382 . S
C348 H370 0.950 . S
C349 N345 1.332 . S
C349 C348 1.382 . S
C349 H351 0.952 . S
C350 N345 1.332 . S
C350 C346 1.382 . S
C350 H352 0.948 . S
H351 C349 0.952 . S
H352 C350 0.948 . S
H353 C342 0.952 . S
H354 C344 0.948 . S
C355 C321 1.395 . S
C355 C325 1.391 . S
C356 C318 1.389 . S
C356 C338 1.392 . S
C357 C328 1.392 . S
C357 C330 1.389 . S
C358 C333 1.395 . S
C358 C335 1.391 . S
H359 C319 0.951 . S
H360 C320 0.950 . S
H361 C326 0.949 . S
H362 C327 0.950 . S
H363 C331 0.951 . S
H364 C332 0.950 . S
H365 C336 0.949 . S
H366 C337 0.950 . S
H367 C341 0.950 . S
H368 C343 0.950 . S
H369 C346 0.950 . S
H370 C348 0.950 . S
C371 C372 1.443 . S
C371 N375 1.376 . S
C371 C409 1.389 . S
C372 C371 1.443 . S
C372 C373 1.340 . S
C372 H412 0.951 . S
C373 C372 1.340 . S
C373 C374 1.439 . S
C373 H413 0.950 . S
C374 C373 1.439 . S
C374 N375 1.374 . S
C374 C408 1.395 . S
N375 C371 1.376 . S
N375 C374 1.374 . S
N375 Co376 2.008 1_455 S
Co376 N375 2.008 1_655 S
Co376 N377 1.995 . S
Co376 N382 2.008 . S
Co376 N387 1.995 . S
Co376 N392 2.282 1_655 S
Co376 N398 2.282 . S
N377 Co376 1.995 . S
N377 C378 1.376 . S
N377 C381 1.383 . S
C378 N377 1.376 . S
C378 C379 1.446 . S
C378 C408 1.391 1_655 S
C379 C378 1.446 . S
C379 C380 1.339 . S
C379 H414 0.949 . S
C380 C379 1.339 . S
C380 C381 1.439 . S
C380 H415 0.950 . S
C381 N377 1.383 . S
C381 C380 1.439 . S
C381 C410 1.392 . S
N382 Co376 2.008 . S
N382 C383 1.376 . S
N382 C386 1.374 . S
C383 N382 1.376 . S
C383 C384 1.443 . S
C383 C410 1.389 . S
C384 C383 1.443 . S
C384 C385 1.340 . S
C384 H416 0.951 . S
C385 C384 1.340 . S
C385 C386 1.439 . S
C385 H417 0.950 . S
C386 N382 1.374 . S
C386 C385 1.439 . S
C386 C411 1.395 . S
N387 Co376 1.995 . S
N387 C388 1.376 . S
N387 C391 1.383 1_655 S
C388 N387 1.376 . S
C388 C389 1.446 . S
C388 C411 1.391 . S
C389 C388 1.446 . S
C389 C390 1.339 1_655 S
C389 H418 0.949 . S
C390 C389 1.339 1_455 S
C390 C391 1.439 . S
C390 H419 0.950 . S
C391 N387 1.383 1_455 S
C391 C390 1.439 . S
C391 C409 1.392 . S
N392 Co376 2.282 1_455 S
N392 C395 1.332 . S
N392 C397 1.332 . S
C393 C394 1.386 . S
C393 C396 1.388 . S
C394 C393 1.386 . S
C394 C395 1.382 . S
C394 H420 0.950 . S
C395 N392 1.332 . S
C395 C394 1.382 . S
C395 H406 0.952 . S
C396 C393 1.388 . S
C396 C397 1.382 . S
C396 H421 0.950 . S
C397 N392 1.332 . S
C397 C396 1.382 . S
C397 H407 0.948 . S
N398 Co376 2.282 . S
N398 C402 1.332 . S
N398 C403 1.332 . S
C399 C400 1.388 . S
C399 C403 1.382 . S
C399 H422 0.950 . S
C400 C399 1.388 . S
C400 C401 1.386 . S
C401 C400 1.386 . S
C401 C402 1.382 . S
C401 H423 0.950 . S
C402 N398 1.332 . S
C402 C401 1.382 . S
C402 H404 0.952 . S
C403 N398 1.332 . S
C403 C399 1.382 . S
C403 H405 0.948 . S
H404 C402 0.952 . S
H405 C403 0.948 . S
H406 C395 0.952 . S
H407 C397 0.948 . S
C408 C374 1.395 . S
C408 C378 1.391 1_455 S
C409 C371 1.389 . S
C409 C391 1.392 . S
C410 C381 1.392 . S
C410 C383 1.389 . S
C411 C386 1.395 . S
C411 C388 1.391 . S
H412 C372 0.951 . S
H413 C373 0.950 . S
H414 C379 0.949 . S
H415 C380 0.950 . S
H416 C384 0.951 . S
H417 C385 0.950 . S
H418 C389 0.949 . S
H419 C390 0.950 . S
H420 C394 0.950 . S
H421 C396 0.950 . S
H422 C399 0.950 . S
H423 C401 0.950 . S
C424 C425 1.443 . S
C424 N428 1.376 . S
C424 C462 1.389 . S
C425 C424 1.443 . S
C425 C426 1.340 . S
C425 H465 0.951 . S
C426 C425 1.340 . S
C426 C427 1.439 . S
C426 H466 0.950 . S
C427 C426 1.439 . S
C427 N428 1.374 . S
C427 C461 1.395 . S
N428 C424 1.376 . S
N428 C427 1.374 . S
N428 Co429 2.008 . S
Co429 N428 2.008 . S
Co429 N430 1.995 . S
Co429 N435 2.008 . S
Co429 N440 1.995 . S
Co429 N445 2.282 . S
Co429 N451 2.282 . S
N430 Co429 1.995 . S
N430 C431 1.376 . S
N430 C434 1.383 . S
C431 N430 1.376 . S
C431 C432 1.446 . S
C431 C461 1.391 . S
C432 C431 1.446 . S
C432 C433 1.339 . S
C432 H467 0.949 . S
C433 C432 1.339 . S
C433 C434 1.439 . S
C433 H468 0.950 . S
C434 N430 1.383 . S
C434 C433 1.439 . S
C434 C463 1.392 . S
N435 Co429 2.008 . S
N435 C436 1.376 . S
N435 C439 1.374 . S
C436 N435 1.376 . S
C436 C437 1.443 . S
C436 C463 1.389 . S
C437 C436 1.443 . S
C437 C438 1.340 . S
C437 H469 0.951 . S
C438 C437 1.340 . S
C438 C439 1.439 . S
C438 H470 0.950 . S
C439 N435 1.374 . S
C439 C438 1.439 . S
C439 C464 1.395 . S
N440 Co429 1.995 . S
N440 C441 1.376 . S
N440 C444 1.383 . S
C441 N440 1.376 . S
C441 C442 1.446 . S
C441 C464 1.391 . S
C442 C441 1.446 . S
C442 C443 1.339 . S
C442 H471 0.949 . S
C443 C442 1.339 . S
C443 C444 1.439 . S
C443 H472 0.950 . S
C444 N440 1.383 . S
C444 C443 1.439 . S
C444 C462 1.392 . S
N445 Co429 2.282 . S
N445 C448 1.332 . S
N445 C450 1.332 . S
C446 C447 1.386 . S
C446 C449 1.388 . S
C447 C446 1.386 . S
C447 C448 1.382 . S
C447 H473 0.950 . S
C448 N445 1.332 . S
C448 C447 1.382 . S
C448 H459 0.952 . S
C449 C446 1.388 . S
C449 C450 1.382 . S
C449 H474 0.950 . S
C450 N445 1.332 . S
C450 C449 1.382 . S
C450 H460 0.948 . S
N451 Co429 2.282 . S
N451 C455 1.332 . S
N451 C456 1.332 . S
C452 C453 1.388 . S
C452 C456 1.382 . S
C452 H475 0.950 . S
C453 C452 1.388 . S
C453 C454 1.386 . S
C454 C453 1.386 . S
C454 C455 1.382 . S
C454 H476 0.950 . S
C455 N451 1.332 . S
C455 C454 1.382 . S
C455 H457 0.952 . S
C456 N451 1.332 . S
C456 C452 1.382 . S
C456 H458 0.948 . S
H457 C455 0.952 . S
H458 C456 0.948 . S
H459 C448 0.952 . S
H460 C450 0.948 . S
C461 C427 1.395 . S
C461 C431 1.391 . S
C462 C424 1.389 . S
C462 C444 1.392 . S
C463 C434 1.392 . S
C463 C436 1.389 . S
C464 C439 1.395 . S
C464 C441 1.391 . S
H465 C425 0.951 . S
H466 C426 0.950 . S
H467 C432 0.949 . S
H468 C433 0.950 . S
H469 C437 0.951 . S
H470 C438 0.950 . S
H471 C442 0.949 . S
H472 C443 0.950 . S
H473 C447 0.950 . S
H474 C449 0.950 . S
H475 C452 0.950 . S
H476 C454 0.950 . S
C477 C478 1.443 1_455 S
C477 N481 1.376 . S
C477 C515 1.389 . S
C478 C477 1.443 1_655 S
C478 C479 1.340 . S
C478 H518 0.951 . S
C479 C478 1.340 . S
C479 C480 1.439 1_655 S
C479 H519 0.950 . S
C480 C479 1.439 1_455 S
C480 N481 1.374 . S
C480 C514 1.395 . S
N481 C477 1.376 . S
N481 C480 1.374 . S
N481 Co482 2.008 . S
Co482 N481 2.008 . S
Co482 N483 1.995 . S
Co482 N488 2.008 . S
Co482 N493 1.995 . S
Co482 N498 2.282 . S
Co482 N504 2.282 . S
N483 Co482 1.995 . S
N483 C484 1.376 . S
N483 C487 1.383 . S
C484 N483 1.376 . S
C484 C485 1.446 . S
C484 C514 1.391 . S
C485 C484 1.446 . S
C485 C486 1.339 . S
C485 H520 0.949 . S
C486 C485 1.339 . S
C486 C487 1.439 . S
C486 H521 0.950 . S
C487 N483 1.383 . S
C487 C486 1.439 . S
C487 C516 1.392 . S
N488 Co482 2.008 . S
N488 C489 1.376 . S
N488 C492 1.374 . S
C489 N488 1.376 . S
C489 C490 1.443 . S
C489 C516 1.389 . S
C490 C489 1.443 . S
C490 C491 1.340 . S
C490 H522 0.951 . S
C491 C490 1.340 . S
C491 C492 1.439 . S
C491 H523 0.950 . S
C492 N488 1.374 . S
C492 C491 1.439 . S
C492 C517 1.395 . S
N493 Co482 1.995 . S
N493 C494 1.376 . S
N493 C497 1.383 . S
C494 N493 1.376 . S
C494 C495 1.446 . S
C494 C517 1.391 . S
C495 C494 1.446 . S
C495 C496 1.339 . S
C495 H524 0.949 . S
C496 C495 1.339 . S
C496 C497 1.439 . S
C496 H525 0.950 . S
C497 N493 1.383 . S
C497 C496 1.439 . S
C497 C515 1.392 . S
N498 Co482 2.282 . S
N498 C501 1.332 . S
N498 C503 1.332 . S
C499 C500 1.386 . S
C499 C502 1.388 . S
C500 C499 1.386 . S
C500 C501 1.382 . S
C500 H526 0.950 . S
C501 N498 1.332 . S
C501 C500 1.382 . S
C501 H512 0.952 . S
C502 C499 1.388 . S
C502 C503 1.382 . S
C502 H527 0.950 . S
C503 N498 1.332 . S
C503 C502 1.382 . S
C503 H513 0.948 . S
N504 Co482 2.282 . S
N504 C508 1.332 . S
N504 C509 1.332 . S
C505 C506 1.388 . S
C505 C509 1.382 . S
C505 H528 0.950 . S
C506 C505 1.388 . S
C506 C507 1.386 . S
C507 C506 1.386 . S
C507 C508 1.382 . S
C507 H529 0.950 . S
C508 N504 1.332 . S
C508 C507 1.382 . S
C508 H510 0.952 . S
C509 N504 1.332 . S
C509 C505 1.382 . S
C509 H511 0.948 . S
H510 C508 0.952 . S
H511 C509 0.948 . S
H512 C501 0.952 . S
H513 C503 0.948 . S
C514 C480 1.395 . S
C514 C484 1.391 . S
C515 C477 1.389 . S
C515 C497 1.392 . S
C516 C487 1.392 . S
C516 C489 1.389 . S
C517 C492 1.395 . S
C517 C494 1.391 . S
H518 C478 0.951 . S
H519 C479 0.950 . S
H520 C485 0.949 . S
H521 C486 0.950 . S
H522 C490 0.951 . S
H523 C491 0.950 . S
H524 C495 0.949 . S
H525 C496 0.950 . S
H526 C500 0.950 . S
H527 C502 0.950 . S
H528 C505 0.950 . S
H529 C507 0.950 . S
C530 C531 1.443 . S
C530 N534 1.376 . S
C530 C568 1.389 . S
C531 C530 1.443 . S
C531 C532 1.340 . S
C531 H571 0.951 . S
C532 C531 1.340 . S
C532 C533 1.439 . S
C532 H572 0.950 . S
C533 C532 1.439 . S
C533 N534 1.374 . S
C533 C567 1.395 . S
N534 C530 1.376 . S
N534 C533 1.374 . S
N534 Co535 2.008 . S
Co535 N534 2.008 . S
Co535 N536 1.995 . S
Co535 N541 2.008 . S
Co535 N546 1.995 . S
Co535 N551 2.282 . S
Co535 N557 2.282 . S
N536 Co535 1.995 . S
N536 C537 1.376 . S
N536 C540 1.383 . S
C537 N536 1.376 . S
C537 C538 1.446 . S
C537 C567 1.391 . S
C538 C537 1.446 . S
C538 C539 1.339 . S
C538 H573 0.949 . S
C539 C538 1.339 . S
C539 C540 1.439 . S
C539 H574 0.950 . S
C540 N536 1.383 . S
C540 C539 1.439 . S
C540 C569 1.392 . S
N541 Co535 2.008 . S
N541 C542 1.376 . S
N541 C545 1.374 . S
C542 N541 1.376 . S
C542 C543 1.443 . S
C542 C569 1.389 . S
C543 C542 1.443 . S
C543 C544 1.340 . S
C543 H575 0.951 . S
C544 C543 1.340 . S
C544 C545 1.439 . S
C544 H576 0.950 . S
C545 N541 1.374 . S
C545 C544 1.439 . S
C545 C570 1.395 . S
N546 Co535 1.995 . S
N546 C547 1.376 . S
N546 C550 1.383 . S
C547 N546 1.376 . S
C547 C548 1.446 . S
C547 C570 1.391 . S
C548 C547 1.446 . S
C548 C549 1.339 . S
C548 H577 0.949 . S
C549 C548 1.339 . S
C549 C550 1.439 . S
C549 H578 0.950 . S
C550 N546 1.383 . S
C550 C549 1.439 . S
C550 C568 1.392 . S
N551 Co535 2.282 . S
N551 C554 1.332 . S
N551 C556 1.332 . S
C552 C553 1.386 . S
C552 C555 1.388 . S
C553 C552 1.386 . S
C553 C554 1.382 . S
C553 H579 0.950 . S
C554 N551 1.332 . S
C554 C553 1.382 . S
C554 H565 0.952 . S
C555 C552 1.388 . S
C555 C556 1.382 . S
C555 H580 0.950 . S
C556 N551 1.332 . S
C556 C555 1.382 . S
C556 H566 0.948 . S
N557 Co535 2.282 . S
N557 C561 1.332 . S
N557 C562 1.332 . S
C558 C559 1.388 . S
C558 C562 1.382 . S
C558 H581 0.950 . S
C559 C558 1.388 . S
C559 C560 1.386 . S
C560 C559 1.386 . S
C560 C561 1.382 . S
C560 H582 0.950 . S
C561 N557 1.332 . S
C561 C560 1.382 . S
C561 H563 0.952 . S
C562 N557 1.332 . S
C562 C558 1.382 . S
C562 H564 0.948 . S
H563 C561 0.952 . S
H564 C562 0.948 . S
H565 C554 0.952 . S
H566 C556 0.948 . S
C567 C533 1.395 . S
C567 C537 1.391 . S
C568 C530 1.389 . S
C568 C550 1.392 . S
C569 C540 1.392 . S
C569 C542 1.389 . S
C570 C545 1.395 . S
C570 C547 1.391 . S
H571 C531 0.951 . S
H572 C532 0.950 . S
H573 C538 0.949 . S
H574 C539 0.950 . S
H575 C543 0.951 . S
H576 C544 0.950 . S
H577 C548 0.949 . S
H578 C549 0.950 . S
H579 C553 0.950 . S
H580 C555 0.950 . S
H581 C558 0.950 . S
H582 C560 0.950 . S
C583 C584 1.443 . S
C583 N587 1.376 . S
C583 C621 1.389 . S
C584 C583 1.443 . S
C584 C585 1.340 . S
C584 H624 0.951 . S
C585 C584 1.340 . S
C585 C586 1.439 . S
C585 H625 0.950 . S
C586 C585 1.439 . S
C586 N587 1.374 . S
C586 C620 1.395 . S
N587 C583 1.376 . S
N587 C586 1.374 . S
N587 Co588 2.008 . S
Co588 N587 2.008 . S
Co588 N589 1.995 . S
Co588 N594 2.008 . S
Co588 N599 1.995 . S
Co588 N604 2.282 . S
Co588 N610 2.282 . S
N589 Co588 1.995 . S
N589 C590 1.376 . S
N589 C593 1.383 . S
C590 N589 1.376 . S
C590 C591 1.446 . S
C590 C620 1.391 . S
C591 C590 1.446 . S
C591 C592 1.339 . S
C591 H626 0.949 . S
C592 C591 1.339 . S
C592 C593 1.439 . S
C592 H627 0.950 . S
C593 N589 1.383 . S
C593 C592 1.439 . S
C593 C622 1.392 . S
N594 Co588 2.008 . S
N594 C595 1.376 . S
N594 C598 1.374 . S
C595 N594 1.376 . S
C595 C596 1.443 . S
C595 C622 1.389 . S
C596 C595 1.443 . S
C596 C597 1.340 . S
C596 H628 0.951 . S
C597 C596 1.340 . S
C597 C598 1.439 . S
C597 H629 0.950 . S
C598 N594 1.374 . S
C598 C597 1.439 . S
C598 C623 1.395 . S
N599 Co588 1.995 . S
N599 C600 1.376 . S
N599 C603 1.383 . S
C600 N599 1.376 . S
C600 C601 1.446 . S
C600 C623 1.391 . S
C601 C600 1.446 . S
C601 C602 1.339 . S
C601 H630 0.949 . S
C602 C601 1.339 . S
C602 C603 1.439 . S
C602 H631 0.950 1_554 S
C603 N599 1.383 . S
C603 C602 1.439 . S
C603 C621 1.392 . S
N604 Co588 2.282 . S
N604 C607 1.332 . S
N604 C609 1.332 . S
C605 C606 1.386 . S
C605 C608 1.388 . S
C606 C605 1.386 . S
C606 C607 1.382 . S
C606 H632 0.950 . S
C607 N604 1.332 . S
C607 C606 1.382 . S
C607 H618 0.952 . S
C608 C605 1.388 . S
C608 C609 1.382 . S
C608 H633 0.950 . S
C609 N604 1.332 . S
C609 C608 1.382 . S
C609 H619 0.948 . S
N610 Co588 2.282 . S
N610 C614 1.332 . S
N610 C615 1.332 . S
C611 C612 1.388 . S
C611 C615 1.382 . S
C611 H634 0.950 . S
C612 C611 1.388 . S
C612 C613 1.386 . S
C613 C612 1.386 . S
C613 C614 1.382 . S
C613 H635 0.950 . S
C614 N610 1.332 . S
C614 C613 1.382 . S
C614 H616 0.952 . S
C615 N610 1.332 . S
C615 C611 1.382 . S
C615 H617 0.948 . S
H616 C614 0.952 . S
H617 C615 0.948 . S
H618 C607 0.952 . S
H619 C609 0.948 . S
C620 C586 1.395 . S
C620 C590 1.391 . S
C621 C583 1.389 . S
C621 C603 1.392 . S
C622 C593 1.392 . S
C622 C595 1.389 . S
C623 C598 1.395 . S
C623 C600 1.391 . S
H624 C584 0.951 . S
H625 C585 0.950 . S
H626 C591 0.949 . S
H627 C592 0.950 . S
H628 C596 0.951 . S
H629 C597 0.950 . S
H630 C601 0.949 . S
H631 C602 0.950 1_556 S
H632 C606 0.950 . S
H633 C608 0.950 . S
H634 C611 0.950 . S
H635 C613 0.950 . S
C636 C637 1.443 . S
C636 N640 1.376 . S
C636 C674 1.389 . S
C637 C636 1.443 . S
C637 C638 1.340 . S
C637 H677 0.951 . S
C638 C637 1.340 . S
C638 C639 1.439 . S
C638 H678 0.950 . S
C639 C638 1.439 . S
C639 N640 1.374 . S
C639 C673 1.395 . S
N640 C636 1.376 . S
N640 C639 1.374 . S
N640 Co641 2.008 . S
Co641 N640 2.008 . S
Co641 N642 1.995 . S
Co641 N647 2.008 . S
Co641 N652 1.995 . S
Co641 N657 2.282 . S
Co641 N663 2.282 . S
N642 Co641 1.995 . S
N642 C643 1.376 . S
N642 C646 1.383 . S
C643 N642 1.376 . S
C643 C644 1.446 . S
C643 C673 1.391 . S
C644 C643 1.446 . S
C644 C645 1.339 . S
C644 H679 0.949 . S
C645 C644 1.339 . S
C645 C646 1.439 . S
C645 H680 0.950 . S
C646 N642 1.383 . S
C646 C645 1.439 . S
C646 C675 1.392 . S
N647 Co641 2.008 . S
N647 C648 1.376 . S
N647 C651 1.374 . S
C648 N647 1.376 . S
C648 C649 1.443 . S
C648 C675 1.389 . S
C649 C648 1.443 . S
C649 C650 1.340 . S
C649 H681 0.951 . S
C650 C649 1.340 . S
C650 C651 1.439 . S
C650 H682 0.950 . S
C651 N647 1.374 . S
C651 C650 1.439 . S
C651 C676 1.395 . S
N652 Co641 1.995 . S
N652 C653 1.376 . S
N652 C656 1.383 . S
C653 N652 1.376 . S
C653 C654 1.446 . S
C653 C676 1.391 . S
C654 C653 1.446 . S
C654 C655 1.339 . S
C654 H683 0.949 . S
C655 C654 1.339 . S
C655 C656 1.439 . S
C655 H684 0.950 . S
C656 N652 1.383 . S
C656 C655 1.439 . S
C656 C674 1.392 . S
N657 Co641 2.282 . S
N657 C660 1.332 . S
N657 C662 1.332 . S
C658 C659 1.386 . S
C658 C661 1.388 . S
C659 C658 1.386 . S
C659 C660 1.382 . S
C659 H685 0.950 . S
C660 N657 1.332 . S
C660 C659 1.382 . S
C660 H671 0.952 . S
C661 C658 1.388 . S
C661 C662 1.382 . S
C661 H686 0.950 . S
C662 N657 1.332 . S
C662 C661 1.382 . S
C662 H672 0.948 . S
N663 Co641 2.282 . S
N663 C667 1.332 . S
N663 C668 1.332 . S
C664 C665 1.388 . S
C664 C668 1.382 . S
C664 H687 0.950 . S
C665 C664 1.388 . S
C665 C666 1.386 . S
C666 C665 1.386 . S
C666 C667 1.382 . S
C666 H688 0.950 . S
C667 N663 1.332 . S
C667 C666 1.382 . S
C667 H669 0.952 . S
C668 N663 1.332 . S
C668 C664 1.382 . S
C668 H670 0.948 . S
H669 C667 0.952 . S
H670 C668 0.948 . S
H671 C660 0.952 . S
H672 C662 0.948 . S
C673 C639 1.395 . S
C673 C643 1.391 . S
C674 C636 1.389 . S
C674 C656 1.392 . S
C675 C646 1.392 . S
C675 C648 1.389 . S
C676 C651 1.395 . S
C676 C653 1.391 . S
H677 C637 0.951 . S
H678 C638 0.950 . S
H679 C644 0.949 . S
H680 C645 0.950 . S
H681 C649 0.951 . S
H682 C650 0.950 . S
H683 C654 0.949 . S
H684 C655 0.950 . S
H685 C659 0.950 . S
H686 C661 0.950 . S
H687 C664 0.950 . S
H688 C666 0.950 . S
C689 C690 1.443 . S
C689 N693 1.376 . S
C689 C727 1.389 . S
C690 C689 1.443 . S
C690 C691 1.340 . S
C690 H730 0.951 . S
C691 C690 1.340 . S
C691 C692 1.439 . S
C691 H731 0.950 . S
C692 C691 1.439 . S
C692 N693 1.374 . S
C692 C726 1.395 . S
N693 C689 1.376 . S
N693 C692 1.374 . S
N693 Co694 2.008 . S
Co694 N693 2.008 . S
Co694 N695 1.995 . S
Co694 N700 2.008 . S
Co694 N705 1.995 . S
Co694 N710 2.282 . S
Co694 N716 2.282 . S
N695 Co694 1.995 . S
N695 C696 1.376 . S
N695 C699 1.383 . S
C696 N695 1.376 . S
C696 C697 1.446 . S
C696 C726 1.391 . S
C697 C696 1.446 . S
C697 C698 1.339 . S
C697 H732 0.949 . S
C698 C697 1.339 . S
C698 C699 1.439 . S
C698 H733 0.950 . S
C699 N695 1.383 . S
C699 C698 1.439 . S
C699 C728 1.392 . S
N700 Co694 2.008 . S
N700 C701 1.376 . S
N700 C704 1.374 . S
C701 N700 1.376 . S
C701 C702 1.443 . S
C701 C728 1.389 . S
C702 C701 1.443 . S
C702 C703 1.340 . S
C702 H734 0.951 . S
C703 C702 1.340 . S
C703 C704 1.439 . S
C703 H735 0.950 . S
C704 N700 1.374 . S
C704 C703 1.439 . S
C704 C729 1.395 . S
N705 Co694 1.995 . S
N705 C706 1.376 . S
N705 C709 1.383 . S
C706 N705 1.376 . S
C706 C707 1.446 . S
C706 C729 1.391 . S
C707 C706 1.446 . S
C707 C708 1.339 . S
C707 H736 0.949 . S
C708 C707 1.339 . S
C708 C709 1.439 . S
C708 H737 0.950 . S
C709 N705 1.383 . S
C709 C708 1.439 . S
C709 C727 1.392 . S
N710 Co694 2.282 . S
N710 C713 1.332 . S
N710 C715 1.332 . S
C711 C712 1.386 . S
C711 C714 1.388 . S
C712 C711 1.386 . S
C712 C713 1.382 . S
C712 H738 0.950 . S
C713 N710 1.332 . S
C713 C712 1.382 . S
C713 H724 0.952 . S
C714 C711 1.388 . S
C714 C715 1.382 . S
C714 H739 0.950 . S
C715 N710 1.332 . S
C715 C714 1.382 . S
C715 H725 0.948 . S
N716 Co694 2.282 . S
N716 C720 1.332 . S
N716 C721 1.332 . S
C717 C718 1.388 . S
C717 C721 1.382 . S
C717 H740 0.950 . S
C718 C717 1.388 . S
C718 C719 1.386 . S
C719 C718 1.386 . S
C719 C720 1.382 . S
C719 H741 0.950 . S
C720 N716 1.332 . S
C720 C719 1.382 . S
C720 H722 0.952 . S
C721 N716 1.332 . S
C721 C717 1.382 . S
C721 H723 0.948 . S
H722 C720 0.952 . S
H723 C721 0.948 . S
H724 C713 0.952 . S
H725 C715 0.948 . S
C726 C692 1.395 . S
C726 C696 1.391 . S
C727 C689 1.389 . S
C727 C709 1.392 . S
C728 C699 1.392 . S
C728 C701 1.389 . S
C729 C704 1.395 . S
C729 C706 1.391 . S
H730 C690 0.951 . S
H731 C691 0.950 . S
H732 C697 0.949 . S
H733 C698 0.950 . S
H734 C702 0.951 . S
H735 C703 0.950 . S
H736 C707 0.949 . S
H737 C708 0.950 . S
H738 C712 0.950 . S
H739 C714 0.950 . S
H740 C717 0.950 . S
H741 C719 0.950 . S
C742 C743 1.443 . S
C742 N746 1.376 . S
C742 C780 1.389 . S
C743 C742 1.443 . S
C743 C744 1.340 . S
C743 H783 0.951 . S
C744 C743 1.340 . S
C744 C745 1.439 . S
C744 H784 0.950 . S
C745 C744 1.439 . S
C745 N746 1.374 . S
C745 C779 1.395 . S
N746 C742 1.376 . S
N746 C745 1.374 . S
N746 Co747 2.008 . S
Co747 N746 2.008 . S
Co747 N748 1.995 . S
Co747 N753 2.008 . S
Co747 N758 1.995 . S
Co747 N763 2.282 . S
Co747 N769 2.282 . S
N748 Co747 1.995 . S
N748 C749 1.376 . S
N748 C752 1.383 . S
C749 N748 1.376 . S
C749 C750 1.446 . S
C749 C779 1.391 . S
C750 C749 1.446 . S
C750 C751 1.339 . S
C750 H785 0.949 . S
C751 C750 1.339 . S
C751 C752 1.439 . S
C751 H786 0.950 . S
C752 N748 1.383 . S
C752 C751 1.439 . S
C752 C781 1.392 . S
N753 Co747 2.008 . S
N753 C754 1.376 . S
N753 C757 1.374 . S
C754 N753 1.376 . S
C754 C755 1.443 . S
C754 C781 1.389 . S
C755 C754 1.443 . S
C755 C756 1.340 . S
C755 H787 0.951 . S
C756 C755 1.340 . S
C756 C757 1.439 . S
C756 H788 0.950 . S
C757 N753 1.374 . S
C757 C756 1.439 . S
C757 C782 1.395 . S
N758 Co747 1.995 . S
N758 C759 1.376 . S
N758 C762 1.383 . S
C759 N758 1.376 . S
C759 C760 1.446 . S
C759 C782 1.391 . S
C760 C759 1.446 . S
C760 C761 1.339 . S
C760 H789 0.949 . S
C761 C760 1.339 . S
C761 C762 1.439 . S
C761 H790 0.950 . S
C762 N758 1.383 . S
C762 C761 1.439 . S
C762 C780 1.392 . S
N763 Co747 2.282 . S
N763 C766 1.332 . S
N763 C768 1.332 . S
C764 C765 1.386 . S
C764 C767 1.388 . S
C765 C764 1.386 . S
C765 C766 1.382 . S
C765 H791 0.950 . S
C766 N763 1.332 . S
C766 C765 1.382 . S
C766 H777 0.952 . S
C767 C764 1.388 . S
C767 C768 1.382 . S
C767 H792 0.950 . S
C768 N763 1.332 . S
C768 C767 1.382 . S
C768 H778 0.948 . S
N769 Co747 2.282 . S
N769 C773 1.332 . S
N769 C774 1.332 . S
C770 C771 1.388 . S
C770 C774 1.382 . S
C770 H793 0.950 . S
C771 C770 1.388 . S
C771 C772 1.386 . S
C772 C771 1.386 . S
C772 C773 1.382 . S
C772 H794 0.950 . S
C773 N769 1.332 . S
C773 C772 1.382 . S
C773 H775 0.952 . S
C774 N769 1.332 . S
C774 C770 1.382 . S
C774 H776 0.948 . S
H775 C773 0.952 . S
H776 C774 0.948 . S
H777 C766 0.952 . S
H778 C768 0.948 . S
C779 C745 1.395 . S
C779 C749 1.391 . S
C780 C742 1.389 . S
C780 C762 1.392 . S
C781 C752 1.392 . S
C781 C754 1.389 . S
C782 C757 1.395 . S
C782 C759 1.391 . S
H783 C743 0.951 . S
H784 C744 0.950 . S
H785 C750 0.949 . S
H786 C751 0.950 . S
H787 C755 0.951 . S
H788 C756 0.950 . S
H789 C760 0.949 . S
H790 C761 0.950 . S
H791 C765 0.950 . S
H792 C767 0.950 . S
H793 C770 0.950 . S
H794 C772 0.950 . S
C795 C796 1.443 1_455 S
C795 N799 1.376 . S
C795 C833 1.389 . S
C796 C795 1.443 1_655 S
C796 C797 1.340 . S
C796 H836 0.951 . S
C797 C796 1.340 . S
C797 C798 1.439 1_655 S
C797 H837 0.950 . S
C798 C797 1.439 1_455 S
C798 N799 1.374 . S
C798 C832 1.395 . S
N799 C795 1.376 . S
N799 C798 1.374 . S
N799 Co800 2.008 . S
Co800 N799 2.008 . S
Co800 N801 1.995 . S
Co800 N806 2.008 . S
Co800 N811 1.995 . S
Co800 N816 2.282 . S
Co800 N822 2.282 . S
N801 Co800 1.995 . S
N801 C802 1.376 . S
N801 C805 1.383 . S
C802 N801 1.376 . S
C802 C803 1.446 . S
C802 C832 1.391 . S
C803 C802 1.446 . S
C803 C804 1.339 . S
C803 H838 0.949 . S
C804 C803 1.339 . S
C804 C805 1.439 . S
C804 H839 0.950 . S
C805 N801 1.383 . S
C805 C804 1.439 . S
C805 C834 1.392 . S
N806 Co800 2.008 . S
N806 C807 1.376 . S
N806 C810 1.374 . S
C807 N806 1.376 . S
C807 C808 1.443 . S
C807 C834 1.389 . S
C808 C807 1.443 . S
C808 C809 1.340 . S
C808 H840 0.951 . S
C809 C808 1.340 . S
C809 C810 1.439 . S
C809 H841 0.950 . S
C810 N806 1.374 . S
C810 C809 1.439 . S
C810 C835 1.395 . S
N811 Co800 1.995 . S
N811 C812 1.376 . S
N811 C815 1.383 . S
C812 N811 1.376 . S
C812 C813 1.446 . S
C812 C835 1.391 . S
C813 C812 1.446 . S
C813 C814 1.339 . S
C813 H842 0.949 . S
C814 C813 1.339 . S
C814 C815 1.439 . S
C814 H843 0.950 1_556 S
C815 N811 1.383 . S
C815 C814 1.439 . S
C815 C833 1.392 . S
N816 Co800 2.282 . S
N816 C819 1.332 . S
N816 C821 1.332 . S
C817 C818 1.386 . S
C817 C820 1.388 . S
C818 C817 1.386 . S
C818 C819 1.382 . S
C818 H844 0.950 . S
C819 N816 1.332 . S
C819 C818 1.382 . S
C819 H830 0.952 . S
C820 C817 1.388 . S
C820 C821 1.382 . S
C820 H845 0.950 . S
C821 N816 1.332 . S
C821 C820 1.382 . S
C821 H831 0.948 . S
N822 Co800 2.282 . S
N822 C826 1.332 . S
N822 C827 1.332 . S
C823 C824 1.388 . S
C823 C827 1.382 . S
C823 H846 0.950 . S
C824 C823 1.388 . S
C824 C825 1.386 . S
C825 C824 1.386 . S
C825 C826 1.382 . S
C825 H847 0.950 . S
C826 N822 1.332 . S
C826 C825 1.382 . S
C826 H828 0.952 . S
C827 N822 1.332 . S
C827 C823 1.382 . S
C827 H829 0.948 . S
H828 C826 0.952 . S
H829 C827 0.948 . S
H830 C819 0.952 . S
H831 C821 0.948 . S
C832 C798 1.395 . S
C832 C802 1.391 . S
C833 C795 1.389 . S
C833 C815 1.392 . S
C834 C805 1.392 . S
C834 C807 1.389 . S
C835 C810 1.395 . S
C835 C812 1.391 . S
H836 C796 0.951 . S
H837 C797 0.950 . S
H838 C803 0.949 . S
H839 C804 0.950 . S
H840 C808 0.951 . S
H841 C809 0.950 . S
H842 C813 0.949 . S
H843 C814 0.950 1_554 S
H844 C818 0.950 . S
H845 C820 0.950 . S
H846 C823 0.950 . S
H847 C825 0.950 . S
C848 C849 1.443 . S
C848 N852 1.376 . S
C848 C886 1.389 . S
C849 C848 1.443 . S
C849 C850 1.340 . S
C849 H889 0.951 . S
C850 C849 1.340 . S
C850 C851 1.439 . S
C850 H890 0.950 . S
C851 C850 1.439 . S
C851 N852 1.374 . S
C851 C885 1.395 . S
N852 C848 1.376 . S
N852 C851 1.374 . S
N852 Co853 2.008 . S
Co853 N852 2.008 . S
Co853 N854 1.995 . S
Co853 N859 2.008 . S
Co853 N864 1.995 . S
Co853 N869 2.282 . S
Co853 N875 2.282 . S
N854 Co853 1.995 . S
N854 C855 1.376 . S
N854 C858 1.383 . S
C855 N854 1.376 . S
C855 C856 1.446 . S
C855 C885 1.391 . S
C856 C855 1.446 . S
C856 C857 1.339 . S
C856 H891 0.949 . S
C857 C856 1.339 . S
C857 C858 1.439 . S
C857 H892 0.950 . S
C858 N854 1.383 . S
C858 C857 1.439 . S
C858 C887 1.392 . S
N859 Co853 2.008 . S
N859 C860 1.376 . S
N859 C863 1.374 . S
C860 N859 1.376 . S
C860 C861 1.443 . S
C860 C887 1.389 . S
C861 C860 1.443 . S
C861 C862 1.340 . S
C861 H893 0.951 . S
C862 C861 1.340 . S
C862 C863 1.439 . S
C862 H894 0.950 . S
C863 N859 1.374 . S
C863 C862 1.439 . S
C863 C888 1.395 . S
N864 Co853 1.995 . S
N864 C865 1.376 . S
N864 C868 1.383 . S
C865 N864 1.376 . S
C865 C866 1.446 . S
C865 C888 1.391 . S
C866 C865 1.446 . S
C866 C867 1.339 . S
C866 H895 0.949 . S
C867 C866 1.339 . S
C867 C868 1.439 . S
C867 H896 0.950 . S
C868 N864 1.383 . S
C868 C867 1.439 . S
C868 C886 1.392 . S
N869 Co853 2.282 . S
N869 C872 1.332 . S
N869 C874 1.332 . S
C870 C871 1.386 . S
C870 C873 1.388 . S
C871 C870 1.386 . S
C871 C872 1.382 . S
C871 H897 0.950 . S
C872 N869 1.332 . S
C872 C871 1.382 . S
C872 H883 0.952 . S
C873 C870 1.388 . S
C873 C874 1.382 . S
C873 H898 0.950 . S
C874 N869 1.332 . S
C874 C873 1.382 . S
C874 H884 0.948 . S
N875 Co853 2.282 . S
N875 C879 1.332 . S
N875 C880 1.332 . S
C876 C877 1.388 . S
C876 C880 1.382 . S
C876 H899 0.950 . S
C877 C876 1.388 . S
C877 C878 1.386 . S
C878 C877 1.386 . S
C878 C879 1.382 . S
C878 H900 0.950 . S
C879 N875 1.332 . S
C879 C878 1.382 . S
C879 H881 0.952 . S
C880 N875 1.332 . S
C880 C876 1.382 . S
C880 H882 0.948 . S
H881 C879 0.952 . S
H882 C880 0.948 . S
H883 C872 0.952 . S
H884 C874 0.948 . S
C885 C851 1.395 . S
C885 C855 1.391 . S
C886 C848 1.389 . S
C886 C868 1.392 . S
C887 C858 1.392 . S
C887 C860 1.389 . S
C888 C863 1.395 . S
C888 C865 1.391 . S
H889 C849 0.951 . S
H890 C850 0.950 . S
H891 C856 0.949 . S
H892 C857 0.950 . S
H893 C861 0.951 . S
H894 C862 0.950 . S
H895 C866 0.949 . S
H896 C867 0.950 . S
H897 C871 0.950 . S
H898 C873 0.950 . S
H899 C876 0.950 . S
H900 C878 0.950 . S
C901 C902 1.443 . S
C901 N905 1.376 . S
C901 C939 1.389 . S
C902 C901 1.443 . S
C902 C903 1.340 . S
C902 H942 0.951 . S
C903 C902 1.340 . S
C903 C904 1.439 . S
C903 H943 0.950 . S
C904 C903 1.439 . S
C904 N905 1.374 . S
C904 C938 1.395 . S
N905 C901 1.376 . S
N905 C904 1.374 . S
N905 Co906 2.008 . S
Co906 N905 2.008 . S
Co906 N907 1.995 . S
Co906 N912 2.008 . S
Co906 N917 1.995 . S
Co906 N922 2.282 . S
Co906 N928 2.282 . S
N907 Co906 1.995 . S
N907 C908 1.376 . S
N907 C911 1.383 . S
C908 N907 1.376 . S
C908 C909 1.446 . S
C908 C938 1.391 . S
C909 C908 1.446 . S
C909 C910 1.339 . S
C909 H944 0.949 . S
C910 C909 1.339 . S
C910 C911 1.439 . S
C910 H945 0.950 . S
C911 N907 1.383 . S
C911 C910 1.439 . S
C911 C940 1.392 . S
N912 Co906 2.008 . S
N912 C913 1.376 . S
N912 C916 1.374 . S
C913 N912 1.376 . S
C913 C914 1.443 . S
C913 C940 1.389 . S
C914 C913 1.443 . S
C914 C915 1.340 . S
C914 H946 0.951 . S
C915 C914 1.340 . S
C915 C916 1.439 . S
C915 H947 0.950 . S
C916 N912 1.374 . S
C916 C915 1.439 . S
C916 C941 1.395 . S
N917 Co906 1.995 . S
N917 C918 1.376 . S
N917 C921 1.383 . S
C918 N917 1.376 . S
C918 C919 1.446 . S
C918 C941 1.391 . S
C919 C918 1.446 . S
C919 C920 1.339 . S
C919 H948 0.949 . S
C920 C919 1.339 . S
C920 C921 1.439 . S
C920 H949 0.950 . S
C921 N917 1.383 . S
C921 C920 1.439 . S
C921 C939 1.392 . S
N922 Co906 2.282 . S
N922 C925 1.332 . S
N922 C927 1.332 . S
C923 C924 1.386 . S
C923 C926 1.388 . S
C924 C923 1.386 . S
C924 C925 1.382 . S
C924 H950 0.950 . S
C925 N922 1.332 . S
C925 C924 1.382 . S
C925 H936 0.952 . S
C926 C923 1.388 . S
C926 C927 1.382 . S
C926 H951 0.950 . S
C927 N922 1.332 . S
C927 C926 1.382 . S
C927 H937 0.948 . S
N928 Co906 2.282 . S
N928 C932 1.332 . S
N928 C933 1.332 . S
C929 C930 1.388 . S
C929 C933 1.382 . S
C929 H952 0.950 . S
C930 C929 1.388 . S
C930 C931 1.386 . S
C931 C930 1.386 . S
C931 C932 1.382 . S
C931 H953 0.950 . S
C932 N928 1.332 . S
C932 C931 1.382 . S
C932 H934 0.952 . S
C933 N928 1.332 . S
C933 C929 1.382 . S
C933 H935 0.948 . S
H934 C932 0.952 . S
H935 C933 0.948 . S
H936 C925 0.952 . S
H937 C927 0.948 . S
C938 C904 1.395 . S
C938 C908 1.391 . S
C939 C901 1.389 . S
C939 C921 1.392 . S
C940 C911 1.392 . S
C940 C913 1.389 . S
C941 C916 1.395 . S
C941 C918 1.391 . S
H942 C902 0.951 . S
H943 C903 0.950 . S
H944 C909 0.949 . S
H945 C910 0.950 . S
H946 C914 0.951 . S
H947 C915 0.950 . S
H948 C919 0.949 . S
H949 C920 0.950 . S
H950 C924 0.950 . S
H951 C926 0.950 . S
H952 C929 0.950 . S
H953 C931 0.950 . S
C954 C955 1.443 1_554 S
C954 N958 1.376 . S
C954 C992 1.389 . S
C955 C954 1.443 1_556 S
C955 C956 1.340 . S
C955 H995 0.951 . S
C956 C955 1.340 . S
C956 C957 1.439 1_556 S
C956 H996 0.950 . S
C957 C956 1.439 1_554 S
C957 N958 1.374 . S
C957 C991 1.395 . S
N958 C954 1.376 . S
N958 C957 1.374 . S
N958 Co959 2.008 . S
Co959 N958 2.008 . S
Co959 N960 1.995 . S
Co959 N965 2.008 . S
Co959 N970 1.995 . S
Co959 N975 2.282 . S
Co959 N981 2.282 . S
N960 Co959 1.995 . S
N960 C961 1.376 . S
N960 C964 1.383 . S
C961 N960 1.376 . S
C961 C962 1.446 . S
C961 C991 1.391 . S
C962 C961 1.446 . S
C962 C963 1.339 . S
C962 H997 0.949 . S
C963 C962 1.339 . S
C963 C964 1.439 . S
C963 H998 0.950 . S
C964 N960 1.383 . S
C964 C963 1.439 . S
C964 C993 1.392 . S
N965 Co959 2.008 . S
N965 C966 1.376 . S
N965 C969 1.374 . S
C966 N965 1.376 . S
C966 C967 1.443 . S
C966 C993 1.389 . S
C967 C966 1.443 . S
C967 C968 1.340 . S
C967 H999 0.951 . S
C968 C967 1.340 . S
C968 C969 1.439 . S
C968 H1000 0.950 . S
C969 N965 1.374 . S
C969 C968 1.439 . S
C969 C994 1.395 . S
N970 Co959 1.995 . S
N970 C971 1.376 . S
N970 C974 1.383 . S
C971 N970 1.376 . S
C971 C972 1.446 . S
C971 C994 1.391 . S
C972 C971 1.446 . S
C972 C973 1.339 . S
C972 H1001 0.949 . S
C973 C972 1.339 . S
C973 C974 1.439 . S
C973 H1002 0.950 . S
C974 N970 1.383 . S
C974 C973 1.439 . S
C974 C992 1.392 . S
N975 Co959 2.282 . S
N975 C978 1.332 . S
N975 C980 1.332 . S
C976 C977 1.386 . S
C976 C979 1.388 . S
C977 C976 1.386 . S
C977 C978 1.382 . S
C977 H1003 0.950 . S
C978 N975 1.332 . S
C978 C977 1.382 . S
C978 H989 0.952 . S
C979 C976 1.388 . S
C979 C980 1.382 . S
C979 H1004 0.950 . S
C980 N975 1.332 . S
C980 C979 1.382 . S
C980 H990 0.948 . S
N981 Co959 2.282 . S
N981 C985 1.332 . S
N981 C986 1.332 . S
C982 C983 1.388 . S
C982 C986 1.382 . S
C982 H1005 0.950 . S
C983 C982 1.388 . S
C983 C984 1.382 1_554 S
C984 C983 1.382 1_556 S
C984 C985 1.367 1_556 S
C984 H1006 0.969 . S
C985 N981 1.332 . S
C985 C984 1.367 1_554 S
C985 H987 0.952 . S
C986 N981 1.332 . S
C986 C982 1.382 . S
C986 H988 0.948 . S
H987 C985 0.952 . S
H988 C986 0.948 . S
H989 C978 0.952 . S
H990 C980 0.948 . S
C991 C957 1.395 . S
C991 C961 1.391 . S
C992 C954 1.389 . S
C992 C974 1.392 . S
C993 C964 1.392 . S
C993 C966 1.389 . S
C994 C969 1.395 . S
C994 C971 1.391 . S
H995 C955 0.951 . S
H996 C956 0.950 . S
H997 C962 0.949 . S
H998 C963 0.950 . S
H999 C967 0.951 . S
H1000 C968 0.950 . S
H1001 C972 0.949 . S
H1002 C973 0.950 . S
H1003 C977 0.950 . S
H1004 C979 0.950 . S
H1005 C982 0.950 . S
H1006 C984 0.969 . S
C1007 C1008 1.443 . S
C1007 N1011 1.376 . S
C1007 C1045 1.389 . S
C1008 C1007 1.443 . S
C1008 C1009 1.340 . S
C1008 H1048 0.951 . S
C1009 C1008 1.340 . S
C1009 C1010 1.439 . S
C1009 H1049 0.950 . S
C1010 C1009 1.439 . S
C1010 N1011 1.374 . S
C1010 C1044 1.395 . S
N1011 C1007 1.376 . S
N1011 C1010 1.374 . S
N1011 Co1012 2.008 . S
Co1012 N1011 2.008 . S
Co1012 N1013 1.995 . S
Co1012 N1018 2.008 . S
Co1012 N1023 1.995 . S
Co1012 N1028 2.282 . S
Co1012 N1034 2.282 . S
N1013 Co1012 1.995 . S
N1013 C1014 1.376 . S
N1013 C1017 1.383 . S
C1014 N1013 1.376 . S
C1014 C1015 1.446 . S
C1014 C1044 1.391 . S
C1015 C1014 1.446 . S
C1015 C1016 1.339 . S
C1015 H1050 0.949 . S
C1016 C1015 1.339 . S
C1016 C1017 1.439 . S
C1016 H1051 0.950 . S
C1017 N1013 1.383 . S
C1017 C1016 1.439 . S
C1017 C1046 1.392 . S
N1018 Co1012 2.008 . S
N1018 C1019 1.376 . S
N1018 C1022 1.374 . S
C1019 N1018 1.376 . S
C1019 C1020 1.443 . S
C1019 C1046 1.389 . S
C1020 C1019 1.443 . S
C1020 C1021 1.340 . S
C1020 H1052 0.951 . S
C1021 C1020 1.340 . S
C1021 C1022 1.439 . S
C1021 H1053 0.950 . S
C1022 N1018 1.374 . S
C1022 C1021 1.439 . S
C1022 C1047 1.395 . S
N1023 Co1012 1.995 . S
N1023 C1024 1.376 . S
N1023 C1027 1.383 . S
C1024 N1023 1.376 . S
C1024 C1025 1.446 . S
C1024 C1047 1.391 . S
C1025 C1024 1.446 . S
C1025 C1026 1.339 . S
C1025 H1054 0.949 . S
C1026 C1025 1.339 . S
C1026 C1027 1.439 . S
C1026 H1055 0.950 . S
C1027 N1023 1.383 . S
C1027 C1026 1.439 . S
C1027 C1045 1.392 . S
N1028 Co1012 2.282 . S
N1028 C1031 1.332 . S
N1028 C1033 1.332 . S
C1029 C1030 1.386 . S
C1029 C1032 1.388 . S
C1030 C1029 1.386 . S
C1030 C1031 1.382 . S
C1030 H1056 0.950 . S
C1031 N1028 1.332 . S
C1031 C1030 1.382 . S
C1031 H1042 0.952 . S
C1032 C1029 1.388 . S
C1032 C1033 1.382 . S
C1032 H1057 0.950 . S
C1033 N1028 1.332 . S
C1033 C1032 1.382 . S
C1033 H1043 0.948 . S
N1034 Co1012 2.282 . S
N1034 C1038 1.332 . S
N1034 C1039 1.332 . S
C1035 C1036 1.388 . S
C1035 C1039 1.382 . S
C1035 H1058 0.950 . S
C1036 C1035 1.388 . S
C1036 C1037 1.386 . S
C1037 C1036 1.386 . S
C1037 C1038 1.382 . S
C1037 H1059 0.950 . S
C1038 N1034 1.332 . S
C1038 C1037 1.382 . S
C1038 H1040 0.952 . S
C1039 N1034 1.332 . S
C1039 C1035 1.382 . S
C1039 H1041 0.948 . S
H1040 C1038 0.952 . S
H1041 C1039 0.948 . S
H1042 C1031 0.952 . S
H1043 C1033 0.948 . S
C1044 C1010 1.395 . S
C1044 C1014 1.391 . S
C1045 C1007 1.389 . S
C1045 C1027 1.392 . S
C1046 C1017 1.392 . S
C1046 C1019 1.389 . S
C1047 C1022 1.395 . S
C1047 C1024 1.391 . S
H1048 C1008 0.951 . S
H1049 C1009 0.950 . S
H1050 C1015 0.949 . S
H1051 C1016 0.950 . S
H1052 C1020 0.951 . S
H1053 C1021 0.950 . S
H1054 C1025 0.949 . S
H1055 C1026 0.950 . S
H1056 C1030 0.950 . S
H1057 C1032 0.950 . S
H1058 C1035 0.950 . S
H1059 C1037 0.950 . S
C1060 C1061 1.443 1_554 S
C1060 N1064 1.376 1_545 S
C1060 C1098 1.389 . S
C1061 C1060 1.443 1_556 S
C1061 C1062 1.340 1_545 S
C1061 H1101 0.951 . S
C1062 C1061 1.340 1_565 S
C1062 C1063 1.439 1_556 S
C1062 H1102 0.950 . S
C1063 C1062 1.439 1_554 S
C1063 N1064 1.374 . S
C1063 C1097 1.395 . S
N1064 C1060 1.376 1_565 S
N1064 C1063 1.374 . S
N1064 Co1065 2.008 . S
Co1065 N1064 2.008 . S
Co1065 N1066 1.995 . S
Co1065 N1071 2.008 . S
Co1065 N1076 2.025 . S
Co1065 N1081 2.282 1_565 S
Co1065 N1087 2.282 . S
N1066 Co1065 1.995 . S
N1066 C1067 1.376 . S
N1066 C1070 1.383 . S
C1067 N1066 1.376 . S
C1067 C1068 1.446 . S
C1067 C1097 1.391 . S
C1068 C1067 1.446 . S
C1068 C1069 1.339 . S
C1068 H1103 0.949 . S
C1069 C1068 1.339 . S
C1069 C1070 1.439 . S
C1069 H1104 0.950 . S
C1070 N1066 1.383 . S
C1070 C1069 1.439 . S
C1070 C1099 1.392 . S
N1071 Co1065 2.008 . S
N1071 C1072 1.376 . S
N1071 C1075 1.374 . S
C1072 N1071 1.376 . S
C1072 C1073 1.443 . S
C1072 C1099 1.389 . S
C1073 C1072 1.443 . S
C1073 C1074 1.340 . S
C1073 H1105 0.951 . S
C1074 C1073 1.340 . S
C1074 C1075 1.439 . S
C1074 H1106 0.950 . S
C1075 N1071 1.374 . S
C1075 C1074 1.439 . S
C1075 C1100 1.395 . S
N1076 Co1065 2.025 . S
N1076 C1077 1.372 1_565 S
N1076 C1080 1.355 1_565 S
C1077 N1076 1.372 1_545 S
C1077 C1078 1.446 . S
C1077 C1100 1.391 1_545 S
C1078 C1077 1.446 . S
C1078 C1079 1.339 . S
C1078 H1107 0.949 . S
C1079 C1078 1.339 . S
C1079 C1080 1.439 . S
C1079 H1108 0.950 . S
C1080 N1076 1.355 1_545 S
C1080 C1079 1.439 . S
C1080 C1098 1.392 . S
N1081 Co1065 2.282 1_545 S
N1081 C1084 1.332 . S
N1081 C1086 1.334 . S
C1082 C1083 1.386 . S
C1082 C1085 1.388 . S
C1083 C1082 1.386 . S
C1083 C1084 1.382 . S
C1083 H1109 0.950 . S
C1084 N1081 1.332 . S
C1084 C1083 1.382 . S
C1084 H1095 0.952 . S
C1085 C1082 1.388 . S
C1085 C1086 1.398 . S
C1085 H1110 0.950 . S
C1086 N1081 1.334 . S
C1086 C1085 1.398 . S
C1086 H1096 0.930 1_545 S
N1087 Co1065 2.282 . S
N1087 C1091 1.332 . S
N1087 C1092 1.332 . S
C1088 C1089 1.388 . S
C1088 C1092 1.382 . S
C1088 H1111 0.950 . S
C1089 C1088 1.388 . S
C1089 C1090 1.382 1_554 S
C1090 C1089 1.382 1_556 S
C1090 C1091 1.367 1_556 S
C1090 H1112 0.969 . S
C1091 N1087 1.332 . S
C1091 C1090 1.367 1_554 S
C1091 H1093 0.952 . S
C1092 N1087 1.332 . S
C1092 C1088 1.382 . S
C1092 H1094 0.948 . S
H1093 C1091 0.952 . S
H1094 C1092 0.948 . S
H1095 C1084 0.952 . S
H1096 C1086 0.930 1_565 S
C1097 C1063 1.395 . S
C1097 C1067 1.391 . S
C1098 C1060 1.389 . S
C1098 C1080 1.392 . S
C1099 C1070 1.392 . S
C1099 C1072 1.389 . S
C1100 C1075 1.395 . S
C1100 C1077 1.391 1_565 S
H1101 C1061 0.951 . S
H1102 C1062 0.950 . S
H1103 C1068 0.949 . S
H1104 C1069 0.950 . S
H1105 C1073 0.951 . S
H1106 C1074 0.950 . S
H1107 C1078 0.949 . S
H1108 C1079 0.950 . S
H1109 C1083 0.950 . S
H1110 C1085 0.950 . S
H1111 C1088 0.950 . S
H1112 C1090 0.969 . S
C1113 C1114 1.443 . S
C1113 N1117 1.376 . S
C1113 C1151 1.389 . S
C1114 C1113 1.443 . S
C1114 C1115 1.340 . S
C1114 H1154 0.951 . S
C1115 C1114 1.340 . S
C1115 C1116 1.439 . S
C1115 H1155 0.950 . S
C1116 C1115 1.439 . S
C1116 N1117 1.374 . S
C1116 C1150 1.395 . S
N1117 C1113 1.376 . S
N1117 C1116 1.374 . S
N1117 Co1118 2.008 . S
Co1118 N1117 2.008 . S
Co1118 N1119 1.995 . S
Co1118 N1124 2.008 . S
Co1118 N1129 1.995 . S
Co1118 N1134 2.282 . S
Co1118 N1140 2.282 . S
N1119 Co1118 1.995 . S
N1119 C1120 1.376 . S
N1119 C1123 1.383 . S
C1120 N1119 1.376 . S
C1120 C1121 1.446 . S
C1120 C1150 1.391 . S
C1121 C1120 1.446 . S
C1121 C1122 1.339 . S
C1121 H1156 0.949 . S
C1122 C1121 1.339 . S
C1122 C1123 1.439 . S
C1122 H1157 0.950 . S
C1123 N1119 1.383 . S
C1123 C1122 1.439 . S
C1123 C1152 1.392 . S
N1124 Co1118 2.008 . S
N1124 C1125 1.376 . S
N1124 C1128 1.374 . S
C1125 N1124 1.376 . S
C1125 C1126 1.443 . S
C1125 C1152 1.389 . S
C1126 C1125 1.443 . S
C1126 C1127 1.340 . S
C1126 H1158 0.951 . S
C1127 C1126 1.340 . S
C1127 C1128 1.439 . S
C1127 H1159 0.950 . S
C1128 N1124 1.374 . S
C1128 C1127 1.439 . S
C1128 C1153 1.395 . S
N1129 Co1118 1.995 . S
N1129 C1130 1.376 . S
N1129 C1133 1.383 . S
C1130 N1129 1.376 . S
C1130 C1131 1.446 . S
C1130 C1153 1.391 . S
C1131 C1130 1.446 . S
C1131 C1132 1.339 . S
C1131 H1160 0.949 . S
C1132 C1131 1.339 . S
C1132 C1133 1.439 . S
C1132 H1161 0.950 . S
C1133 N1129 1.383 . S
C1133 C1132 1.439 . S
C1133 C1151 1.392 . S
N1134 Co1118 2.282 . S
N1134 C1137 1.332 . S
N1134 C1139 1.332 . S
C1135 C1136 1.386 . S
C1135 C1138 1.388 . S
C1136 C1135 1.386 . S
C1136 C1137 1.382 . S
C1136 H1162 0.950 . S
C1137 N1134 1.332 . S
C1137 C1136 1.382 . S
C1137 H1148 0.952 . S
C1138 C1135 1.388 . S
C1138 C1139 1.382 . S
C1138 H1163 0.950 . S
C1139 N1134 1.332 . S
C1139 C1138 1.382 . S
C1139 H1149 0.948 . S
N1140 Co1118 2.282 . S
N1140 C1144 1.332 . S
N1140 C1145 1.332 . S
C1141 C1142 1.388 . S
C1141 C1145 1.382 . S
C1141 H1164 0.950 . S
C1142 C1141 1.388 . S
C1142 C1143 1.386 . S
C1143 C1142 1.386 . S
C1143 C1144 1.382 . S
C1143 H1165 0.950 . S
C1144 N1140 1.332 . S
C1144 C1143 1.382 . S
C1144 H1146 0.952 . S
C1145 N1140 1.332 . S
C1145 C1141 1.382 . S
C1145 H1147 0.948 . S
H1146 C1144 0.952 . S
H1147 C1145 0.948 . S
H1148 C1137 0.952 . S
H1149 C1139 0.948 . S
C1150 C1116 1.395 . S
C1150 C1120 1.391 . S
C1151 C1113 1.389 . S
C1151 C1133 1.392 . S
C1152 C1123 1.392 . S
C1152 C1125 1.389 . S
C1153 C1128 1.395 . S
C1153 C1130 1.391 . S
H1154 C1114 0.951 . S
H1155 C1115 0.950 . S
H1156 C1121 0.949 . S
H1157 C1122 0.950 . S
H1158 C1126 0.951 . S
H1159 C1127 0.950 . S
H1160 C1131 0.949 . S
H1161 C1132 0.950 . S
H1162 C1136 0.950 . S
H1163 C1138 0.950 . S
H1164 C1141 0.950 . S
H1165 C1143 0.950 . S
C1166 C1167 1.443 . S
C1166 N1170 1.376 . S
C1166 C1204 1.389 . S
C1167 C1166 1.443 . S
C1167 C1168 1.340 . S
C1167 H1207 0.951 . S
C1168 C1167 1.340 . S
C1168 C1169 1.439 . S
C1168 H1208 0.950 . S
C1169 C1168 1.439 . S
C1169 N1170 1.374 . S
C1169 C1203 1.395 . S
N1170 C1166 1.376 . S
N1170 C1169 1.374 . S
N1170 Co1171 2.008 . S
Co1171 N1170 2.008 . S
Co1171 N1172 1.995 . S
Co1171 N1177 2.008 . S
Co1171 N1182 1.995 . S
Co1171 N1187 2.282 . S
Co1171 N1193 2.282 . S
N1172 Co1171 1.995 . S
N1172 C1173 1.376 . S
N1172 C1176 1.383 . S
C1173 N1172 1.376 . S
C1173 C1174 1.446 . S
C1173 C1203 1.391 . S
C1174 C1173 1.446 . S
C1174 C1175 1.339 . S
C1174 H1209 0.949 . S
C1175 C1174 1.339 . S
C1175 C1176 1.439 . S
C1175 H1210 0.950 . S
C1176 N1172 1.383 . S
C1176 C1175 1.439 . S
C1176 C1205 1.392 . S
N1177 Co1171 2.008 . S
N1177 C1178 1.376 . S
N1177 C1181 1.374 . S
C1178 N1177 1.376 . S
C1178 C1179 1.443 . S
C1178 C1205 1.389 . S
C1179 C1178 1.443 . S
C1179 C1180 1.340 . S
C1179 H1211 0.951 . S
C1180 C1179 1.340 . S
C1180 C1181 1.439 . S
C1180 H1212 0.950 . S
C1181 N1177 1.374 . S
C1181 C1180 1.439 . S
C1181 C1206 1.395 . S
N1182 Co1171 1.995 . S
N1182 C1183 1.376 . S
N1182 C1186 1.383 . S
C1183 N1182 1.376 . S
C1183 C1184 1.446 . S
C1183 C1206 1.391 . S
C1184 C1183 1.446 . S
C1184 C1185 1.339 . S
C1184 H1213 0.949 . S
C1185 C1184 1.339 . S
C1185 C1186 1.439 . S
C1185 H1214 0.950 . S
C1186 N1182 1.383 . S
C1186 C1185 1.439 . S
C1186 C1204 1.392 . S
N1187 Co1171 2.282 . S
N1187 C1190 1.332 . S
N1187 C1192 1.332 . S
C1188 C1189 1.386 . S
C1188 C1191 1.388 . S
C1189 C1188 1.386 . S
C1189 C1190 1.382 . S
C1189 H1215 0.950 . S
C1190 N1187 1.332 . S
C1190 C1189 1.382 . S
C1190 H1201 0.952 . S
C1191 C1188 1.388 . S
C1191 C1192 1.382 . S
C1191 H1216 0.950 . S
C1192 N1187 1.332 . S
C1192 C1191 1.382 . S
C1192 H1202 0.948 . S
N1193 Co1171 2.282 . S
N1193 C1197 1.332 . S
N1193 C1198 1.332 . S
C1194 C1195 1.388 . S
C1194 C1198 1.382 . S
C1194 H1217 0.950 . S
C1195 C1194 1.388 . S
C1195 C1196 1.386 . S
C1196 C1195 1.386 . S
C1196 C1197 1.382 . S
C1196 H1218 0.950 . S
C1197 N1193 1.332 . S
C1197 C1196 1.382 . S
C1197 H1199 0.952 . S
C1198 N1193 1.332 . S
C1198 C1194 1.382 . S
C1198 H1200 0.948 . S
H1199 C1197 0.952 . S
H1200 C1198 0.948 . S
H1201 C1190 0.952 . S
H1202 C1192 0.948 . S
C1203 C1169 1.395 . S
C1203 C1173 1.391 . S
C1204 C1166 1.389 . S
C1204 C1186 1.392 . S
C1205 C1176 1.392 . S
C1205 C1178 1.389 . S
C1206 C1181 1.395 . S
C1206 C1183 1.391 . S
H1207 C1167 0.951 . S
H1208 C1168 0.950 . S
H1209 C1174 0.949 . S
H1210 C1175 0.950 . S
H1211 C1179 0.951 . S
H1212 C1180 0.950 . S
H1213 C1184 0.949 . S
H1214 C1185 0.950 . S
H1215 C1189 0.950 . S
H1216 C1191 0.950 . S
H1217 C1194 0.950 . S
H1218 C1196 0.950 . S
C1219 C1220 1.443 1_556 S
C1219 N1223 1.376 . S
C1219 C1257 1.389 . S
C1220 C1219 1.443 1_554 S
C1220 C1221 1.340 . S
C1220 H1260 0.951 . S
C1221 C1220 1.340 . S
C1221 C1222 1.439 1_554 S
C1221 H1261 0.950 . S
C1222 C1221 1.439 1_556 S
C1222 N1223 1.374 . S
C1222 C1256 1.395 . S
N1223 C1219 1.376 . S
N1223 C1222 1.374 . S
N1223 Co1224 2.008 . S
Co1224 N1223 2.008 . S
Co1224 N1225 1.995 . S
Co1224 N1230 2.008 . S
Co1224 N1235 1.995 . S
Co1224 N1240 2.282 . S
Co1224 N1246 2.282 . S
N1225 Co1224 1.995 . S
N1225 C1226 1.376 . S
N1225 C1229 1.383 . S
C1226 N1225 1.376 . S
C1226 C1227 1.446 . S
C1226 C1256 1.391 . S
C1227 C1226 1.446 . S
C1227 C1228 1.339 . S
C1227 H1262 0.949 . S
C1228 C1227 1.339 . S
C1228 C1229 1.439 . S
C1228 H1263 0.950 . S
C1229 N1225 1.383 . S
C1229 C1228 1.439 . S
C1229 C1258 1.392 . S
N1230 Co1224 2.008 . S
N1230 C1231 1.376 . S
N1230 C1234 1.374 . S
C1231 N1230 1.376 . S
C1231 C1232 1.443 . S
C1231 C1258 1.389 . S
C1232 C1231 1.443 . S
C1232 C1233 1.340 . S
C1232 H1264 0.951 . S
C1233 C1232 1.340 . S
C1233 C1234 1.439 . S
C1233 H1265 0.950 . S
C1234 N1230 1.374 . S
C1234 C1233 1.439 . S
C1234 C1259 1.395 . S
N1235 Co1224 1.995 . S
N1235 C1236 1.376 . S
N1235 C1239 1.383 . S
C1236 N1235 1.376 . S
C1236 C1237 1.446 . S
C1236 C1259 1.391 . S
C1237 C1236 1.446 . S
C1237 C1238 1.339 . S
C1237 H1266 0.949 . S
C1238 C1237 1.339 . S
C1238 C1239 1.439 . S
C1238 H1267 0.950 . S
C1239 N1235 1.383 . S
C1239 C1238 1.439 . S
C1239 C1257 1.392 . S
N1240 Co1224 2.282 . S
N1240 C1243 1.332 . S
N1240 C1245 1.332 . S
C1241 C1242 1.386 . S
C1241 C1244 1.388 . S
C1242 C1241 1.386 . S
C1242 C1243 1.382 . S
C1242 H1268 0.950 . S
C1243 N1240 1.332 . S
C1243 C1242 1.382 . S
C1243 H1254 0.952 . S
C1244 C1241 1.388 . S
C1244 C1245 1.382 . S
C1244 H1269 0.950 . S
C1245 N1240 1.332 . S
C1245 C1244 1.382 . S
C1245 H1255 0.948 . S
N1246 Co1224 2.282 . S
N1246 C1250 1.332 . S
N1246 C1251 1.332 . S
C1247 C1248 1.388 . S
C1247 C1251 1.382 . S
C1247 H1270 0.950 . S
C1248 C1247 1.388 . S
C1248 C1249 1.382 1_556 S
C1249 C1248 1.382 1_554 S
C1249 C1250 1.366 1_554 S
C1249 H1271 0.970 . S
C1250 N1246 1.332 . S
C1250 C1249 1.366 1_556 S
C1250 H1252 0.952 . S
C1251 N1246 1.332 . S
C1251 C1247 1.382 . S
C1251 H1253 0.948 . S
H1252 C1250 0.952 . S
H1253 C1251 0.948 . S
H1254 C1243 0.952 . S
H1255 C1245 0.948 . S
C1256 C1222 1.395 . S
C1256 C1226 1.391 . S
C1257 C1219 1.389 . S
C1257 C1239 1.392 . S
C1258 C1229 1.392 . S
C1258 C1231 1.389 . S
C1259 C1234 1.395 . S
C1259 C1236 1.391 . S
H1260 C1220 0.951 . S
H1261 C1221 0.950 . S
H1262 C1227 0.949 . S
H1263 C1228 0.950 . S
H1264 C1232 0.951 . S
H1265 C1233 0.950 . S
H1266 C1237 0.949 . S
H1267 C1238 0.950 . S
H1268 C1242 0.950 . S
H1269 C1244 0.950 . S
H1270 C1247 0.950 . S
H1271 C1249 0.970 . S
C1272 C1273 1.443 . S
C1272 N1276 1.376 . S
C1272 C1310 1.389 . S
C1273 C1272 1.443 . S
C1273 C1274 1.340 . S
C1273 H1313 0.951 . S
C1274 C1273 1.340 . S
C1274 C1275 1.439 . S
C1274 H1314 0.950 . S
C1275 C1274 1.439 . S
C1275 N1276 1.374 . S
C1275 C1309 1.395 . S
N1276 C1272 1.376 . S
N1276 C1275 1.374 . S
N1276 Co1277 2.008 . S
Co1277 N1276 2.008 . S
Co1277 N1278 1.995 . S
Co1277 N1283 2.008 . S
Co1277 N1288 1.995 . S
Co1277 N1293 2.282 . S
Co1277 N1299 2.282 . S
N1278 Co1277 1.995 . S
N1278 C1279 1.376 . S
N1278 C1282 1.383 . S
C1279 N1278 1.376 . S
C1279 C1280 1.446 . S
C1279 C1309 1.391 . S
C1280 C1279 1.446 . S
C1280 C1281 1.339 . S
C1280 H1315 0.949 . S
C1281 C1280 1.339 . S
C1281 C1282 1.439 . S
C1281 H1316 0.950 . S
C1282 N1278 1.383 . S
C1282 C1281 1.439 . S
C1282 C1311 1.392 . S
N1283 Co1277 2.008 . S
N1283 C1284 1.376 . S
N1283 C1287 1.374 . S
C1284 N1283 1.376 . S
C1284 C1285 1.443 . S
C1284 C1311 1.389 . S
C1285 C1284 1.443 . S
C1285 C1286 1.340 . S
C1285 H1317 0.951 . S
C1286 C1285 1.340 . S
C1286 C1287 1.439 . S
C1286 H1318 0.950 . S
C1287 N1283 1.374 . S
C1287 C1286 1.439 . S
C1287 C1312 1.395 . S
N1288 Co1277 1.995 . S
N1288 C1289 1.376 . S
N1288 C1292 1.383 . S
C1289 N1288 1.376 . S
C1289 C1290 1.446 . S
C1289 C1312 1.391 . S
C1290 C1289 1.446 . S
C1290 C1291 1.339 . S
C1290 H1319 0.949 . S
C1291 C1290 1.339 . S
C1291 C1292 1.439 . S
C1291 H1320 0.950 . S
C1292 N1288 1.383 . S
C1292 C1291 1.439 . S
C1292 C1310 1.392 . S
N1293 Co1277 2.282 . S
N1293 C1296 1.332 . S
N1293 C1298 1.332 . S
C1294 C1295 1.386 . S
C1294 C1297 1.388 . S
C1295 C1294 1.386 . S
C1295 C1296 1.382 . S
C1295 H1321 0.950 . S
C1296 N1293 1.332 . S
C1296 C1295 1.382 . S
C1296 H1307 0.952 . S
C1297 C1294 1.388 . S
C1297 C1298 1.382 . S
C1297 H1322 0.950 . S
C1298 N1293 1.332 . S
C1298 C1297 1.382 . S
C1298 H1308 0.948 . S
N1299 Co1277 2.282 . S
N1299 C1303 1.332 . S
N1299 C1304 1.332 . S
C1300 C1301 1.388 . S
C1300 C1304 1.382 . S
C1300 H1323 0.950 . S
C1301 C1300 1.388 . S
C1301 C1302 1.386 . S
C1302 C1301 1.386 . S
C1302 C1303 1.382 . S
C1302 H1324 0.950 . S
C1303 N1299 1.332 . S
C1303 C1302 1.382 . S
C1303 H1305 0.952 . S
C1304 N1299 1.332 . S
C1304 C1300 1.382 . S
C1304 H1306 0.948 . S
H1305 C1303 0.952 . S
H1306 C1304 0.948 . S
H1307 C1296 0.952 . S
H1308 C1298 0.948 . S
C1309 C1275 1.395 . S
C1309 C1279 1.391 . S
C1310 C1272 1.389 . S
C1310 C1292 1.392 . S
C1311 C1282 1.392 . S
C1311 C1284 1.389 . S
C1312 C1287 1.395 . S
C1312 C1289 1.391 . S
H1313 C1273 0.951 . S
H1314 C1274 0.950 . S
H1315 C1280 0.949 . S
H1316 C1281 0.950 . S
H1317 C1285 0.951 . S
H1318 C1286 0.950 . S
H1319 C1290 0.949 . S
H1320 C1291 0.950 . S
H1321 C1295 0.950 . S
H1322 C1297 0.950 . S
H1323 C1300 0.950 . S
H1324 C1302 0.950 . S
C1325 C1326 1.443 . S
C1325 N1329 1.376 . S
C1325 C1363 1.389 . S
C1326 C1325 1.443 . S
C1326 C1327 1.340 . S
C1326 H1366 0.951 . S
C1327 C1326 1.340 . S
C1327 C1328 1.439 . S
C1327 H1367 0.950 . S
C1328 C1327 1.439 . S
C1328 N1329 1.374 . S
C1328 C1362 1.395 . S
N1329 C1325 1.376 . S
N1329 C1328 1.374 . S
N1329 Co1330 2.008 . S
Co1330 N1329 2.008 . S
Co1330 N1331 1.995 . S
Co1330 N1336 2.008 . S
Co1330 N1341 1.995 . S
Co1330 N1346 2.282 . S
Co1330 N1352 2.282 . S
N1331 Co1330 1.995 . S
N1331 C1332 1.376 . S
N1331 C1335 1.383 . S
C1332 N1331 1.376 . S
C1332 C1333 1.446 . S
C1332 C1362 1.391 . S
C1333 C1332 1.446 . S
C1333 C1334 1.339 . S
C1333 H1368 0.949 . S
C1334 C1333 1.339 . S
C1334 C1335 1.439 . S
C1334 H1369 0.950 . S
C1335 N1331 1.383 . S
C1335 C1334 1.439 . S
C1335 C1364 1.392 . S
N1336 Co1330 2.008 . S
N1336 C1337 1.376 . S
N1336 C1340 1.374 . S
C1337 N1336 1.376 . S
C1337 C1338 1.443 . S
C1337 C1364 1.389 . S
C1338 C1337 1.443 . S
C1338 C1339 1.340 . S
C1338 H1370 0.951 . S
C1339 C1338 1.340 . S
C1339 C1340 1.439 . S
C1339 H1371 0.950 . S
C1340 N1336 1.374 . S
C1340 C1339 1.439 . S
C1340 C1365 1.395 . S
N1341 Co1330 1.995 . S
N1341 C1342 1.376 . S
N1341 C1345 1.383 . S
C1342 N1341 1.376 . S
C1342 C1343 1.446 . S
C1342 C1365 1.391 . S
C1343 C1342 1.446 . S
C1343 C1344 1.339 . S
C1343 H1372 0.949 . S
C1344 C1343 1.339 . S
C1344 C1345 1.439 . S
C1344 H1373 0.950 . S
C1345 N1341 1.383 . S
C1345 C1344 1.439 . S
C1345 C1363 1.392 . S
N1346 Co1330 2.282 . S
N1346 C1349 1.332 . S
N1346 C1351 1.332 . S
C1347 C1348 1.386 . S
C1347 C1350 1.388 . S
C1348 C1347 1.386 . S
C1348 C1349 1.382 . S
C1348 H1374 0.950 . S
C1349 N1346 1.332 . S
C1349 C1348 1.382 . S
C1349 H1360 0.952 . S
C1350 C1347 1.388 . S
C1350 C1351 1.382 . S
C1350 H1375 0.950 . S
C1351 N1346 1.332 . S
C1351 C1350 1.382 . S
C1351 H1361 0.948 . S
N1352 Co1330 2.282 . S
N1352 C1356 1.332 . S
N1352 C1357 1.332 . S
C1353 C1354 1.388 . S
C1353 C1357 1.382 . S
C1353 H1376 0.950 . S
C1354 C1353 1.388 . S
C1354 C1355 1.386 . S
C1355 C1354 1.386 . S
C1355 C1356 1.382 . S
C1355 H1377 0.950 . S
C1356 N1352 1.332 . S
C1356 C1355 1.382 . S
C1356 H1358 0.952 . S
C1357 N1352 1.332 . S
C1357 C1353 1.382 . S
C1357 H1359 0.948 . S
H1358 C1356 0.952 . S
H1359 C1357 0.948 . S
H1360 C1349 0.952 . S
H1361 C1351 0.948 . S
C1362 C1328 1.395 . S
C1362 C1332 1.391 . S
C1363 C1325 1.389 . S
C1363 C1345 1.392 . S
C1364 C1335 1.392 . S
C1364 C1337 1.389 . S
C1365 C1340 1.395 . S
C1365 C1342 1.391 . S
H1366 C1326 0.951 . S
H1367 C1327 0.950 . S
H1368 C1333 0.949 . S
H1369 C1334 0.950 . S
H1370 C1338 0.951 . S
H1371 C1339 0.950 . S
H1372 C1343 0.949 . S
H1373 C1344 0.950 . S
H1374 C1348 0.950 . S
H1375 C1350 0.950 . S
H1376 C1353 0.950 . S
H1377 C1355 0.950 . S
C1378 C1379 1.443 . S
C1378 N1382 1.376 . S
C1378 C1416 1.389 . S
C1379 C1378 1.443 . S
C1379 C1380 1.340 . S
C1379 H1419 0.951 . S
C1380 C1379 1.340 . S
C1380 C1381 1.439 . S
C1380 H1420 0.950 . S
C1381 C1380 1.439 . S
C1381 N1382 1.374 . S
C1381 C1415 1.395 . S
N1382 C1378 1.376 . S
N1382 C1381 1.374 . S
N1382 Co1383 2.008 . S
Co1383 N1382 2.008 . S
Co1383 N1384 1.995 . S
Co1383 N1389 2.008 . S
Co1383 N1394 1.995 . S
Co1383 N1399 2.282 . S
Co1383 N1405 2.282 . S
N1384 Co1383 1.995 . S
N1384 C1385 1.376 . S
N1384 C1388 1.383 . S
C1385 N1384 1.376 . S
C1385 C1386 1.446 . S
C1385 C1415 1.391 . S
C1386 C1385 1.446 . S
C1386 C1387 1.339 . S
C1386 H1421 0.949 . S
C1387 C1386 1.339 . S
C1387 C1388 1.439 . S
C1387 H1422 0.950 . S
C1388 N1384 1.383 . S
C1388 C1387 1.439 . S
C1388 C1417 1.392 . S
N1389 Co1383 2.008 . S
N1389 C1390 1.376 . S
N1389 C1393 1.374 . S
C1390 N1389 1.376 . S
C1390 C1391 1.443 . S
C1390 C1417 1.389 . S
C1391 C1390 1.443 . S
C1391 C1392 1.340 . S
C1391 H1423 0.951 . S
C1392 C1391 1.340 . S
C1392 C1393 1.439 . S
C1392 H1424 0.950 . S
C1393 N1389 1.374 . S
C1393 C1392 1.439 . S
C1393 C1418 1.395 . S
N1394 Co1383 1.995 . S
N1394 C1395 1.376 . S
N1394 C1398 1.383 . S
C1395 N1394 1.376 . S
C1395 C1396 1.446 . S
C1395 C1418 1.391 . S
C1396 C1395 1.446 . S
C1396 C1397 1.339 . S
C1396 H1425 0.949 . S
C1397 C1396 1.339 . S
C1397 C1398 1.439 . S
C1397 H1426 0.950 . S
C1398 N1394 1.383 . S
C1398 C1397 1.439 . S
C1398 C1416 1.392 . S
N1399 Co1383 2.282 . S
N1399 C1402 1.332 . S
N1399 C1404 1.332 . S
C1400 C1401 1.386 . S
C1400 C1403 1.388 . S
C1401 C1400 1.386 . S
C1401 C1402 1.382 . S
C1401 H1427 0.950 . S
C1402 N1399 1.332 . S
C1402 C1401 1.382 . S
C1402 H1413 0.952 . S
C1403 C1400 1.388 . S
C1403 C1404 1.382 . S
C1403 H1428 0.950 . S
C1404 N1399 1.332 . S
C1404 C1403 1.382 . S
C1404 H1414 0.948 . S
N1405 Co1383 2.282 . S
N1405 C1409 1.332 . S
N1405 C1410 1.332 . S
C1406 C1407 1.388 . S
C1406 C1410 1.382 . S
C1406 H1429 0.950 . S
C1407 C1406 1.388 . S
C1407 C1408 1.386 . S
C1408 C1407 1.386 . S
C1408 C1409 1.382 . S
C1408 H1430 0.950 . S
C1409 N1405 1.332 . S
C1409 C1408 1.382 . S
C1409 H1411 0.952 . S
C1410 N1405 1.332 . S
C1410 C1406 1.382 . S
C1410 H1412 0.948 . S
H1411 C1409 0.952 . S
H1412 C1410 0.948 . S
H1413 C1402 0.952 . S
H1414 C1404 0.948 . S
C1415 C1381 1.395 . S
C1415 C1385 1.391 . S
C1416 C1378 1.389 . S
C1416 C1398 1.392 . S
C1417 C1388 1.392 . S
C1417 C1390 1.389 . S
C1418 C1393 1.395 . S
C1418 C1395 1.391 . S
H1419 C1379 0.951 . S
H1420 C1380 0.950 . S
H1421 C1386 0.949 . S
H1422 C1387 0.950 . S
H1423 C1391 0.951 . S
H1424 C1392 0.950 . S
H1425 C1396 0.949 . S
H1426 C1397 0.950 . S
H1427 C1401 0.950 . S
H1428 C1403 0.950 . S
H1429 C1406 0.950 . S
H1430 C1408 0.950 . S
C1431 C1432 1.443 . S
C1431 N1435 1.376 . S
C1431 C1469 1.389 . S
C1432 C1431 1.443 . S
C1432 C1433 1.340 . S
C1432 H1472 0.951 . S
C1433 C1432 1.340 . S
C1433 C1434 1.439 . S
C1433 H1473 0.950 . S
C1434 C1433 1.439 . S
C1434 N1435 1.374 . S
C1434 C1468 1.395 . S
N1435 C1431 1.376 . S
N1435 C1434 1.374 . S
N1435 Co1436 2.008 1_655 S
Co1436 N1435 2.008 1_455 S
Co1436 N1437 1.995 . S
Co1436 N1442 2.008 . S
Co1436 N1447 1.995 . S
Co1436 N1452 2.282 1_455 S
Co1436 N1458 2.282 . S
N1437 Co1436 1.995 . S
N1437 C1438 1.376 . S
N1437 C1441 1.383 . S
C1438 N1437 1.376 . S
C1438 C1439 1.446 . S
C1438 C1468 1.391 1_455 S
C1439 C1438 1.446 . S
C1439 C1440 1.339 . S
C1439 H1474 0.949 . S
C1440 C1439 1.339 . S
C1440 C1441 1.439 . S
C1440 H1475 0.950 . S
C1441 N1437 1.383 . S
C1441 C1440 1.439 . S
C1441 C1470 1.392 . S
N1442 Co1436 2.008 . S
N1442 C1443 1.376 . S
N1442 C1446 1.374 . S
C1443 N1442 1.376 . S
C1443 C1444 1.443 . S
C1443 C1470 1.389 . S
C1444 C1443 1.443 . S
C1444 C1445 1.340 . S
C1444 H1476 0.951 . S
C1445 C1444 1.340 . S
C1445 C1446 1.439 . S
C1445 H1477 0.950 . S
C1446 N1442 1.374 . S
C1446 C1445 1.439 . S
C1446 C1471 1.395 . S
N1447 Co1436 1.995 . S
N1447 C1448 1.376 . S
N1447 C1451 1.383 1_455 S
C1448 N1447 1.376 . S
C1448 C1449 1.446 . S
C1448 C1471 1.391 . S
C1449 C1448 1.446 . S
C1449 C1450 1.339 1_455 S
C1449 H1478 0.949 . S
C1450 C1449 1.339 1_655 S
C1450 C1451 1.439 . S
C1450 H1479 0.950 . S
C1451 N1447 1.383 1_655 S
C1451 C1450 1.439 . S
C1451 C1469 1.392 . S
N1452 Co1436 2.282 1_655 S
N1452 C1455 1.332 . S
N1452 C1457 1.332 . S
C1453 C1454 1.386 . S
C1453 C1456 1.388 . S
C1454 C1453 1.386 . S
C1454 C1455 1.382 . S
C1454 H1480 0.950 . S
C1455 N1452 1.332 . S
C1455 C1454 1.382 . S
C1455 H1466 0.952 . S
C1456 C1453 1.388 . S
C1456 C1457 1.382 . S
C1456 H1481 0.950 . S
C1457 N1452 1.332 . S
C1457 C1456 1.382 . S
C1457 H1467 0.948 . S
N1458 Co1436 2.282 . S
N1458 C1462 1.332 . S
N1458 C1463 1.332 . S
C1459 C1460 1.388 . S
C1459 C1463 1.382 . S
C1459 H1482 0.950 . S
C1460 C1459 1.388 . S
C1460 C1461 1.386 . S
C1461 C1460 1.386 . S
C1461 C1462 1.382 . S
C1461 H1483 0.950 . S
C1462 N1458 1.332 . S
C1462 C1461 1.382 . S
C1462 H1464 0.952 . S
C1463 N1458 1.332 . S
C1463 C1459 1.382 . S
C1463 H1465 0.948 . S
H1464 C1462 0.952 . S
H1465 C1463 0.948 . S
H1466 C1455 0.952 . S
H1467 C1457 0.948 . S
C1468 C1434 1.395 . S
C1468 C1438 1.391 1_655 S
C1469 C1431 1.389 . S
C1469 C1451 1.392 . S
C1470 C1441 1.392 . S
C1470 C1443 1.389 . S
C1471 C1446 1.395 . S
C1471 C1448 1.391 . S
H1472 C1432 0.951 . S
H1473 C1433 0.950 . S
H1474 C1439 0.949 . S
H1475 C1440 0.950 . S
H1476 C1444 0.951 . S
H1477 C1445 0.950 . S
H1478 C1449 0.949 . S
H1479 C1450 0.950 . S
H1480 C1454 0.950 . S
H1481 C1456 0.950 . S
H1482 C1459 0.950 . S
H1483 C1461 0.950 . S
C1484 C1485 1.443 . S
C1484 N1488 1.376 . S
C1484 C1522 1.389 . S
C1485 C1484 1.443 . S
C1485 C1486 1.340 . S
C1485 H1525 0.951 . S
C1486 C1485 1.340 . S
C1486 C1487 1.439 . S
C1486 H1526 0.950 . S
C1487 C1486 1.439 . S
C1487 N1488 1.374 . S
C1487 C1521 1.395 . S
N1488 C1484 1.376 . S
N1488 C1487 1.374 . S
N1488 Co1489 2.008 . S
Co1489 N1488 2.008 . S
Co1489 N1490 1.995 . S
Co1489 N1495 2.008 . S
Co1489 N1500 1.995 . S
Co1489 N1505 2.282 . S
Co1489 N1511 2.282 . S
N1490 Co1489 1.995 . S
N1490 C1491 1.376 . S
N1490 C1494 1.383 . S
C1491 N1490 1.376 . S
C1491 C1492 1.446 . S
C1491 C1521 1.391 . S
C1492 C1491 1.446 . S
C1492 C1493 1.339 . S
C1492 H1527 0.949 . S
C1493 C1492 1.339 . S
C1493 C1494 1.439 . S
C1493 H1528 0.950 . S
C1494 N1490 1.383 . S
C1494 C1493 1.439 . S
C1494 C1523 1.392 . S
N1495 Co1489 2.008 . S
N1495 C1496 1.376 . S
N1495 C1499 1.374 . S
C1496 N1495 1.376 . S
C1496 C1497 1.443 . S
C1496 C1523 1.389 . S
C1497 C1496 1.443 . S
C1497 C1498 1.340 . S
C1497 H1529 0.951 . S
C1498 C1497 1.340 . S
C1498 C1499 1.439 . S
C1498 H1530 0.950 . S
C1499 N1495 1.374 . S
C1499 C1498 1.439 . S
C1499 C1524 1.395 . S
N1500 Co1489 1.995 . S
N1500 C1501 1.376 . S
N1500 C1504 1.383 . S
C1501 N1500 1.376 . S
C1501 C1502 1.446 . S
C1501 C1524 1.391 . S
C1502 C1501 1.446 . S
C1502 C1503 1.339 . S
C1502 H1531 0.949 . S
C1503 C1502 1.339 . S
C1503 C1504 1.439 . S
C1503 H1532 0.950 . S
C1504 N1500 1.383 . S
C1504 C1503 1.439 . S
C1504 C1522 1.392 . S
N1505 Co1489 2.282 . S
N1505 C1508 1.332 . S
N1505 C1510 1.332 . S
C1506 C1507 1.386 . S
C1506 C1509 1.388 . S
C1507 C1506 1.386 . S
C1507 C1508 1.382 . S
C1507 H1533 0.950 . S
C1508 N1505 1.332 . S
C1508 C1507 1.382 . S
C1508 H1519 0.952 . S
C1509 C1506 1.388 . S
C1509 C1510 1.382 . S
C1509 H1534 0.950 . S
C1510 N1505 1.332 . S
C1510 C1509 1.382 . S
C1510 H1520 0.948 . S
N1511 Co1489 2.282 . S
N1511 C1515 1.332 . S
N1511 C1516 1.332 . S
C1512 C1513 1.388 . S
C1512 C1516 1.382 . S
C1512 H1535 0.950 . S
C1513 C1512 1.388 . S
C1513 C1514 1.386 . S
C1514 C1513 1.386 . S
C1514 C1515 1.382 . S
C1514 H1536 0.950 . S
C1515 N1511 1.332 . S
C1515 C1514 1.382 . S
C1515 H1517 0.952 . S
C1516 N1511 1.332 . S
C1516 C1512 1.382 . S
C1516 H1518 0.948 . S
H1517 C1515 0.952 . S
H1518 C1516 0.948 . S
H1519 C1508 0.952 . S
H1520 C1510 0.948 . S
C1521 C1487 1.395 . S
C1521 C1491 1.391 . S
C1522 C1484 1.389 . S
C1522 C1504 1.392 . S
C1523 C1494 1.392 . S
C1523 C1496 1.389 . S
C1524 C1499 1.395 . S
C1524 C1501 1.391 . S
H1525 C1485 0.951 . S
H1526 C1486 0.950 . S
H1527 C1492 0.949 . S
H1528 C1493 0.950 . S
H1529 C1497 0.951 . S
H1530 C1498 0.950 . S
H1531 C1502 0.949 . S
H1532 C1503 0.950 . S
H1533 C1507 0.950 . S
H1534 C1509 0.950 . S
H1535 C1512 0.950 . S
H1536 C1514 0.950 . S
C1537 C1538 1.443 . S
C1537 N1541 1.376 . S
C1537 C1575 1.389 . S
C1538 C1537 1.443 . S
C1538 C1539 1.340 . S
C1538 H1578 0.951 . S
C1539 C1538 1.340 . S
C1539 C1540 1.439 . S
C1539 H1579 0.950 . S
C1540 C1539 1.439 . S
C1540 N1541 1.374 . S
C1540 C1574 1.395 . S
N1541 C1537 1.376 . S
N1541 C1540 1.374 . S
N1541 Co1542 2.008 1_655 S
Co1542 N1541 2.008 1_455 S
Co1542 N1543 1.995 . S
Co1542 N1548 2.008 . S
Co1542 N1553 1.995 . S
Co1542 N1558 2.282 1_455 S
Co1542 N1564 2.282 . S
N1543 Co1542 1.995 . S
N1543 C1544 1.376 . S
N1543 C1547 1.383 . S
C1544 N1543 1.376 . S
C1544 C1545 1.446 . S
C1544 C1574 1.391 1_455 S
C1545 C1544 1.446 . S
C1545 C1546 1.339 . S
C1545 H1580 0.949 . S
C1546 C1545 1.339 . S
C1546 C1547 1.439 . S
C1546 H1581 0.950 . S
C1547 N1543 1.383 . S
C1547 C1546 1.439 . S
C1547 C1576 1.392 . S
N1548 Co1542 2.008 . S
N1548 C1549 1.376 . S
N1548 C1552 1.374 . S
C1549 N1548 1.376 . S
C1549 C1550 1.443 . S
C1549 C1576 1.389 . S
C1550 C1549 1.443 . S
C1550 C1551 1.340 . S
C1550 H1582 0.951 . S
C1551 C1550 1.340 . S
C1551 C1552 1.439 . S
C1551 H1583 0.950 . S
C1552 N1548 1.374 . S
C1552 C1551 1.439 . S
C1552 C1577 1.395 . S
N1553 Co1542 1.995 . S
N1553 C1554 1.376 . S
N1553 C1557 1.383 1_455 S
C1554 N1553 1.376 . S
C1554 C1555 1.446 . S
C1554 C1577 1.391 . S
C1555 C1554 1.446 . S
C1555 C1556 1.339 1_455 S
C1555 H1584 0.949 . S
C1556 C1555 1.339 1_655 S
C1556 C1557 1.439 . S
C1556 H1585 0.950 . S
C1557 N1553 1.383 1_655 S
C1557 C1556 1.439 . S
C1557 C1575 1.392 . S
N1558 Co1542 2.282 1_655 S
N1558 C1561 1.332 . S
N1558 C1563 1.332 . S
C1559 C1560 1.386 . S
C1559 C1562 1.388 . S
C1560 C1559 1.386 . S
C1560 C1561 1.382 . S
C1560 H1586 0.950 . S
C1561 N1558 1.332 . S
C1561 C1560 1.382 . S
C1561 H1572 0.952 . S
C1562 C1559 1.388 . S
C1562 C1563 1.382 . S
C1562 H1587 0.950 . S
C1563 N1558 1.332 . S
C1563 C1562 1.382 . S
C1563 H1573 0.948 . S
N1564 Co1542 2.282 . S
N1564 C1568 1.332 . S
N1564 C1569 1.332 . S
C1565 C1566 1.388 . S
C1565 C1569 1.382 . S
C1565 H1588 0.950 . S
C1566 C1565 1.388 . S
C1566 C1567 1.386 . S
C1567 C1566 1.386 . S
C1567 C1568 1.382 . S
C1567 H1589 0.950 . S
C1568 N1564 1.332 . S
C1568 C1567 1.382 . S
C1568 H1570 0.952 . S
C1569 N1564 1.332 . S
C1569 C1565 1.382 . S
C1569 H1571 0.948 . S
H1570 C1568 0.952 . S
H1571 C1569 0.948 . S
H1572 C1561 0.952 . S
H1573 C1563 0.948 . S
C1574 C1540 1.395 . S
C1574 C1544 1.391 1_655 S
C1575 C1537 1.389 . S
C1575 C1557 1.392 . S
C1576 C1547 1.392 . S
C1576 C1549 1.389 . S
C1577 C1552 1.395 . S
C1577 C1554 1.391 . S
H1578 C1538 0.951 . S
H1579 C1539 0.950 . S
H1580 C1545 0.949 . S
H1581 C1546 0.950 . S
H1582 C1550 0.951 . S
H1583 C1551 0.950 . S
H1584 C1555 0.949 . S
H1585 C1556 0.950 . S
H1586 C1560 0.950 . S
H1587 C1562 0.950 . S
H1588 C1565 0.950 . S
H1589 C1567 0.950 . S
C1590 C1591 1.443 . S
C1590 N1594 1.376 . S
C1590 C1628 1.389 . S
C1591 C1590 1.443 . S
C1591 C1592 1.340 . S
C1591 H1631 0.951 . S
C1592 C1591 1.340 . S
C1592 C1593 1.439 . S
C1592 H1632 0.950 . S
C1593 C1592 1.439 . S
C1593 N1594 1.374 . S
C1593 C1627 1.395 . S
N1594 C1590 1.376 . S
N1594 C1593 1.374 . S
N1594 Co1595 2.008 . S
Co1595 N1594 2.008 . S
Co1595 N1596 1.995 . S
Co1595 N1601 2.008 . S
Co1595 N1606 1.995 . S
Co1595 N1611 2.282 . S
Co1595 N1617 2.282 . S
N1596 Co1595 1.995 . S
N1596 C1597 1.376 . S
N1596 C1600 1.383 . S
C1597 N1596 1.376 . S
C1597 C1598 1.446 . S
C1597 C1627 1.391 . S
C1598 C1597 1.446 . S
C1598 C1599 1.339 . S
C1598 H1633 0.949 . S
C1599 C1598 1.339 . S
C1599 C1600 1.439 . S
C1599 H1634 0.950 . S
C1600 N1596 1.383 . S
C1600 C1599 1.439 . S
C1600 C1629 1.392 . S
N1601 Co1595 2.008 . S
N1601 C1602 1.376 . S
N1601 C1605 1.374 . S
C1602 N1601 1.376 . S
C1602 C1603 1.443 . S
C1602 C1629 1.389 . S
C1603 C1602 1.443 . S
C1603 C1604 1.340 . S
C1603 H1635 0.951 . S
C1604 C1603 1.340 . S
C1604 C1605 1.439 . S
C1604 H1636 0.950 . S
C1605 N1601 1.374 . S
C1605 C1604 1.439 . S
C1605 C1630 1.395 . S
N1606 Co1595 1.995 . S
N1606 C1607 1.376 . S
N1606 C1610 1.383 . S
C1607 N1606 1.376 . S
C1607 C1608 1.446 . S
C1607 C1630 1.391 . S
C1608 C1607 1.446 . S
C1608 C1609 1.339 . S
C1608 H1637 0.949 . S
C1609 C1608 1.339 . S
C1609 C1610 1.439 . S
C1609 H1638 0.950 . S
C1610 N1606 1.383 . S
C1610 C1609 1.439 . S
C1610 C1628 1.392 . S
N1611 Co1595 2.282 . S
N1611 C1614 1.332 . S
N1611 C1616 1.332 . S
C1612 C1613 1.386 . S
C1612 C1615 1.388 . S
C1613 C1612 1.386 . S
C1613 C1614 1.382 . S
C1613 H1639 0.950 . S
C1614 N1611 1.332 . S
C1614 C1613 1.382 . S
C1614 H1625 0.952 . S
C1615 C1612 1.388 . S
C1615 C1616 1.382 . S
C1615 H1640 0.950 . S
C1616 N1611 1.332 . S
C1616 C1615 1.382 . S
C1616 H1626 0.948 . S
N1617 Co1595 2.282 . S
N1617 C1621 1.332 . S
N1617 C1622 1.332 . S
C1618 C1619 1.388 . S
C1618 C1622 1.382 . S
C1618 H1641 0.950 . S
C1619 C1618 1.388 . S
C1619 C1620 1.386 . S
C1620 C1619 1.386 . S
C1620 C1621 1.382 . S
C1620 H1642 0.950 . S
C1621 N1617 1.332 . S
C1621 C1620 1.382 . S
C1621 H1623 0.952 . S
C1622 N1617 1.332 . S
C1622 C1618 1.382 . S
C1622 H1624 0.948 . S
H1623 C1621 0.952 . S
H1624 C1622 0.948 . S
H1625 C1614 0.952 . S
H1626 C1616 0.948 . S
C1627 C1593 1.395 . S
C1627 C1597 1.391 . S
C1628 C1590 1.389 . S
C1628 C1610 1.392 . S
C1629 C1600 1.392 . S
C1629 C1602 1.389 . S
C1630 C1605 1.395 . S
C1630 C1607 1.391 . S
H1631 C1591 0.951 . S
H1632 C1592 0.950 . S
H1633 C1598 0.949 . S
H1634 C1599 0.950 . S
H1635 C1603 0.951 . S
H1636 C1604 0.950 . S
H1637 C1608 0.949 . S
H1638 C1609 0.950 . S
H1639 C1613 0.950 . S
H1640 C1615 0.950 . S
H1641 C1618 0.950 . S
H1642 C1620 0.950 . S
C1643 C1644 1.443 . S
C1643 N1647 1.376 . S
C1643 C1681 1.389 . S
C1644 C1643 1.443 . S
C1644 C1645 1.340 . S
C1644 H1684 0.951 . S
C1645 C1644 1.340 . S
C1645 C1646 1.439 . S
C1645 H1685 0.950 . S
C1646 C1645 1.439 . S
C1646 N1647 1.374 . S
C1646 C1680 1.395 . S
N1647 C1643 1.376 . S
N1647 C1646 1.374 . S
N1647 Co1648 2.008 . S
Co1648 N1647 2.008 . S
Co1648 N1649 1.995 . S
Co1648 N1654 2.008 . S
Co1648 N1659 1.995 . S
Co1648 N1664 2.282 . S
Co1648 N1670 2.282 . S
N1649 Co1648 1.995 . S
N1649 C1650 1.376 . S
N1649 C1653 1.383 . S
C1650 N1649 1.376 . S
C1650 C1651 1.446 . S
C1650 C1680 1.391 . S
C1651 C1650 1.446 . S
C1651 C1652 1.339 . S
C1651 H1686 0.949 . S
C1652 C1651 1.339 . S
C1652 C1653 1.439 . S
C1652 H1687 0.950 . S
C1653 N1649 1.383 . S
C1653 C1652 1.439 . S
C1653 C1682 1.392 . S
N1654 Co1648 2.008 . S
N1654 C1655 1.376 . S
N1654 C1658 1.374 . S
C1655 N1654 1.376 . S
C1655 C1656 1.443 . S
C1655 C1682 1.389 . S
C1656 C1655 1.443 . S
C1656 C1657 1.340 . S
C1656 H1688 0.951 . S
C1657 C1656 1.340 . S
C1657 C1658 1.439 . S
C1657 H1689 0.950 . S
C1658 N1654 1.374 . S
C1658 C1657 1.439 . S
C1658 C1683 1.395 . S
N1659 Co1648 1.995 . S
N1659 C1660 1.376 . S
N1659 C1663 1.383 . S
C1660 N1659 1.376 . S
C1660 C1661 1.446 . S
C1660 C1683 1.391 . S
C1661 C1660 1.446 . S
C1661 C1662 1.339 . S
C1661 H1690 0.949 . S
C1662 C1661 1.339 . S
C1662 C1663 1.439 . S
C1662 H1691 0.950 . S
C1663 N1659 1.383 . S
C1663 C1662 1.439 . S
C1663 C1681 1.392 . S
N1664 Co1648 2.282 . S
N1664 C1667 1.332 . S
N1664 C1669 1.332 . S
C1665 C1666 1.386 . S
C1665 C1668 1.388 . S
C1666 C1665 1.386 . S
C1666 C1667 1.382 . S
C1666 H1692 0.950 . S
C1667 N1664 1.332 . S
C1667 C1666 1.382 . S
C1667 H1678 0.952 . S
C1668 C1665 1.388 . S
C1668 C1669 1.382 . S
C1668 H1693 0.950 . S
C1669 N1664 1.332 . S
C1669 C1668 1.382 . S
C1669 H1679 0.948 . S
N1670 Co1648 2.282 . S
N1670 C1674 1.332 . S
N1670 C1675 1.332 . S
C1671 C1672 1.388 . S
C1671 C1675 1.382 . S
C1671 H1694 0.950 . S
C1672 C1671 1.388 . S
C1672 C1673 1.386 . S
C1673 C1672 1.386 . S
C1673 C1674 1.382 . S
C1673 H1695 0.950 . S
C1674 N1670 1.332 . S
C1674 C1673 1.382 . S
C1674 H1676 0.952 . S
C1675 N1670 1.332 . S
C1675 C1671 1.382 . S
C1675 H1677 0.948 . S
H1676 C1674 0.952 . S
H1677 C1675 0.948 . S
H1678 C1667 0.952 . S
H1679 C1669 0.948 . S
C1680 C1646 1.395 . S
C1680 C1650 1.391 . S
C1681 C1643 1.389 . S
C1681 C1663 1.392 . S
C1682 C1653 1.392 . S
C1682 C1655 1.389 . S
C1683 C1658 1.395 . S
C1683 C1660 1.391 . S
H1684 C1644 0.951 . S
H1685 C1645 0.950 . S
H1686 C1651 0.949 . S
H1687 C1652 0.950 . S
H1688 C1656 0.951 . S
H1689 C1657 0.950 . S
H1690 C1661 0.949 . S
H1691 C1662 0.950 . S
H1692 C1666 0.950 . S
H1693 C1668 0.950 . S
H1694 C1671 0.950 . S
H1695 C1673 0.950 . S
C1696 C1697 1.443 . S
C1696 N1700 1.376 . S
C1696 C1734 1.389 . S
C1697 C1696 1.443 . S
C1697 C1698 1.340 . S
C1697 H1737 0.951 . S
C1698 C1697 1.340 . S
C1698 C1699 1.439 . S
C1698 H1738 0.950 . S
C1699 C1698 1.439 . S
C1699 N1700 1.374 . S
C1699 C1733 1.395 . S
N1700 C1696 1.376 . S
N1700 C1699 1.374 . S
N1700 Co1701 2.008 . S
Co1701 N1700 2.008 . S
Co1701 N1702 1.995 . S
Co1701 N1707 2.008 . S
Co1701 N1712 1.995 . S
Co1701 N1717 2.282 . S
Co1701 N1723 2.282 . S
N1702 Co1701 1.995 . S
N1702 C1703 1.376 . S
N1702 C1706 1.383 . S
C1703 N1702 1.376 . S
C1703 C1704 1.446 . S
C1703 C1733 1.391 . S
C1704 C1703 1.446 . S
C1704 C1705 1.339 . S
C1704 H1739 0.949 . S
C1705 C1704 1.339 . S
C1705 C1706 1.439 . S
C1705 H1740 0.950 . S
C1706 N1702 1.383 . S
C1706 C1705 1.439 . S
C1706 C1735 1.392 . S
N1707 Co1701 2.008 . S
N1707 C1708 1.376 . S
N1707 C1711 1.374 . S
C1708 N1707 1.376 . S
C1708 C1709 1.443 . S
C1708 C1735 1.389 . S
C1709 C1708 1.443 . S
C1709 C1710 1.340 . S
C1709 H1741 0.951 . S
C1710 C1709 1.340 . S
C1710 C1711 1.439 . S
C1710 H1742 0.950 . S
C1711 N1707 1.374 . S
C1711 C1710 1.439 . S
C1711 C1736 1.395 . S
N1712 Co1701 1.995 . S
N1712 C1713 1.376 . S
N1712 C1716 1.383 . S
C1713 N1712 1.376 . S
C1713 C1714 1.446 . S
C1713 C1736 1.391 . S
C1714 C1713 1.446 . S
C1714 C1715 1.339 . S
C1714 H1743 0.949 . S
C1715 C1714 1.339 . S
C1715 C1716 1.439 . S
C1715 H1744 0.950 . S
C1716 N1712 1.383 . S
C1716 C1715 1.439 . S
C1716 C1734 1.392 . S
N1717 Co1701 2.282 . S
N1717 C1720 1.332 . S
N1717 C1722 1.332 . S
C1718 C1719 1.386 . S
C1718 C1721 1.388 . S
C1719 C1718 1.386 . S
C1719 C1720 1.382 . S
C1719 H1745 0.950 . S
C1720 N1717 1.332 . S
C1720 C1719 1.382 . S
C1720 H1731 0.952 . S
C1721 C1718 1.388 . S
C1721 C1722 1.382 . S
C1721 H1746 0.950 . S
C1722 N1717 1.332 . S
C1722 C1721 1.382 . S
C1722 H1732 0.948 . S
N1723 Co1701 2.282 . S
N1723 C1727 1.332 . S
N1723 C1728 1.332 . S
C1724 C1725 1.388 . S
C1724 C1728 1.382 . S
C1724 H1747 0.950 . S
C1725 C1724 1.388 . S
C1725 C1726 1.386 . S
C1726 C1725 1.386 . S
C1726 C1727 1.382 . S
C1726 H1748 0.950 . S
C1727 N1723 1.332 . S
C1727 C1726 1.382 . S
C1727 H1729 0.952 . S
C1728 N1723 1.332 . S
C1728 C1724 1.382 . S
C1728 H1730 0.948 . S
H1729 C1727 0.952 . S
H1730 C1728 0.948 . S
H1731 C1720 0.952 . S
H1732 C1722 0.948 . S
C1733 C1699 1.395 . S
C1733 C1703 1.391 . S
C1734 C1696 1.389 . S
C1734 C1716 1.392 . S
C1735 C1706 1.392 . S
C1735 C1708 1.389 . S
C1736 C1711 1.395 . S
C1736 C1713 1.391 . S
H1737 C1697 0.951 . S
H1738 C1698 0.950 . S
H1739 C1704 0.949 . S
H1740 C1705 0.950 . S
H1741 C1709 0.951 . S
H1742 C1710 0.950 . S
H1743 C1714 0.949 . S
H1744 C1715 0.950 . S
H1745 C1719 0.950 . S
H1746 C1721 0.950 . S
H1747 C1724 0.950 . S
H1748 C1726 0.950 . S
C1749 C1750 1.443 . S
C1749 N1753 1.376 . S
C1749 C1787 1.389 . S
C1750 C1749 1.443 . S
C1750 C1751 1.340 . S
C1750 H1790 0.951 . S
C1751 C1750 1.340 . S
C1751 C1752 1.439 . S
C1751 H1791 0.950 . S
C1752 C1751 1.439 . S
C1752 N1753 1.374 . S
C1752 C1786 1.395 . S
N1753 C1749 1.376 . S
N1753 C1752 1.374 . S
N1753 Co1754 2.008 . S
Co1754 N1753 2.008 . S
Co1754 N1755 1.995 . S
Co1754 N1760 2.008 . S
Co1754 N1765 1.995 . S
Co1754 N1770 2.282 . S
Co1754 N1776 2.282 . S
N1755 Co1754 1.995 . S
N1755 C1756 1.376 . S
N1755 C1759 1.383 . S
C1756 N1755 1.376 . S
C1756 C1757 1.446 . S
C1756 C1786 1.391 . S
C1757 C1756 1.446 . S
C1757 C1758 1.339 . S
C1757 H1792 0.949 . S
C1758 C1757 1.339 . S
C1758 C1759 1.439 . S
C1758 H1793 0.950 . S
C1759 N1755 1.383 . S
C1759 C1758 1.439 . S
C1759 C1788 1.392 . S
N1760 Co1754 2.008 . S
N1760 C1761 1.376 . S
N1760 C1764 1.374 . S
C1761 N1760 1.376 . S
C1761 C1762 1.443 . S
C1761 C1788 1.389 . S
C1762 C1761 1.443 . S
C1762 C1763 1.340 . S
C1762 H1794 0.951 . S
C1763 C1762 1.340 . S
C1763 C1764 1.439 . S
C1763 H1795 0.950 . S
C1764 N1760 1.374 . S
C1764 C1763 1.439 . S
C1764 C1789 1.395 . S
N1765 Co1754 1.995 . S
N1765 C1766 1.376 . S
N1765 C1769 1.383 . S
C1766 N1765 1.376 . S
C1766 C1767 1.446 . S
C1766 C1789 1.391 . S
C1767 C1766 1.446 . S
C1767 C1768 1.339 . S
C1767 H1796 0.949 . S
C1768 C1767 1.339 . S
C1768 C1769 1.439 . S
C1768 H1797 0.950 1_554 S
C1769 N1765 1.383 . S
C1769 C1768 1.439 . S
C1769 C1787 1.392 . S
N1770 Co1754 2.282 . S
N1770 C1773 1.332 . S
N1770 C1775 1.332 . S
C1771 C1772 1.386 . S
C1771 C1774 1.388 . S
C1772 C1771 1.386 . S
C1772 C1773 1.382 . S
C1772 H1798 0.950 . S
C1773 N1770 1.332 . S
C1773 C1772 1.382 . S
C1773 H1784 0.952 . S
C1774 C1771 1.388 . S
C1774 C1775 1.382 . S
C1774 H1799 0.950 . S
C1775 N1770 1.332 . S
C1775 C1774 1.382 . S
C1775 H1785 0.948 . S
N1776 Co1754 2.282 . S
N1776 C1780 1.332 . S
N1776 C1781 1.332 . S
C1777 C1778 1.388 . S
C1777 C1781 1.382 . S
C1777 H1800 0.950 . S
C1778 C1777 1.388 . S
C1778 C1779 1.386 . S
C1779 C1778 1.386 . S
C1779 C1780 1.382 . S
C1779 H1801 0.950 . S
C1780 N1776 1.332 . S
C1780 C1779 1.382 . S
C1780 H1782 0.952 . S
C1781 N1776 1.332 . S
C1781 C1777 1.382 . S
C1781 H1783 0.948 . S
H1782 C1780 0.952 . S
H1783 C1781 0.948 . S
H1784 C1773 0.952 . S
H1785 C1775 0.948 . S
C1786 C1752 1.395 . S
C1786 C1756 1.391 . S
C1787 C1749 1.389 . S
C1787 C1769 1.392 . S
C1788 C1759 1.392 . S
C1788 C1761 1.389 . S
C1789 C1764 1.395 . S
C1789 C1766 1.391 . S
H1790 C1750 0.951 . S
H1791 C1751 0.950 . S
H1792 C1757 0.949 . S
H1793 C1758 0.950 . S
H1794 C1762 0.951 . S
H1795 C1763 0.950 . S
H1796 C1767 0.949 . S
H1797 C1768 0.950 1_556 S
H1798 C1772 0.950 . S
H1799 C1774 0.950 . S
H1800 C1777 0.950 . S
H1801 C1779 0.950 . S
C1802 C1803 1.443 . S
C1802 N1806 1.376 . S
C1802 C1840 1.389 . S
C1803 C1802 1.443 . S
C1803 C1804 1.340 . S
C1803 H1843 0.951 . S
C1804 C1803 1.340 . S
C1804 C1805 1.439 . S
C1804 H1844 0.950 . S
C1805 C1804 1.439 . S
C1805 N1806 1.374 . S
C1805 C1839 1.395 . S
N1806 C1802 1.376 . S
N1806 C1805 1.374 . S
N1806 Co1807 2.008 . S
Co1807 N1806 2.008 . S
Co1807 N1808 1.995 . S
Co1807 N1813 2.008 . S
Co1807 N1818 1.995 . S
Co1807 N1823 2.282 . S
Co1807 N1829 2.282 . S
N1808 Co1807 1.995 . S
N1808 C1809 1.376 . S
N1808 C1812 1.383 . S
C1809 N1808 1.376 . S
C1809 C1810 1.446 . S
C1809 C1839 1.391 . S
C1810 C1809 1.446 . S
C1810 C1811 1.339 . S
C1810 H1845 0.949 . S
C1811 C1810 1.339 . S
C1811 C1812 1.439 . S
C1811 H1846 0.950 . S
C1812 N1808 1.383 . S
C1812 C1811 1.439 . S
C1812 C1841 1.392 . S
N1813 Co1807 2.008 . S
N1813 C1814 1.376 . S
N1813 C1817 1.374 . S
C1814 N1813 1.376 . S
C1814 C1815 1.443 . S
C1814 C1841 1.389 . S
C1815 C1814 1.443 . S
C1815 C1816 1.340 . S
C1815 H1847 0.951 . S
C1816 C1815 1.340 . S
C1816 C1817 1.439 . S
C1816 H1848 0.950 . S
C1817 N1813 1.374 . S
C1817 C1816 1.439 . S
C1817 C1842 1.395 . S
N1818 Co1807 1.995 . S
N1818 C1819 1.376 . S
N1818 C1822 1.383 . S
C1819 N1818 1.376 . S
C1819 C1820 1.446 . S
C1819 C1842 1.391 . S
C1820 C1819 1.446 . S
C1820 C1821 1.339 . S
C1820 H1849 0.949 . S
C1821 C1820 1.339 . S
C1821 C1822 1.439 . S
C1821 H1850 0.950 . S
C1822 N1818 1.383 . S
C1822 C1821 1.439 . S
C1822 C1840 1.392 . S
N1823 Co1807 2.282 . S
N1823 C1826 1.332 . S
N1823 C1828 1.332 . S
C1824 C1825 1.386 . S
C1824 C1827 1.388 . S
C1825 C1824 1.386 . S
C1825 C1826 1.382 . S
C1825 H1851 0.950 . S
C1826 N1823 1.332 . S
C1826 C1825 1.382 . S
C1826 H1837 0.952 . S
C1827 C1824 1.388 . S
C1827 C1828 1.382 . S
C1827 H1852 0.950 . S
C1828 N1823 1.332 . S
C1828 C1827 1.382 . S
C1828 H1838 0.948 . S
N1829 Co1807 2.282 . S
N1829 C1833 1.332 . S
N1829 C1834 1.332 . S
C1830 C1831 1.388 . S
C1830 C1834 1.382 . S
C1830 H1853 0.950 . S
C1831 C1830 1.388 . S
C1831 C1832 1.386 . S
C1832 C1831 1.386 . S
C1832 C1833 1.382 . S
C1832 H1854 0.950 . S
C1833 N1829 1.332 . S
C1833 C1832 1.382 . S
C1833 H1835 0.952 . S
C1834 N1829 1.332 . S
C1834 C1830 1.382 . S
C1834 H1836 0.948 . S
H1835 C1833 0.952 . S
H1836 C1834 0.948 . S
H1837 C1826 0.952 . S
H1838 C1828 0.948 . S
C1839 C1805 1.395 . S
C1839 C1809 1.391 . S
C1840 C1802 1.389 . S
C1840 C1822 1.392 . S
C1841 C1812 1.392 . S
C1841 C1814 1.389 . S
C1842 C1817 1.395 . S
C1842 C1819 1.391 . S
H1843 C1803 0.951 . S
H1844 C1804 0.950 . S
H1845 C1810 0.949 . S
H1846 C1811 0.950 . S
H1847 C1815 0.951 . S
H1848 C1816 0.950 . S
H1849 C1820 0.949 . S
H1850 C1821 0.950 . S
H1851 C1825 0.950 . S
H1852 C1827 0.950 . S
H1853 C1830 0.950 . S
H1854 C1832 0.950 . S
C1855 C1856 1.443 1_655 S
C1855 N1859 1.376 . S
C1855 C1893 1.389 . S
C1856 C1855 1.443 1_455 S
C1856 C1857 1.340 . S
C1856 H1896 0.951 . S
C1857 C1856 1.340 . S
C1857 C1858 1.439 1_455 S
C1857 H1897 0.950 . S
C1858 C1857 1.439 1_655 S
C1858 N1859 1.374 . S
C1858 C1892 1.395 . S
N1859 C1855 1.376 . S
N1859 C1858 1.374 . S
N1859 Co1860 2.008 . S
Co1860 N1859 2.008 . S
Co1860 N1861 1.995 . S
Co1860 N1866 2.008 . S
Co1860 N1871 1.995 . S
Co1860 N1876 2.282 . S
Co1860 N1882 2.282 . S
N1861 Co1860 1.995 . S
N1861 C1862 1.376 . S
N1861 C1865 1.383 . S
C1862 N1861 1.376 . S
C1862 C1863 1.446 . S
C1862 C1892 1.391 . S
C1863 C1862 1.446 . S
C1863 C1864 1.339 . S
C1863 H1898 0.949 . S
C1864 C1863 1.339 . S
C1864 C1865 1.439 . S
C1864 H1899 0.950 . S
C1865 N1861 1.383 . S
C1865 C1864 1.439 . S
C1865 C1894 1.392 . S
N1866 Co1860 2.008 . S
N1866 C1867 1.376 . S
N1866 C1870 1.374 . S
C1867 N1866 1.376 . S
C1867 C1868 1.443 . S
C1867 C1894 1.389 . S
C1868 C1867 1.443 . S
C1868 C1869 1.340 . S
C1868 H1900 0.951 . S
C1869 C1868 1.340 . S
C1869 C1870 1.439 . S
C1869 H1901 0.950 . S
C1870 N1866 1.374 . S
C1870 C1869 1.439 . S
C1870 C1895 1.395 . S
N1871 Co1860 1.995 . S
N1871 C1872 1.376 . S
N1871 C1875 1.383 . S
C1872 N1871 1.376 . S
C1872 C1873 1.446 . S
C1872 C1895 1.391 . S
C1873 C1872 1.446 . S
C1873 C1874 1.339 . S
C1873 H1902 0.949 . S
C1874 C1873 1.339 . S
C1874 C1875 1.439 . S
C1874 H1903 0.950 . S
C1875 N1871 1.383 . S
C1875 C1874 1.439 . S
C1875 C1893 1.392 . S
N1876 Co1860 2.282 . S
N1876 C1879 1.332 . S
N1876 C1881 1.332 . S
C1877 C1878 1.386 . S
C1877 C1880 1.388 . S
C1878 C1877 1.386 . S
C1878 C1879 1.382 . S
C1878 H1904 0.950 . S
C1879 N1876 1.332 . S
C1879 C1878 1.382 . S
C1879 H1890 0.952 . S
C1880 C1877 1.388 . S
C1880 C1881 1.382 . S
C1880 H1905 0.950 . S
C1881 N1876 1.332 . S
C1881 C1880 1.382 . S
C1881 H1891 0.948 . S
N1882 Co1860 2.282 . S
N1882 C1886 1.332 . S
N1882 C1887 1.332 . S
C1883 C1884 1.388 . S
C1883 C1887 1.382 . S
C1883 H1906 0.950 . S
C1884 C1883 1.388 . S
C1884 C1885 1.386 . S
C1885 C1884 1.386 . S
C1885 C1886 1.382 . S
C1885 H1907 0.950 . S
C1886 N1882 1.332 . S
C1886 C1885 1.382 . S
C1886 H1888 0.952 . S
C1887 N1882 1.332 . S
C1887 C1883 1.382 . S
C1887 H1889 0.948 . S
H1888 C1886 0.952 . S
H1889 C1887 0.948 . S
H1890 C1879 0.952 . S
H1891 C1881 0.948 . S
C1892 C1858 1.395 . S
C1892 C1862 1.391 . S
C1893 C1855 1.389 . S
C1893 C1875 1.392 . S
C1894 C1865 1.392 . S
C1894 C1867 1.389 . S
C1895 C1870 1.395 . S
C1895 C1872 1.391 . S
H1896 C1856 0.951 . S
H1897 C1857 0.950 . S
H1898 C1863 0.949 . S
H1899 C1864 0.950 . S
H1900 C1868 0.951 . S
H1901 C1869 0.950 . S
H1902 C1873 0.949 . S
H1903 C1874 0.950 . S
H1904 C1878 0.950 . S
H1905 C1880 0.950 . S
H1906 C1883 0.950 . S
H1907 C1885 0.950 . S
C1908 C1909 1.443 . S
C1908 N1912 1.376 . S
C1908 C1946 1.389 . S
C1909 C1908 1.443 . S
C1909 C1910 1.340 . S
C1909 H1949 0.951 . S
C1910 C1909 1.340 . S
C1910 C1911 1.439 . S
C1910 H1950 0.950 . S
C1911 C1910 1.439 . S
C1911 N1912 1.374 . S
C1911 C1945 1.395 . S
N1912 C1908 1.376 . S
N1912 C1911 1.374 . S
N1912 Co1913 2.008 . S
Co1913 N1912 2.008 . S
Co1913 N1914 1.995 . S
Co1913 N1919 2.008 . S
Co1913 N1924 1.995 . S
Co1913 N1929 2.282 . S
Co1913 N1935 2.282 . S
N1914 Co1913 1.995 . S
N1914 C1915 1.376 . S
N1914 C1918 1.383 . S
C1915 N1914 1.376 . S
C1915 C1916 1.446 . S
C1915 C1945 1.391 . S
C1916 C1915 1.446 . S
C1916 C1917 1.339 . S
C1916 H1951 0.949 . S
C1917 C1916 1.339 . S
C1917 C1918 1.439 . S
C1917 H1952 0.950 . S
C1918 N1914 1.383 . S
C1918 C1917 1.439 . S
C1918 C1947 1.392 . S
N1919 Co1913 2.008 . S
N1919 C1920 1.376 . S
N1919 C1923 1.374 . S
C1920 N1919 1.376 . S
C1920 C1921 1.443 . S
C1920 C1947 1.389 . S
C1921 C1920 1.443 . S
C1921 C1922 1.340 . S
C1921 H1953 0.951 . S
C1922 C1921 1.340 . S
C1922 C1923 1.439 . S
C1922 H1954 0.950 . S
C1923 N1919 1.374 . S
C1923 C1922 1.439 . S
C1923 C1948 1.395 . S
N1924 Co1913 1.995 . S
N1924 C1925 1.376 . S
N1924 C1928 1.383 . S
C1925 N1924 1.376 . S
C1925 C1926 1.446 . S
C1925 C1948 1.391 . S
C1926 C1925 1.446 . S
C1926 C1927 1.339 . S
C1926 H1955 0.949 . S
C1927 C1926 1.339 . S
C1927 C1928 1.439 . S
C1927 H1956 0.950 . S
C1928 N1924 1.383 . S
C1928 C1927 1.439 . S
C1928 C1946 1.392 . S
N1929 Co1913 2.282 . S
N1929 C1932 1.332 . S
N1929 C1934 1.332 . S
C1930 C1931 1.386 . S
C1930 C1933 1.388 . S
C1931 C1930 1.386 . S
C1931 C1932 1.382 . S
C1931 H1957 0.950 . S
C1932 N1929 1.332 . S
C1932 C1931 1.382 . S
C1932 H1943 0.952 . S
C1933 C1930 1.388 . S
C1933 C1934 1.382 . S
C1933 H1958 0.950 . S
C1934 N1929 1.332 . S
C1934 C1933 1.382 . S
C1934 H1944 0.948 . S
N1935 Co1913 2.282 . S
N1935 C1939 1.332 . S
N1935 C1940 1.332 . S
C1936 C1937 1.388 . S
C1936 C1940 1.382 . S
C1936 H1959 0.950 . S
C1937 C1936 1.388 . S
C1937 C1938 1.386 . S
C1938 C1937 1.386 . S
C1938 C1939 1.382 . S
C1938 H1960 0.950 . S
C1939 N1935 1.332 . S
C1939 C1938 1.382 . S
C1939 H1941 0.952 . S
C1940 N1935 1.332 . S
C1940 C1936 1.382 . S
C1940 H1942 0.948 . S
H1941 C1939 0.952 . S
H1942 C1940 0.948 . S
H1943 C1932 0.952 . S
H1944 C1934 0.948 . S
C1945 C1911 1.395 . S
C1945 C1915 1.391 . S
C1946 C1908 1.389 . S
C1946 C1928 1.392 . S
C1947 C1918 1.392 . S
C1947 C1920 1.389 . S
C1948 C1923 1.395 . S
C1948 C1925 1.391 . S
H1949 C1909 0.951 . S
H1950 C1910 0.950 . S
H1951 C1916 0.949 . S
H1952 C1917 0.950 . S
H1953 C1921 0.951 . S
H1954 C1922 0.950 . S
H1955 C1926 0.949 . S
H1956 C1927 0.950 . S
H1957 C1931 0.950 . S
H1958 C1933 0.950 . S
H1959 C1936 0.950 . S
H1960 C1938 0.950 . S
C1961 C1962 1.443 1_655 S
C1961 N1965 1.376 . S
C1961 C1999 1.389 . S
C1962 C1961 1.443 1_455 S
C1962 C1963 1.340 . S
C1962 H2002 0.951 . S
C1963 C1962 1.340 . S
C1963 C1964 1.439 1_455 S
C1963 H2003 0.950 . S
C1964 C1963 1.439 1_655 S
C1964 N1965 1.374 . S
C1964 C1998 1.395 . S
N1965 C1961 1.376 . S
N1965 C1964 1.374 . S
N1965 Co1966 2.008 . S
Co1966 N1965 2.008 . S
Co1966 N1967 1.995 . S
Co1966 N1972 2.008 . S
Co1966 N1977 1.995 . S
Co1966 N1982 2.282 . S
Co1966 N1988 2.282 . S
N1967 Co1966 1.995 . S
N1967 C1968 1.376 . S
N1967 C1971 1.383 . S
C1968 N1967 1.376 . S
C1968 C1969 1.446 . S
C1968 C1998 1.391 . S
C1969 C1968 1.446 . S
C1969 C1970 1.339 . S
C1969 H2004 0.949 . S
C1970 C1969 1.339 . S
C1970 C1971 1.439 . S
C1970 H2005 0.950 . S
C1971 N1967 1.383 . S
C1971 C1970 1.439 . S
C1971 C2000 1.392 . S
N1972 Co1966 2.008 . S
N1972 C1973 1.376 . S
N1972 C1976 1.374 . S
C1973 N1972 1.376 . S
C1973 C1974 1.443 . S
C1973 C2000 1.389 . S
C1974 C1973 1.443 . S
C1974 C1975 1.340 . S
C1974 H2006 0.951 . S
C1975 C1974 1.340 . S
C1975 C1976 1.439 . S
C1975 H2007 0.950 . S
C1976 N1972 1.374 . S
C1976 C1975 1.439 . S
C1976 C2001 1.395 . S
N1977 Co1966 1.995 . S
N1977 C1978 1.376 . S
N1977 C1981 1.383 . S
C1978 N1977 1.376 . S
C1978 C1979 1.446 . S
C1978 C2001 1.391 . S
C1979 C1978 1.446 . S
C1979 C1980 1.339 . S
C1979 H2008 0.949 . S
C1980 C1979 1.339 . S
C1980 C1981 1.439 . S
C1980 H2009 0.950 1_556 S
C1981 N1977 1.383 . S
C1981 C1980 1.439 . S
C1981 C1999 1.392 . S
N1982 Co1966 2.282 . S
N1982 C1985 1.332 . S
N1982 C1987 1.332 . S
C1983 C1984 1.386 . S
C1983 C1986 1.388 . S
C1984 C1983 1.386 . S
C1984 C1985 1.382 . S
C1984 H2010 0.950 . S
C1985 N1982 1.332 . S
C1985 C1984 1.382 . S
C1985 H1996 0.952 . S
C1986 C1983 1.388 . S
C1986 C1987 1.382 . S
C1986 H2011 0.950 . S
C1987 N1982 1.332 . S
C1987 C1986 1.382 . S
C1987 H1997 0.948 . S
N1988 Co1966 2.282 . S
N1988 C1992 1.332 . S
N1988 C1993 1.332 . S
C1989 C1990 1.388 . S
C1989 C1993 1.382 . S
C1989 H2012 0.950 . S
C1990 C1989 1.388 . S
C1990 C1991 1.386 . S
C1991 C1990 1.386 . S
C1991 C1992 1.382 . S
C1991 H2013 0.950 . S
C1992 N1988 1.332 . S
C1992 C1991 1.382 . S
C1992 H1994 0.952 . S
C1993 N1988 1.332 . S
C1993 C1989 1.382 . S
C1993 H1995 0.948 . S
H1994 C1992 0.952 . S
H1995 C1993 0.948 . S
H1996 C1985 0.952 . S
H1997 C1987 0.948 . S
C1998 C1964 1.395 . S
C1998 C1968 1.391 . S
C1999 C1961 1.389 . S
C1999 C1981 1.392 . S
C2000 C1971 1.392 . S
C2000 C1973 1.389 . S
C2001 C1976 1.395 . S
C2001 C1978 1.391 . S
H2002 C1962 0.951 . S
H2003 C1963 0.950 . S
H2004 C1969 0.949 . S
H2005 C1970 0.950 . S
H2006 C1974 0.951 . S
H2007 C1975 0.950 . S
H2008 C1979 0.949 . S
H2009 C1980 0.950 1_554 S
H2010 C1984 0.950 . S
H2011 C1986 0.950 . S
H2012 C1989 0.950 . S
H2013 C1991 0.950 . S
C2014 C2015 1.443 . S
C2014 N2018 1.376 . S
C2014 C2052 1.389 . S
C2015 C2014 1.443 . S
C2015 C2016 1.340 . S
C2015 H2055 0.951 . S
C2016 C2015 1.340 . S
C2016 C2017 1.439 . S
C2016 H2056 0.950 . S
C2017 C2016 1.439 . S
C2017 N2018 1.374 . S
C2017 C2051 1.395 . S
N2018 C2014 1.376 . S
N2018 C2017 1.374 . S
N2018 Co2019 2.008 . S
Co2019 N2018 2.008 . S
Co2019 N2020 1.995 . S
Co2019 N2025 2.008 . S
Co2019 N2030 1.995 . S
Co2019 N2035 2.282 . S
Co2019 N2041 2.282 . S
N2020 Co2019 1.995 . S
N2020 C2021 1.376 . S
N2020 C2024 1.383 . S
C2021 N2020 1.376 . S
C2021 C2022 1.446 . S
C2021 C2051 1.391 . S
C2022 C2021 1.446 . S
C2022 C2023 1.339 . S
C2022 H2057 0.949 . S
C2023 C2022 1.339 . S
C2023 C2024 1.439 . S
C2023 H2058 0.950 . S
C2024 N2020 1.383 . S
C2024 C2023 1.439 . S
C2024 C2053 1.392 . S
N2025 Co2019 2.008 . S
N2025 C2026 1.376 . S
N2025 C2029 1.374 . S
C2026 N2025 1.376 . S
C2026 C2027 1.443 . S
C2026 C2053 1.389 . S
C2027 C2026 1.443 . S
C2027 C2028 1.340 . S
C2027 H2059 0.951 . S
C2028 C2027 1.340 . S
C2028 C2029 1.439 . S
C2028 H2060 0.950 . S
C2029 N2025 1.374 . S
C2029 C2028 1.439 . S
C2029 C2054 1.395 . S
N2030 Co2019 1.995 . S
N2030 C2031 1.376 . S
N2030 C2034 1.383 . S
C2031 N2030 1.376 . S
C2031 C2032 1.446 . S
C2031 C2054 1.391 . S
C2032 C2031 1.446 . S
C2032 C2033 1.339 . S
C2032 H2061 0.949 . S
C2033 C2032 1.339 . S
C2033 C2034 1.439 . S
C2033 H2062 0.950 . S
C2034 N2030 1.383 . S
C2034 C2033 1.439 . S
C2034 C2052 1.392 . S
N2035 Co2019 2.282 . S
N2035 C2038 1.332 . S
N2035 C2040 1.332 . S
C2036 C2037 1.386 . S
C2036 C2039 1.388 . S
C2037 C2036 1.386 . S
C2037 C2038 1.382 . S
C2037 H2063 0.950 . S
C2038 N2035 1.332 . S
C2038 C2037 1.382 . S
C2038 H2049 0.952 . S
C2039 C2036 1.388 . S
C2039 C2040 1.382 . S
C2039 H2064 0.950 . S
C2040 N2035 1.332 . S
C2040 C2039 1.382 . S
C2040 H2050 0.948 . S
N2041 Co2019 2.282 . S
N2041 C2045 1.332 . S
N2041 C2046 1.332 . S
C2042 C2043 1.388 . S
C2042 C2046 1.382 . S
C2042 H2065 0.950 . S
C2043 C2042 1.388 . S
C2043 C2044 1.386 . S
C2044 C2043 1.386 . S
C2044 C2045 1.382 . S
C2044 H2066 0.950 . S
C2045 N2041 1.332 . S
C2045 C2044 1.382 . S
C2045 H2047 0.952 . S
C2046 N2041 1.332 . S
C2046 C2042 1.382 . S
C2046 H2048 0.948 . S
H2047 C2045 0.952 . S
H2048 C2046 0.948 . S
H2049 C2038 0.952 . S
H2050 C2040 0.948 . S
C2051 C2017 1.395 . S
C2051 C2021 1.391 . S
C2052 C2014 1.389 . S
C2052 C2034 1.392 . S
C2053 C2024 1.392 . S
C2053 C2026 1.389 . S
C2054 C2029 1.395 . S
C2054 C2031 1.391 . S
H2055 C2015 0.951 . S
H2056 C2016 0.950 . S
H2057 C2022 0.949 . S
H2058 C2023 0.950 . S
H2059 C2027 0.951 . S
H2060 C2028 0.950 . S
H2061 C2032 0.949 . S
H2062 C2033 0.950 . S
H2063 C2037 0.950 . S
H2064 C2039 0.950 . S
H2065 C2042 0.950 . S
H2066 C2044 0.950 . S
C2067 C2068 1.443 . S
C2067 N2071 1.376 . S
C2067 C2105 1.389 . S
C2068 C2067 1.443 . S
C2068 C2069 1.340 . S
C2068 H2108 0.951 . S
C2069 C2068 1.340 . S
C2069 C2070 1.439 . S
C2069 H2109 0.950 . S
C2070 C2069 1.439 . S
C2070 N2071 1.374 . S
C2070 C2104 1.395 . S
N2071 C2067 1.376 . S
N2071 C2070 1.374 . S
N2071 Co2072 2.008 . S
Co2072 N2071 2.008 . S
Co2072 N2073 1.995 . S
Co2072 N2078 2.008 . S
Co2072 N2083 1.995 . S
Co2072 N2088 2.282 . S
Co2072 N2094 2.282 . S
N2073 Co2072 1.995 . S
N2073 C2074 1.376 . S
N2073 C2077 1.383 . S
C2074 N2073 1.376 . S
C2074 C2075 1.446 . S
C2074 C2104 1.391 . S
C2075 C2074 1.446 . S
C2075 C2076 1.339 . S
C2075 H2110 0.949 . S
C2076 C2075 1.339 . S
C2076 C2077 1.439 . S
C2076 H2111 0.950 . S
C2077 N2073 1.383 . S
C2077 C2076 1.439 . S
C2077 C2106 1.392 . S
N2078 Co2072 2.008 . S
N2078 C2079 1.376 . S
N2078 C2082 1.374 . S
C2079 N2078 1.376 . S
C2079 C2080 1.443 . S
C2079 C2106 1.389 . S
C2080 C2079 1.443 . S
C2080 C2081 1.340 . S
C2080 H2112 0.951 . S
C2081 C2080 1.340 . S
C2081 C2082 1.439 . S
C2081 H2113 0.950 . S
C2082 N2078 1.374 . S
C2082 C2081 1.439 . S
C2082 C2107 1.395 . S
N2083 Co2072 1.995 . S
N2083 C2084 1.376 . S
N2083 C2087 1.383 . S
C2084 N2083 1.376 . S
C2084 C2085 1.446 . S
C2084 C2107 1.391 . S
C2085 C2084 1.446 . S
C2085 C2086 1.339 . S
C2085 H2114 0.949 . S
C2086 C2085 1.339 . S
C2086 C2087 1.439 . S
C2086 H2115 0.950 . S
C2087 N2083 1.383 . S
C2087 C2086 1.439 . S
C2087 C2105 1.392 . S
N2088 Co2072 2.282 . S
N2088 C2091 1.332 . S
N2088 C2093 1.332 . S
C2089 C2090 1.386 . S
C2089 C2092 1.388 . S
C2090 C2089 1.386 . S
C2090 C2091 1.382 . S
C2090 H2116 0.950 . S
C2091 N2088 1.332 . S
C2091 C2090 1.382 . S
C2091 H2102 0.952 . S
C2092 C2089 1.388 . S
C2092 C2093 1.382 . S
C2092 H2117 0.950 . S
C2093 N2088 1.332 . S
C2093 C2092 1.382 . S
C2093 H2103 0.948 . S
N2094 Co2072 2.282 . S
N2094 C2098 1.332 . S
N2094 C2099 1.332 . S
C2095 C2096 1.388 . S
C2095 C2099 1.382 . S
C2095 H2118 0.950 . S
C2096 C2095 1.388 . S
C2096 C2097 1.386 . S
C2097 C2096 1.386 . S
C2097 C2098 1.382 . S
C2097 H2119 0.950 . S
C2098 N2094 1.332 . S
C2098 C2097 1.382 . S
C2098 H2100 0.952 . S
C2099 N2094 1.332 . S
C2099 C2095 1.382 . S
C2099 H2101 0.948 . S
H2100 C2098 0.952 . S
H2101 C2099 0.948 . S
H2102 C2091 0.952 . S
H2103 C2093 0.948 . S
C2104 C2070 1.395 . S
C2104 C2074 1.391 . S
C2105 C2067 1.389 . S
C2105 C2087 1.392 . S
C2106 C2077 1.392 . S
C2106 C2079 1.389 . S
C2107 C2082 1.395 . S
C2107 C2084 1.391 . S
H2108 C2068 0.951 . S
H2109 C2069 0.950 . S
H2110 C2075 0.949 . S
H2111 C2076 0.950 . S
H2112 C2080 0.951 . S
H2113 C2081 0.950 . S
H2114 C2085 0.949 . S
H2115 C2086 0.950 . S
H2116 C2090 0.950 . S
H2117 C2092 0.950 . S
H2118 C2095 0.950 . S
H2119 C2097 0.950 . S
C2120 C2121 1.443 . S
C2120 N2124 1.376 . S
C2120 C2158 1.389 . S
C2121 C2120 1.443 . S
C2121 C2122 1.340 . S
C2121 H2161 0.951 . S
C2122 C2121 1.340 . S
C2122 C2123 1.439 . S
C2122 H2162 0.950 . S
C2123 C2122 1.439 . S
C2123 N2124 1.374 . S
C2123 C2157 1.395 . S
N2124 C2120 1.376 . S
N2124 C2123 1.374 . S
N2124 Co2125 2.008 . S
Co2125 N2124 2.008 . S
Co2125 N2126 1.995 . S
Co2125 N2131 2.008 . S
Co2125 N2136 1.995 . S
Co2125 N2141 2.282 . S
Co2125 N2147 2.282 . S
N2126 Co2125 1.995 . S
N2126 C2127 1.376 . S
N2126 C2130 1.383 . S
C2127 N2126 1.376 . S
C2127 C2128 1.446 . S
C2127 C2157 1.391 . S
C2128 C2127 1.446 . S
C2128 C2129 1.339 . S
C2128 H2163 0.949 . S
C2129 C2128 1.339 . S
C2129 C2130 1.439 . S
C2129 H2164 0.950 . S
C2130 N2126 1.383 . S
C2130 C2129 1.439 . S
C2130 C2159 1.392 . S
N2131 Co2125 2.008 . S
N2131 C2132 1.376 . S
N2131 C2135 1.374 . S
C2132 N2131 1.376 . S
C2132 C2133 1.443 . S
C2132 C2159 1.389 . S
C2133 C2132 1.443 . S
C2133 C2134 1.340 . S
C2133 H2165 0.951 . S
C2134 C2133 1.340 . S
C2134 C2135 1.439 . S
C2134 H2166 0.950 . S
C2135 N2131 1.374 . S
C2135 C2134 1.439 . S
C2135 C2160 1.395 . S
N2136 Co2125 1.995 . S
N2136 C2137 1.376 . S
N2136 C2140 1.383 . S
C2137 N2136 1.376 . S
C2137 C2138 1.446 . S
C2137 C2160 1.391 . S
C2138 C2137 1.446 . S
C2138 C2139 1.339 . S
C2138 H2167 0.949 . S
C2139 C2138 1.339 . S
C2139 C2140 1.439 . S
C2139 H2168 0.950 . S
C2140 N2136 1.383 . S
C2140 C2139 1.439 . S
C2140 C2158 1.392 . S
N2141 Co2125 2.282 . S
N2141 C2144 1.332 . S
N2141 C2146 1.332 . S
C2142 C2143 1.386 . S
C2142 C2145 1.388 . S
C2143 C2142 1.386 . S
C2143 C2144 1.382 . S
C2143 H2169 0.950 . S
C2144 N2141 1.332 . S
C2144 C2143 1.382 . S
C2144 H2155 0.952 . S
C2145 C2142 1.388 . S
C2145 C2146 1.382 . S
C2145 H2170 0.950 . S
C2146 N2141 1.332 . S
C2146 C2145 1.382 . S
C2146 H2156 0.948 . S
N2147 Co2125 2.282 . S
N2147 C2151 1.332 . S
N2147 C2152 1.332 . S
C2148 C2149 1.388 . S
C2148 C2152 1.382 . S
C2148 H2171 0.950 . S
C2149 C2148 1.388 . S
C2149 C2150 1.386 . S
C2150 C2149 1.386 . S
C2150 C2151 1.382 . S
C2150 H2172 0.950 . S
C2151 N2147 1.332 . S
C2151 C2150 1.382 . S
C2151 H2153 0.952 . S
C2152 N2147 1.332 . S
C2152 C2148 1.382 . S
C2152 H2154 0.948 . S
H2153 C2151 0.952 . S
H2154 C2152 0.948 . S
H2155 C2144 0.952 . S
H2156 C2146 0.948 . S
C2157 C2123 1.395 . S
C2157 C2127 1.391 . S
C2158 C2120 1.389 . S
C2158 C2140 1.392 . S
C2159 C2130 1.392 . S
C2159 C2132 1.389 . S
C2160 C2135 1.395 . S
C2160 C2137 1.391 . S
H2161 C2121 0.951 . S
H2162 C2122 0.950 . S
H2163 C2128 0.949 . S
H2164 C2129 0.950 . S
H2165 C2133 0.951 . S
H2166 C2134 0.950 . S
H2167 C2138 0.949 . S
H2168 C2139 0.950 . S
H2169 C2143 0.950 . S
H2170 C2145 0.950 . S
H2171 C2148 0.950 . S
H2172 C2150 0.950 . S
C2173 C2174 1.443 . S
C2173 N2177 1.376 . S
C2173 C2211 1.389 . S
C2174 C2173 1.443 . S
C2174 C2175 1.340 . S
C2174 H2214 0.951 . S
C2175 C2174 1.340 . S
C2175 C2176 1.439 . S
C2175 H2215 0.950 . S
C2176 C2175 1.439 . S
C2176 N2177 1.374 . S
C2176 C2210 1.395 . S
N2177 C2173 1.376 . S
N2177 C2176 1.374 . S
N2177 Co2178 2.008 . S
Co2178 N2177 2.008 . S
Co2178 N2179 1.995 . S
Co2178 N2184 2.008 . S
Co2178 N2189 1.995 . S
Co2178 N2194 2.282 . S
Co2178 N2200 2.282 . S
N2179 Co2178 1.995 . S
N2179 C2180 1.376 . S
N2179 C2183 1.383 . S
C2180 N2179 1.376 . S
C2180 C2181 1.446 . S
C2180 C2210 1.391 . S
C2181 C2180 1.446 . S
C2181 C2182 1.339 . S
C2181 H2216 0.949 . S
C2182 C2181 1.339 . S
C2182 C2183 1.439 . S
C2182 H2217 0.950 . S
C2183 N2179 1.383 . S
C2183 C2182 1.439 . S
C2183 C2212 1.392 . S
N2184 Co2178 2.008 . S
N2184 C2185 1.376 . S
N2184 C2188 1.374 . S
C2185 N2184 1.376 . S
C2185 C2186 1.443 . S
C2185 C2212 1.389 . S
C2186 C2185 1.443 . S
C2186 C2187 1.340 . S
C2186 H2218 0.951 . S
C2187 C2186 1.340 . S
C2187 C2188 1.439 . S
C2187 H2219 0.950 . S
C2188 N2184 1.374 . S
C2188 C2187 1.439 . S
C2188 C2213 1.395 . S
N2189 Co2178 1.995 . S
N2189 C2190 1.376 . S
N2189 C2193 1.383 . S
C2190 N2189 1.376 . S
C2190 C2191 1.446 . S
C2190 C2213 1.391 . S
C2191 C2190 1.446 . S
C2191 C2192 1.339 . S
C2191 H2220 0.949 . S
C2192 C2191 1.339 . S
C2192 C2193 1.439 . S
C2192 H2221 0.950 . S
C2193 N2189 1.383 . S
C2193 C2192 1.439 . S
C2193 C2211 1.392 . S
N2194 Co2178 2.282 . S
N2194 C2197 1.332 . S
N2194 C2199 1.332 . S
C2195 C2196 1.386 . S
C2195 C2198 1.388 . S
C2196 C2195 1.386 . S
C2196 C2197 1.382 . S
C2196 H2222 0.950 . S
C2197 N2194 1.332 . S
C2197 C2196 1.382 . S
C2197 H2208 0.952 . S
C2198 C2195 1.388 . S
C2198 C2199 1.382 . S
C2198 H2223 0.950 . S
C2199 N2194 1.332 . S
C2199 C2198 1.382 . S
C2199 H2209 0.948 . S
N2200 Co2178 2.282 . S
N2200 C2204 1.332 . S
N2200 C2205 1.332 . S
C2201 C2202 1.388 . S
C2201 C2205 1.382 . S
C2201 H2224 0.950 . S
C2202 C2201 1.388 . S
C2202 C2203 1.386 . S
C2203 C2202 1.386 . S
C2203 C2204 1.382 . S
C2203 H2225 0.950 . S
C2204 N2200 1.332 . S
C2204 C2203 1.382 . S
C2204 H2206 0.952 . S
C2205 N2200 1.332 . S
C2205 C2201 1.382 . S
C2205 H2207 0.948 . S
H2206 C2204 0.952 . S
H2207 C2205 0.948 . S
H2208 C2197 0.952 . S
H2209 C2199 0.948 . S
C2210 C2176 1.395 . S
C2210 C2180 1.391 . S
C2211 C2173 1.389 . S
C2211 C2193 1.392 . S
C2212 C2183 1.392 . S
C2212 C2185 1.389 . S
C2213 C2188 1.395 . S
C2213 C2190 1.391 . S
H2214 C2174 0.951 . S
H2215 C2175 0.950 . S
H2216 C2181 0.949 . S
H2217 C2182 0.950 . S
H2218 C2186 0.951 . S
H2219 C2187 0.950 . S
H2220 C2191 0.949 . S
H2221 C2192 0.950 . S
H2222 C2196 0.950 . S
H2223 C2198 0.950 . S
H2224 C2201 0.950 . S
H2225 C2203 0.950 . S
C2226 C2227 1.443 . S
C2226 N2230 1.376 1_565 S
C2226 C2264 1.389 . S
C2227 C2226 1.443 . S
C2227 C2228 1.340 1_565 S
C2227 H2267 0.951 . S
C2228 C2227 1.340 1_545 S
C2228 C2229 1.439 . S
C2228 H2268 0.950 . S
C2229 C2228 1.439 . S
C2229 N2230 1.374 . S
C2229 C2263 1.395 . S
N2230 C2226 1.376 1_545 S
N2230 C2229 1.374 . S
N2230 Co2231 2.008 . S
Co2231 N2230 2.008 . S
Co2231 N2232 1.995 . S
Co2231 N2237 2.008 . S
Co2231 N2242 2.025 . S
Co2231 N2247 2.282 1_545 S
Co2231 N2253 2.282 . S
N2232 Co2231 1.995 . S
N2232 C2233 1.376 . S
N2232 C2236 1.383 . S
C2233 N2232 1.376 . S
C2233 C2234 1.446 . S
C2233 C2263 1.391 . S
C2234 C2233 1.446 . S
C2234 C2235 1.339 . S
C2234 H2269 0.949 . S
C2235 C2234 1.339 . S
C2235 C2236 1.439 . S
C2235 H2270 0.950 . S
C2236 N2232 1.383 . S
C2236 C2235 1.439 . S
C2236 C2265 1.392 . S
N2237 Co2231 2.008 . S
N2237 C2238 1.376 . S
N2237 C2241 1.374 . S
C2238 N2237 1.376 . S
C2238 C2239 1.443 . S
C2238 C2265 1.389 . S
C2239 C2238 1.443 . S
C2239 C2240 1.340 . S
C2239 H2271 0.951 . S
C2240 C2239 1.340 . S
C2240 C2241 1.439 . S
C2240 H2272 0.950 . S
C2241 N2237 1.374 . S
C2241 C2240 1.439 . S
C2241 C2266 1.395 . S
N2242 Co2231 2.025 . S
N2242 C2243 1.372 1_545 S
N2242 C2246 1.355 1_545 S
C2243 N2242 1.372 1_565 S
C2243 C2244 1.446 . S
C2243 C2266 1.391 1_565 S
C2244 C2243 1.446 . S
C2244 C2245 1.339 . S
C2244 H2273 0.949 . S
C2245 C2244 1.339 . S
C2245 C2246 1.439 . S
C2245 H2274 0.950 . S
C2246 N2242 1.355 1_565 S
C2246 C2245 1.439 . S
C2246 C2264 1.392 . S
N2247 Co2231 2.282 1_565 S
N2247 C2250 1.332 . S
N2247 C2252 1.334 . S
C2248 C2249 1.386 . S
C2248 C2251 1.388 . S
C2249 C2248 1.386 . S
C2249 C2250 1.382 . S
C2249 H2275 0.950 . S
C2250 N2247 1.332 . S
C2250 C2249 1.382 . S
C2250 H2261 0.952 . S
C2251 C2248 1.388 . S
C2251 C2252 1.398 . S
C2251 H2276 0.950 . S
C2252 N2247 1.334 . S
C2252 C2251 1.398 . S
C2252 H2262 0.930 1_565 S
N2253 Co2231 2.282 . S
N2253 C2257 1.332 . S
N2253 C2258 1.332 . S
C2254 C2255 1.388 . S
C2254 C2258 1.382 . S
C2254 H2277 0.950 . S
C2255 C2254 1.388 . S
C2255 C2256 1.386 . S
C2256 C2255 1.386 . S
C2256 C2257 1.382 . S
C2256 H2278 0.950 . S
C2257 N2253 1.332 . S
C2257 C2256 1.382 . S
C2257 H2259 0.952 . S
C2258 N2253 1.332 . S
C2258 C2254 1.382 . S
C2258 H2260 0.948 . S
H2259 C2257 0.952 . S
H2260 C2258 0.948 . S
H2261 C2250 0.952 . S
H2262 C2252 0.930 1_545 S
C2263 C2229 1.395 . S
C2263 C2233 1.391 . S
C2264 C2226 1.389 . S
C2264 C2246 1.392 . S
C2265 C2236 1.392 . S
C2265 C2238 1.389 . S
C2266 C2241 1.395 . S
C2266 C2243 1.391 1_545 S
H2267 C2227 0.951 . S
H2268 C2228 0.950 . S
H2269 C2234 0.949 . S
H2270 C2235 0.950 . S
H2271 C2239 0.951 . S
H2272 C2240 0.950 . S
H2273 C2244 0.949 . S
H2274 C2245 0.950 . S
H2275 C2249 0.950 . S
H2276 C2251 0.950 . S
H2277 C2254 0.950 . S
H2278 C2256 0.950 . S
C2279 C2280 1.443 . S
C2279 N2283 1.376 . S
C2279 C2317 1.389 . S
C2280 C2279 1.443 . S
C2280 C2281 1.340 . S
C2280 H2320 0.951 . S
C2281 C2280 1.340 . S
C2281 C2282 1.439 . S
C2281 H2321 0.950 . S
C2282 C2281 1.439 . S
C2282 N2283 1.374 . S
C2282 C2316 1.395 . S
N2283 C2279 1.376 . S
N2283 C2282 1.374 . S
N2283 Co2284 2.008 . S
Co2284 N2283 2.008 . S
Co2284 N2285 1.995 . S
Co2284 N2290 2.008 . S
Co2284 N2295 1.995 . S
Co2284 N2300 2.282 . S
Co2284 N2306 2.282 . S
N2285 Co2284 1.995 . S
N2285 C2286 1.376 . S
N2285 C2289 1.383 . S
C2286 N2285 1.376 . S
C2286 C2287 1.446 . S
C2286 C2316 1.391 . S
C2287 C2286 1.446 . S
C2287 C2288 1.339 . S
C2287 H2322 0.949 . S
C2288 C2287 1.339 . S
C2288 C2289 1.439 . S
C2288 H2323 0.950 . S
C2289 N2285 1.383 . S
C2289 C2288 1.439 . S
C2289 C2318 1.392 . S
N2290 Co2284 2.008 . S
N2290 C2291 1.376 . S
N2290 C2294 1.374 . S
C2291 N2290 1.376 . S
C2291 C2292 1.443 . S
C2291 C2318 1.389 . S
C2292 C2291 1.443 . S
C2292 C2293 1.340 . S
C2292 H2324 0.951 . S
C2293 C2292 1.340 . S
C2293 C2294 1.439 . S
C2293 H2325 0.950 . S
C2294 N2290 1.374 . S
C2294 C2293 1.439 . S
C2294 C2319 1.395 . S
N2295 Co2284 1.995 . S
N2295 C2296 1.376 . S
N2295 C2299 1.383 . S
C2296 N2295 1.376 . S
C2296 C2297 1.446 . S
C2296 C2319 1.391 . S
C2297 C2296 1.446 . S
C2297 C2298 1.339 . S
C2297 H2326 0.949 . S
C2298 C2297 1.339 . S
C2298 C2299 1.439 . S
C2298 H2327 0.950 . S
C2299 N2295 1.383 . S
C2299 C2298 1.439 . S
C2299 C2317 1.392 . S
N2300 Co2284 2.282 . S
N2300 C2303 1.332 . S
N2300 C2305 1.332 . S
C2301 C2302 1.386 . S
C2301 C2304 1.388 . S
C2302 C2301 1.386 . S
C2302 C2303 1.382 . S
C2302 H2328 0.950 . S
C2303 N2300 1.332 . S
C2303 C2302 1.382 . S
C2303 H2314 0.952 . S
C2304 C2301 1.388 . S
C2304 C2305 1.382 . S
C2304 H2329 0.950 . S
C2305 N2300 1.332 . S
C2305 C2304 1.382 . S
C2305 H2315 0.948 . S
N2306 Co2284 2.282 . S
N2306 C2310 1.332 . S
N2306 C2311 1.332 . S
C2307 C2308 1.388 . S
C2307 C2311 1.382 . S
C2307 H2330 0.950 . S
C2308 C2307 1.388 . S
C2308 C2309 1.386 . S
C2309 C2308 1.386 . S
C2309 C2310 1.382 . S
C2309 H2331 0.950 . S
C2310 N2306 1.332 . S
C2310 C2309 1.382 . S
C2310 H2312 0.952 . S
C2311 N2306 1.332 . S
C2311 C2307 1.382 . S
C2311 H2313 0.948 . S
H2312 C2310 0.952 . S
H2313 C2311 0.948 . S
H2314 C2303 0.952 . S
H2315 C2305 0.948 . S
C2316 C2282 1.395 . S
C2316 C2286 1.391 . S
C2317 C2279 1.389 . S
C2317 C2299 1.392 . S
C2318 C2289 1.392 . S
C2318 C2291 1.389 . S
C2319 C2294 1.395 . S
C2319 C2296 1.391 . S
H2320 C2280 0.951 . S
H2321 C2281 0.950 . S
H2322 C2287 0.949 . S
H2323 C2288 0.950 . S
H2324 C2292 0.951 . S
H2325 C2293 0.950 . S
H2326 C2297 0.949 . S
H2327 C2298 0.950 . S
H2328 C2302 0.950 . S
H2329 C2304 0.950 . S
H2330 C2307 0.950 . S
H2331 C2309 0.950 . S
C2332 C2333 1.443 . S
C2332 N2336 1.376 . S
C2332 C2370 1.389 . S
C2333 C2332 1.443 . S
C2333 C2334 1.340 . S
C2333 H2373 0.951 . S
C2334 C2333 1.340 . S
C2334 C2335 1.439 . S
C2334 H2374 0.950 . S
C2335 C2334 1.439 . S
C2335 N2336 1.374 . S
C2335 C2369 1.395 . S
N2336 C2332 1.376 . S
N2336 C2335 1.374 . S
N2336 Co2337 2.008 . S
Co2337 N2336 2.008 . S
Co2337 N2338 1.995 . S
Co2337 N2343 2.008 . S
Co2337 N2348 1.995 . S
Co2337 N2353 2.282 . S
Co2337 N2359 2.282 . S
N2338 Co2337 1.995 . S
N2338 C2339 1.376 . S
N2338 C2342 1.383 . S
C2339 N2338 1.376 . S
C2339 C2340 1.446 . S
C2339 C2369 1.391 . S
C2340 C2339 1.446 . S
C2340 C2341 1.339 . S
C2340 H2375 0.949 . S
C2341 C2340 1.339 . S
C2341 C2342 1.439 . S
C2341 H2376 0.950 . S
C2342 N2338 1.383 . S
C2342 C2341 1.439 . S
C2342 C2371 1.392 . S
N2343 Co2337 2.008 . S
N2343 C2344 1.376 . S
N2343 C2347 1.374 . S
C2344 N2343 1.376 . S
C2344 C2345 1.443 . S
C2344 C2371 1.389 . S
C2345 C2344 1.443 . S
C2345 C2346 1.340 . S
C2345 H2377 0.951 . S
C2346 C2345 1.340 . S
C2346 C2347 1.439 . S
C2346 H2378 0.950 . S
C2347 N2343 1.374 . S
C2347 C2346 1.439 . S
C2347 C2372 1.395 . S
N2348 Co2337 1.995 . S
N2348 C2349 1.376 . S
N2348 C2352 1.383 . S
C2349 N2348 1.376 . S
C2349 C2350 1.446 . S
C2349 C2372 1.391 . S
C2350 C2349 1.446 . S
C2350 C2351 1.339 . S
C2350 H2379 0.949 . S
C2351 C2350 1.339 . S
C2351 C2352 1.439 . S
C2351 H2380 0.950 . S
C2352 N2348 1.383 . S
C2352 C2351 1.439 . S
C2352 C2370 1.392 . S
N2353 Co2337 2.282 . S
N2353 C2356 1.332 . S
N2353 C2358 1.332 . S
C2354 C2355 1.386 . S
C2354 C2357 1.388 . S
C2355 C2354 1.386 . S
C2355 C2356 1.382 . S
C2355 H2381 0.950 . S
C2356 N2353 1.332 . S
C2356 C2355 1.382 . S
C2356 H2367 0.952 . S
C2357 C2354 1.388 . S
C2357 C2358 1.382 . S
C2357 H2382 0.950 . S
C2358 N2353 1.332 . S
C2358 C2357 1.382 . S
C2358 H2368 0.948 . S
N2359 Co2337 2.282 . S
N2359 C2363 1.332 . S
N2359 C2364 1.332 . S
C2360 C2361 1.388 . S
C2360 C2364 1.382 . S
C2360 H2383 0.950 . S
C2361 C2360 1.388 . S
C2361 C2362 1.386 . S
C2362 C2361 1.386 . S
C2362 C2363 1.382 . S
C2362 H2384 0.950 . S
C2363 N2359 1.332 . S
C2363 C2362 1.382 . S
C2363 H2365 0.952 . S
C2364 N2359 1.332 . S
C2364 C2360 1.382 . S
C2364 H2366 0.948 . S
H2365 C2363 0.952 . S
H2366 C2364 0.948 . S
H2367 C2356 0.952 . S
H2368 C2358 0.948 . S
C2369 C2335 1.395 . S
C2369 C2339 1.391 . S
C2370 C2332 1.389 . S
C2370 C2352 1.392 . S
C2371 C2342 1.392 . S
C2371 C2344 1.389 . S
C2372 C2347 1.395 . S
C2372 C2349 1.391 . S
H2373 C2333 0.951 . S
H2374 C2334 0.950 . S
H2375 C2340 0.949 . S
H2376 C2341 0.950 . S
H2377 C2345 0.951 . S
H2378 C2346 0.950 . S
H2379 C2350 0.949 . S
H2380 C2351 0.950 . S
H2381 C2355 0.950 . S
H2382 C2357 0.950 . S
H2383 C2360 0.950 . S
H2384 C2362 0.950 . S
C2385 C2386 1.443 . S
C2385 N2389 1.376 . S
C2385 C2423 1.389 . S
C2386 C2385 1.443 . S
C2386 C2387 1.340 . S
C2386 H2426 0.951 . S
C2387 C2386 1.340 . S
C2387 C2388 1.439 . S
C2387 H2427 0.950 . S
C2388 C2387 1.439 . S
C2388 N2389 1.374 . S
C2388 C2422 1.395 . S
N2389 C2385 1.376 . S
N2389 C2388 1.374 . S
N2389 Co2390 2.008 . S
Co2390 N2389 2.008 . S
Co2390 N2391 1.995 . S
Co2390 N2396 2.008 . S
Co2390 N2401 1.995 . S
Co2390 N2406 2.282 . S
Co2390 N2412 2.282 . S
N2391 Co2390 1.995 . S
N2391 C2392 1.376 . S
N2391 C2395 1.383 . S
C2392 N2391 1.376 . S
C2392 C2393 1.446 . S
C2392 C2422 1.391 . S
C2393 C2392 1.446 . S
C2393 C2394 1.339 . S
C2393 H2428 0.949 . S
C2394 C2393 1.339 . S
C2394 C2395 1.439 . S
C2394 H2429 0.950 . S
C2395 N2391 1.383 . S
C2395 C2394 1.439 . S
C2395 C2424 1.392 . S
N2396 Co2390 2.008 . S
N2396 C2397 1.376 . S
N2396 C2400 1.374 . S
C2397 N2396 1.376 . S
C2397 C2398 1.443 . S
C2397 C2424 1.389 . S
C2398 C2397 1.443 . S
C2398 C2399 1.340 . S
C2398 H2430 0.951 . S
C2399 C2398 1.340 . S
C2399 C2400 1.439 . S
C2399 H2431 0.950 . S
C2400 N2396 1.374 . S
C2400 C2399 1.439 . S
C2400 C2425 1.395 . S
N2401 Co2390 1.995 . S
N2401 C2402 1.376 . S
N2401 C2405 1.383 . S
C2402 N2401 1.376 . S
C2402 C2403 1.446 . S
C2402 C2425 1.391 . S
C2403 C2402 1.446 . S
C2403 C2404 1.339 . S
C2403 H2432 0.949 . S
C2404 C2403 1.339 . S
C2404 C2405 1.439 . S
C2404 H2433 0.950 . S
C2405 N2401 1.383 . S
C2405 C2404 1.439 . S
C2405 C2423 1.392 . S
N2406 Co2390 2.282 . S
N2406 C2409 1.332 . S
N2406 C2411 1.332 . S
C2407 C2408 1.386 . S
C2407 C2410 1.388 . S
C2408 C2407 1.386 . S
C2408 C2409 1.382 . S
C2408 H2434 0.950 . S
C2409 N2406 1.332 . S
C2409 C2408 1.382 . S
C2409 H2420 0.952 . S
C2410 C2407 1.388 . S
C2410 C2411 1.382 . S
C2410 H2435 0.950 . S
C2411 N2406 1.332 . S
C2411 C2410 1.382 . S
C2411 H2421 0.948 . S
N2412 Co2390 2.282 . S
N2412 C2416 1.332 . S
N2412 C2417 1.332 . S
C2413 C2414 1.388 . S
C2413 C2417 1.382 . S
C2413 H2436 0.950 . S
C2414 C2413 1.388 . S
C2414 C2415 1.386 . S
C2415 C2414 1.386 . S
C2415 C2416 1.382 . S
C2415 H2437 0.950 . S
C2416 N2412 1.332 . S
C2416 C2415 1.382 . S
C2416 H2418 0.952 . S
C2417 N2412 1.332 . S
C2417 C2413 1.382 . S
C2417 H2419 0.948 . S
H2418 C2416 0.952 . S
H2419 C2417 0.948 . S
H2420 C2409 0.952 . S
H2421 C2411 0.948 . S
C2422 C2388 1.395 . S
C2422 C2392 1.391 . S
C2423 C2385 1.389 . S
C2423 C2405 1.392 . S
C2424 C2395 1.392 . S
C2424 C2397 1.389 . S
C2425 C2400 1.395 . S
C2425 C2402 1.391 . S
H2426 C2386 0.951 . S
H2427 C2387 0.950 . S
H2428 C2393 0.949 . S
H2429 C2394 0.950 . S
H2430 C2398 0.951 . S
H2431 C2399 0.950 . S
H2432 C2403 0.949 . S
H2433 C2404 0.950 . S
H2434 C2408 0.950 . S
H2435 C2410 0.950 . S
H2436 C2413 0.950 . S
H2437 C2415 0.950 . S
C2438 C2439 1.443 1_556 S
C2438 N2442 1.376 1_545 S
C2438 C2476 1.389 . S
C2439 C2438 1.443 1_554 S
C2439 C2440 1.340 1_545 S
C2439 H2479 0.951 . S
C2440 C2439 1.340 1_565 S
C2440 C2441 1.439 1_554 S
C2440 H2480 0.950 . S
C2441 C2440 1.439 1_556 S
C2441 N2442 1.374 . S
C2441 C2475 1.395 . S
N2442 C2438 1.376 1_565 S
N2442 C2441 1.374 . S
N2442 Co2443 2.008 . S
Co2443 N2442 2.008 . S
Co2443 N2444 1.995 . S
Co2443 N2449 2.008 . S
Co2443 N2454 2.025 . S
Co2443 N2459 2.282 1_565 S
Co2443 N2465 2.282 . S
N2444 Co2443 1.995 . S
N2444 C2445 1.376 . S
N2444 C2448 1.383 . S
C2445 N2444 1.376 . S
C2445 C2446 1.446 . S
C2445 C2475 1.391 . S
C2446 C2445 1.446 . S
C2446 C2447 1.339 . S
C2446 H2481 0.949 . S
C2447 C2446 1.339 . S
C2447 C2448 1.439 . S
C2447 H2482 0.950 . S
C2448 N2444 1.383 . S
C2448 C2447 1.439 . S
C2448 C2477 1.392 . S
N2449 Co2443 2.008 . S
N2449 C2450 1.376 . S
N2449 C2453 1.374 . S
C2450 N2449 1.376 . S
C2450 C2451 1.443 . S
C2450 C2477 1.389 . S
C2451 C2450 1.443 . S
C2451 C2452 1.340 . S
C2451 H2483 0.951 . S
C2452 C2451 1.340 . S
C2452 C2453 1.439 . S
C2452 H2484 0.950 . S
C2453 N2449 1.374 . S
C2453 C2452 1.439 . S
C2453 C2478 1.395 . S
N2454 Co2443 2.025 . S
N2454 C2455 1.372 1_565 S
N2454 C2458 1.355 1_565 S
C2455 N2454 1.372 1_545 S
C2455 C2456 1.446 . S
C2455 C2478 1.391 1_545 S
C2456 C2455 1.446 . S
C2456 C2457 1.339 . S
C2456 H2485 0.949 . S
C2457 C2456 1.339 . S
C2457 C2458 1.439 . S
C2457 H2486 0.950 . S
C2458 N2454 1.355 1_545 S
C2458 C2457 1.439 . S
C2458 C2476 1.392 . S
N2459 Co2443 2.282 1_545 S
N2459 C2462 1.332 . S
N2459 C2464 1.334 . S
C2460 C2461 1.386 . S
C2460 C2463 1.388 . S
C2461 C2460 1.386 . S
C2461 C2462 1.382 . S
C2461 H2487 0.950 . S
C2462 N2459 1.332 . S
C2462 C2461 1.382 . S
C2462 H2473 0.952 . S
C2463 C2460 1.388 . S
C2463 C2464 1.398 . S
C2463 H2488 0.950 . S
C2464 N2459 1.334 . S
C2464 C2463 1.398 . S
C2464 H2474 0.930 1_545 S
N2465 Co2443 2.282 . S
N2465 C2469 1.332 . S
N2465 C2470 1.332 . S
C2466 C2467 1.388 . S
C2466 C2470 1.382 . S
C2466 H2489 0.950 . S
C2467 C2466 1.388 . S
C2467 C2468 1.382 1_556 S
C2468 C2467 1.382 1_554 S
C2468 C2469 1.366 1_554 S
C2468 H2490 0.970 . S
C2469 N2465 1.332 . S
C2469 C2468 1.366 1_556 S
C2469 H2471 0.952 . S
C2470 N2465 1.332 . S
C2470 C2466 1.382 . S
C2470 H2472 0.948 . S
H2471 C2469 0.952 . S
H2472 C2470 0.948 . S
H2473 C2462 0.952 . S
H2474 C2464 0.930 1_565 S
C2475 C2441 1.395 . S
C2475 C2445 1.391 . S
C2476 C2438 1.389 . S
C2476 C2458 1.392 . S
C2477 C2448 1.392 . S
C2477 C2450 1.389 . S
C2478 C2453 1.395 . S
C2478 C2455 1.391 1_565 S
H2479 C2439 0.951 . S
H2480 C2440 0.950 . S
H2481 C2446 0.949 . S
H2482 C2447 0.950 . S
H2483 C2451 0.951 . S
H2484 C2452 0.950 . S
H2485 C2456 0.949 . S
H2486 C2457 0.950 . S
H2487 C2461 0.950 . S
H2488 C2463 0.950 . S
H2489 C2466 0.950 . S
H2490 C2468 0.970 . S
C2491 C2492 1.443 . S
C2491 N2495 1.376 1_565 S
C2491 C2529 1.389 . S
C2492 C2491 1.443 . S
C2492 C2493 1.340 1_565 S
C2492 H2532 0.951 . S
C2493 C2492 1.340 1_545 S
C2493 C2494 1.439 . S
C2493 H2533 0.950 . S
C2494 C2493 1.439 . S
C2494 N2495 1.374 . S
C2494 C2528 1.395 . S
N2495 C2491 1.376 1_545 S
N2495 C2494 1.374 . S
N2495 Co2496 2.008 . S
Co2496 N2495 2.008 . S
Co2496 N2497 1.995 . S
Co2496 N2502 2.008 . S
Co2496 N2507 2.025 . S
Co2496 N2512 2.282 1_545 S
Co2496 N2518 2.282 . S
N2497 Co2496 1.995 . S
N2497 C2498 1.376 . S
N2497 C2501 1.383 . S
C2498 N2497 1.376 . S
C2498 C2499 1.446 . S
C2498 C2528 1.391 . S
C2499 C2498 1.446 . S
C2499 C2500 1.339 . S
C2499 H2534 0.949 . S
C2500 C2499 1.339 . S
C2500 C2501 1.439 . S
C2500 H2535 0.950 . S
C2501 N2497 1.383 . S
C2501 C2500 1.439 . S
C2501 C2530 1.392 . S
N2502 Co2496 2.008 . S
N2502 C2503 1.376 . S
N2502 C2506 1.374 . S
C2503 N2502 1.376 . S
C2503 C2504 1.443 . S
C2503 C2530 1.389 . S
C2504 C2503 1.443 . S
C2504 C2505 1.340 . S
C2504 H2536 0.951 . S
C2505 C2504 1.340 . S
C2505 C2506 1.439 . S
C2505 H2537 0.950 . S
C2506 N2502 1.374 . S
C2506 C2505 1.439 . S
C2506 C2531 1.395 . S
N2507 Co2496 2.025 . S
N2507 C2508 1.372 1_545 S
N2507 C2511 1.355 1_545 S
C2508 N2507 1.372 1_565 S
C2508 C2509 1.446 . S
C2508 C2531 1.391 1_565 S
C2509 C2508 1.446 . S
C2509 C2510 1.339 . S
C2509 H2538 0.949 . S
C2510 C2509 1.339 . S
C2510 C2511 1.439 . S
C2510 H2539 0.950 . S
C2511 N2507 1.355 1_565 S
C2511 C2510 1.439 . S
C2511 C2529 1.392 . S
N2512 Co2496 2.282 1_565 S
N2512 C2515 1.332 . S
N2512 C2517 1.334 . S
C2513 C2514 1.386 . S
C2513 C2516 1.388 . S
C2514 C2513 1.386 . S
C2514 C2515 1.382 . S
C2514 H2540 0.950 . S
C2515 N2512 1.332 . S
C2515 C2514 1.382 . S
C2515 H2526 0.952 . S
C2516 C2513 1.388 . S
C2516 C2517 1.398 . S
C2516 H2541 0.950 . S
C2517 N2512 1.334 . S
C2517 C2516 1.398 . S
C2517 H2527 0.930 1_565 S
N2518 Co2496 2.282 . S
N2518 C2522 1.332 . S
N2518 C2523 1.332 . S
C2519 C2520 1.388 . S
C2519 C2523 1.382 . S
C2519 H2542 0.950 . S
C2520 C2519 1.388 . S
C2520 C2521 1.386 . S
C2521 C2520 1.386 . S
C2521 C2522 1.382 . S
C2521 H2543 0.950 . S
C2522 N2518 1.332 . S
C2522 C2521 1.382 . S
C2522 H2524 0.952 . S
C2523 N2518 1.332 . S
C2523 C2519 1.382 . S
C2523 H2525 0.948 . S
H2524 C2522 0.952 . S
H2525 C2523 0.948 . S
H2526 C2515 0.952 . S
H2527 C2517 0.930 1_545 S
C2528 C2494 1.395 . S
C2528 C2498 1.391 . S
C2529 C2491 1.389 . S
C2529 C2511 1.392 . S
C2530 C2501 1.392 . S
C2530 C2503 1.389 . S
C2531 C2506 1.395 . S
C2531 C2508 1.391 1_545 S
H2532 C2492 0.951 . S
H2533 C2493 0.950 . S
H2534 C2499 0.949 . S
H2535 C2500 0.950 . S
H2536 C2504 0.951 . S
H2537 C2505 0.950 . S
H2538 C2509 0.949 . S
H2539 C2510 0.950 . S
H2540 C2514 0.950 . S
H2541 C2516 0.950 . S
H2542 C2519 0.950 . S
H2543 C2521 0.950 . S
C2544 C2545 1.387 . S
C2544 H2548 0.950 . S
C2544 C2553 1.390 . S
C2545 C2544 1.387 . S
C2545 C2547 1.387 . S
H2546 C2553 0.950 . S
C2547 C2545 1.387 . S
C2547 C2549 1.390 . S
C2547 H2551 0.950 . S
H2548 C2544 0.950 . S
C2549 C2547 1.390 . S
C2549 C2550 1.387 . S
C2549 H2552 0.950 . S
C2550 C2549 1.387 . S
C2550 C2553 1.387 . S
H2551 C2547 0.950 . S
H2552 C2549 0.950 . S
C2553 C2544 1.390 . S
C2553 H2546 0.950 . S
C2553 C2550 1.387 . S
C2554 C2555 1.387 . S
C2554 H2558 0.950 . S
C2554 C2563 1.390 . S
C2555 C2554 1.387 . S
C2555 C2557 1.387 . S
H2556 C2563 0.950 . S
C2557 C2555 1.387 . S
C2557 C2559 1.390 . S
C2557 H2561 0.950 . S
H2558 C2554 0.950 . S
C2559 C2557 1.390 . S
C2559 C2560 1.387 . S
C2559 H2562 0.950 . S
C2560 C2559 1.387 . S
C2560 C2563 1.387 . S
H2561 C2557 0.950 . S
H2562 C2559 0.950 . S
C2563 C2554 1.390 . S
C2563 H2556 0.950 . S
C2563 C2560 1.387 . S
C2564 C2565 1.387 . S
C2564 H2568 0.950 . S
C2564 C2573 1.390 . S
C2565 C2564 1.387 . S
C2565 C2567 1.387 1_554 S
H2566 C2573 0.950 . S
C2567 C2565 1.387 1_556 S
C2567 C2569 1.390 . S
C2567 H2571 0.950 . S
H2568 C2564 0.950 . S
C2569 C2567 1.390 . S
C2569 C2570 1.387 . S
C2569 H2572 0.950 . S
C2570 C2569 1.387 . S
C2570 C2573 1.387 1_556 S
H2571 C2567 0.950 . S
H2572 C2569 0.950 . S
C2573 C2564 1.390 . S
C2573 H2566 0.950 . S
C2573 C2570 1.387 1_554 S
C2574 C2575 1.387 . S
C2574 H2578 0.950 . S
C2574 C2583 1.390 . S
C2575 C2574 1.387 . S
C2575 C2577 1.387 . S
H2576 C2583 0.950 . S
C2577 C2575 1.387 . S
C2577 C2579 1.390 . S
C2577 H2581 0.950 . S
H2578 C2574 0.950 . S
C2579 C2577 1.390 . S
C2579 C2580 1.387 . S
C2579 H2582 0.950 . S
C2580 C2579 1.387 . S
C2580 C2583 1.387 . S
H2581 C2577 0.950 . S
H2582 C2579 0.950 . S
C2583 C2574 1.390 . S
C2583 H2576 0.950 . S
C2583 C2580 1.387 . S
C2584 C2585 1.387 . S
C2584 H2588 0.950 . S
C2584 C2593 1.390 . S
C2585 C2584 1.387 . S
C2585 C2587 1.387 1_554 S
H2586 C2593 0.950 . S
C2587 C2585 1.387 1_556 S
C2587 C2589 1.390 . S
C2587 H2591 0.950 . S
H2588 C2584 0.950 . S
C2589 C2587 1.390 . S
C2589 C2590 1.387 . S
C2589 H2592 0.950 . S
C2590 C2589 1.387 . S
C2590 C2593 1.387 1_556 S
H2591 C2587 0.950 . S
H2592 C2589 0.950 . S
C2593 C2584 1.390 . S
C2593 H2586 0.950 . S
C2593 C2590 1.387 1_554 S
C2594 C2595 1.387 . S
C2594 H2598 0.950 . S
C2594 C2603 1.390 . S
C2595 C2594 1.387 . S
C2595 C2597 1.387 . S
H2596 C2603 0.950 . S
C2597 C2595 1.387 . S
C2597 C2599 1.390 . S
C2597 H2601 0.950 . S
H2598 C2594 0.950 . S
C2599 C2597 1.390 . S
C2599 C2600 1.387 . S
C2599 H2602 0.950 . S
C2600 C2599 1.387 . S
C2600 C2603 1.387 . S
H2601 C2597 0.950 . S
H2602 C2599 0.950 . S
C2603 C2594 1.390 . S
C2603 H2596 0.950 . S
C2603 C2600 1.387 . S
C2604 C2605 1.387 . S
C2604 H2608 0.950 . S
C2604 C2613 1.390 . S
C2605 C2604 1.387 . S
C2605 C2607 1.387 . S
H2606 C2613 0.950 . S
C2607 C2605 1.387 . S
C2607 C2609 1.390 . S
C2607 H2611 0.950 . S
H2608 C2604 0.950 . S
C2609 C2607 1.390 . S
C2609 C2610 1.387 . S
C2609 H2612 0.950 . S
C2610 C2609 1.387 . S
C2610 C2613 1.387 . S
H2611 C2607 0.950 . S
H2612 C2609 0.950 . S
C2613 C2604 1.390 . S
C2613 H2606 0.950 . S
C2613 C2610 1.387 . S
C2614 C2615 1.387 . S
C2614 H2618 0.950 . S
C2614 C2623 1.390 . S
C2615 C2614 1.387 . S
C2615 C2617 1.387 . S
H2616 C2623 0.950 . S
C2617 C2615 1.387 . S
C2617 C2619 1.390 . S
C2617 H2621 0.950 . S
H2618 C2614 0.950 . S
C2619 C2617 1.390 . S
C2619 C2620 1.387 . S
C2619 H2622 0.950 . S
C2620 C2619 1.387 . S
C2620 C2623 1.387 . S
H2621 C2617 0.950 . S
H2622 C2619 0.950 . S
C2623 C2614 1.390 . S
C2623 H2616 0.950 . S
C2623 C2620 1.387 . S
C2624 C2625 1.387 . S
C2624 H2628 0.950 . S
C2624 C2633 1.390 . S
C2625 C2624 1.387 . S
C2625 C2627 1.387 . S
H2626 C2633 0.950 . S
C2627 C2625 1.387 . S
C2627 C2629 1.390 . S
C2627 H2631 0.950 . S
H2628 C2624 0.950 . S
C2629 C2627 1.390 . S
C2629 C2630 1.387 . S
C2629 H2632 0.950 . S
C2630 C2629 1.387 . S
C2630 C2633 1.387 . S
H2631 C2627 0.950 . S
H2632 C2629 0.950 . S
C2633 C2624 1.390 . S
C2633 H2626 0.950 . S
C2633 C2630 1.387 . S
C2634 C2635 1.387 . S
C2634 H2638 0.950 . S
C2634 C2643 1.390 . S
C2635 C2634 1.387 . S
C2635 C2637 1.387 . S
H2636 C2643 0.950 . S
C2637 C2635 1.387 . S
C2637 C2639 1.390 . S
C2637 H2641 0.950 . S
H2638 C2634 0.950 . S
C2639 C2637 1.390 . S
C2639 C2640 1.387 . S
C2639 H2642 0.950 . S
C2640 C2639 1.387 . S
C2640 C2643 1.387 . S
H2641 C2637 0.950 . S
H2642 C2639 0.950 . S
C2643 C2634 1.390 . S
C2643 H2636 0.950 . S
C2643 C2640 1.387 . S
C2644 C2645 1.387 . S
C2644 H2648 0.950 . S
C2644 C2653 1.390 . S
C2645 C2644 1.387 . S
C2645 C2647 1.387 . S
H2646 C2653 0.950 . S
C2647 C2645 1.387 . S
C2647 C2649 1.390 . S
C2647 H2651 0.950 . S
H2648 C2644 0.950 . S
C2649 C2647 1.390 . S
C2649 C2650 1.387 . S
C2649 H2652 0.950 . S
C2650 C2649 1.387 . S
C2650 C2653 1.387 . S
H2651 C2647 0.950 . S
H2652 C2649 0.950 . S
C2653 C2644 1.390 . S
C2653 H2646 0.950 . S
C2653 C2650 1.387 . S
C2654 C2655 1.387 . S
C2654 H2658 0.950 . S
C2654 C2663 1.390 . S
C2655 C2654 1.387 . S
C2655 C2657 1.387 . S
H2656 C2663 0.950 . S
C2657 C2655 1.387 . S
C2657 C2659 1.390 . S
C2657 H2661 0.950 . S
H2658 C2654 0.950 . S
C2659 C2657 1.390 . S
C2659 C2660 1.387 . S
C2659 H2662 0.950 . S
C2660 C2659 1.387 . S
C2660 C2663 1.387 . S
H2661 C2657 0.950 . S
H2662 C2659 0.950 . S
C2663 C2654 1.390 . S
C2663 H2656 0.950 . S
C2663 C2660 1.387 . S
C2664 C2665 1.387 . S
C2664 H2668 0.950 . S
C2664 C2673 1.390 . S
C2665 C2664 1.387 . S
C2665 C2667 1.387 . S
H2666 C2673 0.950 . S
C2667 C2665 1.387 . S
C2667 C2669 1.390 . S
C2667 H2671 0.950 . S
H2668 C2664 0.950 . S
C2669 C2667 1.390 . S
C2669 C2670 1.387 . S
C2669 H2672 0.950 . S
C2670 C2669 1.387 . S
C2670 C2673 1.387 . S
H2671 C2667 0.950 . S
H2672 C2669 0.950 . S
C2673 C2664 1.390 . S
C2673 H2666 0.950 . S
C2673 C2670 1.387 . S
C2674 C2675 1.387 . S
C2674 H2678 0.950 . S
C2674 C2683 1.390 . S
C2675 C2674 1.387 . S
C2675 C2677 1.387 . S
H2676 C2683 0.950 . S
C2677 C2675 1.387 . S
C2677 C2679 1.390 . S
C2677 H2681 0.950 . S
H2678 C2674 0.950 . S
C2679 C2677 1.390 . S
C2679 C2680 1.387 . S
C2679 H2682 0.950 . S
C2680 C2679 1.387 . S
C2680 C2683 1.387 . S
H2681 C2677 0.950 . S
H2682 C2679 0.950 . S
C2683 C2674 1.390 . S
C2683 H2676 0.950 . S
C2683 C2680 1.387 . S
C2684 C2685 1.387 . S
C2684 H2688 0.950 . S
C2684 C2693 1.390 . S
C2685 C2684 1.387 . S
C2685 C2687 1.387 . S
H2686 C2693 0.950 . S
C2687 C2685 1.387 . S
C2687 C2689 1.390 . S
C2687 H2691 0.950 . S
H2688 C2684 0.950 . S
C2689 C2687 1.390 . S
C2689 C2690 1.387 . S
C2689 H2692 0.950 . S
C2690 C2689 1.387 . S
C2690 C2693 1.387 . S
H2691 C2687 0.950 . S
H2692 C2689 0.950 . S
C2693 C2684 1.390 . S
C2693 H2686 0.950 . S
C2693 C2690 1.387 . S
C2694 C2695 1.387 1_556 S
C2694 H2698 0.950 . S
C2694 C2703 1.390 . S
C2695 C2694 1.387 1_554 S
C2695 C2697 1.387 . S
H2696 C2703 0.950 . S
C2697 C2695 1.387 . S
C2697 C2699 1.390 . S
C2697 H2701 0.950 . S
H2698 C2694 0.950 . S
C2699 C2697 1.390 . S
C2699 C2700 1.387 1_554 S
C2699 H2702 0.950 . S
C2700 C2699 1.387 1_556 S
C2700 C2703 1.387 . S
H2701 C2697 0.950 . S
H2702 C2699 0.950 . S
C2703 C2694 1.390 . S
C2703 H2696 0.950 . S
C2703 C2700 1.387 . S
C2704 C2705 1.387 . S
C2704 H2708 0.950 . S
C2704 C2713 1.390 . S
C2705 C2704 1.387 . S
C2705 C2707 1.387 . S
H2706 C2713 0.950 . S
C2707 C2705 1.387 . S
C2707 C2709 1.390 . S
C2707 H2711 0.950 . S
H2708 C2704 0.950 . S
C2709 C2707 1.390 . S
C2709 C2710 1.387 . S
C2709 H2712 0.950 . S
C2710 C2709 1.387 . S
C2710 C2713 1.387 . S
H2711 C2707 0.950 . S
H2712 C2709 0.950 . S
C2713 C2704 1.390 . S
C2713 H2706 0.950 . S
C2713 C2710 1.387 . S
C2714 C2715 1.387 . S
C2714 H2718 0.950 . S
C2714 C2723 1.390 . S
C2715 C2714 1.387 . S
C2715 C2717 1.387 . S
H2716 C2723 0.950 . S
C2717 C2715 1.387 . S
C2717 C2719 1.390 . S
C2717 H2721 0.950 . S
H2718 C2714 0.950 . S
C2719 C2717 1.390 . S
C2719 C2720 1.387 . S
C2719 H2722 0.950 . S
C2720 C2719 1.387 . S
C2720 C2723 1.387 . S
H2721 C2717 0.950 . S
H2722 C2719 0.950 . S
C2723 C2714 1.390 . S
C2723 H2716 0.950 . S
C2723 C2720 1.387 . S
C2724 C2725 1.387 . S
C2724 H2728 0.950 . S
C2724 C2733 1.390 . S
C2725 C2724 1.387 . S
C2725 C2727 1.387 . S
H2726 C2733 0.950 . S
C2727 C2725 1.387 . S
C2727 C2729 1.390 . S
C2727 H2731 0.950 . S
H2728 C2724 0.950 . S
C2729 C2727 1.390 . S
C2729 C2730 1.387 . S
C2729 H2732 0.950 . S
C2730 C2729 1.387 . S
C2730 C2733 1.387 . S
H2731 C2727 0.950 . S
H2732 C2729 0.950 . S
C2733 C2724 1.390 . S
C2733 H2726 0.950 . S
C2733 C2730 1.387 . S
C2734 C2735 1.387 . S
C2734 H2738 0.950 . S
C2734 C2743 1.390 . S
C2735 C2734 1.387 . S
C2735 C2737 1.387 . S
H2736 C2743 0.950 . S
C2737 C2735 1.387 . S
C2737 C2739 1.390 . S
C2737 H2741 0.950 . S
H2738 C2734 0.950 . S
C2739 C2737 1.390 . S
C2739 C2740 1.387 . S
C2739 H2742 0.950 . S
C2740 C2739 1.387 . S
C2740 C2743 1.387 . S
H2741 C2737 0.950 . S
H2742 C2739 0.950 . S
C2743 C2734 1.390 . S
C2743 H2736 0.950 . S
C2743 C2740 1.387 . S
C2744 C2745 1.387 . S
C2744 H2748 0.950 . S
C2744 C2753 1.390 . S
C2745 C2744 1.387 . S
C2745 C2747 1.387 . S
H2746 C2753 0.950 . S
C2747 C2745 1.387 . S
C2747 C2749 1.390 . S
C2747 H2751 0.950 . S
H2748 C2744 0.950 . S
C2749 C2747 1.390 . S
C2749 C2750 1.387 . S
C2749 H2752 0.950 . S
C2750 C2749 1.387 . S
C2750 C2753 1.387 . S
H2751 C2747 0.950 . S
H2752 C2749 0.950 . S
C2753 C2744 1.390 . S
C2753 H2746 0.950 . S
C2753 C2750 1.387 . S
C2754 C2755 1.387 . S
C2754 H2758 0.950 . S
C2754 C2763 1.390 . S
C2755 C2754 1.387 . S
C2755 C2757 1.387 1_554 S
H2756 C2763 0.950 . S
C2757 C2755 1.387 1_556 S
C2757 C2759 1.390 . S
C2757 H2761 0.950 . S
H2758 C2754 0.950 . S
C2759 C2757 1.390 . S
C2759 C2760 1.387 . S
C2759 H2762 0.950 . S
C2760 C2759 1.387 . S
C2760 C2763 1.387 1_556 S
H2761 C2757 0.950 . S
H2762 C2759 0.950 . S
C2763 C2754 1.390 . S
C2763 H2756 0.950 . S
C2763 C2760 1.387 1_554 S
C2764 C2765 1.387 . S
C2764 H2768 0.950 . S
C2764 C2773 1.390 . S
C2765 C2764 1.387 . S
C2765 C2767 1.387 . S
H2766 C2773 0.950 . S
C2767 C2765 1.387 . S
C2767 C2769 1.390 . S
C2767 H2771 0.950 . S
H2768 C2764 0.950 . S
C2769 C2767 1.390 . S
C2769 C2770 1.387 . S
C2769 H2772 0.950 . S
C2770 C2769 1.387 . S
C2770 C2773 1.387 . S
H2771 C2767 0.950 . S
H2772 C2769 0.950 . S
C2773 C2764 1.390 . S
C2773 H2766 0.950 . S
C2773 C2770 1.387 . S
C2774 C2775 1.387 . S
C2774 H2778 0.950 . S
C2774 C2783 1.390 . S
C2775 C2774 1.387 . S
C2775 C2777 1.387 . S
H2776 C2783 0.950 . S
C2777 C2775 1.387 . S
C2777 C2779 1.390 . S
C2777 H2781 0.950 . S
H2778 C2774 0.950 . S
C2779 C2777 1.390 . S
C2779 C2780 1.387 . S
C2779 H2782 0.950 . S
C2780 C2779 1.387 . S
C2780 C2783 1.387 . S
H2781 C2777 0.950 . S
H2782 C2779 0.950 . S
C2783 C2774 1.390 . S
C2783 H2776 0.950 . S
C2783 C2780 1.387 . S
C2784 C2785 1.387 . S
C2784 H2788 0.950 . S
C2784 C2793 1.390 . S
C2785 C2784 1.387 . S
C2785 C2787 1.387 . S
H2786 C2793 0.950 . S
C2787 C2785 1.387 . S
C2787 C2789 1.390 . S
C2787 H2791 0.950 . S
H2788 C2784 0.950 . S
C2789 C2787 1.390 . S
C2789 C2790 1.387 . S
C2789 H2792 0.950 . S
C2790 C2789 1.387 . S
C2790 C2793 1.387 . S
H2791 C2787 0.950 . S
H2792 C2789 0.950 . S
C2793 C2784 1.390 . S
C2793 H2786 0.950 . S
C2793 C2790 1.387 . S
C2794 C2795 1.387 . S
C2794 H2798 0.950 . S
C2794 C2803 1.390 . S
C2795 C2794 1.387 . S
C2795 C2797 1.387 . S
H2796 C2803 0.950 . S
C2797 C2795 1.387 . S
C2797 C2799 1.390 . S
C2797 H2801 0.950 . S
H2798 C2794 0.950 . S
C2799 C2797 1.390 . S
C2799 C2800 1.387 . S
C2799 H2802 0.950 . S
C2800 C2799 1.387 . S
C2800 C2803 1.387 . S
H2801 C2797 0.950 . S
H2802 C2799 0.950 . S
C2803 C2794 1.390 . S
C2803 H2796 0.950 . S
C2803 C2800 1.387 . S
C2804 C2805 1.387 . S
C2804 H2808 0.950 . S
C2804 C2813 1.390 . S
C2805 C2804 1.387 . S
C2805 C2807 1.387 . S
H2806 C2813 0.950 . S
C2807 C2805 1.387 . S
C2807 C2809 1.390 . S
C2807 H2811 0.950 . S
H2808 C2804 0.950 . S
C2809 C2807 1.390 . S
C2809 C2810 1.387 . S
C2809 H2812 0.950 . S
C2810 C2809 1.387 . S
C2810 C2813 1.387 . S
H2811 C2807 0.950 . S
H2812 C2809 0.950 . S
C2813 C2804 1.390 . S
C2813 H2806 0.950 . S
C2813 C2810 1.387 . S
C2814 C2815 1.387 . S
C2814 H2818 0.950 1_545 S
C2814 C2823 1.390 . S
C2815 C2814 1.387 . S
C2815 C2817 1.387 . S
H2816 C2823 0.950 . S
C2817 C2815 1.387 . S
C2817 C2819 1.390 . S
C2817 H2821 0.950 1_554 S
H2818 C2814 0.950 1_565 S
C2819 C2817 1.390 . S
C2819 C2820 1.387 . S
C2819 H2822 0.950 . S
C2820 C2819 1.387 . S
C2820 C2823 1.387 . S
H2821 C2817 0.950 1_556 S
H2822 C2819 0.950 . S
C2823 C2814 1.390 . S
C2823 H2816 0.950 . S
C2823 C2820 1.387 . S
C2824 C2825 1.387 . S
C2824 H2828 0.950 . S
C2824 C2833 1.390 . S
C2825 C2824 1.387 . S
C2825 C2827 1.387 . S
H2826 C2833 0.950 . S
C2827 C2825 1.387 . S
C2827 C2829 1.390 . S
C2827 H2831 0.950 . S
H2828 C2824 0.950 . S
C2829 C2827 1.390 . S
C2829 C2830 1.387 . S
C2829 H2832 0.950 . S
C2830 C2829 1.387 . S
C2830 C2833 1.387 . S
H2831 C2827 0.950 . S
H2832 C2829 0.950 . S
C2833 C2824 1.390 . S
C2833 H2826 0.950 . S
C2833 C2830 1.387 . S
C2834 C2835 1.387 . S
C2834 H2838 0.950 . S
C2834 C2843 1.390 . S
C2835 C2834 1.387 . S
C2835 C2837 1.387 . S
H2836 C2843 0.950 . S
C2837 C2835 1.387 . S
C2837 C2839 1.390 . S
C2837 H2841 0.950 . S
H2838 C2834 0.950 . S
C2839 C2837 1.390 . S
C2839 C2840 1.387 . S
C2839 H2842 0.950 . S
C2840 C2839 1.387 . S
C2840 C2843 1.387 . S
H2841 C2837 0.950 . S
H2842 C2839 0.950 . S
C2843 C2834 1.390 . S
C2843 H2836 0.950 . S
C2843 C2840 1.387 . S
C2844 C2845 1.387 . S
C2844 H2848 0.950 . S
C2844 C2853 1.390 . S
C2845 C2844 1.387 . S
C2845 C2847 1.387 . S
H2846 C2853 0.950 . S
C2847 C2845 1.387 . S
C2847 C2849 1.390 . S
C2847 H2851 0.950 . S
H2848 C2844 0.950 . S
C2849 C2847 1.390 . S
C2849 C2850 1.387 . S
C2849 H2852 0.950 . S
C2850 C2849 1.387 . S
C2850 C2853 1.387 . S
H2851 C2847 0.950 . S
H2852 C2849 0.950 . S
C2853 C2844 1.390 . S
C2853 H2846 0.950 . S
C2853 C2850 1.387 . S
C2854 C2855 1.387 . S
C2854 H2858 0.950 1_545 S
C2854 C2863 1.390 . S
C2855 C2854 1.387 . S
C2855 C2857 1.387 . S
H2856 C2863 0.950 . S
C2857 C2855 1.387 . S
C2857 C2859 1.390 . S
C2857 H2861 0.950 1_556 S
H2858 C2854 0.950 1_565 S
C2859 C2857 1.390 . S
C2859 C2860 1.387 . S
C2859 H2862 0.950 . S
C2860 C2859 1.387 . S
C2860 C2863 1.387 . S
H2861 C2857 0.950 1_554 S
H2862 C2859 0.950 . S
C2863 C2854 1.390 . S
C2863 H2856 0.950 . S
C2863 C2860 1.387 . S
C2864 C2865 1.387 . S
C2864 H2868 0.950 . S
C2864 C2873 1.390 . S
C2865 C2864 1.387 . S
C2865 C2867 1.387 . S
H2866 C2873 0.950 . S
C2867 C2865 1.387 . S
C2867 C2869 1.390 . S
C2867 H2871 0.950 . S
H2868 C2864 0.950 . S
C2869 C2867 1.390 . S
C2869 C2870 1.387 . S
C2869 H2872 0.950 . S
C2870 C2869 1.387 . S
C2870 C2873 1.387 . S
H2871 C2867 0.950 . S
H2872 C2869 0.950 . S
C2873 C2864 1.390 . S
C2873 H2866 0.950 . S
C2873 C2870 1.387 . S
C2874 C2875 1.387 . S
C2874 H2878 0.950 . S
C2874 C2883 1.390 . S
C2875 C2874 1.387 . S
C2875 C2877 1.387 . S
H2876 C2883 0.950 . S
C2877 C2875 1.387 . S
C2877 C2879 1.390 . S
C2877 H2881 0.950 1_545 S
H2878 C2874 0.950 . S
C2879 C2877 1.390 . S
C2879 C2880 1.387 . S
C2879 H2882 0.950 . S
C2880 C2879 1.387 . S
C2880 C2883 1.387 . S
H2881 C2877 0.950 1_565 S
H2882 C2879 0.950 . S
C2883 C2874 1.390 . S
C2883 H2876 0.950 . S
C2883 C2880 1.387 . S
C2884 C2885 1.387 . S
C2884 H2888 0.950 . S
C2884 C2893 1.390 . S
C2885 C2884 1.387 . S
C2885 C2887 1.387 . S
H2886 C2893 0.950 . S
C2887 C2885 1.387 . S
C2887 C2889 1.390 . S
C2887 H2891 0.950 . S
H2888 C2884 0.950 . S
C2889 C2887 1.390 . S
C2889 C2890 1.387 . S
C2889 H2892 0.950 . S
C2890 C2889 1.387 . S
C2890 C2893 1.387 . S
H2891 C2887 0.950 . S
H2892 C2889 0.950 . S
C2893 C2884 1.390 . S
C2893 H2886 0.950 . S
C2893 C2890 1.387 . S
C2894 C2895 1.387 . S
C2894 H2898 0.950 . S
C2894 C2903 1.390 . S
C2895 C2894 1.387 . S
C2895 C2897 1.387 . S
H2896 C2903 0.950 . S
C2897 C2895 1.387 . S
C2897 C2899 1.390 . S
C2897 H2901 0.950 1_565 S
H2898 C2894 0.950 . S
C2899 C2897 1.390 . S
C2899 C2900 1.387 . S
C2899 H2902 0.950 . S
C2900 C2899 1.387 . S
C2900 C2903 1.387 . S
H2901 C2897 0.950 1_545 S
H2902 C2899 0.950 . S
C2903 C2894 1.390 . S
C2903 H2896 0.950 . S
C2903 C2900 1.387 . S
C2904 C2905 1.387 . S
C2904 H2908 0.950 . S
C2904 C2913 1.390 . S
C2905 C2904 1.387 . S
C2905 C2907 1.387 . S
H2906 C2913 0.950 . S
C2907 C2905 1.387 . S
C2907 C2909 1.390 . S
C2907 H2911 0.950 . S
H2908 C2904 0.950 . S
C2909 C2907 1.390 . S
C2909 C2910 1.387 . S
C2909 H2912 0.950 . S
C2910 C2909 1.387 . S
C2910 C2913 1.387 . S
H2911 C2907 0.950 . S
H2912 C2909 0.950 . S
C2913 C2904 1.390 . S
C2913 H2906 0.950 . S
C2913 C2910 1.387 . S
C2914 C2915 1.387 . S
C2914 H2918 0.950 . S
C2914 C2923 1.390 . S
C2915 C2914 1.387 . S
C2915 C2917 1.387 . S
H2916 C2923 0.950 . S
C2917 C2915 1.387 . S
C2917 C2919 1.390 . S
C2917 H2921 0.950 . S
H2918 C2914 0.950 . S
C2919 C2917 1.390 . S
C2919 C2920 1.387 . S
C2919 H2922 0.950 . S
C2920 C2919 1.387 . S
C2920 C2923 1.387 . S
H2921 C2917 0.950 . S
H2922 C2919 0.950 . S
C2923 C2914 1.390 . S
C2923 H2916 0.950 . S
C2923 C2920 1.387 . S
C2924 C2925 1.387 . S
C2924 H2928 0.950 . S
C2924 C2933 1.390 . S
C2925 C2924 1.387 . S
C2925 C2927 1.387 . S
H2926 C2933 0.950 . S
C2927 C2925 1.387 . S
C2927 C2929 1.390 . S
C2927 H2931 0.950 . S
H2928 C2924 0.950 . S
C2929 C2927 1.390 . S
C2929 C2930 1.387 . S
C2929 H2932 0.950 . S
C2930 C2929 1.387 . S
C2930 C2933 1.387 . S
H2931 C2927 0.950 . S
H2932 C2929 0.950 . S
C2933 C2924 1.390 . S
C2933 H2926 0.950 . S
C2933 C2930 1.387 . S
C2934 C2935 1.387 . S
C2934 H2938 0.950 . S
C2934 C2943 1.390 . S
C2935 C2934 1.387 . S
C2935 C2937 1.387 . S
H2936 C2943 0.950 . S
C2937 C2935 1.387 . S
C2937 C2939 1.390 . S
C2937 H2941 0.950 . S
H2938 C2934 0.950 . S
C2939 C2937 1.390 . S
C2939 C2940 1.387 . S
C2939 H2942 0.950 . S
C2940 C2939 1.387 . S
C2940 C2943 1.387 . S
H2941 C2937 0.950 . S
H2942 C2939 0.950 . S
C2943 C2934 1.390 . S
C2943 H2936 0.950 . S
C2943 C2940 1.387 . S
C2944 C2945 1.387 . S
C2944 H2948 0.950 . S
C2944 C2953 1.390 . S
C2945 C2944 1.387 . S
C2945 C2947 1.387 . S
H2946 C2953 0.950 . S
C2947 C2945 1.387 . S
C2947 C2949 1.390 . S
C2947 H2951 0.950 . S
H2948 C2944 0.950 . S
C2949 C2947 1.390 . S
C2949 C2950 1.387 . S
C2949 H2952 0.950 . S
C2950 C2949 1.387 . S
C2950 C2953 1.387 . S
H2951 C2947 0.950 . S
H2952 C2949 0.950 . S
C2953 C2944 1.390 . S
C2953 H2946 0.950 . S
C2953 C2950 1.387 . S
C2954 C2955 1.387 . S
C2954 H2958 0.950 . S
C2954 C2963 1.390 . S
C2955 C2954 1.387 . S
C2955 C2957 1.387 . S
H2956 C2963 0.950 . S
C2957 C2955 1.387 . S
C2957 C2959 1.390 . S
C2957 H2961 0.950 . S
H2958 C2954 0.950 . S
C2959 C2957 1.390 . S
C2959 C2960 1.387 . S
C2959 H2962 0.950 . S
C2960 C2959 1.387 . S
C2960 C2963 1.387 . S
H2961 C2957 0.950 . S
H2962 C2959 0.950 . S
C2963 C2954 1.390 . S
C2963 H2956 0.950 . S
C2963 C2960 1.387 . S
C2964 C2965 1.387 . S
C2964 H2968 0.950 . S
C2964 C2973 1.390 1_655 S
C2965 C2964 1.387 . S
C2965 C2967 1.393 1_556 S
H2966 C2973 0.950 . S
C2967 C2965 1.393 1_554 S
C2967 C2969 1.381 1_655 S
C2967 H2971 0.954 . S
H2968 C2964 0.950 . S
C2969 C2967 1.381 1_455 S
C2969 C2970 1.387 1_554 S
C2969 H2972 0.950 . S
C2970 C2969 1.387 1_556 S
C2970 C2973 1.387 . S
H2971 C2967 0.954 . S
H2972 C2969 0.950 . S
C2973 C2964 1.390 1_455 S
C2973 H2966 0.950 . S
C2973 C2970 1.387 . S
C2974 C2975 1.387 . S
C2974 H2978 0.950 . S
C2974 C2983 1.390 . S
C2975 C2974 1.387 . S
C2975 C2977 1.387 . S
H2976 C2983 0.950 . S
C2977 C2975 1.387 . S
C2977 C2979 1.390 . S
C2977 H2981 0.950 . S
H2978 C2974 0.950 . S
C2979 C2977 1.390 . S
C2979 C2980 1.387 . S
C2979 H2982 0.950 . S
C2980 C2979 1.387 . S
C2980 C2983 1.387 . S
H2981 C2977 0.950 . S
H2982 C2979 0.950 . S
C2983 C2974 1.390 . S
C2983 H2976 0.950 . S
C2983 C2980 1.387 . S
C2984 C2985 1.393 1_655 S
C2984 H2988 0.946 1_556 S
C2984 C2993 1.388 1_556 S
C2985 C2984 1.393 1_455 S
C2985 C2987 1.387 . S
H2986 C2993 0.950 . S
C2987 C2985 1.387 . S
C2987 C2989 1.390 1_455 S
C2987 H2991 0.950 . S
H2988 C2984 0.946 1_554 S
C2989 C2987 1.390 1_655 S
C2989 C2990 1.387 . S
C2989 H2992 0.950 . S
C2990 C2989 1.387 . S
C2990 C2993 1.387 1_556 S
H2991 C2987 0.950 . S
H2992 C2989 0.950 . S
C2993 C2984 1.388 1_554 S
C2993 H2986 0.950 . S
C2993 C2990 1.387 1_554 S
C2994 C2995 1.387 . S
C2994 H2998 0.950 . S
C2994 C3003 1.390 . S
C2995 C2994 1.387 . S
C2995 C2997 1.387 . S
H2996 C3003 0.950 . S
C2997 C2995 1.387 . S
C2997 C2999 1.390 . S
C2997 H3001 0.950 . S
H2998 C2994 0.950 . S
C2999 C2997 1.390 . S
C2999 C3000 1.387 . S
C2999 H3002 0.950 . S
C3000 C2999 1.387 . S
C3000 C3003 1.387 . S
H3001 C2997 0.950 . S
H3002 C2999 0.950 . S
C3003 C2994 1.390 . S
C3003 H2996 0.950 . S
C3003 C3000 1.387 . S
C3004 C3005 1.388 . S
C3004 H3008 0.950 . S
C3004 C3013 1.389 1_655 S
C3005 C3004 1.388 . S
C3005 C3007 1.387 . S
H3006 C3013 0.950 . S
C3007 C3005 1.387 . S
C3007 C3009 1.390 1_655 S
C3007 H3011 0.950 . S
H3008 C3004 0.950 . S
C3009 C3007 1.390 1_455 S
C3009 C3010 1.387 . S
C3009 H3012 0.950 . S
C3010 C3009 1.387 . S
C3010 C3013 1.387 . S
H3011 C3007 0.950 . S
H3012 C3009 0.950 . S
C3013 C3004 1.389 1_455 S
C3013 H3006 0.950 . S
C3013 C3010 1.387 . S
C3014 C3015 1.387 . S
C3014 H3018 0.950 . S
C3014 C3023 1.390 . S
C3015 C3014 1.387 . S
C3015 C3017 1.387 1_554 S
H3016 C3023 0.950 . S
C3017 C3015 1.387 1_556 S
C3017 C3019 1.390 . S
C3017 H3021 0.950 . S
H3018 C3014 0.950 . S
C3019 C3017 1.390 . S
C3019 C3020 1.387 1_556 S
C3019 H3022 0.950 . S
C3020 C3019 1.387 1_554 S
C3020 C3023 1.387 . S
H3021 C3017 0.950 . S
H3022 C3019 0.950 . S
C3023 C3014 1.390 . S
C3023 H3016 0.950 . S
C3023 C3020 1.387 . S
C3024 C3025 1.387 . S
C3024 H3028 0.950 . S
C3024 C3033 1.390 . S
C3025 C3024 1.387 . S
C3025 C3027 1.387 . S
H3026 C3033 0.950 . S
C3027 C3025 1.387 . S
C3027 C3029 1.390 . S
C3027 H3031 0.950 . S
H3028 C3024 0.950 . S
C3029 C3027 1.390 . S
C3029 C3030 1.387 . S
C3029 H3032 0.950 . S
C3030 C3029 1.387 . S
C3030 C3033 1.387 . S
H3031 C3027 0.950 . S
H3032 C3029 0.950 . S
C3033 C3024 1.390 . S
C3033 H3026 0.950 . S
C3033 C3030 1.387 . S
C3034 C3035 1.387 . S
C3034 H3038 0.950 . S
C3034 C3043 1.390 . S
C3035 C3034 1.387 . S
C3035 C3037 1.387 . S
H3036 C3043 0.950 . S
C3037 C3035 1.387 . S
C3037 C3039 1.390 . S
C3037 H3041 0.950 . S
H3038 C3034 0.950 . S
C3039 C3037 1.390 . S
C3039 C3040 1.387 . S
C3039 H3042 0.950 . S
C3040 C3039 1.387 . S
C3040 C3043 1.387 . S
H3041 C3037 0.950 . S
H3042 C3039 0.950 . S
C3043 C3034 1.390 . S
C3043 H3036 0.950 . S
C3043 C3040 1.387 . S
C3044 C3045 1.387 . S
C3044 H3048 0.950 . S
C3044 C3053 1.390 . S
C3045 C3044 1.387 . S
C3045 C3047 1.387 . S
H3046 C3053 0.950 . S
C3047 C3045 1.387 . S
C3047 C3049 1.390 . S
C3047 H3051 0.950 . S
H3048 C3044 0.950 . S
C3049 C3047 1.390 . S
C3049 C3050 1.387 . S
C3049 H3052 0.950 . S
C3050 C3049 1.387 . S
C3050 C3053 1.387 . S
H3051 C3047 0.950 . S
H3052 C3049 0.950 . S
C3053 C3044 1.390 . S
C3053 H3046 0.950 . S
C3053 C3050 1.387 . S
C3054 C3055 1.387 . S
C3054 H3058 0.950 . S
C3054 C3063 1.390 . S
C3055 C3054 1.387 . S
C3055 C3057 1.387 . S
H3056 C3063 0.950 . S
C3057 C3055 1.387 . S
C3057 C3059 1.390 . S
C3057 H3061 0.950 . S
H3058 C3054 0.950 . S
C3059 C3057 1.390 . S
C3059 C3060 1.387 . S
C3059 H3062 0.950 . S
C3060 C3059 1.387 . S
C3060 C3063 1.387 . S
H3061 C3057 0.950 . S
H3062 C3059 0.950 . S
C3063 C3054 1.390 . S
C3063 H3056 0.950 . S
C3063 C3060 1.387 . S
C3064 C3065 1.387 . S
C3064 H3068 0.950 . S
C3064 C3073 1.390 . S
C3065 C3064 1.387 . S
C3065 C3067 1.387 . S
H3066 C3073 0.950 . S
C3067 C3065 1.387 . S
C3067 C3069 1.390 . S
C3067 H3071 0.950 . S
H3068 C3064 0.950 . S
C3069 C3067 1.390 . S
C3069 C3070 1.387 . S
C3069 H3072 0.950 . S
C3070 C3069 1.387 . S
C3070 C3073 1.387 . S
H3071 C3067 0.950 . S
H3072 C3069 0.950 . S
C3073 C3064 1.390 . S
C3073 H3066 0.950 . S
C3073 C3070 1.387 . S
C3074 C3075 1.387 . S
C3074 H3078 0.950 . S
C3074 C3083 1.390 . S
C3075 C3074 1.387 . S
C3075 C3077 1.387 . S
H3076 C3083 0.950 . S
C3077 C3075 1.387 . S
C3077 C3079 1.390 . S
C3077 H3081 0.950 . S
H3078 C3074 0.950 . S
C3079 C3077 1.390 . S
C3079 C3080 1.387 . S
C3079 H3082 0.950 1_556 S
C3080 C3079 1.387 . S
C3080 C3083 1.387 . S
H3081 C3077 0.950 . S
H3082 C3079 0.950 1_554 S
C3083 C3074 1.390 . S
C3083 H3076 0.950 . S
C3083 C3080 1.387 . S
C3084 C3085 1.387 . S
C3084 H3088 0.950 . S
C3084 C3093 1.390 . S
C3085 C3084 1.387 . S
C3085 C3087 1.387 . S
H3086 C3093 0.950 . S
C3087 C3085 1.387 . S
C3087 C3089 1.390 . S
C3087 H3091 0.950 . S
H3088 C3084 0.950 . S
C3089 C3087 1.390 . S
C3089 C3090 1.387 . S
C3089 H3092 0.950 . S
C3090 C3089 1.387 . S
C3090 C3093 1.387 . S
H3091 C3087 0.950 . S
H3092 C3089 0.950 . S
C3093 C3084 1.390 . S
C3093 H3086 0.950 . S
C3093 C3090 1.387 . S
C3094 C3095 1.387 . S
C3094 H3098 0.950 . S
C3094 C3103 1.390 . S
C3095 C3094 1.387 . S
C3095 C3097 1.387 . S
H3096 C3103 0.950 . S
C3097 C3095 1.387 . S
C3097 C3099 1.390 . S
C3097 H3101 0.950 . S
H3098 C3094 0.950 . S
C3099 C3097 1.390 . S
C3099 C3100 1.387 . S
C3099 H3102 0.950 . S
C3100 C3099 1.387 . S
C3100 C3103 1.387 . S
H3101 C3097 0.950 . S
H3102 C3099 0.950 . S
C3103 C3094 1.390 . S
C3103 H3096 0.950 . S
C3103 C3100 1.387 . S
C3104 C3105 1.387 . S
C3104 H3108 0.950 . S
C3104 C3113 1.390 . S
C3105 C3104 1.387 . S
C3105 C3107 1.387 . S
H3106 C3113 0.950 . S
C3107 C3105 1.387 . S
C3107 C3109 1.390 . S
C3107 H3111 0.950 . S
H3108 C3104 0.950 . S
C3109 C3107 1.390 . S
C3109 C3110 1.387 . S
C3109 H3112 0.950 . S
C3110 C3109 1.387 . S
C3110 C3113 1.387 . S
H3111 C3107 0.950 . S
H3112 C3109 0.950 . S
C3113 C3104 1.390 . S
C3113 H3106 0.950 . S
C3113 C3110 1.387 . S
C3114 C3115 1.387 . S
C3114 H3118 0.950 . S
C3114 C3123 1.390 . S
C3115 C3114 1.387 . S
C3115 C3117 1.387 . S
H3116 C3123 0.950 . S
C3117 C3115 1.387 . S
C3117 C3119 1.390 . S
C3117 H3121 0.950 . S
H3118 C3114 0.950 . S
C3119 C3117 1.390 . S
C3119 C3120 1.387 . S
C3119 H3122 0.950 . S
C3120 C3119 1.387 . S
C3120 C3123 1.387 . S
H3121 C3117 0.950 . S
H3122 C3119 0.950 . S
C3123 C3114 1.390 . S
C3123 H3116 0.950 . S
C3123 C3120 1.387 . S
C3124 C3125 1.387 . S
C3124 H3128 0.950 . S
C3124 C3133 1.390 . S
C3125 C3124 1.387 . S
C3125 C3127 1.387 . S
H3126 C3133 0.950 . S
C3127 C3125 1.387 . S
C3127 C3129 1.390 . S
C3127 H3131 0.950 . S
H3128 C3124 0.950 . S
C3129 C3127 1.390 . S
C3129 C3130 1.387 . S
C3129 H3132 0.950 . S
C3130 C3129 1.387 . S
C3130 C3133 1.387 . S
H3131 C3127 0.950 . S
H3132 C3129 0.950 . S
C3133 C3124 1.390 . S
C3133 H3126 0.950 . S
C3133 C3130 1.387 . S
C3134 C3135 1.387 . S
C3134 H3138 0.950 . S
C3134 C3143 1.390 . S
C3135 C3134 1.387 . S
C3135 C3137 1.387 . S
H3136 C3143 0.950 . S
C3137 C3135 1.387 . S
C3137 C3139 1.390 . S
C3137 H3141 0.950 . S
H3138 C3134 0.950 . S
C3139 C3137 1.390 . S
C3139 C3140 1.387 . S
C3139 H3142 0.950 . S
C3140 C3139 1.387 . S
C3140 C3143 1.387 . S
H3141 C3137 0.950 . S
H3142 C3139 0.950 . S
C3143 C3134 1.390 . S
C3143 H3136 0.950 . S
C3143 C3140 1.387 . S
C3144 C3145 1.387 . S
C3144 H3148 0.950 . S
C3144 C3153 1.390 . S
C3145 C3144 1.387 . S
C3145 C3147 1.387 . S
H3146 C3153 0.950 . S
C3147 C3145 1.387 . S
C3147 C3149 1.390 . S
C3147 H3151 0.950 . S
H3148 C3144 0.950 . S
C3149 C3147 1.390 . S
C3149 C3150 1.387 . S
C3149 H3152 0.950 . S
C3150 C3149 1.387 . S
C3150 C3153 1.387 . S
H3151 C3147 0.950 . S
H3152 C3149 0.950 . S
C3153 C3144 1.390 . S
C3153 H3146 0.950 . S
C3153 C3150 1.387 . S
C3154 C3155 1.387 . S
C3154 H3158 0.950 . S
C3154 C3163 1.390 . S
C3155 C3154 1.387 . S
C3155 C3157 1.387 . S
H3156 C3163 0.950 . S
C3157 C3155 1.387 . S
C3157 C3159 1.390 . S
C3157 H3161 0.950 . S
H3158 C3154 0.950 . S
C3159 C3157 1.390 . S
C3159 C3160 1.387 . S
C3159 H3162 0.950 . S
C3160 C3159 1.387 . S
C3160 C3163 1.387 . S
H3161 C3157 0.950 . S
H3162 C3159 0.950 . S
C3163 C3154 1.390 . S
C3163 H3156 0.950 . S
C3163 C3160 1.387 . S
C3164 C3165 1.387 . S
C3164 H3168 0.950 . S
C3164 C3173 1.390 . S
C3165 C3164 1.387 . S
C3165 C3167 1.387 . S
H3166 C3173 0.950 . S
C3167 C3165 1.387 . S
C3167 C3169 1.390 . S
C3167 H3171 0.950 . S
H3168 C3164 0.950 . S
C3169 C3167 1.390 . S
C3169 C3170 1.387 . S
C3169 H3172 0.950 . S
C3170 C3169 1.387 . S
C3170 C3173 1.387 . S
H3171 C3167 0.950 . S
H3172 C3169 0.950 . S
C3173 C3164 1.390 . S
C3173 H3166 0.950 . S
C3173 C3170 1.387 . S
C3174 C3175 1.387 . S
C3174 H3178 0.950 . S
C3174 C3183 1.390 . S
C3175 C3174 1.387 . S
C3175 C3177 1.387 . S
H3176 C3183 0.950 . S
C3177 C3175 1.387 . S
C3177 C3179 1.390 . S
C3177 H3181 0.950 . S
H3178 C3174 0.950 . S
C3179 C3177 1.390 . S
C3179 C3180 1.387 . S
C3179 H3182 0.950 . S
C3180 C3179 1.387 . S
C3180 C3183 1.387 . S
H3181 C3177 0.950 . S
H3182 C3179 0.950 . S
C3183 C3174 1.390 . S
C3183 H3176 0.950 . S
C3183 C3180 1.387 . S
C3184 C3185 1.387 . S
C3184 H3188 0.950 . S
C3184 C3193 1.390 . S
C3185 C3184 1.387 . S
C3185 C3187 1.387 . S
H3186 C3193 0.950 . S
C3187 C3185 1.387 . S
C3187 C3189 1.390 . S
C3187 H3191 0.950 . S
H3188 C3184 0.950 . S
C3189 C3187 1.390 . S
C3189 C3190 1.387 . S
C3189 H3192 0.950 . S
C3190 C3189 1.387 . S
C3190 C3193 1.387 . S
H3191 C3187 0.950 . S
H3192 C3189 0.950 . S
C3193 C3184 1.390 . S
C3193 H3186 0.950 . S
C3193 C3190 1.387 . S
C3194 C3195 1.387 . S
C3194 H3198 0.950 . S
C3194 C3203 1.390 . S
C3195 C3194 1.387 . S
C3195 C3197 1.387 . S
H3196 C3203 0.950 . S
C3197 C3195 1.387 . S
C3197 C3199 1.390 . S
C3197 H3201 0.950 . S
H3198 C3194 0.950 . S
C3199 C3197 1.390 . S
C3199 C3200 1.387 . S
C3199 H3202 0.950 . S
C3200 C3199 1.387 . S
C3200 C3203 1.387 . S
H3201 C3197 0.950 . S
H3202 C3199 0.950 . S
C3203 C3194 1.390 . S
C3203 H3196 0.950 . S
C3203 C3200 1.387 . S
C3204 C3205 1.387 . S
C3204 H3208 0.950 . S
C3204 C3213 1.390 . S
C3205 C3204 1.387 . S
C3205 C3207 1.387 . S
H3206 C3213 0.950 . S
C3207 C3205 1.387 . S
C3207 C3209 1.390 . S
C3207 H3211 0.950 . S
H3208 C3204 0.950 . S
C3209 C3207 1.390 . S
C3209 C3210 1.387 . S
C3209 H3212 0.950 . S
C3210 C3209 1.387 . S
C3210 C3213 1.387 . S
H3211 C3207 0.950 . S
H3212 C3209 0.950 . S
C3213 C3204 1.390 . S
C3213 H3206 0.950 . S
C3213 C3210 1.387 . S
C3214 C3215 1.387 . S
C3214 H3218 0.950 . S
C3214 C3223 1.390 . S
C3215 C3214 1.387 . S
C3215 C3217 1.387 . S
H3216 C3223 0.950 . S
C3217 C3215 1.387 . S
C3217 C3219 1.390 . S
C3217 H3221 0.950 . S
H3218 C3214 0.950 . S
C3219 C3217 1.390 . S
C3219 C3220 1.387 . S
C3219 H3222 0.950 . S
C3220 C3219 1.387 . S
C3220 C3223 1.387 . S
H3221 C3217 0.950 . S
H3222 C3219 0.950 . S
C3223 C3214 1.390 . S
C3223 H3216 0.950 . S
C3223 C3220 1.387 . S
C3224 C3225 1.387 . S
C3224 H3228 0.950 . S
C3224 C3233 1.390 . S
C3225 C3224 1.387 . S
C3225 C3227 1.387 . S
H3226 C3233 0.950 . S
C3227 C3225 1.387 . S
C3227 C3229 1.390 . S
C3227 H3231 0.950 . S
H3228 C3224 0.950 . S
C3229 C3227 1.390 . S
C3229 C3230 1.387 . S
C3229 H3232 0.950 . S
C3230 C3229 1.387 . S
C3230 C3233 1.387 . S
H3231 C3227 0.950 . S
H3232 C3229 0.950 . S
C3233 C3224 1.390 . S
C3233 H3226 0.950 . S
C3233 C3230 1.387 . S
C3234 C3235 1.387 . S
C3234 H3238 0.950 . S
C3234 C3243 1.390 . S
C3235 C3234 1.387 . S
C3235 C3237 1.387 . S
H3236 C3243 0.950 . S
C3237 C3235 1.387 . S
C3237 C3239 1.390 . S
C3237 H3241 0.950 . S
H3238 C3234 0.950 . S
C3239 C3237 1.390 . S
C3239 C3240 1.387 . S
C3239 H3242 0.950 . S
C3240 C3239 1.387 . S
C3240 C3243 1.387 . S
H3241 C3237 0.950 . S
H3242 C3239 0.950 . S
C3243 C3234 1.390 . S
C3243 H3236 0.950 . S
C3243 C3240 1.387 . S
C3244 C3245 1.387 1_556 S
C3244 H3248 0.950 . S
C3244 C3253 1.390 . S
C3245 C3244 1.387 1_554 S
C3245 C3247 1.387 . S
H3246 C3253 0.950 . S
C3247 C3245 1.387 . S
C3247 C3249 1.390 . S
C3247 H3251 0.950 . S
H3248 C3244 0.950 . S
C3249 C3247 1.390 . S
C3249 C3250 1.387 . S
C3249 H3252 0.950 . S
C3250 C3249 1.387 . S
C3250 C3253 1.387 1_554 S
H3251 C3247 0.950 . S
H3252 C3249 0.950 . S
C3253 C3244 1.390 . S
C3253 H3246 0.950 . S
C3253 C3250 1.387 1_556 S
C3254 C3255 1.387 1_655 S
C3254 H3258 0.950 1_655 S
C3254 C3263 1.390 . S
C3255 C3254 1.387 1_455 S
C3255 C3257 1.387 . S
H3256 C3263 0.950 . S
C3257 C3255 1.387 . S
C3257 C3259 1.390 1_455 S
C3257 H3261 0.950 . S
H3258 C3254 0.950 1_455 S
C3259 C3257 1.390 1_655 S
C3259 C3260 1.387 . S
C3259 H3262 0.950 . S
C3260 C3259 1.387 . S
C3260 C3263 1.387 . S
H3261 C3257 0.950 . S
H3262 C3259 0.950 . S
C3263 C3254 1.390 . S
C3263 H3256 0.950 . S
C3263 C3260 1.387 . S
C3264 C3265 1.387 . S
C3264 H3268 0.950 . S
C3264 C3273 1.390 . S
C3265 C3264 1.387 . S
C3265 C3267 1.387 . S
H3266 C3273 0.950 . S
C3267 C3265 1.387 . S
C3267 C3269 1.390 . S
C3267 H3271 0.950 . S
H3268 C3264 0.950 . S
C3269 C3267 1.390 . S
C3269 C3270 1.387 . S
C3269 H3272 0.950 . S
C3270 C3269 1.387 . S
C3270 C3273 1.387 . S
H3271 C3267 0.950 . S
H3272 C3269 0.950 . S
C3273 C3264 1.390 . S
C3273 H3266 0.950 . S
C3273 C3270 1.387 . S
C3274 C3275 1.387 . S
C3274 H3278 0.950 . S
C3274 C3283 1.390 . S
C3275 C3274 1.387 . S
C3275 C3277 1.387 . S
H3276 C3283 0.950 . S
C3277 C3275 1.387 . S
C3277 C3279 1.390 . S
C3277 H3281 0.950 . S
H3278 C3274 0.950 . S
C3279 C3277 1.390 . S
C3279 C3280 1.387 . S
C3279 H3282 0.950 . S
C3280 C3279 1.387 . S
C3280 C3283 1.387 . S
H3281 C3277 0.950 . S
H3282 C3279 0.950 . S
C3283 C3274 1.390 . S
C3283 H3276 0.950 . S
C3283 C3280 1.387 . S
C3284 C3285 1.387 . S
C3284 H3288 0.950 . S
C3284 C3293 1.390 . S
C3285 C3284 1.387 . S
C3285 C3287 1.387 . S
H3286 C3293 0.950 . S
C3287 C3285 1.387 . S
C3287 C3289 1.390 . S
C3287 H3291 0.950 . S
H3288 C3284 0.950 . S
C3289 C3287 1.390 . S
C3289 C3290 1.387 . S
C3289 H3292 0.950 . S
C3290 C3289 1.387 . S
C3290 C3293 1.387 . S
H3291 C3287 0.950 . S
H3292 C3289 0.950 . S
C3293 C3284 1.390 . S
C3293 H3286 0.950 . S
C3293 C3290 1.387 . S
C3294 C3295 1.387 . S
C3294 H3298 0.950 . S
C3294 C3303 1.390 . S
C3295 C3294 1.387 . S
C3295 C3297 1.387 . S
H3296 C3303 0.950 . S
C3297 C3295 1.387 . S
C3297 C3299 1.390 . S
C3297 H3301 0.950 . S
H3298 C3294 0.950 . S
C3299 C3297 1.390 . S
C3299 C3300 1.387 . S
C3299 H3302 0.950 . S
C3300 C3299 1.387 . S
C3300 C3303 1.387 . S
H3301 C3297 0.950 . S
H3302 C3299 0.950 . S
C3303 C3294 1.390 . S
C3303 H3296 0.950 . S
C3303 C3300 1.387 . S
C3304 C3305 1.387 . S
C3304 H3308 0.950 . S
C3304 C3313 1.390 . S
C3305 C3304 1.387 . S
C3305 C3307 1.387 . S
H3306 C3313 0.950 . S
C3307 C3305 1.387 . S
C3307 C3309 1.390 . S
C3307 H3311 0.950 . S
H3308 C3304 0.950 . S
C3309 C3307 1.390 . S
C3309 C3310 1.387 . S
C3309 H3312 0.950 . S
C3310 C3309 1.387 . S
C3310 C3313 1.387 . S
H3311 C3307 0.950 . S
H3312 C3309 0.950 . S
C3313 C3304 1.390 . S
C3313 H3306 0.950 . S
C3313 C3310 1.387 . S
C3314 C3315 1.387 . S
C3314 H3318 0.950 . S
C3314 C3323 1.390 . S
C3315 C3314 1.387 . S
C3315 C3317 1.387 . S
H3316 C3323 0.950 . S
C3317 C3315 1.387 . S
C3317 C3319 1.390 . S
C3317 H3321 0.950 . S
H3318 C3314 0.950 . S
C3319 C3317 1.390 . S
C3319 C3320 1.387 . S
C3319 H3322 0.950 . S
C3320 C3319 1.387 . S
C3320 C3323 1.387 . S
H3321 C3317 0.950 . S
H3322 C3319 0.950 . S
C3323 C3314 1.390 . S
C3323 H3316 0.950 . S
C3323 C3320 1.387 . S
C3324 C3325 1.387 . S
C3324 H3328 0.950 . S
C3324 C3333 1.390 . S
C3325 C3324 1.387 . S
C3325 C3327 1.387 . S
H3326 C3333 0.950 . S
C3327 C3325 1.387 . S
C3327 C3329 1.390 . S
C3327 H3331 0.950 . S
H3328 C3324 0.950 . S
C3329 C3327 1.390 . S
C3329 C3330 1.387 . S
C3329 H3332 0.950 . S
C3330 C3329 1.387 . S
C3330 C3333 1.387 . S
H3331 C3327 0.950 . S
H3332 C3329 0.950 . S
C3333 C3324 1.390 . S
C3333 H3326 0.950 . S
C3333 C3330 1.387 . S
C3334 C3335 1.387 . S
C3334 H3338 0.950 . S
C3334 C3343 1.390 . S
C3335 C3334 1.387 . S
C3335 C3337 1.387 . S
H3336 C3343 0.950 . S
C3337 C3335 1.387 . S
C3337 C3339 1.390 . S
C3337 H3341 0.950 . S
H3338 C3334 0.950 . S
C3339 C3337 1.390 . S
C3339 C3340 1.387 . S
C3339 H3342 0.950 . S
C3340 C3339 1.387 . S
C3340 C3343 1.387 . S
H3341 C3337 0.950 . S
H3342 C3339 0.950 . S
C3343 C3334 1.390 . S
C3343 H3336 0.950 . S
C3343 C3340 1.387 . S
C3344 C3345 1.387 . S
C3344 H3348 0.950 . S
C3344 C3353 1.390 . S
C3345 C3344 1.387 . S
C3345 C3347 1.387 . S
H3346 C3353 0.950 . S
C3347 C3345 1.387 . S
C3347 C3349 1.390 . S
C3347 H3351 0.950 . S
H3348 C3344 0.950 . S
C3349 C3347 1.390 . S
C3349 C3350 1.387 . S
C3349 H3352 0.950 . S
C3350 C3349 1.387 . S
C3350 C3353 1.387 . S
H3351 C3347 0.950 . S
H3352 C3349 0.950 . S
C3353 C3344 1.390 . S
C3353 H3346 0.950 . S
C3353 C3350 1.387 . S
C3354 C3355 1.387 . S
C3354 H3358 0.950 . S
C3354 C3363 1.390 . S
C3355 C3354 1.387 . S
C3355 C3357 1.387 . S
H3356 C3363 0.950 . S
C3357 C3355 1.387 . S
C3357 C3359 1.390 . S
C3357 H3361 0.950 . S
H3358 C3354 0.950 . S
C3359 C3357 1.390 . S
C3359 C3360 1.387 . S
C3359 H3362 0.950 . S
C3360 C3359 1.387 . S
C3360 C3363 1.387 . S
H3361 C3357 0.950 . S
H3362 C3359 0.950 . S
C3363 C3354 1.390 . S
C3363 H3356 0.950 . S
C3363 C3360 1.387 . S
C3364 C3365 1.387 . S
C3364 H3368 0.950 . S
C3364 C3373 1.390 . S
C3365 C3364 1.387 . S
C3365 C3367 1.387 . S
H3366 C3373 0.950 . S
C3367 C3365 1.387 . S
C3367 C3369 1.390 . S
C3367 H3371 0.950 . S
H3368 C3364 0.950 . S
C3369 C3367 1.390 . S
C3369 C3370 1.387 . S
C3369 H3372 0.950 . S
C3370 C3369 1.387 . S
C3370 C3373 1.387 . S
H3371 C3367 0.950 . S
H3372 C3369 0.950 . S
C3373 C3364 1.390 . S
C3373 H3366 0.950 . S
C3373 C3370 1.387 . S
C3374 C3375 1.387 . S
C3374 H3378 0.950 . S
C3374 C3383 1.390 . S
C3375 C3374 1.387 . S
C3375 C3377 1.387 . S
H3376 C3383 0.950 . S
C3377 C3375 1.387 . S
C3377 C3379 1.390 . S
C3377 H3381 0.950 . S
H3378 C3374 0.950 . S
C3379 C3377 1.390 . S
C3379 C3380 1.387 . S
C3379 H3382 0.950 . S
C3380 C3379 1.387 . S
C3380 C3383 1.387 . S
H3381 C3377 0.950 . S
H3382 C3379 0.950 . S
C3383 C3374 1.390 . S
C3383 H3376 0.950 . S
C3383 C3380 1.387 . S
C3384 C3385 1.387 . S
C3384 H3388 0.950 . S
C3384 C3393 1.390 . S
C3385 C3384 1.387 . S
C3385 C3387 1.387 . S
H3386 C3393 0.950 . S
C3387 C3385 1.387 . S
C3387 C3389 1.390 . S
C3387 H3391 0.950 . S
H3388 C3384 0.950 . S
C3389 C3387 1.390 . S
C3389 C3390 1.387 . S
C3389 H3392 0.950 . S
C3390 C3389 1.387 . S
C3390 C3393 1.387 . S
H3391 C3387 0.950 . S
H3392 C3389 0.950 . S
C3393 C3384 1.390 . S
C3393 H3386 0.950 . S
C3393 C3390 1.387 . S
C3394 C3395 1.387 . S
C3394 H3398 0.950 . S
C3394 C3403 1.390 . S
C3395 C3394 1.387 . S
C3395 C3397 1.387 . S
H3396 C3403 0.950 . S
C3397 C3395 1.387 . S
C3397 C3399 1.390 . S
C3397 H3401 0.950 . S
H3398 C3394 0.950 . S
C3399 C3397 1.390 . S
C3399 C3400 1.387 . S
C3399 H3402 0.950 . S
C3400 C3399 1.387 . S
C3400 C3403 1.387 . S
H3401 C3397 0.950 . S
H3402 C3399 0.950 . S
C3403 C3394 1.390 . S
C3403 H3396 0.950 . S
C3403 C3400 1.387 . S
C3404 C3405 1.387 . S
C3404 H3408 0.950 . S
C3404 C3413 1.390 . S
C3405 C3404 1.387 . S
C3405 C3407 1.387 . S
H3406 C3413 0.950 . S
C3407 C3405 1.387 . S
C3407 C3409 1.390 . S
C3407 H3411 0.950 . S
H3408 C3404 0.950 . S
C3409 C3407 1.390 . S
C3409 C3410 1.387 . S
C3409 H3412 0.950 . S
C3410 C3409 1.387 . S
C3410 C3413 1.387 . S
H3411 C3407 0.950 . S
H3412 C3409 0.950 . S
C3413 C3404 1.390 . S
C3413 H3406 0.950 . S
C3413 C3410 1.387 . S
C3414 C3415 1.387 . S
C3414 H3418 0.950 . S
C3414 C3423 1.390 . S
C3415 C3414 1.387 . S
C3415 C3417 1.387 . S
H3416 C3423 0.950 . S
C3417 C3415 1.387 . S
C3417 C3419 1.390 . S
C3417 H3421 0.950 . S
H3418 C3414 0.950 . S
C3419 C3417 1.390 . S
C3419 C3420 1.387 . S
C3419 H3422 0.950 . S
C3420 C3419 1.387 . S
C3420 C3423 1.387 . S
H3421 C3417 0.950 . S
H3422 C3419 0.950 . S
C3423 C3414 1.390 . S
C3423 H3416 0.950 . S
C3423 C3420 1.387 . S
C3424 C3425 1.387 . S
C3424 H3428 0.950 . S
C3424 C3433 1.390 . S
C3425 C3424 1.387 . S
C3425 C3427 1.387 . S
H3426 C3433 0.950 . S
C3427 C3425 1.387 . S
C3427 C3429 1.390 . S
C3427 H3431 0.950 . S
H3428 C3424 0.950 . S
C3429 C3427 1.390 . S
C3429 C3430 1.387 . S
C3429 H3432 0.950 . S
C3430 C3429 1.387 . S
C3430 C3433 1.387 . S
H3431 C3427 0.950 . S
H3432 C3429 0.950 . S
C3433 C3424 1.390 . S
C3433 H3426 0.950 . S
C3433 C3430 1.387 . S
C3434 C3435 1.387 . S
C3434 H3438 0.950 . S
C3434 C3443 1.390 . S
C3435 C3434 1.387 . S
C3435 C3437 1.387 . S
H3436 C3443 0.950 . S
C3437 C3435 1.387 . S
C3437 C3439 1.390 . S
C3437 H3441 0.950 . S
H3438 C3434 0.950 . S
C3439 C3437 1.390 . S
C3439 C3440 1.387 . S
C3439 H3442 0.950 . S
C3440 C3439 1.387 . S
C3440 C3443 1.387 . S
H3441 C3437 0.950 . S
H3442 C3439 0.950 . S
C3443 C3434 1.390 . S
C3443 H3436 0.950 . S
C3443 C3440 1.387 . S
C3444 C3445 1.387 . S
C3444 H3448 0.950 . S
C3444 C3453 1.390 . S
C3445 C3444 1.387 . S
C3445 C3447 1.387 . S
H3446 C3453 0.950 . S
C3447 C3445 1.387 . S
C3447 C3449 1.390 . S
C3447 H3451 0.950 . S
H3448 C3444 0.950 . S
C3449 C3447 1.390 . S
C3449 C3450 1.387 . S
C3449 H3452 0.950 . S
C3450 C3449 1.387 . S
C3450 C3453 1.387 . S
H3451 C3447 0.950 . S
H3452 C3449 0.950 . S
C3453 C3444 1.390 . S
C3453 H3446 0.950 . S
C3453 C3450 1.387 . S
C3454 C3455 1.387 . S
C3454 H3458 0.950 . S
C3454 C3463 1.390 . S
C3455 C3454 1.387 . S
C3455 C3457 1.387 . S
H3456 C3463 0.950 . S
C3457 C3455 1.387 . S
C3457 C3459 1.390 . S
C3457 H3461 0.950 . S
H3458 C3454 0.950 . S
C3459 C3457 1.390 . S
C3459 C3460 1.387 . S
C3459 H3462 0.950 . S
C3460 C3459 1.387 . S
C3460 C3463 1.387 . S
H3461 C3457 0.950 . S
H3462 C3459 0.950 . S
C3463 C3454 1.390 . S
C3463 H3456 0.950 . S
C3463 C3460 1.387 . S
C3464 C3465 1.387 . S
C3464 H3468 0.950 . S
C3464 C3473 1.390 . S
C3465 C3464 1.387 . S
C3465 C3467 1.387 . S
H3466 C3473 0.950 . S
C3467 C3465 1.387 . S
C3467 C3469 1.390 . S
C3467 H3471 0.950 . S
H3468 C3464 0.950 . S
C3469 C3467 1.390 . S
C3469 C3470 1.387 . S
C3469 H3472 0.950 . S
C3470 C3469 1.387 . S
C3470 C3473 1.387 . S
H3471 C3467 0.950 . S
H3472 C3469 0.950 . S
C3473 C3464 1.390 . S
C3473 H3466 0.950 . S
C3473 C3470 1.387 . S
C3474 C3475 1.387 . S
C3474 H3478 0.950 . S
C3474 C3483 1.390 . S
C3475 C3474 1.387 . S
C3475 C3477 1.387 . S
H3476 C3483 0.950 . S
C3477 C3475 1.387 . S
C3477 C3479 1.390 . S
C3477 H3481 0.950 . S
H3478 C3474 0.950 . S
C3479 C3477 1.390 . S
C3479 C3480 1.387 . S
C3479 H3482 0.950 . S
C3480 C3479 1.387 . S
C3480 C3483 1.387 . S
H3481 C3477 0.950 . S
H3482 C3479 0.950 . S
C3483 C3474 1.390 . S
C3483 H3476 0.950 . S
C3483 C3480 1.387 . S
C3484 C3485 1.387 . S
C3484 H3488 0.950 . S
C3484 C3493 1.390 . S
C3485 C3484 1.387 . S
C3485 C3487 1.387 . S
H3486 C3493 0.950 . S
C3487 C3485 1.387 . S
C3487 C3489 1.390 . S
C3487 H3491 0.950 . S
H3488 C3484 0.950 . S
C3489 C3487 1.390 . S
C3489 C3490 1.387 . S
C3489 H3492 0.950 . S
C3490 C3489 1.387 . S
C3490 C3493 1.387 . S
H3491 C3487 0.950 . S
H3492 C3489 0.950 . S
C3493 C3484 1.390 . S
C3493 H3486 0.950 . S
C3493 C3490 1.387 . S
C3494 C3495 1.387 . S
C3494 H3498 0.950 . S
C3494 C3503 1.390 . S
C3495 C3494 1.387 . S
C3495 C3497 1.387 . S
H3496 C3503 0.950 . S
C3497 C3495 1.387 . S
C3497 C3499 1.390 . S
C3497 H3501 0.950 . S
H3498 C3494 0.950 . S
C3499 C3497 1.390 . S
C3499 C3500 1.387 . S
C3499 H3502 0.950 . S
C3500 C3499 1.387 . S
C3500 C3503 1.387 . S
H3501 C3497 0.950 . S
H3502 C3499 0.950 . S
C3503 C3494 1.390 . S
C3503 H3496 0.950 . S
C3503 C3500 1.387 . S
C2545 C499 2.244 . S
C2550 C22 2.242 . S
C2555 C552 2.513 . S
C2560 C91 2.532 . S
C2565 C605 2.244 . S
C2570 C128 2.243 . S
C2575 C446 2.512 . S
C2580 C197 2.532 . S
C2585 C234 2.243 . S
C2590 C817 2.243 . S
C2595 C303 2.532 . S
C2600 C658 2.512 . S
C2605 C340 2.243 . S
C2610 C711 2.244 . S
C2615 C764 2.513 . S
C2620 C409 2.532 . S
C2625 C886 2.532 . S
C2630 C976 2.512 . S
C2635 C939 2.532 . S
C2640 C2460 2.513 . S
C2645 C1045 2.532 . S
C2650 C2513 2.513 . S
C2655 C1082 2.512 . S
C2660 C2423 2.532 . S
C2665 C1151 2.532 . S
C2670 C2354 2.512 . S
C2675 C2211 2.532 . S
C2680 C1188 2.512 . S
C2685 C1241 2.512 . S
C2690 C2317 2.532 . S
C2695 C1771 2.243 . S
C2700 C1294 2.243 . S
C2705 C1824 2.513 . S
C2710 C1363 2.532 . S
C2715 C1877 2.243 . S
C2720 C1400 2.243 . S
C2725 C1718 2.513 . S
C2730 C1469 2.532 . S
C2735 C2089 2.243 . S
C2740 C1506 2.243 . S
C2745 C1930 2.512 . S
C2750 C1575 2.532 . S
C2755 C1612 2.243 . S
C2760 C1983 2.243 . S
C2765 C1681 2.532 . S
C2770 C2036 2.512 . S
C2775 C2158 2.532 . S
C2780 C2248 2.512 . S
C2785 C870 1.667 . S
C2790 C29 1.732 . S
C2795 C2529 1.367 . S
C2800 C92 1.386 . S
C2805 C135 1.729 . S
C2810 C1135 1.664 . S
C2815 C2476 1.368 1_554 S
C2820 C198 1.387 . S
C2825 C241 1.730 . S
C2830 C2195 1.666 . S
C2835 C2264 1.366 . S
C2840 C304 1.386 . S
C2845 C347 1.728 . S
C2850 C2301 1.663 . S
C2855 C1098 1.367 1_556 S
C2860 C410 1.386 . S
C2865 C453 1.432 . S
C2870 C38 1.414 . S
C2875 C75 1.667 1_545 S
C2880 C506 1.730 . S
C2885 C559 1.433 . S
C2890 C144 1.416 . S
C2895 C181 1.667 1_565 S
C2900 C612 1.731 . S
C2905 C665 1.434 . S
C2910 C250 1.417 . S
C2915 C287 1.668 1_545 S
C2920 C718 1.732 . S
C2925 C771 1.433 . S
C2930 C356 1.416 . S
C2935 C824 1.728 . S
C2940 C393 1.663 1_565 S
C2945 C887 1.387 . S
C2950 C462 1.368 . S
C2955 C940 1.386 . S
C2960 C1946 1.366 . S
C2965 C1999 1.416 . S
C2970 C983 1.433 1_556 S
C2975 C2052 1.368 . S
C2980 C1046 1.387 . S
C2985 C833 1.414 . S
C2990 C1089 1.432 1_556 S
C2995 C1152 1.387 . S
C3000 C568 1.368 . S
C3005 C1893 1.416 . S
C3010 C1195 1.433 . S
C3015 C1248 1.433 1_554 S
C3020 C1787 1.416 . S
C3025 C1301 1.731 . S
C3030 C2142 1.667 . S
C3035 C1364 1.387 . S
C3040 C1257 1.368 1_554 S
C3045 C1407 1.729 . S
C3050 C2407 1.664 . S
C3055 C1470 1.386 . S
C3060 C1204 1.367 . S
C3065 C1513 1.732 . S
C3070 C923 1.668 . S
C3075 C1576 1.386 . S
C3080 C992 1.367 1_556 S
C3085 C1029 1.663 . S
C3090 C1619 1.728 . S
C3095 C2370 1.366 . S
C3100 C1682 1.386 . S
C3105 C1310 1.415 . S
C3110 C1725 1.432 . S
C3115 C1347 1.667 . S
C3120 C1778 1.731 . S
C3125 C1831 1.433 . S
C3130 C1416 1.416 . S
C3135 C1453 1.667 . S
C3140 C1884 1.731 . S
C3145 C1937 1.432 . S
C3150 C1522 1.415 . S
C3155 C1990 1.729 . S
C3160 C1559 1.664 . S
C3165 C2043 1.434 . S
C3170 C1628 1.417 . S
C3175 C1665 1.667 . S
C3180 C2096 1.731 . S
C3185 C2159 1.387 . S
C3190 C1734 1.368 . S
C3195 C2212 1.387 . S
C3200 C674 1.367 . S
C3205 C727 1.416 . S
C3210 C2255 1.433 . S
C3215 C2318 1.386 . S
C3220 C780 1.366 . S
C3225 C2361 1.432 . S
C3230 C2105 1.415 . S
C3235 C1840 1.368 . S
C3240 C2424 1.387 . S
C3245 C621 1.415 . S
C3250 C2467 1.432 1_554 S
C3255 C515 1.416 . S
C3260 C2520 1.432 . S
C3265 C1205 1.706 . S
C3270 C39 1.738 . S
C3275 C82 2.110 . S
C3280 C2149 2.110 . S
C3285 C145 1.736 . S
C3290 C1258 1.703 . S
C3295 C2414 2.107 . S
C3300 C188 2.107 . S
C3305 C251 1.739 . S
C3310 C993 1.707 . S
C3315 C1036 2.110 . S
C3320 C294 2.110 . S
C3325 C2371 1.707 . S
C3330 C357 1.739 . S
C3335 C400 2.106 . S
C3340 C930 2.107 . S
C3345 C728 1.737 . S
C3350 C463 1.705 . S
C3355 C516 1.739 . S
C3360 C781 1.707 . S
C3365 C834 1.736 . S
C3370 C569 1.704 . S
C3375 C622 1.739 . S
C3380 C675 1.707 . S
C3385 C1354 2.106 . S
C3390 C877 2.107 . S
C3395 C1099 1.706 . S
C3400 C1629 1.738 . S
C3405 C1142 2.110 . S
C3410 C1460 2.110 . S
C3415 C2477 1.704 . S
C3420 C1311 1.736 . S
C3425 C1417 1.736 . S
C3430 C2530 1.703 . S
C3435 C1523 1.736 . S
C3440 C2265 1.703 . S
C3445 C1566 2.106 . S
C3450 C2308 2.107 . S
C3455 C2202 2.110 . S
C3460 C1672 2.110 . S
C3465 C2000 1.737 . S
C3470 C1735 1.705 . S
C3475 C1788 1.736 . S
C3480 C2053 1.704 . S
C3485 C1841 1.705 . S
C3490 C2106 1.737 . S
C3495 C1947 1.704 . S
C3500 C1894 1.736 . S
