# Generated by pormake.
# Topology uoy, (4)-cn, num edge types: 1
# Building blocks:
#     Node 0, Type 0, BuildingBlock: QUQFOY_clean_sbu_3, # of connection points: 4
#     Node 1, Type 0, BuildingBlock: QUQFOY_clean_sbu_3, # of connection points: 4
#     Node 2, Type 0, BuildingBlock: QUQFOY_clean_sbu_3, # of connection points: 4
#     Node 3, Type 0, BuildingBlock: QUQFOY_clean_sbu_3, # of connection points: 4
#     Node 4, Type 0, BuildingBlock: QUQFOY_clean_sbu_3, # of connection points: 4
#     Node 5, Type 0, BuildingBlock: QUQFOY_clean_sbu_3, # of connection points: 4
#     Node 6, Type 0, BuildingBlock: QUQFOY_clean_sbu_3, # of connection points: 4
#     Node 7, Type 0, BuildingBlock: QUQFOY_clean_sbu_3, # of connection points: 4
#     Node 8, Type 0, BuildingBlock: QUQFOY_clean_sbu_3, # of connection points: 4
#     Node 9, Type 0, BuildingBlock: QUQFOY_clean_sbu_3, # of connection points: 4
#     Node 10, Type 0, BuildingBlock: QUQFOY_clean_sbu_3, # of connection points: 4
#     Node 11, Type 0, BuildingBlock: QUQFOY_clean_sbu_3, # of connection points: 4
#     Node 12, Type 0, BuildingBlock: QUQFOY_clean_sbu_3, # of connection points: 4
#     Node 13, Type 0, BuildingBlock: QUQFOY_clean_sbu_3, # of connection points: 4
#     Node 14, Type 0, BuildingBlock: QUQFOY_clean_sbu_3, # of connection points: 4
#     Node 15, Type 0, BuildingBlock: QUQFOY_clean_sbu_3, # of connection points: 4
#     Edge 16, Type (0, 0), BuildingBlock: UVAHIK_clean_linker_0, # of connection points: 2
#     Edge 17, Type (0, 0), BuildingBlock: UVAHIK_clean_linker_0, # of connection points: 2
#     Edge 18, Type (0, 0), BuildingBlock: UVAHIK_clean_linker_0, # of connection points: 2
#     Edge 19, Type (0, 0), BuildingBlock: UVAHIK_clean_linker_0, # of connection points: 2
#     Edge 20, Type (0, 0), BuildingBlock: UVAHIK_clean_linker_0, # of connection points: 2
#     Edge 21, Type (0, 0), BuildingBlock: UVAHIK_clean_linker_0, # of connection points: 2
#     Edge 22, Type (0, 0), BuildingBlock: UVAHIK_clean_linker_0, # of connection points: 2
#     Edge 23, Type (0, 0), BuildingBlock: UVAHIK_clean_linker_0, # of connection points: 2
#     Edge 24, Type (0, 0), BuildingBlock: UVAHIK_clean_linker_0, # of connection points: 2
#     Edge 25, Type (0, 0), BuildingBlock: UVAHIK_clean_linker_0, # of connection points: 2
#     Edge 26, Type (0, 0), BuildingBlock: UVAHIK_clean_linker_0, # of connection points: 2
#     Edge 27, Type (0, 0), BuildingBlock: UVAHIK_clean_linker_0, # of connection points: 2
#     Edge 28, Type (0, 0), BuildingBlock: UVAHIK_clean_linker_0, # of connection points: 2
#     Edge 29, Type (0, 0), BuildingBlock: UVAHIK_clean_linker_0, # of connection points: 2
#     Edge 30, Type (0, 0), BuildingBlock: UVAHIK_clean_linker_0, # of connection points: 2
#     Edge 31, Type (0, 0), BuildingBlock: UVAHIK_clean_linker_0, # of connection points: 2
#     Edge 32, Type (0, 0), BuildingBlock: UVAHIK_clean_linker_0, # of connection points: 2
#     Edge 33, Type (0, 0), BuildingBlock: UVAHIK_clean_linker_0, # of connection points: 2
#     Edge 34, Type (0, 0), BuildingBlock: UVAHIK_clean_linker_0, # of connection points: 2
#     Edge 35, Type (0, 0), BuildingBlock: UVAHIK_clean_linker_0, # of connection points: 2
#     Edge 36, Type (0, 0), BuildingBlock: UVAHIK_clean_linker_0, # of connection points: 2
#     Edge 37, Type (0, 0), BuildingBlock: UVAHIK_clean_linker_0, # of connection points: 2
#     Edge 38, Type (0, 0), BuildingBlock: UVAHIK_clean_linker_0, # of connection points: 2
#     Edge 39, Type (0, 0), BuildingBlock: UVAHIK_clean_linker_0, # of connection points: 2
#     Edge 40, Type (0, 0), BuildingBlock: UVAHIK_clean_linker_0, # of connection points: 2
#     Edge 41, Type (0, 0), BuildingBlock: UVAHIK_clean_linker_0, # of connection points: 2
#     Edge 42, Type (0, 0), BuildingBlock: UVAHIK_clean_linker_0, # of connection points: 2
#     Edge 43, Type (0, 0), BuildingBlock: UVAHIK_clean_linker_0, # of connection points: 2
#     Edge 44, Type (0, 0), BuildingBlock: UVAHIK_clean_linker_0, # of connection points: 2
#     Edge 45, Type (0, 0), BuildingBlock: UVAHIK_clean_linker_0, # of connection points: 2
#     Edge 46, Type (0, 0), BuildingBlock: UVAHIK_clean_linker_0, # of connection points: 2
#     Edge 47, Type (0, 0), BuildingBlock: UVAHIK_clean_linker_0, # of connection points: 2
# Relax obj value: 0.037
# Max RMSD: 0.063
# Mean RMSD: 0.063
data_MOF--net-uoy--node1-QUQFOY_clean_sbu_3--edge1-UVAHIK_clean_linker_0
_symmetry_space_group_name_H-M    P1
_symmetry_Int_Tables_number       1
_symmetry_cell_setting            triclinic
loop_
_symmetry_equiv_pos_as_xyz
'x, y, z'
_cell_length_a     35.969563
_cell_length_b     35.97339
_cell_length_c     142.1394
_cell_angle_alpha  89.991236
_cell_angle_beta   89.981345
_cell_angle_gamma 89.993453
loop_
_atom_site_label
_atom_site_type_symbol
_atom_site_fract_x
_atom_site_fract_y
_atom_site_fract_z
_atom_type_partial_charge
C0 C 0.27574 0.18785 0.19176 0.0
O1 O 0.28866 0.21151 0.186 0.0
Cd2 Cd 0.29265 0.19538 0.16969 0.0
O3 O 0.26288 0.15696 0.18888 0.0
Cd4 Cd 0.24824 0.12098 0.17479 0.0
C5 C 0.34019 0.11188 0.17073 0.0
O6 O 0.23095 0.17485 0.1659 0.0
O7 O 0.23348 0.12372 0.15795 0.0
O8 O 0.19008 0.11292 0.18278 0.0
C9 C 0.22535 0.15803 0.15821 0.0
O10 O 0.34002 0.14653 0.16887 0.0
C11 C 0.18813 0.07796 0.18184 0.0
O12 O 0.31055 0.09534 0.17327 0.0
O13 O 0.21504 0.06205 0.17765 0.0
C14 C 0.806 0.76362 0.44187 0.0
O15 O 0.78597 0.78225 0.43622 0.0
Cd16 Cd 0.80426 0.78866 0.42007 0.0
O17 O 0.83607 0.7486 0.43909 0.0
Cd18 Cd 0.8753 0.73884 0.42529 0.0
C19 C 0.88966 0.831 0.42241 0.0
O20 O 0.82148 0.72644 0.41564 0.0
O21 O 0.87449 0.72561 0.40849 0.0
O22 O 0.88453 0.6813 0.43371 0.0
C23 C 0.83968 0.7204 0.40817 0.0
O24 O 0.8556 0.83318 0.42003 0.0
C25 C 0.91848 0.67751 0.43153 0.0
O26 O 0.90371 0.80017 0.42499 0.0
O27 O 0.93303 0.70306 0.42657 0.0
C28 C 0.23752 0.30795 0.69462 0.0
O29 O 0.21905 0.28686 0.68919 0.0
Cd30 Cd 0.21218 0.30094 0.67278 0.0
O31 O 0.25338 0.33697 0.69146 0.0
Cd32 Cd 0.2649 0.37175 0.67702 0.0
C33 C 0.17281 0.38826 0.67416 0.0
O34 O 0.27336 0.31706 0.66747 0.0
O35 O 0.27295 0.36943 0.66002 0.0
O36 O 0.32774 0.3769 0.68272 0.0
C37 C 0.27705 0.33443 0.65978 0.0
O38 O 0.16977 0.35379 0.67226 0.0
C39 C 0.32992 0.41198 0.6821 0.0
O40 O 0.20408 0.40216 0.67648 0.0
O41 O 0.30116 0.42909 0.6792 0.0
C42 C 0.67407 0.71697 0.94042 0.0
O43 O 0.6971 0.70165 0.93487 0.0
Cd44 Cd 0.68534 0.70301 0.91827 0.0
O45 O 0.64572 0.73388 0.93722 0.0
Cd46 Cd 0.61382 0.75353 0.92292 0.0
C47 C 0.59762 0.66333 0.91785 0.0
O48 O 0.67109 0.7668 0.91492 0.0
O49 O 0.62149 0.7702 0.90636 0.0
O50 O 0.61081 0.81044 0.93163 0.0
C51 C 0.65628 0.7752 0.90712 0.0
O52 O 0.63244 0.66126 0.9163 0.0
C53 C 0.57677 0.81722 0.93013 0.0
O54 O 0.58291 0.69364 0.92063 0.0
O55 O 0.55875 0.79343 0.92533 0.0
C56 C 0.2609 0.30909 0.03941 0.0
O57 O 0.27297 0.28647 0.04554 0.0
Cd58 Cd 0.27661 0.30577 0.06168 0.0
O59 O 0.24831 0.34072 0.04181 0.0
Cd60 Cd 0.23316 0.37993 0.05528 0.0
C61 C 0.32493 0.38873 0.0597 0.0
O62 O 0.21584 0.32903 0.06534 0.0
O63 O 0.2186 0.3829 0.07203 0.0
O64 O 0.17456 0.38618 0.04739 0.0
C65 C 0.21095 0.34856 0.07265 0.0
O66 O 0.32407 0.35452 0.06201 0.0
C67 C 0.17294 0.42135 0.0477 0.0
O68 O 0.29582 0.40518 0.05673 0.0
O69 O 0.20039 0.43818 0.05141 0.0
C70 C 0.68278 0.76534 0.29069 0.0
O71 O 0.70372 0.77864 0.29703 0.0
Cd72 Cd 0.68402 0.7776 0.31311 0.0
O73 O 0.65179 0.75049 0.29281 0.0
Cd74 Cd 0.61176 0.73294 0.30601 0.0
C75 C 0.59991 0.82369 0.31131 0.0
O76 O 0.66329 0.715 0.31558 0.0
O77 O 0.61043 0.71557 0.32276 0.0
O78 O 0.60731 0.6759 0.29738 0.0
C79 C 0.64488 0.70802 0.32295 0.0
O80 O 0.63387 0.82329 0.31383 0.0
C81 C 0.57223 0.67309 0.29766 0.0
O82 O 0.58458 0.79471 0.30791 0.0
O83 O 0.55452 0.69911 0.30175 0.0
C84 C 0.21747 0.19124 0.54012 0.0
O85 O 0.20111 0.20955 0.54654 0.0
Cd86 Cd 0.19765 0.18437 0.56208 0.0
O87 O 0.23259 0.16005 0.54193 0.0
Cd88 Cd 0.24742 0.11514 0.55433 0.0
C89 C 0.15568 0.09938 0.55754 0.0
O90 O 0.26012 0.16439 0.56499 0.0
O91 O 0.26185 0.10987 0.57129 0.0
O92 O 0.305 0.11533 0.54578 0.0
C93 C 0.26658 0.14465 0.57216 0.0
O94 O 0.15409 0.1325 0.5607 0.0
C95 C 0.31031 0.08053 0.54592 0.0
O96 O 0.18615 0.08588 0.5545 0.0
O97 O 0.28551 0.06081 0.54991 0.0
C98 C 0.81901 0.72394 0.79222 0.0
O99 O 0.79658 0.71418 0.79865 0.0
Cd100 Cd 0.81812 0.7169 0.81462 0.0
O101 O 0.85026 0.73835 0.79426 0.0
Cd102 Cd 0.88963 0.7613 0.80696 0.0
C103 C 0.90334 0.67178 0.81271 0.0
O104 O 0.83888 0.77955 0.81695 0.0
O105 O 0.89327 0.78056 0.8234 0.0
O106 O 0.88928 0.81575 0.79726 0.0
C107 C 0.85873 0.78727 0.82404 0.0
O108 O 0.86931 0.67211 0.81521 0.0
C109 C 0.92388 0.82214 0.7976 0.0
O110 O 0.91857 0.70063 0.80922 0.0
O111 O 0.94376 0.79903 0.80216 0.0
C112 C 0.77686 0.69172 0.69328 0.0
O113 O 0.79216 0.71449 0.68766 0.0
Cd114 Cd 0.79893 0.69857 0.67135 0.0
O115 O 0.76281 0.66156 0.69027 0.0
Cd116 Cd 0.74905 0.62662 0.67598 0.0
C117 C 0.84099 0.61215 0.67298 0.0
O118 O 0.73782 0.6809 0.6664 0.0
O119 O 0.73903 0.62815 0.65908 0.0
O120 O 0.68829 0.62222 0.68291 0.0
C121 C 0.73345 0.66295 0.65881 0.0
O122 O 0.84298 0.64669 0.67105 0.0
C123 C 0.68453 0.58743 0.68188 0.0
O124 O 0.81015 0.59734 0.67531 0.0
O125 O 0.71167 0.56993 0.67822 0.0
C126 C 0.3044 0.26564 0.94094 0.0
O127 O 0.28214 0.27781 0.93473 0.0
Cd128 Cd 0.30087 0.27871 0.91853 0.0
O129 O 0.33555 0.25165 0.93862 0.0
Cd130 Cd 0.37375 0.2338 0.92516 0.0
C131 C 0.38533 0.32461 0.91989 0.0
O132 O 0.32154 0.2165 0.91551 0.0
O133 O 0.3752 0.21633 0.90862 0.0
O134 O 0.37928 0.17594 0.93346 0.0
C135 C 0.34068 0.20929 0.90825 0.0
O136 O 0.35104 0.32461 0.91764 0.0
C137 C 0.41436 0.17345 0.93294 0.0
O138 O 0.40084 0.29537 0.92308 0.0
O139 O 0.43146 0.20019 0.92899 0.0
C140 C 0.73609 0.80997 0.19237 0.0
O141 O 0.71907 0.79026 0.18635 0.0
Cd142 Cd 0.71697 0.81038 0.17023 0.0
O143 O 0.75244 0.83976 0.18993 0.0
Cd144 Cd 0.7686 0.87944 0.17667 0.0
C145 C 0.67774 0.89772 0.17288 0.0
O146 O 0.7794 0.82782 0.16624 0.0
O147 O 0.78145 0.88246 0.15989 0.0
O148 O 0.82796 0.87856 0.18433 0.0
C149 C 0.78556 0.84762 0.15903 0.0
O150 O 0.67537 0.86391 0.17029 0.0
C151 C 0.83366 0.91329 0.18407 0.0
O152 O 0.70833 0.91099 0.17592 0.0
O153 O 0.80817 0.93333 0.18048 0.0
C154 C 0.19153 0.23624 0.44263 0.0
O155 O 0.21252 0.21772 0.43719 0.0
Cd156 Cd 0.19486 0.20942 0.42102 0.0
O157 O 0.16111 0.24981 0.43965 0.0
Cd158 Cd 0.12191 0.25693 0.4258 0.0
C159 C 0.11104 0.16409 0.42332 0.0
O160 O 0.17533 0.27046 0.41606 0.0
O161 O 0.12216 0.26884 0.40899 0.0
O162 O 0.11068 0.31451 0.434 0.0
C163 C 0.15678 0.27516 0.40858 0.0
O164 O 0.14525 0.1629 0.42103 0.0
C165 C 0.07659 0.31701 0.43184 0.0
O166 O 0.09586 0.19459 0.42574 0.0
O167 O 0.06291 0.29077 0.42696 0.0
C168 C 0.75115 0.80081 0.53923 0.0
O169 O 0.76607 0.78188 0.54575 0.0
Cd170 Cd 0.76935 0.80582 0.56141 0.0
O171 O 0.73698 0.83255 0.54093 0.0
Cd172 Cd 0.7232 0.87712 0.55352 0.0
C173 C 0.81547 0.8887 0.55723 0.0
O174 O 0.70784 0.82871 0.56423 0.0
O175 O 0.7097 0.88324 0.57049 0.0
O176 O 0.66422 0.88177 0.54566 0.0
C177 C 0.70285 0.84883 0.57141 0.0
O178 O 0.81555 0.85557 0.5604 0.0
C179 C 0.66292 0.91696 0.54543 0.0
O180 O 0.78578 0.90331 0.55403 0.0
O181 O 0.69051 0.93439 0.54887 0.0
C182 C 0.18748 0.271 0.79304 0.0
O183 O 0.20812 0.28343 0.79956 0.0
Cd184 Cd 0.18756 0.27911 0.81552 0.0
O185 O 0.15647 0.25572 0.79494 0.0
Cd186 Cd 0.11577 0.23629 0.80785 0.0
C187 C 0.10407 0.32617 0.81406 0.0
O188 O 0.16738 0.21574 0.81707 0.0
O189 O 0.1147 0.21523 0.82435 0.0
O190 O 0.11069 0.18143 0.79833 0.0
C191 C 0.14897 0.20686 0.82431 0.0
O192 O 0.13792 0.32514 0.81666 0.0
C193 C 0.07568 0.17821 0.79884 0.0
O194 O 0.08872 0.29783 0.81035 0.0
O195 O 0.05828 0.20314 0.80341 0.0
C196 C 0.71506 0.68321 0.04001 0.0
O197 O 0.69981 0.70429 0.04604 0.0
Cd198 Cd 0.70243 0.68806 0.06236 0.0
O199 O 0.73266 0.65429 0.04258 0.0
Cd200 Cd 0.75355 0.61902 0.05627 0.0
C201 C 0.66404 0.59993 0.06142 0.0
O202 O 0.7665 0.67374 0.06533 0.0
O203 O 0.76984 0.62196 0.07299 0.0
O204 O 0.81092 0.61836 0.04762 0.0
C205 C 0.77465 0.6569 0.07288 0.0
O206 O 0.66156 0.63419 0.06359 0.0
C207 C 0.8176 0.58399 0.04858 0.0
O208 O 0.69434 0.58652 0.05824 0.0
O209 O 0.79356 0.56481 0.05301 0.0
C210 C 0.31238 0.22052 0.29073 0.0
O211 O 0.28968 0.20966 0.29699 0.0
Cd212 Cd 0.3097 0.21176 0.31305 0.0
O213 O 0.34328 0.23513 0.29302 0.0
Cd214 Cd 0.38155 0.257 0.30606 0.0
C215 C 0.39527 0.16721 0.31151 0.0
O216 O 0.3292 0.27482 0.31543 0.0
O217 O 0.38196 0.27558 0.32267 0.0
O218 O 0.38277 0.31144 0.29637 0.0
C219 C 0.34739 0.28257 0.32279 0.0
O220 O 0.36103 0.16707 0.31382 0.0
C221 C 0.41727 0.31787 0.29709 0.0
O222 O 0.4105 0.19643 0.30823 0.0
O223 O 0.43635 0.29489 0.3019 0.0
C224 C 0.19219 0.35369 0.08951 0.0
C225 C 0.19927 0.33154 0.08158 0.0
C226 C 0.1838 0.33719 0.09813 0.0
C227 C 0.15951 0.24727 0.10951 0.0
H228 H 0.21919 0.28627 0.12996 0.0
C229 C 0.20899 0.16058 0.14113 0.0
C230 C 0.21143 0.17816 0.14992 0.0
C231 C 0.19814 0.18074 0.1332 0.0
C232 C 0.20171 0.27543 0.12439 0.0
H233 H 0.20147 0.27498 0.07631 0.0
H234 H 0.18791 0.24619 0.09138 0.0
H235 H 0.21617 0.31999 0.11521 0.0
H236 H 0.20242 0.2299 0.15745 0.0
H237 H 0.1834 0.26493 0.14362 0.0
H238 H 0.14659 0.20169 0.11865 0.0
C239 C 0.18812 0.27626 0.09094 0.0
C240 C 0.1999 0.29482 0.11594 0.0
C241 C 0.19628 0.29274 0.08232 0.0
C242 C 0.20128 0.21573 0.15073 0.0
C243 C 0.19038 0.23581 0.14283 0.0
C244 C 0.16146 0.22774 0.11798 0.0
C245 C 0.18258 0.29828 0.09898 0.0
C246 C 0.17953 0.28051 0.10833 0.0
C247 C 0.18952 0.21874 0.13396 0.0
C248 C 0.18326 0.24127 0.12542 0.0
H249 H 0.19386 0.38371 0.0891 0.0
H250 H 0.17913 0.35487 0.10419 0.0
H251 H 0.14314 0.23587 0.1038 0.0
H252 H 0.21649 0.13159 0.14032 0.0
H253 H 0.19808 0.16699 0.12642 0.0
C254 C 0.78204 0.707 0.39907 0.0
C255 C 0.82101 0.70807 0.39951 0.0
C256 C 0.7642 0.69684 0.39076 0.0
C257 C 0.7803 0.6971 0.36543 0.0
H258 H 0.68603 0.64475 0.36471 0.0
C259 C 0.70096 0.68351 0.33103 0.0
C260 C 0.66377 0.69521 0.33153 0.0
C261 C 0.72058 0.67528 0.33921 0.0
C262 C 0.71238 0.65932 0.36483 0.0
H263 H 0.87198 0.69769 0.39179 0.0
H264 H 0.84077 0.67947 0.37727 0.0
H265 H 0.72091 0.6481 0.37946 0.0
H266 H 0.61712 0.7052 0.34085 0.0
H267 H 0.6518 0.69161 0.35522 0.0
H268 H 0.77146 0.70934 0.35093 0.0
C269 C 0.82402 0.68715 0.3833 0.0
C270 C 0.73229 0.66129 0.37325 0.0
C271 C 0.84188 0.69756 0.3916 0.0
C272 C 0.64585 0.69644 0.34029 0.0
C273 C 0.66561 0.68839 0.3485 0.0
C274 C 0.76053 0.69503 0.35704 0.0
C275 C 0.78501 0.68734 0.38275 0.0
C276 C 0.76607 0.6809 0.37366 0.0
C277 C 0.70347 0.67883 0.34803 0.0
C278 C 0.72605 0.67676 0.35669 0.0
H279 H 0.76525 0.7149 0.40508 0.0
H280 H 0.73412 0.69781 0.39052 0.0
H281 H 0.80587 0.71299 0.36556 0.0
H282 H 0.71529 0.68171 0.32434 0.0
H283 H 0.74955 0.66731 0.33864 0.0
C284 C 0.27595 0.14182 0.58961 0.0
C285 C 0.27642 0.16212 0.58117 0.0
C286 C 0.28223 0.1598 0.59818 0.0
C287 C 0.27193 0.25205 0.6085 0.0
H288 H 0.3289 0.21199 0.62932 0.0
C289 C 0.28978 0.33444 0.64255 0.0
C290 C 0.28373 0.31457 0.6509 0.0
C291 C 0.29419 0.31563 0.63405 0.0
C292 C 0.31277 0.22336 0.62357 0.0
H293 H 0.28613 0.21644 0.57498 0.0
H294 H 0.29744 0.24753 0.58987 0.0
H295 H 0.32717 0.17847 0.61434 0.0
H296 H 0.27875 0.25952 0.65701 0.0
H297 H 0.28567 0.22666 0.64214 0.0
H298 H 0.25678 0.2964 0.61768 0.0
C299 C 0.29143 0.21802 0.58991 0.0
C300 C 0.31179 0.20421 0.61502 0.0
C301 C 0.28502 0.20018 0.58139 0.0
C302 C 0.28329 0.27555 0.65067 0.0
C303 C 0.28754 0.25672 0.64216 0.0
C304 C 0.27285 0.27107 0.61701 0.0
C305 C 0.28915 0.19825 0.5984 0.0
C306 C 0.29132 0.21844 0.60742 0.0
C307 C 0.29243 0.27662 0.63376 0.0
C308 C 0.2932 0.25694 0.62464 0.0
H309 H 0.26953 0.1124 0.58962 0.0
H310 H 0.28017 0.14397 0.60464 0.0
H311 H 0.25527 0.26326 0.60282 0.0
H312 H 0.29065 0.36458 0.64254 0.0
H313 H 0.29854 0.33165 0.6277 0.0
C314 C 0.86387 0.80766 0.84079 0.0
C315 C 0.84185 0.80073 0.83283 0.0
C316 C 0.84726 0.8172 0.84933 0.0
C317 C 0.75771 0.84495 0.86037 0.0
H318 H 0.79131 0.7813 0.88068 0.0
C319 C 0.6634 0.79468 0.89034 0.0
C320 C 0.67898 0.78936 0.89929 0.0
C321 C 0.6857 0.80609 0.88284 0.0
C322 C 0.78202 0.79995 0.87517 0.0
H323 H 0.7855 0.80039 0.82739 0.0
H324 H 0.75653 0.81618 0.84229 0.0
H325 H 0.82726 0.78473 0.86627 0.0
H326 H 0.72951 0.79375 0.90756 0.0
H327 H 0.76831 0.81388 0.89449 0.0
H328 H 0.71142 0.85872 0.86919 0.0
C329 C 0.78659 0.8148 0.84195 0.0
C330 C 0.8027 0.80197 0.86691 0.0
C331 C 0.80316 0.80534 0.83343 0.0
C332 C 0.71684 0.79713 0.9007 0.0
C333 C 0.73906 0.80866 0.89323 0.0
C334 C 0.73695 0.84289 0.86865 0.0
C335 C 0.80838 0.81992 0.85004 0.0
C336 C 0.79016 0.82358 0.85932 0.0
C337 C 0.7239 0.8125 0.88418 0.0
C338 C 0.74838 0.81949 0.87602 0.0
H339 H 0.89383 0.80472 0.8405 0.0
H340 H 0.86475 0.82143 0.85545 0.0
H341 H 0.74772 0.86227 0.85468 0.0
H342 H 0.63424 0.78906 0.88907 0.0
H343 H 0.67334 0.80836 0.87592 0.0
C344 C 0.68399 0.79419 0.58094 0.0
C345 C 0.69423 0.83182 0.58056 0.0
C346 C 0.68016 0.77631 0.58955 0.0
C347 C 0.67267 0.7894 0.61518 0.0
H348 H 0.72926 0.69763 0.61594 0.0
C349 C 0.72198 0.72086 0.64962 0.0
C350 C 0.72267 0.68187 0.65005 0.0
C351 C 0.71276 0.73887 0.64126 0.0
C352 C 0.71272 0.72279 0.61583 0.0
H353 H 0.70613 0.88097 0.58885 0.0
H354 H 0.7 0.84936 0.60402 0.0
H355 H 0.72183 0.73023 0.60112 0.0
H356 H 0.71292 0.63106 0.64222 0.0
H357 H 0.69622 0.6625 0.62764 0.0
H358 H 0.66407 0.78205 0.62997 0.0
C359 C 0.69469 0.83386 0.59762 0.0
C360 C 0.7085 0.7415 0.60734 0.0
C361 C 0.6984 0.85187 0.58896 0.0
C362 C 0.71303 0.66117 0.64205 0.0
C363 C 0.70355 0.67917 0.63371 0.0
C364 C 0.67674 0.77052 0.62371 0.0
C365 C 0.68667 0.79565 0.59796 0.0
C366 C 0.68869 0.7751 0.60694 0.0
C367 C 0.70384 0.71819 0.63319 0.0
C368 C 0.69712 0.73718 0.62412 0.0
H369 H 0.68 0.77819 0.57456 0.0
H370 H 0.67325 0.74699 0.58964 0.0
H371 H 0.65707 0.81516 0.61503 0.0
H372 H 0.72928 0.73752 0.6557 0.0
H373 H 0.71374 0.76895 0.64104 0.0
C374 C 0.2843 0.19199 0.89909 0.0
C375 C 0.32317 0.19432 0.8997 0.0
C376 C 0.26743 0.18003 0.89081 0.0
C377 C 0.28584 0.17921 0.86565 0.0
H378 H 0.19013 0.12963 0.86468 0.0
C379 C 0.20407 0.17663 0.83154 0.0
C380 C 0.16766 0.19023 0.83248 0.0
C381 C 0.22379 0.16472 0.8394 0.0
C382 C 0.21695 0.14331 0.86485 0.0
H383 H 0.37504 0.18385 0.89238 0.0
H384 H 0.34551 0.16247 0.87791 0.0
H385 H 0.22517 0.13069 0.87942 0.0
H386 H 0.12231 0.19966 0.84224 0.0
H387 H 0.15723 0.1798 0.85609 0.0
H388 H 0.27719 0.19318 0.85125 0.0
C389 C 0.32808 0.17058 0.88377 0.0
C390 C 0.23696 0.14396 0.87327 0.0
C391 C 0.34497 0.18283 0.89205 0.0
C392 C 0.15044 0.18953 0.84134 0.0
C393 C 0.17033 0.17785 0.84924 0.0
C394 C 0.26598 0.17842 0.85726 0.0
C395 C 0.28912 0.16992 0.883 0.0
C396 C 0.27105 0.16298 0.87381 0.0
C397 C 0.2076 0.1665 0.84837 0.0
C398 C 0.23085 0.16145 0.85684 0.0
H399 H 0.26679 0.20054 0.90491 0.0
H400 H 0.23736 0.18042 0.8904 0.0
H401 H 0.31169 0.19462 0.86585 0.0
H402 H 0.21778 0.1762 0.82475 0.0
H403 H 0.25224 0.15549 0.83851 0.0
C404 C 0.79084 0.65969 0.08995 0.0
C405 C 0.78716 0.67755 0.08122 0.0
C406 C 0.80024 0.68012 0.09795 0.0
C407 C 0.79158 0.77438 0.10706 0.0
H408 H 0.85176 0.73638 0.12755 0.0
C409 C 0.80217 0.85278 0.14202 0.0
C410 C 0.79561 0.83057 0.14997 0.0
C411 C 0.80964 0.83635 0.13333 0.0
C412 C 0.83494 0.74732 0.12187 0.0
H413 H 0.79246 0.7302 0.07387 0.0
H414 H 0.80921 0.76568 0.08781 0.0
H415 H 0.84968 0.70269 0.11263 0.0
H416 H 0.79314 0.77393 0.15519 0.0
H417 H 0.80546 0.74529 0.14002 0.0
H418 H 0.77571 0.81819 0.11635 0.0
C419 C 0.80416 0.73611 0.08851 0.0
C420 C 0.83373 0.72806 0.11335 0.0
C421 C 0.79461 0.71578 0.08054 0.0
C422 C 0.79795 0.79175 0.14917 0.0
C423 C 0.80537 0.77534 0.14049 0.0
C424 C 0.79278 0.79358 0.11556 0.0
C425 C 0.80625 0.71865 0.09733 0.0
C426 C 0.81139 0.74102 0.10595 0.0
C427 C 0.81066 0.79745 0.13246 0.0
C428 C 0.81378 0.7798 0.12311 0.0
H429 H 0.7854 0.63025 0.09066 0.0
H430 H 0.80127 0.66598 0.10467 0.0
H431 H 0.77365 0.78475 0.10153 0.0
H432 H 0.80089 0.88281 0.14246 0.0
H433 H 0.81401 0.85405 0.12727 0.0
C434 C 0.21364 0.28943 0.39924 0.0
C435 C 0.17474 0.28734 0.39982 0.0
C436 C 0.23078 0.29924 0.3908 0.0
C437 C 0.21329 0.29558 0.36556 0.0
H438 H 0.30603 0.35033 0.36405 0.0
C439 C 0.29074 0.30637 0.33079 0.0
C440 C 0.32828 0.29587 0.33129 0.0
C441 C 0.27118 0.31522 0.33894 0.0
C442 C 0.2801 0.33508 0.36438 0.0
H443 H 0.12312 0.29563 0.39221 0.0
H444 H 0.15308 0.31323 0.37748 0.0
H445 H 0.2721 0.34788 0.37896 0.0
H446 H 0.37553 0.28859 0.34058 0.0
H447 H 0.34101 0.30322 0.3549 0.0
H448 H 0.22167 0.28172 0.35114 0.0
C449 C 0.17034 0.30661 0.3835 0.0
C450 C 0.26073 0.33363 0.37289 0.0
C451 C 0.1532 0.29656 0.39192 0.0
C452 C 0.34653 0.2964 0.34002 0.0
C453 C 0.32685 0.30506 0.3482 0.0
C454 C 0.23253 0.29711 0.35708 0.0
C455 C 0.2093 0.30735 0.3828 0.0
C456 C 0.22754 0.31318 0.3736 0.0
C457 C 0.28873 0.31349 0.34775 0.0
C458 C 0.26648 0.31622 0.35645 0.0
H459 H 0.23092 0.28254 0.40523 0.0
H460 H 0.26086 0.29904 0.39045 0.0
H461 H 0.18818 0.27903 0.36591 0.0
H462 H 0.27613 0.30679 0.32413 0.0
H463 H 0.24198 0.32226 0.33838 0.0
C464 C 0.26825 0.16712 0.20833 0.0
C465 C 0.27416 0.19612 0.20189 0.0
C466 C 0.26595 0.17443 0.21792 0.0
C467 C 0.29397 0.24332 0.23553 0.0
H468 H 0.23337 0.18099 0.2517 0.0
C469 C 0.26557 0.21597 0.27773 0.0
C470 C 0.30272 0.21854 0.28069 0.0
C471 C 0.25688 0.21747 0.26815 0.0
C472 C 0.24996 0.19912 0.24729 0.0
H473 H 0.28154 0.25565 0.2004 0.0
H474 H 0.27677 0.26864 0.21722 0.0
H475 H 0.22554 0.17772 0.23471 0.0
H476 H 0.35997 0.22312 0.27601 0.0
H477 H 0.34505 0.22435 0.2594 0.0
H478 H 0.31802 0.26509 0.2481 0.0
C479 C 0.27461 0.24012 0.21485 0.0
C480 C 0.24584 0.1969 0.23755 0.0
C481 C 0.27737 0.23272 0.20522 0.0
C482 C 0.33102 0.22152 0.27394 0.0
C483 C 0.32243 0.22263 0.26441 0.0
C484 C 0.29774 0.24588 0.24526 0.0
C485 C 0.26903 0.21098 0.2213 0.0
C486 C 0.26881 0.21794 0.23157 0.0
C487 C 0.28527 0.22125 0.26141 0.0
C488 C 0.27683 0.22276 0.25123 0.0
H489 H 0.26588 0.13857 0.20598 0.0
H490 H 0.26263 0.15119 0.22269 0.0
H491 H 0.31217 0.25989 0.23114 0.0
H492 H 0.2432 0.21388 0.28281 0.0
H493 H 0.22798 0.2164 0.26604 0.0
C494 C 0.76616 0.78026 0.45569 0.0
C495 C 0.79446 0.75844 0.45173 0.0
C496 C 0.75688 0.77621 0.46518 0.0
C497 C 0.79877 0.74571 0.48734 0.0
H498 H 0.69883 0.75886 0.49701 0.0
C499 C 0.77077 0.75472 0.52698 0.0
C500 C 0.75028 0.78643 0.52952 0.0
C501 C 0.77184 0.74304 0.51762 0.0
C502 C 0.72684 0.75497 0.49439 0.0
H503 H 0.83381 0.71386 0.45442 0.0
H504 H 0.81721 0.7065 0.47087 0.0
H505 H 0.70875 0.75388 0.48005 0.0
H506 H 0.71328 0.82957 0.52435 0.0
H507 H 0.71554 0.80943 0.50806 0.0
H508 H 0.81704 0.74795 0.50162 0.0
C509 C 0.80281 0.72731 0.46674 0.0
C510 C 0.73253 0.75227 0.4847 0.0
C511 C 0.81228 0.73155 0.45731 0.0
C512 C 0.72961 0.80521 0.52261 0.0
C513 C 0.73054 0.79344 0.51329 0.0
C514 C 0.79308 0.74829 0.497 0.0
C515 C 0.77555 0.75008 0.47083 0.0
C516 C 0.76867 0.74852 0.48108 0.0
C517 C 0.75224 0.76272 0.51067 0.0
C518 C 0.75719 0.75389 0.5006 0.0
H519 H 0.75191 0.80113 0.45155 0.0
H520 H 0.73604 0.79448 0.46816 0.0
H521 H 0.82702 0.74336 0.48476 0.0
H522 H 0.78678 0.73954 0.53217 0.0
H523 H 0.78859 0.71909 0.51578 0.0
C524 C 0.26588 0.31912 0.71036 0.0
C525 C 0.24054 0.2994 0.70473 0.0
C526 C 0.26742 0.31292 0.72003 0.0
C527 C 0.23775 0.24826 0.73883 0.0
H528 H 0.23856 0.33723 0.75427 0.0
C529 C 0.18007 0.25279 0.77625 0.0
C530 C 0.19978 0.27261 0.78316 0.0
C531 C 0.19137 0.25376 0.7669 0.0
C532 C 0.23903 0.31212 0.75006 0.0
H533 H 0.19777 0.25691 0.70474 0.0
H534 H 0.19984 0.24667 0.72168 0.0
H535 H 0.24683 0.34254 0.73732 0.0
H536 H 0.24698 0.30882 0.78568 0.0
H537 H 0.26651 0.31089 0.76919 0.0
H538 H 0.22841 0.21807 0.75159 0.0
C539 C 0.21896 0.26648 0.7186 0.0
C540 C 0.24378 0.3151 0.74036 0.0
C541 C 0.21757 0.27251 0.7089 0.0
C542 C 0.23121 0.29333 0.78051 0.0
C543 C 0.24236 0.29455 0.7711 0.0
C544 C 0.23282 0.24531 0.74853 0.0
C545 C 0.24351 0.28706 0.72427 0.0
C546 C 0.24242 0.28328 0.73463 0.0
C547 C 0.22249 0.27475 0.76423 0.0
C548 C 0.23262 0.2773 0.75419 0.0
H549 H 0.28432 0.33971 0.70733 0.0
H550 H 0.28706 0.32872 0.72419 0.0
H551 H 0.23726 0.22321 0.7346 0.0
H552 H 0.15581 0.23642 0.77805 0.0
H553 H 0.17521 0.23874 0.76171 0.0
C554 C 0.73515 0.67209 0.02349 0.0
C555 C 0.71305 0.69202 0.0299 0.0
C556 C 0.73278 0.67921 0.01389 0.0
C557 C 0.66836 0.71282 -0.00377 0.0
H558 H 0.75592 0.71643 0.9803 0.0
C559 C 0.65787 0.73863 0.95654 0.0
C560 C 0.6803 0.71659 0.95066 0.0
C561 C 0.66327 0.73865 0.96623 0.0
C562 C 0.73125 0.71514 0.98466 0.0
H563 H 0.67166 0.73554 0.03131 0.0
H564 H 0.66733 0.74781 0.01441 0.0
H565 H 0.7631 0.71255 -0.00264 0.0
H566 H 0.72618 0.67749 0.95033 0.0
H567 H 0.73515 0.67691 0.96736 0.0
H568 H 0.63643 0.71441 0.98358 0.0
C569 C 0.68639 0.72664 0.01688 0.0
C570 C 0.73535 0.71311 -0.0056 0.0
C571 C 0.68895 0.7197 0.02653 0.0
C572 C 0.70849 0.69476 0.95468 0.0
C573 C 0.71377 0.69463 0.96441 0.0
C574 C 0.66424 0.71468 0.9865 0.0
C575 C 0.70813 0.70625 0.01049 0.0
C576 C 0.70393 0.71158 0.00026 0.0
C577 C 0.69106 0.71647 0.97028 0.0
C578 C 0.69564 0.71557 0.98061 0.0
H579 H 0.75415 0.65069 0.02586 0.0
H580 H 0.74951 0.66278 0.0091 0.0
H581 H 0.6437 0.71107 0.00059 0.0
H582 H 0.63613 0.75611 0.95366 0.0
H583 H 0.64577 0.75625 0.97054 0.0
C584 C 0.25548 0.32677 0.02257 0.0
C585 C 0.26028 0.2989 0.02938 0.0
C586 C 0.2541 0.31776 0.01307 0.0
C587 C 0.28225 0.24539 -0.00366 0.0
H588 H 0.22362 0.30605 0.97934 0.0
C589 C 0.25687 0.26957 0.9538 0.0
C590 C 0.29412 0.26617 0.95097 0.0
C591 C 0.24756 0.26809 0.96334 0.0
C592 C 0.23964 0.28831 0.98397 0.0
H593 H 0.26687 0.23964 0.03161 0.0
H594 H 0.26369 0.22366 0.01491 0.0
H595 H 0.2148 0.31208 -0.00379 0.0
H596 H 0.35088 0.25942 0.95586 0.0
H597 H 0.33494 0.25838 0.9724 0.0
H598 H 0.30662 0.22116 0.98409 0.0
C599 C 0.26164 0.2526 0.01694 0.0
C600 C 0.23498 0.29215 -0.00635 0.0
C601 C 0.26346 0.26171 0.02649 0.0
C602 C 0.32186 0.26179 0.95782 0.0
C603 C 0.31266 0.26077 0.96731 0.0
C604 C 0.28651 0.24115 0.98665 0.0
C605 C 0.257 0.28059 0.01013 0.0
C606 C 0.25729 0.27181 -6e-05 0.0
C607 C 0.2754 0.2636 0.9702 0.0
C608 C 0.26632 0.26362 0.98037 0.0
H609 H 0.25324 0.35575 0.02456 0.0
H610 H 0.25156 0.34015 0.00801 0.0
H611 H 0.2999 0.22927 0.00097 0.0
H612 H 0.2349 0.27267 0.94865 0.0
H613 H 0.21857 0.27012 0.96533 0.0
C614 C 0.67313 0.74727 0.27394 0.0
C615 C 0.69443 0.766 0.28074 0.0
C616 C 0.68348 0.74802 0.26451 0.0
C617 C 0.73298 0.80535 0.24767 0.0
H618 H 0.72436 0.71873 0.23154 0.0
C619 C 0.76364 0.81531 0.20835 0.0
C620 C 0.73737 0.79886 0.20234 0.0
C621 C 0.76359 0.80733 0.21792 0.0
C622 C 0.72671 0.74315 0.23596 0.0
H623 H 0.7437 0.79963 0.28301 0.0
H624 H 0.76168 0.80111 0.26643 0.0
H625 H 0.71537 0.71223 0.24851 0.0
H626 H 0.6914 0.76002 0.20154 0.0
H627 H 0.69064 0.74672 0.2184 0.0
H628 H 0.74309 0.83658 0.23517 0.0
C629 C 0.7369 0.78597 0.26845 0.0
C630 C 0.72168 0.73942 0.24565 0.0
C631 C 0.72665 0.78507 0.27793 0.0
C632 C 0.71191 0.77313 0.20603 0.0
C633 C 0.71165 0.76538 0.21566 0.0
C634 C 0.73787 0.80911 0.238 0.0
C635 C 0.71525 0.76761 0.26166 0.0
C636 C 0.72427 0.77061 0.25156 0.0
C637 C 0.73704 0.78302 0.22172 0.0
C638 C 0.73435 0.77814 0.23203 0.0
H639 H 0.64822 0.73216 0.27588 0.0
H640 H 0.66599 0.73408 0.25941 0.0
H641 H 0.73453 0.82995 0.25205 0.0
H642 H 0.78406 0.83479 0.20568 0.0
H643 H 0.784 0.82072 0.22238 0.0
C644 C 0.2288 0.22038 0.45696 0.0
C645 C 0.20185 0.24249 0.45253 0.0
C646 C 0.23573 0.22454 0.46657 0.0
C647 C 0.18706 0.25467 0.4878 0.0
H648 H 0.2827 0.23788 0.49962 0.0
C649 C 0.2007 0.23846 0.52786 0.0
C650 C 0.22021 0.20628 0.5305 0.0
C651 C 0.20266 0.25154 0.51862 0.0
C652 C 0.25586 0.2428 0.4964 0.0
H653 H 0.16305 0.28813 0.45448 0.0
H654 H 0.1756 0.29569 0.47116 0.0
H655 H 0.27918 0.2453 0.48255 0.0
H656 H 0.2582 0.16341 0.52563 0.0
H657 H 0.26114 0.18589 0.50957 0.0
H658 H 0.16353 0.25082 0.50155 0.0
C659 C 0.19065 0.27452 0.4673 0.0
C660 C 0.25385 0.24693 0.48665 0.0
C661 C 0.18349 0.27016 0.45774 0.0
C662 C 0.24259 0.18814 0.52382 0.0
C663 C 0.24467 0.20128 0.51463 0.0
C664 C 0.18909 0.25062 0.49752 0.0
C665 C 0.21605 0.25109 0.47187 0.0
C666 C 0.21928 0.2519 0.48224 0.0
C667 C 0.22436 0.23278 0.5119 0.0
C668 C 0.22335 0.24357 0.50188 0.0
H669 H 0.24343 0.19893 0.4531 0.0
H670 H 0.25523 0.20581 0.46993 0.0
H671 H 0.15993 0.25794 0.4846 0.0
H672 H 0.18342 0.25316 0.53287 0.0
H673 H 0.18685 0.27601 0.51669 0.0
C674 C 0.78066 0.73602 0.70685 0.0
C675 C 0.77473 0.69991 0.70342 0.0
C676 C 0.77848 0.7432 0.71649 0.0
C677 C 0.74809 0.70111 0.73925 0.0
H678 H 0.82573 0.76371 0.74953 0.0
C679 C 0.83687 0.72115 0.77539 0.0
C680 C 0.80875 0.72086 0.78223 0.0
C681 C 0.82794 0.7217 0.76589 0.0
C682 C 0.80395 0.74601 0.74677 0.0
H683 H 0.76175 0.64306 0.70736 0.0
H684 H 0.75952 0.65518 0.7241 0.0
H685 H 0.81829 0.75936 0.73262 0.0
H686 H 0.74918 0.72008 0.78454 0.0
H687 H 0.73336 0.72173 0.76779 0.0
H688 H 0.73556 0.6858 0.75344 0.0
C689 C 0.7646 0.6783 0.71939 0.0
C690 C 0.79927 0.744 0.73706 0.0
C691 C 0.7663 0.67125 0.70978 0.0
C692 C 0.77138 0.72012 0.77939 0.0
C693 C 0.76237 0.72111 0.76981 0.0
C694 C 0.75311 0.70275 0.74898 0.0
C695 C 0.77082 0.7143 0.72288 0.0
C696 C 0.77198 0.72071 0.73318 0.0
C697 C 0.79063 0.72251 0.76298 0.0
C698 C 0.78185 0.72435 0.75281 0.0
H699 H 0.78679 0.75872 0.70209 0.0
H700 H 0.78296 0.77135 0.71894 0.0
H701 H 0.72622 0.68356 0.73649 0.0
H702 H 0.86595 0.72122 0.77738 0.0
H703 H 0.85039 0.72151 0.76081 0.0
C704 C 0.15367 0.01862 0.185 0.0
C705 C 0.1548 0.05761 0.185 0.0
C706 C 0.12078 -1e-05 0.18733 0.0
C707 C 0.02492 0.01527 0.197 0.0
H708 H 0.0007 0.93179 0.18089 0.0
C709 C 0.87629 0.96721 0.18703 0.0
C710 C 0.86966 0.92874 0.18714 0.0
C711 C 0.91188 0.981 0.1889 0.0
C712 C 0.00729 0.95476 0.18553 0.0
H713 H 0.12286 0.10769 0.18769 0.0
H714 H 0.06557 0.07559 0.19132 0.0
H715 H 0.06265 0.95857 0.18026 0.0
H716 H 0.89455 0.87469 0.18976 0.0
H717 H 0.95661 0.89884 0.19283 0.0
H718 H 0.96839 0.01256 0.20178 0.0
C719 C 0.09003 0.05907 0.18982 0.0
C720 C 0.0429 0.97001 0.18522 0.0
C721 C 0.12292 0.07757 0.18764 0.0
C722 C 0.89879 0.90449 0.18957 0.0
C723 C 0.93433 0.91821 0.19132 0.0
C724 C 0.98906 0.00038 0.19717 0.0
C725 C 0.0883 0.02006 0.18955 0.0
C726 C 0.052 0.00092 0.19082 0.0
C727 C 0.94134 0.95647 0.1908 0.0
C728 C 0.97988 0.97035 0.19134 0.0
H729 H 0.17797 0.00254 0.18308 0.0
H730 H 0.12067 0.9699 0.18722 0.0
H731 H 0.03115 0.03853 0.20156 0.0
H732 H 0.85434 0.98654 0.18521 0.0
H733 H 0.91676 0.01065 0.18842 0.0
C734 C 0.02225 0.35906 0.42935 0.0
C735 C 0.05519 0.35065 0.43419 0.0
C736 C 0.00549 0.3938 0.43045 0.0
C737 C 0.00117 0.47789 0.4451 0.0
H738 H 0.98541 0.52836 0.4213 0.0
C739 C 0.97156 0.6338 0.42914 0.0
C740 C 0.93872 0.64319 0.43392 0.0
C741 C 0.98726 0.5986 0.43028 0.0
C742 C 0.98993 0.51468 0.428 0.0
H743 H 0.09492 0.37065 0.4445 0.0
H744 H 0.06534 0.43116 0.44649 0.0
H745 H 0.00596 0.46377 0.42138 0.0
H746 H 0.89803 0.62434 0.44414 0.0
H747 H 0.92582 0.563 0.4462 0.0
H748 H 0.98496 0.52905 0.45169 0.0
C749 C 0.05266 0.41106 0.44181 0.0
C750 C 0.00115 0.47762 0.42804 0.0
C751 C 0.06965 0.37652 0.44063 0.0
C752 C 0.92326 0.61774 0.44032 0.0
C753 C 0.93921 0.58272 0.44154 0.0
C754 C 0.98943 0.51494 0.44505 0.0
C755 C 0.02116 0.42042 0.43649 0.0
C756 C 0.00698 0.45893 0.43658 0.0
C757 C 0.97063 0.57246 0.4363 0.0
C758 C 0.984 0.53367 0.43649 0.0
H759 H 0.01048 0.3396 0.42435 0.0
H760 H 0.98095 0.40031 0.42635 0.0
H761 H 0.00555 0.46402 0.45177 0.0
H762 H 0.9841 0.65291 0.42418 0.0
H763 H 0.01179 0.5914 0.42625 0.0
C764 C 0.39792 0.41078 0.68536 0.0
C765 C 0.36505 0.43137 0.68422 0.0
C766 C 0.43183 0.42874 0.68669 0.0
C767 C 0.47704 0.51931 0.6825 0.0
H768 H 0.55689 0.47478 0.697 0.0
C769 C 0.61836 0.59081 0.68697 0.0
C770 C 0.64908 0.56909 0.68429 0.0
C771 C 0.58365 0.5745 0.68834 0.0
C772 C 0.53478 0.48742 0.69293 0.0
H773 H 0.34157 0.48683 0.68398 0.0
H774 H 0.40076 0.51836 0.68662 0.0
H775 H 0.49511 0.44656 0.69722 0.0
H776 H 0.66796 0.51303 0.68136 0.0
H777 H 0.60697 0.48433 0.68387 0.0
H778 H 0.51675 0.56033 0.67829 0.0
C779 C 0.4005 0.4883 0.68622 0.0
C780 C 0.49946 0.47127 0.69302 0.0
C781 C 0.36654 0.47029 0.68476 0.0
C782 C 0.64475 0.53044 0.68341 0.0
C783 C 0.60997 0.51403 0.68488 0.0
C784 C 0.51216 0.5357 0.68253 0.0
C785 C 0.43366 0.46774 0.68703 0.0
C786 C 0.47029 0.4867 0.68768 0.0
C787 C 0.579 0.5361 0.68714 0.0
C788 C 0.54143 0.51964 0.68764 0.0
H789 H 0.39769 0.38072 0.68494 0.0
H790 H 0.45676 0.41195 0.68712 0.0
H791 H 0.45557 0.53159 0.67816 0.0
H792 H 0.62079 0.62067 0.68775 0.0
H793 H 0.56023 0.59202 0.69017 0.0
C794 C 0.47244 0.13729 0.93633 0.0
C795 C 0.43351 0.13927 0.936 0.0
C796 C 0.49009 0.1034 0.93815 0.0
C797 C 0.47167 0.00448 0.94526 0.0
H798 H 0.55756 0.98536 0.9295 0.0
C799 C 0.52197 0.8595 0.9324 0.0
C800 C 0.56022 0.85255 0.93333 0.0
C801 C 0.50748 0.89446 0.93468 0.0
C802 C 0.53382 0.99047 0.93402 0.0
H803 H 0.38248 0.1078 0.9377 0.0
H804 H 0.41291 0.04887 0.94042 0.0
H805 H 0.53153 0.04763 0.93013 0.0
H806 H 0.61304 0.87624 0.93769 0.0
H807 H 0.58778 0.93728 0.94142 0.0
H808 H 0.47299 0.94629 0.94861 0.0
C809 C 0.43013 0.07332 0.93957 0.0
C810 C 0.51902 0.02624 0.93445 0.0
C811 C 0.41258 0.10721 0.93792 0.0
C812 C 0.58344 0.88072 0.93687 0.0
C813 C 0.56909 0.91568 0.939 0.0
C814 C 0.48609 0.96848 0.94466 0.0
C815 C 0.46913 0.07074 0.9395 0.0
C816 C 0.4874 0.03366 0.93997 0.0
C817 C 0.53115 0.92301 0.93778 0.0
C818 C 0.51703 0.9612 0.93896 0.0
H819 H 0.48925 0.16169 0.93496 0.0
H820 H 0.52018 0.10268 0.93826 0.0
H821 H 0.44781 0.00924 0.94974 0.0
H822 H 0.50344 0.83827 0.92972 0.0
H823 H 0.47811 0.89968 0.93364 0.0
C824 C 0.10699 0.42054 0.04246 0.0
C825 C 0.13921 0.44101 0.04453 0.0
C826 C 0.07361 0.43856 0.04051 0.0
C827 C 0.02706 0.52809 0.04498 0.0
H828 H 0.94886 0.48254 0.03013 0.0
C829 C 0.88147 0.59211 0.04212 0.0
C830 C 0.85316 0.56819 0.04528 0.0
C831 C 0.91671 0.57828 0.04004 0.0
C832 C 0.97056 0.49556 0.03426 0.0
H833 H 0.1624 0.49643 0.04558 0.0
H834 H 0.10422 0.52818 0.04182 0.0
H835 H 0.01175 0.45699 0.02956 0.0
H836 H 0.83891 0.51079 0.04822 0.0
H837 H 0.90075 0.48645 0.04441 0.0
H838 H 0.98573 0.56676 0.04961 0.0
C839 C 0.10447 0.49809 0.04201 0.0
C840 C 0.00652 0.48091 0.03399 0.0
C841 C 0.13788 0.47996 0.04411 0.0
C842 C 0.86023 0.52986 0.04583 0.0
C843 C 0.89547 0.51593 0.04361 0.0
C844 C 0.99133 0.54309 0.04511 0.0
C845 C 0.07168 0.47758 0.04043 0.0
C846 C 0.035 0.49637 0.03956 0.0
C847 C 0.92419 0.54022 0.04094 0.0
C848 C 0.96262 0.52643 0.03993 0.0
H849 H 0.10707 0.39044 0.04274 0.0
H850 H 0.04899 0.42171 0.03951 0.0
H851 H 0.04793 0.54041 0.0495 0.0
H852 H 0.87688 0.62179 0.04159 0.0
H853 H 0.93841 0.59745 0.03794 0.0
C854 C 0.57512 0.60798 0.29187 0.0
C855 C 0.55371 0.6395 0.29401 0.0
C856 C 0.55808 0.57461 0.28943 0.0
C857 C 0.46863 0.52619 0.29258 0.0
H858 H 0.51902 0.44968 0.27816 0.0
C859 C 0.40935 0.37935 0.28931 0.0
C860 C 0.43316 0.35246 0.29322 0.0
C861 C 0.42274 0.41447 0.28696 0.0
C862 C 0.50462 0.47093 0.28214 0.0
H863 H 0.49776 0.66162 0.29467 0.0
H864 H 0.46777 0.60354 0.29001 0.0
H865 H 0.54298 0.51325 0.27801 0.0
H866 H 0.49018 0.34032 0.29709 0.0
H867 H 0.5138 0.40197 0.29282 0.0
H868 H 0.4302 0.48375 0.29664 0.0
C869 C 0.49778 0.60424 0.29054 0.0
C870 C 0.51836 0.50726 0.28212 0.0
C871 C 0.5149 0.6376 0.29315 0.0
C872 C 0.47119 0.36054 0.29413 0.0
C873 C 0.48471 0.39567 0.29165 0.0
C874 C 0.45452 0.49012 0.29243 0.0
C875 C 0.51914 0.57202 0.28891 0.0
C876 C 0.50121 0.53511 0.28759 0.0
C877 C 0.46029 0.42321 0.28834 0.0
C878 C 0.47294 0.46203 0.28742 0.0
H879 H 0.60514 0.60853 0.29248 0.0
H880 H 0.57556 0.55045 0.28842 0.0
H881 H 0.45495 0.54649 0.29701 0.0
H882 H 0.37992 0.37393 0.28846 0.0
H883 H 0.40351 0.43527 0.28437 0.0
C884 C 0.59707 0.9157 0.54008 0.0
C885 C 0.62948 0.93621 0.54191 0.0
C886 C 0.56398 0.93369 0.53781 0.0
C887 C 0.51861 0.02438 0.54118 0.0
H888 H 0.43966 0.97712 0.52694 0.0
C889 C 0.37333 0.08844 0.53893 0.0
C890 C 0.34519 0.06461 0.54223 0.0
C891 C 0.40822 0.07444 0.53658 0.0
C892 C 0.46157 0.99064 0.53089 0.0
H893 H 0.65339 0.99148 0.54218 0.0
H894 H 0.59572 0.02306 0.53789 0.0
H895 H 0.50235 0.95095 0.52655 0.0
H896 H 0.33077 0.00716 0.54506 0.0
H897 H 0.39203 0.98257 0.54083 0.0
H898 H 0.47773 0.06395 0.54553 0.0
C899 C 0.59559 0.99306 0.5385 0.0
C900 C 0.49741 0.97566 0.53071 0.0
C901 C 0.62869 0.97501 0.54091 0.0
C902 C 0.35197 0.02618 0.54258 0.0
C903 C 0.38689 0.01211 0.54012 0.0
C904 C 0.483 0.03964 0.54123 0.0
C905 C 0.56256 0.97266 0.53718 0.0
C906 C 0.52613 0.99173 0.53609 0.0
C907 C 0.41558 0.0363 0.53736 0.0
C908 C 0.45398 0.02239 0.53628 0.0
H909 H 0.59676 0.88572 0.5408 0.0
H910 H 0.53914 0.91698 0.53701 0.0
H911 H 0.53968 0.03721 0.54554 0.0
H912 H 0.36892 0.11818 0.53852 0.0
H913 H 0.42983 0.09357 0.53439 0.0
C914 C 0.01814 0.14272 0.7945 0.0
C915 C 0.05703 0.14505 0.79497 0.0
C916 C 0.00102 0.10946 0.7918 0.0
C917 C 0.02141 0.01346 0.7826 0.0
H918 H 0.93573 0.98771 0.7978 0.0
C919 C 0.97717 0.86526 0.79429 0.0
C920 C 0.93909 0.85695 0.79367 0.0
C921 C 0.99011 0.90066 0.79185 0.0
C922 C 0.95934 0.99471 0.79341 0.0
H923 H 0.10854 0.11502 0.79264 0.0
H924 H 0.07906 0.05704 0.78844 0.0
H925 H 0.95988 0.05066 0.7983 0.0
H926 H 0.88512 0.87833 0.78943 0.0
H927 H 0.90773 0.94012 0.78542 0.0
H928 H 0.02207 0.95623 0.77831 0.0
C929 C 0.06144 0.08082 0.78982 0.0
C930 C 0.97309 0.03092 0.79363 0.0
C931 C 0.07846 0.11414 0.79233 0.0
C932 C 0.91461 0.8839 0.79005 0.0
C933 C 0.92745 0.91929 0.78775 0.0
C934 C 0.00806 0.97697 0.78255 0.0
C935 C 0.02248 0.07771 0.78972 0.0
C936 C 0.0048 0.04066 0.78838 0.0
C937 C 0.96508 0.92825 0.78888 0.0
C938 C 0.97727 0.96727 0.78806 0.0
H939 H 0.00096 0.16628 0.7964 0.0
H940 H 0.97096 0.10842 0.79159 0.0
H941 H 0.04532 0.02007 0.77829 0.0
H942 H 0.99666 0.84501 0.79702 0.0
H943 H 0.01928 0.90712 0.79282 0.0
C944 C 0.60911 0.9051 0.17098 0.0
C945 C 0.64416 0.92142 0.17239 0.0
C946 C 0.57722 0.92702 0.17044 0.0
C947 C 0.54058 0.02034 0.17633 0.0
H948 H 0.46191 0.99128 0.15917 0.0
C949 C 0.40966 0.10997 0.16962 0.0
C950 C 0.37555 0.09097 0.1702 0.0
C951 C 0.44317 0.09035 0.16951 0.0
C952 C 0.4836 -0.00041 0.16402 0.0
H953 H 0.67323 0.97368 0.1743 0.0
H954 H 0.61751 0.01219 0.17311 0.0
H955 H 0.51957 0.95575 0.15957 0.0
H956 H 0.34989 0.03647 0.17094 0.0
H957 H 0.4085 0.00223 0.17061 0.0
H958 H 0.5045 0.06456 0.18066 0.0
C959 C 0.61463 0.9823 0.17261 0.0
C960 C 0.51659 0.9792 0.16429 0.0
C961 C 0.6466 0.96026 0.17326 0.0
C962 C 0.37567 0.05192 0.1705 0.0
C963 C 0.40919 0.03231 0.17027 0.0
C964 C 0.50769 0.04099 0.17598 0.0
C965 C 0.57954 0.96591 0.17118 0.0
C966 C 0.54532 0.989 0.17054 0.0
C967 C 0.44324 0.05135 0.16985 0.0
C968 C 0.47874 0.03053 0.16991 0.0
H969 H 0.60615 0.87523 0.17038 0.0
H970 H 0.55065 0.91333 0.16955 0.0
H971 H 0.56186 0.02841 0.18132 0.0
H972 H 0.41055 0.14005 0.1694 0.0
H973 H 0.46905 0.10567 0.16911 0.0
C974 C 0.89654 0.90008 0.42136 0.0
C975 C 0.91299 0.86483 0.42226 0.0
C976 C 0.91841 0.93212 0.42136 0.0
C977 C 0.01179 0.96662 0.42806 0.0
H978 H 0.98487 0.04956 0.41201 0.0
C979 C 0.10613 0.09475 0.42237 0.0
C980 C 0.08869 0.1296 0.42314 0.0
C981 C 0.08503 0.06217 0.42221 0.0
C982 C 0.99253 0.02668 0.41657 0.0
H983 H 0.96539 0.83553 0.42371 0.0
H984 H 0.00366 0.89137 0.42343 0.0
H985 H 0.9478 0.99285 0.41163 0.0
H986 H 0.03542 0.15759 0.42428 0.0
H987 H -0.00139 0.10061 0.4239 0.0
H988 H 0.05696 0.00046 0.43286 0.0
C989 C 0.97376 0.89435 0.42297 0.0
C990 C 0.97127 0.99423 0.41638 0.0
C991 C 0.95184 0.8623 0.42307 0.0
C992 C 0.0497 0.13118 0.4237 0.0
C993 C 0.02861 0.09862 0.42343 0.0
C994 C 0.03327 -0.00105 0.42817 0.0
C995 C 0.9573 0.92967 0.42214 0.0
C996 C 0.98049 0.96387 0.42217 0.0
C997 C 0.04608 0.06383 0.4227 0.0
C998 C 0.02371 0.02934 0.42247 0.0
H999 H 0.86665 0.90302 0.4208 0.0
H1000 H 0.9047 0.95886 0.42088 0.0
H1001 H 0.01936 0.94406 0.43273 0.0
H1002 H 0.13612 0.09257 0.42194 0.0
H1003 H 0.09916 0.03569 0.42158 0.0
C1004 C 0.10387 0.39591 0.67292 0.0
C1005 C 0.13929 0.41208 0.67375 0.0
C1006 C 0.07207 0.41806 0.67259 0.0
C1007 C 0.03785 0.5125 0.6783 0.0
H1008 H 0.95549 0.48363 0.66227 0.0
C1009 C 0.91022 0.60645 0.67189 0.0
C1010 C 0.87521 0.58933 0.67269 0.0
C1011 C 0.94266 0.58515 0.67182 0.0
C1012 C 0.97819 0.49185 0.66683 0.0
H1013 H 0.16908 0.46434 0.67479 0.0
H1014 H 0.11355 0.50314 0.67399 0.0
H1015 H 0.01217 0.44644 0.66235 0.0
H1016 H 0.84684 0.53631 0.6739 0.0
H1017 H 0.90365 0.49908 0.67369 0.0
H1018 H 0.00386 0.55826 0.68266 0.0
C1019 C 0.11032 0.47322 0.67379 0.0
C1020 C 0.01064 0.47054 0.6669 0.0
C1021 C 0.14218 0.451 0.6742 0.0
C1022 C 0.87336 0.55036 0.6733 0.0
C1023 C 0.90584 0.52903 0.67313 0.0
C1024 C 0.00552 0.534 0.67816 0.0
C1025 C 0.07485 0.457 0.673 0.0
C1026 C 0.04079 0.48043 0.67269 0.0
C1027 C 0.9408 0.54625 0.67244 0.0
C1028 C 0.9753 0.52376 0.67246 0.0
H1029 H 0.10059 0.366 0.67263 0.0
H1030 H 0.04522 0.40455 0.67217 0.0
H1031 H 0.06024 0.52063 0.68296 0.0
H1032 H 0.91267 0.6364 0.67142 0.0
H1033 H 0.96923 0.59911 0.6712 0.0
C1034 C 0.38883 0.39357 0.91771 0.0
C1035 C 0.40704 0.35936 0.91897 0.0
C1036 C 0.40911 0.42659 0.91713 0.0
C1037 C 0.50152 0.46613 0.92292 0.0
H1038 H 0.46948 0.54624 0.90654 0.0
C1039 C 0.59209 0.59456 0.91579 0.0
C1040 C 0.57474 0.62931 0.91694 0.0
C1041 C 0.5711 0.56198 0.9156 0.0
C1042 C 0.47855 0.52415 0.91119 0.0
H1043 H 0.46091 0.33286 0.92036 0.0
H1044 H 0.4964 0.39027 0.91906 0.0
H1045 H 0.43447 0.48808 0.90688 0.0
H1046 H 0.52155 0.65711 0.91848 0.0
H1047 H 0.48475 0.59988 0.91802 0.0
H1048 H 0.54602 0.50204 0.92707 0.0
C1049 C 0.46635 0.39179 0.91878 0.0
C1050 C 0.45848 0.49087 0.91141 0.0
C1051 C 0.44603 0.35881 0.91948 0.0
C1052 C 0.53576 0.63079 0.91761 0.0
C1053 C 0.51469 0.5981 0.91731 0.0
C1054 C 0.52177 0.49918 0.92261 0.0
C1055 C 0.44814 0.42616 0.91768 0.0
C1056 C 0.4697 0.46144 0.9173 0.0
C1057 C 0.53227 0.56338 0.91645 0.0
C1058 C 0.51049 0.5285 0.91675 0.0
H1059 H 0.35878 0.395 0.91735 0.0
H1060 H 0.39407 0.45252 0.91644 0.0
H1061 H 0.51055 0.44448 0.9277 0.0
H1062 H 0.62204 0.59234 0.91524 0.0
H1063 H 0.5853 0.53559 0.91482 0.0
C1064 C 0.6329 0.53739 0.06123 0.0
C1065 C 0.63058 0.57619 0.06221 0.0
C1066 C 0.60079 0.51549 0.06165 0.0
C1067 C 0.50115 0.51856 0.06889 0.0
H1068 H 0.49166 0.43564 0.05163 0.0
C1069 C 0.36096 0.44837 0.06011 0.0
C1070 C 0.36042 0.40932 0.06039 0.0
C1071 C 0.39458 0.46764 0.06082 0.0
C1072 C 0.4941 0.45854 0.05654 0.0
H1073 H 0.59269 0.62239 0.06437 0.0
H1074 H 0.53699 0.58458 0.06481 0.0
H1075 H 0.5495 0.47098 0.05209 0.0
H1076 H 0.39476 0.35987 0.06152 0.0
H1077 H 0.45345 0.39365 0.0626 0.0
H1078 H 0.44517 0.50668 0.07307 0.0
C1079 C 0.56354 0.57077 0.06398 0.0
C1080 C 0.52728 0.47869 0.05685 0.0
C1081 C 0.59557 0.59255 0.06367 0.0
C1082 C 0.3942 0.38997 0.06132 0.0
C1083 C 0.42783 0.40924 0.06188 0.0
C1084 C 0.46785 0.49869 0.06848 0.0
C1085 C 0.56566 0.53196 0.06295 0.0
C1086 C 0.53114 0.50916 0.06298 0.0
C1087 C 0.42831 0.44823 0.06167 0.0
C1088 C 0.46395 0.46865 0.06227 0.0
H1089 H 0.65949 0.52393 0.06014 0.0
H1090 H 0.60355 0.48564 0.06096 0.0
H1091 H 0.50335 0.54131 0.07384 0.0
H1092 H 0.33541 0.46407 0.05942 0.0
H1093 H 0.39427 0.49774 0.06056 0.0
C1094 C 0.39867 0.09822 0.31346 0.0
C1095 C 0.41698 0.13244 0.31232 0.0
C1096 C 0.4188 0.06509 0.31381 0.0
C1097 C 0.51065 0.02536 0.30754 0.0
H1098 H 0.47741 0.94362 0.32324 0.0
C1099 C 0.59739 0.89263 0.31342 0.0
C1100 C 0.57864 0.85876 0.31204 0.0
C1101 C 0.57775 0.92604 0.31378 0.0
C1102 C 0.48683 0.96619 0.31878 0.0
H1103 H 0.47089 0.15881 0.3109 0.0
H1104 H 0.5062 0.10109 0.31184 0.0
H1105 H 0.44379 0.00253 0.32357 0.0
H1106 H 0.52446 0.83336 0.31015 0.0
H1107 H 0.49002 0.89196 0.31093 0.0
H1108 H 0.55418 0.98904 0.30293 0.0
C1109 C 0.47616 0.09971 0.31219 0.0
C1110 C 0.46755 -0.0001 0.31894 0.0
C1111 C 0.45595 0.13286 0.31172 0.0
C1112 C 0.5397 0.85899 0.3112 0.0
C1113 C 0.51998 0.89245 0.31169 0.0
C1114 C 0.53018 0.99182 0.30748 0.0
C1115 C 0.4578 0.06536 0.31316 0.0
C1116 C 0.47907 0.02987 0.31327 0.0
C1117 C 0.5389 0.92628 0.3129 0.0
C1118 C 0.51833 0.96188 0.31307 0.0
H1119 H 0.36863 0.09688 0.31387 0.0
H1120 H 0.40361 0.03921 0.31439 0.0
H1121 H 0.51995 0.04748 0.30294 0.0
H1122 H 0.62738 0.89346 0.31408 0.0
H1123 H 0.59293 0.95173 0.3148 0.0
C1124 C 0.88483 0.89172 0.55818 0.0
C1125 C 0.85059 0.91007 0.55714 0.0
C1126 C 0.91813 0.91163 0.55798 0.0
C1127 C 0.9579 0.00277 0.55083 0.0
H1128 H 0.03911 0.97255 0.56708 0.0
C1129 C 0.08644 0.09413 0.5581 0.0
C1130 C 0.12134 0.07681 0.55728 0.0
C1131 C 0.05384 0.07316 0.5578 0.0
C1132 C 0.01674 0.98105 0.56245 0.0
H1133 H 0.8244 0.9638 0.55518 0.0
H1134 H 0.88239 -0.00122 0.55517 0.0
H1135 H 0.98094 0.93775 0.56732 0.0
H1136 H 0.1494 0.02386 0.55558 0.0
H1137 H 0.09215 0.98706 0.55523 0.0
H1138 H 0.99359 0.04682 0.54621 0.0
C1139 C 0.88366 0.96884 0.55588 0.0
C1140 C 0.98343 0.96109 0.56255 0.0
C1141 C 0.85035 0.94883 0.55595 0.0
C1142 C 0.12293 0.038 0.55621 0.0
C1143 C 0.09025 0.01694 0.55605 0.0
C1144 C 0.99103 0.023 0.55083 0.0
C1145 C 0.91801 0.95047 0.55687 0.0
C1146 C 0.95355 0.97169 0.55675 0.0
C1147 C 0.05543 0.03439 0.55681 0.0
C1148 C 0.02072 0.01234 0.55664 0.0
H1149 H 0.886 0.86181 0.55902 0.0
H1150 H 0.94399 0.89641 0.55858 0.0
H1151 H 0.93585 0.01133 0.54612 0.0
H1152 H 0.08424 0.12399 0.55891 0.0
H1153 H 0.02734 0.08723 0.55848 0.0
C1154 C 0.96378 0.63697 0.81313 0.0
C1155 C 0.92479 0.63689 0.81363 0.0
C1156 C 0.9837 0.60371 0.81385 0.0
C1157 C 0.97368 0.50449 0.82112 0.0
H1158 H 0.06147 0.49149 0.80563 0.0
C1159 C 0.04431 0.36225 0.8139 0.0
C1160 C 0.08317 0.36142 0.81494 0.0
C1161 C 0.02506 0.396 0.81435 0.0
C1162 C 0.03714 0.49488 0.81004 0.0
H1163 H 0.87609 0.60184 0.81521 0.0
H1164 H 0.91056 0.54396 0.81611 0.0
H1165 H 0.02795 0.55031 0.80518 0.0
H1166 H 0.13223 0.39531 0.81734 0.0
H1167 H 0.09861 0.45409 0.81796 0.0
H1168 H 0.98245 0.44836 0.82569 0.0
C1169 C 0.92599 0.56967 0.81546 0.0
C1170 C 0.01802 0.52865 0.80984 0.0
C1171 C 0.90616 0.60291 0.81488 0.0
C1172 C 0.10229 0.39494 0.81653 0.0
C1173 C 0.08313 0.42864 0.81684 0.0
C1174 C 0.99254 0.47053 0.82121 0.0
C1175 C 0.96504 0.56957 0.81495 0.0
C1176 C 0.98599 0.53391 0.81537 0.0
C1177 C 0.0444 0.42951 0.8157 0.0
C1178 C 0.02443 0.46546 0.81567 0.0
H1179 H 0.97894 0.66276 0.81224 0.0
H1180 H 0.01376 0.60484 0.81359 0.0
H1181 H 0.94959 0.5077 0.82561 0.0
H1182 H 0.0288 0.3369 0.81269 0.0
H1183 H 0.99518 0.39601 0.81341 0.0
loop_
_geom_bond_atom_site_label_1
_geom_bond_atom_site_label_2
_geom_bond_distance
_geom_bond_site_symmetry_2
_ccdc_geom_bond_type
C0 O1 1.306 . S
C0 O3 1.160 . S
O1 C0 1.306 . S
O1 Cd2 2.228 . S
Cd2 O1 2.228 . S
Cd2 O6 2.273 . S
Cd2 O10 2.277 . S
O3 C0 1.160 . S
O3 Cd4 2.203 . S
Cd4 O3 2.203 . S
Cd4 O6 2.411 . S
Cd4 O7 2.333 . S
Cd4 O8 2.352 . S
Cd4 O12 2.277 . S
Cd4 O13 2.356 . S
C5 O10 1.209 . S
C5 O12 1.226 . S
O6 Cd2 2.273 . S
O6 Cd4 2.411 . S
O6 C9 1.320 . S
O7 Cd4 2.333 . S
O7 C9 1.214 . S
O8 Cd4 2.352 . S
O8 C11 1.258 . S
C9 O6 1.320 . S
C9 O7 1.214 . S
O10 Cd2 2.277 . S
O10 C5 1.209 . S
C11 O8 1.258 . S
C11 O13 1.282 . S
O12 Cd4 2.277 . S
O12 C5 1.226 . S
O13 Cd4 2.356 . S
O13 C11 1.282 . S
C14 O15 1.306 . S
C14 O17 1.160 . S
O15 C14 1.306 . S
O15 Cd16 2.228 . S
Cd16 O15 2.228 . S
Cd16 O20 2.273 . S
Cd16 O24 2.277 . S
O17 C14 1.160 . S
O17 Cd18 2.203 . S
Cd18 O17 2.203 . S
Cd18 O20 2.411 . S
Cd18 O21 2.333 . S
Cd18 O22 2.352 . S
Cd18 O26 2.277 . S
Cd18 O27 2.356 . S
C19 O24 1.209 . S
C19 O26 1.226 . S
O20 Cd16 2.273 . S
O20 Cd18 2.411 . S
O20 C23 1.320 . S
O21 Cd18 2.333 . S
O21 C23 1.214 . S
O22 Cd18 2.352 . S
O22 C25 1.258 . S
C23 O20 1.320 . S
C23 O21 1.214 . S
O24 Cd16 2.277 . S
O24 C19 1.209 . S
C25 O22 1.258 . S
C25 O27 1.282 . S
O26 Cd18 2.277 . S
O26 C19 1.226 . S
O27 Cd18 2.356 . S
O27 C25 1.282 . S
C28 O29 1.306 . S
C28 O31 1.160 . S
O29 C28 1.306 . S
O29 Cd30 2.228 . S
Cd30 O29 2.228 . S
Cd30 O34 2.273 . S
Cd30 O38 2.277 . S
O31 C28 1.160 . S
O31 Cd32 2.203 . S
Cd32 O31 2.203 . S
Cd32 O34 2.411 . S
Cd32 O35 2.333 . S
Cd32 O36 2.352 . S
Cd32 O40 2.277 . S
Cd32 O41 2.356 . S
C33 O38 1.209 . S
C33 O40 1.226 . S
O34 Cd30 2.273 . S
O34 Cd32 2.411 . S
O34 C37 1.320 . S
O35 Cd32 2.333 . S
O35 C37 1.214 . S
O36 Cd32 2.352 . S
O36 C39 1.258 . S
C37 O34 1.320 . S
C37 O35 1.214 . S
O38 Cd30 2.277 . S
O38 C33 1.209 . S
C39 O36 1.258 . S
C39 O41 1.282 . S
O40 Cd32 2.277 . S
O40 C33 1.226 . S
O41 Cd32 2.356 . S
O41 C39 1.282 . S
C42 O43 1.306 . S
C42 O45 1.160 . S
O43 C42 1.306 . S
O43 Cd44 2.228 . S
Cd44 O43 2.228 . S
Cd44 O48 2.273 . S
Cd44 O52 2.277 . S
O45 C42 1.160 . S
O45 Cd46 2.203 . S
Cd46 O45 2.203 . S
Cd46 O48 2.411 . S
Cd46 O49 2.333 . S
Cd46 O50 2.352 . S
Cd46 O54 2.277 . S
Cd46 O55 2.356 . S
C47 O52 1.209 . S
C47 O54 1.226 . S
O48 Cd44 2.273 . S
O48 Cd46 2.411 . S
O48 C51 1.320 . S
O49 Cd46 2.333 . S
O49 C51 1.214 . S
O50 Cd46 2.352 . S
O50 C53 1.258 . S
C51 O48 1.320 . S
C51 O49 1.214 . S
O52 Cd44 2.277 . S
O52 C47 1.209 . S
C53 O50 1.258 . S
C53 O55 1.282 . S
O54 Cd46 2.277 . S
O54 C47 1.226 . S
O55 Cd46 2.356 . S
O55 C53 1.282 . S
C56 O57 1.306 . S
C56 O59 1.160 . S
O57 C56 1.306 . S
O57 Cd58 2.228 . S
Cd58 O57 2.228 . S
Cd58 O62 2.273 . S
Cd58 O66 2.277 . S
O59 C56 1.160 . S
O59 Cd60 2.203 . S
Cd60 O59 2.203 . S
Cd60 O62 2.411 . S
Cd60 O63 2.333 . S
Cd60 O64 2.352 . S
Cd60 O68 2.277 . S
Cd60 O69 2.356 . S
C61 O66 1.209 . S
C61 O68 1.226 . S
O62 Cd58 2.273 . S
O62 Cd60 2.411 . S
O62 C65 1.320 . S
O63 Cd60 2.333 . S
O63 C65 1.214 . S
O64 Cd60 2.352 . S
O64 C67 1.258 . S
C65 O62 1.320 . S
C65 O63 1.214 . S
O66 Cd58 2.277 . S
O66 C61 1.209 . S
C67 O64 1.258 . S
C67 O69 1.282 . S
O68 Cd60 2.277 . S
O68 C61 1.226 . S
O69 Cd60 2.356 . S
O69 C67 1.282 . S
C70 O71 1.306 . S
C70 O73 1.160 . S
O71 C70 1.306 . S
O71 Cd72 2.228 . S
Cd72 O71 2.228 . S
Cd72 O76 2.273 . S
Cd72 O80 2.277 . S
O73 C70 1.160 . S
O73 Cd74 2.203 . S
Cd74 O73 2.203 . S
Cd74 O76 2.411 . S
Cd74 O77 2.333 . S
Cd74 O78 2.352 . S
Cd74 O82 2.277 . S
Cd74 O83 2.356 . S
C75 O80 1.209 . S
C75 O82 1.226 . S
O76 Cd72 2.273 . S
O76 Cd74 2.411 . S
O76 C79 1.320 . S
O77 Cd74 2.333 . S
O77 C79 1.214 . S
O78 Cd74 2.352 . S
O78 C81 1.258 . S
C79 O76 1.320 . S
C79 O77 1.214 . S
O80 Cd72 2.277 . S
O80 C75 1.209 . S
C81 O78 1.258 . S
C81 O83 1.282 . S
O82 Cd74 2.277 . S
O82 C75 1.226 . S
O83 Cd74 2.356 . S
O83 C81 1.282 . S
C84 O85 1.306 . S
C84 O87 1.160 . S
O85 C84 1.306 . S
O85 Cd86 2.228 . S
Cd86 O85 2.228 . S
Cd86 O90 2.273 . S
Cd86 O94 2.277 . S
O87 C84 1.160 . S
O87 Cd88 2.203 . S
Cd88 O87 2.203 . S
Cd88 O90 2.411 . S
Cd88 O91 2.333 . S
Cd88 O92 2.352 . S
Cd88 O96 2.277 . S
Cd88 O97 2.356 . S
C89 O94 1.209 . S
C89 O96 1.226 . S
O90 Cd86 2.273 . S
O90 Cd88 2.411 . S
O90 C93 1.320 . S
O91 Cd88 2.333 . S
O91 C93 1.214 . S
O92 Cd88 2.352 . S
O92 C95 1.258 . S
C93 O90 1.320 . S
C93 O91 1.214 . S
O94 Cd86 2.277 . S
O94 C89 1.209 . S
C95 O92 1.258 . S
C95 O97 1.282 . S
O96 Cd88 2.277 . S
O96 C89 1.226 . S
O97 Cd88 2.356 . S
O97 C95 1.282 . S
C98 O99 1.306 . S
C98 O101 1.160 . S
O99 C98 1.306 . S
O99 Cd100 2.228 . S
Cd100 O99 2.228 . S
Cd100 O104 2.273 . S
Cd100 O108 2.277 . S
O101 C98 1.160 . S
O101 Cd102 2.203 . S
Cd102 O101 2.203 . S
Cd102 O104 2.411 . S
Cd102 O105 2.333 . S
Cd102 O106 2.352 . S
Cd102 O110 2.277 . S
Cd102 O111 2.356 . S
C103 O108 1.209 . S
C103 O110 1.226 . S
O104 Cd100 2.273 . S
O104 Cd102 2.411 . S
O104 C107 1.320 . S
O105 Cd102 2.333 . S
O105 C107 1.214 . S
O106 Cd102 2.352 . S
O106 C109 1.258 . S
C107 O104 1.320 . S
C107 O105 1.214 . S
O108 Cd100 2.277 . S
O108 C103 1.209 . S
C109 O106 1.258 . S
C109 O111 1.282 . S
O110 Cd102 2.277 . S
O110 C103 1.226 . S
O111 Cd102 2.356 . S
O111 C109 1.282 . S
C112 O113 1.306 . S
C112 O115 1.160 . S
O113 C112 1.306 . S
O113 Cd114 2.228 . S
Cd114 O113 2.228 . S
Cd114 O118 2.273 . S
Cd114 O122 2.277 . S
O115 C112 1.160 . S
O115 Cd116 2.203 . S
Cd116 O115 2.203 . S
Cd116 O118 2.411 . S
Cd116 O119 2.333 . S
Cd116 O120 2.352 . S
Cd116 O124 2.277 . S
Cd116 O125 2.356 . S
C117 O122 1.209 . S
C117 O124 1.226 . S
O118 Cd114 2.273 . S
O118 Cd116 2.411 . S
O118 C121 1.320 . S
O119 Cd116 2.333 . S
O119 C121 1.214 . S
O120 Cd116 2.352 . S
O120 C123 1.258 . S
C121 O118 1.320 . S
C121 O119 1.214 . S
O122 Cd114 2.277 . S
O122 C117 1.209 . S
C123 O120 1.258 . S
C123 O125 1.282 . S
O124 Cd116 2.277 . S
O124 C117 1.226 . S
O125 Cd116 2.356 . S
O125 C123 1.282 . S
C126 O127 1.306 . S
C126 O129 1.160 . S
O127 C126 1.306 . S
O127 Cd128 2.228 . S
Cd128 O127 2.228 . S
Cd128 O132 2.273 . S
Cd128 O136 2.277 . S
O129 C126 1.160 . S
O129 Cd130 2.203 . S
Cd130 O129 2.203 . S
Cd130 O132 2.411 . S
Cd130 O133 2.333 . S
Cd130 O134 2.352 . S
Cd130 O138 2.277 . S
Cd130 O139 2.356 . S
C131 O136 1.209 . S
C131 O138 1.226 . S
O132 Cd128 2.273 . S
O132 Cd130 2.411 . S
O132 C135 1.320 . S
O133 Cd130 2.333 . S
O133 C135 1.214 . S
O134 Cd130 2.352 . S
O134 C137 1.258 . S
C135 O132 1.320 . S
C135 O133 1.214 . S
O136 Cd128 2.277 . S
O136 C131 1.209 . S
C137 O134 1.258 . S
C137 O139 1.282 . S
O138 Cd130 2.277 . S
O138 C131 1.226 . S
O139 Cd130 2.356 . S
O139 C137 1.282 . S
C140 O141 1.306 . S
C140 O143 1.160 . S
O141 C140 1.306 . S
O141 Cd142 2.228 . S
Cd142 O141 2.228 . S
Cd142 O146 2.273 . S
Cd142 O150 2.277 . S
O143 C140 1.160 . S
O143 Cd144 2.203 . S
Cd144 O143 2.203 . S
Cd144 O146 2.411 . S
Cd144 O147 2.333 . S
Cd144 O148 2.352 . S
Cd144 O152 2.277 . S
Cd144 O153 2.356 . S
C145 O150 1.209 . S
C145 O152 1.226 . S
O146 Cd142 2.273 . S
O146 Cd144 2.411 . S
O146 C149 1.320 . S
O147 Cd144 2.333 . S
O147 C149 1.214 . S
O148 Cd144 2.352 . S
O148 C151 1.258 . S
C149 O146 1.320 . S
C149 O147 1.214 . S
O150 Cd142 2.277 . S
O150 C145 1.209 . S
C151 O148 1.258 . S
C151 O153 1.282 . S
O152 Cd144 2.277 . S
O152 C145 1.226 . S
O153 Cd144 2.356 . S
O153 C151 1.282 . S
C154 O155 1.306 . S
C154 O157 1.160 . S
O155 C154 1.306 . S
O155 Cd156 2.228 . S
Cd156 O155 2.228 . S
Cd156 O160 2.273 . S
Cd156 O164 2.277 . S
O157 C154 1.160 . S
O157 Cd158 2.203 . S
Cd158 O157 2.203 . S
Cd158 O160 2.411 . S
Cd158 O161 2.333 . S
Cd158 O162 2.352 . S
Cd158 O166 2.277 . S
Cd158 O167 2.356 . S
C159 O164 1.209 . S
C159 O166 1.226 . S
O160 Cd156 2.273 . S
O160 Cd158 2.411 . S
O160 C163 1.320 . S
O161 Cd158 2.333 . S
O161 C163 1.214 . S
O162 Cd158 2.352 . S
O162 C165 1.258 . S
C163 O160 1.320 . S
C163 O161 1.214 . S
O164 Cd156 2.277 . S
O164 C159 1.209 . S
C165 O162 1.258 . S
C165 O167 1.282 . S
O166 Cd158 2.277 . S
O166 C159 1.226 . S
O167 Cd158 2.356 . S
O167 C165 1.282 . S
C168 O169 1.306 . S
C168 O171 1.160 . S
O169 C168 1.306 . S
O169 Cd170 2.228 . S
Cd170 O169 2.228 . S
Cd170 O174 2.273 . S
Cd170 O178 2.277 . S
O171 C168 1.160 . S
O171 Cd172 2.203 . S
Cd172 O171 2.203 . S
Cd172 O174 2.411 . S
Cd172 O175 2.333 . S
Cd172 O176 2.352 . S
Cd172 O180 2.277 . S
Cd172 O181 2.356 . S
C173 O178 1.209 . S
C173 O180 1.226 . S
O174 Cd170 2.273 . S
O174 Cd172 2.411 . S
O174 C177 1.320 . S
O175 Cd172 2.333 . S
O175 C177 1.214 . S
O176 Cd172 2.352 . S
O176 C179 1.258 . S
C177 O174 1.320 . S
C177 O175 1.214 . S
O178 Cd170 2.277 . S
O178 C173 1.209 . S
C179 O176 1.258 . S
C179 O181 1.282 . S
O180 Cd172 2.277 . S
O180 C173 1.226 . S
O181 Cd172 2.356 . S
O181 C179 1.282 . S
C182 O183 1.306 . S
C182 O185 1.160 . S
O183 C182 1.306 . S
O183 Cd184 2.228 . S
Cd184 O183 2.228 . S
Cd184 O188 2.273 . S
Cd184 O192 2.277 . S
O185 C182 1.160 . S
O185 Cd186 2.203 . S
Cd186 O185 2.203 . S
Cd186 O188 2.411 . S
Cd186 O189 2.333 . S
Cd186 O190 2.352 . S
Cd186 O194 2.277 . S
Cd186 O195 2.356 . S
C187 O192 1.209 . S
C187 O194 1.226 . S
O188 Cd184 2.273 . S
O188 Cd186 2.411 . S
O188 C191 1.320 . S
O189 Cd186 2.333 . S
O189 C191 1.214 . S
O190 Cd186 2.352 . S
O190 C193 1.258 . S
C191 O188 1.320 . S
C191 O189 1.214 . S
O192 Cd184 2.277 . S
O192 C187 1.209 . S
C193 O190 1.258 . S
C193 O195 1.282 . S
O194 Cd186 2.277 . S
O194 C187 1.226 . S
O195 Cd186 2.356 . S
O195 C193 1.282 . S
C196 O197 1.306 . S
C196 O199 1.160 . S
O197 C196 1.306 . S
O197 Cd198 2.228 . S
Cd198 O197 2.228 . S
Cd198 O202 2.273 . S
Cd198 O206 2.277 . S
O199 C196 1.160 . S
O199 Cd200 2.203 . S
Cd200 O199 2.203 . S
Cd200 O202 2.411 . S
Cd200 O203 2.333 . S
Cd200 O204 2.352 . S
Cd200 O208 2.277 . S
Cd200 O209 2.356 . S
C201 O206 1.209 . S
C201 O208 1.226 . S
O202 Cd198 2.273 . S
O202 Cd200 2.411 . S
O202 C205 1.320 . S
O203 Cd200 2.333 . S
O203 C205 1.214 . S
O204 Cd200 2.352 . S
O204 C207 1.258 . S
C205 O202 1.320 . S
C205 O203 1.214 . S
O206 Cd198 2.277 . S
O206 C201 1.209 . S
C207 O204 1.258 . S
C207 O209 1.282 . S
O208 Cd200 2.277 . S
O208 C201 1.226 . S
O209 Cd200 2.356 . S
O209 C207 1.282 . S
C210 O211 1.306 . S
C210 O213 1.160 . S
O211 C210 1.306 . S
O211 Cd212 2.228 . S
Cd212 O211 2.228 . S
Cd212 O216 2.273 . S
Cd212 O220 2.277 . S
O213 C210 1.160 . S
O213 Cd214 2.203 . S
Cd214 O213 2.203 . S
Cd214 O216 2.411 . S
Cd214 O217 2.333 . S
Cd214 O218 2.352 . S
Cd214 O222 2.277 . S
Cd214 O223 2.356 . S
C215 O220 1.209 . S
C215 O222 1.226 . S
O216 Cd212 2.273 . S
O216 Cd214 2.411 . S
O216 C219 1.320 . S
O217 Cd214 2.333 . S
O217 C219 1.214 . S
O218 Cd214 2.352 . S
O218 C221 1.258 . S
C219 O216 1.320 . S
C219 O217 1.214 . S
O220 Cd212 2.277 . S
O220 C215 1.209 . S
C221 O218 1.258 . S
C221 O223 1.282 . S
O222 Cd214 2.277 . S
O222 C215 1.226 . S
O223 Cd214 2.356 . S
O223 C221 1.282 . S
C224 C225 1.349 . S
C224 C226 1.327 . S
C224 H249 0.950 . S
C225 C224 1.349 . S
C225 C241 1.349 . S
C226 C224 1.327 . S
C226 C245 1.429 . S
C226 H250 0.950 . S
C227 C244 1.574 . S
C227 C246 1.368 . S
C227 H251 0.949 . S
H228 C232 0.949 . S
C229 C230 1.349 . S
C229 C231 1.327 . S
C229 H252 0.950 . S
C230 C229 1.349 . S
C230 C242 1.349 . S
C231 C229 1.327 . S
C231 C247 1.429 . S
C231 H253 0.950 . S
C232 H228 0.949 . S
C232 C240 1.574 . S
C232 C248 1.368 . S
H233 C241 0.950 . S
H234 C239 0.950 . S
H235 C240 0.949 . S
H236 C242 0.950 . S
H237 C243 0.950 . S
H238 C244 0.949 . S
C239 H234 0.950 . S
C239 C241 1.327 . S
C239 C245 1.429 . S
C240 C232 1.574 . S
C240 H235 0.949 . S
C240 C246 1.368 . S
C241 C225 1.349 . S
C241 H233 0.950 . S
C241 C239 1.327 . S
C242 C230 1.349 . S
C242 H236 0.950 . S
C242 C243 1.327 . S
C243 H237 0.950 . S
C243 C242 1.327 . S
C243 C247 1.429 . S
C244 C227 1.574 . S
C244 H238 0.949 . S
C244 C248 1.368 . S
C245 C226 1.429 . S
C245 C239 1.429 . S
C245 C246 1.523 . S
C246 C227 1.368 . S
C246 C240 1.368 . S
C246 C245 1.523 . S
C247 C231 1.429 . S
C247 C243 1.429 . S
C247 C248 1.523 . S
C248 C232 1.368 . S
C248 C244 1.368 . S
C248 C247 1.523 . S
H249 C224 0.950 . S
H250 C226 0.950 . S
H251 C227 0.949 . S
H252 C229 0.950 . S
H253 C231 0.950 . S
C254 C255 1.349 . S
C254 C256 1.327 . S
C254 H279 0.950 . S
C255 C254 1.349 . S
C255 C271 1.349 . S
C256 C254 1.327 . S
C256 C275 1.429 . S
C256 H280 0.950 . S
C257 C274 1.574 . S
C257 C276 1.368 . S
C257 H281 0.949 . S
H258 C262 0.949 . S
C259 C260 1.349 . S
C259 C261 1.327 . S
C259 H282 0.950 . S
C260 C259 1.349 . S
C260 C272 1.349 . S
C261 C259 1.327 . S
C261 C277 1.429 . S
C261 H283 0.950 . S
C262 H258 0.949 . S
C262 C270 1.574 . S
C262 C278 1.368 . S
H263 C271 0.950 . S
H264 C269 0.950 . S
H265 C270 0.949 . S
H266 C272 0.950 . S
H267 C273 0.950 . S
H268 C274 0.949 . S
C269 H264 0.950 . S
C269 C271 1.327 . S
C269 C275 1.429 . S
C270 C262 1.574 . S
C270 H265 0.949 . S
C270 C276 1.368 . S
C271 C255 1.349 . S
C271 H263 0.950 . S
C271 C269 1.327 . S
C272 C260 1.349 . S
C272 H266 0.950 . S
C272 C273 1.327 . S
C273 H267 0.950 . S
C273 C272 1.327 . S
C273 C277 1.429 . S
C274 C257 1.574 . S
C274 H268 0.949 . S
C274 C278 1.368 . S
C275 C256 1.429 . S
C275 C269 1.429 . S
C275 C276 1.523 . S
C276 C257 1.368 . S
C276 C270 1.368 . S
C276 C275 1.523 . S
C277 C261 1.429 . S
C277 C273 1.429 . S
C277 C278 1.523 . S
C278 C262 1.368 . S
C278 C274 1.368 . S
C278 C277 1.523 . S
H279 C254 0.950 . S
H280 C256 0.950 . S
H281 C257 0.949 . S
H282 C259 0.950 . S
H283 C261 0.950 . S
C284 C285 1.349 . S
C284 C286 1.327 . S
C284 H309 0.950 . S
C285 C284 1.349 . S
C285 C301 1.349 . S
C286 C284 1.327 . S
C286 C305 1.429 . S
C286 H310 0.950 . S
C287 C304 1.574 . S
C287 C306 1.368 . S
C287 H311 0.949 . S
H288 C292 0.949 . S
C289 C290 1.349 . S
C289 C291 1.327 . S
C289 H312 0.950 . S
C290 C289 1.349 . S
C290 C302 1.349 . S
C291 C289 1.327 . S
C291 C307 1.429 . S
C291 H313 0.950 . S
C292 H288 0.949 . S
C292 C300 1.574 . S
C292 C308 1.368 . S
H293 C301 0.950 . S
H294 C299 0.950 . S
H295 C300 0.949 . S
H296 C302 0.950 . S
H297 C303 0.950 . S
H298 C304 0.949 . S
C299 H294 0.950 . S
C299 C301 1.327 . S
C299 C305 1.429 . S
C300 C292 1.574 . S
C300 H295 0.949 . S
C300 C306 1.368 . S
C301 C285 1.349 . S
C301 H293 0.950 . S
C301 C299 1.327 . S
C302 C290 1.349 . S
C302 H296 0.950 . S
C302 C303 1.327 . S
C303 H297 0.950 . S
C303 C302 1.327 . S
C303 C307 1.429 . S
C304 C287 1.574 . S
C304 H298 0.949 . S
C304 C308 1.368 . S
C305 C286 1.429 . S
C305 C299 1.429 . S
C305 C306 1.523 . S
C306 C287 1.368 . S
C306 C300 1.368 . S
C306 C305 1.523 . S
C307 C291 1.429 . S
C307 C303 1.429 . S
C307 C308 1.523 . S
C308 C292 1.368 . S
C308 C304 1.368 . S
C308 C307 1.523 . S
H309 C284 0.950 . S
H310 C286 0.950 . S
H311 C287 0.949 . S
H312 C289 0.950 . S
H313 C291 0.950 . S
C314 C315 1.349 . S
C314 C316 1.327 . S
C314 H339 0.950 . S
C315 C314 1.349 . S
C315 C331 1.349 . S
C316 C314 1.327 . S
C316 C335 1.429 . S
C316 H340 0.950 . S
C317 C334 1.574 . S
C317 C336 1.368 . S
C317 H341 0.949 . S
H318 C322 0.949 . S
C319 C320 1.349 . S
C319 C321 1.327 . S
C319 H342 0.950 . S
C320 C319 1.349 . S
C320 C332 1.349 . S
C321 C319 1.327 . S
C321 C337 1.429 . S
C321 H343 0.950 . S
C322 H318 0.949 . S
C322 C330 1.574 . S
C322 C338 1.368 . S
H323 C331 0.950 . S
H324 C329 0.950 . S
H325 C330 0.949 . S
H326 C332 0.950 . S
H327 C333 0.950 . S
H328 C334 0.949 . S
C329 H324 0.950 . S
C329 C331 1.327 . S
C329 C335 1.429 . S
C330 C322 1.574 . S
C330 H325 0.949 . S
C330 C336 1.368 . S
C331 C315 1.349 . S
C331 H323 0.950 . S
C331 C329 1.327 . S
C332 C320 1.349 . S
C332 H326 0.950 . S
C332 C333 1.327 . S
C333 H327 0.950 . S
C333 C332 1.327 . S
C333 C337 1.429 . S
C334 C317 1.574 . S
C334 H328 0.949 . S
C334 C338 1.368 . S
C335 C316 1.429 . S
C335 C329 1.429 . S
C335 C336 1.523 . S
C336 C317 1.368 . S
C336 C330 1.368 . S
C336 C335 1.523 . S
C337 C321 1.429 . S
C337 C333 1.429 . S
C337 C338 1.523 . S
C338 C322 1.368 . S
C338 C334 1.368 . S
C338 C337 1.523 . S
H339 C314 0.950 . S
H340 C316 0.950 . S
H341 C317 0.949 . S
H342 C319 0.950 . S
H343 C321 0.950 . S
C344 C345 1.349 . S
C344 C346 1.327 . S
C344 H369 0.950 . S
C345 C344 1.349 . S
C345 C361 1.349 . S
C346 C344 1.327 . S
C346 C365 1.429 . S
C346 H370 0.950 . S
C347 C364 1.574 . S
C347 C366 1.368 . S
C347 H371 0.949 . S
H348 C352 0.949 . S
C349 C350 1.349 . S
C349 C351 1.327 . S
C349 H372 0.950 . S
C350 C349 1.349 . S
C350 C362 1.349 . S
C351 C349 1.327 . S
C351 C367 1.429 . S
C351 H373 0.950 . S
C352 H348 0.949 . S
C352 C360 1.574 . S
C352 C368 1.368 . S
H353 C361 0.950 . S
H354 C359 0.950 . S
H355 C360 0.949 . S
H356 C362 0.950 . S
H357 C363 0.950 . S
H358 C364 0.949 . S
C359 H354 0.950 . S
C359 C361 1.327 . S
C359 C365 1.429 . S
C360 C352 1.574 . S
C360 H355 0.949 . S
C360 C366 1.368 . S
C361 C345 1.349 . S
C361 H353 0.950 . S
C361 C359 1.327 . S
C362 C350 1.349 . S
C362 H356 0.950 . S
C362 C363 1.327 . S
C363 H357 0.950 . S
C363 C362 1.327 . S
C363 C367 1.429 . S
C364 C347 1.574 . S
C364 H358 0.949 . S
C364 C368 1.368 . S
C365 C346 1.429 . S
C365 C359 1.429 . S
C365 C366 1.523 . S
C366 C347 1.368 . S
C366 C360 1.368 . S
C366 C365 1.523 . S
C367 C351 1.429 . S
C367 C363 1.429 . S
C367 C368 1.523 . S
C368 C352 1.368 . S
C368 C364 1.368 . S
C368 C367 1.523 . S
H369 C344 0.950 . S
H370 C346 0.950 . S
H371 C347 0.949 . S
H372 C349 0.950 . S
H373 C351 0.950 . S
C374 C375 1.349 . S
C374 C376 1.327 . S
C374 H399 0.950 . S
C375 C374 1.349 . S
C375 C391 1.349 . S
C376 C374 1.327 . S
C376 C395 1.429 . S
C376 H400 0.950 . S
C377 C394 1.574 . S
C377 C396 1.368 . S
C377 H401 0.949 . S
H378 C382 0.949 . S
C379 C380 1.349 . S
C379 C381 1.327 . S
C379 H402 0.950 . S
C380 C379 1.349 . S
C380 C392 1.349 . S
C381 C379 1.327 . S
C381 C397 1.429 . S
C381 H403 0.950 . S
C382 H378 0.949 . S
C382 C390 1.574 . S
C382 C398 1.368 . S
H383 C391 0.950 . S
H384 C389 0.950 . S
H385 C390 0.949 . S
H386 C392 0.950 . S
H387 C393 0.950 . S
H388 C394 0.949 . S
C389 H384 0.950 . S
C389 C391 1.327 . S
C389 C395 1.429 . S
C390 C382 1.574 . S
C390 H385 0.949 . S
C390 C396 1.368 . S
C391 C375 1.349 . S
C391 H383 0.950 . S
C391 C389 1.327 . S
C392 C380 1.349 . S
C392 H386 0.950 . S
C392 C393 1.327 . S
C393 H387 0.950 . S
C393 C392 1.327 . S
C393 C397 1.429 . S
C394 C377 1.574 . S
C394 H388 0.949 . S
C394 C398 1.368 . S
C395 C376 1.429 . S
C395 C389 1.429 . S
C395 C396 1.523 . S
C396 C377 1.368 . S
C396 C390 1.368 . S
C396 C395 1.523 . S
C397 C381 1.429 . S
C397 C393 1.429 . S
C397 C398 1.523 . S
C398 C382 1.368 . S
C398 C394 1.368 . S
C398 C397 1.523 . S
H399 C374 0.950 . S
H400 C376 0.950 . S
H401 C377 0.949 . S
H402 C379 0.950 . S
H403 C381 0.950 . S
C404 C405 1.349 . S
C404 C406 1.327 . S
C404 H429 0.950 . S
C405 C404 1.349 . S
C405 C421 1.349 . S
C406 C404 1.327 . S
C406 C425 1.429 . S
C406 H430 0.950 . S
C407 C424 1.574 . S
C407 C426 1.368 . S
C407 H431 0.949 . S
H408 C412 0.949 . S
C409 C410 1.349 . S
C409 C411 1.327 . S
C409 H432 0.950 . S
C410 C409 1.349 . S
C410 C422 1.349 . S
C411 C409 1.327 . S
C411 C427 1.429 . S
C411 H433 0.950 . S
C412 H408 0.949 . S
C412 C420 1.574 . S
C412 C428 1.368 . S
H413 C421 0.950 . S
H414 C419 0.950 . S
H415 C420 0.949 . S
H416 C422 0.950 . S
H417 C423 0.950 . S
H418 C424 0.949 . S
C419 H414 0.950 . S
C419 C421 1.327 . S
C419 C425 1.429 . S
C420 C412 1.574 . S
C420 H415 0.949 . S
C420 C426 1.368 . S
C421 C405 1.349 . S
C421 H413 0.950 . S
C421 C419 1.327 . S
C422 C410 1.349 . S
C422 H416 0.950 . S
C422 C423 1.327 . S
C423 H417 0.950 . S
C423 C422 1.327 . S
C423 C427 1.429 . S
C424 C407 1.574 . S
C424 H418 0.949 . S
C424 C428 1.368 . S
C425 C406 1.429 . S
C425 C419 1.429 . S
C425 C426 1.523 . S
C426 C407 1.368 . S
C426 C420 1.368 . S
C426 C425 1.523 . S
C427 C411 1.429 . S
C427 C423 1.429 . S
C427 C428 1.523 . S
C428 C412 1.368 . S
C428 C424 1.368 . S
C428 C427 1.523 . S
H429 C404 0.950 . S
H430 C406 0.950 . S
H431 C407 0.949 . S
H432 C409 0.950 . S
H433 C411 0.950 . S
C434 C435 1.349 . S
C434 C436 1.327 . S
C434 H459 0.950 . S
C435 C434 1.349 . S
C435 C451 1.349 . S
C436 C434 1.327 . S
C436 C455 1.429 . S
C436 H460 0.950 . S
C437 C454 1.574 . S
C437 C456 1.368 . S
C437 H461 0.949 . S
H438 C442 0.949 . S
C439 C440 1.349 . S
C439 C441 1.327 . S
C439 H462 0.950 . S
C440 C439 1.349 . S
C440 C452 1.349 . S
C441 C439 1.327 . S
C441 C457 1.429 . S
C441 H463 0.950 . S
C442 H438 0.949 . S
C442 C450 1.574 . S
C442 C458 1.368 . S
H443 C451 0.950 . S
H444 C449 0.950 . S
H445 C450 0.949 . S
H446 C452 0.950 . S
H447 C453 0.950 . S
H448 C454 0.949 . S
C449 H444 0.950 . S
C449 C451 1.327 . S
C449 C455 1.429 . S
C450 C442 1.574 . S
C450 H445 0.949 . S
C450 C456 1.368 . S
C451 C435 1.349 . S
C451 H443 0.950 . S
C451 C449 1.327 . S
C452 C440 1.349 . S
C452 H446 0.950 . S
C452 C453 1.327 . S
C453 H447 0.950 . S
C453 C452 1.327 . S
C453 C457 1.429 . S
C454 C437 1.574 . S
C454 H448 0.949 . S
C454 C458 1.368 . S
C455 C436 1.429 . S
C455 C449 1.429 . S
C455 C456 1.523 . S
C456 C437 1.368 . S
C456 C450 1.368 . S
C456 C455 1.523 . S
C457 C441 1.429 . S
C457 C453 1.429 . S
C457 C458 1.523 . S
C458 C442 1.368 . S
C458 C454 1.368 . S
C458 C457 1.523 . S
H459 C434 0.950 . S
H460 C436 0.950 . S
H461 C437 0.949 . S
H462 C439 0.950 . S
H463 C441 0.950 . S
C464 C465 1.349 . S
C464 C466 1.327 . S
C464 H489 0.950 . S
C465 C464 1.349 . S
C465 C481 1.349 . S
C466 C464 1.327 . S
C466 C485 1.429 . S
C466 H490 0.950 . S
C467 C484 1.574 . S
C467 C486 1.368 . S
C467 H491 0.949 . S
H468 C472 0.949 . S
C469 C470 1.349 . S
C469 C471 1.327 . S
C469 H492 0.950 . S
C470 C469 1.349 . S
C470 C482 1.349 . S
C471 C469 1.327 . S
C471 C487 1.429 . S
C471 H493 0.950 . S
C472 H468 0.949 . S
C472 C480 1.574 . S
C472 C488 1.368 . S
H473 C481 0.950 . S
H474 C479 0.950 . S
H475 C480 0.949 . S
H476 C482 0.950 . S
H477 C483 0.950 . S
H478 C484 0.949 . S
C479 H474 0.950 . S
C479 C481 1.327 . S
C479 C485 1.429 . S
C480 C472 1.574 . S
C480 H475 0.949 . S
C480 C486 1.368 . S
C481 C465 1.349 . S
C481 H473 0.950 . S
C481 C479 1.327 . S
C482 C470 1.349 . S
C482 H476 0.950 . S
C482 C483 1.327 . S
C483 H477 0.950 . S
C483 C482 1.327 . S
C483 C487 1.429 . S
C484 C467 1.574 . S
C484 H478 0.949 . S
C484 C488 1.368 . S
C485 C466 1.429 . S
C485 C479 1.429 . S
C485 C486 1.523 . S
C486 C467 1.368 . S
C486 C480 1.368 . S
C486 C485 1.523 . S
C487 C471 1.429 . S
C487 C483 1.429 . S
C487 C488 1.523 . S
C488 C472 1.368 . S
C488 C484 1.368 . S
C488 C487 1.523 . S
H489 C464 0.950 . S
H490 C466 0.950 . S
H491 C467 0.949 . S
H492 C469 0.950 . S
H493 C471 0.950 . S
C494 C495 1.349 . S
C494 C496 1.327 . S
C494 H519 0.950 . S
C495 C494 1.349 . S
C495 C511 1.349 . S
C496 C494 1.327 . S
C496 C515 1.429 . S
C496 H520 0.950 . S
C497 C514 1.574 . S
C497 C516 1.368 . S
C497 H521 0.949 . S
H498 C502 0.949 . S
C499 C500 1.349 . S
C499 C501 1.327 . S
C499 H522 0.950 . S
C500 C499 1.349 . S
C500 C512 1.349 . S
C501 C499 1.327 . S
C501 C517 1.429 . S
C501 H523 0.950 . S
C502 H498 0.949 . S
C502 C510 1.574 . S
C502 C518 1.368 . S
H503 C511 0.950 . S
H504 C509 0.950 . S
H505 C510 0.949 . S
H506 C512 0.950 . S
H507 C513 0.950 . S
H508 C514 0.949 . S
C509 H504 0.950 . S
C509 C511 1.327 . S
C509 C515 1.429 . S
C510 C502 1.574 . S
C510 H505 0.949 . S
C510 C516 1.368 . S
C511 C495 1.349 . S
C511 H503 0.950 . S
C511 C509 1.327 . S
C512 C500 1.349 . S
C512 H506 0.950 . S
C512 C513 1.327 . S
C513 H507 0.950 . S
C513 C512 1.327 . S
C513 C517 1.429 . S
C514 C497 1.574 . S
C514 H508 0.949 . S
C514 C518 1.368 . S
C515 C496 1.429 . S
C515 C509 1.429 . S
C515 C516 1.523 . S
C516 C497 1.368 . S
C516 C510 1.368 . S
C516 C515 1.523 . S
C517 C501 1.429 . S
C517 C513 1.429 . S
C517 C518 1.523 . S
C518 C502 1.368 . S
C518 C514 1.368 . S
C518 C517 1.523 . S
H519 C494 0.950 . S
H520 C496 0.950 . S
H521 C497 0.949 . S
H522 C499 0.950 . S
H523 C501 0.950 . S
C524 C525 1.349 . S
C524 C526 1.327 . S
C524 H549 0.950 . S
C525 C524 1.349 . S
C525 C541 1.349 . S
C526 C524 1.327 . S
C526 C545 1.429 . S
C526 H550 0.950 . S
C527 C544 1.574 . S
C527 C546 1.368 . S
C527 H551 0.949 . S
H528 C532 0.949 . S
C529 C530 1.349 . S
C529 C531 1.327 . S
C529 H552 0.950 . S
C530 C529 1.349 . S
C530 C542 1.349 . S
C531 C529 1.327 . S
C531 C547 1.429 . S
C531 H553 0.950 . S
C532 H528 0.949 . S
C532 C540 1.574 . S
C532 C548 1.368 . S
H533 C541 0.950 . S
H534 C539 0.950 . S
H535 C540 0.949 . S
H536 C542 0.950 . S
H537 C543 0.950 . S
H538 C544 0.949 . S
C539 H534 0.950 . S
C539 C541 1.327 . S
C539 C545 1.429 . S
C540 C532 1.574 . S
C540 H535 0.949 . S
C540 C546 1.368 . S
C541 C525 1.349 . S
C541 H533 0.950 . S
C541 C539 1.327 . S
C542 C530 1.349 . S
C542 H536 0.950 . S
C542 C543 1.327 . S
C543 H537 0.950 . S
C543 C542 1.327 . S
C543 C547 1.429 . S
C544 C527 1.574 . S
C544 H538 0.949 . S
C544 C548 1.368 . S
C545 C526 1.429 . S
C545 C539 1.429 . S
C545 C546 1.523 . S
C546 C527 1.368 . S
C546 C540 1.368 . S
C546 C545 1.523 . S
C547 C531 1.429 . S
C547 C543 1.429 . S
C547 C548 1.523 . S
C548 C532 1.368 . S
C548 C544 1.368 . S
C548 C547 1.523 . S
H549 C524 0.950 . S
H550 C526 0.950 . S
H551 C527 0.949 . S
H552 C529 0.950 . S
H553 C531 0.950 . S
C554 C555 1.349 . S
C554 C556 1.327 . S
C554 H579 0.950 . S
C555 C554 1.349 . S
C555 C571 1.349 . S
C556 C554 1.327 . S
C556 C575 1.429 . S
C556 H580 0.950 . S
C557 C574 1.574 1_554 S
C557 C576 1.368 . S
C557 H581 0.949 . S
H558 C562 0.949 . S
C559 C560 1.349 . S
C559 C561 1.327 . S
C559 H582 0.950 . S
C560 C559 1.349 . S
C560 C572 1.349 . S
C561 C559 1.327 . S
C561 C577 1.429 . S
C561 H583 0.950 . S
C562 H558 0.949 . S
C562 C570 1.574 1_556 S
C562 C578 1.368 . S
H563 C571 0.950 . S
H564 C569 0.950 . S
H565 C570 0.949 . S
H566 C572 0.950 . S
H567 C573 0.950 . S
H568 C574 0.949 . S
C569 H564 0.950 . S
C569 C571 1.327 . S
C569 C575 1.429 . S
C570 C562 1.574 1_554 S
C570 H565 0.949 . S
C570 C576 1.368 . S
C571 C555 1.349 . S
C571 H563 0.950 . S
C571 C569 1.327 . S
C572 C560 1.349 . S
C572 H566 0.950 . S
C572 C573 1.327 . S
C573 H567 0.950 . S
C573 C572 1.327 . S
C573 C577 1.429 . S
C574 C557 1.574 1_556 S
C574 H568 0.949 . S
C574 C578 1.368 . S
C575 C556 1.429 . S
C575 C569 1.429 . S
C575 C576 1.523 . S
C576 C557 1.368 . S
C576 C570 1.368 . S
C576 C575 1.523 . S
C577 C561 1.429 . S
C577 C573 1.429 . S
C577 C578 1.523 . S
C578 C562 1.368 . S
C578 C574 1.368 . S
C578 C577 1.523 . S
H579 C554 0.950 . S
H580 C556 0.950 . S
H581 C557 0.949 . S
H582 C559 0.950 . S
H583 C561 0.950 . S
C584 C585 1.349 . S
C584 C586 1.327 . S
C584 H609 0.950 . S
C585 C584 1.349 . S
C585 C601 1.349 . S
C586 C584 1.327 . S
C586 C605 1.429 . S
C586 H610 0.950 . S
C587 C604 1.574 1_554 S
C587 C606 1.368 . S
C587 H611 0.949 . S
H588 C592 0.949 . S
C589 C590 1.349 . S
C589 C591 1.327 . S
C589 H612 0.950 . S
C590 C589 1.349 . S
C590 C602 1.349 . S
C591 C589 1.327 . S
C591 C607 1.429 . S
C591 H613 0.950 . S
C592 H588 0.949 . S
C592 C600 1.574 1_556 S
C592 C608 1.368 . S
H593 C601 0.950 . S
H594 C599 0.950 . S
H595 C600 0.949 . S
H596 C602 0.950 . S
H597 C603 0.950 . S
H598 C604 0.949 . S
C599 H594 0.950 . S
C599 C601 1.327 . S
C599 C605 1.429 . S
C600 C592 1.574 1_554 S
C600 H595 0.949 . S
C600 C606 1.368 . S
C601 C585 1.349 . S
C601 H593 0.950 . S
C601 C599 1.327 . S
C602 C590 1.349 . S
C602 H596 0.950 . S
C602 C603 1.327 . S
C603 H597 0.950 . S
C603 C602 1.327 . S
C603 C607 1.429 . S
C604 C587 1.574 1_556 S
C604 H598 0.949 . S
C604 C608 1.368 . S
C605 C586 1.429 . S
C605 C599 1.429 . S
C605 C606 1.523 . S
C606 C587 1.368 . S
C606 C600 1.368 . S
C606 C605 1.523 . S
C607 C591 1.429 . S
C607 C603 1.429 . S
C607 C608 1.523 . S
C608 C592 1.368 . S
C608 C604 1.368 . S
C608 C607 1.523 . S
H609 C584 0.950 . S
H610 C586 0.950 . S
H611 C587 0.949 . S
H612 C589 0.950 . S
H613 C591 0.950 . S
C614 C615 1.349 . S
C614 C616 1.327 . S
C614 H639 0.950 . S
C615 C614 1.349 . S
C615 C631 1.349 . S
C616 C614 1.327 . S
C616 C635 1.429 . S
C616 H640 0.950 . S
C617 C634 1.574 . S
C617 C636 1.368 . S
C617 H641 0.949 . S
H618 C622 0.949 . S
C619 C620 1.349 . S
C619 C621 1.327 . S
C619 H642 0.950 . S
C620 C619 1.349 . S
C620 C632 1.349 . S
C621 C619 1.327 . S
C621 C637 1.429 . S
C621 H643 0.950 . S
C622 H618 0.949 . S
C622 C630 1.574 . S
C622 C638 1.368 . S
H623 C631 0.950 . S
H624 C629 0.950 . S
H625 C630 0.949 . S
H626 C632 0.950 . S
H627 C633 0.950 . S
H628 C634 0.949 . S
C629 H624 0.950 . S
C629 C631 1.327 . S
C629 C635 1.429 . S
C630 C622 1.574 . S
C630 H625 0.949 . S
C630 C636 1.368 . S
C631 C615 1.349 . S
C631 H623 0.950 . S
C631 C629 1.327 . S
C632 C620 1.349 . S
C632 H626 0.950 . S
C632 C633 1.327 . S
C633 H627 0.950 . S
C633 C632 1.327 . S
C633 C637 1.429 . S
C634 C617 1.574 . S
C634 H628 0.949 . S
C634 C638 1.368 . S
C635 C616 1.429 . S
C635 C629 1.429 . S
C635 C636 1.523 . S
C636 C617 1.368 . S
C636 C630 1.368 . S
C636 C635 1.523 . S
C637 C621 1.429 . S
C637 C633 1.429 . S
C637 C638 1.523 . S
C638 C622 1.368 . S
C638 C634 1.368 . S
C638 C637 1.523 . S
H639 C614 0.950 . S
H640 C616 0.950 . S
H641 C617 0.949 . S
H642 C619 0.950 . S
H643 C621 0.950 . S
C644 C645 1.349 . S
C644 C646 1.327 . S
C644 H669 0.950 . S
C645 C644 1.349 . S
C645 C661 1.349 . S
C646 C644 1.327 . S
C646 C665 1.429 . S
C646 H670 0.950 . S
C647 C664 1.574 . S
C647 C666 1.368 . S
C647 H671 0.949 . S
H648 C652 0.949 . S
C649 C650 1.349 . S
C649 C651 1.327 . S
C649 H672 0.950 . S
C650 C649 1.349 . S
C650 C662 1.349 . S
C651 C649 1.327 . S
C651 C667 1.429 . S
C651 H673 0.950 . S
C652 H648 0.949 . S
C652 C660 1.574 . S
C652 C668 1.368 . S
H653 C661 0.950 . S
H654 C659 0.950 . S
H655 C660 0.949 . S
H656 C662 0.950 . S
H657 C663 0.950 . S
H658 C664 0.949 . S
C659 H654 0.950 . S
C659 C661 1.327 . S
C659 C665 1.429 . S
C660 C652 1.574 . S
C660 H655 0.949 . S
C660 C666 1.368 . S
C661 C645 1.349 . S
C661 H653 0.950 . S
C661 C659 1.327 . S
C662 C650 1.349 . S
C662 H656 0.950 . S
C662 C663 1.327 . S
C663 H657 0.950 . S
C663 C662 1.327 . S
C663 C667 1.429 . S
C664 C647 1.574 . S
C664 H658 0.949 . S
C664 C668 1.368 . S
C665 C646 1.429 . S
C665 C659 1.429 . S
C665 C666 1.523 . S
C666 C647 1.368 . S
C666 C660 1.368 . S
C666 C665 1.523 . S
C667 C651 1.429 . S
C667 C663 1.429 . S
C667 C668 1.523 . S
C668 C652 1.368 . S
C668 C664 1.368 . S
C668 C667 1.523 . S
H669 C644 0.950 . S
H670 C646 0.950 . S
H671 C647 0.949 . S
H672 C649 0.950 . S
H673 C651 0.950 . S
C674 C675 1.349 . S
C674 C676 1.327 . S
C674 H699 0.950 . S
C675 C674 1.349 . S
C675 C691 1.349 . S
C676 C674 1.327 . S
C676 C695 1.429 . S
C676 H700 0.950 . S
C677 C694 1.574 . S
C677 C696 1.368 . S
C677 H701 0.949 . S
H678 C682 0.949 . S
C679 C680 1.349 . S
C679 C681 1.327 . S
C679 H702 0.950 . S
C680 C679 1.349 . S
C680 C692 1.349 . S
C681 C679 1.327 . S
C681 C697 1.429 . S
C681 H703 0.950 . S
C682 H678 0.949 . S
C682 C690 1.574 . S
C682 C698 1.368 . S
H683 C691 0.950 . S
H684 C689 0.950 . S
H685 C690 0.949 . S
H686 C692 0.950 . S
H687 C693 0.950 . S
H688 C694 0.949 . S
C689 H684 0.950 . S
C689 C691 1.327 . S
C689 C695 1.429 . S
C690 C682 1.574 . S
C690 H685 0.949 . S
C690 C696 1.368 . S
C691 C675 1.349 . S
C691 H683 0.950 . S
C691 C689 1.327 . S
C692 C680 1.349 . S
C692 H686 0.950 . S
C692 C693 1.327 . S
C693 H687 0.950 . S
C693 C692 1.327 . S
C693 C697 1.429 . S
C694 C677 1.574 . S
C694 H688 0.949 . S
C694 C698 1.368 . S
C695 C676 1.429 . S
C695 C689 1.429 . S
C695 C696 1.523 . S
C696 C677 1.368 . S
C696 C690 1.368 . S
C696 C695 1.523 . S
C697 C681 1.429 . S
C697 C693 1.429 . S
C697 C698 1.523 . S
C698 C682 1.368 . S
C698 C694 1.368 . S
C698 C697 1.523 . S
H699 C674 0.950 . S
H700 C676 0.950 . S
H701 C677 0.949 . S
H702 C679 0.950 . S
H703 C681 0.950 . S
C704 C705 1.349 . S
C704 C706 1.327 . S
C704 H729 0.950 . S
C705 C704 1.349 . S
C705 C721 1.349 . S
C706 C704 1.327 . S
C706 C725 1.429 . S
C706 H730 0.950 . S
C707 C724 1.574 1_455 S
C707 C726 1.368 . S
C707 H731 0.949 . S
H708 C712 0.949 . S
C709 C710 1.349 . S
C709 C711 1.327 . S
C709 H732 0.950 . S
C710 C709 1.349 . S
C710 C722 1.349 . S
C711 C709 1.327 . S
C711 C727 1.429 . S
C711 H733 0.950 . S
C712 H708 0.949 . S
C712 C720 1.574 1_655 S
C712 C728 1.368 . S
H713 C721 0.950 . S
H714 C719 0.950 . S
H715 C720 0.949 . S
H716 C722 0.950 . S
H717 C723 0.950 . S
H718 C724 0.949 . S
C719 H714 0.950 . S
C719 C721 1.327 . S
C719 C725 1.429 . S
C720 C712 1.574 1_455 S
C720 H715 0.949 . S
C720 C726 1.368 1_565 S
C721 C705 1.349 . S
C721 H713 0.950 . S
C721 C719 1.327 . S
C722 C710 1.349 . S
C722 H716 0.950 . S
C722 C723 1.327 . S
C723 H717 0.950 . S
C723 C722 1.327 . S
C723 C727 1.429 . S
C724 C707 1.574 1_655 S
C724 H718 0.949 . S
C724 C728 1.368 1_545 S
C725 C706 1.429 . S
C725 C719 1.429 . S
C725 C726 1.523 . S
C726 C707 1.368 . S
C726 C720 1.368 1_545 S
C726 C725 1.523 . S
C727 C711 1.429 . S
C727 C723 1.429 . S
C727 C728 1.523 . S
C728 C712 1.368 . S
C728 C724 1.368 1_565 S
C728 C727 1.523 . S
H729 C704 0.950 . S
H730 C706 0.950 . S
H731 C707 0.949 . S
H732 C709 0.950 . S
H733 C711 0.950 . S
C734 C735 1.349 . S
C734 C736 1.327 . S
C734 H759 0.950 . S
C735 C734 1.349 . S
C735 C751 1.349 . S
C736 C734 1.327 . S
C736 C755 1.429 . S
C736 H760 0.950 . S
C737 C754 1.574 . S
C737 C756 1.368 . S
C737 H761 0.949 . S
H738 C742 0.949 . S
C739 C740 1.349 . S
C739 C741 1.327 . S
C739 H762 0.950 . S
C740 C739 1.349 . S
C740 C752 1.349 . S
C741 C739 1.327 . S
C741 C757 1.429 . S
C741 H763 0.950 . S
C742 H738 0.949 . S
C742 C750 1.574 . S
C742 C758 1.368 . S
H743 C751 0.950 . S
H744 C749 0.950 . S
H745 C750 0.949 . S
H746 C752 0.950 . S
H747 C753 0.950 . S
H748 C754 0.949 . S
C749 H744 0.950 . S
C749 C751 1.327 . S
C749 C755 1.429 . S
C750 C742 1.574 . S
C750 H745 0.949 . S
C750 C756 1.368 1_655 S
C751 C735 1.349 . S
C751 H743 0.950 . S
C751 C749 1.327 . S
C752 C740 1.349 . S
C752 H746 0.950 . S
C752 C753 1.327 . S
C753 H747 0.950 . S
C753 C752 1.327 . S
C753 C757 1.429 . S
C754 C737 1.574 . S
C754 H748 0.949 . S
C754 C758 1.368 1_455 S
C755 C736 1.429 . S
C755 C749 1.429 . S
C755 C756 1.523 . S
C756 C737 1.368 . S
C756 C750 1.368 1_455 S
C756 C755 1.523 . S
C757 C741 1.429 . S
C757 C753 1.429 . S
C757 C758 1.523 . S
C758 C742 1.368 . S
C758 C754 1.368 1_655 S
C758 C757 1.523 . S
H759 C734 0.950 . S
H760 C736 0.950 . S
H761 C737 0.949 . S
H762 C739 0.950 . S
H763 C741 0.950 . S
C764 C765 1.349 . S
C764 C766 1.327 . S
C764 H789 0.950 . S
C765 C764 1.349 . S
C765 C781 1.349 . S
C766 C764 1.327 . S
C766 C785 1.429 . S
C766 H790 0.950 . S
C767 C784 1.574 . S
C767 C786 1.368 . S
C767 H791 0.949 . S
H768 C772 0.949 . S
C769 C770 1.349 . S
C769 C771 1.327 . S
C769 H792 0.950 . S
C770 C769 1.349 . S
C770 C782 1.349 . S
C771 C769 1.327 . S
C771 C787 1.429 . S
C771 H793 0.950 . S
C772 H768 0.949 . S
C772 C780 1.574 . S
C772 C788 1.368 . S
H773 C781 0.950 . S
H774 C779 0.950 . S
H775 C780 0.949 . S
H776 C782 0.950 . S
H777 C783 0.950 . S
H778 C784 0.949 . S
C779 H774 0.950 . S
C779 C781 1.327 . S
C779 C785 1.429 . S
C780 C772 1.574 . S
C780 H775 0.949 . S
C780 C786 1.368 . S
C781 C765 1.349 . S
C781 H773 0.950 . S
C781 C779 1.327 . S
C782 C770 1.349 . S
C782 H776 0.950 . S
C782 C783 1.327 . S
C783 H777 0.950 . S
C783 C782 1.327 . S
C783 C787 1.429 . S
C784 C767 1.574 . S
C784 H778 0.949 . S
C784 C788 1.368 . S
C785 C766 1.429 . S
C785 C779 1.429 . S
C785 C786 1.523 . S
C786 C767 1.368 . S
C786 C780 1.368 . S
C786 C785 1.523 . S
C787 C771 1.429 . S
C787 C783 1.429 . S
C787 C788 1.523 . S
C788 C772 1.368 . S
C788 C784 1.368 . S
C788 C787 1.523 . S
H789 C764 0.950 . S
H790 C766 0.950 . S
H791 C767 0.949 . S
H792 C769 0.950 . S
H793 C771 0.950 . S
C794 C795 1.349 . S
C794 C796 1.327 . S
C794 H819 0.950 . S
C795 C794 1.349 . S
C795 C811 1.349 . S
C796 C794 1.327 . S
C796 C815 1.429 . S
C796 H820 0.950 . S
C797 C814 1.574 1_545 S
C797 C816 1.368 . S
C797 H821 0.949 . S
H798 C802 0.949 . S
C799 C800 1.349 . S
C799 C801 1.327 . S
C799 H822 0.950 . S
C800 C799 1.349 . S
C800 C812 1.349 . S
C801 C799 1.327 . S
C801 C817 1.429 . S
C801 H823 0.950 . S
C802 H798 0.949 . S
C802 C810 1.574 1_565 S
C802 C818 1.368 . S
H803 C811 0.950 . S
H804 C809 0.950 . S
H805 C810 0.949 . S
H806 C812 0.950 . S
H807 C813 0.950 . S
H808 C814 0.949 . S
C809 H804 0.950 . S
C809 C811 1.327 . S
C809 C815 1.429 . S
C810 C802 1.574 1_545 S
C810 H805 0.949 . S
C810 C816 1.368 . S
C811 C795 1.349 . S
C811 H803 0.950 . S
C811 C809 1.327 . S
C812 C800 1.349 . S
C812 H806 0.950 . S
C812 C813 1.327 . S
C813 H807 0.950 . S
C813 C812 1.327 . S
C813 C817 1.429 . S
C814 C797 1.574 1_565 S
C814 H808 0.949 . S
C814 C818 1.368 . S
C815 C796 1.429 . S
C815 C809 1.429 . S
C815 C816 1.523 . S
C816 C797 1.368 . S
C816 C810 1.368 . S
C816 C815 1.523 . S
C817 C801 1.429 . S
C817 C813 1.429 . S
C817 C818 1.523 . S
C818 C802 1.368 . S
C818 C814 1.368 . S
C818 C817 1.523 . S
H819 C794 0.950 . S
H820 C796 0.950 . S
H821 C797 0.949 . S
H822 C799 0.950 . S
H823 C801 0.950 . S
C824 C825 1.349 . S
C824 C826 1.327 . S
C824 H849 0.950 . S
C825 C824 1.349 . S
C825 C841 1.349 . S
C826 C824 1.327 . S
C826 C845 1.429 . S
C826 H850 0.950 . S
C827 C844 1.574 1_455 S
C827 C846 1.368 . S
C827 H851 0.949 . S
H828 C832 0.949 . S
C829 C830 1.349 . S
C829 C831 1.327 . S
C829 H852 0.950 . S
C830 C829 1.349 . S
C830 C842 1.349 . S
C831 C829 1.327 . S
C831 C847 1.429 . S
C831 H853 0.950 . S
C832 H828 0.949 . S
C832 C840 1.574 1_655 S
C832 C848 1.368 . S
H833 C841 0.950 . S
H834 C839 0.950 . S
H835 C840 0.949 . S
H836 C842 0.950 . S
H837 C843 0.950 . S
H838 C844 0.949 . S
C839 H834 0.950 . S
C839 C841 1.327 . S
C839 C845 1.429 . S
C840 C832 1.574 1_455 S
C840 H835 0.949 . S
C840 C846 1.368 . S
C841 C825 1.349 . S
C841 H833 0.950 . S
C841 C839 1.327 . S
C842 C830 1.349 . S
C842 H836 0.950 . S
C842 C843 1.327 . S
C843 H837 0.950 . S
C843 C842 1.327 . S
C843 C847 1.429 . S
C844 C827 1.574 1_655 S
C844 H838 0.949 . S
C844 C848 1.368 . S
C845 C826 1.429 . S
C845 C839 1.429 . S
C845 C846 1.523 . S
C846 C827 1.368 . S
C846 C840 1.368 . S
C846 C845 1.523 . S
C847 C831 1.429 . S
C847 C843 1.429 . S
C847 C848 1.523 . S
C848 C832 1.368 . S
C848 C844 1.368 . S
C848 C847 1.523 . S
H849 C824 0.950 . S
H850 C826 0.950 . S
H851 C827 0.949 . S
H852 C829 0.950 . S
H853 C831 0.950 . S
C854 C855 1.349 . S
C854 C856 1.327 . S
C854 H879 0.950 . S
C855 C854 1.349 . S
C855 C871 1.349 . S
C856 C854 1.327 . S
C856 C875 1.429 . S
C856 H880 0.950 . S
C857 C874 1.574 . S
C857 C876 1.368 . S
C857 H881 0.949 . S
H858 C862 0.949 . S
C859 C860 1.349 . S
C859 C861 1.327 . S
C859 H882 0.950 . S
C860 C859 1.349 . S
C860 C872 1.349 . S
C861 C859 1.327 . S
C861 C877 1.429 . S
C861 H883 0.950 . S
C862 H858 0.949 . S
C862 C870 1.574 . S
C862 C878 1.368 . S
H863 C871 0.950 . S
H864 C869 0.950 . S
H865 C870 0.949 . S
H866 C872 0.950 . S
H867 C873 0.950 . S
H868 C874 0.949 . S
C869 H864 0.950 . S
C869 C871 1.327 . S
C869 C875 1.429 . S
C870 C862 1.574 . S
C870 H865 0.949 . S
C870 C876 1.368 . S
C871 C855 1.349 . S
C871 H863 0.950 . S
C871 C869 1.327 . S
C872 C860 1.349 . S
C872 H866 0.950 . S
C872 C873 1.327 . S
C873 H867 0.950 . S
C873 C872 1.327 . S
C873 C877 1.429 . S
C874 C857 1.574 . S
C874 H868 0.949 . S
C874 C878 1.368 . S
C875 C856 1.429 . S
C875 C869 1.429 . S
C875 C876 1.523 . S
C876 C857 1.368 . S
C876 C870 1.368 . S
C876 C875 1.523 . S
C877 C861 1.429 . S
C877 C873 1.429 . S
C877 C878 1.523 . S
C878 C862 1.368 . S
C878 C874 1.368 . S
C878 C877 1.523 . S
H879 C854 0.950 . S
H880 C856 0.950 . S
H881 C857 0.949 . S
H882 C859 0.950 . S
H883 C861 0.950 . S
C884 C885 1.349 . S
C884 C886 1.327 . S
C884 H909 0.950 . S
C885 C884 1.349 . S
C885 C901 1.349 . S
C886 C884 1.327 . S
C886 C905 1.429 . S
C886 H910 0.950 . S
C887 C904 1.574 . S
C887 C906 1.368 1_545 S
C887 H911 0.949 . S
H888 C892 0.949 . S
C889 C890 1.349 . S
C889 C891 1.327 . S
C889 H912 0.950 . S
C890 C889 1.349 . S
C890 C902 1.349 . S
C891 C889 1.327 . S
C891 C907 1.429 . S
C891 H913 0.950 . S
C892 H888 0.949 . S
C892 C900 1.574 . S
C892 C908 1.368 1_565 S
H893 C901 0.950 . S
H894 C899 0.950 . S
H895 C900 0.949 . S
H896 C902 0.950 . S
H897 C903 0.950 . S
H898 C904 0.949 . S
C899 H894 0.950 . S
C899 C901 1.327 . S
C899 C905 1.429 . S
C900 C892 1.574 . S
C900 H895 0.949 . S
C900 C906 1.368 . S
C901 C885 1.349 . S
C901 H893 0.950 . S
C901 C899 1.327 . S
C902 C890 1.349 . S
C902 H896 0.950 . S
C902 C903 1.327 . S
C903 H897 0.950 . S
C903 C902 1.327 . S
C903 C907 1.429 . S
C904 C887 1.574 . S
C904 H898 0.949 . S
C904 C908 1.368 . S
C905 C886 1.429 . S
C905 C899 1.429 . S
C905 C906 1.523 . S
C906 C887 1.368 1_565 S
C906 C900 1.368 . S
C906 C905 1.523 . S
C907 C891 1.429 . S
C907 C903 1.429 . S
C907 C908 1.523 . S
C908 C892 1.368 1_545 S
C908 C904 1.368 . S
C908 C907 1.523 . S
H909 C884 0.950 . S
H910 C886 0.950 . S
H911 C887 0.949 . S
H912 C889 0.950 . S
H913 C891 0.950 . S
C914 C915 1.349 . S
C914 C916 1.327 . S
C914 H939 0.950 . S
C915 C914 1.349 . S
C915 C931 1.349 . S
C916 C914 1.327 . S
C916 C935 1.429 . S
C916 H940 0.950 . S
C917 C934 1.574 1_545 S
C917 C936 1.368 . S
C917 H941 0.949 . S
H918 C922 0.949 . S
C919 C920 1.349 . S
C919 C921 1.327 . S
C919 H942 0.950 . S
C920 C919 1.349 . S
C920 C932 1.349 . S
C921 C919 1.327 . S
C921 C937 1.429 . S
C921 H943 0.950 . S
C922 H918 0.949 . S
C922 C930 1.574 1_565 S
C922 C938 1.368 . S
H923 C931 0.950 . S
H924 C929 0.950 . S
H925 C930 0.949 . S
H926 C932 0.950 . S
H927 C933 0.950 . S
H928 C934 0.949 . S
C929 H924 0.950 . S
C929 C931 1.327 . S
C929 C935 1.429 . S
C930 C922 1.574 1_545 S
C930 H925 0.949 . S
C930 C936 1.368 1_655 S
C931 C915 1.349 . S
C931 H923 0.950 . S
C931 C929 1.327 . S
C932 C920 1.349 . S
C932 H926 0.950 . S
C932 C933 1.327 . S
C933 H927 0.950 . S
C933 C932 1.327 . S
C933 C937 1.429 . S
C934 C917 1.574 1_565 S
C934 H928 0.949 . S
C934 C938 1.368 1_455 S
C935 C916 1.429 . S
C935 C929 1.429 . S
C935 C936 1.523 . S
C936 C917 1.368 . S
C936 C930 1.368 1_455 S
C936 C935 1.523 . S
C937 C921 1.429 . S
C937 C933 1.429 . S
C937 C938 1.523 . S
C938 C922 1.368 . S
C938 C934 1.368 1_655 S
C938 C937 1.523 . S
H939 C914 0.950 . S
H940 C916 0.950 . S
H941 C917 0.949 . S
H942 C919 0.950 . S
H943 C921 0.950 . S
C944 C945 1.349 . S
C944 C946 1.327 . S
C944 H969 0.950 . S
C945 C944 1.349 . S
C945 C961 1.349 . S
C946 C944 1.327 . S
C946 C965 1.429 . S
C946 H970 0.950 . S
C947 C964 1.574 . S
C947 C966 1.368 1_545 S
C947 H971 0.949 . S
H948 C952 0.949 . S
C949 C950 1.349 . S
C949 C951 1.327 . S
C949 H972 0.950 . S
C950 C949 1.349 . S
C950 C962 1.349 . S
C951 C949 1.327 . S
C951 C967 1.429 . S
C951 H973 0.950 . S
C952 H948 0.949 . S
C952 C960 1.574 . S
C952 C968 1.368 1_565 S
H953 C961 0.950 . S
H954 C959 0.950 . S
H955 C960 0.949 . S
H956 C962 0.950 . S
H957 C963 0.950 . S
H958 C964 0.949 . S
C959 H954 0.950 . S
C959 C961 1.327 . S
C959 C965 1.429 . S
C960 C952 1.574 . S
C960 H955 0.949 . S
C960 C966 1.368 . S
C961 C945 1.349 . S
C961 H953 0.950 . S
C961 C959 1.327 . S
C962 C950 1.349 . S
C962 H956 0.950 . S
C962 C963 1.327 . S
C963 H957 0.950 . S
C963 C962 1.327 . S
C963 C967 1.429 . S
C964 C947 1.574 . S
C964 H958 0.949 . S
C964 C968 1.368 . S
C965 C946 1.429 . S
C965 C959 1.429 . S
C965 C966 1.523 . S
C966 C947 1.368 1_565 S
C966 C960 1.368 . S
C966 C965 1.523 . S
C967 C951 1.429 . S
C967 C963 1.429 . S
C967 C968 1.523 . S
C968 C952 1.368 1_545 S
C968 C964 1.368 . S
C968 C967 1.523 . S
H969 C944 0.950 . S
H970 C946 0.950 . S
H971 C947 0.949 . S
H972 C949 0.950 . S
H973 C951 0.950 . S
C974 C975 1.349 . S
C974 C976 1.327 . S
C974 H999 0.950 . S
C975 C974 1.349 . S
C975 C991 1.349 . S
C976 C974 1.327 . S
C976 C995 1.429 . S
C976 H1000 0.950 . S
C977 C994 1.574 1_565 S
C977 C996 1.368 1_455 S
C977 H1001 0.949 . S
H978 C982 0.949 . S
C979 C980 1.349 . S
C979 C981 1.327 . S
C979 H1002 0.950 . S
C980 C979 1.349 . S
C980 C992 1.349 . S
C981 C979 1.327 . S
C981 C997 1.429 . S
C981 H1003 0.950 . S
C982 H978 0.949 . S
C982 C990 1.574 1_545 S
C982 C998 1.368 1_655 S
H983 C991 0.950 . S
H984 C989 0.950 . S
H985 C990 0.949 . S
H986 C992 0.950 . S
H987 C993 0.950 . S
H988 C994 0.949 . S
C989 H984 0.950 . S
C989 C991 1.327 . S
C989 C995 1.429 . S
C990 C982 1.574 1_565 S
C990 H985 0.949 . S
C990 C996 1.368 . S
C991 C975 1.349 . S
C991 H983 0.950 . S
C991 C989 1.327 . S
C992 C980 1.349 . S
C992 H986 0.950 . S
C992 C993 1.327 . S
C993 H987 0.950 . S
C993 C992 1.327 . S
C993 C997 1.429 . S
C994 C977 1.574 1_545 S
C994 H988 0.949 . S
C994 C998 1.368 . S
C995 C976 1.429 . S
C995 C989 1.429 . S
C995 C996 1.523 . S
C996 C977 1.368 1_655 S
C996 C990 1.368 . S
C996 C995 1.523 . S
C997 C981 1.429 . S
C997 C993 1.429 . S
C997 C998 1.523 . S
C998 C982 1.368 1_455 S
C998 C994 1.368 . S
C998 C997 1.523 . S
H999 C974 0.950 . S
H1000 C976 0.950 . S
H1001 C977 0.949 . S
H1002 C979 0.950 . S
H1003 C981 0.950 . S
C1004 C1005 1.349 . S
C1004 C1006 1.327 . S
C1004 H1029 0.950 . S
C1005 C1004 1.349 . S
C1005 C1021 1.349 . S
C1006 C1004 1.327 . S
C1006 C1025 1.429 . S
C1006 H1030 0.950 . S
C1007 C1024 1.574 1_455 S
C1007 C1026 1.368 . S
C1007 H1031 0.949 . S
H1008 C1012 0.949 . S
C1009 C1010 1.349 . S
C1009 C1011 1.327 . S
C1009 H1032 0.950 . S
C1010 C1009 1.349 . S
C1010 C1022 1.349 . S
C1011 C1009 1.327 . S
C1011 C1027 1.429 . S
C1011 H1033 0.950 . S
C1012 H1008 0.949 . S
C1012 C1020 1.574 1_655 S
C1012 C1028 1.368 . S
H1013 C1021 0.950 . S
H1014 C1019 0.950 . S
H1015 C1020 0.949 . S
H1016 C1022 0.950 . S
H1017 C1023 0.950 . S
H1018 C1024 0.949 . S
C1019 H1014 0.950 . S
C1019 C1021 1.327 . S
C1019 C1025 1.429 . S
C1020 C1012 1.574 1_455 S
C1020 H1015 0.949 . S
C1020 C1026 1.368 . S
C1021 C1005 1.349 . S
C1021 H1013 0.950 . S
C1021 C1019 1.327 . S
C1022 C1010 1.349 . S
C1022 H1016 0.950 . S
C1022 C1023 1.327 . S
C1023 H1017 0.950 . S
C1023 C1022 1.327 . S
C1023 C1027 1.429 . S
C1024 C1007 1.574 1_655 S
C1024 H1018 0.949 . S
C1024 C1028 1.368 . S
C1025 C1006 1.429 . S
C1025 C1019 1.429 . S
C1025 C1026 1.523 . S
C1026 C1007 1.368 . S
C1026 C1020 1.368 . S
C1026 C1025 1.523 . S
C1027 C1011 1.429 . S
C1027 C1023 1.429 . S
C1027 C1028 1.523 . S
C1028 C1012 1.368 . S
C1028 C1024 1.368 . S
C1028 C1027 1.523 . S
H1029 C1004 0.950 . S
H1030 C1006 0.950 . S
H1031 C1007 0.949 . S
H1032 C1009 0.950 . S
H1033 C1011 0.950 . S
C1034 C1035 1.349 . S
C1034 C1036 1.327 . S
C1034 H1059 0.950 . S
C1035 C1034 1.349 . S
C1035 C1051 1.349 . S
C1036 C1034 1.327 . S
C1036 C1055 1.429 . S
C1036 H1060 0.950 . S
C1037 C1054 1.574 . S
C1037 C1056 1.368 . S
C1037 H1061 0.949 . S
H1038 C1042 0.949 . S
C1039 C1040 1.349 . S
C1039 C1041 1.327 . S
C1039 H1062 0.950 . S
C1040 C1039 1.349 . S
C1040 C1052 1.349 . S
C1041 C1039 1.327 . S
C1041 C1057 1.429 . S
C1041 H1063 0.950 . S
C1042 H1038 0.949 . S
C1042 C1050 1.574 . S
C1042 C1058 1.368 . S
H1043 C1051 0.950 . S
H1044 C1049 0.950 . S
H1045 C1050 0.949 . S
H1046 C1052 0.950 . S
H1047 C1053 0.950 . S
H1048 C1054 0.949 . S
C1049 H1044 0.950 . S
C1049 C1051 1.327 . S
C1049 C1055 1.429 . S
C1050 C1042 1.574 . S
C1050 H1045 0.949 . S
C1050 C1056 1.368 . S
C1051 C1035 1.349 . S
C1051 H1043 0.950 . S
C1051 C1049 1.327 . S
C1052 C1040 1.349 . S
C1052 H1046 0.950 . S
C1052 C1053 1.327 . S
C1053 H1047 0.950 . S
C1053 C1052 1.327 . S
C1053 C1057 1.429 . S
C1054 C1037 1.574 . S
C1054 H1048 0.949 . S
C1054 C1058 1.368 . S
C1055 C1036 1.429 . S
C1055 C1049 1.429 . S
C1055 C1056 1.523 . S
C1056 C1037 1.368 . S
C1056 C1050 1.368 . S
C1056 C1055 1.523 . S
C1057 C1041 1.429 . S
C1057 C1053 1.429 . S
C1057 C1058 1.523 . S
C1058 C1042 1.368 . S
C1058 C1054 1.368 . S
C1058 C1057 1.523 . S
H1059 C1034 0.950 . S
H1060 C1036 0.950 . S
H1061 C1037 0.949 . S
H1062 C1039 0.950 . S
H1063 C1041 0.950 . S
C1064 C1065 1.349 . S
C1064 C1066 1.327 . S
C1064 H1089 0.950 . S
C1065 C1064 1.349 . S
C1065 C1081 1.349 . S
C1066 C1064 1.327 . S
C1066 C1085 1.429 . S
C1066 H1090 0.950 . S
C1067 C1084 1.574 . S
C1067 C1086 1.368 . S
C1067 H1091 0.949 . S
H1068 C1072 0.949 . S
C1069 C1070 1.349 . S
C1069 C1071 1.327 . S
C1069 H1092 0.950 . S
C1070 C1069 1.349 . S
C1070 C1082 1.349 . S
C1071 C1069 1.327 . S
C1071 C1087 1.429 . S
C1071 H1093 0.950 . S
C1072 H1068 0.949 . S
C1072 C1080 1.574 . S
C1072 C1088 1.368 . S
H1073 C1081 0.950 . S
H1074 C1079 0.950 . S
H1075 C1080 0.949 . S
H1076 C1082 0.950 . S
H1077 C1083 0.950 . S
H1078 C1084 0.949 . S
C1079 H1074 0.950 . S
C1079 C1081 1.327 . S
C1079 C1085 1.429 . S
C1080 C1072 1.574 . S
C1080 H1075 0.949 . S
C1080 C1086 1.368 . S
C1081 C1065 1.349 . S
C1081 H1073 0.950 . S
C1081 C1079 1.327 . S
C1082 C1070 1.349 . S
C1082 H1076 0.950 . S
C1082 C1083 1.327 . S
C1083 H1077 0.950 . S
C1083 C1082 1.327 . S
C1083 C1087 1.429 . S
C1084 C1067 1.574 . S
C1084 H1078 0.949 . S
C1084 C1088 1.368 . S
C1085 C1066 1.429 . S
C1085 C1079 1.429 . S
C1085 C1086 1.523 . S
C1086 C1067 1.368 . S
C1086 C1080 1.368 . S
C1086 C1085 1.523 . S
C1087 C1071 1.429 . S
C1087 C1083 1.429 . S
C1087 C1088 1.523 . S
C1088 C1072 1.368 . S
C1088 C1084 1.368 . S
C1088 C1087 1.523 . S
H1089 C1064 0.950 . S
H1090 C1066 0.950 . S
H1091 C1067 0.949 . S
H1092 C1069 0.950 . S
H1093 C1071 0.950 . S
C1094 C1095 1.349 . S
C1094 C1096 1.327 . S
C1094 H1119 0.950 . S
C1095 C1094 1.349 . S
C1095 C1111 1.349 . S
C1096 C1094 1.327 . S
C1096 C1115 1.429 . S
C1096 H1120 0.950 . S
C1097 C1114 1.574 1_545 S
C1097 C1116 1.368 . S
C1097 H1121 0.949 . S
H1098 C1102 0.949 . S
C1099 C1100 1.349 . S
C1099 C1101 1.327 . S
C1099 H1122 0.950 . S
C1100 C1099 1.349 . S
C1100 C1112 1.349 . S
C1101 C1099 1.327 . S
C1101 C1117 1.429 . S
C1101 H1123 0.950 . S
C1102 H1098 0.949 . S
C1102 C1110 1.574 1_565 S
C1102 C1118 1.368 . S
H1103 C1111 0.950 . S
H1104 C1109 0.950 . S
H1105 C1110 0.949 . S
H1106 C1112 0.950 . S
H1107 C1113 0.950 . S
H1108 C1114 0.949 . S
C1109 H1104 0.950 . S
C1109 C1111 1.327 . S
C1109 C1115 1.429 . S
C1110 C1102 1.574 1_545 S
C1110 H1105 0.949 . S
C1110 C1116 1.368 . S
C1111 C1095 1.349 . S
C1111 H1103 0.950 . S
C1111 C1109 1.327 . S
C1112 C1100 1.349 . S
C1112 H1106 0.950 . S
C1112 C1113 1.327 . S
C1113 H1107 0.950 . S
C1113 C1112 1.327 . S
C1113 C1117 1.429 . S
C1114 C1097 1.574 1_565 S
C1114 H1108 0.949 . S
C1114 C1118 1.368 . S
C1115 C1096 1.429 . S
C1115 C1109 1.429 . S
C1115 C1116 1.523 . S
C1116 C1097 1.368 . S
C1116 C1110 1.368 . S
C1116 C1115 1.523 . S
C1117 C1101 1.429 . S
C1117 C1113 1.429 . S
C1117 C1118 1.523 . S
C1118 C1102 1.368 . S
C1118 C1114 1.368 . S
C1118 C1117 1.523 . S
H1119 C1094 0.950 . S
H1120 C1096 0.950 . S
H1121 C1097 0.949 . S
H1122 C1099 0.950 . S
H1123 C1101 0.950 . S
C1124 C1125 1.349 . S
C1124 C1126 1.327 . S
C1124 H1149 0.950 . S
C1125 C1124 1.349 . S
C1125 C1141 1.349 . S
C1126 C1124 1.327 . S
C1126 C1145 1.429 . S
C1126 H1150 0.950 . S
C1127 C1144 1.574 1_655 S
C1127 C1146 1.368 1_545 S
C1127 H1151 0.949 . S
H1128 C1132 0.949 . S
C1129 C1130 1.349 . S
C1129 C1131 1.327 . S
C1129 H1152 0.950 . S
C1130 C1129 1.349 . S
C1130 C1142 1.349 . S
C1131 C1129 1.327 . S
C1131 C1147 1.429 . S
C1131 H1153 0.950 . S
C1132 H1128 0.949 . S
C1132 C1140 1.574 1_455 S
C1132 C1148 1.368 1_565 S
H1133 C1141 0.950 . S
H1134 C1139 0.950 . S
H1135 C1140 0.949 . S
H1136 C1142 0.950 . S
H1137 C1143 0.950 . S
H1138 C1144 0.949 . S
C1139 H1134 0.950 . S
C1139 C1141 1.327 . S
C1139 C1145 1.429 . S
C1140 C1132 1.574 1_655 S
C1140 H1135 0.949 . S
C1140 C1146 1.368 . S
C1141 C1125 1.349 . S
C1141 H1133 0.950 . S
C1141 C1139 1.327 . S
C1142 C1130 1.349 . S
C1142 H1136 0.950 . S
C1142 C1143 1.327 . S
C1143 H1137 0.950 . S
C1143 C1142 1.327 . S
C1143 C1147 1.429 . S
C1144 C1127 1.574 1_455 S
C1144 H1138 0.949 . S
C1144 C1148 1.368 . S
C1145 C1126 1.429 . S
C1145 C1139 1.429 . S
C1145 C1146 1.523 . S
C1146 C1127 1.368 1_565 S
C1146 C1140 1.368 . S
C1146 C1145 1.523 . S
C1147 C1131 1.429 . S
C1147 C1143 1.429 . S
C1147 C1148 1.523 . S
C1148 C1132 1.368 1_545 S
C1148 C1144 1.368 . S
C1148 C1147 1.523 . S
H1149 C1124 0.950 . S
H1150 C1126 0.950 . S
H1151 C1127 0.949 . S
H1152 C1129 0.950 . S
H1153 C1131 0.950 . S
C1154 C1155 1.349 . S
C1154 C1156 1.327 . S
C1154 H1179 0.950 . S
C1155 C1154 1.349 . S
C1155 C1171 1.349 . S
C1156 C1154 1.327 . S
C1156 C1175 1.429 . S
C1156 H1180 0.950 . S
C1157 C1174 1.574 . S
C1157 C1176 1.368 . S
C1157 H1181 0.949 . S
H1158 C1162 0.949 . S
C1159 C1160 1.349 . S
C1159 C1161 1.327 . S
C1159 H1182 0.950 . S
C1160 C1159 1.349 . S
C1160 C1172 1.349 . S
C1161 C1159 1.327 . S
C1161 C1177 1.429 . S
C1161 H1183 0.950 . S
C1162 H1158 0.949 . S
C1162 C1170 1.574 . S
C1162 C1178 1.368 . S
H1163 C1171 0.950 . S
H1164 C1169 0.950 . S
H1165 C1170 0.949 . S
H1166 C1172 0.950 . S
H1167 C1173 0.950 . S
H1168 C1174 0.949 . S
C1169 H1164 0.950 . S
C1169 C1171 1.327 . S
C1169 C1175 1.429 . S
C1170 C1162 1.574 . S
C1170 H1165 0.949 . S
C1170 C1176 1.368 1_455 S
C1171 C1155 1.349 . S
C1171 H1163 0.950 . S
C1171 C1169 1.327 . S
C1172 C1160 1.349 . S
C1172 H1166 0.950 . S
C1172 C1173 1.327 . S
C1173 H1167 0.950 . S
C1173 C1172 1.327 . S
C1173 C1177 1.429 . S
C1174 C1157 1.574 . S
C1174 H1168 0.949 . S
C1174 C1178 1.368 1_655 S
C1175 C1156 1.429 . S
C1175 C1169 1.429 . S
C1175 C1176 1.523 . S
C1176 C1157 1.368 . S
C1176 C1170 1.368 1_655 S
C1176 C1175 1.523 . S
C1177 C1161 1.429 . S
C1177 C1173 1.429 . S
C1177 C1178 1.523 . S
C1178 C1162 1.368 . S
C1178 C1174 1.368 1_455 S
C1178 C1177 1.523 . S
H1179 C1154 0.950 . S
H1180 C1156 0.950 . S
H1181 C1157 0.949 . S
H1182 C1159 0.950 . S
H1183 C1161 0.950 . S
C225 C65 1.299 . S
C230 C9 1.299 . S
C255 C23 1.298 . S
C260 C79 1.298 . S
C285 C93 1.299 . S
C290 C37 1.299 . S
C315 C107 1.299 . S
C320 C51 1.299 . S
C345 C177 1.299 . S
C350 C121 1.299 . S
C375 C135 1.299 . S
C380 C191 1.299 . S
C405 C205 1.298 . S
C410 C149 1.298 . S
C435 C163 1.299 . S
C440 C219 1.299 . S
C465 C0 1.361 . S
C470 C210 1.361 . S
C495 C14 1.362 . S
C500 C168 1.362 . S
C525 C28 1.362 . S
C530 C182 1.362 . S
C555 C196 1.362 . S
C560 C42 1.362 . S
C585 C56 1.361 . S
C590 C126 1.361 . S
C615 C70 1.362 . S
C620 C140 1.362 . S
C645 C154 1.361 . S
C650 C84 1.361 . S
C675 C112 1.361 . S
C680 C98 1.361 . S
C705 C11 1.619 . S
C710 C151 1.618 . S
C735 C165 1.618 . S
C740 C25 1.618 . S
C765 C39 1.618 . S
C770 C123 1.619 . S
C795 C137 1.618 . S
C800 C53 1.618 . S
C825 C67 1.618 . S
C830 C207 1.618 . S
C855 C81 1.618 . S
C860 C221 1.619 . S
C885 C179 1.618 . S
C890 C95 1.618 . S
C915 C193 1.618 . S
C920 C109 1.619 . S
C945 C145 1.371 . S
C950 C5 1.371 . S
C975 C19 1.371 . S
C980 C159 1.371 . S
C1005 C33 1.371 . S
C1010 C117 1.371 . S
C1035 C131 1.371 . S
C1040 C47 1.371 . S
C1065 C201 1.371 . S
C1070 C61 1.371 . S
C1095 C215 1.371 . S
C1100 C75 1.371 . S
C1125 C173 1.371 . S
C1130 C89 1.371 . S
C1155 C103 1.371 . S
C1160 C187 1.371 . S
