# Generated by pormake.
# Topology ukm, (4)-cn, num edge types: 1
# Building blocks:
#     Node 0, Type 0, BuildingBlock: CEKHIL_clean_sbu_0, # of connection points: 4
#     Node 1, Type 0, BuildingBlock: CEKHIL_clean_sbu_0, # of connection points: 4
#     Node 2, Type 0, BuildingBlock: CEKHIL_clean_sbu_0, # of connection points: 4
#     Node 3, Type 0, BuildingBlock: CEKHIL_clean_sbu_0, # of connection points: 4
#     Node 4, Type 0, BuildingBlock: CEKHIL_clean_sbu_0, # of connection points: 4
#     Node 5, Type 0, BuildingBlock: CEKHIL_clean_sbu_0, # of connection points: 4
#     Node 6, Type 0, BuildingBlock: CEKHIL_clean_sbu_0, # of connection points: 4
#     Node 7, Type 0, BuildingBlock: CEKHIL_clean_sbu_0, # of connection points: 4
#     Node 8, Type 0, BuildingBlock: CEKHIL_clean_sbu_0, # of connection points: 4
#     Node 9, Type 0, BuildingBlock: CEKHIL_clean_sbu_0, # of connection points: 4
#     Node 10, Type 0, BuildingBlock: CEKHIL_clean_sbu_0, # of connection points: 4
#     Node 11, Type 0, BuildingBlock: CEKHIL_clean_sbu_0, # of connection points: 4
#     Node 12, Type 0, BuildingBlock: CEKHIL_clean_sbu_0, # of connection points: 4
#     Node 13, Type 0, BuildingBlock: CEKHIL_clean_sbu_0, # of connection points: 4
#     Node 14, Type 0, BuildingBlock: CEKHIL_clean_sbu_0, # of connection points: 4
#     Node 15, Type 0, BuildingBlock: CEKHIL_clean_sbu_0, # of connection points: 4
#     Node 16, Type 0, BuildingBlock: CEKHIL_clean_sbu_0, # of connection points: 4
#     Node 17, Type 0, BuildingBlock: CEKHIL_clean_sbu_0, # of connection points: 4
#     Node 18, Type 0, BuildingBlock: CEKHIL_clean_sbu_0, # of connection points: 4
#     Node 19, Type 0, BuildingBlock: CEKHIL_clean_sbu_0, # of connection points: 4
#     Node 20, Type 0, BuildingBlock: CEKHIL_clean_sbu_0, # of connection points: 4
#     Node 21, Type 0, BuildingBlock: CEKHIL_clean_sbu_0, # of connection points: 4
#     Node 22, Type 0, BuildingBlock: CEKHIL_clean_sbu_0, # of connection points: 4
#     Node 23, Type 0, BuildingBlock: CEKHIL_clean_sbu_0, # of connection points: 4
#     Node 24, Type 0, BuildingBlock: CEKHIL_clean_sbu_0, # of connection points: 4
#     Node 25, Type 0, BuildingBlock: CEKHIL_clean_sbu_0, # of connection points: 4
#     Node 26, Type 0, BuildingBlock: CEKHIL_clean_sbu_0, # of connection points: 4
#     Node 27, Type 0, BuildingBlock: CEKHIL_clean_sbu_0, # of connection points: 4
#     Node 28, Type 0, BuildingBlock: CEKHIL_clean_sbu_0, # of connection points: 4
#     Node 29, Type 0, BuildingBlock: CEKHIL_clean_sbu_0, # of connection points: 4
#     Node 30, Type 0, BuildingBlock: CEKHIL_clean_sbu_0, # of connection points: 4
#     Node 31, Type 0, BuildingBlock: CEKHIL_clean_sbu_0, # of connection points: 4
#     Edge 32, Type (0, 0), BuildingBlock: UVAHIK_clean_linker_0, # of connection points: 2
#     Edge 33, Type (0, 0), BuildingBlock: UVAHIK_clean_linker_0, # of connection points: 2
#     Edge 34, Type (0, 0), BuildingBlock: UVAHIK_clean_linker_0, # of connection points: 2
#     Edge 35, Type (0, 0), BuildingBlock: UVAHIK_clean_linker_0, # of connection points: 2
#     Edge 36, Type (0, 0), BuildingBlock: UVAHIK_clean_linker_0, # of connection points: 2
#     Edge 37, Type (0, 0), BuildingBlock: UVAHIK_clean_linker_0, # of connection points: 2
#     Edge 38, Type (0, 0), BuildingBlock: UVAHIK_clean_linker_0, # of connection points: 2
#     Edge 39, Type (0, 0), BuildingBlock: UVAHIK_clean_linker_0, # of connection points: 2
#     Edge 40, Type (0, 0), BuildingBlock: UVAHIK_clean_linker_0, # of connection points: 2
#     Edge 41, Type (0, 0), BuildingBlock: UVAHIK_clean_linker_0, # of connection points: 2
#     Edge 42, Type (0, 0), BuildingBlock: UVAHIK_clean_linker_0, # of connection points: 2
#     Edge 43, Type (0, 0), BuildingBlock: UVAHIK_clean_linker_0, # of connection points: 2
#     Edge 44, Type (0, 0), BuildingBlock: UVAHIK_clean_linker_0, # of connection points: 2
#     Edge 45, Type (0, 0), BuildingBlock: UVAHIK_clean_linker_0, # of connection points: 2
#     Edge 46, Type (0, 0), BuildingBlock: UVAHIK_clean_linker_0, # of connection points: 2
#     Edge 47, Type (0, 0), BuildingBlock: UVAHIK_clean_linker_0, # of connection points: 2
#     Edge 48, Type (0, 0), BuildingBlock: UVAHIK_clean_linker_0, # of connection points: 2
#     Edge 49, Type (0, 0), BuildingBlock: UVAHIK_clean_linker_0, # of connection points: 2
#     Edge 50, Type (0, 0), BuildingBlock: UVAHIK_clean_linker_0, # of connection points: 2
#     Edge 51, Type (0, 0), BuildingBlock: UVAHIK_clean_linker_0, # of connection points: 2
#     Edge 52, Type (0, 0), BuildingBlock: UVAHIK_clean_linker_0, # of connection points: 2
#     Edge 53, Type (0, 0), BuildingBlock: UVAHIK_clean_linker_0, # of connection points: 2
#     Edge 54, Type (0, 0), BuildingBlock: UVAHIK_clean_linker_0, # of connection points: 2
#     Edge 55, Type (0, 0), BuildingBlock: UVAHIK_clean_linker_0, # of connection points: 2
#     Edge 56, Type (0, 0), BuildingBlock: UVAHIK_clean_linker_0, # of connection points: 2
#     Edge 57, Type (0, 0), BuildingBlock: UVAHIK_clean_linker_0, # of connection points: 2
#     Edge 58, Type (0, 0), BuildingBlock: UVAHIK_clean_linker_0, # of connection points: 2
#     Edge 59, Type (0, 0), BuildingBlock: UVAHIK_clean_linker_0, # of connection points: 2
#     Edge 60, Type (0, 0), BuildingBlock: UVAHIK_clean_linker_0, # of connection points: 2
#     Edge 61, Type (0, 0), BuildingBlock: UVAHIK_clean_linker_0, # of connection points: 2
#     Edge 62, Type (0, 0), BuildingBlock: UVAHIK_clean_linker_0, # of connection points: 2
#     Edge 63, Type (0, 0), BuildingBlock: UVAHIK_clean_linker_0, # of connection points: 2
#     Edge 64, Type (0, 0), BuildingBlock: UVAHIK_clean_linker_0, # of connection points: 2
#     Edge 65, Type (0, 0), BuildingBlock: UVAHIK_clean_linker_0, # of connection points: 2
#     Edge 66, Type (0, 0), BuildingBlock: UVAHIK_clean_linker_0, # of connection points: 2
#     Edge 67, Type (0, 0), BuildingBlock: UVAHIK_clean_linker_0, # of connection points: 2
#     Edge 68, Type (0, 0), BuildingBlock: UVAHIK_clean_linker_0, # of connection points: 2
#     Edge 69, Type (0, 0), BuildingBlock: UVAHIK_clean_linker_0, # of connection points: 2
#     Edge 70, Type (0, 0), BuildingBlock: UVAHIK_clean_linker_0, # of connection points: 2
#     Edge 71, Type (0, 0), BuildingBlock: UVAHIK_clean_linker_0, # of connection points: 2
#     Edge 72, Type (0, 0), BuildingBlock: UVAHIK_clean_linker_0, # of connection points: 2
#     Edge 73, Type (0, 0), BuildingBlock: UVAHIK_clean_linker_0, # of connection points: 2
#     Edge 74, Type (0, 0), BuildingBlock: UVAHIK_clean_linker_0, # of connection points: 2
#     Edge 75, Type (0, 0), BuildingBlock: UVAHIK_clean_linker_0, # of connection points: 2
#     Edge 76, Type (0, 0), BuildingBlock: UVAHIK_clean_linker_0, # of connection points: 2
#     Edge 77, Type (0, 0), BuildingBlock: UVAHIK_clean_linker_0, # of connection points: 2
#     Edge 78, Type (0, 0), BuildingBlock: UVAHIK_clean_linker_0, # of connection points: 2
#     Edge 79, Type (0, 0), BuildingBlock: UVAHIK_clean_linker_0, # of connection points: 2
#     Edge 80, Type (0, 0), BuildingBlock: UVAHIK_clean_linker_0, # of connection points: 2
#     Edge 81, Type (0, 0), BuildingBlock: UVAHIK_clean_linker_0, # of connection points: 2
#     Edge 82, Type (0, 0), BuildingBlock: UVAHIK_clean_linker_0, # of connection points: 2
#     Edge 83, Type (0, 0), BuildingBlock: UVAHIK_clean_linker_0, # of connection points: 2
#     Edge 84, Type (0, 0), BuildingBlock: UVAHIK_clean_linker_0, # of connection points: 2
#     Edge 85, Type (0, 0), BuildingBlock: UVAHIK_clean_linker_0, # of connection points: 2
#     Edge 86, Type (0, 0), BuildingBlock: UVAHIK_clean_linker_0, # of connection points: 2
#     Edge 87, Type (0, 0), BuildingBlock: UVAHIK_clean_linker_0, # of connection points: 2
#     Edge 88, Type (0, 0), BuildingBlock: UVAHIK_clean_linker_0, # of connection points: 2
#     Edge 89, Type (0, 0), BuildingBlock: UVAHIK_clean_linker_0, # of connection points: 2
#     Edge 90, Type (0, 0), BuildingBlock: UVAHIK_clean_linker_0, # of connection points: 2
#     Edge 91, Type (0, 0), BuildingBlock: UVAHIK_clean_linker_0, # of connection points: 2
#     Edge 92, Type (0, 0), BuildingBlock: UVAHIK_clean_linker_0, # of connection points: 2
#     Edge 93, Type (0, 0), BuildingBlock: UVAHIK_clean_linker_0, # of connection points: 2
#     Edge 94, Type (0, 0), BuildingBlock: UVAHIK_clean_linker_0, # of connection points: 2
#     Edge 95, Type (0, 0), BuildingBlock: UVAHIK_clean_linker_0, # of connection points: 2
# Relax obj value: 0.247
# Max RMSD: 0.190
# Mean RMSD: 0.187
data_MOF--net-ukm--node1-CEKHIL_clean_sbu_0--edge1-UVAHIK_clean_linker_0
_symmetry_space_group_name_H-M    P1
_symmetry_Int_Tables_number       1
_symmetry_cell_setting            triclinic
loop_
_symmetry_equiv_pos_as_xyz
'x, y, z'
_cell_length_a     30.080591
_cell_length_b     133.8193
_cell_length_c     54.902103
_cell_angle_alpha  89.986932
_cell_angle_beta   89.988248
_cell_angle_gamma 90.003642
loop_
_atom_site_label
_atom_site_type_symbol
_atom_site_fract_x
_atom_site_fract_y
_atom_site_fract_z
_atom_type_partial_charge
Co0 Co 0.09208 0.31029 0.29701 0.0
O1 O 0.11315 0.29795 0.28327 0.0
O2 O 0.04254 0.30147 0.29089 0.0
C3 C 0.14487 0.31118 0.32598 0.0
O4 O 0.0575 0.32205 0.31136 0.0
Co5 Co 0.15111 0.32943 0.29736 0.0
O6 O 0.10399 0.33493 0.3185 0.0
C7 C 0.11558 0.32124 0.2514 0.0
C8 C 0.07178 0.29522 0.28235 0.0
C9 C 0.06604 0.33078 0.32004 0.0
O10 O 0.08751 0.31589 0.26327 0.0
O11 O 0.14572 0.32653 0.26165 0.0
O12 O 0.10949 0.30578 0.32965 0.0
O13 O 0.14781 0.31533 0.30489 0.0
Co14 Co 0.15652 0.93226 0.28656 0.0
O15 O 0.13838 0.94501 0.27412 0.0
O16 O 0.20514 0.94171 0.28911 0.0
C17 C 0.09392 0.9295 0.30807 0.0
O18 O 0.18674 0.92003 0.30152 0.0
Co19 Co 0.10204 0.91319 0.27325 0.0
O20 O 0.14471 0.90636 0.29481 0.0
C21 C 0.15975 0.92272 0.23668 0.0
C22 C 0.17837 0.94808 0.27879 0.0
C23 C 0.17892 0.91061 0.30372 0.0
O24 O 0.17674 0.92847 0.25294 0.0
O25 O 0.12764 0.91668 0.24077 0.0
O26 O 0.12584 0.93482 0.31744 0.0
O27 O 0.09985 0.92665 0.28592 0.0
Co28 Co 0.10513 0.93401 0.93649 0.0
O29 O 0.12475 0.9463 0.95112 0.0
O30 O 0.05491 0.9428 0.9416 0.0
C31 C 0.16044 0.93329 0.90888 0.0
O32 O 0.07222 0.92223 0.92098 0.0
Co33 Co 0.166 0.91505 0.93744 0.0
O34 O 0.11805 0.90893 0.91813 0.0
C35 C 0.12402 0.92262 0.98237 0.0
C36 C 0.08334 0.94901 0.95111 0.0
C37 C 0.08072 0.91316 0.91458 0.0
O38 O 0.09775 0.92824 0.96999 0.0
O39 O 0.15551 0.91749 0.97291 0.0
O40 O 0.12543 0.93871 0.90441 0.0
O41 O 0.16156 0.92911 0.92994 0.0
Co42 Co 0.15957 0.30964 0.94708 0.0
O43 O 0.1399 0.29672 0.95763 0.0
O44 O 0.20833 0.30022 0.9454 0.0
C45 C 0.09927 0.31263 0.92381 0.0
O46 O 0.19179 0.32205 0.93449 0.0
Co47 Co 0.10417 0.32858 0.95997 0.0
O48 O 0.14947 0.33573 0.94075 0.0
C49 C 0.1571 0.31841 -0.00229 0.0
C50 C 0.18036 0.29371 0.95413 0.0
C51 C 0.1845 0.33151 0.93283 0.0
O52 O 0.17581 0.31288 0.98161 0.0
O53 O 0.12576 0.32458 0.99303 0.0
O54 O 0.13248 0.30752 0.91507 0.0
O55 O 0.1029 0.31526 0.94629 0.0
Co56 Co 0.90097 0.68178 0.69942 0.0
O57 O 0.93567 0.68255 0.72904 0.0
O58 O 0.86295 0.68506 0.72597 0.0
C59 C 0.9292 0.66749 0.68481 0.0
O60 O 0.85243 0.68129 0.67425 0.0
Co61 Co 0.93829 0.68297 0.64731 0.0
O62 O 0.87749 0.67907 0.63628 0.0
C63 C 0.93727 0.70094 0.67821 0.0
C64 C 0.89803 0.68466 0.73963 0.0
C65 C 0.84575 0.67966 0.65156 0.0
O66 O 0.91172 0.69632 0.69316 0.0
O67 O 0.95511 0.69668 0.65974 0.0
O68 O 0.89913 0.66734 0.70182 0.0
O69 O 0.94423 0.67622 0.67873 0.0
Co70 Co 0.83237 0.06551 0.7032 0.0
O71 O 0.79706 0.06531 0.73271 0.0
O72 O 0.87072 0.06475 0.73071 0.0
C73 C 0.79776 0.07807 0.68405 0.0
O74 O 0.88148 0.06602 0.67821 0.0
Co75 Co 0.79784 0.06031 0.65214 0.0
O76 O 0.8577 0.06412 0.63987 0.0
C77 C 0.81156 0.04415 0.68755 0.0
C78 C 0.83512 0.06483 0.744 0.0
C79 C 0.88851 0.06583 0.6552 0.0
O80 O 0.82993 0.05054 0.70176 0.0
O81 O 0.79377 0.04658 0.6672 0.0
O82 O 0.82666 0.07985 0.7011 0.0
O83 O 0.78717 0.06877 0.68067 0.0
Co84 Co 0.90714 0.06109 0.04272 0.0
O85 O 0.93853 0.06176 0.01208 0.0
O86 O 0.86731 0.05789 0.01677 0.0
C87 C 0.93237 0.07549 0.05846 0.0
O88 O 0.86179 0.06004 0.06966 0.0
Co89 Co 0.9519 0.05933 0.09298 0.0
O90 O 0.89236 0.0631 0.10613 0.0
C91 C 0.95052 0.04191 0.06007 0.0
C92 C 0.90061 0.05938 0.00221 0.0
C93 C 0.85858 0.06186 0.09251 0.0
O94 O 0.92337 0.04664 0.04619 0.0
O95 O 0.96884 0.04591 0.07876 0.0
O96 O 0.90013 0.07549 0.04271 0.0
O97 O 0.95101 0.06692 0.06263 0.0
Co98 Co 0.84484 0.67956 0.03841 0.0
O99 O 0.80949 0.68079 0.00916 0.0
O100 O 0.88299 0.68198 0.01132 0.0
C101 C 0.8123 0.66584 0.0538 0.0
O102 O 0.89378 0.67836 0.06332 0.0
Co103 Co 0.80885 0.68173 0.09061 0.0
O104 O 0.86745 0.67626 0.10113 0.0
C105 C 0.81787 0.69961 0.05958 0.0
C106 C 0.84733 0.68218 -0.00191 0.0
C107 C 0.89944 0.6764 0.08594 0.0
O108 O 0.83953 0.69431 0.04414 0.0
O109 O 0.79955 0.69587 0.0786 0.0
O110 O 0.84164 0.66511 0.03652 0.0
O111 O 0.80031 0.67484 0.05962 0.0
Co112 Co 0.10214 0.80822 0.79899 0.0
O113 O 0.12064 0.79585 0.78439 0.0
O114 O 0.05132 0.79958 0.79461 0.0
C115 C 0.15838 0.80886 0.82597 0.0
O116 O 0.07025 0.82009 0.81457 0.0
Co117 Co 0.16219 0.82718 0.79793 0.0
O118 O 0.11977 0.83227 0.82248 0.0
C119 C 0.11835 0.81988 0.75311 0.0
C120 C 0.07906 0.79327 0.78493 0.0
C121 C 0.08113 0.82848 0.82437 0.0
O122 O 0.0937 0.81394 0.76558 0.0
O123 O 0.14931 0.82524 0.7624 0.0
O124 O 0.12313 0.80359 0.83091 0.0
O125 O 0.15905 0.81304 0.80487 0.0
Co126 Co 0.1421 0.43299 0.79656 0.0
O127 O 0.12313 0.44525 0.7817 0.0
O128 O 0.19241 0.44185 0.79258 0.0
C129 C 0.08495 0.43223 0.82304 0.0
O130 O 0.17407 0.42122 0.81268 0.0
Co131 Co 0.08168 0.41404 0.79383 0.0
O132 O 0.12946 0.40767 0.8128 0.0
C133 C 0.12725 0.42162 0.7501 0.0
C134 C 0.16439 0.44804 0.78261 0.0
C135 C 0.16604 0.412 0.81777 0.0
O136 O 0.15209 0.42729 0.76318 0.0
O137 O 0.09508 0.41644 0.75866 0.0
O138 O 0.11981 0.43758 0.82822 0.0
O139 O 0.08517 0.42807 0.80192 0.0
Co140 Co 0.09966 0.43327 0.44451 0.0
O141 O 0.11889 0.44581 0.45764 0.0
O142 O 0.05033 0.44258 0.44524 0.0
C143 C 0.15946 0.43126 0.42025 0.0
O144 O 0.06796 0.4212 0.4296 0.0
Co145 Co 0.15738 0.41418 0.45316 0.0
O146 O 0.11163 0.40757 0.43315 0.0
C147 C 0.10489 0.42285 0.49323 0.0
C148 C 0.0782 0.44883 0.4551 0.0
C149 C 0.07592 0.41184 0.42628 0.0
O150 O 0.0847 0.42872 0.47838 0.0
O151 O 0.13692 0.41709 0.48708 0.0
O152 O 0.12595 0.4366 0.41281 0.0
O153 O 0.15643 0.42788 0.44213 0.0
Co154 Co 0.14543 0.81049 0.4457 0.0
O155 O 0.12464 0.79769 0.45663 0.0
O156 O 0.19418 0.80106 0.44617 0.0
C157 C 0.08771 0.81327 0.42039 0.0
O158 O 0.17907 0.82271 0.43313 0.0
Co159 Co 0.08915 0.82964 0.45539 0.0
O160 O 0.13691 0.83654 0.4374 0.0
C161 C 0.13757 0.8199 0.49551 0.0
C162 C 0.16539 0.79464 0.45449 0.0
C163 C 0.17244 0.83216 0.43075 0.0
O164 O 0.15811 0.8142 0.48044 0.0
O165 O 0.10677 0.82599 0.48936 0.0
O166 O 0.12148 0.80798 0.41306 0.0
O167 O 0.08914 0.81615 0.44274 0.0
Co168 Co 0.90777 0.18272 0.19714 0.0
O169 O 0.93937 0.18359 0.22772 0.0
O170 O 0.86761 0.18672 0.2222 0.0
C171 C 0.93466 0.16797 0.1847 0.0
O172 O 0.86228 0.18236 0.17027 0.0
Co173 Co 0.9523 0.18297 0.14663 0.0
O174 O 0.89255 0.17915 0.1338 0.0
C175 C 0.94922 0.20139 0.17579 0.0
C176 C 0.90118 0.18621 0.23695 0.0
C177 C 0.85886 0.18033 0.14755 0.0
O178 O 0.92169 0.19705 0.19015 0.0
O179 O 0.969 0.19683 0.15836 0.0
O180 O 0.90281 0.16837 0.20067 0.0
O181 O 0.95225 0.17644 0.17848 0.0
Co182 Co 0.84316 0.56145 0.20241 0.0
O183 O 0.80963 0.56073 0.23238 0.0
O184 O 0.88249 0.55855 0.2287 0.0
C185 C 0.81318 0.57559 0.18785 0.0
O186 O 0.89057 0.56199 0.17651 0.0
Co187 Co 0.80317 0.55978 0.15103 0.0
O188 O 0.86236 0.56443 0.13923 0.0
C189 C 0.81006 0.54177 0.18177 0.0
C190 C 0.84781 0.55892 0.24269 0.0
C191 C 0.89523 0.56386 0.15377 0.0
O192 O 0.83366 0.54681 0.19688 0.0
O193 O 0.79158 0.54573 0.16308 0.0
O194 O 0.84399 0.5759 0.2044 0.0
O195 O 0.7984 0.56679 0.18214 0.0
Co196 Co 0.90779 0.56104 0.54164 0.0
O197 O 0.9424 0.56087 0.51193 0.0
O198 O 0.87026 0.55761 0.51501 0.0
C199 C 0.93323 0.5755 0.55665 0.0
O200 O 0.85949 0.56078 0.56695 0.0
Co201 Co 0.94589 0.55978 0.59349 0.0
O202 O 0.88446 0.5629 0.60498 0.0
C203 C 0.94662 0.54195 0.56211 0.0
C204 C 0.9051 0.55851 0.5013 0.0
C205 C 0.85277 0.56206 0.58975 0.0
O206 O 0.92118 0.54658 0.54717 0.0
O207 O 0.96388 0.54615 0.58083 0.0
O208 O 0.90292 0.57542 0.53979 0.0
O209 O 0.9502 0.56692 0.56248 0.0
Co210 Co 0.84438 0.17983 0.53333 0.0
O211 O 0.80821 0.18243 0.50493 0.0
O212 O 0.88196 0.18279 0.50632 0.0
C213 C 0.80952 0.166 0.5463 0.0
O214 O 0.89385 0.17725 0.55727 0.0
Co215 Co 0.81054 0.18073 0.58613 0.0
O216 O 0.8697 0.1752 0.59549 0.0
C217 C 0.82007 0.19929 0.55793 0.0
C218 C 0.84585 0.18382 0.49367 0.0
C219 C 0.90071 0.17507 0.57968 0.0
O220 O 0.84242 0.19437 0.54206 0.0
O221 O 0.80053 0.19509 0.57597 0.0
O222 O 0.83805 0.16555 0.52855 0.0
O223 O 0.79964 0.17487 0.55408 0.0
Co224 Co 0.60739 0.30784 0.79111 0.0
O225 O 0.62148 0.29609 0.77273 0.0
O226 O 0.55509 0.29942 0.78812 0.0
C227 C 0.66907 0.30715 0.81414 0.0
O228 O 0.58109 0.31917 0.8115 0.0
Co229 Co 0.6707 0.32629 0.78959 0.0
O230 O 0.63415 0.33082 0.81739 0.0
C231 C 0.61457 0.32125 0.74716 0.0
C232 C 0.58034 0.29345 0.77545 0.0
C233 C 0.59593 0.32716 0.82176 0.0
O234 O 0.59228 0.31494 0.75997 0.0
O235 O 0.64882 0.32589 0.75515 0.0
O236 O 0.63425 0.302 0.82046 0.0
O237 O 0.66597 0.31202 0.79403 0.0
Co238 Co 0.64052 0.94187 0.80598 0.0
O239 O 0.65075 0.95577 0.79975 0.0
O240 O 0.70228 0.94394 0.79733 0.0
C241 C 0.59923 0.94423 0.83941 0.0
O242 O 0.64239 0.92683 0.81219 0.0
Co243 Co 0.54412 0.93336 0.80515 0.0
O244 O 0.57289 0.92125 0.81881 0.0
C245 C 0.58802 0.93912 0.75941 0.0
C246 C 0.69148 0.95331 0.79491 0.0
C247 C 0.61486 0.91989 0.81836 0.0
O248 O 0.62543 0.93979 0.77066 0.0
O249 O 0.55104 0.93754 0.7703 0.0
O250 O 0.64236 0.94424 0.84139 0.0
O251 O 0.58348 0.94353 0.81775 0.0
Co252 Co 0.61427 0.9311 0.45191 0.0
O253 O 0.63081 0.94465 0.45868 0.0
O254 O 0.56267 0.9397 0.44927 0.0
C255 C 0.6729 0.92766 0.42782 0.0
O256 O 0.58546 0.91778 0.44313 0.0
Co257 Co 0.67603 0.91389 0.46939 0.0
O258 O 0.63044 0.90513 0.45458 0.0
C259 C 0.62813 0.92628 0.50458 0.0
C260 C 0.58926 0.94692 0.45566 0.0
C261 C 0.59469 0.90842 0.44506 0.0
O262 O 0.60174 0.92911 0.48754 0.0
O263 O 0.6631 0.92109 0.50058 0.0
O264 O 0.63813 0.93211 0.41876 0.0
O265 O 0.67206 0.92621 0.451 0.0
Co266 Co 0.62717 0.30376 0.44436 0.0
O267 O 0.62334 0.29069 0.45852 0.0
O268 O 0.68624 0.29891 0.45228 0.0
C269 C 0.57907 0.30077 0.41399 0.0
O270 O 0.64362 0.31737 0.42994 0.0
Co271 Co 0.54168 0.31709 0.44186 0.0
O272 O 0.5811 0.3263 0.42385 0.0
C273 C 0.58779 0.31395 0.48865 0.0
C274 C 0.66625 0.29098 0.46059 0.0
C275 C 0.62318 0.32528 0.42252 0.0
O276 O 0.62089 0.30981 0.47774 0.0
O277 O 0.55188 0.31651 0.47781 0.0
O278 O 0.62041 0.29814 0.41139 0.0
O279 O 0.56812 0.3043 0.43488 0.0
Co280 Co 0.41216 0.67764 0.20043 0.0
O281 O 0.44829 0.6788 0.22945 0.0
O282 O 0.37457 0.67939 0.22797 0.0
C283 C 0.44629 0.66447 0.18358 0.0
O284 O 0.36244 0.67641 0.17599 0.0
Co285 Co 0.44528 0.68086 0.14802 0.0
O286 O 0.38689 0.67526 0.13758 0.0
C287 C 0.43492 0.69819 0.18063 0.0
C288 C 0.41057 0.67979 0.2409 0.0
C289 C 0.35574 0.67487 0.15325 0.0
O290 O 0.4151 0.69247 0.19592 0.0
O291 O 0.45234 0.69493 0.16087 0.0
O292 O 0.41771 0.66323 0.2011 0.0
O293 O 0.45658 0.67363 0.17835 0.0
Co294 Co 0.33851 0.06335 0.20271 0.0
O295 O 0.30066 0.06241 0.2311 0.0
O296 O 0.37423 0.06105 0.2308 0.0
C297 C 0.3078 0.07696 0.18594 0.0
O298 O 0.38952 0.06424 0.17901 0.0
Co299 Co 0.30677 0.0608 0.14979 0.0
O300 O 0.36764 0.06519 0.14013 0.0
C301 C 0.31007 0.04337 0.18243 0.0
C302 C 0.33747 0.061 0.24313 0.0
C303 C 0.39794 0.06543 0.15632 0.0
O304 O 0.33289 0.04859 0.19752 0.0
O305 O 0.2927 0.04707 0.16313 0.0
O306 O 0.3358 0.07781 0.20386 0.0
O307 O 0.29601 0.06794 0.18025 0.0
Co308 Co 0.39471 0.05888 0.54175 0.0
O309 O 0.42448 0.05991 0.51071 0.0
O310 O 0.35408 0.05548 0.51635 0.0
C311 C 0.41837 0.07339 0.5576 0.0
O312 O 0.351 0.05733 0.56923 0.0
Co313 Co 0.44189 0.05711 0.59114 0.0
O314 O 0.38201 0.05923 0.60597 0.0
C315 C 0.4424 0.04003 0.55738 0.0
C316 C 0.38654 0.0572 0.50137 0.0
C317 C 0.34802 0.05817 0.5924 0.0
O318 O 0.41318 0.04456 0.54444 0.0
O319 O 0.46148 0.04409 0.57575 0.0
O320 O 0.38526 0.07317 0.5424 0.0
O321 O 0.43877 0.06498 0.56117 0.0
Co322 Co 0.33794 0.68196 0.53722 0.0
O323 O 0.30741 0.6824 0.50628 0.0
O324 O 0.3786 0.68597 0.51242 0.0
C325 C 0.312 0.66717 0.54998 0.0
O326 O 0.38253 0.68206 0.56452 0.0
Co327 Co 0.29221 0.68226 0.58738 0.0
O328 O 0.35192 0.67879 0.60085 0.0
C329 C 0.29396 0.70051 0.55744 0.0
C330 C 0.34569 0.68511 0.49733 0.0
C331 C 0.38573 0.68014 0.5873 0.0
O332 O 0.32222 0.69625 0.54337 0.0
O333 O 0.27449 0.69594 0.57498 0.0
O334 O 0.34451 0.66761 0.53442 0.0
O335 O 0.29345 0.67559 0.55571 0.0
Co336 Co 0.5981 0.80843 0.28359 0.0
O337 O 0.60958 0.7956 0.26926 0.0
O338 O 0.54454 0.80039 0.28419 0.0
C339 C 0.66104 0.80871 0.30574 0.0
O340 O 0.57405 0.82088 0.30066 0.0
Co341 Co 0.66243 0.82633 0.27493 0.0
O342 O 0.62336 0.8335 0.29784 0.0
C343 C 0.60169 0.81979 0.23595 0.0
C344 C 0.56814 0.79354 0.27341 0.0
C345 C 0.58671 0.82987 0.30533 0.0
O346 O 0.58161 0.81377 0.25053 0.0
O347 O 0.63607 0.82488 0.24177 0.0
O348 O 0.62607 0.80413 0.31414 0.0
O349 O 0.6574 0.81243 0.28422 0.0
Co350 Co 0.64703 0.43065 0.28164 0.0
O351 O 0.63705 0.44318 0.26578 0.0
O352 O 0.70236 0.43819 0.27981 0.0
C353 C 0.58631 0.43176 0.30547 0.0
O354 O 0.66898 0.4181 0.2993 0.0
Co355 Co 0.57544 0.4139 0.27587 0.0
O356 O 0.61508 0.40638 0.29783 0.0
C357 C 0.63576 0.4187 0.2352 0.0
C358 C 0.67905 0.44496 0.26847 0.0
C359 C 0.65357 0.40935 0.30429 0.0
O360 O 0.65924 0.42438 0.24905 0.0
O361 O 0.59945 0.41456 0.24196 0.0
O362 O 0.62323 0.43595 0.31236 0.0
O363 O 0.58688 0.42764 0.28432 0.0
Co364 Co 0.61165 0.43926 0.93869 0.0
O365 O 0.61221 0.45164 0.95601 0.0
O366 O 0.55193 0.44242 0.94965 0.0
C367 C 0.65427 0.44452 0.90781 0.0
O368 O 0.59926 0.42602 0.9215 0.0
Co369 Co 0.70142 0.42803 0.93022 0.0
O370 O 0.6643 0.41943 0.90907 0.0
C371 C 0.66025 0.42829 0.97895 0.0
C372 C 0.57001 0.4503 0.95941 0.0
C373 C 0.62193 0.41935 0.90997 0.0
O374 O 0.62446 0.43207 0.97001 0.0
O375 O 0.69571 0.4269 0.96649 0.0
O376 O 0.61177 0.44627 0.90715 0.0
O377 O 0.66928 0.44043 0.92731 0.0
Co378 Co 0.65496 0.80609 0.93783 0.0
O379 O 0.64566 0.79437 0.95723 0.0
O380 O 0.71158 0.79965 0.94467 0.0
C381 C 0.5995 0.80293 0.9117 0.0
O382 O 0.67649 0.8179 0.91714 0.0
Co383 Co 0.5796 0.82209 0.9341 0.0
O384 O 0.61663 0.82719 0.90713 0.0
C385 C 0.63072 0.81968 0.97959 0.0
C386 C 0.68839 0.79317 0.95701 0.0
C387 C 0.65757 0.82497 0.90496 0.0
O388 O 0.6593 0.81412 0.96862 0.0
O389 O 0.59537 0.82302 0.96947 0.0
O390 O 0.63801 0.79875 0.90827 0.0
O391 O 0.59516 0.80814 0.93123 0.0
Co392 Co 0.40152 0.17989 0.69835 0.0
O393 O 0.43094 0.18024 0.72957 0.0
O394 O 0.35998 0.18387 0.72281 0.0
C395 C 0.42756 0.16506 0.68568 0.0
O396 O 0.3581 0.18006 0.67039 0.0
Co397 Co 0.44977 0.18022 0.64897 0.0
O398 O 0.39136 0.17585 0.63534 0.0
C399 C 0.44516 0.19863 0.67834 0.0
C400 C 0.39247 0.18297 0.73818 0.0
C401 C 0.35658 0.17748 0.64794 0.0
O402 O 0.41774 0.1942 0.69261 0.0
O403 O 0.46473 0.19417 0.66068 0.0
O404 O 0.39436 0.16555 0.70078 0.0
O405 O 0.44676 0.17347 0.68048 0.0
Co406 Co 0.33431 0.56113 0.69496 0.0
O407 O 0.30043 0.56153 0.72491 0.0
O408 O 0.37253 0.55825 0.72172 0.0
C409 C 0.30841 0.57528 0.67835 0.0
O410 O 0.38202 0.56038 0.66934 0.0
Co411 Co 0.29498 0.55894 0.64349 0.0
O412 O 0.35598 0.56209 0.63138 0.0
C413 C 0.2952 0.54166 0.67679 0.0
C414 C 0.33797 0.55938 0.73554 0.0
C415 C 0.38806 0.56141 0.6464 0.0
O416 O 0.32068 0.54657 0.69121 0.0
O417 O 0.27788 0.54552 0.65764 0.0
O418 O 0.3391 0.57557 0.695 0.0
O419 O 0.29144 0.56658 0.67377 0.0
Co420 Co 0.40413 0.56172 0.03406 0.0
O421 O 0.43775 0.56013 0.00424 0.0
O422 O 0.36453 0.55878 0.00797 0.0
C423 C 0.43715 0.57572 0.04729 0.0
O424 O 0.35645 0.56321 0.05956 0.0
Co425 Co 0.44212 0.56069 0.08603 0.0
O426 O 0.38312 0.56571 0.0971 0.0
C427 C 0.43163 0.54214 0.05752 0.0
C428 C 0.39927 0.55857 -0.00599 0.0
C429 C 0.35088 0.56526 0.08214 0.0
O430 O 0.41037 0.54712 0.04128 0.0
O431 O 0.45003 0.54627 0.07601 0.0
O432 O 0.40662 0.57611 0.03057 0.0
O433 O 0.44963 0.56687 0.05405 0.0
Co434 Co 0.34076 0.18065 0.03562 0.0
O435 O 0.30328 0.18204 0.00725 0.0
O436 O 0.37668 0.18375 0.00802 0.0
C437 C 0.31101 0.16655 0.05031 0.0
O438 O 0.39131 0.17948 0.05952 0.0
Co439 Co 0.30726 0.18197 0.08852 0.0
O440 O 0.36838 0.17769 0.09807 0.0
C441 C 0.30949 0.19999 0.05798 0.0
C442 C 0.34008 0.18386 -0.00445 0.0
C443 C 0.39914 0.17789 0.08213 0.0
O444 O 0.33381 0.19522 0.04274 0.0
O445 O 0.29139 0.19581 0.07649 0.0
O446 O 0.33943 0.16624 0.03249 0.0
O447 O 0.29823 0.17536 0.05718 0.0
C448 C 0.01901 0.40778 0.39414 0.0
C449 C 0.04153 0.40532 0.41571 0.0
C450 C 0.99285 0.40056 0.38232 0.0
C451 C 0.94914 0.37436 0.38915 0.0
H452 H 0.99834 0.37092 0.3245 0.0
C453 C 0.02992 0.33919 0.35492 0.0
C454 C 0.02999 0.33688 0.33006 0.0
C455 C 0.00513 0.34727 0.36354 0.0
C456 C 0.98296 0.37182 0.34221 0.0
H457 H 0.05115 0.39389 0.44314 0.0
H458 H 0.00616 0.38145 0.42292 0.0
H459 H 0.00168 0.38719 0.34382 0.0
H460 H 0.00279 0.34069 0.29479 0.0
H461 H 0.95995 0.35503 0.30977 0.0
H462 H 0.93488 0.35867 0.38838 0.0
C463 C 0.00811 0.38882 0.41485 0.0
C464 C 0.9848 0.3812 0.35332 0.0
C465 C 0.0345 0.39592 0.42635 0.0
C466 C 0.00249 0.34228 0.31415 0.0
C467 C 0.97824 0.35049 0.32268 0.0
C468 C 0.9478 0.36495 0.37814 0.0
C469 C 0.98837 0.39088 0.39219 0.0
C470 C 0.97082 0.38239 0.37758 0.0
C471 C 0.98092 0.35332 0.34728 0.0
C472 C 0.96734 0.36347 0.3552 0.0
H473 H 0.02391 0.41501 0.38568 0.0
H474 H 0.97789 0.40239 0.36494 0.0
H475 H 0.93693 0.37511 0.40762 0.0
H476 H 0.05157 0.33521 0.36737 0.0
H477 H 0.00843 0.34934 0.38253 0.0
C478 C 0.21727 0.89435 0.3083 0.0
C479 C 0.21078 0.90415 0.31667 0.0
C480 C 0.24063 0.88746 0.32229 0.0
C481 C 0.2524 0.88204 0.38593 0.0
H482 H 0.30696 0.85802 0.36005 0.0
C483 C 0.22661 0.84584 0.43626 0.0
C484 C 0.20784 0.83855 0.42106 0.0
C485 C 0.25103 0.85372 0.42636 0.0
C486 C 0.29216 0.8647 0.36768 0.0
H487 H 0.22673 0.91472 0.34519 0.0
H488 H 0.26721 0.90251 0.37023 0.0
H489 H 0.30831 0.87343 0.33619 0.0
H490 H 0.20207 0.83325 0.38404 0.0
H491 H 0.24355 0.84718 0.36641 0.0
H492 H 0.2332 0.87325 0.4165 0.0
C493 C 0.25419 0.9002 0.35273 0.0
C494 C 0.29306 0.87353 0.35407 0.0
C495 C 0.23115 0.90718 0.33844 0.0
C496 C 0.21674 0.83877 0.39605 0.0
C497 C 0.24068 0.84674 0.38604 0.0
C498 C 0.25152 0.87323 0.39952 0.0
C499 C 0.25767 0.89016 0.34518 0.0
C500 C 0.27073 0.88212 0.36242 0.0
C501 C 0.25611 0.85458 0.40099 0.0
C502 C 0.26908 0.86431 0.38993 0.0
H503 H 0.20238 0.89187 0.29137 0.0
H504 H 0.24211 0.8798 0.31596 0.0
H505 H 0.23467 0.88847 0.39291 0.0
H506 H 0.22 0.84577 0.45567 0.0
H507 H 0.2632 0.85951 0.43842 0.0
C508 C 0.03485 0.89814 0.91962 0.0
C509 C 0.04477 0.90667 0.90588 0.0
C510 C 0.01005 0.8904 0.9096 0.0
C511 C 0.9957 0.87949 0.8493 0.0
H512 H 0.94933 0.85803 0.88944 0.0
C513 C 0.0527 0.83888 0.8583 0.0
C514 C 0.04658 0.83488 0.83496 0.0
C515 C 0.02751 0.84707 0.86592 0.0
C516 C 0.96112 0.864 0.87778 0.0
H517 H 0.03368 0.91431 0.87173 0.0
H518 H 0.98923 0.90074 0.85395 0.0
H519 H 0.94612 0.87522 0.90421 0.0
H520 H 0.00838 0.83586 0.80164 0.0
H521 H 0.96552 0.85056 0.81463 0.0
H522 H 0.01198 0.86816 0.82328 0.0
C523 C 0.00114 0.89996 0.87246 0.0
C524 C 0.95976 0.87384 0.88627 0.0
C525 C 0.02619 0.90777 0.88263 0.0
C526 C 0.01298 0.83875 0.81991 0.0
C527 C 0.98864 0.84714 0.82726 0.0
C528 C 0.99597 0.86968 0.84057 0.0
C529 C 0.99467 0.89096 0.88542 0.0
C530 C 0.98027 0.88159 0.87296 0.0
C531 C 0.99684 0.85156 0.85001 0.0
C532 C 0.9814 0.8618 0.85542 0.0
H533 H 0.04902 0.89716 0.93762 0.0
H534 H 0.00659 0.88363 0.92022 0.0
H535 H 0.01183 0.88517 0.83842 0.0
H536 H 0.07892 0.83609 0.87 0.0
H537 H 0.03493 0.85044 0.8834 0.0
C538 C 0.20798 0.39617 0.81842 0.0
C539 C 0.2011 0.40569 0.82835 0.0
C540 C 0.23431 0.3892 0.83047 0.0
C541 C 0.25533 0.38249 0.89265 0.0
H542 H 0.30862 0.35947 0.86118 0.0
C543 C 0.23966 0.34497 0.93823 0.0
C544 C 0.21874 0.3381 0.92273 0.0
C545 C 0.26227 0.35318 0.9286 0.0
C546 C 0.29431 0.36587 0.87036 0.0
H547 H 0.21894 0.41578 0.85755 0.0
H548 H 0.26479 0.40342 0.87924 0.0
H549 H 0.30538 0.37544 0.83968 0.0
H550 H 0.2073 0.33386 0.8853 0.0
H551 H 0.24587 0.34832 0.86824 0.0
H552 H 0.24118 0.37286 0.92254 0.0
C553 C 0.24986 0.40137 0.862 0.0
C554 C 0.29256 0.37502 0.85809 0.0
C555 C 0.22381 0.40844 0.84963 0.0
C556 C 0.22377 0.33904 0.8975 0.0
C557 C 0.24601 0.34732 0.88781 0.0
C558 C 0.25718 0.37337 0.90492 0.0
C559 C 0.25394 0.39155 0.85297 0.0
C560 C 0.27042 0.38325 0.86851 0.0
C561 C 0.26346 0.35476 0.9033 0.0
C562 C 0.27425 0.36481 0.89334 0.0
H563 H 0.19105 0.39393 0.80187 0.0
H564 H 0.23609 0.38171 0.82306 0.0
H565 H 0.23787 0.38863 0.90122 0.0
H566 H 0.23592 0.34436 0.95781 0.0
H567 H 0.27598 0.35866 0.94101 0.0
C568 C 0.94476 0.59385 0.55569 0.0
C569 C 0.94577 0.58487 0.56882 0.0
C570 C 0.95281 0.60293 0.56733 0.0
C571 C 0.98939 0.61427 0.6266 0.0
H572 H 0.91776 0.63642 0.60339 0.0
C573 C 0.93548 0.64894 0.68278 0.0
C574 C 0.94208 0.6583 0.6718 0.0
C575 C 0.94456 0.64016 0.66994 0.0
C576 C 0.93839 0.63033 0.60986 0.0
H577 H 0.95691 0.57821 0.60421 0.0
H578 H 0.96824 0.59411 0.62507 0.0
H579 H 0.91653 0.62067 0.58152 0.0
H580 H 0.96424 0.66588 0.63908 0.0
H581 H 0.9785 0.65047 0.61626 0.0
H582 H 0.00846 0.62394 0.65603 0.0
C583 C 0.96293 0.59419 0.60558 0.0
C584 C 0.938 0.62129 0.59726 0.0
C585 C 0.95615 0.58506 0.5937 0.0
C586 C 0.95891 0.65876 0.64797 0.0
C587 C 0.96703 0.64997 0.63493 0.0
C588 C 0.98893 0.62328 0.63953 0.0
C589 C 0.96057 0.60328 0.59261 0.0
C590 C 0.9633 0.61309 0.60548 0.0
C591 C 0.95949 0.64062 0.64576 0.0
C592 C 0.96324 0.63136 0.63128 0.0
H593 H 0.93745 0.59385 0.53636 0.0
H594 H 0.9522 0.60968 0.55648 0.0
H595 H 0.00996 0.60824 0.63331 0.0
H596 H 0.92272 0.64839 0.70118 0.0
H597 H 0.93816 0.63302 0.67856 0.0
C598 C 0.78101 0.09606 0.67774 0.0
C599 C 0.7811 0.08626 0.6686 0.0
C600 C 0.77044 0.10409 0.66265 0.0
C601 C 0.78399 0.1117 0.60063 0.0
H602 H 0.71242 0.13455 0.61931 0.0
C603 C 0.79185 0.14784 0.54472 0.0
C604 C 0.79254 0.15682 0.55788 0.0
C605 C 0.77959 0.13891 0.55603 0.0
C606 C 0.73283 0.12828 0.61388 0.0
H607 H 0.7687 0.07709 0.63681 0.0
H608 H 0.75148 0.09127 0.61 0.0
H609 H 0.70939 0.11925 0.64354 0.0
H610 H 0.77975 0.16362 0.59296 0.0
H611 H 0.76057 0.148 0.61318 0.0
H612 H 0.81004 0.12078 0.57213 0.0
C613 C 0.75903 0.09267 0.62898 0.0
C614 C 0.73072 0.11949 0.62765 0.0
C615 C 0.76874 0.08458 0.64429 0.0
C616 C 0.77936 0.15679 0.58238 0.0
C617 C 0.76804 0.14782 0.5939 0.0
C618 C 0.78668 0.12052 0.58711 0.0
C619 C 0.76055 0.10251 0.63797 0.0
C620 C 0.75695 0.1112 0.6214 0.0
C621 C 0.7688 0.13871 0.58098 0.0
C622 C 0.76184 0.12901 0.59382 0.0
H623 H 0.79023 0.09754 0.69647 0.0
H624 H 0.77232 0.11159 0.66998 0.0
H625 H 0.80507 0.10547 0.59563 0.0
H626 H 0.80127 0.14769 0.52568 0.0
H627 H 0.77939 0.13214 0.54526 0.0
C628 C 0.94364 0.14953 0.18672 0.0
C629 C 0.9473 0.15842 0.17334 0.0
C630 C 0.95172 0.14032 0.17566 0.0
C631 C 0.99278 0.12844 0.11775 0.0
H632 H 0.91741 0.1067 0.13967 0.0
C633 C 0.93589 0.09404 0.06136 0.0
C634 C 0.94461 0.08465 0.07175 0.0
C635 C 0.94471 0.10278 0.07435 0.0
C636 C 0.93905 0.11268 0.1336 0.0
H637 H 0.96316 0.16475 0.13813 0.0
H638 H 0.9744 0.14868 0.11823 0.0
H639 H 0.91591 0.12254 0.16123 0.0
H640 H 0.96997 0.077 0.10365 0.0
H641 H 0.98351 0.09238 0.1269 0.0
H642 H 0.01297 0.1186 0.08888 0.0
C643 C 0.96706 0.14874 0.13752 0.0
C644 C 0.93854 0.12177 0.14602 0.0
C645 C 0.96029 0.15798 0.14885 0.0
C646 C 0.96305 0.08415 0.09522 0.0
C647 C 0.97078 0.09291 0.10849 0.0
C648 C 0.99239 0.1194 0.10496 0.0
C649 C 0.96215 0.13975 0.15068 0.0
C650 C 0.96515 0.12984 0.13821 0.0
C651 C 0.9614 0.10227 0.09816 0.0
C652 C 0.96532 0.11149 0.11275 0.0
H653 H 0.93425 0.1497 0.20577 0.0
H654 H 0.94906 0.13365 0.18671 0.0
H655 H 0.01447 0.13435 0.1114 0.0
H656 H 0.92185 0.09462 0.04324 0.0
H657 H 0.9369 0.10993 0.06616 0.0
C658 C 0.79916 0.59388 0.18814 0.0
C659 C 0.79859 0.58479 0.17546 0.0
C660 C 0.78973 0.60283 0.17617 0.0
C661 C 0.75042 0.61356 0.11665 0.0
H662 H 0.82177 0.63608 0.13784 0.0
C663 C 0.80217 0.64741 0.05722 0.0
C664 C 0.79783 0.65695 0.06759 0.0
C665 C 0.7926 0.63886 0.07087 0.0
C666 C 0.80114 0.6299 0.13194 0.0
H667 H 0.78654 0.57781 0.14054 0.0
H668 H 0.77277 0.59347 0.11909 0.0
H669 H 0.8241 0.6206 0.16073 0.0
H670 H 0.77872 0.66509 0.10008 0.0
H671 H 0.7635 0.65008 0.1243 0.0
H672 H 0.73023 0.62286 0.08674 0.0
C673 C 0.77886 0.59374 0.1385 0.0
C674 C 0.80219 0.621 0.14514 0.0
C675 C 0.78705 0.58474 0.15072 0.0
C676 C 0.78236 0.65782 0.09164 0.0
C677 C 0.77372 0.64926 0.10548 0.0
C678 C 0.75016 0.62243 0.10314 0.0
C679 C 0.78097 0.60295 0.15097 0.0
C680 C 0.77713 0.61264 0.13762 0.0
C681 C 0.77936 0.63971 0.09529 0.0
C682 C 0.77579 0.63065 0.1106 0.0
H683 H 0.80734 0.59408 0.20736 0.0
H684 H 0.79019 0.60967 0.18668 0.0
H685 H 0.72998 0.6074 0.11048 0.0
H686 H 0.81383 0.64653 0.03867 0.0
H687 H 0.79754 0.63158 0.06268 0.0
C688 C 0.62278 0.40402 0.88427 0.0
C689 C 0.59918 0.41046 0.89982 0.0
C690 C 0.60631 0.39456 0.87884 0.0
C691 C 0.51393 0.37771 0.87468 0.0
H692 H 0.60354 0.35814 0.89209 0.0
C693 C 0.54114 0.34075 0.82539 0.0
C694 C 0.56644 0.3333 0.83681 0.0
C695 C 0.52752 0.34917 0.83845 0.0
C696 C 0.57735 0.36338 0.88767 0.0
H697 H 0.53774 0.41233 0.92006 0.0
H698 H 0.5086 0.39566 0.91013 0.0
H699 H 0.61461 0.37551 0.90261 0.0
H700 H 0.59317 0.32812 0.87107 0.0
H701 H 0.56736 0.34256 0.89435 0.0
H702 H 0.47749 0.36557 0.85872 0.0
C703 C 0.5401 0.39801 0.90247 0.0
C704 C 0.58411 0.37339 0.89346 0.0
C705 C 0.55677 0.40754 0.90807 0.0
C706 C 0.57334 0.33376 0.862 0.0
C707 C 0.55904 0.3421 0.87519 0.0
C708 C 0.50713 0.36763 0.86872 0.0
C709 C 0.56574 0.39133 0.88866 0.0
C710 C 0.55342 0.38068 0.88619 0.0
C711 C 0.53904 0.35025 0.86316 0.0
C712 C 0.53964 0.36039 0.87438 0.0
H713 H 0.6552 0.40607 0.87727 0.0
H714 H 0.6263 0.38958 0.86778 0.0
H715 H 0.48969 0.38323 0.86904 0.0
H716 H 0.53609 0.34058 0.80585 0.0
H717 H 0.51234 0.35526 0.82848 0.0
C718 C 0.67644 0.83237 0.86504 0.0
C719 C 0.68404 0.8319 0.89019 0.0
C720 C 0.68568 0.84115 0.85216 0.0
C721 C 0.7255 0.86773 0.85916 0.0
H722 H 0.62 0.87304 0.82075 0.0
C723 C 0.67718 0.9073 0.82174 0.0
C724 C 0.63195 0.90978 0.82453 0.0
C725 C 0.69218 0.89757 0.82663 0.0
C726 C 0.64972 0.8717 0.8314 0.0
H727 H 0.71025 0.8398 0.92136 0.0
H728 H 0.72521 0.8552 0.89927 0.0
H729 H 0.63579 0.85615 0.83365 0.0
H730 H 0.56749 0.90401 0.83551 0.0
H731 H 0.59355 0.88726 0.84413 0.0
H732 H 0.73734 0.88355 0.85805 0.0
C733 C 0.71338 0.8488 0.88909 0.0
C734 C 0.65933 0.86194 0.83849 0.0
C735 C 0.70497 0.83995 0.90184 0.0
C736 C 0.60243 0.90238 0.83282 0.0
C737 C 0.61734 0.89272 0.83765 0.0
C738 C 0.71569 0.87757 0.8521 0.0
C739 C 0.70119 0.84972 0.86442 0.0
C740 C 0.69663 0.85982 0.85309 0.0
C741 C 0.6622 0.89014 0.83429 0.0
C742 C 0.6768 0.87968 0.83886 0.0
H743 H 0.65978 0.82628 0.85578 0.0
H744 H 0.67718 0.84146 0.83301 0.0
H745 H 0.75485 0.86639 0.8701 0.0
H746 H 0.70088 0.91282 0.81545 0.0
H747 H 0.72696 0.89581 0.82389 0.0
C748 C 0.55469 0.84661 0.31318 0.0
C749 C 0.5579 0.83651 0.31975 0.0
C750 C 0.53408 0.85345 0.32861 0.0
C751 C 0.528 0.85759 0.39243 0.0
H752 H 0.46721 0.88184 0.37284 0.0
C753 C 0.55298 0.89249 0.4489 0.0
C754 C 0.5637 0.90097 0.4351 0.0
C755 C 0.53119 0.88442 0.43814 0.0
C756 C 0.48418 0.87512 0.37868 0.0
H757 H 0.53964 0.82543 0.34669 0.0
H758 H 0.50462 0.83754 0.37438 0.0
H759 H 0.46571 0.86721 0.34624 0.0
H760 H 0.55782 0.90805 0.39985 0.0
H761 H 0.52219 0.89375 0.38048 0.0
H762 H 0.55021 0.86558 0.42358 0.0
C763 C 0.51757 0.84011 0.35707 0.0
C764 C 0.48293 0.86672 0.36353 0.0
C765 C 0.53751 0.8332 0.34129 0.0
C766 C 0.54965 0.90157 0.41083 0.0
C767 C 0.52894 0.89337 0.39982 0.0
C768 C 0.52979 0.866 0.40738 0.0
C769 C 0.51696 0.85035 0.35117 0.0
C770 C 0.50659 0.85803 0.36977 0.0
C771 C 0.52117 0.88451 0.4131 0.0
C772 C 0.5097 0.87504 0.40018 0.0
H773 H 0.56988 0.84931 0.29653 0.0
H774 H 0.53466 0.86129 0.32367 0.0
H775 H 0.54695 0.85104 0.39764 0.0
H776 H 0.56309 0.89195 0.4678 0.0
H777 H 0.52446 0.87789 0.44919 0.0
C778 C 0.62853 0.34345 0.41329 0.0
C779 C 0.64901 0.33401 0.41371 0.0
C780 C 0.65165 0.35185 0.40552 0.0
C781 C 0.73756 0.35968 0.36415 0.0
H782 H 0.70673 0.3853 0.39258 0.0
C783 C 0.68046 0.39199 0.30803 0.0
C784 C 0.68189 0.40187 0.31648 0.0
C785 C 0.70011 0.38431 0.32128 0.0
C786 C 0.71713 0.37828 0.3846 0.0
H787 H 0.71044 0.32606 0.40649 0.0
H788 H 0.75094 0.34092 0.39203 0.0
H789 H 0.69633 0.3701 0.41607 0.0
H790 H 0.70804 0.41168 0.34434 0.0
H791 H 0.74229 0.3981 0.3681 0.0
H792 H 0.75645 0.36784 0.33224 0.0
C793 C 0.71687 0.34171 0.39812 0.0
C794 C 0.71067 0.36953 0.39802 0.0
C795 C 0.69369 0.33322 0.4063 0.0
C796 C 0.70638 0.40409 0.33755 0.0
C797 C 0.7258 0.39632 0.35111 0.0
C798 C 0.74445 0.36845 0.35078 0.0
C799 C 0.69598 0.35112 0.39775 0.0
C800 C 0.71765 0.36012 0.38725 0.0
C801 C 0.72146 0.38629 0.34353 0.0
C802 C 0.73104 0.37777 0.36019 0.0
H803 H 0.59434 0.3444 0.41903 0.0
H804 H 0.63413 0.35892 0.40491 0.0
H805 H 0.74376 0.35255 0.35545 0.0
H806 H 0.6622 0.39011 0.29164 0.0
H807 H 0.69536 0.37673 0.31491 0.0
C808 C 0.45337 0.59393 0.04617 0.0
C809 C 0.45347 0.58489 0.05908 0.0
C810 C 0.46492 0.60284 0.05774 0.0
C811 C 0.50969 0.6134 0.11621 0.0
H812 H 0.4373 0.6361 0.09734 0.0
C813 C 0.45934 0.64621 0.17859 0.0
C814 C 0.46171 0.65591 0.16894 0.0
C815 C 0.46948 0.63795 0.16411 0.0
C816 C 0.45832 0.62988 0.10254 0.0
H817 H 0.46691 0.57796 0.09393 0.0
H818 H 0.48448 0.59355 0.11464 0.0
H819 H 0.43332 0.62079 0.07386 0.0
H820 H 0.4781 0.66465 0.13692 0.0
H821 H 0.49436 0.65012 0.11126 0.0
H822 H 0.53188 0.62246 0.1461 0.0
C823 C 0.47711 0.59381 0.09536 0.0
C824 C 0.45627 0.62107 0.08902 0.0
C825 C 0.46669 0.58484 0.08357 0.0
C826 C 0.47598 0.65725 0.1448 0.0
C827 C 0.48523 0.64896 0.13014 0.0
C828 C 0.511 0.62218 0.13004 0.0
C829 C 0.47552 0.60297 0.08271 0.0
C830 C 0.4814 0.61264 0.09584 0.0
C831 C 0.48137 0.63924 0.1396 0.0
C832 C 0.48485 0.63043 0.12348 0.0
H833 H 0.44392 0.59413 0.02713 0.0
H834 H 0.46464 0.60966 0.04713 0.0
H835 H 0.53028 0.60717 0.12177 0.0
H836 H 0.44864 0.64498 0.1972 0.0
H837 H 0.46587 0.63053 0.17174 0.0
C838 C 0.29618 0.1483 0.0499 0.0
C839 C 0.29671 0.15735 0.06271 0.0
C840 C 0.28627 0.13937 0.06185 0.0
C841 C 0.24658 0.12878 0.12129 0.0
H842 H 0.31761 0.10613 0.10059 0.0
C843 C 0.29776 0.09535 0.18175 0.0
C844 C 0.29387 0.08575 0.17169 0.0
C845 C 0.28818 0.10379 0.16774 0.0
C846 C 0.29703 0.11234 0.10633 0.0
H847 H 0.28624 0.16431 0.09783 0.0
H848 H 0.27147 0.14869 0.11916 0.0
H849 H 0.32022 0.12154 0.07736 0.0
H850 H 0.27566 0.07737 0.13941 0.0
H851 H 0.26034 0.0922 0.11458 0.0
H852 H 0.22608 0.1196 0.15135 0.0
C853 C 0.2771 0.14843 0.0997 0.0
C854 C 0.29828 0.1212 0.09296 0.0
C855 C 0.28589 0.15741 0.08755 0.0
C856 C 0.27894 0.08469 0.1476 0.0
C857 C 0.27023 0.09315 0.13341 0.0
C858 C 0.24606 0.11996 0.13495 0.0
C859 C 0.27798 0.13926 0.08709 0.0
C860 C 0.27348 0.1296 0.10038 0.0
C861 C 0.27535 0.10276 0.1433 0.0
C862 C 0.27166 0.11171 0.12769 0.0
H863 H 0.30378 0.1481 0.03062 0.0
H864 H 0.28592 0.13254 0.05131 0.0
H865 H 0.22632 0.13499 0.12734 0.0
H866 H 0.30898 0.09636 0.20034 0.0
H867 H 0.29275 0.11113 0.17569 0.0
C868 C 0.40925 0.09169 0.56433 0.0
C869 C 0.43087 0.08271 0.57028 0.0
C870 C 0.41982 0.10053 0.57644 0.0
C871 C 0.46385 0.10978 0.63423 0.0
H872 H 0.46192 0.13516 0.60008 0.0
C873 C 0.47066 0.15525 0.65464 0.0
C874 C 0.43969 0.15554 0.67379 0.0
C875 C 0.47956 0.14625 0.64255 0.0
C876 C 0.46336 0.12815 0.60989 0.0
H877 H 0.48103 0.07597 0.59337 0.0
H878 H 0.49954 0.0915 0.61474 0.0
H879 H 0.46033 0.11962 0.57696 0.0
H880 H 0.39485 0.14661 0.69579 0.0
H881 H 0.40999 0.13103 0.67471 0.0
H882 H 0.46617 0.11832 0.66718 0.0
C883 C 0.47426 0.09166 0.6007 0.0
C884 C 0.46194 0.11924 0.59665 0.0
C885 C 0.46376 0.08278 0.58844 0.0
C886 C 0.41885 0.14664 0.68108 0.0
C887 C 0.42785 0.13768 0.66912 0.0
C888 C 0.46525 0.1187 0.64748 0.0
C889 C 0.45224 0.10062 0.59486 0.0
C890 C 0.46077 0.10997 0.60869 0.0
C891 C 0.45787 0.13738 0.64952 0.0
C892 C 0.46365 0.12798 0.63548 0.0
H893 H 0.38373 0.09189 0.55041 0.0
H894 H 0.40164 0.10725 0.5718 0.0
H895 H 0.4629 0.10277 0.64406 0.0
H896 H 0.48731 0.162 0.64866 0.0
H897 H 0.50309 0.14625 0.62762 0.0
C898 C 0.30399 0.64871 0.54807 0.0
C899 C 0.29918 0.65761 0.56124 0.0
C900 C 0.29523 0.63952 0.55906 0.0
C901 C 0.2497 0.62773 0.61605 0.0
H902 H 0.32736 0.60603 0.59646 0.0
C903 C 0.30249 0.59378 0.67491 0.0
C904 C 0.29633 0.5843 0.66447 0.0
C905 C 0.29407 0.60241 0.66141 0.0
C906 C 0.30506 0.61199 0.60187 0.0
H907 H 0.28067 0.664 0.59599 0.0
H908 H 0.26817 0.64796 0.61583 0.0
H909 H 0.33018 0.6218 0.57462 0.0
H910 H 0.2759 0.57637 0.63193 0.0
H911 H 0.26302 0.59156 0.60786 0.0
H912 H 0.22742 0.61796 0.64461 0.0
C913 C 0.27696 0.64799 0.59672 0.0
C914 C 0.30636 0.62105 0.58927 0.0
C915 C 0.28445 0.65722 0.58544 0.0
C916 C 0.28077 0.58359 0.64041 0.0
C917 C 0.27345 0.59225 0.62668 0.0
C918 C 0.24927 0.61874 0.62903 0.0
C919 C 0.2829 0.63898 0.58378 0.0
C920 C 0.27899 0.6291 0.59628 0.0
C921 C 0.28036 0.60171 0.63706 0.0
C922 C 0.27718 0.61084 0.6221 0.0
H923 H 0.31472 0.64885 0.52923 0.0
H924 H 0.29879 0.63283 0.54816 0.0
H925 H 0.2274 0.63363 0.62175 0.0
H926 H 0.31431 0.59452 0.69347 0.0
H927 H 0.29999 0.60964 0.66967 0.0
C928 C 0.51584 0.29166 0.3966 0.0
C929 C 0.54506 0.2998 0.39519 0.0
C930 C 0.47303 0.29239 0.38692 0.0
C931 C 0.39121 0.31216 0.37795 0.0
H932 H 0.31828 0.29111 0.35052 0.0
C933 C 0.21597 0.31854 0.33967 0.0
C934 C 0.18436 0.31087 0.34172 0.0
C935 C 0.25889 0.31722 0.3486 0.0
C936 C 0.33811 0.297 0.35858 0.0
H937 H 0.55443 0.31475 0.38125 0.0
H938 H 0.48011 0.31595 0.36346 0.0
H939 H 0.39787 0.28833 0.35626 0.0
H940 H 0.17147 0.29612 0.35633 0.0
H941 H 0.24686 0.29381 0.37234 0.0
H942 H 0.33164 0.32083 0.3803 0.0
C943 C 0.48985 0.30905 0.37231 0.0
C944 C 0.38373 0.29544 0.36164 0.0
C945 C 0.53261 0.30832 0.38206 0.0
C946 C 0.19522 0.30217 0.35468 0.0
C947 C 0.23848 0.3008 0.36349 0.0
C948 C 0.34571 0.31372 0.3749 0.0
C949 C 0.45883 0.30131 0.37588 0.0
C950 C 0.41084 0.30303 0.3712 0.0
C951 C 0.27116 0.30817 0.35969 0.0
C952 C 0.31867 0.30618 0.36507 0.0
H953 H 0.52452 0.28514 0.40729 0.0
H954 H 0.44995 0.28631 0.39009 0.0
H955 H 0.4109 0.31807 0.38603 0.0
H956 H 0.20836 0.32532 0.32972 0.0
H957 H 0.28323 0.32303 0.34529 0.0
C958 C 0.01415 0.92476 0.30669 0.0
C959 C 0.05131 0.92767 0.32051 0.0
C960 C 0.97264 0.9237 0.31763 0.0
C961 C 0.91504 0.91788 0.37272 0.0
H962 H 0.82136 0.93545 0.34981 0.0
C963 C 0.75278 0.92307 0.42598 0.0
C964 C 0.71353 0.92563 0.41365 0.0
C965 C 0.79282 0.92221 0.41345 0.0
C966 C 0.84669 0.93031 0.3561 0.0
H967 H 0.07464 0.93143 0.3567 0.0
H968 H 0.00159 0.92923 0.37613 0.0
H969 H 0.89446 0.93604 0.3307 0.0
H970 H 0.68479 0.9288 0.37832 0.0
H971 H 0.75465 0.92686 0.35604 0.0
H972 H 0.86741 0.91186 0.39755 0.0
C973 C 0.00493 0.92792 0.35674 0.0
C974 C 0.88865 0.93074 0.3453 0.0
C975 C 0.04649 0.92919 0.34567 0.0
C976 C 0.71466 0.92687 0.38829 0.0
C977 C 0.75479 0.92585 0.3756 0.0
C978 C 0.87281 0.91728 0.3832 0.0
C979 C 0.96768 0.92532 0.34267 0.0
C980 C 0.92322 0.92464 0.35379 0.0
C981 C 0.79459 0.92371 0.38813 0.0
C982 C 0.83824 0.92362 0.37533 0.0
H983 H 0.01681 0.92356 0.28723 0.0
H984 H 0.94431 0.92166 0.30651 0.0
H985 H 0.94121 0.913 0.37926 0.0
H986 H 0.75306 0.9221 0.44557 0.0
H987 H 0.82265 0.92075 0.42389 0.0
C988 C 0.55546 0.93534 0.87039 0.0
C989 C 0.56825 0.94443 0.85986 0.0
C990 C 0.51261 0.93424 0.87988 0.0
C991 C 0.40593 0.94754 0.89248 0.0
H992 H 0.35446 0.92411 0.86188 0.0
C993 C 0.2167 0.94287 0.88526 0.0
C994 C 0.20151 0.93371 0.89451 0.0
C995 C 0.26174 0.9441 0.87956 0.0
C996 C 0.36834 0.93066 0.87062 0.0
H997 H 0.54901 0.95974 0.85315 0.0
H998 H 0.47478 0.95795 0.87007 0.0
H999 H 0.43468 0.92642 0.86143 0.0
H1000 H 0.21974 0.91844 0.90284 0.0
H1001 H 0.29777 0.9205 0.89245 0.0
H1002 H 0.33929 0.95181 0.90138 0.0
C1003 C 0.49729 0.95165 0.8712 0.0
C1004 C 0.41437 0.93194 0.87064 0.0
C1005 C 0.54001 0.95272 0.86168 0.0
C1006 C 0.23076 0.92556 0.89561 0.0
C1007 C 0.27549 0.92676 0.88973 0.0
C1008 C 0.35981 0.94627 0.89242 0.0
C1009 C 0.48217 0.94222 0.87884 0.0
C1010 C 0.43373 0.9404 0.88152 0.0
C1011 C 0.29187 0.93616 0.8828 0.0
C1012 C 0.34053 0.93782 0.88141 0.0
H1013 H 0.57654 0.92881 0.86874 0.0
H1014 H 0.50214 0.92693 0.88614 0.0
H1015 H 0.41982 0.95413 0.90104 0.0
H1016 H 0.19482 0.94929 0.88454 0.0
H1017 H 0.27339 0.95139 0.87383 0.0
C1018 C 0.71379 0.3062 0.85269 0.0
C1019 C 0.71159 0.30685 0.82721 0.0
C1020 C 0.75514 0.30664 0.86443 0.0
C1021 C 0.87203 0.3015 0.85674 0.0
H1022 H 0.89732 0.32461 0.89698 0.0
C1023 C 0.05078 0.31009 0.8872 0.0
C1024 C 0.05632 0.31357 0.9111 0.0
C1025 C 0.00835 0.30968 0.87682 0.0
C1026 C 0.89076 0.31802 0.88614 0.0
H1027 H 0.75013 0.30807 0.79394 0.0
H1028 H 0.82195 0.30847 0.81435 0.0
H1029 H 0.82212 0.32197 0.88158 0.0
H1030 H 0.02219 0.31976 0.94252 0.0
H1031 H 0.94868 0.31871 0.92494 0.0
H1032 H 0.93996 0.29735 0.86153 0.0
C1033 C 0.79204 0.30779 0.82524 0.0
C1034 C 0.84768 0.31652 0.87739 0.0
C1035 C 0.751 0.30761 0.81364 0.0
C1036 C 0.01906 0.31704 0.92401 0.0
C1037 C 0.97674 0.31649 0.91384 0.0
C1038 C 0.91489 0.30288 0.86584 0.0
C1039 C 0.79444 0.30744 0.85068 0.0
C1040 C 0.83821 0.30832 0.86244 0.0
C1041 C 0.97064 0.31262 0.89029 0.0
C1042 C 0.92499 0.31122 0.88044 0.0
H1043 H 0.6837 0.30566 0.86345 0.0
H1044 H 0.75652 0.30638 0.88413 0.0
H1045 H 0.86527 0.29514 0.84512 0.0
H1046 H 0.07898 0.30743 0.87679 0.0
H1047 H 0.00507 0.3069 0.85839 0.0
C1048 C 0.78748 0.67377 0.62184 0.0
C1049 C 0.79903 0.67858 0.64368 0.0
C1050 C 0.74263 0.67235 0.61578 0.0
C1051 C 0.6293 0.67275 0.64353 0.0
H1052 H 0.59049 0.6779 0.57748 0.0
C1053 C 0.44313 0.67229 0.61438 0.0
C1054 C 0.431 0.6796 0.59732 0.0
C1055 C 0.48801 0.67091 0.62043 0.0
C1056 C 0.60077 0.67648 0.59606 0.0
H1057 H 0.77266 0.68595 0.67586 0.0
H1058 H 0.69552 0.68377 0.66503 0.0
H1059 H 0.66953 0.67769 0.58667 0.0
H1060 H 0.45527 0.69163 0.57444 0.0
H1061 H 0.53266 0.68954 0.58566 0.0
H1062 H 0.56044 0.67214 0.65317 0.0
C1063 C 0.7206 0.68075 0.65294 0.0
C1064 C 0.64617 0.67621 0.60124 0.0
C1065 C 0.76503 0.68209 0.65902 0.0
C1066 C 0.46387 0.68584 0.58744 0.0
C1067 C 0.50829 0.68456 0.59365 0.0
C1068 C 0.58387 0.67312 0.63839 0.0
C1069 C 0.70872 0.67577 0.63142 0.0
C1070 C 0.66095 0.67462 0.62517 0.0
C1071 C 0.52115 0.6769 0.60963 0.0
C1072 C 0.5691 0.67529 0.61473 0.0
H1073 H 0.81297 0.67094 0.60974 0.0
H1074 H 0.73454 0.66847 0.59906 0.0
H1075 H 0.63963 0.67127 0.66208 0.0
H1076 H 0.41833 0.66733 0.62207 0.0
H1077 H 0.49684 0.66494 0.63284 0.0
C1078 C 0.94934 0.06253 0.62504 0.0
C1079 C 0.935 0.06686 0.64696 0.0
C1080 C 0.99471 0.06205 0.61959 0.0
C1081 C 0.10519 0.07216 0.6355 0.0
H1082 H 0.14647 0.04589 0.61616 0.0
C1083 C 0.29245 0.06295 0.62466 0.0
C1084 C 0.3028 0.058 0.60283 0.0
C1085 C 0.24807 0.06379 0.63223 0.0
C1086 C 0.13546 0.05328 0.62143 0.0
H1087 H 0.95647 0.07475 0.67946 0.0
H1088 H 0.03533 0.07396 0.66983 0.0
H1089 H 0.06734 0.04874 0.62244 0.0
H1090 H 0.27531 0.04959 0.57255 0.0
H1091 H 0.19882 0.05108 0.58555 0.0
H1092 H 0.17339 0.07674 0.63413 0.0
C1093 C 0.01174 0.07088 0.65696 0.0
C1094 C 0.09014 0.05493 0.62488 0.0
C1095 C 0.96656 0.07128 0.6625 0.0
C1096 C 0.26842 0.05352 0.58939 0.0
C1097 C 0.22448 0.0543 0.59695 0.0
C1098 C 0.15063 0.07053 0.63191 0.0
C1099 C 0.02636 0.06599 0.63583 0.0
C1100 C 0.07448 0.0644 0.63171 0.0
C1101 C 0.21361 0.05959 0.61819 0.0
C1102 C 0.16618 0.0611 0.62456 0.0
H1103 H 0.9258 0.05907 0.61272 0.0
H1104 H 0.00514 0.05836 0.60298 0.0
H1105 H 0.09398 0.07954 0.64077 0.0
H1106 H 0.31831 0.0665 0.63532 0.0
H1107 H 0.24065 0.06783 0.64882 0.0
C1108 C 0.47855 0.06433 0.16619 0.0
C1109 C 0.44508 0.06674 0.14931 0.0
C1110 C 0.52322 0.06532 0.16012 0.0
C1111 C 0.59815 0.06653 0.10714 0.0
H1112 H 0.68509 0.07228 0.15742 0.0
C1113 C 0.78027 0.05621 0.09354 0.0
C1114 C 0.81341 0.06258 0.10258 0.0
C1115 C 0.73593 0.05767 0.09985 0.0
C1116 C 0.66137 0.0708 0.14303 0.0
H1117 H 0.4324 0.0723 0.1129 0.0
H1118 H 0.51099 0.07428 0.10236 0.0
H1119 H 0.60634 0.07414 0.16625 0.0
H1120 H 0.82674 0.07532 0.12571 0.0
H1121 H 0.74862 0.07811 0.13636 0.0
H1122 H 0.65308 0.06353 0.08367 0.0
C1123 C 0.50245 0.07142 0.12021 0.0
C1124 C 0.61608 0.07173 0.14819 0.0
C1125 C 0.45743 0.07032 0.12622 0.0
C1126 C 0.8017 0.07025 0.11876 0.0
C1127 C 0.75698 0.07184 0.12477 0.0
C1128 C 0.6434 0.06575 0.10188 0.0
C1129 C 0.5359 0.06887 0.13708 0.0
C1130 C 0.58387 0.06931 0.13053 0.0
C1131 C 0.72346 0.06568 0.11493 0.0
C1132 C 0.67557 0.06756 0.11998 0.0
H1133 H 0.47036 0.06147 0.1841 0.0
H1134 H 0.54781 0.06302 0.17339 0.0
H1135 H 0.57446 0.06457 0.09309 0.0
H1136 H 0.7886 0.05019 0.08116 0.0
H1137 H 0.71137 0.05256 0.0926 0.0
C1138 C 0.98065 0.67887 0.08116 0.0
C1139 C 0.94537 0.67451 0.09409 0.0
C1140 C 0.02449 0.67684 0.08746 0.0
C1141 C 0.09453 0.6674 0.13765 0.0
H1142 H 0.18413 0.66856 0.0869 0.0
C1143 C 0.27459 0.67675 0.15986 0.0
C1144 C 0.3095 0.67302 0.14553 0.0
C1145 C 0.23056 0.67497 0.15349 0.0
C1146 C 0.15971 0.668 0.10132 0.0
H1147 H 0.92815 0.66458 0.12376 0.0
H1148 H 0.00535 0.66075 0.13452 0.0
H1149 H 0.10607 0.66851 0.07592 0.0
H1150 H 0.32582 0.66437 0.11342 0.0
H1151 H 0.24832 0.66095 0.10251 0.0
H1152 H 0.14816 0.66654 0.16301 0.0
C1153 C -0.00099 0.66592 0.11975 0.0
C1154 C 0.11476 0.66815 0.09504 0.0
C1155 C 0.95481 0.6681 0.11365 0.0
C1156 C 0.29947 0.66741 0.12465 0.0
C1157 C 0.2551 0.66546 0.11845 0.0
C1158 C 0.13948 0.66704 0.14391 0.0
C1159 C 0.0344 0.67023 0.1066 0.0
C1160 C 0.08163 0.6683 0.11316 0.0
C1161 C 0.22007 0.66924 0.13283 0.0
C1162 C 0.17267 0.66778 0.12589 0.0
H1163 H 0.97438 0.68395 0.06617 0.0
H1164 H 0.0506 0.68059 0.07742 0.0
H1165 H 0.07011 0.66747 0.15214 0.0
H1166 H 0.28124 0.68121 0.17592 0.0
H1167 H 0.20478 0.6783 0.1646 0.0
C1168 C 0.54644 0.80863 0.88043 0.0
C1169 C 0.56073 0.80113 0.89635 0.0
C1170 C 0.50259 0.80872 0.87213 0.0
C1171 C 0.39713 0.79443 0.86916 0.0
H1172 H 0.34469 0.82072 0.87692 0.0
C1173 C 0.20871 0.80092 0.85676 0.0
C1174 C 0.19883 0.80889 0.84105 0.0
C1175 C 0.25162 0.7999 0.86638 0.0
C1176 C 0.35881 0.81334 0.87458 0.0
H1177 H 0.54205 0.78763 0.91542 0.0
H1178 H 0.46526 0.7877 0.90085 0.0
H1179 H 0.42385 0.81845 0.88394 0.0
H1180 H 0.22457 0.82243 0.82459 0.0
H1181 H 0.2987 0.8207 0.84121 0.0
H1182 H 0.33194 0.78937 0.85949 0.0
C1183 C 0.48783 0.79343 0.89437 0.0
C1184 C 0.40425 0.81205 0.87841 0.0
C1185 C 0.53177 0.79333 0.90258 0.0
C1186 C 0.2313 0.8162 0.83661 0.0
C1187 C 0.27384 0.81522 0.84624 0.0
C1188 C 0.35156 0.79573 0.86521 0.0
C1189 C 0.4723 0.80138 0.87997 0.0
C1190 C 0.42404 0.80262 0.87543 0.0
C1191 C 0.28496 0.80689 0.86058 0.0
C1192 C 0.33203 0.80524 0.86758 0.0
H1193 H 0.56823 0.81479 0.87577 0.0
H1194 H 0.49173 0.81484 0.86065 0.0
H1195 H 0.41147 0.78707 0.86679 0.0
H1196 H 0.18426 0.79516 0.86037 0.0
H1197 H 0.25911 0.79348 0.87768 0.0
C1198 C 0.69315 0.43896 0.87086 0.0
C1199 C 0.68492 0.44655 0.88783 0.0
C1200 C 0.73467 0.43831 0.85957 0.0
C1201 C 0.84524 0.45043 0.85261 0.0
H1202 H 0.88863 0.42372 0.86646 0.0
C1203 C 0.03226 0.44134 0.85029 0.0
C1204 C 0.04301 0.4328 0.83671 0.0
C1205 C 0.9882 0.44309 0.85732 0.0
C1206 C 0.87703 0.43119 0.86229 0.0
H1207 H 0.71091 0.45993 0.90466 0.0
H1208 H 0.78304 0.45897 0.88463 0.0
H1209 H 0.80996 0.4274 0.871 0.0
H1210 H 0.01746 0.41897 0.82167 0.0
H1211 H 0.94113 0.42195 0.83393 0.0
H1212 H 0.9126 0.4542 0.84399 0.0
C1213 C 0.75783 0.45353 0.87984 0.0
C1214 C 0.83185 0.43328 0.86466 0.0
C1215 C 0.71642 0.45414 0.89119 0.0
C1216 C 0.00999 0.42563 0.83211 0.0
C1217 C 0.96621 0.42734 0.83917 0.0
C1218 C 0.89054 0.44832 0.85011 0.0
C1219 C 0.7683 0.44524 0.86524 0.0
C1220 C 0.81545 0.44292 0.85989 0.0
C1221 C 0.95449 0.43626 0.851 0.0
C1222 C 0.90691 0.43867 0.85499 0.0
H1223 H 0.66946 0.43295 0.86838 0.0
H1224 H 0.74169 0.43193 0.84805 0.0
H1225 H 0.83351 0.45793 0.84889 0.0
H1226 H 0.05712 0.447 0.85395 0.0
H1227 H 0.98025 0.44994 0.86686 0.0
C1228 C 0.50465 0.43356 0.30571 0.0
C1229 C 0.54437 0.43266 0.31895 0.0
C1230 C 0.464 0.43407 0.31771 0.0
C1231 C 0.4061 0.42464 0.36848 0.0
H1232 H 0.32218 0.44627 0.35853 0.0
C1233 C 0.23829 0.42589 0.41819 0.0
C1234 C 0.20164 0.43039 0.40676 0.0
C1235 C 0.28014 0.42614 0.40743 0.0
C1236 C 0.34487 0.44008 0.36116 0.0
H1237 H 0.57329 0.43168 0.35497 0.0
H1238 H 0.50103 0.43212 0.37622 0.0
H1239 H 0.39682 0.44742 0.34125 0.0
H1240 H 0.17949 0.43825 0.37449 0.0
H1241 H 0.2526 0.43831 0.35495 0.0
H1242 H 0.35403 0.41699 0.38716 0.0
C1243 C 0.50191 0.43262 0.35653 0.0
C1244 C 0.38773 0.44083 0.35156 0.0
C1245 C 0.54296 0.43239 0.34448 0.0
C1246 C 0.20723 0.43475 0.38372 0.0
C1247 C 0.24922 0.43487 0.37272 0.0
C1248 C 0.36301 0.42379 0.37767 0.0
C1249 C 0.46224 0.43346 0.34314 0.0
C1250 C 0.41858 0.43312 0.3552 0.0
C1251 C 0.28639 0.43075 0.3847 0.0
C1252 C 0.33181 0.43151 0.37416 0.0
H1253 H 0.50499 0.43386 0.28599 0.0
H1254 H 0.43376 0.43465 0.30707 0.0
H1255 H 0.42923 0.41852 0.37104 0.0
H1256 H 0.23516 0.42248 0.43602 0.0
H1257 H 0.30785 0.42302 0.41746 0.0
C1258 C 0.70711 0.80891 0.34387 0.0
C1259 C 0.7041 0.80892 0.31837 0.0
C1260 C 0.74881 0.80954 0.35515 0.0
C1261 C 0.86453 0.80354 0.34795 0.0
H1262 H 0.89273 0.82723 0.38548 0.0
C1263 C 0.04266 0.8105 0.3825 0.0
C1264 C 0.04653 0.81442 0.4061 0.0
C1265 C 0.00137 0.81043 0.37072 0.0
C1266 C 0.88534 0.82048 0.37539 0.0
H1267 H 0.74173 0.80921 0.28464 0.0
H1268 H 0.81422 0.80993 0.30436 0.0
H1269 H 0.8178 0.825 0.36937 0.0
H1270 H 0.01079 0.82173 0.43546 0.0
H1271 H 0.93927 0.82128 0.41557 0.0
H1272 H 0.93122 0.79877 0.35446 0.0
C1273 C 0.78458 0.80963 0.31557 0.0
C1274 C 0.84243 0.81924 0.3662 0.0
C1275 C 0.74315 0.80927 0.30436 0.0
C1276 C 0.00896 0.81865 0.41725 0.0
C1277 C 0.96779 0.81845 0.40571 0.0
C1278 C 0.9072 0.80466 0.35755 0.0
C1279 C 0.78773 0.80988 0.34099 0.0
C1280 C 0.83184 0.81078 0.35236 0.0
C1281 C 0.96316 0.81417 0.38248 0.0
C1282 C 0.91826 0.81317 0.37135 0.0
H1283 H 0.67737 0.80867 0.35498 0.0
H1284 H 0.75076 0.80973 0.37485 0.0
H1285 H 0.85689 0.79697 0.33719 0.0
H1286 H 0.07115 0.80723 0.37343 0.0
H1287 H -0.00069 0.80728 0.35259 0.0
C1288 C 0.77984 0.18545 0.14777 0.0
C1289 C 0.8135 0.17947 0.13774 0.0
C1290 C 0.73563 0.18398 0.14131 0.0
C1291 C 0.66212 0.17224 0.0957 0.0
H1292 H 0.57468 0.17657 0.14659 0.0
C1293 C 0.47986 0.17979 0.07346 0.0
C1294 C 0.44611 0.17658 0.08936 0.0
C1295 C 0.52442 0.17863 0.07958 0.0
C1296 C 0.59852 0.17514 0.13223 0.0
H1297 H 0.82775 0.16743 0.1126 0.0
H1298 H 0.7497 0.16465 0.10151 0.0
H1299 H 0.65326 0.17719 0.15644 0.0
H1300 H 0.43275 0.16951 0.12411 0.0
H1301 H 0.51119 0.16725 0.1347 0.0
H1302 H 0.60729 0.16993 0.07162 0.0
C1303 C 0.75769 0.17059 0.11416 0.0
C1304 C 0.64371 0.17567 0.13779 0.0
C1305 C 0.80233 0.17218 0.12041 0.0
C1306 C 0.45803 0.17212 0.11157 0.0
C1307 C 0.50294 0.17084 0.11761 0.0
C1308 C 0.61688 0.17158 0.0902 0.0
C1309 C 0.72376 0.17636 0.12496 0.0
C1310 C 0.67605 0.17456 0.11944 0.0
C1311 C 0.53667 0.17411 0.10165 0.0
C1312 C 0.5845 0.17334 0.10824 0.0
H1313 H 0.78766 0.19121 0.16097 0.0
H1314 H 0.7107 0.1888 0.14934 0.0
H1315 H 0.68602 0.17132 0.08113 0.0
H1316 H 0.47193 0.18338 0.05631 0.0
H1317 H 0.54925 0.18151 0.06714 0.0
C1318 C 0.26984 0.56261 0.07683 0.0
C1319 C 0.30474 0.56675 0.09051 0.0
C1320 C 0.22586 0.56409 0.08366 0.0
C1321 C 0.15551 0.57079 0.136 0.0
H1322 H 0.06511 0.5715 0.08562 0.0
C1323 C 0.97596 0.56041 0.15696 0.0
C1324 C 0.94097 0.56521 0.14476 0.0
C1325 C 0.01985 0.56211 0.15018 0.0
C1326 C 0.08978 0.5715 0.09997 0.0
H1327 H 0.32095 0.5757 0.12215 0.0
H1328 H 0.24336 0.57853 0.13395 0.0
H1329 H 0.14308 0.57244 0.07439 0.0
H1330 H 0.92423 0.5755 0.11573 0.0
H1331 H 0.00158 0.57871 0.10409 0.0
H1332 H 0.10221 0.57014 0.16163 0.0
C1333 C 0.25028 0.57399 0.11807 0.0
C1334 C 0.13463 0.57188 0.09351 0.0
C1335 C 0.29467 0.57239 0.11136 0.0
C1336 C 0.95067 0.57165 0.12529 0.0
C1337 C 0.99492 0.57348 0.11869 0.0
C1338 C 0.11065 0.57057 0.14248 0.0
C1339 C 0.21535 0.56988 0.10419 0.0
C1340 C 0.16805 0.57114 0.11138 0.0
C1341 C 0.03006 0.56879 0.13127 0.0
C1342 C 0.07727 0.57054 0.1245 0.0
H1343 H 0.27647 0.5581 0.06085 0.0
H1344 H 0.2001 0.56052 0.07297 0.0
H1345 H 0.18022 0.57021 0.15027 0.0
H1346 H 0.96943 0.5553 0.17186 0.0
H1347 H 0.04577 0.55809 0.15975 0.0
C1348 C 0.77403 0.55722 0.58399 0.0
C1349 C 0.80604 0.56235 0.5978 0.0
C1350 C 0.72907 0.5581 0.58939 0.0
C1351 C 0.65008 0.56533 0.63737 0.0
H1352 H 0.56777 0.56533 0.5829 0.0
C1353 C 0.46673 0.55639 0.65126 0.0
C1354 C 0.43452 0.56166 0.63795 0.0
C1355 C 0.51162 0.55736 0.64576 0.0
C1356 C 0.59021 0.56549 0.59832 0.0
H1357 H 0.81629 0.57222 0.62853 0.0
H1358 H 0.73684 0.57391 0.63792 0.0
H1359 H 0.6474 0.56589 0.57528 0.0
H1360 H 0.42372 0.57188 0.60796 0.0
H1361 H 0.503 0.57376 0.5984 0.0
H1362 H 0.59289 0.56515 0.66042 0.0
C1363 C 0.74683 0.56913 0.62299 0.0
C1364 C 0.63592 0.56567 0.59397 0.0
C1365 C 0.79224 0.56815 0.6177 0.0
C1366 C 0.44796 0.56769 0.61838 0.0
C1367 C 0.49328 0.56877 0.613 0.0
C1368 C 0.60436 0.56525 0.64172 0.0
C1369 C 0.71474 0.56423 0.60858 0.0
C1370 C 0.6664 0.56529 0.61342 0.0
C1371 C 0.52563 0.56376 0.62699 0.0
C1372 C 0.57391 0.56503 0.62224 0.0
H1373 H 0.78373 0.55255 0.56876 0.0
H1374 H 0.70551 0.55395 0.57844 0.0
H1375 H 0.67254 0.56504 0.65276 0.0
H1376 H 0.45723 0.55156 0.66625 0.0
H1377 H 0.53539 0.55312 0.65636 0.0
C1378 C 0.95751 0.16937 0.6105 0.0
C1379 C 0.94699 0.17276 0.58697 0.0
C1380 C 0.00189 0.16769 0.6171 0.0
C1381 C 0.11682 0.16572 0.59096 0.0
H1382 H 0.15168 0.17574 0.6543 0.0
C1383 C 0.30138 0.16812 0.62257 0.0
C1384 C 0.31217 0.17639 0.63712 0.0
C1385 C 0.25699 0.16626 0.61627 0.0
C1386 C 0.14258 0.17298 0.63644 0.0
H1387 H 0.97495 0.17683 0.55181 0.0
H1388 H 0.0513 0.17427 0.56347 0.0
H1389 H 0.07343 0.17461 0.64414 0.0
H1390 H 0.28618 0.18953 0.65519 0.0
H1391 H 0.2096 0.18665 0.64321 0.0
H1392 H 0.18621 0.16475 0.58272 0.0
C1393 C 0.02568 0.17262 0.57673 0.0
C1394 C 0.09753 0.17215 0.63078 0.0
C1395 C 0.98161 0.1742 0.5701 0.0
C1396 C 0.27855 0.18305 0.64411 0.0
C1397 C 0.23459 0.18131 0.63752 0.0
C1398 C 0.16196 0.16669 0.59651 0.0
C1399 C 0.03655 0.16943 0.60035 0.0
C1400 C 0.08405 0.16878 0.60772 0.0
C1401 C 0.22296 0.17273 0.62421 0.0
C1402 C 0.17535 0.17061 0.61906 0.0
H1403 H 0.93161 0.16811 0.62385 0.0
H1404 H 0.00903 0.16512 0.63538 0.0
H1405 H 0.10764 0.16286 0.57322 0.0
H1406 H 0.32681 0.16282 0.61724 0.0
H1407 H 0.24921 0.15958 0.60602 0.0
C1408 C 0.92788 0.21787 0.19323 0.0
C1409 C 0.95936 0.21199 0.18091 0.0
C1410 C 0.93902 0.22735 0.20175 0.0
C1411 C 0.02368 0.24753 0.19887 0.0
H1412 H 0.98007 0.25313 0.26398 0.0
C1413 C 0.09042 0.27994 0.25827 0.0
C1414 C 0.05868 0.28571 0.27074 0.0
C1415 C 0.07795 0.27117 0.24627 0.0
C1416 C 0.99211 0.25173 0.2457 0.0
H1417 H 0.02656 0.21163 0.16674 0.0
H1418 H 0.04653 0.22819 0.18213 0.0
H1419 H 0.95891 0.23766 0.24389 0.0
H1420 H 0.98903 0.28679 0.28054 0.0
H1421 H 0.96728 0.2714 0.25975 0.0
H1422 H 0.05768 0.26158 0.20109 0.0
C1423 C 0.01297 0.22551 0.18492 0.0
C1424 C 0.9799 0.24287 0.23411 0.0
C1425 C 0.00158 0.21601 0.1761 0.0
C1426 C 0.01426 0.28248 0.27116 0.0
C1427 C 0.00184 0.27367 0.25932 0.0
C1428 C 0.03616 0.25638 0.21058 0.0
C1429 C 0.98214 0.23115 0.19848 0.0
C1430 C 0.9953 0.24067 0.2105 0.0
C1431 C 0.03353 0.26794 0.24665 0.0
C1432 C 0.02037 0.25858 0.23409 0.0
H1433 H 0.89483 0.21502 0.19691 0.0
H1434 H 0.91403 0.2316 0.21145 0.0
H1435 H 0.03583 0.24611 0.18063 0.0
H1436 H 0.12492 0.28224 0.25753 0.0
H1437 H 0.10319 0.26686 0.23692 0.0
C1438 C 0.2359 0.96168 0.27586 0.0
C1439 C 0.1932 0.95805 0.27048 0.0
C1440 C 0.25027 0.97084 0.26629 0.0
C1441 C 0.20764 0.99405 0.2368 0.0
H1442 H 0.32937 -0.00317 0.21455 0.0
C1443 C 0.26442 0.02772 0.17946 0.0
C1444 C 0.30167 0.03278 0.18876 0.0
C1445 C 0.25319 0.01824 0.18821 0.0
C1446 C 0.29531 0.99615 0.22074 0.0
H1447 H 0.13211 0.96118 0.25088 0.0
H1448 H 0.15731 0.97687 0.23384 0.0
H1449 H 0.30548 0.98122 0.23362 0.0
H1450 H 0.35784 0.0316 0.21343 0.0
H1451 H 0.33854 0.01499 0.22833 0.0
H1452 H 0.19736 0.00891 0.2235 0.0
C1453 C 0.1795 0.97285 0.24589 0.0
C1454 C 0.28167 0.98724 0.23184 0.0
C1455 C 0.16507 0.96379 0.25561 0.0
C1456 C 0.32877 0.02793 0.20598 0.0
C1457 C 0.31788 0.0184 0.21446 0.0
C1458 C 0.22113 0.00288 0.22545 0.0
C1459 C 0.22232 0.9765 0.251 0.0
C1460 C 0.23758 0.98608 0.23997 0.0
C1461 C 0.27937 0.01357 0.20613 0.0
C1462 C 0.26505 0.00402 0.21729 0.0
H1463 H 0.25833 0.95741 0.28726 0.0
H1464 H 0.28324 0.97348 0.27089 0.0
H1465 H 0.17372 0.99353 0.24329 0.0
H1466 H 0.24285 0.03126 0.16623 0.0
H1467 H 0.22353 0.01462 0.18132 0.0
C1468 C 0.00178 0.02708 0.06108 0.0
C1469 C 0.96192 0.03152 0.05324 0.0
C1470 C 0.01446 0.01769 0.05226 0.0
C1471 C 0.97252 0.99486 0.02238 0.0
H1472 H 0.09114 0.99308 -0.00489 0.0
C1473 C 0.0256 0.96197 0.96062 0.0
C1474 C 0.06932 0.95843 0.96289 0.0
C1475 C 0.01239 0.97071 0.97266 0.0
C1476 C 0.05814 0.99337 0.00296 0.0
H1477 H 0.90308 0.02935 0.03096 0.0
H1478 H 0.92497 0.01297 0.0159 0.0
H1479 H 0.06825 0.00825 0.01614 0.0
H1480 H 0.13338 0.96117 0.97975 0.0
H1481 H 0.11023 0.97619 0.00112 0.0
H1482 H 0.96238 0.97996 0.0094 0.0
C1483 C 0.94651 0.01675 0.02874 0.0
C1484 C 0.04507 0.00208 0.01502 0.0
C1485 C 0.93413 0.02617 0.03727 0.0
C1486 C 0.09955 0.96377 0.9774 0.0
C1487 C 0.08628 0.97242 0.98961 0.0
C1488 C 0.98573 0.9861 0.01053 0.0
C1489 C 0.98719 0.0125 0.03574 0.0
C1490 C 0.00201 0.00295 0.02466 0.0
C1491 C 0.04254 0.97602 0.98741 0.0
C1492 C 0.02861 0.98527 0.00047 0.0
H1493 H 0.02394 0.03101 0.07333 0.0
H1494 H 0.04586 0.01453 0.0581 0.0
H1495 H 0.93922 0.9953 0.02981 0.0
H1496 H 0.00158 0.95802 0.94953 0.0
H1497 H 0.97864 0.97333 0.9702 0.0
C1498 C 0.33007 0.21609 0.03813 0.0
C1499 C 0.30008 0.21058 0.05247 0.0
C1500 C 0.31852 0.22551 0.02929 0.0
C1501 C 0.22114 0.23921 0.0099 0.0
H1502 H 0.29918 0.26227 0.00885 0.0
C1503 C 0.1635 0.27746 0.9742 0.0
C1504 C 0.19432 0.28368 0.96236 0.0
C1505 C 0.17703 0.2685 0.98478 0.0
C1506 C 0.27728 0.25585 0.00863 0.0
H1507 H 0.23527 0.21079 0.06972 0.0
H1508 H 0.21476 0.22729 0.05393 0.0
H1509 H 0.32196 0.24717 0.03052 0.0
H1510 H 0.26323 0.28519 0.95145 0.0
H1511 H 0.28681 0.26931 0.96936 0.0
H1512 H 0.177 0.24767 0.98748 0.0
C1513 C 0.24724 0.22427 0.04962 0.0
C1514 C 0.2902 0.24725 0.02123 0.0
C1515 C 0.25911 0.21489 0.05881 0.0
C1516 C 0.23875 0.28055 0.9605 0.0
C1517 C 0.2523 0.27151 0.97098 0.0
C1518 C 0.20845 0.24775 -0.00293 0.0
C1519 C 0.27649 0.22955 0.03433 0.0
C1520 C 0.26214 0.23887 0.02207 0.0
C1521 C 0.2217 0.26546 0.98363 0.0
C1522 C 0.23624 0.2562 -0.00365 0.0
H1523 H 0.36198 0.21297 0.03303 0.0
H1524 H 0.34161 0.2294 0.01748 0.0
H1525 H 0.1993 0.23277 0.00982 0.0
H1526 H 0.12901 0.27966 0.97605 0.0
H1527 H 0.15262 0.26413 -0.00538 0.0
C1528 C 0.92069 0.71701 0.6995 0.0
C1529 C 0.94824 0.71147 0.68382 0.0
C1530 C 0.93362 0.72645 0.70763 0.0
C1531 C 0.03368 0.74044 0.72145 0.0
H1532 H 0.95425 0.76315 0.72713 0.0
C1533 C 0.09347 0.77831 0.75901 0.0
C1534 C 0.06399 0.78387 0.77349 0.0
C1535 C 0.07904 0.76973 0.74692 0.0
C1536 C 0.97668 0.75684 0.72598 0.0
H1537 H 0.01012 0.71167 0.66355 0.0
H1538 H 0.03299 0.72819 0.67805 0.0
H1539 H 0.929 0.74802 0.70648 0.0
H1540 H 0.99643 0.78473 0.78703 0.0
H1541 H 0.97143 0.76954 0.76655 0.0
H1542 H 0.08086 0.74904 0.74159 0.0
C1543 C 0.00138 0.72517 0.68401 0.0
C1544 C 0.96229 0.74821 0.71399 0.0
C1545 C 0.98814 0.71576 0.67558 0.0
C1546 C 0.01988 0.7806 0.77595 0.0
C1547 C 0.00549 0.77194 0.76402 0.0
C1548 C 0.04792 0.74902 0.73365 0.0
C1549 C 0.97462 0.73051 0.70049 0.0
C1550 C 0.99063 0.73992 0.71167 0.0
C1551 C 0.03484 0.76644 0.74921 0.0
C1552 C 0.01958 0.75732 0.73613 0.0
H1553 H 0.88961 0.71393 0.70608 0.0
H1554 H 0.91245 0.73037 0.72042 0.0
H1555 H 0.05593 0.73409 0.72033 0.0
H1556 H 0.1276 0.78069 0.75656 0.0
H1557 H 0.10241 0.7658 0.73538 0.0
C1558 C 0.72154 0.97055 0.79408 0.0
C1559 C 0.72196 0.9608 0.78472 0.0
C1560 C 0.74356 0.97823 0.78187 0.0
C1561 C 0.75935 0.9876 0.72378 0.0
H1562 H 0.85106 0.00472 0.75053 0.0
C1563 C 0.80188 0.02573 0.67947 0.0
C1564 C 0.81018 0.03361 0.69578 0.0
C1565 C 0.80003 0.01584 0.68784 0.0
C1566 C 0.82517 8e-05 0.74283 0.0
H1567 H 0.74595 0.95132 0.75559 0.0
H1568 H 0.78331 0.96497 0.73352 0.0
H1569 H 0.83279 0.98903 0.77087 0.0
H1570 H 0.82271 0.03726 0.73369 0.0
H1571 H 0.81765 0.02027 0.74829 0.0
H1572 H 0.7487 -0.00107 0.69697 0.0
C1573 C 0.76697 0.96654 0.75069 0.0
C1574 C 0.81523 0.99104 0.75435 0.0
C1575 C 0.74597 0.95876 0.76334 0.0
C1576 C 0.81672 0.03138 0.72054 0.0
C1577 C 0.81423 0.02156 0.72891 0.0
C1578 C 0.76858 -0.00325 0.71252 0.0
C1579 C 0.76526 0.97634 0.75973 0.0
C1580 C 0.78162 0.98485 0.7452 0.0
C1581 C 0.80585 0.01363 0.71275 0.0
C1582 C 0.80072 0.00326 0.72234 0.0
H1583 H 0.70281 0.97229 0.8104 0.0
H1584 H 0.74154 0.98577 0.78899 0.0
H1585 H 0.73288 0.98296 0.71662 0.0
H1586 H 0.797 0.0272 0.66026 0.0
H1587 H 0.79401 0.00993 0.67477 0.0
C1588 C 0.74961 0.78069 0.96432 0.0
C1589 C 0.70867 0.78492 0.97098 0.0
C1590 C 0.76577 0.77224 0.97664 0.0
C1591 C 0.72391 0.75136 0.01485 0.0
H1592 H 0.84889 0.7458 0.02539 0.0
C1593 C 0.77996 0.71614 0.06625 0.0
C1594 C 0.81226 0.7104 0.05414 0.0
C1595 C 0.77117 0.72595 0.05888 0.0
C1596 C 0.81386 0.74727 0.02254 0.0
H1597 H 0.65419 0.78415 -0.00323 0.0
H1598 H 0.6829 0.7698 0.01868 0.0
H1599 H 0.82655 0.76169 0.007 0.0
H1600 H 0.86252 0.71073 0.02572 0.0
H1601 H 0.84717 0.7278 0.013 0.0
H1602 H 0.71114 0.73697 0.03028 0.0
C1603 C 0.70181 0.77264 0.00339 0.0
C1604 C 0.80106 0.75634 0.0119 0.0
C1605 C 0.68542 0.78091 0.99089 0.0
C1606 C 0.83716 0.71489 0.03537 0.0
C1607 C 0.82862 0.72472 0.02815 0.0
C1608 C 0.73664 0.74236 0.02565 0.0
C1609 C 0.74151 0.76799 -0.00397 0.0
C1610 C 0.75586 0.75849 0.00784 0.0
C1611 C 0.79477 0.73027 0.0394 0.0
C1612 C 0.78172 0.74018 0.0295 0.0
H1613 H 0.76819 0.78366 0.94904 0.0
H1614 H 0.79638 0.76885 0.97038 0.0
H1615 H 0.68887 0.75259 0.01149 0.0
H1616 H 0.76026 0.71294 0.08081 0.0
H1617 H 0.74522 0.73011 0.06808 0.0
C1618 C 0.24561 0.52657 0.67503 0.0
C1619 C 0.28457 0.53122 0.68347 0.0
C1620 C 0.23344 0.51713 0.68375 0.0
C1621 C 0.27595 0.49455 0.71433 0.0
H1622 H 0.15633 0.49228 0.74001 0.0
C1623 C 0.22199 0.46121 0.77451 0.0
C1624 C 0.17865 0.45754 0.77135 0.0
C1625 C 0.2353 0.47005 0.763 0.0
C1626 C 0.18964 0.4927 0.73261 0.0
H1627 H 0.34244 0.52939 0.70669 0.0
H1628 H 0.32145 0.51291 0.72155 0.0
H1629 H 0.17897 0.50756 0.7194 0.0
H1630 H 0.11542 0.46018 0.75346 0.0
H1631 H 0.13882 0.47537 0.73299 0.0
H1632 H 0.28664 0.47967 0.72731 0.0
C1633 C 0.30022 0.51657 0.70834 0.0
C1634 C 0.20256 0.50147 0.72079 0.0
C1635 C 0.31206 0.52604 0.69992 0.0
C1636 C 0.14894 0.46287 0.75648 0.0
C1637 C 0.16233 0.47162 0.74481 0.0
C1638 C 0.2629 0.48572 0.72593 0.0
C1639 C 0.26036 0.51211 0.70074 0.0
C1640 C 0.24592 0.50252 0.71169 0.0
C1641 C 0.20566 0.47535 0.74791 0.0
C1642 C 0.21964 0.48471 0.73537 0.0
H1643 H 0.22371 0.53038 0.66242 0.0
H1644 H 0.20268 0.5138 0.67746 0.0
H1645 H 0.30952 0.49514 0.70733 0.0
H1646 H 0.24557 0.45726 0.7859 0.0
H1647 H 0.26872 0.47278 0.76612 0.0
C1648 C 0.01998 0.46187 0.4634 0.0
C1649 C 0.06417 0.45857 0.46521 0.0
C1650 C 0.00664 0.47072 0.4749 0.0
C1651 C 0.05157 0.49393 0.5031 0.0
H1652 H 0.93615 0.49489 0.53447 0.0
C1653 C 0.99833 0.52723 0.56312 0.0
C1654 C 0.9574 0.53144 0.55631 0.0
C1655 C 0.01082 0.51783 0.55426 0.0
C1656 C 0.96847 0.49472 0.52578 0.0
H1657 H 0.12911 0.46201 0.48026 0.0
H1658 H 0.10584 0.47721 0.50057 0.0
H1659 H 0.95898 0.47977 0.51298 0.0
H1660 H 0.89631 0.52887 0.53625 0.0
H1661 H 0.91781 0.51246 0.5212 0.0
H1662 H 0.06109 0.50886 0.5161 0.0
C1663 C 0.08151 0.47314 0.48994 0.0
C1664 C 0.98143 0.48609 0.51329 0.0
C1665 C 0.09484 0.46437 0.47835 0.0
C1666 C 0.92821 0.52584 0.54169 0.0
C1667 C 0.94039 0.51642 0.53317 0.0
C1668 C 0.03878 0.5025 0.51578 0.0
C1669 C 0.03719 0.4764 0.48855 0.0
C1670 C 0.02307 0.48561 0.50167 0.0
C1671 C 0.98226 0.51242 0.53882 0.0
C1672 C 0.99701 0.50301 0.52712 0.0
H1673 H 0.99559 0.45755 0.4534 0.0
H1674 H 0.97239 0.47309 0.47311 0.0
H1675 H 0.08355 0.4939 0.49404 0.0
H1676 H 0.02153 0.53139 0.5743 0.0
H1677 H 0.04317 0.51486 0.55906 0.0
C1678 C 0.31268 0.71698 0.53886 0.0
C1679 C 0.28245 0.711 0.55189 0.0
C1680 C 0.30026 0.7264 0.53043 0.0
C1681 C 0.20239 0.73993 0.51023 0.0
H1682 H 0.27952 0.76314 0.51227 0.0
C1683 C 0.14687 0.7785 0.47476 0.0
C1684 C 0.17857 0.78466 0.46345 0.0
C1685 C 0.1595 0.76951 0.48563 0.0
C1686 C 0.25787 0.75669 0.51122 0.0
H1687 H 0.21605 0.71039 0.56716 0.0
H1688 H 0.19408 0.72692 0.55213 0.0
H1689 H 0.30148 0.74785 0.53333 0.0
H1690 H 0.24821 0.78607 0.45393 0.0
H1691 H 0.27025 0.77021 0.4724 0.0
H1692 H 0.15928 0.74861 0.48763 0.0
C1693 C 0.22741 0.72424 0.54848 0.0
C1694 C 0.27031 0.74797 0.52345 0.0
C1695 C 0.24008 0.71484 0.55724 0.0
C1696 C 0.22304 0.78149 0.46255 0.0
C1697 C 0.2357 0.77245 0.47335 0.0
C1698 C 0.19011 0.74862 0.49782 0.0
C1699 C 0.25716 0.73003 0.5346 0.0
C1700 C 0.24272 0.7395 0.52305 0.0
C1701 C 0.20415 0.76643 0.48535 0.0
C1702 C 0.21771 0.75711 0.49813 0.0
H1703 H 0.34567 0.71425 0.53455 0.0
H1704 H 0.3238 0.73066 0.51968 0.0
H1705 H 0.18087 0.73345 0.50921 0.0
H1706 H 0.11232 0.78074 0.47587 0.0
H1707 H 0.13438 0.76515 0.49495 0.0
C1708 C 0.7391 0.4581 0.26603 0.0
C1709 C 0.69848 0.45414 0.25793 0.0
C1710 C 0.75488 0.46718 0.25653 0.0
C1711 C 0.71307 0.48976 0.22436 0.0
H1712 H 0.83771 0.49523 0.2124 0.0
C1713 C 0.76894 0.52561 0.17544 0.0
C1714 C 0.80282 0.53102 0.18713 0.0
C1715 C 0.75937 0.51579 0.1825 0.0
C1716 C 0.80279 0.49379 0.21572 0.0
H1717 H 0.64392 0.45623 0.23259 0.0
H1718 H 0.67178 0.4717 0.21567 0.0
H1719 H 0.81537 0.4789 0.22839 0.0
H1720 H 0.85473 0.53014 0.21457 0.0
H1721 H 0.83803 0.51305 0.22671 0.0
H1722 H 0.70037 0.50458 0.21161 0.0
C1723 C 0.69083 0.46811 0.22994 0.0
C1724 C 0.79001 0.48447 0.225 0.0
C1725 C 0.67493 0.45918 0.23958 0.0
C1726 C 0.82819 0.52623 0.20525 0.0
C1727 C 0.81886 0.5164 0.21214 0.0
C1728 C 0.72577 0.499 0.21492 0.0
C1729 C 0.73045 0.47237 0.23862 0.0
C1730 C 0.74491 0.48232 0.22932 0.0
C1731 C 0.78374 0.51115 0.20122 0.0
C1732 C 0.7707 0.50113 0.21044 0.0
H1733 H 0.75795 0.45434 0.28012 0.0
H1734 H 0.78547 0.47026 0.2637 0.0
H1735 H 0.67815 0.48849 0.22804 0.0
H1736 H 0.74883 0.52905 0.16139 0.0
H1737 H 0.73241 0.51188 0.17356 0.0
C1738 C 0.84495 0.21533 0.53896 0.0
C1739 C 0.81474 0.21016 0.5539 0.0
C1740 C 0.83688 0.22522 0.53214 0.0
C1741 C 0.76272 0.24717 0.54387 0.0
H1742 H 0.78677 0.25292 0.47585 0.0
C1743 C 0.66632 0.27624 0.48819 0.0
C1744 C 0.69016 0.2828 0.47306 0.0
C1745 C 0.68785 0.26844 0.50018 0.0
C1746 C 0.78054 0.25149 0.49498 0.0
H1747 H 0.7533 0.21146 0.57425 0.0
H1748 H 0.73833 0.22859 0.56177 0.0
H1749 H 0.81291 0.23731 0.49358 0.0
H1750 H 0.75532 0.28637 0.45867 0.0
H1751 H 0.79306 0.27242 0.47924 0.0
H1752 H 0.72806 0.26116 0.54466 0.0
C1753 C 0.76888 0.22512 0.5557 0.0
C1754 C 0.79562 0.24255 0.50523 0.0
C1755 C 0.77733 0.21526 0.56283 0.0
C1756 C 0.73617 0.28142 0.47022 0.0
C1757 C 0.75768 0.27345 0.48193 0.0
C1758 C 0.74715 0.25605 0.5335 0.0
C1759 C 0.798 0.23015 0.53976 0.0
C1760 C 0.78617 0.24017 0.52971 0.0
C1761 C 0.73364 0.26691 0.49708 0.0
C1762 C 0.75518 0.2582 0.50884 0.0
H1763 H 0.87442 0.21165 0.53202 0.0
H1764 H 0.86068 0.22892 0.5204 0.0
H1765 H 0.75563 0.24572 0.56288 0.0
H1766 H 0.63087 0.27714 0.49087 0.0
H1767 H 0.66839 0.26344 0.51148 0.0
C1768 C 0.59103 0.27906 0.74733 0.0
C1769 C 0.56364 0.28422 0.76382 0.0
C1770 C 0.5764 0.27031 0.73615 0.0
C1771 C 0.47561 0.25549 0.72194 0.0
H1772 H 0.5612 0.23403 0.71436 0.0
C1773 C 0.42774 0.21472 0.69943 0.0
C1774 C 0.45533 0.20926 0.68358 0.0
C1775 C 0.43921 0.22438 0.70666 0.0
C1776 C 0.53707 0.24 0.71598 0.0
H1777 H 0.4991 0.2843 0.78132 0.0
H1778 H 0.47366 0.26878 0.76215 0.0
H1779 H 0.58412 0.24967 0.73309 0.0
H1780 H 0.51583 0.20984 0.66214 0.0
H1781 H 0.53601 0.22677 0.6749 0.0
H1782 H 0.4283 0.24564 0.70532 0.0
C1783 C 0.50633 0.27163 0.7576 0.0
C1784 C 0.55017 0.24898 0.72676 0.0
C1785 C 0.52095 0.28047 0.76872 0.0
C1786 C 0.49388 0.21384 0.67438 0.0
C1787 C 0.50558 0.2235 0.68181 0.0
C1788 C 0.46243 0.24647 0.71127 0.0
C1789 C 0.53407 0.26641 0.74129 0.0
C1790 C 0.51964 0.25685 0.72989 0.0
C1791 C 0.47871 0.2288 0.69835 0.0
C1792 C 0.49303 0.23862 0.70823 0.0
H1793 H 0.62394 0.2818 0.7429 0.0
H1794 H 0.5983 0.26664 0.7233 0.0
H1795 H 0.4514 0.26144 0.72372 0.0
H1796 H 0.39763 0.21146 0.70678 0.0
H1797 H 0.41799 0.22822 0.71955 0.0
C1798 C 0.4255 0.02405 0.53585 0.0
C1799 C 0.45522 0.02984 0.54972 0.0
C1800 C 0.43874 0.01489 0.52613 0.0
C1801 C 0.53698 0.00216 0.50392 0.0
H1802 H 0.46559 0.97808 0.50779 0.0
C1803 C 0.6027 0.96405 0.47175 0.0
C1804 C 0.57289 0.95699 0.46218 0.0
C1805 C 0.58732 0.9731 0.48111 0.0
C1806 C 0.48555 0.98477 0.50612 0.0
H1807 H 0.52173 0.03044 0.56481 0.0
H1808 H 0.54521 0.01442 0.54737 0.0
H1809 H 0.44083 0.99323 0.52851 0.0
H1810 H 0.50368 0.95407 0.45389 0.0
H1811 H 0.47675 0.97007 0.46956 0.0
H1812 H 0.58112 0.99389 0.48105 0.0
C1813 C 0.5116 0.01702 0.54417 0.0
C1814 C 0.47152 0.99342 0.51819 0.0
C1815 C 0.49808 0.02613 0.55429 0.0
C1816 C 0.52745 0.95936 0.46119 0.0
C1817 C 0.51201 0.96848 0.47041 0.0
C1818 C 0.55072 0.99357 0.49158 0.0
C1819 C 0.4822 0.01139 0.52972 0.0
C1820 C 0.49731 0.00216 0.51737 0.0
C1821 C 0.54171 0.97538 0.48094 0.0
C1822 C 0.52543 0.98473 0.4927 0.0
H1823 H 0.39215 0.0267 0.5321 0.0
H1824 H 0.4155 0.01073 0.51499 0.0
H1825 H 0.55702 0.00886 0.50259 0.0
H1826 H 0.63794 0.96246 0.47289 0.0
H1827 H 0.6112 0.97812 0.48935 0.0
C1828 C 0.50285 0.78298 0.26117 0.0
C1829 C 0.54884 0.78404 0.26473 0.0
C1830 C 0.48567 0.77429 0.25052 0.0
C1831 C 0.45605 0.75303 0.23847 0.0
H1832 H 0.52856 0.73989 0.18963 0.0
C1833 C 0.42848 0.7121 0.21083 0.0
C1834 C 0.43957 0.7089 0.18719 0.0
C1835 C 0.43635 0.72193 0.21811 0.0
C1836 C 0.50737 0.74352 0.20288 0.0
H1837 H 0.61268 0.77668 0.26106 0.0
H1838 H 0.58285 0.76144 0.24352 0.0
H1839 H 0.55256 0.75573 0.20655 0.0
H1840 H 0.46567 0.7137 0.15228 0.0
H1841 H 0.47835 0.73097 0.16479 0.0
H1842 H 0.41026 0.74092 0.23429 0.0
C1843 C 0.55999 0.76742 0.24799 0.0
C1844 C 0.52159 0.75255 0.21296 0.0
C1845 C 0.57711 0.77612 0.2583 0.0
C1846 C 0.4571 0.71589 0.17068 0.0
C1847 C 0.46459 0.72578 0.17792 0.0
C1848 C 0.44154 0.74404 0.22817 0.0
C1849 C 0.51417 0.76645 0.24347 0.0
C1850 C 0.49673 0.75729 0.23134 0.0
C1851 C 0.45512 0.72888 0.2019 0.0
C1852 C 0.46755 0.73904 0.21066 0.0
H1853 H 0.48033 0.789 0.26583 0.0
H1854 H 0.45025 0.77383 0.24721 0.0
H1855 H 0.43601 0.75645 0.25257 0.0
H1856 H 0.41507 0.70694 0.22414 0.0
H1857 H 0.42931 0.72393 0.23682 0.0
C1858 C 0.50471 0.46139 0.96798 0.0
C1859 C 0.54544 0.45724 0.97515 0.0
C1860 C 0.4861 0.46927 0.98139 0.0
C1861 C 0.52409 0.48924 0.02299 0.0
H1862 H 0.39858 0.49547 0.02783 0.0
C1863 C 0.4659 0.52557 0.06809 0.0
C1864 C 0.43639 0.53122 0.05381 0.0
C1865 C 0.47387 0.51552 0.06262 0.0
C1866 C 0.43375 0.49379 0.02665 0.0
H1867 H 0.5967 0.45726 0.0028 0.0
H1868 H 0.56336 0.47055 0.02684 0.0
H1869 H 0.42189 0.47942 0.01064 0.0
H1870 H 0.39 0.53054 0.02351 0.0
H1871 H 0.40421 0.5131 0.01396 0.0
H1872 H 0.53611 0.5036 0.03855 0.0
C1873 C 0.54659 0.46816 0.0104 0.0
C1874 C 0.4471 0.48463 0.01673 0.0
C1875 C 0.56555 0.4605 -0.00325 0.0
C1876 C 0.41325 0.52645 0.0348 0.0
C1877 C 0.42106 0.51641 0.02942 0.0
C1878 C 0.51077 0.49831 0.03304 0.0
C1879 C 0.50769 0.47295 0.00235 0.0
C1880 C 0.49252 0.48229 0.01452 0.0
C1881 C 0.45231 0.51091 0.04286 0.0
C1882 C 0.46553 0.50076 0.03469 0.0
H1883 H 0.48879 0.45898 0.95129 0.0
H1884 H 0.45621 0.4728 0.97458 0.0
H1885 H 0.55937 0.48785 0.02106 0.0
H1886 H 0.48406 0.52898 0.08296 0.0
H1887 H 0.49777 0.51142 0.07347 0.0
C1888 C 0.13632 0.32788 0.21069 0.0
C1889 C 0.11724 0.32027 0.22477 0.0
C1890 C 0.14568 0.32628 0.18617 0.0
C1891 C 0.12289 0.30959 0.13402 0.0
H1892 H 0.22999 0.32216 0.10915 0.0
C1893 C 0.17395 0.3075 0.03312 0.0
C1894 C 0.16978 0.31713 0.02324 0.0
C1895 C 0.17684 0.30623 0.05832 0.0
C1896 C 0.20043 0.31849 0.11602 0.0
H1897 H 0.09155 0.30512 0.22422 0.0
H1898 H 0.10877 0.30223 0.18142 0.0
H1899 H 0.21284 0.32319 0.15252 0.0
H1900 H 0.16886 0.33297 0.0312 0.0
H1901 H 0.17572 0.33078 0.07521 0.0
H1902 H 0.11062 0.30498 0.09728 0.0
C1903 C 0.11585 0.3095 0.18918 0.0
C1904 C 0.19019 0.31919 0.1407 0.0
C1905 C 0.1058 0.31117 0.21366 0.0
C1906 C 0.17203 0.32549 0.03854 0.0
C1907 C 0.17613 0.32424 0.0636 0.0
C1908 C 0.13357 0.30876 0.10938 0.0
C1909 C 0.13695 0.31696 0.17534 0.0
C1910 C 0.15042 0.31509 0.14979 0.0
C1911 C 0.17692 0.31461 0.07369 0.0
C1912 C 0.1716 0.3135 0.10013 0.0
H1913 H 0.14517 0.33499 0.2188 0.0
H1914 H 0.16052 0.33231 0.17581 0.0
H1915 H 0.09197 0.30638 0.14039 0.0
H1916 H 0.1719 0.30095 0.02154 0.0
H1917 H 0.17723 0.29875 0.06587 0.0
C1918 C 0.13567 0.91464 0.02263 0.0
C1919 C 0.12194 0.92296 0.00905 0.0
C1920 C 0.1435 0.91554 0.04751 0.0
C1921 C 0.12789 0.93198 0.10103 0.0
H1922 H 0.2296 0.91701 0.12476 0.0
C1923 C 0.18067 0.93324 0.20123 0.0
C1924 C 0.17471 0.92372 0.21142 0.0
C1925 C 0.18376 0.93434 0.17599 0.0
C1926 C 0.20151 0.92132 0.11824 0.0
H1927 H 0.10338 0.93859 0.01076 0.0
H1928 H 0.11806 0.94025 0.05427 0.0
H1929 H 0.21082 0.9165 0.08157 0.0
H1930 H 0.17151 0.90784 0.20397 0.0
H1931 H 0.1785 0.90972 0.15993 0.0
H1932 H 0.11876 0.93676 0.13791 0.0
C1933 C 0.12212 0.93299 0.04584 0.0
C1934 C 0.1903 0.92093 0.09365 0.0
C1935 C 0.11352 0.93204 0.02095 0.0
C1936 C 0.17601 0.91525 0.1964 0.0
C1937 C 0.18016 0.91633 0.17129 0.0
C1938 C 0.13954 0.93249 0.12559 0.0
C1939 C 0.13864 0.92483 0.05919 0.0
C1940 C 0.15252 0.926 0.08491 0.0
C1941 C 0.18208 0.92589 0.16087 0.0
C1942 C 0.17569 0.92694 0.13444 0.0
H1943 H 0.14202 0.90754 0.01382 0.0
H1944 H 0.15465 0.90901 0.05744 0.0
H1945 H 0.09852 0.93594 0.09493 0.0
H1946 H 0.17942 0.93987 0.21255 0.0
H1947 H 0.18526 0.94177 0.16822 0.0
C1948 C 0.93081 0.68527 0.78162 0.0
C1949 C 0.89404 0.68627 0.76607 0.0
C1950 C 0.92533 0.68614 0.80684 0.0
C1951 C 0.84052 0.6826 0.85353 0.0
H1952 H 0.92083 0.69733 0.89545 0.0
C1953 C 0.81244 0.68501 0.95721 0.0
C1954 C 0.85057 0.68383 0.97164 0.0
C1955 C 0.81645 0.68642 0.93206 0.0
C1956 C 0.8983 0.69312 0.88398 0.0
H1957 H 0.82318 0.68938 0.76454 0.0
H1958 H 0.81387 0.69087 0.8083 0.0
H1959 H 0.93197 0.69765 0.85138 0.0
H1960 H 0.92272 0.68326 0.97122 0.0
H1961 H 0.92958 0.68544 0.92758 0.0
H1962 H 0.80757 0.67781 0.88595 0.0
C1963 C 0.84669 0.6893 0.80112 0.0
C1964 C 0.90472 0.69332 0.85881 0.0
C1965 C 0.85215 0.68847 0.77605 0.0
C1966 C 0.89266 0.68418 0.96059 0.0
C1967 C 0.89665 0.68552 0.93556 0.0
C1968 C 0.83431 0.68234 0.87867 0.0
C1969 C 0.88301 0.68797 0.81677 0.0
C1970 C 0.876 0.68802 0.84339 0.0
C1971 C 0.85865 0.68662 0.92097 0.0
C1972 C 0.86334 0.68752 0.8942 0.0
H1973 H 0.96347 0.6836 0.77439 0.0
H1974 H 0.95384 0.68505 0.81859 0.0
H1975 H 0.81821 0.67834 0.84203 0.0
H1976 H 0.77961 0.68483 0.9653 0.0
H1977 H 0.78654 0.68736 0.92133 0.0
C1978 C 0.80147 0.06282 0.7856 0.0
C1979 C 0.83886 0.0643 0.77071 0.0
C1980 C 0.80642 0.0621 0.8109 0.0
C1981 C 0.88282 0.06901 0.8603 0.0
H1982 H 0.82768 0.04735 0.8962 0.0
C1983 C 0.92982 0.06083 0.95968 0.0
C1984 C 0.89447 0.05884 0.97563 0.0
C1985 C 0.92262 0.06104 0.93454 0.0
C1986 C 0.84295 0.05349 0.88646 0.0
H1987 H 0.91059 0.06621 0.77053 0.0
H1988 H 0.91899 0.06498 0.81433 0.0
H1989 H 0.81336 0.04911 0.85259 0.0
H1990 H 0.8242 0.05523 0.97786 0.0
H1991 H 0.81161 0.05575 0.93418 0.0
H1992 H 0.91224 0.07346 0.89399 0.0
C1993 C 0.88592 0.06445 0.80662 0.0
C1994 C 0.83463 0.05451 0.86155 0.0
C1995 C 0.88106 0.0651 0.7815 0.0
C1996 C 0.85216 0.05679 0.96601 0.0
C1997 C 0.84495 0.05702 0.94095 0.0
C1998 C 0.89099 0.06802 0.88516 0.0
C1999 C 0.84875 0.06295 0.82158 0.0
C2000 C 0.85484 0.06222 0.84823 0.0
C2001 C 0.87993 0.05929 0.92496 0.0
C2002 C 0.87143 0.06022 0.89848 0.0
H2003 H 0.7686 0.06215 0.77772 0.0
H2004 H 0.77721 0.06098 0.82211 0.0
H2005 H 0.89835 0.07511 0.8505 0.0
H2006 H 0.96282 0.06238 0.96659 0.0
H2007 H 0.95041 0.06264 0.92262 0.0
C2008 C 0.10338 0.81079 0.71443 0.0
C2009 C 0.11458 0.81971 0.72643 0.0
C2010 C 0.10843 0.81 0.68924 0.0
C2011 C 0.17038 0.8221 0.63892 0.0
H2012 H 0.09127 0.80674 0.59761 0.0
C2013 C 0.14651 0.82757 0.53629 0.0
C2014 C 0.14779 0.81903 0.52151 0.0
C2015 C 0.14961 0.82666 0.56148 0.0
C2016 C 0.11398 0.81091 0.60908 0.0
H2017 H 0.13637 0.835 0.72157 0.0
H2018 H 0.14286 0.83383 0.67749 0.0
H2019 H 0.07728 0.80752 0.64139 0.0
H2020 H 0.15463 0.80291 0.521 0.0
H2021 H 0.15849 0.80129 0.56553 0.0
H2022 H 0.20539 0.82593 0.60625 0.0
C2023 C 0.1322 0.82729 0.68754 0.0
C2024 C 0.106 0.81138 0.6341 0.0
C2025 C 0.12796 0.82802 0.71273 0.0
C2026 C 0.15393 0.80959 0.53214 0.0
C2027 C 0.1559 0.80865 0.55746 0.0
C2028 C 0.17785 0.82176 0.61391 0.0
C2029 C 0.1241 0.81817 0.6756 0.0
C2030 C 0.13362 0.81715 0.64923 0.0
C2031 C 0.15302 0.81718 0.57223 0.0
C2032 C 0.14931 0.81629 0.59882 0.0
H2033 H 0.09339 0.80423 0.72465 0.0
H2034 H 0.10205 0.80285 0.68067 0.0
H2035 H 0.19315 0.82636 0.65013 0.0
H2036 H 0.14182 0.83492 0.5284 0.0
H2037 H 0.14703 0.83331 0.57263 0.0
C2038 C 0.12145 0.41338 0.70979 0.0
C2039 C 0.13232 0.42185 0.72356 0.0
C2040 C 0.11699 0.41409 0.68463 0.0
C2041 C 0.1368 0.43053 0.63132 0.0
H2042 H 0.04012 0.41482 0.60433 0.0
C2043 C 0.08542 0.43255 0.53033 0.0
C2044 C 0.09336 0.42329 0.51912 0.0
C2045 C 0.08344 0.4332 0.55568 0.0
C2046 C 0.06689 0.41931 0.61175 0.0
H2047 H 0.14918 0.43759 0.72203 0.0
H2048 H 0.14008 0.43893 0.67802 0.0
H2049 H 0.05463 0.41429 0.64799 0.0
H2050 H 0.10207 0.4074 0.52503 0.0
H2051 H 0.09693 0.4085 0.56935 0.0
H2052 H 0.14845 0.43559 0.59484 0.0
C2053 C 0.13586 0.43169 0.68651 0.0
C2054 C 0.07568 0.41892 0.63663 0.0
C2055 C 0.14119 0.43093 0.7117 0.0
C2056 C 0.09599 0.41461 0.53337 0.0
C2057 C 0.09293 0.41524 0.55861 0.0
C2058 C 0.12747 0.43105 0.60646 0.0
C2059 C 0.12227 0.42334 0.67282 0.0
C2060 C 0.1115 0.42431 0.6466 0.0
C2061 C 0.08818 0.42457 0.56994 0.0
C2062 C 0.09309 0.42527 0.59649 0.0
H2063 H 0.11483 0.40629 0.7186 0.0
H2064 H 0.10806 0.40744 0.67453 0.0
H2065 H 0.16474 0.43474 0.63836 0.0
H2066 H 0.08365 0.43934 0.51962 0.0
H2067 H 0.07974 0.44046 0.56419 0.0
C2068 C 0.85263 0.19068 0.27194 0.0
C2069 C 0.89515 0.18828 0.26308 0.0
C2070 C 0.84553 0.19201 0.29678 0.0
C2071 C 0.90055 0.19695 0.35513 0.0
H2072 H 0.8031 0.18155 0.38225 0.0
C2073 C 0.89011 0.18698 0.45626 0.0
C2074 C 0.84835 0.18629 0.46758 0.0
C2075 C 0.89336 0.18884 0.4314 0.0
C2076 C 0.82983 0.18607 0.37497 0.0
H2077 H 0.96395 0.18577 0.27311 0.0
H2078 H 0.95145 0.18809 0.31681 0.0
H2079 H 0.81438 0.18188 0.33837 0.0
H2080 H 0.77719 0.18736 0.46197 0.0
H2081 H 0.78284 0.19079 0.41829 0.0
H2082 H 0.91627 0.20109 0.39174 0.0
C2083 C 0.92372 0.18896 0.30441 0.0
C2084 C 0.8364 0.18622 0.34984 0.0
C2085 C 0.93082 0.18758 0.27947 0.0
C2086 C 0.80979 0.18778 0.45365 0.0
C2087 C 0.81306 0.18971 0.42868 0.0
C2088 C 0.89377 0.19687 0.38027 0.0
C2089 C 0.88082 0.19101 0.31328 0.0
C2090 C 0.87226 0.19152 0.33974 0.0
C2091 C 0.85492 0.19013 0.41726 0.0
C2092 C 0.85887 0.19126 0.3905 0.0
H2093 H 0.82448 0.19134 0.25975 0.0
H2094 H 0.81228 0.1937 0.30314 0.0
H2095 H 0.92806 0.2012 0.34772 0.0
H2096 H 0.92049 0.18586 0.4665 0.0
H2097 H 0.92607 0.18893 0.42316 0.0
C2098 C 0.93818 0.55816 0.45935 0.0
C2099 C 0.90117 0.55722 0.47477 0.0
C2100 C 0.93289 0.55746 0.43409 0.0
C2101 C 0.84931 0.56148 0.38706 0.0
H2102 H 0.92533 0.54531 0.34589 0.0
C2103 C 0.81528 0.55721 0.28447 0.0
C2104 C 0.85258 0.55763 0.26917 0.0
C2105 C 0.82071 0.55635 0.30967 0.0
C2106 C 0.90409 0.54994 0.35713 0.0
H2107 H 0.82996 0.55451 0.47598 0.0
H2108 H 0.82097 0.55335 0.43215 0.0
H2109 H 0.9377 0.54555 0.38986 0.0
H2110 H 0.92474 0.55739 0.2681 0.0
H2111 H 0.93415 0.55617 0.31183 0.0
H2112 H 0.81633 0.56609 0.35452 0.0
C2113 C 0.85386 0.55471 0.43949 0.0
C2114 C 0.91121 0.55006 0.38224 0.0
C2115 C 0.85914 0.55533 0.46459 0.0
C2116 C 0.89529 0.55704 0.27942 0.0
C2117 C 0.90072 0.55627 0.30451 0.0
C2118 C 0.84244 0.56143 0.36197 0.0
C2119 C 0.89051 0.55589 0.424 0.0
C2120 C 0.8838 0.55582 0.39739 0.0
C2121 C 0.86355 0.55597 0.31995 0.0
C2122 C 0.86975 0.55567 0.34671 0.0
H2123 H 0.97094 0.5596 0.46674 0.0
H2124 H 0.96164 0.55843 0.42243 0.0
H2125 H 0.82807 0.56608 0.39838 0.0
H2126 H 0.78198 0.5576 0.27702 0.0
H2127 H 0.79138 0.556 0.32107 0.0
C2128 C 0.55919 0.32199 0.52651 0.0
C2129 C 0.59071 0.31581 0.51508 0.0
C2130 C 0.56029 0.32344 0.5516 0.0
C2131 C 0.63261 0.32154 0.6052 0.0
H2132 H 0.52091 0.32032 0.64051 0.0
C2133 C 0.57335 0.31591 0.70977 0.0
C2134 C 0.60289 0.32255 0.72125 0.0
C2135 C 0.56832 0.31608 0.68451 0.0
C2136 C 0.55229 0.32067 0.63087 0.0
H2137 H 0.64858 0.30642 0.52097 0.0
H2138 H 0.65018 0.30889 0.56501 0.0
H2139 H 0.52125 0.31828 0.59633 0.0
H2140 H 0.64753 0.33509 0.71544 0.0
H2141 H 0.63832 0.33542 0.67146 0.0
H2142 H 0.6638 0.32365 0.63977 0.0
C2143 C 0.62493 0.31269 0.55441 0.0
C2144 C 0.55249 0.31959 0.60561 0.0
C2145 C 0.62394 0.31126 0.52923 0.0
C2146 C 0.62496 0.32978 0.70715 0.0
C2147 C 0.6199 0.32995 0.68194 0.0
C2148 C 0.6324 0.32264 0.63044 0.0
C2149 C 0.59283 0.31872 0.56583 0.0
C2150 C 0.59268 0.31998 0.59256 0.0
C2151 C 0.59266 0.3229 0.67034 0.0
C2152 C 0.59226 0.32219 0.6435 0.0
H2153 H 0.53344 0.3257 0.51611 0.0
H2154 H 0.53567 0.32827 0.55986 0.0
H2155 H 0.664 0.32195 0.59558 0.0
H2156 H 0.55583 0.31025 0.7201 0.0
H2157 H 0.54718 0.31054 0.67599 0.0
C2158 C 0.65288 0.92926 0.5472 0.0
C2159 C 0.61861 0.92933 0.52983 0.0
C2160 C 0.64473 0.93231 0.571 0.0
C2161 C 0.55968 0.93325 0.61669 0.0
H2162 H 0.64214 0.95088 0.64996 0.0
C2163 C 0.54717 0.94042 0.71982 0.0
C2164 C 0.58766 0.94001 0.7326 0.0
C2165 C 0.54677 0.94092 0.69444 0.0
C2166 C 0.61893 0.94592 0.64095 0.0
H2167 H 0.5489 0.93269 0.52372 0.0
H2168 H 0.5344 0.93779 0.56588 0.0
H2169 H 0.64873 0.94842 0.60607 0.0
H2170 H 0.65949 0.94004 0.72873 0.0
H2171 H 0.65876 0.94063 0.68453 0.0
H2172 H 0.53134 0.93029 0.65162 0.0
C2173 C 0.56759 0.93545 0.56079 0.0
C2174 C 0.62257 0.94457 0.61587 0.0
C2175 C 0.57592 0.93254 0.53676 0.0
C2176 C 0.62772 0.94033 0.71948 0.0
C2177 C 0.62729 0.94077 0.69411 0.0
C2178 C 0.5563 0.93452 0.64184 0.0
C2179 C 0.60205 0.93539 0.57802 0.0
C2180 C 0.59371 0.93803 0.60367 0.0
C2181 C 0.58682 0.94098 0.6813 0.0
C2182 C 0.58666 0.94067 0.65433 0.0
H2183 H 0.68622 0.92691 0.54239 0.0
H2184 H 0.67168 0.93208 0.58409 0.0
H2185 H 0.5373 0.92811 0.60765 0.0
H2186 H 0.51567 0.94029 0.72937 0.0
H2187 H 0.51507 0.94121 0.68512 0.0
C2188 C 0.39533 0.6893 0.46258 0.0
C2189 C 0.35272 0.68677 0.47111 0.0
C2190 C 0.40357 0.6901 0.43771 0.0
C2191 C 0.35063 0.69322 0.37805 0.0
H2192 H 0.45165 0.67804 0.35425 0.0
C2193 C 0.36576 0.68145 0.27859 0.0
C2194 C 0.40768 0.6815 0.26733 0.0
C2195 C 0.36174 0.68329 0.3034 0.0
C2196 C 0.42386 0.68248 0.36061 0.0
H2197 H 0.28489 0.68351 0.46041 0.0
H2198 H 0.29937 0.68493 0.41669 0.0
H2199 H 0.43858 0.67935 0.39794 0.0
H2200 H 0.47835 0.68355 0.27313 0.0
H2201 H 0.47129 0.68689 0.31685 0.0
H2202 H 0.33562 0.69628 0.34075 0.0
C2203 C 0.32629 0.6863 0.42936 0.0
C2204 C 0.4163 0.6832 0.38561 0.0
C2205 C 0.31804 0.68544 0.45432 0.0
C2206 C 0.44567 0.68342 0.28141 0.0
C2207 C 0.44161 0.68532 0.30638 0.0
C2208 C 0.35836 0.69256 0.35306 0.0
C2209 C 0.36935 0.68845 0.42087 0.0
C2210 C 0.37915 0.68842 0.39451 0.0
C2211 C 0.3995 0.6853 0.31757 0.0
C2212 C 0.39448 0.68699 0.34407 0.0
H2213 H 0.4227 0.69044 0.47509 0.0
H2214 H 0.4369 0.6919 0.43163 0.0
H2215 H 0.32216 0.69741 0.3845 0.0
H2216 H 0.33583 0.67993 0.26827 0.0
H2217 H 0.32896 0.68298 0.31154 0.0
C2218 C 0.33687 0.05448 0.46575 0.0
C2219 C 0.37978 0.05623 0.47493 0.0
C2220 C 0.32965 0.05384 0.44074 0.0
C2221 C 0.38493 0.04897 0.38265 0.0
H2222 H 0.29097 0.0653 0.35507 0.0
C2223 C 0.37961 0.05878 0.28159 0.0
C2224 C 0.33843 0.05939 0.26964 0.0
C2225 C 0.38161 0.05732 0.30663 0.0
C2226 C 0.31674 0.06054 0.3625 0.0
H2227 H 0.44895 0.05847 0.46526 0.0
H2228 H 0.43629 0.0573 0.42134 0.0
H2229 H 0.30092 0.0647 0.39913 0.0
H2230 H 0.26695 0.05881 0.27443 0.0
H2231 H 0.27041 0.0561 0.31852 0.0
H2232 H 0.40095 0.04482 0.34612 0.0
C2233 C 0.40834 0.05641 0.43359 0.0
C2234 C 0.32255 0.06023 0.3877 0.0
C2235 C 0.41553 0.05714 0.45866 0.0
C2236 C 0.29913 0.05842 0.28323 0.0
C2237 C 0.30114 0.05689 0.30842 0.0
C2238 C 0.37891 0.04921 0.35749 0.0
C2239 C 0.36525 0.05485 0.42445 0.0
C2240 C 0.35722 0.0546 0.39794 0.0
C2241 C 0.34247 0.05634 0.32035 0.0
C2242 C 0.34538 0.05517 0.34711 0.0
H2243 H 0.30864 0.05372 0.47786 0.0
H2244 H 0.2962 0.05254 0.43414 0.0
H2245 H 0.41142 0.04443 0.39016 0.0
H2246 H 0.41054 0.05955 0.27165 0.0
H2247 H 0.41394 0.05716 0.31529 0.0
C2248 C 0.65224 0.8134 0.02046 0.0
C2249 C 0.63539 0.82116 0.00597 0.0
C2250 C 0.64731 0.81371 0.04569 0.0
C2251 C 0.57616 0.82587 0.09232 0.0
H2252 H 0.65656 0.81252 0.13689 0.0
C2253 C 0.58972 0.8293 0.1978 0.0
C2254 C 0.58796 0.82018 0.21039 0.0
C2255 C 0.58793 0.82945 0.17244 0.0
C2256 C 0.6337 0.81617 0.1245 0.0
H2257 H 0.60386 0.83571 0.00636 0.0
H2258 H 0.59782 0.83658 0.05056 0.0
H2259 H 0.67588 0.81365 0.09387 0.0
H2260 H 0.58033 0.80415 0.20686 0.0
H2261 H 0.57877 0.80439 0.16217 0.0
H2262 H 0.53538 0.82882 0.1236 0.0
C2263 C 0.61279 0.83002 0.04248 0.0
C2264 C 0.64464 0.81683 0.09988 0.0
C2265 C 0.61677 0.8296 0.01719 0.0
C2266 C 0.58127 0.81127 0.19745 0.0
C2267 C 0.58063 0.81139 0.17203 0.0
C2268 C 0.56577 0.8254 0.11707 0.0
C2269 C 0.62629 0.82189 0.05697 0.0
C2270 C 0.6159 0.82164 0.08342 0.0
C2271 C 0.5854 0.82046 0.15946 0.0
C2272 C 0.59433 0.82048 0.1332 0.0
H2273 H 0.66628 0.80675 0.01222 0.0
H2274 H 0.65776 0.80726 0.05612 0.0
H2275 H 0.55266 0.82943 0.08017 0.0
H2276 H 0.595 0.83625 0.20751 0.0
H2277 H 0.59186 0.83649 0.16296 0.0
C2278 C 0.69736 0.42046 0.015 0.0
C2279 C 0.6608 0.42556 0.00499 0.0
C2280 C 0.69855 0.41819 0.03979 0.0
C2281 C 0.62678 0.41566 0.09376 0.0
H2282 H 0.73518 0.42091 0.12985 0.0
C2283 C 0.67683 0.42437 0.19814 0.0
C2284 C 0.64966 0.41729 0.20973 0.0
C2285 C 0.68413 0.42382 0.17307 0.0
C2286 C 0.70474 0.4194 0.11998 0.0
H2287 H 0.59676 0.43227 0.01318 0.0
H2288 H 0.59916 0.42842 0.05642 0.0
H2289 H 0.73413 0.42322 0.08573 0.0
H2290 H 0.61215 0.40358 0.20473 0.0
H2291 H 0.6257 0.40251 0.16113 0.0
H2292 H 0.59667 0.41232 0.12795 0.0
C2293 C 0.62655 0.42602 0.04502 0.0
C2294 C 0.70423 0.42063 0.09474 0.0
C2295 C 0.62528 0.42827 0.02025 0.0
C2296 C 0.63259 0.40926 0.19618 0.0
C2297 C 0.64023 0.40865 0.17122 0.0
C2298 C 0.62724 0.41446 0.11893 0.0
C2299 C 0.66326 0.421 0.05504 0.0
C2300 C 0.665 0.41893 0.08146 0.0
C2301 C 0.66469 0.41612 0.15927 0.0
C2302 C 0.66604 0.41645 0.13236 0.0
H2303 H 0.7252 0.41822 0.00374 0.0
H2304 H 0.72703 0.41422 0.04699 0.0
H2305 H 0.59624 0.41418 0.08395 0.0
H2306 H 0.69039 0.43065 0.20815 0.0
H2307 H 0.70288 0.42973 0.16435 0.0
C2308 C 0.42083 0.18482 0.78078 0.0
C2309 C 0.38518 0.18483 0.7643 0.0
C2310 C 0.41312 0.18629 0.80562 0.0
C2311 C 0.32756 0.18281 0.85164 0.0
H2312 H 0.40145 0.20017 0.8911 0.0
C2313 C 0.30192 0.18616 0.95535 0.0
C2314 C 0.34115 0.18579 0.96916 0.0
C2315 C 0.30398 0.18755 0.93013 0.0
C2316 C 0.38066 0.19525 0.88034 0.0
H2317 H 0.31368 0.18655 0.7607 0.0
H2318 H 0.30036 0.18902 0.80403 0.0
H2319 H 0.41269 0.19955 0.84709 0.0
H2320 H 0.41314 0.18681 0.9676 0.0
H2321 H 0.41674 0.18896 0.92387 0.0
H2322 H 0.29668 0.17819 0.88482 0.0
C2323 C 0.33413 0.18785 0.79778 0.0
C2324 C 0.38712 0.19492 0.85519 0.0
C2325 C 0.34185 0.18647 0.77299 0.0
C2326 C 0.38227 0.18706 0.95746 0.0
C2327 C 0.38434 0.18839 0.93236 0.0
C2328 C 0.32137 0.18308 0.8768 0.0
C2329 C 0.36962 0.1877 0.81432 0.0
C2330 C 0.36104 0.18859 0.84069 0.0
C2331 C 0.34531 0.18856 0.91836 0.0
C2332 C 0.34837 0.18917 0.89147 0.0
H2333 H 0.45456 0.18359 0.77455 0.0
H2334 H 0.44101 0.18606 0.81809 0.0
H2335 H 0.30727 0.1778 0.84085 0.0
H2336 H 0.26976 0.18526 0.96396 0.0
H2337 H 0.27329 0.18775 0.91984 0.0
C2338 C 0.35109 0.556 0.95784 0.0
C2339 C 0.39401 0.55711 0.96758 0.0
C2340 C 0.34477 0.55541 0.93279 0.0
C2341 C 0.39877 0.54973 0.87497 0.0
H2342 H 0.30911 0.56739 0.84793 0.0
C2343 C 0.38472 0.55721 0.77243 0.0
C2344 C 0.34228 0.55837 0.76214 0.0
C2345 C 0.38989 0.55642 0.79753 0.0
C2346 C 0.3337 0.56229 0.8552 0.0
H2347 H 0.46415 0.5581 0.95883 0.0
H2348 H 0.45299 0.55699 0.91466 0.0
H2349 H 0.32151 0.56707 0.89176 0.0
H2350 H 0.27184 0.55945 0.76995 0.0
H2351 H 0.28075 0.55787 0.81408 0.0
H2352 H 0.41078 0.54488 0.83847 0.0
C2353 C 0.42436 0.5566 0.9266 0.0
C2354 C 0.34095 0.56214 0.88027 0.0
C2355 C 0.43073 0.55726 0.95179 0.0
C2356 C 0.30494 0.55861 0.77744 0.0
C2357 C 0.31011 0.55775 0.80267 0.0
C2358 C 0.39127 0.54981 0.84989 0.0
C2359 C 0.3812 0.55585 0.91692 0.0
C2360 C 0.37367 0.5559 0.89036 0.0
C2361 C 0.35272 0.55668 0.81296 0.0
C2362 C 0.35888 0.55615 0.83971 0.0
H2363 H 0.32209 0.55579 0.96952 0.0
H2364 H 0.31124 0.55468 0.9258 0.0
H2365 H 0.42382 0.54477 0.88237 0.0
H2366 H 0.41423 0.55705 0.76113 0.0
H2367 H 0.42322 0.55581 0.80485 0.0
loop_
_geom_bond_atom_site_label_1
_geom_bond_atom_site_label_2
_geom_bond_distance
_geom_bond_site_symmetry_2
_ccdc_geom_bond_type
Co0 O1 2.216 . S
Co0 O2 2.091 . S
Co0 O4 2.004 . S
Co0 O10 2.021 . S
Co0 O12 2.137 . S
Co0 O13 2.244 . S
O1 Co0 2.216 . S
O1 C8 1.247 . S
O2 Co0 2.091 . S
O2 C8 1.261 . S
C3 O12 1.247 . S
C3 O13 1.272 . S
O4 Co0 2.004 . S
O4 C9 1.259 . S
Co5 O6 2.061 . S
Co5 O11 2.052 . S
Co5 O13 2.135 . S
O6 Co5 2.061 . S
O6 C9 1.235 . S
C7 O10 1.238 . S
C7 O11 1.241 . S
C8 O1 1.247 . S
C8 O2 1.261 . S
C9 O4 1.259 . S
C9 O6 1.235 . S
O10 Co0 2.021 . S
O10 C7 1.238 . S
O11 Co5 2.052 . S
O11 C7 1.241 . S
O12 Co0 2.137 . S
O12 C3 1.247 . S
O13 Co0 2.244 . S
O13 C3 1.272 . S
O13 Co5 2.135 . S
Co14 O15 2.216 . S
Co14 O16 2.091 . S
Co14 O18 2.004 . S
Co14 O24 2.021 . S
Co14 O26 2.137 . S
Co14 O27 2.244 . S
O15 Co14 2.216 . S
O15 C22 1.247 . S
O16 Co14 2.091 . S
O16 C22 1.261 . S
C17 O26 1.247 . S
C17 O27 1.272 . S
O18 Co14 2.004 . S
O18 C23 1.259 . S
Co19 O20 2.061 . S
Co19 O25 2.052 . S
Co19 O27 2.135 . S
O20 Co19 2.061 . S
O20 C23 1.235 . S
C21 O24 1.238 . S
C21 O25 1.241 . S
C22 O15 1.247 . S
C22 O16 1.261 . S
C23 O18 1.259 . S
C23 O20 1.235 . S
O24 Co14 2.021 . S
O24 C21 1.238 . S
O25 Co19 2.052 . S
O25 C21 1.241 . S
O26 Co14 2.137 . S
O26 C17 1.247 . S
O27 Co14 2.244 . S
O27 C17 1.272 . S
O27 Co19 2.135 . S
Co28 O29 2.216 . S
Co28 O30 2.091 . S
Co28 O32 2.004 . S
Co28 O38 2.021 . S
Co28 O40 2.137 . S
Co28 O41 2.244 . S
O29 Co28 2.216 . S
O29 C36 1.247 . S
O30 Co28 2.091 . S
O30 C36 1.261 . S
C31 O40 1.247 . S
C31 O41 1.272 . S
O32 Co28 2.004 . S
O32 C37 1.259 . S
Co33 O34 2.061 . S
Co33 O39 2.052 1_556 S
Co33 O41 2.135 . S
O34 Co33 2.061 . S
O34 C37 1.235 . S
C35 O38 1.238 1_554 S
C35 O39 1.241 . S
C36 O29 1.247 . S
C36 O30 1.261 . S
C37 O32 1.259 . S
C37 O34 1.235 . S
O38 Co28 2.021 . S
O38 C35 1.238 1_556 S
O39 Co33 2.052 1_554 S
O39 C35 1.241 . S
O40 Co28 2.137 . S
O40 C31 1.247 . S
O41 Co28 2.244 . S
O41 C31 1.272 . S
O41 Co33 2.135 . S
Co42 O43 2.216 . S
Co42 O44 2.091 . S
Co42 O46 2.004 . S
Co42 O52 2.021 . S
Co42 O54 2.137 . S
Co42 O55 2.244 . S
O43 Co42 2.216 . S
O43 C50 1.247 . S
O44 Co42 2.091 . S
O44 C50 1.261 . S
C45 O54 1.247 . S
C45 O55 1.272 . S
O46 Co42 2.004 . S
O46 C51 1.259 . S
Co47 O48 2.061 . S
Co47 O53 2.052 1_556 S
Co47 O55 2.135 . S
O48 Co47 2.061 . S
O48 C51 1.235 . S
C49 O52 1.238 1_554 S
C49 O53 1.241 . S
C50 O43 1.247 . S
C50 O44 1.261 . S
C51 O46 1.259 . S
C51 O48 1.235 . S
O52 Co42 2.021 . S
O52 C49 1.238 1_556 S
O53 Co47 2.052 1_554 S
O53 C49 1.241 . S
O54 Co42 2.137 . S
O54 C45 1.247 . S
O55 Co42 2.244 . S
O55 C45 1.272 . S
O55 Co47 2.135 . S
Co56 O57 2.216 . S
Co56 O58 2.091 . S
Co56 O60 2.004 . S
Co56 O66 2.021 . S
Co56 O68 2.137 . S
Co56 O69 2.244 . S
O57 Co56 2.216 . S
O57 C64 1.247 . S
O58 Co56 2.091 . S
O58 C64 1.261 . S
C59 O68 1.247 . S
C59 O69 1.272 . S
O60 Co56 2.004 . S
O60 C65 1.259 . S
Co61 O62 2.061 . S
Co61 O67 2.052 . S
Co61 O69 2.135 . S
O62 Co61 2.061 . S
O62 C65 1.235 . S
C63 O66 1.238 . S
C63 O67 1.241 . S
C64 O57 1.247 . S
C64 O58 1.261 . S
C65 O60 1.259 . S
C65 O62 1.235 . S
O66 Co56 2.021 . S
O66 C63 1.238 . S
O67 Co61 2.052 . S
O67 C63 1.241 . S
O68 Co56 2.137 . S
O68 C59 1.247 . S
O69 Co56 2.244 . S
O69 C59 1.272 . S
O69 Co61 2.135 . S
Co70 O71 2.216 . S
Co70 O72 2.091 . S
Co70 O74 2.004 . S
Co70 O80 2.021 . S
Co70 O82 2.137 . S
Co70 O83 2.244 . S
O71 Co70 2.216 . S
O71 C78 1.247 . S
O72 Co70 2.091 . S
O72 C78 1.261 . S
C73 O82 1.247 . S
C73 O83 1.272 . S
O74 Co70 2.004 . S
O74 C79 1.259 . S
Co75 O76 2.061 . S
Co75 O81 2.052 . S
Co75 O83 2.135 . S
O76 Co75 2.061 . S
O76 C79 1.235 . S
C77 O80 1.238 . S
C77 O81 1.241 . S
C78 O71 1.247 . S
C78 O72 1.261 . S
C79 O74 1.259 . S
C79 O76 1.235 . S
O80 Co70 2.021 . S
O80 C77 1.238 . S
O81 Co75 2.052 . S
O81 C77 1.241 . S
O82 Co70 2.137 . S
O82 C73 1.247 . S
O83 Co70 2.244 . S
O83 C73 1.272 . S
O83 Co75 2.135 . S
Co84 O85 2.216 . S
Co84 O86 2.091 1_554 S
Co84 O88 2.004 . S
Co84 O94 2.021 . S
Co84 O96 2.137 . S
Co84 O97 2.244 . S
O85 Co84 2.216 . S
O85 C92 1.247 1_554 S
O86 Co84 2.091 1_556 S
O86 C92 1.261 . S
C87 O96 1.247 . S
C87 O97 1.272 . S
O88 Co84 2.004 . S
O88 C93 1.259 . S
Co89 O90 2.061 . S
Co89 O95 2.052 . S
Co89 O97 2.135 . S
O90 Co89 2.061 . S
O90 C93 1.235 . S
C91 O94 1.238 . S
C91 O95 1.241 . S
C92 O85 1.247 1_556 S
C92 O86 1.261 . S
C93 O88 1.259 . S
C93 O90 1.235 . S
O94 Co84 2.021 . S
O94 C91 1.238 . S
O95 Co89 2.052 . S
O95 C91 1.241 . S
O96 Co84 2.137 . S
O96 C87 1.247 . S
O97 Co84 2.244 . S
O97 C87 1.272 . S
O97 Co89 2.135 . S
Co98 O99 2.216 . S
Co98 O100 2.091 1_554 S
Co98 O102 2.004 . S
Co98 O108 2.021 . S
Co98 O110 2.137 . S
Co98 O111 2.244 . S
O99 Co98 2.216 . S
O99 C106 1.247 1_554 S
O100 Co98 2.091 1_556 S
O100 C106 1.261 . S
C101 O110 1.247 . S
C101 O111 1.272 . S
O102 Co98 2.004 . S
O102 C107 1.259 . S
Co103 O104 2.061 . S
Co103 O109 2.052 . S
Co103 O111 2.135 . S
O104 Co103 2.061 . S
O104 C107 1.235 . S
C105 O108 1.238 . S
C105 O109 1.241 . S
C106 O99 1.247 1_556 S
C106 O100 1.261 . S
C107 O102 1.259 . S
C107 O104 1.235 . S
O108 Co98 2.021 . S
O108 C105 1.238 . S
O109 Co103 2.052 . S
O109 C105 1.241 . S
O110 Co98 2.137 . S
O110 C101 1.247 . S
O111 Co98 2.244 . S
O111 C101 1.272 . S
O111 Co103 2.135 . S
Co112 O113 2.216 . S
Co112 O114 2.091 . S
Co112 O116 2.004 . S
Co112 O122 2.021 . S
Co112 O124 2.137 . S
Co112 O125 2.244 . S
O113 Co112 2.216 . S
O113 C120 1.247 . S
O114 Co112 2.091 . S
O114 C120 1.261 . S
C115 O124 1.247 . S
C115 O125 1.272 . S
O116 Co112 2.004 . S
O116 C121 1.259 . S
Co117 O118 2.061 . S
Co117 O123 2.052 . S
Co117 O125 2.135 . S
O118 Co117 2.061 . S
O118 C121 1.235 . S
C119 O122 1.238 . S
C119 O123 1.241 . S
C120 O113 1.247 . S
C120 O114 1.261 . S
C121 O116 1.259 . S
C121 O118 1.235 . S
O122 Co112 2.021 . S
O122 C119 1.238 . S
O123 Co117 2.052 . S
O123 C119 1.241 . S
O124 Co112 2.137 . S
O124 C115 1.247 . S
O125 Co112 2.244 . S
O125 C115 1.272 . S
O125 Co117 2.135 . S
Co126 O127 2.216 . S
Co126 O128 2.091 . S
Co126 O130 2.004 . S
Co126 O136 2.021 . S
Co126 O138 2.137 . S
Co126 O139 2.244 . S
O127 Co126 2.216 . S
O127 C134 1.247 . S
O128 Co126 2.091 . S
O128 C134 1.261 . S
C129 O138 1.247 . S
C129 O139 1.272 . S
O130 Co126 2.004 . S
O130 C135 1.259 . S
Co131 O132 2.061 . S
Co131 O137 2.052 . S
Co131 O139 2.135 . S
O132 Co131 2.061 . S
O132 C135 1.235 . S
C133 O136 1.238 . S
C133 O137 1.241 . S
C134 O127 1.247 . S
C134 O128 1.261 . S
C135 O130 1.259 . S
C135 O132 1.235 . S
O136 Co126 2.021 . S
O136 C133 1.238 . S
O137 Co131 2.052 . S
O137 C133 1.241 . S
O138 Co126 2.137 . S
O138 C129 1.247 . S
O139 Co126 2.244 . S
O139 C129 1.272 . S
O139 Co131 2.135 . S
Co140 O141 2.216 . S
Co140 O142 2.091 . S
Co140 O144 2.004 . S
Co140 O150 2.021 . S
Co140 O152 2.137 . S
Co140 O153 2.244 . S
O141 Co140 2.216 . S
O141 C148 1.247 . S
O142 Co140 2.091 . S
O142 C148 1.261 . S
C143 O152 1.247 . S
C143 O153 1.272 . S
O144 Co140 2.004 . S
O144 C149 1.259 . S
Co145 O146 2.061 . S
Co145 O151 2.052 . S
Co145 O153 2.135 . S
O146 Co145 2.061 . S
O146 C149 1.235 . S
C147 O150 1.238 . S
C147 O151 1.241 . S
C148 O141 1.247 . S
C148 O142 1.261 . S
C149 O144 1.259 . S
C149 O146 1.235 . S
O150 Co140 2.021 . S
O150 C147 1.238 . S
O151 Co145 2.052 . S
O151 C147 1.241 . S
O152 Co140 2.137 . S
O152 C143 1.247 . S
O153 Co140 2.244 . S
O153 C143 1.272 . S
O153 Co145 2.135 . S
Co154 O155 2.216 . S
Co154 O156 2.091 . S
Co154 O158 2.004 . S
Co154 O164 2.021 . S
Co154 O166 2.137 . S
Co154 O167 2.244 . S
O155 Co154 2.216 . S
O155 C162 1.247 . S
O156 Co154 2.091 . S
O156 C162 1.261 . S
C157 O166 1.247 . S
C157 O167 1.272 . S
O158 Co154 2.004 . S
O158 C163 1.259 . S
Co159 O160 2.061 . S
Co159 O165 2.052 . S
Co159 O167 2.135 . S
O160 Co159 2.061 . S
O160 C163 1.235 . S
C161 O164 1.238 . S
C161 O165 1.241 . S
C162 O155 1.247 . S
C162 O156 1.261 . S
C163 O158 1.259 . S
C163 O160 1.235 . S
O164 Co154 2.021 . S
O164 C161 1.238 . S
O165 Co159 2.052 . S
O165 C161 1.241 . S
O166 Co154 2.137 . S
O166 C157 1.247 . S
O167 Co154 2.244 . S
O167 C157 1.272 . S
O167 Co159 2.135 . S
Co168 O169 2.216 . S
Co168 O170 2.091 . S
Co168 O172 2.004 . S
Co168 O178 2.021 . S
Co168 O180 2.137 . S
Co168 O181 2.244 . S
O169 Co168 2.216 . S
O169 C176 1.247 . S
O170 Co168 2.091 . S
O170 C176 1.261 . S
C171 O180 1.247 . S
C171 O181 1.272 . S
O172 Co168 2.004 . S
O172 C177 1.259 . S
Co173 O174 2.061 . S
Co173 O179 2.052 . S
Co173 O181 2.135 . S
O174 Co173 2.061 . S
O174 C177 1.235 . S
C175 O178 1.238 . S
C175 O179 1.241 . S
C176 O169 1.247 . S
C176 O170 1.261 . S
C177 O172 1.259 . S
C177 O174 1.235 . S
O178 Co168 2.021 . S
O178 C175 1.238 . S
O179 Co173 2.052 . S
O179 C175 1.241 . S
O180 Co168 2.137 . S
O180 C171 1.247 . S
O181 Co168 2.244 . S
O181 C171 1.272 . S
O181 Co173 2.135 . S
Co182 O183 2.216 . S
Co182 O184 2.091 . S
Co182 O186 2.004 . S
Co182 O192 2.021 . S
Co182 O194 2.137 . S
Co182 O195 2.244 . S
O183 Co182 2.216 . S
O183 C190 1.247 . S
O184 Co182 2.091 . S
O184 C190 1.261 . S
C185 O194 1.247 . S
C185 O195 1.272 . S
O186 Co182 2.004 . S
O186 C191 1.259 . S
Co187 O188 2.061 . S
Co187 O193 2.052 . S
Co187 O195 2.135 . S
O188 Co187 2.061 . S
O188 C191 1.235 . S
C189 O192 1.238 . S
C189 O193 1.241 . S
C190 O183 1.247 . S
C190 O184 1.261 . S
C191 O186 1.259 . S
C191 O188 1.235 . S
O192 Co182 2.021 . S
O192 C189 1.238 . S
O193 Co187 2.052 . S
O193 C189 1.241 . S
O194 Co182 2.137 . S
O194 C185 1.247 . S
O195 Co182 2.244 . S
O195 C185 1.272 . S
O195 Co187 2.135 . S
Co196 O197 2.216 . S
Co196 O198 2.091 . S
Co196 O200 2.004 . S
Co196 O206 2.021 . S
Co196 O208 2.137 . S
Co196 O209 2.244 . S
O197 Co196 2.216 . S
O197 C204 1.247 . S
O198 Co196 2.091 . S
O198 C204 1.261 . S
C199 O208 1.247 . S
C199 O209 1.272 . S
O200 Co196 2.004 . S
O200 C205 1.259 . S
Co201 O202 2.061 . S
Co201 O207 2.052 . S
Co201 O209 2.135 . S
O202 Co201 2.061 . S
O202 C205 1.235 . S
C203 O206 1.238 . S
C203 O207 1.241 . S
C204 O197 1.247 . S
C204 O198 1.261 . S
C205 O200 1.259 . S
C205 O202 1.235 . S
O206 Co196 2.021 . S
O206 C203 1.238 . S
O207 Co201 2.052 . S
O207 C203 1.241 . S
O208 Co196 2.137 . S
O208 C199 1.247 . S
O209 Co196 2.244 . S
O209 C199 1.272 . S
O209 Co201 2.135 . S
Co210 O211 2.216 . S
Co210 O212 2.091 . S
Co210 O214 2.004 . S
Co210 O220 2.021 . S
Co210 O222 2.137 . S
Co210 O223 2.244 . S
O211 Co210 2.216 . S
O211 C218 1.247 . S
O212 Co210 2.091 . S
O212 C218 1.261 . S
C213 O222 1.247 . S
C213 O223 1.272 . S
O214 Co210 2.004 . S
O214 C219 1.259 . S
Co215 O216 2.061 . S
Co215 O221 2.052 . S
Co215 O223 2.135 . S
O216 Co215 2.061 . S
O216 C219 1.235 . S
C217 O220 1.238 . S
C217 O221 1.241 . S
C218 O211 1.247 . S
C218 O212 1.261 . S
C219 O214 1.259 . S
C219 O216 1.235 . S
O220 Co210 2.021 . S
O220 C217 1.238 . S
O221 Co215 2.052 . S
O221 C217 1.241 . S
O222 Co210 2.137 . S
O222 C213 1.247 . S
O223 Co210 2.244 . S
O223 C213 1.272 . S
O223 Co215 2.135 . S
Co224 O225 2.216 . S
Co224 O226 2.091 . S
Co224 O228 2.004 . S
Co224 O234 2.021 . S
Co224 O236 2.137 . S
Co224 O237 2.244 . S
O225 Co224 2.216 . S
O225 C232 1.247 . S
O226 Co224 2.091 . S
O226 C232 1.261 . S
C227 O236 1.247 . S
C227 O237 1.272 . S
O228 Co224 2.004 . S
O228 C233 1.259 . S
Co229 O230 2.061 . S
Co229 O235 2.052 . S
Co229 O237 2.135 . S
O230 Co229 2.061 . S
O230 C233 1.235 . S
C231 O234 1.238 . S
C231 O235 1.241 . S
C232 O225 1.247 . S
C232 O226 1.261 . S
C233 O228 1.259 . S
C233 O230 1.235 . S
O234 Co224 2.021 . S
O234 C231 1.238 . S
O235 Co229 2.052 . S
O235 C231 1.241 . S
O236 Co224 2.137 . S
O236 C227 1.247 . S
O237 Co224 2.244 . S
O237 C227 1.272 . S
O237 Co229 2.135 . S
Co238 O239 2.216 . S
Co238 O240 2.091 . S
Co238 O242 2.004 . S
Co238 O248 2.021 . S
Co238 O250 2.137 . S
Co238 O251 2.244 . S
O239 Co238 2.216 . S
O239 C246 1.247 . S
O240 Co238 2.091 . S
O240 C246 1.261 . S
C241 O250 1.247 . S
C241 O251 1.272 . S
O242 Co238 2.004 . S
O242 C247 1.259 . S
Co243 O244 2.061 . S
Co243 O249 2.052 . S
Co243 O251 2.135 . S
O244 Co243 2.061 . S
O244 C247 1.235 . S
C245 O248 1.238 . S
C245 O249 1.241 . S
C246 O239 1.247 . S
C246 O240 1.261 . S
C247 O242 1.259 . S
C247 O244 1.235 . S
O248 Co238 2.021 . S
O248 C245 1.238 . S
O249 Co243 2.052 . S
O249 C245 1.241 . S
O250 Co238 2.137 . S
O250 C241 1.247 . S
O251 Co238 2.244 . S
O251 C241 1.272 . S
O251 Co243 2.135 . S
Co252 O253 2.216 . S
Co252 O254 2.091 . S
Co252 O256 2.004 . S
Co252 O262 2.021 . S
Co252 O264 2.137 . S
Co252 O265 2.244 . S
O253 Co252 2.216 . S
O253 C260 1.247 . S
O254 Co252 2.091 . S
O254 C260 1.261 . S
C255 O264 1.247 . S
C255 O265 1.272 . S
O256 Co252 2.004 . S
O256 C261 1.259 . S
Co257 O258 2.061 . S
Co257 O263 2.052 . S
Co257 O265 2.135 . S
O258 Co257 2.061 . S
O258 C261 1.235 . S
C259 O262 1.238 . S
C259 O263 1.241 . S
C260 O253 1.247 . S
C260 O254 1.261 . S
C261 O256 1.259 . S
C261 O258 1.235 . S
O262 Co252 2.021 . S
O262 C259 1.238 . S
O263 Co257 2.052 . S
O263 C259 1.241 . S
O264 Co252 2.137 . S
O264 C255 1.247 . S
O265 Co252 2.244 . S
O265 C255 1.272 . S
O265 Co257 2.135 . S
Co266 O267 2.216 . S
Co266 O268 2.091 . S
Co266 O270 2.004 . S
Co266 O276 2.021 . S
Co266 O278 2.137 . S
Co266 O279 2.244 . S
O267 Co266 2.216 . S
O267 C274 1.247 . S
O268 Co266 2.091 . S
O268 C274 1.261 . S
C269 O278 1.247 . S
C269 O279 1.272 . S
O270 Co266 2.004 . S
O270 C275 1.259 . S
Co271 O272 2.061 . S
Co271 O277 2.052 . S
Co271 O279 2.135 . S
O272 Co271 2.061 . S
O272 C275 1.235 . S
C273 O276 1.238 . S
C273 O277 1.241 . S
C274 O267 1.247 . S
C274 O268 1.261 . S
C275 O270 1.259 . S
C275 O272 1.235 . S
O276 Co266 2.021 . S
O276 C273 1.238 . S
O277 Co271 2.052 . S
O277 C273 1.241 . S
O278 Co266 2.137 . S
O278 C269 1.247 . S
O279 Co266 2.244 . S
O279 C269 1.272 . S
O279 Co271 2.135 . S
Co280 O281 2.216 . S
Co280 O282 2.091 . S
Co280 O284 2.004 . S
Co280 O290 2.021 . S
Co280 O292 2.137 . S
Co280 O293 2.244 . S
O281 Co280 2.216 . S
O281 C288 1.247 . S
O282 Co280 2.091 . S
O282 C288 1.261 . S
C283 O292 1.247 . S
C283 O293 1.272 . S
O284 Co280 2.004 . S
O284 C289 1.259 . S
Co285 O286 2.061 . S
Co285 O291 2.052 . S
Co285 O293 2.135 . S
O286 Co285 2.061 . S
O286 C289 1.235 . S
C287 O290 1.238 . S
C287 O291 1.241 . S
C288 O281 1.247 . S
C288 O282 1.261 . S
C289 O284 1.259 . S
C289 O286 1.235 . S
O290 Co280 2.021 . S
O290 C287 1.238 . S
O291 Co285 2.052 . S
O291 C287 1.241 . S
O292 Co280 2.137 . S
O292 C283 1.247 . S
O293 Co280 2.244 . S
O293 C283 1.272 . S
O293 Co285 2.135 . S
Co294 O295 2.216 . S
Co294 O296 2.091 . S
Co294 O298 2.004 . S
Co294 O304 2.021 . S
Co294 O306 2.137 . S
Co294 O307 2.244 . S
O295 Co294 2.216 . S
O295 C302 1.247 . S
O296 Co294 2.091 . S
O296 C302 1.261 . S
C297 O306 1.247 . S
C297 O307 1.272 . S
O298 Co294 2.004 . S
O298 C303 1.259 . S
Co299 O300 2.061 . S
Co299 O305 2.052 . S
Co299 O307 2.135 . S
O300 Co299 2.061 . S
O300 C303 1.235 . S
C301 O304 1.238 . S
C301 O305 1.241 . S
C302 O295 1.247 . S
C302 O296 1.261 . S
C303 O298 1.259 . S
C303 O300 1.235 . S
O304 Co294 2.021 . S
O304 C301 1.238 . S
O305 Co299 2.052 . S
O305 C301 1.241 . S
O306 Co294 2.137 . S
O306 C297 1.247 . S
O307 Co294 2.244 . S
O307 C297 1.272 . S
O307 Co299 2.135 . S
Co308 O309 2.216 . S
Co308 O310 2.091 . S
Co308 O312 2.004 . S
Co308 O318 2.021 . S
Co308 O320 2.137 . S
Co308 O321 2.244 . S
O309 Co308 2.216 . S
O309 C316 1.247 . S
O310 Co308 2.091 . S
O310 C316 1.261 . S
C311 O320 1.247 . S
C311 O321 1.272 . S
O312 Co308 2.004 . S
O312 C317 1.259 . S
Co313 O314 2.061 . S
Co313 O319 2.052 . S
Co313 O321 2.135 . S
O314 Co313 2.061 . S
O314 C317 1.235 . S
C315 O318 1.238 . S
C315 O319 1.241 . S
C316 O309 1.247 . S
C316 O310 1.261 . S
C317 O312 1.259 . S
C317 O314 1.235 . S
O318 Co308 2.021 . S
O318 C315 1.238 . S
O319 Co313 2.052 . S
O319 C315 1.241 . S
O320 Co308 2.137 . S
O320 C311 1.247 . S
O321 Co308 2.244 . S
O321 C311 1.272 . S
O321 Co313 2.135 . S
Co322 O323 2.216 . S
Co322 O324 2.091 . S
Co322 O326 2.004 . S
Co322 O332 2.021 . S
Co322 O334 2.137 . S
Co322 O335 2.244 . S
O323 Co322 2.216 . S
O323 C330 1.247 . S
O324 Co322 2.091 . S
O324 C330 1.261 . S
C325 O334 1.247 . S
C325 O335 1.272 . S
O326 Co322 2.004 . S
O326 C331 1.259 . S
Co327 O328 2.061 . S
Co327 O333 2.052 . S
Co327 O335 2.135 . S
O328 Co327 2.061 . S
O328 C331 1.235 . S
C329 O332 1.238 . S
C329 O333 1.241 . S
C330 O323 1.247 . S
C330 O324 1.261 . S
C331 O326 1.259 . S
C331 O328 1.235 . S
O332 Co322 2.021 . S
O332 C329 1.238 . S
O333 Co327 2.052 . S
O333 C329 1.241 . S
O334 Co322 2.137 . S
O334 C325 1.247 . S
O335 Co322 2.244 . S
O335 C325 1.272 . S
O335 Co327 2.135 . S
Co336 O337 2.216 . S
Co336 O338 2.091 . S
Co336 O340 2.004 . S
Co336 O346 2.021 . S
Co336 O348 2.137 . S
Co336 O349 2.244 . S
O337 Co336 2.216 . S
O337 C344 1.247 . S
O338 Co336 2.091 . S
O338 C344 1.261 . S
C339 O348 1.247 . S
C339 O349 1.272 . S
O340 Co336 2.004 . S
O340 C345 1.259 . S
Co341 O342 2.061 . S
Co341 O347 2.052 . S
Co341 O349 2.135 . S
O342 Co341 2.061 . S
O342 C345 1.235 . S
C343 O346 1.238 . S
C343 O347 1.241 . S
C344 O337 1.247 . S
C344 O338 1.261 . S
C345 O340 1.259 . S
C345 O342 1.235 . S
O346 Co336 2.021 . S
O346 C343 1.238 . S
O347 Co341 2.052 . S
O347 C343 1.241 . S
O348 Co336 2.137 . S
O348 C339 1.247 . S
O349 Co336 2.244 . S
O349 C339 1.272 . S
O349 Co341 2.135 . S
Co350 O351 2.216 . S
Co350 O352 2.091 . S
Co350 O354 2.004 . S
Co350 O360 2.021 . S
Co350 O362 2.137 . S
Co350 O363 2.244 . S
O351 Co350 2.216 . S
O351 C358 1.247 . S
O352 Co350 2.091 . S
O352 C358 1.261 . S
C353 O362 1.247 . S
C353 O363 1.272 . S
O354 Co350 2.004 . S
O354 C359 1.259 . S
Co355 O356 2.061 . S
Co355 O361 2.052 . S
Co355 O363 2.135 . S
O356 Co355 2.061 . S
O356 C359 1.235 . S
C357 O360 1.238 . S
C357 O361 1.241 . S
C358 O351 1.247 . S
C358 O352 1.261 . S
C359 O354 1.259 . S
C359 O356 1.235 . S
O360 Co350 2.021 . S
O360 C357 1.238 . S
O361 Co355 2.052 . S
O361 C357 1.241 . S
O362 Co350 2.137 . S
O362 C353 1.247 . S
O363 Co350 2.244 . S
O363 C353 1.272 . S
O363 Co355 2.135 . S
Co364 O365 2.216 . S
Co364 O366 2.091 . S
Co364 O368 2.004 . S
Co364 O374 2.021 . S
Co364 O376 2.137 . S
Co364 O377 2.244 . S
O365 Co364 2.216 . S
O365 C372 1.247 . S
O366 Co364 2.091 . S
O366 C372 1.261 . S
C367 O376 1.247 . S
C367 O377 1.272 . S
O368 Co364 2.004 . S
O368 C373 1.259 . S
Co369 O370 2.061 . S
Co369 O375 2.052 1_556 S
Co369 O377 2.135 . S
O370 Co369 2.061 . S
O370 C373 1.235 . S
C371 O374 1.238 1_554 S
C371 O375 1.241 . S
C372 O365 1.247 . S
C372 O366 1.261 . S
C373 O368 1.259 . S
C373 O370 1.235 . S
O374 Co364 2.021 . S
O374 C371 1.238 1_556 S
O375 Co369 2.052 1_554 S
O375 C371 1.241 . S
O376 Co364 2.137 . S
O376 C367 1.247 . S
O377 Co364 2.244 . S
O377 C367 1.272 . S
O377 Co369 2.135 . S
Co378 O379 2.216 . S
Co378 O380 2.091 . S
Co378 O382 2.004 . S
Co378 O388 2.021 . S
Co378 O390 2.137 . S
Co378 O391 2.244 . S
O379 Co378 2.216 . S
O379 C386 1.247 . S
O380 Co378 2.091 . S
O380 C386 1.261 . S
C381 O390 1.247 . S
C381 O391 1.272 . S
O382 Co378 2.004 . S
O382 C387 1.259 . S
Co383 O384 2.061 . S
Co383 O389 2.052 1_556 S
Co383 O391 2.135 . S
O384 Co383 2.061 . S
O384 C387 1.235 . S
C385 O388 1.238 1_554 S
C385 O389 1.241 . S
C386 O379 1.247 . S
C386 O380 1.261 . S
C387 O382 1.259 . S
C387 O384 1.235 . S
O388 Co378 2.021 . S
O388 C385 1.238 1_556 S
O389 Co383 2.052 1_554 S
O389 C385 1.241 . S
O390 Co378 2.137 . S
O390 C381 1.247 . S
O391 Co378 2.244 . S
O391 C381 1.272 . S
O391 Co383 2.135 . S
Co392 O393 2.216 . S
Co392 O394 2.091 . S
Co392 O396 2.004 . S
Co392 O402 2.021 . S
Co392 O404 2.137 . S
Co392 O405 2.244 . S
O393 Co392 2.216 . S
O393 C400 1.247 . S
O394 Co392 2.091 . S
O394 C400 1.261 . S
C395 O404 1.247 . S
C395 O405 1.272 . S
O396 Co392 2.004 . S
O396 C401 1.259 . S
Co397 O398 2.061 . S
Co397 O403 2.052 . S
Co397 O405 2.135 . S
O398 Co397 2.061 . S
O398 C401 1.235 . S
C399 O402 1.238 . S
C399 O403 1.241 . S
C400 O393 1.247 . S
C400 O394 1.261 . S
C401 O396 1.259 . S
C401 O398 1.235 . S
O402 Co392 2.021 . S
O402 C399 1.238 . S
O403 Co397 2.052 . S
O403 C399 1.241 . S
O404 Co392 2.137 . S
O404 C395 1.247 . S
O405 Co392 2.244 . S
O405 C395 1.272 . S
O405 Co397 2.135 . S
Co406 O407 2.216 . S
Co406 O408 2.091 . S
Co406 O410 2.004 . S
Co406 O416 2.021 . S
Co406 O418 2.137 . S
Co406 O419 2.244 . S
O407 Co406 2.216 . S
O407 C414 1.247 . S
O408 Co406 2.091 . S
O408 C414 1.261 . S
C409 O418 1.247 . S
C409 O419 1.272 . S
O410 Co406 2.004 . S
O410 C415 1.259 . S
Co411 O412 2.061 . S
Co411 O417 2.052 . S
Co411 O419 2.135 . S
O412 Co411 2.061 . S
O412 C415 1.235 . S
C413 O416 1.238 . S
C413 O417 1.241 . S
C414 O407 1.247 . S
C414 O408 1.261 . S
C415 O410 1.259 . S
C415 O412 1.235 . S
O416 Co406 2.021 . S
O416 C413 1.238 . S
O417 Co411 2.052 . S
O417 C413 1.241 . S
O418 Co406 2.137 . S
O418 C409 1.247 . S
O419 Co406 2.244 . S
O419 C409 1.272 . S
O419 Co411 2.135 . S
Co420 O421 2.216 . S
Co420 O422 2.091 1_554 S
Co420 O424 2.004 . S
Co420 O430 2.021 . S
Co420 O432 2.137 . S
Co420 O433 2.244 . S
O421 Co420 2.216 . S
O421 C428 1.247 1_554 S
O422 Co420 2.091 1_556 S
O422 C428 1.261 . S
C423 O432 1.247 . S
C423 O433 1.272 . S
O424 Co420 2.004 . S
O424 C429 1.259 . S
Co425 O426 2.061 . S
Co425 O431 2.052 . S
Co425 O433 2.135 . S
O426 Co425 2.061 . S
O426 C429 1.235 . S
C427 O430 1.238 . S
C427 O431 1.241 . S
C428 O421 1.247 1_556 S
C428 O422 1.261 . S
C429 O424 1.259 . S
C429 O426 1.235 . S
O430 Co420 2.021 . S
O430 C427 1.238 . S
O431 Co425 2.052 . S
O431 C427 1.241 . S
O432 Co420 2.137 . S
O432 C423 1.247 . S
O433 Co420 2.244 . S
O433 C423 1.272 . S
O433 Co425 2.135 . S
Co434 O435 2.216 . S
Co434 O436 2.091 1_554 S
Co434 O438 2.004 . S
Co434 O444 2.021 . S
Co434 O446 2.137 . S
Co434 O447 2.244 . S
O435 Co434 2.216 . S
O435 C442 1.247 1_554 S
O436 Co434 2.091 1_556 S
O436 C442 1.261 . S
C437 O446 1.247 . S
C437 O447 1.272 . S
O438 Co434 2.004 . S
O438 C443 1.259 . S
Co439 O440 2.061 . S
Co439 O445 2.052 . S
Co439 O447 2.135 . S
O440 Co439 2.061 . S
O440 C443 1.235 . S
C441 O444 1.238 . S
C441 O445 1.241 . S
C442 O435 1.247 1_556 S
C442 O436 1.261 . S
C443 O438 1.259 . S
C443 O440 1.235 . S
O444 Co434 2.021 . S
O444 C441 1.238 . S
O445 Co439 2.052 . S
O445 C441 1.241 . S
O446 Co434 2.137 . S
O446 C437 1.247 . S
O447 Co434 2.244 . S
O447 C437 1.272 . S
O447 Co439 2.135 . S
C448 C449 1.349 . S
C448 C450 1.327 . S
C448 H473 0.950 . S
C449 C448 1.349 . S
C449 C465 1.349 . S
C450 C448 1.327 . S
C450 C469 1.429 . S
C450 H474 0.950 . S
C451 C468 1.574 . S
C451 C470 1.368 . S
C451 H475 0.949 . S
H452 C456 0.949 . S
C453 C454 1.349 . S
C453 C455 1.327 . S
C453 H476 0.950 . S
C454 C453 1.349 . S
C454 C466 1.349 . S
C455 C453 1.327 . S
C455 C471 1.429 . S
C455 H477 0.950 . S
C456 H452 0.949 . S
C456 C464 1.574 . S
C456 C472 1.368 . S
H457 C465 0.950 . S
H458 C463 0.950 . S
H459 C464 0.949 . S
H460 C466 0.950 . S
H461 C467 0.950 . S
H462 C468 0.949 . S
C463 H458 0.950 . S
C463 C465 1.327 . S
C463 C469 1.429 . S
C464 C456 1.574 . S
C464 H459 0.949 . S
C464 C470 1.368 . S
C465 C449 1.349 . S
C465 H457 0.950 . S
C465 C463 1.327 . S
C466 C454 1.349 . S
C466 H460 0.950 . S
C466 C467 1.327 . S
C467 H461 0.950 . S
C467 C466 1.327 . S
C467 C471 1.429 . S
C468 C451 1.574 . S
C468 H462 0.949 . S
C468 C472 1.368 . S
C469 C450 1.429 . S
C469 C463 1.429 . S
C469 C470 1.523 . S
C470 C451 1.368 . S
C470 C464 1.368 . S
C470 C469 1.523 . S
C471 C455 1.429 . S
C471 C467 1.429 . S
C471 C472 1.523 . S
C472 C456 1.368 . S
C472 C468 1.368 . S
C472 C471 1.523 . S
H473 C448 0.950 . S
H474 C450 0.950 . S
H475 C451 0.949 . S
H476 C453 0.950 . S
H477 C455 0.950 . S
C478 C479 1.349 . S
C478 C480 1.327 . S
C478 H503 0.950 . S
C479 C478 1.349 . S
C479 C495 1.349 . S
C480 C478 1.327 . S
C480 C499 1.429 . S
C480 H504 0.950 . S
C481 C498 1.574 . S
C481 C500 1.368 . S
C481 H505 0.949 . S
H482 C486 0.949 . S
C483 C484 1.349 . S
C483 C485 1.327 . S
C483 H506 0.950 . S
C484 C483 1.349 . S
C484 C496 1.349 . S
C485 C483 1.327 . S
C485 C501 1.429 . S
C485 H507 0.950 . S
C486 H482 0.949 . S
C486 C494 1.574 . S
C486 C502 1.368 . S
H487 C495 0.950 . S
H488 C493 0.950 . S
H489 C494 0.949 . S
H490 C496 0.950 . S
H491 C497 0.950 . S
H492 C498 0.949 . S
C493 H488 0.950 . S
C493 C495 1.327 . S
C493 C499 1.429 . S
C494 C486 1.574 . S
C494 H489 0.949 . S
C494 C500 1.368 . S
C495 C479 1.349 . S
C495 H487 0.950 . S
C495 C493 1.327 . S
C496 C484 1.349 . S
C496 H490 0.950 . S
C496 C497 1.327 . S
C497 H491 0.950 . S
C497 C496 1.327 . S
C497 C501 1.429 . S
C498 C481 1.574 . S
C498 H492 0.949 . S
C498 C502 1.368 . S
C499 C480 1.429 . S
C499 C493 1.429 . S
C499 C500 1.523 . S
C500 C481 1.368 . S
C500 C494 1.368 . S
C500 C499 1.523 . S
C501 C485 1.429 . S
C501 C497 1.429 . S
C501 C502 1.523 . S
C502 C486 1.368 . S
C502 C498 1.368 . S
C502 C501 1.523 . S
H503 C478 0.950 . S
H504 C480 0.950 . S
H505 C481 0.949 . S
H506 C483 0.950 . S
H507 C485 0.950 . S
C508 C509 1.349 . S
C508 C510 1.327 . S
C508 H533 0.950 . S
C509 C508 1.349 . S
C509 C525 1.349 . S
C510 C508 1.327 . S
C510 C529 1.429 . S
C510 H534 0.950 . S
C511 C528 1.574 . S
C511 C530 1.368 . S
C511 H535 0.949 . S
H512 C516 0.949 . S
C513 C514 1.349 . S
C513 C515 1.327 . S
C513 H536 0.950 . S
C514 C513 1.349 . S
C514 C526 1.349 . S
C515 C513 1.327 . S
C515 C531 1.429 . S
C515 H537 0.950 . S
C516 H512 0.949 . S
C516 C524 1.574 . S
C516 C532 1.368 . S
H517 C525 0.950 . S
H518 C523 0.950 . S
H519 C524 0.949 . S
H520 C526 0.950 . S
H521 C527 0.950 . S
H522 C528 0.949 . S
C523 H518 0.950 . S
C523 C525 1.327 . S
C523 C529 1.429 . S
C524 C516 1.574 . S
C524 H519 0.949 . S
C524 C530 1.368 . S
C525 C509 1.349 . S
C525 H517 0.950 . S
C525 C523 1.327 . S
C526 C514 1.349 . S
C526 H520 0.950 . S
C526 C527 1.327 . S
C527 H521 0.950 . S
C527 C526 1.327 . S
C527 C531 1.429 . S
C528 C511 1.574 . S
C528 H522 0.949 . S
C528 C532 1.368 . S
C529 C510 1.429 . S
C529 C523 1.429 . S
C529 C530 1.523 . S
C530 C511 1.368 . S
C530 C524 1.368 . S
C530 C529 1.523 . S
C531 C515 1.429 . S
C531 C527 1.429 . S
C531 C532 1.523 . S
C532 C516 1.368 . S
C532 C528 1.368 . S
C532 C531 1.523 . S
H533 C508 0.950 . S
H534 C510 0.950 . S
H535 C511 0.949 . S
H536 C513 0.950 . S
H537 C515 0.950 . S
C538 C539 1.349 . S
C538 C540 1.327 . S
C538 H563 0.950 . S
C539 C538 1.349 . S
C539 C555 1.349 . S
C540 C538 1.327 . S
C540 C559 1.429 . S
C540 H564 0.950 . S
C541 C558 1.574 . S
C541 C560 1.368 . S
C541 H565 0.949 . S
H542 C546 0.949 . S
C543 C544 1.349 . S
C543 C545 1.327 . S
C543 H566 0.950 . S
C544 C543 1.349 . S
C544 C556 1.349 . S
C545 C543 1.327 . S
C545 C561 1.429 . S
C545 H567 0.950 . S
C546 H542 0.949 . S
C546 C554 1.574 . S
C546 C562 1.368 . S
H547 C555 0.950 . S
H548 C553 0.950 . S
H549 C554 0.949 . S
H550 C556 0.950 . S
H551 C557 0.950 . S
H552 C558 0.949 . S
C553 H548 0.950 . S
C553 C555 1.327 . S
C553 C559 1.429 . S
C554 C546 1.574 . S
C554 H549 0.949 . S
C554 C560 1.368 . S
C555 C539 1.349 . S
C555 H547 0.950 . S
C555 C553 1.327 . S
C556 C544 1.349 . S
C556 H550 0.950 . S
C556 C557 1.327 . S
C557 H551 0.950 . S
C557 C556 1.327 . S
C557 C561 1.429 . S
C558 C541 1.574 . S
C558 H552 0.949 . S
C558 C562 1.368 . S
C559 C540 1.429 . S
C559 C553 1.429 . S
C559 C560 1.523 . S
C560 C541 1.368 . S
C560 C554 1.368 . S
C560 C559 1.523 . S
C561 C545 1.429 . S
C561 C557 1.429 . S
C561 C562 1.523 . S
C562 C546 1.368 . S
C562 C558 1.368 . S
C562 C561 1.523 . S
H563 C538 0.950 . S
H564 C540 0.950 . S
H565 C541 0.949 . S
H566 C543 0.950 . S
H567 C545 0.950 . S
C568 C569 1.349 . S
C568 C570 1.327 . S
C568 H593 0.950 . S
C569 C568 1.349 . S
C569 C585 1.349 . S
C570 C568 1.327 . S
C570 C589 1.429 . S
C570 H594 0.950 . S
C571 C588 1.574 . S
C571 C590 1.368 . S
C571 H595 0.949 . S
H572 C576 0.949 . S
C573 C574 1.349 . S
C573 C575 1.327 . S
C573 H596 0.950 . S
C574 C573 1.349 . S
C574 C586 1.349 . S
C575 C573 1.327 . S
C575 C591 1.429 . S
C575 H597 0.950 . S
C576 H572 0.949 . S
C576 C584 1.574 . S
C576 C592 1.368 . S
H577 C585 0.950 . S
H578 C583 0.950 . S
H579 C584 0.949 . S
H580 C586 0.950 . S
H581 C587 0.950 . S
H582 C588 0.949 . S
C583 H578 0.950 . S
C583 C585 1.327 . S
C583 C589 1.429 . S
C584 C576 1.574 . S
C584 H579 0.949 . S
C584 C590 1.368 . S
C585 C569 1.349 . S
C585 H577 0.950 . S
C585 C583 1.327 . S
C586 C574 1.349 . S
C586 H580 0.950 . S
C586 C587 1.327 . S
C587 H581 0.950 . S
C587 C586 1.327 . S
C587 C591 1.429 . S
C588 C571 1.574 . S
C588 H582 0.949 . S
C588 C592 1.368 . S
C589 C570 1.429 . S
C589 C583 1.429 . S
C589 C590 1.523 . S
C590 C571 1.368 . S
C590 C584 1.368 . S
C590 C589 1.523 . S
C591 C575 1.429 . S
C591 C587 1.429 . S
C591 C592 1.523 . S
C592 C576 1.368 . S
C592 C588 1.368 . S
C592 C591 1.523 . S
H593 C568 0.950 . S
H594 C570 0.950 . S
H595 C571 0.949 . S
H596 C573 0.950 . S
H597 C575 0.950 . S
C598 C599 1.349 . S
C598 C600 1.327 . S
C598 H623 0.950 . S
C599 C598 1.349 . S
C599 C615 1.349 . S
C600 C598 1.327 . S
C600 C619 1.429 . S
C600 H624 0.950 . S
C601 C618 1.574 . S
C601 C620 1.368 . S
C601 H625 0.949 . S
H602 C606 0.949 . S
C603 C604 1.349 . S
C603 C605 1.327 . S
C603 H626 0.950 . S
C604 C603 1.349 . S
C604 C616 1.349 . S
C605 C603 1.327 . S
C605 C621 1.429 . S
C605 H627 0.950 . S
C606 H602 0.949 . S
C606 C614 1.574 . S
C606 C622 1.368 . S
H607 C615 0.950 . S
H608 C613 0.950 . S
H609 C614 0.949 . S
H610 C616 0.950 . S
H611 C617 0.950 . S
H612 C618 0.949 . S
C613 H608 0.950 . S
C613 C615 1.327 . S
C613 C619 1.429 . S
C614 C606 1.574 . S
C614 H609 0.949 . S
C614 C620 1.368 . S
C615 C599 1.349 . S
C615 H607 0.950 . S
C615 C613 1.327 . S
C616 C604 1.349 . S
C616 H610 0.950 . S
C616 C617 1.327 . S
C617 H611 0.950 . S
C617 C616 1.327 . S
C617 C621 1.429 . S
C618 C601 1.574 . S
C618 H612 0.949 . S
C618 C622 1.368 . S
C619 C600 1.429 . S
C619 C613 1.429 . S
C619 C620 1.523 . S
C620 C601 1.368 . S
C620 C614 1.368 . S
C620 C619 1.523 . S
C621 C605 1.429 . S
C621 C617 1.429 . S
C621 C622 1.523 . S
C622 C606 1.368 . S
C622 C618 1.368 . S
C622 C621 1.523 . S
H623 C598 0.950 . S
H624 C600 0.950 . S
H625 C601 0.949 . S
H626 C603 0.950 . S
H627 C605 0.950 . S
C628 C629 1.349 . S
C628 C630 1.327 . S
C628 H653 0.950 . S
C629 C628 1.349 . S
C629 C645 1.349 . S
C630 C628 1.327 . S
C630 C649 1.429 . S
C630 H654 0.950 . S
C631 C648 1.574 . S
C631 C650 1.368 . S
C631 H655 0.949 . S
H632 C636 0.949 . S
C633 C634 1.349 . S
C633 C635 1.327 . S
C633 H656 0.950 . S
C634 C633 1.349 . S
C634 C646 1.349 . S
C635 C633 1.327 . S
C635 C651 1.429 . S
C635 H657 0.950 . S
C636 H632 0.949 . S
C636 C644 1.574 . S
C636 C652 1.368 . S
H637 C645 0.950 . S
H638 C643 0.950 . S
H639 C644 0.949 . S
H640 C646 0.950 . S
H641 C647 0.950 . S
H642 C648 0.949 . S
C643 H638 0.950 . S
C643 C645 1.327 . S
C643 C649 1.429 . S
C644 C636 1.574 . S
C644 H639 0.949 . S
C644 C650 1.368 . S
C645 C629 1.349 . S
C645 H637 0.950 . S
C645 C643 1.327 . S
C646 C634 1.349 . S
C646 H640 0.950 . S
C646 C647 1.327 . S
C647 H641 0.950 . S
C647 C646 1.327 . S
C647 C651 1.429 . S
C648 C631 1.574 . S
C648 H642 0.949 . S
C648 C652 1.368 . S
C649 C630 1.429 . S
C649 C643 1.429 . S
C649 C650 1.523 . S
C650 C631 1.368 . S
C650 C644 1.368 . S
C650 C649 1.523 . S
C651 C635 1.429 . S
C651 C647 1.429 . S
C651 C652 1.523 . S
C652 C636 1.368 . S
C652 C648 1.368 . S
C652 C651 1.523 . S
H653 C628 0.950 . S
H654 C630 0.950 . S
H655 C631 0.949 . S
H656 C633 0.950 . S
H657 C635 0.950 . S
C658 C659 1.349 . S
C658 C660 1.327 . S
C658 H683 0.950 . S
C659 C658 1.349 . S
C659 C675 1.349 . S
C660 C658 1.327 . S
C660 C679 1.429 . S
C660 H684 0.950 . S
C661 C678 1.574 . S
C661 C680 1.368 . S
C661 H685 0.949 . S
H662 C666 0.949 . S
C663 C664 1.349 . S
C663 C665 1.327 . S
C663 H686 0.950 . S
C664 C663 1.349 . S
C664 C676 1.349 . S
C665 C663 1.327 . S
C665 C681 1.429 . S
C665 H687 0.950 . S
C666 H662 0.949 . S
C666 C674 1.574 . S
C666 C682 1.368 . S
H667 C675 0.950 . S
H668 C673 0.950 . S
H669 C674 0.949 . S
H670 C676 0.950 . S
H671 C677 0.950 . S
H672 C678 0.949 . S
C673 H668 0.950 . S
C673 C675 1.327 . S
C673 C679 1.429 . S
C674 C666 1.574 . S
C674 H669 0.949 . S
C674 C680 1.368 . S
C675 C659 1.349 . S
C675 H667 0.950 . S
C675 C673 1.327 . S
C676 C664 1.349 . S
C676 H670 0.950 . S
C676 C677 1.327 . S
C677 H671 0.950 . S
C677 C676 1.327 . S
C677 C681 1.429 . S
C678 C661 1.574 . S
C678 H672 0.949 . S
C678 C682 1.368 . S
C679 C660 1.429 . S
C679 C673 1.429 . S
C679 C680 1.523 . S
C680 C661 1.368 . S
C680 C674 1.368 . S
C680 C679 1.523 . S
C681 C665 1.429 . S
C681 C677 1.429 . S
C681 C682 1.523 . S
C682 C666 1.368 . S
C682 C678 1.368 . S
C682 C681 1.523 . S
H683 C658 0.950 . S
H684 C660 0.950 . S
H685 C661 0.949 . S
H686 C663 0.950 . S
H687 C665 0.950 . S
C688 C689 1.349 . S
C688 C690 1.327 . S
C688 H713 0.950 . S
C689 C688 1.349 . S
C689 C705 1.349 . S
C690 C688 1.327 . S
C690 C709 1.429 . S
C690 H714 0.950 . S
C691 C708 1.574 . S
C691 C710 1.368 . S
C691 H715 0.949 . S
H692 C696 0.949 . S
C693 C694 1.349 . S
C693 C695 1.327 . S
C693 H716 0.950 . S
C694 C693 1.349 . S
C694 C706 1.349 . S
C695 C693 1.327 . S
C695 C711 1.429 . S
C695 H717 0.950 . S
C696 H692 0.949 . S
C696 C704 1.574 . S
C696 C712 1.368 . S
H697 C705 0.950 . S
H698 C703 0.950 . S
H699 C704 0.949 . S
H700 C706 0.950 . S
H701 C707 0.950 . S
H702 C708 0.949 . S
C703 H698 0.950 . S
C703 C705 1.327 . S
C703 C709 1.429 . S
C704 C696 1.574 . S
C704 H699 0.949 . S
C704 C710 1.368 . S
C705 C689 1.349 . S
C705 H697 0.950 . S
C705 C703 1.327 . S
C706 C694 1.349 . S
C706 H700 0.950 . S
C706 C707 1.327 . S
C707 H701 0.950 . S
C707 C706 1.327 . S
C707 C711 1.429 . S
C708 C691 1.574 . S
C708 H702 0.949 . S
C708 C712 1.368 . S
C709 C690 1.429 . S
C709 C703 1.429 . S
C709 C710 1.523 . S
C710 C691 1.368 . S
C710 C704 1.368 . S
C710 C709 1.523 . S
C711 C695 1.429 . S
C711 C707 1.429 . S
C711 C712 1.523 . S
C712 C696 1.368 . S
C712 C708 1.368 . S
C712 C711 1.523 . S
H713 C688 0.950 . S
H714 C690 0.950 . S
H715 C691 0.949 . S
H716 C693 0.950 . S
H717 C695 0.950 . S
C718 C719 1.349 . S
C718 C720 1.327 . S
C718 H743 0.950 . S
C719 C718 1.349 . S
C719 C735 1.349 . S
C720 C718 1.327 . S
C720 C739 1.429 . S
C720 H744 0.950 . S
C721 C738 1.574 . S
C721 C740 1.368 . S
C721 H745 0.949 . S
H722 C726 0.949 . S
C723 C724 1.349 . S
C723 C725 1.327 . S
C723 H746 0.950 . S
C724 C723 1.349 . S
C724 C736 1.349 . S
C725 C723 1.327 . S
C725 C741 1.429 . S
C725 H747 0.950 . S
C726 H722 0.949 . S
C726 C734 1.574 . S
C726 C742 1.368 . S
H727 C735 0.950 . S
H728 C733 0.950 . S
H729 C734 0.949 . S
H730 C736 0.950 . S
H731 C737 0.950 . S
H732 C738 0.949 . S
C733 H728 0.950 . S
C733 C735 1.327 . S
C733 C739 1.429 . S
C734 C726 1.574 . S
C734 H729 0.949 . S
C734 C740 1.368 . S
C735 C719 1.349 . S
C735 H727 0.950 . S
C735 C733 1.327 . S
C736 C724 1.349 . S
C736 H730 0.950 . S
C736 C737 1.327 . S
C737 H731 0.950 . S
C737 C736 1.327 . S
C737 C741 1.429 . S
C738 C721 1.574 . S
C738 H732 0.949 . S
C738 C742 1.368 . S
C739 C720 1.429 . S
C739 C733 1.429 . S
C739 C740 1.523 . S
C740 C721 1.368 . S
C740 C734 1.368 . S
C740 C739 1.523 . S
C741 C725 1.429 . S
C741 C737 1.429 . S
C741 C742 1.523 . S
C742 C726 1.368 . S
C742 C738 1.368 . S
C742 C741 1.523 . S
H743 C718 0.950 . S
H744 C720 0.950 . S
H745 C721 0.949 . S
H746 C723 0.950 . S
H747 C725 0.950 . S
C748 C749 1.349 . S
C748 C750 1.327 . S
C748 H773 0.950 . S
C749 C748 1.349 . S
C749 C765 1.349 . S
C750 C748 1.327 . S
C750 C769 1.429 . S
C750 H774 0.950 . S
C751 C768 1.574 . S
C751 C770 1.368 . S
C751 H775 0.949 . S
H752 C756 0.949 . S
C753 C754 1.349 . S
C753 C755 1.327 . S
C753 H776 0.950 . S
C754 C753 1.349 . S
C754 C766 1.349 . S
C755 C753 1.327 . S
C755 C771 1.429 . S
C755 H777 0.950 . S
C756 H752 0.949 . S
C756 C764 1.574 . S
C756 C772 1.368 . S
H757 C765 0.950 . S
H758 C763 0.950 . S
H759 C764 0.949 . S
H760 C766 0.950 . S
H761 C767 0.950 . S
H762 C768 0.949 . S
C763 H758 0.950 . S
C763 C765 1.327 . S
C763 C769 1.429 . S
C764 C756 1.574 . S
C764 H759 0.949 . S
C764 C770 1.368 . S
C765 C749 1.349 . S
C765 H757 0.950 . S
C765 C763 1.327 . S
C766 C754 1.349 . S
C766 H760 0.950 . S
C766 C767 1.327 . S
C767 H761 0.950 . S
C767 C766 1.327 . S
C767 C771 1.429 . S
C768 C751 1.574 . S
C768 H762 0.949 . S
C768 C772 1.368 . S
C769 C750 1.429 . S
C769 C763 1.429 . S
C769 C770 1.523 . S
C770 C751 1.368 . S
C770 C764 1.368 . S
C770 C769 1.523 . S
C771 C755 1.429 . S
C771 C767 1.429 . S
C771 C772 1.523 . S
C772 C756 1.368 . S
C772 C768 1.368 . S
C772 C771 1.523 . S
H773 C748 0.950 . S
H774 C750 0.950 . S
H775 C751 0.949 . S
H776 C753 0.950 . S
H777 C755 0.950 . S
C778 C779 1.349 . S
C778 C780 1.327 . S
C778 H803 0.950 . S
C779 C778 1.349 . S
C779 C795 1.349 . S
C780 C778 1.327 . S
C780 C799 1.429 . S
C780 H804 0.950 . S
C781 C798 1.574 . S
C781 C800 1.368 . S
C781 H805 0.949 . S
H782 C786 0.949 . S
C783 C784 1.349 . S
C783 C785 1.327 . S
C783 H806 0.950 . S
C784 C783 1.349 . S
C784 C796 1.349 . S
C785 C783 1.327 . S
C785 C801 1.429 . S
C785 H807 0.950 . S
C786 H782 0.949 . S
C786 C794 1.574 . S
C786 C802 1.368 . S
H787 C795 0.950 . S
H788 C793 0.950 . S
H789 C794 0.949 . S
H790 C796 0.950 . S
H791 C797 0.950 . S
H792 C798 0.949 . S
C793 H788 0.950 . S
C793 C795 1.327 . S
C793 C799 1.429 . S
C794 C786 1.574 . S
C794 H789 0.949 . S
C794 C800 1.368 . S
C795 C779 1.349 . S
C795 H787 0.950 . S
C795 C793 1.327 . S
C796 C784 1.349 . S
C796 H790 0.950 . S
C796 C797 1.327 . S
C797 H791 0.950 . S
C797 C796 1.327 . S
C797 C801 1.429 . S
C798 C781 1.574 . S
C798 H792 0.949 . S
C798 C802 1.368 . S
C799 C780 1.429 . S
C799 C793 1.429 . S
C799 C800 1.523 . S
C800 C781 1.368 . S
C800 C794 1.368 . S
C800 C799 1.523 . S
C801 C785 1.429 . S
C801 C797 1.429 . S
C801 C802 1.523 . S
C802 C786 1.368 . S
C802 C798 1.368 . S
C802 C801 1.523 . S
H803 C778 0.950 . S
H804 C780 0.950 . S
H805 C781 0.949 . S
H806 C783 0.950 . S
H807 C785 0.950 . S
C808 C809 1.349 . S
C808 C810 1.327 . S
C808 H833 0.950 . S
C809 C808 1.349 . S
C809 C825 1.349 . S
C810 C808 1.327 . S
C810 C829 1.429 . S
C810 H834 0.950 . S
C811 C828 1.574 . S
C811 C830 1.368 . S
C811 H835 0.949 . S
H812 C816 0.949 . S
C813 C814 1.349 . S
C813 C815 1.327 . S
C813 H836 0.950 . S
C814 C813 1.349 . S
C814 C826 1.349 . S
C815 C813 1.327 . S
C815 C831 1.429 . S
C815 H837 0.950 . S
C816 H812 0.949 . S
C816 C824 1.574 . S
C816 C832 1.368 . S
H817 C825 0.950 . S
H818 C823 0.950 . S
H819 C824 0.949 . S
H820 C826 0.950 . S
H821 C827 0.950 . S
H822 C828 0.949 . S
C823 H818 0.950 . S
C823 C825 1.327 . S
C823 C829 1.429 . S
C824 C816 1.574 . S
C824 H819 0.949 . S
C824 C830 1.368 . S
C825 C809 1.349 . S
C825 H817 0.950 . S
C825 C823 1.327 . S
C826 C814 1.349 . S
C826 H820 0.950 . S
C826 C827 1.327 . S
C827 H821 0.950 . S
C827 C826 1.327 . S
C827 C831 1.429 . S
C828 C811 1.574 . S
C828 H822 0.949 . S
C828 C832 1.368 . S
C829 C810 1.429 . S
C829 C823 1.429 . S
C829 C830 1.523 . S
C830 C811 1.368 . S
C830 C824 1.368 . S
C830 C829 1.523 . S
C831 C815 1.429 . S
C831 C827 1.429 . S
C831 C832 1.523 . S
C832 C816 1.368 . S
C832 C828 1.368 . S
C832 C831 1.523 . S
H833 C808 0.950 . S
H834 C810 0.950 . S
H835 C811 0.949 . S
H836 C813 0.950 . S
H837 C815 0.950 . S
C838 C839 1.349 . S
C838 C840 1.327 . S
C838 H863 0.950 . S
C839 C838 1.349 . S
C839 C855 1.349 . S
C840 C838 1.327 . S
C840 C859 1.429 . S
C840 H864 0.950 . S
C841 C858 1.574 . S
C841 C860 1.368 . S
C841 H865 0.949 . S
H842 C846 0.949 . S
C843 C844 1.349 . S
C843 C845 1.327 . S
C843 H866 0.950 . S
C844 C843 1.349 . S
C844 C856 1.349 . S
C845 C843 1.327 . S
C845 C861 1.429 . S
C845 H867 0.950 . S
C846 H842 0.949 . S
C846 C854 1.574 . S
C846 C862 1.368 . S
H847 C855 0.950 . S
H848 C853 0.950 . S
H849 C854 0.949 . S
H850 C856 0.950 . S
H851 C857 0.950 . S
H852 C858 0.949 . S
C853 H848 0.950 . S
C853 C855 1.327 . S
C853 C859 1.429 . S
C854 C846 1.574 . S
C854 H849 0.949 . S
C854 C860 1.368 . S
C855 C839 1.349 . S
C855 H847 0.950 . S
C855 C853 1.327 . S
C856 C844 1.349 . S
C856 H850 0.950 . S
C856 C857 1.327 . S
C857 H851 0.950 . S
C857 C856 1.327 . S
C857 C861 1.429 . S
C858 C841 1.574 . S
C858 H852 0.949 . S
C858 C862 1.368 . S
C859 C840 1.429 . S
C859 C853 1.429 . S
C859 C860 1.523 . S
C860 C841 1.368 . S
C860 C854 1.368 . S
C860 C859 1.523 . S
C861 C845 1.429 . S
C861 C857 1.429 . S
C861 C862 1.523 . S
C862 C846 1.368 . S
C862 C858 1.368 . S
C862 C861 1.523 . S
H863 C838 0.950 . S
H864 C840 0.950 . S
H865 C841 0.949 . S
H866 C843 0.950 . S
H867 C845 0.950 . S
C868 C869 1.349 . S
C868 C870 1.327 . S
C868 H893 0.950 . S
C869 C868 1.349 . S
C869 C885 1.349 . S
C870 C868 1.327 . S
C870 C889 1.429 . S
C870 H894 0.950 . S
C871 C888 1.574 . S
C871 C890 1.368 . S
C871 H895 0.949 . S
H872 C876 0.949 . S
C873 C874 1.349 . S
C873 C875 1.327 . S
C873 H896 0.950 . S
C874 C873 1.349 . S
C874 C886 1.349 . S
C875 C873 1.327 . S
C875 C891 1.429 . S
C875 H897 0.950 . S
C876 H872 0.949 . S
C876 C884 1.574 . S
C876 C892 1.368 . S
H877 C885 0.950 . S
H878 C883 0.950 . S
H879 C884 0.949 . S
H880 C886 0.950 . S
H881 C887 0.950 . S
H882 C888 0.949 . S
C883 H878 0.950 . S
C883 C885 1.327 . S
C883 C889 1.429 . S
C884 C876 1.574 . S
C884 H879 0.949 . S
C884 C890 1.368 . S
C885 C869 1.349 . S
C885 H877 0.950 . S
C885 C883 1.327 . S
C886 C874 1.349 . S
C886 H880 0.950 . S
C886 C887 1.327 . S
C887 H881 0.950 . S
C887 C886 1.327 . S
C887 C891 1.429 . S
C888 C871 1.574 . S
C888 H882 0.949 . S
C888 C892 1.368 . S
C889 C870 1.429 . S
C889 C883 1.429 . S
C889 C890 1.523 . S
C890 C871 1.368 . S
C890 C884 1.368 . S
C890 C889 1.523 . S
C891 C875 1.429 . S
C891 C887 1.429 . S
C891 C892 1.523 . S
C892 C876 1.368 . S
C892 C888 1.368 . S
C892 C891 1.523 . S
H893 C868 0.950 . S
H894 C870 0.950 . S
H895 C871 0.949 . S
H896 C873 0.950 . S
H897 C875 0.950 . S
C898 C899 1.349 . S
C898 C900 1.327 . S
C898 H923 0.950 . S
C899 C898 1.349 . S
C899 C915 1.349 . S
C900 C898 1.327 . S
C900 C919 1.429 . S
C900 H924 0.950 . S
C901 C918 1.574 . S
C901 C920 1.368 . S
C901 H925 0.949 . S
H902 C906 0.949 . S
C903 C904 1.349 . S
C903 C905 1.327 . S
C903 H926 0.950 . S
C904 C903 1.349 . S
C904 C916 1.349 . S
C905 C903 1.327 . S
C905 C921 1.429 . S
C905 H927 0.950 . S
C906 H902 0.949 . S
C906 C914 1.574 . S
C906 C922 1.368 . S
H907 C915 0.950 . S
H908 C913 0.950 . S
H909 C914 0.949 . S
H910 C916 0.950 . S
H911 C917 0.950 . S
H912 C918 0.949 . S
C913 H908 0.950 . S
C913 C915 1.327 . S
C913 C919 1.429 . S
C914 C906 1.574 . S
C914 H909 0.949 . S
C914 C920 1.368 . S
C915 C899 1.349 . S
C915 H907 0.950 . S
C915 C913 1.327 . S
C916 C904 1.349 . S
C916 H910 0.950 . S
C916 C917 1.327 . S
C917 H911 0.950 . S
C917 C916 1.327 . S
C917 C921 1.429 . S
C918 C901 1.574 . S
C918 H912 0.949 . S
C918 C922 1.368 . S
C919 C900 1.429 . S
C919 C913 1.429 . S
C919 C920 1.523 . S
C920 C901 1.368 . S
C920 C914 1.368 . S
C920 C919 1.523 . S
C921 C905 1.429 . S
C921 C917 1.429 . S
C921 C922 1.523 . S
C922 C906 1.368 . S
C922 C918 1.368 . S
C922 C921 1.523 . S
H923 C898 0.950 . S
H924 C900 0.950 . S
H925 C901 0.949 . S
H926 C903 0.950 . S
H927 C905 0.950 . S
C928 C929 1.349 . S
C928 C930 1.327 . S
C928 H953 0.950 . S
C929 C928 1.349 . S
C929 C945 1.349 . S
C930 C928 1.327 . S
C930 C949 1.429 . S
C930 H954 0.950 . S
C931 C948 1.574 . S
C931 C950 1.368 . S
C931 H955 0.949 . S
H932 C936 0.949 . S
C933 C934 1.349 . S
C933 C935 1.327 . S
C933 H956 0.950 . S
C934 C933 1.349 . S
C934 C946 1.349 . S
C935 C933 1.327 . S
C935 C951 1.429 . S
C935 H957 0.950 . S
C936 H932 0.949 . S
C936 C944 1.574 . S
C936 C952 1.368 . S
H937 C945 0.950 . S
H938 C943 0.950 . S
H939 C944 0.949 . S
H940 C946 0.950 . S
H941 C947 0.950 . S
H942 C948 0.949 . S
C943 H938 0.950 . S
C943 C945 1.327 . S
C943 C949 1.429 . S
C944 C936 1.574 . S
C944 H939 0.949 . S
C944 C950 1.368 . S
C945 C929 1.349 . S
C945 H937 0.950 . S
C945 C943 1.327 . S
C946 C934 1.349 . S
C946 H940 0.950 . S
C946 C947 1.327 . S
C947 H941 0.950 . S
C947 C946 1.327 . S
C947 C951 1.429 . S
C948 C931 1.574 . S
C948 H942 0.949 . S
C948 C952 1.368 . S
C949 C930 1.429 . S
C949 C943 1.429 . S
C949 C950 1.523 . S
C950 C931 1.368 . S
C950 C944 1.368 . S
C950 C949 1.523 . S
C951 C935 1.429 . S
C951 C947 1.429 . S
C951 C952 1.523 . S
C952 C936 1.368 . S
C952 C948 1.368 . S
C952 C951 1.523 . S
H953 C928 0.950 . S
H954 C930 0.950 . S
H955 C931 0.949 . S
H956 C933 0.950 . S
H957 C935 0.950 . S
C958 C959 1.349 . S
C958 C960 1.327 1_455 S
C958 H983 0.950 . S
C959 C958 1.349 . S
C959 C975 1.349 . S
C960 C958 1.327 1_655 S
C960 C979 1.429 . S
C960 H984 0.950 . S
C961 C978 1.574 . S
C961 C980 1.368 . S
C961 H985 0.949 . S
H962 C966 0.949 . S
C963 C964 1.349 . S
C963 C965 1.327 . S
C963 H986 0.950 . S
C964 C963 1.349 . S
C964 C976 1.349 . S
C965 C963 1.327 . S
C965 C981 1.429 . S
C965 H987 0.950 . S
C966 H962 0.949 . S
C966 C974 1.574 . S
C966 C982 1.368 . S
H967 C975 0.950 . S
H968 C973 0.950 . S
H969 C974 0.949 . S
H970 C976 0.950 . S
H971 C977 0.950 . S
H972 C978 0.949 . S
C973 H968 0.950 . S
C973 C975 1.327 1_655 S
C973 C979 1.429 . S
C974 C966 1.574 . S
C974 H969 0.949 . S
C974 C980 1.368 . S
C975 C959 1.349 . S
C975 H967 0.950 . S
C975 C973 1.327 1_455 S
C976 C964 1.349 . S
C976 H970 0.950 . S
C976 C977 1.327 . S
C977 H971 0.950 . S
C977 C976 1.327 . S
C977 C981 1.429 . S
C978 C961 1.574 . S
C978 H972 0.949 . S
C978 C982 1.368 . S
C979 C960 1.429 . S
C979 C973 1.429 . S
C979 C980 1.523 . S
C980 C961 1.368 . S
C980 C974 1.368 . S
C980 C979 1.523 . S
C981 C965 1.429 . S
C981 C977 1.429 . S
C981 C982 1.523 . S
C982 C966 1.368 . S
C982 C978 1.368 . S
C982 C981 1.523 . S
H983 C958 0.950 . S
H984 C960 0.950 . S
H985 C961 0.949 . S
H986 C963 0.950 . S
H987 C965 0.950 . S
C988 C989 1.349 . S
C988 C990 1.327 . S
C988 H1013 0.950 . S
C989 C988 1.349 . S
C989 C1005 1.349 . S
C990 C988 1.327 . S
C990 C1009 1.429 . S
C990 H1014 0.950 . S
C991 C1008 1.574 . S
C991 C1010 1.368 . S
C991 H1015 0.949 . S
H992 C996 0.949 . S
C993 C994 1.349 . S
C993 C995 1.327 . S
C993 H1016 0.950 . S
C994 C993 1.349 . S
C994 C1006 1.349 . S
C995 C993 1.327 . S
C995 C1011 1.429 . S
C995 H1017 0.950 . S
C996 H992 0.949 . S
C996 C1004 1.574 . S
C996 C1012 1.368 . S
H997 C1005 0.950 . S
H998 C1003 0.950 . S
H999 C1004 0.949 . S
H1000 C1006 0.950 . S
H1001 C1007 0.950 . S
H1002 C1008 0.949 . S
C1003 H998 0.950 . S
C1003 C1005 1.327 . S
C1003 C1009 1.429 . S
C1004 C996 1.574 . S
C1004 H999 0.949 . S
C1004 C1010 1.368 . S
C1005 C989 1.349 . S
C1005 H997 0.950 . S
C1005 C1003 1.327 . S
C1006 C994 1.349 . S
C1006 H1000 0.950 . S
C1006 C1007 1.327 . S
C1007 H1001 0.950 . S
C1007 C1006 1.327 . S
C1007 C1011 1.429 . S
C1008 C991 1.574 . S
C1008 H1002 0.949 . S
C1008 C1012 1.368 . S
C1009 C990 1.429 . S
C1009 C1003 1.429 . S
C1009 C1010 1.523 . S
C1010 C991 1.368 . S
C1010 C1004 1.368 . S
C1010 C1009 1.523 . S
C1011 C995 1.429 . S
C1011 C1007 1.429 . S
C1011 C1012 1.523 . S
C1012 C996 1.368 . S
C1012 C1008 1.368 . S
C1012 C1011 1.523 . S
H1013 C988 0.950 . S
H1014 C990 0.950 . S
H1015 C991 0.949 . S
H1016 C993 0.950 . S
H1017 C995 0.950 . S
C1018 C1019 1.349 . S
C1018 C1020 1.327 . S
C1018 H1043 0.950 . S
C1019 C1018 1.349 . S
C1019 C1035 1.349 . S
C1020 C1018 1.327 . S
C1020 C1039 1.429 . S
C1020 H1044 0.950 . S
C1021 C1038 1.574 . S
C1021 C1040 1.368 . S
C1021 H1045 0.949 . S
H1022 C1026 0.949 . S
C1023 C1024 1.349 . S
C1023 C1025 1.327 1_455 S
C1023 H1046 0.950 . S
C1024 C1023 1.349 . S
C1024 C1036 1.349 . S
C1025 C1023 1.327 1_655 S
C1025 C1041 1.429 . S
C1025 H1047 0.950 . S
C1026 H1022 0.949 . S
C1026 C1034 1.574 . S
C1026 C1042 1.368 . S
H1027 C1035 0.950 . S
H1028 C1033 0.950 . S
H1029 C1034 0.949 . S
H1030 C1036 0.950 . S
H1031 C1037 0.950 . S
H1032 C1038 0.949 . S
C1033 H1028 0.950 . S
C1033 C1035 1.327 . S
C1033 C1039 1.429 . S
C1034 C1026 1.574 . S
C1034 H1029 0.949 . S
C1034 C1040 1.368 . S
C1035 C1019 1.349 . S
C1035 H1027 0.950 . S
C1035 C1033 1.327 . S
C1036 C1024 1.349 . S
C1036 H1030 0.950 . S
C1036 C1037 1.327 1_455 S
C1037 H1031 0.950 . S
C1037 C1036 1.327 1_655 S
C1037 C1041 1.429 . S
C1038 C1021 1.574 . S
C1038 H1032 0.949 . S
C1038 C1042 1.368 . S
C1039 C1020 1.429 . S
C1039 C1033 1.429 . S
C1039 C1040 1.523 . S
C1040 C1021 1.368 . S
C1040 C1034 1.368 . S
C1040 C1039 1.523 . S
C1041 C1025 1.429 . S
C1041 C1037 1.429 . S
C1041 C1042 1.523 . S
C1042 C1026 1.368 . S
C1042 C1038 1.368 . S
C1042 C1041 1.523 . S
H1043 C1018 0.950 . S
H1044 C1020 0.950 . S
H1045 C1021 0.949 . S
H1046 C1023 0.950 . S
H1047 C1025 0.950 . S
C1048 C1049 1.349 . S
C1048 C1050 1.327 . S
C1048 H1073 0.950 . S
C1049 C1048 1.349 . S
C1049 C1065 1.349 . S
C1050 C1048 1.327 . S
C1050 C1069 1.429 . S
C1050 H1074 0.950 . S
C1051 C1068 1.574 . S
C1051 C1070 1.368 . S
C1051 H1075 0.949 . S
H1052 C1056 0.949 . S
C1053 C1054 1.349 . S
C1053 C1055 1.327 . S
C1053 H1076 0.950 . S
C1054 C1053 1.349 . S
C1054 C1066 1.349 . S
C1055 C1053 1.327 . S
C1055 C1071 1.429 . S
C1055 H1077 0.950 . S
C1056 H1052 0.949 . S
C1056 C1064 1.574 . S
C1056 C1072 1.368 . S
H1057 C1065 0.950 . S
H1058 C1063 0.950 . S
H1059 C1064 0.949 . S
H1060 C1066 0.950 . S
H1061 C1067 0.950 . S
H1062 C1068 0.949 . S
C1063 H1058 0.950 . S
C1063 C1065 1.327 . S
C1063 C1069 1.429 . S
C1064 C1056 1.574 . S
C1064 H1059 0.949 . S
C1064 C1070 1.368 . S
C1065 C1049 1.349 . S
C1065 H1057 0.950 . S
C1065 C1063 1.327 . S
C1066 C1054 1.349 . S
C1066 H1060 0.950 . S
C1066 C1067 1.327 . S
C1067 H1061 0.950 . S
C1067 C1066 1.327 . S
C1067 C1071 1.429 . S
C1068 C1051 1.574 . S
C1068 H1062 0.949 . S
C1068 C1072 1.368 . S
C1069 C1050 1.429 . S
C1069 C1063 1.429 . S
C1069 C1070 1.523 . S
C1070 C1051 1.368 . S
C1070 C1064 1.368 . S
C1070 C1069 1.523 . S
C1071 C1055 1.429 . S
C1071 C1067 1.429 . S
C1071 C1072 1.523 . S
C1072 C1056 1.368 . S
C1072 C1068 1.368 . S
C1072 C1071 1.523 . S
H1073 C1048 0.950 . S
H1074 C1050 0.950 . S
H1075 C1051 0.949 . S
H1076 C1053 0.950 . S
H1077 C1055 0.950 . S
C1078 C1079 1.349 . S
C1078 C1080 1.327 1_655 S
C1078 H1103 0.950 . S
C1079 C1078 1.349 . S
C1079 C1095 1.349 . S
C1080 C1078 1.327 1_455 S
C1080 C1099 1.429 . S
C1080 H1104 0.950 . S
C1081 C1098 1.574 . S
C1081 C1100 1.368 . S
C1081 H1105 0.949 . S
H1082 C1086 0.949 . S
C1083 C1084 1.349 . S
C1083 C1085 1.327 . S
C1083 H1106 0.950 . S
C1084 C1083 1.349 . S
C1084 C1096 1.349 . S
C1085 C1083 1.327 . S
C1085 C1101 1.429 . S
C1085 H1107 0.950 . S
C1086 H1082 0.949 . S
C1086 C1094 1.574 . S
C1086 C1102 1.368 . S
H1087 C1095 0.950 . S
H1088 C1093 0.950 . S
H1089 C1094 0.949 . S
H1090 C1096 0.950 . S
H1091 C1097 0.950 . S
H1092 C1098 0.949 . S
C1093 H1088 0.950 . S
C1093 C1095 1.327 1_455 S
C1093 C1099 1.429 . S
C1094 C1086 1.574 . S
C1094 H1089 0.949 . S
C1094 C1100 1.368 . S
C1095 C1079 1.349 . S
C1095 H1087 0.950 . S
C1095 C1093 1.327 1_655 S
C1096 C1084 1.349 . S
C1096 H1090 0.950 . S
C1096 C1097 1.327 . S
C1097 H1091 0.950 . S
C1097 C1096 1.327 . S
C1097 C1101 1.429 . S
C1098 C1081 1.574 . S
C1098 H1092 0.949 . S
C1098 C1102 1.368 . S
C1099 C1080 1.429 . S
C1099 C1093 1.429 . S
C1099 C1100 1.523 . S
C1100 C1081 1.368 . S
C1100 C1094 1.368 . S
C1100 C1099 1.523 . S
C1101 C1085 1.429 . S
C1101 C1097 1.429 . S
C1101 C1102 1.523 . S
C1102 C1086 1.368 . S
C1102 C1098 1.368 . S
C1102 C1101 1.523 . S
H1103 C1078 0.950 . S
H1104 C1080 0.950 . S
H1105 C1081 0.949 . S
H1106 C1083 0.950 . S
H1107 C1085 0.950 . S
C1108 C1109 1.349 . S
C1108 C1110 1.327 . S
C1108 H1133 0.950 . S
C1109 C1108 1.349 . S
C1109 C1125 1.349 . S
C1110 C1108 1.327 . S
C1110 C1129 1.429 . S
C1110 H1134 0.950 . S
C1111 C1128 1.574 . S
C1111 C1130 1.368 . S
C1111 H1135 0.949 . S
H1112 C1116 0.949 . S
C1113 C1114 1.349 . S
C1113 C1115 1.327 . S
C1113 H1136 0.950 . S
C1114 C1113 1.349 . S
C1114 C1126 1.349 . S
C1115 C1113 1.327 . S
C1115 C1131 1.429 . S
C1115 H1137 0.950 . S
C1116 H1112 0.949 . S
C1116 C1124 1.574 . S
C1116 C1132 1.368 . S
H1117 C1125 0.950 . S
H1118 C1123 0.950 . S
H1119 C1124 0.949 . S
H1120 C1126 0.950 . S
H1121 C1127 0.950 . S
H1122 C1128 0.949 . S
C1123 H1118 0.950 . S
C1123 C1125 1.327 . S
C1123 C1129 1.429 . S
C1124 C1116 1.574 . S
C1124 H1119 0.949 . S
C1124 C1130 1.368 . S
C1125 C1109 1.349 . S
C1125 H1117 0.950 . S
C1125 C1123 1.327 . S
C1126 C1114 1.349 . S
C1126 H1120 0.950 . S
C1126 C1127 1.327 . S
C1127 H1121 0.950 . S
C1127 C1126 1.327 . S
C1127 C1131 1.429 . S
C1128 C1111 1.574 . S
C1128 H1122 0.949 . S
C1128 C1132 1.368 . S
C1129 C1110 1.429 . S
C1129 C1123 1.429 . S
C1129 C1130 1.523 . S
C1130 C1111 1.368 . S
C1130 C1124 1.368 . S
C1130 C1129 1.523 . S
C1131 C1115 1.429 . S
C1131 C1127 1.429 . S
C1131 C1132 1.523 . S
C1132 C1116 1.368 . S
C1132 C1128 1.368 . S
C1132 C1131 1.523 . S
H1133 C1108 0.950 . S
H1134 C1110 0.950 . S
H1135 C1111 0.949 . S
H1136 C1113 0.950 . S
H1137 C1115 0.950 . S
C1138 C1139 1.349 . S
C1138 C1140 1.327 1_655 S
C1138 H1163 0.950 . S
C1139 C1138 1.349 . S
C1139 C1155 1.349 . S
C1140 C1138 1.327 1_455 S
C1140 C1159 1.429 . S
C1140 H1164 0.950 . S
C1141 C1158 1.574 . S
C1141 C1160 1.368 . S
C1141 H1165 0.949 . S
H1142 C1146 0.949 . S
C1143 C1144 1.349 . S
C1143 C1145 1.327 . S
C1143 H1166 0.950 . S
C1144 C1143 1.349 . S
C1144 C1156 1.349 . S
C1145 C1143 1.327 . S
C1145 C1161 1.429 . S
C1145 H1167 0.950 . S
C1146 H1142 0.949 . S
C1146 C1154 1.574 . S
C1146 C1162 1.368 . S
H1147 C1155 0.950 . S
H1148 C1153 0.950 . S
H1149 C1154 0.949 . S
H1150 C1156 0.950 . S
H1151 C1157 0.950 . S
H1152 C1158 0.949 . S
C1153 H1148 0.950 . S
C1153 C1155 1.327 1_455 S
C1153 C1159 1.429 . S
C1154 C1146 1.574 . S
C1154 H1149 0.949 . S
C1154 C1160 1.368 . S
C1155 C1139 1.349 . S
C1155 H1147 0.950 . S
C1155 C1153 1.327 1_655 S
C1156 C1144 1.349 . S
C1156 H1150 0.950 . S
C1156 C1157 1.327 . S
C1157 H1151 0.950 . S
C1157 C1156 1.327 . S
C1157 C1161 1.429 . S
C1158 C1141 1.574 . S
C1158 H1152 0.949 . S
C1158 C1162 1.368 . S
C1159 C1140 1.429 . S
C1159 C1153 1.429 . S
C1159 C1160 1.523 . S
C1160 C1141 1.368 . S
C1160 C1154 1.368 . S
C1160 C1159 1.523 . S
C1161 C1145 1.429 . S
C1161 C1157 1.429 . S
C1161 C1162 1.523 . S
C1162 C1146 1.368 . S
C1162 C1158 1.368 . S
C1162 C1161 1.523 . S
H1163 C1138 0.950 . S
H1164 C1140 0.950 . S
H1165 C1141 0.949 . S
H1166 C1143 0.950 . S
H1167 C1145 0.950 . S
C1168 C1169 1.349 . S
C1168 C1170 1.327 . S
C1168 H1193 0.950 . S
C1169 C1168 1.349 . S
C1169 C1185 1.349 . S
C1170 C1168 1.327 . S
C1170 C1189 1.429 . S
C1170 H1194 0.950 . S
C1171 C1188 1.574 . S
C1171 C1190 1.368 . S
C1171 H1195 0.949 . S
H1172 C1176 0.949 . S
C1173 C1174 1.349 . S
C1173 C1175 1.327 . S
C1173 H1196 0.950 . S
C1174 C1173 1.349 . S
C1174 C1186 1.349 . S
C1175 C1173 1.327 . S
C1175 C1191 1.429 . S
C1175 H1197 0.950 . S
C1176 H1172 0.949 . S
C1176 C1184 1.574 . S
C1176 C1192 1.368 . S
H1177 C1185 0.950 . S
H1178 C1183 0.950 . S
H1179 C1184 0.949 . S
H1180 C1186 0.950 . S
H1181 C1187 0.950 . S
H1182 C1188 0.949 . S
C1183 H1178 0.950 . S
C1183 C1185 1.327 . S
C1183 C1189 1.429 . S
C1184 C1176 1.574 . S
C1184 H1179 0.949 . S
C1184 C1190 1.368 . S
C1185 C1169 1.349 . S
C1185 H1177 0.950 . S
C1185 C1183 1.327 . S
C1186 C1174 1.349 . S
C1186 H1180 0.950 . S
C1186 C1187 1.327 . S
C1187 H1181 0.950 . S
C1187 C1186 1.327 . S
C1187 C1191 1.429 . S
C1188 C1171 1.574 . S
C1188 H1182 0.949 . S
C1188 C1192 1.368 . S
C1189 C1170 1.429 . S
C1189 C1183 1.429 . S
C1189 C1190 1.523 . S
C1190 C1171 1.368 . S
C1190 C1184 1.368 . S
C1190 C1189 1.523 . S
C1191 C1175 1.429 . S
C1191 C1187 1.429 . S
C1191 C1192 1.523 . S
C1192 C1176 1.368 . S
C1192 C1188 1.368 . S
C1192 C1191 1.523 . S
H1193 C1168 0.950 . S
H1194 C1170 0.950 . S
H1195 C1171 0.949 . S
H1196 C1173 0.950 . S
H1197 C1175 0.950 . S
C1198 C1199 1.349 . S
C1198 C1200 1.327 . S
C1198 H1223 0.950 . S
C1199 C1198 1.349 . S
C1199 C1215 1.349 . S
C1200 C1198 1.327 . S
C1200 C1219 1.429 . S
C1200 H1224 0.950 . S
C1201 C1218 1.574 . S
C1201 C1220 1.368 . S
C1201 H1225 0.949 . S
H1202 C1206 0.949 . S
C1203 C1204 1.349 . S
C1203 C1205 1.327 1_455 S
C1203 H1226 0.950 . S
C1204 C1203 1.349 . S
C1204 C1216 1.349 . S
C1205 C1203 1.327 1_655 S
C1205 C1221 1.429 . S
C1205 H1227 0.950 . S
C1206 H1202 0.949 . S
C1206 C1214 1.574 . S
C1206 C1222 1.368 . S
H1207 C1215 0.950 . S
H1208 C1213 0.950 . S
H1209 C1214 0.949 . S
H1210 C1216 0.950 . S
H1211 C1217 0.950 . S
H1212 C1218 0.949 . S
C1213 H1208 0.950 . S
C1213 C1215 1.327 . S
C1213 C1219 1.429 . S
C1214 C1206 1.574 . S
C1214 H1209 0.949 . S
C1214 C1220 1.368 . S
C1215 C1199 1.349 . S
C1215 H1207 0.950 . S
C1215 C1213 1.327 . S
C1216 C1204 1.349 . S
C1216 H1210 0.950 . S
C1216 C1217 1.327 1_455 S
C1217 H1211 0.950 . S
C1217 C1216 1.327 1_655 S
C1217 C1221 1.429 . S
C1218 C1201 1.574 . S
C1218 H1212 0.949 . S
C1218 C1222 1.368 . S
C1219 C1200 1.429 . S
C1219 C1213 1.429 . S
C1219 C1220 1.523 . S
C1220 C1201 1.368 . S
C1220 C1214 1.368 . S
C1220 C1219 1.523 . S
C1221 C1205 1.429 . S
C1221 C1217 1.429 . S
C1221 C1222 1.523 . S
C1222 C1206 1.368 . S
C1222 C1218 1.368 . S
C1222 C1221 1.523 . S
H1223 C1198 0.950 . S
H1224 C1200 0.950 . S
H1225 C1201 0.949 . S
H1226 C1203 0.950 . S
H1227 C1205 0.950 . S
C1228 C1229 1.349 . S
C1228 C1230 1.327 . S
C1228 H1253 0.950 . S
C1229 C1228 1.349 . S
C1229 C1245 1.349 . S
C1230 C1228 1.327 . S
C1230 C1249 1.429 . S
C1230 H1254 0.950 . S
C1231 C1248 1.574 . S
C1231 C1250 1.368 . S
C1231 H1255 0.949 . S
H1232 C1236 0.949 . S
C1233 C1234 1.349 . S
C1233 C1235 1.327 . S
C1233 H1256 0.950 . S
C1234 C1233 1.349 . S
C1234 C1246 1.349 . S
C1235 C1233 1.327 . S
C1235 C1251 1.429 . S
C1235 H1257 0.950 . S
C1236 H1232 0.949 . S
C1236 C1244 1.574 . S
C1236 C1252 1.368 . S
H1237 C1245 0.950 . S
H1238 C1243 0.950 . S
H1239 C1244 0.949 . S
H1240 C1246 0.950 . S
H1241 C1247 0.950 . S
H1242 C1248 0.949 . S
C1243 H1238 0.950 . S
C1243 C1245 1.327 . S
C1243 C1249 1.429 . S
C1244 C1236 1.574 . S
C1244 H1239 0.949 . S
C1244 C1250 1.368 . S
C1245 C1229 1.349 . S
C1245 H1237 0.950 . S
C1245 C1243 1.327 . S
C1246 C1234 1.349 . S
C1246 H1240 0.950 . S
C1246 C1247 1.327 . S
C1247 H1241 0.950 . S
C1247 C1246 1.327 . S
C1247 C1251 1.429 . S
C1248 C1231 1.574 . S
C1248 H1242 0.949 . S
C1248 C1252 1.368 . S
C1249 C1230 1.429 . S
C1249 C1243 1.429 . S
C1249 C1250 1.523 . S
C1250 C1231 1.368 . S
C1250 C1244 1.368 . S
C1250 C1249 1.523 . S
C1251 C1235 1.429 . S
C1251 C1247 1.429 . S
C1251 C1252 1.523 . S
C1252 C1236 1.368 . S
C1252 C1248 1.368 . S
C1252 C1251 1.523 . S
H1253 C1228 0.950 . S
H1254 C1230 0.950 . S
H1255 C1231 0.949 . S
H1256 C1233 0.950 . S
H1257 C1235 0.950 . S
C1258 C1259 1.349 . S
C1258 C1260 1.327 . S
C1258 H1283 0.950 . S
C1259 C1258 1.349 . S
C1259 C1275 1.349 . S
C1260 C1258 1.327 . S
C1260 C1279 1.429 . S
C1260 H1284 0.950 . S
C1261 C1278 1.574 . S
C1261 C1280 1.368 . S
C1261 H1285 0.949 . S
H1262 C1266 0.949 . S
C1263 C1264 1.349 . S
C1263 C1265 1.327 1_455 S
C1263 H1286 0.950 . S
C1264 C1263 1.349 . S
C1264 C1276 1.349 . S
C1265 C1263 1.327 1_655 S
C1265 C1281 1.429 . S
C1265 H1287 0.950 . S
C1266 H1262 0.949 . S
C1266 C1274 1.574 . S
C1266 C1282 1.368 . S
H1267 C1275 0.950 . S
H1268 C1273 0.950 . S
H1269 C1274 0.949 . S
H1270 C1276 0.950 . S
H1271 C1277 0.950 . S
H1272 C1278 0.949 . S
C1273 H1268 0.950 . S
C1273 C1275 1.327 . S
C1273 C1279 1.429 . S
C1274 C1266 1.574 . S
C1274 H1269 0.949 . S
C1274 C1280 1.368 . S
C1275 C1259 1.349 . S
C1275 H1267 0.950 . S
C1275 C1273 1.327 . S
C1276 C1264 1.349 . S
C1276 H1270 0.950 . S
C1276 C1277 1.327 1_455 S
C1277 H1271 0.950 . S
C1277 C1276 1.327 1_655 S
C1277 C1281 1.429 . S
C1278 C1261 1.574 . S
C1278 H1272 0.949 . S
C1278 C1282 1.368 . S
C1279 C1260 1.429 . S
C1279 C1273 1.429 . S
C1279 C1280 1.523 . S
C1280 C1261 1.368 . S
C1280 C1274 1.368 . S
C1280 C1279 1.523 . S
C1281 C1265 1.429 . S
C1281 C1277 1.429 . S
C1281 C1282 1.523 . S
C1282 C1266 1.368 . S
C1282 C1278 1.368 . S
C1282 C1281 1.523 . S
H1283 C1258 0.950 . S
H1284 C1260 0.950 . S
H1285 C1261 0.949 . S
H1286 C1263 0.950 . S
H1287 C1265 0.950 . S
C1288 C1289 1.349 . S
C1288 C1290 1.327 . S
C1288 H1313 0.950 . S
C1289 C1288 1.349 . S
C1289 C1305 1.349 . S
C1290 C1288 1.327 . S
C1290 C1309 1.429 . S
C1290 H1314 0.950 . S
C1291 C1308 1.574 . S
C1291 C1310 1.368 . S
C1291 H1315 0.949 . S
H1292 C1296 0.949 . S
C1293 C1294 1.349 . S
C1293 C1295 1.327 . S
C1293 H1316 0.950 . S
C1294 C1293 1.349 . S
C1294 C1306 1.349 . S
C1295 C1293 1.327 . S
C1295 C1311 1.429 . S
C1295 H1317 0.950 . S
C1296 H1292 0.949 . S
C1296 C1304 1.574 . S
C1296 C1312 1.368 . S
H1297 C1305 0.950 . S
H1298 C1303 0.950 . S
H1299 C1304 0.949 . S
H1300 C1306 0.950 . S
H1301 C1307 0.950 . S
H1302 C1308 0.949 . S
C1303 H1298 0.950 . S
C1303 C1305 1.327 . S
C1303 C1309 1.429 . S
C1304 C1296 1.574 . S
C1304 H1299 0.949 . S
C1304 C1310 1.368 . S
C1305 C1289 1.349 . S
C1305 H1297 0.950 . S
C1305 C1303 1.327 . S
C1306 C1294 1.349 . S
C1306 H1300 0.950 . S
C1306 C1307 1.327 . S
C1307 H1301 0.950 . S
C1307 C1306 1.327 . S
C1307 C1311 1.429 . S
C1308 C1291 1.574 . S
C1308 H1302 0.949 . S
C1308 C1312 1.368 . S
C1309 C1290 1.429 . S
C1309 C1303 1.429 . S
C1309 C1310 1.523 . S
C1310 C1291 1.368 . S
C1310 C1304 1.368 . S
C1310 C1309 1.523 . S
C1311 C1295 1.429 . S
C1311 C1307 1.429 . S
C1311 C1312 1.523 . S
C1312 C1296 1.368 . S
C1312 C1308 1.368 . S
C1312 C1311 1.523 . S
H1313 C1288 0.950 . S
H1314 C1290 0.950 . S
H1315 C1291 0.949 . S
H1316 C1293 0.950 . S
H1317 C1295 0.950 . S
C1318 C1319 1.349 . S
C1318 C1320 1.327 . S
C1318 H1343 0.950 . S
C1319 C1318 1.349 . S
C1319 C1335 1.349 . S
C1320 C1318 1.327 . S
C1320 C1339 1.429 . S
C1320 H1344 0.950 . S
C1321 C1338 1.574 . S
C1321 C1340 1.368 . S
C1321 H1345 0.949 . S
H1322 C1326 0.949 . S
C1323 C1324 1.349 . S
C1323 C1325 1.327 1_655 S
C1323 H1346 0.950 . S
C1324 C1323 1.349 . S
C1324 C1336 1.349 . S
C1325 C1323 1.327 1_455 S
C1325 C1341 1.429 . S
C1325 H1347 0.950 . S
C1326 H1322 0.949 . S
C1326 C1334 1.574 . S
C1326 C1342 1.368 . S
H1327 C1335 0.950 . S
H1328 C1333 0.950 . S
H1329 C1334 0.949 . S
H1330 C1336 0.950 . S
H1331 C1337 0.950 . S
H1332 C1338 0.949 . S
C1333 H1328 0.950 . S
C1333 C1335 1.327 . S
C1333 C1339 1.429 . S
C1334 C1326 1.574 . S
C1334 H1329 0.949 . S
C1334 C1340 1.368 . S
C1335 C1319 1.349 . S
C1335 H1327 0.950 . S
C1335 C1333 1.327 . S
C1336 C1324 1.349 . S
C1336 H1330 0.950 . S
C1336 C1337 1.327 1_655 S
C1337 H1331 0.950 . S
C1337 C1336 1.327 1_455 S
C1337 C1341 1.429 . S
C1338 C1321 1.574 . S
C1338 H1332 0.949 . S
C1338 C1342 1.368 . S
C1339 C1320 1.429 . S
C1339 C1333 1.429 . S
C1339 C1340 1.523 . S
C1340 C1321 1.368 . S
C1340 C1334 1.368 . S
C1340 C1339 1.523 . S
C1341 C1325 1.429 . S
C1341 C1337 1.429 . S
C1341 C1342 1.523 . S
C1342 C1326 1.368 . S
C1342 C1338 1.368 . S
C1342 C1341 1.523 . S
H1343 C1318 0.950 . S
H1344 C1320 0.950 . S
H1345 C1321 0.949 . S
H1346 C1323 0.950 . S
H1347 C1325 0.950 . S
C1348 C1349 1.349 . S
C1348 C1350 1.327 . S
C1348 H1373 0.950 . S
C1349 C1348 1.349 . S
C1349 C1365 1.349 . S
C1350 C1348 1.327 . S
C1350 C1369 1.429 . S
C1350 H1374 0.950 . S
C1351 C1368 1.574 . S
C1351 C1370 1.368 . S
C1351 H1375 0.949 . S
H1352 C1356 0.949 . S
C1353 C1354 1.349 . S
C1353 C1355 1.327 . S
C1353 H1376 0.950 . S
C1354 C1353 1.349 . S
C1354 C1366 1.349 . S
C1355 C1353 1.327 . S
C1355 C1371 1.429 . S
C1355 H1377 0.950 . S
C1356 H1352 0.949 . S
C1356 C1364 1.574 . S
C1356 C1372 1.368 . S
H1357 C1365 0.950 . S
H1358 C1363 0.950 . S
H1359 C1364 0.949 . S
H1360 C1366 0.950 . S
H1361 C1367 0.950 . S
H1362 C1368 0.949 . S
C1363 H1358 0.950 . S
C1363 C1365 1.327 . S
C1363 C1369 1.429 . S
C1364 C1356 1.574 . S
C1364 H1359 0.949 . S
C1364 C1370 1.368 . S
C1365 C1349 1.349 . S
C1365 H1357 0.950 . S
C1365 C1363 1.327 . S
C1366 C1354 1.349 . S
C1366 H1360 0.950 . S
C1366 C1367 1.327 . S
C1367 H1361 0.950 . S
C1367 C1366 1.327 . S
C1367 C1371 1.429 . S
C1368 C1351 1.574 . S
C1368 H1362 0.949 . S
C1368 C1372 1.368 . S
C1369 C1350 1.429 . S
C1369 C1363 1.429 . S
C1369 C1370 1.523 . S
C1370 C1351 1.368 . S
C1370 C1364 1.368 . S
C1370 C1369 1.523 . S
C1371 C1355 1.429 . S
C1371 C1367 1.429 . S
C1371 C1372 1.523 . S
C1372 C1356 1.368 . S
C1372 C1368 1.368 . S
C1372 C1371 1.523 . S
H1373 C1348 0.950 . S
H1374 C1350 0.950 . S
H1375 C1351 0.949 . S
H1376 C1353 0.950 . S
H1377 C1355 0.950 . S
C1378 C1379 1.349 . S
C1378 C1380 1.327 1_655 S
C1378 H1403 0.950 . S
C1379 C1378 1.349 . S
C1379 C1395 1.349 . S
C1380 C1378 1.327 1_455 S
C1380 C1399 1.429 . S
C1380 H1404 0.950 . S
C1381 C1398 1.574 . S
C1381 C1400 1.368 . S
C1381 H1405 0.949 . S
H1382 C1386 0.949 . S
C1383 C1384 1.349 . S
C1383 C1385 1.327 . S
C1383 H1406 0.950 . S
C1384 C1383 1.349 . S
C1384 C1396 1.349 . S
C1385 C1383 1.327 . S
C1385 C1401 1.429 . S
C1385 H1407 0.950 . S
C1386 H1382 0.949 . S
C1386 C1394 1.574 . S
C1386 C1402 1.368 . S
H1387 C1395 0.950 . S
H1388 C1393 0.950 . S
H1389 C1394 0.949 . S
H1390 C1396 0.950 . S
H1391 C1397 0.950 . S
H1392 C1398 0.949 . S
C1393 H1388 0.950 . S
C1393 C1395 1.327 1_455 S
C1393 C1399 1.429 . S
C1394 C1386 1.574 . S
C1394 H1389 0.949 . S
C1394 C1400 1.368 . S
C1395 C1379 1.349 . S
C1395 H1387 0.950 . S
C1395 C1393 1.327 1_655 S
C1396 C1384 1.349 . S
C1396 H1390 0.950 . S
C1396 C1397 1.327 . S
C1397 H1391 0.950 . S
C1397 C1396 1.327 . S
C1397 C1401 1.429 . S
C1398 C1381 1.574 . S
C1398 H1392 0.949 . S
C1398 C1402 1.368 . S
C1399 C1380 1.429 . S
C1399 C1393 1.429 . S
C1399 C1400 1.523 . S
C1400 C1381 1.368 . S
C1400 C1394 1.368 . S
C1400 C1399 1.523 . S
C1401 C1385 1.429 . S
C1401 C1397 1.429 . S
C1401 C1402 1.523 . S
C1402 C1386 1.368 . S
C1402 C1398 1.368 . S
C1402 C1401 1.523 . S
H1403 C1378 0.950 . S
H1404 C1380 0.950 . S
H1405 C1381 0.949 . S
H1406 C1383 0.950 . S
H1407 C1385 0.950 . S
C1408 C1409 1.349 . S
C1408 C1410 1.327 . S
C1408 H1433 0.950 . S
C1409 C1408 1.349 . S
C1409 C1425 1.349 . S
C1410 C1408 1.327 . S
C1410 C1429 1.429 . S
C1410 H1434 0.950 . S
C1411 C1428 1.574 . S
C1411 C1430 1.368 1_455 S
C1411 H1435 0.949 . S
H1412 C1416 0.949 . S
C1413 C1414 1.349 . S
C1413 C1415 1.327 . S
C1413 H1436 0.950 . S
C1414 C1413 1.349 . S
C1414 C1426 1.349 . S
C1415 C1413 1.327 . S
C1415 C1431 1.429 . S
C1415 H1437 0.950 . S
C1416 H1412 0.949 . S
C1416 C1424 1.574 . S
C1416 C1432 1.368 1_655 S
H1417 C1425 0.950 1_455 S
H1418 C1423 0.939 1_455 S
H1419 C1424 0.949 . S
H1420 C1426 0.950 1_655 S
H1421 C1427 0.950 . S
H1422 C1428 0.949 . S
C1423 H1418 0.939 1_655 S
C1423 C1425 1.331 . S
C1423 C1429 1.435 . S
C1424 C1416 1.574 . S
C1424 H1419 0.949 . S
C1424 C1430 1.368 . S
C1425 C1409 1.349 . S
C1425 H1417 0.950 1_655 S
C1425 C1423 1.331 . S
C1426 C1414 1.349 . S
C1426 H1420 0.950 1_455 S
C1426 C1427 1.327 1_455 S
C1427 H1421 0.950 . S
C1427 C1426 1.327 1_655 S
C1427 C1431 1.429 1_655 S
C1428 C1411 1.574 . S
C1428 H1422 0.949 . S
C1428 C1432 1.368 . S
C1429 C1410 1.429 . S
C1429 C1423 1.435 . S
C1429 C1430 1.523 . S
C1430 C1411 1.368 1_655 S
C1430 C1424 1.368 . S
C1430 C1429 1.523 . S
C1431 C1415 1.429 . S
C1431 C1427 1.429 1_455 S
C1431 C1432 1.523 . S
C1432 C1416 1.368 1_455 S
C1432 C1428 1.368 . S
C1432 C1431 1.523 . S
H1433 C1408 0.950 . S
H1434 C1410 0.950 . S
H1435 C1411 0.949 . S
H1436 C1413 0.950 . S
H1437 C1415 0.950 . S
C1438 C1439 1.349 . S
C1438 C1440 1.327 . S
C1438 H1463 0.950 . S
C1439 C1438 1.349 . S
C1439 C1455 1.349 . S
C1440 C1438 1.327 . S
C1440 C1459 1.429 . S
C1440 H1464 0.950 . S
C1441 C1458 1.574 1_565 S
C1441 C1460 1.368 . S
C1441 H1465 0.949 . S
H1442 C1446 0.949 . S
C1443 C1444 1.349 . S
C1443 C1445 1.327 . S
C1443 H1466 0.950 . S
C1444 C1443 1.349 . S
C1444 C1456 1.349 . S
C1445 C1443 1.327 . S
C1445 C1461 1.429 . S
C1445 H1467 0.950 . S
C1446 H1442 0.949 . S
C1446 C1454 1.574 1_545 S
C1446 C1462 1.368 . S
H1447 C1455 0.950 . S
H1448 C1453 0.950 . S
H1449 C1454 0.949 . S
H1450 C1456 0.950 . S
H1451 C1457 0.950 . S
H1452 C1458 0.949 . S
C1453 H1448 0.950 . S
C1453 C1455 1.327 . S
C1453 C1459 1.429 . S
C1454 C1446 1.574 1_565 S
C1454 H1449 0.949 . S
C1454 C1460 1.368 . S
C1455 C1439 1.349 . S
C1455 H1447 0.950 . S
C1455 C1453 1.327 . S
C1456 C1444 1.349 . S
C1456 H1450 0.950 . S
C1456 C1457 1.327 . S
C1457 H1451 0.950 . S
C1457 C1456 1.327 . S
C1457 C1461 1.429 . S
C1458 C1441 1.574 1_545 S
C1458 H1452 0.949 . S
C1458 C1462 1.368 . S
C1459 C1440 1.429 . S
C1459 C1453 1.429 . S
C1459 C1460 1.523 . S
C1460 C1441 1.368 . S
C1460 C1454 1.368 . S
C1460 C1459 1.523 . S
C1461 C1445 1.429 . S
C1461 C1457 1.429 . S
C1461 C1462 1.523 . S
C1462 C1446 1.368 . S
C1462 C1458 1.368 . S
C1462 C1461 1.523 . S
H1463 C1438 0.950 . S
H1464 C1440 0.950 . S
H1465 C1441 0.949 . S
H1466 C1443 0.950 . S
H1467 C1445 0.950 . S
C1468 C1469 1.349 . S
C1468 C1470 1.334 . S
C1468 H1493 0.950 1_655 S
C1469 C1468 1.349 . S
C1469 C1485 1.349 . S
C1470 C1468 1.334 . S
C1470 C1489 1.442 . S
C1470 H1494 0.929 1_655 S
C1471 C1488 1.574 1_545 S
C1471 C1490 1.368 . S
C1471 H1495 0.949 . S
H1472 C1476 0.951 . S
C1473 C1474 1.349 . S
C1473 C1475 1.327 1_455 S
C1473 H1496 0.950 1_455 S
C1474 C1473 1.349 . S
C1474 C1486 1.349 . S
C1475 C1473 1.327 1_655 S
C1475 C1491 1.429 1_655 S
C1475 H1497 0.950 . S
C1476 H1472 0.951 . S
C1476 C1484 1.574 . S
C1476 C1492 1.368 1_545 S
H1477 C1485 0.950 . S
H1478 C1483 0.950 . S
H1479 C1484 0.949 . S
H1480 C1486 0.950 . S
H1481 C1487 0.950 . S
H1482 C1488 0.949 . S
C1483 H1478 0.950 . S
C1483 C1485 1.327 . S
C1483 C1489 1.429 . S
C1484 C1476 1.574 . S
C1484 H1479 0.949 . S
C1484 C1490 1.368 1_456 S
C1485 C1469 1.349 . S
C1485 H1477 0.950 . S
C1485 C1483 1.327 . S
C1486 C1474 1.349 . S
C1486 H1480 0.950 . S
C1486 C1487 1.327 . S
C1487 H1481 0.950 . S
C1487 C1486 1.327 . S
C1487 C1491 1.429 . S
C1488 C1471 1.574 1_565 S
C1488 H1482 0.949 . S
C1488 C1492 1.368 1_654 S
C1489 C1470 1.442 . S
C1489 C1483 1.429 . S
C1489 C1490 1.523 . S
C1490 C1471 1.368 . S
C1490 C1484 1.368 1_654 S
C1490 C1489 1.523 . S
C1491 C1475 1.429 1_455 S
C1491 C1487 1.429 . S
C1491 C1492 1.523 . S
C1492 C1476 1.368 1_565 S
C1492 C1488 1.368 1_456 S
C1492 C1491 1.523 . S
H1493 C1468 0.950 1_455 S
H1494 C1470 0.929 1_455 S
H1495 C1471 0.949 . S
H1496 C1473 0.950 1_655 S
H1497 C1475 0.950 . S
C1498 C1499 1.349 . S
C1498 C1500 1.327 . S
C1498 H1523 0.950 . S
C1499 C1498 1.349 . S
C1499 C1515 1.349 . S
C1500 C1498 1.327 . S
C1500 C1519 1.429 . S
C1500 H1524 0.950 . S
C1501 C1518 1.574 . S
C1501 C1520 1.368 1_556 S
C1501 H1525 0.949 . S
H1502 C1506 0.949 . S
C1503 C1504 1.349 . S
C1503 C1505 1.327 . S
C1503 H1526 0.950 . S
C1504 C1503 1.349 . S
C1504 C1516 1.349 . S
C1505 C1503 1.327 . S
C1505 C1521 1.429 . S
C1505 H1527 0.950 . S
C1506 H1502 0.949 . S
C1506 C1514 1.574 . S
C1506 C1522 1.368 1_554 S
H1507 C1515 0.950 . S
H1508 C1513 0.950 1_556 S
H1509 C1514 0.949 . S
H1510 C1516 0.950 . S
H1511 C1517 0.950 1_554 S
H1512 C1518 0.949 . S
C1513 H1508 0.950 1_554 S
C1513 C1515 1.327 . S
C1513 C1519 1.429 . S
C1514 C1506 1.574 . S
C1514 H1509 0.949 . S
C1514 C1520 1.368 . S
C1515 C1499 1.349 . S
C1515 H1507 0.950 . S
C1515 C1513 1.327 . S
C1516 C1504 1.349 . S
C1516 H1510 0.950 . S
C1516 C1517 1.327 . S
C1517 H1511 0.950 1_556 S
C1517 C1516 1.327 . S
C1517 C1521 1.429 . S
C1518 C1501 1.574 . S
C1518 H1512 0.949 . S
C1518 C1522 1.368 . S
C1519 C1500 1.429 . S
C1519 C1513 1.429 . S
C1519 C1520 1.523 . S
C1520 C1501 1.368 1_554 S
C1520 C1514 1.368 . S
C1520 C1519 1.523 . S
C1521 C1505 1.429 . S
C1521 C1517 1.429 . S
C1521 C1522 1.523 . S
C1522 C1506 1.368 1_556 S
C1522 C1518 1.368 . S
C1522 C1521 1.523 . S
H1523 C1498 0.950 . S
H1524 C1500 0.950 . S
H1525 C1501 0.949 . S
H1526 C1503 0.950 . S
H1527 C1505 0.950 . S
C1528 C1529 1.349 . S
C1528 C1530 1.327 . S
C1528 H1553 0.950 . S
C1529 C1528 1.349 . S
C1529 C1545 1.349 . S
C1530 C1528 1.327 . S
C1530 C1549 1.429 . S
C1530 H1554 0.950 . S
C1531 C1548 1.574 . S
C1531 C1550 1.368 1_455 S
C1531 H1555 0.949 . S
H1532 C1536 0.949 . S
C1533 C1534 1.349 . S
C1533 C1535 1.327 . S
C1533 H1556 0.950 . S
C1534 C1533 1.349 . S
C1534 C1546 1.349 . S
C1535 C1533 1.327 . S
C1535 C1551 1.429 . S
C1535 H1557 0.950 . S
C1536 H1532 0.949 . S
C1536 C1544 1.574 . S
C1536 C1552 1.368 1_655 S
H1537 C1545 0.950 . S
H1538 C1543 0.950 1_455 S
H1539 C1544 0.949 . S
H1540 C1546 0.950 . S
H1541 C1547 0.950 1_655 S
H1542 C1548 0.949 . S
C1543 H1538 0.950 1_655 S
C1543 C1545 1.327 . S
C1543 C1549 1.429 . S
C1544 C1536 1.574 . S
C1544 H1539 0.949 . S
C1544 C1550 1.368 . S
C1545 C1529 1.349 . S
C1545 H1537 0.950 . S
C1545 C1543 1.327 . S
C1546 C1534 1.349 . S
C1546 H1540 0.950 . S
C1546 C1547 1.327 . S
C1547 H1541 0.950 1_455 S
C1547 C1546 1.327 . S
C1547 C1551 1.429 . S
C1548 C1531 1.574 . S
C1548 H1542 0.949 . S
C1548 C1552 1.368 . S
C1549 C1530 1.429 . S
C1549 C1543 1.429 . S
C1549 C1550 1.523 . S
C1550 C1531 1.368 1_655 S
C1550 C1544 1.368 . S
C1550 C1549 1.523 . S
C1551 C1535 1.429 . S
C1551 C1547 1.429 . S
C1551 C1552 1.523 . S
C1552 C1536 1.368 1_455 S
C1552 C1548 1.368 . S
C1552 C1551 1.523 . S
H1553 C1528 0.950 . S
H1554 C1530 0.950 . S
H1555 C1531 0.949 . S
H1556 C1533 0.950 . S
H1557 C1535 0.950 . S
C1558 C1559 1.349 . S
C1558 C1560 1.327 . S
C1558 H1583 0.950 . S
C1559 C1558 1.349 . S
C1559 C1575 1.349 . S
C1560 C1558 1.327 . S
C1560 C1579 1.429 . S
C1560 H1584 0.950 . S
C1561 C1578 1.574 1_565 S
C1561 C1580 1.368 . S
C1561 H1585 0.949 . S
H1562 C1566 0.949 . S
C1563 C1564 1.349 . S
C1563 C1565 1.327 . S
C1563 H1586 0.950 . S
C1564 C1563 1.349 . S
C1564 C1576 1.349 . S
C1565 C1563 1.327 . S
C1565 C1581 1.429 . S
C1565 H1587 0.950 . S
C1566 H1562 0.949 . S
C1566 C1574 1.484 1_545 S
C1566 C1582 1.368 . S
H1567 C1575 0.950 . S
H1568 C1573 0.950 . S
H1569 C1574 0.988 . S
H1570 C1576 0.950 . S
H1571 C1577 0.950 . S
H1572 C1578 0.949 . S
C1573 H1568 0.950 . S
C1573 C1575 1.327 . S
C1573 C1579 1.429 . S
C1574 C1566 1.484 1_565 S
C1574 H1569 0.988 . S
C1574 C1580 1.423 . S
C1575 C1559 1.349 . S
C1575 H1567 0.950 . S
C1575 C1573 1.327 . S
C1576 C1564 1.349 . S
C1576 H1570 0.950 . S
C1576 C1577 1.327 . S
C1577 H1571 0.950 . S
C1577 C1576 1.327 . S
C1577 C1581 1.429 . S
C1578 C1561 1.574 1_545 S
C1578 H1572 0.949 . S
C1578 C1582 1.368 . S
C1579 C1560 1.429 . S
C1579 C1573 1.429 . S
C1579 C1580 1.523 . S
C1580 C1561 1.368 . S
C1580 C1574 1.423 . S
C1580 C1579 1.523 . S
C1581 C1565 1.429 . S
C1581 C1577 1.429 . S
C1581 C1582 1.523 . S
C1582 C1566 1.368 . S
C1582 C1578 1.368 . S
C1582 C1581 1.523 . S
H1583 C1558 0.950 . S
H1584 C1560 0.950 . S
H1585 C1561 0.949 . S
H1586 C1563 0.950 . S
H1587 C1565 0.950 . S
C1588 C1589 1.349 . S
C1588 C1590 1.327 . S
C1588 H1613 0.950 . S
C1589 C1588 1.349 . S
C1589 C1605 1.349 . S
C1590 C1588 1.327 . S
C1590 C1609 1.429 . S
C1590 H1614 0.950 . S
C1591 C1608 1.574 . S
C1591 C1610 1.368 1_554 S
C1591 H1615 0.949 . S
H1592 C1596 0.949 . S
C1593 C1594 1.349 . S
C1593 C1595 1.327 . S
C1593 H1616 0.950 . S
C1594 C1593 1.349 . S
C1594 C1606 1.349 . S
C1595 C1593 1.327 . S
C1595 C1611 1.429 . S
C1595 H1617 0.950 . S
C1596 H1592 0.949 . S
C1596 C1604 1.574 . S
C1596 C1612 1.368 1_556 S
H1597 C1605 0.950 . S
H1598 C1603 0.950 1_554 S
H1599 C1604 0.949 . S
H1600 C1606 0.950 . S
H1601 C1607 0.950 1_556 S
H1602 C1608 0.949 . S
C1603 H1598 0.950 1_556 S
C1603 C1605 1.327 . S
C1603 C1609 1.429 . S
C1604 C1596 1.574 . S
C1604 H1599 0.949 . S
C1604 C1610 1.368 . S
C1605 C1589 1.349 . S
C1605 H1597 0.950 . S
C1605 C1603 1.327 . S
C1606 C1594 1.349 . S
C1606 H1600 0.950 . S
C1606 C1607 1.327 . S
C1607 H1601 0.950 1_554 S
C1607 C1606 1.327 . S
C1607 C1611 1.429 . S
C1608 C1591 1.574 . S
C1608 H1602 0.949 . S
C1608 C1612 1.368 . S
C1609 C1590 1.429 . S
C1609 C1603 1.429 . S
C1609 C1610 1.523 . S
C1610 C1591 1.368 1_556 S
C1610 C1604 1.368 . S
C1610 C1609 1.523 . S
C1611 C1595 1.429 . S
C1611 C1607 1.429 . S
C1611 C1612 1.523 . S
C1612 C1596 1.368 1_554 S
C1612 C1608 1.368 . S
C1612 C1611 1.523 . S
H1613 C1588 0.950 . S
H1614 C1590 0.950 . S
H1615 C1591 0.949 . S
H1616 C1593 0.950 . S
H1617 C1595 0.950 . S
C1618 C1619 1.349 . S
C1618 C1620 1.327 . S
C1618 H1643 0.950 . S
C1619 C1618 1.349 . S
C1619 C1635 1.349 . S
C1620 C1618 1.327 . S
C1620 C1639 1.429 . S
C1620 H1644 0.950 . S
C1621 C1638 1.574 . S
C1621 C1640 1.368 . S
C1621 H1645 0.949 . S
H1622 C1626 0.949 . S
C1623 C1624 1.349 . S
C1623 C1625 1.327 . S
C1623 H1646 0.950 . S
C1624 C1623 1.349 . S
C1624 C1636 1.349 . S
C1625 C1623 1.327 . S
C1625 C1641 1.429 . S
C1625 H1647 0.950 . S
C1626 H1622 0.949 . S
C1626 C1634 1.574 . S
C1626 C1642 1.368 . S
H1627 C1635 0.950 . S
H1628 C1633 0.950 . S
H1629 C1634 0.949 . S
H1630 C1636 0.950 . S
H1631 C1637 0.950 . S
H1632 C1638 0.949 . S
C1633 H1628 0.950 . S
C1633 C1635 1.327 . S
C1633 C1639 1.429 . S
C1634 C1626 1.574 . S
C1634 H1629 0.949 . S
C1634 C1640 1.368 . S
C1635 C1619 1.349 . S
C1635 H1627 0.950 . S
C1635 C1633 1.327 . S
C1636 C1624 1.349 . S
C1636 H1630 0.950 . S
C1636 C1637 1.327 . S
C1637 H1631 0.950 . S
C1637 C1636 1.327 . S
C1637 C1641 1.429 . S
C1638 C1621 1.574 . S
C1638 H1632 0.949 . S
C1638 C1642 1.368 . S
C1639 C1620 1.429 . S
C1639 C1633 1.429 . S
C1639 C1640 1.523 . S
C1640 C1621 1.368 . S
C1640 C1634 1.368 . S
C1640 C1639 1.523 . S
C1641 C1625 1.429 . S
C1641 C1637 1.429 . S
C1641 C1642 1.523 . S
C1642 C1626 1.368 . S
C1642 C1638 1.368 . S
C1642 C1641 1.523 . S
H1643 C1618 0.950 . S
H1644 C1620 0.950 . S
H1645 C1621 0.949 . S
H1646 C1623 0.950 . S
H1647 C1625 0.950 . S
C1648 C1649 1.349 . S
C1648 C1650 1.327 . S
C1648 H1673 0.950 . S
C1649 C1648 1.349 . S
C1649 C1665 1.349 . S
C1650 C1648 1.327 . S
C1650 C1669 1.429 . S
C1650 H1674 0.950 . S
C1651 C1668 1.574 1_455 S
C1651 C1670 1.368 . S
C1651 H1675 0.949 . S
H1652 C1656 0.949 . S
C1653 C1654 1.349 . S
C1653 C1655 1.327 . S
C1653 H1676 0.950 . S
C1654 C1653 1.349 . S
C1654 C1666 1.349 . S
C1655 C1653 1.327 . S
C1655 C1671 1.429 . S
C1655 H1677 0.950 . S
C1656 H1652 0.949 . S
C1656 C1664 1.574 1_655 S
C1656 C1672 1.368 . S
H1657 C1665 0.950 . S
H1658 C1663 0.950 . S
H1659 C1664 0.949 . S
H1660 C1666 0.950 . S
H1661 C1667 0.950 . S
H1662 C1668 0.949 . S
C1663 H1658 0.950 . S
C1663 C1665 1.327 . S
C1663 C1669 1.429 . S
C1664 C1656 1.574 1_455 S
C1664 H1659 0.949 . S
C1664 C1670 1.368 . S
C1665 C1649 1.349 . S
C1665 H1657 0.950 . S
C1665 C1663 1.327 . S
C1666 C1654 1.349 . S
C1666 H1660 0.950 . S
C1666 C1667 1.327 . S
C1667 H1661 0.950 . S
C1667 C1666 1.327 . S
C1667 C1671 1.429 . S
C1668 C1651 1.574 1_655 S
C1668 H1662 0.949 . S
C1668 C1672 1.368 . S
C1669 C1650 1.429 . S
C1669 C1663 1.429 . S
C1669 C1670 1.523 . S
C1670 C1651 1.368 . S
C1670 C1664 1.368 . S
C1670 C1669 1.523 . S
C1671 C1655 1.429 . S
C1671 C1667 1.429 . S
C1671 C1672 1.523 . S
C1672 C1656 1.368 . S
C1672 C1668 1.368 . S
C1672 C1671 1.523 . S
H1673 C1648 0.950 . S
H1674 C1650 0.950 . S
H1675 C1651 0.949 . S
H1676 C1653 0.950 . S
H1677 C1655 0.950 . S
C1678 C1679 1.349 . S
C1678 C1680 1.327 . S
C1678 H1703 0.950 . S
C1679 C1678 1.349 . S
C1679 C1695 1.349 . S
C1680 C1678 1.327 . S
C1680 C1699 1.429 . S
C1680 H1704 0.950 . S
C1681 C1698 1.574 . S
C1681 C1700 1.368 . S
C1681 H1705 0.949 . S
H1682 C1686 0.949 . S
C1683 C1684 1.349 . S
C1683 C1685 1.327 . S
C1683 H1706 0.950 . S
C1684 C1683 1.349 . S
C1684 C1696 1.349 . S
C1685 C1683 1.327 . S
C1685 C1701 1.429 . S
C1685 H1707 0.950 . S
C1686 H1682 0.949 . S
C1686 C1694 1.574 . S
C1686 C1702 1.368 . S
H1687 C1695 0.950 . S
H1688 C1693 0.950 . S
H1689 C1694 0.949 . S
H1690 C1696 0.950 . S
H1691 C1697 0.950 . S
H1692 C1698 0.949 . S
C1693 H1688 0.950 . S
C1693 C1695 1.327 . S
C1693 C1699 1.429 . S
C1694 C1686 1.574 . S
C1694 H1689 0.949 . S
C1694 C1700 1.368 . S
C1695 C1679 1.349 . S
C1695 H1687 0.950 . S
C1695 C1693 1.327 . S
C1696 C1684 1.349 . S
C1696 H1690 0.950 . S
C1696 C1697 1.327 . S
C1697 H1691 0.950 . S
C1697 C1696 1.327 . S
C1697 C1701 1.429 . S
C1698 C1681 1.574 . S
C1698 H1692 0.949 . S
C1698 C1702 1.368 . S
C1699 C1680 1.429 . S
C1699 C1693 1.429 . S
C1699 C1700 1.523 . S
C1700 C1681 1.368 . S
C1700 C1694 1.368 . S
C1700 C1699 1.523 . S
C1701 C1685 1.429 . S
C1701 C1697 1.429 . S
C1701 C1702 1.523 . S
C1702 C1686 1.368 . S
C1702 C1698 1.368 . S
C1702 C1701 1.523 . S
H1703 C1678 0.950 . S
H1704 C1680 0.950 . S
H1705 C1681 0.949 . S
H1706 C1683 0.950 . S
H1707 C1685 0.950 . S
C1708 C1709 1.349 . S
C1708 C1710 1.327 . S
C1708 H1733 0.950 . S
C1709 C1708 1.349 . S
C1709 C1725 1.349 . S
C1710 C1708 1.327 . S
C1710 C1729 1.429 . S
C1710 H1734 0.950 . S
C1711 C1728 1.574 . S
C1711 C1730 1.368 . S
C1711 H1735 0.949 . S
H1712 C1716 0.949 . S
C1713 C1714 1.349 . S
C1713 C1715 1.327 . S
C1713 H1736 0.950 . S
C1714 C1713 1.349 . S
C1714 C1726 1.349 . S
C1715 C1713 1.327 . S
C1715 C1731 1.429 . S
C1715 H1737 0.950 . S
C1716 H1712 0.949 . S
C1716 C1724 1.574 . S
C1716 C1732 1.368 . S
H1717 C1725 0.950 . S
H1718 C1723 0.950 . S
H1719 C1724 0.949 . S
H1720 C1726 0.950 . S
H1721 C1727 0.950 . S
H1722 C1728 0.949 . S
C1723 H1718 0.950 . S
C1723 C1725 1.327 . S
C1723 C1729 1.429 . S
C1724 C1716 1.574 . S
C1724 H1719 0.949 . S
C1724 C1730 1.368 . S
C1725 C1709 1.349 . S
C1725 H1717 0.950 . S
C1725 C1723 1.327 . S
C1726 C1714 1.349 . S
C1726 H1720 0.950 . S
C1726 C1727 1.327 . S
C1727 H1721 0.950 . S
C1727 C1726 1.327 . S
C1727 C1731 1.429 . S
C1728 C1711 1.574 . S
C1728 H1722 0.949 . S
C1728 C1732 1.368 . S
C1729 C1710 1.429 . S
C1729 C1723 1.429 . S
C1729 C1730 1.523 . S
C1730 C1711 1.368 . S
C1730 C1724 1.368 . S
C1730 C1729 1.523 . S
C1731 C1715 1.429 . S
C1731 C1727 1.429 . S
C1731 C1732 1.523 . S
C1732 C1716 1.368 . S
C1732 C1728 1.368 . S
C1732 C1731 1.523 . S
H1733 C1708 0.950 . S
H1734 C1710 0.950 . S
H1735 C1711 0.949 . S
H1736 C1713 0.950 . S
H1737 C1715 0.950 . S
C1738 C1739 1.349 . S
C1738 C1740 1.327 . S
C1738 H1763 0.950 . S
C1739 C1738 1.349 . S
C1739 C1755 1.349 . S
C1740 C1738 1.327 . S
C1740 C1759 1.429 . S
C1740 H1764 0.950 . S
C1741 C1758 1.574 . S
C1741 C1760 1.368 . S
C1741 H1765 0.949 . S
H1742 C1746 0.949 . S
C1743 C1744 1.349 . S
C1743 C1745 1.327 . S
C1743 H1766 0.950 . S
C1744 C1743 1.349 . S
C1744 C1756 1.349 . S
C1745 C1743 1.327 . S
C1745 C1761 1.429 . S
C1745 H1767 0.950 . S
C1746 H1742 0.949 . S
C1746 C1754 1.574 . S
C1746 C1762 1.368 . S
H1747 C1755 0.950 . S
H1748 C1753 0.950 . S
H1749 C1754 0.949 . S
H1750 C1756 0.950 . S
H1751 C1757 0.950 . S
H1752 C1758 0.949 . S
C1753 H1748 0.950 . S
C1753 C1755 1.327 . S
C1753 C1759 1.429 . S
C1754 C1746 1.574 . S
C1754 H1749 0.949 . S
C1754 C1760 1.368 . S
C1755 C1739 1.349 . S
C1755 H1747 0.950 . S
C1755 C1753 1.327 . S
C1756 C1744 1.349 . S
C1756 H1750 0.950 . S
C1756 C1757 1.327 . S
C1757 H1751 0.950 . S
C1757 C1756 1.327 . S
C1757 C1761 1.429 . S
C1758 C1741 1.574 . S
C1758 H1752 0.949 . S
C1758 C1762 1.368 . S
C1759 C1740 1.429 . S
C1759 C1753 1.429 . S
C1759 C1760 1.523 . S
C1760 C1741 1.368 . S
C1760 C1754 1.368 . S
C1760 C1759 1.523 . S
C1761 C1745 1.429 . S
C1761 C1757 1.429 . S
C1761 C1762 1.523 . S
C1762 C1746 1.368 . S
C1762 C1758 1.368 . S
C1762 C1761 1.523 . S
H1763 C1738 0.950 . S
H1764 C1740 0.950 . S
H1765 C1741 0.949 . S
H1766 C1743 0.950 . S
H1767 C1745 0.950 . S
C1768 C1769 1.349 . S
C1768 C1770 1.327 . S
C1768 H1793 0.950 . S
C1769 C1768 1.349 . S
C1769 C1785 1.349 . S
C1770 C1768 1.327 . S
C1770 C1789 1.429 . S
C1770 H1794 0.950 . S
C1771 C1788 1.574 . S
C1771 C1790 1.368 . S
C1771 H1795 0.949 . S
H1772 C1776 0.949 . S
C1773 C1774 1.349 . S
C1773 C1775 1.327 . S
C1773 H1796 0.950 . S
C1774 C1773 1.349 . S
C1774 C1786 1.349 . S
C1775 C1773 1.327 . S
C1775 C1791 1.429 . S
C1775 H1797 0.950 . S
C1776 H1772 0.949 . S
C1776 C1784 1.574 . S
C1776 C1792 1.368 . S
H1777 C1785 0.950 . S
H1778 C1783 0.950 . S
H1779 C1784 0.949 . S
H1780 C1786 0.950 . S
H1781 C1787 0.950 . S
H1782 C1788 0.949 . S
C1783 H1778 0.950 . S
C1783 C1785 1.327 . S
C1783 C1789 1.429 . S
C1784 C1776 1.574 . S
C1784 H1779 0.949 . S
C1784 C1790 1.368 . S
C1785 C1769 1.349 . S
C1785 H1777 0.950 . S
C1785 C1783 1.327 . S
C1786 C1774 1.349 . S
C1786 H1780 0.950 . S
C1786 C1787 1.327 . S
C1787 H1781 0.950 . S
C1787 C1786 1.327 . S
C1787 C1791 1.429 . S
C1788 C1771 1.574 . S
C1788 H1782 0.949 . S
C1788 C1792 1.368 . S
C1789 C1770 1.429 . S
C1789 C1783 1.429 . S
C1789 C1790 1.523 . S
C1790 C1771 1.368 . S
C1790 C1784 1.368 . S
C1790 C1789 1.523 . S
C1791 C1775 1.429 . S
C1791 C1787 1.429 . S
C1791 C1792 1.523 . S
C1792 C1776 1.368 . S
C1792 C1788 1.368 . S
C1792 C1791 1.523 . S
H1793 C1768 0.950 . S
H1794 C1770 0.950 . S
H1795 C1771 0.949 . S
H1796 C1773 0.950 . S
H1797 C1775 0.950 . S
C1798 C1799 1.349 . S
C1798 C1800 1.327 . S
C1798 H1823 0.950 . S
C1799 C1798 1.349 . S
C1799 C1815 1.349 . S
C1800 C1798 1.327 . S
C1800 C1819 1.429 . S
C1800 H1824 0.950 . S
C1801 C1818 1.574 . S
C1801 C1820 1.368 . S
C1801 H1825 0.949 . S
H1802 C1806 0.949 . S
C1803 C1804 1.349 . S
C1803 C1805 1.327 . S
C1803 H1826 0.950 . S
C1804 C1803 1.349 . S
C1804 C1816 1.349 . S
C1805 C1803 1.327 . S
C1805 C1821 1.429 . S
C1805 H1827 0.950 . S
C1806 H1802 0.949 . S
C1806 C1814 1.574 1_565 S
C1806 C1822 1.368 . S
H1807 C1815 0.950 . S
H1808 C1813 0.950 . S
H1809 C1814 0.949 . S
H1810 C1816 0.950 . S
H1811 C1817 0.950 . S
H1812 C1818 0.965 . S
C1813 H1808 0.950 . S
C1813 C1815 1.327 . S
C1813 C1819 1.429 . S
C1814 C1806 1.574 1_545 S
C1814 H1809 0.949 . S
C1814 C1820 1.368 . S
C1815 C1799 1.349 . S
C1815 H1807 0.950 . S
C1815 C1813 1.327 . S
C1816 C1804 1.349 . S
C1816 H1810 0.950 . S
C1816 C1817 1.327 . S
C1817 H1811 0.950 . S
C1817 C1816 1.327 . S
C1817 C1821 1.429 . S
C1818 C1801 1.574 . S
C1818 H1812 0.965 . S
C1818 C1822 1.368 1_545 S
C1819 C1800 1.429 . S
C1819 C1813 1.429 . S
C1819 C1820 1.523 . S
C1820 C1801 1.368 . S
C1820 C1814 1.368 . S
C1820 C1819 1.523 . S
C1821 C1805 1.429 . S
C1821 C1817 1.429 . S
C1821 C1822 1.523 . S
C1822 C1806 1.368 . S
C1822 C1818 1.368 1_565 S
C1822 C1821 1.523 . S
H1823 C1798 0.950 . S
H1824 C1800 0.950 . S
H1825 C1801 0.949 . S
H1826 C1803 0.950 . S
H1827 C1805 0.950 . S
C1828 C1829 1.349 . S
C1828 C1830 1.327 . S
C1828 H1853 0.950 . S
C1829 C1828 1.349 . S
C1829 C1845 1.349 . S
C1830 C1828 1.327 . S
C1830 C1849 1.429 . S
C1830 H1854 0.950 . S
C1831 C1848 1.574 . S
C1831 C1850 1.368 . S
C1831 H1855 0.949 . S
H1832 C1836 0.949 . S
C1833 C1834 1.349 . S
C1833 C1835 1.327 . S
C1833 H1856 0.950 . S
C1834 C1833 1.349 . S
C1834 C1846 1.349 . S
C1835 C1833 1.327 . S
C1835 C1851 1.429 . S
C1835 H1857 0.950 . S
C1836 H1832 0.949 . S
C1836 C1844 1.574 . S
C1836 C1852 1.368 . S
H1837 C1845 0.950 . S
H1838 C1843 0.950 . S
H1839 C1844 0.949 . S
H1840 C1846 0.950 . S
H1841 C1847 0.950 . S
H1842 C1848 0.949 . S
C1843 H1838 0.950 . S
C1843 C1845 1.327 . S
C1843 C1849 1.429 . S
C1844 C1836 1.574 . S
C1844 H1839 0.949 . S
C1844 C1850 1.368 . S
C1845 C1829 1.349 . S
C1845 H1837 0.950 . S
C1845 C1843 1.327 . S
C1846 C1834 1.349 . S
C1846 H1840 0.950 . S
C1846 C1847 1.327 . S
C1847 H1841 0.950 . S
C1847 C1846 1.327 . S
C1847 C1851 1.429 . S
C1848 C1831 1.574 . S
C1848 H1842 0.949 . S
C1848 C1852 1.368 . S
C1849 C1830 1.429 . S
C1849 C1843 1.429 . S
C1849 C1850 1.523 . S
C1850 C1831 1.368 . S
C1850 C1844 1.368 . S
C1850 C1849 1.523 . S
C1851 C1835 1.429 . S
C1851 C1847 1.429 . S
C1851 C1852 1.523 . S
C1852 C1836 1.368 . S
C1852 C1848 1.368 . S
C1852 C1851 1.523 . S
H1853 C1828 0.950 . S
H1854 C1830 0.950 . S
H1855 C1831 0.949 . S
H1856 C1833 0.950 . S
H1857 C1835 0.950 . S
C1858 C1859 1.349 . S
C1858 C1860 1.327 . S
C1858 H1883 0.950 . S
C1859 C1858 1.349 . S
C1859 C1875 1.349 . S
C1860 C1858 1.327 . S
C1860 C1879 1.429 . S
C1860 H1884 0.950 . S
C1861 C1878 1.574 . S
C1861 C1880 1.368 1_554 S
C1861 H1885 0.949 . S
H1862 C1866 0.949 . S
C1863 C1864 1.349 . S
C1863 C1865 1.327 . S
C1863 H1886 0.950 . S
C1864 C1863 1.349 . S
C1864 C1876 1.349 . S
C1865 C1863 1.327 . S
C1865 C1881 1.429 . S
C1865 H1887 0.950 . S
C1866 H1862 0.949 . S
C1866 C1874 1.574 . S
C1866 C1882 1.368 1_556 S
H1867 C1875 0.950 . S
H1868 C1873 0.950 1_554 S
H1869 C1874 0.949 . S
H1870 C1876 0.950 . S
H1871 C1877 0.950 1_556 S
H1872 C1878 0.949 . S
C1873 H1868 0.950 1_556 S
C1873 C1875 1.327 . S
C1873 C1879 1.429 . S
C1874 C1866 1.574 . S
C1874 H1869 0.949 . S
C1874 C1880 1.368 . S
C1875 C1859 1.349 . S
C1875 H1867 0.950 . S
C1875 C1873 1.327 . S
C1876 C1864 1.349 . S
C1876 H1870 0.950 . S
C1876 C1877 1.327 . S
C1877 H1871 0.950 1_554 S
C1877 C1876 1.327 . S
C1877 C1881 1.429 . S
C1878 C1861 1.574 . S
C1878 H1872 0.949 . S
C1878 C1882 1.368 . S
C1879 C1860 1.429 . S
C1879 C1873 1.429 . S
C1879 C1880 1.523 . S
C1880 C1861 1.368 1_556 S
C1880 C1874 1.368 . S
C1880 C1879 1.523 . S
C1881 C1865 1.429 . S
C1881 C1877 1.429 . S
C1881 C1882 1.523 . S
C1882 C1866 1.368 1_554 S
C1882 C1878 1.368 . S
C1882 C1881 1.523 . S
H1883 C1858 0.950 . S
H1884 C1860 0.950 . S
H1885 C1861 0.949 . S
H1886 C1863 0.950 . S
H1887 C1865 0.950 . S
C1888 C1889 1.349 . S
C1888 C1890 1.327 . S
C1888 H1913 0.950 . S
C1889 C1888 1.349 . S
C1889 C1905 1.349 . S
C1890 C1888 1.327 . S
C1890 C1909 1.429 . S
C1890 H1914 0.950 . S
C1891 C1908 1.574 . S
C1891 C1910 1.368 . S
C1891 H1915 0.949 . S
H1892 C1896 0.949 . S
C1893 C1894 1.349 . S
C1893 C1895 1.327 . S
C1893 H1916 0.950 . S
C1894 C1893 1.349 . S
C1894 C1906 1.349 . S
C1895 C1893 1.327 . S
C1895 C1911 1.429 . S
C1895 H1917 0.950 . S
C1896 H1892 0.949 . S
C1896 C1904 1.574 . S
C1896 C1912 1.368 . S
H1897 C1905 0.950 . S
H1898 C1903 0.950 . S
H1899 C1904 0.949 . S
H1900 C1906 0.950 . S
H1901 C1907 0.950 . S
H1902 C1908 0.949 . S
C1903 H1898 0.950 . S
C1903 C1905 1.327 . S
C1903 C1909 1.429 . S
C1904 C1896 1.574 . S
C1904 H1899 0.949 . S
C1904 C1910 1.368 . S
C1905 C1889 1.349 . S
C1905 H1897 0.950 . S
C1905 C1903 1.327 . S
C1906 C1894 1.349 . S
C1906 H1900 0.950 . S
C1906 C1907 1.327 . S
C1907 H1901 0.950 . S
C1907 C1906 1.327 . S
C1907 C1911 1.429 . S
C1908 C1891 1.574 . S
C1908 H1902 0.949 . S
C1908 C1912 1.368 . S
C1909 C1890 1.429 . S
C1909 C1903 1.429 . S
C1909 C1910 1.523 . S
C1910 C1891 1.368 . S
C1910 C1904 1.368 . S
C1910 C1909 1.523 . S
C1911 C1895 1.429 . S
C1911 C1907 1.429 . S
C1911 C1912 1.523 . S
C1912 C1896 1.368 . S
C1912 C1908 1.368 . S
C1912 C1911 1.523 . S
H1913 C1888 0.950 . S
H1914 C1890 0.950 . S
H1915 C1891 0.949 . S
H1916 C1893 0.950 . S
H1917 C1895 0.950 . S
C1918 C1919 1.349 . S
C1918 C1920 1.327 . S
C1918 H1943 0.950 . S
C1919 C1918 1.349 . S
C1919 C1935 1.349 . S
C1920 C1918 1.327 . S
C1920 C1939 1.429 . S
C1920 H1944 0.950 . S
C1921 C1938 1.574 . S
C1921 C1940 1.368 . S
C1921 H1945 0.949 . S
H1922 C1926 0.949 . S
C1923 C1924 1.349 . S
C1923 C1925 1.327 . S
C1923 H1946 0.950 . S
C1924 C1923 1.349 . S
C1924 C1936 1.349 . S
C1925 C1923 1.327 . S
C1925 C1941 1.429 . S
C1925 H1947 0.950 . S
C1926 H1922 0.949 . S
C1926 C1934 1.574 . S
C1926 C1942 1.368 . S
H1927 C1935 0.950 . S
H1928 C1933 0.950 . S
H1929 C1934 0.949 . S
H1930 C1936 0.950 . S
H1931 C1937 0.950 . S
H1932 C1938 0.949 . S
C1933 H1928 0.950 . S
C1933 C1935 1.327 . S
C1933 C1939 1.429 . S
C1934 C1926 1.574 . S
C1934 H1929 0.949 . S
C1934 C1940 1.368 . S
C1935 C1919 1.349 . S
C1935 H1927 0.950 . S
C1935 C1933 1.327 . S
C1936 C1924 1.349 . S
C1936 H1930 0.950 . S
C1936 C1937 1.327 . S
C1937 H1931 0.950 . S
C1937 C1936 1.327 . S
C1937 C1941 1.429 . S
C1938 C1921 1.574 . S
C1938 H1932 0.949 . S
C1938 C1942 1.368 . S
C1939 C1920 1.429 . S
C1939 C1933 1.429 . S
C1939 C1940 1.523 . S
C1940 C1921 1.368 . S
C1940 C1934 1.368 . S
C1940 C1939 1.523 . S
C1941 C1925 1.429 . S
C1941 C1937 1.429 . S
C1941 C1942 1.523 . S
C1942 C1926 1.368 . S
C1942 C1938 1.368 . S
C1942 C1941 1.523 . S
H1943 C1918 0.950 . S
H1944 C1920 0.950 . S
H1945 C1921 0.949 . S
H1946 C1923 0.950 . S
H1947 C1925 0.950 . S
C1948 C1949 1.349 . S
C1948 C1950 1.327 . S
C1948 H1973 0.950 . S
C1949 C1948 1.349 . S
C1949 C1965 1.349 . S
C1950 C1948 1.327 . S
C1950 C1969 1.429 . S
C1950 H1974 0.950 . S
C1951 C1968 1.574 . S
C1951 C1970 1.368 . S
C1951 H1975 0.949 . S
H1952 C1956 0.949 . S
C1953 C1954 1.349 . S
C1953 C1955 1.327 . S
C1953 H1976 0.950 . S
C1954 C1953 1.349 . S
C1954 C1966 1.349 . S
C1955 C1953 1.327 . S
C1955 C1971 1.429 . S
C1955 H1977 0.950 . S
C1956 H1952 0.949 . S
C1956 C1964 1.574 . S
C1956 C1972 1.368 . S
H1957 C1965 0.950 . S
H1958 C1963 0.950 . S
H1959 C1964 0.949 . S
H1960 C1966 0.950 . S
H1961 C1967 0.950 . S
H1962 C1968 0.949 . S
C1963 H1958 0.950 . S
C1963 C1965 1.327 . S
C1963 C1969 1.429 . S
C1964 C1956 1.574 . S
C1964 H1959 0.949 . S
C1964 C1970 1.368 . S
C1965 C1949 1.349 . S
C1965 H1957 0.950 . S
C1965 C1963 1.327 . S
C1966 C1954 1.349 . S
C1966 H1960 0.950 . S
C1966 C1967 1.327 . S
C1967 H1961 0.950 . S
C1967 C1966 1.327 . S
C1967 C1971 1.429 . S
C1968 C1951 1.574 . S
C1968 H1962 0.949 . S
C1968 C1972 1.368 . S
C1969 C1950 1.429 . S
C1969 C1963 1.429 . S
C1969 C1970 1.523 . S
C1970 C1951 1.368 . S
C1970 C1964 1.368 . S
C1970 C1969 1.523 . S
C1971 C1955 1.429 . S
C1971 C1967 1.429 . S
C1971 C1972 1.523 . S
C1972 C1956 1.368 . S
C1972 C1968 1.368 . S
C1972 C1971 1.523 . S
H1973 C1948 0.950 . S
H1974 C1950 0.950 . S
H1975 C1951 0.949 . S
H1976 C1953 0.950 . S
H1977 C1955 0.950 . S
C1978 C1979 1.349 . S
C1978 C1980 1.327 . S
C1978 H2003 0.950 . S
C1979 C1978 1.349 . S
C1979 C1995 1.349 . S
C1980 C1978 1.327 . S
C1980 C1999 1.429 . S
C1980 H2004 0.950 . S
C1981 C1998 1.574 . S
C1981 C2000 1.368 . S
C1981 H2005 0.949 . S
H1982 C1986 0.949 . S
C1983 C1984 1.349 . S
C1983 C1985 1.327 . S
C1983 H2006 0.950 . S
C1984 C1983 1.349 . S
C1984 C1996 1.349 . S
C1985 C1983 1.327 . S
C1985 C2001 1.429 . S
C1985 H2007 0.950 . S
C1986 H1982 0.949 . S
C1986 C1994 1.574 . S
C1986 C2002 1.368 . S
H1987 C1995 0.950 . S
H1988 C1993 0.950 . S
H1989 C1994 0.949 . S
H1990 C1996 0.950 . S
H1991 C1997 0.950 . S
H1992 C1998 0.949 . S
C1993 H1988 0.950 . S
C1993 C1995 1.327 . S
C1993 C1999 1.429 . S
C1994 C1986 1.574 . S
C1994 H1989 0.949 . S
C1994 C2000 1.368 . S
C1995 C1979 1.349 . S
C1995 H1987 0.950 . S
C1995 C1993 1.327 . S
C1996 C1984 1.349 . S
C1996 H1990 0.950 . S
C1996 C1997 1.327 . S
C1997 H1991 0.950 . S
C1997 C1996 1.327 . S
C1997 C2001 1.429 . S
C1998 C1981 1.574 . S
C1998 H1992 0.949 . S
C1998 C2002 1.368 . S
C1999 C1980 1.429 . S
C1999 C1993 1.429 . S
C1999 C2000 1.523 . S
C2000 C1981 1.368 . S
C2000 C1994 1.368 . S
C2000 C1999 1.523 . S
C2001 C1985 1.429 . S
C2001 C1997 1.429 . S
C2001 C2002 1.523 . S
C2002 C1986 1.368 . S
C2002 C1998 1.368 . S
C2002 C2001 1.523 . S
H2003 C1978 0.950 . S
H2004 C1980 0.950 . S
H2005 C1981 0.949 . S
H2006 C1983 0.950 . S
H2007 C1985 0.950 . S
C2008 C2009 1.349 . S
C2008 C2010 1.327 . S
C2008 H2033 0.950 . S
C2009 C2008 1.349 . S
C2009 C2025 1.349 . S
C2010 C2008 1.327 . S
C2010 C2029 1.429 . S
C2010 H2034 0.950 . S
C2011 C2028 1.574 . S
C2011 C2030 1.368 . S
C2011 H2035 0.949 . S
H2012 C2016 0.949 . S
C2013 C2014 1.349 . S
C2013 C2015 1.327 . S
C2013 H2036 0.950 . S
C2014 C2013 1.349 . S
C2014 C2026 1.349 . S
C2015 C2013 1.327 . S
C2015 C2031 1.429 . S
C2015 H2037 0.950 . S
C2016 H2012 0.949 . S
C2016 C2024 1.574 . S
C2016 C2032 1.368 . S
H2017 C2025 0.950 . S
H2018 C2023 0.950 . S
H2019 C2024 0.949 . S
H2020 C2026 0.950 . S
H2021 C2027 0.950 . S
H2022 C2028 0.949 . S
C2023 H2018 0.950 . S
C2023 C2025 1.327 . S
C2023 C2029 1.429 . S
C2024 C2016 1.574 . S
C2024 H2019 0.949 . S
C2024 C2030 1.368 . S
C2025 C2009 1.349 . S
C2025 H2017 0.950 . S
C2025 C2023 1.327 . S
C2026 C2014 1.349 . S
C2026 H2020 0.950 . S
C2026 C2027 1.327 . S
C2027 H2021 0.950 . S
C2027 C2026 1.327 . S
C2027 C2031 1.429 . S
C2028 C2011 1.574 . S
C2028 H2022 0.949 . S
C2028 C2032 1.368 . S
C2029 C2010 1.429 . S
C2029 C2023 1.429 . S
C2029 C2030 1.523 . S
C2030 C2011 1.368 . S
C2030 C2024 1.368 . S
C2030 C2029 1.523 . S
C2031 C2015 1.429 . S
C2031 C2027 1.429 . S
C2031 C2032 1.523 . S
C2032 C2016 1.368 . S
C2032 C2028 1.368 . S
C2032 C2031 1.523 . S
H2033 C2008 0.950 . S
H2034 C2010 0.950 . S
H2035 C2011 0.949 . S
H2036 C2013 0.950 . S
H2037 C2015 0.950 . S
C2038 C2039 1.349 . S
C2038 C2040 1.327 . S
C2038 H2063 0.950 . S
C2039 C2038 1.349 . S
C2039 C2055 1.349 . S
C2040 C2038 1.327 . S
C2040 C2059 1.429 . S
C2040 H2064 0.950 . S
C2041 C2058 1.574 . S
C2041 C2060 1.368 . S
C2041 H2065 0.949 . S
H2042 C2046 0.949 . S
C2043 C2044 1.349 . S
C2043 C2045 1.327 . S
C2043 H2066 0.950 . S
C2044 C2043 1.349 . S
C2044 C2056 1.349 . S
C2045 C2043 1.327 . S
C2045 C2061 1.429 . S
C2045 H2067 0.950 . S
C2046 H2042 0.949 . S
C2046 C2054 1.574 . S
C2046 C2062 1.368 . S
H2047 C2055 0.950 . S
H2048 C2053 0.950 . S
H2049 C2054 0.949 . S
H2050 C2056 0.950 . S
H2051 C2057 0.950 . S
H2052 C2058 0.949 . S
C2053 H2048 0.950 . S
C2053 C2055 1.327 . S
C2053 C2059 1.429 . S
C2054 C2046 1.574 . S
C2054 H2049 0.949 . S
C2054 C2060 1.368 . S
C2055 C2039 1.349 . S
C2055 H2047 0.950 . S
C2055 C2053 1.327 . S
C2056 C2044 1.349 . S
C2056 H2050 0.950 . S
C2056 C2057 1.327 . S
C2057 H2051 0.950 . S
C2057 C2056 1.327 . S
C2057 C2061 1.429 . S
C2058 C2041 1.574 . S
C2058 H2052 0.949 . S
C2058 C2062 1.368 . S
C2059 C2040 1.429 . S
C2059 C2053 1.429 . S
C2059 C2060 1.523 . S
C2060 C2041 1.368 . S
C2060 C2054 1.368 . S
C2060 C2059 1.523 . S
C2061 C2045 1.429 . S
C2061 C2057 1.429 . S
C2061 C2062 1.523 . S
C2062 C2046 1.368 . S
C2062 C2058 1.368 . S
C2062 C2061 1.523 . S
H2063 C2038 0.950 . S
H2064 C2040 0.950 . S
H2065 C2041 0.949 . S
H2066 C2043 0.950 . S
H2067 C2045 0.950 . S
C2068 C2069 1.349 . S
C2068 C2070 1.327 . S
C2068 H2093 0.950 . S
C2069 C2068 1.349 . S
C2069 C2085 1.349 . S
C2070 C2068 1.327 . S
C2070 C2089 1.429 . S
C2070 H2094 0.950 . S
C2071 C2088 1.574 . S
C2071 C2090 1.368 . S
C2071 H2095 0.949 . S
H2072 C2076 0.949 . S
C2073 C2074 1.349 . S
C2073 C2075 1.327 . S
C2073 H2096 0.950 . S
C2074 C2073 1.349 . S
C2074 C2086 1.349 . S
C2075 C2073 1.327 . S
C2075 C2091 1.429 . S
C2075 H2097 0.950 . S
C2076 H2072 0.949 . S
C2076 C2084 1.574 . S
C2076 C2092 1.368 . S
H2077 C2085 0.950 . S
H2078 C2083 0.950 . S
H2079 C2084 0.949 . S
H2080 C2086 0.950 . S
H2081 C2087 0.950 . S
H2082 C2088 0.949 . S
C2083 H2078 0.950 . S
C2083 C2085 1.327 . S
C2083 C2089 1.429 . S
C2084 C2076 1.574 . S
C2084 H2079 0.949 . S
C2084 C2090 1.368 . S
C2085 C2069 1.349 . S
C2085 H2077 0.950 . S
C2085 C2083 1.327 . S
C2086 C2074 1.349 . S
C2086 H2080 0.950 . S
C2086 C2087 1.327 . S
C2087 H2081 0.950 . S
C2087 C2086 1.327 . S
C2087 C2091 1.429 . S
C2088 C2071 1.574 . S
C2088 H2082 0.949 . S
C2088 C2092 1.368 . S
C2089 C2070 1.429 . S
C2089 C2083 1.429 . S
C2089 C2090 1.523 . S
C2090 C2071 1.368 . S
C2090 C2084 1.368 . S
C2090 C2089 1.523 . S
C2091 C2075 1.429 . S
C2091 C2087 1.429 . S
C2091 C2092 1.523 . S
C2092 C2076 1.368 . S
C2092 C2088 1.368 . S
C2092 C2091 1.523 . S
H2093 C2068 0.950 . S
H2094 C2070 0.950 . S
H2095 C2071 0.949 . S
H2096 C2073 0.950 . S
H2097 C2075 0.950 . S
C2098 C2099 1.349 . S
C2098 C2100 1.327 . S
C2098 H2123 0.950 . S
C2099 C2098 1.349 . S
C2099 C2115 1.349 . S
C2100 C2098 1.327 . S
C2100 C2119 1.429 . S
C2100 H2124 0.950 . S
C2101 C2118 1.574 . S
C2101 C2120 1.368 . S
C2101 H2125 0.949 . S
H2102 C2106 0.949 . S
C2103 C2104 1.349 . S
C2103 C2105 1.327 . S
C2103 H2126 0.950 . S
C2104 C2103 1.349 . S
C2104 C2116 1.349 . S
C2105 C2103 1.327 . S
C2105 C2121 1.429 . S
C2105 H2127 0.950 . S
C2106 H2102 0.949 . S
C2106 C2114 1.574 . S
C2106 C2122 1.368 . S
H2107 C2115 0.950 . S
H2108 C2113 0.950 . S
H2109 C2114 0.949 . S
H2110 C2116 0.950 . S
H2111 C2117 0.950 . S
H2112 C2118 0.949 . S
C2113 H2108 0.950 . S
C2113 C2115 1.327 . S
C2113 C2119 1.429 . S
C2114 C2106 1.574 . S
C2114 H2109 0.949 . S
C2114 C2120 1.368 . S
C2115 C2099 1.349 . S
C2115 H2107 0.950 . S
C2115 C2113 1.327 . S
C2116 C2104 1.349 . S
C2116 H2110 0.950 . S
C2116 C2117 1.327 . S
C2117 H2111 0.950 . S
C2117 C2116 1.327 . S
C2117 C2121 1.429 . S
C2118 C2101 1.574 . S
C2118 H2112 0.949 . S
C2118 C2122 1.368 . S
C2119 C2100 1.429 . S
C2119 C2113 1.429 . S
C2119 C2120 1.523 . S
C2120 C2101 1.368 . S
C2120 C2114 1.368 . S
C2120 C2119 1.523 . S
C2121 C2105 1.429 . S
C2121 C2117 1.429 . S
C2121 C2122 1.523 . S
C2122 C2106 1.368 . S
C2122 C2118 1.368 . S
C2122 C2121 1.523 . S
H2123 C2098 0.950 . S
H2124 C2100 0.950 . S
H2125 C2101 0.949 . S
H2126 C2103 0.950 . S
H2127 C2105 0.950 . S
C2128 C2129 1.349 . S
C2128 C2130 1.327 . S
C2128 H2153 0.950 . S
C2129 C2128 1.349 . S
C2129 C2145 1.349 . S
C2130 C2128 1.327 . S
C2130 C2149 1.429 . S
C2130 H2154 0.950 . S
C2131 C2148 1.574 . S
C2131 C2150 1.368 . S
C2131 H2155 0.949 . S
H2132 C2136 0.949 . S
C2133 C2134 1.349 . S
C2133 C2135 1.327 . S
C2133 H2156 0.950 . S
C2134 C2133 1.349 . S
C2134 C2146 1.349 . S
C2135 C2133 1.327 . S
C2135 C2151 1.429 . S
C2135 H2157 0.950 . S
C2136 H2132 0.949 . S
C2136 C2144 1.574 . S
C2136 C2152 1.368 . S
H2137 C2145 0.950 . S
H2138 C2143 0.950 . S
H2139 C2144 0.949 . S
H2140 C2146 0.950 . S
H2141 C2147 0.950 . S
H2142 C2148 0.949 . S
C2143 H2138 0.950 . S
C2143 C2145 1.327 . S
C2143 C2149 1.429 . S
C2144 C2136 1.574 . S
C2144 H2139 0.949 . S
C2144 C2150 1.368 . S
C2145 C2129 1.349 . S
C2145 H2137 0.950 . S
C2145 C2143 1.327 . S
C2146 C2134 1.349 . S
C2146 H2140 0.950 . S
C2146 C2147 1.327 . S
C2147 H2141 0.950 . S
C2147 C2146 1.327 . S
C2147 C2151 1.429 . S
C2148 C2131 1.574 . S
C2148 H2142 0.949 . S
C2148 C2152 1.368 . S
C2149 C2130 1.429 . S
C2149 C2143 1.429 . S
C2149 C2150 1.523 . S
C2150 C2131 1.368 . S
C2150 C2144 1.368 . S
C2150 C2149 1.523 . S
C2151 C2135 1.429 . S
C2151 C2147 1.429 . S
C2151 C2152 1.523 . S
C2152 C2136 1.368 . S
C2152 C2148 1.368 . S
C2152 C2151 1.523 . S
H2153 C2128 0.950 . S
H2154 C2130 0.950 . S
H2155 C2131 0.949 . S
H2156 C2133 0.950 . S
H2157 C2135 0.950 . S
C2158 C2159 1.349 . S
C2158 C2160 1.327 . S
C2158 H2183 0.950 . S
C2159 C2158 1.349 . S
C2159 C2175 1.349 . S
C2160 C2158 1.327 . S
C2160 C2179 1.429 . S
C2160 H2184 0.950 . S
C2161 C2178 1.574 . S
C2161 C2180 1.368 . S
C2161 H2185 0.949 . S
H2162 C2166 0.949 . S
C2163 C2164 1.349 . S
C2163 C2165 1.327 . S
C2163 H2186 0.950 . S
C2164 C2163 1.349 . S
C2164 C2176 1.349 . S
C2165 C2163 1.327 . S
C2165 C2181 1.429 . S
C2165 H2187 0.950 . S
C2166 H2162 0.949 . S
C2166 C2174 1.574 . S
C2166 C2182 1.368 . S
H2167 C2175 0.950 . S
H2168 C2173 0.950 . S
H2169 C2174 0.949 . S
H2170 C2176 0.950 . S
H2171 C2177 0.950 . S
H2172 C2178 0.949 . S
C2173 H2168 0.950 . S
C2173 C2175 1.327 . S
C2173 C2179 1.429 . S
C2174 C2166 1.574 . S
C2174 H2169 0.949 . S
C2174 C2180 1.368 . S
C2175 C2159 1.349 . S
C2175 H2167 0.950 . S
C2175 C2173 1.327 . S
C2176 C2164 1.349 . S
C2176 H2170 0.950 . S
C2176 C2177 1.327 . S
C2177 H2171 0.950 . S
C2177 C2176 1.327 . S
C2177 C2181 1.429 . S
C2178 C2161 1.574 . S
C2178 H2172 0.949 . S
C2178 C2182 1.368 . S
C2179 C2160 1.429 . S
C2179 C2173 1.429 . S
C2179 C2180 1.523 . S
C2180 C2161 1.368 . S
C2180 C2174 1.368 . S
C2180 C2179 1.523 . S
C2181 C2165 1.429 . S
C2181 C2177 1.429 . S
C2181 C2182 1.523 . S
C2182 C2166 1.368 . S
C2182 C2178 1.368 . S
C2182 C2181 1.523 . S
H2183 C2158 0.950 . S
H2184 C2160 0.950 . S
H2185 C2161 0.949 . S
H2186 C2163 0.950 . S
H2187 C2165 0.950 . S
C2188 C2189 1.349 . S
C2188 C2190 1.327 . S
C2188 H2213 0.950 . S
C2189 C2188 1.349 . S
C2189 C2205 1.349 . S
C2190 C2188 1.327 . S
C2190 C2209 1.429 . S
C2190 H2214 0.950 . S
C2191 C2208 1.574 . S
C2191 C2210 1.368 . S
C2191 H2215 0.949 . S
H2192 C2196 0.949 . S
C2193 C2194 1.349 . S
C2193 C2195 1.327 . S
C2193 H2216 0.950 . S
C2194 C2193 1.349 . S
C2194 C2206 1.349 . S
C2195 C2193 1.327 . S
C2195 C2211 1.429 . S
C2195 H2217 0.950 . S
C2196 H2192 0.949 . S
C2196 C2204 1.574 . S
C2196 C2212 1.368 . S
H2197 C2205 0.950 . S
H2198 C2203 0.950 . S
H2199 C2204 0.949 . S
H2200 C2206 0.950 . S
H2201 C2207 0.950 . S
H2202 C2208 0.949 . S
C2203 H2198 0.950 . S
C2203 C2205 1.327 . S
C2203 C2209 1.429 . S
C2204 C2196 1.574 . S
C2204 H2199 0.949 . S
C2204 C2210 1.368 . S
C2205 C2189 1.349 . S
C2205 H2197 0.950 . S
C2205 C2203 1.327 . S
C2206 C2194 1.349 . S
C2206 H2200 0.950 . S
C2206 C2207 1.327 . S
C2207 H2201 0.950 . S
C2207 C2206 1.327 . S
C2207 C2211 1.429 . S
C2208 C2191 1.574 . S
C2208 H2202 0.949 . S
C2208 C2212 1.368 . S
C2209 C2190 1.429 . S
C2209 C2203 1.429 . S
C2209 C2210 1.523 . S
C2210 C2191 1.368 . S
C2210 C2204 1.368 . S
C2210 C2209 1.523 . S
C2211 C2195 1.429 . S
C2211 C2207 1.429 . S
C2211 C2212 1.523 . S
C2212 C2196 1.368 . S
C2212 C2208 1.368 . S
C2212 C2211 1.523 . S
H2213 C2188 0.950 . S
H2214 C2190 0.950 . S
H2215 C2191 0.949 . S
H2216 C2193 0.950 . S
H2217 C2195 0.950 . S
C2218 C2219 1.349 . S
C2218 C2220 1.327 . S
C2218 H2243 0.950 . S
C2219 C2218 1.349 . S
C2219 C2235 1.349 . S
C2220 C2218 1.327 . S
C2220 C2239 1.429 . S
C2220 H2244 0.950 . S
C2221 C2238 1.574 . S
C2221 C2240 1.368 . S
C2221 H2245 0.949 . S
H2222 C2226 0.949 . S
C2223 C2224 1.349 . S
C2223 C2225 1.327 . S
C2223 H2246 0.950 . S
C2224 C2223 1.349 . S
C2224 C2236 1.349 . S
C2225 C2223 1.327 . S
C2225 C2241 1.429 . S
C2225 H2247 0.950 . S
C2226 H2222 0.949 . S
C2226 C2234 1.574 . S
C2226 C2242 1.368 . S
H2227 C2235 0.950 . S
H2228 C2233 0.950 . S
H2229 C2234 0.949 . S
H2230 C2236 0.950 . S
H2231 C2237 0.950 . S
H2232 C2238 0.949 . S
C2233 H2228 0.950 . S
C2233 C2235 1.327 . S
C2233 C2239 1.429 . S
C2234 C2226 1.574 . S
C2234 H2229 0.949 . S
C2234 C2240 1.368 . S
C2235 C2219 1.349 . S
C2235 H2227 0.950 . S
C2235 C2233 1.327 . S
C2236 C2224 1.349 . S
C2236 H2230 0.950 . S
C2236 C2237 1.327 . S
C2237 H2231 0.950 . S
C2237 C2236 1.327 . S
C2237 C2241 1.429 . S
C2238 C2221 1.574 . S
C2238 H2232 0.949 . S
C2238 C2242 1.368 . S
C2239 C2220 1.429 . S
C2239 C2233 1.429 . S
C2239 C2240 1.523 . S
C2240 C2221 1.368 . S
C2240 C2234 1.368 . S
C2240 C2239 1.523 . S
C2241 C2225 1.429 . S
C2241 C2237 1.429 . S
C2241 C2242 1.523 . S
C2242 C2226 1.368 . S
C2242 C2238 1.368 . S
C2242 C2241 1.523 . S
H2243 C2218 0.950 . S
H2244 C2220 0.950 . S
H2245 C2221 0.949 . S
H2246 C2223 0.950 . S
H2247 C2225 0.950 . S
C2248 C2249 1.349 . S
C2248 C2250 1.327 . S
C2248 H2273 0.950 . S
C2249 C2248 1.349 . S
C2249 C2265 1.349 . S
C2250 C2248 1.327 . S
C2250 C2269 1.429 . S
C2250 H2274 0.950 . S
C2251 C2268 1.574 . S
C2251 C2270 1.368 . S
C2251 H2275 0.949 . S
H2252 C2256 0.949 . S
C2253 C2254 1.349 . S
C2253 C2255 1.327 . S
C2253 H2276 0.950 . S
C2254 C2253 1.349 . S
C2254 C2266 1.349 . S
C2255 C2253 1.327 . S
C2255 C2271 1.429 . S
C2255 H2277 0.950 . S
C2256 H2252 0.949 . S
C2256 C2264 1.574 . S
C2256 C2272 1.368 . S
H2257 C2265 0.950 . S
H2258 C2263 0.950 . S
H2259 C2264 0.949 . S
H2260 C2266 0.950 . S
H2261 C2267 0.950 . S
H2262 C2268 0.949 . S
C2263 H2258 0.950 . S
C2263 C2265 1.327 . S
C2263 C2269 1.429 . S
C2264 C2256 1.574 . S
C2264 H2259 0.949 . S
C2264 C2270 1.368 . S
C2265 C2249 1.349 . S
C2265 H2257 0.950 . S
C2265 C2263 1.327 . S
C2266 C2254 1.349 . S
C2266 H2260 0.950 . S
C2266 C2267 1.327 . S
C2267 H2261 0.950 . S
C2267 C2266 1.327 . S
C2267 C2271 1.429 . S
C2268 C2251 1.574 . S
C2268 H2262 0.949 . S
C2268 C2272 1.368 . S
C2269 C2250 1.429 . S
C2269 C2263 1.429 . S
C2269 C2270 1.523 . S
C2270 C2251 1.368 . S
C2270 C2264 1.368 . S
C2270 C2269 1.523 . S
C2271 C2255 1.429 . S
C2271 C2267 1.429 . S
C2271 C2272 1.523 . S
C2272 C2256 1.368 . S
C2272 C2268 1.368 . S
C2272 C2271 1.523 . S
H2273 C2248 0.950 . S
H2274 C2250 0.950 . S
H2275 C2251 0.949 . S
H2276 C2253 0.950 . S
H2277 C2255 0.950 . S
C2278 C2279 1.349 . S
C2278 C2280 1.327 . S
C2278 H2303 0.950 . S
C2279 C2278 1.349 . S
C2279 C2295 1.349 . S
C2280 C2278 1.327 . S
C2280 C2299 1.429 . S
C2280 H2304 0.950 . S
C2281 C2298 1.574 . S
C2281 C2300 1.368 . S
C2281 H2305 0.949 . S
H2282 C2286 0.949 . S
C2283 C2284 1.349 . S
C2283 C2285 1.327 . S
C2283 H2306 0.950 . S
C2284 C2283 1.349 . S
C2284 C2296 1.349 . S
C2285 C2283 1.327 . S
C2285 C2301 1.429 . S
C2285 H2307 0.950 . S
C2286 H2282 0.949 . S
C2286 C2294 1.574 . S
C2286 C2302 1.368 . S
H2287 C2295 0.950 . S
H2288 C2293 0.950 . S
H2289 C2294 0.949 . S
H2290 C2296 0.950 . S
H2291 C2297 0.950 . S
H2292 C2298 0.949 . S
C2293 H2288 0.950 . S
C2293 C2295 1.327 . S
C2293 C2299 1.429 . S
C2294 C2286 1.574 . S
C2294 H2289 0.949 . S
C2294 C2300 1.368 . S
C2295 C2279 1.349 . S
C2295 H2287 0.950 . S
C2295 C2293 1.327 . S
C2296 C2284 1.349 . S
C2296 H2290 0.950 . S
C2296 C2297 1.327 . S
C2297 H2291 0.950 . S
C2297 C2296 1.327 . S
C2297 C2301 1.429 . S
C2298 C2281 1.574 . S
C2298 H2292 0.949 . S
C2298 C2302 1.368 . S
C2299 C2280 1.429 . S
C2299 C2293 1.429 . S
C2299 C2300 1.523 . S
C2300 C2281 1.368 . S
C2300 C2294 1.368 . S
C2300 C2299 1.523 . S
C2301 C2285 1.429 . S
C2301 C2297 1.429 . S
C2301 C2302 1.523 . S
C2302 C2286 1.368 . S
C2302 C2298 1.368 . S
C2302 C2301 1.523 . S
H2303 C2278 0.950 . S
H2304 C2280 0.950 . S
H2305 C2281 0.949 . S
H2306 C2283 0.950 . S
H2307 C2285 0.950 . S
C2308 C2309 1.349 . S
C2308 C2310 1.327 . S
C2308 H2333 0.950 . S
C2309 C2308 1.349 . S
C2309 C2325 1.349 . S
C2310 C2308 1.327 . S
C2310 C2329 1.429 . S
C2310 H2334 0.950 . S
C2311 C2328 1.574 . S
C2311 C2330 1.368 . S
C2311 H2335 0.949 . S
H2312 C2316 0.949 . S
C2313 C2314 1.349 . S
C2313 C2315 1.327 . S
C2313 H2336 0.950 . S
C2314 C2313 1.349 . S
C2314 C2326 1.349 . S
C2315 C2313 1.327 . S
C2315 C2331 1.429 . S
C2315 H2337 0.950 . S
C2316 H2312 0.949 . S
C2316 C2324 1.574 . S
C2316 C2332 1.368 . S
H2317 C2325 0.950 . S
H2318 C2323 0.950 . S
H2319 C2324 0.949 . S
H2320 C2326 0.950 . S
H2321 C2327 0.950 . S
H2322 C2328 0.949 . S
C2323 H2318 0.950 . S
C2323 C2325 1.327 . S
C2323 C2329 1.429 . S
C2324 C2316 1.574 . S
C2324 H2319 0.949 . S
C2324 C2330 1.368 . S
C2325 C2309 1.349 . S
C2325 H2317 0.950 . S
C2325 C2323 1.327 . S
C2326 C2314 1.349 . S
C2326 H2320 0.950 . S
C2326 C2327 1.327 . S
C2327 H2321 0.950 . S
C2327 C2326 1.327 . S
C2327 C2331 1.429 . S
C2328 C2311 1.574 . S
C2328 H2322 0.949 . S
C2328 C2332 1.368 . S
C2329 C2310 1.429 . S
C2329 C2323 1.429 . S
C2329 C2330 1.523 . S
C2330 C2311 1.368 . S
C2330 C2324 1.368 . S
C2330 C2329 1.523 . S
C2331 C2315 1.429 . S
C2331 C2327 1.429 . S
C2331 C2332 1.523 . S
C2332 C2316 1.368 . S
C2332 C2328 1.368 . S
C2332 C2331 1.523 . S
H2333 C2308 0.950 . S
H2334 C2310 0.950 . S
H2335 C2311 0.949 . S
H2336 C2313 0.950 . S
H2337 C2315 0.950 . S
C2338 C2339 1.349 . S
C2338 C2340 1.327 . S
C2338 H2363 0.950 . S
C2339 C2338 1.349 . S
C2339 C2355 1.349 . S
C2340 C2338 1.327 . S
C2340 C2359 1.429 . S
C2340 H2364 0.950 . S
C2341 C2358 1.574 . S
C2341 C2360 1.368 . S
C2341 H2365 0.949 . S
H2342 C2346 0.949 . S
C2343 C2344 1.349 . S
C2343 C2345 1.327 . S
C2343 H2366 0.950 . S
C2344 C2343 1.349 . S
C2344 C2356 1.349 . S
C2345 C2343 1.327 . S
C2345 C2361 1.429 . S
C2345 H2367 0.950 . S
C2346 H2342 0.949 . S
C2346 C2354 1.574 . S
C2346 C2362 1.368 . S
H2347 C2355 0.950 . S
H2348 C2353 0.950 . S
H2349 C2354 0.949 . S
H2350 C2356 0.950 . S
H2351 C2357 0.950 . S
H2352 C2358 0.949 . S
C2353 H2348 0.950 . S
C2353 C2355 1.327 . S
C2353 C2359 1.429 . S
C2354 C2346 1.574 . S
C2354 H2349 0.949 . S
C2354 C2360 1.368 . S
C2355 C2339 1.349 . S
C2355 H2347 0.950 . S
C2355 C2353 1.327 . S
C2356 C2344 1.349 . S
C2356 H2350 0.950 . S
C2356 C2357 1.327 . S
C2357 H2351 0.950 . S
C2357 C2356 1.327 . S
C2357 C2361 1.429 . S
C2358 C2341 1.574 . S
C2358 H2352 0.949 . S
C2358 C2362 1.368 . S
C2359 C2340 1.429 . S
C2359 C2353 1.429 . S
C2359 C2360 1.523 . S
C2360 C2341 1.368 . S
C2360 C2354 1.368 . S
C2360 C2359 1.523 . S
C2361 C2345 1.429 . S
C2361 C2357 1.429 . S
C2361 C2362 1.523 . S
C2362 C2346 1.368 . S
C2362 C2358 1.368 . S
C2362 C2361 1.523 . S
H2363 C2338 0.950 . S
H2364 C2340 0.950 . S
H2365 C2341 0.949 . S
H2366 C2343 0.950 . S
H2367 C2345 0.950 . S
C449 C149 1.210 . S
C454 C9 1.210 . S
C479 C23 1.210 . S
C484 C163 1.210 . S
C509 C37 1.210 . S
C514 C121 1.210 . S
C539 C135 1.210 . S
C544 C51 1.210 . S
C569 C199 1.112 . S
C574 C59 1.112 . S
C599 C73 1.112 . S
C604 C213 1.112 . S
C629 C171 1.112 . S
C634 C87 1.112 . S
C659 C185 1.112 . S
C664 C101 1.112 . S
C689 C373 1.210 . S
C694 C233 1.210 . S
C719 C387 1.210 . S
C724 C247 1.210 . S
C749 C345 1.210 . S
C754 C261 1.210 . S
C779 C275 1.210 . S
C784 C359 1.210 . S
C809 C423 1.112 . S
C814 C283 1.112 . S
C839 C437 1.112 . S
C844 C297 1.112 . S
C869 C311 1.112 . S
C874 C395 1.112 . S
C899 C325 1.112 . S
C904 C409 1.112 . S
C929 C269 1.352 . S
C934 C3 1.352 . S
C959 C17 1.352 . S
C964 C255 1.352 . S
C989 C241 1.352 . S
C994 C31 1.352 . S
C1019 C227 1.352 . S
C1024 C45 1.352 . S
C1049 C65 1.140 . S
C1054 C331 1.140 . S
C1079 C79 1.140 . S
C1084 C317 1.140 . S
C1109 C303 1.140 . S
C1114 C93 1.140 . S
C1139 C107 1.140 . S
C1144 C289 1.140 . S
C1169 C381 1.352 . S
C1174 C115 1.352 . S
C1199 C367 1.352 . S
C1204 C129 1.352 . S
C1229 C353 1.352 . S
C1234 C143 1.352 . S
C1259 C339 1.352 . S
C1264 C157 1.352 . S
C1289 C177 1.140 . S
C1294 C443 1.140 . S
C1319 C429 1.140 . S
C1324 C191 1.140 . S
C1349 C205 1.140 . S
C1354 C415 1.140 . S
C1379 C219 1.140 . S
C1384 C401 1.140 . S
C1409 C175 1.281 . S
C1414 C8 1.267 . S
C1439 C22 1.267 . S
C1444 C301 1.281 . S
C1469 C91 1.281 . S
C1474 C36 1.267 . S
C1499 C441 1.281 . S
C1504 C50 1.267 . S
C1529 C63 1.281 . S
C1534 C120 1.267 . S
C1559 C246 1.267 . S
C1564 C77 1.281 . S
C1589 C386 1.267 . S
C1594 C105 1.281 . S
C1619 C413 1.281 . S
C1624 C134 1.267 . S
C1649 C148 1.267 . S
C1654 C203 1.281 . S
C1679 C329 1.281 . S
C1684 C162 1.267 . S
C1709 C358 1.267 . S
C1714 C189 1.281 . S
C1739 C217 1.281 . S
C1744 C274 1.267 . S
C1769 C232 1.267 . S
C1774 C399 1.281 . S
C1799 C315 1.281 . S
C1804 C260 1.267 . S
C1829 C344 1.267 . S
C1834 C287 1.281 . S
C1859 C372 1.267 . S
C1864 C427 1.281 . S
C1889 C7 0.984 . S
C1894 C49 0.984 . S
C1919 C35 0.984 . S
C1924 C21 0.984 . S
C1949 C64 0.729 . S
C1954 C106 0.729 . S
C1979 C78 0.729 . S
C1984 C92 0.729 . S
C2009 C119 0.984 . S
C2014 C161 0.984 . S
C2039 C133 0.984 . S
C2044 C147 0.984 . S
C2069 C176 0.729 . S
C2074 C218 0.729 . S
C2099 C204 0.729 . S
C2104 C190 0.729 . S
C2129 C273 0.984 . S
C2134 C231 0.984 . S
C2159 C259 0.984 . S
C2164 C245 0.984 . S
C2189 C330 0.729 . S
C2194 C288 0.729 . S
C2219 C316 0.729 . S
C2224 C302 0.729 . S
C2249 C385 0.984 . S
C2254 C343 0.984 . S
C2279 C371 0.984 . S
C2284 C357 0.984 . S
C2309 C400 0.729 . S
C2314 C442 0.729 . S
C2339 C428 0.729 . S
C2344 C414 0.729 . S
