# Generated by pormake.
# Topology acs-a, (4)-cn, num edge types: 1
# Building blocks:
#     Node 0, Type 0, BuildingBlock: QUQFOY_clean_sbu_1, # of connection points: 4
#     Node 1, Type 0, BuildingBlock: QUQFOY_clean_sbu_1, # of connection points: 4
#     Node 2, Type 0, BuildingBlock: QUQFOY_clean_sbu_1, # of connection points: 4
#     Node 3, Type 0, BuildingBlock: QUQFOY_clean_sbu_1, # of connection points: 4
#     Node 4, Type 0, BuildingBlock: QUQFOY_clean_sbu_1, # of connection points: 4
#     Node 5, Type 0, BuildingBlock: QUQFOY_clean_sbu_1, # of connection points: 4
#     Node 6, Type 0, BuildingBlock: QUQFOY_clean_sbu_1, # of connection points: 4
#     Node 7, Type 0, BuildingBlock: QUQFOY_clean_sbu_1, # of connection points: 4
#     Node 8, Type 0, BuildingBlock: QUQFOY_clean_sbu_1, # of connection points: 4
#     Node 9, Type 0, BuildingBlock: QUQFOY_clean_sbu_1, # of connection points: 4
#     Node 10, Type 0, BuildingBlock: QUQFOY_clean_sbu_1, # of connection points: 4
#     Node 11, Type 0, BuildingBlock: QUQFOY_clean_sbu_1, # of connection points: 4
#     Edge 12, Type (0, 0), BuildingBlock: XIVTED_clean_linker_0, # of connection points: 2
#     Edge 13, Type (0, 0), BuildingBlock: XIVTED_clean_linker_0, # of connection points: 2
#     Edge 14, Type (0, 0), BuildingBlock: XIVTED_clean_linker_0, # of connection points: 2
#     Edge 15, Type (0, 0), BuildingBlock: XIVTED_clean_linker_0, # of connection points: 2
#     Edge 16, Type (0, 0), BuildingBlock: XIVTED_clean_linker_0, # of connection points: 2
#     Edge 17, Type (0, 0), BuildingBlock: XIVTED_clean_linker_0, # of connection points: 2
#     Edge 18, Type (0, 0), BuildingBlock: XIVTED_clean_linker_0, # of connection points: 2
#     Edge 19, Type (0, 0), BuildingBlock: XIVTED_clean_linker_0, # of connection points: 2
#     Edge 20, Type (0, 0), BuildingBlock: XIVTED_clean_linker_0, # of connection points: 2
#     Edge 21, Type (0, 0), BuildingBlock: XIVTED_clean_linker_0, # of connection points: 2
#     Edge 22, Type (0, 0), BuildingBlock: XIVTED_clean_linker_0, # of connection points: 2
#     Edge 23, Type (0, 0), BuildingBlock: XIVTED_clean_linker_0, # of connection points: 2
#     Edge 24, Type (0, 0), BuildingBlock: XIVTED_clean_linker_0, # of connection points: 2
#     Edge 25, Type (0, 0), BuildingBlock: XIVTED_clean_linker_0, # of connection points: 2
#     Edge 26, Type (0, 0), BuildingBlock: XIVTED_clean_linker_0, # of connection points: 2
#     Edge 27, Type (0, 0), BuildingBlock: XIVTED_clean_linker_0, # of connection points: 2
#     Edge 28, Type (0, 0), BuildingBlock: XIVTED_clean_linker_0, # of connection points: 2
#     Edge 29, Type (0, 0), BuildingBlock: XIVTED_clean_linker_0, # of connection points: 2
#     Edge 30, Type (0, 0), BuildingBlock: XIVTED_clean_linker_0, # of connection points: 2
#     Edge 31, Type (0, 0), BuildingBlock: XIVTED_clean_linker_0, # of connection points: 2
#     Edge 32, Type (0, 0), BuildingBlock: XIVTED_clean_linker_0, # of connection points: 2
#     Edge 33, Type (0, 0), BuildingBlock: XIVTED_clean_linker_0, # of connection points: 2
#     Edge 34, Type (0, 0), BuildingBlock: XIVTED_clean_linker_0, # of connection points: 2
#     Edge 35, Type (0, 0), BuildingBlock: XIVTED_clean_linker_0, # of connection points: 2
# Relax obj value: 0.480
# Max RMSD: 0.267
# Mean RMSD: 0.242
data_MOF--net-acs-a--node1-QUQFOY_clean_sbu_1--edge1-XIVTED_clean_linker_0
_symmetry_space_group_name_H-M    P1
_symmetry_Int_Tables_number       1
_symmetry_cell_setting            triclinic
loop_
_symmetry_equiv_pos_as_xyz
'x, y, z'
_cell_length_a     46.899375
_cell_length_b     46.892623
_cell_length_c     51.881688
_cell_angle_alpha  90.459357
_cell_angle_beta   89.887057
_cell_angle_gamma 113.94637
loop_
_atom_site_label
_atom_site_type_symbol
_atom_site_fract_x
_atom_site_fract_y
_atom_site_fract_z
_atom_type_partial_charge
O0 O 0.55063 0.14953 0.09123 0.0
Cd1 Cd 0.56996 0.11745 0.08799 0.0
Cd2 Cd 0.56567 0.11717 0.14 0.0
O3 O 0.54122 0.14431 0.13291 0.0
O4 O 0.56333 0.10427 0.0513 0.0
O5 O 0.54178 0.07219 0.08369 0.0
C6 C 0.54504 0.07691 0.05913 0.0
C7 C 0.54926 0.08206 0.17409 0.0
C8 C 0.5395 0.15643 0.11148 0.0
C9 C 0.63013 0.14224 0.11646 0.0
O10 O 0.61362 0.13882 0.1366 0.0
O11 O 0.61718 0.1334 0.09463 0.0
O12 O 0.5597 0.1117 0.17774 0.0
O13 O 0.54719 0.07172 0.15075 0.0
O14 O 0.36425 0.54202 0.58634 0.0
Cd15 Cd 0.40913 0.55936 0.57246 0.0
Cd16 Cd 0.42583 0.57751 0.62054 0.0
O17 O 0.3784 0.56565 0.62396 0.0
O18 O 0.40891 0.53832 0.53912 0.0
O19 O 0.43595 0.53536 0.57326 0.0
C20 C 0.42817 0.52836 0.54938 0.0
C21 C 0.44808 0.56332 0.65572 0.0
C22 C 0.3571 0.54996 0.60806 0.0
C23 C 0.44672 0.62722 0.58075 0.0
O24 O 0.45126 0.61969 0.60335 0.0
O25 O 0.42906 0.6065 0.56527 0.0
O26 O 0.44107 0.58712 0.65656 0.0
O27 O 0.44308 0.54744 0.63452 0.0
O28 O 0.84128 0.41682 0.10736 0.0
Cd29 Cd 0.86141 0.38889 0.12278 0.0
Cd30 Cd 0.85987 0.37283 0.07385 0.0
O31 O 0.83002 0.39439 0.06916 0.0
O32 O 0.86579 0.40354 0.15914 0.0
O33 O 0.90608 0.40572 0.13578 0.0
C34 C 0.89528 0.41094 0.15735 0.0
C35 C 0.90767 0.39789 0.05472 0.0
C36 C 0.82795 0.41363 0.08559 0.0
C37 C 0.82983 0.32014 0.10837 0.0
O38 O 0.84097 0.32746 0.08587 0.0
O39 O 0.83419 0.3413 0.12531 0.0
O40 O 0.88421 0.37854 0.04173 0.0
O41 O 0.9043 0.40106 0.0792 0.0
O42 O 0.41049 0.82864 0.55811 0.0
Cd43 Cd 0.39485 0.86352 0.55933 0.0
Cd44 Cd 0.40676 0.86582 0.60923 0.0
O45 O 0.43126 0.84008 0.59683 0.0
O46 O 0.40567 0.88566 0.52617 0.0
O47 O 0.42726 0.90646 0.56374 0.0
C48 C 0.42606 0.90864 0.53896 0.0
C49 C 0.42752 0.90032 0.64374 0.0
C50 C 0.42742 0.82502 0.57572 0.0
C51 C 0.33932 0.84335 0.59161 0.0
O52 O 0.35834 0.84495 0.6096 0.0
O53 O 0.34932 0.85218 0.56905 0.0
O54 O 0.41759 0.87062 0.64645 0.0
O55 O 0.42656 0.91101 0.62108 0.0
O56 O 0.62231 0.442 0.06851 0.0
Cd57 Cd 0.57482 0.42631 0.07148 0.0
Cd58 Cd 0.58625 0.43432 0.12199 0.0
O59 O 0.63192 0.45496 0.10944 0.0
O60 O 0.56066 0.43208 0.03683 0.0
O61 O 0.5552 0.457 0.07176 0.0
C62 C 0.55166 0.45214 0.04717 0.0
C63 C 0.57158 0.4564 0.15728 0.0
C64 C 0.64162 0.45378 0.08674 0.0
C65 C 0.55111 0.36851 0.10238 0.0
O66 O 0.56519 0.38608 0.12119 0.0
O67 O 0.55054 0.38016 0.08048 0.0
O68 O 0.59163 0.4443 0.15936 0.0
O69 O 0.56009 0.45692 0.13479 0.0
O70 O 0.15571 0.59092 0.64528 0.0
Cd71 Cd 0.12454 0.61168 0.6493 0.0
Cd72 Cd 0.11968 0.60531 0.59774 0.0
O73 O 0.15005 0.58431 0.60323 0.0
O74 O 0.11711 0.61206 0.68684 0.0
O75 O 0.0799 0.58477 0.65918 0.0
C76 C 0.08857 0.59332 0.68261 0.0
C77 C 0.07831 0.579 0.57011 0.0
C78 C 0.16239 0.58115 0.62417 0.0
C79 C 0.14513 0.67053 0.61831 0.0
O80 O 0.13786 0.65323 0.59834 0.0
O81 O 0.14084 0.65843 0.64056 0.0
O82 O 0.10611 0.59439 0.56154 0.0
O83 O 0.07375 0.57904 0.59468 0.0
O84 O 0.83964 0.42022 0.41346 0.0
Cd85 Cd 0.87427 0.40618 0.42322 0.0
Cd86 Cd 0.87828 0.4001 0.37046 0.0
O87 O 0.84349 0.41666 0.37132 0.0
O88 O 0.8856 0.42112 0.45909 0.0
O89 O 0.9183 0.43781 0.42618 0.0
C90 C 0.91279 0.43897 0.45051 0.0
C91 C 0.9107 0.41537 0.33441 0.0
C92 C 0.83087 0.42319 0.3909 0.0
C93 C 0.86182 0.34249 0.40396 0.0
O94 O 0.86723 0.35468 0.38173 0.0
O95 O 0.86355 0.35918 0.42375 0.0
O96 O 0.88267 0.39446 0.33301 0.0
O97 O 0.92095 0.42825 0.35649 0.0
O98 O 0.33897 0.85427 0.90444 0.0
Cd99 Cd 0.38702 0.87453 0.90339 0.0
Cd100 Cd 0.37705 0.87225 0.85154 0.0
O101 O 0.33105 0.85647 0.86282 0.0
O102 O 0.3992 0.88552 0.93994 0.0
O103 O 0.41226 0.92047 0.9088 0.0
C104 C 0.41356 0.91408 0.93284 0.0
C105 C 0.39415 0.90714 0.8174 0.0
C106 C 0.32041 0.84912 0.88547 0.0
C107 C 0.40949 0.8337 0.87206 0.0
O108 O 0.39688 0.84017 0.8526 0.0
O109 O 0.4091 0.84601 0.89387 0.0
O110 O 0.37377 0.87903 0.81419 0.0
O111 O 0.40464 0.91618 0.84036 0.0
O112 O 0.60734 0.41957 0.36513 0.0
Cd113 Cd 0.55923 0.40016 0.3637 0.0
Cd114 Cd 0.56572 0.40691 0.41434 0.0
O115 O 0.61251 0.43066 0.40664 0.0
O116 O 0.55032 0.39865 0.32624 0.0
O117 O 0.53739 0.42791 0.35348 0.0
C118 C 0.53834 0.41857 0.33017 0.0
C119 C 0.53941 0.42934 0.43963 0.0
C120 C 0.62464 0.43119 0.38463 0.0
C121 C 0.53951 0.34157 0.39424 0.0
O122 O 0.54989 0.35913 0.41385 0.0
O123 O 0.53871 0.35335 0.37244 0.0
O124 O 0.55831 0.4188 0.4497 0.0
O125 O 0.53577 0.42748 0.41488 0.0
O126 O 0.16025 0.58035 0.93965 0.0
Cd127 Cd 0.12565 0.59634 0.94053 0.0
Cd128 Cd 0.12034 0.58393 0.89059 0.0
O129 O 0.14487 0.55798 0.90181 0.0
O130 O 0.10438 0.58502 0.97415 0.0
O131 O 0.08262 0.56385 0.93673 0.0
C132 C 0.08116 0.5646 0.96162 0.0
C133 C 0.08609 0.56369 0.85596 0.0
C134 C 0.16162 0.56223 0.92188 0.0
C135 C 0.14577 0.65175 0.90858 0.0
O136 O 0.14277 0.63237 0.89038 0.0
O137 O 0.13739 0.64206 0.93129 0.0
O138 O 0.11577 0.57339 0.85331 0.0
O139 O 0.0752 0.56493 0.87859 0.0
O140 O 0.67385 0.14173 0.4243 0.0
Cd141 Cd 0.6262 0.12516 0.42486 0.0
Cd142 Cd 0.62937 0.12452 0.37366 0.0
O143 O 0.67663 0.14172 0.38195 0.0
O144 O 0.6116 0.10659 0.45896 0.0
O145 O 0.59845 0.08 0.4221 0.0
C146 C 0.59566 0.08086 0.44686 0.0
C147 C 0.61 0.08744 0.34079 0.0
C148 C 0.69 0.14735 0.40384 0.0
C149 C 0.59962 0.16438 0.39772 0.0
O150 O 0.60693 0.15446 0.37695 0.0
O151 O 0.60615 0.1561 0.41935 0.0
O152 O 0.62878 0.1158 0.33615 0.0
O153 O 0.60243 0.07951 0.36442 0.0
O154 O 0.36813 0.5428 0.8836 0.0
Cd155 Cd 0.41093 0.56871 0.86726 0.0
Cd156 Cd 0.42659 0.58531 0.91573 0.0
O157 O 0.37946 0.56407 0.92223 0.0
O158 O 0.40306 0.55332 0.83114 0.0
O159 O 0.44179 0.55163 0.8544 0.0
C160 C 0.42687 0.54643 0.8328 0.0
C161 C 0.45751 0.56671 0.93857 0.0
C162 C 0.35962 0.54638 0.90621 0.0
C163 C 0.43724 0.63741 0.88032 0.0
O164 O 0.44351 0.63018 0.90247 0.0
O165 O 0.42299 0.61619 0.86383 0.0
O166 O 0.44693 0.58547 0.94912 0.0
O167 O 0.45125 0.5593 0.91454 0.0
H168 H 0.63866 0.07565 0.29921 0.0
H169 H 0.51249 0.07843 0.21535 0.0
H170 H 0.54803 0.0536 0.33248 0.0
H171 H 0.57655 0.04227 0.18449 0.0
H172 H 0.51964 0.06116 0.25822 0.0
H173 H 0.61395 0.05534 0.2577 0.0
C174 C 0.61343 0.06542 0.2979 0.0
C175 C 0.59527 0.06639 0.31906 0.0
C176 C 0.53121 0.05581 0.24198 0.0
C177 C 0.56694 0.04446 0.27156 0.0
C178 C 0.52704 0.06561 0.21751 0.0
C179 C 0.54407 0.06179 0.19657 0.0
C180 C 0.55362 0.04345 0.24556 0.0
C181 C 0.56298 0.04549 0.20028 0.0
C182 C 0.59929 0.05381 0.27424 0.0
C183 C 0.56273 0.05316 0.31649 0.0
N184 N 0.56813 0.03783 0.22454 0.0
N185 N 0.54957 0.04366 0.29287 0.0
H186 H 0.49025 0.59964 0.69075 0.0
H187 H 0.39233 0.50281 0.79796 0.0
H188 H 0.42694 0.50453 0.67521 0.0
H189 H 0.48623 0.56855 0.81415 0.0
H190 H 0.40755 0.49813 0.75359 0.0
H191 H 0.49424 0.5859 0.73552 0.0
C192 C 0.47803 0.57558 0.69665 0.0
C193 C 0.45805 0.5532 0.6795 0.0
C194 C 0.42518 0.51276 0.76701 0.0
C195 C 0.46148 0.53757 0.73076 0.0
C196 C 0.41646 0.51543 0.79231 0.0
C197 C 0.43805 0.53625 0.80949 0.0
C198 C 0.45533 0.53205 0.75867 0.0
C199 C 0.46897 0.55224 0.80135 0.0
C200 C 0.48032 0.56771 0.72218 0.0
C201 C 0.44258 0.5224 0.68797 0.0
N202 N 0.47651 0.55059 0.77621 0.0
N203 N 0.44381 0.51565 0.71329 0.0
H204 H 0.93887 0.39233 0.17706 0.0
H205 H 0.93175 0.47213 0.31153 0.0
H206 H 0.89533 0.45635 0.18986 0.0
H207 H 0.92834 0.3794 0.30277 0.0
H208 H 0.94399 0.48114 0.26544 0.0
H209 H 0.9598 0.40274 0.22125 0.0
C210 C 0.93479 0.40947 0.18884 0.0
C211 C 0.91509 0.42323 0.18018 0.0
C212 C 0.94182 0.4593 0.27388 0.0
C213 C 0.93891 0.43535 0.23014 0.0
C214 C 0.93511 0.45427 0.30014 0.0
C215 C 0.92897 0.42497 0.31066 0.0
C216 C 0.94251 0.43487 0.25838 0.0
C217 C 0.9329 0.40227 0.29514 0.0
C218 C 0.94658 0.4153 0.21399 0.0
C219 C 0.91015 0.44504 0.19611 0.0
N220 N 0.939 0.40751 0.26962 0.0
N221 N 0.92168 0.45019 0.22048 0.0
H222 H 0.45511 0.93501 0.80345 0.0
H223 H 0.40546 0.9435 0.65802 0.0
H224 H 0.36247 0.92051 0.77902 0.0
H225 H 0.46659 0.90072 0.68237 0.0
H226 H 0.40528 0.96232 0.70238 0.0
H227 H 0.47378 0.94994 0.7592 0.0
C228 C 0.43907 0.93647 0.78904 0.0
C229 C 0.40724 0.92639 0.79461 0.0
C230 C 0.41974 0.94992 0.69769 0.0
C231 C 0.42826 0.94338 0.74448 0.0
C232 C 0.42001 0.93938 0.67244 0.0
C233 C 0.43586 0.92039 0.66681 0.0
C234 C 0.43588 0.94179 0.71706 0.0
C235 C 0.45394 0.91517 0.68615 0.0
C236 C 0.44966 0.94477 0.76386 0.0
C237 C 0.38718 0.92805 0.77529 0.0
N238 N 0.45318 0.92549 0.71056 0.0
N239 N 0.39794 0.93598 0.75092 0.0
H240 H 0.49783 0.38807 0.29204 0.0
H241 H 0.60563 0.49396 0.19592 0.0
H242 H 0.56129 0.47971 0.31697 0.0
H243 H 0.51123 0.43727 0.17259 0.0
H244 H 0.5876 0.49427 0.24012 0.0
H245 H 0.49753 0.40836 0.24881 0.0
C246 C 0.51071 0.41278 0.28857 0.0
C247 C 0.52961 0.43233 0.30788 0.0
C248 C 0.57057 0.48273 0.22521 0.0
C249 C 0.53062 0.45536 0.25841 0.0
C250 C 0.58089 0.48259 0.20001 0.0
C251 C 0.55983 0.4655 0.1808 0.0
C252 C 0.53925 0.46449 0.23132 0.0
C253 C 0.52809 0.45081 0.18698 0.0
C254 C 0.51059 0.42438 0.26393 0.0
C255 C 0.54629 0.46404 0.30249 0.0
N256 N 0.51883 0.44974 0.21196 0.0
N257 N 0.54725 0.47443 0.27796 0.0
H258 H 0.05978 0.53261 0.6968 0.0
H259 H 0.04497 0.58726 0.83981 0.0
H260 H 0.07257 0.62569 0.71911 0.0
H261 H 0.0844 0.52177 0.81912 0.0
H262 H 0.02783 0.5863 0.79494 0.0
H263 H 0.04148 0.51475 0.74064 0.0
C264 C 0.05729 0.54891 0.71061 0.0
C265 C 0.06779 0.58061 0.70466 0.0
C266 C 0.03907 0.57116 0.80053 0.0
C267 C 0.04711 0.56059 0.75432 0.0
C268 C 0.04864 0.57155 0.82609 0.0
C269 C 0.06629 0.55478 0.83287 0.0
C270 C 0.04695 0.55357 0.78201 0.0
C271 C 0.07099 0.53516 0.81442 0.0
C272 C 0.04705 0.53879 0.73556 0.0
C273 C 0.06474 0.60106 0.72318 0.0
N274 N 0.06176 0.5354 0.78967 0.0
N275 N 0.05503 0.59078 0.74736 0.0
H276 H 0.54563 0.08121 0.00668 0.0
H277 H 0.41679 0.90784 0.98486 0.0
H278 H 0.50324 0.01701 0.06871 0.0
H279 H 0.45231 0.97522 0.92387 0.0
H280 H 0.44931 0.947 0.01568 0.0
H281 H 0.51333 0.04188 0.97589 0.0
C282 C 0.52966 0.05875 0.01384 0.0
C283 C 0.52711 0.05239 0.04034 0.0
C284 C 0.44995 0.95328 0.99558 0.0
C285 C 0.48987 0.00729 0.00512 0.0
C286 C 0.43135 0.93094 0.97795 0.0
C287 C 0.43186 0.93828 0.95172 0.0
C288 C 0.46936 0.98319 0.98695 0.0
C289 C 0.45115 0.96858 0.9439 0.0
C290 C 0.51112 0.03634 0.99622 0.0
C291 C 0.50597 0.0229 0.04846 0.0
N292 N 0.46924 0.98991 0.96144 0.0
N293 N 0.48812 0.00144 0.0309 0.0
H294 H 0.41731 0.51171 0.4986 0.0
H295 H 0.54376 0.43776 0.49187 0.0
H296 H 0.47087 0.50546 0.56425 0.0
H297 H 0.49582 0.45126 0.42519 0.0
H298 H 0.51507 0.45965 0.5191 0.0
H299 H 0.44321 0.48626 0.47201 0.0
C300 C 0.43438 0.5048 0.50748 0.0
C301 C 0.44204 0.51085 0.53369 0.0
C302 C 0.5108 0.45783 0.49852 0.0
C303 C 0.47192 0.48182 0.50325 0.0
C304 C 0.5272 0.44534 0.48293 0.0
C305 C 0.52225 0.44277 0.45618 0.0
C306 C 0.48922 0.46778 0.48732 0.0
C307 C 0.50045 0.45291 0.44571 0.0
C308 C 0.44923 0.49034 0.49224 0.0
C309 C 0.4643 0.50132 0.54412 0.0
N310 N 0.48474 0.46498 0.46131 0.0
N311 N 0.47855 0.48737 0.52884 0.0
H312 H 0.07168 0.55971 0.01366 0.0
H313 H 0.9209 0.39869 0.00334 0.0
H314 H 0.03172 0.51485 0.94151 0.0
H315 H 0.95876 0.44529 0.0754 0.0
H316 H 0.96359 0.43911 0.98053 0.0
H317 H 0.03149 0.51708 0.0367 0.0
C318 C 0.05427 0.54104 0.00265 0.0
C319 C 0.05501 0.54085 0.97561 0.0
C320 C 0.96272 0.44036 0.00135 0.0
C321 C 0.00922 0.49176 0.00188 0.0
C322 C 0.93846 0.41716 0.01442 0.0
C323 C 0.93615 0.41876 0.04131 0.0
C324 C 0.98476 0.46536 0.01527 0.0
C325 C 0.95958 0.4432 0.05465 0.0
C326 C 0.03144 0.5166 0.01583 0.0
C327 C 0.03195 0.516 0.96236 0.0
N328 N 0.98278 0.46571 0.04146 0.0
N329 N 0.01003 0.49238 0.97564 0.0
H330 H 0.58728 0.07448 0.49888 0.0
H331 H 0.43212 0.91795 0.48699 0.0
H332 H 0.55154 0.02696 0.42672 0.0
H333 H 0.47338 0.95978 0.55971 0.0
H334 H 0.47438 0.95919 0.46451 0.0
H335 H 0.5453 0.03314 0.52152 0.0
C336 C 0.57077 0.05517 0.48782 0.0
C337 C 0.57282 0.05416 0.46087 0.0
C338 C 0.47413 0.95942 0.48538 0.0
C339 C 0.52449 0.00703 0.48663 0.0
C340 C 0.4499 0.936 0.49824 0.0
C341 C 0.44929 0.93542 0.52527 0.0
C342 C 0.4979 0.98243 0.49965 0.0
C343 C 0.47296 0.95934 0.53884 0.0
C344 C 0.54673 0.03164 0.50076 0.0
C345 C 0.55083 0.02862 0.44752 0.0
N346 N 0.49639 0.98185 0.52587 0.0
N347 N 0.52741 0.00613 0.46055 0.0
H348 H 0.4734 0.57726 0.98947 0.0
H349 H 0.54157 0.4465 0.99527 0.0
H350 H 0.48023 0.52391 0.92331 0.0
H351 H 0.53223 0.49759 0.06205 0.0
H352 H 0.52109 0.47619 0.96838 0.0
H353 H 0.49758 0.55044 0.01595 0.0
C354 C 0.48021 0.56007 0.98045 0.0
C355 C 0.47466 0.55269 0.95415 0.0
C356 C 0.5235 0.48094 0.9889 0.0
C357 C 0.50214 0.52175 0.98442 0.0
C358 C 0.53514 0.46393 0.00431 0.0
C359 C 0.53851 0.46952 0.03097 0.0
C360 C 0.51516 0.50374 0.00021 0.0
C361 C 0.5299 0.49247 0.04158 0.0
C362 C 0.49394 0.5447 0.99562 0.0
C363 C 0.48401 0.53027 0.94352 0.0
N364 N 0.51859 0.50875 0.02615 0.0
N365 N 0.49717 0.51547 0.95873 0.0
H366 H 0.90761 0.44601 0.50234 0.0
H367 H 0.08122 0.57638 0.51771 0.0
H368 H 0.972 0.48082 0.43895 0.0
H369 H 0.01791 0.54003 0.58158 0.0
H370 H 0.04051 0.54346 0.48833 0.0
H371 H 0.94691 0.48176 0.53139 0.0
C372 C 0.93005 0.46117 0.49452 0.0
C373 C 0.9366 0.46037 0.46818 0.0
C374 C 0.03544 0.54274 0.50875 0.0
C375 C 0.98166 0.50144 0.50137 0.0
C376 C 0.05867 0.56158 0.52556 0.0
C377 C 0.05298 0.56082 0.55216 0.0
C378 C 0.00629 0.52291 0.51859 0.0
C379 C 0.0233 0.54129 0.56121 0.0
C380 C 0.95246 0.48162 0.51114 0.0
C381 C 0.96601 0.4806 0.45912 0.0
N382 N 0.00107 0.52297 0.54444 0.0
N383 N 0.98749 0.50031 0.47572 0.0
H384 H 0.52584 0.18269 0.06895 0.0
H385 H 0.54536 0.33507 0.14664 0.0
H386 H 0.52881 0.18853 0.15206 0.0
H387 H 0.52752 0.32372 0.06475 0.0
H388 H 0.53192 0.27919 0.14982 0.0
H389 H 0.51856 0.23128 0.06761 0.0
C390 C 0.52441 0.19391 0.08695 0.0
C391 C 0.52852 0.18183 0.11064 0.0
C392 C 0.53046 0.28882 0.13121 0.0
C393 C 0.52068 0.23777 0.10924 0.0
C394 C 0.53819 0.32078 0.12938 0.0
C395 C 0.53813 0.33422 0.10531 0.0
C396 C 0.52298 0.27024 0.10878 0.0
C397 C 0.52828 0.31446 0.08366 0.0
C398 C 0.52025 0.22169 0.08618 0.0
C399 C 0.52607 0.19716 0.13335 0.0
N400 N 0.5216 0.28356 0.08585 0.0
N401 N 0.52291 0.22467 0.13207 0.0
H402 H 0.30488 0.51478 0.58009 0.0
H403 H 0.17822 0.55355 0.58328 0.0
H404 H 0.3344 0.57264 0.64835 0.0
H405 H 0.20094 0.57879 0.66318 0.0
H406 H 0.22134 0.5378 0.58049 0.0
H407 H 0.2527 0.5133 0.58536 0.0
C408 C 0.30035 0.5271 0.59626 0.0
C409 C 0.32428 0.54445 0.61346 0.0
C410 C 0.21656 0.54584 0.59891 0.0
C411 C 0.26478 0.54405 0.61903 0.0
C412 C 0.19197 0.55523 0.60043 0.0
C413 C 0.18607 0.56779 0.62344 0.0
C414 C 0.23554 0.54901 0.62061 0.0
C415 C 0.20469 0.56935 0.64501 0.0
C416 C 0.27056 0.52659 0.59909 0.0
C417 C 0.31683 0.55934 0.63438 0.0
N418 N 0.22887 0.5605 0.64295 0.0
N419 N 0.28786 0.55915 0.63636 0.0
H420 H 0.80008 0.29615 0.15371 0.0
H421 H 0.66642 0.16141 0.15988 0.0
H422 H 0.80902 0.27011 0.07509 0.0
H423 H 0.67203 0.16338 0.07681 0.0
H424 H 0.72088 0.19804 0.16209 0.0
H425 H 0.75593 0.24662 0.15937 0.0
C426 C 0.79325 0.27962 0.1378 0.0
C427 C 0.80797 0.28761 0.11374 0.0
C428 C 0.71031 0.19074 0.14334 0.0
C429 C 0.75721 0.23019 0.12009 0.0
C430 C 0.67918 0.16945 0.14208 0.0
C431 C 0.66436 0.15993 0.11811 0.0
C432 C 0.72659 0.20301 0.12043 0.0
C433 C 0.68229 0.1705 0.09573 0.0
C434 C 0.76796 0.25102 0.14108 0.0
C435 C 0.79815 0.26515 0.0939 0.0
N436 N 0.71229 0.19183 0.09744 0.0
N437 N 0.77303 0.23775 0.09738 0.0
H438 H 0.46517 0.81124 0.60912 0.0
H439 H 0.43633 0.65264 0.5362 0.0
H440 H 0.42032 0.78539 0.5348 0.0
H441 H 0.48024 0.67803 0.61091 0.0
H442 H 0.44131 0.7061 0.53089 0.0
H443 H 0.48096 0.76776 0.6059 0.0
C444 C 0.45894 0.79666 0.59197 0.0
C445 C 0.44082 0.80159 0.57244 0.0
C446 C 0.45039 0.70013 0.54824 0.0
C447 C 0.45874 0.75166 0.56868 0.0
C448 C 0.44769 0.6696 0.55125 0.0
C449 C 0.45716 0.66061 0.57433 0.0
C450 C 0.46245 0.72173 0.56853 0.0
C451 C 0.47205 0.68373 0.59299 0.0
C452 C 0.46803 0.77185 0.59012 0.0
C453 C 0.43385 0.78219 0.55052 0.0
N454 N 0.47368 0.71308 0.5899 0.0
N455 N 0.44242 0.7578 0.54941 0.0
H456 H 0.67121 0.45548 0.04077 0.0
H457 H 0.79254 0.40964 0.04269 0.0
H458 H 0.68841 0.4695 0.12259 0.0
H459 H 0.81675 0.45509 0.11706 0.0
H460 H 0.75259 0.42965 0.03804 0.0
H461 H 0.72305 0.45623 0.03511 0.0
C462 C 0.68602 0.45901 0.05754 0.0
C463 C 0.67507 0.46147 0.0823 0.0
C464 C 0.76714 0.43622 0.05505 0.0
C465 C 0.73402 0.46096 0.07615 0.0
C466 C 0.78992 0.42447 0.0578 0.0
C467 C 0.80764 0.43019 0.0805 0.0
C468 C 0.76203 0.45386 0.07521 0.0
C469 C 0.80332 0.44968 0.09938 0.0
C470 C 0.71557 0.45902 0.05434 0.0
C471 C 0.69559 0.46684 0.1032 0.0
N472 N 0.7806 0.46034 0.09649 0.0
N473 N 0.72385 0.46583 0.09969 0.0
H474 H 0.17188 0.71389 0.65653 0.0
H475 H 0.2917 0.82721 0.5564 0.0
H476 H 0.1614 0.70454 0.57382 0.0
H477 H 0.30947 0.82475 0.63781 0.0
H478 H 0.23688 0.79344 0.56383 0.0
H479 H 0.21398 0.76537 0.65094 0.0
C480 C 0.17785 0.72294 0.6372 0.0
C481 C 0.16373 0.70444 0.61557 0.0
C482 C 0.25268 0.80077 0.58012 0.0
C483 C 0.21212 0.76319 0.60909 0.0
C484 C 0.284 0.82006 0.57591 0.0
C485 C 0.30538 0.82814 0.59643 0.0
C486 C 0.24272 0.78948 0.605 0.0
C487 C 0.29395 0.81853 0.62133 0.0
C488 C 0.20201 0.75232 0.63404 0.0
C489 C 0.17214 0.71766 0.59104 0.0
N490 N 0.26349 0.7993 0.62486 0.0
N491 N 0.19626 0.74598 0.58844 0.0
H492 H 0.80722 0.43512 0.34583 0.0
H493 H 0.65828 0.43184 0.34128 0.0
H494 H 0.79505 0.43365 0.42838 0.0
H495 H 0.66877 0.45207 0.42289 0.0
H496 H 0.71174 0.43698 0.33951 0.0
H497 H 0.76141 0.44657 0.3408 0.0
C498 C 0.79484 0.43715 0.36292 0.0
C499 C 0.80468 0.43279 0.38754 0.0
C500 C 0.70295 0.4412 0.35775 0.0
C501 C 0.75134 0.44503 0.38198 0.0
C502 C 0.67212 0.43814 0.35876 0.0
C503 C 0.65878 0.44104 0.38235 0.0
C504 C 0.72069 0.44724 0.38056 0.0
C505 C 0.67792 0.4493 0.40431 0.0
C506 C 0.76838 0.44349 0.36004 0.0
C507 C 0.78812 0.43637 0.40899 0.0
N508 N 0.7077 0.45162 0.40294 0.0
N509 N 0.76215 0.44195 0.40567 0.0
H510 H 0.27387 0.8301 0.84902 0.0
H511 H 0.16393 0.68102 0.86222 0.0
H512 H 0.29021 0.82236 0.93002 0.0
H513 H 0.16556 0.69969 0.94394 0.0
H514 H 0.19907 0.73505 0.85529 0.0
H515 H 0.22278 0.78707 0.8531 0.0
C516 C 0.26657 0.81964 0.86776 0.0
C517 C 0.28683 0.82926 0.88904 0.0
C518 C 0.19107 0.72784 0.87469 0.0
C519 C 0.22883 0.77899 0.89361 0.0
C520 C 0.17111 0.6967 0.87868 0.0
C521 C 0.16215 0.68563 0.90374 0.0
C522 C 0.20231 0.74812 0.89596 0.0
C523 C 0.1721 0.7071 0.92429 0.0
C524 C 0.23748 0.79469 0.87 0.0
C525 C 0.27572 0.8153 0.91294 0.0
N526 N 0.19213 0.73715 0.91999 0.0
N527 N 0.24772 0.79049 0.91446 0.0
H528 H 0.58015 0.18622 0.35524 0.0
H529 H 0.5383 0.30775 0.43736 0.0
H530 H 0.58149 0.1905 0.43844 0.0
H531 H 0.53109 0.30019 0.35441 0.0
H532 H 0.54546 0.2591 0.43842 0.0
H533 H 0.55534 0.22308 0.35467 0.0
C534 C 0.57513 0.19479 0.37338 0.0
C535 C 0.58336 0.1856 0.39691 0.0
C536 C 0.54176 0.26777 0.42 0.0
C537 C 0.55482 0.22767 0.3964 0.0
C538 C 0.53748 0.2955 0.4194 0.0
C539 C 0.53475 0.30845 0.39572 0.0
C540 C 0.54367 0.25308 0.39675 0.0
C541 C 0.53353 0.29132 0.3731 0.0
C542 C 0.5608 0.21572 0.37305 0.0
C543 C 0.57593 0.1972 0.41982 0.0
N544 N 0.53864 0.26484 0.37413 0.0
N545 N 0.56237 0.21783 0.41897 0.0
H546 H 0.16718 0.51783 0.89009 0.0
H547 H 0.31021 0.51224 0.87511 0.0
H548 H 0.20822 0.57419 0.95738 0.0
H549 H 0.33227 0.55356 0.9511 0.0
H550 H 0.25652 0.50479 0.88117 0.0
H551 H 0.20952 0.50064 0.88928 0.0
C552 C 0.18514 0.52654 0.90476 0.0
C553 C 0.1846 0.54815 0.92341 0.0
C554 C 0.27258 0.51472 0.89694 0.0
C555 C 0.23411 0.52943 0.92215 0.0
C556 C 0.30354 0.51902 0.8934 0.0
C557 C 0.32599 0.53429 0.91235 0.0
C558 C 0.264 0.52586 0.91964 0.0
C559 C 0.31589 0.54222 0.93573 0.0
C560 C 0.20962 0.51688 0.90419 0.0
C561 C 0.20798 0.55796 0.94234 0.0
N562 N 0.28579 0.53848 0.93849 0.0
N563 N 0.23201 0.54892 0.94095 0.0
H564 H 0.7323 0.16494 0.36423 0.0
H565 H 0.84298 0.30719 0.4477 0.0
H566 H 0.72564 0.17175 0.44689 0.0
H567 H 0.85073 0.2992 0.36526 0.0
H568 H 0.80992 0.25148 0.44938 0.0
H569 H 0.78462 0.20649 0.36591 0.0
C570 C 0.74209 0.17464 0.38282 0.0
C571 C 0.72415 0.16552 0.40536 0.0
C572 C 0.81938 0.26176 0.43098 0.0
C573 C 0.78386 0.21351 0.40736 0.0
C574 C 0.83832 0.29363 0.43001 0.0
C575 C 0.84886 0.3081 0.4062 0.0
C576 C 0.81067 0.24438 0.40795 0.0
C577 C 0.84251 0.2892 0.38399 0.0
C578 C 0.77201 0.19846 0.38377 0.0
C579 C 0.73833 0.17853 0.42893 0.0
N580 N 0.82326 0.25846 0.38533 0.0
N581 N 0.76706 0.2024 0.42925 0.0
H582 H 0.42316 0.66135 0.83643 0.0
H583 H 0.44383 0.81905 0.90799 0.0
H584 H 0.46425 0.68834 0.91199 0.0
H585 H 0.40504 0.79414 0.83152 0.0
H586 H 0.45918 0.77527 0.90676 0.0
H587 H 0.42434 0.71352 0.83117 0.0
C588 C 0.43291 0.67837 0.85175 0.0
C589 C 0.44309 0.67024 0.87489 0.0
C590 C 0.44764 0.77955 0.8901 0.0
C591 C 0.44421 0.7299 0.86907 0.0
C592 C 0.43882 0.80456 0.89081 0.0
C593 C 0.42264 0.80997 0.86999 0.0
C594 C 0.43997 0.75955 0.86854 0.0
C595 C 0.41718 0.79066 0.84811 0.0
C596 C 0.43352 0.70816 0.84875 0.0
C597 C 0.45573 0.69338 0.89396 0.0
N598 N 0.42543 0.76602 0.8481 0.0
N599 N 0.45552 0.722 0.89077 0.0
loop_
_geom_bond_atom_site_label_1
_geom_bond_atom_site_label_2
_geom_bond_distance
_geom_bond_site_symmetry_2
_ccdc_geom_bond_type
O0 Cd1 2.223 . S
O0 C8 1.315 . S
Cd1 O0 2.223 . S
Cd1 O4 2.297 . S
Cd1 O5 2.439 . S
Cd1 O11 2.240 . S
Cd2 O3 2.240 . S
Cd2 O10 2.223 . S
Cd2 O12 2.297 . S
Cd2 O13 2.439 . S
O3 Cd2 2.240 . S
O3 C8 1.279 . S
O4 Cd1 2.297 . S
O4 C6 1.247 . S
O5 Cd1 2.439 . S
O5 C6 1.208 . S
C6 O4 1.247 . S
C6 O5 1.208 . S
C7 O12 1.247 . S
C7 O13 1.208 . S
C8 O0 1.315 . S
C8 O3 1.279 . S
C9 O10 1.315 . S
C9 O11 1.279 . S
O10 Cd2 2.223 . S
O10 C9 1.315 . S
O11 Cd1 2.240 . S
O11 C9 1.279 . S
O12 Cd2 2.297 . S
O12 C7 1.247 . S
O13 Cd2 2.439 . S
O13 C7 1.208 . S
O14 Cd15 2.223 . S
O14 C22 1.315 . S
Cd15 O14 2.223 . S
Cd15 O18 2.297 . S
Cd15 O19 2.439 . S
Cd15 O25 2.240 . S
Cd16 O17 2.240 . S
Cd16 O24 2.223 . S
Cd16 O26 2.297 . S
Cd16 O27 2.439 . S
O17 Cd16 2.240 . S
O17 C22 1.279 . S
O18 Cd15 2.297 . S
O18 C20 1.247 . S
O19 Cd15 2.439 . S
O19 C20 1.208 . S
C20 O18 1.247 . S
C20 O19 1.208 . S
C21 O26 1.247 . S
C21 O27 1.208 . S
C22 O14 1.315 . S
C22 O17 1.279 . S
C23 O24 1.315 . S
C23 O25 1.279 . S
O24 Cd16 2.223 . S
O24 C23 1.315 . S
O25 Cd15 2.240 . S
O25 C23 1.279 . S
O26 Cd16 2.297 . S
O26 C21 1.247 . S
O27 Cd16 2.439 . S
O27 C21 1.208 . S
O28 Cd29 2.223 . S
O28 C36 1.315 . S
Cd29 O28 2.223 . S
Cd29 O32 2.297 . S
Cd29 O33 2.439 . S
Cd29 O39 2.240 . S
Cd30 O31 2.240 . S
Cd30 O38 2.223 . S
Cd30 O40 2.297 . S
Cd30 O41 2.439 . S
O31 Cd30 2.240 . S
O31 C36 1.279 . S
O32 Cd29 2.297 . S
O32 C34 1.247 . S
O33 Cd29 2.439 . S
O33 C34 1.208 . S
C34 O32 1.247 . S
C34 O33 1.208 . S
C35 O40 1.247 . S
C35 O41 1.208 . S
C36 O28 1.315 . S
C36 O31 1.279 . S
C37 O38 1.315 . S
C37 O39 1.279 . S
O38 Cd30 2.223 . S
O38 C37 1.315 . S
O39 Cd29 2.240 . S
O39 C37 1.279 . S
O40 Cd30 2.297 . S
O40 C35 1.247 . S
O41 Cd30 2.439 . S
O41 C35 1.208 . S
O42 Cd43 2.223 . S
O42 C50 1.315 . S
Cd43 O42 2.223 . S
Cd43 O46 2.297 . S
Cd43 O47 2.439 . S
Cd43 O53 2.240 . S
Cd44 O45 2.240 . S
Cd44 O52 2.223 . S
Cd44 O54 2.297 . S
Cd44 O55 2.439 . S
O45 Cd44 2.240 . S
O45 C50 1.279 . S
O46 Cd43 2.297 . S
O46 C48 1.247 . S
O47 Cd43 2.439 . S
O47 C48 1.208 . S
C48 O46 1.247 . S
C48 O47 1.208 . S
C49 O54 1.247 . S
C49 O55 1.208 . S
C50 O42 1.315 . S
C50 O45 1.279 . S
C51 O52 1.315 . S
C51 O53 1.279 . S
O52 Cd44 2.223 . S
O52 C51 1.315 . S
O53 Cd43 2.240 . S
O53 C51 1.279 . S
O54 Cd44 2.297 . S
O54 C49 1.247 . S
O55 Cd44 2.439 . S
O55 C49 1.208 . S
O56 Cd57 2.223 . S
O56 C64 1.315 . S
Cd57 O56 2.223 . S
Cd57 O60 2.297 . S
Cd57 O61 2.439 . S
Cd57 O67 2.240 . S
Cd58 O59 2.240 . S
Cd58 O66 2.223 . S
Cd58 O68 2.297 . S
Cd58 O69 2.439 . S
O59 Cd58 2.240 . S
O59 C64 1.279 . S
O60 Cd57 2.297 . S
O60 C62 1.247 . S
O61 Cd57 2.439 . S
O61 C62 1.208 . S
C62 O60 1.247 . S
C62 O61 1.208 . S
C63 O68 1.247 . S
C63 O69 1.208 . S
C64 O56 1.315 . S
C64 O59 1.279 . S
C65 O66 1.315 . S
C65 O67 1.279 . S
O66 Cd58 2.223 . S
O66 C65 1.315 . S
O67 Cd57 2.240 . S
O67 C65 1.279 . S
O68 Cd58 2.297 . S
O68 C63 1.247 . S
O69 Cd58 2.439 . S
O69 C63 1.208 . S
O70 Cd71 2.223 . S
O70 C78 1.315 . S
Cd71 O70 2.223 . S
Cd71 O74 2.297 . S
Cd71 O75 2.439 . S
Cd71 O81 2.240 . S
Cd72 O73 2.240 . S
Cd72 O80 2.223 . S
Cd72 O82 2.297 . S
Cd72 O83 2.439 . S
O73 Cd72 2.240 . S
O73 C78 1.279 . S
O74 Cd71 2.297 . S
O74 C76 1.247 . S
O75 Cd71 2.439 . S
O75 C76 1.208 . S
C76 O74 1.247 . S
C76 O75 1.208 . S
C77 O82 1.247 . S
C77 O83 1.208 . S
C78 O70 1.315 . S
C78 O73 1.279 . S
C79 O80 1.315 . S
C79 O81 1.279 . S
O80 Cd72 2.223 . S
O80 C79 1.315 . S
O81 Cd71 2.240 . S
O81 C79 1.279 . S
O82 Cd72 2.297 . S
O82 C77 1.247 . S
O83 Cd72 2.439 . S
O83 C77 1.208 . S
O84 Cd85 2.223 . S
O84 C92 1.315 . S
Cd85 O84 2.223 . S
Cd85 O88 2.297 . S
Cd85 O89 2.439 . S
Cd85 O95 2.240 . S
Cd86 O87 2.240 . S
Cd86 O94 2.223 . S
Cd86 O96 2.297 . S
Cd86 O97 2.439 . S
O87 Cd86 2.240 . S
O87 C92 1.279 . S
O88 Cd85 2.297 . S
O88 C90 1.247 . S
O89 Cd85 2.439 . S
O89 C90 1.208 . S
C90 O88 1.247 . S
C90 O89 1.208 . S
C91 O96 1.247 . S
C91 O97 1.208 . S
C92 O84 1.315 . S
C92 O87 1.279 . S
C93 O94 1.315 . S
C93 O95 1.279 . S
O94 Cd86 2.223 . S
O94 C93 1.315 . S
O95 Cd85 2.240 . S
O95 C93 1.279 . S
O96 Cd86 2.297 . S
O96 C91 1.247 . S
O97 Cd86 2.439 . S
O97 C91 1.208 . S
O98 Cd99 2.223 . S
O98 C106 1.315 . S
Cd99 O98 2.223 . S
Cd99 O102 2.297 . S
Cd99 O103 2.439 . S
Cd99 O109 2.240 . S
Cd100 O101 2.240 . S
Cd100 O108 2.223 . S
Cd100 O110 2.297 . S
Cd100 O111 2.439 . S
O101 Cd100 2.240 . S
O101 C106 1.279 . S
O102 Cd99 2.297 . S
O102 C104 1.247 . S
O103 Cd99 2.439 . S
O103 C104 1.208 . S
C104 O102 1.247 . S
C104 O103 1.208 . S
C105 O110 1.247 . S
C105 O111 1.208 . S
C106 O98 1.315 . S
C106 O101 1.279 . S
C107 O108 1.315 . S
C107 O109 1.279 . S
O108 Cd100 2.223 . S
O108 C107 1.315 . S
O109 Cd99 2.240 . S
O109 C107 1.279 . S
O110 Cd100 2.297 . S
O110 C105 1.247 . S
O111 Cd100 2.439 . S
O111 C105 1.208 . S
O112 Cd113 2.223 . S
O112 C120 1.315 . S
Cd113 O112 2.223 . S
Cd113 O116 2.297 . S
Cd113 O117 2.439 . S
Cd113 O123 2.240 . S
Cd114 O115 2.240 . S
Cd114 O122 2.223 . S
Cd114 O124 2.297 . S
Cd114 O125 2.439 . S
O115 Cd114 2.240 . S
O115 C120 1.279 . S
O116 Cd113 2.297 . S
O116 C118 1.247 . S
O117 Cd113 2.439 . S
O117 C118 1.208 . S
C118 O116 1.247 . S
C118 O117 1.208 . S
C119 O124 1.247 . S
C119 O125 1.208 . S
C120 O112 1.315 . S
C120 O115 1.279 . S
C121 O122 1.315 . S
C121 O123 1.279 . S
O122 Cd114 2.223 . S
O122 C121 1.315 . S
O123 Cd113 2.240 . S
O123 C121 1.279 . S
O124 Cd114 2.297 . S
O124 C119 1.247 . S
O125 Cd114 2.439 . S
O125 C119 1.208 . S
O126 Cd127 2.223 . S
O126 C134 1.315 . S
Cd127 O126 2.223 . S
Cd127 O130 2.297 . S
Cd127 O131 2.439 . S
Cd127 O137 2.240 . S
Cd128 O129 2.240 . S
Cd128 O136 2.223 . S
Cd128 O138 2.297 . S
Cd128 O139 2.439 . S
O129 Cd128 2.240 . S
O129 C134 1.279 . S
O130 Cd127 2.297 . S
O130 C132 1.247 . S
O131 Cd127 2.439 . S
O131 C132 1.208 . S
C132 O130 1.247 . S
C132 O131 1.208 . S
C133 O138 1.247 . S
C133 O139 1.208 . S
C134 O126 1.315 . S
C134 O129 1.279 . S
C135 O136 1.315 . S
C135 O137 1.279 . S
O136 Cd128 2.223 . S
O136 C135 1.315 . S
O137 Cd127 2.240 . S
O137 C135 1.279 . S
O138 Cd128 2.297 . S
O138 C133 1.247 . S
O139 Cd128 2.439 . S
O139 C133 1.208 . S
O140 Cd141 2.223 . S
O140 C148 1.315 . S
Cd141 O140 2.223 . S
Cd141 O144 2.297 . S
Cd141 O145 2.439 . S
Cd141 O151 2.240 . S
Cd142 O143 2.240 . S
Cd142 O150 2.223 . S
Cd142 O152 2.297 . S
Cd142 O153 2.439 . S
O143 Cd142 2.240 . S
O143 C148 1.279 . S
O144 Cd141 2.297 . S
O144 C146 1.247 . S
O145 Cd141 2.439 . S
O145 C146 1.208 . S
C146 O144 1.247 . S
C146 O145 1.208 . S
C147 O152 1.247 . S
C147 O153 1.208 . S
C148 O140 1.315 . S
C148 O143 1.279 . S
C149 O150 1.315 . S
C149 O151 1.279 . S
O150 Cd142 2.223 . S
O150 C149 1.315 . S
O151 Cd141 2.240 . S
O151 C149 1.279 . S
O152 Cd142 2.297 . S
O152 C147 1.247 . S
O153 Cd142 2.439 . S
O153 C147 1.208 . S
O154 Cd155 2.223 . S
O154 C162 1.315 . S
Cd155 O154 2.223 . S
Cd155 O158 2.297 . S
Cd155 O159 2.439 . S
Cd155 O165 2.240 . S
Cd156 O157 2.240 . S
Cd156 O164 2.223 . S
Cd156 O166 2.297 . S
Cd156 O167 2.439 . S
O157 Cd156 2.240 . S
O157 C162 1.279 . S
O158 Cd155 2.297 . S
O158 C160 1.247 . S
O159 Cd155 2.439 . S
O159 C160 1.208 . S
C160 O158 1.247 . S
C160 O159 1.208 . S
C161 O166 1.247 . S
C161 O167 1.208 . S
C162 O154 1.315 . S
C162 O157 1.279 . S
C163 O164 1.315 . S
C163 O165 1.279 . S
O164 Cd156 2.223 . S
O164 C163 1.315 . S
O165 Cd155 2.240 . S
O165 C163 1.279 . S
O166 Cd156 2.297 . S
O166 C161 1.247 . S
O167 Cd156 2.439 . S
O167 C161 1.208 . S
H168 C174 0.930 . S
H169 C178 0.930 . S
H170 C183 0.929 . S
H171 C181 0.929 . S
H172 C176 0.929 . S
H173 C182 0.929 . S
C174 H168 0.930 . S
C174 C175 1.367 . S
C174 C182 1.378 . S
C175 C174 1.367 . S
C175 C183 1.433 . S
C176 H172 0.929 . S
C176 C178 1.378 . S
C176 C180 1.350 . S
C177 C180 1.463 . S
C177 C182 1.350 . S
C177 N185 1.427 . S
C178 H169 0.930 . S
C178 C176 1.378 . S
C178 C179 1.367 . S
C179 C178 1.367 . S
C179 C181 1.433 . S
C180 C176 1.350 . S
C180 C177 1.463 . S
C180 N184 1.427 . S
C181 H171 0.929 . S
C181 C179 1.433 . S
C181 N184 1.384 . S
C182 H173 0.929 . S
C182 C174 1.378 . S
C182 C177 1.350 . S
C183 H170 0.929 . S
C183 C175 1.433 . S
C183 N185 1.384 . S
N184 C180 1.427 . S
N184 C181 1.384 . S
N185 C177 1.427 . S
N185 C183 1.384 . S
H186 C192 0.930 . S
H187 C196 0.930 . S
H188 C201 0.929 . S
H189 C199 0.929 . S
H190 C194 0.929 . S
H191 C200 0.929 . S
C192 H186 0.930 . S
C192 C193 1.367 . S
C192 C200 1.378 . S
C193 C192 1.367 . S
C193 C201 1.433 . S
C194 H190 0.929 . S
C194 C196 1.378 . S
C194 C198 1.350 . S
C195 C198 1.463 . S
C195 C200 1.350 . S
C195 N203 1.427 . S
C196 H187 0.930 . S
C196 C194 1.378 . S
C196 C197 1.367 . S
C197 C196 1.367 . S
C197 C199 1.433 . S
C198 C194 1.350 . S
C198 C195 1.463 . S
C198 N202 1.427 . S
C199 H189 0.929 . S
C199 C197 1.433 . S
C199 N202 1.384 . S
C200 H191 0.929 . S
C200 C192 1.378 . S
C200 C195 1.350 . S
C201 H188 0.929 . S
C201 C193 1.433 . S
C201 N203 1.384 . S
N202 C198 1.427 . S
N202 C199 1.384 . S
N203 C195 1.427 . S
N203 C201 1.384 . S
H204 C210 0.930 . S
H205 C214 0.930 . S
H206 C219 0.929 . S
H207 C217 0.929 . S
H208 C212 0.929 . S
H209 C218 0.929 . S
C210 H204 0.930 . S
C210 C211 1.367 . S
C210 C218 1.378 . S
C211 C210 1.367 . S
C211 C219 1.433 . S
C212 H208 0.929 . S
C212 C214 1.378 . S
C212 C216 1.350 . S
C213 C216 1.463 . S
C213 C218 1.350 . S
C213 N221 1.427 . S
C214 H205 0.930 . S
C214 C212 1.378 . S
C214 C215 1.367 . S
C215 C214 1.367 . S
C215 C217 1.433 . S
C216 C212 1.350 . S
C216 C213 1.463 . S
C216 N220 1.427 . S
C217 H207 0.929 . S
C217 C215 1.433 . S
C217 N220 1.384 . S
C218 H209 0.929 . S
C218 C210 1.378 . S
C218 C213 1.350 . S
C219 H206 0.929 . S
C219 C211 1.433 . S
C219 N221 1.384 . S
N220 C216 1.427 . S
N220 C217 1.384 . S
N221 C213 1.427 . S
N221 C219 1.384 . S
H222 C228 0.930 . S
H223 C232 0.930 . S
H224 C237 0.929 . S
H225 C235 0.929 . S
H226 C230 0.929 . S
H227 C236 0.929 . S
C228 H222 0.930 . S
C228 C229 1.367 . S
C228 C236 1.378 . S
C229 C228 1.367 . S
C229 C237 1.433 . S
C230 H226 0.929 . S
C230 C232 1.378 . S
C230 C234 1.350 . S
C231 C234 1.463 . S
C231 C236 1.350 . S
C231 N239 1.427 . S
C232 H223 0.930 . S
C232 C230 1.378 . S
C232 C233 1.367 . S
C233 C232 1.367 . S
C233 C235 1.433 . S
C234 C230 1.350 . S
C234 C231 1.463 . S
C234 N238 1.427 . S
C235 H225 0.929 . S
C235 C233 1.433 . S
C235 N238 1.384 . S
C236 H227 0.929 . S
C236 C228 1.378 . S
C236 C231 1.350 . S
C237 H224 0.929 . S
C237 C229 1.433 . S
C237 N239 1.384 . S
N238 C234 1.427 . S
N238 C235 1.384 . S
N239 C231 1.427 . S
N239 C237 1.384 . S
H240 C246 0.930 . S
H241 C250 0.930 . S
H242 C255 0.929 . S
H243 C253 0.929 . S
H244 C248 0.929 . S
H245 C254 0.929 . S
C246 H240 0.930 . S
C246 C247 1.367 . S
C246 C254 1.378 . S
C247 C246 1.367 . S
C247 C255 1.433 . S
C248 H244 0.929 . S
C248 C250 1.378 . S
C248 C252 1.350 . S
C249 C252 1.463 . S
C249 C254 1.350 . S
C249 N257 1.427 . S
C250 H241 0.930 . S
C250 C248 1.378 . S
C250 C251 1.367 . S
C251 C250 1.367 . S
C251 C253 1.433 . S
C252 C248 1.350 . S
C252 C249 1.463 . S
C252 N256 1.427 . S
C253 H243 0.929 . S
C253 C251 1.433 . S
C253 N256 1.384 . S
C254 H245 0.929 . S
C254 C246 1.378 . S
C254 C249 1.350 . S
C255 H242 0.929 . S
C255 C247 1.433 . S
C255 N257 1.384 . S
N256 C252 1.427 . S
N256 C253 1.384 . S
N257 C249 1.427 . S
N257 C255 1.384 . S
H258 C264 0.930 . S
H259 C268 0.930 . S
H260 C273 0.929 . S
H261 C271 0.929 . S
H262 C266 0.929 . S
H263 C272 0.929 . S
C264 H258 0.930 . S
C264 C265 1.367 . S
C264 C272 1.378 . S
C265 C264 1.367 . S
C265 C273 1.433 . S
C266 H262 0.929 . S
C266 C268 1.378 . S
C266 C270 1.350 . S
C267 C270 1.463 . S
C267 C272 1.350 . S
C267 N275 1.427 . S
C268 H259 0.930 . S
C268 C266 1.378 . S
C268 C269 1.367 . S
C269 C268 1.367 . S
C269 C271 1.433 . S
C270 C266 1.350 . S
C270 C267 1.463 . S
C270 N274 1.427 . S
C271 H261 0.929 . S
C271 C269 1.433 . S
C271 N274 1.384 . S
C272 H263 0.929 . S
C272 C264 1.378 . S
C272 C267 1.350 . S
C273 H260 0.929 . S
C273 C265 1.433 . S
C273 N275 1.384 . S
N274 C270 1.427 . S
N274 C271 1.384 . S
N275 C267 1.427 . S
N275 C273 1.384 . S
H276 C282 0.930 . S
H277 C286 0.930 . S
H278 C291 0.929 . S
H279 C289 0.929 . S
H280 C284 0.929 1_545 S
H281 C290 0.929 . S
C282 H276 0.930 . S
C282 C283 1.367 . S
C282 C290 1.378 . S
C283 C282 1.367 . S
C283 C291 1.433 . S
C284 H280 0.929 1_565 S
C284 C286 1.378 . S
C284 C288 1.350 . S
C285 C288 1.463 1_544 S
C285 C290 1.350 . S
C285 N293 1.427 . S
C286 H277 0.930 . S
C286 C284 1.378 . S
C286 C287 1.367 . S
C287 C286 1.367 . S
C287 C289 1.433 . S
C288 C284 1.350 . S
C288 C285 1.463 1_566 S
C288 N292 1.427 . S
C289 H279 0.929 . S
C289 C287 1.433 . S
C289 N292 1.384 . S
C290 H281 0.929 . S
C290 C282 1.378 . S
C290 C285 1.350 . S
C291 H278 0.929 . S
C291 C283 1.433 . S
C291 N293 1.384 . S
N292 C288 1.427 . S
N292 C289 1.384 . S
N293 C285 1.427 . S
N293 C291 1.384 . S
H294 C300 0.930 . S
H295 C304 0.930 . S
H296 C309 0.929 . S
H297 C307 0.929 . S
H298 C302 0.929 . S
H299 C308 0.929 . S
C300 H294 0.930 . S
C300 C301 1.367 . S
C300 C308 1.378 . S
C301 C300 1.367 . S
C301 C309 1.433 . S
C302 H298 0.929 . S
C302 C304 1.378 . S
C302 C306 1.350 . S
C303 C306 1.463 . S
C303 C308 1.350 . S
C303 N311 1.427 . S
C304 H295 0.930 . S
C304 C302 1.378 . S
C304 C305 1.367 . S
C305 C304 1.367 . S
C305 C307 1.433 . S
C306 C302 1.350 . S
C306 C303 1.463 . S
C306 N310 1.427 . S
C307 H297 0.929 . S
C307 C305 1.433 . S
C307 N310 1.384 . S
C308 H299 0.929 . S
C308 C300 1.378 . S
C308 C303 1.350 . S
C309 H296 0.929 . S
C309 C301 1.433 . S
C309 N311 1.384 . S
N310 C306 1.427 . S
N310 C307 1.384 . S
N311 C303 1.427 . S
N311 C309 1.384 . S
H312 C318 0.930 . S
H313 C322 0.930 . S
H314 C327 0.929 . S
H315 C325 0.929 . S
H316 C320 0.929 . S
H317 C326 0.971 . S
C318 H312 0.930 . S
C318 C319 1.367 . S
C318 C326 1.351 1_556 S
C319 C318 1.367 . S
C319 C327 1.433 . S
C320 H316 0.929 . S
C320 C322 1.378 1_556 S
C320 C324 1.350 1_556 S
C321 C324 1.463 1_456 S
C321 C326 1.335 1_556 S
C321 N329 1.427 . S
C322 H313 0.930 . S
C322 C320 1.378 1_554 S
C322 C323 1.367 . S
C323 C322 1.367 . S
C323 C325 1.433 . S
C324 C320 1.350 1_554 S
C324 C321 1.463 1_654 S
C324 N328 1.427 . S
C325 H315 0.929 . S
C325 C323 1.433 . S
C325 N328 1.384 . S
C326 H317 0.971 . S
C326 C318 1.351 1_554 S
C326 C321 1.335 1_554 S
C327 H314 0.929 . S
C327 C319 1.433 . S
C327 N329 1.384 . S
N328 C324 1.427 . S
N328 C325 1.384 . S
N329 C321 1.427 . S
N329 C327 1.384 . S
H330 C336 0.930 . S
H331 C340 0.930 . S
H332 C345 0.929 . S
H333 C343 0.929 . S
H334 C338 0.929 . S
H335 C344 0.929 . S
C336 H330 0.930 . S
C336 C337 1.367 . S
C336 C344 1.378 . S
C337 C336 1.367 . S
C337 C345 1.433 . S
C338 H334 0.929 . S
C338 C340 1.378 . S
C338 C342 1.350 . S
C339 C342 1.463 1_545 S
C339 C344 1.350 . S
C339 N347 1.428 . S
C340 H331 0.930 . S
C340 C338 1.378 . S
C340 C341 1.367 . S
C341 C340 1.367 . S
C341 C343 1.433 . S
C342 C338 1.350 . S
C342 C339 1.463 1_565 S
C342 N346 1.427 . S
C343 H333 0.929 . S
C343 C341 1.433 . S
C343 N346 1.384 . S
C344 H335 0.929 . S
C344 C336 1.378 . S
C344 C339 1.350 . S
C345 H332 0.929 . S
C345 C337 1.433 . S
C345 N347 1.384 . S
N346 C342 1.427 . S
N346 C343 1.384 . S
N347 C339 1.428 . S
N347 C345 1.384 . S
H348 C354 0.930 . S
H349 C358 0.930 . S
H350 C363 0.929 . S
H351 C361 0.929 . S
H352 C356 0.942 . S
H353 C362 0.942 . S
C354 H348 0.930 . S
C354 C355 1.367 . S
C354 C362 1.369 1_556 S
C355 C354 1.367 . S
C355 C363 1.433 . S
C356 H352 0.942 . S
C356 C358 1.369 1_556 S
C356 C360 1.345 1_556 S
C357 C360 1.463 1_556 S
C357 C362 1.345 1_556 S
C357 N365 1.427 . S
C358 H349 0.930 . S
C358 C356 1.369 1_554 S
C358 C359 1.367 . S
C359 C358 1.367 . S
C359 C361 1.433 . S
C360 C356 1.345 1_554 S
C360 C357 1.463 1_554 S
C360 N364 1.427 . S
C361 H351 0.929 . S
C361 C359 1.433 . S
C361 N364 1.384 . S
C362 H353 0.942 . S
C362 C354 1.369 1_554 S
C362 C357 1.345 1_554 S
C363 H350 0.929 . S
C363 C355 1.433 . S
C363 N365 1.384 . S
N364 C360 1.427 . S
N364 C361 1.384 . S
N365 C357 1.427 . S
N365 C363 1.384 . S
H366 C372 0.930 . S
H367 C376 0.930 . S
H368 C381 0.929 . S
H369 C379 0.929 . S
H370 C374 0.929 . S
H371 C380 0.929 . S
C372 H366 0.930 . S
C372 C373 1.367 . S
C372 C380 1.378 . S
C373 C372 1.367 . S
C373 C381 1.433 . S
C374 H370 0.929 . S
C374 C376 1.378 . S
C374 C378 1.350 . S
C375 C378 1.463 1_655 S
C375 C380 1.350 . S
C375 N383 1.427 . S
C376 H367 0.930 . S
C376 C374 1.378 . S
C376 C377 1.367 . S
C377 C376 1.367 . S
C377 C379 1.433 . S
C378 C374 1.350 . S
C378 C375 1.463 1_455 S
C378 N382 1.432 . S
C379 H369 0.929 . S
C379 C377 1.433 . S
C379 N382 1.389 . S
C380 H371 0.929 . S
C380 C372 1.378 . S
C380 C375 1.350 . S
C381 H368 0.929 . S
C381 C373 1.433 . S
C381 N383 1.384 . S
N382 C378 1.432 . S
N382 C379 1.389 . S
N383 C375 1.427 . S
N383 C381 1.384 . S
H384 C390 0.930 . S
H385 C394 0.930 . S
H386 C399 0.929 . S
H387 C397 0.929 . S
H388 C392 0.929 . S
H389 C398 0.929 . S
C390 H384 0.930 . S
C390 C391 1.367 . S
C390 C398 1.378 . S
C391 C390 1.367 . S
C391 C399 1.433 . S
C392 H388 0.929 . S
C392 C394 1.378 . S
C392 C396 1.350 . S
C393 C396 1.463 . S
C393 C398 1.350 . S
C393 N401 1.427 . S
C394 H385 0.930 . S
C394 C392 1.378 . S
C394 C395 1.367 . S
C395 C394 1.367 . S
C395 C397 1.433 . S
C396 C392 1.350 . S
C396 C393 1.463 . S
C396 N400 1.427 . S
C397 H387 0.929 . S
C397 C395 1.433 . S
C397 N400 1.384 . S
C398 H389 0.929 . S
C398 C390 1.378 . S
C398 C393 1.350 . S
C399 H386 0.929 . S
C399 C391 1.433 . S
C399 N401 1.384 . S
N400 C396 1.427 . S
N400 C397 1.384 . S
N401 C393 1.427 . S
N401 C399 1.384 . S
H402 C408 0.930 . S
H403 C412 0.930 . S
H404 C417 0.929 . S
H405 C415 0.929 . S
H406 C410 0.929 . S
H407 C416 0.929 . S
C408 H402 0.930 . S
C408 C409 1.367 . S
C408 C416 1.378 . S
C409 C408 1.367 . S
C409 C417 1.433 . S
C410 H406 0.929 . S
C410 C412 1.378 . S
C410 C414 1.350 . S
C411 C414 1.463 . S
C411 C416 1.350 . S
C411 N419 1.427 . S
C412 H403 0.930 . S
C412 C410 1.378 . S
C412 C413 1.367 . S
C413 C412 1.367 . S
C413 C415 1.433 . S
C414 C410 1.350 . S
C414 C411 1.463 . S
C414 N418 1.427 . S
C415 H405 0.929 . S
C415 C413 1.433 . S
C415 N418 1.384 . S
C416 H407 0.929 . S
C416 C408 1.378 . S
C416 C411 1.350 . S
C417 H404 0.929 . S
C417 C409 1.433 . S
C417 N419 1.384 . S
N418 C414 1.427 . S
N418 C415 1.384 . S
N419 C411 1.427 . S
N419 C417 1.384 . S
H420 C426 0.930 . S
H421 C430 0.930 . S
H422 C435 0.929 . S
H423 C433 0.929 . S
H424 C428 0.929 . S
H425 C434 0.929 . S
C426 H420 0.930 . S
C426 C427 1.367 . S
C426 C434 1.378 . S
C427 C426 1.367 . S
C427 C435 1.433 . S
C428 H424 0.929 . S
C428 C430 1.378 . S
C428 C432 1.350 . S
C429 C432 1.463 . S
C429 C434 1.350 . S
C429 N437 1.427 . S
C430 H421 0.930 . S
C430 C428 1.378 . S
C430 C431 1.367 . S
C431 C430 1.367 . S
C431 C433 1.433 . S
C432 C428 1.350 . S
C432 C429 1.463 . S
C432 N436 1.427 . S
C433 H423 0.929 . S
C433 C431 1.433 . S
C433 N436 1.384 . S
C434 H425 0.929 . S
C434 C426 1.378 . S
C434 C429 1.350 . S
C435 H422 0.929 . S
C435 C427 1.433 . S
C435 N437 1.384 . S
N436 C432 1.427 . S
N436 C433 1.384 . S
N437 C429 1.427 . S
N437 C435 1.384 . S
H438 C444 0.930 . S
H439 C448 0.930 . S
H440 C453 0.929 . S
H441 C451 0.929 . S
H442 C446 0.929 . S
H443 C452 0.929 . S
C444 H438 0.930 . S
C444 C445 1.367 . S
C444 C452 1.378 . S
C445 C444 1.367 . S
C445 C453 1.433 . S
C446 H442 0.929 . S
C446 C448 1.378 . S
C446 C450 1.350 . S
C447 C450 1.463 . S
C447 C452 1.350 . S
C447 N455 1.427 . S
C448 H439 0.930 . S
C448 C446 1.378 . S
C448 C449 1.367 . S
C449 C448 1.367 . S
C449 C451 1.433 . S
C450 C446 1.350 . S
C450 C447 1.463 . S
C450 N454 1.427 . S
C451 H441 0.929 . S
C451 C449 1.433 . S
C451 N454 1.384 . S
C452 H443 0.929 . S
C452 C444 1.378 . S
C452 C447 1.350 . S
C453 H440 0.929 . S
C453 C445 1.433 . S
C453 N455 1.384 . S
N454 C450 1.427 . S
N454 C451 1.384 . S
N455 C447 1.427 . S
N455 C453 1.384 . S
H456 C462 0.930 . S
H457 C466 0.930 . S
H458 C471 0.929 . S
H459 C469 0.929 . S
H460 C464 0.929 . S
H461 C470 0.929 . S
C462 H456 0.930 . S
C462 C463 1.367 . S
C462 C470 1.378 . S
C463 C462 1.367 . S
C463 C471 1.433 . S
C464 H460 0.929 . S
C464 C466 1.378 . S
C464 C468 1.350 . S
C465 C468 1.463 . S
C465 C470 1.350 . S
C465 N473 1.427 . S
C466 H457 0.930 . S
C466 C464 1.378 . S
C466 C467 1.367 . S
C467 C466 1.367 . S
C467 C469 1.433 . S
C468 C464 1.350 . S
C468 C465 1.463 . S
C468 N472 1.427 . S
C469 H459 0.929 . S
C469 C467 1.433 . S
C469 N472 1.384 . S
C470 H461 0.929 . S
C470 C462 1.378 . S
C470 C465 1.350 . S
C471 H458 0.929 . S
C471 C463 1.433 . S
C471 N473 1.384 . S
N472 C468 1.427 . S
N472 C469 1.384 . S
N473 C465 1.427 . S
N473 C471 1.384 . S
H474 C480 0.930 . S
H475 C484 0.930 . S
H476 C489 0.929 . S
H477 C487 0.929 . S
H478 C482 0.929 . S
H479 C488 0.929 . S
C480 H474 0.930 . S
C480 C481 1.367 . S
C480 C488 1.378 . S
C481 C480 1.367 . S
C481 C489 1.433 . S
C482 H478 0.929 . S
C482 C484 1.378 . S
C482 C486 1.350 . S
C483 C486 1.463 . S
C483 C488 1.350 . S
C483 N491 1.427 . S
C484 H475 0.930 . S
C484 C482 1.378 . S
C484 C485 1.367 . S
C485 C484 1.367 . S
C485 C487 1.433 . S
C486 C482 1.350 . S
C486 C483 1.463 . S
C486 N490 1.427 . S
C487 H477 0.929 . S
C487 C485 1.433 . S
C487 N490 1.384 . S
C488 H479 0.929 . S
C488 C480 1.378 . S
C488 C483 1.350 . S
C489 H476 0.929 . S
C489 C481 1.433 . S
C489 N491 1.384 . S
N490 C486 1.427 . S
N490 C487 1.384 . S
N491 C483 1.427 . S
N491 C489 1.384 . S
H492 C498 0.930 . S
H493 C502 0.930 . S
H494 C507 0.929 . S
H495 C505 0.929 . S
H496 C500 0.929 . S
H497 C506 0.929 . S
C498 H492 0.930 . S
C498 C499 1.367 . S
C498 C506 1.378 . S
C499 C498 1.367 . S
C499 C507 1.433 . S
C500 H496 0.929 . S
C500 C502 1.378 . S
C500 C504 1.350 . S
C501 C504 1.463 . S
C501 C506 1.350 . S
C501 N509 1.427 . S
C502 H493 0.930 . S
C502 C500 1.378 . S
C502 C503 1.367 . S
C503 C502 1.367 . S
C503 C505 1.433 . S
C504 C500 1.350 . S
C504 C501 1.463 . S
C504 N508 1.427 . S
C505 H495 0.929 . S
C505 C503 1.433 . S
C505 N508 1.384 . S
C506 H497 0.929 . S
C506 C498 1.378 . S
C506 C501 1.350 . S
C507 H494 0.929 . S
C507 C499 1.433 . S
C507 N509 1.384 . S
N508 C504 1.427 . S
N508 C505 1.384 . S
N509 C501 1.427 . S
N509 C507 1.384 . S
H510 C516 0.930 . S
H511 C520 0.930 . S
H512 C525 0.929 . S
H513 C523 0.929 . S
H514 C518 0.929 . S
H515 C524 0.929 . S
C516 H510 0.930 . S
C516 C517 1.367 . S
C516 C524 1.378 . S
C517 C516 1.367 . S
C517 C525 1.433 . S
C518 H514 0.929 . S
C518 C520 1.378 . S
C518 C522 1.350 . S
C519 C522 1.463 . S
C519 C524 1.350 . S
C519 N527 1.427 . S
C520 H511 0.930 . S
C520 C518 1.378 . S
C520 C521 1.367 . S
C521 C520 1.367 . S
C521 C523 1.433 . S
C522 C518 1.350 . S
C522 C519 1.463 . S
C522 N526 1.427 . S
C523 H513 0.929 . S
C523 C521 1.433 . S
C523 N526 1.384 . S
C524 H515 0.929 . S
C524 C516 1.378 . S
C524 C519 1.350 . S
C525 H512 0.929 . S
C525 C517 1.433 . S
C525 N527 1.384 . S
N526 C522 1.427 . S
N526 C523 1.384 . S
N527 C519 1.427 . S
N527 C525 1.384 . S
H528 C534 0.930 . S
H529 C538 0.930 . S
H530 C543 0.929 . S
H531 C541 0.929 . S
H532 C536 0.929 . S
H533 C542 0.929 . S
C534 H528 0.930 . S
C534 C535 1.367 . S
C534 C542 1.378 . S
C535 C534 1.367 . S
C535 C543 1.433 . S
C536 H532 0.929 . S
C536 C538 1.378 . S
C536 C540 1.350 . S
C537 C540 1.463 . S
C537 C542 1.350 . S
C537 N545 1.427 . S
C538 H529 0.930 . S
C538 C536 1.378 . S
C538 C539 1.367 . S
C539 C538 1.367 . S
C539 C541 1.433 . S
C540 C536 1.350 . S
C540 C537 1.463 . S
C540 N544 1.427 . S
C541 H531 0.929 . S
C541 C539 1.433 . S
C541 N544 1.384 . S
C542 H533 0.929 . S
C542 C534 1.378 . S
C542 C537 1.350 . S
C543 H530 0.929 . S
C543 C535 1.433 . S
C543 N545 1.384 . S
N544 C540 1.427 . S
N544 C541 1.384 . S
N545 C537 1.427 . S
N545 C543 1.384 . S
H546 C552 0.930 . S
H547 C556 0.930 . S
H548 C561 0.929 . S
H549 C559 0.929 . S
H550 C554 0.929 . S
H551 C560 0.929 . S
C552 H546 0.930 . S
C552 C553 1.367 . S
C552 C560 1.378 . S
C553 C552 1.367 . S
C553 C561 1.433 . S
C554 H550 0.929 . S
C554 C556 1.378 . S
C554 C558 1.350 . S
C555 C558 1.463 . S
C555 C560 1.350 . S
C555 N563 1.427 . S
C556 H547 0.930 . S
C556 C554 1.378 . S
C556 C557 1.367 . S
C557 C556 1.367 . S
C557 C559 1.433 . S
C558 C554 1.350 . S
C558 C555 1.463 . S
C558 N562 1.427 . S
C559 H549 0.929 . S
C559 C557 1.433 . S
C559 N562 1.384 . S
C560 H551 0.929 . S
C560 C552 1.378 . S
C560 C555 1.350 . S
C561 H548 0.929 . S
C561 C553 1.433 . S
C561 N563 1.384 . S
N562 C558 1.427 . S
N562 C559 1.384 . S
N563 C555 1.427 . S
N563 C561 1.384 . S
H564 C570 0.930 . S
H565 C574 0.930 . S
H566 C579 0.929 . S
H567 C577 0.929 . S
H568 C572 0.929 . S
H569 C578 0.929 . S
C570 H564 0.930 . S
C570 C571 1.367 . S
C570 C578 1.378 . S
C571 C570 1.367 . S
C571 C579 1.433 . S
C572 H568 0.929 . S
C572 C574 1.378 . S
C572 C576 1.350 . S
C573 C576 1.463 . S
C573 C578 1.350 . S
C573 N581 1.427 . S
C574 H565 0.930 . S
C574 C572 1.378 . S
C574 C575 1.367 . S
C575 C574 1.367 . S
C575 C577 1.433 . S
C576 C572 1.350 . S
C576 C573 1.463 . S
C576 N580 1.427 . S
C577 H567 0.929 . S
C577 C575 1.433 . S
C577 N580 1.384 . S
C578 H569 0.929 . S
C578 C570 1.378 . S
C578 C573 1.350 . S
C579 H566 0.929 . S
C579 C571 1.433 . S
C579 N581 1.384 . S
N580 C576 1.427 . S
N580 C577 1.384 . S
N581 C573 1.427 . S
N581 C579 1.384 . S
H582 C588 0.930 . S
H583 C592 0.930 . S
H584 C597 0.929 . S
H585 C595 0.929 . S
H586 C590 0.929 . S
H587 C596 0.929 . S
C588 H582 0.930 . S
C588 C589 1.367 . S
C588 C596 1.378 . S
C589 C588 1.367 . S
C589 C597 1.433 . S
C590 H586 0.929 . S
C590 C592 1.378 . S
C590 C594 1.350 . S
C591 C594 1.463 . S
C591 C596 1.350 . S
C591 N599 1.427 . S
C592 H583 0.930 . S
C592 C590 1.378 . S
C592 C593 1.367 . S
C593 C592 1.367 . S
C593 C595 1.433 . S
C594 C590 1.350 . S
C594 C591 1.463 . S
C594 N598 1.427 . S
C595 H585 0.929 . S
C595 C593 1.433 . S
C595 N598 1.384 . S
C596 H587 0.929 . S
C596 C588 1.378 . S
C596 C591 1.350 . S
C597 H584 0.929 . S
C597 C589 1.433 . S
C597 N599 1.384 . S
N598 C594 1.427 . S
N598 C595 1.384 . S
N599 C591 1.427 . S
N599 C597 1.384 . S
C175 C147 1.491 . S
C179 C7 1.480 . S
C193 C21 1.373 . S
C197 C160 1.389 . S
C211 C34 1.505 . S
C215 C91 1.472 . S
C229 C105 1.510 . S
C233 C49 1.479 . S
C247 C118 1.373 . S
C251 C63 1.370 . S
C265 C76 1.506 . S
C269 C133 1.489 . S
C283 C6 1.008 . S
C287 C104 0.988 . S
C301 C20 0.892 . S
C305 C119 0.880 . S
C319 C132 1.003 . S
C323 C35 0.978 . S
C337 C146 0.965 . S
C341 C48 1.006 . S
C355 C161 0.887 . S
C359 C62 0.881 . S
C373 C90 1.006 . S
C377 C77 0.966 . S
C391 C8 1.166 . S
C395 C65 1.165 . S
C409 C22 1.270 . S
C413 C78 1.318 . S
C427 C37 1.151 . S
C431 C9 1.166 . S
C445 C50 1.163 . S
C449 C23 1.164 . S
C463 C64 1.272 . S
C467 C36 1.316 . S
C481 C79 1.144 . S
C485 C51 1.171 . S
C499 C92 1.163 . S
C503 C120 1.164 . S
C517 C106 1.148 . S
C521 C135 1.168 . S
C535 C149 1.314 . S
C539 C121 1.284 . S
C553 C134 1.167 . S
C557 C162 1.163 . S
C571 C148 1.135 . S
C575 C93 1.176 . S
C589 C163 1.270 . S
C593 C107 1.317 . S
