# Generated by pormake.
# Topology afi, (4)-cn, num edge types: 1
# Building blocks:
#     Node 0, Type 0, BuildingBlock: CEKHIL_clean_sbu_0, # of connection points: 4
#     Node 1, Type 0, BuildingBlock: CEKHIL_clean_sbu_0, # of connection points: 4
#     Node 2, Type 0, BuildingBlock: CEKHIL_clean_sbu_0, # of connection points: 4
#     Node 3, Type 0, BuildingBlock: CEKHIL_clean_sbu_0, # of connection points: 4
#     Node 4, Type 0, BuildingBlock: CEKHIL_clean_sbu_0, # of connection points: 4
#     Node 5, Type 0, BuildingBlock: CEKHIL_clean_sbu_0, # of connection points: 4
#     Node 6, Type 0, BuildingBlock: CEKHIL_clean_sbu_0, # of connection points: 4
#     Node 7, Type 0, BuildingBlock: CEKHIL_clean_sbu_0, # of connection points: 4
#     Node 8, Type 0, BuildingBlock: CEKHIL_clean_sbu_0, # of connection points: 4
#     Node 9, Type 0, BuildingBlock: CEKHIL_clean_sbu_0, # of connection points: 4
#     Node 10, Type 0, BuildingBlock: CEKHIL_clean_sbu_0, # of connection points: 4
#     Node 11, Type 0, BuildingBlock: CEKHIL_clean_sbu_0, # of connection points: 4
#     Node 12, Type 0, BuildingBlock: CEKHIL_clean_sbu_0, # of connection points: 4
#     Node 13, Type 0, BuildingBlock: CEKHIL_clean_sbu_0, # of connection points: 4
#     Node 14, Type 0, BuildingBlock: CEKHIL_clean_sbu_0, # of connection points: 4
#     Node 15, Type 0, BuildingBlock: CEKHIL_clean_sbu_0, # of connection points: 4
#     Node 16, Type 0, BuildingBlock: CEKHIL_clean_sbu_0, # of connection points: 4
#     Node 17, Type 0, BuildingBlock: CEKHIL_clean_sbu_0, # of connection points: 4
#     Node 18, Type 0, BuildingBlock: CEKHIL_clean_sbu_0, # of connection points: 4
#     Node 19, Type 0, BuildingBlock: CEKHIL_clean_sbu_0, # of connection points: 4
#     Node 20, Type 0, BuildingBlock: CEKHIL_clean_sbu_0, # of connection points: 4
#     Node 21, Type 0, BuildingBlock: CEKHIL_clean_sbu_0, # of connection points: 4
#     Node 22, Type 0, BuildingBlock: CEKHIL_clean_sbu_0, # of connection points: 4
#     Node 23, Type 0, BuildingBlock: CEKHIL_clean_sbu_0, # of connection points: 4
#     Edge 24, Type (0, 0), BuildingBlock: TEMPAE_clean_linker_10, # of connection points: 2
#     Edge 25, Type (0, 0), BuildingBlock: TEMPAE_clean_linker_10, # of connection points: 2
#     Edge 26, Type (0, 0), BuildingBlock: TEMPAE_clean_linker_10, # of connection points: 2
#     Edge 27, Type (0, 0), BuildingBlock: TEMPAE_clean_linker_10, # of connection points: 2
#     Edge 28, Type (0, 0), BuildingBlock: TEMPAE_clean_linker_10, # of connection points: 2
#     Edge 29, Type (0, 0), BuildingBlock: TEMPAE_clean_linker_10, # of connection points: 2
#     Edge 30, Type (0, 0), BuildingBlock: TEMPAE_clean_linker_10, # of connection points: 2
#     Edge 31, Type (0, 0), BuildingBlock: TEMPAE_clean_linker_10, # of connection points: 2
#     Edge 32, Type (0, 0), BuildingBlock: TEMPAE_clean_linker_10, # of connection points: 2
#     Edge 33, Type (0, 0), BuildingBlock: TEMPAE_clean_linker_10, # of connection points: 2
#     Edge 34, Type (0, 0), BuildingBlock: TEMPAE_clean_linker_10, # of connection points: 2
#     Edge 35, Type (0, 0), BuildingBlock: TEMPAE_clean_linker_10, # of connection points: 2
#     Edge 36, Type (0, 0), BuildingBlock: TEMPAE_clean_linker_10, # of connection points: 2
#     Edge 37, Type (0, 0), BuildingBlock: TEMPAE_clean_linker_10, # of connection points: 2
#     Edge 38, Type (0, 0), BuildingBlock: TEMPAE_clean_linker_10, # of connection points: 2
#     Edge 39, Type (0, 0), BuildingBlock: TEMPAE_clean_linker_10, # of connection points: 2
#     Edge 40, Type (0, 0), BuildingBlock: TEMPAE_clean_linker_10, # of connection points: 2
#     Edge 41, Type (0, 0), BuildingBlock: TEMPAE_clean_linker_10, # of connection points: 2
#     Edge 42, Type (0, 0), BuildingBlock: TEMPAE_clean_linker_10, # of connection points: 2
#     Edge 43, Type (0, 0), BuildingBlock: TEMPAE_clean_linker_10, # of connection points: 2
#     Edge 44, Type (0, 0), BuildingBlock: TEMPAE_clean_linker_10, # of connection points: 2
#     Edge 45, Type (0, 0), BuildingBlock: TEMPAE_clean_linker_10, # of connection points: 2
#     Edge 46, Type (0, 0), BuildingBlock: TEMPAE_clean_linker_10, # of connection points: 2
#     Edge 47, Type (0, 0), BuildingBlock: TEMPAE_clean_linker_10, # of connection points: 2
#     Edge 48, Type (0, 0), BuildingBlock: TEMPAE_clean_linker_10, # of connection points: 2
#     Edge 49, Type (0, 0), BuildingBlock: TEMPAE_clean_linker_10, # of connection points: 2
#     Edge 50, Type (0, 0), BuildingBlock: TEMPAE_clean_linker_10, # of connection points: 2
#     Edge 51, Type (0, 0), BuildingBlock: TEMPAE_clean_linker_10, # of connection points: 2
#     Edge 52, Type (0, 0), BuildingBlock: TEMPAE_clean_linker_10, # of connection points: 2
#     Edge 53, Type (0, 0), BuildingBlock: TEMPAE_clean_linker_10, # of connection points: 2
#     Edge 54, Type (0, 0), BuildingBlock: TEMPAE_clean_linker_10, # of connection points: 2
#     Edge 55, Type (0, 0), BuildingBlock: TEMPAE_clean_linker_10, # of connection points: 2
#     Edge 56, Type (0, 0), BuildingBlock: TEMPAE_clean_linker_10, # of connection points: 2
#     Edge 57, Type (0, 0), BuildingBlock: TEMPAE_clean_linker_10, # of connection points: 2
#     Edge 58, Type (0, 0), BuildingBlock: TEMPAE_clean_linker_10, # of connection points: 2
#     Edge 59, Type (0, 0), BuildingBlock: TEMPAE_clean_linker_10, # of connection points: 2
#     Edge 60, Type (0, 0), BuildingBlock: TEMPAE_clean_linker_10, # of connection points: 2
#     Edge 61, Type (0, 0), BuildingBlock: TEMPAE_clean_linker_10, # of connection points: 2
#     Edge 62, Type (0, 0), BuildingBlock: TEMPAE_clean_linker_10, # of connection points: 2
#     Edge 63, Type (0, 0), BuildingBlock: TEMPAE_clean_linker_10, # of connection points: 2
#     Edge 64, Type (0, 0), BuildingBlock: TEMPAE_clean_linker_10, # of connection points: 2
#     Edge 65, Type (0, 0), BuildingBlock: TEMPAE_clean_linker_10, # of connection points: 2
#     Edge 66, Type (0, 0), BuildingBlock: TEMPAE_clean_linker_10, # of connection points: 2
#     Edge 67, Type (0, 0), BuildingBlock: TEMPAE_clean_linker_10, # of connection points: 2
#     Edge 68, Type (0, 0), BuildingBlock: TEMPAE_clean_linker_10, # of connection points: 2
#     Edge 69, Type (0, 0), BuildingBlock: TEMPAE_clean_linker_10, # of connection points: 2
#     Edge 70, Type (0, 0), BuildingBlock: TEMPAE_clean_linker_10, # of connection points: 2
#     Edge 71, Type (0, 0), BuildingBlock: TEMPAE_clean_linker_10, # of connection points: 2
# Relax obj value: 0.100
# Max RMSD: 0.107
# Mean RMSD: 0.107
data_MOF--net-afi--node1-CEKHIL_clean_sbu_0--edge1-TEMPAE_clean_linker_10
_symmetry_space_group_name_H-M    P1
_symmetry_Int_Tables_number       1
_symmetry_cell_setting            triclinic
loop_
_symmetry_equiv_pos_as_xyz
'x, y, z'
_cell_length_a     68.24831
_cell_length_b     68.282306
_cell_length_c     39.4265
_cell_angle_alpha  89.99199
_cell_angle_beta   89.998773
_cell_angle_gamma 120.02465
loop_
_atom_site_label
_atom_site_type_symbol
_atom_site_fract_x
_atom_site_fract_y
_atom_site_fract_z
_atom_type_partial_charge
Co0 Co 0.46944 0.1335 0.19351 0.0
O1 O 0.48143 0.16581 0.1887 0.0
O2 O 0.44848 0.14217 0.21194 0.0
C3 C 0.50184 0.13619 0.21394 0.0
O4 O 0.45147 0.0995 0.20499 0.0
Co5 Co 0.48906 0.10709 0.15548 0.0
O6 O 0.47122 0.08282 0.18851 0.0
C7 C 0.45978 0.12091 0.11885 0.0
C8 C 0.46331 0.16288 0.20403 0.0
C9 C 0.45485 0.08251 0.20441 0.0
O10 O 0.45531 0.12814 0.14643 0.0
O11 O 0.47365 0.11345 0.11752 0.0
O12 O 0.48831 0.13896 0.23402 0.0
O13 O 0.49621 0.13346 0.18236 0.0
Co14 Co 0.34259 0.47111 0.19723 0.0
O15 O 0.32235 0.4833 0.19626 0.0
O16 O 0.3129 0.44922 0.21489 0.0
C17 C 0.37253 0.50223 0.22 0.0
O18 O 0.35904 0.4529 0.20404 0.0
Co19 Co 0.38774 0.49354 0.15612 0.0
O20 O 0.3941 0.47256 0.18201 0.0
C21 C 0.3437 0.46904 0.12071 0.0
C22 C 0.30705 0.46442 0.20968 0.0
C23 C 0.37912 0.45589 0.19899 0.0
O24 O 0.33344 0.45972 0.14875 0.0
O25 O 0.36458 0.48444 0.11949 0.0
O26 O 0.35635 0.48783 0.23948 0.0
O27 O 0.36918 0.49835 0.18799 0.0
Co28 Co 0.87801 0.33733 0.19959 0.0
O29 O 0.84547 0.31766 0.19946 0.0
O30 O 0.86973 0.30787 0.21867 0.0
C31 C 0.87779 0.36811 0.22063 0.0
O32 O 0.91271 0.35324 0.20578 0.0
Co33 Co 0.90123 0.38141 0.15605 0.0
O34 O 0.9291 0.38721 0.17991 0.0
C35 C 0.87919 0.33649 0.12343 0.0
C36 C 0.84875 0.30237 0.21358 0.0
C37 C 0.93029 0.37252 0.19839 0.0
O38 O 0.87945 0.32699 0.15163 0.0
O39 O 0.88474 0.35734 0.12131 0.0
O40 O 0.87581 0.35225 0.24103 0.0
O41 O 0.87797 0.364 0.18884 0.0
Co42 Co 0.54515 0.87619 0.19332 0.0
O43 O 0.53426 0.84405 0.19139 0.0
O44 O 0.56739 0.86929 0.21232 0.0
C45 C 0.51269 0.8727 0.2144 0.0
O46 O 0.56189 0.9107 0.20129 0.0
Co47 Co 0.52194 0.898 0.15221 0.0
O48 O 0.541 0.92493 0.18016 0.0
C49 C 0.55287 0.88565 0.11752 0.0
C50 C 0.55292 0.84813 0.20611 0.0
C51 C 0.55799 0.92722 0.1969 0.0
O52 O 0.55835 0.88009 0.1458 0.0
O53 O 0.53789 0.89163 0.11516 0.0
O54 O 0.52732 0.87196 0.2346 0.0
O55 O 0.51722 0.87391 0.18253 0.0
Co56 Co 0.67283 0.543 0.18881 0.0
O57 O 0.69339 0.53125 0.18575 0.0
O58 O 0.70179 0.56369 0.20981 0.0
C59 C 0.64248 0.51025 0.20679 0.0
O60 O 0.65587 0.56038 0.19866 0.0
Co61 Co 0.62875 0.52329 0.14542 0.0
O62 O 0.62087 0.54093 0.17651 0.0
C63 C 0.67317 0.5541 0.11377 0.0
C64 C 0.70803 0.54906 0.20224 0.0
C65 C 0.63557 0.55699 0.19469 0.0
O66 O 0.6835 0.55807 0.14258 0.0
O67 O 0.65207 0.53999 0.10991 0.0
O68 O 0.65797 0.52344 0.22819 0.0
O69 O 0.64668 0.51629 0.17545 0.0
Co70 Co 0.13386 0.6703 0.19734 0.0
O71 O 0.16648 0.68954 0.19656 0.0
O72 O 0.14274 0.70008 0.21557 0.0
C73 C 0.13365 0.63951 0.21927 0.0
O74 O 0.09928 0.65502 0.2042 0.0
Co75 Co 0.10953 0.62566 0.15525 0.0
O76 O 0.08184 0.62099 0.17843 0.0
C77 C 0.13185 0.6701 0.12109 0.0
C78 C 0.16359 0.70518 0.21034 0.0
C79 C 0.08132 0.63605 0.19686 0.0
O80 O 0.13223 0.68013 0.14907 0.0
O81 O 0.12585 0.64911 0.11963 0.0
O82 O 0.1361 0.65577 0.23917 0.0
O83 O 0.13327 0.6432 0.18735 0.0
Co84 Co 0.87562 0.54108 0.30512 0.0
O85 O 0.84312 0.52867 0.30539 0.0
O86 O 0.86769 0.56226 0.28506 0.0
C87 C 0.87483 0.5095 0.28532 0.0
O88 O 0.9103 0.55928 0.29847 0.0
Co89 Co 0.89848 0.5203 0.34963 0.0
O90 O 0.92563 0.5401 0.32235 0.0
C91 C 0.87765 0.54466 0.3813 0.0
C92 C 0.84664 0.5471 0.2905 0.0
C93 C 0.9273 0.55625 0.30404 0.0
O94 O 0.87751 0.55374 0.35262 0.0
O95 O 0.88306 0.5293 0.3842 0.0
O96 O 0.87298 0.52319 0.26436 0.0
O97 O 0.87517 0.51432 0.31693 0.0
Co98 Co 0.34024 0.87446 0.30479 0.0
O99 O 0.31958 0.84219 0.30858 0.0
O100 O 0.31092 0.86629 0.28534 0.0
C101 C 0.36985 0.87125 0.28534 0.0
O102 O 0.35693 0.90863 0.29449 0.0
Co103 Co 0.38587 0.8998 0.34388 0.0
O104 O 0.39352 0.92335 0.30892 0.0
C105 C 0.34245 0.88685 0.37932 0.0
C106 C 0.3047 0.84544 0.29295 0.0
C107 C 0.37777 0.92473 0.29384 0.0
O108 O 0.3309 0.87937 0.35165 0.0
O109 O 0.36379 0.89436 0.3811 0.0
O110 O 0.35425 0.86947 0.26456 0.0
O111 O 0.36645 0.87365 0.31681 0.0
Co112 Co 0.46902 0.33844 0.3001 0.0
O113 O 0.48202 0.31892 0.30054 0.0
O114 O 0.44765 0.30865 0.28227 0.0
C115 C 0.49959 0.36886 0.27732 0.0
O116 O 0.45007 0.35414 0.2939 0.0
Co117 Co 0.49064 0.38326 0.34193 0.0
O118 O 0.46764 0.38826 0.31941 0.0
C119 C 0.46753 0.33899 0.37658 0.0
C120 C 0.4633 0.30337 0.28709 0.0
C121 C 0.45161 0.37332 0.30142 0.0
O122 O 0.45789 0.32892 0.3486 0.0
O123 O 0.48284 0.35988 0.3779 0.0
O124 O 0.48538 0.35258 0.25782 0.0
O125 O 0.49593 0.36538 0.30935 0.0
Co126 Co 0.136 0.4673 0.30774 0.0
O127 O 0.16853 0.48014 0.30824 0.0
O128 O 0.14441 0.44637 0.28798 0.0
C129 C 0.13634 0.49857 0.28749 0.0
O130 O 0.10131 0.44874 0.30112 0.0
Co131 Co 0.11292 0.48792 0.35212 0.0
O132 O 0.08559 0.4673 0.32583 0.0
C133 C 0.13412 0.46399 0.38397 0.0
C134 C 0.16536 0.46178 0.29355 0.0
C135 C 0.08407 0.45126 0.30741 0.0
O136 O 0.13423 0.45484 0.35535 0.0
O137 O 0.12863 0.47931 0.38675 0.0
O138 O 0.13842 0.48492 0.26676 0.0
O139 O 0.1361 0.49394 0.31917 0.0
Co140 Co 0.67284 0.13286 0.309 0.0
O141 O 0.69355 0.16511 0.31262 0.0
O142 O 0.70221 0.14091 0.28981 0.0
C143 C 0.64319 0.13569 0.28886 0.0
O144 O 0.65588 0.09853 0.2991 0.0
Co145 Co 0.62769 0.109 0.35032 0.0
O146 O 0.62122 0.08231 0.32281 0.0
C147 C 0.67132 0.12216 0.38438 0.0
C148 C 0.70845 0.1618 0.29725 0.0
C149 C 0.63606 0.08119 0.30465 0.0
O150 O 0.68225 0.12814 0.35601 0.0
O151 O 0.65028 0.11579 0.38708 0.0
O152 O 0.65913 0.13792 0.26847 0.0
O153 O 0.64653 0.13369 0.32049 0.0
Co154 Co 0.54814 0.67436 0.30798 0.0
O155 O 0.53644 0.69499 0.31033 0.0
O156 O 0.56902 0.70318 0.28687 0.0
C157 C 0.51541 0.64394 0.29005 0.0
O158 O 0.56557 0.65737 0.29895 0.0
Co159 Co 0.52813 0.63058 0.35224 0.0
O160 O 0.54785 0.62339 0.32476 0.0
C161 C 0.55863 0.67522 0.3833 0.0
C162 C 0.55443 0.70954 0.29405 0.0
C163 C 0.56338 0.63781 0.30556 0.0
O164 O 0.56301 0.68527 0.35424 0.0
O165 O 0.54431 0.65422 0.38752 0.0
O166 O 0.5287 0.6593 0.26856 0.0
O167 O 0.52132 0.6483 0.32141 0.0
Co168 Co 0.54454 0.87382 0.80384 0.0
O169 O 0.53206 0.84138 0.80449 0.0
O170 O 0.56584 0.86578 0.78444 0.0
C171 C 0.51314 0.8731 0.78332 0.0
O172 O 0.5628 0.9085 0.79732 0.0
Co173 Co 0.52329 0.89633 0.84817 0.0
O174 O 0.54448 0.9241 0.82321 0.0
C175 C 0.5474 0.87536 0.87997 0.0
C176 C 0.55063 0.84478 0.79017 0.0
C177 C 0.56048 0.92573 0.80452 0.0
O178 O 0.55692 0.87575 0.85148 0.0
O179 O 0.53176 0.88039 0.88265 0.0
O180 O 0.52696 0.87118 0.76271 0.0
O181 O 0.51769 0.87338 0.81503 0.0
Co182 Co 0.67264 0.53988 0.79992 0.0
O183 O 0.69289 0.52772 0.8009 0.0
O184 O 0.70239 0.56183 0.78242 0.0
C185 C 0.64276 0.50882 0.77702 0.0
O186 O 0.65603 0.55796 0.79325 0.0
Co187 Co 0.6276 0.5171 0.84142 0.0
O188 O 0.6215 0.53886 0.81728 0.0
C189 C 0.67171 0.54143 0.8764 0.0
C190 C 0.70824 0.54663 0.78766 0.0
C191 C 0.63625 0.55534 0.79972 0.0
O192 O 0.68173 0.55119 0.84844 0.0
O193 O 0.65097 0.52571 0.87764 0.0
O194 O 0.65895 0.52324 0.75759 0.0
O195 O 0.64611 0.5126 0.80904 0.0
Co196 Co 0.13584 0.67157 0.80745 0.0
O197 O 0.16819 0.69211 0.81016 0.0
O198 O 0.14397 0.70067 0.78716 0.0
C199 C 0.13811 0.64137 0.78837 0.0
O200 O 0.1014 0.65468 0.79834 0.0
Co201 Co 0.11213 0.62729 0.8507 0.0
O202 O 0.08517 0.62049 0.82358 0.0
C203 C 0.1258 0.67152 0.8829 0.0
C204 C 0.16489 0.70687 0.79431 0.0
C205 C 0.08401 0.63506 0.80481 0.0
O206 O 0.13172 0.68192 0.85411 0.0
O207 O 0.11917 0.65049 0.88656 0.0
O208 O 0.14028 0.65703 0.76743 0.0
O209 O 0.13654 0.64533 0.8199 0.0
Co210 Co 0.46758 0.13276 0.80374 0.0
O211 O 0.48031 0.16529 0.80378 0.0
O212 O 0.44649 0.14092 0.78394 0.0
C213 C 0.49884 0.13307 0.7835 0.0
O214 O 0.44902 0.09808 0.79747 0.0
Co215 Co 0.48827 0.10981 0.84828 0.0
O216 O 0.46669 0.08197 0.82384 0.0
C217 C 0.46463 0.13133 0.87996 0.0
C218 C 0.46184 0.16192 0.78916 0.0
C219 C 0.4509 0.08063 0.80496 0.0
O220 O 0.45526 0.13118 0.85142 0.0
O221 O 0.48005 0.12597 0.88268 0.0
O222 O 0.48513 0.13504 0.76274 0.0
O223 O 0.49428 0.13293 0.81518 0.0
Co224 Co 0.33766 0.46305 0.8082 0.0
O225 O 0.31756 0.4754 0.80913 0.0
O226 O 0.30882 0.44246 0.78661 0.0
C227 C 0.36856 0.49541 0.79037 0.0
O228 O 0.35418 0.44503 0.80063 0.0
Co229 Co 0.38093 0.48279 0.85317 0.0
O230 O 0.38815 0.46276 0.82648 0.0
C231 C 0.33591 0.45298 0.8838 0.0
C232 C 0.30284 0.45743 0.79308 0.0
C233 C 0.37367 0.44711 0.80749 0.0
O234 O 0.32603 0.44869 0.8546 0.0
O235 O 0.35699 0.46696 0.8882 0.0
O236 O 0.35362 0.48184 0.76862 0.0
O237 O 0.36369 0.48987 0.82175 0.0
Co238 Co 0.87696 0.33656 0.80906 0.0
O239 O 0.84462 0.31605 0.81122 0.0
O240 O 0.8691 0.30709 0.79039 0.0
C241 C 0.87471 0.36617 0.78763 0.0
O242 O 0.91149 0.35338 0.80097 0.0
Co243 Co 0.89993 0.38163 0.85029 0.0
O244 O 0.92736 0.38798 0.82478 0.0
C245 C 0.88632 0.3381 0.88496 0.0
C246 C 0.84809 0.30101 0.79672 0.0
C247 C 0.92878 0.3731 0.80715 0.0
O248 O 0.88057 0.32711 0.85665 0.0
O249 O 0.89281 0.35918 0.8874 0.0
O250 O 0.87314 0.35034 0.76766 0.0
O251 O 0.8758 0.36287 0.81954 0.0
Co252 Co 0.13476 0.46647 0.69677 0.0
O253 O 0.16698 0.47765 0.69338 0.0
O254 O 0.14243 0.4449 0.71616 0.0
C255 C 0.13792 0.49916 0.71673 0.0
O256 O 0.10037 0.4495 0.70647 0.0
Co257 Co 0.11148 0.48812 0.65511 0.0
O258 O 0.08539 0.46961 0.68485 0.0
C259 C 0.12404 0.45715 0.62134 0.0
C260 C 0.1634 0.45935 0.70878 0.0
C261 C 0.08362 0.45313 0.70238 0.0
O262 O 0.13001 0.45226 0.64978 0.0
O263 O 0.1178 0.4719 0.61849 0.0
O264 O 0.1399 0.48534 0.73722 0.0
O265 O 0.13602 0.49377 0.68511 0.0
Co266 Co 0.67239 0.1321 0.69818 0.0
O267 O 0.69231 0.16459 0.69826 0.0
O268 O 0.70167 0.14007 0.71771 0.0
C269 C 0.64155 0.13251 0.71876 0.0
O270 O 0.65612 0.09739 0.70411 0.0
Co271 Co 0.62863 0.1095 0.65385 0.0
O272 O 0.62212 0.08164 0.67844 0.0
C273 C 0.67379 0.13096 0.62198 0.0
C274 C 0.70742 0.1611 0.71257 0.0
C275 C 0.6366 0.08007 0.69691 0.0
O276 O 0.68302 0.13064 0.65043 0.0
O277 O 0.65302 0.12565 0.6194 0.0
O278 O 0.65724 0.13432 0.73939 0.0
O279 O 0.64592 0.13246 0.68704 0.0
Co280 Co 0.54152 0.66747 0.69668 0.0
O281 O 0.52954 0.68781 0.69737 0.0
O282 O 0.5639 0.69704 0.71434 0.0
C283 C 0.51053 0.63781 0.71996 0.0
O284 O 0.55953 0.65072 0.70146 0.0
Co285 Co 0.51797 0.62275 0.6554 0.0
O286 O 0.53915 0.61576 0.67953 0.0
C287 C 0.54259 0.66682 0.62006 0.0
C288 C 0.54871 0.70302 0.71005 0.0
C289 C 0.5563 0.63065 0.6958 0.0
O290 O 0.55212 0.67694 0.64804 0.0
O291 O 0.52707 0.64599 0.61882 0.0
O292 O 0.52576 0.65336 0.73934 0.0
O293 O 0.51368 0.64137 0.68787 0.0
Co294 Co 0.87831 0.54084 0.69401 0.0
O295 O 0.84608 0.52956 0.69133 0.0
O296 O 0.87072 0.56238 0.7138 0.0
C297 C 0.87519 0.50808 0.71375 0.0
O298 O 0.91277 0.55785 0.70287 0.0
Co299 Co 0.90118 0.51898 0.65206 0.0
O300 O 0.92737 0.53726 0.68183 0.0
C301 C 0.88845 0.54998 0.61851 0.0
C302 C 0.84971 0.54787 0.7067 0.0
C303 C 0.92938 0.55399 0.69895 0.0
O304 O 0.88256 0.55488 0.647 0.0
O305 O 0.89476 0.53527 0.61562 0.0
O306 O 0.87381 0.52214 0.73447 0.0
O307 O 0.87672 0.51344 0.68216 0.0
Co308 Co 0.34076 0.87521 0.69449 0.0
O309 O 0.32069 0.84273 0.69395 0.0
O310 O 0.31133 0.86723 0.71345 0.0
C311 C 0.37122 0.87434 0.71565 0.0
O312 O 0.35714 0.90988 0.70113 0.0
Co313 Co 0.38508 0.89807 0.65142 0.0
O314 O 0.39167 0.92555 0.67718 0.0
C315 C 0.34033 0.87728 0.61821 0.0
C316 C 0.30554 0.8462 0.70817 0.0
C317 C 0.37696 0.9271 0.69512 0.0
O318 O 0.33071 0.87716 0.6465 0.0
O319 O 0.36114 0.88263 0.61614 0.0
O320 O 0.35537 0.8725 0.73595 0.0
O321 O 0.36725 0.87475 0.68385 0.0
Co322 Co 0.46728 0.33665 0.68914 0.0
O323 O 0.47876 0.31589 0.68548 0.0
O324 O 0.44654 0.30772 0.71015 0.0
C325 C 0.50034 0.36676 0.70676 0.0
O326 O 0.45019 0.35384 0.69973 0.0
Co327 Co 0.48696 0.38083 0.64607 0.0
O328 O 0.46983 0.3889 0.67791 0.0
C329 C 0.45584 0.33657 0.61432 0.0
C330 C 0.46099 0.30132 0.70216 0.0
C331 C 0.45381 0.37424 0.69619 0.0
O332 O 0.4519 0.32618 0.64307 0.0
O333 O 0.47004 0.35765 0.6105 0.0
O334 O 0.4872 0.35131 0.72825 0.0
O335 O 0.49403 0.36268 0.67552 0.0
C336 C 0.41919 0.04531 0.20315 0.0
C337 C 0.4386 0.06097 0.22073 0.0
C338 C 0.40622 0.02281 0.21453 0.0
C339 C 0.4128 0.01593 0.2443 0.0
C340 C 0.43171 0.03216 0.26312 0.0
C341 C 0.44455 0.05442 0.25084 0.0
C342 C 0.38647 0.00607 0.19339 0.0
C343 C 0.43917 0.02574 0.29524 0.0
C344 C 0.3739 0.95911 0.287 0.0
C345 C 0.38403 0.94651 0.27721 0.0
C346 C 0.38268 0.98161 0.2759 0.0
C347 C 0.40164 0.99144 0.25383 0.0
C348 C 0.41103 0.9782 0.24243 0.0
C349 C 0.40238 0.95608 0.25474 0.0
C350 C 0.37249 0.99524 0.28929 0.0
C351 C 0.43082 0.98767 0.21819 0.0
H352 H 0.41492 0.05032 0.17944 0.0
H353 H 0.4598 0.06649 0.26407 0.0
H354 H 0.39086 0.99416 0.18104 0.0
H355 H 0.37143 0.9959 0.20957 0.0
H356 H 0.38191 0.01453 0.17335 0.0
H357 H 0.45233 0.04078 0.30903 0.0
H358 H 0.42452 0.01609 0.31239 0.0
H359 H 0.44619 0.01463 0.28894 0.0
H360 H 0.35995 0.95183 0.30486 0.0
H361 H 0.41025 0.94633 0.24728 0.0
H362 H 0.36875 1.0036 0.26817 0.0
H363 H 0.38486 0.0088 0.30619 0.0
H364 H 0.35668 0.98467 0.30382 0.0
H365 H 0.42731 0.99533 0.19585 0.0
H366 H 0.43465 0.97453 0.20917 0.0
H367 H 0.44609 1.00123 0.23092 0.0
C368 C 0.4309 0.39471 0.30649 0.0
C369 C 0.43469 0.37918 0.2884 0.0
C370 C 0.41815 0.40374 0.29268 0.0
C371 C 0.40901 0.39731 0.25965 0.0
C372 C 0.41141 0.38046 0.24214 0.0
C373 C 0.42416 0.3715 0.25678 0.0
C374 C 0.41596 0.42146 0.31254 0.0
C375 C 0.40188 0.37303 0.20696 0.0
C376 C 0.37036 0.41983 0.23027 0.0
C377 C 0.38581 0.4398 0.2134 0.0
C378 C 0.37733 0.40525 0.24439 0.0
C379 C 0.40032 0.41087 0.24187 0.0
C380 C 0.41581 0.43076 0.22436 0.0
C381 C 0.40841 0.44483 0.21039 0.0
C382 C 0.36025 0.38412 0.26261 0.0
C383 C 0.44052 0.43766 0.22121 0.0
H384 H 0.43867 0.4005 0.33119 0.0
H385 H 0.42697 0.35953 0.24262 0.0
H386 H 0.42662 0.43827 0.30061 0.0
H387 H 0.39823 0.41789 0.31218 0.0
H388 H 0.42139 0.42242 0.33934 0.0
H389 H 0.40184 0.35739 0.19909 0.0
H390 H 0.38435 0.37003 0.20552 0.0
H391 H 0.41228 0.38664 0.18859 0.0
H392 H 0.35287 0.41564 0.23267 0.0
H393 H 0.42065 0.46013 0.19751 0.0
H394 H 0.36439 0.38563 0.29004 0.0
H395 H 0.36093 0.36922 0.25291 0.0
H396 H 0.34272 0.38099 0.25969 0.0
H397 H 0.44837 0.44106 0.24676 0.0
H398 H 0.45018 0.45305 0.20541 0.0
H399 H 0.44223 0.42373 0.20984 0.0
C400 C 0.95567 0.36848 0.24138 0.0
C401 C 0.95308 0.37879 0.21224 0.0
C402 C 0.9771 0.37681 0.25677 0.0
C403 C 0.99637 0.39584 0.24267 0.0
C404 C 0.994 0.40532 0.21208 0.0
C405 C 0.97251 0.39673 0.19736 0.0
C406 C 0.97887 0.36606 0.28917 0.0
C407 C 0.01394 0.42555 0.19596 0.0
C408 C 0.04303 0.43891 0.29945 0.0
C409 C 0.06131 0.43544 0.29256 0.0
C410 C 0.02173 0.42556 0.28445 0.0
C411 C 0.01823 0.40797 0.26191 0.0
C412 C 0.03624 0.40369 0.2557 0.0
C413 C 0.0576 0.41752 0.27097 0.0
C414 C 1.0032 0.43096 0.29173 0.0
C415 C 0.03316 0.38496 0.23213 0.0
H416 H 0.94085 0.35459 0.25306 0.0
H417 H 0.97088 0.40465 0.17453 0.0
H418 H 0.99375 0.3636 0.28835 0.0
H419 H 0.98133 0.37744 0.31084 0.0
H420 H 0.96343 0.34948 0.29398 0.0
H421 H 0.00981 0.42943 0.17047 0.0
H422 H 0.01942 0.4406 0.2124 0.0
H423 H 0.02847 0.42264 0.19349 0.0
H424 H 0.04542 0.45253 0.31616 0.0
H425 H 0.07144 0.41453 0.26551 0.0
H426 H 0.98767 0.41557 0.30041 0.0
H427 H 0.99886 0.43683 0.26815 0.0
H428 H 0.0082 0.4443 0.31136 0.0
H429 H 0.01747 0.36901 0.23858 0.0
H430 H 0.04772 0.38197 0.23314 0.0
H431 H 0.03132 0.38939 0.20571 0.0
C432 C 0.57007 0.96823 0.20354 0.0
C433 C 0.57363 0.95013 0.21124 0.0
C434 C 0.58347 0.98975 0.21778 0.0
C435 C 0.6011 0.99358 0.24047 0.0
C436 C 0.60547 0.97573 0.24745 0.0
C437 C 0.59168 0.9542 0.23279 0.0
C438 C 0.57804 0.00815 0.2096 0.0
C439 C 0.62419 0.97915 0.27134 0.0
C440 C 0.64024 0.05613 0.26123 0.0
C441 C 0.62961 0.05859 0.29008 0.0
C442 C 0.63205 0.03477 0.24575 0.0
C443 C 0.61289 0.01547 0.25953 0.0
C444 C 0.60304 0.01774 0.28977 0.0
C445 C 0.61147 0.03914 0.30454 0.0
C446 C 0.64315 0.03306 0.21368 0.0
C447 C 0.58267 0.99774 0.30555 0.0
H448 H 0.5564 0.96556 0.18669 0.0
H449 H 0.59475 0.94048 0.23881 0.0
H450 H 0.57181 0.01253 0.23276 0.0
H451 H 0.5935 0.02368 0.20112 0.0
H452 H 0.56495 1.00298 0.18953 0.0
H453 H 0.62738 0.96472 0.27072 0.0
H454 H 0.6401 0.9949 0.26489 0.0
H455 H 0.61958 0.98105 0.29763 0.0
H456 H 0.65432 0.07098 0.24994 0.0
H457 H 0.60334 0.04068 0.32721 0.0
H458 H 0.63192 0.03047 0.19174 0.0
H459 H 0.64576 0.01829 0.21484 0.0
H460 H 0.65971 0.04858 0.20906 0.0
H461 H 0.56781 0.99207 0.28861 0.0
H462 H 0.57837 1.00186 0.33074 0.0
H463 H 0.58571 0.98333 0.30859 0.0
C464 C 0.59023 0.63969 0.25972 0.0
C465 C 0.57934 0.63117 0.29089 0.0
C466 C 0.60275 0.6308 0.24412 0.0
C467 C 0.60457 0.61317 0.26023 0.0
C468 C 0.59488 0.60568 0.29272 0.0
C469 C 0.58239 0.61467 0.3075 0.0
C470 C 0.61286 0.63932 0.20951 0.0
C471 C 0.59641 0.58706 0.31105 0.0
C472 C 0.60593 0.56733 0.20759 0.0
C473 C 0.62848 0.57226 0.21095 0.0
C474 C 0.59831 0.58094 0.22252 0.0
C475 C 0.61351 0.6002 0.24151 0.0
C476 C 0.63642 0.60565 0.24461 0.0
C477 C 0.64364 0.59159 0.22938 0.0
C478 C 0.5737 0.57426 0.21869 0.0
C479 C 0.65316 0.62607 0.26457 0.0
H480 H 0.58804 0.65246 0.24674 0.0
H481 H 0.5744 0.60824 0.3319 0.0
H482 H 0.63043 0.64242 0.20839 0.0
H483 H 0.60283 0.62627 0.1902 0.0
H484 H 0.61297 0.65516 0.20265 0.0
H485 H 0.59034 0.58504 0.33767 0.0
H486 H 0.58596 0.57079 0.29757 0.0
H487 H 0.6141 0.59048 0.31119 0.0
H488 H 0.59393 0.55252 0.19347 0.0
H489 H 0.66109 0.5957 0.23204 0.0
H490 H 0.57228 0.58862 0.20843 0.0
H491 H 0.56533 0.56996 0.24388 0.0
H492 H 0.56434 0.55948 0.20163 0.0
H493 H 0.65289 0.64137 0.25574 0.0
H494 H 0.67069 0.62911 0.26232 0.0
H495 H 0.64831 0.6237 0.29175 0.0
C496 C 0.05661 0.6375 0.24331 0.0
C497 C 0.05884 0.63057 0.21076 0.0
C498 C 0.03511 0.62873 0.2586 0.0
C499 C 0.01541 0.61288 0.24076 0.0
C500 C 0.01757 0.60726 0.20693 0.0
C501 C 0.03917 0.61602 0.19251 0.0
C502 C 0.03363 0.6352 0.2947 0.0
C503 C 0.99717 0.59067 0.18668 0.0
C504 C 0.96669 0.56538 0.28932 0.0
C505 C 0.94993 0.57163 0.28854 0.0
C506 C 0.98805 0.57892 0.27463 0.0
C507 C 0.99319 0.59952 0.25871 0.0
C508 C 0.97659 0.60626 0.25823 0.0
C509 C 0.95511 0.59218 0.27296 0.0
C510 C 1.00499 0.5708 0.27546 0.0
C511 C 0.98144 0.62817 0.24174 0.0
H512 H 0.0717 0.64869 0.25762 0.0
H513 H 0.04071 0.61079 0.16715 0.0
H514 H 0.0197 0.63901 0.29747 0.0
H515 H 0.02981 0.62078 0.31172 0.0
H516 H 0.0497 0.6501 0.30322 0.0
H517 H 1.00129 0.5904 0.15948 0.0
H518 H 0.99053 0.57341 0.1972 0.0
H519 H 0.98345 0.59485 0.18851 0.0
H520 H 0.96302 0.54953 0.30102 0.0
H521 H 0.94242 0.59728 0.27229 0.0
H522 H 0.02108 0.58387 0.28704 0.0
H523 H 0.00885 0.56791 0.24922 0.0
H524 H 0.99872 0.55482 0.29 0.0
H525 H 0.9972 0.64243 0.25231 0.0
H526 H 0.9674 0.63176 0.24536 0.0
H527 H 0.9842 0.62746 0.21414 0.0
C528 C 0.59184 0.95188 0.76434 0.0
C529 C 0.57644 0.94864 0.79036 0.0
C530 C 0.60514 0.97333 0.7491 0.0
C531 C 0.60294 0.99195 0.76001 0.0
C532 C 0.58823 0.98896 0.7873 0.0
C533 C 0.57531 0.96752 0.80207 0.0
C534 C 0.62081 0.97582 0.72035 0.0
C535 C 0.58518 0.00818 0.79984 0.0
C536 C 0.64251 0.05397 0.73616 0.0
C537 C 0.62989 0.05717 0.71083 0.0
C538 C 0.63467 0.03252 0.75119 0.0
C539 C 0.61371 0.01384 0.74078 0.0
C540 C 0.60152 0.01679 0.71416 0.0
C541 C 0.60973 0.03825 0.69957 0.0
C542 C 0.64834 0.03007 0.77922 0.0
C543 C 0.57908 0.99751 0.70219 0.0
H544 H 0.59301 0.93754 0.75512 0.0
H545 H 0.56376 0.96548 0.82243 0.0
H546 H 0.61375 0.97788 0.69613 0.0
H547 H 0.63761 0.99118 0.72392 0.0
H548 H 0.62311 0.96088 0.71808 0.0
H549 H 0.57445 1.00359 0.82294 0.0
H550 H 0.60183 0.02322 0.80561 0.0
H551 H 0.57713 0.01314 0.77971 0.0
H552 H 0.65813 0.06833 0.745 0.0
H553 H 0.59987 0.04025 0.67975 0.0
H554 H 0.64981 0.01478 0.77513 0.0
H555 H 0.63959 0.02792 0.80382 0.0
H556 H 0.66559 0.04507 0.78107 0.0
H557 H 0.58067 0.98252 0.69598 0.0
H558 H 0.57257 1.00208 0.67948 0.0
H559 H 0.56637 0.9925 0.72279 0.0
C560 C 0.64082 0.58608 0.75882 0.0
C561 C 0.62944 0.5715 0.78605 0.0
C562 C 0.63239 0.59919 0.74375 0.0
C563 C 0.61214 0.59767 0.75616 0.0
C564 C 0.60137 0.58392 0.78476 0.0
C565 C 0.61012 0.57113 0.79926 0.0
C566 C 0.64455 0.6138 0.71354 0.0
C567 C 0.57979 0.5817 0.79902 0.0
C568 C 0.58965 0.63719 0.73238 0.0
C569 C 0.57269 0.62392 0.70882 0.0
C570 C 0.6036 0.62952 0.74671 0.0
C571 C 0.60052 0.60809 0.73734 0.0
C572 C 0.58417 0.59519 0.71241 0.0
C573 C 0.57057 0.60322 0.69854 0.0
C574 C 0.62094 0.64391 0.77298 0.0
C575 C 0.58018 0.57225 0.70154 0.0
H576 H 0.65578 0.58661 0.74843 0.0
H577 H 0.6013 0.56026 0.82062 0.0
H578 H 0.63451 0.60601 0.69025 0.0
H579 H 0.64629 0.63078 0.71626 0.0
H580 H 0.66163 0.61584 0.71009 0.0
H581 H 0.57452 0.57182 0.82298 0.0
H582 H 0.5819 0.59864 0.80393 0.0
H583 H 0.56593 0.57311 0.78023 0.0
H584 H 0.59158 0.65323 0.74046 0.0
H585 H 0.5578 0.59285 0.68006 0.0
H586 H 0.63738 0.64493 0.76766 0.0
H587 H 0.61525 0.63605 0.79835 0.0
H588 H 0.62356 0.66133 0.77396 0.0
H589 H 0.59638 0.57335 0.69413 0.0
H590 H 0.5682 0.56518 0.67991 0.0
H591 H 0.57317 0.56026 0.72313 0.0
C592 C 0.95662 0.58892 0.73247 0.0
C593 C 0.95212 0.56952 0.71397 0.0
C594 C 0.97818 0.60311 0.74684 0.0
C595 C 0.99562 0.59773 0.74276 0.0
C596 C 0.99127 0.57848 0.72352 0.0
C597 C 0.96975 0.56473 0.70946 0.0
C598 C 0.98215 0.62352 0.76706 0.0
C599 C 0.0092 0.5719 0.71861 0.0
C600 C 0.05865 0.63715 0.75978 0.0
C601 C 0.0613 0.62852 0.79066 0.0
C602 C 0.03708 0.62833 0.74468 0.0
C603 C 0.01776 0.61063 0.76099 0.0
C604 C 0.02025 0.60303 0.79322 0.0
C605 C 0.04188 0.61198 0.80751 0.0
C606 C 0.03518 0.637 0.71037 0.0
C607 C 1.00025 0.58433 0.81176 0.0
H608 H 0.94327 0.59294 0.736 0.0
H609 H 0.96674 0.54993 0.69517 0.0
H610 H 0.98467 0.62099 0.79416 0.0
H611 H 0.99777 0.63878 0.75825 0.0
H612 H 0.96774 0.6267 0.76511 0.0
H613 H 1.00357 0.55721 0.7013 0.0
H614 H 0.02485 0.58634 0.70813 0.0
H615 H 0.0136 0.56748 0.74346 0.0
H616 H 0.07351 0.64997 0.74663 0.0
H617 H 0.04363 0.60546 0.83171 0.0
H618 H 0.02066 0.64005 0.70983 0.0
H619 H 0.03201 0.62407 0.69081 0.0
H620 H 0.05083 0.65291 0.70345 0.0
H621 H 0.98604 0.58781 0.81262 0.0
H622 H 1.00456 0.58213 0.83813 0.0
H623 H 0.99421 0.56814 0.79798 0.0
C624 C 0.4215 0.05516 0.76196 0.0
C625 C 0.43472 0.05784 0.79076 0.0
C626 C 0.4086 0.03379 0.74634 0.0
C627 C 0.40891 0.01466 0.75982 0.0
C628 C 0.42115 0.01709 0.79001 0.0
C629 C 0.43381 0.03851 0.80501 0.0
C630 C 0.39563 0.03194 0.71439 0.0
C631 C 0.42204 0.9973 0.80546 0.0
C632 C 0.36963 0.95334 0.73191 0.0
C633 C 0.38374 0.94986 0.70976 0.0
C634 C 0.37707 0.97466 0.7472 0.0
C635 C 0.39917 0.99287 0.74043 0.0
C636 C 0.4131 0.98961 0.71722 0.0
C637 C 0.40524 0.96834 0.70223 0.0
C638 C 0.36158 0.97746 0.7715 0.0
C639 C 0.43681 0.00839 0.70926 0.0
H640 H 0.42197 0.06988 0.75076 0.0
H641 H 0.44362 0.04018 0.82755 0.0
H642 H 0.40441 0.02971 0.69231 0.0
H643 H 0.37839 0.01691 0.71549 0.0
H644 H 0.39419 0.04724 0.71004 0.0
H645 H 0.43047 1.00145 0.83064 0.0
H646 H 0.40473 0.9826 0.80838 0.0
H647 H 0.4315 0.99206 0.78834 0.0
H648 H 0.35298 0.93934 0.73786 0.0
H649 H 0.41637 0.96613 0.68502 0.0
H650 H 0.36103 0.99306 0.76549 0.0
H651 H 0.36819 0.97929 0.79771 0.0
H652 H 0.34407 0.96278 0.77083 0.0
H653 H 0.43657 0.0238 0.70104 0.0
H654 H 0.44498 1.0036 0.68907 0.0
H655 H 0.44742 0.01282 0.73244 0.0
C656 C 0.39633 0.42758 0.81012 0.0
C657 C 0.38019 0.43098 0.79311 0.0
C658 C 0.40528 0.415 0.79549 0.0
C659 C 0.39817 0.40566 0.76271 0.0
C660 C 0.38089 0.40787 0.74617 0.0
C661 C 0.372 0.42041 0.76165 0.0
C662 C 0.42349 0.413 0.81431 0.0
C663 C 0.37282 0.39821 0.71121 0.0
C664 C 0.44422 0.40422 0.71054 0.0
C665 C 0.43882 0.38149 0.71303 0.0
C666 C 0.43079 0.41196 0.72576 0.0
C667 C 0.41123 0.39672 0.74417 0.0
C668 C 0.40538 0.37367 0.74655 0.0
C669 C 0.41926 0.36633 0.73102 0.0
C670 C 0.43789 0.43671 0.72268 0.0
C671 C 0.38465 0.35688 0.76591 0.0
H672 H 0.40252 0.43535 0.83471 0.0
H673 H 0.35952 0.42291 0.74834 0.0
H674 H 0.41991 0.39527 0.814 0.0
H675 H 0.44001 0.42354 0.80151 0.0
H676 H 0.42509 0.41866 0.84109 0.0
H677 H 0.35719 0.39841 0.70391 0.0
H678 H 0.38622 0.40832 0.6924 0.0
H679 H 0.36949 0.38058 0.70982 0.0
H680 H 0.45924 0.41624 0.69683 0.0
H681 H 0.4148 0.34875 0.73304 0.0
H682 H 0.4419 0.44468 0.74815 0.0
H683 H 0.42382 0.43855 0.71213 0.0
H684 H 0.45297 0.44616 0.70618 0.0
H685 H 0.38665 0.36158 0.79314 0.0
H686 H 0.38156 0.33935 0.76363 0.0
H687 H 0.36952 0.35728 0.75656 0.0
C688 C 0.04314 0.44211 0.71243 0.0
C689 C 0.06095 0.43767 0.7177 0.0
C690 C 0.02167 0.42848 0.72667 0.0
C691 C 0.01754 0.40969 0.74692 0.0
C692 C 0.03516 0.40465 0.75182 0.0
C693 C 0.05668 0.41872 0.73721 0.0
C694 C 1.00355 0.43468 0.72082 0.0
C695 C 0.03142 0.38473 0.77315 0.0
C696 C 0.97089 0.39633 0.81052 0.0
C697 C 0.95163 0.37943 0.79382 0.0
C698 C 0.99262 0.40507 0.79671 0.0
C699 C 0.99537 0.3969 0.76512 0.0
C700 C 0.9762 0.37885 0.74908 0.0
C701 C 0.95453 0.37024 0.7637 0.0
C702 C 0.01246 0.42417 0.81492 0.0
C703 C 0.97838 0.36959 0.71545 0.0
H704 H 0.04597 0.45656 0.69734 0.0
H705 H 0.07017 0.41498 0.74135 0.0
H706 H 0.98801 0.41995 0.71064 0.0
H707 H 0.999 0.43944 0.74527 0.0
H708 H 0.00905 0.44904 0.70288 0.0
H709 H 0.04598 0.38175 0.7719 0.0
H710 H 0.02878 0.38771 0.79999 0.0
H711 H 0.01592 0.36919 0.76474 0.0
H712 H 0.96892 0.40329 0.83415 0.0
H713 H 0.93979 0.35715 0.75068 0.0
H714 H 0.01837 0.44013 0.80052 0.0
H715 H 0.0268 0.42092 0.81642 0.0
H716 H 0.00799 0.42669 0.84103 0.0
H717 H 0.98145 0.38208 0.69517 0.0
H718 H 0.96285 0.35345 0.70895 0.0
H719 H 0.99303 0.36676 0.71568 0.0
C720 C 0.44535 0.18008 0.23991 0.0
C721 C 0.46058 0.18241 0.21415 0.0
C722 C 0.44419 0.1989 0.25202 0.0
C723 C 0.45826 0.22056 0.23761 0.0
C724 C 0.47305 0.22281 0.21071 0.0
C725 C 0.4742 0.20381 0.1996 0.0
C726 C 0.42848 0.19573 0.2811 0.0
C727 C 0.48804 0.24543 0.19411 0.0
C728 C 0.44456 0.2679 0.25173 0.0
C729 C 0.46069 0.2813 0.27617 0.0
C730 C 0.44341 0.24802 0.23912 0.0
C731 C 0.45844 0.24106 0.25173 0.0
C732 C 0.47423 0.25416 0.27725 0.0
C733 C 0.47532 0.27417 0.28885 0.0
C734 C 0.42657 0.23482 0.21155 0.0
C735 C 0.49027 0.24721 0.29199 0.0
H736 H 0.43487 0.16366 0.25148 0.0
H737 H 0.48595 0.20576 0.1796 0.0
H738 H 0.43852 0.20551 0.30341 0.0
H739 H 0.41713 0.20236 0.27421 0.0
H740 H 0.41794 0.1777 0.28858 0.0
H741 H 0.49729 0.24407 0.17189 0.0
H742 H 0.47778 0.25302 0.18569 0.0
H743 H 0.50059 0.25722 0.21273 0.0
H744 H 0.4333 0.27336 0.24161 0.0
H745 H 0.48777 0.28435 0.30785 0.0
H746 H 0.41566 0.21697 0.21947 0.0
H747 H 0.43571 0.23472 0.18832 0.0
H748 H 0.41562 0.24204 0.20514 0.0
H749 H 0.48066 0.22957 0.30154 0.0
H750 H 0.50056 0.25842 0.31311 0.0
H751 H 0.5019 0.24766 0.27196 0.0
C752 C 0.20643 0.47323 0.29635 0.0
C753 C 0.18487 0.45926 0.2825 0.0
C754 C 0.22545 0.47229 0.2848 0.0
C755 C 0.22308 0.45733 0.25812 0.0
C756 C 0.20127 0.44291 0.24435 0.0
C757 C 0.18241 0.44388 0.25693 0.0
C758 C 0.24822 0.48765 0.30076 0.0
C759 C 0.19797 0.42701 0.21552 0.0
C760 C 0.27689 0.47516 0.20686 0.0
C761 C 0.28459 0.46111 0.22006 0.0
C762 C 0.25651 0.47347 0.21807 0.0
C763 C 0.24363 0.45768 0.24373 0.0
C764 C 0.25112 0.44317 0.25675 0.0
C765 C 0.27136 0.4449 0.24452 0.0
C766 C 0.24903 0.48897 0.20292 0.0
C767 C 0.23819 0.42638 0.2845 0.0
H768 H 0.20849 0.48508 0.31624 0.0
H769 H 0.16584 0.43312 0.24592 0.0
H770 H 0.25606 0.47765 0.30929 0.0
H771 H 0.25974 0.50004 0.28174 0.0
H772 H 0.24699 0.4971 0.32282 0.0
H773 H 0.17987 0.41624 0.20854 0.0
H774 H 0.20743 0.43691 0.19291 0.0
H775 H 0.2049 0.41591 0.22241 0.0
H776 H 0.28692 0.48765 0.18782 0.0
H777 H 0.27724 0.43408 0.25502 0.0
H778 H 0.24951 0.50081 0.22259 0.0
H779 H 0.2313 0.479 0.19385 0.0
H780 H 0.25993 0.49904 0.18139 0.0
H781 H 0.23818 0.43555 0.30773 0.0
H782 H 0.24559 0.41557 0.29079 0.0
H783 H 0.22028 0.41533 0.27689 0.0
C784 C 0.73882 0.20255 0.30154 0.0
C785 C 0.7308 0.18113 0.2869 0.0
C786 C 0.75897 0.22149 0.29027 0.0
C787 C 0.7713 0.21919 0.26313 0.0
C788 C 0.76352 0.1975 0.24867 0.0
C789 C 0.74351 0.17872 0.26093 0.0
C790 C 0.76679 0.24412 0.30692 0.0
C791 C 0.77588 0.19429 0.21939 0.0
C792 C 0.80754 0.27298 0.21203 0.0
C793 C 0.82936 0.28024 0.22457 0.0
C794 C 0.78871 0.25283 0.22355 0.0
C795 C 0.79157 0.2397 0.24882 0.0
C796 C 0.81362 0.24677 0.26126 0.0
C797 C 0.83226 0.26681 0.24877 0.0
C798 C 0.76564 0.2458 0.20905 0.0
C799 C 0.81745 0.23354 0.28855 0.0
H800 H 0.72919 0.20457 0.32172 0.0
H801 H 0.73738 0.16229 0.24931 0.0
H802 H 0.78469 0.25168 0.31507 0.0
H803 H 0.76594 0.25592 0.28843 0.0
H804 H 0.75633 0.2428 0.32934 0.0
H805 H 0.76835 0.17623 0.21204 0.0
H806 H 0.77542 0.20397 0.19709 0.0
H807 H 0.79393 0.20099 0.22597 0.0
H808 H 0.80512 0.28316 0.1932 0.0
H809 H 0.84903 0.27234 0.25876 0.0
H810 H 0.75451 0.2462 0.22923 0.0
H811 H 0.75761 0.22818 0.19948 0.0
H812 H 0.76644 0.25701 0.18801 0.0
H813 H 0.80839 0.23342 0.31199 0.0
H814 H 0.83567 0.24074 0.29463 0.0
H815 H 0.81042 0.21569 0.28055 0.0
C816 C 0.54275 0.80743 0.204 0.0
C817 C 0.55652 0.82927 0.21706 0.0
C818 C 0.54434 0.78887 0.21604 0.0
C819 C 0.55983 0.79203 0.2423 0.0
C820 C 0.57419 0.81415 0.25506 0.0
C821 C 0.57249 0.83252 0.24211 0.0
C822 C 0.52895 0.76573 0.20121 0.0
C823 C 0.59075 0.81828 0.28328 0.0
C824 C 0.54352 0.73959 0.29612 0.0
C825 C 0.55734 0.73167 0.28272 0.0
C826 C 0.5448 0.7596 0.28407 0.0
C827 C 0.56 0.77195 0.25749 0.0
C828 C 0.57434 0.76429 0.24432 0.0
C829 C 0.57296 0.74438 0.25725 0.0
C830 C 0.52943 0.76724 0.29929 0.0
C831 C 0.59057 0.7767 0.21571 0.0
H832 H 0.53044 0.80475 0.18452 0.0
H833 H 0.58311 0.84929 0.25251 0.0
H834 H 0.53901 0.75793 0.1928 0.0
H835 H 0.51696 0.75453 0.2209 0.0
H836 H 0.51904 0.76635 0.17929 0.0
H837 H 0.60162 0.83656 0.28909 0.0
H838 H 0.58138 0.80945 0.30659 0.0
H839 H 0.60176 0.81123 0.27647 0.0
H840 H 0.53148 0.72998 0.31591 0.0
H841 H 0.58364 0.73836 0.24662 0.0
H842 H 0.51721 0.76628 0.27988 0.0
H843 H 0.53946 0.78514 0.30753 0.0
H844 H 0.51977 0.75675 0.32139 0.0
H845 H 0.58092 0.77604 0.19267 0.0
H846 H 0.60145 0.76936 0.20954 0.0
H847 H 0.60158 0.79479 0.22235 0.0
C848 C 0.74247 0.56655 0.23991 0.0
C849 C 0.73005 0.55165 0.21356 0.0
C850 C 0.76219 0.56749 0.25288 0.0
C851 C 0.76997 0.55348 0.2388 0.0
C852 C 0.7579 0.539 0.21137 0.0
C853 C 0.73804 0.53811 0.19935 0.0
C854 C 0.77427 0.58291 0.28243 0.0
C855 C 0.7657 0.52405 0.19514 0.0
C856 C 0.83065 0.56637 0.25464 0.0
C857 C 0.82743 0.55 0.27896 0.0
C858 C 0.81222 0.56794 0.24166 0.0
C859 C 0.79001 0.55305 0.25367 0.0
C860 C 0.78681 0.53699 0.27905 0.0
C861 C 0.80546 0.53554 0.29111 0.0
C862 C 0.81641 0.58508 0.21432 0.0
C863 C 0.76356 0.52103 0.29308 0.0
H864 H 0.73637 0.57697 0.25121 0.0
H865 H 0.72864 0.52661 0.17889 0.0
H866 H 0.77353 0.57265 0.30474 0.0
H867 H 0.7924 0.59422 0.27625 0.0
H868 H 0.76673 0.59346 0.28955 0.0
H869 H 0.7554 0.51495 0.17258 0.0
H870 H 0.78368 0.5343 0.18731 0.0
H871 H 0.76461 0.51137 0.21379 0.0
H872 H 0.84753 0.57754 0.24496 0.0
H873 H 0.80278 0.5229 0.31001 0.0
H874 H 0.80944 0.59599 0.22206 0.0
H875 H 0.80754 0.57622 0.19073 0.0
H876 H 0.83471 0.596 0.20859 0.0
H877 H 0.75555 0.5307 0.30236 0.0
H878 H 0.76408 0.51053 0.31422 0.0
H879 H 0.7526 0.50959 0.2727 0.0
C880 C 0.18065 0.74096 0.24498 0.0
C881 C 0.18324 0.72722 0.22101 0.0
C882 C 0.19949 0.76091 0.25724 0.0
C883 C 0.22145 0.76758 0.24479 0.0
C884 C 0.22402 0.75412 0.21975 0.0
C885 C 0.20498 0.73406 0.20847 0.0
C886 C 0.19597 0.77448 0.2843 0.0
C887 C 0.24698 0.76073 0.20525 0.0
C888 C 0.26982 0.82845 0.2563 0.0
C889 C 0.28241 0.82608 0.28251 0.0
C890 C 0.2498 0.80968 0.24407 0.0
C891 C 0.24188 0.78804 0.2588 0.0
C892 C 0.25412 0.78577 0.28611 0.0
C893 C 0.27429 0.80471 0.29735 0.0
C894 C 0.23757 0.81285 0.21457 0.0
C895 C 0.24614 0.76319 0.30306 0.0
H896 H 0.16395 0.73575 0.25498 0.0
H897 H 0.20715 0.72363 0.18983 0.0
H898 H 0.20508 0.77469 0.30773 0.0
H899 H 0.20313 0.79229 0.27596 0.0
H900 H 0.1778 0.76751 0.29054 0.0
H901 H 0.24597 0.7493 0.18441 0.0
H902 H 0.25521 0.7783 0.19538 0.0
H903 H 0.25805 0.7603 0.22549 0.0
H904 H 0.27603 0.84485 0.24452 0.0
H905 H 0.28384 0.80272 0.3177 0.0
H906 H 0.21958 0.80648 0.22119 0.0
H907 H 0.23779 0.80284 0.19255 0.0
H908 H 0.24534 0.83085 0.20679 0.0
H909 H 0.22828 0.75585 0.31132 0.0
H910 H 0.25662 0.76453 0.32546 0.0
H911 H 0.24678 0.7512 0.28473 0.0
C912 C 0.53822 0.73326 0.70691 0.0
C913 C 0.55233 0.72564 0.72009 0.0
C914 C 0.54003 0.75373 0.71773 0.0
C915 C 0.55606 0.76685 0.74296 0.0
C916 C 0.57071 0.75949 0.75589 0.0
C917 C 0.56882 0.73909 0.74406 0.0
C918 C 0.52435 0.76104 0.70268 0.0
C919 C 0.58779 0.77271 0.78315 0.0
C920 C 0.56906 0.82789 0.75442 0.0
C921 C 0.55365 0.82546 0.77992 0.0
C922 C 0.57043 0.8091 0.74258 0.0
C923 C 0.5564 0.78743 0.75705 0.0
C924 C 0.5415 0.78515 0.78377 0.0
C925 C 0.54013 0.80407 0.79456 0.0
C926 C 0.58625 0.81228 0.71368 0.0
C927 C 0.52653 0.76254 0.80045 0.0
H928 H 0.52553 0.72307 0.6882 0.0
H929 H 0.57972 0.73328 0.75451 0.0
H930 H 0.51266 0.76069 0.72252 0.0
H931 H 0.53421 0.77868 0.69325 0.0
H932 H 0.51411 0.74995 0.68143 0.0
H933 H 0.59881 0.7655 0.78918 0.0
H934 H 0.59862 0.79057 0.77522 0.0
H935 H 0.57884 0.77276 0.80662 0.0
H936 H 0.57949 0.84432 0.74285 0.0
H937 H 0.52828 0.80205 0.81444 0.0
H938 H 0.57627 0.80274 0.69118 0.0
H939 H 0.59739 0.80539 0.72055 0.0
H940 H 0.597 0.83035 0.70652 0.0
H941 H 0.51394 0.75074 0.78189 0.0
H942 H 0.5173 0.76393 0.8227 0.0
H943 H 0.53679 0.75496 0.80887 0.0
C944 C 0.738 0.53536 0.79016 0.0
C945 C 0.73078 0.54996 0.77767 0.0
C946 C 0.75843 0.53703 0.77928 0.0
C947 C 0.77193 0.55345 0.75472 0.0
C948 C 0.76497 0.56857 0.74249 0.0
C949 C 0.7446 0.56677 0.75432 0.0
C950 C 0.76528 0.5208 0.79351 0.0
C951 C 0.77861 0.58611 0.71599 0.0
C952 C 0.83289 0.56598 0.7434 0.0
C953 C 0.83052 0.55112 0.71705 0.0
C954 C 0.81412 0.5673 0.75552 0.0
C955 C 0.79252 0.55378 0.74053 0.0
C956 C 0.7903 0.53947 0.71299 0.0
C957 C 0.8092 0.53815 0.70186 0.0
C958 C 0.81724 0.58252 0.78524 0.0
C959 C 0.76777 0.52505 0.69575 0.0
H960 H 0.72753 0.5224 0.80836 0.0
H961 H 0.73913 0.57806 0.74438 0.0
H962 H 0.76498 0.50948 0.77309 0.0
H963 H 0.78284 0.53025 0.80339 0.0
H964 H 0.75389 0.5102 0.81426 0.0
H965 H 0.77166 0.59741 0.71046 0.0
H966 H 0.79642 0.5966 0.72441 0.0
H967 H 0.7788 0.57758 0.69214 0.0
H968 H 0.84925 0.57596 0.75543 0.0
H969 H 0.80721 0.52672 0.68136 0.0
H970 H 0.80743 0.57211 0.80727 0.0
H971 H 0.8106 0.59397 0.77902 0.0
H972 H 0.83527 0.59292 0.79283 0.0
H973 H 0.75572 0.51219 0.71378 0.0
H974 H 0.7692 0.5162 0.67306 0.0
H975 H 0.76045 0.53564 0.68786 0.0
C976 C 0.27008 0.83002 0.7436 0.0
C977 C 0.28332 0.82696 0.71924 0.0
C978 C 0.25002 0.81149 0.75629 0.0
C979 C 0.24274 0.78939 0.74393 0.0
C980 C 0.25566 0.78638 0.71846 0.0
C981 C 0.27584 0.8051 0.70672 0.0
C982 C 0.23701 0.81548 0.78377 0.0
C983 C 0.24842 0.76325 0.70403 0.0
C984 C 0.20581 0.737 0.79749 0.0
C985 C 0.18426 0.72902 0.7833 0.0
C986 C 0.22474 0.757 0.78575 0.0
C987 C 0.22228 0.76923 0.7586 0.0
C988 C 0.20047 0.76147 0.74456 0.0
C989 C 0.18172 0.74161 0.75727 0.0
C990 C 0.24751 0.76478 0.80196 0.0
C991 C 0.19708 0.77372 0.7153 0.0
H992 H 0.27578 0.84681 0.75357 0.0
H993 H 0.28587 0.80256 0.68778 0.0
H994 H 0.2191 0.80845 0.77607 0.0
H995 H 0.23705 0.80654 0.80724 0.0
H996 H 0.2443 0.83373 0.78967 0.0
H997 H 0.25943 0.76394 0.68277 0.0
H998 H 0.24893 0.75217 0.72417 0.0
H999 H 0.23071 0.75526 0.6948 0.0
H1000 H 0.20794 0.72748 0.81772 0.0
H1001 H 0.16518 0.73551 0.746 0.0
H1002 H 0.25519 0.7827 0.81002 0.0
H1003 H 0.25913 0.76384 0.78321 0.0
H1004 H 0.24633 0.75438 0.82436 0.0
H1005 H 0.20388 0.79179 0.72174 0.0
H1006 H 0.17897 0.7662 0.70824 0.0
H1007 H 0.20659 0.77314 0.69286 0.0
C1008 C 0.47195 0.27132 0.69919 0.0
C1009 C 0.45827 0.2792 0.71321 0.0
C1010 C 0.47092 0.25136 0.711 0.0
C1011 C 0.45612 0.23904 0.73799 0.0
C1012 C 0.44194 0.24669 0.75185 0.0
C1013 C 0.44306 0.26654 0.73913 0.0
C1014 C 0.48608 0.24372 0.69502 0.0
C1015 C 0.42614 0.23432 0.78092 0.0
C1016 C 0.44301 0.17823 0.75302 0.0
C1017 C 0.4591 0.18123 0.77771 0.0
C1018 C 0.44161 0.19678 0.74015 0.0
C1019 C 0.45637 0.21887 0.75268 0.0
C1020 C 0.47214 0.22183 0.77842 0.0
C1021 C 0.47345 0.20308 0.79033 0.0
C1022 C 0.42481 0.19284 0.71238 0.0
C1023 C 0.48793 0.24493 0.79303 0.0
H1024 H 0.4837 0.2809 0.67906 0.0
H1025 H 0.43251 0.27254 0.75028 0.0
H1026 H 0.49853 0.24463 0.71396 0.0
H1027 H 0.47593 0.22583 0.68678 0.0
H1028 H 0.49546 0.25423 0.67277 0.0
H1029 H 0.4155 0.2418 0.78789 0.0
H1030 H 0.4149 0.21627 0.77428 0.0
H1031 H 0.43612 0.23483 0.80347 0.0
H1032 H 0.43194 0.16145 0.74296 0.0
H1033 H 0.48587 0.20558 0.80952 0.0
H1034 H 0.43397 0.20194 0.68908 0.0
H1035 H 0.4138 0.19974 0.71993 0.0
H1036 H 0.41396 0.17461 0.70623 0.0
H1037 H 0.49961 0.25609 0.77301 0.0
H1038 H 0.49817 0.24422 0.81438 0.0
H1039 H 0.47814 0.25285 0.80219 0.0
C1040 C 0.1798 0.44035 0.74438 0.0
C1041 C 0.18256 0.45601 0.71907 0.0
C1042 C 0.19838 0.43871 0.75652 0.0
C1043 C 0.22025 0.45278 0.74267 0.0
C1044 C 0.22292 0.46798 0.71619 0.0
C1045 C 0.20415 0.46954 0.70498 0.0
C1046 C 0.19476 0.42251 0.78506 0.0
C1047 C 0.24576 0.48305 0.70022 0.0
C1048 C 0.27338 0.46913 0.79489 0.0
C1049 C 0.28083 0.45488 0.7817 0.0
C1050 C 0.2534 0.46811 0.78315 0.0
C1051 C 0.24058 0.45269 0.75708 0.0
C1052 C 0.24781 0.43798 0.744 0.0
C1053 C 0.26772 0.43913 0.75663 0.0
C1054 C 0.24625 0.48388 0.79829 0.0
C1055 C 0.23489 0.4215 0.71592 0.0
H1056 H 0.16323 0.42991 0.75557 0.0
H1057 H 0.20647 0.48161 0.6853 0.0
H1058 H 0.2015 0.41128 0.77798 0.0
H1059 H 0.20418 0.43215 0.80785 0.0
H1060 H 0.1766 0.41186 0.79184 0.0
H1061 H 0.24472 0.49266 0.67822 0.0
H1062 H 0.2574 0.49529 0.71928 0.0
H1063 H 0.25332 0.47281 0.69163 0.0
H1064 H 0.28328 0.48129 0.81438 0.0
H1065 H 0.27338 0.42812 0.74615 0.0
H1066 H 0.22851 0.4741 0.80742 0.0
H1067 H 0.24687 0.49577 0.77859 0.0
H1068 H 0.25724 0.49387 0.81978 0.0
H1069 H 0.21693 0.41055 0.72336 0.0
H1070 H 0.24213 0.41058 0.70943 0.0
H1071 H 0.23508 0.43092 0.69287 0.0
C1072 C 0.80717 0.27102 0.79994 0.0
C1073 C 0.82879 0.27867 0.78626 0.0
C1074 C 0.78825 0.2509 0.78855 0.0
C1075 C 0.79081 0.23819 0.76228 0.0
C1076 C 0.8127 0.24557 0.74882 0.0
C1077 C 0.83144 0.26558 0.76118 0.0
C1078 C 0.76539 0.24355 0.80413 0.0
C1079 C 0.81619 0.23277 0.72048 0.0
C1080 C 0.74262 0.17742 0.7486 0.0
C1081 C 0.72965 0.18033 0.72358 0.0
C1082 C 0.76273 0.19598 0.76109 0.0
C1083 C 0.77035 0.21794 0.74779 0.0
C1084 C 0.75772 0.22077 0.72165 0.0
C1085 C 0.73747 0.20204 0.71018 0.0
C1086 C 0.77539 0.1922 0.78934 0.0
C1087 C 0.76535 0.24371 0.70621 0.0
H1088 H 0.80495 0.28093 0.81945 0.0
H1089 H 0.84804 0.27142 0.7503 0.0
H1090 H 0.754 0.24438 0.78482 0.0
H1091 H 0.75747 0.22573 0.81279 0.0
H1092 H 0.76649 0.2543 0.82602 0.0
H1093 H 0.83435 0.23999 0.71395 0.0
H1094 H 0.8091 0.21476 0.72761 0.0
H1095 H 0.807 0.23318 0.69751 0.0
H1096 H 0.73665 0.16074 0.75924 0.0
H1097 H 0.72765 0.20444 0.6907 0.0
H1098 H 0.77526 0.20152 0.81232 0.0
H1099 H 0.79335 0.19897 0.78209 0.0
H1100 H 0.76788 0.17402 0.7959 0.0
H1101 H 0.76481 0.25518 0.72565 0.0
H1102 H 0.75459 0.24283 0.68446 0.0
H1103 H 0.78312 0.25139 0.69738 0.0
C1104 C 0.44713 0.10615 0.06073 0.0
C1105 C 0.44957 0.12169 0.08597 0.0
C1106 C 0.44378 0.10958 0.02674 0.0
C1107 C 0.4424 0.12892 0.01758 0.0
C1108 C 0.44187 0.14308 0.04351 0.0
C1109 C 0.4457 0.13943 0.07755 0.0
C1110 C 0.44427 0.09377 1.00034 0.0
C1111 C 0.4391 0.16311 0.03525 0.0
C1112 C 0.47449 0.1498 0.93601 0.0
C1113 C 0.4576 0.13712 0.91217 0.0
C1114 C 0.46934 0.14952 0.97042 0.0
C1115 C 0.4466 0.13635 0.98134 0.0
C1116 C 0.42915 0.1262 0.95672 0.0
C1117 C 0.43486 0.12649 0.92222 0.0
C1118 C 0.48863 0.16098 0.9954 0.0
C1119 C 0.4046 0.11326 0.96701 0.0
H1120 H 0.44948 0.09203 0.06724 0.0
H1121 H 0.44724 0.15136 0.09697 0.0
H1122 H 0.42958 0.08777 0.98302 0.0
H1123 H 0.45986 0.10291 0.9848 0.0
H1124 H 0.44397 0.07877 0.01184 0.0
H1125 H 0.43046 0.1666 0.05631 0.0
H1126 H 0.45601 0.17834 0.03191 0.0
H1127 H 0.42929 0.16038 0.01153 0.0
H1128 H 0.49208 0.15838 0.92811 0.0
H1129 H 0.4217 0.11682 0.90382 0.0
H1130 H 0.49027 0.14797 0.01002 0.0
H1131 H 0.48527 0.17126 0.01371 0.0
H1132 H 0.50504 0.17217 0.98264 0.0
H1133 H 0.39967 0.09544 0.97243 0.0
H1134 H 0.39354 0.11322 0.94628 0.0
H1135 H 0.40153 0.12055 0.99021 0.0
C1136 C 0.33258 0.43304 0.9374 0.0
C1137 C 0.32315 0.44199 0.91499 0.0
C1138 C 0.32779 0.43131 0.97218 0.0
C1139 C 0.31318 0.43875 0.98479 0.0
C1140 C 0.30077 0.44419 0.96151 0.0
C1141 C 0.3061 0.44603 0.92666 0.0
C1142 C 0.341 0.42477 0.99574 0.0
C1143 C 0.28387 0.45067 0.97375 0.0
C1144 C 0.31361 0.44 0.08168 0.0
C1145 C 0.33189 0.46183 0.08745 0.0
C1146 C 0.30566 0.43256 0.04839 0.0
C1147 C 0.31653 0.4472 0.02049 0.0
C1148 C 0.33371 0.46981 0.02674 0.0
C1149 C 0.34091 0.47681 0.05997 0.0
C1150 C 0.28656 0.40868 0.04327 0.0
C1151 C 0.34593 0.48627 0.99814 0.0
H1152 H 0.3456 0.42968 0.92823 0.0
H1153 H 0.29866 0.45284 0.90935 0.0
H1154 H 0.35436 0.44014 0.00863 0.0
H1155 H 0.3298 0.41299 0.01557 0.0
H1156 H 0.34925 0.41662 0.98196 0.0
H1157 H 0.27137 0.44802 0.95364 0.0
H1158 H 0.27475 0.44074 0.99655 0.0
H1159 H 0.29284 0.46884 0.98076 0.0
H1160 H 0.30628 0.42837 0.10278 0.0
H1161 H 0.35459 0.49395 0.06423 0.0
H1162 H 0.29348 0.39705 0.0427 0.0
H1163 H 0.27736 0.40677 0.01918 0.0
H1164 H 0.27437 0.40338 0.06468 0.0
H1165 H 0.35489 0.47987 0.9821 0.0
H1166 H 0.35855 0.50336 0.00748 0.0
H1167 H 0.33366 0.48797 0.98177 0.0
C1168 C 0.86672 0.30609 0.92671 0.0
C1169 C 0.88562 0.32668 0.91721 0.0
C1170 C 0.86338 0.29911 0.96097 0.0
C1171 C 0.87908 0.31329 0.98592 0.0
C1172 C 0.8995 0.33255 0.97546 0.0
C1173 C 0.90251 0.3389 0.94128 0.0
C1174 C 0.84209 0.27769 0.97068 0.0
C1175 C 0.91703 0.3481 0.00078 0.0
C1176 C 0.86185 0.32968 0.06657 0.0
C1177 C 0.87302 0.32389 0.09096 0.0
C1178 C 0.86149 0.324 0.03241 0.0
C1179 C 0.87233 0.31187 0.02228 0.0
C1180 C 0.8809 0.30328 0.04748 0.0
C1181 C 0.88136 0.30959 0.08172 0.0
C1182 C 0.85186 0.33342 0.00682 0.0
C1183 C 0.89132 0.28908 0.03815 0.0
H1184 H 0.85373 0.29642 0.90809 0.0
H1185 H 0.9174 0.35457 0.93378 0.0
H1186 H 0.84468 0.26994 0.99376 0.0
H1187 H 0.82844 0.28159 0.97602 0.0
H1188 H 0.83625 0.2652 0.94965 0.0
H1189 H 0.93275 0.36122 0.98826 0.0
H1190 H 0.91 0.35673 0.01622 0.0
H1191 H 0.92156 0.3383 0.01831 0.0
H1192 H 0.85489 0.34029 0.07383 0.0
H1193 H 0.88976 0.30479 0.10056 0.0
H1194 H 0.84014 0.31995 0.98929 0.0
H1195 H 0.86579 0.34669 0.99139 0.0
H1196 H 0.84255 0.34101 0.01908 0.0
H1197 H 0.88391 0.27939 0.01445 0.0
H1198 H 0.88898 0.27709 0.0589 0.0
H1199 H 0.90978 0.30023 0.03425 0.0
C1200 C 0.56644 0.90081 0.06004 0.0
C1201 C 0.56359 0.88507 0.08515 0.0
C1202 C 0.56995 0.89744 0.02611 0.0
C1203 C 0.57098 0.87791 0.01696 0.0
C1204 C 0.57124 0.8636 0.04287 0.0
C1205 C 0.56731 0.86722 0.07685 0.0
C1206 C 0.56985 0.91346 0.99973 0.0
C1207 C 0.57372 0.8434 0.0346 0.0
C1208 C 0.53789 0.85727 0.93632 0.0
C1209 C 0.5546 0.86968 0.91211 0.0
C1210 C 0.54339 0.85747 0.97054 0.0
C1211 C 0.5663 0.87032 0.98086 0.0
C1212 C 0.5835 0.88014 0.95581 0.0
C1213 C 0.57744 0.87992 0.92151 0.0
C1214 C 0.52436 0.84631 0.99599 0.0
C1215 C 0.60817 0.89269 0.96543 0.0
H1216 H 0.56416 0.91498 0.06657 0.0
H1217 H 0.56544 0.85515 0.09625 0.0
H1218 H 0.58447 0.91917 0.98237 0.0
H1219 H 0.5542 0.90461 0.98424 0.0
H1220 H 0.57054 0.92864 0.01127 0.0
H1221 H 0.58234 0.83984 0.05561 0.0
H1222 H 0.55671 0.82827 0.03144 0.0
H1223 H 0.58341 0.84597 0.01081 0.0
H1224 H 0.52022 0.84891 0.92888 0.0
H1225 H 0.59045 0.88932 0.90279 0.0
H1226 H 0.52321 0.85948 0.01093 0.0
H1227 H 0.52763 0.8358 0.01396 0.0
H1228 H 0.50773 0.83539 0.98362 0.0
H1229 H 0.61365 0.91072 0.97012 0.0
H1230 H 0.61878 0.89202 0.94458 0.0
H1231 H 0.61128 0.88562 0.98884 0.0
C1232 C 0.70464 0.56418 0.07219 0.0
C1233 C 0.68554 0.56528 0.08234 0.0
C1234 C 0.71101 0.56677 0.0377 0.0
C1235 C 0.69763 0.56997 0.01322 0.0
C1236 C 0.68047 0.57437 0.02433 0.0
C1237 C 0.67471 0.57203 0.05876 0.0
C1238 C 0.73049 0.56362 0.02715 0.0
C1239 C 0.66601 0.57841 0.99949 0.0
C1240 C 0.69981 0.57112 0.91664 0.0
C1241 C 0.68353 0.54859 0.90957 0.0
C1242 C 0.7067 0.57823 0.95037 0.0
C1243 C 0.69675 0.56249 0.97735 0.0
C1244 C 0.68207 0.53935 0.96971 0.0
C1245 C 0.67589 0.53274 0.93603 0.0
C1246 C 0.72338 0.60282 0.957 0.0
C1247 C 0.671 0.52173 0.99728 0.0
H1248 H 0.71324 0.55919 0.0904 0.0
H1249 H 0.66016 0.57328 0.06677 0.0
H1250 H 0.72406 0.5456 0.02075 0.0
H1251 H 0.73912 0.57393 0.00439 0.0
H1252 H 0.743 0.56831 0.04801 0.0
H1253 H 0.65512 0.58396 0.01233 0.0
H1254 H 0.67676 0.59145 0.98067 0.0
H1255 H 0.65493 0.56253 0.98546 0.0
H1256 H 0.70607 0.58345 0.89628 0.0
H1257 H 0.6638 0.51516 0.93063 0.0
H1258 H 0.73244 0.6053 0.9814 0.0
H1259 H 0.71425 0.61244 0.95791 0.0
H1260 H 0.73598 0.61005 0.93615 0.0
H1261 H 0.68398 0.522 0.01444 0.0
H1262 H 0.66075 0.50435 0.9869 0.0
H1263 H 0.65972 0.52554 0.01275 0.0
C1264 C 0.1087 0.67259 0.93747 0.0
C1265 C 0.12657 0.68363 0.9144 0.0
C1266 C 0.11153 0.67843 0.97187 0.0
C1267 C 0.1328 0.69586 0.98353 0.0
C1268 C 0.14973 0.7093 0.95948 0.0
C1269 C 0.14652 0.70287 0.92499 0.0
C1270 C 0.0927 0.66386 0.99622 0.0
C1271 C 0.17207 0.72898 0.97054 0.0
C1272 C 0.13152 0.69837 0.07992 0.0
C1273 C 0.13773 0.68223 0.08814 0.0
C1274 C 0.13217 0.70522 0.0459 0.0
C1275 C 0.1388 0.69535 0.01985 0.0
C1276 C 0.14729 0.68091 0.02882 0.0
C1277 C 0.14684 0.67476 0.06275 0.0
C1278 C 0.12419 0.72167 0.03788 0.0
C1279 C 0.1547 0.66994 0.0023 0.0
H1280 H 0.09312 0.65792 0.92911 0.0
H1281 H 0.16032 0.71161 0.90715 0.0
H1282 H 0.09753 0.65306 0.01098 0.0
H1283 H 0.08985 0.67452 0.01445 0.0
H1284 H 0.07653 0.65268 0.98288 0.0
H1285 H 0.18006 0.74148 0.94971 0.0
H1286 H 0.16993 0.73755 0.99298 0.0
H1287 H 0.18376 0.7228 0.97762 0.0
H1288 H 0.12475 0.70447 0.09948 0.0
H1289 H 0.15226 0.66274 0.06914 0.0
H1290 H 0.10549 0.71233 0.03546 0.0
H1291 H 0.13155 0.73087 0.01381 0.0
H1292 H 0.12868 0.73414 0.05873 0.0
H1293 H 0.13999 0.65833 0.98642 0.0
H1294 H 0.16196 0.66008 0.0137 0.0
H1295 H 0.16759 0.68293 0.98532 0.0
C1296 C 0.86963 0.56424 0.57826 0.0
C1297 C 0.88778 0.56097 0.58646 0.0
C1298 C 0.86592 0.56823 0.54434 0.0
C1299 C 0.88044 0.56844 0.51836 0.0
C1300 C 0.90027 0.56794 0.52746 0.0
C1301 C 0.90373 0.5644 0.56134 0.0
C1302 C 0.84544 0.57026 0.53617 0.0
C1303 C 0.91654 0.56839 0.50102 0.0
C1304 C 0.85983 0.53514 0.43782 0.0
C1305 C 0.87194 0.55184 0.41345 0.0
C1306 C 0.8602 0.54065 0.47207 0.0
C1307 C 0.87279 0.56359 0.48227 0.0
C1308 C 0.88227 0.58075 0.4571 0.0
C1309 C 0.88197 0.57466 0.42278 0.0
C1310 C 0.84948 0.52164 0.49762 0.0
C1311 C 0.89447 0.60544 0.46654 0.0
H1312 H 0.85739 0.56194 0.59765 0.0
H1313 H 0.91813 0.56248 0.56779 0.0
H1314 H 0.84789 0.58006 0.51254 0.0
H1315 H 0.83054 0.55313 0.53273 0.0
H1316 H 0.84157 0.57852 0.55734 0.0
H1317 H 0.93186 0.56935 0.51252 0.0
H1318 H 0.90798 0.55284 0.4853 0.0
H1319 H 0.922 0.58309 0.4839 0.0
H1320 H 0.85164 0.51747 0.43046 0.0
H1321 H 0.89114 0.58768 0.40396 0.0
H1322 H 0.83871 0.52456 0.51554 0.0
H1323 H 0.86291 0.52097 0.5126 0.0
H1324 H 0.83892 0.50491 0.48535 0.0
H1325 H 0.88777 0.60841 0.49046 0.0
H1326 H 0.89296 0.61574 0.446 0.0
H1327 H 0.91273 0.61141 0.47011 0.0
C1328 C 0.3141 0.88074 0.57662 0.0
C1329 C 0.32792 0.87179 0.58558 0.0
C1330 C 0.30806 0.88089 0.54238 0.0
C1331 C 0.31643 0.87229 0.5169 0.0
C1332 C 0.3281 0.8609 0.52667 0.0
C1333 C 0.33352 0.86068 0.56082 0.0
C1334 C 0.29439 0.89195 0.53342 0.0
C1335 C 0.33725 0.85121 0.50076 0.0
C1336 C 0.31047 0.86751 0.42127 0.0
C1337 C 0.33125 0.88621 0.41185 0.0
C1338 C 0.30356 0.86402 0.45556 0.0
C1339 C 0.318 0.87936 0.48067 0.0
C1340 C 0.3375 0.89963 0.4704 0.0
C1341 C 0.34375 0.90282 0.43617 0.0
C1342 C 0.28189 0.84293 0.4651 0.0
C1343 C 0.35335 0.91676 0.49591 0.0
H1344 H 0.30948 0.88913 0.59573 0.0
H1345 H 0.34378 0.85327 0.56785 0.0
H1346 H 0.30592 0.91036 0.52977 0.0
H1347 H 0.28464 0.88489 0.50965 0.0
H1348 H 0.28249 0.88979 0.55423 0.0
H1349 H 0.34448 0.84148 0.51272 0.0
H1350 H 0.32372 0.83987 0.483 0.0
H1351 H 0.35075 0.86514 0.48564 0.0
H1352 H 0.30054 0.85473 0.40252 0.0
H1353 H 0.35956 0.9176 0.4288 0.0
H1354 H 0.27429 0.8456 0.48828 0.0
H1355 H 0.28545 0.82903 0.47019 0.0
H1356 H 0.2694 0.83744 0.44408 0.0
H1357 H 0.34382 0.92141 0.51379 0.0
H1358 H 0.36667 0.93244 0.4836 0.0
H1359 H 0.36174 0.90929 0.51096 0.0
C1360 C 0.43766 0.33513 0.55958 0.0
C1361 C 0.44457 0.3243 0.58287 0.0
C1362 C 0.43527 0.32955 0.52508 0.0
C1363 C 0.43985 0.31259 0.51357 0.0
C1364 C 0.44329 0.29921 0.53776 0.0
C1365 C 0.44587 0.30538 0.57233 0.0
C1366 C 0.43099 0.344 0.50056 0.0
C1367 C 0.4467 0.27998 0.5268 0.0
C1368 C 0.43825 0.31057 0.41697 0.0
C1369 C 0.46068 0.32705 0.4097 0.0
C1370 C 0.43135 0.3036 0.45075 0.0
C1371 C 0.4472 0.31366 0.47757 0.0
C1372 C 0.47026 0.32857 0.4697 0.0
C1373 C 0.47667 0.33485 0.43598 0.0
C1374 C 0.40684 0.28672 0.45763 0.0
C1375 C 0.48799 0.33976 0.49709 0.0
H1376 H 0.43629 0.34956 0.56787 0.0
H1377 H 0.45104 0.29681 0.59031 0.0
H1378 H 0.44684 0.35532 0.48661 0.0
H1379 H 0.41802 0.33328 0.48164 0.0
H1380 H 0.42524 0.35463 0.51368 0.0
H1381 H 0.44229 0.26743 0.54753 0.0
H1382 H 0.43631 0.27133 0.50411 0.0
H1383 H 0.46473 0.28665 0.52011 0.0
H1384 H 0.42582 0.30422 0.39675 0.0
H1385 H 0.49418 0.34712 0.43041 0.0
H1386 H 0.39708 0.29569 0.45919 0.0
H1387 H 0.40462 0.2775 0.4818 0.0
H1388 H 0.39953 0.27427 0.43661 0.0
H1389 H 0.48411 0.35094 0.51268 0.0
H1390 H 0.50531 0.35013 0.48654 0.0
H1391 H 0.48793 0.32686 0.51419 0.0
C1392 C 0.14304 0.44347 0.58051 0.0
C1393 C 0.12459 0.44612 0.58928 0.0
C1394 C 0.14665 0.43977 0.5464 0.0
C1395 C 0.13173 0.43923 0.52084 0.0
C1396 C 0.11163 0.43901 0.53052 0.0
C1397 C 0.10829 0.44229 0.56457 0.0
C1398 C 0.16747 0.43849 0.53757 0.0
C1399 C 0.09493 0.43815 0.50454 0.0
C1400 C 0.15142 0.47341 0.44088 0.0
C1401 C 0.1398 0.45682 0.41617 0.0
C1402 C 0.15116 0.46767 0.47499 0.0
C1403 C 0.13918 0.4446 0.48473 0.0
C1404 C 0.13017 0.42766 0.45921 0.0
C1405 C 0.13036 0.43397 0.42503 0.0
C1406 C 0.16137 0.48648 0.50092 0.0
C1407 C 0.11858 0.40289 0.46812 0.0
H1408 H 0.15557 0.4461 0.59959 0.0
H1409 H 0.09369 0.44377 0.57148 0.0
H1410 H 0.16498 0.42863 0.514 0.0
H1411 H 0.18194 0.45582 0.53363 0.0
H1412 H 0.17202 0.43067 0.55857 0.0
H1413 H 0.0794 0.43645 0.51644 0.0
H1414 H 0.10295 0.45388 0.48916 0.0
H1415 H 0.08989 0.42372 0.48702 0.0
H1416 H 0.15919 0.49112 0.43389 0.0
H1417 H 0.12158 0.42104 0.40595 0.0
H1418 H 0.17248 0.48386 0.51859 0.0
H1419 H 0.14769 0.48648 0.51614 0.0
H1420 H 0.17149 0.5034 0.48898 0.0
H1421 H 0.12535 0.39996 0.492 0.0
H1422 H 0.1206 0.39304 0.44737 0.0
H1423 H 0.10019 0.39635 0.47149 0.0
C1424 C 0.70381 0.14126 0.4255 0.0
C1425 C 0.68283 0.12271 0.41649 0.0
C1426 C 0.71102 0.14475 0.45965 0.0
C1427 C 0.69665 0.12961 0.48501 0.0
C1428 C 0.67691 0.10945 0.47508 0.0
C1429 C 0.67038 0.10623 0.44099 0.0
C1430 C 0.73295 0.16567 0.46875 0.0
C1431 C 0.66108 0.09252 0.50085 0.0
C1432 C 0.70032 0.12775 0.58077 0.0
C1433 C 0.68664 0.13686 0.58975 0.0
C1434 C 0.70658 0.12784 0.54659 0.0
C1435 C 0.69853 0.13682 0.5212 0.0
C1436 C 0.68716 0.14849 0.53108 0.0
C1437 C 0.68152 0.14846 0.56519 0.0
C1438 C 0.72005 0.11659 0.53753 0.0
C1439 C 0.67844 0.15866 0.50528 0.0
H1440 H 0.71368 0.15392 0.40657 0.0
H1441 H 0.6544 0.09158 0.43389 0.0
H1442 H 0.72987 0.17998 0.47278 0.0
H1443 H 0.74034 0.1632 0.49234 0.0
H1444 H 0.74545 0.17046 0.44785 0.0
H1445 H 0.64742 0.07696 0.48875 0.0
H1446 H 0.67055 0.08758 0.51839 0.0
H1447 H 0.65312 0.10028 0.51624 0.0
H1448 H 0.70459 0.11901 0.59975 0.0
H1449 H 0.6714 0.156 0.57227 0.0
H1450 H 0.72992 0.12372 0.51387 0.0
H1451 H 0.70837 0.09823 0.53364 0.0
H1452 H 0.73181 0.11849 0.55839 0.0
H1453 H 0.69216 0.16997 0.48776 0.0
H1454 H 0.67142 0.16854 0.51735 0.0
H1455 H 0.66488 0.14497 0.48989 0.0
C1456 C 0.56617 0.70505 0.42632 0.0
C1457 C 0.56977 0.68774 0.41455 0.0
C1458 C 0.56802 0.71026 0.4612 0.0
C1459 C 0.57303 0.69749 0.48439 0.0
C1460 C 0.58009 0.6826 0.4717 0.0
C1461 C 0.57834 0.67791 0.43689 0.0
C1462 C 0.56194 0.72743 0.47354 0.0
C1463 C 0.5862 0.66901 0.49518 0.0
C1464 C 0.57176 0.69683 0.58119 0.0
C1465 C 0.54981 0.67873 0.58691 0.0
C1466 C 0.57927 0.70484 0.54796 0.0
C1467 C 0.56456 0.69421 0.52006 0.0
C1468 C 0.54184 0.67727 0.52626 0.0
C1469 C 0.53478 0.66998 0.55945 0.0
C1470 C 0.60329 0.72367 0.54288 0.0
C1471 C 0.5253 0.66537 0.49763 0.0
H1472 H 0.55966 0.71279 0.40905 0.0
H1473 H 0.58136 0.66469 0.42764 0.0
H1474 H 0.54374 0.71874 0.4804 0.0
H1475 H 0.57188 0.73632 0.49645 0.0
H1476 H 0.56492 0.74009 0.45353 0.0
H1477 H 0.59414 0.66057 0.48137 0.0
H1478 H 0.59804 0.68 0.51514 0.0
H1479 H 0.57067 0.6558 0.50792 0.0
H1480 H 0.58343 0.70395 0.60229 0.0
H1481 H 0.51756 0.65644 0.5637 0.0
H1482 H 0.60532 0.73306 0.51895 0.0
H1483 H 0.61467 0.71645 0.54197 0.0
H1484 H 0.60883 0.73574 0.56446 0.0
H1485 H 0.52397 0.67785 0.48127 0.0
H1486 H 0.50808 0.65304 0.50694 0.0
H1487 H 0.5314 0.65615 0.48159 0.0
C1488 C 0.53059 0.12411 0.20667 0.0
C1489 C 0.52189 0.13523 0.22608 0.0
C1490 C 0.55 0.12354 0.21694 0.0
C1491 C 0.56147 0.13501 0.24685 0.0
C1492 C 0.55281 0.14636 0.26654 0.0
C1493 C 0.5329 0.14604 0.25619 0.0
C1494 C 0.55819 0.11061 0.19578 0.0
C1495 C 0.56484 0.15925 0.29815 0.0
C1496 C 0.60132 0.11912 0.29057 0.0
C1497 C 0.62233 0.13499 0.27698 0.0
C1498 C 0.58134 0.11863 0.28046 0.0
C1499 C 0.58254 0.1351 0.25739 0.0
C1500 C 0.60384 0.1514 0.24398 0.0
C1501 C 0.62344 0.15083 0.25339 0.0
C1502 C 0.55894 0.10036 0.29425 0.0
C1503 C 0.60597 0.16971 0.22021 0.0
H1504 H 0.52213 0.11563 0.18345 0.0
H1505 H 0.52633 0.15481 0.27111 0.0
H1506 H 0.57524 0.12236 0.18545 0.0
H1507 H 0.55972 0.09807 0.21178 0.0
H1508 H 0.54665 0.10158 0.17426 0.0
H1509 H 0.55623 0.16762 0.3102 0.0
H1510 H 0.56583 0.14766 0.31688 0.0
H1511 H 0.58246 0.17234 0.29182 0.0
H1512 H 0.60046 0.10682 0.30876 0.0
H1513 H 0.63976 0.16329 0.24324 0.0
H1514 H 0.54737 0.09089 0.27301 0.0
H1515 H 0.55075 0.10804 0.30921 0.0
H1516 H 0.56082 0.08819 0.31069 0.0
H1517 H 0.59627 0.16205 0.19664 0.0
H1518 H 0.62385 0.18173 0.21329 0.0
H1519 H 0.59865 0.17932 0.2322 0.0
C1520 C 0.48779 0.60292 0.29885 0.0
C1521 C 0.49503 0.62267 0.2797 0.0
C1522 C 0.46811 0.58269 0.29009 0.0
C1523 C 0.45487 0.58242 0.26226 0.0
C1524 C 0.46201 0.60243 0.24303 0.0
C1525 C 0.48225 0.62222 0.25162 0.0
C1526 C 0.46164 0.56157 0.31044 0.0
C1527 C 0.44808 0.60303 0.21374 0.0
C1528 C 0.41435 0.52744 0.21752 0.0
C1529 C 0.39365 0.52162 0.23297 0.0
C1530 C 0.43449 0.54669 0.22769 0.0
C1531 C 0.43377 0.56111 0.25286 0.0
C1532 C 0.41284 0.55529 0.26858 0.0
C1533 C 0.39307 0.53533 0.2589 0.0
C1534 C 0.45651 0.55169 0.21127 0.0
C1535 C 0.4112 0.57055 0.29472 0.0
H1536 H 0.49771 0.60317 0.32046 0.0
H1537 H 0.48771 0.63754 0.237 0.0
H1538 H 0.44493 0.55549 0.32263 0.0
H1539 H 0.46001 0.5479 0.2934 0.0
H1540 H 0.47423 0.56441 0.33048 0.0
H1541 H 0.45539 0.62018 0.20241 0.0
H1542 H 0.44684 0.59108 0.19369 0.0
H1543 H 0.4306 0.59752 0.22241 0.0
H1544 H 0.41484 0.51684 0.1975 0.0
H1545 H 0.377 0.53098 0.27052 0.0
H1546 H 0.46923 0.55439 0.23099 0.0
H1547 H 0.46341 0.56749 0.19619 0.0
H1548 H 0.45444 0.53781 0.19425 0.0
H1549 H 0.42247 0.57294 0.3165 0.0
H1550 H 0.39367 0.56373 0.30433 0.0
H1551 H 0.417 0.58749 0.2835 0.0
C1552 C 0.86474 0.47675 0.24659 0.0
C1553 C 0.87703 0.48998 0.27435 0.0
C1554 C 0.86506 0.45685 0.23828 0.0
C1555 C 0.87867 0.45059 0.25744 0.0
C1556 C 0.89179 0.46446 0.28467 0.0
C1557 C 0.89043 0.4837 0.29321 0.0
C1558 C 0.85035 0.4422 0.20965 0.0
C1559 C 0.90722 0.45896 0.30489 0.0
C1560 C 0.86521 0.38923 0.25811 0.0
C1561 C 0.87935 0.38939 0.23228 0.0
C1562 C 0.86461 0.40899 0.26633 0.0
C1563 C 0.87915 0.4295 0.24916 0.0
C1564 C 0.89414 0.42984 0.22404 0.0
C1565 C 0.89371 0.40968 0.21543 0.0
C1566 C 0.84794 0.40775 0.2926 0.0
C1567 C 0.91057 0.45148 0.20613 0.0
H1568 H 0.85418 0.48146 0.23224 0.0
H1569 H 0.90003 0.49393 0.31461 0.0
H1570 H 0.86094 0.44049 0.18986 0.0
H1571 H 0.83849 0.42495 0.21928 0.0
H1572 H 0.84037 0.44916 0.19774 0.0
H1573 H 0.91746 0.47232 0.32373 0.0
H1574 H 0.89708 0.44273 0.31855 0.0
H1575 H 0.91887 0.45684 0.28762 0.0
H1576 H 0.85389 0.37344 0.2708 0.0
H1577 H 0.90471 0.40981 0.19551 0.0
H1578 H 0.83652 0.41314 0.28118 0.0
H1579 H 0.85702 0.41951 0.3138 0.0
H1580 H 0.83748 0.39043 0.3031 0.0
H1581 H 0.90116 0.45777 0.19096 0.0
H1582 H 0.92216 0.44917 0.18894 0.0
H1583 H 0.92086 0.46477 0.22498 0.0
C1584 C 0.4934 0.89293 0.23616 0.0
C1585 C 0.49233 0.8727 0.22657 0.0
C1586 C 0.47364 0.89337 0.24495 0.0
C1587 C 0.45244 0.87302 0.2444 0.0
C1588 C 0.45145 0.85251 0.23498 0.0
C1589 C 0.47143 0.85266 0.22587 0.0
C1590 C 0.47541 0.91561 0.2545 0.0
C1591 C 0.4293 0.83042 0.23452 0.0
C1592 C 0.40468 0.86953 0.29848 0.0
C1593 C 0.3909 0.87185 0.27427 0.0
C1594 C 0.42469 0.8699 0.28908 0.0
C1595 C 0.43136 0.87301 0.25462 0.0
C1596 C 0.41767 0.87563 0.23003 0.0
C1597 C 0.39748 0.87483 0.24011 0.0
C1598 C 0.43858 0.86672 0.31605 0.0
C1599 C 0.42438 0.8793 0.1931 0.0
H1600 H 0.50963 0.90845 0.23621 0.0
H1601 H 0.47073 0.8371 0.21803 0.0
H1602 H 0.46454 0.9191 0.23754 0.0
H1603 H 0.46919 0.9147 0.28077 0.0
H1604 H 0.49306 0.92997 0.25284 0.0
H1605 H 0.43146 0.81595 0.22688 0.0
H1606 H 0.42141 0.8269 0.26005 0.0
H1607 H 0.41735 0.83156 0.21666 0.0
H1608 H 0.39968 0.86714 0.32494 0.0
H1609 H 0.38697 0.87677 0.22133 0.0
H1610 H 0.45595 0.88155 0.31658 0.0
H1611 H 0.44012 0.85167 0.31003 0.0
H1612 H 0.43104 0.86446 0.34173 0.0
H1613 H 0.44148 0.89437 0.1903 0.0
H1614 H 0.41229 0.88174 0.1773 0.0
H1615 H 0.42526 0.86457 0.18316 0.0
C1616 C 0.60142 0.4828 0.1977 0.0
C1617 C 0.621 0.49015 0.21733 0.0
C1618 C 0.58097 0.46347 0.20675 0.0
C1619 C 0.58029 0.45067 0.23543 0.0
C1620 C 0.6001 0.45793 0.25521 0.0
C1621 C 0.62013 0.47783 0.24626 0.0
C1622 C 0.56008 0.45684 0.1857 0.0
C1623 C 0.60026 0.44444 0.28544 0.0
C1624 C 0.52457 0.41068 0.27903 0.0
C1625 C 0.51904 0.38987 0.26433 0.0
C1626 C 0.54403 0.43071 0.26899 0.0
C1627 C 0.55884 0.42972 0.24477 0.0
C1628 C 0.55326 0.40866 0.22982 0.0
C1629 C 0.53314 0.38902 0.23932 0.0
C1630 C 0.54881 0.45289 0.28451 0.0
C1631 C 0.56891 0.40674 0.20471 0.0
H1632 H 0.60196 0.49232 0.17542 0.0
H1633 H 0.63531 0.48338 0.2613 0.0
H1634 H 0.55412 0.44004 0.17397 0.0
H1635 H 0.54621 0.45538 0.20214 0.0
H1636 H 0.56317 0.46925 0.16525 0.0
H1637 H 0.61724 0.45192 0.29743 0.0
H1638 H 0.58799 0.44346 0.30474 0.0
H1639 H 0.59489 0.42686 0.27754 0.0
H1640 H 0.5136 0.41131 0.29833 0.0
H1641 H 0.52897 0.37283 0.22834 0.0
H1642 H 0.55173 0.46536 0.26427 0.0
H1643 H 0.56444 0.45999 0.30003 0.0
H1644 H 0.53472 0.45099 0.3009 0.0
H1645 H 0.57157 0.41771 0.18242 0.0
H1646 H 0.56225 0.38911 0.19573 0.0
H1647 H 0.58571 0.41272 0.21658 0.0
C1648 C 0.11721 0.5978 0.21554 0.0
C1649 C 0.13193 0.6183 0.23161 0.0
C1650 C 0.11665 0.57766 0.22477 0.0
C1651 C 0.13185 0.57822 0.24971 0.0
C1652 C 0.14671 0.59894 0.26613 0.0
C1653 C 0.14626 0.61868 0.25731 0.0
C1654 C 0.09989 0.55583 0.20765 0.0
C1655 C 0.16361 0.6004 0.29217 0.0
C1656 C 0.12088 0.52451 0.29509 0.0
C1657 C 0.13406 0.51798 0.27619 0.0
C1658 C 0.11948 0.54368 0.28616 0.0
C1659 C 0.13231 0.55718 0.25843 0.0
C1660 C 0.14567 0.55063 0.23921 0.0
C1661 C 0.14605 0.53084 0.24796 0.0
C1662 C 0.10434 0.54951 0.30649 0.0
C1663 C 0.16006 0.56488 0.21002 0.0
H1664 H 0.10606 0.5975 0.19573 0.0
H1665 H 0.15785 0.63462 0.26939 0.0
H1666 H 0.10902 0.54925 0.19244 0.0
H1667 H 0.0898 0.54282 0.22698 0.0
H1668 H 0.08813 0.558 0.19065 0.0
H1669 H 0.17422 0.61782 0.30219 0.0
H1670 H 0.15471 0.58889 0.3137 0.0
H1671 H 0.17486 0.59482 0.2807 0.0
H1672 H 0.11149 0.51453 0.31682 0.0
H1673 H 0.15643 0.52592 0.23357 0.0
H1674 H 0.09251 0.55143 0.28937 0.0
H1675 H 0.11468 0.56591 0.31961 0.0
H1676 H 0.09431 0.53642 0.3258 0.0
H1677 H 0.14925 0.56638 0.19038 0.0
H1678 H 0.16985 0.55772 0.19809 0.0
H1679 H 0.17207 0.58224 0.21908 0.0
C1680 C 0.4874 0.88888 0.78969 0.0
C1681 C 0.49355 0.87501 0.77188 0.0
C1682 C 0.46803 0.88993 0.78076 0.0
C1683 C 0.45393 0.87603 0.75426 0.0
C1684 C 0.46007 0.86194 0.7362 0.0
C1685 C 0.48008 0.86193 0.74483 0.0
C1686 C 0.46266 0.90588 0.79973 0.0
C1687 C 0.44518 0.8464 0.70843 0.0
C1688 C 0.39252 0.86259 0.75437 0.0
C1689 C 0.39253 0.87599 0.72749 0.0
C1690 C 0.41234 0.86224 0.76317 0.0
C1691 C 0.43277 0.87628 0.74547 0.0
C1692 C 0.43298 0.89052 0.7192 0.0
C1693 C 0.41276 0.88984 0.71009 0.0
C1694 C 0.41125 0.84634 0.79067 0.0
C1695 C 0.45453 0.90642 0.70061 0.0
H1696 H 0.49786 0.89909 0.81053 0.0
H1697 H 0.48471 0.851 0.73133 0.0
H1698 H 0.46047 0.91707 0.7816 0.0
H1699 H 0.44649 0.89613 0.81371 0.0
H1700 H 0.47613 0.91659 0.81815 0.0
H1701 H 0.45202 0.83606 0.69747 0.0
H1702 H 0.42799 0.83487 0.71858 0.0
H1703 H 0.44334 0.8564 0.68779 0.0
H1704 H 0.37681 0.85167 0.76754 0.0
H1705 H 0.41282 0.90028 0.68936 0.0
H1706 H 0.42314 0.85602 0.81144 0.0
H1707 H 0.41657 0.83461 0.78028 0.0
H1708 H 0.39398 0.83621 0.80152 0.0
H1709 H 0.46793 0.91723 0.719 0.0
H1710 H 0.45213 0.91752 0.68251 0.0
H1711 H 0.46072 0.8966 0.68632 0.0
C1712 C 0.62245 0.47553 0.73846 0.0
C1713 C 0.62172 0.48938 0.76401 0.0
C1714 C 0.60276 0.45549 0.72884 0.0
C1715 C 0.58176 0.44974 0.74422 0.0
C1716 C 0.58088 0.46429 0.769 0.0
C1717 C 0.60095 0.48364 0.77912 0.0
C1718 C 0.60456 0.4401 0.70311 0.0
C1719 C 0.55876 0.45934 0.78503 0.0
C1720 C 0.5281 0.40773 0.69774 0.0
C1721 C 0.52074 0.38804 0.71709 0.0
C1722 C 0.54768 0.428 0.7066 0.0
C1723 C 0.56073 0.42839 0.73478 0.0
C1724 C 0.55349 0.40844 0.7542 0.0
C1725 C 0.53334 0.3886 0.74548 0.0
C1726 C 0.55427 0.44905 0.686 0.0
C1727 C 0.56723 0.40796 0.78388 0.0
H1728 H 0.6386 0.47984 0.72713 0.0
H1729 H 0.60036 0.49438 0.79884 0.0
H1730 H 0.59869 0.42322 0.71458 0.0
H1731 H 0.59343 0.43761 0.6811 0.0
H1732 H 0.62215 0.44688 0.69379 0.0
H1733 H 0.56074 0.47327 0.80185 0.0
H1734 H 0.54617 0.45659 0.76507 0.0
H1735 H 0.55177 0.44359 0.80022 0.0
H1736 H 0.51836 0.40742 0.67586 0.0
H1737 H 0.52779 0.37333 0.76028 0.0
H1738 H 0.57104 0.45509 0.67407 0.0
H1739 H 0.55579 0.46278 0.70281 0.0
H1740 H 0.54179 0.44614 0.66573 0.0
H1741 H 0.58477 0.41345 0.77555 0.0
H1742 H 0.55985 0.39087 0.79539 0.0
H1743 H 0.56832 0.42 0.80368 0.0
C1744 C 0.12323 0.59988 0.79422 0.0
C1745 C 0.13715 0.62024 0.77718 0.0
C1746 C 0.12256 0.57973 0.78464 0.0
C1747 C 0.13688 0.58014 0.7583 0.0
C1748 C 0.15117 0.60077 0.74125 0.0
C1749 C 0.15079 0.62049 0.75046 0.0
C1750 C 0.1064 0.55798 0.80253 0.0
C1751 C 0.1672 0.60211 0.71376 0.0
C1752 C 0.15008 0.53203 0.75607 0.0
C1753 C 0.13697 0.51924 0.72852 0.0
C1754 C 0.15047 0.55207 0.76578 0.0
C1755 C 0.13673 0.55895 0.74836 0.0
C1756 C 0.12288 0.5456 0.72125 0.0
C1757 C 0.12354 0.5262 0.71122 0.0
C1758 C 0.16601 0.56618 0.79412 0.0
C1759 C 0.1073 0.55175 0.70285 0.0
H1760 H 0.11257 0.59962 0.81476 0.0
H1761 H 0.16173 0.63629 0.73752 0.0
H1762 H 0.0953 0.54508 0.78372 0.0
H1763 H 0.11597 0.55116 0.81595 0.0
H1764 H 0.09558 0.56034 0.82126 0.0
H1765 H 0.17789 0.6196 0.70402 0.0
H1766 H 0.1784 0.59599 0.72367 0.0
H1767 H 0.15753 0.59097 0.69227 0.0
H1768 H 0.16063 0.52679 0.76925 0.0
H1769 H 0.11329 0.51631 0.69002 0.0
H1770 H 0.15604 0.56777 0.81505 0.0
H1771 H 0.17781 0.58352 0.78477 0.0
H1772 H 0.17608 0.55884 0.80447 0.0
H1773 H 0.09616 0.55379 0.72129 0.0
H1774 H 0.09652 0.53879 0.68385 0.0
H1775 H 0.11736 0.56817 0.68964 0.0
C1776 C 0.60004 0.11684 0.71216 0.0
C1777 C 0.62003 0.1306 0.73015 0.0
C1778 C 0.57966 0.11597 0.7208 0.0
C1779 C 0.57946 0.12991 0.74721 0.0
C1780 C 0.59965 0.14383 0.76554 0.0
C1781 C 0.61963 0.14367 0.75718 0.0
C1782 C 0.55838 0.1002 0.70153 0.0
C1783 C 0.60031 0.15941 0.79324 0.0
C1784 C 0.5322 0.14434 0.74561 0.0
C1785 C 0.51842 0.13105 0.77228 0.0
C1786 C 0.55227 0.14433 0.73739 0.0
C1787 C 0.55816 0.13004 0.75544 0.0
C1788 C 0.54372 0.11591 0.78148 0.0
C1789 C 0.52429 0.11695 0.79004 0.0
C1790 C 0.56751 0.16011 0.7101 0.0
C1791 C 0.54882 0.09975 0.80042 0.0
H1792 H 0.6003 0.10663 0.69133 0.0
H1793 H 0.63516 0.15452 0.77082 0.0
H1794 H 0.54474 0.08921 0.71949 0.0
H1795 H 0.55235 0.11012 0.68715 0.0
H1796 H 0.56106 0.08929 0.68343 0.0
H1797 H 0.61741 0.16945 0.80464 0.0
H1798 H 0.5951 0.17122 0.78284 0.0
H1799 H 0.58813 0.14949 0.81359 0.0
H1800 H 0.52779 0.15545 0.73217 0.0
H1801 H 0.51358 0.10658 0.81058 0.0
H1802 H 0.56966 0.15031 0.68947 0.0
H1803 H 0.58455 0.17159 0.72078 0.0
H1804 H 0.56078 0.17051 0.69898 0.0
H1805 H 0.55132 0.08878 0.78222 0.0
H1806 H 0.53507 0.08881 0.81831 0.0
H1807 H 0.56476 0.10935 0.81497 0.0
C1808 C 0.40038 0.51712 0.74939 0.0
C1809 C 0.38991 0.51589 0.7805 0.0
C1810 C 0.42088 0.53655 0.74046 0.0
C1811 C 0.43066 0.55543 0.76266 0.0
C1812 C 0.41999 0.55424 0.794 0.0
C1813 C 0.39998 0.53436 0.80276 0.0
C1814 C 0.43207 0.53687 0.70728 0.0
C1815 C 0.42936 0.57419 0.8179 0.0
C1816 C 0.49247 0.60185 0.75336 0.0
C1817 C 0.49039 0.61748 0.73297 0.0
C1818 C 0.4732 0.58133 0.76277 0.0
C1819 C 0.45141 0.57685 0.75246 0.0
C1820 C 0.44936 0.59302 0.7326 0.0
C1821 C 0.46892 0.61291 0.72251 0.0
C1822 C 0.47619 0.56423 0.78299 0.0
C1823 C 0.42649 0.58935 0.72201 0.0
H1824 H 0.39274 0.50276 0.73232 0.0
H1825 H 0.39185 0.53348 0.82679 0.0
H1826 H 0.43217 0.54981 0.69018 0.0
H1827 H 0.44997 0.54161 0.71172 0.0
H1828 H 0.42332 0.52024 0.69419 0.0
H1829 H 0.419 0.57053 0.84127 0.0
H1830 H 0.44691 0.57915 0.82531 0.0
H1831 H 0.43003 0.58894 0.80492 0.0
H1832 H 0.50919 0.60529 0.76085 0.0
H1833 H 0.46743 0.62505 0.70658 0.0
H1834 H 0.46869 0.54797 0.76897 0.0
H1835 H 0.46709 0.56085 0.80751 0.0
H1836 H 0.49427 0.57001 0.78818 0.0
H1837 H 0.41784 0.57423 0.70548 0.0
H1838 H 0.42778 0.6041 0.7081 0.0
H1839 H 0.41564 0.58613 0.74468 0.0
C1840 C 0.85506 0.38682 0.76991 0.0
C1841 C 0.8753 0.38676 0.7751 0.0
C1842 C 0.85522 0.40675 0.76044 0.0
C1843 C 0.87616 0.42704 0.75603 0.0
C1844 C 0.89667 0.42692 0.76109 0.0
C1845 C 0.89598 0.40674 0.77073 0.0
C1846 C 0.83299 0.40612 0.75537 0.0
C1847 C 0.91933 0.44811 0.75647 0.0
C1848 C 0.87635 0.47285 0.70085 0.0
C1849 C 0.87593 0.48771 0.72505 0.0
C1850 C 0.87661 0.4532 0.7106 0.0
C1851 C 0.87654 0.44824 0.74547 0.0
C1852 C 0.87636 0.4633 0.77009 0.0
C1853 C 0.876 0.48284 0.75958 0.0
C1854 C 0.87673 0.43761 0.68352 0.0
C1855 C 0.87638 0.45867 0.80752 0.0
H1856 H 0.8391 0.37132 0.77375 0.0
H1857 H 0.91159 0.4066 0.77505 0.0
H1858 H 0.83188 0.41828 0.77282 0.0
H1859 H 0.83194 0.41138 0.72912 0.0
H1860 H 0.81821 0.38903 0.75994 0.0
H1861 H 0.93369 0.44518 0.76135 0.0
H1862 H 0.92083 0.4546 0.73024 0.0
H1863 H 0.92074 0.4615 0.77391 0.0
H1864 H 0.87628 0.47645 0.67409 0.0
H1865 H 0.87573 0.49427 0.77841 0.0
H1866 H 0.8614 0.42067 0.68595 0.0
H1867 H 0.89162 0.43536 0.68685 0.0
H1868 H 0.87718 0.44409 0.65752 0.0
H1869 H 0.86106 0.44242 0.8141 0.0
H1870 H 0.87675 0.47228 0.82344 0.0
H1871 H 0.89128 0.45696 0.81393 0.0
loop_
_geom_bond_atom_site_label_1
_geom_bond_atom_site_label_2
_geom_bond_distance
_geom_bond_site_symmetry_2
_ccdc_geom_bond_type
Co0 O1 2.216 . S
Co0 O2 2.091 . S
Co0 O4 2.004 . S
Co0 O10 2.021 . S
Co0 O12 2.137 . S
Co0 O13 2.244 . S
O1 Co0 2.216 . S
O1 C8 1.247 . S
O2 Co0 2.091 . S
O2 C8 1.261 . S
C3 O12 1.247 . S
C3 O13 1.272 . S
O4 Co0 2.004 . S
O4 C9 1.259 . S
Co5 O6 2.061 . S
Co5 O11 2.052 . S
Co5 O13 2.135 . S
O6 Co5 2.061 . S
O6 C9 1.235 . S
C7 O10 1.238 . S
C7 O11 1.241 . S
C8 O1 1.247 . S
C8 O2 1.261 . S
C9 O4 1.259 . S
C9 O6 1.235 . S
O10 Co0 2.021 . S
O10 C7 1.238 . S
O11 Co5 2.052 . S
O11 C7 1.241 . S
O12 Co0 2.137 . S
O12 C3 1.247 . S
O13 Co0 2.244 . S
O13 C3 1.272 . S
O13 Co5 2.135 . S
Co14 O15 2.216 . S
Co14 O16 2.091 . S
Co14 O18 2.004 . S
Co14 O24 2.021 . S
Co14 O26 2.137 . S
Co14 O27 2.244 . S
O15 Co14 2.216 . S
O15 C22 1.247 . S
O16 Co14 2.091 . S
O16 C22 1.261 . S
C17 O26 1.247 . S
C17 O27 1.272 . S
O18 Co14 2.004 . S
O18 C23 1.259 . S
Co19 O20 2.061 . S
Co19 O25 2.052 . S
Co19 O27 2.135 . S
O20 Co19 2.061 . S
O20 C23 1.235 . S
C21 O24 1.238 . S
C21 O25 1.241 . S
C22 O15 1.247 . S
C22 O16 1.261 . S
C23 O18 1.259 . S
C23 O20 1.235 . S
O24 Co14 2.021 . S
O24 C21 1.238 . S
O25 Co19 2.052 . S
O25 C21 1.241 . S
O26 Co14 2.137 . S
O26 C17 1.247 . S
O27 Co14 2.244 . S
O27 C17 1.272 . S
O27 Co19 2.135 . S
Co28 O29 2.216 . S
Co28 O30 2.091 . S
Co28 O32 2.004 . S
Co28 O38 2.021 . S
Co28 O40 2.137 . S
Co28 O41 2.244 . S
O29 Co28 2.216 . S
O29 C36 1.247 . S
O30 Co28 2.091 . S
O30 C36 1.261 . S
C31 O40 1.247 . S
C31 O41 1.272 . S
O32 Co28 2.004 . S
O32 C37 1.259 . S
Co33 O34 2.061 . S
Co33 O39 2.052 . S
Co33 O41 2.135 . S
O34 Co33 2.061 . S
O34 C37 1.235 . S
C35 O38 1.238 . S
C35 O39 1.241 . S
C36 O29 1.247 . S
C36 O30 1.261 . S
C37 O32 1.259 . S
C37 O34 1.235 . S
O38 Co28 2.021 . S
O38 C35 1.238 . S
O39 Co33 2.052 . S
O39 C35 1.241 . S
O40 Co28 2.137 . S
O40 C31 1.247 . S
O41 Co28 2.244 . S
O41 C31 1.272 . S
O41 Co33 2.135 . S
Co42 O43 2.216 . S
Co42 O44 2.091 . S
Co42 O46 2.004 . S
Co42 O52 2.021 . S
Co42 O54 2.137 . S
Co42 O55 2.244 . S
O43 Co42 2.216 . S
O43 C50 1.247 . S
O44 Co42 2.091 . S
O44 C50 1.261 . S
C45 O54 1.247 . S
C45 O55 1.272 . S
O46 Co42 2.004 . S
O46 C51 1.259 . S
Co47 O48 2.061 . S
Co47 O53 2.052 . S
Co47 O55 2.135 . S
O48 Co47 2.061 . S
O48 C51 1.235 . S
C49 O52 1.238 . S
C49 O53 1.241 . S
C50 O43 1.247 . S
C50 O44 1.261 . S
C51 O46 1.259 . S
C51 O48 1.235 . S
O52 Co42 2.021 . S
O52 C49 1.238 . S
O53 Co47 2.052 . S
O53 C49 1.241 . S
O54 Co42 2.137 . S
O54 C45 1.247 . S
O55 Co42 2.244 . S
O55 C45 1.272 . S
O55 Co47 2.135 . S
Co56 O57 2.216 . S
Co56 O58 2.091 . S
Co56 O60 2.004 . S
Co56 O66 2.021 . S
Co56 O68 2.137 . S
Co56 O69 2.244 . S
O57 Co56 2.216 . S
O57 C64 1.247 . S
O58 Co56 2.091 . S
O58 C64 1.261 . S
C59 O68 1.247 . S
C59 O69 1.272 . S
O60 Co56 2.004 . S
O60 C65 1.259 . S
Co61 O62 2.061 . S
Co61 O67 2.052 . S
Co61 O69 2.135 . S
O62 Co61 2.061 . S
O62 C65 1.235 . S
C63 O66 1.238 . S
C63 O67 1.241 . S
C64 O57 1.247 . S
C64 O58 1.261 . S
C65 O60 1.259 . S
C65 O62 1.235 . S
O66 Co56 2.021 . S
O66 C63 1.238 . S
O67 Co61 2.052 . S
O67 C63 1.241 . S
O68 Co56 2.137 . S
O68 C59 1.247 . S
O69 Co56 2.244 . S
O69 C59 1.272 . S
O69 Co61 2.135 . S
Co70 O71 2.216 . S
Co70 O72 2.091 . S
Co70 O74 2.004 . S
Co70 O80 2.021 . S
Co70 O82 2.137 . S
Co70 O83 2.244 . S
O71 Co70 2.216 . S
O71 C78 1.247 . S
O72 Co70 2.091 . S
O72 C78 1.261 . S
C73 O82 1.247 . S
C73 O83 1.272 . S
O74 Co70 2.004 . S
O74 C79 1.259 . S
Co75 O76 2.061 . S
Co75 O81 2.052 . S
Co75 O83 2.135 . S
O76 Co75 2.061 . S
O76 C79 1.235 . S
C77 O80 1.238 . S
C77 O81 1.241 . S
C78 O71 1.247 . S
C78 O72 1.261 . S
C79 O74 1.259 . S
C79 O76 1.235 . S
O80 Co70 2.021 . S
O80 C77 1.238 . S
O81 Co75 2.052 . S
O81 C77 1.241 . S
O82 Co70 2.137 . S
O82 C73 1.247 . S
O83 Co70 2.244 . S
O83 C73 1.272 . S
O83 Co75 2.135 . S
Co84 O85 2.216 . S
Co84 O86 2.091 . S
Co84 O88 2.004 . S
Co84 O94 2.021 . S
Co84 O96 2.137 . S
Co84 O97 2.244 . S
O85 Co84 2.216 . S
O85 C92 1.247 . S
O86 Co84 2.091 . S
O86 C92 1.261 . S
C87 O96 1.247 . S
C87 O97 1.272 . S
O88 Co84 2.004 . S
O88 C93 1.259 . S
Co89 O90 2.061 . S
Co89 O95 2.052 . S
Co89 O97 2.135 . S
O90 Co89 2.061 . S
O90 C93 1.235 . S
C91 O94 1.238 . S
C91 O95 1.241 . S
C92 O85 1.247 . S
C92 O86 1.261 . S
C93 O88 1.259 . S
C93 O90 1.235 . S
O94 Co84 2.021 . S
O94 C91 1.238 . S
O95 Co89 2.052 . S
O95 C91 1.241 . S
O96 Co84 2.137 . S
O96 C87 1.247 . S
O97 Co84 2.244 . S
O97 C87 1.272 . S
O97 Co89 2.135 . S
Co98 O99 2.216 . S
Co98 O100 2.091 . S
Co98 O102 2.004 . S
Co98 O108 2.021 . S
Co98 O110 2.137 . S
Co98 O111 2.244 . S
O99 Co98 2.216 . S
O99 C106 1.247 . S
O100 Co98 2.091 . S
O100 C106 1.261 . S
C101 O110 1.247 . S
C101 O111 1.272 . S
O102 Co98 2.004 . S
O102 C107 1.259 . S
Co103 O104 2.061 . S
Co103 O109 2.052 . S
Co103 O111 2.135 . S
O104 Co103 2.061 . S
O104 C107 1.235 . S
C105 O108 1.238 . S
C105 O109 1.241 . S
C106 O99 1.247 . S
C106 O100 1.261 . S
C107 O102 1.259 . S
C107 O104 1.235 . S
O108 Co98 2.021 . S
O108 C105 1.238 . S
O109 Co103 2.052 . S
O109 C105 1.241 . S
O110 Co98 2.137 . S
O110 C101 1.247 . S
O111 Co98 2.244 . S
O111 C101 1.272 . S
O111 Co103 2.135 . S
Co112 O113 2.216 . S
Co112 O114 2.091 . S
Co112 O116 2.004 . S
Co112 O122 2.021 . S
Co112 O124 2.137 . S
Co112 O125 2.244 . S
O113 Co112 2.216 . S
O113 C120 1.247 . S
O114 Co112 2.091 . S
O114 C120 1.261 . S
C115 O124 1.247 . S
C115 O125 1.272 . S
O116 Co112 2.004 . S
O116 C121 1.259 . S
Co117 O118 2.061 . S
Co117 O123 2.052 . S
Co117 O125 2.135 . S
O118 Co117 2.061 . S
O118 C121 1.235 . S
C119 O122 1.238 . S
C119 O123 1.241 . S
C120 O113 1.247 . S
C120 O114 1.261 . S
C121 O116 1.259 . S
C121 O118 1.235 . S
O122 Co112 2.021 . S
O122 C119 1.238 . S
O123 Co117 2.052 . S
O123 C119 1.241 . S
O124 Co112 2.137 . S
O124 C115 1.247 . S
O125 Co112 2.244 . S
O125 C115 1.272 . S
O125 Co117 2.135 . S
Co126 O127 2.216 . S
Co126 O128 2.091 . S
Co126 O130 2.004 . S
Co126 O136 2.021 . S
Co126 O138 2.137 . S
Co126 O139 2.244 . S
O127 Co126 2.216 . S
O127 C134 1.247 . S
O128 Co126 2.091 . S
O128 C134 1.261 . S
C129 O138 1.247 . S
C129 O139 1.272 . S
O130 Co126 2.004 . S
O130 C135 1.259 . S
Co131 O132 2.061 . S
Co131 O137 2.052 . S
Co131 O139 2.135 . S
O132 Co131 2.061 . S
O132 C135 1.235 . S
C133 O136 1.238 . S
C133 O137 1.241 . S
C134 O127 1.247 . S
C134 O128 1.261 . S
C135 O130 1.259 . S
C135 O132 1.235 . S
O136 Co126 2.021 . S
O136 C133 1.238 . S
O137 Co131 2.052 . S
O137 C133 1.241 . S
O138 Co126 2.137 . S
O138 C129 1.247 . S
O139 Co126 2.244 . S
O139 C129 1.272 . S
O139 Co131 2.135 . S
Co140 O141 2.216 . S
Co140 O142 2.091 . S
Co140 O144 2.004 . S
Co140 O150 2.021 . S
Co140 O152 2.137 . S
Co140 O153 2.244 . S
O141 Co140 2.216 . S
O141 C148 1.247 . S
O142 Co140 2.091 . S
O142 C148 1.261 . S
C143 O152 1.247 . S
C143 O153 1.272 . S
O144 Co140 2.004 . S
O144 C149 1.259 . S
Co145 O146 2.061 . S
Co145 O151 2.052 . S
Co145 O153 2.135 . S
O146 Co145 2.061 . S
O146 C149 1.235 . S
C147 O150 1.238 . S
C147 O151 1.241 . S
C148 O141 1.247 . S
C148 O142 1.261 . S
C149 O144 1.259 . S
C149 O146 1.235 . S
O150 Co140 2.021 . S
O150 C147 1.238 . S
O151 Co145 2.052 . S
O151 C147 1.241 . S
O152 Co140 2.137 . S
O152 C143 1.247 . S
O153 Co140 2.244 . S
O153 C143 1.272 . S
O153 Co145 2.135 . S
Co154 O155 2.216 . S
Co154 O156 2.091 . S
Co154 O158 2.004 . S
Co154 O164 2.021 . S
Co154 O166 2.137 . S
Co154 O167 2.244 . S
O155 Co154 2.216 . S
O155 C162 1.247 . S
O156 Co154 2.091 . S
O156 C162 1.261 . S
C157 O166 1.247 . S
C157 O167 1.272 . S
O158 Co154 2.004 . S
O158 C163 1.259 . S
Co159 O160 2.061 . S
Co159 O165 2.052 . S
Co159 O167 2.135 . S
O160 Co159 2.061 . S
O160 C163 1.235 . S
C161 O164 1.238 . S
C161 O165 1.241 . S
C162 O155 1.247 . S
C162 O156 1.261 . S
C163 O158 1.259 . S
C163 O160 1.235 . S
O164 Co154 2.021 . S
O164 C161 1.238 . S
O165 Co159 2.052 . S
O165 C161 1.241 . S
O166 Co154 2.137 . S
O166 C157 1.247 . S
O167 Co154 2.244 . S
O167 C157 1.272 . S
O167 Co159 2.135 . S
Co168 O169 2.216 . S
Co168 O170 2.091 . S
Co168 O172 2.004 . S
Co168 O178 2.021 . S
Co168 O180 2.137 . S
Co168 O181 2.244 . S
O169 Co168 2.216 . S
O169 C176 1.247 . S
O170 Co168 2.091 . S
O170 C176 1.261 . S
C171 O180 1.247 . S
C171 O181 1.272 . S
O172 Co168 2.004 . S
O172 C177 1.259 . S
Co173 O174 2.061 . S
Co173 O179 2.052 . S
Co173 O181 2.135 . S
O174 Co173 2.061 . S
O174 C177 1.235 . S
C175 O178 1.238 . S
C175 O179 1.241 . S
C176 O169 1.247 . S
C176 O170 1.261 . S
C177 O172 1.259 . S
C177 O174 1.235 . S
O178 Co168 2.021 . S
O178 C175 1.238 . S
O179 Co173 2.052 . S
O179 C175 1.241 . S
O180 Co168 2.137 . S
O180 C171 1.247 . S
O181 Co168 2.244 . S
O181 C171 1.272 . S
O181 Co173 2.135 . S
Co182 O183 2.216 . S
Co182 O184 2.091 . S
Co182 O186 2.004 . S
Co182 O192 2.021 . S
Co182 O194 2.137 . S
Co182 O195 2.244 . S
O183 Co182 2.216 . S
O183 C190 1.247 . S
O184 Co182 2.091 . S
O184 C190 1.261 . S
C185 O194 1.247 . S
C185 O195 1.272 . S
O186 Co182 2.004 . S
O186 C191 1.259 . S
Co187 O188 2.061 . S
Co187 O193 2.052 . S
Co187 O195 2.135 . S
O188 Co187 2.061 . S
O188 C191 1.235 . S
C189 O192 1.238 . S
C189 O193 1.241 . S
C190 O183 1.247 . S
C190 O184 1.261 . S
C191 O186 1.259 . S
C191 O188 1.235 . S
O192 Co182 2.021 . S
O192 C189 1.238 . S
O193 Co187 2.052 . S
O193 C189 1.241 . S
O194 Co182 2.137 . S
O194 C185 1.247 . S
O195 Co182 2.244 . S
O195 C185 1.272 . S
O195 Co187 2.135 . S
Co196 O197 2.216 . S
Co196 O198 2.091 . S
Co196 O200 2.004 . S
Co196 O206 2.021 . S
Co196 O208 2.137 . S
Co196 O209 2.244 . S
O197 Co196 2.216 . S
O197 C204 1.247 . S
O198 Co196 2.091 . S
O198 C204 1.261 . S
C199 O208 1.247 . S
C199 O209 1.272 . S
O200 Co196 2.004 . S
O200 C205 1.259 . S
Co201 O202 2.061 . S
Co201 O207 2.052 . S
Co201 O209 2.135 . S
O202 Co201 2.061 . S
O202 C205 1.235 . S
C203 O206 1.238 . S
C203 O207 1.241 . S
C204 O197 1.247 . S
C204 O198 1.261 . S
C205 O200 1.259 . S
C205 O202 1.235 . S
O206 Co196 2.021 . S
O206 C203 1.238 . S
O207 Co201 2.052 . S
O207 C203 1.241 . S
O208 Co196 2.137 . S
O208 C199 1.247 . S
O209 Co196 2.244 . S
O209 C199 1.272 . S
O209 Co201 2.135 . S
Co210 O211 2.216 . S
Co210 O212 2.091 . S
Co210 O214 2.004 . S
Co210 O220 2.021 . S
Co210 O222 2.137 . S
Co210 O223 2.244 . S
O211 Co210 2.216 . S
O211 C218 1.247 . S
O212 Co210 2.091 . S
O212 C218 1.261 . S
C213 O222 1.247 . S
C213 O223 1.272 . S
O214 Co210 2.004 . S
O214 C219 1.259 . S
Co215 O216 2.061 . S
Co215 O221 2.052 . S
Co215 O223 2.135 . S
O216 Co215 2.061 . S
O216 C219 1.235 . S
C217 O220 1.238 . S
C217 O221 1.241 . S
C218 O211 1.247 . S
C218 O212 1.261 . S
C219 O214 1.259 . S
C219 O216 1.235 . S
O220 Co210 2.021 . S
O220 C217 1.238 . S
O221 Co215 2.052 . S
O221 C217 1.241 . S
O222 Co210 2.137 . S
O222 C213 1.247 . S
O223 Co210 2.244 . S
O223 C213 1.272 . S
O223 Co215 2.135 . S
Co224 O225 2.216 . S
Co224 O226 2.091 . S
Co224 O228 2.004 . S
Co224 O234 2.021 . S
Co224 O236 2.137 . S
Co224 O237 2.244 . S
O225 Co224 2.216 . S
O225 C232 1.247 . S
O226 Co224 2.091 . S
O226 C232 1.261 . S
C227 O236 1.247 . S
C227 O237 1.272 . S
O228 Co224 2.004 . S
O228 C233 1.259 . S
Co229 O230 2.061 . S
Co229 O235 2.052 . S
Co229 O237 2.135 . S
O230 Co229 2.061 . S
O230 C233 1.235 . S
C231 O234 1.238 . S
C231 O235 1.241 . S
C232 O225 1.247 . S
C232 O226 1.261 . S
C233 O228 1.259 . S
C233 O230 1.235 . S
O234 Co224 2.021 . S
O234 C231 1.238 . S
O235 Co229 2.052 . S
O235 C231 1.241 . S
O236 Co224 2.137 . S
O236 C227 1.247 . S
O237 Co224 2.244 . S
O237 C227 1.272 . S
O237 Co229 2.135 . S
Co238 O239 2.216 . S
Co238 O240 2.091 . S
Co238 O242 2.004 . S
Co238 O248 2.021 . S
Co238 O250 2.137 . S
Co238 O251 2.244 . S
O239 Co238 2.216 . S
O239 C246 1.247 . S
O240 Co238 2.091 . S
O240 C246 1.261 . S
C241 O250 1.247 . S
C241 O251 1.272 . S
O242 Co238 2.004 . S
O242 C247 1.259 . S
Co243 O244 2.061 . S
Co243 O249 2.052 . S
Co243 O251 2.135 . S
O244 Co243 2.061 . S
O244 C247 1.235 . S
C245 O248 1.238 . S
C245 O249 1.241 . S
C246 O239 1.247 . S
C246 O240 1.261 . S
C247 O242 1.259 . S
C247 O244 1.235 . S
O248 Co238 2.021 . S
O248 C245 1.238 . S
O249 Co243 2.052 . S
O249 C245 1.241 . S
O250 Co238 2.137 . S
O250 C241 1.247 . S
O251 Co238 2.244 . S
O251 C241 1.272 . S
O251 Co243 2.135 . S
Co252 O253 2.216 . S
Co252 O254 2.091 . S
Co252 O256 2.004 . S
Co252 O262 2.021 . S
Co252 O264 2.137 . S
Co252 O265 2.244 . S
O253 Co252 2.216 . S
O253 C260 1.247 . S
O254 Co252 2.091 . S
O254 C260 1.261 . S
C255 O264 1.247 . S
C255 O265 1.272 . S
O256 Co252 2.004 . S
O256 C261 1.259 . S
Co257 O258 2.061 . S
Co257 O263 2.052 . S
Co257 O265 2.135 . S
O258 Co257 2.061 . S
O258 C261 1.235 . S
C259 O262 1.238 . S
C259 O263 1.241 . S
C260 O253 1.247 . S
C260 O254 1.261 . S
C261 O256 1.259 . S
C261 O258 1.235 . S
O262 Co252 2.021 . S
O262 C259 1.238 . S
O263 Co257 2.052 . S
O263 C259 1.241 . S
O264 Co252 2.137 . S
O264 C255 1.247 . S
O265 Co252 2.244 . S
O265 C255 1.272 . S
O265 Co257 2.135 . S
Co266 O267 2.216 . S
Co266 O268 2.091 . S
Co266 O270 2.004 . S
Co266 O276 2.021 . S
Co266 O278 2.137 . S
Co266 O279 2.244 . S
O267 Co266 2.216 . S
O267 C274 1.247 . S
O268 Co266 2.091 . S
O268 C274 1.261 . S
C269 O278 1.247 . S
C269 O279 1.272 . S
O270 Co266 2.004 . S
O270 C275 1.259 . S
Co271 O272 2.061 . S
Co271 O277 2.052 . S
Co271 O279 2.135 . S
O272 Co271 2.061 . S
O272 C275 1.235 . S
C273 O276 1.238 . S
C273 O277 1.241 . S
C274 O267 1.247 . S
C274 O268 1.261 . S
C275 O270 1.259 . S
C275 O272 1.235 . S
O276 Co266 2.021 . S
O276 C273 1.238 . S
O277 Co271 2.052 . S
O277 C273 1.241 . S
O278 Co266 2.137 . S
O278 C269 1.247 . S
O279 Co266 2.244 . S
O279 C269 1.272 . S
O279 Co271 2.135 . S
Co280 O281 2.216 . S
Co280 O282 2.091 . S
Co280 O284 2.004 . S
Co280 O290 2.021 . S
Co280 O292 2.137 . S
Co280 O293 2.244 . S
O281 Co280 2.216 . S
O281 C288 1.247 . S
O282 Co280 2.091 . S
O282 C288 1.261 . S
C283 O292 1.247 . S
C283 O293 1.272 . S
O284 Co280 2.004 . S
O284 C289 1.259 . S
Co285 O286 2.061 . S
Co285 O291 2.052 . S
Co285 O293 2.135 . S
O286 Co285 2.061 . S
O286 C289 1.235 . S
C287 O290 1.238 . S
C287 O291 1.241 . S
C288 O281 1.247 . S
C288 O282 1.261 . S
C289 O284 1.259 . S
C289 O286 1.235 . S
O290 Co280 2.021 . S
O290 C287 1.238 . S
O291 Co285 2.052 . S
O291 C287 1.241 . S
O292 Co280 2.137 . S
O292 C283 1.247 . S
O293 Co280 2.244 . S
O293 C283 1.272 . S
O293 Co285 2.135 . S
Co294 O295 2.216 . S
Co294 O296 2.091 . S
Co294 O298 2.004 . S
Co294 O304 2.021 . S
Co294 O306 2.137 . S
Co294 O307 2.244 . S
O295 Co294 2.216 . S
O295 C302 1.247 . S
O296 Co294 2.091 . S
O296 C302 1.261 . S
C297 O306 1.247 . S
C297 O307 1.272 . S
O298 Co294 2.004 . S
O298 C303 1.259 . S
Co299 O300 2.061 . S
Co299 O305 2.052 . S
Co299 O307 2.135 . S
O300 Co299 2.061 . S
O300 C303 1.235 . S
C301 O304 1.238 . S
C301 O305 1.241 . S
C302 O295 1.247 . S
C302 O296 1.261 . S
C303 O298 1.259 . S
C303 O300 1.235 . S
O304 Co294 2.021 . S
O304 C301 1.238 . S
O305 Co299 2.052 . S
O305 C301 1.241 . S
O306 Co294 2.137 . S
O306 C297 1.247 . S
O307 Co294 2.244 . S
O307 C297 1.272 . S
O307 Co299 2.135 . S
Co308 O309 2.216 . S
Co308 O310 2.091 . S
Co308 O312 2.004 . S
Co308 O318 2.021 . S
Co308 O320 2.137 . S
Co308 O321 2.244 . S
O309 Co308 2.216 . S
O309 C316 1.247 . S
O310 Co308 2.091 . S
O310 C316 1.261 . S
C311 O320 1.247 . S
C311 O321 1.272 . S
O312 Co308 2.004 . S
O312 C317 1.259 . S
Co313 O314 2.061 . S
Co313 O319 2.052 . S
Co313 O321 2.135 . S
O314 Co313 2.061 . S
O314 C317 1.235 . S
C315 O318 1.238 . S
C315 O319 1.241 . S
C316 O309 1.247 . S
C316 O310 1.261 . S
C317 O312 1.259 . S
C317 O314 1.235 . S
O318 Co308 2.021 . S
O318 C315 1.238 . S
O319 Co313 2.052 . S
O319 C315 1.241 . S
O320 Co308 2.137 . S
O320 C311 1.247 . S
O321 Co308 2.244 . S
O321 C311 1.272 . S
O321 Co313 2.135 . S
Co322 O323 2.216 . S
Co322 O324 2.091 . S
Co322 O326 2.004 . S
Co322 O332 2.021 . S
Co322 O334 2.137 . S
Co322 O335 2.244 . S
O323 Co322 2.216 . S
O323 C330 1.247 . S
O324 Co322 2.091 . S
O324 C330 1.261 . S
C325 O334 1.247 . S
C325 O335 1.272 . S
O326 Co322 2.004 . S
O326 C331 1.259 . S
Co327 O328 2.061 . S
Co327 O333 2.052 . S
Co327 O335 2.135 . S
O328 Co327 2.061 . S
O328 C331 1.235 . S
C329 O332 1.238 . S
C329 O333 1.241 . S
C330 O323 1.247 . S
C330 O324 1.261 . S
C331 O326 1.259 . S
C331 O328 1.235 . S
O332 Co322 2.021 . S
O332 C329 1.238 . S
O333 Co327 2.052 . S
O333 C329 1.241 . S
O334 Co322 2.137 . S
O334 C325 1.247 . S
O335 Co322 2.244 . S
O335 C325 1.272 . S
O335 Co327 2.135 . S
C336 C337 1.391 . S
C336 C338 1.394 . S
C336 H352 0.931 . S
C337 C336 1.391 . S
C337 C341 1.376 . S
C338 C336 1.394 . S
C338 C339 1.369 . S
C338 C342 1.531 1_545 S
C339 C338 1.369 . S
C339 C340 1.410 . S
C339 C347 1.503 1_545 S
C340 C339 1.410 . S
C340 C341 1.392 . S
C340 C343 1.511 . S
C341 C337 1.376 . S
C341 C340 1.392 . S
C341 H353 0.929 . S
C342 C338 1.531 1_565 S
C342 H354 0.960 . S
C342 H355 0.962 . S
C342 H356 0.960 1_565 S
C343 C340 1.511 . S
C343 H357 0.961 . S
C343 H358 0.961 . S
C343 H359 0.961 . S
C344 C345 1.370 . S
C344 C346 1.363 . S
C344 H360 0.931 . S
C345 C344 1.370 . S
C345 C349 1.408 . S
C346 C344 1.363 . S
C346 C347 1.370 . S
C346 C350 1.524 1_565 S
C347 C339 1.503 1_565 S
C347 C346 1.370 . S
C347 C348 1.403 . S
C348 C347 1.403 . S
C348 C349 1.404 . S
C348 C351 1.539 . S
C349 C345 1.408 . S
C349 C348 1.404 . S
C349 H361 0.930 . S
C350 C346 1.524 1_545 S
C350 H362 0.956 . S
C350 H363 0.961 . S
C350 H364 0.961 1_545 S
C351 C348 1.539 . S
C351 H365 0.958 . S
C351 H366 0.961 . S
C351 H367 0.960 . S
H352 C336 0.931 . S
H353 C341 0.929 . S
H354 C342 0.960 . S
H355 C342 0.962 . S
H356 C342 0.960 1_545 S
H357 C343 0.961 . S
H358 C343 0.961 . S
H359 C343 0.961 . S
H360 C344 0.931 . S
H361 C349 0.930 . S
H362 C350 0.956 . S
H363 C350 0.961 . S
H364 C350 0.961 1_565 S
H365 C351 0.958 . S
H366 C351 0.961 . S
H367 C351 0.960 . S
C368 C369 1.391 . S
C368 C370 1.394 . S
C368 H384 0.931 . S
C369 C368 1.391 . S
C369 C373 1.376 . S
C370 C368 1.394 . S
C370 C371 1.369 . S
C370 C374 1.531 . S
C371 C370 1.369 . S
C371 C372 1.410 . S
C371 C379 1.503 . S
C372 C371 1.410 . S
C372 C373 1.392 . S
C372 C375 1.511 . S
C373 C369 1.376 . S
C373 C372 1.392 . S
C373 H385 0.929 . S
C374 C370 1.531 . S
C374 H386 0.960 . S
C374 H387 0.962 . S
C374 H388 0.960 . S
C375 C372 1.511 . S
C375 H389 0.961 . S
C375 H390 0.961 . S
C375 H391 0.961 . S
C376 C377 1.370 . S
C376 C378 1.363 . S
C376 H392 0.931 . S
C377 C376 1.370 . S
C377 C381 1.408 . S
C378 C376 1.363 . S
C378 C379 1.370 . S
C378 C382 1.524 . S
C379 C371 1.503 . S
C379 C378 1.370 . S
C379 C380 1.403 . S
C380 C379 1.403 . S
C380 C381 1.404 . S
C380 C383 1.539 . S
C381 C377 1.408 . S
C381 C380 1.404 . S
C381 H393 0.930 . S
C382 C378 1.524 . S
C382 H394 0.956 . S
C382 H395 0.961 . S
C382 H396 0.961 . S
C383 C380 1.539 . S
C383 H397 0.958 . S
C383 H398 0.961 . S
C383 H399 0.960 . S
H384 C368 0.931 . S
H385 C373 0.929 . S
H386 C374 0.960 . S
H387 C374 0.962 . S
H388 C374 0.960 . S
H389 C375 0.961 . S
H390 C375 0.961 . S
H391 C375 0.961 . S
H392 C376 0.931 . S
H393 C381 0.930 . S
H394 C382 0.956 . S
H395 C382 0.961 . S
H396 C382 0.961 . S
H397 C383 0.958 . S
H398 C383 0.961 . S
H399 C383 0.960 . S
C400 C401 1.391 . S
C400 C402 1.394 . S
C400 H416 0.931 . S
C401 C400 1.391 . S
C401 C405 1.376 . S
C402 C400 1.394 . S
C402 C403 1.369 . S
C402 C406 1.531 . S
C403 C402 1.369 . S
C403 C404 1.410 . S
C403 C411 1.503 1_655 S
C404 C403 1.410 . S
C404 C405 1.392 . S
C404 C407 1.511 1_655 S
C405 C401 1.376 . S
C405 C404 1.392 . S
C405 H417 0.929 . S
C406 C402 1.531 . S
C406 H418 0.960 . S
C406 H419 0.962 . S
C406 H420 0.960 . S
C407 C404 1.511 1_455 S
C407 H421 0.970 . S
C407 H422 0.961 . S
C407 H423 0.961 . S
C408 C409 1.370 . S
C408 C410 1.363 . S
C408 H424 0.931 . S
C409 C408 1.370 . S
C409 C413 1.408 . S
C410 C408 1.363 . S
C410 C411 1.370 . S
C410 C414 1.524 . S
C411 C403 1.503 1_455 S
C411 C410 1.370 . S
C411 C412 1.403 . S
C412 C411 1.403 . S
C412 C413 1.404 . S
C412 C415 1.539 . S
C413 C409 1.408 . S
C413 C412 1.404 . S
C413 H425 0.930 . S
C414 C410 1.524 . S
C414 H426 0.956 1_455 S
C414 H427 0.961 . S
C414 H428 0.961 . S
C415 C412 1.539 . S
C415 H429 0.958 . S
C415 H430 0.961 . S
C415 H431 0.955 1_455 S
H416 C400 0.931 . S
H417 C405 0.929 . S
H418 C406 0.960 . S
H419 C406 0.962 . S
H420 C406 0.960 . S
H421 C407 0.970 . S
H422 C407 0.961 . S
H423 C407 0.961 . S
H424 C408 0.931 . S
H425 C413 0.930 . S
H426 C414 0.956 1_655 S
H427 C414 0.961 . S
H428 C414 0.961 . S
H429 C415 0.958 . S
H430 C415 0.961 . S
H431 C415 0.955 1_655 S
C432 C433 1.391 . S
C432 C434 1.394 . S
C432 H448 0.931 . S
C433 C432 1.391 . S
C433 C437 1.376 . S
C434 C432 1.394 . S
C434 C435 1.369 . S
C434 C438 1.531 . S
C435 C434 1.369 . S
C435 C436 1.410 . S
C435 C443 1.503 1_565 S
C436 C435 1.410 . S
C436 C437 1.392 . S
C436 C439 1.511 . S
C437 C433 1.376 . S
C437 C436 1.392 . S
C437 H449 0.929 . S
C438 C434 1.531 . S
C438 H450 0.960 1_565 S
C438 H451 0.962 1_565 S
C438 H452 0.960 . S
C439 C436 1.511 . S
C439 H453 0.961 . S
C439 H454 0.961 . S
C439 H455 0.961 . S
C440 C441 1.370 . S
C440 C442 1.363 . S
C440 H456 0.931 . S
C441 C440 1.370 . S
C441 C445 1.408 . S
C442 C440 1.363 . S
C442 C443 1.370 . S
C442 C446 1.524 . S
C443 C435 1.503 1_545 S
C443 C442 1.370 . S
C443 C444 1.403 . S
C444 C443 1.403 . S
C444 C445 1.404 . S
C444 C447 1.539 1_545 S
C445 C441 1.408 . S
C445 C444 1.404 . S
C445 H457 0.930 . S
C446 C442 1.524 . S
C446 H458 0.956 . S
C446 H459 0.961 . S
C446 H460 0.961 . S
C447 C444 1.539 1_565 S
C447 H461 0.958 . S
C447 H462 0.961 1_565 S
C447 H463 0.960 . S
H448 C432 0.931 . S
H449 C437 0.929 . S
H450 C438 0.960 1_545 S
H451 C438 0.962 1_545 S
H452 C438 0.960 . S
H453 C439 0.961 . S
H454 C439 0.961 . S
H455 C439 0.961 . S
H456 C440 0.931 . S
H457 C445 0.930 . S
H458 C446 0.956 . S
H459 C446 0.961 . S
H460 C446 0.961 . S
H461 C447 0.958 . S
H462 C447 0.961 1_545 S
H463 C447 0.960 . S
C464 C465 1.391 . S
C464 C466 1.394 . S
C464 H480 0.931 . S
C465 C464 1.391 . S
C465 C469 1.376 . S
C466 C464 1.394 . S
C466 C467 1.369 . S
C466 C470 1.531 . S
C467 C466 1.369 . S
C467 C468 1.410 . S
C467 C475 1.503 . S
C468 C467 1.410 . S
C468 C469 1.392 . S
C468 C471 1.511 . S
C469 C465 1.376 . S
C469 C468 1.392 . S
C469 H481 0.929 . S
C470 C466 1.531 . S
C470 H482 0.960 . S
C470 H483 0.962 . S
C470 H484 0.960 . S
C471 C468 1.511 . S
C471 H485 0.961 . S
C471 H486 0.961 . S
C471 H487 0.961 . S
C472 C473 1.370 . S
C472 C474 1.363 . S
C472 H488 0.931 . S
C473 C472 1.370 . S
C473 C477 1.408 . S
C474 C472 1.363 . S
C474 C475 1.370 . S
C474 C478 1.524 . S
C475 C467 1.503 . S
C475 C474 1.370 . S
C475 C476 1.403 . S
C476 C475 1.403 . S
C476 C477 1.404 . S
C476 C479 1.539 . S
C477 C473 1.408 . S
C477 C476 1.404 . S
C477 H489 0.930 . S
C478 C474 1.524 . S
C478 H490 0.956 . S
C478 H491 0.961 . S
C478 H492 0.961 . S
C479 C476 1.539 . S
C479 H493 0.958 . S
C479 H494 0.961 . S
C479 H495 0.960 . S
H480 C464 0.931 . S
H481 C469 0.929 . S
H482 C470 0.960 . S
H483 C470 0.962 . S
H484 C470 0.960 . S
H485 C471 0.961 . S
H486 C471 0.961 . S
H487 C471 0.961 . S
H488 C472 0.931 . S
H489 C477 0.930 . S
H490 C478 0.956 . S
H491 C478 0.961 . S
H492 C478 0.961 . S
H493 C479 0.958 . S
H494 C479 0.961 . S
H495 C479 0.960 . S
C496 C497 1.391 . S
C496 C498 1.394 . S
C496 H512 0.931 . S
C497 C496 1.391 . S
C497 C501 1.376 . S
C498 C496 1.394 . S
C498 C499 1.369 . S
C498 C502 1.531 . S
C499 C498 1.369 . S
C499 C500 1.410 . S
C499 C507 1.503 1_455 S
C500 C499 1.410 . S
C500 C501 1.392 . S
C500 C503 1.511 . S
C501 C497 1.376 . S
C501 C500 1.392 . S
C501 H513 0.929 . S
C502 C498 1.531 . S
C502 H514 0.960 . S
C502 H515 0.962 . S
C502 H516 0.960 . S
C503 C500 1.511 . S
C503 H517 0.961 . S
C503 H518 0.961 1_455 S
C503 H519 0.961 . S
C504 C505 1.370 . S
C504 C506 1.363 . S
C504 H520 0.931 . S
C505 C504 1.370 . S
C505 C509 1.408 . S
C506 C504 1.363 . S
C506 C507 1.370 . S
C506 C510 1.524 . S
C507 C499 1.503 1_655 S
C507 C506 1.370 . S
C507 C508 1.403 . S
C508 C507 1.403 . S
C508 C509 1.404 . S
C508 C511 1.539 . S
C509 C505 1.408 . S
C509 C508 1.404 . S
C509 H521 0.930 . S
C510 C506 1.524 . S
C510 H522 0.956 . S
C510 H523 0.961 . S
C510 H524 0.961 . S
C511 C508 1.539 . S
C511 H525 0.958 1_655 S
C511 H526 0.961 . S
C511 H527 0.960 1_655 S
H512 C496 0.931 . S
H513 C501 0.929 . S
H514 C502 0.960 . S
H515 C502 0.962 . S
H516 C502 0.960 . S
H517 C503 0.961 . S
H518 C503 0.961 1_655 S
H519 C503 0.961 . S
H520 C504 0.931 . S
H521 C509 0.930 . S
H522 C510 0.956 . S
H523 C510 0.961 . S
H524 C510 0.961 . S
H525 C511 0.958 1_455 S
H526 C511 0.961 . S
H527 C511 0.960 1_455 S
C528 C529 1.391 . S
C528 C530 1.394 . S
C528 H544 0.931 . S
C529 C528 1.391 . S
C529 C533 1.376 . S
C530 C528 1.394 . S
C530 C531 1.369 . S
C530 C534 1.531 . S
C531 C530 1.369 . S
C531 C532 1.410 . S
C531 C539 1.503 1_565 S
C532 C531 1.410 . S
C532 C533 1.392 . S
C532 C535 1.511 . S
C533 C529 1.376 . S
C533 C532 1.392 . S
C533 H545 0.929 . S
C534 C530 1.531 . S
C534 H546 0.960 . S
C534 H547 0.962 . S
C534 H548 0.960 . S
C535 C532 1.511 . S
C535 H549 0.961 . S
C535 H550 0.961 1_565 S
C535 H551 0.961 . S
C536 C537 1.370 . S
C536 C538 1.363 . S
C536 H552 0.931 . S
C537 C536 1.370 . S
C537 C541 1.408 . S
C538 C536 1.363 . S
C538 C539 1.370 . S
C538 C542 1.524 . S
C539 C531 1.503 1_545 S
C539 C538 1.370 . S
C539 C540 1.403 . S
C540 C539 1.403 . S
C540 C541 1.404 . S
C540 C543 1.539 . S
C541 C537 1.408 . S
C541 C540 1.404 . S
C541 H553 0.930 . S
C542 C538 1.524 . S
C542 H554 0.956 . S
C542 H555 0.961 . S
C542 H556 0.961 . S
C543 C540 1.539 . S
C543 H557 0.958 1_545 S
C543 H558 0.961 . S
C543 H559 0.960 1_545 S
H544 C528 0.931 . S
H545 C533 0.929 . S
H546 C534 0.960 . S
H547 C534 0.962 . S
H548 C534 0.960 . S
H549 C535 0.961 . S
H550 C535 0.961 1_545 S
H551 C535 0.961 . S
H552 C536 0.931 . S
H553 C541 0.930 . S
H554 C542 0.956 . S
H555 C542 0.961 . S
H556 C542 0.961 . S
H557 C543 0.958 1_565 S
H558 C543 0.961 . S
H559 C543 0.960 1_565 S
C560 C561 1.391 . S
C560 C562 1.394 . S
C560 H576 0.931 . S
C561 C560 1.391 . S
C561 C565 1.376 . S
C562 C560 1.394 . S
C562 C563 1.369 . S
C562 C566 1.531 . S
C563 C562 1.369 . S
C563 C564 1.410 . S
C563 C571 1.503 . S
C564 C563 1.410 . S
C564 C565 1.392 . S
C564 C567 1.511 . S
C565 C561 1.376 . S
C565 C564 1.392 . S
C565 H577 0.929 . S
C566 C562 1.531 . S
C566 H578 0.960 . S
C566 H579 0.962 . S
C566 H580 0.960 . S
C567 C564 1.511 . S
C567 H581 0.961 . S
C567 H582 0.961 . S
C567 H583 0.961 . S
C568 C569 1.370 . S
C568 C570 1.363 . S
C568 H584 0.931 . S
C569 C568 1.370 . S
C569 C573 1.408 . S
C570 C568 1.363 . S
C570 C571 1.370 . S
C570 C574 1.524 . S
C571 C563 1.503 . S
C571 C570 1.370 . S
C571 C572 1.403 . S
C572 C571 1.403 . S
C572 C573 1.404 . S
C572 C575 1.539 . S
C573 C569 1.408 . S
C573 C572 1.404 . S
C573 H585 0.930 . S
C574 C570 1.524 . S
C574 H586 0.956 . S
C574 H587 0.961 . S
C574 H588 0.961 . S
C575 C572 1.539 . S
C575 H589 0.958 . S
C575 H590 0.961 . S
C575 H591 0.960 . S
H576 C560 0.931 . S
H577 C565 0.929 . S
H578 C566 0.960 . S
H579 C566 0.962 . S
H580 C566 0.960 . S
H581 C567 0.961 . S
H582 C567 0.961 . S
H583 C567 0.961 . S
H584 C568 0.931 . S
H585 C573 0.930 . S
H586 C574 0.956 . S
H587 C574 0.961 . S
H588 C574 0.961 . S
H589 C575 0.958 . S
H590 C575 0.961 . S
H591 C575 0.960 . S
C592 C593 1.391 . S
C592 C594 1.394 . S
C592 H608 0.931 . S
C593 C592 1.391 . S
C593 C597 1.376 . S
C594 C592 1.394 . S
C594 C595 1.369 . S
C594 C598 1.531 . S
C595 C594 1.369 . S
C595 C596 1.410 . S
C595 C603 1.503 1_655 S
C596 C595 1.410 . S
C596 C597 1.392 . S
C596 C599 1.511 . S
C597 C593 1.376 . S
C597 C596 1.392 . S
C597 H609 0.929 . S
C598 C594 1.531 . S
C598 H610 0.960 . S
C598 H611 0.962 . S
C598 H612 0.960 . S
C599 C596 1.511 . S
C599 H613 0.961 . S
C599 H614 0.961 1_655 S
C599 H615 0.961 . S
C600 C601 1.370 . S
C600 C602 1.363 . S
C600 H616 0.931 . S
C601 C600 1.370 . S
C601 C605 1.408 . S
C602 C600 1.363 . S
C602 C603 1.370 . S
C602 C606 1.524 . S
C603 C595 1.503 1_455 S
C603 C602 1.370 . S
C603 C604 1.403 . S
C604 C603 1.403 . S
C604 C605 1.404 . S
C604 C607 1.539 1_455 S
C605 C601 1.408 . S
C605 C604 1.404 . S
C605 H617 0.930 . S
C606 C602 1.524 . S
C606 H618 0.956 . S
C606 H619 0.961 . S
C606 H620 0.961 . S
C607 C604 1.539 1_655 S
C607 H621 0.958 . S
C607 H622 0.961 1_655 S
C607 H623 0.960 . S
H608 C592 0.931 . S
H609 C597 0.929 . S
H610 C598 0.960 . S
H611 C598 0.962 . S
H612 C598 0.960 . S
H613 C599 0.961 . S
H614 C599 0.961 1_455 S
H615 C599 0.961 . S
H616 C600 0.931 . S
H617 C605 0.930 . S
H618 C606 0.956 . S
H619 C606 0.961 . S
H620 C606 0.961 . S
H621 C607 0.958 . S
H622 C607 0.961 1_455 S
H623 C607 0.960 . S
C624 C625 1.391 . S
C624 C626 1.394 . S
C624 H640 0.931 . S
C625 C624 1.391 . S
C625 C629 1.376 . S
C626 C624 1.394 . S
C626 C627 1.369 . S
C626 C630 1.531 . S
C627 C626 1.369 . S
C627 C628 1.410 . S
C627 C635 1.503 1_545 S
C628 C627 1.410 . S
C628 C629 1.392 . S
C628 C631 1.511 1_545 S
C629 C625 1.376 . S
C629 C628 1.392 . S
C629 H641 0.929 . S
C630 C626 1.531 . S
C630 H642 0.960 . S
C630 H643 0.962 . S
C630 H644 0.960 . S
C631 C628 1.511 1_565 S
C631 H645 0.975 . S
C631 H646 0.961 . S
C631 H647 0.961 . S
C632 C633 1.370 . S
C632 C634 1.363 . S
C632 H648 0.931 . S
C633 C632 1.370 . S
C633 C637 1.408 . S
C634 C632 1.363 . S
C634 C635 1.370 . S
C634 C638 1.524 . S
C635 C627 1.503 1_565 S
C635 C634 1.370 . S
C635 C636 1.403 . S
C636 C635 1.403 . S
C636 C637 1.404 . S
C636 C639 1.539 . S
C637 C633 1.408 . S
C637 C636 1.404 . S
C637 H649 0.930 . S
C638 C634 1.524 . S
C638 H650 0.956 1_565 S
C638 H651 0.961 . S
C638 H652 0.961 . S
C639 C636 1.539 . S
C639 H653 0.958 . S
C639 H654 0.961 . S
C639 H655 0.980 . S
H640 C624 0.931 . S
H641 C629 0.929 . S
H642 C630 0.960 . S
H643 C630 0.962 . S
H644 C630 0.960 . S
H645 C631 0.975 . S
H646 C631 0.961 . S
H647 C631 0.961 . S
H648 C632 0.931 . S
H649 C637 0.930 . S
H650 C638 0.956 1_545 S
H651 C638 0.961 . S
H652 C638 0.961 . S
H653 C639 0.958 . S
H654 C639 0.961 . S
H655 C639 0.980 . S
C656 C657 1.391 . S
C656 C658 1.394 . S
C656 H672 0.931 . S
C657 C656 1.391 . S
C657 C661 1.376 . S
C658 C656 1.394 . S
C658 C659 1.369 . S
C658 C662 1.531 . S
C659 C658 1.369 . S
C659 C660 1.410 . S
C659 C667 1.503 . S
C660 C659 1.410 . S
C660 C661 1.392 . S
C660 C663 1.511 . S
C661 C657 1.376 . S
C661 C660 1.392 . S
C661 H673 0.929 . S
C662 C658 1.531 . S
C662 H674 0.960 . S
C662 H675 0.962 . S
C662 H676 0.960 . S
C663 C660 1.511 . S
C663 H677 0.961 . S
C663 H678 0.961 . S
C663 H679 0.961 . S
C664 C665 1.370 . S
C664 C666 1.363 . S
C664 H680 0.931 . S
C665 C664 1.370 . S
C665 C669 1.408 . S
C666 C664 1.363 . S
C666 C667 1.370 . S
C666 C670 1.524 . S
C667 C659 1.503 . S
C667 C666 1.370 . S
C667 C668 1.403 . S
C668 C667 1.403 . S
C668 C669 1.404 . S
C668 C671 1.539 . S
C669 C665 1.408 . S
C669 C668 1.404 . S
C669 H681 0.930 . S
C670 C666 1.524 . S
C670 H682 0.956 . S
C670 H683 0.961 . S
C670 H684 0.961 . S
C671 C668 1.539 . S
C671 H685 0.958 . S
C671 H686 0.961 . S
C671 H687 0.960 . S
H672 C656 0.931 . S
H673 C661 0.929 . S
H674 C662 0.960 . S
H675 C662 0.962 . S
H676 C662 0.960 . S
H677 C663 0.961 . S
H678 C663 0.961 . S
H679 C663 0.961 . S
H680 C664 0.931 . S
H681 C669 0.930 . S
H682 C670 0.956 . S
H683 C670 0.961 . S
H684 C670 0.961 . S
H685 C671 0.958 . S
H686 C671 0.961 . S
H687 C671 0.960 . S
C688 C689 1.391 . S
C688 C690 1.394 . S
C688 H704 0.931 . S
C689 C688 1.391 . S
C689 C693 1.376 . S
C690 C688 1.394 . S
C690 C691 1.369 . S
C690 C694 1.531 . S
C691 C690 1.369 . S
C691 C692 1.410 . S
C691 C699 1.503 1_455 S
C692 C691 1.410 . S
C692 C693 1.392 . S
C692 C695 1.511 . S
C693 C689 1.376 . S
C693 C692 1.392 . S
C693 H705 0.929 . S
C694 C690 1.531 . S
C694 H706 0.960 1_455 S
C694 H707 0.962 . S
C694 H708 0.960 . S
C695 C692 1.511 . S
C695 H709 0.961 . S
C695 H710 0.961 1_455 S
C695 H711 0.961 . S
C696 C697 1.370 . S
C696 C698 1.363 . S
C696 H712 0.931 . S
C697 C696 1.370 . S
C697 C701 1.408 . S
C698 C696 1.363 . S
C698 C699 1.370 . S
C698 C702 1.524 1_655 S
C699 C691 1.503 1_655 S
C699 C698 1.370 . S
C699 C700 1.403 . S
C700 C699 1.403 . S
C700 C701 1.404 . S
C700 C703 1.539 . S
C701 C697 1.408 . S
C701 C700 1.404 . S
C701 H713 0.930 . S
C702 C698 1.524 1_455 S
C702 H714 0.956 . S
C702 H715 0.961 . S
C702 H716 0.961 . S
C703 C700 1.539 . S
C703 H717 0.958 . S
C703 H718 0.961 . S
C703 H719 0.960 . S
H704 C688 0.931 . S
H705 C693 0.929 . S
H706 C694 0.960 1_655 S
H707 C694 0.962 . S
H708 C694 0.960 . S
H709 C695 0.961 . S
H710 C695 0.961 1_655 S
H711 C695 0.961 . S
H712 C696 0.931 . S
H713 C701 0.930 . S
H714 C702 0.956 . S
H715 C702 0.961 . S
H716 C702 0.961 . S
H717 C703 0.958 . S
H718 C703 0.961 . S
H719 C703 0.960 . S
C720 C721 1.391 . S
C720 C722 1.394 . S
C720 H736 0.931 . S
C721 C720 1.391 . S
C721 C725 1.376 . S
C722 C720 1.394 . S
C722 C723 1.369 . S
C722 C726 1.531 . S
C723 C722 1.369 . S
C723 C724 1.410 . S
C723 C731 1.503 . S
C724 C723 1.410 . S
C724 C725 1.392 . S
C724 C727 1.511 . S
C725 C721 1.376 . S
C725 C724 1.392 . S
C725 H737 0.929 . S
C726 C722 1.531 . S
C726 H738 0.960 . S
C726 H739 0.962 . S
C726 H740 0.960 . S
C727 C724 1.511 . S
C727 H741 0.961 . S
C727 H742 0.961 . S
C727 H743 0.961 . S
C728 C729 1.370 . S
C728 C730 1.363 . S
C728 H744 0.931 . S
C729 C728 1.370 . S
C729 C733 1.408 . S
C730 C728 1.363 . S
C730 C731 1.370 . S
C730 C734 1.524 . S
C731 C723 1.503 . S
C731 C730 1.370 . S
C731 C732 1.403 . S
C732 C731 1.403 . S
C732 C733 1.404 . S
C732 C735 1.539 . S
C733 C729 1.408 . S
C733 C732 1.404 . S
C733 H745 0.930 . S
C734 C730 1.524 . S
C734 H746 0.956 . S
C734 H747 0.961 . S
C734 H748 0.961 . S
C735 C732 1.539 . S
C735 H749 0.958 . S
C735 H750 0.961 . S
C735 H751 0.960 . S
H736 C720 0.931 . S
H737 C725 0.929 . S
H738 C726 0.960 . S
H739 C726 0.962 . S
H740 C726 0.960 . S
H741 C727 0.961 . S
H742 C727 0.961 . S
H743 C727 0.961 . S
H744 C728 0.931 . S
H745 C733 0.930 . S
H746 C734 0.956 . S
H747 C734 0.961 . S
H748 C734 0.961 . S
H749 C735 0.958 . S
H750 C735 0.961 . S
H751 C735 0.960 . S
C752 C753 1.391 . S
C752 C754 1.394 . S
C752 H768 0.931 . S
C753 C752 1.391 . S
C753 C757 1.376 . S
C754 C752 1.394 . S
C754 C755 1.369 . S
C754 C758 1.531 . S
C755 C754 1.369 . S
C755 C756 1.410 . S
C755 C763 1.503 . S
C756 C755 1.410 . S
C756 C757 1.392 . S
C756 C759 1.511 . S
C757 C753 1.376 . S
C757 C756 1.392 . S
C757 H769 0.929 . S
C758 C754 1.531 . S
C758 H770 0.960 . S
C758 H771 0.962 . S
C758 H772 0.960 . S
C759 C756 1.511 . S
C759 H773 0.961 . S
C759 H774 0.961 . S
C759 H775 0.961 . S
C760 C761 1.370 . S
C760 C762 1.363 . S
C760 H776 0.931 . S
C761 C760 1.370 . S
C761 C765 1.408 . S
C762 C760 1.363 . S
C762 C763 1.370 . S
C762 C766 1.524 . S
C763 C755 1.503 . S
C763 C762 1.370 . S
C763 C764 1.403 . S
C764 C763 1.403 . S
C764 C765 1.404 . S
C764 C767 1.539 . S
C765 C761 1.408 . S
C765 C764 1.404 . S
C765 H777 0.930 . S
C766 C762 1.524 . S
C766 H778 0.956 . S
C766 H779 0.961 . S
C766 H780 0.961 . S
C767 C764 1.539 . S
C767 H781 0.958 . S
C767 H782 0.961 . S
C767 H783 0.960 . S
H768 C752 0.931 . S
H769 C757 0.929 . S
H770 C758 0.960 . S
H771 C758 0.962 . S
H772 C758 0.960 . S
H773 C759 0.961 . S
H774 C759 0.961 . S
H775 C759 0.961 . S
H776 C760 0.931 . S
H777 C765 0.930 . S
H778 C766 0.956 . S
H779 C766 0.961 . S
H780 C766 0.961 . S
H781 C767 0.958 . S
H782 C767 0.961 . S
H783 C767 0.960 . S
C784 C785 1.391 . S
C784 C786 1.394 . S
C784 H800 0.931 . S
C785 C784 1.391 . S
C785 C789 1.376 . S
C786 C784 1.394 . S
C786 C787 1.369 . S
C786 C790 1.531 . S
C787 C786 1.369 . S
C787 C788 1.410 . S
C787 C795 1.503 . S
C788 C787 1.410 . S
C788 C789 1.392 . S
C788 C791 1.511 . S
C789 C785 1.376 . S
C789 C788 1.392 . S
C789 H801 0.929 . S
C790 C786 1.531 . S
C790 H802 0.960 . S
C790 H803 0.962 . S
C790 H804 0.960 . S
C791 C788 1.511 . S
C791 H805 0.961 . S
C791 H806 0.961 . S
C791 H807 0.961 . S
C792 C793 1.370 . S
C792 C794 1.363 . S
C792 H808 0.931 . S
C793 C792 1.370 . S
C793 C797 1.408 . S
C794 C792 1.363 . S
C794 C795 1.370 . S
C794 C798 1.524 . S
C795 C787 1.503 . S
C795 C794 1.370 . S
C795 C796 1.403 . S
C796 C795 1.403 . S
C796 C797 1.404 . S
C796 C799 1.539 . S
C797 C793 1.408 . S
C797 C796 1.404 . S
C797 H809 0.930 . S
C798 C794 1.524 . S
C798 H810 0.956 . S
C798 H811 0.961 . S
C798 H812 0.961 . S
C799 C796 1.539 . S
C799 H813 0.958 . S
C799 H814 0.961 . S
C799 H815 0.960 . S
H800 C784 0.931 . S
H801 C789 0.929 . S
H802 C790 0.960 . S
H803 C790 0.962 . S
H804 C790 0.960 . S
H805 C791 0.961 . S
H806 C791 0.961 . S
H807 C791 0.961 . S
H808 C792 0.931 . S
H809 C797 0.930 . S
H810 C798 0.956 . S
H811 C798 0.961 . S
H812 C798 0.961 . S
H813 C799 0.958 . S
H814 C799 0.961 . S
H815 C799 0.960 . S
C816 C817 1.391 . S
C816 C818 1.394 . S
C816 H832 0.931 . S
C817 C816 1.391 . S
C817 C821 1.376 . S
C818 C816 1.394 . S
C818 C819 1.369 . S
C818 C822 1.531 . S
C819 C818 1.369 . S
C819 C820 1.410 . S
C819 C827 1.503 . S
C820 C819 1.410 . S
C820 C821 1.392 . S
C820 C823 1.511 . S
C821 C817 1.376 . S
C821 C820 1.392 . S
C821 H833 0.929 . S
C822 C818 1.531 . S
C822 H834 0.960 . S
C822 H835 0.962 . S
C822 H836 0.960 . S
C823 C820 1.511 . S
C823 H837 0.961 . S
C823 H838 0.961 . S
C823 H839 0.961 . S
C824 C825 1.370 . S
C824 C826 1.363 . S
C824 H840 0.931 . S
C825 C824 1.370 . S
C825 C829 1.408 . S
C826 C824 1.363 . S
C826 C827 1.370 . S
C826 C830 1.524 . S
C827 C819 1.503 . S
C827 C826 1.370 . S
C827 C828 1.403 . S
C828 C827 1.403 . S
C828 C829 1.404 . S
C828 C831 1.539 . S
C829 C825 1.408 . S
C829 C828 1.404 . S
C829 H841 0.930 . S
C830 C826 1.524 . S
C830 H842 0.956 . S
C830 H843 0.961 . S
C830 H844 0.961 . S
C831 C828 1.539 . S
C831 H845 0.958 . S
C831 H846 0.961 . S
C831 H847 0.960 . S
H832 C816 0.931 . S
H833 C821 0.929 . S
H834 C822 0.960 . S
H835 C822 0.962 . S
H836 C822 0.960 . S
H837 C823 0.961 . S
H838 C823 0.961 . S
H839 C823 0.961 . S
H840 C824 0.931 . S
H841 C829 0.930 . S
H842 C830 0.956 . S
H843 C830 0.961 . S
H844 C830 0.961 . S
H845 C831 0.958 . S
H846 C831 0.961 . S
H847 C831 0.960 . S
C848 C849 1.391 . S
C848 C850 1.394 . S
C848 H864 0.931 . S
C849 C848 1.391 . S
C849 C853 1.376 . S
C850 C848 1.394 . S
C850 C851 1.369 . S
C850 C854 1.531 . S
C851 C850 1.369 . S
C851 C852 1.410 . S
C851 C859 1.503 . S
C852 C851 1.410 . S
C852 C853 1.392 . S
C852 C855 1.511 . S
C853 C849 1.376 . S
C853 C852 1.392 . S
C853 H865 0.929 . S
C854 C850 1.531 . S
C854 H866 0.960 . S
C854 H867 0.962 . S
C854 H868 0.960 . S
C855 C852 1.511 . S
C855 H869 0.961 . S
C855 H870 0.961 . S
C855 H871 0.961 . S
C856 C857 1.370 . S
C856 C858 1.363 . S
C856 H872 0.931 . S
C857 C856 1.370 . S
C857 C861 1.408 . S
C858 C856 1.363 . S
C858 C859 1.370 . S
C858 C862 1.524 . S
C859 C851 1.503 . S
C859 C858 1.370 . S
C859 C860 1.403 . S
C860 C859 1.403 . S
C860 C861 1.404 . S
C860 C863 1.539 . S
C861 C857 1.408 . S
C861 C860 1.404 . S
C861 H873 0.930 . S
C862 C858 1.524 . S
C862 H874 0.956 . S
C862 H875 0.961 . S
C862 H876 0.961 . S
C863 C860 1.539 . S
C863 H877 0.958 . S
C863 H878 0.961 . S
C863 H879 0.960 . S
H864 C848 0.931 . S
H865 C853 0.929 . S
H866 C854 0.960 . S
H867 C854 0.962 . S
H868 C854 0.960 . S
H869 C855 0.961 . S
H870 C855 0.961 . S
H871 C855 0.961 . S
H872 C856 0.931 . S
H873 C861 0.930 . S
H874 C862 0.956 . S
H875 C862 0.961 . S
H876 C862 0.961 . S
H877 C863 0.958 . S
H878 C863 0.961 . S
H879 C863 0.960 . S
C880 C881 1.391 . S
C880 C882 1.394 . S
C880 H896 0.931 . S
C881 C880 1.391 . S
C881 C885 1.376 . S
C882 C880 1.394 . S
C882 C883 1.369 . S
C882 C886 1.531 . S
C883 C882 1.369 . S
C883 C884 1.410 . S
C883 C891 1.503 . S
C884 C883 1.410 . S
C884 C885 1.392 . S
C884 C887 1.511 . S
C885 C881 1.376 . S
C885 C884 1.392 . S
C885 H897 0.929 . S
C886 C882 1.531 . S
C886 H898 0.960 . S
C886 H899 0.962 . S
C886 H900 0.960 . S
C887 C884 1.511 . S
C887 H901 0.961 . S
C887 H902 0.961 . S
C887 H903 0.961 . S
C888 C889 1.370 . S
C888 C890 1.363 . S
C888 H904 0.931 . S
C889 C888 1.370 . S
C889 C893 1.408 . S
C890 C888 1.363 . S
C890 C891 1.370 . S
C890 C894 1.524 . S
C891 C883 1.503 . S
C891 C890 1.370 . S
C891 C892 1.403 . S
C892 C891 1.403 . S
C892 C893 1.404 . S
C892 C895 1.539 . S
C893 C889 1.408 . S
C893 C892 1.404 . S
C893 H905 0.930 . S
C894 C890 1.524 . S
C894 H906 0.956 . S
C894 H907 0.961 . S
C894 H908 0.961 . S
C895 C892 1.539 . S
C895 H909 0.958 . S
C895 H910 0.961 . S
C895 H911 0.960 . S
H896 C880 0.931 . S
H897 C885 0.929 . S
H898 C886 0.960 . S
H899 C886 0.962 . S
H900 C886 0.960 . S
H901 C887 0.961 . S
H902 C887 0.961 . S
H903 C887 0.961 . S
H904 C888 0.931 . S
H905 C893 0.930 . S
H906 C894 0.956 . S
H907 C894 0.961 . S
H908 C894 0.961 . S
H909 C895 0.958 . S
H910 C895 0.961 . S
H911 C895 0.960 . S
C912 C913 1.391 . S
C912 C914 1.394 . S
C912 H928 0.931 . S
C913 C912 1.391 . S
C913 C917 1.376 . S
C914 C912 1.394 . S
C914 C915 1.369 . S
C914 C918 1.531 . S
C915 C914 1.369 . S
C915 C916 1.410 . S
C915 C923 1.503 . S
C916 C915 1.410 . S
C916 C917 1.392 . S
C916 C919 1.511 . S
C917 C913 1.376 . S
C917 C916 1.392 . S
C917 H929 0.929 . S
C918 C914 1.531 . S
C918 H930 0.960 . S
C918 H931 0.962 . S
C918 H932 0.960 . S
C919 C916 1.511 . S
C919 H933 0.961 . S
C919 H934 0.961 . S
C919 H935 0.961 . S
C920 C921 1.370 . S
C920 C922 1.363 . S
C920 H936 0.931 . S
C921 C920 1.370 . S
C921 C925 1.408 . S
C922 C920 1.363 . S
C922 C923 1.370 . S
C922 C926 1.524 . S
C923 C915 1.503 . S
C923 C922 1.370 . S
C923 C924 1.403 . S
C924 C923 1.403 . S
C924 C925 1.404 . S
C924 C927 1.539 . S
C925 C921 1.408 . S
C925 C924 1.404 . S
C925 H937 0.930 . S
C926 C922 1.524 . S
C926 H938 0.956 . S
C926 H939 0.961 . S
C926 H940 0.961 . S
C927 C924 1.539 . S
C927 H941 0.958 . S
C927 H942 0.961 . S
C927 H943 0.960 . S
H928 C912 0.931 . S
H929 C917 0.929 . S
H930 C918 0.960 . S
H931 C918 0.962 . S
H932 C918 0.960 . S
H933 C919 0.961 . S
H934 C919 0.961 . S
H935 C919 0.961 . S
H936 C920 0.931 . S
H937 C925 0.930 . S
H938 C926 0.956 . S
H939 C926 0.961 . S
H940 C926 0.961 . S
H941 C927 0.958 . S
H942 C927 0.961 . S
H943 C927 0.960 . S
C944 C945 1.391 . S
C944 C946 1.394 . S
C944 H960 0.931 . S
C945 C944 1.391 . S
C945 C949 1.376 . S
C946 C944 1.394 . S
C946 C947 1.369 . S
C946 C950 1.531 . S
C947 C946 1.369 . S
C947 C948 1.410 . S
C947 C955 1.503 . S
C948 C947 1.410 . S
C948 C949 1.392 . S
C948 C951 1.511 . S
C949 C945 1.376 . S
C949 C948 1.392 . S
C949 H961 0.929 . S
C950 C946 1.531 . S
C950 H962 0.960 . S
C950 H963 0.962 . S
C950 H964 0.960 . S
C951 C948 1.511 . S
C951 H965 0.961 . S
C951 H966 0.961 . S
C951 H967 0.961 . S
C952 C953 1.370 . S
C952 C954 1.363 . S
C952 H968 0.931 . S
C953 C952 1.370 . S
C953 C957 1.408 . S
C954 C952 1.363 . S
C954 C955 1.370 . S
C954 C958 1.524 . S
C955 C947 1.503 . S
C955 C954 1.370 . S
C955 C956 1.403 . S
C956 C955 1.403 . S
C956 C957 1.404 . S
C956 C959 1.539 . S
C957 C953 1.408 . S
C957 C956 1.404 . S
C957 H969 0.930 . S
C958 C954 1.524 . S
C958 H970 0.956 . S
C958 H971 0.961 . S
C958 H972 0.961 . S
C959 C956 1.539 . S
C959 H973 0.958 . S
C959 H974 0.961 . S
C959 H975 0.960 . S
H960 C944 0.931 . S
H961 C949 0.929 . S
H962 C950 0.960 . S
H963 C950 0.962 . S
H964 C950 0.960 . S
H965 C951 0.961 . S
H966 C951 0.961 . S
H967 C951 0.961 . S
H968 C952 0.931 . S
H969 C957 0.930 . S
H970 C958 0.956 . S
H971 C958 0.961 . S
H972 C958 0.961 . S
H973 C959 0.958 . S
H974 C959 0.961 . S
H975 C959 0.960 . S
C976 C977 1.391 . S
C976 C978 1.394 . S
C976 H992 0.931 . S
C977 C976 1.391 . S
C977 C981 1.376 . S
C978 C976 1.394 . S
C978 C979 1.369 . S
C978 C982 1.531 . S
C979 C978 1.369 . S
C979 C980 1.410 . S
C979 C987 1.503 . S
C980 C979 1.410 . S
C980 C981 1.392 . S
C980 C983 1.511 . S
C981 C977 1.376 . S
C981 C980 1.392 . S
C981 H993 0.929 . S
C982 C978 1.531 . S
C982 H994 0.960 . S
C982 H995 0.962 . S
C982 H996 0.960 . S
C983 C980 1.511 . S
C983 H997 0.961 . S
C983 H998 0.961 . S
C983 H999 0.961 . S
C984 C985 1.370 . S
C984 C986 1.363 . S
C984 H1000 0.931 . S
C985 C984 1.370 . S
C985 C989 1.408 . S
C986 C984 1.363 . S
C986 C987 1.370 . S
C986 C990 1.524 . S
C987 C979 1.503 . S
C987 C986 1.370 . S
C987 C988 1.403 . S
C988 C987 1.403 . S
C988 C989 1.404 . S
C988 C991 1.539 . S
C989 C985 1.408 . S
C989 C988 1.404 . S
C989 H1001 0.930 . S
C990 C986 1.524 . S
C990 H1002 0.956 . S
C990 H1003 0.961 . S
C990 H1004 0.961 . S
C991 C988 1.539 . S
C991 H1005 0.958 . S
C991 H1006 0.961 . S
C991 H1007 0.960 . S
H992 C976 0.931 . S
H993 C981 0.929 . S
H994 C982 0.960 . S
H995 C982 0.962 . S
H996 C982 0.960 . S
H997 C983 0.961 . S
H998 C983 0.961 . S
H999 C983 0.961 . S
H1000 C984 0.931 . S
H1001 C989 0.930 . S
H1002 C990 0.956 . S
H1003 C990 0.961 . S
H1004 C990 0.961 . S
H1005 C991 0.958 . S
H1006 C991 0.961 . S
H1007 C991 0.960 . S
C1008 C1009 1.391 . S
C1008 C1010 1.394 . S
C1008 H1024 0.931 . S
C1009 C1008 1.391 . S
C1009 C1013 1.376 . S
C1010 C1008 1.394 . S
C1010 C1011 1.369 . S
C1010 C1014 1.531 . S
C1011 C1010 1.369 . S
C1011 C1012 1.410 . S
C1011 C1019 1.503 . S
C1012 C1011 1.410 . S
C1012 C1013 1.392 . S
C1012 C1015 1.511 . S
C1013 C1009 1.376 . S
C1013 C1012 1.392 . S
C1013 H1025 0.929 . S
C1014 C1010 1.531 . S
C1014 H1026 0.960 . S
C1014 H1027 0.962 . S
C1014 H1028 0.960 . S
C1015 C1012 1.511 . S
C1015 H1029 0.961 . S
C1015 H1030 0.961 . S
C1015 H1031 0.961 . S
C1016 C1017 1.370 . S
C1016 C1018 1.363 . S
C1016 H1032 0.931 . S
C1017 C1016 1.370 . S
C1017 C1021 1.408 . S
C1018 C1016 1.363 . S
C1018 C1019 1.370 . S
C1018 C1022 1.524 . S
C1019 C1011 1.503 . S
C1019 C1018 1.370 . S
C1019 C1020 1.403 . S
C1020 C1019 1.403 . S
C1020 C1021 1.404 . S
C1020 C1023 1.539 . S
C1021 C1017 1.408 . S
C1021 C1020 1.404 . S
C1021 H1033 0.930 . S
C1022 C1018 1.524 . S
C1022 H1034 0.956 . S
C1022 H1035 0.961 . S
C1022 H1036 0.961 . S
C1023 C1020 1.539 . S
C1023 H1037 0.958 . S
C1023 H1038 0.961 . S
C1023 H1039 0.960 . S
H1024 C1008 0.931 . S
H1025 C1013 0.929 . S
H1026 C1014 0.960 . S
H1027 C1014 0.962 . S
H1028 C1014 0.960 . S
H1029 C1015 0.961 . S
H1030 C1015 0.961 . S
H1031 C1015 0.961 . S
H1032 C1016 0.931 . S
H1033 C1021 0.930 . S
H1034 C1022 0.956 . S
H1035 C1022 0.961 . S
H1036 C1022 0.961 . S
H1037 C1023 0.958 . S
H1038 C1023 0.961 . S
H1039 C1023 0.960 . S
C1040 C1041 1.391 . S
C1040 C1042 1.394 . S
C1040 H1056 0.931 . S
C1041 C1040 1.391 . S
C1041 C1045 1.376 . S
C1042 C1040 1.394 . S
C1042 C1043 1.369 . S
C1042 C1046 1.531 . S
C1043 C1042 1.369 . S
C1043 C1044 1.410 . S
C1043 C1051 1.503 . S
C1044 C1043 1.410 . S
C1044 C1045 1.392 . S
C1044 C1047 1.511 . S
C1045 C1041 1.376 . S
C1045 C1044 1.392 . S
C1045 H1057 0.929 . S
C1046 C1042 1.531 . S
C1046 H1058 0.960 . S
C1046 H1059 0.962 . S
C1046 H1060 0.960 . S
C1047 C1044 1.511 . S
C1047 H1061 0.961 . S
C1047 H1062 0.961 . S
C1047 H1063 0.961 . S
C1048 C1049 1.370 . S
C1048 C1050 1.363 . S
C1048 H1064 0.931 . S
C1049 C1048 1.370 . S
C1049 C1053 1.408 . S
C1050 C1048 1.363 . S
C1050 C1051 1.370 . S
C1050 C1054 1.524 . S
C1051 C1043 1.503 . S
C1051 C1050 1.370 . S
C1051 C1052 1.403 . S
C1052 C1051 1.403 . S
C1052 C1053 1.404 . S
C1052 C1055 1.539 . S
C1053 C1049 1.408 . S
C1053 C1052 1.404 . S
C1053 H1065 0.930 . S
C1054 C1050 1.524 . S
C1054 H1066 0.956 . S
C1054 H1067 0.961 . S
C1054 H1068 0.961 . S
C1055 C1052 1.539 . S
C1055 H1069 0.958 . S
C1055 H1070 0.961 . S
C1055 H1071 0.960 . S
H1056 C1040 0.931 . S
H1057 C1045 0.929 . S
H1058 C1046 0.960 . S
H1059 C1046 0.962 . S
H1060 C1046 0.960 . S
H1061 C1047 0.961 . S
H1062 C1047 0.961 . S
H1063 C1047 0.961 . S
H1064 C1048 0.931 . S
H1065 C1053 0.930 . S
H1066 C1054 0.956 . S
H1067 C1054 0.961 . S
H1068 C1054 0.961 . S
H1069 C1055 0.958 . S
H1070 C1055 0.961 . S
H1071 C1055 0.960 . S
C1072 C1073 1.391 . S
C1072 C1074 1.394 . S
C1072 H1088 0.931 . S
C1073 C1072 1.391 . S
C1073 C1077 1.376 . S
C1074 C1072 1.394 . S
C1074 C1075 1.369 . S
C1074 C1078 1.531 . S
C1075 C1074 1.369 . S
C1075 C1076 1.410 . S
C1075 C1083 1.503 . S
C1076 C1075 1.410 . S
C1076 C1077 1.392 . S
C1076 C1079 1.511 . S
C1077 C1073 1.376 . S
C1077 C1076 1.392 . S
C1077 H1089 0.929 . S
C1078 C1074 1.531 . S
C1078 H1090 0.960 . S
C1078 H1091 0.962 . S
C1078 H1092 0.960 . S
C1079 C1076 1.511 . S
C1079 H1093 0.961 . S
C1079 H1094 0.961 . S
C1079 H1095 0.961 . S
C1080 C1081 1.370 . S
C1080 C1082 1.363 . S
C1080 H1096 0.931 . S
C1081 C1080 1.370 . S
C1081 C1085 1.408 . S
C1082 C1080 1.363 . S
C1082 C1083 1.370 . S
C1082 C1086 1.524 . S
C1083 C1075 1.503 . S
C1083 C1082 1.370 . S
C1083 C1084 1.403 . S
C1084 C1083 1.403 . S
C1084 C1085 1.404 . S
C1084 C1087 1.539 . S
C1085 C1081 1.408 . S
C1085 C1084 1.404 . S
C1085 H1097 0.930 . S
C1086 C1082 1.524 . S
C1086 H1098 0.956 . S
C1086 H1099 0.961 . S
C1086 H1100 0.961 . S
C1087 C1084 1.539 . S
C1087 H1101 0.958 . S
C1087 H1102 0.961 . S
C1087 H1103 0.960 . S
H1088 C1072 0.931 . S
H1089 C1077 0.929 . S
H1090 C1078 0.960 . S
H1091 C1078 0.962 . S
H1092 C1078 0.960 . S
H1093 C1079 0.961 . S
H1094 C1079 0.961 . S
H1095 C1079 0.961 . S
H1096 C1080 0.931 . S
H1097 C1085 0.930 . S
H1098 C1086 0.956 . S
H1099 C1086 0.961 . S
H1100 C1086 0.961 . S
H1101 C1087 0.958 . S
H1102 C1087 0.961 . S
H1103 C1087 0.960 . S
C1104 C1105 1.391 . S
C1104 C1106 1.394 . S
C1104 H1120 0.931 . S
C1105 C1104 1.391 . S
C1105 C1109 1.376 . S
C1106 C1104 1.394 . S
C1106 C1107 1.369 . S
C1106 C1110 1.531 . S
C1107 C1106 1.369 . S
C1107 C1108 1.410 . S
C1107 C1115 1.503 1_554 S
C1108 C1107 1.410 . S
C1108 C1109 1.392 . S
C1108 C1111 1.511 . S
C1109 C1105 1.376 . S
C1109 C1108 1.392 . S
C1109 H1121 0.929 . S
C1110 C1106 1.531 . S
C1110 H1122 0.960 1_554 S
C1110 H1123 0.962 . S
C1110 H1124 0.960 . S
C1111 C1108 1.511 . S
C1111 H1125 0.961 . S
C1111 H1126 0.961 1_554 S
C1111 H1127 0.961 . S
C1112 C1113 1.370 . S
C1112 C1114 1.363 . S
C1112 H1128 0.931 . S
C1113 C1112 1.370 . S
C1113 C1117 1.408 . S
C1114 C1112 1.363 . S
C1114 C1115 1.370 . S
C1114 C1118 1.524 . S
C1115 C1107 1.503 1_556 S
C1115 C1114 1.370 . S
C1115 C1116 1.403 . S
C1116 C1115 1.403 . S
C1116 C1117 1.404 . S
C1116 C1119 1.539 . S
C1117 C1113 1.408 . S
C1117 C1116 1.404 . S
C1117 H1129 0.930 . S
C1118 C1114 1.524 . S
C1118 H1130 0.956 . S
C1118 H1131 0.961 1_556 S
C1118 H1132 0.961 . S
C1119 C1116 1.539 . S
C1119 H1133 0.958 . S
C1119 H1134 0.961 . S
C1119 H1135 0.972 . S
H1120 C1104 0.931 . S
H1121 C1109 0.929 . S
H1122 C1110 0.960 1_556 S
H1123 C1110 0.962 . S
H1124 C1110 0.960 . S
H1125 C1111 0.961 . S
H1126 C1111 0.961 1_556 S
H1127 C1111 0.961 . S
H1128 C1112 0.931 . S
H1129 C1117 0.930 . S
H1130 C1118 0.956 . S
H1131 C1118 0.961 1_554 S
H1132 C1118 0.961 . S
H1133 C1119 0.958 . S
H1134 C1119 0.961 . S
H1135 C1119 0.972 . S
C1136 C1137 1.391 . S
C1136 C1138 1.394 . S
C1136 H1152 0.931 . S
C1137 C1136 1.391 . S
C1137 C1141 1.376 . S
C1138 C1136 1.394 . S
C1138 C1139 1.369 . S
C1138 C1142 1.531 . S
C1139 C1138 1.369 . S
C1139 C1140 1.410 . S
C1139 C1147 1.503 1_556 S
C1140 C1139 1.410 . S
C1140 C1141 1.392 . S
C1140 C1143 1.511 . S
C1141 C1137 1.376 . S
C1141 C1140 1.392 . S
C1141 H1153 0.929 . S
C1142 C1138 1.531 . S
C1142 H1154 0.960 1_556 S
C1142 H1155 0.962 . S
C1142 H1156 0.960 . S
C1143 C1140 1.511 . S
C1143 H1157 0.961 . S
C1143 H1158 0.961 1_556 S
C1143 H1159 0.961 . S
C1144 C1145 1.370 . S
C1144 C1146 1.363 . S
C1144 H1160 0.931 . S
C1145 C1144 1.370 . S
C1145 C1149 1.408 . S
C1146 C1144 1.363 . S
C1146 C1147 1.370 . S
C1146 C1150 1.524 . S
C1147 C1139 1.503 1_554 S
C1147 C1146 1.370 . S
C1147 C1148 1.403 . S
C1148 C1147 1.403 . S
C1148 C1149 1.404 . S
C1148 C1151 1.539 . S
C1149 C1145 1.408 . S
C1149 C1148 1.404 . S
C1149 H1161 0.930 . S
C1150 C1146 1.524 . S
C1150 H1162 0.956 . S
C1150 H1163 0.961 1_554 S
C1150 H1164 0.961 . S
C1151 C1148 1.539 . S
C1151 H1165 0.958 . S
C1151 H1166 0.961 . S
C1151 H1167 0.972 . S
H1152 C1136 0.931 . S
H1153 C1141 0.929 . S
H1154 C1142 0.960 1_554 S
H1155 C1142 0.962 . S
H1156 C1142 0.960 . S
H1157 C1143 0.961 . S
H1158 C1143 0.961 1_554 S
H1159 C1143 0.961 . S
H1160 C1144 0.931 . S
H1161 C1149 0.930 . S
H1162 C1150 0.956 . S
H1163 C1150 0.961 1_556 S
H1164 C1150 0.961 . S
H1165 C1151 0.958 . S
H1166 C1151 0.961 . S
H1167 C1151 0.972 . S
C1168 C1169 1.391 . S
C1168 C1170 1.394 . S
C1168 H1184 0.931 . S
C1169 C1168 1.391 . S
C1169 C1173 1.376 . S
C1170 C1168 1.394 . S
C1170 C1171 1.369 . S
C1170 C1174 1.531 . S
C1171 C1170 1.369 . S
C1171 C1172 1.410 . S
C1171 C1179 1.503 1_556 S
C1172 C1171 1.410 . S
C1172 C1173 1.392 . S
C1172 C1175 1.511 . S
C1173 C1169 1.376 . S
C1173 C1172 1.392 . S
C1173 H1185 0.929 . S
C1174 C1170 1.531 . S
C1174 H1186 0.960 1_556 S
C1174 H1187 0.962 . S
C1174 H1188 0.960 . S
C1175 C1172 1.511 . S
C1175 H1189 0.961 . S
C1175 H1190 0.961 1_556 S
C1175 H1191 0.961 . S
C1176 C1177 1.370 . S
C1176 C1178 1.363 . S
C1176 H1192 0.931 . S
C1177 C1176 1.370 . S
C1177 C1181 1.408 . S
C1178 C1176 1.363 . S
C1178 C1179 1.370 . S
C1178 C1182 1.524 . S
C1179 C1171 1.503 1_554 S
C1179 C1178 1.370 . S
C1179 C1180 1.403 . S
C1180 C1179 1.403 . S
C1180 C1181 1.404 . S
C1180 C1183 1.539 . S
C1181 C1177 1.408 . S
C1181 C1180 1.404 . S
C1181 H1193 0.930 . S
C1182 C1178 1.524 . S
C1182 H1194 0.956 . S
C1182 H1195 0.961 1_554 S
C1182 H1196 0.961 . S
C1183 C1180 1.539 . S
C1183 H1197 0.958 . S
C1183 H1198 0.961 . S
C1183 H1199 0.972 . S
H1184 C1168 0.931 . S
H1185 C1173 0.929 . S
H1186 C1174 0.960 1_554 S
H1187 C1174 0.962 . S
H1188 C1174 0.960 . S
H1189 C1175 0.961 . S
H1190 C1175 0.961 1_554 S
H1191 C1175 0.961 . S
H1192 C1176 0.931 . S
H1193 C1181 0.930 . S
H1194 C1182 0.956 . S
H1195 C1182 0.961 1_556 S
H1196 C1182 0.961 . S
H1197 C1183 0.958 . S
H1198 C1183 0.961 . S
H1199 C1183 0.972 . S
C1200 C1201 1.391 . S
C1200 C1202 1.394 . S
C1200 H1216 0.931 . S
C1201 C1200 1.391 . S
C1201 C1205 1.376 . S
C1202 C1200 1.394 . S
C1202 C1203 1.369 . S
C1202 C1206 1.531 . S
C1203 C1202 1.369 . S
C1203 C1204 1.410 . S
C1203 C1211 1.503 1_554 S
C1204 C1203 1.410 . S
C1204 C1205 1.392 . S
C1204 C1207 1.511 . S
C1205 C1201 1.376 . S
C1205 C1204 1.392 . S
C1205 H1217 0.929 . S
C1206 C1202 1.531 . S
C1206 H1218 0.960 1_554 S
C1206 H1219 0.962 . S
C1206 H1220 0.960 . S
C1207 C1204 1.511 . S
C1207 H1221 0.961 . S
C1207 H1222 0.961 1_554 S
C1207 H1223 0.961 . S
C1208 C1209 1.370 . S
C1208 C1210 1.363 . S
C1208 H1224 0.931 . S
C1209 C1208 1.370 . S
C1209 C1213 1.408 . S
C1210 C1208 1.363 . S
C1210 C1211 1.370 . S
C1210 C1214 1.524 . S
C1211 C1203 1.503 1_556 S
C1211 C1210 1.370 . S
C1211 C1212 1.403 . S
C1212 C1211 1.403 . S
C1212 C1213 1.404 . S
C1212 C1215 1.539 . S
C1213 C1209 1.408 . S
C1213 C1212 1.404 . S
C1213 H1225 0.930 . S
C1214 C1210 1.524 . S
C1214 H1226 0.956 . S
C1214 H1227 0.961 1_556 S
C1214 H1228 0.961 . S
C1215 C1212 1.539 . S
C1215 H1229 0.958 . S
C1215 H1230 0.961 . S
C1215 H1231 0.972 . S
H1216 C1200 0.931 . S
H1217 C1205 0.929 . S
H1218 C1206 0.960 1_556 S
H1219 C1206 0.962 . S
H1220 C1206 0.960 . S
H1221 C1207 0.961 . S
H1222 C1207 0.961 1_556 S
H1223 C1207 0.961 . S
H1224 C1208 0.931 . S
H1225 C1213 0.930 . S
H1226 C1214 0.956 . S
H1227 C1214 0.961 1_554 S
H1228 C1214 0.961 . S
H1229 C1215 0.958 . S
H1230 C1215 0.961 . S
H1231 C1215 0.972 . S
C1232 C1233 1.391 . S
C1232 C1234 1.394 . S
C1232 H1248 0.931 . S
C1233 C1232 1.391 . S
C1233 C1237 1.376 . S
C1234 C1232 1.394 . S
C1234 C1235 1.369 . S
C1234 C1238 1.531 . S
C1235 C1234 1.369 . S
C1235 C1236 1.410 . S
C1235 C1243 1.503 1_554 S
C1236 C1235 1.410 . S
C1236 C1237 1.392 . S
C1236 C1239 1.511 . S
C1237 C1233 1.376 . S
C1237 C1236 1.392 . S
C1237 H1249 0.929 . S
C1238 C1234 1.531 . S
C1238 H1250 0.960 1_554 S
C1238 H1251 0.962 . S
C1238 H1252 0.960 . S
C1239 C1236 1.511 . S
C1239 H1253 0.961 . S
C1239 H1254 0.961 1_554 S
C1239 H1255 0.961 . S
C1240 C1241 1.370 . S
C1240 C1242 1.363 . S
C1240 H1256 0.931 . S
C1241 C1240 1.370 . S
C1241 C1245 1.408 . S
C1242 C1240 1.363 . S
C1242 C1243 1.370 . S
C1242 C1246 1.524 . S
C1243 C1235 1.503 1_556 S
C1243 C1242 1.370 . S
C1243 C1244 1.403 . S
C1244 C1243 1.403 . S
C1244 C1245 1.404 . S
C1244 C1247 1.539 . S
C1245 C1241 1.408 . S
C1245 C1244 1.404 . S
C1245 H1257 0.930 . S
C1246 C1242 1.524 . S
C1246 H1258 0.956 . S
C1246 H1259 0.961 1_556 S
C1246 H1260 0.961 . S
C1247 C1244 1.539 . S
C1247 H1261 0.958 . S
C1247 H1262 0.961 . S
C1247 H1263 0.972 . S
H1248 C1232 0.931 . S
H1249 C1237 0.929 . S
H1250 C1238 0.960 1_556 S
H1251 C1238 0.962 . S
H1252 C1238 0.960 . S
H1253 C1239 0.961 . S
H1254 C1239 0.961 1_556 S
H1255 C1239 0.961 . S
H1256 C1240 0.931 . S
H1257 C1245 0.930 . S
H1258 C1246 0.956 . S
H1259 C1246 0.961 1_554 S
H1260 C1246 0.961 . S
H1261 C1247 0.958 . S
H1262 C1247 0.961 . S
H1263 C1247 0.972 . S
C1264 C1265 1.391 . S
C1264 C1266 1.394 . S
C1264 H1280 0.931 . S
C1265 C1264 1.391 . S
C1265 C1269 1.376 . S
C1266 C1264 1.394 . S
C1266 C1267 1.369 . S
C1266 C1270 1.531 . S
C1267 C1266 1.369 . S
C1267 C1268 1.410 . S
C1267 C1275 1.503 1_556 S
C1268 C1267 1.410 . S
C1268 C1269 1.392 . S
C1268 C1271 1.511 . S
C1269 C1265 1.376 . S
C1269 C1268 1.392 . S
C1269 H1281 0.929 . S
C1270 C1266 1.531 . S
C1270 H1282 0.960 1_556 S
C1270 H1283 0.962 . S
C1270 H1284 0.960 . S
C1271 C1268 1.511 . S
C1271 H1285 0.961 . S
C1271 H1286 0.961 1_556 S
C1271 H1287 0.961 . S
C1272 C1273 1.370 . S
C1272 C1274 1.363 . S
C1272 H1288 0.931 . S
C1273 C1272 1.370 . S
C1273 C1277 1.408 . S
C1274 C1272 1.363 . S
C1274 C1275 1.370 . S
C1274 C1278 1.524 . S
C1275 C1267 1.503 1_554 S
C1275 C1274 1.370 . S
C1275 C1276 1.403 . S
C1276 C1275 1.403 . S
C1276 C1277 1.404 . S
C1276 C1279 1.539 . S
C1277 C1273 1.408 . S
C1277 C1276 1.404 . S
C1277 H1289 0.930 . S
C1278 C1274 1.524 . S
C1278 H1290 0.956 . S
C1278 H1291 0.961 1_554 S
C1278 H1292 0.961 . S
C1279 C1276 1.539 . S
C1279 H1293 0.958 . S
C1279 H1294 0.961 . S
C1279 H1295 0.972 . S
H1280 C1264 0.931 . S
H1281 C1269 0.929 . S
H1282 C1270 0.960 1_554 S
H1283 C1270 0.962 . S
H1284 C1270 0.960 . S
H1285 C1271 0.961 . S
H1286 C1271 0.961 1_554 S
H1287 C1271 0.961 . S
H1288 C1272 0.931 . S
H1289 C1277 0.930 . S
H1290 C1278 0.956 . S
H1291 C1278 0.961 1_556 S
H1292 C1278 0.961 . S
H1293 C1279 0.958 . S
H1294 C1279 0.961 . S
H1295 C1279 0.972 . S
C1296 C1297 1.391 . S
C1296 C1298 1.394 . S
C1296 H1312 0.931 . S
C1297 C1296 1.391 . S
C1297 C1301 1.376 . S
C1298 C1296 1.394 . S
C1298 C1299 1.369 . S
C1298 C1302 1.531 . S
C1299 C1298 1.369 . S
C1299 C1300 1.410 . S
C1299 C1307 1.503 . S
C1300 C1299 1.410 . S
C1300 C1301 1.392 . S
C1300 C1303 1.511 . S
C1301 C1297 1.376 . S
C1301 C1300 1.392 . S
C1301 H1313 0.929 . S
C1302 C1298 1.531 . S
C1302 H1314 0.960 . S
C1302 H1315 0.962 . S
C1302 H1316 0.960 . S
C1303 C1300 1.511 . S
C1303 H1317 0.961 . S
C1303 H1318 0.961 . S
C1303 H1319 0.961 . S
C1304 C1305 1.370 . S
C1304 C1306 1.363 . S
C1304 H1320 0.931 . S
C1305 C1304 1.370 . S
C1305 C1309 1.408 . S
C1306 C1304 1.363 . S
C1306 C1307 1.370 . S
C1306 C1310 1.524 . S
C1307 C1299 1.503 . S
C1307 C1306 1.370 . S
C1307 C1308 1.403 . S
C1308 C1307 1.403 . S
C1308 C1309 1.404 . S
C1308 C1311 1.539 . S
C1309 C1305 1.408 . S
C1309 C1308 1.404 . S
C1309 H1321 0.930 . S
C1310 C1306 1.524 . S
C1310 H1322 0.956 . S
C1310 H1323 0.961 . S
C1310 H1324 0.961 . S
C1311 C1308 1.539 . S
C1311 H1325 0.958 . S
C1311 H1326 0.961 . S
C1311 H1327 0.960 . S
H1312 C1296 0.931 . S
H1313 C1301 0.929 . S
H1314 C1302 0.960 . S
H1315 C1302 0.962 . S
H1316 C1302 0.960 . S
H1317 C1303 0.961 . S
H1318 C1303 0.961 . S
H1319 C1303 0.961 . S
H1320 C1304 0.931 . S
H1321 C1309 0.930 . S
H1322 C1310 0.956 . S
H1323 C1310 0.961 . S
H1324 C1310 0.961 . S
H1325 C1311 0.958 . S
H1326 C1311 0.961 . S
H1327 C1311 0.960 . S
C1328 C1329 1.391 . S
C1328 C1330 1.394 . S
C1328 H1344 0.931 . S
C1329 C1328 1.391 . S
C1329 C1333 1.376 . S
C1330 C1328 1.394 . S
C1330 C1331 1.369 . S
C1330 C1334 1.531 . S
C1331 C1330 1.369 . S
C1331 C1332 1.410 . S
C1331 C1339 1.503 . S
C1332 C1331 1.410 . S
C1332 C1333 1.392 . S
C1332 C1335 1.511 . S
C1333 C1329 1.376 . S
C1333 C1332 1.392 . S
C1333 H1345 0.929 . S
C1334 C1330 1.531 . S
C1334 H1346 0.960 . S
C1334 H1347 0.962 . S
C1334 H1348 0.960 . S
C1335 C1332 1.511 . S
C1335 H1349 0.961 . S
C1335 H1350 0.961 . S
C1335 H1351 0.961 . S
C1336 C1337 1.370 . S
C1336 C1338 1.363 . S
C1336 H1352 0.931 . S
C1337 C1336 1.370 . S
C1337 C1341 1.408 . S
C1338 C1336 1.363 . S
C1338 C1339 1.370 . S
C1338 C1342 1.524 . S
C1339 C1331 1.503 . S
C1339 C1338 1.370 . S
C1339 C1340 1.403 . S
C1340 C1339 1.403 . S
C1340 C1341 1.404 . S
C1340 C1343 1.539 . S
C1341 C1337 1.408 . S
C1341 C1340 1.404 . S
C1341 H1353 0.930 . S
C1342 C1338 1.524 . S
C1342 H1354 0.956 . S
C1342 H1355 0.961 . S
C1342 H1356 0.961 . S
C1343 C1340 1.539 . S
C1343 H1357 0.958 . S
C1343 H1358 0.961 . S
C1343 H1359 0.960 . S
H1344 C1328 0.931 . S
H1345 C1333 0.929 . S
H1346 C1334 0.960 . S
H1347 C1334 0.962 . S
H1348 C1334 0.960 . S
H1349 C1335 0.961 . S
H1350 C1335 0.961 . S
H1351 C1335 0.961 . S
H1352 C1336 0.931 . S
H1353 C1341 0.930 . S
H1354 C1342 0.956 . S
H1355 C1342 0.961 . S
H1356 C1342 0.961 . S
H1357 C1343 0.958 . S
H1358 C1343 0.961 . S
H1359 C1343 0.960 . S
C1360 C1361 1.391 . S
C1360 C1362 1.394 . S
C1360 H1376 0.931 . S
C1361 C1360 1.391 . S
C1361 C1365 1.376 . S
C1362 C1360 1.394 . S
C1362 C1363 1.369 . S
C1362 C1366 1.531 . S
C1363 C1362 1.369 . S
C1363 C1364 1.410 . S
C1363 C1371 1.503 . S
C1364 C1363 1.410 . S
C1364 C1365 1.392 . S
C1364 C1367 1.511 . S
C1365 C1361 1.376 . S
C1365 C1364 1.392 . S
C1365 H1377 0.929 . S
C1366 C1362 1.531 . S
C1366 H1378 0.960 . S
C1366 H1379 0.962 . S
C1366 H1380 0.960 . S
C1367 C1364 1.511 . S
C1367 H1381 0.961 . S
C1367 H1382 0.961 . S
C1367 H1383 0.961 . S
C1368 C1369 1.370 . S
C1368 C1370 1.363 . S
C1368 H1384 0.931 . S
C1369 C1368 1.370 . S
C1369 C1373 1.408 . S
C1370 C1368 1.363 . S
C1370 C1371 1.370 . S
C1370 C1374 1.524 . S
C1371 C1363 1.503 . S
C1371 C1370 1.370 . S
C1371 C1372 1.403 . S
C1372 C1371 1.403 . S
C1372 C1373 1.404 . S
C1372 C1375 1.539 . S
C1373 C1369 1.408 . S
C1373 C1372 1.404 . S
C1373 H1385 0.930 . S
C1374 C1370 1.524 . S
C1374 H1386 0.956 . S
C1374 H1387 0.961 . S
C1374 H1388 0.961 . S
C1375 C1372 1.539 . S
C1375 H1389 0.958 . S
C1375 H1390 0.961 . S
C1375 H1391 0.960 . S
H1376 C1360 0.931 . S
H1377 C1365 0.929 . S
H1378 C1366 0.960 . S
H1379 C1366 0.962 . S
H1380 C1366 0.960 . S
H1381 C1367 0.961 . S
H1382 C1367 0.961 . S
H1383 C1367 0.961 . S
H1384 C1368 0.931 . S
H1385 C1373 0.930 . S
H1386 C1374 0.956 . S
H1387 C1374 0.961 . S
H1388 C1374 0.961 . S
H1389 C1375 0.958 . S
H1390 C1375 0.961 . S
H1391 C1375 0.960 . S
C1392 C1393 1.391 . S
C1392 C1394 1.394 . S
C1392 H1408 0.931 . S
C1393 C1392 1.391 . S
C1393 C1397 1.376 . S
C1394 C1392 1.394 . S
C1394 C1395 1.369 . S
C1394 C1398 1.531 . S
C1395 C1394 1.369 . S
C1395 C1396 1.410 . S
C1395 C1403 1.503 . S
C1396 C1395 1.410 . S
C1396 C1397 1.392 . S
C1396 C1399 1.511 . S
C1397 C1393 1.376 . S
C1397 C1396 1.392 . S
C1397 H1409 0.929 . S
C1398 C1394 1.531 . S
C1398 H1410 0.960 . S
C1398 H1411 0.962 . S
C1398 H1412 0.960 . S
C1399 C1396 1.511 . S
C1399 H1413 0.961 . S
C1399 H1414 0.961 . S
C1399 H1415 0.961 . S
C1400 C1401 1.370 . S
C1400 C1402 1.363 . S
C1400 H1416 0.931 . S
C1401 C1400 1.370 . S
C1401 C1405 1.408 . S
C1402 C1400 1.363 . S
C1402 C1403 1.370 . S
C1402 C1406 1.524 . S
C1403 C1395 1.503 . S
C1403 C1402 1.370 . S
C1403 C1404 1.403 . S
C1404 C1403 1.403 . S
C1404 C1405 1.404 . S
C1404 C1407 1.539 . S
C1405 C1401 1.408 . S
C1405 C1404 1.404 . S
C1405 H1417 0.930 . S
C1406 C1402 1.524 . S
C1406 H1418 0.956 . S
C1406 H1419 0.961 . S
C1406 H1420 0.961 . S
C1407 C1404 1.539 . S
C1407 H1421 0.958 . S
C1407 H1422 0.961 . S
C1407 H1423 0.960 . S
H1408 C1392 0.931 . S
H1409 C1397 0.929 . S
H1410 C1398 0.960 . S
H1411 C1398 0.962 . S
H1412 C1398 0.960 . S
H1413 C1399 0.961 . S
H1414 C1399 0.961 . S
H1415 C1399 0.961 . S
H1416 C1400 0.931 . S
H1417 C1405 0.930 . S
H1418 C1406 0.956 . S
H1419 C1406 0.961 . S
H1420 C1406 0.961 . S
H1421 C1407 0.958 . S
H1422 C1407 0.961 . S
H1423 C1407 0.960 . S
C1424 C1425 1.391 . S
C1424 C1426 1.394 . S
C1424 H1440 0.931 . S
C1425 C1424 1.391 . S
C1425 C1429 1.376 . S
C1426 C1424 1.394 . S
C1426 C1427 1.369 . S
C1426 C1430 1.531 . S
C1427 C1426 1.369 . S
C1427 C1428 1.410 . S
C1427 C1435 1.503 . S
C1428 C1427 1.410 . S
C1428 C1429 1.392 . S
C1428 C1431 1.511 . S
C1429 C1425 1.376 . S
C1429 C1428 1.392 . S
C1429 H1441 0.929 . S
C1430 C1426 1.531 . S
C1430 H1442 0.960 . S
C1430 H1443 0.962 . S
C1430 H1444 0.960 . S
C1431 C1428 1.511 . S
C1431 H1445 0.961 . S
C1431 H1446 0.961 . S
C1431 H1447 0.961 . S
C1432 C1433 1.370 . S
C1432 C1434 1.363 . S
C1432 H1448 0.931 . S
C1433 C1432 1.370 . S
C1433 C1437 1.408 . S
C1434 C1432 1.363 . S
C1434 C1435 1.370 . S
C1434 C1438 1.524 . S
C1435 C1427 1.503 . S
C1435 C1434 1.370 . S
C1435 C1436 1.403 . S
C1436 C1435 1.403 . S
C1436 C1437 1.404 . S
C1436 C1439 1.539 . S
C1437 C1433 1.408 . S
C1437 C1436 1.404 . S
C1437 H1449 0.930 . S
C1438 C1434 1.524 . S
C1438 H1450 0.956 . S
C1438 H1451 0.961 . S
C1438 H1452 0.961 . S
C1439 C1436 1.539 . S
C1439 H1453 0.958 . S
C1439 H1454 0.961 . S
C1439 H1455 0.960 . S
H1440 C1424 0.931 . S
H1441 C1429 0.929 . S
H1442 C1430 0.960 . S
H1443 C1430 0.962 . S
H1444 C1430 0.960 . S
H1445 C1431 0.961 . S
H1446 C1431 0.961 . S
H1447 C1431 0.961 . S
H1448 C1432 0.931 . S
H1449 C1437 0.930 . S
H1450 C1438 0.956 . S
H1451 C1438 0.961 . S
H1452 C1438 0.961 . S
H1453 C1439 0.958 . S
H1454 C1439 0.961 . S
H1455 C1439 0.960 . S
C1456 C1457 1.391 . S
C1456 C1458 1.394 . S
C1456 H1472 0.931 . S
C1457 C1456 1.391 . S
C1457 C1461 1.376 . S
C1458 C1456 1.394 . S
C1458 C1459 1.369 . S
C1458 C1462 1.531 . S
C1459 C1458 1.369 . S
C1459 C1460 1.410 . S
C1459 C1467 1.503 . S
C1460 C1459 1.410 . S
C1460 C1461 1.392 . S
C1460 C1463 1.511 . S
C1461 C1457 1.376 . S
C1461 C1460 1.392 . S
C1461 H1473 0.929 . S
C1462 C1458 1.531 . S
C1462 H1474 0.960 . S
C1462 H1475 0.962 . S
C1462 H1476 0.960 . S
C1463 C1460 1.511 . S
C1463 H1477 0.961 . S
C1463 H1478 0.961 . S
C1463 H1479 0.961 . S
C1464 C1465 1.370 . S
C1464 C1466 1.363 . S
C1464 H1480 0.931 . S
C1465 C1464 1.370 . S
C1465 C1469 1.408 . S
C1466 C1464 1.363 . S
C1466 C1467 1.370 . S
C1466 C1470 1.524 . S
C1467 C1459 1.503 . S
C1467 C1466 1.370 . S
C1467 C1468 1.403 . S
C1468 C1467 1.403 . S
C1468 C1469 1.404 . S
C1468 C1471 1.539 . S
C1469 C1465 1.408 . S
C1469 C1468 1.404 . S
C1469 H1481 0.930 . S
C1470 C1466 1.524 . S
C1470 H1482 0.956 . S
C1470 H1483 0.961 . S
C1470 H1484 0.961 . S
C1471 C1468 1.539 . S
C1471 H1485 0.958 . S
C1471 H1486 0.961 . S
C1471 H1487 0.960 . S
H1472 C1456 0.931 . S
H1473 C1461 0.929 . S
H1474 C1462 0.960 . S
H1475 C1462 0.962 . S
H1476 C1462 0.960 . S
H1477 C1463 0.961 . S
H1478 C1463 0.961 . S
H1479 C1463 0.961 . S
H1480 C1464 0.931 . S
H1481 C1469 0.930 . S
H1482 C1470 0.956 . S
H1483 C1470 0.961 . S
H1484 C1470 0.961 . S
H1485 C1471 0.958 . S
H1486 C1471 0.961 . S
H1487 C1471 0.960 . S
C1488 C1489 1.391 . S
C1488 C1490 1.394 . S
C1488 H1504 0.931 . S
C1489 C1488 1.391 . S
C1489 C1493 1.376 . S
C1490 C1488 1.394 . S
C1490 C1491 1.369 . S
C1490 C1494 1.531 . S
C1491 C1490 1.369 . S
C1491 C1492 1.410 . S
C1491 C1499 1.503 . S
C1492 C1491 1.410 . S
C1492 C1493 1.392 . S
C1492 C1495 1.511 . S
C1493 C1489 1.376 . S
C1493 C1492 1.392 . S
C1493 H1505 0.929 . S
C1494 C1490 1.531 . S
C1494 H1506 0.960 . S
C1494 H1507 0.962 . S
C1494 H1508 0.960 . S
C1495 C1492 1.511 . S
C1495 H1509 0.961 . S
C1495 H1510 0.961 . S
C1495 H1511 0.961 . S
C1496 C1497 1.370 . S
C1496 C1498 1.363 . S
C1496 H1512 0.931 . S
C1497 C1496 1.370 . S
C1497 C1501 1.408 . S
C1498 C1496 1.363 . S
C1498 C1499 1.370 . S
C1498 C1502 1.524 . S
C1499 C1491 1.503 . S
C1499 C1498 1.370 . S
C1499 C1500 1.403 . S
C1500 C1499 1.403 . S
C1500 C1501 1.404 . S
C1500 C1503 1.539 . S
C1501 C1497 1.408 . S
C1501 C1500 1.404 . S
C1501 H1513 0.930 . S
C1502 C1498 1.524 . S
C1502 H1514 0.956 . S
C1502 H1515 0.961 . S
C1502 H1516 0.961 . S
C1503 C1500 1.539 . S
C1503 H1517 0.958 . S
C1503 H1518 0.961 . S
C1503 H1519 0.960 . S
H1504 C1488 0.931 . S
H1505 C1493 0.929 . S
H1506 C1494 0.960 . S
H1507 C1494 0.962 . S
H1508 C1494 0.960 . S
H1509 C1495 0.961 . S
H1510 C1495 0.961 . S
H1511 C1495 0.961 . S
H1512 C1496 0.931 . S
H1513 C1501 0.930 . S
H1514 C1502 0.956 . S
H1515 C1502 0.961 . S
H1516 C1502 0.961 . S
H1517 C1503 0.958 . S
H1518 C1503 0.961 . S
H1519 C1503 0.960 . S
C1520 C1521 1.391 . S
C1520 C1522 1.394 . S
C1520 H1536 0.931 . S
C1521 C1520 1.391 . S
C1521 C1525 1.376 . S
C1522 C1520 1.394 . S
C1522 C1523 1.369 . S
C1522 C1526 1.531 . S
C1523 C1522 1.369 . S
C1523 C1524 1.410 . S
C1523 C1531 1.503 . S
C1524 C1523 1.410 . S
C1524 C1525 1.392 . S
C1524 C1527 1.511 . S
C1525 C1521 1.376 . S
C1525 C1524 1.392 . S
C1525 H1537 0.929 . S
C1526 C1522 1.531 . S
C1526 H1538 0.960 . S
C1526 H1539 0.962 . S
C1526 H1540 0.960 . S
C1527 C1524 1.511 . S
C1527 H1541 0.961 . S
C1527 H1542 0.961 . S
C1527 H1543 0.961 . S
C1528 C1529 1.370 . S
C1528 C1530 1.363 . S
C1528 H1544 0.931 . S
C1529 C1528 1.370 . S
C1529 C1533 1.408 . S
C1530 C1528 1.363 . S
C1530 C1531 1.370 . S
C1530 C1534 1.524 . S
C1531 C1523 1.503 . S
C1531 C1530 1.370 . S
C1531 C1532 1.403 . S
C1532 C1531 1.403 . S
C1532 C1533 1.404 . S
C1532 C1535 1.539 . S
C1533 C1529 1.408 . S
C1533 C1532 1.404 . S
C1533 H1545 0.930 . S
C1534 C1530 1.524 . S
C1534 H1546 0.956 . S
C1534 H1547 0.961 . S
C1534 H1548 0.961 . S
C1535 C1532 1.539 . S
C1535 H1549 0.958 . S
C1535 H1550 0.961 . S
C1535 H1551 0.960 . S
H1536 C1520 0.931 . S
H1537 C1525 0.929 . S
H1538 C1526 0.960 . S
H1539 C1526 0.962 . S
H1540 C1526 0.960 . S
H1541 C1527 0.961 . S
H1542 C1527 0.961 . S
H1543 C1527 0.961 . S
H1544 C1528 0.931 . S
H1545 C1533 0.930 . S
H1546 C1534 0.956 . S
H1547 C1534 0.961 . S
H1548 C1534 0.961 . S
H1549 C1535 0.958 . S
H1550 C1535 0.961 . S
H1551 C1535 0.960 . S
C1552 C1553 1.391 . S
C1552 C1554 1.394 . S
C1552 H1568 0.931 . S
C1553 C1552 1.391 . S
C1553 C1557 1.376 . S
C1554 C1552 1.394 . S
C1554 C1555 1.369 . S
C1554 C1558 1.531 . S
C1555 C1554 1.369 . S
C1555 C1556 1.410 . S
C1555 C1563 1.503 . S
C1556 C1555 1.410 . S
C1556 C1557 1.392 . S
C1556 C1559 1.511 . S
C1557 C1553 1.376 . S
C1557 C1556 1.392 . S
C1557 H1569 0.929 . S
C1558 C1554 1.531 . S
C1558 H1570 0.960 . S
C1558 H1571 0.962 . S
C1558 H1572 0.960 . S
C1559 C1556 1.511 . S
C1559 H1573 0.961 . S
C1559 H1574 0.961 . S
C1559 H1575 0.961 . S
C1560 C1561 1.370 . S
C1560 C1562 1.363 . S
C1560 H1576 0.931 . S
C1561 C1560 1.370 . S
C1561 C1565 1.408 . S
C1562 C1560 1.363 . S
C1562 C1563 1.370 . S
C1562 C1566 1.524 . S
C1563 C1555 1.503 . S
C1563 C1562 1.370 . S
C1563 C1564 1.403 . S
C1564 C1563 1.403 . S
C1564 C1565 1.404 . S
C1564 C1567 1.539 . S
C1565 C1561 1.408 . S
C1565 C1564 1.404 . S
C1565 H1577 0.930 . S
C1566 C1562 1.524 . S
C1566 H1578 0.956 . S
C1566 H1579 0.961 . S
C1566 H1580 0.961 . S
C1567 C1564 1.539 . S
C1567 H1581 0.958 . S
C1567 H1582 0.961 . S
C1567 H1583 0.960 . S
H1568 C1552 0.931 . S
H1569 C1557 0.929 . S
H1570 C1558 0.960 . S
H1571 C1558 0.962 . S
H1572 C1558 0.960 . S
H1573 C1559 0.961 . S
H1574 C1559 0.961 . S
H1575 C1559 0.961 . S
H1576 C1560 0.931 . S
H1577 C1565 0.930 . S
H1578 C1566 0.956 . S
H1579 C1566 0.961 . S
H1580 C1566 0.961 . S
H1581 C1567 0.958 . S
H1582 C1567 0.961 . S
H1583 C1567 0.960 . S
C1584 C1585 1.391 . S
C1584 C1586 1.394 . S
C1584 H1600 0.931 . S
C1585 C1584 1.391 . S
C1585 C1589 1.376 . S
C1586 C1584 1.394 . S
C1586 C1587 1.369 . S
C1586 C1590 1.531 . S
C1587 C1586 1.369 . S
C1587 C1588 1.410 . S
C1587 C1595 1.503 . S
C1588 C1587 1.410 . S
C1588 C1589 1.392 . S
C1588 C1591 1.511 . S
C1589 C1585 1.376 . S
C1589 C1588 1.392 . S
C1589 H1601 0.929 . S
C1590 C1586 1.531 . S
C1590 H1602 0.960 . S
C1590 H1603 0.962 . S
C1590 H1604 0.960 . S
C1591 C1588 1.511 . S
C1591 H1605 0.961 . S
C1591 H1606 0.961 . S
C1591 H1607 0.961 . S
C1592 C1593 1.370 . S
C1592 C1594 1.363 . S
C1592 H1608 0.931 . S
C1593 C1592 1.370 . S
C1593 C1597 1.408 . S
C1594 C1592 1.363 . S
C1594 C1595 1.370 . S
C1594 C1598 1.524 . S
C1595 C1587 1.503 . S
C1595 C1594 1.370 . S
C1595 C1596 1.403 . S
C1596 C1595 1.403 . S
C1596 C1597 1.404 . S
C1596 C1599 1.539 . S
C1597 C1593 1.408 . S
C1597 C1596 1.404 . S
C1597 H1609 0.930 . S
C1598 C1594 1.524 . S
C1598 H1610 0.956 . S
C1598 H1611 0.961 . S
C1598 H1612 0.961 . S
C1599 C1596 1.539 . S
C1599 H1613 0.958 . S
C1599 H1614 0.961 . S
C1599 H1615 0.960 . S
H1600 C1584 0.931 . S
H1601 C1589 0.929 . S
H1602 C1590 0.960 . S
H1603 C1590 0.962 . S
H1604 C1590 0.960 . S
H1605 C1591 0.961 . S
H1606 C1591 0.961 . S
H1607 C1591 0.961 . S
H1608 C1592 0.931 . S
H1609 C1597 0.930 . S
H1610 C1598 0.956 . S
H1611 C1598 0.961 . S
H1612 C1598 0.961 . S
H1613 C1599 0.958 . S
H1614 C1599 0.961 . S
H1615 C1599 0.960 . S
C1616 C1617 1.391 . S
C1616 C1618 1.394 . S
C1616 H1632 0.931 . S
C1617 C1616 1.391 . S
C1617 C1621 1.376 . S
C1618 C1616 1.394 . S
C1618 C1619 1.369 . S
C1618 C1622 1.531 . S
C1619 C1618 1.369 . S
C1619 C1620 1.410 . S
C1619 C1627 1.503 . S
C1620 C1619 1.410 . S
C1620 C1621 1.392 . S
C1620 C1623 1.511 . S
C1621 C1617 1.376 . S
C1621 C1620 1.392 . S
C1621 H1633 0.929 . S
C1622 C1618 1.531 . S
C1622 H1634 0.960 . S
C1622 H1635 0.962 . S
C1622 H1636 0.960 . S
C1623 C1620 1.511 . S
C1623 H1637 0.961 . S
C1623 H1638 0.961 . S
C1623 H1639 0.961 . S
C1624 C1625 1.370 . S
C1624 C1626 1.363 . S
C1624 H1640 0.931 . S
C1625 C1624 1.370 . S
C1625 C1629 1.408 . S
C1626 C1624 1.363 . S
C1626 C1627 1.370 . S
C1626 C1630 1.524 . S
C1627 C1619 1.503 . S
C1627 C1626 1.370 . S
C1627 C1628 1.403 . S
C1628 C1627 1.403 . S
C1628 C1629 1.404 . S
C1628 C1631 1.539 . S
C1629 C1625 1.408 . S
C1629 C1628 1.404 . S
C1629 H1641 0.930 . S
C1630 C1626 1.524 . S
C1630 H1642 0.956 . S
C1630 H1643 0.961 . S
C1630 H1644 0.961 . S
C1631 C1628 1.539 . S
C1631 H1645 0.958 . S
C1631 H1646 0.961 . S
C1631 H1647 0.960 . S
H1632 C1616 0.931 . S
H1633 C1621 0.929 . S
H1634 C1622 0.960 . S
H1635 C1622 0.962 . S
H1636 C1622 0.960 . S
H1637 C1623 0.961 . S
H1638 C1623 0.961 . S
H1639 C1623 0.961 . S
H1640 C1624 0.931 . S
H1641 C1629 0.930 . S
H1642 C1630 0.956 . S
H1643 C1630 0.961 . S
H1644 C1630 0.961 . S
H1645 C1631 0.958 . S
H1646 C1631 0.961 . S
H1647 C1631 0.960 . S
C1648 C1649 1.391 . S
C1648 C1650 1.394 . S
C1648 H1664 0.931 . S
C1649 C1648 1.391 . S
C1649 C1653 1.376 . S
C1650 C1648 1.394 . S
C1650 C1651 1.369 . S
C1650 C1654 1.531 . S
C1651 C1650 1.369 . S
C1651 C1652 1.410 . S
C1651 C1659 1.503 . S
C1652 C1651 1.410 . S
C1652 C1653 1.392 . S
C1652 C1655 1.511 . S
C1653 C1649 1.376 . S
C1653 C1652 1.392 . S
C1653 H1665 0.929 . S
C1654 C1650 1.531 . S
C1654 H1666 0.960 . S
C1654 H1667 0.962 . S
C1654 H1668 0.960 . S
C1655 C1652 1.511 . S
C1655 H1669 0.961 . S
C1655 H1670 0.961 . S
C1655 H1671 0.961 . S
C1656 C1657 1.370 . S
C1656 C1658 1.363 . S
C1656 H1672 0.931 . S
C1657 C1656 1.370 . S
C1657 C1661 1.408 . S
C1658 C1656 1.363 . S
C1658 C1659 1.370 . S
C1658 C1662 1.524 . S
C1659 C1651 1.503 . S
C1659 C1658 1.370 . S
C1659 C1660 1.403 . S
C1660 C1659 1.403 . S
C1660 C1661 1.404 . S
C1660 C1663 1.539 . S
C1661 C1657 1.408 . S
C1661 C1660 1.404 . S
C1661 H1673 0.930 . S
C1662 C1658 1.524 . S
C1662 H1674 0.956 . S
C1662 H1675 0.961 . S
C1662 H1676 0.961 . S
C1663 C1660 1.539 . S
C1663 H1677 0.958 . S
C1663 H1678 0.961 . S
C1663 H1679 0.960 . S
H1664 C1648 0.931 . S
H1665 C1653 0.929 . S
H1666 C1654 0.960 . S
H1667 C1654 0.962 . S
H1668 C1654 0.960 . S
H1669 C1655 0.961 . S
H1670 C1655 0.961 . S
H1671 C1655 0.961 . S
H1672 C1656 0.931 . S
H1673 C1661 0.930 . S
H1674 C1662 0.956 . S
H1675 C1662 0.961 . S
H1676 C1662 0.961 . S
H1677 C1663 0.958 . S
H1678 C1663 0.961 . S
H1679 C1663 0.960 . S
C1680 C1681 1.391 . S
C1680 C1682 1.394 . S
C1680 H1696 0.931 . S
C1681 C1680 1.391 . S
C1681 C1685 1.376 . S
C1682 C1680 1.394 . S
C1682 C1683 1.369 . S
C1682 C1686 1.531 . S
C1683 C1682 1.369 . S
C1683 C1684 1.410 . S
C1683 C1691 1.503 . S
C1684 C1683 1.410 . S
C1684 C1685 1.392 . S
C1684 C1687 1.511 . S
C1685 C1681 1.376 . S
C1685 C1684 1.392 . S
C1685 H1697 0.929 . S
C1686 C1682 1.531 . S
C1686 H1698 0.960 . S
C1686 H1699 0.962 . S
C1686 H1700 0.960 . S
C1687 C1684 1.511 . S
C1687 H1701 0.961 . S
C1687 H1702 0.961 . S
C1687 H1703 0.961 . S
C1688 C1689 1.370 . S
C1688 C1690 1.363 . S
C1688 H1704 0.931 . S
C1689 C1688 1.370 . S
C1689 C1693 1.408 . S
C1690 C1688 1.363 . S
C1690 C1691 1.370 . S
C1690 C1694 1.524 . S
C1691 C1683 1.503 . S
C1691 C1690 1.370 . S
C1691 C1692 1.403 . S
C1692 C1691 1.403 . S
C1692 C1693 1.404 . S
C1692 C1695 1.539 . S
C1693 C1689 1.408 . S
C1693 C1692 1.404 . S
C1693 H1705 0.930 . S
C1694 C1690 1.524 . S
C1694 H1706 0.956 . S
C1694 H1707 0.961 . S
C1694 H1708 0.961 . S
C1695 C1692 1.539 . S
C1695 H1709 0.958 . S
C1695 H1710 0.961 . S
C1695 H1711 0.960 . S
H1696 C1680 0.931 . S
H1697 C1685 0.929 . S
H1698 C1686 0.960 . S
H1699 C1686 0.962 . S
H1700 C1686 0.960 . S
H1701 C1687 0.961 . S
H1702 C1687 0.961 . S
H1703 C1687 0.961 . S
H1704 C1688 0.931 . S
H1705 C1693 0.930 . S
H1706 C1694 0.956 . S
H1707 C1694 0.961 . S
H1708 C1694 0.961 . S
H1709 C1695 0.958 . S
H1710 C1695 0.961 . S
H1711 C1695 0.960 . S
C1712 C1713 1.391 . S
C1712 C1714 1.394 . S
C1712 H1728 0.931 . S
C1713 C1712 1.391 . S
C1713 C1717 1.376 . S
C1714 C1712 1.394 . S
C1714 C1715 1.369 . S
C1714 C1718 1.531 . S
C1715 C1714 1.369 . S
C1715 C1716 1.410 . S
C1715 C1723 1.503 . S
C1716 C1715 1.410 . S
C1716 C1717 1.392 . S
C1716 C1719 1.511 . S
C1717 C1713 1.376 . S
C1717 C1716 1.392 . S
C1717 H1729 0.929 . S
C1718 C1714 1.531 . S
C1718 H1730 0.960 . S
C1718 H1731 0.962 . S
C1718 H1732 0.960 . S
C1719 C1716 1.511 . S
C1719 H1733 0.961 . S
C1719 H1734 0.961 . S
C1719 H1735 0.961 . S
C1720 C1721 1.370 . S
C1720 C1722 1.363 . S
C1720 H1736 0.931 . S
C1721 C1720 1.370 . S
C1721 C1725 1.408 . S
C1722 C1720 1.363 . S
C1722 C1723 1.370 . S
C1722 C1726 1.524 . S
C1723 C1715 1.503 . S
C1723 C1722 1.370 . S
C1723 C1724 1.403 . S
C1724 C1723 1.403 . S
C1724 C1725 1.404 . S
C1724 C1727 1.539 . S
C1725 C1721 1.408 . S
C1725 C1724 1.404 . S
C1725 H1737 0.930 . S
C1726 C1722 1.524 . S
C1726 H1738 0.956 . S
C1726 H1739 0.961 . S
C1726 H1740 0.961 . S
C1727 C1724 1.539 . S
C1727 H1741 0.958 . S
C1727 H1742 0.961 . S
C1727 H1743 0.960 . S
H1728 C1712 0.931 . S
H1729 C1717 0.929 . S
H1730 C1718 0.960 . S
H1731 C1718 0.962 . S
H1732 C1718 0.960 . S
H1733 C1719 0.961 . S
H1734 C1719 0.961 . S
H1735 C1719 0.961 . S
H1736 C1720 0.931 . S
H1737 C1725 0.930 . S
H1738 C1726 0.956 . S
H1739 C1726 0.961 . S
H1740 C1726 0.961 . S
H1741 C1727 0.958 . S
H1742 C1727 0.961 . S
H1743 C1727 0.960 . S
C1744 C1745 1.391 . S
C1744 C1746 1.394 . S
C1744 H1760 0.931 . S
C1745 C1744 1.391 . S
C1745 C1749 1.376 . S
C1746 C1744 1.394 . S
C1746 C1747 1.369 . S
C1746 C1750 1.531 . S
C1747 C1746 1.369 . S
C1747 C1748 1.410 . S
C1747 C1755 1.503 . S
C1748 C1747 1.410 . S
C1748 C1749 1.392 . S
C1748 C1751 1.511 . S
C1749 C1745 1.376 . S
C1749 C1748 1.392 . S
C1749 H1761 0.929 . S
C1750 C1746 1.531 . S
C1750 H1762 0.960 . S
C1750 H1763 0.962 . S
C1750 H1764 0.960 . S
C1751 C1748 1.511 . S
C1751 H1765 0.961 . S
C1751 H1766 0.961 . S
C1751 H1767 0.961 . S
C1752 C1753 1.370 . S
C1752 C1754 1.363 . S
C1752 H1768 0.931 . S
C1753 C1752 1.370 . S
C1753 C1757 1.408 . S
C1754 C1752 1.363 . S
C1754 C1755 1.370 . S
C1754 C1758 1.524 . S
C1755 C1747 1.503 . S
C1755 C1754 1.370 . S
C1755 C1756 1.403 . S
C1756 C1755 1.403 . S
C1756 C1757 1.404 . S
C1756 C1759 1.539 . S
C1757 C1753 1.408 . S
C1757 C1756 1.404 . S
C1757 H1769 0.930 . S
C1758 C1754 1.524 . S
C1758 H1770 0.956 . S
C1758 H1771 0.961 . S
C1758 H1772 0.961 . S
C1759 C1756 1.539 . S
C1759 H1773 0.958 . S
C1759 H1774 0.961 . S
C1759 H1775 0.960 . S
H1760 C1744 0.931 . S
H1761 C1749 0.929 . S
H1762 C1750 0.960 . S
H1763 C1750 0.962 . S
H1764 C1750 0.960 . S
H1765 C1751 0.961 . S
H1766 C1751 0.961 . S
H1767 C1751 0.961 . S
H1768 C1752 0.931 . S
H1769 C1757 0.930 . S
H1770 C1758 0.956 . S
H1771 C1758 0.961 . S
H1772 C1758 0.961 . S
H1773 C1759 0.958 . S
H1774 C1759 0.961 . S
H1775 C1759 0.960 . S
C1776 C1777 1.391 . S
C1776 C1778 1.394 . S
C1776 H1792 0.931 . S
C1777 C1776 1.391 . S
C1777 C1781 1.376 . S
C1778 C1776 1.394 . S
C1778 C1779 1.369 . S
C1778 C1782 1.531 . S
C1779 C1778 1.369 . S
C1779 C1780 1.410 . S
C1779 C1787 1.503 . S
C1780 C1779 1.410 . S
C1780 C1781 1.392 . S
C1780 C1783 1.511 . S
C1781 C1777 1.376 . S
C1781 C1780 1.392 . S
C1781 H1793 0.929 . S
C1782 C1778 1.531 . S
C1782 H1794 0.960 . S
C1782 H1795 0.962 . S
C1782 H1796 0.960 . S
C1783 C1780 1.511 . S
C1783 H1797 0.961 . S
C1783 H1798 0.961 . S
C1783 H1799 0.961 . S
C1784 C1785 1.370 . S
C1784 C1786 1.363 . S
C1784 H1800 0.931 . S
C1785 C1784 1.370 . S
C1785 C1789 1.408 . S
C1786 C1784 1.363 . S
C1786 C1787 1.370 . S
C1786 C1790 1.524 . S
C1787 C1779 1.503 . S
C1787 C1786 1.370 . S
C1787 C1788 1.403 . S
C1788 C1787 1.403 . S
C1788 C1789 1.404 . S
C1788 C1791 1.539 . S
C1789 C1785 1.408 . S
C1789 C1788 1.404 . S
C1789 H1801 0.930 . S
C1790 C1786 1.524 . S
C1790 H1802 0.956 . S
C1790 H1803 0.961 . S
C1790 H1804 0.961 . S
C1791 C1788 1.539 . S
C1791 H1805 0.958 . S
C1791 H1806 0.961 . S
C1791 H1807 0.960 . S
H1792 C1776 0.931 . S
H1793 C1781 0.929 . S
H1794 C1782 0.960 . S
H1795 C1782 0.962 . S
H1796 C1782 0.960 . S
H1797 C1783 0.961 . S
H1798 C1783 0.961 . S
H1799 C1783 0.961 . S
H1800 C1784 0.931 . S
H1801 C1789 0.930 . S
H1802 C1790 0.956 . S
H1803 C1790 0.961 . S
H1804 C1790 0.961 . S
H1805 C1791 0.958 . S
H1806 C1791 0.961 . S
H1807 C1791 0.960 . S
C1808 C1809 1.391 . S
C1808 C1810 1.394 . S
C1808 H1824 0.931 . S
C1809 C1808 1.391 . S
C1809 C1813 1.376 . S
C1810 C1808 1.394 . S
C1810 C1811 1.369 . S
C1810 C1814 1.531 . S
C1811 C1810 1.369 . S
C1811 C1812 1.410 . S
C1811 C1819 1.503 . S
C1812 C1811 1.410 . S
C1812 C1813 1.392 . S
C1812 C1815 1.511 . S
C1813 C1809 1.376 . S
C1813 C1812 1.392 . S
C1813 H1825 0.929 . S
C1814 C1810 1.531 . S
C1814 H1826 0.960 . S
C1814 H1827 0.962 . S
C1814 H1828 0.960 . S
C1815 C1812 1.511 . S
C1815 H1829 0.961 . S
C1815 H1830 0.961 . S
C1815 H1831 0.961 . S
C1816 C1817 1.370 . S
C1816 C1818 1.363 . S
C1816 H1832 0.931 . S
C1817 C1816 1.370 . S
C1817 C1821 1.408 . S
C1818 C1816 1.363 . S
C1818 C1819 1.370 . S
C1818 C1822 1.524 . S
C1819 C1811 1.503 . S
C1819 C1818 1.370 . S
C1819 C1820 1.403 . S
C1820 C1819 1.403 . S
C1820 C1821 1.404 . S
C1820 C1823 1.539 . S
C1821 C1817 1.408 . S
C1821 C1820 1.404 . S
C1821 H1833 0.930 . S
C1822 C1818 1.524 . S
C1822 H1834 0.956 . S
C1822 H1835 0.961 . S
C1822 H1836 0.961 . S
C1823 C1820 1.539 . S
C1823 H1837 0.958 . S
C1823 H1838 0.961 . S
C1823 H1839 0.960 . S
H1824 C1808 0.931 . S
H1825 C1813 0.929 . S
H1826 C1814 0.960 . S
H1827 C1814 0.962 . S
H1828 C1814 0.960 . S
H1829 C1815 0.961 . S
H1830 C1815 0.961 . S
H1831 C1815 0.961 . S
H1832 C1816 0.931 . S
H1833 C1821 0.930 . S
H1834 C1822 0.956 . S
H1835 C1822 0.961 . S
H1836 C1822 0.961 . S
H1837 C1823 0.958 . S
H1838 C1823 0.961 . S
H1839 C1823 0.960 . S
C1840 C1841 1.391 . S
C1840 C1842 1.394 . S
C1840 H1856 0.931 . S
C1841 C1840 1.391 . S
C1841 C1845 1.376 . S
C1842 C1840 1.394 . S
C1842 C1843 1.369 . S
C1842 C1846 1.531 . S
C1843 C1842 1.369 . S
C1843 C1844 1.410 . S
C1843 C1851 1.503 . S
C1844 C1843 1.410 . S
C1844 C1845 1.392 . S
C1844 C1847 1.511 . S
C1845 C1841 1.376 . S
C1845 C1844 1.392 . S
C1845 H1857 0.929 . S
C1846 C1842 1.531 . S
C1846 H1858 0.960 . S
C1846 H1859 0.962 . S
C1846 H1860 0.960 . S
C1847 C1844 1.511 . S
C1847 H1861 0.961 . S
C1847 H1862 0.961 . S
C1847 H1863 0.961 . S
C1848 C1849 1.370 . S
C1848 C1850 1.363 . S
C1848 H1864 0.931 . S
C1849 C1848 1.370 . S
C1849 C1853 1.408 . S
C1850 C1848 1.363 . S
C1850 C1851 1.370 . S
C1850 C1854 1.524 . S
C1851 C1843 1.503 . S
C1851 C1850 1.370 . S
C1851 C1852 1.403 . S
C1852 C1851 1.403 . S
C1852 C1853 1.404 . S
C1852 C1855 1.539 . S
C1853 C1849 1.408 . S
C1853 C1852 1.404 . S
C1853 H1865 0.930 . S
C1854 C1850 1.524 . S
C1854 H1866 0.956 . S
C1854 H1867 0.961 . S
C1854 H1868 0.961 . S
C1855 C1852 1.539 . S
C1855 H1869 0.958 . S
C1855 H1870 0.961 . S
C1855 H1871 0.960 . S
H1856 C1840 0.931 . S
H1857 C1845 0.929 . S
H1858 C1846 0.960 . S
H1859 C1846 0.962 . S
H1860 C1846 0.960 . S
H1861 C1847 0.961 . S
H1862 C1847 0.961 . S
H1863 C1847 0.961 . S
H1864 C1848 0.931 . S
H1865 C1853 0.930 . S
H1866 C1854 0.956 . S
H1867 C1854 0.961 . S
H1868 C1854 0.961 . S
H1869 C1855 0.958 . S
H1870 C1855 0.961 . S
H1871 C1855 0.960 . S
C337 C9 1.513 . S
C345 C107 1.524 . S
C369 C121 1.511 . S
C377 C23 1.524 . S
C401 C37 1.549 . S
C409 C135 1.541 . S
C433 C51 1.516 . S
C441 C149 1.528 . S
C465 C163 1.548 . S
C473 C65 1.540 . S
C497 C79 1.543 . S
C505 C93 1.540 . S
C529 C177 1.512 . S
C537 C275 1.525 . S
C561 C191 1.515 . S
C569 C289 1.526 . S
C593 C303 1.524 . S
C601 C205 1.529 . S
C625 C219 1.506 . S
C633 C317 1.522 . S
C657 C233 1.546 . S
C665 C331 1.539 . S
C689 C261 1.529 . S
C697 C247 1.533 . S
C721 C8 1.377 . S
C729 C120 1.396 . S
C753 C134 1.399 . S
C761 C22 1.387 . S
C785 C148 1.394 . S
C793 C36 1.389 . S
C817 C50 1.399 . S
C825 C162 1.388 . S
C849 C64 1.386 . S
C857 C92 1.392 . S
C881 C78 1.378 . S
C889 C106 1.395 . S
C913 C288 1.378 . S
C921 C176 1.395 . S
C945 C190 1.378 . S
C953 C302 1.395 . S
C977 C316 1.397 . S
C985 C204 1.387 . S
C1009 C330 1.379 . S
C1017 C218 1.395 . S
C1041 C260 1.383 . S
C1049 C232 1.392 . S
C1073 C246 1.378 . S
C1081 C274 1.394 . S
C1105 C7 1.528 . S
C1113 C217 1.533 . S
C1137 C231 1.502 . S
C1145 C21 1.522 . S
C1169 C245 1.555 . S
C1177 C35 1.541 . S
C1201 C49 1.537 . S
C1209 C175 1.536 . S
C1233 C63 1.502 . S
C1241 C189 1.518 . S
C1265 C203 1.498 . S
C1273 C77 1.519 . S
C1297 C301 1.532 . S
C1305 C91 1.530 . S
C1329 C315 1.499 . S
C1337 C105 1.518 . S
C1361 C329 1.497 . S
C1369 C119 1.519 . S
C1393 C259 1.537 . S
C1401 C133 1.533 . S
C1425 C147 1.518 . S
C1433 C273 1.524 . S
C1457 C161 1.501 . S
C1465 C287 1.518 . S
C1489 C3 1.441 . S
C1497 C143 1.439 . S
C1521 C157 1.439 . S
C1529 C17 1.440 . S
C1553 C87 1.435 . S
C1561 C31 1.434 . S
C1585 C45 1.424 . S
C1593 C101 1.440 . S
C1617 C59 1.440 . S
C1625 C115 1.439 . S
C1649 C73 1.428 . S
C1657 C129 1.442 . S
C1681 C171 1.437 . S
C1689 C311 1.434 . S
C1713 C185 1.426 . S
C1721 C325 1.441 . S
C1745 C199 1.438 . S
C1753 C255 1.434 . S
C1777 C269 1.432 . S
C1785 C213 1.433 . S
C1809 C227 1.443 . S
C1817 C283 1.439 . S
C1841 C241 1.424 . S
C1849 C297 1.439 . S
