# Generated by pormake.
# Topology unw, (4)-cn, num edge types: 1
# Building blocks:
#     Node 0, Type 0, BuildingBlock: CEKHIL_clean_sbu_0, # of connection points: 4
#     Node 1, Type 0, BuildingBlock: CEKHIL_clean_sbu_0, # of connection points: 4
#     Node 2, Type 0, BuildingBlock: CEKHIL_clean_sbu_0, # of connection points: 4
#     Node 3, Type 0, BuildingBlock: CEKHIL_clean_sbu_0, # of connection points: 4
#     Node 4, Type 0, BuildingBlock: CEKHIL_clean_sbu_0, # of connection points: 4
#     Node 5, Type 0, BuildingBlock: CEKHIL_clean_sbu_0, # of connection points: 4
#     Node 6, Type 0, BuildingBlock: CEKHIL_clean_sbu_0, # of connection points: 4
#     Node 7, Type 0, BuildingBlock: CEKHIL_clean_sbu_0, # of connection points: 4
#     Node 8, Type 0, BuildingBlock: CEKHIL_clean_sbu_0, # of connection points: 4
#     Node 9, Type 0, BuildingBlock: CEKHIL_clean_sbu_0, # of connection points: 4
#     Node 10, Type 0, BuildingBlock: CEKHIL_clean_sbu_0, # of connection points: 4
#     Node 11, Type 0, BuildingBlock: CEKHIL_clean_sbu_0, # of connection points: 4
#     Node 12, Type 0, BuildingBlock: CEKHIL_clean_sbu_0, # of connection points: 4
#     Node 13, Type 0, BuildingBlock: CEKHIL_clean_sbu_0, # of connection points: 4
#     Node 14, Type 0, BuildingBlock: CEKHIL_clean_sbu_0, # of connection points: 4
#     Node 15, Type 0, BuildingBlock: CEKHIL_clean_sbu_0, # of connection points: 4
#     Node 16, Type 0, BuildingBlock: CEKHIL_clean_sbu_0, # of connection points: 4
#     Node 17, Type 0, BuildingBlock: CEKHIL_clean_sbu_0, # of connection points: 4
#     Node 18, Type 0, BuildingBlock: CEKHIL_clean_sbu_0, # of connection points: 4
#     Node 19, Type 0, BuildingBlock: CEKHIL_clean_sbu_0, # of connection points: 4
#     Node 20, Type 0, BuildingBlock: CEKHIL_clean_sbu_0, # of connection points: 4
#     Node 21, Type 0, BuildingBlock: CEKHIL_clean_sbu_0, # of connection points: 4
#     Node 22, Type 0, BuildingBlock: CEKHIL_clean_sbu_0, # of connection points: 4
#     Node 23, Type 0, BuildingBlock: CEKHIL_clean_sbu_0, # of connection points: 4
#     Edge 24, Type (0, 0), BuildingBlock: MIFKUJ_clean_linker_0, # of connection points: 2
#     Edge 25, Type (0, 0), BuildingBlock: MIFKUJ_clean_linker_0, # of connection points: 2
#     Edge 26, Type (0, 0), BuildingBlock: MIFKUJ_clean_linker_0, # of connection points: 2
#     Edge 27, Type (0, 0), BuildingBlock: MIFKUJ_clean_linker_0, # of connection points: 2
#     Edge 28, Type (0, 0), BuildingBlock: MIFKUJ_clean_linker_0, # of connection points: 2
#     Edge 29, Type (0, 0), BuildingBlock: MIFKUJ_clean_linker_0, # of connection points: 2
#     Edge 30, Type (0, 0), BuildingBlock: MIFKUJ_clean_linker_0, # of connection points: 2
#     Edge 31, Type (0, 0), BuildingBlock: MIFKUJ_clean_linker_0, # of connection points: 2
#     Edge 32, Type (0, 0), BuildingBlock: MIFKUJ_clean_linker_0, # of connection points: 2
#     Edge 33, Type (0, 0), BuildingBlock: MIFKUJ_clean_linker_0, # of connection points: 2
#     Edge 34, Type (0, 0), BuildingBlock: MIFKUJ_clean_linker_0, # of connection points: 2
#     Edge 35, Type (0, 0), BuildingBlock: MIFKUJ_clean_linker_0, # of connection points: 2
#     Edge 36, Type (0, 0), BuildingBlock: MIFKUJ_clean_linker_0, # of connection points: 2
#     Edge 37, Type (0, 0), BuildingBlock: MIFKUJ_clean_linker_0, # of connection points: 2
#     Edge 38, Type (0, 0), BuildingBlock: MIFKUJ_clean_linker_0, # of connection points: 2
#     Edge 39, Type (0, 0), BuildingBlock: MIFKUJ_clean_linker_0, # of connection points: 2
#     Edge 40, Type (0, 0), BuildingBlock: MIFKUJ_clean_linker_0, # of connection points: 2
#     Edge 41, Type (0, 0), BuildingBlock: MIFKUJ_clean_linker_0, # of connection points: 2
#     Edge 42, Type (0, 0), BuildingBlock: MIFKUJ_clean_linker_0, # of connection points: 2
#     Edge 43, Type (0, 0), BuildingBlock: MIFKUJ_clean_linker_0, # of connection points: 2
#     Edge 44, Type (0, 0), BuildingBlock: MIFKUJ_clean_linker_0, # of connection points: 2
#     Edge 45, Type (0, 0), BuildingBlock: MIFKUJ_clean_linker_0, # of connection points: 2
#     Edge 46, Type (0, 0), BuildingBlock: MIFKUJ_clean_linker_0, # of connection points: 2
#     Edge 47, Type (0, 0), BuildingBlock: MIFKUJ_clean_linker_0, # of connection points: 2
#     Edge 48, Type (0, 0), BuildingBlock: MIFKUJ_clean_linker_0, # of connection points: 2
#     Edge 49, Type (0, 0), BuildingBlock: MIFKUJ_clean_linker_0, # of connection points: 2
#     Edge 50, Type (0, 0), BuildingBlock: MIFKUJ_clean_linker_0, # of connection points: 2
#     Edge 51, Type (0, 0), BuildingBlock: MIFKUJ_clean_linker_0, # of connection points: 2
#     Edge 52, Type (0, 0), BuildingBlock: MIFKUJ_clean_linker_0, # of connection points: 2
#     Edge 53, Type (0, 0), BuildingBlock: MIFKUJ_clean_linker_0, # of connection points: 2
#     Edge 54, Type (0, 0), BuildingBlock: MIFKUJ_clean_linker_0, # of connection points: 2
#     Edge 55, Type (0, 0), BuildingBlock: MIFKUJ_clean_linker_0, # of connection points: 2
#     Edge 56, Type (0, 0), BuildingBlock: MIFKUJ_clean_linker_0, # of connection points: 2
#     Edge 57, Type (0, 0), BuildingBlock: MIFKUJ_clean_linker_0, # of connection points: 2
#     Edge 58, Type (0, 0), BuildingBlock: MIFKUJ_clean_linker_0, # of connection points: 2
#     Edge 59, Type (0, 0), BuildingBlock: MIFKUJ_clean_linker_0, # of connection points: 2
#     Edge 60, Type (0, 0), BuildingBlock: MIFKUJ_clean_linker_0, # of connection points: 2
#     Edge 61, Type (0, 0), BuildingBlock: MIFKUJ_clean_linker_0, # of connection points: 2
#     Edge 62, Type (0, 0), BuildingBlock: MIFKUJ_clean_linker_0, # of connection points: 2
#     Edge 63, Type (0, 0), BuildingBlock: MIFKUJ_clean_linker_0, # of connection points: 2
#     Edge 64, Type (0, 0), BuildingBlock: MIFKUJ_clean_linker_0, # of connection points: 2
#     Edge 65, Type (0, 0), BuildingBlock: MIFKUJ_clean_linker_0, # of connection points: 2
#     Edge 66, Type (0, 0), BuildingBlock: MIFKUJ_clean_linker_0, # of connection points: 2
#     Edge 67, Type (0, 0), BuildingBlock: MIFKUJ_clean_linker_0, # of connection points: 2
#     Edge 68, Type (0, 0), BuildingBlock: MIFKUJ_clean_linker_0, # of connection points: 2
#     Edge 69, Type (0, 0), BuildingBlock: MIFKUJ_clean_linker_0, # of connection points: 2
#     Edge 70, Type (0, 0), BuildingBlock: MIFKUJ_clean_linker_0, # of connection points: 2
#     Edge 71, Type (0, 0), BuildingBlock: MIFKUJ_clean_linker_0, # of connection points: 2
# Relax obj value: 0.379
# Max RMSD: 0.300
# Mean RMSD: 0.288
data_MOF--net-unw--node1-CEKHIL_clean_sbu_0--edge1-MIFKUJ_clean_linker_0
_symmetry_space_group_name_H-M    P1
_symmetry_Int_Tables_number       1
_symmetry_cell_setting            triclinic
loop_
_symmetry_equiv_pos_as_xyz
'x, y, z'
_cell_length_a     57.390734
_cell_length_b     58.365682
_cell_length_c     57.89005
_cell_angle_alpha  90.003864
_cell_angle_beta   90.171617
_cell_angle_gamma 90.484641
loop_
_atom_site_label
_atom_site_type_symbol
_atom_site_fract_x
_atom_site_fract_y
_atom_site_fract_z
_atom_type_partial_charge
Co0 Co 0.11938 0.38906 0.28993 0.0
O1 O 0.10978 0.41232 0.26871 0.0
O2 O 0.13285 0.4182 0.29897 0.0
C3 C 0.08454 0.37174 0.29445 0.0
O4 O 0.13255 0.36902 0.31555 0.0
Co5 Co 0.11586 0.3378 0.27533 0.0
O6 O 0.12 0.33294 0.30907 0.0
C7 C 0.15518 0.36607 0.25876 0.0
C8 C 0.12267 0.42638 0.28063 0.0
C9 C 0.12966 0.34806 0.32187 0.0
O10 O 0.14781 0.38298 0.27082 0.0
O11 O 0.14415 0.34698 0.25701 0.0
O12 O 0.08953 0.39022 0.3061 0.0
O13 O 0.09937 0.3663 0.27873 0.0
Co14 Co 0.63748 0.1048 0.20401 0.0
O15 O 0.62803 0.08016 0.22369 0.0
O16 O 0.64953 0.07616 0.19221 0.0
C17 C 0.60312 0.12292 0.20228 0.0
O18 O 0.64988 0.12682 0.17957 0.0
Co19 Co 0.63679 0.1542 0.22428 0.0
O20 O 0.63968 0.16224 0.19101 0.0
C21 C 0.67495 0.1235 0.23686 0.0
C22 C 0.63984 0.06682 0.21028 0.0
C23 C 0.64759 0.14845 0.17588 0.0
O24 O 0.667 0.10879 0.22231 0.0
O25 O 0.66445 0.14213 0.24181 0.0
O26 O 0.60692 0.10532 0.18905 0.0
O27 O 0.61877 0.12678 0.21788 0.0
Co28 Co 0.87165 0.61274 0.29347 0.0
O29 O 0.88709 0.59013 0.27527 0.0
O30 O 0.86011 0.58264 0.30164 0.0
C31 C 0.90314 0.63395 0.30284 0.0
O32 O 0.85261 0.63191 0.31582 0.0
Co33 Co 0.87147 0.66315 0.2761 0.0
O34 O 0.86125 0.66887 0.3083 0.0
C35 C 0.84005 0.62957 0.25427 0.0
C36 C 0.87394 0.57513 0.28558 0.0
C37 C 0.85209 0.65336 0.32093 0.0
O38 O 0.84628 0.61475 0.26945 0.0
O39 O 0.84921 0.64959 0.2529 0.0
O40 O 0.89845 0.61529 0.31428 0.0
O41 O 0.89057 0.63731 0.28463 0.0
Co42 Co 0.3572 0.89798 0.19111 0.0
O43 O 0.38718 0.89152 0.1781 0.0
O44 O 0.36817 0.86881 0.20241 0.0
C45 C 0.36322 0.93454 0.20162 0.0
O46 O 0.32627 0.89952 0.20843 0.0
Co47 Co 0.32566 0.93283 0.16576 0.0
O48 O 0.30571 0.92865 0.19331 0.0
C49 C 0.32909 0.8866 0.14712 0.0
C50 C 0.38634 0.87233 0.18946 0.0
C51 C 0.30842 0.91281 0.20822 0.0
O52 O 0.3418 0.88166 0.16465 0.0
O53 O 0.3214 0.90677 0.14331 0.0
O54 O 0.37109 0.91783 0.21419 0.0
O55 O 0.35543 0.92867 0.18138 0.0
Co56 Co 0.13888 0.60359 0.70518 0.0
O57 O 0.13025 0.57796 0.72404 0.0
O58 O 0.15067 0.57572 0.69163 0.0
C59 C 0.10429 0.6214 0.70516 0.0
O60 O 0.15009 0.62646 0.68108 0.0
Co61 Co 0.13823 0.65246 0.72666 0.0
O62 O 0.13894 0.66123 0.69344 0.0
C63 C 0.17713 0.62188 0.73744 0.0
C64 C 0.14138 0.56538 0.70933 0.0
C65 C 0.1466 0.64795 0.67774 0.0
O66 O 0.16905 0.60733 0.72273 0.0
O67 O 0.16648 0.64024 0.74306 0.0
O68 O 0.10789 0.60431 0.69123 0.0
O69 O 0.12035 0.62492 0.72045 0.0
Co70 Co 0.37845 0.10464 0.80127 0.0
O71 O 0.39262 0.08128 0.78295 0.0
O72 O 0.36473 0.07533 0.80881 0.0
C73 C 0.4111 0.12379 0.81144 0.0
O74 O 0.36013 0.12448 0.82354 0.0
Co75 Co 0.38193 0.15559 0.78572 0.0
O76 O 0.37154 0.16104 0.81792 0.0
C77 C 0.34724 0.12513 0.7637 0.0
C78 C 0.37819 0.06711 0.79282 0.0
C79 C 0.36072 0.14572 0.82945 0.0
O80 O 0.35354 0.10877 0.7771 0.0
O81 O 0.35716 0.14487 0.76357 0.0
O82 O 0.40503 0.10529 0.82253 0.0
O83 O 0.39905 0.12816 0.79313 0.0
Co84 Co 0.85636 0.39497 0.69382 0.0
O85 O 0.88562 0.38892 0.67902 0.0
O86 O 0.8658 0.36389 0.70019 0.0
C87 C 0.8653 0.42913 0.70941 0.0
O88 O 0.82604 0.39529 0.71225 0.0
Co89 Co 0.82566 0.43555 0.67784 0.0
O90 O 0.81026 0.43024 0.70804 0.0
C91 C 0.82455 0.39269 0.65132 0.0
C92 C 0.884 0.3684 0.6876 0.0
C93 C 0.81134 0.41084 0.71802 0.0
O94 O 0.8392 0.38411 0.66561 0.0
O95 O 0.8169 0.41317 0.65271 0.0
O96 O 0.87207 0.4103 0.71925 0.0
O97 O 0.85631 0.42678 0.68898 0.0
Co98 Co 0.61953 0.89418 0.79784 0.0
O99 O 0.60871 0.92007 0.7808 0.0
O100 O 0.63697 0.92132 0.80697 0.0
C101 C 0.58488 0.87872 0.80688 0.0
O102 O 0.63474 0.87047 0.81873 0.0
Co103 Co 0.60906 0.84566 0.77777 0.0
O104 O 0.61922 0.83618 0.80911 0.0
C105 C 0.64914 0.87191 0.76021 0.0
C106 C 0.62475 0.93191 0.79131 0.0
C107 C 0.63179 0.84882 0.82221 0.0
O108 O 0.64395 0.88827 0.77399 0.0
O109 O 0.63672 0.8537 0.75807 0.0
O110 O 0.59325 0.89564 0.81907 0.0
O111 O 0.59592 0.87427 0.78805 0.0
Co112 Co 0.2953 0.13219 0.39082 0.0
O113 O 0.30799 0.10259 0.38382 0.0
O114 O 0.28476 0.12239 0.36073 0.0
C115 C 0.28339 0.12572 0.42715 0.0
O116 O 0.27837 0.16268 0.39223 0.0
Co117 Co 0.31844 0.16319 0.42789 0.0
O118 O 0.28952 0.18128 0.4245 0.0
C119 C 0.33972 0.16058 0.38209 0.0
C120 C 0.29732 0.10425 0.36405 0.0
C121 C 0.27635 0.17917 0.40686 0.0
O122 O 0.32293 0.14727 0.37596 0.0
O123 O 0.34189 0.16862 0.40256 0.0
O124 O 0.27101 0.11857 0.4097 0.0
O125 O 0.30405 0.13336 0.42212 0.0
Co126 Co 0.89611 0.1855 0.36887 0.0
O127 O 0.88826 0.17151 0.3979 0.0
O128 O 0.86472 0.19337 0.37707 0.0
C129 C 0.93139 0.19954 0.37788 0.0
O130 O 0.89822 0.20336 0.33868 0.0
Co131 Co 0.93623 0.16602 0.33947 0.0
O132 O 0.93126 0.19378 0.32041 0.0
C133 C 0.8913 0.14223 0.33892 0.0
C134 C 0.86788 0.18075 0.3953 0.0
C135 C 0.9131 0.20603 0.32226 0.0
O136 O 0.88363 0.15805 0.35214 0.0
O137 O 0.91248 0.14141 0.33214 0.0
O138 O 0.91265 0.21004 0.38441 0.0
O139 O 0.92817 0.17918 0.36935 0.0
Co140 Co 0.69888 0.86748 0.39575 0.0
O141 O 0.68891 0.8977 0.38704 0.0
O142 O 0.70826 0.87378 0.3645 0.0
C143 C 0.71444 0.8748 0.43052 0.0
O144 O 0.71237 0.83548 0.39869 0.0
Co145 Co 0.67472 0.84228 0.43636 0.0
O146 O 0.69958 0.81945 0.43169 0.0
C147 C 0.65169 0.84243 0.39131 0.0
C148 C 0.69802 0.89339 0.36697 0.0
C149 C 0.71226 0.81918 0.41368 0.0
O150 O 0.66892 0.85426 0.38364 0.0
O151 O 0.65 0.83596 0.41235 0.0
O152 O 0.72582 0.87972 0.41176 0.0
O153 O 0.6926 0.86947 0.4276 0.0
Co154 Co 0.11844 0.80561 0.36417 0.0
O155 O 0.12749 0.81251 0.39542 0.0
O156 O 0.15049 0.79734 0.36887 0.0
C157 C 0.08412 0.78837 0.37105 0.0
O158 O 0.11543 0.79554 0.33069 0.0
Co159 Co 0.07585 0.82929 0.34188 0.0
O160 O 0.08139 0.80769 0.31606 0.0
C161 C 0.11966 0.85494 0.3458 0.0
C162 C 0.14801 0.80511 0.38974 0.0
C163 C 0.10019 0.79638 0.31437 0.0
O164 O 0.12891 0.83687 0.35429 0.0
O165 O 0.0981 0.85613 0.34027 0.0
O166 O 0.10351 0.7773 0.37373 0.0
O167 O 0.08624 0.81024 0.36754 0.0
Co168 Co 0.30354 0.87128 0.60685 0.0
O169 O 0.28586 0.88105 0.58065 0.0
O170 O 0.31463 0.856 0.57934 0.0
C171 C 0.30938 0.90602 0.6227 0.0
O172 O 0.32573 0.85772 0.63061 0.0
Co173 Co 0.28349 0.87865 0.65613 0.0
O174 O 0.3163 0.8726 0.66518 0.0
C175 C 0.26617 0.84001 0.62791 0.0
C176 C 0.29825 0.86703 0.56851 0.0
C177 C 0.32999 0.86142 0.65215 0.0
O178 O 0.28101 0.84522 0.61215 0.0
O179 O 0.26333 0.85205 0.64618 0.0
O180 O 0.32268 0.89913 0.60596 0.0
O181 O 0.29166 0.89303 0.62716 0.0
Co182 Co 0.11437 0.21603 0.63719 0.0
O183 O 0.09086 0.23437 0.62283 0.0
O184 O 0.08403 0.20768 0.64923 0.0
C185 C 0.13498 0.20704 0.60547 0.0
O186 O 0.13451 0.19365 0.65523 0.0
Co187 Co 0.16536 0.23488 0.63609 0.0
O188 O 0.17199 0.20483 0.65052 0.0
C189 C 0.13248 0.25454 0.66899 0.0
C190 C 0.07598 0.22393 0.63609 0.0
C191 C 0.15656 0.19097 0.65818 0.0
O192 O 0.11748 0.23928 0.66277 0.0
O193 O 0.1523 0.25699 0.65916 0.0
O194 O 0.11595 0.19579 0.61033 0.0
O195 O 0.13876 0.22513 0.61784 0.0
Co196 Co 0.69975 0.13781 0.61309 0.0
O197 O 0.72209 0.12582 0.59187 0.0
O198 O 0.69097 0.14574 0.58178 0.0
C199 C 0.69578 0.10631 0.63525 0.0
O200 O 0.67272 0.15218 0.63048 0.0
Co201 Co 0.71349 0.14308 0.66492 0.0
O202 O 0.67912 0.14486 0.66813 0.0
C203 C 0.73015 0.17733 0.63139 0.0
C204 C 0.70981 0.13512 0.57558 0.0
C205 C 0.66593 0.15117 0.65162 0.0
O206 O 0.71807 0.16737 0.61549 0.0
O207 O 0.73189 0.16948 0.65197 0.0
O208 O 0.68457 0.10779 0.61575 0.0
O209 O 0.71093 0.12235 0.63903 0.0
Co210 Co 0.88904 0.78218 0.63683 0.0
O211 O 0.91494 0.76561 0.62474 0.0
O212 O 0.91743 0.79259 0.65164 0.0
C213 C 0.8705 0.7899 0.60345 0.0
O214 O 0.86587 0.80299 0.65283 0.0
Co215 Co 0.83986 0.76002 0.63173 0.0
O216 O 0.8303 0.79128 0.64093 0.0
C217 C 0.87075 0.74345 0.66827 0.0
C218 C 0.92773 0.77695 0.63939 0.0
C219 C 0.84368 0.8056 0.65117 0.0
O220 O 0.88552 0.75895 0.66228 0.0
O221 O 0.85165 0.73985 0.65733 0.0
O222 O 0.88832 0.80228 0.6099 0.0
O223 O 0.86701 0.77147 0.61541 0.0
Co224 Co 0.39153 0.29028 0.12934 0.0
O225 O 0.41551 0.27042 0.11868 0.0
O226 O 0.42067 0.29814 0.14444 0.0
C227 C 0.37519 0.29808 0.09503 0.0
O228 O 0.37054 0.31431 0.14372 0.0
Co229 Co 0.34005 0.27469 0.1233 0.0
O230 O 0.33463 0.30771 0.12934 0.0
C231 C 0.36719 0.25625 0.16202 0.0
C232 C 0.42932 0.28099 0.13297 0.0
C233 C 0.34928 0.32028 0.14022 0.0
O234 O 0.3845 0.26878 0.15558 0.0
O235 O 0.34799 0.2551 0.15077 0.0
O236 O 0.39377 0.30921 0.10168 0.0
O237 O 0.36924 0.28081 0.1077 0.0
Co238 Co 0.38593 0.69127 0.86584 0.0
O239 O 0.37497 0.68022 0.89517 0.0
O240 O 0.35307 0.69682 0.86841 0.0
C241 C 0.41786 0.71028 0.87695 0.0
O242 O 0.39099 0.70553 0.83415 0.0
Co243 Co 0.43135 0.67306 0.84462 0.0
O244 O 0.42798 0.69942 0.82327 0.0
C245 C 0.38933 0.64478 0.84121 0.0
C246 C 0.35448 0.687 0.8885 0.0
C247 C 0.4084 0.7092 0.82062 0.0
O248 O 0.37863 0.66086 0.85167 0.0
O249 O 0.41113 0.64564 0.8367 0.0
O250 O 0.39734 0.7191 0.87968 0.0
O251 O 0.41819 0.68866 0.87148 0.0
Co252 Co 0.19862 0.36302 0.88754 0.0
O253 O 0.19061 0.39376 0.87885 0.0
O254 O 0.20671 0.36801 0.85574 0.0
C255 C 0.21645 0.36969 0.92119 0.0
O256 O 0.20995 0.33024 0.89025 0.0
Co257 Co 0.17493 0.33975 0.92924 0.0
O258 O 0.19797 0.31516 0.92396 0.0
C259 C 0.14873 0.34353 0.88629 0.0
C260 C 0.19811 0.38836 0.85839 0.0
C261 C 0.20981 0.31412 0.90541 0.0
O262 O 0.16707 0.35241 0.87736 0.0
O263 O 0.14748 0.33742 0.90746 0.0
O264 O 0.22721 0.3732 0.90176 0.0
O265 O 0.19413 0.36595 0.91966 0.0
Co266 Co 0.61428 0.30374 0.87291 0.0
O267 O 0.62564 0.31396 0.9025 0.0
O268 O 0.6466 0.2958 0.87618 0.0
C269 C 0.58073 0.28757 0.88431 0.0
O270 O 0.60858 0.28969 0.84116 0.0
Co271 Co 0.5703 0.32491 0.85093 0.0
O272 O 0.57259 0.2989 0.82906 0.0
C273 C 0.61435 0.35025 0.84807 0.0
C274 C 0.64558 0.30551 0.89635 0.0
C275 C 0.59134 0.2876 0.827 0.0
O276 O 0.62401 0.33352 0.85864 0.0
O277 O 0.59253 0.35082 0.84352 0.0
O278 O 0.60037 0.27694 0.8869 0.0
O279 O 0.58236 0.3089 0.87803 0.0
Co280 Co 0.80504 0.63403 0.89593 0.0
O281 O 0.81617 0.60332 0.89134 0.0
O282 O 0.7966 0.62363 0.86548 0.0
C283 C 0.7895 0.62985 0.93117 0.0
O284 O 0.79015 0.66553 0.89435 0.0
Co285 Co 0.82722 0.66523 0.93329 0.0
O286 O 0.80292 0.68731 0.92393 0.0
C287 C 0.85208 0.65885 0.88987 0.0
C288 C 0.80744 0.60484 0.87063 0.0
C289 C 0.79011 0.68421 0.90619 0.0
O290 O 0.83482 0.64655 0.88296 0.0
O291 O 0.85322 0.66771 0.91005 0.0
O292 O 0.77833 0.62281 0.91291 0.0
O293 O 0.81099 0.63615 0.92791 0.0
Co294 Co 0.61131 0.71085 0.13688 0.0
O295 O 0.58942 0.73354 0.12723 0.0
O296 O 0.58065 0.70325 0.1487 0.0
C297 C 0.62952 0.70643 0.10277 0.0
O298 O 0.62956 0.68363 0.14944 0.0
Co299 Co 0.66435 0.7223 0.13603 0.0
O300 O 0.66644 0.68842 0.13709 0.0
C301 C 0.63586 0.73876 0.17476 0.0
C302 C 0.57388 0.72212 0.13882 0.0
C303 C 0.65022 0.67608 0.14565 0.0
O304 O 0.61788 0.72876 0.16598 0.0
O305 O 0.65593 0.73895 0.16515 0.0
O306 O 0.60984 0.69591 0.10666 0.0
O307 O 0.63577 0.72118 0.11826 0.0
Co308 Co 0.20069 0.63076 0.1046 0.0
O309 O 0.21966 0.61964 0.08002 0.0
O310 O 0.18857 0.64149 0.07536 0.0
C311 C 0.19757 0.59796 0.1247 0.0
O312 O 0.177 0.64496 0.12616 0.0
Co313 Co 0.2212 0.63137 0.15448 0.0
O314 O 0.18806 0.63667 0.16254 0.0
C315 C 0.23467 0.66775 0.12189 0.0
C316 C 0.20606 0.6308 0.06613 0.0
C317 C 0.17331 0.64448 0.14807 0.0
O318 O 0.22039 0.65934 0.10694 0.0
O319 O 0.23893 0.65822 0.14137 0.0
O320 O 0.18428 0.60143 0.10683 0.0
O321 O 0.2141 0.61282 0.1277 0.0
Co322 Co 0.80426 0.36923 0.10758 0.0
O323 O 0.78909 0.37954 0.07998 0.0
O324 O 0.8171 0.3536 0.08119 0.0
C325 C 0.80994 0.40349 0.12437 0.0
O326 O 0.82415 0.35491 0.13284 0.0
Co327 Co 0.78032 0.37638 0.15513 0.0
O328 O 0.81152 0.36792 0.16714 0.0
C329 C 0.76472 0.33842 0.12527 0.0
C330 C 0.80194 0.36492 0.06904 0.0
C331 C 0.82622 0.35712 0.15488 0.0
O332 O 0.78075 0.34374 0.11077 0.0
O333 O 0.76069 0.35008 0.14354 0.0
O334 O 0.82412 0.39652 0.1084 0.0
O335 O 0.79145 0.39107 0.12725 0.0
H336 H 0.22036 0.58996 0.1653 0.0
H337 H 0.20795 0.56488 0.19683 0.0
H338 H 0.14821 0.54327 0.15673 0.0
H339 H 0.16028 0.56865 0.12527 0.0
H340 H 0.13648 0.55401 0.20107 0.0
H341 H 0.19509 0.50741 0.16303 0.0
H342 H 0.23436 0.50052 0.1474 0.0
H343 H 0.2645 0.51479 0.2139 0.0
H344 H 0.22535 0.52167 0.22993 0.0
H345 H 0.10033 0.44842 0.24589 0.0
H346 H 0.11356 0.48236 0.22528 0.0
H347 H 0.17051 0.49051 0.27352 0.0
H348 H 0.15751 0.45597 0.2941 0.0
H349 H 0.18606 0.49119 0.23062 0.0
H350 H 0.12651 0.53057 0.27036 0.0
H351 H 0.08735 0.53762 0.28609 0.0
H352 H 0.05891 0.53868 0.21743 0.0
H353 H 0.09783 0.53131 0.20127 0.0
C354 C 0.20467 0.57974 0.16312 0.0
C355 C 0.19129 0.58123 0.1428 0.0
C356 C 0.19762 0.56542 0.18115 0.0
C357 C 0.1772 0.55217 0.17908 0.0
C358 C 0.16398 0.55343 0.15869 0.0
C359 C 0.17098 0.56779 0.14068 0.0
C360 C 0.16948 0.53703 0.19816 0.0
C361 C 0.14719 0.54014 0.20746 0.0
C362 C 0.1839 0.51962 0.20712 0.0
C363 C 0.20737 0.51522 0.19761 0.0
C364 C 0.21012 0.50917 0.17427 0.0
C365 C 0.23233 0.50521 0.16537 0.0
C366 C 0.25192 0.50728 0.17964 0.0
C367 C 0.24932 0.51324 0.20286 0.0
C368 C 0.22712 0.51706 0.21189 0.0
C369 C 0.11536 0.45771 0.25248 0.0
C370 C 0.12794 0.44948 0.27156 0.0
C371 C 0.12285 0.47723 0.24073 0.0
C372 C 0.14297 0.48911 0.24791 0.0
C373 C 0.15491 0.48162 0.26771 0.0
C374 C 0.14739 0.462 0.27954 0.0
C375 C 0.15264 0.50765 0.23316 0.0
C376 C 0.17537 0.50525 0.22462 0.0
C377 C 0.13862 0.52581 0.225 0.0
C378 C 0.11512 0.53025 0.23461 0.0
C379 C 0.11189 0.53214 0.25861 0.0
C380 C 0.08973 0.53622 0.26761 0.0
C381 C 0.07065 0.53856 0.25277 0.0
C382 C 0.0737 0.53686 0.2289 0.0
C383 C 0.09582 0.53277 0.21981 0.0
H384 H 0.05351 0.54173 0.25977 0.0
H385 H 0.26911 0.50421 0.17271 0.0
H386 H 0.59201 0.16091 0.22718 0.0
H387 H 0.56356 0.19031 0.21725 0.0
H388 H 0.54509 0.15281 0.15551 0.0
H389 H 0.57318 0.12318 0.16556 0.0
H390 H 0.56151 0.21855 0.18142 0.0
H391 H 0.488 0.16032 0.14271 0.0
H392 H 0.47054 0.1221 0.14909 0.0
H393 H 0.49489 0.12272 0.21929 0.0
H394 H 0.5122 0.16107 0.21345 0.0
H395 H 0.45297 0.24989 0.10765 0.0
H396 H 0.48518 0.22621 0.12075 0.0
H397 H 0.48944 0.26507 0.184 0.0
H398 H 0.45689 0.28895 0.171 0.0
H399 H 0.47942 0.20011 0.16129 0.0
H400 H 0.54904 0.25854 0.20235 0.0
H401 H 0.56527 0.29759 0.19805 0.0
H402 H 0.54722 0.29721 0.12602 0.0
H403 H 0.53119 0.25807 0.12981 0.0
C404 C 0.58169 0.15881 0.21162 0.0
C405 C 0.58472 0.13969 0.19719 0.0
C406 C 0.56554 0.17569 0.20591 0.0
C407 C 0.55209 0.1737 0.18573 0.0
C408 C 0.55501 0.15453 0.17137 0.0
C409 C 0.57107 0.1376 0.17712 0.0
C410 C 0.53535 0.19186 0.17934 0.0
C411 C 0.54346 0.21457 0.17734 0.0
C412 C 0.51185 0.18667 0.1739 0.0
C413 C 0.50165 0.16348 0.17754 0.0
C414 C 0.4896 0.15232 0.15952 0.0
C415 C 0.47972 0.13063 0.16305 0.0
C416 C 0.48168 0.11995 0.18455 0.0
C417 C 0.4935 0.13095 0.2026 0.0
C418 C 0.50341 0.15264 0.19917 0.0
C419 C 0.46112 0.25383 0.12411 0.0
C420 C 0.45227 0.27112 0.13842 0.0
C421 C 0.47947 0.24022 0.13158 0.0
C422 C 0.48946 0.24375 0.15341 0.0
C423 C 0.48194 0.26215 0.16705 0.0
C424 C 0.46344 0.27582 0.15957 0.0
C425 C 0.50578 0.22655 0.16268 0.0
C426 C 0.49747 0.20404 0.16542 0.0
C427 C 0.52894 0.23201 0.16904 0.0
C428 C 0.53864 0.25549 0.16646 0.0
C429 C 0.54857 0.26679 0.18559 0.0
C430 C 0.55774 0.28893 0.18324 0.0
C431 C 0.55718 0.29991 0.1618 0.0
C432 C 0.54753 0.28873 0.14264 0.0
C433 C 0.53835 0.26659 0.1449 0.0
H434 H 0.56429 0.31706 0.16001 0.0
H435 H 0.474 0.10317 0.18725 0.0
H436 H 0.7849 0.4185 0.16123 0.0
H437 H 0.79749 0.44541 0.1912 0.0
H438 H 0.86301 0.45516 0.15604 0.0
H439 H 0.8505 0.4283 0.12592 0.0
H440 H 0.83414 0.44275 0.22092 0.0
H441 H 0.8808 0.51059 0.16382 0.0
H442 H 0.87751 0.52744 0.12487 0.0
H443 H 0.80456 0.51056 0.12311 0.0
H444 H 0.80735 0.49388 0.16214 0.0
H445 H 0.90437 0.55375 0.25716 0.0
H446 H 0.8961 0.52036 0.23306 0.0
H447 H 0.83012 0.5109 0.26744 0.0
H448 H 0.83842 0.54425 0.29183 0.0
H449 H 0.85972 0.52223 0.2035 0.0
H450 H 0.81238 0.4543 0.25957 0.0
H451 H 0.81413 0.43849 0.29904 0.0
H452 H 0.8866 0.45684 0.30376 0.0
H453 H 0.88537 0.47247 0.26422 0.0
C454 C 0.80191 0.42652 0.15976 0.0
C455 C 0.81672 0.42132 0.14122 0.0
C456 C 0.80912 0.44178 0.17697 0.0
C457 C 0.83115 0.45227 0.17582 0.0
C458 C 0.84584 0.44739 0.15713 0.0
C459 C 0.83866 0.43208 0.13993 0.0
C460 C 0.83886 0.46816 0.19429 0.0
C461 C 0.83952 0.46022 0.21719 0.0
C462 C 0.84623 0.49079 0.18931 0.0
C463 C 0.84437 0.50073 0.16579 0.0
C464 C 0.86406 0.5105 0.15513 0.0
C465 C 0.86228 0.52003 0.13304 0.0
C466 C 0.84086 0.51999 0.12149 0.0
C467 C 0.82116 0.51048 0.13202 0.0
C468 C 0.82285 0.50094 0.15411 0.0
C469 C 0.88844 0.54412 0.26011 0.0
C470 C 0.87191 0.55173 0.27617 0.0
C471 C 0.88371 0.52509 0.24628 0.0
C472 C 0.86242 0.51332 0.2483 0.0
C473 C 0.84674 0.51966 0.26571 0.0
C474 C 0.85152 0.53871 0.27966 0.0
C475 C 0.8553 0.49679 0.23016 0.0
C476 C 0.85458 0.50469 0.20726 0.0
C477 C 0.84771 0.47426 0.23524 0.0
C478 C 0.8487 0.46478 0.259 0.0
C479 C 0.82871 0.4549 0.269 0.0
C480 C 0.82961 0.44597 0.2914 0.0
C481 C 0.85044 0.44673 0.30393 0.0
C482 C 0.87044 0.45636 0.29407 0.0
C483 C 0.86964 0.4653 0.27168 0.0
H484 H 0.8511 0.43981 0.32126 0.0
H485 H 0.83952 0.52739 0.10439 0.0
H486 H 0.54152 0.71025 0.17171 0.0
H487 H 0.50666 0.73205 0.18221 0.0
H488 H 0.51937 0.77828 0.12542 0.0
H489 H 0.554 0.75684 0.11497 0.0
H490 H 0.51638 0.8002 0.16715 0.0
H491 H 0.4737 0.74204 0.12433 0.0
H492 H 0.4609 0.70252 0.11564 0.0
H493 H 0.43236 0.6961 0.18384 0.0
H494 H 0.44527 0.7355 0.19303 0.0
H495 H 0.42131 0.87257 0.15796 0.0
H496 H 0.45078 0.84351 0.15175 0.0
H497 H 0.42253 0.80346 0.20788 0.0
H498 H 0.39227 0.83238 0.21374 0.0
H499 H 0.43344 0.77626 0.17249 0.0
H500 H 0.47331 0.83464 0.21486 0.0
H501 H 0.48617 0.87393 0.22449 0.0
H502 H 0.52085 0.87941 0.15907 0.0
H503 H 0.50793 0.84027 0.14891 0.0
C504 C 0.5365 0.72472 0.16114 0.0
C505 C 0.55058 0.73198 0.14265 0.0
C506 C 0.51662 0.73716 0.16718 0.0
C507 C 0.51057 0.75688 0.15469 0.0
C508 C 0.52384 0.76323 0.13539 0.0
C509 C 0.54362 0.75091 0.12942 0.0
C510 C 0.49192 0.77236 0.16273 0.0
C511 C 0.49821 0.79502 0.16812 0.0
C512 C 0.46841 0.76529 0.16499 0.0
C513 C 0.46071 0.74161 0.15946 0.0
C514 C 0.4649 0.73212 0.13755 0.0
C515 C 0.45758 0.70976 0.13252 0.0
C516 C 0.4459 0.69677 0.14921 0.0
C517 C 0.44145 0.70615 0.17095 0.0
C518 C 0.44875 0.7285 0.17607 0.0
C519 C 0.42139 0.85767 0.16911 0.0
C520 C 0.40461 0.85489 0.18652 0.0
C521 C 0.43832 0.84106 0.16556 0.0
C522 C 0.43918 0.82149 0.17963 0.0
C523 C 0.42227 0.81848 0.19689 0.0
C524 C 0.40509 0.83505 0.2003 0.0
C525 C 0.45783 0.80435 0.17606 0.0
C526 C 0.45163 0.78139 0.17173 0.0
C527 C 0.48156 0.81104 0.17496 0.0
C528 C 0.48952 0.83455 0.18108 0.0
C529 C 0.48356 0.84427 0.20247 0.0
C530 C 0.49087 0.86651 0.20803 0.0
C531 C 0.50428 0.87917 0.19239 0.0
C532 C 0.51046 0.86959 0.17117 0.0
C533 C 0.50317 0.84736 0.16552 0.0
H534 H 0.50992 0.89638 0.19672 0.0
H535 H 0.44023 0.67947 0.14527 0.0
H536 H 0.16804 0.4239 0.85495 0.0
H537 H 0.16042 0.44765 0.82098 0.0
H538 H 0.21321 0.41159 0.78304 0.0
H539 H 0.22047 0.38711 0.81682 0.0
H540 H 0.20897 0.46924 0.78923 0.0
H541 H 0.17668 0.39806 0.75927 0.0
H542 H 0.15306 0.36265 0.76202 0.0
H543 H 0.09205 0.40238 0.77576 0.0
H544 H 0.1154 0.43803 0.77353 0.0
H545 H 0.17784 0.53902 0.69533 0.0
H546 H 0.18932 0.50216 0.71206 0.0
H547 H 0.12607 0.50048 0.75212 0.0
H548 H 0.11468 0.53726 0.7357 0.0
H549 H 0.14016 0.45665 0.73846 0.0
H550 H 0.17074 0.52543 0.77442 0.0
H551 H 0.19228 0.56217 0.77563 0.0
H552 H 0.25477 0.52815 0.75462 0.0
H553 H 0.23345 0.49125 0.75276 0.0
C554 C 0.17812 0.42108 0.83943 0.0
C555 C 0.19491 0.40376 0.83851 0.0
C556 C 0.17362 0.43451 0.82004 0.0
C557 C 0.18607 0.43106 0.79957 0.0
C558 C 0.20328 0.41421 0.79869 0.0
C559 C 0.20746 0.40039 0.81797 0.0
C560 C 0.18141 0.44593 0.77956 0.0
C561 C 0.19442 0.46621 0.77757 0.0
C562 C 0.16196 0.4421 0.76501 0.0
C563 C 0.14786 0.42071 0.76648 0.0
C564 C 0.15829 0.39924 0.76318 0.0
C565 C 0.14494 0.37913 0.76457 0.0
C566 C 0.12108 0.38028 0.76908 0.0
C567 C 0.11053 0.40153 0.77226 0.0
C568 C 0.12382 0.42169 0.77093 0.0
C569 C 0.16604 0.53037 0.70709 0.0
C570 C 0.14552 0.54104 0.71447 0.0
C571 C 0.17263 0.50938 0.71665 0.0
C572 C 0.15864 0.49878 0.7335 0.0
C573 C 0.13708 0.50837 0.73913 0.0
C574 C 0.13066 0.52944 0.72984 0.0
C575 C 0.16784 0.48002 0.74799 0.0
C576 C 0.15538 0.45925 0.74934 0.0
C577 C 0.18767 0.48348 0.76223 0.0
C578 C 0.20042 0.50567 0.76306 0.0
C579 C 0.18899 0.52583 0.76975 0.0
C580 C 0.20116 0.54666 0.77061 0.0
C581 C 0.22484 0.54745 0.76513 0.0
C582 C 0.2364 0.52747 0.75877 0.0
C583 C 0.22428 0.50661 0.75777 0.0
H584 H 0.23426 0.56351 0.76593 0.0
H585 H 0.11076 0.36471 0.77005 0.0
H586 H 0.57259 0.24634 0.90406 0.0
H587 H 0.54076 0.2198 0.8954 0.0
H588 H 0.50825 0.27106 0.85267 0.0
H589 H 0.53966 0.29821 0.86227 0.0
H590 H 0.47595 0.24525 0.8737 0.0
H591 H 0.5444 0.23081 0.82897 0.0
H592 H 0.58605 0.22317 0.822 0.0
H593 H 0.58115 0.16124 0.86164 0.0
H594 H 0.53958 0.16858 0.86914 0.0
H595 H 0.41957 0.16711 0.79591 0.0
H596 H 0.44523 0.1961 0.8129 0.0
H597 H 0.46613 0.14821 0.86556 0.0
H598 H 0.4398 0.11908 0.84902 0.0
H599 H 0.50348 0.17214 0.83994 0.0
H600 H 0.43524 0.18885 0.88629 0.0
H601 H 0.39372 0.19729 0.89286 0.0
H602 H 0.39831 0.25471 0.84666 0.0
H603 H 0.44001 0.24685 0.84022 0.0
C604 C 0.55838 0.25217 0.89326 0.0
C605 C 0.55888 0.27413 0.88334 0.0
C606 C 0.54029 0.23692 0.88819 0.0
C607 C 0.52262 0.24317 0.8727 0.0
C608 C 0.52194 0.26578 0.8644 0.0
C609 C 0.5399 0.28127 0.86985 0.0
C610 C 0.506 0.22558 0.86401 0.0
C611 C 0.482 0.22938 0.86611 0.0
C612 C 0.51387 0.20474 0.85427 0.0
C613 C 0.53891 0.20036 0.84981 0.0
C614 C 0.55224 0.21565 0.83636 0.0
C615 C 0.57582 0.21138 0.83228 0.0
C616 C 0.58622 0.1918 0.8414 0.0
C617 C 0.57307 0.17642 0.8546 0.0
C618 C 0.5495 0.18061 0.85876 0.0
C619 C 0.42949 0.1627 0.81118 0.0
C620 C 0.42761 0.1408 0.82118 0.0
C621 C 0.44406 0.17935 0.82091 0.0
C622 C 0.4573 0.17432 0.84059 0.0
C623 C 0.45584 0.15239 0.85045 0.0
C624 C 0.4409 0.13579 0.84094 0.0
C625 C 0.4736 0.19172 0.84998 0.0
C626 C 0.49754 0.18795 0.84773 0.0
C627 C 0.46571 0.21265 0.85923 0.0
C628 C 0.44061 0.21716 0.86263 0.0
C629 C 0.42733 0.20319 0.87744 0.0
C630 C 0.40382 0.20795 0.88124 0.0
C631 C 0.39334 0.22644 0.87007 0.0
C632 C 0.40643 0.24036 0.85526 0.0
C633 C 0.43004 0.23586 0.85165 0.0
H634 H 0.3751 0.23001 0.87293 0.0
H635 H 0.60446 0.18853 0.8382 0.0
H636 H 0.7949 0.60545 0.82508 0.0
H637 H 0.80509 0.57759 0.7953 0.0
H638 H 0.83956 0.53619 0.84658 0.0
H639 H 0.82975 0.56412 0.87639 0.0
H640 H 0.86653 0.54269 0.80917 0.0
H641 H 0.7865 0.52096 0.82373 0.0
H642 H 0.7443 0.52788 0.82694 0.0
H643 H 0.74175 0.54802 0.75565 0.0
H644 H 0.78403 0.54158 0.75211 0.0
H645 H 0.87877 0.43622 0.75391 0.0
H646 H 0.86978 0.46886 0.77839 0.0
H647 H 0.83698 0.50266 0.72069 0.0
H648 H 0.84568 0.4697 0.696 0.0
H649 H 0.8095 0.50312 0.75807 0.0
H650 H 0.88859 0.52267 0.74238 0.0
H651 H 0.93084 0.5164 0.73873 0.0
H652 H 0.93536 0.50105 0.81113 0.0
H653 H 0.89306 0.5069 0.81517 0.0
C654 C 0.8044 0.59027 0.83007 0.0
C655 C 0.8115 0.58695 0.85309 0.0
C656 C 0.81019 0.57436 0.81303 0.0
C657 C 0.823 0.55477 0.81874 0.0
C658 C 0.82971 0.55122 0.8418 0.0
C659 C 0.82399 0.56714 0.85883 0.0
C660 C 0.8302 0.53834 0.80064 0.0
C661 C 0.85405 0.53385 0.79815 0.0
C662 C 0.81396 0.52749 0.78569 0.0
C663 C 0.7885 0.5311 0.78775 0.0
C664 C 0.77699 0.52708 0.8088 0.0
C665 C 0.75305 0.53091 0.81068 0.0
C666 C 0.7404 0.53859 0.79157 0.0
C667 C 0.75161 0.54223 0.77048 0.0
C668 C 0.77555 0.53847 0.76853 0.0
C669 C 0.86999 0.45074 0.74627 0.0
C670 C 0.86286 0.45036 0.72303 0.0
C671 C 0.86491 0.46944 0.7603 0.0
C672 C 0.85283 0.48827 0.75134 0.0
C673 C 0.84632 0.48829 0.72793 0.0
C674 C 0.85141 0.46952 0.71384 0.0
C675 C 0.84581 0.50714 0.76691 0.0
C676 C 0.82202 0.51213 0.76892 0.0
C677 C 0.8621 0.51854 0.78137 0.0
C678 C 0.88759 0.51507 0.77904 0.0
C679 C 0.89855 0.51779 0.7575 0.0
C680 C 0.92253 0.51434 0.75536 0.0
C681 C 0.93577 0.50829 0.77468 0.0
C682 C 0.92507 0.50573 0.79618 0.0
C683 C 0.9011 0.50914 0.79841 0.0
H684 H 0.95433 0.50562 0.77298 0.0
H685 H 0.72187 0.54153 0.79306 0.0
H686 H 0.55702 0.84923 0.78311 0.0
H687 H 0.53184 0.81912 0.79889 0.0
H688 H 0.55197 0.83898 0.86804 0.0
H689 H 0.57616 0.86989 0.85227 0.0
H690 H 0.53949 0.78265 0.82194 0.0
H691 H 0.50942 0.827 0.90585 0.0
H692 H 0.5022 0.8659 0.92081 0.0
H693 H 0.48869 0.88978 0.85193 0.0
H694 H 0.49556 0.85099 0.83663 0.0
H695 H 0.46483 0.70046 0.87887 0.0
H696 H 0.49732 0.72739 0.8717 0.0
H697 H 0.44785 0.78118 0.85823 0.0
H698 H 0.41608 0.7552 0.86664 0.0
H699 H 0.47987 0.79856 0.88148 0.0
H700 H 0.47806 0.74798 0.8144 0.0
H701 H 0.48093 0.71063 0.79454 0.0
H702 H 0.55017 0.70209 0.82122 0.0
H703 H 0.54763 0.73925 0.84139 0.0
C704 C 0.55569 0.84739 0.80169 0.0
C705 C 0.56812 0.8621 0.81651 0.0
C706 C 0.54154 0.83003 0.81069 0.0
C707 C 0.53987 0.82681 0.83468 0.0
C708 C 0.55255 0.84139 0.8495 0.0
C709 C 0.56629 0.85911 0.8405 0.0
C710 C 0.52456 0.80839 0.84401 0.0
C711 C 0.52645 0.78612 0.83499 0.0
C712 C 0.50758 0.81282 0.86107 0.0
C713 C 0.50331 0.83618 0.8701 0.0
C714 C 0.50488 0.84056 0.89393 0.0
C715 C 0.50085 0.86258 0.90246 0.0
C716 C 0.49509 0.88032 0.88732 0.0
C717 C 0.49326 0.87606 0.86363 0.0
C718 C 0.49724 0.85406 0.85502 0.0
C719 C 0.4611 0.71814 0.87467 0.0
C720 C 0.43799 0.72579 0.8736 0.0
C721 C 0.4796 0.73347 0.87042 0.0
C722 C 0.47508 0.75639 0.86433 0.0
C723 C 0.45193 0.76377 0.86322 0.0
C724 C 0.43369 0.74879 0.86802 0.0
C725 C 0.49392 0.77304 0.85856 0.0
C726 C 0.49302 0.79497 0.86857 0.0
C727 C 0.51107 0.76853 0.84167 0.0
C728 C 0.51254 0.7462 0.82962 0.0
C729 C 0.49381 0.73803 0.81615 0.0
C730 C 0.49539 0.71694 0.80482 0.0
C731 C 0.51567 0.70398 0.8067 0.0
C732 C 0.53445 0.71212 0.81984 0.0
C733 C 0.53296 0.73319 0.83121 0.0
H734 H 0.51685 0.68766 0.79792 0.0
H735 H 0.49199 0.89736 0.89395 0.0
H736 H 0.18078 0.21963 0.60137 0.0
H737 H 0.20987 0.20349 0.57547 0.0
H738 H 0.15752 0.15844 0.54627 0.0
H739 H 0.12863 0.17378 0.57297 0.0
H740 H 0.19574 0.13578 0.55169 0.0
H741 H 0.17742 0.20976 0.5191 0.0
H742 H 0.17346 0.25181 0.51917 0.0
H743 H 0.24624 0.25938 0.53515 0.0
H744 H 0.25055 0.21734 0.53544 0.0
H745 H 0.24008 0.11219 0.4406 0.0
H746 H 0.2192 0.12358 0.47525 0.0
H747 H 0.28028 0.15985 0.49969 0.0
H748 H 0.30133 0.14863 0.46471 0.0
H749 H 0.24227 0.18648 0.50046 0.0
H750 H 0.26065 0.11132 0.52741 0.0
H751 H 0.26351 0.06925 0.5251 0.0
H752 H 0.18924 0.06374 0.51748 0.0
H753 H 0.18594 0.10579 0.51943 0.0
C754 C 0.17545 0.20632 0.5894 0.0
C755 C 0.15238 0.19807 0.58909 0.0
C756 C 0.19211 0.19714 0.57453 0.0
C757 C 0.18586 0.17997 0.55861 0.0
C758 C 0.16281 0.17166 0.55838 0.0
C759 C 0.14626 0.18054 0.57355 0.0
C760 C 0.20317 0.17073 0.54202 0.0
C761 C 0.20576 0.14687 0.54036 0.0
C762 C 0.21685 0.18517 0.52768 0.0
C763 C 0.21424 0.21042 0.52756 0.0
C764 C 0.19253 0.22039 0.5228 0.0
C765 C 0.19023 0.24422 0.52275 0.0
C766 C 0.20957 0.25826 0.52723 0.0
C767 C 0.23126 0.24849 0.53172 0.0
C768 C 0.23365 0.22467 0.53183 0.0
C769 C 0.24926 0.12223 0.45352 0.0
C770 C 0.27233 0.12962 0.44985 0.0
C771 C 0.23731 0.12864 0.47342 0.0
C772 C 0.2482 0.14245 0.49017 0.0
C773 C 0.27155 0.14914 0.48699 0.0
C774 C 0.28358 0.14266 0.46705 0.0
C775 C 0.23443 0.15154 0.50977 0.0
C776 C 0.2325 0.17539 0.51202 0.0
C777 C 0.22117 0.13708 0.52442 0.0
C778 C 0.22308 0.11174 0.52344 0.0
C779 C 0.24494 0.10115 0.5251 0.0
C780 C 0.24663 0.0773 0.52388 0.0
C781 C 0.22657 0.06383 0.52111 0.0
C782 C 0.20476 0.07419 0.51963 0.0
C783 C 0.20297 0.09803 0.52083 0.0
H784 H 0.22793 0.04537 0.52015 0.0
H785 H 0.20776 0.2767 0.52717 0.0
H786 H 0.74439 0.10922 0.55777 0.0
H787 H 0.76509 0.11558 0.52162 0.0
H788 H 0.71674 0.16867 0.50317 0.0
H789 H 0.69575 0.16246 0.53962 0.0
H790 H 0.74013 0.13328 0.46413 0.0
H791 H 0.75463 0.19594 0.51947 0.0
H792 H 0.75956 0.2096 0.55931 0.0
H793 H 0.81573 0.16253 0.56975 0.0
H794 H 0.81119 0.14871 0.52957 0.0
H795 H 0.82231 0.19366 0.39178 0.0
H796 H 0.79052 0.18449 0.41846 0.0
H797 H 0.83846 0.14757 0.46196 0.0
H798 H 0.87028 0.15676 0.43555 0.0
H799 H 0.81155 0.17674 0.48637 0.0
H800 H 0.80087 0.11932 0.42715 0.0
H801 H 0.79507 0.10617 0.38701 0.0
H802 H 0.73064 0.14285 0.38324 0.0
H803 H 0.73622 0.15652 0.42323 0.0
C804 C 0.7377 0.12182 0.54577 0.0
C805 C 0.71864 0.13558 0.55165 0.0
C806 C 0.74946 0.12529 0.52504 0.0
C807 C 0.74239 0.14255 0.50982 0.0
C808 C 0.72224 0.15509 0.51466 0.0
C809 C 0.71036 0.1516 0.53551 0.0
C810 C 0.75875 0.15016 0.4917 0.0
C811 C 0.75556 0.14314 0.46875 0.0
C812 C 0.77898 0.16261 0.49795 0.0
C813 C 0.78246 0.17124 0.52172 0.0
C814 C 0.768 0.1885 0.5303 0.0
C815 C 0.77073 0.19626 0.55295 0.0
C816 C 0.7878 0.1868 0.56724 0.0
C817 C 0.80245 0.16978 0.55871 0.0
C818 C 0.79989 0.16205 0.53595 0.0
C819 C 0.82607 0.18366 0.40708 0.0
C820 C 0.84879 0.17599 0.41165 0.0
C821 C 0.80787 0.1783 0.42218 0.0
C822 C 0.81213 0.16518 0.44203 0.0
C823 C 0.83483 0.15768 0.44669 0.0
C824 C 0.85298 0.16296 0.4316 0.0
C825 C 0.79322 0.15984 0.45852 0.0
C826 C 0.79604 0.16716 0.48141 0.0
C827 C 0.77268 0.14778 0.45198 0.0
C828 C 0.76909 0.13916 0.42811 0.0
C829 C 0.78554 0.12472 0.41771 0.0
C830 C 0.78229 0.11715 0.39499 0.0
C831 C 0.76255 0.12375 0.38257 0.0
C832 C 0.74595 0.1378 0.39288 0.0
C833 C 0.74914 0.14545 0.41557 0.0
H834 H 0.76009 0.11799 0.36497 0.0
H835 H 0.78965 0.19265 0.58489 0.0
H836 H 0.75924 0.88647 0.44008 0.0
H837 H 0.78366 0.87204 0.4712 0.0
H838 H 0.72458 0.83592 0.4999 0.0
H839 H 0.69973 0.85092 0.46893 0.0
H840 H 0.75126 0.85383 0.53332 0.0
H841 H 0.7652 0.80653 0.46733 0.0
H842 H 0.77491 0.79714 0.42697 0.0
H843 H 0.84081 0.83165 0.43403 0.0
H844 H 0.83165 0.84117 0.47451 0.0
H845 H 0.82609 0.77411 0.59529 0.0
H846 H 0.79708 0.79031 0.5689 0.0
H847 H 0.84713 0.8411 0.54665 0.0
H848 H 0.87599 0.82555 0.57354 0.0
H849 H 0.82342 0.81355 0.51055 0.0
H850 H 0.80804 0.86142 0.5769 0.0
H851 H 0.79605 0.87309 0.61605 0.0
H852 H 0.73129 0.83662 0.6078 0.0
H853 H 0.74293 0.8246 0.56869 0.0
C854 C 0.7513 0.87574 0.45319 0.0
C855 C 0.72761 0.86953 0.45184 0.0
C856 C 0.76536 0.86731 0.47086 0.0
C857 C 0.75614 0.85228 0.48744 0.0
C858 C 0.73214 0.84724 0.48707 0.0
C859 C 0.71794 0.85587 0.46941 0.0
C860 C 0.77176 0.84172 0.50485 0.0
C861 C 0.76681 0.84463 0.52836 0.0
C862 C 0.79227 0.83005 0.49835 0.0
C863 C 0.79765 0.82474 0.47389 0.0
C864 C 0.78169 0.81229 0.46023 0.0
C865 C 0.7871 0.80689 0.43735 0.0
C866 C 0.80835 0.81391 0.42789 0.0
C867 C 0.82433 0.82626 0.44135 0.0
C868 C 0.81908 0.83159 0.46429 0.0
C869 C 0.83091 0.78878 0.58486 0.0
C870 C 0.85334 0.79857 0.58651 0.0
C871 C 0.81426 0.7981 0.56993 0.0
C872 C 0.81993 0.81704 0.55608 0.0
C873 C 0.8424 0.8266 0.55739 0.0
C874 C 0.85888 0.81761 0.57265 0.0
C875 C 0.80302 0.8259 0.539 0.0
C876 C 0.80774 0.82256 0.51551 0.0
C877 C 0.78221 0.83692 0.54555 0.0
C878 C 0.77648 0.84189 0.56997 0.0
C879 C 0.79147 0.85548 0.58362 0.0
C880 C 0.78464 0.86233 0.60572 0.0
C881 C 0.76288 0.85567 0.61432 0.0
C882 C 0.74811 0.84178 0.60107 0.0
C883 C 0.75481 0.83496 0.57896 0.0
H884 H 0.7573 0.86142 0.63114 0.0
H885 H 0.81247 0.8097 0.41017 0.0
H886 H 0.14902 0.82645 0.43152 0.0
H887 H 0.18304 0.83408 0.45586 0.0
H888 H 0.22645 0.79698 0.4084 0.0
H889 H 0.19246 0.78956 0.38351 0.0
H890 H 0.22866 0.79004 0.465 0.0
H891 H 0.23944 0.84278 0.40047 0.0
H892 H 0.22482 0.87057 0.37197 0.0
H893 H 0.19988 0.91337 0.42681 0.0
H894 H 0.21436 0.88573 0.45564 0.0
H895 H 0.31664 0.83479 0.53919 0.0
H896 H 0.30027 0.82246 0.50193 0.0
H897 H 0.24786 0.87484 0.50704 0.0
H898 H 0.26453 0.88767 0.54336 0.0
H899 H 0.25845 0.87013 0.46427 0.0
H900 H 0.24047 0.81864 0.5275 0.0
H901 H 0.25022 0.79194 0.55877 0.0
H902 H 0.28288 0.74696 0.51016 0.0
H903 H 0.27366 0.77381 0.47849 0.0
C904 C 0.16572 0.81964 0.42635 0.0
C905 C 0.16808 0.80743 0.4056 0.0
C906 C 0.18511 0.82404 0.44026 0.0
C907 C 0.20713 0.81613 0.4338 0.0
C908 C 0.20951 0.80316 0.41359 0.0
C909 C 0.19011 0.79897 0.39946 0.0
C910 C 0.22759 0.82269 0.44785 0.0
C911 C 0.2358 0.80731 0.46447 0.0
C912 C 0.23629 0.84536 0.44739 0.0
C913 C 0.2279 0.86217 0.43016 0.0
C914 C 0.23073 0.85807 0.40642 0.0
C915 C 0.22249 0.87381 0.39021 0.0
C916 C 0.21136 0.89372 0.39756 0.0
C917 C 0.20852 0.89796 0.42114 0.0
C918 C 0.21681 0.8823 0.43742 0.0
C919 C 0.30202 0.84402 0.532 0.0
C920 C 0.29168 0.86199 0.54434 0.0
C921 C 0.2926 0.83689 0.51079 0.0
C922 C 0.27252 0.84742 0.50189 0.0
C923 C 0.26331 0.86639 0.51348 0.0
C924 C 0.27282 0.87365 0.5344 0.0
C925 C 0.25937 0.83765 0.48201 0.0
C926 C 0.25224 0.85252 0.46433 0.0
C927 C 0.2513 0.8146 0.48183 0.0
C928 C 0.25674 0.79839 0.50073 0.0
C929 C 0.24998 0.80319 0.52351 0.0
C930 C 0.25547 0.78805 0.54133 0.0
C931 C 0.26733 0.7678 0.53656 0.0
C932 C 0.27375 0.76269 0.51387 0.0
C933 C 0.26845 0.77789 0.49598 0.0
H934 H 0.27141 0.75602 0.5504 0.0
H935 H 0.20499 0.90592 0.38501 0.0
H936 H 0.59843 0.95918 0.76402 0.0
H937 H 0.61148 0.99232 0.74201 0.0
H938 H 0.67829 0.99007 0.77633 0.0
H939 H 0.6654 0.95621 0.79814 0.0
H940 H 0.62579 0.03379 0.74866 0.0
H941 H 0.72072 0.00599 0.73657 0.0
H942 H 0.7457 0.97186 0.73479 0.0
H943 H 0.68633 0.9301 0.71711 0.0
H944 H 0.661 0.96404 0.71866 0.0
H945 H 0.70747 0.10755 0.68104 0.0
H946 H 0.69379 0.08196 0.71166 0.0
H947 H 0.65557 0.04199 0.66148 0.0
H948 H 0.66815 0.06827 0.63077 0.0
H949 H 0.69538 0.0224 0.69952 0.0
H950 H 0.62104 0.05882 0.683 0.0
H951 H 0.59394 0.09106 0.67874 0.0
H952 H 0.60822 0.11202 0.74844 0.0
H953 H 0.63627 0.08045 0.7528 0.0
C954 C 0.61576 0.96598 0.76727 0.0
C955 C 0.63096 0.95497 0.78266 0.0
C956 C 0.62321 0.98499 0.75466 0.0
C957 C 0.64603 0.99344 0.75713 0.0
C958 C 0.66074 0.98356 0.7738 0.0
C959 C 0.65327 0.9644 0.78646 0.0
C960 C 0.65451 0.01145 0.741 0.0
C961 C 0.64115 0.03134 0.73809 0.0
C962 C 0.67448 0.00833 0.72703 0.0
C963 C 0.68896 0.98748 0.72802 0.0
C964 C 0.71298 0.98947 0.73253 0.0
C965 C 0.72719 0.9702 0.7315 0.0
C966 C 0.71761 0.94886 0.72583 0.0
C967 C 0.6937 0.94665 0.72157 0.0
C968 C 0.67939 0.96589 0.7226 0.0
C969 C 0.69596 0.09348 0.67649 0.0
C970 C 0.6887 0.09002 0.6535 0.0
C971 C 0.68811 0.07896 0.69404 0.0
C972 C 0.67333 0.06049 0.6888 0.0
C973 C 0.66659 0.05653 0.66582 0.0
C974 C 0.67392 0.07141 0.64833 0.0
C975 C 0.66645 0.04423 0.70707 0.0
C976 C 0.68028 0.02491 0.71045 0.0
C977 C 0.64673 0.04766 0.72113 0.0
C978 C 0.63118 0.06757 0.71803 0.0
C979 C 0.61897 0.07069 0.69719 0.0
C980 C 0.60334 0.08878 0.6948 0.0
C981 C 0.59948 0.10365 0.71327 0.0
C982 C 0.61142 0.10061 0.73409 0.0
C983 C 0.62725 0.08267 0.7365 0.0
H984 H 0.58706 0.11738 0.71153 0.0
H985 H 0.72879 0.93413 0.72453 0.0
H986 H 0.95528 0.75022 0.61276 0.0
H987 H 0.98849 0.72786 0.62596 0.0
H988 H 0.98634 0.76193 0.69201 0.0
H989 H 0.95307 0.7846 0.67882 0.0
H990 H 0.03255 0.75014 0.67693 0.0
H991 H 0.95706 0.71597 0.68754 0.0
H992 H 0.91788 0.70273 0.67579 0.0
H993 H 0.94794 0.6566 0.62674 0.0
H994 H 0.98734 0.6698 0.63783 0.0
H995 H 0.09174 0.65737 0.73246 0.0
H996 H 0.06374 0.68751 0.72338 0.0
H997 H 0.04892 0.65498 0.65793 0.0
H998 H 0.07625 0.62452 0.66725 0.0
H999 H 0.0103 0.66778 0.67721 0.0
H1000 H 0.0859 0.70476 0.66437 0.0
H1001 H 0.12499 0.7189 0.6759 0.0
H1002 H 0.09465 0.75912 0.72984 0.0
H1003 H 0.05544 0.74534 0.7187 0.0
C1004 C 0.96234 0.75351 0.62984 0.0
C1005 C 0.95142 0.76893 0.64487 0.0
C1006 C 0.98127 0.74068 0.63737 0.0
C1007 C 0.98946 0.74292 0.66011 0.0
C1008 C 0.98015 0.75993 0.67442 0.0
C1009 C 0.96119 0.7729 0.66683 0.0
C1010 C 0.00543 0.72549 0.66962 0.0
C1011 C 0.02768 0.73214 0.67725 0.0
C1012 C 0.99895 0.70205 0.67001 0.0
C1013 C 0.9752 0.69408 0.66334 0.0
C1014 C 0.95534 0.70324 0.67401 0.0
C1015 C 0.93308 0.69573 0.6675 0.0
C1016 C 0.93042 0.67896 0.65047 0.0
C1017 C 0.95002 0.66962 0.63992 0.0
C1018 C 0.97233 0.6771 0.64632 0.0
C1019 C 0.08233 0.65658 0.71623 0.0
C1020 C 0.08611 0.63857 0.70058 0.0
C1021 C 0.06652 0.67393 0.71096 0.0
C1022 C 0.05453 0.67376 0.68978 0.0
C1023 C 0.05801 0.65552 0.67436 0.0
C1024 C 0.07359 0.63807 0.67972 0.0
C1025 C 0.03793 0.69218 0.68366 0.0
C1026 C 0.01531 0.68574 0.6769 0.0
C1027 C 0.04413 0.71576 0.68413 0.0
C1028 C 0.06776 0.72383 0.69086 0.0
C1029 C 0.08759 0.71648 0.6788 0.0
C1030 C 0.10974 0.72444 0.68523 0.0
C1031 C 0.11228 0.73973 0.70365 0.0
C1032 C 0.09267 0.74722 0.71562 0.0
C1033 C 0.07048 0.7394 0.70922 0.0
H1034 H 0.12945 0.74584 0.70858 0.0
H1035 H 0.91316 0.67313 0.64553 0.0
H1036 H 0.40861 0.04187 0.76774 0.0
H1037 H 0.39838 0.01051 0.74156 0.0
H1038 H 0.32796 0.01062 0.76746 0.0
H1039 H 0.33832 0.0415 0.79423 0.0
H1040 H 0.33981 0.96824 0.75377 0.0
H1041 H 0.34152 0.04377 0.72238 0.0
H1042 H 0.35868 0.0818 0.71433 0.0
H1043 H 0.4136 0.05044 0.67564 0.0
H1044 H 0.39695 0.01215 0.68377 0.0
H1045 H 0.28236 0.92774 0.65408 0.0
H1046 H 0.29515 0.95393 0.68459 0.0
H1047 H 0.3657 0.95053 0.65933 0.0
H1048 H 0.35281 0.92486 0.62823 0.0
H1049 H 0.35409 0.99378 0.67315 0.0
H1050 H 0.34689 0.91643 0.70497 0.0
H1051 H 0.32364 0.88122 0.71112 0.0
H1052 H 0.27235 0.91964 0.74807 0.0
H1053 H 0.29517 0.95513 0.74199 0.0
C1054 C 0.39119 0.03462 0.76844 0.0
C1055 C 0.37417 0.04427 0.78274 0.0
C1056 C 0.38532 0.0168 0.75341 0.0
C1057 C 0.36223 0.00877 0.75209 0.0
C1058 C 0.34583 0.01671 0.76808 0.0
C1059 C 0.3518 0.03432 0.78342 0.0
C1060 C 0.35456 0.99464 0.73218 0.0
C1061 C 0.34289 0.97383 0.73616 0.0
C1062 C 0.35829 0.0021 0.70917 0.0
C1063 C 0.36813 0.02509 0.70387 0.0
C1064 C 0.35734 0.04498 0.71226 0.0
C1065 C 0.36696 0.06658 0.70768 0.0
C1066 C 0.38725 0.06853 0.69453 0.0
C1067 C 0.39791 0.04889 0.68585 0.0
C1068 C 0.38838 0.02723 0.69043 0.0
C1069 C 0.30053 0.93288 0.65481 0.0
C1070 C 0.31663 0.92421 0.6389 0.0
C1071 C 0.30784 0.94771 0.67233 0.0
C1072 C 0.33147 0.95368 0.67457 0.0
C1073 C 0.3474 0.94597 0.65799 0.0
C1074 C 0.34003 0.93137 0.64022 0.0
C1075 C 0.3397 0.96719 0.69472 0.0
C1076 C 0.35135 0.98801 0.69076 0.0
C1077 C 0.33535 0.96003 0.71771 0.0
C1078 C 0.32264 0.93843 0.72287 0.0
C1079 C 0.33067 0.91735 0.71443 0.0
C1080 C 0.31752 0.89738 0.7178 0.0
C1081 C 0.29641 0.89825 0.72972 0.0
C1082 C 0.28863 0.91902 0.73871 0.0
C1083 C 0.30169 0.93906 0.73537 0.0
H1084 H 0.28613 0.88281 0.73212 0.0
H1085 H 0.39469 0.08527 0.69101 0.0
H1086 H 0.0424 0.211 0.66737 0.0
H1087 H 0.00639 0.23167 0.67618 0.0
H1088 H 0.02027 0.27836 0.62008 0.0
H1089 H 0.05589 0.25784 0.61103 0.0
H1090 H 0.01512 0.2994 0.66378 0.0
H1091 H 0.97668 0.24345 0.61502 0.0
H1092 H 0.96501 0.20452 0.60285 0.0
H1093 H 0.93128 0.19354 0.66808 0.0
H1094 H 0.94309 0.23231 0.68079 0.0
H1095 H 0.91922 0.37128 0.6564 0.0
H1096 H 0.94907 0.343 0.6483 0.0
H1097 H 0.91962 0.29797 0.69983 0.0
H1098 H 0.88905 0.32609 0.70755 0.0
H1099 H 0.9324 0.27399 0.66267 0.0
H1100 H 0.96992 0.32895 0.71183 0.0
H1101 H 0.98134 0.36761 0.7251 0.0
H1102 H 0.01699 0.37977 0.66109 0.0
H1103 H 0.00562 0.34122 0.64737 0.0
C1104 C 0.03742 0.22528 0.65653 0.0
C1105 C 0.05209 0.2329 0.63862 0.0
C1106 C 0.01689 0.23708 0.66161 0.0
C1107 C 0.01083 0.25664 0.64888 0.0
C1108 C 0.02473 0.26339 0.63018 0.0
C1109 C 0.04507 0.25157 0.625 0.0
C1110 C 0.99145 0.27153 0.65625 0.0
C1111 C 0.997 0.29391 0.66333 0.0
C1112 C 0.96797 0.26403 0.65653 0.0
C1113 C 0.96105 0.24067 0.64898 0.0
C1114 C 0.96703 0.23264 0.62688 0.0
C1115 C 0.96032 0.21063 0.61986 0.0
C1116 C 0.94749 0.19654 0.63472 0.0
C1117 C 0.94128 0.20445 0.65661 0.0
C1118 C 0.94796 0.22645 0.66373 0.0
C1119 C 0.91906 0.35538 0.66605 0.0
C1120 C 0.90192 0.35101 0.68278 0.0
C1121 C 0.93621 0.33924 0.66145 0.0
C1122 C 0.9369 0.31854 0.67379 0.0
C1123 C 0.9195 0.31387 0.69018 0.0
C1124 C 0.90212 0.32998 0.69463 0.0
C1125 C 0.95603 0.30208 0.6696 0.0
C1126 C 0.95052 0.27941 0.6633 0.0
C1127 C 0.97967 0.30917 0.67025 0.0
C1128 C 0.98678 0.33227 0.67852 0.0
C1129 C 0.98008 0.33992 0.70054 0.0
C1130 C 0.98656 0.3618 0.70815 0.0
C1131 C -0.00019 0.37617 0.69392 0.0
C1132 C 0.00668 0.36864 0.67207 0.0
C1133 C 0.00028 0.34676 0.6644 0.0
H1134 H 0.00482 0.3931 0.69985 0.0
H1135 H 0.94229 0.17951 0.62923 0.0
H1136 H 0.66741 0.92852 0.36337 0.0
H1137 H 0.66007 0.95263 0.32964 0.0
H1138 H 0.71438 0.91812 0.29229 0.0
H1139 H 0.72166 0.8936 0.32598 0.0
H1140 H 0.71316 0.97037 0.29108 0.0
H1141 H 0.66669 0.90288 0.27623 0.0
H1142 H 0.63872 0.87245 0.28698 0.0
H1143 H 0.58652 0.92288 0.30046 0.0
H1144 H 0.61423 0.95369 0.29007 0.0
H1145 H 0.67549 0.03881 0.19666 0.0
H1146 H 0.68784 0.00346 0.21602 0.0
H1147 H 0.62799 0.00707 0.2608 0.0
H1148 H 0.61545 0.04177 0.24137 0.0
H1149 H 0.63646 0.96432 0.25164 0.0
H1150 H 0.68198 0.03077 0.27522 0.0
H1151 H 0.7093 0.06334 0.27065 0.0
H1152 H 0.76195 0.01771 0.24592 0.0
H1153 H 0.73484 0.98491 0.25006 0.0
C1154 C 0.67796 0.92619 0.34808 0.0
C1155 C 0.69509 0.90917 0.34729 0.0
C1156 C 0.67367 0.93988 0.32881 0.0
C1157 C 0.68659 0.93698 0.30852 0.0
C1158 C 0.70422 0.92052 0.30784 0.0
C1159 C 0.70831 0.90654 0.32704 0.0
C1160 C 0.6812 0.95112 0.28805 0.0
C1161 C 0.69669 0.96876 0.28195 0.0
C1162 C 0.65947 0.94916 0.27667 0.0
C1163 C 0.6426 0.93062 0.28248 0.0
C1164 C 0.6493 0.90751 0.28162 0.0
C1165 C 0.63349 0.89018 0.28764 0.0
C1166 C 0.6109 0.89571 0.29446 0.0
C1167 C 0.60403 0.91861 0.29518 0.0
C1168 C 0.61976 0.93602 0.28918 0.0
C1169 C 0.66463 0.0316 0.21015 0.0
C1170 C 0.64462 0.04312 0.21766 0.0
C1171 C 0.67182 0.01156 0.22134 0.0
C1172 C 0.65909 0.00287 0.24018 0.0
C1173 C 0.63816 0.01344 0.24639 0.0
C1174 C 0.63102 0.03334 0.23528 0.0
C1175 C 0.66817 0.98414 0.25494 0.0
C1176 C 0.65331 0.9656 0.26012 0.0
C1177 C 0.69029 0.9856 0.26587 0.0
C1178 C 0.70628 0.00544 0.26261 0.0
C1179 C 0.69929 0.02773 0.26853 0.0
C1180 C 0.71475 0.04622 0.26608 0.0
C1181 C 0.73732 0.04258 0.25794 0.0
C1182 C 0.74444 0.02049 0.25216 0.0
C1183 C 0.72904 0.00196 0.25453 0.0
H1184 H 0.74935 0.05684 0.25624 0.0
H1185 H 0.59871 0.88225 0.29915 0.0
H1186 H 0.90494 0.6792 0.29135 0.0
H1187 H 0.931 0.70859 0.30669 0.0
H1188 H 0.96536 0.6578 0.34863 0.0
H1189 H 0.93792 0.62854 0.3346 0.0
H1190 H 0.96263 0.6954 0.37201 0.0
H1191 H 0.98622 0.67771 0.2942 0.0
H1192 H 0.98003 0.67311 0.25229 0.0
H1193 H 0.96257 0.74427 0.24651 0.0
H1194 H 0.96838 0.74924 0.28847 0.0
H1195 H 0.07522 0.74421 0.38284 0.0
H1196 H 0.04036 0.72157 0.37427 0.0
H1197 H 0.00798 0.78093 0.34406 0.0
H1198 H 0.043 0.80386 0.35271 0.0
H1199 H 0.0066 0.74281 0.3156 0.0
H1200 H 0.98726 0.7607 0.39361 0.0
H1201 H 0.99395 0.76445 0.43553 0.0
H1202 H 0.00502 0.69196 0.44072 0.0
H1203 H 0.99872 0.68782 0.39876 0.0
C1204 C 0.91791 0.67428 0.30397 0.0
C1205 C 0.91948 0.65153 0.31169 0.0
C1206 C 0.93292 0.69111 0.31265 0.0
C1207 C 0.95055 0.68537 0.32843 0.0
C1208 C 0.95195 0.66268 0.33643 0.0
C1209 C 0.9364 0.64593 0.32828 0.0
C1210 C 0.96802 0.70279 0.33594 0.0
C1211 C 0.9724 0.7056 0.35966 0.0
C1212 C 0.98034 0.7166 0.31986 0.0
C1213 C 0.97742 0.71378 0.29453 0.0
C1214 C 0.98089 0.69234 0.28402 0.0
C1215 C 0.97745 0.68966 0.26026 0.0
C1216 C 0.97072 0.70834 0.24678 0.0
C1217 C 0.96765 0.72979 0.257 0.0
C1218 C 0.97106 0.73256 0.28077 0.0
C1219 C 0.06056 0.75257 0.3747 0.0
C1220 C 0.06185 0.7758 0.3684 0.0
C1221 C 0.04061 0.73962 0.36989 0.0
C1222 C 0.02155 0.7496 0.35865 0.0
C1223 C 0.02251 0.77295 0.35282 0.0
C1224 C 0.04246 0.78603 0.35785 0.0
C1225 C 0.00147 0.73507 0.35159 0.0
C1226 C 0.99664 0.73278 0.32794 0.0
C1227 C 0.98894 0.72158 0.3677 0.0
C1228 C 0.99267 0.72398 0.39298 0.0
C1229 C 0.9913 0.74558 0.40365 0.0
C1230 C 0.99499 0.74777 0.42743 0.0
C1231 C -5e-05 0.72846 0.44078 0.0
C1232 C 0.00118 0.70691 0.43037 0.0
C1233 C 0.99752 0.70463 0.40659 0.0
H1234 H 0.0028 0.73019 0.45919 0.0
H1235 H 0.96807 0.70624 0.22838 0.0
H1236 H 0.33268 0.96821 0.18792 0.0
H1237 H 0.31934 0.00034 0.2118 0.0
H1238 H 0.37034 0.98326 0.26376 0.0
H1239 H 0.38338 0.95121 0.24038 0.0
H1240 H 0.32549 0.98338 0.28023 0.0
H1241 H 0.37545 0.03172 0.23287 0.0
H1242 H 0.3887 0.04856 0.19606 0.0
H1243 H 0.3208 0.07686 0.18473 0.0
H1244 H 0.30706 0.05993 0.22136 0.0
H1245 H 0.32665 0.06787 0.36472 0.0
H1246 H 0.33507 0.04144 0.33334 0.0
H1247 H 0.28484 0.0755 0.28995 0.0
H1248 H 0.27675 0.10256 0.32128 0.0
H1249 H 0.32298 0.06708 0.26594 0.0
H1250 H 0.27276 0.02272 0.31261 0.0
H1251 H 0.25629 0.0048 0.34754 0.0
H1252 H 0.31965 0.96757 0.35804 0.0
H1253 H 0.33664 0.98547 0.3233 0.0
C1254 C 0.34138 0.97168 0.20418 0.0
C1255 C 0.35876 0.95696 0.2125 0.0
C1256 C 0.33375 0.99003 0.21779 0.0
C1257 C 0.34368 0.99397 0.23967 0.0
C1258 C 0.36228 0.98036 0.24704 0.0
C1259 C 0.36975 0.96208 0.23361 0.0
C1260 C 0.33341 0.01043 0.25617 0.0
C1261 C 0.32513 0.00172 0.27721 0.0
C1262 C 0.33186 0.03417 0.25169 0.0
C1263 C 0.34016 0.04434 0.22971 0.0
C1264 C 0.36329 0.04135 0.22242 0.0
C1265 C 0.3709 0.05095 0.20162 0.0
C1266 C 0.35558 0.06371 0.18803 0.0
C1267 C 0.33263 0.06694 0.19526 0.0
C1268 C 0.32493 0.05737 0.21604 0.0
C1269 C 0.3172 0.06964 0.3486 0.0
C1270 C 0.30092 0.0872 0.34554 0.0
C1271 C 0.322 0.05447 0.33065 0.0
C1272 C 0.31036 0.05628 0.30936 0.0
C1273 C 0.29399 0.07376 0.30624 0.0
C1274 C 0.28929 0.0891 0.3242 0.0
C1275 C 0.31583 0.04006 0.2904 0.0
C1276 C 0.32309 0.04873 0.2689 0.0
C1277 C 0.31598 0.01612 0.29421 0.0
C1278 C 0.30607 0.00564 0.31545 0.0
C1279 C 0.2833 0.01093 0.32252 0.0
C1280 C 0.27383 0.0007 0.34224 0.0
C1281 C 0.28694 0.98511 0.35504 0.0
C1282 C 0.30952 0.97967 0.34812 0.0
C1283 C 0.31907 0.98982 0.32838 0.0
H1284 H 0.27957 0.9772 0.3703 0.0
H1285 H 0.36151 0.07113 0.17193 0.0
H1286 H 0.07219 0.33172 0.27357 0.0
H1287 H 0.04724 0.30142 0.28894 0.0
H1288 H 0.03143 0.34362 0.34798 0.0
H1289 H 0.05696 0.37392 0.3329 0.0
H1290 H 0.04378 0.30255 0.36155 0.0
H1291 H 0.99123 0.33184 0.30566 0.0
H1292 H 0.976 0.34444 0.26796 0.0
H1293 H 0.98521 0.27679 0.24054 0.0
H1294 H 0.00108 0.26388 0.27792 0.0
H1295 H 0.94318 0.23951 0.3988 0.0
H1296 H 0.97313 0.26669 0.3864 0.0
H1297 H 0.99789 0.21775 0.33656 0.0
H1298 H 0.96831 0.19006 0.34943 0.0
H1299 H 0.98196 0.26086 0.31827 0.0
H1300 H 0.03376 0.23248 0.37682 0.0
H1301 H 0.0449 0.22115 0.41634 0.0
H1302 H 0.03209 0.28947 0.44041 0.0
H1303 H 0.02057 0.30114 0.40108 0.0
C1304 C 0.06314 0.33472 0.28967 0.0
C1305 C 0.0666 0.35516 0.3021 0.0
C1306 C 0.04879 0.31739 0.29838 0.0
C1307 C 0.03739 0.32026 0.31957 0.0
C1308 C 0.04012 0.34103 0.33161 0.0
C1309 C 0.05457 0.35838 0.32292 0.0
C1310 C 0.02399 0.301 0.32985 0.0
C1311 C 0.03005 0.29365 0.35217 0.0
C1312 C 0.00644 0.28902 0.31739 0.0
C1313 C 0.99769 0.29696 0.29457 0.0
C1314 C 0.99037 0.31971 0.29151 0.0
C1315 C 0.98154 0.3269 0.27019 0.0
C1316 C 0.97969 0.31144 0.25184 0.0
C1317 C 0.98672 0.28877 0.25475 0.0
C1318 C 0.99567 0.28152 0.27599 0.0
C1319 C 0.95546 0.23424 0.3857 0.0
C1320 C 0.9531 0.21287 0.3747 0.0
C1321 C 0.97257 0.24979 0.37866 0.0
C1322 C 0.9875 0.24427 0.36043 0.0
C1323 C 0.98639 0.22229 0.35061 0.0
C1324 C 0.96951 0.20651 0.35799 0.0
C1325 C 0.00188 0.26249 0.34977 0.0
C1326 C 0.99589 0.2697 0.32744 0.0
C1327 C 0.01912 0.2746 0.36235 0.0
C1328 C 0.02611 0.26763 0.38602 0.0
C1329 C 0.03312 0.24504 0.39057 0.0
C1330 C 0.03956 0.23857 0.41293 0.0
C1331 C 0.03916 0.25457 0.43088 0.0
C1332 C 0.03238 0.27709 0.42649 0.0
C1333 C 0.02593 0.28365 0.40416 0.0
H1334 H 0.04413 0.24952 0.44818 0.0
H1335 H 0.97277 0.31701 0.23538 0.0
H1336 H 0.80078 0.65885 0.96705 0.0
H1337 H 0.77524 0.66981 0.99909 0.0
H1338 H 0.72399 0.62021 0.9762 0.0
H1339 H 0.74904 0.60968 0.94409 0.0
H1340 H 0.70503 0.66052 0.97997 0.0
H1341 H 0.7543 0.6143 0.02732 0.0
H1342 H 0.79046 0.60062 0.04558 0.0
H1343 H 0.80147 0.66662 0.07667 0.0
H1344 H 0.76555 0.68083 0.05831 0.0
H1345 H 0.62399 0.67095 0.07225 0.0
H1346 H 0.65277 0.6565 0.04482 0.0
H1347 H 0.70099 0.70977 0.06561 0.0
H1348 H 0.6724 0.72424 0.09306 0.0
H1349 H 0.72186 0.66782 0.0637 0.0
H1350 H 0.67272 0.71381 0.01497 0.0
H1351 H 0.63544 0.7263 0.99805 0.0
H1352 H 0.6238 0.65892 0.9703 0.0
H1353 H 0.66089 0.64595 0.98732 0.0
C1354 C 0.7843 0.64997 0.96921 0.0
C1355 C 0.77676 0.63361 0.95295 0.0
C1356 C 0.76973 0.6562 0.98754 0.0
C1357 C 0.74761 0.64591 0.98998 0.0
C1358 C 0.74085 0.62853 0.97457 0.0
C1359 C 0.75522 0.6225 0.95623 0.0
C1360 C 0.73042 0.65474 0.00685 0.0
C1361 C 0.70866 0.66176 0.99833 0.0
C1362 C 0.73532 0.65701 0.03073 0.0
C1363 C 0.75736 0.64873 0.04116 0.0
C1364 C 0.76459 0.62601 0.03778 0.0
C1365 C 0.78501 0.61812 0.04823 0.0
C1366 C 0.79829 0.63275 0.06224 0.0
C1367 C 0.79119 0.65531 0.06579 0.0
C1368 C 0.7708 0.66329 0.05536 0.0
C1369 C 0.64062 0.67973 0.07078 0.0
C1370 C 0.64591 0.69877 0.08475 0.0
C1371 C 0.65706 0.67144 0.05515 0.0
C1372 C 0.679 0.68211 0.05315 0.0
C1373 C 0.68421 0.70123 0.06694 0.0
C1374 C 0.66779 0.70955 0.08252 0.0
C1375 C 0.69659 0.67331 0.03675 0.0
C1376 C 0.71837 0.66647 0.04532 0.0
C1377 C 0.69174 0.67105 0.01291 0.0
C1378 C 0.66947 0.67885 0.00261 0.0
C1379 C 0.66212 0.70161 0.00542 0.0
C1380 C 0.64105 0.70879 0.99578 0.0
C1381 C 0.62723 0.6934 0.98316 0.0
C1382 C 0.6345 0.67082 0.9801 0.0
C1383 C 0.65556 0.66355 0.98973 0.0
H1384 H 0.61092 0.69899 0.97571 0.0
H1385 H 0.81403 0.6266 0.07039 0.0
H1386 H 0.24284 0.61185 0.0443 0.0
H1387 H 0.25752 0.62093 0.00616 0.0
H1388 H 0.1979 0.6638 0.99343 0.0
H1389 H 0.18345 0.65542 0.03243 0.0
H1390 H 0.24547 0.61692 0.96308 0.0
H1391 H 0.21443 0.70791 0.96174 0.0
H1392 H 0.19975 0.73792 0.9879 0.0
H1393 H 0.24334 0.71266 0.04254 0.0
H1394 H 0.25834 0.68262 0.01661 0.0
H1395 H 0.31018 0.70245 0.88106 0.0
H1396 H 0.27507 0.69265 0.90323 0.0
H1397 H 0.31637 0.65105 0.94901 0.0
H1398 H 0.35139 0.66079 0.9272 0.0
H1399 H 0.26641 0.69888 0.95222 0.0
H1400 H 0.28721 0.60201 0.95772 0.0
H1401 H 0.30606 0.57275 0.93359 0.0
H1402 H 0.28736 0.60986 0.87235 0.0
H1403 H 0.26813 0.63922 0.89607 0.0
C1404 C 0.23259 0.62295 0.03333 0.0
C1405 C 0.21216 0.6332 0.0415 0.0
C1406 C 0.24097 0.62804 0.0114 0.0
C1407 C 0.22903 0.64333 0.99701 0.0
C1408 C 0.20764 0.65228 0.00441 0.0
C1409 C 0.19934 0.64739 0.02662 0.0
C1410 C 0.24064 0.65134 0.97558 0.0
C1411 C 0.24983 0.63486 0.96053 0.0
C1412 C 0.24581 0.67481 0.97179 0.0
C1413 C 0.23732 0.693 0.98734 0.0
C1414 C 0.22092 0.70886 0.97931 0.0
C1415 C 0.21254 0.72584 0.99409 0.0
C1416 C 0.2206 0.72719 0.01687 0.0
C1417 C 0.23711 0.7116 0.0249 0.0
C1418 C 0.24554 0.69459 0.01019 0.0
C1419 C 0.31175 0.69131 0.89594 0.0
C1420 C 0.33351 0.68235 0.90243 0.0
C1421 C 0.29171 0.68576 0.90852 0.0
C1422 C 0.29317 0.6709 0.92748 0.0
C1423 C 0.31491 0.6623 0.93419 0.0
C1424 C 0.33491 0.66799 0.92181 0.0
C1425 C 0.27223 0.66431 0.94075 0.0
C1426 C 0.26128 0.68105 0.95414 0.0
C1427 C 0.26569 0.64104 0.9432 0.0
C1428 C 0.27628 0.62288 0.92872 0.0
C1429 C 0.2869 0.60383 0.93909 0.0
C1430 C 0.29773 0.58725 0.92549 0.0
C1431 C 0.298 0.5895 0.90146 0.0
C1432 C 0.28724 0.6082 0.89096 0.0
C1433 C 0.27639 0.62482 0.90449 0.0
H1434 H 0.3066 0.57676 0.89101 0.0
H1435 H 0.21407 0.74032 0.02829 0.0
H1436 H 0.20085 0.36611 0.9661 0.0
H1437 H 0.22474 0.35883 0.00073 0.0
H1438 H 0.28616 0.35553 0.95803 0.0
H1439 H 0.26295 0.36375 0.92415 0.0
H1440 H 0.24985 0.32496 0.01441 0.0
H1441 H 0.33334 0.37417 0.98229 0.0
H1442 H 0.34271 0.40981 0.9613 0.0
H1443 H 0.27662 0.43786 0.98052 0.0
H1444 H 0.26698 0.40253 0.00191 0.0
H1445 H 0.34801 0.27519 0.06416 0.0
H1446 H 0.31831 0.29129 0.03863 0.0
H1447 H 0.3337 0.35892 0.06532 0.0
H1448 H 0.3647 0.34296 0.0893 0.0
H1449 H 0.32629 0.36412 0.02432 0.0
H1450 H 0.28297 0.32489 0.08089 0.0
H1451 H 0.27104 0.2931 0.10639 0.0
H1452 H 0.2517 0.25265 0.04729 0.0
H1453 H 0.26382 0.28409 0.02141 0.0
C1454 C 0.21951 0.36414 0.9643 0.0
C1455 C 0.23007 0.36588 0.9425 0.0
C1456 C 0.23311 0.35991 0.98402 0.0
C1457 C 0.25737 0.35719 0.98209 0.0
C1458 C 0.26766 0.35837 0.96018 0.0
C1459 C 0.25427 0.36297 0.94072 0.0
C1460 C 0.27226 0.35223 0.0025 0.0
C1461 C 0.26646 0.33365 0.0168 0.0
C1462 C 0.29354 0.36416 0.00626 0.0
C1463 C 0.2994 0.38561 0.99364 0.0
C1464 C 0.32087 0.38799 0.98219 0.0
C1465 C 0.32621 0.40813 0.97017 0.0
C1466 C 0.31025 0.42607 0.96954 0.0
C1467 C 0.28894 0.42393 0.98097 0.0
C1468 C 0.28352 0.40384 0.99302 0.0
C1469 C 0.34521 0.29353 0.0642 0.0
C1470 C 0.35872 0.30791 0.07836 0.0
C1471 C 0.32799 0.30271 0.04993 0.0
C1472 C 0.32321 0.32632 0.05041 0.0
C1473 C 0.33695 0.34068 0.06453 0.0
C1474 C 0.35474 0.33159 0.07816 0.0
C1475 C 0.30445 0.33607 0.03563 0.0
C1476 C 0.30953 0.35562 0.02238 0.0
C1477 C 0.28207 0.32571 0.03368 0.0
C1478 C 0.27445 0.30682 0.04919 0.0
C1479 C 0.27628 0.30918 0.07332 0.0
C1480 C 0.26947 0.29122 0.08785 0.0
C1481 C 0.26064 0.27086 0.07847 0.0
C1482 C 0.25855 0.26843 0.05454 0.0
C1483 C 0.26535 0.28633 0.03992 0.0
H1484 H 0.25539 0.25697 0.08975 0.0
H1485 H 0.31441 0.44164 0.96022 0.0
H1486 H 0.81386 0.32603 0.04577 0.0
H1487 H 0.79633 0.31208 0.00973 0.0
H1488 H 0.75925 0.37568 0.00247 0.0
H1489 H 0.7767 0.38969 0.03826 0.0
H1490 H 0.74995 0.30546 0.00684 0.0
H1491 H 0.74557 0.38538 0.94693 0.0
H1492 H 0.77063 0.41798 0.93562 0.0
H1493 H 0.8316 0.37912 0.95229 0.0
H1494 H 0.80694 0.34615 0.96338 0.0
H1495 H 0.64691 0.31708 0.94189 0.0
H1496 H 0.68138 0.32226 0.9663 0.0
H1497 H 0.72556 0.30442 0.90901 0.0
H1498 H 0.69105 0.29895 0.88447 0.0
H1499 H 0.7392 0.34467 0.93158 0.0
H1500 H 0.72028 0.26732 0.95066 0.0
H1501 H 0.69539 0.23481 0.96257 0.0
H1502 H 0.68219 0.26766 0.02753 0.0
H1503 H 0.70662 0.30062 0.01584 0.0
C1504 C 0.80263 0.33733 0.03604 0.0
C1505 C 0.79649 0.35887 0.04488 0.0
C1506 C 0.79254 0.3293 0.01553 0.0
C1507 C 0.77649 0.34283 0.00343 0.0
C1508 C 0.77181 0.36504 0.01133 0.0
C1509 C 0.78172 0.373 0.03187 0.0
C1510 C 0.76194 0.33281 0.98476 0.0
C1511 C 0.74783 0.31382 0.99024 0.0
C1512 C 0.75935 0.34364 0.96306 0.0
C1513 C 0.77436 0.36329 0.95609 0.0
C1514 C 0.76432 0.38371 0.94803 0.0
C1515 C 0.77846 0.40228 0.9417 0.0
C1516 C 0.80269 0.40063 0.94327 0.0
C1517 C 0.81283 0.38039 0.95114 0.0
C1518 C 0.79877 0.36177 0.95749 0.0
C1519 C 0.66395 0.31408 0.93454 0.0
C1520 C 0.66632 0.30759 0.91131 0.0
C1521 C 0.6836 0.31694 0.94852 0.0
C1522 C 0.70596 0.31351 0.93948 0.0
C1523 C 0.70842 0.307 0.9163 0.0
C1524 C 0.68872 0.30385 0.90235 0.0
C1525 C 0.72668 0.31796 0.95412 0.0
C1526 C 0.74177 0.33596 0.94794 0.0
C1527 C 0.73013 0.30628 0.97524 0.0
C1528 C 0.71521 0.28655 0.98227 0.0
C1529 C 0.71189 0.26774 0.96739 0.0
C1530 C 0.69789 0.24921 0.97412 0.0
C1531 C 0.68719 0.24919 0.99577 0.0
C1532 C 0.69047 0.26771 0.01075 0.0
C1533 C 0.70441 0.28632 0.00407 0.0
H1534 H 0.67639 0.2348 0.00098 0.0
H1535 H 0.8136 0.41504 0.93838 0.0
H1536 H 0.17532 0.3541 0.33129 0.0
H1537 H 0.19887 0.32822 0.35458 0.0
H1538 H 0.13625 0.29682 0.3816 0.0
H1539 H 0.11272 0.32154 0.35674 0.0
H1540 H 0.20898 0.31152 0.39409 0.0
H1541 H 0.13985 0.24071 0.3806 0.0
H1542 H 0.10552 0.23292 0.35591 0.0
H1543 H 0.13514 0.27433 0.30197 0.0
H1544 H 0.16973 0.28212 0.32624 0.0
H1545 H 0.25817 0.20924 0.43799 0.0
H1546 H 0.23116 0.2405 0.43035 0.0
H1547 H 0.22888 0.2216 0.35828 0.0
H1548 H 0.25529 0.18989 0.36594 0.0
H1549 H 0.18737 0.23202 0.37167 0.0
H1550 H 0.26254 0.26703 0.37784 0.0
H1551 H 0.30043 0.27605 0.396 0.0
H1552 H 0.26553 0.3073 0.45331 0.0
H1553 H 0.22738 0.29819 0.43559 0.0
C1554 C 0.16661 0.34227 0.34291 0.0
C1555 C 0.14232 0.33951 0.34211 0.0
C1556 C 0.18008 0.32743 0.35622 0.0
C1557 C 0.16934 0.30998 0.3692 0.0
C1558 C 0.14492 0.30965 0.3711 0.0
C1559 C 0.13146 0.32391 0.35713 0.0
C1560 C 0.18337 0.29015 0.37708 0.0
C1561 C 0.2041 0.29411 0.38946 0.0
C1562 C 0.17751 0.26744 0.37035 0.0
C1563 C 0.15721 0.26215 0.35531 0.0
C1564 C 0.13907 0.24801 0.36342 0.0
C1565 C 0.11957 0.24363 0.34951 0.0
C1566 C 0.11812 0.25317 0.32741 0.0
C1567 C 0.13625 0.26698 0.3191 0.0
C1568 C 0.15581 0.27137 0.33291 0.0
C1569 C 0.25181 0.21168 0.42053 0.0
C1570 C 0.25893 0.19717 0.40252 0.0
C1571 C 0.23644 0.2296 0.41619 0.0
C1572 C 0.22825 0.2336 0.39369 0.0
C1573 C 0.23493 0.21881 0.37579 0.0
C1574 C 0.25005 0.2007 0.38018 0.0
C1575 C 0.21298 0.25338 0.38864 0.0
C1576 C 0.19204 0.24936 0.37674 0.0
C1577 C 0.21924 0.27609 0.39485 0.0
C1578 C 0.24211 0.28171 0.40552 0.0
C1579 C 0.26294 0.27567 0.39439 0.0
C1580 C 0.28446 0.28083 0.40459 0.0
C1581 C 0.28538 0.29218 0.42583 0.0
C1582 C 0.26478 0.29847 0.43687 0.0
C1583 C 0.2432 0.29333 0.42676 0.0
H1584 H 0.30206 0.29616 0.4337 0.0
H1585 H 0.10297 0.24984 0.31672 0.0
H1586 H 0.85071 0.12899 0.35879 0.0
H1587 H 0.81648 0.11444 0.33884 0.0
H1588 H 0.85688 0.10558 0.27672 0.0
H1589 H 0.89135 0.121 0.29665 0.0
H1590 H 0.822 0.13188 0.26824 0.0
H1591 H 0.82777 0.05959 0.30412 0.0
H1592 H 0.83388 0.03169 0.33547 0.0
H1593 H 0.77351 0.05681 0.37067 0.0
H1594 H 0.7671 0.08495 0.33964 0.0
H1595 H 0.7106 0.10041 0.21712 0.0
H1596 H 0.74996 0.09506 0.23243 0.0
H1597 H 0.73102 0.13087 0.29464 0.0
H1598 H 0.69173 0.13718 0.27902 0.0
H1599 H 0.75692 0.08353 0.29737 0.0
H1600 H 0.75891 0.16143 0.2655 0.0
H1601 H 0.75408 0.19003 0.23449 0.0
H1602 H 0.80096 0.15247 0.19131 0.0
H1603 H 0.80589 0.12353 0.22202 0.0
C1604 C 0.85255 0.1232 0.3411 0.0
C1605 C 0.87362 0.12644 0.32916 0.0
C1606 C 0.83293 0.11468 0.32971 0.0
C1607 C 0.83401 0.10891 0.30621 0.0
C1608 C 0.85563 0.10997 0.29486 0.0
C1609 C 0.87537 0.1186 0.3063 0.0
C1610 C 0.81198 0.10593 0.29298 0.0
C1611 C 0.80804 0.12075 0.27426 0.0
C1612 C 0.79352 0.09176 0.30099 0.0
C1613 C 0.79707 0.07456 0.31959 0.0
C1614 C 0.81587 0.05928 0.31861 0.0
C1615 C 0.81936 0.04336 0.33631 0.0
C1616 C 0.80412 0.0425 0.35507 0.0
C1617 C 0.7853 0.05748 0.35612 0.0
C1618 C 0.7817 0.07339 0.33845 0.0
C1619 C 0.71476 0.10705 0.23413 0.0
C1620 C 0.69814 0.11924 0.24692 0.0
C1621 C 0.73723 0.104 0.24278 0.0
C1622 C 0.74322 0.11252 0.26461 0.0
C1623 C 0.72655 0.12413 0.27775 0.0
C1624 C 0.70422 0.12778 0.26882 0.0
C1625 C 0.76715 0.10993 0.27348 0.0
C1626 C 0.77125 0.0941 0.29119 0.0
C1627 C 0.78582 0.12302 0.26451 0.0
C1628 C 0.78245 0.14012 0.24588 0.0
C1629 C 0.76792 0.1591 0.24927 0.0
C1630 C 0.76525 0.17543 0.23179 0.0
C1631 C 0.77709 0.173 0.2109 0.0
C1632 C 0.7917 0.15428 0.20746 0.0
C1633 C 0.79446 0.13792 0.2249 0.0
H1634 H 0.77504 0.18566 0.19741 0.0
H1635 H 0.80688 0.03019 0.36877 0.0
H1636 H 0.86216 0.68889 0.34933 0.0
H1637 H 0.83511 0.70837 0.37489 0.0
H1638 H 0.78327 0.65591 0.36194 0.0
H1639 H 0.81057 0.63614 0.33631 0.0
H1640 H 0.76856 0.69809 0.34959 0.0
H1641 H 0.80047 0.66488 0.41655 0.0
H1642 H 0.83062 0.65137 0.44361 0.0
H1643 H 0.85536 0.72039 0.45288 0.0
H1644 H 0.82561 0.73432 0.42561 0.0
H1645 H 0.71588 0.781 0.44084 0.0
H1646 H 0.73662 0.74572 0.43219 0.0
H1647 H 0.76155 0.77532 0.36852 0.0
H1648 H 0.74053 0.81055 0.37672 0.0
H1649 H 0.78175 0.73599 0.4253 0.0
H1650 H 0.7612 0.73571 0.32701 0.0
H1651 H 0.73033 0.7497 0.30099 0.0
H1652 H 0.68057 0.74516 0.35606 0.0
H1653 H 0.71104 0.73073 0.38231 0.0
C1654 C 0.84527 0.68109 0.35257 0.0
C1655 C 0.83829 0.66119 0.34074 0.0
C1656 C 0.82987 0.69216 0.36729 0.0
C1657 C 0.80716 0.6836 0.37027 0.0
C1658 C 0.80076 0.66271 0.35989 0.0
C1659 C 0.81636 0.65141 0.34537 0.0
C1660 C 0.78943 0.69867 0.38063 0.0
C1661 C 0.77118 0.70607 0.36633 0.0
C1662 C 0.79272 0.70888 0.40257 0.0
C1663 C 0.81081 0.70063 0.41892 0.0
C1664 C 0.81245 0.67717 0.4242 0.0
C1665 C 0.82946 0.66944 0.43962 0.0
C1666 C 0.8449 0.68501 0.44994 0.0
C1667 C 0.84337 0.70835 0.44488 0.0
C1668 C 0.8264 0.71618 0.42947 0.0
C1669 C 0.72579 0.78007 0.42498 0.0
C1670 C 0.72633 0.79855 0.40932 0.0
C1671 C 0.73767 0.75989 0.42014 0.0
C1672 C 0.75022 0.7578 0.39955 0.0
C1673 C 0.75152 0.77646 0.38429 0.0
C1674 C 0.73959 0.79662 0.38906 0.0
C1675 C 0.76179 0.73603 0.39375 0.0
C1676 C 0.7788 0.72752 0.40885 0.0
C1677 C 0.75721 0.7246 0.37265 0.0
C1678 C 0.73848 0.73222 0.35667 0.0
C1679 C 0.74363 0.73746 0.33351 0.0
C1680 C 0.72621 0.74552 0.31874 0.0
C1681 C 0.70352 0.74835 0.32688 0.0
C1682 C 0.69817 0.74299 0.34978 0.0
C1683 C 0.71551 0.73486 0.36462 0.0
H1684 H 0.69008 0.75469 0.31543 0.0
H1685 H 0.85805 0.67898 0.46187 0.0
H1686 H 0.26457 0.93007 0.20656 0.0
H1687 H 0.23366 0.9259 0.23478 0.0
H1688 H 0.2785 0.88478 0.27768 0.0
H1689 H 0.3097 0.88841 0.24894 0.0
H1690 H 0.23642 0.8666 0.2763 0.0
H1691 H 0.26679 0.94038 0.29068 0.0
H1692 H 0.28104 0.97903 0.28128 0.0
H1693 H 0.21261 0.99825 0.25885 0.0
H1694 H 0.19805 0.95923 0.26711 0.0
H1695 H 0.16021 0.86674 0.36705 0.0
H1696 H 0.19318 0.88556 0.34831 0.0
H1697 H 0.14978 0.90272 0.29018 0.0
H1698 H 0.11647 0.88382 0.30876 0.0
H1699 H 0.1934 0.93487 0.30388 0.0
H1700 H 0.16886 0.85564 0.28119 0.0
H1701 H 0.15476 0.8177 0.29418 0.0
H1702 H 0.21447 0.81133 0.33855 0.0
H1703 H 0.22878 0.84934 0.3259 0.0
C1704 C 0.26802 0.92018 0.22201 0.0
C1705 C 0.28974 0.90972 0.22557 0.0
C1706 C 0.25028 0.9179 0.23821 0.0
C1707 C 0.2539 0.90547 0.2586 0.0
C1708 C 0.2754 0.89461 0.26212 0.0
C1709 C 0.2932 0.89669 0.2457 0.0
C1710 C 0.23486 0.90353 0.27582 0.0
C1711 C 0.22735 0.8816 0.28254 0.0
C1712 C 0.22286 0.92309 0.28406 0.0
C1713 C 0.23136 0.94674 0.27934 0.0
C1714 C 0.25479 0.95274 0.28353 0.0
C1715 C 0.26293 0.97476 0.27841 0.0
C1716 C 0.24776 0.99118 0.26958 0.0
C1717 C 0.22437 0.98553 0.26572 0.0
C1718 C 0.21616 0.96341 0.27054 0.0
C1719 C 0.15736 0.87547 0.35077 0.0
C1720 C 0.1359 0.87346 0.33912 0.0
C1721 C 0.17621 0.8863 0.34019 0.0
C1722 C 0.1739 0.89521 0.31787 0.0
C1723 C 0.15179 0.89598 0.30751 0.0
C1724 C 0.13278 0.88518 0.31814 0.0
C1725 C 0.19496 0.89811 0.30359 0.0
C1726 C 0.20276 0.92007 0.29758 0.0
C1727 C 0.20753 0.8787 0.29628 0.0
C1728 C 0.19989 0.85522 0.30258 0.0
C1729 C 0.17902 0.84606 0.29362 0.0
C1730 C 0.17096 0.82459 0.30095 0.0
C1731 C 0.18373 0.81209 0.31715 0.0
C1732 C 0.20464 0.82099 0.32594 0.0
C1733 C 0.21277 0.84246 0.31865 0.0
H1734 H 0.17741 0.79553 0.32289 0.0
H1735 H 0.25415 0.00825 0.26573 0.0
H1736 H 0.18535 0.63721 0.65292 0.0
H1737 H 0.20689 0.66438 0.62871 0.0
H1738 H 0.1492 0.71113 0.63152 0.0
H1739 H 0.12733 0.68366 0.65497 0.0
H1740 H 0.18257 0.71745 0.59152 0.0
H1741 H 0.18007 0.71808 0.68034 0.0
H1742 H 0.18082 0.69312 0.71482 0.0
H1743 H 0.24275 0.66076 0.68984 0.0
H1744 H 0.24272 0.68604 0.6556 0.0
H1745 H 0.23053 0.82409 0.65505 0.0
H1746 H 0.21097 0.78683 0.65285 0.0
H1747 H 0.25277 0.76875 0.594 0.0
H1748 H 0.2723 0.80615 0.59573 0.0
H1749 H 0.23194 0.74433 0.65691 0.0
H1750 H 0.21438 0.73171 0.55947 0.0
H1751 H 0.20822 0.75441 0.52407 0.0
H1752 H 0.18331 0.81061 0.56469 0.0
H1753 H 0.18871 0.78805 0.60026 0.0
C1754 C 0.17675 0.65268 0.64723 0.0
C1755 C 0.1551 0.65889 0.65645 0.0
C1756 C 0.18907 0.66818 0.63337 0.0
C1757 C 0.17984 0.68997 0.62893 0.0
C1758 C 0.15668 0.69447 0.6349 0.0
C1759 C 0.14435 0.67895 0.64859 0.0
C1760 C 0.19567 0.70975 0.62545 0.0
C1761 C 0.19389 0.72314 0.60545 0.0
C1762 C 0.20992 0.71731 0.64394 0.0
C1763 C 0.21155 0.70406 0.66566 0.0
C1764 C 0.19412 0.70597 0.68252 0.0
C1765 C 0.1944 0.69176 0.70197 0.0
C1766 C 0.21197 0.67552 0.70464 0.0
C1767 C 0.22938 0.67359 0.68793 0.0
C1768 C 0.22935 0.68796 0.66861 0.0
C1769 C 0.23543 0.81235 0.64145 0.0
C1770 C 0.25294 0.81821 0.62552 0.0
C1771 C 0.22428 0.79103 0.64027 0.0
C1772 C 0.23035 0.77516 0.62315 0.0
C1773 C 0.24761 0.78096 0.60707 0.0
C1774 C 0.25873 0.80234 0.60816 0.0
C1775 C 0.21907 0.75229 0.62279 0.0
C1776 C 0.22147 0.7384 0.64242 0.0
C1777 C 0.20555 0.74438 0.60381 0.0
C1778 C 0.2023 0.75827 0.58258 0.0
C1779 C 0.20751 0.74888 0.56085 0.0
C1780 C 0.20402 0.76168 0.54073 0.0
C1781 C 0.19537 0.78394 0.54213 0.0
C1782 C 0.19008 0.79339 0.56364 0.0
C1783 C 0.19335 0.7806 0.58379 0.0
H1784 H 0.19284 0.79387 0.52655 0.0
H1785 H 0.21204 0.66436 0.71957 0.0
H1786 H 0.31908 0.15817 0.74625 0.0
H1787 H 0.28066 0.15307 0.72888 0.0
H1788 H 0.28803 0.07971 0.73215 0.0
H1789 H 0.32653 0.08458 0.75036 0.0
H1790 H 0.26806 0.11134 0.68563 0.0
H1791 H 0.25603 0.08323 0.76301 0.0
H1792 H 0.26243 0.08355 0.80513 0.0
H1793 H 0.23358 0.15102 0.80933 0.0
H1794 H 0.22788 0.15151 0.76707 0.0
H1795 H 0.15598 0.14478 0.64969 0.0
H1796 H 0.18061 0.11643 0.66947 0.0
H1797 H 0.20223 0.16838 0.71836 0.0
H1798 H 0.17758 0.19613 0.69903 0.0
H1799 H 0.20261 0.12787 0.73875 0.0
H1800 H 0.22987 0.16057 0.66378 0.0
H1801 H 0.22544 0.16504 0.62156 0.0
H1802 H 0.22566 0.09191 0.6133 0.0
H1803 H 0.22982 0.08707 0.65551 0.0
C1804 C 0.3128 0.14092 0.74296 0.0
C1805 C 0.32583 0.12179 0.74977 0.0
C1806 C 0.2908 0.13805 0.73312 0.0
C1807 C 0.28153 0.11605 0.72953 0.0
C1808 C 0.29492 0.09681 0.73501 0.0
C1809 C 0.31686 0.09966 0.74534 0.0
C1810 C 0.25732 0.11392 0.72111 0.0
C1811 C 0.25349 0.11403 0.6972 0.0
C1812 C 0.2385 0.11766 0.7363 0.0
C1813 C 0.24179 0.11749 0.76178 0.0
C1814 C 0.2514 0.0983 0.77284 0.0
C1815 C 0.2549 0.09834 0.79675 0.0
C1816 C 0.24857 0.11738 0.80987 0.0
C1817 C 0.23864 0.13636 0.7991 0.0
C1818 C 0.2353 0.1365 0.77516 0.0
C1819 C 0.16526 0.14968 0.66528 0.0
C1820 C 0.16508 0.17247 0.67296 0.0
C1821 C 0.1794 0.13359 0.67646 0.0
C1822 C 0.19359 0.14038 0.69517 0.0
C1823 C 0.19147 0.16265 0.70403 0.0
C1824 C 0.17744 0.17856 0.69295 0.0
C1825 C 0.21356 0.12646 0.70323 0.0
C1826 C 0.21674 0.12366 0.72713 0.0
C1827 C 0.23187 0.12051 0.68804 0.0
C1828 C 0.22993 0.12346 0.66272 0.0
C1829 C 0.22895 0.14547 0.65292 0.0
C1830 C 0.22645 0.14807 0.62902 0.0
C1831 C 0.22522 0.12877 0.61476 0.0
C1832 C 0.22657 0.10684 0.62436 0.0
C1833 C 0.22898 0.10416 0.64826 0.0
H1834 H 0.22326 0.1308 0.59626 0.0
H1835 H 0.25127 0.11737 0.82838 0.0
H1836 H 0.7268 0.20252 0.59153 0.0
H1837 H 0.74406 0.2401 0.58358 0.0
H1838 H 0.77544 0.24063 0.65138 0.0
H1839 H 0.75876 0.20302 0.65929 0.0
H1840 H 0.73927 0.27964 0.59941 0.0
H1841 H 0.82438 0.26817 0.65445 0.0
H1842 H 0.85281 0.23777 0.66276 0.0
H1843 H 0.83335 0.20307 0.60012 0.0
H1844 H 0.80506 0.23344 0.59126 0.0
H1845 H 0.77913 0.38114 0.64884 0.0
H1846 H 0.76357 0.34565 0.63281 0.0
H1847 H 0.83011 0.3321 0.601 0.0
H1848 H 0.84614 0.36677 0.619 0.0
H1849 H 0.82061 0.29797 0.62227 0.0
H1850 H 0.77477 0.338 0.56936 0.0
H1851 H 0.74864 0.36754 0.55374 0.0
H1852 H 0.69386 0.3443 0.59855 0.0
H1853 H 0.71973 0.31482 0.61471 0.0
C1854 C 0.73766 0.21048 0.60465 0.0
C1855 C 0.74158 0.19957 0.62598 0.0
C1856 C 0.74745 0.23203 0.60008 0.0
C1857 C 0.76155 0.24301 0.6166 0.0
C1858 C 0.76527 0.23224 0.63799 0.0
C1859 C 0.75556 0.21073 0.64257 0.0
C1860 C 0.77171 0.26609 0.61205 0.0
C1861 C 0.75712 0.28368 0.60417 0.0
C1862 C 0.79532 0.27122 0.61708 0.0
C1863 C 0.81246 0.25299 0.6223 0.0
C1864 C 0.82625 0.25411 0.6424 0.0
C1865 C 0.84232 0.23688 0.64722 0.0
C1866 C 0.84483 0.21847 0.63202 0.0
C1867 C 0.83132 0.21728 0.61193 0.0
C1868 C 0.81524 0.23448 0.60702 0.0
C1869 C 0.79009 0.37103 0.63762 0.0
C1870 C 0.81372 0.37661 0.63498 0.0
C1871 C 0.78118 0.35068 0.62833 0.0
C1872 C 0.79557 0.33597 0.61555 0.0
C1873 C 0.81864 0.34293 0.61096 0.0
C1874 C 0.82777 0.36286 0.62098 0.0
C1875 C 0.78785 0.31198 0.61071 0.0
C1876 C 0.8029 0.29409 0.61688 0.0
C1877 C 0.76503 0.30651 0.60294 0.0
C1878 C 0.74927 0.32421 0.59332 0.0
C1879 C 0.7572 0.33927 0.576 0.0
C1880 C 0.74242 0.356 0.56703 0.0
C1881 C 0.71962 0.35781 0.57516 0.0
C1882 C 0.71153 0.34286 0.59226 0.0
C1883 C 0.72624 0.3261 0.6013 0.0
H1884 H 0.7082 0.37078 0.56819 0.0
H1885 H 0.85728 0.20514 0.63579 0.0
H1886 H 0.80421 0.82674 0.63822 0.0
H1887 H 0.77969 0.85047 0.66231 0.0
H1888 H 0.83214 0.85104 0.7157 0.0
H1889 H 0.85692 0.82652 0.69164 0.0
H1890 H 0.79043 0.83515 0.73078 0.0
H1891 H 0.81549 0.90201 0.69257 0.0
H1892 H 0.82763 0.92602 0.65965 0.0
H1893 H 0.75936 0.91945 0.62975 0.0
H1894 H 0.74686 0.89518 0.66229 0.0
H1895 H 0.68192 0.90603 0.76382 0.0
H1896 H 0.72248 0.90454 0.7516 0.0
H1897 H 0.7098 0.83909 0.71932 0.0
H1898 H 0.66925 0.83986 0.73211 0.0
H1899 H 0.74037 0.89895 0.70434 0.0
H1900 H 0.75784 0.80626 0.73734 0.0
H1901 H 0.74586 0.78129 0.76964 0.0
H1902 H 0.73035 0.84038 0.8108 0.0
H1903 H 0.74276 0.86573 0.77899 0.0
C1904 C 0.8109 0.83253 0.65476 0.0
C1905 C 0.83234 0.82469 0.66317 0.0
C1906 C 0.79697 0.84634 0.66839 0.0
C1907 C 0.8042 0.85283 0.69059 0.0
C1908 C 0.82636 0.84638 0.69849 0.0
C1909 C 0.8405 0.83251 0.68472 0.0
C1910 C 0.78665 0.8627 0.70629 0.0
C1911 C 0.7798 0.84948 0.7254 0.0
C1912 C 0.77302 0.88164 0.69944 0.0
C1913 C 0.78022 0.89675 0.67999 0.0
C1914 C 0.80306 0.90563 0.67896 0.0
C1915 C 0.81002 0.9193 0.66035 0.0
C1916 C 0.79427 0.92428 0.64263 0.0
C1917 C 0.77152 0.91566 0.64353 0.0
C1918 C 0.76446 0.90201 0.66212 0.0
C1919 C 0.68754 0.89143 0.75379 0.0
C1920 C 0.67224 0.873 0.74897 0.0
C1921 C 0.71075 0.89072 0.74678 0.0
C1922 C 0.719 0.87177 0.73464 0.0
C1923 C 0.70367 0.85379 0.72892 0.0
C1924 C 0.68047 0.85437 0.73604 0.0
C1925 C 0.74365 0.87055 0.72775 0.0
C1926 C 0.75159 0.88532 0.71034 0.0
C1927 C 0.75833 0.85313 0.73625 0.0
C1928 C 0.7511 0.83794 0.75564 0.0
C1929 C 0.75203 0.81396 0.75332 0.0
C1930 C 0.74515 0.79973 0.77156 0.0
C1931 C 0.7373 0.80925 0.79224 0.0
C1932 C 0.73638 0.83303 0.79475 0.0
C1933 C 0.74332 0.84734 0.7766 0.0
H1934 H 0.73198 0.7982 0.80632 0.0
H1935 H 0.79971 0.93481 0.6282 0.0
H1936 H 0.35958 0.20307 0.3775 0.0
H1937 H 0.37361 0.21982 0.34123 0.0
H1938 H 0.36749 0.15386 0.30808 0.0
H1939 H 0.35343 0.1371 0.3441 0.0
H1940 H 0.4037 0.1814 0.28935 0.0
H1941 H 0.32135 0.18473 0.30916 0.0
H1942 H 0.28916 0.19472 0.33533 0.0
H1943 H 0.30956 0.26562 0.33245 0.0
H1944 H 0.34216 0.25594 0.30653 0.0
H1945 H 0.33454 0.22903 0.18347 0.0
H1946 H 0.33685 0.21235 0.22213 0.0
H1947 H 0.40608 0.24051 0.23063 0.0
H1948 H 0.40423 0.25674 0.19193 0.0
H1949 H 0.34103 0.23338 0.26275 0.0
H1950 H 0.43734 0.20652 0.26648 0.0
H1951 H 0.46841 0.1948 0.23963 0.0
H1952 H 0.41711 0.16699 0.1931 0.0
H1953 H 0.38578 0.17829 0.21975 0.0
C1954 C 0.36222 0.19196 0.36276 0.0
C1955 C 0.35512 0.16888 0.36347 0.0
C1956 C 0.37015 0.20156 0.34203 0.0
C1957 C 0.37118 0.18812 0.32192 0.0
C1958 C 0.36678 0.16452 0.32338 0.0
C1959 C 0.35865 0.15499 0.34396 0.0
C1960 C 0.3723 0.19898 0.29883 0.0
C1961 C 0.39021 0.193 0.28358 0.0
C1962 C 0.35433 0.21364 0.29116 0.0
C1963 C 0.33432 0.21959 0.30613 0.0
C1964 C 0.31904 0.20243 0.3142 0.0
C1965 C 0.30072 0.20803 0.32899 0.0
C1966 C 0.29735 0.23079 0.3356 0.0
C1967 C 0.31223 0.24799 0.32734 0.0
C1968 C 0.33062 0.24247 0.3126 0.0
C1969 C 0.3504 0.23138 0.19339 0.0
C1970 C 0.3692 0.24419 0.18448 0.0
C1971 C 0.35163 0.22197 0.21557 0.0
C1972 C 0.37166 0.22511 0.22925 0.0
C1973 C 0.39057 0.23759 0.22029 0.0
C1974 C 0.38942 0.2469 0.19811 0.0
C1975 C 0.37248 0.21586 0.25311 0.0
C1976 C 0.35481 0.2221 0.26853 0.0
C1977 C 0.39047 0.20117 0.26074 0.0
C1978 C 0.40922 0.19346 0.24502 0.0
C1979 C 0.43271 0.19777 0.25059 0.0
C1980 C 0.45036 0.19124 0.23539 0.0
C1981 C 0.44471 0.18027 0.21464 0.0
C1982 C 0.42144 0.17559 0.20913 0.0
C1983 C 0.40374 0.18207 0.22427 0.0
H1984 H 0.45834 0.17539 0.20281 0.0
H1985 H 0.28319 0.23509 0.34709 0.0
H1986 H 0.87268 0.22931 0.31396 0.0
H1987 H 0.86433 0.25491 0.28163 0.0
H1988 H 0.93448 0.24667 0.25656 0.0
H1989 H 0.94311 0.22131 0.28894 0.0
H1990 H 0.92142 0.2902 0.25338 0.0
H1991 H 0.88987 0.2173 0.23243 0.0
H1992 H 0.86635 0.182 0.23657 0.0
H1993 H 0.80375 0.22171 0.23826 0.0
H1994 H 0.82692 0.25732 0.23472 0.0
H1995 H 0.84855 0.31849 0.1405 0.0
H1996 H 0.87187 0.29277 0.16449 0.0
H1997 H 0.86775 0.34052 0.22118 0.0
H1998 H 0.8445 0.36622 0.19741 0.0
H1999 H 0.85348 0.27344 0.20275 0.0
H2000 H 0.91411 0.33375 0.25674 0.0
H2001 H 0.93896 0.36789 0.25073 0.0
H2002 H 0.94608 0.35074 0.17899 0.0
H2003 H 0.92141 0.31642 0.18458 0.0
C2004 C 0.8864 0.23308 0.3017 0.0
C2005 C 0.90848 0.22306 0.30391 0.0
C2006 C 0.88155 0.24759 0.28314 0.0
C2007 C 0.89865 0.25229 0.26646 0.0
C2008 C 0.92097 0.24308 0.26913 0.0
C2009 C 0.92583 0.22853 0.28763 0.0
C2010 C 0.89316 0.2667 0.24616 0.0
C2011 C 0.90661 0.28652 0.24226 0.0
C2012 C 0.87423 0.26148 0.23125 0.0
C2013 C 0.86021 0.24005 0.23356 0.0
C2014 C 0.87111 0.21855 0.23395 0.0
C2015 C 0.85783 0.19847 0.23617 0.0
C2016 C 0.83359 0.19962 0.23778 0.0
C2017 C 0.82255 0.22085 0.23711 0.0
C2018 C 0.83576 0.241 0.23501 0.0
C2019 C 0.85324 0.32383 0.15784 0.0
C2020 C 0.8445 0.34424 0.16719 0.0
C2021 C 0.86648 0.30907 0.17153 0.0
C2022 C 0.8715 0.31473 0.1946 0.0
C2023 C 0.86428 0.33591 0.20336 0.0
C2024 C 0.85087 0.35053 0.1898 0.0
C2025 C 0.88117 0.29739 0.21054 0.0
C2026 C 0.86846 0.27699 0.21369 0.0
C2027 C 0.90088 0.30194 0.22457 0.0
C2028 C 0.91573 0.32259 0.22106 0.0
C2029 C 0.921 0.33723 0.23969 0.0
C2030 C 0.93503 0.35664 0.23634 0.0
C2031 C 0.94405 0.36151 0.21448 0.0
C2032 C 0.93902 0.347 0.1959 0.0
C2033 C 0.92495 0.3276 0.19913 0.0
H2034 H 0.95497 0.3765 0.21195 0.0
H2035 H 0.82336 0.18406 0.23953 0.0
H2036 H 0.66864 0.74148 0.20859 0.0
H2037 H 0.66431 0.75708 0.2474 0.0
H2038 H 0.59371 0.77676 0.23123 0.0
H2039 H 0.59758 0.7597 0.19281 0.0
H2040 H 0.6595 0.79594 0.26259 0.0
H2041 H 0.56054 0.78098 0.27901 0.0
H2042 H 0.52974 0.75305 0.2686 0.0
H2043 H 0.5813 0.70113 0.25862 0.0
H2044 H 0.61237 0.72865 0.26923 0.0
H2045 H 0.63507 0.8642 0.3534 0.0
H2046 H 0.6232 0.84525 0.31763 0.0
H2047 H 0.62272 0.78001 0.35251 0.0
H2048 H 0.63412 0.79898 0.38861 0.0
H2049 H 0.59154 0.7817 0.31363 0.0
H2050 H 0.67122 0.79455 0.3333 0.0
H2051 H 0.70556 0.81663 0.34644 0.0
H2052 H 0.69843 0.86216 0.28861 0.0
H2053 H 0.66397 0.8403 0.27514 0.0
C2054 C 0.6522 0.74915 0.21334 0.0
C2055 C 0.63347 0.74947 0.19771 0.0
C2056 C 0.6497 0.75805 0.23555 0.0
C2057 C 0.62859 0.76794 0.24248 0.0
C2058 C 0.60998 0.7687 0.22664 0.0
C2059 C 0.61227 0.75918 0.20459 0.0
C2060 C 0.62656 0.77817 0.26595 0.0
C2061 C 0.64458 0.79272 0.27362 0.0
C2062 C 0.60737 0.77373 0.28077 0.0
C2063 C 0.58879 0.75696 0.27468 0.0
C2064 C 0.56529 0.76358 0.27468 0.0
C2065 C 0.54779 0.74783 0.26872 0.0
C2066 C 0.55357 0.72536 0.26287 0.0
C2067 C 0.57686 0.71856 0.26306 0.0
C2068 C 0.59442 0.73424 0.26902 0.0
C2069 C 0.63124 0.84598 0.35374 0.0
C2070 C 0.63574 0.83299 0.37367 0.0
C2071 C 0.62456 0.83517 0.33327 0.0
C2072 C 0.62269 0.81121 0.33235 0.0
C2073 C 0.62413 0.79853 0.3529 0.0
C2074 C 0.63057 0.80941 0.37354 0.0
C2075 C 0.62425 0.79952 0.30971 0.0
C2076 C 0.60628 0.78481 0.30234 0.0
C2077 C 0.644 0.80287 0.29548 0.0
C2078 C 0.66477 0.81604 0.30344 0.0
C2079 C 0.67683 0.8094 0.32351 0.0
C2080 C 0.69638 0.82181 0.33096 0.0
C2081 C 0.70416 0.84079 0.31837 0.0
C2082 C 0.69238 0.84744 0.29833 0.0
C2083 C 0.67286 0.83503 0.29076 0.0
H2084 H 0.71941 0.85026 0.32406 0.0
H2085 H 0.54 0.7132 0.25824 0.0
H2086 H 0.15152 0.6815 0.12936 0.0
H2087 H 0.12947 0.70987 0.15119 0.0
H2088 H 0.12925 0.66507 0.21045 0.0
H2089 H 0.15117 0.6367 0.18879 0.0
H2090 H 0.09073 0.69317 0.2096 0.0
H2091 H 0.17517 0.69763 0.20154 0.0
H2092 H 0.21113 0.70013 0.17839 0.0
H2093 H 0.18841 0.76386 0.14932 0.0
H2094 H 0.15202 0.76144 0.17193 0.0
H2095 H 0.13873 0.77141 0.30313 0.0
H2096 H 0.14494 0.74874 0.26828 0.0
H2097 H 0.07851 0.77042 0.24142 0.0
H2098 H 0.07192 0.79291 0.2763 0.0
H2099 H 0.14666 0.75759 0.22135 0.0
H2100 H 0.05265 0.72507 0.21843 0.0
H2101 H 0.01936 0.72112 0.24503 0.0
H2102 H 0.06627 0.70995 0.30177 0.0
H2103 H 0.09983 0.71377 0.27546 0.0
C2104 C 0.14582 0.67725 0.14667 0.0
C2105 C 0.15348 0.65717 0.15763 0.0
C2106 C 0.1333 0.69352 0.15914 0.0
C2107 C 0.1283 0.68974 0.18256 0.0
C2108 C 0.13311 0.66836 0.19243 0.0
C2109 C 0.14573 0.6522 0.18008 0.0
C2110 C 0.12264 0.70904 0.198 0.0
C2111 C 0.10267 0.70752 0.21181 0.0
C2112 C 0.13863 0.72743 0.20132 0.0
C2113 C 0.16075 0.7292 0.18818 0.0
C2114 C 0.17777 0.71209 0.19009 0.0
C2115 C 0.19822 0.71349 0.17706 0.0
C2116 C 0.20202 0.73211 0.16233 0.0
C2117 C 0.1854 0.74941 0.16068 0.0
C2118 C 0.16485 0.74802 0.17357 0.0
C2119 C 0.12547 0.77149 0.28979 0.0
C2120 C 0.10467 0.78372 0.29269 0.0
C2121 C 0.12916 0.75869 0.26978 0.0
C2122 C 0.11212 0.75783 0.25238 0.0
C2123 C 0.09179 0.77076 0.25476 0.0
C2124 C 0.08805 0.78354 0.27476 0.0
C2125 C 0.11473 0.74171 0.23286 0.0
C2126 C 0.13426 0.74373 0.2185 0.0
C2127 C 0.09872 0.72347 0.22941 0.0
C2128 C 0.07866 0.71983 0.24503 0.0
C2129 C 0.05581 0.72157 0.23654 0.0
C2130 C 0.03691 0.7194 0.25158 0.0
C2131 C 0.04071 0.71529 0.27508 0.0
C2132 C 0.06338 0.71316 0.28357 0.0
C2133 C 0.08233 0.71534 0.26862 0.0
H2134 H 0.02615 0.71376 0.28675 0.0
H2135 H 0.21786 0.73315 0.15225 0.0
H2136 H 0.36777 0.72552 0.80286 0.0
H2137 H 0.36294 0.75284 0.77147 0.0
H2138 H 0.43757 0.75731 0.7633 0.0
H2139 H 0.44252 0.72945 0.7945 0.0
H2140 H 0.37663 0.79558 0.77025 0.0
H2141 H 0.4482 0.7723 0.7054 0.0
H2142 H 0.47106 0.73874 0.69331 0.0
H2143 H 0.41523 0.69388 0.71401 0.0
H2144 H 0.39196 0.72716 0.72594 0.0
H2145 H 0.35971 0.87759 0.68517 0.0
H2146 H 0.3835 0.85436 0.71122 0.0
H2147 H 0.36498 0.79382 0.67215 0.0
H2148 H 0.34233 0.81722 0.64548 0.0
H2149 H 0.40489 0.78681 0.68989 0.0
H2150 H 0.33124 0.81391 0.72213 0.0
H2151 H 0.30215 0.84098 0.73718 0.0
H2152 H 0.354 0.87131 0.78152 0.0
H2153 H 0.38331 0.84426 0.76686 0.0
C2154 C 0.38318 0.73221 0.79437 0.0
C2155 C 0.40554 0.72535 0.80121 0.0
C2156 C 0.3804 0.74784 0.77641 0.0
C2157 C 0.3999 0.75708 0.76502 0.0
C2158 C 0.42228 0.75017 0.77165 0.0
C2159 C 0.42507 0.73432 0.78953 0.0
C2160 C 0.3964 0.77469 0.74696 0.0
C2161 C 0.38302 0.79377 0.75271 0.0
C2162 C 0.40479 0.77233 0.72414 0.0
C2163 C 0.4185 0.7522 0.71683 0.0
C2164 C 0.44081 0.75527 0.70732 0.0
C2165 C 0.45383 0.7363 0.7005 0.0
C2166 C 0.44464 0.71419 0.70298 0.0
C2167 C 0.42237 0.711 0.7122 0.0
C2168 C 0.40928 0.72991 0.71902 0.0
C2169 C 0.36142 0.85943 0.6818 0.0
C2170 C 0.34904 0.84907 0.66358 0.0
C2171 C 0.37484 0.84614 0.69675 0.0
C2172 C 0.37537 0.8222 0.69416 0.0
C2173 C 0.36476 0.81221 0.67465 0.0
C2174 C 0.35183 0.82559 0.65935 0.0
C2175 C 0.38422 0.80728 0.71299 0.0
C2176 C 0.39889 0.78888 0.70751 0.0
C2177 C 0.37641 0.80976 0.73605 0.0
C2178 C 0.35946 0.82732 0.74322 0.0
C2179 C 0.33646 0.82656 0.73487 0.0
C2180 C 0.31991 0.84176 0.74347 0.0
C2181 C 0.32622 0.85779 0.76036 0.0
C2182 C 0.34914 0.85886 0.76848 0.0
C2183 C 0.3657 0.84359 0.76007 0.0
H2184 H 0.31334 0.86939 0.7672 0.0
H2185 H 0.45475 0.69953 0.6977 0.0
H2186 H 0.12634 0.30253 0.88137 0.0
H2187 H 0.11123 0.28842 0.84436 0.0
H2188 H 0.11604 0.35666 0.81613 0.0
H2189 H 0.13105 0.37075 0.85295 0.0
H2190 H 0.08242 0.32895 0.79287 0.0
H2191 H 0.164 0.32837 0.81709 0.0
H2192 H 0.19575 0.31854 0.84407 0.0
H2193 H 0.17832 0.24713 0.83761 0.0
H2194 H 0.14626 0.2566 0.8108 0.0
H2195 H 0.16098 0.2856 0.69104 0.0
H2196 H 0.1545 0.30375 0.72845 0.0
H2197 H 0.08638 0.27221 0.73224 0.0
H2198 H 0.09246 0.25431 0.69471 0.0
H2199 H 0.14913 0.28135 0.76802 0.0
H2200 H 0.05148 0.3044 0.76599 0.0
H2201 H 0.02212 0.31652 0.73729 0.0
H2202 H 0.07578 0.34823 0.69652 0.0
H2203 H 0.1054 0.33654 0.72506 0.0
C2204 C 0.12274 0.31473 0.86774 0.0
C2205 C 0.13007 0.33763 0.86982 0.0
C2206 C 0.11426 0.30664 0.84653 0.0
C2207 C 0.11309 0.32143 0.82739 0.0
C2208 C 0.11689 0.34496 0.83063 0.0
C2209 C 0.12546 0.353 0.85171 0.0
C2210 C 0.1139 0.31212 0.80361 0.0
C2211 C 0.09677 0.31825 0.78746 0.0
C2212 C 0.13313 0.29892 0.79636 0.0
C2213 C 0.15261 0.2932 0.81217 0.0
C2214 C 0.16687 0.31059 0.82154 0.0
C2215 C 0.18491 0.30509 0.8368 0.0
C2216 C 0.18899 0.28223 0.84262 0.0
C2217 C 0.17509 0.26483 0.83313 0.0
C2218 C 0.157 0.27025 0.8179 0.0
C2219 C 0.14443 0.28285 0.69958 0.0
C2220 C 0.12735 0.2683 0.6899 0.0
C2221 C 0.14079 0.29318 0.72103 0.0
C2222 C 0.11999 0.28928 0.73318 0.0
C2223 C 0.10248 0.27564 0.7231 0.0
C2224 C 0.10607 0.26533 0.70164 0.0
C2225 C 0.11749 0.29788 0.75715 0.0
C2226 C 0.13448 0.29169 0.77339 0.0
C2227 C 0.09843 0.31142 0.76422 0.0
C2228 C 0.08064 0.31936 0.74752 0.0
C2229 C 0.05697 0.31408 0.75097 0.0
C2230 C 0.04031 0.32084 0.73472 0.0
C2231 C 0.04713 0.33301 0.71506 0.0
C2232 C 0.07057 0.33869 0.7117 0.0
C2233 C 0.08729 0.33198 0.72788 0.0
H2234 H 0.03429 0.33801 0.70241 0.0
H2235 H 0.20295 0.27797 0.8544 0.0
H2236 H 0.6521 0.19445 0.64302 0.0
H2237 H 0.6275 0.21626 0.66929 0.0
H2238 H 0.60618 0.1536 0.70284 0.0
H2239 H 0.63171 0.13186 0.67733 0.0
H2240 H 0.58622 0.22208 0.69074 0.0
H2241 H 0.61879 0.158 0.75918 0.0
H2242 H 0.64873 0.12813 0.76348 0.0
H2243 H 0.69179 0.16243 0.71356 0.0
H2244 H 0.66238 0.19273 0.70936 0.0
H2245 H 0.55631 0.26873 0.80096 0.0
H2246 H 0.56007 0.24314 0.76778 0.0
H2247 H 0.635 0.24652 0.77432 0.0
H2248 H 0.63129 0.27114 0.80809 0.0
H2249 H 0.62345 0.20545 0.76635 0.0
H2250 H 0.60228 0.27769 0.73233 0.0
H2251 H 0.57771 0.31165 0.72623 0.0
H2252 H 0.52071 0.26833 0.70499 0.0
H2253 H 0.54488 0.2341 0.71123 0.0
C2254 C 0.64112 0.18524 0.65514 0.0
C2255 C 0.64391 0.16162 0.65848 0.0
C2256 C 0.6271 0.19772 0.67021 0.0
C2257 C 0.61564 0.18653 0.68847 0.0
C2258 C 0.61525 0.16249 0.6891 0.0
C2259 C 0.6297 0.15009 0.67445 0.0
C2260 C 0.60931 0.19976 0.70933 0.0
C2261 C 0.59408 0.21833 0.70736 0.0
C2262 C 0.62017 0.19527 0.73087 0.0
C2263 C 0.63822 0.1774 0.7337 0.0
C2264 C 0.63469 0.15918 0.74919 0.0
C2265 C 0.65156 0.14219 0.75161 0.0
C2266 C 0.67203 0.14326 0.73863 0.0
C2267 C 0.67584 0.16152 0.72347 0.0
C2268 C 0.6591 0.17863 0.72109 0.0
C2269 C 0.57358 0.26401 0.79528 0.0
C2270 C 0.59354 0.272 0.80707 0.0
C2271 C 0.5757 0.24946 0.77625 0.0
C2272 C 0.59782 0.24315 0.76831 0.0
C2273 C 0.61772 0.25108 0.78015 0.0
C2274 C 0.61561 0.26521 0.79943 0.0
C2275 C 0.60052 0.22809 0.74785 0.0
C2276 C 0.61512 0.20906 0.74991 0.0
C2277 C 0.58982 0.23279 0.72627 0.0
C2278 C 0.57529 0.25334 0.7225 0.0
C2279 C 0.58445 0.27541 0.72653 0.0
C2280 C 0.5706 0.2947 0.72302 0.0
C2281 C 0.54764 0.29215 0.7153 0.0
C2282 C 0.53848 0.27029 0.71101 0.0
C2283 C 0.55225 0.25094 0.71452 0.0
H2284 H 0.53695 0.3071 0.71258 0.0
H2285 H 0.68498 0.12999 0.74041 0.0
H2286 H 0.90881 0.74737 0.69669 0.0
H2287 H 0.91394 0.73091 0.73501 0.0
H2288 H 0.84834 0.69492 0.72813 0.0
H2289 H 0.84288 0.71147 0.68972 0.0
H2290 H 0.85047 0.71876 0.76776 0.0
H2291 H 0.89995 0.66545 0.72778 0.0
H2292 H 0.93219 0.65382 0.70235 0.0
H2293 H 0.98112 0.68963 0.74577 0.0
H2294 H 0.94916 0.70144 0.77151 0.0
H2295 H 0.86879 0.63203 0.85558 0.0
H2296 H 0.88346 0.64594 0.81859 0.0
H2297 H 0.88696 0.71462 0.8459 0.0
H2298 H 0.87236 0.70072 0.88311 0.0
H2299 H 0.91847 0.67506 0.79669 0.0
H2300 H 0.85158 0.74446 0.81119 0.0
H2301 H 0.81929 0.75303 0.83788 0.0
H2302 H 0.80346 0.68124 0.84375 0.0
H2303 H 0.83544 0.6723 0.81686 0.0
C2304 C 0.89555 0.73572 0.70312 0.0
C2305 C 0.8753 0.73088 0.6901 0.0
C2306 C 0.89862 0.72622 0.72505 0.0
C2307 C 0.88153 0.7117 0.73444 0.0
C2308 C 0.86172 0.70616 0.72121 0.0
C2309 C 0.85866 0.71558 0.69921 0.0
C2310 C 0.88342 0.70371 0.7587 0.0
C2311 C 0.86539 0.70925 0.77399 0.0
C2312 C 0.90293 0.69142 0.76698 0.0
C2313 C 0.92215 0.68444 0.75148 0.0
C2314 C 0.91757 0.67093 0.73184 0.0
C2315 C 0.9358 0.66423 0.71744 0.0
C2316 C 0.95868 0.67096 0.72246 0.0
C2317 C 0.96339 0.68439 0.74193 0.0
C2318 C 0.94524 0.69102 0.75648 0.0
C2319 C 0.87382 0.6499 0.85406 0.0
C2320 C 0.86917 0.66538 0.87205 0.0
C2321 C 0.88227 0.65782 0.83292 0.0
C2322 C 0.88587 0.68133 0.82943 0.0
C2323 C 0.88419 0.69639 0.8483 0.0
C2324 C 0.87593 0.68843 0.86958 0.0
C2325 C 0.88564 0.69029 0.80551 0.0
C2326 C 0.90381 0.68489 0.79035 0.0
C2327 C 0.86614 0.70248 0.79717 0.0
C2328 C 0.846 0.70774 0.81221 0.0
C2329 C 0.84109 0.73054 0.81806 0.0
C2330 C 0.82292 0.73545 0.83328 0.0
C2331 C 0.80946 0.71768 0.84262 0.0
C2332 C 0.81398 0.69498 0.83658 0.0
C2333 C 0.83211 0.68999 0.82135 0.0
H2334 H 0.79541 0.72154 0.85436 0.0
H2335 H 0.97276 0.66582 0.71124 0.0
H2336 H 0.18773 0.40006 0.26532 0.0
H2337 H 0.22728 0.40186 0.24999 0.0
H2338 H 0.2148 0.33918 0.21226 0.0
H2339 H 0.17546 0.33686 0.22795 0.0
H2340 H 0.25595 0.33809 0.23407 0.0
H2341 H 0.21479 0.39295 0.18387 0.0
H2342 H 0.19002 0.42709 0.17959 0.0
H2343 H 0.24 0.46724 0.21771 0.0
H2344 H 0.26515 0.43343 0.22191 0.0
H2345 H 0.3139 0.34734 0.12594 0.0
H2346 H 0.2885 0.36875 0.15148 0.0
H2347 H 0.3372 0.35966 0.20757 0.0
H2348 H 0.36267 0.33783 0.18202 0.0
H2349 H 0.28352 0.40241 0.18481 0.0
H2350 H 0.30605 0.33442 0.2502 0.0
H2351 H 0.32843 0.29859 0.25354 0.0
H2352 H 0.31251 0.28215 0.18289 0.0
H2353 H 0.2897 0.31768 0.17931 0.0
C2354 C 0.1933 0.38673 0.25359 0.0
C2355 C 0.17837 0.36829 0.24783 0.0
C2356 C 0.21595 0.38781 0.24488 0.0
C2357 C 0.22397 0.37069 0.22996 0.0
C2358 C 0.209 0.35249 0.2239 0.0
C2359 C 0.18646 0.35127 0.23276 0.0
C2360 C 0.2479 0.37147 0.22047 0.0
C2361 C 0.26212 0.35231 0.22361 0.0
C2362 C 0.2561 0.39013 0.20708 0.0
C2363 C 0.24176 0.41073 0.20324 0.0
C2364 C 0.22053 0.40913 0.19117 0.0
C2365 C 0.20645 0.42842 0.18874 0.0
C2366 C 0.21345 0.44935 0.19832 0.0
C2367 C 0.23467 0.4511 0.21013 0.0
C2368 C 0.24889 0.43191 0.21246 0.0
C2369 C 0.3197 0.35078 0.14345 0.0
C2370 C 0.33981 0.34035 0.15227 0.0
C2371 C 0.30524 0.3632 0.15801 0.0
C2372 C 0.31066 0.36517 0.18157 0.0
C2373 C 0.33261 0.35802 0.18948 0.0
C2374 C 0.34717 0.34557 0.17485 0.0
C2375 C 0.29123 0.36872 0.19788 0.0
C2376 C 0.27776 0.38861 0.19603 0.0
C2377 C 0.28352 0.35057 0.21229 0.0
C2378 C 0.29645 0.32879 0.21444 0.0
C2379 C 0.30725 0.32308 0.23544 0.0
C2380 C 0.31999 0.30284 0.23737 0.0
C2381 C 0.32196 0.28815 0.21842 0.0
C2382 C 0.311 0.29357 0.19755 0.0
C2383 C 0.29814 0.31372 0.19557 0.0
H2384 H 0.33192 0.27256 0.21993 0.0
H2385 H 0.20238 0.46416 0.19666 0.0
H2386 H 0.35124 0.62582 0.86106 0.0
H2387 H 0.31836 0.60949 0.84027 0.0
H2388 H 0.35955 0.60692 0.77805 0.0
H2389 H 0.39255 0.62413 0.79891 0.0
H2390 H 0.32415 0.63236 0.77114 0.0
H2391 H 0.33104 0.55803 0.80199 0.0
H2392 H 0.33685 0.5276 0.8309 0.0
H2393 H 0.27505 0.54847 0.8665 0.0
H2394 H 0.26913 0.57938 0.83818 0.0
H2395 H 0.21446 0.60387 0.7154 0.0
H2396 H 0.254 0.5989 0.73069 0.0
H2397 H 0.23197 0.62519 0.79664 0.0
H2398 H 0.19257 0.63113 0.78114 0.0
H2399 H 0.2597 0.58103 0.79599 0.0
H2400 H 0.25917 0.65981 0.76967 0.0
H2401 H 0.25487 0.69155 0.74193 0.0
H2402 H 0.3059 0.66105 0.6977 0.0
H2403 H 0.31023 0.6289 0.72504 0.0
C2404 C 0.35366 0.62078 0.8432 0.0
C2405 C 0.37431 0.62653 0.83149 0.0
C2406 C 0.33479 0.61131 0.83129 0.0
C2407 C 0.33629 0.6071 0.80746 0.0
C2408 C 0.35792 0.61014 0.79641 0.0
C2409 C 0.37688 0.61975 0.80838 0.0
C2410 C 0.31443 0.6045 0.79378 0.0
C2411 C 0.31038 0.62052 0.7761 0.0
C2412 C 0.2961 0.58957 0.8006 0.0
C2413 C 0.29969 0.57113 0.81793 0.0
C2414 C 0.31879 0.55629 0.8161 0.0
C2415 C 0.3221 0.53893 0.83239 0.0
C2416 C 0.30634 0.53611 0.85053 0.0
C2417 C 0.28722 0.55064 0.85241 0.0
C2418 C 0.28389 0.5681 0.83624 0.0
C2419 C 0.21805 0.60849 0.7332 0.0
C2420 C 0.20051 0.61783 0.74716 0.0
C2421 C 0.24061 0.60574 0.74183 0.0
C2422 C 0.24579 0.61166 0.76475 0.0
C2423 C 0.2282 0.62048 0.77891 0.0
C2424 C 0.20579 0.6239 0.77006 0.0
C2425 C 0.26969 0.60902 0.7739 0.0
C2426 C 0.27389 0.59219 0.79066 0.0
C2427 C 0.28823 0.62308 0.76622 0.0
C2428 C 0.28475 0.64176 0.74922 0.0
C2429 C 0.26919 0.65966 0.75385 0.0
C2430 C 0.26687 0.67781 0.73828 0.0
C2431 C 0.28018 0.67835 0.71811 0.0
C2432 C 0.29565 0.66063 0.71336 0.0
C2433 C 0.29802 0.64243 0.72887 0.0
H2434 H 0.27841 0.69246 0.70611 0.0
H2435 H 0.30893 0.52266 0.86312 0.0
H2436 H 0.20631 0.2723 0.92657 0.0
H2437 H 0.22968 0.23825 0.91916 0.0
H2438 H 0.26881 0.27549 0.86762 0.0
H2439 H 0.24519 0.30934 0.87448 0.0
H2440 H 0.25809 0.23488 0.85209 0.0
H2441 H 0.28999 0.26531 0.92315 0.0
H2442 H 0.28847 0.27826 0.96369 0.0
H2443 H 0.26483 0.21149 0.98477 0.0
H2444 H 0.26588 0.19824 0.94431 0.0
H2445 H 0.37036 0.1783 0.86123 0.0
H2446 H 0.34164 0.20045 0.88275 0.0
H2447 H 0.28722 0.15475 0.85891 0.0
H2448 H 0.31611 0.13219 0.83795 0.0
H2449 H 0.30275 0.19605 0.91414 0.0
H2450 H 0.24907 0.19373 0.82963 0.0
H2451 H 0.25412 0.18445 0.78833 0.0
H2452 H 0.32715 0.20008 0.79341 0.0
H2453 H 0.32234 0.21066 0.83431 0.0
C2454 C 0.21993 0.27324 0.91369 0.0
C2455 C 0.22394 0.29353 0.90113 0.0
C2456 C 0.23329 0.25378 0.90952 0.0
C2457 C 0.25113 0.2544 0.893 0.0
C2458 C 0.25509 0.27461 0.88042 0.0
C2459 C 0.24161 0.29397 0.8844 0.0
C2460 C 0.26572 0.23405 0.88857 0.0
C2461 C 0.26764 0.22627 0.86573 0.0
C2462 C 0.27832 0.2229 0.90634 0.0
C2463 C 0.27778 0.23085 0.93067 0.0
C2464 C 0.28429 0.25344 0.93641 0.0
C2465 C 0.28354 0.26083 0.95938 0.0
C2466 C 0.27651 0.24572 0.97678 0.0
C2467 C 0.27024 0.22318 0.97127 0.0
C2468 C 0.27092 0.21572 0.94832 0.0
C2469 C 0.35244 0.17241 0.8616 0.0
C2470 C 0.34535 0.15379 0.84792 0.0
C2471 C 0.33607 0.18498 0.8739 0.0
C2472 C 0.31234 0.17939 0.87208 0.0
C2473 C 0.3055 0.15928 0.86047 0.0
C2474 C 0.32201 0.14641 0.84855 0.0
C2475 C 0.295 0.19705 0.87776 0.0
C2476 C 0.29266 0.20435 0.9007 0.0
C2477 C 0.28243 0.20823 0.86002 0.0
C2478 C 0.28543 0.2024 0.83523 0.0
C2479 C 0.2662 0.19522 0.82192 0.0
C2480 C 0.269 0.1898 0.79856 0.0
C2481 C 0.29099 0.19132 0.78835 0.0
C2482 C 0.31016 0.19869 0.80138 0.0
C2483 C 0.30739 0.20448 0.82463 0.0
H2484 H 0.29311 0.18699 0.77031 0.0
H2485 H 0.27598 0.25144 0.99455 0.0
H2486 H 0.61119 0.37241 0.80653 0.0
H2487 H 0.64417 0.38975 0.78582 0.0
H2488 H 0.68679 0.38373 0.84693 0.0
H2489 H 0.65416 0.36634 0.86756 0.0
H2490 H 0.6817 0.42538 0.79179 0.0
H2491 H 0.73013 0.34934 0.83107 0.0
H2492 H 0.72049 0.31194 0.84876 0.0
H2493 H 0.65939 0.30642 0.80605 0.0
H2494 H 0.66889 0.34354 0.78789 0.0
H2495 H 0.79794 0.43719 0.75416 0.0
H2496 H 0.76413 0.43105 0.77918 0.0
H2497 H 0.74867 0.36773 0.74341 0.0
H2498 H 0.78351 0.37308 0.71967 0.0
H2499 H 0.7382 0.36174 0.78487 0.0
H2500 H 0.72158 0.42339 0.73148 0.0
H2501 H 0.72889 0.46088 0.71303 0.0
H2502 H 0.72276 0.49428 0.77879 0.0
H2503 H 0.71583 0.45702 0.79765 0.0
C2504 C 0.62725 0.37583 0.81584 0.0
C2505 C 0.63028 0.36776 0.83851 0.0
C2506 C 0.64608 0.38569 0.80398 0.0
C2507 C 0.66796 0.38758 0.81478 0.0
C2508 C 0.67008 0.38221 0.83829 0.0
C2509 C 0.65142 0.37228 0.85004 0.0
C2510 C 0.68932 0.39052 0.80081 0.0
C2511 C 0.69412 0.41156 0.7902 0.0
C2512 C 0.70518 0.37226 0.79843 0.0
C2513 C 0.70014 0.34927 0.80828 0.0
C2514 C 0.71477 0.34002 0.82532 0.0
C2515 C 0.7093 0.3189 0.83546 0.0
C2516 C 0.68931 0.30684 0.82858 0.0
C2517 C 0.67484 0.31578 0.81141 0.0
C2518 C 0.68027 0.33685 0.80119 0.0
C2519 C 0.78752 0.42174 0.75208 0.0
C2520 C 0.79321 0.40555 0.73512 0.0
C2521 C 0.76805 0.41837 0.76614 0.0
C2522 C 0.7533 0.3993 0.76273 0.0
C2523 C 0.75962 0.38266 0.74636 0.0
C2524 C 0.77955 0.38565 0.73283 0.0
C2525 C 0.73104 0.39685 0.7757 0.0
C2526 C 0.72595 0.37573 0.78625 0.0
C2527 C 0.7147 0.41494 0.77747 0.0
C2528 C 0.71836 0.4374 0.76599 0.0
C2529 C 0.72189 0.43874 0.742 0.0
C2530 C 0.726 0.45996 0.73148 0.0
C2531 C 0.7264 0.47997 0.74474 0.0
C2532 C 0.72256 0.4788 0.76853 0.0
C2533 C 0.71851 0.45764 0.77915 0.0
H2534 H 0.72962 0.49638 0.73659 0.0
H2535 H 0.68504 0.29055 0.83652 0.0
H2536 H 0.75021 0.68151 0.88044 0.0
H2537 H 0.72486 0.71292 0.86894 0.0
H2538 H 0.77127 0.76129 0.90236 0.0
H2539 H 0.79599 0.72979 0.91491 0.0
H2540 H 0.73047 0.77275 0.91238 0.0
H2541 H 0.76606 0.75761 0.83911 0.0
H2542 H 0.77948 0.73545 0.80537 0.0
H2543 H 0.70977 0.71098 0.79341 0.0
H2544 H 0.69585 0.73327 0.82678 0.0
H2545 H 0.6734 0.86295 0.84109 0.0
H2546 H 0.70173 0.83825 0.86059 0.0
H2547 H 0.65157 0.78288 0.86083 0.0
H2548 H 0.62314 0.80733 0.8418 0.0
H2549 H 0.69739 0.77892 0.83343 0.0
H2550 H 0.66342 0.7976 0.90825 0.0
H2551 H 0.65237 0.8245 0.93911 0.0
H2552 H 0.72362 0.84659 0.94581 0.0
H2553 H 0.73504 0.82004 0.91474 0.0
C2554 C 0.75502 0.69885 0.88526 0.0
C2555 C 0.77501 0.70318 0.89866 0.0
C2556 C 0.74065 0.71686 0.87849 0.0
C2557 C 0.74633 0.73961 0.88439 0.0
C2558 C 0.76645 0.74393 0.89759 0.0
C2559 C 0.78056 0.7259 0.90478 0.0
C2560 C 0.73065 0.7587 0.87783 0.0
C2561 C 0.72359 0.77427 0.89498 0.0
C2562 C 0.72155 0.76088 0.85518 0.0
C2563 C 0.72998 0.74689 0.83558 0.0
C2564 C 0.75365 0.74735 0.82939 0.0
C2565 C 0.76132 0.73485 0.8103 0.0
C2566 C 0.74554 0.72168 0.79741 0.0
C2567 C 0.722 0.72113 0.80345 0.0
C2568 C 0.71418 0.73379 0.82236 0.0
C2569 C 0.66809 0.84582 0.84615 0.0
C2570 C 0.64617 0.83695 0.83961 0.0
C2571 C 0.68432 0.83174 0.8572 0.0
C2572 C 0.67869 0.80878 0.86188 0.0
C2573 C 0.65617 0.80057 0.85725 0.0
C2574 C 0.63997 0.81457 0.84637 0.0
C2575 C 0.69698 0.79229 0.86805 0.0
C2576 C 0.70456 0.77737 0.85073 0.0
C2577 C 0.70694 0.79115 0.8903 0.0
C2578 C 0.70003 0.80706 0.90897 0.0
C2579 C 0.67669 0.80838 0.91612 0.0
C2580 C 0.67037 0.82352 0.9337 0.0
C2581 C 0.68727 0.83731 0.94436 0.0
C2582 C 0.71054 0.83594 0.93751 0.0
C2583 C 0.71695 0.82084 0.91993 0.0
H2584 H 0.68234 0.849 0.95797 0.0
H2585 H 0.75155 0.71197 0.78269 0.0
H2586 H 0.66526 0.63882 0.12227 0.0
H2587 H 0.69243 0.61071 0.13794 0.0
H2588 H 0.68234 0.63902 0.20614 0.0
H2589 H 0.65395 0.66553 0.19066 0.0
H2590 H 0.73018 0.62437 0.14998 0.0
H2591 H 0.70639 0.6128 0.24874 0.0
H2592 H 0.67293 0.59904 0.27156 0.0
H2593 H 0.64624 0.56276 0.21251 0.0
H2594 H 0.67972 0.57599 0.18936 0.0
H2595 H 0.81808 0.65736 0.2232 0.0
H2596 H 0.7833 0.6488 0.20064 0.0
H2597 H 0.78233 0.57971 0.22715 0.0
H2598 H 0.81706 0.58826 0.25028 0.0
H2599 H 0.74082 0.59627 0.23005 0.0
H2600 H 0.79346 0.5894 0.16945 0.0
H2601 H 0.82667 0.59749 0.14373 0.0
H2602 H 0.79515 0.66059 0.12259 0.0
H2603 H 0.76194 0.65312 0.14846 0.0
C2604 C 0.66775 0.63786 0.14081 0.0
C2605 C 0.65755 0.65412 0.15536 0.0
C2606 C 0.68349 0.62199 0.14977 0.0
C2607 C 0.68991 0.62283 0.17324 0.0
C2608 C 0.6776 0.63748 0.18809 0.0
C2609 C 0.6613 0.6528 0.17923 0.0
C2610 C 0.71261 0.61319 0.181 0.0
C2611 C 0.73235 0.6178 0.16736 0.0
C2612 C 0.71574 0.60361 0.20326 0.0
C2613 C 0.69563 0.59545 0.21726 0.0
C2614 C 0.69352 0.60172 0.24063 0.0
C2615 C 0.6745 0.59406 0.25363 0.0
C2616 C 0.65747 0.58005 0.24349 0.0
C2617 C 0.65943 0.57366 0.22033 0.0
C2618 C 0.67841 0.58127 0.20725 0.0
C2619 C 0.81075 0.64022 0.22403 0.0
C2620 C 0.82038 0.62356 0.23867 0.0
C2621 C 0.79087 0.63528 0.21097 0.0
C2622 C 0.78031 0.6135 0.21195 0.0
C2623 C 0.79019 0.5966 0.22606 0.0
C2624 C 0.81008 0.60156 0.23925 0.0
C2625 C 0.7579 0.60939 0.19966 0.0
C2626 C 0.73841 0.60212 0.21244 0.0
C2627 C 0.75495 0.61572 0.17628 0.0
C2628 C 0.77517 0.62068 0.16098 0.0
C2629 C 0.79368 0.60511 0.15948 0.0
C2630 C 0.81251 0.60957 0.14483 0.0
C2631 C 0.81301 0.62954 0.13152 0.0
C2632 C 0.79472 0.64511 0.13287 0.0
C2633 C 0.77587 0.64075 0.14751 0.0
H2634 H 0.82756 0.63294 0.12014 0.0
H2635 H 0.64275 0.57414 0.25359 0.0
H2636 H 0.28947 0.88305 0.12052 0.0
H2637 H 0.27246 0.84742 0.10528 0.0
H2638 H 0.33364 0.81056 0.12687 0.0
H2639 H 0.35085 0.8459 0.14147 0.0
H2640 H 0.31643 0.79135 0.08936 0.0
H2641 H 0.287 0.81754 0.16273 0.0
H2642 H 0.26803 0.84481 0.18908 0.0
H2643 H 0.20566 0.84185 0.14799 0.0
H2644 H 0.22443 0.81484 0.12116 0.0
H2645 H 0.27446 0.68647 0.14033 0.0
H2646 H 0.28959 0.72546 0.13456 0.0
H2647 H 0.23282 0.73984 0.08801 0.0
H2648 H 0.21789 0.70076 0.09311 0.0
H2649 H 0.24358 0.77161 0.13116 0.0
H2650 H 0.27435 0.73916 0.06096 0.0
H2651 H 0.29509 0.70948 0.03896 0.0
H2652 H 0.35695 0.72204 0.07909 0.0
H2653 H 0.33642 0.75153 0.1016 0.0
C2654 C 0.2996 0.86749 0.12125 0.0
C2655 C 0.32129 0.86717 0.13258 0.0
C2656 C 0.2898 0.84712 0.11269 0.0
C2657 C 0.30154 0.82623 0.11547 0.0
C2658 C 0.32417 0.82639 0.12466 0.0
C2659 C 0.33394 0.84664 0.13313 0.0
C2660 C 0.28951 0.80391 0.11185 0.0
C2661 C 0.30041 0.78713 0.09836 0.0
C2662 C 0.26857 0.79831 0.1236 0.0
C2663 C 0.25723 0.81447 0.13975 0.0
C2664 C 0.26931 0.82286 0.15921 0.0
C2665 C 0.25859 0.83825 0.17424 0.0
C2666 C 0.23568 0.84513 0.17016 0.0
C2667 C 0.22343 0.83657 0.15108 0.0
C2668 C 0.2341 0.82124 0.13594 0.0
C2669 C 0.26538 0.69783 0.12864 0.0
C2670 C 0.24506 0.69052 0.11711 0.0
C2671 C 0.27403 0.72004 0.12536 0.0
C2672 C 0.26228 0.73536 0.11086 0.0
C2673 C 0.24211 0.72814 0.0992 0.0
C2674 C 0.23372 0.7058 0.10207 0.0
C2675 C 0.27062 0.75925 0.10885 0.0
C2676 C 0.25915 0.77616 0.12154 0.0
C2677 C 0.29125 0.76481 0.09681 0.0
C2678 C 0.30378 0.74739 0.08308 0.0
C2679 C 0.29231 0.73544 0.06522 0.0
C2680 C 0.30404 0.71868 0.05264 0.0
C2681 C 0.32732 0.71384 0.05766 0.0
C2682 C 0.33892 0.7258 0.07523 0.0
C2683 C 0.32725 0.74256 0.08789 0.0
H2684 H 0.33637 0.70086 0.04791 0.0
H2685 H 0.22741 0.85703 0.18183 0.0
H2686 H 0.73635 0.31592 0.15579 0.0
H2687 H 0.71996 0.27744 0.15187 0.0
H2688 H 0.7481 0.2724 0.08309 0.0
H2689 H 0.76462 0.31103 0.08675 0.0
H2690 H 0.70361 0.25434 0.08618 0.0
H2691 H 0.77603 0.24633 0.12354 0.0
H2692 H 0.80768 0.25399 0.15143 0.0
H2693 H 0.76286 0.23423 0.20736 0.0
H2694 H 0.73074 0.22698 0.17989 0.0
H2695 H 0.68683 0.13558 0.15293 0.0
H2696 H 0.71025 0.16056 0.12799 0.0
H2697 H 0.65503 0.21029 0.12769 0.0
H2698 H 0.63176 0.18551 0.15255 0.0
H2699 H 0.72378 0.1988 0.14777 0.0
H2700 H 0.66126 0.2485 0.08397 0.0
H2701 H 0.6327 0.23926 0.05346 0.0
H2702 H 0.66157 0.172 0.04658 0.0
H2703 H 0.69066 0.18094 0.0767 0.0
C2704 C 0.73881 0.30684 0.13968 0.0
C2705 C 0.75198 0.31653 0.12168 0.0
C2706 C 0.72958 0.28476 0.13754 0.0
C2707 C 0.73327 0.27195 0.11738 0.0
C2708 C 0.74529 0.28196 0.09886 0.0
C2709 C 0.75469 0.30403 0.10103 0.0
C2710 C 0.72485 0.24797 0.11614 0.0
C2711 C 0.70801 0.24205 0.09952 0.0
C2712 C 0.73166 0.23163 0.13284 0.0
C2713 C 0.75087 0.23624 0.14958 0.0
C2714 C 0.77281 0.24385 0.1418 0.0
C2715 C 0.79086 0.24809 0.15754 0.0
C2716 C 0.78727 0.24464 0.18115 0.0
C2717 C 0.76561 0.23695 0.18907 0.0
C2718 C 0.74747 0.23275 0.1734 0.0
C2719 C 0.67928 0.15133 0.1466 0.0
C2720 C 0.65771 0.15887 0.15496 0.0
C2721 C 0.69269 0.16562 0.13238 0.0
C2722 C 0.6845 0.1874 0.12613 0.0
C2723 C 0.6617 0.19353 0.13209 0.0
C2724 C 0.64844 0.17942 0.14647 0.0
C2725 C 0.70101 0.20572 0.11896 0.0
C2726 C 0.71958 0.21072 0.13403 0.0
C2727 C 0.69596 0.22099 0.10065 0.0
C2728 C 0.67814 0.21538 0.08278 0.0
C2729 C 0.66164 0.23176 0.07591 0.0
C2730 C 0.64533 0.22657 0.05866 0.0
C2731 C 0.64529 0.20504 0.04812 0.0
C2732 C 0.66157 0.18865 0.05481 0.0
C2733 C 0.67795 0.19376 0.07202 0.0
H2734 H 0.63267 0.20107 0.03475 0.0
H2735 H 0.80128 0.2479 0.1933 0.0
loop_
_geom_bond_atom_site_label_1
_geom_bond_atom_site_label_2
_geom_bond_distance
_geom_bond_site_symmetry_2
_ccdc_geom_bond_type
Co0 O1 2.216 . S
Co0 O2 2.091 . S
Co0 O4 2.004 . S
Co0 O10 2.021 . S
Co0 O12 2.137 . S
Co0 O13 2.244 . S
O1 Co0 2.216 . S
O1 C8 1.247 . S
O2 Co0 2.091 . S
O2 C8 1.261 . S
C3 O12 1.247 . S
C3 O13 1.272 . S
O4 Co0 2.004 . S
O4 C9 1.259 . S
Co5 O6 2.061 . S
Co5 O11 2.052 . S
Co5 O13 2.135 . S
O6 Co5 2.061 . S
O6 C9 1.235 . S
C7 O10 1.238 . S
C7 O11 1.241 . S
C8 O1 1.247 . S
C8 O2 1.261 . S
C9 O4 1.259 . S
C9 O6 1.235 . S
O10 Co0 2.021 . S
O10 C7 1.238 . S
O11 Co5 2.052 . S
O11 C7 1.241 . S
O12 Co0 2.137 . S
O12 C3 1.247 . S
O13 Co0 2.244 . S
O13 C3 1.272 . S
O13 Co5 2.135 . S
Co14 O15 2.216 . S
Co14 O16 2.091 . S
Co14 O18 2.004 . S
Co14 O24 2.021 . S
Co14 O26 2.137 . S
Co14 O27 2.244 . S
O15 Co14 2.216 . S
O15 C22 1.247 . S
O16 Co14 2.091 . S
O16 C22 1.261 . S
C17 O26 1.247 . S
C17 O27 1.272 . S
O18 Co14 2.004 . S
O18 C23 1.259 . S
Co19 O20 2.061 . S
Co19 O25 2.052 . S
Co19 O27 2.135 . S
O20 Co19 2.061 . S
O20 C23 1.235 . S
C21 O24 1.238 . S
C21 O25 1.241 . S
C22 O15 1.247 . S
C22 O16 1.261 . S
C23 O18 1.259 . S
C23 O20 1.235 . S
O24 Co14 2.021 . S
O24 C21 1.238 . S
O25 Co19 2.052 . S
O25 C21 1.241 . S
O26 Co14 2.137 . S
O26 C17 1.247 . S
O27 Co14 2.244 . S
O27 C17 1.272 . S
O27 Co19 2.135 . S
Co28 O29 2.216 . S
Co28 O30 2.091 . S
Co28 O32 2.004 . S
Co28 O38 2.021 . S
Co28 O40 2.137 . S
Co28 O41 2.244 . S
O29 Co28 2.216 . S
O29 C36 1.247 . S
O30 Co28 2.091 . S
O30 C36 1.261 . S
C31 O40 1.247 . S
C31 O41 1.272 . S
O32 Co28 2.004 . S
O32 C37 1.259 . S
Co33 O34 2.061 . S
Co33 O39 2.052 . S
Co33 O41 2.135 . S
O34 Co33 2.061 . S
O34 C37 1.235 . S
C35 O38 1.238 . S
C35 O39 1.241 . S
C36 O29 1.247 . S
C36 O30 1.261 . S
C37 O32 1.259 . S
C37 O34 1.235 . S
O38 Co28 2.021 . S
O38 C35 1.238 . S
O39 Co33 2.052 . S
O39 C35 1.241 . S
O40 Co28 2.137 . S
O40 C31 1.247 . S
O41 Co28 2.244 . S
O41 C31 1.272 . S
O41 Co33 2.135 . S
Co42 O43 2.216 . S
Co42 O44 2.091 . S
Co42 O46 2.004 . S
Co42 O52 2.021 . S
Co42 O54 2.137 . S
Co42 O55 2.244 . S
O43 Co42 2.216 . S
O43 C50 1.247 . S
O44 Co42 2.091 . S
O44 C50 1.261 . S
C45 O54 1.247 . S
C45 O55 1.272 . S
O46 Co42 2.004 . S
O46 C51 1.259 . S
Co47 O48 2.061 . S
Co47 O53 2.052 . S
Co47 O55 2.135 . S
O48 Co47 2.061 . S
O48 C51 1.235 . S
C49 O52 1.238 . S
C49 O53 1.241 . S
C50 O43 1.247 . S
C50 O44 1.261 . S
C51 O46 1.259 . S
C51 O48 1.235 . S
O52 Co42 2.021 . S
O52 C49 1.238 . S
O53 Co47 2.052 . S
O53 C49 1.241 . S
O54 Co42 2.137 . S
O54 C45 1.247 . S
O55 Co42 2.244 . S
O55 C45 1.272 . S
O55 Co47 2.135 . S
Co56 O57 2.216 . S
Co56 O58 2.091 . S
Co56 O60 2.004 . S
Co56 O66 2.021 . S
Co56 O68 2.137 . S
Co56 O69 2.244 . S
O57 Co56 2.216 . S
O57 C64 1.247 . S
O58 Co56 2.091 . S
O58 C64 1.261 . S
C59 O68 1.247 . S
C59 O69 1.272 . S
O60 Co56 2.004 . S
O60 C65 1.259 . S
Co61 O62 2.061 . S
Co61 O67 2.052 . S
Co61 O69 2.135 . S
O62 Co61 2.061 . S
O62 C65 1.235 . S
C63 O66 1.238 . S
C63 O67 1.241 . S
C64 O57 1.247 . S
C64 O58 1.261 . S
C65 O60 1.259 . S
C65 O62 1.235 . S
O66 Co56 2.021 . S
O66 C63 1.238 . S
O67 Co61 2.052 . S
O67 C63 1.241 . S
O68 Co56 2.137 . S
O68 C59 1.247 . S
O69 Co56 2.244 . S
O69 C59 1.272 . S
O69 Co61 2.135 . S
Co70 O71 2.216 . S
Co70 O72 2.091 . S
Co70 O74 2.004 . S
Co70 O80 2.021 . S
Co70 O82 2.137 . S
Co70 O83 2.244 . S
O71 Co70 2.216 . S
O71 C78 1.247 . S
O72 Co70 2.091 . S
O72 C78 1.261 . S
C73 O82 1.247 . S
C73 O83 1.272 . S
O74 Co70 2.004 . S
O74 C79 1.259 . S
Co75 O76 2.061 . S
Co75 O81 2.052 . S
Co75 O83 2.135 . S
O76 Co75 2.061 . S
O76 C79 1.235 . S
C77 O80 1.238 . S
C77 O81 1.241 . S
C78 O71 1.247 . S
C78 O72 1.261 . S
C79 O74 1.259 . S
C79 O76 1.235 . S
O80 Co70 2.021 . S
O80 C77 1.238 . S
O81 Co75 2.052 . S
O81 C77 1.241 . S
O82 Co70 2.137 . S
O82 C73 1.247 . S
O83 Co70 2.244 . S
O83 C73 1.272 . S
O83 Co75 2.135 . S
Co84 O85 2.216 . S
Co84 O86 2.091 . S
Co84 O88 2.004 . S
Co84 O94 2.021 . S
Co84 O96 2.137 . S
Co84 O97 2.244 . S
O85 Co84 2.216 . S
O85 C92 1.247 . S
O86 Co84 2.091 . S
O86 C92 1.261 . S
C87 O96 1.247 . S
C87 O97 1.272 . S
O88 Co84 2.004 . S
O88 C93 1.259 . S
Co89 O90 2.061 . S
Co89 O95 2.052 . S
Co89 O97 2.135 . S
O90 Co89 2.061 . S
O90 C93 1.235 . S
C91 O94 1.238 . S
C91 O95 1.241 . S
C92 O85 1.247 . S
C92 O86 1.261 . S
C93 O88 1.259 . S
C93 O90 1.235 . S
O94 Co84 2.021 . S
O94 C91 1.238 . S
O95 Co89 2.052 . S
O95 C91 1.241 . S
O96 Co84 2.137 . S
O96 C87 1.247 . S
O97 Co84 2.244 . S
O97 C87 1.272 . S
O97 Co89 2.135 . S
Co98 O99 2.216 . S
Co98 O100 2.091 . S
Co98 O102 2.004 . S
Co98 O108 2.021 . S
Co98 O110 2.137 . S
Co98 O111 2.244 . S
O99 Co98 2.216 . S
O99 C106 1.247 . S
O100 Co98 2.091 . S
O100 C106 1.261 . S
C101 O110 1.247 . S
C101 O111 1.272 . S
O102 Co98 2.004 . S
O102 C107 1.259 . S
Co103 O104 2.061 . S
Co103 O109 2.052 . S
Co103 O111 2.135 . S
O104 Co103 2.061 . S
O104 C107 1.235 . S
C105 O108 1.238 . S
C105 O109 1.241 . S
C106 O99 1.247 . S
C106 O100 1.261 . S
C107 O102 1.259 . S
C107 O104 1.235 . S
O108 Co98 2.021 . S
O108 C105 1.238 . S
O109 Co103 2.052 . S
O109 C105 1.241 . S
O110 Co98 2.137 . S
O110 C101 1.247 . S
O111 Co98 2.244 . S
O111 C101 1.272 . S
O111 Co103 2.135 . S
Co112 O113 2.216 . S
Co112 O114 2.091 . S
Co112 O116 2.004 . S
Co112 O122 2.021 . S
Co112 O124 2.137 . S
Co112 O125 2.244 . S
O113 Co112 2.216 . S
O113 C120 1.247 . S
O114 Co112 2.091 . S
O114 C120 1.261 . S
C115 O124 1.247 . S
C115 O125 1.272 . S
O116 Co112 2.004 . S
O116 C121 1.259 . S
Co117 O118 2.061 . S
Co117 O123 2.052 . S
Co117 O125 2.135 . S
O118 Co117 2.061 . S
O118 C121 1.235 . S
C119 O122 1.238 . S
C119 O123 1.241 . S
C120 O113 1.247 . S
C120 O114 1.261 . S
C121 O116 1.259 . S
C121 O118 1.235 . S
O122 Co112 2.021 . S
O122 C119 1.238 . S
O123 Co117 2.052 . S
O123 C119 1.241 . S
O124 Co112 2.137 . S
O124 C115 1.247 . S
O125 Co112 2.244 . S
O125 C115 1.272 . S
O125 Co117 2.135 . S
Co126 O127 2.216 . S
Co126 O128 2.091 . S
Co126 O130 2.004 . S
Co126 O136 2.021 . S
Co126 O138 2.137 . S
Co126 O139 2.244 . S
O127 Co126 2.216 . S
O127 C134 1.247 . S
O128 Co126 2.091 . S
O128 C134 1.261 . S
C129 O138 1.247 . S
C129 O139 1.272 . S
O130 Co126 2.004 . S
O130 C135 1.259 . S
Co131 O132 2.061 . S
Co131 O137 2.052 . S
Co131 O139 2.135 . S
O132 Co131 2.061 . S
O132 C135 1.235 . S
C133 O136 1.238 . S
C133 O137 1.241 . S
C134 O127 1.247 . S
C134 O128 1.261 . S
C135 O130 1.259 . S
C135 O132 1.235 . S
O136 Co126 2.021 . S
O136 C133 1.238 . S
O137 Co131 2.052 . S
O137 C133 1.241 . S
O138 Co126 2.137 . S
O138 C129 1.247 . S
O139 Co126 2.244 . S
O139 C129 1.272 . S
O139 Co131 2.135 . S
Co140 O141 2.216 . S
Co140 O142 2.091 . S
Co140 O144 2.004 . S
Co140 O150 2.021 . S
Co140 O152 2.137 . S
Co140 O153 2.244 . S
O141 Co140 2.216 . S
O141 C148 1.247 . S
O142 Co140 2.091 . S
O142 C148 1.261 . S
C143 O152 1.247 . S
C143 O153 1.272 . S
O144 Co140 2.004 . S
O144 C149 1.259 . S
Co145 O146 2.061 . S
Co145 O151 2.052 . S
Co145 O153 2.135 . S
O146 Co145 2.061 . S
O146 C149 1.235 . S
C147 O150 1.238 . S
C147 O151 1.241 . S
C148 O141 1.247 . S
C148 O142 1.261 . S
C149 O144 1.259 . S
C149 O146 1.235 . S
O150 Co140 2.021 . S
O150 C147 1.238 . S
O151 Co145 2.052 . S
O151 C147 1.241 . S
O152 Co140 2.137 . S
O152 C143 1.247 . S
O153 Co140 2.244 . S
O153 C143 1.272 . S
O153 Co145 2.135 . S
Co154 O155 2.216 . S
Co154 O156 2.091 . S
Co154 O158 2.004 . S
Co154 O164 2.021 . S
Co154 O166 2.137 . S
Co154 O167 2.244 . S
O155 Co154 2.216 . S
O155 C162 1.247 . S
O156 Co154 2.091 . S
O156 C162 1.261 . S
C157 O166 1.247 . S
C157 O167 1.272 . S
O158 Co154 2.004 . S
O158 C163 1.259 . S
Co159 O160 2.061 . S
Co159 O165 2.052 . S
Co159 O167 2.135 . S
O160 Co159 2.061 . S
O160 C163 1.235 . S
C161 O164 1.238 . S
C161 O165 1.241 . S
C162 O155 1.247 . S
C162 O156 1.261 . S
C163 O158 1.259 . S
C163 O160 1.235 . S
O164 Co154 2.021 . S
O164 C161 1.238 . S
O165 Co159 2.052 . S
O165 C161 1.241 . S
O166 Co154 2.137 . S
O166 C157 1.247 . S
O167 Co154 2.244 . S
O167 C157 1.272 . S
O167 Co159 2.135 . S
Co168 O169 2.216 . S
Co168 O170 2.091 . S
Co168 O172 2.004 . S
Co168 O178 2.021 . S
Co168 O180 2.137 . S
Co168 O181 2.244 . S
O169 Co168 2.216 . S
O169 C176 1.247 . S
O170 Co168 2.091 . S
O170 C176 1.261 . S
C171 O180 1.247 . S
C171 O181 1.272 . S
O172 Co168 2.004 . S
O172 C177 1.259 . S
Co173 O174 2.061 . S
Co173 O179 2.052 . S
Co173 O181 2.135 . S
O174 Co173 2.061 . S
O174 C177 1.235 . S
C175 O178 1.238 . S
C175 O179 1.241 . S
C176 O169 1.247 . S
C176 O170 1.261 . S
C177 O172 1.259 . S
C177 O174 1.235 . S
O178 Co168 2.021 . S
O178 C175 1.238 . S
O179 Co173 2.052 . S
O179 C175 1.241 . S
O180 Co168 2.137 . S
O180 C171 1.247 . S
O181 Co168 2.244 . S
O181 C171 1.272 . S
O181 Co173 2.135 . S
Co182 O183 2.216 . S
Co182 O184 2.091 . S
Co182 O186 2.004 . S
Co182 O192 2.021 . S
Co182 O194 2.137 . S
Co182 O195 2.244 . S
O183 Co182 2.216 . S
O183 C190 1.247 . S
O184 Co182 2.091 . S
O184 C190 1.261 . S
C185 O194 1.247 . S
C185 O195 1.272 . S
O186 Co182 2.004 . S
O186 C191 1.259 . S
Co187 O188 2.061 . S
Co187 O193 2.052 . S
Co187 O195 2.135 . S
O188 Co187 2.061 . S
O188 C191 1.235 . S
C189 O192 1.238 . S
C189 O193 1.241 . S
C190 O183 1.247 . S
C190 O184 1.261 . S
C191 O186 1.259 . S
C191 O188 1.235 . S
O192 Co182 2.021 . S
O192 C189 1.238 . S
O193 Co187 2.052 . S
O193 C189 1.241 . S
O194 Co182 2.137 . S
O194 C185 1.247 . S
O195 Co182 2.244 . S
O195 C185 1.272 . S
O195 Co187 2.135 . S
Co196 O197 2.216 . S
Co196 O198 2.091 . S
Co196 O200 2.004 . S
Co196 O206 2.021 . S
Co196 O208 2.137 . S
Co196 O209 2.244 . S
O197 Co196 2.216 . S
O197 C204 1.247 . S
O198 Co196 2.091 . S
O198 C204 1.261 . S
C199 O208 1.247 . S
C199 O209 1.272 . S
O200 Co196 2.004 . S
O200 C205 1.259 . S
Co201 O202 2.061 . S
Co201 O207 2.052 . S
Co201 O209 2.135 . S
O202 Co201 2.061 . S
O202 C205 1.235 . S
C203 O206 1.238 . S
C203 O207 1.241 . S
C204 O197 1.247 . S
C204 O198 1.261 . S
C205 O200 1.259 . S
C205 O202 1.235 . S
O206 Co196 2.021 . S
O206 C203 1.238 . S
O207 Co201 2.052 . S
O207 C203 1.241 . S
O208 Co196 2.137 . S
O208 C199 1.247 . S
O209 Co196 2.244 . S
O209 C199 1.272 . S
O209 Co201 2.135 . S
Co210 O211 2.216 . S
Co210 O212 2.091 . S
Co210 O214 2.004 . S
Co210 O220 2.021 . S
Co210 O222 2.137 . S
Co210 O223 2.244 . S
O211 Co210 2.216 . S
O211 C218 1.247 . S
O212 Co210 2.091 . S
O212 C218 1.261 . S
C213 O222 1.247 . S
C213 O223 1.272 . S
O214 Co210 2.004 . S
O214 C219 1.259 . S
Co215 O216 2.061 . S
Co215 O221 2.052 . S
Co215 O223 2.135 . S
O216 Co215 2.061 . S
O216 C219 1.235 . S
C217 O220 1.238 . S
C217 O221 1.241 . S
C218 O211 1.247 . S
C218 O212 1.261 . S
C219 O214 1.259 . S
C219 O216 1.235 . S
O220 Co210 2.021 . S
O220 C217 1.238 . S
O221 Co215 2.052 . S
O221 C217 1.241 . S
O222 Co210 2.137 . S
O222 C213 1.247 . S
O223 Co210 2.244 . S
O223 C213 1.272 . S
O223 Co215 2.135 . S
Co224 O225 2.216 . S
Co224 O226 2.091 . S
Co224 O228 2.004 . S
Co224 O234 2.021 . S
Co224 O236 2.137 . S
Co224 O237 2.244 . S
O225 Co224 2.216 . S
O225 C232 1.247 . S
O226 Co224 2.091 . S
O226 C232 1.261 . S
C227 O236 1.247 . S
C227 O237 1.272 . S
O228 Co224 2.004 . S
O228 C233 1.259 . S
Co229 O230 2.061 . S
Co229 O235 2.052 . S
Co229 O237 2.135 . S
O230 Co229 2.061 . S
O230 C233 1.235 . S
C231 O234 1.238 . S
C231 O235 1.241 . S
C232 O225 1.247 . S
C232 O226 1.261 . S
C233 O228 1.259 . S
C233 O230 1.235 . S
O234 Co224 2.021 . S
O234 C231 1.238 . S
O235 Co229 2.052 . S
O235 C231 1.241 . S
O236 Co224 2.137 . S
O236 C227 1.247 . S
O237 Co224 2.244 . S
O237 C227 1.272 . S
O237 Co229 2.135 . S
Co238 O239 2.216 . S
Co238 O240 2.091 . S
Co238 O242 2.004 . S
Co238 O248 2.021 . S
Co238 O250 2.137 . S
Co238 O251 2.244 . S
O239 Co238 2.216 . S
O239 C246 1.247 . S
O240 Co238 2.091 . S
O240 C246 1.261 . S
C241 O250 1.247 . S
C241 O251 1.272 . S
O242 Co238 2.004 . S
O242 C247 1.259 . S
Co243 O244 2.061 . S
Co243 O249 2.052 . S
Co243 O251 2.135 . S
O244 Co243 2.061 . S
O244 C247 1.235 . S
C245 O248 1.238 . S
C245 O249 1.241 . S
C246 O239 1.247 . S
C246 O240 1.261 . S
C247 O242 1.259 . S
C247 O244 1.235 . S
O248 Co238 2.021 . S
O248 C245 1.238 . S
O249 Co243 2.052 . S
O249 C245 1.241 . S
O250 Co238 2.137 . S
O250 C241 1.247 . S
O251 Co238 2.244 . S
O251 C241 1.272 . S
O251 Co243 2.135 . S
Co252 O253 2.216 . S
Co252 O254 2.091 . S
Co252 O256 2.004 . S
Co252 O262 2.021 . S
Co252 O264 2.137 . S
Co252 O265 2.244 . S
O253 Co252 2.216 . S
O253 C260 1.247 . S
O254 Co252 2.091 . S
O254 C260 1.261 . S
C255 O264 1.247 . S
C255 O265 1.272 . S
O256 Co252 2.004 . S
O256 C261 1.259 . S
Co257 O258 2.061 . S
Co257 O263 2.052 . S
Co257 O265 2.135 . S
O258 Co257 2.061 . S
O258 C261 1.235 . S
C259 O262 1.238 . S
C259 O263 1.241 . S
C260 O253 1.247 . S
C260 O254 1.261 . S
C261 O256 1.259 . S
C261 O258 1.235 . S
O262 Co252 2.021 . S
O262 C259 1.238 . S
O263 Co257 2.052 . S
O263 C259 1.241 . S
O264 Co252 2.137 . S
O264 C255 1.247 . S
O265 Co252 2.244 . S
O265 C255 1.272 . S
O265 Co257 2.135 . S
Co266 O267 2.216 . S
Co266 O268 2.091 . S
Co266 O270 2.004 . S
Co266 O276 2.021 . S
Co266 O278 2.137 . S
Co266 O279 2.244 . S
O267 Co266 2.216 . S
O267 C274 1.247 . S
O268 Co266 2.091 . S
O268 C274 1.261 . S
C269 O278 1.247 . S
C269 O279 1.272 . S
O270 Co266 2.004 . S
O270 C275 1.259 . S
Co271 O272 2.061 . S
Co271 O277 2.052 . S
Co271 O279 2.135 . S
O272 Co271 2.061 . S
O272 C275 1.235 . S
C273 O276 1.238 . S
C273 O277 1.241 . S
C274 O267 1.247 . S
C274 O268 1.261 . S
C275 O270 1.259 . S
C275 O272 1.235 . S
O276 Co266 2.021 . S
O276 C273 1.238 . S
O277 Co271 2.052 . S
O277 C273 1.241 . S
O278 Co266 2.137 . S
O278 C269 1.247 . S
O279 Co266 2.244 . S
O279 C269 1.272 . S
O279 Co271 2.135 . S
Co280 O281 2.216 . S
Co280 O282 2.091 . S
Co280 O284 2.004 . S
Co280 O290 2.021 . S
Co280 O292 2.137 . S
Co280 O293 2.244 . S
O281 Co280 2.216 . S
O281 C288 1.247 . S
O282 Co280 2.091 . S
O282 C288 1.261 . S
C283 O292 1.247 . S
C283 O293 1.272 . S
O284 Co280 2.004 . S
O284 C289 1.259 . S
Co285 O286 2.061 . S
Co285 O291 2.052 . S
Co285 O293 2.135 . S
O286 Co285 2.061 . S
O286 C289 1.235 . S
C287 O290 1.238 . S
C287 O291 1.241 . S
C288 O281 1.247 . S
C288 O282 1.261 . S
C289 O284 1.259 . S
C289 O286 1.235 . S
O290 Co280 2.021 . S
O290 C287 1.238 . S
O291 Co285 2.052 . S
O291 C287 1.241 . S
O292 Co280 2.137 . S
O292 C283 1.247 . S
O293 Co280 2.244 . S
O293 C283 1.272 . S
O293 Co285 2.135 . S
Co294 O295 2.216 . S
Co294 O296 2.091 . S
Co294 O298 2.004 . S
Co294 O304 2.021 . S
Co294 O306 2.137 . S
Co294 O307 2.244 . S
O295 Co294 2.216 . S
O295 C302 1.247 . S
O296 Co294 2.091 . S
O296 C302 1.261 . S
C297 O306 1.247 . S
C297 O307 1.272 . S
O298 Co294 2.004 . S
O298 C303 1.259 . S
Co299 O300 2.061 . S
Co299 O305 2.052 . S
Co299 O307 2.135 . S
O300 Co299 2.061 . S
O300 C303 1.235 . S
C301 O304 1.238 . S
C301 O305 1.241 . S
C302 O295 1.247 . S
C302 O296 1.261 . S
C303 O298 1.259 . S
C303 O300 1.235 . S
O304 Co294 2.021 . S
O304 C301 1.238 . S
O305 Co299 2.052 . S
O305 C301 1.241 . S
O306 Co294 2.137 . S
O306 C297 1.247 . S
O307 Co294 2.244 . S
O307 C297 1.272 . S
O307 Co299 2.135 . S
Co308 O309 2.216 . S
Co308 O310 2.091 . S
Co308 O312 2.004 . S
Co308 O318 2.021 . S
Co308 O320 2.137 . S
Co308 O321 2.244 . S
O309 Co308 2.216 . S
O309 C316 1.247 . S
O310 Co308 2.091 . S
O310 C316 1.261 . S
C311 O320 1.247 . S
C311 O321 1.272 . S
O312 Co308 2.004 . S
O312 C317 1.259 . S
Co313 O314 2.061 . S
Co313 O319 2.052 . S
Co313 O321 2.135 . S
O314 Co313 2.061 . S
O314 C317 1.235 . S
C315 O318 1.238 . S
C315 O319 1.241 . S
C316 O309 1.247 . S
C316 O310 1.261 . S
C317 O312 1.259 . S
C317 O314 1.235 . S
O318 Co308 2.021 . S
O318 C315 1.238 . S
O319 Co313 2.052 . S
O319 C315 1.241 . S
O320 Co308 2.137 . S
O320 C311 1.247 . S
O321 Co308 2.244 . S
O321 C311 1.272 . S
O321 Co313 2.135 . S
Co322 O323 2.216 . S
Co322 O324 2.091 . S
Co322 O326 2.004 . S
Co322 O332 2.021 . S
Co322 O334 2.137 . S
Co322 O335 2.244 . S
O323 Co322 2.216 . S
O323 C330 1.247 . S
O324 Co322 2.091 . S
O324 C330 1.261 . S
C325 O334 1.247 . S
C325 O335 1.272 . S
O326 Co322 2.004 . S
O326 C331 1.259 . S
Co327 O328 2.061 . S
Co327 O333 2.052 . S
Co327 O335 2.135 . S
O328 Co327 2.061 . S
O328 C331 1.235 . S
C329 O332 1.238 . S
C329 O333 1.241 . S
C330 O323 1.247 . S
C330 O324 1.261 . S
C331 O326 1.259 . S
C331 O328 1.235 . S
O332 Co322 2.021 . S
O332 C329 1.238 . S
O333 Co327 2.052 . S
O333 C329 1.241 . S
O334 Co322 2.137 . S
O334 C325 1.247 . S
O335 Co322 2.244 . S
O335 C325 1.272 . S
O335 Co327 2.135 . S
H336 C354 0.951 . S
H337 C356 0.951 . S
H338 C358 0.950 . S
H339 C359 0.950 . S
H340 C361 0.950 . S
H341 C364 0.950 . S
H342 C365 0.950 . S
H343 C367 0.950 . S
H344 C368 0.950 . S
H345 C369 0.951 . S
H346 C371 0.951 . S
H347 C373 0.950 . S
H348 C374 0.950 . S
H349 C376 0.950 . S
H350 C379 0.950 . S
H351 C380 0.950 . S
H352 C382 0.950 . S
H353 C383 0.950 . S
C354 H336 0.951 . S
C354 C355 1.366 . S
C354 C356 1.388 . S
C355 C354 1.366 . S
C355 C359 1.385 . S
C356 H337 0.951 . S
C356 C354 1.388 . S
C356 C357 1.366 . S
C357 C356 1.366 . S
C357 C358 1.414 . S
C357 C360 1.499 . S
C358 H338 0.950 . S
C358 C357 1.414 . S
C358 C359 1.374 . S
C359 H339 0.950 . S
C359 C355 1.385 . S
C359 C358 1.374 . S
C360 C357 1.499 . S
C360 C361 1.373 . S
C360 C362 1.389 . S
C361 H340 0.950 . S
C361 C360 1.373 . S
C361 C377 1.377 . S
C362 C360 1.389 . S
C362 C363 1.524 . S
C362 C376 1.377 . S
C363 C362 1.524 . S
C363 C364 1.397 . S
C363 C368 1.363 . S
C364 H341 0.950 . S
C364 C363 1.397 . S
C364 C365 1.334 . S
C365 H342 0.950 . S
C365 C364 1.334 . S
C365 C366 1.287 . S
C366 C365 1.287 . S
C366 C367 1.524 . S
C366 H385 0.913 . S
C367 H343 0.950 . S
C367 C366 1.524 . S
C367 C368 1.415 . S
C368 H344 0.950 . S
C368 C363 1.363 . S
C368 C367 1.415 . S
C369 H345 0.951 . S
C369 C370 1.366 . S
C369 C371 1.388 . S
C370 C369 1.366 . S
C370 C374 1.385 . S
C371 H346 0.951 . S
C371 C369 1.388 . S
C371 C372 1.366 . S
C372 C371 1.366 . S
C372 C373 1.414 . S
C372 C375 1.499 . S
C373 H347 0.950 . S
C373 C372 1.414 . S
C373 C374 1.374 . S
C374 H348 0.950 . S
C374 C370 1.385 . S
C374 C373 1.374 . S
C375 C372 1.499 . S
C375 C376 1.373 . S
C375 C377 1.389 . S
C376 H349 0.950 . S
C376 C362 1.377 . S
C376 C375 1.373 . S
C377 C361 1.377 . S
C377 C375 1.389 . S
C377 C378 1.524 . S
C378 C377 1.524 . S
C378 C379 1.397 . S
C378 C383 1.363 . S
C379 H350 0.950 . S
C379 C378 1.397 . S
C379 C380 1.334 . S
C380 H351 0.950 . S
C380 C379 1.334 . S
C380 C381 1.287 . S
C381 C380 1.287 . S
C381 C382 1.524 . S
C381 H384 0.999 . S
C382 H352 0.950 . S
C382 C381 1.524 . S
C382 C383 1.415 . S
C383 H353 0.950 . S
C383 C378 1.363 . S
C383 C382 1.415 . S
H384 C381 0.999 . S
H385 C366 0.913 . S
H386 C404 0.951 . S
H387 C406 0.951 . S
H388 C408 0.950 . S
H389 C409 0.950 . S
H390 C411 0.950 . S
H391 C414 0.950 . S
H392 C415 0.950 . S
H393 C417 0.950 . S
H394 C418 0.950 . S
H395 C419 0.951 . S
H396 C421 0.951 . S
H397 C423 0.950 . S
H398 C424 0.950 . S
H399 C426 0.950 . S
H400 C429 0.950 . S
H401 C430 0.950 . S
H402 C432 0.950 . S
H403 C433 0.950 . S
C404 H386 0.951 . S
C404 C405 1.366 . S
C404 C406 1.388 . S
C405 C404 1.366 . S
C405 C409 1.385 . S
C406 H387 0.951 . S
C406 C404 1.388 . S
C406 C407 1.366 . S
C407 C406 1.366 . S
C407 C408 1.414 . S
C407 C410 1.499 . S
C408 H388 0.950 . S
C408 C407 1.414 . S
C408 C409 1.374 . S
C409 H389 0.950 . S
C409 C405 1.385 . S
C409 C408 1.374 . S
C410 C407 1.499 . S
C410 C411 1.373 . S
C410 C412 1.389 . S
C411 H390 0.950 . S
C411 C410 1.373 . S
C411 C427 1.377 . S
C412 C410 1.389 . S
C412 C413 1.524 . S
C412 C426 1.377 . S
C413 C412 1.524 . S
C413 C414 1.397 . S
C413 C418 1.363 . S
C414 H391 0.950 . S
C414 C413 1.397 . S
C414 C415 1.334 . S
C415 H392 0.950 . S
C415 C414 1.334 . S
C415 C416 1.287 . S
C416 C415 1.287 . S
C416 C417 1.524 . S
C416 H435 0.913 . S
C417 H393 0.950 . S
C417 C416 1.524 . S
C417 C418 1.415 . S
C418 H394 0.950 . S
C418 C413 1.363 . S
C418 C417 1.415 . S
C419 H395 0.951 . S
C419 C420 1.366 . S
C419 C421 1.388 . S
C420 C419 1.366 . S
C420 C424 1.385 . S
C421 H396 0.951 . S
C421 C419 1.388 . S
C421 C422 1.366 . S
C422 C421 1.366 . S
C422 C423 1.414 . S
C422 C425 1.499 . S
C423 H397 0.950 . S
C423 C422 1.414 . S
C423 C424 1.374 . S
C424 H398 0.950 . S
C424 C420 1.385 . S
C424 C423 1.374 . S
C425 C422 1.499 . S
C425 C426 1.373 . S
C425 C427 1.389 . S
C426 H399 0.950 . S
C426 C412 1.377 . S
C426 C425 1.373 . S
C427 C411 1.377 . S
C427 C425 1.389 . S
C427 C428 1.524 . S
C428 C427 1.524 . S
C428 C429 1.397 . S
C428 C433 1.363 . S
C429 H400 0.950 . S
C429 C428 1.397 . S
C429 C430 1.334 . S
C430 H401 0.950 . S
C430 C429 1.334 . S
C430 C431 1.287 . S
C431 C430 1.287 . S
C431 C432 1.524 . S
C431 H434 0.999 . S
C432 H402 0.950 . S
C432 C431 1.524 . S
C432 C433 1.415 . S
C433 H403 0.950 . S
C433 C428 1.363 . S
C433 C432 1.415 . S
H434 C431 0.999 . S
H435 C416 0.913 . S
H436 C454 0.951 . S
H437 C456 0.951 . S
H438 C458 0.950 . S
H439 C459 0.950 . S
H440 C461 0.950 . S
H441 C464 0.950 . S
H442 C465 0.950 . S
H443 C467 0.950 . S
H444 C468 0.950 . S
H445 C469 0.951 . S
H446 C471 0.951 . S
H447 C473 0.950 . S
H448 C474 0.950 . S
H449 C476 0.950 . S
H450 C479 0.950 . S
H451 C480 0.950 . S
H452 C482 0.950 . S
H453 C483 0.950 . S
C454 H436 0.951 . S
C454 C455 1.366 . S
C454 C456 1.388 . S
C455 C454 1.366 . S
C455 C459 1.385 . S
C456 H437 0.951 . S
C456 C454 1.388 . S
C456 C457 1.366 . S
C457 C456 1.366 . S
C457 C458 1.414 . S
C457 C460 1.499 . S
C458 H438 0.950 . S
C458 C457 1.414 . S
C458 C459 1.374 . S
C459 H439 0.950 . S
C459 C455 1.385 . S
C459 C458 1.374 . S
C460 C457 1.499 . S
C460 C461 1.373 . S
C460 C462 1.389 . S
C461 H440 0.950 . S
C461 C460 1.373 . S
C461 C477 1.377 . S
C462 C460 1.389 . S
C462 C463 1.524 . S
C462 C476 1.377 . S
C463 C462 1.524 . S
C463 C464 1.397 . S
C463 C468 1.363 . S
C464 H441 0.950 . S
C464 C463 1.397 . S
C464 C465 1.334 . S
C465 H442 0.950 . S
C465 C464 1.334 . S
C465 C466 1.287 . S
C466 C465 1.287 . S
C466 C467 1.524 . S
C466 H485 0.913 . S
C467 H443 0.950 . S
C467 C466 1.524 . S
C467 C468 1.415 . S
C468 H444 0.950 . S
C468 C463 1.363 . S
C468 C467 1.415 . S
C469 H445 0.951 . S
C469 C470 1.366 . S
C469 C471 1.388 . S
C470 C469 1.366 . S
C470 C474 1.385 . S
C471 H446 0.951 . S
C471 C469 1.388 . S
C471 C472 1.366 . S
C472 C471 1.366 . S
C472 C473 1.414 . S
C472 C475 1.499 . S
C473 H447 0.950 . S
C473 C472 1.414 . S
C473 C474 1.374 . S
C474 H448 0.950 . S
C474 C470 1.385 . S
C474 C473 1.374 . S
C475 C472 1.499 . S
C475 C476 1.373 . S
C475 C477 1.389 . S
C476 H449 0.950 . S
C476 C462 1.377 . S
C476 C475 1.373 . S
C477 C461 1.377 . S
C477 C475 1.389 . S
C477 C478 1.524 . S
C478 C477 1.524 . S
C478 C479 1.397 . S
C478 C483 1.363 . S
C479 H450 0.950 . S
C479 C478 1.397 . S
C479 C480 1.334 . S
C480 H451 0.950 . S
C480 C479 1.334 . S
C480 C481 1.287 . S
C481 C480 1.287 . S
C481 C482 1.524 . S
C481 H484 0.999 . S
C482 H452 0.950 . S
C482 C481 1.524 . S
C482 C483 1.415 . S
C483 H453 0.950 . S
C483 C478 1.363 . S
C483 C482 1.415 . S
H484 C481 0.999 . S
H485 C466 0.913 . S
H486 C504 0.951 . S
H487 C506 0.951 . S
H488 C508 0.950 . S
H489 C509 0.950 . S
H490 C511 0.950 . S
H491 C514 0.950 . S
H492 C515 0.950 . S
H493 C517 0.950 . S
H494 C518 0.950 . S
H495 C519 0.951 . S
H496 C521 0.951 . S
H497 C523 0.950 . S
H498 C524 0.950 . S
H499 C526 0.950 . S
H500 C529 0.950 . S
H501 C530 0.950 . S
H502 C532 0.950 . S
H503 C533 0.950 . S
C504 H486 0.951 . S
C504 C505 1.366 . S
C504 C506 1.388 . S
C505 C504 1.366 . S
C505 C509 1.385 . S
C506 H487 0.951 . S
C506 C504 1.388 . S
C506 C507 1.366 . S
C507 C506 1.366 . S
C507 C508 1.414 . S
C507 C510 1.499 . S
C508 H488 0.950 . S
C508 C507 1.414 . S
C508 C509 1.374 . S
C509 H489 0.950 . S
C509 C505 1.385 . S
C509 C508 1.374 . S
C510 C507 1.499 . S
C510 C511 1.373 . S
C510 C512 1.389 . S
C511 H490 0.950 . S
C511 C510 1.373 . S
C511 C527 1.377 . S
C512 C510 1.389 . S
C512 C513 1.524 . S
C512 C526 1.377 . S
C513 C512 1.524 . S
C513 C514 1.397 . S
C513 C518 1.363 . S
C514 H491 0.950 . S
C514 C513 1.397 . S
C514 C515 1.334 . S
C515 H492 0.950 . S
C515 C514 1.334 . S
C515 C516 1.287 . S
C516 C515 1.287 . S
C516 C517 1.524 . S
C516 H535 0.913 . S
C517 H493 0.950 . S
C517 C516 1.524 . S
C517 C518 1.415 . S
C518 H494 0.950 . S
C518 C513 1.363 . S
C518 C517 1.415 . S
C519 H495 0.951 . S
C519 C520 1.366 . S
C519 C521 1.388 . S
C520 C519 1.366 . S
C520 C524 1.385 . S
C521 H496 0.951 . S
C521 C519 1.388 . S
C521 C522 1.366 . S
C522 C521 1.366 . S
C522 C523 1.414 . S
C522 C525 1.499 . S
C523 H497 0.950 . S
C523 C522 1.414 . S
C523 C524 1.374 . S
C524 H498 0.950 . S
C524 C520 1.385 . S
C524 C523 1.374 . S
C525 C522 1.499 . S
C525 C526 1.373 . S
C525 C527 1.389 . S
C526 H499 0.950 . S
C526 C512 1.377 . S
C526 C525 1.373 . S
C527 C511 1.377 . S
C527 C525 1.389 . S
C527 C528 1.524 . S
C528 C527 1.524 . S
C528 C529 1.397 . S
C528 C533 1.363 . S
C529 H500 0.950 . S
C529 C528 1.397 . S
C529 C530 1.334 . S
C530 H501 0.950 . S
C530 C529 1.334 . S
C530 C531 1.287 . S
C531 C530 1.287 . S
C531 C532 1.524 . S
C531 H534 0.999 . S
C532 H502 0.950 . S
C532 C531 1.524 . S
C532 C533 1.415 . S
C533 H503 0.950 . S
C533 C528 1.363 . S
C533 C532 1.415 . S
H534 C531 0.999 . S
H535 C516 0.913 . S
H536 C554 0.951 . S
H537 C556 0.951 . S
H538 C558 0.950 . S
H539 C559 0.950 . S
H540 C561 0.950 . S
H541 C564 0.950 . S
H542 C565 0.950 . S
H543 C567 0.950 . S
H544 C568 0.950 . S
H545 C569 0.951 . S
H546 C571 0.951 . S
H547 C573 0.950 . S
H548 C574 0.950 . S
H549 C576 0.950 . S
H550 C579 0.950 . S
H551 C580 0.950 . S
H552 C582 0.950 . S
H553 C583 0.950 . S
C554 H536 0.951 . S
C554 C555 1.366 . S
C554 C556 1.388 . S
C555 C554 1.366 . S
C555 C559 1.385 . S
C556 H537 0.951 . S
C556 C554 1.388 . S
C556 C557 1.366 . S
C557 C556 1.366 . S
C557 C558 1.414 . S
C557 C560 1.499 . S
C558 H538 0.950 . S
C558 C557 1.414 . S
C558 C559 1.374 . S
C559 H539 0.950 . S
C559 C555 1.385 . S
C559 C558 1.374 . S
C560 C557 1.499 . S
C560 C561 1.373 . S
C560 C562 1.389 . S
C561 H540 0.950 . S
C561 C560 1.373 . S
C561 C577 1.377 . S
C562 C560 1.389 . S
C562 C563 1.524 . S
C562 C576 1.377 . S
C563 C562 1.524 . S
C563 C564 1.397 . S
C563 C568 1.363 . S
C564 H541 0.950 . S
C564 C563 1.397 . S
C564 C565 1.334 . S
C565 H542 0.950 . S
C565 C564 1.334 . S
C565 C566 1.287 . S
C566 C565 1.287 . S
C566 C567 1.524 . S
C566 H585 0.913 . S
C567 H543 0.950 . S
C567 C566 1.524 . S
C567 C568 1.415 . S
C568 H544 0.950 . S
C568 C563 1.363 . S
C568 C567 1.415 . S
C569 H545 0.951 . S
C569 C570 1.366 . S
C569 C571 1.388 . S
C570 C569 1.366 . S
C570 C574 1.385 . S
C571 H546 0.951 . S
C571 C569 1.388 . S
C571 C572 1.366 . S
C572 C571 1.366 . S
C572 C573 1.414 . S
C572 C575 1.499 . S
C573 H547 0.950 . S
C573 C572 1.414 . S
C573 C574 1.374 . S
C574 H548 0.950 . S
C574 C570 1.385 . S
C574 C573 1.374 . S
C575 C572 1.499 . S
C575 C576 1.373 . S
C575 C577 1.389 . S
C576 H549 0.950 . S
C576 C562 1.377 . S
C576 C575 1.373 . S
C577 C561 1.377 . S
C577 C575 1.389 . S
C577 C578 1.524 . S
C578 C577 1.524 . S
C578 C579 1.397 . S
C578 C583 1.363 . S
C579 H550 0.950 . S
C579 C578 1.397 . S
C579 C580 1.334 . S
C580 H551 0.950 . S
C580 C579 1.334 . S
C580 C581 1.287 . S
C581 C580 1.287 . S
C581 C582 1.524 . S
C581 H584 0.999 . S
C582 H552 0.950 . S
C582 C581 1.524 . S
C582 C583 1.415 . S
C583 H553 0.950 . S
C583 C578 1.363 . S
C583 C582 1.415 . S
H584 C581 0.999 . S
H585 C566 0.913 . S
H586 C604 0.951 . S
H587 C606 0.951 . S
H588 C608 0.950 . S
H589 C609 0.950 . S
H590 C611 0.950 . S
H591 C614 0.950 . S
H592 C615 0.950 . S
H593 C617 0.950 . S
H594 C618 0.950 . S
H595 C619 0.951 . S
H596 C621 0.951 . S
H597 C623 0.950 . S
H598 C624 0.950 . S
H599 C626 0.950 . S
H600 C629 0.950 . S
H601 C630 0.950 . S
H602 C632 0.950 . S
H603 C633 0.950 . S
C604 H586 0.951 . S
C604 C605 1.366 . S
C604 C606 1.388 . S
C605 C604 1.366 . S
C605 C609 1.385 . S
C606 H587 0.951 . S
C606 C604 1.388 . S
C606 C607 1.366 . S
C607 C606 1.366 . S
C607 C608 1.414 . S
C607 C610 1.499 . S
C608 H588 0.950 . S
C608 C607 1.414 . S
C608 C609 1.374 . S
C609 H589 0.950 . S
C609 C605 1.385 . S
C609 C608 1.374 . S
C610 C607 1.499 . S
C610 C611 1.373 . S
C610 C612 1.389 . S
C611 H590 0.950 . S
C611 C610 1.373 . S
C611 C627 1.377 . S
C612 C610 1.389 . S
C612 C613 1.524 . S
C612 C626 1.377 . S
C613 C612 1.524 . S
C613 C614 1.397 . S
C613 C618 1.363 . S
C614 H591 0.950 . S
C614 C613 1.397 . S
C614 C615 1.334 . S
C615 H592 0.950 . S
C615 C614 1.334 . S
C615 C616 1.287 . S
C616 C615 1.287 . S
C616 C617 1.524 . S
C616 H635 0.913 . S
C617 H593 0.950 . S
C617 C616 1.524 . S
C617 C618 1.415 . S
C618 H594 0.950 . S
C618 C613 1.363 . S
C618 C617 1.415 . S
C619 H595 0.951 . S
C619 C620 1.366 . S
C619 C621 1.388 . S
C620 C619 1.366 . S
C620 C624 1.385 . S
C621 H596 0.951 . S
C621 C619 1.388 . S
C621 C622 1.366 . S
C622 C621 1.366 . S
C622 C623 1.414 . S
C622 C625 1.499 . S
C623 H597 0.950 . S
C623 C622 1.414 . S
C623 C624 1.374 . S
C624 H598 0.950 . S
C624 C620 1.385 . S
C624 C623 1.374 . S
C625 C622 1.499 . S
C625 C626 1.373 . S
C625 C627 1.389 . S
C626 H599 0.950 . S
C626 C612 1.377 . S
C626 C625 1.373 . S
C627 C611 1.377 . S
C627 C625 1.389 . S
C627 C628 1.524 . S
C628 C627 1.524 . S
C628 C629 1.397 . S
C628 C633 1.363 . S
C629 H600 0.950 . S
C629 C628 1.397 . S
C629 C630 1.334 . S
C630 H601 0.950 . S
C630 C629 1.334 . S
C630 C631 1.287 . S
C631 C630 1.287 . S
C631 C632 1.524 . S
C631 H634 0.999 . S
C632 H602 0.950 . S
C632 C631 1.524 . S
C632 C633 1.415 . S
C633 H603 0.950 . S
C633 C628 1.363 . S
C633 C632 1.415 . S
H634 C631 0.999 . S
H635 C616 0.913 . S
H636 C654 0.951 . S
H637 C656 0.951 . S
H638 C658 0.950 . S
H639 C659 0.950 . S
H640 C661 0.950 . S
H641 C664 0.950 . S
H642 C665 0.950 . S
H643 C667 0.950 . S
H644 C668 0.950 . S
H645 C669 0.951 . S
H646 C671 0.951 . S
H647 C673 0.950 . S
H648 C674 0.950 . S
H649 C676 0.950 . S
H650 C679 0.950 . S
H651 C680 0.950 . S
H652 C682 0.950 . S
H653 C683 0.950 . S
C654 H636 0.951 . S
C654 C655 1.366 . S
C654 C656 1.388 . S
C655 C654 1.366 . S
C655 C659 1.385 . S
C656 H637 0.951 . S
C656 C654 1.388 . S
C656 C657 1.366 . S
C657 C656 1.366 . S
C657 C658 1.414 . S
C657 C660 1.499 . S
C658 H638 0.950 . S
C658 C657 1.414 . S
C658 C659 1.374 . S
C659 H639 0.950 . S
C659 C655 1.385 . S
C659 C658 1.374 . S
C660 C657 1.499 . S
C660 C661 1.373 . S
C660 C662 1.389 . S
C661 H640 0.950 . S
C661 C660 1.373 . S
C661 C677 1.377 . S
C662 C660 1.389 . S
C662 C663 1.524 . S
C662 C676 1.377 . S
C663 C662 1.524 . S
C663 C664 1.397 . S
C663 C668 1.363 . S
C664 H641 0.950 . S
C664 C663 1.397 . S
C664 C665 1.334 . S
C665 H642 0.950 . S
C665 C664 1.334 . S
C665 C666 1.287 . S
C666 C665 1.287 . S
C666 C667 1.524 . S
C666 H685 0.913 . S
C667 H643 0.950 . S
C667 C666 1.524 . S
C667 C668 1.415 . S
C668 H644 0.950 . S
C668 C663 1.363 . S
C668 C667 1.415 . S
C669 H645 0.951 . S
C669 C670 1.366 . S
C669 C671 1.388 . S
C670 C669 1.366 . S
C670 C674 1.385 . S
C671 H646 0.951 . S
C671 C669 1.388 . S
C671 C672 1.366 . S
C672 C671 1.366 . S
C672 C673 1.414 . S
C672 C675 1.499 . S
C673 H647 0.950 . S
C673 C672 1.414 . S
C673 C674 1.374 . S
C674 H648 0.950 . S
C674 C670 1.385 . S
C674 C673 1.374 . S
C675 C672 1.499 . S
C675 C676 1.373 . S
C675 C677 1.389 . S
C676 H649 0.950 . S
C676 C662 1.377 . S
C676 C675 1.373 . S
C677 C661 1.377 . S
C677 C675 1.389 . S
C677 C678 1.524 . S
C678 C677 1.524 . S
C678 C679 1.397 . S
C678 C683 1.363 . S
C679 H650 0.950 . S
C679 C678 1.397 . S
C679 C680 1.334 . S
C680 H651 0.950 . S
C680 C679 1.334 . S
C680 C681 1.287 . S
C681 C680 1.287 . S
C681 C682 1.524 . S
C681 H684 0.999 . S
C682 H652 0.950 . S
C682 C681 1.524 . S
C682 C683 1.415 . S
C683 H653 0.950 . S
C683 C678 1.363 . S
C683 C682 1.415 . S
H684 C681 0.999 . S
H685 C666 0.913 . S
H686 C704 0.951 . S
H687 C706 0.951 . S
H688 C708 0.950 . S
H689 C709 0.950 . S
H690 C711 0.950 . S
H691 C714 0.950 . S
H692 C715 0.950 . S
H693 C717 0.950 . S
H694 C718 0.950 . S
H695 C719 0.951 . S
H696 C721 0.951 . S
H697 C723 0.950 . S
H698 C724 0.950 . S
H699 C726 0.950 . S
H700 C729 0.950 . S
H701 C730 0.950 . S
H702 C732 0.950 . S
H703 C733 0.950 . S
C704 H686 0.951 . S
C704 C705 1.366 . S
C704 C706 1.388 . S
C705 C704 1.366 . S
C705 C709 1.385 . S
C706 H687 0.951 . S
C706 C704 1.388 . S
C706 C707 1.366 . S
C707 C706 1.366 . S
C707 C708 1.414 . S
C707 C710 1.499 . S
C708 H688 0.950 . S
C708 C707 1.414 . S
C708 C709 1.374 . S
C709 H689 0.950 . S
C709 C705 1.385 . S
C709 C708 1.374 . S
C710 C707 1.499 . S
C710 C711 1.373 . S
C710 C712 1.389 . S
C711 H690 0.950 . S
C711 C710 1.373 . S
C711 C727 1.377 . S
C712 C710 1.389 . S
C712 C713 1.524 . S
C712 C726 1.377 . S
C713 C712 1.524 . S
C713 C714 1.397 . S
C713 C718 1.363 . S
C714 H691 0.950 . S
C714 C713 1.397 . S
C714 C715 1.334 . S
C715 H692 0.950 . S
C715 C714 1.334 . S
C715 C716 1.287 . S
C716 C715 1.287 . S
C716 C717 1.524 . S
C716 H735 0.913 . S
C717 H693 0.950 . S
C717 C716 1.524 . S
C717 C718 1.415 . S
C718 H694 0.950 . S
C718 C713 1.363 . S
C718 C717 1.415 . S
C719 H695 0.951 . S
C719 C720 1.366 . S
C719 C721 1.388 . S
C720 C719 1.366 . S
C720 C724 1.385 . S
C721 H696 0.951 . S
C721 C719 1.388 . S
C721 C722 1.366 . S
C722 C721 1.366 . S
C722 C723 1.414 . S
C722 C725 1.499 . S
C723 H697 0.950 . S
C723 C722 1.414 . S
C723 C724 1.374 . S
C724 H698 0.950 . S
C724 C720 1.385 . S
C724 C723 1.374 . S
C725 C722 1.499 . S
C725 C726 1.373 . S
C725 C727 1.389 . S
C726 H699 0.950 . S
C726 C712 1.377 . S
C726 C725 1.373 . S
C727 C711 1.377 . S
C727 C725 1.389 . S
C727 C728 1.524 . S
C728 C727 1.524 . S
C728 C729 1.397 . S
C728 C733 1.363 . S
C729 H700 0.950 . S
C729 C728 1.397 . S
C729 C730 1.334 . S
C730 H701 0.950 . S
C730 C729 1.334 . S
C730 C731 1.287 . S
C731 C730 1.287 . S
C731 C732 1.524 . S
C731 H734 0.999 . S
C732 H702 0.950 . S
C732 C731 1.524 . S
C732 C733 1.415 . S
C733 H703 0.950 . S
C733 C728 1.363 . S
C733 C732 1.415 . S
H734 C731 0.999 . S
H735 C716 0.913 . S
H736 C754 0.951 . S
H737 C756 0.951 . S
H738 C758 0.950 . S
H739 C759 0.950 . S
H740 C761 0.950 . S
H741 C764 0.950 . S
H742 C765 0.950 . S
H743 C767 0.950 . S
H744 C768 0.950 . S
H745 C769 0.951 . S
H746 C771 0.951 . S
H747 C773 0.950 . S
H748 C774 0.950 . S
H749 C776 0.950 . S
H750 C779 0.950 . S
H751 C780 0.950 . S
H752 C782 0.950 . S
H753 C783 0.950 . S
C754 H736 0.951 . S
C754 C755 1.366 . S
C754 C756 1.388 . S
C755 C754 1.366 . S
C755 C759 1.385 . S
C756 H737 0.951 . S
C756 C754 1.388 . S
C756 C757 1.366 . S
C757 C756 1.366 . S
C757 C758 1.414 . S
C757 C760 1.499 . S
C758 H738 0.950 . S
C758 C757 1.414 . S
C758 C759 1.374 . S
C759 H739 0.950 . S
C759 C755 1.385 . S
C759 C758 1.374 . S
C760 C757 1.499 . S
C760 C761 1.373 . S
C760 C762 1.389 . S
C761 H740 0.950 . S
C761 C760 1.373 . S
C761 C777 1.377 . S
C762 C760 1.389 . S
C762 C763 1.524 . S
C762 C776 1.377 . S
C763 C762 1.524 . S
C763 C764 1.397 . S
C763 C768 1.363 . S
C764 H741 0.950 . S
C764 C763 1.397 . S
C764 C765 1.334 . S
C765 H742 0.950 . S
C765 C764 1.334 . S
C765 C766 1.287 . S
C766 C765 1.287 . S
C766 C767 1.524 . S
C766 H785 0.913 . S
C767 H743 0.950 . S
C767 C766 1.524 . S
C767 C768 1.415 . S
C768 H744 0.950 . S
C768 C763 1.363 . S
C768 C767 1.415 . S
C769 H745 0.951 . S
C769 C770 1.366 . S
C769 C771 1.388 . S
C770 C769 1.366 . S
C770 C774 1.385 . S
C771 H746 0.951 . S
C771 C769 1.388 . S
C771 C772 1.366 . S
C772 C771 1.366 . S
C772 C773 1.414 . S
C772 C775 1.499 . S
C773 H747 0.950 . S
C773 C772 1.414 . S
C773 C774 1.374 . S
C774 H748 0.950 . S
C774 C770 1.385 . S
C774 C773 1.374 . S
C775 C772 1.499 . S
C775 C776 1.373 . S
C775 C777 1.389 . S
C776 H749 0.950 . S
C776 C762 1.377 . S
C776 C775 1.373 . S
C777 C761 1.377 . S
C777 C775 1.389 . S
C777 C778 1.524 . S
C778 C777 1.524 . S
C778 C779 1.397 . S
C778 C783 1.363 . S
C779 H750 0.950 . S
C779 C778 1.397 . S
C779 C780 1.334 . S
C780 H751 0.950 . S
C780 C779 1.334 . S
C780 C781 1.287 . S
C781 C780 1.287 . S
C781 C782 1.524 . S
C781 H784 0.999 . S
C782 H752 0.950 . S
C782 C781 1.524 . S
C782 C783 1.415 . S
C783 H753 0.950 . S
C783 C778 1.363 . S
C783 C782 1.415 . S
H784 C781 0.999 . S
H785 C766 0.913 . S
H786 C804 0.951 . S
H787 C806 0.951 . S
H788 C808 0.950 . S
H789 C809 0.950 . S
H790 C811 0.950 . S
H791 C814 0.950 . S
H792 C815 0.950 . S
H793 C817 0.950 . S
H794 C818 0.950 . S
H795 C819 0.951 . S
H796 C821 0.951 . S
H797 C823 0.950 . S
H798 C824 0.950 . S
H799 C826 0.950 . S
H800 C829 0.950 . S
H801 C830 0.950 . S
H802 C832 0.950 . S
H803 C833 0.950 . S
C804 H786 0.951 . S
C804 C805 1.366 . S
C804 C806 1.388 . S
C805 C804 1.366 . S
C805 C809 1.385 . S
C806 H787 0.951 . S
C806 C804 1.388 . S
C806 C807 1.366 . S
C807 C806 1.366 . S
C807 C808 1.414 . S
C807 C810 1.499 . S
C808 H788 0.950 . S
C808 C807 1.414 . S
C808 C809 1.374 . S
C809 H789 0.950 . S
C809 C805 1.385 . S
C809 C808 1.374 . S
C810 C807 1.499 . S
C810 C811 1.373 . S
C810 C812 1.389 . S
C811 H790 0.950 . S
C811 C810 1.373 . S
C811 C827 1.377 . S
C812 C810 1.389 . S
C812 C813 1.524 . S
C812 C826 1.377 . S
C813 C812 1.524 . S
C813 C814 1.397 . S
C813 C818 1.363 . S
C814 H791 0.950 . S
C814 C813 1.397 . S
C814 C815 1.334 . S
C815 H792 0.950 . S
C815 C814 1.334 . S
C815 C816 1.287 . S
C816 C815 1.287 . S
C816 C817 1.524 . S
C816 H835 0.913 . S
C817 H793 0.950 . S
C817 C816 1.524 . S
C817 C818 1.415 . S
C818 H794 0.950 . S
C818 C813 1.363 . S
C818 C817 1.415 . S
C819 H795 0.951 . S
C819 C820 1.366 . S
C819 C821 1.388 . S
C820 C819 1.366 . S
C820 C824 1.385 . S
C821 H796 0.951 . S
C821 C819 1.388 . S
C821 C822 1.366 . S
C822 C821 1.366 . S
C822 C823 1.414 . S
C822 C825 1.499 . S
C823 H797 0.950 . S
C823 C822 1.414 . S
C823 C824 1.374 . S
C824 H798 0.950 . S
C824 C820 1.385 . S
C824 C823 1.374 . S
C825 C822 1.499 . S
C825 C826 1.373 . S
C825 C827 1.389 . S
C826 H799 0.950 . S
C826 C812 1.377 . S
C826 C825 1.373 . S
C827 C811 1.377 . S
C827 C825 1.389 . S
C827 C828 1.524 . S
C828 C827 1.524 . S
C828 C829 1.397 . S
C828 C833 1.363 . S
C829 H800 0.950 . S
C829 C828 1.397 . S
C829 C830 1.334 . S
C830 H801 0.950 . S
C830 C829 1.334 . S
C830 C831 1.287 . S
C831 C830 1.287 . S
C831 C832 1.524 . S
C831 H834 0.999 . S
C832 H802 0.950 . S
C832 C831 1.524 . S
C832 C833 1.415 . S
C833 H803 0.950 . S
C833 C828 1.363 . S
C833 C832 1.415 . S
H834 C831 0.999 . S
H835 C816 0.913 . S
H836 C854 0.951 . S
H837 C856 0.951 . S
H838 C858 0.950 . S
H839 C859 0.950 . S
H840 C861 0.950 . S
H841 C864 0.950 . S
H842 C865 0.950 . S
H843 C867 0.950 . S
H844 C868 0.950 . S
H845 C869 0.951 . S
H846 C871 0.951 . S
H847 C873 0.950 . S
H848 C874 0.950 . S
H849 C876 0.950 . S
H850 C879 0.950 . S
H851 C880 0.950 . S
H852 C882 0.950 . S
H853 C883 0.950 . S
C854 H836 0.951 . S
C854 C855 1.366 . S
C854 C856 1.388 . S
C855 C854 1.366 . S
C855 C859 1.385 . S
C856 H837 0.951 . S
C856 C854 1.388 . S
C856 C857 1.366 . S
C857 C856 1.366 . S
C857 C858 1.414 . S
C857 C860 1.499 . S
C858 H838 0.950 . S
C858 C857 1.414 . S
C858 C859 1.374 . S
C859 H839 0.950 . S
C859 C855 1.385 . S
C859 C858 1.374 . S
C860 C857 1.499 . S
C860 C861 1.373 . S
C860 C862 1.389 . S
C861 H840 0.950 . S
C861 C860 1.373 . S
C861 C877 1.377 . S
C862 C860 1.389 . S
C862 C863 1.524 . S
C862 C876 1.377 . S
C863 C862 1.524 . S
C863 C864 1.397 . S
C863 C868 1.363 . S
C864 H841 0.950 . S
C864 C863 1.397 . S
C864 C865 1.334 . S
C865 H842 0.950 . S
C865 C864 1.334 . S
C865 C866 1.287 . S
C866 C865 1.287 . S
C866 C867 1.524 . S
C866 H885 0.913 . S
C867 H843 0.950 . S
C867 C866 1.524 . S
C867 C868 1.415 . S
C868 H844 0.950 . S
C868 C863 1.363 . S
C868 C867 1.415 . S
C869 H845 0.951 . S
C869 C870 1.366 . S
C869 C871 1.388 . S
C870 C869 1.366 . S
C870 C874 1.385 . S
C871 H846 0.951 . S
C871 C869 1.388 . S
C871 C872 1.366 . S
C872 C871 1.366 . S
C872 C873 1.414 . S
C872 C875 1.499 . S
C873 H847 0.950 . S
C873 C872 1.414 . S
C873 C874 1.374 . S
C874 H848 0.950 . S
C874 C870 1.385 . S
C874 C873 1.374 . S
C875 C872 1.499 . S
C875 C876 1.373 . S
C875 C877 1.389 . S
C876 H849 0.950 . S
C876 C862 1.377 . S
C876 C875 1.373 . S
C877 C861 1.377 . S
C877 C875 1.389 . S
C877 C878 1.524 . S
C878 C877 1.524 . S
C878 C879 1.397 . S
C878 C883 1.363 . S
C879 H850 0.950 . S
C879 C878 1.397 . S
C879 C880 1.334 . S
C880 H851 0.950 . S
C880 C879 1.334 . S
C880 C881 1.287 . S
C881 C880 1.287 . S
C881 C882 1.524 . S
C881 H884 0.999 . S
C882 H852 0.950 . S
C882 C881 1.524 . S
C882 C883 1.415 . S
C883 H853 0.950 . S
C883 C878 1.363 . S
C883 C882 1.415 . S
H884 C881 0.999 . S
H885 C866 0.913 . S
H886 C904 0.951 . S
H887 C906 0.951 . S
H888 C908 0.950 . S
H889 C909 0.950 . S
H890 C911 0.950 . S
H891 C914 0.950 . S
H892 C915 0.950 . S
H893 C917 0.950 . S
H894 C918 0.950 . S
H895 C919 0.951 . S
H896 C921 0.951 . S
H897 C923 0.950 . S
H898 C924 0.950 . S
H899 C926 0.950 . S
H900 C929 0.950 . S
H901 C930 0.950 . S
H902 C932 0.950 . S
H903 C933 0.950 . S
C904 H886 0.951 . S
C904 C905 1.366 . S
C904 C906 1.388 . S
C905 C904 1.366 . S
C905 C909 1.385 . S
C906 H887 0.951 . S
C906 C904 1.388 . S
C906 C907 1.366 . S
C907 C906 1.366 . S
C907 C908 1.414 . S
C907 C910 1.499 . S
C908 H888 0.950 . S
C908 C907 1.414 . S
C908 C909 1.374 . S
C909 H889 0.950 . S
C909 C905 1.385 . S
C909 C908 1.374 . S
C910 C907 1.499 . S
C910 C911 1.373 . S
C910 C912 1.389 . S
C911 H890 0.950 . S
C911 C910 1.373 . S
C911 C927 1.377 . S
C912 C910 1.389 . S
C912 C913 1.524 . S
C912 C926 1.377 . S
C913 C912 1.524 . S
C913 C914 1.397 . S
C913 C918 1.363 . S
C914 H891 0.950 . S
C914 C913 1.397 . S
C914 C915 1.334 . S
C915 H892 0.950 . S
C915 C914 1.334 . S
C915 C916 1.287 . S
C916 C915 1.287 . S
C916 C917 1.524 . S
C916 H935 0.913 . S
C917 H893 0.950 . S
C917 C916 1.524 . S
C917 C918 1.415 . S
C918 H894 0.950 . S
C918 C913 1.363 . S
C918 C917 1.415 . S
C919 H895 0.951 . S
C919 C920 1.366 . S
C919 C921 1.388 . S
C920 C919 1.366 . S
C920 C924 1.385 . S
C921 H896 0.951 . S
C921 C919 1.388 . S
C921 C922 1.366 . S
C922 C921 1.366 . S
C922 C923 1.414 . S
C922 C925 1.499 . S
C923 H897 0.950 . S
C923 C922 1.414 . S
C923 C924 1.374 . S
C924 H898 0.950 . S
C924 C920 1.385 . S
C924 C923 1.374 . S
C925 C922 1.499 . S
C925 C926 1.373 . S
C925 C927 1.389 . S
C926 H899 0.950 . S
C926 C912 1.377 . S
C926 C925 1.373 . S
C927 C911 1.377 . S
C927 C925 1.389 . S
C927 C928 1.524 . S
C928 C927 1.524 . S
C928 C929 1.397 . S
C928 C933 1.363 . S
C929 H900 0.950 . S
C929 C928 1.397 . S
C929 C930 1.334 . S
C930 H901 0.950 . S
C930 C929 1.334 . S
C930 C931 1.287 . S
C931 C930 1.287 . S
C931 C932 1.524 . S
C931 H934 0.999 . S
C932 H902 0.950 . S
C932 C931 1.524 . S
C932 C933 1.415 . S
C933 H903 0.950 . S
C933 C928 1.363 . S
C933 C932 1.415 . S
H934 C931 0.999 . S
H935 C916 0.913 . S
H936 C954 0.951 . S
H937 C956 0.951 . S
H938 C958 0.950 . S
H939 C959 0.950 . S
H940 C961 0.950 . S
H941 C964 0.950 . S
H942 C965 0.950 . S
H943 C967 0.950 . S
H944 C968 0.950 . S
H945 C969 0.951 . S
H946 C971 0.951 . S
H947 C973 0.950 . S
H948 C974 0.950 . S
H949 C976 0.950 . S
H950 C979 0.950 . S
H951 C980 0.950 . S
H952 C982 0.950 . S
H953 C983 0.950 . S
C954 H936 0.951 . S
C954 C955 1.366 . S
C954 C956 1.388 . S
C955 C954 1.366 . S
C955 C959 1.385 . S
C956 H937 0.951 . S
C956 C954 1.388 . S
C956 C957 1.366 . S
C957 C956 1.366 . S
C957 C958 1.414 1_565 S
C957 C960 1.499 1_565 S
C958 H938 0.950 . S
C958 C957 1.414 1_545 S
C958 C959 1.374 1_545 S
C959 H939 0.950 . S
C959 C955 1.385 . S
C959 C958 1.374 1_565 S
C960 C957 1.499 1_545 S
C960 C961 1.373 . S
C960 C962 1.389 . S
C961 H940 0.950 . S
C961 C960 1.373 . S
C961 C977 1.377 . S
C962 C960 1.389 . S
C962 C963 1.524 . S
C962 C976 1.377 . S
C963 C962 1.524 . S
C963 C964 1.397 . S
C963 C968 1.363 1_545 S
C964 H941 0.950 . S
C964 C963 1.397 . S
C964 C965 1.334 1_545 S
C965 H942 0.950 . S
C965 C964 1.334 1_565 S
C965 C966 1.287 . S
C966 C965 1.287 . S
C966 C967 1.524 . S
C966 H985 0.913 . S
C967 H943 0.950 . S
C967 C966 1.524 . S
C967 C968 1.415 . S
C968 H944 0.950 . S
C968 C963 1.363 1_565 S
C968 C967 1.415 . S
C969 H945 0.951 . S
C969 C970 1.366 . S
C969 C971 1.388 . S
C970 C969 1.366 . S
C970 C974 1.385 . S
C971 H946 0.951 . S
C971 C969 1.388 . S
C971 C972 1.366 . S
C972 C971 1.366 . S
C972 C973 1.414 . S
C972 C975 1.499 . S
C973 H947 0.950 . S
C973 C972 1.414 . S
C973 C974 1.374 . S
C974 H948 0.950 . S
C974 C970 1.385 . S
C974 C973 1.374 . S
C975 C972 1.499 . S
C975 C976 1.373 . S
C975 C977 1.389 . S
C976 H949 0.950 . S
C976 C962 1.377 . S
C976 C975 1.373 . S
C977 C961 1.377 . S
C977 C975 1.389 . S
C977 C978 1.524 . S
C978 C977 1.524 . S
C978 C979 1.397 . S
C978 C983 1.363 . S
C979 H950 0.950 . S
C979 C978 1.397 . S
C979 C980 1.334 . S
C980 H951 0.950 . S
C980 C979 1.334 . S
C980 C981 1.287 . S
C981 C980 1.287 . S
C981 C982 1.524 . S
C981 H984 0.999 . S
C982 H952 0.950 . S
C982 C981 1.524 . S
C982 C983 1.415 . S
C983 H953 0.950 . S
C983 C978 1.363 . S
C983 C982 1.415 . S
H984 C981 0.999 . S
H985 C966 0.913 . S
H986 C1004 0.951 . S
H987 C1006 0.951 . S
H988 C1008 0.950 . S
H989 C1009 0.950 . S
H990 C1011 0.950 . S
H991 C1014 0.950 . S
H992 C1015 0.950 . S
H993 C1017 0.950 . S
H994 C1018 0.976 . S
H995 C1019 0.951 . S
H996 C1021 0.951 . S
H997 C1023 0.950 . S
H998 C1024 0.950 . S
H999 C1026 0.950 . S
H1000 C1029 0.950 . S
H1001 C1030 0.950 . S
H1002 C1032 0.950 . S
H1003 C1033 0.950 . S
C1004 H986 0.951 . S
C1004 C1005 1.366 . S
C1004 C1006 1.388 . S
C1005 C1004 1.366 . S
C1005 C1009 1.385 . S
C1006 H987 0.951 . S
C1006 C1004 1.388 . S
C1006 C1007 1.366 . S
C1007 C1006 1.366 . S
C1007 C1008 1.414 . S
C1007 C1010 1.499 1_655 S
C1008 H988 0.950 . S
C1008 C1007 1.414 . S
C1008 C1009 1.374 . S
C1009 H989 0.950 . S
C1009 C1005 1.385 . S
C1009 C1008 1.374 . S
C1010 C1007 1.499 1_455 S
C1010 C1011 1.373 . S
C1010 C1012 1.389 . S
C1011 H990 0.950 . S
C1011 C1010 1.373 . S
C1011 C1027 1.377 . S
C1012 C1010 1.389 . S
C1012 C1013 1.524 1_455 S
C1012 C1026 1.377 . S
C1013 C1012 1.524 1_655 S
C1013 C1014 1.397 . S
C1013 C1018 1.363 . S
C1014 H991 0.950 . S
C1014 C1013 1.397 . S
C1014 C1015 1.334 . S
C1015 H992 0.950 . S
C1015 C1014 1.334 . S
C1015 C1016 1.287 . S
C1016 C1015 1.287 . S
C1016 C1017 1.524 . S
C1016 H1035 0.913 . S
C1017 H993 0.950 . S
C1017 C1016 1.524 . S
C1017 C1018 1.415 . S
C1018 H994 0.976 . S
C1018 C1013 1.363 . S
C1018 C1017 1.415 . S
C1019 H995 0.951 . S
C1019 C1020 1.366 . S
C1019 C1021 1.388 . S
C1020 C1019 1.366 . S
C1020 C1024 1.385 . S
C1021 H996 0.951 . S
C1021 C1019 1.388 . S
C1021 C1022 1.366 . S
C1022 C1021 1.366 . S
C1022 C1023 1.414 . S
C1022 C1025 1.499 . S
C1023 H997 0.950 . S
C1023 C1022 1.414 . S
C1023 C1024 1.374 . S
C1024 H998 0.950 . S
C1024 C1020 1.385 . S
C1024 C1023 1.374 . S
C1025 C1022 1.499 . S
C1025 C1026 1.373 . S
C1025 C1027 1.389 . S
C1026 H999 0.950 . S
C1026 C1012 1.377 . S
C1026 C1025 1.373 . S
C1027 C1011 1.377 . S
C1027 C1025 1.389 . S
C1027 C1028 1.524 . S
C1028 C1027 1.524 . S
C1028 C1029 1.397 . S
C1028 C1033 1.363 . S
C1029 H1000 0.950 . S
C1029 C1028 1.397 . S
C1029 C1030 1.334 . S
C1030 H1001 0.950 . S
C1030 C1029 1.334 . S
C1030 C1031 1.287 . S
C1031 C1030 1.287 . S
C1031 C1032 1.524 . S
C1031 H1034 0.999 . S
C1032 H1002 0.950 . S
C1032 C1031 1.524 . S
C1032 C1033 1.415 . S
C1033 H1003 0.950 . S
C1033 C1028 1.363 . S
C1033 C1032 1.415 . S
H1034 C1031 0.999 . S
H1035 C1016 0.913 . S
H1036 C1054 0.951 . S
H1037 C1056 0.951 1_565 S
H1038 C1058 0.950 . S
H1039 C1059 0.950 . S
H1040 C1061 0.950 . S
H1041 C1064 0.950 . S
H1042 C1065 0.950 . S
H1043 C1067 0.950 . S
H1044 C1068 0.950 . S
H1045 C1069 0.951 . S
H1046 C1071 0.951 . S
H1047 C1073 0.950 . S
H1048 C1074 0.950 . S
H1049 C1076 0.950 . S
H1050 C1079 0.950 . S
H1051 C1080 0.950 . S
H1052 C1082 0.950 . S
H1053 C1083 0.950 . S
C1054 H1036 0.951 . S
C1054 C1055 1.366 . S
C1054 C1056 1.388 . S
C1055 C1054 1.366 . S
C1055 C1059 1.385 . S
C1056 H1037 0.951 1_545 S
C1056 C1054 1.388 . S
C1056 C1057 1.366 . S
C1057 C1056 1.366 . S
C1057 C1058 1.414 . S
C1057 C1060 1.499 1_545 S
C1058 H1038 0.950 . S
C1058 C1057 1.414 . S
C1058 C1059 1.374 . S
C1059 H1039 0.950 . S
C1059 C1055 1.385 . S
C1059 C1058 1.374 . S
C1060 C1057 1.499 1_565 S
C1060 C1061 1.373 . S
C1060 C1062 1.389 . S
C1061 H1040 0.950 . S
C1061 C1060 1.373 . S
C1061 C1077 1.377 . S
C1062 C1060 1.389 . S
C1062 C1063 1.524 . S
C1062 C1076 1.377 . S
C1063 C1062 1.524 . S
C1063 C1064 1.397 1_565 S
C1063 C1068 1.363 . S
C1064 H1041 0.950 . S
C1064 C1063 1.397 1_545 S
C1064 C1065 1.334 . S
C1065 H1042 0.950 . S
C1065 C1064 1.334 . S
C1065 C1066 1.287 . S
C1066 C1065 1.287 . S
C1066 C1067 1.524 1_545 S
C1066 H1085 0.913 . S
C1067 H1043 0.950 . S
C1067 C1066 1.524 1_565 S
C1067 C1068 1.415 . S
C1068 H1044 0.950 . S
C1068 C1063 1.363 . S
C1068 C1067 1.415 . S
C1069 H1045 0.951 . S
C1069 C1070 1.366 . S
C1069 C1071 1.388 . S
C1070 C1069 1.366 . S
C1070 C1074 1.385 . S
C1071 H1046 0.951 . S
C1071 C1069 1.388 . S
C1071 C1072 1.366 . S
C1072 C1071 1.366 . S
C1072 C1073 1.414 . S
C1072 C1075 1.499 . S
C1073 H1047 0.950 . S
C1073 C1072 1.414 . S
C1073 C1074 1.374 . S
C1074 H1048 0.950 . S
C1074 C1070 1.385 . S
C1074 C1073 1.374 . S
C1075 C1072 1.499 . S
C1075 C1076 1.373 . S
C1075 C1077 1.389 . S
C1076 H1049 0.950 . S
C1076 C1062 1.377 . S
C1076 C1075 1.373 . S
C1077 C1061 1.377 . S
C1077 C1075 1.389 . S
C1077 C1078 1.524 . S
C1078 C1077 1.524 . S
C1078 C1079 1.397 . S
C1078 C1083 1.363 . S
C1079 H1050 0.950 . S
C1079 C1078 1.397 . S
C1079 C1080 1.334 . S
C1080 H1051 0.950 . S
C1080 C1079 1.334 . S
C1080 C1081 1.287 . S
C1081 C1080 1.287 . S
C1081 C1082 1.524 . S
C1081 H1084 0.999 . S
C1082 H1052 0.950 . S
C1082 C1081 1.524 . S
C1082 C1083 1.415 . S
C1083 H1053 0.950 . S
C1083 C1078 1.363 . S
C1083 C1082 1.415 . S
H1084 C1081 0.999 . S
H1085 C1066 0.913 . S
H1086 C1104 0.951 . S
H1087 C1106 0.951 1_655 S
H1088 C1108 0.950 . S
H1089 C1109 0.950 . S
H1090 C1111 0.950 1_455 S
H1091 C1114 0.950 . S
H1092 C1115 0.950 . S
H1093 C1117 0.950 . S
H1094 C1118 0.950 . S
H1095 C1119 0.951 . S
H1096 C1121 0.951 . S
H1097 C1123 0.950 . S
H1098 C1124 0.950 . S
H1099 C1126 0.950 . S
H1100 C1129 0.950 . S
H1101 C1130 0.950 . S
H1102 C1132 0.950 . S
H1103 C1133 0.950 . S
C1104 H1086 0.951 . S
C1104 C1105 1.366 . S
C1104 C1106 1.388 . S
C1105 C1104 1.366 . S
C1105 C1109 1.385 . S
C1106 H1087 0.951 1_455 S
C1106 C1104 1.388 . S
C1106 C1107 1.366 . S
C1107 C1106 1.366 . S
C1107 C1108 1.414 . S
C1107 C1110 1.499 1_455 S
C1108 H1088 0.950 . S
C1108 C1107 1.414 . S
C1108 C1109 1.374 . S
C1109 H1089 0.950 . S
C1109 C1105 1.385 . S
C1109 C1108 1.374 . S
C1110 C1107 1.499 1_655 S
C1110 C1111 1.373 . S
C1110 C1112 1.389 . S
C1111 H1090 0.950 1_655 S
C1111 C1110 1.373 . S
C1111 C1127 1.377 . S
C1112 C1110 1.389 . S
C1112 C1113 1.524 . S
C1112 C1126 1.377 . S
C1113 C1112 1.524 . S
C1113 C1114 1.397 . S
C1113 C1118 1.363 . S
C1114 H1091 0.950 . S
C1114 C1113 1.397 . S
C1114 C1115 1.334 . S
C1115 H1092 0.950 . S
C1115 C1114 1.334 . S
C1115 C1116 1.287 . S
C1116 C1115 1.287 . S
C1116 C1117 1.524 . S
C1116 H1135 0.913 . S
C1117 H1093 0.950 . S
C1117 C1116 1.524 . S
C1117 C1118 1.415 . S
C1118 H1094 0.950 . S
C1118 C1113 1.363 . S
C1118 C1117 1.415 . S
C1119 H1095 0.951 . S
C1119 C1120 1.366 . S
C1119 C1121 1.388 . S
C1120 C1119 1.366 . S
C1120 C1124 1.385 . S
C1121 H1096 0.951 . S
C1121 C1119 1.388 . S
C1121 C1122 1.366 . S
C1122 C1121 1.366 . S
C1122 C1123 1.414 . S
C1122 C1125 1.499 . S
C1123 H1097 0.950 . S
C1123 C1122 1.414 . S
C1123 C1124 1.374 . S
C1124 H1098 0.950 . S
C1124 C1120 1.385 . S
C1124 C1123 1.374 . S
C1125 C1122 1.499 . S
C1125 C1126 1.373 . S
C1125 C1127 1.389 . S
C1126 H1099 0.950 . S
C1126 C1112 1.377 . S
C1126 C1125 1.373 . S
C1127 C1111 1.377 . S
C1127 C1125 1.389 . S
C1127 C1128 1.524 . S
C1128 C1127 1.524 . S
C1128 C1129 1.397 . S
C1128 C1133 1.363 1_655 S
C1129 H1100 0.950 . S
C1129 C1128 1.397 . S
C1129 C1130 1.334 . S
C1130 H1101 0.950 . S
C1130 C1129 1.334 . S
C1130 C1131 1.287 1_655 S
C1131 C1130 1.287 1_455 S
C1131 C1132 1.524 . S
C1131 H1134 0.999 . S
C1132 H1102 0.950 . S
C1132 C1131 1.524 . S
C1132 C1133 1.415 . S
C1133 H1103 0.950 . S
C1133 C1128 1.363 1_455 S
C1133 C1132 1.415 . S
H1134 C1131 0.999 . S
H1135 C1116 0.913 . S
H1136 C1154 0.951 . S
H1137 C1156 0.951 . S
H1138 C1158 0.950 . S
H1139 C1159 0.950 . S
H1140 C1161 0.950 . S
H1141 C1164 0.950 . S
H1142 C1165 0.950 . S
H1143 C1167 0.950 . S
H1144 C1168 0.950 . S
H1145 C1169 0.951 . S
H1146 C1171 0.951 1_565 S
H1147 C1173 0.950 . S
H1148 C1174 0.950 . S
H1149 C1176 0.950 . S
H1150 C1179 0.950 . S
H1151 C1180 0.950 . S
H1152 C1182 0.950 1_565 S
H1153 C1183 0.950 . S
C1154 H1136 0.951 . S
C1154 C1155 1.366 . S
C1154 C1156 1.388 . S
C1155 C1154 1.366 . S
C1155 C1159 1.385 . S
C1156 H1137 0.951 . S
C1156 C1154 1.388 . S
C1156 C1157 1.366 . S
C1157 C1156 1.366 . S
C1157 C1158 1.414 . S
C1157 C1160 1.499 . S
C1158 H1138 0.950 . S
C1158 C1157 1.414 . S
C1158 C1159 1.374 . S
C1159 H1139 0.950 . S
C1159 C1155 1.385 . S
C1159 C1158 1.374 . S
C1160 C1157 1.499 . S
C1160 C1161 1.373 . S
C1160 C1162 1.389 . S
C1161 H1140 0.950 . S
C1161 C1160 1.373 . S
C1161 C1177 1.377 . S
C1162 C1160 1.389 . S
C1162 C1163 1.524 . S
C1162 C1176 1.377 . S
C1163 C1162 1.524 . S
C1163 C1164 1.397 . S
C1163 C1168 1.363 . S
C1164 H1141 0.950 . S
C1164 C1163 1.397 . S
C1164 C1165 1.334 . S
C1165 H1142 0.950 . S
C1165 C1164 1.334 . S
C1165 C1166 1.287 . S
C1166 C1165 1.287 . S
C1166 C1167 1.524 . S
C1166 H1185 0.913 . S
C1167 H1143 0.950 . S
C1167 C1166 1.524 . S
C1167 C1168 1.415 . S
C1168 H1144 0.950 . S
C1168 C1163 1.363 . S
C1168 C1167 1.415 . S
C1169 H1145 0.951 . S
C1169 C1170 1.366 . S
C1169 C1171 1.388 . S
C1170 C1169 1.366 . S
C1170 C1174 1.385 . S
C1171 H1146 0.951 1_545 S
C1171 C1169 1.388 . S
C1171 C1172 1.366 . S
C1172 C1171 1.366 . S
C1172 C1173 1.414 . S
C1172 C1175 1.499 1_545 S
C1173 H1147 0.950 . S
C1173 C1172 1.414 . S
C1173 C1174 1.374 . S
C1174 H1148 0.950 . S
C1174 C1170 1.385 . S
C1174 C1173 1.374 . S
C1175 C1172 1.499 1_565 S
C1175 C1176 1.373 . S
C1175 C1177 1.389 . S
C1176 H1149 0.950 . S
C1176 C1162 1.377 . S
C1176 C1175 1.373 . S
C1177 C1161 1.377 . S
C1177 C1175 1.389 . S
C1177 C1178 1.544 . S
C1178 C1177 1.544 . S
C1178 C1179 1.359 1_565 S
C1178 C1183 1.382 . S
C1179 H1150 0.950 . S
C1179 C1178 1.359 1_545 S
C1179 C1180 1.334 . S
C1180 H1151 0.950 . S
C1180 C1179 1.334 . S
C1180 C1181 1.287 . S
C1181 C1180 1.287 . S
C1181 C1182 1.523 . S
C1181 H1184 0.999 . S
C1182 H1152 0.950 1_545 S
C1182 C1181 1.523 . S
C1182 C1183 1.415 1_545 S
C1183 H1153 0.950 . S
C1183 C1178 1.382 . S
C1183 C1182 1.415 1_565 S
H1184 C1181 0.999 . S
H1185 C1166 0.913 . S
H1186 C1204 0.951 . S
H1187 C1206 0.951 . S
H1188 C1208 0.950 . S
H1189 C1209 0.950 . S
H1190 C1211 0.950 . S
H1191 C1214 0.950 . S
H1192 C1215 0.950 . S
H1193 C1217 0.950 . S
H1194 C1218 0.950 . S
H1195 C1219 0.951 . S
H1196 C1221 0.951 . S
H1197 C1223 0.950 . S
H1198 C1224 0.950 . S
H1199 C1226 0.950 . S
H1200 C1229 0.950 . S
H1201 C1230 0.950 . S
H1202 C1232 0.950 . S
H1203 C1233 0.950 . S
C1204 H1186 0.951 . S
C1204 C1205 1.366 . S
C1204 C1206 1.388 . S
C1205 C1204 1.366 . S
C1205 C1209 1.385 . S
C1206 H1187 0.951 . S
C1206 C1204 1.388 . S
C1206 C1207 1.366 . S
C1207 C1206 1.366 . S
C1207 C1208 1.414 . S
C1207 C1210 1.499 . S
C1208 H1188 0.950 . S
C1208 C1207 1.414 . S
C1208 C1209 1.374 . S
C1209 H1189 0.950 . S
C1209 C1205 1.385 . S
C1209 C1208 1.374 . S
C1210 C1207 1.499 . S
C1210 C1211 1.373 . S
C1210 C1212 1.389 . S
C1211 H1190 0.950 . S
C1211 C1210 1.373 . S
C1211 C1227 1.377 . S
C1212 C1210 1.389 . S
C1212 C1213 1.524 . S
C1212 C1226 1.377 . S
C1213 C1212 1.524 . S
C1213 C1214 1.397 . S
C1213 C1218 1.363 . S
C1214 H1191 0.950 . S
C1214 C1213 1.397 . S
C1214 C1215 1.334 . S
C1215 H1192 0.950 . S
C1215 C1214 1.334 . S
C1215 C1216 1.287 . S
C1216 C1215 1.287 . S
C1216 C1217 1.524 . S
C1216 H1235 0.913 . S
C1217 H1193 0.950 . S
C1217 C1216 1.524 . S
C1217 C1218 1.415 . S
C1218 H1194 0.950 . S
C1218 C1213 1.363 . S
C1218 C1217 1.415 . S
C1219 H1195 0.951 . S
C1219 C1220 1.366 . S
C1219 C1221 1.388 . S
C1220 C1219 1.366 . S
C1220 C1224 1.385 . S
C1221 H1196 0.951 . S
C1221 C1219 1.388 . S
C1221 C1222 1.366 . S
C1222 C1221 1.366 . S
C1222 C1223 1.414 1_455 S
C1222 C1225 1.499 1_455 S
C1223 H1197 0.950 . S
C1223 C1222 1.414 1_655 S
C1223 C1224 1.374 1_655 S
C1224 H1198 0.950 . S
C1224 C1220 1.385 . S
C1224 C1223 1.374 1_455 S
C1225 C1222 1.499 1_655 S
C1225 C1226 1.373 . S
C1225 C1227 1.389 . S
C1226 H1199 0.950 . S
C1226 C1212 1.377 . S
C1226 C1225 1.373 . S
C1227 C1211 1.377 . S
C1227 C1225 1.389 . S
C1227 C1228 1.524 1_655 S
C1228 C1227 1.524 1_455 S
C1228 C1229 1.397 1_455 S
C1228 C1233 1.363 . S
C1229 H1200 0.950 . S
C1229 C1228 1.397 1_655 S
C1229 C1230 1.334 1_655 S
C1230 H1201 0.950 . S
C1230 C1229 1.334 1_455 S
C1230 C1231 1.287 . S
C1231 C1230 1.287 . S
C1231 C1232 1.524 . S
C1231 H1234 0.999 . S
C1232 H1202 0.950 . S
C1232 C1231 1.524 . S
C1232 C1233 1.415 . S
C1233 H1203 0.950 . S
C1233 C1228 1.363 . S
C1233 C1232 1.415 . S
H1234 C1231 0.999 . S
H1235 C1216 0.913 . S
H1236 C1254 0.951 . S
H1237 C1256 0.951 . S
H1238 C1258 0.950 . S
H1239 C1259 0.950 . S
H1240 C1261 0.950 1_565 S
H1241 C1264 0.950 . S
H1242 C1265 0.950 . S
H1243 C1267 0.950 . S
H1244 C1268 0.950 . S
H1245 C1269 0.951 . S
H1246 C1271 0.951 . S
H1247 C1273 0.950 . S
H1248 C1274 0.950 . S
H1249 C1276 0.950 . S
H1250 C1279 0.950 . S
H1251 C1280 0.950 . S
H1252 C1282 0.949 . S
H1253 C1283 0.950 . S
C1254 H1236 0.951 . S
C1254 C1255 1.366 . S
C1254 C1256 1.388 . S
C1255 C1254 1.366 . S
C1255 C1259 1.385 . S
C1256 H1237 0.951 . S
C1256 C1254 1.388 . S
C1256 C1257 1.366 . S
C1257 C1256 1.366 . S
C1257 C1258 1.414 . S
C1257 C1260 1.499 1_565 S
C1258 H1238 0.950 . S
C1258 C1257 1.414 . S
C1258 C1259 1.374 . S
C1259 H1239 0.950 . S
C1259 C1255 1.385 . S
C1259 C1258 1.374 . S
C1260 C1257 1.499 1_545 S
C1260 C1261 1.373 . S
C1260 C1262 1.389 . S
C1261 H1240 0.950 1_545 S
C1261 C1260 1.373 . S
C1261 C1277 1.377 . S
C1262 C1260 1.389 . S
C1262 C1263 1.524 . S
C1262 C1276 1.377 . S
C1263 C1262 1.524 . S
C1263 C1264 1.397 . S
C1263 C1268 1.363 . S
C1264 H1241 0.950 . S
C1264 C1263 1.397 . S
C1264 C1265 1.334 . S
C1265 H1242 0.950 . S
C1265 C1264 1.334 . S
C1265 C1266 1.287 . S
C1266 C1265 1.287 . S
C1266 C1267 1.524 . S
C1266 H1285 0.913 . S
C1267 H1243 0.950 . S
C1267 C1266 1.524 . S
C1267 C1268 1.415 . S
C1268 H1244 0.950 . S
C1268 C1263 1.363 . S
C1268 C1267 1.415 . S
C1269 H1245 0.951 . S
C1269 C1270 1.366 . S
C1269 C1271 1.388 . S
C1270 C1269 1.366 . S
C1270 C1274 1.385 . S
C1271 H1246 0.951 . S
C1271 C1269 1.388 . S
C1271 C1272 1.366 . S
C1272 C1271 1.366 . S
C1272 C1273 1.414 . S
C1272 C1275 1.499 . S
C1273 H1247 0.950 . S
C1273 C1272 1.414 . S
C1273 C1274 1.374 . S
C1274 H1248 0.950 . S
C1274 C1270 1.385 . S
C1274 C1273 1.374 . S
C1275 C1272 1.499 . S
C1275 C1276 1.373 . S
C1275 C1277 1.389 . S
C1276 H1249 0.950 . S
C1276 C1262 1.377 . S
C1276 C1275 1.373 . S
C1277 C1261 1.377 . S
C1277 C1275 1.389 . S
C1277 C1278 1.524 . S
C1278 C1277 1.524 . S
C1278 C1279 1.397 . S
C1278 C1283 1.363 . S
C1279 H1250 0.950 . S
C1279 C1278 1.397 . S
C1279 C1280 1.334 . S
C1280 H1251 0.950 . S
C1280 C1279 1.334 . S
C1280 C1281 1.279 1_545 S
C1281 C1280 1.279 1_565 S
C1281 C1282 1.520 1_565 S
C1281 H1284 1.011 . S
C1282 H1252 0.949 . S
C1282 C1281 1.520 1_545 S
C1282 C1283 1.415 . S
C1283 H1253 0.950 . S
C1283 C1278 1.363 . S
C1283 C1282 1.415 . S
H1284 C1281 1.011 . S
H1285 C1266 0.913 . S
H1286 C1304 0.951 . S
H1287 C1306 0.951 . S
H1288 C1308 0.950 . S
H1289 C1309 0.950 . S
H1290 C1311 0.950 . S
H1291 C1314 0.950 . S
H1292 C1315 0.950 . S
H1293 C1317 0.950 . S
H1294 C1318 0.950 . S
H1295 C1319 0.951 . S
H1296 C1321 0.951 . S
H1297 C1323 0.950 1_455 S
H1298 C1324 0.950 . S
H1299 C1326 0.950 . S
H1300 C1329 0.950 . S
H1301 C1330 0.950 . S
H1302 C1332 0.950 . S
H1303 C1333 0.950 . S
C1304 H1286 0.951 . S
C1304 C1305 1.366 . S
C1304 C1306 1.388 . S
C1305 C1304 1.366 . S
C1305 C1309 1.385 . S
C1306 H1287 0.951 . S
C1306 C1304 1.388 . S
C1306 C1307 1.366 . S
C1307 C1306 1.366 . S
C1307 C1308 1.414 . S
C1307 C1310 1.499 . S
C1308 H1288 0.950 . S
C1308 C1307 1.414 . S
C1308 C1309 1.374 . S
C1309 H1289 0.950 . S
C1309 C1305 1.385 . S
C1309 C1308 1.374 . S
C1310 C1307 1.499 . S
C1310 C1311 1.373 . S
C1310 C1312 1.389 . S
C1311 H1290 0.950 . S
C1311 C1310 1.373 . S
C1311 C1327 1.377 . S
C1312 C1310 1.389 . S
C1312 C1313 1.524 . S
C1312 C1326 1.377 . S
C1313 C1312 1.524 . S
C1313 C1314 1.397 . S
C1313 C1318 1.363 . S
C1314 H1291 0.950 . S
C1314 C1313 1.397 . S
C1314 C1315 1.334 . S
C1315 H1292 0.950 . S
C1315 C1314 1.334 . S
C1315 C1316 1.287 . S
C1316 C1315 1.287 . S
C1316 C1317 1.524 . S
C1316 H1335 0.913 . S
C1317 H1293 0.950 . S
C1317 C1316 1.524 . S
C1317 C1318 1.415 . S
C1318 H1294 0.950 . S
C1318 C1313 1.363 . S
C1318 C1317 1.415 . S
C1319 H1295 0.951 . S
C1319 C1320 1.366 . S
C1319 C1321 1.388 . S
C1320 C1319 1.366 . S
C1320 C1324 1.385 . S
C1321 H1296 0.951 . S
C1321 C1319 1.388 . S
C1321 C1322 1.366 . S
C1322 C1321 1.366 . S
C1322 C1323 1.414 . S
C1322 C1325 1.499 1_655 S
C1323 H1297 0.950 1_655 S
C1323 C1322 1.414 . S
C1323 C1324 1.374 . S
C1324 H1298 0.950 . S
C1324 C1320 1.385 . S
C1324 C1323 1.374 . S
C1325 C1322 1.499 1_455 S
C1325 C1326 1.373 . S
C1325 C1327 1.389 . S
C1326 H1299 0.950 . S
C1326 C1312 1.377 . S
C1326 C1325 1.373 . S
C1327 C1311 1.377 . S
C1327 C1325 1.389 . S
C1327 C1328 1.524 . S
C1328 C1327 1.524 . S
C1328 C1329 1.397 . S
C1328 C1333 1.363 1_455 S
C1329 H1300 0.950 . S
C1329 C1328 1.397 . S
C1329 C1330 1.334 . S
C1330 H1301 0.950 . S
C1330 C1329 1.334 . S
C1330 C1331 1.287 1_455 S
C1331 C1330 1.287 1_655 S
C1331 C1332 1.524 . S
C1331 H1334 0.999 . S
C1332 H1302 0.950 . S
C1332 C1331 1.524 . S
C1332 C1333 1.415 . S
C1333 H1303 0.950 . S
C1333 C1328 1.363 1_655 S
C1333 C1332 1.415 . S
H1334 C1331 0.999 . S
H1335 C1316 0.913 . S
H1336 C1354 0.951 . S
H1337 C1356 0.951 1_554 S
H1338 C1358 0.950 . S
H1339 C1359 0.950 . S
H1340 C1361 0.950 1_556 S
H1341 C1364 0.950 . S
H1342 C1365 0.950 . S
H1343 C1367 0.950 . S
H1344 C1368 0.950 . S
H1345 C1369 0.951 . S
H1346 C1371 0.951 . S
H1347 C1373 0.950 . S
H1348 C1374 0.950 . S
H1349 C1376 0.950 . S
H1350 C1379 0.950 . S
H1351 C1380 0.950 . S
H1352 C1382 0.950 . S
H1353 C1383 0.950 . S
C1354 H1336 0.951 . S
C1354 C1355 1.366 . S
C1354 C1356 1.388 . S
C1355 C1354 1.366 . S
C1355 C1359 1.385 . S
C1356 H1337 0.951 1_556 S
C1356 C1354 1.388 . S
C1356 C1357 1.366 . S
C1357 C1356 1.366 . S
C1357 C1358 1.414 . S
C1357 C1360 1.499 1_556 S
C1358 H1338 0.950 . S
C1358 C1357 1.414 . S
C1358 C1359 1.374 . S
C1359 H1339 0.950 . S
C1359 C1355 1.385 . S
C1359 C1358 1.374 . S
C1360 C1357 1.499 1_554 S
C1360 C1361 1.373 . S
C1360 C1362 1.389 . S
C1361 H1340 0.950 1_554 S
C1361 C1360 1.373 . S
C1361 C1377 1.377 . S
C1362 C1360 1.389 . S
C1362 C1363 1.524 . S
C1362 C1376 1.377 . S
C1363 C1362 1.524 . S
C1363 C1364 1.397 . S
C1363 C1368 1.363 . S
C1364 H1341 0.950 . S
C1364 C1363 1.397 . S
C1364 C1365 1.334 . S
C1365 H1342 0.950 . S
C1365 C1364 1.334 . S
C1365 C1366 1.287 . S
C1366 C1365 1.287 . S
C1366 C1367 1.524 . S
C1366 H1385 0.913 . S
C1367 H1343 0.950 . S
C1367 C1366 1.524 . S
C1367 C1368 1.415 . S
C1368 H1344 0.950 . S
C1368 C1363 1.363 . S
C1368 C1367 1.415 . S
C1369 H1345 0.951 . S
C1369 C1370 1.366 . S
C1369 C1371 1.388 . S
C1370 C1369 1.366 . S
C1370 C1374 1.385 . S
C1371 H1346 0.951 . S
C1371 C1369 1.388 . S
C1371 C1372 1.366 . S
C1372 C1371 1.366 . S
C1372 C1373 1.414 . S
C1372 C1375 1.499 . S
C1373 H1347 0.950 . S
C1373 C1372 1.414 . S
C1373 C1374 1.374 . S
C1374 H1348 0.950 . S
C1374 C1370 1.385 . S
C1374 C1373 1.374 . S
C1375 C1372 1.499 . S
C1375 C1376 1.373 . S
C1375 C1377 1.389 . S
C1376 H1349 0.950 . S
C1376 C1362 1.377 . S
C1376 C1375 1.373 . S
C1377 C1361 1.377 . S
C1377 C1375 1.389 . S
C1377 C1378 1.524 . S
C1378 C1377 1.524 . S
C1378 C1379 1.397 . S
C1378 C1383 1.363 1_554 S
C1379 H1350 0.950 . S
C1379 C1378 1.397 . S
C1379 C1380 1.334 . S
C1380 H1351 0.950 . S
C1380 C1379 1.334 . S
C1380 C1381 1.287 1_554 S
C1381 C1380 1.287 1_556 S
C1381 C1382 1.524 . S
C1381 H1384 0.999 . S
C1382 H1352 0.950 . S
C1382 C1381 1.524 . S
C1382 C1383 1.415 . S
C1383 H1353 0.950 . S
C1383 C1378 1.363 1_556 S
C1383 C1382 1.415 . S
H1384 C1381 0.999 . S
H1385 C1366 0.913 . S
H1386 C1404 0.951 . S
H1387 C1406 0.951 . S
H1388 C1408 0.951 1_556 S
H1389 C1409 0.950 . S
H1390 C1411 0.950 . S
H1391 C1414 0.950 . S
H1392 C1415 0.950 . S
H1393 C1417 0.950 . S
H1394 C1418 0.950 . S
H1395 C1419 0.951 . S
H1396 C1421 0.951 . S
H1397 C1423 0.950 . S
H1398 C1424 0.950 . S
H1399 C1426 0.950 . S
H1400 C1429 0.950 . S
H1401 C1430 0.950 . S
H1402 C1432 0.950 . S
H1403 C1433 0.950 . S
C1404 H1386 0.951 . S
C1404 C1405 1.366 . S
C1404 C1406 1.388 . S
C1405 C1404 1.366 . S
C1405 C1409 1.385 . S
C1406 H1387 0.951 . S
C1406 C1404 1.388 . S
C1406 C1407 1.366 . S
C1407 C1406 1.366 . S
C1407 C1408 1.414 . S
C1407 C1410 1.499 1_554 S
C1408 H1388 0.951 1_554 S
C1408 C1407 1.414 . S
C1408 C1409 1.373 . S
C1409 H1389 0.950 . S
C1409 C1405 1.385 . S
C1409 C1408 1.373 . S
C1410 C1407 1.499 1_556 S
C1410 C1411 1.373 . S
C1410 C1412 1.389 . S
C1411 H1390 0.950 . S
C1411 C1410 1.373 . S
C1411 C1427 1.377 . S
C1412 C1410 1.389 . S
C1412 C1413 1.524 . S
C1412 C1426 1.377 . S
C1413 C1412 1.524 . S
C1413 C1414 1.397 . S
C1413 C1418 1.363 1_556 S
C1414 H1391 0.950 . S
C1414 C1413 1.397 . S
C1414 C1415 1.334 . S
C1415 H1392 0.950 . S
C1415 C1414 1.334 . S
C1415 C1416 1.287 1_556 S
C1416 C1415 1.287 1_554 S
C1416 C1417 1.524 . S
C1416 H1435 0.913 . S
C1417 H1393 0.950 . S
C1417 C1416 1.524 . S
C1417 C1418 1.415 . S
C1418 H1394 0.950 . S
C1418 C1413 1.363 1_554 S
C1418 C1417 1.415 . S
C1419 H1395 0.951 . S
C1419 C1420 1.366 . S
C1419 C1421 1.388 . S
C1420 C1419 1.366 . S
C1420 C1424 1.385 . S
C1421 H1396 0.951 . S
C1421 C1419 1.388 . S
C1421 C1422 1.366 . S
C1422 C1421 1.366 . S
C1422 C1423 1.414 . S
C1422 C1425 1.499 . S
C1423 H1397 0.950 . S
C1423 C1422 1.414 . S
C1423 C1424 1.374 . S
C1424 H1398 0.950 . S
C1424 C1420 1.385 . S
C1424 C1423 1.374 . S
C1425 C1422 1.499 . S
C1425 C1426 1.373 . S
C1425 C1427 1.389 . S
C1426 H1399 0.950 . S
C1426 C1412 1.377 . S
C1426 C1425 1.373 . S
C1427 C1411 1.377 . S
C1427 C1425 1.389 . S
C1427 C1428 1.524 . S
C1428 C1427 1.524 . S
C1428 C1429 1.397 . S
C1428 C1433 1.363 . S
C1429 H1400 0.950 . S
C1429 C1428 1.397 . S
C1429 C1430 1.334 . S
C1430 H1401 0.950 . S
C1430 C1429 1.334 . S
C1430 C1431 1.287 . S
C1431 C1430 1.287 . S
C1431 C1432 1.524 . S
C1431 H1434 0.999 . S
C1432 H1402 0.950 . S
C1432 C1431 1.524 . S
C1432 C1433 1.415 . S
C1433 H1403 0.950 . S
C1433 C1428 1.363 . S
C1433 C1432 1.415 . S
H1434 C1431 0.999 . S
H1435 C1416 0.913 . S
H1436 C1454 0.951 . S
H1437 C1456 0.951 1_554 S
H1438 C1458 0.950 . S
H1439 C1459 0.950 . S
H1440 C1461 0.950 . S
H1441 C1464 0.950 . S
H1442 C1465 0.950 . S
H1443 C1467 0.950 . S
H1444 C1468 0.950 . S
H1445 C1469 0.951 . S
H1446 C1471 0.951 . S
H1447 C1473 0.950 . S
H1448 C1474 0.950 . S
H1449 C1476 0.950 . S
H1450 C1479 0.950 . S
H1451 C1480 0.950 . S
H1452 C1482 0.950 . S
H1453 C1483 0.950 . S
C1454 H1436 0.951 . S
C1454 C1455 1.366 . S
C1454 C1456 1.388 . S
C1455 C1454 1.366 . S
C1455 C1459 1.385 . S
C1456 H1437 0.951 1_556 S
C1456 C1454 1.388 . S
C1456 C1457 1.366 . S
C1457 C1456 1.366 . S
C1457 C1458 1.414 . S
C1457 C1460 1.499 1_556 S
C1458 H1438 0.950 . S
C1458 C1457 1.414 . S
C1458 C1459 1.374 . S
C1459 H1439 0.950 . S
C1459 C1455 1.385 . S
C1459 C1458 1.374 . S
C1460 C1457 1.499 1_554 S
C1460 C1461 1.373 . S
C1460 C1462 1.389 . S
C1461 H1440 0.950 . S
C1461 C1460 1.373 . S
C1461 C1477 1.377 . S
C1462 C1460 1.389 . S
C1462 C1463 1.524 . S
C1462 C1476 1.377 . S
C1463 C1462 1.524 . S
C1463 C1464 1.397 1_554 S
C1463 C1468 1.363 . S
C1464 H1441 0.950 . S
C1464 C1463 1.397 1_556 S
C1464 C1465 1.334 . S
C1465 H1442 0.950 . S
C1465 C1464 1.334 . S
C1465 C1466 1.287 . S
C1466 C1465 1.287 . S
C1466 C1467 1.524 1_556 S
C1466 H1485 0.913 . S
C1467 H1443 0.950 . S
C1467 C1466 1.524 1_554 S
C1467 C1468 1.415 . S
C1468 H1444 0.950 . S
C1468 C1463 1.363 . S
C1468 C1467 1.415 . S
C1469 H1445 0.951 . S
C1469 C1470 1.366 . S
C1469 C1471 1.388 . S
C1470 C1469 1.366 . S
C1470 C1474 1.385 . S
C1471 H1446 0.951 . S
C1471 C1469 1.388 . S
C1471 C1472 1.366 . S
C1472 C1471 1.366 . S
C1472 C1473 1.414 . S
C1472 C1475 1.499 . S
C1473 H1447 0.950 . S
C1473 C1472 1.414 . S
C1473 C1474 1.374 . S
C1474 H1448 0.950 . S
C1474 C1470 1.385 . S
C1474 C1473 1.374 . S
C1475 C1472 1.499 . S
C1475 C1476 1.373 . S
C1475 C1477 1.389 . S
C1476 H1449 0.950 . S
C1476 C1462 1.377 . S
C1476 C1475 1.373 . S
C1477 C1461 1.377 . S
C1477 C1475 1.389 . S
C1477 C1478 1.524 . S
C1478 C1477 1.524 . S
C1478 C1479 1.397 . S
C1478 C1483 1.363 . S
C1479 H1450 0.950 . S
C1479 C1478 1.397 . S
C1479 C1480 1.334 . S
C1480 H1451 0.950 . S
C1480 C1479 1.334 . S
C1480 C1481 1.287 . S
C1481 C1480 1.287 . S
C1481 C1482 1.524 . S
C1481 H1484 0.999 . S
C1482 H1452 0.950 . S
C1482 C1481 1.524 . S
C1482 C1483 1.415 . S
C1483 H1453 0.950 . S
C1483 C1478 1.363 . S
C1483 C1482 1.415 . S
H1484 C1481 0.999 . S
H1485 C1466 0.913 . S
H1486 C1504 0.951 . S
H1487 C1506 0.951 . S
H1488 C1508 0.950 . S
H1489 C1509 0.950 . S
H1490 C1511 0.950 . S
H1491 C1514 0.983 . S
H1492 C1515 0.950 . S
H1493 C1517 0.950 . S
H1494 C1518 0.950 . S
H1495 C1519 0.951 . S
H1496 C1521 0.951 . S
H1497 C1523 0.950 . S
H1498 C1524 0.950 . S
H1499 C1526 0.950 . S
H1500 C1529 0.950 . S
H1501 C1530 0.950 . S
H1502 C1532 0.950 . S
H1503 C1533 0.950 1_554 S
C1504 H1486 0.951 . S
C1504 C1505 1.366 . S
C1504 C1506 1.388 1_554 S
C1505 C1504 1.366 . S
C1505 C1509 1.385 . S
C1506 H1487 0.951 . S
C1506 C1504 1.388 1_556 S
C1506 C1507 1.366 1_556 S
C1507 C1506 1.366 1_554 S
C1507 C1508 1.414 . S
C1507 C1510 1.499 1_554 S
C1508 H1488 0.950 . S
C1508 C1507 1.414 . S
C1508 C1509 1.374 . S
C1509 H1489 0.950 . S
C1509 C1505 1.385 . S
C1509 C1508 1.374 . S
C1510 C1507 1.499 1_556 S
C1510 C1511 1.373 . S
C1510 C1512 1.389 . S
C1511 H1490 0.950 . S
C1511 C1510 1.373 . S
C1511 C1527 1.377 . S
C1512 C1510 1.389 . S
C1512 C1513 1.524 . S
C1512 C1526 1.377 . S
C1513 C1512 1.524 . S
C1513 C1514 1.356 1_556 S
C1513 C1518 1.363 . S
C1514 H1491 0.983 . S
C1514 C1513 1.356 1_554 S
C1514 C1515 1.342 . S
C1515 H1492 0.950 . S
C1515 C1514 1.342 . S
C1515 C1516 1.287 1_554 S
C1516 C1515 1.287 1_556 S
C1516 C1517 1.524 . S
C1516 H1535 0.913 . S
C1517 H1493 0.950 . S
C1517 C1516 1.524 . S
C1517 C1518 1.415 . S
C1518 H1494 0.950 . S
C1518 C1513 1.363 . S
C1518 C1517 1.415 . S
C1519 H1495 0.951 . S
C1519 C1520 1.366 . S
C1519 C1521 1.388 . S
C1520 C1519 1.366 . S
C1520 C1524 1.385 . S
C1521 H1496 0.951 . S
C1521 C1519 1.388 . S
C1521 C1522 1.366 . S
C1522 C1521 1.366 . S
C1522 C1523 1.414 . S
C1522 C1525 1.499 . S
C1523 H1497 0.950 . S
C1523 C1522 1.414 . S
C1523 C1524 1.374 . S
C1524 H1498 0.950 . S
C1524 C1520 1.385 . S
C1524 C1523 1.374 . S
C1525 C1522 1.499 . S
C1525 C1526 1.373 . S
C1525 C1527 1.389 . S
C1526 H1499 0.950 . S
C1526 C1512 1.377 . S
C1526 C1525 1.373 . S
C1527 C1511 1.377 . S
C1527 C1525 1.389 . S
C1527 C1528 1.524 . S
C1528 C1527 1.524 . S
C1528 C1529 1.397 . S
C1528 C1533 1.363 . S
C1529 H1500 0.950 . S
C1529 C1528 1.397 . S
C1529 C1530 1.334 . S
C1530 H1501 0.950 . S
C1530 C1529 1.334 . S
C1530 C1531 1.287 . S
C1531 C1530 1.287 . S
C1531 C1532 1.524 . S
C1531 H1534 0.999 . S
C1532 H1502 0.950 . S
C1532 C1531 1.524 . S
C1532 C1533 1.415 . S
C1533 H1503 0.950 1_556 S
C1533 C1528 1.363 . S
C1533 C1532 1.415 . S
H1534 C1531 0.999 . S
H1535 C1516 0.913 . S
H1536 C1554 0.951 . S
H1537 C1556 0.951 . S
H1538 C1558 0.950 . S
H1539 C1559 0.950 . S
H1540 C1561 0.950 . S
H1541 C1564 0.950 . S
H1542 C1565 0.950 . S
H1543 C1567 0.950 . S
H1544 C1568 0.950 . S
H1545 C1569 0.951 . S
H1546 C1571 0.951 . S
H1547 C1573 0.950 . S
H1548 C1574 0.950 . S
H1549 C1576 0.950 . S
H1550 C1579 0.950 . S
H1551 C1580 0.950 . S
H1552 C1582 0.950 . S
H1553 C1583 0.950 . S
C1554 H1536 0.951 . S
C1554 C1555 1.366 . S
C1554 C1556 1.388 . S
C1555 C1554 1.366 . S
C1555 C1559 1.385 . S
C1556 H1537 0.951 . S
C1556 C1554 1.388 . S
C1556 C1557 1.366 . S
C1557 C1556 1.366 . S
C1557 C1558 1.414 . S
C1557 C1560 1.499 . S
C1558 H1538 0.950 . S
C1558 C1557 1.414 . S
C1558 C1559 1.374 . S
C1559 H1539 0.950 . S
C1559 C1555 1.385 . S
C1559 C1558 1.374 . S
C1560 C1557 1.499 . S
C1560 C1561 1.373 . S
C1560 C1562 1.389 . S
C1561 H1540 0.950 . S
C1561 C1560 1.373 . S
C1561 C1577 1.377 . S
C1562 C1560 1.389 . S
C1562 C1563 1.524 . S
C1562 C1576 1.377 . S
C1563 C1562 1.524 . S
C1563 C1564 1.397 . S
C1563 C1568 1.363 . S
C1564 H1541 0.950 . S
C1564 C1563 1.397 . S
C1564 C1565 1.334 . S
C1565 H1542 0.950 . S
C1565 C1564 1.334 . S
C1565 C1566 1.287 . S
C1566 C1565 1.287 . S
C1566 C1567 1.524 . S
C1566 H1585 0.913 . S
C1567 H1543 0.950 . S
C1567 C1566 1.524 . S
C1567 C1568 1.415 . S
C1568 H1544 0.950 . S
C1568 C1563 1.363 . S
C1568 C1567 1.415 . S
C1569 H1545 0.951 . S
C1569 C1570 1.366 . S
C1569 C1571 1.388 . S
C1570 C1569 1.366 . S
C1570 C1574 1.385 . S
C1571 H1546 0.951 . S
C1571 C1569 1.388 . S
C1571 C1572 1.366 . S
C1572 C1571 1.366 . S
C1572 C1573 1.414 . S
C1572 C1575 1.499 . S
C1573 H1547 0.950 . S
C1573 C1572 1.414 . S
C1573 C1574 1.374 . S
C1574 H1548 0.950 . S
C1574 C1570 1.385 . S
C1574 C1573 1.374 . S
C1575 C1572 1.499 . S
C1575 C1576 1.373 . S
C1575 C1577 1.389 . S
C1576 H1549 0.950 . S
C1576 C1562 1.377 . S
C1576 C1575 1.373 . S
C1577 C1561 1.377 . S
C1577 C1575 1.389 . S
C1577 C1578 1.524 . S
C1578 C1577 1.524 . S
C1578 C1579 1.397 . S
C1578 C1583 1.363 . S
C1579 H1550 0.950 . S
C1579 C1578 1.397 . S
C1579 C1580 1.334 . S
C1580 H1551 0.950 . S
C1580 C1579 1.334 . S
C1580 C1581 1.287 . S
C1581 C1580 1.287 . S
C1581 C1582 1.524 . S
C1581 H1584 0.999 . S
C1582 H1552 0.950 . S
C1582 C1581 1.524 . S
C1582 C1583 1.415 . S
C1583 H1553 0.950 . S
C1583 C1578 1.363 . S
C1583 C1582 1.415 . S
H1584 C1581 0.999 . S
H1585 C1566 0.913 . S
H1586 C1604 0.951 . S
H1587 C1606 0.951 . S
H1588 C1608 0.950 . S
H1589 C1609 0.950 . S
H1590 C1611 0.950 . S
H1591 C1614 0.950 . S
H1592 C1615 0.950 . S
H1593 C1617 0.950 . S
H1594 C1618 0.950 . S
H1595 C1619 0.951 . S
H1596 C1621 0.951 . S
H1597 C1623 0.950 . S
H1598 C1624 0.950 . S
H1599 C1626 0.950 . S
H1600 C1629 0.950 . S
H1601 C1630 0.950 . S
H1602 C1632 0.950 . S
H1603 C1633 0.950 . S
C1604 H1586 0.951 . S
C1604 C1605 1.366 . S
C1604 C1606 1.388 . S
C1605 C1604 1.366 . S
C1605 C1609 1.385 . S
C1606 H1587 0.951 . S
C1606 C1604 1.388 . S
C1606 C1607 1.366 . S
C1607 C1606 1.366 . S
C1607 C1608 1.414 . S
C1607 C1610 1.499 . S
C1608 H1588 0.950 . S
C1608 C1607 1.414 . S
C1608 C1609 1.374 . S
C1609 H1589 0.950 . S
C1609 C1605 1.385 . S
C1609 C1608 1.374 . S
C1610 C1607 1.499 . S
C1610 C1611 1.373 . S
C1610 C1612 1.389 . S
C1611 H1590 0.950 . S
C1611 C1610 1.373 . S
C1611 C1627 1.377 . S
C1612 C1610 1.389 . S
C1612 C1613 1.524 . S
C1612 C1626 1.377 . S
C1613 C1612 1.524 . S
C1613 C1614 1.397 . S
C1613 C1618 1.363 . S
C1614 H1591 0.950 . S
C1614 C1613 1.397 . S
C1614 C1615 1.334 . S
C1615 H1592 0.950 . S
C1615 C1614 1.334 . S
C1615 C1616 1.287 . S
C1616 C1615 1.287 . S
C1616 C1617 1.524 . S
C1616 H1635 0.913 . S
C1617 H1593 0.950 . S
C1617 C1616 1.524 . S
C1617 C1618 1.415 . S
C1618 H1594 0.950 . S
C1618 C1613 1.363 . S
C1618 C1617 1.415 . S
C1619 H1595 0.951 . S
C1619 C1620 1.366 . S
C1619 C1621 1.388 . S
C1620 C1619 1.366 . S
C1620 C1624 1.385 . S
C1621 H1596 0.951 . S
C1621 C1619 1.388 . S
C1621 C1622 1.366 . S
C1622 C1621 1.366 . S
C1622 C1623 1.414 . S
C1622 C1625 1.499 . S
C1623 H1597 0.950 . S
C1623 C1622 1.414 . S
C1623 C1624 1.374 . S
C1624 H1598 0.950 . S
C1624 C1620 1.385 . S
C1624 C1623 1.374 . S
C1625 C1622 1.499 . S
C1625 C1626 1.373 . S
C1625 C1627 1.389 . S
C1626 H1599 0.950 . S
C1626 C1612 1.377 . S
C1626 C1625 1.373 . S
C1627 C1611 1.377 . S
C1627 C1625 1.389 . S
C1627 C1628 1.524 . S
C1628 C1627 1.524 . S
C1628 C1629 1.397 . S
C1628 C1633 1.363 . S
C1629 H1600 0.950 . S
C1629 C1628 1.397 . S
C1629 C1630 1.334 . S
C1630 H1601 0.950 . S
C1630 C1629 1.334 . S
C1630 C1631 1.287 . S
C1631 C1630 1.287 . S
C1631 C1632 1.524 . S
C1631 H1634 0.999 . S
C1632 H1602 0.950 . S
C1632 C1631 1.524 . S
C1632 C1633 1.415 . S
C1633 H1603 0.950 . S
C1633 C1628 1.363 . S
C1633 C1632 1.415 . S
H1634 C1631 0.999 . S
H1635 C1616 0.913 . S
H1636 C1654 0.951 . S
H1637 C1656 0.951 . S
H1638 C1658 0.950 . S
H1639 C1659 0.950 . S
H1640 C1661 0.950 . S
H1641 C1664 0.950 . S
H1642 C1665 0.950 . S
H1643 C1667 0.950 . S
H1644 C1668 0.950 . S
H1645 C1669 0.951 . S
H1646 C1671 0.951 . S
H1647 C1673 0.950 . S
H1648 C1674 0.950 . S
H1649 C1676 0.950 . S
H1650 C1679 0.950 . S
H1651 C1680 0.950 . S
H1652 C1682 0.950 . S
H1653 C1683 0.950 . S
C1654 H1636 0.951 . S
C1654 C1655 1.366 . S
C1654 C1656 1.388 . S
C1655 C1654 1.366 . S
C1655 C1659 1.385 . S
C1656 H1637 0.951 . S
C1656 C1654 1.388 . S
C1656 C1657 1.366 . S
C1657 C1656 1.366 . S
C1657 C1658 1.414 . S
C1657 C1660 1.499 . S
C1658 H1638 0.950 . S
C1658 C1657 1.414 . S
C1658 C1659 1.374 . S
C1659 H1639 0.950 . S
C1659 C1655 1.385 . S
C1659 C1658 1.374 . S
C1660 C1657 1.499 . S
C1660 C1661 1.373 . S
C1660 C1662 1.389 . S
C1661 H1640 0.950 . S
C1661 C1660 1.373 . S
C1661 C1677 1.377 . S
C1662 C1660 1.389 . S
C1662 C1663 1.524 . S
C1662 C1676 1.377 . S
C1663 C1662 1.524 . S
C1663 C1664 1.397 . S
C1663 C1668 1.363 . S
C1664 H1641 0.950 . S
C1664 C1663 1.397 . S
C1664 C1665 1.334 . S
C1665 H1642 0.950 . S
C1665 C1664 1.334 . S
C1665 C1666 1.287 . S
C1666 C1665 1.287 . S
C1666 C1667 1.524 . S
C1666 H1685 0.913 . S
C1667 H1643 0.950 . S
C1667 C1666 1.524 . S
C1667 C1668 1.415 . S
C1668 H1644 0.950 . S
C1668 C1663 1.363 . S
C1668 C1667 1.415 . S
C1669 H1645 0.951 . S
C1669 C1670 1.366 . S
C1669 C1671 1.388 . S
C1670 C1669 1.366 . S
C1670 C1674 1.385 . S
C1671 H1646 0.951 . S
C1671 C1669 1.388 . S
C1671 C1672 1.366 . S
C1672 C1671 1.366 . S
C1672 C1673 1.414 . S
C1672 C1675 1.499 . S
C1673 H1647 0.950 . S
C1673 C1672 1.414 . S
C1673 C1674 1.374 . S
C1674 H1648 0.950 . S
C1674 C1670 1.385 . S
C1674 C1673 1.374 . S
C1675 C1672 1.499 . S
C1675 C1676 1.373 . S
C1675 C1677 1.389 . S
C1676 H1649 0.950 . S
C1676 C1662 1.377 . S
C1676 C1675 1.373 . S
C1677 C1661 1.377 . S
C1677 C1675 1.389 . S
C1677 C1678 1.524 . S
C1678 C1677 1.524 . S
C1678 C1679 1.397 . S
C1678 C1683 1.363 . S
C1679 H1650 0.950 . S
C1679 C1678 1.397 . S
C1679 C1680 1.334 . S
C1680 H1651 0.950 . S
C1680 C1679 1.334 . S
C1680 C1681 1.287 . S
C1681 C1680 1.287 . S
C1681 C1682 1.524 . S
C1681 H1684 0.999 . S
C1682 H1652 0.950 . S
C1682 C1681 1.524 . S
C1682 C1683 1.415 . S
C1683 H1653 0.950 . S
C1683 C1678 1.363 . S
C1683 C1682 1.415 . S
H1684 C1681 0.999 . S
H1685 C1666 0.913 . S
H1686 C1704 0.951 . S
H1687 C1706 0.951 . S
H1688 C1708 0.950 . S
H1689 C1709 0.950 . S
H1690 C1711 0.950 . S
H1691 C1714 0.950 . S
H1692 C1715 0.950 . S
H1693 C1717 0.950 . S
H1694 C1718 0.950 . S
H1695 C1719 0.951 . S
H1696 C1721 0.951 . S
H1697 C1723 0.950 . S
H1698 C1724 0.950 . S
H1699 C1726 0.950 . S
H1700 C1729 0.950 . S
H1701 C1730 0.950 . S
H1702 C1732 0.950 . S
H1703 C1733 0.950 . S
C1704 H1686 0.951 . S
C1704 C1705 1.366 . S
C1704 C1706 1.388 . S
C1705 C1704 1.366 . S
C1705 C1709 1.385 . S
C1706 H1687 0.951 . S
C1706 C1704 1.388 . S
C1706 C1707 1.366 . S
C1707 C1706 1.366 . S
C1707 C1708 1.414 . S
C1707 C1710 1.499 . S
C1708 H1688 0.950 . S
C1708 C1707 1.414 . S
C1708 C1709 1.374 . S
C1709 H1689 0.950 . S
C1709 C1705 1.385 . S
C1709 C1708 1.374 . S
C1710 C1707 1.499 . S
C1710 C1711 1.373 . S
C1710 C1712 1.389 . S
C1711 H1690 0.950 . S
C1711 C1710 1.373 . S
C1711 C1727 1.377 . S
C1712 C1710 1.389 . S
C1712 C1713 1.524 . S
C1712 C1726 1.377 . S
C1713 C1712 1.524 . S
C1713 C1714 1.397 . S
C1713 C1718 1.363 . S
C1714 H1691 0.950 . S
C1714 C1713 1.397 . S
C1714 C1715 1.334 . S
C1715 H1692 0.950 . S
C1715 C1714 1.334 . S
C1715 C1716 1.287 . S
C1716 C1715 1.287 . S
C1716 C1717 1.524 . S
C1716 H1735 0.913 . S
C1717 H1693 0.950 . S
C1717 C1716 1.524 . S
C1717 C1718 1.415 . S
C1718 H1694 0.950 . S
C1718 C1713 1.363 . S
C1718 C1717 1.415 . S
C1719 H1695 0.951 . S
C1719 C1720 1.366 . S
C1719 C1721 1.388 . S
C1720 C1719 1.366 . S
C1720 C1724 1.385 . S
C1721 H1696 0.951 . S
C1721 C1719 1.388 . S
C1721 C1722 1.366 . S
C1722 C1721 1.366 . S
C1722 C1723 1.414 . S
C1722 C1725 1.499 . S
C1723 H1697 0.950 . S
C1723 C1722 1.414 . S
C1723 C1724 1.374 . S
C1724 H1698 0.950 . S
C1724 C1720 1.385 . S
C1724 C1723 1.374 . S
C1725 C1722 1.499 . S
C1725 C1726 1.373 . S
C1725 C1727 1.389 . S
C1726 H1699 0.950 . S
C1726 C1712 1.377 . S
C1726 C1725 1.373 . S
C1727 C1711 1.377 . S
C1727 C1725 1.389 . S
C1727 C1728 1.524 . S
C1728 C1727 1.524 . S
C1728 C1729 1.397 . S
C1728 C1733 1.363 . S
C1729 H1700 0.950 . S
C1729 C1728 1.397 . S
C1729 C1730 1.334 . S
C1730 H1701 0.950 . S
C1730 C1729 1.334 . S
C1730 C1731 1.287 . S
C1731 C1730 1.287 . S
C1731 C1732 1.524 . S
C1731 H1734 0.999 . S
C1732 H1702 0.950 . S
C1732 C1731 1.524 . S
C1732 C1733 1.415 . S
C1733 H1703 0.950 . S
C1733 C1728 1.363 . S
C1733 C1732 1.415 . S
H1734 C1731 0.999 . S
H1735 C1716 0.913 . S
H1736 C1754 0.951 . S
H1737 C1756 0.951 . S
H1738 C1758 0.950 . S
H1739 C1759 0.950 . S
H1740 C1761 0.950 . S
H1741 C1764 0.950 . S
H1742 C1765 0.950 . S
H1743 C1767 0.950 . S
H1744 C1768 0.950 . S
H1745 C1769 0.951 . S
H1746 C1771 0.951 . S
H1747 C1773 0.950 . S
H1748 C1774 0.950 . S
H1749 C1776 0.950 . S
H1750 C1779 0.950 . S
H1751 C1780 0.950 . S
H1752 C1782 0.950 . S
H1753 C1783 0.950 . S
C1754 H1736 0.951 . S
C1754 C1755 1.366 . S
C1754 C1756 1.388 . S
C1755 C1754 1.366 . S
C1755 C1759 1.385 . S
C1756 H1737 0.951 . S
C1756 C1754 1.388 . S
C1756 C1757 1.366 . S
C1757 C1756 1.366 . S
C1757 C1758 1.414 . S
C1757 C1760 1.499 . S
C1758 H1738 0.950 . S
C1758 C1757 1.414 . S
C1758 C1759 1.374 . S
C1759 H1739 0.950 . S
C1759 C1755 1.385 . S
C1759 C1758 1.374 . S
C1760 C1757 1.499 . S
C1760 C1761 1.373 . S
C1760 C1762 1.389 . S
C1761 H1740 0.950 . S
C1761 C1760 1.373 . S
C1761 C1777 1.377 . S
C1762 C1760 1.389 . S
C1762 C1763 1.524 . S
C1762 C1776 1.377 . S
C1763 C1762 1.524 . S
C1763 C1764 1.397 . S
C1763 C1768 1.363 . S
C1764 H1741 0.950 . S
C1764 C1763 1.397 . S
C1764 C1765 1.334 . S
C1765 H1742 0.950 . S
C1765 C1764 1.334 . S
C1765 C1766 1.287 . S
C1766 C1765 1.287 . S
C1766 C1767 1.524 . S
C1766 H1785 0.913 . S
C1767 H1743 0.950 . S
C1767 C1766 1.524 . S
C1767 C1768 1.415 . S
C1768 H1744 0.950 . S
C1768 C1763 1.363 . S
C1768 C1767 1.415 . S
C1769 H1745 0.951 . S
C1769 C1770 1.366 . S
C1769 C1771 1.388 . S
C1770 C1769 1.366 . S
C1770 C1774 1.385 . S
C1771 H1746 0.951 . S
C1771 C1769 1.388 . S
C1771 C1772 1.366 . S
C1772 C1771 1.366 . S
C1772 C1773 1.414 . S
C1772 C1775 1.499 . S
C1773 H1747 0.950 . S
C1773 C1772 1.414 . S
C1773 C1774 1.374 . S
C1774 H1748 0.950 . S
C1774 C1770 1.385 . S
C1774 C1773 1.374 . S
C1775 C1772 1.499 . S
C1775 C1776 1.373 . S
C1775 C1777 1.389 . S
C1776 H1749 0.950 . S
C1776 C1762 1.377 . S
C1776 C1775 1.373 . S
C1777 C1761 1.377 . S
C1777 C1775 1.389 . S
C1777 C1778 1.524 . S
C1778 C1777 1.524 . S
C1778 C1779 1.397 . S
C1778 C1783 1.363 . S
C1779 H1750 0.950 . S
C1779 C1778 1.397 . S
C1779 C1780 1.334 . S
C1780 H1751 0.950 . S
C1780 C1779 1.334 . S
C1780 C1781 1.287 . S
C1781 C1780 1.287 . S
C1781 C1782 1.524 . S
C1781 H1784 0.999 . S
C1782 H1752 0.950 . S
C1782 C1781 1.524 . S
C1782 C1783 1.415 . S
C1783 H1753 0.950 . S
C1783 C1778 1.363 . S
C1783 C1782 1.415 . S
H1784 C1781 0.999 . S
H1785 C1766 0.913 . S
H1786 C1804 0.951 . S
H1787 C1806 0.951 . S
H1788 C1808 0.950 . S
H1789 C1809 0.950 . S
H1790 C1811 0.950 . S
H1791 C1814 0.950 . S
H1792 C1815 0.950 . S
H1793 C1817 0.950 . S
H1794 C1818 0.950 . S
H1795 C1819 0.951 . S
H1796 C1821 0.951 . S
H1797 C1823 0.950 . S
H1798 C1824 0.950 . S
H1799 C1826 0.950 . S
H1800 C1829 0.950 . S
H1801 C1830 0.950 . S
H1802 C1832 0.950 . S
H1803 C1833 0.950 . S
C1804 H1786 0.951 . S
C1804 C1805 1.366 . S
C1804 C1806 1.388 . S
C1805 C1804 1.366 . S
C1805 C1809 1.385 . S
C1806 H1787 0.951 . S
C1806 C1804 1.388 . S
C1806 C1807 1.366 . S
C1807 C1806 1.366 . S
C1807 C1808 1.414 . S
C1807 C1810 1.499 . S
C1808 H1788 0.950 . S
C1808 C1807 1.414 . S
C1808 C1809 1.374 . S
C1809 H1789 0.950 . S
C1809 C1805 1.385 . S
C1809 C1808 1.374 . S
C1810 C1807 1.499 . S
C1810 C1811 1.373 . S
C1810 C1812 1.389 . S
C1811 H1790 0.950 . S
C1811 C1810 1.373 . S
C1811 C1827 1.377 . S
C1812 C1810 1.389 . S
C1812 C1813 1.524 . S
C1812 C1826 1.377 . S
C1813 C1812 1.524 . S
C1813 C1814 1.397 . S
C1813 C1818 1.363 . S
C1814 H1791 0.950 . S
C1814 C1813 1.397 . S
C1814 C1815 1.334 . S
C1815 H1792 0.950 . S
C1815 C1814 1.334 . S
C1815 C1816 1.287 . S
C1816 C1815 1.287 . S
C1816 C1817 1.524 . S
C1816 H1835 0.913 . S
C1817 H1793 0.950 . S
C1817 C1816 1.524 . S
C1817 C1818 1.415 . S
C1818 H1794 0.950 . S
C1818 C1813 1.363 . S
C1818 C1817 1.415 . S
C1819 H1795 0.951 . S
C1819 C1820 1.366 . S
C1819 C1821 1.388 . S
C1820 C1819 1.366 . S
C1820 C1824 1.385 . S
C1821 H1796 0.951 . S
C1821 C1819 1.388 . S
C1821 C1822 1.366 . S
C1822 C1821 1.366 . S
C1822 C1823 1.414 . S
C1822 C1825 1.499 . S
C1823 H1797 0.950 . S
C1823 C1822 1.414 . S
C1823 C1824 1.374 . S
C1824 H1798 0.950 . S
C1824 C1820 1.385 . S
C1824 C1823 1.374 . S
C1825 C1822 1.499 . S
C1825 C1826 1.373 . S
C1825 C1827 1.389 . S
C1826 H1799 0.950 . S
C1826 C1812 1.377 . S
C1826 C1825 1.373 . S
C1827 C1811 1.377 . S
C1827 C1825 1.389 . S
C1827 C1828 1.524 . S
C1828 C1827 1.524 . S
C1828 C1829 1.397 . S
C1828 C1833 1.363 . S
C1829 H1800 0.950 . S
C1829 C1828 1.397 . S
C1829 C1830 1.334 . S
C1830 H1801 0.950 . S
C1830 C1829 1.334 . S
C1830 C1831 1.287 . S
C1831 C1830 1.287 . S
C1831 C1832 1.524 . S
C1831 H1834 0.999 . S
C1832 H1802 0.950 . S
C1832 C1831 1.524 . S
C1832 C1833 1.415 . S
C1833 H1803 0.950 . S
C1833 C1828 1.363 . S
C1833 C1832 1.415 . S
H1834 C1831 0.999 . S
H1835 C1816 0.913 . S
H1836 C1854 0.951 . S
H1837 C1856 0.951 . S
H1838 C1858 0.950 . S
H1839 C1859 0.950 . S
H1840 C1861 0.950 . S
H1841 C1864 0.950 . S
H1842 C1865 0.950 . S
H1843 C1867 0.950 . S
H1844 C1868 0.950 . S
H1845 C1869 0.951 . S
H1846 C1871 0.951 . S
H1847 C1873 0.950 . S
H1848 C1874 0.950 . S
H1849 C1876 0.950 . S
H1850 C1879 0.950 . S
H1851 C1880 0.950 . S
H1852 C1882 0.950 . S
H1853 C1883 0.950 . S
C1854 H1836 0.951 . S
C1854 C1855 1.366 . S
C1854 C1856 1.388 . S
C1855 C1854 1.366 . S
C1855 C1859 1.385 . S
C1856 H1837 0.951 . S
C1856 C1854 1.388 . S
C1856 C1857 1.366 . S
C1857 C1856 1.366 . S
C1857 C1858 1.414 . S
C1857 C1860 1.499 . S
C1858 H1838 0.950 . S
C1858 C1857 1.414 . S
C1858 C1859 1.374 . S
C1859 H1839 0.950 . S
C1859 C1855 1.385 . S
C1859 C1858 1.374 . S
C1860 C1857 1.499 . S
C1860 C1861 1.373 . S
C1860 C1862 1.389 . S
C1861 H1840 0.950 . S
C1861 C1860 1.373 . S
C1861 C1877 1.377 . S
C1862 C1860 1.389 . S
C1862 C1863 1.524 . S
C1862 C1876 1.377 . S
C1863 C1862 1.524 . S
C1863 C1864 1.397 . S
C1863 C1868 1.363 . S
C1864 H1841 0.950 . S
C1864 C1863 1.397 . S
C1864 C1865 1.334 . S
C1865 H1842 0.950 . S
C1865 C1864 1.334 . S
C1865 C1866 1.287 . S
C1866 C1865 1.287 . S
C1866 C1867 1.524 . S
C1866 H1885 0.913 . S
C1867 H1843 0.950 . S
C1867 C1866 1.524 . S
C1867 C1868 1.415 . S
C1868 H1844 0.950 . S
C1868 C1863 1.363 . S
C1868 C1867 1.415 . S
C1869 H1845 0.951 . S
C1869 C1870 1.366 . S
C1869 C1871 1.388 . S
C1870 C1869 1.366 . S
C1870 C1874 1.385 . S
C1871 H1846 0.951 . S
C1871 C1869 1.388 . S
C1871 C1872 1.366 . S
C1872 C1871 1.366 . S
C1872 C1873 1.414 . S
C1872 C1875 1.499 . S
C1873 H1847 0.950 . S
C1873 C1872 1.414 . S
C1873 C1874 1.374 . S
C1874 H1848 0.950 . S
C1874 C1870 1.385 . S
C1874 C1873 1.374 . S
C1875 C1872 1.499 . S
C1875 C1876 1.373 . S
C1875 C1877 1.389 . S
C1876 H1849 0.950 . S
C1876 C1862 1.377 . S
C1876 C1875 1.373 . S
C1877 C1861 1.377 . S
C1877 C1875 1.389 . S
C1877 C1878 1.524 . S
C1878 C1877 1.524 . S
C1878 C1879 1.397 . S
C1878 C1883 1.363 . S
C1879 H1850 0.950 . S
C1879 C1878 1.397 . S
C1879 C1880 1.334 . S
C1880 H1851 0.950 . S
C1880 C1879 1.334 . S
C1880 C1881 1.287 . S
C1881 C1880 1.287 . S
C1881 C1882 1.524 . S
C1881 H1884 0.999 . S
C1882 H1852 0.950 . S
C1882 C1881 1.524 . S
C1882 C1883 1.415 . S
C1883 H1853 0.950 . S
C1883 C1878 1.363 . S
C1883 C1882 1.415 . S
H1884 C1881 0.999 . S
H1885 C1866 0.913 . S
H1886 C1904 0.951 . S
H1887 C1906 0.951 . S
H1888 C1908 0.950 . S
H1889 C1909 0.950 . S
H1890 C1911 0.950 . S
H1891 C1914 0.950 . S
H1892 C1915 0.950 . S
H1893 C1917 0.950 . S
H1894 C1918 0.950 . S
H1895 C1919 0.951 . S
H1896 C1921 0.951 . S
H1897 C1923 0.950 . S
H1898 C1924 0.950 . S
H1899 C1926 0.950 . S
H1900 C1929 0.950 . S
H1901 C1930 0.950 . S
H1902 C1932 0.950 . S
H1903 C1933 0.950 . S
C1904 H1886 0.951 . S
C1904 C1905 1.366 . S
C1904 C1906 1.388 . S
C1905 C1904 1.366 . S
C1905 C1909 1.385 . S
C1906 H1887 0.951 . S
C1906 C1904 1.388 . S
C1906 C1907 1.366 . S
C1907 C1906 1.366 . S
C1907 C1908 1.414 . S
C1907 C1910 1.499 . S
C1908 H1888 0.950 . S
C1908 C1907 1.414 . S
C1908 C1909 1.374 . S
C1909 H1889 0.950 . S
C1909 C1905 1.385 . S
C1909 C1908 1.374 . S
C1910 C1907 1.499 . S
C1910 C1911 1.373 . S
C1910 C1912 1.389 . S
C1911 H1890 0.950 . S
C1911 C1910 1.373 . S
C1911 C1927 1.377 . S
C1912 C1910 1.389 . S
C1912 C1913 1.524 . S
C1912 C1926 1.377 . S
C1913 C1912 1.524 . S
C1913 C1914 1.397 . S
C1913 C1918 1.363 . S
C1914 H1891 0.950 . S
C1914 C1913 1.397 . S
C1914 C1915 1.334 . S
C1915 H1892 0.950 . S
C1915 C1914 1.334 . S
C1915 C1916 1.287 . S
C1916 C1915 1.287 . S
C1916 C1917 1.524 . S
C1916 H1935 0.913 . S
C1917 H1893 0.950 . S
C1917 C1916 1.524 . S
C1917 C1918 1.415 . S
C1918 H1894 0.950 . S
C1918 C1913 1.363 . S
C1918 C1917 1.415 . S
C1919 H1895 0.951 . S
C1919 C1920 1.366 . S
C1919 C1921 1.388 . S
C1920 C1919 1.366 . S
C1920 C1924 1.385 . S
C1921 H1896 0.951 . S
C1921 C1919 1.388 . S
C1921 C1922 1.366 . S
C1922 C1921 1.366 . S
C1922 C1923 1.414 . S
C1922 C1925 1.499 . S
C1923 H1897 0.950 . S
C1923 C1922 1.414 . S
C1923 C1924 1.374 . S
C1924 H1898 0.950 . S
C1924 C1920 1.385 . S
C1924 C1923 1.374 . S
C1925 C1922 1.499 . S
C1925 C1926 1.373 . S
C1925 C1927 1.389 . S
C1926 H1899 0.950 . S
C1926 C1912 1.377 . S
C1926 C1925 1.373 . S
C1927 C1911 1.377 . S
C1927 C1925 1.389 . S
C1927 C1928 1.524 . S
C1928 C1927 1.524 . S
C1928 C1929 1.397 . S
C1928 C1933 1.363 . S
C1929 H1900 0.950 . S
C1929 C1928 1.397 . S
C1929 C1930 1.334 . S
C1930 H1901 0.950 . S
C1930 C1929 1.334 . S
C1930 C1931 1.287 . S
C1931 C1930 1.287 . S
C1931 C1932 1.524 . S
C1931 H1934 0.999 . S
C1932 H1902 0.950 . S
C1932 C1931 1.524 . S
C1932 C1933 1.415 . S
C1933 H1903 0.950 . S
C1933 C1928 1.363 . S
C1933 C1932 1.415 . S
H1934 C1931 0.999 . S
H1935 C1916 0.913 . S
H1936 C1954 0.951 . S
H1937 C1956 0.951 . S
H1938 C1958 0.950 . S
H1939 C1959 0.950 . S
H1940 C1961 0.950 . S
H1941 C1964 0.950 . S
H1942 C1965 0.950 . S
H1943 C1967 0.950 . S
H1944 C1968 0.950 . S
H1945 C1969 0.951 . S
H1946 C1971 0.951 . S
H1947 C1973 0.950 . S
H1948 C1974 0.950 . S
H1949 C1976 0.950 . S
H1950 C1979 0.950 . S
H1951 C1980 0.950 . S
H1952 C1982 0.950 . S
H1953 C1983 0.950 . S
C1954 H1936 0.951 . S
C1954 C1955 1.366 . S
C1954 C1956 1.388 . S
C1955 C1954 1.366 . S
C1955 C1959 1.385 . S
C1956 H1937 0.951 . S
C1956 C1954 1.388 . S
C1956 C1957 1.366 . S
C1957 C1956 1.366 . S
C1957 C1958 1.414 . S
C1957 C1960 1.499 . S
C1958 H1938 0.950 . S
C1958 C1957 1.414 . S
C1958 C1959 1.374 . S
C1959 H1939 0.950 . S
C1959 C1955 1.385 . S
C1959 C1958 1.374 . S
C1960 C1957 1.499 . S
C1960 C1961 1.373 . S
C1960 C1962 1.389 . S
C1961 H1940 0.950 . S
C1961 C1960 1.373 . S
C1961 C1977 1.377 . S
C1962 C1960 1.389 . S
C1962 C1963 1.524 . S
C1962 C1976 1.377 . S
C1963 C1962 1.524 . S
C1963 C1964 1.397 . S
C1963 C1968 1.363 . S
C1964 H1941 0.950 . S
C1964 C1963 1.397 . S
C1964 C1965 1.334 . S
C1965 H1942 0.950 . S
C1965 C1964 1.334 . S
C1965 C1966 1.287 . S
C1966 C1965 1.287 . S
C1966 C1967 1.524 . S
C1966 H1985 0.913 . S
C1967 H1943 0.950 . S
C1967 C1966 1.524 . S
C1967 C1968 1.415 . S
C1968 H1944 0.950 . S
C1968 C1963 1.363 . S
C1968 C1967 1.415 . S
C1969 H1945 0.951 . S
C1969 C1970 1.366 . S
C1969 C1971 1.388 . S
C1970 C1969 1.366 . S
C1970 C1974 1.385 . S
C1971 H1946 0.951 . S
C1971 C1969 1.388 . S
C1971 C1972 1.366 . S
C1972 C1971 1.366 . S
C1972 C1973 1.414 . S
C1972 C1975 1.499 . S
C1973 H1947 0.950 . S
C1973 C1972 1.414 . S
C1973 C1974 1.374 . S
C1974 H1948 0.950 . S
C1974 C1970 1.385 . S
C1974 C1973 1.374 . S
C1975 C1972 1.499 . S
C1975 C1976 1.373 . S
C1975 C1977 1.389 . S
C1976 H1949 0.950 . S
C1976 C1962 1.377 . S
C1976 C1975 1.373 . S
C1977 C1961 1.377 . S
C1977 C1975 1.389 . S
C1977 C1978 1.524 . S
C1978 C1977 1.524 . S
C1978 C1979 1.397 . S
C1978 C1983 1.363 . S
C1979 H1950 0.950 . S
C1979 C1978 1.397 . S
C1979 C1980 1.334 . S
C1980 H1951 0.950 . S
C1980 C1979 1.334 . S
C1980 C1981 1.287 . S
C1981 C1980 1.287 . S
C1981 C1982 1.524 . S
C1981 H1984 0.999 . S
C1982 H1952 0.950 . S
C1982 C1981 1.524 . S
C1982 C1983 1.415 . S
C1983 H1953 0.950 . S
C1983 C1978 1.363 . S
C1983 C1982 1.415 . S
H1984 C1981 0.999 . S
H1985 C1966 0.913 . S
H1986 C2004 0.951 . S
H1987 C2006 0.951 . S
H1988 C2008 0.950 . S
H1989 C2009 0.950 . S
H1990 C2011 0.950 . S
H1991 C2014 0.950 . S
H1992 C2015 0.950 . S
H1993 C2017 0.950 . S
H1994 C2018 0.950 . S
H1995 C2019 0.951 . S
H1996 C2021 0.951 . S
H1997 C2023 0.950 . S
H1998 C2024 0.950 . S
H1999 C2026 0.950 . S
H2000 C2029 0.950 . S
H2001 C2030 0.950 . S
H2002 C2032 0.950 . S
H2003 C2033 0.950 . S
C2004 H1986 0.951 . S
C2004 C2005 1.366 . S
C2004 C2006 1.388 . S
C2005 C2004 1.366 . S
C2005 C2009 1.385 . S
C2006 H1987 0.951 . S
C2006 C2004 1.388 . S
C2006 C2007 1.366 . S
C2007 C2006 1.366 . S
C2007 C2008 1.414 . S
C2007 C2010 1.499 . S
C2008 H1988 0.950 . S
C2008 C2007 1.414 . S
C2008 C2009 1.374 . S
C2009 H1989 0.950 . S
C2009 C2005 1.385 . S
C2009 C2008 1.374 . S
C2010 C2007 1.499 . S
C2010 C2011 1.373 . S
C2010 C2012 1.389 . S
C2011 H1990 0.950 . S
C2011 C2010 1.373 . S
C2011 C2027 1.377 . S
C2012 C2010 1.389 . S
C2012 C2013 1.524 . S
C2012 C2026 1.377 . S
C2013 C2012 1.524 . S
C2013 C2014 1.397 . S
C2013 C2018 1.363 . S
C2014 H1991 0.950 . S
C2014 C2013 1.397 . S
C2014 C2015 1.334 . S
C2015 H1992 0.950 . S
C2015 C2014 1.334 . S
C2015 C2016 1.287 . S
C2016 C2015 1.287 . S
C2016 C2017 1.524 . S
C2016 H2035 0.913 . S
C2017 H1993 0.950 . S
C2017 C2016 1.524 . S
C2017 C2018 1.415 . S
C2018 H1994 0.950 . S
C2018 C2013 1.363 . S
C2018 C2017 1.415 . S
C2019 H1995 0.951 . S
C2019 C2020 1.366 . S
C2019 C2021 1.388 . S
C2020 C2019 1.366 . S
C2020 C2024 1.385 . S
C2021 H1996 0.951 . S
C2021 C2019 1.388 . S
C2021 C2022 1.366 . S
C2022 C2021 1.366 . S
C2022 C2023 1.414 . S
C2022 C2025 1.499 . S
C2023 H1997 0.950 . S
C2023 C2022 1.414 . S
C2023 C2024 1.374 . S
C2024 H1998 0.950 . S
C2024 C2020 1.385 . S
C2024 C2023 1.374 . S
C2025 C2022 1.499 . S
C2025 C2026 1.373 . S
C2025 C2027 1.389 . S
C2026 H1999 0.950 . S
C2026 C2012 1.377 . S
C2026 C2025 1.373 . S
C2027 C2011 1.377 . S
C2027 C2025 1.389 . S
C2027 C2028 1.524 . S
C2028 C2027 1.524 . S
C2028 C2029 1.397 . S
C2028 C2033 1.363 . S
C2029 H2000 0.950 . S
C2029 C2028 1.397 . S
C2029 C2030 1.334 . S
C2030 H2001 0.950 . S
C2030 C2029 1.334 . S
C2030 C2031 1.287 . S
C2031 C2030 1.287 . S
C2031 C2032 1.524 . S
C2031 H2034 0.999 . S
C2032 H2002 0.950 . S
C2032 C2031 1.524 . S
C2032 C2033 1.415 . S
C2033 H2003 0.950 . S
C2033 C2028 1.363 . S
C2033 C2032 1.415 . S
H2034 C2031 0.999 . S
H2035 C2016 0.913 . S
H2036 C2054 0.951 . S
H2037 C2056 0.951 . S
H2038 C2058 0.950 . S
H2039 C2059 0.950 . S
H2040 C2061 0.950 . S
H2041 C2064 0.950 . S
H2042 C2065 0.950 . S
H2043 C2067 0.950 . S
H2044 C2068 0.950 . S
H2045 C2069 0.951 . S
H2046 C2071 0.951 . S
H2047 C2073 0.950 . S
H2048 C2074 0.950 . S
H2049 C2076 0.950 . S
H2050 C2079 0.950 . S
H2051 C2080 0.950 . S
H2052 C2082 0.950 . S
H2053 C2083 0.950 . S
C2054 H2036 0.951 . S
C2054 C2055 1.366 . S
C2054 C2056 1.388 . S
C2055 C2054 1.366 . S
C2055 C2059 1.385 . S
C2056 H2037 0.951 . S
C2056 C2054 1.388 . S
C2056 C2057 1.366 . S
C2057 C2056 1.366 . S
C2057 C2058 1.414 . S
C2057 C2060 1.499 . S
C2058 H2038 0.950 . S
C2058 C2057 1.414 . S
C2058 C2059 1.374 . S
C2059 H2039 0.950 . S
C2059 C2055 1.385 . S
C2059 C2058 1.374 . S
C2060 C2057 1.499 . S
C2060 C2061 1.373 . S
C2060 C2062 1.389 . S
C2061 H2040 0.950 . S
C2061 C2060 1.373 . S
C2061 C2077 1.377 . S
C2062 C2060 1.389 . S
C2062 C2063 1.524 . S
C2062 C2076 1.377 . S
C2063 C2062 1.524 . S
C2063 C2064 1.397 . S
C2063 C2068 1.363 . S
C2064 H2041 0.950 . S
C2064 C2063 1.397 . S
C2064 C2065 1.334 . S
C2065 H2042 0.950 . S
C2065 C2064 1.334 . S
C2065 C2066 1.287 . S
C2066 C2065 1.287 . S
C2066 C2067 1.524 . S
C2066 H2085 0.913 . S
C2067 H2043 0.950 . S
C2067 C2066 1.524 . S
C2067 C2068 1.415 . S
C2068 H2044 0.950 . S
C2068 C2063 1.363 . S
C2068 C2067 1.415 . S
C2069 H2045 0.951 . S
C2069 C2070 1.366 . S
C2069 C2071 1.388 . S
C2070 C2069 1.366 . S
C2070 C2074 1.385 . S
C2071 H2046 0.951 . S
C2071 C2069 1.388 . S
C2071 C2072 1.366 . S
C2072 C2071 1.366 . S
C2072 C2073 1.414 . S
C2072 C2075 1.499 . S
C2073 H2047 0.950 . S
C2073 C2072 1.414 . S
C2073 C2074 1.374 . S
C2074 H2048 0.950 . S
C2074 C2070 1.385 . S
C2074 C2073 1.374 . S
C2075 C2072 1.499 . S
C2075 C2076 1.373 . S
C2075 C2077 1.389 . S
C2076 H2049 0.950 . S
C2076 C2062 1.377 . S
C2076 C2075 1.373 . S
C2077 C2061 1.377 . S
C2077 C2075 1.389 . S
C2077 C2078 1.524 . S
C2078 C2077 1.524 . S
C2078 C2079 1.397 . S
C2078 C2083 1.363 . S
C2079 H2050 0.950 . S
C2079 C2078 1.397 . S
C2079 C2080 1.334 . S
C2080 H2051 0.950 . S
C2080 C2079 1.334 . S
C2080 C2081 1.287 . S
C2081 C2080 1.287 . S
C2081 C2082 1.524 . S
C2081 H2084 0.999 . S
C2082 H2052 0.950 . S
C2082 C2081 1.524 . S
C2082 C2083 1.415 . S
C2083 H2053 0.950 . S
C2083 C2078 1.363 . S
C2083 C2082 1.415 . S
H2084 C2081 0.999 . S
H2085 C2066 0.913 . S
H2086 C2104 0.951 . S
H2087 C2106 0.951 . S
H2088 C2108 0.950 . S
H2089 C2109 0.950 . S
H2090 C2111 0.950 . S
H2091 C2114 0.950 . S
H2092 C2115 0.950 . S
H2093 C2117 0.950 . S
H2094 C2118 0.950 . S
H2095 C2119 0.951 . S
H2096 C2121 0.951 . S
H2097 C2123 0.950 . S
H2098 C2124 0.950 . S
H2099 C2126 0.950 . S
H2100 C2129 0.950 . S
H2101 C2130 0.950 . S
H2102 C2132 0.950 . S
H2103 C2133 0.950 . S
C2104 H2086 0.951 . S
C2104 C2105 1.366 . S
C2104 C2106 1.388 . S
C2105 C2104 1.366 . S
C2105 C2109 1.385 . S
C2106 H2087 0.951 . S
C2106 C2104 1.388 . S
C2106 C2107 1.366 . S
C2107 C2106 1.366 . S
C2107 C2108 1.414 . S
C2107 C2110 1.499 . S
C2108 H2088 0.950 . S
C2108 C2107 1.414 . S
C2108 C2109 1.374 . S
C2109 H2089 0.950 . S
C2109 C2105 1.385 . S
C2109 C2108 1.374 . S
C2110 C2107 1.499 . S
C2110 C2111 1.373 . S
C2110 C2112 1.389 . S
C2111 H2090 0.950 . S
C2111 C2110 1.373 . S
C2111 C2127 1.377 . S
C2112 C2110 1.389 . S
C2112 C2113 1.524 . S
C2112 C2126 1.377 . S
C2113 C2112 1.524 . S
C2113 C2114 1.397 . S
C2113 C2118 1.363 . S
C2114 H2091 0.950 . S
C2114 C2113 1.397 . S
C2114 C2115 1.334 . S
C2115 H2092 0.950 . S
C2115 C2114 1.334 . S
C2115 C2116 1.287 . S
C2116 C2115 1.287 . S
C2116 C2117 1.524 . S
C2116 H2135 0.913 . S
C2117 H2093 0.950 . S
C2117 C2116 1.524 . S
C2117 C2118 1.415 . S
C2118 H2094 0.950 . S
C2118 C2113 1.363 . S
C2118 C2117 1.415 . S
C2119 H2095 0.951 . S
C2119 C2120 1.366 . S
C2119 C2121 1.388 . S
C2120 C2119 1.366 . S
C2120 C2124 1.385 . S
C2121 H2096 0.951 . S
C2121 C2119 1.388 . S
C2121 C2122 1.366 . S
C2122 C2121 1.366 . S
C2122 C2123 1.414 . S
C2122 C2125 1.499 . S
C2123 H2097 0.950 . S
C2123 C2122 1.414 . S
C2123 C2124 1.374 . S
C2124 H2098 0.950 . S
C2124 C2120 1.385 . S
C2124 C2123 1.374 . S
C2125 C2122 1.499 . S
C2125 C2126 1.373 . S
C2125 C2127 1.389 . S
C2126 H2099 0.950 . S
C2126 C2112 1.377 . S
C2126 C2125 1.373 . S
C2127 C2111 1.377 . S
C2127 C2125 1.389 . S
C2127 C2128 1.524 . S
C2128 C2127 1.524 . S
C2128 C2129 1.397 . S
C2128 C2133 1.363 . S
C2129 H2100 0.950 . S
C2129 C2128 1.397 . S
C2129 C2130 1.334 . S
C2130 H2101 0.950 . S
C2130 C2129 1.334 . S
C2130 C2131 1.287 . S
C2131 C2130 1.287 . S
C2131 C2132 1.524 . S
C2131 H2134 0.999 . S
C2132 H2102 0.950 . S
C2132 C2131 1.524 . S
C2132 C2133 1.415 . S
C2133 H2103 0.950 . S
C2133 C2128 1.363 . S
C2133 C2132 1.415 . S
H2134 C2131 0.999 . S
H2135 C2116 0.913 . S
H2136 C2154 0.951 . S
H2137 C2156 0.951 . S
H2138 C2158 0.950 . S
H2139 C2159 0.950 . S
H2140 C2161 0.950 . S
H2141 C2164 0.950 . S
H2142 C2165 0.950 . S
H2143 C2167 0.950 . S
H2144 C2168 0.950 . S
H2145 C2169 0.951 . S
H2146 C2171 0.951 . S
H2147 C2173 0.950 . S
H2148 C2174 0.950 . S
H2149 C2176 0.950 . S
H2150 C2179 0.950 . S
H2151 C2180 0.950 . S
H2152 C2182 0.950 . S
H2153 C2183 0.950 . S
C2154 H2136 0.951 . S
C2154 C2155 1.366 . S
C2154 C2156 1.388 . S
C2155 C2154 1.366 . S
C2155 C2159 1.385 . S
C2156 H2137 0.951 . S
C2156 C2154 1.388 . S
C2156 C2157 1.366 . S
C2157 C2156 1.366 . S
C2157 C2158 1.414 . S
C2157 C2160 1.499 . S
C2158 H2138 0.950 . S
C2158 C2157 1.414 . S
C2158 C2159 1.374 . S
C2159 H2139 0.950 . S
C2159 C2155 1.385 . S
C2159 C2158 1.374 . S
C2160 C2157 1.499 . S
C2160 C2161 1.373 . S
C2160 C2162 1.389 . S
C2161 H2140 0.950 . S
C2161 C2160 1.373 . S
C2161 C2177 1.377 . S
C2162 C2160 1.389 . S
C2162 C2163 1.524 . S
C2162 C2176 1.377 . S
C2163 C2162 1.524 . S
C2163 C2164 1.397 . S
C2163 C2168 1.363 . S
C2164 H2141 0.950 . S
C2164 C2163 1.397 . S
C2164 C2165 1.334 . S
C2165 H2142 0.950 . S
C2165 C2164 1.334 . S
C2165 C2166 1.287 . S
C2166 C2165 1.287 . S
C2166 C2167 1.524 . S
C2166 H2185 0.913 . S
C2167 H2143 0.950 . S
C2167 C2166 1.524 . S
C2167 C2168 1.415 . S
C2168 H2144 0.950 . S
C2168 C2163 1.363 . S
C2168 C2167 1.415 . S
C2169 H2145 0.951 . S
C2169 C2170 1.366 . S
C2169 C2171 1.388 . S
C2170 C2169 1.366 . S
C2170 C2174 1.385 . S
C2171 H2146 0.951 . S
C2171 C2169 1.388 . S
C2171 C2172 1.366 . S
C2172 C2171 1.366 . S
C2172 C2173 1.414 . S
C2172 C2175 1.499 . S
C2173 H2147 0.950 . S
C2173 C2172 1.414 . S
C2173 C2174 1.374 . S
C2174 H2148 0.950 . S
C2174 C2170 1.385 . S
C2174 C2173 1.374 . S
C2175 C2172 1.499 . S
C2175 C2176 1.373 . S
C2175 C2177 1.389 . S
C2176 H2149 0.950 . S
C2176 C2162 1.377 . S
C2176 C2175 1.373 . S
C2177 C2161 1.377 . S
C2177 C2175 1.389 . S
C2177 C2178 1.524 . S
C2178 C2177 1.524 . S
C2178 C2179 1.397 . S
C2178 C2183 1.363 . S
C2179 H2150 0.950 . S
C2179 C2178 1.397 . S
C2179 C2180 1.334 . S
C2180 H2151 0.950 . S
C2180 C2179 1.334 . S
C2180 C2181 1.287 . S
C2181 C2180 1.287 . S
C2181 C2182 1.524 . S
C2181 H2184 0.999 . S
C2182 H2152 0.950 . S
C2182 C2181 1.524 . S
C2182 C2183 1.415 . S
C2183 H2153 0.950 . S
C2183 C2178 1.363 . S
C2183 C2182 1.415 . S
H2184 C2181 0.999 . S
H2185 C2166 0.913 . S
H2186 C2204 0.951 . S
H2187 C2206 0.951 . S
H2188 C2208 0.950 . S
H2189 C2209 0.950 . S
H2190 C2211 0.950 . S
H2191 C2214 0.950 . S
H2192 C2215 0.950 . S
H2193 C2217 0.950 . S
H2194 C2218 0.950 . S
H2195 C2219 0.951 . S
H2196 C2221 0.951 . S
H2197 C2223 0.950 . S
H2198 C2224 0.950 . S
H2199 C2226 0.950 . S
H2200 C2229 0.950 . S
H2201 C2230 0.950 . S
H2202 C2232 0.950 . S
H2203 C2233 0.950 . S
C2204 H2186 0.951 . S
C2204 C2205 1.366 . S
C2204 C2206 1.388 . S
C2205 C2204 1.366 . S
C2205 C2209 1.385 . S
C2206 H2187 0.951 . S
C2206 C2204 1.388 . S
C2206 C2207 1.366 . S
C2207 C2206 1.366 . S
C2207 C2208 1.414 . S
C2207 C2210 1.499 . S
C2208 H2188 0.950 . S
C2208 C2207 1.414 . S
C2208 C2209 1.374 . S
C2209 H2189 0.950 . S
C2209 C2205 1.385 . S
C2209 C2208 1.374 . S
C2210 C2207 1.499 . S
C2210 C2211 1.373 . S
C2210 C2212 1.389 . S
C2211 H2190 0.950 . S
C2211 C2210 1.373 . S
C2211 C2227 1.377 . S
C2212 C2210 1.389 . S
C2212 C2213 1.524 . S
C2212 C2226 1.377 . S
C2213 C2212 1.524 . S
C2213 C2214 1.397 . S
C2213 C2218 1.363 . S
C2214 H2191 0.950 . S
C2214 C2213 1.397 . S
C2214 C2215 1.334 . S
C2215 H2192 0.950 . S
C2215 C2214 1.334 . S
C2215 C2216 1.287 . S
C2216 C2215 1.287 . S
C2216 C2217 1.524 . S
C2216 H2235 0.913 . S
C2217 H2193 0.950 . S
C2217 C2216 1.524 . S
C2217 C2218 1.415 . S
C2218 H2194 0.950 . S
C2218 C2213 1.363 . S
C2218 C2217 1.415 . S
C2219 H2195 0.951 . S
C2219 C2220 1.366 . S
C2219 C2221 1.388 . S
C2220 C2219 1.366 . S
C2220 C2224 1.385 . S
C2221 H2196 0.951 . S
C2221 C2219 1.388 . S
C2221 C2222 1.366 . S
C2222 C2221 1.366 . S
C2222 C2223 1.414 . S
C2222 C2225 1.499 . S
C2223 H2197 0.950 . S
C2223 C2222 1.414 . S
C2223 C2224 1.374 . S
C2224 H2198 0.950 . S
C2224 C2220 1.385 . S
C2224 C2223 1.374 . S
C2225 C2222 1.499 . S
C2225 C2226 1.373 . S
C2225 C2227 1.389 . S
C2226 H2199 0.950 . S
C2226 C2212 1.377 . S
C2226 C2225 1.373 . S
C2227 C2211 1.377 . S
C2227 C2225 1.389 . S
C2227 C2228 1.524 . S
C2228 C2227 1.524 . S
C2228 C2229 1.397 . S
C2228 C2233 1.363 . S
C2229 H2200 0.950 . S
C2229 C2228 1.397 . S
C2229 C2230 1.334 . S
C2230 H2201 0.950 . S
C2230 C2229 1.334 . S
C2230 C2231 1.287 . S
C2231 C2230 1.287 . S
C2231 C2232 1.524 . S
C2231 H2234 0.999 . S
C2232 H2202 0.950 . S
C2232 C2231 1.524 . S
C2232 C2233 1.415 . S
C2233 H2203 0.950 . S
C2233 C2228 1.363 . S
C2233 C2232 1.415 . S
H2234 C2231 0.999 . S
H2235 C2216 0.913 . S
H2236 C2254 0.951 . S
H2237 C2256 0.951 . S
H2238 C2258 0.950 . S
H2239 C2259 0.950 . S
H2240 C2261 0.950 . S
H2241 C2264 0.950 . S
H2242 C2265 0.950 . S
H2243 C2267 0.950 . S
H2244 C2268 0.950 . S
H2245 C2269 0.951 . S
H2246 C2271 0.951 . S
H2247 C2273 0.950 . S
H2248 C2274 0.950 . S
H2249 C2276 0.950 . S
H2250 C2279 0.950 . S
H2251 C2280 0.950 . S
H2252 C2282 0.950 . S
H2253 C2283 0.950 . S
C2254 H2236 0.951 . S
C2254 C2255 1.366 . S
C2254 C2256 1.388 . S
C2255 C2254 1.366 . S
C2255 C2259 1.385 . S
C2256 H2237 0.951 . S
C2256 C2254 1.388 . S
C2256 C2257 1.366 . S
C2257 C2256 1.366 . S
C2257 C2258 1.414 . S
C2257 C2260 1.499 . S
C2258 H2238 0.950 . S
C2258 C2257 1.414 . S
C2258 C2259 1.374 . S
C2259 H2239 0.950 . S
C2259 C2255 1.385 . S
C2259 C2258 1.374 . S
C2260 C2257 1.499 . S
C2260 C2261 1.373 . S
C2260 C2262 1.389 . S
C2261 H2240 0.950 . S
C2261 C2260 1.373 . S
C2261 C2277 1.377 . S
C2262 C2260 1.389 . S
C2262 C2263 1.524 . S
C2262 C2276 1.377 . S
C2263 C2262 1.524 . S
C2263 C2264 1.397 . S
C2263 C2268 1.363 . S
C2264 H2241 0.950 . S
C2264 C2263 1.397 . S
C2264 C2265 1.334 . S
C2265 H2242 0.950 . S
C2265 C2264 1.334 . S
C2265 C2266 1.287 . S
C2266 C2265 1.287 . S
C2266 C2267 1.524 . S
C2266 H2285 0.913 . S
C2267 H2243 0.950 . S
C2267 C2266 1.524 . S
C2267 C2268 1.415 . S
C2268 H2244 0.950 . S
C2268 C2263 1.363 . S
C2268 C2267 1.415 . S
C2269 H2245 0.951 . S
C2269 C2270 1.366 . S
C2269 C2271 1.388 . S
C2270 C2269 1.366 . S
C2270 C2274 1.385 . S
C2271 H2246 0.951 . S
C2271 C2269 1.388 . S
C2271 C2272 1.366 . S
C2272 C2271 1.366 . S
C2272 C2273 1.414 . S
C2272 C2275 1.499 . S
C2273 H2247 0.950 . S
C2273 C2272 1.414 . S
C2273 C2274 1.374 . S
C2274 H2248 0.950 . S
C2274 C2270 1.385 . S
C2274 C2273 1.374 . S
C2275 C2272 1.499 . S
C2275 C2276 1.373 . S
C2275 C2277 1.389 . S
C2276 H2249 0.950 . S
C2276 C2262 1.377 . S
C2276 C2275 1.373 . S
C2277 C2261 1.377 . S
C2277 C2275 1.389 . S
C2277 C2278 1.524 . S
C2278 C2277 1.524 . S
C2278 C2279 1.397 . S
C2278 C2283 1.363 . S
C2279 H2250 0.950 . S
C2279 C2278 1.397 . S
C2279 C2280 1.334 . S
C2280 H2251 0.950 . S
C2280 C2279 1.334 . S
C2280 C2281 1.287 . S
C2281 C2280 1.287 . S
C2281 C2282 1.524 . S
C2281 H2284 0.999 . S
C2282 H2252 0.950 . S
C2282 C2281 1.524 . S
C2282 C2283 1.415 . S
C2283 H2253 0.950 . S
C2283 C2278 1.363 . S
C2283 C2282 1.415 . S
H2284 C2281 0.999 . S
H2285 C2266 0.913 . S
H2286 C2304 0.951 . S
H2287 C2306 0.951 . S
H2288 C2308 0.950 . S
H2289 C2309 0.950 . S
H2290 C2311 0.950 . S
H2291 C2314 0.950 . S
H2292 C2315 0.950 . S
H2293 C2317 0.950 . S
H2294 C2318 0.950 . S
H2295 C2319 0.951 . S
H2296 C2321 0.951 . S
H2297 C2323 0.950 . S
H2298 C2324 0.950 . S
H2299 C2326 0.950 . S
H2300 C2329 0.950 . S
H2301 C2330 0.950 . S
H2302 C2332 0.950 . S
H2303 C2333 0.950 . S
C2304 H2286 0.951 . S
C2304 C2305 1.366 . S
C2304 C2306 1.388 . S
C2305 C2304 1.366 . S
C2305 C2309 1.385 . S
C2306 H2287 0.951 . S
C2306 C2304 1.388 . S
C2306 C2307 1.366 . S
C2307 C2306 1.366 . S
C2307 C2308 1.414 . S
C2307 C2310 1.499 . S
C2308 H2288 0.950 . S
C2308 C2307 1.414 . S
C2308 C2309 1.374 . S
C2309 H2289 0.950 . S
C2309 C2305 1.385 . S
C2309 C2308 1.374 . S
C2310 C2307 1.499 . S
C2310 C2311 1.373 . S
C2310 C2312 1.389 . S
C2311 H2290 0.950 . S
C2311 C2310 1.373 . S
C2311 C2327 1.377 . S
C2312 C2310 1.389 . S
C2312 C2313 1.524 . S
C2312 C2326 1.377 . S
C2313 C2312 1.524 . S
C2313 C2314 1.397 . S
C2313 C2318 1.363 . S
C2314 H2291 0.950 . S
C2314 C2313 1.397 . S
C2314 C2315 1.334 . S
C2315 H2292 0.950 . S
C2315 C2314 1.334 . S
C2315 C2316 1.287 . S
C2316 C2315 1.287 . S
C2316 C2317 1.524 . S
C2316 H2335 0.913 . S
C2317 H2293 0.950 . S
C2317 C2316 1.524 . S
C2317 C2318 1.415 . S
C2318 H2294 0.950 . S
C2318 C2313 1.363 . S
C2318 C2317 1.415 . S
C2319 H2295 0.951 . S
C2319 C2320 1.366 . S
C2319 C2321 1.388 . S
C2320 C2319 1.366 . S
C2320 C2324 1.385 . S
C2321 H2296 0.951 . S
C2321 C2319 1.388 . S
C2321 C2322 1.366 . S
C2322 C2321 1.366 . S
C2322 C2323 1.414 . S
C2322 C2325 1.499 . S
C2323 H2297 0.950 . S
C2323 C2322 1.414 . S
C2323 C2324 1.374 . S
C2324 H2298 0.950 . S
C2324 C2320 1.385 . S
C2324 C2323 1.374 . S
C2325 C2322 1.499 . S
C2325 C2326 1.373 . S
C2325 C2327 1.389 . S
C2326 H2299 0.950 . S
C2326 C2312 1.377 . S
C2326 C2325 1.373 . S
C2327 C2311 1.377 . S
C2327 C2325 1.389 . S
C2327 C2328 1.524 . S
C2328 C2327 1.524 . S
C2328 C2329 1.397 . S
C2328 C2333 1.363 . S
C2329 H2300 0.950 . S
C2329 C2328 1.397 . S
C2329 C2330 1.334 . S
C2330 H2301 0.950 . S
C2330 C2329 1.334 . S
C2330 C2331 1.287 . S
C2331 C2330 1.287 . S
C2331 C2332 1.524 . S
C2331 H2334 0.999 . S
C2332 H2302 0.950 . S
C2332 C2331 1.524 . S
C2332 C2333 1.415 . S
C2333 H2303 0.950 . S
C2333 C2328 1.363 . S
C2333 C2332 1.415 . S
H2334 C2331 0.999 . S
H2335 C2316 0.913 . S
H2336 C2354 0.951 . S
H2337 C2356 0.951 . S
H2338 C2358 0.950 . S
H2339 C2359 0.950 . S
H2340 C2361 0.950 . S
H2341 C2364 0.950 . S
H2342 C2365 0.950 . S
H2343 C2367 0.950 . S
H2344 C2368 0.950 . S
H2345 C2369 0.951 . S
H2346 C2371 0.951 . S
H2347 C2373 0.950 . S
H2348 C2374 0.950 . S
H2349 C2376 0.950 . S
H2350 C2379 0.950 . S
H2351 C2380 0.950 . S
H2352 C2382 0.950 . S
H2353 C2383 0.950 . S
C2354 H2336 0.951 . S
C2354 C2355 1.366 . S
C2354 C2356 1.388 . S
C2355 C2354 1.366 . S
C2355 C2359 1.385 . S
C2356 H2337 0.951 . S
C2356 C2354 1.388 . S
C2356 C2357 1.366 . S
C2357 C2356 1.366 . S
C2357 C2358 1.414 . S
C2357 C2360 1.499 . S
C2358 H2338 0.950 . S
C2358 C2357 1.414 . S
C2358 C2359 1.374 . S
C2359 H2339 0.950 . S
C2359 C2355 1.385 . S
C2359 C2358 1.374 . S
C2360 C2357 1.499 . S
C2360 C2361 1.373 . S
C2360 C2362 1.389 . S
C2361 H2340 0.950 . S
C2361 C2360 1.373 . S
C2361 C2377 1.377 . S
C2362 C2360 1.389 . S
C2362 C2363 1.524 . S
C2362 C2376 1.377 . S
C2363 C2362 1.524 . S
C2363 C2364 1.397 . S
C2363 C2368 1.363 . S
C2364 H2341 0.950 . S
C2364 C2363 1.397 . S
C2364 C2365 1.334 . S
C2365 H2342 0.950 . S
C2365 C2364 1.334 . S
C2365 C2366 1.287 . S
C2366 C2365 1.287 . S
C2366 C2367 1.524 . S
C2366 H2385 0.913 . S
C2367 H2343 0.950 . S
C2367 C2366 1.524 . S
C2367 C2368 1.415 . S
C2368 H2344 0.950 . S
C2368 C2363 1.363 . S
C2368 C2367 1.415 . S
C2369 H2345 0.951 . S
C2369 C2370 1.366 . S
C2369 C2371 1.388 . S
C2370 C2369 1.366 . S
C2370 C2374 1.385 . S
C2371 H2346 0.951 . S
C2371 C2369 1.388 . S
C2371 C2372 1.366 . S
C2372 C2371 1.366 . S
C2372 C2373 1.414 . S
C2372 C2375 1.499 . S
C2373 H2347 0.950 . S
C2373 C2372 1.414 . S
C2373 C2374 1.374 . S
C2374 H2348 0.950 . S
C2374 C2370 1.385 . S
C2374 C2373 1.374 . S
C2375 C2372 1.499 . S
C2375 C2376 1.373 . S
C2375 C2377 1.389 . S
C2376 H2349 0.950 . S
C2376 C2362 1.377 . S
C2376 C2375 1.373 . S
C2377 C2361 1.377 . S
C2377 C2375 1.389 . S
C2377 C2378 1.524 . S
C2378 C2377 1.524 . S
C2378 C2379 1.397 . S
C2378 C2383 1.363 . S
C2379 H2350 0.950 . S
C2379 C2378 1.397 . S
C2379 C2380 1.334 . S
C2380 H2351 0.950 . S
C2380 C2379 1.334 . S
C2380 C2381 1.287 . S
C2381 C2380 1.287 . S
C2381 C2382 1.524 . S
C2381 H2384 0.999 . S
C2382 H2352 0.950 . S
C2382 C2381 1.524 . S
C2382 C2383 1.415 . S
C2383 H2353 0.950 . S
C2383 C2378 1.363 . S
C2383 C2382 1.415 . S
H2384 C2381 0.999 . S
H2385 C2366 0.913 . S
H2386 C2404 0.951 . S
H2387 C2406 0.951 . S
H2388 C2408 0.950 . S
H2389 C2409 0.950 . S
H2390 C2411 0.950 . S
H2391 C2414 0.950 . S
H2392 C2415 0.950 . S
H2393 C2417 0.950 . S
H2394 C2418 0.950 . S
H2395 C2419 0.951 . S
H2396 C2421 0.951 . S
H2397 C2423 0.950 . S
H2398 C2424 0.950 . S
H2399 C2426 0.950 . S
H2400 C2429 0.950 . S
H2401 C2430 0.950 . S
H2402 C2432 0.950 . S
H2403 C2433 0.950 . S
C2404 H2386 0.951 . S
C2404 C2405 1.366 . S
C2404 C2406 1.388 . S
C2405 C2404 1.366 . S
C2405 C2409 1.385 . S
C2406 H2387 0.951 . S
C2406 C2404 1.388 . S
C2406 C2407 1.366 . S
C2407 C2406 1.366 . S
C2407 C2408 1.414 . S
C2407 C2410 1.499 . S
C2408 H2388 0.950 . S
C2408 C2407 1.414 . S
C2408 C2409 1.374 . S
C2409 H2389 0.950 . S
C2409 C2405 1.385 . S
C2409 C2408 1.374 . S
C2410 C2407 1.499 . S
C2410 C2411 1.373 . S
C2410 C2412 1.389 . S
C2411 H2390 0.950 . S
C2411 C2410 1.373 . S
C2411 C2427 1.377 . S
C2412 C2410 1.389 . S
C2412 C2413 1.524 . S
C2412 C2426 1.377 . S
C2413 C2412 1.524 . S
C2413 C2414 1.397 . S
C2413 C2418 1.363 . S
C2414 H2391 0.950 . S
C2414 C2413 1.397 . S
C2414 C2415 1.334 . S
C2415 H2392 0.950 . S
C2415 C2414 1.334 . S
C2415 C2416 1.287 . S
C2416 C2415 1.287 . S
C2416 C2417 1.524 . S
C2416 H2435 0.913 . S
C2417 H2393 0.950 . S
C2417 C2416 1.524 . S
C2417 C2418 1.415 . S
C2418 H2394 0.950 . S
C2418 C2413 1.363 . S
C2418 C2417 1.415 . S
C2419 H2395 0.951 . S
C2419 C2420 1.366 . S
C2419 C2421 1.388 . S
C2420 C2419 1.366 . S
C2420 C2424 1.385 . S
C2421 H2396 0.951 . S
C2421 C2419 1.388 . S
C2421 C2422 1.366 . S
C2422 C2421 1.366 . S
C2422 C2423 1.414 . S
C2422 C2425 1.499 . S
C2423 H2397 0.950 . S
C2423 C2422 1.414 . S
C2423 C2424 1.374 . S
C2424 H2398 0.950 . S
C2424 C2420 1.385 . S
C2424 C2423 1.374 . S
C2425 C2422 1.499 . S
C2425 C2426 1.373 . S
C2425 C2427 1.389 . S
C2426 H2399 0.950 . S
C2426 C2412 1.377 . S
C2426 C2425 1.373 . S
C2427 C2411 1.377 . S
C2427 C2425 1.389 . S
C2427 C2428 1.524 . S
C2428 C2427 1.524 . S
C2428 C2429 1.397 . S
C2428 C2433 1.363 . S
C2429 H2400 0.950 . S
C2429 C2428 1.397 . S
C2429 C2430 1.334 . S
C2430 H2401 0.950 . S
C2430 C2429 1.334 . S
C2430 C2431 1.287 . S
C2431 C2430 1.287 . S
C2431 C2432 1.524 . S
C2431 H2434 0.999 . S
C2432 H2402 0.950 . S
C2432 C2431 1.524 . S
C2432 C2433 1.415 . S
C2433 H2403 0.950 . S
C2433 C2428 1.363 . S
C2433 C2432 1.415 . S
H2434 C2431 0.999 . S
H2435 C2416 0.913 . S
H2436 C2454 0.951 . S
H2437 C2456 0.951 . S
H2438 C2458 0.950 . S
H2439 C2459 0.950 . S
H2440 C2461 0.950 . S
H2441 C2464 0.950 . S
H2442 C2465 0.950 . S
H2443 C2467 0.950 . S
H2444 C2468 0.950 . S
H2445 C2469 0.951 . S
H2446 C2471 0.951 . S
H2447 C2473 0.950 . S
H2448 C2474 0.950 . S
H2449 C2476 0.950 . S
H2450 C2479 0.950 . S
H2451 C2480 0.950 . S
H2452 C2482 0.950 . S
H2453 C2483 0.950 . S
C2454 H2436 0.951 . S
C2454 C2455 1.366 . S
C2454 C2456 1.388 . S
C2455 C2454 1.366 . S
C2455 C2459 1.385 . S
C2456 H2437 0.951 . S
C2456 C2454 1.388 . S
C2456 C2457 1.366 . S
C2457 C2456 1.366 . S
C2457 C2458 1.414 . S
C2457 C2460 1.499 . S
C2458 H2438 0.950 . S
C2458 C2457 1.414 . S
C2458 C2459 1.374 . S
C2459 H2439 0.950 . S
C2459 C2455 1.385 . S
C2459 C2458 1.374 . S
C2460 C2457 1.499 . S
C2460 C2461 1.373 . S
C2460 C2462 1.389 . S
C2461 H2440 0.950 . S
C2461 C2460 1.373 . S
C2461 C2477 1.377 . S
C2462 C2460 1.389 . S
C2462 C2463 1.524 . S
C2462 C2476 1.377 . S
C2463 C2462 1.524 . S
C2463 C2464 1.397 . S
C2463 C2468 1.363 . S
C2464 H2441 0.950 . S
C2464 C2463 1.397 . S
C2464 C2465 1.334 . S
C2465 H2442 0.950 . S
C2465 C2464 1.334 . S
C2465 C2466 1.287 . S
C2466 C2465 1.287 . S
C2466 C2467 1.524 . S
C2466 H2485 0.913 . S
C2467 H2443 0.950 . S
C2467 C2466 1.524 . S
C2467 C2468 1.415 . S
C2468 H2444 0.950 . S
C2468 C2463 1.363 . S
C2468 C2467 1.415 . S
C2469 H2445 0.951 . S
C2469 C2470 1.366 . S
C2469 C2471 1.388 . S
C2470 C2469 1.366 . S
C2470 C2474 1.385 . S
C2471 H2446 0.951 . S
C2471 C2469 1.388 . S
C2471 C2472 1.366 . S
C2472 C2471 1.366 . S
C2472 C2473 1.414 . S
C2472 C2475 1.499 . S
C2473 H2447 0.950 . S
C2473 C2472 1.414 . S
C2473 C2474 1.374 . S
C2474 H2448 0.950 . S
C2474 C2470 1.385 . S
C2474 C2473 1.374 . S
C2475 C2472 1.499 . S
C2475 C2476 1.373 . S
C2475 C2477 1.389 . S
C2476 H2449 0.950 . S
C2476 C2462 1.377 . S
C2476 C2475 1.373 . S
C2477 C2461 1.377 . S
C2477 C2475 1.389 . S
C2477 C2478 1.524 . S
C2478 C2477 1.524 . S
C2478 C2479 1.397 . S
C2478 C2483 1.363 . S
C2479 H2450 0.950 . S
C2479 C2478 1.397 . S
C2479 C2480 1.334 . S
C2480 H2451 0.950 . S
C2480 C2479 1.334 . S
C2480 C2481 1.287 . S
C2481 C2480 1.287 . S
C2481 C2482 1.524 . S
C2481 H2484 0.999 . S
C2482 H2452 0.950 . S
C2482 C2481 1.524 . S
C2482 C2483 1.415 . S
C2483 H2453 0.950 . S
C2483 C2478 1.363 . S
C2483 C2482 1.415 . S
H2484 C2481 0.999 . S
H2485 C2466 0.913 . S
H2486 C2504 0.951 . S
H2487 C2506 0.951 . S
H2488 C2508 0.950 . S
H2489 C2509 0.950 . S
H2490 C2511 0.950 . S
H2491 C2514 0.950 . S
H2492 C2515 0.950 . S
H2493 C2517 0.950 . S
H2494 C2518 0.950 . S
H2495 C2519 0.951 . S
H2496 C2521 0.951 . S
H2497 C2523 0.950 . S
H2498 C2524 0.950 . S
H2499 C2526 0.950 . S
H2500 C2529 0.950 . S
H2501 C2530 0.950 . S
H2502 C2532 0.950 . S
H2503 C2533 0.950 . S
C2504 H2486 0.951 . S
C2504 C2505 1.366 . S
C2504 C2506 1.388 . S
C2505 C2504 1.366 . S
C2505 C2509 1.385 . S
C2506 H2487 0.951 . S
C2506 C2504 1.388 . S
C2506 C2507 1.366 . S
C2507 C2506 1.366 . S
C2507 C2508 1.414 . S
C2507 C2510 1.499 . S
C2508 H2488 0.950 . S
C2508 C2507 1.414 . S
C2508 C2509 1.374 . S
C2509 H2489 0.950 . S
C2509 C2505 1.385 . S
C2509 C2508 1.374 . S
C2510 C2507 1.499 . S
C2510 C2511 1.373 . S
C2510 C2512 1.389 . S
C2511 H2490 0.950 . S
C2511 C2510 1.373 . S
C2511 C2527 1.377 . S
C2512 C2510 1.389 . S
C2512 C2513 1.524 . S
C2512 C2526 1.377 . S
C2513 C2512 1.524 . S
C2513 C2514 1.397 . S
C2513 C2518 1.363 . S
C2514 H2491 0.950 . S
C2514 C2513 1.397 . S
C2514 C2515 1.334 . S
C2515 H2492 0.950 . S
C2515 C2514 1.334 . S
C2515 C2516 1.287 . S
C2516 C2515 1.287 . S
C2516 C2517 1.524 . S
C2516 H2535 0.913 . S
C2517 H2493 0.950 . S
C2517 C2516 1.524 . S
C2517 C2518 1.415 . S
C2518 H2494 0.950 . S
C2518 C2513 1.363 . S
C2518 C2517 1.415 . S
C2519 H2495 0.951 . S
C2519 C2520 1.366 . S
C2519 C2521 1.388 . S
C2520 C2519 1.366 . S
C2520 C2524 1.385 . S
C2521 H2496 0.951 . S
C2521 C2519 1.388 . S
C2521 C2522 1.366 . S
C2522 C2521 1.366 . S
C2522 C2523 1.414 . S
C2522 C2525 1.499 . S
C2523 H2497 0.950 . S
C2523 C2522 1.414 . S
C2523 C2524 1.374 . S
C2524 H2498 0.950 . S
C2524 C2520 1.385 . S
C2524 C2523 1.374 . S
C2525 C2522 1.499 . S
C2525 C2526 1.373 . S
C2525 C2527 1.389 . S
C2526 H2499 0.950 . S
C2526 C2512 1.377 . S
C2526 C2525 1.373 . S
C2527 C2511 1.377 . S
C2527 C2525 1.389 . S
C2527 C2528 1.524 . S
C2528 C2527 1.524 . S
C2528 C2529 1.397 . S
C2528 C2533 1.363 . S
C2529 H2500 0.950 . S
C2529 C2528 1.397 . S
C2529 C2530 1.334 . S
C2530 H2501 0.950 . S
C2530 C2529 1.334 . S
C2530 C2531 1.287 . S
C2531 C2530 1.287 . S
C2531 C2532 1.524 . S
C2531 H2534 0.999 . S
C2532 H2502 0.950 . S
C2532 C2531 1.524 . S
C2532 C2533 1.415 . S
C2533 H2503 0.950 . S
C2533 C2528 1.363 . S
C2533 C2532 1.415 . S
H2534 C2531 0.999 . S
H2535 C2516 0.913 . S
H2536 C2554 0.951 . S
H2537 C2556 0.951 . S
H2538 C2558 0.950 . S
H2539 C2559 0.950 . S
H2540 C2561 0.950 . S
H2541 C2564 0.950 . S
H2542 C2565 0.950 . S
H2543 C2567 0.950 . S
H2544 C2568 0.950 . S
H2545 C2569 0.951 . S
H2546 C2571 0.951 . S
H2547 C2573 0.950 . S
H2548 C2574 0.950 . S
H2549 C2576 0.950 . S
H2550 C2579 0.950 . S
H2551 C2580 0.950 . S
H2552 C2582 0.950 . S
H2553 C2583 0.950 . S
C2554 H2536 0.951 . S
C2554 C2555 1.366 . S
C2554 C2556 1.388 . S
C2555 C2554 1.366 . S
C2555 C2559 1.385 . S
C2556 H2537 0.951 . S
C2556 C2554 1.388 . S
C2556 C2557 1.366 . S
C2557 C2556 1.366 . S
C2557 C2558 1.414 . S
C2557 C2560 1.499 . S
C2558 H2538 0.950 . S
C2558 C2557 1.414 . S
C2558 C2559 1.374 . S
C2559 H2539 0.950 . S
C2559 C2555 1.385 . S
C2559 C2558 1.374 . S
C2560 C2557 1.499 . S
C2560 C2561 1.373 . S
C2560 C2562 1.389 . S
C2561 H2540 0.950 . S
C2561 C2560 1.373 . S
C2561 C2577 1.377 . S
C2562 C2560 1.389 . S
C2562 C2563 1.524 . S
C2562 C2576 1.377 . S
C2563 C2562 1.524 . S
C2563 C2564 1.397 . S
C2563 C2568 1.363 . S
C2564 H2541 0.950 . S
C2564 C2563 1.397 . S
C2564 C2565 1.334 . S
C2565 H2542 0.950 . S
C2565 C2564 1.334 . S
C2565 C2566 1.287 . S
C2566 C2565 1.287 . S
C2566 C2567 1.524 . S
C2566 H2585 0.913 . S
C2567 H2543 0.950 . S
C2567 C2566 1.524 . S
C2567 C2568 1.415 . S
C2568 H2544 0.950 . S
C2568 C2563 1.363 . S
C2568 C2567 1.415 . S
C2569 H2545 0.951 . S
C2569 C2570 1.366 . S
C2569 C2571 1.388 . S
C2570 C2569 1.366 . S
C2570 C2574 1.385 . S
C2571 H2546 0.951 . S
C2571 C2569 1.388 . S
C2571 C2572 1.366 . S
C2572 C2571 1.366 . S
C2572 C2573 1.414 . S
C2572 C2575 1.499 . S
C2573 H2547 0.950 . S
C2573 C2572 1.414 . S
C2573 C2574 1.374 . S
C2574 H2548 0.950 . S
C2574 C2570 1.385 . S
C2574 C2573 1.374 . S
C2575 C2572 1.499 . S
C2575 C2576 1.373 . S
C2575 C2577 1.389 . S
C2576 H2549 0.950 . S
C2576 C2562 1.377 . S
C2576 C2575 1.373 . S
C2577 C2561 1.377 . S
C2577 C2575 1.389 . S
C2577 C2578 1.524 . S
C2578 C2577 1.524 . S
C2578 C2579 1.397 . S
C2578 C2583 1.363 . S
C2579 H2550 0.950 . S
C2579 C2578 1.397 . S
C2579 C2580 1.334 . S
C2580 H2551 0.950 . S
C2580 C2579 1.334 . S
C2580 C2581 1.287 . S
C2581 C2580 1.287 . S
C2581 C2582 1.524 . S
C2581 H2584 0.999 . S
C2582 H2552 0.950 . S
C2582 C2581 1.524 . S
C2582 C2583 1.415 . S
C2583 H2553 0.950 . S
C2583 C2578 1.363 . S
C2583 C2582 1.415 . S
H2584 C2581 0.999 . S
H2585 C2566 0.913 . S
H2586 C2604 0.951 . S
H2587 C2606 0.951 . S
H2588 C2608 0.950 . S
H2589 C2609 0.950 . S
H2590 C2611 0.950 . S
H2591 C2614 0.950 . S
H2592 C2615 0.950 . S
H2593 C2617 0.950 . S
H2594 C2618 0.950 . S
H2595 C2619 0.951 . S
H2596 C2621 0.951 . S
H2597 C2623 0.950 . S
H2598 C2624 0.950 . S
H2599 C2626 0.950 . S
H2600 C2629 0.950 . S
H2601 C2630 0.950 . S
H2602 C2632 0.950 . S
H2603 C2633 0.950 . S
C2604 H2586 0.951 . S
C2604 C2605 1.366 . S
C2604 C2606 1.388 . S
C2605 C2604 1.366 . S
C2605 C2609 1.385 . S
C2606 H2587 0.951 . S
C2606 C2604 1.388 . S
C2606 C2607 1.366 . S
C2607 C2606 1.366 . S
C2607 C2608 1.414 . S
C2607 C2610 1.499 . S
C2608 H2588 0.950 . S
C2608 C2607 1.414 . S
C2608 C2609 1.374 . S
C2609 H2589 0.950 . S
C2609 C2605 1.385 . S
C2609 C2608 1.374 . S
C2610 C2607 1.499 . S
C2610 C2611 1.373 . S
C2610 C2612 1.389 . S
C2611 H2590 0.950 . S
C2611 C2610 1.373 . S
C2611 C2627 1.377 . S
C2612 C2610 1.389 . S
C2612 C2613 1.524 . S
C2612 C2626 1.377 . S
C2613 C2612 1.524 . S
C2613 C2614 1.397 . S
C2613 C2618 1.363 . S
C2614 H2591 0.950 . S
C2614 C2613 1.397 . S
C2614 C2615 1.334 . S
C2615 H2592 0.950 . S
C2615 C2614 1.334 . S
C2615 C2616 1.287 . S
C2616 C2615 1.287 . S
C2616 C2617 1.524 . S
C2616 H2635 0.913 . S
C2617 H2593 0.950 . S
C2617 C2616 1.524 . S
C2617 C2618 1.415 . S
C2618 H2594 0.950 . S
C2618 C2613 1.363 . S
C2618 C2617 1.415 . S
C2619 H2595 0.951 . S
C2619 C2620 1.366 . S
C2619 C2621 1.388 . S
C2620 C2619 1.366 . S
C2620 C2624 1.385 . S
C2621 H2596 0.951 . S
C2621 C2619 1.388 . S
C2621 C2622 1.366 . S
C2622 C2621 1.366 . S
C2622 C2623 1.414 . S
C2622 C2625 1.499 . S
C2623 H2597 0.950 . S
C2623 C2622 1.414 . S
C2623 C2624 1.374 . S
C2624 H2598 0.950 . S
C2624 C2620 1.385 . S
C2624 C2623 1.374 . S
C2625 C2622 1.499 . S
C2625 C2626 1.373 . S
C2625 C2627 1.389 . S
C2626 H2599 0.950 . S
C2626 C2612 1.377 . S
C2626 C2625 1.373 . S
C2627 C2611 1.377 . S
C2627 C2625 1.389 . S
C2627 C2628 1.524 . S
C2628 C2627 1.524 . S
C2628 C2629 1.397 . S
C2628 C2633 1.363 . S
C2629 H2600 0.950 . S
C2629 C2628 1.397 . S
C2629 C2630 1.334 . S
C2630 H2601 0.950 . S
C2630 C2629 1.334 . S
C2630 C2631 1.287 . S
C2631 C2630 1.287 . S
C2631 C2632 1.524 . S
C2631 H2634 0.999 . S
C2632 H2602 0.950 . S
C2632 C2631 1.524 . S
C2632 C2633 1.415 . S
C2633 H2603 0.950 . S
C2633 C2628 1.363 . S
C2633 C2632 1.415 . S
H2634 C2631 0.999 . S
H2635 C2616 0.913 . S
H2636 C2654 0.951 . S
H2637 C2656 0.951 . S
H2638 C2658 0.950 . S
H2639 C2659 0.950 . S
H2640 C2661 0.950 . S
H2641 C2664 0.950 . S
H2642 C2665 0.950 . S
H2643 C2667 0.950 . S
H2644 C2668 0.950 . S
H2645 C2669 0.951 . S
H2646 C2671 0.951 . S
H2647 C2673 0.950 . S
H2648 C2674 0.950 . S
H2649 C2676 0.950 . S
H2650 C2679 0.950 . S
H2651 C2680 0.950 . S
H2652 C2682 0.950 . S
H2653 C2683 0.950 . S
C2654 H2636 0.951 . S
C2654 C2655 1.366 . S
C2654 C2656 1.388 . S
C2655 C2654 1.366 . S
C2655 C2659 1.385 . S
C2656 H2637 0.951 . S
C2656 C2654 1.388 . S
C2656 C2657 1.366 . S
C2657 C2656 1.366 . S
C2657 C2658 1.414 . S
C2657 C2660 1.499 . S
C2658 H2638 0.950 . S
C2658 C2657 1.414 . S
C2658 C2659 1.374 . S
C2659 H2639 0.950 . S
C2659 C2655 1.385 . S
C2659 C2658 1.374 . S
C2660 C2657 1.499 . S
C2660 C2661 1.373 . S
C2660 C2662 1.389 . S
C2661 H2640 0.950 . S
C2661 C2660 1.373 . S
C2661 C2677 1.377 . S
C2662 C2660 1.389 . S
C2662 C2663 1.524 . S
C2662 C2676 1.377 . S
C2663 C2662 1.524 . S
C2663 C2664 1.397 . S
C2663 C2668 1.363 . S
C2664 H2641 0.950 . S
C2664 C2663 1.397 . S
C2664 C2665 1.334 . S
C2665 H2642 0.950 . S
C2665 C2664 1.334 . S
C2665 C2666 1.287 . S
C2666 C2665 1.287 . S
C2666 C2667 1.524 . S
C2666 H2685 0.913 . S
C2667 H2643 0.950 . S
C2667 C2666 1.524 . S
C2667 C2668 1.415 . S
C2668 H2644 0.950 . S
C2668 C2663 1.363 . S
C2668 C2667 1.415 . S
C2669 H2645 0.951 . S
C2669 C2670 1.366 . S
C2669 C2671 1.388 . S
C2670 C2669 1.366 . S
C2670 C2674 1.385 . S
C2671 H2646 0.951 . S
C2671 C2669 1.388 . S
C2671 C2672 1.366 . S
C2672 C2671 1.366 . S
C2672 C2673 1.414 . S
C2672 C2675 1.499 . S
C2673 H2647 0.950 . S
C2673 C2672 1.414 . S
C2673 C2674 1.374 . S
C2674 H2648 0.950 . S
C2674 C2670 1.385 . S
C2674 C2673 1.374 . S
C2675 C2672 1.499 . S
C2675 C2676 1.373 . S
C2675 C2677 1.389 . S
C2676 H2649 0.950 . S
C2676 C2662 1.377 . S
C2676 C2675 1.373 . S
C2677 C2661 1.377 . S
C2677 C2675 1.389 . S
C2677 C2678 1.524 . S
C2678 C2677 1.524 . S
C2678 C2679 1.397 . S
C2678 C2683 1.363 . S
C2679 H2650 0.950 . S
C2679 C2678 1.397 . S
C2679 C2680 1.334 . S
C2680 H2651 0.950 . S
C2680 C2679 1.334 . S
C2680 C2681 1.287 . S
C2681 C2680 1.287 . S
C2681 C2682 1.524 . S
C2681 H2684 0.999 . S
C2682 H2652 0.950 . S
C2682 C2681 1.524 . S
C2682 C2683 1.415 . S
C2683 H2653 0.950 . S
C2683 C2678 1.363 . S
C2683 C2682 1.415 . S
H2684 C2681 0.999 . S
H2685 C2666 0.913 . S
H2686 C2704 0.951 . S
H2687 C2706 0.951 . S
H2688 C2708 0.950 . S
H2689 C2709 0.950 . S
H2690 C2711 0.950 . S
H2691 C2714 0.950 . S
H2692 C2715 0.950 . S
H2693 C2717 0.950 . S
H2694 C2718 0.950 . S
H2695 C2719 0.951 . S
H2696 C2721 0.951 . S
H2697 C2723 0.950 . S
H2698 C2724 0.950 . S
H2699 C2726 0.950 . S
H2700 C2729 0.950 . S
H2701 C2730 0.950 . S
H2702 C2732 0.950 . S
H2703 C2733 0.950 . S
C2704 H2686 0.951 . S
C2704 C2705 1.366 . S
C2704 C2706 1.388 . S
C2705 C2704 1.366 . S
C2705 C2709 1.385 . S
C2706 H2687 0.951 . S
C2706 C2704 1.388 . S
C2706 C2707 1.366 . S
C2707 C2706 1.366 . S
C2707 C2708 1.414 . S
C2707 C2710 1.499 . S
C2708 H2688 0.950 . S
C2708 C2707 1.414 . S
C2708 C2709 1.374 . S
C2709 H2689 0.950 . S
C2709 C2705 1.385 . S
C2709 C2708 1.374 . S
C2710 C2707 1.499 . S
C2710 C2711 1.373 . S
C2710 C2712 1.389 . S
C2711 H2690 0.950 . S
C2711 C2710 1.373 . S
C2711 C2727 1.377 . S
C2712 C2710 1.389 . S
C2712 C2713 1.524 . S
C2712 C2726 1.377 . S
C2713 C2712 1.524 . S
C2713 C2714 1.397 . S
C2713 C2718 1.363 . S
C2714 H2691 0.950 . S
C2714 C2713 1.397 . S
C2714 C2715 1.334 . S
C2715 H2692 0.950 . S
C2715 C2714 1.334 . S
C2715 C2716 1.287 . S
C2716 C2715 1.287 . S
C2716 C2717 1.524 . S
C2716 H2735 0.913 . S
C2717 H2693 0.950 . S
C2717 C2716 1.524 . S
C2717 C2718 1.415 . S
C2718 H2694 0.950 . S
C2718 C2713 1.363 . S
C2718 C2717 1.415 . S
C2719 H2695 0.951 . S
C2719 C2720 1.366 . S
C2719 C2721 1.388 . S
C2720 C2719 1.366 . S
C2720 C2724 1.385 . S
C2721 H2696 0.951 . S
C2721 C2719 1.388 . S
C2721 C2722 1.366 . S
C2722 C2721 1.366 . S
C2722 C2723 1.414 . S
C2722 C2725 1.499 . S
C2723 H2697 0.950 . S
C2723 C2722 1.414 . S
C2723 C2724 1.374 . S
C2724 H2698 0.950 . S
C2724 C2720 1.385 . S
C2724 C2723 1.374 . S
C2725 C2722 1.499 . S
C2725 C2726 1.373 . S
C2725 C2727 1.389 . S
C2726 H2699 0.950 . S
C2726 C2712 1.377 . S
C2726 C2725 1.373 . S
C2727 C2711 1.377 . S
C2727 C2725 1.389 . S
C2727 C2728 1.524 . S
C2728 C2727 1.524 . S
C2728 C2729 1.397 . S
C2728 C2733 1.363 . S
C2729 H2700 0.950 . S
C2729 C2728 1.397 . S
C2729 C2730 1.334 . S
C2730 H2701 0.950 . S
C2730 C2729 1.334 . S
C2730 C2731 1.287 . S
C2731 C2730 1.287 . S
C2731 C2732 1.524 . S
C2731 H2734 0.999 . S
C2732 H2702 0.950 . S
C2732 C2731 1.524 . S
C2732 C2733 1.415 . S
C2733 H2703 0.950 . S
C2733 C2728 1.363 . S
C2733 C2732 1.415 . S
H2734 C2731 0.999 . S
H2735 C2716 0.913 . S
C355 C311 2.028 . S
C370 C8 1.968 . S
C405 C17 2.000 . S
C420 C232 1.946 . S
C455 C325 1.960 . S
C470 C36 1.898 . S
C505 C302 1.938 . S
C520 C50 1.984 . S
C555 C260 1.974 . S
C570 C64 1.928 . S
C605 C269 1.854 . S
C620 C73 1.979 . S
C655 C288 2.007 . S
C670 C87 1.902 . S
C705 C101 1.969 . S
C720 C241 1.853 . S
C755 C185 2.024 . S
C770 C115 1.915 . S
C805 C204 1.911 . S
C820 C134 1.965 . S
C855 C143 1.922 . S
C870 C213 2.033 . S
C905 C162 1.960 . S
C920 C176 1.906 . S
C955 C106 1.969 . S
C970 C199 2.029 . S
C1005 C218 1.947 . S
C1020 C59 2.000 . S
C1055 C78 1.899 . S
C1070 C171 1.960 . S
C1105 C190 1.938 . S
C1120 C92 1.984 . S
C1155 C148 1.974 . S
C1170 C22 1.928 . S
C1205 C31 1.978 . S
C1220 C157 1.853 . S
C1255 C45 1.902 . S
C1270 C120 2.007 . S
C1305 C3 1.969 . S
C1320 C129 1.854 . S
C1355 C283 1.914 . S
C1370 C297 2.023 . S
C1405 C316 1.911 . S
C1420 C246 1.965 . S
C1455 C255 1.921 . S
C1470 C227 2.033 . S
C1505 C330 1.906 . S
C1520 C274 1.961 . S
C1555 C9 0.678 . S
C1570 C121 0.570 . S
C1605 C133 0.595 . S
C1620 C21 0.485 . S
C1655 C37 0.662 . S
C1670 C149 0.504 . S
C1705 C51 0.503 . S
C1720 C161 0.607 . S
C1755 C65 0.657 . S
C1770 C175 0.495 . S
C1805 C77 0.537 . S
C1820 C191 0.661 . S
C1855 C203 0.488 . S
C1870 C91 0.597 . S
C1905 C219 0.665 . S
C1920 C105 0.567 . S
C1955 C119 0.630 . S
C1970 C231 0.558 . S
C2005 C135 0.503 . S
C2020 C331 0.671 . S
C2055 C301 0.570 . S
C2070 C147 0.637 . S
C2105 C317 0.666 . S
C2120 C163 0.491 . S
C2155 C247 0.504 . S
C2170 C177 0.674 . S
C2205 C259 0.638 . S
C2220 C189 0.569 . S
C2255 C205 0.665 . S
C2270 C275 0.491 . S
C2305 C217 0.558 . S
C2320 C287 0.629 . S
C2355 C7 0.564 . S
C2370 C233 0.668 . S
C2405 C245 0.596 . S
C2420 C63 0.485 . S
C2455 C261 0.506 . S
C2470 C79 0.667 . S
C2505 C273 0.606 . S
C2520 C93 0.503 . S
C2555 C289 0.568 . S
C2570 C107 0.675 . S
C2605 C303 0.661 . S
C2620 C35 0.536 . S
C2655 C49 0.599 . S
C2670 C315 0.486 . S
C2705 C329 0.497 . S
C2720 C23 0.654 . S
