# Generated by pormake.
# Topology yfy, (5)-cn, num edge types: 1
# Building blocks:
#     Node 0, Type 0, BuildingBlock: BEQFEK_clean_sbu_0, # of connection points: 5
#     Node 1, Type 0, BuildingBlock: BEQFEK_clean_sbu_0, # of connection points: 5
#     Node 2, Type 0, BuildingBlock: BEQFEK_clean_sbu_0, # of connection points: 5
#     Node 3, Type 0, BuildingBlock: BEQFEK_clean_sbu_0, # of connection points: 5
#     Node 4, Type 0, BuildingBlock: BEQFEK_clean_sbu_0, # of connection points: 5
#     Node 5, Type 0, BuildingBlock: BEQFEK_clean_sbu_0, # of connection points: 5
#     Node 6, Type 0, BuildingBlock: BEQFEK_clean_sbu_0, # of connection points: 5
#     Node 7, Type 0, BuildingBlock: BEQFEK_clean_sbu_0, # of connection points: 5
#     Node 8, Type 0, BuildingBlock: BEQFEK_clean_sbu_0, # of connection points: 5
#     Node 9, Type 0, BuildingBlock: BEQFEK_clean_sbu_0, # of connection points: 5
#     Node 10, Type 0, BuildingBlock: BEQFEK_clean_sbu_0, # of connection points: 5
#     Node 11, Type 0, BuildingBlock: BEQFEK_clean_sbu_0, # of connection points: 5
#     Node 12, Type 0, BuildingBlock: BEQFEK_clean_sbu_0, # of connection points: 5
#     Node 13, Type 0, BuildingBlock: BEQFEK_clean_sbu_0, # of connection points: 5
#     Node 14, Type 0, BuildingBlock: BEQFEK_clean_sbu_0, # of connection points: 5
#     Node 15, Type 0, BuildingBlock: BEQFEK_clean_sbu_0, # of connection points: 5
#     Edge 16, Type (0, 0), BuildingBlock: AJUNOK_clean_linker_0, # of connection points: 2
#     Edge 17, Type (0, 0), BuildingBlock: AJUNOK_clean_linker_0, # of connection points: 2
#     Edge 18, Type (0, 0), BuildingBlock: AJUNOK_clean_linker_0, # of connection points: 2
#     Edge 19, Type (0, 0), BuildingBlock: AJUNOK_clean_linker_0, # of connection points: 2
#     Edge 20, Type (0, 0), BuildingBlock: AJUNOK_clean_linker_0, # of connection points: 2
#     Edge 21, Type (0, 0), BuildingBlock: AJUNOK_clean_linker_0, # of connection points: 2
#     Edge 22, Type (0, 0), BuildingBlock: AJUNOK_clean_linker_0, # of connection points: 2
#     Edge 23, Type (0, 0), BuildingBlock: AJUNOK_clean_linker_0, # of connection points: 2
#     Edge 24, Type (0, 0), BuildingBlock: AJUNOK_clean_linker_0, # of connection points: 2
#     Edge 25, Type (0, 0), BuildingBlock: AJUNOK_clean_linker_0, # of connection points: 2
#     Edge 26, Type (0, 0), BuildingBlock: AJUNOK_clean_linker_0, # of connection points: 2
#     Edge 27, Type (0, 0), BuildingBlock: AJUNOK_clean_linker_0, # of connection points: 2
#     Edge 28, Type (0, 0), BuildingBlock: AJUNOK_clean_linker_0, # of connection points: 2
#     Edge 29, Type (0, 0), BuildingBlock: AJUNOK_clean_linker_0, # of connection points: 2
#     Edge 30, Type (0, 0), BuildingBlock: AJUNOK_clean_linker_0, # of connection points: 2
#     Edge 31, Type (0, 0), BuildingBlock: AJUNOK_clean_linker_0, # of connection points: 2
#     Edge 32, Type (0, 0), BuildingBlock: AJUNOK_clean_linker_0, # of connection points: 2
#     Edge 33, Type (0, 0), BuildingBlock: AJUNOK_clean_linker_0, # of connection points: 2
#     Edge 34, Type (0, 0), BuildingBlock: AJUNOK_clean_linker_0, # of connection points: 2
#     Edge 35, Type (0, 0), BuildingBlock: AJUNOK_clean_linker_0, # of connection points: 2
#     Edge 36, Type (0, 0), BuildingBlock: AJUNOK_clean_linker_0, # of connection points: 2
#     Edge 37, Type (0, 0), BuildingBlock: AJUNOK_clean_linker_0, # of connection points: 2
#     Edge 38, Type (0, 0), BuildingBlock: AJUNOK_clean_linker_0, # of connection points: 2
#     Edge 39, Type (0, 0), BuildingBlock: AJUNOK_clean_linker_0, # of connection points: 2
#     Edge 40, Type (0, 0), BuildingBlock: AJUNOK_clean_linker_0, # of connection points: 2
#     Edge 41, Type (0, 0), BuildingBlock: AJUNOK_clean_linker_0, # of connection points: 2
#     Edge 42, Type (0, 0), BuildingBlock: AJUNOK_clean_linker_0, # of connection points: 2
#     Edge 43, Type (0, 0), BuildingBlock: AJUNOK_clean_linker_0, # of connection points: 2
#     Edge 44, Type (0, 0), BuildingBlock: AJUNOK_clean_linker_0, # of connection points: 2
#     Edge 45, Type (0, 0), BuildingBlock: AJUNOK_clean_linker_0, # of connection points: 2
#     Edge 46, Type (0, 0), BuildingBlock: AJUNOK_clean_linker_0, # of connection points: 2
#     Edge 47, Type (0, 0), BuildingBlock: AJUNOK_clean_linker_0, # of connection points: 2
#     Edge 48, Type (0, 0), BuildingBlock: AJUNOK_clean_linker_0, # of connection points: 2
#     Edge 49, Type (0, 0), BuildingBlock: AJUNOK_clean_linker_0, # of connection points: 2
#     Edge 50, Type (0, 0), BuildingBlock: AJUNOK_clean_linker_0, # of connection points: 2
#     Edge 51, Type (0, 0), BuildingBlock: AJUNOK_clean_linker_0, # of connection points: 2
#     Edge 52, Type (0, 0), BuildingBlock: AJUNOK_clean_linker_0, # of connection points: 2
#     Edge 53, Type (0, 0), BuildingBlock: AJUNOK_clean_linker_0, # of connection points: 2
#     Edge 54, Type (0, 0), BuildingBlock: AJUNOK_clean_linker_0, # of connection points: 2
#     Edge 55, Type (0, 0), BuildingBlock: AJUNOK_clean_linker_0, # of connection points: 2
# Relax obj value: 0.053
# Max RMSD: 0.070
# Mean RMSD: 0.070
data_MOF--net-yfy--node1-BEQFEK_clean_sbu_0--edge1-AJUNOK_clean_linker_0
_symmetry_space_group_name_H-M    P1
_symmetry_Int_Tables_number       1
_symmetry_cell_setting            triclinic
loop_
_symmetry_equiv_pos_as_xyz
'x, y, z'
_cell_length_a     36.649992
_cell_length_b     36.665551
_cell_length_c     32.856913
_cell_angle_alpha  89.888876
_cell_angle_beta   89.888503
_cell_angle_gamma 89.912146
loop_
_atom_site_label
_atom_site_type_symbol
_atom_site_fract_x
_atom_site_fract_y
_atom_site_fract_z
_atom_type_partial_charge
Co0 Co 0.16172 0.30519 0.35155 0.0
Co1 Co 0.11046 0.37372 0.34309 0.0
C2 C 0.08435 0.29989 0.32003 0.0
O3 O 0.11516 0.28575 0.32875 0.0
O4 O 0.07919 0.33411 0.32265 0.0
C5 C 0.19718 0.24181 0.3191 0.0
O6 O 0.17088 0.2445 0.29218 0.0
C7 C 0.06325 0.42862 0.30637 0.0
C8 C 0.07098 0.47586 0.34715 0.0
C9 C 0.05338 0.46469 0.31208 0.0
N10 N 0.08586 0.41888 0.33656 0.0
N11 N 0.09004 0.44705 0.36116 0.0
C12 C 0.05413 0.40471 0.27098 0.0
H13 H 0.0769 0.38551 0.26483 0.0
H14 H 0.04846 0.4212 0.24334 0.0
H15 H 0.02944 0.38855 0.2785 0.0
C16 C 0.21249 0.35637 0.3079 0.0
N17 N 0.17934 0.34748 0.32313 0.0
N18 N 0.15728 0.37553 0.31862 0.0
C19 C 0.17553 0.40293 0.30024 0.0
C20 C 0.21122 0.39196 0.29311 0.0
C21 C 0.24533 0.33222 0.31042 0.0
H22 H 0.24815 0.32157 0.3419 0.0
H23 H 0.24147 0.30852 0.28993 0.0
H24 H 0.27055 0.34694 0.3015 0.0
O25 O 0.14943 0.31635 0.41014 0.0
O26 O 0.11432 0.36536 0.40179 0.0
H27 H 0.15423 0.45458 0.31885 0.0
H28 H 0.17772 0.45575 0.27053 0.0
C29 C 0.15936 0.43938 0.29027 0.0
H30 H 0.13307 0.4356 0.2743 0.0
H31 H 0.10664 0.44685 0.38693 0.0
O32 O 0.19897 0.2652 0.34768 0.0
C33 C 0.12931 0.34172 0.42469 0.0
Co34 Co 0.89976 0.16207 0.35108 0.0
Co35 Co 0.83533 0.10684 0.34011 0.0
C36 C 0.90918 0.0843 0.31898 0.0
O37 O 0.9208 0.11483 0.33202 0.0
O38 O 0.87524 0.07778 0.31613 0.0
C39 C 0.96485 0.19604 0.32037 0.0
O40 O 0.96647 0.16634 0.29816 0.0
C41 C 0.78154 0.05946 0.30306 0.0
C42 C 0.73599 0.06111 0.34726 0.0
C43 C 0.74668 0.04659 0.31025 0.0
N44 N 0.79123 0.08056 0.33449 0.0
N45 N 0.76409 0.08121 0.36105 0.0
C46 C 0.80431 0.05433 0.26564 0.0
H47 H 0.82378 0.03159 0.27085 0.0
H48 H 0.82038 0.07937 0.25937 0.0
H49 H 0.78709 0.04766 0.23892 0.0
C50 C 0.84814 0.20959 0.30463 0.0
N51 N 0.85769 0.17725 0.3213 0.0
N52 N 0.83066 0.1541 0.31674 0.0
C53 C 0.80307 0.17093 0.29698 0.0
C54 C 0.81325 0.20665 0.2884 0.0
C55 C 0.87211 0.24253 0.3044 0.0
H56 H 0.89792 0.23596 0.28831 0.0
H57 H 0.85888 0.26608 0.28913 0.0
H58 H 0.87904 0.24988 0.3362 0.0
O59 O 0.88753 0.15234 0.40947 0.0
O60 O 0.8463 0.10877 0.3989 0.0
H61 H 0.74667 0.17395 0.27687 0.0
H62 H 0.7694 0.13084 0.26853 0.0
C63 C 0.76643 0.15414 0.28973 0.0
H64 H 0.75532 0.14378 0.3189 0.0
H65 H 0.76448 0.09599 0.38816 0.0
O66 O 0.93878 0.19992 0.34574 0.0
C67 C 0.86641 0.12728 0.42267 0.0
Co68 Co 0.04637 0.89947 0.35017 0.0
Co69 Co 0.09583 0.83022 0.34481 0.0
C70 C 0.12344 0.90385 0.31979 0.0
O71 O 0.09237 0.91852 0.32572 0.0
O72 O 0.12808 0.86981 0.32516 0.0
C73 C 1.00202 0.95598 0.3147 0.0
O74 O 1.01319 0.94203 0.28005 0.0
C75 C 0.14356 0.77686 0.30723 0.0
C76 C 0.13764 0.72888 0.34757 0.0
C77 C 0.15492 0.7412 0.31266 0.0
N78 N 0.12072 0.78541 0.33768 0.0
N79 N 0.11751 0.7568 0.36197 0.0
C80 C 0.15134 0.80146 0.27187 0.0
H81 H 0.12704 0.81852 0.26508 0.0
H82 H 0.15913 0.78558 0.24447 0.0
H83 H 0.17415 0.81995 0.2799 0.0
C84 C 0.99396 0.84788 0.30861 0.0
N85 N 0.02725 0.85701 0.32326 0.0
N86 N 0.04906 0.82862 0.31973 0.0
C87 C 0.03062 0.80094 0.3023 0.0
C88 C 0.99503 0.81201 0.29478 0.0
C89 C 0.96081 0.87158 0.31151 0.0
H90 H 0.96207 0.88867 0.33927 0.0
H91 H 0.95975 0.88977 0.28452 0.0
H92 H 0.93555 0.85491 0.31201 0.0
O93 O 0.05921 0.88911 0.40845 0.0
O94 O 0.09156 0.83792 0.4037 0.0
H95 H 0.0512 0.74949 0.32263 0.0
H96 H 0.02839 0.74759 0.27401 0.0
C97 C 0.04658 0.76417 0.29355 0.0
H98 H 0.07311 0.7674 0.2778 0.0
H99 H 0.10104 0.75614 0.3879 0.0
O100 O 1.01161 0.94107 0.34803 0.0
C101 C 0.07777 0.8635 0.42484 0.0
Co102 Co 0.30713 0.04351 0.35188 0.0
Co103 Co 0.37515 0.09574 0.34677 0.0
C104 C 0.3004 0.12113 0.32253 0.0
O105 O 0.28682 0.08969 0.32904 0.0
O106 O 0.3343 0.12709 0.32762 0.0
C107 C 0.24403 1.0069 0.31935 0.0
O108 O 0.24463 0.03429 0.29358 0.0
C109 C 0.42861 0.14331 0.30801 0.0
C110 C 0.47639 0.13774 0.34848 0.0
C111 C 0.46457 0.15393 0.31273 0.0
N112 N 0.41958 0.12159 0.33937 0.0
N113 N 0.44807 0.11875 0.36379 0.0
C114 C 0.40428 0.15049 0.27235 0.0
H115 H 0.38512 0.12742 0.26804 0.0
H116 H 0.42051 0.15473 0.24418 0.0
H117 H 0.38808 0.17551 0.27832 0.0
C118 C 0.35922 0.9945 0.30767 0.0
N119 N 0.34995 0.02714 0.32381 0.0
N120 N 0.37799 0.04935 0.32082 0.0
C121 C 0.40586 0.03158 0.30257 0.0
C122 C 0.39506 0.99616 0.29372 0.0
C123 C 0.33534 0.96151 0.30921 0.0
H124 H 0.32489 0.95782 0.34066 0.0
H125 H 0.31157 0.96578 0.28888 0.0
H126 H 0.3502 0.93656 0.29967 0.0
O127 O 0.31785 0.05536 0.41066 0.0
O128 O 0.36755 0.09005 0.40579 0.0
H129 H 0.45653 0.05339 0.32342 0.0
H130 H 0.45982 0.02982 0.27531 0.0
C131 C 0.4425 0.04798 0.29419 0.0
H132 H 0.43899 0.07415 0.2778 0.0
H133 H 0.44851 0.10294 0.39023 0.0
O134 O 0.26805 1.0053 0.34735 0.0
C135 C 0.34292 0.07463 0.42706 0.0
Co136 Co 0.16092 0.90271 0.66382 0.0
Co137 Co 0.10981 0.8351 0.67557 0.0
C138 C 0.08412 0.90855 0.69804 0.0
O139 O 0.11432 0.92183 0.68601 0.0
O140 O 0.0786 0.87433 0.69817 0.0
C141 C 0.20226 0.95869 0.70143 0.0
O142 O 0.1894 0.94351 0.73473 0.0
C143 C 0.06211 0.77887 0.71025 0.0
C144 C 0.07578 0.73125 0.67191 0.0
C145 C 0.05514 0.74194 0.7052 0.0
N146 N 0.08647 0.78918 0.68192 0.0
N147 N 0.09403 0.76079 0.65865 0.0
C148 C 0.04442 0.8048 0.73944 0.0
H149 H 0.03288 0.82809 0.7222 0.0
H150 H 0.06529 0.81563 0.76064 0.0
H151 H 0.02184 0.79206 0.75679 0.0
C152 C 0.21286 0.85223 0.70783 0.0
N153 N 0.17964 0.86101 0.69268 0.0
N154 N 0.15727 0.83355 0.69918 0.0
C155 C 0.17517 0.80701 0.71956 0.0
C156 C 0.21101 0.81787 0.72584 0.0
C157 C 0.24587 0.87602 0.70469 0.0
H158 H 0.2447 0.89274 0.67656 0.0
H159 H 0.24661 0.89452 0.73134 0.0
H160 H 0.27128 0.85959 0.70487 0.0
O161 O 0.14914 0.89108 0.6061 0.0
O162 O 0.11217 0.84387 0.61623 0.0
H163 H 0.15447 0.75526 0.70123 0.0
H164 H 0.17736 0.75394 0.74924 0.0
C165 C 0.15913 0.77057 0.72977 0.0
H166 H 0.13262 0.77436 0.74549 0.0
H167 H 0.1124 0.76138 0.63435 0.0
O168 O 0.19466 0.94488 0.66698 0.0
C169 C 0.12759 0.86666 0.59256 0.0
Co170 Co 0.30341 0.1639 0.66152 0.0
Co171 Co 0.36694 0.10998 0.68092 0.0
C172 C 0.29347 0.08728 0.69933 0.0
O173 O 0.28225 0.11727 0.68404 0.0
O174 O 0.32729 0.08063 0.70315 0.0
C175 C 0.24278 0.20005 0.69632 0.0
O176 O 0.24784 0.17464 0.72395 0.0
C177 C 0.42125 0.061 0.7171 0.0
C178 C 0.47071 0.0754 0.68192 0.0
C179 C 0.45806 0.05308 0.71287 0.0
N180 N 0.41247 0.08661 0.68953 0.0
N181 N 0.44206 0.09494 0.66843 0.0
C182 C 0.39549 0.04697 0.7489 0.0
H183 H 0.37648 0.06885 0.75859 0.0
H184 H 0.41042 0.03645 0.77584 0.0
H185 H 0.37899 0.02457 0.73573 0.0
C186 C 0.35691 0.21506 0.70007 0.0
N187 N 0.34522 0.18139 0.68995 0.0
N188 N 0.36821 0.15722 0.70401 0.0
C189 C 0.39325 0.17401 0.72721 0.0
C190 C 0.3881 0.21199 0.72499 0.0
C191 C 0.34125 0.24845 0.68046 0.0
H192 H 0.32788 0.24113 0.65131 0.0
H193 H 0.31996 0.26029 0.70055 0.0
H194 H 0.36283 0.26893 0.67426 0.0
O195 O 0.31567 0.15073 0.60493 0.0
O196 O 0.35944 0.11082 0.6202 0.0
H197 H 0.4442 0.14631 0.73607 0.0
H198 H 0.42672 0.16896 0.78115 0.0
C199 C 0.41925 0.15314 0.75365 0.0
H200 H 0.40653 0.12722 0.76356 0.0
H201 H 0.44279 0.11448 0.6453 0.0
O202 O 0.26396 0.20137 0.66554 0.0
C203 C 0.33894 0.12667 0.5942 0.0
Co204 Co 0.04396 0.30468 0.66462 0.0
Co205 Co 0.09359 0.37374 0.67371 0.0
C206 C 0.1204 0.30038 0.69819 0.0
O207 O 0.08978 0.28606 0.68952 0.0
O208 O 0.12553 0.3345 0.69442 0.0
C209 C 0.99934 0.24971 0.70185 0.0
O210 O 1.01 0.2656 0.73558 0.0
C211 C 0.1403 0.42794 0.71143 0.0
C212 C 0.13443 0.47534 0.67023 0.0
C213 C 0.15154 0.46357 0.70543 0.0
N214 N 0.11772 0.41891 0.68103 0.0
N215 N 0.1145 0.4472 0.65627 0.0
C216 C 0.14823 0.40371 0.74705 0.0
H217 H 0.12398 0.38677 0.75425 0.0
H218 H 0.15609 0.41988 0.77417 0.0
H219 H 0.17102 0.38508 0.73907 0.0
C220 C 0.99078 0.3558 0.70639 0.0
N221 N 0.02432 0.34686 0.69205 0.0
N222 N 0.04617 0.37494 0.69724 0.0
C223 C 0.02747 0.4022 0.71535 0.0
C224 C 0.9918 0.39109 0.72178 0.0
C225 C 0.9575 0.3326 0.70216 0.0
H226 H 0.95987 0.31473 0.6751 0.0
H227 H 0.95456 0.31536 0.72973 0.0
H228 H 0.93264 0.34979 0.69955 0.0
O229 O 0.05763 0.31573 0.60634 0.0
O230 O 0.09094 0.36579 0.61488 0.0
H231 H 0.04875 0.45385 0.69682 0.0
H232 H 0.02425 0.45511 0.7445 0.0
C233 C 0.04315 0.43875 0.72542 0.0
H234 H 0.06916 0.43515 0.74204 0.0
H235 H 0.0983 0.44743 0.63019 0.0
O236 O 1.00971 0.26246 0.66764 0.0
C237 C 0.07718 0.34158 0.59192 0.0
Co238 Co 0.90033 0.0444 0.66289 0.0
Co239 Co 0.83428 0.09731 0.67429 0.0
C240 C 0.90714 0.12126 0.69819 0.0
O241 O 0.91987 0.0912 0.68491 0.0
O242 O 0.87296 0.12712 0.6994 0.0
C243 C 0.95541 1.00057 0.70102 0.0
O244 O 0.94082 1.01331 0.73466 0.0
C245 C 0.77755 0.14351 0.70955 0.0
C246 C 0.73395 0.13993 0.66332 0.0
C247 C 0.74252 0.15518 0.70061 0.0
N248 N 0.78915 0.12218 0.67901 0.0
N249 N 0.76313 0.12038 0.65128 0.0
C250 C 0.79883 0.15031 0.7476 0.0
H251 H 0.81784 0.12733 0.75353 0.0
H252 H 0.7803 0.15399 0.77404 0.0
H253 H 0.81512 0.17556 0.74367 0.0
C254 C 0.8481 0.99333 0.7056 0.0
N255 N 0.85788 0.02648 0.69099 0.0
N256 N 0.83056 0.04931 0.69641 0.0
C257 C 0.80288 0.03166 0.71513 0.0
C258 C 0.81295 0.99557 0.72164 0.0
C259 C 0.87203 0.96024 0.70448 0.0
H260 H 0.89086 0.961 0.73081 0.0
H261 H 0.85597 0.93475 0.70685 0.0
H262 H 0.88845 0.96001 0.67609 0.0
O263 O 0.88909 0.05555 0.60465 0.0
O264 O 0.84553 0.09663 0.61543 0.0
H265 H 0.74733 0.02872 0.73823 0.0
H266 H 0.76987 0.07217 0.74412 0.0
C267 C 0.76638 0.04834 0.7238 0.0
H268 H 0.75409 0.05795 0.69492 0.0
H269 H 0.76513 0.10536 0.62442 0.0
O270 O 0.94185 1.00949 0.66675 0.0
C271 C 0.86684 0.07963 0.59142 0.0
Co272 Co 0.66161 0.80431 0.84831 0.0
Co273 Co 0.60952 0.87203 0.84312 0.0
C274 C 0.58465 0.79811 0.81709 0.0
O275 O 0.6158 0.78437 0.82479 0.0
O276 O 0.57869 0.83205 0.82175 0.0
C277 C 0.69864 0.74363 0.81295 0.0
O278 O 0.67326 0.7478 0.78517 0.0
C279 C 0.56199 0.92601 0.80623 0.0
C280 C 0.56295 0.97093 0.85103 0.0
C281 C 0.5483 0.96054 0.814 0.0
N282 N 0.58348 0.91631 0.8374 0.0
N283 N 0.58382 0.94309 0.86426 0.0
C284 C 0.5576 0.90365 0.76849 0.0
H285 H 0.58291 0.88787 0.76247 0.0
H286 H 0.5511 0.92113 0.74185 0.0
H287 H 0.5351 0.88386 0.77314 0.0
C288 C 0.71099 0.85664 0.8045 0.0
N289 N 0.67841 0.84739 0.82093 0.0
N290 N 0.65633 0.87562 0.81859 0.0
C291 C 0.67419 0.90373 0.80103 0.0
C292 C 0.70942 0.89273 0.79142 0.0
C293 C 0.74365 0.83215 0.80383 0.0
H294 H 0.74789 0.82022 0.83453 0.0
H295 H 0.7386 0.80938 0.78239 0.0
H296 H 0.76857 0.84701 0.79417 0.0
O297 O 0.64905 0.81365 0.90732 0.0
O298 O 0.61364 0.86274 0.90157 0.0
H299 H 0.65082 0.95296 0.8242 0.0
H300 H 0.67726 0.95924 0.77822 0.0
C301 C 0.65811 0.94082 0.79439 0.0
H302 H 0.63288 0.93834 0.77611 0.0
H303 H 0.59864 0.94252 0.89134 0.0
O304 O 0.69939 0.76523 0.84327 0.0
C305 C 0.62873 0.83823 0.92319 0.0
Co306 Co 0.3998 0.6626 0.84968 0.0
Co307 Co 0.33261 0.61074 0.83843 0.0
C308 C 0.40564 0.58518 0.816 0.0
O309 O 0.41897 0.61499 0.82912 0.0
O310 O 0.37134 0.58037 0.8141 0.0
C311 C 0.4638 0.69587 0.81641 0.0
O312 O 0.4611 0.66868 0.79064 0.0
C313 C 0.27729 0.56474 0.80154 0.0
C314 C 0.23171 0.56833 0.84552 0.0
C315 C 0.24219 0.55262 0.80903 0.0
N316 N 0.28737 0.58636 0.83239 0.0
N317 N 0.26013 0.58829 0.85875 0.0
C318 C 0.29993 0.55843 0.76427 0.0
H319 H 0.31726 0.58259 0.75797 0.0
H320 H 0.28246 0.55256 0.73751 0.0
H321 H 0.31808 0.53469 0.76963 0.0
C322 C 0.34955 0.71362 0.8059 0.0
N323 N 0.35814 0.68029 0.82075 0.0
N324 N 0.32995 0.65854 0.81621 0.0
C325 C 0.30257 0.67734 0.79842 0.0
C326 C 0.314 0.71286 0.79125 0.0
C327 C 0.37395 0.74616 0.80864 0.0
H328 H 0.38403 0.74904 0.8403 0.0
H329 H 0.39801 0.74191 0.78864 0.0
H330 H 0.35962 0.7715 0.79924 0.0
O331 O 0.38758 0.65197 0.90802 0.0
O332 O 0.34362 0.6113 0.89724 0.0
H333 H 0.25193 0.6552 0.81916 0.0
H334 H 0.2482 0.68176 0.77297 0.0
C335 C 0.26551 0.6621 0.78996 0.0
H336 H 0.26824 0.63677 0.77186 0.0
H337 H 0.26081 0.60356 0.8855 0.0
O338 O 0.44025 0.69896 0.84479 0.0
C339 C 0.36509 0.62805 0.92117 0.0
Co340 Co 0.54242 0.40282 0.85533 0.0
Co341 Co 0.59643 0.34088 0.83165 0.0
C342 C 0.61888 0.41437 0.81693 0.0
O343 O 0.58867 0.42417 0.83288 0.0
O344 O 0.62613 0.38095 0.81066 0.0
C345 C 0.49312 0.45325 0.81946 0.0
O346 O 0.50082 0.43425 0.7867 0.0
C347 C 0.64349 0.28474 0.79469 0.0
C348 C 0.62556 0.23584 0.8288 0.0
C349 C 0.64867 0.24739 0.79804 0.0
N350 N 0.61828 0.29478 0.82221 0.0
N351 N 0.60791 0.2655 0.8427 0.0
C352 C 0.66005 0.31001 0.764 0.0
H353 H 0.64052 0.33197 0.75592 0.0
H354 H 0.66823 0.29508 0.73608 0.0
H355 H 0.68465 0.32284 0.7774 0.0
C356 C 0.49084 0.34947 0.81626 0.0
N357 N 0.52445 0.36195 0.82558 0.0
N358 N 0.54886 0.34051 0.80919 0.0
C359 C 0.53216 0.316 0.78528 0.0
C360 C 0.49411 0.3196 0.78942 0.0
C361 C 0.45765 0.3629 0.83826 0.0
H362 H 0.46564 0.37582 0.86744 0.0
H363 H 0.44386 0.38409 0.81967 0.0
H364 H 0.43853 0.34016 0.84467 0.0
O365 O 0.5561 0.38904 0.91113 0.0
O366 O 0.59624 0.34661 0.89257 0.0
H367 H 0.56095 0.26644 0.77193 0.0
H368 H 0.53671 0.28584 0.72895 0.0
C369 C 0.55306 0.29216 0.75643 0.0
H370 H 0.57846 0.30612 0.74676 0.0
H371 H 0.58817 0.26571 0.86563 0.0
O372 O 0.50684 0.44377 0.85347 0.0
C373 C 0.58052 0.36557 0.92005 0.0
Co374 Co 0.80468 0.54726 0.85094 0.0
Co375 Co 0.87411 0.59609 0.84299 0.0
C376 C 0.80068 0.62282 0.81655 0.0
O377 O 0.78619 0.59218 0.82466 0.0
O378 O 0.83464 0.62805 0.82187 0.0
C379 C 0.74632 0.50754 0.81569 0.0
O380 O 0.75916 0.52188 0.78192 0.0
C381 C 0.92967 0.64108 0.80385 0.0
C382 C 0.97698 0.63354 0.84473 0.0
C383 C 0.96618 0.64986 0.80867 0.0
N384 N 0.9197 0.61952 0.83497 0.0
N385 N 0.94791 0.61547 0.85959 0.0
C386 C 0.90367 0.65488 0.77222 0.0
H387 H 0.88063 0.66896 0.78745 0.0
H388 H 0.89236 0.63149 0.755 0.0
H389 H 0.91662 0.6746 0.7511 0.0
C390 C 0.85448 0.49407 0.80786 0.0
N391 N 0.8466 0.5272 0.82382 0.0
N392 N 0.87521 0.5485 0.81944 0.0
C393 C 0.90194 0.52981 0.80025 0.0
C394 C 0.88984 0.49467 0.7922 0.0
C395 C 0.82836 0.46276 0.80686 0.0
H396 H 0.81351 0.46087 0.83623 0.0
H397 H 0.80816 0.46754 0.78236 0.0
H398 H 0.84241 0.43661 0.80038 0.0
O399 O 0.81514 0.56159 0.90886 0.0
O400 O 0.86613 0.59383 0.90201 0.0
H401 H 0.95213 0.55197 0.82181 0.0
H402 H 0.95738 0.52439 0.77717 0.0
C403 C 0.93942 0.5445 0.79245 0.0
H404 H 0.93746 0.56933 0.77327 0.0
H405 H 0.94746 0.59986 0.88618 0.0
O406 O 0.76265 0.51339 0.84919 0.0
C407 C 0.84078 0.58076 0.92411 0.0
Co408 Co 0.66179 0.39699 0.16192 0.0
Co409 Co 0.61012 0.32842 0.16681 0.0
C410 C 0.58359 0.40302 0.18937 0.0
O411 O 0.61493 0.41701 0.18328 0.0
O412 O 0.57836 0.36896 0.18504 0.0
C413 C 0.69658 0.46163 0.19349 0.0
O414 O 0.66757 0.46241 0.217 0.0
C415 C 0.56214 0.27513 0.20499 0.0
C416 C 0.56807 0.22722 0.16479 0.0
C417 C 0.55142 0.23922 0.20021 0.0
N418 N 0.58434 0.28396 0.17399 0.0
N419 N 0.58741 0.25541 0.14971 0.0
C420 C 0.55443 0.29965 0.24034 0.0
H421 H 0.57751 0.31873 0.24504 0.0
H422 H 0.54963 0.2836 0.26851 0.0
H423 H 0.52958 0.31593 0.23372 0.0
C424 C 0.71058 0.34537 0.20704 0.0
N425 N 0.67795 0.35448 0.19076 0.0
N426 N 0.65591 0.3263 0.1936 0.0
C427 C 0.67374 0.29852 0.21185 0.0
C428 C 0.70905 0.3095 0.22075 0.0
C429 C 0.74347 0.3694 0.20582 0.0
H430 H 0.7483 0.37854 0.17406 0.0
H431 H 0.73827 0.39398 0.22461 0.0
H432 H 0.76811 0.35514 0.21737 0.0
O433 O 0.65123 0.38561 0.10299 0.0
O434 O 0.61697 0.33562 0.10804 0.0
H435 H 0.65259 0.24795 0.18993 0.0
H436 H 0.67619 0.24419 0.23797 0.0
C437 C 0.65777 0.26157 0.21945 0.0
H438 H 0.6315 0.26448 0.23583 0.0
H439 H 0.60354 0.25485 0.12351 0.0
O440 O 0.6997 0.43634 0.16709 0.0
C441 C 0.63272 0.35994 0.08667 0.0
Co442 Co 0.80519 0.65972 0.16781 0.0
Co443 Co 0.87434 0.60942 0.17208 0.0
C444 C 0.80033 0.58169 0.19571 0.0
O445 O 0.78583 0.61281 0.18962 0.0
O446 O 0.83452 0.57699 0.19131 0.0
C447 C 0.74186 0.69432 0.20109 0.0
O448 O 0.74435 0.66743 0.22739 0.0
C449 C 0.92915 0.56356 0.21026 0.0
C450 C 0.97545 0.56716 0.16723 0.0
C451 C 0.96475 0.5523 0.20414 0.0
N452 N 0.91919 0.58436 0.17856 0.0
N453 N 0.94678 0.58609 0.15264 0.0
C454 C 0.90577 0.55713 0.24694 0.0
H455 H 0.88643 0.58015 0.25115 0.0
H456 H 0.92275 0.55373 0.27463 0.0
H457 H 0.88974 0.53182 0.24235 0.0
C458 C 0.8556 0.70935 0.21368 0.0
N459 N 0.84747 0.677 0.19618 0.0
N460 N 0.87623 0.6556 0.1983 0.0
C461 C 0.90355 0.67362 0.21704 0.0
C462 C 0.8915 0.70834 0.22754 0.0
C463 C 0.82929 0.7404 0.21725 0.0
H464 H 0.80469 0.73113 0.234 0.0
H465 H 0.84137 0.7639 0.23359 0.0
H466 H 0.82054 0.74906 0.18639 0.0
O467 O 0.81587 0.64878 0.10881 0.0
O468 O 0.86621 0.615 0.1135 0.0
H469 H 0.9517 0.6503 0.19104 0.0
H470 H 0.96068 0.67977 0.23343 0.0
C471 C 0.94158 0.65911 0.22124 0.0
H472 H 0.94137 0.63511 0.24181 0.0
H473 H 0.94631 0.6009 0.12549 0.0
O474 O 0.76533 0.6967 0.17256 0.0
C475 C 0.84124 0.62986 0.09234 0.0
Co476 Co 0.54551 0.80409 0.16616 0.0
Co477 Co 0.59729 0.87203 0.17114 0.0
C478 C 0.62211 0.79797 0.198 0.0
O479 O 0.59096 0.78416 0.19072 0.0
O480 O 0.6281 0.83179 0.19239 0.0
C481 C 0.50935 0.73989 0.19656 0.0
O482 O 0.53701 0.73936 0.22187 0.0
C483 C 0.64431 0.92529 0.20937 0.0
C484 C 0.64325 0.97139 0.16589 0.0
C485 C 0.65752 0.9601 0.20281 0.0
N486 N 0.62326 0.9162 0.17769 0.0
N487 N 0.62292 0.94367 0.15156 0.0
C488 C 0.64928 0.90188 0.2463 0.0
H489 H 0.62419 0.88574 0.25209 0.0
H490 H 0.65588 0.91864 0.27341 0.0
H491 H 0.67203 0.88251 0.24078 0.0
C492 C 0.49602 0.85625 0.21043 0.0
N493 N 0.5284 0.84721 0.19333 0.0
N494 N 0.55047 0.87536 0.19579 0.0
C495 C 0.53288 0.90317 0.21427 0.0
C496 C 0.49774 0.8921 0.2243 0.0
C497 C 0.4643 0.83082 0.21375 0.0
H498 H 0.47323 0.80515 0.22861 0.0
H499 H 0.44162 0.84292 0.23162 0.0
H500 H 0.45455 0.82399 0.18275 0.0
O501 O 0.55896 0.81363 0.10734 0.0
O502 O 0.59338 0.86334 0.11265 0.0
H503 H 0.52805 0.96036 0.2309 0.0
H504 H 0.57203 0.93961 0.23995 0.0
C505 C 0.5484 0.94068 0.21897 0.0
H506 H 0.55806 0.95064 0.18899 0.0
H507 H 0.60834 0.94371 0.12431 0.0
O508 O 0.5074 0.76509 0.16987 0.0
C509 C 0.57884 0.83845 0.09126 0.0
Co510 Co 0.39926 0.54326 0.16164 0.0
Co511 Co 0.33167 0.59555 0.17011 0.0
C512 C 0.40542 0.62044 0.19388 0.0
O513 O 0.41938 0.58984 0.18402 0.0
O514 O 0.37117 0.62568 0.19233 0.0
C515 C 0.46454 0.50811 0.19091 0.0
O516 O 0.46601 0.53686 0.21462 0.0
C517 C 0.27809 0.6416 0.20952 0.0
C518 C 0.23218 0.6416 0.16597 0.0
C519 C 0.24329 0.65505 0.20328 0.0
N520 N 0.28735 0.62125 0.17727 0.0
N521 N 0.25998 0.62154 0.15111 0.0
C522 C 0.30132 0.64552 0.24667 0.0
H523 H 0.31743 0.62025 0.25168 0.0
H524 H 0.28442 0.65144 0.27395 0.0
H525 H 0.32075 0.66832 0.24194 0.0
C526 C 0.34848 0.49389 0.20756 0.0
N527 N 0.35694 0.5263 0.19027 0.0
N528 N 0.32874 0.54831 0.19373 0.0
C529 C 0.30152 0.53067 0.21324 0.0
C530 C 0.31313 0.49561 0.22297 0.0
C531 C 0.37391 0.46202 0.20932 0.0
H532 H 0.38087 0.45352 0.17787 0.0
H533 H 0.39953 0.47032 0.22462 0.0
H534 H 0.36179 0.43867 0.22604 0.0
O535 O 0.38792 0.55512 0.10305 0.0
O536 O 0.34176 0.59403 0.11159 0.0
H537 H 0.25357 0.55674 0.19016 0.0
H538 H 0.24466 0.52532 0.23107 0.0
C539 C 0.26406 0.54607 0.21946 0.0
H540 H 0.26544 0.56897 0.24139 0.0
H541 H 0.26009 0.60757 0.12347 0.0
O542 O 0.43859 0.50536 0.16533 0.0
C543 C 0.36461 0.57775 0.08882 0.0
C544 C 0.11135 0.30902 0.4888 0.0
C545 C 0.11882 0.34192 0.46826 0.0
C546 C 0.09609 0.30899 0.52814 0.0
C547 C 0.0883 0.34186 0.54852 0.0
H548 H 0.11637 0.28314 0.47395 0.0
H549 H 0.09119 0.28307 0.54305 0.0
S550 S 0.10322 0.43529 0.50816 0.0
N551 N 0.11728 0.40814 0.47129 0.0
N552 N 0.08937 0.4081 0.54517 0.0
C553 C 0.09594 0.37486 0.52836 0.0
C554 C 0.11101 0.37489 0.4883 0.0
C555 C 0.85819 0.12726 0.53764 0.0
C556 C 0.86754 0.09101 0.54805 0.0
C557 C 0.85896 0.13944 0.49711 0.0
C558 C 0.8683 0.11557 0.46553 0.0
H559 H 0.85051 0.14657 0.56106 0.0
H560 H 0.85139 0.16738 0.49036 0.0
S561 S 0.89582 0.01861 0.47592 0.0
N562 N 0.88756 0.03191 0.52307 0.0
N563 N 0.88786 0.05452 0.44681 0.0
C564 C 0.87789 0.07944 0.47533 0.0
C565 C 0.87785 0.06723 0.51662 0.0
C566 C 0.1076 0.83356 0.53014 0.0
C567 C 0.11658 0.86666 0.54924 0.0
C568 C 0.09407 0.83288 0.49028 0.0
C569 C 0.08792 0.86532 0.46838 0.0
H570 H 0.11128 0.80792 0.54608 0.0
H571 H 0.0884 0.80669 0.47645 0.0
S572 S 0.1059 0.95926 0.50504 0.0
N573 N 0.11792 0.93277 0.54347 0.0
N574 N 0.09173 0.93154 0.46881 0.0
C575 C 0.0962 0.89867 0.48734 0.0
C576 C 0.1108 0.89932 0.52764 0.0
C577 C 0.37261 0.10348 0.53294 0.0
C578 C 0.3395 0.11349 0.55156 0.0
C579 C 0.37343 0.0897 0.49307 0.0
C580 C 0.34106 0.08411 0.47088 0.0
H581 H 0.39814 0.10699 0.54904 0.0
H582 H 0.39965 0.08363 0.47934 0.0
S583 S 0.24709 0.10387 0.50686 0.0
N584 N 0.27344 0.11578 0.54531 0.0
N585 N 0.27491 0.08889 0.47098 0.0
C586 C 0.3077 0.09291 0.48968 0.0
C587 C 0.30694 0.10788 0.52982 0.0
C588 C 0.61053 0.86977 0.98718 0.0
C589 C 0.61857 0.83697 0.96686 0.0
C590 C 0.59657 0.86981 0.02688 0.0
C591 C 0.58918 0.83704 0.04766 0.0
H592 H 0.61501 0.89574 0.97221 0.0
H593 H 0.59154 0.89582 0.04148 0.0
S594 S 0.60486 0.74365 0.00793 0.0
N595 N 0.61796 0.77073 0.97042 0.0
N596 N 0.59118 0.7708 0.04505 0.0
C597 C 0.59675 0.80398 0.02765 0.0
C598 C 0.61169 0.80394 0.98734 0.0
C599 C 0.36025 0.57884 0.97361 0.0
C600 C 0.36615 0.616 0.96423 0.0
C601 C 0.36112 0.56603 0.01391 0.0
C602 C 0.36708 0.59014 0.04622 0.0
H603 H 0.35515 0.55936 0.94952 0.0
H604 H 0.35614 0.5374 0.01987 0.0
S605 S 0.3846 0.68957 0.03848 0.0
N606 N 0.37927 0.67631 0.99083 0.0
N607 N 0.37962 0.65255 0.06667 0.0
C608 C 0.37325 0.62722 0.03738 0.0
C609 C 0.37318 0.64009 0.99635 0.0
C610 C 0.5985 0.39531 0.98538 0.0
C611 C 0.59427 0.36326 0.96234 0.0
C612 C 0.61343 0.39431 0.0247 0.0
C613 C 0.62393 0.36111 0.04274 0.0
H614 H 0.59053 0.42146 0.97278 0.0
H615 H 0.61532 0.41952 0.0417 0.0
S616 S 0.61919 0.26965 0.99501 0.0
N617 N 0.60305 0.29761 0.95988 0.0
N618 N 0.62965 0.29551 0.0344 0.0
C619 C 0.62016 0.32894 0.0199 0.0
C620 C 0.60576 0.33006 0.97953 0.0
C621 C 0.8727 0.61333 0.02756 0.0
C622 C 0.83994 0.62046 0.04851 0.0
C623 C 0.87261 0.59975 0.98773 0.0
C624 C 0.83976 0.59181 0.9675 0.0
H625 H 0.89873 0.61811 0.04218 0.0
H626 H 0.89858 0.59521 0.97272 0.0
S627 S 0.74643 0.60536 0.0089 0.0
N628 N 0.77367 0.61866 0.046 0.0
N629 N 0.77348 0.59257 0.97126 0.0
C630 C 0.80675 0.59868 0.98809 0.0
C631 C 0.80684 0.61324 0.02847 0.0
C632 C 0.25944 0.21592 0.33201 0.0
C633 C 0.22399 0.21151 0.3165 0.0
C634 C 0.28476 0.18714 0.33134 0.0
C635 C 0.27539 0.15254 0.31593 0.0
H636 H 0.26762 0.24173 0.3451 0.0
H637 H 0.31135 0.19164 0.34475 0.0
S638 S 0.18653 0.12726 0.27008 0.0
N639 N 0.18133 0.17035 0.28347 0.0
N640 N 0.22859 0.11614 0.28314 0.0
C641 C 0.24033 0.14809 0.29934 0.0
C642 C 0.21475 0.17758 0.29937 0.0
C643 C 0.02932 0.21339 0.30453 0.0
C644 C 0.99398 0.22386 0.31672 0.0
C645 C 0.05811 0.23857 0.3036 0.0
C646 C 0.05253 0.27541 0.31393 0.0
H647 H 0.03517 0.1852 0.29715 0.0
H648 H 0.08516 0.22883 0.29581 0.0
S649 S 0.96403 0.31742 0.34373 0.0
N650 N 0.95441 0.27393 0.3367 0.0
N651 N 1.00802 0.32151 0.33396 0.0
C652 C 0.01678 0.28661 0.32397 0.0
C653 C 0.98767 0.26077 0.32573 0.0
C654 C 0.93134 0.0272 0.28481 0.0
C655 C 0.93509 0.05354 0.31556 0.0
C656 C 0.9537 0.99599 0.28412 0.0
C657 C 0.9795 0.98949 0.31502 0.0
H658 H 0.91088 0.03064 0.26135 0.0
H659 H 0.95003 0.97631 0.25993 0.0
S660 S 0.99903 0.04963 0.40296 0.0
N661 N 0.96653 0.07103 0.37764 0.0
N662 N 1.0075 1.01202 0.37706 0.0
C663 C 0.98333 0.01559 0.34596 0.0
C664 C 0.96139 0.04771 0.34604 0.0
C665 C 0.18023 0.98899 0.3011 0.0
C666 C 0.21473 0.97913 0.31642 0.0
C667 C 0.15124 0.96399 0.30036 0.0
C668 C 0.15581 0.92783 0.31396 0.0
H669 H 0.17514 0.01668 0.291 0.0
H670 H 0.12478 0.97338 0.29002 0.0
S671 S 0.24205 0.88734 0.35301 0.0
N672 N 0.25252 0.93022 0.34311 0.0
N673 N 0.19865 0.88289 0.34068 0.0
C674 C 0.19082 0.91712 0.32731 0.0
C675 C 0.22007 0.94286 0.32891 0.0
C676 C 0.23907 0.05248 0.67646 0.0
C677 C 0.26744 0.05691 0.70484 0.0
C678 C 0.21814 0.02055 0.67563 0.0
C679 C 0.22414 0.99235 0.70384 0.0
H680 H 0.23419 0.07301 0.65332 0.0
H681 H 0.19722 0.01784 0.65257 0.0
S682 S 0.29348 0.99132 0.78581 0.0
N683 N 0.29971 0.03082 0.76254 0.0
N684 N 0.25923 0.97136 0.76204 0.0
C685 C 0.25127 0.99702 0.7335 0.0
C686 C 0.27324 0.02916 0.73371 0.0
C687 C 0.18672 0.2869 0.68917 0.0
C688 C 0.15236 0.27616 0.70438 0.0
C689 C 0.21592 0.2622 0.68687 0.0
C690 C 0.21216 0.22611 0.70064 0.0
H691 H 0.19064 0.31408 0.67694 0.0
H692 H 0.24152 0.27134 0.67386 0.0
S693 S 0.1289 0.18499 0.74583 0.0
N694 N 0.11686 0.22733 0.73498 0.0
N695 N 0.17208 0.18126 0.73195 0.0
C696 C 0.17857 0.21548 0.71774 0.0
C697 C 0.14859 0.2404 0.71928 0.0
C698 C 0.96292 0.15556 0.67799 0.0
C699 C 0.93244 0.15232 0.70393 0.0
C700 C 0.98427 0.18724 0.67746 0.0
C701 C 0.9766 0.21649 0.70365 0.0
H702 H 0.96945 0.13412 0.65651 0.0
H703 H 1.00695 0.18886 0.65633 0.0
S704 S 0.90117 0.22115 0.77886 0.0
N705 N 0.89616 0.18091 0.75703 0.0
N706 N 0.93739 0.23989 0.75735 0.0
C707 C 0.94712 0.21317 0.73086 0.0
C708 C 0.92473 0.18125 0.73064 0.0
C709 C 0.04877 0.96281 0.67569 0.0
C710 C 0.05272 0.93351 0.70312 0.0
C711 C 0.01706 0.98414 0.67515 0.0
C712 C 0.98852 0.97766 0.70276 0.0
H713 H 0.06973 0.96841 0.65323 0.0
H714 H 1.0149 1.00593 0.65295 0.0
S715 S 0.98586 0.90545 0.78187 0.0
N716 N 0.02558 0.89945 0.75893 0.0
N717 N 0.96647 0.94075 0.75917 0.0
C718 C 0.99251 0.94929 0.73128 0.0
C719 C 0.02446 0.92686 0.73109 0.0
C720 C 0.76104 0.71796 0.82449 0.0
C721 C 0.72544 0.71356 0.80945 0.0
C722 C 0.78622 0.6891 0.82366 0.0
C723 C 0.77645 0.65448 0.80868 0.0
H724 H 0.76936 0.74376 0.83751 0.0
H725 H 0.81289 0.69347 0.83694 0.0
S726 S 0.68708 0.6294 0.76395 0.0
N727 N 0.68227 0.67261 0.777 0.0
N728 N 0.72919 0.61808 0.77661 0.0
C729 C 0.74129 0.65012 0.79232 0.0
C730 C 0.7159 0.67972 0.79241 0.0
C731 C 0.51829 0.78361 0.82415 0.0
C732 C 0.55326 0.77327 0.81036 0.0
C733 C 0.48944 0.75852 0.82567 0.0
C734 C 0.49417 0.72233 0.81262 0.0
H735 H 0.51352 0.81082 0.83582 0.0
H736 H 0.46334 0.76745 0.83758 0.0
S737 S 0.57939 0.68212 0.77087 0.0
N738 N 0.59035 0.72471 0.78153 0.0
N739 N 0.53594 0.67785 0.78338 0.0
C740 C 0.52844 0.71207 0.7969 0.0
C741 C 0.55801 0.73744 0.79603 0.0
C742 C 0.48031 0.51734 0.84026 0.0
C743 C 0.47133 0.48708 0.81614 0.0
C744 C 0.46033 0.54986 0.83774 0.0
C745 C 0.43 0.55311 0.8117 0.0
H746 H 0.503 0.51591 0.8613 0.0
H747 H 0.46775 0.57203 0.85782 0.0
S748 S 0.39588 0.48199 0.74131 0.0
N749 N 0.43111 0.4627 0.76416 0.0
N750 N 0.39272 0.52354 0.76038 0.0
C751 C 0.42114 0.52324 0.78686 0.0
C752 C 0.44202 0.49031 0.78881 0.0
C753 C 0.70634 0.46081 0.78297 0.0
C754 C 0.71265 0.48557 0.81484 0.0
C755 C 0.67521 0.43847 0.78288 0.0
C756 C 0.6488 0.44122 0.81384 0.0
H757 H 0.72619 0.45779 0.75873 0.0
H758 H 0.67204 0.41859 0.75879 0.0
S759 S 0.65195 0.50328 0.90298 0.0
N760 N 0.68975 0.51225 0.87748 0.0
N761 N 0.63076 0.47138 0.87672 0.0
C762 C 0.65427 0.4669 0.84504 0.0
C763 C 0.68636 0.48879 0.84571 0.0
C764 C 0.71434 0.52552 0.21151 0.0
C765 C 0.72448 0.4908 0.19709 0.0
C766 C 0.73949 0.55433 0.21295 0.0
C767 C 0.77606 0.54945 0.20089 0.0
H768 H 0.68638 0.53091 0.22041 0.0
H769 H 0.7299 0.58092 0.22261 0.0
S770 S 0.81733 0.46263 0.16465 0.0
N771 N 0.77408 0.45249 0.17293 0.0
N772 N 0.82162 0.50613 0.17658 0.0
C773 C 0.787 0.51426 0.18843 0.0
C774 C 0.76115 0.48514 0.18618 0.0
C775 C 0.71664 0.75686 0.18894 0.0
C776 C 0.71195 0.72142 0.20451 0.0
C777 C 0.68807 0.78236 0.18975 0.0
C778 C 0.65345 0.77318 0.20541 0.0
H779 H 0.74244 0.76484 0.17549 0.0
H780 H 0.6927 0.80886 0.17605 0.0
S781 S 0.62773 0.68475 0.2523 0.0
N782 N 0.6707 0.67916 0.2384 0.0
N783 N 0.61687 0.72685 0.23909 0.0
C784 C 0.64883 0.73827 0.22242 0.0
C785 C 0.6781 0.71248 0.2222 0.0
C786 C 0.49111 0.67584 0.21322 0.0
C787 C 0.48148 0.7107 0.19868 0.0
C788 C 0.46594 0.64701 0.21327 0.0
C789 C 0.42988 0.65221 0.19983 0.0
H790 H 0.51871 0.67038 0.22332 0.0
H791 H 0.47501 0.62028 0.22312 0.0
S792 S 0.39026 0.73911 0.16149 0.0
N793 N 0.43307 0.74922 0.17209 0.0
N794 N 0.38545 0.69558 0.17319 0.0
C795 C 0.41949 0.68743 0.18689 0.0
C796 C 0.44537 0.71651 0.18598 0.0
C797 C 0.55717 0.46395 0.20776 0.0
C798 C 0.55175 0.4277 0.19512 0.0
C799 C 0.52854 0.48942 0.20736 0.0
C800 C 0.49353 0.4799 0.19345 0.0
H801 H 0.58398 0.47303 0.21715 0.0
H802 H 0.5343 0.51714 0.21669 0.0
S803 S 0.46407 0.38806 0.15973 0.0
N804 N 0.50771 0.38308 0.17074 0.0
N805 N 0.45441 0.43123 0.16905 0.0
C806 C 0.48737 0.44354 0.18193 0.0
C807 C 0.51631 0.41737 0.1831 0.0
C808 C 0.28338 0.43371 0.2238 0.0
C809 C 0.2915 0.4667 0.24372 0.0
C810 C 0.25878 0.40842 0.24092 0.0
C811 C 0.24155 0.41544 0.27839 0.0
H812 H 0.29487 0.42819 0.19404 0.0
H813 H 0.25194 0.3841 0.22393 0.0
S814 S 0.2568 0.49568 0.34462 0.0
N815 N 0.28285 0.50333 0.30443 0.0
N816 N 0.2367 0.45609 0.33637 0.0
C817 C 0.25097 0.44736 0.29945 0.0
C818 C 0.27592 0.47293 0.28215 0.0
C819 C 0.78073 0.26711 0.28996 0.0
C820 C 0.79054 0.23526 0.26868 0.0
C821 C 0.75551 0.29212 0.27352 0.0
C822 C 0.73929 0.28592 0.23541 0.0
H823 H 0.79151 0.27197 0.32014 0.0
H824 H 0.74754 0.31563 0.29139 0.0
S825 S 0.75881 0.20881 0.1659 0.0
N826 N 0.7844 0.20058 0.20623 0.0
N827 N 0.73701 0.24731 0.17554 0.0
C828 C 0.75023 0.25512 0.21313 0.0
C829 C 0.77585 0.22984 0.22973 0.0
C830 C 0.93109 0.73108 0.28409 0.0
C831 C 0.91356 0.73775 0.24675 0.0
C832 C 0.95617 0.75606 0.30029 0.0
C833 C 0.9646 0.78875 0.27985 0.0
H834 H 0.92628 0.70574 0.30022 0.0
H835 H 0.96992 0.74925 0.32846 0.0
S836 S 0.92533 0.81981 0.18192 0.0
N837 N 0.90572 0.77993 0.19032 0.0
N838 N 0.95247 0.82712 0.22116 0.0
C839 C 0.94614 0.79652 0.24343 0.0
C840 C 0.92072 0.77096 0.22676 0.0
C841 C 0.45102 0.95703 0.29789 0.0
C842 C 0.41845 0.9662 0.27769 0.0
C843 C 0.47569 0.93177 0.28123 0.0
C844 C 0.46878 0.91474 0.24371 0.0
H845 H 0.45791 0.97022 0.32633 0.0
H846 H 0.50093 0.92629 0.29726 0.0
S847 S 0.38698 0.9286 0.17927 0.0
N848 N 0.38003 0.95548 0.21886 0.0
N849 N 0.42657 0.90822 0.1873 0.0
C850 C 0.43574 0.92272 0.22388 0.0
C851 C 0.41053 0.9484 0.24094 0.0
C852 C 0.2951 0.75752 0.73716 0.0
C853 C 0.29109 0.74371 0.77687 0.0
C854 C 0.27012 0.78308 0.72129 0.0
C855 C 0.24058 0.79581 0.7448 0.0
H856 H 0.31669 0.74729 0.71771 0.0
H857 H 0.27298 0.79167 0.68989 0.0
S858 S 0.22018 0.77032 0.85163 0.0
N859 N 0.25675 0.74606 0.83999 0.0
N860 N 0.21043 0.79457 0.81063 0.0
C861 C 0.23751 0.78349 0.78518 0.0
C862 C 0.2626 0.7573 0.8011 0.0
C863 C 0.45061 0.2328 0.747 0.0
C864 C 0.41343 0.24109 0.74147 0.0
C865 C 0.47495 0.25736 0.76474 0.0
C866 C 0.4654 0.29384 0.77289 0.0
H867 H 0.46178 0.20693 0.73768 0.0
H868 H 0.50161 0.24689 0.77201 0.0
S869 S 0.37198 0.33215 0.76074 0.0
N870 N 0.36747 0.28863 0.74925 0.0
N871 N 0.41575 0.338 0.77018 0.0
C872 C 0.42874 0.30365 0.76509 0.0
C873 C 0.40251 0.27692 0.7518 0.0
C874 C 0.95048 0.44523 0.71627 0.0
C875 C 0.96137 0.41382 0.73768 0.0
C876 C 0.92568 0.47019 0.7333 0.0
C877 C 0.91118 0.46488 0.77255 0.0
H878 H 0.96217 0.45113 0.68667 0.0
H879 H 0.91887 0.4946 0.71628 0.0
S880 S 0.93086 0.3867 0.84086 0.0
N881 N 0.95506 0.3781 0.79948 0.0
N882 N 0.90931 0.42555 0.83211 0.0
C883 C 0.92105 0.43301 0.79376 0.0
C884 C 0.94597 0.40735 0.77616 0.0
C885 C 0.7519 0.94587 0.79713 0.0
C886 C 0.73917 0.91586 0.77469 0.0
C887 C 0.77701 0.97061 0.78028 0.0
C888 C 0.7901 0.9664 0.74027 0.0
H889 H 0.74165 0.95072 0.8276 0.0
H890 H 0.78547 0.99384 0.79825 0.0
S891 S 0.76474 0.89256 0.6688 0.0
N892 N 0.74173 0.88299 0.71078 0.0
N893 N 0.7881 0.93004 0.67858 0.0
C894 C 0.77804 0.93613 0.71779 0.0
C895 C 0.75277 0.91072 0.73515 0.0
C896 C 0.03326 0.72141 0.77361 0.0
C897 C 0.03282 0.7176 0.73101 0.0
C898 C 1.01175 0.69913 0.79854 0.0
C899 C 0.98957 0.67191 0.78175 0.0
H900 H 0.05052 0.74157 0.78793 0.0
H901 H 1.01218 0.70352 0.83114 0.0
S902 S 0.98419 0.64604 0.6729 0.0
N903 N 1.01141 0.68189 0.67354 0.0
N904 N 0.97262 0.63855 0.72078 0.0
C905 C 0.99084 0.66603 0.73954 0.0
C906 C 1.01222 0.68915 0.71407 0.0
C907 C 0.51331 0.04171 0.75475 0.0
C908 C 0.48065 0.02861 0.73795 0.0
C909 C 0.53489 0.01948 0.77967 0.0
C910 C 0.52483 0.98325 0.78789 0.0
H911 H 0.52193 0.06953 0.74911 0.0
H912 H 0.55982 0.03058 0.79224 0.0
S913 S 0.44215 0.93585 0.75059 0.0
N914 N 0.43972 0.977 0.73024 0.0
N915 N 0.47985 0.93544 0.77805 0.0
C916 C 0.49233 0.96977 0.77113 0.0
C917 C 0.47034 0.99242 0.74583 0.0
C918 C 0.16295 0.51981 0.74556 0.0
C919 C 0.17519 0.48569 0.73172 0.0
C920 C 0.18464 0.5411 0.77127 0.0
C921 C 0.21949 0.52921 0.78308 0.0
H922 H 0.13625 0.52986 0.73688 0.0
H923 H 0.17434 0.56726 0.78145 0.0
S924 S 0.26415 0.44214 0.75462 0.0
N925 N 0.22436 0.44115 0.73112 0.0
N926 N 0.26507 0.48109 0.77976 0.0
C927 C 0.23206 0.4952 0.76937 0.0
C928 C 0.20989 0.47343 0.74352 0.0
C929 C 0.70873 0.23329 0.7658 0.0
C930 C 0.67218 0.22373 0.77304 0.0
C931 C 0.73152 0.21081 0.7425 0.0
C932 C 0.71835 0.17824 0.72553 0.0
H933 H 0.71989 0.25808 0.77859 0.0
H934 H 0.75946 0.21921 0.73731 0.0
S935 S 0.62475 0.14115 0.73559 0.0
N936 N 0.62384 0.17962 0.76165 0.0
N937 N 0.66667 0.13748 0.71749 0.0
C938 C 0.68184 0.16849 0.7324 0.0
C939 C 0.65878 0.19113 0.75646 0.0
C940 C 0.99642 0.47556 0.27259 0.0
C941 C 0.03098 0.48764 0.28513 0.0
C942 C 0.9749 0.49684 0.24655 0.0
C943 C 0.9876 0.5305 0.23179 0.0
H944 H 0.98588 0.44964 0.28323 0.0
H945 H 0.9484 0.4867 0.23746 0.0
S946 S 0.07612 0.57413 0.25562 0.0
N947 N 0.0768 0.53536 0.28131 0.0
N948 N 0.03657 0.57508 0.23158 0.0
C949 C 0.02212 0.54278 0.24396 0.0
C950 C 0.04373 0.52145 0.27101 0.0
C951 C 0.66874 0.016 0.24357 0.0
C952 C 0.68076 0.98174 0.22992 0.0
C953 C 0.69004 0.03664 0.27033 0.0
C954 C 0.72427 0.02392 0.28332 0.0
H955 H 0.64252 0.02661 0.23396 0.0
H956 H 0.67997 0.06292 0.28041 0.0
S957 S 0.76806 0.93627 0.25567 0.0
N958 N 0.72889 0.93612 0.23089 0.0
N959 N 0.76912 0.97512 0.28101 0.0
C960 C 0.73664 0.98985 0.26967 0.0
C961 C 0.71479 0.96866 0.24293 0.0
C962 C 0.16543 0.68607 0.27031 0.0
C963 C 0.17824 0.71945 0.28552 0.0
C964 C 0.18653 0.66557 0.24309 0.0
C965 C 0.22133 0.6775 0.2311 0.0
H966 H 0.13869 0.6761 0.27896 0.0
H967 H 0.17579 0.64002 0.23177 0.0
S968 S 0.26733 0.76269 0.26295 0.0
N969 N 0.22785 0.7633 0.28727 0.0
N970 N 0.26755 0.72472 0.23597 0.0
C971 C 0.23452 0.71068 0.24633 0.0
C972 C 0.21293 0.73169 0.27368 0.0
C973 C 0.47449 0.20912 0.26959 0.0
C974 C 0.48705 0.1753 0.28414 0.0
C975 C 0.49555 0.22981 0.24243 0.0
C976 C 0.5295 0.21699 0.22851 0.0
H977 H 0.44842 0.21982 0.27964 0.0
H978 H 0.48509 0.25583 0.23196 0.0
S979 S 0.57419 0.12993 0.25711 0.0
N980 N 0.53537 0.12988 0.28274 0.0
N981 N 0.57468 0.16849 0.23101 0.0
C982 C 0.54215 0.18308 0.24251 0.0
C983 C 0.52103 0.16234 0.27066 0.0
loop_
_geom_bond_atom_site_label_1
_geom_bond_atom_site_label_2
_geom_bond_distance
_geom_bond_site_symmetry_2
_ccdc_geom_bond_type
Co0 O3 1.970 . S
Co0 N17 1.989 . S
Co0 O25 1.967 . S
Co0 O32 1.920 . S
Co1 O4 1.966 . S
Co1 N10 2.022 . S
Co1 N18 1.993 . S
Co1 O26 1.941 . S
C2 O3 1.258 . S
C2 O4 1.263 . S
O3 Co0 1.970 . S
O3 C2 1.258 . S
O4 Co1 1.966 . S
O4 C2 1.263 . S
C5 O6 1.235 . S
C5 O32 1.289 . S
O6 C5 1.235 . S
C7 C9 1.400 . S
C7 N10 1.351 . S
C7 C12 1.501 . S
C8 C9 1.387 . S
C8 N11 1.341 . S
C9 C7 1.400 . S
C9 C8 1.387 . S
N10 Co1 2.022 . S
N10 C7 1.351 . S
N10 N11 1.365 . S
N11 C8 1.341 . S
N11 N10 1.365 . S
N11 H31 0.862 . S
C12 C7 1.501 . S
C12 H13 0.961 . S
C12 H14 0.961 . S
C12 H15 0.960 1_455 S
H13 C12 0.961 . S
H14 C12 0.961 . S
H15 C12 0.960 1_655 S
C16 N17 1.342 . S
C16 C20 1.401 . S
C16 C21 1.499 . S
N17 Co0 1.989 . S
N17 C16 1.342 . S
N17 N18 1.388 . S
N18 Co1 1.993 . S
N18 N17 1.388 . S
N18 C19 1.346 . S
C19 N18 1.346 . S
C19 C20 1.396 . S
C19 C29 1.510 . S
C20 C16 1.401 . S
C20 C19 1.396 . S
C21 C16 1.499 . S
C21 H22 0.959 . S
C21 H23 0.960 . S
C21 H24 0.961 . S
H22 C21 0.959 . S
H23 C21 0.960 . S
H24 C21 0.961 . S
O25 Co0 1.967 . S
O25 C33 1.258 . S
O26 Co1 1.941 . S
O26 C33 1.266 . S
H27 C29 0.959 . S
H28 C29 0.961 . S
C29 C19 1.510 . S
C29 H27 0.959 . S
C29 H28 0.961 . S
C29 H30 0.960 . S
H30 C29 0.960 . S
H31 N11 0.862 . S
O32 Co0 1.920 . S
O32 C5 1.289 . S
C33 O25 1.258 . S
C33 O26 1.266 . S
Co34 O37 1.970 . S
Co34 N51 1.989 . S
Co34 O59 1.967 . S
Co34 O66 1.920 . S
Co35 O38 1.966 . S
Co35 N44 2.022 . S
Co35 N52 1.993 . S
Co35 O60 1.941 . S
C36 O37 1.258 . S
C36 O38 1.263 . S
O37 Co34 1.970 . S
O37 C36 1.258 . S
O38 Co35 1.966 . S
O38 C36 1.263 . S
C39 O40 1.235 . S
C39 O66 1.289 . S
O40 C39 1.235 . S
C41 C43 1.400 . S
C41 N44 1.351 . S
C41 C46 1.501 . S
C42 C43 1.387 . S
C42 N45 1.341 . S
C43 C41 1.400 . S
C43 C42 1.387 . S
N44 Co35 2.022 . S
N44 C41 1.351 . S
N44 N45 1.365 . S
N45 C42 1.341 . S
N45 N44 1.365 . S
N45 H65 0.862 . S
C46 C41 1.501 . S
C46 H47 0.961 . S
C46 H48 0.961 . S
C46 H49 0.960 1_545 S
H47 C46 0.961 . S
H48 C46 0.961 . S
H49 C46 0.960 1_565 S
C50 N51 1.342 . S
C50 C54 1.401 . S
C50 C55 1.499 . S
N51 Co34 1.989 . S
N51 C50 1.342 . S
N51 N52 1.388 . S
N52 Co35 1.993 . S
N52 N51 1.388 . S
N52 C53 1.346 . S
C53 N52 1.346 . S
C53 C54 1.396 . S
C53 C63 1.510 . S
C54 C50 1.401 . S
C54 C53 1.396 . S
C55 C50 1.499 . S
C55 H56 0.959 . S
C55 H57 0.960 . S
C55 H58 0.961 . S
H56 C55 0.959 . S
H57 C55 0.960 . S
H58 C55 0.961 . S
O59 Co34 1.967 . S
O59 C67 1.258 . S
O60 Co35 1.941 . S
O60 C67 1.266 . S
H61 C63 0.959 . S
H62 C63 0.961 . S
C63 C53 1.510 . S
C63 H61 0.959 . S
C63 H62 0.961 . S
C63 H64 0.960 . S
H64 C63 0.960 . S
H65 N45 0.862 . S
O66 Co34 1.920 . S
O66 C39 1.289 . S
C67 O59 1.258 . S
C67 O60 1.266 . S
Co68 O71 1.970 . S
Co68 N85 1.989 . S
Co68 O93 1.967 . S
Co68 O100 1.920 1_455 S
Co69 O72 1.966 . S
Co69 N78 2.022 . S
Co69 N86 1.993 . S
Co69 O94 1.941 . S
C70 O71 1.258 . S
C70 O72 1.263 . S
O71 Co68 1.970 . S
O71 C70 1.258 . S
O72 Co69 1.966 . S
O72 C70 1.263 . S
C73 O74 1.235 . S
C73 O100 1.289 . S
O74 C73 1.235 . S
C75 C77 1.400 . S
C75 N78 1.351 . S
C75 C80 1.501 . S
C76 C77 1.387 . S
C76 N79 1.341 . S
C77 C75 1.400 . S
C77 C76 1.387 . S
N78 Co69 2.022 . S
N78 C75 1.351 . S
N78 N79 1.365 . S
N79 C76 1.341 . S
N79 N78 1.365 . S
N79 H99 0.862 . S
C80 C75 1.501 . S
C80 H81 0.961 . S
C80 H82 0.961 . S
C80 H83 0.960 . S
H81 C80 0.961 . S
H82 C80 0.961 . S
H83 C80 0.960 . S
C84 N85 1.342 1_655 S
C84 C88 1.401 . S
C84 C89 1.499 . S
N85 Co68 1.989 . S
N85 C84 1.342 1_455 S
N85 N86 1.388 . S
N86 Co69 1.993 . S
N86 N85 1.388 . S
N86 C87 1.346 . S
C87 N86 1.346 . S
C87 C88 1.396 1_455 S
C87 C97 1.510 . S
C88 C84 1.401 . S
C88 C87 1.396 1_655 S
C89 C84 1.499 . S
C89 H90 0.959 . S
C89 H91 0.960 . S
C89 H92 0.961 . S
H90 C89 0.959 . S
H91 C89 0.960 . S
H92 C89 0.961 . S
O93 Co68 1.967 . S
O93 C101 1.258 . S
O94 Co69 1.941 . S
O94 C101 1.266 . S
H95 C97 0.959 . S
H96 C97 0.961 . S
C97 C87 1.510 . S
C97 H95 0.959 . S
C97 H96 0.961 . S
C97 H98 0.960 . S
H98 C97 0.960 . S
H99 N79 0.862 . S
O100 Co68 1.920 1_655 S
O100 C73 1.289 . S
C101 O93 1.258 . S
C101 O94 1.266 . S
Co102 O105 1.970 . S
Co102 N119 1.989 . S
Co102 O127 1.967 . S
Co102 O134 1.920 1_545 S
Co103 O106 1.966 . S
Co103 N112 2.022 . S
Co103 N120 1.993 . S
Co103 O128 1.941 . S
C104 O105 1.258 . S
C104 O106 1.263 . S
O105 Co102 1.970 . S
O105 C104 1.258 . S
O106 Co103 1.966 . S
O106 C104 1.263 . S
C107 O108 1.235 . S
C107 O134 1.289 . S
O108 C107 1.235 . S
C109 C111 1.400 . S
C109 N112 1.351 . S
C109 C114 1.501 . S
C110 C111 1.387 . S
C110 N113 1.341 . S
C111 C109 1.400 . S
C111 C110 1.387 . S
N112 Co103 2.022 . S
N112 C109 1.351 . S
N112 N113 1.365 . S
N113 C110 1.341 . S
N113 N112 1.365 . S
N113 H133 0.862 . S
C114 C109 1.501 . S
C114 H115 0.961 . S
C114 H116 0.961 . S
C114 H117 0.960 . S
H115 C114 0.961 . S
H116 C114 0.961 . S
H117 C114 0.960 . S
C118 N119 1.342 1_565 S
C118 C122 1.401 . S
C118 C123 1.499 . S
N119 Co102 1.989 . S
N119 C118 1.342 1_545 S
N119 N120 1.388 . S
N120 Co103 1.993 . S
N120 N119 1.388 . S
N120 C121 1.346 . S
C121 N120 1.346 . S
C121 C122 1.396 1_545 S
C121 C131 1.510 . S
C122 C118 1.401 . S
C122 C121 1.396 1_565 S
C123 C118 1.499 . S
C123 H124 0.959 . S
C123 H125 0.960 . S
C123 H126 0.961 . S
H124 C123 0.959 . S
H125 C123 0.960 . S
H126 C123 0.961 . S
O127 Co102 1.967 . S
O127 C135 1.258 . S
O128 Co103 1.941 . S
O128 C135 1.266 . S
H129 C131 0.959 . S
H130 C131 0.961 . S
C131 C121 1.510 . S
C131 H129 0.959 . S
C131 H130 0.961 . S
C131 H132 0.960 . S
H132 C131 0.960 . S
H133 N113 0.862 . S
O134 Co102 1.920 1_565 S
O134 C107 1.289 . S
C135 O127 1.258 . S
C135 O128 1.266 . S
Co136 O139 1.970 . S
Co136 N153 1.989 . S
Co136 O161 1.967 . S
Co136 O168 1.920 . S
Co137 O140 1.966 . S
Co137 N146 2.022 . S
Co137 N154 1.993 . S
Co137 O162 1.941 . S
C138 O139 1.258 . S
C138 O140 1.263 . S
O139 Co136 1.970 . S
O139 C138 1.258 . S
O140 Co137 1.966 . S
O140 C138 1.263 . S
C141 O142 1.235 . S
C141 O168 1.289 . S
O142 C141 1.235 . S
C143 C145 1.400 . S
C143 N146 1.351 . S
C143 C148 1.501 . S
C144 C145 1.387 . S
C144 N147 1.341 . S
C145 C143 1.400 . S
C145 C144 1.387 . S
N146 Co137 2.022 . S
N146 C143 1.351 . S
N146 N147 1.365 . S
N147 C144 1.341 . S
N147 N146 1.365 . S
N147 H167 0.862 . S
C148 C143 1.501 . S
C148 H149 0.961 . S
C148 H150 0.961 . S
C148 H151 0.960 1_455 S
H149 C148 0.961 . S
H150 C148 0.961 . S
H151 C148 0.960 1_655 S
C152 N153 1.342 . S
C152 C156 1.401 . S
C152 C157 1.499 . S
N153 Co136 1.989 . S
N153 C152 1.342 . S
N153 N154 1.388 . S
N154 Co137 1.993 . S
N154 N153 1.388 . S
N154 C155 1.346 . S
C155 N154 1.346 . S
C155 C156 1.396 . S
C155 C165 1.510 . S
C156 C152 1.401 . S
C156 C155 1.396 . S
C157 C152 1.499 . S
C157 H158 0.959 . S
C157 H159 0.960 . S
C157 H160 0.961 . S
H158 C157 0.959 . S
H159 C157 0.960 . S
H160 C157 0.961 . S
O161 Co136 1.967 . S
O161 C169 1.258 . S
O162 Co137 1.941 . S
O162 C169 1.266 . S
H163 C165 0.959 . S
H164 C165 0.961 . S
C165 C155 1.510 . S
C165 H163 0.959 . S
C165 H164 0.961 . S
C165 H166 0.960 . S
H166 C165 0.960 . S
H167 N147 0.862 . S
O168 Co136 1.920 . S
O168 C141 1.289 . S
C169 O161 1.258 . S
C169 O162 1.266 . S
Co170 O173 1.970 . S
Co170 N187 1.989 . S
Co170 O195 1.967 . S
Co170 O202 1.920 . S
Co171 O174 1.966 . S
Co171 N180 2.022 . S
Co171 N188 1.993 . S
Co171 O196 1.941 . S
C172 O173 1.258 . S
C172 O174 1.263 . S
O173 Co170 1.970 . S
O173 C172 1.258 . S
O174 Co171 1.966 . S
O174 C172 1.263 . S
C175 O176 1.235 . S
C175 O202 1.289 . S
O176 C175 1.235 . S
C177 C179 1.400 . S
C177 N180 1.351 . S
C177 C182 1.501 . S
C178 C179 1.387 . S
C178 N181 1.341 . S
C179 C177 1.400 . S
C179 C178 1.387 . S
N180 Co171 2.022 . S
N180 C177 1.351 . S
N180 N181 1.365 . S
N181 C178 1.341 . S
N181 N180 1.365 . S
N181 H201 0.862 . S
C182 C177 1.501 . S
C182 H183 0.961 . S
C182 H184 0.961 . S
C182 H185 0.960 1_545 S
H183 C182 0.961 . S
H184 C182 0.961 . S
H185 C182 0.960 1_565 S
C186 N187 1.342 . S
C186 C190 1.401 . S
C186 C191 1.499 . S
N187 Co170 1.989 . S
N187 C186 1.342 . S
N187 N188 1.388 . S
N188 Co171 1.993 . S
N188 N187 1.388 . S
N188 C189 1.346 . S
C189 N188 1.346 . S
C189 C190 1.396 . S
C189 C199 1.510 . S
C190 C186 1.401 . S
C190 C189 1.396 . S
C191 C186 1.499 . S
C191 H192 0.959 . S
C191 H193 0.960 . S
C191 H194 0.961 . S
H192 C191 0.959 . S
H193 C191 0.960 . S
H194 C191 0.961 . S
O195 Co170 1.967 . S
O195 C203 1.258 . S
O196 Co171 1.941 . S
O196 C203 1.266 . S
H197 C199 0.959 . S
H198 C199 0.961 . S
C199 C189 1.510 . S
C199 H197 0.959 . S
C199 H198 0.961 . S
C199 H200 0.960 . S
H200 C199 0.960 . S
H201 N181 0.862 . S
O202 Co170 1.920 . S
O202 C175 1.289 . S
C203 O195 1.258 . S
C203 O196 1.266 . S
Co204 O207 1.970 . S
Co204 N221 1.989 . S
Co204 O229 1.967 . S
Co204 O236 1.920 1_455 S
Co205 O208 1.966 . S
Co205 N214 2.022 . S
Co205 N222 1.993 . S
Co205 O230 1.941 . S
C206 O207 1.258 . S
C206 O208 1.263 . S
O207 Co204 1.970 . S
O207 C206 1.258 . S
O208 Co205 1.966 . S
O208 C206 1.263 . S
C209 O210 1.235 . S
C209 O236 1.289 . S
O210 C209 1.235 . S
C211 C213 1.400 . S
C211 N214 1.351 . S
C211 C216 1.501 . S
C212 C213 1.387 . S
C212 N215 1.341 . S
C213 C211 1.400 . S
C213 C212 1.387 . S
N214 Co205 2.022 . S
N214 C211 1.351 . S
N214 N215 1.365 . S
N215 C212 1.341 . S
N215 N214 1.365 . S
N215 H235 0.862 . S
C216 C211 1.501 . S
C216 H217 0.961 . S
C216 H218 0.961 . S
C216 H219 0.960 . S
H217 C216 0.961 . S
H218 C216 0.961 . S
H219 C216 0.960 . S
C220 N221 1.342 1_655 S
C220 C224 1.401 . S
C220 C225 1.499 . S
N221 Co204 1.989 . S
N221 C220 1.342 1_455 S
N221 N222 1.388 . S
N222 Co205 1.993 . S
N222 N221 1.388 . S
N222 C223 1.346 . S
C223 N222 1.346 . S
C223 C224 1.396 1_455 S
C223 C233 1.510 . S
C224 C220 1.401 . S
C224 C223 1.396 1_655 S
C225 C220 1.499 . S
C225 H226 0.959 . S
C225 H227 0.960 . S
C225 H228 0.961 . S
H226 C225 0.959 . S
H227 C225 0.960 . S
H228 C225 0.961 . S
O229 Co204 1.967 . S
O229 C237 1.258 . S
O230 Co205 1.941 . S
O230 C237 1.266 . S
H231 C233 0.959 . S
H232 C233 0.961 . S
C233 C223 1.510 . S
C233 H231 0.959 . S
C233 H232 0.961 . S
C233 H234 0.960 . S
H234 C233 0.960 . S
H235 N215 0.862 . S
O236 Co204 1.920 1_655 S
O236 C209 1.289 . S
C237 O229 1.258 . S
C237 O230 1.266 . S
Co238 O241 1.970 . S
Co238 N255 1.989 . S
Co238 O263 1.967 . S
Co238 O270 1.920 1_545 S
Co239 O242 1.966 . S
Co239 N248 2.022 . S
Co239 N256 1.993 . S
Co239 O264 1.941 . S
C240 O241 1.258 . S
C240 O242 1.263 . S
O241 Co238 1.970 . S
O241 C240 1.258 . S
O242 Co239 1.966 . S
O242 C240 1.263 . S
C243 O244 1.235 . S
C243 O270 1.289 . S
O244 C243 1.235 . S
C245 C247 1.400 . S
C245 N248 1.351 . S
C245 C250 1.501 . S
C246 C247 1.387 . S
C246 N249 1.341 . S
C247 C245 1.400 . S
C247 C246 1.387 . S
N248 Co239 2.022 . S
N248 C245 1.351 . S
N248 N249 1.365 . S
N249 C246 1.341 . S
N249 N248 1.365 . S
N249 H269 0.862 . S
C250 C245 1.501 . S
C250 H251 0.961 . S
C250 H252 0.961 . S
C250 H253 0.960 . S
H251 C250 0.961 . S
H252 C250 0.961 . S
H253 C250 0.960 . S
C254 N255 1.342 1_565 S
C254 C258 1.401 . S
C254 C259 1.499 . S
N255 Co238 1.989 . S
N255 C254 1.342 1_545 S
N255 N256 1.388 . S
N256 Co239 1.993 . S
N256 N255 1.388 . S
N256 C257 1.346 . S
C257 N256 1.346 . S
C257 C258 1.396 1_545 S
C257 C267 1.510 . S
C258 C254 1.401 . S
C258 C257 1.396 1_565 S
C259 C254 1.499 . S
C259 H260 0.959 . S
C259 H261 0.960 . S
C259 H262 0.961 . S
H260 C259 0.959 . S
H261 C259 0.960 . S
H262 C259 0.961 . S
O263 Co238 1.967 . S
O263 C271 1.258 . S
O264 Co239 1.941 . S
O264 C271 1.266 . S
H265 C267 0.959 . S
H266 C267 0.961 . S
C267 C257 1.510 . S
C267 H265 0.959 . S
C267 H266 0.961 . S
C267 H268 0.960 . S
H268 C267 0.960 . S
H269 N249 0.862 . S
O270 Co238 1.920 1_565 S
O270 C243 1.289 . S
C271 O263 1.258 . S
C271 O264 1.266 . S
Co272 O275 1.970 . S
Co272 N289 1.989 . S
Co272 O297 1.967 . S
Co272 O304 1.920 . S
Co273 O276 1.966 . S
Co273 N282 2.022 . S
Co273 N290 1.993 . S
Co273 O298 1.941 . S
C274 O275 1.258 . S
C274 O276 1.263 . S
O275 Co272 1.970 . S
O275 C274 1.258 . S
O276 Co273 1.966 . S
O276 C274 1.263 . S
C277 O278 1.235 . S
C277 O304 1.289 . S
O278 C277 1.235 . S
C279 C281 1.400 . S
C279 N282 1.351 . S
C279 C284 1.501 . S
C280 C281 1.387 . S
C280 N283 1.341 . S
C281 C279 1.400 . S
C281 C280 1.387 . S
N282 Co273 2.022 . S
N282 C279 1.351 . S
N282 N283 1.365 . S
N283 C280 1.341 . S
N283 N282 1.365 . S
N283 H303 0.862 . S
C284 C279 1.501 . S
C284 H285 0.961 . S
C284 H286 0.961 . S
C284 H287 0.960 . S
H285 C284 0.961 . S
H286 C284 0.961 . S
H287 C284 0.960 . S
C288 N289 1.342 . S
C288 C292 1.401 . S
C288 C293 1.499 . S
N289 Co272 1.989 . S
N289 C288 1.342 . S
N289 N290 1.388 . S
N290 Co273 1.993 . S
N290 N289 1.388 . S
N290 C291 1.346 . S
C291 N290 1.346 . S
C291 C292 1.396 . S
C291 C301 1.510 . S
C292 C288 1.401 . S
C292 C291 1.396 . S
C293 C288 1.499 . S
C293 H294 0.959 . S
C293 H295 0.960 . S
C293 H296 0.961 . S
H294 C293 0.959 . S
H295 C293 0.960 . S
H296 C293 0.961 . S
O297 Co272 1.967 . S
O297 C305 1.258 . S
O298 Co273 1.941 . S
O298 C305 1.266 . S
H299 C301 0.959 . S
H300 C301 0.961 . S
C301 C291 1.510 . S
C301 H299 0.959 . S
C301 H300 0.961 . S
C301 H302 0.960 . S
H302 C301 0.960 . S
H303 N283 0.862 . S
O304 Co272 1.920 . S
O304 C277 1.289 . S
C305 O297 1.258 . S
C305 O298 1.266 . S
Co306 O309 1.970 . S
Co306 N323 1.989 . S
Co306 O331 1.967 . S
Co306 O338 1.920 . S
Co307 O310 1.966 . S
Co307 N316 2.022 . S
Co307 N324 1.993 . S
Co307 O332 1.941 . S
C308 O309 1.258 . S
C308 O310 1.263 . S
O309 Co306 1.970 . S
O309 C308 1.258 . S
O310 Co307 1.966 . S
O310 C308 1.263 . S
C311 O312 1.235 . S
C311 O338 1.289 . S
O312 C311 1.235 . S
C313 C315 1.400 . S
C313 N316 1.351 . S
C313 C318 1.501 . S
C314 C315 1.387 . S
C314 N317 1.341 . S
C315 C313 1.400 . S
C315 C314 1.387 . S
N316 Co307 2.022 . S
N316 C313 1.351 . S
N316 N317 1.365 . S
N317 C314 1.341 . S
N317 N316 1.365 . S
N317 H337 0.862 . S
C318 C313 1.501 . S
C318 H319 0.961 . S
C318 H320 0.961 . S
C318 H321 0.960 . S
H319 C318 0.961 . S
H320 C318 0.961 . S
H321 C318 0.960 . S
C322 N323 1.342 . S
C322 C326 1.401 . S
C322 C327 1.499 . S
N323 Co306 1.989 . S
N323 C322 1.342 . S
N323 N324 1.388 . S
N324 Co307 1.993 . S
N324 N323 1.388 . S
N324 C325 1.346 . S
C325 N324 1.346 . S
C325 C326 1.396 . S
C325 C335 1.510 . S
C326 C322 1.401 . S
C326 C325 1.396 . S
C327 C322 1.499 . S
C327 H328 0.959 . S
C327 H329 0.960 . S
C327 H330 0.961 . S
H328 C327 0.959 . S
H329 C327 0.960 . S
H330 C327 0.961 . S
O331 Co306 1.967 . S
O331 C339 1.258 . S
O332 Co307 1.941 . S
O332 C339 1.266 . S
H333 C335 0.959 . S
H334 C335 0.961 . S
C335 C325 1.510 . S
C335 H333 0.959 . S
C335 H334 0.961 . S
C335 H336 0.960 . S
H336 C335 0.960 . S
H337 N317 0.862 . S
O338 Co306 1.920 . S
O338 C311 1.289 . S
C339 O331 1.258 . S
C339 O332 1.266 . S
Co340 O343 1.970 . S
Co340 N357 1.989 . S
Co340 O365 1.967 . S
Co340 O372 1.920 . S
Co341 O344 1.966 . S
Co341 N350 2.022 . S
Co341 N358 1.993 . S
Co341 O366 1.941 . S
C342 O343 1.258 . S
C342 O344 1.263 . S
O343 Co340 1.970 . S
O343 C342 1.258 . S
O344 Co341 1.966 . S
O344 C342 1.263 . S
C345 O346 1.235 . S
C345 O372 1.289 . S
O346 C345 1.235 . S
C347 C349 1.400 . S
C347 N350 1.351 . S
C347 C352 1.501 . S
C348 C349 1.387 . S
C348 N351 1.341 . S
C349 C347 1.400 . S
C349 C348 1.387 . S
N350 Co341 2.022 . S
N350 C347 1.351 . S
N350 N351 1.365 . S
N351 C348 1.341 . S
N351 N350 1.365 . S
N351 H371 0.862 . S
C352 C347 1.501 . S
C352 H353 0.961 . S
C352 H354 0.961 . S
C352 H355 0.960 . S
H353 C352 0.961 . S
H354 C352 0.961 . S
H355 C352 0.960 . S
C356 N357 1.342 . S
C356 C360 1.401 . S
C356 C361 1.499 . S
N357 Co340 1.989 . S
N357 C356 1.342 . S
N357 N358 1.388 . S
N358 Co341 1.993 . S
N358 N357 1.388 . S
N358 C359 1.346 . S
C359 N358 1.346 . S
C359 C360 1.396 . S
C359 C369 1.510 . S
C360 C356 1.401 . S
C360 C359 1.396 . S
C361 C356 1.499 . S
C361 H362 0.959 . S
C361 H363 0.960 . S
C361 H364 0.961 . S
H362 C361 0.959 . S
H363 C361 0.960 . S
H364 C361 0.961 . S
O365 Co340 1.967 . S
O365 C373 1.258 . S
O366 Co341 1.941 . S
O366 C373 1.266 . S
H367 C369 0.959 . S
H368 C369 0.961 . S
C369 C359 1.510 . S
C369 H367 0.959 . S
C369 H368 0.961 . S
C369 H370 0.960 . S
H370 C369 0.960 . S
H371 N351 0.862 . S
O372 Co340 1.920 . S
O372 C345 1.289 . S
C373 O365 1.258 . S
C373 O366 1.266 . S
Co374 O377 1.970 . S
Co374 N391 1.989 . S
Co374 O399 1.967 . S
Co374 O406 1.920 . S
Co375 O378 1.966 . S
Co375 N384 2.022 . S
Co375 N392 1.993 . S
Co375 O400 1.941 . S
C376 O377 1.258 . S
C376 O378 1.263 . S
O377 Co374 1.970 . S
O377 C376 1.258 . S
O378 Co375 1.966 . S
O378 C376 1.263 . S
C379 O380 1.235 . S
C379 O406 1.289 . S
O380 C379 1.235 . S
C381 C383 1.400 . S
C381 N384 1.351 . S
C381 C386 1.501 . S
C382 C383 1.387 . S
C382 N385 1.341 . S
C383 C381 1.400 . S
C383 C382 1.387 . S
N384 Co375 2.022 . S
N384 C381 1.351 . S
N384 N385 1.365 . S
N385 C382 1.341 . S
N385 N384 1.365 . S
N385 H405 0.862 . S
C386 C381 1.501 . S
C386 H387 0.961 . S
C386 H388 0.961 . S
C386 H389 0.960 . S
H387 C386 0.961 . S
H388 C386 0.961 . S
H389 C386 0.960 . S
C390 N391 1.342 . S
C390 C394 1.401 . S
C390 C395 1.499 . S
N391 Co374 1.989 . S
N391 C390 1.342 . S
N391 N392 1.388 . S
N392 Co375 1.993 . S
N392 N391 1.388 . S
N392 C393 1.346 . S
C393 N392 1.346 . S
C393 C394 1.396 . S
C393 C403 1.510 . S
C394 C390 1.401 . S
C394 C393 1.396 . S
C395 C390 1.499 . S
C395 H396 0.959 . S
C395 H397 0.960 . S
C395 H398 0.961 . S
H396 C395 0.959 . S
H397 C395 0.960 . S
H398 C395 0.961 . S
O399 Co374 1.967 . S
O399 C407 1.258 . S
O400 Co375 1.941 . S
O400 C407 1.266 . S
H401 C403 0.959 . S
H402 C403 0.961 . S
C403 C393 1.510 . S
C403 H401 0.959 . S
C403 H402 0.961 . S
C403 H404 0.960 . S
H404 C403 0.960 . S
H405 N385 0.862 . S
O406 Co374 1.920 . S
O406 C379 1.289 . S
C407 O399 1.258 . S
C407 O400 1.266 . S
Co408 O411 1.970 . S
Co408 N425 1.989 . S
Co408 O433 1.967 . S
Co408 O440 1.920 . S
Co409 O412 1.966 . S
Co409 N418 2.022 . S
Co409 N426 1.993 . S
Co409 O434 1.941 . S
C410 O411 1.258 . S
C410 O412 1.263 . S
O411 Co408 1.970 . S
O411 C410 1.258 . S
O412 Co409 1.966 . S
O412 C410 1.263 . S
C413 O414 1.235 . S
C413 O440 1.289 . S
O414 C413 1.235 . S
C415 C417 1.400 . S
C415 N418 1.351 . S
C415 C420 1.501 . S
C416 C417 1.387 . S
C416 N419 1.341 . S
C417 C415 1.400 . S
C417 C416 1.387 . S
N418 Co409 2.022 . S
N418 C415 1.351 . S
N418 N419 1.365 . S
N419 C416 1.341 . S
N419 N418 1.365 . S
N419 H439 0.862 . S
C420 C415 1.501 . S
C420 H421 0.961 . S
C420 H422 0.961 . S
C420 H423 0.960 . S
H421 C420 0.961 . S
H422 C420 0.961 . S
H423 C420 0.960 . S
C424 N425 1.342 . S
C424 C428 1.401 . S
C424 C429 1.499 . S
N425 Co408 1.989 . S
N425 C424 1.342 . S
N425 N426 1.388 . S
N426 Co409 1.993 . S
N426 N425 1.388 . S
N426 C427 1.346 . S
C427 N426 1.346 . S
C427 C428 1.396 . S
C427 C437 1.510 . S
C428 C424 1.401 . S
C428 C427 1.396 . S
C429 C424 1.499 . S
C429 H430 0.959 . S
C429 H431 0.960 . S
C429 H432 0.961 . S
H430 C429 0.959 . S
H431 C429 0.960 . S
H432 C429 0.961 . S
O433 Co408 1.967 . S
O433 C441 1.258 . S
O434 Co409 1.941 . S
O434 C441 1.266 . S
H435 C437 0.959 . S
H436 C437 0.961 . S
C437 C427 1.510 . S
C437 H435 0.959 . S
C437 H436 0.961 . S
C437 H438 0.960 . S
H438 C437 0.960 . S
H439 N419 0.862 . S
O440 Co408 1.920 . S
O440 C413 1.289 . S
C441 O433 1.258 . S
C441 O434 1.266 . S
Co442 O445 1.970 . S
Co442 N459 1.989 . S
Co442 O467 1.967 . S
Co442 O474 1.920 . S
Co443 O446 1.966 . S
Co443 N452 2.022 . S
Co443 N460 1.993 . S
Co443 O468 1.941 . S
C444 O445 1.258 . S
C444 O446 1.263 . S
O445 Co442 1.970 . S
O445 C444 1.258 . S
O446 Co443 1.966 . S
O446 C444 1.263 . S
C447 O448 1.235 . S
C447 O474 1.289 . S
O448 C447 1.235 . S
C449 C451 1.400 . S
C449 N452 1.351 . S
C449 C454 1.501 . S
C450 C451 1.387 . S
C450 N453 1.341 . S
C451 C449 1.400 . S
C451 C450 1.387 . S
N452 Co443 2.022 . S
N452 C449 1.351 . S
N452 N453 1.365 . S
N453 C450 1.341 . S
N453 N452 1.365 . S
N453 H473 0.862 . S
C454 C449 1.501 . S
C454 H455 0.961 . S
C454 H456 0.961 . S
C454 H457 0.960 . S
H455 C454 0.961 . S
H456 C454 0.961 . S
H457 C454 0.960 . S
C458 N459 1.342 . S
C458 C462 1.401 . S
C458 C463 1.499 . S
N459 Co442 1.989 . S
N459 C458 1.342 . S
N459 N460 1.388 . S
N460 Co443 1.993 . S
N460 N459 1.388 . S
N460 C461 1.346 . S
C461 N460 1.346 . S
C461 C462 1.396 . S
C461 C471 1.510 . S
C462 C458 1.401 . S
C462 C461 1.396 . S
C463 C458 1.499 . S
C463 H464 0.959 . S
C463 H465 0.960 . S
C463 H466 0.961 . S
H464 C463 0.959 . S
H465 C463 0.960 . S
H466 C463 0.961 . S
O467 Co442 1.967 . S
O467 C475 1.258 . S
O468 Co443 1.941 . S
O468 C475 1.266 . S
H469 C471 0.959 . S
H470 C471 0.961 . S
C471 C461 1.510 . S
C471 H469 0.959 . S
C471 H470 0.961 . S
C471 H472 0.960 . S
H472 C471 0.960 . S
H473 N453 0.862 . S
O474 Co442 1.920 . S
O474 C447 1.289 . S
C475 O467 1.258 . S
C475 O468 1.266 . S
Co476 O479 1.970 . S
Co476 N493 1.989 . S
Co476 O501 1.967 . S
Co476 O508 1.920 . S
Co477 O480 1.966 . S
Co477 N486 2.022 . S
Co477 N494 1.993 . S
Co477 O502 1.941 . S
C478 O479 1.258 . S
C478 O480 1.263 . S
O479 Co476 1.970 . S
O479 C478 1.258 . S
O480 Co477 1.966 . S
O480 C478 1.263 . S
C481 O482 1.235 . S
C481 O508 1.289 . S
O482 C481 1.235 . S
C483 C485 1.400 . S
C483 N486 1.351 . S
C483 C488 1.501 . S
C484 C485 1.387 . S
C484 N487 1.341 . S
C485 C483 1.400 . S
C485 C484 1.387 . S
N486 Co477 2.022 . S
N486 C483 1.351 . S
N486 N487 1.365 . S
N487 C484 1.341 . S
N487 N486 1.365 . S
N487 H507 0.862 . S
C488 C483 1.501 . S
C488 H489 0.961 . S
C488 H490 0.961 . S
C488 H491 0.960 . S
H489 C488 0.961 . S
H490 C488 0.961 . S
H491 C488 0.960 . S
C492 N493 1.342 . S
C492 C496 1.401 . S
C492 C497 1.499 . S
N493 Co476 1.989 . S
N493 C492 1.342 . S
N493 N494 1.388 . S
N494 Co477 1.993 . S
N494 N493 1.388 . S
N494 C495 1.346 . S
C495 N494 1.346 . S
C495 C496 1.396 . S
C495 C505 1.510 . S
C496 C492 1.401 . S
C496 C495 1.396 . S
C497 C492 1.499 . S
C497 H498 0.959 . S
C497 H499 0.960 . S
C497 H500 0.961 . S
H498 C497 0.959 . S
H499 C497 0.960 . S
H500 C497 0.961 . S
O501 Co476 1.967 . S
O501 C509 1.258 . S
O502 Co477 1.941 . S
O502 C509 1.266 . S
H503 C505 0.959 . S
H504 C505 0.961 . S
C505 C495 1.510 . S
C505 H503 0.959 . S
C505 H504 0.961 . S
C505 H506 0.960 . S
H506 C505 0.960 . S
H507 N487 0.862 . S
O508 Co476 1.920 . S
O508 C481 1.289 . S
C509 O501 1.258 . S
C509 O502 1.266 . S
Co510 O513 1.970 . S
Co510 N527 1.989 . S
Co510 O535 1.967 . S
Co510 O542 1.920 . S
Co511 O514 1.966 . S
Co511 N520 2.022 . S
Co511 N528 1.993 . S
Co511 O536 1.941 . S
C512 O513 1.258 . S
C512 O514 1.263 . S
O513 Co510 1.970 . S
O513 C512 1.258 . S
O514 Co511 1.966 . S
O514 C512 1.263 . S
C515 O516 1.235 . S
C515 O542 1.289 . S
O516 C515 1.235 . S
C517 C519 1.400 . S
C517 N520 1.351 . S
C517 C522 1.501 . S
C518 C519 1.387 . S
C518 N521 1.341 . S
C519 C517 1.400 . S
C519 C518 1.387 . S
N520 Co511 2.022 . S
N520 C517 1.351 . S
N520 N521 1.365 . S
N521 C518 1.341 . S
N521 N520 1.365 . S
N521 H541 0.862 . S
C522 C517 1.501 . S
C522 H523 0.961 . S
C522 H524 0.961 . S
C522 H525 0.960 . S
H523 C522 0.961 . S
H524 C522 0.961 . S
H525 C522 0.960 . S
C526 N527 1.342 . S
C526 C530 1.401 . S
C526 C531 1.499 . S
N527 Co510 1.989 . S
N527 C526 1.342 . S
N527 N528 1.388 . S
N528 Co511 1.993 . S
N528 N527 1.388 . S
N528 C529 1.346 . S
C529 N528 1.346 . S
C529 C530 1.396 . S
C529 C539 1.510 . S
C530 C526 1.401 . S
C530 C529 1.396 . S
C531 C526 1.499 . S
C531 H532 0.959 . S
C531 H533 0.960 . S
C531 H534 0.961 . S
H532 C531 0.959 . S
H533 C531 0.960 . S
H534 C531 0.961 . S
O535 Co510 1.967 . S
O535 C543 1.258 . S
O536 Co511 1.941 . S
O536 C543 1.266 . S
H537 C539 0.959 . S
H538 C539 0.961 . S
C539 C529 1.510 . S
C539 H537 0.959 . S
C539 H538 0.961 . S
C539 H540 0.960 . S
H540 C539 0.960 . S
H541 N521 0.862 . S
O542 Co510 1.920 . S
O542 C515 1.289 . S
C543 O535 1.258 . S
C543 O536 1.266 . S
C544 C545 1.369 . S
C544 C546 1.419 . S
C544 H548 0.930 . S
C545 C544 1.369 . S
C545 C554 1.429 . S
C546 C544 1.419 . S
C546 C547 1.363 . S
C546 H549 0.929 . S
C547 C546 1.363 . S
C547 C553 1.428 . S
H548 C544 0.930 . S
H549 C546 0.929 . S
S550 N551 1.613 . S
S550 N552 1.610 . S
N551 S550 1.613 . S
N551 C554 1.350 . S
N552 S550 1.610 . S
N552 C553 1.351 . S
C553 C547 1.428 . S
C553 N552 1.351 . S
C553 C554 1.434 . S
C554 C545 1.429 . S
C554 N551 1.350 . S
C554 C553 1.434 . S
C555 C556 1.369 . S
C555 C557 1.419 . S
C555 H559 0.930 . S
C556 C555 1.369 . S
C556 C565 1.429 . S
C557 C555 1.419 . S
C557 C558 1.363 . S
C557 H560 0.929 . S
C558 C557 1.363 . S
C558 C564 1.428 . S
H559 C555 0.930 . S
H560 C557 0.929 . S
S561 N562 1.613 . S
S561 N563 1.610 . S
N562 S561 1.613 . S
N562 C565 1.350 . S
N563 S561 1.610 . S
N563 C564 1.351 . S
C564 C558 1.428 . S
C564 N563 1.351 . S
C564 C565 1.434 . S
C565 C556 1.429 . S
C565 N562 1.350 . S
C565 C564 1.434 . S
C566 C567 1.369 . S
C566 C568 1.419 . S
C566 H570 0.930 . S
C567 C566 1.369 . S
C567 C576 1.429 . S
C568 C566 1.419 . S
C568 C569 1.363 . S
C568 H571 0.929 . S
C569 C568 1.363 . S
C569 C575 1.428 . S
H570 C566 0.930 . S
H571 C568 0.929 . S
S572 N573 1.613 . S
S572 N574 1.610 . S
N573 S572 1.613 . S
N573 C576 1.350 . S
N574 S572 1.610 . S
N574 C575 1.351 . S
C575 C569 1.428 . S
C575 N574 1.351 . S
C575 C576 1.434 . S
C576 C567 1.429 . S
C576 N573 1.350 . S
C576 C575 1.434 . S
C577 C578 1.369 . S
C577 C579 1.419 . S
C577 H581 0.930 . S
C578 C577 1.369 . S
C578 C587 1.429 . S
C579 C577 1.419 . S
C579 C580 1.363 . S
C579 H582 0.929 . S
C580 C579 1.363 . S
C580 C586 1.428 . S
H581 C577 0.930 . S
H582 C579 0.929 . S
S583 N584 1.613 . S
S583 N585 1.610 . S
N584 S583 1.613 . S
N584 C587 1.350 . S
N585 S583 1.610 . S
N585 C586 1.351 . S
C586 C580 1.428 . S
C586 N585 1.351 . S
C586 C587 1.434 . S
C587 C578 1.429 . S
C587 N584 1.350 . S
C587 C586 1.434 . S
C588 C589 1.369 . S
C588 C590 1.419 1_556 S
C588 H592 0.930 . S
C589 C588 1.369 . S
C589 C598 1.429 . S
C590 C588 1.419 1_554 S
C590 C591 1.363 . S
C590 H593 0.929 . S
C591 C590 1.363 . S
C591 C597 1.428 . S
H592 C588 0.930 . S
H593 C590 0.929 . S
S594 N595 1.613 1_554 S
S594 N596 1.610 . S
N595 S594 1.613 1_556 S
N595 C598 1.350 . S
N596 S594 1.610 . S
N596 C597 1.351 . S
C597 C591 1.428 . S
C597 N596 1.351 . S
C597 C598 1.434 1_554 S
C598 C589 1.429 . S
C598 N595 1.350 . S
C598 C597 1.434 1_556 S
C599 C600 1.369 . S
C599 C601 1.419 1_556 S
C599 H603 0.930 . S
C600 C599 1.369 . S
C600 C609 1.429 . S
C601 C599 1.419 1_554 S
C601 C602 1.363 . S
C601 H604 0.929 . S
C602 C601 1.363 . S
C602 C608 1.428 . S
H603 C599 0.930 . S
H604 C601 0.929 . S
S605 N606 1.613 1_554 S
S605 N607 1.610 . S
N606 S605 1.613 1_556 S
N606 C609 1.350 . S
N607 S605 1.610 . S
N607 C608 1.351 . S
C608 C602 1.428 . S
C608 N607 1.351 . S
C608 C609 1.434 1_554 S
C609 C600 1.429 . S
C609 N606 1.350 . S
C609 C608 1.434 1_556 S
C610 C611 1.369 . S
C610 C612 1.419 1_556 S
C610 H614 0.930 . S
C611 C610 1.369 . S
C611 C620 1.429 . S
C612 C610 1.419 1_554 S
C612 C613 1.363 . S
C612 H615 0.929 . S
C613 C612 1.363 . S
C613 C619 1.428 . S
H614 C610 0.930 . S
H615 C612 0.929 . S
S616 N617 1.613 . S
S616 N618 1.610 1_556 S
N617 S616 1.613 . S
N617 C620 1.350 . S
N618 S616 1.610 1_554 S
N618 C619 1.351 . S
C619 C613 1.428 . S
C619 N618 1.351 . S
C619 C620 1.434 1_554 S
C620 C611 1.429 . S
C620 N617 1.350 . S
C620 C619 1.434 1_556 S
C621 C622 1.369 . S
C621 C623 1.419 1_554 S
C621 H625 0.930 . S
C622 C621 1.369 . S
C622 C631 1.429 . S
C623 C621 1.419 1_556 S
C623 C624 1.363 . S
C623 H626 0.929 . S
C624 C623 1.363 . S
C624 C630 1.428 . S
H625 C621 0.930 . S
H626 C623 0.929 . S
S627 N628 1.613 1_556 S
S627 N629 1.610 . S
N628 S627 1.613 1_554 S
N628 C631 1.350 . S
N629 S627 1.610 . S
N629 C630 1.351 . S
C630 C624 1.428 . S
C630 N629 1.351 . S
C630 C631 1.434 1_556 S
C631 C622 1.429 . S
C631 N628 1.350 . S
C631 C630 1.434 1_554 S
C632 C633 1.369 . S
C632 C634 1.419 . S
C632 H636 0.930 . S
C633 C632 1.369 . S
C633 C642 1.429 . S
C634 C632 1.419 . S
C634 C635 1.363 . S
C634 H637 0.929 . S
C635 C634 1.363 . S
C635 C641 1.428 . S
H636 C632 0.930 . S
H637 C634 0.929 . S
S638 N639 1.613 . S
S638 N640 1.610 . S
N639 S638 1.613 . S
N639 C642 1.350 . S
N640 S638 1.610 . S
N640 C641 1.351 . S
C641 C635 1.428 . S
C641 N640 1.351 . S
C641 C642 1.434 . S
C642 C633 1.429 . S
C642 N639 1.350 . S
C642 C641 1.434 . S
C643 C644 1.369 . S
C643 C645 1.419 1_655 S
C643 H647 0.930 . S
C644 C643 1.369 . S
C644 C653 1.429 . S
C645 C643 1.419 1_455 S
C645 C646 1.363 . S
C645 H648 0.929 . S
C646 C645 1.363 . S
C646 C652 1.428 . S
H647 C643 0.930 . S
H648 C645 0.929 . S
S649 N650 1.613 . S
S649 N651 1.610 1_655 S
N650 S649 1.613 . S
N650 C653 1.350 . S
N651 S649 1.610 1_455 S
N651 C652 1.351 . S
C652 C646 1.428 . S
C652 N651 1.351 . S
C652 C653 1.434 1_455 S
C653 C644 1.429 . S
C653 N650 1.350 . S
C653 C652 1.434 1_655 S
C654 C655 1.369 . S
C654 C656 1.419 1_545 S
C654 H658 0.930 . S
C655 C654 1.369 . S
C655 C664 1.429 . S
C656 C654 1.419 1_565 S
C656 C657 1.363 . S
C656 H659 0.929 . S
C657 C656 1.363 . S
C657 C663 1.428 . S
H658 C654 0.930 . S
H659 C656 0.929 . S
S660 N661 1.613 . S
S660 N662 1.610 1_545 S
N661 S660 1.613 . S
N661 C664 1.350 . S
N662 S660 1.610 1_565 S
N662 C663 1.351 . S
C663 C657 1.428 . S
C663 N662 1.351 . S
C663 C664 1.434 1_565 S
C664 C655 1.429 . S
C664 N661 1.350 . S
C664 C663 1.434 1_545 S
C665 C666 1.369 . S
C665 C667 1.419 . S
C665 H669 0.930 . S
C666 C665 1.369 . S
C666 C675 1.429 . S
C667 C665 1.419 . S
C667 C668 1.363 . S
C667 H670 0.929 . S
C668 C667 1.363 . S
C668 C674 1.428 . S
H669 C665 0.930 . S
H670 C667 0.929 . S
S671 N672 1.613 . S
S671 N673 1.610 . S
N672 S671 1.613 . S
N672 C675 1.350 . S
N673 S671 1.610 . S
N673 C674 1.351 . S
C674 C668 1.428 . S
C674 N673 1.351 . S
C674 C675 1.434 . S
C675 C666 1.429 . S
C675 N672 1.350 . S
C675 C674 1.434 . S
C676 C677 1.369 . S
C676 C678 1.437 . S
C676 H680 0.930 . S
C677 C676 1.369 . S
C677 C686 1.429 . S
C678 C676 1.437 . S
C678 C679 1.344 1_545 S
C678 H681 0.930 . S
C679 C678 1.344 1_565 S
C679 C685 1.428 . S
H680 C676 0.930 . S
H681 C678 0.930 . S
S682 N683 1.613 . S
S682 N684 1.610 . S
N683 S682 1.613 . S
N683 C686 1.350 1_565 S
N684 S682 1.610 . S
N684 C685 1.351 . S
C685 C679 1.428 . S
C685 N684 1.351 . S
C685 C686 1.434 1_565 S
C686 C677 1.429 . S
C686 N683 1.350 1_545 S
C686 C685 1.434 1_545 S
C687 C688 1.369 . S
C687 C689 1.419 . S
C687 H691 0.930 . S
C688 C687 1.369 . S
C688 C697 1.429 . S
C689 C687 1.419 . S
C689 C690 1.363 . S
C689 H692 0.929 . S
C690 C689 1.363 . S
C690 C696 1.428 . S
H691 C687 0.930 . S
H692 C689 0.929 . S
S693 N694 1.613 . S
S693 N695 1.610 . S
N694 S693 1.613 . S
N694 C697 1.350 . S
N695 S693 1.610 . S
N695 C696 1.351 . S
C696 C690 1.428 . S
C696 N695 1.351 . S
C696 C697 1.434 . S
C697 C688 1.429 . S
C697 N694 1.350 . S
C697 C696 1.434 . S
C698 C699 1.369 . S
C698 C700 1.419 . S
C698 H702 0.930 . S
C699 C698 1.369 . S
C699 C708 1.429 . S
C700 C698 1.419 . S
C700 C701 1.363 . S
C700 H703 0.929 . S
C701 C700 1.363 . S
C701 C707 1.428 . S
H702 C698 0.930 . S
H703 C700 0.929 . S
S704 N705 1.613 . S
S704 N706 1.610 . S
N705 S704 1.613 . S
N705 C708 1.350 . S
N706 S704 1.610 . S
N706 C707 1.351 . S
C707 C701 1.428 . S
C707 N706 1.351 . S
C707 C708 1.434 . S
C708 C699 1.429 . S
C708 N705 1.350 . S
C708 C707 1.434 . S
C709 C710 1.369 . S
C709 C711 1.419 1_455 S
C709 H713 0.930 . S
C710 C709 1.369 . S
C710 C719 1.429 . S
C711 C709 1.419 1_655 S
C711 C712 1.363 . S
C711 H714 0.929 . S
C712 C711 1.363 . S
C712 C718 1.428 . S
H713 C709 0.930 . S
H714 C711 0.929 . S
S715 N716 1.613 1_655 S
S715 N717 1.610 . S
N716 S715 1.613 1_455 S
N716 C719 1.350 . S
N717 S715 1.610 . S
N717 C718 1.351 . S
C718 C712 1.428 . S
C718 N717 1.351 . S
C718 C719 1.434 1_655 S
C719 C710 1.429 . S
C719 N716 1.350 . S
C719 C718 1.434 1_455 S
C720 C721 1.369 . S
C720 C722 1.419 . S
C720 H724 0.930 . S
C721 C720 1.369 . S
C721 C730 1.429 . S
C722 C720 1.419 . S
C722 C723 1.363 . S
C722 H725 0.929 . S
C723 C722 1.363 . S
C723 C729 1.428 . S
H724 C720 0.930 . S
H725 C722 0.929 . S
S726 N727 1.613 . S
S726 N728 1.610 . S
N727 S726 1.613 . S
N727 C730 1.350 . S
N728 S726 1.610 . S
N728 C729 1.351 . S
C729 C723 1.428 . S
C729 N728 1.351 . S
C729 C730 1.434 . S
C730 C721 1.429 . S
C730 N727 1.350 . S
C730 C729 1.434 . S
C731 C732 1.369 . S
C731 C733 1.419 . S
C731 H735 0.930 . S
C732 C731 1.369 . S
C732 C741 1.429 . S
C733 C731 1.419 . S
C733 C734 1.363 . S
C733 H736 0.929 . S
C734 C733 1.363 . S
C734 C740 1.428 . S
H735 C731 0.930 . S
H736 C733 0.929 . S
S737 N738 1.613 . S
S737 N739 1.610 . S
N738 S737 1.613 . S
N738 C741 1.350 . S
N739 S737 1.610 . S
N739 C740 1.351 . S
C740 C734 1.428 . S
C740 N739 1.351 . S
C740 C741 1.434 . S
C741 C732 1.429 . S
C741 N738 1.350 . S
C741 C740 1.434 . S
C742 C743 1.369 . S
C742 C744 1.419 . S
C742 H746 0.930 . S
C743 C742 1.369 . S
C743 C752 1.429 . S
C744 C742 1.419 . S
C744 C745 1.363 . S
C744 H747 0.929 . S
C745 C744 1.363 . S
C745 C751 1.428 . S
H746 C742 0.930 . S
H747 C744 0.929 . S
S748 N749 1.613 . S
S748 N750 1.610 . S
N749 S748 1.613 . S
N749 C752 1.350 . S
N750 S748 1.610 . S
N750 C751 1.351 . S
C751 C745 1.428 . S
C751 N750 1.351 . S
C751 C752 1.434 . S
C752 C743 1.429 . S
C752 N749 1.350 . S
C752 C751 1.434 . S
C753 C754 1.369 . S
C753 C755 1.419 . S
C753 H757 0.930 . S
C754 C753 1.369 . S
C754 C763 1.429 . S
C755 C753 1.419 . S
C755 C756 1.363 . S
C755 H758 0.929 . S
C756 C755 1.363 . S
C756 C762 1.428 . S
H757 C753 0.930 . S
H758 C755 0.929 . S
S759 N760 1.613 . S
S759 N761 1.610 . S
N760 S759 1.613 . S
N760 C763 1.350 . S
N761 S759 1.610 . S
N761 C762 1.351 . S
C762 C756 1.428 . S
C762 N761 1.351 . S
C762 C763 1.434 . S
C763 C754 1.429 . S
C763 N760 1.350 . S
C763 C762 1.434 . S
C764 C765 1.369 . S
C764 C766 1.419 . S
C764 H768 0.930 . S
C765 C764 1.369 . S
C765 C774 1.429 . S
C766 C764 1.419 . S
C766 C767 1.363 . S
C766 H769 0.929 . S
C767 C766 1.363 . S
C767 C773 1.428 . S
H768 C764 0.930 . S
H769 C766 0.929 . S
S770 N771 1.613 . S
S770 N772 1.610 . S
N771 S770 1.613 . S
N771 C774 1.350 . S
N772 S770 1.610 . S
N772 C773 1.351 . S
C773 C767 1.428 . S
C773 N772 1.351 . S
C773 C774 1.434 . S
C774 C765 1.429 . S
C774 N771 1.350 . S
C774 C773 1.434 . S
C775 C776 1.369 . S
C775 C777 1.419 . S
C775 H779 0.930 . S
C776 C775 1.369 . S
C776 C785 1.429 . S
C777 C775 1.419 . S
C777 C778 1.363 . S
C777 H780 0.929 . S
C778 C777 1.363 . S
C778 C784 1.428 . S
H779 C775 0.930 . S
H780 C777 0.929 . S
S781 N782 1.613 . S
S781 N783 1.610 . S
N782 S781 1.613 . S
N782 C785 1.350 . S
N783 S781 1.610 . S
N783 C784 1.351 . S
C784 C778 1.428 . S
C784 N783 1.351 . S
C784 C785 1.434 . S
C785 C776 1.429 . S
C785 N782 1.350 . S
C785 C784 1.434 . S
C786 C787 1.369 . S
C786 C788 1.419 . S
C786 H790 0.930 . S
C787 C786 1.369 . S
C787 C796 1.429 . S
C788 C786 1.419 . S
C788 C789 1.363 . S
C788 H791 0.929 . S
C789 C788 1.363 . S
C789 C795 1.428 . S
H790 C786 0.930 . S
H791 C788 0.929 . S
S792 N793 1.613 . S
S792 N794 1.610 . S
N793 S792 1.613 . S
N793 C796 1.350 . S
N794 S792 1.610 . S
N794 C795 1.351 . S
C795 C789 1.428 . S
C795 N794 1.351 . S
C795 C796 1.434 . S
C796 C787 1.429 . S
C796 N793 1.350 . S
C796 C795 1.434 . S
C797 C798 1.369 . S
C797 C799 1.419 . S
C797 H801 0.930 . S
C798 C797 1.369 . S
C798 C807 1.429 . S
C799 C797 1.419 . S
C799 C800 1.363 . S
C799 H802 0.929 . S
C800 C799 1.363 . S
C800 C806 1.428 . S
H801 C797 0.930 . S
H802 C799 0.929 . S
S803 N804 1.613 . S
S803 N805 1.610 . S
N804 S803 1.613 . S
N804 C807 1.350 . S
N805 S803 1.610 . S
N805 C806 1.351 . S
C806 C800 1.428 . S
C806 N805 1.351 . S
C806 C807 1.434 . S
C807 C798 1.429 . S
C807 N804 1.350 . S
C807 C806 1.434 . S
C808 C809 1.369 . S
C808 C810 1.419 . S
C808 H812 0.930 . S
C809 C808 1.369 . S
C809 C818 1.429 . S
C810 C808 1.419 . S
C810 C811 1.363 . S
C810 H813 0.929 . S
C811 C810 1.363 . S
C811 C817 1.428 . S
H812 C808 0.930 . S
H813 C810 0.929 . S
S814 N815 1.613 . S
S814 N816 1.610 . S
N815 S814 1.613 . S
N815 C818 1.350 . S
N816 S814 1.610 . S
N816 C817 1.351 . S
C817 C811 1.428 . S
C817 N816 1.351 . S
C817 C818 1.434 . S
C818 C809 1.429 . S
C818 N815 1.350 . S
C818 C817 1.434 . S
C819 C820 1.369 . S
C819 C821 1.419 . S
C819 H823 0.930 . S
C820 C819 1.369 . S
C820 C829 1.429 . S
C821 C819 1.419 . S
C821 C822 1.363 . S
C821 H824 0.929 . S
C822 C821 1.363 . S
C822 C828 1.428 . S
H823 C819 0.930 . S
H824 C821 0.929 . S
S825 N826 1.613 . S
S825 N827 1.610 . S
N826 S825 1.613 . S
N826 C829 1.350 . S
N827 S825 1.610 . S
N827 C828 1.351 . S
C828 C822 1.428 . S
C828 N827 1.351 . S
C828 C829 1.434 . S
C829 C820 1.429 . S
C829 N826 1.350 . S
C829 C828 1.434 . S
C830 C831 1.369 . S
C830 C832 1.419 . S
C830 H834 0.930 . S
C831 C830 1.369 . S
C831 C840 1.429 . S
C832 C830 1.419 . S
C832 C833 1.363 . S
C832 H835 0.929 . S
C833 C832 1.363 . S
C833 C839 1.428 . S
H834 C830 0.930 . S
H835 C832 0.929 . S
S836 N837 1.613 . S
S836 N838 1.610 . S
N837 S836 1.613 . S
N837 C840 1.350 . S
N838 S836 1.610 . S
N838 C839 1.351 . S
C839 C833 1.428 . S
C839 N838 1.351 . S
C839 C840 1.434 . S
C840 C831 1.429 . S
C840 N837 1.350 . S
C840 C839 1.434 . S
C841 C842 1.369 . S
C841 C843 1.419 . S
C841 H845 0.930 . S
C842 C841 1.369 . S
C842 C851 1.429 . S
C843 C841 1.419 . S
C843 C844 1.363 . S
C843 H846 0.929 . S
C844 C843 1.363 . S
C844 C850 1.428 . S
H845 C841 0.930 . S
H846 C843 0.929 . S
S847 N848 1.613 . S
S847 N849 1.610 . S
N848 S847 1.613 . S
N848 C851 1.350 . S
N849 S847 1.610 . S
N849 C850 1.351 . S
C850 C844 1.428 . S
C850 N849 1.351 . S
C850 C851 1.434 . S
C851 C842 1.429 . S
C851 N848 1.350 . S
C851 C850 1.434 . S
C852 C853 1.369 . S
C852 C854 1.419 . S
C852 H856 0.930 . S
C853 C852 1.369 . S
C853 C862 1.429 . S
C854 C852 1.419 . S
C854 C855 1.363 . S
C854 H857 0.929 . S
C855 C854 1.363 . S
C855 C861 1.428 . S
H856 C852 0.930 . S
H857 C854 0.929 . S
S858 N859 1.613 . S
S858 N860 1.610 . S
N859 S858 1.613 . S
N859 C862 1.350 . S
N860 S858 1.610 . S
N860 C861 1.351 . S
C861 C855 1.428 . S
C861 N860 1.351 . S
C861 C862 1.434 . S
C862 C853 1.429 . S
C862 N859 1.350 . S
C862 C861 1.434 . S
C863 C864 1.369 . S
C863 C865 1.419 . S
C863 H867 0.930 . S
C864 C863 1.369 . S
C864 C873 1.429 . S
C865 C863 1.419 . S
C865 C866 1.363 . S
C865 H868 0.929 . S
C866 C865 1.363 . S
C866 C872 1.428 . S
H867 C863 0.930 . S
H868 C865 0.929 . S
S869 N870 1.613 . S
S869 N871 1.610 . S
N870 S869 1.613 . S
N870 C873 1.350 . S
N871 S869 1.610 . S
N871 C872 1.351 . S
C872 C866 1.428 . S
C872 N871 1.351 . S
C872 C873 1.434 . S
C873 C864 1.429 . S
C873 N870 1.350 . S
C873 C872 1.434 . S
C874 C875 1.369 . S
C874 C876 1.419 . S
C874 H878 0.930 . S
C875 C874 1.369 . S
C875 C884 1.429 . S
C876 C874 1.419 . S
C876 C877 1.363 . S
C876 H879 0.929 . S
C877 C876 1.363 . S
C877 C883 1.428 . S
H878 C874 0.930 . S
H879 C876 0.929 . S
S880 N881 1.613 . S
S880 N882 1.610 . S
N881 S880 1.613 . S
N881 C884 1.350 . S
N882 S880 1.610 . S
N882 C883 1.351 . S
C883 C877 1.428 . S
C883 N882 1.351 . S
C883 C884 1.434 . S
C884 C875 1.429 . S
C884 N881 1.350 . S
C884 C883 1.434 . S
C885 C886 1.369 . S
C885 C887 1.419 . S
C885 H889 0.930 . S
C886 C885 1.369 . S
C886 C895 1.429 . S
C887 C885 1.419 . S
C887 C888 1.363 . S
C887 H890 0.929 . S
C888 C887 1.363 . S
C888 C894 1.428 . S
H889 C885 0.930 . S
H890 C887 0.929 . S
S891 N892 1.613 . S
S891 N893 1.610 . S
N892 S891 1.613 . S
N892 C895 1.350 . S
N893 S891 1.610 . S
N893 C894 1.351 . S
C894 C888 1.428 . S
C894 N893 1.351 . S
C894 C895 1.434 . S
C895 C886 1.429 . S
C895 N892 1.350 . S
C895 C894 1.434 . S
C896 C897 1.369 . S
C896 C898 1.419 . S
C896 H900 0.930 . S
C897 C896 1.369 . S
C897 C906 1.429 . S
C898 C896 1.419 . S
C898 C899 1.363 . S
C898 H901 0.929 . S
C899 C898 1.363 . S
C899 C905 1.428 . S
H900 C896 0.930 . S
H901 C898 0.929 . S
S902 N903 1.613 . S
S902 N904 1.610 . S
N903 S902 1.613 . S
N903 C906 1.350 . S
N904 S902 1.610 . S
N904 C905 1.351 . S
C905 C899 1.428 . S
C905 N904 1.351 . S
C905 C906 1.434 . S
C906 C897 1.429 . S
C906 N903 1.350 . S
C906 C905 1.434 . S
C907 C908 1.367 1_545 S
C907 C909 1.405 1_545 S
C907 H911 0.946 . S
C908 C907 1.367 1_565 S
C908 C917 1.429 . S
C909 C907 1.405 1_565 S
C909 C910 1.363 . S
C909 H912 0.929 . S
C910 C909 1.363 . S
C910 C916 1.428 . S
H911 C907 0.946 . S
H912 C909 0.929 . S
S913 N914 1.613 . S
S913 N915 1.610 . S
N914 S913 1.613 . S
N914 C917 1.350 . S
N915 S913 1.610 . S
N915 C916 1.351 . S
C916 C910 1.428 . S
C916 N915 1.351 . S
C916 C917 1.434 . S
C917 C908 1.429 . S
C917 N914 1.350 . S
C917 C916 1.434 . S
C918 C919 1.369 . S
C918 C920 1.419 . S
C918 H922 0.930 . S
C919 C918 1.369 . S
C919 C928 1.429 . S
C920 C918 1.419 . S
C920 C921 1.363 . S
C920 H923 0.929 . S
C921 C920 1.363 . S
C921 C927 1.428 . S
H922 C918 0.930 . S
H923 C920 0.929 . S
S924 N925 1.613 . S
S924 N926 1.610 . S
N925 S924 1.613 . S
N925 C928 1.350 . S
N926 S924 1.610 . S
N926 C927 1.351 . S
C927 C921 1.428 . S
C927 N926 1.351 . S
C927 C928 1.434 . S
C928 C919 1.429 . S
C928 N925 1.350 . S
C928 C927 1.434 . S
C929 C930 1.369 . S
C929 C931 1.419 . S
C929 H933 0.930 . S
C930 C929 1.369 . S
C930 C939 1.429 . S
C931 C929 1.419 . S
C931 C932 1.363 . S
C931 H934 0.929 . S
C932 C931 1.363 . S
C932 C938 1.428 . S
H933 C929 0.930 . S
H934 C931 0.929 . S
S935 N936 1.613 . S
S935 N937 1.610 . S
N936 S935 1.613 . S
N936 C939 1.350 . S
N937 S935 1.610 . S
N937 C938 1.351 . S
C938 C932 1.428 . S
C938 N937 1.351 . S
C938 C939 1.434 . S
C939 C930 1.429 . S
C939 N936 1.350 . S
C939 C938 1.434 . S
C940 C941 1.369 . S
C940 C942 1.419 . S
C940 H944 0.930 . S
C941 C940 1.369 . S
C941 C950 1.429 . S
C942 C940 1.419 . S
C942 C943 1.363 . S
C942 H945 0.929 . S
C943 C942 1.363 . S
C943 C949 1.428 . S
H944 C940 0.930 . S
H945 C942 0.929 . S
S946 N947 1.613 . S
S946 N948 1.610 1_455 S
N947 S946 1.613 . S
N947 C950 1.350 1_455 S
N948 S946 1.610 1_655 S
N948 C949 1.351 . S
C949 C943 1.428 . S
C949 N948 1.351 . S
C949 C950 1.434 . S
C950 C941 1.429 . S
C950 N947 1.350 1_655 S
C950 C949 1.434 . S
C951 C952 1.369 . S
C951 C953 1.419 1_565 S
C951 H955 0.930 . S
C952 C951 1.369 . S
C952 C961 1.429 . S
C953 C951 1.419 1_545 S
C953 C954 1.363 1_545 S
C953 H956 0.929 . S
C954 C953 1.363 1_565 S
C954 C960 1.428 . S
H955 C951 0.930 . S
H956 C953 0.929 . S
S957 N958 1.613 . S
S957 N959 1.610 . S
N958 S957 1.613 . S
N958 C961 1.350 . S
N959 S957 1.610 . S
N959 C960 1.351 . S
C960 C954 1.428 . S
C960 N959 1.351 . S
C960 C961 1.434 . S
C961 C952 1.429 . S
C961 N958 1.350 . S
C961 C960 1.434 . S
C962 C963 1.369 . S
C962 C964 1.419 . S
C962 H966 0.930 . S
C963 C962 1.369 . S
C963 C972 1.429 . S
C964 C962 1.419 . S
C964 C965 1.363 . S
C964 H967 0.929 . S
C965 C964 1.363 . S
C965 C971 1.428 . S
H966 C962 0.930 . S
H967 C964 0.929 . S
S968 N969 1.613 . S
S968 N970 1.610 . S
N969 S968 1.613 . S
N969 C972 1.350 . S
N970 S968 1.610 . S
N970 C971 1.351 . S
C971 C965 1.428 . S
C971 N970 1.351 . S
C971 C972 1.434 . S
C972 C963 1.429 . S
C972 N969 1.350 . S
C972 C971 1.434 . S
C973 C974 1.369 . S
C973 C975 1.419 . S
C973 H977 0.930 . S
C974 C973 1.369 . S
C974 C983 1.429 . S
C975 C973 1.419 . S
C975 C976 1.363 . S
C975 H978 0.929 . S
C976 C975 1.363 . S
C976 C982 1.428 . S
H977 C973 0.930 . S
H978 C975 0.929 . S
S979 N980 1.613 . S
S979 N981 1.610 . S
N980 S979 1.613 . S
N980 C983 1.350 . S
N981 S979 1.610 . S
N981 C982 1.351 . S
C982 C976 1.428 . S
C982 N981 1.351 . S
C982 C983 1.434 . S
C983 C974 1.429 . S
C983 N980 1.350 . S
C983 C982 1.434 . S
C545 C33 1.582 . S
C547 C237 1.584 . S
C556 C271 1.585 . S
C558 C67 1.581 . S
C567 C169 1.581 . S
C569 C101 1.584 . S
C578 C203 1.581 . S
C580 C135 1.584 . S
C589 C305 1.582 . S
C591 C509 1.583 . S
C600 C339 1.585 . S
C602 C543 1.581 . S
C611 C373 1.581 . S
C613 C441 1.584 . S
C622 C475 1.584 . S
C624 C407 1.582 . S
C633 C5 1.470 . S
C635 C104 1.496 . S
C644 C39 1.476 . S
C646 C2 1.493 . S
C655 C36 1.494 . S
C657 C73 1.473 . S
C666 C107 1.475 . S
C668 C70 1.493 . S
C677 C172 1.494 . S
C679 C141 1.473 . S
C688 C206 1.497 . S
C690 C175 1.470 . S
C699 C240 1.496 . S
C701 C209 1.471 . S
C710 C138 1.496 . S
C712 C243 1.471 . S
C721 C277 1.468 . S
C723 C376 1.497 . S
C732 C274 1.497 . S
C734 C311 1.469 . S
C743 C345 1.471 . S
C745 C308 1.496 . S
C754 C379 1.474 . S
C756 C342 1.493 . S
C765 C413 1.473 . S
C767 C444 1.494 . S
C776 C447 1.472 . S
C778 C478 1.495 . S
C787 C481 1.473 . S
C789 C512 1.494 . S
C798 C410 1.492 . S
C800 C515 1.475 . S
C809 C530 1.864 . S
C811 C20 1.862 . S
C820 C54 1.863 . S
C822 C428 1.862 . S
C831 C462 1.862 . S
C833 C88 1.864 . S
C842 C122 1.863 . S
C844 C496 1.863 . S
C853 C326 1.862 . S
C855 C156 1.863 . S
C864 C190 1.863 . S
C866 C360 1.863 . S
C875 C224 1.864 . S
C877 C394 1.862 . S
C886 C292 1.863 . S
C888 C258 1.862 . S
C897 C145 1.183 1_655 S
C899 C383 1.190 . S
C908 C179 1.191 1_565 S
C910 C281 1.186 . S
C919 C213 1.191 . S
C921 C315 1.186 . S
C930 C349 1.183 . S
C932 C247 1.186 . S
C941 C9 1.182 1_655 S
C943 C451 1.188 . S
C952 C485 1.191 . S
C954 C43 1.185 1_565 S
C963 C77 1.189 . S
C965 C519 1.189 . S
C974 C111 1.183 . S
C976 C417 1.186 . S
