# Generated by pormake.
# Topology kag, (6)-cn, num edge types: 1
# Building blocks:
#     Node 0, Type 0, BuildingBlock: KUMBOL_clean_sbu_1, # of connection points: 6
#     Node 1, Type 0, BuildingBlock: KUMBOL_clean_sbu_1, # of connection points: 6
#     Node 2, Type 0, BuildingBlock: KUMBOL_clean_sbu_1, # of connection points: 6
#     Edge 3, Type (0, 0), BuildingBlock: UVAHIK_clean_linker_0, # of connection points: 2
#     Edge 4, Type (0, 0), BuildingBlock: UVAHIK_clean_linker_0, # of connection points: 2
#     Edge 5, Type (0, 0), BuildingBlock: UVAHIK_clean_linker_0, # of connection points: 2
#     Edge 6, Type (0, 0), BuildingBlock: UVAHIK_clean_linker_0, # of connection points: 2
#     Edge 7, Type (0, 0), BuildingBlock: UVAHIK_clean_linker_0, # of connection points: 2
#     Edge 8, Type (0, 0), BuildingBlock: UVAHIK_clean_linker_0, # of connection points: 2
#     Edge 9, Type (0, 0), BuildingBlock: UVAHIK_clean_linker_0, # of connection points: 2
#     Edge 10, Type (0, 0), BuildingBlock: UVAHIK_clean_linker_0, # of connection points: 2
#     Edge 11, Type (0, 0), BuildingBlock: UVAHIK_clean_linker_0, # of connection points: 2
# Relax obj value: 0.071
# Max RMSD: 0.167
# Mean RMSD: 0.110
data_MOF--net-kag--node1-KUMBOL_clean_sbu_1--edge1-UVAHIK_clean_linker_0
_symmetry_space_group_name_H-M    P1
_symmetry_Int_Tables_number       1
_symmetry_cell_setting            triclinic
loop_
_symmetry_equiv_pos_as_xyz
'x, y, z'
_cell_length_a     39.872103
_cell_length_b     49.188697
_cell_length_c     19.452153
_cell_angle_alpha  108.15355
_cell_angle_beta   96.29609
_cell_angle_gamma 103.20563
loop_
_atom_site_label
_atom_site_type_symbol
_atom_site_fract_x
_atom_site_fract_y
_atom_site_fract_z
_atom_type_partial_charge
C0 C 0.07063 0.41812 0.91969 0.0
C1 C 0.08426 0.40247 0.02322 0.0
C2 C 0.06528 0.41698 0.98798 0.0
C3 C 0.10978 0.39047 0.99025 0.0
C4 C 0.09497 0.40492 0.88466 0.0
C5 C 0.11508 0.39165 0.92104 0.0
N6 N 0.05125 0.43158 0.88658 0.0
C7 C 0.05258 0.43048 0.81595 0.0
C8 C 0.09782 0.40497 0.81354 0.0
C9 C 0.07616 0.41744 0.77863 0.0
Gd10 Gd 0.04646 0.54171 0.0431 0.0
Gd11 Gd 1.01255 0.45318 0.95247 0.0
N12 N 0.04 0.42838 0.01765 0.0
C13 C 0.07615 0.39954 0.0892 0.0
C14 C 0.03007 0.42333 0.07859 0.0
C15 C 0.04849 0.40954 0.11626 0.0
H16 H 1.00754 0.4294 0.09782 0.0
H17 H 0.04098 0.40622 0.16549 0.0
H18 H 1.01529 0.56137 0.90575 0.0
H19 H 0.03585 0.44019 0.78922 0.0
H20 H 0.97107 0.58672 0.87858 0.0
H21 H 0.09012 0.38856 0.11803 0.0
H22 H 0.12485 0.37951 0.01687 0.0
H23 H 0.05813 0.55609 0.22718 0.0
H24 H 0.11617 0.395 0.78467 0.0
H25 H 0.07771 0.41711 0.72319 0.0
H26 H 0.92371 0.61187 0.09954 0.0
H27 H 0.13423 0.38167 0.89546 0.0
H28 H 0.97677 0.59297 0.30684 0.0
H29 H 1.0277 0.57383 0.32865 0.0
N30 N 1.02179 0.56076 0.14612 0.0
C31 C 0.99558 0.57326 0.13428 0.0
C32 C 0.03455 0.56239 0.21574 0.0
C33 C 0.9893 0.58416 0.26144 0.0
C34 C 1.01794 0.57328 0.27392 0.0
C35 C 0.97841 0.58506 0.19149 0.0
H36 H 0.93821 0.60726 0.22094 0.0
N37 N 1.00471 0.56473 0.01227 0.0
C38 C 0.98736 0.57596 0.06593 0.0
C39 C 0.95572 0.59391 0.98429 0.0
C40 C 0.96185 0.59036 0.05287 0.0
C41 C 1.00008 0.56926 0.94654 0.0
C42 C 0.97522 0.58362 0.93123 0.0
O43 O 0.06928 0.47668 0.94968 0.0
O44 O 0.08623 0.51617 0.05822 0.0
O45 O 0.0844 0.56942 0.00317 0.0
O46 O 0.07823 0.58538 0.11642 0.0
O47 O 1.00872 0.4743 0.0715 0.0
O48 O 0.05662 0.51542 0.11633 0.0
O49 O 0.98783 0.51938 0.98793 0.0
O50 O 0.97557 0.47632 0.01332 0.0
O51 O 0.97701 0.40953 0.93358 0.0
O52 O 0.97419 0.43016 0.85088 0.0
O53 O 0.05047 0.52217 0.92414 0.0
O54 O 1.00375 0.47996 0.88039 0.0
C55 C 0.09425 0.49619 0.00452 0.0
C56 C 0.0336 0.49376 0.12586 0.0
C57 C 0.1352 0.59831 0.09237 0.0
C58 C 0.1934 0.62699 0.08976 0.0
C59 C 0.18723 0.59239 0.15676 0.0
C60 C 0.15072 0.58503 0.13665 0.0
C61 C 0.20852 0.61319 0.13341 0.0
C62 C 0.15657 0.61924 0.06916 0.0
C63 C 0.09687 0.5898 0.06808 0.0
C64 C 0.94369 0.60102 0.10875 0.0
C65 C 0.95189 0.59831 0.17783 0.0
H66 H 0.93638 0.60492 0.97216 0.0
C67 C 0.96523 0.49822 0.00099 0.0
C68 C 1.02729 0.50091 0.86965 0.0
C69 C 0.9204 0.40419 0.86989 0.0
C70 C 0.86454 0.37533 0.8843 0.0
C71 C 0.86725 0.41932 0.85039 0.0
C72 C 0.90321 0.4239 0.85252 0.0
C73 C 0.84797 0.39518 0.8657 0.0
C74 C 0.90092 0.38003 0.88595 0.0
C75 C 0.95868 0.40918 0.8735 0.0
H76 H 0.19906 0.58199 0.19068 0.0
H77 H 0.13461 0.56893 0.15541 0.0
H78 H 0.23676 0.61884 0.15053 0.0
H79 H 0.14448 0.62917 0.03422 0.0
H80 H 0.85426 0.43458 0.83684 0.0
H81 H 0.91748 0.44299 0.8409 0.0
H82 H 0.81998 0.392 0.86234 0.0
H83 H 0.91436 0.36533 0.90124 0.0
C84 C 0.62431 0.97442 0.05404 0.0
C85 C 0.63939 0.95109 0.93654 0.0
C86 C 0.623 0.97099 0.97986 0.0
C87 C 0.65557 0.93395 0.96765 0.0
C88 C 0.64093 0.95753 0.08568 0.0
C89 C 0.65631 0.93714 0.04194 0.0
N90 N 0.60832 0.99368 0.09479 0.0
C91 C 0.60908 0.998 0.1678 0.0
C92 C 0.64136 0.96149 0.16032 0.0
C93 C 0.6255 0.98191 0.2016 0.0
Gd94 Gd 0.47578 0.98348 0.96012 0.0
Gd95 Gd 0.58136 0.01953 0.03355 0.0
N96 N 0.60682 0.98771 0.9508 0.0
C97 C 0.63991 0.94957 0.8637 0.0
C98 C 0.61034 0.98824 0.88208 0.0
C99 C 0.62594 0.96865 0.8369 0.0
H100 H 0.60249 0.00436 0.86213 0.0
H101 H 0.62791 0.96879 0.78194 0.0
H102 H 0.45096 0.99559 0.12801 0.0
H103 H 0.59709 0.01395 0.19977 0.0
H104 H 0.41845 0.02627 0.20164 0.0
H105 H 0.65228 0.93462 0.82873 0.0
H106 H 0.66804 0.91844 0.93494 0.0
H107 H 0.46182 0.98907 0.79343 0.0
H108 H 0.65388 0.94892 0.18658 0.0
H109 H 0.62587 0.98523 0.25939 0.0
H110 H 0.37143 0.07078 0.04125 0.0
H111 H 0.66905 0.92386 0.06517 0.0
H112 H 0.39481 0.04592 0.79638 0.0
H113 H 0.42994 0.01479 0.72989 0.0
N114 N 0.44629 0.00663 0.89513 0.0
C115 C 0.42646 0.02297 0.93234 0.0
C116 C 0.44732 0.00322 0.82315 0.0
C117 C 0.409 0.03487 0.82457 0.0
C118 C 0.42892 0.01744 0.78692 0.0
C119 C 0.40744 0.03773 0.89798 0.0
H120 H 0.37322 0.0667 0.91264 0.0
N121 N 0.44466 0.01115 0.03769 0.0
C122 C 0.42605 0.02566 0.00574 0.0
C123 C 0.40402 0.0436 0.11744 0.0
C124 C 0.4057 0.04263 0.04533 0.0
C125 C 0.44051 0.01006 0.10573 0.0
C126 C 0.42101 0.02683 0.14723 0.0
O127 O 0.55626 0.97324 0.03434 0.0
O128 O 0.51363 0.95571 0.93146 0.0
O129 O 0.44155 0.9455 0.97662 0.0
O130 O 0.43158 0.95366 0.8746 0.0
O131 O 0.55767 0.01934 0.92166 0.0
O132 O 0.51034 0.97726 0.87535 0.0
O133 O 0.49775 0.03157 0.96707 0.0
O134 O 0.54632 0.05009 0.06107 0.0
O135 O 0.62121 0.05341 0.01434 0.0
O136 O 0.62485 0.04906 0.12151 0.0
O137 O 0.49921 0.98688 0.07546 0.0
O138 O 0.54744 0.02843 0.11894 0.0
C139 C 0.5336 0.9508 0.98181 0.0
C140 C 0.53397 0.99872 0.86627 0.0
C141 C 0.41911 0.90343 0.86693 0.0
C142 C 0.39771 0.85107 0.85412 0.0
C143 C 0.42615 0.86469 0.76056 0.0
C144 C 0.43059 0.89476 0.7996 0.0
C145 C 0.40982 0.84294 0.78745 0.0
C146 C 0.40277 0.8815 0.89384 0.0
C147 C 0.42368 0.93513 0.90926 0.0
C148 C 0.387 0.05754 0.0114 0.0
C149 C 0.38787 0.05511 0.93801 0.0
H150 H 0.38865 0.05635 0.14956 0.0
C151 C 0.52283 0.05401 0.01484 0.0
C152 C 0.5227 0.00827 0.12994 0.0
C153 C 0.64261 0.09774 0.11807 0.0
C154 C 0.66511 0.14804 0.11606 0.0
C155 C 0.63303 0.14005 0.21077 0.0
C156 C 0.62868 0.10948 0.18062 0.0
C157 C 0.65112 0.15923 0.17895 0.0
C158 C 0.66082 0.11715 0.08617 0.0
C159 C 0.63675 0.06529 0.08344 0.0
H160 H 0.43522 0.8582 0.70899 0.0
H161 H 0.44342 0.91117 0.77751 0.0
H162 H 0.40598 0.81974 0.75517 0.0
H163 H 0.39406 0.8882 0.94588 0.0
H164 H 0.62227 0.14891 0.25895 0.0
H165 H 0.61406 0.09508 0.20586 0.0
H166 H 0.65445 0.1829 0.20418 0.0
H167 H 0.67085 0.10802 0.03698 0.0
C168 C 0.62186 0.57966 0.12211 0.0
C169 C 0.66045 0.59004 0.03955 0.0
C170 C 0.62697 0.5779 0.05163 0.0
C171 C 0.68922 0.60249 0.09887 0.0
C172 C 0.65042 0.59349 0.1824 0.0
C173 C 0.68424 0.60411 0.1701 0.0
N174 N 0.58864 0.5699 0.13238 0.0
C175 C 0.58188 0.57629 0.20218 0.0
C176 C 0.64392 0.59739 0.25358 0.0
C177 C 0.6094 0.58927 0.26356 0.0
Gd178 Gd 0.51717 0.4573 0.96731 0.0
Gd179 Gd 0.54474 0.54693 0.02427 0.0
N180 N 0.5988 0.56514 0.99501 0.0
C181 C 0.66378 0.58999 0.96853 0.0
C182 C 0.60139 0.56641 0.92658 0.0
C183 C 0.634 0.57855 0.91208 0.0
H184 H 0.57828 0.55759 0.88317 0.0
H185 H 0.63618 0.57899 0.85744 0.0
H186 H 0.51574 0.44682 0.13065 0.0
H187 H 0.55526 0.57198 0.21117 0.0
H188 H 0.47173 0.43171 0.20102 0.0
H189 H 0.68904 0.59924 0.9571 0.0
H190 H 0.71526 0.6116 0.09058 0.0
H191 H 0.47506 0.43721 0.79417 0.0
H192 H 0.66514 0.60787 0.30132 0.0
H193 H 0.60389 0.59355 0.31862 0.0
H194 H 0.36234 0.39773 0.02873 0.0
H195 H 0.70653 0.61452 0.21568 0.0
H196 H 0.36633 0.39638 0.78213 0.0
H197 H 0.41453 0.41281 0.72131 0.0
N198 N 0.46069 0.43511 0.89473 0.0
C199 C 0.43501 0.42496 0.9285 0.0
C200 C 0.45404 0.43019 0.8209 0.0
C201 C 0.39278 0.40697 0.81415 0.0
C202 C 0.4199 0.4163 0.77964 0.0
C203 C 0.40017 0.41111 0.8894 0.0
H204 H 0.34696 0.39141 0.89758 0.0
N205 N 0.47796 0.44098 0.03763 0.0
C206 C 0.44377 0.42866 0.00255 0.0
C207 C 0.42787 0.42056 0.11239 0.0
C208 C 0.41774 0.41839 0.03924 0.0
C209 C 0.48828 0.44068 0.10653 0.0
C210 C 0.4634 0.43126 0.14571 0.0
O211 O 0.58387 0.52079 0.98013 0.0
O212 O 0.57419 0.48209 0.02373 0.0
O213 O 0.51985 0.41418 0.97534 0.0
O214 O 0.53546 0.42681 0.88285 0.0
O215 O 0.51674 0.51875 0.90787 0.0
O216 O 0.53391 0.47548 0.87897 0.0
O217 O 0.47461 0.481 0.95067 0.0
O218 O 0.49099 0.52638 0.04475 0.0
O219 O 0.52403 0.57101 0.96124 0.0
O220 O 0.54409 0.59291 0.07782 0.0
O221 O 0.54497 0.48527 0.08468 0.0
O222 O 0.5258 0.52748 0.10923 0.0
C223 C 0.59555 0.50134 0.00273 0.0
C224 C 0.52597 0.49732 0.86116 0.0
C225 C 0.54035 0.37818 0.88247 0.0
C226 C 0.54765 0.3305 0.88735 0.0
C227 C 0.5632 0.34685 0.78641 0.0
C228 C 0.55324 0.37275 0.81648 0.0
C229 C 0.56068 0.32599 0.82167 0.0
C230 C 0.53712 0.35663 0.91748 0.0
C231 C 0.53172 0.40682 0.91448 0.0
C232 C 0.38272 0.4055 0.00123 0.0
C233 C 0.37397 0.4018 0.92645 0.0
H234 H 0.40868 0.41294 0.14254 0.0
C235 C 0.46628 0.50287 -0.00102 0.0
C236 C 0.53643 0.50742 0.13059 0.0
C237 C 0.50181 0.61069 0.0222 0.0
C238 C 0.48176 0.65375 0.01688 0.0
C239 C 0.4414 0.61063 0.02828 0.0
C240 C 0.46806 0.59649 0.02796 0.0
C241 C 0.44807 0.63893 0.02245 0.0
C242 C 0.50866 0.6394 0.01731 0.0
C243 C 0.52969 0.59536 0.01757 0.0
H244 H 0.57318 0.34301 0.73568 0.0
H245 H 0.55596 0.38868 0.78815 0.0
H246 H 0.56873 0.30608 0.79727 0.0
H247 H 0.52732 0.36041 0.96846 0.0
H248 H 0.41537 0.59954 0.03266 0.0
H249 H 0.4623 0.57441 0.0315 0.0
H250 H 0.4269 0.64938 0.02304 0.0
H251 H 0.53467 0.65022 0.01196 0.0
C252 C 0.99928 0.48241 0.73587 0.0
C253 C 1.0277 0.50058 0.7935 0.0
C254 C 1.00012 0.48148 0.66357 0.0
C255 C 0.04628 0.52274 0.5547 0.0
H256 H 1.00625 0.44751 0.39351 0.0
C257 C 0.06479 0.50627 0.2554 0.0
C258 C 0.03401 0.49263 0.20098 0.0
C259 C 0.06453 0.5067 0.3275 0.0
C260 C 1.01735 0.46869 0.438 0.0
H261 H 0.07939 0.5319 0.82043 0.0
H262 H 0.08123 0.52976 0.69428 0.0
H263 H 1.00481 0.44965 0.52008 0.0
H264 H 0.97904 0.46811 0.17886 0.0
H265 H 0.97882 0.46831 0.30446 0.0
H266 H 0.0593 0.54157 0.47222 0.0
C267 C 0.0579 0.51673 0.70497 0.0
C268 C 1.0164 0.46999 0.51052 0.0
C269 C 0.05692 0.51787 0.77736 0.0
C270 C 1.00324 0.47865 0.21952 0.0
C271 C 1.00309 0.47877 0.29136 0.0
C272 C 0.04754 0.52136 0.48222 0.0
C273 C 0.02954 0.49848 0.64708 0.0
C274 C 0.03073 0.49706 0.56983 0.0
C275 C 0.03362 0.4931 0.34625 0.0
C276 C 0.03298 0.49435 0.42318 0.0
H277 H 0.97628 0.46893 0.74654 0.0
H278 H 0.97752 0.4676 0.62072 0.0
H279 H 0.05701 0.54408 0.59873 0.0
H280 H 0.08899 0.51692 0.24244 0.0
H281 H 0.08854 0.5176 0.36859 0.0
C282 C 0.50503 0.98249 0.21839 0.0
C283 C 0.5229 0.00821 0.20617 0.0
C284 C 0.5066 0.98177 0.28991 0.0
C285 C 0.52598 0.03003 0.48609 0.0
H286 H 0.53819 0.95916 0.52119 0.0
C287 C 0.55208 0.02568 0.78027 0.0
C288 C 0.53449 -0.00051 0.79076 0.0
C289 C 0.55146 0.02685 0.70923 0.0
C290 C 0.53439 0.979 0.51226 0.0
H291 H 0.55611 0.05348 0.25978 0.0
H292 H 0.55894 0.05218 0.38472 0.0
H293 H 0.535 0.96122 0.39712 0.0
H294 H 0.50303 0.95378 0.7347 0.0
H295 H 0.50154 0.95591 0.61089 0.0
H296 H 0.52517 0.04775 0.60115 0.0
C297 C 0.54348 0.03264 0.33892 0.0
C298 C 0.53256 0.98018 0.44107 0.0
C299 C 0.54199 0.03333 0.26729 0.0
C300 C 0.51677 0.97433 0.72854 0.0
C301 C 0.51612 0.9755 0.65749 0.0
C302 C 0.52774 0.02883 0.55729 0.0
C303 C 0.52601 0.00676 0.35106 0.0
C304 C 0.52824 0.00567 0.42705 0.0
C305 C 0.53328 0.00183 0.64692 0.0
C306 C 0.5319 0.00327 0.57128 0.0
H307 H 0.49021 0.96268 0.17257 0.0
H308 H 0.49245 0.96162 0.29732 0.0
H309 H 0.52218 0.04985 0.47704 0.0
H310 H 0.56599 0.04547 0.82704 0.0
H311 H 0.5654 0.04735 0.70314 0.0
C312 C 0.51032 0.51613 0.75974 0.0
C313 C 0.52652 0.49758 0.78534 0.0
C314 C 0.51171 0.51731 0.68925 0.0
C315 C 0.56371 0.50538 0.54427 0.0
H316 H 0.47942 0.50166 0.41743 0.0
C317 C 0.55972 0.49545 0.23924 0.0
C318 C 0.53803 0.50922 0.20838 0.0
C319 C 0.55918 0.49492 0.31052 0.0
C320 C 0.50337 0.50325 0.45248 0.0
H321 H 0.55697 0.46579 0.75687 0.0
H322 H 0.55965 0.4681 0.63363 0.0
H323 H 0.47634 0.4983 0.53906 0.0
H324 H 0.49985 0.53435 0.22922 0.0
H325 H 0.49984 0.53449 0.35474 0.0
H326 H 0.59098 0.51093 0.45864 0.0
C327 C 0.54584 0.48166 0.66837 0.0
C328 C 0.50152 0.50115 0.52208 0.0
C329 C 0.54409 0.48019 0.73868 0.0
C330 C 0.51681 0.5235 0.25144 0.0
C331 C 0.51651 0.52324 0.3231 0.0
C332 C 0.56567 0.50781 0.47494 0.0
C333 C 0.52966 0.50025 0.64295 0.0
C334 C 0.53164 0.50212 0.56866 0.0
C335 C 0.53729 0.50853 0.35323 0.0
C336 C 0.53549 0.50671 0.42797 0.0
H337 H 0.49657 0.52985 0.79421 0.0
H338 H 0.49926 0.53204 0.67147 0.0
H339 H 0.58746 0.50661 0.57941 0.0
H340 H 0.57655 0.48442 0.20754 0.0
H341 H 0.57527 0.4831 0.33125 0.0
C342 C 0.15849 0.51132 0.06897 0.0
C343 C 0.13237 0.49645 0.00439 0.0
C344 C 0.19413 0.51204 0.06853 0.0
C345 C 0.25331 0.47364 0.95898 0.0
H346 H 0.32669 0.54488 0.07858 0.0
C347 C 0.40145 0.48484 0.93688 0.0
C348 C 0.42808 0.50209 -0.00066 0.0
C349 C 0.36581 0.48402 0.93756 0.0
C350 C 0.30682 0.5245 0.04545 0.0
H351 H 0.12445 0.47092 0.88822 0.0
H352 H 0.1858 0.47137 0.88749 0.0
H353 H 0.26531 0.5435 0.08017 0.0
H354 H 0.43718 0.5324 0.11177 0.0
H355 H 0.37567 0.53084 0.11369 0.0
H356 H 0.29467 0.45446 0.92482 0.0
C357 C 0.17886 0.48247 0.93913 0.0
C358 C 0.27119 0.52374 0.0463 0.0
C359 C 0.14332 0.48209 0.9395 0.0
C360 C 0.4177 0.51883 0.06234 0.0
C361 C 0.38207 0.51802 0.06319 0.0
C362 C 0.28895 0.47432 0.95847 0.0
C363 C 0.20515 0.49758 0.00358 0.0
C364 C 0.2436 0.49832 0.00299 0.0
C365 C 0.35518 0.50058 0.00081 0.0
C366 C 0.31662 0.49979 0.00159 0.0
H367 H 0.15137 0.52224 0.1205 0.0
H368 H 0.21301 0.5236 0.11982 0.0
H369 H 0.2333 0.45338 0.92555 0.0
H370 H 0.40823 0.47231 0.88655 0.0
H371 H 0.34667 0.47074 0.88749 0.0
C372 C 0.71451 0.16443 0.05489 0.0
C373 C 0.68414 0.16865 0.08215 0.0
C374 C 0.73322 0.18459 0.02607 0.0
C375 C 0.7266 0.2471 0.9598 0.0
H376 H 0.82837 0.26772 0.00473 0.0
C377 C 0.81623 0.35348 0.94084 0.0
C378 C 0.84391 0.35007 0.90271 0.0
C379 C 0.79641 0.32977 0.95712 0.0
C380 C 0.79997 0.26194 0.99119 0.0
H381 H 0.64891 0.19684 0.09761 0.0
H382 H 0.68227 0.23263 0.05083 0.0
H383 H 0.79403 0.22913 0.04296 0.0
H384 H 0.87221 0.31871 0.85191 0.0
H385 H 0.83828 0.27767 0.88306 0.0
H386 H 0.73286 0.28093 0.91076 0.0
C387 C 0.69144 0.2135 0.05039 0.0
C388 C 0.78021 0.23973 0.01273 0.0
C389 C 0.67256 0.19318 0.07844 0.0
C390 C 0.85151 0.32238 0.8823 0.0
C391 C 0.83198 0.29878 0.8997 0.0
C392 C 0.74638 0.2696 0.93929 0.0
C393 C 0.72222 0.20964 0.02436 0.0
C394 C 0.74324 0.23216 -0.00214 0.0
C395 C 0.80411 0.30223 0.9368 0.0
C396 C 0.78323 0.27737 0.95528 0.0
H397 H 0.72433 0.14589 0.05726 0.0
H398 H 0.75641 0.18056 0.00539 0.0
H399 H 0.69824 0.24148 0.94587 0.0
H400 H 0.81007 0.3746 0.95911 0.0
H401 H 0.77539 0.33314 0.98683 0.0
C402 C 0.54734 0.91503 0.04202 0.0
C403 C 0.52927 0.91996 0.98267 0.0
C404 C 0.54301 0.88617 0.04369 0.0
C405 C 0.48068 0.81222 0.97957 0.0
H406 H 0.56161 0.78387 0.01585 0.0
C407 C 0.46433 0.68993 0.96227 0.0
C408 C 0.48841 0.6839 0.01006 0.0
C409 C 0.46978 0.71839 0.95735 0.0
C410 C 0.53862 0.79144 0.00675 0.0
H411 H 0.49295 0.89806 0.87812 0.0
H412 H 0.48374 0.84775 0.88283 0.0
H413 H 0.57003 0.83399 0.01152 0.0
H414 H 0.53712 0.70333 0.09046 0.0
H415 H 0.54625 0.75313 0.08373 0.0
H416 H 0.4491 0.77031 0.97704 0.0
C417 C 0.50156 0.86634 0.92775 0.0
C418 C 0.54354 0.8202 0.00386 0.0
C419 C 0.50663 0.89518 0.92522 0.0
C420 C 0.51825 0.7071 0.05248 0.0
C421 C 0.5235 0.73572 0.04831 0.0
C422 C 0.47571 0.78359 0.98336 0.0
C423 C 0.51984 0.86149 0.98693 0.0
C424 C 0.51462 0.83087 0.98985 0.0
C425 C 0.4993 0.7419 0.00077 0.0
C426 C 0.50461 0.77263 -0.00319 0.0
H427 H 0.56457 0.93349 0.08787 0.0
H428 H 0.55724 0.88321 0.09034 0.0
H429 H 0.45797 0.8201 0.97033 0.0
H430 H 0.44131 0.67248 0.92798 0.0
H431 H 0.45087 0.7218 0.91877 0.0
C432 C 0.91198 0.51561 0.96737 0.0
C433 C 0.92722 0.49838 0.00033 0.0
C434 C 0.87649 0.51564 0.96708 0.0
C435 C 0.80057 0.4965 0.06031 0.0
H436 H 0.74476 0.5017 0.89147 0.0
C437 C 0.64932 0.48539 0.04102 0.0
C438 C 0.63329 0.50038 0.00188 0.0
C439 C 0.68465 0.48484 0.0406 0.0
C440 C 0.75979 0.50071 0.93999 0.0
H441 H 0.91573 0.46693 0.05742 0.0
H442 H 0.85435 0.46679 0.05663 0.0
H443 H 0.80581 0.50171 0.89151 0.0
H444 H 0.64252 0.52529 0.92859 0.0
H445 H 0.70377 0.52589 0.9307 0.0
H446 H 0.75487 0.49592 0.10942 0.0
C447 C 0.86995 0.48088 0.03202 0.0
C448 C 0.79524 0.50063 0.93983 0.0
C449 C 0.90538 0.4808 0.03204 0.0
C450 C 0.65387 0.51434 0.96141 0.0
C451 C 0.68923 0.5141 0.96148 0.0
C452 C 0.7652 0.4968 0.06076 0.0
C453 C 0.85469 0.49836 -0.00029 0.0
C454 C 0.81645 0.4985 -6e-05 0.0
C455 C 0.70558 0.49931 0.00102 0.0
C456 C 0.74386 0.4989 0.00058 0.0
H457 H 0.92738 0.52888 0.94078 0.0
H458 H 0.86629 0.5296 0.94184 0.0
H459 H 0.81572 0.49527 0.10841 0.0
H460 H 0.63455 0.47406 0.07247 0.0
H461 H 0.69531 0.47261 0.07081 0.0
C462 C 0.20663 0.67576 0.06893 0.0
C463 C 0.21587 0.64959 0.06617 0.0
C464 C 0.22739 0.69696 0.04603 0.0
C465 C 0.31628 0.72288 0.01113 0.0
H466 H 0.2694 0.76078 0.89818 0.0
C467 C 0.3896 0.8021 0.87453 0.0
C468 C 0.37867 0.82786 0.88075 0.0
C469 C 0.37091 0.77994 0.89771 0.0
C470 C 0.2829 0.75061 0.93029 0.0
H471 H 0.25414 0.62512 0.03713 0.0
H472 H 0.29041 0.66217 -0.00332 0.0
H473 H 0.2346 0.72271 0.93691 0.0
H474 H 0.33927 0.85033 0.91553 0.0
H475 H 0.30698 0.81194 0.95657 0.0
H476 H 0.36465 0.75088 0.00409 0.0
C477 C 0.26732 0.66644 0.01751 0.0
C478 C 0.26295 0.72881 0.95254 0.0
C479 C 0.24655 0.64522 0.04061 0.0
C480 C 0.34872 0.83099 0.91088 0.0
C481 C 0.32995 0.80881 0.93358 0.0
C482 C 0.33629 0.74471 0.98865 0.0
C483 C 0.25785 0.69248 0.0196 0.0
C484 C 0.27936 0.71489 0.99387 0.0
C485 C 0.34065 0.78294 0.92675 0.0
C486 C 0.31976 0.75902 0.94866 0.0
H487 H 0.18351 0.68004 0.08964 0.0
H488 H 0.21973 0.71705 0.04977 0.0
H489 H 0.32972 0.71278 0.04348 0.0
H490 H 0.41268 0.79908 0.85192 0.0
H491 H 0.37971 0.76019 0.89144 0.0
C492 C 0.5135 0.29058 0.92849 0.0
C493 C 0.54588 0.30754 0.92281 0.0
C494 C 0.51155 0.26521 0.94847 0.0
C495 C 0.56276 0.21046 0.95141 0.0
H496 H 0.49237 0.18149 0.05354 0.0
C497 C 0.5587 0.10505 0.02771 0.0
C498 C 0.5256 0.08473 0.0148 0.0
C499 C 0.56179 0.13345 0.02359 0.0
C500 C 0.51207 0.18917 0.02453 0.0
H501 H 0.60176 0.31236 0.93755 0.0
H502 H 0.59879 0.26927 0.97561 0.0
H503 H 0.49679 0.22921 0.03637 0.0
H504 H 0.46974 0.07894 0.98974 0.0
H505 H 0.47473 0.12806 0.9813 0.0
H506 H 0.5781 0.17053 0.93979 0.0
C507 C 0.57459 0.27462 0.96224 0.0
C508 C 0.51458 0.21659 0.01449 0.0
C509 C 0.57643 0.29963 0.94138 0.0
C510 C 0.49557 0.09374 -0.00112 0.0
C511 C 0.49851 0.12218 0.99507 0.0
C512 C 0.56042 0.18323 0.96196 0.0
C513 C 0.54202 0.25639 0.96383 0.0
C514 C 0.53987 0.22763 0.97741 0.0
C515 C 0.5317 0.14236 0.00657 0.0
C516 C 0.53491 0.17206 -0.00178 0.0
H517 H 0.4895 0.29596 0.91351 0.0
H518 H 0.48592 0.25178 0.94841 0.0
H519 H 0.58207 0.21761 0.92104 0.0
H520 H 0.58228 0.09862 0.03863 0.0
H521 H 0.5878 0.14839 0.03345 0.0
loop_
_geom_bond_atom_site_label_1
_geom_bond_atom_site_label_2
_geom_bond_distance
_geom_bond_site_symmetry_2
_ccdc_geom_bond_type
C0 C2 1.422 . S
C0 C4 1.415 . S
C0 N6 1.356 1_455 S
C1 C2 1.421 . S
C1 C3 1.417 . S
C1 C13 1.422 1_556 S
C2 C0 1.422 . S
C2 C1 1.421 . S
C2 N12 1.359 . S
C3 C1 1.417 . S
C3 C5 1.329 . S
C3 H22 0.930 . S
C4 C0 1.415 . S
C4 C5 1.437 . S
C4 C8 1.413 . S
C5 C3 1.329 . S
C5 C4 1.437 . S
C5 H27 0.929 . S
N6 C0 1.356 1_655 S
N6 C7 1.340 . S
N6 Gd11 2.631 . S
C7 N6 1.340 . S
C7 C9 1.378 1_655 S
C7 H19 0.929 . S
C8 C4 1.413 . S
C8 C9 1.348 . S
C8 H24 0.931 . S
C9 C7 1.378 1_455 S
C9 C8 1.348 . S
C9 H25 0.930 1_455 S
Gd10 N30 2.636 . S
Gd10 N37 2.570 1_455 S
Gd10 O44 2.353 . S
Gd10 O45 2.468 1_554 S
Gd10 O46 2.427 . S
Gd10 O48 2.388 . S
Gd10 O49 2.386 1_455 S
Gd10 O53 2.307 1_554 S
Gd10 C63 2.805 . S
Gd11 N6 2.631 . S
Gd11 N12 2.570 1_655 S
Gd11 O43 2.386 1_655 S
Gd11 O47 2.307 1_656 S
Gd11 O50 2.353 . S
Gd11 O51 2.468 1_556 S
Gd11 O52 2.427 . S
Gd11 O54 2.388 . S
Gd11 C75 2.805 . S
N12 C2 1.359 . S
N12 Gd11 2.570 1_455 S
N12 C14 1.343 1_556 S
C13 C1 1.422 1_554 S
C13 C15 1.321 . S
C13 H21 0.931 . S
C14 N12 1.343 1_554 S
C14 C15 1.390 . S
C14 H16 0.931 . S
C15 C13 1.321 . S
C15 C14 1.390 . S
C15 H17 0.930 . S
H16 C14 0.931 . S
H17 C15 0.930 . S
H18 C41 0.931 . S
H19 C7 0.929 . S
H20 C42 0.930 . S
H21 C13 0.931 . S
H22 C3 0.930 . S
H23 C32 0.929 . S
H24 C8 0.931 . S
H25 C9 0.930 1_655 S
H26 C64 0.930 . S
H27 C5 0.929 . S
H28 C33 0.931 . S
H29 C34 0.930 1_455 S
N30 Gd10 2.636 . S
N30 C31 1.350 1_455 S
N30 C32 1.341 . S
C31 N30 1.350 1_655 S
C31 C35 1.415 . S
C31 C38 1.422 . S
C32 H23 0.929 . S
C32 N30 1.341 . S
C32 C34 1.378 1_455 S
C33 H28 0.931 . S
C33 C34 1.348 . S
C33 C35 1.413 . S
C34 H29 0.930 1_655 S
C34 C32 1.378 1_655 S
C34 C33 1.348 . S
C35 C31 1.415 . S
C35 C33 1.413 . S
C35 C65 1.437 . S
H36 C65 0.929 . S
N37 Gd10 2.570 1_655 S
N37 C38 1.359 . S
N37 C41 1.343 1_554 S
C38 C31 1.422 . S
C38 N37 1.359 . S
C38 C40 1.421 . S
C39 C40 1.422 1_556 S
C39 C42 1.321 . S
C39 H66 0.931 . S
C40 C38 1.421 . S
C40 C39 1.422 1_554 S
C40 C64 1.417 . S
C41 H18 0.931 . S
C41 N37 1.343 1_556 S
C41 C42 1.390 . S
C42 H20 0.930 . S
C42 C39 1.321 . S
C42 C41 1.390 . S
O43 Gd11 2.386 1_455 S
O43 C55 1.262 1_556 S
O44 Gd10 2.353 . S
O44 C55 1.244 . S
O45 Gd10 2.468 1_556 S
O45 C63 1.263 1_556 S
O46 Gd10 2.427 . S
O46 C63 1.252 . S
O47 Gd11 2.307 1_454 S
O47 C56 1.261 . S
O48 Gd10 2.388 . S
O48 C56 1.252 . S
O49 Gd10 2.386 1_655 S
O49 C67 1.263 1_554 S
O50 Gd11 2.353 . S
O50 C67 1.243 . S
O51 Gd11 2.468 1_554 S
O51 C75 1.263 1_554 S
O52 Gd11 2.427 . S
O52 C75 1.252 . S
O53 Gd10 2.307 1_556 S
O53 C68 1.261 1_455 S
O54 Gd11 2.388 . S
O54 C68 1.252 . S
C55 O43 1.262 1_554 S
C55 O44 1.244 . S
C56 O47 1.261 . S
C56 O48 1.252 . S
C57 C60 1.394 . S
C57 C62 1.370 . S
C57 C63 1.500 . S
C58 C61 1.383 . S
C58 C62 1.395 . S
C59 C60 1.396 . S
C59 C61 1.365 . S
C59 H76 0.929 . S
C60 C57 1.394 . S
C60 C59 1.396 . S
C60 H77 0.930 . S
C61 C58 1.383 . S
C61 C59 1.365 . S
C61 H78 0.931 . S
C62 C57 1.370 . S
C62 C58 1.395 . S
C62 H79 0.930 1_554 S
C63 Gd10 2.805 . S
C63 O45 1.263 1_554 S
C63 O46 1.252 . S
C63 C57 1.500 . S
C64 H26 0.930 . S
C64 C40 1.417 . S
C64 C65 1.329 . S
C65 C35 1.437 . S
C65 H36 0.929 . S
C65 C64 1.329 . S
H66 C39 0.931 . S
C67 O49 1.263 1_556 S
C67 O50 1.243 . S
C68 O53 1.261 1_655 S
C68 O54 1.252 . S
C69 C72 1.394 . S
C69 C74 1.370 . S
C69 C75 1.500 . S
C70 C73 1.383 . S
C70 C74 1.395 . S
C71 C72 1.396 . S
C71 C73 1.365 . S
C71 H80 0.929 . S
C72 C69 1.394 . S
C72 C71 1.396 . S
C72 H81 0.930 . S
C73 C70 1.383 . S
C73 C71 1.365 . S
C73 H82 0.931 . S
C74 C69 1.370 . S
C74 C70 1.395 . S
C74 H83 0.930 1_556 S
C75 Gd11 2.805 . S
C75 O51 1.263 1_556 S
C75 O52 1.252 . S
C75 C69 1.500 . S
H76 C59 0.929 . S
H77 C60 0.930 . S
H78 C61 0.931 . S
H79 C62 0.930 1_556 S
H80 C71 0.929 . S
H81 C72 0.930 . S
H82 C73 0.931 . S
H83 C74 0.930 1_554 S
C84 C86 1.422 . S
C84 C88 1.415 . S
C84 N90 1.369 1_565 S
C85 C86 1.421 1_556 S
C85 C87 1.417 1_556 S
C85 C97 1.422 . S
C86 C84 1.422 . S
C86 C85 1.421 1_554 S
C86 N96 1.359 1_554 S
C87 C85 1.417 1_554 S
C87 C89 1.329 . S
C87 H106 0.930 . S
C88 C84 1.415 . S
C88 C89 1.437 . S
C88 C92 1.413 . S
C89 C87 1.329 . S
C89 C88 1.437 . S
C89 H111 0.929 . S
N90 C84 1.369 1_545 S
N90 C91 1.338 . S
N90 Gd95 2.622 . S
C91 N90 1.338 . S
C91 C93 1.378 . S
C91 H103 0.929 . S
C92 C88 1.413 . S
C92 C93 1.348 1_565 S
C92 H108 0.931 . S
C93 C91 1.378 . S
C93 C92 1.348 1_545 S
C93 H109 0.930 . S
Gd94 N114 2.622 . S
Gd94 N121 2.570 1_566 S
Gd94 O128 2.353 . S
Gd94 O129 2.468 1_556 S
Gd94 O130 2.427 . S
Gd94 O132 2.388 . S
Gd94 O133 2.386 1_565 S
Gd94 O137 2.307 1_566 S
Gd94 C147 2.805 . S
Gd95 N90 2.622 . S
Gd95 N96 2.570 1_544 S
Gd95 O127 2.386 1_545 S
Gd95 O131 2.307 1_544 S
Gd95 O134 2.353 . S
Gd95 O135 2.468 1_554 S
Gd95 O136 2.427 . S
Gd95 O138 2.388 . S
Gd95 C159 2.805 . S
N96 C86 1.359 1_556 S
N96 Gd95 2.570 1_566 S
N96 C98 1.343 . S
C97 C85 1.422 . S
C97 C99 1.321 . S
C97 H105 0.931 . S
C98 N96 1.343 . S
C98 C99 1.390 . S
C98 H100 0.931 . S
C99 C97 1.321 . S
C99 C98 1.390 . S
C99 H101 0.930 . S
H100 C98 0.931 . S
H101 C99 0.930 . S
H102 C125 0.931 . S
H103 C91 0.929 . S
H104 C126 0.930 . S
H105 C97 0.931 . S
H106 C87 0.930 . S
H107 C116 0.929 . S
H108 C92 0.931 . S
H109 C93 0.930 . S
H110 C148 0.930 . S
H111 C89 0.929 . S
H112 C117 0.931 . S
H113 C118 0.930 . S
N114 Gd94 2.622 . S
N114 C115 1.369 1_565 S
N114 C116 1.338 . S
C115 N114 1.369 1_545 S
C115 C119 1.415 . S
C115 C122 1.422 . S
C116 H107 0.929 . S
C116 N114 1.338 . S
C116 C118 1.378 . S
C117 H112 0.931 . S
C117 C118 1.348 1_545 S
C117 C119 1.413 . S
C118 H113 0.930 . S
C118 C116 1.378 . S
C118 C117 1.348 1_565 S
C119 C115 1.415 . S
C119 C117 1.413 . S
C119 C149 1.437 . S
H120 C149 0.929 . S
N121 Gd94 2.570 1_544 S
N121 C122 1.359 1_554 S
N121 C125 1.343 . S
C122 C115 1.422 . S
C122 N121 1.359 1_556 S
C122 C124 1.421 1_556 S
C123 C124 1.422 . S
C123 C126 1.321 . S
C123 H150 0.931 . S
C124 C122 1.421 1_554 S
C124 C123 1.422 . S
C124 C148 1.417 1_554 S
C125 H102 0.931 . S
C125 N121 1.343 . S
C125 C126 1.390 . S
C126 H104 0.930 . S
C126 C123 1.321 . S
C126 C125 1.390 . S
O127 Gd95 2.386 1_565 S
O127 C139 1.265 1_554 S
O128 Gd94 2.353 . S
O128 C139 1.242 . S
O129 Gd94 2.468 1_554 S
O129 C147 1.263 1_554 S
O130 Gd94 2.427 . S
O130 C147 1.252 . S
O131 Gd95 2.307 1_566 S
O131 C140 1.257 . S
O132 Gd94 2.388 . S
O132 C140 1.252 . S
O133 Gd94 2.386 1_545 S
O133 C151 1.265 1_556 S
O134 Gd95 2.353 . S
O134 C151 1.242 . S
O135 Gd95 2.468 1_556 S
O135 C159 1.263 1_556 S
O136 Gd95 2.427 . S
O136 C159 1.252 . S
O137 Gd94 2.307 1_544 S
O137 C152 1.261 . S
O138 Gd95 2.388 . S
O138 C152 1.252 . S
C139 O127 1.265 1_556 S
C139 O128 1.242 . S
C140 O131 1.257 . S
C140 O132 1.252 . S
C141 C144 1.394 . S
C141 C146 1.370 1_556 S
C141 C147 1.500 . S
C142 C145 1.383 1_554 S
C142 C146 1.395 . S
C143 C144 1.396 . S
C143 C145 1.365 . S
C143 H160 0.929 . S
C144 C141 1.394 . S
C144 C143 1.396 . S
C144 H161 0.930 . S
C145 C142 1.383 1_556 S
C145 C143 1.365 . S
C145 H162 0.931 . S
C146 C141 1.370 1_554 S
C146 C142 1.395 . S
C146 H163 0.930 . S
C147 Gd94 2.805 . S
C147 O129 1.263 1_556 S
C147 O130 1.252 . S
C147 C141 1.500 . S
C148 H110 0.930 . S
C148 C124 1.417 1_556 S
C148 C149 1.329 . S
C149 C119 1.437 . S
C149 H120 0.929 . S
C149 C148 1.329 . S
H150 C123 0.931 . S
C151 O133 1.265 1_554 S
C151 O134 1.242 . S
C152 O137 1.261 . S
C152 O138 1.252 . S
C153 C156 1.394 . S
C153 C158 1.370 1_554 S
C153 C159 1.500 . S
C154 C157 1.383 1_556 S
C154 C158 1.395 . S
C155 C156 1.396 . S
C155 C157 1.365 . S
C155 H164 0.929 . S
C156 C153 1.394 . S
C156 C155 1.396 . S
C156 H165 0.930 . S
C157 C154 1.383 1_554 S
C157 C155 1.365 . S
C157 H166 0.931 . S
C158 C153 1.370 1_556 S
C158 C154 1.395 . S
C158 H167 0.930 . S
C159 Gd95 2.805 . S
C159 O135 1.263 1_554 S
C159 O136 1.252 . S
C159 C153 1.500 . S
H160 C143 0.929 . S
H161 C144 0.930 . S
H162 C145 0.931 . S
H163 C146 0.930 . S
H164 C155 0.929 . S
H165 C156 0.930 . S
H166 C157 0.931 . S
H167 C158 0.930 . S
C168 C170 1.422 . S
C168 C172 1.415 . S
C168 N174 1.369 . S
C169 C170 1.421 . S
C169 C171 1.417 . S
C169 C181 1.422 1_554 S
C170 C168 1.422 . S
C170 C169 1.421 . S
C170 N180 1.359 . S
C171 C169 1.417 . S
C171 C173 1.329 . S
C171 H190 0.930 . S
C172 C168 1.415 . S
C172 C173 1.437 . S
C172 C176 1.413 . S
C173 C171 1.329 . S
C173 C172 1.437 . S
C173 H195 0.929 . S
N174 C168 1.369 . S
N174 C175 1.338 . S
N174 Gd179 2.622 . S
C175 N174 1.338 . S
C175 C177 1.378 . S
C175 H187 0.929 . S
C176 C172 1.413 . S
C176 C177 1.348 . S
C176 H192 0.931 . S
C177 C175 1.378 . S
C177 C176 1.348 . S
C177 H193 0.930 . S
Gd178 N198 2.622 . S
Gd178 N205 2.570 . S
Gd178 O212 2.353 . S
Gd178 O213 2.468 1_556 S
Gd178 O214 2.427 . S
Gd178 O216 2.388 . S
Gd178 O217 2.386 . S
Gd178 O221 2.307 1_556 S
Gd178 C231 2.805 . S
Gd179 N174 2.622 . S
Gd179 N180 2.570 . S
Gd179 O211 2.386 . S
Gd179 O215 2.307 1_554 S
Gd179 O218 2.353 . S
Gd179 O219 2.468 1_554 S
Gd179 O220 2.427 . S
Gd179 O222 2.388 . S
Gd179 C243 2.805 . S
N180 C170 1.359 . S
N180 Gd179 2.570 . S
N180 C182 1.343 1_554 S
C181 C169 1.422 1_556 S
C181 C183 1.321 . S
C181 H189 0.931 . S
C182 N180 1.343 1_556 S
C182 C183 1.390 . S
C182 H184 0.931 . S
C183 C181 1.321 . S
C183 C182 1.390 . S
C183 H185 0.930 . S
H184 C182 0.931 . S
H185 C183 0.930 . S
H186 C209 0.931 . S
H187 C175 0.929 . S
H188 C210 0.930 . S
H189 C181 0.931 . S
H190 C171 0.930 . S
H191 C200 0.929 . S
H192 C176 0.931 . S
H193 C177 0.930 . S
H194 C232 0.930 . S
H195 C173 0.929 . S
H196 C201 0.931 . S
H197 C202 0.930 . S
N198 Gd178 2.622 . S
N198 C199 1.369 . S
N198 C200 1.338 . S
C199 N198 1.369 . S
C199 C203 1.415 . S
C199 C206 1.422 . S
C200 H191 0.929 . S
C200 N198 1.338 . S
C200 C202 1.378 . S
C201 H196 0.931 . S
C201 C202 1.348 . S
C201 C203 1.413 . S
C202 H197 0.930 . S
C202 C200 1.378 . S
C202 C201 1.348 . S
C203 C199 1.415 . S
C203 C201 1.413 . S
C203 C233 1.437 . S
H204 C233 0.929 . S
N205 Gd178 2.570 . S
N205 C206 1.359 . S
N205 C209 1.343 1_556 S
C206 C199 1.422 . S
C206 N205 1.359 . S
C206 C208 1.421 . S
C207 C208 1.422 1_554 S
C207 C210 1.321 . S
C207 H234 0.931 . S
C208 C206 1.421 . S
C208 C207 1.422 1_556 S
C208 C232 1.417 . S
C209 H186 0.931 . S
C209 N205 1.343 1_554 S
C209 C210 1.390 . S
C210 H188 0.930 . S
C210 C207 1.321 . S
C210 C209 1.390 . S
O211 Gd179 2.386 . S
O211 C223 1.265 . S
O212 Gd178 2.353 . S
O212 C223 1.242 1_556 S
O213 Gd178 2.468 1_554 S
O213 C231 1.263 1_554 S
O214 Gd178 2.427 . S
O214 C231 1.252 . S
O215 Gd179 2.307 1_556 S
O215 C224 1.261 . S
O216 Gd178 2.388 . S
O216 C224 1.252 . S
O217 Gd178 2.386 . S
O217 C235 1.265 . S
O218 Gd179 2.353 . S
O218 C235 1.242 1_554 S
O219 Gd179 2.468 1_556 S
O219 C243 1.263 1_556 S
O220 Gd179 2.427 . S
O220 C243 1.252 . S
O221 Gd178 2.307 1_554 S
O221 C236 1.261 . S
O222 Gd179 2.388 . S
O222 C236 1.252 . S
C223 O211 1.265 . S
C223 O212 1.242 1_554 S
C224 O215 1.261 . S
C224 O216 1.252 . S
C225 C228 1.394 . S
C225 C230 1.381 . S
C225 C231 1.500 . S
C226 C229 1.383 . S
C226 C230 1.393 . S
C227 C228 1.396 . S
C227 C229 1.365 . S
C227 H244 0.929 . S
C228 C225 1.394 . S
C228 C227 1.396 . S
C228 H245 0.930 . S
C229 C226 1.383 . S
C229 C227 1.365 . S
C229 H246 0.931 . S
C230 C225 1.381 . S
C230 C226 1.393 . S
C230 H247 0.922 1_556 S
C231 Gd178 2.805 . S
C231 O213 1.263 1_556 S
C231 O214 1.252 . S
C231 C225 1.500 . S
C232 H194 0.930 . S
C232 C208 1.417 . S
C232 C233 1.329 . S
C233 C203 1.437 . S
C233 H204 0.929 . S
C233 C232 1.329 . S
H234 C207 0.931 . S
C235 O217 1.265 . S
C235 O218 1.242 1_556 S
C236 O221 1.261 . S
C236 O222 1.252 . S
C237 C240 1.394 . S
C237 C242 1.385 . S
C237 C243 1.500 . S
C238 C241 1.383 . S
C238 C242 1.392 . S
C239 C240 1.396 . S
C239 C241 1.365 . S
C239 H248 0.929 . S
C240 C237 1.394 . S
C240 C239 1.396 . S
C240 H249 0.930 . S
C241 C238 1.383 . S
C241 C239 1.365 . S
C241 H250 0.931 . S
C242 C237 1.385 . S
C242 C238 1.392 . S
C242 H251 0.919 1_554 S
C243 Gd179 2.805 . S
C243 O219 1.263 1_554 S
C243 O220 1.252 . S
C243 C237 1.500 . S
H244 C227 0.929 . S
H245 C228 0.930 . S
H246 C229 0.931 . S
H247 C230 0.922 1_554 S
H248 C239 0.929 . S
H249 C240 0.930 . S
H250 C241 0.931 . S
H251 C242 0.919 1_556 S
C252 C253 1.367 . S
C252 C254 1.327 . S
C252 H277 0.950 . S
C253 C252 1.367 . S
C253 C269 1.327 1_655 S
C254 C252 1.327 . S
C254 C273 1.437 . S
C254 H278 0.950 . S
C255 C272 1.574 . S
C255 C274 1.367 1_455 S
C255 H279 0.949 . S
H256 C260 0.949 . S
C257 C258 1.349 . S
C257 C259 1.327 . S
C257 H280 0.950 . S
C258 C257 1.349 . S
C258 C270 1.349 1_455 S
C259 C257 1.327 . S
C259 C275 1.442 . S
C259 H281 0.950 . S
C260 H256 0.949 . S
C260 C268 1.574 . S
C260 C276 1.362 1_655 S
H261 C269 0.950 . S
H262 C267 0.950 . S
H263 C268 0.949 . S
H264 C270 0.950 . S
H265 C271 0.950 . S
H266 C272 0.949 . S
C267 H262 0.950 . S
C267 C269 1.327 . S
C267 C273 1.422 1_455 S
C268 C260 1.574 . S
C268 H263 0.949 . S
C268 C274 1.369 . S
C269 C253 1.327 1_455 S
C269 H261 0.950 . S
C269 C267 1.327 . S
C270 C258 1.349 1_655 S
C270 H264 0.950 . S
C270 C271 1.327 . S
C271 H265 0.950 . S
C271 C270 1.327 . S
C271 C275 1.418 1_655 S
C272 C255 1.574 . S
C272 H266 0.949 . S
C272 C276 1.374 . S
C273 C254 1.437 . S
C273 C267 1.422 1_655 S
C273 C274 1.522 . S
C274 C255 1.367 1_655 S
C274 C268 1.369 . S
C274 C273 1.522 . S
C275 C259 1.442 . S
C275 C271 1.418 1_455 S
C275 C276 1.522 . S
C276 C260 1.362 1_455 S
C276 C272 1.374 . S
C276 C275 1.522 . S
H277 C252 0.950 . S
H278 C254 0.950 . S
H279 C255 0.949 . S
H280 C257 0.950 . S
H281 C259 0.950 . S
C282 C283 1.349 1_565 S
C282 C284 1.327 . S
C282 H307 0.950 . S
C283 C282 1.349 1_545 S
C283 C299 1.349 . S
C284 C282 1.327 . S
C284 C303 1.429 1_565 S
C284 H308 0.950 . S
C285 C302 1.574 . S
C285 C304 1.368 . S
C285 H309 0.949 . S
H286 C290 0.949 . S
C287 C288 1.349 1_545 S
C287 C289 1.327 . S
C287 H310 0.950 . S
C288 C287 1.349 1_565 S
C288 C300 1.349 . S
C289 C287 1.327 . S
C289 C305 1.429 1_545 S
C289 H311 0.950 . S
C290 H286 0.949 . S
C290 C298 1.574 . S
C290 C306 1.368 . S
H291 C299 0.950 . S
H292 C297 0.950 . S
H293 C298 0.949 . S
H294 C300 0.950 . S
H295 C301 0.950 . S
H296 C302 0.949 . S
C297 H292 0.950 . S
C297 C299 1.327 . S
C297 C303 1.429 . S
C298 C290 1.574 . S
C298 H293 0.949 . S
C298 C304 1.368 1_565 S
C299 C283 1.349 . S
C299 H291 0.950 . S
C299 C297 1.327 . S
C300 C288 1.349 . S
C300 H294 0.950 . S
C300 C301 1.327 . S
C301 H295 0.950 . S
C301 C300 1.327 . S
C301 C305 1.429 . S
C302 C285 1.574 . S
C302 H296 0.949 . S
C302 C306 1.368 1_545 S
C303 C284 1.429 1_545 S
C303 C297 1.429 . S
C303 C304 1.523 . S
C304 C285 1.368 . S
C304 C298 1.368 1_545 S
C304 C303 1.523 . S
C305 C289 1.429 1_565 S
C305 C301 1.429 . S
C305 C306 1.523 . S
C306 C290 1.368 . S
C306 C302 1.368 1_565 S
C306 C305 1.523 . S
H307 C282 0.950 . S
H308 C284 0.950 . S
H309 C285 0.949 . S
H310 C287 0.950 . S
H311 C289 0.950 . S
C312 C313 1.349 . S
C312 C314 1.327 . S
C312 H337 0.950 . S
C313 C312 1.349 . S
C313 C329 1.349 . S
C314 C312 1.327 . S
C314 C333 1.429 . S
C314 H338 0.950 . S
C315 C332 1.574 . S
C315 C334 1.368 . S
C315 H339 0.949 . S
H316 C320 0.949 . S
C317 C318 1.349 . S
C317 C319 1.327 . S
C317 H340 0.950 . S
C318 C317 1.349 . S
C318 C330 1.349 . S
C319 C317 1.327 . S
C319 C335 1.429 . S
C319 H341 0.950 . S
C320 H316 0.949 . S
C320 C328 1.574 . S
C320 C336 1.368 . S
H321 C329 0.950 . S
H322 C327 0.950 . S
H323 C328 0.949 . S
H324 C330 0.950 . S
H325 C331 0.950 . S
H326 C332 0.949 . S
C327 H322 0.950 . S
C327 C329 1.327 . S
C327 C333 1.429 . S
C328 C320 1.574 . S
C328 H323 0.949 . S
C328 C334 1.368 . S
C329 C313 1.349 . S
C329 H321 0.950 . S
C329 C327 1.327 . S
C330 C318 1.349 . S
C330 H324 0.950 . S
C330 C331 1.327 . S
C331 H325 0.950 . S
C331 C330 1.327 . S
C331 C335 1.429 . S
C332 C315 1.574 . S
C332 H326 0.949 . S
C332 C336 1.368 . S
C333 C314 1.429 . S
C333 C327 1.429 . S
C333 C334 1.523 . S
C334 C315 1.368 . S
C334 C328 1.368 . S
C334 C333 1.523 . S
C335 C319 1.429 . S
C335 C331 1.429 . S
C335 C336 1.523 . S
C336 C320 1.368 . S
C336 C332 1.368 . S
C336 C335 1.523 . S
H337 C312 0.950 . S
H338 C314 0.950 . S
H339 C315 0.949 . S
H340 C317 0.950 . S
H341 C319 0.950 . S
C342 C343 1.349 . S
C342 C344 1.327 . S
C342 H367 0.950 . S
C343 C342 1.349 . S
C343 C359 1.349 1_554 S
C344 C342 1.327 . S
C344 C363 1.429 . S
C344 H368 0.950 . S
C345 C362 1.574 . S
C345 C364 1.368 1_556 S
C345 H369 0.949 . S
H346 C350 0.949 . S
C347 C348 1.349 . S
C347 C349 1.327 . S
C347 H370 0.950 . S
C348 C347 1.349 . S
C348 C360 1.349 1_556 S
C349 C347 1.327 . S
C349 C365 1.429 . S
C349 H371 0.950 . S
C350 H346 0.949 . S
C350 C358 1.574 . S
C350 C366 1.362 1_554 S
H351 C359 0.950 . S
H352 C357 0.950 . S
H353 C358 0.949 . S
H354 C360 0.950 . S
H355 C361 0.950 . S
H356 C362 0.949 . S
C357 H352 0.950 . S
C357 C359 1.327 . S
C357 C363 1.429 1_556 S
C358 C350 1.574 . S
C358 H353 0.949 . S
C358 C364 1.368 . S
C359 C343 1.349 1_556 S
C359 H351 0.950 . S
C359 C357 1.327 . S
C360 C348 1.349 1_554 S
C360 H354 0.950 . S
C360 C361 1.327 . S
C361 H355 0.950 . S
C361 C360 1.327 . S
C361 C365 1.429 1_554 S
C362 C345 1.574 . S
C362 H356 0.949 . S
C362 C366 1.374 . S
C363 C344 1.429 . S
C363 C357 1.429 1_554 S
C363 C364 1.523 . S
C364 C345 1.368 1_554 S
C364 C358 1.368 . S
C364 C363 1.523 . S
C365 C349 1.429 . S
C365 C361 1.429 1_556 S
C365 C366 1.524 . S
C366 C350 1.362 1_556 S
C366 C362 1.374 . S
C366 C365 1.524 . S
H367 C342 0.950 . S
H368 C344 0.950 . S
H369 C345 0.949 . S
H370 C347 0.950 . S
H371 C349 0.950 . S
C372 C373 1.349 1_554 S
C372 C374 1.327 . S
C372 H397 0.950 . S
C373 C372 1.349 1_556 S
C373 C389 1.349 . S
C374 C372 1.327 . S
C374 C393 1.429 1_554 S
C374 H398 0.950 . S
C375 C392 1.574 . S
C375 C394 1.368 . S
C375 H399 0.949 . S
H376 C380 0.949 . S
C377 C378 1.349 1_556 S
C377 C379 1.327 . S
C377 H400 0.950 . S
C378 C377 1.349 1_554 S
C378 C390 1.349 . S
C379 C377 1.327 . S
C379 C395 1.429 1_556 S
C379 H401 0.950 . S
C380 H376 0.949 . S
C380 C388 1.574 . S
C380 C396 1.368 1_554 S
H381 C389 0.950 . S
H382 C387 0.950 . S
H383 C388 0.949 . S
H384 C390 0.950 . S
H385 C391 0.950 . S
H386 C392 0.949 . S
C387 H382 0.950 . S
C387 C389 1.327 . S
C387 C393 1.429 . S
C388 C380 1.574 . S
C388 H383 0.949 . S
C388 C394 1.368 1_554 S
C389 C373 1.349 . S
C389 H381 0.950 . S
C389 C387 1.327 . S
C390 C378 1.349 . S
C390 H384 0.950 . S
C390 C391 1.327 . S
C391 H385 0.950 . S
C391 C390 1.327 . S
C391 C395 1.429 . S
C392 C375 1.574 . S
C392 H386 0.949 . S
C392 C396 1.368 . S
C393 C374 1.429 1_556 S
C393 C387 1.429 . S
C393 C394 1.523 . S
C394 C375 1.368 . S
C394 C388 1.368 1_556 S
C394 C393 1.523 . S
C395 C379 1.429 1_554 S
C395 C391 1.429 . S
C395 C396 1.523 1_554 S
C396 C380 1.368 1_556 S
C396 C392 1.368 . S
C396 C395 1.523 1_556 S
H397 C372 0.950 . S
H398 C374 0.950 . S
H399 C375 0.949 . S
H400 C377 0.950 . S
H401 C379 0.950 . S
C402 C403 1.349 . S
C402 C404 1.327 . S
C402 H427 0.950 . S
C403 C402 1.349 . S
C403 C419 1.349 1_556 S
C404 C402 1.327 . S
C404 C423 1.429 . S
C404 H428 0.950 . S
C405 C422 1.574 . S
C405 C424 1.368 1_554 S
C405 H429 0.949 . S
H406 C410 0.949 . S
C407 C408 1.349 1_554 S
C407 C409 1.327 . S
C407 H430 0.950 . S
C408 C407 1.349 1_556 S
C408 C420 1.349 . S
C409 C407 1.327 . S
C409 C425 1.429 1_554 S
C409 H431 0.950 . S
C410 H406 0.949 . S
C410 C418 1.574 . S
C410 C426 1.368 . S
H411 C419 0.950 . S
H412 C417 0.950 . S
H413 C418 0.949 . S
H414 C420 0.950 . S
H415 C421 0.950 . S
H416 C422 0.949 . S
C417 H412 0.950 . S
C417 C419 1.327 . S
C417 C423 1.429 1_554 S
C418 C410 1.574 . S
C418 H413 0.949 . S
C418 C424 1.368 . S
C419 C403 1.349 1_554 S
C419 H411 0.950 . S
C419 C417 1.327 . S
C420 C408 1.349 . S
C420 H414 0.950 . S
C420 C421 1.327 . S
C421 H415 0.950 . S
C421 C420 1.327 . S
C421 C425 1.429 . S
C422 C405 1.574 . S
C422 H416 0.949 . S
C422 C426 1.368 1_554 S
C423 C404 1.429 . S
C423 C417 1.429 1_556 S
C423 C424 1.523 . S
C424 C405 1.368 1_556 S
C424 C418 1.368 . S
C424 C423 1.523 . S
C425 C409 1.429 1_556 S
C425 C421 1.429 . S
C425 C426 1.523 . S
C426 C410 1.368 . S
C426 C422 1.368 1_556 S
C426 C425 1.523 . S
H427 C402 0.950 . S
H428 C404 0.950 . S
H429 C405 0.949 . S
H430 C407 0.950 . S
H431 C409 0.950 . S
C432 C433 1.349 1_554 S
C432 C434 1.327 . S
C432 H457 0.950 . S
C433 C432 1.349 1_556 S
C433 C449 1.349 . S
C434 C432 1.327 . S
C434 C453 1.429 1_554 S
C434 H458 0.950 . S
C435 C452 1.574 . S
C435 C454 1.368 . S
C435 H459 0.949 . S
H436 C440 0.949 . S
C437 C438 1.349 1_556 S
C437 C439 1.327 . S
C437 H460 0.950 . S
C438 C437 1.349 1_554 S
C438 C450 1.349 . S
C439 C437 1.327 . S
C439 C455 1.429 1_556 S
C439 H461 0.950 . S
C440 H436 0.949 . S
C440 C448 1.574 . S
C440 C456 1.368 . S
H441 C449 0.950 . S
H442 C447 0.950 . S
H443 C448 0.949 . S
H444 C450 0.950 . S
H445 C451 0.950 . S
H446 C452 0.949 . S
C447 H442 0.950 . S
C447 C449 1.327 . S
C447 C453 1.429 . S
C448 C440 1.574 . S
C448 H443 0.949 . S
C448 C454 1.368 1_554 S
C449 C433 1.349 . S
C449 H441 0.950 . S
C449 C447 1.327 . S
C450 C438 1.349 . S
C450 H444 0.950 . S
C450 C451 1.327 . S
C451 H445 0.950 . S
C451 C450 1.327 . S
C451 C455 1.429 . S
C452 C435 1.574 . S
C452 H446 0.949 . S
C452 C456 1.367 1_556 S
C453 C434 1.429 1_556 S
C453 C447 1.429 . S
C453 C454 1.523 . S
C454 C435 1.368 . S
C454 C448 1.368 1_556 S
C454 C453 1.523 . S
C455 C439 1.429 1_554 S
C455 C451 1.429 . S
C455 C456 1.524 . S
C456 C440 1.368 . S
C456 C452 1.367 1_554 S
C456 C455 1.524 . S
H457 C432 0.950 . S
H458 C434 0.950 . S
H459 C435 0.949 . S
H460 C437 0.950 . S
H461 C439 0.950 . S
C462 C463 1.349 . S
C462 C464 1.327 . S
C462 H487 0.950 . S
C463 C462 1.349 . S
C463 C479 1.349 1_556 S
C464 C462 1.327 . S
C464 C483 1.429 . S
C464 H488 0.950 . S
C465 C482 1.574 . S
C465 C484 1.368 . S
C465 H489 0.949 . S
H466 C470 0.949 . S
C467 C468 1.349 . S
C467 C469 1.327 . S
C467 H490 0.950 . S
C468 C467 1.349 . S
C468 C480 1.349 1_554 S
C469 C467 1.327 . S
C469 C485 1.429 . S
C469 H491 0.950 . S
C470 H466 0.949 . S
C470 C478 1.574 . S
C470 C486 1.368 1_556 S
H471 C479 0.950 . S
H472 C477 0.950 . S
H473 C478 0.949 . S
H474 C480 0.950 . S
H475 C481 0.950 . S
H476 C482 0.949 . S
C477 H472 0.950 . S
C477 C479 1.327 . S
C477 C483 1.429 1_554 S
C478 C470 1.574 . S
C478 H473 0.949 . S
C478 C484 1.368 1_556 S
C479 C463 1.349 1_554 S
C479 H471 0.950 . S
C479 C477 1.327 . S
C480 C468 1.349 1_556 S
C480 H474 0.950 . S
C480 C481 1.327 . S
C481 H475 0.950 . S
C481 C480 1.327 . S
C481 C485 1.429 1_556 S
C482 C465 1.574 . S
C482 H476 0.949 . S
C482 C486 1.368 . S
C483 C464 1.429 . S
C483 C477 1.429 1_556 S
C483 C484 1.523 1_556 S
C484 C465 1.368 . S
C484 C478 1.368 1_554 S
C484 C483 1.523 1_554 S
C485 C469 1.429 . S
C485 C481 1.429 1_554 S
C485 C486 1.523 . S
C486 C470 1.368 1_554 S
C486 C482 1.368 . S
C486 C485 1.523 . S
H487 C462 0.950 . S
H488 C464 0.950 . S
H489 C465 0.949 . S
H490 C467 0.950 . S
H491 C469 0.950 . S
C492 C493 1.349 . S
C492 C494 1.327 . S
C492 H517 0.950 . S
C493 C492 1.349 . S
C493 C509 1.349 1_554 S
C494 C492 1.327 . S
C494 C513 1.429 . S
C494 H518 0.950 . S
C495 C512 1.574 . S
C495 C514 1.368 1_556 S
C495 H519 0.949 . S
H496 C500 0.949 . S
C497 C498 1.349 1_556 S
C497 C499 1.327 . S
C497 H520 0.950 . S
C498 C497 1.349 1_554 S
C498 C510 1.349 . S
C499 C497 1.327 . S
C499 C515 1.429 1_556 S
C499 H521 0.950 . S
C500 H496 0.949 . S
C500 C508 1.574 . S
C500 C516 1.368 . S
H501 C509 0.950 . S
H502 C507 0.950 . S
H503 C508 0.949 . S
H504 C510 0.950 . S
H505 C511 0.950 . S
H506 C512 0.949 . S
C507 H502 0.950 . S
C507 C509 1.327 . S
C507 C513 1.429 1_556 S
C508 C500 1.574 . S
C508 H503 0.949 . S
C508 C514 1.368 . S
C509 C493 1.349 1_556 S
C509 H501 0.950 . S
C509 C507 1.327 . S
C510 C498 1.349 . S
C510 H504 0.950 . S
C510 C511 1.327 . S
C511 H505 0.950 . S
C511 C510 1.327 . S
C511 C515 1.429 . S
C512 C495 1.574 . S
C512 H506 0.949 . S
C512 C516 1.368 1_556 S
C513 C494 1.429 . S
C513 C507 1.429 1_554 S
C513 C514 1.523 . S
C514 C495 1.368 1_554 S
C514 C508 1.368 . S
C514 C513 1.523 . S
C515 C499 1.429 1_554 S
C515 C511 1.429 . S
C515 C516 1.523 . S
C516 C500 1.368 . S
C516 C512 1.368 1_554 S
C516 C515 1.523 . S
H517 C492 0.950 . S
H518 C494 0.950 . S
H519 C495 0.949 . S
H520 C497 0.950 . S
H521 C499 0.950 . S
C253 C68 1.491 . S
C258 C56 1.483 . S
C283 C152 1.519 . S
C288 C140 1.519 . S
C313 C224 1.479 . S
C318 C236 1.479 . S
C343 C55 2.264 . S
C348 C235 2.274 . S
C373 C154 0.749 . S
C378 C70 0.748 1_554 S
C403 C139 1.541 . S
C408 C238 1.410 1_556 S
C433 C67 2.265 . S
C438 C223 2.283 . S
C463 C58 0.749 1_556 S
C468 C142 0.750 . S
C493 C226 1.406 1_554 S
C498 C151 1.536 . S
