# Generated by pormake.
# Topology ulj, (4)-cn, num edge types: 1
# Building blocks:
#     Node 0, Type 0, BuildingBlock: NAWXER_clean_sbu_0, # of connection points: 4
#     Node 1, Type 0, BuildingBlock: NAWXER_clean_sbu_0, # of connection points: 4
#     Node 2, Type 0, BuildingBlock: NAWXER_clean_sbu_0, # of connection points: 4
#     Node 3, Type 0, BuildingBlock: NAWXER_clean_sbu_0, # of connection points: 4
#     Node 4, Type 0, BuildingBlock: NAWXER_clean_sbu_0, # of connection points: 4
#     Node 5, Type 0, BuildingBlock: NAWXER_clean_sbu_0, # of connection points: 4
#     Node 6, Type 0, BuildingBlock: NAWXER_clean_sbu_0, # of connection points: 4
#     Node 7, Type 0, BuildingBlock: NAWXER_clean_sbu_0, # of connection points: 4
#     Node 8, Type 0, BuildingBlock: NAWXER_clean_sbu_0, # of connection points: 4
#     Node 9, Type 0, BuildingBlock: NAWXER_clean_sbu_0, # of connection points: 4
#     Node 10, Type 0, BuildingBlock: NAWXER_clean_sbu_0, # of connection points: 4
#     Node 11, Type 0, BuildingBlock: NAWXER_clean_sbu_0, # of connection points: 4
#     Node 12, Type 0, BuildingBlock: NAWXER_clean_sbu_0, # of connection points: 4
#     Node 13, Type 0, BuildingBlock: NAWXER_clean_sbu_0, # of connection points: 4
#     Node 14, Type 0, BuildingBlock: NAWXER_clean_sbu_0, # of connection points: 4
#     Node 15, Type 0, BuildingBlock: NAWXER_clean_sbu_0, # of connection points: 4
#     Node 16, Type 0, BuildingBlock: NAWXER_clean_sbu_0, # of connection points: 4
#     Node 17, Type 0, BuildingBlock: NAWXER_clean_sbu_0, # of connection points: 4
#     Node 18, Type 0, BuildingBlock: NAWXER_clean_sbu_0, # of connection points: 4
#     Node 19, Type 0, BuildingBlock: NAWXER_clean_sbu_0, # of connection points: 4
#     Node 20, Type 0, BuildingBlock: NAWXER_clean_sbu_0, # of connection points: 4
#     Node 21, Type 0, BuildingBlock: NAWXER_clean_sbu_0, # of connection points: 4
#     Node 22, Type 0, BuildingBlock: NAWXER_clean_sbu_0, # of connection points: 4
#     Node 23, Type 0, BuildingBlock: NAWXER_clean_sbu_0, # of connection points: 4
#     Node 24, Type 0, BuildingBlock: NAWXER_clean_sbu_0, # of connection points: 4
#     Node 25, Type 0, BuildingBlock: NAWXER_clean_sbu_0, # of connection points: 4
#     Node 26, Type 0, BuildingBlock: NAWXER_clean_sbu_0, # of connection points: 4
#     Node 27, Type 0, BuildingBlock: NAWXER_clean_sbu_0, # of connection points: 4
#     Node 28, Type 0, BuildingBlock: NAWXER_clean_sbu_0, # of connection points: 4
#     Node 29, Type 0, BuildingBlock: NAWXER_clean_sbu_0, # of connection points: 4
#     Node 30, Type 0, BuildingBlock: NAWXER_clean_sbu_0, # of connection points: 4
#     Node 31, Type 0, BuildingBlock: NAWXER_clean_sbu_0, # of connection points: 4
#     Node 32, Type 0, BuildingBlock: NAWXER_clean_sbu_0, # of connection points: 4
#     Node 33, Type 0, BuildingBlock: NAWXER_clean_sbu_0, # of connection points: 4
#     Node 34, Type 0, BuildingBlock: NAWXER_clean_sbu_0, # of connection points: 4
#     Node 35, Type 0, BuildingBlock: NAWXER_clean_sbu_0, # of connection points: 4
#     Node 36, Type 0, BuildingBlock: NAWXER_clean_sbu_0, # of connection points: 4
#     Node 37, Type 0, BuildingBlock: NAWXER_clean_sbu_0, # of connection points: 4
#     Node 38, Type 0, BuildingBlock: NAWXER_clean_sbu_0, # of connection points: 4
#     Node 39, Type 0, BuildingBlock: NAWXER_clean_sbu_0, # of connection points: 4
#     Node 40, Type 0, BuildingBlock: NAWXER_clean_sbu_0, # of connection points: 4
#     Node 41, Type 0, BuildingBlock: NAWXER_clean_sbu_0, # of connection points: 4
#     Node 42, Type 0, BuildingBlock: NAWXER_clean_sbu_0, # of connection points: 4
#     Node 43, Type 0, BuildingBlock: NAWXER_clean_sbu_0, # of connection points: 4
#     Node 44, Type 0, BuildingBlock: NAWXER_clean_sbu_0, # of connection points: 4
#     Node 45, Type 0, BuildingBlock: NAWXER_clean_sbu_0, # of connection points: 4
#     Node 46, Type 0, BuildingBlock: NAWXER_clean_sbu_0, # of connection points: 4
#     Node 47, Type 0, BuildingBlock: NAWXER_clean_sbu_0, # of connection points: 4
#     Edge 48, Type (0, 0), BuildingBlock: EZIPEK_clean_linker_0, # of connection points: 2
#     Edge 49, Type (0, 0), BuildingBlock: EZIPEK_clean_linker_0, # of connection points: 2
#     Edge 50, Type (0, 0), BuildingBlock: EZIPEK_clean_linker_0, # of connection points: 2
#     Edge 51, Type (0, 0), BuildingBlock: EZIPEK_clean_linker_0, # of connection points: 2
#     Edge 52, Type (0, 0), BuildingBlock: EZIPEK_clean_linker_0, # of connection points: 2
#     Edge 53, Type (0, 0), BuildingBlock: EZIPEK_clean_linker_0, # of connection points: 2
#     Edge 54, Type (0, 0), BuildingBlock: EZIPEK_clean_linker_0, # of connection points: 2
#     Edge 55, Type (0, 0), BuildingBlock: EZIPEK_clean_linker_0, # of connection points: 2
#     Edge 56, Type (0, 0), BuildingBlock: EZIPEK_clean_linker_0, # of connection points: 2
#     Edge 57, Type (0, 0), BuildingBlock: EZIPEK_clean_linker_0, # of connection points: 2
#     Edge 58, Type (0, 0), BuildingBlock: EZIPEK_clean_linker_0, # of connection points: 2
#     Edge 59, Type (0, 0), BuildingBlock: EZIPEK_clean_linker_0, # of connection points: 2
#     Edge 60, Type (0, 0), BuildingBlock: EZIPEK_clean_linker_0, # of connection points: 2
#     Edge 61, Type (0, 0), BuildingBlock: EZIPEK_clean_linker_0, # of connection points: 2
#     Edge 62, Type (0, 0), BuildingBlock: EZIPEK_clean_linker_0, # of connection points: 2
#     Edge 63, Type (0, 0), BuildingBlock: EZIPEK_clean_linker_0, # of connection points: 2
#     Edge 64, Type (0, 0), BuildingBlock: EZIPEK_clean_linker_0, # of connection points: 2
#     Edge 65, Type (0, 0), BuildingBlock: EZIPEK_clean_linker_0, # of connection points: 2
#     Edge 66, Type (0, 0), BuildingBlock: EZIPEK_clean_linker_0, # of connection points: 2
#     Edge 67, Type (0, 0), BuildingBlock: EZIPEK_clean_linker_0, # of connection points: 2
#     Edge 68, Type (0, 0), BuildingBlock: EZIPEK_clean_linker_0, # of connection points: 2
#     Edge 69, Type (0, 0), BuildingBlock: EZIPEK_clean_linker_0, # of connection points: 2
#     Edge 70, Type (0, 0), BuildingBlock: EZIPEK_clean_linker_0, # of connection points: 2
#     Edge 71, Type (0, 0), BuildingBlock: EZIPEK_clean_linker_0, # of connection points: 2
#     Edge 72, Type (0, 0), BuildingBlock: EZIPEK_clean_linker_0, # of connection points: 2
#     Edge 73, Type (0, 0), BuildingBlock: EZIPEK_clean_linker_0, # of connection points: 2
#     Edge 74, Type (0, 0), BuildingBlock: EZIPEK_clean_linker_0, # of connection points: 2
#     Edge 75, Type (0, 0), BuildingBlock: EZIPEK_clean_linker_0, # of connection points: 2
#     Edge 76, Type (0, 0), BuildingBlock: EZIPEK_clean_linker_0, # of connection points: 2
#     Edge 77, Type (0, 0), BuildingBlock: EZIPEK_clean_linker_0, # of connection points: 2
#     Edge 78, Type (0, 0), BuildingBlock: EZIPEK_clean_linker_0, # of connection points: 2
#     Edge 79, Type (0, 0), BuildingBlock: EZIPEK_clean_linker_0, # of connection points: 2
#     Edge 80, Type (0, 0), BuildingBlock: EZIPEK_clean_linker_0, # of connection points: 2
#     Edge 81, Type (0, 0), BuildingBlock: EZIPEK_clean_linker_0, # of connection points: 2
#     Edge 82, Type (0, 0), BuildingBlock: EZIPEK_clean_linker_0, # of connection points: 2
#     Edge 83, Type (0, 0), BuildingBlock: EZIPEK_clean_linker_0, # of connection points: 2
#     Edge 84, Type (0, 0), BuildingBlock: EZIPEK_clean_linker_0, # of connection points: 2
#     Edge 85, Type (0, 0), BuildingBlock: EZIPEK_clean_linker_0, # of connection points: 2
#     Edge 86, Type (0, 0), BuildingBlock: EZIPEK_clean_linker_0, # of connection points: 2
#     Edge 87, Type (0, 0), BuildingBlock: EZIPEK_clean_linker_0, # of connection points: 2
#     Edge 88, Type (0, 0), BuildingBlock: EZIPEK_clean_linker_0, # of connection points: 2
#     Edge 89, Type (0, 0), BuildingBlock: EZIPEK_clean_linker_0, # of connection points: 2
#     Edge 90, Type (0, 0), BuildingBlock: EZIPEK_clean_linker_0, # of connection points: 2
#     Edge 91, Type (0, 0), BuildingBlock: EZIPEK_clean_linker_0, # of connection points: 2
#     Edge 92, Type (0, 0), BuildingBlock: EZIPEK_clean_linker_0, # of connection points: 2
#     Edge 93, Type (0, 0), BuildingBlock: EZIPEK_clean_linker_0, # of connection points: 2
#     Edge 94, Type (0, 0), BuildingBlock: EZIPEK_clean_linker_0, # of connection points: 2
#     Edge 95, Type (0, 0), BuildingBlock: EZIPEK_clean_linker_0, # of connection points: 2
#     Edge 96, Type (0, 0), BuildingBlock: EZIPEK_clean_linker_0, # of connection points: 2
#     Edge 97, Type (0, 0), BuildingBlock: EZIPEK_clean_linker_0, # of connection points: 2
#     Edge 98, Type (0, 0), BuildingBlock: EZIPEK_clean_linker_0, # of connection points: 2
#     Edge 99, Type (0, 0), BuildingBlock: EZIPEK_clean_linker_0, # of connection points: 2
#     Edge 100, Type (0, 0), BuildingBlock: EZIPEK_clean_linker_0, # of connection points: 2
#     Edge 101, Type (0, 0), BuildingBlock: EZIPEK_clean_linker_0, # of connection points: 2
#     Edge 102, Type (0, 0), BuildingBlock: EZIPEK_clean_linker_0, # of connection points: 2
#     Edge 103, Type (0, 0), BuildingBlock: EZIPEK_clean_linker_0, # of connection points: 2
#     Edge 104, Type (0, 0), BuildingBlock: EZIPEK_clean_linker_0, # of connection points: 2
#     Edge 105, Type (0, 0), BuildingBlock: EZIPEK_clean_linker_0, # of connection points: 2
#     Edge 106, Type (0, 0), BuildingBlock: EZIPEK_clean_linker_0, # of connection points: 2
#     Edge 107, Type (0, 0), BuildingBlock: EZIPEK_clean_linker_0, # of connection points: 2
#     Edge 108, Type (0, 0), BuildingBlock: EZIPEK_clean_linker_0, # of connection points: 2
#     Edge 109, Type (0, 0), BuildingBlock: EZIPEK_clean_linker_0, # of connection points: 2
#     Edge 110, Type (0, 0), BuildingBlock: EZIPEK_clean_linker_0, # of connection points: 2
#     Edge 111, Type (0, 0), BuildingBlock: EZIPEK_clean_linker_0, # of connection points: 2
#     Edge 112, Type (0, 0), BuildingBlock: EZIPEK_clean_linker_0, # of connection points: 2
#     Edge 113, Type (0, 0), BuildingBlock: EZIPEK_clean_linker_0, # of connection points: 2
#     Edge 114, Type (0, 0), BuildingBlock: EZIPEK_clean_linker_0, # of connection points: 2
#     Edge 115, Type (0, 0), BuildingBlock: EZIPEK_clean_linker_0, # of connection points: 2
#     Edge 116, Type (0, 0), BuildingBlock: EZIPEK_clean_linker_0, # of connection points: 2
#     Edge 117, Type (0, 0), BuildingBlock: EZIPEK_clean_linker_0, # of connection points: 2
#     Edge 118, Type (0, 0), BuildingBlock: EZIPEK_clean_linker_0, # of connection points: 2
#     Edge 119, Type (0, 0), BuildingBlock: EZIPEK_clean_linker_0, # of connection points: 2
#     Edge 120, Type (0, 0), BuildingBlock: EZIPEK_clean_linker_0, # of connection points: 2
#     Edge 121, Type (0, 0), BuildingBlock: EZIPEK_clean_linker_0, # of connection points: 2
#     Edge 122, Type (0, 0), BuildingBlock: EZIPEK_clean_linker_0, # of connection points: 2
#     Edge 123, Type (0, 0), BuildingBlock: EZIPEK_clean_linker_0, # of connection points: 2
#     Edge 124, Type (0, 0), BuildingBlock: EZIPEK_clean_linker_0, # of connection points: 2
#     Edge 125, Type (0, 0), BuildingBlock: EZIPEK_clean_linker_0, # of connection points: 2
#     Edge 126, Type (0, 0), BuildingBlock: EZIPEK_clean_linker_0, # of connection points: 2
#     Edge 127, Type (0, 0), BuildingBlock: EZIPEK_clean_linker_0, # of connection points: 2
#     Edge 128, Type (0, 0), BuildingBlock: EZIPEK_clean_linker_0, # of connection points: 2
#     Edge 129, Type (0, 0), BuildingBlock: EZIPEK_clean_linker_0, # of connection points: 2
#     Edge 130, Type (0, 0), BuildingBlock: EZIPEK_clean_linker_0, # of connection points: 2
#     Edge 131, Type (0, 0), BuildingBlock: EZIPEK_clean_linker_0, # of connection points: 2
#     Edge 132, Type (0, 0), BuildingBlock: EZIPEK_clean_linker_0, # of connection points: 2
#     Edge 133, Type (0, 0), BuildingBlock: EZIPEK_clean_linker_0, # of connection points: 2
#     Edge 134, Type (0, 0), BuildingBlock: EZIPEK_clean_linker_0, # of connection points: 2
#     Edge 135, Type (0, 0), BuildingBlock: EZIPEK_clean_linker_0, # of connection points: 2
#     Edge 136, Type (0, 0), BuildingBlock: EZIPEK_clean_linker_0, # of connection points: 2
#     Edge 137, Type (0, 0), BuildingBlock: EZIPEK_clean_linker_0, # of connection points: 2
#     Edge 138, Type (0, 0), BuildingBlock: EZIPEK_clean_linker_0, # of connection points: 2
#     Edge 139, Type (0, 0), BuildingBlock: EZIPEK_clean_linker_0, # of connection points: 2
#     Edge 140, Type (0, 0), BuildingBlock: EZIPEK_clean_linker_0, # of connection points: 2
#     Edge 141, Type (0, 0), BuildingBlock: EZIPEK_clean_linker_0, # of connection points: 2
#     Edge 142, Type (0, 0), BuildingBlock: EZIPEK_clean_linker_0, # of connection points: 2
#     Edge 143, Type (0, 0), BuildingBlock: EZIPEK_clean_linker_0, # of connection points: 2
# Relax obj value: 0.095
# Max RMSD: 0.223
# Mean RMSD: 0.216
data_MOF--net-ulj--node1-NAWXER_clean_sbu_0--edge1-EZIPEK_clean_linker_0
_symmetry_space_group_name_H-M    P1
_symmetry_Int_Tables_number       1
_symmetry_cell_setting            triclinic
loop_
_symmetry_equiv_pos_as_xyz
'x, y, z'
_cell_length_a     47.426793
_cell_length_b     47.449604
_cell_length_c     47.440813
_cell_angle_alpha  89.984769
_cell_angle_beta   89.948857
_cell_angle_gamma 89.972478
loop_
_atom_site_label
_atom_site_type_symbol
_atom_site_fract_x
_atom_site_fract_y
_atom_site_fract_z
_atom_type_partial_charge
C0 C 0.14822 0.27614 0.28271 0.0
C1 C 0.10227 0.20559 0.34085 0.0
O2 O 0.16196 0.27185 0.30562 0.0
Zn3 Zn 0.15507 0.24858 0.34436 0.0
O4 O 0.12383 0.26553 0.27996 0.0
Zn5 Zn 0.12329 0.24378 0.31411 0.0
O6 O 0.11317 0.27388 0.34575 0.0
O7 O 0.14958 0.27624 0.3744 0.0
O8 O 0.09339 0.21693 0.31828 0.0
O9 O 0.12468 0.21521 0.35262 0.0
O10 O 0.18908 0.22678 0.3446 0.0
O11 O 0.16016 0.21637 0.30996 0.0
C12 C 0.125 0.28424 0.36762 0.0
C13 C 0.1833 0.21166 0.3232 0.0
C14 C 0.53893 0.62284 0.87774 0.0
C15 C 0.47742 0.55206 0.9194 0.0
O16 O 0.53248 0.59903 0.86736 0.0
Zn17 Zn 0.50853 0.58693 0.8982 0.0
O18 O 0.52949 0.63014 0.90196 0.0
Zn19 Zn 0.50317 0.61269 0.9343 0.0
O20 O 0.52829 0.60952 0.96575 0.0
O21 O 0.53831 0.57976 0.93184 0.0
O22 O 0.48113 0.57338 0.93553 0.0
O23 O 0.48925 0.55109 0.89539 0.0
O24 O 0.47435 0.61677 0.89598 0.0
O25 O 0.47333 0.63985 0.93652 0.0
C26 C 0.54397 0.59002 0.95619 0.0
C27 C 0.46335 0.63549 0.91208 0.0
C28 C 0.87919 0.21607 0.35297 0.0
C29 C 0.80494 0.2838 0.33177 0.0
O30 O 0.8832 0.22866 0.32946 0.0
Zn31 Zn 0.86443 0.26271 0.3066 0.0
O32 O 0.85795 0.22279 0.36786 0.0
Zn33 Zn 0.84244 0.25138 0.34357 0.0
O34 O 0.83052 0.22901 0.30528 0.0
O35 O 0.85778 0.24528 0.27095 0.0
O36 O 0.8071 0.26876 0.35385 0.0
O37 O 0.82474 0.2838 0.31335 0.0
O38 O 0.89211 0.29226 0.30803 0.0
O39 O 0.87167 0.28506 0.34921 0.0
C40 C 0.83821 0.22902 0.27931 0.0
C41 C 0.88951 0.29832 0.33393 0.0
C42 C 0.52631 0.94967 0.91554 0.0
C43 C 0.46043 0.87655 0.88951 0.0
O44 O 0.51387 0.94674 0.89207 0.0
Zn45 Zn 0.49415 0.91247 0.90184 0.0
O46 O 0.52264 0.93159 0.93526 0.0
Zn47 Zn 0.50015 0.89329 0.94166 0.0
O48 O 0.52919 0.86519 0.94679 0.0
O49 O 0.5269 0.8812 0.90318 0.0
O50 O 0.47012 0.8734 0.91454 0.0
O51 O 0.46932 0.8966 0.87413 0.0
O52 O 0.46486 0.92545 0.93495 0.0
O53 O 0.47692 0.9024 0.9733 0.0
C54 C 0.53789 0.86465 0.9215 0.0
C55 C 0.46046 0.91963 0.96102 0.0
C56 C 0.12472 0.70904 0.13617 0.0
C57 C 0.18637 0.77814 0.17983 0.0
O58 O 0.11349 0.71967 0.15827 0.0
Zn59 Zn 0.12555 0.74873 0.19036 0.0
O60 O 0.14922 0.71661 0.12865 0.0
Zn61 Zn 0.15547 0.74395 0.15831 0.0
O62 O 0.16291 0.71923 0.19603 0.0
O63 O 0.12569 0.7253 0.22305 0.0
O64 O 0.18982 0.76513 0.15667 0.0
O65 O 0.16374 0.7743 0.19431 0.0
O66 O 0.09645 0.77615 0.18901 0.0
O67 O 0.12387 0.77638 0.15122 0.0
C68 C 0.14973 0.71432 0.21917 0.0
C69 C 0.10274 0.7862 0.16506 0.0
C70 C 0.05024 0.62996 0.0826 0.0
C71 C 0.9752 0.57848 0.03655 0.0
O72 O 0.04326 0.63005 0.05681 0.0
Zn73 Zn 0.01279 0.60378 0.06 0.0
O74 O 0.03753 0.61365 0.10007 0.0
Zn75 Zn 0.00326 0.58347 0.09822 0.0
O76 O 0.02037 0.54836 0.10898 0.0
O77 O 0.03302 0.56354 0.06671 0.0
O78 O 0.9774 0.57117 0.0625 0.0
O79 O 0.99132 0.59728 0.02648 0.0
O80 O 0.98334 0.6257 0.08661 0.0
O81 O 0.97638 0.59879 0.12406 0.0
C82 C 0.03382 0.54476 0.08615 0.0
C83 C 0.97133 0.62119 0.11039 0.0
C84 C 0.81856 0.70731 0.17595 0.0
C85 C 0.87512 0.78171 0.13495 0.0
O86 O 0.84094 0.71265 0.1902 0.0
Zn87 Zn 0.87681 0.74086 0.18787 0.0
O88 O 0.81256 0.72315 0.15521 0.0
Zn89 Zn 0.84546 0.74632 0.15715 0.0
O90 O 0.87809 0.71552 0.14752 0.0
O91 O 0.90701 0.71494 0.18421 0.0
O92 O 0.85023 0.77469 0.12824 0.0
O93 O 0.8871 0.77061 0.15634 0.0
O94 O 0.87638 0.76271 0.22159 0.0
O95 O 0.83821 0.76888 0.19607 0.0
C96 C 0.90006 0.70585 0.16004 0.0
C97 C 0.8521 0.77342 0.21883 0.0
C98 C 0.95519 0.85441 0.08147 0.0
C99 C 0.03118 0.90187 0.03312 0.0
O100 O 0.96453 0.85043 0.05671 0.0
Zn101 Zn 0.99415 0.87759 0.05843 0.0
O102 O 0.96628 0.87333 0.09723 0.0
Zn103 Zn 0.99919 0.90433 0.09318 0.0
O104 O 0.97737 0.93817 0.09751 0.0
O105 O 0.97149 0.91729 0.05643 0.0
O106 O 0.02544 0.91397 0.05667 0.0
O107 O 0.01944 0.87861 0.02751 0.0
O108 O 0.02108 0.86134 0.09012 0.0
O109 O 0.02546 0.89406 0.12285 0.0
C110 C 0.96643 0.93805 0.07306 0.0
C111 C 0.03165 0.86982 0.11338 0.0
C112 C 0.28003 0.15787 0.27379 0.0
C113 C 0.34986 0.11968 0.21012 0.0
O114 O 0.3038 0.17032 0.27707 0.0
Zn115 Zn 0.34592 0.16576 0.25995 0.0
O116 O 0.27806 0.13725 0.2569 0.0
Zn117 Zn 0.31586 0.13816 0.24288 0.0
O118 O 0.34066 0.12059 0.27639 0.0
O119 O 0.36772 0.15463 0.29247 0.0
O120 O 0.32394 0.11357 0.21236 0.0
O121 O 0.36098 0.13828 0.22634 0.0
O122 O 0.35226 0.20283 0.2445 0.0
O123 O 0.31799 0.17912 0.22358 0.0
C124 C 0.35951 0.1292 0.2937 0.0
C125 C 0.33276 0.20156 0.22621 0.0
C126 C 0.37722 0.38711 0.96169 0.0
C127 C 0.43768 0.42065 0.03837 0.0
O128 O 0.40045 0.37658 0.96985 0.0
Zn129 Zn 0.40818 0.4036 -0.00033 0.0
O130 O 0.3681 0.40971 0.97335 0.0
Zn131 Zn 0.38089 0.43855 0.00529 0.0
O132 O 0.38763 0.47339 0.98537 0.0
O133 O 0.42004 0.44108 0.97683 0.0
O134 O 0.41648 0.43653 0.03299 0.0
O135 O 0.44124 0.39878 0.02329 0.0
O136 O 0.37422 0.39759 0.02988 0.0
O137 O 0.34992 0.43743 0.03114 0.0
C138 C 0.41048 0.46614 0.97344 0.0
C139 C 0.3538 0.4124 0.03978 0.0
C140 C 0.65469 0.38277 0.20379 0.0
C141 C 0.71289 0.33779 0.27557 0.0
O142 O 0.6412 0.36425 0.21798 0.0
Zn143 Zn 0.64879 0.33712 0.25295 0.0
O144 O 0.68047 0.38756 0.20926 0.0
Zn145 Zn 0.68435 0.3609 0.23985 0.0
O146 O 0.67917 0.32107 0.21921 0.0
O147 O 0.64107 0.30059 0.23657 0.0
O148 O 0.72046 0.35608 0.25749 0.0
O149 O 0.68709 0.32962 0.27645 0.0
O150 O 0.62306 0.35288 0.28028 0.0
O151 O 0.65987 0.38015 0.27254 0.0
C152 C 0.66212 0.30014 0.21995 0.0
C153 C 0.63651 0.37551 0.28527 0.0
C154 C 0.55868 0.08748 0.02276 0.0
C155 C 0.62237 0.12122 0.94985 0.0
O156 O 0.55687 0.11021 0.00867 0.0
Zn157 Zn 0.59054 0.10432 0.98705 0.0
O158 O 0.5801 0.07118 0.01956 0.0
Zn159 Zn 0.61776 0.06988 0.99317 0.0
O160 O 0.64831 0.07134 0.01907 0.0
O161 O 0.62215 0.10974 0.01939 0.0
O162 O 0.63119 0.09844 0.96133 0.0
O163 O 0.5992 0.13183 0.95794 0.0
O164 O 0.57964 0.06616 0.96417 0.0
O165 O 0.61315 0.03504 0.97318 0.0
C166 C 0.643 0.09551 0.02915 0.0
C167 C 0.5903 0.04148 0.9609 0.0
C168 C 0.34252 0.88857 0.29079 0.0
C169 C 0.27817 0.84431 0.22515 0.0
O170 O 0.35547 0.87048 0.27547 0.0
Zn171 Zn 0.34483 0.84394 0.24032 0.0
O172 O 0.31666 0.89365 0.28646 0.0
Zn173 Zn 0.31101 0.86801 0.25572 0.0
O174 O 0.31695 0.82703 0.27481 0.0
O175 O 0.35416 0.80712 0.25476 0.0
O176 O 0.27329 0.86442 0.24211 0.0
O177 O 0.30344 0.83501 0.22192 0.0
O178 O 0.36809 0.85915 0.21059 0.0
O179 O 0.33264 0.88707 0.22084 0.0
C180 C 0.33378 0.80606 0.27217 0.0
C181 C 0.35485 0.88199 0.20631 0.0
C182 C 0.12643 0.37974 0.02385 0.0
C183 C 0.0561 0.41935 0.96091 0.0
O184 O 0.10416 0.36802 0.01477 0.0
Zn185 Zn 0.09193 0.39891 0.99189 0.0
O186 O 0.13274 0.40495 0.01638 0.0
Zn187 Zn 0.11448 0.43702 0.98981 0.0
O188 O 0.10825 0.46728 0.01506 0.0
O189 O 0.0806 0.43064 0.02318 0.0
O190 O 0.07549 0.43689 0.96752 0.0
O191 O 0.05797 0.39411 0.96956 0.0
O192 O 0.124 0.40037 0.96 0.0
O193 O 0.14156 0.44336 0.96054 0.0
C194 C 0.0883 0.45598 0.02889 0.0
C195 C 0.141 0.41882 0.94999 0.0
C196 C 0.67138 0.59951 0.29706 0.0
C197 C 0.72828 0.64594 0.22764 0.0
O198 O 0.65658 0.61828 0.28436 0.0
Zn199 Zn 0.66404 0.64817 0.25062 0.0
O200 O 0.69681 0.5956 0.29004 0.0
Zn201 Zn 0.69845 0.6228 0.26074 0.0
O202 O 0.69668 0.6632 0.282 0.0
O203 O 0.65727 0.68403 0.26829 0.0
O204 O 0.73385 0.62486 0.24308 0.0
O205 O 0.70337 0.65666 0.22764 0.0
O206 O 0.63766 0.6372 0.22191 0.0
O207 O 0.67242 0.60682 0.22722 0.0
C208 C 0.67977 0.68429 0.28273 0.0
C209 C 0.64978 0.61453 0.21458 0.0
C210 C 0.92985 0.07042 0.96168 0.0
C211 C 0.87325 0.11495 0.03512 0.0
O212 O 0.93569 0.09248 0.97579 0.0
Zn213 Zn 0.90311 0.09143 -0.00016 0.0
O214 O 0.90766 0.05644 0.96826 0.0
Zn215 Zn 0.87216 0.05991 0.99704 0.0
O216 O 0.84166 0.06126 0.97106 0.0
O217 O 0.8704 0.09804 0.9685 0.0
O218 O 0.86147 0.09279 0.02537 0.0
O219 O 0.89786 0.12162 0.02708 0.0
O220 O 0.9125 0.05359 0.02314 0.0
O221 O 0.87468 0.02684 0.01987 0.0
C222 C 0.84862 0.08453 0.95984 0.0
C223 C 0.89965 0.03047 0.02864 0.0
C224 C 0.20906 0.32615 0.18861 0.0
C225 C 0.27855 0.36209 0.12131 0.0
O226 O 0.21515 0.3087 0.16891 0.0
Zn227 Zn 0.24024 0.30733 0.13132 0.0
O228 O 0.21974 0.35072 0.18796 0.0
Zn229 Zn 0.24371 0.34499 0.15516 0.0
O230 O 0.21348 0.34637 0.12175 0.0
O231 O 0.21257 0.30439 0.10166 0.0
O232 O 0.27004 0.37403 0.14375 0.0
O233 O 0.26921 0.33768 0.11459 0.0
O234 O 0.26378 0.27535 0.13919 0.0
O235 O 0.27083 0.31084 0.16859 0.0
C236 C 0.20362 0.32959 0.10307 0.0
C237 C 0.27598 0.28545 0.16078 0.0
C238 C 0.28138 0.71724 0.33413 0.0
C239 C 0.21155 0.67078 0.39267 0.0
O240 O 0.27886 0.69113 0.32746 0.0
Zn241 Zn 0.25408 0.65554 0.34196 0.0
O242 O 0.26732 0.72721 0.35461 0.0
Zn243 Zn 0.24702 0.69373 0.36375 0.0
O244 O 0.2786 0.6668 0.38186 0.0
O245 O 0.2822 0.62927 0.35439 0.0
O246 O 0.21901 0.69646 0.39301 0.0
O247 O 0.22312 0.6536 0.37527 0.0
O248 O 0.23192 0.64548 0.30931 0.0
O249 O 0.22221 0.68753 0.32661 0.0
C250 C 0.28981 0.6429 0.37611 0.0
C251 C 0.21829 0.66847 0.30786 0.0
C252 C 0.88216 0.45752 0.87567 0.0
C253 C 0.91307 0.52048 0.95114 0.0
O254 O 0.87048 0.46106 0.89953 0.0
Zn255 Zn 0.89583 0.49019 0.91375 0.0
O256 O 0.90383 0.47223 0.86946 0.0
Zn257 Zn 0.92779 0.50551 0.88659 0.0
O258 O 0.96431 0.48907 0.88432 0.0
O259 O 0.93714 0.47015 0.91705 0.0
O260 O 0.92773 0.52273 0.92853 0.0
O261 O 0.89169 0.5043 0.95187 0.0
O262 O 0.88327 0.52566 0.88897 0.0
O263 O 0.91978 0.53685 0.86241 0.0
C264 C 0.96127 0.47209 0.90481 0.0
C265 C 0.89442 0.54101 0.86979 0.0
C266 C 0.79119 0.8251 0.31055 0.0
C267 C 0.71877 0.85242 0.37775 0.0
O268 O 0.78837 0.80757 0.331 0.0
Zn269 Zn 0.76409 0.80362 0.36924 0.0
O270 O 0.77724 0.84798 0.31074 0.0
Zn271 Zn 0.75635 0.83987 0.34457 0.0
O272 O 0.78876 0.8451 0.37533 0.0
O273 O 0.79089 0.80585 0.3998 0.0
O274 O 0.72784 0.86641 0.35681 0.0
O275 O 0.73002 0.82865 0.38366 0.0
O276 O 0.74594 0.7684 0.36292 0.0
O277 O 0.73331 0.80175 0.33266 0.0
C278 C 0.79947 0.83081 0.39554 0.0
C279 C 0.73183 0.77616 0.34153 0.0
C280 C 0.61793 0.53085 0.3815 0.0
C281 C 0.57743 0.46334 0.44727 0.0
O282 O 0.62868 0.52265 0.40463 0.0
Zn283 Zn 0.59876 0.49719 0.41466 0.0
O284 O 0.5939 0.52157 0.37345 0.0
Zn285 Zn 0.56243 0.49311 0.38865 0.0
O286 O 0.53002 0.51654 0.39429 0.0
O287 O 0.5644 0.5256 0.42436 0.0
O288 O 0.56139 0.46951 0.42652 0.0
O289 O 0.60205 0.47383 0.44818 0.0
O290 O 0.6023 0.46622 0.3822 0.0
O291 O 0.56155 0.46434 0.35979 0.0
C292 C 0.53924 0.53016 0.41544 0.0
C293 C 0.58667 0.45557 0.363 0.0
C294 C 0.2764 0.67654 0.69636 0.0
C295 C 0.21267 0.63861 0.62666 0.0
O296 O 0.27486 0.69214 0.67431 0.0
Zn297 Zn 0.25306 0.69167 0.63466 0.0
O298 O 0.2625 0.65371 0.69786 0.0
Zn299 Zn 0.24549 0.65681 0.66143 0.0
O300 O 0.28104 0.65183 0.63372 0.0
O301 O 0.28198 0.68906 0.60622 0.0
O302 O 0.2205 0.62694 0.64944 0.0
O303 O 0.22297 0.66247 0.61955 0.0
O304 O 0.23068 0.72531 0.63685 0.0
O305 O 0.21751 0.69267 0.6669 0.0
C306 C 0.29205 0.6652 0.613 0.0
C307 C 0.21364 0.71707 0.65585 0.0
C308 C 0.9059 0.45875 0.62803 0.0
C309 C 0.96008 0.53528 0.58488 0.0
O310 O 0.93153 0.46528 0.63219 0.0
Zn311 Zn 0.93371 0.4967 0.60625 0.0
O312 O 0.89145 0.47251 0.60989 0.0
Zn313 Zn 0.89723 0.50847 0.58335 0.0
O314 O 0.89035 0.49348 0.54595 0.0
O315 O 0.92997 0.47819 0.56523 0.0
O316 O 0.93443 0.53418 0.57642 0.0
O317 O 0.9687 0.51664 0.60214 0.0
O318 O 0.90814 0.52797 0.62638 0.0
O319 O 0.87054 0.53459 0.60003 0.0
C320 C 0.91273 0.4788 0.54448 0.0
C321 C 0.88429 0.53998 0.62239 0.0
C322 C 0.08098 0.04462 0.6476 0.0
C323 C 0.04158 0.96268 0.60003 0.0
O324 O 0.05734 0.03276 0.65152 0.0
Zn325 Zn 0.06132 0.00388 0.6234 0.0
O326 O 0.09765 0.03545 0.62836 0.0
Zn327 Zn 0.09744 0.00205 0.59755 0.0
O328 O 0.09872 0.02203 0.56205 0.0
O329 O 0.05799 0.02639 0.5843 0.0
O330 O 0.06558 0.96997 0.58982 0.0
O331 O 0.03118 0.97735 0.61988 0.0
O332 O 0.09514 0.97787 0.63897 0.0
O333 O 0.13007 0.98013 0.60822 0.0
C334 C 0.07375 0.03165 0.56298 0.0
C335 C 0.12002 0.9706 0.63114 0.0
C336 C 0.6881 0.72876 0.82668 0.0
C337 C 0.61828 0.78939 0.87064 0.0
O338 O 0.66682 0.73318 0.81062 0.0
Zn339 Zn 0.62734 0.75552 0.8128 0.0
O340 O 0.6888 0.7394 0.85123 0.0
Zn341 Zn 0.65299 0.75858 0.84888 0.0
O342 O 0.62311 0.72417 0.84924 0.0
O343 O 0.60008 0.72594 0.80881 0.0
O344 O 0.64171 0.78123 0.88064 0.0
O345 O 0.61046 0.78138 0.84606 0.0
O346 O 0.63094 0.78171 0.78222 0.0
O347 O 0.66101 0.78969 0.81636 0.0
C348 C 0.60435 0.71423 0.83248 0.0
C349 C 0.65083 0.79654 0.79225 0.0
C350 C 0.95931 0.05469 0.42313 0.0
C351 C 0.03387 0.11806 0.39096 0.0
O352 O 0.97666 0.05061 0.40311 0.0
Zn353 Zn 0.99773 0.08529 0.40737 0.0
O354 O 0.96181 0.07724 0.43778 0.0
Zn355 Zn 0.98689 0.11464 0.43938 0.0
O356 O 0.95936 0.14348 0.4333 0.0
O357 O 0.96682 0.11681 0.39568 0.0
O358 O 0.01989 0.12782 0.41191 0.0
O359 O 0.02895 0.09326 0.38217 0.0
O360 O 0.01785 0.07826 0.44735 0.0
O361 O 0.00437 0.11237 0.47605 0.0
C362 C 0.95427 0.13756 0.4077 0.0
C363 C 0.01853 0.0901 0.47163 0.0
C364 C 0.3793 0.70934 0.86365 0.0
C365 C 0.30227 0.77319 0.84004 0.0
O366 O 0.38425 0.72359 0.84129 0.0
Zn367 Zn 0.3643 0.75635 0.81813 0.0
O368 O 0.35608 0.71272 0.87657 0.0
Zn369 Zn 0.34015 0.74175 0.8527 0.0
O370 O 0.33168 0.72175 0.81255 0.0
O371 O 0.36084 0.74073 0.78134 0.0
O372 O 0.30301 0.75652 0.86105 0.0
O373 O 0.32346 0.77523 0.82344 0.0
O374 O 0.38912 0.78759 0.82234 0.0
O375 O 0.36609 0.77771 0.86159 0.0
C376 C 0.34098 0.72379 0.78723 0.0
C377 C 0.38387 0.79283 0.84803 0.0
C378 C 0.03627 0.44623 0.41545 0.0
C379 C 0.96767 0.37804 0.38205 0.0
O380 O 0.02569 0.44484 0.39091 0.0
Zn381 Zn 0.00248 0.41182 0.39787 0.0
O382 O 0.03022 0.42714 0.43352 0.0
Zn383 Zn 0.00641 0.38941 0.43628 0.0
O384 O 0.03545 0.36103 0.44001 0.0
O385 O 0.03354 0.37895 0.39728 0.0
O386 O 0.9767 0.3724 0.40691 0.0
O387 O 0.97706 0.39941 0.36891 0.0
O388 O 0.9745 0.42531 0.43198 0.0
O389 O 0.98357 0.39756 0.46839 0.0
C390 C 0.04449 0.36159 0.41482 0.0
C391 C 0.97012 0.41816 0.45778 0.0
C392 C 0.6708 0.22349 0.70051 0.0
C393 C 0.61643 0.29477 0.65295 0.0
O394 O 0.6788 0.22583 0.67474 0.0
Zn395 Zn 0.66543 0.25031 0.6382 0.0
O396 O 0.65015 0.23783 0.70957 0.0
Zn397 Zn 0.64327 0.25827 0.67572 0.0
O398 O 0.62426 0.22739 0.6487 0.0
O399 O 0.65236 0.22251 0.61182 0.0
O400 O 0.61543 0.28698 0.67846 0.0
O401 O 0.63365 0.28301 0.63569 0.0
O402 O 0.69968 0.26975 0.62856 0.0
O403 O 0.68217 0.28109 0.67029 0.0
C404 C 0.63007 0.21586 0.62499 0.0
C405 C 0.70167 0.28307 0.65167 0.0
C406 C 0.54597 0.13825 0.58389 0.0
C407 C 0.47144 0.08346 0.54016 0.0
O408 O 0.53651 0.1398 0.55893 0.0
Zn409 Zn 0.50834 0.11084 0.56212 0.0
O410 O 0.53586 0.11991 0.60094 0.0
Zn411 Zn 0.50519 0.08672 0.59931 0.0
O412 O 0.52866 0.05363 0.60426 0.0
O413 O 0.53253 0.07289 0.56231 0.0
O414 O 0.4763 0.07516 0.5655 0.0
O415 O 0.48486 0.10438 0.53021 0.0
O416 O 0.47941 0.12676 0.59321 0.0
O417 O 0.48008 0.09701 0.62925 0.0
C418 C 0.53891 0.05312 0.57954 0.0
C419 C 0.4708 0.11932 0.61773 0.0
C420 C 0.30497 0.2053 0.66889 0.0
C421 C 0.37306 0.27591 0.63956 0.0
O422 O 0.32436 0.20979 0.68712 0.0
Zn423 Zn 0.36281 0.2327 0.69061 0.0
O424 O 0.30717 0.21633 0.64463 0.0
Zn425 Zn 0.34066 0.23851 0.65248 0.0
O426 O 0.3738 0.20806 0.65012 0.0
O427 O 0.39202 0.20469 0.69268 0.0
O428 O 0.35288 0.26592 0.62507 0.0
O429 O 0.3785 0.26546 0.66389 0.0
O430 O 0.35566 0.25322 0.72398 0.0
O431 O 0.32761 0.26472 0.68831 0.0
C432 C 0.39168 0.19709 0.6671 0.0
C433 C 0.33532 0.2676 0.71416 0.0
C434 C 0.51775 0.40316 0.53501 0.0
C435 C 0.44779 0.36089 0.59626 0.0
O436 O 0.50158 0.38245 0.52988 0.0
Zn437 Zn 0.48353 0.3818 0.56566 0.0
O438 O 0.51785 0.41419 0.55973 0.0
Zn439 Zn 0.49623 0.40747 0.59965 0.0
O440 O 0.52583 0.39432 0.62458 0.0
O441 O 0.51712 0.36486 0.5898 0.0
O442 O 0.46184 0.37982 0.60936 0.0
O443 O 0.45324 0.35568 0.57063 0.0
O444 O 0.46424 0.42294 0.56751 0.0
O445 O 0.48023 0.4443 0.60581 0.0
C446 C 0.53113 0.37136 0.61186 0.0
C447 C 0.46493 0.44447 0.58383 0.0
C448 C 0.77694 0.66443 0.77416 0.0
C449 C 0.83531 0.61332 0.70723 0.0
O450 O 0.80311 0.67105 0.77657 0.0
Zn451 Zn 0.84281 0.65823 0.75668 0.0
O452 O 0.76934 0.64546 0.75686 0.0
Zn453 Zn 0.80616 0.63776 0.74236 0.0
O454 O 0.82567 0.61808 0.77796 0.0
O455 O 0.86473 0.64154 0.78623 0.0
O456 O 0.80912 0.61087 0.71195 0.0
O457 O 0.85007 0.63031 0.72207 0.0
O458 O 0.85544 0.69367 0.74176 0.0
O459 O 0.81554 0.67786 0.72336 0.0
C460 C 0.84843 0.62118 0.79212 0.0
C461 C 0.83442 0.69704 0.72551 0.0
C462 C 0.88187 0.88153 0.47077 0.0
C463 C 0.95406 0.91215 0.53661 0.0
O464 O 0.90701 0.87273 0.47328 0.0
Zn465 Zn 0.91799 0.89739 0.50373 0.0
O466 O 0.87347 0.90207 0.48617 0.0
Zn467 Zn 0.8913 0.92946 0.51749 0.0
O468 O 0.8904 0.96507 0.4993 0.0
O469 O 0.92372 0.93747 0.48243 0.0
O470 O 0.9321 0.92793 0.53804 0.0
O471 O 0.9545 0.89125 0.51992 0.0
O472 O 0.88896 0.8863 0.53801 0.0
O473 O 0.86558 0.92552 0.54773 0.0
C474 C 0.9111 0.96139 0.48281 0.0
C475 C 0.8702 0.89965 0.55239 0.0
C476 C 0.16775 0.80699 0.71869 0.0
C477 C 0.14897 0.87967 0.78884 0.0
O478 O 0.1878 0.82502 0.72042 0.0
Zn479 Zn 0.19655 0.86296 0.74356 0.0
O480 O 0.14542 0.81038 0.7331 0.0
Zn481 Zn 0.15723 0.84414 0.75244 0.0
O482 O 0.15558 0.8755 0.72019 0.0
O483 O 0.1986 0.89234 0.71511 0.0
O484 O 0.13246 0.86049 0.78005 0.0
O485 O 0.17337 0.88201 0.77755 0.0
O486 O 0.23039 0.85247 0.76277 0.0
O487 O 0.19261 0.82935 0.77758 0.0
C488 C 0.17279 0.89242 0.70814 0.0
C489 C 0.21921 0.83427 0.77898 0.0
C490 C 0.13559 0.59093 0.54613 0.0
C491 C 0.0958 0.53647 0.47062 0.0
O492 O 0.14048 0.5656 0.53916 0.0
Zn493 Zn 0.11629 0.56519 0.5074 0.0
O494 O 0.11778 0.60583 0.53217 0.0
Zn495 Zn 0.09084 0.59903 0.49547 0.0
O496 O 0.05409 0.60537 0.51097 0.0
O497 O 0.07476 0.56661 0.52689 0.0
O498 O 0.08363 0.56057 0.47218 0.0
O499 O 0.11735 0.53172 0.4856 0.0
O500 O 0.13656 0.59499 0.48074 0.0
O501 O 0.10539 0.62603 0.46806 0.0
C502 C 0.05341 0.58327 0.52612 0.0
C503 C 0.13083 0.61774 0.46769 0.0
C504 C 0.83975 0.38187 0.78954 0.0
C505 C 0.78992 0.33415 0.71422 0.0
O506 O 0.85603 0.36506 0.77607 0.0
Zn507 Zn 0.8527 0.33751 0.7405 0.0
O508 O 0.81419 0.38449 0.78218 0.0
Zn509 Zn 0.81472 0.35788 0.75152 0.0
O510 O 0.8216 0.31812 0.7719 0.0
O511 O 0.86226 0.30121 0.75666 0.0
O512 O 0.78009 0.3511 0.73249 0.0
O513 O 0.81623 0.32764 0.71449 0.0
O514 O 0.87855 0.35524 0.71431 0.0
O515 O 0.8387 0.37845 0.71893 0.0
C516 C 0.84031 0.29863 0.77182 0.0
C517 C 0.8629 0.3758 0.70718 0.0
C518 C 0.63781 0.90058 0.45435 0.0
C519 C 0.60045 0.96196 0.52666 0.0
O520 O 0.64451 0.92579 0.46013 0.0
Zn521 Zn 0.61971 0.9307 0.49141 0.0
O522 O 0.61845 0.8881 0.46852 0.0
Zn523 Zn 0.59166 0.89851 0.50378 0.0
O524 O 0.55434 0.89524 0.48778 0.0
O525 O 0.57838 0.9322 0.47242 0.0
O526 O 0.58771 0.9381 0.52617 0.0
O527 O 0.62203 0.96564 0.51127 0.0
O528 O 0.63639 0.90221 0.52157 0.0
O529 O 0.60372 0.87173 0.5324 0.0
C530 C 0.5557 0.91746 0.47286 0.0
C531 C 0.62904 0.87999 0.53492 0.0
C532 C 0.20911 0.15826 0.7268 0.0
C533 C 0.14725 0.12094 0.79799 0.0
O534 O 0.18584 0.17217 0.72715 0.0
Zn535 Zn 0.14568 0.16825 0.74939 0.0
O536 O 0.21185 0.13706 0.74277 0.0
Zn537 Zn 0.17732 0.14072 0.76233 0.0
O538 O 0.14837 0.12359 0.73194 0.0
O539 O 0.11912 0.15779 0.72011 0.0
O540 O 0.1732 0.11627 0.79362 0.0
O541 O 0.13416 0.13948 0.78325 0.0
O542 O 0.14127 0.20476 0.76633 0.0
O543 O 0.17883 0.18203 0.78178 0.0
C544 C 0.1274 0.13248 0.71746 0.0
C545 C 0.16332 0.20421 0.78147 0.0
C546 C 0.37839 0.61725 0.54029 0.0
C547 C 0.45144 0.58864 0.47417 0.0
O548 O 0.40283 0.62755 0.53679 0.0
Zn549 Zn 0.41441 0.60282 0.50679 0.0
O550 O 0.37089 0.59562 0.52584 0.0
Zn551 Zn 0.38979 0.56863 0.49415 0.0
O552 O 0.39144 0.53261 0.51236 0.0
O553 O 0.42232 0.56326 0.52891 0.0
O554 O 0.43041 0.57169 0.47384 0.0
O555 O 0.45061 0.61055 0.48947 0.0
O556 O 0.38379 0.61185 0.47363 0.0
O557 O 0.3645 0.57085 0.46333 0.0
C558 C 0.41163 0.53838 0.52886 0.0
C559 C 0.36646 0.59712 0.45891 0.0
C560 C 0.7058 0.83826 0.62039 0.0
C561 C 0.77616 0.78672 0.6735 0.0
O562 O 0.7186 0.85427 0.63792 0.0
Zn563 Zn 0.75231 0.85006 0.66774 0.0
O564 O 0.71171 0.81219 0.6196 0.0
Zn565 Zn 0.74057 0.81209 0.64788 0.0
O566 O 0.71885 0.82085 0.68665 0.0
O567 O 0.73497 0.86144 0.7028 0.0
O568 O 0.7583 0.77707 0.65605 0.0
O569 O 0.77637 0.81308 0.6796 0.0
O570 O 0.78086 0.87387 0.65115 0.0
O571 O 0.77448 0.83424 0.62777 0.0
C572 C 0.71891 0.84019 0.70552 0.0
C573 C 0.78745 0.8577 0.6308 0.0
C574 C 0.78392 0.13403 0.86991 0.0
C575 C 0.73035 0.17098 0.79127 0.0
O576 O 0.7741 0.15861 0.87491 0.0
Zn577 Zn 0.74839 0.18874 0.85428 0.0
O578 O 0.77909 0.12217 0.84642 0.0
Zn579 Zn 0.7569 0.15221 0.83013 0.0
O580 O 0.78675 0.18625 0.8251 0.0
O581 O 0.77291 0.221 0.85223 0.0
O582 O 0.74313 0.14747 0.79238 0.0
O583 O 0.7307 0.18781 0.81246 0.0
O584 O 0.71652 0.18928 0.87956 0.0
O585 O 0.71858 0.15069 0.85429 0.0
C586 C 0.79083 0.2111 0.8349 0.0
C587 C 0.70616 0.16543 0.87317 0.0
C588 C 0.3899 0.96202 0.3754 0.0
C589 C 0.41407 0.02642 0.45141 0.0
O590 O 0.3758 0.96769 0.39744 0.0
Zn591 Zn 0.40107 0.99557 0.41326 0.0
O592 O 0.41322 0.97482 0.37098 0.0
Zn593 Zn 0.43694 0.0077 0.39003 0.0
O594 O 0.47296 0.99024 0.3946 0.0
O595 O 0.43996 0.97293 0.4228 0.0
O596 O 0.4316 0.02754 0.43082 0.0
O597 O 0.3923 0.01087 0.44983 0.0
O598 O 0.39461 0.0314 0.38632 0.0
O599 O 0.43414 0.03757 0.36286 0.0
C600 C 0.4656 0.97336 0.41403 0.0
C601 C 0.40877 0.04468 0.36752 0.0
C602 C 0.27835 0.33019 0.80014 0.0
C603 C 0.21739 0.37656 0.86688 0.0
O604 O 0.27517 0.31535 0.82254 0.0
Zn605 Zn 0.25349 0.31982 0.86245 0.0
O606 O 0.26727 0.35445 0.79817 0.0
Zn607 Zn 0.24947 0.35373 0.83423 0.0
O608 O 0.28487 0.35671 0.86274 0.0
O609 O 0.28231 0.32002 0.89091 0.0
O610 O 0.22606 0.38574 0.84333 0.0
O611 O 0.2258 0.35264 0.87609 0.0
O612 O 0.22868 0.28799 0.86144 0.0
O613 O 0.21929 0.31954 0.82896 0.0
C614 C 0.29445 0.34276 0.88385 0.0
C615 C 0.21339 0.29601 0.84096 0.0
C616 C 0.09895 0.04005 0.87449 0.0
C617 C 0.0809 0.9706 0.94772 0.0
O618 O 0.11186 0.03697 0.89774 0.0
Zn619 Zn 0.09046 0.00528 0.91167 0.0
O620 O 0.07839 0.0238 0.86836 0.0
Zn621 Zn 0.05876 0.9877 0.88574 0.0
O622 O 0.02059 -0.00082 0.88759 0.0
O623 O 0.04798 0.02159 0.91806 0.0
O624 O 0.06479 0.96823 0.9261 0.0
O625 O 0.09981 0.98955 0.94807 0.0
O626 O 0.1045 0.97183 0.8847 0.0
O627 O 0.06813 0.95872 0.85903 0.0
C628 C 0.02353 0.01706 0.90727 0.0
C629 C 0.09404 0.95638 0.86523 0.0
C630 C 0.79424 0.17261 0.1063 0.0
C631 C 0.71336 0.21691 0.1522 0.0
O632 O 0.78183 0.15582 0.12351 0.0
Zn633 Zn 0.74706 0.15791 0.15284 0.0
O634 O 0.78593 0.19795 0.10389 0.0
Zn635 Zn 0.75489 0.19543 0.12975 0.0
O636 O 0.77488 0.19308 0.16985 0.0
O637 O 0.76456 0.15189 0.18911 0.0
O638 O 0.73027 0.22757 0.13433 0.0
O639 O 0.71822 0.19186 0.16095 0.0
O640 O 0.7211 0.1301 0.1389 0.0
O641 O 0.72785 0.16554 0.10958 0.0
C642 C 0.77707 0.17551 0.19021 0.0
C643 C 0.71608 0.14194 0.11539 0.0
C644 C 0.40887 0.96234 0.13136 0.0
C645 C 0.47109 0.02979 0.08441 0.0
O646 O 0.43545 0.96459 0.13377 0.0
Zn647 Zn 0.44078 0.99606 0.10815 0.0
O648 O 0.39551 0.97889 0.11479 0.0
Zn649 Zn 0.40493 0.01391 0.08819 0.0
O650 O 0.39258 0.0006 0.05162 0.0
O651 O 0.43062 0.97891 0.06757 0.0
O652 O 0.44494 0.03348 0.07839 0.0
O653 O 0.47826 0.01019 0.10125 0.0
O654 O 0.42188 0.03046 0.13052 0.0
O655 O 0.38417 0.04344 0.10682 0.0
C656 C 0.41217 0.98262 0.04818 0.0
C657 C 0.39989 0.04594 0.12838 0.0
C658 C 0.53189 0.47856 0.08734 0.0
C659 C 0.59799 0.5427 0.13124 0.0
O660 O 0.52775 0.49696 0.10631 0.0
Zn661 Zn 0.56507 0.5106 0.10822 0.0
O662 O 0.5568 0.47514 0.07708 0.0
Zn663 Zn 0.59839 0.49415 0.08447 0.0
O664 O 0.62127 0.4639 0.09917 0.0
O665 O 0.5855 0.47466 0.12639 0.0
O666 O 0.61049 0.5274 0.11283 0.0
O667 O 0.57168 0.54015 0.13502 0.0
O668 O 0.57098 0.52989 0.06749 0.0
O669 O 0.60789 0.50902 0.04805 0.0
C670 C 0.60724 0.45947 0.12155 0.0
C671 C 0.58806 0.52696 0.04672 0.0
C672 C 0.19752 0.32411 0.24109 0.0
C673 C 0.19134 0.31624 0.21277 0.0
C674 C 0.15917 0.28008 0.23076 0.0
C675 C 0.16201 0.29085 0.25855 0.0
N676 N 0.17882 0.32865 0.28822 0.0
N677 N 0.15921 0.29179 0.18144 0.0
C678 C 0.17953 0.31467 0.26312 0.0
C679 C 0.16984 0.29594 0.20784 0.0
N680 N 0.22151 0.33863 0.24761 0.0
N681 N 0.14825 0.25384 0.22605 0.0
H682 H 0.16533 0.30373 0.16411 0.0
H683 H 0.14192 0.27877 0.1776 0.0
H684 H 0.14287 0.23991 0.24214 0.0
H685 H 0.14818 0.24451 0.20615 0.0
H686 H 0.2277 0.34243 0.26835 0.0
H687 H 0.23706 0.34366 0.23298 0.0
H688 H 0.18956 0.34753 0.29157 0.0
H689 H 0.16498 0.3232 0.30435 0.0
C690 C 0.57809 0.53089 0.99489 0.0
C691 C 0.58393 0.54415 0.02104 0.0
C692 C 0.57457 0.5904 -0.00011 0.0
C693 C 0.56564 0.57656 0.97488 0.0
N694 N 0.57612 0.53711 0.94444 0.0
N695 N 0.59581 0.58637 0.0465 0.0
C696 C 0.57286 0.54786 0.97092 0.0
C697 C 0.58476 0.574 0.02293 0.0
N698 N 0.57592 0.50223 0.99309 0.0
N699 N 0.57374 0.61915 0.00114 0.0
H700 H 0.60436 0.57467 0.06304 0.0
H701 H 0.59837 0.60797 0.04908 0.0
H702 H 0.57055 0.63144 0.98318 0.0
H703 H 0.57672 0.63082 0.01944 0.0
H704 H 0.56863 0.49202 0.97506 0.0
H705 H 0.57897 0.48879 0.0102 0.0
H706 H 0.58301 0.51659 0.94067 0.0
H707 H 0.57644 0.54988 0.92657 0.0
C708 C 0.83239 0.18763 0.24691 0.0
C709 C 0.82166 0.21304 0.25846 0.0
C710 C 0.7786 0.20803 0.23075 0.0
C711 C 0.79093 0.18509 0.21625 0.0
N712 N 0.82999 0.15351 0.20878 0.0
N713 N 0.78673 0.2501 0.25799 0.0
C714 C 0.81786 0.17473 0.22403 0.0
C715 C 0.79524 0.22389 0.24965 0.0
N716 N 0.85622 0.17583 0.25798 0.0
N717 N 0.75079 0.21444 0.22661 0.0
H718 H 0.79852 0.26274 0.27148 0.0
H719 H 0.76941 0.26044 0.24932 0.0
H720 H 0.73778 0.20262 0.21343 0.0
H721 H 0.73996 0.22949 0.23835 0.0
H722 H 0.86367 0.15598 0.2523 0.0
H723 H 0.86743 0.18506 0.27449 0.0
H724 H 0.85085 0.14715 0.21129 0.0
H725 H 0.81955 0.14325 0.19238 0.0
C726 C 0.42947 0.962 0.97267 0.0
C727 C 0.43754 0.93364 0.97773 0.0
C728 C 0.41562 0.93579 0.02452 0.0
C729 C 0.41453 0.96559 0.02206 0.0
N730 N 0.41852 0.00741 0.99319 0.0
N731 N 0.42583 0.89082 0.00201 0.0
C732 C 0.42021 0.97877 0.99575 0.0
C733 C 0.42666 0.91962 0.00179 0.0
N734 N 0.42907 0.97249 0.94587 0.0
N735 N 0.40692 0.92329 0.049 0.0
H736 H 0.43164 0.87893 0.98442 0.0
H737 H 0.41706 0.87879 0.01808 0.0
H738 H 0.39677 0.93451 0.06499 0.0
H739 H 0.40994 0.90212 0.05381 0.0
H740 H 0.42152 0.99247 0.94082 0.0
H741 H 0.43205 0.95993 0.92815 0.0
H742 H 0.42618 0.01842 0.9758 0.0
H743 H 0.4112 0.02053 0.00919 0.0
C744 C 0.17323 0.68983 0.29205 0.0
C745 C 0.19763 0.67416 0.28504 0.0
C746 C 0.18352 0.67674 0.23554 0.0
C747 C 0.16396 0.69844 0.24222 0.0
N748 N 0.14638 0.73036 0.27853 0.0
N749 N 0.22822 0.65608 0.24813 0.0
C750 C 0.16011 0.70618 0.27097 0.0
C751 C 0.20338 0.66816 0.25624 0.0
N752 N 0.16279 0.68945 0.31887 0.0
N753 N 0.18294 0.66395 0.20977 0.0
H754 H 0.24424 0.65066 0.26207 0.0
H755 H 0.23401 0.65406 0.22701 0.0
H756 H 0.16741 0.66829 0.19484 0.0
H757 H 0.19559 0.64666 0.20483 0.0
H758 H 0.14391 0.69934 0.32434 0.0
H759 H 0.17116 0.67642 0.3345 0.0
H760 H 0.14527 0.73718 0.29941 0.0
H761 H 0.13978 0.74565 0.26428 0.0
C762 C 0.92989 0.5725 0.0098 0.0
C763 C 0.95694 0.56219 0.01739 0.0
C764 C 0.94965 0.52048 0.98815 0.0
C765 C 0.92478 0.53277 0.97719 0.0
N766 N 0.89113 0.5707 0.97628 0.0
N767 N 0.99453 0.5285 0.01066 0.0
C768 C 0.91462 0.55875 0.98787 0.0
C769 C 0.96731 0.53664 0.00588 0.0
N770 N 0.9189 0.59526 0.02361 0.0
N771 N 0.95617 0.49315 0.9818 0.0
H772 H 0.00829 0.53971 0.02356 0.0
H773 H 0.00423 0.51205 -0.00018 0.0
H774 H 0.94285 0.48037 0.96989 0.0
H775 H 0.97297 0.48228 0.99081 0.0
H776 H 0.8983 0.60232 0.02088 0.0
H777 H 0.92983 0.60587 0.03948 0.0
H778 H 0.88433 0.59105 0.98087 0.0
H779 H 0.87915 0.56058 0.96087 0.0
C780 C 0.84459 0.78272 0.2709 0.0
C781 C 0.8392 0.78987 0.24227 0.0
C782 C 0.80216 0.82219 0.25795 0.0
C783 C 0.80977 0.81714 0.28655 0.0
N784 N 0.84613 0.80087 0.31834 0.0
N785 N 0.81982 0.82457 0.21025 0.0
C786 C 0.83375 0.8003 0.29236 0.0
C787 C 0.82026 0.81228 0.23627 0.0
N788 N 0.85787 0.75821 0.27811 0.0
N789 N 0.77709 0.8345 0.25095 0.0
H790 H 0.83421 0.8194 0.19445 0.0
H791 H 0.80762 0.84231 0.2058 0.0
H792 H 0.76179 0.84032 0.26553 0.0
H793 H 0.77015 0.83596 0.23015 0.0
H794 H 0.8601 0.75178 0.29902 0.0
H795 H 0.86304 0.74249 0.26371 0.0
H796 H 0.8648 0.7901 0.32272 0.0
H797 H 0.8397 0.81477 0.33415 0.0
C798 C 0.07773 0.9579 0.00019 0.0
C799 C 0.07682 0.95028 0.97123 0.0
C800 C 0.04786 0.9097 0.9825 0.0
C801 C 0.04958 0.91614 0.01185 0.0
N802 N 0.0779 0.93929 0.04759 0.0
N803 N 0.07393 0.91122 0.93889 0.0
C804 C 0.06832 0.93797 0.0205 0.0
C805 C 0.06661 0.92331 0.96393 0.0
N806 N 0.08603 0.98409 0.00865 0.0
N807 N 0.02707 0.89319 0.97134 0.0
H808 H 0.08877 0.92044 0.92548 0.0
H809 H 0.0679 0.89077 0.93351 0.0
H810 H 0.0093 0.88655 0.98227 0.0
H811 H 0.02518 0.88991 0.94968 0.0
H812 H 0.08401 0.99085 0.02948 0.0
H813 H 0.09286 -0.00023 0.99497 0.0
H814 H 0.09292 0.95397 0.05407 0.0
H815 H 0.07404 0.92339 0.06227 0.0
C816 C 0.23156 0.17793 0.27022 0.0
C817 C 0.25431 0.16917 0.28745 0.0
C818 C 0.22679 0.18113 0.32973 0.0
C819 C 0.20454 0.19091 0.31207 0.0
N820 N 0.1812 0.18284 0.26733 0.0
N821 N 0.27285 0.15863 0.33352 0.0
C822 C 0.20539 0.18457 0.28284 0.0
C823 C 0.25175 0.16968 0.31729 0.0
N824 N 0.23513 0.18111 0.24179 0.0
N825 N 0.22339 0.18183 0.35833 0.0
H826 H 0.29141 0.15054 0.325 0.0
H827 H 0.27197 0.15646 0.35529 0.0
H828 H 0.20371 0.18497 0.36768 0.0
H829 H 0.23944 0.17848 0.37284 0.0
H830 H 0.2199 0.19033 0.2289 0.0
H831 H 0.25428 0.17747 0.23158 0.0
H832 H 0.18103 0.17674 0.24623 0.0
H833 H 0.16124 0.18235 0.27645 0.0
C834 C 0.43293 0.52341 0.92149 0.0
C835 C 0.46114 0.52789 0.93029 0.0
C836 C 0.45544 0.49333 0.96808 0.0
C837 C 0.42779 0.48729 0.95823 0.0
N838 N 0.39157 0.49335 0.92307 0.0
N839 N 0.50129 0.51323 0.9577 0.0
C840 C 0.41688 0.50142 0.93418 0.0
C841 C 0.47303 0.51154 0.95222 0.0
N842 N 0.42119 0.54086 0.90179 0.0
N843 N 0.46434 0.48312 0.99353 0.0
H844 H 0.51484 0.52631 0.94635 0.0
H845 H 0.51173 0.49974 0.97152 0.0
H846 H 0.45171 0.47076 0.00652 0.0
H847 H 0.48306 0.48931 0.00317 0.0
H848 H 0.3998 0.54093 0.89689 0.0
H849 H 0.4326 0.55662 0.89153 0.0
H850 H 0.38389 0.50068 0.90387 0.0
H851 H 0.3791 0.47762 0.93203 0.0
C852 C 0.75563 0.28166 0.31414 0.0
C853 C 0.77824 0.29815 0.32454 0.0
C854 C 0.75389 0.34106 0.30917 0.0
C855 C 0.73421 0.32426 0.29413 0.0
N856 N 0.71948 0.27793 0.27861 0.0
N857 N 0.79984 0.3435 0.33155 0.0
C858 C 0.73553 0.29436 0.29601 0.0
C859 C 0.77757 0.3279 0.32207 0.0
N860 N 0.75398 0.25361 0.32051 0.0
N861 N 0.74951 0.3694 0.31185 0.0
H862 H 0.81667 0.33459 0.34257 0.0
H863 H 0.80224 0.3649 0.32728 0.0
H864 H 0.73182 0.37952 0.30357 0.0
H865 H 0.7618 0.38233 0.32462 0.0
H866 H 0.73639 0.2413 0.31593 0.0
H867 H 0.76892 0.24313 0.33271 0.0
H868 H 0.72119 0.25609 0.2776 0.0
H869 H 0.70676 0.28604 0.2627 0.0
C870 C 0.56847 0.98177 0.9116 0.0
C871 C 0.54125 0.97593 0.92251 0.0
C872 C 0.54727 0.01151 0.95879 0.0
C873 C 0.57357 0.01923 0.94691 0.0
N874 N 0.60793 0.01441 0.90972 0.0
N875 N 0.50166 0.9907 0.95069 0.0
C876 C 0.58382 0.00521 0.9225 0.0
C877 C 0.52964 0.99274 0.94411 0.0
N878 N 0.58 0.96431 0.89182 0.0
N879 N 0.54008 0.02001 0.9853 0.0
H880 H 0.48792 0.97752 0.93973 0.0
H881 H 0.49167 0.00432 0.96474 0.0
H882 H 0.55339 0.03199 0.99787 0.0
H883 H 0.52265 0.01202 0.99604 0.0
H884 H 0.60094 0.96552 0.8853 0.0
H885 H 0.56893 0.94746 0.88305 0.0
H886 H 0.61502 0.00685 0.89037 0.0
H887 H 0.61987 0.03108 0.91762 0.0
C888 C 0.22037 0.81872 0.17559 0.0
C889 C 0.2095 0.7957 0.19139 0.0
C890 C 0.24149 0.80703 0.23031 0.0
C891 C 0.25425 0.82818 0.21342 0.0
N892 N 0.25854 0.85225 0.16896 0.0
N893 N 0.21366 0.7644 0.23138 0.0
C894 C 0.24452 0.83344 0.18569 0.0
C895 C 0.22105 0.78894 0.21817 0.0
N896 N 0.20689 0.82727 0.1516 0.0
N897 N 0.24873 0.80432 0.25809 0.0
H898 H 0.19992 0.74975 0.22264 0.0
H899 H 0.22319 0.75708 0.24973 0.0
H900 H 0.264 0.81674 0.26778 0.0
H901 H 0.23794 0.79145 0.27223 0.0
H902 H 0.21205 0.84561 0.1407 0.0
H903 H 0.18883 0.81739 0.14391 0.0
H904 H 0.2544 0.85481 0.14756 0.0
H905 H 0.27575 0.86394 0.17608 0.0
C906 C 0.04318 0.47626 0.04884 0.0
C907 C 0.07304 0.47319 0.05008 0.0
C908 C 0.07625 0.51369 0.08197 0.0
C909 C 0.04679 0.5173 0.07966 0.0
N910 N 0.00135 0.49714 0.06966 0.0
N911 N 0.11626 0.48258 0.07506 0.0
C912 C 0.02997 0.49665 0.0663 0.0
C913 C 0.08903 0.48986 0.0691 0.0
N914 N 0.02757 0.46174 0.02944 0.0
N915 N 0.092 0.53347 0.0957 0.0
H916 H 0.12572 0.46456 0.06666 0.0
H917 H 0.12838 0.49259 0.09036 0.0
H918 H 0.08283 0.55018 0.1067 0.0
H919 H 0.11395 0.53393 0.09523 0.0
H920 H 0.00621 0.46533 0.02602 0.0
H921 H 0.03595 0.44764 0.01493 0.0
H922 H 0.98811 0.4811 0.06267 0.0
H923 H 0.99109 0.51229 0.08186 0.0
C924 C 0.80074 0.67471 0.21365 0.0
C925 C 0.79837 0.68502 0.18575 0.0
C926 C 0.75107 0.66364 0.18298 0.0
C927 C 0.75164 0.65999 0.21266 0.0
N928 N 0.77563 0.66766 0.25704 0.0
N929 N 0.77404 0.68223 0.14112 0.0
C930 C 0.77607 0.66712 0.22824 0.0
C931 C 0.77424 0.67743 0.1695 0.0
N932 N 0.82649 0.6702 0.22568 0.0
N933 N 0.72912 0.65287 0.16772 0.0
H934 H 0.79245 0.6863 0.1298 0.0
H935 H 0.756 0.68134 0.12869 0.0
H936 H 0.71216 0.64239 0.17701 0.0
H937 H 0.72831 0.65265 0.14582 0.0
H938 H 0.8288 0.66124 0.24562 0.0
H939 H 0.84515 0.67071 0.21405 0.0
H940 H 0.79256 0.67513 0.2689 0.0
H941 H 0.75748 0.6638 0.26885 0.0
C942 C 0.91331 0.97933 0.02973 0.0
C943 C 0.91531 0.00671 0.04158 0.0
C944 C 0.95355 0.99007 0.07184 0.0
C945 C 0.94819 0.96175 0.06331 0.0
N946 N 0.91584 0.9298 0.03967 0.0
N947 N 0.93306 0.03619 0.07909 0.0
C948 C 0.92584 0.95643 0.04404 0.0
C949 C 0.93402 0.01148 0.06436 0.0
N950 N 0.90123 0.9751 0.00392 0.0
N951 N 0.97806 0.99718 0.08518 0.0
H952 H 0.91827 0.05193 0.07494 0.0
H953 H 0.94484 0.03953 0.09733 0.0
H954 H 0.9946 0.98312 0.08838 0.0
H955 H 0.98348 0.018 0.08961 0.0
H956 H 0.90171 0.95562 0.99375 0.0
H957 H 0.89421 0.99143 0.99101 0.0
H958 H 0.89804 0.92579 0.02742 0.0
H959 H 0.92289 0.91227 0.05078 0.0
C960 C 0.28572 0.2619 0.20717 0.0
C961 C 0.29369 0.26695 0.17868 0.0
C962 C 0.33112 0.23145 0.18266 0.0
C963 C 0.32338 0.22705 0.21116 0.0
N964 N 0.29856 0.24264 0.25265 0.0
N965 N 0.32755 0.26126 0.14118 0.0
C966 C 0.30255 0.244 0.22412 0.0
C967 C 0.31755 0.25314 0.16696 0.0
N968 N 0.2609 0.27233 0.21751 0.0
N969 N 0.35093 0.21441 0.17052 0.0
H970 H 0.31831 0.2774 0.12944 0.0
H971 H 0.3463 0.2538 0.13254 0.0
H972 H 0.36234 0.19954 0.18204 0.0
H973 H 0.35516 0.21413 0.14898 0.0
H974 H 0.25241 0.26651 0.2369 0.0
H975 H 0.24721 0.28466 0.20571 0.0
H976 H 0.28569 0.25659 0.2637 0.0
H977 H 0.31021 0.22935 0.26571 0.0
C978 C 0.30974 0.75958 0.27201 0.0
C979 C 0.32645 0.77955 0.28663 0.0
C980 C 0.31971 0.75336 0.33057 0.0
C981 C 0.29917 0.73638 0.31699 0.0
N982 N 0.27237 0.72506 0.27505 0.0
N983 N 0.34699 0.79662 0.32972 0.0
C984 C 0.29391 0.73953 0.28763 0.0
C985 C 0.33155 0.77664 0.31588 0.0
N986 N 0.30846 0.76028 0.24322 0.0
N987 N 0.32829 0.74679 0.35727 0.0
H988 H 0.35706 0.81316 0.31925 0.0
H989 H 0.3486 0.79765 0.35158 0.0
H990 H 0.32049 0.72942 0.3683 0.0
H991 H 0.34498 0.7568 0.3674 0.0
H992 H 0.299 0.74459 0.23115 0.0
H993 H 0.31909 0.77524 0.23112 0.0
H994 H 0.26579 0.72858 0.25443 0.0
H995 H 0.25926 0.71108 0.28571 0.0
C996 C 0.01331 0.46863 0.91594 0.0
C997 C 0.98594 0.45645 0.91635 0.0
C998 C 0.00392 0.41924 0.94729 0.0
C999 C 0.03193 0.42942 0.94349 0.0
N1000 N 0.06277 0.45779 0.91414 0.0
N1001 N 0.95836 0.41439 0.92511 0.0
C1002 C 0.0365 0.45205 0.92443 0.0
C1003 C 0.98219 0.42986 0.92963 0.0
N1004 N 0.01743 0.49645 0.90976 0.0
N1005 N 0.99727 0.40109 0.96862 0.0
H1006 H 0.94291 0.42035 0.91064 0.0
H1007 H 0.95586 0.39402 0.93298 0.0
H1008 H 0.01153 0.39451 0.9839 0.0
H1009 H 0.97652 0.39533 0.9731 0.0
H1010 H 0.03719 0.50597 0.9113 0.0
H1011 H 0.00108 0.51087 0.90726 0.0
H1012 H 0.06626 0.47319 0.89882 0.0
H1013 H 0.08014 0.44493 0.91805 0.0
C1014 C 0.72479 0.74772 0.2977 0.0
C1015 C 0.71579 0.75496 0.32533 0.0
C1016 C 0.68039 0.71727 0.32415 0.0
C1017 C 0.68921 0.71052 0.29644 0.0
N1018 N 0.71388 0.72378 0.25404 0.0
N1019 N 0.68182 0.75075 0.3629 0.0
C1020 C 0.70952 0.72723 0.28233 0.0
C1021 C 0.69256 0.74094 0.33801 0.0
N1022 N 0.74889 0.75913 0.28672 0.0
N1023 N 0.66089 0.70066 0.33735 0.0
H1024 H 0.69017 0.76819 0.37336 0.0
H1025 H 0.66338 0.74315 0.37205 0.0
H1026 H 0.65044 0.68431 0.32703 0.0
H1027 H 0.65594 0.70225 0.35866 0.0
H1028 H 0.7583 0.75206 0.26818 0.0
H1029 H 0.76103 0.77398 0.2973 0.0
H1030 H 0.72647 0.73715 0.24199 0.0
H1031 H 0.70253 0.70937 0.24198 0.0
C1032 C 0.47928 0.58123 0.42969 0.0
C1033 C 0.4777 0.58024 0.45948 0.0
C1034 C 0.5182 0.5484 0.461 0.0
C1035 C 0.52017 0.54962 0.43102 0.0
N1036 N 0.50829 0.57434 0.38818 0.0
N1037 N 0.50074 0.5704 0.50368 0.0
C1038 C 0.50245 0.56829 0.41574 0.0
C1039 C 0.49916 0.56667 0.47516 0.0
N1040 N 0.4584 0.59413 0.4147 0.0
N1041 N 0.53245 0.52824 0.47593 0.0
H1042 H 0.48651 0.58282 0.51491 0.0
H1043 H 0.51764 0.56329 0.51576 0.0
H1044 H 0.54427 0.51226 0.46671 0.0
H1045 H 0.5301 0.52528 0.49754 0.0
H1046 H 0.4565 0.59261 0.39288 0.0
H1047 H 0.44219 0.60526 0.42447 0.0
H1048 H 0.49751 0.58961 0.37667 0.0
H1049 H 0.52594 0.56632 0.37776 0.0
C1050 C 0.1868 0.76324 0.65441 0.0
C1051 C 0.19193 0.73693 0.66764 0.0
C1052 C 0.17167 0.75454 0.71165 0.0
C1053 C 0.17138 0.78217 0.70008 0.0
N1054 N 0.17439 0.81271 0.6596 0.0
N1055 N 0.17227 0.70459 0.70163 0.0
C1056 C 0.17732 0.78641 0.67101 0.0
C1057 C 0.17914 0.73151 0.69411 0.0
N1058 N 0.18899 0.76525 0.62577 0.0
N1059 N 0.16659 0.75033 0.73969 0.0
H1060 H 0.17353 0.68783 0.68749 0.0
H1061 H 0.16114 0.69968 0.71993 0.0
H1062 H 0.16088 0.7664 0.75351 0.0
H1063 H 0.17024 0.73112 0.74971 0.0
H1064 H 0.18421 0.78327 0.61424 0.0
H1065 H 0.1924 0.74757 0.61312 0.0
H1066 H 0.18158 0.81831 0.63965 0.0
H1067 H 0.16511 0.82937 0.67057 0.0
C1068 C 0.00205 0.57104 0.52816 0.0
C1069 C 0.02777 0.57617 0.54241 0.0
C1070 C 0.00566 0.56301 0.58732 0.0
C1071 C 0.98051 0.55609 0.57251 0.0
N1072 N 0.9515 0.56971 0.53271 0.0
N1073 N 0.05216 0.58474 0.58604 0.0
C1074 C 0.97751 0.5651 0.54411 0.0
C1075 C 0.02903 0.57449 0.57225 0.0
N1076 N 0.00111 0.57061 0.49937 0.0
N1077 N 0.00681 0.55919 0.61583 0.0
H1078 H 0.06903 0.5941 0.57548 0.0
H1079 H 0.05389 0.58609 0.60785 0.0
H1080 H 0.98878 0.55535 0.62786 0.0
H1081 H 0.0253 0.56003 0.62758 0.0
H1082 H 0.98343 0.56389 0.4882 0.0
H1083 H 0.01867 0.5744 0.48668 0.0
H1084 H 0.94866 0.57784 0.51249 0.0
H1085 H 0.93314 0.57012 0.54473 0.0
C1086 C 0.9773 0.91796 0.58373 0.0
C1087 C 0.97911 0.91896 0.55388 0.0
C1088 C 0.02839 0.9335 0.55746 0.0
C1089 C 0.02409 0.94017 0.58627 0.0
N1090 N 0.99849 0.92996 0.62888 0.0
N1091 N 0.00633 0.92887 0.51189 0.0
C1092 C -0.0003 0.92953 0.60012 0.0
C1093 C 0.00476 0.92667 0.54057 0.0
N1094 N 0.95452 0.90535 0.59612 0.0
N1095 N 0.05499 0.93216 0.54655 0.0
H1096 H 0.98944 0.92447 0.49855 0.0
H1097 H 0.02373 0.93745 0.50156 0.0
H1098 H 0.07291 0.93291 0.55922 0.0
H1099 H 0.05915 0.92573 0.52595 0.0
H1100 H 0.95209 0.90258 0.61772 0.0
H1101 H 0.93855 0.89578 0.58443 0.0
H1102 H 0.98045 0.92575 0.64061 0.0
H1103 H 0.01629 0.93401 0.64116 0.0
C1104 C 0.67032 0.83493 0.72553 0.0
C1105 C 0.69983 0.83738 0.73012 0.0
C1106 C 0.69267 0.82762 0.78032 0.0
C1107 C 0.66492 0.81841 0.7742 0.0
N1108 N 0.62388 0.82763 0.7461 0.0
N1109 N 0.73947 0.83642 0.76216 0.0
C1110 C 0.65257 0.82643 0.74822 0.0
C1111 C 0.71108 0.83447 0.75771 0.0
N1112 N 0.6595 0.83998 0.69929 0.0
N1113 N 0.70081 0.83161 0.80762 0.0
H1114 H 0.75381 0.84182 0.74642 0.0
H1115 H 0.74902 0.83067 0.78108 0.0
H1116 H 0.68654 0.83066 0.82432 0.0
H1117 H 0.72024 0.84014 0.81327 0.0
H1118 H 0.63892 0.8352 0.69343 0.0
H1119 H 0.67155 0.84837 0.6829 0.0
H1120 H 0.61312 0.83488 0.72844 0.0
H1121 H 0.61083 0.82442 0.76354 0.0
C1122 C 0.02317 0.0489 0.50397 0.0
C1123 C 0.03308 0.07572 0.49517 0.0
C1124 C 0.07014 0.07406 0.53126 0.0
C1125 C 0.06142 0.04637 0.53844 0.0
N1126 N 0.03384 0.00507 0.52766 0.0
N1127 N 0.06779 0.11271 0.49773 0.0
C1128 C 0.03916 0.0331 0.52361 0.0
C1129 C 0.05708 0.08806 0.50809 0.0
N1130 N 0.99777 0.03906 0.49457 0.0
N1131 N 0.09021 0.08728 0.54713 0.0
H1132 H 0.05833 0.12381 0.48129 0.0
H1133 H 0.08699 0.12122 0.50408 0.0
H1134 H 0.10075 0.07734 0.56366 0.0
H1135 H 0.09519 0.10855 0.54514 0.0
H1136 H 0.98805 0.02106 0.50256 0.0
H1137 H 0.98492 0.05038 0.48084 0.0
H1138 H 0.01981 0.99353 0.51534 0.0
H1139 H 0.04556 0.99261 0.54143 0.0
C1140 C 0.32993 0.68281 0.75584 0.0
C1141 C 0.32468 0.71097 0.76424 0.0
C1142 C 0.28474 0.7139 0.73193 0.0
C1143 C 0.29206 0.68708 0.721 0.0
N1144 N 0.32351 0.64709 0.71985 0.0
N1145 N 0.29995 0.75507 0.75766 0.0
C1146 C 0.31506 0.67164 0.73234 0.0
C1147 C 0.30294 0.72706 0.75148 0.0
N1148 N 0.34894 0.6668 0.7704 0.0
N1149 N 0.2598 0.7263 0.72438 0.0
H1150 H 0.31278 0.76563 0.77195 0.0
H1151 H 0.28642 0.76851 0.7468 0.0
H1152 H 0.24507 0.71654 0.71135 0.0
H1153 H 0.2523 0.74494 0.73315 0.0
H1154 H 0.35156 0.64525 0.7672 0.0
H1155 H 0.36076 0.67473 0.78717 0.0
H1156 H 0.34192 0.63645 0.7253 0.0
H1157 H 0.31326 0.63839 0.70247 0.0
C1158 C 0.95557 0.46438 0.47969 0.0
C1159 C 0.95096 0.43496 0.476 0.0
C1160 C 0.91661 0.43532 0.51474 0.0
C1161 C 0.92108 0.46462 0.51805 0.0
N1162 N 0.93836 0.50839 0.49918 0.0
N1163 N 0.92188 0.39422 0.48476 0.0
C1164 C 0.93827 0.47959 0.49881 0.0
C1165 C 0.92976 0.42098 0.4919 0.0
N1166 N 0.97783 0.47746 0.46683 0.0
N1167 N 0.90056 0.42109 0.53398 0.0
H1168 H 0.93064 0.38348 0.46766 0.0
H1169 H 0.9049 0.38377 0.49395 0.0
H1170 H 0.88967 0.43128 0.55017 0.0
H1171 H 0.89924 0.39919 0.53476 0.0
H1172 H 0.98405 0.49799 0.47148 0.0
H1173 H 0.99185 0.46723 0.45342 0.0
H1174 H 0.94839 0.52059 0.48393 0.0
H1175 H 0.92595 0.52004 0.51311 0.0
C1176 C 0.71234 0.22059 0.73251 0.0
C1177 C 0.68811 0.20758 0.72082 0.0
C1178 C 0.6929 0.16812 0.7538 0.0
C1179 C 0.71762 0.1809 0.76474 0.0
N1180 N 0.75521 0.21462 0.75942 0.0
N1181 N 0.65801 0.167 0.71629 0.0
C1182 C 0.72874 0.20565 0.75237 0.0
C1183 C 0.6793 0.18059 0.73011 0.0
N1184 N 0.71884 0.24786 0.72592 0.0
N1185 N 0.68167 0.14506 0.7669 0.0
H1186 H 0.64741 0.17594 0.69921 0.0
H1187 H 0.65233 0.14618 0.72026 0.0
H1188 H 0.69128 0.13528 0.78409 0.0
H1189 H 0.66204 0.13664 0.76192 0.0
H1190 H 0.73411 0.25949 0.73656 0.0
H1191 H 0.70728 0.25976 0.71161 0.0
H1192 H 0.76541 0.23128 0.74943 0.0
H1193 H 0.76816 0.20354 0.7733 0.0
C1194 C 0.4369 0.02393 0.49844 0.0
C1195 C 0.42199 0.04004 0.47822 0.0
C1196 C 0.43208 0.08296 0.50491 0.0
C1197 C 0.45173 0.06771 0.5216 0.0
N1198 N 0.47497 0.02337 0.53217 0.0
N1199 N 0.40522 0.08484 0.46143 0.0
C1200 C 0.45434 0.03797 0.5183 0.0
C1201 C 0.4193 0.06956 0.48136 0.0
N1202 N 0.43514 0.99517 0.49803 0.0
N1203 N 0.42518 0.11 0.51203 0.0
H1204 H 0.3945 0.07541 0.4447 0.0
H1205 H 0.40539 0.10678 0.46071 0.0
H1206 H 0.43336 0.11996 0.52985 0.0
H1207 H 0.40928 0.12142 0.50211 0.0
H1208 H 0.44317 0.98235 0.51394 0.0
H1209 H 0.4233 0.98416 0.48316 0.0
H1210 H 0.47917 0.00214 0.52872 0.0
H1211 H 0.48984 0.03264 0.5453 0.0
C1212 C 0.29094 0.2806 0.73955 0.0
C1213 C 0.31961 0.28645 0.7332 0.0
C1214 C 0.32085 0.32287 0.76975 0.0
C1215 C 0.29208 0.31743 0.77548 0.0
N1216 N 0.24782 0.29669 0.76163 0.0
N1217 N 0.36004 0.31692 0.73738 0.0
C1218 C 0.27649 0.29809 0.75895 0.0
C1219 C 0.33404 0.3088 0.74683 0.0
N1220 N 0.27797 0.25737 0.72845 0.0
N1221 N 0.33571 0.34075 0.78675 0.0
H1222 H 0.37003 0.30727 0.72031 0.0
H1223 H 0.37057 0.33472 0.74469 0.0
H1224 H 0.32639 0.352 0.80321 0.0
H1225 H 0.35751 0.34315 0.78568 0.0
H1226 H 0.25827 0.25022 0.73502 0.0
H1227 H 0.28773 0.24373 0.71432 0.0
H1228 H 0.23499 0.28503 0.74818 0.0
H1229 H 0.23655 0.30939 0.77559 0.0
C1230 C 0.57375 0.44735 0.49875 0.0
C1231 C 0.56602 0.44462 0.46985 0.0
C1232 C 0.52551 0.41626 0.48401 0.0
C1233 C 0.53526 0.41576 0.51226 0.0
N1234 N 0.575 0.42305 0.54345 0.0
N1235 N 0.5407 0.41599 0.43577 0.0
C1236 C 0.56145 0.42877 0.51873 0.0
C1237 C 0.54403 0.42554 0.4627 0.0
N1238 N 0.59106 0.46844 0.50787 0.0
N1239 N 0.49821 0.41002 0.47729 0.0
H1240 H 0.55499 0.42047 0.41973 0.0
H1241 H 0.52581 0.40069 0.43051 0.0
H1242 H 0.48248 0.40673 0.49224 0.0
H1243 H 0.49042 0.41221 0.45684 0.0
H1244 H 0.59492 0.47197 0.52922 0.0
H1245 H 0.59874 0.48443 0.49502 0.0
H1246 H 0.59509 0.43079 0.54793 0.0
H1247 H 0.56793 0.40776 0.55757 0.0
C1248 C 0.72138 0.68732 0.82737 0.0
C1249 C 0.71267 0.71328 0.81526 0.0
C1250 C 0.74547 0.70655 0.77597 0.0
C1251 C 0.75534 0.68141 0.78882 0.0
N1252 N 0.75643 0.64995 0.82863 0.0
N1253 N 0.72088 0.75086 0.782 0.0
C1254 C 0.74447 0.67245 0.81518 0.0
C1255 C 0.72606 0.72386 0.7907 0.0
N1256 N 0.70676 0.67622 0.8496 0.0
N1257 N 0.75397 0.71347 0.74931 0.0
H1258 H 0.70764 0.76457 0.79294 0.0
H1259 H 0.73172 0.76065 0.76563 0.0
H1260 H 0.7684 0.70152 0.73785 0.0
H1261 H 0.74496 0.72969 0.73759 0.0
H1262 H 0.71 0.65593 0.8573 0.0
H1263 H 0.68986 0.68655 0.85916 0.0
H1264 H 0.75146 0.64412 0.8492 0.0
H1265 H 0.77297 0.63832 0.81994 0.0
C1266 C 0.92221 0.01252 0.47724 0.0
C1267 C 0.92113 0.98523 0.46519 0.0
C1268 C 0.93824 0.00496 0.42028 0.0
C1269 C 0.9395 0.03206 0.43313 0.0
N1270 N 0.91575 0.06167 0.46717 0.0
N1271 N 0.92076 0.95686 0.42284 0.0
C1272 C 0.92599 0.03593 0.45947 0.0
C1273 C 0.92711 0.98171 0.43595 0.0
N1274 N 0.92111 0.0163 0.50577 0.0
N1275 N 0.94664 0.00157 0.39298 0.0
H1276 H 0.91175 0.93978 0.43326 0.0
H1277 H 0.92207 0.95386 0.40116 0.0
H1278 H 0.94879 0.01851 0.37916 0.0
H1279 H 0.95074 0.98201 0.38392 0.0
H1280 H 0.92401 0.036 0.5151 0.0
H1281 H 0.92095 -0.00037 0.5201 0.0
H1282 H 0.90441 0.06479 0.48577 0.0
H1283 H 0.91481 0.0785 0.45307 0.0
C1284 C 0.25441 0.83296 0.81835 0.0
C1285 C 0.23705 0.81821 0.79897 0.0
C1286 C 0.25551 0.77327 0.81665 0.0
C1287 C 0.2763 0.78824 0.83195 0.0
N1288 N 0.29639 0.83209 0.84753 0.0
N1289 N 0.22264 0.77423 0.77768 0.0
C1290 C 0.2758 0.81806 0.83309 0.0
C1291 C 0.23756 0.78827 0.79794 0.0
N1292 N 0.24996 0.86102 0.82312 0.0
N1293 N 0.25365 0.74463 0.81924 0.0
H1294 H 0.21083 0.7844 0.76223 0.0
H1295 H 0.22384 0.75259 0.77444 0.0
H1296 H 0.26703 0.73294 0.83215 0.0
H1297 H 0.23729 0.73273 0.81076 0.0
H1298 H 0.26025 0.87237 0.83882 0.0
H1299 H 0.23396 0.87238 0.81318 0.0
H1300 H 0.29942 0.85379 0.84624 0.0
H1301 H 0.31137 0.82168 0.85985 0.0
C1302 C 0.06891 0.51916 0.42802 0.0
C1303 C 0.0832 0.51338 0.45369 0.0
C1304 C 0.07537 0.46337 0.44575 0.0
C1305 C 0.05524 0.4695 0.42451 0.0
N1306 N 0.02951 0.50584 0.39892 0.0
N1307 N 0.09166 0.47899 0.49083 0.0
C1308 C 0.05114 0.4981 0.41625 0.0
C1309 C 0.08438 0.48519 0.46365 0.0
N1310 N 0.07257 0.54431 0.41453 0.0
N1311 N 0.08572 0.43675 0.44924 0.0
H1312 H 0.09447 0.49419 0.50639 0.0
H1313 H 0.09071 0.45854 0.49886 0.0
H1314 H 0.08071 0.42025 0.43567 0.0
H1315 H 0.10182 0.43216 0.46351 0.0
H1316 H 0.0641 0.54841 0.39466 0.0
H1317 H 0.08681 0.55954 0.42146 0.0
H1318 H 0.0246 0.52688 0.39492 0.0
H1319 H 0.01466 0.4919 0.39089 0.0
C1320 C 0.75205 0.33893 0.67771 0.0
C1321 C 0.77071 0.32137 0.69321 0.0
C1322 C 0.75034 0.27982 0.67042 0.0
C1323 C 0.72824 0.2969 0.65984 0.0
N1324 N 0.70755 0.34261 0.65275 0.0
N1325 N 0.78561 0.27445 0.70669 0.0
C1326 C 0.72908 0.32651 0.66307 0.0
C1327 C 0.7698 0.29163 0.68977 0.0
N1328 N 0.75675 0.36732 0.67642 0.0
N1329 N 0.75202 0.25205 0.66292 0.0
H1330 H 0.79835 0.28187 0.72291 0.0
H1331 H 0.78396 0.25258 0.70671 0.0
H1332 H 0.73755 0.24239 0.64953 0.0
H1333 H 0.76922 0.23928 0.66775 0.0
H1334 H 0.74526 0.38088 0.66355 0.0
H1335 H 0.77404 0.37691 0.68604 0.0
H1336 H 0.70507 0.36392 0.65742 0.0
H1337 H 0.69141 0.33416 0.64042 0.0
C1338 C 0.58842 0.01367 0.53168 0.0
C1339 C 0.58796 0.98584 0.54275 0.0
C1340 C 0.55424 0.00146 0.57859 0.0
C1341 C 0.55776 0.02993 0.56968 0.0
N1342 N 0.58766 0.06271 0.54421 0.0
N1343 N 0.57725 0.95622 0.58288 0.0
C1344 C 0.57805 0.03593 0.54846 0.0
C1345 C 0.57315 0.98066 0.56826 0.0
N1346 N 0.59638 0.01905 0.50452 0.0
N1347 N 0.53199 0.99349 0.59506 0.0
H1348 H 0.59229 0.94128 0.57699 0.0
H1349 H 0.56826 0.95263 0.60263 0.0
H1350 H 0.51582 0.007 0.6011 0.0
H1351 H 0.52781 0.97243 0.59975 0.0
H1352 H 0.59479 0.03909 0.4956 0.0
H1353 H 0.60058 0.00341 0.48972 0.0
H1354 H 0.60387 0.06727 0.53003 0.0
H1355 H 0.58212 0.07953 0.55718 0.0
C1356 C 0.28381 0.16895 0.69998 0.0
C1357 C 0.2798 0.18874 0.67797 0.0
C1358 C 0.22889 0.18092 0.68266 0.0
C1359 C 0.23332 0.16765 0.70915 0.0
N1360 N 0.26724 0.15676 0.74607 0.0
N1361 N 0.246 0.21674 0.65107 0.0
C1362 C 0.2614 0.16353 0.71869 0.0
C1363 C 0.25166 0.19554 0.6697 0.0
N1364 N 0.3091 0.15566 0.70342 0.0
N1365 N 0.20342 0.17904 0.66939 0.0
H1366 H 0.26122 0.22911 0.64139 0.0
H1367 H 0.22553 0.22379 0.64722 0.0
H1368 H 0.18691 0.16674 0.67706 0.0
H1369 H 0.20012 0.18669 0.64905 0.0
H1370 H 0.31213 0.13986 0.71842 0.0
H1371 H 0.32562 0.15802 0.68912 0.0
H1372 H 0.28783 0.15551 0.75369 0.0
H1373 H 0.2521 0.15656 0.76198 0.0
C1374 C 0.46735 0.48685 0.55364 0.0
C1375 C 0.45214 0.4709 0.57373 0.0
C1376 C 0.41097 0.50148 0.56716 0.0
C1377 C 0.42538 0.51543 0.5449 0.0
N1378 N 0.46436 0.51593 0.51218 0.0
N1379 N 0.40903 0.46091 0.5985 0.0
C1380 C 0.45287 0.50681 0.53695 0.0
C1381 C 0.42381 0.4777 0.58035 0.0
N1382 N 0.49575 0.48298 0.55049 0.0
N1383 N 0.38521 0.5111 0.57576 0.0
H1384 H 0.41827 0.44402 0.60916 0.0
H1385 H 0.38742 0.46272 0.60191 0.0
H1386 H 0.37484 0.52769 0.56576 0.0
H1387 H 0.37487 0.50382 0.5937 0.0
H1388 H 0.50829 0.49593 0.53792 0.0
H1389 H 0.50724 0.46874 0.56267 0.0
H1390 H 0.48258 0.5072 0.50357 0.0
H1391 H 0.45402 0.52968 0.49858 0.0
C1392 C 0.82719 0.72614 0.6825 0.0
C1393 C 0.82853 0.72444 0.71224 0.0
C1394 C 0.79826 0.76583 0.71683 0.0
C1395 C 0.7965 0.76737 0.68698 0.0
N1396 N 0.81593 0.75474 0.64169 0.0
N1397 N 0.82267 0.74694 0.75747 0.0
C1398 C 0.81315 0.74933 0.66986 0.0
C1399 C 0.81689 0.74604 0.72927 0.0
N1400 N 0.83853 0.70506 0.66648 0.0
N1401 N 0.78047 0.78144 0.73333 0.0
H1402 H 0.83566 0.73235 0.76748 0.0
H1403 H 0.81695 0.76373 0.77041 0.0
H1404 H 0.76506 0.79477 0.72521 0.0
H1405 H 0.779 0.77917 0.7551 0.0
H1406 H 0.83519 0.70317 0.64486 0.0
H1407 H 0.85034 0.68866 0.67522 0.0
H1408 H 0.82968 0.74372 0.62858 0.0
H1409 H 0.80657 0.77211 0.63198 0.0
C1410 C 0.83225 0.27785 0.81963 0.0
C1411 C 0.83602 0.27372 0.79021 0.0
C1412 C 0.82556 0.22365 0.79629 0.0
C1413 C 0.81375 0.22962 0.82313 0.0
N1414 N 0.81535 0.2591 0.86434 0.0
N1415 N 0.83677 0.24214 0.75021 0.0
C1416 C 0.82019 0.2558 0.83615 0.0
C1417 C 0.83333 0.24637 0.77848 0.0
N1418 N 0.84077 0.30266 0.83156 0.0
N1419 N 0.8309 0.1965 0.78843 0.0
H1420 H 0.84298 0.25799 0.73633 0.0
H1421 H 0.83145 0.22328 0.74029 0.0
H1422 H 0.82944 0.17973 0.80255 0.0
H1423 H 0.84107 0.19125 0.76967 0.0
H1424 H 0.83981 0.3071 0.85299 0.0
H1425 H 0.85079 0.31845 0.81996 0.0
H1426 H 0.81634 0.27825 0.87493 0.0
H1427 H 0.81103 0.24197 0.87745 0.0
C1428 C 0.51872 0.91682 0.43471 0.0
C1429 C 0.53018 0.92919 0.45938 0.0
C1430 C 0.49995 0.97052 0.45355 0.0
C1431 C 0.4874 0.95767 0.42969 0.0
N1432 N 0.48121 0.91714 0.39979 0.0
N1433 N 0.52676 0.96382 0.49636 0.0
C1434 C 0.49562 0.93027 0.42098 0.0
C1435 C 0.51926 0.95487 0.47002 0.0
N1436 N 0.53066 0.89296 0.42385 0.0
N1437 N 0.49406 0.99799 0.46004 0.0
H1438 H 0.53929 0.95179 0.50976 0.0
H1439 H 0.51825 0.98149 0.50615 0.0
H1440 H 0.47988 0.01023 0.44861 0.0
H1441 H 0.50498 0.00944 0.47524 0.0
H1442 H 0.52535 0.88457 0.40429 0.0
H1443 H 0.54724 0.88241 0.43373 0.0
H1444 H 0.4843 0.89614 0.39424 0.0
H1445 H 0.46462 0.92676 0.38899 0.0
C1446 C 0.18236 0.27986 0.80053 0.0
C1447 C 0.1919 0.2763 0.82861 0.0
C1448 C 0.17545 0.22724 0.82782 0.0
C1449 C 0.17156 0.2294 0.79814 0.0
N1450 N 0.17433 0.25745 0.7556 0.0
N1451 N 0.18368 0.25173 0.87208 0.0
C1452 C 0.17541 0.25571 0.78435 0.0
C1453 C 0.18441 0.25136 0.84328 0.0
N1454 N 0.17788 0.30624 0.78997 0.0
N1455 N 0.17116 0.20204 0.8411 0.0
H1456 H 0.1869 0.27023 0.88353 0.0
H1457 H 0.17652 0.2351 0.88445 0.0
H1458 H 0.16286 0.18446 0.83096 0.0
H1459 H 0.17701 0.19802 0.86185 0.0
H1460 H 0.16903 0.30991 0.77021 0.0
H1461 H 0.17863 0.3242 0.80258 0.0
H1462 H 0.1801 0.27551 0.74452 0.0
H1463 H 0.17047 0.24018 0.7426 0.0
C1464 C 0.99699 0.06177 0.91793 0.0
C1465 C 0.99844 0.03185 0.91834 0.0
C1466 C 0.94946 0.02975 0.93367 0.0
C1467 C 0.95021 0.05889 0.94033 0.0
N1468 N 0.97163 0.10415 0.93153 0.0
N1469 N 0.97703 0.98727 0.93079 0.0
C1470 C 0.97316 0.07544 0.93027 0.0
C1471 C 0.97493 0.01579 0.9273 0.0
N1472 N 0.01767 0.07688 0.90465 0.0
N1473 N 0.92445 0.01569 0.93145 0.0
H1474 H 0.9957 0.9761 0.92755 0.0
H1475 H 0.96097 0.97529 0.93987 0.0
H1476 H 0.90509 0.02606 0.93095 0.0
H1477 H 0.92319 0.99467 0.92515 0.0
H1478 H 0.01695 0.09856 0.90152 0.0
H1479 H 0.03492 0.06745 0.89479 0.0
H1480 H 0.98883 0.11746 0.92867 0.0
H1481 H 0.95263 0.11472 0.9349 0.0
C1482 C 0.67944 0.2269 0.19223 0.0
C1483 C 0.69044 0.2344 0.16541 0.0
C1484 C 0.66998 0.28159 0.17124 0.0
C1485 C 0.66716 0.27618 0.20058 0.0
N1486 N 0.66918 0.24305 0.23933 0.0
N1487 N 0.68684 0.26553 0.12552 0.0
C1488 C 0.6714 0.24855 0.21116 0.0
C1489 C 0.6827 0.26081 0.15362 0.0
N1490 N 0.67501 0.1993 0.19903 0.0
N1491 N 0.65979 0.3063 0.16041 0.0
H1492 H 0.69131 0.24917 0.11152 0.0
H1493 H 0.68515 0.28516 0.1159 0.0
H1494 H 0.64921 0.32111 0.17278 0.0
H1495 H 0.6598 0.31143 0.13911 0.0
H1496 H 0.66545 0.19302 0.21779 0.0
H1497 H 0.67644 0.1832 0.18416 0.0
H1498 H 0.67557 0.224 0.24822 0.0
H1499 H 0.66302 0.25807 0.25412 0.0
C1500 C 0.53738 0.07304 0.06912 0.0
C1501 C 0.53448 0.0773 0.03965 0.0
C1502 C 0.49116 0.04944 0.03965 0.0
C1503 C 0.49282 0.04669 0.06941 0.0
N1504 N 0.51415 0.06131 0.11319 0.0
N1505 N 0.50513 0.0751 0.99797 0.0
C1506 C 0.51501 0.06004 0.08442 0.0
C1507 C 0.50999 0.06775 0.02543 0.0
N1508 N 0.56158 0.08121 0.08241 0.0
N1509 N 0.47329 0.03266 0.02453 0.0
H1510 H 0.51917 0.08675 0.98579 0.0
H1511 H 0.48599 0.0714 0.98787 0.0
H1512 H 0.46136 0.01663 0.0336 0.0
H1513 H 0.47285 0.03215 0.00261 0.0
H1514 H 0.56639 0.07568 0.10311 0.0
H1515 H 0.57758 0.09234 0.07219 0.0
H1516 H 0.52832 0.07303 0.12515 0.0
H1517 H 0.49765 0.05286 0.12501 0.0
C1518 C 0.50935 0.43183 0.07426 0.0
C1519 C 0.50762 0.46168 0.077 0.0
C1520 C 0.45703 0.45882 0.06914 0.0
C1521 C 0.45984 0.43107 0.05852 0.0
N1522 N 0.488 0.38862 0.05711 0.0
N1523 N 0.47961 0.50399 0.0709 0.0
C1524 C 0.48589 0.41672 0.06282 0.0
C1525 C 0.48139 0.47532 0.07277 0.0
N1526 N 0.53249 0.41777 0.08414 0.0
N1527 N 0.43131 0.46916 0.0769 0.0
H1528 H 0.49725 0.51711 0.07096 0.0
H1529 H 0.46085 0.51427 0.06573 0.0
H1530 H 0.41348 0.45636 0.07812 0.0
H1531 H 0.42886 0.48897 0.08613 0.0
H1532 H 0.53393 0.3959 0.08508 0.0
H1533 H 0.54933 0.42783 0.09401 0.0
H1534 H 0.50719 0.37809 0.0553 0.0
H1535 H 0.47037 0.37572 0.05488 0.0
C1536 C 0.09105 0.29642 0.40581 0.0
C1537 C 0.10952 0.30558 0.38436 0.0
C1538 C 0.08988 0.35317 0.38814 0.0
C1539 C 0.06769 0.34252 0.40547 0.0
N1540 N 0.04483 0.30182 0.42633 0.0
N1541 N 0.12693 0.34258 0.3545 0.0
C1542 C 0.06775 0.3136 0.41342 0.0
C1543 C 0.10912 0.334 0.37543 0.0
N1544 N 0.09595 0.27141 0.41908 0.0
N1545 N 0.09332 0.38155 0.38462 0.0
H1546 H 0.14278 0.32959 0.34659 0.0
H1547 H 0.12518 0.36195 0.3443 0.0
H1548 H 0.08033 0.39651 0.39401 0.0
H1549 H 0.11075 0.39042 0.37463 0.0
H1550 H 0.08431 0.26455 0.43641 0.0
H1551 H 0.11391 0.25942 0.41483 0.0
H1552 H 0.04307 0.28025 0.43005 0.0
H1553 H 0.02624 0.31281 0.43033 0.0
C1554 C 0.55765 0.69086 0.84159 0.0
C1555 C 0.58755 0.68929 0.84101 0.0
C1556 C 0.58568 0.6421 0.86216 0.0
C1557 C 0.55585 0.64339 0.8616 0.0
N1558 N 0.51358 0.66516 0.84395 0.0
N1559 N 0.62971 0.66094 0.84423 0.0
C1560 C 0.5419 0.66655 0.84901 0.0
C1561 C 0.60152 0.66413 0.84936 0.0
N1562 N 0.54426 0.71596 0.83691 0.0
N1563 N 0.59884 0.62032 0.87567 0.0
H1564 H 0.64178 0.67627 0.83408 0.0
H1565 H 0.64055 0.64213 0.8475 0.0
H1566 H 0.58784 0.60338 0.88439 0.0
H1567 H 0.62041 0.61991 0.87972 0.0
H1568 H 0.52272 0.71886 0.8401 0.0
H1569 H 0.55493 0.73466 0.83252 0.0
H1570 H 0.50269 0.68028 0.83232 0.0
H1571 H 0.50147 0.64755 0.84916 0.0
C1572 C 0.92894 0.19706 0.36084 0.0
C1573 C 0.89903 0.19374 0.36291 0.0
C1574 C 0.90569 0.15251 0.39346 0.0
C1575 C 0.93524 0.15573 0.39113 0.0
N1576 N 0.97517 0.17621 0.36726 0.0
N1577 N 0.86018 0.16234 0.37269 0.0
C1578 C 0.94688 0.17637 0.37299 0.0
C1579 C 0.88775 0.16967 0.37676 0.0
N1580 N 0.94059 0.2205 0.34876 0.0
N1581 N 0.89469 0.13317 0.41177 0.0
H1582 H 0.84695 0.17314 0.35884 0.0
H1583 H 0.85143 0.14367 0.38025 0.0
H1584 H 0.90723 0.11941 0.42346 0.0
H1585 H 0.87332 0.13214 0.41677 0.0
H1586 H 0.96178 0.22584 0.35094 0.0
H1587 H 0.9294 0.23586 0.33799 0.0
H1588 H 0.98435 0.1883 0.35139 0.0
H1589 H 0.98928 0.16226 0.37669 0.0
C1590 C 0.44264 0.82728 0.88648 0.0
C1591 C 0.43953 0.856 0.87887 0.0
C1592 C 0.39705 0.84382 0.8522 0.0
C1593 C 0.39924 0.81576 0.86224 0.0
N1594 N 0.41754 0.78501 0.89853 0.0
N1595 N 0.40894 0.89269 0.86074 0.0
C1596 C 0.41977 0.80883 0.88261 0.0
C1597 C 0.41536 0.86474 0.8634 0.0
N1598 N 0.46791 0.81703 0.89572 0.0
N1599 N 0.37729 0.85055 0.83238 0.0
H1600 H 0.4207 0.90864 0.87018 0.0
H1601 H 0.39023 0.89988 0.85178 0.0
H1602 H 0.36209 0.83623 0.82547 0.0
H1603 H 0.37687 0.8699 0.82199 0.0
H1604 H 0.47132 0.79564 0.89953 0.0
H1605 H 0.48625 0.82912 0.89577 0.0
H1606 H 0.43143 0.78052 0.91498 0.0
H1607 H 0.40018 0.77163 0.89758 0.0
C1608 C 0.08414 0.69921 0.1044 0.0
C1609 C 0.10816 0.68908 0.11897 0.0
C1610 C 0.09705 0.64075 0.10448 0.0
C1611 C 0.07117 0.65049 0.09314 0.0
N1612 N 0.03852 0.68858 0.08418 0.0
N1613 N 0.13721 0.65045 0.13464 0.0
C1614 C 0.06439 0.67967 0.09331 0.0
C1615 C 0.11474 0.65991 0.11927 0.0
N1616 N 0.08053 0.72759 0.10075 0.0
N1617 N 0.10495 0.61333 0.10045 0.0
H1618 H 0.15108 0.66396 0.14501 0.0
H1619 H 0.14119 0.62923 0.13853 0.0
H1620 H 0.09253 0.59895 0.08939 0.0
H1621 H 0.1247 0.60542 0.10582 0.0
H1622 H 0.06501 0.73634 0.08794 0.0
H1623 H 0.09469 0.74249 0.10855 0.0
H1624 H 0.031 0.70899 0.08708 0.0
H1625 H 0.02342 0.67508 0.07569 0.0
C1626 C 0.94631 0.69087 0.14011 0.0
C1627 C 0.91773 0.68449 0.14609 0.0
C1628 C 0.92352 0.63758 0.12539 0.0
C1629 C 0.95278 0.64289 0.12252 0.0
N1630 N 0.99311 0.67248 0.1318 0.0
N1631 N 0.87975 0.65066 0.14827 0.0
C1632 C 0.96451 0.669 0.13108 0.0
C1633 C 0.90639 0.65757 0.13967 0.0
N1634 N 0.95583 0.718 0.14216 0.0
N1635 N 0.912 0.61386 0.1138 0.0
H1636 H 0.86659 0.66463 0.159 0.0
H1637 H 0.87151 0.63037 0.14688 0.0
H1638 H 0.92398 0.59873 0.10322 0.0
H1639 H 0.89037 0.61034 0.11256 0.0
H1640 H 0.97566 0.72433 0.13512 0.0
H1641 H 0.94297 0.73475 0.1483 0.0
H1642 H 0.00288 0.69005 0.1406 0.0
H1643 H 0.00723 0.65666 0.126 0.0
C1644 C 0.91505 0.78855 0.10222 0.0
C1645 C 0.89197 0.80043 0.11694 0.0
C1646 C 0.9079 0.84781 0.10448 0.0
C1647 C 0.93293 0.83593 0.09294 0.0
N1648 N 0.96283 0.79516 0.08604 0.0
N1649 N 0.86672 0.84093 0.13412 0.0
C1650 C 0.93712 0.80631 0.09293 0.0
C1651 C 0.88826 0.82997 0.11841 0.0
N1652 N 0.91575 0.76021 0.09707 0.0
N1653 N 0.90268 0.876 0.10175 0.0
H1654 H 0.85137 0.82839 0.14365 0.0
H1655 H 0.86489 0.86224 0.13904 0.0
H1656 H 0.9169 0.88993 0.09255 0.0
H1657 H 0.88346 0.88533 0.10681 0.0
H1658 H 0.93077 0.75067 0.08417 0.0
H1659 H 0.89962 0.74664 0.10337 0.0
H1660 H 0.96788 0.77397 0.08882 0.0
H1661 H 0.9802 0.80739 0.08039 0.0
C1662 C 0.03789 0.82395 0.13788 0.0
C1663 C 0.04957 0.85015 0.12948 0.0
C1664 C 0.09581 0.83551 0.14728 0.0
C1665 C 0.08471 0.80825 0.15261 0.0
N1666 N 0.04655 0.77483 0.14836 0.0
N1667 N 0.09018 0.88001 0.12274 0.0
C1668 C 0.05608 0.802 0.14674 0.0
C1669 C 0.07868 0.85583 0.13339 0.0
N1670 N 0.00928 0.82033 0.13806 0.0
N1671 N 0.12239 0.84219 0.15617 0.0
H1672 H 0.07826 0.89551 0.11269 0.0
H1673 H 0.1118 0.8838 0.12202 0.0
H1674 H 0.13555 0.82782 0.16637 0.0
H1675 H 0.13057 0.86255 0.15554 0.0
H1676 H -0.00061 0.80263 0.1465 0.0
H1677 H 0.99522 0.83625 0.13237 0.0
H1678 H 0.02675 0.76857 0.14123 0.0
H1679 H 0.05933 0.75795 0.15431 0.0
C1680 C 0.35433 0.08833 0.32721 0.0
C1681 C 0.3718 0.1091 0.31452 0.0
C1682 C 0.41142 0.09149 0.34254 0.0
C1683 C 0.39538 0.06754 0.35062 0.0
N1684 N 0.35229 0.04056 0.34405 0.0
N1685 N 0.41953 0.12521 0.30546 0.0
C1686 C 0.36698 0.06518 0.34124 0.0
C1687 C 0.40109 0.10938 0.32092 0.0
N1688 N 0.32565 0.09089 0.3267 0.0
N1689 N 0.43608 0.09783 0.35598 0.0
H1690 H 0.41364 0.13675 0.28774 0.0
H1691 H 0.44131 0.12397 0.30817 0.0
H1692 H 0.44342 0.08651 0.37333 0.0
H1693 H 0.44721 0.11638 0.3521 0.0
H1694 H 0.31235 0.07744 0.3379 0.0
H1695 H 0.31536 0.10826 0.31811 0.0
H1696 H 0.33253 0.03751 0.33491 0.0
H1697 H 0.36077 0.02215 0.35237 0.0
C1698 C 0.35528 0.34502 0.93632 0.0
C1699 C 0.3604 0.37447 0.93838 0.0
C1700 C 0.32219 0.38329 0.90514 0.0
C1701 C 0.31857 0.35382 0.90091 0.0
N1702 N 0.33959 0.30753 0.9056 0.0
N1703 N 0.35603 0.41972 0.91549 0.0
C1704 C 0.33762 0.33489 0.9143 0.0
C1705 C 0.34634 0.39295 0.91962 0.0
N1706 N 0.36568 0.32671 0.95594 0.0
N1707 N 0.30183 0.40217 0.89765 0.0
H1708 H 0.37481 0.42688 0.92441 0.0
H1709 H 0.34734 0.43327 0.90051 0.0
H1710 H 0.28206 0.39617 0.89045 0.0
H1711 H 0.30317 0.42357 0.90248 0.0
H1712 H 0.35999 0.30549 0.95645 0.0
H1713 H 0.37753 0.33298 0.97328 0.0
H1714 H 0.35474 0.29367 0.91345 0.0
H1715 H 0.32871 0.29984 0.88813 0.0
C1716 C 0.62067 0.425 0.29729 0.0
C1717 C 0.62527 0.3965 0.30573 0.0
C1718 C 0.60711 0.40775 0.35298 0.0
C1719 C 0.59913 0.43489 0.34323 0.0
N1720 N 0.59655 0.46921 0.30579 0.0
N1721 N 0.62324 0.36059 0.3418 0.0
C1722 C 0.60532 0.44341 0.31527 0.0
C1723 C 0.61844 0.38782 0.33361 0.0
N1724 N 0.63169 0.43503 0.27259 0.0
N1725 N 0.60475 0.40134 0.381 0.0
H1726 H 0.63478 0.34625 0.32978 0.0
H1727 H 0.61501 0.35181 0.36015 0.0
H1728 H 0.59628 0.41519 0.39576 0.0
H1729 H 0.61311 0.38324 0.39015 0.0
H1730 H 0.6322 0.45634 0.26735 0.0
H1731 H 0.64259 0.42282 0.25807 0.0
H1732 H 0.59679 0.47503 0.28462 0.0
H1733 H 0.58728 0.48437 0.31872 0.0
C1734 C 0.65187 0.11538 0.90683 0.0
C1735 C 0.63916 0.13378 0.92653 0.0
C1736 C 0.66239 0.17309 0.90265 0.0
C1737 C 0.68106 0.15404 0.88878 0.0
N1738 N 0.69491 0.10446 0.88294 0.0
N1739 N 0.63556 0.18123 0.94512 0.0
C1740 C 0.67612 0.1244 0.89195 0.0
C1741 C 0.64506 0.16305 0.92494 0.0
N1742 N 0.64074 0.08925 0.90217 0.0
N1743 N 0.66028 0.20046 0.89403 0.0
H1744 H 0.62388 0.17487 0.96259 0.0
H1745 H 0.64179 0.20229 0.94582 0.0
H1746 H 0.67024 0.20794 0.87591 0.0
H1747 H 0.64555 0.21442 0.90251 0.0
H1748 H 0.64808 0.07592 0.8863 0.0
H1749 H 0.62204 0.0826 0.91168 0.0
H1750 H 0.69247 0.08313 0.8877 0.0
H1751 H 0.71444 0.10848 0.87401 0.0
C1752 C 0.37892 0.89348 0.16021 0.0
C1753 C 0.36578 0.90305 0.18547 0.0
C1754 C 0.3751 0.95182 0.1707 0.0
C1755 C 0.39294 0.94187 0.14886 0.0
N1756 N 0.41332 0.9028 0.12354 0.0
N1757 N 0.35577 0.94271 0.21662 0.0
C1758 C 0.39545 0.91253 0.14394 0.0
C1759 C 0.3648 0.93259 0.19117 0.0
N1760 N 0.37427 0.86666 0.15081 0.0
N1761 N 0.36774 0.97965 0.17208 0.0
H1762 H 0.34823 0.93036 0.233 0.0
H1763 H 0.35841 0.96366 0.22269 0.0
H1764 H 0.37477 0.99472 0.1578 0.0
H1765 H 0.35228 0.98726 0.18574 0.0
H1766 H 0.38134 0.85936 0.13133 0.0
H1767 H 0.36035 0.85283 0.16073 0.0
H1768 H 0.41828 0.88153 0.12116 0.0
H1769 H 0.42463 0.91612 0.1102 0.0
C1770 C 0.18911 0.34005 0.05324 0.0
C1771 C 0.18276 0.34042 0.08253 0.0
C1772 C 0.13943 0.3671 0.07314 0.0
C1773 C 0.14483 0.36484 0.04388 0.0
N1774 N 0.17194 0.34573 0.00542 0.0
N1775 N 0.1501 0.35074 0.12024 0.0
C1776 C 0.16876 0.35013 0.03373 0.0
C1777 C 0.15739 0.35295 0.09245 0.0
N1778 N 0.21525 0.33187 0.04417 0.0
N1779 N 0.11765 0.38356 0.08251 0.0
H1780 H 0.16296 0.34119 0.1352 0.0
H1781 H 0.13043 0.35643 0.12816 0.0
H1782 H 0.10348 0.39354 0.06898 0.0
H1783 H 0.11472 0.38897 0.10358 0.0
H1784 H 0.22215 0.33423 0.02347 0.0
H1785 H 0.23117 0.32517 0.05775 0.0
H1786 H 0.18731 0.33255 0.9969 0.0
H1787 H 0.15773 0.35342 0.99049 0.0
C1788 C 0.62756 0.60848 0.16648 0.0
C1789 C 0.63753 0.5965 0.19212 0.0
C1790 C 0.62901 0.54946 0.17305 0.0
C1791 C 0.61438 0.56141 0.14998 0.0
N1792 N 0.59729 0.60265 0.12571 0.0
N1793 N 0.64022 0.55537 0.22216 0.0
C1794 C 0.61281 0.59108 0.14701 0.0
C1795 C 0.63634 0.56688 0.19606 0.0
N1796 N 0.63334 0.63593 0.16002 0.0
N1797 N 0.63604 0.52157 0.17309 0.0
H1798 H 0.64261 0.5676 0.24024 0.0
H1799 H 0.63725 0.534 0.22634 0.0
H1800 H 0.6322 0.5084 0.15596 0.0
H1801 H 0.64858 0.51249 0.18869 0.0
H1802 H 0.62869 0.64487 0.14051 0.0
H1803 H 0.64555 0.64891 0.17285 0.0
H1804 H 0.59298 0.62414 0.12434 0.0
H1805 H 0.58718 0.59047 0.11045 0.0
C1806 C 0.81233 0.16026 0.05824 0.0
C1807 C 0.81679 0.16153 0.0878 0.0
C1808 C 0.86066 0.13453 0.08271 0.0
C1809 C 0.85645 0.13398 0.05315 0.0
N1810 N 0.83267 0.15206 0.0121 0.0
N1811 N 0.84753 0.15515 0.12773 0.0
C1812 C 0.83369 0.14879 0.04072 0.0
C1813 C 0.84175 0.15029 0.09992 0.0
N1814 N 0.78699 0.16824 0.04701 0.0
N1815 N 0.882 0.11906 0.09437 0.0
H1816 H 0.83419 0.16682 0.14077 0.0
H1817 H 0.86654 0.14978 0.13728 0.0
H1818 H 0.89664 0.10798 0.08225 0.0
H1819 H 0.88426 0.11587 0.11596 0.0
H1820 H 0.78139 0.16455 0.02611 0.0
H1821 H 0.77044 0.17632 0.05902 0.0
H1822 H 0.8181 0.16495 0.00194 0.0
H1823 H 0.84813 0.14402 0.99866 0.0
C1824 C 0.34474 0.39368 0.08847 0.0
C1825 C 0.33454 0.40018 0.06108 0.0
C1826 C 0.28692 0.38582 0.07508 0.0
C1827 C 0.29763 0.37685 0.10154 0.0
N1828 N 0.33703 0.3688 0.13254 0.0
N1829 N 0.2972 0.39842 0.02664 0.0
C1830 C 0.32663 0.37994 0.10808 0.0
C1831 C 0.30593 0.39525 0.05394 0.0
N1832 N 0.37148 0.40139 0.09598 0.0
N1833 N 0.25846 0.38604 0.07047 0.0
H1834 H 0.31054 0.40511 0.01048 0.0
H1835 H 0.27745 0.3921 0.01946 0.0
H1836 H 0.24386 0.37955 0.08558 0.0
H1837 H 0.24912 0.39498 0.05274 0.0
H1838 H 0.37914 0.40007 0.1165 0.0
H1839 H 0.38542 0.41123 0.08213 0.0
H1840 H 0.35846 0.36743 0.13706 0.0
H1841 H 0.32429 0.35903 0.14758 0.0
C1842 C 0.30113 0.60932 0.41483 0.0
C1843 C 0.31023 0.63063 0.39604 0.0
C1844 C 0.35716 0.62989 0.41761 0.0
C1845 C 0.34712 0.61051 0.43821 0.0
N1846 N 0.30687 0.58914 0.46111 0.0
N1847 N 0.34541 0.66437 0.38168 0.0
C1848 C 0.31834 0.60222 0.43811 0.0
C1849 C 0.33777 0.64201 0.39819 0.0
N1850 N 0.27604 0.59582 0.41058 0.0
N1851 N 0.38528 0.63574 0.41558 0.0
H1852 H 0.33235 0.67273 0.36609 0.0
H1853 H 0.36394 0.67575 0.38468 0.0
H1854 H 0.40025 0.62743 0.42921 0.0
H1855 H 0.3941 0.64706 0.39895 0.0
H1856 H 0.26997 0.57808 0.42205 0.0
H1857 H 0.26226 0.60091 0.39425 0.0
H1858 H 0.28536 0.58508 0.4631 0.0
H1859 H 0.31809 0.58556 0.47967 0.0
C1860 C 0.8581 0.4115 0.86193 0.0
C1861 C 0.87065 0.43767 0.85411 0.0
C1862 C 0.8682 0.42331 0.80458 0.0
C1863 C 0.85141 0.39991 0.81207 0.0
N1864 N 0.82701 0.37341 0.84795 0.0
N1865 N 0.87958 0.47112 0.81612 0.0
C1866 C 0.84507 0.39465 0.84079 0.0
C1867 C 0.87344 0.44438 0.82491 0.0
N1868 N 0.86022 0.40166 0.88891 0.0
N1869 N 0.8795 0.42553 0.77818 0.0
H1870 H 0.8817 0.48821 0.82962 0.0
H1871 H 0.87902 0.47708 0.79496 0.0
H1872 H 0.87722 0.40997 0.7629 0.0
H1873 H 0.8939 0.44121 0.77269 0.0
H1874 H 0.85349 0.38162 0.89486 0.0
H1875 H 0.87175 0.41184 0.90455 0.0
H1876 H 0.81954 0.3705 0.86841 0.0
H1877 H 0.81789 0.36007 0.83305 0.0
C1878 C 0.6535 0.89151 0.40457 0.0
C1879 C 0.65483 0.88481 0.43364 0.0
C1880 C 0.69883 0.85955 0.42623 0.0
C1881 C 0.69651 0.86384 0.39664 0.0
N1882 N 0.66698 0.8776 0.35735 0.0
N1883 N 0.67341 0.85421 0.46985 0.0
C1884 C 0.67251 0.87809 0.3856 0.0
C1885 C 0.6756 0.86597 0.44368 0.0
N1886 N 0.63406 0.91051 0.3951 0.0
N1887 N 0.72372 0.85127 0.4382 0.0
H1888 H 0.65627 0.85769 0.48311 0.0
H1889 H 0.68707 0.83852 0.47698 0.0
H1890 H 0.74237 0.84874 0.4269 0.0
H1891 H 0.72673 0.8505 0.45996 0.0
H1892 H 0.6342 0.91856 0.37466 0.0
H1893 H 0.61875 0.91935 0.40821 0.0
H1894 H 0.64848 0.88561 0.34864 0.0
H1895 H 0.67925 0.86643 0.34294 0.0
C1896 C 0.64796 0.53539 0.3389 0.0
C1897 C 0.63417 0.54855 0.3619 0.0
C1898 C 0.64806 0.59498 0.34429 0.0
C1899 C 0.65889 0.58199 0.31958 0.0
N1900 N 0.66639 0.54005 0.2916 0.0
N1901 N 0.6183 0.5905 0.38569 0.0
C1902 C 0.65828 0.55222 0.31646 0.0
C1903 C 0.63348 0.57827 0.36445 0.0
N1904 N 0.65159 0.50678 0.33879 0.0
N1905 N 0.65278 0.62299 0.34903 0.0
H1906 H 0.60815 0.57882 0.40133 0.0
H1907 H 0.61425 0.61204 0.38678 0.0
H1908 H 0.66415 0.63564 0.33511 0.0
H1909 H 0.6478 0.63311 0.36786 0.0
H1910 H 0.66395 0.49615 0.32408 0.0
H1911 H 0.64431 0.49377 0.35495 0.0
H1912 H 0.66297 0.51892 0.28679 0.0
H1913 H 0.67457 0.55142 0.27469 0.0
C1914 C 0.14911 0.59943 0.59657 0.0
C1915 C 0.1537 0.60426 0.56745 0.0
C1916 C 0.19909 0.62575 0.57773 0.0
C1917 C 0.19295 0.62465 0.607 0.0
N1918 N 0.159 0.61533 0.644 0.0
N1919 N 0.1798 0.6284 0.53096 0.0
C1920 C 0.16714 0.61269 0.6165 0.0
C1921 C 0.17761 0.61948 0.55823 0.0
N1922 N 0.12768 0.58223 0.60516 0.0
N1923 N 0.22574 0.63161 0.5684 0.0
H1924 H 0.16401 0.62513 0.51617 0.0
H1925 H 0.19574 0.64181 0.52395 0.0
H1926 H 0.24271 0.63495 0.58188 0.0
H1927 H 0.23168 0.62988 0.54731 0.0
H1928 H 0.12515 0.57573 0.626 0.0
H1929 H 0.11372 0.57276 0.59107 0.0
H1930 H 0.13913 0.60936 0.65124 0.0
H1931 H 0.17085 0.62602 0.65907 0.0
C1932 C 0.84488 0.60153 0.65647 0.0
C1933 C 0.8491 0.59572 0.68547 0.0
C1934 C 0.87521 0.5529 0.67344 0.0
C1935 C 0.87281 0.55959 0.64419 0.0
N1936 N 0.86225 0.59489 0.60895 0.0
N1937 N 0.87449 0.57015 0.72137 0.0
C1938 C 0.85946 0.58518 0.63594 0.0
C1939 C 0.86631 0.57284 0.69387 0.0
N1940 N 0.82724 0.62287 0.6485 0.0
N1941 N 0.88453 0.52702 0.68206 0.0
H1942 H 0.86839 0.58413 0.73714 0.0
H1943 H 0.88963 0.55568 0.72801 0.0
H1944 H 0.89124 0.5112 0.66852 0.0
H1945 H 0.88303 0.52008 0.70285 0.0
H1946 H 0.82083 0.62599 0.62773 0.0
H1947 H 0.81754 0.63639 0.6629 0.0
H1948 H 0.85519 0.61465 0.60248 0.0
H1949 H 0.87452 0.58478 0.59377 0.0
C1950 C 0.16481 0.9092 0.65848 0.0
C1951 C 0.16177 0.91348 0.6879 0.0
C1952 C 0.13816 0.9584 0.67894 0.0
C1953 C 0.13696 0.952 0.64979 0.0
N1954 N 0.14577 0.91882 0.61209 0.0
N1955 N 0.14053 0.93964 0.7261 0.0
C1956 C 0.14965 0.92686 0.63947 0.0
C1957 C 0.147 0.93737 0.69815 0.0
N1958 N 0.18185 0.88813 0.64871 0.0
N1959 N 0.13171 0.9849 0.68824 0.0
H1960 H 0.14577 0.92417 0.74073 0.0
H1961 H 0.12745 0.95535 0.73417 0.0
H1962 H 0.12666 0.00136 0.67456 0.0
H1963 H 0.13461 0.99132 0.70905 0.0
H1964 H 0.18702 0.88571 0.6275 0.0
H1965 H 0.19272 0.87449 0.6621 0.0
H1966 H 0.15201 0.89926 0.60432 0.0
H1967 H 0.13403 0.9305 0.59767 0.0
C1968 C 0.57784 0.79711 0.90354 0.0
C1969 C 0.59994 0.80852 0.88699 0.0
C1970 C 0.58501 0.85637 0.89937 0.0
C1971 C 0.56066 0.8451 0.91264 0.0
N1972 N 0.53265 0.80471 0.92614 0.0
N1973 N 0.62411 0.84862 0.86729 0.0
C1974 C 0.5569 0.81543 0.9148 0.0
C1975 C 0.60354 0.83807 0.88454 0.0
N1976 N 0.57702 0.76873 0.90858 0.0
N1977 N 0.59079 0.88452 0.90172 0.0
H1978 H 0.63866 0.83586 0.85682 0.0
H1979 H 0.62568 0.86983 0.86188 0.0
H1980 H 0.57803 0.89837 0.91309 0.0
H1981 H 0.6095 0.89369 0.8948 0.0
H1982 H 0.56327 0.75933 0.92287 0.0
H1983 H 0.5917 0.7547 0.90011 0.0
H1984 H 0.52702 0.78355 0.92496 0.0
H1985 H 0.517 0.81717 0.9352 0.0
C1986 C 0.05573 0.14048 0.34748 0.0
C1987 C 0.05494 0.13672 0.3772 0.0
C1988 C 0.08373 0.17892 0.38311 0.0
C1989 C 0.08695 0.18121 0.35343 0.0
N1990 N 0.08341 0.15764 0.3083 0.0
N1991 N 0.07659 0.14699 0.42206 0.0
C1992 C 0.07528 0.15996 0.33583 0.0
C1993 C 0.07181 0.15414 0.3946 0.0
N1994 N 0.03695 0.12704 0.33032 0.0
N1995 N 0.09003 0.20102 0.40038 0.0
H1996 H 0.06937 0.12809 0.4307 0.0
H1997 H 0.09047 0.1581 0.43497 0.0
H1998 H 0.09585 0.22067 0.39266 0.0
H1999 H 0.08577 0.20088 0.42195 0.0
H2000 H 0.03523 0.13157 0.30888 0.0
H2001 H 0.0212 0.11366 0.33769 0.0
H2002 H 0.07703 0.141 0.29545 0.0
H2003 H 0.09917 0.17012 0.29941 0.0
C2004 C 0.41372 0.64467 0.8967 0.0
C2005 C 0.44165 0.65447 0.90049 0.0
C2006 C 0.42911 0.70016 0.87999 0.0
C2007 C 0.40124 0.69002 0.87502 0.0
N2008 N 0.36893 0.65081 0.87286 0.0
N2009 N 0.47752 0.68955 0.89247 0.0
C2010 C 0.39401 0.66177 0.88189 0.0
C2011 C 0.44977 0.68167 0.89128 0.0
N2012 N 0.40592 0.61923 0.90779 0.0
N2013 N 0.4358 0.72772 0.87489 0.0
H2014 H 0.49324 0.67711 0.90148 0.0
H2015 H 0.48559 0.70742 0.88264 0.0
H2016 H 0.42241 0.7419 0.86501 0.0
H2017 H 0.4542 0.7373 0.882 0.0
H2018 H 0.38517 0.61211 0.90843 0.0
H2019 H 0.41998 0.6061 0.91847 0.0
H2020 H 0.36358 0.62962 0.8747 0.0
H2021 H 0.35448 0.6623 0.86092 0.0
C2022 C 0.95283 0.32896 0.37073 0.0
C2023 C 0.94768 0.35832 0.36846 0.0
C2024 C 0.9047 0.34846 0.34148 0.0
C2025 C 0.90837 0.31931 0.34695 0.0
N2026 N 0.93172 0.28294 0.37393 0.0
N2027 N 0.91551 0.39604 0.35647 0.0
C2028 C 0.93108 0.30989 0.36385 0.0
C2029 C 0.92279 0.36821 0.35499 0.0
N2030 N 0.9789 0.31912 0.37814 0.0
N2031 N 0.88376 0.35728 0.32379 0.0
H2032 H 0.92743 0.411 0.36724 0.0
H2033 H 0.89622 0.40383 0.34942 0.0
H2034 H 0.86914 0.34351 0.31485 0.0
H2035 H 0.88203 0.37796 0.31663 0.0
H2036 H 0.98419 0.2978 0.37765 0.0
H2037 H 0.99619 0.3323 0.38136 0.0
H2038 H 0.94677 0.27596 0.38834 0.0
H2039 H 0.91547 0.26861 0.37058 0.0
C2040 C 0.58724 0.20584 0.59638 0.0
C2041 C 0.61003 0.19562 0.61268 0.0
C2042 C 0.59282 0.14734 0.60717 0.0
C2043 C 0.56821 0.15794 0.59364 0.0
N2044 N 0.53927 0.19805 0.58121 0.0
N2045 N 0.63335 0.15743 0.63665 0.0
C2046 C 0.5647 0.18741 0.58965 0.0
C2047 C 0.6125 0.16658 0.61897 0.0
N2048 N 0.58724 0.23311 0.58709 0.0
N2049 N 0.59802 0.11901 0.60778 0.0
H2050 H 0.64886 0.17078 0.6447 0.0
H2051 H 0.63417 0.13708 0.64484 0.0
H2052 H 0.58438 0.1041 0.59929 0.0
H2053 H 0.61704 0.11036 0.61452 0.0
H2054 H 0.57258 0.2409 0.57272 0.0
H2055 H 0.60334 0.24732 0.59185 0.0
H2056 H 0.53477 0.21954 0.58085 0.0
H2057 H 0.52161 0.1855 0.57752 0.0
C2058 C 0.40182 0.15189 0.64169 0.0
C2059 C 0.41198 0.17582 0.65656 0.0
C2060 C 0.46058 0.15928 0.6502 0.0
C2061 C 0.45047 0.13738 0.63265 0.0
N2062 N 0.41214 0.1141 0.60886 0.0
N2063 N 0.45131 0.20464 0.67152 0.0
C2064 C 0.42126 0.13399 0.62762 0.0
C2065 C 0.44145 0.18005 0.66017 0.0
N2066 N 0.37367 0.14566 0.6419 0.0
N2067 N 0.48851 0.16018 0.65734 0.0
H2068 H 0.43825 0.2207 0.67883 0.0
H2069 H 0.47252 0.21031 0.67149 0.0
H2070 H 0.50327 0.14573 0.64977 0.0
H2071 H 0.49664 0.17376 0.67253 0.0
H2072 H 0.36537 0.12695 0.63401 0.0
H2073 H 0.35876 0.15799 0.6523 0.0
H2074 H 0.39144 0.11291 0.60165 0.0
H2075 H 0.42571 0.09989 0.59894 0.0
C2076 C 0.39836 0.34259 0.60171 0.0
C2077 C 0.4267 0.34344 0.61116 0.0
C2078 C 0.42025 0.29898 0.63551 0.0
C2079 C 0.39113 0.29905 0.62867 0.0
N2080 N 0.35114 0.32603 0.61173 0.0
N2081 N 0.45986 0.32838 0.64682 0.0
C2082 C 0.37964 0.3223 0.61352 0.0
C2083 C 0.4361 0.32372 0.63137 0.0
N2084 N 0.38923 0.36131 0.58186 0.0
N2085 N 0.43344 0.27487 0.64413 0.0
H2086 H 0.47133 0.34704 0.64567 0.0
H2087 H 0.46611 0.31497 0.6631 0.0
H2088 H 0.42351 0.25528 0.64407 0.0
H2089 H 0.45516 0.27381 0.64742 0.0
H2090 H 0.36972 0.3596 0.57192 0.0
H2091 H 0.40181 0.37778 0.57445 0.0
H2092 H 0.34197 0.34395 0.60294 0.0
H2093 H 0.33665 0.31298 0.62183 0.0
C2094 C 0.58082 0.36201 0.62809 0.0
C2095 C 0.55324 0.35177 0.62224 0.0
C2096 C 0.56845 0.30371 0.63407 0.0
C2097 C 0.595 0.31449 0.64233 0.0
N2098 N 0.62579 0.35381 0.65109 0.0
N2099 N 0.51988 0.31303 0.62245 0.0
C2100 C 0.601 0.34364 0.6405 0.0
C2101 C 0.54684 0.32263 0.62581 0.0
N2102 N 0.58828 0.38873 0.62026 0.0
N2103 N 0.56402 0.2752 0.63364 0.0
H2104 H 0.5034 0.3254 0.61512 0.0
H2105 H 0.51316 0.29312 0.62878 0.0
H2106 H 0.57874 0.26063 0.64097 0.0
H2107 H 0.54665 0.26573 0.62417 0.0
H2108 H 0.60885 0.39631 0.62126 0.0
H2109 H 0.57456 0.40256 0.61012 0.0
H2110 H 0.63012 0.37521 0.65326 0.0
H2111 H 0.64123 0.34079 0.6598 0.0
C2112 C 0.85678 0.55362 0.83538 0.0
C2113 C 0.87748 0.56245 0.85488 0.0
C2114 C 0.8707 0.611 0.83919 0.0
C2115 C 0.85596 0.60104 0.81503 0.0
N2116 N 0.83887 0.56036 0.78859 0.0
N2117 N 0.90437 0.59996 0.87597 0.0
C2118 C 0.84964 0.57172 0.81278 0.0
C2119 C 0.88456 0.59132 0.85698 0.0
N2120 N 0.84397 0.52802 0.83817 0.0
N2121 N 0.8703 0.63898 0.84598 0.0
H2122 H 0.9135 0.58631 0.89062 0.0
H2123 H 0.91264 0.62031 0.87615 0.0
H2124 H 0.85823 0.65369 0.83497 0.0
H2125 H 0.87894 0.64692 0.86453 0.0
H2126 H 0.827 0.52183 0.82566 0.0
H2127 H 0.84802 0.5144 0.8549 0.0
H2128 H 0.83707 0.53868 0.78552 0.0
H2129 H 0.83468 0.57169 0.77036 0.0
C2130 C 0.86124 0.8387 0.44635 0.0
C2131 C 0.86199 0.86838 0.45036 0.0
C2132 C 0.8195 0.87279 0.42152 0.0
C2133 C 0.82124 0.84378 0.41411 0.0
N2134 N 0.85004 0.80158 0.41347 0.0
N2135 N 0.84634 0.91409 0.43378 0.0
C2136 C 0.84398 0.82739 0.4247 0.0
C2137 C 0.84253 0.8856 0.4355 0.0
N2138 N 0.87564 0.82101 0.46392 0.0
N2139 N 0.79554 0.88805 0.4167 0.0
H2140 H 0.86393 0.92432 0.442 0.0
H2141 H 0.83381 0.92695 0.4211 0.0
H2142 H 0.7771 0.87943 0.40856 0.0
H2143 H 0.7929 0.90856 0.42415 0.0
H2144 H 0.87358 0.79915 0.46293 0.0
H2145 H 0.88675 0.82795 0.48153 0.0
H2146 H 0.86787 0.79008 0.41924 0.0
H2147 H 0.83952 0.79337 0.39604 0.0
C2148 C 0.12131 0.8881 0.83307 0.0
C2149 C 0.13987 0.89887 0.81215 0.0
C2150 C 0.13574 0.94562 0.83416 0.0
C2151 C 0.11205 0.93601 0.84977 0.0
N2152 N 0.08216 0.89741 0.86434 0.0
N2153 N 0.16435 0.93989 0.79279 0.0
C2154 C 0.10476 0.90704 0.84927 0.0
C2155 C 0.14739 0.92805 0.81289 0.0
N2156 N 0.12064 0.85983 0.83855 0.0
N2157 N 0.14747 0.9714 0.83948 0.0
H2158 H 0.17572 0.92891 0.77773 0.0
H2159 H 0.16593 0.96162 0.78995 0.0
H2160 H 0.13986 0.98553 0.85438 0.0
H2161 H 0.16675 0.97771 0.83101 0.0
H2162 H 0.10924 0.85108 0.85518 0.0
H2163 H 0.13436 0.84559 0.82891 0.0
H2164 H 0.074 0.87716 0.86196 0.0
H2165 H 0.07059 0.91007 0.87808 0.0
C2166 C 0.14707 0.66036 0.43948 0.0
C2167 C 0.15374 0.63416 0.4527 0.0
C2168 C 0.20168 0.63859 0.43294 0.0
C2169 C 0.19201 0.65972 0.41435 0.0
N2170 N 0.15436 0.69008 0.3987 0.0
N2171 N 0.19117 0.59998 0.46357 0.0
C2172 C 0.16437 0.67046 0.41723 0.0
C2173 C 0.18209 0.62371 0.44999 0.0
N2174 N 0.12587 0.677 0.44964 0.0
N2175 N 0.23 0.63408 0.43593 0.0
H2176 H 0.18283 0.59222 0.48223 0.0
H2177 H 0.20883 0.58871 0.45683 0.0
H2178 H 0.24514 0.64561 0.42491 0.0
H2179 H 0.23857 0.62133 0.45164 0.0
H2180 H 0.12154 0.69699 0.44159 0.0
H2181 H 0.11604 0.6732 0.46892 0.0
H2182 H 0.13328 0.69631 0.39833 0.0
H2183 H 0.16651 0.69833 0.38235 0.0
C2184 C 0.88918 0.38773 0.6621 0.0
C2185 C 0.87228 0.39661 0.68534 0.0
C2186 C 0.87055 0.44396 0.6646 0.0
C2187 C 0.89227 0.43655 0.64543 0.0
N2188 N 0.92327 0.40102 0.62639 0.0
N2189 N 0.85173 0.4362 0.7109 0.0
C2190 C 0.9021 0.40836 0.6445 0.0
C2191 C 0.86412 0.4255 0.68717 0.0
N2192 N 0.89131 0.35978 0.65547 0.0
N2193 N 0.85568 0.46844 0.66149 0.0
H2194 H 0.84735 0.42457 0.72889 0.0
H2195 H 0.84864 0.45774 0.71395 0.0
H2196 H 0.85898 0.4827 0.64519 0.0
H2197 H 0.83783 0.47307 0.67349 0.0
H2198 H 0.90146 0.3525 0.63739 0.0
H2199 H 0.87987 0.34413 0.66579 0.0
H2200 H 0.93343 0.38155 0.6272 0.0
H2201 H 0.93167 0.41494 0.61157 0.0
C2202 C 0.67802 0.8762 0.55593 0.0
C2203 C 0.64991 0.86574 0.55423 0.0
C2204 C 0.65858 0.83727 0.59672 0.0
C2205 C 0.68545 0.85005 0.59974 0.0
N2206 N 0.71807 0.88667 0.58514 0.0
N2207 N 0.6201 0.82588 0.56541 0.0
C2208 C 0.69429 0.87109 0.58039 0.0
C2209 C 0.64181 0.84339 0.57258 0.0
N2210 N 0.69063 0.8882 0.53293 0.0
N2211 N 0.64852 0.82024 0.61769 0.0
H2212 H 0.61072 0.82613 0.54559 0.0
H2213 H 0.61459 0.80805 0.57695 0.0
H2214 H 0.65991 0.81598 0.63602 0.0
H2215 H 0.62785 0.81288 0.6184 0.0
H2216 H 0.71194 0.8935 0.53225 0.0
H2217 H 0.68151 0.88861 0.51303 0.0
H2218 H 0.723 0.90462 0.57346 0.0
H2219 H 0.73162 0.88374 0.60206 0.0
C2220 C 0.09129 0.06511 0.69535 0.0
C2221 C 0.08987 0.06852 0.66565 0.0
C2222 C 0.11171 0.11525 0.66973 0.0
C2223 C 0.1119 0.11224 0.69947 0.0
N2224 N 0.09463 0.08812 0.74073 0.0
N2225 N 0.09226 0.0993 0.62524 0.0
C2226 C 0.09941 0.08832 0.71232 0.0
C2227 C 0.09815 0.09437 0.65301 0.0
N2228 N 0.08641 0.03937 0.70737 0.0
N2229 N 0.12543 0.13737 0.65739 0.0
H2230 H 0.08156 0.08481 0.61265 0.0
H2231 H 0.0954 0.11871 0.61548 0.0
H2232 H 0.13519 0.15329 0.66895 0.0
H2233 H 0.12885 0.13888 0.63575 0.0
H2234 H 0.09048 0.03505 0.72851 0.0
H2235 H 0.08084 0.02153 0.69585 0.0
H2236 H 0.08319 0.07238 0.75092 0.0
H2237 H 0.09956 0.10516 0.75369 0.0
C2238 C 0.3546 0.65946 0.56297 0.0
C2239 C 0.35838 0.62983 0.56097 0.0
C2240 C 0.31776 0.62292 0.592 0.0
C2241 C 0.31586 0.6526 0.59656 0.0
N2242 N 0.34011 0.69744 0.59351 0.0
N2243 N 0.34949 0.5844 0.58204 0.0
C2244 C 0.33661 0.67042 0.58424 0.0
C2245 C 0.34183 0.61186 0.57815 0.0
N2246 N 0.36686 0.67725 0.54393 0.0
N2247 N 0.29627 0.60512 0.5992 0.0
H2248 H 0.36817 0.57614 0.5739 0.0
H2249 H 0.33926 0.57111 0.59627 0.0
H2250 H 0.2771 0.61165 0.60754 0.0
H2251 H 0.29627 0.58386 0.59363 0.0
H2252 H 0.36245 0.69877 0.54339 0.0
H2253 H 0.37871 0.67028 0.5268 0.0
H2254 H 0.35645 0.71033 0.58644 0.0
H2255 H 0.32925 0.7056 0.6108 0.0
C2256 C 0.85548 0.88906 0.602 0.0
C2257 C 0.85192 0.88475 0.57268 0.0
C2258 C 0.80612 0.86259 0.58108 0.0
C2259 C 0.81019 0.86565 0.6107 0.0
N2260 N 0.84275 0.87388 0.649 0.0
N2261 N 0.82746 0.86151 0.5347 0.0
C2262 C 0.83607 0.87659 0.62111 0.0
C2263 C 0.82852 0.86938 0.56241 0.0
N2264 N 0.87711 0.90546 0.6116 0.0
N2265 N 0.78042 0.85503 0.57046 0.0
H2266 H 0.84313 0.86665 0.52018 0.0
H2267 H 0.81244 0.84763 0.52673 0.0
H2268 H 0.76299 0.85024 0.58285 0.0
H2269 H 0.77548 0.85604 0.5491 0.0
H2270 H 0.87885 0.91197 0.6325 0.0
H2271 H 0.89227 0.91417 0.59825 0.0
H2272 H 0.86242 0.87918 0.65719 0.0
H2273 H 0.8299 0.86335 0.6634 0.0
C2274 C 0.80423 0.10626 0.94199 0.0
C2275 C 0.83175 0.09607 0.93653 0.0
C2276 C 0.82841 0.11138 0.88735 0.0
C2277 C 0.80005 0.11956 0.89224 0.0
N2278 N 0.75921 0.12036 0.92278 0.0
N2279 N 0.86855 0.08421 0.90346 0.0
C2280 C 0.78745 0.11573 0.91918 0.0
C2281 C 0.84343 0.09723 0.90902 0.0
N2282 N 0.79456 0.10795 0.96912 0.0
N2283 N 0.84148 0.11843 0.86263 0.0
H2284 H 0.88022 0.07372 0.91884 0.0
H2285 H 0.87664 0.08169 0.8832 0.0
H2286 H 0.83138 0.1292 0.84635 0.0
H2287 H 0.86301 0.11583 0.85918 0.0
H2288 H 0.77606 0.11837 0.97474 0.0
H2289 H 0.80618 0.10102 0.98645 0.0
H2290 H 0.74826 0.11485 0.941 0.0
H2291 H 0.74611 0.12747 0.9067 0.0
C2292 C 0.3753 0.92714 0.30466 0.0
C2293 C 0.35782 0.90445 0.31276 0.0
C2294 C 0.36632 0.91596 0.36237 0.0
C2295 C 0.3791 0.94179 0.35399 0.0
N2296 N 0.3895 0.97444 0.31587 0.0
N2297 N 0.33518 0.87751 0.34942 0.0
C2298 C 0.38206 0.94805 0.32478 0.0
C2299 C 0.35275 0.89898 0.34169 0.0
N2300 N 0.38567 0.92876 0.27786 0.0
N2301 N 0.36843 0.90684 0.38961 0.0
H2302 H 0.32632 0.8636 0.33487 0.0
H2303 H 0.32822 0.87456 0.37005 0.0
H2304 H 0.37982 0.91763 0.40497 0.0
H2305 H 0.36163 0.88703 0.3962 0.0
H2306 H 0.40042 0.94383 0.27167 0.0
H2307 H 0.38224 0.91308 0.26289 0.0
H2308 H 0.38918 0.98037 0.29471 0.0
H2309 H 0.39261 0.99139 0.32941 0.0
C2310 C 0.16796 0.38345 0.88345 0.0
C2311 C 0.19643 0.39231 0.88348 0.0
C2312 C 0.18879 0.41898 0.92667 0.0
C2313 C 0.15981 0.41126 0.9262 0.0
N2314 N 0.12047 0.39297 0.89932 0.0
N2315 N 0.23108 0.42583 0.89892 0.0
C2316 C 0.14892 0.39554 0.9031 0.0
C2317 C 0.20586 0.41264 0.903 0.0
N2318 N 0.15924 0.36312 0.86501 0.0
N2319 N 0.20067 0.43035 0.95031 0.0
H2320 H 0.24309 0.42252 0.8808 0.0
H2321 H 0.23811 0.44237 0.91154 0.0
H2322 H 0.18972 0.43335 0.96911 0.0
H2323 H 0.22229 0.43377 0.95229 0.0
H2324 H 0.13964 0.35331 0.86637 0.0
H2325 H 0.17227 0.35499 0.84925 0.0
H2326 H 0.11152 0.38395 0.88142 0.0
H2327 H 0.10571 0.40248 0.91251 0.0
C2328 C 0.1168 0.05279 0.8263 0.0
C2329 C 0.10834 0.06145 0.85378 0.0
C2330 C 0.11929 0.11065 0.84184 0.0
C2331 C 0.13142 0.10127 0.8162 0.0
N2332 N 0.14196 0.06383 0.78333 0.0
N2333 N 0.10009 0.09843 0.88773 0.0
C2334 C 0.13003 0.0725 0.80817 0.0
C2335 C 0.10913 0.09039 0.86154 0.0
N2336 N 0.11197 0.02585 0.81718 0.0
N2337 N 0.11713 0.1389 0.84709 0.0
H2338 H 0.09003 0.08474 0.90168 0.0
H2339 H 0.1033 0.11841 0.89616 0.0
H2340 H 0.12432 0.15415 0.83304 0.0
H2341 H 0.10631 0.14745 0.86414 0.0
H2342 H 0.11384 0.01961 0.79623 0.0
H2343 H 0.10418 0.00976 0.8298 0.0
H2344 H 0.14583 0.04282 0.77833 0.0
H2345 H 0.14925 0.07769 0.76791 0.0
C2346 C 0.67266 0.08923 0.07289 0.0
C2347 C 0.66086 0.10725 0.05203 0.0
C2348 C 0.67936 0.14764 0.07777 0.0
C2349 C 0.69607 0.12949 0.09477 0.0
N2350 N 0.71314 0.08187 0.10261 0.0
N2351 N 0.66083 0.15396 0.03105 0.0
C2352 C 0.69407 0.09989 0.09077 0.0
C2353 C 0.6664 0.13661 0.05336 0.0
N2354 N 0.66282 0.06245 0.07666 0.0
N2355 N 0.6748 0.17506 0.08527 0.0
H2356 H 0.65414 0.14661 0.01147 0.0
H2357 H 0.66656 0.17518 0.03097 0.0
H2358 H 0.68137 0.1834 0.10451 0.0
H2359 H 0.66116 0.18821 0.0741 0.0
H2360 H 0.66972 0.04958 0.0931 0.0
H2361 H 0.64534 0.05452 0.06599 0.0
H2362 H 0.71331 0.06035 0.09815 0.0
H2363 H 0.73074 0.08861 0.11384 0.0
C2364 C 0.39235 0.05912 0.17991 0.0
C2365 C 0.39259 0.06678 0.15076 0.0
C2366 C 0.37009 0.11205 0.16208 0.0
C2367 C 0.36758 0.10332 0.1905 0.0
N2368 N 0.37572 0.06943 0.22731 0.0
N2369 N 0.39135 0.1041 0.11629 0.0
C2370 C 0.37911 0.07736 0.19975 0.0
C2371 C 0.38425 0.09435 0.14248 0.0
N2372 N 0.40506 0.03485 0.18895 0.0
N2373 N 0.3578 0.13671 0.15361 0.0
H2374 H 0.40327 0.09231 0.10203 0.0
H2375 H 0.38827 0.12481 0.10974 0.0
H2376 H 0.34805 0.15058 0.16763 0.0
H2377 H 0.35569 0.14268 0.1326 0.0
H2378 H 0.40894 0.03021 0.21002 0.0
H2379 H 0.41367 0.01962 0.17587 0.0
H2380 H 0.37949 0.04922 0.23494 0.0
H2381 H 0.36764 0.08284 0.24273 0.0
C2382 C 0.61818 0.41845 0.19039 0.0
C2383 C 0.63972 0.3995 0.18213 0.0
C2384 C 0.63244 0.41392 0.13321 0.0
C2385 C 0.6165 0.43768 0.14245 0.0
N2386 N 0.59908 0.46452 0.18307 0.0
N2387 N 0.66839 0.37967 0.14508 0.0
C2388 C 0.61045 0.44049 0.17187 0.0
C2389 C 0.64738 0.39753 0.15336 0.0
N2390 N 0.60486 0.41571 0.21578 0.0
N2391 N 0.63184 0.40575 0.1056 0.0
H2392 H 0.6787 0.36612 0.15899 0.0
H2393 H 0.67664 0.37967 0.1247 0.0
H2394 H 0.61851 0.41497 0.09077 0.0
H2395 H 0.64146 0.38736 0.09838 0.0
H2396 H 0.58717 0.42761 0.22121 0.0
H2397 H 0.60918 0.39968 0.23009 0.0
H2398 H 0.5977 0.46786 0.20476 0.0
H2399 H 0.59403 0.48256 0.17186 0.0
loop_
_geom_bond_atom_site_label_1
_geom_bond_atom_site_label_2
_geom_bond_distance
_geom_bond_site_symmetry_2
_ccdc_geom_bond_type
C0 O2 1.247 . S
C0 O4 1.258 . S
C1 O8 1.247 . S
C1 O9 1.258 . S
O2 C0 1.247 . S
O2 Zn3 2.028 . S
Zn3 O2 2.028 . S
Zn3 O7 2.035 . S
Zn3 O9 2.035 . S
Zn3 O10 2.028 . S
O4 C0 1.258 . S
O4 Zn5 2.035 . S
Zn5 O4 2.035 . S
Zn5 O6 2.028 . S
Zn5 O8 2.028 . S
Zn5 O11 2.035 . S
O6 Zn5 2.028 . S
O6 C12 1.247 . S
O7 Zn3 2.035 . S
O7 C12 1.258 . S
O8 C1 1.247 . S
O8 Zn5 2.028 . S
O9 C1 1.258 . S
O9 Zn3 2.035 . S
O10 Zn3 2.028 . S
O10 C13 1.247 . S
O11 Zn5 2.035 . S
O11 C13 1.258 . S
C12 O6 1.247 . S
C12 O7 1.258 . S
C13 O10 1.247 . S
C13 O11 1.258 . S
C14 O16 1.247 . S
C14 O18 1.258 . S
C15 O22 1.247 . S
C15 O23 1.258 . S
O16 C14 1.247 . S
O16 Zn17 2.028 . S
Zn17 O16 2.028 . S
Zn17 O21 2.035 . S
Zn17 O23 2.035 . S
Zn17 O24 2.028 . S
O18 C14 1.258 . S
O18 Zn19 2.035 . S
Zn19 O18 2.035 . S
Zn19 O20 2.028 . S
Zn19 O22 2.028 . S
Zn19 O25 2.035 . S
O20 Zn19 2.028 . S
O20 C26 1.247 . S
O21 Zn17 2.035 . S
O21 C26 1.258 . S
O22 C15 1.247 . S
O22 Zn19 2.028 . S
O23 C15 1.258 . S
O23 Zn17 2.035 . S
O24 Zn17 2.028 . S
O24 C27 1.247 . S
O25 Zn19 2.035 . S
O25 C27 1.258 . S
C26 O20 1.247 . S
C26 O21 1.258 . S
C27 O24 1.247 . S
C27 O25 1.258 . S
C28 O30 1.247 . S
C28 O32 1.258 . S
C29 O36 1.247 . S
C29 O37 1.258 . S
O30 C28 1.247 . S
O30 Zn31 2.028 . S
Zn31 O30 2.028 . S
Zn31 O35 2.035 . S
Zn31 O37 2.035 . S
Zn31 O38 2.028 . S
O32 C28 1.258 . S
O32 Zn33 2.035 . S
Zn33 O32 2.035 . S
Zn33 O34 2.028 . S
Zn33 O36 2.028 . S
Zn33 O39 2.035 . S
O34 Zn33 2.028 . S
O34 C40 1.247 . S
O35 Zn31 2.035 . S
O35 C40 1.258 . S
O36 C29 1.247 . S
O36 Zn33 2.028 . S
O37 C29 1.258 . S
O37 Zn31 2.035 . S
O38 Zn31 2.028 . S
O38 C41 1.247 . S
O39 Zn33 2.035 . S
O39 C41 1.258 . S
C40 O34 1.247 . S
C40 O35 1.258 . S
C41 O38 1.247 . S
C41 O39 1.258 . S
C42 O44 1.247 . S
C42 O46 1.258 . S
C43 O50 1.247 . S
C43 O51 1.258 . S
O44 C42 1.247 . S
O44 Zn45 2.028 . S
Zn45 O44 2.028 . S
Zn45 O49 2.035 . S
Zn45 O51 2.035 . S
Zn45 O52 2.028 . S
O46 C42 1.258 . S
O46 Zn47 2.035 . S
Zn47 O46 2.035 . S
Zn47 O48 2.028 . S
Zn47 O50 2.028 . S
Zn47 O53 2.035 . S
O48 Zn47 2.028 . S
O48 C54 1.247 . S
O49 Zn45 2.035 . S
O49 C54 1.258 . S
O50 C43 1.247 . S
O50 Zn47 2.028 . S
O51 C43 1.258 . S
O51 Zn45 2.035 . S
O52 Zn45 2.028 . S
O52 C55 1.247 . S
O53 Zn47 2.035 . S
O53 C55 1.258 . S
C54 O48 1.247 . S
C54 O49 1.258 . S
C55 O52 1.247 . S
C55 O53 1.258 . S
C56 O58 1.247 . S
C56 O60 1.258 . S
C57 O64 1.247 . S
C57 O65 1.258 . S
O58 C56 1.247 . S
O58 Zn59 2.028 . S
Zn59 O58 2.028 . S
Zn59 O63 2.035 . S
Zn59 O65 2.035 . S
Zn59 O66 2.028 . S
O60 C56 1.258 . S
O60 Zn61 2.035 . S
Zn61 O60 2.035 . S
Zn61 O62 2.028 . S
Zn61 O64 2.028 . S
Zn61 O67 2.035 . S
O62 Zn61 2.028 . S
O62 C68 1.247 . S
O63 Zn59 2.035 . S
O63 C68 1.258 . S
O64 C57 1.247 . S
O64 Zn61 2.028 . S
O65 C57 1.258 . S
O65 Zn59 2.035 . S
O66 Zn59 2.028 . S
O66 C69 1.247 . S
O67 Zn61 2.035 . S
O67 C69 1.258 . S
C68 O62 1.247 . S
C68 O63 1.258 . S
C69 O66 1.247 . S
C69 O67 1.258 . S
C70 O72 1.247 . S
C70 O74 1.258 . S
C71 O78 1.247 . S
C71 O79 1.258 . S
O72 C70 1.247 . S
O72 Zn73 2.028 . S
Zn73 O72 2.028 . S
Zn73 O77 2.035 . S
Zn73 O79 2.035 1_455 S
Zn73 O80 2.028 1_455 S
O74 C70 1.258 . S
O74 Zn75 2.035 1_455 S
Zn75 O74 2.035 1_655 S
Zn75 O76 2.028 1_655 S
Zn75 O78 2.028 . S
Zn75 O81 2.035 . S
O76 Zn75 2.028 1_455 S
O76 C82 1.247 . S
O77 Zn73 2.035 . S
O77 C82 1.258 . S
O78 C71 1.247 . S
O78 Zn75 2.028 . S
O79 C71 1.258 . S
O79 Zn73 2.035 1_655 S
O80 Zn73 2.028 1_655 S
O80 C83 1.247 . S
O81 Zn75 2.035 . S
O81 C83 1.258 . S
C82 O76 1.247 . S
C82 O77 1.258 . S
C83 O80 1.247 . S
C83 O81 1.258 . S
C84 O86 1.247 . S
C84 O88 1.258 . S
C85 O92 1.247 . S
C85 O93 1.258 . S
O86 C84 1.247 . S
O86 Zn87 2.028 . S
Zn87 O86 2.028 . S
Zn87 O91 2.035 . S
Zn87 O93 2.035 . S
Zn87 O94 2.028 . S
O88 C84 1.258 . S
O88 Zn89 2.035 . S
Zn89 O88 2.035 . S
Zn89 O90 2.028 . S
Zn89 O92 2.028 . S
Zn89 O95 2.035 . S
O90 Zn89 2.028 . S
O90 C96 1.247 . S
O91 Zn87 2.035 . S
O91 C96 1.258 . S
O92 C85 1.247 . S
O92 Zn89 2.028 . S
O93 C85 1.258 . S
O93 Zn87 2.035 . S
O94 Zn87 2.028 . S
O94 C97 1.247 . S
O95 Zn89 2.035 . S
O95 C97 1.258 . S
C96 O90 1.247 . S
C96 O91 1.258 . S
C97 O94 1.247 . S
C97 O95 1.258 . S
C98 O100 1.247 . S
C98 O102 1.258 . S
C99 O106 1.247 . S
C99 O107 1.258 . S
O100 C98 1.247 . S
O100 Zn101 2.028 . S
Zn101 O100 2.028 . S
Zn101 O105 2.035 . S
Zn101 O107 2.035 1_655 S
Zn101 O108 2.028 1_655 S
O102 C98 1.258 . S
O102 Zn103 2.035 1_655 S
Zn103 O102 2.035 1_455 S
Zn103 O104 2.028 1_455 S
Zn103 O106 2.028 . S
Zn103 O109 2.035 . S
O104 Zn103 2.028 1_655 S
O104 C110 1.247 . S
O105 Zn101 2.035 . S
O105 C110 1.258 . S
O106 C99 1.247 . S
O106 Zn103 2.028 . S
O107 C99 1.258 . S
O107 Zn101 2.035 1_455 S
O108 Zn101 2.028 1_455 S
O108 C111 1.247 . S
O109 Zn103 2.035 . S
O109 C111 1.258 . S
C110 O104 1.247 . S
C110 O105 1.258 . S
C111 O108 1.247 . S
C111 O109 1.258 . S
C112 O114 1.247 . S
C112 O116 1.258 . S
C113 O120 1.247 . S
C113 O121 1.258 . S
O114 C112 1.247 . S
O114 Zn115 2.028 . S
Zn115 O114 2.028 . S
Zn115 O119 2.035 . S
Zn115 O121 2.035 . S
Zn115 O122 2.028 . S
O116 C112 1.258 . S
O116 Zn117 2.035 . S
Zn117 O116 2.035 . S
Zn117 O118 2.028 . S
Zn117 O120 2.028 . S
Zn117 O123 2.035 . S
O118 Zn117 2.028 . S
O118 C124 1.247 . S
O119 Zn115 2.035 . S
O119 C124 1.258 . S
O120 C113 1.247 . S
O120 Zn117 2.028 . S
O121 C113 1.258 . S
O121 Zn115 2.035 . S
O122 Zn115 2.028 . S
O122 C125 1.247 . S
O123 Zn117 2.035 . S
O123 C125 1.258 . S
C124 O118 1.247 . S
C124 O119 1.258 . S
C125 O122 1.247 . S
C125 O123 1.258 . S
C126 O128 1.247 . S
C126 O130 1.258 . S
C127 O134 1.247 . S
C127 O135 1.258 . S
O128 C126 1.247 . S
O128 Zn129 2.028 . S
Zn129 O128 2.028 . S
Zn129 O133 2.035 . S
Zn129 O135 2.035 1_556 S
Zn129 O136 2.028 1_556 S
O130 C126 1.258 . S
O130 Zn131 2.035 1_556 S
Zn131 O130 2.035 1_554 S
Zn131 O132 2.028 1_554 S
Zn131 O134 2.028 . S
Zn131 O137 2.035 . S
O132 Zn131 2.028 1_556 S
O132 C138 1.247 . S
O133 Zn129 2.035 . S
O133 C138 1.258 . S
O134 C127 1.247 . S
O134 Zn131 2.028 . S
O135 C127 1.258 . S
O135 Zn129 2.035 1_554 S
O136 Zn129 2.028 1_554 S
O136 C139 1.247 . S
O137 Zn131 2.035 . S
O137 C139 1.258 . S
C138 O132 1.247 . S
C138 O133 1.258 . S
C139 O136 1.247 . S
C139 O137 1.258 . S
C140 O142 1.247 . S
C140 O144 1.258 . S
C141 O148 1.247 . S
C141 O149 1.258 . S
O142 C140 1.247 . S
O142 Zn143 2.028 . S
Zn143 O142 2.028 . S
Zn143 O147 2.035 . S
Zn143 O149 2.035 . S
Zn143 O150 2.028 . S
O144 C140 1.258 . S
O144 Zn145 2.035 . S
Zn145 O144 2.035 . S
Zn145 O146 2.028 . S
Zn145 O148 2.028 . S
Zn145 O151 2.035 . S
O146 Zn145 2.028 . S
O146 C152 1.247 . S
O147 Zn143 2.035 . S
O147 C152 1.258 . S
O148 C141 1.247 . S
O148 Zn145 2.028 . S
O149 C141 1.258 . S
O149 Zn143 2.035 . S
O150 Zn143 2.028 . S
O150 C153 1.247 . S
O151 Zn145 2.035 . S
O151 C153 1.258 . S
C152 O146 1.247 . S
C152 O147 1.258 . S
C153 O150 1.247 . S
C153 O151 1.258 . S
C154 O156 1.247 . S
C154 O158 1.258 . S
C155 O162 1.247 . S
C155 O163 1.258 . S
O156 C154 1.247 . S
O156 Zn157 2.028 1_554 S
Zn157 O156 2.028 1_556 S
Zn157 O161 2.035 1_556 S
Zn157 O163 2.035 . S
Zn157 O164 2.028 . S
O158 C154 1.258 . S
O158 Zn159 2.035 . S
Zn159 O158 2.035 . S
Zn159 O160 2.028 . S
Zn159 O162 2.028 1_554 S
Zn159 O165 2.035 1_554 S
O160 Zn159 2.028 . S
O160 C166 1.247 . S
O161 Zn157 2.035 1_554 S
O161 C166 1.258 . S
O162 C155 1.247 . S
O162 Zn159 2.028 1_556 S
O163 C155 1.258 . S
O163 Zn157 2.035 . S
O164 Zn157 2.028 . S
O164 C167 1.247 . S
O165 Zn159 2.035 1_556 S
O165 C167 1.258 . S
C166 O160 1.247 . S
C166 O161 1.258 . S
C167 O164 1.247 . S
C167 O165 1.258 . S
C168 O170 1.247 . S
C168 O172 1.258 . S
C169 O176 1.247 . S
C169 O177 1.258 . S
O170 C168 1.247 . S
O170 Zn171 2.028 . S
Zn171 O170 2.028 . S
Zn171 O175 2.035 . S
Zn171 O177 2.035 . S
Zn171 O178 2.028 . S
O172 C168 1.258 . S
O172 Zn173 2.035 . S
Zn173 O172 2.035 . S
Zn173 O174 2.028 . S
Zn173 O176 2.028 . S
Zn173 O179 2.035 . S
O174 Zn173 2.028 . S
O174 C180 1.247 . S
O175 Zn171 2.035 . S
O175 C180 1.258 . S
O176 C169 1.247 . S
O176 Zn173 2.028 . S
O177 C169 1.258 . S
O177 Zn171 2.035 . S
O178 Zn171 2.028 . S
O178 C181 1.247 . S
O179 Zn173 2.035 . S
O179 C181 1.258 . S
C180 O174 1.247 . S
C180 O175 1.258 . S
C181 O178 1.247 . S
C181 O179 1.258 . S
C182 O184 1.247 . S
C182 O186 1.258 . S
C183 O190 1.247 . S
C183 O191 1.258 . S
O184 C182 1.247 . S
O184 Zn185 2.028 . S
Zn185 O184 2.028 . S
Zn185 O189 2.035 . S
Zn185 O191 2.035 1_554 S
Zn185 O192 2.028 1_554 S
O186 C182 1.258 . S
O186 Zn187 2.035 1_554 S
Zn187 O186 2.035 1_556 S
Zn187 O188 2.028 1_556 S
Zn187 O190 2.028 . S
Zn187 O193 2.035 . S
O188 Zn187 2.028 1_554 S
O188 C194 1.247 . S
O189 Zn185 2.035 . S
O189 C194 1.258 . S
O190 C183 1.247 . S
O190 Zn187 2.028 . S
O191 C183 1.258 . S
O191 Zn185 2.035 1_556 S
O192 Zn185 2.028 1_556 S
O192 C195 1.247 . S
O193 Zn187 2.035 . S
O193 C195 1.258 . S
C194 O188 1.247 . S
C194 O189 1.258 . S
C195 O192 1.247 . S
C195 O193 1.258 . S
C196 O198 1.247 . S
C196 O200 1.258 . S
C197 O204 1.247 . S
C197 O205 1.258 . S
O198 C196 1.247 . S
O198 Zn199 2.028 . S
Zn199 O198 2.028 . S
Zn199 O203 2.035 . S
Zn199 O205 2.035 . S
Zn199 O206 2.028 . S
O200 C196 1.258 . S
O200 Zn201 2.035 . S
Zn201 O200 2.035 . S
Zn201 O202 2.028 . S
Zn201 O204 2.028 . S
Zn201 O207 2.035 . S
O202 Zn201 2.028 . S
O202 C208 1.247 . S
O203 Zn199 2.035 . S
O203 C208 1.258 . S
O204 C197 1.247 . S
O204 Zn201 2.028 . S
O205 C197 1.258 . S
O205 Zn199 2.035 . S
O206 Zn199 2.028 . S
O206 C209 1.247 . S
O207 Zn201 2.035 . S
O207 C209 1.258 . S
C208 O202 1.247 . S
C208 O203 1.258 . S
C209 O206 1.247 . S
C209 O207 1.258 . S
C210 O212 1.247 . S
C210 O214 1.258 . S
C211 O218 1.247 . S
C211 O219 1.258 . S
O212 C210 1.247 . S
O212 Zn213 2.028 1_556 S
Zn213 O212 2.028 1_554 S
Zn213 O217 2.035 1_554 S
Zn213 O219 2.035 . S
Zn213 O220 2.028 . S
O214 C210 1.258 . S
O214 Zn215 2.035 . S
Zn215 O214 2.035 . S
Zn215 O216 2.028 . S
Zn215 O218 2.028 1_556 S
Zn215 O221 2.035 1_556 S
O216 Zn215 2.028 . S
O216 C222 1.247 . S
O217 Zn213 2.035 1_556 S
O217 C222 1.258 . S
O218 C211 1.247 . S
O218 Zn215 2.028 1_554 S
O219 C211 1.258 . S
O219 Zn213 2.035 . S
O220 Zn213 2.028 . S
O220 C223 1.247 . S
O221 Zn215 2.035 1_554 S
O221 C223 1.258 . S
C222 O216 1.247 . S
C222 O217 1.258 . S
C223 O220 1.247 . S
C223 O221 1.258 . S
C224 O226 1.247 . S
C224 O228 1.258 . S
C225 O232 1.247 . S
C225 O233 1.258 . S
O226 C224 1.247 . S
O226 Zn227 2.028 . S
Zn227 O226 2.028 . S
Zn227 O231 2.035 . S
Zn227 O233 2.035 . S
Zn227 O234 2.028 . S
O228 C224 1.258 . S
O228 Zn229 2.035 . S
Zn229 O228 2.035 . S
Zn229 O230 2.028 . S
Zn229 O232 2.028 . S
Zn229 O235 2.035 . S
O230 Zn229 2.028 . S
O230 C236 1.247 . S
O231 Zn227 2.035 . S
O231 C236 1.258 . S
O232 C225 1.247 . S
O232 Zn229 2.028 . S
O233 C225 1.258 . S
O233 Zn227 2.035 . S
O234 Zn227 2.028 . S
O234 C237 1.247 . S
O235 Zn229 2.035 . S
O235 C237 1.258 . S
C236 O230 1.247 . S
C236 O231 1.258 . S
C237 O234 1.247 . S
C237 O235 1.258 . S
C238 O240 1.247 . S
C238 O242 1.258 . S
C239 O246 1.247 . S
C239 O247 1.258 . S
O240 C238 1.247 . S
O240 Zn241 2.028 . S
Zn241 O240 2.028 . S
Zn241 O245 2.035 . S
Zn241 O247 2.035 . S
Zn241 O248 2.028 . S
O242 C238 1.258 . S
O242 Zn243 2.035 . S
Zn243 O242 2.035 . S
Zn243 O244 2.028 . S
Zn243 O246 2.028 . S
Zn243 O249 2.035 . S
O244 Zn243 2.028 . S
O244 C250 1.247 . S
O245 Zn241 2.035 . S
O245 C250 1.258 . S
O246 C239 1.247 . S
O246 Zn243 2.028 . S
O247 C239 1.258 . S
O247 Zn241 2.035 . S
O248 Zn241 2.028 . S
O248 C251 1.247 . S
O249 Zn243 2.035 . S
O249 C251 1.258 . S
C250 O244 1.247 . S
C250 O245 1.258 . S
C251 O248 1.247 . S
C251 O249 1.258 . S
C252 O254 1.247 . S
C252 O256 1.258 . S
C253 O260 1.247 . S
C253 O261 1.258 . S
O254 C252 1.247 . S
O254 Zn255 2.028 . S
Zn255 O254 2.028 . S
Zn255 O259 2.035 . S
Zn255 O261 2.035 . S
Zn255 O262 2.028 . S
O256 C252 1.258 . S
O256 Zn257 2.035 . S
Zn257 O256 2.035 . S
Zn257 O258 2.028 . S
Zn257 O260 2.028 . S
Zn257 O263 2.035 . S
O258 Zn257 2.028 . S
O258 C264 1.247 . S
O259 Zn255 2.035 . S
O259 C264 1.258 . S
O260 C253 1.247 . S
O260 Zn257 2.028 . S
O261 C253 1.258 . S
O261 Zn255 2.035 . S
O262 Zn255 2.028 . S
O262 C265 1.247 . S
O263 Zn257 2.035 . S
O263 C265 1.258 . S
C264 O258 1.247 . S
C264 O259 1.258 . S
C265 O262 1.247 . S
C265 O263 1.258 . S
C266 O268 1.247 . S
C266 O270 1.258 . S
C267 O274 1.247 . S
C267 O275 1.258 . S
O268 C266 1.247 . S
O268 Zn269 2.028 . S
Zn269 O268 2.028 . S
Zn269 O273 2.035 . S
Zn269 O275 2.035 . S
Zn269 O276 2.028 . S
O270 C266 1.258 . S
O270 Zn271 2.035 . S
Zn271 O270 2.035 . S
Zn271 O272 2.028 . S
Zn271 O274 2.028 . S
Zn271 O277 2.035 . S
O272 Zn271 2.028 . S
O272 C278 1.247 . S
O273 Zn269 2.035 . S
O273 C278 1.258 . S
O274 C267 1.247 . S
O274 Zn271 2.028 . S
O275 C267 1.258 . S
O275 Zn269 2.035 . S
O276 Zn269 2.028 . S
O276 C279 1.247 . S
O277 Zn271 2.035 . S
O277 C279 1.258 . S
C278 O272 1.247 . S
C278 O273 1.258 . S
C279 O276 1.247 . S
C279 O277 1.258 . S
C280 O282 1.247 . S
C280 O284 1.258 . S
C281 O288 1.247 . S
C281 O289 1.258 . S
O282 C280 1.247 . S
O282 Zn283 2.028 . S
Zn283 O282 2.028 . S
Zn283 O287 2.035 . S
Zn283 O289 2.035 . S
Zn283 O290 2.028 . S
O284 C280 1.258 . S
O284 Zn285 2.035 . S
Zn285 O284 2.035 . S
Zn285 O286 2.028 . S
Zn285 O288 2.028 . S
Zn285 O291 2.035 . S
O286 Zn285 2.028 . S
O286 C292 1.247 . S
O287 Zn283 2.035 . S
O287 C292 1.258 . S
O288 C281 1.247 . S
O288 Zn285 2.028 . S
O289 C281 1.258 . S
O289 Zn283 2.035 . S
O290 Zn283 2.028 . S
O290 C293 1.247 . S
O291 Zn285 2.035 . S
O291 C293 1.258 . S
C292 O286 1.247 . S
C292 O287 1.258 . S
C293 O290 1.247 . S
C293 O291 1.258 . S
C294 O296 1.247 . S
C294 O298 1.258 . S
C295 O302 1.247 . S
C295 O303 1.258 . S
O296 C294 1.247 . S
O296 Zn297 2.028 . S
Zn297 O296 2.028 . S
Zn297 O301 2.035 . S
Zn297 O303 2.035 . S
Zn297 O304 2.028 . S
O298 C294 1.258 . S
O298 Zn299 2.035 . S
Zn299 O298 2.035 . S
Zn299 O300 2.028 . S
Zn299 O302 2.028 . S
Zn299 O305 2.035 . S
O300 Zn299 2.028 . S
O300 C306 1.247 . S
O301 Zn297 2.035 . S
O301 C306 1.258 . S
O302 C295 1.247 . S
O302 Zn299 2.028 . S
O303 C295 1.258 . S
O303 Zn297 2.035 . S
O304 Zn297 2.028 . S
O304 C307 1.247 . S
O305 Zn299 2.035 . S
O305 C307 1.258 . S
C306 O300 1.247 . S
C306 O301 1.258 . S
C307 O304 1.247 . S
C307 O305 1.258 . S
C308 O310 1.247 . S
C308 O312 1.258 . S
C309 O316 1.247 . S
C309 O317 1.258 . S
O310 C308 1.247 . S
O310 Zn311 2.028 . S
Zn311 O310 2.028 . S
Zn311 O315 2.035 . S
Zn311 O317 2.035 . S
Zn311 O318 2.028 . S
O312 C308 1.258 . S
O312 Zn313 2.035 . S
Zn313 O312 2.035 . S
Zn313 O314 2.028 . S
Zn313 O316 2.028 . S
Zn313 O319 2.035 . S
O314 Zn313 2.028 . S
O314 C320 1.247 . S
O315 Zn311 2.035 . S
O315 C320 1.258 . S
O316 C309 1.247 . S
O316 Zn313 2.028 . S
O317 C309 1.258 . S
O317 Zn311 2.035 . S
O318 Zn311 2.028 . S
O318 C321 1.247 . S
O319 Zn313 2.035 . S
O319 C321 1.258 . S
C320 O314 1.247 . S
C320 O315 1.258 . S
C321 O318 1.247 . S
C321 O319 1.258 . S
C322 O324 1.247 . S
C322 O326 1.258 . S
C323 O330 1.247 . S
C323 O331 1.258 . S
O324 C322 1.247 . S
O324 Zn325 2.028 . S
Zn325 O324 2.028 . S
Zn325 O329 2.035 . S
Zn325 O331 2.035 1_545 S
Zn325 O332 2.028 1_545 S
O326 C322 1.258 . S
O326 Zn327 2.035 1_545 S
Zn327 O326 2.035 1_565 S
Zn327 O328 2.028 1_565 S
Zn327 O330 2.028 . S
Zn327 O333 2.035 . S
O328 Zn327 2.028 1_545 S
O328 C334 1.247 . S
O329 Zn325 2.035 . S
O329 C334 1.258 . S
O330 C323 1.247 . S
O330 Zn327 2.028 . S
O331 C323 1.258 . S
O331 Zn325 2.035 1_565 S
O332 Zn325 2.028 1_565 S
O332 C335 1.247 . S
O333 Zn327 2.035 . S
O333 C335 1.258 . S
C334 O328 1.247 . S
C334 O329 1.258 . S
C335 O332 1.247 . S
C335 O333 1.258 . S
C336 O338 1.247 . S
C336 O340 1.258 . S
C337 O344 1.247 . S
C337 O345 1.258 . S
O338 C336 1.247 . S
O338 Zn339 2.028 . S
Zn339 O338 2.028 . S
Zn339 O343 2.035 . S
Zn339 O345 2.035 . S
Zn339 O346 2.028 . S
O340 C336 1.258 . S
O340 Zn341 2.035 . S
Zn341 O340 2.035 . S
Zn341 O342 2.028 . S
Zn341 O344 2.028 . S
Zn341 O347 2.035 . S
O342 Zn341 2.028 . S
O342 C348 1.247 . S
O343 Zn339 2.035 . S
O343 C348 1.258 . S
O344 C337 1.247 . S
O344 Zn341 2.028 . S
O345 C337 1.258 . S
O345 Zn339 2.035 . S
O346 Zn339 2.028 . S
O346 C349 1.247 . S
O347 Zn341 2.035 . S
O347 C349 1.258 . S
C348 O342 1.247 . S
C348 O343 1.258 . S
C349 O346 1.247 . S
C349 O347 1.258 . S
C350 O352 1.247 . S
C350 O354 1.258 . S
C351 O358 1.247 . S
C351 O359 1.258 . S
O352 C350 1.247 . S
O352 Zn353 2.028 1_655 S
Zn353 O352 2.028 1_455 S
Zn353 O357 2.035 1_455 S
Zn353 O359 2.035 . S
Zn353 O360 2.028 . S
O354 C350 1.258 . S
O354 Zn355 2.035 . S
Zn355 O354 2.035 . S
Zn355 O356 2.028 . S
Zn355 O358 2.028 1_655 S
Zn355 O361 2.035 1_655 S
O356 Zn355 2.028 . S
O356 C362 1.247 . S
O357 Zn353 2.035 1_655 S
O357 C362 1.258 . S
O358 C351 1.247 . S
O358 Zn355 2.028 1_455 S
O359 C351 1.258 . S
O359 Zn353 2.035 . S
O360 Zn353 2.028 . S
O360 C363 1.247 . S
O361 Zn355 2.035 1_455 S
O361 C363 1.258 . S
C362 O356 1.247 . S
C362 O357 1.258 . S
C363 O360 1.247 . S
C363 O361 1.258 . S
C364 O366 1.247 . S
C364 O368 1.258 . S
C365 O372 1.247 . S
C365 O373 1.258 . S
O366 C364 1.247 . S
O366 Zn367 2.028 . S
Zn367 O366 2.028 . S
Zn367 O371 2.035 . S
Zn367 O373 2.035 . S
Zn367 O374 2.028 . S
O368 C364 1.258 . S
O368 Zn369 2.035 . S
Zn369 O368 2.035 . S
Zn369 O370 2.028 . S
Zn369 O372 2.028 . S
Zn369 O375 2.035 . S
O370 Zn369 2.028 . S
O370 C376 1.247 . S
O371 Zn367 2.035 . S
O371 C376 1.258 . S
O372 C365 1.247 . S
O372 Zn369 2.028 . S
O373 C365 1.258 . S
O373 Zn367 2.035 . S
O374 Zn367 2.028 . S
O374 C377 1.247 . S
O375 Zn369 2.035 . S
O375 C377 1.258 . S
C376 O370 1.247 . S
C376 O371 1.258 . S
C377 O374 1.247 . S
C377 O375 1.258 . S
C378 O380 1.247 . S
C378 O382 1.258 . S
C379 O386 1.247 . S
C379 O387 1.258 . S
O380 C378 1.247 . S
O380 Zn381 2.028 1_455 S
Zn381 O380 2.028 1_655 S
Zn381 O385 2.035 1_655 S
Zn381 O387 2.035 . S
Zn381 O388 2.028 . S
O382 C378 1.258 . S
O382 Zn383 2.035 . S
Zn383 O382 2.035 . S
Zn383 O384 2.028 . S
Zn383 O386 2.028 1_455 S
Zn383 O389 2.035 1_455 S
O384 Zn383 2.028 . S
O384 C390 1.247 . S
O385 Zn381 2.035 1_455 S
O385 C390 1.258 . S
O386 C379 1.247 . S
O386 Zn383 2.028 1_655 S
O387 C379 1.258 . S
O387 Zn381 2.035 . S
O388 Zn381 2.028 . S
O388 C391 1.247 . S
O389 Zn383 2.035 1_655 S
O389 C391 1.258 . S
C390 O384 1.247 . S
C390 O385 1.258 . S
C391 O388 1.247 . S
C391 O389 1.258 . S
C392 O394 1.247 . S
C392 O396 1.258 . S
C393 O400 1.247 . S
C393 O401 1.258 . S
O394 C392 1.247 . S
O394 Zn395 2.028 . S
Zn395 O394 2.028 . S
Zn395 O399 2.035 . S
Zn395 O401 2.035 . S
Zn395 O402 2.028 . S
O396 C392 1.258 . S
O396 Zn397 2.035 . S
Zn397 O396 2.035 . S
Zn397 O398 2.028 . S
Zn397 O400 2.028 . S
Zn397 O403 2.035 . S
O398 Zn397 2.028 . S
O398 C404 1.247 . S
O399 Zn395 2.035 . S
O399 C404 1.258 . S
O400 C393 1.247 . S
O400 Zn397 2.028 . S
O401 C393 1.258 . S
O401 Zn395 2.035 . S
O402 Zn395 2.028 . S
O402 C405 1.247 . S
O403 Zn397 2.035 . S
O403 C405 1.258 . S
C404 O398 1.247 . S
C404 O399 1.258 . S
C405 O402 1.247 . S
C405 O403 1.258 . S
C406 O408 1.247 . S
C406 O410 1.258 . S
C407 O414 1.247 . S
C407 O415 1.258 . S
O408 C406 1.247 . S
O408 Zn409 2.028 . S
Zn409 O408 2.028 . S
Zn409 O413 2.035 . S
Zn409 O415 2.035 . S
Zn409 O416 2.028 . S
O410 C406 1.258 . S
O410 Zn411 2.035 . S
Zn411 O410 2.035 . S
Zn411 O412 2.028 . S
Zn411 O414 2.028 . S
Zn411 O417 2.035 . S
O412 Zn411 2.028 . S
O412 C418 1.247 . S
O413 Zn409 2.035 . S
O413 C418 1.258 . S
O414 C407 1.247 . S
O414 Zn411 2.028 . S
O415 C407 1.258 . S
O415 Zn409 2.035 . S
O416 Zn409 2.028 . S
O416 C419 1.247 . S
O417 Zn411 2.035 . S
O417 C419 1.258 . S
C418 O412 1.247 . S
C418 O413 1.258 . S
C419 O416 1.247 . S
C419 O417 1.258 . S
C420 O422 1.247 . S
C420 O424 1.258 . S
C421 O428 1.247 . S
C421 O429 1.258 . S
O422 C420 1.247 . S
O422 Zn423 2.028 . S
Zn423 O422 2.028 . S
Zn423 O427 2.035 . S
Zn423 O429 2.035 . S
Zn423 O430 2.028 . S
O424 C420 1.258 . S
O424 Zn425 2.035 . S
Zn425 O424 2.035 . S
Zn425 O426 2.028 . S
Zn425 O428 2.028 . S
Zn425 O431 2.035 . S
O426 Zn425 2.028 . S
O426 C432 1.247 . S
O427 Zn423 2.035 . S
O427 C432 1.258 . S
O428 C421 1.247 . S
O428 Zn425 2.028 . S
O429 C421 1.258 . S
O429 Zn423 2.035 . S
O430 Zn423 2.028 . S
O430 C433 1.247 . S
O431 Zn425 2.035 . S
O431 C433 1.258 . S
C432 O426 1.247 . S
C432 O427 1.258 . S
C433 O430 1.247 . S
C433 O431 1.258 . S
C434 O436 1.247 . S
C434 O438 1.258 . S
C435 O442 1.247 . S
C435 O443 1.258 . S
O436 C434 1.247 . S
O436 Zn437 2.028 . S
Zn437 O436 2.028 . S
Zn437 O441 2.035 . S
Zn437 O443 2.035 . S
Zn437 O444 2.028 . S
O438 C434 1.258 . S
O438 Zn439 2.035 . S
Zn439 O438 2.035 . S
Zn439 O440 2.028 . S
Zn439 O442 2.028 . S
Zn439 O445 2.035 . S
O440 Zn439 2.028 . S
O440 C446 1.247 . S
O441 Zn437 2.035 . S
O441 C446 1.258 . S
O442 C435 1.247 . S
O442 Zn439 2.028 . S
O443 C435 1.258 . S
O443 Zn437 2.035 . S
O444 Zn437 2.028 . S
O444 C447 1.247 . S
O445 Zn439 2.035 . S
O445 C447 1.258 . S
C446 O440 1.247 . S
C446 O441 1.258 . S
C447 O444 1.247 . S
C447 O445 1.258 . S
C448 O450 1.247 . S
C448 O452 1.258 . S
C449 O456 1.247 . S
C449 O457 1.258 . S
O450 C448 1.247 . S
O450 Zn451 2.028 . S
Zn451 O450 2.028 . S
Zn451 O455 2.035 . S
Zn451 O457 2.035 . S
Zn451 O458 2.028 . S
O452 C448 1.258 . S
O452 Zn453 2.035 . S
Zn453 O452 2.035 . S
Zn453 O454 2.028 . S
Zn453 O456 2.028 . S
Zn453 O459 2.035 . S
O454 Zn453 2.028 . S
O454 C460 1.247 . S
O455 Zn451 2.035 . S
O455 C460 1.258 . S
O456 C449 1.247 . S
O456 Zn453 2.028 . S
O457 C449 1.258 . S
O457 Zn451 2.035 . S
O458 Zn451 2.028 . S
O458 C461 1.247 . S
O459 Zn453 2.035 . S
O459 C461 1.258 . S
C460 O454 1.247 . S
C460 O455 1.258 . S
C461 O458 1.247 . S
C461 O459 1.258 . S
C462 O464 1.247 . S
C462 O466 1.258 . S
C463 O470 1.247 . S
C463 O471 1.258 . S
O464 C462 1.247 . S
O464 Zn465 2.028 . S
Zn465 O464 2.028 . S
Zn465 O469 2.035 . S
Zn465 O471 2.035 . S
Zn465 O472 2.028 . S
O466 C462 1.258 . S
O466 Zn467 2.035 . S
Zn467 O466 2.035 . S
Zn467 O468 2.028 . S
Zn467 O470 2.028 . S
Zn467 O473 2.035 . S
O468 Zn467 2.028 . S
O468 C474 1.247 . S
O469 Zn465 2.035 . S
O469 C474 1.258 . S
O470 C463 1.247 . S
O470 Zn467 2.028 . S
O471 C463 1.258 . S
O471 Zn465 2.035 . S
O472 Zn465 2.028 . S
O472 C475 1.247 . S
O473 Zn467 2.035 . S
O473 C475 1.258 . S
C474 O468 1.247 . S
C474 O469 1.258 . S
C475 O472 1.247 . S
C475 O473 1.258 . S
C476 O478 1.247 . S
C476 O480 1.258 . S
C477 O484 1.247 . S
C477 O485 1.258 . S
O478 C476 1.247 . S
O478 Zn479 2.028 . S
Zn479 O478 2.028 . S
Zn479 O483 2.035 . S
Zn479 O485 2.035 . S
Zn479 O486 2.028 . S
O480 C476 1.258 . S
O480 Zn481 2.035 . S
Zn481 O480 2.035 . S
Zn481 O482 2.028 . S
Zn481 O484 2.028 . S
Zn481 O487 2.035 . S
O482 Zn481 2.028 . S
O482 C488 1.247 . S
O483 Zn479 2.035 . S
O483 C488 1.258 . S
O484 C477 1.247 . S
O484 Zn481 2.028 . S
O485 C477 1.258 . S
O485 Zn479 2.035 . S
O486 Zn479 2.028 . S
O486 C489 1.247 . S
O487 Zn481 2.035 . S
O487 C489 1.258 . S
C488 O482 1.247 . S
C488 O483 1.258 . S
C489 O486 1.247 . S
C489 O487 1.258 . S
C490 O492 1.247 . S
C490 O494 1.258 . S
C491 O498 1.247 . S
C491 O499 1.258 . S
O492 C490 1.247 . S
O492 Zn493 2.028 . S
Zn493 O492 2.028 . S
Zn493 O497 2.035 . S
Zn493 O499 2.035 . S
Zn493 O500 2.028 . S
O494 C490 1.258 . S
O494 Zn495 2.035 . S
Zn495 O494 2.035 . S
Zn495 O496 2.028 . S
Zn495 O498 2.028 . S
Zn495 O501 2.035 . S
O496 Zn495 2.028 . S
O496 C502 1.247 . S
O497 Zn493 2.035 . S
O497 C502 1.258 . S
O498 C491 1.247 . S
O498 Zn495 2.028 . S
O499 C491 1.258 . S
O499 Zn493 2.035 . S
O500 Zn493 2.028 . S
O500 C503 1.247 . S
O501 Zn495 2.035 . S
O501 C503 1.258 . S
C502 O496 1.247 . S
C502 O497 1.258 . S
C503 O500 1.247 . S
C503 O501 1.258 . S
C504 O506 1.247 . S
C504 O508 1.258 . S
C505 O512 1.247 . S
C505 O513 1.258 . S
O506 C504 1.247 . S
O506 Zn507 2.028 . S
Zn507 O506 2.028 . S
Zn507 O511 2.035 . S
Zn507 O513 2.035 . S
Zn507 O514 2.028 . S
O508 C504 1.258 . S
O508 Zn509 2.035 . S
Zn509 O508 2.035 . S
Zn509 O510 2.028 . S
Zn509 O512 2.028 . S
Zn509 O515 2.035 . S
O510 Zn509 2.028 . S
O510 C516 1.247 . S
O511 Zn507 2.035 . S
O511 C516 1.258 . S
O512 C505 1.247 . S
O512 Zn509 2.028 . S
O513 C505 1.258 . S
O513 Zn507 2.035 . S
O514 Zn507 2.028 . S
O514 C517 1.247 . S
O515 Zn509 2.035 . S
O515 C517 1.258 . S
C516 O510 1.247 . S
C516 O511 1.258 . S
C517 O514 1.247 . S
C517 O515 1.258 . S
C518 O520 1.247 . S
C518 O522 1.258 . S
C519 O526 1.247 . S
C519 O527 1.258 . S
O520 C518 1.247 . S
O520 Zn521 2.028 . S
Zn521 O520 2.028 . S
Zn521 O525 2.035 . S
Zn521 O527 2.035 . S
Zn521 O528 2.028 . S
O522 C518 1.258 . S
O522 Zn523 2.035 . S
Zn523 O522 2.035 . S
Zn523 O524 2.028 . S
Zn523 O526 2.028 . S
Zn523 O529 2.035 . S
O524 Zn523 2.028 . S
O524 C530 1.247 . S
O525 Zn521 2.035 . S
O525 C530 1.258 . S
O526 C519 1.247 . S
O526 Zn523 2.028 . S
O527 C519 1.258 . S
O527 Zn521 2.035 . S
O528 Zn521 2.028 . S
O528 C531 1.247 . S
O529 Zn523 2.035 . S
O529 C531 1.258 . S
C530 O524 1.247 . S
C530 O525 1.258 . S
C531 O528 1.247 . S
C531 O529 1.258 . S
C532 O534 1.247 . S
C532 O536 1.258 . S
C533 O540 1.247 . S
C533 O541 1.258 . S
O534 C532 1.247 . S
O534 Zn535 2.028 . S
Zn535 O534 2.028 . S
Zn535 O539 2.035 . S
Zn535 O541 2.035 . S
Zn535 O542 2.028 . S
O536 C532 1.258 . S
O536 Zn537 2.035 . S
Zn537 O536 2.035 . S
Zn537 O538 2.028 . S
Zn537 O540 2.028 . S
Zn537 O543 2.035 . S
O538 Zn537 2.028 . S
O538 C544 1.247 . S
O539 Zn535 2.035 . S
O539 C544 1.258 . S
O540 C533 1.247 . S
O540 Zn537 2.028 . S
O541 C533 1.258 . S
O541 Zn535 2.035 . S
O542 Zn535 2.028 . S
O542 C545 1.247 . S
O543 Zn537 2.035 . S
O543 C545 1.258 . S
C544 O538 1.247 . S
C544 O539 1.258 . S
C545 O542 1.247 . S
C545 O543 1.258 . S
C546 O548 1.247 . S
C546 O550 1.258 . S
C547 O554 1.247 . S
C547 O555 1.258 . S
O548 C546 1.247 . S
O548 Zn549 2.028 . S
Zn549 O548 2.028 . S
Zn549 O553 2.035 . S
Zn549 O555 2.035 . S
Zn549 O556 2.028 . S
O550 C546 1.258 . S
O550 Zn551 2.035 . S
Zn551 O550 2.035 . S
Zn551 O552 2.028 . S
Zn551 O554 2.028 . S
Zn551 O557 2.035 . S
O552 Zn551 2.028 . S
O552 C558 1.247 . S
O553 Zn549 2.035 . S
O553 C558 1.258 . S
O554 C547 1.247 . S
O554 Zn551 2.028 . S
O555 C547 1.258 . S
O555 Zn549 2.035 . S
O556 Zn549 2.028 . S
O556 C559 1.247 . S
O557 Zn551 2.035 . S
O557 C559 1.258 . S
C558 O552 1.247 . S
C558 O553 1.258 . S
C559 O556 1.247 . S
C559 O557 1.258 . S
C560 O562 1.247 . S
C560 O564 1.258 . S
C561 O568 1.247 . S
C561 O569 1.258 . S
O562 C560 1.247 . S
O562 Zn563 2.028 . S
Zn563 O562 2.028 . S
Zn563 O567 2.035 . S
Zn563 O569 2.035 . S
Zn563 O570 2.028 . S
O564 C560 1.258 . S
O564 Zn565 2.035 . S
Zn565 O564 2.035 . S
Zn565 O566 2.028 . S
Zn565 O568 2.028 . S
Zn565 O571 2.035 . S
O566 Zn565 2.028 . S
O566 C572 1.247 . S
O567 Zn563 2.035 . S
O567 C572 1.258 . S
O568 C561 1.247 . S
O568 Zn565 2.028 . S
O569 C561 1.258 . S
O569 Zn563 2.035 . S
O570 Zn563 2.028 . S
O570 C573 1.247 . S
O571 Zn565 2.035 . S
O571 C573 1.258 . S
C572 O566 1.247 . S
C572 O567 1.258 . S
C573 O570 1.247 . S
C573 O571 1.258 . S
C574 O576 1.247 . S
C574 O578 1.258 . S
C575 O582 1.247 . S
C575 O583 1.258 . S
O576 C574 1.247 . S
O576 Zn577 2.028 . S
Zn577 O576 2.028 . S
Zn577 O581 2.035 . S
Zn577 O583 2.035 . S
Zn577 O584 2.028 . S
O578 C574 1.258 . S
O578 Zn579 2.035 . S
Zn579 O578 2.035 . S
Zn579 O580 2.028 . S
Zn579 O582 2.028 . S
Zn579 O585 2.035 . S
O580 Zn579 2.028 . S
O580 C586 1.247 . S
O581 Zn577 2.035 . S
O581 C586 1.258 . S
O582 C575 1.247 . S
O582 Zn579 2.028 . S
O583 C575 1.258 . S
O583 Zn577 2.035 . S
O584 Zn577 2.028 . S
O584 C587 1.247 . S
O585 Zn579 2.035 . S
O585 C587 1.258 . S
C586 O580 1.247 . S
C586 O581 1.258 . S
C587 O584 1.247 . S
C587 O585 1.258 . S
C588 O590 1.247 . S
C588 O592 1.258 . S
C589 O596 1.247 . S
C589 O597 1.258 . S
O590 C588 1.247 . S
O590 Zn591 2.028 . S
Zn591 O590 2.028 . S
Zn591 O595 2.035 . S
Zn591 O597 2.035 1_565 S
Zn591 O598 2.028 1_565 S
O592 C588 1.258 . S
O592 Zn593 2.035 1_565 S
Zn593 O592 2.035 1_545 S
Zn593 O594 2.028 1_545 S
Zn593 O596 2.028 . S
Zn593 O599 2.035 . S
O594 Zn593 2.028 1_565 S
O594 C600 1.247 . S
O595 Zn591 2.035 . S
O595 C600 1.258 . S
O596 C589 1.247 . S
O596 Zn593 2.028 . S
O597 C589 1.258 . S
O597 Zn591 2.035 1_545 S
O598 Zn591 2.028 1_545 S
O598 C601 1.247 . S
O599 Zn593 2.035 . S
O599 C601 1.258 . S
C600 O594 1.247 . S
C600 O595 1.258 . S
C601 O598 1.247 . S
C601 O599 1.258 . S
C602 O604 1.247 . S
C602 O606 1.258 . S
C603 O610 1.247 . S
C603 O611 1.258 . S
O604 C602 1.247 . S
O604 Zn605 2.028 . S
Zn605 O604 2.028 . S
Zn605 O609 2.035 . S
Zn605 O611 2.035 . S
Zn605 O612 2.028 . S
O606 C602 1.258 . S
O606 Zn607 2.035 . S
Zn607 O606 2.035 . S
Zn607 O608 2.028 . S
Zn607 O610 2.028 . S
Zn607 O613 2.035 . S
O608 Zn607 2.028 . S
O608 C614 1.247 . S
O609 Zn605 2.035 . S
O609 C614 1.258 . S
O610 C603 1.247 . S
O610 Zn607 2.028 . S
O611 C603 1.258 . S
O611 Zn605 2.035 . S
O612 Zn605 2.028 . S
O612 C615 1.247 . S
O613 Zn607 2.035 . S
O613 C615 1.258 . S
C614 O608 1.247 . S
C614 O609 1.258 . S
C615 O612 1.247 . S
C615 O613 1.258 . S
C616 O618 1.247 . S
C616 O620 1.258 . S
C617 O624 1.247 . S
C617 O625 1.258 . S
O618 C616 1.247 . S
O618 Zn619 2.028 . S
Zn619 O618 2.028 . S
Zn619 O623 2.035 . S
Zn619 O625 2.035 1_545 S
Zn619 O626 2.028 1_545 S
O620 C616 1.258 . S
O620 Zn621 2.035 1_545 S
Zn621 O620 2.035 1_565 S
Zn621 O622 2.028 1_565 S
Zn621 O624 2.028 . S
Zn621 O627 2.035 . S
O622 Zn621 2.028 1_545 S
O622 C628 1.247 . S
O623 Zn619 2.035 . S
O623 C628 1.258 . S
O624 C617 1.247 . S
O624 Zn621 2.028 . S
O625 C617 1.258 . S
O625 Zn619 2.035 1_565 S
O626 Zn619 2.028 1_565 S
O626 C629 1.247 . S
O627 Zn621 2.035 . S
O627 C629 1.258 . S
C628 O622 1.247 . S
C628 O623 1.258 . S
C629 O626 1.247 . S
C629 O627 1.258 . S
C630 O632 1.247 . S
C630 O634 1.258 . S
C631 O638 1.247 . S
C631 O639 1.258 . S
O632 C630 1.247 . S
O632 Zn633 2.028 . S
Zn633 O632 2.028 . S
Zn633 O637 2.035 . S
Zn633 O639 2.035 . S
Zn633 O640 2.028 . S
O634 C630 1.258 . S
O634 Zn635 2.035 . S
Zn635 O634 2.035 . S
Zn635 O636 2.028 . S
Zn635 O638 2.028 . S
Zn635 O641 2.035 . S
O636 Zn635 2.028 . S
O636 C642 1.247 . S
O637 Zn633 2.035 . S
O637 C642 1.258 . S
O638 C631 1.247 . S
O638 Zn635 2.028 . S
O639 C631 1.258 . S
O639 Zn633 2.035 . S
O640 Zn633 2.028 . S
O640 C643 1.247 . S
O641 Zn635 2.035 . S
O641 C643 1.258 . S
C642 O636 1.247 . S
C642 O637 1.258 . S
C643 O640 1.247 . S
C643 O641 1.258 . S
C644 O646 1.247 . S
C644 O648 1.258 . S
C645 O652 1.247 . S
C645 O653 1.258 . S
O646 C644 1.247 . S
O646 Zn647 2.028 . S
Zn647 O646 2.028 . S
Zn647 O651 2.035 . S
Zn647 O653 2.035 1_565 S
Zn647 O654 2.028 1_565 S
O648 C644 1.258 . S
O648 Zn649 2.035 1_565 S
Zn649 O648 2.035 1_545 S
Zn649 O650 2.028 1_545 S
Zn649 O652 2.028 . S
Zn649 O655 2.035 . S
O650 Zn649 2.028 1_565 S
O650 C656 1.247 . S
O651 Zn647 2.035 . S
O651 C656 1.258 . S
O652 C645 1.247 . S
O652 Zn649 2.028 . S
O653 C645 1.258 . S
O653 Zn647 2.035 1_545 S
O654 Zn647 2.028 1_545 S
O654 C657 1.247 . S
O655 Zn649 2.035 . S
O655 C657 1.258 . S
C656 O650 1.247 . S
C656 O651 1.258 . S
C657 O654 1.247 . S
C657 O655 1.258 . S
C658 O660 1.247 . S
C658 O662 1.258 . S
C659 O666 1.247 . S
C659 O667 1.258 . S
O660 C658 1.247 . S
O660 Zn661 2.028 . S
Zn661 O660 2.028 . S
Zn661 O665 2.035 . S
Zn661 O667 2.035 . S
Zn661 O668 2.028 . S
O662 C658 1.258 . S
O662 Zn663 2.035 . S
Zn663 O662 2.035 . S
Zn663 O664 2.028 . S
Zn663 O666 2.028 . S
Zn663 O669 2.035 . S
O664 Zn663 2.028 . S
O664 C670 1.247 . S
O665 Zn661 2.035 . S
O665 C670 1.258 . S
O666 C659 1.247 . S
O666 Zn663 2.028 . S
O667 C659 1.258 . S
O667 Zn661 2.035 . S
O668 Zn661 2.028 . S
O668 C671 1.247 . S
O669 Zn663 2.035 . S
O669 C671 1.258 . S
C670 O664 1.247 . S
C670 O665 1.258 . S
C671 O668 1.247 . S
C671 O669 1.258 . S
C672 C673 1.363 . S
C672 C678 1.379 . S
C672 N680 1.356 . S
C673 C672 1.363 . S
C673 C679 1.363 . S
C674 C675 1.363 . S
C674 C679 1.379 . S
C674 N681 1.356 . S
C675 C674 1.363 . S
C675 C678 1.363 . S
N676 C678 1.356 . S
N676 H688 0.984 . S
N676 H689 0.985 . S
N677 C679 1.356 . S
N677 H682 0.984 . S
N677 H683 0.985 . S
C678 C672 1.379 . S
C678 C675 1.363 . S
C678 N676 1.356 . S
C679 C673 1.363 . S
C679 C674 1.379 . S
C679 N677 1.356 . S
N680 C672 1.356 . S
N680 H686 0.984 . S
N680 H687 0.984 . S
N681 C674 1.356 . S
N681 H684 0.984 . S
N681 H685 0.985 . S
H682 N677 0.984 . S
H683 N677 0.985 . S
H684 N681 0.984 . S
H685 N681 0.985 . S
H686 N680 0.984 . S
H687 N680 0.984 . S
H688 N676 0.984 . S
H689 N676 0.985 . S
C690 C691 1.363 . S
C690 C696 1.379 1_554 S
C690 N698 1.356 . S
C691 C690 1.363 . S
C691 C697 1.363 . S
C692 C693 1.363 . S
C692 C697 1.379 1_556 S
C692 N699 1.356 . S
C693 C692 1.363 . S
C693 C696 1.363 . S
N694 C696 1.356 . S
N694 H706 0.984 . S
N694 H707 0.985 . S
N695 C697 1.356 . S
N695 H700 0.984 . S
N695 H701 0.985 . S
C696 C690 1.379 1_556 S
C696 C693 1.363 . S
C696 N694 1.356 . S
C697 C691 1.363 . S
C697 C692 1.379 1_554 S
C697 N695 1.356 . S
N698 C690 1.356 . S
N698 H704 0.984 . S
N698 H705 0.984 . S
N699 C692 1.356 . S
N699 H702 0.984 . S
N699 H703 0.985 . S
H700 N695 0.984 . S
H701 N695 0.985 . S
H702 N699 0.984 . S
H703 N699 0.985 . S
H704 N698 0.984 . S
H705 N698 0.984 . S
H706 N694 0.984 . S
H707 N694 0.985 . S
C708 C709 1.363 . S
C708 C714 1.379 . S
C708 N716 1.356 . S
C709 C708 1.363 . S
C709 C715 1.363 . S
C710 C711 1.363 . S
C710 C715 1.379 . S
C710 N717 1.356 . S
C711 C710 1.363 . S
C711 C714 1.363 . S
N712 C714 1.356 . S
N712 H724 0.984 . S
N712 H725 0.985 . S
N713 C715 1.356 . S
N713 H718 0.984 . S
N713 H719 0.985 . S
C714 C708 1.379 . S
C714 C711 1.363 . S
C714 N712 1.356 . S
C715 C709 1.363 . S
C715 C710 1.379 . S
C715 N713 1.356 . S
N716 C708 1.356 . S
N716 H722 0.984 . S
N716 H723 0.984 . S
N717 C710 1.356 . S
N717 H720 0.984 . S
N717 H721 0.985 . S
H718 N713 0.984 . S
H719 N713 0.985 . S
H720 N717 0.984 . S
H721 N717 0.985 . S
H722 N716 0.984 . S
H723 N716 0.984 . S
H724 N712 0.984 . S
H725 N712 0.985 . S
C726 C727 1.363 . S
C726 C732 1.379 1_556 S
C726 N734 1.356 . S
C727 C726 1.363 . S
C727 C733 1.363 . S
C728 C729 1.363 . S
C728 C733 1.379 1_554 S
C728 N735 1.356 . S
C729 C728 1.363 . S
C729 C732 1.363 . S
N730 C732 1.356 . S
N730 H742 0.984 1_565 S
N730 H743 0.985 . S
N731 C733 1.356 . S
N731 H736 0.984 . S
N731 H737 0.985 . S
C732 C726 1.379 1_554 S
C732 C729 1.363 . S
C732 N730 1.356 . S
C733 C727 1.363 . S
C733 C728 1.379 1_556 S
C733 N731 1.356 . S
N734 C726 1.356 . S
N734 H740 0.984 1_565 S
N734 H741 0.984 . S
N735 C728 1.356 . S
N735 H738 0.984 . S
N735 H739 0.985 . S
H736 N731 0.984 . S
H737 N731 0.985 . S
H738 N735 0.984 . S
H739 N735 0.985 . S
H740 N734 0.984 1_545 S
H741 N734 0.984 . S
H742 N730 0.984 1_545 S
H743 N730 0.985 . S
C744 C745 1.363 . S
C744 C750 1.379 . S
C744 N752 1.356 . S
C745 C744 1.363 . S
C745 C751 1.363 . S
C746 C747 1.363 . S
C746 C751 1.379 . S
C746 N753 1.356 . S
C747 C746 1.363 . S
C747 C750 1.363 . S
N748 C750 1.356 . S
N748 H760 0.984 . S
N748 H761 0.985 . S
N749 C751 1.356 . S
N749 H754 0.984 . S
N749 H755 0.985 . S
C750 C744 1.379 . S
C750 C747 1.363 . S
C750 N748 1.356 . S
C751 C745 1.363 . S
C751 C746 1.379 . S
C751 N749 1.356 . S
N752 C744 1.356 . S
N752 H758 0.984 . S
N752 H759 0.984 . S
N753 C746 1.356 . S
N753 H756 0.984 . S
N753 H757 0.985 . S
H754 N749 0.984 . S
H755 N749 0.985 . S
H756 N753 0.984 . S
H757 N753 0.985 . S
H758 N752 0.984 . S
H759 N752 0.984 . S
H760 N748 0.984 . S
H761 N748 0.985 . S
C762 C763 1.363 . S
C762 C768 1.379 1_554 S
C762 N770 1.356 . S
C763 C762 1.363 . S
C763 C769 1.363 . S
C764 C765 1.363 . S
C764 C769 1.379 1_556 S
C764 N771 1.356 . S
C765 C764 1.363 . S
C765 C768 1.363 . S
N766 C768 1.356 . S
N766 H778 0.984 . S
N766 H779 0.985 . S
N767 C769 1.356 . S
N767 H772 0.984 . S
N767 H773 0.985 . S
C768 C762 1.379 1_556 S
C768 C765 1.363 . S
C768 N766 1.356 . S
C769 C763 1.363 . S
C769 C764 1.379 1_554 S
C769 N767 1.356 . S
N770 C762 1.356 . S
N770 H776 0.984 . S
N770 H777 0.984 . S
N771 C764 1.356 . S
N771 H774 0.984 . S
N771 H775 0.985 . S
H772 N767 0.984 . S
H773 N767 0.985 . S
H774 N771 0.984 . S
H775 N771 0.985 . S
H776 N770 0.984 . S
H777 N770 0.984 . S
H778 N766 0.984 . S
H779 N766 0.985 . S
C780 C781 1.363 . S
C780 C786 1.379 . S
C780 N788 1.356 . S
C781 C780 1.363 . S
C781 C787 1.363 . S
C782 C783 1.363 . S
C782 C787 1.379 . S
C782 N789 1.356 . S
C783 C782 1.363 . S
C783 C786 1.363 . S
N784 C786 1.356 . S
N784 H796 0.984 . S
N784 H797 0.985 . S
N785 C787 1.356 . S
N785 H790 0.984 . S
N785 H791 0.985 . S
C786 C780 1.379 . S
C786 C783 1.363 . S
C786 N784 1.356 . S
C787 C781 1.363 . S
C787 C782 1.379 . S
C787 N785 1.356 . S
N788 C780 1.356 . S
N788 H794 0.984 . S
N788 H795 0.984 . S
N789 C782 1.356 . S
N789 H792 0.984 . S
N789 H793 0.985 . S
H790 N785 0.984 . S
H791 N785 0.985 . S
H792 N789 0.984 . S
H793 N789 0.985 . S
H794 N788 0.984 . S
H795 N788 0.984 . S
H796 N784 0.984 . S
H797 N784 0.985 . S
C798 C799 1.363 . S
C798 C804 1.379 1_556 S
C798 N806 1.356 . S
C799 C798 1.363 . S
C799 C805 1.363 . S
C800 C801 1.363 . S
C800 C805 1.379 1_554 S
C800 N807 1.356 . S
C801 C800 1.363 . S
C801 C804 1.363 . S
N802 C804 1.356 . S
N802 H814 0.984 . S
N802 H815 0.985 . S
N803 C805 1.356 . S
N803 H808 0.984 . S
N803 H809 0.985 . S
C804 C798 1.379 1_554 S
C804 C801 1.363 . S
C804 N802 1.356 . S
C805 C799 1.363 . S
C805 C800 1.379 1_556 S
C805 N803 1.356 . S
N806 C798 1.356 . S
N806 H812 0.984 . S
N806 H813 0.984 . S
N807 C800 1.356 . S
N807 H810 0.984 . S
N807 H811 0.985 . S
H808 N803 0.984 . S
H809 N803 0.985 . S
H810 N807 0.984 . S
H811 N807 0.985 . S
H812 N806 0.984 . S
H813 N806 0.984 . S
H814 N802 0.984 . S
H815 N802 0.985 . S
C816 C817 1.363 . S
C816 C822 1.379 . S
C816 N824 1.356 . S
C817 C816 1.363 . S
C817 C823 1.363 . S
C818 C819 1.363 . S
C818 C823 1.379 . S
C818 N825 1.356 . S
C819 C818 1.363 . S
C819 C822 1.363 . S
N820 C822 1.356 . S
N820 H832 0.984 . S
N820 H833 0.985 . S
N821 C823 1.356 . S
N821 H826 0.984 . S
N821 H827 0.985 . S
C822 C816 1.379 . S
C822 C819 1.363 . S
C822 N820 1.356 . S
C823 C817 1.363 . S
C823 C818 1.379 . S
C823 N821 1.356 . S
N824 C816 1.356 . S
N824 H830 0.984 . S
N824 H831 0.984 . S
N825 C818 1.356 . S
N825 H828 0.984 . S
N825 H829 0.985 . S
H826 N821 0.984 . S
H827 N821 0.985 . S
H828 N825 0.984 . S
H829 N825 0.985 . S
H830 N824 0.984 . S
H831 N824 0.984 . S
H832 N820 0.984 . S
H833 N820 0.985 . S
C834 C835 1.363 . S
C834 C840 1.379 . S
C834 N842 1.356 . S
C835 C834 1.363 . S
C835 C841 1.363 . S
C836 C837 1.363 . S
C836 C841 1.379 . S
C836 N843 1.356 . S
C837 C836 1.363 . S
C837 C840 1.363 . S
N838 C840 1.356 . S
N838 H850 0.984 . S
N838 H851 0.985 . S
N839 C841 1.356 . S
N839 H844 0.984 . S
N839 H845 0.985 . S
C840 C834 1.379 . S
C840 C837 1.363 . S
C840 N838 1.356 . S
C841 C835 1.363 . S
C841 C836 1.379 . S
C841 N839 1.356 . S
N842 C834 1.356 . S
N842 H848 0.984 . S
N842 H849 0.984 . S
N843 C836 1.356 . S
N843 H846 0.984 . S
N843 H847 0.985 1_556 S
H844 N839 0.984 . S
H845 N839 0.985 . S
H846 N843 0.984 . S
H847 N843 0.985 1_554 S
H848 N842 0.984 . S
H849 N842 0.984 . S
H850 N838 0.984 . S
H851 N838 0.985 . S
C852 C853 1.363 . S
C852 C858 1.379 . S
C852 N860 1.356 . S
C853 C852 1.363 . S
C853 C859 1.363 . S
C854 C855 1.363 . S
C854 C859 1.379 . S
C854 N861 1.356 . S
C855 C854 1.363 . S
C855 C858 1.363 . S
N856 C858 1.356 . S
N856 H868 0.984 . S
N856 H869 0.985 . S
N857 C859 1.356 . S
N857 H862 0.984 . S
N857 H863 0.985 . S
C858 C852 1.379 . S
C858 C855 1.363 . S
C858 N856 1.356 . S
C859 C853 1.363 . S
C859 C854 1.379 . S
C859 N857 1.356 . S
N860 C852 1.356 . S
N860 H866 0.984 . S
N860 H867 0.984 . S
N861 C854 1.356 . S
N861 H864 0.984 . S
N861 H865 0.985 . S
H862 N857 0.984 . S
H863 N857 0.985 . S
H864 N861 0.984 . S
H865 N861 0.985 . S
H866 N860 0.984 . S
H867 N860 0.984 . S
H868 N856 0.984 . S
H869 N856 0.985 . S
C870 C871 1.363 . S
C870 C876 1.379 1_565 S
C870 N878 1.356 . S
C871 C870 1.363 . S
C871 C877 1.363 . S
C872 C873 1.363 . S
C872 C877 1.379 1_545 S
C872 N879 1.356 . S
C873 C872 1.363 . S
C873 C876 1.363 . S
N874 C876 1.356 . S
N874 H886 0.984 . S
N874 H887 0.985 . S
N875 C877 1.356 . S
N875 H880 0.984 . S
N875 H881 0.985 . S
C876 C870 1.379 1_545 S
C876 C873 1.363 . S
C876 N874 1.356 . S
C877 C871 1.363 . S
C877 C872 1.379 1_565 S
C877 N875 1.356 . S
N878 C870 1.356 . S
N878 H884 0.984 . S
N878 H885 0.984 . S
N879 C872 1.356 . S
N879 H882 0.984 . S
N879 H883 0.994 . S
H880 N875 0.984 . S
H881 N875 0.985 . S
H882 N879 0.984 . S
H883 N879 0.994 . S
H884 N878 0.984 . S
H885 N878 0.984 . S
H886 N874 0.984 . S
H887 N874 0.985 . S
C888 C889 1.363 . S
C888 C894 1.379 . S
C888 N896 1.356 . S
C889 C888 1.363 . S
C889 C895 1.363 . S
C890 C891 1.363 . S
C890 C895 1.379 . S
C890 N897 1.356 . S
C891 C890 1.363 . S
C891 C894 1.363 . S
N892 C894 1.356 . S
N892 H904 0.984 . S
N892 H905 0.985 . S
N893 C895 1.356 . S
N893 H898 0.984 . S
N893 H899 0.985 . S
C894 C888 1.379 . S
C894 C891 1.363 . S
C894 N892 1.356 . S
C895 C889 1.363 . S
C895 C890 1.379 . S
C895 N893 1.356 . S
N896 C888 1.356 . S
N896 H902 0.984 . S
N896 H903 0.984 . S
N897 C890 1.356 . S
N897 H900 0.984 . S
N897 H901 0.985 . S
H898 N893 0.984 . S
H899 N893 0.985 . S
H900 N897 0.984 . S
H901 N897 0.985 . S
H902 N896 0.984 . S
H903 N896 0.984 . S
H904 N892 0.984 . S
H905 N892 0.985 . S
C906 C907 1.363 . S
C906 C912 1.379 . S
C906 N914 1.356 . S
C907 C906 1.363 . S
C907 C913 1.363 . S
C908 C909 1.363 . S
C908 C913 1.379 . S
C908 N915 1.356 . S
C909 C908 1.363 . S
C909 C912 1.363 . S
N910 C912 1.356 . S
N910 H922 0.984 1_455 S
N910 H923 0.985 . S
N911 C913 1.356 . S
N911 H916 0.984 . S
N911 H917 0.985 . S
C912 C906 1.379 . S
C912 C909 1.363 . S
C912 N910 1.356 . S
C913 C907 1.363 . S
C913 C908 1.379 . S
C913 N911 1.356 . S
N914 C906 1.356 . S
N914 H920 0.984 1_455 S
N914 H921 0.984 . S
N915 C908 1.356 . S
N915 H918 0.984 . S
N915 H919 0.985 . S
H916 N911 0.984 . S
H917 N911 0.985 . S
H918 N915 0.984 . S
H919 N915 0.985 . S
H920 N914 0.984 1_655 S
H921 N914 0.984 . S
H922 N910 0.984 1_655 S
H923 N910 0.985 . S
C924 C925 1.363 . S
C924 C930 1.379 . S
C924 N932 1.356 . S
C925 C924 1.363 . S
C925 C931 1.363 . S
C926 C927 1.363 . S
C926 C931 1.379 . S
C926 N933 1.356 . S
C927 C926 1.363 . S
C927 C930 1.363 . S
N928 C930 1.356 . S
N928 H940 0.984 . S
N928 H941 0.985 . S
N929 C931 1.356 . S
N929 H934 0.984 . S
N929 H935 0.985 . S
C930 C924 1.379 . S
C930 C927 1.363 . S
C930 N928 1.356 . S
C931 C925 1.363 . S
C931 C926 1.379 . S
C931 N929 1.356 . S
N932 C924 1.356 . S
N932 H938 0.984 . S
N932 H939 0.984 . S
N933 C926 1.356 . S
N933 H936 0.984 . S
N933 H937 0.985 . S
H934 N929 0.984 . S
H935 N929 0.985 . S
H936 N933 0.984 . S
H937 N933 0.985 . S
H938 N932 0.984 . S
H939 N932 0.984 . S
H940 N928 0.984 . S
H941 N928 0.985 . S
C942 C943 1.363 . S
C942 C948 1.379 1_545 S
C942 N950 1.356 . S
C943 C942 1.363 . S
C943 C949 1.363 . S
C944 C945 1.363 . S
C944 C949 1.379 1_565 S
C944 N951 1.356 . S
C945 C944 1.363 . S
C945 C948 1.363 . S
N946 C948 1.356 . S
N946 H958 0.984 . S
N946 H959 0.985 . S
N947 C949 1.356 . S
N947 H952 0.984 . S
N947 H953 0.985 . S
C948 C942 1.379 1_565 S
C948 C945 1.363 . S
C948 N946 1.356 . S
C949 C943 1.363 . S
C949 C944 1.379 1_545 S
C949 N947 1.356 . S
N950 C942 1.356 . S
N950 H956 0.984 1_554 S
N950 H957 0.984 . S
N951 C944 1.356 . S
N951 H954 0.984 . S
N951 H955 0.985 . S
H952 N947 0.984 . S
H953 N947 0.985 . S
H954 N951 0.984 . S
H955 N951 0.985 . S
H956 N950 0.984 1_556 S
H957 N950 0.984 . S
H958 N946 0.984 . S
H959 N946 0.985 . S
C960 C961 1.363 . S
C960 C966 1.379 . S
C960 N968 1.356 . S
C961 C960 1.363 . S
C961 C967 1.363 . S
C962 C963 1.363 . S
C962 C967 1.379 . S
C962 N969 1.356 . S
C963 C962 1.363 . S
C963 C966 1.363 . S
N964 C966 1.356 . S
N964 H976 0.984 . S
N964 H977 0.985 . S
N965 C967 1.356 . S
N965 H970 0.984 . S
N965 H971 0.985 . S
C966 C960 1.379 . S
C966 C963 1.363 . S
C966 N964 1.356 . S
C967 C961 1.363 . S
C967 C962 1.379 . S
C967 N965 1.356 . S
N968 C960 1.356 . S
N968 H974 0.984 . S
N968 H975 0.984 . S
N969 C962 1.356 . S
N969 H972 0.984 . S
N969 H973 0.985 . S
H970 N965 0.984 . S
H971 N965 0.985 . S
H972 N969 0.984 . S
H973 N969 0.985 . S
H974 N968 0.984 . S
H975 N968 0.984 . S
H976 N964 0.984 . S
H977 N964 0.985 . S
C978 C979 1.363 . S
C978 C984 1.379 . S
C978 N986 1.356 . S
C979 C978 1.363 . S
C979 C985 1.363 . S
C980 C981 1.363 . S
C980 C985 1.379 . S
C980 N987 1.356 . S
C981 C980 1.363 . S
C981 C984 1.363 . S
N982 C984 1.356 . S
N982 H994 0.984 . S
N982 H995 0.985 . S
N983 C985 1.356 . S
N983 H988 0.984 . S
N983 H989 0.985 . S
C984 C978 1.379 . S
C984 C981 1.363 . S
C984 N982 1.356 . S
C985 C979 1.363 . S
C985 C980 1.379 . S
C985 N983 1.356 . S
N986 C978 1.356 . S
N986 H992 0.984 . S
N986 H993 0.984 . S
N987 C980 1.356 . S
N987 H990 0.984 . S
N987 H991 0.985 . S
H988 N983 0.984 . S
H989 N983 0.985 . S
H990 N987 0.984 . S
H991 N987 0.985 . S
H992 N986 0.984 . S
H993 N986 0.984 . S
H994 N982 0.984 . S
H995 N982 0.985 . S
C996 C997 1.363 . S
C996 C1002 1.379 1_655 S
C996 N1004 1.356 . S
C997 C996 1.363 . S
C997 C1003 1.363 . S
C998 C999 1.363 . S
C998 C1003 1.379 1_455 S
C998 N1005 1.356 . S
C999 C998 1.363 . S
C999 C1002 1.363 . S
N1000 C1002 1.356 . S
N1000 H1012 0.984 . S
N1000 H1013 0.985 . S
N1001 C1003 1.356 . S
N1001 H1006 0.984 . S
N1001 H1007 0.985 . S
C1002 C996 1.379 1_455 S
C1002 C999 1.363 . S
C1002 N1000 1.356 . S
C1003 C997 1.363 . S
C1003 C998 1.379 1_655 S
C1003 N1001 1.356 . S
N1004 C996 1.356 . S
N1004 H1010 0.984 . S
N1004 H1011 0.984 . S
N1005 C998 1.356 . S
N1005 H1008 0.984 . S
N1005 H1009 0.985 . S
H1006 N1001 0.984 . S
H1007 N1001 0.985 . S
H1008 N1005 0.984 . S
H1009 N1005 0.985 . S
H1010 N1004 0.984 . S
H1011 N1004 0.984 . S
H1012 N1000 0.984 . S
H1013 N1000 0.985 . S
C1014 C1015 1.363 . S
C1014 C1020 1.379 . S
C1014 N1022 1.356 . S
C1015 C1014 1.363 . S
C1015 C1021 1.363 . S
C1016 C1017 1.363 . S
C1016 C1021 1.379 . S
C1016 N1023 1.356 . S
C1017 C1016 1.363 . S
C1017 C1020 1.363 . S
N1018 C1020 1.356 . S
N1018 H1030 0.984 . S
N1018 H1031 0.985 . S
N1019 C1021 1.356 . S
N1019 H1024 0.984 . S
N1019 H1025 0.985 . S
C1020 C1014 1.379 . S
C1020 C1017 1.363 . S
C1020 N1018 1.356 . S
C1021 C1015 1.363 . S
C1021 C1016 1.379 . S
C1021 N1019 1.356 . S
N1022 C1014 1.356 . S
N1022 H1028 0.984 . S
N1022 H1029 0.984 . S
N1023 C1016 1.356 . S
N1023 H1026 0.984 . S
N1023 H1027 0.985 . S
H1024 N1019 0.984 . S
H1025 N1019 0.985 . S
H1026 N1023 0.984 . S
H1027 N1023 0.985 . S
H1028 N1022 0.984 . S
H1029 N1022 0.984 . S
H1030 N1018 0.984 . S
H1031 N1018 0.985 . S
C1032 C1033 1.363 . S
C1032 C1038 1.379 . S
C1032 N1040 1.356 . S
C1033 C1032 1.363 . S
C1033 C1039 1.363 . S
C1034 C1035 1.363 . S
C1034 C1039 1.379 . S
C1034 N1041 1.356 . S
C1035 C1034 1.363 . S
C1035 C1038 1.363 . S
N1036 C1038 1.356 . S
N1036 H1048 0.984 . S
N1036 H1049 0.985 . S
N1037 C1039 1.356 . S
N1037 H1042 0.984 . S
N1037 H1043 0.985 . S
C1038 C1032 1.379 . S
C1038 C1035 1.363 . S
C1038 N1036 1.356 . S
C1039 C1033 1.363 . S
C1039 C1034 1.379 . S
C1039 N1037 1.356 . S
N1040 C1032 1.356 . S
N1040 H1046 0.984 . S
N1040 H1047 0.984 . S
N1041 C1034 1.356 . S
N1041 H1044 0.984 . S
N1041 H1045 0.985 . S
H1042 N1037 0.984 . S
H1043 N1037 0.985 . S
H1044 N1041 0.984 . S
H1045 N1041 0.985 . S
H1046 N1040 0.984 . S
H1047 N1040 0.984 . S
H1048 N1036 0.984 . S
H1049 N1036 0.985 . S
C1050 C1051 1.363 . S
C1050 C1056 1.379 . S
C1050 N1058 1.356 . S
C1051 C1050 1.363 . S
C1051 C1057 1.363 . S
C1052 C1053 1.363 . S
C1052 C1057 1.379 . S
C1052 N1059 1.356 . S
C1053 C1052 1.363 . S
C1053 C1056 1.363 . S
N1054 C1056 1.356 . S
N1054 H1066 0.984 . S
N1054 H1067 0.985 . S
N1055 C1057 1.356 . S
N1055 H1060 0.984 . S
N1055 H1061 0.985 . S
C1056 C1050 1.379 . S
C1056 C1053 1.363 . S
C1056 N1054 1.356 . S
C1057 C1051 1.363 . S
C1057 C1052 1.379 . S
C1057 N1055 1.356 . S
N1058 C1050 1.356 . S
N1058 H1064 0.984 . S
N1058 H1065 0.984 . S
N1059 C1052 1.356 . S
N1059 H1062 0.984 . S
N1059 H1063 0.985 . S
H1060 N1055 0.984 . S
H1061 N1055 0.985 . S
H1062 N1059 0.984 . S
H1063 N1059 0.985 . S
H1064 N1058 0.984 . S
H1065 N1058 0.984 . S
H1066 N1054 0.984 . S
H1067 N1054 0.985 . S
C1068 C1069 1.363 . S
C1068 C1074 1.379 1_455 S
C1068 N1076 1.356 . S
C1069 C1068 1.363 . S
C1069 C1075 1.363 . S
C1070 C1071 1.363 . S
C1070 C1075 1.379 1_655 S
C1070 N1077 1.356 . S
C1071 C1070 1.363 . S
C1071 C1074 1.363 . S
N1072 C1074 1.356 . S
N1072 H1084 0.984 . S
N1072 H1085 0.985 . S
N1073 C1075 1.356 . S
N1073 H1078 0.984 . S
N1073 H1079 0.985 . S
C1074 C1068 1.379 1_655 S
C1074 C1071 1.363 . S
C1074 N1072 1.356 . S
C1075 C1069 1.363 . S
C1075 C1070 1.379 1_455 S
C1075 N1073 1.356 . S
N1076 C1068 1.356 . S
N1076 H1082 0.984 . S
N1076 H1083 0.984 . S
N1077 C1070 1.356 . S
N1077 H1080 0.984 . S
N1077 H1081 0.985 . S
H1078 N1073 0.984 . S
H1079 N1073 0.985 . S
H1080 N1077 0.984 . S
H1081 N1077 0.985 . S
H1082 N1076 0.984 . S
H1083 N1076 0.984 . S
H1084 N1072 0.984 . S
H1085 N1072 0.985 . S
C1086 C1087 1.363 . S
C1086 C1092 1.379 1_655 S
C1086 N1094 1.356 . S
C1087 C1086 1.363 . S
C1087 C1093 1.363 . S
C1088 C1089 1.363 . S
C1088 C1093 1.379 1_455 S
C1088 N1095 1.356 . S
C1089 C1088 1.363 . S
C1089 C1092 1.363 . S
N1090 C1092 1.356 . S
N1090 H1102 0.984 . S
N1090 H1103 0.985 . S
N1091 C1093 1.356 . S
N1091 H1096 0.984 . S
N1091 H1097 0.985 . S
C1092 C1086 1.379 1_455 S
C1092 C1089 1.363 . S
C1092 N1090 1.356 . S
C1093 C1087 1.363 . S
C1093 C1088 1.379 1_655 S
C1093 N1091 1.356 . S
N1094 C1086 1.356 . S
N1094 H1100 0.984 . S
N1094 H1101 0.984 . S
N1095 C1088 1.356 . S
N1095 H1098 0.984 . S
N1095 H1099 0.985 . S
H1096 N1091 0.984 . S
H1097 N1091 0.985 . S
H1098 N1095 0.984 . S
H1099 N1095 0.985 . S
H1100 N1094 0.984 . S
H1101 N1094 0.984 . S
H1102 N1090 0.984 . S
H1103 N1090 0.985 . S
C1104 C1105 1.363 . S
C1104 C1110 1.379 . S
C1104 N1112 1.356 . S
C1105 C1104 1.363 . S
C1105 C1111 1.363 . S
C1106 C1107 1.363 . S
C1106 C1111 1.379 . S
C1106 N1113 1.356 . S
C1107 C1106 1.363 . S
C1107 C1110 1.363 . S
N1108 C1110 1.356 . S
N1108 H1120 0.984 . S
N1108 H1121 0.985 . S
N1109 C1111 1.356 . S
N1109 H1114 0.984 . S
N1109 H1115 0.985 . S
C1110 C1104 1.379 . S
C1110 C1107 1.363 . S
C1110 N1108 1.356 . S
C1111 C1105 1.363 . S
C1111 C1106 1.379 . S
C1111 N1109 1.356 . S
N1112 C1104 1.356 . S
N1112 H1118 0.984 . S
N1112 H1119 0.984 . S
N1113 C1106 1.356 . S
N1113 H1116 0.984 . S
N1113 H1117 0.985 . S
H1114 N1109 0.984 . S
H1115 N1109 0.985 . S
H1116 N1113 0.984 . S
H1117 N1113 0.985 . S
H1118 N1112 0.984 . S
H1119 N1112 0.984 . S
H1120 N1108 0.984 . S
H1121 N1108 0.985 . S
C1122 C1123 1.363 . S
C1122 C1128 1.379 . S
C1122 N1130 1.356 . S
C1123 C1122 1.363 . S
C1123 C1129 1.363 . S
C1124 C1125 1.363 . S
C1124 C1129 1.379 . S
C1124 N1131 1.356 . S
C1125 C1124 1.363 . S
C1125 C1128 1.363 . S
N1126 C1128 1.356 . S
N1126 H1138 0.984 1_545 S
N1126 H1139 0.985 . S
N1127 C1129 1.356 . S
N1127 H1132 0.984 . S
N1127 H1133 0.985 . S
C1128 C1122 1.379 . S
C1128 C1125 1.363 . S
C1128 N1126 1.356 . S
C1129 C1123 1.363 . S
C1129 C1124 1.379 . S
C1129 N1127 1.356 . S
N1130 C1122 1.356 . S
N1130 H1136 0.984 . S
N1130 H1137 0.984 . S
N1131 C1124 1.356 . S
N1131 H1134 0.984 . S
N1131 H1135 0.985 . S
H1132 N1127 0.984 . S
H1133 N1127 0.985 . S
H1134 N1131 0.984 . S
H1135 N1131 0.985 . S
H1136 N1130 0.984 . S
H1137 N1130 0.984 . S
H1138 N1126 0.984 1_565 S
H1139 N1126 0.985 . S
C1140 C1141 1.363 . S
C1140 C1146 1.379 . S
C1140 N1148 1.356 . S
C1141 C1140 1.363 . S
C1141 C1147 1.363 . S
C1142 C1143 1.363 . S
C1142 C1147 1.379 . S
C1142 N1149 1.356 . S
C1143 C1142 1.363 . S
C1143 C1146 1.363 . S
N1144 C1146 1.356 . S
N1144 H1156 0.984 . S
N1144 H1157 0.985 . S
N1145 C1147 1.356 . S
N1145 H1150 0.984 . S
N1145 H1151 0.985 . S
C1146 C1140 1.379 . S
C1146 C1143 1.363 . S
C1146 N1144 1.356 . S
C1147 C1141 1.363 . S
C1147 C1142 1.379 . S
C1147 N1145 1.356 . S
N1148 C1140 1.356 . S
N1148 H1154 0.984 . S
N1148 H1155 0.984 . S
N1149 C1142 1.356 . S
N1149 H1152 0.984 . S
N1149 H1153 0.985 . S
H1150 N1145 0.984 . S
H1151 N1145 0.985 . S
H1152 N1149 0.984 . S
H1153 N1149 0.985 . S
H1154 N1148 0.984 . S
H1155 N1148 0.984 . S
H1156 N1144 0.984 . S
H1157 N1144 0.985 . S
C1158 C1159 1.363 . S
C1158 C1164 1.379 . S
C1158 N1166 1.356 . S
C1159 C1158 1.363 . S
C1159 C1165 1.363 . S
C1160 C1161 1.363 . S
C1160 C1165 1.379 . S
C1160 N1167 1.356 . S
C1161 C1160 1.363 . S
C1161 C1164 1.363 . S
N1162 C1164 1.356 . S
N1162 H1174 0.984 . S
N1162 H1175 0.985 . S
N1163 C1165 1.356 . S
N1163 H1168 0.984 . S
N1163 H1169 0.985 . S
C1164 C1158 1.379 . S
C1164 C1161 1.363 . S
C1164 N1162 1.356 . S
C1165 C1159 1.363 . S
C1165 C1160 1.379 . S
C1165 N1163 1.356 . S
N1166 C1158 1.356 . S
N1166 H1172 0.984 . S
N1166 H1173 0.984 . S
N1167 C1160 1.356 . S
N1167 H1170 0.984 . S
N1167 H1171 0.985 . S
H1168 N1163 0.984 . S
H1169 N1163 0.985 . S
H1170 N1167 0.984 . S
H1171 N1167 0.985 . S
H1172 N1166 0.984 . S
H1173 N1166 0.984 . S
H1174 N1162 0.984 . S
H1175 N1162 0.985 . S
C1176 C1177 1.363 . S
C1176 C1182 1.379 . S
C1176 N1184 1.356 . S
C1177 C1176 1.363 . S
C1177 C1183 1.363 . S
C1178 C1179 1.363 . S
C1178 C1183 1.379 . S
C1178 N1185 1.356 . S
C1179 C1178 1.363 . S
C1179 C1182 1.363 . S
N1180 C1182 1.356 . S
N1180 H1192 0.984 . S
N1180 H1193 0.985 . S
N1181 C1183 1.356 . S
N1181 H1186 0.984 . S
N1181 H1187 0.985 . S
C1182 C1176 1.379 . S
C1182 C1179 1.363 . S
C1182 N1180 1.356 . S
C1183 C1177 1.363 . S
C1183 C1178 1.379 . S
C1183 N1181 1.356 . S
N1184 C1176 1.356 . S
N1184 H1190 0.984 . S
N1184 H1191 0.984 . S
N1185 C1178 1.356 . S
N1185 H1188 0.984 . S
N1185 H1189 0.985 . S
H1186 N1181 0.984 . S
H1187 N1181 0.985 . S
H1188 N1185 0.984 . S
H1189 N1185 0.985 . S
H1190 N1184 0.984 . S
H1191 N1184 0.984 . S
H1192 N1180 0.984 . S
H1193 N1180 0.985 . S
C1194 C1195 1.363 . S
C1194 C1200 1.379 . S
C1194 N1202 1.356 . S
C1195 C1194 1.363 . S
C1195 C1201 1.363 . S
C1196 C1197 1.363 . S
C1196 C1201 1.379 . S
C1196 N1203 1.356 . S
C1197 C1196 1.363 . S
C1197 C1200 1.363 . S
N1198 C1200 1.356 . S
N1198 H1210 1.020 . S
N1198 H1211 0.985 . S
N1199 C1201 1.356 . S
N1199 H1204 0.984 . S
N1199 H1205 0.985 . S
C1200 C1194 1.379 . S
C1200 C1197 1.363 . S
C1200 N1198 1.356 . S
C1201 C1195 1.363 . S
C1201 C1196 1.379 . S
C1201 N1199 1.356 . S
N1202 C1194 1.356 . S
N1202 H1208 0.984 1_545 S
N1202 H1209 0.984 . S
N1203 C1196 1.356 . S
N1203 H1206 0.984 . S
N1203 H1207 0.985 . S
H1204 N1199 0.984 . S
H1205 N1199 0.985 . S
H1206 N1203 0.984 . S
H1207 N1203 0.985 . S
H1208 N1202 0.984 1_565 S
H1209 N1202 0.984 . S
H1210 N1198 1.020 . S
H1211 N1198 0.985 . S
C1212 C1213 1.363 . S
C1212 C1218 1.379 . S
C1212 N1220 1.356 . S
C1213 C1212 1.363 . S
C1213 C1219 1.363 . S
C1214 C1215 1.363 . S
C1214 C1219 1.379 . S
C1214 N1221 1.356 . S
C1215 C1214 1.363 . S
C1215 C1218 1.363 . S
N1216 C1218 1.356 . S
N1216 H1228 0.984 . S
N1216 H1229 0.985 . S
N1217 C1219 1.356 . S
N1217 H1222 0.984 . S
N1217 H1223 0.985 . S
C1218 C1212 1.379 . S
C1218 C1215 1.363 . S
C1218 N1216 1.356 . S
C1219 C1213 1.363 . S
C1219 C1214 1.379 . S
C1219 N1217 1.356 . S
N1220 C1212 1.356 . S
N1220 H1226 0.984 . S
N1220 H1227 0.984 . S
N1221 C1214 1.356 . S
N1221 H1224 0.984 . S
N1221 H1225 0.985 . S
H1222 N1217 0.984 . S
H1223 N1217 0.985 . S
H1224 N1221 0.984 . S
H1225 N1221 0.985 . S
H1226 N1220 0.984 . S
H1227 N1220 0.984 . S
H1228 N1216 0.984 . S
H1229 N1216 0.985 . S
C1230 C1231 1.363 . S
C1230 C1236 1.379 . S
C1230 N1238 1.356 . S
C1231 C1230 1.363 . S
C1231 C1237 1.363 . S
C1232 C1233 1.363 . S
C1232 C1237 1.379 . S
C1232 N1239 1.356 . S
C1233 C1232 1.363 . S
C1233 C1236 1.363 . S
N1234 C1236 1.356 . S
N1234 H1246 0.984 . S
N1234 H1247 0.985 . S
N1235 C1237 1.356 . S
N1235 H1240 0.984 . S
N1235 H1241 0.985 . S
C1236 C1230 1.379 . S
C1236 C1233 1.363 . S
C1236 N1234 1.356 . S
C1237 C1231 1.363 . S
C1237 C1232 1.379 . S
C1237 N1235 1.356 . S
N1238 C1230 1.356 . S
N1238 H1244 0.984 . S
N1238 H1245 0.984 . S
N1239 C1232 1.356 . S
N1239 H1242 0.984 . S
N1239 H1243 0.985 . S
H1240 N1235 0.984 . S
H1241 N1235 0.985 . S
H1242 N1239 0.984 . S
H1243 N1239 0.985 . S
H1244 N1238 0.984 . S
H1245 N1238 0.984 . S
H1246 N1234 0.984 . S
H1247 N1234 0.985 . S
C1248 C1249 1.363 . S
C1248 C1254 1.379 . S
C1248 N1256 1.356 . S
C1249 C1248 1.363 . S
C1249 C1255 1.363 . S
C1250 C1251 1.363 . S
C1250 C1255 1.379 . S
C1250 N1257 1.356 . S
C1251 C1250 1.363 . S
C1251 C1254 1.363 . S
N1252 C1254 1.356 . S
N1252 H1264 0.984 . S
N1252 H1265 0.985 . S
N1253 C1255 1.356 . S
N1253 H1258 0.984 . S
N1253 H1259 0.985 . S
C1254 C1248 1.379 . S
C1254 C1251 1.363 . S
C1254 N1252 1.356 . S
C1255 C1249 1.363 . S
C1255 C1250 1.379 . S
C1255 N1253 1.356 . S
N1256 C1248 1.356 . S
N1256 H1262 0.984 . S
N1256 H1263 0.984 . S
N1257 C1250 1.356 . S
N1257 H1260 0.984 . S
N1257 H1261 0.985 . S
H1258 N1253 0.984 . S
H1259 N1253 0.985 . S
H1260 N1257 0.984 . S
H1261 N1257 0.985 . S
H1262 N1256 0.984 . S
H1263 N1256 0.984 . S
H1264 N1252 0.984 . S
H1265 N1252 0.985 . S
C1266 C1267 1.363 . S
C1266 C1272 1.379 1_565 S
C1266 N1274 1.356 . S
C1267 C1266 1.363 . S
C1267 C1273 1.363 . S
C1268 C1269 1.363 . S
C1268 C1273 1.379 1_545 S
C1268 N1275 1.356 . S
C1269 C1268 1.363 . S
C1269 C1272 1.363 . S
N1270 C1272 1.356 . S
N1270 H1282 0.984 . S
N1270 H1283 0.985 . S
N1271 C1273 1.356 . S
N1271 H1276 0.984 . S
N1271 H1277 0.985 . S
C1272 C1266 1.379 1_545 S
C1272 C1269 1.363 . S
C1272 N1270 1.356 . S
C1273 C1267 1.363 . S
C1273 C1268 1.379 1_565 S
C1273 N1271 1.356 . S
N1274 C1266 1.356 . S
N1274 H1280 0.984 . S
N1274 H1281 0.984 . S
N1275 C1268 1.356 . S
N1275 H1278 0.984 . S
N1275 H1279 0.985 . S
H1276 N1271 0.984 . S
H1277 N1271 0.985 . S
H1278 N1275 0.984 . S
H1279 N1275 0.985 . S
H1280 N1274 0.984 . S
H1281 N1274 0.984 . S
H1282 N1270 0.984 . S
H1283 N1270 0.985 . S
C1284 C1285 1.363 . S
C1284 C1290 1.379 . S
C1284 N1292 1.356 . S
C1285 C1284 1.363 . S
C1285 C1291 1.363 . S
C1286 C1287 1.363 . S
C1286 C1291 1.379 . S
C1286 N1293 1.356 . S
C1287 C1286 1.363 . S
C1287 C1290 1.363 . S
N1288 C1290 1.356 . S
N1288 H1300 0.984 . S
N1288 H1301 0.985 . S
N1289 C1291 1.356 . S
N1289 H1294 0.984 . S
N1289 H1295 0.985 . S
C1290 C1284 1.379 . S
C1290 C1287 1.363 . S
C1290 N1288 1.356 . S
C1291 C1285 1.363 . S
C1291 C1286 1.379 . S
C1291 N1289 1.356 . S
N1292 C1284 1.356 . S
N1292 H1298 0.984 . S
N1292 H1299 0.984 . S
N1293 C1286 1.356 . S
N1293 H1296 0.984 . S
N1293 H1297 0.985 . S
H1294 N1289 0.984 . S
H1295 N1289 0.985 . S
H1296 N1293 0.984 . S
H1297 N1293 0.985 . S
H1298 N1292 0.984 . S
H1299 N1292 0.984 . S
H1300 N1288 0.984 . S
H1301 N1288 0.985 . S
C1302 C1303 1.363 . S
C1302 C1308 1.379 . S
C1302 N1310 1.356 . S
C1303 C1302 1.363 . S
C1303 C1309 1.363 . S
C1304 C1305 1.363 . S
C1304 C1309 1.379 . S
C1304 N1311 1.356 . S
C1305 C1304 1.363 . S
C1305 C1308 1.363 . S
N1306 C1308 1.356 . S
N1306 H1318 0.984 . S
N1306 H1319 0.985 . S
N1307 C1309 1.356 . S
N1307 H1312 0.984 . S
N1307 H1313 0.985 . S
C1308 C1302 1.379 . S
C1308 C1305 1.363 . S
C1308 N1306 1.356 . S
C1309 C1303 1.363 . S
C1309 C1304 1.379 . S
C1309 N1307 1.356 . S
N1310 C1302 1.356 . S
N1310 H1316 0.984 . S
N1310 H1317 0.984 . S
N1311 C1304 1.356 . S
N1311 H1314 0.984 . S
N1311 H1315 0.985 . S
H1312 N1307 0.984 . S
H1313 N1307 0.985 . S
H1314 N1311 0.984 . S
H1315 N1311 0.985 . S
H1316 N1310 0.984 . S
H1317 N1310 0.984 . S
H1318 N1306 0.984 . S
H1319 N1306 0.985 . S
C1320 C1321 1.363 . S
C1320 C1326 1.379 . S
C1320 N1328 1.356 . S
C1321 C1320 1.363 . S
C1321 C1327 1.363 . S
C1322 C1323 1.363 . S
C1322 C1327 1.379 . S
C1322 N1329 1.356 . S
C1323 C1322 1.363 . S
C1323 C1326 1.363 . S
N1324 C1326 1.356 . S
N1324 H1336 0.984 . S
N1324 H1337 0.985 . S
N1325 C1327 1.356 . S
N1325 H1330 0.984 . S
N1325 H1331 0.985 . S
C1326 C1320 1.379 . S
C1326 C1323 1.363 . S
C1326 N1324 1.356 . S
C1327 C1321 1.363 . S
C1327 C1322 1.379 . S
C1327 N1325 1.356 . S
N1328 C1320 1.356 . S
N1328 H1334 0.984 . S
N1328 H1335 0.984 . S
N1329 C1322 1.356 . S
N1329 H1332 0.984 . S
N1329 H1333 0.985 . S
H1330 N1325 0.984 . S
H1331 N1325 0.985 . S
H1332 N1329 0.984 . S
H1333 N1329 0.985 . S
H1334 N1328 0.984 . S
H1335 N1328 0.984 . S
H1336 N1324 0.984 . S
H1337 N1324 0.985 . S
C1338 C1339 1.363 . S
C1338 C1344 1.379 1_565 S
C1338 N1346 1.356 . S
C1339 C1338 1.363 . S
C1339 C1345 1.363 . S
C1340 C1341 1.363 . S
C1340 C1345 1.379 1_545 S
C1340 N1347 1.356 . S
C1341 C1340 1.363 . S
C1341 C1344 1.363 . S
N1342 C1344 1.356 . S
N1342 H1354 0.984 . S
N1342 H1355 0.985 . S
N1343 C1345 1.356 . S
N1343 H1348 0.984 . S
N1343 H1349 0.985 . S
C1344 C1338 1.379 1_545 S
C1344 C1341 1.363 . S
C1344 N1342 1.356 . S
C1345 C1339 1.363 . S
C1345 C1340 1.379 1_565 S
C1345 N1343 1.356 . S
N1346 C1338 1.356 . S
N1346 H1352 0.984 . S
N1346 H1353 0.984 . S
N1347 C1340 1.356 . S
N1347 H1350 0.984 . S
N1347 H1351 0.985 . S
H1348 N1343 0.984 . S
H1349 N1343 0.985 . S
H1350 N1347 0.984 . S
H1351 N1347 0.985 . S
H1352 N1346 0.984 . S
H1353 N1346 0.984 . S
H1354 N1342 0.984 . S
H1355 N1342 0.985 . S
C1356 C1357 1.363 . S
C1356 C1362 1.379 . S
C1356 N1364 1.356 . S
C1357 C1356 1.363 . S
C1357 C1363 1.363 . S
C1358 C1359 1.363 . S
C1358 C1363 1.379 . S
C1358 N1365 1.356 . S
C1359 C1358 1.363 . S
C1359 C1362 1.363 . S
N1360 C1362 1.356 . S
N1360 H1372 0.984 . S
N1360 H1373 0.985 . S
N1361 C1363 1.356 . S
N1361 H1366 0.984 . S
N1361 H1367 0.985 . S
C1362 C1356 1.379 . S
C1362 C1359 1.363 . S
C1362 N1360 1.356 . S
C1363 C1357 1.363 . S
C1363 C1358 1.379 . S
C1363 N1361 1.356 . S
N1364 C1356 1.356 . S
N1364 H1370 0.984 . S
N1364 H1371 0.984 . S
N1365 C1358 1.356 . S
N1365 H1368 0.984 . S
N1365 H1369 0.985 . S
H1366 N1361 0.984 . S
H1367 N1361 0.985 . S
H1368 N1365 0.984 . S
H1369 N1365 0.985 . S
H1370 N1364 0.984 . S
H1371 N1364 0.984 . S
H1372 N1360 0.984 . S
H1373 N1360 0.985 . S
C1374 C1375 1.363 . S
C1374 C1380 1.379 . S
C1374 N1382 1.356 . S
C1375 C1374 1.363 . S
C1375 C1381 1.363 . S
C1376 C1377 1.363 . S
C1376 C1381 1.379 . S
C1376 N1383 1.356 . S
C1377 C1376 1.363 . S
C1377 C1380 1.363 . S
N1378 C1380 1.356 . S
N1378 H1390 0.984 . S
N1378 H1391 0.985 . S
N1379 C1381 1.356 . S
N1379 H1384 0.984 . S
N1379 H1385 0.985 . S
C1380 C1374 1.379 . S
C1380 C1377 1.363 . S
C1380 N1378 1.356 . S
C1381 C1375 1.363 . S
C1381 C1376 1.379 . S
C1381 N1379 1.356 . S
N1382 C1374 1.356 . S
N1382 H1388 0.984 . S
N1382 H1389 0.984 . S
N1383 C1376 1.356 . S
N1383 H1386 0.984 . S
N1383 H1387 0.985 . S
H1384 N1379 0.984 . S
H1385 N1379 0.985 . S
H1386 N1383 0.984 . S
H1387 N1383 0.985 . S
H1388 N1382 0.984 . S
H1389 N1382 0.984 . S
H1390 N1378 0.984 . S
H1391 N1378 0.985 . S
C1392 C1393 1.363 . S
C1392 C1398 1.379 . S
C1392 N1400 1.356 . S
C1393 C1392 1.363 . S
C1393 C1399 1.363 . S
C1394 C1395 1.363 . S
C1394 C1399 1.379 . S
C1394 N1401 1.356 . S
C1395 C1394 1.363 . S
C1395 C1398 1.363 . S
N1396 C1398 1.356 . S
N1396 H1408 0.984 . S
N1396 H1409 0.985 . S
N1397 C1399 1.356 . S
N1397 H1402 0.984 . S
N1397 H1403 0.985 . S
C1398 C1392 1.379 . S
C1398 C1395 1.363 . S
C1398 N1396 1.356 . S
C1399 C1393 1.363 . S
C1399 C1394 1.379 . S
C1399 N1397 1.356 . S
N1400 C1392 1.356 . S
N1400 H1406 0.984 . S
N1400 H1407 0.984 . S
N1401 C1394 1.356 . S
N1401 H1404 0.984 . S
N1401 H1405 0.985 . S
H1402 N1397 0.984 . S
H1403 N1397 0.985 . S
H1404 N1401 0.984 . S
H1405 N1401 0.985 . S
H1406 N1400 0.984 . S
H1407 N1400 0.984 . S
H1408 N1396 0.984 . S
H1409 N1396 0.985 . S
C1410 C1411 1.363 . S
C1410 C1416 1.379 . S
C1410 N1418 1.356 . S
C1411 C1410 1.363 . S
C1411 C1417 1.363 . S
C1412 C1413 1.363 . S
C1412 C1417 1.379 . S
C1412 N1419 1.356 . S
C1413 C1412 1.363 . S
C1413 C1416 1.363 . S
N1414 C1416 1.356 . S
N1414 H1426 0.984 . S
N1414 H1427 0.985 . S
N1415 C1417 1.356 . S
N1415 H1420 0.984 . S
N1415 H1421 0.985 . S
C1416 C1410 1.379 . S
C1416 C1413 1.363 . S
C1416 N1414 1.356 . S
C1417 C1411 1.363 . S
C1417 C1412 1.379 . S
C1417 N1415 1.356 . S
N1418 C1410 1.356 . S
N1418 H1424 0.984 . S
N1418 H1425 0.984 . S
N1419 C1412 1.356 . S
N1419 H1422 0.984 . S
N1419 H1423 0.985 . S
H1420 N1415 0.984 . S
H1421 N1415 0.985 . S
H1422 N1419 0.984 . S
H1423 N1419 0.985 . S
H1424 N1418 0.984 . S
H1425 N1418 0.984 . S
H1426 N1414 0.984 . S
H1427 N1414 0.985 . S
C1428 C1429 1.363 . S
C1428 C1434 1.379 . S
C1428 N1436 1.356 . S
C1429 C1428 1.363 . S
C1429 C1435 1.363 . S
C1430 C1431 1.363 . S
C1430 C1435 1.379 . S
C1430 N1437 1.356 . S
C1431 C1430 1.363 . S
C1431 C1434 1.363 . S
N1432 C1434 1.356 . S
N1432 H1444 0.984 . S
N1432 H1445 0.985 . S
N1433 C1435 1.356 . S
N1433 H1438 0.984 . S
N1433 H1439 0.985 . S
C1434 C1428 1.379 . S
C1434 C1431 1.363 . S
C1434 N1432 1.356 . S
C1435 C1429 1.363 . S
C1435 C1430 1.379 . S
C1435 N1433 1.356 . S
N1436 C1428 1.356 . S
N1436 H1442 0.984 . S
N1436 H1443 0.984 . S
N1437 C1430 1.356 . S
N1437 H1440 0.984 . S
N1437 H1441 0.985 . S
H1438 N1433 0.984 . S
H1439 N1433 0.985 . S
H1440 N1437 0.984 . S
H1441 N1437 0.985 . S
H1442 N1436 0.984 . S
H1443 N1436 0.984 . S
H1444 N1432 0.984 . S
H1445 N1432 0.985 . S
C1446 C1447 1.363 . S
C1446 C1452 1.379 . S
C1446 N1454 1.356 . S
C1447 C1446 1.363 . S
C1447 C1453 1.363 . S
C1448 C1449 1.363 . S
C1448 C1453 1.379 . S
C1448 N1455 1.356 . S
C1449 C1448 1.363 . S
C1449 C1452 1.363 . S
N1450 C1452 1.356 . S
N1450 H1462 0.984 . S
N1450 H1463 0.985 . S
N1451 C1453 1.356 . S
N1451 H1456 0.984 . S
N1451 H1457 0.985 . S
C1452 C1446 1.379 . S
C1452 C1449 1.363 . S
C1452 N1450 1.356 . S
C1453 C1447 1.363 . S
C1453 C1448 1.379 . S
C1453 N1451 1.356 . S
N1454 C1446 1.356 . S
N1454 H1460 0.984 . S
N1454 H1461 0.984 . S
N1455 C1448 1.356 . S
N1455 H1458 0.984 . S
N1455 H1459 0.985 . S
H1456 N1451 0.984 . S
H1457 N1451 0.985 . S
H1458 N1455 0.984 . S
H1459 N1455 0.985 . S
H1460 N1454 0.984 . S
H1461 N1454 0.984 . S
H1462 N1450 0.984 . S
H1463 N1450 0.985 . S
C1464 C1465 1.363 . S
C1464 C1470 1.379 1_455 S
C1464 N1472 1.356 . S
C1465 C1464 1.363 . S
C1465 C1471 1.363 . S
C1466 C1467 1.363 . S
C1466 C1471 1.379 1_655 S
C1466 N1473 1.356 . S
C1467 C1466 1.363 . S
C1467 C1470 1.363 . S
N1468 C1470 1.356 . S
N1468 H1480 0.984 . S
N1468 H1481 0.985 . S
N1469 C1471 1.356 . S
N1469 H1474 0.984 . S
N1469 H1475 0.985 1_545 S
C1470 C1464 1.379 1_655 S
C1470 C1467 1.363 . S
C1470 N1468 1.356 . S
C1471 C1465 1.363 . S
C1471 C1466 1.379 1_455 S
C1471 N1469 1.356 . S
N1472 C1464 1.356 . S
N1472 H1478 0.984 . S
N1472 H1479 0.984 . S
N1473 C1466 1.356 . S
N1473 H1476 0.984 . S
N1473 H1477 0.985 . S
H1474 N1469 0.984 . S
H1475 N1469 0.985 1_565 S
H1476 N1473 0.984 . S
H1477 N1473 0.985 . S
H1478 N1472 0.984 . S
H1479 N1472 0.984 . S
H1480 N1468 0.984 . S
H1481 N1468 0.985 . S
C1482 C1483 1.363 . S
C1482 C1488 1.379 . S
C1482 N1490 1.356 . S
C1483 C1482 1.363 . S
C1483 C1489 1.363 . S
C1484 C1485 1.363 . S
C1484 C1489 1.379 . S
C1484 N1491 1.356 . S
C1485 C1484 1.363 . S
C1485 C1488 1.363 . S
N1486 C1488 1.356 . S
N1486 H1498 0.984 . S
N1486 H1499 0.985 . S
N1487 C1489 1.356 . S
N1487 H1492 0.984 . S
N1487 H1493 0.985 . S
C1488 C1482 1.379 . S
C1488 C1485 1.363 . S
C1488 N1486 1.356 . S
C1489 C1483 1.363 . S
C1489 C1484 1.379 . S
C1489 N1487 1.356 . S
N1490 C1482 1.356 . S
N1490 H1496 0.984 . S
N1490 H1497 0.984 . S
N1491 C1484 1.356 . S
N1491 H1494 0.984 . S
N1491 H1495 0.985 . S
H1492 N1487 0.984 . S
H1493 N1487 0.985 . S
H1494 N1491 0.984 . S
H1495 N1491 0.985 . S
H1496 N1490 0.984 . S
H1497 N1490 0.984 . S
H1498 N1486 0.984 . S
H1499 N1486 0.985 . S
C1500 C1501 1.363 . S
C1500 C1506 1.379 . S
C1500 N1508 1.356 . S
C1501 C1500 1.363 . S
C1501 C1507 1.363 . S
C1502 C1503 1.363 . S
C1502 C1507 1.379 . S
C1502 N1509 1.356 . S
C1503 C1502 1.363 . S
C1503 C1506 1.363 . S
N1504 C1506 1.356 . S
N1504 H1516 0.984 . S
N1504 H1517 0.985 . S
N1505 C1507 1.356 . S
N1505 H1510 0.984 . S
N1505 H1511 0.985 1_554 S
C1506 C1500 1.379 . S
C1506 C1503 1.363 . S
C1506 N1504 1.356 . S
C1507 C1501 1.363 . S
C1507 C1502 1.379 . S
C1507 N1505 1.356 . S
N1508 C1500 1.356 . S
N1508 H1514 0.984 . S
N1508 H1515 0.984 . S
N1509 C1502 1.356 . S
N1509 H1512 0.984 . S
N1509 H1513 0.985 1_554 S
H1510 N1505 0.984 . S
H1511 N1505 0.985 1_556 S
H1512 N1509 0.984 . S
H1513 N1509 0.985 1_556 S
H1514 N1508 0.984 . S
H1515 N1508 0.984 . S
H1516 N1504 0.984 . S
H1517 N1504 0.985 . S
C1518 C1519 1.363 . S
C1518 C1524 1.379 . S
C1518 N1526 1.356 . S
C1519 C1518 1.363 . S
C1519 C1525 1.363 . S
C1520 C1521 1.363 . S
C1520 C1525 1.379 . S
C1520 N1527 1.356 . S
C1521 C1520 1.363 . S
C1521 C1524 1.363 . S
N1522 C1524 1.356 . S
N1522 H1534 0.984 . S
N1522 H1535 0.985 . S
N1523 C1525 1.356 . S
N1523 H1528 0.984 . S
N1523 H1529 0.985 . S
C1524 C1518 1.379 . S
C1524 C1521 1.363 . S
C1524 N1522 1.356 . S
C1525 C1519 1.363 . S
C1525 C1520 1.379 . S
C1525 N1523 1.356 . S
N1526 C1518 1.356 . S
N1526 H1532 0.984 . S
N1526 H1533 0.984 . S
N1527 C1520 1.356 . S
N1527 H1530 0.984 . S
N1527 H1531 0.985 . S
H1528 N1523 0.984 . S
H1529 N1523 0.985 . S
H1530 N1527 0.984 . S
H1531 N1527 0.985 . S
H1532 N1526 0.984 . S
H1533 N1526 0.984 . S
H1534 N1522 0.984 . S
H1535 N1522 0.985 . S
C1536 C1537 1.363 . S
C1536 C1542 1.379 . S
C1536 N1544 1.356 . S
C1537 C1536 1.363 . S
C1537 C1543 1.363 . S
C1538 C1539 1.363 . S
C1538 C1543 1.379 . S
C1538 N1545 1.356 . S
C1539 C1538 1.363 . S
C1539 C1542 1.363 . S
N1540 C1542 1.356 . S
N1540 H1552 0.984 . S
N1540 H1553 0.985 . S
N1541 C1543 1.356 . S
N1541 H1546 0.984 . S
N1541 H1547 0.985 . S
C1542 C1536 1.379 . S
C1542 C1539 1.363 . S
C1542 N1540 1.356 . S
C1543 C1537 1.363 . S
C1543 C1538 1.379 . S
C1543 N1541 1.356 . S
N1544 C1536 1.356 . S
N1544 H1550 0.984 . S
N1544 H1551 0.984 . S
N1545 C1538 1.356 . S
N1545 H1548 0.984 . S
N1545 H1549 0.985 . S
H1546 N1541 0.984 . S
H1547 N1541 0.985 . S
H1548 N1545 0.984 . S
H1549 N1545 0.985 . S
H1550 N1544 0.984 . S
H1551 N1544 0.984 . S
H1552 N1540 0.984 . S
H1553 N1540 0.985 . S
C1554 C1555 1.363 . S
C1554 C1560 1.379 . S
C1554 N1562 1.356 . S
C1555 C1554 1.363 . S
C1555 C1561 1.363 . S
C1556 C1557 1.363 . S
C1556 C1561 1.379 . S
C1556 N1563 1.356 . S
C1557 C1556 1.363 . S
C1557 C1560 1.363 . S
N1558 C1560 1.356 . S
N1558 H1570 0.984 . S
N1558 H1571 0.985 . S
N1559 C1561 1.356 . S
N1559 H1564 0.984 . S
N1559 H1565 0.985 . S
C1560 C1554 1.379 . S
C1560 C1557 1.363 . S
C1560 N1558 1.356 . S
C1561 C1555 1.363 . S
C1561 C1556 1.379 . S
C1561 N1559 1.356 . S
N1562 C1554 1.356 . S
N1562 H1568 0.984 . S
N1562 H1569 0.984 . S
N1563 C1556 1.356 . S
N1563 H1566 0.984 . S
N1563 H1567 0.985 . S
H1564 N1559 0.984 . S
H1565 N1559 0.985 . S
H1566 N1563 0.984 . S
H1567 N1563 0.985 . S
H1568 N1562 0.984 . S
H1569 N1562 0.984 . S
H1570 N1558 0.984 . S
H1571 N1558 0.985 . S
C1572 C1573 1.363 . S
C1572 C1578 1.379 . S
C1572 N1580 1.356 . S
C1573 C1572 1.363 . S
C1573 C1579 1.363 . S
C1574 C1575 1.363 . S
C1574 C1579 1.379 . S
C1574 N1581 1.356 . S
C1575 C1574 1.363 . S
C1575 C1578 1.363 . S
N1576 C1578 1.356 . S
N1576 H1588 0.984 . S
N1576 H1589 0.985 . S
N1577 C1579 1.356 . S
N1577 H1582 0.984 . S
N1577 H1583 0.985 . S
C1578 C1572 1.379 . S
C1578 C1575 1.363 . S
C1578 N1576 1.356 . S
C1579 C1573 1.363 . S
C1579 C1574 1.379 . S
C1579 N1577 1.356 . S
N1580 C1572 1.356 . S
N1580 H1586 0.984 . S
N1580 H1587 0.984 . S
N1581 C1574 1.356 . S
N1581 H1584 0.984 . S
N1581 H1585 0.985 . S
H1582 N1577 0.984 . S
H1583 N1577 0.985 . S
H1584 N1581 0.984 . S
H1585 N1581 0.985 . S
H1586 N1580 0.984 . S
H1587 N1580 0.984 . S
H1588 N1576 0.984 . S
H1589 N1576 0.985 . S
C1590 C1591 1.363 . S
C1590 C1596 1.379 . S
C1590 N1598 1.356 . S
C1591 C1590 1.363 . S
C1591 C1597 1.363 . S
C1592 C1593 1.363 . S
C1592 C1597 1.379 . S
C1592 N1599 1.356 . S
C1593 C1592 1.363 . S
C1593 C1596 1.363 . S
N1594 C1596 1.356 . S
N1594 H1606 0.984 . S
N1594 H1607 0.985 . S
N1595 C1597 1.356 . S
N1595 H1600 0.984 . S
N1595 H1601 0.985 . S
C1596 C1590 1.379 . S
C1596 C1593 1.363 . S
C1596 N1594 1.356 . S
C1597 C1591 1.363 . S
C1597 C1592 1.379 . S
C1597 N1595 1.356 . S
N1598 C1590 1.356 . S
N1598 H1604 0.984 . S
N1598 H1605 0.984 . S
N1599 C1592 1.356 . S
N1599 H1602 0.984 . S
N1599 H1603 0.985 . S
H1600 N1595 0.984 . S
H1601 N1595 0.985 . S
H1602 N1599 0.984 . S
H1603 N1599 0.985 . S
H1604 N1598 0.984 . S
H1605 N1598 0.984 . S
H1606 N1594 0.984 . S
H1607 N1594 0.985 . S
C1608 C1609 1.363 . S
C1608 C1614 1.379 . S
C1608 N1616 1.356 . S
C1609 C1608 1.363 . S
C1609 C1615 1.363 . S
C1610 C1611 1.363 . S
C1610 C1615 1.379 . S
C1610 N1617 1.356 . S
C1611 C1610 1.363 . S
C1611 C1614 1.363 . S
N1612 C1614 1.356 . S
N1612 H1624 0.984 . S
N1612 H1625 0.985 . S
N1613 C1615 1.356 . S
N1613 H1618 0.984 . S
N1613 H1619 0.985 . S
C1614 C1608 1.379 . S
C1614 C1611 1.363 . S
C1614 N1612 1.356 . S
C1615 C1609 1.363 . S
C1615 C1610 1.379 . S
C1615 N1613 1.356 . S
N1616 C1608 1.356 . S
N1616 H1622 0.984 . S
N1616 H1623 0.984 . S
N1617 C1610 1.356 . S
N1617 H1620 0.984 . S
N1617 H1621 0.985 . S
H1618 N1613 0.984 . S
H1619 N1613 0.985 . S
H1620 N1617 0.984 . S
H1621 N1617 0.985 . S
H1622 N1616 0.984 . S
H1623 N1616 0.984 . S
H1624 N1612 0.984 . S
H1625 N1612 0.985 . S
C1626 C1627 1.363 . S
C1626 C1632 1.379 . S
C1626 N1634 1.356 . S
C1627 C1626 1.363 . S
C1627 C1633 1.363 . S
C1628 C1629 1.363 . S
C1628 C1633 1.379 . S
C1628 N1635 1.356 . S
C1629 C1628 1.363 . S
C1629 C1632 1.363 . S
N1630 C1632 1.356 . S
N1630 H1642 0.984 . S
N1630 H1643 0.985 . S
N1631 C1633 1.356 . S
N1631 H1636 0.984 . S
N1631 H1637 0.985 . S
C1632 C1626 1.379 . S
C1632 C1629 1.363 . S
C1632 N1630 1.356 . S
C1633 C1627 1.363 . S
C1633 C1628 1.379 . S
C1633 N1631 1.356 . S
N1634 C1626 1.356 . S
N1634 H1640 0.984 . S
N1634 H1641 0.984 . S
N1635 C1628 1.356 . S
N1635 H1638 0.984 . S
N1635 H1639 0.985 . S
H1636 N1631 0.984 . S
H1637 N1631 0.985 . S
H1638 N1635 0.984 . S
H1639 N1635 0.985 . S
H1640 N1634 0.984 . S
H1641 N1634 0.984 . S
H1642 N1630 0.984 . S
H1643 N1630 0.985 . S
C1644 C1645 1.363 . S
C1644 C1650 1.379 . S
C1644 N1652 1.356 . S
C1645 C1644 1.363 . S
C1645 C1651 1.363 . S
C1646 C1647 1.363 . S
C1646 C1651 1.379 . S
C1646 N1653 1.356 . S
C1647 C1646 1.363 . S
C1647 C1650 1.363 . S
N1648 C1650 1.356 . S
N1648 H1660 0.984 . S
N1648 H1661 0.985 . S
N1649 C1651 1.356 . S
N1649 H1654 0.984 . S
N1649 H1655 0.985 . S
C1650 C1644 1.379 . S
C1650 C1647 1.363 . S
C1650 N1648 1.356 . S
C1651 C1645 1.363 . S
C1651 C1646 1.379 . S
C1651 N1649 1.356 . S
N1652 C1644 1.356 . S
N1652 H1658 0.984 . S
N1652 H1659 0.984 . S
N1653 C1646 1.356 . S
N1653 H1656 0.984 . S
N1653 H1657 0.985 . S
H1654 N1649 0.984 . S
H1655 N1649 0.985 . S
H1656 N1653 0.984 . S
H1657 N1653 0.985 . S
H1658 N1652 0.984 . S
H1659 N1652 0.984 . S
H1660 N1648 0.984 . S
H1661 N1648 0.985 . S
C1662 C1663 1.363 . S
C1662 C1668 1.379 . S
C1662 N1670 1.356 . S
C1663 C1662 1.363 . S
C1663 C1669 1.363 . S
C1664 C1665 1.363 . S
C1664 C1669 1.379 . S
C1664 N1671 1.356 . S
C1665 C1664 1.363 . S
C1665 C1668 1.363 . S
N1666 C1668 1.356 . S
N1666 H1678 0.984 . S
N1666 H1679 0.985 . S
N1667 C1669 1.356 . S
N1667 H1672 0.984 . S
N1667 H1673 0.985 . S
C1668 C1662 1.379 . S
C1668 C1665 1.363 . S
C1668 N1666 1.356 . S
C1669 C1663 1.363 . S
C1669 C1664 1.379 . S
C1669 N1667 1.356 . S
N1670 C1662 1.356 . S
N1670 H1676 0.984 . S
N1670 H1677 0.984 . S
N1671 C1664 1.356 . S
N1671 H1674 0.984 . S
N1671 H1675 0.985 . S
H1672 N1667 0.984 . S
H1673 N1667 0.985 . S
H1674 N1671 0.984 . S
H1675 N1671 0.985 . S
H1676 N1670 0.984 . S
H1677 N1670 0.984 . S
H1678 N1666 0.984 . S
H1679 N1666 0.985 . S
C1680 C1681 1.363 . S
C1680 C1686 1.379 . S
C1680 N1688 1.356 . S
C1681 C1680 1.363 . S
C1681 C1687 1.363 . S
C1682 C1683 1.363 . S
C1682 C1687 1.379 . S
C1682 N1689 1.356 . S
C1683 C1682 1.363 . S
C1683 C1686 1.363 . S
N1684 C1686 1.356 . S
N1684 H1696 0.984 . S
N1684 H1697 0.985 . S
N1685 C1687 1.356 . S
N1685 H1690 0.984 . S
N1685 H1691 0.985 . S
C1686 C1680 1.379 . S
C1686 C1683 1.363 . S
C1686 N1684 1.356 . S
C1687 C1681 1.363 . S
C1687 C1682 1.379 . S
C1687 N1685 1.356 . S
N1688 C1680 1.356 . S
N1688 H1694 0.984 . S
N1688 H1695 0.984 . S
N1689 C1682 1.356 . S
N1689 H1692 0.984 . S
N1689 H1693 0.985 . S
H1690 N1685 0.984 . S
H1691 N1685 0.985 . S
H1692 N1689 0.984 . S
H1693 N1689 0.985 . S
H1694 N1688 0.984 . S
H1695 N1688 0.984 . S
H1696 N1684 0.984 . S
H1697 N1684 0.985 . S
C1698 C1699 1.363 . S
C1698 C1704 1.379 . S
C1698 N1706 1.356 . S
C1699 C1698 1.363 . S
C1699 C1705 1.363 . S
C1700 C1701 1.363 . S
C1700 C1705 1.379 . S
C1700 N1707 1.356 . S
C1701 C1700 1.363 . S
C1701 C1704 1.363 . S
N1702 C1704 1.356 . S
N1702 H1714 0.984 . S
N1702 H1715 0.985 . S
N1703 C1705 1.356 . S
N1703 H1708 0.984 . S
N1703 H1709 0.985 . S
C1704 C1698 1.379 . S
C1704 C1701 1.363 . S
C1704 N1702 1.356 . S
C1705 C1699 1.363 . S
C1705 C1700 1.379 . S
C1705 N1703 1.356 . S
N1706 C1698 1.356 . S
N1706 H1712 0.984 . S
N1706 H1713 0.984 . S
N1707 C1700 1.356 . S
N1707 H1710 0.984 . S
N1707 H1711 0.985 . S
H1708 N1703 0.984 . S
H1709 N1703 0.985 . S
H1710 N1707 0.984 . S
H1711 N1707 0.985 . S
H1712 N1706 0.984 . S
H1713 N1706 0.984 . S
H1714 N1702 0.984 . S
H1715 N1702 0.985 . S
C1716 C1717 1.363 . S
C1716 C1722 1.379 . S
C1716 N1724 1.356 . S
C1717 C1716 1.363 . S
C1717 C1723 1.363 . S
C1718 C1719 1.363 . S
C1718 C1723 1.379 . S
C1718 N1725 1.356 . S
C1719 C1718 1.363 . S
C1719 C1722 1.363 . S
N1720 C1722 1.356 . S
N1720 H1732 0.984 . S
N1720 H1733 0.985 . S
N1721 C1723 1.356 . S
N1721 H1726 0.984 . S
N1721 H1727 0.985 . S
C1722 C1716 1.379 . S
C1722 C1719 1.363 . S
C1722 N1720 1.356 . S
C1723 C1717 1.363 . S
C1723 C1718 1.379 . S
C1723 N1721 1.356 . S
N1724 C1716 1.356 . S
N1724 H1730 0.984 . S
N1724 H1731 0.984 . S
N1725 C1718 1.356 . S
N1725 H1728 0.984 . S
N1725 H1729 0.985 . S
H1726 N1721 0.984 . S
H1727 N1721 0.985 . S
H1728 N1725 0.984 . S
H1729 N1725 0.985 . S
H1730 N1724 0.984 . S
H1731 N1724 0.984 . S
H1732 N1720 0.984 . S
H1733 N1720 0.985 . S
C1734 C1735 1.363 . S
C1734 C1740 1.379 . S
C1734 N1742 1.356 . S
C1735 C1734 1.363 . S
C1735 C1741 1.363 . S
C1736 C1737 1.363 . S
C1736 C1741 1.379 . S
C1736 N1743 1.356 . S
C1737 C1736 1.363 . S
C1737 C1740 1.363 . S
N1738 C1740 1.356 . S
N1738 H1750 0.984 . S
N1738 H1751 0.985 . S
N1739 C1741 1.356 . S
N1739 H1744 0.984 . S
N1739 H1745 0.985 . S
C1740 C1734 1.379 . S
C1740 C1737 1.363 . S
C1740 N1738 1.356 . S
C1741 C1735 1.363 . S
C1741 C1736 1.379 . S
C1741 N1739 1.356 . S
N1742 C1734 1.356 . S
N1742 H1748 0.984 . S
N1742 H1749 0.984 . S
N1743 C1736 1.356 . S
N1743 H1746 0.984 . S
N1743 H1747 0.985 . S
H1744 N1739 0.984 . S
H1745 N1739 0.985 . S
H1746 N1743 0.984 . S
H1747 N1743 0.985 . S
H1748 N1742 0.984 . S
H1749 N1742 0.984 . S
H1750 N1738 0.984 . S
H1751 N1738 0.985 . S
C1752 C1753 1.363 . S
C1752 C1758 1.379 . S
C1752 N1760 1.356 . S
C1753 C1752 1.363 . S
C1753 C1759 1.363 . S
C1754 C1755 1.363 . S
C1754 C1759 1.379 . S
C1754 N1761 1.356 . S
C1755 C1754 1.363 . S
C1755 C1758 1.363 . S
N1756 C1758 1.356 . S
N1756 H1768 0.984 . S
N1756 H1769 0.985 . S
N1757 C1759 1.356 . S
N1757 H1762 0.984 . S
N1757 H1763 0.985 . S
C1758 C1752 1.379 . S
C1758 C1755 1.363 . S
C1758 N1756 1.356 . S
C1759 C1753 1.363 . S
C1759 C1754 1.379 . S
C1759 N1757 1.356 . S
N1760 C1752 1.356 . S
N1760 H1766 0.984 . S
N1760 H1767 0.984 . S
N1761 C1754 1.356 . S
N1761 H1764 0.984 . S
N1761 H1765 0.985 . S
H1762 N1757 0.984 . S
H1763 N1757 0.985 . S
H1764 N1761 0.984 . S
H1765 N1761 0.985 . S
H1766 N1760 0.984 . S
H1767 N1760 0.984 . S
H1768 N1756 0.984 . S
H1769 N1756 0.985 . S
C1770 C1771 1.363 . S
C1770 C1776 1.379 . S
C1770 N1778 1.356 . S
C1771 C1770 1.363 . S
C1771 C1777 1.363 . S
C1772 C1773 1.363 . S
C1772 C1777 1.379 . S
C1772 N1779 1.356 . S
C1773 C1772 1.363 . S
C1773 C1776 1.363 . S
N1774 C1776 1.356 . S
N1774 H1786 0.984 . S
N1774 H1787 0.985 . S
N1775 C1777 1.356 . S
N1775 H1780 0.984 . S
N1775 H1781 0.985 . S
C1776 C1770 1.379 . S
C1776 C1773 1.363 . S
C1776 N1774 1.356 . S
C1777 C1771 1.363 . S
C1777 C1772 1.379 . S
C1777 N1775 1.356 . S
N1778 C1770 1.356 . S
N1778 H1784 0.984 . S
N1778 H1785 0.984 . S
N1779 C1772 1.356 . S
N1779 H1782 0.984 . S
N1779 H1783 0.985 . S
H1780 N1775 0.984 . S
H1781 N1775 0.985 . S
H1782 N1779 0.984 . S
H1783 N1779 0.985 . S
H1784 N1778 0.984 . S
H1785 N1778 0.984 . S
H1786 N1774 0.984 . S
H1787 N1774 0.985 . S
C1788 C1789 1.363 . S
C1788 C1794 1.379 . S
C1788 N1796 1.356 . S
C1789 C1788 1.363 . S
C1789 C1795 1.363 . S
C1790 C1791 1.363 . S
C1790 C1795 1.379 . S
C1790 N1797 1.356 . S
C1791 C1790 1.363 . S
C1791 C1794 1.363 . S
N1792 C1794 1.356 . S
N1792 H1804 0.984 . S
N1792 H1805 0.985 . S
N1793 C1795 1.356 . S
N1793 H1798 0.984 . S
N1793 H1799 0.985 . S
C1794 C1788 1.379 . S
C1794 C1791 1.363 . S
C1794 N1792 1.356 . S
C1795 C1789 1.363 . S
C1795 C1790 1.379 . S
C1795 N1793 1.356 . S
N1796 C1788 1.356 . S
N1796 H1802 0.984 . S
N1796 H1803 0.984 . S
N1797 C1790 1.356 . S
N1797 H1800 0.984 . S
N1797 H1801 0.985 . S
H1798 N1793 0.984 . S
H1799 N1793 0.985 . S
H1800 N1797 0.984 . S
H1801 N1797 0.985 . S
H1802 N1796 0.984 . S
H1803 N1796 0.984 . S
H1804 N1792 0.984 . S
H1805 N1792 0.985 . S
C1806 C1807 1.363 . S
C1806 C1812 1.379 . S
C1806 N1814 1.356 . S
C1807 C1806 1.363 . S
C1807 C1813 1.363 . S
C1808 C1809 1.363 . S
C1808 C1813 1.379 . S
C1808 N1815 1.356 . S
C1809 C1808 1.363 . S
C1809 C1812 1.363 . S
N1810 C1812 1.356 . S
N1810 H1822 0.984 . S
N1810 H1823 0.985 . S
N1811 C1813 1.356 . S
N1811 H1816 0.984 . S
N1811 H1817 0.985 . S
C1812 C1806 1.379 . S
C1812 C1809 1.363 . S
C1812 N1810 1.356 . S
C1813 C1807 1.363 . S
C1813 C1808 1.379 . S
C1813 N1811 1.356 . S
N1814 C1806 1.356 . S
N1814 H1820 0.984 . S
N1814 H1821 0.984 . S
N1815 C1808 1.356 . S
N1815 H1818 0.984 . S
N1815 H1819 0.985 . S
H1816 N1811 0.984 . S
H1817 N1811 0.985 . S
H1818 N1815 0.984 . S
H1819 N1815 0.985 . S
H1820 N1814 0.984 . S
H1821 N1814 0.984 . S
H1822 N1810 0.984 . S
H1823 N1810 0.985 . S
C1824 C1825 1.363 . S
C1824 C1830 1.379 . S
C1824 N1832 1.356 . S
C1825 C1824 1.363 . S
C1825 C1831 1.363 . S
C1826 C1827 1.363 . S
C1826 C1831 1.379 . S
C1826 N1833 1.356 . S
C1827 C1826 1.363 . S
C1827 C1830 1.363 . S
N1828 C1830 1.356 . S
N1828 H1840 0.984 . S
N1828 H1841 0.985 . S
N1829 C1831 1.356 . S
N1829 H1834 0.984 . S
N1829 H1835 0.985 . S
C1830 C1824 1.379 . S
C1830 C1827 1.363 . S
C1830 N1828 1.356 . S
C1831 C1825 1.363 . S
C1831 C1826 1.379 . S
C1831 N1829 1.356 . S
N1832 C1824 1.356 . S
N1832 H1838 0.984 . S
N1832 H1839 0.984 . S
N1833 C1826 1.356 . S
N1833 H1836 0.984 . S
N1833 H1837 0.985 . S
H1834 N1829 0.984 . S
H1835 N1829 0.985 . S
H1836 N1833 0.984 . S
H1837 N1833 0.985 . S
H1838 N1832 0.984 . S
H1839 N1832 0.984 . S
H1840 N1828 0.984 . S
H1841 N1828 0.985 . S
C1842 C1843 1.363 . S
C1842 C1848 1.379 . S
C1842 N1850 1.356 . S
C1843 C1842 1.363 . S
C1843 C1849 1.363 . S
C1844 C1845 1.363 . S
C1844 C1849 1.379 . S
C1844 N1851 1.356 . S
C1845 C1844 1.363 . S
C1845 C1848 1.363 . S
N1846 C1848 1.356 . S
N1846 H1858 0.984 . S
N1846 H1859 0.985 . S
N1847 C1849 1.356 . S
N1847 H1852 0.984 . S
N1847 H1853 0.985 . S
C1848 C1842 1.379 . S
C1848 C1845 1.363 . S
C1848 N1846 1.356 . S
C1849 C1843 1.363 . S
C1849 C1844 1.379 . S
C1849 N1847 1.356 . S
N1850 C1842 1.356 . S
N1850 H1856 0.984 . S
N1850 H1857 0.984 . S
N1851 C1844 1.356 . S
N1851 H1854 0.984 . S
N1851 H1855 0.985 . S
H1852 N1847 0.984 . S
H1853 N1847 0.985 . S
H1854 N1851 0.984 . S
H1855 N1851 0.985 . S
H1856 N1850 0.984 . S
H1857 N1850 0.984 . S
H1858 N1846 0.984 . S
H1859 N1846 0.985 . S
C1860 C1861 1.363 . S
C1860 C1866 1.379 . S
C1860 N1868 1.356 . S
C1861 C1860 1.363 . S
C1861 C1867 1.363 . S
C1862 C1863 1.363 . S
C1862 C1867 1.379 . S
C1862 N1869 1.356 . S
C1863 C1862 1.363 . S
C1863 C1866 1.363 . S
N1864 C1866 1.356 . S
N1864 H1876 0.984 . S
N1864 H1877 0.985 . S
N1865 C1867 1.356 . S
N1865 H1870 0.984 . S
N1865 H1871 0.985 . S
C1866 C1860 1.379 . S
C1866 C1863 1.363 . S
C1866 N1864 1.356 . S
C1867 C1861 1.363 . S
C1867 C1862 1.379 . S
C1867 N1865 1.356 . S
N1868 C1860 1.356 . S
N1868 H1874 0.984 . S
N1868 H1875 0.984 . S
N1869 C1862 1.356 . S
N1869 H1872 0.984 . S
N1869 H1873 0.985 . S
H1870 N1865 0.984 . S
H1871 N1865 0.985 . S
H1872 N1869 0.984 . S
H1873 N1869 0.985 . S
H1874 N1868 0.984 . S
H1875 N1868 0.984 . S
H1876 N1864 0.984 . S
H1877 N1864 0.985 . S
C1878 C1879 1.363 . S
C1878 C1884 1.379 . S
C1878 N1886 1.356 . S
C1879 C1878 1.363 . S
C1879 C1885 1.363 . S
C1880 C1881 1.363 . S
C1880 C1885 1.379 . S
C1880 N1887 1.356 . S
C1881 C1880 1.363 . S
C1881 C1884 1.363 . S
N1882 C1884 1.356 . S
N1882 H1894 0.984 . S
N1882 H1895 0.985 . S
N1883 C1885 1.356 . S
N1883 H1888 0.984 . S
N1883 H1889 0.985 . S
C1884 C1878 1.379 . S
C1884 C1881 1.363 . S
C1884 N1882 1.356 . S
C1885 C1879 1.363 . S
C1885 C1880 1.379 . S
C1885 N1883 1.356 . S
N1886 C1878 1.356 . S
N1886 H1892 0.984 . S
N1886 H1893 0.984 . S
N1887 C1880 1.356 . S
N1887 H1890 0.984 . S
N1887 H1891 0.985 . S
H1888 N1883 0.984 . S
H1889 N1883 0.985 . S
H1890 N1887 0.984 . S
H1891 N1887 0.985 . S
H1892 N1886 0.984 . S
H1893 N1886 0.984 . S
H1894 N1882 0.984 . S
H1895 N1882 0.985 . S
C1896 C1897 1.363 . S
C1896 C1902 1.379 . S
C1896 N1904 1.356 . S
C1897 C1896 1.363 . S
C1897 C1903 1.363 . S
C1898 C1899 1.363 . S
C1898 C1903 1.379 . S
C1898 N1905 1.356 . S
C1899 C1898 1.363 . S
C1899 C1902 1.363 . S
N1900 C1902 1.356 . S
N1900 H1912 0.984 . S
N1900 H1913 0.985 . S
N1901 C1903 1.356 . S
N1901 H1906 0.984 . S
N1901 H1907 0.985 . S
C1902 C1896 1.379 . S
C1902 C1899 1.363 . S
C1902 N1900 1.356 . S
C1903 C1897 1.363 . S
C1903 C1898 1.379 . S
C1903 N1901 1.356 . S
N1904 C1896 1.356 . S
N1904 H1910 0.984 . S
N1904 H1911 0.984 . S
N1905 C1898 1.356 . S
N1905 H1908 0.984 . S
N1905 H1909 0.985 . S
H1906 N1901 0.984 . S
H1907 N1901 0.985 . S
H1908 N1905 0.984 . S
H1909 N1905 0.985 . S
H1910 N1904 0.984 . S
H1911 N1904 0.984 . S
H1912 N1900 0.984 . S
H1913 N1900 0.985 . S
C1914 C1915 1.363 . S
C1914 C1920 1.379 . S
C1914 N1922 1.356 . S
C1915 C1914 1.363 . S
C1915 C1921 1.363 . S
C1916 C1917 1.363 . S
C1916 C1921 1.379 . S
C1916 N1923 1.356 . S
C1917 C1916 1.363 . S
C1917 C1920 1.363 . S
N1918 C1920 1.356 . S
N1918 H1930 0.984 . S
N1918 H1931 0.985 . S
N1919 C1921 1.356 . S
N1919 H1924 0.984 . S
N1919 H1925 0.985 . S
C1920 C1914 1.379 . S
C1920 C1917 1.363 . S
C1920 N1918 1.356 . S
C1921 C1915 1.363 . S
C1921 C1916 1.379 . S
C1921 N1919 1.356 . S
N1922 C1914 1.356 . S
N1922 H1928 0.984 . S
N1922 H1929 0.984 . S
N1923 C1916 1.356 . S
N1923 H1926 0.984 . S
N1923 H1927 0.985 . S
H1924 N1919 0.984 . S
H1925 N1919 0.985 . S
H1926 N1923 0.984 . S
H1927 N1923 0.985 . S
H1928 N1922 0.984 . S
H1929 N1922 0.984 . S
H1930 N1918 0.984 . S
H1931 N1918 0.985 . S
C1932 C1933 1.363 . S
C1932 C1938 1.379 . S
C1932 N1940 1.356 . S
C1933 C1932 1.363 . S
C1933 C1939 1.363 . S
C1934 C1935 1.363 . S
C1934 C1939 1.379 . S
C1934 N1941 1.356 . S
C1935 C1934 1.363 . S
C1935 C1938 1.363 . S
N1936 C1938 1.356 . S
N1936 H1948 0.984 . S
N1936 H1949 0.985 . S
N1937 C1939 1.356 . S
N1937 H1942 0.984 . S
N1937 H1943 0.985 . S
C1938 C1932 1.379 . S
C1938 C1935 1.363 . S
C1938 N1936 1.356 . S
C1939 C1933 1.363 . S
C1939 C1934 1.379 . S
C1939 N1937 1.356 . S
N1940 C1932 1.356 . S
N1940 H1946 0.984 . S
N1940 H1947 0.984 . S
N1941 C1934 1.356 . S
N1941 H1944 0.984 . S
N1941 H1945 0.985 . S
H1942 N1937 0.984 . S
H1943 N1937 0.985 . S
H1944 N1941 0.984 . S
H1945 N1941 0.985 . S
H1946 N1940 0.984 . S
H1947 N1940 0.984 . S
H1948 N1936 0.984 . S
H1949 N1936 0.985 . S
C1950 C1951 1.363 . S
C1950 C1956 1.379 . S
C1950 N1958 1.356 . S
C1951 C1950 1.363 . S
C1951 C1957 1.363 . S
C1952 C1953 1.363 . S
C1952 C1957 1.379 . S
C1952 N1959 1.356 . S
C1953 C1952 1.363 . S
C1953 C1956 1.363 . S
N1954 C1956 1.356 . S
N1954 H1966 0.984 . S
N1954 H1967 0.985 . S
N1955 C1957 1.356 . S
N1955 H1960 0.984 . S
N1955 H1961 0.985 . S
C1956 C1950 1.379 . S
C1956 C1953 1.363 . S
C1956 N1954 1.356 . S
C1957 C1951 1.363 . S
C1957 C1952 1.379 . S
C1957 N1955 1.356 . S
N1958 C1950 1.356 . S
N1958 H1964 0.984 . S
N1958 H1965 0.984 . S
N1959 C1952 1.356 . S
N1959 H1962 0.984 . S
N1959 H1963 0.985 . S
H1960 N1955 0.984 . S
H1961 N1955 0.985 . S
H1962 N1959 0.984 . S
H1963 N1959 0.985 . S
H1964 N1958 0.984 . S
H1965 N1958 0.984 . S
H1966 N1954 0.984 . S
H1967 N1954 0.985 . S
C1968 C1969 1.363 . S
C1968 C1974 1.379 . S
C1968 N1976 1.356 . S
C1969 C1968 1.363 . S
C1969 C1975 1.363 . S
C1970 C1971 1.363 . S
C1970 C1975 1.379 . S
C1970 N1977 1.356 . S
C1971 C1970 1.363 . S
C1971 C1974 1.363 . S
N1972 C1974 1.356 . S
N1972 H1984 0.984 . S
N1972 H1985 0.985 . S
N1973 C1975 1.356 . S
N1973 H1978 0.984 . S
N1973 H1979 0.985 . S
C1974 C1968 1.379 . S
C1974 C1971 1.363 . S
C1974 N1972 1.356 . S
C1975 C1969 1.363 . S
C1975 C1970 1.379 . S
C1975 N1973 1.356 . S
N1976 C1968 1.356 . S
N1976 H1982 0.984 . S
N1976 H1983 0.984 . S
N1977 C1970 1.356 . S
N1977 H1980 0.984 . S
N1977 H1981 0.985 . S
H1978 N1973 0.984 . S
H1979 N1973 0.985 . S
H1980 N1977 0.984 . S
H1981 N1977 0.985 . S
H1982 N1976 0.984 . S
H1983 N1976 0.984 . S
H1984 N1972 0.984 . S
H1985 N1972 0.985 . S
C1986 C1987 1.363 . S
C1986 C1992 1.379 . S
C1986 N1994 1.356 . S
C1987 C1986 1.363 . S
C1987 C1993 1.363 . S
C1988 C1989 1.363 . S
C1988 C1993 1.379 . S
C1988 N1995 1.356 . S
C1989 C1988 1.363 . S
C1989 C1992 1.363 . S
N1990 C1992 1.356 . S
N1990 H2002 0.984 . S
N1990 H2003 0.985 . S
N1991 C1993 1.356 . S
N1991 H1996 0.984 . S
N1991 H1997 0.985 . S
C1992 C1986 1.379 . S
C1992 C1989 1.363 . S
C1992 N1990 1.356 . S
C1993 C1987 1.363 . S
C1993 C1988 1.379 . S
C1993 N1991 1.356 . S
N1994 C1986 1.356 . S
N1994 H2000 0.984 . S
N1994 H2001 0.984 . S
N1995 C1988 1.356 . S
N1995 H1998 0.984 . S
N1995 H1999 0.985 . S
H1996 N1991 0.984 . S
H1997 N1991 0.985 . S
H1998 N1995 0.984 . S
H1999 N1995 0.985 . S
H2000 N1994 0.984 . S
H2001 N1994 0.984 . S
H2002 N1990 0.984 . S
H2003 N1990 0.985 . S
C2004 C2005 1.363 . S
C2004 C2010 1.379 . S
C2004 N2012 1.356 . S
C2005 C2004 1.363 . S
C2005 C2011 1.363 . S
C2006 C2007 1.363 . S
C2006 C2011 1.379 . S
C2006 N2013 1.356 . S
C2007 C2006 1.363 . S
C2007 C2010 1.363 . S
N2008 C2010 1.356 . S
N2008 H2020 0.984 . S
N2008 H2021 0.985 . S
N2009 C2011 1.356 . S
N2009 H2014 0.984 . S
N2009 H2015 0.985 . S
C2010 C2004 1.379 . S
C2010 C2007 1.363 . S
C2010 N2008 1.356 . S
C2011 C2005 1.363 . S
C2011 C2006 1.379 . S
C2011 N2009 1.356 . S
N2012 C2004 1.356 . S
N2012 H2018 0.984 . S
N2012 H2019 0.984 . S
N2013 C2006 1.356 . S
N2013 H2016 0.984 . S
N2013 H2017 0.985 . S
H2014 N2009 0.984 . S
H2015 N2009 0.985 . S
H2016 N2013 0.984 . S
H2017 N2013 0.985 . S
H2018 N2012 0.984 . S
H2019 N2012 0.984 . S
H2020 N2008 0.984 . S
H2021 N2008 0.985 . S
C2022 C2023 1.363 . S
C2022 C2028 1.379 . S
C2022 N2030 1.356 . S
C2023 C2022 1.363 . S
C2023 C2029 1.363 . S
C2024 C2025 1.363 . S
C2024 C2029 1.379 . S
C2024 N2031 1.356 . S
C2025 C2024 1.363 . S
C2025 C2028 1.363 . S
N2026 C2028 1.356 . S
N2026 H2038 0.984 . S
N2026 H2039 0.985 . S
N2027 C2029 1.356 . S
N2027 H2032 0.984 . S
N2027 H2033 0.985 . S
C2028 C2022 1.379 . S
C2028 C2025 1.363 . S
C2028 N2026 1.356 . S
C2029 C2023 1.363 . S
C2029 C2024 1.379 . S
C2029 N2027 1.356 . S
N2030 C2022 1.356 . S
N2030 H2036 0.984 . S
N2030 H2037 0.984 . S
N2031 C2024 1.356 . S
N2031 H2034 0.984 . S
N2031 H2035 0.985 . S
H2032 N2027 0.984 . S
H2033 N2027 0.985 . S
H2034 N2031 0.984 . S
H2035 N2031 0.985 . S
H2036 N2030 0.984 . S
H2037 N2030 0.984 . S
H2038 N2026 0.984 . S
H2039 N2026 0.985 . S
C2040 C2041 1.363 . S
C2040 C2046 1.379 . S
C2040 N2048 1.356 . S
C2041 C2040 1.363 . S
C2041 C2047 1.363 . S
C2042 C2043 1.363 . S
C2042 C2047 1.379 . S
C2042 N2049 1.356 . S
C2043 C2042 1.363 . S
C2043 C2046 1.363 . S
N2044 C2046 1.356 . S
N2044 H2056 0.984 . S
N2044 H2057 0.985 . S
N2045 C2047 1.356 . S
N2045 H2050 0.984 . S
N2045 H2051 0.985 . S
C2046 C2040 1.379 . S
C2046 C2043 1.363 . S
C2046 N2044 1.356 . S
C2047 C2041 1.363 . S
C2047 C2042 1.379 . S
C2047 N2045 1.356 . S
N2048 C2040 1.356 . S
N2048 H2054 0.984 . S
N2048 H2055 0.984 . S
N2049 C2042 1.356 . S
N2049 H2052 0.984 . S
N2049 H2053 0.985 . S
H2050 N2045 0.984 . S
H2051 N2045 0.985 . S
H2052 N2049 0.984 . S
H2053 N2049 0.985 . S
H2054 N2048 0.984 . S
H2055 N2048 0.984 . S
H2056 N2044 0.984 . S
H2057 N2044 0.985 . S
C2058 C2059 1.363 . S
C2058 C2064 1.379 . S
C2058 N2066 1.356 . S
C2059 C2058 1.363 . S
C2059 C2065 1.363 . S
C2060 C2061 1.363 . S
C2060 C2065 1.379 . S
C2060 N2067 1.356 . S
C2061 C2060 1.363 . S
C2061 C2064 1.363 . S
N2062 C2064 1.356 . S
N2062 H2074 0.984 . S
N2062 H2075 0.985 . S
N2063 C2065 1.356 . S
N2063 H2068 0.984 . S
N2063 H2069 0.985 . S
C2064 C2058 1.379 . S
C2064 C2061 1.363 . S
C2064 N2062 1.356 . S
C2065 C2059 1.363 . S
C2065 C2060 1.379 . S
C2065 N2063 1.356 . S
N2066 C2058 1.356 . S
N2066 H2072 0.984 . S
N2066 H2073 0.984 . S
N2067 C2060 1.356 . S
N2067 H2070 0.984 . S
N2067 H2071 0.985 . S
H2068 N2063 0.984 . S
H2069 N2063 0.985 . S
H2070 N2067 0.984 . S
H2071 N2067 0.985 . S
H2072 N2066 0.984 . S
H2073 N2066 0.984 . S
H2074 N2062 0.984 . S
H2075 N2062 0.985 . S
C2076 C2077 1.363 . S
C2076 C2082 1.379 . S
C2076 N2084 1.356 . S
C2077 C2076 1.363 . S
C2077 C2083 1.363 . S
C2078 C2079 1.363 . S
C2078 C2083 1.379 . S
C2078 N2085 1.356 . S
C2079 C2078 1.363 . S
C2079 C2082 1.363 . S
N2080 C2082 1.356 . S
N2080 H2092 0.984 . S
N2080 H2093 0.985 . S
N2081 C2083 1.356 . S
N2081 H2086 0.984 . S
N2081 H2087 0.985 . S
C2082 C2076 1.379 . S
C2082 C2079 1.363 . S
C2082 N2080 1.356 . S
C2083 C2077 1.363 . S
C2083 C2078 1.379 . S
C2083 N2081 1.356 . S
N2084 C2076 1.356 . S
N2084 H2090 0.984 . S
N2084 H2091 0.984 . S
N2085 C2078 1.356 . S
N2085 H2088 0.984 . S
N2085 H2089 0.985 . S
H2086 N2081 0.984 . S
H2087 N2081 0.985 . S
H2088 N2085 0.984 . S
H2089 N2085 0.985 . S
H2090 N2084 0.984 . S
H2091 N2084 0.984 . S
H2092 N2080 0.984 . S
H2093 N2080 0.985 . S
C2094 C2095 1.363 . S
C2094 C2100 1.379 . S
C2094 N2102 1.356 . S
C2095 C2094 1.363 . S
C2095 C2101 1.363 . S
C2096 C2097 1.363 . S
C2096 C2101 1.379 . S
C2096 N2103 1.356 . S
C2097 C2096 1.363 . S
C2097 C2100 1.363 . S
N2098 C2100 1.356 . S
N2098 H2110 0.984 . S
N2098 H2111 0.985 . S
N2099 C2101 1.356 . S
N2099 H2104 0.984 . S
N2099 H2105 0.985 . S
C2100 C2094 1.379 . S
C2100 C2097 1.363 . S
C2100 N2098 1.356 . S
C2101 C2095 1.363 . S
C2101 C2096 1.379 . S
C2101 N2099 1.356 . S
N2102 C2094 1.356 . S
N2102 H2108 0.984 . S
N2102 H2109 0.984 . S
N2103 C2096 1.356 . S
N2103 H2106 0.984 . S
N2103 H2107 0.985 . S
H2104 N2099 0.984 . S
H2105 N2099 0.985 . S
H2106 N2103 0.984 . S
H2107 N2103 0.985 . S
H2108 N2102 0.984 . S
H2109 N2102 0.984 . S
H2110 N2098 0.984 . S
H2111 N2098 0.985 . S
C2112 C2113 1.363 . S
C2112 C2118 1.379 . S
C2112 N2120 1.356 . S
C2113 C2112 1.363 . S
C2113 C2119 1.363 . S
C2114 C2115 1.363 . S
C2114 C2119 1.379 . S
C2114 N2121 1.356 . S
C2115 C2114 1.363 . S
C2115 C2118 1.363 . S
N2116 C2118 1.356 . S
N2116 H2128 0.984 . S
N2116 H2129 0.985 . S
N2117 C2119 1.356 . S
N2117 H2122 0.984 . S
N2117 H2123 0.985 . S
C2118 C2112 1.379 . S
C2118 C2115 1.363 . S
C2118 N2116 1.356 . S
C2119 C2113 1.363 . S
C2119 C2114 1.379 . S
C2119 N2117 1.356 . S
N2120 C2112 1.356 . S
N2120 H2126 0.984 . S
N2120 H2127 0.984 . S
N2121 C2114 1.356 . S
N2121 H2124 0.984 . S
N2121 H2125 0.985 . S
H2122 N2117 0.984 . S
H2123 N2117 0.985 . S
H2124 N2121 0.984 . S
H2125 N2121 0.985 . S
H2126 N2120 0.984 . S
H2127 N2120 0.984 . S
H2128 N2116 0.984 . S
H2129 N2116 0.985 . S
C2130 C2131 1.363 . S
C2130 C2136 1.379 . S
C2130 N2138 1.356 . S
C2131 C2130 1.363 . S
C2131 C2137 1.363 . S
C2132 C2133 1.363 . S
C2132 C2137 1.379 . S
C2132 N2139 1.356 . S
C2133 C2132 1.363 . S
C2133 C2136 1.363 . S
N2134 C2136 1.356 . S
N2134 H2146 0.984 . S
N2134 H2147 0.985 . S
N2135 C2137 1.356 . S
N2135 H2140 0.984 . S
N2135 H2141 0.985 . S
C2136 C2130 1.379 . S
C2136 C2133 1.363 . S
C2136 N2134 1.356 . S
C2137 C2131 1.363 . S
C2137 C2132 1.379 . S
C2137 N2135 1.356 . S
N2138 C2130 1.356 . S
N2138 H2144 0.984 . S
N2138 H2145 0.984 . S
N2139 C2132 1.356 . S
N2139 H2142 0.984 . S
N2139 H2143 0.985 . S
H2140 N2135 0.984 . S
H2141 N2135 0.985 . S
H2142 N2139 0.984 . S
H2143 N2139 0.985 . S
H2144 N2138 0.984 . S
H2145 N2138 0.984 . S
H2146 N2134 0.984 . S
H2147 N2134 0.985 . S
C2148 C2149 1.363 . S
C2148 C2154 1.379 . S
C2148 N2156 1.356 . S
C2149 C2148 1.363 . S
C2149 C2155 1.363 . S
C2150 C2151 1.363 . S
C2150 C2155 1.379 . S
C2150 N2157 1.356 . S
C2151 C2150 1.363 . S
C2151 C2154 1.363 . S
N2152 C2154 1.356 . S
N2152 H2164 0.984 . S
N2152 H2165 0.985 . S
N2153 C2155 1.356 . S
N2153 H2158 0.984 . S
N2153 H2159 0.985 . S
C2154 C2148 1.379 . S
C2154 C2151 1.363 . S
C2154 N2152 1.356 . S
C2155 C2149 1.363 . S
C2155 C2150 1.379 . S
C2155 N2153 1.356 . S
N2156 C2148 1.356 . S
N2156 H2162 0.984 . S
N2156 H2163 0.984 . S
N2157 C2150 1.356 . S
N2157 H2160 0.984 . S
N2157 H2161 0.985 . S
H2158 N2153 0.984 . S
H2159 N2153 0.985 . S
H2160 N2157 0.984 . S
H2161 N2157 0.985 . S
H2162 N2156 0.984 . S
H2163 N2156 0.984 . S
H2164 N2152 0.984 . S
H2165 N2152 0.985 . S
C2166 C2167 1.363 . S
C2166 C2172 1.379 . S
C2166 N2174 1.356 . S
C2167 C2166 1.363 . S
C2167 C2173 1.363 . S
C2168 C2169 1.363 . S
C2168 C2173 1.379 . S
C2168 N2175 1.356 . S
C2169 C2168 1.363 . S
C2169 C2172 1.363 . S
N2170 C2172 1.356 . S
N2170 H2182 0.984 . S
N2170 H2183 0.985 . S
N2171 C2173 1.356 . S
N2171 H2176 0.984 . S
N2171 H2177 0.985 . S
C2172 C2166 1.379 . S
C2172 C2169 1.363 . S
C2172 N2170 1.356 . S
C2173 C2167 1.363 . S
C2173 C2168 1.379 . S
C2173 N2171 1.356 . S
N2174 C2166 1.356 . S
N2174 H2180 0.984 . S
N2174 H2181 0.984 . S
N2175 C2168 1.356 . S
N2175 H2178 0.984 . S
N2175 H2179 0.985 . S
H2176 N2171 0.984 . S
H2177 N2171 0.985 . S
H2178 N2175 0.984 . S
H2179 N2175 0.985 . S
H2180 N2174 0.984 . S
H2181 N2174 0.984 . S
H2182 N2170 0.984 . S
H2183 N2170 0.985 . S
C2184 C2185 1.363 . S
C2184 C2190 1.379 . S
C2184 N2192 1.356 . S
C2185 C2184 1.363 . S
C2185 C2191 1.363 . S
C2186 C2187 1.363 . S
C2186 C2191 1.379 . S
C2186 N2193 1.356 . S
C2187 C2186 1.363 . S
C2187 C2190 1.363 . S
N2188 C2190 1.356 . S
N2188 H2200 0.984 . S
N2188 H2201 0.985 . S
N2189 C2191 1.356 . S
N2189 H2194 0.984 . S
N2189 H2195 0.985 . S
C2190 C2184 1.379 . S
C2190 C2187 1.363 . S
C2190 N2188 1.356 . S
C2191 C2185 1.363 . S
C2191 C2186 1.379 . S
C2191 N2189 1.356 . S
N2192 C2184 1.356 . S
N2192 H2198 0.984 . S
N2192 H2199 0.984 . S
N2193 C2186 1.356 . S
N2193 H2196 0.984 . S
N2193 H2197 0.985 . S
H2194 N2189 0.984 . S
H2195 N2189 0.985 . S
H2196 N2193 0.984 . S
H2197 N2193 0.985 . S
H2198 N2192 0.984 . S
H2199 N2192 0.984 . S
H2200 N2188 0.984 . S
H2201 N2188 0.985 . S
C2202 C2203 1.363 . S
C2202 C2208 1.379 . S
C2202 N2210 1.356 . S
C2203 C2202 1.363 . S
C2203 C2209 1.363 . S
C2204 C2205 1.363 . S
C2204 C2209 1.379 . S
C2204 N2211 1.356 . S
C2205 C2204 1.363 . S
C2205 C2208 1.363 . S
N2206 C2208 1.356 . S
N2206 H2218 0.984 . S
N2206 H2219 0.985 . S
N2207 C2209 1.356 . S
N2207 H2212 0.984 . S
N2207 H2213 0.985 . S
C2208 C2202 1.379 . S
C2208 C2205 1.363 . S
C2208 N2206 1.356 . S
C2209 C2203 1.363 . S
C2209 C2204 1.379 . S
C2209 N2207 1.356 . S
N2210 C2202 1.356 . S
N2210 H2216 0.984 . S
N2210 H2217 0.984 . S
N2211 C2204 1.356 . S
N2211 H2214 0.984 . S
N2211 H2215 0.985 . S
H2212 N2207 0.984 . S
H2213 N2207 0.985 . S
H2214 N2211 0.984 . S
H2215 N2211 0.985 . S
H2216 N2210 0.984 . S
H2217 N2210 0.984 . S
H2218 N2206 0.984 . S
H2219 N2206 0.985 . S
C2220 C2221 1.363 . S
C2220 C2226 1.379 . S
C2220 N2228 1.356 . S
C2221 C2220 1.363 . S
C2221 C2227 1.363 . S
C2222 C2223 1.363 . S
C2222 C2227 1.379 . S
C2222 N2229 1.356 . S
C2223 C2222 1.363 . S
C2223 C2226 1.363 . S
N2224 C2226 1.356 . S
N2224 H2236 0.984 . S
N2224 H2237 0.985 . S
N2225 C2227 1.356 . S
N2225 H2230 0.984 . S
N2225 H2231 0.985 . S
C2226 C2220 1.379 . S
C2226 C2223 1.363 . S
C2226 N2224 1.356 . S
C2227 C2221 1.363 . S
C2227 C2222 1.379 . S
C2227 N2225 1.356 . S
N2228 C2220 1.356 . S
N2228 H2234 0.984 . S
N2228 H2235 0.984 . S
N2229 C2222 1.356 . S
N2229 H2232 0.984 . S
N2229 H2233 0.985 . S
H2230 N2225 0.984 . S
H2231 N2225 0.985 . S
H2232 N2229 0.984 . S
H2233 N2229 0.985 . S
H2234 N2228 0.984 . S
H2235 N2228 0.984 . S
H2236 N2224 0.984 . S
H2237 N2224 0.985 . S
C2238 C2239 1.363 . S
C2238 C2244 1.379 . S
C2238 N2246 1.356 . S
C2239 C2238 1.363 . S
C2239 C2245 1.363 . S
C2240 C2241 1.363 . S
C2240 C2245 1.379 . S
C2240 N2247 1.356 . S
C2241 C2240 1.363 . S
C2241 C2244 1.363 . S
N2242 C2244 1.356 . S
N2242 H2254 0.984 . S
N2242 H2255 0.985 . S
N2243 C2245 1.356 . S
N2243 H2248 0.984 . S
N2243 H2249 0.985 . S
C2244 C2238 1.379 . S
C2244 C2241 1.363 . S
C2244 N2242 1.356 . S
C2245 C2239 1.363 . S
C2245 C2240 1.379 . S
C2245 N2243 1.356 . S
N2246 C2238 1.356 . S
N2246 H2252 0.984 . S
N2246 H2253 0.984 . S
N2247 C2240 1.356 . S
N2247 H2250 0.984 . S
N2247 H2251 0.985 . S
H2248 N2243 0.984 . S
H2249 N2243 0.985 . S
H2250 N2247 0.984 . S
H2251 N2247 0.985 . S
H2252 N2246 0.984 . S
H2253 N2246 0.984 . S
H2254 N2242 0.984 . S
H2255 N2242 0.985 . S
C2256 C2257 1.363 . S
C2256 C2262 1.379 . S
C2256 N2264 1.356 . S
C2257 C2256 1.363 . S
C2257 C2263 1.363 . S
C2258 C2259 1.363 . S
C2258 C2263 1.379 . S
C2258 N2265 1.356 . S
C2259 C2258 1.363 . S
C2259 C2262 1.363 . S
N2260 C2262 1.356 . S
N2260 H2272 0.984 . S
N2260 H2273 0.985 . S
N2261 C2263 1.356 . S
N2261 H2266 0.984 . S
N2261 H2267 0.985 . S
C2262 C2256 1.379 . S
C2262 C2259 1.363 . S
C2262 N2260 1.356 . S
C2263 C2257 1.363 . S
C2263 C2258 1.379 . S
C2263 N2261 1.356 . S
N2264 C2256 1.356 . S
N2264 H2270 0.984 . S
N2264 H2271 0.984 . S
N2265 C2258 1.356 . S
N2265 H2268 0.984 . S
N2265 H2269 0.985 . S
H2266 N2261 0.984 . S
H2267 N2261 0.985 . S
H2268 N2265 0.984 . S
H2269 N2265 0.985 . S
H2270 N2264 0.984 . S
H2271 N2264 0.984 . S
H2272 N2260 0.984 . S
H2273 N2260 0.985 . S
C2274 C2275 1.363 . S
C2274 C2280 1.379 . S
C2274 N2282 1.356 . S
C2275 C2274 1.363 . S
C2275 C2281 1.363 . S
C2276 C2277 1.363 . S
C2276 C2281 1.379 . S
C2276 N2283 1.356 . S
C2277 C2276 1.363 . S
C2277 C2280 1.363 . S
N2278 C2280 1.356 . S
N2278 H2290 0.984 . S
N2278 H2291 0.985 . S
N2279 C2281 1.356 . S
N2279 H2284 0.984 . S
N2279 H2285 0.985 . S
C2280 C2274 1.379 . S
C2280 C2277 1.363 . S
C2280 N2278 1.356 . S
C2281 C2275 1.363 . S
C2281 C2276 1.379 . S
C2281 N2279 1.356 . S
N2282 C2274 1.356 . S
N2282 H2288 0.984 . S
N2282 H2289 0.984 . S
N2283 C2276 1.356 . S
N2283 H2286 0.984 . S
N2283 H2287 0.985 . S
H2284 N2279 0.984 . S
H2285 N2279 0.985 . S
H2286 N2283 0.984 . S
H2287 N2283 0.985 . S
H2288 N2282 0.984 . S
H2289 N2282 0.984 . S
H2290 N2278 0.984 . S
H2291 N2278 0.985 . S
C2292 C2293 1.363 . S
C2292 C2298 1.379 . S
C2292 N2300 1.356 . S
C2293 C2292 1.363 . S
C2293 C2299 1.363 . S
C2294 C2295 1.363 . S
C2294 C2299 1.379 . S
C2294 N2301 1.356 . S
C2295 C2294 1.363 . S
C2295 C2298 1.363 . S
N2296 C2298 1.356 . S
N2296 H2308 0.984 . S
N2296 H2309 0.985 . S
N2297 C2299 1.356 . S
N2297 H2302 0.984 . S
N2297 H2303 0.985 . S
C2298 C2292 1.379 . S
C2298 C2295 1.363 . S
C2298 N2296 1.356 . S
C2299 C2293 1.363 . S
C2299 C2294 1.379 . S
C2299 N2297 1.356 . S
N2300 C2292 1.356 . S
N2300 H2306 0.984 . S
N2300 H2307 0.984 . S
N2301 C2294 1.356 . S
N2301 H2304 0.984 . S
N2301 H2305 0.985 . S
H2302 N2297 0.984 . S
H2303 N2297 0.985 . S
H2304 N2301 0.984 . S
H2305 N2301 0.985 . S
H2306 N2300 0.984 . S
H2307 N2300 0.984 . S
H2308 N2296 0.984 . S
H2309 N2296 0.985 . S
C2310 C2311 1.363 . S
C2310 C2316 1.379 . S
C2310 N2318 1.356 . S
C2311 C2310 1.363 . S
C2311 C2317 1.363 . S
C2312 C2313 1.363 . S
C2312 C2317 1.379 . S
C2312 N2319 1.356 . S
C2313 C2312 1.363 . S
C2313 C2316 1.363 . S
N2314 C2316 1.356 . S
N2314 H2326 0.984 . S
N2314 H2327 0.985 . S
N2315 C2317 1.356 . S
N2315 H2320 0.984 . S
N2315 H2321 0.985 . S
C2316 C2310 1.379 . S
C2316 C2313 1.363 . S
C2316 N2314 1.356 . S
C2317 C2311 1.363 . S
C2317 C2312 1.379 . S
C2317 N2315 1.356 . S
N2318 C2310 1.356 . S
N2318 H2324 0.984 . S
N2318 H2325 0.984 . S
N2319 C2312 1.356 . S
N2319 H2322 0.984 . S
N2319 H2323 0.985 . S
H2320 N2315 0.984 . S
H2321 N2315 0.985 . S
H2322 N2319 0.984 . S
H2323 N2319 0.985 . S
H2324 N2318 0.984 . S
H2325 N2318 0.984 . S
H2326 N2314 0.984 . S
H2327 N2314 0.985 . S
C2328 C2329 1.363 . S
C2328 C2334 1.379 . S
C2328 N2336 1.356 . S
C2329 C2328 1.363 . S
C2329 C2335 1.363 . S
C2330 C2331 1.363 . S
C2330 C2335 1.379 . S
C2330 N2337 1.356 . S
C2331 C2330 1.363 . S
C2331 C2334 1.363 . S
N2332 C2334 1.356 . S
N2332 H2344 0.984 . S
N2332 H2345 0.985 . S
N2333 C2335 1.356 . S
N2333 H2338 0.984 . S
N2333 H2339 0.985 . S
C2334 C2328 1.379 . S
C2334 C2331 1.363 . S
C2334 N2332 1.356 . S
C2335 C2329 1.363 . S
C2335 C2330 1.379 . S
C2335 N2333 1.356 . S
N2336 C2328 1.356 . S
N2336 H2342 0.984 . S
N2336 H2343 0.984 . S
N2337 C2330 1.356 . S
N2337 H2340 0.984 . S
N2337 H2341 0.985 . S
H2338 N2333 0.984 . S
H2339 N2333 0.985 . S
H2340 N2337 0.984 . S
H2341 N2337 0.985 . S
H2342 N2336 0.984 . S
H2343 N2336 0.984 . S
H2344 N2332 0.984 . S
H2345 N2332 0.985 . S
C2346 C2347 1.363 . S
C2346 C2352 1.379 . S
C2346 N2354 1.356 . S
C2347 C2346 1.363 . S
C2347 C2353 1.363 . S
C2348 C2349 1.363 . S
C2348 C2353 1.379 . S
C2348 N2355 1.356 . S
C2349 C2348 1.363 . S
C2349 C2352 1.363 . S
N2350 C2352 1.356 . S
N2350 H2362 0.984 . S
N2350 H2363 0.985 . S
N2351 C2353 1.356 . S
N2351 H2356 0.984 . S
N2351 H2357 0.985 . S
C2352 C2346 1.379 . S
C2352 C2349 1.363 . S
C2352 N2350 1.356 . S
C2353 C2347 1.363 . S
C2353 C2348 1.379 . S
C2353 N2351 1.356 . S
N2354 C2346 1.356 . S
N2354 H2360 0.984 . S
N2354 H2361 0.984 . S
N2355 C2348 1.356 . S
N2355 H2358 0.984 . S
N2355 H2359 0.985 . S
H2356 N2351 0.984 . S
H2357 N2351 0.985 . S
H2358 N2355 0.984 . S
H2359 N2355 0.985 . S
H2360 N2354 0.984 . S
H2361 N2354 0.984 . S
H2362 N2350 0.984 . S
H2363 N2350 0.985 . S
C2364 C2365 1.363 . S
C2364 C2370 1.379 . S
C2364 N2372 1.356 . S
C2365 C2364 1.363 . S
C2365 C2371 1.363 . S
C2366 C2367 1.363 . S
C2366 C2371 1.379 . S
C2366 N2373 1.356 . S
C2367 C2366 1.363 . S
C2367 C2370 1.363 . S
N2368 C2370 1.356 . S
N2368 H2380 0.984 . S
N2368 H2381 0.985 . S
N2369 C2371 1.356 . S
N2369 H2374 0.984 . S
N2369 H2375 0.985 . S
C2370 C2364 1.379 . S
C2370 C2367 1.363 . S
C2370 N2368 1.356 . S
C2371 C2365 1.363 . S
C2371 C2366 1.379 . S
C2371 N2369 1.356 . S
N2372 C2364 1.356 . S
N2372 H2378 0.984 . S
N2372 H2379 0.984 . S
N2373 C2366 1.356 . S
N2373 H2376 0.984 . S
N2373 H2377 0.985 . S
H2374 N2369 0.984 . S
H2375 N2369 0.985 . S
H2376 N2373 0.984 . S
H2377 N2373 0.985 . S
H2378 N2372 0.984 . S
H2379 N2372 0.984 . S
H2380 N2368 0.984 . S
H2381 N2368 0.985 . S
C2382 C2383 1.363 . S
C2382 C2388 1.379 . S
C2382 N2390 1.356 . S
C2383 C2382 1.363 . S
C2383 C2389 1.363 . S
C2384 C2385 1.363 . S
C2384 C2389 1.379 . S
C2384 N2391 1.356 . S
C2385 C2384 1.363 . S
C2385 C2388 1.363 . S
N2386 C2388 1.356 . S
N2386 H2398 0.984 . S
N2386 H2399 0.985 . S
N2387 C2389 1.356 . S
N2387 H2392 0.984 . S
N2387 H2393 0.985 . S
C2388 C2382 1.379 . S
C2388 C2385 1.363 . S
C2388 N2386 1.356 . S
C2389 C2383 1.363 . S
C2389 C2384 1.379 . S
C2389 N2387 1.356 . S
N2390 C2382 1.356 . S
N2390 H2396 0.984 . S
N2390 H2397 0.984 . S
N2391 C2384 1.356 . S
N2391 H2394 0.984 . S
N2391 H2395 0.985 . S
H2392 N2387 0.984 . S
H2393 N2387 0.985 . S
H2394 N2391 0.984 . S
H2395 N2391 0.985 . S
H2396 N2390 0.984 . S
H2397 N2390 0.984 . S
H2398 N2386 0.984 . S
H2399 N2386 0.985 . S
C673 C224 1.579 . S
C675 C0 1.532 . S
C691 C671 1.604 . S
C693 C26 1.549 . S
C709 C40 1.542 . S
C711 C642 1.587 . S
C727 C55 1.526 . S
C729 C656 1.572 . S
C745 C251 1.602 . S
C747 C68 1.555 . S
C763 C71 1.564 . S
C765 C253 1.608 . S
C781 C97 1.562 . S
C783 C266 1.611 . S
C799 C617 1.577 . S
C801 C99 1.538 . S
C817 C112 1.532 . S
C819 C13 1.578 . S
C835 C15 1.592 . S
C837 C138 1.549 . S
C853 C29 1.571 . S
C855 C141 1.518 . S
C871 C42 1.606 . S
C873 C167 1.566 . S
C889 C57 1.586 . S
C891 C169 1.539 . S
C907 C194 1.520 . S
C909 C82 1.560 . S
C925 C84 1.581 . S
C927 C197 1.527 . S
C943 C223 1.538 . S
C945 C110 1.576 . S
C961 C237 1.529 . S
C963 C125 1.578 . S
C979 C180 1.573 . S
C981 C238 1.521 . S
C997 C264 1.523 . S
C999 C183 1.574 . S
C1015 C279 1.538 . S
C1017 C208 1.594 . S
C1033 C547 1.591 . S
C1035 C292 1.536 . S
C1051 C307 1.527 . S
C1053 C476 1.581 . S
C1069 C502 1.603 . S
C1071 C309 1.552 . S
C1087 C463 1.607 . S
C1089 C323 1.566 . S
C1105 C572 1.602 . S
C1107 C349 1.548 . S
C1123 C363 1.523 . S
C1125 C334 1.560 . S
C1141 C376 1.541 . S
C1143 C294 1.594 . S
C1159 C391 1.550 . S
C1161 C320 1.592 . S
C1177 C392 1.531 . S
C1179 C575 1.579 . S
C1195 C589 1.560 . S
C1197 C407 1.510 . S
C1213 C433 1.518 . S
C1215 C602 1.573 . S
C1231 C281 1.591 . S
C1233 C434 1.536 . S
C1249 C336 1.602 . S
C1251 C448 1.551 . S
C1267 C474 1.523 . S
C1269 C350 1.572 . S
C1285 C489 1.562 . S
C1287 C365 1.610 . S
C1303 C491 1.512 . S
C1305 C378 1.557 . S
C1321 C505 1.538 . S
C1323 C405 1.592 . S
C1339 C519 1.552 . S
C1341 C418 1.603 . S
C1357 C420 1.604 . S
C1359 C532 1.555 . S
C1375 C447 1.591 . S
C1377 C558 1.536 . S
C1393 C461 1.600 . S
C1395 C561 1.548 . S
C1411 C516 1.611 . S
C1413 C586 1.565 . S
C1429 C530 1.591 . S
C1431 C600 1.549 . S
C1447 C615 1.539 . S
C1449 C545 1.586 . S
C1465 C628 1.534 . S
C1467 C210 1.576 . S
C1483 C631 1.552 . S
C1485 C152 1.604 . S
C1501 C154 1.560 . S
C1503 C645 1.523 . S
C1519 C658 1.508 . S
C1521 C127 1.559 . S
C1537 C12 1.592 . S
C1539 C390 1.550 . S
C1555 C348 1.699 . S
C1557 C14 1.743 . S
C1573 C28 1.561 . S
C1575 C362 1.519 . S
C1591 C43 1.733 . S
C1593 C377 1.687 . S
C1609 C56 1.629 . S
C1611 C70 1.586 . S
C1627 C96 1.775 . S
C1629 C83 1.815 . S
C1645 C85 1.599 . S
C1647 C98 1.554 . S
C1663 C111 1.804 . S
C1665 C69 1.769 . S
C1681 C124 1.592 . S
C1683 C601 1.553 . S
C1699 C126 1.776 . S
C1701 C614 1.741 . S
C1717 C153 1.726 . S
C1719 C293 1.681 . S
C1735 C155 1.812 . S
C1737 C587 1.776 . S
C1753 C181 1.561 . S
C1755 C644 1.519 . S
C1771 C236 1.730 . S
C1773 C182 1.771 . S
C1789 C209 1.695 . S
C1791 C659 1.650 . S
C1807 C630 1.769 . S
C1809 C211 1.808 . S
C1825 C139 1.556 . S
C1827 C225 1.589 . S
C1843 C250 1.725 . S
C1845 C559 1.681 . S
C1861 C252 1.734 . S
C1863 C504 1.690 . S
C1879 C518 1.706 . S
C1881 C267 1.755 . S
C1897 C280 1.705 . S
C1899 C196 1.659 . S
C1915 C490 1.647 . S
C1917 C295 1.695 . S
C1933 C449 1.696 . S
C1935 C321 1.742 . S
C1951 C488 1.775 . S
C1953 C335 1.815 . S
C1969 C337 1.726 . S
C1971 C54 1.676 . S
C1987 C351 1.767 . S
C1989 C1 1.730 . S
C2005 C27 1.709 . S
C2007 C364 1.754 . S
C2023 C379 1.775 . S
C2025 C41 1.738 . S
C2041 C404 1.695 . S
C2043 C406 1.647 . S
C2059 C432 1.649 . S
C2061 C419 1.695 . S
C2077 C435 1.681 . S
C2079 C421 1.726 . S
C2095 C446 1.705 . S
C2097 C393 1.656 . S
C2113 C265 1.679 . S
C2115 C460 1.725 . S
C2131 C462 1.734 . S
C2133 C278 1.690 . S
C2149 C477 1.599 . S
C2151 C629 1.557 . S
C2167 C503 1.695 . S
C2169 C239 1.646 . S
C2185 C517 1.755 . S
C2187 C308 1.706 . S
C2203 C531 1.742 . S
C2205 C560 1.699 . S
C2221 C322 1.589 . S
C2223 C544 1.626 . S
C2239 C546 1.705 . S
C2241 C306 1.659 . S
C2257 C475 1.679 . S
C2259 C573 1.726 . S
C2275 C222 1.558 . S
C2277 C574 1.595 . S
C2293 C168 1.737 . S
C2295 C588 1.779 . S
C2311 C603 1.561 . S
C2313 C195 1.522 . S
C2329 C616 1.805 . S
C2331 C533 1.769 . S
C2347 C166 1.589 . S
C2349 C643 1.627 . S
C2365 C657 1.767 . S
C2367 C113 1.730 . S
C2383 C140 1.649 . S
C2385 C670 1.696 . S
