# Generated by pormake.
# Topology vmv, (8)-cn, num edge types: 1
# Building blocks:
#     Node 0, Type 0, BuildingBlock: TAGTUT_clean_sbu_1, # of connection points: 8
#     Node 1, Type 0, BuildingBlock: TAGTUT_clean_sbu_1, # of connection points: 8
#     Node 2, Type 0, BuildingBlock: TAGTUT_clean_sbu_1, # of connection points: 8
#     Node 3, Type 0, BuildingBlock: TAGTUT_clean_sbu_1, # of connection points: 8
#     Edge 4, Type (0, 0), BuildingBlock: EZIPEK_clean_linker_0, # of connection points: 2
#     Edge 5, Type (0, 0), BuildingBlock: EZIPEK_clean_linker_0, # of connection points: 2
#     Edge 6, Type (0, 0), BuildingBlock: EZIPEK_clean_linker_0, # of connection points: 2
#     Edge 7, Type (0, 0), BuildingBlock: EZIPEK_clean_linker_0, # of connection points: 2
#     Edge 8, Type (0, 0), BuildingBlock: EZIPEK_clean_linker_0, # of connection points: 2
#     Edge 9, Type (0, 0), BuildingBlock: EZIPEK_clean_linker_0, # of connection points: 2
#     Edge 10, Type (0, 0), BuildingBlock: EZIPEK_clean_linker_0, # of connection points: 2
#     Edge 11, Type (0, 0), BuildingBlock: EZIPEK_clean_linker_0, # of connection points: 2
#     Edge 12, Type (0, 0), BuildingBlock: EZIPEK_clean_linker_0, # of connection points: 2
#     Edge 13, Type (0, 0), BuildingBlock: EZIPEK_clean_linker_0, # of connection points: 2
#     Edge 14, Type (0, 0), BuildingBlock: EZIPEK_clean_linker_0, # of connection points: 2
#     Edge 15, Type (0, 0), BuildingBlock: EZIPEK_clean_linker_0, # of connection points: 2
#     Edge 16, Type (0, 0), BuildingBlock: EZIPEK_clean_linker_0, # of connection points: 2
#     Edge 17, Type (0, 0), BuildingBlock: EZIPEK_clean_linker_0, # of connection points: 2
#     Edge 18, Type (0, 0), BuildingBlock: EZIPEK_clean_linker_0, # of connection points: 2
#     Edge 19, Type (0, 0), BuildingBlock: EZIPEK_clean_linker_0, # of connection points: 2
# Relax obj value: 0.308
# Max RMSD: 0.293
# Mean RMSD: 0.283
data_MOF--net-vmv--node1-TAGTUT_clean_sbu_1--edge1-EZIPEK_clean_linker_0
_symmetry_space_group_name_H-M    P1
_symmetry_Int_Tables_number       1
_symmetry_cell_setting            triclinic
loop_
_symmetry_equiv_pos_as_xyz
'x, y, z'
_cell_length_a     12.26004
_cell_length_b     23.725488
_cell_length_c     24.092805
_cell_angle_alpha  90.259487
_cell_angle_beta   105.0622
_cell_angle_gamma 88.989847
loop_
_atom_site_label
_atom_site_type_symbol
_atom_site_fract_x
_atom_site_fract_y
_atom_site_fract_z
_atom_type_partial_charge
C0 C 0.34201 0.13685 0.76927 0.0
C1 C 0.61605 0.25439 0.84258 0.0
C2 C 0.3158 0.42675 0.78227 0.0
Mg3 Mg 0.48951 0.21621 0.71744 0.0
O4 O 0.36748 0.26452 0.72361 0.0
Mg5 Mg 0.34062 0.28108 0.79917 0.0
Mg6 Mg 0.37539 0.3407 0.6948 0.0
O7 O 0.38713 0.41637 0.65846 0.0
Mg8 Mg 0.2412 0.45552 0.65387 0.0
Mg9 Mg 0.41765 0.38813 0.57477 0.0
C10 C 0.39787 0.26158 0.58709 0.0
C11 C 0.6336 0.34451 0.6748 0.0
O12 O 0.31281 0.17849 0.79818 0.0
O13 O 0.4078 0.14378 0.73661 0.0
O14 O 0.51811 0.27036 0.84376 0.0
O15 O 0.63439 0.2332 0.79638 0.0
O16 O 0.45534 0.22295 0.62043 0.0
O17 O 0.36377 0.30618 0.60743 0.0
C18 C 0.11594 0.32116 0.71254 0.0
O19 O 0.17543 0.34211 0.68115 0.0
O20 O 0.16092 0.29406 0.75798 0.0
O21 O 0.41743 0.45859 0.63848 0.0
O22 O 0.30923 0.53184 0.62027 0.0
O23 O 0.23825 0.41576 0.52266 0.0
C24 C 0.40139 0.50825 0.6164 0.0
O25 O 0.16355 0.39475 0.59078 0.0
O26 O 0.229 0.43395 0.74018 0.0
C27 C 0.1496 0.41211 0.54036 0.0
O28 O 0.37946 0.38186 0.78448 0.0
O29 O 0.57333 0.33452 0.71005 0.0
O30 O 0.59099 0.36327 0.62444 0.0
C31 C 0.91876 0.72805 0.67724 0.0
C32 C 0.25351 0.65517 0.79364 0.0
C33 C 0.11832 0.75693 0.96636 0.0
Mg34 Mg 0.16176 0.77028 0.7344 0.0
O35 O 0.08137 0.78154 0.79157 0.0
Mg36 Mg 0.02327 0.71637 0.82517 0.0
Mg37 Mg 0.14459 0.82849 0.85874 0.0
O38 O 0.20995 0.88301 0.92486 0.0
Mg39 Mg 0.11758 0.88138 0.98175 0.0
Mg40 Mg 0.22974 0.95435 0.86925 0.0
C41 C 0.182 0.90505 0.75428 0.0
C42 C 0.40856 0.85358 0.85864 0.0
O43 O 0.90818 0.71109 0.72671 0.0
O44 O 0.01309 0.74551 0.67082 0.0
O45 O 0.16512 0.65913 0.81187 0.0
O46 O 0.2782 0.6958 0.76422 0.0
O47 O 0.20187 0.86211 0.7249 0.0
O48 O 0.14428 0.89871 0.79846 0.0
C49 C 0.8714 0.81731 0.85418 0.0
O50 O 0.9555 0.85047 0.86185 0.0
O51 O 0.88108 0.76623 0.84112 0.0
O52 O 0.25355 0.92997 0.95933 0.0
O53 O 0.25042 0.92622 0.0476 0.0
O54 O 0.05716 0.9928 0.87344 0.0
C55 C 0.28946 0.95037 1.00969 0.0
O56 O 0.99949 0.94264 0.93912 0.0
O57 O 0.0492 0.79679 0.96682 0.0
C58 C 0.98456 0.98187 0.90162 0.0
O59 O 0.14509 0.74718 0.91871 0.0
O60 O 0.33304 0.81554 0.85547 0.0
O61 O 0.3887 0.90621 0.86471 0.0
C62 C 0.60795 0.51014 0.42846 0.0
C63 C 0.86195 0.6046 0.50391 0.0
C64 C 0.6194 0.75801 0.45534 0.0
Mg65 Mg 0.7697 0.56078 0.3906 0.0
O66 O 0.62505 0.60135 0.38583 0.0
Mg67 Mg 0.59529 0.63109 0.4693 0.0
Mg68 Mg 0.63829 0.67638 0.34831 0.0
O69 O 0.64799 0.75228 0.31879 0.0
Mg70 Mg 0.52893 0.80386 0.32355 0.0
Mg71 Mg 0.67744 0.73458 0.2442 0.0
C72 C 0.69348 0.5881 0.26232 0.0
C73 C 0.899 0.69219 0.3313 0.0
O74 O 0.59377 0.55983 0.40642 0.0
O75 O 0.69887 0.4855 0.42424 0.0
O76 O 0.77372 0.60236 0.52209 0.0
O77 O 0.84767 0.6217 0.45342 0.0
O78 O 0.78083 0.58212 0.30425 0.0
O79 O 0.63151 0.634 0.25776 0.0
C80 C 0.38073 0.67418 0.3684 0.0
O81 O 0.44098 0.6835 0.33299 0.0
O82 O 0.42308 0.65621 0.41911 0.0
O83 O 0.72264 0.83447 0.25227 0.0
O84 O 0.60779 0.87636 0.29935 0.0
O85 O 0.4992 0.75144 0.19746 0.0
C86 C 0.68978 0.87885 0.27573 0.0
O87 O 0.38319 0.7865 0.24642 0.0
O88 O 0.56459 0.79718 0.42147 0.0
C89 C 0.40144 0.76779 0.19931 0.0
O90 O 0.65044 0.71237 0.43535 0.0
O91 O 0.83875 0.6734 0.36331 0.0
O92 O 0.8547 0.71764 0.28494 0.0
C93 C 0.68334 0.09 0.02999 0.0
C94 C 0.98124 0.04261 0.09338 0.0
C95 C 0.86533 0.10755 0.28148 0.0
Mg96 Mg 0.8872 0.14531 0.0506 0.0
O97 O 0.80612 0.14372 0.11189 0.0
Mg98 Mg 0.78764 0.06634 0.16142 0.0
Mg99 Mg 0.88282 0.19341 0.18045 0.0
O100 O 0.95123 0.23668 0.24941 0.0
Mg101 Mg 0.86441 0.24376 0.30394 0.0
Mg102 Mg 1.00105 0.30547 0.21774 0.0
C103 C 0.90022 0.2673 0.07483 0.0
C104 C 0.15476 0.20838 0.1844 0.0
O105 O 0.7319 0.1105 0.07919 0.0
O106 O 0.72873 0.10675 0.99099 0.0
O107 O 0.92745 0.01627 0.12361 0.0
O108 O 1.00244 0.09234 0.10807 0.0
O109 O 0.96564 0.22632 0.07255 0.0
O110 O 0.87808 0.27761 0.12365 0.0
C111 C 0.62401 0.1672 0.19134 0.0
O112 O 0.69892 0.20467 0.19122 0.0
O113 O 0.64333 0.11471 0.18435 0.0
O114 O 0.11381 0.30902 0.3161 0.0
O115 O 0.00692 0.2719 0.36961 0.0
O116 O 0.85722 0.35962 0.2331 0.0
C117 C 0.10131 0.29086 0.36475 0.0
O118 O 0.74082 0.31629 0.27432 0.0
O119 O 0.83978 0.14938 0.31072 0.0
C120 C 0.76641 0.36004 0.24928 0.0
O121 O 0.89254 0.11686 0.23455 0.0
O122 O 0.07019 0.17542 0.17409 0.0
O123 O 0.14545 0.25873 0.19999 0.0
C124 C 0.94214 0.51918 0.56242 0.0
C125 C 0.95341 0.56134 0.52317 0.0
C126 C 0.06705 0.49641 0.48114 0.0
C127 C 0.05651 0.45441 0.52063 0.0
N128 N 0.95237 0.42116 0.58634 0.0
N129 N 0.05826 0.59441 0.45764 0.0
C130 C 0.98258 0.46432 0.55657 0.0
C131 C 0.0272 0.5513 0.48716 0.0
N132 N 0.897 0.53049 0.60726 0.0
N133 N 0.11178 0.4849 0.43619 0.0
H134 H 0.04476 0.63645 0.46732 0.0
H135 H 0.10408 0.58783 0.42717 0.0
H136 H 0.1324 0.44419 0.42532 0.0
H137 H 0.1324 0.44419 0.42532 0.0
H138 H 0.87639 0.57112 0.61837 0.0
H139 H 0.87639 0.57112 0.61837 0.0
H140 H 0.90693 0.42762 0.617 0.0
H141 H 0.96664 0.37914 0.57686 0.0
C142 C 0.48914 0.05395 0.97232 0.0
C143 C 0.58187 0.05094 0.02211 0.0
C144 C 0.45963 0.9989 0.07137 0.0
C145 C 0.37317 0.99739 0.02053 0.0
N146 N 0.28592 0.04847 0.93503 0.0
N147 N 0.65759 0.99456 0.10725 0.0
C148 C 0.38238 0.03204 0.97426 0.0
C149 C 0.56722 0.01762 0.06921 0.0
N150 N 0.50334 0.07368 0.92174 0.0
N151 N 0.44031 0.98326 0.12239 0.0
H152 H 0.73692 0.99794 0.1013 0.0
H153 H 0.65122 0.96502 0.13809 0.0
H154 H 0.36011 0.97395 0.12652 0.0
H155 H 0.50046 0.98801 0.16162 0.0
H156 H 0.43915 0.07378 0.8839 0.0
H157 H 0.5816 0.08306 0.9154 0.0
H158 H 0.28275 0.07812 0.90287 0.0
H159 H 0.2077 0.03818 0.94106 0.0
C160 C 0.60506 0.47685 0.52785 0.0
C161 C 0.54776 0.49921 0.47395 0.0
C162 C 0.40406 0.54226 0.51704 0.0
C163 C 0.46134 0.51979 0.5709 0.0
N164 N 0.63882 0.48503 0.63067 0.0
N165 N 0.37111 0.53511 0.41415 0.0
C166 C 0.56877 0.49289 0.57709 0.0
C167 C 0.44068 0.52655 0.46776 0.0
N168 N 0.68728 0.43655 0.53173 0.0
N169 N 0.32196 0.58259 0.51334 0.0
H170 H 0.3926 0.52117 0.37731 0.0
H171 H 0.28823 0.55013 0.40694 0.0
H172 H 0.30114 0.59934 0.54935 0.0
H173 H 0.28883 0.60581 0.47602 0.0
H174 H 0.72116 0.41384 0.56928 0.0
H175 H 0.70756 0.41923 0.49583 0.0
H176 H 0.72173 0.47003 0.63792 0.0
H177 H 0.61761 0.49973 0.6673 0.0
C178 C 0.86174 1.00298 0.99853 0.0
C179 C 0.95607 0.03452 0.02932 0.0
C180 C 0.96927 0.07236 0.93648 0.0
C181 C 0.90575 0.02693 0.90967 0.0
N182 N 0.72865 0.98533 0.90493 0.0
N183 N 0.11093 0.09569 0.02306 0.0
C184 C 0.82645 1.00716 0.93731 0.0
C185 C 0.01243 0.06949 0.99708 0.0
N186 N 0.81359 0.96677 0.02773 0.0
N187 N 1.00101 0.11222 0.90373 0.0
H188 H 0.15491 0.08803 0.06567 0.0
H189 H 0.15572 0.11947 1.00045 0.0
H190 H 0.04543 0.14798 0.92119 0.0
H191 H 0.97418 0.11031 0.85887 0.0
H192 H 0.74499 0.9419 1.00869 0.0
H193 H 0.74499 0.9419 1.00869 0.0
H194 H 0.66308 0.9726 0.9219 0.0
H195 H 0.71217 0.98457 0.86015 0.0
C196 C 0.6582 0.23494 0.94775 0.0
C197 C 0.69883 0.25452 0.90087 0.0
C198 C 0.86193 0.29468 0.97106 0.0
C199 C 0.81742 0.27753 1.01759 0.0
N200 N 0.65667 0.24534 0.04763 0.0
N201 N 0.83042 0.31122 0.86831 0.0
C202 C 0.71009 0.25229 1.00507 0.0
C203 C 0.79854 0.28662 0.91263 0.0
N204 N 0.56944 0.19881 0.93715 0.0
N205 N 0.96695 0.31765 0.98306 0.0
H206 H 0.78808 0.3045 0.8254 0.0
H207 H 0.89442 0.34062 0.87408 0.0
H208 H 0.01175 0.32821 0.02477 0.0
H209 H 0.01122 0.32419 0.95222 0.0
H210 H 0.53821 0.18075 0.96903 0.0
H211 H 0.53373 0.18222 0.89644 0.0
H212 H 0.57394 0.23174 0.04051 0.0
H213 H 0.68945 0.25983 0.08921 0.0
C214 C 0.74832 0.8035 0.54292 0.0
C215 C 0.66093 0.76517 0.51966 0.0
C216 C 0.724 0.70661 0.60727 0.0
C217 C 0.81679 0.74277 0.62831 0.0
N218 N 0.87586 0.83965 0.62928 0.0
N219 N 0.53517 0.69882 0.54345 0.0
C220 C 0.81566 0.79579 0.60027 0.0
C221 C 0.63913 0.72241 0.55634 0.0
N222 N 0.77122 0.84589 0.50982 0.0
N223 N 0.71794 0.65669 0.63401 0.0
H224 H 0.47097 0.71352 0.50885 0.0
H225 H 0.51015 0.6701 0.57016 0.0
H226 H 0.77765 0.64391 0.67121 0.0
H227 H 0.65778 0.62646 0.61683 0.0
H228 H 0.84336 0.87033 0.52233 0.0
H229 H 0.72059 0.85494 0.46893 0.0
H230 H 0.87096 0.88028 0.61243 0.0
H231 H 0.91883 0.83712 0.67273 0.0
C232 C 0.15502 0.72889 0.0705 0.0
C233 C 0.19916 0.74786 0.02447 0.0
C234 C 0.35348 0.79238 0.09548 0.0
C235 C 0.31669 0.76915 0.14176 0.0
N236 N 0.19013 0.70754 0.17258 0.0
N237 N 0.36354 0.78022 0.99763 0.0
C238 C 0.21922 0.73524 0.12912 0.0
C239 C 0.30524 0.7743 0.0382 0.0
N240 N 0.05062 0.70529 0.05803 0.0
N241 N 0.43457 0.83272 0.10624 0.0
H242 H 0.33497 0.76532 0.95583 0.0
H243 H 0.44811 0.79151 1.00862 0.0
H244 H 0.46856 0.84896 0.14734 0.0
H245 H 0.45833 0.85415 0.07363 0.0
H246 H 0.00752 0.69694 0.089 0.0
H247 H 0.00518 0.69621 1.01604 0.0
H248 H 0.12778 0.67714 0.16572 0.0
H249 H 0.23327 0.71276 0.21563 0.0
C250 C 0.20345 0.22362 0.44234 0.0
C251 C 0.20202 0.27672 0.41436 0.0
C252 C 0.37857 0.29763 0.48666 0.0
C253 C 0.35687 0.25462 0.52304 0.0
N254 N 0.24549 0.17433 0.53322 0.0
N255 N 0.29913 0.36365 0.40952 0.0
C256 C 0.26963 0.21626 0.49988 0.0
C257 C 0.29386 0.31336 0.43577 0.0
N258 N 0.1449 0.17938 0.4132 0.0
N259 N 0.4821 0.32169 0.49989 0.0
H260 H 0.23934 0.37663 0.37245 0.0
H261 H 0.35857 0.39407 0.42712 0.0
H262 H 0.54638 0.30702 0.53444 0.0
H263 H 0.5069 0.35064 0.47333 0.0
H264 H 0.15008 0.13885 0.43032 0.0
H265 H 0.10354 0.18148 0.36951 0.0
H266 H 0.17345 0.14988 0.52028 0.0
H267 H 0.29407 0.16594 0.57479 0.0
C268 C 0.94812 0.36437 0.7389 0.0
C269 C 0.99247 0.33074 0.70036 0.0
C270 C 0.80295 0.29628 0.65604 0.0
C271 C 0.75737 0.33449 0.69017 0.0
N272 N 0.78462 0.41209 0.75694 0.0
N273 N 0.96172 0.26879 0.61855 0.0
C274 C 0.8294 0.3705 0.72971 0.0
C275 C 0.91954 0.29811 0.65759 0.0
N276 N 0.01913 0.38923 0.78547 0.0
N277 N 0.73491 0.25686 0.62356 0.0
H278 H 0.04723 0.26814 0.61938 0.0
H279 H 0.91122 0.24904 0.58252 0.0
H280 H 0.65011 0.25354 0.62289 0.0
H281 H 0.76417 0.22423 0.60193 0.0
H282 H 0.99135 0.40876 0.81824 0.0
H283 H 0.10666 0.38645 0.7942 0.0
H284 H 0.8324 0.44426 0.78042 0.0
H285 H 0.69824 0.41694 0.75263 0.0
C286 C 0.61304 0.84655 0.91087 0.0
C287 C 0.52665 0.83788 0.8597 0.0
C288 C 0.66793 0.8288 0.8047 0.0
C289 C 0.75564 0.83615 0.85573 0.0
N290 N 0.81325 0.84758 0.95824 0.0
N291 N 0.47398 0.8023 0.76301 0.0
C292 C 0.72842 0.84334 0.90921 0.0
C293 C 0.55462 0.82345 0.80806 0.0
N294 N 0.58385 0.85819 0.96087 0.0
N295 N 0.69327 0.82779 0.75268 0.0
H296 H 0.39065 0.79714 0.76463 0.0
H297 H 0.49173 0.78548 0.72624 0.0
H298 H 0.77539 0.83275 0.74873 0.0
H299 H 0.63209 0.82765 0.71351 0.0
H300 H 0.64038 0.86129 1.00109 0.0
H301 H 0.50048 0.86446 0.9626 0.0
H302 H 0.80342 0.84252 0.9995 0.0
H303 H 0.89445 0.85751 0.95697 0.0
C304 C 0.09429 0.71697 0.3862 0.0
C305 C 0.0226 0.68301 0.34414 0.0
C306 C 0.18662 0.6461 0.31366 0.0
C307 C 0.25695 0.68321 0.35264 0.0
N308 N 0.27656 0.76128 0.41848 0.0
N309 N 0.99769 0.62377 0.2596 0.0
C310 C 0.21021 0.72074 0.38682 0.0
C311 C 0.06793 0.65005 0.30546 0.0
N312 N 0.05149 0.74579 0.42533 0.0
N313 N 0.23313 0.60544 0.28612 0.0
H314 H 0.91026 0.62408 0.25205 0.0
H315 H 0.02559 0.60533 0.22632 0.0
H316 H 0.31936 0.60234 0.28935 0.0
H317 H 0.18719 0.57238 0.26329 0.0
H318 H 0.10145 0.76658 0.46079 0.0
H319 H 0.96643 0.74496 0.42524 0.0
H320 H 0.24619 0.79334 0.44034 0.0
H321 H 0.36073 0.76611 0.41822 0.0
C322 C 0.32192 0.22195 0.14605 0.0
C323 C 0.2695 0.18995 0.18114 0.0
C324 C 0.45434 0.14783 0.22921 0.0
C325 C 0.5076 0.18293 0.19632 0.0
N326 N 0.49144 0.26756 0.13855 0.0
N327 N 0.2873 0.12766 0.26179 0.0
C328 C 0.44153 0.22417 0.15913 0.0
C329 C 0.33596 0.15379 0.22397 0.0
N330 N 0.25674 0.25042 0.09973 0.0
N331 N 0.51803 0.10963 0.26673 0.0
H332 H 0.20076 0.12955 0.25828 0.0
H333 H 0.33286 0.10648 0.29847 0.0
H334 H 0.60593 0.1103 0.27835 0.0
H335 H 0.4843 0.07709 0.28551 0.0
H336 H 0.28965 0.26953 0.06888 0.0
H337 H 0.16887 0.24964 0.08892 0.0
H338 H 0.44592 0.30087 0.11483 0.0
H339 H 0.57717 0.27559 0.15211 0.0
C340 C 0.37305 0.03151 0.76838 0.0
C341 C 0.29727 0.07774 0.76909 0.0
C342 C 0.13996 1.01013 0.74734 0.0
C343 C 0.21643 0.96457 0.74485 0.0
N344 N 0.40501 0.93858 0.73827 0.0
N345 N 0.10328 0.11122 0.74575 0.0
C346 C 0.33139 0.97725 0.75025 0.0
C347 C 0.17909 0.0671 0.75527 0.0
N348 N 0.48731 0.03905 0.78448 0.0
N349 N 0.02876 0.99879 0.74192 0.0
H350 H 0.12668 0.15327 0.74996 0.0
H351 H 0.01668 0.10653 0.72902 0.0
H352 H 0.99459 0.95925 0.72963 0.0
H353 H 0.97168 0.02772 0.75175 0.0
H354 H 0.54508 1.00647 0.78346 0.0
H355 H 0.52427 0.07646 0.80236 0.0
H356 H 0.38134 0.89941 0.71991 0.0
H357 H 0.38134 0.89941 0.71991 0.0
C358 C 0.41803 0.51708 0.77982 0.0
C359 C 0.36026 0.48156 0.80928 0.0
C360 C 0.30166 0.5663 0.85313 0.0
C361 C 0.32183 0.60031 0.80816 0.0
N362 N 0.43022 0.60877 0.73764 0.0
N363 N 0.2582 0.47289 0.88112 0.0
C364 C 0.39125 0.57632 0.7747 0.0
C365 C 0.30745 0.50646 0.84908 0.0
N366 N 0.50145 0.49417 0.75881 0.0
N367 N 0.27978 0.59137 0.90028 0.0
H368 H 0.26639 0.42899 0.8806 0.0
H369 H 0.20653 0.48862 0.90599 0.0
H370 H 0.28463 0.63495 0.90645 0.0
H371 H 0.27142 0.56876 0.9359 0.0
H372 H 0.55855 0.51876 0.7449 0.0
H373 H 0.52128 0.45118 0.76286 0.0
H374 H 0.46929 0.59193 0.70757 0.0
H375 H 0.42552 0.65255 0.73745 0.0
C376 C 0.74913 0.97009 0.33119 0.0
C377 C 0.7545 0.93406 0.28391 0.0
C378 C 0.88625 1.00271 0.26289 0.0
C379 C 0.84452 0.04596 0.29378 0.0
N380 N 0.74976 0.06437 0.36917 0.0
N381 N 0.83984 0.91913 0.20446 0.0
C382 C 0.77925 0.02806 0.33126 0.0
C383 C 0.82722 0.95089 0.24982 0.0
N384 N 0.72865 0.9476 0.37955 0.0
N385 N 0.98618 1.00971 0.24899 0.0
H386 H 0.79183 0.88408 0.18897 0.0
H387 H 0.88973 0.93147 0.17785 0.0
H388 H 0.03666 0.0447 0.26262 0.0
H389 H 0.02557 0.97745 0.23147 0.0
H390 H 0.73235 0.97082 0.41681 0.0
H391 H 0.72705 0.90427 0.38597 0.0
H392 H 0.68742 0.05494 0.38988 0.0
H393 H 0.78703 0.10312 0.38064 0.0
C394 C 0.62816 0.43713 0.27125 0.0
C395 C 0.69506 0.41417 0.23601 0.0
C396 C 0.70205 0.50882 0.19474 0.0
C397 C 0.65043 0.53276 0.23552 0.0
N398 N 0.51538 0.51753 0.28908 0.0
N399 N 0.73317 0.42459 0.14319 0.0
C400 C 0.59751 0.49602 0.26627 0.0
C401 C 0.7111 0.44899 0.19061 0.0
N402 N 0.5963 0.40418 0.31033 0.0
N403 N 0.74751 0.54336 0.16189 0.0
H404 H 0.73205 0.38092 0.13741 0.0
H405 H 0.73853 0.44751 0.10722 0.0
H406 H 0.73716 0.58714 0.1626 0.0
H407 H 0.7984 0.5286 0.13618 0.0
H408 H 0.5581 0.42033 0.34104 0.0
H409 H 0.60775 0.36067 0.31228 0.0
H410 H 0.46203 0.49202 0.30479 0.0
H411 H 0.49303 0.56026 0.28513 0.0
loop_
_geom_bond_atom_site_label_1
_geom_bond_atom_site_label_2
_geom_bond_distance
_geom_bond_site_symmetry_2
_ccdc_geom_bond_type
C0 O12 1.241 . S
C0 O13 1.280 . S
C1 O14 1.277 . S
C1 O15 1.245 . S
C2 O26 1.247 . S
C2 O28 1.289 . S
Mg3 O4 1.926 . S
Mg3 O13 1.984 . S
Mg3 O15 1.988 . S
Mg3 O16 2.061 . S
O4 Mg3 1.926 . S
O4 Mg5 1.986 . S
O4 Mg6 1.917 . S
Mg5 O4 1.986 . S
Mg5 O12 2.042 . S
Mg5 O14 2.041 . S
Mg5 O20 2.038 . S
Mg5 O28 2.238 . S
Mg6 O4 1.917 . S
Mg6 O7 1.917 . S
Mg6 O17 2.106 . S
Mg6 O19 2.079 . S
Mg6 O28 2.106 . S
Mg6 O29 2.079 . S
O7 Mg6 1.917 . S
O7 Mg8 1.926 . S
O7 Mg9 1.986 . S
Mg8 O7 1.926 . S
Mg8 O22 1.984 . S
Mg8 O25 1.988 . S
Mg8 O26 2.061 . S
Mg9 O7 1.986 . S
Mg9 O17 2.238 . S
Mg9 O21 2.042 . S
Mg9 O23 2.041 . S
Mg9 O30 2.038 . S
C10 O16 1.247 . S
C10 O17 1.289 . S
C11 O29 1.245 . S
C11 O30 1.274 . S
O12 C0 1.241 . S
O12 Mg5 2.042 . S
O13 C0 1.280 . S
O13 Mg3 1.984 . S
O14 C1 1.277 . S
O14 Mg5 2.041 . S
O15 C1 1.245 . S
O15 Mg3 1.988 . S
O16 Mg3 2.061 . S
O16 C10 1.247 . S
O17 Mg6 2.106 . S
O17 Mg9 2.238 . S
O17 C10 1.289 . S
C18 O19 1.245 . S
C18 O20 1.274 . S
O19 Mg6 2.079 . S
O19 C18 1.245 . S
O20 Mg5 2.038 . S
O20 C18 1.274 . S
O21 Mg9 2.042 . S
O21 C24 1.241 . S
O22 Mg8 1.984 . S
O22 C24 1.280 . S
O23 Mg9 2.041 . S
O23 C27 1.277 . S
C24 O21 1.241 . S
C24 O22 1.280 . S
O25 Mg8 1.988 . S
O25 C27 1.245 . S
O26 C2 1.247 . S
O26 Mg8 2.061 . S
C27 O23 1.277 . S
C27 O25 1.245 . S
O28 C2 1.289 . S
O28 Mg5 2.238 . S
O28 Mg6 2.106 . S
O29 Mg6 2.079 . S
O29 C11 1.245 . S
O30 Mg9 2.038 . S
O30 C11 1.274 . S
C31 O43 1.241 . S
C31 O44 1.280 1_655 S
C32 O45 1.277 . S
C32 O46 1.245 . S
C33 O57 1.247 . S
C33 O59 1.289 . S
Mg34 O35 1.926 . S
Mg34 O44 1.984 . S
Mg34 O46 1.988 . S
Mg34 O47 2.061 . S
O35 Mg34 1.926 . S
O35 Mg36 1.986 . S
O35 Mg37 1.917 . S
Mg36 O35 1.986 . S
Mg36 O43 2.042 1_455 S
Mg36 O45 2.041 . S
Mg36 O51 2.038 1_455 S
Mg36 O59 2.238 . S
Mg37 O35 1.917 . S
Mg37 O38 1.917 . S
Mg37 O48 2.106 . S
Mg37 O50 2.079 . S
Mg37 O59 2.106 . S
Mg37 O60 2.079 . S
O38 Mg37 1.917 . S
O38 Mg39 1.926 . S
O38 Mg40 1.986 . S
Mg39 O38 1.926 . S
Mg39 O53 1.984 1_556 S
Mg39 O56 1.988 . S
Mg39 O57 2.061 . S
Mg40 O38 1.986 . S
Mg40 O48 2.238 . S
Mg40 O52 2.042 . S
Mg40 O54 2.041 . S
Mg40 O61 2.038 . S
C41 O47 1.247 . S
C41 O48 1.289 . S
C42 O60 1.245 . S
C42 O61 1.274 . S
O43 C31 1.241 . S
O43 Mg36 2.042 1_655 S
O44 C31 1.280 1_455 S
O44 Mg34 1.984 . S
O45 C32 1.277 . S
O45 Mg36 2.041 . S
O46 C32 1.245 . S
O46 Mg34 1.988 . S
O47 Mg34 2.061 . S
O47 C41 1.247 . S
O48 Mg37 2.106 . S
O48 Mg40 2.238 . S
O48 C41 1.289 . S
C49 O50 1.245 1_655 S
C49 O51 1.274 . S
O50 Mg37 2.079 . S
O50 C49 1.245 1_455 S
O51 Mg36 2.038 1_655 S
O51 C49 1.274 . S
O52 Mg40 2.042 . S
O52 C55 1.241 1_556 S
O53 Mg39 1.984 1_554 S
O53 C55 1.280 . S
O54 Mg40 2.041 . S
O54 C58 1.277 . S
C55 O52 1.241 1_554 S
C55 O53 1.280 . S
O56 Mg39 1.988 . S
O56 C58 1.245 . S
O57 C33 1.247 . S
O57 Mg39 2.061 . S
C58 O54 1.277 . S
C58 O56 1.245 . S
O59 C33 1.289 . S
O59 Mg36 2.238 . S
O59 Mg37 2.106 . S
O60 Mg37 2.079 . S
O60 C42 1.245 . S
O61 Mg40 2.038 . S
O61 C42 1.274 . S
C62 O74 1.241 . S
C62 O75 1.280 . S
C63 O76 1.277 . S
C63 O77 1.245 . S
C64 O88 1.247 . S
C64 O90 1.289 . S
Mg65 O66 1.926 . S
Mg65 O75 1.984 . S
Mg65 O77 1.988 . S
Mg65 O78 2.061 . S
O66 Mg65 1.926 . S
O66 Mg67 1.986 . S
O66 Mg68 1.917 . S
Mg67 O66 1.986 . S
Mg67 O74 2.042 . S
Mg67 O76 2.041 . S
Mg67 O82 2.038 . S
Mg67 O90 2.238 . S
Mg68 O66 1.917 . S
Mg68 O69 1.917 . S
Mg68 O79 2.106 . S
Mg68 O81 2.079 . S
Mg68 O90 2.106 . S
Mg68 O91 2.079 . S
O69 Mg68 1.917 . S
O69 Mg70 1.926 . S
O69 Mg71 1.986 . S
Mg70 O69 1.926 . S
Mg70 O84 1.984 . S
Mg70 O87 1.988 . S
Mg70 O88 2.061 . S
Mg71 O69 1.986 . S
Mg71 O79 2.238 . S
Mg71 O83 2.042 . S
Mg71 O85 2.041 . S
Mg71 O92 2.038 . S
C72 O78 1.247 . S
C72 O79 1.289 . S
C73 O91 1.245 . S
C73 O92 1.274 . S
O74 C62 1.241 . S
O74 Mg67 2.042 . S
O75 C62 1.280 . S
O75 Mg65 1.984 . S
O76 C63 1.277 . S
O76 Mg67 2.041 . S
O77 C63 1.245 . S
O77 Mg65 1.988 . S
O78 Mg65 2.061 . S
O78 C72 1.247 . S
O79 Mg68 2.106 . S
O79 Mg71 2.238 . S
O79 C72 1.289 . S
C80 O81 1.245 . S
C80 O82 1.274 . S
O81 Mg68 2.079 . S
O81 C80 1.245 . S
O82 Mg67 2.038 . S
O82 C80 1.274 . S
O83 Mg71 2.042 . S
O83 C86 1.241 . S
O84 Mg70 1.984 . S
O84 C86 1.280 . S
O85 Mg71 2.041 . S
O85 C89 1.277 . S
C86 O83 1.241 . S
C86 O84 1.280 . S
O87 Mg70 1.988 . S
O87 C89 1.245 . S
O88 C64 1.247 . S
O88 Mg70 2.061 . S
C89 O85 1.277 . S
C89 O87 1.245 . S
O90 C64 1.289 . S
O90 Mg67 2.238 . S
O90 Mg68 2.106 . S
O91 Mg68 2.079 . S
O91 C73 1.245 . S
O92 Mg71 2.038 . S
O92 C73 1.274 . S
C93 O105 1.241 1_556 S
C93 O106 1.280 . S
C94 O107 1.277 . S
C94 O108 1.245 . S
C95 O119 1.247 . S
C95 O121 1.289 . S
Mg96 O97 1.926 . S
Mg96 O106 1.984 1_554 S
Mg96 O108 1.988 . S
Mg96 O109 2.061 . S
O97 Mg96 1.926 . S
O97 Mg98 1.986 . S
O97 Mg99 1.917 . S
Mg98 O97 1.986 . S
Mg98 O105 2.042 . S
Mg98 O107 2.041 . S
Mg98 O113 2.038 . S
Mg98 O121 2.238 . S
Mg99 O97 1.917 . S
Mg99 O100 1.917 . S
Mg99 O110 2.106 . S
Mg99 O112 2.079 . S
Mg99 O121 2.106 . S
Mg99 O122 2.079 . S
O100 Mg99 1.917 . S
O100 Mg101 1.926 . S
O100 Mg102 1.986 . S
Mg101 O100 1.926 . S
Mg101 O115 1.984 . S
Mg101 O118 1.988 . S
Mg101 O119 2.061 . S
Mg102 O100 1.986 . S
Mg102 O110 2.238 . S
Mg102 O114 2.042 1_655 S
Mg102 O116 2.041 . S
Mg102 O123 2.038 1_655 S
C103 O109 1.247 . S
C103 O110 1.289 . S
C104 O122 1.245 1_455 S
C104 O123 1.274 . S
O105 C93 1.241 1_554 S
O105 Mg98 2.042 . S
O106 C93 1.280 . S
O106 Mg96 1.984 1_556 S
O107 C94 1.277 . S
O107 Mg98 2.041 . S
O108 C94 1.245 . S
O108 Mg96 1.988 . S
O109 Mg96 2.061 . S
O109 C103 1.247 . S
O110 Mg99 2.106 . S
O110 Mg102 2.238 . S
O110 C103 1.289 . S
C111 O112 1.245 . S
C111 O113 1.274 . S
O112 Mg99 2.079 . S
O112 C111 1.245 . S
O113 Mg98 2.038 . S
O113 C111 1.274 . S
O114 Mg102 2.042 1_455 S
O114 C117 1.241 . S
O115 Mg101 1.984 . S
O115 C117 1.280 1_655 S
O116 Mg102 2.041 . S
O116 C120 1.277 . S
C117 O114 1.241 . S
C117 O115 1.280 1_455 S
O118 Mg101 1.988 . S
O118 C120 1.245 . S
O119 C95 1.247 . S
O119 Mg101 2.061 . S
C120 O116 1.277 . S
C120 O118 1.245 . S
O121 C95 1.289 . S
O121 Mg98 2.238 . S
O121 Mg99 2.106 . S
O122 Mg99 2.079 . S
O122 C104 1.245 1_655 S
O123 Mg102 2.038 1_455 S
O123 C104 1.274 . S
C124 C125 1.363 . S
C124 C130 1.379 . S
C124 N132 1.356 . S
C125 C124 1.363 . S
C125 C131 1.363 1_655 S
C126 C127 1.363 . S
C126 C131 1.379 . S
C126 N133 1.356 . S
C127 C126 1.363 . S
C127 C130 1.363 1_455 S
N128 C130 1.356 . S
N128 H140 0.984 . S
N128 H141 0.985 . S
N129 C131 1.356 . S
N129 H134 0.984 . S
N129 H135 0.985 . S
C130 C124 1.379 . S
C130 C127 1.363 1_655 S
C130 N128 1.356 . S
C131 C125 1.363 1_455 S
C131 C126 1.379 . S
C131 N129 1.356 . S
N132 C124 1.356 . S
N132 H138 0.984 . S
N132 H139 0.984 . S
N133 C126 1.356 . S
N133 H136 0.984 . S
N133 H137 0.985 . S
H134 N129 0.984 . S
H135 N129 0.985 . S
H136 N133 0.984 . S
H137 N133 0.985 . S
H138 N132 0.984 . S
H139 N132 0.984 . S
H140 N128 0.984 . S
H141 N128 0.985 . S
C142 C143 1.363 . S
C142 C148 1.379 1_545 S
C142 N150 1.356 . S
C143 C142 1.363 . S
C143 C149 1.363 1_556 S
C144 C145 1.363 . S
C144 C149 1.379 1_565 S
C144 N151 1.356 . S
C145 C144 1.363 . S
C145 C148 1.363 1_554 S
N146 C148 1.356 . S
N146 H158 0.984 . S
N146 H159 0.985 . S
N147 C149 1.356 . S
N147 H152 0.984 . S
N147 H153 0.985 . S
C148 C142 1.379 1_565 S
C148 C145 1.363 1_556 S
C148 N146 1.356 . S
C149 C143 1.363 1_554 S
C149 C144 1.379 1_545 S
C149 N147 1.356 . S
N150 C142 1.356 . S
N150 H156 0.984 . S
N150 H157 0.984 . S
N151 C144 1.356 . S
N151 H154 0.984 . S
N151 H155 0.985 . S
H152 N147 0.984 . S
H153 N147 0.985 . S
H154 N151 0.984 . S
H155 N151 0.985 . S
H156 N150 0.984 . S
H157 N150 0.984 . S
H158 N146 0.984 . S
H159 N146 0.985 . S
C160 C161 1.363 . S
C160 C166 1.379 . S
C160 N168 1.356 . S
C161 C160 1.363 . S
C161 C167 1.363 . S
C162 C163 1.363 . S
C162 C167 1.379 . S
C162 N169 1.356 . S
C163 C162 1.363 . S
C163 C166 1.363 . S
N164 C166 1.356 . S
N164 H176 0.984 . S
N164 H177 0.985 . S
N165 C167 1.356 . S
N165 H170 0.984 . S
N165 H171 0.985 . S
C166 C160 1.379 . S
C166 C163 1.363 . S
C166 N164 1.356 . S
C167 C161 1.363 . S
C167 C162 1.379 . S
C167 N165 1.356 . S
N168 C160 1.356 . S
N168 H174 0.984 . S
N168 H175 0.984 . S
N169 C162 1.356 . S
N169 H172 0.984 . S
N169 H173 0.985 . S
H170 N165 0.984 . S
H171 N165 0.985 . S
H172 N169 0.984 . S
H173 N169 0.985 . S
H174 N168 0.984 . S
H175 N168 0.984 . S
H176 N164 0.984 . S
H177 N164 0.985 . S
C178 C179 1.363 1_545 S
C178 C184 1.379 1_554 S
C178 N186 1.356 . S
C179 C178 1.363 1_565 S
C179 C185 1.363 1_655 S
C180 C181 1.363 1_565 S
C180 C185 1.379 1_556 S
C180 N187 1.356 . S
C181 C180 1.363 1_545 S
C181 C184 1.363 1_455 S
N182 C184 1.356 . S
N182 H194 0.984 . S
N182 H195 0.985 . S
N183 C185 1.356 . S
N183 H188 0.984 . S
N183 H189 0.985 . S
C184 C178 1.379 1_556 S
C184 C181 1.363 1_655 S
C184 N182 1.356 . S
C185 C179 1.363 1_455 S
C185 C180 1.379 1_554 S
C185 N183 1.356 . S
N186 C178 1.356 . S
N186 H192 0.984 . S
N186 H193 0.984 . S
N187 C180 1.356 . S
N187 H190 0.984 . S
N187 H191 0.985 . S
H188 N183 0.984 . S
H189 N183 0.985 . S
H190 N187 0.984 . S
H191 N187 0.985 . S
H192 N186 0.984 . S
H193 N186 0.984 . S
H194 N182 0.984 . S
H195 N182 0.985 . S
C196 C197 1.363 . S
C196 C202 1.379 . S
C196 N204 1.356 . S
C197 C196 1.363 . S
C197 C203 1.363 . S
C198 C199 1.363 . S
C198 C203 1.379 . S
C198 N205 1.356 . S
C199 C198 1.363 . S
C199 C202 1.363 . S
N200 C202 1.356 1_554 S
N200 H212 0.984 . S
N200 H213 0.985 . S
N201 C203 1.356 . S
N201 H206 0.984 . S
N201 H207 0.985 . S
C202 C196 1.379 . S
C202 C199 1.363 . S
C202 N200 1.356 1_556 S
C203 C197 1.363 . S
C203 C198 1.379 . S
C203 N201 1.356 . S
N204 C196 1.356 . S
N204 H210 0.984 . S
N204 H211 0.984 . S
N205 C198 1.356 . S
N205 H208 0.984 1_556 S
N205 H209 0.985 . S
H206 N201 0.984 . S
H207 N201 0.985 . S
H208 N205 0.984 1_554 S
H209 N205 0.985 . S
H210 N204 0.984 . S
H211 N204 0.984 . S
H212 N200 0.984 . S
H213 N200 0.985 . S
C214 C215 1.363 . S
C214 C220 1.379 . S
C214 N222 1.356 . S
C215 C214 1.363 . S
C215 C221 1.363 . S
C216 C217 1.363 . S
C216 C221 1.379 . S
C216 N223 1.356 . S
C217 C216 1.363 . S
C217 C220 1.363 . S
N218 C220 1.356 . S
N218 H230 0.984 1_655 S
N218 H231 0.985 . S
N219 C221 1.356 . S
N219 H224 0.984 . S
N219 H225 0.985 . S
C220 C214 1.379 . S
C220 C217 1.363 . S
C220 N218 1.356 . S
C221 C215 1.363 . S
C221 C216 1.379 . S
C221 N219 1.356 . S
N222 C214 1.356 . S
N222 H228 0.984 . S
N222 H229 0.984 . S
N223 C216 1.356 . S
N223 H226 0.984 . S
N223 H227 0.985 . S
H224 N219 0.984 . S
H225 N219 0.985 . S
H226 N223 0.984 . S
H227 N223 0.985 . S
H228 N222 0.984 . S
H229 N222 0.984 . S
H230 N218 0.984 1_455 S
H231 N218 0.985 . S
C232 C233 1.363 . S
C232 C238 1.379 . S
C232 N240 1.356 . S
C233 C232 1.363 . S
C233 C239 1.363 . S
C234 C235 1.363 . S
C234 C239 1.379 . S
C234 N241 1.356 . S
C235 C234 1.363 . S
C235 C238 1.363 . S
N236 C238 1.356 . S
N236 H248 0.984 . S
N236 H249 0.985 . S
N237 C239 1.356 1_556 S
N237 H242 0.984 . S
N237 H243 0.985 . S
C238 C232 1.379 . S
C238 C235 1.363 . S
C238 N236 1.356 . S
C239 C233 1.363 . S
C239 C234 1.379 . S
C239 N237 1.356 1_554 S
N240 C232 1.356 . S
N240 H246 0.984 . S
N240 H247 0.984 1_554 S
N241 C234 1.356 . S
N241 H244 0.984 . S
N241 H245 0.985 . S
H242 N237 0.984 . S
H243 N237 0.985 . S
H244 N241 0.984 . S
H245 N241 0.985 . S
H246 N240 0.984 . S
H247 N240 0.984 1_556 S
H248 N236 0.984 . S
H249 N236 0.985 . S
C250 C251 1.363 . S
C250 C256 1.379 . S
C250 N258 1.356 . S
C251 C250 1.363 . S
C251 C257 1.363 . S
C252 C253 1.363 . S
C252 C257 1.379 . S
C252 N259 1.356 . S
C253 C252 1.363 . S
C253 C256 1.363 . S
N254 C256 1.356 . S
N254 H266 0.984 . S
N254 H267 0.985 . S
N255 C257 1.356 . S
N255 H260 0.984 . S
N255 H261 0.985 . S
C256 C250 1.379 . S
C256 C253 1.363 . S
C256 N254 1.356 . S
C257 C251 1.363 . S
C257 C252 1.379 . S
C257 N255 1.356 . S
N258 C250 1.356 . S
N258 H264 0.984 . S
N258 H265 0.984 . S
N259 C252 1.356 . S
N259 H262 0.984 . S
N259 H263 0.985 . S
H260 N255 0.984 . S
H261 N255 0.985 . S
H262 N259 0.984 . S
H263 N259 0.985 . S
H264 N258 0.984 . S
H265 N258 0.984 . S
H266 N254 0.984 . S
H267 N254 0.985 . S
C268 C269 1.363 . S
C268 C274 1.379 . S
C268 N276 1.356 . S
C269 C268 1.363 . S
C269 C275 1.363 . S
C270 C271 1.363 . S
C270 C275 1.379 . S
C270 N277 1.356 . S
C271 C270 1.363 . S
C271 C274 1.363 . S
N272 C274 1.356 . S
N272 H284 0.984 . S
N272 H285 0.985 . S
N273 C275 1.356 . S
N273 H278 0.984 . S
N273 H279 0.985 . S
C274 C268 1.379 . S
C274 C271 1.363 . S
C274 N272 1.356 . S
C275 C269 1.363 . S
C275 C270 1.379 . S
C275 N273 1.356 . S
N276 C268 1.356 . S
N276 H282 0.984 . S
N276 H283 0.984 1_655 S
N277 C270 1.356 . S
N277 H280 0.984 . S
N277 H281 0.985 . S
H278 N273 0.984 . S
H279 N273 0.985 . S
H280 N277 0.984 . S
H281 N277 0.985 . S
H282 N276 0.984 . S
H283 N276 0.984 1_455 S
H284 N272 0.984 . S
H285 N272 0.985 . S
C286 C287 1.363 . S
C286 C292 1.379 . S
C286 N294 1.356 . S
C287 C286 1.363 . S
C287 C293 1.363 . S
C288 C289 1.363 . S
C288 C293 1.379 . S
C288 N295 1.356 . S
C289 C288 1.363 . S
C289 C292 1.363 . S
N290 C292 1.356 . S
N290 H302 0.984 . S
N290 H303 0.985 . S
N291 C293 1.356 . S
N291 H296 0.984 . S
N291 H297 0.985 . S
C292 C286 1.379 . S
C292 C289 1.363 . S
C292 N290 1.356 . S
C293 C287 1.363 . S
C293 C288 1.379 . S
C293 N291 1.356 . S
N294 C286 1.356 . S
N294 H300 0.984 . S
N294 H301 0.984 . S
N295 C288 1.356 . S
N295 H298 0.984 . S
N295 H299 0.985 . S
H296 N291 0.984 . S
H297 N291 0.985 . S
H298 N295 0.984 . S
H299 N295 0.985 . S
H300 N294 0.984 . S
H301 N294 0.984 . S
H302 N290 0.984 . S
H303 N290 0.985 . S
C304 C305 1.363 . S
C304 C310 1.379 . S
C304 N312 1.356 . S
C305 C304 1.363 . S
C305 C311 1.363 . S
C306 C307 1.363 . S
C306 C311 1.379 . S
C306 N313 1.356 . S
C307 C306 1.363 . S
C307 C310 1.363 . S
N308 C310 1.356 . S
N308 H320 0.984 . S
N308 H321 0.985 . S
N309 C311 1.356 . S
N309 H314 0.984 . S
N309 H315 0.985 . S
C310 C304 1.379 . S
C310 C307 1.363 . S
C310 N308 1.356 . S
C311 C305 1.363 . S
C311 C306 1.379 . S
C311 N309 1.356 . S
N312 C304 1.356 . S
N312 H318 0.984 . S
N312 H319 0.984 1_455 S
N313 C306 1.356 . S
N313 H316 0.984 . S
N313 H317 0.985 . S
H314 N309 0.984 . S
H315 N309 0.985 . S
H316 N313 0.984 . S
H317 N313 0.985 . S
H318 N312 0.984 . S
H319 N312 0.984 1_655 S
H320 N308 0.984 . S
H321 N308 0.985 . S
C322 C323 1.363 . S
C322 C328 1.379 . S
C322 N330 1.356 . S
C323 C322 1.363 . S
C323 C329 1.363 . S
C324 C325 1.363 . S
C324 C329 1.379 . S
C324 N331 1.356 . S
C325 C324 1.363 . S
C325 C328 1.363 . S
N326 C328 1.356 . S
N326 H338 0.984 . S
N326 H339 0.985 . S
N327 C329 1.356 . S
N327 H332 0.984 . S
N327 H333 0.985 . S
C328 C322 1.379 . S
C328 C325 1.363 . S
C328 N326 1.356 . S
C329 C323 1.363 . S
C329 C324 1.379 . S
C329 N327 1.356 . S
N330 C322 1.356 . S
N330 H336 0.984 . S
N330 H337 0.984 . S
N331 C324 1.356 . S
N331 H334 0.984 . S
N331 H335 0.985 . S
H332 N327 0.984 . S
H333 N327 0.985 . S
H334 N331 0.984 . S
H335 N331 0.985 . S
H336 N330 0.984 . S
H337 N330 0.984 . S
H338 N326 0.984 . S
H339 N326 0.985 . S
C340 C341 1.363 . S
C340 C346 1.379 . S
C340 N348 1.356 . S
C341 C340 1.363 . S
C341 C347 1.363 . S
C342 C343 1.363 . S
C342 C347 1.379 . S
C342 N349 1.344 1_545 S
C343 C342 1.363 . S
C343 C346 1.363 . S
N344 C346 1.356 1_565 S
N344 H356 0.984 . S
N344 H357 0.985 . S
N345 C347 1.356 . S
N345 H350 0.984 . S
N345 H351 0.985 1_455 S
C346 C340 1.379 . S
C346 C343 1.363 . S
C346 N344 1.356 1_545 S
C347 C341 1.363 . S
C347 C342 1.379 . S
C347 N345 1.356 . S
N348 C340 1.356 . S
N348 H354 0.984 . S
N348 H355 0.984 . S
N349 C342 1.344 1_565 S
N349 H352 1.002 . S
N349 H353 0.980 1_465 S
H350 N345 0.984 . S
H351 N345 0.985 1_655 S
H352 N349 1.002 . S
H353 N349 0.980 1_645 S
H354 N348 0.984 . S
H355 N348 0.984 . S
H356 N344 0.984 . S
H357 N344 0.985 . S
C358 C359 1.363 . S
C358 C364 1.379 . S
C358 N366 1.356 . S
C359 C358 1.363 . S
C359 C365 1.363 . S
C360 C361 1.363 . S
C360 C365 1.379 . S
C360 N367 1.356 . S
C361 C360 1.363 . S
C361 C364 1.363 . S
N362 C364 1.356 . S
N362 H374 0.984 . S
N362 H375 0.985 . S
N363 C365 1.356 . S
N363 H368 0.984 . S
N363 H369 0.985 . S
C364 C358 1.379 . S
C364 C361 1.363 . S
C364 N362 1.356 . S
C365 C359 1.363 . S
C365 C360 1.379 . S
C365 N363 1.356 . S
N366 C358 1.356 . S
N366 H372 0.984 . S
N366 H373 0.984 . S
N367 C360 1.356 . S
N367 H370 0.984 . S
N367 H371 0.985 . S
H368 N363 0.984 . S
H369 N363 0.985 . S
H370 N367 0.984 . S
H371 N367 0.985 . S
H372 N366 0.984 . S
H373 N366 0.984 . S
H374 N362 0.984 . S
H375 N362 0.985 . S
C376 C377 1.363 . S
C376 C382 1.379 . S
C376 N384 1.356 . S
C377 C376 1.363 . S
C377 C383 1.363 . S
C378 C379 1.363 . S
C378 C383 1.379 . S
C378 N385 1.356 1_565 S
C379 C378 1.363 . S
C379 C382 1.363 . S
N380 C382 1.356 1_545 S
N380 H392 0.988 . S
N380 H393 0.985 . S
N381 C383 1.356 . S
N381 H386 0.984 . S
N381 H387 0.985 1_655 S
C382 C376 1.379 . S
C382 C379 1.363 . S
C382 N380 1.356 1_565 S
C383 C377 1.363 . S
C383 C378 1.379 . S
C383 N381 1.356 . S
N384 C376 1.356 . S
N384 H390 0.984 . S
N384 H391 0.984 . S
N385 C378 1.356 1_545 S
N385 H388 0.984 . S
N385 H389 0.985 1_645 S
H386 N381 0.984 . S
H387 N381 0.985 1_455 S
H388 N385 0.984 . S
H389 N385 0.985 1_465 S
H390 N384 0.984 . S
H391 N384 0.984 . S
H392 N380 0.988 . S
H393 N380 0.985 . S
C394 C395 1.363 . S
C394 C400 1.379 . S
C394 N402 1.356 . S
C395 C394 1.363 . S
C395 C401 1.363 . S
C396 C397 1.363 . S
C396 C401 1.379 . S
C396 N403 1.356 . S
C397 C396 1.363 . S
C397 C400 1.363 . S
N398 C400 1.356 . S
N398 H410 0.984 . S
N398 H411 0.985 . S
N399 C401 1.356 . S
N399 H404 0.984 . S
N399 H405 0.985 . S
C400 C394 1.379 . S
C400 C397 1.363 . S
C400 N398 1.356 . S
C401 C395 1.363 . S
C401 C396 1.379 . S
C401 N399 1.356 . S
N402 C394 1.356 . S
N402 H408 0.984 . S
N402 H409 0.984 . S
N403 C396 1.356 . S
N403 H406 0.984 . S
N403 H407 0.985 . S
H404 N399 0.984 . S
H405 N399 0.985 . S
H406 N403 0.984 . S
H407 N403 0.985 . S
H408 N402 0.984 . S
H409 N402 0.984 . S
H410 N398 0.984 . S
H411 N398 0.985 . S
C125 C63 0.763 . S
C127 C27 0.763 . S
C143 C93 0.802 . S
C145 C55 0.802 . S
C161 C62 1.035 . S
C163 C24 1.035 . S
C179 C94 0.951 1_565 S
C181 C58 0.951 1_545 S
C197 C1 1.929 . S
C199 C103 1.692 1_556 S
C215 C64 2.066 . S
C217 C31 1.943 . S
C233 C33 1.692 1_554 S
C235 C89 1.929 . S
C251 C117 1.943 . S
C253 C10 2.066 . S
C269 C18 1.731 1_655 S
C271 C11 1.731 . S
C287 C42 1.729 . S
C289 C49 1.729 . S
C305 C73 1.731 1_455 S
C307 C80 1.731 . S
C323 C104 1.729 . S
C325 C111 1.729 . S
C341 C0 1.982 . S
C343 C41 2.090 1_545 S
C359 C2 1.665 . S
C361 C32 1.849 . S
C377 C86 1.982 . S
C379 C95 2.090 1_565 S
C395 C120 1.849 . S
C397 C72 1.665 . S
