# Generated by pormake.
# Topology wiv, (6)-cn, num edge types: 1
# Building blocks:
#     Node 0, Type 0, BuildingBlock: KUMJIN_clean_sbu_0, # of connection points: 6
#     Node 1, Type 0, BuildingBlock: KUMJIN_clean_sbu_0, # of connection points: 6
#     Node 2, Type 0, BuildingBlock: KUMJIN_clean_sbu_0, # of connection points: 6
#     Node 3, Type 0, BuildingBlock: KUMJIN_clean_sbu_0, # of connection points: 6
#     Node 4, Type 0, BuildingBlock: KUMJIN_clean_sbu_0, # of connection points: 6
#     Node 5, Type 0, BuildingBlock: KUMJIN_clean_sbu_0, # of connection points: 6
#     Node 6, Type 0, BuildingBlock: KUMJIN_clean_sbu_0, # of connection points: 6
#     Node 7, Type 0, BuildingBlock: KUMJIN_clean_sbu_0, # of connection points: 6
#     Node 8, Type 0, BuildingBlock: KUMJIN_clean_sbu_0, # of connection points: 6
#     Node 9, Type 0, BuildingBlock: KUMJIN_clean_sbu_0, # of connection points: 6
#     Node 10, Type 0, BuildingBlock: KUMJIN_clean_sbu_0, # of connection points: 6
#     Node 11, Type 0, BuildingBlock: KUMJIN_clean_sbu_0, # of connection points: 6
#     Node 12, Type 0, BuildingBlock: KUMJIN_clean_sbu_0, # of connection points: 6
#     Node 13, Type 0, BuildingBlock: KUMJIN_clean_sbu_0, # of connection points: 6
#     Node 14, Type 0, BuildingBlock: KUMJIN_clean_sbu_0, # of connection points: 6
#     Node 15, Type 0, BuildingBlock: KUMJIN_clean_sbu_0, # of connection points: 6
#     Edge 16, Type (0, 0), BuildingBlock: OJICUG_clean_linker_0, # of connection points: 2
#     Edge 17, Type (0, 0), BuildingBlock: OJICUG_clean_linker_0, # of connection points: 2
#     Edge 18, Type (0, 0), BuildingBlock: OJICUG_clean_linker_0, # of connection points: 2
#     Edge 19, Type (0, 0), BuildingBlock: OJICUG_clean_linker_0, # of connection points: 2
#     Edge 20, Type (0, 0), BuildingBlock: OJICUG_clean_linker_0, # of connection points: 2
#     Edge 21, Type (0, 0), BuildingBlock: OJICUG_clean_linker_0, # of connection points: 2
#     Edge 22, Type (0, 0), BuildingBlock: OJICUG_clean_linker_0, # of connection points: 2
#     Edge 23, Type (0, 0), BuildingBlock: OJICUG_clean_linker_0, # of connection points: 2
#     Edge 24, Type (0, 0), BuildingBlock: OJICUG_clean_linker_0, # of connection points: 2
#     Edge 25, Type (0, 0), BuildingBlock: OJICUG_clean_linker_0, # of connection points: 2
#     Edge 26, Type (0, 0), BuildingBlock: OJICUG_clean_linker_0, # of connection points: 2
#     Edge 27, Type (0, 0), BuildingBlock: OJICUG_clean_linker_0, # of connection points: 2
#     Edge 28, Type (0, 0), BuildingBlock: OJICUG_clean_linker_0, # of connection points: 2
#     Edge 29, Type (0, 0), BuildingBlock: OJICUG_clean_linker_0, # of connection points: 2
#     Edge 30, Type (0, 0), BuildingBlock: OJICUG_clean_linker_0, # of connection points: 2
#     Edge 31, Type (0, 0), BuildingBlock: OJICUG_clean_linker_0, # of connection points: 2
#     Edge 32, Type (0, 0), BuildingBlock: OJICUG_clean_linker_0, # of connection points: 2
#     Edge 33, Type (0, 0), BuildingBlock: OJICUG_clean_linker_0, # of connection points: 2
#     Edge 34, Type (0, 0), BuildingBlock: OJICUG_clean_linker_0, # of connection points: 2
#     Edge 35, Type (0, 0), BuildingBlock: OJICUG_clean_linker_0, # of connection points: 2
#     Edge 36, Type (0, 0), BuildingBlock: OJICUG_clean_linker_0, # of connection points: 2
#     Edge 37, Type (0, 0), BuildingBlock: OJICUG_clean_linker_0, # of connection points: 2
#     Edge 38, Type (0, 0), BuildingBlock: OJICUG_clean_linker_0, # of connection points: 2
#     Edge 39, Type (0, 0), BuildingBlock: OJICUG_clean_linker_0, # of connection points: 2
#     Edge 40, Type (0, 0), BuildingBlock: OJICUG_clean_linker_0, # of connection points: 2
#     Edge 41, Type (0, 0), BuildingBlock: OJICUG_clean_linker_0, # of connection points: 2
#     Edge 42, Type (0, 0), BuildingBlock: OJICUG_clean_linker_0, # of connection points: 2
#     Edge 43, Type (0, 0), BuildingBlock: OJICUG_clean_linker_0, # of connection points: 2
#     Edge 44, Type (0, 0), BuildingBlock: OJICUG_clean_linker_0, # of connection points: 2
#     Edge 45, Type (0, 0), BuildingBlock: OJICUG_clean_linker_0, # of connection points: 2
#     Edge 46, Type (0, 0), BuildingBlock: OJICUG_clean_linker_0, # of connection points: 2
#     Edge 47, Type (0, 0), BuildingBlock: OJICUG_clean_linker_0, # of connection points: 2
#     Edge 48, Type (0, 0), BuildingBlock: OJICUG_clean_linker_0, # of connection points: 2
#     Edge 49, Type (0, 0), BuildingBlock: OJICUG_clean_linker_0, # of connection points: 2
#     Edge 50, Type (0, 0), BuildingBlock: OJICUG_clean_linker_0, # of connection points: 2
#     Edge 51, Type (0, 0), BuildingBlock: OJICUG_clean_linker_0, # of connection points: 2
#     Edge 52, Type (0, 0), BuildingBlock: OJICUG_clean_linker_0, # of connection points: 2
#     Edge 53, Type (0, 0), BuildingBlock: OJICUG_clean_linker_0, # of connection points: 2
#     Edge 54, Type (0, 0), BuildingBlock: OJICUG_clean_linker_0, # of connection points: 2
#     Edge 55, Type (0, 0), BuildingBlock: OJICUG_clean_linker_0, # of connection points: 2
#     Edge 56, Type (0, 0), BuildingBlock: OJICUG_clean_linker_0, # of connection points: 2
#     Edge 57, Type (0, 0), BuildingBlock: OJICUG_clean_linker_0, # of connection points: 2
#     Edge 58, Type (0, 0), BuildingBlock: OJICUG_clean_linker_0, # of connection points: 2
#     Edge 59, Type (0, 0), BuildingBlock: OJICUG_clean_linker_0, # of connection points: 2
#     Edge 60, Type (0, 0), BuildingBlock: OJICUG_clean_linker_0, # of connection points: 2
#     Edge 61, Type (0, 0), BuildingBlock: OJICUG_clean_linker_0, # of connection points: 2
#     Edge 62, Type (0, 0), BuildingBlock: OJICUG_clean_linker_0, # of connection points: 2
#     Edge 63, Type (0, 0), BuildingBlock: OJICUG_clean_linker_0, # of connection points: 2
# Relax obj value: 0.160
# Max RMSD: 0.233
# Mean RMSD: 0.233
data_MOF--net-wiv--node1-KUMJIN_clean_sbu_0--edge1-OJICUG_clean_linker_0
_symmetry_space_group_name_H-M    P1
_symmetry_Int_Tables_number       1
_symmetry_cell_setting            triclinic
loop_
_symmetry_equiv_pos_as_xyz
'x, y, z'
_cell_length_a     35.963646
_cell_length_b     35.820737
_cell_length_c     20.478524
_cell_angle_alpha  89.998424
_cell_angle_beta   89.976074
_cell_angle_gamma 89.945166
loop_
_atom_site_label
_atom_site_type_symbol
_atom_site_fract_x
_atom_site_fract_y
_atom_site_fract_z
_atom_type_partial_charge
Eu0 Eu 0.30936 0.1059 0.17114 0.0
C1 C 0.45257 0.0759 0.03879 0.0
C2 C 0.48928 0.12277 0.09222 0.0
C3 C 0.51932 0.07665 0.02491 0.0
C4 C 0.45437 0.10926 0.07153 0.0
C5 C 0.48415 0.06391 0.00504 0.0
C6 C 0.52137 0.10289 0.07549 0.0
C7 C 0.44515 0.02085 0.94731 0.0
N8 N 0.41951 0.0585 0.03058 0.0
C9 C 0.41706 0.02765 0.99244 0.0
C10 C 0.47809 0.04138 0.95069 0.0
Eu11 Eu 0.36686 0.09393 0.05032 0.0
N12 N 0.42282 0.12936 0.07895 0.0
C13 C 0.42567 0.16471 0.10537 0.0
C14 C 0.49143 0.15733 0.12313 0.0
C15 C 0.45954 0.17892 0.12782 0.0
H16 H 0.39111 0.01257 0.98901 0.0
H17 H 0.46061 0.20599 0.15128 0.0
H18 H 0.54771 0.11108 0.09564 0.0
H19 H 0.44161 0.9997 0.91009 0.0
H20 H 0.40182 0.18042 0.11944 0.0
H21 H 0.20114 0.99355 0.16729 0.0
H22 H 0.51774 0.1684 0.1401 0.0
H23 H 0.30326 0.19861 0.22171 0.0
H24 H 0.26202 0.01956 0.14818 0.0
H25 H 0.25688 0.24592 0.24889 0.0
H26 H 0.54462 0.06637 0.00273 0.0
H27 H 0.14841 0.02847 0.2141 0.0
H28 H 0.11477 0.09973 0.26358 0.0
H29 H 0.49901 0.03768 0.91351 0.0
H30 H 0.12977 0.18069 0.26895 0.0
N31 N 0.24987 0.07458 0.18012 0.0
C32 C 0.24132 0.03794 0.1687 0.0
C33 C 0.17503 0.04205 0.20796 0.0
C34 C 0.17885 0.07934 0.2231 0.0
C35 C 0.20542 0.0225 0.18039 0.0
C36 C 0.22278 0.09729 0.20129 0.0
H37 H 0.18973 0.23601 0.24491 0.0
N38 N 0.26578 0.1565 0.19226 0.0
C39 C 0.24709 0.21939 0.23066 0.0
C40 C 0.23066 0.14547 0.19826 0.0
C41 C 0.27432 0.19142 0.21542 0.0
C42 C 0.20828 0.21407 0.22883 0.0
C43 C 0.19516 0.17823 0.22054 0.0
O44 O 0.32896 0.13096 0.25468 0.0
O45 O 0.37173 0.09316 0.15875 0.0
O46 O 0.3765 0.03978 0.11314 0.0
O47 O 0.32247 0.04204 0.17246 0.0
O48 O 0.3585 0.14292 0.20007 0.0
O49 O 0.29561 0.08196 0.26993 0.0
O50 O 0.3541 0.07041 0.95666 0.0
O51 O 0.30457 0.10668 0.05717 0.0
O52 O 0.29972 0.15692 0.10743 0.0
O53 O 0.35593 0.15721 0.05619 0.0
O54 O 0.31735 0.05685 0.01858 0.0
O55 O 0.38816 0.12029 0.96072 0.0
C56 C 0.38591 0.12011 0.19163 0.0
C57 C 0.31023 0.12487 0.35694 0.0
C58 C 0.29765 0.12534 0.47564 0.0
C59 C 0.30043 0.10484 0.41371 0.0
C60 C 0.27544 0.15721 0.45114 0.0
C61 C 0.31273 0.16423 0.36058 0.0
C62 C 0.29114 0.18096 0.40612 0.0
C63 C 0.35338 0.02385 0.1561 0.0
C64 C 0.31781 0.10674 0.29625 0.0
C65 C 0.15059 0.16143 0.25104 0.0
C66 C 0.14169 0.11069 0.24986 0.0
C67 C 0.29055 0.08113 0.01915 0.0
C68 C 0.39299 0.07988 0.86816 0.0
C69 C 0.40721 0.1053 0.82368 0.0
C70 C 0.41336 0.09298 0.7604 0.0
C71 C 0.42038 0.05499 0.74877 0.0
C72 C 0.39037 0.04181 0.85035 0.0
C73 C 0.4076 0.02906 0.79379 0.0
C74 C 0.32696 0.1756 0.07918 0.0
C75 C 0.37281 0.09478 0.92387 0.0
H76 H 0.30289 0.07485 0.41166 0.0
H77 H 0.25335 0.17051 0.47348 0.0
H78 H 0.32477 0.18178 0.32325 0.0
H79 H 0.28295 0.20996 0.40155 0.0
H80 H 0.40356 0.13499 0.8325 0.0
H81 H 0.42765 0.04526 0.70029 0.0
H82 H 0.37562 0.02174 0.88006 0.0
H83 H 0.40749 0.99966 0.78197 0.0
Eu84 Eu 0.09264 0.63573 0.95003 0.0
C85 C 0.14049 0.78485 0.81939 0.0
C86 C 0.07304 0.82501 0.76276 0.0
C87 C 0.15318 0.85942 0.74472 0.0
C88 C 0.09309 0.78683 0.80374 0.0
C89 C 0.1711 0.82111 0.79256 0.0
C90 C 0.10251 0.86233 0.7308 0.0
C91 C 0.21719 0.77521 0.80791 0.0
N92 N 0.15394 0.75123 0.83425 0.0
C93 C 0.19066 0.74609 0.81833 0.0
C94 C 0.20805 0.81266 0.79798 0.0
Eu95 Eu 0.10744 0.7005 0.8385 0.0
N96 N 0.07207 0.75855 0.82533 0.0
C97 C 0.03438 0.76433 0.82795 0.0
C98 C 0.03491 0.82606 0.76975 0.0
C99 C 0.01656 0.79678 0.80262 0.0
H100 H 0.19919 0.71831 0.8053 0.0
H101 H 0.98675 0.79917 0.80896 0.0
H102 H 0.0914 0.88689 0.70844 0.0
H103 H 0.2456 0.76788 0.79757 0.0
H104 H 0.01662 0.74446 0.85201 0.0
H105 H 0.20698 0.54575 0.84595 0.0
H106 H 0.0196 0.85052 0.75571 0.0
H107 H 0.0087 0.60947 0.99271 0.0
H108 H 0.17679 0.60398 0.86882 0.0
H109 H 0.99088 0.55865 0.06558 0.0
H110 H 0.1717 0.88038 0.72504 0.0
H111 H 0.1762 0.48667 0.87249 0.0
H112 H 0.12433 0.45354 0.92974 0.0
H113 H 0.22901 0.83241 0.78242 0.0
H114 H 0.07093 0.45806 0.00499 0.0
N115 N 0.12868 0.58085 0.91629 0.0
C116 C 0.16321 0.57948 0.88686 0.0
C117 C 0.1629 0.51256 0.88553 0.0
C118 C 0.12865 0.51332 0.91711 0.0
C119 C 0.18044 0.54583 0.87094 0.0
C120 C 0.11143 0.54817 0.92942 0.0
H121 H 0.03417 0.50425 0.07724 0.0
N122 N 0.0576 0.5818 0.96061 0.0
C123 C 0.01363 0.55451 0.0319 0.0
C124 C 0.07677 0.5492 0.95755 0.0
C125 C 0.02391 0.58342 0.99062 0.0
C126 C 0.03665 0.52327 0.03675 0.0
C127 C 0.06409 0.51764 0.99068 0.0
O128 O 0.06647 0.64279 0.04327 0.0
O129 O 0.1065 0.69858 0.95169 0.0
O130 O 0.15816 0.70079 0.90614 0.0
O131 O 0.15549 0.64244 0.94952 0.0
O132 O 0.05637 0.68439 0.98834 0.0
O133 O 0.12028 0.6148 0.03803 0.0
O134 O 0.14252 0.69007 0.76048 0.0
O135 O 0.09308 0.63833 0.84212 0.0
O136 O 0.03973 0.63 0.88437 0.0
O137 O 0.04369 0.68732 0.83494 0.0
O138 O 0.14146 0.65154 0.79662 0.0
O139 O 0.08568 0.70871 0.73654 0.0
C140 C 0.08047 0.71125 0.99 0.0
C141 C 0.0817 0.60396 0.13005 0.0
C142 C 0.0952 0.59086 0.24134 0.0
C143 C 0.10785 0.59847 0.17876 0.0
C144 C 0.05925 0.57664 0.25089 0.0
C145 C 0.04397 0.59771 0.14361 0.0
C146 C 0.0335 0.58034 0.20098 0.0
C147 C 0.17528 0.67086 0.92968 0.0
C148 C 0.09304 0.6264 0.07507 0.0
C149 C 0.08128 0.48294 0.9812 0.0
C150 C 0.11186 0.48045 0.93943 0.0
C151 C 0.11822 0.62458 0.80473 0.0
C152 C 0.12986 0.69096 0.64993 0.0
C153 C 0.10697 0.70001 0.59598 0.0
C154 C 0.12446 0.70483 0.53152 0.0
C155 C 0.15503 0.7291 0.55258 0.0
C156 C 0.16866 0.69029 0.64073 0.0
C157 C 0.18179 0.71391 0.59361 0.0
C158 C 0.02447 0.65624 0.84671 0.0
C159 C 0.11707 0.69413 0.71616 0.0
H160 H 0.136 0.60884 0.17207 0.0
H161 H 0.04935 0.56949 0.29931 0.0
H162 H 0.02227 0.60856 0.11267 0.0
H163 H 0.00471 0.57461 0.20904 0.0
H164 H 0.07718 0.69751 0.602 0.0
H165 H 0.16206 0.75438 0.53028 0.0
H166 H 0.18795 0.68063 0.67769 0.0
H167 H 0.21024 0.72366 0.59416 0.0
Eu168 Eu 0.68586 0.89954 0.1696 0.0
C169 C 0.54061 0.93213 0.07168 0.0
C170 C 0.50521 0.87968 0.11319 0.0
C171 C 0.47311 0.93354 0.07172 0.0
C172 C 0.53933 0.89519 0.09184 0.0
C173 C 0.50732 0.94805 0.05086 0.0
C174 C 0.47269 0.90086 0.10885 0.0
C175 C 0.54362 0.99 0.9845 0.0
N176 N 0.57362 0.94888 0.05686 0.0
C177 C 0.57458 0.98068 0.0203 0.0
C178 C 0.51009 0.9721 0.99853 0.0
Eu179 Eu 0.62427 0.90929 0.0522 0.0
N180 N 0.5702 0.87376 0.08545 0.0
C181 C 0.56829 0.83654 0.1015 0.0
C182 C 0.504 0.84242 0.13251 0.0
C183 C 0.53554 0.82056 0.12516 0.0
H184 H 0.60101 0.99304 0.00716 0.0
H185 H 0.53509 0.79163 0.14001 0.0
H186 H 0.44675 0.88998 0.12754 0.0
H187 H 0.54728 0.00744 0.9421 0.0
H188 H 0.59241 0.81969 0.10469 0.0
H189 H 0.78888 0.01674 0.17998 0.0
H190 H 0.47854 0.82989 0.15032 0.0
H191 H 0.69355 0.80701 0.22009 0.0
H192 H 0.72993 0.98873 0.15594 0.0
H193 H 0.74077 0.76048 0.24541 0.0
H194 H 0.44717 0.94677 0.05795 0.0
H195 H 0.84475 0.98201 0.21102 0.0
H196 H 0.88406 0.90678 0.2338 0.0
H197 H 0.48856 0.97097 0.96289 0.0
H198 H 0.86963 0.82799 0.24535 0.0
N199 N 0.74467 0.93243 0.17707 0.0
C200 C 0.75153 0.97002 0.17195 0.0
C201 C 0.8189 0.96727 0.20527 0.0
C202 C 0.81743 0.92879 0.21151 0.0
C203 C 0.78661 0.9868 0.18596 0.0
C204 C 0.77278 0.90991 0.19405 0.0
H205 H 0.808 0.77141 0.23659 0.0
N206 N 0.73006 0.8504 0.19226 0.0
C207 C 0.74999 0.78745 0.22818 0.0
C208 C 0.765 0.86191 0.19519 0.0
C209 C 0.7223 0.81521 0.21505 0.0
C210 C 0.78863 0.79326 0.22343 0.0
C211 C 0.80081 0.82941 0.21442 0.0
O212 O 0.66785 0.87195 0.25354 0.0
O213 O 0.62338 0.90921 0.15908 0.0
O214 O 0.61651 0.96203 0.12083 0.0
O215 O 0.67208 0.96274 0.17398 0.0
O216 O 0.63886 0.85922 0.19721 0.0
O217 O 0.69533 0.92379 0.27058 0.0
O218 O 0.61753 0.93212 0.95479 0.0
O219 O 0.68797 0.90035 0.0514 0.0
O220 O 0.69843 0.85006 0.1041 0.0
O221 O 0.64137 0.84704 0.05548 0.0
O222 O 0.66874 0.94469 0.99942 0.0
O223 O 0.59143 0.87869 0.98001 0.0
C224 C 0.61078 0.88126 0.19044 0.0
C225 C 0.68161 0.88004 0.35927 0.0
C226 C 0.70402 0.8809 0.47536 0.0
C227 C 0.68721 0.90007 0.41853 0.0
C228 C 0.73147 0.85878 0.43957 0.0
C229 C 0.6889 0.84142 0.36086 0.0
C230 C 0.71796 0.83092 0.39913 0.0
C231 C 0.64008 0.97941 0.16091 0.0
C232 C 0.67473 0.89728 0.29604 0.0
C233 C 0.84738 0.84705 0.23304 0.0
C234 C 0.85591 0.89703 0.2297 0.0
C235 C 0.69841 0.92454 0.00605 0.0
C236 C 0.58175 0.903 0.87328 0.0
C237 C 0.60571 0.88495 0.83099 0.0
C238 C 0.60324 0.89246 0.76484 0.0
C239 C 0.57595 0.91669 0.74029 0.0
C240 C 0.55352 0.92631 0.84955 0.0
C241 C 0.55101 0.93349 0.78301 0.0
C242 C 0.67203 0.83023 0.07586 0.0
C243 C 0.59292 0.9069 0.93994 0.0
H244 H 0.67559 0.92755 0.42142 0.0
H245 H 0.7603 0.85993 0.44878 0.0
H246 H 0.67907 0.82196 0.32458 0.0
H247 H 0.73293 0.80527 0.38957 0.0
H248 H 0.62899 0.86891 0.84998 0.0
H249 H 0.5755 0.92425 0.68903 0.0
H250 H 0.53536 0.94115 0.88248 0.0
H251 H 0.53167 0.95407 0.76544 0.0
Eu252 Eu 0.90924 0.37137 0.95094 0.0
C253 C 0.86131 0.22734 0.81422 0.0
C254 C 0.92927 0.17994 0.77686 0.0
C255 C 0.84895 0.14746 0.75584 0.0
C256 C 0.90918 0.22226 0.80679 0.0
C257 C 0.83002 0.19121 0.78903 0.0
C258 C 0.89919 0.14132 0.75283 0.0
C259 C 0.78674 0.24094 0.78257 0.0
N260 N 0.84876 0.26217 0.82062 0.0
C261 C 0.81382 0.26913 0.79652 0.0
C262 C 0.79358 0.2024 0.78372 0.0
Eu263 Eu 0.89674 0.30947 0.83404 0.0
N264 N 0.93097 0.25088 0.82383 0.0
C265 C 0.96873 0.24473 0.82517 0.0
C266 C 0.96756 0.17967 0.77853 0.0
C267 C 0.98625 0.21117 0.80356 0.0
H268 H 0.80667 0.29761 0.7847 0.0
H269 H 0.01621 0.20954 0.80764 0.0
H270 H 0.91106 0.11551 0.73501 0.0
H271 H 0.76034 0.24947 0.76262 0.0
H272 H 0.98707 0.26524 0.84541 0.0
H273 H 0.7996 0.4664 0.84824 0.0
H274 H 0.98275 0.15488 0.76465 0.0
H275 H 0.99376 0.39418 0.9986 0.0
H276 H 0.82713 0.40715 0.87201 0.0
H277 H 0.01472 0.44459 0.07029 0.0
H278 H 0.83059 0.12592 0.73776 0.0
H279 H 0.83362 0.52382 0.87343 0.0
H280 H 0.8849 0.55467 0.93541 0.0
H281 H 0.77253 0.18298 0.76736 0.0
H282 H 0.93587 0.54778 0.0146 0.0
N283 N 0.87539 0.42793 0.92109 0.0
C284 C 0.84102 0.43083 0.89179 0.0
C285 C 0.8449 0.49749 0.88868 0.0
C286 C 0.87838 0.49525 0.9223 0.0
C287 C 0.82565 0.46515 0.87467 0.0
C288 C 0.89378 0.45974 0.93547 0.0
H289 H 0.97319 0.5001 0.08489 0.0
N290 N 0.94584 0.42385 0.96751 0.0
C291 C 0.99137 0.44936 0.03805 0.0
C292 C 0.92791 0.45714 0.96508 0.0
C293 C 0.97952 0.42079 0.99721 0.0
C294 C 0.96909 0.48114 0.04464 0.0
C295 C 0.94148 0.48797 0.99918 0.0
O296 O 0.93165 0.36324 0.04691 0.0
O297 O 0.89698 0.30834 0.9482 0.0
O298 O 0.84588 0.30395 0.89925 0.0
O299 O 0.84649 0.36243 0.94216 0.0
O300 O 0.94628 0.32313 0.988 0.0
O301 O 0.87778 0.3905 0.03626 0.0
O302 O 0.86796 0.32614 0.75061 0.0
O303 O 0.90971 0.37192 0.84293 0.0
O304 O 0.9624 0.37922 0.8864 0.0
O305 O 0.95997 0.32212 0.83667 0.0
O306 O 0.86122 0.35862 0.79803 0.0
O307 O 0.92069 0.2983 0.73519 0.0
C308 C 0.92278 0.2957 0.98732 0.0
C309 C 0.91309 0.40189 0.13174 0.0
C310 C 0.89812 0.41412 0.24266 0.0
C311 C 0.8863 0.40551 0.17994 0.0
C312 C 0.93244 0.43211 0.25199 0.0
C313 C 0.95012 0.41091 0.14617 0.0
C314 C 0.95867 0.43028 0.20255 0.0
C315 C 0.82769 0.33318 0.92234 0.0
C316 C 0.90375 0.37902 0.0761 0.0
C317 C 0.92551 0.52335 0.9897 0.0
C318 C 0.89607 0.52729 0.94581 0.0
C319 C 0.88384 0.386 0.80775 0.0
C320 C 0.8778 0.30843 0.64674 0.0
C321 C 0.90026 0.29875 0.59274 0.0
C322 C 0.88194 0.29402 0.52924 0.0
C323 C 0.85282 0.26853 0.55148 0.0
C324 C 0.83873 0.30736 0.6392 0.0
C325 C 0.82582 0.28301 0.59305 0.0
C326 C 0.97838 0.3534 0.84884 0.0
C327 C 0.89345 0.3175 0.709 0.0
H328 H 0.85913 0.39288 0.17297 0.0
H329 H 0.94152 0.44067 0.30017 0.0
H330 H 0.97279 0.40016 0.11766 0.0
H331 H 0.9867 0.43917 0.21059 0.0
H332 H 0.92992 0.30311 0.59698 0.0
H333 H 0.84806 0.24201 0.5315 0.0
H334 H 0.81932 0.31786 0.67518 0.0
H335 H 0.79776 0.27227 0.59519 0.0
Eu336 Eu 0.31579 0.39993 0.08216 0.0
C337 C 0.46319 0.42693 0.1698 0.0
C338 C 0.49357 0.37215 0.12535 0.0
C339 C 0.53016 0.4258 0.15361 0.0
C340 C 0.46172 0.38972 0.15256 0.0
C341 C 0.49858 0.44112 0.18349 0.0
C342 C 0.5268 0.39228 0.11941 0.0
C343 C 0.46937 0.4788 0.2659 0.0
N344 N 0.43217 0.44443 0.19311 0.0
C345 C 0.43558 0.47363 0.23508 0.0
C346 C 0.50139 0.46281 0.239 0.0
Eu347 Eu 0.37863 0.40837 0.20105 0.0
N348 N 0.43177 0.36959 0.17207 0.0
C349 C 0.4346 0.33128 0.17269 0.0
C350 C 0.49275 0.33379 0.11396 0.0
C351 C 0.46362 0.31306 0.14006 0.0
H352 H 0.41111 0.48715 0.25473 0.0
H353 H 0.46444 0.28288 0.13809 0.0
H354 H 0.55134 0.3796 0.0981 0.0
H355 H 0.47034 0.49388 0.31163 0.0
H356 H 0.41518 0.31399 0.19888 0.0
H357 H 0.21032 0.51527 0.07265 0.0
H358 H 0.51635 0.3195 0.09247 0.0
H359 H 0.30895 0.30733 0.02739 0.0
H360 H 0.26977 0.48852 0.0949 0.0
H361 H 0.26209 0.26006 0.00445 0.0
H362 H 0.55741 0.43795 0.16115 0.0
H363 H 0.155 0.47948 0.0432 0.0
H364 H 0.11814 0.40566 0.01189 0.0
H365 H 0.5278 0.46424 0.26398 0.0
H366 H 0.13308 0.32606 0.00301 0.0
N367 N 0.25665 0.4319 0.0732 0.0
C368 C 0.24887 0.46938 0.07848 0.0
C369 C 0.18131 0.46532 0.04771 0.0
C370 C 0.18375 0.42709 0.03999 0.0
C371 C 0.21329 0.48543 0.06597 0.0
C372 C 0.22903 0.40886 0.05612 0.0
H373 H 0.19498 0.27008 0.01525 0.0
N374 N 0.27238 0.34977 0.05907 0.0
C375 C 0.25277 0.28672 0.02305 0.0
C376 C 0.23724 0.36091 0.05638 0.0
C377 C 0.28027 0.3148 0.03536 0.0
C378 C 0.2141 0.29209 0.02859 0.0
C379 C 0.20148 0.32808 0.03777 0.0
O380 O 0.33869 0.38124 0.99401 0.0
O381 O 0.37861 0.40769 0.09481 0.0
O382 O 0.38628 0.4619 0.1334 0.0
O383 O 0.32785 0.46287 0.09102 0.0
O384 O 0.36248 0.35921 0.0527 0.0
O385 O 0.30098 0.42607 0.98491 0.0
O386 O 0.38391 0.43127 0.29931 0.0
O387 O 0.3146 0.39934 0.2004 0.0
O388 O 0.30334 0.35008 0.14491 0.0
O389 O 0.36204 0.3466 0.18549 0.0
O390 O 0.33333 0.44269 0.25487 0.0
O391 O 0.4086 0.37667 0.27502 0.0
C392 C 0.39153 0.37907 0.06541 0.0
C393 C 0.3174 0.38636 0.89362 0.0
C394 C 0.29782 0.38449 0.77621 0.0
C395 C 0.31126 0.40544 0.83387 0.0
C396 C 0.27225 0.35957 0.81013 0.0
C397 C 0.3134 0.34715 0.89312 0.0
C398 C 0.28717 0.33334 0.85205 0.0
C399 C 0.36054 0.47927 0.09727 0.0
C400 C 0.32525 0.40498 0.95475 0.0
C401 C 0.15483 0.34525 0.01712 0.0
C402 C 0.14582 0.39517 0.02103 0.0
C403 C 0.30358 0.42285 0.24651 0.0
C404 C 0.42241 0.40239 0.3793 0.0
C405 C 0.39923 0.38848 0.42683 0.0
C406 C 0.40355 0.40063 0.49036 0.0
C407 C 0.43164 0.42594 0.50728 0.0
C408 C 0.45286 0.42467 0.39597 0.0
C409 C 0.45659 0.43772 0.45954 0.0
C410 C 0.33131 0.32982 0.16613 0.0
C411 C 0.40671 0.40455 0.31533 0.0
H412 H 0.32142 0.43363 0.83133 0.0
H413 H 0.24345 0.35942 0.80174 0.0
H414 H 0.32421 0.32898 0.93046 0.0
H415 H 0.27409 0.30669 0.86169 0.0
H416 H 0.37487 0.37225 0.4132 0.0
H417 H 0.43339 0.43723 0.55629 0.0
H418 H 0.47232 0.43374 0.35964 0.0
H419 H 0.47744 0.45847 0.47031 0.0
Eu420 Eu 0.40908 0.6305 0.79974 0.0
C421 C 0.3612 0.78424 0.92782 0.0
C422 C 0.42804 0.82316 0.98959 0.0
C423 C 0.34805 0.85862 0.00295 0.0
C424 C 0.40834 0.78537 0.94671 0.0
C425 C 0.33063 0.82092 0.95329 0.0
C426 C 0.39832 0.86072 0.02028 0.0
C427 C 0.28419 0.77584 0.93544 0.0
N428 N 0.34747 0.75082 0.91192 0.0
C429 C 0.31034 0.74633 0.92509 0.0
C430 C 0.29368 0.81308 0.94611 0.0
Eu431 Eu 0.39308 0.69908 0.91317 0.0
N432 N 0.42939 0.75677 0.9268 0.0
C433 C 0.4672 0.76238 0.92649 0.0
C434 C 0.46627 0.82345 0.98673 0.0
C435 C 0.4849 0.79419 0.95436 0.0
H436 H 0.3021 0.71914 0.94157 0.0
H437 H 0.51487 0.79606 0.95047 0.0
H438 H 0.4095 0.88488 0.04419 0.0
H439 H 0.25589 0.76908 0.94717 0.0
H440 H 0.48535 0.74298 0.90225 0.0
H441 H 0.28301 0.54105 0.81021 0.0
H442 H 0.48158 0.84729 0.00384 0.0
H443 H 0.49777 0.59906 0.7866 0.0
H444 H 0.31979 0.59168 0.7632 0.0
H445 H 0.5334 0.54834 0.83716 0.0
H446 H 0.32936 0.87966 0.02199 0.0
H447 H 0.31387 0.49064 0.87145 0.0
H448 H 0.37414 0.45655 0.8928 0.0
H449 H 0.27282 0.83296 0.96171 0.0
H450 H 0.44226 0.45609 0.88995 0.0
N451 N 0.37084 0.57499 0.80988 0.0
C452 C 0.334 0.571 0.79255 0.0
C453 C 0.33036 0.51319 0.85175 0.0
C454 C 0.36915 0.51286 0.85525 0.0
C455 C 0.31279 0.54178 0.81785 0.0
C456 C 0.38888 0.54485 0.83449 0.0
H457 H 0.50198 0.49055 0.87294 0.0
N458 N 0.44561 0.5759 0.81443 0.0
C459 C 0.50382 0.54557 0.83177 0.0
C460 C 0.42732 0.54501 0.83535 0.0
C461 C 0.4833 0.57484 0.80541 0.0
C462 C 0.48576 0.51388 0.85494 0.0
C463 C 0.44699 0.51282 0.85489 0.0
O464 O 0.44149 0.62401 0.71247 0.0
O465 O 0.39481 0.69359 0.79858 0.0
O466 O 0.34405 0.69917 0.84418 0.0
O467 O 0.34733 0.63745 0.82564 0.0
O468 O 0.44305 0.67872 0.75478 0.0
O469 O 0.38044 0.61883 0.70862 0.0
O470 O 0.35886 0.68545 0.99314 0.0
O471 O 0.40612 0.63634 0.90571 0.0
O472 O 0.45839 0.62841 0.87341 0.0
O473 O 0.45663 0.68728 0.915 0.0
O474 O 0.35952 0.6494 0.9562 0.0
O475 O 0.4135 0.7086 0.01488 0.0
C476 C 0.41956 0.70602 0.75735 0.0
C477 C 0.41603 0.58978 0.62615 0.0
C478 C 0.41645 0.59121 0.51009 0.0
C479 C 0.39989 0.60105 0.56846 0.0
C480 C 0.44348 0.56287 0.50845 0.0
C481 C 0.44375 0.56214 0.62642 0.0
C482 C 0.4564 0.54756 0.56706 0.0
C483 C 0.32693 0.66723 0.8344 0.0
C484 C 0.41208 0.61676 0.67755 0.0
C485 C 0.42752 0.48104 0.87538 0.0
C486 C 0.38869 0.4813 0.87678 0.0
C487 C 0.38074 0.62163 0.94113 0.0
C488 C 0.36858 0.69871 0.10229 0.0
C489 C 0.39151 0.70641 0.15664 0.0
C490 C 0.37507 0.70764 0.2229 0.0
C491 C 0.34146 0.72976 0.20852 0.0
C492 C 0.32989 0.69734 0.11133 0.0
C493 C 0.31589 0.71599 0.16412 0.0
C494 C 0.47472 0.6554 0.90689 0.0
C495 C 0.3837 0.69207 0.03764 0.0
H496 H 0.37865 0.62272 0.56905 0.0
H497 H 0.45605 0.55437 0.46272 0.0
H498 H 0.457 0.5538 0.67155 0.0
H499 H 0.47824 0.52676 0.56645 0.0
H500 H 0.42116 0.70395 0.14822 0.0
H501 H 0.33022 0.75071 0.23889 0.0
H502 H 0.31078 0.68851 0.0735 0.0
H503 H 0.28677 0.7236 0.16642 0.0
Eu504 Eu 0.68717 0.60107 0.07571 0.0
C505 C 0.53982 0.58243 0.16878 0.0
C506 C 0.50998 0.63825 0.12694 0.0
C507 C 0.47271 0.58538 0.15652 0.0
C508 C 0.54224 0.61952 0.15026 0.0
C509 C 0.50426 0.56982 0.18575 0.0
C510 C 0.4762 0.61894 0.12258 0.0
C511 C 0.53358 0.53391 0.27028 0.0
N512 N 0.57055 0.56413 0.19146 0.0
C513 C 0.56665 0.5361 0.23579 0.0
C514 C 0.50173 0.55039 0.24392 0.0
Eu515 Eu 0.62509 0.59871 0.19695 0.0
N516 N 0.57322 0.63877 0.16746 0.0
C517 C 0.57082 0.67707 0.17172 0.0
C518 C 0.51091 0.67687 0.11915 0.0
C519 C 0.54086 0.69646 0.14463 0.0
H520 H 0.59086 0.52161 0.25428 0.0
H521 H 0.54023 0.72659 0.14606 0.0
H522 H 0.4515 0.63242 0.10351 0.0
H523 H 0.53262 0.5192 0.31643 0.0
H524 H 0.59115 0.69355 0.19738 0.0
H525 H 0.79445 0.48856 0.06385 0.0
H526 H 0.48689 0.69204 0.10133 0.0
H527 H 0.69095 0.69422 0.01271 0.0
H528 H 0.73285 0.51299 0.07712 0.0
H529 H 0.73686 0.74275 0.99436 0.0
H530 H 0.44539 0.57372 0.16547 0.0
H531 H 0.84966 0.52675 0.0444 0.0
H532 H 0.88443 0.60164 0.01381 0.0
H533 H 0.47567 0.55021 0.2703 0.0
H534 H 0.86711 0.68042 0.00203 0.0
N535 N 0.74628 0.57062 0.06873 0.0
C536 C 0.75445 0.53318 0.06922 0.0
C537 C 0.82285 0.54002 0.04723 0.0
C538 C 0.81934 0.5782 0.03982 0.0
C539 C 0.79092 0.5185 0.06022 0.0
C540 C 0.77331 0.5949 0.0536 0.0
H541 H 0.80394 0.73443 0.01011 0.0
N542 N 0.72782 0.65307 0.04991 0.0
C543 C 0.74648 0.71634 0.01363 0.0
C544 C 0.76343 0.64298 0.0523 0.0
C545 C 0.71949 0.68756 0.02393 0.0
C546 C 0.78509 0.71204 0.02267 0.0
C547 C 0.79855 0.67658 0.03459 0.0
O548 O 0.656 0.57877 0.99058 0.0
O549 O 0.62489 0.59959 0.08916 0.0
O550 O 0.6155 0.5454 0.13105 0.0
O551 O 0.67602 0.53952 0.10244 0.0
O552 O 0.64539 0.64561 0.04274 0.0
O553 O 0.71255 0.59471 0.97898 0.0
O554 O 0.61992 0.57701 0.29627 0.0
O555 O 0.68976 0.60422 0.19429 0.0
O556 O 0.69946 0.6538 0.13264 0.0
O557 O 0.64287 0.65941 0.18082 0.0
O558 O 0.66897 0.5635 0.25248 0.0
O559 O 0.59636 0.63159 0.27133 0.0
C560 C 0.61516 0.62828 0.05655 0.0
C561 C 0.67403 0.60629 0.88958 0.0
C562 C 0.70019 0.62566 0.77952 0.0
C563 C 0.69041 0.59654 0.82802 0.0
C564 C 0.71641 0.65263 0.82535 0.0
C565 C 0.66734 0.64437 0.89893 0.0
C566 C 0.69338 0.66804 0.87244 0.0
C567 C 0.64203 0.5252 0.10244 0.0
C568 C 0.68259 0.58437 0.949 0.0
C569 C 0.84579 0.66069 0.01596 0.0
C570 C 0.85628 0.61121 0.02148 0.0
C571 C 0.69968 0.58146 0.24245 0.0
C572 C 0.58485 0.60823 0.37826 0.0
C573 C 0.60978 0.62308 0.42214 0.0
C574 C 0.60367 0.61829 0.48823 0.0
C575 C 0.57201 0.59959 0.51123 0.0
C576 C 0.55193 0.59126 0.40001 0.0
C577 C 0.54572 0.58663 0.46675 0.0
C578 C 0.67306 0.67492 0.15707 0.0
C579 C 0.5973 0.6039 0.31212 0.0
H580 H 0.69926 0.56805 0.8203 0.0
H581 H 0.7417 0.66696 0.81646 0.0
H582 H 0.64894 0.65503 0.93518 0.0
H583 H 0.69788 0.69586 0.89135 0.0
H584 H 0.6357 0.63521 0.40497 0.0
H585 H 0.5683 0.5942 0.5629 0.0
H586 H 0.53171 0.58067 0.36603 0.0
H587 H 0.52141 0.57187 0.48378 0.0
Eu588 Eu 0.59303 0.3725 0.79868 0.0
C589 C 0.64502 0.22383 0.93005 0.0
C590 C 0.57777 0.18267 0.98565 0.0
C591 C 0.65876 0.15099 0.00947 0.0
C592 C 0.59729 0.22057 0.94338 0.0
C593 C 0.67627 0.18878 0.95961 0.0
C594 C 0.60796 0.14697 0.02173 0.0
C595 C 0.72126 0.23591 0.94569 0.0
N596 N 0.65777 0.25793 0.91605 0.0
C597 C 0.69438 0.26423 0.93128 0.0
C598 C 0.71305 0.19827 0.95595 0.0
Eu599 Eu 0.60997 0.30727 0.91509 0.0
N600 N 0.57577 0.24901 0.92377 0.0
C601 C 0.53802 0.24389 0.92422 0.0
C602 C 0.53948 0.18223 0.98178 0.0
C603 C 0.52055 0.21165 0.95048 0.0
H604 H 0.70184 0.2924 0.94411 0.0
H605 H 0.49056 0.20984 0.94724 0.0
H606 H 0.59736 0.12316 0.0473 0.0
H607 H 0.7486 0.24425 0.96111 0.0
H608 H 0.51996 0.26452 0.90301 0.0
H609 H 0.69263 0.47607 0.90084 0.0
H610 H 0.52405 0.1587 0.99845 0.0
H611 H 0.50276 0.39137 0.76282 0.0
H612 H 0.66891 0.41477 0.87992 0.0
H613 H 0.46913 0.4435 0.70968 0.0
H614 H 0.67762 0.13117 0.03167 0.0
H615 H 0.65798 0.53061 0.86108 0.0
H616 H 0.60897 0.556 0.78902 0.0
H617 H 0.73415 0.17947 0.97436 0.0
H618 H 0.55531 0.54533 0.7163 0.0
N619 N 0.6217 0.43156 0.82446 0.0
C620 C 0.6545 0.43707 0.85735 0.0
C621 C 0.64867 0.5032 0.84834 0.0
C622 C 0.61703 0.49801 0.81038 0.0
C623 C 0.66793 0.47254 0.87121 0.0
C624 C 0.6031 0.46166 0.80163 0.0
H625 H 0.50128 0.50349 0.69026 0.0
N626 N 0.55198 0.42288 0.77864 0.0
C627 C 0.497 0.44769 0.72809 0.0
C628 C 0.56866 0.45666 0.77341 0.0
C629 C 0.51582 0.41851 0.75976 0.0
C630 C 0.51543 0.48129 0.71611 0.0
C631 C 0.55097 0.48672 0.74175 0.0
O632 O 0.57168 0.36153 0.70305 0.0
O633 O 0.60756 0.30974 0.80129 0.0
O634 O 0.65859 0.30688 0.84447 0.0
O635 O 0.65634 0.36723 0.81112 0.0
O636 O 0.55723 0.32285 0.76414 0.0
O637 O 0.62379 0.39187 0.7123 0.0
O638 O 0.64303 0.31967 0.99757 0.0
O639 O 0.59586 0.36922 0.90739 0.0
O640 O 0.54169 0.37913 0.86549 0.0
O641 O 0.54636 0.32242 0.91812 0.0
O642 O 0.64366 0.35623 0.95589 0.0
O643 O 0.58889 0.29417 0.0154 0.0
C644 C 0.58172 0.29621 0.76349 0.0
C645 C 0.5853 0.4028 0.62019 0.0
C646 C 0.59216 0.41664 0.50733 0.0
C647 C 0.60845 0.40707 0.56662 0.0
C648 C 0.55756 0.43487 0.50642 0.0
C649 C 0.54756 0.41234 0.6143 0.0
C650 C 0.53496 0.43226 0.56103 0.0
C651 C 0.67602 0.3378 0.82746 0.0
C652 C 0.59807 0.37919 0.67303 0.0
C653 C 0.56819 0.52185 0.74083 0.0
C654 C 0.59891 0.52809 0.78115 0.0
C655 C 0.62087 0.38326 0.94466 0.0
C656 C 0.63241 0.30382 0.10613 0.0
C657 C 0.60881 0.29464 0.15861 0.0
C658 C 0.62373 0.29546 0.22591 0.0
C659 C 0.65896 0.27473 0.21659 0.0
C660 C 0.67078 0.30675 0.11793 0.0
C661 C 0.68451 0.28878 0.17207 0.0
C662 C 0.52706 0.35337 0.9044 0.0
C663 C 0.61811 0.31064 0.04056 0.0
H664 H 0.63582 0.39421 0.56705 0.0
H665 H 0.54529 0.44408 0.46086 0.0
H666 H 0.52698 0.40114 0.64636 0.0
H667 H 0.50639 0.44113 0.5599 0.0
H668 H 0.57932 0.29501 0.14778 0.0
H669 H 0.67173 0.25752 0.25359 0.0
H670 H 0.69021 0.31652 0.08131 0.0
H671 H 0.71397 0.28319 0.1769 0.0
Eu672 Eu 0.81374 0.60235 0.67036 0.0
C673 C 0.95874 0.57981 0.58463 0.0
C674 C 0.99045 0.63654 0.6177 0.0
C675 C 0.02617 0.5822 0.59021 0.0
C676 C 0.95757 0.61777 0.59773 0.0
C677 C 0.99354 0.56589 0.56621 0.0
C678 C 0.024 0.61672 0.62161 0.0
C679 C 0.96113 0.52682 0.4897 0.0
N680 N 0.92721 0.56131 0.56607 0.0
C681 C 0.92965 0.53061 0.52712 0.0
C682 C 0.99366 0.5448 0.5096 0.0
Eu683 Eu 0.87491 0.59813 0.55103 0.0
N684 N 0.92741 0.63722 0.57695 0.0
C685 C 0.93121 0.67477 0.56585 0.0
C686 C 0.99029 0.67543 0.62106 0.0
C687 C 0.96114 0.6947 0.59185 0.0
H688 H 0.90464 0.51625 0.51188 0.0
H689 H 0.96277 0.72466 0.58568 0.0
H690 H 0.04934 0.63033 0.63739 0.0
H691 H 0.95909 0.51238 0.44367 0.0
H692 H 0.9123 0.6894 0.53407 0.0
H693 H 0.70483 0.49129 0.67479 0.0
H694 H 0.01451 0.69069 0.63747 0.0
H695 H 0.81169 0.69538 0.73367 0.0
H696 H 0.76659 0.51467 0.66276 0.0
H697 H 0.76632 0.74362 0.75678 0.0
H698 H 0.05309 0.57002 0.5795 0.0
H699 H 0.65042 0.53003 0.69598 0.0
H700 H 0.61652 0.60562 0.73066 0.0
H701 H 0.01743 0.54634 0.4778 0.0
H702 H 0.63521 0.68329 0.74719 0.0
N703 N 0.75433 0.57248 0.67539 0.0
C704 C 0.74554 0.53521 0.67254 0.0
C705 C 0.67739 0.54285 0.69529 0.0
C706 C 0.68147 0.58078 0.70541 0.0
C707 C 0.7089 0.52104 0.68076 0.0
C708 C 0.72771 0.59695 0.69176 0.0
H709 H 0.69901 0.73625 0.74213 0.0
N710 N 0.77399 0.65452 0.69789 0.0
C711 C 0.75626 0.71751 0.73703 0.0
C712 C 0.73826 0.64492 0.69526 0.0
C713 C 0.78294 0.68872 0.72431 0.0
C714 C 0.71758 0.71381 0.72836 0.0
C715 C 0.70368 0.67876 0.71474 0.0
O716 O 0.84514 0.57987 0.75489 0.0
O717 O 0.87604 0.60077 0.65847 0.0
O718 O 0.88441 0.54789 0.62371 0.0
O719 O 0.82399 0.54034 0.64628 0.0
O720 O 0.85552 0.64763 0.70159 0.0
O721 O 0.78842 0.59542 0.767 0.0
O722 O 0.8819 0.57137 0.45612 0.0
O723 O 0.81042 0.60474 0.55188 0.0
O724 O 0.80148 0.65511 0.61325 0.0
O725 O 0.8575 0.6597 0.56166 0.0
O726 O 0.83084 0.56288 0.49603 0.0
O727 O 0.90573 0.62638 0.4736 0.0
C728 C 0.88585 0.63002 0.68938 0.0
C729 C 0.82714 0.60629 0.85628 0.0
C730 C 0.80147 0.62443 0.96739 0.0
C731 C 0.81114 0.5959 0.91769 0.0
C732 C 0.7856 0.65234 0.92278 0.0
C733 C 0.83399 0.64435 0.84769 0.0
C734 C 0.80853 0.66802 0.87586 0.0
C735 C 0.85803 0.52658 0.64901 0.0
C736 C 0.81851 0.58491 0.79656 0.0
C737 C 0.6563 0.66338 0.7328 0.0
C738 C 0.64505 0.61424 0.72524 0.0
C739 C 0.80044 0.58164 0.5044 0.0
C740 C 0.91551 0.59896 0.36979 0.0
C741 C 0.89192 0.61751 0.32762 0.0
C742 C 0.8943 0.61007 0.26142 0.0
C743 C 0.92031 0.58434 0.23704 0.0
C744 C 0.94318 0.57508 0.34585 0.0
C745 C 0.94445 0.56649 0.27987 0.0
C746 C 0.82732 0.67562 0.58551 0.0
C747 C 0.90547 0.5967 0.43735 0.0
H748 H 0.80318 0.56716 0.92476 0.0
H749 H 0.76043 0.6668 0.93208 0.0
H750 H 0.8516 0.65507 0.8103 0.0
H751 H 0.80398 0.69599 0.85759 0.0
H752 H 0.86927 0.63442 0.34666 0.0
H753 H 0.92037 0.57657 0.18587 0.0
H754 H 0.96235 0.56135 0.37806 0.0
H755 H 0.96271 0.54455 0.2629 0.0
Eu756 Eu 0.59327 0.13561 0.46194 0.0
C757 C 0.62576 0.28071 0.33496 0.0
C758 C 0.56513 0.31784 0.25588 0.0
C759 C 0.64587 0.3524 0.25677 0.0
C760 C 0.58101 0.28184 0.30616 0.0
C761 C 0.65869 0.31616 0.31495 0.0
C762 C 0.59725 0.35356 0.22665 0.0
C763 C 0.69708 0.27898 0.38333 0.0
N764 N 0.6355 0.25021 0.36723 0.0
C765 C 0.66935 0.25106 0.39666 0.0
C766 C 0.69291 0.31012 0.3421 0.0
Eu767 Eu 0.59665 0.19603 0.33944 0.0
N768 N 0.55954 0.25219 0.31871 0.0
C769 C 0.52258 0.2551 0.30293 0.0
C770 C 0.52699 0.31857 0.25244 0.0
C771 C 0.50641 0.28797 0.27632 0.0
H772 H 0.67522 0.2297 0.43204 0.0
H773 H 0.47645 0.28894 0.27208 0.0
H774 H 0.58804 0.37586 0.19526 0.0
H775 H 0.72362 0.27632 0.40549 0.0
H776 H 0.50391 0.23226 0.31096 0.0
H777 H 0.71577 0.04343 0.42898 0.0
H778 H 0.51312 0.34342 0.23625 0.0
H779 H 0.50571 0.11152 0.50155 0.0
H780 H 0.68582 0.09975 0.4648 0.0
H781 H 0.47347 0.05479 0.53969 0.0
H782 H 0.66583 0.37318 0.24131 0.0
H783 H 0.67909 0.98707 0.41118 0.0
H784 H 0.62019 0.95357 0.4428 0.0
H785 H 0.71588 0.3288 0.3322 0.0
H786 H 0.56143 0.9566 0.5028 0.0
N787 N 0.62964 0.08005 0.4496 0.0
C788 C 0.66787 0.07754 0.44965 0.0
C789 C 0.6648 0.0126 0.42287 0.0
C790 C 0.62697 0.01331 0.43827 0.0
C791 C 0.68573 0.04452 0.43241 0.0
C792 C 0.60952 0.04805 0.44926 0.0
H793 H 0.50596 0.99412 0.53714 0.0
N794 N 0.55462 0.0826 0.47173 0.0
C795 C 0.50102 0.05273 0.5187 0.0
C796 C 0.57235 0.04923 0.46777 0.0
C797 C 0.51914 0.08464 0.49595 0.0
C798 C 0.51952 0.01862 0.51753 0.0
C799 C 0.55499 0.0163 0.48986 0.0
O800 O 0.56856 0.14438 0.55648 0.0
O801 O 0.60377 0.19872 0.45351 0.0
O802 O 0.65601 0.1761 0.34146 0.0
O803 O 0.65636 0.15259 0.44524 0.0
O804 O 0.55579 0.18365 0.49731 0.0
O805 O 0.62269 0.11744 0.5501 0.0
O806 O 0.63898 0.19789 0.2699 0.0
O807 O 0.60911 0.135 0.35817 0.0
O808 O 0.54054 0.12377 0.39571 0.0
O809 O 0.53459 0.18245 0.35546 0.0
O810 O 0.57698 0.14488 0.27862 0.0
O811 O 0.58137 0.20451 0.23458 0.0
C812 C 0.57909 0.21112 0.4948 0.0
C813 C 0.58277 0.10174 0.6384 0.0
C814 C 0.59379 0.09065 0.75079 0.0
C815 C 0.60778 0.09686 0.68879 0.0
C816 C 0.55774 0.07661 0.75953 0.0
C817 C 0.54499 0.09242 0.64815 0.0
C818 C 0.5333 0.07687 0.70703 0.0
C819 C 0.67431 0.16073 0.38952 0.0
C820 C 0.59485 0.12715 0.5873 0.0
C821 C 0.57379 0.98215 0.48465 0.0
C822 C 0.60757 0.98038 0.45139 0.0
C823 C 0.59437 0.11859 0.30903 0.0
C824 C 0.63262 0.19678 0.15649 0.0
C825 C 0.61165 0.20294 0.09891 0.0
C826 C 0.63094 0.20617 0.03547 0.0
C827 C 0.6619 0.22966 0.05656 0.0
C828 C 0.67161 0.19605 0.15236 0.0
C829 C 0.68689 0.21604 0.1022 0.0
C830 C 0.52047 0.1486 0.36259 0.0
C831 C 0.6163 0.1984 0.22054 0.0
H832 H 0.63595 0.1075 0.68366 0.0
H833 H 0.54698 0.07108 0.80803 0.0
H834 H 0.5238 0.10057 0.61426 0.0
H835 H 0.50433 0.06987 0.7144 0.0
H836 H 0.58177 0.19977 0.10281 0.0
H837 H 0.66916 0.2547 0.0338 0.0
H838 H 0.68924 0.18872 0.19331 0.0
H839 H 0.71513 0.22632 0.1052 0.0
Eu840 Eu 0.18713 0.40518 0.66867 0.0
C841 C 0.0419 0.43316 0.57487 0.0
C842 C 0.0075 0.38042 0.61811 0.0
C843 C 0.97441 0.43303 0.57532 0.0
C844 C 0.04134 0.39647 0.59606 0.0
C845 C 0.00821 0.44664 0.55071 0.0
C846 C 0.97478 0.40157 0.61566 0.0
C847 C 0.04352 0.48299 0.4737 0.0
N848 N 0.07451 0.44929 0.55543 0.0
C849 C 0.0743 0.47863 0.51313 0.0
C850 C 0.01055 0.46501 0.49136 0.0
Eu851 Eu 0.12513 0.40956 0.54923 0.0
N852 N 0.07056 0.37463 0.57951 0.0
C853 C 0.06488 0.33688 0.57429 0.0
C854 C 0.00596 0.34202 0.62905 0.0
C855 C 0.03416 0.31982 0.60351 0.0
H856 H 0.10021 0.49157 0.49862 0.0
H857 H 0.03103 0.28978 0.60206 0.0
H858 H 0.94882 0.39036 0.6339 0.0
H859 H 0.04564 0.4985 0.42847 0.0
H860 H 0.08219 0.32009 0.54327 0.0
H861 H 0.28961 0.52153 0.68987 0.0
H862 H 0.98108 0.329 0.64801 0.0
H863 H 0.195 0.31371 0.7297 0.0
H864 H 0.23038 0.49527 0.66768 0.0
H865 H 0.24251 0.26767 0.75448 0.0
H866 H 0.94812 0.44489 0.55982 0.0
H867 H 0.34513 0.48527 0.72046 0.0
H868 H 0.38178 0.41226 0.74763 0.0
H869 H 0.98792 0.46287 0.45718 0.0
H870 H 0.36793 0.33246 0.75201 0.0
N871 N 0.24543 0.43771 0.67295 0.0
C872 C 0.25217 0.47546 0.67631 0.0
C873 C 0.31934 0.47115 0.70921 0.0
C874 C 0.3174 0.43283 0.71107 0.0
C875 C 0.2874 0.49142 0.69133 0.0
C876 C 0.27326 0.41426 0.687 0.0
H877 H 0.30874 0.27657 0.73601 0.0
N878 N 0.23039 0.35413 0.6861 0.0
C879 C 0.25105 0.29289 0.7298 0.0
C880 C 0.26579 0.36558 0.68359 0.0
C881 C 0.22323 0.32028 0.71593 0.0
C882 C 0.28937 0.29778 0.71992 0.0
C883 C 0.30162 0.33346 0.70744 0.0
O884 O 0.15582 0.42428 0.75647 0.0
O885 O 0.12505 0.40704 0.65658 0.0
O886 O 0.11504 0.46125 0.61938 0.0
O887 O 0.17537 0.46728 0.64541 0.0
O888 O 0.14541 0.36083 0.70249 0.0
O889 O 0.21331 0.41299 0.76418 0.0
O890 O 0.11998 0.43169 0.45005 0.0
O891 O 0.1895 0.40186 0.55136 0.0
O892 O 0.19489 0.35045 0.6131 0.0
O893 O 0.13858 0.34725 0.5631 0.0
O894 O 0.17035 0.44401 0.49513 0.0
O895 O 0.09687 0.37675 0.47451 0.0
C896 C 0.11513 0.3781 0.68835 0.0
C897 C 0.17735 0.39721 0.85559 0.0
C898 C 0.20075 0.37983 0.96931 0.0
C899 C 0.19191 0.40799 0.91797 0.0
C900 C 0.21646 0.3511 0.92675 0.0
C901 C 0.17088 0.35906 0.84666 0.0
C902 C 0.19408 0.3351 0.87943 0.0
C903 C 0.14144 0.48154 0.64762 0.0
C904 C 0.18331 0.42032 0.79644 0.0
C905 C 0.34673 0.35134 0.73429 0.0
C906 C 0.35508 0.40125 0.73284 0.0
C907 C 0.20037 0.42474 0.50444 0.0
C908 C 0.08342 0.40117 0.36876 0.0
C909 C 0.10574 0.38356 0.32358 0.0
C910 C 0.10233 0.39311 0.25844 0.0
C911 C 0.0753 0.41866 0.23742 0.0
C912 C 0.05458 0.42465 0.3483 0.0
C913 C 0.05139 0.43448 0.28297 0.0
C914 C 0.16787 0.33033 0.58749 0.0
C915 C 0.09826 0.40428 0.43358 0.0
H916 H 0.19725 0.43729 0.9253 0.0
H917 H 0.24021 0.3356 0.94004 0.0
H918 H 0.15516 0.3479 0.8073 0.0
H919 H 0.19875 0.30691 0.86216 0.0
H920 H 0.12919 0.36675 0.33977 0.0
H921 H 0.07429 0.42784 0.187 0.0
H922 H 0.03589 0.43702 0.38245 0.0
H923 H 0.03243 0.45641 0.26907 0.0
Eu924 Eu 0.40781 0.87581 0.45851 0.0
C925 C 0.36644 0.7233 0.33102 0.0
C926 C 0.4323 0.68701 0.26222 0.0
C927 C 0.35286 0.65039 0.25185 0.0
C928 C 0.41294 0.72326 0.30902 0.0
C929 C 0.33593 0.68653 0.30589 0.0
C930 C 0.4027 0.65001 0.23021 0.0
C931 C 0.2894 0.72795 0.34225 0.0
N932 N 0.35284 0.75565 0.35292 0.0
C933 C 0.31476 0.75805 0.35185 0.0
C934 C 0.29935 0.69231 0.32098 0.0
Eu935 Eu 0.3962 0.80934 0.34015 0.0
N936 N 0.43374 0.75198 0.3287 0.0
C937 C 0.47168 0.74683 0.32653 0.0
C938 C 0.47052 0.68695 0.26307 0.0
C939 C 0.48932 0.71562 0.29646 0.0
H940 H 0.30297 0.78384 0.33837 0.0
H941 H 0.51935 0.71394 0.29896 0.0
H942 H 0.4139 0.62756 0.20147 0.0
H943 H 0.26023 0.73455 0.33917 0.0
H944 H 0.49013 0.76596 0.35045 0.0
H945 H 0.28378 0.96752 0.45146 0.0
H946 H 0.48569 0.66351 0.24368 0.0
H947 H 0.49767 0.90974 0.46827 0.0
H948 H 0.3204 0.91594 0.4941 0.0
H949 H 0.53209 0.95482 0.40071 0.0
H950 H 0.33423 0.62928 0.23304 0.0
H951 H 0.31327 0.01574 0.38327 0.0
H952 H 0.37243 0.04687 0.34909 0.0
H953 H 0.27835 0.67228 0.30678 0.0
H954 H 0.44057 0.04533 0.34211 0.0
N955 N 0.37063 0.93116 0.44357 0.0
C956 C 0.33417 0.93545 0.46218 0.0
C957 C 0.32984 0.99297 0.40191 0.0
C958 C 0.36829 0.99213 0.39346 0.0
C959 C 0.31306 0.96551 0.43955 0.0
C960 C 0.38823 0.96039 0.41498 0.0
H961 H 0.50029 0.01021 0.3559 0.0
N962 N 0.44506 0.92989 0.43562 0.0
C963 C 0.50284 0.95868 0.40907 0.0
C964 C 0.42648 0.95964 0.41066 0.0
C965 C 0.48282 0.93241 0.4449 0.0
C966 C 0.48444 0.98864 0.38039 0.0
C967 C 0.44578 0.9904 0.38424 0.0
O968 O 0.44183 0.87997 0.5443 0.0
O969 O 0.39494 0.81219 0.45529 0.0
O970 O 0.33935 0.83264 0.36219 0.0
O971 O 0.34531 0.86053 0.46214 0.0
O972 O 0.44271 0.82757 0.50066 0.0
O973 O 0.38235 0.89418 0.54929 0.0
O974 O 0.35396 0.81392 0.26841 0.0
O975 O 0.38658 0.87095 0.3582 0.0
O976 O 0.45714 0.87878 0.38503 0.0
O977 O 0.45892 0.82015 0.34531 0.0
O978 O 0.41479 0.85901 0.27487 0.0
O979 O 0.41094 0.79987 0.23679 0.0
C980 C 0.41964 0.79999 0.49698 0.0
C981 C 0.42199 0.91646 0.63219 0.0
C982 C 0.42475 0.91203 0.74769 0.0
C983 C 0.40643 0.9049 0.68998 0.0
C984 C 0.45397 0.93791 0.74958 0.0
C985 C 0.4518 0.9416 0.63165 0.0
C986 C 0.46661 0.9538 0.69103 0.0
C987 C 0.32442 0.84916 0.41288 0.0
C988 C 0.41405 0.8916 0.57951 0.0
C989 C 0.42604 0.02151 0.36157 0.0
C990 C 0.38731 0.02235 0.36576 0.0
C991 C 0.39928 0.88609 0.30622 0.0
C992 C 0.36378 0.81145 0.1547 0.0
C993 C 0.38778 0.80737 0.10037 0.0
C994 C 0.37228 0.80266 0.03423 0.0
C995 C 0.34172 0.77733 0.05023 0.0
C996 C 0.32528 0.8093 0.14528 0.0
C997 C 0.31384 0.78891 0.09247 0.0
C998 C 0.47509 0.85273 0.35257 0.0
C999 C 0.37744 0.8105 0.2205 0.0
H1000 H 0.38327 0.88532 0.68944 0.0
H1001 H 0.46733 0.94478 0.7954 0.0
H1002 H 0.46449 0.95009 0.58614 0.0
H1003 H 0.48922 0.97365 0.69106 0.0
H1004 H 0.41705 0.81261 0.10878 0.0
H1005 H 0.33833 0.75107 0.02826 0.0
H1006 H 0.30552 0.81468 0.18412 0.0
H1007 H 0.2864 0.77654 0.09148 0.0
Eu1008 Eu 0.81452 0.90527 0.58176 0.0
C1009 C 0.95602 0.93286 0.70918 0.0
C1010 C 0.99194 0.886 0.65158 0.0
C1011 C 0.0232 0.93291 0.71361 0.0
C1012 C 0.95769 0.89946 0.67553 0.0
C1013 C 0.98869 0.94511 0.73916 0.0
C1014 C 0.02381 0.90705 0.66226 0.0
C1015 C 0.9505 0.98199 0.81277 0.0
N1016 N 0.9225 0.9465 0.7283 0.0
C1017 C 0.91986 0.97415 0.77368 0.0
C1018 C 0.98457 0.96527 0.79784 0.0
Eu1019 Eu 0.87182 0.90828 0.70745 0.0
N1020 N 0.92828 0.87658 0.68111 0.0
C1021 C 0.93405 0.83873 0.67748 0.0
C1022 C 0.99466 0.84877 0.63144 0.0
C1023 C 0.96632 0.82435 0.6491 0.0
H1024 H 0.89295 0.98538 0.78679 0.0
H1025 H 0.9699 0.7945 0.64357 0.0
H1026 H 0.04965 0.89881 0.63968 0.0
H1027 H 0.94766 0.99975 0.85519 0.0
H1028 H 0.91507 0.81926 0.69898 0.0
H1029 H 0.70741 0.01687 0.57207 0.0
H1030 H 0.0205 0.83752 0.61266 0.0
H1031 H 0.81177 0.81222 0.51984 0.0
H1032 H 0.76916 0.99277 0.58613 0.0
H1033 H 0.76638 0.76426 0.49703 0.0
H1034 H 0.04943 0.94183 0.73383 0.0
H1035 H 0.65285 0.97816 0.55009 0.0
H1036 H 0.61918 0.90385 0.51359 0.0
H1037 H 0.00702 0.96787 0.83259 0.0
H1038 H 0.637 0.82524 0.50181 0.0
N1039 N 0.75578 0.93512 0.57795 0.0
C1040 C 0.74763 0.97253 0.57777 0.0
C1041 C 0.67981 0.96526 0.5527 0.0
C1042 C 0.68367 0.92721 0.54459 0.0
C1043 C 0.71125 0.98699 0.56785 0.0
C1044 C 0.729 0.91048 0.5641 0.0
H1045 H 0.69933 0.77166 0.51273 0.0
N1046 N 0.77461 0.85219 0.56117 0.0
C1047 C 0.7565 0.79001 0.51858 0.0
C1048 C 0.73879 0.86212 0.56495 0.0
C1049 C 0.78327 0.81837 0.53226 0.0
C1050 C 0.71792 0.7937 0.52809 0.0
C1051 C 0.70414 0.82876 0.54184 0.0
O1052 O 0.84674 0.9247 0.49578 0.0
O1053 O 0.87623 0.90493 0.59942 0.0
O1054 O 0.88628 0.96099 0.64186 0.0
O1055 O 0.82727 0.9669 0.60536 0.0
O1056 O 0.85568 0.86002 0.5497 0.0
O1057 O 0.78879 0.91611 0.48613 0.0
O1058 O 0.87317 0.91854 0.81164 0.0
O1059 O 0.80811 0.90437 0.69855 0.0
O1060 O 0.80093 0.85314 0.64081 0.0
O1061 O 0.85822 0.84747 0.68419 0.0
O1062 O 0.82762 0.94686 0.75412 0.0
O1063 O 0.88381 0.86253 0.77432 0.0
C1064 C 0.88607 0.87598 0.56711 0.0
C1065 C 0.82524 0.9008 0.39449 0.0
C1066 C 0.80132 0.88145 0.2819 0.0
C1067 C 0.80846 0.91035 0.33287 0.0
C1068 C 0.78791 0.85227 0.32584 0.0
C1069 C 0.8348 0.8633 0.40266 0.0
C1070 C 0.81217 0.83784 0.37212 0.0
C1071 C 0.86148 0.98052 0.60728 0.0
C1072 C 0.81933 0.92299 0.45492 0.0
C1073 C 0.65775 0.84485 0.51858 0.0
C1074 C 0.64708 0.89426 0.52367 0.0
C1075 C 0.79738 0.92804 0.74434 0.0
C1076 C 0.9088 0.87857 0.87703 0.0
C1077 C 0.89234 0.86542 0.9328 0.0
C1078 C 0.90464 0.87815 0.99279 0.0
C1079 C 0.93778 0.89859 0.99789 0.0
C1080 C 0.94326 0.89648 0.8803 0.0
C1081 C 0.95816 0.90622 0.94122 0.0
C1082 C 0.82718 0.83187 0.66512 0.0
C1083 C 0.88255 0.88429 0.82471 0.0
H1084 H 0.79885 0.93869 0.32623 0.0
H1085 H 0.76494 0.83535 0.31335 0.0
H1086 H 0.85274 0.85365 0.4405 0.0
H1087 H 0.80978 0.80944 0.38968 0.0
H1088 H 0.86541 0.85169 0.92917 0.0
H1089 H 0.94695 0.90942 0.04459 0.0
H1090 H 0.95744 0.90369 0.83616 0.0
H1091 H 0.98392 0.92172 0.94412 0.0
Eu1092 Eu 0.916 0.12976 0.29235 0.0
C1093 C 0.86488 0.27744 0.42479 0.0
C1094 C 0.93327 0.31895 0.47613 0.0
C1095 C 0.85293 0.34934 0.50799 0.0
C1096 C 0.91302 0.28126 0.43385 0.0
C1097 C 0.83419 0.31177 0.45862 0.0
C1098 C 0.90404 0.35377 0.51563 0.0
C1099 C 0.78967 0.26342 0.45018 0.0
N1100 N 0.85211 0.24305 0.41277 0.0
C1101 C 0.81599 0.23599 0.43088 0.0
C1102 C 0.79743 0.30143 0.4591 0.0
Eu1103 Eu 0.89958 0.19374 0.40716 0.0
N1104 N 0.93417 0.25252 0.41457 0.0
C1105 C 0.972 0.25785 0.41395 0.0
C1106 C 0.97151 0.31911 0.47359 0.0
C1107 C 0.98996 0.28973 0.4412 0.0
H1108 H 0.80801 0.20736 0.43912 0.0
H1109 H 0.01999 0.29106 0.43823 0.0
H1110 H 0.91598 0.37686 0.54185 0.0
H1111 H 0.76356 0.25325 0.46894 0.0
H1112 H 0.98996 0.23755 0.39138 0.0
H1113 H 0.80651 0.03481 0.39244 0.0
H1114 H 0.98699 0.34214 0.49402 0.0
H1115 H 0.00498 0.10678 0.25951 0.0
H1116 H 0.83257 0.09436 0.36758 0.0
H1117 H 0.03812 0.05057 0.2198 0.0
H1118 H 0.83461 0.36873 0.53269 0.0
H1119 H 0.84064 0.9777 0.36463 0.0
H1120 H 0.89197 0.94789 0.30573 0.0
H1121 H 0.77672 0.31971 0.48032 0.0
H1122 H 0.94748 0.953 0.23501 0.0
N1123 N 0.8826 0.07368 0.32143 0.0
C1124 C 0.84793 0.07072 0.35015 0.0
C1125 C 0.85186 0.00424 0.35059 0.0
C1126 C 0.8852 0.00676 0.31637 0.0
C1127 C 0.83271 0.03636 0.36647 0.0
C1128 C 0.90097 0.04206 0.30463 0.0
H1129 H 0.00407 0.99086 0.21013 0.0
N1130 N 0.95471 0.07758 0.27931 0.0
C1131 C 0.00965 0.0485 0.23647 0.0
C1132 C 0.93661 0.0444 0.27872 0.0
C1133 C 0.99108 0.08002 0.26026 0.0
C1134 C 0.99026 0.01495 0.23014 0.0
C1135 C 0.95376 0.01229 0.25301 0.0
O1136 O 0.94147 0.12882 0.19644 0.0
O1137 O 0.9012 0.19218 0.29277 0.0
O1138 O 0.84856 0.19501 0.33994 0.0
O1139 O 0.85228 0.13709 0.29501 0.0
O1140 O 0.95048 0.17874 0.25118 0.0
O1141 O 0.88312 0.11248 0.20838 0.0
O1142 O 0.86615 0.18298 0.48746 0.0
O1143 O 0.91314 0.13131 0.40094 0.0
O1144 O 0.96786 0.12449 0.36288 0.0
O1145 O 0.963 0.18122 0.41394 0.0
O1146 O 0.86394 0.14514 0.44409 0.0
O1147 O 0.92293 0.19977 0.51046 0.0
C1148 C 0.92604 0.2053 0.25237 0.0
C1149 C 0.91491 0.09073 0.11434 0.0
C1150 C 0.90029 0.08608 1.00088 0.0
C1151 C 0.8898 0.09596 0.06384 0.0
C1152 C 0.93043 0.0619 0.99076 0.0
C1153 C 0.94695 0.06918 0.10376 0.0
C1154 C 0.95342 0.05281 0.04305 0.0
C1155 C 0.83181 0.16533 0.3151 0.0
C1156 C 0.91124 0.11656 0.16868 0.0
C1157 C 0.93496 0.97802 0.25504 0.0
C1158 C 0.90286 0.97487 0.29306 0.0
C1159 C 0.88692 0.11786 0.43656 0.0
C1160 C 0.87909 0.17846 0.5989 0.0
C1161 C 0.89944 0.18878 0.65629 0.0
C1162 C 0.87887 0.19908 0.71676 0.0
C1163 C 0.85061 0.22189 0.6853 0.0
C1164 C 0.84017 0.17666 0.60547 0.0
C1165 C 0.8253 0.20377 0.64479 0.0
C1166 C 0.98229 0.15021 0.40299 0.0
C1167 C 0.89183 0.18509 0.5316 0.0
H1168 H 0.86679 0.1153 0.07067 0.0
H1169 H 0.93887 0.05433 0.94171 0.0
H1170 H 0.96809 0.06718 0.14004 0.0
H1171 H 0.97827 0.03647 0.03502 0.0
H1172 H 0.92933 0.18717 0.65475 0.0
H1173 H 0.84407 0.2486 0.70194 0.0
H1174 H 0.82229 0.16459 0.56849 0.0
H1175 H 0.79705 0.21342 0.63809 0.0
Eu1176 Eu 0.19681 0.10677 0.59304 0.0
C1177 C 0.04462 0.0785 0.6592 0.0
C1178 C 0.01314 0.13685 0.63668 0.0
C1179 C 0.97728 0.08052 0.64673 0.0
C1180 C 0.04572 0.11699 0.65487 0.0
C1181 C 0.00949 0.06201 0.66743 0.0
C1182 C 0.97976 0.11751 0.62631 0.0
C1183 C 0.04022 0.01586 0.73276 0.0
N1184 N 0.07597 0.0592 0.67538 0.0
C1185 C 0.07331 0.02563 0.70566 0.0
C1186 C 0.0074 0.03212 0.71005 0.0
Eu1187 Eu 0.12832 0.09375 0.70081 0.0
N1188 N 0.07552 0.1349 0.68103 0.0
C1189 C 0.07045 0.17136 0.70066 0.0
C1190 C 0.01342 0.17566 0.63984 0.0
C1191 C 0.04143 0.19289 0.67528 0.0
H1192 H 0.09806 0.01082 0.72101 0.0
H1193 H 0.03975 0.22243 0.686 0.0
H1194 H 0.95461 0.13201 0.61242 0.0
H1195 H 0.04239 0.9981 0.77399 0.0
H1196 H 0.08909 0.18493 0.73456 0.0
H1197 H 0.29527 0.98666 0.57947 0.0
H1198 H 0.98997 0.19205 0.62333 0.0
H1199 H 0.21381 0.20061 0.56336 0.0
H1200 H 0.23961 0.01723 0.6179 0.0
H1201 H 0.26278 0.24697 0.55311 0.0
H1202 H 0.9502 0.06749 0.65117 0.0
H1203 H 0.34638 0.01899 0.5226 0.0
H1204 H 0.37926 0.08828 0.4641 0.0
H1205 H 0.98074 0.02492 0.72965 0.0
H1206 H 0.37343 0.1705 0.47526 0.0
N1207 N 0.25516 0.07253 0.59205 0.0
C1208 C 0.26046 0.0347 0.5956 0.0
C1209 C 0.32215 0.03447 0.538 0.0
C1210 C 0.32073 0.07255 0.52875 0.0
C1211 C 0.29308 0.01651 0.57215 0.0
C1212 C 0.28346 0.09349 0.57006 0.0
H1213 H 0.32675 0.22991 0.53318 0.0
N1214 N 0.24664 0.155 0.5913 0.0
C1215 C 0.27048 0.21863 0.56443 0.0
C1216 C 0.28069 0.14169 0.5799 0.0
C1217 C 0.2415 0.1922 0.577 0.0
C1218 C 0.30751 0.20919 0.55148 0.0
C1219 C 0.31604 0.17197 0.54812 0.0
O1220 O 0.20695 0.13502 0.50629 0.0
O1221 O 0.13407 0.09836 0.59508 0.0
O1222 O 0.12401 0.04504 0.6234 0.0
O1223 O 0.18316 0.04267 0.58466 0.0
O1224 O 0.15124 0.1469 0.55384 0.0
O1225 O 0.19151 0.07756 0.49628 0.0
O1226 O 0.12379 0.05855 0.78632 0.0
O1227 O 0.19136 0.10625 0.70846 0.0
O1228 O 0.19968 0.15679 0.66075 0.0
O1229 O 0.13977 0.15641 0.69242 0.0
O1230 O 0.17392 0.05969 0.75401 0.0
O1231 O 0.09508 0.11224 0.78435 0.0
C1232 C 0.12238 0.12626 0.56242 0.0
C1233 C 0.17666 0.12096 0.40831 0.0
C1234 C 0.19893 0.12728 0.29094 0.0
C1235 C 0.18668 0.10424 0.34745 0.0
C1236 C 0.22043 0.15499 0.32753 0.0
C1237 C 0.17251 0.15999 0.40526 0.0
C1238 C 0.2011 0.17737 0.37196 0.0
C1239 C 0.14969 0.02691 0.58897 0.0
C1240 C 0.19853 0.10864 0.46582 0.0
C1241 C 0.35334 0.15251 0.49881 0.0
C1242 C 0.35632 0.10111 0.49001 0.0
C1243 C 0.20222 0.08179 0.7518 0.0
C1244 C 0.09334 0.07639 0.88161 0.0
C1245 C 0.11846 0.09251 0.92441 0.0
C1246 C 0.11404 0.08655 0.99088 0.0
C1247 C 0.08522 0.06361 0.01435 0.0
C1248 C 0.06433 0.05376 0.90426 0.0
C1249 C 0.06045 0.04723 0.97076 0.0
C1250 C 0.16974 0.17532 0.67775 0.0
C1251 C 0.09877 0.07989 0.81277 0.0
H1252 H 0.18343 0.07458 0.34385 0.0
H1253 H 0.24644 0.16484 0.31185 0.0
H1254 H 0.15914 0.17548 0.44404 0.0
H1255 H 0.21043 0.20512 0.38492 0.0
H1256 H 0.14069 0.11019 0.90623 0.0
H1257 H 0.08156 0.05905 0.06628 0.0
H1258 H 0.04502 0.04086 0.87057 0.0
H1259 H 0.03812 0.02984 0.98826 0.0
Eu1260 Eu 0.08697 0.87464 0.29763 0.0
C1261 C 0.13884 0.72281 0.42652 0.0
C1262 C 0.07128 0.68166 0.48149 0.0
C1263 C 0.15182 0.6494 0.50521 0.0
C1264 C 0.09101 0.71971 0.43946 0.0
C1265 C 0.16982 0.68736 0.45604 0.0
C1266 C 0.10093 0.64577 0.51705 0.0
C1267 C 0.21539 0.73372 0.44007 0.0
N1268 N 0.1519 0.75677 0.41243 0.0
C1269 C 0.18874 0.76222 0.42695 0.0
C1270 C 0.20674 0.69628 0.45139 0.0
Eu1271 Eu 0.10471 0.80712 0.41067 0.0
N1272 N 0.06954 0.74803 0.41885 0.0
C1273 C 0.03186 0.74131 0.41611 0.0
C1274 C 0.03313 0.68052 0.47718 0.0
C1275 C 0.01443 0.70913 0.44328 0.0
H1276 H 0.19675 0.78965 0.44157 0.0
H1277 H 0.98457 0.70665 0.4382 0.0
H1278 H 0.08931 0.62235 0.54297 0.0
H1279 H 0.24345 0.74211 0.45142 0.0
H1280 H 0.0135 0.7604 0.39132 0.0
H1281 H 0.20809 0.96704 0.2807 0.0
H1282 H 0.01803 0.65672 0.49557 0.0
H1283 H 0.99535 0.90551 0.29954 0.0
H1284 H 0.16938 0.91532 0.24232 0.0
H1285 H 0.96219 0.95333 0.36377 0.0
H1286 H 0.17044 0.62923 0.52711 0.0
H1287 H 0.18135 0.01527 0.35187 0.0
H1288 H 0.12257 0.04798 0.38942 0.0
H1289 H 0.22783 0.67711 0.46861 0.0
H1290 H 0.05502 0.04565 0.40467 0.0
N1291 N 0.12175 0.93166 0.29847 0.0
C1292 C 0.1568 0.93636 0.27311 0.0
C1293 C 0.16375 0.99323 0.3341 0.0
C1294 C 0.1257 0.99258 0.34732 0.0
C1295 C 0.17903 0.96583 0.29428 0.0
C1296 C 0.1053 0.96047 0.32997 0.0
H1297 H 0.99523 0.00976 0.40119 0.0
N1298 N 0.04877 0.92772 0.32267 0.0
C1299 C 0.99149 0.95642 0.35407 0.0
C1300 C 0.06759 0.95866 0.34166 0.0
C1301 C 0.01066 0.92894 0.31936 0.0
C1302 C 0.01051 0.98744 0.37758 0.0
C1303 C 0.0489 0.98963 0.3685 0.0
O1304 O 0.05446 0.88664 0.21251 0.0
O1305 O 0.10155 0.81194 0.29647 0.0
O1306 O 0.15599 0.80994 0.34503 0.0
O1307 O 0.14965 0.87141 0.32346 0.0
O1308 O 0.05215 0.82564 0.25687 0.0
O1309 O 0.11471 0.87828 0.20354 0.0
O1310 O 0.14558 0.82478 0.48086 0.0
O1311 O 0.11393 0.86955 0.3924 0.0
O1312 O 0.03914 0.87422 0.37435 0.0
O1313 O 0.04145 0.81532 0.41406 0.0
O1314 O 0.08845 0.85827 0.47678 0.0
O1315 O 0.09613 0.79289 0.51323 0.0
C1316 C 0.07652 0.79907 0.25661 0.0
C1317 C 0.08434 0.91478 0.12414 0.0
C1318 C 0.08794 0.91359 0.00839 0.0
C1319 C 0.10188 0.90279 0.06829 0.0
C1320 C 0.0619 0.94282 0.00413 0.0
C1321 C 0.05849 0.94404 0.12172 0.0
C1322 C 0.04793 0.95876 0.06141 0.0
C1323 C 0.17162 0.84227 0.33115 0.0
C1324 C 0.0836 0.88716 0.17491 0.0
C1325 C 0.06903 0.02162 0.38549 0.0
C1326 C 0.10748 0.02294 0.37617 0.0
C1327 C 0.10268 0.88554 0.44435 0.0
C1328 C 0.1374 0.81721 0.59514 0.0
C1329 C 0.11273 0.81088 0.64813 0.0
C1330 C 0.12756 0.80402 0.71408 0.0
C1331 C 0.15724 0.77803 0.69563 0.0
C1332 C 0.17566 0.81388 0.60539 0.0
C1333 C 0.18588 0.7905 0.65535 0.0
C1334 C 0.02372 0.84732 0.40889 0.0
C1335 C 0.12474 0.81356 0.52907 0.0
H1336 H 0.1221 0.88024 0.07109 0.0
H1337 H 0.05109 0.95179 0.95731 0.0
H1338 H 0.04458 0.95306 0.16557 0.0
H1339 H 0.02673 0.98013 0.05917 0.0
H1340 H 0.08338 0.81588 0.63976 0.0
H1341 H 0.16036 0.75134 0.71615 0.0
H1342 H 0.19574 0.81983 0.56731 0.0
H1343 H 0.2131 0.77765 0.65589 0.0
C1344 C 0.41186 0.94118 0.22846 0.0
C1345 C 0.38724 0.92252 0.27147 0.0
H1346 H 0.42145 0.98601 0.1597 0.0
C1347 C 0.3507 0.93718 0.27423 0.0
H1348 H 0.44015 0.93126 0.22412 0.0
C1349 C 0.33977 0.96928 0.23713 0.0
C1350 C 0.36451 0.98792 0.19384 0.0
H1351 H 0.33032 0.92368 0.30503 0.0
H1352 H 0.31158 0.9795 0.24248 0.0
C1353 C 0.40092 0.9729 0.19083 0.0
C1354 C 0.93292 0.67218 0.748 0.0
C1355 C 0.92131 0.63586 0.73031 0.0
H1356 H 0.97357 0.70716 0.79513 0.0
C1357 C 0.94339 0.60606 0.75415 0.0
H1358 H 0.91701 0.69605 0.73139 0.0
C1359 C 0.97568 0.61247 0.79323 0.0
C1360 C 0.98791 0.64899 0.80932 0.0
H1361 H 0.93564 0.5776 0.74272 0.0
H1362 H 0.99167 0.5886 0.80958 0.0
C1363 C 0.96572 0.67861 0.78521 0.0
C1364 C 0.65157 0.03175 0.2472 0.0
C1365 C 0.62855 0.01535 0.19861 0.0
H1366 H 0.65989 0.07608 0.31747 0.0
C1367 C 0.59372 0.03317 0.18919 0.0
H1368 H 0.67858 0.01967 0.25724 0.0
C1369 C 0.58284 0.0655 0.22558 0.0
C1370 C 0.60575 0.08171 0.27444 0.0
H1371 H 0.57458 0.0222 0.1532 0.0
H1372 H 0.55615 0.07808 0.21491 0.0
C1373 C 0.64053 0.06408 0.2835 0.0
C1374 C 0.0372 0.33108 0.78915 0.0
C1375 C 0.01471 0.36087 0.81157 0.0
H1376 H 0.0855 0.31309 0.73522 0.0
C1377 C 0.02601 0.3972 0.79263 0.0
H1378 H 0.03013 0.30268 0.80139 0.0
C1379 C 0.05784 0.40317 0.75223 0.0
C1380 C 0.08002 0.37308 0.72985 0.0
H1381 H 0.00964 0.4211 0.80759 0.0
H1382 H 0.0651 0.43144 0.73855 0.0
C1383 C 0.06933 0.33708 0.7505 0.0
C1384 C 0.33782 0.53887 0.03846 0.0
C1385 C 0.36787 0.51604 0.05852 0.0
H1386 H 0.31835 0.58818 0.98926 0.0
C1387 C 0.4035 0.5279 0.03616 0.0
H1388 H 0.30986 0.53179 0.05306 0.0
C1389 C 0.40839 0.56077 0.99636 0.0
C1390 C 0.37791 0.58359 0.9773 0.0
H1391 H 0.42775 0.51145 0.04863 0.0
H1392 H 0.4362 0.5686 0.98155 0.0
C1393 C 0.34275 0.57169 1.00038 0.0
C1394 C 0.56923 0.67021 0.99533 0.0
C1395 C 0.57934 0.63414 0.01707 0.0
H1396 H 0.52931 0.70545 0.94736 0.0
C1397 C 0.55534 0.60467 0.99875 0.0
H1398 H 0.58695 0.69372 0.00629 0.0
C1399 C 0.52224 0.61139 0.96226 0.0
C1400 C 0.51139 0.64788 0.94301 0.0
H1401 H 0.56201 0.57633 0.01301 0.0
H1402 H 0.50452 0.58792 0.95072 0.0
C1403 C 0.53577 0.67703 0.96067 0.0
C1404 C 0.60024 0.48109 0.02984 0.0
C1405 C 0.63385 0.48828 0.06481 0.0
H1406 H 0.56915 0.44442 0.9644 0.0
C1407 C 0.66125 0.46021 0.05942 0.0
H1408 H 0.5782 0.50169 0.03109 0.0
C1409 C 0.65574 0.42713 0.02225 0.0
C1410 C 0.62283 0.41994 0.98594 0.0
H1411 H 0.68746 0.46364 0.0846 0.0
H1412 H 0.67829 0.40709 0.02091 0.0
C1413 C 0.59496 0.44793 0.99087 0.0
C1414 C 0.44872 0.40467 1.0007 0.0
C1415 C 0.42571 0.37496 0.0214 0.0
H1416 H 0.49798 0.42146 0.94735 0.0
C1417 C 0.4349 0.33901 0.99779 0.0
H1418 H 0.44242 0.43293 0.01596 0.0
C1419 C 0.46708 0.33226 0.96 0.0
C1420 C 0.49091 0.36143 0.94096 0.0
H1421 H 0.41775 0.31535 0.01085 0.0
H1422 H 0.47332 0.30385 0.946 0.0
C1423 C 0.48063 0.398 0.96085 0.0
C1424 C 0.84697 0.42887 0.73132 0.0
C1425 C 0.88051 0.42248 0.7664 0.0
H1426 H 0.81351 0.46472 0.67038 0.0
C1427 C 0.90763 0.451 0.76038 0.0
H1428 H 0.82491 0.40835 0.7336 0.0
C1429 C 0.90108 0.48392 0.7215 0.0
C1430 C 0.86687 0.49034 0.68792 0.0
H1431 H 0.93386 0.44805 0.78579 0.0
H1432 H 0.9227 0.50488 0.71898 0.0
C1433 C 0.84013 0.46182 0.69448 0.0
C1434 C 0.45633 0.16416 0.31391 0.0
C1435 C 0.48515 0.13796 0.32292 0.0
H1436 H 0.40465 0.17903 0.26874 0.0
C1437 C 0.48079 0.10379 0.28793 0.0
H1438 H 0.45751 0.19062 0.33925 0.0
C1439 C 0.44955 0.09686 0.24529 0.0
C1440 C 0.42088 0.12364 0.23644 0.0
H1441 H 0.50203 0.08251 0.29232 0.0
H1442 H 0.44802 0.07057 0.21934 0.0
C1443 C 0.42531 0.15714 0.27284 0.0
C1444 C 0.15411 0.58037 0.7278 0.0
C1445 C 0.12105 0.58751 0.76393 0.0
H1446 H 0.18646 0.54383 0.66615 0.0
C1447 C 0.09363 0.55907 0.75912 0.0
H1448 H 0.17638 0.60069 0.72887 0.0
C1449 C 0.09941 0.5257 0.72064 0.0
C1450 C 0.13316 0.51852 0.68591 0.0
H1451 H 0.06765 0.56244 0.78521 0.0
H1452 H 0.07753 0.50498 0.71939 0.0
C1453 C 0.16019 0.54699 0.69125 0.0
C1454 C 0.5698 0.84178 0.26416 0.0
C1455 C 0.57619 0.87681 0.23411 0.0
H1456 H 0.53472 0.80683 0.32275 0.0
C1457 C 0.54959 0.90496 0.24704 0.0
H1458 H 0.58933 0.81915 0.25657 0.0
C1459 C 0.51741 0.89754 0.28606 0.0
C1460 C 0.5107 0.86191 0.31429 0.0
H1461 H 0.55313 0.93245 0.22595 0.0
H1462 H 0.49711 0.91953 0.29231 0.0
C1463 C 0.53785 0.83441 0.30232 0.0
C1464 C 0.90479 0.02155 0.53055 0.0
C1465 C 0.87119 0.01637 0.56681 0.0
H1466 H 0.9367 0.05529 0.46131 0.0
C1467 C 0.84458 0.04506 0.55859 0.0
H1468 H 0.92617 1.00031 0.53321 0.0
C1469 C 0.85087 0.07681 0.51808 0.0
C1470 C 0.88386 0.08213 0.48084 0.0
H1471 H 0.81825 0.04308 0.584 0.0
H1472 H 0.82884 0.09736 0.51509 0.0
C1473 C 0.91089 0.05341 0.48834 0.0
C1474 C 0.07377 0.16715 0.50327 0.0
C1475 C 0.08568 0.13117 0.52311 0.0
H1476 H 0.0335 0.20142 0.45308 0.0
C1477 C 0.0627 0.10122 0.50225 0.0
H1478 H 0.08982 0.19129 0.51788 0.0
C1479 C 0.02988 0.10721 0.46353 0.0
C1480 C 0.01849 0.14323 0.44277 0.0
H1481 H 0.07006 0.07296 0.5159 0.0
H1482 H 0.01267 0.08351 0.45098 0.0
C1483 C 0.041 0.17304 0.46526 0.0
C1484 C 0.09153 0.94193 0.52103 0.0
C1485 C 0.11529 0.92292 0.47693 0.0
H1486 H 0.08237 0.98773 0.58747 0.0
C1487 C 0.15137 0.93876 0.47043 0.0
H1488 H 0.06368 0.93136 0.52876 0.0
C1489 C 0.16275 0.97163 0.50593 0.0
C1490 C 0.13873 0.99065 0.55026 0.0
H1491 H 0.17124 0.9254 0.43841 0.0
H1492 H 0.19063 0.98216 0.49839 0.0
C1493 C 0.10262 0.97477 0.55572 0.0
C1494 C 0.9795 0.89117 0.47294 0.0
C1495 C 0.98841 0.85496 0.44942 0.0
H1496 H 0.94168 0.92658 0.52758 0.0
C1497 C 0.96369 0.82615 0.46763 0.0
H1498 H 0.99822 0.91408 0.46314 0.0
C1499 C 0.93116 0.83334 0.50514 0.0
C1500 C 0.92225 0.86945 0.52865 0.0
H1501 H 0.96915 0.79779 0.45223 0.0
H1502 H 0.91302 0.81015 0.51672 0.0
C1503 C 0.94716 0.89832 0.51139 0.0
C1504 C 0.36125 0.23816 0.08574 0.0
C1505 C 0.32812 0.21731 0.0878 0.0
H1506 H 0.38814 0.28967 0.10781 0.0
C1507 C 0.29643 0.23576 0.11034 0.0
H1508 H 0.38554 0.22757 0.06087 0.0
C1509 C 0.29887 0.26958 0.14472 0.0
C1510 C 0.33221 0.28945 0.1473 0.0
H1511 H 0.26941 0.22298 0.10389 0.0
H1512 H 0.27358 0.28239 0.1627 0.0
C1513 C 0.36315 0.27379 0.11474 0.0
C1514 C 0.26486 0.69485 0.85409 0.0
C1515 C 0.28698 0.66321 0.85483 0.0
H1516 H 0.2244 0.72471 0.91138 0.0
C1517 C 0.27266 0.63159 0.88799 0.0
H1518 H 0.27473 0.7191 0.82843 0.0
C1519 C 0.237 0.63302 0.91825 0.0
C1520 C 0.21683 0.66698 0.92036 0.0
H1521 H 0.28879 0.60623 0.89095 0.0
H1522 H 0.22587 0.60803 0.94033 0.0
C1523 C 0.2355 0.69806 0.89854 0.0
C1524 C 0.70613 0.77097 0.10387 0.0
C1525 C 0.67355 0.78839 0.08198 0.0
H1526 H 0.73079 0.72378 0.15278 0.0
C1527 C 0.64153 0.76608 0.07807 0.0
H1528 H 0.73251 0.78528 0.09934 0.0
C1529 C 0.64086 0.73027 0.10603 0.0
C1530 C 0.67223 0.71524 0.13786 0.0
H1531 H 0.61713 0.77565 0.05244 0.0
H1532 H 0.61639 0.71367 0.09907 0.0
C1533 C 0.70511 0.73599 0.13521 0.0
C1534 C 0.76768 0.37058 0.90306 0.0
C1535 C 0.78665 0.33636 0.909 0.0
H1536 H 0.72236 0.40014 0.86167 0.0
C1537 C 0.76811 0.30501 0.88691 0.0
H1538 H 0.77823 0.39555 0.92571 0.0
C1539 C 0.73721 0.30779 0.84547 0.0
C1540 C 0.71701 0.34074 0.84162 0.0
H1541 H 0.77981 0.27813 0.89761 0.0
H1542 H 0.72545 0.28274 0.82487 0.0
C1543 C 0.73398 0.37295 0.868 0.0
C1544 C 0.85999 0.7362 0.60999 0.0
C1545 C 0.82683 0.71681 0.59827 0.0
H1546 H 0.88604 0.78742 0.63074 0.0
C1547 C 0.79351 0.73568 0.61178 0.0
H1548 H 0.88637 0.72314 0.60548 0.0
C1549 C 0.79372 0.77105 0.64234 0.0
C1550 C 0.82699 0.791 0.64993 0.0
H1551 H 0.76712 0.72203 0.60278 0.0
H1552 H 0.76748 0.78404 0.65509 0.0
C1553 C 0.85997 0.77308 0.63132 0.0
C1554 C 0.76947 0.1932 0.34002 0.0
C1555 C 0.78965 0.16182 0.32144 0.0
H1556 H 0.72829 0.21365 0.40283 0.0
C1557 C 0.76958 0.1277 0.32137 0.0
H1558 H 0.78066 0.22069 0.33144 0.0
C1559 C 0.73243 0.12592 0.34621 0.0
C1560 C 0.71597 0.15705 0.37816 0.0
H1561 H 0.78198 0.10271 0.30131 0.0
H1562 H 0.71701 0.10031 0.34049 0.0
C1563 C 0.73692 0.18982 0.37668 0.0
C1564 C 0.19961 0.27066 0.61972 0.0
C1565 C 0.16687 0.28893 0.60221 0.0
H1566 H 0.2244 0.22745 0.67881 0.0
C1567 C 0.13369 0.26869 0.61178 0.0
H1568 H 0.22589 0.28386 0.60907 0.0
C1569 C 0.13414 0.23207 0.63657 0.0
C1570 C 0.16688 0.21628 0.66197 0.0
H1571 H 0.10717 0.28019 0.60104 0.0
H1572 H 0.10899 0.21623 0.63376 0.0
C1573 C 0.19878 0.23827 0.65881 0.0
C1574 C 0.26308 0.82026 0.40573 0.0
C1575 C 0.28299 0.85331 0.4102 0.0
H1576 H 0.2268 0.79027 0.34057 0.0
C1577 C 0.26526 0.88538 0.38451 0.0
H1578 H 0.27402 0.79559 0.42889 0.0
C1579 C 0.22851 0.88317 0.35951 0.0
C1580 C 0.21227 0.84805 0.34662 0.0
H1581 H 0.27956 0.91153 0.38155 0.0
H1582 H 0.21391 0.90849 0.34814 0.0
C1583 C 0.23455 0.81724 0.35941 0.0
C1584 C 0.23821 0.11878 0.8524 0.0
C1585 C 0.22695 0.08546 0.81815 0.0
H1586 H 0.26485 0.1452 0.93757 0.0
C1587 C 0.23654 0.05264 0.8543 0.0
H1588 H 0.23181 0.14549 0.8304 0.0
C1589 C 0.25565 0.05247 0.91671 0.0
C1590 C 0.26681 0.08514 0.95174 0.0
H1591 H 0.229 0.02584 0.83381 0.0
H1592 H 0.26176 0.02555 0.93823 0.0
C1593 C 0.25729 0.11862 0.91628 0.0
C1594 C 0.04978 0.74522 0.0912 0.0
C1595 C 0.083 0.73523 0.05701 0.0
H1596 H 0.02178 0.77094 0.17368 0.0
C1597 C 0.11576 0.74594 0.09276 0.0
H1598 H 0.02336 0.73805 0.06921 0.0
C1599 C 0.11481 0.76505 0.15642 0.0
C1600 C 0.08101 0.77515 0.18983 0.0
H1601 H 0.14261 0.73918 0.07198 0.0
H1602 H 0.141 0.77231 0.17907 0.0
C1603 C 0.04884 0.7644 0.15347 0.0
C1604 C 0.73561 0.95453 0.90497 0.0
C1605 C 0.72558 0.92153 0.94089 0.0
H1606 H 0.76309 0.98255 0.82367 0.0
C1607 C 0.73863 0.88873 0.90625 0.0
H1608 H 0.72693 0.98116 0.92482 0.0
C1609 C 0.75965 0.88956 0.84361 0.0
C1610 C 0.76985 0.92324 0.80863 0.0
H1611 H 0.73223 0.86172 0.92707 0.0
H1612 H 0.76849 0.86314 0.82317 0.0
C1613 C 0.75678 0.95536 0.8439 0.0
C1614 C 0.88699 0.26011 0.08938 0.0
C1615 C 0.91985 0.27107 0.05387 0.0
H1616 H 0.86149 0.23306 0.175 0.0
C1617 C 0.95292 0.26082 0.08832 0.0
H1618 H 0.86019 0.26708 0.06867 0.0
C1619 C 0.95369 0.24117 0.15024 0.0
C1620 C 0.92147 0.23006 0.18627 0.0
H1621 H 0.97942 0.26817 0.06678 0.0
H1622 H 0.9807 0.2345 0.17043 0.0
C1623 C 0.88777 0.24048 0.15274 0.0
C1624 C 0.264 0.45215 0.34598 0.0
C1625 C 0.27525 0.41937 0.31037 0.0
H1626 H 0.23478 0.47968 0.42601 0.0
C1627 C 0.26216 0.38637 0.34449 0.0
H1628 H 0.27251 0.47892 0.32661 0.0
C1629 C 0.24018 0.38681 0.40627 0.0
C1630 C 0.22883 0.42028 0.44097 0.0
H1631 H 0.26932 0.35946 0.324 0.0
H1632 H 0.23155 0.36022 0.42625 0.0
C1633 C 0.24186 0.45259 0.40611 0.0
C1634 C 0.44837 0.74281 0.65773 0.0
C1635 C 0.4157 0.73175 0.69245 0.0
H1636 H 0.47514 0.77046 0.57606 0.0
C1637 C 0.3824 0.74274 0.65832 0.0
H1638 H 0.47512 0.73558 0.67841 0.0
C1639 C 0.38241 0.76304 0.59566 0.0
C1640 C 0.41573 0.7741 0.56167 0.0
H1641 H 0.35586 0.73524 0.67952 0.0
H1642 H 0.35589 0.77051 0.57439 0.0
C1643 C 0.44838 0.76313 0.59657 0.0
C1644 C 0.7399 0.55292 0.3423 0.0
C1645 C 0.72783 0.58545 0.30671 0.0
H1646 H 0.76914 0.52601 0.423 0.0
C1647 C 0.73934 0.61867 0.34204 0.0
H1648 H 0.73255 0.52596 0.32228 0.0
C1649 C 0.7606 0.61869 0.40469 0.0
C1650 C 0.77274 0.5855 0.43948 0.0
H1651 H 0.73138 0.64543 0.32187 0.0
H1652 H 0.76796 0.64548 0.42538 0.0
C1653 C 0.76135 0.55295 0.40333 0.0
C1654 C 0.6174 0.2443 0.59588 0.0
C1655 C 0.58375 0.23492 0.5615 0.0
H1656 H 0.6447 0.26899 0.68187 0.0
C1657 C 0.55141 0.24538 0.59762 0.0
H1658 H 0.64371 0.23701 0.57355 0.0
C1659 C 0.55198 0.26362 0.66061 0.0
C1660 C 0.58496 0.27299 0.69581 0.0
H1661 H 0.52446 0.23918 0.57673 0.0
H1662 H 0.52541 0.27058 0.68235 0.0
C1663 C 0.61798 0.26264 0.66028 0.0
C1664 C 0.38363 0.12272 0.59888 0.0
C1665 C 0.34152 0.11999 0.59437 0.0
H1666 H 0.43604 0.11846 0.64705 0.0
C1667 C 0.329 0.11552 0.6634 0.0
H1668 H 0.40272 0.12726 0.55862 0.0
C1669 C 0.35205 0.11065 0.71733 0.0
C1670 C 0.39053 0.11072 0.71105 0.0
H1671 H 0.30033 0.11364 0.6793 0.0
H1672 H 0.3393 0.10426 0.76405 0.0
C1673 C 0.40596 0.11841 0.65254 0.0
C1674 C 0.11163 0.67505 0.34357 0.0
C1675 C 0.11734 0.66182 0.41206 0.0
H1676 H 0.10118 0.66562 0.24228 0.0
C1677 C 0.12042 0.61968 0.40611 0.0
H1678 H 0.10841 0.70391 0.32877 0.0
C1679 C 0.11729 0.59792 0.35145 0.0
C1680 C 0.10987 0.61394 0.29324 0.0
H1681 H 0.12526 0.60011 0.44567 0.0
H1682 H 0.11852 0.56769 0.35568 0.0
C1683 C 0.10788 0.65251 0.28862 0.0
C1684 C 0.68708 0.90751 0.66704 0.0
C1685 C 0.68201 0.87538 0.61165 0.0
H1686 H 0.66176 0.9352 0.74702 0.0
C1687 C 0.66099 0.84219 0.64431 0.0
H1688 H 0.70566 0.93111 0.66598 0.0
C1689 C 0.63767 0.84833 0.69669 0.0
C1690 C 0.63466 0.88335 0.72466 0.0
H1691 H 0.67362 0.85961 0.61833 0.0
H1692 H 0.61999 0.82571 0.71292 0.0
C1693 C 0.66185 0.91024 0.71695 0.0
C1694 C 0.89006 0.35078 0.28782 0.0
C1695 C 0.88623 0.38921 0.29448 0.0
H1696 H 0.89308 0.29866 0.32562 0.0
C1697 C 0.88044 0.40386 0.35434 0.0
H1698 H 0.89587 0.33869 0.2403 0.0
C1699 C 0.88086 0.38119 0.40805 0.0
C1700 C 0.88501 0.33902 0.41153 0.0
H1701 H 0.87813 0.43394 0.36043 0.0
H1702 H 0.87736 0.40009 0.44906 0.0
C1703 C 0.88915 0.32716 0.34198 0.0
C1704 C 0.36884 0.35711 0.55799 0.0
C1705 C 0.37365 0.39305 0.53446 0.0
H1706 H 0.33126 0.36668 0.63418 0.0
C1707 C 0.34683 0.42035 0.54259 0.0
H1708 H 0.3857 0.33434 0.53962 0.0
C1709 C 0.31972 0.41617 0.58893 0.0
C1710 C 0.32294 0.38234 0.64157 0.0
H1711 H 0.34777 0.44594 0.51424 0.0
H1712 H 0.30095 0.43967 0.59053 0.0
C1713 C 0.34401 0.34975 0.60741 0.0
C1714 C 0.40149 0.67635 0.40614 0.0
C1715 C 0.39216 0.66356 0.33862 0.0
H1716 H 0.41634 0.66662 0.50564 0.0
C1717 C 0.39278 0.62129 0.34284 0.0
H1718 H 0.40361 0.70517 0.42169 0.0
C1719 C 0.40078 0.59919 0.39573 0.0
C1720 C 0.40915 0.61498 0.45393 0.0
H1721 H 0.38649 0.602 0.30352 0.0
H1722 H 0.39968 0.56899 0.39095 0.0
C1723 C 0.4095 0.65356 0.45935 0.0
C1724 C 0.68798 0.60172 0.58531 0.0
C1725 C 0.68305 0.63359 0.64118 0.0
H1726 H 0.6605 0.57337 0.50813 0.0
C1727 C 0.66384 0.66746 0.60738 0.0
H1728 H 0.70696 0.57845 0.58567 0.0
C1729 C 0.63932 0.66131 0.55658 0.0
C1730 C 0.6343 0.62579 0.53114 0.0
H1731 H 0.67534 0.64973 0.63436 0.0
H1732 H 0.62286 0.68452 0.53884 0.0
C1733 C 0.66128 0.59846 0.53784 0.0
C1734 C 0.60216 0.40665 0.39236 0.0
C1735 C 0.59934 0.39179 0.45288 0.0
H1736 H 0.60447 0.40258 0.29745 0.0
C1737 C 0.59323 0.35365 0.45936 0.0
H1738 H 0.60392 0.43675 0.38614 0.0
C1739 C 0.59261 0.33022 0.40501 0.0
C1740 C 0.60195 0.34151 0.33694 0.0
H1741 H 0.58704 0.34182 0.50692 0.0
H1742 H 0.58556 0.3021 0.42 0.0
C1743 C 0.60137 0.38384 0.33867 0.0
C1744 C 0.8113 0.5981 0.16113 0.0
C1745 C 0.81839 0.63012 0.10617 0.0
H1746 H 0.83492 0.5692 0.24135 0.0
C1747 C 0.83862 0.66302 0.14122 0.0
H1748 H 0.7923 0.57494 0.15889 0.0
C1749 C 0.86114 0.65606 0.1945 0.0
C1750 C 0.8634 0.62059 0.22114 0.0
H1751 H 0.82672 0.64583 0.11375 0.0
H1752 H 0.87878 0.67828 0.21242 0.0
C1753 C 0.83571 0.59443 0.21197 0.0
C1754 C 0.61947 0.09824 0.85854 0.0
C1755 C 0.60881 0.11399 0.80178 0.0
H1756 H 0.6345 0.10134 0.95001 0.0
C1757 C 0.60864 0.15252 0.79541 0.0
H1758 H 0.62063 0.06804 0.86329 0.0
C1759 C 0.61653 0.1755 0.8483 0.0
C1760 C 0.62379 0.16267 0.91649 0.0
H1761 H 0.60079 0.16531 0.74936 0.0
H1762 H 0.61455 0.20433 0.83267 0.0
C1763 C 0.62726 0.12053 0.91103 0.0
C1764 C 0.16019 0.41213 0.20905 0.0
C1765 C 0.13329 0.38481 0.21703 0.0
H1766 H 0.20578 0.43149 0.15983 0.0
C1767 C 0.13828 0.34895 0.19351 0.0
H1768 H 0.15934 0.43758 0.23778 0.0
C1769 C 0.16261 0.34223 0.143 0.0
C1770 C 0.18188 0.37561 0.10747 0.0
H1771 H 0.12179 0.326 0.21211 0.0
H1772 H 0.17395 0.35958 0.11537 0.0
C1773 C 0.18674 0.40841 0.16138 0.0
C1774 C 0.38452 0.88595 0.90614 0.0
C1775 C 0.38572 0.84394 0.91432 0.0
H1776 H 0.39806 0.93711 0.85844 0.0
C1777 C 0.39644 0.82972 0.84836 0.0
H1778 H 0.37431 0.90598 0.9416 0.0
C1779 C 0.41132 0.85107 0.79806 0.0
C1780 C 0.41403 0.88955 0.80339 0.0
H1781 H 0.39605 0.80072 0.83332 0.0
H1782 H 0.4202 0.83717 0.7536 0.0
C1783 C 0.39927 0.90681 0.85623 0.0
C1784 C 0.83275 0.84164 0.10549 0.0
C1785 C 0.82028 0.87714 0.14354 0.0
H1786 H 0.87157 0.81824 0.04004 0.0
C1787 C 0.82562 0.91162 0.09321 0.0
H1788 H 0.82425 0.85995 0.13436 0.0
C1789 C 0.85617 0.91106 0.05217 0.0
C1790 C 0.87659 0.87824 0.04332 0.0
H1791 H 0.8094 0.93697 0.09294 0.0
H1792 H 0.8632 0.93611 0.0251 0.0
C1793 C 0.86141 0.84399 0.06138 0.0
C1794 C 0.92022 0.14137 0.94276 0.0
C1795 C 0.89283 0.11434 0.95209 0.0
H1796 H 0.93851 0.18933 0.89792 0.0
C1797 C 0.85691 0.11992 0.92982 0.0
H1798 H 0.94593 0.14019 0.97043 0.0
C1799 C 0.84902 0.1464 0.88297 0.0
C1800 C 0.88078 0.16904 0.84868 0.0
H1801 H 0.83424 0.10319 0.94866 0.0
H1802 H 0.86519 0.16017 0.85677 0.0
C1803 C 0.91564 0.16998 0.89867 0.0
C1804 C 0.17506 0.1042 0.03826 0.0
C1805 C 0.13646 0.1075 0.03672 0.0
H1806 H 0.22491 0.11431 0.08698 0.0
C1807 C 0.11783 0.13164 0.07794 0.0
H1808 H 0.18952 0.08941 0.99971 0.0
C1809 C 0.13369 0.14433 0.13432 0.0
C1810 C 0.17282 0.13059 0.15661 0.0
H1811 H 0.0891 0.13911 0.06873 0.0
H1812 H 0.15583 0.13706 0.15458 0.0
C1813 C 0.1951 0.11735 0.09151 0.0
C1814 C 0.10848 0.83055 0.90223 0.0
C1815 C 0.11727 0.8449 0.83549 0.0
H1816 H 0.09004 0.83803 1.00045 0.0
C1817 C 0.11931 0.88691 0.84388 0.0
H1818 H 0.10744 0.8014 0.91618 0.0
C1819 C 0.1094 0.90784 0.89707 0.0
C1820 C 0.09775 0.8908 0.95232 0.0
H1821 H 0.12729 0.90704 0.80688 0.0
H1822 H 0.11124 0.9381 0.89475 0.0
C1823 C 0.09809 0.85212 0.95571 0.0
loop_
_geom_bond_atom_site_label_1
_geom_bond_atom_site_label_2
_geom_bond_distance
_geom_bond_site_symmetry_2
_ccdc_geom_bond_type
Eu0 N31 2.657 . S
Eu0 N38 2.609 . S
Eu0 O44 2.558 . S
Eu0 O45 2.612 . S
Eu0 O47 2.339 . S
Eu0 O48 2.563 . S
Eu0 O49 2.419 . S
Eu0 O51 2.380 . S
Eu0 O52 2.432 . S
Eu0 C64 2.848 . S
C1 C4 1.429 . S
C1 C5 1.411 . S
C1 N8 1.377 . S
C2 C4 1.420 . S
C2 C6 1.423 . S
C2 C14 1.392 . S
C3 C5 1.420 . S
C3 C6 1.351 . S
C3 H26 0.931 . S
C4 C1 1.429 . S
C4 C2 1.420 . S
C4 N12 1.362 . S
C5 C1 1.411 . S
C5 C3 1.420 . S
C5 C10 1.395 . S
C6 C2 1.423 . S
C6 C3 1.351 . S
C6 H18 0.930 . S
C7 C9 1.400 1_565 S
C7 C10 1.386 1_565 S
C7 H19 0.930 . S
N8 C1 1.377 . S
N8 C9 1.321 . S
N8 Eu11 2.609 . S
C9 C7 1.400 1_545 S
C9 N8 1.321 . S
C9 H16 0.930 . S
C10 C5 1.395 . S
C10 C7 1.386 1_545 S
C10 H29 0.930 1_545 S
Eu11 N8 2.609 . S
Eu11 N12 2.657 . S
Eu11 O45 2.380 . S
Eu11 O46 2.432 . S
Eu11 O50 2.558 1_554 S
Eu11 O51 2.612 . S
Eu11 O53 2.339 . S
Eu11 O54 2.563 1_554 S
Eu11 O55 2.419 1_554 S
Eu11 C75 2.848 1_554 S
N12 C4 1.362 . S
N12 Eu11 2.657 . S
N12 C13 1.334 . S
C13 N12 1.334 . S
C13 C15 1.413 . S
C13 H20 0.929 . S
C14 C2 1.392 . S
C14 C15 1.367 . S
C14 H22 0.930 . S
C15 C13 1.413 . S
C15 C14 1.367 . S
C15 H17 0.930 . S
H16 C9 0.930 . S
H17 C15 0.930 . S
H18 C6 0.930 . S
H19 C7 0.930 . S
H20 C13 0.929 . S
H21 C35 0.930 . S
H22 C14 0.930 . S
H23 C41 0.930 . S
H24 C32 0.929 . S
H25 C39 0.930 . S
H26 C3 0.931 . S
H27 C33 0.930 . S
H28 C66 0.930 . S
H29 C10 0.930 1_565 S
H30 C65 0.931 . S
N31 Eu0 2.657 . S
N31 C32 1.334 . S
N31 C36 1.362 . S
C32 H24 0.929 . S
C32 N31 1.334 . S
C32 C35 1.413 . S
C33 H27 0.930 . S
C33 C34 1.392 . S
C33 C35 1.367 . S
C34 C33 1.392 . S
C34 C36 1.420 . S
C34 C66 1.423 . S
C35 H21 0.930 . S
C35 C32 1.413 . S
C35 C33 1.367 . S
C36 N31 1.362 . S
C36 C34 1.420 . S
C36 C40 1.429 . S
H37 C42 0.930 . S
N38 Eu0 2.609 . S
N38 C40 1.377 . S
N38 C41 1.321 . S
C39 H25 0.930 . S
C39 C41 1.400 . S
C39 C42 1.386 . S
C40 C36 1.429 . S
C40 N38 1.377 . S
C40 C43 1.411 . S
C41 H23 0.930 . S
C41 N38 1.321 . S
C41 C39 1.400 . S
C42 H37 0.930 . S
C42 C39 1.386 . S
C42 C43 1.395 . S
C43 C40 1.411 . S
C43 C42 1.395 . S
C43 C65 1.420 . S
O44 Eu0 2.558 . S
O44 C64 1.257 . S
O45 Eu0 2.612 . S
O45 Eu11 2.380 . S
O45 C56 1.276 . S
O46 Eu11 2.432 . S
O46 C63 1.264 . S
O47 Eu0 2.339 . S
O47 C63 1.254 . S
O48 Eu0 2.563 . S
O48 C56 1.235 . S
O49 Eu0 2.419 . S
O49 C64 1.249 . S
O50 Eu11 2.558 1_556 S
O50 C75 1.257 . S
O51 Eu0 2.380 . S
O51 Eu11 2.612 . S
O51 C67 1.276 . S
O52 Eu0 2.432 . S
O52 C74 1.264 . S
O53 Eu11 2.339 . S
O53 C74 1.254 . S
O54 Eu11 2.563 1_556 S
O54 C67 1.235 1_556 S
O55 Eu11 2.419 1_556 S
O55 C75 1.249 . S
C56 O45 1.276 . S
C56 O48 1.235 . S
C57 C59 1.393 . S
C57 C61 1.395 . S
C57 C64 1.492 . S
C58 C59 1.392 . S
C58 C60 1.386 . S
C59 C57 1.393 . S
C59 C58 1.392 . S
C59 H76 0.930 . S
C60 C58 1.386 . S
C60 C62 1.395 . S
C60 H77 0.930 . S
C61 C57 1.395 . S
C61 C62 1.379 . S
C61 H78 0.930 . S
C62 C60 1.395 . S
C62 C61 1.379 . S
C62 H79 0.930 . S
C63 O46 1.264 . S
C63 O47 1.254 . S
C64 Eu0 2.848 . S
C64 O44 1.257 . S
C64 O49 1.249 . S
C64 C57 1.492 . S
C65 H30 0.931 . S
C65 C43 1.420 . S
C65 C66 1.351 . S
C66 H28 0.930 . S
C66 C34 1.423 . S
C66 C65 1.351 . S
C67 O51 1.276 . S
C67 O54 1.235 1_554 S
C68 C69 1.393 . S
C68 C72 1.395 . S
C68 C75 1.492 . S
C69 C68 1.393 . S
C69 C70 1.392 . S
C69 H80 0.930 . S
C70 C69 1.392 . S
C70 C71 1.386 . S
C71 C70 1.386 . S
C71 C73 1.395 . S
C71 H81 0.930 . S
C72 C68 1.395 . S
C72 C73 1.379 . S
C72 H82 0.930 . S
C73 C71 1.395 . S
C73 C72 1.379 . S
C73 H83 0.930 . S
C74 O52 1.264 . S
C74 O53 1.254 . S
C75 Eu11 2.848 1_556 S
C75 O50 1.257 . S
C75 O55 1.249 . S
C75 C68 1.492 . S
H76 C59 0.930 . S
H77 C60 0.930 . S
H78 C61 0.930 . S
H79 C62 0.930 . S
H80 C69 0.930 . S
H81 C71 0.930 . S
H82 C72 0.930 . S
H83 C73 0.930 . S
Eu84 N115 2.657 . S
Eu84 N122 2.609 . S
Eu84 O128 2.558 1_556 S
Eu84 O129 2.612 . S
Eu84 O131 2.339 . S
Eu84 O132 2.563 1_556 S
Eu84 O133 2.419 1_556 S
Eu84 O135 2.380 . S
Eu84 O136 2.432 . S
Eu84 C148 2.848 1_556 S
C85 C88 1.429 . S
C85 C89 1.411 . S
C85 N92 1.377 . S
C86 C88 1.420 . S
C86 C90 1.423 . S
C86 C98 1.392 . S
C87 C89 1.420 . S
C87 C90 1.351 . S
C87 H110 0.931 . S
C88 C85 1.429 . S
C88 C86 1.420 . S
C88 N96 1.362 . S
C89 C85 1.411 . S
C89 C87 1.420 . S
C89 C94 1.395 . S
C90 C86 1.423 . S
C90 C87 1.351 . S
C90 H102 0.930 . S
C91 C93 1.400 . S
C91 C94 1.386 . S
C91 H103 0.930 . S
N92 C85 1.377 . S
N92 C93 1.321 . S
N92 Eu95 2.609 . S
C93 C91 1.400 . S
C93 N92 1.321 . S
C93 H100 0.930 . S
C94 C89 1.395 . S
C94 C91 1.386 . S
C94 H113 0.930 . S
Eu95 N92 2.609 . S
Eu95 N96 2.657 . S
Eu95 O129 2.380 . S
Eu95 O130 2.432 . S
Eu95 O134 2.558 . S
Eu95 O135 2.612 . S
Eu95 O137 2.339 . S
Eu95 O138 2.563 . S
Eu95 O139 2.419 . S
Eu95 C159 2.848 . S
N96 C88 1.362 . S
N96 Eu95 2.657 . S
N96 C97 1.334 . S
C97 N96 1.334 . S
C97 C99 1.413 . S
C97 H104 0.929 . S
C98 C86 1.392 . S
C98 C99 1.367 . S
C98 H106 0.930 . S
C99 C97 1.413 . S
C99 C98 1.367 . S
C99 H101 0.930 . S
H100 C93 0.930 . S
H101 C99 0.930 . S
H102 C90 0.930 . S
H103 C91 0.930 . S
H104 C97 0.929 . S
H105 C119 0.930 . S
H106 C98 0.930 . S
H107 C125 0.930 . S
H108 C116 0.929 . S
H109 C123 0.930 . S
H110 C87 0.931 . S
H111 C117 0.930 . S
H112 C150 0.930 . S
H113 C94 0.930 . S
H114 C149 0.931 . S
N115 Eu84 2.657 . S
N115 C116 1.334 . S
N115 C120 1.362 . S
C116 H108 0.929 . S
C116 N115 1.334 . S
C116 C119 1.413 . S
C117 H111 0.930 . S
C117 C118 1.392 . S
C117 C119 1.367 . S
C118 C117 1.392 . S
C118 C120 1.420 . S
C118 C150 1.423 . S
C119 H105 0.930 . S
C119 C116 1.413 . S
C119 C117 1.367 . S
C120 N115 1.362 . S
C120 C118 1.420 . S
C120 C124 1.429 . S
H121 C126 0.930 1_655 S
N122 Eu84 2.609 . S
N122 C124 1.377 . S
N122 C125 1.321 . S
C123 H109 0.930 . S
C123 C125 1.400 1_655 S
C123 C126 1.386 1_655 S
C124 C120 1.429 . S
C124 N122 1.377 . S
C124 C127 1.411 . S
C125 H107 0.930 . S
C125 N122 1.321 . S
C125 C123 1.400 1_455 S
C126 H121 0.930 1_455 S
C126 C123 1.386 1_455 S
C126 C127 1.395 . S
C127 C124 1.411 . S
C127 C126 1.395 . S
C127 C149 1.420 . S
O128 Eu84 2.558 1_554 S
O128 C148 1.257 . S
O129 Eu84 2.612 . S
O129 Eu95 2.380 . S
O129 C140 1.276 . S
O130 Eu95 2.432 . S
O130 C147 1.264 . S
O131 Eu84 2.339 . S
O131 C147 1.254 . S
O132 Eu84 2.563 1_554 S
O132 C140 1.235 1_554 S
O133 Eu84 2.419 1_554 S
O133 C148 1.249 . S
O134 Eu95 2.558 . S
O134 C159 1.257 . S
O135 Eu84 2.380 . S
O135 Eu95 2.612 . S
O135 C151 1.276 . S
O136 Eu84 2.432 . S
O136 C158 1.264 . S
O137 Eu95 2.339 . S
O137 C158 1.254 . S
O138 Eu95 2.563 . S
O138 C151 1.235 . S
O139 Eu95 2.419 . S
O139 C159 1.249 . S
C140 O129 1.276 . S
C140 O132 1.235 1_556 S
C141 C143 1.393 . S
C141 C145 1.395 . S
C141 C148 1.492 . S
C142 C143 1.392 . S
C142 C144 1.386 . S
C143 C141 1.393 . S
C143 C142 1.392 . S
C143 H160 0.930 . S
C144 C142 1.386 . S
C144 C146 1.395 . S
C144 H161 0.930 . S
C145 C141 1.395 . S
C145 C146 1.379 . S
C145 H162 0.930 . S
C146 C144 1.395 . S
C146 C145 1.379 . S
C146 H163 0.930 . S
C147 O130 1.264 . S
C147 O131 1.254 . S
C148 Eu84 2.848 1_554 S
C148 O128 1.257 . S
C148 O133 1.249 . S
C148 C141 1.492 . S
C149 H114 0.931 . S
C149 C127 1.420 . S
C149 C150 1.351 . S
C150 H112 0.930 . S
C150 C118 1.423 . S
C150 C149 1.351 . S
C151 O135 1.276 . S
C151 O138 1.235 . S
C152 C153 1.393 . S
C152 C156 1.395 . S
C152 C159 1.492 . S
C153 C152 1.393 . S
C153 C154 1.392 . S
C153 H164 0.930 . S
C154 C153 1.392 . S
C154 C155 1.386 . S
C155 C154 1.386 . S
C155 C157 1.395 . S
C155 H165 0.930 . S
C156 C152 1.395 . S
C156 C157 1.379 . S
C156 H166 0.930 . S
C157 C155 1.395 . S
C157 C156 1.379 . S
C157 H167 0.930 . S
C158 O136 1.264 . S
C158 O137 1.254 . S
C159 Eu95 2.848 . S
C159 O134 1.257 . S
C159 O139 1.249 . S
C159 C152 1.492 . S
H160 C143 0.930 . S
H161 C144 0.930 . S
H162 C145 0.930 . S
H163 C146 0.930 . S
H164 C153 0.930 . S
H165 C155 0.930 . S
H166 C156 0.930 . S
H167 C157 0.930 . S
Eu168 N199 2.657 . S
Eu168 N206 2.609 . S
Eu168 O212 2.558 . S
Eu168 O213 2.612 . S
Eu168 O215 2.339 . S
Eu168 O216 2.563 . S
Eu168 O217 2.419 . S
Eu168 O219 2.380 . S
Eu168 O220 2.432 . S
Eu168 C232 2.848 . S
C169 C172 1.429 . S
C169 C173 1.411 . S
C169 N176 1.377 . S
C170 C172 1.420 . S
C170 C174 1.423 . S
C170 C182 1.392 . S
C171 C173 1.420 . S
C171 C174 1.351 . S
C171 H194 0.931 . S
C172 C169 1.429 . S
C172 C170 1.420 . S
C172 N180 1.362 . S
C173 C169 1.411 . S
C173 C171 1.420 . S
C173 C178 1.395 . S
C174 C170 1.423 . S
C174 C171 1.351 . S
C174 H186 0.930 . S
C175 C177 1.400 1_545 S
C175 C178 1.386 1_545 S
C175 H187 0.930 . S
N176 C169 1.377 . S
N176 C177 1.321 . S
N176 Eu179 2.609 . S
C177 C175 1.400 1_565 S
C177 N176 1.321 . S
C177 H184 0.930 . S
C178 C173 1.395 . S
C178 C175 1.386 1_565 S
C178 H197 0.930 1_565 S
Eu179 N176 2.609 . S
Eu179 N180 2.657 . S
Eu179 O213 2.380 . S
Eu179 O214 2.432 . S
Eu179 O218 2.558 1_554 S
Eu179 O219 2.612 . S
Eu179 O221 2.339 . S
Eu179 O222 2.563 1_554 S
Eu179 O223 2.419 1_554 S
Eu179 C243 2.848 1_554 S
N180 C172 1.362 . S
N180 Eu179 2.657 . S
N180 C181 1.334 . S
C181 N180 1.334 . S
C181 C183 1.413 . S
C181 H188 0.929 . S
C182 C170 1.392 . S
C182 C183 1.367 . S
C182 H190 0.930 . S
C183 C181 1.413 . S
C183 C182 1.367 . S
C183 H185 0.930 . S
H184 C177 0.930 . S
H185 C183 0.930 . S
H186 C174 0.930 . S
H187 C175 0.930 . S
H188 C181 0.929 . S
H189 C203 0.930 . S
H190 C182 0.930 . S
H191 C209 0.930 . S
H192 C200 0.929 . S
H193 C207 0.930 . S
H194 C171 0.931 . S
H195 C201 0.930 . S
H196 C234 0.930 . S
H197 C178 0.930 1_545 S
H198 C233 0.931 . S
N199 Eu168 2.657 . S
N199 C200 1.334 . S
N199 C204 1.362 . S
C200 H192 0.929 . S
C200 N199 1.334 . S
C200 C203 1.413 . S
C201 H195 0.930 . S
C201 C202 1.392 . S
C201 C203 1.367 . S
C202 C201 1.392 . S
C202 C204 1.420 . S
C202 C234 1.423 . S
C203 H189 0.930 . S
C203 C200 1.413 . S
C203 C201 1.367 . S
C204 N199 1.362 . S
C204 C202 1.420 . S
C204 C208 1.429 . S
H205 C210 0.930 . S
N206 Eu168 2.609 . S
N206 C208 1.377 . S
N206 C209 1.321 . S
C207 H193 0.930 . S
C207 C209 1.400 . S
C207 C210 1.386 . S
C208 C204 1.429 . S
C208 N206 1.377 . S
C208 C211 1.411 . S
C209 H191 0.930 . S
C209 N206 1.321 . S
C209 C207 1.400 . S
C210 H205 0.930 . S
C210 C207 1.386 . S
C210 C211 1.395 . S
C211 C208 1.411 . S
C211 C210 1.395 . S
C211 C233 1.420 . S
O212 Eu168 2.558 . S
O212 C232 1.257 . S
O213 Eu168 2.612 . S
O213 Eu179 2.380 . S
O213 C224 1.276 . S
O214 Eu179 2.432 . S
O214 C231 1.264 . S
O215 Eu168 2.339 . S
O215 C231 1.254 . S
O216 Eu168 2.563 . S
O216 C224 1.235 . S
O217 Eu168 2.419 . S
O217 C232 1.249 . S
O218 Eu179 2.558 1_556 S
O218 C243 1.257 . S
O219 Eu168 2.380 . S
O219 Eu179 2.612 . S
O219 C235 1.276 . S
O220 Eu168 2.432 . S
O220 C242 1.264 . S
O221 Eu179 2.339 . S
O221 C242 1.254 . S
O222 Eu179 2.563 1_556 S
O222 C235 1.235 1_556 S
O223 Eu179 2.419 1_556 S
O223 C243 1.249 . S
C224 O213 1.276 . S
C224 O216 1.235 . S
C225 C227 1.393 . S
C225 C229 1.395 . S
C225 C232 1.492 . S
C226 C227 1.392 . S
C226 C228 1.386 . S
C227 C225 1.393 . S
C227 C226 1.392 . S
C227 H244 0.930 . S
C228 C226 1.386 . S
C228 C230 1.395 . S
C228 H245 0.930 . S
C229 C225 1.395 . S
C229 C230 1.379 . S
C229 H246 0.930 . S
C230 C228 1.395 . S
C230 C229 1.379 . S
C230 H247 0.930 . S
C231 O214 1.264 . S
C231 O215 1.254 . S
C232 Eu168 2.848 . S
C232 O212 1.257 . S
C232 O217 1.249 . S
C232 C225 1.492 . S
C233 H198 0.931 . S
C233 C211 1.420 . S
C233 C234 1.351 . S
C234 H196 0.930 . S
C234 C202 1.423 . S
C234 C233 1.351 . S
C235 O219 1.276 . S
C235 O222 1.235 1_554 S
C236 C237 1.393 . S
C236 C240 1.395 . S
C236 C243 1.492 . S
C237 C236 1.393 . S
C237 C238 1.392 . S
C237 H248 0.930 . S
C238 C237 1.392 . S
C238 C239 1.386 . S
C239 C238 1.386 . S
C239 C241 1.395 . S
C239 H249 0.930 . S
C240 C236 1.395 . S
C240 C241 1.379 . S
C240 H250 0.930 . S
C241 C239 1.395 . S
C241 C240 1.379 . S
C241 H251 0.930 . S
C242 O220 1.264 . S
C242 O221 1.254 . S
C243 Eu179 2.848 1_556 S
C243 O218 1.257 . S
C243 O223 1.249 . S
C243 C236 1.492 . S
H244 C227 0.930 . S
H245 C228 0.930 . S
H246 C229 0.930 . S
H247 C230 0.930 . S
H248 C237 0.930 . S
H249 C239 0.930 . S
H250 C240 0.930 . S
H251 C241 0.930 . S
Eu252 N283 2.657 . S
Eu252 N290 2.609 . S
Eu252 O296 2.558 1_556 S
Eu252 O297 2.612 . S
Eu252 O299 2.339 . S
Eu252 O300 2.563 1_556 S
Eu252 O301 2.419 1_556 S
Eu252 O303 2.380 . S
Eu252 O304 2.432 . S
Eu252 C316 2.848 1_556 S
C253 C256 1.429 . S
C253 C257 1.411 . S
C253 N260 1.377 . S
C254 C256 1.420 . S
C254 C258 1.423 . S
C254 C266 1.392 . S
C255 C257 1.420 . S
C255 C258 1.351 . S
C255 H278 0.931 . S
C256 C253 1.429 . S
C256 C254 1.420 . S
C256 N264 1.362 . S
C257 C253 1.411 . S
C257 C255 1.420 . S
C257 C262 1.395 . S
C258 C254 1.423 . S
C258 C255 1.351 . S
C258 H270 0.930 . S
C259 C261 1.400 . S
C259 C262 1.386 . S
C259 H271 0.930 . S
N260 C253 1.377 . S
N260 C261 1.321 . S
N260 Eu263 2.609 . S
C261 C259 1.400 . S
C261 N260 1.321 . S
C261 H268 0.930 . S
C262 C257 1.395 . S
C262 C259 1.386 . S
C262 H281 0.930 . S
Eu263 N260 2.609 . S
Eu263 N264 2.657 . S
Eu263 O297 2.380 . S
Eu263 O298 2.432 . S
Eu263 O302 2.558 . S
Eu263 O303 2.612 . S
Eu263 O305 2.339 . S
Eu263 O306 2.563 . S
Eu263 O307 2.419 . S
Eu263 C327 2.848 . S
N264 C256 1.362 . S
N264 Eu263 2.657 . S
N264 C265 1.334 . S
C265 N264 1.334 . S
C265 C267 1.413 . S
C265 H272 0.929 . S
C266 C254 1.392 . S
C266 C267 1.367 . S
C266 H274 0.930 . S
C267 C265 1.413 . S
C267 C266 1.367 . S
C267 H269 0.930 . S
H268 C261 0.930 . S
H269 C267 0.930 . S
H270 C258 0.930 . S
H271 C259 0.930 . S
H272 C265 0.929 . S
H273 C287 0.930 . S
H274 C266 0.930 . S
H275 C293 0.930 . S
H276 C284 0.929 . S
H277 C291 0.930 . S
H278 C255 0.931 . S
H279 C285 0.930 . S
H280 C318 0.930 . S
H281 C262 0.930 . S
H282 C317 0.931 . S
N283 Eu252 2.657 . S
N283 C284 1.334 . S
N283 C288 1.362 . S
C284 H276 0.929 . S
C284 N283 1.334 . S
C284 C287 1.413 . S
C285 H279 0.930 . S
C285 C286 1.392 . S
C285 C287 1.367 . S
C286 C285 1.392 . S
C286 C288 1.420 . S
C286 C318 1.423 . S
C287 H273 0.930 . S
C287 C284 1.413 . S
C287 C285 1.367 . S
C288 N283 1.362 . S
C288 C286 1.420 . S
C288 C292 1.429 . S
H289 C294 0.930 1_455 S
N290 Eu252 2.609 . S
N290 C292 1.377 . S
N290 C293 1.321 . S
C291 H277 0.930 . S
C291 C293 1.400 1_455 S
C291 C294 1.386 1_455 S
C292 C288 1.429 . S
C292 N290 1.377 . S
C292 C295 1.411 . S
C293 H275 0.930 . S
C293 N290 1.321 . S
C293 C291 1.400 1_655 S
C294 H289 0.930 1_655 S
C294 C291 1.386 1_655 S
C294 C295 1.395 . S
C295 C292 1.411 . S
C295 C294 1.395 . S
C295 C317 1.420 . S
O296 Eu252 2.558 1_554 S
O296 C316 1.257 . S
O297 Eu252 2.612 . S
O297 Eu263 2.380 . S
O297 C308 1.276 . S
O298 Eu263 2.432 . S
O298 C315 1.264 . S
O299 Eu252 2.339 . S
O299 C315 1.254 . S
O300 Eu252 2.563 1_554 S
O300 C308 1.235 1_554 S
O301 Eu252 2.419 1_554 S
O301 C316 1.249 . S
O302 Eu263 2.558 . S
O302 C327 1.257 . S
O303 Eu252 2.380 . S
O303 Eu263 2.612 . S
O303 C319 1.276 . S
O304 Eu252 2.432 . S
O304 C326 1.264 . S
O305 Eu263 2.339 . S
O305 C326 1.254 . S
O306 Eu263 2.563 . S
O306 C319 1.235 . S
O307 Eu263 2.419 . S
O307 C327 1.249 . S
C308 O297 1.276 . S
C308 O300 1.235 1_556 S
C309 C311 1.393 . S
C309 C313 1.395 . S
C309 C316 1.492 . S
C310 C311 1.392 . S
C310 C312 1.386 . S
C311 C309 1.393 . S
C311 C310 1.392 . S
C311 H328 0.930 . S
C312 C310 1.386 . S
C312 C314 1.395 . S
C312 H329 0.930 . S
C313 C309 1.395 . S
C313 C314 1.379 . S
C313 H330 0.930 . S
C314 C312 1.395 . S
C314 C313 1.379 . S
C314 H331 0.930 . S
C315 O298 1.264 . S
C315 O299 1.254 . S
C316 Eu252 2.848 1_554 S
C316 O296 1.257 . S
C316 O301 1.249 . S
C316 C309 1.492 . S
C317 H282 0.931 . S
C317 C295 1.420 . S
C317 C318 1.351 . S
C318 H280 0.930 . S
C318 C286 1.423 . S
C318 C317 1.351 . S
C319 O303 1.276 . S
C319 O306 1.235 . S
C320 C321 1.393 . S
C320 C324 1.395 . S
C320 C327 1.492 . S
C321 C320 1.393 . S
C321 C322 1.392 . S
C321 H332 0.930 . S
C322 C321 1.392 . S
C322 C323 1.386 . S
C323 C322 1.386 . S
C323 C325 1.395 . S
C323 H333 0.930 . S
C324 C320 1.395 . S
C324 C325 1.379 . S
C324 H334 0.930 . S
C325 C323 1.395 . S
C325 C324 1.379 . S
C325 H335 0.930 . S
C326 O304 1.264 . S
C326 O305 1.254 . S
C327 Eu263 2.848 . S
C327 O302 1.257 . S
C327 O307 1.249 . S
C327 C320 1.492 . S
H328 C311 0.930 . S
H329 C312 0.930 . S
H330 C313 0.930 . S
H331 C314 0.930 . S
H332 C321 0.930 . S
H333 C323 0.930 . S
H334 C324 0.930 . S
H335 C325 0.930 . S
Eu336 N367 2.657 . S
Eu336 N374 2.609 . S
Eu336 O380 2.558 1_554 S
Eu336 O381 2.612 . S
Eu336 O383 2.339 . S
Eu336 O384 2.563 1_554 S
Eu336 O385 2.419 1_554 S
Eu336 O387 2.380 . S
Eu336 O388 2.432 . S
Eu336 C400 2.848 1_554 S
C337 C340 1.429 . S
C337 C341 1.411 . S
C337 N344 1.377 . S
C338 C340 1.420 . S
C338 C342 1.423 . S
C338 C350 1.392 . S
C339 C341 1.420 . S
C339 C342 1.351 . S
C339 H362 0.931 . S
C340 C337 1.429 . S
C340 C338 1.420 . S
C340 N348 1.362 . S
C341 C337 1.411 . S
C341 C339 1.420 . S
C341 C346 1.395 . S
C342 C338 1.423 . S
C342 C339 1.351 . S
C342 H354 0.930 . S
C343 C345 1.400 . S
C343 C346 1.386 . S
C343 H355 0.930 . S
N344 C337 1.377 . S
N344 C345 1.321 . S
N344 Eu347 2.609 . S
C345 C343 1.400 . S
C345 N344 1.321 . S
C345 H352 0.930 . S
C346 C341 1.395 . S
C346 C343 1.386 . S
C346 H365 0.930 . S
Eu347 N344 2.609 . S
Eu347 N348 2.657 . S
Eu347 O381 2.380 . S
Eu347 O382 2.432 . S
Eu347 O386 2.558 . S
Eu347 O387 2.612 . S
Eu347 O389 2.339 . S
Eu347 O390 2.563 . S
Eu347 O391 2.419 . S
Eu347 C411 2.848 . S
N348 C340 1.362 . S
N348 Eu347 2.657 . S
N348 C349 1.334 . S
C349 N348 1.334 . S
C349 C351 1.413 . S
C349 H356 0.929 . S
C350 C338 1.392 . S
C350 C351 1.367 . S
C350 H358 0.930 . S
C351 C349 1.413 . S
C351 C350 1.367 . S
C351 H353 0.930 . S
H352 C345 0.930 . S
H353 C351 0.930 . S
H354 C342 0.930 . S
H355 C343 0.930 . S
H356 C349 0.929 . S
H357 C371 0.930 . S
H358 C350 0.930 . S
H359 C377 0.930 . S
H360 C368 0.929 . S
H361 C375 0.930 . S
H362 C339 0.931 . S
H363 C369 0.930 . S
H364 C402 0.930 . S
H365 C346 0.930 . S
H366 C401 0.931 . S
N367 Eu336 2.657 . S
N367 C368 1.334 . S
N367 C372 1.362 . S
C368 H360 0.929 . S
C368 N367 1.334 . S
C368 C371 1.413 . S
C369 H363 0.930 . S
C369 C370 1.392 . S
C369 C371 1.367 . S
C370 C369 1.392 . S
C370 C372 1.420 . S
C370 C402 1.423 . S
C371 H357 0.930 . S
C371 C368 1.413 . S
C371 C369 1.367 . S
C372 N367 1.362 . S
C372 C370 1.420 . S
C372 C376 1.429 . S
H373 C378 0.930 . S
N374 Eu336 2.609 . S
N374 C376 1.377 . S
N374 C377 1.321 . S
C375 H361 0.930 . S
C375 C377 1.400 . S
C375 C378 1.386 . S
C376 C372 1.429 . S
C376 N374 1.377 . S
C376 C379 1.411 . S
C377 H359 0.930 . S
C377 N374 1.321 . S
C377 C375 1.400 . S
C378 H373 0.930 . S
C378 C375 1.386 . S
C378 C379 1.395 . S
C379 C376 1.411 . S
C379 C378 1.395 . S
C379 C401 1.420 . S
O380 Eu336 2.558 1_556 S
O380 C400 1.257 . S
O381 Eu336 2.612 . S
O381 Eu347 2.380 . S
O381 C392 1.276 . S
O382 Eu347 2.432 . S
O382 C399 1.264 . S
O383 Eu336 2.339 . S
O383 C399 1.254 . S
O384 Eu336 2.563 1_556 S
O384 C392 1.235 1_556 S
O385 Eu336 2.419 1_556 S
O385 C400 1.249 . S
O386 Eu347 2.558 . S
O386 C411 1.257 . S
O387 Eu336 2.380 . S
O387 Eu347 2.612 . S
O387 C403 1.276 . S
O388 Eu336 2.432 . S
O388 C410 1.264 . S
O389 Eu347 2.339 . S
O389 C410 1.254 . S
O390 Eu347 2.563 . S
O390 C403 1.235 . S
O391 Eu347 2.419 . S
O391 C411 1.249 . S
C392 O381 1.276 . S
C392 O384 1.235 1_554 S
C393 C395 1.393 . S
C393 C397 1.395 . S
C393 C400 1.492 . S
C394 C395 1.392 . S
C394 C396 1.386 . S
C395 C393 1.393 . S
C395 C394 1.392 . S
C395 H412 0.930 . S
C396 C394 1.386 . S
C396 C398 1.395 . S
C396 H413 0.930 . S
C397 C393 1.395 . S
C397 C398 1.379 . S
C397 H414 0.930 . S
C398 C396 1.395 . S
C398 C397 1.379 . S
C398 H415 0.930 . S
C399 O382 1.264 . S
C399 O383 1.254 . S
C400 Eu336 2.848 1_556 S
C400 O380 1.257 . S
C400 O385 1.249 . S
C400 C393 1.492 . S
C401 H366 0.931 . S
C401 C379 1.420 . S
C401 C402 1.351 . S
C402 H364 0.930 . S
C402 C370 1.423 . S
C402 C401 1.351 . S
C403 O387 1.276 . S
C403 O390 1.235 . S
C404 C405 1.393 . S
C404 C408 1.395 . S
C404 C411 1.492 . S
C405 C404 1.393 . S
C405 C406 1.392 . S
C405 H416 0.930 . S
C406 C405 1.392 . S
C406 C407 1.386 . S
C407 C406 1.386 . S
C407 C409 1.395 . S
C407 H417 0.930 . S
C408 C404 1.395 . S
C408 C409 1.379 . S
C408 H418 0.930 . S
C409 C407 1.395 . S
C409 C408 1.379 . S
C409 H419 0.930 . S
C410 O388 1.264 . S
C410 O389 1.254 . S
C411 Eu347 2.848 . S
C411 O386 1.257 . S
C411 O391 1.249 . S
C411 C404 1.492 . S
H412 C395 0.930 . S
H413 C396 0.930 . S
H414 C397 0.930 . S
H415 C398 0.930 . S
H416 C405 0.930 . S
H417 C407 0.930 . S
H418 C408 0.930 . S
H419 C409 0.930 . S
Eu420 N451 2.657 . S
Eu420 N458 2.609 . S
Eu420 O464 2.558 . S
Eu420 O465 2.612 . S
Eu420 O467 2.339 . S
Eu420 O468 2.563 . S
Eu420 O469 2.419 . S
Eu420 O471 2.380 . S
Eu420 O472 2.432 . S
Eu420 C484 2.848 . S
C421 C424 1.429 . S
C421 C425 1.411 . S
C421 N428 1.377 . S
C422 C424 1.420 . S
C422 C426 1.423 . S
C422 C434 1.392 . S
C423 C425 1.420 . S
C423 C426 1.351 . S
C423 H446 0.931 . S
C424 C421 1.429 . S
C424 C422 1.420 . S
C424 N432 1.362 . S
C425 C421 1.411 . S
C425 C423 1.420 . S
C425 C430 1.395 . S
C426 C422 1.423 . S
C426 C423 1.351 . S
C426 H438 0.930 . S
C427 C429 1.400 . S
C427 C430 1.386 . S
C427 H439 0.930 . S
N428 C421 1.377 . S
N428 C429 1.321 . S
N428 Eu431 2.609 . S
C429 C427 1.400 . S
C429 N428 1.321 . S
C429 H436 0.930 . S
C430 C425 1.395 . S
C430 C427 1.386 . S
C430 H449 0.930 . S
Eu431 N428 2.609 . S
Eu431 N432 2.657 . S
Eu431 O465 2.380 . S
Eu431 O466 2.432 . S
Eu431 O470 2.558 1_556 S
Eu431 O471 2.612 . S
Eu431 O473 2.339 . S
Eu431 O474 2.563 1_556 S
Eu431 O475 2.419 1_556 S
Eu431 C495 2.848 1_556 S
N432 C424 1.362 . S
N432 Eu431 2.657 . S
N432 C433 1.334 . S
C433 N432 1.334 . S
C433 C435 1.413 . S
C433 H440 0.929 . S
C434 C422 1.392 . S
C434 C435 1.367 . S
C434 H442 0.930 . S
C435 C433 1.413 . S
C435 C434 1.367 . S
C435 H437 0.930 . S
H436 C429 0.930 . S
H437 C435 0.930 . S
H438 C426 0.930 . S
H439 C427 0.930 . S
H440 C433 0.929 . S
H441 C455 0.930 . S
H442 C434 0.930 . S
H443 C461 0.930 . S
H444 C452 0.929 . S
H445 C459 0.930 . S
H446 C423 0.931 . S
H447 C453 0.930 . S
H448 C486 0.930 . S
H449 C430 0.930 . S
H450 C485 0.931 . S
N451 Eu420 2.657 . S
N451 C452 1.334 . S
N451 C456 1.362 . S
C452 H444 0.929 . S
C452 N451 1.334 . S
C452 C455 1.413 . S
C453 H447 0.930 . S
C453 C454 1.392 . S
C453 C455 1.367 . S
C454 C453 1.392 . S
C454 C456 1.420 . S
C454 C486 1.423 . S
C455 H441 0.930 . S
C455 C452 1.413 . S
C455 C453 1.367 . S
C456 N451 1.362 . S
C456 C454 1.420 . S
C456 C460 1.429 . S
H457 C462 0.930 . S
N458 Eu420 2.609 . S
N458 C460 1.377 . S
N458 C461 1.321 . S
C459 H445 0.930 . S
C459 C461 1.400 . S
C459 C462 1.386 . S
C460 C456 1.429 . S
C460 N458 1.377 . S
C460 C463 1.411 . S
C461 H443 0.930 . S
C461 N458 1.321 . S
C461 C459 1.400 . S
C462 H457 0.930 . S
C462 C459 1.386 . S
C462 C463 1.395 . S
C463 C460 1.411 . S
C463 C462 1.395 . S
C463 C485 1.420 . S
O464 Eu420 2.558 . S
O464 C484 1.257 . S
O465 Eu420 2.612 . S
O465 Eu431 2.380 . S
O465 C476 1.276 . S
O466 Eu431 2.432 . S
O466 C483 1.264 . S
O467 Eu420 2.339 . S
O467 C483 1.254 . S
O468 Eu420 2.563 . S
O468 C476 1.235 . S
O469 Eu420 2.419 . S
O469 C484 1.249 . S
O470 Eu431 2.558 1_554 S
O470 C495 1.257 . S
O471 Eu420 2.380 . S
O471 Eu431 2.612 . S
O471 C487 1.276 . S
O472 Eu420 2.432 . S
O472 C494 1.264 . S
O473 Eu431 2.339 . S
O473 C494 1.254 . S
O474 Eu431 2.563 1_554 S
O474 C487 1.235 1_554 S
O475 Eu431 2.419 1_554 S
O475 C495 1.249 . S
C476 O465 1.276 . S
C476 O468 1.235 . S
C477 C479 1.393 . S
C477 C481 1.395 . S
C477 C484 1.492 . S
C478 C479 1.392 . S
C478 C480 1.386 . S
C479 C477 1.393 . S
C479 C478 1.392 . S
C479 H496 0.930 . S
C480 C478 1.386 . S
C480 C482 1.395 . S
C480 H497 0.930 . S
C481 C477 1.395 . S
C481 C482 1.379 . S
C481 H498 0.930 . S
C482 C480 1.395 . S
C482 C481 1.379 . S
C482 H499 0.930 . S
C483 O466 1.264 . S
C483 O467 1.254 . S
C484 Eu420 2.848 . S
C484 O464 1.257 . S
C484 O469 1.249 . S
C484 C477 1.492 . S
C485 H450 0.931 . S
C485 C463 1.420 . S
C485 C486 1.351 . S
C486 H448 0.930 . S
C486 C454 1.423 . S
C486 C485 1.351 . S
C487 O471 1.276 . S
C487 O474 1.235 1_556 S
C488 C489 1.393 . S
C488 C492 1.395 . S
C488 C495 1.492 . S
C489 C488 1.393 . S
C489 C490 1.392 . S
C489 H500 0.930 . S
C490 C489 1.392 . S
C490 C491 1.386 . S
C491 C490 1.386 . S
C491 C493 1.395 . S
C491 H501 0.930 . S
C492 C488 1.395 . S
C492 C493 1.379 . S
C492 H502 0.930 . S
C493 C491 1.395 . S
C493 C492 1.379 . S
C493 H503 0.930 . S
C494 O472 1.264 . S
C494 O473 1.254 . S
C495 Eu431 2.848 1_554 S
C495 O470 1.257 . S
C495 O475 1.249 . S
C495 C488 1.492 . S
H496 C479 0.930 . S
H497 C480 0.930 . S
H498 C481 0.930 . S
H499 C482 0.930 . S
H500 C489 0.930 . S
H501 C491 0.930 . S
H502 C492 0.930 . S
H503 C493 0.930 . S
Eu504 N535 2.657 . S
Eu504 N542 2.609 . S
Eu504 O548 2.558 1_554 S
Eu504 O549 2.612 . S
Eu504 O551 2.339 . S
Eu504 O552 2.563 1_554 S
Eu504 O553 2.419 1_554 S
Eu504 O555 2.380 . S
Eu504 O556 2.432 . S
Eu504 C568 2.848 1_554 S
C505 C508 1.429 . S
C505 C509 1.411 . S
C505 N512 1.377 . S
C506 C508 1.420 . S
C506 C510 1.423 . S
C506 C518 1.392 . S
C507 C509 1.420 . S
C507 C510 1.351 . S
C507 H530 0.931 . S
C508 C505 1.429 . S
C508 C506 1.420 . S
C508 N516 1.362 . S
C509 C505 1.411 . S
C509 C507 1.420 . S
C509 C514 1.395 . S
C510 C506 1.423 . S
C510 C507 1.351 . S
C510 H522 0.930 . S
C511 C513 1.400 . S
C511 C514 1.386 . S
C511 H523 0.930 . S
N512 C505 1.377 . S
N512 C513 1.321 . S
N512 Eu515 2.609 . S
C513 C511 1.400 . S
C513 N512 1.321 . S
C513 H520 0.930 . S
C514 C509 1.395 . S
C514 C511 1.386 . S
C514 H533 0.930 . S
Eu515 N512 2.609 . S
Eu515 N516 2.657 . S
Eu515 O549 2.380 . S
Eu515 O550 2.432 . S
Eu515 O554 2.558 . S
Eu515 O555 2.612 . S
Eu515 O557 2.339 . S
Eu515 O558 2.563 . S
Eu515 O559 2.419 . S
Eu515 C579 2.848 . S
N516 C508 1.362 . S
N516 Eu515 2.657 . S
N516 C517 1.334 . S
C517 N516 1.334 . S
C517 C519 1.413 . S
C517 H524 0.929 . S
C518 C506 1.392 . S
C518 C519 1.367 . S
C518 H526 0.930 . S
C519 C517 1.413 . S
C519 C518 1.367 . S
C519 H521 0.930 . S
H520 C513 0.930 . S
H521 C519 0.930 . S
H522 C510 0.930 . S
H523 C511 0.930 . S
H524 C517 0.929 . S
H525 C539 0.930 . S
H526 C518 0.930 . S
H527 C545 0.930 . S
H528 C536 0.929 . S
H529 C543 0.930 . S
H530 C507 0.931 . S
H531 C537 0.930 . S
H532 C570 0.930 . S
H533 C514 0.930 . S
H534 C569 0.931 . S
N535 Eu504 2.657 . S
N535 C536 1.334 . S
N535 C540 1.362 . S
C536 H528 0.929 . S
C536 N535 1.334 . S
C536 C539 1.413 . S
C537 H531 0.930 . S
C537 C538 1.392 . S
C537 C539 1.367 . S
C538 C537 1.392 . S
C538 C540 1.420 . S
C538 C570 1.423 . S
C539 H525 0.930 . S
C539 C536 1.413 . S
C539 C537 1.367 . S
C540 N535 1.362 . S
C540 C538 1.420 . S
C540 C544 1.429 . S
H541 C546 0.930 . S
N542 Eu504 2.609 . S
N542 C544 1.377 . S
N542 C545 1.321 . S
C543 H529 0.930 . S
C543 C545 1.400 . S
C543 C546 1.386 . S
C544 C540 1.429 . S
C544 N542 1.377 . S
C544 C547 1.411 . S
C545 H527 0.930 . S
C545 N542 1.321 . S
C545 C543 1.400 . S
C546 H541 0.930 . S
C546 C543 1.386 . S
C546 C547 1.395 . S
C547 C544 1.411 . S
C547 C546 1.395 . S
C547 C569 1.420 . S
O548 Eu504 2.558 1_556 S
O548 C568 1.257 . S
O549 Eu504 2.612 . S
O549 Eu515 2.380 . S
O549 C560 1.276 . S
O550 Eu515 2.432 . S
O550 C567 1.264 . S
O551 Eu504 2.339 . S
O551 C567 1.254 . S
O552 Eu504 2.563 1_556 S
O552 C560 1.235 1_556 S
O553 Eu504 2.419 1_556 S
O553 C568 1.249 . S
O554 Eu515 2.558 . S
O554 C579 1.257 . S
O555 Eu504 2.380 . S
O555 Eu515 2.612 . S
O555 C571 1.276 . S
O556 Eu504 2.432 . S
O556 C578 1.264 . S
O557 Eu515 2.339 . S
O557 C578 1.254 . S
O558 Eu515 2.563 . S
O558 C571 1.235 . S
O559 Eu515 2.419 . S
O559 C579 1.249 . S
C560 O549 1.276 . S
C560 O552 1.235 1_554 S
C561 C563 1.393 . S
C561 C565 1.395 . S
C561 C568 1.492 . S
C562 C563 1.392 . S
C562 C564 1.386 . S
C563 C561 1.393 . S
C563 C562 1.392 . S
C563 H580 0.930 . S
C564 C562 1.386 . S
C564 C566 1.395 . S
C564 H581 0.930 . S
C565 C561 1.395 . S
C565 C566 1.379 . S
C565 H582 0.930 . S
C566 C564 1.395 . S
C566 C565 1.379 . S
C566 H583 0.930 . S
C567 O550 1.264 . S
C567 O551 1.254 . S
C568 Eu504 2.848 1_556 S
C568 O548 1.257 . S
C568 O553 1.249 . S
C568 C561 1.492 . S
C569 H534 0.931 . S
C569 C547 1.420 . S
C569 C570 1.351 . S
C570 H532 0.930 . S
C570 C538 1.423 . S
C570 C569 1.351 . S
C571 O555 1.276 . S
C571 O558 1.235 . S
C572 C573 1.393 . S
C572 C576 1.395 . S
C572 C579 1.492 . S
C573 C572 1.393 . S
C573 C574 1.392 . S
C573 H584 0.930 . S
C574 C573 1.392 . S
C574 C575 1.386 . S
C575 C574 1.386 . S
C575 C577 1.395 . S
C575 H585 0.930 . S
C576 C572 1.395 . S
C576 C577 1.379 . S
C576 H586 0.930 . S
C577 C575 1.395 . S
C577 C576 1.379 . S
C577 H587 0.930 . S
C578 O556 1.264 . S
C578 O557 1.254 . S
C579 Eu515 2.848 . S
C579 O554 1.257 . S
C579 O559 1.249 . S
C579 C572 1.492 . S
H580 C563 0.930 . S
H581 C564 0.930 . S
H582 C565 0.930 . S
H583 C566 0.930 . S
H584 C573 0.930 . S
H585 C575 0.930 . S
H586 C576 0.930 . S
H587 C577 0.930 . S
Eu588 N619 2.657 . S
Eu588 N626 2.609 . S
Eu588 O632 2.558 . S
Eu588 O633 2.612 . S
Eu588 O635 2.339 . S
Eu588 O636 2.563 . S
Eu588 O637 2.419 . S
Eu588 O639 2.380 . S
Eu588 O640 2.432 . S
Eu588 C652 2.848 . S
C589 C592 1.429 . S
C589 C593 1.411 . S
C589 N596 1.377 . S
C590 C592 1.420 . S
C590 C594 1.423 . S
C590 C602 1.392 . S
C591 C593 1.420 . S
C591 C594 1.351 . S
C591 H614 0.931 . S
C592 C589 1.429 . S
C592 C590 1.420 . S
C592 N600 1.362 . S
C593 C589 1.411 . S
C593 C591 1.420 . S
C593 C598 1.395 . S
C594 C590 1.423 . S
C594 C591 1.351 . S
C594 H606 0.930 . S
C595 C597 1.400 . S
C595 C598 1.386 . S
C595 H607 0.930 . S
N596 C589 1.377 . S
N596 C597 1.321 . S
N596 Eu599 2.609 . S
C597 C595 1.400 . S
C597 N596 1.321 . S
C597 H604 0.930 . S
C598 C593 1.395 . S
C598 C595 1.386 . S
C598 H617 0.930 . S
Eu599 N596 2.609 . S
Eu599 N600 2.657 . S
Eu599 O633 2.380 . S
Eu599 O634 2.432 . S
Eu599 O638 2.558 1_556 S
Eu599 O639 2.612 . S
Eu599 O641 2.339 . S
Eu599 O642 2.563 1_556 S
Eu599 O643 2.419 1_556 S
Eu599 C663 2.848 1_556 S
N600 C592 1.362 . S
N600 Eu599 2.657 . S
N600 C601 1.334 . S
C601 N600 1.334 . S
C601 C603 1.413 . S
C601 H608 0.929 . S
C602 C590 1.392 . S
C602 C603 1.367 . S
C602 H610 0.930 . S
C603 C601 1.413 . S
C603 C602 1.367 . S
C603 H605 0.930 . S
H604 C597 0.930 . S
H605 C603 0.930 . S
H606 C594 0.930 . S
H607 C595 0.930 . S
H608 C601 0.929 . S
H609 C623 0.930 . S
H610 C602 0.930 . S
H611 C629 0.930 . S
H612 C620 0.929 . S
H613 C627 0.930 . S
H614 C591 0.931 . S
H615 C621 0.930 . S
H616 C654 0.930 . S
H617 C598 0.930 . S
H618 C653 0.931 . S
N619 Eu588 2.657 . S
N619 C620 1.334 . S
N619 C624 1.362 . S
C620 H612 0.929 . S
C620 N619 1.334 . S
C620 C623 1.413 . S
C621 H615 0.930 . S
C621 C622 1.392 . S
C621 C623 1.367 . S
C622 C621 1.392 . S
C622 C624 1.420 . S
C622 C654 1.423 . S
C623 H609 0.930 . S
C623 C620 1.413 . S
C623 C621 1.367 . S
C624 N619 1.362 . S
C624 C622 1.420 . S
C624 C628 1.429 . S
H625 C630 0.930 . S
N626 Eu588 2.609 . S
N626 C628 1.377 . S
N626 C629 1.321 . S
C627 H613 0.930 . S
C627 C629 1.400 . S
C627 C630 1.386 . S
C628 C624 1.429 . S
C628 N626 1.377 . S
C628 C631 1.411 . S
C629 H611 0.930 . S
C629 N626 1.321 . S
C629 C627 1.400 . S
C630 H625 0.930 . S
C630 C627 1.386 . S
C630 C631 1.395 . S
C631 C628 1.411 . S
C631 C630 1.395 . S
C631 C653 1.420 . S
O632 Eu588 2.558 . S
O632 C652 1.257 . S
O633 Eu588 2.612 . S
O633 Eu599 2.380 . S
O633 C644 1.276 . S
O634 Eu599 2.432 . S
O634 C651 1.264 . S
O635 Eu588 2.339 . S
O635 C651 1.254 . S
O636 Eu588 2.563 . S
O636 C644 1.235 . S
O637 Eu588 2.419 . S
O637 C652 1.249 . S
O638 Eu599 2.558 1_554 S
O638 C663 1.257 . S
O639 Eu588 2.380 . S
O639 Eu599 2.612 . S
O639 C655 1.276 . S
O640 Eu588 2.432 . S
O640 C662 1.264 . S
O641 Eu599 2.339 . S
O641 C662 1.254 . S
O642 Eu599 2.563 1_554 S
O642 C655 1.235 1_554 S
O643 Eu599 2.419 1_554 S
O643 C663 1.249 . S
C644 O633 1.276 . S
C644 O636 1.235 . S
C645 C647 1.393 . S
C645 C649 1.395 . S
C645 C652 1.492 . S
C646 C647 1.392 . S
C646 C648 1.386 . S
C647 C645 1.393 . S
C647 C646 1.392 . S
C647 H664 0.930 . S
C648 C646 1.386 . S
C648 C650 1.395 . S
C648 H665 0.930 . S
C649 C645 1.395 . S
C649 C650 1.379 . S
C649 H666 0.930 . S
C650 C648 1.395 . S
C650 C649 1.379 . S
C650 H667 0.930 . S
C651 O634 1.264 . S
C651 O635 1.254 . S
C652 Eu588 2.848 . S
C652 O632 1.257 . S
C652 O637 1.249 . S
C652 C645 1.492 . S
C653 H618 0.931 . S
C653 C631 1.420 . S
C653 C654 1.351 . S
C654 H616 0.930 . S
C654 C622 1.423 . S
C654 C653 1.351 . S
C655 O639 1.276 . S
C655 O642 1.235 1_556 S
C656 C657 1.393 . S
C656 C660 1.395 . S
C656 C663 1.492 . S
C657 C656 1.393 . S
C657 C658 1.392 . S
C657 H668 0.930 . S
C658 C657 1.392 . S
C658 C659 1.386 . S
C659 C658 1.386 . S
C659 C661 1.395 . S
C659 H669 0.930 . S
C660 C656 1.395 . S
C660 C661 1.379 . S
C660 H670 0.930 . S
C661 C659 1.395 . S
C661 C660 1.379 . S
C661 H671 0.930 . S
C662 O640 1.264 . S
C662 O641 1.254 . S
C663 Eu599 2.848 1_554 S
C663 O638 1.257 . S
C663 O643 1.249 . S
C663 C656 1.492 . S
H664 C647 0.930 . S
H665 C648 0.930 . S
H666 C649 0.930 . S
H667 C650 0.930 . S
H668 C657 0.930 . S
H669 C659 0.930 . S
H670 C660 0.930 . S
H671 C661 0.930 . S
Eu672 N703 2.657 . S
Eu672 N710 2.609 . S
Eu672 O716 2.558 . S
Eu672 O717 2.612 . S
Eu672 O719 2.339 . S
Eu672 O720 2.563 . S
Eu672 O721 2.419 . S
Eu672 O723 2.380 . S
Eu672 O724 2.432 . S
Eu672 C736 2.848 . S
C673 C676 1.429 . S
C673 C677 1.411 . S
C673 N680 1.377 . S
C674 C676 1.442 . S
C674 C678 1.403 1_655 S
C674 C686 1.390 1_655 S
C675 C677 1.420 1_455 S
C675 C678 1.351 . S
C675 H698 0.931 . S
C676 C673 1.429 . S
C676 C674 1.442 . S
C676 N684 1.362 . S
C677 C673 1.411 . S
C677 C675 1.420 1_655 S
C677 C682 1.395 . S
C678 C674 1.403 1_455 S
C678 C675 1.351 . S
C678 H690 0.930 . S
C679 C681 1.400 . S
C679 C682 1.386 . S
C679 H691 0.930 . S
N680 C673 1.377 . S
N680 C681 1.321 . S
N680 Eu683 2.609 . S
C681 C679 1.400 . S
C681 N680 1.321 . S
C681 H688 0.930 . S
C682 C677 1.395 . S
C682 C679 1.386 . S
C682 H701 0.930 1_655 S
Eu683 N680 2.609 . S
Eu683 N684 2.657 . S
Eu683 O717 2.380 . S
Eu683 O718 2.432 . S
Eu683 O722 2.558 . S
Eu683 O723 2.612 . S
Eu683 O725 2.339 . S
Eu683 O726 2.563 . S
Eu683 O727 2.419 . S
Eu683 C747 2.848 . S
N684 C676 1.362 . S
N684 Eu683 2.657 . S
N684 C685 1.334 . S
C685 N684 1.334 . S
C685 C687 1.413 . S
C685 H692 0.929 . S
C686 C674 1.390 1_455 S
C686 C687 1.347 1_455 S
C686 H694 0.952 . S
C687 C685 1.413 . S
C687 C686 1.347 1_655 S
C687 H689 0.930 . S
H688 C681 0.930 . S
H689 C687 0.930 . S
H690 C678 0.930 . S
H691 C679 0.930 . S
H692 C685 0.929 . S
H693 C707 0.930 . S
H694 C686 0.952 . S
H695 C713 0.930 . S
H696 C704 0.929 . S
H697 C711 0.930 . S
H698 C675 0.931 . S
H699 C705 0.930 . S
H700 C738 0.930 . S
H701 C682 0.930 1_455 S
H702 C737 0.931 . S
N703 Eu672 2.657 . S
N703 C704 1.334 . S
N703 C708 1.362 . S
C704 H696 0.929 . S
C704 N703 1.334 . S
C704 C707 1.413 . S
C705 H699 0.930 . S
C705 C706 1.392 . S
C705 C707 1.367 . S
C706 C705 1.392 . S
C706 C708 1.420 . S
C706 C738 1.423 . S
C707 H693 0.930 . S
C707 C704 1.413 . S
C707 C705 1.367 . S
C708 N703 1.362 . S
C708 C706 1.420 . S
C708 C712 1.429 . S
H709 C714 0.930 . S
N710 Eu672 2.609 . S
N710 C712 1.377 . S
N710 C713 1.321 . S
C711 H697 0.930 . S
C711 C713 1.400 . S
C711 C714 1.386 . S
C712 C708 1.429 . S
C712 N710 1.377 . S
C712 C715 1.411 . S
C713 H695 0.930 . S
C713 N710 1.321 . S
C713 C711 1.400 . S
C714 H709 0.930 . S
C714 C711 1.386 . S
C714 C715 1.395 . S
C715 C712 1.411 . S
C715 C714 1.395 . S
C715 C737 1.420 . S
O716 Eu672 2.558 . S
O716 C736 1.257 . S
O717 Eu672 2.612 . S
O717 Eu683 2.380 . S
O717 C728 1.276 . S
O718 Eu683 2.432 . S
O718 C735 1.264 . S
O719 Eu672 2.339 . S
O719 C735 1.254 . S
O720 Eu672 2.563 . S
O720 C728 1.235 . S
O721 Eu672 2.419 . S
O721 C736 1.249 . S
O722 Eu683 2.558 . S
O722 C747 1.257 . S
O723 Eu672 2.380 . S
O723 Eu683 2.612 . S
O723 C739 1.276 . S
O724 Eu672 2.432 . S
O724 C746 1.264 . S
O725 Eu683 2.339 . S
O725 C746 1.254 . S
O726 Eu683 2.563 . S
O726 C739 1.235 . S
O727 Eu683 2.419 . S
O727 C747 1.249 . S
C728 O717 1.276 . S
C728 O720 1.235 . S
C729 C731 1.393 . S
C729 C733 1.395 . S
C729 C736 1.492 . S
C730 C731 1.392 1_554 S
C730 C732 1.386 . S
C731 C729 1.393 . S
C731 C730 1.392 1_556 S
C731 H748 0.930 . S
C732 C730 1.386 . S
C732 C734 1.395 . S
C732 H749 0.930 . S
C733 C729 1.395 . S
C733 C734 1.379 1_556 S
C733 H750 0.930 . S
C734 C732 1.395 . S
C734 C733 1.379 1_554 S
C734 H751 0.930 . S
C735 O718 1.264 . S
C735 O719 1.254 . S
C736 Eu672 2.848 . S
C736 O716 1.257 . S
C736 O721 1.249 . S
C736 C729 1.492 . S
C737 H702 0.931 . S
C737 C715 1.420 . S
C737 C738 1.351 . S
C738 H700 0.930 . S
C738 C706 1.423 . S
C738 C737 1.351 . S
C739 O723 1.276 . S
C739 O726 1.235 . S
C740 C741 1.393 . S
C740 C744 1.395 . S
C740 C747 1.492 . S
C741 C740 1.393 . S
C741 C742 1.392 . S
C741 H752 0.930 . S
C742 C741 1.392 . S
C742 C743 1.386 . S
C743 C742 1.386 . S
C743 C745 1.395 . S
C743 H753 0.930 . S
C744 C740 1.395 . S
C744 C745 1.379 . S
C744 H754 0.930 . S
C745 C743 1.395 . S
C745 C744 1.379 . S
C745 H755 0.930 . S
C746 O724 1.264 . S
C746 O725 1.254 . S
C747 Eu683 2.848 . S
C747 O722 1.257 . S
C747 O727 1.249 . S
C747 C740 1.492 . S
H748 C731 0.930 . S
H749 C732 0.930 . S
H750 C733 0.930 . S
H751 C734 0.930 . S
H752 C741 0.930 . S
H753 C743 0.930 . S
H754 C744 0.930 . S
H755 C745 0.930 . S
Eu756 N787 2.657 . S
Eu756 N794 2.609 . S
Eu756 O800 2.558 . S
Eu756 O801 2.612 . S
Eu756 O803 2.339 . S
Eu756 O804 2.563 . S
Eu756 O805 2.419 . S
Eu756 O807 2.380 . S
Eu756 O808 2.432 . S
Eu756 C820 2.848 . S
C757 C760 1.429 . S
C757 C761 1.411 . S
C757 N764 1.377 . S
C758 C760 1.420 . S
C758 C762 1.423 . S
C758 C770 1.392 . S
C759 C761 1.420 . S
C759 C762 1.351 . S
C759 H782 0.931 . S
C760 C757 1.429 . S
C760 C758 1.420 . S
C760 N768 1.362 . S
C761 C757 1.411 . S
C761 C759 1.420 . S
C761 C766 1.395 . S
C762 C758 1.423 . S
C762 C759 1.351 . S
C762 H774 0.930 . S
C763 C765 1.400 . S
C763 C766 1.386 . S
C763 H775 0.930 . S
N764 C757 1.377 . S
N764 C765 1.321 . S
N764 Eu767 2.609 . S
C765 C763 1.400 . S
C765 N764 1.321 . S
C765 H772 0.930 . S
C766 C761 1.395 . S
C766 C763 1.386 . S
C766 H785 0.930 . S
Eu767 N764 2.609 . S
Eu767 N768 2.657 . S
Eu767 O801 2.380 . S
Eu767 O802 2.432 . S
Eu767 O806 2.558 . S
Eu767 O807 2.612 . S
Eu767 O809 2.339 . S
Eu767 O810 2.563 . S
Eu767 O811 2.419 . S
Eu767 C831 2.848 . S
N768 C760 1.362 . S
N768 Eu767 2.657 . S
N768 C769 1.334 . S
C769 N768 1.334 . S
C769 C771 1.413 . S
C769 H776 0.929 . S
C770 C758 1.392 . S
C770 C771 1.367 . S
C770 H778 0.930 . S
C771 C769 1.413 . S
C771 C770 1.367 . S
C771 H773 0.930 . S
H772 C765 0.930 . S
H773 C771 0.930 . S
H774 C762 0.930 . S
H775 C763 0.930 . S
H776 C769 0.929 . S
H777 C791 0.930 . S
H778 C770 0.930 . S
H779 C797 0.930 . S
H780 C788 0.929 . S
H781 C795 0.930 . S
H782 C759 0.931 . S
H783 C789 0.952 . S
H784 C822 0.930 . S
H785 C766 0.930 . S
H786 C821 0.931 . S
N787 Eu756 2.657 . S
N787 C788 1.334 . S
N787 C792 1.362 . S
C788 H780 0.929 . S
C788 N787 1.334 . S
C788 C791 1.413 . S
C789 H783 0.952 . S
C789 C790 1.390 1_565 S
C789 C791 1.347 1_565 S
C790 C789 1.390 1_545 S
C790 C792 1.442 . S
C790 C822 1.403 1_545 S
C791 H777 0.930 . S
C791 C788 1.413 . S
C791 C789 1.347 1_545 S
C792 N787 1.362 . S
C792 C790 1.442 . S
C792 C796 1.429 . S
H793 C798 0.930 1_565 S
N794 Eu756 2.609 . S
N794 C796 1.377 . S
N794 C797 1.321 . S
C795 H781 0.930 . S
C795 C797 1.400 . S
C795 C798 1.386 . S
C796 C792 1.429 . S
C796 N794 1.377 . S
C796 C799 1.411 . S
C797 H779 0.930 . S
C797 N794 1.321 . S
C797 C795 1.400 . S
C798 H793 0.930 1_545 S
C798 C795 1.386 . S
C798 C799 1.395 . S
C799 C796 1.411 . S
C799 C798 1.395 . S
C799 C821 1.420 1_545 S
O800 Eu756 2.558 . S
O800 C820 1.257 . S
O801 Eu756 2.612 . S
O801 Eu767 2.380 . S
O801 C812 1.276 . S
O802 Eu767 2.432 . S
O802 C819 1.264 . S
O803 Eu756 2.339 . S
O803 C819 1.254 . S
O804 Eu756 2.563 . S
O804 C812 1.235 . S
O805 Eu756 2.419 . S
O805 C820 1.249 . S
O806 Eu767 2.558 . S
O806 C831 1.257 . S
O807 Eu756 2.380 . S
O807 Eu767 2.612 . S
O807 C823 1.276 . S
O808 Eu756 2.432 . S
O808 C830 1.264 . S
O809 Eu767 2.339 . S
O809 C830 1.254 . S
O810 Eu767 2.563 . S
O810 C823 1.235 . S
O811 Eu767 2.419 . S
O811 C831 1.249 . S
C812 O801 1.276 . S
C812 O804 1.235 . S
C813 C815 1.393 . S
C813 C817 1.395 . S
C813 C820 1.492 . S
C814 C815 1.392 . S
C814 C816 1.386 . S
C815 C813 1.393 . S
C815 C814 1.392 . S
C815 H832 0.930 . S
C816 C814 1.386 . S
C816 C818 1.395 . S
C816 H833 0.930 . S
C817 C813 1.395 . S
C817 C818 1.379 . S
C817 H834 0.930 . S
C818 C816 1.395 . S
C818 C817 1.379 . S
C818 H835 0.930 . S
C819 O802 1.264 . S
C819 O803 1.254 . S
C820 Eu756 2.848 . S
C820 O800 1.257 . S
C820 O805 1.249 . S
C820 C813 1.492 . S
C821 H786 0.931 . S
C821 C799 1.420 1_565 S
C821 C822 1.351 . S
C822 H784 0.930 . S
C822 C790 1.403 1_565 S
C822 C821 1.351 . S
C823 O807 1.276 . S
C823 O810 1.235 . S
C824 C825 1.393 . S
C824 C828 1.395 . S
C824 C831 1.492 . S
C825 C824 1.393 . S
C825 C826 1.392 1_554 S
C825 H836 0.930 . S
C826 C825 1.392 1_556 S
C826 C827 1.386 . S
C827 C826 1.386 . S
C827 C829 1.395 . S
C827 H837 0.930 . S
C828 C824 1.395 . S
C828 C829 1.379 1_554 S
C828 H838 0.930 . S
C829 C827 1.395 . S
C829 C828 1.379 1_556 S
C829 H839 0.930 . S
C830 O808 1.264 . S
C830 O809 1.254 . S
C831 Eu767 2.848 . S
C831 O806 1.257 . S
C831 O811 1.249 . S
C831 C824 1.492 . S
H832 C815 0.930 . S
H833 C816 0.930 . S
H834 C817 0.930 . S
H835 C818 0.930 . S
H836 C825 0.930 . S
H837 C827 0.930 . S
H838 C828 0.930 . S
H839 C829 0.930 . S
Eu840 N871 2.657 . S
Eu840 N878 2.609 . S
Eu840 O884 2.558 . S
Eu840 O885 2.612 . S
Eu840 O887 2.339 . S
Eu840 O888 2.563 . S
Eu840 O889 2.419 . S
Eu840 O891 2.380 . S
Eu840 O892 2.432 . S
Eu840 C904 2.848 . S
C841 C844 1.429 . S
C841 C845 1.411 . S
C841 N848 1.377 . S
C842 C844 1.442 . S
C842 C846 1.403 1_455 S
C842 C854 1.390 1_455 S
C843 C845 1.420 1_655 S
C843 C846 1.351 . S
C843 H866 0.931 . S
C844 C841 1.429 . S
C844 C842 1.442 . S
C844 N852 1.362 . S
C845 C841 1.411 . S
C845 C843 1.420 1_455 S
C845 C850 1.395 . S
C846 C842 1.403 1_655 S
C846 C843 1.351 . S
C846 H858 0.930 . S
C847 C849 1.400 . S
C847 C850 1.386 . S
C847 H859 0.930 . S
N848 C841 1.377 . S
N848 C849 1.321 . S
N848 Eu851 2.609 . S
C849 C847 1.400 . S
C849 N848 1.321 . S
C849 H856 0.930 . S
C850 C845 1.395 . S
C850 C847 1.386 . S
C850 H869 0.930 1_455 S
Eu851 N848 2.609 . S
Eu851 N852 2.657 . S
Eu851 O885 2.380 . S
Eu851 O886 2.432 . S
Eu851 O890 2.558 . S
Eu851 O891 2.612 . S
Eu851 O893 2.339 . S
Eu851 O894 2.563 . S
Eu851 O895 2.419 . S
Eu851 C915 2.848 . S
N852 C844 1.362 . S
N852 Eu851 2.657 . S
N852 C853 1.334 . S
C853 N852 1.334 . S
C853 C855 1.413 . S
C853 H860 0.929 . S
C854 C842 1.390 1_655 S
C854 C855 1.347 1_655 S
C854 H862 0.952 . S
C855 C853 1.413 . S
C855 C854 1.347 1_455 S
C855 H857 0.930 . S
H856 C849 0.930 . S
H857 C855 0.930 . S
H858 C846 0.930 . S
H859 C847 0.930 . S
H860 C853 0.929 . S
H861 C875 0.930 . S
H862 C854 0.952 . S
H863 C881 0.930 . S
H864 C872 0.929 . S
H865 C879 0.930 . S
H866 C843 0.931 . S
H867 C873 0.930 . S
H868 C906 0.930 . S
H869 C850 0.930 1_655 S
H870 C905 0.931 . S
N871 Eu840 2.657 . S
N871 C872 1.334 . S
N871 C876 1.362 . S
C872 H864 0.929 . S
C872 N871 1.334 . S
C872 C875 1.413 . S
C873 H867 0.930 . S
C873 C874 1.392 . S
C873 C875 1.367 . S
C874 C873 1.392 . S
C874 C876 1.420 . S
C874 C906 1.423 . S
C875 H861 0.930 . S
C875 C872 1.413 . S
C875 C873 1.367 . S
C876 N871 1.362 . S
C876 C874 1.420 . S
C876 C880 1.429 . S
H877 C882 0.930 . S
N878 Eu840 2.609 . S
N878 C880 1.377 . S
N878 C881 1.321 . S
C879 H865 0.930 . S
C879 C881 1.400 . S
C879 C882 1.386 . S
C880 C876 1.429 . S
C880 N878 1.377 . S
C880 C883 1.411 . S
C881 H863 0.930 . S
C881 N878 1.321 . S
C881 C879 1.400 . S
C882 H877 0.930 . S
C882 C879 1.386 . S
C882 C883 1.395 . S
C883 C880 1.411 . S
C883 C882 1.395 . S
C883 C905 1.420 . S
O884 Eu840 2.558 . S
O884 C904 1.257 . S
O885 Eu840 2.612 . S
O885 Eu851 2.380 . S
O885 C896 1.276 . S
O886 Eu851 2.432 . S
O886 C903 1.264 . S
O887 Eu840 2.339 . S
O887 C903 1.254 . S
O888 Eu840 2.563 . S
O888 C896 1.235 . S
O889 Eu840 2.419 . S
O889 C904 1.249 . S
O890 Eu851 2.558 . S
O890 C915 1.257 . S
O891 Eu840 2.380 . S
O891 Eu851 2.612 . S
O891 C907 1.276 . S
O892 Eu840 2.432 . S
O892 C914 1.264 . S
O893 Eu851 2.339 . S
O893 C914 1.254 . S
O894 Eu851 2.563 . S
O894 C907 1.235 . S
O895 Eu851 2.419 . S
O895 C915 1.249 . S
C896 O885 1.276 . S
C896 O888 1.235 . S
C897 C899 1.393 . S
C897 C901 1.395 . S
C897 C904 1.492 . S
C898 C899 1.392 1_554 S
C898 C900 1.386 . S
C899 C897 1.393 . S
C899 C898 1.392 1_556 S
C899 H916 0.930 . S
C900 C898 1.386 . S
C900 C902 1.395 . S
C900 H917 0.930 . S
C901 C897 1.395 . S
C901 C902 1.379 1_556 S
C901 H918 0.930 . S
C902 C900 1.395 . S
C902 C901 1.379 1_554 S
C902 H919 0.930 . S
C903 O886 1.264 . S
C903 O887 1.254 . S
C904 Eu840 2.848 . S
C904 O884 1.257 . S
C904 O889 1.249 . S
C904 C897 1.492 . S
C905 H870 0.931 . S
C905 C883 1.420 . S
C905 C906 1.351 . S
C906 H868 0.930 . S
C906 C874 1.423 . S
C906 C905 1.351 . S
C907 O891 1.276 . S
C907 O894 1.235 . S
C908 C909 1.393 . S
C908 C912 1.395 . S
C908 C915 1.492 . S
C909 C908 1.393 . S
C909 C910 1.392 . S
C909 H920 0.930 . S
C910 C909 1.392 . S
C910 C911 1.386 . S
C911 C910 1.386 . S
C911 C913 1.395 . S
C911 H921 0.930 . S
C912 C908 1.395 . S
C912 C913 1.379 . S
C912 H922 0.930 . S
C913 C911 1.395 . S
C913 C912 1.379 . S
C913 H923 0.930 . S
C914 O892 1.264 . S
C914 O893 1.254 . S
C915 Eu851 2.848 . S
C915 O890 1.257 . S
C915 O895 1.249 . S
C915 C908 1.492 . S
H916 C899 0.930 . S
H917 C900 0.930 . S
H918 C901 0.930 . S
H919 C902 0.930 . S
H920 C909 0.930 . S
H921 C911 0.930 . S
H922 C912 0.930 . S
H923 C913 0.930 . S
Eu924 N955 2.657 . S
Eu924 N962 2.609 . S
Eu924 O968 2.558 . S
Eu924 O969 2.612 . S
Eu924 O971 2.339 . S
Eu924 O972 2.563 . S
Eu924 O973 2.419 . S
Eu924 O975 2.380 . S
Eu924 O976 2.432 . S
Eu924 C988 2.848 . S
C925 C928 1.429 . S
C925 C929 1.411 . S
C925 N932 1.377 . S
C926 C928 1.420 . S
C926 C930 1.423 . S
C926 C938 1.392 . S
C927 C929 1.420 . S
C927 C930 1.351 . S
C927 H950 0.931 . S
C928 C925 1.429 . S
C928 C926 1.420 . S
C928 N936 1.362 . S
C929 C925 1.411 . S
C929 C927 1.420 . S
C929 C934 1.395 . S
C930 C926 1.423 . S
C930 C927 1.351 . S
C930 H942 0.930 . S
C931 C933 1.400 . S
C931 C934 1.386 . S
C931 H943 0.930 . S
N932 C925 1.377 . S
N932 C933 1.321 . S
N932 Eu935 2.609 . S
C933 C931 1.400 . S
C933 N932 1.321 . S
C933 H940 0.930 . S
C934 C929 1.395 . S
C934 C931 1.386 . S
C934 H953 0.930 . S
Eu935 N932 2.609 . S
Eu935 N936 2.657 . S
Eu935 O969 2.380 . S
Eu935 O970 2.432 . S
Eu935 O974 2.558 . S
Eu935 O975 2.612 . S
Eu935 O977 2.339 . S
Eu935 O978 2.563 . S
Eu935 O979 2.419 . S
Eu935 C999 2.848 . S
N936 C928 1.362 . S
N936 Eu935 2.657 . S
N936 C937 1.334 . S
C937 N936 1.334 . S
C937 C939 1.413 . S
C937 H944 0.929 . S
C938 C926 1.392 . S
C938 C939 1.367 . S
C938 H946 0.930 . S
C939 C937 1.413 . S
C939 C938 1.367 . S
C939 H941 0.930 . S
H940 C933 0.930 . S
H941 C939 0.930 . S
H942 C930 0.930 . S
H943 C931 0.930 . S
H944 C937 0.929 . S
H945 C959 0.930 . S
H946 C938 0.930 . S
H947 C965 0.930 . S
H948 C956 0.929 . S
H949 C963 0.930 . S
H950 C927 0.931 . S
H951 C957 0.952 . S
H952 C990 0.930 . S
H953 C934 0.930 . S
H954 C989 0.931 . S
N955 Eu924 2.657 . S
N955 C956 1.334 . S
N955 C960 1.362 . S
C956 H948 0.929 . S
C956 N955 1.334 . S
C956 C959 1.413 . S
C957 H951 0.952 . S
C957 C958 1.390 1_545 S
C957 C959 1.347 1_545 S
C958 C957 1.390 1_565 S
C958 C960 1.442 . S
C958 C990 1.403 1_565 S
C959 H945 0.930 . S
C959 C956 1.413 . S
C959 C957 1.347 1_565 S
C960 N955 1.362 . S
C960 C958 1.442 . S
C960 C964 1.429 . S
H961 C966 0.930 1_545 S
N962 Eu924 2.609 . S
N962 C964 1.377 . S
N962 C965 1.321 . S
C963 H949 0.930 . S
C963 C965 1.400 . S
C963 C966 1.386 . S
C964 C960 1.429 . S
C964 N962 1.377 . S
C964 C967 1.411 . S
C965 H947 0.930 . S
C965 N962 1.321 . S
C965 C963 1.400 . S
C966 H961 0.930 1_565 S
C966 C963 1.386 . S
C966 C967 1.395 . S
C967 C964 1.411 . S
C967 C966 1.395 . S
C967 C989 1.420 1_565 S
O968 Eu924 2.558 . S
O968 C988 1.257 . S
O969 Eu924 2.612 . S
O969 Eu935 2.380 . S
O969 C980 1.276 . S
O970 Eu935 2.432 . S
O970 C987 1.264 . S
O971 Eu924 2.339 . S
O971 C987 1.254 . S
O972 Eu924 2.563 . S
O972 C980 1.235 . S
O973 Eu924 2.419 . S
O973 C988 1.249 . S
O974 Eu935 2.558 . S
O974 C999 1.257 . S
O975 Eu924 2.380 . S
O975 Eu935 2.612 . S
O975 C991 1.276 . S
O976 Eu924 2.432 . S
O976 C998 1.264 . S
O977 Eu935 2.339 . S
O977 C998 1.254 . S
O978 Eu935 2.563 . S
O978 C991 1.235 . S
O979 Eu935 2.419 . S
O979 C999 1.249 . S
C980 O969 1.276 . S
C980 O972 1.235 . S
C981 C983 1.393 . S
C981 C985 1.395 . S
C981 C988 1.492 . S
C982 C983 1.392 . S
C982 C984 1.386 . S
C983 C981 1.393 . S
C983 C982 1.392 . S
C983 H1000 0.930 . S
C984 C982 1.386 . S
C984 C986 1.395 . S
C984 H1001 0.930 . S
C985 C981 1.395 . S
C985 C986 1.379 . S
C985 H1002 0.930 . S
C986 C984 1.395 . S
C986 C985 1.379 . S
C986 H1003 0.930 . S
C987 O970 1.264 . S
C987 O971 1.254 . S
C988 Eu924 2.848 . S
C988 O968 1.257 . S
C988 O973 1.249 . S
C988 C981 1.492 . S
C989 H954 0.931 . S
C989 C967 1.420 1_545 S
C989 C990 1.351 . S
C990 H952 0.930 . S
C990 C958 1.403 1_545 S
C990 C989 1.351 . S
C991 O975 1.276 . S
C991 O978 1.235 . S
C992 C993 1.393 . S
C992 C996 1.395 . S
C992 C999 1.492 . S
C993 C992 1.393 . S
C993 C994 1.392 1_554 S
C993 H1004 0.930 . S
C994 C993 1.392 1_556 S
C994 C995 1.386 . S
C995 C994 1.386 . S
C995 C997 1.395 . S
C995 H1005 0.930 . S
C996 C992 1.395 . S
C996 C997 1.379 1_554 S
C996 H1006 0.930 . S
C997 C995 1.395 . S
C997 C996 1.379 1_556 S
C997 H1007 0.930 . S
C998 O976 1.264 . S
C998 O977 1.254 . S
C999 Eu935 2.848 . S
C999 O974 1.257 . S
C999 O979 1.249 . S
C999 C992 1.492 . S
H1000 C983 0.930 . S
H1001 C984 0.930 . S
H1002 C985 0.930 . S
H1003 C986 0.930 . S
H1004 C993 0.930 . S
H1005 C995 0.930 . S
H1006 C996 0.930 . S
H1007 C997 0.930 . S
Eu1008 N1039 2.657 . S
Eu1008 N1046 2.609 . S
Eu1008 O1052 2.558 . S
Eu1008 O1053 2.612 . S
Eu1008 O1055 2.339 . S
Eu1008 O1056 2.563 . S
Eu1008 O1057 2.419 . S
Eu1008 O1059 2.380 . S
Eu1008 O1060 2.432 . S
Eu1008 C1072 2.848 . S
C1009 C1012 1.429 . S
C1009 C1013 1.411 . S
C1009 N1016 1.377 . S
C1010 C1012 1.442 . S
C1010 C1014 1.403 1_655 S
C1010 C1022 1.390 1_655 S
C1011 C1013 1.420 1_455 S
C1011 C1014 1.351 . S
C1011 H1034 0.931 . S
C1012 C1009 1.429 . S
C1012 C1010 1.442 . S
C1012 N1020 1.362 . S
C1013 C1009 1.411 . S
C1013 C1011 1.420 1_655 S
C1013 C1018 1.395 . S
C1014 C1010 1.403 1_455 S
C1014 C1011 1.351 . S
C1014 H1026 0.930 . S
C1015 C1017 1.400 1_545 S
C1015 C1018 1.386 1_545 S
C1015 H1027 0.930 . S
N1016 C1009 1.377 . S
N1016 C1017 1.321 . S
N1016 Eu1019 2.609 . S
C1017 C1015 1.400 1_565 S
C1017 N1016 1.321 . S
C1017 H1024 0.930 . S
C1018 C1013 1.395 . S
C1018 C1015 1.386 1_565 S
C1018 H1037 0.930 1_665 S
Eu1019 N1016 2.609 . S
Eu1019 N1020 2.657 . S
Eu1019 O1053 2.380 . S
Eu1019 O1054 2.432 . S
Eu1019 O1058 2.558 . S
Eu1019 O1059 2.612 . S
Eu1019 O1061 2.339 . S
Eu1019 O1062 2.563 . S
Eu1019 O1063 2.419 . S
Eu1019 C1083 2.848 . S
N1020 C1012 1.362 . S
N1020 Eu1019 2.657 . S
N1020 C1021 1.334 . S
C1021 N1020 1.334 . S
C1021 C1023 1.413 . S
C1021 H1028 0.929 . S
C1022 C1010 1.390 1_455 S
C1022 C1023 1.347 1_455 S
C1022 H1030 0.952 . S
C1023 C1021 1.413 . S
C1023 C1022 1.347 1_655 S
C1023 H1025 0.930 . S
H1024 C1017 0.930 . S
H1025 C1023 0.930 . S
H1026 C1014 0.930 . S
H1027 C1015 0.930 . S
H1028 C1021 0.929 . S
H1029 C1043 0.930 . S
H1030 C1022 0.952 . S
H1031 C1049 0.930 . S
H1032 C1040 0.929 . S
H1033 C1047 0.930 . S
H1034 C1011 0.931 . S
H1035 C1041 0.930 . S
H1036 C1074 0.930 . S
H1037 C1018 0.930 1_445 S
H1038 C1073 0.931 . S
N1039 Eu1008 2.657 . S
N1039 C1040 1.334 . S
N1039 C1044 1.362 . S
C1040 H1032 0.929 . S
C1040 N1039 1.334 . S
C1040 C1043 1.413 . S
C1041 H1035 0.930 . S
C1041 C1042 1.392 . S
C1041 C1043 1.367 . S
C1042 C1041 1.392 . S
C1042 C1044 1.420 . S
C1042 C1074 1.423 . S
C1043 H1029 0.930 . S
C1043 C1040 1.413 . S
C1043 C1041 1.367 . S
C1044 N1039 1.362 . S
C1044 C1042 1.420 . S
C1044 C1048 1.429 . S
H1045 C1050 0.930 . S
N1046 Eu1008 2.609 . S
N1046 C1048 1.377 . S
N1046 C1049 1.321 . S
C1047 H1033 0.930 . S
C1047 C1049 1.400 . S
C1047 C1050 1.386 . S
C1048 C1044 1.429 . S
C1048 N1046 1.377 . S
C1048 C1051 1.411 . S
C1049 H1031 0.930 . S
C1049 N1046 1.321 . S
C1049 C1047 1.400 . S
C1050 H1045 0.930 . S
C1050 C1047 1.386 . S
C1050 C1051 1.395 . S
C1051 C1048 1.411 . S
C1051 C1050 1.395 . S
C1051 C1073 1.420 . S
O1052 Eu1008 2.558 . S
O1052 C1072 1.257 . S
O1053 Eu1008 2.612 . S
O1053 Eu1019 2.380 . S
O1053 C1064 1.276 . S
O1054 Eu1019 2.432 . S
O1054 C1071 1.264 . S
O1055 Eu1008 2.339 . S
O1055 C1071 1.254 . S
O1056 Eu1008 2.563 . S
O1056 C1064 1.235 . S
O1057 Eu1008 2.419 . S
O1057 C1072 1.249 . S
O1058 Eu1019 2.558 . S
O1058 C1083 1.257 . S
O1059 Eu1008 2.380 . S
O1059 Eu1019 2.612 . S
O1059 C1075 1.276 . S
O1060 Eu1008 2.432 . S
O1060 C1082 1.264 . S
O1061 Eu1019 2.339 . S
O1061 C1082 1.254 . S
O1062 Eu1019 2.563 . S
O1062 C1075 1.235 . S
O1063 Eu1019 2.419 . S
O1063 C1083 1.249 . S
C1064 O1053 1.276 . S
C1064 O1056 1.235 . S
C1065 C1067 1.393 . S
C1065 C1069 1.395 . S
C1065 C1072 1.492 . S
C1066 C1067 1.392 . S
C1066 C1068 1.386 . S
C1067 C1065 1.393 . S
C1067 C1066 1.392 . S
C1067 H1084 0.930 . S
C1068 C1066 1.386 . S
C1068 C1070 1.395 . S
C1068 H1085 0.930 . S
C1069 C1065 1.395 . S
C1069 C1070 1.379 . S
C1069 H1086 0.930 . S
C1070 C1068 1.395 . S
C1070 C1069 1.379 . S
C1070 H1087 0.930 . S
C1071 O1054 1.264 . S
C1071 O1055 1.254 . S
C1072 Eu1008 2.848 . S
C1072 O1052 1.257 . S
C1072 O1057 1.249 . S
C1072 C1065 1.492 . S
C1073 H1038 0.931 . S
C1073 C1051 1.420 . S
C1073 C1074 1.351 . S
C1074 H1036 0.930 . S
C1074 C1042 1.423 . S
C1074 C1073 1.351 . S
C1075 O1059 1.276 . S
C1075 O1062 1.235 . S
C1076 C1077 1.393 . S
C1076 C1080 1.395 . S
C1076 C1083 1.492 . S
C1077 C1076 1.393 . S
C1077 C1078 1.392 1_556 S
C1077 H1088 0.930 . S
C1078 C1077 1.392 1_554 S
C1078 C1079 1.386 . S
C1079 C1078 1.386 . S
C1079 C1081 1.395 . S
C1079 H1089 0.930 . S
C1080 C1076 1.395 . S
C1080 C1081 1.379 1_556 S
C1080 H1090 0.930 . S
C1081 C1079 1.395 . S
C1081 C1080 1.379 1_554 S
C1081 H1091 0.930 . S
C1082 O1060 1.264 . S
C1082 O1061 1.254 . S
C1083 Eu1019 2.848 . S
C1083 O1058 1.257 . S
C1083 O1063 1.249 . S
C1083 C1076 1.492 . S
H1084 C1067 0.930 . S
H1085 C1068 0.930 . S
H1086 C1069 0.930 . S
H1087 C1070 0.930 . S
H1088 C1077 0.930 . S
H1089 C1079 0.930 . S
H1090 C1080 0.930 . S
H1091 C1081 0.930 . S
Eu1092 N1123 2.657 . S
Eu1092 N1130 2.609 . S
Eu1092 O1136 2.558 . S
Eu1092 O1137 2.612 . S
Eu1092 O1139 2.339 . S
Eu1092 O1140 2.563 . S
Eu1092 O1141 2.419 . S
Eu1092 O1143 2.380 . S
Eu1092 O1144 2.432 . S
Eu1092 C1156 2.848 . S
C1093 C1096 1.429 . S
C1093 C1097 1.411 . S
C1093 N1100 1.377 . S
C1094 C1096 1.420 . S
C1094 C1098 1.423 . S
C1094 C1106 1.392 . S
C1095 C1097 1.420 . S
C1095 C1098 1.351 . S
C1095 H1118 0.931 . S
C1096 C1093 1.429 . S
C1096 C1094 1.420 . S
C1096 N1104 1.362 . S
C1097 C1093 1.411 . S
C1097 C1095 1.420 . S
C1097 C1102 1.395 . S
C1098 C1094 1.423 . S
C1098 C1095 1.351 . S
C1098 H1110 0.930 . S
C1099 C1101 1.400 . S
C1099 C1102 1.386 . S
C1099 H1111 0.930 . S
N1100 C1093 1.377 . S
N1100 C1101 1.321 . S
N1100 Eu1103 2.609 . S
C1101 C1099 1.400 . S
C1101 N1100 1.321 . S
C1101 H1108 0.930 . S
C1102 C1097 1.395 . S
C1102 C1099 1.386 . S
C1102 H1121 0.930 . S
Eu1103 N1100 2.609 . S
Eu1103 N1104 2.657 . S
Eu1103 O1137 2.380 . S
Eu1103 O1138 2.432 . S
Eu1103 O1142 2.558 . S
Eu1103 O1143 2.612 . S
Eu1103 O1145 2.339 . S
Eu1103 O1146 2.563 . S
Eu1103 O1147 2.419 . S
Eu1103 C1167 2.848 . S
N1104 C1096 1.362 . S
N1104 Eu1103 2.657 . S
N1104 C1105 1.334 . S
C1105 N1104 1.334 . S
C1105 C1107 1.413 . S
C1105 H1112 0.929 . S
C1106 C1094 1.392 . S
C1106 C1107 1.367 . S
C1106 H1114 0.930 . S
C1107 C1105 1.413 . S
C1107 C1106 1.367 . S
C1107 H1109 0.930 . S
H1108 C1101 0.930 . S
H1109 C1107 0.930 . S
H1110 C1098 0.930 . S
H1111 C1099 0.930 . S
H1112 C1105 0.929 . S
H1113 C1127 0.930 . S
H1114 C1106 0.930 . S
H1115 C1133 0.930 . S
H1116 C1124 0.929 . S
H1117 C1131 0.930 . S
H1118 C1095 0.931 . S
H1119 C1125 0.952 . S
H1120 C1158 0.930 . S
H1121 C1102 0.930 . S
H1122 C1157 0.931 . S
N1123 Eu1092 2.657 . S
N1123 C1124 1.334 . S
N1123 C1128 1.362 . S
C1124 H1116 0.929 . S
C1124 N1123 1.334 . S
C1124 C1127 1.413 . S
C1125 H1119 0.952 . S
C1125 C1126 1.390 1_565 S
C1125 C1127 1.347 1_565 S
C1126 C1125 1.390 1_545 S
C1126 C1128 1.442 . S
C1126 C1158 1.403 1_545 S
C1127 H1113 0.930 . S
C1127 C1124 1.413 . S
C1127 C1125 1.347 1_545 S
C1128 N1123 1.362 . S
C1128 C1126 1.442 . S
C1128 C1132 1.429 . S
H1129 C1134 0.930 1_465 S
N1130 Eu1092 2.609 . S
N1130 C1132 1.377 . S
N1130 C1133 1.321 . S
C1131 H1117 0.930 . S
C1131 C1133 1.400 1_455 S
C1131 C1134 1.386 1_455 S
C1132 C1128 1.429 . S
C1132 N1130 1.377 . S
C1132 C1135 1.411 . S
C1133 H1115 0.930 . S
C1133 N1130 1.321 . S
C1133 C1131 1.400 1_655 S
C1134 H1129 0.930 1_645 S
C1134 C1131 1.386 1_655 S
C1134 C1135 1.395 . S
C1135 C1132 1.411 . S
C1135 C1134 1.395 . S
C1135 C1157 1.420 1_545 S
O1136 Eu1092 2.558 . S
O1136 C1156 1.257 . S
O1137 Eu1092 2.612 . S
O1137 Eu1103 2.380 . S
O1137 C1148 1.276 . S
O1138 Eu1103 2.432 . S
O1138 C1155 1.264 . S
O1139 Eu1092 2.339 . S
O1139 C1155 1.254 . S
O1140 Eu1092 2.563 . S
O1140 C1148 1.235 . S
O1141 Eu1092 2.419 . S
O1141 C1156 1.249 . S
O1142 Eu1103 2.558 . S
O1142 C1167 1.257 . S
O1143 Eu1092 2.380 . S
O1143 Eu1103 2.612 . S
O1143 C1159 1.276 . S
O1144 Eu1092 2.432 . S
O1144 C1166 1.264 . S
O1145 Eu1103 2.339 . S
O1145 C1166 1.254 . S
O1146 Eu1103 2.563 . S
O1146 C1159 1.235 . S
O1147 Eu1103 2.419 . S
O1147 C1167 1.249 . S
C1148 O1137 1.276 . S
C1148 O1140 1.235 . S
C1149 C1151 1.393 . S
C1149 C1153 1.395 . S
C1149 C1156 1.492 . S
C1150 C1151 1.392 1_556 S
C1150 C1152 1.386 . S
C1151 C1149 1.393 . S
C1151 C1150 1.392 1_554 S
C1151 H1168 0.930 . S
C1152 C1150 1.386 . S
C1152 C1154 1.395 . S
C1152 H1169 0.930 . S
C1153 C1149 1.395 . S
C1153 C1154 1.379 1_554 S
C1153 H1170 0.930 . S
C1154 C1152 1.395 . S
C1154 C1153 1.379 1_556 S
C1154 H1171 0.930 . S
C1155 O1138 1.264 . S
C1155 O1139 1.254 . S
C1156 Eu1092 2.848 . S
C1156 O1136 1.257 . S
C1156 O1141 1.249 . S
C1156 C1149 1.492 . S
C1157 H1122 0.931 . S
C1157 C1135 1.420 1_565 S
C1157 C1158 1.351 . S
C1158 H1120 0.930 . S
C1158 C1126 1.403 1_565 S
C1158 C1157 1.351 . S
C1159 O1143 1.276 . S
C1159 O1146 1.235 . S
C1160 C1161 1.393 . S
C1160 C1164 1.395 . S
C1160 C1167 1.492 . S
C1161 C1160 1.393 . S
C1161 C1162 1.392 . S
C1161 H1172 0.930 . S
C1162 C1161 1.392 . S
C1162 C1163 1.386 . S
C1163 C1162 1.386 . S
C1163 C1165 1.395 . S
C1163 H1173 0.930 . S
C1164 C1160 1.395 . S
C1164 C1165 1.379 . S
C1164 H1174 0.930 . S
C1165 C1163 1.395 . S
C1165 C1164 1.379 . S
C1165 H1175 0.930 . S
C1166 O1144 1.264 . S
C1166 O1145 1.254 . S
C1167 Eu1103 2.848 . S
C1167 O1142 1.257 . S
C1167 O1147 1.249 . S
C1167 C1160 1.492 . S
H1168 C1151 0.930 . S
H1169 C1152 0.930 . S
H1170 C1153 0.930 . S
H1171 C1154 0.930 . S
H1172 C1161 0.930 . S
H1173 C1163 0.930 . S
H1174 C1164 0.930 . S
H1175 C1165 0.930 . S
Eu1176 N1207 2.657 . S
Eu1176 N1214 2.609 . S
Eu1176 O1220 2.558 . S
Eu1176 O1221 2.612 . S
Eu1176 O1223 2.339 . S
Eu1176 O1224 2.563 . S
Eu1176 O1225 2.419 . S
Eu1176 O1227 2.380 . S
Eu1176 O1228 2.432 . S
Eu1176 C1240 2.848 . S
C1177 C1180 1.429 . S
C1177 C1181 1.411 . S
C1177 N1184 1.377 . S
C1178 C1180 1.442 . S
C1178 C1182 1.403 1_455 S
C1178 C1190 1.390 1_455 S
C1179 C1181 1.420 1_655 S
C1179 C1182 1.351 . S
C1179 H1202 0.931 . S
C1180 C1177 1.429 . S
C1180 C1178 1.442 . S
C1180 N1188 1.362 . S
C1181 C1177 1.411 . S
C1181 C1179 1.420 1_455 S
C1181 C1186 1.395 . S
C1182 C1178 1.403 1_655 S
C1182 C1179 1.351 . S
C1182 H1194 0.930 . S
C1183 C1185 1.400 1_565 S
C1183 C1186 1.386 1_565 S
C1183 H1195 0.930 . S
N1184 C1177 1.377 . S
N1184 C1185 1.321 . S
N1184 Eu1187 2.609 . S
C1185 C1183 1.400 1_545 S
C1185 N1184 1.321 . S
C1185 H1192 0.930 . S
C1186 C1181 1.395 . S
C1186 C1183 1.386 1_545 S
C1186 H1205 0.930 1_445 S
Eu1187 N1184 2.609 . S
Eu1187 N1188 2.657 . S
Eu1187 O1221 2.380 . S
Eu1187 O1222 2.432 . S
Eu1187 O1226 2.558 . S
Eu1187 O1227 2.612 . S
Eu1187 O1229 2.339 . S
Eu1187 O1230 2.563 . S
Eu1187 O1231 2.419 . S
Eu1187 C1251 2.848 . S
N1188 C1180 1.362 . S
N1188 Eu1187 2.657 . S
N1188 C1189 1.334 . S
C1189 N1188 1.334 . S
C1189 C1191 1.413 . S
C1189 H1196 0.929 . S
C1190 C1178 1.390 1_655 S
C1190 C1191 1.347 1_655 S
C1190 H1198 0.952 . S
C1191 C1189 1.413 . S
C1191 C1190 1.347 1_455 S
C1191 H1193 0.930 . S
H1192 C1185 0.930 . S
H1193 C1191 0.930 . S
H1194 C1182 0.930 . S
H1195 C1183 0.930 . S
H1196 C1189 0.929 . S
H1197 C1211 0.930 . S
H1198 C1190 0.952 . S
H1199 C1217 0.930 . S
H1200 C1208 0.929 . S
H1201 C1215 0.930 . S
H1202 C1179 0.931 . S
H1203 C1209 0.930 . S
H1204 C1242 0.930 . S
H1205 C1186 0.930 1_665 S
H1206 C1241 0.931 . S
N1207 Eu1176 2.657 . S
N1207 C1208 1.334 . S
N1207 C1212 1.362 . S
C1208 H1200 0.929 . S
C1208 N1207 1.334 . S
C1208 C1211 1.413 . S
C1209 H1203 0.930 . S
C1209 C1210 1.392 . S
C1209 C1211 1.367 . S
C1210 C1209 1.392 . S
C1210 C1212 1.420 . S
C1210 C1242 1.423 . S
C1211 H1197 0.930 . S
C1211 C1208 1.413 . S
C1211 C1209 1.367 . S
C1212 N1207 1.362 . S
C1212 C1210 1.420 . S
C1212 C1216 1.429 . S
H1213 C1218 0.930 . S
N1214 Eu1176 2.609 . S
N1214 C1216 1.377 . S
N1214 C1217 1.321 . S
C1215 H1201 0.930 . S
C1215 C1217 1.400 . S
C1215 C1218 1.386 . S
C1216 C1212 1.429 . S
C1216 N1214 1.377 . S
C1216 C1219 1.411 . S
C1217 H1199 0.930 . S
C1217 N1214 1.321 . S
C1217 C1215 1.400 . S
C1218 H1213 0.930 . S
C1218 C1215 1.386 . S
C1218 C1219 1.395 . S
C1219 C1216 1.411 . S
C1219 C1218 1.395 . S
C1219 C1241 1.420 . S
O1220 Eu1176 2.558 . S
O1220 C1240 1.257 . S
O1221 Eu1176 2.612 . S
O1221 Eu1187 2.380 . S
O1221 C1232 1.276 . S
O1222 Eu1187 2.432 . S
O1222 C1239 1.264 . S
O1223 Eu1176 2.339 . S
O1223 C1239 1.254 . S
O1224 Eu1176 2.563 . S
O1224 C1232 1.235 . S
O1225 Eu1176 2.419 . S
O1225 C1240 1.249 . S
O1226 Eu1187 2.558 . S
O1226 C1251 1.257 . S
O1227 Eu1176 2.380 . S
O1227 Eu1187 2.612 . S
O1227 C1243 1.276 . S
O1228 Eu1176 2.432 . S
O1228 C1250 1.264 . S
O1229 Eu1187 2.339 . S
O1229 C1250 1.254 . S
O1230 Eu1187 2.563 . S
O1230 C1243 1.235 . S
O1231 Eu1187 2.419 . S
O1231 C1251 1.249 . S
C1232 O1221 1.276 . S
C1232 O1224 1.235 . S
C1233 C1235 1.393 . S
C1233 C1237 1.395 . S
C1233 C1240 1.492 . S
C1234 C1235 1.392 . S
C1234 C1236 1.386 . S
C1235 C1233 1.393 . S
C1235 C1234 1.392 . S
C1235 H1252 0.930 . S
C1236 C1234 1.386 . S
C1236 C1238 1.395 . S
C1236 H1253 0.930 . S
C1237 C1233 1.395 . S
C1237 C1238 1.379 . S
C1237 H1254 0.930 . S
C1238 C1236 1.395 . S
C1238 C1237 1.379 . S
C1238 H1255 0.930 . S
C1239 O1222 1.264 . S
C1239 O1223 1.254 . S
C1240 Eu1176 2.848 . S
C1240 O1220 1.257 . S
C1240 O1225 1.249 . S
C1240 C1233 1.492 . S
C1241 H1206 0.931 . S
C1241 C1219 1.420 . S
C1241 C1242 1.351 . S
C1242 H1204 0.930 . S
C1242 C1210 1.423 . S
C1242 C1241 1.351 . S
C1243 O1227 1.276 . S
C1243 O1230 1.235 . S
C1244 C1245 1.393 . S
C1244 C1248 1.395 . S
C1244 C1251 1.492 . S
C1245 C1244 1.393 . S
C1245 C1246 1.392 1_556 S
C1245 H1256 0.930 . S
C1246 C1245 1.392 1_554 S
C1246 C1247 1.386 . S
C1247 C1246 1.386 . S
C1247 C1249 1.395 . S
C1247 H1257 0.930 . S
C1248 C1244 1.395 . S
C1248 C1249 1.379 1_556 S
C1248 H1258 0.930 . S
C1249 C1247 1.395 . S
C1249 C1248 1.379 1_554 S
C1249 H1259 0.930 . S
C1250 O1228 1.264 . S
C1250 O1229 1.254 . S
C1251 Eu1187 2.848 . S
C1251 O1226 1.257 . S
C1251 O1231 1.249 . S
C1251 C1244 1.492 . S
H1252 C1235 0.930 . S
H1253 C1236 0.930 . S
H1254 C1237 0.930 . S
H1255 C1238 0.930 . S
H1256 C1245 0.930 . S
H1257 C1247 0.930 . S
H1258 C1248 0.930 . S
H1259 C1249 0.930 . S
Eu1260 N1291 2.657 . S
Eu1260 N1298 2.609 . S
Eu1260 O1304 2.558 . S
Eu1260 O1305 2.612 . S
Eu1260 O1307 2.339 . S
Eu1260 O1308 2.563 . S
Eu1260 O1309 2.419 . S
Eu1260 O1311 2.380 . S
Eu1260 O1312 2.432 . S
Eu1260 C1324 2.848 . S
C1261 C1264 1.429 . S
C1261 C1265 1.411 . S
C1261 N1268 1.377 . S
C1262 C1264 1.420 . S
C1262 C1266 1.423 . S
C1262 C1274 1.392 . S
C1263 C1265 1.420 . S
C1263 C1266 1.351 . S
C1263 H1286 0.931 . S
C1264 C1261 1.429 . S
C1264 C1262 1.420 . S
C1264 N1272 1.362 . S
C1265 C1261 1.411 . S
C1265 C1263 1.420 . S
C1265 C1270 1.395 . S
C1266 C1262 1.423 . S
C1266 C1263 1.351 . S
C1266 H1278 0.930 . S
C1267 C1269 1.400 . S
C1267 C1270 1.386 . S
C1267 H1279 0.930 . S
N1268 C1261 1.377 . S
N1268 C1269 1.321 . S
N1268 Eu1271 2.609 . S
C1269 C1267 1.400 . S
C1269 N1268 1.321 . S
C1269 H1276 0.930 . S
C1270 C1265 1.395 . S
C1270 C1267 1.386 . S
C1270 H1289 0.930 . S
Eu1271 N1268 2.609 . S
Eu1271 N1272 2.657 . S
Eu1271 O1305 2.380 . S
Eu1271 O1306 2.432 . S
Eu1271 O1310 2.558 . S
Eu1271 O1311 2.612 . S
Eu1271 O1313 2.339 . S
Eu1271 O1314 2.563 . S
Eu1271 O1315 2.419 . S
Eu1271 C1335 2.848 . S
N1272 C1264 1.362 . S
N1272 Eu1271 2.657 . S
N1272 C1273 1.334 . S
C1273 N1272 1.334 . S
C1273 C1275 1.413 . S
C1273 H1280 0.929 . S
C1274 C1262 1.392 . S
C1274 C1275 1.367 . S
C1274 H1282 0.930 . S
C1275 C1273 1.413 . S
C1275 C1274 1.367 . S
C1275 H1277 0.930 . S
H1276 C1269 0.930 . S
H1277 C1275 0.930 . S
H1278 C1266 0.930 . S
H1279 C1267 0.930 . S
H1280 C1273 0.929 . S
H1281 C1295 0.930 . S
H1282 C1274 0.930 . S
H1283 C1301 0.930 . S
H1284 C1292 0.929 . S
H1285 C1299 0.930 . S
H1286 C1263 0.931 . S
H1287 C1293 0.952 . S
H1288 C1326 0.930 . S
H1289 C1270 0.930 . S
H1290 C1325 0.931 . S
N1291 Eu1260 2.657 . S
N1291 C1292 1.334 . S
N1291 C1296 1.362 . S
C1292 H1284 0.929 . S
C1292 N1291 1.334 . S
C1292 C1295 1.413 . S
C1293 H1287 0.952 . S
C1293 C1294 1.390 1_545 S
C1293 C1295 1.347 1_545 S
C1294 C1293 1.390 1_565 S
C1294 C1296 1.442 . S
C1294 C1326 1.403 1_565 S
C1295 H1281 0.930 . S
C1295 C1292 1.413 . S
C1295 C1293 1.347 1_565 S
C1296 N1291 1.362 . S
C1296 C1294 1.442 . S
C1296 C1300 1.429 . S
H1297 C1302 0.930 1_645 S
N1298 Eu1260 2.609 . S
N1298 C1300 1.377 . S
N1298 C1301 1.321 . S
C1299 H1285 0.930 . S
C1299 C1301 1.400 1_655 S
C1299 C1302 1.386 1_655 S
C1300 C1296 1.429 . S
C1300 N1298 1.377 . S
C1300 C1303 1.411 . S
C1301 H1283 0.930 . S
C1301 N1298 1.321 . S
C1301 C1299 1.400 1_455 S
C1302 H1297 0.930 1_465 S
C1302 C1299 1.386 1_455 S
C1302 C1303 1.395 . S
C1303 C1300 1.411 . S
C1303 C1302 1.395 . S
C1303 C1325 1.420 1_565 S
O1304 Eu1260 2.558 . S
O1304 C1324 1.257 . S
O1305 Eu1260 2.612 . S
O1305 Eu1271 2.380 . S
O1305 C1316 1.276 . S
O1306 Eu1271 2.432 . S
O1306 C1323 1.264 . S
O1307 Eu1260 2.339 . S
O1307 C1323 1.254 . S
O1308 Eu1260 2.563 . S
O1308 C1316 1.235 . S
O1309 Eu1260 2.419 . S
O1309 C1324 1.249 . S
O1310 Eu1271 2.558 . S
O1310 C1335 1.257 . S
O1311 Eu1260 2.380 . S
O1311 Eu1271 2.612 . S
O1311 C1327 1.276 . S
O1312 Eu1260 2.432 . S
O1312 C1334 1.264 . S
O1313 Eu1271 2.339 . S
O1313 C1334 1.254 . S
O1314 Eu1271 2.563 . S
O1314 C1327 1.235 . S
O1315 Eu1271 2.419 . S
O1315 C1335 1.249 . S
C1316 O1305 1.276 . S
C1316 O1308 1.235 . S
C1317 C1319 1.393 . S
C1317 C1321 1.395 . S
C1317 C1324 1.492 . S
C1318 C1319 1.392 1_556 S
C1318 C1320 1.386 . S
C1319 C1317 1.393 . S
C1319 C1318 1.392 1_554 S
C1319 H1336 0.930 . S
C1320 C1318 1.386 . S
C1320 C1322 1.395 . S
C1320 H1337 0.930 . S
C1321 C1317 1.395 . S
C1321 C1322 1.379 1_554 S
C1321 H1338 0.930 . S
C1322 C1320 1.395 . S
C1322 C1321 1.379 1_556 S
C1322 H1339 0.930 . S
C1323 O1306 1.264 . S
C1323 O1307 1.254 . S
C1324 Eu1260 2.848 . S
C1324 O1304 1.257 . S
C1324 O1309 1.249 . S
C1324 C1317 1.492 . S
C1325 H1290 0.931 . S
C1325 C1303 1.420 1_545 S
C1325 C1326 1.351 . S
C1326 H1288 0.930 . S
C1326 C1294 1.403 1_545 S
C1326 C1325 1.351 . S
C1327 O1311 1.276 . S
C1327 O1314 1.235 . S
C1328 C1329 1.393 . S
C1328 C1332 1.395 . S
C1328 C1335 1.492 . S
C1329 C1328 1.393 . S
C1329 C1330 1.392 . S
C1329 H1340 0.930 . S
C1330 C1329 1.392 . S
C1330 C1331 1.386 . S
C1331 C1330 1.386 . S
C1331 C1333 1.395 . S
C1331 H1341 0.930 . S
C1332 C1328 1.395 . S
C1332 C1333 1.379 . S
C1332 H1342 0.930 . S
C1333 C1331 1.395 . S
C1333 C1332 1.379 . S
C1333 H1343 0.930 . S
C1334 O1312 1.264 . S
C1334 O1313 1.254 . S
C1335 Eu1271 2.848 . S
C1335 O1310 1.257 . S
C1335 O1315 1.249 . S
C1335 C1328 1.492 . S
H1336 C1319 0.930 . S
H1337 C1320 0.930 . S
H1338 C1321 0.930 . S
H1339 C1322 0.930 . S
H1340 C1329 0.930 . S
H1341 C1331 0.930 . S
H1342 C1332 0.930 . S
H1343 C1333 0.930 . S
C1344 C1345 1.387 . S
C1344 H1348 0.950 . S
C1344 C1353 1.390 . S
C1345 C1344 1.387 . S
C1345 C1347 1.387 . S
H1346 C1353 0.950 . S
C1347 C1345 1.387 . S
C1347 C1349 1.390 . S
C1347 H1351 0.950 . S
H1348 C1344 0.950 . S
C1349 C1347 1.390 . S
C1349 C1350 1.387 . S
C1349 H1352 0.950 1_565 S
C1350 C1349 1.387 . S
C1350 C1353 1.387 . S
H1351 C1347 0.950 . S
H1352 C1349 0.950 1_545 S
C1353 C1344 1.390 . S
C1353 H1346 0.950 . S
C1353 C1350 1.387 . S
C1354 C1355 1.387 . S
C1354 H1358 0.950 . S
C1354 C1363 1.390 . S
C1355 C1354 1.387 . S
C1355 C1357 1.387 . S
H1356 C1363 0.950 . S
C1357 C1355 1.387 . S
C1357 C1359 1.390 . S
C1357 H1361 0.950 . S
H1358 C1354 0.950 . S
C1359 C1357 1.390 . S
C1359 C1360 1.387 . S
C1359 H1362 0.965 . S
C1360 C1359 1.387 . S
C1360 C1363 1.387 . S
H1361 C1357 0.950 . S
H1362 C1359 0.965 . S
C1363 C1354 1.390 . S
C1363 H1356 0.950 . S
C1363 C1360 1.387 . S
C1364 C1365 1.387 . S
C1364 H1368 0.950 1_545 S
C1364 C1373 1.390 . S
C1365 C1364 1.387 . S
C1365 C1367 1.387 . S
H1366 C1373 0.950 . S
C1367 C1365 1.387 . S
C1367 C1369 1.390 . S
C1367 H1371 0.950 . S
H1368 C1364 0.950 1_565 S
C1369 C1367 1.390 . S
C1369 C1370 1.387 . S
C1369 H1372 0.950 . S
C1370 C1369 1.387 . S
C1370 C1373 1.387 . S
H1371 C1367 0.950 . S
H1372 C1369 0.950 . S
C1373 C1364 1.390 . S
C1373 H1366 0.950 . S
C1373 C1370 1.387 . S
C1374 C1375 1.387 . S
C1374 H1378 0.950 . S
C1374 C1383 1.390 . S
C1375 C1374 1.387 . S
C1375 C1377 1.387 . S
H1376 C1383 0.950 . S
C1377 C1375 1.387 . S
C1377 C1379 1.390 . S
C1377 H1381 0.950 1_455 S
H1378 C1374 0.950 . S
C1379 C1377 1.390 . S
C1379 C1380 1.387 . S
C1379 H1382 0.950 . S
C1380 C1379 1.387 . S
C1380 C1383 1.387 . S
H1381 C1377 0.950 1_655 S
H1382 C1379 0.950 . S
C1383 C1374 1.390 . S
C1383 H1376 0.950 . S
C1383 C1380 1.387 . S
C1384 C1385 1.387 . S
C1384 H1388 0.950 . S
C1384 C1393 1.390 . S
C1385 C1384 1.387 . S
C1385 C1387 1.383 1_554 S
H1386 C1393 0.950 . S
C1387 C1385 1.383 1_556 S
C1387 C1389 1.393 . S
C1387 H1391 0.951 . S
H1388 C1384 0.950 . S
C1389 C1387 1.393 . S
C1389 C1390 1.387 . S
C1389 H1392 0.950 . S
C1390 C1389 1.387 . S
C1390 C1393 1.387 1_556 S
H1391 C1387 0.951 . S
H1392 C1389 0.950 . S
C1393 C1384 1.390 . S
C1393 H1386 0.950 . S
C1393 C1390 1.387 1_554 S
C1394 C1395 1.387 . S
C1394 H1398 0.950 . S
C1394 C1403 1.390 . S
C1395 C1394 1.387 . S
C1395 C1397 1.387 1_554 S
H1396 C1403 0.950 . S
C1397 C1395 1.387 1_556 S
C1397 C1399 1.390 . S
C1397 H1401 0.950 . S
H1398 C1394 0.950 . S
C1399 C1397 1.390 . S
C1399 C1400 1.387 . S
C1399 H1402 0.950 . S
C1400 C1399 1.387 . S
C1400 C1403 1.387 1_556 S
H1401 C1397 0.950 . S
H1402 C1399 0.950 . S
C1403 C1394 1.390 . S
C1403 H1396 0.950 . S
C1403 C1400 1.387 1_554 S
C1404 C1405 1.387 1_556 S
C1404 H1408 0.950 . S
C1404 C1413 1.390 . S
C1405 C1404 1.387 1_554 S
C1405 C1407 1.387 . S
H1406 C1413 0.950 . S
C1407 C1405 1.387 . S
C1407 C1409 1.390 . S
C1407 H1411 0.950 . S
H1408 C1404 0.950 . S
C1409 C1407 1.390 . S
C1409 C1410 1.387 1_554 S
C1409 H1412 0.950 . S
C1410 C1409 1.387 1_556 S
C1410 C1413 1.387 . S
H1411 C1407 0.950 . S
H1412 C1409 0.950 . S
C1413 C1404 1.390 . S
C1413 H1406 0.950 . S
C1413 C1410 1.387 . S
C1414 C1415 1.387 1_556 S
C1414 H1418 0.949 1_556 S
C1414 C1423 1.392 . S
C1415 C1414 1.387 1_554 S
C1415 C1417 1.387 1_554 S
H1416 C1423 0.950 . S
C1417 C1415 1.387 1_556 S
C1417 C1419 1.390 . S
C1417 H1421 0.950 1_556 S
H1418 C1414 0.949 1_554 S
C1419 C1417 1.390 . S
C1419 C1420 1.387 . S
C1419 H1422 0.950 . S
C1420 C1419 1.387 . S
C1420 C1423 1.387 . S
H1421 C1417 0.950 1_554 S
H1422 C1419 0.950 . S
C1423 C1414 1.392 . S
C1423 H1416 0.950 . S
C1423 C1420 1.387 . S
C1424 C1425 1.387 . S
C1424 H1428 0.950 . S
C1424 C1433 1.390 . S
C1425 C1424 1.387 . S
C1425 C1427 1.387 . S
H1426 C1433 0.950 . S
C1427 C1425 1.387 . S
C1427 C1429 1.390 . S
C1427 H1431 0.950 . S
H1428 C1424 0.950 . S
C1429 C1427 1.390 . S
C1429 C1430 1.387 . S
C1429 H1432 0.950 . S
C1430 C1429 1.387 . S
C1430 C1433 1.387 . S
H1431 C1427 0.950 . S
H1432 C1429 0.950 . S
C1433 C1424 1.390 . S
C1433 H1426 0.950 . S
C1433 C1430 1.387 . S
C1434 C1435 1.387 . S
C1434 H1438 0.950 . S
C1434 C1443 1.390 . S
C1435 C1434 1.387 . S
C1435 C1437 1.387 . S
H1436 C1443 0.950 . S
C1437 C1435 1.387 . S
C1437 C1439 1.390 . S
C1437 H1441 0.950 . S
H1438 C1434 0.950 . S
C1439 C1437 1.390 . S
C1439 C1440 1.387 . S
C1439 H1442 0.950 . S
C1440 C1439 1.387 . S
C1440 C1443 1.387 . S
H1441 C1437 0.950 . S
H1442 C1439 0.950 . S
C1443 C1434 1.390 . S
C1443 H1436 0.950 . S
C1443 C1440 1.387 . S
C1444 C1445 1.387 . S
C1444 H1448 0.950 . S
C1444 C1453 1.390 . S
C1445 C1444 1.387 . S
C1445 C1447 1.387 . S
H1446 C1453 0.950 . S
C1447 C1445 1.387 . S
C1447 C1449 1.390 . S
C1447 H1451 0.950 . S
H1448 C1444 0.950 . S
C1449 C1447 1.390 . S
C1449 C1450 1.387 . S
C1449 H1452 0.950 . S
C1450 C1449 1.387 . S
C1450 C1453 1.387 . S
H1451 C1447 0.950 . S
H1452 C1449 0.950 . S
C1453 C1444 1.390 . S
C1453 H1446 0.950 . S
C1453 C1450 1.387 . S
C1454 C1455 1.387 . S
C1454 H1458 0.950 . S
C1454 C1463 1.390 . S
C1455 C1454 1.387 . S
C1455 C1457 1.387 . S
H1456 C1463 0.950 . S
C1457 C1455 1.387 . S
C1457 C1459 1.390 . S
C1457 H1461 0.950 . S
H1458 C1454 0.950 . S
C1459 C1457 1.390 . S
C1459 C1460 1.387 . S
C1459 H1462 0.950 . S
C1460 C1459 1.387 . S
C1460 C1463 1.387 . S
H1461 C1457 0.950 . S
H1462 C1459 0.950 . S
C1463 C1454 1.390 . S
C1463 H1456 0.950 . S
C1463 C1460 1.387 . S
C1464 C1465 1.387 . S
C1464 H1468 0.950 1_545 S
C1464 C1473 1.390 . S
C1465 C1464 1.387 . S
C1465 C1467 1.387 . S
H1466 C1473 0.950 . S
C1467 C1465 1.387 . S
C1467 C1469 1.390 . S
C1467 H1471 0.950 . S
H1468 C1464 0.950 1_565 S
C1469 C1467 1.390 . S
C1469 C1470 1.387 . S
C1469 H1472 0.950 . S
C1470 C1469 1.387 . S
C1470 C1473 1.387 . S
H1471 C1467 0.950 . S
H1472 C1469 0.950 . S
C1473 C1464 1.390 . S
C1473 H1466 0.950 . S
C1473 C1470 1.387 . S
C1474 C1475 1.387 . S
C1474 H1478 0.950 . S
C1474 C1483 1.390 . S
C1475 C1474 1.387 . S
C1475 C1477 1.387 . S
H1476 C1483 0.950 . S
C1477 C1475 1.387 . S
C1477 C1479 1.390 . S
C1477 H1481 0.950 . S
H1478 C1474 0.950 . S
C1479 C1477 1.390 . S
C1479 C1480 1.387 . S
C1479 H1482 0.950 . S
C1480 C1479 1.387 . S
C1480 C1483 1.387 . S
H1481 C1477 0.950 . S
H1482 C1479 0.950 . S
C1483 C1474 1.390 . S
C1483 H1476 0.950 . S
C1483 C1480 1.387 . S
C1484 C1485 1.387 . S
C1484 H1488 0.950 . S
C1484 C1493 1.390 . S
C1485 C1484 1.387 . S
C1485 C1487 1.387 . S
H1486 C1493 0.950 . S
C1487 C1485 1.387 . S
C1487 C1489 1.390 . S
C1487 H1491 0.950 . S
H1488 C1484 0.950 . S
C1489 C1487 1.390 . S
C1489 C1490 1.387 . S
C1489 H1492 0.950 . S
C1490 C1489 1.387 . S
C1490 C1493 1.387 . S
H1491 C1487 0.950 . S
H1492 C1489 0.950 . S
C1493 C1484 1.390 . S
C1493 H1486 0.950 . S
C1493 C1490 1.387 . S
C1494 C1495 1.387 . S
C1494 H1498 0.950 1_655 S
C1494 C1503 1.390 . S
C1495 C1494 1.387 . S
C1495 C1497 1.387 . S
H1496 C1503 0.950 . S
C1497 C1495 1.387 . S
C1497 C1499 1.390 . S
C1497 H1501 0.950 . S
H1498 C1494 0.950 1_455 S
C1499 C1497 1.390 . S
C1499 C1500 1.387 . S
C1499 H1502 0.950 . S
C1500 C1499 1.387 . S
C1500 C1503 1.387 . S
H1501 C1497 0.950 . S
H1502 C1499 0.950 . S
C1503 C1494 1.390 . S
C1503 H1496 0.950 . S
C1503 C1500 1.387 . S
C1504 C1505 1.387 . S
C1504 H1508 0.950 . S
C1504 C1513 1.390 . S
C1505 C1504 1.387 . S
C1505 C1507 1.387 . S
H1506 C1513 0.950 . S
C1507 C1505 1.387 . S
C1507 C1509 1.390 . S
C1507 H1511 0.950 . S
H1508 C1504 0.950 . S
C1509 C1507 1.390 . S
C1509 C1510 1.387 . S
C1509 H1512 0.950 . S
C1510 C1509 1.387 . S
C1510 C1513 1.387 . S
H1511 C1507 0.950 . S
H1512 C1509 0.950 . S
C1513 C1504 1.390 . S
C1513 H1506 0.950 . S
C1513 C1510 1.387 . S
C1514 C1515 1.387 . S
C1514 H1518 0.950 . S
C1514 C1523 1.390 . S
C1515 C1514 1.387 . S
C1515 C1517 1.387 . S
H1516 C1523 0.950 . S
C1517 C1515 1.387 . S
C1517 C1519 1.390 . S
C1517 H1521 0.950 . S
H1518 C1514 0.950 . S
C1519 C1517 1.390 . S
C1519 C1520 1.387 . S
C1519 H1522 0.950 . S
C1520 C1519 1.387 . S
C1520 C1523 1.387 . S
H1521 C1517 0.950 . S
H1522 C1519 0.950 . S
C1523 C1514 1.390 . S
C1523 H1516 0.950 . S
C1523 C1520 1.387 . S
C1524 C1525 1.387 . S
C1524 H1528 0.950 . S
C1524 C1533 1.390 . S
C1525 C1524 1.387 . S
C1525 C1527 1.387 . S
H1526 C1533 0.950 . S
C1527 C1525 1.387 . S
C1527 C1529 1.390 . S
C1527 H1531 0.950 . S
H1528 C1524 0.950 . S
C1529 C1527 1.390 . S
C1529 C1530 1.387 . S
C1529 H1532 0.950 . S
C1530 C1529 1.387 . S
C1530 C1533 1.387 . S
H1531 C1527 0.950 . S
H1532 C1529 0.950 . S
C1533 C1524 1.390 . S
C1533 H1526 0.950 . S
C1533 C1530 1.387 . S
C1534 C1535 1.387 . S
C1534 H1538 0.950 . S
C1534 C1543 1.390 . S
C1535 C1534 1.387 . S
C1535 C1537 1.387 . S
H1536 C1543 0.950 . S
C1537 C1535 1.387 . S
C1537 C1539 1.390 . S
C1537 H1541 0.950 . S
H1538 C1534 0.950 . S
C1539 C1537 1.390 . S
C1539 C1540 1.387 . S
C1539 H1542 0.950 . S
C1540 C1539 1.387 . S
C1540 C1543 1.387 . S
H1541 C1537 0.950 . S
H1542 C1539 0.950 . S
C1543 C1534 1.390 . S
C1543 H1536 0.950 . S
C1543 C1540 1.387 . S
C1544 C1545 1.387 . S
C1544 H1548 0.950 . S
C1544 C1553 1.390 . S
C1545 C1544 1.387 . S
C1545 C1547 1.387 . S
H1546 C1553 0.950 . S
C1547 C1545 1.387 . S
C1547 C1549 1.390 . S
C1547 H1551 0.950 . S
H1548 C1544 0.950 . S
C1549 C1547 1.390 . S
C1549 C1550 1.387 . S
C1549 H1552 0.950 . S
C1550 C1549 1.387 . S
C1550 C1553 1.387 . S
H1551 C1547 0.950 . S
H1552 C1549 0.950 . S
C1553 C1544 1.390 . S
C1553 H1546 0.950 . S
C1553 C1550 1.387 . S
C1554 C1555 1.387 . S
C1554 H1558 0.950 . S
C1554 C1563 1.390 . S
C1555 C1554 1.387 . S
C1555 C1557 1.387 . S
H1556 C1563 0.950 . S
C1557 C1555 1.387 . S
C1557 C1559 1.390 . S
C1557 H1561 0.950 . S
H1558 C1554 0.950 . S
C1559 C1557 1.390 . S
C1559 C1560 1.387 . S
C1559 H1562 0.950 . S
C1560 C1559 1.387 . S
C1560 C1563 1.387 . S
H1561 C1557 0.950 . S
H1562 C1559 0.950 . S
C1563 C1554 1.390 . S
C1563 H1556 0.950 . S
C1563 C1560 1.387 . S
C1564 C1565 1.387 . S
C1564 H1568 0.950 . S
C1564 C1573 1.390 . S
C1565 C1564 1.387 . S
C1565 C1567 1.387 . S
H1566 C1573 0.950 . S
C1567 C1565 1.387 . S
C1567 C1569 1.390 . S
C1567 H1571 0.950 . S
H1568 C1564 0.950 . S
C1569 C1567 1.390 . S
C1569 C1570 1.387 . S
C1569 H1572 0.950 . S
C1570 C1569 1.387 . S
C1570 C1573 1.387 . S
H1571 C1567 0.950 . S
H1572 C1569 0.950 . S
C1573 C1564 1.390 . S
C1573 H1566 0.950 . S
C1573 C1570 1.387 . S
C1574 C1575 1.387 . S
C1574 H1578 0.950 . S
C1574 C1583 1.390 . S
C1575 C1574 1.387 . S
C1575 C1577 1.387 . S
H1576 C1583 0.950 . S
C1577 C1575 1.387 . S
C1577 C1579 1.390 . S
C1577 H1581 0.950 . S
H1578 C1574 0.950 . S
C1579 C1577 1.390 . S
C1579 C1580 1.387 . S
C1579 H1582 0.950 . S
C1580 C1579 1.387 . S
C1580 C1583 1.387 . S
H1581 C1577 0.950 . S
H1582 C1579 0.950 . S
C1583 C1574 1.390 . S
C1583 H1576 0.950 . S
C1583 C1580 1.387 . S
C1584 C1585 1.387 . S
C1584 H1588 0.950 . S
C1584 C1593 1.390 . S
C1585 C1584 1.387 . S
C1585 C1587 1.387 . S
H1586 C1593 0.950 . S
C1587 C1585 1.387 . S
C1587 C1589 1.390 . S
C1587 H1591 0.950 . S
H1588 C1584 0.950 . S
C1589 C1587 1.390 . S
C1589 C1590 1.387 . S
C1589 H1592 0.950 . S
C1590 C1589 1.387 . S
C1590 C1593 1.387 . S
H1591 C1587 0.950 . S
H1592 C1589 0.950 . S
C1593 C1584 1.390 . S
C1593 H1586 0.950 . S
C1593 C1590 1.387 . S
C1594 C1595 1.387 . S
C1594 H1598 0.950 . S
C1594 C1603 1.390 . S
C1595 C1594 1.387 . S
C1595 C1597 1.387 . S
H1596 C1603 0.950 . S
C1597 C1595 1.387 . S
C1597 C1599 1.390 . S
C1597 H1601 0.950 . S
H1598 C1594 0.950 . S
C1599 C1597 1.390 . S
C1599 C1600 1.387 . S
C1599 H1602 0.950 . S
C1600 C1599 1.387 . S
C1600 C1603 1.387 . S
H1601 C1597 0.950 . S
H1602 C1599 0.950 . S
C1603 C1594 1.390 . S
C1603 H1596 0.950 . S
C1603 C1600 1.387 . S
C1604 C1605 1.387 . S
C1604 H1608 0.950 . S
C1604 C1613 1.390 . S
C1605 C1604 1.387 . S
C1605 C1607 1.387 . S
H1606 C1613 0.950 . S
C1607 C1605 1.387 . S
C1607 C1609 1.390 . S
C1607 H1611 0.950 . S
H1608 C1604 0.950 . S
C1609 C1607 1.390 . S
C1609 C1610 1.387 . S
C1609 H1612 0.950 . S
C1610 C1609 1.387 . S
C1610 C1613 1.387 . S
H1611 C1607 0.950 . S
H1612 C1609 0.950 . S
C1613 C1604 1.390 . S
C1613 H1606 0.950 . S
C1613 C1610 1.387 . S
C1614 C1615 1.387 . S
C1614 H1618 0.950 . S
C1614 C1623 1.390 . S
C1615 C1614 1.387 . S
C1615 C1617 1.387 . S
H1616 C1623 0.950 . S
C1617 C1615 1.387 . S
C1617 C1619 1.390 . S
C1617 H1621 0.950 . S
H1618 C1614 0.950 . S
C1619 C1617 1.390 . S
C1619 C1620 1.387 . S
C1619 H1622 0.950 . S
C1620 C1619 1.387 . S
C1620 C1623 1.387 . S
H1621 C1617 0.950 . S
H1622 C1619 0.950 . S
C1623 C1614 1.390 . S
C1623 H1616 0.950 . S
C1623 C1620 1.387 . S
C1624 C1625 1.387 . S
C1624 H1628 0.950 . S
C1624 C1633 1.390 . S
C1625 C1624 1.387 . S
C1625 C1627 1.387 . S
H1626 C1633 0.950 . S
C1627 C1625 1.387 . S
C1627 C1629 1.390 . S
C1627 H1631 0.950 . S
H1628 C1624 0.950 . S
C1629 C1627 1.390 . S
C1629 C1630 1.387 . S
C1629 H1632 0.950 . S
C1630 C1629 1.387 . S
C1630 C1633 1.387 . S
H1631 C1627 0.950 . S
H1632 C1629 0.950 . S
C1633 C1624 1.390 . S
C1633 H1626 0.950 . S
C1633 C1630 1.387 . S
C1634 C1635 1.387 . S
C1634 H1638 0.950 . S
C1634 C1643 1.390 . S
C1635 C1634 1.387 . S
C1635 C1637 1.387 . S
H1636 C1643 0.950 . S
C1637 C1635 1.387 . S
C1637 C1639 1.390 . S
C1637 H1641 0.950 . S
H1638 C1634 0.950 . S
C1639 C1637 1.390 . S
C1639 C1640 1.387 . S
C1639 H1642 0.950 . S
C1640 C1639 1.387 . S
C1640 C1643 1.387 . S
H1641 C1637 0.950 . S
H1642 C1639 0.950 . S
C1643 C1634 1.390 . S
C1643 H1636 0.950 . S
C1643 C1640 1.387 . S
C1644 C1645 1.387 . S
C1644 H1648 0.950 . S
C1644 C1653 1.390 . S
C1645 C1644 1.387 . S
C1645 C1647 1.387 . S
H1646 C1653 0.950 . S
C1647 C1645 1.387 . S
C1647 C1649 1.390 . S
C1647 H1651 0.950 . S
H1648 C1644 0.950 . S
C1649 C1647 1.390 . S
C1649 C1650 1.387 . S
C1649 H1652 0.950 . S
C1650 C1649 1.387 . S
C1650 C1653 1.387 . S
H1651 C1647 0.950 . S
H1652 C1649 0.950 . S
C1653 C1644 1.390 . S
C1653 H1646 0.950 . S
C1653 C1650 1.387 . S
C1654 C1655 1.387 . S
C1654 H1658 0.950 . S
C1654 C1663 1.390 . S
C1655 C1654 1.387 . S
C1655 C1657 1.387 . S
H1656 C1663 0.950 . S
C1657 C1655 1.387 . S
C1657 C1659 1.390 . S
C1657 H1661 0.950 . S
H1658 C1654 0.950 . S
C1659 C1657 1.390 . S
C1659 C1660 1.387 . S
C1659 H1662 0.950 . S
C1660 C1659 1.387 . S
C1660 C1663 1.387 . S
H1661 C1657 0.950 . S
H1662 C1659 0.950 . S
C1663 C1654 1.390 . S
C1663 H1656 0.950 . S
C1663 C1660 1.387 . S
C1664 C1665 1.387 . S
C1664 H1668 0.950 . S
C1664 C1673 1.390 . S
C1665 C1664 1.387 . S
C1665 C1667 1.387 . S
H1666 C1673 0.950 . S
C1667 C1665 1.387 . S
C1667 C1669 1.390 . S
C1667 H1671 0.950 . S
H1668 C1664 0.950 . S
C1669 C1667 1.390 . S
C1669 C1670 1.387 . S
C1669 H1672 0.950 . S
C1670 C1669 1.387 . S
C1670 C1673 1.387 . S
H1671 C1667 0.950 . S
H1672 C1669 0.950 . S
C1673 C1664 1.390 . S
C1673 H1666 0.950 . S
C1673 C1670 1.387 . S
C1674 C1675 1.387 . S
C1674 H1678 0.950 . S
C1674 C1683 1.390 . S
C1675 C1674 1.387 . S
C1675 C1677 1.387 . S
H1676 C1683 0.950 . S
C1677 C1675 1.387 . S
C1677 C1679 1.390 . S
C1677 H1681 0.950 . S
H1678 C1674 0.950 . S
C1679 C1677 1.390 . S
C1679 C1680 1.387 . S
C1679 H1682 0.950 . S
C1680 C1679 1.387 . S
C1680 C1683 1.387 . S
H1681 C1677 0.950 . S
H1682 C1679 0.950 . S
C1683 C1674 1.390 . S
C1683 H1676 0.950 . S
C1683 C1680 1.387 . S
C1684 C1685 1.387 . S
C1684 H1688 0.950 . S
C1684 C1693 1.390 . S
C1685 C1684 1.387 . S
C1685 C1687 1.387 . S
H1686 C1693 0.950 . S
C1687 C1685 1.387 . S
C1687 C1689 1.390 . S
C1687 H1691 0.950 . S
H1688 C1684 0.950 . S
C1689 C1687 1.390 . S
C1689 C1690 1.387 . S
C1689 H1692 0.950 . S
C1690 C1689 1.387 . S
C1690 C1693 1.387 . S
H1691 C1687 0.950 . S
H1692 C1689 0.950 . S
C1693 C1684 1.390 . S
C1693 H1686 0.950 . S
C1693 C1690 1.387 . S
C1694 C1695 1.387 . S
C1694 H1698 0.950 . S
C1694 C1703 1.390 . S
C1695 C1694 1.387 . S
C1695 C1697 1.387 . S
H1696 C1703 0.950 . S
C1697 C1695 1.387 . S
C1697 C1699 1.390 . S
C1697 H1701 0.950 . S
H1698 C1694 0.950 . S
C1699 C1697 1.390 . S
C1699 C1700 1.387 . S
C1699 H1702 0.950 . S
C1700 C1699 1.387 . S
C1700 C1703 1.387 . S
H1701 C1697 0.950 . S
H1702 C1699 0.950 . S
C1703 C1694 1.390 . S
C1703 H1696 0.950 . S
C1703 C1700 1.387 . S
C1704 C1705 1.387 . S
C1704 H1708 0.950 . S
C1704 C1713 1.390 . S
C1705 C1704 1.387 . S
C1705 C1707 1.387 . S
H1706 C1713 0.950 . S
C1707 C1705 1.387 . S
C1707 C1709 1.390 . S
C1707 H1711 0.950 . S
H1708 C1704 0.950 . S
C1709 C1707 1.390 . S
C1709 C1710 1.387 . S
C1709 H1712 0.950 . S
C1710 C1709 1.387 . S
C1710 C1713 1.387 . S
H1711 C1707 0.950 . S
H1712 C1709 0.950 . S
C1713 C1704 1.390 . S
C1713 H1706 0.950 . S
C1713 C1710 1.387 . S
C1714 C1715 1.387 . S
C1714 H1718 0.950 . S
C1714 C1723 1.390 . S
C1715 C1714 1.387 . S
C1715 C1717 1.387 . S
H1716 C1723 0.950 . S
C1717 C1715 1.387 . S
C1717 C1719 1.390 . S
C1717 H1721 0.950 . S
H1718 C1714 0.950 . S
C1719 C1717 1.390 . S
C1719 C1720 1.387 . S
C1719 H1722 0.950 . S
C1720 C1719 1.387 . S
C1720 C1723 1.387 . S
H1721 C1717 0.950 . S
H1722 C1719 0.950 . S
C1723 C1714 1.390 . S
C1723 H1716 0.950 . S
C1723 C1720 1.387 . S
C1724 C1725 1.387 . S
C1724 H1728 0.950 . S
C1724 C1733 1.390 . S
C1725 C1724 1.387 . S
C1725 C1727 1.387 . S
H1726 C1733 0.950 . S
C1727 C1725 1.387 . S
C1727 C1729 1.390 . S
C1727 H1731 0.950 . S
H1728 C1724 0.950 . S
C1729 C1727 1.390 . S
C1729 C1730 1.387 . S
C1729 H1732 0.950 . S
C1730 C1729 1.387 . S
C1730 C1733 1.387 . S
H1731 C1727 0.950 . S
H1732 C1729 0.950 . S
C1733 C1724 1.390 . S
C1733 H1726 0.950 . S
C1733 C1730 1.387 . S
C1734 C1735 1.387 . S
C1734 H1738 0.950 . S
C1734 C1743 1.390 . S
C1735 C1734 1.387 . S
C1735 C1737 1.387 . S
H1736 C1743 0.950 . S
C1737 C1735 1.387 . S
C1737 C1739 1.390 . S
C1737 H1741 0.950 . S
H1738 C1734 0.950 . S
C1739 C1737 1.390 . S
C1739 C1740 1.387 . S
C1739 H1742 0.950 . S
C1740 C1739 1.387 . S
C1740 C1743 1.387 . S
H1741 C1737 0.950 . S
H1742 C1739 0.950 . S
C1743 C1734 1.390 . S
C1743 H1736 0.950 . S
C1743 C1740 1.387 . S
C1744 C1745 1.387 . S
C1744 H1748 0.950 . S
C1744 C1753 1.390 . S
C1745 C1744 1.387 . S
C1745 C1747 1.387 . S
H1746 C1753 0.950 . S
C1747 C1745 1.387 . S
C1747 C1749 1.390 . S
C1747 H1751 0.950 . S
H1748 C1744 0.950 . S
C1749 C1747 1.390 . S
C1749 C1750 1.387 . S
C1749 H1752 0.950 . S
C1750 C1749 1.387 . S
C1750 C1753 1.387 . S
H1751 C1747 0.950 . S
H1752 C1749 0.950 . S
C1753 C1744 1.390 . S
C1753 H1746 0.950 . S
C1753 C1750 1.387 . S
C1754 C1755 1.387 . S
C1754 H1758 0.950 . S
C1754 C1763 1.390 . S
C1755 C1754 1.387 . S
C1755 C1757 1.387 . S
H1756 C1763 0.950 . S
C1757 C1755 1.387 . S
C1757 C1759 1.390 . S
C1757 H1761 0.950 . S
H1758 C1754 0.950 . S
C1759 C1757 1.390 . S
C1759 C1760 1.387 . S
C1759 H1762 0.950 . S
C1760 C1759 1.387 . S
C1760 C1763 1.387 . S
H1761 C1757 0.950 . S
H1762 C1759 0.950 . S
C1763 C1754 1.390 . S
C1763 H1756 0.950 . S
C1763 C1760 1.387 . S
C1764 C1765 1.387 . S
C1764 H1768 0.950 . S
C1764 C1773 1.390 . S
C1765 C1764 1.387 . S
C1765 C1767 1.387 . S
H1766 C1773 0.950 . S
C1767 C1765 1.387 . S
C1767 C1769 1.390 . S
C1767 H1771 0.950 . S
H1768 C1764 0.950 . S
C1769 C1767 1.390 . S
C1769 C1770 1.387 . S
C1769 H1772 0.950 . S
C1770 C1769 1.387 . S
C1770 C1773 1.387 . S
H1771 C1767 0.950 . S
H1772 C1769 0.950 . S
C1773 C1764 1.390 . S
C1773 H1766 0.950 . S
C1773 C1770 1.387 . S
C1774 C1775 1.387 . S
C1774 H1778 0.950 . S
C1774 C1783 1.390 . S
C1775 C1774 1.387 . S
C1775 C1777 1.387 . S
H1776 C1783 0.950 . S
C1777 C1775 1.387 . S
C1777 C1779 1.390 . S
C1777 H1781 0.950 . S
H1778 C1774 0.950 . S
C1779 C1777 1.390 . S
C1779 C1780 1.387 . S
C1779 H1782 0.950 . S
C1780 C1779 1.387 . S
C1780 C1783 1.387 . S
H1781 C1777 0.950 . S
H1782 C1779 0.950 . S
C1783 C1774 1.390 . S
C1783 H1776 0.950 . S
C1783 C1780 1.387 . S
C1784 C1785 1.387 . S
C1784 H1788 0.950 . S
C1784 C1793 1.390 . S
C1785 C1784 1.387 . S
C1785 C1787 1.387 . S
H1786 C1793 0.950 . S
C1787 C1785 1.387 . S
C1787 C1789 1.390 . S
C1787 H1791 0.950 . S
H1788 C1784 0.950 . S
C1789 C1787 1.390 . S
C1789 C1790 1.387 . S
C1789 H1792 0.950 . S
C1790 C1789 1.387 . S
C1790 C1793 1.387 . S
H1791 C1787 0.950 . S
H1792 C1789 0.950 . S
C1793 C1784 1.390 . S
C1793 H1786 0.950 . S
C1793 C1790 1.387 . S
C1794 C1795 1.387 . S
C1794 H1798 0.950 . S
C1794 C1803 1.390 . S
C1795 C1794 1.387 . S
C1795 C1797 1.387 . S
H1796 C1803 0.950 . S
C1797 C1795 1.387 . S
C1797 C1799 1.390 . S
C1797 H1801 0.950 . S
H1798 C1794 0.950 . S
C1799 C1797 1.390 . S
C1799 C1800 1.387 . S
C1799 H1802 0.950 . S
C1800 C1799 1.387 . S
C1800 C1803 1.387 . S
H1801 C1797 0.950 . S
H1802 C1799 0.950 . S
C1803 C1794 1.390 . S
C1803 H1796 0.950 . S
C1803 C1800 1.387 . S
C1804 C1805 1.387 . S
C1804 H1808 0.950 . S
C1804 C1813 1.390 . S
C1805 C1804 1.387 . S
C1805 C1807 1.387 . S
H1806 C1813 0.950 . S
C1807 C1805 1.387 . S
C1807 C1809 1.390 . S
C1807 H1811 0.950 . S
H1808 C1804 0.950 . S
C1809 C1807 1.390 . S
C1809 C1810 1.387 . S
C1809 H1812 0.950 . S
C1810 C1809 1.387 . S
C1810 C1813 1.387 . S
H1811 C1807 0.950 . S
H1812 C1809 0.950 . S
C1813 C1804 1.390 . S
C1813 H1806 0.950 . S
C1813 C1810 1.387 . S
C1814 C1815 1.387 . S
C1814 H1818 0.950 . S
C1814 C1823 1.390 . S
C1815 C1814 1.387 . S
C1815 C1817 1.387 . S
H1816 C1823 0.950 . S
C1817 C1815 1.387 . S
C1817 C1819 1.390 . S
C1817 H1821 0.950 . S
H1818 C1814 0.950 . S
C1819 C1817 1.390 . S
C1819 C1820 1.387 . S
C1819 H1822 0.950 . S
C1820 C1819 1.387 . S
C1820 C1823 1.387 . S
H1821 C1817 0.950 . S
H1822 C1819 0.950 . S
C1823 C1814 1.390 . S
C1823 H1816 0.950 . S
C1823 C1820 1.387 . S
C1345 C991 1.625 . S
C1350 C63 1.689 1_565 S
C1355 C728 1.625 . S
C1360 C158 1.689 1_655 S
C1365 C231 1.690 1_545 S
C1370 C823 1.622 . S
C1375 C326 1.689 1_455 S
C1380 C896 1.625 . S
C1385 C399 1.690 . S
C1390 C487 1.624 . S
C1395 C560 1.625 . S
C1400 C494 1.689 . S
C1405 C567 1.690 . S
C1410 C655 1.623 . S
C1415 C392 1.623 . S
C1420 C662 1.690 . S
C1425 C319 1.624 . S
C1430 C735 1.690 . S
C1435 C830 1.689 . S
C1440 C56 1.623 . S
C1445 C151 1.625 . S
C1450 C903 1.689 . S
C1455 C224 1.624 . S
C1460 C998 1.689 . S
C1465 C1071 1.690 1_545 S
C1470 C1159 1.623 . S
C1475 C1232 1.625 . S
C1480 C1166 1.689 1_455 S
C1485 C1327 1.625 . S
C1490 C1239 1.689 1_565 S
C1495 C1334 1.690 1_655 S
C1500 C1064 1.623 . S
C1505 C74 1.398 . S
C1510 C410 1.398 . S
C1515 C483 1.398 . S
C1520 C147 1.398 . S
C1525 C242 1.403 . S
C1530 C578 1.403 . S
C1535 C315 1.403 . S
C1540 C651 1.403 . S
C1545 C746 1.398 . S
C1550 C1082 1.398 . S
C1555 C1155 1.398 . S
C1560 C819 1.398 . S
C1565 C914 1.403 . S
C1570 C1250 1.403 . S
C1575 C987 1.398 . S
C1580 C1323 1.398 . S
C1585 C1243 2.233 . S
C1590 C67 2.233 1_556 S
C1595 C140 2.233 1_554 S
C1600 C1316 2.233 . S
C1605 C235 2.229 1_556 S
C1610 C1075 2.229 . S
C1615 C308 2.229 1_554 S
C1620 C1148 2.229 . S
C1625 C403 2.229 . S
C1630 C907 2.229 . S
C1635 C476 2.233 . S
C1640 C980 2.233 . S
C1645 C571 2.229 . S
C1650 C739 2.229 . S
C1655 C812 2.229 . S
C1660 C644 2.229 . S
C1665 C58 1.274 . S
C1670 C70 1.274 . S
C1675 C154 1.275 . S
C1680 C142 1.275 . S
C1685 C226 1.269 . S
C1690 C238 1.269 . S
C1695 C310 1.275 . S
C1700 C322 1.275 . S
C1705 C406 1.275 . S
C1710 C394 1.275 . S
C1715 C490 1.275 . S
C1720 C478 1.275 . S
C1725 C562 1.271 . S
C1730 C574 1.271 . S
C1735 C646 1.269 . S
C1740 C658 1.269 . S
C1745 C730 1.271 . S
C1750 C742 1.271 . S
C1755 C814 1.269 . S
C1760 C826 1.269 . S
C1765 C910 1.270 . S
C1770 C898 1.270 . S
C1775 C994 1.270 . S
C1780 C982 1.270 . S
C1785 C1066 1.272 . S
C1790 C1078 1.272 . S
C1795 C1150 1.273 . S
C1800 C1162 1.273 . S
C1805 C1246 1.269 . S
C1810 C1234 1.269 . S
C1815 C1330 1.275 . S
C1820 C1318 1.275 . S
