# Generated by pormake.
# Topology rob, (6)-cn, num edge types: 1
# Building blocks:
#     Node 0, Type 0, BuildingBlock: KUMBOL_clean_sbu_1, # of connection points: 6
#     Node 1, Type 0, BuildingBlock: KUMBOL_clean_sbu_1, # of connection points: 6
#     Node 2, Type 0, BuildingBlock: KUMBOL_clean_sbu_1, # of connection points: 6
#     Node 3, Type 0, BuildingBlock: KUMBOL_clean_sbu_1, # of connection points: 6
#     Edge 4, Type (0, 0), BuildingBlock: MIFKUJ_clean_linker_0, # of connection points: 2
#     Edge 5, Type (0, 0), BuildingBlock: MIFKUJ_clean_linker_0, # of connection points: 2
#     Edge 6, Type (0, 0), BuildingBlock: MIFKUJ_clean_linker_0, # of connection points: 2
#     Edge 7, Type (0, 0), BuildingBlock: MIFKUJ_clean_linker_0, # of connection points: 2
#     Edge 8, Type (0, 0), BuildingBlock: MIFKUJ_clean_linker_0, # of connection points: 2
#     Edge 9, Type (0, 0), BuildingBlock: MIFKUJ_clean_linker_0, # of connection points: 2
#     Edge 10, Type (0, 0), BuildingBlock: MIFKUJ_clean_linker_0, # of connection points: 2
#     Edge 11, Type (0, 0), BuildingBlock: MIFKUJ_clean_linker_0, # of connection points: 2
#     Edge 12, Type (0, 0), BuildingBlock: MIFKUJ_clean_linker_0, # of connection points: 2
#     Edge 13, Type (0, 0), BuildingBlock: MIFKUJ_clean_linker_0, # of connection points: 2
#     Edge 14, Type (0, 0), BuildingBlock: MIFKUJ_clean_linker_0, # of connection points: 2
#     Edge 15, Type (0, 0), BuildingBlock: MIFKUJ_clean_linker_0, # of connection points: 2
# Relax obj value: 0.017
# Max RMSD: 0.099
# Mean RMSD: 0.099
data_MOF--net-rob--node1-KUMBOL_clean_sbu_1--edge1-MIFKUJ_clean_linker_0
_symmetry_space_group_name_H-M    P1
_symmetry_Int_Tables_number       1
_symmetry_cell_setting            triclinic
loop_
_symmetry_equiv_pos_as_xyz
'x, y, z'
_cell_length_a     23.017208
_cell_length_b     31.293609
_cell_length_c     42.40622
_cell_angle_alpha  108.88235
_cell_angle_beta   89.993042
_cell_angle_gamma 90.118038
loop_
_atom_site_label
_atom_site_type_symbol
_atom_site_fract_x
_atom_site_fract_y
_atom_site_fract_z
_atom_type_partial_charge
C0 C 0.1156 0.35355 0.02089 0.0
C1 C 0.02541 0.31113 0.00775 0.0
C2 C 0.08457 0.31394 0.01702 0.0
C3 C 0.99836 0.34819 1.00209 0.0
C4 C 0.08857 0.39078 0.01518 0.0
C5 C 0.02984 0.38786 0.00578 0.0
N6 N 0.17274 0.35519 0.02933 0.0
C7 C 0.20486 0.39332 0.03354 0.0
C8 C 0.12149 0.42981 0.01896 0.0
C9 C 0.17981 0.43112 0.02833 0.0
Gd10 Gd 0.31595 0.20857 0.96743 0.0
Gd11 Gd 0.21003 0.29084 0.03867 0.0
N12 N 0.11232 0.27805 0.02178 0.0
C13 C 0.9953 0.27096 0.00407 0.0
C14 C 0.08179 0.24014 0.0206 0.0
C15 C 0.02356 0.23544 0.01071 0.0
H16 H 0.10107 0.21396 0.0283 0.0
H17 H 1.00018 0.20467 0.00874 0.0
H18 H 0.42372 0.28647 0.97909 0.0
H19 H 0.24948 0.39498 0.04162 0.0
H20 H 0.52298 0.29785 1.00122 0.0
H21 H 0.95001 0.2673 0.99669 0.0
H22 H 0.95308 0.34647 0.99479 0.0
H23 H 0.27773 0.10421 0.96378 0.0
H24 H 0.10225 0.45915 0.01487 0.0
H25 H 0.20537 0.46133 0.0318 0.0
H26 H 0.56763 0.15981 0.02208 0.0
H27 H 0.00836 0.4161 1.00124 0.0
H28 H 0.42218 0.04376 0.99689 0.0
H29 H 0.32112 0.03912 0.9761 0.0
N30 N 0.35323 0.14511 0.97794 0.0
C31 C 0.40913 0.14824 0.98882 0.0
C32 C 0.32168 0.10659 0.97313 0.0
C33 C 0.40338 0.07237 0.99152 0.0
C34 C 0.34623 0.06965 0.97989 0.0
C35 C 0.43556 0.11198 0.99617 0.0
H36 H 0.51381 0.08912 0.01414 0.0
N37 N 0.41196 0.22333 0.98705 0.0
C38 C 0.43911 0.18859 0.99382 0.0
C39 C 0.52667 0.23328 0.00907 0.0
C40 C 0.49689 0.19298 0.00554 0.0
C41 C 0.44229 0.26131 0.98821 0.0
C42 C 0.49951 0.2673 0.99989 0.0
O43 O 0.19733 0.29236 0.98598 0.0
O44 O 0.22421 0.22072 0.95471 0.0
O45 O 0.35576 0.21652 0.9223 0.0
O46 O 0.32046 0.1516 0.92237 0.0
O47 O 0.20642 0.21509 0.02986 0.0
O48 O 0.22748 0.18157 0.97384 0.0
O49 O 0.32342 0.2063 0.02039 0.0
O50 O 0.30308 0.27948 0.04994 0.0
O51 O 0.17343 0.28257 0.08453 0.0
O52 O 0.20519 0.348 0.08335 0.0
O53 O 0.31816 0.28381 0.97502 0.0
O54 O 0.29769 0.31831 0.0309 0.0
C55 C 0.20159 0.25997 0.95727 0.0
C56 C 0.20401 0.18062 1.00192 0.0
C57 C 0.35991 0.15256 0.86977 0.0
C58 C 0.39884 0.15481 0.81664 0.0
C59 C 0.34961 0.08753 0.81968 0.0
C60 C 0.34028 0.10826 0.85363 0.0
C61 C 0.37833 0.11063 0.80124 0.0
C62 C 0.38998 0.17573 0.85116 0.0
C63 C 0.34514 0.1744 0.90533 0.0
C64 C 0.52336 0.15692 0.01292 0.0
C65 C 0.49279 0.11657 0.00828 0.0
H66 H 0.57113 0.23795 0.01794 0.0
C67 C 0.32443 0.2402 0.04841 0.0
C68 C 0.3192 0.31919 1.00233 0.0
C69 C 0.16619 0.34792 0.13607 0.0
C70 C 0.12879 0.34705 0.18975 0.0
C71 C 0.16471 0.41695 0.18358 0.0
C72 C 0.17754 0.39441 0.15029 0.0
C73 C 0.14068 0.39351 0.20323 0.0
C74 C 0.14103 0.32425 0.15589 0.0
C75 C 0.18128 0.32537 0.10073 0.0
H76 H 0.33403 0.0535 0.80752 0.0
H77 H 0.31682 0.08964 0.86713 0.0
H78 H 0.38499 0.09376 0.77483 0.0
H79 H 0.40505 0.21001 0.86315 0.0
H80 H 0.17356 0.45274 0.19422 0.0
H81 H 0.1965 0.41361 0.1357 0.0
H82 H 0.13091 0.41186 0.22907 0.0
H83 H 0.13199 0.28842 0.14532 0.0
C84 C 0.63325 0.87396 0.02927 0.0
C85 C 0.54027 0.84344 0.00521 0.0
C86 C 0.5959 0.83743 0.01696 0.0
C87 C 0.52297 0.88667 0.0057 0.0
C88 C 0.61594 0.91744 0.03 0.0
C89 C 0.56072 0.92356 0.01802 0.0
N90 N 0.68627 0.86702 0.04081 0.0
C91 C 0.72372 0.9021 0.05401 0.0
C92 C 0.65461 0.95351 0.04289 0.0
C93 C 0.70865 0.9458 0.05504 0.0
Gd94 Gd 0.81589 0.71119 0.96867 0.0
Gd95 Gd 0.70771 0.79258 0.03742 0.0
N96 N 0.61442 0.79584 0.01614 0.0
C97 C 0.50374 0.8058 0.99333 0.0
C98 C 0.57836 0.75932 0.00569 0.0
C99 C 0.52275 0.76363 0.9938 0.0
H100 H 0.59218 0.72689 0.00658 0.0
H101 H 0.49448 0.73448 0.98516 0.0
H102 H 0.91962 0.7911 0.97544 0.0
H103 H 0.76491 0.89651 0.0642 0.0
H104 H 0.01392 0.81276 0.00323 0.0
H105 H 0.46065 0.809 0.98407 0.0
H106 H 0.48043 0.89196 0.99667 0.0
H107 H 0.78589 0.60817 0.97147 0.0
H108 H 0.64297 0.98744 0.04385 0.0
H109 H 0.73856 0.97355 0.06541 0.0
H110 H 0.06098 0.69038 0.04331 0.0
H111 H 0.54668 0.95672 0.01833 0.0
H112 H 0.92771 0.56603 0.01983 0.0
H113 H 0.83145 0.551 0.99247 0.0
N114 N 0.85585 0.65467 0.98698 0.0
C115 C 0.90954 0.66319 1.00107 0.0
C116 C 0.82804 0.61479 0.98331 0.0
C117 C 0.90815 0.59106 0.0105 0.0
C118 C 0.8537 0.58246 0.99513 0.0
C119 C 0.93678 0.63178 0.01364 0.0
H120 H 0.01284 0.61849 0.03907 0.0
N121 N 0.90838 0.73415 0.99182 0.0
C122 C 0.93607 0.70432 0.00402 0.0
C123 C 0.01872 0.75451 0.01953 0.0
C124 C 0.99153 0.71418 0.01878 0.0
C125 C 0.93728 0.77116 0.98957 0.0
C126 C 0.99194 0.78267 0.00427 0.0
O127 O 0.69018 0.7896 0.98399 0.0
O128 O 0.72976 0.7233 0.94819 0.0
O129 O 0.86659 0.71321 0.92509 0.0
O130 O 0.82539 0.65077 0.92624 0.0
O131 O 0.69594 0.71686 0.02412 0.0
O132 O 0.7277 0.68038 0.96994 0.0
O133 O 0.80999 0.70803 0.02143 0.0
O134 O 0.80019 0.78247 0.04982 0.0
O135 O 0.66887 0.76702 0.07465 0.0
O136 O 0.69493 0.83709 0.08798 0.0
O137 O 0.81324 0.78605 0.9742 0.0
O138 O 0.79632 0.81795 0.03022 0.0
C139 C 0.69566 0.75872 0.95442 0.0
C140 C 0.69551 0.68249 0.99611 0.0
C141 C 0.87899 0.64548 0.87594 0.0
C142 C 0.93161 0.64154 0.82487 0.0
C143 C 0.88602 0.57432 0.83071 0.0
C144 C 0.86681 0.59907 0.86245 0.0
C145 C 0.91813 0.59524 0.81206 0.0
C146 C 0.9113 0.66685 0.8569 0.0
C147 C 0.85682 0.67056 0.90959 0.0
C148 C 0.01859 0.68316 0.03166 0.0
C149 C 0.99129 0.64211 0.02912 0.0
H150 H 0.0613 0.76334 0.03065 0.0
C151 C 0.8184 0.74249 0.0484 0.0
C152 C 0.81441 0.82109 1.00171 0.0
C153 C 0.61472 0.8205 0.11655 0.0
C154 C 0.55544 0.82602 0.16542 0.0
C155 C 0.52386 0.86191 0.1254 0.0
C156 C 0.57357 0.84642 0.10641 0.0
C157 C 0.51495 0.8521 0.15484 0.0
C158 C 0.60507 0.80969 0.14585 0.0
C159 C 0.66896 0.80652 0.09768 0.0
H160 H 0.8757 0.53876 0.8204 0.0
H161 H 0.84201 0.58173 0.87635 0.0
H162 H 0.93189 0.57513 0.78727 0.0
H163 H 0.9211 0.7026 0.86699 0.0
H164 H 0.49241 0.88199 0.11745 0.0
H165 H 0.58022 0.85531 0.08413 0.0
H166 H 0.47614 0.86467 0.1693 0.0
H167 H 0.63677 0.78974 0.1538 0.0
C168 C 0.12388 0.62928 0.4812 0.0
C169 C 0.03014 0.66316 0.50039 0.0
C170 C 0.08763 0.66686 0.49005 0.0
C171 C 0.00949 0.62132 0.50125 0.0
C172 C 0.10372 0.58753 0.48301 0.0
C173 C 0.04629 0.58373 0.49293 0.0
N174 N 0.17894 0.63365 0.47106 0.0
C175 C 0.21593 0.59768 0.46216 0.0
C176 C 0.14173 0.55068 0.47443 0.0
C177 C 0.19809 0.55582 0.46398 0.0
Gd178 Gd 0.30587 0.7888 0.53674 0.0
Gd179 Gd 0.20283 0.70435 0.46675 0.0
N180 N 0.10865 0.70696 0.48866 0.0
C181 C 0.9948 0.70152 0.50918 0.0
C182 C 0.07364 0.74399 0.49611 0.0
C183 C 0.01667 0.74205 0.50696 0.0
H184 H 0.08855 0.77484 0.49302 0.0
H185 H 0.98932 0.77162 0.51304 0.0
H186 H 0.41493 0.71326 0.5311 0.0
H187 H 0.25867 0.60082 0.45268 0.0
H188 H 0.51199 0.69742 0.50613 0.0
H189 H 0.95042 0.70008 0.51731 0.0
H190 H 0.96492 0.61766 0.50814 0.0
H191 H 0.27224 0.89299 0.53831 0.0
H192 H 0.12783 0.51808 0.47551 0.0
H193 H 0.22753 0.52737 0.45686 0.0
H194 H 0.55698 0.82798 0.47526 0.0
H195 H 0.02976 0.55178 0.49402 0.0
H196 H 0.4164 0.94701 0.4996 0.0
H197 H 0.31688 0.95537 0.52289 0.0
N198 N 0.34532 0.84995 0.52354 0.0
C199 C 0.40056 0.84499 0.51156 0.0
C200 C 0.31546 0.88905 0.52798 0.0
C201 C 0.39704 0.91963 0.5064 0.0
C202 C 0.34078 0.92444 0.51944 0.0
C203 C 0.42768 0.87958 0.5023 0.0
H204 H 0.50541 0.89898 0.48144 0.0
N205 N 0.40179 0.77185 0.51693 0.0
C206 C 0.42917 0.80452 0.5076 0.0
C207 C 0.51546 0.75842 0.49326 0.0
C208 C 0.48638 0.7983 0.49498 0.0
C209 C 0.43244 0.73538 0.51867 0.0
C210 C 0.48873 0.72724 0.50576 0.0
O211 O 0.19406 0.70288 0.51962 0.0
O212 O 0.21494 0.77592 0.55155 0.0
O213 O 0.34737 0.78273 0.58185 0.0
O214 O 0.31325 0.84742 0.58087 0.0
O215 O 0.19142 0.77969 0.47644 0.0
O216 O 0.21784 0.81744 0.53136 0.0
O217 O 0.30838 0.79211 0.48391 0.0
O218 O 0.29335 0.71838 0.45271 0.0
O219 O 0.15698 0.71686 0.42478 0.0
O220 O 0.19512 0.65103 0.41992 0.0
O221 O 0.30967 0.71327 0.52875 0.0
O222 O 0.29343 0.68152 0.47246 0.0
C223 C 0.19175 0.73631 0.54788 0.0
C224 C 0.19001 0.81537 0.50368 0.0
C225 C 0.35778 0.84809 0.63286 0.0
C226 C 0.40185 0.84718 0.68506 0.0
C227 C 0.36006 0.91633 0.68107 0.0
C228 C 0.34493 0.89413 0.64798 0.0
C229 C 0.38809 0.89301 0.69957 0.0
C230 C 0.38697 0.82462 0.65153 0.0
C231 C 0.33955 0.82546 0.59794 0.0
C232 C 0.51325 0.83239 0.48524 0.0
C233 C 0.484 0.87292 0.48891 0.0
H234 H 0.55936 0.75228 0.48365 0.0
C235 C 0.31472 0.75841 0.45609 0.0
C236 C 0.31464 0.67947 0.50065 0.0
C237 C 0.14662 0.65585 0.37079 0.0
C238 C 0.09256 0.65957 0.32223 0.0
C239 C 0.14096 0.59018 0.32075 0.0
C240 C 0.16059 0.61063 0.3532 0.0
C241 C 0.10686 0.61434 0.30539 0.0
C242 C 0.11296 0.68064 0.35494 0.0
C243 C 0.16598 0.67533 0.4058 0.0
H244 H 0.34977 0.95173 0.69246 0.0
H245 H 0.32277 0.91311 0.63431 0.0
H246 H 0.39929 0.91082 0.72532 0.0
H247 H 0.39734 0.78914 0.64034 0.0
H248 H 0.15196 0.55537 0.30752 0.0
H249 H 0.18645 0.5907 0.36459 0.0
H250 H 0.09199 0.59782 0.2801 0.0
H251 H 0.10181 0.71552 0.36803 0.0
C252 C 0.60293 0.16266 0.49985 0.0
C253 C 0.52115 0.21356 0.51789 0.0
C254 C 0.57711 0.20431 0.50378 0.0
C255 C 0.49273 0.18135 0.52906 0.0
C256 C 0.57419 0.13003 0.51059 0.0
C257 C 0.51915 0.13973 0.52542 0.0
N258 N 0.65693 0.15452 0.48626 0.0
C259 C 0.684 0.11425 0.48164 0.0
C260 C 0.60195 0.08873 0.50638 0.0
C261 C 0.657 0.08078 0.49175 0.0
Gd262 Gd 0.81085 0.2949 0.53841 0.0
Gd263 Gd 0.69779 0.21202 0.46965 0.0
N264 N 0.60576 0.23507 0.49289 0.0
C265 C 0.4947 0.25444 0.51955 0.0
C266 C 0.57777 0.27285 0.4916 0.0
C267 C 0.52272 0.28381 0.50578 0.0
H268 H 0.59625 0.29361 0.47836 0.0
H269 H 0.5013 0.31434 0.50536 0.0
H270 H 0.92967 0.23081 0.52078 0.0
H271 H 0.72639 0.10804 0.47015 0.0
H272 H 0.03202 0.23738 0.50544 0.0
H273 H 0.45173 0.26279 0.53017 0.0
H274 H 0.44989 0.18807 0.54014 0.0
H275 H 0.7523 0.39847 0.55347 0.0
H276 H 0.58127 0.0628 0.51433 0.0
H277 H 0.67864 0.0489 0.48826 0.0
H278 H 0.04733 0.38849 0.50127 0.0
H279 H 0.4965 0.11518 0.534 0.0
H280 H 0.87857 0.48262 0.52854 0.0
H281 H 0.77975 0.47162 0.5476 0.0
N282 N 0.83206 0.36645 0.53415 0.0
C283 C 0.88751 0.37249 0.52526 0.0
C284 C 0.79422 0.40189 0.54322 0.0
C285 C 0.8661 0.44995 0.53011 0.0
C286 C 0.81021 0.44382 0.54072 0.0
C287 C 0.9059 0.41434 0.5228 0.0
H288 H 0.97837 0.45147 0.51167 0.0
N289 N 0.90751 0.29703 0.52187 0.0
C290 C 0.92665 0.3371 0.51962 0.0
C291 C 0.02294 0.306 0.50582 0.0
C292 C 0.98484 0.3425 0.51116 0.0
C293 C 0.94475 0.26179 0.51767 0.0
C294 C 1.00281 0.26556 0.50921 0.0
O295 O 0.70323 0.2094 0.52249 0.0
O296 O 0.71782 0.28377 0.54984 0.0
O297 O 0.84344 0.27708 0.58184 0.0
O298 O 0.82557 0.34698 0.58473 0.0
O299 O 0.70275 0.28618 0.474 0.0
O300 O 0.72247 0.31907 0.52949 0.0
O301 O 0.84171 0.27791 0.48494 0.0
O302 O 0.77288 0.236 0.44692 0.0
O303 O 0.64009 0.21092 0.4285 0.0
O304 O 0.69613 0.15304 0.42484 0.0
O305 O 0.81956 0.21942 0.52707 0.0
O306 O 0.78579 0.18119 0.47321 0.0
C307 C 0.69961 0.24418 0.54978 0.0
C308 C 0.70429 0.32182 0.50093 0.0
C309 C 0.85786 0.33789 0.63587 0.0
C310 C 0.9015 0.33157 0.68655 0.0
C311 C 0.85252 0.40065 0.68776 0.0
C312 C 0.83986 0.38199 0.654 0.0
C313 C 0.883 0.37563 0.704 0.0
C314 C 0.88928 0.31265 0.65226 0.0
C315 C 0.84296 0.31963 0.60013 0.0
C316 C 1.00293 0.38382 0.50802 0.0
C317 C 0.96358 0.41963 0.51383 0.0
H318 H 0.06792 0.30872 0.49917 0.0
C319 C 0.82219 0.25804 0.45445 0.0
C320 C 0.81945 0.18453 0.49926 0.0
C321 C 0.63481 0.14753 0.37666 0.0
C322 C 0.59168 0.14852 0.32412 0.0
C323 C 0.62434 0.07788 0.33029 0.0
C324 C 0.64206 0.10062 0.36285 0.0
C325 C 0.59977 0.10164 0.31095 0.0
C326 C 0.6086 0.1715 0.35728 0.0
C327 C 0.65767 0.17103 0.41045 0.0
H328 H 0.83849 0.43461 0.70141 0.0
H329 H 0.8156 0.40222 0.64213 0.0
H330 H 0.89248 0.39079 0.73032 0.0
H331 H 0.90358 0.27868 0.63869 0.0
H332 H 0.63025 0.04172 0.31987 0.0
H333 H 0.66184 0.08145 0.37718 0.0
H334 H 0.5869 0.08335 0.28557 0.0
H335 H 0.6032 0.2078 0.36743 0.0
H336 H 0.65806 0.65757 0.04846 0.0
H337 H 0.59424 0.59455 0.04709 0.0
H338 H 0.58389 0.55651 0.94001 0.0
H339 H 0.64879 0.61944 0.94109 0.0
H340 H 0.47317 0.56215 0.97467 0.0
H341 H 0.65965 0.49184 0.96641 0.0
H342 H 0.76153 0.48523 0.98205 0.0
H343 H 0.70722 0.48762 0.07949 0.0
H344 H 0.60489 0.49451 0.06445 0.0
H345 H 0.34423 0.34531 0.94846 0.0
H346 H 0.40652 0.40798 0.94669 0.0
H347 H 0.43396 0.44522 0.05278 0.0
H348 H 0.37149 0.38268 0.05479 0.0
H349 H 0.53684 0.43893 0.01661 0.0
H350 H 0.35113 0.511 0.02576 0.0
H351 H 0.24913 0.5193 0.01097 0.0
H352 H 0.30154 0.51423 0.91267 0.0
H353 H 0.40396 0.50589 0.92687 0.0
C354 C 0.64234 0.63578 0.02458 0.0
C355 C 0.65833 0.64344 0.99486 0.0
C356 C 0.60604 0.59973 0.02386 0.0
C357 C 0.58452 0.57094 0.99347 0.0
C358 C 0.60016 0.57846 0.9637 0.0
C359 C 0.63738 0.61418 0.96435 0.0
C360 C 0.54514 0.53336 0.99317 0.0
C361 C 0.48724 0.53474 0.98327 0.0
C362 C 0.5633 0.49841 0.00526 0.0
C363 C 0.62469 0.49416 0.01442 0.0
C364 C 0.66947 0.49135 0.99127 0.0
C365 C 0.72729 0.48747 1.00001 0.0
C366 C 0.74089 0.48626 0.03181 0.0
C367 C 0.69663 0.48866 0.05489 0.0
C368 C 0.63869 0.49245 0.04624 0.0
C369 C 0.36317 0.36709 0.97144 0.0
C370 C 0.35307 0.35911 1.00174 0.0
C371 C 0.39858 0.40291 0.97041 0.0
C372 C 0.42473 0.43122 0.99961 0.0
C373 C 0.41416 0.42369 0.02998 0.0
C374 C 0.37823 0.38815 0.0311 0.0
C375 C 0.46469 0.46773 0.9982 0.0
C376 C 0.52274 0.46619 0.00784 0.0
C377 C 0.44659 0.50257 0.98594 0.0
C378 C 0.38511 0.50734 0.97725 0.0
C379 C 0.34085 0.51126 1.00089 0.0
C380 C 0.28298 0.51604 0.99265 0.0
C381 C 0.26882 0.51698 0.96084 0.0
C382 C 0.31256 0.51339 0.93727 0.0
C383 C 0.37055 0.50876 0.94543 0.0
H384 H 0.22398 0.52066 0.95451 0.0
H385 H 0.78571 0.48331 0.03854 0.0
H386 H 0.33201 0.6438 0.55062 0.0
H387 H 0.39732 0.58189 0.55013 0.0
H388 H 0.44694 0.56729 0.44899 0.0
H389 H 0.3799 0.62773 0.44897 0.0
H390 H 0.43669 0.48744 0.45552 0.0
H391 H 0.53308 0.62658 0.51937 0.0
H392 H 0.53887 0.69977 0.56471 0.0
H393 H 0.51399 0.63251 0.6373 0.0
H394 H 0.50759 0.55906 0.59243 0.0
H395 H 0.68919 0.35679 0.45038 0.0
H396 H 0.62512 0.41917 0.45004 0.0
H397 H 0.57411 0.4361 0.55134 0.0
H398 H 0.63947 0.37521 0.55213 0.0
H399 H 0.586 0.51512 0.54433 0.0
H400 H 0.4888 0.37711 0.48238 0.0
H401 H 0.48235 0.3029 0.43834 0.0
H402 H 0.50611 0.36658 0.36346 0.0
H403 H 0.51357 0.44105 0.40715 0.0
C404 C 0.35663 0.62707 0.52826 0.0
C405 C 0.35124 0.64055 0.49991 0.0
C406 C 0.39413 0.59191 0.52803 0.0
C407 C 0.42807 0.57056 0.49975 0.0
C408 C 0.42138 0.58328 0.47111 0.0
C409 C 0.3831 0.61782 0.47113 0.0
C410 C 0.47148 0.53569 0.50015 0.0
C411 C 0.46978 0.49372 0.47471 0.0
C412 C 0.51397 0.54344 0.52556 0.0
C413 C 0.51943 0.58745 0.55255 0.0
C414 C 0.52865 0.6275 0.54501 0.0
C415 C 0.53201 0.66898 0.57059 0.0
C416 C 0.52658 0.67078 0.60382 0.0
C417 C 0.51813 0.63107 0.61155 0.0
C418 C 0.51476 0.58951 0.58606 0.0
C419 C 0.6647 0.37428 0.47261 0.0
C420 C 0.66933 0.3614 0.50126 0.0
C421 C 0.62791 0.40966 0.47238 0.0
C422 C 0.59402 0.43184 0.5005 0.0
C423 C 0.59983 0.4196 0.52938 0.0
C424 C 0.63724 0.38482 0.5298 0.0
C425 C 0.55121 0.4669 0.49972 0.0
C426 C 0.55302 0.50889 0.52508 0.0
C427 C 0.50858 0.45905 0.47438 0.0
C428 C 0.50221 0.41454 0.44803 0.0
C429 C 0.49286 0.37519 0.45653 0.0
C430 C 0.48905 0.33312 0.43164 0.0
C431 C 0.49394 0.33002 0.39812 0.0
C432 C 0.50237 0.36903 0.38943 0.0
C433 C 0.50633 0.41118 0.41425 0.0
H434 H 0.4911 0.29741 0.37888 0.0
H435 H 0.52905 0.70293 0.62358 0.0
H436 H 0.14226 0.12646 0.94933 0.0
H437 H 0.0741 0.06647 0.94928 0.0
H438 H 0.11698 0.08517 0.05201 0.0
H439 H 0.18294 0.14686 0.05259 0.0
H440 H 0.0808 0.98832 0.95687 0.0
H441 H 1.00597 0.06199 0.09323 0.0
H442 H 0.99694 0.13591 0.13728 0.0
H443 H 0.97451 0.20099 0.06342 0.0
H444 H 0.98336 0.12742 0.01867 0.0
H445 H 0.87734 0.87611 0.05326 0.0
H446 H 0.94181 0.93777 0.05254 0.0
H447 H 0.89217 0.9191 0.95077 0.0
H448 H 0.82932 0.85588 0.95098 0.0
H449 H 0.92974 0.01651 0.04471 0.0
H450 H 0.99784 0.9413 0.90853 0.0
H451 H 1.00285 0.86649 0.86516 0.0
H452 H 0.03809 0.80452 0.93984 0.0
H453 H 0.03252 0.87902 0.98371 0.0
C454 C 0.13733 0.11756 0.97184 0.0
C455 C 0.1674 0.14149 1.00107 0.0
C456 C 0.09834 0.08328 0.97179 0.0
C457 C 0.08929 0.07185 1.00083 0.0
C458 C 0.12171 0.09425 0.02958 0.0
C459 C 0.15973 0.12925 0.02985 0.0
C460 C 0.04537 0.03701 1.00107 0.0
C461 C 0.04739 0.99479 0.97588 0.0
C462 C 1.00216 0.04491 0.02612 0.0
C463 C 0.99576 0.08925 0.05264 0.0
C464 C 0.99893 0.09204 0.08635 0.0
C465 C 0.99406 0.13385 0.11141 0.0
C466 C 0.98556 0.17307 0.1031 0.0
C467 C 0.98162 0.17055 0.06969 0.0
C468 C 0.98663 0.12884 0.04447 0.0
C469 C 0.87973 0.88545 0.03082 0.0
C470 C 0.8486 0.86116 1.00208 0.0
C471 C 0.91665 0.92069 0.03044 0.0
C472 C 0.92275 0.93262 1.00144 0.0
C473 C 0.88942 0.90976 0.97318 0.0
C474 C 0.85327 0.87388 0.97335 0.0
C475 C 0.96538 0.96798 1.00063 0.0
C476 C 0.96312 0.01022 0.02569 0.0
C477 C 0.00838 0.96012 0.97554 0.0
C478 C 0.01466 0.9156 0.94931 0.0
C479 C 1.00716 0.91174 0.91562 0.0
C480 C 0.00992 0.86941 0.89099 0.0
C481 C 0.02114 0.8308 0.89971 0.0
C482 C 0.02946 0.83444 0.93312 0.0
C483 C 0.02629 0.87667 0.95788 0.0
H484 H 0.02325 0.79807 0.88057 0.0
H485 H 0.98184 0.20539 0.12257 0.0
H486 H 0.88951 0.17628 0.54912 0.0
H487 H 0.95249 0.1137 0.54837 0.0
H488 H 0.89742 0.04077 0.44818 0.0
H489 H 0.83434 0.10394 0.44834 0.0
H490 H 0.89894 0.98754 0.4905 0.0
H491 H 0.0272 0.08684 0.45832 0.0
H492 H 0.07527 0.15891 0.46244 0.0
H493 H 0.14588 0.16633 0.55779 0.0
H494 H 0.09774 0.09443 0.55437 0.0
H495 H 0.12468 0.82381 0.45206 0.0
H496 H 0.06124 0.88611 0.45193 0.0
H497 H 0.10735 0.95734 0.55399 0.0
H498 H 0.16981 0.89449 0.55485 0.0
H499 H 0.11099 0.01116 0.51017 0.0
H500 H 0.98031 0.91539 0.54433 0.0
H501 H 0.93278 0.8436 0.54151 0.0
H502 H 0.86817 0.82981 0.4437 0.0
H503 H 0.91527 0.90175 0.44603 0.0
C504 C 0.8907 0.14717 0.52672 0.0
C505 C 0.85695 0.14554 0.49862 0.0
C506 C 0.92695 0.11134 0.5264 0.0
C507 C 0.93017 0.07278 0.49811 0.0
C508 C 0.89572 0.07036 0.47024 0.0
C509 C 0.85974 0.10654 0.47038 0.0
C510 C 0.9695 0.03514 0.49798 0.0
C511 C 0.94542 0.99253 0.49423 0.0
C512 C 0.02994 0.04196 0.50386 0.0
C513 C 0.05843 0.08545 0.50621 0.0
C514 C 0.05256 0.10403 0.4803 0.0
C515 C 0.07999 0.14476 0.48245 0.0
C516 C 0.11359 0.16719 0.51037 0.0
C517 C 0.11985 0.14891 0.53618 0.0
C518 C 0.09258 0.10812 0.53412 0.0
C519 C 0.12151 0.85263 0.47457 0.0
C520 C 0.15274 0.85405 0.50344 0.0
C521 C 0.08506 0.8882 0.47441 0.0
C522 C 0.0795 0.92623 0.50296 0.0
C523 C 0.11119 0.92827 0.53167 0.0
C524 C 0.14697 0.89231 0.53206 0.0
C525 C 0.04039 0.96372 0.50263 0.0
C526 C 0.06452 0.00624 0.50634 0.0
C527 C 0.98003 0.95691 0.49686 0.0
C528 C 0.95175 0.91367 0.49522 0.0
C529 C 0.9563 0.89688 0.52213 0.0
C530 C 0.92929 0.85626 0.52067 0.0
C531 C 0.89773 0.83201 0.49236 0.0
C532 C 0.89274 0.84857 0.46557 0.0
C533 C 0.91939 0.88936 0.467 0.0
H534 H 0.87703 0.80046 0.49123 0.0
H535 H 0.13477 0.19875 0.512 0.0
H536 H 0.64064 0.15824 0.26878 0.0
H537 H 0.59327 0.18325 0.2261 0.0
H538 H 0.43778 0.21427 0.28595 0.0
H539 H 0.48568 0.18947 0.32897 0.0
H540 H 0.41447 0.16129 0.22208 0.0
H541 H 0.51394 0.29871 0.27495 0.0
H542 H 0.59645 0.34856 0.29977 0.0
H543 H 0.6853 0.30556 0.2057 0.0
H544 H 0.6036 0.25491 0.1804 0.0
H545 H 0.34634 0.30606 0.10766 0.0
H546 H 0.38998 0.29769 0.15777 0.0
H547 H 0.41073 0.1548 0.10747 0.0
H548 H 0.36597 0.16272 0.05734 0.0
H549 H 0.49419 0.27091 0.17095 0.0
H550 H 0.38921 0.09914 0.16329 0.0
H551 H 0.29937 0.05641 0.14187 0.0
H552 H 0.20904 0.18018 0.15237 0.0
H553 H 0.29806 0.22364 0.17423 0.0
C554 C 0.59688 0.17155 0.27316 0.0
C555 C 0.56684 0.17227 0.30216 0.0
C556 C 0.56978 0.18573 0.24877 0.0
C557 C 0.51188 0.20058 0.25275 0.0
C558 C 0.48244 0.20288 0.28233 0.0
C559 C 0.50989 0.18916 0.30699 0.0
C560 C 0.48142 0.21067 0.22499 0.0
C561 C 0.43181 0.18539 0.211 0.0
C562 C 0.50335 0.24259 0.21077 0.0
C563 C 0.55286 0.27268 0.22587 0.0
C564 C 0.55131 0.29954 0.25962 0.0
C565 C 0.59788 0.32802 0.27377 0.0
C566 C 0.64616 0.33014 0.25434 0.0
C567 C 0.6479 0.30383 0.22072 0.0
C568 C 0.60144 0.27526 0.20646 0.0
C569 C 0.36023 0.27279 0.10716 0.0
C570 C 0.35271 0.23503 0.07838 0.0
C571 C 0.3854 0.26814 0.13585 0.0
C572 C 0.40326 0.22561 0.13654 0.0
C573 C 0.39666 0.1879 0.10769 0.0
C574 C 0.37144 0.19253 0.07893 0.0
C575 C 0.4282 0.22075 0.16758 0.0
C576 C 0.47682 0.24689 0.18209 0.0
C577 C 0.4045 0.19044 0.18275 0.0
C578 C 0.35048 0.16457 0.17013 0.0
C579 C 0.3501 0.11722 0.16117 0.0
C580 C 0.29933 0.09288 0.14892 0.0
C581 C 0.24858 0.11555 0.14567 0.0
C582 C 0.24843 0.16264 0.15478 0.0
C583 C 0.29905 0.18713 0.16706 0.0
H584 H 0.20935 0.09665 0.13616 0.0
H585 H 0.68216 0.35224 0.26533 0.0
H586 H 0.53091 0.887 0.22587 0.0
H587 H 0.50167 0.87179 0.27664 0.0
H588 H 0.5266 0.7291 0.22729 0.0
H589 H 0.55617 0.74432 0.17619 0.0
H590 H 0.41843 0.7501 0.25828 0.0
H591 H 0.61739 0.78195 0.28571 0.0
H592 H 0.70886 0.82493 0.29215 0.0
H593 H 0.62925 0.93762 0.36579 0.0
H594 H 0.53681 0.8956 0.35933 0.0
H595 H 0.3593 0.69268 0.40258 0.0
H596 H 0.41125 0.70193 0.3551 0.0
H597 H 0.39968 0.84674 0.39882 0.0
H598 H 0.34715 0.83772 0.44651 0.0
H599 H 0.50602 0.8205 0.37014 0.0
H600 H 0.30541 0.78846 0.34036 0.0
H601 H 0.21469 0.74452 0.33364 0.0
H602 H 0.29803 0.63104 0.26281 0.0
H603 H 0.39 0.67377 0.27003 0.0
C604 C 0.53075 0.85244 0.22599 0.0
C605 C 0.54526 0.81678 0.19711 0.0
C606 C 0.51429 0.8438 0.25501 0.0
C607 C 0.51187 0.79932 0.2557 0.0
C608 C 0.5281 0.76366 0.2272 0.0
C609 C 0.54528 0.77237 0.19817 0.0
C610 C 0.48919 0.79033 0.2857 0.0
C611 C 0.43819 0.7647 0.28265 0.0
C612 C 0.51427 0.81042 0.31755 0.0
C613 C 0.56996 0.83571 0.32185 0.0
C614 C 0.61919 0.81603 0.3031 0.0
C615 C 0.67126 0.8402 0.30677 0.0
C616 C 0.67485 0.884 0.32934 0.0
C617 C 0.62638 0.90368 0.34831 0.0
C618 C 0.57413 0.87968 0.34467 0.0
C619 C 0.36793 0.72657 0.40223 0.0
C620 C 0.34895 0.76453 0.42833 0.0
C621 C 0.39774 0.73176 0.37505 0.0
C622 C 0.40868 0.775 0.37318 0.0
C623 C 0.39167 0.81305 0.39974 0.0
C624 C 0.36175 0.80786 0.42702 0.0
C625 C 0.43514 0.78032 0.34274 0.0
C626 C 0.4866 0.8055 0.34573 0.0
C627 C 0.4105 0.75972 0.31075 0.0
C628 C 0.35486 0.73421 0.30601 0.0
C629 C 0.30461 0.754 0.32358 0.0
C630 C 0.25292 0.72929 0.31967 0.0
C631 C 0.25058 0.68501 0.29777 0.0
C632 C 0.29995 0.66533 0.27979 0.0
C633 C 0.35192 0.68974 0.28385 0.0
H634 H 0.21053 0.66597 0.29464 0.0
H635 H 0.71521 0.90267 0.33216 0.0
H636 H 0.68161 0.69638 0.89262 0.0
H637 H 0.63211 0.70587 0.8446 0.0
H638 H 0.58122 0.8406 0.90374 0.0
H639 H 0.63299 0.83217 0.95164 0.0
H640 H 0.52506 0.71973 0.8302 0.0
H641 H 0.58135 0.90836 0.85554 0.0
H642 H 0.65726 0.96299 0.88412 0.0
H643 H 0.77988 0.85497 0.86897 0.0
H644 H 0.70501 0.79981 0.83986 0.0
H645 H 0.35387 0.8213 0.73421 0.0
H646 H 0.40523 0.79882 0.77694 0.0
H647 H 0.56799 0.80243 0.72733 0.0
H648 H 0.51623 0.82494 0.68445 0.0
H649 H 0.57417 0.85029 0.79296 0.0
H650 H 0.51415 0.70279 0.72755 0.0
H651 H 0.44612 0.64343 0.69595 0.0
H652 H 0.34586 0.66076 0.78462 0.0
H653 H 0.41291 0.72072 0.81669 0.0
C654 C 0.65987 0.72811 0.89557 0.0
C655 C 0.66144 0.76357 0.92614 0.0
C656 C 0.63125 0.73333 0.86804 0.0
C657 C 0.60348 0.77409 0.87037 0.0
C658 C 0.60311 0.80905 0.90116 0.0
C659 C 0.63222 0.80399 0.92869 0.0
C660 C 0.57656 0.78025 0.84026 0.0
C661 C 0.53571 0.74835 0.82213 0.0
C662 C 0.59158 0.81689 0.82912 0.0
C663 C 0.63738 0.84995 0.84579 0.0
C664 C 0.6246 0.89631 0.85814 0.0
C665 C 0.66744 0.92736 0.87446 0.0
C666 C 0.7233 0.91244 0.87845 0.0
C667 C 0.73655 0.86647 0.86596 0.0
C668 C 0.69393 0.8353 0.84955 0.0
C669 C 0.40038 0.81591 0.73198 0.0
C670 C 0.43119 0.8241 0.70595 0.0
C671 C 0.42973 0.80328 0.75641 0.0
C672 C 0.49049 0.79891 0.75534 0.0
C673 C 0.52112 0.80561 0.72864 0.0
C674 C 0.49161 0.81794 0.70401 0.0
C675 C 0.52196 0.79015 0.78324 0.0
C676 C 0.56356 0.82166 0.80103 0.0
C677 C 0.50873 0.75254 0.79357 0.0
C678 C 0.46826 0.71653 0.77445 0.0
C679 C 0.47732 0.69421 0.74026 0.0
C680 C 0.439 0.6604 0.72227 0.0
C681 C 0.39162 0.6484 0.73825 0.0
C682 C 0.38255 0.67013 0.77227 0.0
C683 C 0.42074 0.70399 0.79038 0.0
H684 H 0.36199 0.62221 0.72428 0.0
H685 H 0.75634 0.93652 0.89116 0.0
H686 H 0.67192 0.31129 0.6074 0.0
H687 H 0.62512 0.30377 0.65703 0.0
H688 H 0.61436 0.15943 0.60957 0.0
H689 H 0.6642 0.16651 0.56072 0.0
H690 H 0.52343 0.27671 0.66847 0.0
H691 H 0.62276 0.10521 0.66557 0.0
H692 H 0.71309 0.06199 0.64719 0.0
H693 H 0.80683 0.18516 0.65958 0.0
H694 H 0.71728 0.22912 0.67844 0.0
H695 H 0.35865 0.16739 0.76023 0.0
H696 H 0.41376 0.19171 0.71983 0.0
H697 H 0.56327 0.21712 0.78472 0.0
H698 H 0.5079 0.1921 0.82525 0.0
H699 H 0.59273 0.16741 0.72261 0.0
H700 H 0.49126 0.30468 0.77161 0.0
H701 H 0.40692 0.35385 0.79327 0.0
H702 H 0.32919 0.31055 0.69596 0.0
H703 H 0.41275 0.26062 0.67379 0.0
C704 C 0.65995 0.27788 0.60758 0.0
C705 C 0.67136 0.23949 0.5799 0.0
C706 C 0.63286 0.27367 0.63595 0.0
C707 C 0.61654 0.23103 0.63727 0.0
C708 C 0.62732 0.19268 0.60948 0.0
C709 C 0.65517 0.19682 0.5813 0.0
C710 C 0.58815 0.22672 0.66766 0.0
C711 C 0.53872 0.25288 0.68033 0.0
C712 C 0.60881 0.1965 0.68377 0.0
C713 C 0.66319 0.17039 0.67319 0.0
C714 C 0.66272 0.12307 0.66456 0.0
C715 C 0.71377 0.09844 0.654 0.0
C716 C 0.76563 0.1208 0.65213 0.0
C717 C 0.76661 0.16786 0.66094 0.0
C718 C 0.71571 0.19264 0.67154 0.0
C719 C 0.40294 0.17901 0.76614 0.0
C720 C 0.42909 0.17788 0.79579 0.0
C721 C 0.4344 0.193 0.74308 0.0
C722 C 0.49271 0.20634 0.74921 0.0
C723 C 0.51835 0.20693 0.77946 0.0
C724 C 0.48662 0.19311 0.80272 0.0
C725 C 0.52737 0.21675 0.72295 0.0
C726 C 0.57779 0.19154 0.71093 0.0
C727 C 0.50849 0.24868 0.70796 0.0
C728 C 0.4581 0.27866 0.7211 0.0
C729 C 0.45598 0.30538 0.75488 0.0
C730 C 0.40835 0.33344 0.76724 0.0
C731 C 0.36267 0.33526 0.74602 0.0
C732 C 0.3646 0.30909 0.71237 0.0
C733 C 0.41213 0.28095 0.69988 0.0
H734 H 0.32583 0.35701 0.75564 0.0
H735 H 0.80507 0.10167 0.64391 0.0
H736 H 0.81417 0.66944 0.07009 0.0
H737 H 0.85761 0.6631 0.12143 0.0
H738 H 0.93448 0.7951 0.14225 0.0
H739 H 0.88914 0.8025 0.09195 0.0
H740 H 1.00163 0.69521 0.14168 0.0
H741 H 0.86102 0.81884 0.18834 0.0
H742 H 0.76329 0.8526 0.19474 0.0
H743 H 0.69553 0.74185 0.22239 0.0
H744 H 0.79272 0.70661 0.21503 0.0
H745 H 0.12616 0.72685 0.29846 0.0
H746 H 0.0757 0.74985 0.25561 0.0
H747 H 0.92945 0.66618 0.26123 0.0
H748 H 0.98003 0.64313 0.30392 0.0
H749 H 0.89508 0.74438 0.24926 0.0
H750 H 0.02957 0.62235 0.20642 0.0
H751 H 0.12509 0.58543 0.20225 0.0
H752 H 0.20135 0.68756 0.16774 0.0
H753 H 0.10636 0.72557 0.17229 0.0
C754 C 0.84029 0.69703 0.08573 0.0
C755 C 0.84776 0.73671 0.07753 0.0
C756 C 0.86479 0.69347 0.11497 0.0
C757 C 0.89797 0.72912 0.13584 0.0
C758 C 0.90782 0.76776 0.12677 0.0
C759 C 0.88208 0.77188 0.09811 0.0
C760 C 0.92348 0.72567 0.16684 0.0
C761 C 0.97881 0.70656 0.16533 0.0
C762 C 0.89275 0.73941 0.19735 0.0
C763 C 0.83391 0.75956 0.20035 0.0
C764 C 0.82507 0.80108 0.19494 0.0
C765 C 0.76982 0.82063 0.19894 0.0
C766 C 0.72321 0.79931 0.20887 0.0
C767 C 0.73166 0.75821 0.21456 0.0
C768 C 0.78677 0.73838 0.21037 0.0
C769 C 0.08243 0.71483 0.29142 0.0
C770 C 0.05674 0.68343 0.30442 0.0
C771 C 0.05381 0.72764 0.26679 0.0
C772 C 0.99919 0.70916 0.25493 0.0
C773 C 0.97151 0.68082 0.27002 0.0
C774 C 1.00029 0.66777 0.29441 0.0
C775 C 0.97399 0.71489 0.22438 0.0
C776 C 0.91837 0.73367 0.22576 0.0
C777 C 1.00418 0.70045 0.19363 0.0
C778 C 0.06103 0.67709 0.19007 0.0
C779 C 0.06679 0.63711 0.19816 0.0
C780 C 0.12082 0.61597 0.19572 0.0
C781 C 0.16931 0.63422 0.18484 0.0
C782 C 0.16378 0.67352 0.17623 0.0
C783 C 0.10985 0.69488 0.17873 0.0
H784 H 0.21113 0.61785 0.18301 0.0
H785 H 0.68065 0.81477 0.21239 0.0
H786 H 0.93541 0.28597 0.45367 0.0
H787 H 0.98956 0.2943 0.40661 0.0
H788 H 0.84218 0.24349 0.34249 0.0
H789 H 0.78795 0.23525 0.38938 0.0
H790 H 0.94 0.20858 0.31182 0.0
H791 H 0.87103 0.35677 0.37375 0.0
H792 H 0.8576 0.42213 0.42465 0.0
H793 H 0.04236 0.44122 0.43385 0.0
H794 H 0.05697 0.37544 0.38328 0.0
H795 H 0.02909 0.29628 0.18082 0.0
H796 H 0.97837 0.27276 0.22355 0.0
H797 H 0.12125 0.32314 0.29143 0.0
H798 H 0.17125 0.34696 0.24916 0.0
H799 H 0.02236 0.35816 0.31948 0.0
H800 H 0.0912 0.20965 0.25748 0.0
H801 H 0.10453 0.14131 0.20876 0.0
H802 H 0.9197 0.12218 0.20019 0.0
H803 H 0.90521 0.19085 0.24857 0.0
C804 C 0.91434 0.27706 0.4298 0.0
C805 C 0.85693 0.261 0.42577 0.0
C806 C 0.94542 0.28157 0.40276 0.0
C807 C 0.91948 0.27027 0.37114 0.0
C808 C 0.86296 0.25264 0.3667 0.0
C809 C 0.83199 0.24809 0.39369 0.0
C810 C 0.95055 0.27783 0.34281 0.0
C811 C 0.95746 0.2414 0.31328 0.0
C812 C 0.97385 0.32054 0.34498 0.0
C813 C 0.96511 0.36094 0.37485 0.0
C814 C 0.90882 0.37477 0.3867 0.0
C815 C 0.90099 0.41188 0.4155 0.0
C816 C 0.9491 0.43577 0.43249 0.0
C817 C 1.00514 0.42266 0.42066 0.0
C818 C 0.01322 0.38549 0.39191 0.0
C819 C 0.05013 0.30112 0.20458 0.0
C820 C 0.10374 0.32375 0.21192 0.0
C821 C 0.02116 0.28783 0.22899 0.0
C822 C 0.04585 0.29658 0.26082 0.0
C823 C 0.1011 0.31649 0.26722 0.0
C824 C 0.12973 0.32989 0.24303 0.0
C825 C 0.01283 0.28864 0.28849 0.0
C826 C 1.00503 0.32526 0.3179 0.0
C827 C 0.98857 0.24615 0.28613 0.0
C828 C 0.99713 0.20566 0.25644 0.0
C829 C 0.05337 0.19119 0.24497 0.0
C830 C 0.06114 0.15229 0.21749 0.0
C831 C 0.013 0.12735 0.20148 0.0
C832 C 0.95695 0.14146 0.2127 0.0
C833 C 0.94893 0.18038 0.24013 0.0
H834 H 0.01914 0.09709 0.18034 0.0
H835 H 0.94295 0.46448 0.45478 0.0
H836 H 0.86004 0.30533 0.73685 0.0
H837 H 0.91759 0.28526 0.77842 0.0
H838 H 0.07319 0.28549 0.72177 0.0
H839 H 0.01514 0.30529 0.67975 0.0
H840 H 0.0726 0.21881 0.75556 0.0
H841 H 0.04212 0.37825 0.77885 0.0
H842 H 0.98336 0.44647 0.78558 0.0
H843 H 0.88643 0.42116 0.86425 0.0
H844 H 0.94396 0.35236 0.85761 0.0
H845 H 0.25255 0.24648 0.89739 0.0
H846 H 0.20867 0.25505 0.84721 0.0
H847 H 0.04565 0.29132 0.89956 0.0
H848 H 0.09102 0.28571 0.94994 0.0
H849 H 0.05838 0.34103 0.86449 0.0
H850 H 0.08241 0.17858 0.83878 0.0
H851 H 0.14123 0.11064 0.83312 0.0
H852 H 0.24947 0.14102 0.76065 0.0
H853 H 0.19148 0.20932 0.76604 0.0
C854 C 0.90621 0.29941 0.7327 0.0
C855 C 0.93338 0.30678 0.70529 0.0
C856 C 0.93906 0.28824 0.75649 0.0
C857 C 0.9997 0.28477 0.75343 0.0
C858 C 0.02642 0.28813 0.72454 0.0
C859 C 0.99334 0.29921 0.70054 0.0
C860 C 0.03498 0.28329 0.78226 0.0
C861 C 0.07009 0.24565 0.77933 0.0
C862 C 0.03132 0.31828 0.81326 0.0
C863 C 0.99704 0.35993 0.81752 0.0
C864 C 0.00799 0.38705 0.79741 0.0
C865 C 0.97495 0.42584 0.80123 0.0
C866 C 0.93114 0.43806 0.82529 0.0
C867 C 0.92036 0.4116 0.84561 0.0
C868 C 0.95319 0.37273 0.84184 0.0
C869 C 0.20746 0.25659 0.89804 0.0
C870 C 0.17504 0.26582 0.92748 0.0
C871 C 0.18219 0.26104 0.86931 0.0
C872 C 0.12326 0.27279 0.86917 0.0
C873 C 0.09115 0.28226 0.89885 0.0
C874 C 0.11702 0.2792 0.92778 0.0
C875 C 0.09463 0.27561 0.83844 0.0
C876 C 0.06102 0.31392 0.84086 0.0
C877 C 0.09944 0.24106 0.80713 0.0
C878 C 0.13281 0.19911 0.80293 0.0
C879 C 0.11874 0.17072 0.82163 0.0
C880 C 0.15196 0.1322 0.8185 0.0
C881 C 0.1991 0.12157 0.79658 0.0
C882 C 0.21294 0.14931 0.7776 0.0
C883 C 0.17982 0.18784 0.78062 0.0
H884 H 0.22482 0.0918 0.79424 0.0
H885 H 0.90559 0.46806 0.82823 0.0
H886 H 0.19086 0.65982 0.5648 0.0
H887 H 0.14846 0.64905 0.61435 0.0
H888 H 0.07901 0.78451 0.6436 0.0
H889 H 0.12654 0.79651 0.59553 0.0
H890 H 0.1113 0.77478 0.69504 0.0
H891 H 0.98566 0.67466 0.61195 0.0
H892 H 0.95676 0.61275 0.56163 0.0
H893 H 0.06204 0.51987 0.59196 0.0
H894 H 0.08937 0.58095 0.64339 0.0
H895 H 0.90997 0.71989 0.81053 0.0
H896 H 0.9565 0.74356 0.76656 0.0
H897 H 0.07601 0.63207 0.74715 0.0
H898 H 0.03064 0.60885 0.79097 0.0
H899 H 0.01295 0.63238 0.6917 0.0
H900 H 0.12306 0.73727 0.78065 0.0
H901 H 0.13677 0.80095 0.8326 0.0
H902 H 0.04782 0.88928 0.78965 0.0
H903 H 0.03254 0.82593 0.73764 0.0
C904 C 0.16623 0.68714 0.5818 0.0
C905 C 0.1619 0.72896 0.57646 0.0
C906 C 0.14121 0.68082 0.61 0.0
C907 C 0.10882 0.71548 0.63266 0.0
C908 C 0.10368 0.7571 0.62678 0.0
C909 C 0.13062 0.76396 0.59922 0.0
C910 C 0.08286 0.70916 0.66322 0.0
C911 C 0.08875 0.74389 0.69401 0.0
C912 C 0.05423 0.66873 0.66258 0.0
C913 C 0.0401 0.63241 0.63118 0.0
C914 C 1.00302 0.64111 0.6077 0.0
C915 C 0.98678 0.60614 0.57905 0.0
C916 C 0.00837 0.56255 0.57323 0.0
C917 C 0.04561 0.55369 0.59638 0.0
C918 C 0.06103 0.58836 0.62544 0.0
C919 C 0.94725 0.70132 0.79751 0.0
C920 C 0.96612 0.6621 0.80381 0.0
C921 C 0.97366 0.71476 0.77235 0.0
C922 C 0.01933 0.68924 0.75337 0.0
C923 C 0.04053 0.652 0.76127 0.0
C924 C 0.01451 0.63876 0.78631 0.0
C925 C 0.04147 0.69785 0.72308 0.0
C926 C 0.03496 0.66341 0.69244 0.0
C927 C 0.06797 0.73893 0.72385 0.0
C928 C 0.07613 0.77673 0.75537 0.0
C929 C 0.10578 0.77013 0.78241 0.0
C930 C 0.11401 0.80621 0.81183 0.0
C931 C 0.09332 0.84914 0.81438 0.0
C932 C 0.06393 0.85603 0.78761 0.0
C933 C 0.05544 0.82005 0.75818 0.0
H934 H 0.10008 0.87708 0.8371 0.0
H935 H 0.99583 0.53559 0.55094 0.0
loop_
_geom_bond_atom_site_label_1
_geom_bond_atom_site_label_2
_geom_bond_distance
_geom_bond_site_symmetry_2
_ccdc_geom_bond_type
C0 C2 1.422 . S
C0 C4 1.415 . S
C0 N6 1.369 . S
C1 C2 1.421 . S
C1 C3 1.417 1_454 S
C1 C13 1.422 1_454 S
C2 C0 1.422 . S
C2 C1 1.421 . S
C2 N12 1.359 . S
C3 C1 1.417 1_656 S
C3 C5 1.329 1_656 S
C3 H22 0.930 . S
C4 C0 1.415 . S
C4 C5 1.437 . S
C4 C8 1.413 . S
C5 C3 1.329 1_454 S
C5 C4 1.437 . S
C5 H27 0.929 1_455 S
N6 C0 1.369 . S
N6 C7 1.338 . S
N6 Gd11 2.622 . S
C7 N6 1.338 . S
C7 C9 1.378 . S
C7 H19 0.929 . S
C8 C4 1.413 . S
C8 C9 1.348 . S
C8 H24 0.931 . S
C9 C7 1.378 . S
C9 C8 1.348 . S
C9 H25 0.930 . S
Gd10 N30 2.622 . S
Gd10 N37 2.570 . S
Gd10 O44 2.353 . S
Gd10 O45 2.468 . S
Gd10 O46 2.427 . S
Gd10 O48 2.388 . S
Gd10 O49 2.386 1_556 S
Gd10 O53 2.307 . S
Gd10 C63 2.805 . S
Gd11 N6 2.622 . S
Gd11 N12 2.570 . S
Gd11 O43 2.386 1_554 S
Gd11 O47 2.307 . S
Gd11 O50 2.353 . S
Gd11 O51 2.468 . S
Gd11 O52 2.427 . S
Gd11 O54 2.388 . S
Gd11 C75 2.805 . S
N12 C2 1.359 . S
N12 Gd11 2.570 . S
N12 C14 1.343 . S
C13 C1 1.422 1_656 S
C13 C15 1.321 . S
C13 H21 0.931 . S
C14 N12 1.343 . S
C14 C15 1.390 1_454 S
C14 H16 0.931 . S
C15 C13 1.321 . S
C15 C14 1.390 1_656 S
C15 H17 0.930 . S
H16 C14 0.931 . S
H17 C15 0.930 . S
H18 C41 0.931 . S
H19 C7 0.929 . S
H20 C42 0.930 . S
H21 C13 0.931 . S
H22 C3 0.930 . S
H23 C32 0.929 . S
H24 C8 0.931 . S
H25 C9 0.930 . S
H26 C64 0.930 . S
H27 C5 0.929 1_655 S
H28 C33 0.931 . S
H29 C34 0.930 . S
N30 Gd10 2.622 . S
N30 C31 1.369 . S
N30 C32 1.338 . S
C31 N30 1.369 . S
C31 C35 1.415 . S
C31 C38 1.422 . S
C32 H23 0.929 . S
C32 N30 1.338 . S
C32 C34 1.378 . S
C33 H28 0.931 . S
C33 C34 1.348 . S
C33 C35 1.413 . S
C34 H29 0.930 . S
C34 C32 1.378 . S
C34 C33 1.348 . S
C35 C31 1.415 . S
C35 C33 1.413 . S
C35 C65 1.437 . S
H36 C65 0.929 . S
N37 Gd10 2.570 . S
N37 C38 1.359 . S
N37 C41 1.343 . S
C38 C31 1.422 . S
C38 N37 1.359 . S
C38 C40 1.421 . S
C39 C40 1.422 1_554 S
C39 C42 1.321 . S
C39 H66 0.931 . S
C40 C38 1.421 . S
C40 C39 1.422 1_556 S
C40 C64 1.417 1_556 S
C41 H18 0.931 . S
C41 N37 1.343 . S
C41 C42 1.390 1_556 S
C42 H20 0.930 . S
C42 C39 1.321 . S
C42 C41 1.390 1_554 S
O43 Gd11 2.386 1_556 S
O43 C55 1.265 . S
O44 Gd10 2.353 . S
O44 C55 1.242 . S
O45 Gd10 2.468 . S
O45 C63 1.263 . S
O46 Gd10 2.427 . S
O46 C63 1.252 . S
O47 Gd11 2.307 . S
O47 C56 1.261 1_554 S
O48 Gd10 2.388 . S
O48 C56 1.252 . S
O49 Gd10 2.386 1_554 S
O49 C67 1.265 . S
O50 Gd11 2.353 . S
O50 C67 1.242 . S
O51 Gd11 2.468 . S
O51 C75 1.263 . S
O52 Gd11 2.427 . S
O52 C75 1.252 . S
O53 Gd10 2.307 . S
O53 C68 1.261 1_556 S
O54 Gd11 2.388 . S
O54 C68 1.252 . S
C55 O43 1.265 . S
C55 O44 1.242 . S
C56 O47 1.261 1_556 S
C56 O48 1.252 . S
C57 C60 1.394 . S
C57 C62 1.370 . S
C57 C63 1.500 . S
C58 C61 1.383 . S
C58 C62 1.395 . S
C59 C60 1.396 . S
C59 C61 1.365 . S
C59 H76 0.929 . S
C60 C57 1.394 . S
C60 C59 1.396 . S
C60 H77 0.930 . S
C61 C58 1.383 . S
C61 C59 1.365 . S
C61 H78 0.931 . S
C62 C57 1.370 . S
C62 C58 1.395 . S
C62 H79 0.930 . S
C63 Gd10 2.805 . S
C63 O45 1.263 . S
C63 O46 1.252 . S
C63 C57 1.500 . S
C64 H26 0.930 . S
C64 C40 1.417 1_554 S
C64 C65 1.329 1_554 S
C65 C35 1.437 . S
C65 H36 0.929 . S
C65 C64 1.329 1_556 S
H66 C39 0.931 . S
C67 O49 1.265 . S
C67 O50 1.242 . S
C68 O53 1.261 1_554 S
C68 O54 1.252 . S
C69 C72 1.394 . S
C69 C74 1.370 . S
C69 C75 1.500 . S
C70 C73 1.383 . S
C70 C74 1.395 . S
C71 C72 1.396 . S
C71 C73 1.365 . S
C71 H80 0.929 . S
C72 C69 1.394 . S
C72 C71 1.396 . S
C72 H81 0.930 . S
C73 C70 1.383 . S
C73 C71 1.365 . S
C73 H82 0.931 . S
C74 C69 1.370 . S
C74 C70 1.395 . S
C74 H83 0.930 . S
C75 Gd11 2.805 . S
C75 O51 1.263 . S
C75 O52 1.252 . S
C75 C69 1.500 . S
H76 C59 0.929 . S
H77 C60 0.930 . S
H78 C61 0.931 . S
H79 C62 0.930 . S
H80 C71 0.929 . S
H81 C72 0.930 . S
H82 C73 0.931 . S
H83 C74 0.930 . S
C84 C86 1.422 . S
C84 C88 1.415 . S
C84 N90 1.369 . S
C85 C86 1.421 . S
C85 C87 1.417 1_554 S
C85 C97 1.422 1_554 S
C86 C84 1.422 . S
C86 C85 1.421 . S
C86 N96 1.359 . S
C87 C85 1.417 1_556 S
C87 C89 1.329 1_556 S
C87 H106 0.930 . S
C88 C84 1.415 . S
C88 C89 1.437 . S
C88 C92 1.413 . S
C89 C87 1.329 1_554 S
C89 C88 1.437 . S
C89 H111 0.929 . S
N90 C84 1.369 . S
N90 C91 1.338 . S
N90 Gd95 2.622 . S
C91 N90 1.338 . S
C91 C93 1.378 . S
C91 H103 0.929 . S
C92 C88 1.413 . S
C92 C93 1.348 . S
C92 H108 0.931 . S
C93 C91 1.378 . S
C93 C92 1.348 . S
C93 H109 0.930 . S
Gd94 N114 2.622 . S
Gd94 N121 2.570 . S
Gd94 O128 2.353 . S
Gd94 O129 2.468 . S
Gd94 O130 2.427 . S
Gd94 O132 2.388 . S
Gd94 O133 2.386 1_556 S
Gd94 O137 2.307 . S
Gd94 C147 2.805 . S
Gd95 N90 2.622 . S
Gd95 N96 2.570 . S
Gd95 O127 2.386 1_554 S
Gd95 O131 2.307 . S
Gd95 O134 2.353 . S
Gd95 O135 2.468 . S
Gd95 O136 2.427 . S
Gd95 O138 2.388 . S
Gd95 C159 2.805 . S
N96 C86 1.359 . S
N96 Gd95 2.570 . S
N96 C98 1.343 . S
C97 C85 1.422 1_556 S
C97 C99 1.321 . S
C97 H105 0.931 . S
C98 N96 1.343 . S
C98 C99 1.390 1_554 S
C98 H100 0.931 . S
C99 C97 1.321 . S
C99 C98 1.390 1_556 S
C99 H101 0.930 . S
H100 C98 0.931 . S
H101 C99 0.930 . S
H102 C125 0.931 . S
H103 C91 0.929 . S
H104 C126 0.930 . S
H105 C97 0.931 . S
H106 C87 0.930 . S
H107 C116 0.929 . S
H108 C92 0.931 . S
H109 C93 0.930 . S
H110 C148 0.930 . S
H111 C89 0.929 . S
H112 C117 0.931 . S
H113 C118 0.930 . S
N114 Gd94 2.622 . S
N114 C115 1.369 . S
N114 C116 1.338 . S
C115 N114 1.369 . S
C115 C119 1.415 . S
C115 C122 1.422 . S
C116 H107 0.929 . S
C116 N114 1.338 . S
C116 C118 1.378 . S
C117 H112 0.931 . S
C117 C118 1.348 . S
C117 C119 1.413 . S
C118 H113 0.930 . S
C118 C116 1.378 . S
C118 C117 1.348 . S
C119 C115 1.415 . S
C119 C117 1.413 . S
C119 C149 1.437 . S
H120 C149 0.929 1_455 S
N121 Gd94 2.570 . S
N121 C122 1.359 . S
N121 C125 1.343 . S
C122 C115 1.422 . S
C122 N121 1.359 . S
C122 C124 1.421 . S
C123 C124 1.422 1_454 S
C123 C126 1.321 . S
C123 H150 0.931 . S
C124 C122 1.421 . S
C124 C123 1.422 1_656 S
C124 C148 1.417 1_656 S
C125 H102 0.931 . S
C125 N121 1.343 . S
C125 C126 1.390 1_656 S
C126 H104 0.930 . S
C126 C123 1.321 . S
C126 C125 1.390 1_454 S
O127 Gd95 2.386 1_556 S
O127 C139 1.265 . S
O128 Gd94 2.353 . S
O128 C139 1.242 . S
O129 Gd94 2.468 . S
O129 C147 1.263 . S
O130 Gd94 2.427 . S
O130 C147 1.252 . S
O131 Gd95 2.307 . S
O131 C140 1.261 1_554 S
O132 Gd94 2.388 . S
O132 C140 1.252 . S
O133 Gd94 2.386 1_554 S
O133 C151 1.265 . S
O134 Gd95 2.353 . S
O134 C151 1.242 . S
O135 Gd95 2.468 . S
O135 C159 1.263 . S
O136 Gd95 2.427 . S
O136 C159 1.252 . S
O137 Gd94 2.307 . S
O137 C152 1.261 1_556 S
O138 Gd95 2.388 . S
O138 C152 1.252 . S
C139 O127 1.265 . S
C139 O128 1.242 . S
C140 O131 1.261 1_556 S
C140 O132 1.252 . S
C141 C144 1.394 . S
C141 C146 1.370 . S
C141 C147 1.500 . S
C142 C145 1.383 . S
C142 C146 1.395 . S
C143 C144 1.396 . S
C143 C145 1.365 . S
C143 H160 0.929 . S
C144 C141 1.394 . S
C144 C143 1.396 . S
C144 H161 0.930 . S
C145 C142 1.383 . S
C145 C143 1.365 . S
C145 H162 0.931 . S
C146 C141 1.370 . S
C146 C142 1.395 . S
C146 H163 0.930 . S
C147 Gd94 2.805 . S
C147 O129 1.263 . S
C147 O130 1.252 . S
C147 C141 1.500 . S
C148 H110 0.930 . S
C148 C124 1.417 1_454 S
C148 C149 1.329 1_454 S
C149 C119 1.437 . S
C149 H120 0.929 1_655 S
C149 C148 1.329 1_656 S
H150 C123 0.931 . S
C151 O133 1.265 . S
C151 O134 1.242 . S
C152 O137 1.261 1_554 S
C152 O138 1.252 . S
C153 C156 1.394 . S
C153 C158 1.370 . S
C153 C159 1.500 . S
C154 C157 1.383 . S
C154 C158 1.395 . S
C155 C156 1.396 . S
C155 C157 1.365 . S
C155 H164 0.929 . S
C156 C153 1.394 . S
C156 C155 1.396 . S
C156 H165 0.930 . S
C157 C154 1.383 . S
C157 C155 1.365 . S
C157 H166 0.931 . S
C158 C153 1.370 . S
C158 C154 1.395 . S
C158 H167 0.930 . S
C159 Gd95 2.805 . S
C159 O135 1.263 . S
C159 O136 1.252 . S
C159 C153 1.500 . S
H160 C143 0.929 . S
H161 C144 0.930 . S
H162 C145 0.931 . S
H163 C146 0.930 . S
H164 C155 0.929 . S
H165 C156 0.930 . S
H166 C157 0.931 . S
H167 C158 0.930 . S
C168 C170 1.422 . S
C168 C172 1.415 . S
C168 N174 1.369 . S
C169 C170 1.421 . S
C169 C171 1.417 1_455 S
C169 C181 1.422 1_455 S
C170 C168 1.422 . S
C170 C169 1.421 . S
C170 N180 1.359 . S
C171 C169 1.417 1_655 S
C171 C173 1.329 1_655 S
C171 H190 0.930 . S
C172 C168 1.415 . S
C172 C173 1.437 . S
C172 C176 1.413 . S
C173 C171 1.329 1_455 S
C173 C172 1.437 . S
C173 H195 0.929 1_455 S
N174 C168 1.369 . S
N174 C175 1.338 . S
N174 Gd179 2.622 . S
C175 N174 1.338 . S
C175 C177 1.378 . S
C175 H187 0.929 . S
C176 C172 1.413 . S
C176 C177 1.348 . S
C176 H192 0.931 . S
C177 C175 1.378 . S
C177 C176 1.348 . S
C177 H193 0.930 . S
Gd178 N198 2.622 . S
Gd178 N205 2.570 . S
Gd178 O212 2.353 . S
Gd178 O213 2.468 . S
Gd178 O214 2.427 . S
Gd178 O216 2.388 . S
Gd178 O217 2.386 . S
Gd178 O221 2.307 . S
Gd178 C231 2.805 . S
Gd179 N174 2.622 . S
Gd179 N180 2.570 . S
Gd179 O211 2.386 . S
Gd179 O215 2.307 . S
Gd179 O218 2.353 . S
Gd179 O219 2.468 . S
Gd179 O220 2.427 . S
Gd179 O222 2.388 . S
Gd179 C243 2.805 . S
N180 C170 1.359 . S
N180 Gd179 2.570 . S
N180 C182 1.343 . S
C181 C169 1.422 1_655 S
C181 C183 1.321 . S
C181 H189 0.931 . S
C182 N180 1.343 . S
C182 C183 1.390 1_455 S
C182 H184 0.931 . S
C183 C181 1.321 . S
C183 C182 1.390 1_655 S
C183 H185 0.930 . S
H184 C182 0.931 . S
H185 C183 0.930 . S
H186 C209 0.931 . S
H187 C175 0.929 . S
H188 C210 0.930 . S
H189 C181 0.931 . S
H190 C171 0.930 . S
H191 C200 0.929 . S
H192 C176 0.931 . S
H193 C177 0.930 . S
H194 C232 0.930 . S
H195 C173 0.929 1_655 S
H196 C201 0.931 . S
H197 C202 0.930 . S
N198 Gd178 2.622 . S
N198 C199 1.369 . S
N198 C200 1.338 . S
C199 N198 1.369 . S
C199 C203 1.415 . S
C199 C206 1.422 . S
C200 H191 0.929 . S
C200 N198 1.338 . S
C200 C202 1.378 . S
C201 H196 0.931 . S
C201 C202 1.348 . S
C201 C203 1.413 . S
C202 H197 0.930 . S
C202 C200 1.378 . S
C202 C201 1.348 . S
C203 C199 1.415 . S
C203 C201 1.413 . S
C203 C233 1.437 . S
H204 C233 0.929 . S
N205 Gd178 2.570 . S
N205 C206 1.359 . S
N205 C209 1.343 . S
C206 C199 1.422 . S
C206 N205 1.359 . S
C206 C208 1.421 . S
C207 C208 1.422 . S
C207 C210 1.321 . S
C207 H234 0.931 . S
C208 C206 1.421 . S
C208 C207 1.422 . S
C208 C232 1.417 . S
C209 H186 0.931 . S
C209 N205 1.343 . S
C209 C210 1.390 . S
C210 H188 0.930 . S
C210 C207 1.321 . S
C210 C209 1.390 . S
O211 Gd179 2.386 . S
O211 C223 1.265 . S
O212 Gd178 2.353 . S
O212 C223 1.242 . S
O213 Gd178 2.468 . S
O213 C231 1.263 . S
O214 Gd178 2.427 . S
O214 C231 1.252 . S
O215 Gd179 2.307 . S
O215 C224 1.261 . S
O216 Gd178 2.388 . S
O216 C224 1.252 . S
O217 Gd178 2.386 . S
O217 C235 1.265 . S
O218 Gd179 2.353 . S
O218 C235 1.242 . S
O219 Gd179 2.468 . S
O219 C243 1.263 . S
O220 Gd179 2.427 . S
O220 C243 1.252 . S
O221 Gd178 2.307 . S
O221 C236 1.261 . S
O222 Gd179 2.388 . S
O222 C236 1.252 . S
C223 O211 1.265 . S
C223 O212 1.242 . S
C224 O215 1.261 . S
C224 O216 1.252 . S
C225 C228 1.394 . S
C225 C230 1.370 . S
C225 C231 1.500 . S
C226 C229 1.383 . S
C226 C230 1.395 . S
C227 C228 1.396 . S
C227 C229 1.365 . S
C227 H244 0.929 . S
C228 C225 1.394 . S
C228 C227 1.396 . S
C228 H245 0.930 . S
C229 C226 1.383 . S
C229 C227 1.365 . S
C229 H246 0.931 . S
C230 C225 1.370 . S
C230 C226 1.395 . S
C230 H247 0.930 . S
C231 Gd178 2.805 . S
C231 O213 1.263 . S
C231 O214 1.252 . S
C231 C225 1.500 . S
C232 H194 0.930 . S
C232 C208 1.417 . S
C232 C233 1.329 . S
C233 C203 1.437 . S
C233 H204 0.929 . S
C233 C232 1.329 . S
H234 C207 0.931 . S
C235 O217 1.265 . S
C235 O218 1.242 . S
C236 O221 1.261 . S
C236 O222 1.252 . S
C237 C240 1.394 . S
C237 C242 1.370 . S
C237 C243 1.500 . S
C238 C241 1.383 . S
C238 C242 1.395 . S
C239 C240 1.396 . S
C239 C241 1.365 . S
C239 H248 0.929 . S
C240 C237 1.394 . S
C240 C239 1.396 . S
C240 H249 0.930 . S
C241 C238 1.383 . S
C241 C239 1.365 . S
C241 H250 0.931 . S
C242 C237 1.370 . S
C242 C238 1.395 . S
C242 H251 0.930 . S
C243 Gd179 2.805 . S
C243 O219 1.263 . S
C243 O220 1.252 . S
C243 C237 1.500 . S
H244 C227 0.929 . S
H245 C228 0.930 . S
H246 C229 0.931 . S
H247 C230 0.930 . S
H248 C239 0.929 . S
H249 C240 0.930 . S
H250 C241 0.931 . S
H251 C242 0.930 . S
C252 C254 1.422 . S
C252 C256 1.415 . S
C252 N258 1.369 . S
C253 C254 1.421 . S
C253 C255 1.417 . S
C253 C265 1.422 . S
C254 C252 1.422 . S
C254 C253 1.421 . S
C254 N264 1.359 . S
C255 C253 1.417 . S
C255 C257 1.329 . S
C255 H274 0.930 . S
C256 C252 1.415 . S
C256 C257 1.437 . S
C256 C260 1.413 . S
C257 C255 1.329 . S
C257 C256 1.437 . S
C257 H279 0.929 . S
N258 C252 1.369 . S
N258 C259 1.338 . S
N258 Gd263 2.622 . S
C259 N258 1.338 . S
C259 C261 1.378 . S
C259 H271 0.929 . S
C260 C256 1.413 . S
C260 C261 1.348 . S
C260 H276 0.931 . S
C261 C259 1.378 . S
C261 C260 1.348 . S
C261 H277 0.930 . S
Gd262 N282 2.622 . S
Gd262 N289 2.570 . S
Gd262 O296 2.353 . S
Gd262 O297 2.468 . S
Gd262 O298 2.427 . S
Gd262 O300 2.388 . S
Gd262 O301 2.386 . S
Gd262 O305 2.307 . S
Gd262 C315 2.805 . S
Gd263 N258 2.622 . S
Gd263 N264 2.570 . S
Gd263 O295 2.386 . S
Gd263 O299 2.307 . S
Gd263 O302 2.353 . S
Gd263 O303 2.468 . S
Gd263 O304 2.427 . S
Gd263 O306 2.388 . S
Gd263 C327 2.805 . S
N264 C254 1.359 . S
N264 Gd263 2.570 . S
N264 C266 1.343 . S
C265 C253 1.422 . S
C265 C267 1.321 . S
C265 H273 0.931 . S
C266 N264 1.343 . S
C266 C267 1.390 . S
C266 H268 0.931 . S
C267 C265 1.321 . S
C267 C266 1.390 . S
C267 H269 0.930 . S
H268 C266 0.931 . S
H269 C267 0.930 . S
H270 C293 0.931 . S
H271 C259 0.929 . S
H272 C294 0.930 . S
H273 C265 0.931 . S
H274 C255 0.930 . S
H275 C284 0.929 . S
H276 C260 0.931 . S
H277 C261 0.930 . S
H278 C316 0.930 . S
H279 C257 0.929 . S
H280 C285 0.931 . S
H281 C286 0.930 . S
N282 Gd262 2.622 . S
N282 C283 1.369 . S
N282 C284 1.338 . S
C283 N282 1.369 . S
C283 C287 1.415 . S
C283 C290 1.422 . S
C284 H275 0.929 . S
C284 N282 1.338 . S
C284 C286 1.378 . S
C285 H280 0.931 . S
C285 C286 1.348 . S
C285 C287 1.413 . S
C286 H281 0.930 . S
C286 C284 1.378 . S
C286 C285 1.348 . S
C287 C283 1.415 . S
C287 C285 1.413 . S
C287 C317 1.437 . S
H288 C317 0.929 1_455 S
N289 Gd262 2.570 . S
N289 C290 1.359 . S
N289 C293 1.343 . S
C290 C283 1.422 . S
C290 N289 1.359 . S
C290 C292 1.421 . S
C291 C292 1.422 1_455 S
C291 C294 1.321 . S
C291 H318 0.931 . S
C292 C290 1.421 . S
C292 C291 1.422 1_655 S
C292 C316 1.417 1_655 S
C293 H270 0.931 . S
C293 N289 1.343 . S
C293 C294 1.390 1_655 S
C294 H272 0.930 . S
C294 C291 1.321 . S
C294 C293 1.390 1_455 S
O295 Gd263 2.386 . S
O295 C307 1.265 . S
O296 Gd262 2.353 . S
O296 C307 1.242 . S
O297 Gd262 2.468 . S
O297 C315 1.263 . S
O298 Gd262 2.427 . S
O298 C315 1.252 . S
O299 Gd263 2.307 . S
O299 C308 1.261 . S
O300 Gd262 2.388 . S
O300 C308 1.252 . S
O301 Gd262 2.386 . S
O301 C319 1.265 . S
O302 Gd263 2.353 . S
O302 C319 1.242 . S
O303 Gd263 2.468 . S
O303 C327 1.263 . S
O304 Gd263 2.427 . S
O304 C327 1.252 . S
O305 Gd262 2.307 . S
O305 C320 1.261 . S
O306 Gd263 2.388 . S
O306 C320 1.252 . S
C307 O295 1.265 . S
C307 O296 1.242 . S
C308 O299 1.261 . S
C308 O300 1.252 . S
C309 C312 1.394 . S
C309 C314 1.370 . S
C309 C315 1.500 . S
C310 C313 1.383 . S
C310 C314 1.395 . S
C311 C312 1.396 . S
C311 C313 1.365 . S
C311 H328 0.929 . S
C312 C309 1.394 . S
C312 C311 1.396 . S
C312 H329 0.930 . S
C313 C310 1.383 . S
C313 C311 1.365 . S
C313 H330 0.931 . S
C314 C309 1.370 . S
C314 C310 1.395 . S
C314 H331 0.930 . S
C315 Gd262 2.805 . S
C315 O297 1.263 . S
C315 O298 1.252 . S
C315 C309 1.500 . S
C316 H278 0.930 . S
C316 C292 1.417 1_455 S
C316 C317 1.329 1_455 S
C317 C287 1.437 . S
C317 H288 0.929 1_655 S
C317 C316 1.329 1_655 S
H318 C291 0.931 . S
C319 O301 1.265 . S
C319 O302 1.242 . S
C320 O305 1.261 . S
C320 O306 1.252 . S
C321 C324 1.394 . S
C321 C326 1.370 . S
C321 C327 1.500 . S
C322 C325 1.383 . S
C322 C326 1.395 . S
C323 C324 1.396 . S
C323 C325 1.365 . S
C323 H332 0.929 . S
C324 C321 1.394 . S
C324 C323 1.396 . S
C324 H333 0.930 . S
C325 C322 1.383 . S
C325 C323 1.365 . S
C325 H334 0.931 . S
C326 C321 1.370 . S
C326 C322 1.395 . S
C326 H335 0.930 . S
C327 Gd263 2.805 . S
C327 O303 1.263 . S
C327 O304 1.252 . S
C327 C321 1.500 . S
H328 C311 0.929 . S
H329 C312 0.930 . S
H330 C313 0.931 . S
H331 C314 0.930 . S
H332 C323 0.929 . S
H333 C324 0.930 . S
H334 C325 0.931 . S
H335 C326 0.930 . S
H336 C354 0.951 . S
H337 C356 0.951 . S
H338 C358 0.950 . S
H339 C359 0.950 . S
H340 C361 0.950 . S
H341 C364 0.950 . S
H342 C365 0.950 . S
H343 C367 0.950 . S
H344 C368 0.950 . S
H345 C369 0.951 . S
H346 C371 0.951 . S
H347 C373 0.950 . S
H348 C374 0.950 . S
H349 C376 0.950 . S
H350 C379 0.950 . S
H351 C380 0.950 . S
H352 C382 0.950 . S
H353 C383 0.950 . S
C354 H336 0.951 . S
C354 C355 1.335 1_554 S
C354 C356 1.388 . S
C355 C354 1.335 1_556 S
C355 C359 1.408 . S
C356 H337 0.951 . S
C356 C354 1.388 . S
C356 C357 1.366 1_554 S
C357 C356 1.366 1_556 S
C357 C358 1.414 . S
C357 C360 1.499 . S
C358 H338 0.950 . S
C358 C357 1.414 . S
C358 C359 1.374 . S
C359 H339 0.950 . S
C359 C355 1.408 . S
C359 C358 1.374 . S
C360 C357 1.499 . S
C360 C361 1.373 . S
C360 C362 1.389 1_556 S
C361 H340 0.950 . S
C361 C360 1.373 . S
C361 C377 1.377 . S
C362 C360 1.389 1_554 S
C362 C363 1.524 . S
C362 C376 1.377 . S
C363 C362 1.524 . S
C363 C364 1.397 1_554 S
C363 C368 1.363 . S
C364 H341 0.950 . S
C364 C363 1.397 1_556 S
C364 C365 1.334 . S
C365 H342 0.950 . S
C365 C364 1.334 . S
C365 C366 1.287 . S
C366 C365 1.287 . S
C366 C367 1.524 1_556 S
C366 H385 0.913 . S
C367 H343 0.950 . S
C367 C366 1.524 1_554 S
C367 C368 1.415 . S
C368 H344 0.950 . S
C368 C363 1.363 . S
C368 C367 1.415 . S
C369 H345 0.951 . S
C369 C370 1.366 1_556 S
C369 C371 1.388 . S
C370 C369 1.366 1_554 S
C370 C374 1.385 . S
C371 H346 0.951 . S
C371 C369 1.388 . S
C371 C372 1.366 1_556 S
C372 C371 1.366 1_554 S
C372 C373 1.414 . S
C372 C375 1.499 . S
C373 H347 0.950 . S
C373 C372 1.414 . S
C373 C374 1.374 . S
C374 H348 0.950 . S
C374 C370 1.385 . S
C374 C373 1.374 . S
C375 C372 1.499 . S
C375 C376 1.373 . S
C375 C377 1.389 1_554 S
C376 H349 0.950 . S
C376 C362 1.377 . S
C376 C375 1.373 . S
C377 C361 1.377 . S
C377 C375 1.389 1_556 S
C377 C378 1.524 . S
C378 C377 1.524 . S
C378 C379 1.397 1_556 S
C378 C383 1.363 . S
C379 H350 0.950 . S
C379 C378 1.397 1_554 S
C379 C380 1.334 . S
C380 H351 0.950 . S
C380 C379 1.334 . S
C380 C381 1.287 . S
C381 C380 1.287 . S
C381 C382 1.524 1_554 S
C381 H384 0.999 . S
C382 H352 0.950 . S
C382 C381 1.524 1_556 S
C382 C383 1.415 . S
C383 H353 0.950 . S
C383 C378 1.363 . S
C383 C382 1.415 . S
H384 C381 0.999 . S
H385 C366 0.913 . S
H386 C404 0.951 . S
H387 C406 0.951 . S
H388 C408 0.950 . S
H389 C409 0.950 . S
H390 C411 0.950 . S
H391 C414 0.950 . S
H392 C415 0.950 . S
H393 C417 0.950 . S
H394 C418 0.950 . S
H395 C419 0.951 . S
H396 C421 0.951 . S
H397 C423 0.950 . S
H398 C424 0.950 . S
H399 C426 0.950 . S
H400 C429 0.950 . S
H401 C430 0.950 . S
H402 C432 0.950 . S
H403 C433 0.950 . S
C404 H386 0.951 . S
C404 C405 1.366 . S
C404 C406 1.388 . S
C405 C404 1.366 . S
C405 C409 1.385 . S
C406 H387 0.951 . S
C406 C404 1.388 . S
C406 C407 1.366 . S
C407 C406 1.366 . S
C407 C408 1.414 . S
C407 C410 1.499 . S
C408 H388 0.950 . S
C408 C407 1.414 . S
C408 C409 1.374 . S
C409 H389 0.950 . S
C409 C405 1.385 . S
C409 C408 1.374 . S
C410 C407 1.499 . S
C410 C411 1.373 . S
C410 C412 1.389 . S
C411 H390 0.950 . S
C411 C410 1.373 . S
C411 C427 1.377 . S
C412 C410 1.389 . S
C412 C413 1.524 . S
C412 C426 1.377 . S
C413 C412 1.524 . S
C413 C414 1.397 . S
C413 C418 1.363 . S
C414 H391 0.950 . S
C414 C413 1.397 . S
C414 C415 1.334 . S
C415 H392 0.950 . S
C415 C414 1.334 . S
C415 C416 1.287 . S
C416 C415 1.287 . S
C416 C417 1.524 . S
C416 H435 0.913 . S
C417 H393 0.950 . S
C417 C416 1.524 . S
C417 C418 1.415 . S
C418 H394 0.950 . S
C418 C413 1.363 . S
C418 C417 1.415 . S
C419 H395 0.951 . S
C419 C420 1.366 . S
C419 C421 1.388 . S
C420 C419 1.366 . S
C420 C424 1.385 . S
C421 H396 0.951 . S
C421 C419 1.388 . S
C421 C422 1.366 . S
C422 C421 1.366 . S
C422 C423 1.414 . S
C422 C425 1.499 . S
C423 H397 0.950 . S
C423 C422 1.414 . S
C423 C424 1.374 . S
C424 H398 0.950 . S
C424 C420 1.385 . S
C424 C423 1.374 . S
C425 C422 1.499 . S
C425 C426 1.373 . S
C425 C427 1.389 . S
C426 H399 0.950 . S
C426 C412 1.377 . S
C426 C425 1.373 . S
C427 C411 1.377 . S
C427 C425 1.389 . S
C427 C428 1.524 . S
C428 C427 1.524 . S
C428 C429 1.397 . S
C428 C433 1.363 . S
C429 H400 0.950 . S
C429 C428 1.397 . S
C429 C430 1.334 . S
C430 H401 0.950 . S
C430 C429 1.334 . S
C430 C431 1.287 . S
C431 C430 1.287 . S
C431 C432 1.524 . S
C431 H434 0.999 . S
C432 H402 0.950 . S
C432 C431 1.524 . S
C432 C433 1.415 . S
C433 H403 0.950 . S
C433 C428 1.363 . S
C433 C432 1.415 . S
H434 C431 0.999 . S
H435 C416 0.913 . S
H436 C454 0.951 . S
H437 C456 0.951 . S
H438 C458 0.950 . S
H439 C459 0.950 . S
H440 C461 0.950 . S
H441 C464 0.950 . S
H442 C465 0.950 . S
H443 C467 0.950 . S
H444 C468 0.950 . S
H445 C469 0.951 . S
H446 C471 0.951 . S
H447 C473 0.950 . S
H448 C474 0.950 . S
H449 C476 0.950 . S
H450 C479 0.950 . S
H451 C480 0.950 . S
H452 C482 0.950 . S
H453 C483 0.950 . S
C454 H436 0.951 . S
C454 C455 1.364 1_554 S
C454 C456 1.388 . S
C455 C454 1.364 1_556 S
C455 C459 1.377 . S
C456 H437 0.951 . S
C456 C454 1.388 . S
C456 C457 1.366 . S
C457 C456 1.366 . S
C457 C458 1.414 1_554 S
C457 C460 1.499 . S
C458 H438 0.950 . S
C458 C457 1.414 1_556 S
C458 C459 1.374 . S
C459 H439 0.950 . S
C459 C455 1.377 . S
C459 C458 1.374 . S
C460 C457 1.499 . S
C460 C461 1.373 1_544 S
C460 C462 1.389 1_455 S
C461 H440 0.950 . S
C461 C460 1.373 1_566 S
C461 C477 1.377 . S
C462 C460 1.389 1_655 S
C462 C463 1.524 . S
C462 C476 1.377 . S
C463 C462 1.524 . S
C463 C464 1.397 1_655 S
C463 C468 1.363 . S
C464 H441 0.950 . S
C464 C463 1.397 1_455 S
C464 C465 1.334 . S
C465 H442 0.950 . S
C465 C464 1.334 . S
C465 C466 1.287 1_455 S
C466 C465 1.287 1_655 S
C466 C467 1.524 . S
C466 H485 0.913 . S
C467 H443 0.950 . S
C467 C466 1.524 . S
C467 C468 1.415 . S
C468 H444 0.950 . S
C468 C463 1.363 . S
C468 C467 1.415 . S
C469 H445 0.951 . S
C469 C470 1.366 1_556 S
C469 C471 1.388 . S
C470 C469 1.366 1_554 S
C470 C474 1.385 . S
C471 H446 0.951 . S
C471 C469 1.388 . S
C471 C472 1.366 . S
C472 C471 1.366 . S
C472 C473 1.414 1_556 S
C472 C475 1.499 . S
C473 H447 0.950 . S
C473 C472 1.414 1_554 S
C473 C474 1.374 . S
C474 H448 0.950 . S
C474 C470 1.385 . S
C474 C473 1.374 . S
C475 C472 1.499 . S
C475 C476 1.373 1_566 S
C475 C477 1.389 1_655 S
C476 H449 0.950 . S
C476 C462 1.377 . S
C476 C475 1.373 1_544 S
C477 C461 1.377 . S
C477 C475 1.389 1_455 S
C477 C478 1.524 . S
C478 C477 1.524 . S
C478 C479 1.397 1_455 S
C478 C483 1.363 . S
C479 H450 0.950 . S
C479 C478 1.397 1_655 S
C479 C480 1.334 . S
C480 H451 0.950 . S
C480 C479 1.334 . S
C480 C481 1.287 1_655 S
C481 C480 1.287 1_455 S
C481 C482 1.524 . S
C481 H484 0.999 . S
C482 H452 0.950 . S
C482 C481 1.524 . S
C482 C483 1.415 . S
C483 H453 0.950 . S
C483 C478 1.363 . S
C483 C482 1.415 . S
H484 C481 0.999 . S
H485 C466 0.913 . S
H486 C504 0.951 . S
H487 C506 0.951 . S
H488 C508 0.950 . S
H489 C509 0.950 . S
H490 C511 0.950 . S
H491 C514 0.950 . S
H492 C515 0.950 . S
H493 C517 0.950 . S
H494 C518 0.950 . S
H495 C519 0.951 . S
H496 C521 0.951 . S
H497 C523 0.950 . S
H498 C524 0.950 . S
H499 C526 0.950 . S
H500 C529 0.950 . S
H501 C530 0.950 . S
H502 C532 0.950 . S
H503 C533 0.950 . S
C504 H486 0.951 . S
C504 C505 1.366 . S
C504 C506 1.388 . S
C505 C504 1.366 . S
C505 C509 1.385 . S
C506 H487 0.951 . S
C506 C504 1.388 . S
C506 C507 1.366 . S
C507 C506 1.366 . S
C507 C508 1.414 . S
C507 C510 1.499 . S
C508 H488 0.950 . S
C508 C507 1.414 . S
C508 C509 1.374 . S
C509 H489 0.950 . S
C509 C505 1.385 . S
C509 C508 1.374 . S
C510 C507 1.499 . S
C510 C511 1.373 1_545 S
C510 C512 1.389 1_655 S
C511 H490 0.950 . S
C511 C510 1.373 1_565 S
C511 C527 1.377 . S
C512 C510 1.389 1_455 S
C512 C513 1.524 . S
C512 C526 1.377 . S
C513 C512 1.524 . S
C513 C514 1.397 . S
C513 C518 1.363 . S
C514 H491 0.950 . S
C514 C513 1.397 . S
C514 C515 1.334 . S
C515 H492 0.950 . S
C515 C514 1.334 . S
C515 C516 1.287 . S
C516 C515 1.287 . S
C516 C517 1.524 . S
C516 H535 0.913 . S
C517 H493 0.950 . S
C517 C516 1.524 . S
C517 C518 1.415 . S
C518 H494 0.950 . S
C518 C513 1.363 . S
C518 C517 1.415 . S
C519 H495 0.951 . S
C519 C520 1.366 . S
C519 C521 1.388 . S
C520 C519 1.366 . S
C520 C524 1.385 . S
C521 H496 0.951 . S
C521 C519 1.388 . S
C521 C522 1.366 . S
C522 C521 1.366 . S
C522 C523 1.414 . S
C522 C525 1.499 . S
C523 H497 0.950 . S
C523 C522 1.414 . S
C523 C524 1.374 . S
C524 H498 0.950 . S
C524 C520 1.385 . S
C524 C523 1.374 . S
C525 C522 1.499 . S
C525 C526 1.373 1_565 S
C525 C527 1.389 1_455 S
C526 H499 0.950 . S
C526 C512 1.377 . S
C526 C525 1.373 1_545 S
C527 C511 1.377 . S
C527 C525 1.389 1_655 S
C527 C528 1.524 . S
C528 C527 1.524 . S
C528 C529 1.397 . S
C528 C533 1.363 . S
C529 H500 0.950 . S
C529 C528 1.397 . S
C529 C530 1.334 . S
C530 H501 0.950 . S
C530 C529 1.334 . S
C530 C531 1.287 . S
C531 C530 1.287 . S
C531 C532 1.524 . S
C531 H534 0.999 . S
C532 H502 0.950 . S
C532 C531 1.524 . S
C532 C533 1.415 . S
C533 H503 0.950 . S
C533 C528 1.363 . S
C533 C532 1.415 . S
H534 C531 0.999 . S
H535 C516 0.913 . S
H536 C554 0.951 . S
H537 C556 0.951 . S
H538 C558 0.950 . S
H539 C559 0.950 . S
H540 C561 0.950 . S
H541 C564 0.950 . S
H542 C565 0.950 . S
H543 C567 0.950 . S
H544 C568 0.950 . S
H545 C569 0.951 . S
H546 C571 0.951 . S
H547 C573 0.950 . S
H548 C574 0.950 . S
H549 C576 0.950 . S
H550 C579 0.950 . S
H551 C580 0.950 . S
H552 C582 0.950 . S
H553 C583 0.950 . S
C554 H536 0.951 . S
C554 C555 1.366 . S
C554 C556 1.388 . S
C555 C554 1.366 . S
C555 C559 1.385 . S
C556 H537 0.951 . S
C556 C554 1.388 . S
C556 C557 1.366 . S
C557 C556 1.366 . S
C557 C558 1.414 . S
C557 C560 1.499 . S
C558 H538 0.950 . S
C558 C557 1.414 . S
C558 C559 1.374 . S
C559 H539 0.950 . S
C559 C555 1.385 . S
C559 C558 1.374 . S
C560 C557 1.499 . S
C560 C561 1.373 . S
C560 C562 1.389 . S
C561 H540 0.950 . S
C561 C560 1.373 . S
C561 C577 1.377 . S
C562 C560 1.389 . S
C562 C563 1.524 . S
C562 C576 1.377 . S
C563 C562 1.524 . S
C563 C564 1.397 . S
C563 C568 1.363 . S
C564 H541 0.950 . S
C564 C563 1.397 . S
C564 C565 1.334 . S
C565 H542 0.950 . S
C565 C564 1.334 . S
C565 C566 1.287 . S
C566 C565 1.287 . S
C566 C567 1.524 . S
C566 H585 0.913 . S
C567 H543 0.950 . S
C567 C566 1.524 . S
C567 C568 1.415 . S
C568 H544 0.950 . S
C568 C563 1.363 . S
C568 C567 1.415 . S
C569 H545 0.951 . S
C569 C570 1.366 . S
C569 C571 1.388 . S
C570 C569 1.366 . S
C570 C574 1.385 . S
C571 H546 0.951 . S
C571 C569 1.388 . S
C571 C572 1.366 . S
C572 C571 1.366 . S
C572 C573 1.414 . S
C572 C575 1.499 . S
C573 H547 0.950 . S
C573 C572 1.414 . S
C573 C574 1.374 . S
C574 H548 0.950 . S
C574 C570 1.385 . S
C574 C573 1.374 . S
C575 C572 1.499 . S
C575 C576 1.373 . S
C575 C577 1.389 . S
C576 H549 0.950 . S
C576 C562 1.377 . S
C576 C575 1.373 . S
C577 C561 1.377 . S
C577 C575 1.389 . S
C577 C578 1.524 . S
C578 C577 1.524 . S
C578 C579 1.397 . S
C578 C583 1.363 . S
C579 H550 0.950 . S
C579 C578 1.397 . S
C579 C580 1.334 . S
C580 H551 0.950 . S
C580 C579 1.334 . S
C580 C581 1.287 . S
C581 C580 1.287 . S
C581 C582 1.524 . S
C581 H584 0.999 . S
C582 H552 0.950 . S
C582 C581 1.524 . S
C582 C583 1.415 . S
C583 H553 0.950 . S
C583 C578 1.363 . S
C583 C582 1.415 . S
H584 C581 0.999 . S
H585 C566 0.913 . S
H586 C604 0.951 . S
H587 C606 0.951 . S
H588 C608 0.950 . S
H589 C609 0.950 . S
H590 C611 0.950 . S
H591 C614 0.950 . S
H592 C615 0.950 . S
H593 C617 0.950 . S
H594 C618 0.950 . S
H595 C619 0.951 . S
H596 C621 0.951 . S
H597 C623 0.950 . S
H598 C624 0.950 . S
H599 C626 0.950 . S
H600 C629 0.950 . S
H601 C630 0.950 . S
H602 C632 0.950 . S
H603 C633 0.950 . S
C604 H586 0.951 . S
C604 C605 1.366 . S
C604 C606 1.388 . S
C605 C604 1.366 . S
C605 C609 1.385 . S
C606 H587 0.951 . S
C606 C604 1.388 . S
C606 C607 1.366 . S
C607 C606 1.366 . S
C607 C608 1.414 . S
C607 C610 1.499 . S
C608 H588 0.950 . S
C608 C607 1.414 . S
C608 C609 1.374 . S
C609 H589 0.950 . S
C609 C605 1.385 . S
C609 C608 1.374 . S
C610 C607 1.499 . S
C610 C611 1.373 . S
C610 C612 1.389 . S
C611 H590 0.950 . S
C611 C610 1.373 . S
C611 C627 1.377 . S
C612 C610 1.389 . S
C612 C613 1.524 . S
C612 C626 1.377 . S
C613 C612 1.524 . S
C613 C614 1.397 . S
C613 C618 1.363 . S
C614 H591 0.950 . S
C614 C613 1.397 . S
C614 C615 1.334 . S
C615 H592 0.950 . S
C615 C614 1.334 . S
C615 C616 1.287 . S
C616 C615 1.287 . S
C616 C617 1.524 . S
C616 H635 0.913 . S
C617 H593 0.950 . S
C617 C616 1.524 . S
C617 C618 1.415 . S
C618 H594 0.950 . S
C618 C613 1.363 . S
C618 C617 1.415 . S
C619 H595 0.951 . S
C619 C620 1.366 . S
C619 C621 1.388 . S
C620 C619 1.366 . S
C620 C624 1.385 . S
C621 H596 0.951 . S
C621 C619 1.388 . S
C621 C622 1.366 . S
C622 C621 1.366 . S
C622 C623 1.414 . S
C622 C625 1.499 . S
C623 H597 0.950 . S
C623 C622 1.414 . S
C623 C624 1.374 . S
C624 H598 0.950 . S
C624 C620 1.385 . S
C624 C623 1.374 . S
C625 C622 1.499 . S
C625 C626 1.373 . S
C625 C627 1.389 . S
C626 H599 0.950 . S
C626 C612 1.377 . S
C626 C625 1.373 . S
C627 C611 1.377 . S
C627 C625 1.389 . S
C627 C628 1.524 . S
C628 C627 1.524 . S
C628 C629 1.397 . S
C628 C633 1.363 . S
C629 H600 0.950 . S
C629 C628 1.397 . S
C629 C630 1.334 . S
C630 H601 0.950 . S
C630 C629 1.334 . S
C630 C631 1.287 . S
C631 C630 1.287 . S
C631 C632 1.524 . S
C631 H634 0.999 . S
C632 H602 0.950 . S
C632 C631 1.524 . S
C632 C633 1.415 . S
C633 H603 0.950 . S
C633 C628 1.363 . S
C633 C632 1.415 . S
H634 C631 0.999 . S
H635 C616 0.913 . S
H636 C654 0.951 . S
H637 C656 0.951 . S
H638 C658 0.950 . S
H639 C659 0.950 . S
H640 C661 0.950 . S
H641 C664 0.950 . S
H642 C665 0.950 . S
H643 C667 0.950 . S
H644 C668 0.950 . S
H645 C669 0.951 . S
H646 C671 0.951 . S
H647 C673 0.950 . S
H648 C674 0.950 . S
H649 C676 0.950 . S
H650 C679 0.950 . S
H651 C680 0.950 . S
H652 C682 0.950 . S
H653 C683 0.950 . S
C654 H636 0.951 . S
C654 C655 1.366 . S
C654 C656 1.388 . S
C655 C654 1.366 . S
C655 C659 1.385 . S
C656 H637 0.951 . S
C656 C654 1.388 . S
C656 C657 1.366 . S
C657 C656 1.366 . S
C657 C658 1.414 . S
C657 C660 1.499 . S
C658 H638 0.950 . S
C658 C657 1.414 . S
C658 C659 1.374 . S
C659 H639 0.950 . S
C659 C655 1.385 . S
C659 C658 1.374 . S
C660 C657 1.499 . S
C660 C661 1.373 . S
C660 C662 1.389 . S
C661 H640 0.950 . S
C661 C660 1.373 . S
C661 C677 1.377 . S
C662 C660 1.389 . S
C662 C663 1.524 . S
C662 C676 1.377 . S
C663 C662 1.524 . S
C663 C664 1.397 . S
C663 C668 1.363 . S
C664 H641 0.950 . S
C664 C663 1.397 . S
C664 C665 1.334 . S
C665 H642 0.950 . S
C665 C664 1.334 . S
C665 C666 1.287 . S
C666 C665 1.287 . S
C666 C667 1.524 . S
C666 H685 0.913 . S
C667 H643 0.950 . S
C667 C666 1.524 . S
C667 C668 1.415 . S
C668 H644 0.950 . S
C668 C663 1.363 . S
C668 C667 1.415 . S
C669 H645 0.951 . S
C669 C670 1.366 . S
C669 C671 1.388 . S
C670 C669 1.366 . S
C670 C674 1.385 . S
C671 H646 0.951 . S
C671 C669 1.388 . S
C671 C672 1.366 . S
C672 C671 1.366 . S
C672 C673 1.414 . S
C672 C675 1.499 . S
C673 H647 0.950 . S
C673 C672 1.414 . S
C673 C674 1.374 . S
C674 H648 0.950 . S
C674 C670 1.385 . S
C674 C673 1.374 . S
C675 C672 1.499 . S
C675 C676 1.373 . S
C675 C677 1.389 . S
C676 H649 0.950 . S
C676 C662 1.377 . S
C676 C675 1.373 . S
C677 C661 1.377 . S
C677 C675 1.389 . S
C677 C678 1.524 . S
C678 C677 1.524 . S
C678 C679 1.397 . S
C678 C683 1.363 . S
C679 H650 0.950 . S
C679 C678 1.397 . S
C679 C680 1.334 . S
C680 H651 0.950 . S
C680 C679 1.334 . S
C680 C681 1.287 . S
C681 C680 1.287 . S
C681 C682 1.524 . S
C681 H684 0.999 . S
C682 H652 0.950 . S
C682 C681 1.524 . S
C682 C683 1.415 . S
C683 H653 0.950 . S
C683 C678 1.363 . S
C683 C682 1.415 . S
H684 C681 0.999 . S
H685 C666 0.913 . S
H686 C704 0.951 . S
H687 C706 0.951 . S
H688 C708 0.950 . S
H689 C709 0.950 . S
H690 C711 0.950 . S
H691 C714 0.950 . S
H692 C715 0.950 . S
H693 C717 0.950 . S
H694 C718 0.950 . S
H695 C719 0.951 . S
H696 C721 0.951 . S
H697 C723 0.950 . S
H698 C724 0.950 . S
H699 C726 0.950 . S
H700 C729 0.950 . S
H701 C730 0.950 . S
H702 C732 0.950 . S
H703 C733 0.950 . S
C704 H686 0.951 . S
C704 C705 1.366 . S
C704 C706 1.388 . S
C705 C704 1.366 . S
C705 C709 1.385 . S
C706 H687 0.951 . S
C706 C704 1.388 . S
C706 C707 1.366 . S
C707 C706 1.366 . S
C707 C708 1.414 . S
C707 C710 1.499 . S
C708 H688 0.950 . S
C708 C707 1.414 . S
C708 C709 1.374 . S
C709 H689 0.950 . S
C709 C705 1.385 . S
C709 C708 1.374 . S
C710 C707 1.499 . S
C710 C711 1.373 . S
C710 C712 1.389 . S
C711 H690 0.950 . S
C711 C710 1.373 . S
C711 C727 1.377 . S
C712 C710 1.389 . S
C712 C713 1.524 . S
C712 C726 1.377 . S
C713 C712 1.524 . S
C713 C714 1.397 . S
C713 C718 1.363 . S
C714 H691 0.950 . S
C714 C713 1.397 . S
C714 C715 1.334 . S
C715 H692 0.950 . S
C715 C714 1.334 . S
C715 C716 1.287 . S
C716 C715 1.287 . S
C716 C717 1.524 . S
C716 H735 0.913 . S
C717 H693 0.950 . S
C717 C716 1.524 . S
C717 C718 1.415 . S
C718 H694 0.950 . S
C718 C713 1.363 . S
C718 C717 1.415 . S
C719 H695 0.951 . S
C719 C720 1.366 . S
C719 C721 1.388 . S
C720 C719 1.366 . S
C720 C724 1.385 . S
C721 H696 0.951 . S
C721 C719 1.388 . S
C721 C722 1.366 . S
C722 C721 1.366 . S
C722 C723 1.414 . S
C722 C725 1.499 . S
C723 H697 0.950 . S
C723 C722 1.414 . S
C723 C724 1.374 . S
C724 H698 0.950 . S
C724 C720 1.385 . S
C724 C723 1.374 . S
C725 C722 1.499 . S
C725 C726 1.373 . S
C725 C727 1.389 . S
C726 H699 0.950 . S
C726 C712 1.377 . S
C726 C725 1.373 . S
C727 C711 1.377 . S
C727 C725 1.389 . S
C727 C728 1.524 . S
C728 C727 1.524 . S
C728 C729 1.397 . S
C728 C733 1.363 . S
C729 H700 0.950 . S
C729 C728 1.397 . S
C729 C730 1.334 . S
C730 H701 0.950 . S
C730 C729 1.334 . S
C730 C731 1.287 . S
C731 C730 1.287 . S
C731 C732 1.524 . S
C731 H734 0.999 . S
C732 H702 0.950 . S
C732 C731 1.524 . S
C732 C733 1.415 . S
C733 H703 0.950 . S
C733 C728 1.363 . S
C733 C732 1.415 . S
H734 C731 0.999 . S
H735 C716 0.913 . S
H736 C754 0.951 . S
H737 C756 0.951 . S
H738 C758 0.950 . S
H739 C759 0.950 . S
H740 C761 0.950 . S
H741 C764 0.950 . S
H742 C765 0.950 . S
H743 C767 0.950 . S
H744 C768 0.950 . S
H745 C769 0.951 . S
H746 C771 0.951 . S
H747 C773 0.950 . S
H748 C774 0.950 . S
H749 C776 0.950 . S
H750 C779 0.950 1_655 S
H751 C780 0.950 . S
H752 C782 0.950 . S
H753 C783 0.950 . S
C754 H736 0.951 . S
C754 C755 1.366 . S
C754 C756 1.388 . S
C755 C754 1.366 . S
C755 C759 1.385 . S
C756 H737 0.951 . S
C756 C754 1.388 . S
C756 C757 1.366 . S
C757 C756 1.366 . S
C757 C758 1.414 . S
C757 C760 1.499 . S
C758 H738 0.950 . S
C758 C757 1.414 . S
C758 C759 1.374 . S
C759 H739 0.950 . S
C759 C755 1.385 . S
C759 C758 1.374 . S
C760 C757 1.499 . S
C760 C761 1.373 . S
C760 C762 1.389 . S
C761 H740 0.950 . S
C761 C760 1.373 . S
C761 C777 1.377 . S
C762 C760 1.389 . S
C762 C763 1.524 . S
C762 C776 1.377 . S
C763 C762 1.524 . S
C763 C764 1.397 . S
C763 C768 1.363 . S
C764 H741 0.950 . S
C764 C763 1.397 . S
C764 C765 1.334 . S
C765 H742 0.950 . S
C765 C764 1.334 . S
C765 C766 1.287 . S
C766 C765 1.287 . S
C766 C767 1.524 . S
C766 H785 0.913 . S
C767 H743 0.950 . S
C767 C766 1.524 . S
C767 C768 1.415 . S
C768 H744 0.950 . S
C768 C763 1.363 . S
C768 C767 1.415 . S
C769 H745 0.951 . S
C769 C770 1.366 . S
C769 C771 1.388 . S
C770 C769 1.366 . S
C770 C774 1.385 1_455 S
C771 H746 0.951 . S
C771 C769 1.388 . S
C771 C772 1.366 1_455 S
C772 C771 1.366 1_655 S
C772 C773 1.414 . S
C772 C775 1.499 . S
C773 H747 0.950 . S
C773 C772 1.414 . S
C773 C774 1.374 . S
C774 H748 0.950 . S
C774 C770 1.385 1_655 S
C774 C773 1.374 . S
C775 C772 1.499 . S
C775 C776 1.373 . S
C775 C777 1.389 . S
C776 H749 0.950 . S
C776 C762 1.377 . S
C776 C775 1.373 . S
C777 C761 1.377 . S
C777 C775 1.389 . S
C777 C778 1.524 1_655 S
C778 C777 1.524 1_455 S
C778 C779 1.397 . S
C778 C783 1.363 . S
C779 H750 0.950 1_455 S
C779 C778 1.397 . S
C779 C780 1.334 . S
C780 H751 0.950 . S
C780 C779 1.334 . S
C780 C781 1.287 . S
C781 C780 1.287 . S
C781 C782 1.524 . S
C781 H784 0.999 . S
C782 H752 0.950 . S
C782 C781 1.524 . S
C782 C783 1.415 . S
C783 H753 0.950 . S
C783 C778 1.363 . S
C783 C782 1.415 . S
H784 C781 0.999 . S
H785 C766 0.913 . S
H786 C804 0.951 . S
H787 C806 0.951 . S
H788 C808 0.950 . S
H789 C809 0.950 . S
H790 C811 0.950 . S
H791 C814 0.950 . S
H792 C815 0.950 . S
H793 C817 0.950 1_455 S
H794 C818 0.950 1_455 S
H795 C819 0.951 . S
H796 C821 0.951 . S
H797 C823 0.950 . S
H798 C824 0.950 . S
H799 C826 0.950 . S
H800 C829 0.950 1_455 S
H801 C830 0.950 . S
H802 C832 0.950 . S
H803 C833 0.950 . S
C804 H786 0.951 . S
C804 C805 1.366 . S
C804 C806 1.388 . S
C805 C804 1.366 . S
C805 C809 1.385 . S
C806 H787 0.951 . S
C806 C804 1.388 . S
C806 C807 1.366 . S
C807 C806 1.366 . S
C807 C808 1.414 . S
C807 C810 1.499 . S
C808 H788 0.950 . S
C808 C807 1.414 . S
C808 C809 1.374 . S
C809 H789 0.950 . S
C809 C805 1.385 . S
C809 C808 1.374 . S
C810 C807 1.499 . S
C810 C811 1.373 . S
C810 C812 1.389 . S
C811 H790 0.950 . S
C811 C810 1.373 . S
C811 C827 1.377 . S
C812 C810 1.389 . S
C812 C813 1.524 . S
C812 C826 1.377 . S
C813 C812 1.524 . S
C813 C814 1.397 . S
C813 C818 1.363 . S
C814 H791 0.950 . S
C814 C813 1.397 . S
C814 C815 1.334 . S
C815 H792 0.950 . S
C815 C814 1.334 . S
C815 C816 1.287 . S
C816 C815 1.287 . S
C816 C817 1.524 . S
C816 H835 0.913 . S
C817 H793 0.950 1_655 S
C817 C816 1.524 . S
C817 C818 1.415 . S
C818 H794 0.950 1_655 S
C818 C813 1.363 . S
C818 C817 1.415 . S
C819 H795 0.951 . S
C819 C820 1.366 1_655 S
C819 C821 1.388 . S
C820 C819 1.366 1_455 S
C820 C824 1.385 . S
C821 H796 0.951 . S
C821 C819 1.388 . S
C821 C822 1.366 . S
C822 C821 1.366 . S
C822 C823 1.414 1_655 S
C822 C825 1.499 . S
C823 H797 0.950 . S
C823 C822 1.414 1_455 S
C823 C824 1.374 . S
C824 H798 0.950 . S
C824 C820 1.385 . S
C824 C823 1.374 . S
C825 C822 1.499 . S
C825 C826 1.373 . S
C825 C827 1.389 . S
C826 H799 0.950 . S
C826 C812 1.377 . S
C826 C825 1.373 . S
C827 C811 1.377 . S
C827 C825 1.389 . S
C827 C828 1.524 . S
C828 C827 1.524 . S
C828 C829 1.397 . S
C828 C833 1.363 . S
C829 H800 0.950 1_655 S
C829 C828 1.397 . S
C829 C830 1.334 1_655 S
C830 H801 0.950 . S
C830 C829 1.334 1_455 S
C830 C831 1.287 1_455 S
C831 C830 1.287 1_655 S
C831 C832 1.524 . S
C831 H834 0.999 . S
C832 H802 0.950 . S
C832 C831 1.524 . S
C832 C833 1.415 . S
C833 H803 0.950 . S
C833 C828 1.363 . S
C833 C832 1.415 . S
H834 C831 0.999 . S
H835 C816 0.913 . S
H836 C854 0.951 . S
H837 C856 0.951 . S
H838 C858 0.950 . S
H839 C859 0.950 . S
H840 C861 0.950 . S
H841 C864 0.950 . S
H842 C865 0.950 . S
H843 C867 0.950 . S
H844 C868 0.950 . S
H845 C869 0.951 . S
H846 C871 0.951 . S
H847 C873 0.950 . S
H848 C874 0.950 . S
H849 C876 0.950 . S
H850 C879 0.950 . S
H851 C880 0.950 . S
H852 C882 0.950 . S
H853 C883 0.950 . S
C854 H836 0.951 . S
C854 C855 1.366 . S
C854 C856 1.388 . S
C855 C854 1.366 . S
C855 C859 1.385 1_655 S
C856 H837 0.951 . S
C856 C854 1.388 . S
C856 C857 1.366 1_655 S
C857 C856 1.366 1_455 S
C857 C858 1.414 . S
C857 C860 1.499 . S
C858 H838 0.950 . S
C858 C857 1.414 . S
C858 C859 1.374 . S
C859 H839 0.950 . S
C859 C855 1.385 1_455 S
C859 C858 1.374 . S
C860 C857 1.499 . S
C860 C861 1.373 . S
C860 C862 1.389 . S
C861 H840 0.950 . S
C861 C860 1.373 . S
C861 C877 1.377 . S
C862 C860 1.389 . S
C862 C863 1.524 1_455 S
C862 C876 1.377 . S
C863 C862 1.524 1_655 S
C863 C864 1.397 1_655 S
C863 C868 1.363 . S
C864 H841 0.950 . S
C864 C863 1.397 1_455 S
C864 C865 1.334 1_455 S
C865 H842 0.950 . S
C865 C864 1.334 1_655 S
C865 C866 1.287 . S
C866 C865 1.287 . S
C866 C867 1.524 . S
C866 H885 0.913 . S
C867 H843 0.950 . S
C867 C866 1.524 . S
C867 C868 1.415 . S
C868 H844 0.950 . S
C868 C863 1.363 . S
C868 C867 1.415 . S
C869 H845 0.951 . S
C869 C870 1.366 . S
C869 C871 1.388 . S
C870 C869 1.366 . S
C870 C874 1.385 . S
C871 H846 0.951 . S
C871 C869 1.388 . S
C871 C872 1.366 . S
C872 C871 1.366 . S
C872 C873 1.414 . S
C872 C875 1.499 . S
C873 H847 0.950 . S
C873 C872 1.414 . S
C873 C874 1.374 . S
C874 H848 0.950 . S
C874 C870 1.385 . S
C874 C873 1.374 . S
C875 C872 1.499 . S
C875 C876 1.373 . S
C875 C877 1.389 . S
C876 H849 0.950 . S
C876 C862 1.377 . S
C876 C875 1.373 . S
C877 C861 1.377 . S
C877 C875 1.389 . S
C877 C878 1.524 . S
C878 C877 1.524 . S
C878 C879 1.397 . S
C878 C883 1.363 . S
C879 H850 0.950 . S
C879 C878 1.397 . S
C879 C880 1.334 . S
C880 H851 0.950 . S
C880 C879 1.334 . S
C880 C881 1.287 . S
C881 C880 1.287 . S
C881 C882 1.524 . S
C881 H884 0.999 . S
C882 H852 0.950 . S
C882 C881 1.524 . S
C882 C883 1.415 . S
C883 H853 0.950 . S
C883 C878 1.363 . S
C883 C882 1.415 . S
H884 C881 0.999 . S
H885 C866 0.913 . S
H886 C904 0.951 . S
H887 C906 0.951 . S
H888 C908 0.950 . S
H889 C909 0.950 . S
H890 C911 0.950 . S
H891 C914 0.950 . S
H892 C915 0.950 . S
H893 C917 0.950 . S
H894 C918 0.950 . S
H895 C919 0.951 . S
H896 C921 0.951 . S
H897 C923 0.950 . S
H898 C924 0.944 1_455 S
H899 C926 0.950 . S
H900 C929 0.950 . S
H901 C930 0.950 . S
H902 C932 0.950 . S
H903 C933 0.950 . S
C904 H886 0.951 . S
C904 C905 1.366 . S
C904 C906 1.388 . S
C905 C904 1.366 . S
C905 C909 1.385 . S
C906 H887 0.951 . S
C906 C904 1.388 . S
C906 C907 1.366 . S
C907 C906 1.366 . S
C907 C908 1.414 . S
C907 C910 1.499 . S
C908 H888 0.950 . S
C908 C907 1.414 . S
C908 C909 1.374 . S
C909 H889 0.950 . S
C909 C905 1.385 . S
C909 C908 1.374 . S
C910 C907 1.499 . S
C910 C911 1.373 . S
C910 C912 1.389 . S
C911 H890 0.950 . S
C911 C910 1.373 . S
C911 C927 1.377 . S
C912 C910 1.389 . S
C912 C913 1.524 . S
C912 C926 1.377 . S
C913 C912 1.524 . S
C913 C914 1.397 . S
C913 C918 1.363 . S
C914 H891 0.950 . S
C914 C913 1.397 . S
C914 C915 1.334 . S
C915 H892 0.950 . S
C915 C914 1.334 . S
C915 C916 1.287 . S
C916 C915 1.287 . S
C916 C917 1.524 . S
C916 H935 0.913 . S
C917 H893 0.950 . S
C917 C916 1.524 . S
C917 C918 1.415 . S
C918 H894 0.950 . S
C918 C913 1.363 . S
C918 C917 1.415 . S
C919 H895 0.951 . S
C919 C920 1.366 . S
C919 C921 1.388 . S
C920 C919 1.366 . S
C920 C924 1.399 . S
C921 H896 0.951 . S
C921 C919 1.388 . S
C921 C922 1.366 1_655 S
C922 C921 1.366 1_455 S
C922 C923 1.414 . S
C922 C925 1.499 . S
C923 H897 0.950 . S
C923 C922 1.414 . S
C923 C924 1.365 1_455 S
C924 H898 0.944 1_655 S
C924 C920 1.399 . S
C924 C923 1.365 1_655 S
C925 C922 1.499 . S
C925 C926 1.373 . S
C925 C927 1.389 . S
C926 H899 0.950 . S
C926 C912 1.377 . S
C926 C925 1.373 . S
C927 C911 1.377 . S
C927 C925 1.389 . S
C927 C928 1.524 . S
C928 C927 1.524 . S
C928 C929 1.397 . S
C928 C933 1.363 . S
C929 H900 0.950 . S
C929 C928 1.397 . S
C929 C930 1.334 . S
C930 H901 0.950 . S
C930 C929 1.334 . S
C930 C931 1.287 . S
C931 C930 1.287 . S
C931 C932 1.524 . S
C931 H934 0.999 . S
C932 H902 0.950 . S
C932 C931 1.524 . S
C932 C933 1.415 . S
C933 H903 0.950 . S
C933 C928 1.363 . S
C933 C932 1.415 . S
H934 C931 0.999 . S
H935 C916 0.913 . S
C355 C140 1.516 . S
C370 C68 1.501 . S
C405 C236 1.501 . S
C420 C308 1.501 . S
C455 C56 1.517 . S
C470 C152 1.501 . S
C505 C320 1.502 . S
C520 C224 1.502 . S
C555 C322 1.177 . S
C570 C67 1.259 . S
C605 C154 1.178 . S
C620 C235 1.259 . S
C655 C139 1.262 . S
C670 C226 1.180 . S
C705 C307 1.262 . S
C720 C58 1.180 . S
C755 C151 1.262 . S
C770 C238 1.176 . S
C805 C319 1.262 . S
C820 C70 1.174 . S
C855 C310 1.179 . S
C870 C55 1.265 . S
C905 C223 1.262 . S
C920 C142 1.180 . S
