# Generated by pormake.
# Topology una, (4)-cn, num edge types: 1
# Building blocks:
#     Node 0, Type 0, BuildingBlock: CEKHIL_clean_sbu_0, # of connection points: 4
#     Node 1, Type 0, BuildingBlock: CEKHIL_clean_sbu_0, # of connection points: 4
#     Node 2, Type 0, BuildingBlock: CEKHIL_clean_sbu_0, # of connection points: 4
#     Node 3, Type 0, BuildingBlock: CEKHIL_clean_sbu_0, # of connection points: 4
#     Node 4, Type 0, BuildingBlock: CEKHIL_clean_sbu_0, # of connection points: 4
#     Node 5, Type 0, BuildingBlock: CEKHIL_clean_sbu_0, # of connection points: 4
#     Node 6, Type 0, BuildingBlock: CEKHIL_clean_sbu_0, # of connection points: 4
#     Node 7, Type 0, BuildingBlock: CEKHIL_clean_sbu_0, # of connection points: 4
#     Node 8, Type 0, BuildingBlock: CEKHIL_clean_sbu_0, # of connection points: 4
#     Node 9, Type 0, BuildingBlock: CEKHIL_clean_sbu_0, # of connection points: 4
#     Node 10, Type 0, BuildingBlock: CEKHIL_clean_sbu_0, # of connection points: 4
#     Node 11, Type 0, BuildingBlock: CEKHIL_clean_sbu_0, # of connection points: 4
#     Edge 12, Type (0, 0), BuildingBlock: XIVTED_clean_linker_0, # of connection points: 2
#     Edge 13, Type (0, 0), BuildingBlock: XIVTED_clean_linker_0, # of connection points: 2
#     Edge 14, Type (0, 0), BuildingBlock: XIVTED_clean_linker_0, # of connection points: 2
#     Edge 15, Type (0, 0), BuildingBlock: XIVTED_clean_linker_0, # of connection points: 2
#     Edge 16, Type (0, 0), BuildingBlock: XIVTED_clean_linker_0, # of connection points: 2
#     Edge 17, Type (0, 0), BuildingBlock: XIVTED_clean_linker_0, # of connection points: 2
#     Edge 18, Type (0, 0), BuildingBlock: XIVTED_clean_linker_0, # of connection points: 2
#     Edge 19, Type (0, 0), BuildingBlock: XIVTED_clean_linker_0, # of connection points: 2
#     Edge 20, Type (0, 0), BuildingBlock: XIVTED_clean_linker_0, # of connection points: 2
#     Edge 21, Type (0, 0), BuildingBlock: XIVTED_clean_linker_0, # of connection points: 2
#     Edge 22, Type (0, 0), BuildingBlock: XIVTED_clean_linker_0, # of connection points: 2
#     Edge 23, Type (0, 0), BuildingBlock: XIVTED_clean_linker_0, # of connection points: 2
#     Edge 24, Type (0, 0), BuildingBlock: XIVTED_clean_linker_0, # of connection points: 2
#     Edge 25, Type (0, 0), BuildingBlock: XIVTED_clean_linker_0, # of connection points: 2
#     Edge 26, Type (0, 0), BuildingBlock: XIVTED_clean_linker_0, # of connection points: 2
#     Edge 27, Type (0, 0), BuildingBlock: XIVTED_clean_linker_0, # of connection points: 2
#     Edge 28, Type (0, 0), BuildingBlock: XIVTED_clean_linker_0, # of connection points: 2
#     Edge 29, Type (0, 0), BuildingBlock: XIVTED_clean_linker_0, # of connection points: 2
#     Edge 30, Type (0, 0), BuildingBlock: XIVTED_clean_linker_0, # of connection points: 2
#     Edge 31, Type (0, 0), BuildingBlock: XIVTED_clean_linker_0, # of connection points: 2
#     Edge 32, Type (0, 0), BuildingBlock: XIVTED_clean_linker_0, # of connection points: 2
#     Edge 33, Type (0, 0), BuildingBlock: XIVTED_clean_linker_0, # of connection points: 2
#     Edge 34, Type (0, 0), BuildingBlock: XIVTED_clean_linker_0, # of connection points: 2
#     Edge 35, Type (0, 0), BuildingBlock: XIVTED_clean_linker_0, # of connection points: 2
# Relax obj value: 0.022
# Max RMSD: 0.036
# Mean RMSD: 0.036
data_MOF--net-una--node1-CEKHIL_clean_sbu_0--edge1-XIVTED_clean_linker_0
_symmetry_space_group_name_H-M    P1
_symmetry_Int_Tables_number       1
_symmetry_cell_setting            triclinic
loop_
_symmetry_equiv_pos_as_xyz
'x, y, z'
_cell_length_a     57.851401
_cell_length_b     57.850678
_cell_length_c     22.077412
_cell_angle_alpha  90.014555
_cell_angle_beta   89.999856
_cell_angle_gamma 120.04117
loop_
_atom_site_label
_atom_site_type_symbol
_atom_site_fract_x
_atom_site_fract_y
_atom_site_fract_z
_atom_type_partial_charge
Co0 Co 0.13068 0.43659 0.01904 0.0
O1 O 0.10704 0.43595 0.9574 0.0
O2 O 0.09348 0.4133 0.04314 0.0
C3 C 0.15645 0.43008 0.95298 0.0
O4 O 0.15093 0.43249 0.09167 0.0
Co5 Co 0.19066 0.48069 0.01249 0.0
O6 O 0.1948 0.45659 0.06927 0.0
C7 C 0.14909 0.49429 0.04409 0.0
C8 C 0.08742 0.41922 0.99069 0.0
C9 C 0.17564 0.43928 0.10142 0.0
O10 O 0.13202 0.46954 0.0547 0.0
O11 O 0.17236 0.50209 0.02218 0.0
O12 O 0.13505 0.40973 0.97447 0.0
O13 O 0.16052 0.45316 0.96953 0.0
Co14 Co 0.69344 0.13219 0.18681 0.0
O15 O 0.67295 0.11118 0.11906 0.0
O16 O 0.67787 0.09406 0.20406 0.0
C17 C 0.72834 0.16023 0.12902 0.0
O18 O 0.71513 0.14937 0.26484 0.0
Co19 Co 0.71003 0.19246 0.19061 0.0
O20 O 0.73661 0.19388 0.24912 0.0
C21 C 0.6539 0.15051 0.21224 0.0
C22 C 0.66839 0.09014 0.14903 0.0
C23 C 0.7333 0.17353 0.27873 0.0
O24 O 0.66085 0.13267 0.21903 0.0
O25 O 0.67018 0.17455 0.19583 0.0
O26 O 0.72612 0.13782 0.14684 0.0
O27 O 0.7089 0.16394 0.14359 0.0
Co28 Co 0.56742 0.69543 0.35718 0.0
O29 O 0.56566 0.67185 0.29418 0.0
O30 O 0.59098 0.68108 0.37539 0.0
C31 C 0.57216 0.72715 0.2913 0.0
O32 O 0.57442 0.72072 0.42994 0.0
Co33 Co 0.52423 0.71231 0.36128 0.0
O34 O 0.55196 0.74226 0.40907 0.0
C35 C 0.51181 0.65929 0.40826 0.0
C36 C 0.58354 0.6691 0.323 0.0
C37 C 0.56935 0.73986 0.4395 0.0
O38 O 0.53603 0.66466 0.39948 0.0
O39 O 0.5032 0.67507 0.3937 0.0
O40 O 0.59288 0.72589 0.30899 0.0
O41 O 0.54944 0.70858 0.31133 0.0
Co42 Co 0.87446 0.56503 0.52423 0.0
O43 O 0.8991 0.56605 0.46487 0.0
O44 O 0.91116 0.59003 0.54902 0.0
C45 C 0.84797 0.569 0.45561 0.0
O46 O 0.85293 0.56877 0.59428 0.0
Co47 Co 0.81583 0.51802 0.51717 0.0
O48 O 0.80938 0.54101 0.57316 0.0
C49 C 0.85927 0.50859 0.55525 0.0
C50 C 0.91807 0.58377 0.49807 0.0
C51 C 0.82778 0.55988 0.60411 0.0
O52 O 0.87473 0.53377 0.5645 0.0
O53 O 0.8362 0.49874 0.53061 0.0
O54 O 0.86879 0.59019 0.47634 0.0
O55 O 0.84506 0.54655 0.47388 0.0
Co56 Co 0.30662 0.87 0.68873 0.0
O57 O 0.32963 0.89127 0.62421 0.0
O58 O 0.32045 0.90797 0.70451 0.0
C59 C 0.27469 0.84159 0.62493 0.0
O60 O 0.28193 0.85273 0.76276 0.0
Co61 Co 0.29036 0.81024 0.69876 0.0
O62 O 0.26045 0.8084 0.74598 0.0
C63 C 0.34345 0.85211 0.74281 0.0
C64 C 0.33214 0.91208 0.6519 0.0
C65 C 0.26291 0.82868 0.77435 0.0
O66 O 0.33789 0.87063 0.73144 0.0
O67 O 0.32771 0.82737 0.73097 0.0
O68 O 0.27572 0.86369 0.64069 0.0
O69 O 0.29358 0.83808 0.64552 0.0
Co70 Co 0.43639 0.30768 0.86021 0.0
O71 O 0.43866 0.33142 0.79691 0.0
O72 O 0.41237 0.32156 0.87667 0.0
C73 C 0.43295 0.2763 0.79485 0.0
O74 O 0.42845 0.28225 0.93299 0.0
Co75 Co 0.47955 0.29091 0.86932 0.0
O76 O 0.45124 0.26079 0.91559 0.0
C77 C 0.49097 0.34366 0.91616 0.0
C78 C 0.42031 0.3338 0.82472 0.0
C79 C 0.43337 0.26313 0.94404 0.0
O80 O 0.46699 0.3384 0.90453 0.0
O81 O 0.49984 0.32791 0.90343 0.0
O82 O 0.41187 0.27733 0.81054 0.0
O83 O 0.45531 0.29489 0.81644 0.0
Co84 Co 0.56431 0.8702 0.89904 0.0
O85 O 0.56411 0.89138 0.96558 0.0
O86 O 0.58715 0.90832 0.88164 0.0
C87 C 0.57047 0.84235 0.95903 0.0
O88 O 0.56974 0.85274 0.82255 0.0
Co89 Co 0.52051 0.80996 0.89511 0.0
O90 O 0.54639 0.80832 0.83934 0.0
C91 C 0.50673 0.85198 0.87121 0.0
C92 C 0.58096 0.91235 0.93595 0.0
C93 C 0.56392 0.82851 0.81008 0.0
O94 O 0.53158 0.86964 0.86424 0.0
O95 O 0.49878 0.82802 0.88854 0.0
O96 O 0.5909 0.86469 0.94159 0.0
O97 O 0.54749 0.83862 0.9427 0.0
Co98 Co 0.6963 0.563 0.06851 0.0
O99 O 0.67646 0.56392 0.13706 0.0
O100 O 0.68098 0.58584 0.05204 0.0
C101 C 0.73143 0.56964 0.12513 0.0
O102 O 0.71739 0.56709 0.98976 0.0
Co103 Co 0.71206 0.51877 0.06394 0.0
O104 O 0.73851 0.54369 0.00486 0.0
C105 C 0.65603 0.5052 0.04419 0.0
C106 C 0.67191 0.58047 0.10742 0.0
C107 C 0.73531 0.56083 0.97541 0.0
O108 O 0.66328 0.53006 0.0373 0.0
O109 O 0.67215 0.49717 0.06 0.0
O110 O 0.72938 0.58994 0.10737 0.0
O111 O 0.71172 0.54653 0.11113 0.0
Co112 Co 0.12956 0.6935 0.22655 0.0
O113 O 0.10687 0.66874 0.28711 0.0
O114 O 0.09213 0.68121 0.20832 0.0
C115 C 0.15725 0.72347 0.29466 0.0
O116 O 0.14838 0.7199 0.15601 0.0
Co117 Co 0.18915 0.70879 0.21995 0.0
O118 O 0.19251 0.73975 0.17444 0.0
C119 C 0.1472 0.65686 0.17069 0.0
C120 C 0.08684 0.66754 0.2584 0.0
C121 C 0.17278 0.73847 0.14587 0.0
O122 O 0.12897 0.663 0.18035 0.0
O123 O 0.17174 0.67179 0.18548 0.0
O124 O 0.1356 0.72326 0.2784 0.0
O125 O 0.16068 0.70483 0.27206 0.0
Co126 Co 0.43545 0.1307 0.39849 0.0
O127 O 0.43764 0.1094 0.46224 0.0
O128 O 0.41163 0.09268 0.38212 0.0
C129 C 0.43158 0.15854 0.46337 0.0
O130 O 0.42767 0.14805 0.32522 0.0
Co131 Co 0.47847 0.19073 0.38977 0.0
O132 O 0.45023 0.19233 0.34277 0.0
C133 C 0.49029 0.14956 0.34377 0.0
C134 C 0.41944 0.08856 0.43443 0.0
C135 C 0.43253 0.17208 0.31407 0.0
O136 O 0.4663 0.13076 0.35501 0.0
O137 O 0.49902 0.17417 0.35645 0.0
O138 O 0.41063 0.13636 0.44735 0.0
O139 O 0.45406 0.16244 0.44235 0.0
Co140 Co 0.30835 0.43903 0.56471 0.0
O141 O 0.32864 0.43821 0.63237 0.0
O142 O 0.32414 0.41674 0.54662 0.0
C143 C 0.27315 0.43151 0.62204 0.0
O144 O 0.28675 0.43493 0.48679 0.0
Co145 Co 0.29187 0.48281 0.56322 0.0
O146 O 0.26538 0.45794 0.50412 0.0
C147 C 0.34801 0.49718 0.54226 0.0
C148 C 0.33339 0.42199 0.60188 0.0
C149 C 0.26855 0.44098 0.47378 0.0
O150 O 0.34098 0.47246 0.53369 0.0
O151 O 0.33174 0.5048 0.55951 0.0
O152 O 0.27558 0.41151 0.60367 0.0
O153 O 0.29263 0.45482 0.60854 0.0
Co154 Co 0.87352 0.3067 0.73134 0.0
O155 O 0.89828 0.33003 0.79102 0.0
O156 O 0.91016 0.31865 0.70581 0.0
C157 C 0.84711 0.27583 0.7994 0.0
O158 O 0.85187 0.28181 0.66081 0.0
Co159 Co 0.81494 0.29505 0.73955 0.0
O160 O 0.80837 0.26589 0.68249 0.0
C161 C 0.85831 0.34813 0.70226 0.0
C162 C 0.91716 0.33157 0.75709 0.0
C163 C 0.8267 0.26559 0.651 0.0
O164 O 0.87374 0.33845 0.6924 0.0
O165 O 0.83526 0.33479 0.72693 0.0
O166 O 0.8679 0.27559 0.77808 0.0
O167 O 0.84421 0.29549 0.78203 0.0
H168 H 0.15086 0.42263 0.21281 0.0
H169 H 0.2805 0.42875 0.36116 0.0
H170 H 0.21892 0.43277 0.11084 0.0
H171 H 0.21689 0.4285 0.46339 0.0
H172 H 0.25368 0.41998 0.26855 0.0
H173 H 0.17009 0.41454 0.30415 0.0
C174 C 0.16948 0.42253 0.20931 0.0
C175 C 0.18346 0.42878 0.1543 0.0
C176 C 0.24541 0.42137 0.31149 0.0
C177 C 0.20576 0.41983 0.25853 0.0
C178 C 0.26066 0.42614 0.36436 0.0
C179 C 0.25106 0.42968 0.41987 0.0
C180 C 0.22039 0.42001 0.31439 0.0
C181 C 0.22522 0.42629 0.42133 0.0
C182 C 0.18059 0.41811 0.26152 0.0
C183 C 0.20764 0.42848 0.15254 0.0
N184 N 0.21097 0.42197 0.36948 0.0
N185 N 0.21813 0.42444 0.20382 0.0
H186 H 0.8521 0.27008 0.54194 0.0
H187 H 0.71979 0.14999 0.39174 0.0
H188 H 0.78017 0.21818 0.64098 0.0
H189 H 0.78547 0.21139 0.29011 0.0
H190 H 0.746 0.16802 0.48521 0.0
H191 H 0.83228 0.24227 0.45146 0.0
C192 C 0.83242 0.25256 0.54505 0.0
C193 C 0.81766 0.24671 0.59891 0.0
C194 C 0.75485 0.17721 0.44225 0.0
C195 C 0.79477 0.21485 0.49564 0.0
C196 C 0.73997 0.16674 0.3889 0.0
C197 C 0.75038 0.17935 0.33323 0.0
C198 C 0.78034 0.20031 0.43966 0.0
C199 C 0.77658 0.20123 0.33224 0.0
C200 C 0.82102 0.23676 0.49332 0.0
C201 C 0.79214 0.22373 0.60016 0.0
N202 N 0.7905 0.21115 0.38453 0.0
N203 N 0.78146 0.20884 0.54934 0.0
H204 H 0.5819 0.79178 0.44496 0.0
H205 H 0.57739 0.78995 0.80459 0.0
H206 H 0.58189 0.72987 0.55358 0.0
H207 H 0.5775 0.8521 0.69676 0.0
H208 H 0.58787 0.77258 0.71446 0.0
H209 H 0.58931 0.81852 0.53606 0.0
C210 C 0.58412 0.78407 0.48798 0.0
C211 C 0.58103 0.7584 0.49167 0.0
C212 C 0.58608 0.79028 0.71038 0.0
C213 C 0.58897 0.78885 0.59683 0.0
C214 C 0.58015 0.80028 0.76194 0.0
C215 C 0.5763 0.82238 0.75812 0.0
C216 C 0.58786 0.80217 0.65392 0.0
C217 C 0.58032 0.83506 0.70181 0.0
C218 C 0.58823 0.79935 0.54008 0.0
C219 C 0.5842 0.74954 0.54853 0.0
N220 N 0.58542 0.82448 0.65169 0.0
N221 N 0.5875 0.76453 0.59901 0.0
H222 H 0.85348 0.58184 0.71233 0.0
H223 H 0.72135 0.56997 0.86205 0.0
H224 H 0.78116 0.56058 0.61369 0.0
H225 H 0.78754 0.57559 0.9639 0.0
H226 H 0.74732 0.57763 0.7684 0.0
H227 H 0.83388 0.59051 0.80222 0.0
C228 C 0.83376 0.57954 0.70916 0.0
C229 C 0.81883 0.57009 0.65563 0.0
C230 C 0.75635 0.57771 0.81143 0.0
C231 C 0.79619 0.57983 0.75823 0.0
C232 C 0.7416 0.57361 0.86487 0.0
C233 C 0.75223 0.57193 0.92068 0.0
C234 C 0.7819 0.58032 0.81409 0.0
C235 C 0.77849 0.57647 0.92166 0.0
C236 C 0.82248 0.58433 0.76056 0.0
C237 C 0.79327 0.56741 0.65428 0.0
N238 N 0.79228 0.58017 0.86931 0.0
N239 N 0.7827 0.57199 0.70479 0.0
H240 H 0.2107 0.79021 0.78132 0.0
H241 H 0.214 0.78962 0.14003 0.0
H242 H 0.27372 0.8526 0.88691 0.0
H243 H 0.14814 0.73048 0.03463 0.0
H244 H 0.23209 0.81705 0.04941 0.0
H245 H 0.18389 0.77267 0.87298 0.0
C246 C 0.21864 0.80062 0.82376 0.0
C247 C 0.2446 0.82282 0.82651 0.0
C248 C 0.21342 0.79835 0.04607 0.0
C249 C 0.21412 0.80234 0.9324 0.0
C250 C 0.203 0.78267 0.09793 0.0
C251 C 0.17961 0.75756 0.09485 0.0
C252 C 0.20065 0.78877 0.99011 0.0
C253 C 0.16618 0.74968 0.03917 0.0
C254 C 0.20332 0.7905 0.87621 0.0
C255 C 0.25381 0.83551 0.88265 0.0
N256 N 0.17716 0.76499 0.98877 0.0
N257 N 0.2388 0.82479 0.93356 0.0
H258 H 0.41712 0.14654 0.20348 0.0
H259 H 0.41706 0.27266 0.05412 0.0
H260 H 0.42093 0.21204 0.30497 0.0
H261 H 0.42224 0.21168 0.95281 0.0
H262 H 0.40731 0.2452 0.14578 0.0
H263 H 0.40782 0.16438 0.11145 0.0
C264 C 0.41521 0.16419 0.20676 0.0
C265 C 0.42012 0.17798 0.26182 0.0
C266 C 0.41005 0.23759 0.10319 0.0
C267 C 0.40994 0.19881 0.15675 0.0
C268 C 0.41537 0.25319 0.05077 0.0
C269 C 0.4208 0.24462 0.99591 0.0
C270 C 0.41009 0.21326 0.10058 0.0
C271 C 0.41856 0.21925 0.99438 0.0
C272 C 0.41015 0.17455 0.15414 0.0
C273 C 0.41763 0.20095 0.26326 0.0
N274 N 0.41375 0.20468 0.04591 0.0
N275 N 0.41309 0.21081 0.21155 0.0
H276 H 0.11296 0.49464 0.12639 0.0
H277 H 0.17119 0.6504 0.07294 0.0
H278 H 0.16935 0.54189 0.98725 0.0
H279 H 0.10849 0.60603 0.20211 0.0
H280 H 0.1661 0.60877 0.03408 0.0
H281 H 0.10659 0.53284 0.14942 0.0
C282 C 0.12371 0.51285 0.10031 0.0
C283 C 0.14215 0.5153 0.05577 0.0
C284 C 0.15311 0.60788 0.0704 0.0
C285 C 0.13489 0.5587 0.08134 0.0
C286 C 0.15599 0.6317 0.09235 0.0
C287 C 0.14026 0.63151 0.14061 0.0
C288 C 0.13482 0.58357 0.09798 0.0
C289 C 0.12087 0.60683 0.16447 0.0
C290 C 0.12009 0.5346 0.11342 0.0
C291 C 0.15542 0.53925 0.02301 0.0
N292 N 0.11898 0.58374 0.1436 0.0
N293 N 0.15167 0.55994 0.03674 0.0
H294 H 0.61612 0.1125 0.28925 0.0
H295 H 0.5226 0.17613 0.2503 0.0
H296 H 0.62801 0.17318 0.15928 0.0
H297 H 0.50131 0.10944 0.36947 0.0
H298 H 0.55881 0.17107 0.20955 0.0
H299 H 0.57192 0.10681 0.3134 0.0
C300 C 0.6093 0.1243 0.26526 0.0
C301 C 0.62596 0.14372 0.22312 0.0
C302 C 0.54617 0.15724 0.24414 0.0
C303 C 0.57576 0.13732 0.25009 0.0
C304 C 0.52545 0.16016 0.26732 0.0
C305 C 0.50916 0.14329 0.31341 0.0
C306 C 0.55119 0.13768 0.26816 0.0
C307 C 0.51352 0.12279 0.33374 0.0
C308 C 0.58414 0.12109 0.27906 0.0
C309 C 0.61614 0.1584 0.19311 0.0
N310 N 0.53451 0.12081 0.31169 0.0
N311 N 0.5919 0.15503 0.20749 0.0
H312 H 0.37413 0.54458 0.60029 0.0
H313 H 0.50424 0.60875 0.38998 0.0
H314 H 0.3857 0.49831 0.46277 0.0
H315 H 0.4751 0.65243 0.4923 0.0
H316 H 0.46708 0.56664 0.43039 0.0
H317 H 0.4177 0.58234 0.57693 0.0
C318 C 0.38595 0.54233 0.56518 0.0
C319 C 0.37601 0.51844 0.53249 0.0
C320 C 0.46914 0.58552 0.44443 0.0
C321 C 0.42615 0.562 0.5049 0.0
C322 C 0.49034 0.60946 0.42178 0.0
C323 C 0.49249 0.63397 0.43761 0.0
C324 C 0.4505 0.5864 0.48384 0.0
C325 C 0.47398 0.63393 0.4785 0.0
C326 C 0.41089 0.56395 0.55187 0.0
C327 C 0.39256 0.51651 0.48859 0.0
N328 N 0.45381 0.61059 0.49999 0.0
N329 N 0.41677 0.53823 0.47529 0.0
H330 H 0.85669 0.46779 0.48975 0.0
H331 H 0.85399 0.38557 0.76706 0.0
H332 H 0.88027 0.5059 0.66442 0.0
H333 H 0.88124 0.37293 0.59513 0.0
H334 H 0.86216 0.42912 0.73137 0.0
H335 H 0.86432 0.43216 0.52614 0.0
C336 C 0.86389 0.4688 0.53554 0.0
C337 C 0.86779 0.48963 0.57437 0.0
C338 C 0.86684 0.41705 0.70188 0.0
C339 C 0.87588 0.44877 0.61655 0.0
C340 C 0.86206 0.39221 0.72203 0.0
C341 C 0.86684 0.37572 0.68373 0.0
C342 C 0.87563 0.42504 0.64233 0.0
C343 C 0.87736 0.38516 0.62593 0.0
C344 C 0.86835 0.44858 0.55612 0.0
C345 C 0.87713 0.49014 0.6332 0.0
N346 N 0.88084 0.40902 0.60635 0.0
N347 N 0.88029 0.46961 0.65309 0.0
H348 H 0.35003 0.82738 0.83885 0.0
H349 H 0.50655 0.88885 0.79111 0.0
H350 H 0.39438 0.89147 0.71271 0.0
H351 H 0.45892 0.83085 0.92711 0.0
H352 H 0.46803 0.89462 0.76741 0.0
H353 H 0.39167 0.83294 0.87855 0.0
C354 C 0.36872 0.84291 0.8201 0.0
C355 C 0.36888 0.85889 0.77241 0.0
C356 C 0.46625 0.88092 0.80295 0.0
C357 C 0.41692 0.86501 0.81634 0.0
C358 C 0.48819 0.87767 0.81648 0.0
C359 C 0.48571 0.85893 0.86022 0.0
C360 C 0.44195 0.86545 0.83383 0.0
C361 C 0.46157 0.84505 0.89202 0.0
C362 C 0.39256 0.84611 0.84264 0.0
C363 C 0.39357 0.87883 0.74975 0.0
N364 N 0.4407 0.84844 0.87789 0.0
N365 N 0.41672 0.88105 0.77122 0.0
H366 H 0.52206 0.34924 0.01205 0.0
H367 H 0.61813 0.50599 0.9687 0.0
H368 H 0.50296 0.3949 0.88847 0.0
H369 H 0.62981 0.45669 0.09757 0.0
H370 H 0.57343 0.46792 0.94602 0.0
H371 H 0.55859 0.39045 0.05254 0.0
C372 C 0.52544 0.36812 0.99408 0.0
C373 C 0.5097 0.36879 0.94679 0.0
C374 C 0.58573 0.46566 0.97979 0.0
C375 C 0.55213 0.4163 0.99156 0.0
C376 C 0.61117 0.48735 0.99276 0.0
C377 C 0.62789 0.4843 0.03416 0.0
C378 C 0.5771 0.44102 0.00891 0.0
C379 C 0.61788 0.4598 0.0643 0.0
C380 C 0.54635 0.39171 0.01705 0.0
C381 C 0.51474 0.3937 0.92515 0.0
N382 N 0.59335 0.43918 0.05076 0.0
N383 N 0.53592 0.41659 0.94699 0.0
H384 H 0.26148 0.46976 0.65262 0.0
H385 H 0.15079 0.3845 0.89967 0.0
H386 H 0.23645 0.38683 0.6838 0.0
H387 H 0.19995 0.47045 0.8993 0.0
H388 H 0.17666 0.38259 0.81315 0.0
H389 H 0.23154 0.46759 0.73225 0.0
C390 C 0.24941 0.45097 0.67586 0.0
C391 C 0.25167 0.42854 0.66236 0.0
C392 C 0.18173 0.40176 0.83249 0.0
C393 C 0.21764 0.42601 0.75433 0.0
C394 C 0.16714 0.40287 0.88182 0.0
C395 C 0.17322 0.42768 0.90633 0.0
C396 C 0.20213 0.42564 0.80762 0.0
C397 C 0.19449 0.4509 0.88167 0.0
C398 C 0.23245 0.44978 0.72161 0.0
C399 C 0.23532 0.40459 0.69331 0.0
N400 N 0.20801 0.4493 0.83345 0.0
N401 N 0.21907 0.40398 0.73861 0.0
H402 H 0.73866 0.20957 0.09612 0.0
H403 H 0.84996 0.23409 0.85064 0.0
H404 H 0.7657 0.15306 0.06811 0.0
H405 H 0.80539 0.27563 0.85579 0.0
H406 H 0.82327 0.2064 0.93614 0.0
H407 H 0.76866 0.23757 0.01675 0.0
C408 C 0.75117 0.20319 0.07361 0.0
C409 C 0.74953 0.17885 0.08812 0.0
C410 C 0.81935 0.22153 0.91821 0.0
C411 C 0.78368 0.21066 0.99644 0.0
C412 C 0.83444 0.23721 0.86942 0.0
C413 C 0.82986 0.25717 0.84636 0.0
C414 C 0.79985 0.22615 0.94404 0.0
C415 C 0.80963 0.26051 0.87223 0.0
C416 C 0.76818 0.21912 0.028 0.0
C417 C 0.76636 0.17169 0.05796 0.0
N418 N 0.79549 0.24526 0.91987 0.0
N419 N 0.78268 0.18747 0.01292 0.0
H420 H 0.61694 0.76707 0.23645 0.0
H421 H 0.53053 0.79408 0.9956 0.0
H422 H 0.53099 0.72985 0.23989 0.0
H423 H 0.61487 0.84885 0.01937 0.0
H424 H 0.53208 0.76649 0.07655 0.0
H425 H 0.6181 0.79485 0.1511 0.0
C426 C 0.59838 0.76494 0.21962 0.0
C427 C 0.57382 0.74611 0.24494 0.0
C428 C 0.55031 0.78448 0.06404 0.0
C429 C 0.575 0.77723 0.14743 0.0
C430 C 0.54948 0.80017 0.01752 0.0
C431 C 0.57256 0.8239 1.00133 0.0
C432 C 0.5744 0.79255 0.09467 0.0
C433 C 0.59662 0.8307 0.03084 0.0
C434 C 0.59907 0.78068 0.17094 0.0
C435 C 0.55036 0.74406 0.2216 0.0
N436 N 0.59691 0.81513 0.07664 0.0
N437 N 0.55153 0.7593 0.17389 0.0
H438 H 0.80567 0.52712 0.40141 0.0
H439 H 0.76982 0.61446 0.18347 0.0
H440 H 0.85116 0.6133 0.40205 0.0
H441 H 0.74035 0.53008 0.16136 0.0
H442 H 0.79943 0.61554 0.26454 0.0
H443 H 0.77959 0.52859 0.31683 0.0
C444 C 0.81005 0.5464 0.38394 0.0
C445 C 0.83063 0.57013 0.40852 0.0
C446 C 0.78666 0.59691 0.24135 0.0
C447 C 0.801 0.57199 0.31114 0.0
C448 C 0.76991 0.59631 0.19499 0.0
C449 C 0.75248 0.57209 0.16628 0.0
C450 C 0.78567 0.57309 0.25888 0.0
C451 C 0.75328 0.54913 0.18279 0.0
C452 C 0.79527 0.54723 0.33531 0.0
C453 C 0.83542 0.59455 0.3842 0.0
N454 N 0.7694 0.55015 0.22837 0.0
N455 N 0.82068 0.59488 0.33659 0.0
H456 H 0.20143 0.7251 0.34237 0.0
H457 H 0.23416 0.84507 0.56997 0.0
H458 H 0.15411 0.76369 0.35208 0.0
H459 H 0.27157 0.79663 0.57795 0.0
H460 H 0.2054 0.81671 0.48808 0.0
H461 H 0.22914 0.75335 0.42494 0.0
C462 C 0.197 0.73967 0.36165 0.0
C463 C 0.17543 0.74205 0.34063 0.0
C464 C 0.2198 0.81223 0.50807 0.0
C465 C 0.20689 0.77427 0.43539 0.0
C466 C 0.23612 0.82832 0.55487 0.0
C467 C 0.25529 0.8232 0.58046 0.0
C468 C 0.22287 0.79105 0.48669 0.0
C469 C 0.25708 0.80131 0.55931 0.0
C470 C 0.21272 0.75569 0.40902 0.0
C471 C 0.17056 0.76123 0.36714 0.0
N472 N 0.24118 0.78613 0.51336 0.0
N473 N 0.18618 0.77663 0.41335 0.0
H474 H 0.47482 0.27272 0.75011 0.0
H475 H 0.3874 0.15436 0.51933 0.0
H476 H 0.38919 0.23679 0.73653 0.0
H477 H 0.47325 0.20337 0.51107 0.0
H478 H 0.3869 0.18222 0.6024 0.0
H479 H 0.4739 0.24421 0.66794 0.0
C480 C 0.45577 0.25865 0.73011 0.0
C481 C 0.43205 0.25717 0.74981 0.0
C482 C 0.4058 0.18692 0.58206 0.0
C483 C 0.43086 0.22464 0.65539 0.0
C484 C 0.40608 0.17112 0.53462 0.0
C485 C 0.43041 0.17656 0.50859 0.0
C486 C 0.43003 0.20808 0.60364 0.0
C487 C 0.45406 0.19844 0.53 0.0
C488 C 0.45527 0.24249 0.68293 0.0
C489 C 0.40793 0.23856 0.72244 0.0
N490 N 0.45328 0.2133 0.57656 0.0
N491 N 0.40794 0.22301 0.67633 0.0
H492 H 0.04874 0.36623 0.99407 0.0
H493 H 0.94531 0.38362 0.78848 0.0
H494 H 0.06529 0.4428 0.92577 0.0
H495 H 0.94985 0.31158 0.78408 0.0
H496 H 0.98616 0.40511 0.84957 0.0
H497 H 0.00792 0.34471 0.93153 0.0
C498 C 0.04335 0.37851 0.9673 0.0
C499 C 0.06014 0.4063 0.96544 0.0
C500 C 0.97851 0.38475 0.83442 0.0
C501 C 0.0141 0.38201 0.89349 0.0
C502 C 0.95543 0.37262 0.79904 0.0
C503 C 0.94476 0.34612 0.77995 0.0
C504 C 0.99051 0.36996 0.85264 0.0
C505 C 0.95799 0.33233 0.79655 0.0
C506 C 0.02039 0.36624 0.93093 0.0
C507 C 0.05271 0.42131 0.92875 0.0
N508 N 0.98006 0.34431 0.83268 0.0
N509 N 0.03024 0.40902 0.89441 0.0
H510 H 0.57889 0.92208 0.05557 0.0
H511 H 0.65711 0.0804 0.02911 0.0
H512 H 0.61206 0.96283 0.88663 0.0
H513 H 0.64927 0.03974 0.1983 0.0
H514 H 0.63641 0.03764 0.97654 0.0
H515 H 0.60019 0.96485 0.10799 0.0
C516 C 0.59056 0.94006 0.02925 0.0
C517 C 0.59358 0.93881 0.9663 0.0
C518 C 0.63921 0.03802 0.02511 0.0
C519 C 0.61807 0.9881 0.02674 0.0
C520 C 0.6509 0.06243 0.05545 0.0
C521 C 0.65489 0.06371 0.11851 0.0
C522 C 0.631 0.01446 0.05792 0.0
C523 C 0.64656 0.03972 0.14979 0.0
C524 C 0.60285 0.9645 0.0595 0.0
C525 C 0.60915 0.96284 0.93505 0.0
N526 N 0.63486 0.01603 0.11919 0.0
N527 N 0.62069 0.98655 0.96557 0.0
H528 H 0.66426 0.58173 0.22842 0.0
H529 H 0.57784 0.65317 0.20565 0.0
H530 H 0.65005 0.60937 0.05851 0.0
H531 H 0.61833 0.65383 0.37042 0.0
H532 H 0.59969 0.63244 0.15274 0.0
H533 H 0.64338 0.6034 0.28188 0.0
C534 C 0.65663 0.59228 0.20216 0.0
C535 C 0.65881 0.59361 0.13862 0.0
C536 C 0.60383 0.6371 0.20042 0.0
C537 C 0.6347 0.61846 0.20019 0.0
C538 C 0.59121 0.64879 0.23103 0.0
C539 C 0.59615 0.65521 0.29292 0.0
C540 C 0.62133 0.6313 0.23182 0.0
C541 C 0.61388 0.64919 0.32286 0.0
C542 C 0.64485 0.60479 0.23297 0.0
C543 C 0.64876 0.6078 0.10739 0.0
N544 N 0.62572 0.6374 0.29208 0.0
N545 N 0.63694 0.61951 0.13849 0.0
H546 H 0.06404 0.61939 0.31374 0.0
H547 H 0.95342 0.63739 0.48714 0.0
H548 H 0.05025 0.68417 0.27103 0.0
H549 H 0.94379 0.55993 0.45012 0.0
H550 H 0.99425 0.65786 0.42454 0.0
H551 H 0.02401 0.59944 0.37743 0.0
C552 C 0.05221 0.62912 0.31693 0.0
C553 C 0.0601 0.65317 0.28634 0.0
C554 C 0.98334 0.63642 0.43097 0.0
C555 C 0.01506 0.63116 0.36133 0.0
C556 C 0.9604 0.62484 0.46746 0.0
C557 C 0.94558 0.59702 0.47438 0.0
C558 C 0.99158 0.62003 0.40235 0.0
C559 C 0.95492 0.58149 0.4464 0.0
C560 C 0.02954 0.61786 0.3536 0.0
C561 C 0.04444 0.66529 0.29289 0.0
N562 N 0.97734 0.59318 0.41182 0.0
N563 N 0.02279 0.65432 0.3304 0.0
H564 H 0.42325 0.07927 0.55347 0.0
H565 H 0.34437 0.92125 0.53238 0.0
H566 H 0.38669 0.03805 0.38692 0.0
H567 H 0.34993 0.96256 0.69933 0.0
H568 H 0.36492 0.96374 0.47857 0.0
H569 H 0.40173 0.03675 0.60706 0.0
C570 C 0.41081 0.06123 0.52791 0.0
C571 C 0.40688 0.06226 0.46531 0.0
C572 C 0.36164 0.96354 0.52692 0.0
C573 C 0.38219 0.01333 0.52701 0.0
C574 C 0.35008 0.93931 0.55796 0.0
C575 C 0.34552 0.93832 0.62074 0.0
C576 C 0.36922 0.98718 0.55883 0.0
C577 C 0.35312 0.96239 0.65106 0.0
C578 C 0.39839 0.03698 0.55884 0.0
C579 C 0.39032 0.03819 0.43504 0.0
N580 N 0.36481 0.9859 0.61986 0.0
N581 N 0.37873 0.01464 0.46614 0.0
H582 H 0.35501 0.39314 0.55145 0.0
H583 H 0.38562 0.34899 0.87197 0.0
H584 H 0.34166 0.42074 0.72246 0.0
H585 H 0.42592 0.34947 0.70705 0.0
H586 H 0.36423 0.37025 0.81665 0.0
H587 H 0.37621 0.37156 0.60651 0.0
C588 C 0.35655 0.39469 0.60034 0.0
C589 C 0.34674 0.40893 0.63224 0.0
C590 C 0.37785 0.36573 0.7928 0.0
C591 C 0.37042 0.38403 0.69542 0.0
C592 C 0.39004 0.35364 0.82438 0.0
C593 C 0.40773 0.34762 0.79432 0.0
C594 C 0.38303 0.37135 0.73058 0.0
C595 C 0.4126 0.35394 0.73234 0.0
C596 C 0.36865 0.38243 0.63174 0.0
C597 C 0.34915 0.41019 0.69578 0.0
N598 N 0.40023 0.36527 0.70252 0.0
N599 N 0.36058 0.39783 0.72519 0.0
loop_
_geom_bond_atom_site_label_1
_geom_bond_atom_site_label_2
_geom_bond_distance
_geom_bond_site_symmetry_2
_ccdc_geom_bond_type
Co0 O1 2.216 1_554 S
Co0 O2 2.091 . S
Co0 O4 2.004 . S
Co0 O10 2.021 . S
Co0 O12 2.137 1_554 S
Co0 O13 2.244 1_554 S
O1 Co0 2.216 1_556 S
O1 C8 1.247 . S
O2 Co0 2.091 . S
O2 C8 1.261 1_554 S
C3 O12 1.247 . S
C3 O13 1.272 . S
O4 Co0 2.004 . S
O4 C9 1.259 . S
Co5 O6 2.061 . S
Co5 O11 2.052 . S
Co5 O13 2.135 1_554 S
O6 Co5 2.061 . S
O6 C9 1.235 . S
C7 O10 1.238 . S
C7 O11 1.241 . S
C8 O1 1.247 . S
C8 O2 1.261 1_556 S
C9 O4 1.259 . S
C9 O6 1.235 . S
O10 Co0 2.021 . S
O10 C7 1.238 . S
O11 Co5 2.052 . S
O11 C7 1.241 . S
O12 Co0 2.137 1_556 S
O12 C3 1.247 . S
O13 Co0 2.244 1_556 S
O13 C3 1.272 . S
O13 Co5 2.135 1_556 S
Co14 O15 2.216 . S
Co14 O16 2.091 . S
Co14 O18 2.004 . S
Co14 O24 2.021 . S
Co14 O26 2.137 . S
Co14 O27 2.244 . S
O15 Co14 2.216 . S
O15 C22 1.247 . S
O16 Co14 2.091 . S
O16 C22 1.261 . S
C17 O26 1.247 . S
C17 O27 1.272 . S
O18 Co14 2.004 . S
O18 C23 1.259 . S
Co19 O20 2.061 . S
Co19 O25 2.052 . S
Co19 O27 2.135 . S
O20 Co19 2.061 . S
O20 C23 1.235 . S
C21 O24 1.238 . S
C21 O25 1.241 . S
C22 O15 1.247 . S
C22 O16 1.261 . S
C23 O18 1.259 . S
C23 O20 1.235 . S
O24 Co14 2.021 . S
O24 C21 1.238 . S
O25 Co19 2.052 . S
O25 C21 1.241 . S
O26 Co14 2.137 . S
O26 C17 1.247 . S
O27 Co14 2.244 . S
O27 C17 1.272 . S
O27 Co19 2.135 . S
Co28 O29 2.216 . S
Co28 O30 2.091 . S
Co28 O32 2.004 . S
Co28 O38 2.021 . S
Co28 O40 2.137 . S
Co28 O41 2.244 . S
O29 Co28 2.216 . S
O29 C36 1.247 . S
O30 Co28 2.091 . S
O30 C36 1.261 . S
C31 O40 1.247 . S
C31 O41 1.272 . S
O32 Co28 2.004 . S
O32 C37 1.259 . S
Co33 O34 2.061 . S
Co33 O39 2.052 . S
Co33 O41 2.135 . S
O34 Co33 2.061 . S
O34 C37 1.235 . S
C35 O38 1.238 . S
C35 O39 1.241 . S
C36 O29 1.247 . S
C36 O30 1.261 . S
C37 O32 1.259 . S
C37 O34 1.235 . S
O38 Co28 2.021 . S
O38 C35 1.238 . S
O39 Co33 2.052 . S
O39 C35 1.241 . S
O40 Co28 2.137 . S
O40 C31 1.247 . S
O41 Co28 2.244 . S
O41 C31 1.272 . S
O41 Co33 2.135 . S
Co42 O43 2.216 . S
Co42 O44 2.091 . S
Co42 O46 2.004 . S
Co42 O52 2.021 . S
Co42 O54 2.137 . S
Co42 O55 2.244 . S
O43 Co42 2.216 . S
O43 C50 1.247 . S
O44 Co42 2.091 . S
O44 C50 1.261 . S
C45 O54 1.247 . S
C45 O55 1.272 . S
O46 Co42 2.004 . S
O46 C51 1.259 . S
Co47 O48 2.061 . S
Co47 O53 2.052 . S
Co47 O55 2.135 . S
O48 Co47 2.061 . S
O48 C51 1.235 . S
C49 O52 1.238 . S
C49 O53 1.241 . S
C50 O43 1.247 . S
C50 O44 1.261 . S
C51 O46 1.259 . S
C51 O48 1.235 . S
O52 Co42 2.021 . S
O52 C49 1.238 . S
O53 Co47 2.052 . S
O53 C49 1.241 . S
O54 Co42 2.137 . S
O54 C45 1.247 . S
O55 Co42 2.244 . S
O55 C45 1.272 . S
O55 Co47 2.135 . S
Co56 O57 2.216 . S
Co56 O58 2.091 . S
Co56 O60 2.004 . S
Co56 O66 2.021 . S
Co56 O68 2.137 . S
Co56 O69 2.244 . S
O57 Co56 2.216 . S
O57 C64 1.247 . S
O58 Co56 2.091 . S
O58 C64 1.261 . S
C59 O68 1.247 . S
C59 O69 1.272 . S
O60 Co56 2.004 . S
O60 C65 1.259 . S
Co61 O62 2.061 . S
Co61 O67 2.052 . S
Co61 O69 2.135 . S
O62 Co61 2.061 . S
O62 C65 1.235 . S
C63 O66 1.238 . S
C63 O67 1.241 . S
C64 O57 1.247 . S
C64 O58 1.261 . S
C65 O60 1.259 . S
C65 O62 1.235 . S
O66 Co56 2.021 . S
O66 C63 1.238 . S
O67 Co61 2.052 . S
O67 C63 1.241 . S
O68 Co56 2.137 . S
O68 C59 1.247 . S
O69 Co56 2.244 . S
O69 C59 1.272 . S
O69 Co61 2.135 . S
Co70 O71 2.216 . S
Co70 O72 2.091 . S
Co70 O74 2.004 . S
Co70 O80 2.021 . S
Co70 O82 2.137 . S
Co70 O83 2.244 . S
O71 Co70 2.216 . S
O71 C78 1.247 . S
O72 Co70 2.091 . S
O72 C78 1.261 . S
C73 O82 1.247 . S
C73 O83 1.272 . S
O74 Co70 2.004 . S
O74 C79 1.259 . S
Co75 O76 2.061 . S
Co75 O81 2.052 . S
Co75 O83 2.135 . S
O76 Co75 2.061 . S
O76 C79 1.235 . S
C77 O80 1.238 . S
C77 O81 1.241 . S
C78 O71 1.247 . S
C78 O72 1.261 . S
C79 O74 1.259 . S
C79 O76 1.235 . S
O80 Co70 2.021 . S
O80 C77 1.238 . S
O81 Co75 2.052 . S
O81 C77 1.241 . S
O82 Co70 2.137 . S
O82 C73 1.247 . S
O83 Co70 2.244 . S
O83 C73 1.272 . S
O83 Co75 2.135 . S
Co84 O85 2.216 . S
Co84 O86 2.091 . S
Co84 O88 2.004 . S
Co84 O94 2.021 . S
Co84 O96 2.137 . S
Co84 O97 2.244 . S
O85 Co84 2.216 . S
O85 C92 1.247 . S
O86 Co84 2.091 . S
O86 C92 1.261 . S
C87 O96 1.247 . S
C87 O97 1.272 . S
O88 Co84 2.004 . S
O88 C93 1.259 . S
Co89 O90 2.061 . S
Co89 O95 2.052 . S
Co89 O97 2.135 . S
O90 Co89 2.061 . S
O90 C93 1.235 . S
C91 O94 1.238 . S
C91 O95 1.241 . S
C92 O85 1.247 . S
C92 O86 1.261 . S
C93 O88 1.259 . S
C93 O90 1.235 . S
O94 Co84 2.021 . S
O94 C91 1.238 . S
O95 Co89 2.052 . S
O95 C91 1.241 . S
O96 Co84 2.137 . S
O96 C87 1.247 . S
O97 Co84 2.244 . S
O97 C87 1.272 . S
O97 Co89 2.135 . S
Co98 O99 2.216 . S
Co98 O100 2.091 . S
Co98 O102 2.004 1_554 S
Co98 O108 2.021 . S
Co98 O110 2.137 . S
Co98 O111 2.244 . S
O99 Co98 2.216 . S
O99 C106 1.247 . S
O100 Co98 2.091 . S
O100 C106 1.261 . S
C101 O110 1.247 . S
C101 O111 1.272 . S
O102 Co98 2.004 1_556 S
O102 C107 1.259 . S
Co103 O104 2.061 1_554 S
Co103 O109 2.052 . S
Co103 O111 2.135 . S
O104 Co103 2.061 1_556 S
O104 C107 1.235 . S
C105 O108 1.238 . S
C105 O109 1.241 . S
C106 O99 1.247 . S
C106 O100 1.261 . S
C107 O102 1.259 . S
C107 O104 1.235 . S
O108 Co98 2.021 . S
O108 C105 1.238 . S
O109 Co103 2.052 . S
O109 C105 1.241 . S
O110 Co98 2.137 . S
O110 C101 1.247 . S
O111 Co98 2.244 . S
O111 C101 1.272 . S
O111 Co103 2.135 . S
Co112 O113 2.216 . S
Co112 O114 2.091 . S
Co112 O116 2.004 . S
Co112 O122 2.021 . S
Co112 O124 2.137 . S
Co112 O125 2.244 . S
O113 Co112 2.216 . S
O113 C120 1.247 . S
O114 Co112 2.091 . S
O114 C120 1.261 . S
C115 O124 1.247 . S
C115 O125 1.272 . S
O116 Co112 2.004 . S
O116 C121 1.259 . S
Co117 O118 2.061 . S
Co117 O123 2.052 . S
Co117 O125 2.135 . S
O118 Co117 2.061 . S
O118 C121 1.235 . S
C119 O122 1.238 . S
C119 O123 1.241 . S
C120 O113 1.247 . S
C120 O114 1.261 . S
C121 O116 1.259 . S
C121 O118 1.235 . S
O122 Co112 2.021 . S
O122 C119 1.238 . S
O123 Co117 2.052 . S
O123 C119 1.241 . S
O124 Co112 2.137 . S
O124 C115 1.247 . S
O125 Co112 2.244 . S
O125 C115 1.272 . S
O125 Co117 2.135 . S
Co126 O127 2.216 . S
Co126 O128 2.091 . S
Co126 O130 2.004 . S
Co126 O136 2.021 . S
Co126 O138 2.137 . S
Co126 O139 2.244 . S
O127 Co126 2.216 . S
O127 C134 1.247 . S
O128 Co126 2.091 . S
O128 C134 1.261 . S
C129 O138 1.247 . S
C129 O139 1.272 . S
O130 Co126 2.004 . S
O130 C135 1.259 . S
Co131 O132 2.061 . S
Co131 O137 2.052 . S
Co131 O139 2.135 . S
O132 Co131 2.061 . S
O132 C135 1.235 . S
C133 O136 1.238 . S
C133 O137 1.241 . S
C134 O127 1.247 . S
C134 O128 1.261 . S
C135 O130 1.259 . S
C135 O132 1.235 . S
O136 Co126 2.021 . S
O136 C133 1.238 . S
O137 Co131 2.052 . S
O137 C133 1.241 . S
O138 Co126 2.137 . S
O138 C129 1.247 . S
O139 Co126 2.244 . S
O139 C129 1.272 . S
O139 Co131 2.135 . S
Co140 O141 2.216 . S
Co140 O142 2.091 . S
Co140 O144 2.004 . S
Co140 O150 2.021 . S
Co140 O152 2.137 . S
Co140 O153 2.244 . S
O141 Co140 2.216 . S
O141 C148 1.247 . S
O142 Co140 2.091 . S
O142 C148 1.261 . S
C143 O152 1.247 . S
C143 O153 1.272 . S
O144 Co140 2.004 . S
O144 C149 1.259 . S
Co145 O146 2.061 . S
Co145 O151 2.052 . S
Co145 O153 2.135 . S
O146 Co145 2.061 . S
O146 C149 1.235 . S
C147 O150 1.238 . S
C147 O151 1.241 . S
C148 O141 1.247 . S
C148 O142 1.261 . S
C149 O144 1.259 . S
C149 O146 1.235 . S
O150 Co140 2.021 . S
O150 C147 1.238 . S
O151 Co145 2.052 . S
O151 C147 1.241 . S
O152 Co140 2.137 . S
O152 C143 1.247 . S
O153 Co140 2.244 . S
O153 C143 1.272 . S
O153 Co145 2.135 . S
Co154 O155 2.216 . S
Co154 O156 2.091 . S
Co154 O158 2.004 . S
Co154 O164 2.021 . S
Co154 O166 2.137 . S
Co154 O167 2.244 . S
O155 Co154 2.216 . S
O155 C162 1.247 . S
O156 Co154 2.091 . S
O156 C162 1.261 . S
C157 O166 1.247 . S
C157 O167 1.272 . S
O158 Co154 2.004 . S
O158 C163 1.259 . S
Co159 O160 2.061 . S
Co159 O165 2.052 . S
Co159 O167 2.135 . S
O160 Co159 2.061 . S
O160 C163 1.235 . S
C161 O164 1.238 . S
C161 O165 1.241 . S
C162 O155 1.247 . S
C162 O156 1.261 . S
C163 O158 1.259 . S
C163 O160 1.235 . S
O164 Co154 2.021 . S
O164 C161 1.238 . S
O165 Co159 2.052 . S
O165 C161 1.241 . S
O166 Co154 2.137 . S
O166 C157 1.247 . S
O167 Co154 2.244 . S
O167 C157 1.272 . S
O167 Co159 2.135 . S
H168 C174 0.930 . S
H169 C178 0.930 . S
H170 C183 0.929 . S
H171 C181 0.929 . S
H172 C176 0.929 . S
H173 C182 0.929 . S
C174 H168 0.930 . S
C174 C175 1.367 . S
C174 C182 1.378 . S
C175 C174 1.367 . S
C175 C183 1.433 . S
C176 H172 0.929 . S
C176 C178 1.378 . S
C176 C180 1.350 . S
C177 C180 1.463 . S
C177 C182 1.350 . S
C177 N185 1.427 . S
C178 H169 0.930 . S
C178 C176 1.378 . S
C178 C179 1.367 . S
C179 C178 1.367 . S
C179 C181 1.433 . S
C180 C176 1.350 . S
C180 C177 1.463 . S
C180 N184 1.427 . S
C181 H171 0.929 . S
C181 C179 1.433 . S
C181 N184 1.384 . S
C182 H173 0.929 . S
C182 C174 1.378 . S
C182 C177 1.350 . S
C183 H170 0.929 . S
C183 C175 1.433 . S
C183 N185 1.384 . S
N184 C180 1.427 . S
N184 C181 1.384 . S
N185 C177 1.427 . S
N185 C183 1.384 . S
H186 C192 0.930 . S
H187 C196 0.930 . S
H188 C201 0.929 . S
H189 C199 0.929 . S
H190 C194 0.929 . S
H191 C200 0.929 . S
C192 H186 0.930 . S
C192 C193 1.367 . S
C192 C200 1.378 . S
C193 C192 1.367 . S
C193 C201 1.433 . S
C194 H190 0.929 . S
C194 C196 1.378 . S
C194 C198 1.350 . S
C195 C198 1.463 . S
C195 C200 1.350 . S
C195 N203 1.427 . S
C196 H187 0.930 . S
C196 C194 1.378 . S
C196 C197 1.367 . S
C197 C196 1.367 . S
C197 C199 1.433 . S
C198 C194 1.350 . S
C198 C195 1.463 . S
C198 N202 1.427 . S
C199 H189 0.929 . S
C199 C197 1.433 . S
C199 N202 1.384 . S
C200 H191 0.929 . S
C200 C192 1.378 . S
C200 C195 1.350 . S
C201 H188 0.929 . S
C201 C193 1.433 . S
C201 N203 1.384 . S
N202 C198 1.427 . S
N202 C199 1.384 . S
N203 C195 1.427 . S
N203 C201 1.384 . S
H204 C210 0.930 . S
H205 C214 0.930 . S
H206 C219 0.929 . S
H207 C217 0.929 . S
H208 C212 0.929 . S
H209 C218 0.929 . S
C210 H204 0.930 . S
C210 C211 1.367 . S
C210 C218 1.378 . S
C211 C210 1.367 . S
C211 C219 1.433 . S
C212 H208 0.929 . S
C212 C214 1.378 . S
C212 C216 1.350 . S
C213 C216 1.463 . S
C213 C218 1.350 . S
C213 N221 1.427 . S
C214 H205 0.930 . S
C214 C212 1.378 . S
C214 C215 1.367 . S
C215 C214 1.367 . S
C215 C217 1.433 . S
C216 C212 1.350 . S
C216 C213 1.463 . S
C216 N220 1.427 . S
C217 H207 0.929 . S
C217 C215 1.433 . S
C217 N220 1.384 . S
C218 H209 0.929 . S
C218 C210 1.378 . S
C218 C213 1.350 . S
C219 H206 0.929 . S
C219 C211 1.433 . S
C219 N221 1.384 . S
N220 C216 1.427 . S
N220 C217 1.384 . S
N221 C213 1.427 . S
N221 C219 1.384 . S
H222 C228 0.930 . S
H223 C232 0.930 . S
H224 C237 0.929 . S
H225 C235 0.929 . S
H226 C230 0.929 . S
H227 C236 0.929 . S
C228 H222 0.930 . S
C228 C229 1.367 . S
C228 C236 1.378 . S
C229 C228 1.367 . S
C229 C237 1.433 . S
C230 H226 0.929 . S
C230 C232 1.378 . S
C230 C234 1.350 . S
C231 C234 1.463 . S
C231 C236 1.350 . S
C231 N239 1.427 . S
C232 H223 0.930 . S
C232 C230 1.378 . S
C232 C233 1.367 . S
C233 C232 1.367 . S
C233 C235 1.433 . S
C234 C230 1.350 . S
C234 C231 1.463 . S
C234 N238 1.427 . S
C235 H225 0.929 . S
C235 C233 1.433 . S
C235 N238 1.384 . S
C236 H227 0.929 . S
C236 C228 1.378 . S
C236 C231 1.350 . S
C237 H224 0.929 . S
C237 C229 1.433 . S
C237 N239 1.384 . S
N238 C234 1.427 . S
N238 C235 1.384 . S
N239 C231 1.427 . S
N239 C237 1.384 . S
H240 C246 0.930 . S
H241 C250 0.930 . S
H242 C255 0.929 . S
H243 C253 0.929 . S
H244 C248 0.929 . S
H245 C254 0.929 . S
C246 H240 0.930 . S
C246 C247 1.367 . S
C246 C254 1.378 . S
C247 C246 1.367 . S
C247 C255 1.433 . S
C248 H244 0.929 . S
C248 C250 1.378 . S
C248 C252 1.350 1_554 S
C249 C252 1.463 . S
C249 C254 1.350 . S
C249 N257 1.427 . S
C250 H241 0.930 . S
C250 C248 1.378 . S
C250 C251 1.367 . S
C251 C250 1.367 . S
C251 C253 1.433 . S
C252 C248 1.350 1_556 S
C252 C249 1.463 . S
C252 N256 1.427 . S
C253 H243 0.929 . S
C253 C251 1.433 . S
C253 N256 1.384 1_554 S
C254 H245 0.929 . S
C254 C246 1.378 . S
C254 C249 1.350 . S
C255 H242 0.929 . S
C255 C247 1.433 . S
C255 N257 1.384 . S
N256 C252 1.427 . S
N256 C253 1.384 1_556 S
N257 C249 1.427 . S
N257 C255 1.384 . S
H258 C264 0.930 . S
H259 C268 0.930 . S
H260 C273 0.929 . S
H261 C271 0.929 1_556 S
H262 C266 0.929 . S
H263 C272 0.929 . S
C264 H258 0.930 . S
C264 C265 1.367 . S
C264 C272 1.378 . S
C265 C264 1.367 . S
C265 C273 1.433 . S
C266 H262 0.929 . S
C266 C268 1.378 . S
C266 C270 1.350 . S
C267 C270 1.463 . S
C267 C272 1.350 . S
C267 N275 1.427 . S
C268 H259 0.930 . S
C268 C266 1.378 . S
C268 C269 1.367 . S
C269 C268 1.367 . S
C269 C271 1.433 . S
C270 C266 1.350 . S
C270 C267 1.463 . S
C270 N274 1.427 . S
C271 H261 0.929 1_554 S
C271 C269 1.433 . S
C271 N274 1.384 . S
C272 H263 0.929 . S
C272 C264 1.378 . S
C272 C267 1.350 . S
C273 H260 0.929 . S
C273 C265 1.433 . S
C273 N275 1.384 . S
N274 C270 1.427 . S
N274 C271 1.384 . S
N275 C267 1.427 . S
N275 C273 1.384 . S
H276 C282 0.930 . S
H277 C286 0.930 . S
H278 C291 0.929 . S
H279 C289 0.929 . S
H280 C284 0.929 . S
H281 C290 0.929 . S
C282 H276 0.930 . S
C282 C283 1.367 . S
C282 C290 1.378 . S
C283 C282 1.367 . S
C283 C291 1.433 . S
C284 H280 0.929 . S
C284 C286 1.378 . S
C284 C288 1.350 . S
C285 C288 1.463 . S
C285 C290 1.350 . S
C285 N293 1.427 . S
C286 H277 0.930 . S
C286 C284 1.378 . S
C286 C287 1.367 . S
C287 C286 1.367 . S
C287 C289 1.433 . S
C288 C284 1.350 . S
C288 C285 1.463 . S
C288 N292 1.427 . S
C289 H279 0.929 . S
C289 C287 1.433 . S
C289 N292 1.384 . S
C290 H281 0.929 . S
C290 C282 1.378 . S
C290 C285 1.350 . S
C291 H278 0.929 . S
C291 C283 1.433 . S
C291 N293 1.384 . S
N292 C288 1.427 . S
N292 C289 1.384 . S
N293 C285 1.427 . S
N293 C291 1.384 . S
H294 C300 0.930 . S
H295 C304 0.930 . S
H296 C309 0.929 . S
H297 C307 0.929 . S
H298 C302 0.929 . S
H299 C308 0.929 . S
C300 H294 0.930 . S
C300 C301 1.367 . S
C300 C308 1.378 . S
C301 C300 1.367 . S
C301 C309 1.433 . S
C302 H298 0.929 . S
C302 C304 1.378 . S
C302 C306 1.350 . S
C303 C306 1.463 . S
C303 C308 1.350 . S
C303 N311 1.427 . S
C304 H295 0.930 . S
C304 C302 1.378 . S
C304 C305 1.367 . S
C305 C304 1.367 . S
C305 C307 1.433 . S
C306 C302 1.350 . S
C306 C303 1.463 . S
C306 N310 1.427 . S
C307 H297 0.929 . S
C307 C305 1.433 . S
C307 N310 1.384 . S
C308 H299 0.929 . S
C308 C300 1.378 . S
C308 C303 1.350 . S
C309 H296 0.929 . S
C309 C301 1.433 . S
C309 N311 1.384 . S
N310 C306 1.427 . S
N310 C307 1.384 . S
N311 C303 1.427 . S
N311 C309 1.384 . S
H312 C318 0.930 . S
H313 C322 0.930 . S
H314 C327 0.929 . S
H315 C325 0.929 . S
H316 C320 0.929 . S
H317 C326 0.929 . S
C318 H312 0.930 . S
C318 C319 1.367 . S
C318 C326 1.378 . S
C319 C318 1.367 . S
C319 C327 1.433 . S
C320 H316 0.929 . S
C320 C322 1.378 . S
C320 C324 1.350 . S
C321 C324 1.463 . S
C321 C326 1.350 . S
C321 N329 1.427 . S
C322 H313 0.930 . S
C322 C320 1.378 . S
C322 C323 1.367 . S
C323 C322 1.367 . S
C323 C325 1.433 . S
C324 C320 1.350 . S
C324 C321 1.463 . S
C324 N328 1.427 . S
C325 H315 0.929 . S
C325 C323 1.433 . S
C325 N328 1.384 . S
C326 H317 0.929 . S
C326 C318 1.378 . S
C326 C321 1.350 . S
C327 H314 0.929 . S
C327 C319 1.433 . S
C327 N329 1.384 . S
N328 C324 1.427 . S
N328 C325 1.384 . S
N329 C321 1.427 . S
N329 C327 1.384 . S
H330 C336 0.930 . S
H331 C340 0.930 . S
H332 C345 0.929 . S
H333 C343 0.929 . S
H334 C338 0.929 . S
H335 C344 0.929 . S
C336 H330 0.930 . S
C336 C337 1.367 . S
C336 C344 1.378 . S
C337 C336 1.367 . S
C337 C345 1.433 . S
C338 H334 0.929 . S
C338 C340 1.378 . S
C338 C342 1.350 . S
C339 C342 1.463 . S
C339 C344 1.350 . S
C339 N347 1.427 . S
C340 H331 0.930 . S
C340 C338 1.378 . S
C340 C341 1.367 . S
C341 C340 1.367 . S
C341 C343 1.433 . S
C342 C338 1.350 . S
C342 C339 1.463 . S
C342 N346 1.427 . S
C343 H333 0.929 . S
C343 C341 1.433 . S
C343 N346 1.384 . S
C344 H335 0.929 . S
C344 C336 1.378 . S
C344 C339 1.350 . S
C345 H332 0.929 . S
C345 C337 1.433 . S
C345 N347 1.384 . S
N346 C342 1.427 . S
N346 C343 1.384 . S
N347 C339 1.427 . S
N347 C345 1.384 . S
H348 C354 0.930 . S
H349 C358 0.930 . S
H350 C363 0.929 . S
H351 C361 0.929 . S
H352 C356 0.929 . S
H353 C362 0.929 . S
C354 H348 0.930 . S
C354 C355 1.367 . S
C354 C362 1.378 . S
C355 C354 1.367 . S
C355 C363 1.433 . S
C356 H352 0.929 . S
C356 C358 1.378 . S
C356 C360 1.350 . S
C357 C360 1.463 . S
C357 C362 1.350 . S
C357 N365 1.427 . S
C358 H349 0.930 . S
C358 C356 1.378 . S
C358 C359 1.367 . S
C359 C358 1.367 . S
C359 C361 1.433 . S
C360 C356 1.350 . S
C360 C357 1.463 . S
C360 N364 1.427 . S
C361 H351 0.929 . S
C361 C359 1.433 . S
C361 N364 1.384 . S
C362 H353 0.929 . S
C362 C354 1.378 . S
C362 C357 1.350 . S
C363 H350 0.929 . S
C363 C355 1.433 . S
C363 N365 1.384 . S
N364 C360 1.427 . S
N364 C361 1.384 . S
N365 C357 1.427 . S
N365 C363 1.384 . S
H366 C372 0.930 . S
H367 C376 0.930 . S
H368 C381 0.929 . S
H369 C379 0.929 . S
H370 C374 0.929 . S
H371 C380 0.929 1_554 S
C372 H366 0.930 . S
C372 C373 1.367 . S
C372 C380 1.378 . S
C373 C372 1.367 . S
C373 C381 1.433 . S
C374 H370 0.929 . S
C374 C376 1.378 . S
C374 C378 1.350 . S
C375 C378 1.463 . S
C375 C380 1.350 . S
C375 N383 1.427 . S
C376 H367 0.930 . S
C376 C374 1.378 . S
C376 C377 1.367 . S
C377 C376 1.367 . S
C377 C379 1.433 1_556 S
C378 C374 1.350 . S
C378 C375 1.463 . S
C378 N382 1.427 1_556 S
C379 H369 0.929 . S
C379 C377 1.433 1_554 S
C379 N382 1.384 . S
C380 H371 0.929 1_556 S
C380 C372 1.378 . S
C380 C375 1.350 . S
C381 H368 0.929 . S
C381 C373 1.433 . S
C381 N383 1.384 . S
N382 C378 1.427 1_554 S
N382 C379 1.384 . S
N383 C375 1.427 . S
N383 C381 1.384 . S
H384 C390 0.930 . S
H385 C394 0.930 . S
H386 C399 0.929 . S
H387 C397 0.929 . S
H388 C392 0.929 . S
H389 C398 0.929 . S
C390 H384 0.930 . S
C390 C391 1.367 . S
C390 C398 1.378 . S
C391 C390 1.367 . S
C391 C399 1.433 . S
C392 H388 0.929 . S
C392 C394 1.378 . S
C392 C396 1.350 . S
C393 C396 1.463 . S
C393 C398 1.350 . S
C393 N401 1.427 . S
C394 H385 0.930 . S
C394 C392 1.378 . S
C394 C395 1.367 . S
C395 C394 1.367 . S
C395 C397 1.433 . S
C396 C392 1.350 . S
C396 C393 1.463 . S
C396 N400 1.427 . S
C397 H387 0.929 . S
C397 C395 1.433 . S
C397 N400 1.384 . S
C398 H389 0.929 . S
C398 C390 1.378 . S
C398 C393 1.350 . S
C399 H386 0.929 . S
C399 C391 1.433 . S
C399 N401 1.384 . S
N400 C396 1.427 . S
N400 C397 1.384 . S
N401 C393 1.427 . S
N401 C399 1.384 . S
H402 C408 0.930 . S
H403 C412 0.930 . S
H404 C417 0.929 . S
H405 C415 0.929 . S
H406 C410 0.929 . S
H407 C416 0.929 . S
C408 H402 0.930 . S
C408 C409 1.367 . S
C408 C416 1.378 1_554 S
C409 C408 1.367 . S
C409 C417 1.433 . S
C410 H406 0.929 . S
C410 C412 1.378 . S
C410 C414 1.350 . S
C411 C414 1.463 . S
C411 C416 1.350 . S
C411 N419 1.427 1_556 S
C412 H403 0.930 . S
C412 C410 1.378 . S
C412 C413 1.367 . S
C413 C412 1.367 . S
C413 C415 1.433 . S
C414 C410 1.350 . S
C414 C411 1.463 . S
C414 N418 1.427 . S
C415 H405 0.929 . S
C415 C413 1.433 . S
C415 N418 1.384 . S
C416 H407 0.929 . S
C416 C408 1.378 1_556 S
C416 C411 1.350 . S
C417 H404 0.929 . S
C417 C409 1.433 . S
C417 N419 1.384 . S
N418 C414 1.427 . S
N418 C415 1.384 . S
N419 C411 1.427 1_554 S
N419 C417 1.384 . S
H420 C426 0.930 . S
H421 C430 0.930 . S
H422 C435 0.929 . S
H423 C433 0.929 . S
H424 C428 0.929 . S
H425 C434 0.929 . S
C426 H420 0.930 . S
C426 C427 1.367 . S
C426 C434 1.378 . S
C427 C426 1.367 . S
C427 C435 1.433 . S
C428 H424 0.929 . S
C428 C430 1.378 . S
C428 C432 1.350 . S
C429 C432 1.463 . S
C429 C434 1.350 . S
C429 N437 1.427 . S
C430 H421 0.930 . S
C430 C428 1.378 . S
C430 C431 1.367 . S
C431 C430 1.367 . S
C431 C433 1.433 . S
C432 C428 1.350 . S
C432 C429 1.463 . S
C432 N436 1.427 . S
C433 H423 0.929 . S
C433 C431 1.433 . S
C433 N436 1.384 . S
C434 H425 0.929 . S
C434 C426 1.378 . S
C434 C429 1.350 . S
C435 H422 0.929 . S
C435 C427 1.433 . S
C435 N437 1.384 . S
N436 C432 1.427 . S
N436 C433 1.384 . S
N437 C429 1.427 . S
N437 C435 1.384 . S
H438 C444 0.930 . S
H439 C448 0.930 . S
H440 C453 0.929 . S
H441 C451 0.929 . S
H442 C446 0.929 . S
H443 C452 0.929 . S
C444 H438 0.930 . S
C444 C445 1.367 . S
C444 C452 1.378 . S
C445 C444 1.367 . S
C445 C453 1.433 . S
C446 H442 0.929 . S
C446 C448 1.378 . S
C446 C450 1.350 . S
C447 C450 1.463 . S
C447 C452 1.350 . S
C447 N455 1.427 . S
C448 H439 0.930 . S
C448 C446 1.378 . S
C448 C449 1.367 . S
C449 C448 1.367 . S
C449 C451 1.433 . S
C450 C446 1.350 . S
C450 C447 1.463 . S
C450 N454 1.427 . S
C451 H441 0.929 . S
C451 C449 1.433 . S
C451 N454 1.384 . S
C452 H443 0.929 . S
C452 C444 1.378 . S
C452 C447 1.350 . S
C453 H440 0.929 . S
C453 C445 1.433 . S
C453 N455 1.384 . S
N454 C450 1.427 . S
N454 C451 1.384 . S
N455 C447 1.427 . S
N455 C453 1.384 . S
H456 C462 0.930 . S
H457 C466 0.930 . S
H458 C471 0.929 . S
H459 C469 0.929 . S
H460 C464 0.929 . S
H461 C470 0.929 . S
C462 H456 0.930 . S
C462 C463 1.367 . S
C462 C470 1.378 . S
C463 C462 1.367 . S
C463 C471 1.433 . S
C464 H460 0.929 . S
C464 C466 1.378 . S
C464 C468 1.350 . S
C465 C468 1.463 . S
C465 C470 1.350 . S
C465 N473 1.427 . S
C466 H457 0.930 . S
C466 C464 1.378 . S
C466 C467 1.367 . S
C467 C466 1.367 . S
C467 C469 1.433 . S
C468 C464 1.350 . S
C468 C465 1.463 . S
C468 N472 1.427 . S
C469 H459 0.929 . S
C469 C467 1.433 . S
C469 N472 1.384 . S
C470 H461 0.929 . S
C470 C462 1.378 . S
C470 C465 1.350 . S
C471 H458 0.929 . S
C471 C463 1.433 . S
C471 N473 1.384 . S
N472 C468 1.427 . S
N472 C469 1.384 . S
N473 C465 1.427 . S
N473 C471 1.384 . S
H474 C480 0.930 . S
H475 C484 0.930 . S
H476 C489 0.929 . S
H477 C487 0.929 . S
H478 C482 0.929 . S
H479 C488 0.929 . S
C480 H474 0.930 . S
C480 C481 1.367 . S
C480 C488 1.378 . S
C481 C480 1.367 . S
C481 C489 1.433 . S
C482 H478 0.929 . S
C482 C484 1.378 . S
C482 C486 1.350 . S
C483 C486 1.463 . S
C483 C488 1.350 . S
C483 N491 1.427 . S
C484 H475 0.930 . S
C484 C482 1.378 . S
C484 C485 1.367 . S
C485 C484 1.367 . S
C485 C487 1.433 . S
C486 C482 1.350 . S
C486 C483 1.463 . S
C486 N490 1.427 . S
C487 H477 0.929 . S
C487 C485 1.433 . S
C487 N490 1.384 . S
C488 H479 0.929 . S
C488 C480 1.378 . S
C488 C483 1.350 . S
C489 H476 0.929 . S
C489 C481 1.433 . S
C489 N491 1.384 . S
N490 C486 1.427 . S
N490 C487 1.384 . S
N491 C483 1.427 . S
N491 C489 1.384 . S
H492 C498 0.930 . S
H493 C502 0.930 . S
H494 C507 0.929 . S
H495 C505 0.929 . S
H496 C500 0.929 . S
H497 C506 0.929 . S
C498 H492 0.930 . S
C498 C499 1.367 . S
C498 C506 1.378 . S
C499 C498 1.367 . S
C499 C507 1.433 . S
C500 H496 0.929 . S
C500 C502 1.378 . S
C500 C504 1.350 . S
C501 C504 1.463 1_455 S
C501 C506 1.350 . S
C501 N509 1.427 . S
C502 H493 0.930 . S
C502 C500 1.378 . S
C502 C503 1.367 . S
C503 C502 1.367 . S
C503 C505 1.433 . S
C504 C500 1.350 . S
C504 C501 1.463 1_655 S
C504 N508 1.427 . S
C505 H495 0.929 . S
C505 C503 1.433 . S
C505 N508 1.384 . S
C506 H497 0.929 . S
C506 C498 1.378 . S
C506 C501 1.350 . S
C507 H494 0.929 . S
C507 C499 1.433 . S
C507 N509 1.384 . S
N508 C504 1.427 . S
N508 C505 1.384 . S
N509 C501 1.427 . S
N509 C507 1.384 . S
H510 C516 0.930 1_554 S
H511 C520 0.930 . S
H512 C525 0.929 . S
H513 C523 0.929 . S
H514 C518 0.929 . S
H515 C524 0.929 . S
C516 H510 0.930 1_556 S
C516 C517 1.367 . S
C516 C524 1.378 1_556 S
C517 C516 1.367 . S
C517 C525 1.433 . S
C518 H514 0.929 . S
C518 C520 1.378 . S
C518 C522 1.350 . S
C519 C522 1.463 1_565 S
C519 C524 1.350 . S
C519 N527 1.427 1_554 S
C520 H511 0.930 . S
C520 C518 1.378 . S
C520 C521 1.367 . S
C521 C520 1.367 . S
C521 C523 1.433 . S
C522 C518 1.350 . S
C522 C519 1.463 1_545 S
C522 N526 1.427 . S
C523 H513 0.929 . S
C523 C521 1.433 . S
C523 N526 1.384 . S
C524 H515 0.929 . S
C524 C516 1.378 1_554 S
C524 C519 1.350 . S
C525 H512 0.929 . S
C525 C517 1.433 . S
C525 N527 1.384 . S
N526 C522 1.427 . S
N526 C523 1.384 . S
N527 C519 1.427 1_556 S
N527 C525 1.384 . S
H528 C534 0.930 . S
H529 C538 0.930 . S
H530 C543 0.929 . S
H531 C541 0.929 . S
H532 C536 0.929 . S
H533 C542 0.929 . S
C534 H528 0.930 . S
C534 C535 1.367 . S
C534 C542 1.378 . S
C535 C534 1.367 . S
C535 C543 1.433 . S
C536 H532 0.929 . S
C536 C538 1.378 . S
C536 C540 1.350 . S
C537 C540 1.463 . S
C537 C542 1.350 . S
C537 N545 1.427 . S
C538 H529 0.930 . S
C538 C536 1.378 . S
C538 C539 1.367 . S
C539 C538 1.367 . S
C539 C541 1.433 . S
C540 C536 1.350 . S
C540 C537 1.463 . S
C540 N544 1.427 . S
C541 H531 0.929 . S
C541 C539 1.433 . S
C541 N544 1.384 . S
C542 H533 0.929 . S
C542 C534 1.378 . S
C542 C537 1.350 . S
C543 H530 0.929 . S
C543 C535 1.433 . S
C543 N545 1.384 . S
N544 C540 1.427 . S
N544 C541 1.384 . S
N545 C537 1.427 . S
N545 C543 1.384 . S
H546 C552 0.930 . S
H547 C556 0.930 . S
H548 C561 0.929 . S
H549 C559 0.929 . S
H550 C554 0.929 . S
H551 C560 0.929 . S
C552 H546 0.930 . S
C552 C553 1.367 . S
C552 C560 1.378 . S
C553 C552 1.367 . S
C553 C561 1.433 . S
C554 H550 0.929 . S
C554 C556 1.378 . S
C554 C558 1.350 . S
C555 C558 1.463 1_455 S
C555 C560 1.350 . S
C555 N563 1.427 . S
C556 H547 0.930 . S
C556 C554 1.378 . S
C556 C557 1.367 . S
C557 C556 1.367 . S
C557 C559 1.433 . S
C558 C554 1.350 . S
C558 C555 1.463 1_655 S
C558 N562 1.427 . S
C559 H549 0.929 . S
C559 C557 1.433 . S
C559 N562 1.384 . S
C560 H551 0.929 . S
C560 C552 1.378 . S
C560 C555 1.350 . S
C561 H548 0.929 . S
C561 C553 1.433 . S
C561 N563 1.384 . S
N562 C558 1.427 . S
N562 C559 1.384 . S
N563 C555 1.427 . S
N563 C561 1.384 . S
H564 C570 0.930 . S
H565 C574 0.930 . S
H566 C579 0.929 . S
H567 C577 0.929 . S
H568 C572 0.929 . S
H569 C578 0.929 . S
C570 H564 0.930 . S
C570 C571 1.367 . S
C570 C578 1.378 . S
C571 C570 1.367 . S
C571 C579 1.433 . S
C572 H568 0.929 . S
C572 C574 1.378 . S
C572 C576 1.350 . S
C573 C576 1.463 1_545 S
C573 C578 1.350 . S
C573 N581 1.427 . S
C574 H565 0.930 . S
C574 C572 1.378 . S
C574 C575 1.367 . S
C575 C574 1.367 . S
C575 C577 1.433 . S
C576 C572 1.350 . S
C576 C573 1.463 1_565 S
C576 N580 1.427 . S
C577 H567 0.929 . S
C577 C575 1.433 . S
C577 N580 1.384 . S
C578 H569 0.929 . S
C578 C570 1.378 . S
C578 C573 1.350 . S
C579 H566 0.929 . S
C579 C571 1.433 . S
C579 N581 1.384 . S
N580 C576 1.427 . S
N580 C577 1.384 . S
N581 C573 1.427 . S
N581 C579 1.384 . S
H582 C588 0.930 . S
H583 C592 0.930 . S
H584 C597 0.929 . S
H585 C595 0.929 . S
H586 C590 0.929 . S
H587 C596 0.929 . S
C588 H582 0.930 . S
C588 C589 1.367 . S
C588 C596 1.378 . S
C589 C588 1.367 . S
C589 C597 1.433 . S
C590 H586 0.929 . S
C590 C592 1.378 . S
C590 C594 1.350 . S
C591 C594 1.463 . S
C591 C596 1.350 . S
C591 N599 1.427 . S
C592 H583 0.930 . S
C592 C590 1.378 . S
C592 C593 1.367 . S
C593 C592 1.367 . S
C593 C595 1.433 . S
C594 C590 1.350 . S
C594 C591 1.463 . S
C594 N598 1.427 . S
C595 H585 0.929 . S
C595 C593 1.433 . S
C595 N598 1.384 . S
C596 H587 0.929 . S
C596 C588 1.378 . S
C596 C591 1.350 . S
C597 H584 0.929 . S
C597 C589 1.433 . S
C597 N599 1.384 . S
N598 C594 1.427 . S
N598 C595 1.384 . S
N599 C591 1.427 . S
N599 C597 1.384 . S
C175 C9 1.436 . S
C179 C149 1.430 . S
C193 C163 1.435 . S
C197 C23 1.432 . S
C211 C37 1.425 . S
C215 C93 1.426 . S
C229 C51 1.436 . S
C233 C107 1.430 . S
C247 C65 1.423 . S
C251 C121 1.431 . S
C265 C135 1.436 . S
C269 C79 1.430 1_554 S
C283 C7 1.580 . S
C287 C119 1.574 . S
C301 C21 1.582 . S
C305 C133 1.572 . S
C319 C147 1.574 . S
C323 C35 1.579 . S
C337 C49 1.577 . S
C341 C161 1.576 . S
C355 C63 1.572 . S
C359 C91 1.582 . S
C373 C77 1.572 . S
C377 C105 1.581 1_556 S
C391 C143 1.393 . S
C395 C3 1.391 . S
C409 C17 1.392 . S
C413 C157 1.392 . S
C427 C31 1.391 . S
C431 C87 1.393 1_554 S
C445 C45 1.393 . S
C449 C101 1.391 . S
C463 C115 1.393 . S
C467 C59 1.391 . S
C481 C73 1.392 . S
C485 C129 1.391 . S
C499 C8 1.395 . S
C503 C162 1.395 . S
C517 C92 1.394 . S
C521 C22 1.394 . S
C535 C106 1.393 . S
C539 C36 1.393 . S
C553 C120 1.395 . S
C557 C50 1.395 . S
C571 C134 1.393 . S
C575 C64 1.393 . S
C589 C148 1.398 . S
C593 C78 1.398 . S
