# Generated by pormake.
# Topology wjg, (4)-cn, num edge types: 1
# Building blocks:
#     Node 0, Type 0, BuildingBlock: NAHDIM_clean_sbu_0, # of connection points: 4
#     Node 1, Type 0, BuildingBlock: NAHDIM_clean_sbu_0, # of connection points: 4
#     Node 2, Type 0, BuildingBlock: NAHDIM_clean_sbu_0, # of connection points: 4
#     Node 3, Type 0, BuildingBlock: NAHDIM_clean_sbu_0, # of connection points: 4
#     Node 4, Type 0, BuildingBlock: NAHDIM_clean_sbu_0, # of connection points: 4
#     Node 5, Type 0, BuildingBlock: NAHDIM_clean_sbu_0, # of connection points: 4
#     Node 6, Type 0, BuildingBlock: NAHDIM_clean_sbu_0, # of connection points: 4
#     Node 7, Type 0, BuildingBlock: NAHDIM_clean_sbu_0, # of connection points: 4
#     Node 8, Type 0, BuildingBlock: NAHDIM_clean_sbu_0, # of connection points: 4
#     Node 9, Type 0, BuildingBlock: NAHDIM_clean_sbu_0, # of connection points: 4
#     Node 10, Type 0, BuildingBlock: NAHDIM_clean_sbu_0, # of connection points: 4
#     Node 11, Type 0, BuildingBlock: NAHDIM_clean_sbu_0, # of connection points: 4
#     Edge 12, Type (0, 0), BuildingBlock: MIFKUJ_clean_linker_0, # of connection points: 2
#     Edge 13, Type (0, 0), BuildingBlock: MIFKUJ_clean_linker_0, # of connection points: 2
#     Edge 14, Type (0, 0), BuildingBlock: MIFKUJ_clean_linker_0, # of connection points: 2
#     Edge 15, Type (0, 0), BuildingBlock: MIFKUJ_clean_linker_0, # of connection points: 2
#     Edge 16, Type (0, 0), BuildingBlock: MIFKUJ_clean_linker_0, # of connection points: 2
#     Edge 17, Type (0, 0), BuildingBlock: MIFKUJ_clean_linker_0, # of connection points: 2
#     Edge 18, Type (0, 0), BuildingBlock: MIFKUJ_clean_linker_0, # of connection points: 2
#     Edge 19, Type (0, 0), BuildingBlock: MIFKUJ_clean_linker_0, # of connection points: 2
#     Edge 20, Type (0, 0), BuildingBlock: MIFKUJ_clean_linker_0, # of connection points: 2
#     Edge 21, Type (0, 0), BuildingBlock: MIFKUJ_clean_linker_0, # of connection points: 2
#     Edge 22, Type (0, 0), BuildingBlock: MIFKUJ_clean_linker_0, # of connection points: 2
#     Edge 23, Type (0, 0), BuildingBlock: MIFKUJ_clean_linker_0, # of connection points: 2
#     Edge 24, Type (0, 0), BuildingBlock: MIFKUJ_clean_linker_0, # of connection points: 2
#     Edge 25, Type (0, 0), BuildingBlock: MIFKUJ_clean_linker_0, # of connection points: 2
#     Edge 26, Type (0, 0), BuildingBlock: MIFKUJ_clean_linker_0, # of connection points: 2
#     Edge 27, Type (0, 0), BuildingBlock: MIFKUJ_clean_linker_0, # of connection points: 2
#     Edge 28, Type (0, 0), BuildingBlock: MIFKUJ_clean_linker_0, # of connection points: 2
#     Edge 29, Type (0, 0), BuildingBlock: MIFKUJ_clean_linker_0, # of connection points: 2
#     Edge 30, Type (0, 0), BuildingBlock: MIFKUJ_clean_linker_0, # of connection points: 2
#     Edge 31, Type (0, 0), BuildingBlock: MIFKUJ_clean_linker_0, # of connection points: 2
#     Edge 32, Type (0, 0), BuildingBlock: MIFKUJ_clean_linker_0, # of connection points: 2
#     Edge 33, Type (0, 0), BuildingBlock: MIFKUJ_clean_linker_0, # of connection points: 2
#     Edge 34, Type (0, 0), BuildingBlock: MIFKUJ_clean_linker_0, # of connection points: 2
#     Edge 35, Type (0, 0), BuildingBlock: MIFKUJ_clean_linker_0, # of connection points: 2
# Relax obj value: 0.300
# Max RMSD: 0.132
# Mean RMSD: 0.129
data_MOF--net-wjg--node1-NAHDIM_clean_sbu_0--edge1-MIFKUJ_clean_linker_0
_symmetry_space_group_name_H-M    P1
_symmetry_Int_Tables_number       1
_symmetry_cell_setting            triclinic
loop_
_symmetry_equiv_pos_as_xyz
'x, y, z'
_cell_length_a     44.036805
_cell_length_b     43.982563
_cell_length_c     49.503308
_cell_angle_alpha  90.105782
_cell_angle_beta   89.949064
_cell_angle_gamma 120.01432
loop_
_atom_site_label
_atom_site_type_symbol
_atom_site_fract_x
_atom_site_fract_y
_atom_site_fract_z
_atom_type_partial_charge
C0 C 0.13669 0.38502 0.26074 0.0
O1 O 0.16321 0.37924 0.26086 0.0
O2 O 0.20638 0.46591 0.3032 0.0
Zn3 Zn 0.16766 0.41694 0.31098 0.0
O4 O 0.19045 0.38708 0.3138 0.0
C5 C 0.15534 0.44421 0.3605 0.0
O6 O 0.17276 0.47458 0.34812 0.0
O7 O 0.13226 0.40037 0.28087 0.0
C8 C 0.18411 0.36491 0.3325 0.0
O9 O 0.16 0.35913 0.35061 0.0
C10 C 0.23222 0.47093 0.28862 0.0
O11 O 0.23217 0.44384 0.27735 0.0
O12 O 0.14736 0.41624 0.3475 0.0
C13 C 0.69262 0.10054 0.60967 0.0
O14 O 0.72385 0.12843 0.60702 0.0
O15 O 0.71641 0.16888 0.66068 0.0
Zn16 Zn 0.70986 0.12038 0.66392 0.0
O17 O 0.75808 0.12577 0.66443 0.0
C18 C 0.67345 0.11696 0.71192 0.0
O19 O 0.66074 0.13246 0.69674 0.0
O20 O 0.68025 0.09049 0.63324 0.0
C21 C 0.77575 0.14038 0.68564 0.0
O22 O 0.76115 0.14927 0.70492 0.0
C23 C 0.74404 0.19526 0.65165 0.0
O24 O 0.76956 0.19106 0.64216 0.0
O25 O 0.68885 0.10253 0.70045 0.0
C26 C 0.61333 0.73589 0.93074 0.0
O27 O 0.60745 0.76118 0.92338 0.0
O28 O 0.56531 0.75867 0.98165 0.0
Zn29 Zn 0.6134 0.76447 0.98192 0.0
O30 O 0.647 0.81507 0.97302 0.0
C31 C 0.59755 0.73042 0.03356 0.0
O32 O 0.56983 0.7062 0.02074 0.0
O33 O 0.61714 0.73185 0.95566 0.0
C34 C 0.67484 0.83338 0.98661 0.0
O35 O 0.68345 0.81818 0.00554 0.0
C36 C 0.53735 0.73137 0.97427 0.0
O37 O 0.53899 0.70453 0.96428 0.0
O38 O 0.62137 0.75581 0.02022 0.0
C39 C 0.86945 0.61672 0.26108 0.0
O40 O 0.838 0.61219 0.25681 0.0
O41 O 0.80038 0.57066 0.31029 0.0
Zn42 Zn 0.84662 0.61526 0.31415 0.0
O43 O 0.83757 0.65561 0.31204 0.0
C44 C 0.85855 0.58652 0.36241 0.0
O45 O 0.84834 0.55869 0.34707 0.0
O46 O 0.88013 0.61904 0.28523 0.0
C47 C 0.81937 0.65771 0.33112 0.0
O48 O 0.80797 0.6339 0.3503 0.0
C49 C 0.79687 0.54245 0.3003 0.0
O50 O 0.82438 0.54233 0.29014 0.0
O51 O 0.86351 0.6149 0.35173 0.0
C52 C 0.28259 0.86792 0.59821 0.0
O53 O 0.25704 0.83529 0.59565 0.0
O54 O 0.25353 0.80575 0.65312 0.0
Zn55 Zn 0.2603 0.85465 0.65292 0.0
O56 O 0.2126 0.85046 0.65243 0.0
C57 C 0.29902 0.86542 0.70164 0.0
O58 O 0.31102 0.84739 0.68882 0.0
O59 O 0.28926 0.88226 0.62139 0.0
C60 C 0.1956 0.8401 0.67447 0.0
O61 O 0.2103 0.83385 0.69517 0.0
C62 C 0.22421 0.77839 0.64833 0.0
O63 O 0.19735 0.78168 0.64098 0.0
O64 O 0.2821 0.87678 0.68835 0.0
C65 C 0.38907 0.25518 0.92259 0.0
O66 O 0.3961 0.23052 0.91561 0.0
O67 O 0.44448 0.24558 0.97875 0.0
Zn68 Zn 0.39365 0.23283 0.97628 0.0
O69 O 0.36422 0.18041 0.96927 0.0
C70 C 0.40093 0.26704 0.02778 0.0
O71 O 0.43099 0.29135 0.01774 0.0
O72 O 0.38677 0.2608 0.94748 0.0
C73 C 0.3504 0.15994 0.98934 0.0
O74 O 0.35487 0.1734 0.01368 0.0
C75 C 0.4535 0.23528 -0.00032 0.0
O76 O 0.4296 0.21671 0.01783 0.0
O77 O 0.37956 0.24246 0.01245 0.0
C78 C 0.56771 0.89694 0.37512 0.0
O79 O 0.53827 0.86714 0.37174 0.0
O80 O 0.55258 0.81785 0.34439 0.0
Zn81 Zn 0.59532 0.86519 0.33893 0.0
O82 O 0.63707 0.85984 0.34723 0.0
C83 C 0.56606 0.85948 0.28708 0.0
O84 O 0.53712 0.84734 0.30134 0.0
O85 O 0.59497 0.90217 0.36238 0.0
C86 C 0.66377 0.87253 0.33188 0.0
O87 O 0.66553 0.89232 0.31141 0.0
C88 C 0.55265 0.79302 0.33124 0.0
O89 O 0.58118 0.79931 0.31814 0.0
O90 O 0.5954 0.87422 0.29925 0.0
C91 C 0.7132 0.57353 0.72904 0.0
O92 O 0.7226 0.55037 0.73522 0.0
O93 O 0.75973 0.54151 0.69201 0.0
Zn94 Zn 0.76026 0.58668 0.68485 0.0
O95 O 0.80896 0.6264 0.69267 0.0
C96 C 0.73537 0.55922 0.63149 0.0
O97 O 0.71872 0.5291 0.64431 0.0
O98 O 0.72527 0.59165 0.70767 0.0
C99 C 0.82305 0.65324 0.67744 0.0
O100 O 0.80463 0.65579 0.65762 0.0
C101 C 0.78339 0.5378 0.68033 0.0
O102 O 0.80727 0.56392 0.66593 0.0
O103 O 0.75189 0.58743 0.64506 0.0
C104 C 0.08932 0.70183 0.02955 0.0
O105 O 0.0947 0.7308 0.01768 0.0
O106 O 0.18634 0.70525 0.00173 0.0
Zn107 Zn 0.14623 0.71386 0.99552 0.0
O108 O 0.16532 0.76616 -0.00191 0.0
C109 C 0.11857 0.71676 0.94429 0.0
O110 O 0.1071 0.73447 0.95819 0.0
O111 O 0.10789 0.68841 0.0227 0.0
C112 C 0.18502 0.78492 0.97896 0.0
O113 O 0.193 0.76988 0.95946 0.0
C114 C 0.21267 0.7259 0.01603 0.0
O115 O 0.21243 0.75196 0.02885 0.0
O116 O 0.1307 0.70012 0.95706 0.0
C117 C 0.42697 0.12041 0.39101 0.0
O118 O 0.44892 0.15217 0.39984 0.0
O119 O 0.47552 0.19759 0.35195 0.0
Zn120 Zn 0.42536 0.15969 0.34592 0.0
O121 O 0.39406 0.17947 0.35499 0.0
C122 C 0.44268 0.16539 0.28944 0.0
O123 O 0.4747 0.18474 0.29875 0.0
O124 O 0.41313 0.1167 0.36785 0.0
C125 C 0.40042 0.20646 0.34128 0.0
O126 O 0.42646 0.21903 0.32389 0.0
C127 C 0.48411 0.22355 0.36762 0.0
O128 O 0.46 0.22442 0.38272 0.0
O129 O 0.41763 0.1491 0.30605 0.0
C130 C 0.25863 0.40105 0.729 0.0
O131 O 0.2459 0.42081 0.73735 0.0
O132 O 0.21314 0.4354 0.69292 0.0
Zn133 Zn 0.21317 0.39074 0.68439 0.0
O134 O 0.16487 0.35048 0.69253 0.0
C135 C 0.24083 0.42174 0.63299 0.0
O136 O 0.25824 0.44997 0.648 0.0
O137 O 0.24906 0.38591 0.70617 0.0
C138 C 0.14823 0.32563 0.67579 0.0
O139 O 0.1636 0.32512 0.65318 0.0
C140 C 0.18835 0.43855 0.68278 0.0
O141 O 0.16358 0.41212 0.66915 0.0
O142 O 0.22188 0.3923 0.64443 0.0
C143 C 0.91941 0.29738 0.02488 0.0
O144 O 0.91863 0.27394 0.00795 0.0
O145 O 0.81559 0.28752 0.00533 0.0
Zn146 Zn 0.85486 0.27773 -0.00133 0.0
O147 O 0.83604 0.22617 0.0043 0.0
C148 C 0.8577 0.30301 0.94483 0.0
O149 O 0.84671 0.32242 0.95683 0.0
O150 O 0.89511 0.30491 0.02388 0.0
C151 C 0.81186 0.20568 0.98826 0.0
O152 O 0.80005 0.2192 0.9703 0.0
C153 C 0.79481 0.27478 0.02525 0.0
O154 O 0.80035 0.25628 0.04336 0.0
O155 O 0.86748 0.28565 0.95931 0.0
H156 H 0.29623 0.48827 0.26764 0.0
H157 H 0.3506 0.54458 0.27156 0.0
H158 H 0.29461 0.58919 0.3112 0.0
H159 H 0.24002 0.53291 0.30747 0.0
H160 H 0.34634 0.63522 0.27364 0.0
H161 H 0.3339 0.56104 0.34934 0.0
H162 H 0.32383 0.50613 0.37067 0.0
H163 H 0.41523 0.51607 0.33119 0.0
H164 H 0.4255 0.57078 0.30926 0.0
H165 H 0.48592 0.77722 0.34406 0.0
H166 H 0.43134 0.72335 0.33311 0.0
H167 H 0.49043 0.67961 0.29731 0.0
H168 H 0.54515 0.73338 0.30808 0.0
H169 H 0.43758 0.63319 0.33121 0.0
H170 H 0.45081 0.70745 0.25578 0.0
H171 H 0.45935 0.76064 0.23232 0.0
H172 H 0.36746 0.75075 0.2707 0.0
H173 H 0.35818 0.6974 0.29432 0.0
C174 C 0.29532 0.51018 0.27679 0.0
C175 C 0.26391 0.50606 0.28752 0.0
C176 C 0.32641 0.54229 0.27905 0.0
C177 C 0.32656 0.57078 0.29195 0.0
C178 C 0.29494 0.56741 0.30122 0.0
C179 C 0.26384 0.53523 0.29916 0.0
C180 C 0.36007 0.60313 0.29768 0.0
C181 C 0.36619 0.63493 0.28643 0.0
C182 C 0.38608 0.60242 0.31397 0.0
C183 C 0.38025 0.5698 0.32743 0.0
C184 C 0.35169 0.55137 0.34504 0.0
C185 C 0.34597 0.52031 0.35726 0.0
C186 C 0.36882 0.50757 0.35223 0.0
C187 C 0.39751 0.52594 0.33503 0.0
C188 C 0.40331 0.55699 0.32271 0.0
C189 C 0.48732 0.75601 0.3341 0.0
C190 C 0.51982 0.75947 0.327 0.0
C191 C 0.45613 0.72542 0.32764 0.0
C192 C 0.45694 0.69777 0.31413 0.0
C193 C 0.48933 0.70077 0.30765 0.0
C194 C 0.52052 0.73146 0.31387 0.0
C195 C 0.42396 0.66542 0.30718 0.0
C196 C 0.41786 0.63355 0.31831 0.0
C197 C 0.39804 0.66612 0.29074 0.0
C198 C 0.40399 0.69862 0.27703 0.0
C199 C 0.4326 0.71679 0.25942 0.0
C200 C 0.43753 0.7469 0.24602 0.0
C201 C 0.41412 0.75917 0.25013 0.0
C202 C 0.38562 0.74126 0.26757 0.0
C203 C 0.38043 0.71102 0.2809 0.0
H204 H 0.41801 0.78247 0.23972 0.0
H205 H 0.36434 0.48351 0.3617 0.0
H206 H 0.70019 0.21368 0.67641 0.0
H207 H 0.7084 0.27242 0.68177 0.0
H208 H 0.80542 0.31583 0.63712 0.0
H209 H 0.79784 0.25705 0.63221 0.0
H210 H 0.81317 0.35415 0.68081 0.0
H211 H 0.73034 0.30708 0.60831 0.0
H212 H 0.67616 0.26371 0.58523 0.0
H213 H 0.61418 0.27584 0.64671 0.0
H214 H 0.66801 0.31896 0.67038 0.0
H215 H 0.82887 0.5211 0.65616 0.0
H216 H 0.82344 0.46321 0.65265 0.0
H217 H 0.72909 0.41892 0.70067 0.0
H218 H 0.73408 0.47673 0.70406 0.0
H219 H 0.7206 0.38145 0.65492 0.0
H220 H 0.80473 0.42954 0.72704 0.0
H221 H 0.85951 0.4735 0.74909 0.0
H222 H 0.91983 0.46027 0.68677 0.0
H223 H 0.86538 0.41656 0.66413 0.0
C224 C 0.72317 0.23566 0.66753 0.0
C225 C 0.74826 0.23068 0.65371 0.0
C226 C 0.72777 0.26923 0.67057 0.0
C227 C 0.75727 0.29845 0.65952 0.0
C228 C 0.78242 0.29361 0.64575 0.0
C229 C 0.77796 0.26 0.64286 0.0
C230 C 0.76211 0.3341 0.66283 0.0
C231 C 0.79315 0.36028 0.67479 0.0
C232 C 0.73566 0.34184 0.65549 0.0
C233 C 0.70322 0.31602 0.64124 0.0
C234 C 0.70516 0.30031 0.61702 0.0
C235 C 0.67451 0.2758 0.60381 0.0
C236 C 0.64175 0.26696 0.61453 0.0
C237 C 0.63957 0.28268 0.63845 0.0
C238 C 0.67014 0.30719 0.65175 0.0
C239 C 0.80716 0.49914 0.66624 0.0
C240 C 0.78187 0.50348 0.68036 0.0
C241 C 0.80417 0.46609 0.66427 0.0
C242 C 0.77597 0.43684 0.67653 0.0
C243 C 0.75104 0.4412 0.69107 0.0
C244 C 0.75402 0.47426 0.69307 0.0
C245 C 0.77155 0.40142 0.67303 0.0
C246 C 0.74059 0.3753 0.66096 0.0
C247 C 0.79818 0.39384 0.68011 0.0
C248 C 0.83096 0.42002 0.69375 0.0
C249 C 0.82967 0.43621 0.71792 0.0
C250 C 0.86067 0.46104 0.73055 0.0
C251 C 0.89313 0.46974 0.7193 0.0
C252 C 0.89467 0.45354 0.69544 0.0
C253 C 0.86375 0.42871 0.68272 0.0
H254 H 0.9171 0.48898 0.72911 0.0
H255 H 0.61805 0.24798 0.60428 0.0
H256 H 0.52503 0.7773 0.00264 0.0
H257 H 0.46859 0.77277 0.01231 0.0
H258 H 0.41583 0.67584 0.96731 0.0
H259 H 0.47239 0.68007 0.9575 0.0
H260 H 0.39463 0.72444 0.95407 0.0
H261 H 0.41323 0.67336 0.03412 0.0
H262 H 0.44684 0.67258 0.07367 0.0
H263 H 0.44753 0.76359 0.10596 0.0
H264 H 0.41444 0.76531 0.06636 0.0
H265 H 0.22259 0.67695 0.98968 0.0
H266 H 0.27712 0.67573 0.98505 0.0
H267 H 0.33017 0.76748 0.03584 0.0
H268 H 0.27551 0.76875 0.04085 0.0
H269 H 0.35094 0.7202 0.04726 0.0
H270 H 0.34684 0.78104 0.9685 0.0
H271 H 0.32126 0.7923 0.92816 0.0
H272 H 0.2982 0.69284 0.89471 0.0
H273 H 0.32475 0.68152 0.93461 0.0
C274 C 0.50147 0.75501 0.99473 0.0
C275 C 0.50316 0.72902 0.97926 0.0
C276 C 0.46923 0.75237 0.00046 0.0
C277 C 0.43811 0.72375 0.99083 0.0
C278 C 0.43965 0.698 0.97506 0.0
C279 C 0.47193 0.70047 0.96947 0.0
C280 C 0.40407 0.7215 -0.00359 0.0
C281 C 0.38472 0.72274 0.97442 0.0
C282 C 0.39208 0.72095 0.02306 0.0
C283 C 0.41159 0.71964 0.0471 0.0
C284 C 0.42077 0.69338 0.04954 0.0
C285 C 0.4397 0.69275 0.07199 0.0
C286 C 0.44938 0.71806 0.09229 0.0
C287 C 0.44004 0.74401 0.09021 0.0
C288 C 0.42117 0.74481 0.06777 0.0
C289 C 0.24572 0.69669 0.00012 0.0
C290 C 0.24475 0.72309 0.0155 0.0
C291 C 0.27692 0.69604 -0.00266 0.0
C292 C 0.30777 0.72183 0.00976 0.0
C293 C 0.30663 0.74739 0.02603 0.0
C294 C 0.27538 0.74808 0.02883 0.0
C295 C 0.34139 0.72272 0.00487 0.0
C296 C 0.3607 0.72142 0.02693 0.0
C297 C 0.35399 0.72416 0.97836 0.0
C298 C 0.33734 0.73026 0.95461 0.0
C299 C 0.33608 0.76148 0.95261 0.0
C300 C 0.32151 0.76792 0.92979 0.0
C301 C 0.30764 0.7431 0.90902 0.0
C302 C 0.30879 0.71197 0.91087 0.0
C303 C 0.32383 0.70564 0.93349 0.0
H304 H 0.29621 0.74809 0.89143 0.0
H305 H 0.46405 0.71753 0.10963 0.0
H306 H 0.50558 0.28961 0.38649 0.0
H307 H 0.56029 0.34327 0.37565 0.0
H308 H 0.59642 0.28255 0.33182 0.0
H309 H 0.54166 0.22868 0.34237 0.0
H310 H 0.64909 0.33895 0.36445 0.0
H311 H 0.56082 0.31701 0.29686 0.0
H312 H 0.50248 0.30505 0.28172 0.0
H313 H 0.52047 0.40145 0.31795 0.0
H314 H 0.57868 0.41372 0.33367 0.0
H315 H 0.78238 0.47594 0.28757 0.0
H316 H 0.72949 0.42078 0.29901 0.0
H317 H 0.68357 0.47855 0.33369 0.0
H318 H 0.73604 0.53374 0.32207 0.0
H319 H 0.6358 0.42281 0.30552 0.0
H320 H 0.72114 0.44564 0.37402 0.0
H321 H 0.77876 0.45925 0.39206 0.0
H322 H 0.76605 0.3638 0.35778 0.0
H323 H 0.70849 0.34984 0.33922 0.0
C324 C 0.52542 0.28755 0.375 0.0
C325 C 0.51921 0.25496 0.36508 0.0
C326 C 0.55657 0.31823 0.36875 0.0
C327 C 0.58203 0.31676 0.35267 0.0
C328 C 0.57693 0.28411 0.34419 0.0
C329 C 0.54564 0.25343 0.3502 0.0
C330 C 0.61277 0.34943 0.34306 0.0
C331 C 0.64632 0.35712 0.35128 0.0
C332 C 0.60885 0.37334 0.32641 0.0
C333 C 0.57398 0.36612 0.31667 0.0
C334 C 0.55222 0.33552 0.30178 0.0
C335 C 0.51919 0.3287 0.29307 0.0
C336 C 0.50777 0.35245 0.29894 0.0
C337 C 0.52936 0.38308 0.31345 0.0
C338 C 0.56237 0.38998 0.32225 0.0
C339 C 0.76085 0.47692 0.2973 0.0
C340 C 0.76352 0.50921 0.3041 0.0
C341 C 0.73074 0.44538 0.30395 0.0
C342 C 0.70291 0.44564 0.3176 0.0
C343 C 0.70483 0.4778 0.32326 0.0
C344 C 0.73488 0.50931 0.31663 0.0
C345 C 0.67229 0.41248 0.32687 0.0
C346 C 0.63869 0.40464 0.31859 0.0
C347 C 0.67615 0.38868 0.34377 0.0
C348 C 0.71069 0.39689 0.35497 0.0
C349 C 0.73076 0.4277 0.37013 0.0
C350 C 0.76339 0.43545 0.38049 0.0
C351 C 0.77612 0.41246 0.37599 0.0
C352 C 0.75618 0.38161 0.3612 0.0
C353 C 0.72354 0.37375 0.35077 0.0
H354 H 0.80138 0.4185 0.38402 0.0
H355 H 0.48225 0.3472 0.2922 0.0
H356 H 0.16411 0.71483 0.64371 0.0
H357 H 0.1565 0.65684 0.65263 0.0
H358 H 0.26621 0.70431 0.67293 0.0
H359 H 0.27417 0.76237 0.66364 0.0
H360 H 0.24705 0.64986 0.64029 0.0
H361 H 0.20233 0.66903 0.72412 0.0
H362 H 0.16512 0.68257 0.75332 0.0
H363 H 0.07266 0.59924 0.7164 0.0
H364 H 0.10924 0.58458 0.68745 0.0
H365 H 0.24213 0.50178 0.69991 0.0
H366 H 0.2461 0.55912 0.69645 0.0
H367 H 0.14144 0.51003 0.6636 0.0
H368 H 0.13728 0.45254 0.6667 0.0
H369 H 0.15707 0.56447 0.70321 0.0
H370 H 0.20171 0.54376 0.62132 0.0
H371 H 0.23833 0.52723 0.59431 0.0
H372 H 0.33136 0.61448 0.62732 0.0
H373 H 0.29514 0.63112 0.65485 0.0
C374 C 0.18666 0.71294 0.64998 0.0
C375 C 0.21978 0.7432 0.65284 0.0
C376 C 0.18218 0.67978 0.65534 0.0
C377 C 0.2107 0.67628 0.66379 0.0
C378 C 0.24384 0.70643 0.66648 0.0
C379 C 0.24835 0.73958 0.6611 0.0
C380 C 0.20635 0.6411 0.66874 0.0
C381 C 0.22776 0.63145 0.65438 0.0
C382 C 0.18052 0.61667 0.68655 0.0
C383 C 0.15851 0.62591 0.70348 0.0
C384 C 0.17406 0.65373 0.72212 0.0
C385 C 0.15311 0.66153 0.73868 0.0
C386 C 0.11661 0.64201 0.73655 0.0
C387 C 0.10095 0.61437 0.71802 0.0
C388 C 0.12176 0.60616 0.70165 0.0
C389 C 0.21976 0.50308 0.69229 0.0
C390 C 0.18943 0.47265 0.68348 0.0
C391 C 0.22211 0.53585 0.6903 0.0
C392 C 0.19412 0.53868 0.67966 0.0
C393 C 0.16324 0.50826 0.67194 0.0
C394 C 0.16099 0.4755 0.67365 0.0
C395 C 0.19802 0.57363 0.67501 0.0
C396 C 0.17646 0.58308 0.68926 0.0
C397 C 0.22371 0.59792 0.65712 0.0
C398 C 0.24569 0.58841 0.64033 0.0
C399 C 0.22996 0.55921 0.62295 0.0
C400 C 0.25063 0.54985 0.60753 0.0
C401 C 0.28716 0.56972 0.60915 0.0
C402 C 0.30305 0.59907 0.62612 0.0
C403 C 0.28245 0.60849 0.64162 0.0
H404 H 0.30314 0.56242 0.59722 0.0
H405 H 0.10048 0.64824 0.74929 0.0
H406 H 0.77164 0.30346 0.98733 0.0
H407 H 0.71555 0.30184 0.98626 0.0
H408 H 0.68876 0.25047 0.06389 0.0
H409 H 0.74467 0.2512 0.06482 0.0
H410 H 0.63689 0.21682 0.02975 0.0
H411 H 0.70799 0.33674 0.05591 0.0
H412 H 0.75785 0.39729 0.05354 0.0
H413 H 0.72489 0.40952 0.97468 0.0
H414 H 0.67506 0.34885 0.97641 0.0
H415 H 0.48176 0.22481 0.04518 0.0
H416 H 0.54146 0.23638 0.05183 0.0
H417 H 0.56846 0.27772 0.97096 0.0
H418 H 0.50846 0.26616 0.96406 0.0
H419 H 0.62018 0.3178 0.00882 0.0
H420 H 0.55075 0.19623 0.98252 0.0
H421 H 0.50043 0.13602 0.98587 0.0
H422 H 0.53062 0.1277 0.06676 0.0
H423 H 0.58088 0.18809 0.06402 0.0
C424 C 0.75407 0.29223 0.00439 0.0
C425 C 0.76259 0.27734 0.02615 0.0
C426 C 0.72203 0.2915 0.00379 0.0
C427 C 0.69803 0.2763 0.0251 0.0
C428 C 0.70689 0.26233 0.04722 0.0
C429 C 0.73889 0.26285 0.04776 0.0
C430 C 0.66276 0.27274 0.0233 0.0
C431 C 0.63329 0.23905 0.02569 0.0
C432 C 0.65802 0.30158 0.01732 0.0
C433 C 0.68794 0.33812 0.01621 0.0
C434 C 0.71152 0.35224 0.03797 0.0
C435 C 0.73975 0.38661 0.03676 0.0
C436 C 0.74458 0.40721 0.01395 0.0
C437 C 0.72113 0.39352 0.99233 0.0
C438 C 0.69286 0.35915 0.99343 0.0
C439 C 0.50028 0.23624 0.02873 0.0
C440 C 0.49021 0.24402 0.00391 0.0
C441 C 0.53444 0.24295 0.03262 0.0
C442 C 0.55919 0.25745 0.01176 0.0
C443 C 0.54965 0.26642 0.98727 0.0
C444 C 0.51538 0.25969 0.98334 0.0
C445 C 0.59461 0.26199 0.01526 0.0
C446 C 0.62397 0.29574 0.0131 0.0
C447 C 0.59932 0.23326 0.02159 0.0
C448 C 0.56938 0.19679 0.02315 0.0
C449 C 0.54652 0.18165 0.00108 0.0
C450 C 0.51803 0.14748 0.00286 0.0
C451 C 0.51228 0.12808 0.02654 0.0
C452 C 0.53508 0.14278 0.04845 0.0
C453 C 0.56359 0.17696 0.04678 0.0
H454 H 0.4902 0.10164 0.02788 0.0
H455 H 0.76646 0.43382 0.01305 0.0
H456 H 0.17483 0.31265 0.36737 0.0
H457 H 0.21088 0.28491 0.37134 0.0
H458 H 0.27766 0.35057 0.3071 0.0
H459 H 0.24152 0.37793 0.3027 0.0
H460 H 0.26253 0.2857 0.29926 0.0
H461 H 0.3073 0.36617 0.3742 0.0
H462 H 0.30554 0.39498 0.41651 0.0
H463 H 0.25447 0.29522 0.45679 0.0
H464 H 0.25636 0.26588 0.41476 0.0
H465 H 0.41101 0.26662 0.31744 0.0
H466 H 0.37209 0.29116 0.31774 0.0
H467 H 0.30134 0.20876 0.3713 0.0
H468 H 0.33991 0.18341 0.37064 0.0
H469 H 0.31567 0.27826 0.38555 0.0
H470 H 0.27858 0.20017 0.30905 0.0
H471 H 0.2855 0.17527 0.26637 0.0
H472 H 0.32636 0.27565 0.22792 0.0
H473 H 0.32012 0.30129 0.27049 0.0
C474 C 0.19714 0.32109 0.35404 0.0
C475 C 0.20523 0.34739 0.33465 0.0
C476 C 0.2179 0.30543 0.3565 0.0
C477 C 0.2472 0.31591 0.3397 0.0
C478 C 0.25517 0.34204 0.32026 0.0
C479 C 0.23443 0.35762 0.31775 0.0
C480 C 0.26893 0.2989 0.34162 0.0
C481 C 0.27446 0.28446 0.31808 0.0
C482 C 0.28386 0.29652 0.36627 0.0
C483 C 0.28166 0.31382 0.39131 0.0
C484 C 0.29551 0.35037 0.39204 0.0
C485 C 0.29472 0.36681 0.41601 0.0
C486 C 0.27985 0.34693 0.43931 0.0
C487 C 0.26596 0.31058 0.43872 0.0
C488 C 0.26704 0.29405 0.41488 0.0
C489 C 0.38715 0.25362 0.32926 0.0
C490 C 0.37822 0.22274 0.34365 0.0
C491 C 0.36499 0.26772 0.32943 0.0
C492 C 0.33367 0.25145 0.34424 0.0
C493 C 0.32535 0.22151 0.35963 0.0
C494 C 0.34739 0.20711 0.35923 0.0
C495 C 0.30951 0.26559 0.34316 0.0
C496 C 0.3035 0.27937 0.36681 0.0
C497 C 0.29458 0.26788 0.31851 0.0
C498 C 0.29905 0.25269 0.29302 0.0
C499 C 0.28933 0.21702 0.29157 0.0
C500 C 0.293 0.20274 0.26736 0.0
C501 C 0.30615 0.22382 0.24441 0.0
C502 C 0.31595 0.2593 0.24567 0.0
C503 C 0.31236 0.27372 0.26983 0.0
H504 H 0.30893 0.21271 0.22568 0.0
H505 H 0.27905 0.3597 0.45779 0.0
H506 H 0.81823 0.16749 0.72957 0.0
H507 H 0.88158 0.19188 0.73155 0.0
H508 H 0.88178 0.16253 0.64838 0.0
H509 H 0.8181 0.13755 0.64628 0.0
H510 H 0.92816 0.15284 0.67989 0.0
H511 H 0.89945 0.24348 0.66305 0.0
H512 H 0.86977 0.27731 0.67248 0.0
H513 H 0.92166 0.30897 0.74928 0.0
H514 H 0.95098 0.27454 0.74063 0.0
H515 H 0.10226 0.27592 0.64067 0.0
H516 H 0.03915 0.23794 0.6464 0.0
H517 H 0.04621 0.2787 0.72693 0.0
H518 H 0.10932 0.31745 0.72111 0.0
H519 H 0.99596 0.28047 0.69994 0.0
H520 H 0.02846 0.19341 0.71545 0.0
H521 H 0.0578 0.15927 0.70605 0.0
H522 H -0.00028 0.12122 0.63215 0.0
H523 H 0.97036 0.15552 0.64092 0.0
C524 C 0.83163 0.16577 0.71177 0.0
C525 C 0.81323 0.15099 0.68763 0.0
C526 C 0.86784 0.17974 0.71296 0.0
C527 C 0.88639 0.17951 0.68999 0.0
C528 C 0.8679 0.16301 0.66631 0.0
C529 C 0.83156 0.14886 0.66512 0.0
C530 C 0.92521 0.19889 0.69004 0.0
C531 C 0.94308 0.18079 0.68406 0.0
C532 C 0.94453 0.2352 0.6961 0.0
C533 C 0.92714 0.25615 0.70129 0.0
C534 C 0.90429 0.25739 0.68206 0.0
C535 C 0.88751 0.27665 0.68728 0.0
C536 C 0.8937 0.29513 0.71153 0.0
C537 C 0.91675 0.29446 0.73059 0.0
C538 C 0.93345 0.27507 0.72554 0.0
C539 C 0.0905 0.27648 0.65975 0.0
C540 C 0.11079 0.29982 0.68039 0.0
C541 C 0.0544 0.25459 0.66305 0.0
C542 C 0.03795 0.25525 0.68719 0.0
C543 C 0.05834 0.27776 0.70814 0.0
C544 C 0.09442 0.29984 0.70479 0.0
C545 C -0.00078 0.2345 0.68974 0.0
C546 C 0.98123 0.25242 0.6961 0.0
C547 C 0.9799 0.19806 0.68406 0.0
C548 C 0.99741 0.17727 0.67875 0.0
C549 C 0.02213 0.17797 0.6971 0.0
C550 C 0.03873 0.15855 0.69189 0.0
C551 C 0.03069 0.13814 0.66849 0.0
C552 C 0.00595 0.13705 0.65027 0.0
C553 C 0.98928 0.15644 0.65536 0.0
H554 H 0.04358 0.12313 0.6645 0.0
H555 H 0.88074 0.31007 0.71552 0.0
H556 H 0.83114 0.16899 0.02208 0.0
H557 H 0.81024 0.10592 0.02132 0.0
H558 H 0.74222 0.0931 0.95431 0.0
H559 H 0.7625 0.15587 0.95518 0.0
H560 H 0.70878 0.04292 0.99133 0.0
H561 H 0.81952 0.09392 0.94473 0.0
H562 H 0.88316 0.1338 0.93948 0.0
H563 H 0.90287 0.0869 0.0083 0.0
H564 H 0.83928 0.04703 0.01418 0.0
H565 H 0.66379 0.87305 0.94975 0.0
H566 H 0.69034 0.93686 0.94921 0.0
H567 H 0.75547 0.94513 0.01705 0.0
H568 H 0.72944 0.88129 0.01751 0.0
H569 H 0.79113 0.99757 0.9807 0.0
H570 H 0.68093 0.94674 0.0274 0.0
H571 H 0.61736 0.90682 0.03307 0.0
H572 H 0.59678 0.95376 0.96471 0.0
H573 H 0.66029 0.99363 0.95839 0.0
C574 C 0.81164 0.15271 0.00725 0.0
C575 C 0.79853 0.16744 0.98865 0.0
C576 C 0.79987 0.11672 0.00674 0.0
C577 C 0.77501 0.09491 0.98753 0.0
C578 C 0.76147 0.10947 0.96927 0.0
C579 C 0.77314 0.14538 0.96979 0.0
C580 C 0.76283 0.05683 0.98644 0.0
C581 C 0.72676 0.03303 0.98865 0.0
C582 C 0.78638 0.04393 0.98365 0.0
C583 C 0.82463 0.06774 0.98005 0.0
C584 C 0.83741 0.09229 0.95886 0.0
C585 C 0.87347 0.11486 0.95575 0.0
C586 C 0.89704 0.11295 0.97358 0.0
C587 C 0.88459 0.08838 0.99452 0.0
C588 C 0.84854 0.06577 -0.00226 0.0
C589 C 0.68411 0.88843 0.96433 0.0
C590 C 0.69421 0.87205 0.98388 0.0
C591 C 0.69916 0.92489 0.96405 0.0
C592 C 0.72434 0.94563 0.98345 0.0
C593 C 0.73593 0.92957 0.00201 0.0
C594 C 0.72098 0.89307 0.00225 0.0
C595 C 0.73709 0.98377 0.98528 0.0
C596 C 0.77321 0.00753 0.98333 0.0
C597 C 0.71361 0.9967 0.98838 0.0
C598 C 0.67538 0.97294 0.99227 0.0
C599 C 0.66286 0.94837 0.01345 0.0
C600 C 0.62684 0.92578 0.0168 0.0
C601 C 0.60305 0.92769 -0.00078 0.0
C602 C 0.61524 0.95227 0.97829 0.0
C603 C 0.65124 0.9749 0.97483 0.0
H604 H 0.57517 0.91017 0.00184 0.0
H605 H 0.92495 0.13045 0.97114 0.0
H606 H 0.71849 0.88645 0.29815 0.0
H607 H 0.75473 0.85873 0.29859 0.0
H608 H 0.70279 0.80269 0.3712 0.0
H609 H 0.66672 0.83047 0.37111 0.0
H610 H 0.77302 0.82462 0.37187 0.0
H611 H 0.6746 0.7649 0.31048 0.0
H612 H 0.6379 0.76101 0.27153 0.0
H613 H 0.7265 0.79547 0.21869 0.0
H614 H 0.76375 0.80004 0.25734 0.0
H615 H 0.78149 0.66904 0.36932 0.0
H616 H 0.76485 0.7142 0.36959 0.0
H617 H 0.82053 0.75579 0.29473 0.0
H618 H 0.83696 0.71019 0.29408 0.0
H619 H 0.75632 0.74813 0.29288 0.0
H620 H 0.85302 0.80054 0.3537 0.0
H621 H 0.88918 0.80324 0.39261 0.0
H622 H 0.8045 0.78215 0.44658 0.0
H623 H 0.76761 0.77881 0.40795 0.0
C624 C 0.71521 0.86874 0.3145 0.0
C625 C 0.68942 0.86032 0.33441 0.0
C626 C 0.73587 0.85285 0.31466 0.0
C627 C 0.731 0.82825 0.33467 0.0
C628 C 0.70687 0.82153 0.35552 0.0
C629 C 0.68619 0.83736 0.35538 0.0
C630 C 0.74882 0.80734 0.33284 0.0
C631 C 0.76932 0.80779 0.35467 0.0
C632 C 0.74459 0.78603 0.31009 0.0
C633 C 0.72207 0.78323 0.28685 0.0
C634 C 0.6863 0.77194 0.29058 0.0
C635 C 0.66537 0.76955 0.26853 0.0
C636 C 0.67983 0.77806 0.24262 0.0
C637 C 0.71525 0.78892 0.23872 0.0
C638 C 0.7363 0.79142 0.26069 0.0
C639 C 0.79041 0.68789 0.35296 0.0
C640 C 0.81052 0.68599 0.33165 0.0
C641 C 0.78106 0.71386 0.35325 0.0
C642 C 0.79185 0.73866 0.33237 0.0
C643 C 0.81208 0.73699 0.31111 0.0
C644 C 0.82146 0.71095 0.31078 0.0
C645 C 0.78019 0.76496 0.3321 0.0
C646 C 0.76066 0.76543 0.3099 0.0
C647 C 0.7853 0.78704 0.35454 0.0
C648 C 0.80746 0.78919 0.37788 0.0
C649 C 0.842 0.79622 0.37384 0.0
C650 C 0.86265 0.79791 0.39586 0.0
C651 C 0.84913 0.79281 0.42205 0.0
C652 C 0.81494 0.78609 0.42628 0.0
C653 C 0.79416 0.78434 0.40433 0.0
H654 H 0.86516 0.79412 0.43907 0.0
H655 H 0.66358 0.77614 0.22559 0.0
H656 H 0.15417 0.82023 0.71913 0.0
H657 H 0.09063 0.79482 0.72079 0.0
H658 H 0.08922 0.81423 0.6356 0.0
H659 H 0.15292 0.83862 0.63348 0.0
H660 H 0.04215 0.82826 0.6728 0.0
H661 H 0.07133 0.7405 0.64576 0.0
H662 H 0.10304 0.70778 0.64976 0.0
H663 H 0.05887 0.67178 0.72855 0.0
H664 H 0.02737 0.70493 0.72522 0.0
H665 H 0.86425 0.70517 0.64199 0.0
H666 H 0.92773 0.74343 0.64366 0.0
H667 H 0.93089 0.69848 0.7203 0.0
H668 H 0.86741 0.65932 0.71837 0.0
H669 H 0.9781 0.69946 0.68801 0.0
H670 H 0.94564 0.78414 0.71426 0.0
H671 H 0.91473 0.81773 0.71072 0.0
H672 H 0.96484 0.86005 0.6346 0.0
H673 H 0.99571 0.82634 0.6375 0.0
C674 C 0.14044 0.81927 0.70074 0.0
C675 C 0.1584 0.83058 0.67604 0.0
C676 C 0.1042 0.80502 0.7018 0.0
C677 C 0.08541 0.80244 0.67827 0.0
C678 C 0.10345 0.81607 0.65394 0.0
C679 C 0.13976 0.82989 0.65277 0.0
C680 C 0.04675 0.78231 0.67873 0.0
C681 C 0.02796 0.80006 0.67582 0.0
C682 C 0.02862 0.7457 0.6833 0.0
C683 C 0.04731 0.72553 0.68536 0.0
C684 C 0.06866 0.72592 0.66406 0.0
C685 C 0.08653 0.70723 0.66618 0.0
C686 C 0.08299 0.68773 0.68939 0.0
C687 C 0.06154 0.68687 0.71055 0.0
C688 C 0.04369 0.70563 0.70858 0.0
C689 C 0.87836 0.70375 0.6594 0.0
C690 C 0.86082 0.67913 0.68001 0.0
C691 C 0.91469 0.72578 0.66038 0.0
C692 C 0.9341 0.72406 0.68222 0.0
C693 C 0.91646 0.70024 0.70324 0.0
C694 C 0.88017 0.67794 0.70214 0.0
C695 C 0.97296 0.74529 0.68221 0.0
C696 C 0.99199 0.7277 0.68516 0.0
C697 C 0.99121 0.78205 0.67776 0.0
C698 C 0.97276 0.80246 0.67599 0.0
C699 C 0.94987 0.8004 0.69667 0.0
C700 C 0.93239 0.8195 0.69479 0.0
C701 C 0.93775 0.84094 0.67242 0.0
C702 C 0.96068 0.8434 0.65191 0.0
C703 C 0.97822 0.82434 0.65367 0.0
H704 H 0.92419 0.85571 0.67101 0.0
H705 H 0.09692 0.67337 0.69095 0.0
H706 H 0.33682 0.12183 0.94237 0.0
H707 H 0.30665 0.05768 0.93786 0.0
H708 H 0.2903 0.04709 0.02405 0.0
H709 H 0.31985 0.11069 0.02872 0.0
H710 H 0.31777 0.00728 0.00387 0.0
H711 H 0.22382 0.03043 0.98353 0.0
H712 H 0.1957 0.05825 0.95857 0.0
H713 H 0.20482 0.01222 0.88464 0.0
H714 H 0.23345 0.9845 0.90911 0.0
H715 H 0.19561 0.82851 0.02157 0.0
H716 H 0.22177 0.89247 0.02038 0.0
H717 H 0.23055 0.89097 0.93363 0.0
H718 H 0.20403 0.82698 0.93471 0.0
H719 H 0.20898 0.93699 0.95061 0.0
H720 H 0.30032 0.91213 0.96972 0.0
H721 H 0.32868 0.88368 0.99343 0.0
H722 H 0.32646 0.93319 0.06767 0.0
H723 H 0.29751 0.9615 0.04448 0.0
C724 C 0.32658 0.10579 0.96031 0.0
C725 C 0.33092 0.12136 0.98591 0.0
C726 C 0.30934 0.0692 0.9577 0.0
C727 C 0.29627 0.04772 0.98064 0.0
C728 C 0.30033 0.06322 0.00612 0.0
C729 C 0.31724 0.09963 0.00872 0.0
C730 C 0.27901 0.00903 0.97843 0.0
C731 C 0.29379 0.99188 0.99245 0.0
C732 C 0.24839 0.98912 0.96281 0.0
C733 C 0.23114 0.00573 0.9481 0.0
C734 C 0.22012 0.0265 0.96191 0.0
C735 C 0.20403 0.0422 0.94786 0.0
C736 C 0.19858 0.0371 0.92002 0.0
C737 C 0.20912 0.0162 0.90619 0.0
C738 C 0.22526 0.00048 0.92014 0.0
C739 C 0.20286 0.84184 0.00226 0.0
C740 C 0.19851 0.82302 0.97828 0.0
C741 C 0.21786 0.8783 0.0016 0.0
C742 C 0.22858 0.89643 0.97695 0.0
C743 C 0.22267 0.87747 0.95286 0.0
C744 C 0.20785 0.84103 0.95354 0.0
C745 C 0.24735 0.93528 0.97655 0.0
C746 C 0.23302 0.95243 0.96195 0.0
C747 C 0.27862 0.95529 0.99142 0.0
C748 C 0.29645 0.93869 0.0054 0.0
C749 C 0.30564 0.91675 0.99114 0.0
C750 C 0.32184 0.90067 0.00449 0.0
C751 C 0.32929 0.90656 0.03206 0.0
C752 C 0.32063 0.92863 0.04632 0.0
C753 C 0.30434 0.94472 0.03308 0.0
H754 H 0.34184 0.89408 0.04236 0.0
H755 H 0.18611 0.04927 0.90918 0.0
H756 H 0.97389 0.28549 0.03351 0.0
H757 H 0.01257 0.30288 0.07281 0.0
H758 H 0.96206 0.35711 0.1059 0.0
H759 H 0.92365 0.34038 0.06646 0.0
H760 H 0.03184 0.39384 0.11426 0.0
H761 H 0.9388 0.2752 0.12712 0.0
H762 H 0.90082 0.21291 0.11488 0.0
H763 H 0.99062 0.19907 0.11175 0.0
H764 H 0.02921 0.26144 0.12361 0.0
H765 H 0.08451 0.40023 0.25101 0.0
H766 H 0.04878 0.38708 0.21016 0.0
H767 H 0.1015 0.33597 0.17537 0.0
H768 H 0.13714 0.34878 0.21611 0.0
H769 H 0.03066 0.29808 0.16797 0.0
H770 H 0.12356 0.41726 0.15585 0.0
H771 H 0.16083 0.47948 0.16855 0.0
H772 H 0.0703 0.49214 0.17106 0.0
H773 H 0.0324 0.42982 0.15875 0.0
C774 C 0.97127 0.30148 0.04898 0.0
C775 C 0.94546 0.31125 0.04699 0.0
C776 C 0.9933 0.31126 0.07148 0.0
C777 C 0.9897 0.3307 0.0925 0.0
C778 C 0.96514 0.34196 0.08996 0.0
C779 C 0.94318 0.33231 0.06741 0.0
C780 C 0.01046 0.33797 0.11764 0.0
C781 C 0.03129 0.3729 0.12618 0.0
C782 C 0.01009 0.31064 0.13296 0.0
C783 C 0.98693 0.27307 0.12598 0.0
C784 C 0.95048 0.25893 0.12362 0.0
C785 C 0.92884 0.22361 0.11678 0.0
C786 C 0.94331 0.20207 0.11246 0.0
C787 C 0.97945 0.2158 0.11506 0.0
C788 C 0.00122 0.25113 0.12186 0.0
C789 C 0.08837 0.38603 0.23472 0.0
C790 C 0.11374 0.37566 0.23675 0.0
C791 C 0.06807 0.37871 0.21136 0.0
C792 C 0.07283 0.36093 0.18965 0.0
C793 C 0.09752 0.34981 0.19188 0.0
C794 C 0.1179 0.35722 0.21516 0.0
C795 C 0.05215 0.35394 0.16452 0.0
C796 C 0.03125 0.31903 0.15603 0.0
C797 C 0.05235 0.38128 0.14934 0.0
C798 C 0.0751 0.41878 0.15666 0.0
C799 C 0.11156 0.43323 0.15934 0.0
C800 C 0.13281 0.46854 0.16642 0.0
C801 C 0.11793 0.48973 0.17068 0.0
C802 C 0.08178 0.47568 0.1678 0.0
C803 C 0.06041 0.44038 0.16075 0.0
H804 H 0.13443 0.51705 0.17616 0.0
H805 H 0.92651 0.17473 0.10717 0.0
H806 H 0.62404 0.04785 0.60722 0.0
H807 H 0.59111 0.0159 0.56703 0.0
H808 H 0.68244 0.07791 0.51764 0.0
H809 H 0.71511 0.1105 0.55746 0.0
H810 H 0.6252 0.0683 0.49231 0.0
H811 H 0.66049 0.99495 0.54055 0.0
H812 H 0.66321 0.96223 0.58001 0.0
H813 H 0.55081 0.8999 0.58102 0.0
H814 H 0.54744 0.93258 0.54172 0.0
H815 H 0.62324 0.96221 0.38503 0.0
H816 H 0.63192 -0.00065 0.42419 0.0
H817 H 0.52801 0.92551 0.45268 0.0
H818 H 0.51912 0.88791 0.4135 0.0
H819 H 0.57798 0.9396 0.49024 0.0
H820 H 0.54728 0.00555 0.43235 0.0
H821 H 0.54856 0.03777 0.39131 0.0
H822 H 0.65622 0.11447 0.40652 0.0
H823 H 0.65595 0.08231 0.4473 0.0
C824 C 0.63703 0.05475 0.58777 0.0
C825 C 0.67228 0.08147 0.58553 0.0
C826 C 0.61818 0.03649 0.56483 0.0
C827 C 0.63443 0.04429 0.53938 0.0
C828 C 0.66933 0.07153 0.53706 0.0
C829 C 0.68805 0.08998 0.55989 0.0
C830 C 0.61608 0.02296 0.51527 0.0
C831 C 0.61492 0.04017 0.49175 0.0
C832 C 0.60169 0.9861 0.51486 0.0
C833 C 0.6037 0.96649 0.53846 0.0
C834 C 0.63636 0.97445 0.54933 0.0
C835 C 0.63802 0.95589 0.57163 0.0
C836 C 0.6072 0.92909 0.58308 0.0
C837 C 0.57466 0.92073 0.57218 0.0
C838 C 0.57285 0.93925 0.5499 0.0
C839 C 0.60194 0.95415 0.39933 0.0
C840 C 0.57063 0.92194 0.39632 0.0
C841 C 0.60686 0.97554 0.42163 0.0
C842 C 0.58055 0.96523 0.44127 0.0
C843 C 0.54859 0.93393 0.43768 0.0
C844 C 0.54356 0.91254 0.41527 0.0
C845 C 0.58829 0.9851 0.46692 0.0
C846 C 0.58741 0.9676 0.49082 0.0
C847 C 0.60133 0.02174 0.46747 0.0
C848 C 0.6016 0.04134 0.44293 0.0
C849 C 0.57136 0.0291 0.42684 0.0
C850 C 0.57189 0.0474 0.40362 0.0
C851 C 0.60243 0.07815 0.39633 0.0
C852 C 0.63255 0.09066 0.41222 0.0
C853 C 0.6322 0.07241 0.43542 0.0
H854 H 0.60277 0.0923 0.37836 0.0
H855 H 0.60854 0.91474 0.60034 0.0
H856 H 0.61372 0.74216 0.87586 0.0
H857 H 0.62136 0.70601 0.84213 0.0
H858 H 0.62607 0.64111 0.9054 0.0
H859 H 0.61926 0.6777 0.93934 0.0
H860 H 0.67787 0.65931 0.87144 0.0
H861 H 0.55442 0.61069 0.86266 0.0
H862 H 0.49903 0.61106 0.85676 0.0
H863 H 0.5333 0.65922 0.77892 0.0
H864 H 0.58915 0.65961 0.7845 0.0
H865 H 0.68834 0.54371 0.77844 0.0
H866 H 0.66159 0.56274 0.81286 0.0
H867 H 0.66505 0.64065 0.7582 0.0
H868 H 0.69157 0.62166 0.72353 0.0
H869 H 0.60426 0.60932 0.78956 0.0
H870 H 0.73002 0.66385 0.80154 0.0
H871 H 0.78543 0.66351 0.80759 0.0
H872 H 0.74545 0.60322 0.8803 0.0
H873 H 0.68958 0.60281 0.87446 0.0
C874 C 0.6161 0.72003 0.88261 0.0
C875 C 0.61606 0.71288 0.91027 0.0
C876 C 0.6202 0.69921 0.86328 0.0
C877 C 0.62386 0.67058 0.87122 0.0
C878 C 0.62322 0.66304 0.89882 0.0
C879 C 0.61935 0.68398 0.91818 0.0
C880 C 0.63092 0.65017 0.85083 0.0
C881 C 0.6613 0.64772 0.85385 0.0
C882 C 0.60972 0.63567 0.82758 0.0
C883 C 0.57612 0.63542 0.8241 0.0
C884 C 0.55028 0.62161 0.84437 0.0
C885 C 0.51877 0.62164 0.84107 0.0
C886 C 0.51268 0.63522 0.81751 0.0
C887 C 0.53806 0.64873 0.79717 0.0
C888 C 0.56964 0.64879 0.80037 0.0
C889 C 0.6829 0.56451 0.77355 0.0
C890 C 0.69256 0.58155 0.74839 0.0
C891 C 0.66763 0.57534 0.79326 0.0
C892 C 0.66187 0.60342 0.78816 0.0
C893 C 0.66938 0.61897 0.76251 0.0
C894 C 0.68469 0.60819 0.74278 0.0
C895 C 0.65118 0.6188 0.81024 0.0
C896 C 0.62035 0.62043 0.80744 0.0
C897 C 0.67186 0.63251 0.83378 0.0
C898 C 0.70551 0.63296 0.8374 0.0
C899 C 0.73296 0.6503 0.8187 0.0
C900 C 0.76446 0.65028 0.82211 0.0
C901 C 0.76892 0.63327 0.84427 0.0
C902 C 0.74193 0.61633 0.86312 0.0
C903 C 0.71035 0.61622 0.85978 0.0
H904 H 0.79333 0.63328 0.84688 0.0
H905 H 0.48826 0.63521 0.81499 0.0
H906 H 0.05101 0.72837 0.05222 0.0
H907 H 0.01421 0.70737 0.09246 0.0
H908 H 0.03466 0.62148 0.09904 0.0
H909 H 0.07164 0.64227 0.05861 0.0
H910 H 0.96473 0.60153 0.10919 0.0
H911 H 0.07908 0.68842 0.13832 0.0
H912 H 0.13362 0.74584 0.13762 0.0
H913 H 0.07514 0.79768 0.15506 0.0
H914 H 0.02016 0.74058 0.15546 0.0
H915 H 0.93654 0.62828 0.26269 0.0
H916 H 0.97449 0.63512 0.22431 0.0
H917 H 0.89168 0.61872 0.1693 0.0
H918 H 0.85351 0.61147 0.20743 0.0
H919 H 0.9979 0.68446 0.18632 0.0
H920 H 0.89766 0.57955 0.11203 0.0
H921 H 0.84515 0.52057 0.11387 0.0
H922 H 0.87932 0.50109 0.18979 0.0
H923 H 0.93227 0.55972 0.18823 0.0
C924 C 0.04748 0.70482 0.06203 0.0
C925 C 0.06449 0.68714 0.05236 0.0
C926 C 0.02652 0.69293 0.08506 0.0
C927 C 0.02218 0.6632 0.09886 0.0
C928 C 0.03785 0.64457 0.08867 0.0
C929 C 0.059 0.65654 0.06564 0.0
C930 C 0.00235 0.65258 0.12449 0.0
C931 C 0.97195 0.61953 0.12613 0.0
C932 C 0.01243 0.67582 0.14676 0.0
C933 C 0.04547 0.71023 0.14672 0.0
C934 C 0.07782 0.71208 0.14181 0.0
C935 C 0.10882 0.74457 0.14149 0.0
C936 C 0.10784 0.77539 0.14624 0.0
C937 C 0.07586 0.77378 0.15137 0.0
C938 C 0.04477 0.74136 0.15167 0.0
C939 C 0.92632 0.62584 0.24242 0.0
C940 C 0.89206 0.61946 0.23808 0.0
C941 C 0.94803 0.62976 0.22054 0.0
C942 C 0.93579 0.62711 0.19399 0.0
C943 C 0.90146 0.62028 0.18963 0.0
C944 C 0.87975 0.61638 0.21146 0.0
C945 C 0.95952 0.63378 0.17079 0.0
C946 C 0.99073 0.66621 0.16956 0.0
C947 C 0.95042 0.6097 0.14913 0.0
C948 C 0.91882 0.57418 0.15009 0.0
C949 C 0.89406 0.56262 0.12905 0.0
C950 C 0.8642 0.52926 0.13006 0.0
C951 C 0.85885 0.50714 0.15197 0.0
C952 C 0.88342 0.5183 0.17288 0.0
C953 C 0.91335 0.55162 0.17196 0.0
H954 H 0.83571 0.48133 0.15271 0.0
H955 H 0.13187 0.80052 0.14598 0.0
H956 H 0.4477 0.12033 0.44288 0.0
H957 H 0.42768 0.07022 0.47305 0.0
H958 H 0.36435 0.0007 0.40902 0.0
H959 H 0.38371 0.05098 0.37876 0.0
H960 H 0.32704 0.98848 0.453 0.0
H961 H 0.43763 0.0004 0.43297 0.0
H962 H 0.50161 0.0304 0.42683 0.0
H963 H 0.51682 0.05765 0.511 0.0
H964 H 0.45282 0.02857 0.51756 0.0
H965 H 0.27143 0.84706 0.5453 0.0
H966 H 0.30046 0.88291 0.50553 0.0
H967 H 0.36613 0.97077 0.5571 0.0
H968 H 0.33758 0.93516 0.59691 0.0
H969 H 0.40256 0.96523 0.51387 0.0
H970 H 0.2928 0.96347 0.53053 0.0
H971 H 0.22869 0.93439 0.53664 0.0
H972 H 0.21305 0.88774 0.4579 0.0
H973 H 0.27713 0.91622 0.45148 0.0
C974 C 0.42982 0.09436 0.43507 0.0
C975 C 0.41711 0.08965 0.40848 0.0
C976 C 0.41862 0.06566 0.45231 0.0
C977 C 0.39483 0.03164 0.4432 0.0
C978 C 0.3828 0.02673 0.41642 0.0
C979 C 0.39388 0.05548 0.39918 0.0
C980 C 0.3801 0.00189 0.46245 0.0
C981 C 0.34357 0.98283 0.46582 0.0
C982 C 0.4017 0.99489 0.47951 0.0
C983 C 0.44031 0.01246 0.47571 0.0
C984 C 0.45457 0.01305 0.45015 0.0
C985 C 0.4909 0.02987 0.4466 0.0
C986 C 0.51332 0.04594 0.46851 0.0
C987 C 0.49943 0.0452 0.49404 0.0
C988 C 0.4631 0.02855 0.49768 0.0
C989 C 0.29232 0.8739 0.54819 0.0
C990 C 0.30195 0.88842 0.57424 0.0
C991 C 0.30885 0.8943 0.52545 0.0
C992 C 0.33516 0.92954 0.52842 0.0
C993 C 0.34589 0.9436 0.55441 0.0
C994 C 0.32938 0.92327 0.57712 0.0
C995 C 0.3498 0.95272 0.50465 0.0
C996 C 0.38619 0.97049 0.50053 0.0
C997 C 0.32817 0.95859 0.48685 0.0
C998 C 0.2897 0.94159 0.49067 0.0
C999 C 0.27568 0.94678 0.51462 0.0
C1000 C 0.23936 0.93046 0.51812 0.0
C1001 C 0.21681 0.90913 0.49771 0.0
C1002 C 0.23055 0.90419 0.47372 0.0
C1003 C 0.26685 0.92042 0.47013 0.0
H1004 H 0.18871 0.89652 0.50046 0.0
H1005 H 0.54145 0.05899 0.46574 0.0
H1006 H 0.37931 0.31119 0.93033 0.0
H1007 H 0.36464 0.34202 0.89645 0.0
H1008 H 0.36846 0.27536 0.8341 0.0
H1009 H 0.38386 0.24473 0.86786 0.0
H1010 H 0.39725 0.34296 0.81699 0.0
H1011 H 0.29071 0.25787 0.86067 0.0
H1012 H 0.25191 0.22833 0.89948 0.0
H1013 H 0.25748 0.32508 0.9228 0.0
H1014 H 0.29672 0.35531 0.8843 0.0
H1015 H 0.28615 0.35834 0.71932 0.0
H1016 H 0.31641 0.34055 0.75146 0.0
H1017 H 0.31119 0.40862 0.81185 0.0
H1018 H 0.28064 0.42631 0.77996 0.0
H1019 H 0.28563 0.34307 0.83034 0.0
H1020 H 0.38927 0.42728 0.78419 0.0
H1021 H 0.42747 0.45597 0.74493 0.0
H1022 H 0.4266 0.36039 0.7254 0.0
H1023 H 0.38798 0.33095 0.76434 0.0
C1024 C 0.37727 0.3032 0.90939 0.0
C1025 C 0.38235 0.27523 0.90182 0.0
C1026 C 0.36885 0.32084 0.89006 0.0
C1027 C 0.36492 0.3106 0.86283 0.0
C1028 C 0.3713 0.28361 0.85503 0.0
C1029 C 0.37994 0.26605 0.87436 0.0
C1030 C 0.35237 0.32683 0.84281 0.0
C1031 C 0.37269 0.34273 0.81972 0.0
C1032 C 0.32066 0.32708 0.84669 0.0
C1033 C 0.29693 0.30892 0.86977 0.0
C1034 C 0.28387 0.2729 0.87419 0.0
C1035 C 0.26177 0.25602 0.89611 0.0
C1036 C 0.25231 0.27484 0.91364 0.0
C1037 C 0.26487 0.31055 0.90923 0.0
C1038 C 0.28702 0.32756 0.88736 0.0
C1039 C 0.2919 0.36994 0.73931 0.0
C1040 C 0.2807 0.3935 0.74716 0.0
C1041 C 0.30937 0.35987 0.75761 0.0
C1042 C 0.31612 0.37334 0.78403 0.0
C1043 C 0.30619 0.39789 0.79157 0.0
C1044 C 0.28875 0.40798 0.7733 0.0
C1045 C 0.33053 0.35939 0.80448 0.0
C1046 C 0.31038 0.34367 0.82764 0.0
C1047 C 0.36227 0.35922 0.80054 0.0
C1048 C 0.38544 0.37681 0.77705 0.0
C1049 C 0.39696 0.41228 0.77139 0.0
C1050 C 0.41875 0.4287 0.74922 0.0
C1051 C 0.42938 0.40999 0.73264 0.0
C1052 C 0.41831 0.37483 0.73824 0.0
C1053 C 0.3965 0.35828 0.76037 0.0
H1054 H 0.44627 0.42276 0.71549 0.0
H1055 H 0.2352 0.26173 0.9306 0.0
H1056 H 0.18237 0.49947 0.39598 0.0
H1057 H 0.19344 0.49688 0.4441 0.0
H1058 H 0.13641 0.38377 0.44061 0.0
H1059 H 0.12526 0.38596 0.39261 0.0
H1060 H 0.15426 0.46201 0.49307 0.0
H1061 H 0.19017 0.35828 0.46308 0.0
H1062 H 0.20782 0.33932 0.42182 0.0
H1063 H 0.25961 0.44512 0.39204 0.0
H1064 H 0.24225 0.46465 0.43303 0.0
H1065 H 0.20927 0.36906 0.59572 0.0
H1066 H 0.19386 0.3744 0.54921 0.0
H1067 H 0.24758 0.48709 0.55759 0.0
H1068 H 0.26324 0.48209 0.60405 0.0
H1069 H 0.23157 0.41042 0.50269 0.0
H1070 H 0.19093 0.51322 0.52978 0.0
H1071 H 0.17144 0.53287 0.56954 0.0
H1072 H 0.13002 0.43092 0.60543 0.0
H1073 H 0.14837 0.41038 0.56561 0.0
C1074 C 0.17122 0.47403 0.40561 0.0
C1075 C 0.15359 0.44291 0.39034 0.0
C1076 C 0.17752 0.47263 0.43314 0.0
C1077 C 0.1663 0.44016 0.44565 0.0
C1078 C 0.14561 0.40909 0.43114 0.0
C1079 C 0.13929 0.41042 0.40369 0.0
C1080 C 0.18049 0.43861 0.47233 0.0
C1081 C 0.17146 0.45114 0.49523 0.0
C1082 C 0.20268 0.42413 0.475 0.0
C1083 C 0.21478 0.41284 0.45103 0.0
C1084 C 0.20551 0.37749 0.44779 0.0
C1085 C 0.21528 0.36663 0.4244 0.0
C1086 C 0.2347 0.391 0.40431 0.0
C1087 C 0.24446 0.42627 0.40757 0.0
C1088 C 0.23461 0.43722 0.43083 0.0
C1089 C 0.21841 0.39502 0.5875 0.0
C1090 C 0.23717 0.42513 0.60365 0.0
C1091 C 0.20962 0.39801 0.56092 0.0
C1092 C 0.2191 0.43108 0.55021 0.0
C1093 C 0.23967 0.46131 0.56568 0.0
C1094 C 0.24872 0.45838 0.59218 0.0
C1095 C 0.20528 0.43372 0.52364 0.0
C1096 C 0.21444 0.42139 0.50066 0.0
C1097 C 0.18334 0.44857 0.52098 0.0
C1098 C 0.17144 0.46042 0.54481 0.0
C1099 C 0.17747 0.49494 0.54607 0.0
C1100 C 0.16653 0.5062 0.56859 0.0
C1101 C 0.14953 0.48316 0.58999 0.0
C1102 C 0.14325 0.44876 0.58886 0.0
C1103 C 0.1539 0.43729 0.5663 0.0
H1104 H 0.14118 0.49195 0.60745 0.0
H1105 H 0.24249 0.38265 0.38633 0.0
H1106 H 0.86856 0.2566 0.91534 0.0
H1107 H 0.83878 0.22757 0.87358 0.0
H1108 H 0.79475 0.29563 0.86806 0.0
H1109 H 0.82419 0.32466 0.90999 0.0
H1110 H 0.74473 0.22786 0.86837 0.0
H1111 H 0.852 0.298 0.8213 0.0
H1112 H 0.91478 0.32472 0.81026 0.0
H1113 H 0.90211 0.22247 0.79732 0.0
H1114 H 0.8394 0.19502 0.8089 0.0
H1115 H 0.66233 0.16422 0.73989 0.0
H1116 H 0.69345 0.19595 0.78047 0.0
H1117 H 0.73807 0.12866 0.78852 0.0
H1118 H 0.70721 0.09682 0.74784 0.0
H1119 H 0.78804 0.19739 0.78604 0.0
H1120 H 0.68166 0.12739 0.83539 0.0
H1121 H 0.61854 0.10069 0.84528 0.0
H1122 H 0.62984 0.20313 0.85269 0.0
H1123 H 0.69298 0.23048 0.84248 0.0
C1124 C 0.85343 0.26617 0.90484 0.0
C1125 C 0.84829 0.29259 0.91626 0.0
C1126 C 0.83644 0.24954 0.8809 0.0
C1127 C 0.81429 0.25922 0.86785 0.0
C1128 C 0.81154 0.28759 0.87795 0.0
C1129 C 0.82854 0.30428 0.90187 0.0
C1130 C 0.79056 0.2369 0.84602 0.0
C1131 C 0.75425 0.2217 0.85012 0.0
C1132 C 0.80299 0.22797 0.82267 0.0
C1133 C 0.84099 0.24441 0.81637 0.0
C1134 C 0.86266 0.28115 0.81652 0.0
C1135 C 0.89825 0.29644 0.81011 0.0
C1136 C 0.91247 0.2753 0.80328 0.0
C1137 C 0.8911 0.23881 0.80277 0.0
C1138 C 0.85553 0.22337 0.80928 0.0
C1139 C 0.6778 0.15534 0.75075 0.0
C1140 C 0.68275 0.12835 0.74033 0.0
C1141 C 0.69567 0.17361 0.77396 0.0
C1142 C 0.71841 0.16493 0.78728 0.0
C1143 C 0.7209 0.13598 0.77834 0.0
C1144 C 0.70303 0.11766 0.75518 0.0
C1145 C 0.74237 0.18826 0.80857 0.0
C1146 C 0.77865 0.20362 0.80433 0.0
C1147 C 0.72998 0.19736 0.83179 0.0
C1148 C 0.692 0.18098 0.8379 0.0
C1149 C 0.67064 0.14423 0.83888 0.0
C1150 C 0.63486 0.12898 0.8446 0.0
C1151 C 0.62017 0.1502 0.84954 0.0
C1152 C 0.64125 0.18673 0.84883 0.0
C1153 C 0.67704 0.20212 0.84311 0.0
H1154 H 0.59247 0.13833 0.85397 0.0
H1155 H 0.93999 0.2872 0.7982 0.0
H1156 H 0.6153 0.88811 0.2474 0.0
H1157 H 0.61771 0.85929 0.20574 0.0
H1158 H 0.51806 0.76857 0.2254 0.0
H1159 H 0.51472 0.79785 0.2663 0.0
H1160 H 0.62111 0.80097 0.20239 0.0
H1161 H 0.47782 0.72346 0.1672 0.0
H1162 H 0.42341 0.72648 0.16915 0.0
H1163 H 0.48386 0.83894 0.17398 0.0
H1164 H 0.53862 0.83663 0.17163 0.0
H1165 H 0.54612 0.68655 0.06869 0.0
H1166 H 0.5391 0.69949 0.11559 0.0
H1167 H 0.63891 0.79558 0.11164 0.0
H1168 H 0.64668 0.78225 0.06546 0.0
H1169 H 0.53104 0.75129 0.13022 0.0
H1170 H 0.67487 0.82614 0.16899 0.0
H1171 H 0.72791 0.82068 0.16705 0.0
H1172 H 0.66411 0.70919 0.15623 0.0
H1173 H 0.61068 0.71399 0.15806 0.0
C1174 C 0.59342 0.86249 0.24233 0.0
C1175 C 0.56459 0.84548 0.25979 0.0
C1176 C 0.59495 0.84591 0.21872 0.0
C1177 C 0.56791 0.81188 0.21237 0.0
C1178 C 0.53874 0.79516 0.22952 0.0
C1179 C 0.53684 0.812 0.25285 0.0
C1180 C 0.57132 0.79329 0.18861 0.0
C1181 C 0.60158 0.79041 0.18646 0.0
C1182 C 0.545 0.77789 0.16854 0.0
C1183 C 0.51231 0.77981 0.16957 0.0
C1184 C 0.47949 0.74884 0.16859 0.0
C1185 C 0.4486 0.75042 0.16976 0.0
C1186 C 0.45018 0.78287 0.1718 0.0
C1187 C 0.48267 0.81381 0.17252 0.0
C1188 C 0.51366 0.81238 0.17129 0.0
C1189 C 0.5671 0.70983 0.07814 0.0
C1190 C 0.59681 0.73354 0.06326 0.0
C1191 C 0.56295 0.71728 0.10491 0.0
C1192 C 0.58846 0.74848 0.11722 0.0
C1193 C 0.61913 0.77098 0.10289 0.0
C1194 C 0.62345 0.76341 0.0763 0.0
C1195 C 0.58141 0.75996 0.14352 0.0
C1196 C 0.5504 0.76138 0.14629 0.0
C1197 C 0.60681 0.77365 0.16433 0.0
C1198 C 0.6388 0.77047 0.16354 0.0
C1199 C 0.67216 0.80045 0.16629 0.0
C1200 C 0.70229 0.79749 0.16508 0.0
C1201 C 0.69938 0.76462 0.16147 0.0
C1202 C 0.66633 0.73465 0.15896 0.0
C1203 C 0.63612 0.73749 0.15997 0.0
H1204 H 0.72274 0.76237 0.16067 0.0
H1205 H 0.42623 0.78404 0.17279 0.0
H1206 H 0.87542 0.63806 0.40001 0.0
H1207 H 0.85671 0.63 0.44707 0.0
H1208 H 0.81363 0.51815 0.43906 0.0
H1209 H 0.83203 0.52592 0.39178 0.0
H1210 H 0.76572 0.53389 0.45789 0.0
H1211 H 0.88325 0.56568 0.48011 0.0
H1212 H 0.94778 0.60113 0.47894 0.0
H1213 H 0.94353 0.68966 0.51109 0.0
H1214 H 0.87892 0.6549 0.5121 0.0
H1215 H 0.71859 0.50345 0.59804 0.0
H1216 H 0.74013 0.50567 0.5522 0.0
H1217 H 0.78954 0.61866 0.55292 0.0
H1218 H 0.76863 0.61675 0.59891 0.0
H1219 H 0.83496 0.59815 0.53855 0.0
H1220 H 0.7175 0.56753 0.51354 0.0
H1221 H 0.65293 0.53238 0.51428 0.0
H1222 H 0.65717 0.44181 0.4871 0.0
H1223 H 0.72182 0.47632 0.48655 0.0
C1224 C 0.86279 0.61182 0.40841 0.0
C1225 C 0.85492 0.5826 0.39207 0.0
C1226 C 0.85216 0.60726 0.43537 0.0
C1227 C 0.83368 0.57346 0.44653 0.0
C1228 C 0.82775 0.54444 0.43077 0.0
C1229 C 0.83849 0.54898 0.4038 0.0
C1230 C 0.81753 0.56834 0.47361 0.0
C1231 C 0.78092 0.54737 0.47568 0.0
C1232 C 0.8373 0.58669 0.49658 0.0
C1233 C 0.87619 0.60773 0.49597 0.0
C1234 C 0.89604 0.5928 0.48672 0.0
C1235 C 0.93265 0.61275 0.48613 0.0
C1236 C 0.94974 0.64765 0.49489 0.0
C1237 C 0.93026 0.66264 0.5043 0.0
C1238 C 0.89364 0.6428 0.50492 0.0
C1239 C 0.73336 0.52874 0.58824 0.0
C1240 C 0.7421 0.55995 0.60218 0.0
C1241 C 0.74568 0.52995 0.56202 0.0
C1242 C 0.76657 0.56235 0.5492 0.0
C1243 C 0.77368 0.5934 0.56254 0.0
C1244 C 0.76153 0.59224 0.58876 0.0
C1245 C 0.78311 0.56416 0.52273 0.0
C1246 C 0.81979 0.58446 0.5208 0.0
C1247 C 0.7634 0.54523 0.4999 0.0
C1248 C 0.72452 0.52442 0.5003 0.0
C1249 C 0.70468 0.54004 0.50796 0.0
C1250 C 0.66806 0.52025 0.5083 0.0
C1251 C 0.65096 0.48486 0.50083 0.0
C1252 C 0.67045 0.46921 0.49294 0.0
C1253 C 0.70708 0.48888 0.49259 0.0
H1254 H 0.6226 0.46958 0.50108 0.0
H1255 H 0.97809 0.66305 0.49442 0.0
H1256 H 0.13439 0.68132 0.90659 0.0
H1257 H 0.16932 0.70634 0.8655 0.0
H1258 H 0.16891 0.80292 0.87935 0.0
H1259 H 0.13318 0.77792 0.91973 0.0
H1260 H 0.15936 0.74154 0.81751 0.0
H1261 H 0.26419 0.8673 0.87401 0.0
H1262 H 0.29036 0.88542 0.91933 0.0
H1263 H 0.25837 0.77843 0.9386 0.0
H1264 H 0.23359 0.75987 0.89301 0.0
H1265 H 0.25909 0.88341 0.73269 0.0
H1266 H 0.23279 0.85731 0.77597 0.0
H1267 H 0.29862 0.8109 0.7814 0.0
H1268 H 0.3242 0.83561 0.73726 0.0
H1269 H 0.27988 0.84081 0.83368 0.0
H1270 H 0.2366 0.76094 0.75861 0.0
H1271 H 0.21504 0.7437 0.71217 0.0
H1272 H 0.12481 0.75303 0.73062 0.0
H1273 H 0.14687 0.77234 0.77687 0.0
C1274 C 0.14075 0.70744 0.90033 0.0
C1275 C 0.13102 0.72761 0.91636 0.0
C1276 C 0.16085 0.72173 0.87702 0.0
C1277 C 0.17215 0.75662 0.86986 0.0
C1278 C 0.16066 0.77604 0.88481 0.0
C1279 C 0.13991 0.76152 0.90771 0.0
C1280 C 0.19734 0.77353 0.84757 0.0
C1281 C 0.18573 0.76312 0.82102 0.0
C1282 C 0.23197 0.80127 0.85238 0.0
C1283 C 0.2464 0.81208 0.88012 0.0
C1284 C 0.26287 0.84763 0.88784 0.0
C1285 C 0.27776 0.85804 0.91353 0.0
C1286 C 0.27607 0.8331 0.93183 0.0
C1287 C 0.25968 0.79774 0.9244 0.0
C1288 C 0.24521 0.78725 0.89862 0.0
C1289 C 0.26879 0.86847 0.7433 0.0
C1290 C 0.293 0.86067 0.73111 0.0
C1291 C 0.25365 0.85357 0.76806 0.0
C1292 C 0.26328 0.83162 0.78136 0.0
C1293 C 0.29072 0.82756 0.77112 0.0
C1294 C 0.30532 0.84176 0.74595 0.0
C1295 C 0.24142 0.80955 0.8038 0.0
C1296 C 0.25356 0.81906 0.83029 0.0
C1297 C 0.20744 0.78072 0.79897 0.0
C1298 C 0.19391 0.76896 0.77112 0.0
C1299 C 0.21266 0.76029 0.75262 0.0
C1300 C 0.20035 0.75018 0.72625 0.0
C1301 C 0.16879 0.74771 0.71828 0.0
C1302 C 0.14942 0.75524 0.73673 0.0
C1303 C 0.16195 0.76601 0.76299 0.0
H1304 H 0.15926 0.73976 0.69789 0.0
H1305 H 0.28731 0.84116 0.9518 0.0
H1306 H 0.48663 0.21391 0.25313 0.0
H1307 H 0.47099 0.2281 0.20962 0.0
H1308 H 0.3655 0.14132 0.21795 0.0
H1309 H 0.38069 0.12716 0.26205 0.0
H1310 H 0.39881 0.15216 0.16354 0.0
H1311 H 0.36889 0.20906 0.23089 0.0
H1312 H 0.37614 0.24377 0.27183 0.0
H1313 H 0.46448 0.33322 0.23616 0.0
H1314 H 0.45796 0.29878 0.19492 0.0
H1315 H 0.34395 0.21663 0.05503 0.0
H1316 H 0.34327 0.19724 0.1013 0.0
H1317 H 0.44817 0.28376 0.1135 0.0
H1318 H 0.44917 0.30346 0.06725 0.0
H1319 H 0.4059 0.26837 0.15924 0.0
H1320 H 0.43811 0.20556 0.0937 0.0
H1321 H 0.4285 0.16823 0.05361 0.0
H1322 H 0.33104 0.08819 0.08679 0.0
H1323 H 0.3402 0.1248 0.12722 0.0
C1324 C 0.46026 0.19734 0.24557 0.0
C1325 C 0.43482 0.16951 0.26113 0.0
C1326 C 0.45136 0.20563 0.22075 0.0
C1327 C 0.41704 0.18599 0.21087 0.0
C1328 C 0.39209 0.1568 0.22541 0.0
C1329 C 0.40083 0.14877 0.25053 0.0
C1330 C 0.40719 0.19758 0.18609 0.0
C1331 C 0.39965 0.17722 0.16265 0.0
C1332 C 0.40853 0.23037 0.18508 0.0
C1333 C 0.41311 0.25122 0.2099 0.0
C1334 C 0.39015 0.236 0.23187 0.0
C1335 C 0.39408 0.25566 0.25513 0.0
C1336 C 0.42076 0.29069 0.25664 0.0
C1337 C 0.44375 0.30609 0.23493 0.0
C1338 C 0.43993 0.28651 0.21158 0.0
C1339 C 0.36658 0.23211 0.06774 0.0
C1340 C 0.39688 0.26127 0.05729 0.0
C1341 C 0.36617 0.22084 0.09413 0.0
C1342 C 0.39598 0.23859 0.11051 0.0
C1343 C 0.425 0.26956 0.10104 0.0
C1344 C 0.42548 0.28084 0.0746 0.0
C1345 C 0.39828 0.22332 0.13648 0.0
C1346 C 0.40453 0.24307 0.16018 0.0
C1347 C 0.39534 0.18976 0.13776 0.0
C1348 C 0.38968 0.16801 0.11333 0.0
C1349 C 0.41454 0.18009 0.09235 0.0
C1350 C 0.40922 0.15906 0.06962 0.0
C1351 C 0.37914 0.12601 0.06761 0.0
C1352 C 0.35433 0.11382 0.08838 0.0
C1353 C 0.35962 0.13461 0.11124 0.0
H1354 H 0.37514 0.1098 0.05001 0.0
H1355 H 0.42349 0.30592 0.27459 0.0
loop_
_geom_bond_atom_site_label_1
_geom_bond_atom_site_label_2
_geom_bond_distance
_geom_bond_site_symmetry_2
_ccdc_geom_bond_type
C0 O1 1.160 . S
C0 O7 1.185 . S
O1 C0 1.160 . S
O2 Zn3 1.899 . S
O2 C10 1.284 . S
Zn3 O2 1.899 . S
Zn3 O4 2.032 . S
Zn3 O7 2.086 . S
Zn3 O12 1.977 . S
O4 Zn3 2.032 . S
O4 C8 1.278 . S
C5 O6 1.203 . S
C5 O12 1.267 . S
O6 C5 1.203 . S
O7 C0 1.185 . S
O7 Zn3 2.086 . S
C8 O4 1.278 . S
C8 O9 1.211 . S
O9 C8 1.211 . S
C10 O2 1.284 . S
C10 O11 1.273 . S
O11 C10 1.273 . S
O12 Zn3 1.977 . S
O12 C5 1.267 . S
C13 O14 1.160 . S
C13 O20 1.185 . S
O14 C13 1.160 . S
O15 Zn16 1.899 . S
O15 C23 1.284 . S
Zn16 O15 1.899 . S
Zn16 O17 2.032 . S
Zn16 O20 2.086 . S
Zn16 O25 1.977 . S
O17 Zn16 2.032 . S
O17 C21 1.278 . S
C18 O19 1.203 . S
C18 O25 1.267 . S
O19 C18 1.203 . S
O20 C13 1.185 . S
O20 Zn16 2.086 . S
C21 O17 1.278 . S
C21 O22 1.211 . S
O22 C21 1.211 . S
C23 O15 1.284 . S
C23 O24 1.273 . S
O24 C23 1.273 . S
O25 Zn16 1.977 . S
O25 C18 1.267 . S
C26 O27 1.160 . S
C26 O33 1.185 . S
O27 C26 1.160 . S
O28 Zn29 1.904 . S
O28 C36 1.284 . S
Zn29 O28 1.904 . S
Zn29 O30 2.044 . S
Zn29 O33 2.103 . S
Zn29 O38 1.947 1_556 S
O30 Zn29 2.044 . S
O30 C34 1.278 . S
C31 O32 1.203 . S
C31 O38 1.267 . S
O32 C31 1.203 . S
O33 C26 1.185 . S
O33 Zn29 2.103 . S
C34 O30 1.278 . S
C34 O35 1.211 1_556 S
O35 C34 1.211 1_554 S
C36 O28 1.284 . S
C36 O37 1.273 . S
O37 C36 1.273 . S
O38 Zn29 1.947 1_554 S
O38 C31 1.267 . S
C39 O40 1.160 . S
C39 O46 1.185 . S
O40 C39 1.160 . S
O41 Zn42 1.899 . S
O41 C49 1.284 . S
Zn42 O41 1.899 . S
Zn42 O43 2.032 . S
Zn42 O46 2.086 . S
Zn42 O51 1.977 . S
O43 Zn42 2.032 . S
O43 C47 1.278 . S
C44 O45 1.203 . S
C44 O51 1.267 . S
O45 C44 1.203 . S
O46 C39 1.185 . S
O46 Zn42 2.086 . S
C47 O43 1.278 . S
C47 O48 1.211 . S
O48 C47 1.211 . S
C49 O41 1.284 . S
C49 O50 1.273 . S
O50 C49 1.273 . S
O51 Zn42 1.977 . S
O51 C44 1.267 . S
C52 O53 1.160 . S
C52 O59 1.185 . S
O53 C52 1.160 . S
O54 Zn55 1.899 . S
O54 C62 1.284 . S
Zn55 O54 1.899 . S
Zn55 O56 2.032 . S
Zn55 O59 2.086 . S
Zn55 O64 1.977 . S
O56 Zn55 2.032 . S
O56 C60 1.278 . S
C57 O58 1.203 . S
C57 O64 1.267 . S
O58 C57 1.203 . S
O59 C52 1.185 . S
O59 Zn55 2.086 . S
C60 O56 1.278 . S
C60 O61 1.211 . S
O61 C60 1.211 . S
C62 O54 1.284 . S
C62 O63 1.273 . S
O63 C62 1.273 . S
O64 Zn55 1.977 . S
O64 C57 1.267 . S
C65 O66 1.160 . S
C65 O72 1.185 . S
O66 C65 1.160 . S
O67 Zn68 1.904 . S
O67 C75 1.284 . S
Zn68 O67 1.904 . S
Zn68 O69 2.044 . S
Zn68 O72 2.103 . S
Zn68 O77 1.947 1_556 S
O69 Zn68 2.044 . S
O69 C73 1.278 . S
C70 O71 1.203 . S
C70 O77 1.267 . S
O71 C70 1.203 . S
O72 C65 1.185 . S
O72 Zn68 2.103 . S
C73 O69 1.278 . S
C73 O74 1.211 1_556 S
O74 C73 1.211 1_554 S
C75 O67 1.284 . S
C75 O76 1.273 . S
O76 C75 1.273 . S
O77 Zn68 1.947 1_554 S
O77 C70 1.267 . S
C78 O79 1.160 . S
C78 O85 1.185 . S
O79 C78 1.160 . S
O80 Zn81 1.899 . S
O80 C88 1.284 . S
Zn81 O80 1.899 . S
Zn81 O82 2.032 . S
Zn81 O85 2.086 . S
Zn81 O90 1.977 . S
O82 Zn81 2.032 . S
O82 C86 1.278 . S
C83 O84 1.203 . S
C83 O90 1.267 . S
O84 C83 1.203 . S
O85 C78 1.185 . S
O85 Zn81 2.086 . S
C86 O82 1.278 . S
C86 O87 1.211 . S
O87 C86 1.211 . S
C88 O80 1.284 . S
C88 O89 1.273 . S
O89 C88 1.273 . S
O90 Zn81 1.977 . S
O90 C83 1.267 . S
C91 O92 1.160 . S
C91 O98 1.185 . S
O92 C91 1.160 . S
O93 Zn94 1.899 . S
O93 C101 1.284 . S
Zn94 O93 1.899 . S
Zn94 O95 2.032 . S
Zn94 O98 2.086 . S
Zn94 O103 1.977 . S
O95 Zn94 2.032 . S
O95 C99 1.278 . S
C96 O97 1.203 . S
C96 O103 1.267 . S
O97 C96 1.203 . S
O98 C91 1.185 . S
O98 Zn94 2.086 . S
C99 O95 1.278 . S
C99 O100 1.211 . S
O100 C99 1.211 . S
C101 O93 1.284 . S
C101 O102 1.273 . S
O102 C101 1.273 . S
O103 Zn94 1.977 . S
O103 C96 1.267 . S
C104 O105 1.160 . S
C104 O111 1.185 . S
O105 C104 1.160 . S
O106 Zn107 1.904 . S
O106 C114 1.284 . S
Zn107 O106 1.904 . S
Zn107 O108 2.044 . S
Zn107 O111 2.103 . S
Zn107 O116 1.947 1_554 S
O108 Zn107 2.044 . S
O108 C112 1.278 . S
C109 O110 1.203 . S
C109 O116 1.267 . S
O110 C109 1.203 . S
O111 C104 1.185 . S
O111 Zn107 2.103 . S
C112 O108 1.278 . S
C112 O113 1.211 1_554 S
O113 C112 1.211 1_556 S
C114 O106 1.284 . S
C114 O115 1.273 . S
O115 C114 1.273 . S
O116 Zn107 1.947 1_556 S
O116 C109 1.267 . S
C117 O118 1.160 . S
C117 O124 1.185 . S
O118 C117 1.160 . S
O119 Zn120 1.899 . S
O119 C127 1.284 . S
Zn120 O119 1.899 . S
Zn120 O121 2.032 . S
Zn120 O124 2.086 . S
Zn120 O129 1.977 . S
O121 Zn120 2.032 . S
O121 C125 1.278 . S
C122 O123 1.203 . S
C122 O129 1.267 . S
O123 C122 1.203 . S
O124 C117 1.185 . S
O124 Zn120 2.086 . S
C125 O121 1.278 . S
C125 O126 1.211 . S
O126 C125 1.211 . S
C127 O119 1.284 . S
C127 O128 1.273 . S
O128 C127 1.273 . S
O129 Zn120 1.977 . S
O129 C122 1.267 . S
C130 O131 1.160 . S
C130 O137 1.185 . S
O131 C130 1.160 . S
O132 Zn133 1.899 . S
O132 C140 1.284 . S
Zn133 O132 1.899 . S
Zn133 O134 2.032 . S
Zn133 O137 2.086 . S
Zn133 O142 1.977 . S
O134 Zn133 2.032 . S
O134 C138 1.278 . S
C135 O136 1.203 . S
C135 O142 1.267 . S
O136 C135 1.203 . S
O137 C130 1.185 . S
O137 Zn133 2.086 . S
C138 O134 1.278 . S
C138 O139 1.211 . S
O139 C138 1.211 . S
C140 O132 1.284 . S
C140 O141 1.273 . S
O141 C140 1.273 . S
O142 Zn133 1.977 . S
O142 C135 1.267 . S
C143 O144 1.160 . S
C143 O150 1.185 . S
O144 C143 1.160 . S
O145 Zn146 1.904 . S
O145 C153 1.284 . S
Zn146 O145 1.904 . S
Zn146 O147 2.044 . S
Zn146 O150 2.103 . S
Zn146 O155 1.947 1_554 S
O147 Zn146 2.044 . S
O147 C151 1.278 . S
C148 O149 1.203 . S
C148 O155 1.267 . S
O149 C148 1.203 . S
O150 C143 1.185 . S
O150 Zn146 2.103 . S
C151 O147 1.278 . S
C151 O152 1.211 1_554 S
O152 C151 1.211 1_556 S
C153 O145 1.284 . S
C153 O154 1.273 . S
O154 C153 1.273 . S
O155 Zn146 1.947 1_556 S
O155 C148 1.267 . S
H156 C174 0.951 . S
H157 C176 0.951 . S
H158 C178 0.950 . S
H159 C179 0.950 . S
H160 C181 0.950 . S
H161 C184 0.950 . S
H162 C185 0.950 . S
H163 C187 0.950 . S
H164 C188 0.950 . S
H165 C189 0.951 . S
H166 C191 0.951 . S
H167 C193 0.950 . S
H168 C194 0.950 . S
H169 C196 0.950 . S
H170 C199 0.950 . S
H171 C200 0.950 . S
H172 C202 0.950 . S
H173 C203 0.950 . S
C174 H156 0.951 . S
C174 C175 1.366 . S
C174 C176 1.388 . S
C175 C174 1.366 . S
C175 C179 1.385 . S
C176 H157 0.951 . S
C176 C174 1.388 . S
C176 C177 1.366 . S
C177 C176 1.366 . S
C177 C178 1.414 . S
C177 C180 1.499 . S
C178 H158 0.950 . S
C178 C177 1.414 . S
C178 C179 1.374 . S
C179 H159 0.950 . S
C179 C175 1.385 . S
C179 C178 1.374 . S
C180 C177 1.499 . S
C180 C181 1.373 . S
C180 C182 1.389 . S
C181 H160 0.950 . S
C181 C180 1.373 . S
C181 C197 1.377 . S
C182 C180 1.389 . S
C182 C183 1.524 . S
C182 C196 1.377 . S
C183 C182 1.524 . S
C183 C184 1.397 . S
C183 C188 1.363 . S
C184 H161 0.950 . S
C184 C183 1.397 . S
C184 C185 1.334 . S
C185 H162 0.950 . S
C185 C184 1.334 . S
C185 C186 1.287 . S
C186 C185 1.287 . S
C186 C187 1.524 . S
C186 H205 0.913 . S
C187 H163 0.950 . S
C187 C186 1.524 . S
C187 C188 1.415 . S
C188 H164 0.950 . S
C188 C183 1.363 . S
C188 C187 1.415 . S
C189 H165 0.951 . S
C189 C190 1.366 . S
C189 C191 1.388 . S
C190 C189 1.366 . S
C190 C194 1.385 . S
C191 H166 0.951 . S
C191 C189 1.388 . S
C191 C192 1.366 . S
C192 C191 1.366 . S
C192 C193 1.414 . S
C192 C195 1.499 . S
C193 H167 0.950 . S
C193 C192 1.414 . S
C193 C194 1.374 . S
C194 H168 0.950 . S
C194 C190 1.385 . S
C194 C193 1.374 . S
C195 C192 1.499 . S
C195 C196 1.373 . S
C195 C197 1.389 . S
C196 H169 0.950 . S
C196 C182 1.377 . S
C196 C195 1.373 . S
C197 C181 1.377 . S
C197 C195 1.389 . S
C197 C198 1.524 . S
C198 C197 1.524 . S
C198 C199 1.397 . S
C198 C203 1.363 . S
C199 H170 0.950 . S
C199 C198 1.397 . S
C199 C200 1.334 . S
C200 H171 0.950 . S
C200 C199 1.334 . S
C200 C201 1.287 . S
C201 C200 1.287 . S
C201 C202 1.524 . S
C201 H204 0.999 . S
C202 H172 0.950 . S
C202 C201 1.524 . S
C202 C203 1.415 . S
C203 H173 0.950 . S
C203 C198 1.363 . S
C203 C202 1.415 . S
H204 C201 0.999 . S
H205 C186 0.913 . S
H206 C224 0.951 . S
H207 C226 0.951 . S
H208 C228 0.950 . S
H209 C229 0.950 . S
H210 C231 0.950 . S
H211 C234 0.950 . S
H212 C235 0.950 . S
H213 C237 0.950 . S
H214 C238 0.950 . S
H215 C239 0.951 . S
H216 C241 0.951 . S
H217 C243 0.950 . S
H218 C244 0.950 . S
H219 C246 0.950 . S
H220 C249 0.950 . S
H221 C250 0.950 . S
H222 C252 0.950 . S
H223 C253 0.950 . S
C224 H206 0.951 . S
C224 C225 1.366 . S
C224 C226 1.388 . S
C225 C224 1.366 . S
C225 C229 1.385 . S
C226 H207 0.951 . S
C226 C224 1.388 . S
C226 C227 1.366 . S
C227 C226 1.366 . S
C227 C228 1.414 . S
C227 C230 1.499 . S
C228 H208 0.950 . S
C228 C227 1.414 . S
C228 C229 1.374 . S
C229 H209 0.950 . S
C229 C225 1.385 . S
C229 C228 1.374 . S
C230 C227 1.499 . S
C230 C231 1.373 . S
C230 C232 1.389 . S
C231 H210 0.950 . S
C231 C230 1.373 . S
C231 C247 1.377 . S
C232 C230 1.389 . S
C232 C233 1.524 . S
C232 C246 1.377 . S
C233 C232 1.524 . S
C233 C234 1.397 . S
C233 C238 1.363 . S
C234 H211 0.950 . S
C234 C233 1.397 . S
C234 C235 1.334 . S
C235 H212 0.950 . S
C235 C234 1.334 . S
C235 C236 1.287 . S
C236 C235 1.287 . S
C236 C237 1.524 . S
C236 H255 0.913 . S
C237 H213 0.950 . S
C237 C236 1.524 . S
C237 C238 1.415 . S
C238 H214 0.950 . S
C238 C233 1.363 . S
C238 C237 1.415 . S
C239 H215 0.951 . S
C239 C240 1.366 . S
C239 C241 1.388 . S
C240 C239 1.366 . S
C240 C244 1.385 . S
C241 H216 0.951 . S
C241 C239 1.388 . S
C241 C242 1.366 . S
C242 C241 1.366 . S
C242 C243 1.414 . S
C242 C245 1.499 . S
C243 H217 0.950 . S
C243 C242 1.414 . S
C243 C244 1.374 . S
C244 H218 0.950 . S
C244 C240 1.385 . S
C244 C243 1.374 . S
C245 C242 1.499 . S
C245 C246 1.373 . S
C245 C247 1.389 . S
C246 H219 0.950 . S
C246 C232 1.377 . S
C246 C245 1.373 . S
C247 C231 1.377 . S
C247 C245 1.389 . S
C247 C248 1.524 . S
C248 C247 1.524 . S
C248 C249 1.397 . S
C248 C253 1.363 . S
C249 H220 0.950 . S
C249 C248 1.397 . S
C249 C250 1.334 . S
C250 H221 0.950 . S
C250 C249 1.334 . S
C250 C251 1.287 . S
C251 C250 1.287 . S
C251 C252 1.524 . S
C251 H254 0.999 . S
C252 H222 0.950 . S
C252 C251 1.524 . S
C252 C253 1.415 . S
C253 H223 0.950 . S
C253 C248 1.363 . S
C253 C252 1.415 . S
H254 C251 0.999 . S
H255 C236 0.913 . S
H256 C274 0.951 . S
H257 C276 0.951 . S
H258 C278 0.950 . S
H259 C279 0.950 . S
H260 C281 0.950 . S
H261 C284 0.950 1_556 S
H262 C285 0.950 . S
H263 C287 0.950 . S
H264 C288 0.950 . S
H265 C289 0.951 . S
H266 C291 0.951 . S
H267 C293 0.950 . S
H268 C294 0.950 . S
H269 C296 0.950 . S
H270 C299 0.950 1_554 S
H271 C300 0.950 . S
H272 C302 0.950 . S
H273 C303 0.950 . S
C274 H256 0.951 . S
C274 C275 1.366 1_554 S
C274 C276 1.388 . S
C275 C274 1.366 1_556 S
C275 C279 1.385 . S
C276 H257 0.951 . S
C276 C274 1.388 . S
C276 C277 1.366 1_554 S
C277 C276 1.366 1_556 S
C277 C278 1.414 . S
C277 C280 1.499 . S
C278 H258 0.950 . S
C278 C277 1.414 . S
C278 C279 1.374 . S
C279 H259 0.950 . S
C279 C275 1.385 . S
C279 C278 1.374 . S
C280 C277 1.499 . S
C280 C281 1.373 . S
C280 C282 1.389 1_556 S
C281 H260 0.950 . S
C281 C280 1.373 . S
C281 C297 1.377 . S
C282 C280 1.389 1_554 S
C282 C283 1.524 . S
C282 C296 1.377 . S
C283 C282 1.524 . S
C283 C284 1.397 . S
C283 C288 1.363 . S
C284 H261 0.950 1_554 S
C284 C283 1.397 . S
C284 C285 1.334 . S
C285 H262 0.950 . S
C285 C284 1.334 . S
C285 C286 1.287 . S
C286 C285 1.287 . S
C286 C287 1.524 . S
C286 H305 0.913 . S
C287 H263 0.950 . S
C287 C286 1.524 . S
C287 C288 1.415 . S
C288 H264 0.950 . S
C288 C283 1.363 . S
C288 C287 1.415 . S
C289 H265 0.951 . S
C289 C290 1.366 1_556 S
C289 C291 1.388 . S
C290 C289 1.366 1_554 S
C290 C294 1.385 . S
C291 H266 0.951 . S
C291 C289 1.388 . S
C291 C292 1.366 1_556 S
C292 C291 1.366 1_554 S
C292 C293 1.414 . S
C292 C295 1.499 . S
C293 H267 0.950 . S
C293 C292 1.414 . S
C293 C294 1.374 . S
C294 H268 0.950 . S
C294 C290 1.385 . S
C294 C293 1.374 . S
C295 C292 1.499 . S
C295 C296 1.373 . S
C295 C297 1.389 1_554 S
C296 H269 0.950 . S
C296 C282 1.377 . S
C296 C295 1.373 . S
C297 C281 1.377 . S
C297 C295 1.389 1_556 S
C297 C298 1.524 . S
C298 C297 1.524 . S
C298 C299 1.397 . S
C298 C303 1.363 . S
C299 H270 0.950 1_556 S
C299 C298 1.397 . S
C299 C300 1.334 . S
C300 H271 0.950 . S
C300 C299 1.334 . S
C300 C301 1.287 . S
C301 C300 1.287 . S
C301 C302 1.524 . S
C301 H304 0.999 . S
C302 H272 0.950 . S
C302 C301 1.524 . S
C302 C303 1.415 . S
C303 H273 0.950 . S
C303 C298 1.363 . S
C303 C302 1.415 . S
H304 C301 0.999 . S
H305 C286 0.913 . S
H306 C324 0.951 . S
H307 C326 0.951 . S
H308 C328 0.950 . S
H309 C329 0.950 . S
H310 C331 0.950 . S
H311 C334 0.950 . S
H312 C335 0.950 . S
H313 C337 0.950 . S
H314 C338 0.950 . S
H315 C339 0.951 . S
H316 C341 0.951 . S
H317 C343 0.950 . S
H318 C344 0.950 . S
H319 C346 0.950 . S
H320 C349 0.950 . S
H321 C350 0.950 . S
H322 C352 0.950 . S
H323 C353 0.950 . S
C324 H306 0.951 . S
C324 C325 1.366 . S
C324 C326 1.388 . S
C325 C324 1.366 . S
C325 C329 1.385 . S
C326 H307 0.951 . S
C326 C324 1.388 . S
C326 C327 1.366 . S
C327 C326 1.366 . S
C327 C328 1.414 . S
C327 C330 1.499 . S
C328 H308 0.950 . S
C328 C327 1.414 . S
C328 C329 1.374 . S
C329 H309 0.950 . S
C329 C325 1.385 . S
C329 C328 1.374 . S
C330 C327 1.499 . S
C330 C331 1.373 . S
C330 C332 1.389 . S
C331 H310 0.950 . S
C331 C330 1.373 . S
C331 C347 1.377 . S
C332 C330 1.389 . S
C332 C333 1.524 . S
C332 C346 1.377 . S
C333 C332 1.524 . S
C333 C334 1.397 . S
C333 C338 1.363 . S
C334 H311 0.950 . S
C334 C333 1.397 . S
C334 C335 1.334 . S
C335 H312 0.950 . S
C335 C334 1.334 . S
C335 C336 1.287 . S
C336 C335 1.287 . S
C336 C337 1.524 . S
C336 H355 0.913 . S
C337 H313 0.950 . S
C337 C336 1.524 . S
C337 C338 1.415 . S
C338 H314 0.950 . S
C338 C333 1.363 . S
C338 C337 1.415 . S
C339 H315 0.951 . S
C339 C340 1.366 . S
C339 C341 1.388 . S
C340 C339 1.366 . S
C340 C344 1.385 . S
C341 H316 0.951 . S
C341 C339 1.388 . S
C341 C342 1.366 . S
C342 C341 1.366 . S
C342 C343 1.414 . S
C342 C345 1.499 . S
C343 H317 0.950 . S
C343 C342 1.414 . S
C343 C344 1.374 . S
C344 H318 0.950 . S
C344 C340 1.385 . S
C344 C343 1.374 . S
C345 C342 1.499 . S
C345 C346 1.373 . S
C345 C347 1.389 . S
C346 H319 0.950 . S
C346 C332 1.377 . S
C346 C345 1.373 . S
C347 C331 1.377 . S
C347 C345 1.389 . S
C347 C348 1.524 . S
C348 C347 1.524 . S
C348 C349 1.397 . S
C348 C353 1.363 . S
C349 H320 0.950 . S
C349 C348 1.397 . S
C349 C350 1.334 . S
C350 H321 0.950 . S
C350 C349 1.334 . S
C350 C351 1.287 . S
C351 C350 1.287 . S
C351 C352 1.524 . S
C351 H354 0.999 . S
C352 H322 0.950 . S
C352 C351 1.524 . S
C352 C353 1.415 . S
C353 H323 0.950 . S
C353 C348 1.363 . S
C353 C352 1.415 . S
H354 C351 0.999 . S
H355 C336 0.913 . S
H356 C374 0.951 . S
H357 C376 0.951 . S
H358 C378 0.950 . S
H359 C379 0.950 . S
H360 C381 0.950 . S
H361 C384 0.950 . S
H362 C385 0.950 . S
H363 C387 0.950 . S
H364 C388 0.950 . S
H365 C389 0.951 . S
H366 C391 0.951 . S
H367 C393 0.950 . S
H368 C394 0.950 . S
H369 C396 0.950 . S
H370 C399 0.950 . S
H371 C400 0.950 . S
H372 C402 0.950 . S
H373 C403 0.950 . S
C374 H356 0.951 . S
C374 C375 1.366 . S
C374 C376 1.388 . S
C375 C374 1.366 . S
C375 C379 1.385 . S
C376 H357 0.951 . S
C376 C374 1.388 . S
C376 C377 1.366 . S
C377 C376 1.366 . S
C377 C378 1.414 . S
C377 C380 1.499 . S
C378 H358 0.950 . S
C378 C377 1.414 . S
C378 C379 1.374 . S
C379 H359 0.950 . S
C379 C375 1.385 . S
C379 C378 1.374 . S
C380 C377 1.499 . S
C380 C381 1.373 . S
C380 C382 1.389 . S
C381 H360 0.950 . S
C381 C380 1.373 . S
C381 C397 1.377 . S
C382 C380 1.389 . S
C382 C383 1.524 . S
C382 C396 1.377 . S
C383 C382 1.524 . S
C383 C384 1.397 . S
C383 C388 1.363 . S
C384 H361 0.950 . S
C384 C383 1.397 . S
C384 C385 1.334 . S
C385 H362 0.950 . S
C385 C384 1.334 . S
C385 C386 1.287 . S
C386 C385 1.287 . S
C386 C387 1.524 . S
C386 H405 0.913 . S
C387 H363 0.950 . S
C387 C386 1.524 . S
C387 C388 1.415 . S
C388 H364 0.950 . S
C388 C383 1.363 . S
C388 C387 1.415 . S
C389 H365 0.951 . S
C389 C390 1.366 . S
C389 C391 1.388 . S
C390 C389 1.366 . S
C390 C394 1.385 . S
C391 H366 0.951 . S
C391 C389 1.388 . S
C391 C392 1.366 . S
C392 C391 1.366 . S
C392 C393 1.414 . S
C392 C395 1.499 . S
C393 H367 0.950 . S
C393 C392 1.414 . S
C393 C394 1.374 . S
C394 H368 0.950 . S
C394 C390 1.385 . S
C394 C393 1.374 . S
C395 C392 1.499 . S
C395 C396 1.373 . S
C395 C397 1.389 . S
C396 H369 0.950 . S
C396 C382 1.377 . S
C396 C395 1.373 . S
C397 C381 1.377 . S
C397 C395 1.389 . S
C397 C398 1.524 . S
C398 C397 1.524 . S
C398 C399 1.397 . S
C398 C403 1.363 . S
C399 H370 0.950 . S
C399 C398 1.397 . S
C399 C400 1.334 . S
C400 H371 0.950 . S
C400 C399 1.334 . S
C400 C401 1.287 . S
C401 C400 1.287 . S
C401 C402 1.524 . S
C401 H404 0.999 . S
C402 H372 0.950 . S
C402 C401 1.524 . S
C402 C403 1.415 . S
C403 H373 0.950 . S
C403 C398 1.363 . S
C403 C402 1.415 . S
H404 C401 0.999 . S
H405 C386 0.913 . S
H406 C424 0.951 . S
H407 C426 0.951 . S
H408 C428 0.950 . S
H409 C429 0.950 . S
H410 C431 0.950 . S
H411 C434 0.950 . S
H412 C435 0.950 . S
H413 C437 0.950 . S
H414 C438 0.950 . S
H415 C439 0.951 . S
H416 C441 0.951 . S
H417 C443 0.950 . S
H418 C444 0.950 . S
H419 C446 0.950 . S
H420 C449 0.950 . S
H421 C450 0.950 . S
H422 C452 0.950 . S
H423 C453 0.950 . S
C424 H406 0.951 . S
C424 C425 1.366 1_556 S
C424 C426 1.388 . S
C425 C424 1.366 1_554 S
C425 C429 1.385 . S
C426 H407 0.951 . S
C426 C424 1.388 . S
C426 C427 1.366 1_556 S
C427 C426 1.366 1_554 S
C427 C428 1.414 . S
C427 C430 1.499 . S
C428 H408 0.950 . S
C428 C427 1.414 . S
C428 C429 1.374 . S
C429 H409 0.950 . S
C429 C425 1.385 . S
C429 C428 1.374 . S
C430 C427 1.499 . S
C430 C431 1.373 . S
C430 C432 1.389 . S
C431 H410 0.950 . S
C431 C430 1.373 . S
C431 C447 1.377 . S
C432 C430 1.389 . S
C432 C433 1.524 . S
C432 C446 1.377 1_554 S
C433 C432 1.524 . S
C433 C434 1.397 . S
C433 C438 1.363 1_554 S
C434 H411 0.950 . S
C434 C433 1.397 . S
C434 C435 1.334 . S
C435 H412 0.950 . S
C435 C434 1.334 . S
C435 C436 1.287 . S
C436 C435 1.287 . S
C436 C437 1.524 1_554 S
C436 H455 0.913 . S
C437 H413 0.950 . S
C437 C436 1.524 1_556 S
C437 C438 1.415 . S
C438 H414 0.950 . S
C438 C433 1.363 1_556 S
C438 C437 1.415 . S
C439 H415 0.951 . S
C439 C440 1.366 1_554 S
C439 C441 1.388 . S
C440 C439 1.366 1_556 S
C440 C444 1.385 . S
C441 H416 0.951 . S
C441 C439 1.388 . S
C441 C442 1.366 1_554 S
C442 C441 1.366 1_556 S
C442 C443 1.414 . S
C442 C445 1.499 . S
C443 H417 0.950 . S
C443 C442 1.414 . S
C443 C444 1.374 . S
C444 H418 0.950 . S
C444 C440 1.385 . S
C444 C443 1.374 . S
C445 C442 1.499 . S
C445 C446 1.373 . S
C445 C447 1.389 1_556 S
C446 H419 0.950 . S
C446 C432 1.377 1_556 S
C446 C445 1.373 . S
C447 C431 1.377 . S
C447 C445 1.389 1_554 S
C447 C448 1.524 1_554 S
C448 C447 1.524 1_556 S
C448 C449 1.397 . S
C448 C453 1.363 1_556 S
C449 H420 0.950 . S
C449 C448 1.397 . S
C449 C450 1.334 . S
C450 H421 0.950 . S
C450 C449 1.334 . S
C450 C451 1.287 . S
C451 C450 1.287 . S
C451 C452 1.524 1_556 S
C451 H454 0.999 . S
C452 H422 0.950 . S
C452 C451 1.524 1_554 S
C452 C453 1.415 . S
C453 H423 0.950 . S
C453 C448 1.363 1_554 S
C453 C452 1.415 . S
H454 C451 0.999 . S
H455 C436 0.913 . S
H456 C474 0.951 . S
H457 C476 0.951 . S
H458 C478 0.950 . S
H459 C479 0.950 . S
H460 C481 0.950 . S
H461 C484 0.950 . S
H462 C485 0.950 . S
H463 C487 0.950 . S
H464 C488 0.950 . S
H465 C489 0.951 . S
H466 C491 0.951 . S
H467 C493 0.950 . S
H468 C494 0.950 . S
H469 C496 0.950 . S
H470 C499 0.950 . S
H471 C500 0.950 . S
H472 C502 0.950 . S
H473 C503 0.950 . S
C474 H456 0.951 . S
C474 C475 1.366 . S
C474 C476 1.388 . S
C475 C474 1.366 . S
C475 C479 1.385 . S
C476 H457 0.951 . S
C476 C474 1.388 . S
C476 C477 1.366 . S
C477 C476 1.366 . S
C477 C478 1.414 . S
C477 C480 1.499 . S
C478 H458 0.950 . S
C478 C477 1.414 . S
C478 C479 1.374 . S
C479 H459 0.950 . S
C479 C475 1.385 . S
C479 C478 1.374 . S
C480 C477 1.499 . S
C480 C481 1.373 . S
C480 C482 1.389 . S
C481 H460 0.950 . S
C481 C480 1.373 . S
C481 C497 1.377 . S
C482 C480 1.389 . S
C482 C483 1.524 . S
C482 C496 1.377 . S
C483 C482 1.524 . S
C483 C484 1.397 . S
C483 C488 1.363 . S
C484 H461 0.950 . S
C484 C483 1.397 . S
C484 C485 1.334 . S
C485 H462 0.950 . S
C485 C484 1.334 . S
C485 C486 1.287 . S
C486 C485 1.287 . S
C486 C487 1.524 . S
C486 H505 0.913 . S
C487 H463 0.950 . S
C487 C486 1.524 . S
C487 C488 1.415 . S
C488 H464 0.950 . S
C488 C483 1.363 . S
C488 C487 1.415 . S
C489 H465 0.951 . S
C489 C490 1.366 . S
C489 C491 1.388 . S
C490 C489 1.366 . S
C490 C494 1.385 . S
C491 H466 0.951 . S
C491 C489 1.388 . S
C491 C492 1.366 . S
C492 C491 1.366 . S
C492 C493 1.414 . S
C492 C495 1.499 . S
C493 H467 0.950 . S
C493 C492 1.414 . S
C493 C494 1.374 . S
C494 H468 0.950 . S
C494 C490 1.385 . S
C494 C493 1.374 . S
C495 C492 1.499 . S
C495 C496 1.373 . S
C495 C497 1.389 . S
C496 H469 0.950 . S
C496 C482 1.377 . S
C496 C495 1.373 . S
C497 C481 1.377 . S
C497 C495 1.389 . S
C497 C498 1.524 . S
C498 C497 1.524 . S
C498 C499 1.397 . S
C498 C503 1.363 . S
C499 H470 0.950 . S
C499 C498 1.397 . S
C499 C500 1.334 . S
C500 H471 0.950 . S
C500 C499 1.334 . S
C500 C501 1.287 . S
C501 C500 1.287 . S
C501 C502 1.524 . S
C501 H504 0.999 . S
C502 H472 0.950 . S
C502 C501 1.524 . S
C502 C503 1.415 . S
C503 H473 0.950 . S
C503 C498 1.363 . S
C503 C502 1.415 . S
H504 C501 0.999 . S
H505 C486 0.913 . S
H506 C524 0.951 . S
H507 C526 0.951 . S
H508 C528 0.950 . S
H509 C529 0.950 . S
H510 C531 0.950 . S
H511 C534 0.950 . S
H512 C535 0.950 . S
H513 C537 0.950 . S
H514 C538 0.950 . S
H515 C539 0.951 . S
H516 C541 0.951 . S
H517 C543 0.950 . S
H518 C544 0.950 . S
H519 C546 0.950 . S
H520 C549 0.950 . S
H521 C550 0.950 . S
H522 C552 0.950 . S
H523 C553 0.950 . S
C524 H506 0.951 . S
C524 C525 1.366 . S
C524 C526 1.388 . S
C525 C524 1.366 . S
C525 C529 1.385 . S
C526 H507 0.951 . S
C526 C524 1.388 . S
C526 C527 1.366 . S
C527 C526 1.366 . S
C527 C528 1.414 . S
C527 C530 1.499 . S
C528 H508 0.950 . S
C528 C527 1.414 . S
C528 C529 1.374 . S
C529 H509 0.950 . S
C529 C525 1.385 . S
C529 C528 1.374 . S
C530 C527 1.499 . S
C530 C531 1.373 . S
C530 C532 1.389 . S
C531 H510 0.950 . S
C531 C530 1.373 . S
C531 C547 1.377 1_655 S
C532 C530 1.389 . S
C532 C533 1.524 . S
C532 C546 1.377 1_655 S
C533 C532 1.524 . S
C533 C534 1.397 . S
C533 C538 1.363 . S
C534 H511 0.950 . S
C534 C533 1.397 . S
C534 C535 1.334 . S
C535 H512 0.950 . S
C535 C534 1.334 . S
C535 C536 1.287 . S
C536 C535 1.287 . S
C536 C537 1.524 . S
C536 H555 0.913 . S
C537 H513 0.950 . S
C537 C536 1.524 . S
C537 C538 1.415 . S
C538 H514 0.950 . S
C538 C533 1.363 . S
C538 C537 1.415 . S
C539 H515 0.951 . S
C539 C540 1.366 . S
C539 C541 1.388 . S
C540 C539 1.366 . S
C540 C544 1.385 . S
C541 H516 0.951 . S
C541 C539 1.388 . S
C541 C542 1.366 . S
C542 C541 1.366 . S
C542 C543 1.414 . S
C542 C545 1.499 . S
C543 H517 0.950 . S
C543 C542 1.414 . S
C543 C544 1.374 . S
C544 H518 0.950 . S
C544 C540 1.385 . S
C544 C543 1.374 . S
C545 C542 1.499 . S
C545 C546 1.373 . S
C545 C547 1.389 . S
C546 H519 0.950 . S
C546 C532 1.377 1_455 S
C546 C545 1.373 . S
C547 C531 1.377 1_455 S
C547 C545 1.389 . S
C547 C548 1.524 . S
C548 C547 1.524 . S
C548 C549 1.397 . S
C548 C553 1.363 . S
C549 H520 0.950 . S
C549 C548 1.397 . S
C549 C550 1.334 . S
C550 H521 0.950 . S
C550 C549 1.334 . S
C550 C551 1.287 . S
C551 C550 1.287 . S
C551 C552 1.524 . S
C551 H554 0.999 . S
C552 H522 0.950 . S
C552 C551 1.524 . S
C552 C553 1.415 . S
C553 H523 0.950 . S
C553 C548 1.363 . S
C553 C552 1.415 . S
H554 C551 0.999 . S
H555 C536 0.913 . S
H556 C574 0.951 . S
H557 C576 0.951 . S
H558 C578 0.950 . S
H559 C579 0.950 . S
H560 C581 0.950 . S
H561 C584 0.950 . S
H562 C585 0.950 . S
H563 C587 0.950 . S
H564 C588 0.950 . S
H565 C589 0.951 . S
H566 C591 0.951 . S
H567 C593 0.950 . S
H568 C594 0.950 . S
H569 C596 0.950 . S
H570 C599 0.950 . S
H571 C600 0.950 . S
H572 C602 0.950 . S
H573 C603 0.950 . S
C574 H556 0.951 . S
C574 C575 1.366 . S
C574 C576 1.388 . S
C575 C574 1.366 . S
C575 C579 1.385 1_554 S
C576 H557 0.951 . S
C576 C574 1.388 . S
C576 C577 1.366 . S
C577 C576 1.366 . S
C577 C578 1.414 1_554 S
C577 C580 1.501 . S
C578 H558 0.950 . S
C578 C577 1.414 1_556 S
C578 C579 1.374 . S
C579 H559 0.950 . S
C579 C575 1.385 1_556 S
C579 C578 1.374 . S
C580 C577 1.501 . S
C580 C581 1.375 . S
C580 C582 1.387 1_554 S
C581 H560 0.950 . S
C581 C580 1.375 . S
C581 C597 1.377 1_545 S
C582 C580 1.387 1_556 S
C582 C583 1.524 . S
C582 C596 1.377 1_545 S
C583 C582 1.524 . S
C583 C584 1.397 . S
C583 C588 1.363 1_556 S
C584 H561 0.950 . S
C584 C583 1.397 . S
C584 C585 1.334 . S
C585 H562 0.950 . S
C585 C584 1.334 . S
C585 C586 1.287 . S
C586 C585 1.287 . S
C586 C587 1.524 1_556 S
C586 H605 0.913 . S
C587 H563 0.950 . S
C587 C586 1.524 1_554 S
C587 C588 1.415 . S
C588 H564 0.950 . S
C588 C583 1.363 1_554 S
C588 C587 1.415 . S
C589 H565 0.951 . S
C589 C590 1.366 . S
C589 C591 1.388 . S
C590 C589 1.366 . S
C590 C594 1.385 1_556 S
C591 H566 0.951 . S
C591 C589 1.388 . S
C591 C592 1.366 . S
C592 C591 1.366 . S
C592 C593 1.414 1_556 S
C592 C595 1.500 . S
C593 H567 0.950 . S
C593 C592 1.414 1_554 S
C593 C594 1.374 . S
C594 H568 0.950 . S
C594 C590 1.385 1_554 S
C594 C593 1.374 . S
C595 C592 1.500 . S
C595 C596 1.374 . S
C595 C597 1.388 1_556 S
C596 H569 0.950 . S
C596 C582 1.377 1_565 S
C596 C595 1.374 . S
C597 C581 1.377 1_565 S
C597 C595 1.388 1_554 S
C597 C598 1.524 . S
C598 C597 1.524 . S
C598 C599 1.397 . S
C598 C603 1.363 1_554 S
C599 H570 0.950 . S
C599 C598 1.397 . S
C599 C600 1.334 . S
C600 H571 0.950 . S
C600 C599 1.334 . S
C600 C601 1.287 . S
C601 C600 1.287 . S
C601 C602 1.524 1_554 S
C601 H604 0.999 . S
C602 H572 0.950 . S
C602 C601 1.524 1_556 S
C602 C603 1.415 . S
C603 H573 0.950 . S
C603 C598 1.363 1_556 S
C603 C602 1.415 . S
H604 C601 0.999 . S
H605 C586 0.913 . S
H606 C624 0.951 . S
H607 C626 0.951 . S
H608 C628 0.950 . S
H609 C629 0.950 . S
H610 C631 0.950 . S
H611 C634 0.950 . S
H612 C635 0.950 . S
H613 C637 0.950 . S
H614 C638 0.950 . S
H615 C639 0.951 . S
H616 C641 0.951 . S
H617 C643 0.950 . S
H618 C644 0.950 . S
H619 C646 0.950 . S
H620 C649 0.950 . S
H621 C650 0.950 . S
H622 C652 0.950 . S
H623 C653 0.950 . S
C624 H606 0.951 . S
C624 C625 1.366 . S
C624 C626 1.388 . S
C625 C624 1.366 . S
C625 C629 1.385 . S
C626 H607 0.951 . S
C626 C624 1.388 . S
C626 C627 1.366 . S
C627 C626 1.366 . S
C627 C628 1.414 . S
C627 C630 1.499 . S
C628 H608 0.950 . S
C628 C627 1.414 . S
C628 C629 1.374 . S
C629 H609 0.950 . S
C629 C625 1.385 . S
C629 C628 1.374 . S
C630 C627 1.499 . S
C630 C631 1.373 . S
C630 C632 1.389 . S
C631 H610 0.950 . S
C631 C630 1.373 . S
C631 C647 1.377 . S
C632 C630 1.389 . S
C632 C633 1.524 . S
C632 C646 1.377 . S
C633 C632 1.524 . S
C633 C634 1.397 . S
C633 C638 1.363 . S
C634 H611 0.950 . S
C634 C633 1.397 . S
C634 C635 1.334 . S
C635 H612 0.950 . S
C635 C634 1.334 . S
C635 C636 1.287 . S
C636 C635 1.287 . S
C636 C637 1.524 . S
C636 H655 0.913 . S
C637 H613 0.950 . S
C637 C636 1.524 . S
C637 C638 1.415 . S
C638 H614 0.950 . S
C638 C633 1.363 . S
C638 C637 1.415 . S
C639 H615 0.951 . S
C639 C640 1.366 . S
C639 C641 1.388 . S
C640 C639 1.366 . S
C640 C644 1.385 . S
C641 H616 0.951 . S
C641 C639 1.388 . S
C641 C642 1.366 . S
C642 C641 1.366 . S
C642 C643 1.414 . S
C642 C645 1.499 . S
C643 H617 0.950 . S
C643 C642 1.414 . S
C643 C644 1.374 . S
C644 H618 0.950 . S
C644 C640 1.385 . S
C644 C643 1.374 . S
C645 C642 1.499 . S
C645 C646 1.373 . S
C645 C647 1.389 . S
C646 H619 0.950 . S
C646 C632 1.377 . S
C646 C645 1.373 . S
C647 C631 1.377 . S
C647 C645 1.389 . S
C647 C648 1.524 . S
C648 C647 1.524 . S
C648 C649 1.397 . S
C648 C653 1.363 . S
C649 H620 0.950 . S
C649 C648 1.397 . S
C649 C650 1.334 . S
C650 H621 0.950 . S
C650 C649 1.334 . S
C650 C651 1.287 . S
C651 C650 1.287 . S
C651 C652 1.524 . S
C651 H654 0.999 . S
C652 H622 0.950 . S
C652 C651 1.524 . S
C652 C653 1.415 . S
C653 H623 0.950 . S
C653 C648 1.363 . S
C653 C652 1.415 . S
H654 C651 0.999 . S
H655 C636 0.913 . S
H656 C674 0.951 . S
H657 C676 0.951 . S
H658 C678 0.950 . S
H659 C679 0.950 . S
H660 C681 0.950 . S
H661 C684 0.950 . S
H662 C685 0.950 . S
H663 C687 0.950 . S
H664 C688 0.950 . S
H665 C689 0.951 . S
H666 C691 0.951 . S
H667 C693 0.950 . S
H668 C694 0.950 . S
H669 C696 0.950 . S
H670 C699 0.950 . S
H671 C700 0.950 . S
H672 C702 0.950 . S
H673 C703 0.950 . S
C674 H656 0.951 . S
C674 C675 1.366 . S
C674 C676 1.388 . S
C675 C674 1.366 . S
C675 C679 1.385 . S
C676 H657 0.951 . S
C676 C674 1.388 . S
C676 C677 1.366 . S
C677 C676 1.366 . S
C677 C678 1.414 . S
C677 C680 1.499 . S
C678 H658 0.950 . S
C678 C677 1.414 . S
C678 C679 1.374 . S
C679 H659 0.950 . S
C679 C675 1.385 . S
C679 C678 1.374 . S
C680 C677 1.499 . S
C680 C681 1.373 . S
C680 C682 1.389 . S
C681 H660 0.950 . S
C681 C680 1.373 . S
C681 C697 1.377 1_455 S
C682 C680 1.389 . S
C682 C683 1.524 . S
C682 C696 1.377 1_455 S
C683 C682 1.524 . S
C683 C684 1.397 . S
C683 C688 1.363 . S
C684 H661 0.950 . S
C684 C683 1.397 . S
C684 C685 1.334 . S
C685 H662 0.950 . S
C685 C684 1.334 . S
C685 C686 1.287 . S
C686 C685 1.287 . S
C686 C687 1.524 . S
C686 H705 0.913 . S
C687 H663 0.950 . S
C687 C686 1.524 . S
C687 C688 1.415 . S
C688 H664 0.950 . S
C688 C683 1.363 . S
C688 C687 1.415 . S
C689 H665 0.951 . S
C689 C690 1.366 . S
C689 C691 1.388 . S
C690 C689 1.366 . S
C690 C694 1.385 . S
C691 H666 0.951 . S
C691 C689 1.388 . S
C691 C692 1.366 . S
C692 C691 1.366 . S
C692 C693 1.414 . S
C692 C695 1.499 . S
C693 H667 0.950 . S
C693 C692 1.414 . S
C693 C694 1.374 . S
C694 H668 0.950 . S
C694 C690 1.385 . S
C694 C693 1.374 . S
C695 C692 1.499 . S
C695 C696 1.373 . S
C695 C697 1.389 . S
C696 H669 0.950 . S
C696 C682 1.377 1_655 S
C696 C695 1.373 . S
C697 C681 1.377 1_655 S
C697 C695 1.389 . S
C697 C698 1.524 . S
C698 C697 1.524 . S
C698 C699 1.397 . S
C698 C703 1.363 . S
C699 H670 0.950 . S
C699 C698 1.397 . S
C699 C700 1.334 . S
C700 H671 0.950 . S
C700 C699 1.334 . S
C700 C701 1.287 . S
C701 C700 1.287 . S
C701 C702 1.524 . S
C701 H704 0.999 . S
C702 H672 0.950 . S
C702 C701 1.524 . S
C702 C703 1.415 . S
C703 H673 0.950 . S
C703 C698 1.363 . S
C703 C702 1.415 . S
H704 C701 0.999 . S
H705 C686 0.913 . S
H706 C724 0.951 . S
H707 C726 0.951 . S
H708 C728 0.950 . S
H709 C729 0.950 . S
H710 C731 0.950 . S
H711 C734 0.950 . S
H712 C735 0.950 . S
H713 C737 0.950 . S
H714 C738 0.950 . S
H715 C739 0.951 . S
H716 C741 0.951 . S
H717 C743 0.950 . S
H718 C744 0.950 . S
H719 C746 0.950 . S
H720 C749 0.950 . S
H721 C750 0.950 . S
H722 C752 0.950 . S
H723 C753 0.950 . S
C724 H706 0.951 . S
C724 C725 1.366 . S
C724 C726 1.388 . S
C725 C724 1.366 . S
C725 C729 1.385 1_556 S
C726 H707 0.951 . S
C726 C724 1.388 . S
C726 C727 1.366 . S
C727 C726 1.366 . S
C727 C728 1.414 1_556 S
C727 C730 1.499 . S
C728 H708 0.950 . S
C728 C727 1.414 1_554 S
C728 C729 1.374 . S
C729 H709 0.950 . S
C729 C725 1.385 1_554 S
C729 C728 1.374 . S
C730 C727 1.499 . S
C730 C731 1.373 1_556 S
C730 C732 1.389 . S
C731 H710 0.950 . S
C731 C730 1.373 1_554 S
C731 C747 1.377 1_545 S
C732 C730 1.389 . S
C732 C733 1.524 . S
C732 C746 1.377 1_545 S
C733 C732 1.524 . S
C733 C734 1.397 . S
C733 C738 1.363 . S
C734 H711 0.950 . S
C734 C733 1.397 . S
C734 C735 1.334 . S
C735 H712 0.950 . S
C735 C734 1.334 . S
C735 C736 1.287 . S
C736 C735 1.287 . S
C736 C737 1.524 . S
C736 H755 0.913 . S
C737 H713 0.950 . S
C737 C736 1.524 . S
C737 C738 1.415 . S
C738 H714 0.950 . S
C738 C733 1.363 . S
C738 C737 1.415 . S
C739 H715 0.951 . S
C739 C740 1.366 . S
C739 C741 1.388 . S
C740 C739 1.366 . S
C740 C744 1.385 1_554 S
C741 H716 0.951 . S
C741 C739 1.388 . S
C741 C742 1.366 . S
C742 C741 1.366 . S
C742 C743 1.414 1_554 S
C742 C745 1.499 . S
C743 H717 0.950 . S
C743 C742 1.414 1_556 S
C743 C744 1.374 . S
C744 H718 0.950 . S
C744 C740 1.385 1_556 S
C744 C743 1.374 . S
C745 C742 1.499 . S
C745 C746 1.373 1_554 S
C745 C747 1.389 . S
C746 H719 0.950 . S
C746 C732 1.377 1_565 S
C746 C745 1.373 1_556 S
C747 C731 1.377 1_565 S
C747 C745 1.389 . S
C747 C748 1.524 . S
C748 C747 1.524 . S
C748 C749 1.397 . S
C748 C753 1.363 . S
C749 H720 0.950 . S
C749 C748 1.397 . S
C749 C750 1.334 . S
C750 H721 0.950 . S
C750 C749 1.334 . S
C750 C751 1.287 . S
C751 C750 1.287 . S
C751 C752 1.524 . S
C751 H754 0.999 . S
C752 H722 0.950 . S
C752 C751 1.524 . S
C752 C753 1.415 . S
C753 H723 0.950 . S
C753 C748 1.363 . S
C753 C752 1.415 . S
H754 C751 0.999 . S
H755 C736 0.913 . S
H756 C774 0.951 . S
H757 C776 0.951 . S
H758 C778 0.950 . S
H759 C779 0.950 . S
H760 C781 0.950 . S
H761 C784 0.950 . S
H762 C785 0.950 . S
H763 C787 0.950 . S
H764 C788 0.950 . S
H765 C789 0.951 . S
H766 C791 0.951 . S
H767 C793 0.950 . S
H768 C794 0.950 . S
H769 C796 0.950 . S
H770 C799 0.950 . S
H771 C800 0.950 . S
H772 C802 0.950 . S
H773 C803 0.950 . S
C774 H756 0.951 . S
C774 C775 1.366 . S
C774 C776 1.388 . S
C775 C774 1.366 . S
C775 C779 1.385 . S
C776 H757 0.951 . S
C776 C774 1.388 . S
C776 C777 1.366 . S
C777 C776 1.366 . S
C777 C778 1.414 . S
C777 C780 1.499 . S
C778 H758 0.950 . S
C778 C777 1.414 . S
C778 C779 1.374 . S
C779 H759 0.950 . S
C779 C775 1.385 . S
C779 C778 1.374 . S
C780 C777 1.499 . S
C780 C781 1.373 1_655 S
C780 C782 1.389 . S
C781 H760 0.950 . S
C781 C780 1.373 1_455 S
C781 C797 1.377 . S
C782 C780 1.389 . S
C782 C783 1.524 . S
C782 C796 1.377 . S
C783 C782 1.524 . S
C783 C784 1.397 . S
C783 C788 1.363 . S
C784 H761 0.950 . S
C784 C783 1.397 . S
C784 C785 1.334 . S
C785 H762 0.950 . S
C785 C784 1.334 . S
C785 C786 1.287 . S
C786 C785 1.287 . S
C786 C787 1.524 . S
C786 H805 0.913 . S
C787 H763 0.950 . S
C787 C786 1.524 . S
C787 C788 1.415 . S
C788 H764 0.950 . S
C788 C783 1.363 . S
C788 C787 1.415 . S
C789 H765 0.951 . S
C789 C790 1.366 . S
C789 C791 1.388 . S
C790 C789 1.366 . S
C790 C794 1.385 . S
C791 H766 0.951 . S
C791 C789 1.388 . S
C791 C792 1.366 . S
C792 C791 1.366 . S
C792 C793 1.414 . S
C792 C795 1.499 . S
C793 H767 0.950 . S
C793 C792 1.414 . S
C793 C794 1.374 . S
C794 H768 0.950 . S
C794 C790 1.385 . S
C794 C793 1.374 . S
C795 C792 1.499 . S
C795 C796 1.373 1_455 S
C795 C797 1.389 . S
C796 H769 0.950 . S
C796 C782 1.377 . S
C796 C795 1.373 1_655 S
C797 C781 1.377 . S
C797 C795 1.389 . S
C797 C798 1.524 . S
C798 C797 1.524 . S
C798 C799 1.397 . S
C798 C803 1.363 . S
C799 H770 0.950 . S
C799 C798 1.397 . S
C799 C800 1.334 . S
C800 H771 0.950 . S
C800 C799 1.334 . S
C800 C801 1.287 . S
C801 C800 1.287 . S
C801 C802 1.524 . S
C801 H804 0.999 . S
C802 H772 0.950 . S
C802 C801 1.524 . S
C802 C803 1.415 . S
C803 H773 0.950 . S
C803 C798 1.363 . S
C803 C802 1.415 . S
H804 C801 0.999 . S
H805 C786 0.913 . S
H806 C824 0.951 . S
H807 C826 0.951 . S
H808 C828 0.950 . S
H809 C829 0.950 . S
H810 C831 0.950 . S
H811 C834 0.950 . S
H812 C835 0.950 . S
H813 C837 0.950 . S
H814 C838 0.950 . S
H815 C839 0.951 . S
H816 C841 0.951 . S
H817 C843 0.950 . S
H818 C844 0.950 . S
H819 C846 0.950 . S
H820 C849 0.950 . S
H821 C850 0.950 . S
H822 C852 0.950 . S
H823 C853 0.950 . S
C824 H806 0.951 . S
C824 C825 1.366 . S
C824 C826 1.388 . S
C825 C824 1.366 . S
C825 C829 1.385 . S
C826 H807 0.951 . S
C826 C824 1.388 . S
C826 C827 1.366 . S
C827 C826 1.366 . S
C827 C828 1.414 . S
C827 C830 1.499 . S
C828 H808 0.950 . S
C828 C827 1.414 . S
C828 C829 1.374 . S
C829 H809 0.950 . S
C829 C825 1.385 . S
C829 C828 1.374 . S
C830 C827 1.499 . S
C830 C831 1.373 . S
C830 C832 1.389 1_545 S
C831 H810 0.950 . S
C831 C830 1.373 . S
C831 C847 1.377 . S
C832 C830 1.389 1_565 S
C832 C833 1.524 . S
C832 C846 1.377 . S
C833 C832 1.524 . S
C833 C834 1.397 . S
C833 C838 1.363 . S
C834 H811 0.950 . S
C834 C833 1.397 . S
C834 C835 1.334 . S
C835 H812 0.950 . S
C835 C834 1.334 . S
C835 C836 1.287 . S
C836 C835 1.287 . S
C836 C837 1.524 . S
C836 H855 0.913 . S
C837 H813 0.950 . S
C837 C836 1.524 . S
C837 C838 1.415 . S
C838 H814 0.950 . S
C838 C833 1.363 . S
C838 C837 1.415 . S
C839 H815 0.951 . S
C839 C840 1.366 . S
C839 C841 1.388 . S
C840 C839 1.366 . S
C840 C844 1.385 . S
C841 H816 0.951 . S
C841 C839 1.388 . S
C841 C842 1.366 . S
C842 C841 1.366 . S
C842 C843 1.414 . S
C842 C845 1.499 . S
C843 H817 0.950 . S
C843 C842 1.414 . S
C843 C844 1.374 . S
C844 H818 0.950 . S
C844 C840 1.385 . S
C844 C843 1.374 . S
C845 C842 1.499 . S
C845 C846 1.373 . S
C845 C847 1.389 1_565 S
C846 H819 0.950 . S
C846 C832 1.377 . S
C846 C845 1.373 . S
C847 C831 1.377 . S
C847 C845 1.389 1_545 S
C847 C848 1.524 . S
C848 C847 1.524 . S
C848 C849 1.397 . S
C848 C853 1.363 . S
C849 H820 0.950 . S
C849 C848 1.397 . S
C849 C850 1.334 . S
C850 H821 0.950 . S
C850 C849 1.334 . S
C850 C851 1.287 . S
C851 C850 1.287 . S
C851 C852 1.524 . S
C851 H854 0.999 . S
C852 H822 0.950 . S
C852 C851 1.524 . S
C852 C853 1.415 . S
C853 H823 0.950 . S
C853 C848 1.363 . S
C853 C852 1.415 . S
H854 C851 0.999 . S
H855 C836 0.913 . S
H856 C874 0.951 . S
H857 C876 0.951 . S
H858 C878 0.950 . S
H859 C879 0.950 . S
H860 C881 0.950 . S
H861 C884 0.950 . S
H862 C885 0.950 . S
H863 C887 0.950 . S
H864 C888 0.950 . S
H865 C889 0.951 . S
H866 C891 0.951 . S
H867 C893 0.950 . S
H868 C894 0.950 . S
H869 C896 0.950 . S
H870 C899 0.950 . S
H871 C900 0.950 . S
H872 C902 0.950 . S
H873 C903 0.950 . S
C874 H856 0.951 . S
C874 C875 1.366 . S
C874 C876 1.388 . S
C875 C874 1.366 . S
C875 C879 1.385 . S
C876 H857 0.951 . S
C876 C874 1.388 . S
C876 C877 1.366 . S
C877 C876 1.366 . S
C877 C878 1.414 . S
C877 C880 1.499 . S
C878 H858 0.950 . S
C878 C877 1.414 . S
C878 C879 1.374 . S
C879 H859 0.950 . S
C879 C875 1.385 . S
C879 C878 1.374 . S
C880 C877 1.499 . S
C880 C881 1.373 . S
C880 C882 1.389 . S
C881 H860 0.950 . S
C881 C880 1.373 . S
C881 C897 1.377 . S
C882 C880 1.389 . S
C882 C883 1.524 . S
C882 C896 1.377 . S
C883 C882 1.524 . S
C883 C884 1.397 . S
C883 C888 1.363 . S
C884 H861 0.950 . S
C884 C883 1.397 . S
C884 C885 1.334 . S
C885 H862 0.950 . S
C885 C884 1.334 . S
C885 C886 1.287 . S
C886 C885 1.287 . S
C886 C887 1.524 . S
C886 H905 0.913 . S
C887 H863 0.950 . S
C887 C886 1.524 . S
C887 C888 1.415 . S
C888 H864 0.950 . S
C888 C883 1.363 . S
C888 C887 1.415 . S
C889 H865 0.951 . S
C889 C890 1.366 . S
C889 C891 1.388 . S
C890 C889 1.366 . S
C890 C894 1.385 . S
C891 H866 0.951 . S
C891 C889 1.388 . S
C891 C892 1.366 . S
C892 C891 1.366 . S
C892 C893 1.414 . S
C892 C895 1.499 . S
C893 H867 0.950 . S
C893 C892 1.414 . S
C893 C894 1.374 . S
C894 H868 0.950 . S
C894 C890 1.385 . S
C894 C893 1.374 . S
C895 C892 1.499 . S
C895 C896 1.373 . S
C895 C897 1.389 . S
C896 H869 0.950 . S
C896 C882 1.377 . S
C896 C895 1.373 . S
C897 C881 1.377 . S
C897 C895 1.389 . S
C897 C898 1.524 . S
C898 C897 1.524 . S
C898 C899 1.397 . S
C898 C903 1.363 . S
C899 H870 0.950 . S
C899 C898 1.397 . S
C899 C900 1.334 . S
C900 H871 0.950 . S
C900 C899 1.334 . S
C900 C901 1.287 . S
C901 C900 1.287 . S
C901 C902 1.524 . S
C901 H904 0.999 . S
C902 H872 0.950 . S
C902 C901 1.524 . S
C902 C903 1.415 . S
C903 H873 0.950 . S
C903 C898 1.363 . S
C903 C902 1.415 . S
H904 C901 0.999 . S
H905 C886 0.913 . S
H906 C924 0.951 . S
H907 C926 0.951 . S
H908 C928 0.950 . S
H909 C929 0.950 . S
H910 C931 0.950 . S
H911 C934 0.950 . S
H912 C935 0.950 . S
H913 C937 0.950 . S
H914 C938 0.950 . S
H915 C939 0.951 . S
H916 C941 0.951 . S
H917 C943 0.950 . S
H918 C944 0.950 . S
H919 C946 0.950 . S
H920 C949 0.950 . S
H921 C950 0.950 . S
H922 C952 0.950 . S
H923 C953 0.950 . S
C924 H906 0.951 . S
C924 C925 1.366 . S
C924 C926 1.388 . S
C925 C924 1.366 . S
C925 C929 1.385 . S
C926 H907 0.951 . S
C926 C924 1.388 . S
C926 C927 1.366 . S
C927 C926 1.366 . S
C927 C928 1.414 . S
C927 C930 1.499 . S
C928 H908 0.950 . S
C928 C927 1.414 . S
C928 C929 1.374 . S
C929 H909 0.950 . S
C929 C925 1.385 . S
C929 C928 1.374 . S
C930 C927 1.499 . S
C930 C931 1.373 1_455 S
C930 C932 1.389 . S
C931 H910 0.950 . S
C931 C930 1.373 1_655 S
C931 C947 1.377 . S
C932 C930 1.389 . S
C932 C933 1.524 . S
C932 C946 1.377 . S
C933 C932 1.524 . S
C933 C934 1.397 . S
C933 C938 1.363 . S
C934 H911 0.950 . S
C934 C933 1.397 . S
C934 C935 1.334 . S
C935 H912 0.950 . S
C935 C934 1.334 . S
C935 C936 1.287 . S
C936 C935 1.287 . S
C936 C937 1.524 . S
C936 H955 0.913 . S
C937 H913 0.950 . S
C937 C936 1.524 . S
C937 C938 1.415 . S
C938 H914 0.950 . S
C938 C933 1.363 . S
C938 C937 1.415 . S
C939 H915 0.951 . S
C939 C940 1.366 . S
C939 C941 1.388 . S
C940 C939 1.366 . S
C940 C944 1.385 . S
C941 H916 0.951 . S
C941 C939 1.388 . S
C941 C942 1.366 . S
C942 C941 1.366 . S
C942 C943 1.414 . S
C942 C945 1.499 . S
C943 H917 0.950 . S
C943 C942 1.414 . S
C943 C944 1.374 . S
C944 H918 0.950 . S
C944 C940 1.385 . S
C944 C943 1.374 . S
C945 C942 1.499 . S
C945 C946 1.373 1_655 S
C945 C947 1.389 . S
C946 H919 0.950 . S
C946 C932 1.377 . S
C946 C945 1.373 1_455 S
C947 C931 1.377 . S
C947 C945 1.389 . S
C947 C948 1.524 . S
C948 C947 1.524 . S
C948 C949 1.397 . S
C948 C953 1.363 . S
C949 H920 0.950 . S
C949 C948 1.397 . S
C949 C950 1.334 . S
C950 H921 0.950 . S
C950 C949 1.334 . S
C950 C951 1.287 . S
C951 C950 1.287 . S
C951 C952 1.524 . S
C951 H954 0.999 . S
C952 H922 0.950 . S
C952 C951 1.524 . S
C952 C953 1.415 . S
C953 H923 0.950 . S
C953 C948 1.363 . S
C953 C952 1.415 . S
H954 C951 0.999 . S
H955 C936 0.913 . S
H956 C974 0.951 . S
H957 C976 0.951 . S
H958 C978 0.983 . S
H959 C979 0.950 . S
H960 C981 0.950 . S
H961 C984 0.950 . S
H962 C985 0.950 . S
H963 C987 0.950 . S
H964 C988 0.950 . S
H965 C989 0.951 . S
H966 C991 0.951 . S
H967 C993 0.983 . S
H968 C994 0.950 . S
H969 C996 0.950 . S
H970 C999 0.950 . S
H971 C1000 0.950 . S
H972 C1002 0.950 . S
H973 C1003 0.950 . S
C974 H956 0.951 . S
C974 C975 1.366 . S
C974 C976 1.388 . S
C975 C974 1.366 . S
C975 C979 1.385 . S
C976 H957 0.951 . S
C976 C974 1.388 . S
C976 C977 1.366 . S
C977 C976 1.366 . S
C977 C978 1.414 . S
C977 C980 1.499 . S
C978 H958 0.983 . S
C978 C977 1.414 . S
C978 C979 1.374 . S
C979 H959 0.950 . S
C979 C975 1.385 . S
C979 C978 1.374 . S
C980 C977 1.499 . S
C980 C981 1.373 1_545 S
C980 C982 1.389 . S
C981 H960 0.950 . S
C981 C980 1.373 1_565 S
C981 C997 1.377 . S
C982 C980 1.389 . S
C982 C983 1.524 . S
C982 C996 1.377 . S
C983 C982 1.524 . S
C983 C984 1.397 . S
C983 C988 1.363 . S
C984 H961 0.950 . S
C984 C983 1.397 . S
C984 C985 1.334 . S
C985 H962 0.950 . S
C985 C984 1.334 . S
C985 C986 1.287 . S
C986 C985 1.287 . S
C986 C987 1.524 . S
C986 H1005 0.913 . S
C987 H963 0.950 . S
C987 C986 1.524 . S
C987 C988 1.415 . S
C988 H964 0.950 . S
C988 C983 1.363 . S
C988 C987 1.415 . S
C989 H965 0.951 . S
C989 C990 1.366 . S
C989 C991 1.388 . S
C990 C989 1.366 . S
C990 C994 1.385 . S
C991 H966 0.951 . S
C991 C989 1.388 . S
C991 C992 1.366 . S
C992 C991 1.366 . S
C992 C993 1.414 . S
C992 C995 1.499 . S
C993 H967 0.983 . S
C993 C992 1.414 . S
C993 C994 1.374 . S
C994 H968 0.950 . S
C994 C990 1.385 . S
C994 C993 1.374 . S
C995 C992 1.499 . S
C995 C996 1.373 1_565 S
C995 C997 1.389 . S
C996 H969 0.950 . S
C996 C982 1.377 . S
C996 C995 1.373 1_545 S
C997 C981 1.377 . S
C997 C995 1.389 . S
C997 C998 1.524 . S
C998 C997 1.524 . S
C998 C999 1.397 . S
C998 C1003 1.363 . S
C999 H970 0.950 . S
C999 C998 1.397 . S
C999 C1000 1.334 . S
C1000 H971 0.950 . S
C1000 C999 1.334 . S
C1000 C1001 1.287 . S
C1001 C1000 1.287 . S
C1001 C1002 1.524 . S
C1001 H1004 0.999 . S
C1002 H972 0.950 . S
C1002 C1001 1.524 . S
C1002 C1003 1.415 . S
C1003 H973 0.950 . S
C1003 C998 1.363 . S
C1003 C1002 1.415 . S
H1004 C1001 0.999 . S
H1005 C986 0.913 . S
H1006 C1024 0.951 . S
H1007 C1026 0.951 . S
H1008 C1028 0.950 . S
H1009 C1029 0.950 . S
H1010 C1031 0.950 . S
H1011 C1034 0.950 . S
H1012 C1035 0.950 . S
H1013 C1037 0.950 . S
H1014 C1038 0.950 . S
H1015 C1039 0.951 . S
H1016 C1041 0.951 . S
H1017 C1043 0.950 . S
H1018 C1044 0.950 . S
H1019 C1046 0.950 . S
H1020 C1049 0.950 . S
H1021 C1050 0.950 . S
H1022 C1052 0.950 . S
H1023 C1053 0.950 . S
C1024 H1006 0.951 . S
C1024 C1025 1.366 . S
C1024 C1026 1.388 . S
C1025 C1024 1.366 . S
C1025 C1029 1.385 . S
C1026 H1007 0.951 . S
C1026 C1024 1.388 . S
C1026 C1027 1.366 . S
C1027 C1026 1.366 . S
C1027 C1028 1.414 . S
C1027 C1030 1.499 . S
C1028 H1008 0.950 . S
C1028 C1027 1.414 . S
C1028 C1029 1.374 . S
C1029 H1009 0.950 . S
C1029 C1025 1.385 . S
C1029 C1028 1.374 . S
C1030 C1027 1.499 . S
C1030 C1031 1.373 . S
C1030 C1032 1.389 . S
C1031 H1010 0.950 . S
C1031 C1030 1.373 . S
C1031 C1047 1.377 . S
C1032 C1030 1.389 . S
C1032 C1033 1.524 . S
C1032 C1046 1.377 . S
C1033 C1032 1.524 . S
C1033 C1034 1.397 . S
C1033 C1038 1.363 . S
C1034 H1011 0.950 . S
C1034 C1033 1.397 . S
C1034 C1035 1.334 . S
C1035 H1012 0.950 . S
C1035 C1034 1.334 . S
C1035 C1036 1.287 . S
C1036 C1035 1.287 . S
C1036 C1037 1.524 . S
C1036 H1055 0.913 . S
C1037 H1013 0.950 . S
C1037 C1036 1.524 . S
C1037 C1038 1.415 . S
C1038 H1014 0.950 . S
C1038 C1033 1.363 . S
C1038 C1037 1.415 . S
C1039 H1015 0.951 . S
C1039 C1040 1.366 . S
C1039 C1041 1.388 . S
C1040 C1039 1.366 . S
C1040 C1044 1.385 . S
C1041 H1016 0.951 . S
C1041 C1039 1.388 . S
C1041 C1042 1.366 . S
C1042 C1041 1.366 . S
C1042 C1043 1.414 . S
C1042 C1045 1.499 . S
C1043 H1017 0.950 . S
C1043 C1042 1.414 . S
C1043 C1044 1.374 . S
C1044 H1018 0.950 . S
C1044 C1040 1.385 . S
C1044 C1043 1.374 . S
C1045 C1042 1.499 . S
C1045 C1046 1.373 . S
C1045 C1047 1.389 . S
C1046 H1019 0.950 . S
C1046 C1032 1.377 . S
C1046 C1045 1.373 . S
C1047 C1031 1.377 . S
C1047 C1045 1.389 . S
C1047 C1048 1.524 . S
C1048 C1047 1.524 . S
C1048 C1049 1.397 . S
C1048 C1053 1.363 . S
C1049 H1020 0.950 . S
C1049 C1048 1.397 . S
C1049 C1050 1.334 . S
C1050 H1021 0.950 . S
C1050 C1049 1.334 . S
C1050 C1051 1.287 . S
C1051 C1050 1.287 . S
C1051 C1052 1.524 . S
C1051 H1054 0.999 . S
C1052 H1022 0.950 . S
C1052 C1051 1.524 . S
C1052 C1053 1.415 . S
C1053 H1023 0.950 . S
C1053 C1048 1.363 . S
C1053 C1052 1.415 . S
H1054 C1051 0.999 . S
H1055 C1036 0.913 . S
H1056 C1074 0.951 . S
H1057 C1076 0.951 . S
H1058 C1078 0.950 . S
H1059 C1079 0.950 . S
H1060 C1081 0.950 . S
H1061 C1084 0.950 . S
H1062 C1085 0.950 . S
H1063 C1087 0.950 . S
H1064 C1088 0.950 . S
H1065 C1089 0.951 . S
H1066 C1091 0.951 . S
H1067 C1093 0.950 . S
H1068 C1094 0.950 . S
H1069 C1096 0.950 . S
H1070 C1099 0.950 . S
H1071 C1100 0.950 . S
H1072 C1102 0.950 . S
H1073 C1103 0.950 . S
C1074 H1056 0.951 . S
C1074 C1075 1.366 . S
C1074 C1076 1.388 . S
C1075 C1074 1.366 . S
C1075 C1079 1.385 . S
C1076 H1057 0.951 . S
C1076 C1074 1.388 . S
C1076 C1077 1.366 . S
C1077 C1076 1.366 . S
C1077 C1078 1.414 . S
C1077 C1080 1.499 . S
C1078 H1058 0.950 . S
C1078 C1077 1.414 . S
C1078 C1079 1.374 . S
C1079 H1059 0.950 . S
C1079 C1075 1.385 . S
C1079 C1078 1.374 . S
C1080 C1077 1.499 . S
C1080 C1081 1.373 . S
C1080 C1082 1.389 . S
C1081 H1060 0.950 . S
C1081 C1080 1.373 . S
C1081 C1097 1.377 . S
C1082 C1080 1.389 . S
C1082 C1083 1.524 . S
C1082 C1096 1.377 . S
C1083 C1082 1.524 . S
C1083 C1084 1.397 . S
C1083 C1088 1.363 . S
C1084 H1061 0.950 . S
C1084 C1083 1.397 . S
C1084 C1085 1.334 . S
C1085 H1062 0.950 . S
C1085 C1084 1.334 . S
C1085 C1086 1.287 . S
C1086 C1085 1.287 . S
C1086 C1087 1.524 . S
C1086 H1105 0.913 . S
C1087 H1063 0.950 . S
C1087 C1086 1.524 . S
C1087 C1088 1.415 . S
C1088 H1064 0.950 . S
C1088 C1083 1.363 . S
C1088 C1087 1.415 . S
C1089 H1065 0.951 . S
C1089 C1090 1.366 . S
C1089 C1091 1.388 . S
C1090 C1089 1.366 . S
C1090 C1094 1.385 . S
C1091 H1066 0.951 . S
C1091 C1089 1.388 . S
C1091 C1092 1.366 . S
C1092 C1091 1.366 . S
C1092 C1093 1.414 . S
C1092 C1095 1.499 . S
C1093 H1067 0.950 . S
C1093 C1092 1.414 . S
C1093 C1094 1.374 . S
C1094 H1068 0.950 . S
C1094 C1090 1.385 . S
C1094 C1093 1.374 . S
C1095 C1092 1.499 . S
C1095 C1096 1.373 . S
C1095 C1097 1.389 . S
C1096 H1069 0.950 . S
C1096 C1082 1.377 . S
C1096 C1095 1.373 . S
C1097 C1081 1.377 . S
C1097 C1095 1.389 . S
C1097 C1098 1.524 . S
C1098 C1097 1.524 . S
C1098 C1099 1.397 . S
C1098 C1103 1.363 . S
C1099 H1070 0.950 . S
C1099 C1098 1.397 . S
C1099 C1100 1.334 . S
C1100 H1071 0.950 . S
C1100 C1099 1.334 . S
C1100 C1101 1.287 . S
C1101 C1100 1.287 . S
C1101 C1102 1.524 . S
C1101 H1104 0.999 . S
C1102 H1072 0.950 . S
C1102 C1101 1.524 . S
C1102 C1103 1.415 . S
C1103 H1073 0.950 . S
C1103 C1098 1.363 . S
C1103 C1102 1.415 . S
H1104 C1101 0.999 . S
H1105 C1086 0.913 . S
H1106 C1124 0.951 . S
H1107 C1126 0.951 . S
H1108 C1128 0.950 . S
H1109 C1129 0.950 . S
H1110 C1131 0.950 . S
H1111 C1134 0.950 . S
H1112 C1135 0.950 . S
H1113 C1137 0.950 . S
H1114 C1138 0.950 . S
H1115 C1139 0.951 . S
H1116 C1141 0.951 . S
H1117 C1143 0.950 . S
H1118 C1144 0.950 . S
H1119 C1146 0.950 . S
H1120 C1149 0.950 . S
H1121 C1150 0.950 . S
H1122 C1152 0.950 . S
H1123 C1153 0.950 . S
C1124 H1106 0.951 . S
C1124 C1125 1.366 . S
C1124 C1126 1.388 . S
C1125 C1124 1.366 . S
C1125 C1129 1.385 . S
C1126 H1107 0.951 . S
C1126 C1124 1.388 . S
C1126 C1127 1.366 . S
C1127 C1126 1.366 . S
C1127 C1128 1.414 . S
C1127 C1130 1.499 . S
C1128 H1108 0.950 . S
C1128 C1127 1.414 . S
C1128 C1129 1.374 . S
C1129 H1109 0.950 . S
C1129 C1125 1.385 . S
C1129 C1128 1.374 . S
C1130 C1127 1.499 . S
C1130 C1131 1.373 . S
C1130 C1132 1.389 . S
C1131 H1110 0.950 . S
C1131 C1130 1.373 . S
C1131 C1147 1.377 . S
C1132 C1130 1.389 . S
C1132 C1133 1.524 . S
C1132 C1146 1.377 . S
C1133 C1132 1.524 . S
C1133 C1134 1.397 . S
C1133 C1138 1.363 . S
C1134 H1111 0.950 . S
C1134 C1133 1.397 . S
C1134 C1135 1.334 . S
C1135 H1112 0.950 . S
C1135 C1134 1.334 . S
C1135 C1136 1.287 . S
C1136 C1135 1.287 . S
C1136 C1137 1.524 . S
C1136 H1155 0.913 . S
C1137 H1113 0.950 . S
C1137 C1136 1.524 . S
C1137 C1138 1.415 . S
C1138 H1114 0.950 . S
C1138 C1133 1.363 . S
C1138 C1137 1.415 . S
C1139 H1115 0.951 . S
C1139 C1140 1.366 . S
C1139 C1141 1.388 . S
C1140 C1139 1.366 . S
C1140 C1144 1.385 . S
C1141 H1116 0.951 . S
C1141 C1139 1.388 . S
C1141 C1142 1.366 . S
C1142 C1141 1.366 . S
C1142 C1143 1.414 . S
C1142 C1145 1.499 . S
C1143 H1117 0.950 . S
C1143 C1142 1.414 . S
C1143 C1144 1.374 . S
C1144 H1118 0.950 . S
C1144 C1140 1.385 . S
C1144 C1143 1.374 . S
C1145 C1142 1.499 . S
C1145 C1146 1.373 . S
C1145 C1147 1.389 . S
C1146 H1119 0.950 . S
C1146 C1132 1.377 . S
C1146 C1145 1.373 . S
C1147 C1131 1.377 . S
C1147 C1145 1.389 . S
C1147 C1148 1.524 . S
C1148 C1147 1.524 . S
C1148 C1149 1.397 . S
C1148 C1153 1.363 . S
C1149 H1120 0.950 . S
C1149 C1148 1.397 . S
C1149 C1150 1.334 . S
C1150 H1121 0.950 . S
C1150 C1149 1.334 . S
C1150 C1151 1.287 . S
C1151 C1150 1.287 . S
C1151 C1152 1.524 . S
C1151 H1154 0.999 . S
C1152 H1122 0.950 . S
C1152 C1151 1.524 . S
C1152 C1153 1.415 . S
C1153 H1123 0.950 . S
C1153 C1148 1.363 . S
C1153 C1152 1.415 . S
H1154 C1151 0.999 . S
H1155 C1136 0.913 . S
H1156 C1174 0.951 . S
H1157 C1176 0.951 . S
H1158 C1178 0.950 . S
H1159 C1179 0.950 . S
H1160 C1181 0.950 . S
H1161 C1184 0.950 . S
H1162 C1185 0.950 . S
H1163 C1187 0.950 . S
H1164 C1188 0.950 . S
H1165 C1189 0.951 . S
H1166 C1191 0.951 . S
H1167 C1193 0.950 . S
H1168 C1194 0.950 . S
H1169 C1196 0.950 . S
H1170 C1199 0.950 . S
H1171 C1200 0.950 . S
H1172 C1202 0.950 . S
H1173 C1203 0.950 . S
C1174 H1156 0.951 . S
C1174 C1175 1.366 . S
C1174 C1176 1.388 . S
C1175 C1174 1.366 . S
C1175 C1179 1.385 . S
C1176 H1157 0.951 . S
C1176 C1174 1.388 . S
C1176 C1177 1.366 . S
C1177 C1176 1.366 . S
C1177 C1178 1.414 . S
C1177 C1180 1.499 . S
C1178 H1158 0.950 . S
C1178 C1177 1.414 . S
C1178 C1179 1.374 . S
C1179 H1159 0.950 . S
C1179 C1175 1.385 . S
C1179 C1178 1.374 . S
C1180 C1177 1.499 . S
C1180 C1181 1.373 . S
C1180 C1182 1.389 . S
C1181 H1160 0.950 . S
C1181 C1180 1.373 . S
C1181 C1197 1.377 . S
C1182 C1180 1.389 . S
C1182 C1183 1.524 . S
C1182 C1196 1.377 . S
C1183 C1182 1.524 . S
C1183 C1184 1.397 . S
C1183 C1188 1.363 . S
C1184 H1161 0.950 . S
C1184 C1183 1.397 . S
C1184 C1185 1.334 . S
C1185 H1162 0.950 . S
C1185 C1184 1.334 . S
C1185 C1186 1.287 . S
C1186 C1185 1.287 . S
C1186 C1187 1.524 . S
C1186 H1205 0.913 . S
C1187 H1163 0.950 . S
C1187 C1186 1.524 . S
C1187 C1188 1.415 . S
C1188 H1164 0.950 . S
C1188 C1183 1.363 . S
C1188 C1187 1.415 . S
C1189 H1165 0.951 . S
C1189 C1190 1.366 . S
C1189 C1191 1.388 . S
C1190 C1189 1.366 . S
C1190 C1194 1.385 . S
C1191 H1166 0.951 . S
C1191 C1189 1.388 . S
C1191 C1192 1.366 . S
C1192 C1191 1.366 . S
C1192 C1193 1.414 . S
C1192 C1195 1.499 . S
C1193 H1167 0.950 . S
C1193 C1192 1.414 . S
C1193 C1194 1.374 . S
C1194 H1168 0.950 . S
C1194 C1190 1.385 . S
C1194 C1193 1.374 . S
C1195 C1192 1.499 . S
C1195 C1196 1.373 . S
C1195 C1197 1.389 . S
C1196 H1169 0.950 . S
C1196 C1182 1.377 . S
C1196 C1195 1.373 . S
C1197 C1181 1.377 . S
C1197 C1195 1.389 . S
C1197 C1198 1.524 . S
C1198 C1197 1.524 . S
C1198 C1199 1.397 . S
C1198 C1203 1.363 . S
C1199 H1170 0.950 . S
C1199 C1198 1.397 . S
C1199 C1200 1.334 . S
C1200 H1171 0.950 . S
C1200 C1199 1.334 . S
C1200 C1201 1.287 . S
C1201 C1200 1.287 . S
C1201 C1202 1.524 . S
C1201 H1204 0.999 . S
C1202 H1172 0.950 . S
C1202 C1201 1.524 . S
C1202 C1203 1.415 . S
C1203 H1173 0.950 . S
C1203 C1198 1.363 . S
C1203 C1202 1.415 . S
H1204 C1201 0.999 . S
H1205 C1186 0.913 . S
H1206 C1224 0.951 . S
H1207 C1226 0.951 . S
H1208 C1228 0.950 . S
H1209 C1229 0.950 . S
H1210 C1231 0.950 . S
H1211 C1234 0.950 . S
H1212 C1235 0.950 . S
H1213 C1237 0.950 . S
H1214 C1238 0.950 . S
H1215 C1239 0.951 . S
H1216 C1241 0.951 . S
H1217 C1243 0.950 . S
H1218 C1244 0.950 . S
H1219 C1246 0.950 . S
H1220 C1249 0.950 . S
H1221 C1250 0.950 . S
H1222 C1252 0.950 . S
H1223 C1253 0.950 . S
C1224 H1206 0.951 . S
C1224 C1225 1.366 . S
C1224 C1226 1.388 . S
C1225 C1224 1.366 . S
C1225 C1229 1.385 . S
C1226 H1207 0.951 . S
C1226 C1224 1.388 . S
C1226 C1227 1.366 . S
C1227 C1226 1.366 . S
C1227 C1228 1.414 . S
C1227 C1230 1.499 . S
C1228 H1208 0.950 . S
C1228 C1227 1.414 . S
C1228 C1229 1.374 . S
C1229 H1209 0.950 . S
C1229 C1225 1.385 . S
C1229 C1228 1.374 . S
C1230 C1227 1.499 . S
C1230 C1231 1.373 . S
C1230 C1232 1.389 . S
C1231 H1210 0.950 . S
C1231 C1230 1.373 . S
C1231 C1247 1.377 . S
C1232 C1230 1.389 . S
C1232 C1233 1.524 . S
C1232 C1246 1.377 . S
C1233 C1232 1.524 . S
C1233 C1234 1.397 . S
C1233 C1238 1.363 . S
C1234 H1211 0.950 . S
C1234 C1233 1.397 . S
C1234 C1235 1.334 . S
C1235 H1212 0.950 . S
C1235 C1234 1.334 . S
C1235 C1236 1.287 . S
C1236 C1235 1.287 . S
C1236 C1237 1.524 . S
C1236 H1255 0.913 . S
C1237 H1213 0.950 . S
C1237 C1236 1.524 . S
C1237 C1238 1.415 . S
C1238 H1214 0.950 . S
C1238 C1233 1.363 . S
C1238 C1237 1.415 . S
C1239 H1215 0.951 . S
C1239 C1240 1.366 . S
C1239 C1241 1.388 . S
C1240 C1239 1.366 . S
C1240 C1244 1.385 . S
C1241 H1216 0.951 . S
C1241 C1239 1.388 . S
C1241 C1242 1.366 . S
C1242 C1241 1.366 . S
C1242 C1243 1.414 . S
C1242 C1245 1.499 . S
C1243 H1217 0.950 . S
C1243 C1242 1.414 . S
C1243 C1244 1.374 . S
C1244 H1218 0.950 . S
C1244 C1240 1.385 . S
C1244 C1243 1.374 . S
C1245 C1242 1.499 . S
C1245 C1246 1.373 . S
C1245 C1247 1.389 . S
C1246 H1219 0.950 . S
C1246 C1232 1.377 . S
C1246 C1245 1.373 . S
C1247 C1231 1.377 . S
C1247 C1245 1.389 . S
C1247 C1248 1.524 . S
C1248 C1247 1.524 . S
C1248 C1249 1.397 . S
C1248 C1253 1.363 . S
C1249 H1220 0.950 . S
C1249 C1248 1.397 . S
C1249 C1250 1.334 . S
C1250 H1221 0.950 . S
C1250 C1249 1.334 . S
C1250 C1251 1.287 . S
C1251 C1250 1.287 . S
C1251 C1252 1.524 . S
C1251 H1254 0.999 . S
C1252 H1222 0.950 . S
C1252 C1251 1.524 . S
C1252 C1253 1.415 . S
C1253 H1223 0.950 . S
C1253 C1248 1.363 . S
C1253 C1252 1.415 . S
H1254 C1251 0.999 . S
H1255 C1236 0.913 . S
H1256 C1274 0.951 . S
H1257 C1276 0.951 . S
H1258 C1278 0.950 . S
H1259 C1279 0.950 . S
H1260 C1281 0.950 . S
H1261 C1284 0.950 . S
H1262 C1285 0.950 . S
H1263 C1287 0.950 . S
H1264 C1288 0.950 . S
H1265 C1289 0.951 . S
H1266 C1291 0.951 . S
H1267 C1293 0.950 . S
H1268 C1294 0.950 . S
H1269 C1296 0.950 . S
H1270 C1299 0.950 . S
H1271 C1300 0.950 . S
H1272 C1302 0.950 . S
H1273 C1303 0.950 . S
C1274 H1256 0.951 . S
C1274 C1275 1.366 . S
C1274 C1276 1.388 . S
C1275 C1274 1.366 . S
C1275 C1279 1.385 . S
C1276 H1257 0.951 . S
C1276 C1274 1.388 . S
C1276 C1277 1.366 . S
C1277 C1276 1.366 . S
C1277 C1278 1.414 . S
C1277 C1280 1.499 . S
C1278 H1258 0.950 . S
C1278 C1277 1.414 . S
C1278 C1279 1.374 . S
C1279 H1259 0.950 . S
C1279 C1275 1.385 . S
C1279 C1278 1.374 . S
C1280 C1277 1.499 . S
C1280 C1281 1.373 . S
C1280 C1282 1.389 . S
C1281 H1260 0.950 . S
C1281 C1280 1.373 . S
C1281 C1297 1.377 . S
C1282 C1280 1.389 . S
C1282 C1283 1.524 . S
C1282 C1296 1.377 . S
C1283 C1282 1.524 . S
C1283 C1284 1.397 . S
C1283 C1288 1.363 . S
C1284 H1261 0.950 . S
C1284 C1283 1.397 . S
C1284 C1285 1.334 . S
C1285 H1262 0.950 . S
C1285 C1284 1.334 . S
C1285 C1286 1.287 . S
C1286 C1285 1.287 . S
C1286 C1287 1.524 . S
C1286 H1305 0.913 . S
C1287 H1263 0.950 . S
C1287 C1286 1.524 . S
C1287 C1288 1.415 . S
C1288 H1264 0.950 . S
C1288 C1283 1.363 . S
C1288 C1287 1.415 . S
C1289 H1265 0.951 . S
C1289 C1290 1.366 . S
C1289 C1291 1.388 . S
C1290 C1289 1.366 . S
C1290 C1294 1.385 . S
C1291 H1266 0.951 . S
C1291 C1289 1.388 . S
C1291 C1292 1.366 . S
C1292 C1291 1.366 . S
C1292 C1293 1.414 . S
C1292 C1295 1.499 . S
C1293 H1267 0.950 . S
C1293 C1292 1.414 . S
C1293 C1294 1.374 . S
C1294 H1268 0.950 . S
C1294 C1290 1.385 . S
C1294 C1293 1.374 . S
C1295 C1292 1.499 . S
C1295 C1296 1.373 . S
C1295 C1297 1.389 . S
C1296 H1269 0.950 . S
C1296 C1282 1.377 . S
C1296 C1295 1.373 . S
C1297 C1281 1.377 . S
C1297 C1295 1.389 . S
C1297 C1298 1.524 . S
C1298 C1297 1.524 . S
C1298 C1299 1.397 . S
C1298 C1303 1.363 . S
C1299 H1270 0.950 . S
C1299 C1298 1.397 . S
C1299 C1300 1.334 . S
C1300 H1271 0.950 . S
C1300 C1299 1.334 . S
C1300 C1301 1.287 . S
C1301 C1300 1.287 . S
C1301 C1302 1.524 . S
C1301 H1304 0.999 . S
C1302 H1272 0.950 . S
C1302 C1301 1.524 . S
C1302 C1303 1.415 . S
C1303 H1273 0.950 . S
C1303 C1298 1.363 . S
C1303 C1302 1.415 . S
H1304 C1301 0.999 . S
H1305 C1286 0.913 . S
H1306 C1324 0.951 . S
H1307 C1326 0.951 . S
H1308 C1328 0.950 . S
H1309 C1329 0.950 . S
H1310 C1331 0.950 . S
H1311 C1334 0.950 . S
H1312 C1335 0.950 . S
H1313 C1337 0.950 . S
H1314 C1338 0.950 . S
H1315 C1339 0.951 . S
H1316 C1341 0.951 . S
H1317 C1343 0.950 . S
H1318 C1344 0.950 . S
H1319 C1346 0.950 . S
H1320 C1349 0.950 . S
H1321 C1350 0.950 . S
H1322 C1352 0.950 . S
H1323 C1353 0.950 . S
C1324 H1306 0.951 . S
C1324 C1325 1.366 . S
C1324 C1326 1.388 . S
C1325 C1324 1.366 . S
C1325 C1329 1.385 . S
C1326 H1307 0.951 . S
C1326 C1324 1.388 . S
C1326 C1327 1.366 . S
C1327 C1326 1.366 . S
C1327 C1328 1.414 . S
C1327 C1330 1.499 . S
C1328 H1308 0.950 . S
C1328 C1327 1.414 . S
C1328 C1329 1.374 . S
C1329 H1309 0.950 . S
C1329 C1325 1.385 . S
C1329 C1328 1.374 . S
C1330 C1327 1.499 . S
C1330 C1331 1.373 . S
C1330 C1332 1.389 . S
C1331 H1310 0.950 . S
C1331 C1330 1.373 . S
C1331 C1347 1.377 . S
C1332 C1330 1.389 . S
C1332 C1333 1.524 . S
C1332 C1346 1.377 . S
C1333 C1332 1.524 . S
C1333 C1334 1.397 . S
C1333 C1338 1.363 . S
C1334 H1311 0.950 . S
C1334 C1333 1.397 . S
C1334 C1335 1.334 . S
C1335 H1312 0.950 . S
C1335 C1334 1.334 . S
C1335 C1336 1.287 . S
C1336 C1335 1.287 . S
C1336 C1337 1.524 . S
C1336 H1355 0.913 . S
C1337 H1313 0.950 . S
C1337 C1336 1.524 . S
C1337 C1338 1.415 . S
C1338 H1314 0.950 . S
C1338 C1333 1.363 . S
C1338 C1337 1.415 . S
C1339 H1315 0.951 . S
C1339 C1340 1.366 . S
C1339 C1341 1.388 . S
C1340 C1339 1.366 . S
C1340 C1344 1.385 . S
C1341 H1316 0.951 . S
C1341 C1339 1.388 . S
C1341 C1342 1.366 . S
C1342 C1341 1.366 . S
C1342 C1343 1.414 . S
C1342 C1345 1.499 . S
C1343 H1317 0.950 . S
C1343 C1342 1.414 . S
C1343 C1344 1.374 . S
C1344 H1318 0.950 . S
C1344 C1340 1.385 . S
C1344 C1343 1.374 . S
C1345 C1342 1.499 . S
C1345 C1346 1.373 . S
C1345 C1347 1.389 . S
C1346 H1319 0.950 . S
C1346 C1332 1.377 . S
C1346 C1345 1.373 . S
C1347 C1331 1.377 . S
C1347 C1345 1.389 . S
C1347 C1348 1.524 . S
C1348 C1347 1.524 . S
C1348 C1349 1.397 . S
C1348 C1353 1.363 . S
C1349 H1320 0.950 . S
C1349 C1348 1.397 . S
C1349 C1350 1.334 . S
C1350 H1321 0.950 . S
C1350 C1349 1.334 . S
C1350 C1351 1.287 . S
C1351 C1350 1.287 . S
C1351 C1352 1.524 . S
C1351 H1354 0.999 . S
C1352 H1322 0.950 . S
C1352 C1351 1.524 . S
C1352 C1353 1.415 . S
C1353 H1323 0.950 . S
C1353 C1348 1.363 . S
C1353 C1352 1.415 . S
H1354 C1351 0.999 . S
H1355 C1336 0.913 . S
C175 C10 1.277 . S
C190 C88 1.278 . S
C225 C23 1.277 . S
C240 C101 1.277 . S
C275 C36 1.250 . S
C290 C114 1.251 . S
C325 C127 1.278 . S
C340 C49 1.276 . S
C375 C62 1.278 . S
C390 C140 1.276 . S
C425 C153 1.250 . S
C440 C75 1.251 . S
C475 C8 0.620 . S
C490 C125 0.620 . S
C525 C21 0.619 . S
C540 C138 0.619 . S
C575 C151 0.609 . S
C590 C34 0.604 . S
C625 C86 0.620 . S
C640 C47 0.619 . S
C675 C60 0.618 . S
C690 C99 0.617 . S
C725 C73 0.608 . S
C740 C112 0.602 . S
C775 C143 1.881 . S
C790 C0 1.876 . S
C825 C13 1.925 . S
C840 C78 1.925 . S
C875 C26 1.881 . S
C890 C91 1.876 . S
C925 C104 1.881 . S
C940 C39 1.876 . S
C975 C117 1.926 . S
C990 C52 1.925 . S
C1025 C65 1.880 . S
C1040 C130 1.876 . S
C1075 C5 0.655 . S
C1090 C135 0.657 . S
C1125 C148 0.636 . S
C1140 C18 0.639 . S
C1175 C83 0.638 . S
C1190 C31 0.637 . S
C1225 C44 0.653 . S
C1240 C96 0.654 . S
C1275 C109 0.640 . S
C1290 C57 0.642 . S
C1325 C122 0.640 . S
C1340 C70 0.642 . S
