# Generated by pormake.
# Topology snz, (6)-cn, num edge types: 1
# Building blocks:
#     Node 0, Type 0, BuildingBlock: BETDEL_clean_sbu_0, # of connection points: 6
#     Node 1, Type 0, BuildingBlock: BETDEL_clean_sbu_0, # of connection points: 6
#     Node 2, Type 0, BuildingBlock: BETDEL_clean_sbu_0, # of connection points: 6
#     Node 3, Type 0, BuildingBlock: BETDEL_clean_sbu_0, # of connection points: 6
#     Node 4, Type 0, BuildingBlock: BETDEL_clean_sbu_0, # of connection points: 6
#     Node 5, Type 0, BuildingBlock: BETDEL_clean_sbu_0, # of connection points: 6
#     Node 6, Type 0, BuildingBlock: BETDEL_clean_sbu_0, # of connection points: 6
#     Node 7, Type 0, BuildingBlock: BETDEL_clean_sbu_0, # of connection points: 6
#     Node 8, Type 0, BuildingBlock: BETDEL_clean_sbu_0, # of connection points: 6
#     Edge 9, Type (0, 0), BuildingBlock: UVAHIK_clean_linker_0, # of connection points: 2
#     Edge 10, Type (0, 0), BuildingBlock: UVAHIK_clean_linker_0, # of connection points: 2
#     Edge 11, Type (0, 0), BuildingBlock: UVAHIK_clean_linker_0, # of connection points: 2
#     Edge 12, Type (0, 0), BuildingBlock: UVAHIK_clean_linker_0, # of connection points: 2
#     Edge 13, Type (0, 0), BuildingBlock: UVAHIK_clean_linker_0, # of connection points: 2
#     Edge 14, Type (0, 0), BuildingBlock: UVAHIK_clean_linker_0, # of connection points: 2
#     Edge 15, Type (0, 0), BuildingBlock: UVAHIK_clean_linker_0, # of connection points: 2
#     Edge 16, Type (0, 0), BuildingBlock: UVAHIK_clean_linker_0, # of connection points: 2
#     Edge 17, Type (0, 0), BuildingBlock: UVAHIK_clean_linker_0, # of connection points: 2
#     Edge 18, Type (0, 0), BuildingBlock: UVAHIK_clean_linker_0, # of connection points: 2
#     Edge 19, Type (0, 0), BuildingBlock: UVAHIK_clean_linker_0, # of connection points: 2
#     Edge 20, Type (0, 0), BuildingBlock: UVAHIK_clean_linker_0, # of connection points: 2
#     Edge 21, Type (0, 0), BuildingBlock: UVAHIK_clean_linker_0, # of connection points: 2
#     Edge 22, Type (0, 0), BuildingBlock: UVAHIK_clean_linker_0, # of connection points: 2
#     Edge 23, Type (0, 0), BuildingBlock: UVAHIK_clean_linker_0, # of connection points: 2
#     Edge 24, Type (0, 0), BuildingBlock: UVAHIK_clean_linker_0, # of connection points: 2
#     Edge 25, Type (0, 0), BuildingBlock: UVAHIK_clean_linker_0, # of connection points: 2
#     Edge 26, Type (0, 0), BuildingBlock: UVAHIK_clean_linker_0, # of connection points: 2
#     Edge 27, Type (0, 0), BuildingBlock: UVAHIK_clean_linker_0, # of connection points: 2
#     Edge 28, Type (0, 0), BuildingBlock: UVAHIK_clean_linker_0, # of connection points: 2
#     Edge 29, Type (0, 0), BuildingBlock: UVAHIK_clean_linker_0, # of connection points: 2
#     Edge 30, Type (0, 0), BuildingBlock: UVAHIK_clean_linker_0, # of connection points: 2
#     Edge 31, Type (0, 0), BuildingBlock: UVAHIK_clean_linker_0, # of connection points: 2
#     Edge 32, Type (0, 0), BuildingBlock: UVAHIK_clean_linker_0, # of connection points: 2
#     Edge 33, Type (0, 0), BuildingBlock: UVAHIK_clean_linker_0, # of connection points: 2
#     Edge 34, Type (0, 0), BuildingBlock: UVAHIK_clean_linker_0, # of connection points: 2
#     Edge 35, Type (0, 0), BuildingBlock: UVAHIK_clean_linker_0, # of connection points: 2
# Relax obj value: 0.167
# Max RMSD: 0.226
# Mean RMSD: 0.174
data_MOF--net-snz--node1-BETDEL_clean_sbu_0--edge1-UVAHIK_clean_linker_0
_symmetry_space_group_name_H-M    P1
_symmetry_Int_Tables_number       1
_symmetry_cell_setting            triclinic
loop_
_symmetry_equiv_pos_as_xyz
'x, y, z'
_cell_length_a     66.249997
_cell_length_b     67.775744
_cell_length_c     18.993557
_cell_angle_alpha  92.056681
_cell_angle_beta   92.352429
_cell_angle_gamma 120.12609
loop_
_atom_site_label
_atom_site_type_symbol
_atom_site_fract_x
_atom_site_fract_y
_atom_site_fract_z
_atom_type_partial_charge
Dy0 Dy 0.07058 0.47985 0.04914 0.0
C1 C 0.99936 0.49938 0.96479 0.0
C2 C 0.10083 0.46747 0.10546 0.0
Dy3 Dy 0.02882 0.4853 0.01678 0.0
O4 O 0.10388 0.47861 0.04899 0.0
O5 O 0.08136 0.46327 0.13151 0.0
O6 O 0.08503 0.49389 0.94598 0.0
O7 O 0.04872 0.47475 0.95278 0.0
C8 C 0.06473 0.48671 0.91322 0.0
C9 C 0.0348 0.47801 0.15214 0.0
O10 O 0.01122 0.44782 0.98776 0.0
O11 O 0.04107 0.44329 0.03792 0.0
O12 O 1.00121 0.49499 0.02987 0.0
O13 O 0.01318 0.49551 0.92768 0.0
O14 O 0.01443 0.47013 0.11882 0.0
O15 O 0.05076 0.49047 0.11305 0.0
O16 O 0.08708 0.51686 0.08158 0.0
O17 O 0.05918 0.52138 0.01893 0.0
C18 C 0.0196 0.43464 0.00801 0.0
C19 C 0.07993 0.53008 0.05364 0.0
Dy20 Dy 0.59053 0.52266 0.08472 0.0
C21 C 0.57353 0.43468 0.99132 0.0
C22 C 0.60084 0.56438 0.14245 0.0
Dy23 Dy 0.58635 0.47686 0.05181 0.0
O24 O 0.58747 0.55422 0.08554 0.0
O25 O 0.60857 0.55171 0.16813 0.0
O26 O 0.57532 0.52174 0.97574 0.0
O27 O 0.59569 0.50648 0.99084 0.0
C28 C 0.58296 0.50939 0.94627 0.0
C29 C 0.59461 0.49068 0.1897 0.0
O30 O 0.62426 0.49851 0.03482 0.0
O31 O 0.62855 0.53222 0.08553 0.0
O32 O 0.57746 0.44025 0.05865 0.0
O33 O 0.57709 0.45226 0.95721 0.0
O34 O 0.60284 0.47888 0.15958 0.0
O35 O 0.58129 0.49311 0.14591 0.0
O36 O 0.55316 0.50004 0.10732 0.0
O37 O 0.54889 0.46861 0.04205 0.0
C38 C 0.63756 0.52021 0.05832 0.0
C39 C 0.53975 0.47951 0.07518 0.0
Dy40 Dy 0.54516 0.00908 0.11104 0.0
C41 C 0.6379 0.07199 0.04583 0.0
C42 C 0.50134 0.98134 0.15437 0.0
Dy43 Dy 0.59418 0.04762 0.0937 0.0
O44 O 0.50995 0.97692 0.09989 0.0
O45 O 0.51673 0.0009 0.18561 0.0
O46 O 0.54336 0.99411 0.00169 0.0
O47 O 0.56288 0.0295 0.02254 0.0
C48 C 0.55772 0.01349 0.97673 0.0
C49 C 0.58173 0.04325 0.22797 0.0
O50 O 0.57462 0.06523 0.06232 0.0
O51 O 0.54041 0.03981 0.11214 0.0
O52 O 0.63038 0.07886 0.09811 0.0
O53 O 0.62139 0.05225 0.01914 0.0
O54 O 0.59617 0.06266 0.203 0.0
O55 O 0.57655 0.0272 0.18218 0.0
O56 O 0.56425 0.99078 0.13914 0.0
O57 O 0.59871 0.01687 0.09254 0.0
C58 C 0.55373 0.05959 0.08408 0.0
C59 C 0.58522 0.99671 0.11787 0.0
Dy60 Dy 0.76755 0.84649 0.36218 0.0
C61 C 0.69822 0.87003 0.28877 0.0
C62 C 0.79344 0.8293 0.42014 0.0
Dy63 Dy 0.72778 0.855 0.33109 0.0
O64 O 0.80031 0.844 0.37171 0.0
O65 O 0.77283 0.82452 0.43757 0.0
O66 O 0.78255 0.85941 0.25865 0.0
O67 O 0.74625 0.84288 0.26589 0.0
C68 C 0.76259 0.85392 0.22626 0.0
C69 C 0.73291 0.8463 0.46574 0.0
O70 O 0.70763 0.81749 0.30376 0.0
O71 O 0.73627 0.81087 0.35187 0.0
O72 O 0.70576 0.87071 0.35331 0.0
O73 O 0.70678 0.86101 0.24655 0.0
O74 O 0.71276 0.83936 0.43225 0.0
O75 O 0.74913 0.85844 0.42714 0.0
O76 O 0.78489 0.88342 0.39846 0.0
O77 O 0.75972 0.88992 0.32855 0.0
C78 C 0.71478 0.80339 0.32403 0.0
C79 C 0.77949 0.89761 0.36807 0.0
Dy80 Dy 0.21096 0.85884 0.30753 0.0
C81 C 0.19502 0.77082 0.21666 0.0
C82 C 0.22431 0.9008 0.37077 0.0
Dy83 Dy 0.20608 0.81279 0.27392 0.0
O84 O 0.21927 0.89537 0.30352 0.0
O85 O 0.22161 0.88323 0.40328 0.0
O86 O 0.19476 0.85749 0.19997 0.0
O87 O 0.21564 0.84245 0.21291 0.0
C88 C 0.20257 0.84537 0.16946 0.0
C89 C 0.21378 0.82605 0.41258 0.0
O90 O 0.24338 0.8349 0.2503 0.0
O91 O 0.24841 0.8668 0.31467 0.0
O92 O 0.20871 0.78101 0.27298 0.0
O93 O 0.18741 0.7836 0.19125 0.0
O94 O 0.22127 0.8136 0.38301 0.0
O95 O 0.20113 0.82903 0.36793 0.0
O96 O 0.17297 0.8374 0.32478 0.0
O97 O 0.16825 0.80374 0.27233 0.0
C98 C 0.25714 0.85551 0.28152 0.0
C99 C 0.15946 0.81582 0.30031 0.0
Dy100 Dy 0.20223 0.28622 0.25982 0.0
C101 C 0.29549 0.35117 0.19864 0.0
C102 C 0.15833 0.26245 0.307 0.0
Dy103 Dy 0.2516 0.32391 0.24207 0.0
O104 O 0.16588 0.2552 0.25579 0.0
O105 O 0.17488 0.28226 0.33302 0.0
O106 O 0.19953 0.27114 0.15012 0.0
O107 O 0.22007 0.30654 0.17121 0.0
C108 C 0.21429 0.29041 0.12519 0.0
C109 C 0.23906 0.31976 0.37651 0.0
O110 O 0.23314 0.34283 0.21435 0.0
O111 O 0.19907 0.31775 0.26479 0.0
O112 O 0.28721 0.35555 0.25397 0.0
O113 O 0.27976 0.33189 0.16665 0.0
O114 O 0.25368 0.33905 0.35152 0.0
O115 O 0.23366 0.30372 0.33061 0.0
O116 O 0.22113 0.26799 0.29148 0.0
O117 O 0.25554 0.29268 0.24133 0.0
C118 C 0.21272 0.3377 0.2385 0.0
C119 C 0.24191 0.27309 0.26992 0.0
Dy120 Dy 0.40839 0.16404 0.61957 0.0
C121 C 0.3753 0.18716 0.86398 0.0
C122 C 0.42038 0.1469 0.50722 0.0
Dy123 Dy 0.38772 0.17064 0.7511 0.0
O124 O 0.43318 0.16716 0.53829 0.0
O125 O 0.40111 0.13595 0.53882 0.0
O126 O 0.42852 0.20188 0.61005 0.0
O127 O 0.42217 0.18866 0.71057 0.0
C128 C 0.4305 0.20667 0.67774 0.0
C129 C 0.36573 0.12804 0.69223 0.0
O130 O 0.37425 0.18539 0.67061 0.0
O131 O 0.38274 0.17222 0.56778 0.0
O132 O 0.3625 0.16715 0.83133 0.0
O133 O 0.39478 0.19824 0.83347 0.0
O134 O 0.36777 0.13269 0.76 0.0
O135 O 0.37398 0.14614 0.66002 0.0
O136 O 0.42212 0.14955 0.70054 0.0
O137 O 0.4134 0.16265 0.80303 0.0
C138 C 0.37271 0.18224 0.60086 0.0
C139 C 0.42353 0.15267 0.77031 0.0
Dy140 Dy 0.91269 0.16713 0.73697 0.0
C141 C 0.85729 0.15924 0.4898 0.0
C142 C 0.93783 0.17367 0.86119 0.0
Dy143 Dy 0.88308 0.16745 0.61366 0.0
O144 O 0.9248 0.15412 0.82626 0.0
O145 O 0.93693 0.18963 0.82793 0.0
O146 O 0.91515 0.13892 0.68107 0.0
O147 O 0.88415 0.14031 0.66802 0.0
C148 C 0.89458 0.12998 0.6484 0.0
C149 C 0.90144 0.20491 0.70127 0.0
O150 O 0.85523 0.15211 0.68844 0.0
O151 O 0.88 0.1608 0.78898 0.0
O152 O 0.8705 0.17923 0.52213 0.0
O153 O 0.85842 0.14378 0.52528 0.0
O154 O 0.8811 0.19631 0.6672 0.0
O155 O 0.9116 0.19423 0.68252 0.0
O156 O 0.94069 0.18327 0.66301 0.0
O157 O 0.91596 0.17408 0.56205 0.0
C158 C 0.85899 0.15379 0.75781 0.0
C159 C 0.93702 0.18145 0.59356 0.0
Dy160 Dy 0.88392 0.65063 0.61723 0.0
C161 C 0.93956 0.69755 0.86857 0.0
C162 C 0.85824 0.63351 0.49198 0.0
Dy163 Dy 0.91422 0.67995 0.74289 0.0
O164 O 0.8707 0.62593 0.52225 0.0
O165 O 0.86003 0.65061 0.53038 0.0
O166 O 0.87912 0.6193 0.66648 0.0
O167 O 0.91117 0.65021 0.68491 0.0
C168 C 0.8995 0.62967 0.70087 0.0
C169 C 0.89816 0.70048 0.65869 0.0
O170 O 0.94218 0.68951 0.66906 0.0
O171 O 0.91753 0.67436 0.56721 0.0
O172 O 0.92748 0.70522 0.83643 0.0
O173 O 0.93765 0.68014 0.83162 0.0
O174 O 0.91878 0.71104 0.69164 0.0
O175 O 0.88679 0.68011 0.67597 0.0
O176 O 0.85599 0.64087 0.69142 0.0
O177 O 0.88062 0.65647 0.7932 0.0
C178 C 0.93868 0.68711 0.59956 0.0
C179 C 0.85948 0.64357 0.76093 0.0
C180 C 0.08057 0.49858 0.79508 0.0
C181 C 0.06122 0.48692 0.83574 0.0
C182 C 0.0776 0.49779 0.72144 0.0
C183 C 0.03595 0.46311 0.57026 0.0
H184 H 0.07378 0.51663 0.46749 0.0
C185 C 0.01884 0.4659 0.2701 0.0
C186 C 0.03823 0.47769 0.22963 0.0
C187 C 0.02175 0.46666 0.34376 0.0
C188 C 0.06328 0.50143 0.49521 0.0
H189 H 0.02348 0.46567 0.83129 0.0
H190 H 0.01818 0.46446 0.70264 0.0
H191 H 0.0782 0.51925 0.5961 0.0
H192 H 0.07596 0.49906 0.23445 0.0
H193 H 0.08113 0.50021 0.36311 0.0
H194 H 0.02104 0.44528 0.46938 0.0
C195 C 0.03574 0.47396 0.72754 0.0
C196 C 0.06578 0.50294 0.56913 0.0
C197 C 0.03874 0.47479 0.80132 0.0
C198 C 0.06067 0.48988 0.26427 0.0
C199 C 0.0636 0.49066 0.33806 0.0
C200 C 0.03345 0.46159 0.49633 0.0
C201 C 0.05516 0.4853 0.68653 0.0
C202 C 0.05216 0.48381 0.60772 0.0
C203 C 0.04414 0.47923 0.37889 0.0
C204 C 0.04708 0.48073 0.45774 0.0
H205 H 0.09812 0.50806 0.8201 0.0
H206 H 0.09298 0.50652 0.69176 0.0
H207 H 0.02545 0.44791 0.59801 0.0
H208 H 1.00132 0.45638 0.24493 0.0
H209 H 0.00634 0.45785 0.37329 0.0
C210 C 0.57074 0.51257 0.8226 0.0
C211 C 0.58297 0.50587 0.86877 0.0
C212 C 0.57187 0.51064 0.74939 0.0
C213 C 0.60859 0.50617 0.61435 0.0
H214 H 0.55403 0.4883 0.48736 0.0
C215 C 0.60714 0.48742 0.31304 0.0
C216 C 0.5949 0.49425 0.26733 0.0
C217 C 0.60613 0.48929 0.38636 0.0
C218 C 0.56953 0.49361 0.52196 0.0
H219 H 0.60564 0.49143 0.87439 0.0
H220 H 0.60739 0.48773 0.74659 0.0
H221 H 0.5508 0.48969 0.61457 0.0
H222 H 0.57252 0.50902 0.26268 0.0
H223 H 0.57092 0.51254 0.39059 0.0
H224 H 0.62731 0.51007 0.52168 0.0
C225 C 0.59718 0.49483 0.76686 0.0
C226 C 0.56766 0.49438 0.59509 0.0
C227 C 0.59602 0.49676 0.84014 0.0
C228 C 0.58206 0.5035 0.29655 0.0
C229 C 0.58101 0.50535 0.36989 0.0
C230 C 0.61045 0.50539 0.54119 0.0
C231 C 0.58529 0.50194 0.72044 0.0
C232 C 0.58717 0.5007 0.64237 0.0
C233 C 0.59284 0.49805 0.41583 0.0
C234 C 0.59096 0.49913 0.49392 0.0
H235 H 0.56056 0.5197 0.84308 0.0
H236 H 0.56269 0.51653 0.71556 0.0
H237 H 0.62409 0.5115 0.64895 0.0
H238 H 0.61718 0.4802 0.29212 0.0
H239 H 0.61529 0.48329 0.41985 0.0
C240 C 0.57395 0.03866 0.87566 0.0
C241 C 0.56148 0.01666 0.90054 0.0
C242 C 0.5763 0.04157 0.80313 0.0
C243 C 0.54892 0.01156 0.62782 0.0
H244 H 0.60684 0.05843 0.55865 0.0
C245 C 0.56539 0.01817 0.3292 0.0
C246 C 0.57795 0.04014 0.30418 0.0
C247 C 0.56302 0.01532 0.40175 0.0
C248 C 0.59042 0.04543 0.57701 0.0
H249 H 0.5422 0.98047 0.86913 0.0
H250 H 0.54649 0.98548 0.74294 0.0
H251 H 0.60398 0.05351 0.68505 0.0
H252 H 0.59733 0.07635 0.33539 0.0
H253 H 0.59299 0.07144 0.4616 0.0
H254 H 0.53536 0.00348 0.51979 0.0
C255 C 0.55413 0.00054 0.77911 0.0
C256 C 0.58879 0.04259 0.64969 0.0
C257 C 0.55181 0.99764 0.85155 0.0
C258 C 0.58767 0.05919 0.35307 0.0
C259 C 0.58532 0.05635 0.42553 0.0
C260 C 0.55055 0.01439 0.55514 0.0
C261 C 0.56622 0.02255 0.75374 0.0
C262 C 0.56802 0.0256 0.67616 0.0
C263 C 0.57315 0.03437 0.45104 0.0
C264 C 0.57133 0.03137 0.52865 0.0
H265 H 0.58159 0.05365 0.91214 0.0
H266 H 0.58555 0.05878 0.78569 0.0
H267 H 0.5325 0.99855 0.64619 0.0
H268 H 0.55771 0.00316 0.2928 0.0
H269 H 0.5537 0.99812 0.41929 0.0
C270 C 0.75864 0.85665 0.57746 0.0
C271 C 0.73615 0.8456 0.54306 0.0
C272 C 0.76155 0.85726 0.65116 0.0
C273 C 0.73049 0.8295 0.80974 0.0
H274 H 0.77794 0.88608 0.90893 0.0
C275 C 0.73673 0.84347 0.11459 0.0
C276 C 0.75925 0.85427 0.14878 0.0
C277 C 0.73377 0.84268 0.04083 0.0
C278 C 0.76475 0.87007 0.88211 0.0
H279 H 0.69909 0.82609 0.55859 0.0
H280 H 0.70408 0.8273 0.68693 0.0
H281 H 0.77338 0.88351 0.78036 0.0
H282 H 0.79631 0.87315 0.13274 0.0
H283 H 0.79121 0.87172 0.00437 0.0
H284 H 0.72184 0.81609 0.91156 0.0
C285 C 0.71953 0.83533 0.65726 0.0
C286 C 0.76216 0.86857 0.80822 0.0
C287 C 0.71665 0.83473 0.58363 0.0
C288 C 0.77872 0.8647 0.10789 0.0
C289 C 0.77579 0.86397 0.03426 0.0
C290 C 0.73306 0.83101 0.88364 0.0
C291 C 0.74201 0.84681 0.69217 0.0
C292 C 0.745 0.84826 0.77096 0.0
C293 C 0.75327 0.85277 0.99962 0.0
C294 C 0.75024 0.85131 0.92086 0.0
H295 H 0.77401 0.86509 0.54751 0.0
H296 H 0.77913 0.86593 0.67602 0.0
H297 H 0.71731 0.81348 0.78294 0.0
H298 H 0.72138 0.83533 0.14474 0.0
H299 H 0.71618 0.83421 0.01608 0.0
C300 C 0.20079 0.8388 0.51872 0.0
C301 C 0.21368 0.8295 0.4901 0.0
C302 C 0.19957 0.84068 0.59199 0.0
C303 C 0.20695 0.81659 0.75729 0.0
H304 H 0.20835 0.86936 0.84862 0.0
C305 C 0.21453 0.83212 0.06215 0.0
C306 C 0.20211 0.84179 0.09175 0.0
C307 C 0.21538 0.83017 0.98875 0.0
C308 C 0.20761 0.85434 0.82395 0.0
H309 H 0.23586 0.81542 0.51586 0.0
H310 H 0.23395 0.81889 0.64348 0.0
H311 H 0.21147 0.8675 0.72137 0.0
H312 H 0.18031 0.8564 0.06753 0.0
H313 H 0.18149 0.85272 0.9396 0.0
H314 H 0.20308 0.80341 0.85977 0.0
C315 C 0.22444 0.82439 0.60949 0.0
C316 C 0.20944 0.8533 0.75081 0.0
C317 C 0.22569 0.82255 0.5363 0.0
C318 C 0.19012 0.84897 0.04634 0.0
C319 C 0.19096 0.84702 0.97295 0.0
C320 C 0.2051 0.81762 0.83039 0.0
C321 C 0.21118 0.83326 0.6384 0.0
C322 C 0.20919 0.83443 0.71644 0.0
C323 C 0.20381 0.83781 0.94308 0.0
C324 C 0.20544 0.83653 0.86485 0.0
H325 H 0.19126 0.84422 0.48444 0.0
H326 H 0.18901 0.8474 0.61214 0.0
H327 H 0.20626 0.80159 0.73261 0.0
H328 H 0.22397 0.82644 0.09578 0.0
H329 H 0.22563 0.82319 0.96793 0.0
C330 C 0.22225 0.29465 0.47738 0.0
C331 C 0.23517 0.31663 0.45264 0.0
C332 C 0.21975 0.29174 0.54985 0.0
C333 C 0.22507 0.32289 0.72167 0.0
H334 H 0.22952 0.27321 0.80116 0.0
C335 C 0.23113 0.31542 0.02409 0.0
C336 C 0.21808 0.29348 0.04897 0.0
C337 C 0.23357 0.31827 0.95156 0.0
C338 C 0.22799 0.28704 0.77983 0.0
H339 H 0.25523 0.35278 0.48428 0.0
H340 H 0.25107 0.34776 0.61045 0.0
H341 H 0.23223 0.2779 0.67461 0.0
H342 H 0.19776 0.25732 0.01748 0.0
H343 H 0.20184 0.26225 0.89123 0.0
H344 H 0.22085 0.33204 0.8269 0.0
C345 C 0.24264 0.33273 0.57412 0.0
C346 C 0.22951 0.28971 0.70706 0.0
C347 C 0.24514 0.33563 0.50172 0.0
C348 C 0.20793 0.27445 -5e-05 0.0
C349 C 0.21039 0.27729 0.92751 0.0
C350 C 0.22356 0.32022 0.79444 0.0
C351 C 0.23007 0.31074 0.59934 0.0
C352 C 0.22808 0.30768 0.67689 0.0
C353 C 0.22307 0.29925 0.90217 0.0
C354 C 0.225 0.30226 0.82461 0.0
H355 H 0.21427 0.27968 0.44078 0.0
H356 H 0.20963 0.27457 0.56707 0.0
H357 H 0.22353 0.33671 0.70036 0.0
H358 H 0.23925 0.33041 0.06062 0.0
H359 H 0.24377 0.33541 0.93422 0.0
C360 C 0.43986 0.15906 0.39636 0.0
C361 C 0.42211 0.14189 0.43279 0.0
C362 C 0.43536 0.16163 0.32604 0.0
C363 C 0.38298 0.15425 0.23835 0.0
H364 H 0.42286 0.18531 0.08843 0.0
C365 C 0.35543 0.17396 0.97376 0.0
C366 C 0.37333 0.19151 0.93876 0.0
C367 C 0.35973 0.17066 0.0435 0.0
C368 C 0.41174 0.17709 0.13092 0.0
H369 H 0.38847 0.11056 0.42129 0.0
H370 H 0.38081 0.11478 0.29792 0.0
H371 H 0.43558 0.16753 0.17543 0.0
H372 H 0.40702 0.22272 0.95269 0.0
H373 H 0.41433 0.21721 0.07505 0.0
H374 H 0.35915 0.16383 0.19385 0.0
C375 C 0.39766 0.12689 0.32418 0.0
C376 C 0.41886 0.16658 0.17978 0.0
C377 C 0.40216 0.12436 0.39458 0.0
C378 C 0.39322 0.20865 0.97823 0.0
C379 C 0.39753 0.20538 0.04801 0.0
C380 C 0.37585 0.16474 0.18945 0.0
C381 C 0.41323 0.14681 0.29206 0.0
C382 C 0.40455 0.15507 0.23398 0.0
C383 C 0.3818 0.18513 0.07834 0.0
C384 C 0.39022 0.17636 0.13553 0.0
H385 H 0.45569 0.17248 0.42454 0.0
H386 H 0.44792 0.17693 0.30208 0.0
H387 H 0.37187 0.14608 0.28093 0.0
H388 H 0.33965 0.16083 0.94464 0.0
H389 H 0.34706 0.15512 0.06617 0.0
C390 C 0.85694 0.17549 0.37627 0.0
C391 C 0.85045 0.15606 0.41427 0.0
C392 C 0.86271 0.17546 0.30666 0.0
C393 C 0.89318 0.15031 0.22888 0.0
H394 H 0.89918 0.18838 0.07482 0.0
C395 C 0.93672 0.15563 0.97219 0.0
C396 C 0.94379 0.1757 0.93706 0.0
C397 C 0.92981 0.1545 0.04085 0.0
C398 C 0.89799 0.17809 0.11854 0.0
H399 H 0.83907 0.11993 0.4062 0.0
H400 H 0.8488 0.11977 0.28402 0.0
H401 H 0.86864 0.17938 0.15618 0.0
H402 H 0.95503 0.21174 0.95002 0.0
H403 H 0.94329 0.20986 0.07054 0.0
H404 H 0.92256 0.14905 0.19118 0.0
C405 C 0.85044 0.13525 0.30846 0.0
C406 C 0.88025 0.17261 0.16407 0.0
C407 C 0.84473 0.13531 0.37817 0.0
C408 C 0.94895 0.19589 0.97572 0.0
C409 C 0.94208 0.19478 0.04443 0.0
C410 C 0.9109 0.15576 0.18325 0.0
C411 C 0.86174 0.15591 0.27516 0.0
C412 C 0.87773 0.15873 0.21977 0.0
C413 C 0.93027 0.17354 0.07428 0.0
C414 C 0.91357 0.16985 0.12807 0.0
H415 H 0.86088 0.19156 0.40286 0.0
H416 H 0.87097 0.19155 0.28169 0.0
H417 H 0.8921 0.14012 0.27277 0.0
H418 H 0.93319 0.13997 0.94365 0.0
H419 H 0.92117 0.13799 0.06334 0.0
C420 C 0.85828 0.61673 0.37492 0.0
C421 C 0.85169 0.62986 0.4162 0.0
C422 C 0.86429 0.62232 0.30612 0.0
C423 C 0.89492 0.67728 0.23699 0.0
H424 H 0.90089 0.64464 0.07517 0.0
C425 C 0.93848 0.71448 0.98416 0.0
C426 C 0.94543 0.70129 0.94474 0.0
C427 C 0.93154 0.70882 0.05222 0.0
C428 C 0.89972 0.65391 0.12104 0.0
H429 H 0.84041 0.65484 0.41434 0.0
H430 H 0.85052 0.66434 0.2935 0.0
H431 H 0.87044 0.6238 0.15549 0.0
H432 H 0.95641 0.67612 0.94978 0.0
H433 H 0.9447 0.66652 0.06937 0.0
H434 H 0.92423 0.70739 0.20255 0.0
C435 C 0.85207 0.65051 0.31488 0.0
C436 C 0.88203 0.64203 0.16603 0.0
C437 C 0.84614 0.64496 0.38379 0.0
C438 C 0.95042 0.68606 0.97881 0.0
C439 C 0.94355 0.68043 0.04696 0.0
C440 C 0.91261 0.68916 0.19195 0.0
C441 C 0.86344 0.64087 0.27865 0.0
C442 C 0.87949 0.65361 0.22446 0.0
C443 C 0.93187 0.69016 0.08085 0.0
C444 C 0.91525 0.67755 0.13388 0.0
H445 H 0.8621 0.60455 0.39857 0.0
H446 H 0.87261 0.61429 0.27879 0.0
H447 H 0.89383 0.68655 0.28298 0.0
H448 H 0.93507 0.72676 0.95926 0.0
H449 H 0.92299 0.71691 0.07786 0.0
C450 C 0.18497 0.35069 0.27107 0.0
C451 C 0.20408 0.35393 0.23328 0.0
C452 C 0.17581 0.36512 0.26398 0.0
C453 C 0.18791 0.42083 0.19956 0.0
H454 H 0.12022 0.39134 0.18734 0.0
C455 C 0.13574 0.46287 0.09628 0.0
C456 C 0.11571 0.45846 0.13097 0.0
C457 C 0.14836 0.45222 0.11541 0.0
C458 C 0.13915 0.3999 0.19167 0.0
H459 H 0.22896 0.37521 0.15961 0.0
H460 H 0.21255 0.40019 0.14581 0.0
H461 H 0.13873 0.36865 0.20662 0.0
H462 H 0.09373 0.44038 0.21476 0.0
H463 H 0.11579 0.42177 0.24834 0.0
H464 H 0.18811 0.45205 0.18262 0.0
C465 C 0.20489 0.38667 0.18187 0.0
C466 C 0.14979 0.38689 0.20278 0.0
C467 C 0.21423 0.3723 0.18949 0.0
C468 C 0.10906 0.44398 0.18698 0.0
C469 C 0.1216 0.43325 0.20591 0.0
C470 C 0.17722 0.43385 0.18796 0.0
C471 C 0.18536 0.38303 0.21834 0.0
C472 C 0.17429 0.39717 0.20703 0.0
C473 C 0.14109 0.43688 0.16931 0.0
C474 C 0.15272 0.4235 0.18403 0.0
H475 H 0.17695 0.33689 0.30607 0.0
H476 H 0.16111 0.36214 0.29412 0.0
H477 H 0.20683 0.42932 0.20331 0.0
H478 H 0.14122 0.47399 0.05289 0.0
H479 H 0.16321 0.45523 0.08598 0.0
C480 C 0.59793 0.59959 0.13852 0.0
C481 C 0.60768 0.58761 0.1702 0.0
C482 C 0.6057 0.62227 0.16102 0.0
C483 C 0.64008 0.66675 0.30575 0.0
H484 H 0.65186 0.70853 0.15788 0.0
C485 C 0.70471 0.76338 0.34473 0.0
C486 C 0.6988 0.77842 0.31322 0.0
C487 C 0.6904 0.73979 0.33219 0.0
C488 C 0.6483 0.69705 0.19989 0.0
H489 H 0.63267 0.58953 0.25132 0.0
H490 H 0.64664 0.62928 0.28988 0.0
H491 H 0.63258 0.66761 0.12731 0.0
H492 H 0.67291 0.78044 0.24495 0.0
H493 H 0.64791 0.73906 0.22264 0.0
H494 H 0.65661 0.6964 0.37796 0.0
C495 C 0.63272 0.62114 0.24845 0.0
C496 C 0.63722 0.67357 0.18244 0.0
C497 C 0.62484 0.59841 0.22614 0.0
C498 C 0.67797 0.76931 0.26997 0.0
C499 C 0.66371 0.74565 0.25694 0.0
C500 C 0.65127 0.69025 0.32314 0.0
C501 C 0.62348 0.63345 0.21544 0.0
C502 C 0.63333 0.65817 0.23501 0.0
C503 C 0.66989 0.73067 0.28753 0.0
C504 C 0.65585 0.70566 0.27024 0.0
H505 H 0.58455 0.59156 0.0955 0.0
H506 H 0.59795 0.63112 0.13526 0.0
H507 H 0.63696 0.65533 0.34767 0.0
H508 H 0.72058 0.7698 0.37859 0.0
H509 H 0.69578 0.72871 0.35582 0.0
C510 C 0.46245 0.94563 0.13848 0.0
C511 C 0.47717 0.96696 0.17452 0.0
C512 C 0.43911 0.93249 0.15438 0.0
C513 C 0.39733 0.92589 0.289 0.0
H514 H 0.35127 0.89515 0.13133 0.0
C515 C 0.29785 0.8882 0.31118 0.0
C516 C 0.28272 0.8669 0.27511 0.0
C517 C 0.32187 0.89948 0.30247 0.0
C518 C 0.36393 0.9034 0.17603 0.0
H519 H 0.4793 0.99119 0.25619 0.0
H520 H 0.43835 0.96848 0.28319 0.0
H521 H 0.39261 0.9166 0.10981 0.0
H522 H 0.28108 0.84057 0.2026 0.0
H523 H 0.32298 0.86028 0.18746 0.0
H524 H 0.36842 0.91298 0.35493 0.0
C525 C 0.44488 0.96167 0.24342 0.0
C526 C 0.38766 0.91567 0.16375 0.0
C527 C 0.4683 0.97475 0.22777 0.0
C528 C 0.29221 0.85696 0.23108 0.0
C529 C 0.31621 0.86831 0.22206 0.0
C530 C 0.37354 0.9137 0.30123 0.0
C531 C 0.42992 0.94048 0.20634 0.0
C532 C 0.40468 0.92709 0.22004 0.0
C533 C 0.33128 0.88977 0.25719 0.0
C534 C 0.35659 0.90233 0.24483 0.0
H535 H 0.46891 0.93917 0.09745 0.0
H536 H 0.42824 0.91608 0.12573 0.0
H537 H 0.40996 0.93421 0.33369 0.0
H538 H 0.29114 0.89634 0.34559 0.0
H539 H 0.33301 0.91608 0.32977 0.0
C540 C 0.52447 0.07191 0.10392 0.0
C541 C 0.54352 0.07407 0.06804 0.0
C542 C 0.51304 0.08359 0.08318 0.0
C543 C 0.5173 0.12864 0.96553 0.0
H544 H 0.44964 0.09447 0.96656 0.0
C545 C 0.45544 0.14331 0.78123 0.0
C546 C 0.43783 0.14564 0.8125 0.0
C547 C 0.46926 0.13697 0.82077 0.0
C548 C 0.46854 0.10431 0.9668 0.0
H549 H 0.56596 0.0906 0.9835 0.0
H550 H 0.54561 0.11022 0.94548 0.0
H551 H 0.4725 0.07934 0.02125 0.0
H552 H 0.42078 0.14305 0.90961 0.0
H553 H 0.44459 0.13118 0.97833 0.0
H554 H 0.51296 0.15291 0.9071 0.0
C555 C 0.53978 0.1001 0.99102 0.0
C556 C 0.48173 0.09575 0.99848 0.0
C557 C 0.55144 0.08874 0.0126 0.0
C558 C 0.43425 0.14141 0.88415 0.0
C559 C 0.4478 0.1346 0.92339 0.0
C560 C 0.50407 0.13697 0.93276 0.0
C561 C 0.52013 0.09737 0.02518 0.0
C562 C 0.5063 0.10762 0.99739 0.0
C563 C 0.46548 0.13243 0.89202 0.0
C564 C 0.47957 0.12473 0.93232 0.0
H565 H 0.51811 0.06087 0.14735 0.0
H566 H 0.49838 0.08147 0.11198 0.0
H567 H 0.53616 0.13857 0.96498 0.0
H568 H 0.45873 0.14659 0.72626 0.0
H569 H 0.48265 0.1352 0.79525 0.0
C570 C 0.90062 0.23863 0.75449 0.0
C571 C 0.91272 0.22681 0.7442 0.0
C572 C 0.91155 0.25999 0.79165 0.0
C573 C 0.9706 0.30865 0.84598 0.0
H574 H 0.93597 0.32887 0.95841 0.0
C575 C 0.01581 0.39597 0.0021 0.0
C576 C 0.00567 0.40963 0.9909 0.0
C577 C 0.00378 0.37282 0.97968 0.0
C578 C 0.9458 0.32344 0.92698 0.0
H579 H 0.94553 0.22773 0.76599 0.0
H580 H 0.9644 0.26461 0.83339 0.0
H581 H 0.91653 0.28961 0.90679 0.0
H582 H 0.97442 0.40932 0.95018 0.0
H583 H 0.95329 0.3687 0.9115 0.0
H584 H 0.9999 0.34243 0.86674 0.0
C585 C 0.94664 0.2577 0.8113 0.0
C586 C 0.93469 0.30099 0.89717 0.0
C587 C 0.93576 0.23644 0.77335 0.0
C588 C 0.98278 0.39933 0.95943 0.0
C589 C 0.97063 0.37605 0.93754 0.0
C590 C 0.98175 0.33097 0.87642 0.0
C591 C 0.93478 0.26993 0.82004 0.0
C592 C 0.94688 0.29336 0.85564 0.0
C593 C 0.98123 0.36271 0.94611 0.0
C594 C 0.96943 0.33866 0.9167 0.0
H595 H 0.88282 0.23161 0.73249 0.0
H596 H 0.90195 0.26898 0.79622 0.0
H597 H 0.98047 0.30362 0.81322 0.0
H598 H 0.03336 0.40325 0.02647 0.0
H599 H 0.01224 0.36287 0.98779 0.0
C600 C 0.83759 0.63941 0.87003 0.0
C601 C 0.83886 0.63108 0.80255 0.0
C602 C 0.81699 0.62796 0.90571 0.0
C603 C 0.7536 0.58544 0.86773 0.0
H604 H 0.75258 0.58142 0.07083 0.0
C605 C 0.67112 0.52225 0.99672 0.0
C606 C 0.66273 0.53225 0.04476 0.0
C607 C 0.69386 0.53471 0.97525 0.0
C608 C 0.75272 0.58254 0.01409 0.0
H609 H 0.82033 0.60349 0.72166 0.0
H610 H 0.78521 0.58316 0.78433 0.0
H611 H 0.79017 0.60252 0.01705 0.0
H612 H 0.67222 0.56275 0.11139 0.0
H613 H 0.71234 0.5844 0.07455 0.0
H614 H 0.7163 0.56488 0.86455 0.0
C615 C 0.79944 0.59903 0.80884 0.0
C616 C 0.77418 0.59469 0.98324 0.0
C617 C 0.81969 0.61063 0.77294 0.0
C618 C 0.67812 0.55458 0.07406 0.0
C619 C 0.70107 0.56695 0.05328 0.0
C620 C 0.73234 0.57305 0.89831 0.0
C621 C 0.79749 0.60779 0.87485 0.0
C622 C 0.77489 0.59602 0.90942 0.0
C623 C 0.70886 0.55732 0.0021 0.0
C624 C 0.73168 0.57126 0.97156 0.0
H625 H 0.85216 0.65515 0.89411 0.0
H626 H 0.81615 0.63527 0.95636 0.0
H627 H 0.75326 0.58667 0.81106 0.0
H628 H 0.65981 0.50512 0.97301 0.0
H629 H 0.69956 0.52689 0.93602 0.0
C630 C 0.89507 0.59408 0.74862 0.0
C631 C 0.90935 0.61744 0.7387 0.0
C632 C 0.90447 0.58178 0.77928 0.0
C633 C 0.92634 0.56138 0.87346 0.0
H634 H 0.98594 0.5725 0.81098 0.0
C635 C 0.97472 0.51695 0.9869 0.0
C636 C 0.98644 0.51052 0.93955 0.0
C637 C 0.9647 0.52979 0.96495 0.0
C638 C 0.96919 0.56905 0.82853 0.0
H639 H 0.94448 0.64654 0.75532 0.0
H640 H 0.96097 0.6251 0.80992 0.0
H641 H 0.97002 0.59599 0.77108 0.0
H642 H 0.99626 0.51173 0.83173 0.0
H643 H 0.97837 0.53375 0.79285 0.0
H644 H 0.92521 0.53399 0.92926 0.0
C645 C 0.94254 0.61619 0.79292 0.0
C646 C 0.96023 0.58276 0.80651 0.0
C647 C 0.9331 0.62851 0.76215 0.0
C648 C 0.98734 0.5165 0.86932 0.0
C649 C 0.9773 0.5293 0.8473 0.0
C650 C 0.9353 0.54766 0.89546 0.0
C651 C 0.92839 0.59259 0.80086 0.0
C652 C 0.93861 0.57898 0.82822 0.0
C653 C 0.96619 0.53643 0.89516 0.0
C654 C 0.95674 0.5512 0.87274 0.0
H655 H 0.87667 0.58513 0.73119 0.0
H656 H 0.89311 0.56362 0.78383 0.0
H657 H 0.90975 0.55816 0.89175 0.0
H658 H 0.97389 0.51265 0.04149 0.0
H659 H 0.95646 0.53514 0.00331 0.0
C660 C 0.55805 0.40715 0.88573 0.0
C661 C 0.56283 0.41121 0.95912 0.0
C662 C 0.54507 0.38482 0.85557 0.0
C663 C 0.52271 0.32401 0.88941 0.0
H664 H 0.47453 0.31359 0.74546 0.0
C665 C 0.45019 0.23332 0.78486 0.0
C666 C 0.44497 0.2299 0.71149 0.0
C667 C 0.46476 0.25534 0.81613 0.0
C668 C 0.48804 0.31624 0.78506 0.0
H669 H 0.55869 0.39528 0.05847 0.0
H670 H 0.53581 0.35618 0.00589 0.0
H671 H 0.50078 0.35213 0.79698 0.0
H672 H 0.4506 0.24668 0.61331 0.0
H673 H 0.47614 0.28509 0.66766 0.0
H674 H 0.50978 0.28799 0.87754 0.0
C675 C 0.54224 0.3702 0.97149 0.0
C676 C 0.50314 0.33834 0.81449 0.0
C677 C 0.5553 0.39258 0.00164 0.0
C678 C 0.45432 0.24886 0.67003 0.0
C679 C 0.46884 0.27085 0.70123 0.0
C680 C 0.50756 0.30185 0.85995 0.0
C681 C 0.53652 0.3661 0.89825 0.0
C682 C 0.52073 0.34252 0.86677 0.0
C683 C 0.47433 0.27434 0.77458 0.0
C684 C 0.49011 0.29774 0.80724 0.0
H685 H 0.56375 0.42124 0.85173 0.0
H686 H 0.54138 0.38223 0.79884 0.0
H687 H 0.53619 0.32668 0.92916 0.0
H688 H 0.44325 0.21896 0.81802 0.0
H689 H 0.46844 0.2575 0.87286 0.0
C690 C 0.83856 0.14223 0.87086 0.0
C691 C 0.83895 0.14842 0.80086 0.0
C692 C 0.81893 0.13646 0.90942 0.0
C693 C 0.76727 0.14329 0.91762 0.0
H694 H 0.73653 0.08338 0.99291 0.0
C695 C 0.67899 0.10526 0.05274 0.0
C696 C 0.66222 0.08323 0.02498 0.0
C697 C 0.70227 0.11513 0.03489 0.0
C698 C 0.74503 0.10023 0.97262 0.0
H699 H 0.81955 0.15434 0.71752 0.0
H700 H 0.78574 0.14466 0.78484 0.0
H701 H 0.77509 0.09811 0.9464 0.0
H702 H 0.6565 0.05422 0.95712 0.0
H703 H 0.69705 0.07129 0.92674 0.0
H704 H 0.73693 0.14514 0.94206 0.0
C705 C 0.80042 0.1441 0.80985 0.0
C706 C 0.76715 0.10872 0.94661 0.0
C707 C 0.81973 0.14942 0.77108 0.0
C708 C 0.66906 0.07126 0.97915 0.0
C709 C 0.6923 0.08094 0.96226 0.0
C710 C 0.7453 0.13494 0.94456 0.0
C711 C 0.79969 0.13735 0.87909 0.0
C712 C 0.77818 0.13005 0.91705 0.0
C713 C 0.70917 0.10292 0.99009 0.0
C714 C 0.73369 0.11306 0.97045 0.0
H715 H 0.85315 0.14136 0.89519 0.0
H716 H 0.81876 0.1313 0.96282 0.0
H717 H 0.77548 0.15985 0.8954 0.0
H718 H 0.67414 0.11479 0.08839 0.0
H719 H 0.71496 0.13212 0.05696 0.0
C720 C 0.58086 0.95904 0.14849 0.0
C721 C 0.59484 0.98137 0.12727 0.0
C722 C 0.59056 0.94516 0.16055 0.0
C723 C 0.64613 0.94985 0.21481 0.0
H724 H 0.61827 0.88666 0.14285 0.0
C725 C 0.67785 0.89124 0.3186 0.0
C726 C 0.68353 0.87969 0.26743 0.0
C727 C 0.66543 0.90198 0.29904 0.0
C728 C 0.62621 0.90431 0.16303 0.0
H729 H 0.62982 0.00639 0.1003 0.0
H730 H 0.64663 0.98231 0.12222 0.0
H731 H 0.59948 0.90881 0.11133 0.0
H732 H 0.68002 0.86953 0.15611 0.0
H733 H 0.65793 0.8883 0.12167 0.0
H734 H 0.67271 0.94548 0.26686 0.0
C735 C 0.62823 0.97558 0.12962 0.0
C736 C 0.61542 0.91688 0.14546 0.0
C737 C 0.61854 0.98932 0.11689 0.0
C738 C 0.67586 0.87838 0.19648 0.0
C739 C 0.66318 0.889 0.17689 0.0
C740 C 0.65669 0.93725 0.23305 0.0
C741 C 0.61443 0.95349 0.15238 0.0
C742 C 0.62539 0.93981 0.17099 0.0
C743 C 0.65827 0.90126 0.22796 0.0
C744 C 0.64686 0.91438 0.20741 0.0
H745 H 0.56253 0.95238 0.15663 0.0
H746 H 0.5796 0.9282 0.17839 0.0
H747 H 0.65406 0.96744 0.23567 0.0
H748 H 0.68345 0.89242 0.37376 0.0
H749 H 0.66163 0.91109 0.33951 0.0
C750 C 0.16988 0.73644 0.13534 0.0
C751 C 0.18757 0.74736 0.18982 0.0
C752 C 0.16127 0.71346 0.11467 0.0
C753 C 0.15584 0.66122 0.185 0.0
H754 H 0.13496 0.63645 0.99159 0.0
C755 C 0.11579 0.56516 0.10707 0.0
C756 C 0.09499 0.5552 0.06333 0.0
C757 C 0.12948 0.58891 0.11817 0.0
C758 C 0.14065 0.64314 0.04586 0.0
H759 H 0.21096 0.74336 0.26329 0.0
H760 H 0.19628 0.70335 0.22635 0.0
H761 H 0.15514 0.67776 0.01781 0.0
H762 H 0.07258 0.56242 0.9956 0.0
H763 H 0.0964 0.60377 0.01534 0.0
H764 H 0.14111 0.62662 0.21317 0.0
C765 C 0.18867 0.71231 0.20056 0.0
C766 C 0.15217 0.66678 0.0609 0.0
C767 C 0.19717 0.73525 0.22143 0.0
C768 C 0.08846 0.56951 0.02978 0.0
C769 C 0.1022 0.59323 0.04061 0.0
C770 C 0.14441 0.63762 0.16993 0.0
C771 C 0.17029 0.70101 0.14793 0.0
C772 C 0.15963 0.67607 0.13078 0.0
C773 C 0.12273 0.60318 0.08545 0.0
C774 C 0.13642 0.62831 0.10036 0.0
H775 H 0.16217 0.74544 0.11025 0.0
H776 H 0.14694 0.70523 0.0745 0.0
H777 H 0.16097 0.66776 0.23956 0.0
H778 H 0.12136 0.55464 0.13354 0.0
H779 H 0.14534 0.59612 0.1525 0.0
C780 C 0.50399 0.47646 0.126 0.0
C781 C 0.51409 0.46768 0.07999 0.0
C782 C 0.47987 0.46452 0.13331 0.0
C783 C 0.42817 0.40633 0.10576 0.0
H784 H 0.39364 0.43792 0.13392 0.0
C785 C 0.32789 0.35788 0.12216 0.0
C786 C 0.31962 0.3654 0.17787 0.0
C787 C 0.35119 0.37086 0.10526 0.0
C788 C 0.40309 0.42888 0.12647 0.0
H789 H 0.50663 0.43983 0.00382 0.0
H790 H 0.46462 0.4193 0.01548 0.0
H791 H 0.43516 0.45979 0.11306 0.0
H792 H 0.32889 0.39251 0.25865 0.0
H793 H 0.36954 0.41523 0.22912 0.0
H794 H 0.39609 0.37544 0.11921 0.0
C795 C 0.47536 0.43513 0.04721 0.0
C796 C 0.42689 0.4414 0.1147 0.0
C797 C 0.49947 0.44699 0.04022 0.0
C798 C 0.33484 0.38634 0.21538 0.0
C799 C 0.35807 0.39939 0.19822 0.0
C800 C 0.40436 0.39382 0.11713 0.0
C801 C 0.46528 0.44359 0.09447 0.0
C802 C 0.43977 0.43029 0.10465 0.0
C803 C 0.36657 0.39168 0.14348 0.0
C804 C 0.3916 0.40496 0.12809 0.0
H805 H 0.51477 0.49231 0.15764 0.0
H806 H 0.47276 0.47141 0.17085 0.0
H807 H 0.43759 0.39722 0.09953 0.0
H808 H 0.31648 0.3418 0.09235 0.0
H809 H 0.35718 0.3646 0.06233 0.0
C810 C 0.902 0.73456 0.60108 0.0
C811 C 0.88764 0.71244 0.62298 0.0
C812 C 0.89214 0.7469 0.57342 0.0
C813 C 0.84195 0.75367 0.59007 0.0
H814 H 0.85801 0.7845 0.41562 0.0
C815 C 0.79343 0.7978 0.48302 0.0
C816 C 0.80556 0.81741 0.44541 0.0
C817 C 0.80395 0.78529 0.50311 0.0
C818 C 0.85363 0.77635 0.46511 0.0
H819 H 0.85179 0.68546 0.63097 0.0
H820 H 0.83453 0.70731 0.58423 0.0
H821 H 0.87528 0.76149 0.45034 0.0
H822 H 0.83834 0.8397 0.40032 0.0
H823 H 0.8573 0.81846 0.43825 0.0
H824 H 0.82112 0.76903 0.60707 0.0
C825 C 0.85339 0.71502 0.5882 0.0
C826 C 0.86339 0.76303 0.48455 0.0
C827 C 0.86324 0.70252 0.61463 0.0
C828 C 0.82863 0.82461 0.42934 0.0
C829 C 0.83937 0.81228 0.4505 0.0
C830 C 0.83255 0.76728 0.57143 0.0
C831 C 0.86777 0.73743 0.56839 0.0
C832 C 0.85744 0.75141 0.54687 0.0
C833 C 0.82708 0.79232 0.48722 0.0
C834 C 0.83804 0.77864 0.50831 0.0
H835 H 0.92087 0.74251 0.60668 0.0
H836 H 0.90357 0.76417 0.55868 0.0
H837 H 0.83745 0.74521 0.63909 0.0
H838 H 0.7755 0.79171 0.49539 0.0
H839 H 0.79367 0.7698 0.52975 0.0
C840 C 0.34247 0.08575 0.69854 0.0
C841 C 0.35143 0.10488 0.65785 0.0
C842 C 0.32816 0.06381 0.66666 0.0
C843 C 0.28916 0.03307 0.50836 0.0
H844 H 0.29746 0.98316 0.56609 0.0
C845 C 0.24194 0.94294 0.36265 0.0
C846 C 0.23505 0.92413 0.40407 0.0
C847 C 0.25491 0.96522 0.39364 0.0
C848 C 0.29467 0.99683 0.55007 0.0
H849 H 0.35266 0.1162 0.552 0.0
H850 H 0.32781 0.07778 0.49599 0.0
H851 H 0.32329 0.02159 0.61908 0.0
H852 H 0.23518 0.91366 0.51045 0.0
H853 H 0.25734 0.95247 0.56484 0.0
H854 H 0.26048 0.00823 0.43931 0.0
C855 C 0.33164 0.07975 0.55264 0.0
C856 C 0.30953 0.01888 0.58032 0.0
C857 C 0.34602 0.10171 0.58457 0.0
C858 C 0.2404 0.9279 0.47728 0.0
C859 C 0.25326 0.95012 0.50829 0.0
C860 C 0.27422 0.01096 0.47813 0.0
C861 C 0.32248 0.06057 0.59341 0.0
C862 C 0.30691 0.03723 0.56 0.0
C863 C 0.26116 0.96905 0.46664 0.0
C864 C 0.27676 0.99257 0.49887 0.0
H865 H 0.34635 0.08774 0.75518 0.0
H866 H 0.32117 0.04941 0.69962 0.0
H867 H 0.28652 0.04682 0.49223 0.0
H868 H 0.23809 0.94047 0.30597 0.0
H869 H 0.26083 0.97941 0.35999 0.0
C870 C 0.97649 0.18626 0.58129 0.0
C871 C 0.95718 0.18697 0.55091 0.0
C872 C 0.99585 0.19159 0.5428 0.0
C873 C 0.02908 0.22646 0.40507 0.0
H874 H 0.05932 0.19007 0.41185 0.0
C875 C 0.12717 0.26369 0.37226 0.0
C876 C 0.13398 0.25144 0.32757 0.0
C877 C 0.10392 0.25416 0.38906 0.0
C878 C 0.05094 0.20026 0.40872 0.0
H879 H 0.94291 0.1936 0.45588 0.0
H880 H 0.9774 0.20369 0.38872 0.0
H881 H 0.02079 0.17556 0.45845 0.0
H882 H 0.12202 0.21955 0.26601 0.0
H883 H 0.08121 0.20249 0.29723 0.0
H884 H 0.05967 0.25159 0.35814 0.0
C885 C 0.97725 0.19873 0.44236 0.0
C886 C 0.02898 0.19202 0.43563 0.0
C887 C 0.95756 0.19295 0.48066 0.0
C888 C 0.11719 0.2293 0.30077 0.0
C889 C 0.09391 0.21958 0.31851 0.0
C890 C 0.05118 0.23484 0.37907 0.0
C891 C 0.99656 0.19807 0.47324 0.0
C892 C 0.01807 0.20525 0.43539 0.0
C893 C 0.08704 0.23205 0.36226 0.0
C894 C 0.06253 0.22202 0.38202 0.0
H895 H 0.97667 0.1815 0.63506 0.0
H896 H 0.01058 0.1912 0.56821 0.0
H897 H 0.02112 0.23705 0.40464 0.0
H898 H 0.13974 0.28083 0.39352 0.0
H899 H 0.0992 0.26402 0.42377 0.0
C900 C 0.33998 0.19029 0.59145 0.0
C901 C 0.35816 0.18918 0.55966 0.0
C902 C 0.32618 0.19703 0.55394 0.0
C903 C 0.31068 0.20729 0.3729 0.0
H904 H 0.28931 0.24231 0.48004 0.0
C905 C 0.27218 0.2615 0.25883 0.0
C906 C 0.25186 0.25858 0.28883 0.0
C907 C 0.28363 0.25035 0.28465 0.0
C908 C 0.29498 0.23236 0.44959 0.0
H909 H 0.37605 0.19402 0.46333 0.0
H910 H 0.35262 0.20693 0.39836 0.0
H911 H 0.31328 0.22939 0.53962 0.0
H912 H 0.227 0.24079 0.36707 0.0
H913 H 0.24728 0.22174 0.41286 0.0
H914 H 0.29304 0.21147 0.28209 0.0
C915 C 0.34857 0.20197 0.45181 0.0
C916 C 0.30865 0.22482 0.48372 0.0
C917 C 0.36212 0.19473 0.48911 0.0
C918 C 0.24258 0.2434 0.3427 0.0
C919 C 0.25423 0.23257 0.3692 0.0
C920 C 0.29732 0.21527 0.33842 0.0
C921 C 0.33051 0.2034 0.48402 0.0
C922 C 0.31648 0.21192 0.44617 0.0
C923 C 0.27514 0.23639 0.34158 0.0
C924 C 0.28916 0.22765 0.37676 0.0
H925 H 0.3362 0.18569 0.64536 0.0
H926 H 0.31201 0.19716 0.58005 0.0
H927 H 0.31615 0.19723 0.34225 0.0
H928 H 0.2797 0.27302 0.21705 0.0
H929 H 0.29978 0.2536 0.26268 0.0
C930 C 0.7922 0.93799 0.34181 0.0
C931 C 0.79444 0.92253 0.38414 0.0
C932 C 0.80472 0.96145 0.3607 0.0
C933 C 0.8536 0.00559 0.48296 0.0
H934 H 0.8217 0.03961 0.45133 0.0
C935 C 0.85928 0.09458 0.59475 0.0
C936 C 0.88368 0.1083 0.60466 0.0
C937 C 0.84917 0.07294 0.5593 0.0
C938 C 0.83082 0.03036 0.4612 0.0
H939 H 0.81182 0.91953 0.4789 0.0
H940 H 0.83298 0.96019 0.51328 0.0
H941 H 0.80304 0.99976 0.40832 0.0
H942 H 0.9167 0.11107 0.58156 0.0
H943 H 0.89922 0.07392 0.51687 0.0
H944 H 0.88065 0.03563 0.53987 0.0
C945 C 0.82211 0.95444 0.46433 0.0
C946 C 0.82025 0.00752 0.43538 0.0
C947 C 0.80988 0.93104 0.44481 0.0
C948 C 0.8978 0.10062 0.57548 0.0
C949 C 0.88774 0.07922 0.53889 0.0
C950 C 0.86398 0.02829 0.5097 0.0
C951 C 0.81951 0.96997 0.42301 0.0
C952 C 0.8314 0.99473 0.44651 0.0
C953 C 0.86329 0.06479 0.53192 0.0
C954 C 0.85267 0.04097 0.49972 0.0
H955 H 0.78056 0.93195 0.29437 0.0
H956 H 0.80263 0.97286 0.32664 0.0
H957 H 0.86296 0.99652 0.49156 0.0
H958 H 0.84802 0.10017 0.61685 0.0
H959 H 0.8303 0.06232 0.55584 0.0
C960 C 0.9606 0.69255 0.4897 0.0
C961 C 0.95926 0.70015 0.55819 0.0
C962 C 0.98106 0.70473 0.45388 0.0
C963 C 0.04418 0.74828 0.49182 0.0
H964 H 0.04442 0.75399 0.28941 0.0
C965 C 0.12607 0.81333 0.3642 0.0
C966 C 0.1343 0.80381 0.31393 0.0
C967 C 0.10338 0.8006 0.38595 0.0
C968 C 0.04451 0.75243 0.34596 0.0
H969 H 0.9775 0.7272 0.64089 0.0
H970 H 0.01233 0.74875 0.57812 0.0
H971 H 0.00713 0.73162 0.34369 0.0
H972 H 0.12457 0.77401 0.24355 0.0
H973 H 0.0846 0.75192 0.28091 0.0
H974 H 0.08138 0.7696 0.4944 0.0
C975 C 0.9983 0.7329 0.55282 0.0
C976 C 0.02322 0.73953 0.37707 0.0
C977 C 0.9782 0.72059 0.58881 0.0
C978 C 0.1188 0.7818 0.28262 0.0
C979 C 0.09591 0.76917 0.30371 0.0
C980 C 0.06526 0.76141 0.46103 0.0
C981 C 1.00033 0.72491 0.48562 0.0
C982 C 0.02278 0.73754 0.45067 0.0
C983 C 0.0883 0.77823 0.35717 0.0
C984 C 0.06564 0.76381 0.38804 0.0
H985 H 0.94618 0.67686 0.46481 0.0
H986 H 0.98197 0.69801 0.4023 0.0
H987 H 0.04474 0.74656 0.54822 0.0
H988 H 0.1375 0.8302 0.38948 0.0
H989 H 0.09782 0.80799 0.42696 0.0
loop_
_geom_bond_atom_site_label_1
_geom_bond_atom_site_label_2
_geom_bond_distance
_geom_bond_site_symmetry_2
_ccdc_geom_bond_type
Dy0 O4 2.398 1_554 S
Dy0 O5 2.491 . S
Dy0 O6 2.403 1_554 S
Dy0 O7 2.664 1_554 S
Dy0 O11 2.326 1_554 S
Dy0 O15 2.310 . S
Dy0 O16 2.351 . S
C1 O12 1.185 1_556 S
C1 O13 1.355 . S
C2 O4 1.185 1_554 S
C2 O5 1.355 . S
Dy3 O7 2.310 1_654 S
Dy3 O10 2.351 1_554 S
Dy3 O12 2.398 . S
Dy3 O13 2.491 1_554 S
Dy3 O14 2.403 . S
Dy3 O15 2.664 1_655 S
Dy3 O17 2.326 1_655 S
O4 Dy0 2.398 1_556 S
O4 C2 1.185 1_556 S
O5 Dy0 2.491 . S
O5 C2 1.355 . S
O6 Dy0 2.403 1_556 S
O6 C8 1.254 . S
O7 Dy0 2.664 1_556 S
O7 Dy3 2.310 1_456 S
O7 C8 1.268 . S
C8 O6 1.254 . S
C8 O7 1.268 . S
C9 O14 1.254 1_455 S
C9 O15 1.268 . S
O10 Dy3 2.351 1_556 S
O10 C18 1.296 . S
O11 Dy0 2.326 1_556 S
O11 C18 1.224 1_455 S
O12 C1 1.185 1_554 S
O12 Dy3 2.398 . S
O13 C1 1.355 . S
O13 Dy3 2.491 1_556 S
O14 Dy3 2.403 . S
O14 C9 1.254 1_655 S
O15 Dy0 2.310 . S
O15 Dy3 2.664 1_455 S
O15 C9 1.268 . S
O16 Dy0 2.351 . S
O16 C19 1.249 . S
O17 Dy3 2.326 1_455 S
O17 C19 1.267 . S
C18 O10 1.296 . S
C18 O11 1.224 1_655 S
C19 O16 1.249 . S
C19 O17 1.267 . S
Dy20 O24 2.398 . S
Dy20 O25 2.491 . S
Dy20 O26 2.403 1_554 S
Dy20 O27 2.664 . S
Dy20 O31 2.326 . S
Dy20 O35 2.310 . S
Dy20 O36 2.351 . S
C21 O32 1.185 . S
C21 O33 1.355 . S
C22 O24 1.185 . S
C22 O25 1.355 . S
Dy23 O27 2.310 . S
Dy23 O30 2.351 . S
Dy23 O32 2.398 . S
Dy23 O33 2.491 . S
Dy23 O34 2.403 . S
Dy23 O35 2.664 . S
Dy23 O37 2.326 . S
O24 Dy20 2.398 . S
O24 C22 1.185 . S
O25 Dy20 2.491 . S
O25 C22 1.355 . S
O26 Dy20 2.403 1_556 S
O26 C28 1.254 . S
O27 Dy20 2.664 . S
O27 Dy23 2.310 . S
O27 C28 1.268 1_554 S
C28 O26 1.254 . S
C28 O27 1.268 1_556 S
C29 O34 1.254 . S
C29 O35 1.268 . S
O30 Dy23 2.351 . S
O30 C38 1.249 . S
O31 Dy20 2.326 . S
O31 C38 1.267 . S
O32 C21 1.185 . S
O32 Dy23 2.398 . S
O33 C21 1.355 . S
O33 Dy23 2.491 . S
O34 Dy23 2.403 . S
O34 C29 1.254 . S
O35 Dy20 2.310 . S
O35 Dy23 2.664 . S
O35 C29 1.268 . S
O36 Dy20 2.351 . S
O36 C39 1.249 . S
O37 Dy23 2.326 . S
O37 C39 1.267 . S
C38 O30 1.249 . S
C38 O31 1.267 . S
C39 O36 1.249 . S
C39 O37 1.267 . S
Dy40 O44 2.398 . S
Dy40 O45 2.491 . S
Dy40 O46 2.403 . S
Dy40 O47 2.664 . S
Dy40 O51 2.326 . S
Dy40 O55 2.310 . S
Dy40 O56 2.351 . S
C41 O52 1.185 . S
C41 O53 1.355 . S
C42 O44 1.185 . S
C42 O45 1.355 . S
Dy43 O47 2.310 . S
Dy43 O50 2.351 . S
Dy43 O52 2.398 . S
Dy43 O53 2.491 . S
Dy43 O54 2.403 . S
Dy43 O55 2.664 . S
Dy43 O57 2.326 . S
O44 Dy40 2.398 . S
O44 C42 1.185 . S
O45 Dy40 2.491 . S
O45 C42 1.355 . S
O46 Dy40 2.403 . S
O46 C48 1.254 . S
O47 Dy40 2.664 . S
O47 Dy43 2.310 . S
O47 C48 1.268 . S
C48 O46 1.254 . S
C48 O47 1.268 . S
C49 O54 1.254 . S
C49 O55 1.268 . S
O50 Dy43 2.351 . S
O50 C58 1.249 . S
O51 Dy40 2.326 . S
O51 C58 1.267 . S
O52 C41 1.185 . S
O52 Dy43 2.398 . S
O53 C41 1.355 . S
O53 Dy43 2.491 . S
O54 Dy43 2.403 . S
O54 C49 1.254 . S
O55 Dy40 2.310 . S
O55 Dy43 2.664 . S
O55 C49 1.268 . S
O56 Dy40 2.351 . S
O56 C59 1.249 . S
O57 Dy43 2.326 . S
O57 C59 1.267 . S
C58 O50 1.249 . S
C58 O51 1.267 . S
C59 O56 1.249 . S
C59 O57 1.267 . S
Dy60 O64 2.398 . S
Dy60 O65 2.491 . S
Dy60 O66 2.403 . S
Dy60 O67 2.664 . S
Dy60 O71 2.326 . S
Dy60 O75 2.310 . S
Dy60 O76 2.351 . S
C61 O72 1.185 . S
C61 O73 1.355 . S
C62 O64 1.185 . S
C62 O65 1.355 . S
Dy63 O67 2.310 . S
Dy63 O70 2.351 . S
Dy63 O72 2.398 . S
Dy63 O73 2.491 . S
Dy63 O74 2.403 . S
Dy63 O75 2.664 . S
Dy63 O77 2.326 . S
O64 Dy60 2.398 . S
O64 C62 1.185 . S
O65 Dy60 2.491 . S
O65 C62 1.355 . S
O66 Dy60 2.403 . S
O66 C68 1.254 . S
O67 Dy60 2.664 . S
O67 Dy63 2.310 . S
O67 C68 1.268 . S
C68 O66 1.254 . S
C68 O67 1.268 . S
C69 O74 1.254 . S
C69 O75 1.268 . S
O70 Dy63 2.351 . S
O70 C78 1.249 . S
O71 Dy60 2.326 . S
O71 C78 1.267 . S
O72 C61 1.185 . S
O72 Dy63 2.398 . S
O73 C61 1.355 . S
O73 Dy63 2.491 . S
O74 Dy63 2.403 . S
O74 C69 1.254 . S
O75 Dy60 2.310 . S
O75 Dy63 2.664 . S
O75 C69 1.268 . S
O76 Dy60 2.351 . S
O76 C79 1.249 . S
O77 Dy63 2.326 . S
O77 C79 1.267 . S
C78 O70 1.249 . S
C78 O71 1.267 . S
C79 O76 1.249 . S
C79 O77 1.267 . S
Dy80 O84 2.398 . S
Dy80 O85 2.491 . S
Dy80 O86 2.403 . S
Dy80 O87 2.664 . S
Dy80 O91 2.326 . S
Dy80 O95 2.310 . S
Dy80 O96 2.351 . S
C81 O92 1.185 . S
C81 O93 1.355 . S
C82 O84 1.185 . S
C82 O85 1.355 . S
Dy83 O87 2.310 . S
Dy83 O90 2.351 . S
Dy83 O92 2.398 . S
Dy83 O93 2.491 . S
Dy83 O94 2.403 . S
Dy83 O95 2.664 . S
Dy83 O97 2.326 . S
O84 Dy80 2.398 . S
O84 C82 1.185 . S
O85 Dy80 2.491 . S
O85 C82 1.355 . S
O86 Dy80 2.403 . S
O86 C88 1.254 . S
O87 Dy80 2.664 . S
O87 Dy83 2.310 . S
O87 C88 1.268 . S
C88 O86 1.254 . S
C88 O87 1.268 . S
C89 O94 1.254 . S
C89 O95 1.268 . S
O90 Dy83 2.351 . S
O90 C98 1.249 . S
O91 Dy80 2.326 . S
O91 C98 1.267 . S
O92 C81 1.185 . S
O92 Dy83 2.398 . S
O93 C81 1.355 . S
O93 Dy83 2.491 . S
O94 Dy83 2.403 . S
O94 C89 1.254 . S
O95 Dy80 2.310 . S
O95 Dy83 2.664 . S
O95 C89 1.268 . S
O96 Dy80 2.351 . S
O96 C99 1.249 . S
O97 Dy83 2.326 . S
O97 C99 1.267 . S
C98 O90 1.249 . S
C98 O91 1.267 . S
C99 O96 1.249 . S
C99 O97 1.267 . S
Dy100 O104 2.398 . S
Dy100 O105 2.491 . S
Dy100 O106 2.403 . S
Dy100 O107 2.664 . S
Dy100 O111 2.326 . S
Dy100 O115 2.310 . S
Dy100 O116 2.351 . S
C101 O112 1.185 . S
C101 O113 1.355 . S
C102 O104 1.185 . S
C102 O105 1.355 . S
Dy103 O107 2.310 . S
Dy103 O110 2.351 . S
Dy103 O112 2.398 . S
Dy103 O113 2.491 . S
Dy103 O114 2.403 . S
Dy103 O115 2.664 . S
Dy103 O117 2.326 . S
O104 Dy100 2.398 . S
O104 C102 1.185 . S
O105 Dy100 2.491 . S
O105 C102 1.355 . S
O106 Dy100 2.403 . S
O106 C108 1.254 . S
O107 Dy100 2.664 . S
O107 Dy103 2.310 . S
O107 C108 1.268 . S
C108 O106 1.254 . S
C108 O107 1.268 . S
C109 O114 1.254 . S
C109 O115 1.268 . S
O110 Dy103 2.351 . S
O110 C118 1.249 . S
O111 Dy100 2.326 . S
O111 C118 1.267 . S
O112 C101 1.185 . S
O112 Dy103 2.398 . S
O113 C101 1.355 . S
O113 Dy103 2.491 . S
O114 Dy103 2.403 . S
O114 C109 1.254 . S
O115 Dy100 2.310 . S
O115 Dy103 2.664 . S
O115 C109 1.268 . S
O116 Dy100 2.351 . S
O116 C119 1.249 . S
O117 Dy103 2.326 . S
O117 C119 1.267 . S
C118 O110 1.249 . S
C118 O111 1.267 . S
C119 O116 1.249 . S
C119 O117 1.267 . S
Dy120 O124 2.398 . S
Dy120 O125 2.491 . S
Dy120 O126 2.403 . S
Dy120 O127 2.664 . S
Dy120 O131 2.326 . S
Dy120 O135 2.310 . S
Dy120 O136 2.351 . S
C121 O132 1.185 . S
C121 O133 1.355 . S
C122 O124 1.185 . S
C122 O125 1.355 . S
Dy123 O127 2.310 . S
Dy123 O130 2.351 . S
Dy123 O132 2.398 . S
Dy123 O133 2.491 . S
Dy123 O134 2.403 . S
Dy123 O135 2.664 . S
Dy123 O137 2.326 . S
O124 Dy120 2.398 . S
O124 C122 1.185 . S
O125 Dy120 2.491 . S
O125 C122 1.355 . S
O126 Dy120 2.403 . S
O126 C128 1.254 . S
O127 Dy120 2.664 . S
O127 Dy123 2.310 . S
O127 C128 1.268 . S
C128 O126 1.254 . S
C128 O127 1.268 . S
C129 O134 1.254 . S
C129 O135 1.268 . S
O130 Dy123 2.351 . S
O130 C138 1.249 . S
O131 Dy120 2.326 . S
O131 C138 1.267 . S
O132 C121 1.185 . S
O132 Dy123 2.398 . S
O133 C121 1.355 . S
O133 Dy123 2.491 . S
O134 Dy123 2.403 . S
O134 C129 1.254 . S
O135 Dy120 2.310 . S
O135 Dy123 2.664 . S
O135 C129 1.268 . S
O136 Dy120 2.351 . S
O136 C139 1.249 . S
O137 Dy123 2.326 . S
O137 C139 1.267 . S
C138 O130 1.249 . S
C138 O131 1.267 . S
C139 O136 1.249 . S
C139 O137 1.267 . S
Dy140 O144 2.398 . S
Dy140 O145 2.491 . S
Dy140 O146 2.403 . S
Dy140 O147 2.664 . S
Dy140 O151 2.326 . S
Dy140 O155 2.310 . S
Dy140 O156 2.351 . S
C141 O152 1.185 . S
C141 O153 1.355 . S
C142 O144 1.185 . S
C142 O145 1.355 . S
Dy143 O147 2.310 . S
Dy143 O150 2.351 . S
Dy143 O152 2.398 . S
Dy143 O153 2.491 . S
Dy143 O154 2.403 . S
Dy143 O155 2.664 . S
Dy143 O157 2.326 . S
O144 Dy140 2.398 . S
O144 C142 1.185 . S
O145 Dy140 2.491 . S
O145 C142 1.355 . S
O146 Dy140 2.403 . S
O146 C148 1.254 . S
O147 Dy140 2.664 . S
O147 Dy143 2.310 . S
O147 C148 1.268 . S
C148 O146 1.254 . S
C148 O147 1.268 . S
C149 O154 1.254 . S
C149 O155 1.268 . S
O150 Dy143 2.351 . S
O150 C158 1.249 . S
O151 Dy140 2.326 . S
O151 C158 1.267 . S
O152 C141 1.185 . S
O152 Dy143 2.398 . S
O153 C141 1.355 . S
O153 Dy143 2.491 . S
O154 Dy143 2.403 . S
O154 C149 1.254 . S
O155 Dy140 2.310 . S
O155 Dy143 2.664 . S
O155 C149 1.268 . S
O156 Dy140 2.351 . S
O156 C159 1.249 . S
O157 Dy143 2.326 . S
O157 C159 1.267 . S
C158 O150 1.249 . S
C158 O151 1.267 . S
C159 O156 1.249 . S
C159 O157 1.267 . S
Dy160 O164 2.398 . S
Dy160 O165 2.491 . S
Dy160 O166 2.403 . S
Dy160 O167 2.664 . S
Dy160 O171 2.326 . S
Dy160 O175 2.310 . S
Dy160 O176 2.351 . S
C161 O172 1.185 . S
C161 O173 1.355 . S
C162 O164 1.185 . S
C162 O165 1.355 . S
Dy163 O167 2.310 . S
Dy163 O170 2.351 . S
Dy163 O172 2.398 . S
Dy163 O173 2.491 . S
Dy163 O174 2.403 . S
Dy163 O175 2.664 . S
Dy163 O177 2.326 . S
O164 Dy160 2.398 . S
O164 C162 1.185 . S
O165 Dy160 2.491 . S
O165 C162 1.355 . S
O166 Dy160 2.403 . S
O166 C168 1.254 . S
O167 Dy160 2.664 . S
O167 Dy163 2.310 . S
O167 C168 1.268 . S
C168 O166 1.254 . S
C168 O167 1.268 . S
C169 O174 1.254 . S
C169 O175 1.268 . S
O170 Dy163 2.351 . S
O170 C178 1.249 . S
O171 Dy160 2.326 . S
O171 C178 1.267 . S
O172 C161 1.185 . S
O172 Dy163 2.398 . S
O173 C161 1.355 . S
O173 Dy163 2.491 . S
O174 Dy163 2.403 . S
O174 C169 1.254 . S
O175 Dy160 2.310 . S
O175 Dy163 2.664 . S
O175 C169 1.268 . S
O176 Dy160 2.351 . S
O176 C179 1.249 . S
O177 Dy163 2.326 . S
O177 C179 1.267 . S
C178 O170 1.249 . S
C178 O171 1.267 . S
C179 O176 1.249 . S
C179 O177 1.267 . S
C180 C181 1.349 . S
C180 C182 1.327 . S
C180 H205 0.950 . S
C181 C180 1.349 . S
C181 C197 1.349 . S
C182 C180 1.327 . S
C182 C201 1.429 . S
C182 H206 0.950 . S
C183 C200 1.574 . S
C183 C202 1.368 . S
C183 H207 0.949 1_455 S
H184 C188 0.949 . S
C185 C186 1.349 1_655 S
C185 C187 1.327 . S
C185 H208 0.950 . S
C186 C185 1.349 1_455 S
C186 C198 1.349 . S
C187 C185 1.327 . S
C187 C203 1.429 1_655 S
C187 H209 0.950 . S
C188 H184 0.949 . S
C188 C196 1.574 . S
C188 C204 1.368 . S
H189 C197 0.950 1_655 S
H190 C195 0.950 1_655 S
H191 C196 0.949 . S
H192 C198 0.950 . S
H193 C199 0.950 . S
H194 C200 0.949 1_655 S
C195 H190 0.950 1_455 S
C195 C197 1.327 . S
C195 C201 1.429 . S
C196 C188 1.574 . S
C196 H191 0.949 . S
C196 C202 1.368 . S
C197 C181 1.349 . S
C197 H189 0.950 1_455 S
C197 C195 1.327 . S
C198 C186 1.349 . S
C198 H192 0.950 . S
C198 C199 1.327 . S
C199 H193 0.950 . S
C199 C198 1.327 . S
C199 C203 1.429 . S
C200 C183 1.574 . S
C200 H194 0.949 1_455 S
C200 C204 1.368 . S
C201 C182 1.429 . S
C201 C195 1.429 . S
C201 C202 1.523 . S
C202 C183 1.368 . S
C202 C196 1.368 . S
C202 C201 1.523 . S
C203 C187 1.429 1_455 S
C203 C199 1.429 . S
C203 C204 1.523 . S
C204 C188 1.368 . S
C204 C200 1.368 . S
C204 C203 1.523 . S
H205 C180 0.950 . S
H206 C182 0.950 . S
H207 C183 0.949 1_655 S
H208 C185 0.950 . S
H209 C187 0.950 . S
C210 C211 1.349 . S
C210 C212 1.327 . S
C210 H235 0.950 . S
C211 C210 1.349 . S
C211 C227 1.349 . S
C212 C210 1.327 . S
C212 C231 1.429 . S
C212 H236 0.950 . S
C213 C230 1.574 . S
C213 C232 1.368 . S
C213 H237 0.949 . S
H214 C218 0.949 . S
C215 C216 1.349 . S
C215 C217 1.327 . S
C215 H238 0.950 . S
C216 C215 1.349 . S
C216 C228 1.349 . S
C217 C215 1.327 . S
C217 C233 1.429 . S
C217 H239 0.950 . S
C218 H214 0.949 . S
C218 C226 1.574 . S
C218 C234 1.368 . S
H219 C227 0.950 . S
H220 C225 0.950 . S
H221 C226 0.949 . S
H222 C228 0.950 . S
H223 C229 0.950 . S
H224 C230 0.949 . S
C225 H220 0.950 . S
C225 C227 1.327 . S
C225 C231 1.429 . S
C226 C218 1.574 . S
C226 H221 0.949 . S
C226 C232 1.368 . S
C227 C211 1.349 . S
C227 H219 0.950 . S
C227 C225 1.327 . S
C228 C216 1.349 . S
C228 H222 0.950 . S
C228 C229 1.327 . S
C229 H223 0.950 . S
C229 C228 1.327 . S
C229 C233 1.429 . S
C230 C213 1.574 . S
C230 H224 0.949 . S
C230 C234 1.368 . S
C231 C212 1.429 . S
C231 C225 1.429 . S
C231 C232 1.523 . S
C232 C213 1.368 . S
C232 C226 1.368 . S
C232 C231 1.523 . S
C233 C217 1.429 . S
C233 C229 1.429 . S
C233 C234 1.523 . S
C234 C218 1.368 . S
C234 C230 1.368 . S
C234 C233 1.523 . S
H235 C210 0.950 . S
H236 C212 0.950 . S
H237 C213 0.949 . S
H238 C215 0.950 . S
H239 C217 0.950 . S
C240 C241 1.349 . S
C240 C242 1.327 . S
C240 H265 0.950 . S
C241 C240 1.349 . S
C241 C257 1.349 . S
C242 C240 1.327 . S
C242 C261 1.429 . S
C242 H266 0.950 . S
C243 C260 1.574 . S
C243 C262 1.368 . S
C243 H267 0.949 . S
H244 C248 0.949 . S
C245 C246 1.349 . S
C245 C247 1.327 . S
C245 H268 0.950 . S
C246 C245 1.349 . S
C246 C258 1.349 . S
C247 C245 1.327 . S
C247 C263 1.429 . S
C247 H269 0.950 . S
C248 H244 0.949 . S
C248 C256 1.574 . S
C248 C264 1.368 . S
H249 C257 0.950 . S
H250 C255 0.950 . S
H251 C256 0.949 . S
H252 C258 0.950 . S
H253 C259 0.950 . S
H254 C260 0.949 . S
C255 H250 0.950 . S
C255 C257 1.327 . S
C255 C261 1.429 . S
C256 C248 1.574 . S
C256 H251 0.949 . S
C256 C262 1.368 . S
C257 C241 1.349 . S
C257 H249 0.950 . S
C257 C255 1.327 . S
C258 C246 1.349 . S
C258 H252 0.950 . S
C258 C259 1.327 . S
C259 H253 0.950 . S
C259 C258 1.327 . S
C259 C263 1.429 . S
C260 C243 1.574 . S
C260 H254 0.949 . S
C260 C264 1.368 . S
C261 C242 1.429 . S
C261 C255 1.429 . S
C261 C262 1.523 . S
C262 C243 1.368 . S
C262 C256 1.368 . S
C262 C261 1.523 . S
C263 C247 1.429 . S
C263 C259 1.429 . S
C263 C264 1.523 . S
C264 C248 1.368 . S
C264 C260 1.368 . S
C264 C263 1.523 . S
H265 C240 0.950 . S
H266 C242 0.950 . S
H267 C243 0.949 . S
H268 C245 0.950 . S
H269 C247 0.950 . S
C270 C271 1.349 . S
C270 C272 1.327 . S
C270 H295 0.950 . S
C271 C270 1.349 . S
C271 C287 1.349 . S
C272 C270 1.327 . S
C272 C291 1.429 . S
C272 H296 0.950 . S
C273 C290 1.574 . S
C273 C292 1.368 . S
C273 H297 0.949 . S
H274 C278 0.949 . S
C275 C276 1.349 . S
C275 C277 1.327 . S
C275 H298 0.950 . S
C276 C275 1.349 . S
C276 C288 1.349 . S
C277 C275 1.327 . S
C277 C293 1.429 1_554 S
C277 H299 0.950 . S
C278 H274 0.949 . S
C278 C286 1.574 . S
C278 C294 1.368 . S
H279 C287 0.950 . S
H280 C285 0.950 . S
H281 C286 0.949 . S
H282 C288 0.950 . S
H283 C289 0.950 . S
H284 C290 0.949 . S
C285 H280 0.950 . S
C285 C287 1.327 . S
C285 C291 1.429 . S
C286 C278 1.574 . S
C286 H281 0.949 . S
C286 C292 1.368 . S
C287 C271 1.349 . S
C287 H279 0.950 . S
C287 C285 1.327 . S
C288 C276 1.349 . S
C288 H282 0.950 . S
C288 C289 1.327 . S
C289 H283 0.950 . S
C289 C288 1.327 . S
C289 C293 1.429 1_554 S
C290 C273 1.574 . S
C290 H284 0.949 . S
C290 C294 1.368 . S
C291 C272 1.429 . S
C291 C285 1.429 . S
C291 C292 1.523 . S
C292 C273 1.368 . S
C292 C286 1.368 . S
C292 C291 1.523 . S
C293 C277 1.429 1_556 S
C293 C289 1.429 1_556 S
C293 C294 1.523 . S
C294 C278 1.368 . S
C294 C290 1.368 . S
C294 C293 1.523 . S
H295 C270 0.950 . S
H296 C272 0.950 . S
H297 C273 0.949 . S
H298 C275 0.950 . S
H299 C277 0.950 . S
C300 C301 1.349 . S
C300 C302 1.327 . S
C300 H325 0.950 . S
C301 C300 1.349 . S
C301 C317 1.349 . S
C302 C300 1.327 . S
C302 C321 1.429 . S
C302 H326 0.950 . S
C303 C320 1.574 . S
C303 C322 1.368 . S
C303 H327 0.949 . S
H304 C308 0.949 . S
C305 C306 1.349 . S
C305 C307 1.327 1_554 S
C305 H328 0.950 . S
C306 C305 1.349 . S
C306 C318 1.349 . S
C307 C305 1.327 1_556 S
C307 C323 1.429 . S
C307 H329 0.950 . S
C308 H304 0.949 . S
C308 C316 1.574 . S
C308 C324 1.368 . S
H309 C317 0.950 . S
H310 C315 0.950 . S
H311 C316 0.949 . S
H312 C318 0.950 . S
H313 C319 0.950 . S
H314 C320 0.949 . S
C315 H310 0.950 . S
C315 C317 1.327 . S
C315 C321 1.429 . S
C316 C308 1.574 . S
C316 H311 0.949 . S
C316 C322 1.368 . S
C317 C301 1.349 . S
C317 H309 0.950 . S
C317 C315 1.327 . S
C318 C306 1.349 . S
C318 H312 0.950 . S
C318 C319 1.327 1_554 S
C319 H313 0.950 . S
C319 C318 1.327 1_556 S
C319 C323 1.429 . S
C320 C303 1.574 . S
C320 H314 0.949 . S
C320 C324 1.368 . S
C321 C302 1.429 . S
C321 C315 1.429 . S
C321 C322 1.523 . S
C322 C303 1.368 . S
C322 C316 1.368 . S
C322 C321 1.523 . S
C323 C307 1.429 . S
C323 C319 1.429 . S
C323 C324 1.523 . S
C324 C308 1.368 . S
C324 C320 1.368 . S
C324 C323 1.523 . S
H325 C300 0.950 . S
H326 C302 0.950 . S
H327 C303 0.949 . S
H328 C305 0.950 . S
H329 C307 0.950 . S
C330 C331 1.349 . S
C330 C332 1.327 . S
C330 H355 0.950 . S
C331 C330 1.349 . S
C331 C347 1.349 . S
C332 C330 1.327 . S
C332 C351 1.429 . S
C332 H356 0.950 . S
C333 C350 1.574 . S
C333 C352 1.368 . S
C333 H357 0.949 . S
H334 C338 0.949 . S
C335 C336 1.349 . S
C335 C337 1.327 . S
C335 H358 0.950 . S
C336 C335 1.349 . S
C336 C348 1.349 . S
C337 C335 1.327 . S
C337 C353 1.429 . S
C337 H359 0.950 . S
C338 H334 0.949 . S
C338 C346 1.574 . S
C338 C354 1.368 . S
H339 C347 0.950 . S
H340 C345 0.950 . S
H341 C346 0.949 . S
H342 C348 0.950 . S
H343 C349 0.950 . S
H344 C350 0.949 . S
C345 H340 0.950 . S
C345 C347 1.327 . S
C345 C351 1.429 . S
C346 C338 1.574 . S
C346 H341 0.949 . S
C346 C352 1.368 . S
C347 C331 1.349 . S
C347 H339 0.950 . S
C347 C345 1.327 . S
C348 C336 1.349 . S
C348 H342 0.950 . S
C348 C349 1.327 . S
C349 H343 0.950 . S
C349 C348 1.327 . S
C349 C353 1.429 . S
C350 C333 1.574 . S
C350 H344 0.949 . S
C350 C354 1.368 . S
C351 C332 1.429 . S
C351 C345 1.429 . S
C351 C352 1.523 . S
C352 C333 1.368 . S
C352 C346 1.368 . S
C352 C351 1.523 . S
C353 C337 1.429 . S
C353 C349 1.429 . S
C353 C354 1.523 . S
C354 C338 1.368 . S
C354 C350 1.368 . S
C354 C353 1.523 . S
H355 C330 0.950 . S
H356 C332 0.950 . S
H357 C333 0.949 . S
H358 C335 0.950 . S
H359 C337 0.950 . S
C360 C361 1.349 . S
C360 C362 1.327 . S
C360 H385 0.950 . S
C361 C360 1.349 . S
C361 C377 1.349 . S
C362 C360 1.327 . S
C362 C381 1.429 . S
C362 H386 0.950 . S
C363 C380 1.574 . S
C363 C382 1.368 . S
C363 H387 0.949 . S
H364 C368 0.949 . S
C365 C366 1.349 . S
C365 C367 1.327 . S
C365 H388 0.950 . S
C366 C365 1.349 . S
C366 C378 1.349 . S
C367 C365 1.327 . S
C367 C383 1.429 1_556 S
C367 H389 0.950 1_556 S
C368 H364 0.949 . S
C368 C376 1.574 . S
C368 C384 1.368 . S
H369 C377 0.950 . S
H370 C375 0.950 . S
H371 C376 0.949 . S
H372 C378 0.950 . S
H373 C379 0.950 1_554 S
H374 C380 0.949 . S
C375 H370 0.950 . S
C375 C377 1.327 . S
C375 C381 1.429 . S
C376 C368 1.574 . S
C376 H371 0.949 . S
C376 C382 1.368 . S
C377 C361 1.349 . S
C377 H369 0.950 . S
C377 C375 1.327 . S
C378 C366 1.349 . S
C378 H372 0.950 . S
C378 C379 1.327 . S
C379 H373 0.950 1_556 S
C379 C378 1.327 . S
C379 C383 1.429 1_556 S
C380 C363 1.574 . S
C380 H374 0.949 . S
C380 C384 1.368 . S
C381 C362 1.429 . S
C381 C375 1.429 . S
C381 C382 1.523 . S
C382 C363 1.368 . S
C382 C376 1.368 . S
C382 C381 1.523 . S
C383 C367 1.429 1_554 S
C383 C379 1.429 1_554 S
C383 C384 1.523 . S
C384 C368 1.368 . S
C384 C380 1.368 . S
C384 C383 1.523 . S
H385 C360 0.950 . S
H386 C362 0.950 . S
H387 C363 0.949 . S
H388 C365 0.950 . S
H389 C367 0.950 1_554 S
C390 C391 1.349 . S
C390 C392 1.327 . S
C390 H415 0.950 . S
C391 C390 1.349 . S
C391 C407 1.349 . S
C392 C390 1.327 . S
C392 C411 1.429 . S
C392 H416 0.950 . S
C393 C410 1.574 . S
C393 C412 1.368 . S
C393 H417 0.949 . S
H394 C398 0.949 . S
C395 C396 1.349 . S
C395 C397 1.327 . S
C395 H418 0.950 . S
C396 C395 1.349 . S
C396 C408 1.349 . S
C397 C395 1.327 . S
C397 C413 1.429 1_556 S
C397 H419 0.950 1_556 S
C398 H394 0.949 . S
C398 C406 1.574 . S
C398 C414 1.368 . S
H399 C407 0.950 . S
H400 C405 0.950 . S
H401 C406 0.949 . S
H402 C408 0.950 . S
H403 C409 0.950 1_554 S
H404 C410 0.949 . S
C405 H400 0.950 . S
C405 C407 1.327 . S
C405 C411 1.429 . S
C406 C398 1.574 . S
C406 H401 0.949 . S
C406 C412 1.368 . S
C407 C391 1.349 . S
C407 H399 0.950 . S
C407 C405 1.327 . S
C408 C396 1.349 . S
C408 H402 0.950 . S
C408 C409 1.327 . S
C409 H403 0.950 1_556 S
C409 C408 1.327 . S
C409 C413 1.429 1_556 S
C410 C393 1.574 . S
C410 H404 0.949 . S
C410 C414 1.368 . S
C411 C392 1.429 . S
C411 C405 1.429 . S
C411 C412 1.523 . S
C412 C393 1.368 . S
C412 C406 1.368 . S
C412 C411 1.523 . S
C413 C397 1.429 1_554 S
C413 C409 1.429 1_554 S
C413 C414 1.523 . S
C414 C398 1.368 . S
C414 C410 1.368 . S
C414 C413 1.523 . S
H415 C390 0.950 . S
H416 C392 0.950 . S
H417 C393 0.949 . S
H418 C395 0.950 . S
H419 C397 0.950 1_554 S
C420 C421 1.349 . S
C420 C422 1.327 . S
C420 H445 0.950 . S
C421 C420 1.349 . S
C421 C437 1.349 . S
C422 C420 1.327 . S
C422 C441 1.429 . S
C422 H446 0.950 . S
C423 C440 1.574 . S
C423 C442 1.368 . S
C423 H447 0.949 . S
H424 C428 0.949 . S
C425 C426 1.349 . S
C425 C427 1.327 . S
C425 H448 0.950 . S
C426 C425 1.349 . S
C426 C438 1.349 . S
C427 C425 1.327 . S
C427 C443 1.429 1_556 S
C427 H449 0.950 1_556 S
C428 H424 0.949 . S
C428 C436 1.574 . S
C428 C444 1.368 . S
H429 C437 0.950 . S
H430 C435 0.950 . S
H431 C436 0.949 . S
H432 C438 0.950 . S
H433 C439 0.950 . S
H434 C440 0.949 . S
C435 H430 0.950 . S
C435 C437 1.327 . S
C435 C441 1.429 . S
C436 C428 1.574 . S
C436 H431 0.949 . S
C436 C442 1.368 . S
C437 C421 1.349 . S
C437 H429 0.950 . S
C437 C435 1.327 . S
C438 C426 1.349 . S
C438 H432 0.950 . S
C438 C439 1.327 1_556 S
C439 H433 0.950 . S
C439 C438 1.327 1_554 S
C439 C443 1.429 . S
C440 C423 1.574 . S
C440 H434 0.949 . S
C440 C444 1.368 . S
C441 C422 1.429 . S
C441 C435 1.429 . S
C441 C442 1.523 . S
C442 C423 1.368 . S
C442 C436 1.368 . S
C442 C441 1.523 . S
C443 C427 1.429 1_554 S
C443 C439 1.429 . S
C443 C444 1.523 . S
C444 C428 1.368 . S
C444 C440 1.368 . S
C444 C443 1.523 . S
H445 C420 0.950 . S
H446 C422 0.950 . S
H447 C423 0.949 . S
H448 C425 0.950 . S
H449 C427 0.950 1_554 S
C450 C451 1.349 . S
C450 C452 1.327 . S
C450 H475 0.950 . S
C451 C450 1.349 . S
C451 C467 1.349 . S
C452 C450 1.327 . S
C452 C471 1.429 . S
C452 H476 0.950 . S
C453 C470 1.574 . S
C453 C472 1.368 . S
C453 H477 0.949 . S
H454 C458 0.949 . S
C455 C456 1.349 . S
C455 C457 1.327 . S
C455 H478 0.950 . S
C456 C455 1.349 . S
C456 C468 1.349 . S
C457 C455 1.327 . S
C457 C473 1.429 . S
C457 H479 0.950 . S
C458 H454 0.949 . S
C458 C466 1.574 . S
C458 C474 1.368 . S
H459 C467 0.950 . S
H460 C465 0.950 . S
H461 C466 0.949 . S
H462 C468 0.950 . S
H463 C469 0.950 . S
H464 C470 0.949 . S
C465 H460 0.950 . S
C465 C467 1.327 . S
C465 C471 1.429 . S
C466 C458 1.574 . S
C466 H461 0.949 . S
C466 C472 1.368 . S
C467 C451 1.349 . S
C467 H459 0.950 . S
C467 C465 1.327 . S
C468 C456 1.349 . S
C468 H462 0.950 . S
C468 C469 1.327 . S
C469 H463 0.950 . S
C469 C468 1.327 . S
C469 C473 1.429 . S
C470 C453 1.574 . S
C470 H464 0.949 . S
C470 C474 1.368 . S
C471 C452 1.429 . S
C471 C465 1.429 . S
C471 C472 1.523 . S
C472 C453 1.368 . S
C472 C466 1.368 . S
C472 C471 1.523 . S
C473 C457 1.429 . S
C473 C469 1.429 . S
C473 C474 1.523 . S
C474 C458 1.368 . S
C474 C470 1.368 . S
C474 C473 1.523 . S
H475 C450 0.950 . S
H476 C452 0.950 . S
H477 C453 0.949 . S
H478 C455 0.950 . S
H479 C457 0.950 . S
C480 C481 1.349 . S
C480 C482 1.327 . S
C480 H505 0.950 . S
C481 C480 1.349 . S
C481 C497 1.349 . S
C482 C480 1.327 . S
C482 C501 1.429 . S
C482 H506 0.950 . S
C483 C500 1.574 . S
C483 C502 1.368 . S
C483 H507 0.949 . S
H484 C488 0.949 . S
C485 C486 1.349 . S
C485 C487 1.327 . S
C485 H508 0.950 . S
C486 C485 1.349 . S
C486 C498 1.349 . S
C487 C485 1.327 . S
C487 C503 1.429 . S
C487 H509 0.950 . S
C488 H484 0.949 . S
C488 C496 1.574 . S
C488 C504 1.368 . S
H489 C497 0.950 . S
H490 C495 0.950 . S
H491 C496 0.949 . S
H492 C498 0.950 . S
H493 C499 0.950 . S
H494 C500 0.949 . S
C495 H490 0.950 . S
C495 C497 1.327 . S
C495 C501 1.429 . S
C496 C488 1.574 . S
C496 H491 0.949 . S
C496 C502 1.368 . S
C497 C481 1.349 . S
C497 H489 0.950 . S
C497 C495 1.327 . S
C498 C486 1.349 . S
C498 H492 0.950 . S
C498 C499 1.327 . S
C499 H493 0.950 . S
C499 C498 1.327 . S
C499 C503 1.429 . S
C500 C483 1.574 . S
C500 H494 0.949 . S
C500 C504 1.368 . S
C501 C482 1.429 . S
C501 C495 1.429 . S
C501 C502 1.523 . S
C502 C483 1.368 . S
C502 C496 1.368 . S
C502 C501 1.523 . S
C503 C487 1.429 . S
C503 C499 1.429 . S
C503 C504 1.523 . S
C504 C488 1.368 . S
C504 C500 1.368 . S
C504 C503 1.523 . S
H505 C480 0.950 . S
H506 C482 0.950 . S
H507 C483 0.949 . S
H508 C485 0.950 . S
H509 C487 0.950 . S
C510 C511 1.349 . S
C510 C512 1.327 . S
C510 H535 0.950 . S
C511 C510 1.349 . S
C511 C527 1.356 . S
C512 C510 1.327 . S
C512 C531 1.429 . S
C512 H536 0.950 . S
C513 C530 1.574 . S
C513 C532 1.368 . S
C513 H537 0.949 . S
H514 C518 0.949 . S
C515 C516 1.349 . S
C515 C517 1.327 . S
C515 H538 0.950 . S
C516 C515 1.349 . S
C516 C528 1.349 . S
C517 C515 1.327 . S
C517 C533 1.429 . S
C517 H539 0.950 . S
C518 H514 0.949 . S
C518 C526 1.574 . S
C518 C534 1.368 . S
H519 C527 0.942 1_545 S
H520 C525 0.950 . S
H521 C526 0.949 . S
H522 C528 0.950 . S
H523 C529 0.950 . S
H524 C530 0.949 . S
C525 H520 0.950 . S
C525 C527 1.328 . S
C525 C531 1.429 . S
C526 C518 1.574 . S
C526 H521 0.949 . S
C526 C532 1.368 . S
C527 C511 1.356 . S
C527 H519 0.942 1_565 S
C527 C525 1.328 . S
C528 C516 1.349 . S
C528 H522 0.950 . S
C528 C529 1.327 . S
C529 H523 0.950 . S
C529 C528 1.327 . S
C529 C533 1.429 . S
C530 C513 1.574 . S
C530 H524 0.949 . S
C530 C534 1.368 . S
C531 C512 1.429 . S
C531 C525 1.429 . S
C531 C532 1.523 . S
C532 C513 1.368 . S
C532 C526 1.368 . S
C532 C531 1.523 . S
C533 C517 1.429 . S
C533 C529 1.429 . S
C533 C534 1.523 . S
C534 C518 1.368 . S
C534 C530 1.368 . S
C534 C533 1.523 . S
H535 C510 0.950 . S
H536 C512 0.950 . S
H537 C513 0.949 . S
H538 C515 0.950 . S
H539 C517 0.950 . S
C540 C541 1.349 . S
C540 C542 1.327 . S
C540 H565 0.950 . S
C541 C540 1.349 . S
C541 C557 1.349 . S
C542 C540 1.327 . S
C542 C561 1.429 . S
C542 H566 0.950 . S
C543 C560 1.574 . S
C543 C562 1.368 1_556 S
C543 H567 0.949 1_556 S
H544 C548 0.949 . S
C545 C546 1.349 . S
C545 C547 1.327 . S
C545 H568 0.950 . S
C546 C545 1.349 . S
C546 C558 1.349 . S
C547 C545 1.327 . S
C547 C563 1.429 . S
C547 H569 0.950 . S
C548 H544 0.949 . S
C548 C556 1.574 . S
C548 C564 1.368 . S
H549 C557 0.950 . S
H550 C555 0.950 . S
H551 C556 0.949 . S
H552 C558 0.950 . S
H553 C559 0.950 . S
H554 C560 0.949 . S
C555 H550 0.950 . S
C555 C557 1.327 . S
C555 C561 1.429 . S
C556 C548 1.574 . S
C556 H551 0.949 . S
C556 C562 1.368 1_556 S
C557 C541 1.349 . S
C557 H549 0.950 . S
C557 C555 1.327 . S
C558 C546 1.349 . S
C558 H552 0.950 . S
C558 C559 1.327 . S
C559 H553 0.950 . S
C559 C558 1.327 . S
C559 C563 1.429 . S
C560 C543 1.574 . S
C560 H554 0.949 . S
C560 C564 1.368 . S
C561 C542 1.429 . S
C561 C555 1.429 . S
C561 C562 1.523 . S
C562 C543 1.368 1_554 S
C562 C556 1.368 1_554 S
C562 C561 1.523 . S
C563 C547 1.429 . S
C563 C559 1.429 . S
C563 C564 1.523 . S
C564 C548 1.368 . S
C564 C560 1.368 . S
C564 C563 1.523 . S
H565 C540 0.950 . S
H566 C542 0.950 . S
H567 C543 0.949 1_554 S
H568 C545 0.950 . S
H569 C547 0.950 . S
C570 C571 1.349 . S
C570 C572 1.327 . S
C570 H595 0.950 . S
C571 C570 1.349 . S
C571 C587 1.349 . S
C572 C570 1.327 . S
C572 C591 1.429 . S
C572 H596 0.950 . S
C573 C590 1.574 . S
C573 C592 1.368 . S
C573 H597 0.949 . S
H574 C578 0.949 . S
C575 C576 1.349 1_554 S
C575 C577 1.327 1_554 S
C575 H598 0.950 . S
C576 C575 1.349 1_556 S
C576 C588 1.349 . S
C577 C575 1.327 1_556 S
C577 C593 1.429 . S
C577 H599 0.950 1_556 S
C578 H574 0.949 . S
C578 C586 1.574 . S
C578 C594 1.368 . S
H579 C587 0.950 . S
H580 C585 0.950 . S
H581 C586 0.949 . S
H582 C588 0.950 . S
H583 C589 0.950 . S
H584 C590 0.949 . S
C585 H580 0.950 . S
C585 C587 1.327 . S
C585 C591 1.429 . S
C586 C578 1.574 . S
C586 H581 0.949 . S
C586 C592 1.368 . S
C587 C571 1.349 . S
C587 H579 0.950 . S
C587 C585 1.327 . S
C588 C576 1.349 . S
C588 H582 0.950 . S
C588 C589 1.327 . S
C589 H583 0.950 . S
C589 C588 1.327 . S
C589 C593 1.429 . S
C590 C573 1.574 . S
C590 H584 0.949 . S
C590 C594 1.368 . S
C591 C572 1.429 . S
C591 C585 1.429 . S
C591 C592 1.523 . S
C592 C573 1.368 . S
C592 C586 1.368 . S
C592 C591 1.523 . S
C593 C577 1.429 . S
C593 C589 1.429 . S
C593 C594 1.523 . S
C594 C578 1.368 . S
C594 C590 1.368 . S
C594 C593 1.523 . S
H595 C570 0.950 . S
H596 C572 0.950 . S
H597 C573 0.949 . S
H598 C575 0.950 . S
H599 C577 0.950 1_554 S
C600 C601 1.349 . S
C600 C602 1.327 . S
C600 H625 0.950 . S
C601 C600 1.349 . S
C601 C617 1.349 . S
C602 C600 1.327 . S
C602 C621 1.429 . S
C602 H626 0.950 . S
C603 C620 1.574 . S
C603 C622 1.368 . S
C603 H627 0.949 . S
H604 C608 0.949 1_554 S
C605 C606 1.349 . S
C605 C607 1.327 1_554 S
C605 H628 0.950 . S
C606 C605 1.349 . S
C606 C618 1.349 . S
C607 C605 1.327 1_556 S
C607 C623 1.429 . S
C607 H629 0.950 . S
C608 H604 0.949 1_556 S
C608 C616 1.574 . S
C608 C624 1.368 . S
H609 C617 0.950 . S
H610 C615 0.950 . S
H611 C616 0.949 . S
H612 C618 0.950 . S
H613 C619 0.950 . S
H614 C620 0.949 . S
C615 H610 0.950 . S
C615 C617 1.327 . S
C615 C621 1.429 . S
C616 C608 1.574 . S
C616 H611 0.949 . S
C616 C622 1.368 . S
C617 C601 1.349 . S
C617 H609 0.950 . S
C617 C615 1.327 . S
C618 C606 1.349 . S
C618 H612 0.950 . S
C618 C619 1.327 . S
C619 H613 0.950 . S
C619 C618 1.327 . S
C619 C623 1.426 1_554 S
C620 C603 1.574 . S
C620 H614 0.949 . S
C620 C624 1.368 . S
C621 C602 1.429 . S
C621 C615 1.429 . S
C621 C622 1.523 . S
C622 C603 1.368 . S
C622 C616 1.368 . S
C622 C621 1.523 . S
C623 C607 1.429 . S
C623 C619 1.426 1_556 S
C623 C624 1.525 . S
C624 C608 1.368 . S
C624 C620 1.368 . S
C624 C623 1.525 . S
H625 C600 0.950 . S
H626 C602 0.950 . S
H627 C603 0.949 . S
H628 C605 0.950 . S
H629 C607 0.950 . S
C630 C631 1.349 . S
C630 C632 1.327 . S
C630 H655 0.950 . S
C631 C630 1.349 . S
C631 C647 1.349 . S
C632 C630 1.327 . S
C632 C651 1.429 . S
C632 H656 0.950 . S
C633 C650 1.574 . S
C633 C652 1.368 . S
C633 H657 0.949 . S
H634 C638 0.949 . S
C635 C636 1.349 1_554 S
C635 C637 1.327 1_554 S
C635 H658 0.950 . S
C636 C635 1.349 1_556 S
C636 C648 1.349 . S
C637 C635 1.327 1_556 S
C637 C653 1.429 . S
C637 H659 0.950 1_556 S
C638 H634 0.949 . S
C638 C646 1.574 . S
C638 C654 1.368 . S
H639 C647 0.950 . S
H640 C645 0.950 . S
H641 C646 0.949 . S
H642 C648 0.950 . S
H643 C649 0.950 . S
H644 C650 0.949 . S
C645 H640 0.950 . S
C645 C647 1.327 . S
C645 C651 1.429 . S
C646 C638 1.574 . S
C646 H641 0.949 . S
C646 C652 1.368 . S
C647 C631 1.349 . S
C647 H639 0.950 . S
C647 C645 1.327 . S
C648 C636 1.349 . S
C648 H642 0.950 . S
C648 C649 1.327 . S
C649 H643 0.950 . S
C649 C648 1.327 . S
C649 C653 1.429 . S
C650 C633 1.574 . S
C650 H644 0.949 . S
C650 C654 1.368 . S
C651 C632 1.429 . S
C651 C645 1.429 . S
C651 C652 1.523 . S
C652 C633 1.368 . S
C652 C646 1.368 . S
C652 C651 1.523 . S
C653 C637 1.429 . S
C653 C649 1.429 . S
C653 C654 1.523 . S
C654 C638 1.368 . S
C654 C650 1.368 . S
C654 C653 1.523 . S
H655 C630 0.950 . S
H656 C632 0.950 . S
H657 C633 0.949 . S
H658 C635 0.950 . S
H659 C637 0.950 1_554 S
C660 C661 1.349 1_556 S
C660 C662 1.327 . S
C660 H685 0.950 . S
C661 C660 1.349 1_554 S
C661 C677 1.349 . S
C662 C660 1.327 . S
C662 C681 1.429 . S
C662 H686 0.950 . S
C663 C680 1.574 . S
C663 C682 1.368 . S
C663 H687 0.949 1_556 S
H664 C668 0.949 . S
C665 C666 1.349 . S
C665 C667 1.327 . S
C665 H688 0.950 . S
C666 C665 1.349 . S
C666 C678 1.349 . S
C667 C665 1.327 . S
C667 C683 1.429 . S
C667 H689 0.950 . S
C668 H664 0.949 . S
C668 C676 1.574 . S
C668 C684 1.368 . S
H669 C677 0.950 . S
H670 C675 0.950 . S
H671 C676 0.949 . S
H672 C678 0.950 . S
H673 C679 0.950 . S
H674 C680 0.949 . S
C675 H670 0.950 . S
C675 C677 1.327 . S
C675 C681 1.429 1_554 S
C676 C668 1.574 . S
C676 H671 0.949 . S
C676 C682 1.368 . S
C677 C661 1.349 . S
C677 H669 0.950 . S
C677 C675 1.327 . S
C678 C666 1.349 . S
C678 H672 0.950 . S
C678 C679 1.327 . S
C679 H673 0.950 . S
C679 C678 1.327 . S
C679 C683 1.429 . S
C680 C663 1.574 . S
C680 H674 0.949 . S
C680 C684 1.368 . S
C681 C662 1.429 . S
C681 C675 1.429 1_556 S
C681 C682 1.523 . S
C682 C663 1.368 . S
C682 C676 1.368 . S
C682 C681 1.523 . S
C683 C667 1.429 . S
C683 C679 1.429 . S
C683 C684 1.523 . S
C684 C668 1.368 . S
C684 C680 1.368 . S
C684 C683 1.523 . S
H685 C660 0.950 . S
H686 C662 0.950 . S
H687 C663 0.949 1_554 S
H688 C665 0.950 . S
H689 C667 0.950 . S
C690 C691 1.349 . S
C690 C692 1.327 . S
C690 H715 0.950 . S
C691 C690 1.349 . S
C691 C707 1.349 . S
C692 C690 1.327 . S
C692 C711 1.429 . S
C692 H716 0.950 . S
C693 C710 1.574 . S
C693 C712 1.368 . S
C693 H717 0.949 . S
H694 C698 0.949 . S
C695 C696 1.349 . S
C695 C697 1.327 . S
C695 H718 0.950 . S
C696 C695 1.349 . S
C696 C708 1.349 . S
C697 C695 1.327 . S
C697 C713 1.429 . S
C697 H719 0.950 . S
C698 H694 0.949 . S
C698 C706 1.574 . S
C698 C714 1.368 . S
H699 C707 0.950 . S
H700 C705 0.950 . S
H701 C706 0.949 . S
H702 C708 0.950 . S
H703 C709 0.950 . S
H704 C710 0.949 1_554 S
C705 H700 0.950 . S
C705 C707 1.327 . S
C705 C711 1.429 . S
C706 C698 1.574 . S
C706 H701 0.949 . S
C706 C712 1.368 . S
C707 C691 1.349 . S
C707 H699 0.950 . S
C707 C705 1.327 . S
C708 C696 1.349 . S
C708 H702 0.950 . S
C708 C709 1.327 . S
C709 H703 0.950 . S
C709 C708 1.327 . S
C709 C713 1.429 . S
C710 C693 1.574 . S
C710 H704 0.949 1_556 S
C710 C714 1.368 . S
C711 C692 1.429 . S
C711 C705 1.429 . S
C711 C712 1.523 . S
C712 C693 1.368 . S
C712 C706 1.368 . S
C712 C711 1.523 . S
C713 C697 1.429 . S
C713 C709 1.429 . S
C713 C714 1.523 1_554 S
C714 C698 1.368 . S
C714 C710 1.368 . S
C714 C713 1.523 1_556 S
H715 C690 0.950 . S
H716 C692 0.950 . S
H717 C693 0.949 . S
H718 C695 0.950 . S
H719 C697 0.950 . S
C720 C721 1.349 1_565 S
C720 C722 1.327 . S
C720 H745 0.950 . S
C721 C720 1.349 1_545 S
C721 C737 1.349 . S
C722 C720 1.327 . S
C722 C741 1.429 . S
C722 H746 0.950 . S
C723 C740 1.574 . S
C723 C742 1.368 . S
C723 H747 0.949 1_565 S
H724 C728 0.949 . S
C725 C726 1.349 . S
C725 C727 1.327 . S
C725 H748 0.950 . S
C726 C725 1.349 . S
C726 C738 1.349 . S
C727 C725 1.327 . S
C727 C743 1.429 . S
C727 H749 0.950 . S
C728 H724 0.949 . S
C728 C736 1.574 . S
C728 C744 1.368 . S
H729 C737 0.950 . S
H730 C735 0.950 . S
H731 C736 0.949 . S
H732 C738 0.950 . S
H733 C739 0.950 . S
H734 C740 0.949 . S
C735 H730 0.950 . S
C735 C737 1.327 . S
C735 C741 1.429 1_545 S
C736 C728 1.574 . S
C736 H731 0.949 . S
C736 C742 1.368 . S
C737 C721 1.349 . S
C737 H729 0.950 . S
C737 C735 1.327 . S
C738 C726 1.349 . S
C738 H732 0.950 . S
C738 C739 1.327 . S
C739 H733 0.950 . S
C739 C738 1.327 . S
C739 C743 1.429 . S
C740 C723 1.574 . S
C740 H734 0.949 . S
C740 C744 1.368 . S
C741 C722 1.429 . S
C741 C735 1.429 1_565 S
C741 C742 1.523 . S
C742 C723 1.368 . S
C742 C736 1.368 . S
C742 C741 1.523 . S
C743 C727 1.429 . S
C743 C739 1.429 . S
C743 C744 1.523 . S
C744 C728 1.368 . S
C744 C740 1.368 . S
C744 C743 1.523 . S
H745 C720 0.950 . S
H746 C722 0.950 . S
H747 C723 0.949 1_545 S
H748 C725 0.950 . S
H749 C727 0.950 . S
C750 C751 1.349 . S
C750 C752 1.327 . S
C750 H775 0.950 . S
C751 C750 1.349 . S
C751 C767 1.349 . S
C752 C750 1.327 . S
C752 C771 1.429 . S
C752 H776 0.950 . S
C753 C770 1.574 . S
C753 C772 1.368 . S
C753 H777 0.949 . S
H754 C758 0.949 . S
C755 C756 1.349 . S
C755 C757 1.327 . S
C755 H778 0.950 . S
C756 C755 1.349 . S
C756 C768 1.349 . S
C757 C755 1.327 . S
C757 C773 1.429 . S
C757 H779 0.950 . S
C758 H754 0.949 . S
C758 C766 1.574 . S
C758 C774 1.368 . S
H759 C767 0.950 . S
H760 C765 0.950 . S
H761 C766 0.949 . S
H762 C768 0.950 1_556 S
H763 C769 0.957 . S
H764 C770 0.949 . S
C765 H760 0.950 . S
C765 C767 1.327 . S
C765 C771 1.429 . S
C766 C758 1.574 . S
C766 H761 0.949 . S
C766 C772 1.368 . S
C767 C751 1.349 . S
C767 H759 0.950 . S
C767 C765 1.327 . S
C768 C756 1.349 . S
C768 H762 0.950 1_554 S
C768 C769 1.327 . S
C769 H763 0.957 . S
C769 C768 1.327 . S
C769 C773 1.429 . S
C770 C753 1.574 . S
C770 H764 0.949 . S
C770 C774 1.368 . S
C771 C752 1.429 . S
C771 C765 1.429 . S
C771 C772 1.523 . S
C772 C753 1.368 . S
C772 C766 1.368 . S
C772 C771 1.523 . S
C773 C757 1.429 . S
C773 C769 1.429 . S
C773 C774 1.523 . S
C774 C758 1.368 . S
C774 C770 1.368 . S
C774 C773 1.523 . S
H775 C750 0.950 . S
H776 C752 0.950 . S
H777 C753 0.949 . S
H778 C755 0.950 . S
H779 C757 0.950 . S
C780 C781 1.349 . S
C780 C782 1.327 . S
C780 H805 0.950 . S
C781 C780 1.349 . S
C781 C797 1.349 . S
C782 C780 1.327 . S
C782 C801 1.429 . S
C782 H806 0.950 . S
C783 C800 1.574 . S
C783 C802 1.368 . S
C783 H807 0.949 . S
H784 C788 0.949 . S
C785 C786 1.349 . S
C785 C787 1.327 . S
C785 H808 0.950 . S
C786 C785 1.349 . S
C786 C798 1.349 . S
C787 C785 1.327 . S
C787 C803 1.429 . S
C787 H809 0.950 . S
C788 H784 0.949 . S
C788 C796 1.574 . S
C788 C804 1.368 . S
H789 C797 0.950 . S
H790 C795 0.950 . S
H791 C796 0.949 . S
H792 C798 0.950 . S
H793 C799 0.950 . S
H794 C800 0.949 . S
C795 H790 0.950 . S
C795 C797 1.327 . S
C795 C801 1.429 . S
C796 C788 1.574 . S
C796 H791 0.949 . S
C796 C802 1.368 . S
C797 C781 1.349 . S
C797 H789 0.950 . S
C797 C795 1.327 . S
C798 C786 1.349 . S
C798 H792 0.950 . S
C798 C799 1.327 . S
C799 H793 0.950 . S
C799 C798 1.327 . S
C799 C803 1.429 . S
C800 C783 1.574 . S
C800 H794 0.949 . S
C800 C804 1.368 . S
C801 C782 1.429 . S
C801 C795 1.429 . S
C801 C802 1.523 . S
C802 C783 1.368 . S
C802 C796 1.368 . S
C802 C801 1.523 . S
C803 C787 1.429 . S
C803 C799 1.429 . S
C803 C804 1.523 . S
C804 C788 1.368 . S
C804 C800 1.368 . S
C804 C803 1.523 . S
H805 C780 0.950 . S
H806 C782 0.950 . S
H807 C783 0.949 . S
H808 C785 0.950 . S
H809 C787 0.950 . S
C810 C811 1.349 . S
C810 C812 1.327 . S
C810 H835 0.950 . S
C811 C810 1.349 . S
C811 C827 1.349 . S
C812 C810 1.327 . S
C812 C831 1.429 . S
C812 H836 0.950 . S
C813 C830 1.574 . S
C813 C832 1.368 . S
C813 H837 0.949 . S
H814 C818 0.949 . S
C815 C816 1.349 . S
C815 C817 1.327 . S
C815 H838 0.950 . S
C816 C815 1.349 . S
C816 C828 1.349 . S
C817 C815 1.327 . S
C817 C833 1.429 . S
C817 H839 0.950 . S
C818 H814 0.949 . S
C818 C826 1.574 . S
C818 C834 1.368 . S
H819 C827 0.950 . S
H820 C825 0.950 . S
H821 C826 0.949 . S
H822 C828 0.950 . S
H823 C829 0.950 . S
H824 C830 0.949 . S
C825 H820 0.950 . S
C825 C827 1.327 . S
C825 C831 1.429 . S
C826 C818 1.574 . S
C826 H821 0.949 . S
C826 C832 1.368 . S
C827 C811 1.349 . S
C827 H819 0.950 . S
C827 C825 1.327 . S
C828 C816 1.349 . S
C828 H822 0.950 . S
C828 C829 1.327 . S
C829 H823 0.950 . S
C829 C828 1.327 . S
C829 C833 1.429 . S
C830 C813 1.574 . S
C830 H824 0.949 . S
C830 C834 1.368 . S
C831 C812 1.429 . S
C831 C825 1.429 . S
C831 C832 1.523 . S
C832 C813 1.368 . S
C832 C826 1.368 . S
C832 C831 1.523 . S
C833 C817 1.429 . S
C833 C829 1.429 . S
C833 C834 1.523 . S
C834 C818 1.368 . S
C834 C830 1.368 . S
C834 C833 1.523 . S
H835 C810 0.950 . S
H836 C812 0.950 . S
H837 C813 0.949 . S
H838 C815 0.950 . S
H839 C817 0.950 . S
C840 C841 1.349 . S
C840 C842 1.327 . S
C840 H865 0.950 . S
C841 C840 1.349 . S
C841 C857 1.349 . S
C842 C840 1.327 . S
C842 C861 1.429 . S
C842 H866 0.950 . S
C843 C860 1.574 . S
C843 C862 1.368 . S
C843 H867 0.949 . S
H844 C848 0.949 1_565 S
C845 C846 1.349 . S
C845 C847 1.327 . S
C845 H868 0.950 . S
C846 C845 1.349 . S
C846 C858 1.349 . S
C847 C845 1.327 . S
C847 C863 1.429 . S
C847 H869 0.950 . S
C848 H844 0.949 1_545 S
C848 C856 1.574 . S
C848 C864 1.368 . S
H849 C857 0.950 . S
H850 C855 0.950 . S
H851 C856 0.949 . S
H852 C858 0.950 . S
H853 C859 0.950 . S
H854 C860 0.949 . S
C855 H850 0.950 . S
C855 C857 1.327 . S
C855 C861 1.429 . S
C856 C848 1.574 . S
C856 H851 0.949 . S
C856 C862 1.368 . S
C857 C841 1.349 . S
C857 H849 0.950 . S
C857 C855 1.327 . S
C858 C846 1.349 . S
C858 H852 0.950 . S
C858 C859 1.327 . S
C859 H853 0.950 . S
C859 C858 1.327 . S
C859 C863 1.429 . S
C860 C843 1.574 . S
C860 H854 0.949 . S
C860 C864 1.368 . S
C861 C842 1.429 . S
C861 C855 1.429 . S
C861 C862 1.523 . S
C862 C843 1.368 . S
C862 C856 1.368 . S
C862 C861 1.523 . S
C863 C847 1.429 . S
C863 C859 1.429 . S
C863 C864 1.523 1_565 S
C864 C848 1.368 . S
C864 C860 1.368 . S
C864 C863 1.523 1_545 S
H865 C840 0.950 . S
H866 C842 0.950 . S
H867 C843 0.949 . S
H868 C845 0.950 . S
H869 C847 0.950 . S
C870 C871 1.349 . S
C870 C872 1.327 . S
C870 H895 0.950 . S
C871 C870 1.349 . S
C871 C887 1.349 . S
C872 C870 1.327 . S
C872 C891 1.429 . S
C872 H896 0.950 . S
C873 C890 1.574 . S
C873 C892 1.368 . S
C873 H897 0.949 . S
H874 C878 0.949 . S
C875 C876 1.349 . S
C875 C877 1.327 . S
C875 H898 0.950 . S
C876 C875 1.349 . S
C876 C888 1.349 . S
C877 C875 1.327 . S
C877 C893 1.429 . S
C877 H899 0.950 . S
C878 H874 0.949 . S
C878 C886 1.574 . S
C878 C894 1.368 . S
H879 C887 0.950 . S
H880 C885 0.950 . S
H881 C886 0.949 . S
H882 C888 0.950 . S
H883 C889 0.950 . S
H884 C890 0.949 . S
C885 H880 0.950 . S
C885 C887 1.327 . S
C885 C891 1.429 . S
C886 C878 1.574 . S
C886 H881 0.949 . S
C886 C892 1.368 . S
C887 C871 1.349 . S
C887 H879 0.950 . S
C887 C885 1.327 . S
C888 C876 1.349 . S
C888 H882 0.950 . S
C888 C889 1.327 . S
C889 H883 0.950 . S
C889 C888 1.327 . S
C889 C893 1.429 . S
C890 C873 1.574 . S
C890 H884 0.949 . S
C890 C894 1.368 . S
C891 C872 1.429 . S
C891 C885 1.429 . S
C891 C892 1.523 1_655 S
C892 C873 1.368 . S
C892 C886 1.368 . S
C892 C891 1.523 1_455 S
C893 C877 1.429 . S
C893 C889 1.429 . S
C893 C894 1.523 . S
C894 C878 1.368 . S
C894 C890 1.368 . S
C894 C893 1.523 . S
H895 C870 0.950 . S
H896 C872 0.950 . S
H897 C873 0.949 . S
H898 C875 0.950 . S
H899 C877 0.950 . S
C900 C901 1.349 . S
C900 C902 1.327 . S
C900 H925 0.950 . S
C901 C900 1.349 . S
C901 C917 1.349 . S
C902 C900 1.327 . S
C902 C921 1.429 . S
C902 H926 0.950 . S
C903 C920 1.574 . S
C903 C922 1.368 . S
C903 H927 0.949 . S
H904 C908 0.949 . S
C905 C906 1.349 . S
C905 C907 1.327 . S
C905 H928 0.950 . S
C906 C905 1.349 . S
C906 C918 1.349 . S
C907 C905 1.327 . S
C907 C923 1.429 . S
C907 H929 0.950 . S
C908 H904 0.949 . S
C908 C916 1.574 . S
C908 C924 1.368 . S
H909 C917 0.950 . S
H910 C915 0.950 . S
H911 C916 0.949 . S
H912 C918 0.950 . S
H913 C919 0.950 . S
H914 C920 0.949 . S
C915 H910 0.950 . S
C915 C917 1.327 . S
C915 C921 1.429 . S
C916 C908 1.574 . S
C916 H911 0.949 . S
C916 C922 1.368 . S
C917 C901 1.349 . S
C917 H909 0.950 . S
C917 C915 1.327 . S
C918 C906 1.349 . S
C918 H912 0.950 . S
C918 C919 1.327 . S
C919 H913 0.950 . S
C919 C918 1.327 . S
C919 C923 1.429 . S
C920 C903 1.574 . S
C920 H914 0.949 . S
C920 C924 1.368 . S
C921 C902 1.429 . S
C921 C915 1.429 . S
C921 C922 1.523 . S
C922 C903 1.368 . S
C922 C916 1.368 . S
C922 C921 1.523 . S
C923 C907 1.429 . S
C923 C919 1.429 . S
C923 C924 1.523 . S
C924 C908 1.368 . S
C924 C920 1.368 . S
C924 C923 1.523 . S
H925 C900 0.950 . S
H926 C902 0.950 . S
H927 C903 0.949 . S
H928 C905 0.950 . S
H929 C907 0.950 . S
C930 C931 1.349 . S
C930 C932 1.327 . S
C930 H955 0.950 . S
C931 C930 1.349 . S
C931 C947 1.349 . S
C932 C930 1.327 . S
C932 C951 1.429 . S
C932 H956 0.950 . S
C933 C950 1.574 1_565 S
C933 C952 1.368 . S
C933 H957 0.949 . S
H934 C938 0.949 . S
C935 C936 1.349 . S
C935 C937 1.327 . S
C935 H958 0.950 . S
C936 C935 1.349 . S
C936 C948 1.349 . S
C937 C935 1.327 . S
C937 C953 1.429 . S
C937 H959 0.950 . S
C938 H934 0.949 . S
C938 C946 1.574 . S
C938 C954 1.368 . S
H939 C947 0.950 . S
H940 C945 0.950 . S
H941 C946 0.949 . S
H942 C948 0.950 . S
H943 C949 0.950 . S
H944 C950 0.949 . S
C945 H940 0.950 . S
C945 C947 1.327 . S
C945 C951 1.429 . S
C946 C938 1.574 . S
C946 H941 0.949 . S
C946 C952 1.368 1_545 S
C947 C931 1.349 . S
C947 H939 0.950 . S
C947 C945 1.327 . S
C948 C936 1.349 . S
C948 H942 0.950 . S
C948 C949 1.327 . S
C949 H943 0.950 . S
C949 C948 1.327 . S
C949 C953 1.429 . S
C950 C933 1.574 1_545 S
C950 H944 0.949 . S
C950 C954 1.368 . S
C951 C932 1.429 . S
C951 C945 1.429 . S
C951 C952 1.523 . S
C952 C933 1.368 . S
C952 C946 1.368 1_565 S
C952 C951 1.523 . S
C953 C937 1.429 . S
C953 C949 1.429 . S
C953 C954 1.523 . S
C954 C938 1.368 . S
C954 C950 1.368 . S
C954 C953 1.523 . S
H955 C930 0.950 . S
H956 C932 0.950 . S
H957 C933 0.949 . S
H958 C935 0.950 . S
H959 C937 0.950 . S
C960 C961 1.349 . S
C960 C962 1.327 . S
C960 H985 0.950 . S
C961 C960 1.349 . S
C961 C977 1.349 . S
C962 C960 1.327 . S
C962 C981 1.430 . S
C962 H986 0.950 . S
C963 C980 1.574 . S
C963 C982 1.368 . S
C963 H987 0.949 . S
H964 C968 0.949 . S
C965 C966 1.349 . S
C965 C967 1.327 . S
C965 H988 0.950 . S
C966 C965 1.349 . S
C966 C978 1.349 . S
C967 C965 1.327 . S
C967 C983 1.429 . S
C967 H989 0.950 . S
C968 H964 0.949 . S
C968 C976 1.574 . S
C968 C984 1.368 . S
H969 C977 0.950 . S
H970 C975 0.950 . S
H971 C976 0.949 . S
H972 C978 0.950 . S
H973 C979 0.950 . S
H974 C980 0.949 . S
C975 H970 0.950 . S
C975 C977 1.327 . S
C975 C981 1.459 . S
C976 C968 1.574 . S
C976 H971 0.949 . S
C976 C982 1.368 . S
C977 C961 1.349 . S
C977 H969 0.950 . S
C977 C975 1.327 . S
C978 C966 1.349 . S
C978 H972 0.950 . S
C978 C979 1.327 . S
C979 H973 0.950 . S
C979 C978 1.327 . S
C979 C983 1.429 . S
C980 C963 1.574 . S
C980 H974 0.949 . S
C980 C984 1.368 . S
C981 C962 1.430 . S
C981 C975 1.459 . S
C981 C982 1.495 1_655 S
C982 C963 1.368 . S
C982 C976 1.368 . S
C982 C981 1.495 1_455 S
C983 C967 1.429 . S
C983 C979 1.429 . S
C983 C984 1.523 . S
C984 C968 1.368 . S
C984 C980 1.368 . S
C984 C983 1.523 . S
H985 C960 0.950 . S
H986 C962 0.950 . S
H987 C963 0.949 . S
H988 C965 0.950 . S
H989 C967 0.950 . S
C181 C8 1.467 . S
C186 C9 1.467 . S
C211 C28 1.497 . S
C216 C29 1.497 . S
C241 C48 1.518 1_556 S
C246 C49 1.518 . S
C271 C69 1.467 . S
C276 C68 1.467 . S
C301 C89 1.497 . S
C306 C88 1.497 . S
C331 C109 1.518 . S
C336 C108 1.518 1_556 S
C361 C122 0.563 . S
C366 C121 0.563 . S
C391 C141 0.560 . S
C396 C142 0.560 . S
C421 C162 0.556 . S
C426 C161 0.556 . S
C451 C118 1.917 . S
C456 C2 1.919 . S
C481 C22 1.894 . S
C486 C78 1.899 . S
C511 C42 1.982 1_565 S
C516 C98 1.999 . S
C541 C58 1.613 . S
C546 C139 1.700 . S
C571 C149 1.153 . S
C576 C18 1.123 . S
C601 C179 1.638 . S
C606 C38 1.555 . S
C631 C168 1.171 . S
C636 C1 1.168 . S
C661 C21 1.211 . S
C666 C128 1.217 . S
C691 C158 1.737 . S
C696 C41 1.698 . S
C721 C59 1.916 . S
C726 C61 1.918 . S
C751 C81 1.894 . S
C756 C19 1.899 . S
C781 C39 1.999 . S
C786 C101 1.982 . S
C811 C169 1.171 . S
C816 C62 1.168 . S
C841 C129 1.217 . S
C846 C82 1.211 . S
C871 C159 1.737 . S
C876 C102 1.698 . S
C901 C138 1.700 . S
C906 C119 1.613 . S
C931 C79 1.126 . S
C936 C148 1.153 . S
C961 C178 1.638 . S
C966 C99 1.555 . S
