# Generated by pormake.
# Topology une, (4)-cn, num edge types: 1
# Building blocks:
#     Node 0, Type 0, BuildingBlock: KUFVIS_clean_sbu_0, # of connection points: 4
#     Node 1, Type 0, BuildingBlock: KUFVIS_clean_sbu_0, # of connection points: 4
#     Node 2, Type 0, BuildingBlock: KUFVIS_clean_sbu_0, # of connection points: 4
#     Node 3, Type 0, BuildingBlock: KUFVIS_clean_sbu_0, # of connection points: 4
#     Node 4, Type 0, BuildingBlock: KUFVIS_clean_sbu_0, # of connection points: 4
#     Node 5, Type 0, BuildingBlock: KUFVIS_clean_sbu_0, # of connection points: 4
#     Node 6, Type 0, BuildingBlock: KUFVIS_clean_sbu_0, # of connection points: 4
#     Node 7, Type 0, BuildingBlock: KUFVIS_clean_sbu_0, # of connection points: 4
#     Node 8, Type 0, BuildingBlock: KUFVIS_clean_sbu_0, # of connection points: 4
#     Node 9, Type 0, BuildingBlock: KUFVIS_clean_sbu_0, # of connection points: 4
#     Node 10, Type 0, BuildingBlock: KUFVIS_clean_sbu_0, # of connection points: 4
#     Node 11, Type 0, BuildingBlock: KUFVIS_clean_sbu_0, # of connection points: 4
#     Node 12, Type 0, BuildingBlock: KUFVIS_clean_sbu_0, # of connection points: 4
#     Node 13, Type 0, BuildingBlock: KUFVIS_clean_sbu_0, # of connection points: 4
#     Node 14, Type 0, BuildingBlock: KUFVIS_clean_sbu_0, # of connection points: 4
#     Node 15, Type 0, BuildingBlock: KUFVIS_clean_sbu_0, # of connection points: 4
#     Node 16, Type 0, BuildingBlock: KUFVIS_clean_sbu_0, # of connection points: 4
#     Node 17, Type 0, BuildingBlock: KUFVIS_clean_sbu_0, # of connection points: 4
#     Edge 18, Type (0, 0), BuildingBlock: OJICUG_clean_linker_0, # of connection points: 2
#     Edge 19, Type (0, 0), BuildingBlock: OJICUG_clean_linker_0, # of connection points: 2
#     Edge 20, Type (0, 0), BuildingBlock: OJICUG_clean_linker_0, # of connection points: 2
#     Edge 21, Type (0, 0), BuildingBlock: OJICUG_clean_linker_0, # of connection points: 2
#     Edge 22, Type (0, 0), BuildingBlock: OJICUG_clean_linker_0, # of connection points: 2
#     Edge 23, Type (0, 0), BuildingBlock: OJICUG_clean_linker_0, # of connection points: 2
#     Edge 24, Type (0, 0), BuildingBlock: OJICUG_clean_linker_0, # of connection points: 2
#     Edge 25, Type (0, 0), BuildingBlock: OJICUG_clean_linker_0, # of connection points: 2
#     Edge 26, Type (0, 0), BuildingBlock: OJICUG_clean_linker_0, # of connection points: 2
#     Edge 27, Type (0, 0), BuildingBlock: OJICUG_clean_linker_0, # of connection points: 2
#     Edge 28, Type (0, 0), BuildingBlock: OJICUG_clean_linker_0, # of connection points: 2
#     Edge 29, Type (0, 0), BuildingBlock: OJICUG_clean_linker_0, # of connection points: 2
#     Edge 30, Type (0, 0), BuildingBlock: OJICUG_clean_linker_0, # of connection points: 2
#     Edge 31, Type (0, 0), BuildingBlock: OJICUG_clean_linker_0, # of connection points: 2
#     Edge 32, Type (0, 0), BuildingBlock: OJICUG_clean_linker_0, # of connection points: 2
#     Edge 33, Type (0, 0), BuildingBlock: OJICUG_clean_linker_0, # of connection points: 2
#     Edge 34, Type (0, 0), BuildingBlock: OJICUG_clean_linker_0, # of connection points: 2
#     Edge 35, Type (0, 0), BuildingBlock: OJICUG_clean_linker_0, # of connection points: 2
#     Edge 36, Type (0, 0), BuildingBlock: OJICUG_clean_linker_0, # of connection points: 2
#     Edge 37, Type (0, 0), BuildingBlock: OJICUG_clean_linker_0, # of connection points: 2
#     Edge 38, Type (0, 0), BuildingBlock: OJICUG_clean_linker_0, # of connection points: 2
#     Edge 39, Type (0, 0), BuildingBlock: OJICUG_clean_linker_0, # of connection points: 2
#     Edge 40, Type (0, 0), BuildingBlock: OJICUG_clean_linker_0, # of connection points: 2
#     Edge 41, Type (0, 0), BuildingBlock: OJICUG_clean_linker_0, # of connection points: 2
#     Edge 42, Type (0, 0), BuildingBlock: OJICUG_clean_linker_0, # of connection points: 2
#     Edge 43, Type (0, 0), BuildingBlock: OJICUG_clean_linker_0, # of connection points: 2
#     Edge 44, Type (0, 0), BuildingBlock: OJICUG_clean_linker_0, # of connection points: 2
#     Edge 45, Type (0, 0), BuildingBlock: OJICUG_clean_linker_0, # of connection points: 2
#     Edge 46, Type (0, 0), BuildingBlock: OJICUG_clean_linker_0, # of connection points: 2
#     Edge 47, Type (0, 0), BuildingBlock: OJICUG_clean_linker_0, # of connection points: 2
#     Edge 48, Type (0, 0), BuildingBlock: OJICUG_clean_linker_0, # of connection points: 2
#     Edge 49, Type (0, 0), BuildingBlock: OJICUG_clean_linker_0, # of connection points: 2
#     Edge 50, Type (0, 0), BuildingBlock: OJICUG_clean_linker_0, # of connection points: 2
#     Edge 51, Type (0, 0), BuildingBlock: OJICUG_clean_linker_0, # of connection points: 2
#     Edge 52, Type (0, 0), BuildingBlock: OJICUG_clean_linker_0, # of connection points: 2
#     Edge 53, Type (0, 0), BuildingBlock: OJICUG_clean_linker_0, # of connection points: 2
# Relax obj value: 0.247
# Max RMSD: 0.169
# Mean RMSD: 0.158
data_MOF--net-une--node1-KUFVIS_clean_sbu_0--edge1-OJICUG_clean_linker_0
_symmetry_space_group_name_H-M    P1
_symmetry_Int_Tables_number       1
_symmetry_cell_setting            triclinic
loop_
_symmetry_equiv_pos_as_xyz
'x, y, z'
_cell_length_a     27.407297
_cell_length_b     28.09795
_cell_length_c     38.76875
_cell_angle_alpha  89.441908
_cell_angle_beta   89.09722
_cell_angle_gamma 119.57459
loop_
_atom_site_label
_atom_site_type_symbol
_atom_site_fract_x
_atom_site_fract_y
_atom_site_fract_z
_atom_type_partial_charge
Mn0 Mn 0.37321 0.07284 0.07419 0.0
Mn1 Mn 0.41873 0.12546 0.99412 0.0
C2 C 0.34646 0.13063 0.04902 0.0
C3 C 0.37428 0.09209 0.13384 0.0
C4 C 0.3234 0.0113 1.00774 0.0
O5 O 0.43707 0.05395 0.06597 0.0
O6 O 0.45877 0.08751 0.01117 0.0
C7 C 0.53236 0.21138 0.01316 0.0
N8 N 0.48201 0.19691 0.99883 0.0
C9 C 0.50947 0.29109 0.98655 0.0
C10 C 0.56169 0.30698 1.00101 0.0
C11 C 0.57326 0.26699 0.01436 0.0
C12 C 0.4706 0.23511 0.9858 0.0
H13 H 0.54108 0.18067 0.02366 0.0
C14 C 0.46248 0.0598 0.03646 0.0
O15 O 0.34603 0.04203 0.12309 0.0
O16 O 0.4106 0.12631 0.11177 0.0
N17 N 0.38255 0.16213 0.97413 0.0
C18 C 0.33 0.13989 0.96119 0.0
C19 C 0.31162 0.17447 0.94722 0.0
C20 C 0.34763 0.23141 0.94637 0.0
C21 C 0.40198 0.25319 0.9591 0.0
C22 C 0.4181 0.21666 0.97248 0.0
H23 H 0.3021 0.09616 0.96199 0.0
O24 O 0.31633 0.09661 0.0731 0.0
O25 O 0.39214 0.13038 0.03989 0.0
O26 O 0.32606 0.01139 0.04075 0.0
O27 O 0.35345 0.05299 0.98819 0.0
C28 C 0.44053 0.30974 0.95951 0.0
C29 C 0.49426 0.32868 0.97322 0.0
H30 H 0.59295 0.3498 1.00209 0.0
H31 H 0.61348 0.27904 0.02565 0.0
H32 H 0.26968 0.15732 0.93734 0.0
H33 H 0.3331 0.258 0.93592 0.0
H34 H 0.42916 0.33902 0.94955 0.0
H35 H 0.52347 0.37225 0.97353 0.0
Mn36 Mn 0.88393 0.31213 0.02684 0.0
Mn37 Mn 0.89549 0.29738 0.94187 0.0
C38 C 0.8575 0.22736 1.00369 0.0
C39 C 0.83279 0.29071 0.0791 0.0
C40 C 0.99018 0.33048 0.9902 0.0
O41 O 0.89389 0.38709 1.00815 0.0
O42 O 0.91412 0.37322 0.95376 0.0
C43 C 0.80065 0.31393 0.92221 0.0
N44 N 0.82612 0.28275 0.92184 0.0
C45 C 0.75076 0.21274 0.88981 0.0
C46 C 0.72411 0.2444 0.88956 0.0
C47 C 0.74914 0.29516 0.9059 0.0
C48 C 0.80222 0.23369 0.90633 0.0
H49 H 0.81924 0.35272 0.93496 0.0
C50 C 0.91165 0.40442 0.97682 0.0
O51 O 0.8866 0.3247 0.07789 0.0
O52 O 0.80795 0.28236 0.04978 0.0
N53 N 0.8781 0.22644 0.92609 0.0
C54 C 0.90883 0.20054 0.92892 0.0
C55 C 0.88882 0.14862 0.91464 0.0
C56 C 0.838 0.1243 0.89704 0.0
C57 C 0.80786 0.15237 0.89363 0.0
C58 C 0.82995 0.20409 0.90834 0.0
H59 H 0.94799 0.21911 0.94231 0.0
O60 O 0.87518 0.23872 0.03465 0.0
O61 O 0.85666 0.2665 0.98585 0.0
O62 O 0.96658 0.34108 0.01509 0.0
O63 O 0.96653 0.30985 0.96179 0.0
C64 C 0.75643 0.13074 0.87658 0.0
C65 C 0.72788 0.16088 0.87469 0.0
H66 H 0.68423 0.22994 0.87714 0.0
H67 H 0.72866 0.31968 0.90605 0.0
H68 H 0.91251 0.12738 0.91721 0.0
H69 H 0.82254 0.08411 0.88623 0.0
H70 H 0.73825 0.09078 0.86504 0.0
H71 H 0.68815 0.14364 0.86174 0.0
Mn72 Mn 0.73011 0.6199 0.09164 0.0
Mn73 Mn 0.71852 0.58524 1.0069 0.0
C74 C 0.80883 0.64875 0.05613 0.0
C75 C 0.7571 0.61861 0.14926 0.0
C76 C 0.70876 0.68005 0.03262 0.0
O77 O 0.64478 0.55893 0.09002 0.0
O78 O 0.64731 0.54874 0.03271 0.0
C79 C 0.69458 0.47246 0.0235 0.0
N80 N 0.72318 0.51972 1.00454 0.0
C81 C 0.77132 0.48279 0.97148 0.0
C82 C 0.74198 0.43345 0.99038 0.0
C83 C 0.70419 0.42864 0.01692 0.0
C84 C 0.76154 0.52566 0.98011 0.0
H85 H 0.66503 0.46849 0.04362 0.0
C86 C 0.6202 0.53891 0.06119 0.0
O87 O 0.7301 0.64397 0.14059 0.0
O88 O 0.75643 0.58443 0.1267 0.0
N89 N 0.78205 0.6164 0.97605 0.0
C90 C 0.80724 0.66691 0.96051 0.0
C91 C 0.84601 0.67849 0.9333 0.0
C92 C 0.85734 0.6378 0.92153 0.0
C93 C 0.82997 0.58572 0.93734 0.0
C94 C 0.79152 0.57641 0.96429 0.0
H95 H 0.79759 0.69803 0.96872 0.0
O96 O 0.81018 0.67395 0.08393 0.0
O97 O 0.76162 0.60509 0.04948 0.0
O98 O 0.70885 0.6697 0.06474 0.0
O99 O 0.71522 0.65337 1.00819 0.0
C100 C 0.83879 0.54252 0.92717 0.0
C101 C 0.81007 0.49127 0.94455 0.0
H102 H 0.7486 0.39925 0.98499 0.0
H103 H 0.68228 0.39112 0.0321 0.0
H104 H 0.86658 0.71845 0.92119 0.0
H105 H 0.88676 0.64693 0.90018 0.0
H106 H 0.8676 0.54838 0.90604 0.0
H107 H 0.81764 0.45851 0.93683 0.0
Mn108 Mn 0.63771 0.89587 0.95486 0.0
Mn109 Mn 0.64242 0.90162 0.04199 0.0
C110 C 0.67897 0.85652 0.98697 0.0
C111 C 0.61593 0.85085 0.90167 0.0
C112 C 0.71673 0.99682 0.99521 0.0
O113 O 0.57425 0.91507 0.96639 0.0
O114 O 0.58865 0.92297 0.02418 0.0
C115 C 0.52754 0.81036 0.05712 0.0
N116 N 0.58404 0.83356 0.06073 0.0
C117 C 0.57277 0.75676 0.09508 0.0
C118 C 0.51443 0.73233 0.09199 0.0
C119 C 0.49175 0.75925 0.07291 0.0
C120 C 0.60632 0.80803 0.07909 0.0
H121 H 0.50993 0.83055 0.04215 0.0
C122 C 0.56489 0.92755 0.99713 0.0
O123 O 0.64088 0.90393 0.90327 0.0
O124 O 0.59187 0.82465 0.93027 0.0
N125 N 0.69304 0.88131 0.06216 0.0
C126 C 0.75023 0.90912 0.06118 0.0
C127 C 0.77956 0.88692 0.07815 0.0
C128 C 0.74983 0.83657 0.09608 0.0
C129 C 0.691 0.80905 0.09708 0.0
C130 C 0.66404 0.83345 0.07998 0.0
H131 H 0.77323 0.94759 0.04717 0.0
O132 O 0.69734 0.87481 0.95606 0.0
O133 O 0.63994 0.86507 0.99924 0.0
O134 O 0.69315 0.97393 0.96751 0.0
O135 O 0.70456 0.97271 0.02475 0.0
C136 C 0.65804 0.75782 0.11376 0.0
C137 C 0.59897 0.73169 0.11275 0.0
H138 H 0.4867 0.69268 0.10386 0.0
H139 H 0.44679 0.74047 0.07019 0.0
H140 H 0.82497 0.90833 0.07718 0.0
H141 H 0.7726 0.81924 0.10878 0.0
H142 H 0.67771 0.73783 0.12705 0.0
H143 H 0.57411 0.69199 0.12528 0.0
Mn144 Mn 0.05087 0.72647 0.92174 0.0
Mn145 Mn 0.03602 0.83913 0.92185 0.0
C146 C 0.00609 0.74196 0.96865 0.0
C147 C 0.01385 0.62961 0.92013 0.0
C148 C 0.1418 0.8399 0.94126 0.0
O149 O 0.06623 0.75052 0.86927 0.0
O150 O 0.06042 0.82694 0.87669 0.0
C151 C 0.94072 0.79995 0.87445 0.0
N152 N 0.96356 0.82068 0.90549 0.0
C153 C 0.88555 0.83311 0.92148 0.0
C154 C 0.86094 0.81157 0.88979 0.0
C155 C 0.8886 0.79476 0.86621 0.0
C156 C 0.93697 0.83624 0.92854 0.0
H157 H 0.96216 0.78764 0.85609 0.0
C158 C 0.0709 0.79611 0.85795 0.0
O159 O 0.06749 0.66353 0.92041 0.0
O160 O 0.98306 0.6519 0.91487 0.0
N161 N 0.01416 0.86039 0.96317 0.0
C162 C 0.04705 0.88728 0.99033 0.0
C163 C 0.02653 0.90857 0.01576 0.0
C164 C 0.97349 0.90407 0.0123 0.0
C165 C 0.94187 0.8791 0.98315 0.0
C166 C 0.96409 0.85795 0.95887 0.0
H167 H 0.0885 0.89224 0.99271 0.0
O168 O 0.03381 0.71619 0.97152 0.0
O169 O 0.00762 0.76227 0.93782 0.0
O170 O 0.12743 0.79107 0.93305 0.0
O171 O 0.11032 0.86115 0.93939 0.0
C172 C 0.89019 0.87632 0.97662 0.0
C173 C 0.86186 0.85306 0.94588 0.0
H174 H 0.82111 0.8082 0.88318 0.0
H175 H 0.87004 0.77828 0.84165 0.0
H176 H 0.05182 0.929 0.03774 0.0
H177 H 0.95805 0.92108 0.03176 0.0
H178 H 0.87265 0.89308 0.99483 0.0
H179 H 0.82256 0.85186 0.94077 0.0
Mn180 Mn 0.28826 0.3749 0.97642 0.0
Mn181 Mn 0.27396 0.38762 0.06179 0.0
C182 C 0.20166 0.34328 1.00275 0.0
C183 C 0.2733 0.38802 0.91844 0.0
C184 C 0.29651 0.30251 0.03187 0.0
O185 O 0.37017 0.43439 0.98862 0.0
O186 O 0.35378 0.43151 0.04648 0.0
C187 C 0.30429 0.50439 0.06082 0.0
N188 N 0.26642 0.45105 0.06834 0.0
C189 C 0.19821 0.47511 0.08879 0.0
C190 C 0.2366 0.53034 0.08143 0.0
C191 C 0.28988 0.54502 0.06742 0.0
C192 C 0.21518 0.43651 0.08206 0.0
H193 H 0.34509 0.51582 0.04977 0.0
C194 C 0.38718 0.44721 0.02007 0.0
O195 O 0.2992 0.36131 0.92668 0.0
O196 O 0.27066 0.41848 0.94251 0.0
N197 N 0.19836 0.34699 0.07932 0.0
C198 C 0.16548 0.29178 0.08354 0.0
C199 C 0.11024 0.27014 0.09641 0.0
C200 C 0.08953 0.30548 0.10492 0.0
C201 C 0.12435 0.36219 0.10061 0.0
C202 C 0.17915 0.3814 0.0879 0.0
H203 H 0.18108 0.26447 0.07667 0.0
O204 O 0.20765 0.31993 0.97586 0.0
O205 O 0.24725 0.38291 0.01508 0.0
O206 O 0.30383 0.32043 1.001 0.0
O207 O 0.28066 0.32112 0.05698 0.0
C208 C 0.10653 0.40035 0.10784 0.0
C209 C 0.14345 0.45677 0.10197 0.0
H210 H 0.22548 0.56176 0.0862 0.0
H211 H 0.31967 0.58754 0.06154 0.0
H212 H 0.08358 0.22632 0.09957 0.0
H213 H 0.04674 0.2886 0.11455 0.0
H214 H 0.06434 0.38671 0.11762 0.0
H215 H 0.12911 0.48567 0.10736 0.0
Mn216 Mn 0.03778 0.40355 0.40657 0.0
Mn217 Mn 0.08721 0.46014 0.32784 0.0
C218 C 0.01162 0.46188 0.38167 0.0
C219 C 0.03535 0.42001 0.46626 0.0
C220 C 0.99251 0.34488 0.3388 0.0
O221 O 0.10249 0.38589 0.3991 0.0
O222 O 0.12777 0.4229 0.34519 0.0
C223 C 0.19833 0.54692 0.34999 0.0
N224 N 0.14887 0.53196 0.3343 0.0
C225 C 0.17434 0.62601 0.32362 0.0
C226 C 0.22552 0.64243 0.33963 0.0
C227 C 0.2377 0.60277 0.35282 0.0
C228 C 0.1369 0.56988 0.32146 0.0
H229 H 0.20739 0.51641 0.36044 0.0
C230 C 0.12994 0.39377 0.37017 0.0
O231 O 0.00819 0.37039 0.45465 0.0
O232 O 0.07282 0.45533 0.44517 0.0
N233 N 0.05057 0.49619 0.30763 0.0
C234 C 0.99866 0.47348 0.2937 0.0
C235 C 0.9798 0.50769 0.27975 0.0
C236 C 0.01467 0.56477 0.27997 0.0
C237 C 0.06837 0.58709 0.29379 0.0
C238 C 0.08504 0.55092 0.30707 0.0
H239 H 0.97161 0.42962 0.29368 0.0
O240 O 0.98037 0.42661 0.40488 0.0
O241 O 0.05791 0.4624 0.37323 0.0
O242 O 0.99303 0.3436 0.37186 0.0
O243 O 0.02352 0.38738 0.32013 0.0
C244 C 0.10572 0.64379 0.29533 0.0
C245 C 0.1587 0.66323 0.31023 0.0
H246 H 0.25531 0.68542 0.3422 0.0
H247 H 0.27712 0.61523 0.36533 0.0
H248 H 0.93836 0.49011 0.26905 0.0
H249 H 0.99976 0.59106 0.26953 0.0
H250 H 0.09397 0.67278 0.28537 0.0
H251 H 0.18706 0.70688 0.31137 0.0
Mn252 Mn 0.55239 0.64875 0.36534 0.0
Mn253 Mn 0.56589 0.63771 0.28024 0.0
C254 C 0.52511 0.56509 0.34086 0.0
C255 C 0.50115 0.62666 0.41782 0.0
C256 C 0.65803 0.66472 0.32878 0.0
O257 O 0.56338 0.72451 0.34766 0.0
O258 O 0.5897 0.71415 0.29399 0.0
C259 C 0.47678 0.66313 0.26088 0.0
N260 N 0.49855 0.62875 0.26012 0.0
C261 C 0.42144 0.5635 0.22688 0.0
C262 C 0.39836 0.59829 0.22726 0.0
C263 C 0.42616 0.64831 0.24436 0.0
C264 C 0.47206 0.58049 0.24375 0.0
H265 H 0.49772 0.70159 0.27397 0.0
C266 C 0.58608 0.74408 0.31749 0.0
O267 O 0.55512 0.65992 0.41666 0.0
O268 O 0.47648 0.61923 0.38848 0.0
N269 N 0.5445 0.56681 0.26263 0.0
C270 C 0.57264 0.53819 0.26423 0.0
C271 C 0.55005 0.48693 0.24864 0.0
C272 C 0.49944 0.46616 0.23096 0.0
C273 C 0.47213 0.49711 0.22876 0.0
C274 C 0.49666 0.54795 0.24481 0.0
H275 H 0.61162 0.55405 0.27771 0.0
O276 O 0.54235 0.57489 0.37201 0.0
O277 O 0.52514 0.6052 0.32359 0.0
O278 O 0.63516 0.67682 0.35344 0.0
O279 O 0.63437 0.64455 0.30032 0.0
C280 C 0.42132 0.4793 0.21151 0.0
C281 C 0.39597 0.51245 0.2106 0.0
H282 H 0.35926 0.58695 0.2146 0.0
H283 H 0.40858 0.67536 0.24485 0.0
H284 H 0.57158 0.46347 0.25025 0.0
H285 H 0.48202 0.42649 0.2191 0.0
H286 H 0.40128 0.4401 0.19897 0.0
H287 H 0.3568 0.49823 0.19736 0.0
Mn288 Mn 0.39769 0.9542 0.42378 0.0
Mn289 Mn 0.38766 0.92406 0.33829 0.0
C290 C 0.47652 0.98612 0.38821 0.0
C291 C 0.42557 0.95242 0.48108 0.0
C292 C 0.37668 0.01673 0.36642 0.0
O293 O 0.31295 0.89184 0.42153 0.0
O294 O 0.31635 0.88599 0.36387 0.0
C295 C 0.36398 0.81041 0.3517 0.0
N296 N 0.39188 0.85859 0.3336 0.0
C297 C 0.4331 0.82135 0.29479 0.0
C298 C 0.40461 0.77112 0.31282 0.0
C299 C 0.37108 0.7661 0.34195 0.0
C300 C 0.42731 0.86497 0.30714 0.0
H301 H 0.33685 0.80608 0.37344 0.0
C302 C 0.28885 0.87369 0.3923 0.0
O303 O 0.39695 0.97641 0.47309 0.0
O304 O 0.42574 0.91917 0.45807 0.0
N305 N 0.45118 0.95674 0.30741 0.0
C306 C 0.47743 0.00851 0.29371 0.0
C307 C 0.51461 0.0212 0.26547 0.0
C308 C 0.52212 0.98014 0.25018 0.0
C309 C 0.49279 0.92659 0.26371 0.0
C310 C 0.45783 0.91671 0.29275 0.0
H311 H 0.46995 0.03985 0.30426 0.0
O312 O 0.47706 0.01001 0.41645 0.0
O313 O 0.43023 0.94182 0.38105 0.0
O314 O 0.37491 0.00389 0.39823 0.0
O315 O 0.38464 0.99206 0.34138 0.0
C316 C 0.49604 0.8824 0.24918 0.0
C317 C 0.46702 0.82997 0.26511 0.0
H318 H 0.40874 0.73641 0.30481 0.0
H319 H 0.35036 0.72799 0.3566 0.0
H320 H 0.53641 0.06225 0.25509 0.0
H321 H 0.54999 0.99009 0.22788 0.0
H322 H 0.52228 0.88869 0.22649 0.0
H323 H 0.47153 0.79676 0.25453 0.0
Mn324 Mn 0.30886 0.23363 0.28941 0.0
Mn325 Mn 0.31212 0.23978 0.37656 0.0
C326 C 0.35056 0.19555 0.3222 0.0
C327 C 0.28832 0.18813 0.23639 0.0
C328 C 0.386 0.3352 0.32979 0.0
O329 O 0.24436 0.2515 0.30026 0.0
O330 O 0.25768 0.2597 0.35818 0.0
C331 C 0.19784 0.14725 0.39137 0.0
N332 N 0.25436 0.17137 0.39528 0.0
C333 C 0.24411 0.09542 0.43013 0.0
C334 C 0.18576 0.07009 0.42676 0.0
C335 C 0.16256 0.0961 0.40726 0.0
C336 C 0.27713 0.14669 0.41402 0.0
H337 H 0.17985 0.16672 0.37605 0.0
C338 C 0.23409 0.26363 0.33086 0.0
O339 O 0.31255 0.2412 0.2378 0.0
O340 O 0.26421 0.162 0.265 0.0
N341 N 0.36339 0.22072 0.39717 0.0
C342 C 0.42057 0.24919 0.39626 0.0
C343 C 0.45043 0.22781 0.41352 0.0
C344 C 0.42122 0.1776 0.43164 0.0
C345 C 0.36237 0.14935 0.43252 0.0
C346 C 0.33488 0.17293 0.41512 0.0
H347 H 0.44318 0.28755 0.38209 0.0
O348 O 0.36935 0.21378 0.29133 0.0
O349 O 0.31093 0.20353 0.33399 0.0
O350 O 0.36318 0.31209 0.30197 0.0
O351 O 0.37358 0.31119 0.35936 0.0
C352 C 0.32994 0.09818 0.44936 0.0
C353 C 0.27085 0.07123 0.44816 0.0
H354 H 0.15843 0.03039 0.4387 0.0
H355 H 0.11759 0.07659 0.40431 0.0
H356 H 0.49584 0.24977 0.41262 0.0
H357 H 0.44439 0.16092 0.44458 0.0
H358 H 0.35003 0.07883 0.46291 0.0
H359 H 0.2464 0.03157 0.46082 0.0
Mn360 Mn 0.7161 0.06372 0.25535 0.0
Mn361 Mn 0.7047 0.17837 0.2552 0.0
C362 C 0.67576 0.0834 0.30292 0.0
C363 C 0.67813 0.96615 0.25676 0.0
C364 C 0.81007 0.17712 0.2719 0.0
O365 O 0.72721 0.08471 0.20234 0.0
O366 O 0.72705 0.164 0.21011 0.0
C367 C 0.60884 0.14138 0.2084 0.0
N368 N 0.63237 0.16155 0.2394 0.0
C369 C 0.55636 0.17689 0.25584 0.0
C370 C 0.53098 0.15576 0.22427 0.0
C371 C 0.55733 0.13783 0.20046 0.0
C372 C 0.60721 0.17853 0.26257 0.0
H373 H 0.62922 0.1282 0.18986 0.0
C374 C 0.73436 0.13139 0.19112 0.0
O375 O 0.73176 0.99989 0.25373 0.0
O376 O 0.64707 0.98848 0.2524 0.0
N377 N 0.68462 0.201 0.29666 0.0
C378 C 0.71793 0.22667 0.32389 0.0
C379 C 0.6987 0.24882 0.34954 0.0
C380 C 0.64643 0.24615 0.34631 0.0
C381 C 0.6142 0.222 0.31722 0.0
C382 C 0.63517 0.20003 0.29268 0.0
H383 H 0.75876 0.23009 0.3261 0.0
O384 O 0.70382 0.05787 0.30568 0.0
O385 O 0.67539 0.10188 0.27187 0.0
O386 O 0.79429 0.12819 0.26324 0.0
O387 O 0.77904 0.19898 0.27196 0.0
C388 C 0.56299 0.22053 0.31109 0.0
C389 C 0.53399 0.19783 0.28045 0.0
H390 H 0.49158 0.15357 0.21791 0.0
H391 H 0.5382 0.12173 0.17597 0.0
H392 H 0.72437 0.26844 0.37153 0.0
H393 H 0.63197 0.26375 0.36597 0.0
H394 H 0.54626 0.23779 0.32951 0.0
H395 H 0.49515 0.19774 0.27563 0.0
Mn396 Mn 0.95456 0.70482 0.30902 0.0
Mn397 Mn 0.94327 0.72231 0.3943 0.0
C398 C 0.86907 0.6758 0.33632 0.0
C399 C 0.93846 0.71428 0.25054 0.0
C400 C 0.96344 0.63486 0.36595 0.0
O401 O 0.03739 0.76438 0.32005 0.0
O402 O 0.0224 0.7647 0.37787 0.0
C403 C 0.97469 0.83933 0.39099 0.0
N404 N 0.93678 0.78651 0.39978 0.0
C405 C 0.87038 0.8126 0.42074 0.0
C406 C 0.90885 0.86732 0.41209 0.0
C407 C 0.96124 0.88072 0.39717 0.0
C408 C 0.8864 0.77321 0.41437 0.0
H409 H 0.01482 0.84976 0.37927 0.0
C410 C 0.05521 0.77883 0.35124 0.0
O411 O 0.96419 0.68785 0.25977 0.0
O412 O 0.93646 0.74638 0.27371 0.0
N413 N 0.86829 0.68318 0.41297 0.0
C414 C 0.83509 0.62823 0.41834 0.0
C415 C 0.78057 0.60778 0.43218 0.0
C416 C 0.76092 0.64403 0.4405 0.0
C417 C 0.79609 0.70047 0.43504 0.0
C418 C 0.85015 0.71849 0.4214 0.0
H419 H 0.84988 0.60022 0.41165 0.0
O420 O 0.87351 0.65078 0.30981 0.0
O421 O 0.91539 0.71563 0.3477 0.0
O422 O 0.96979 0.65115 0.33477 0.0
O423 O 0.94905 0.65517 0.39078 0.0
C424 C 0.77927 0.73946 0.44197 0.0
C425 C 0.81641 0.79548 0.43487 0.0
H426 H 0.89844 0.89931 0.41654 0.0
H427 H 0.99106 0.92283 0.39029 0.0
H428 H 0.75363 0.56417 0.43625 0.0
H429 H 0.71866 0.62807 0.45088 0.0
H430 H 0.73767 0.72674 0.45246 0.0
H431 H 0.80281 0.82501 0.44002 0.0
Mn432 Mn 0.69596 0.73194 0.73866 0.0
Mn433 Mn 0.73864 0.77806 0.65708 0.0
C434 C 0.67184 0.79101 0.71219 0.0
C435 C 0.69815 0.75299 0.79798 0.0
C436 C 0.64172 0.66608 0.67406 0.0
O437 O 0.75832 0.7105 0.73085 0.0
O438 O 0.77653 0.73881 0.67495 0.0
C439 C 0.85482 0.86134 0.67358 0.0
N440 N 0.8045 0.84831 0.6597 0.0
C441 C 0.83618 0.94275 0.64514 0.0
C442 C 0.88846 0.95716 0.65913 0.0
C443 C 0.89781 0.91625 0.67338 0.0
C444 C 0.79515 0.88729 0.64574 0.0
H445 H 0.86196 0.83007 0.68484 0.0
C446 C 0.78187 0.71354 0.70101 0.0
O447 O 0.66911 0.70269 0.78776 0.0
O448 O 0.73454 0.78651 0.77557 0.0
N449 N 0.70463 0.81641 0.63655 0.0
C450 C 0.65141 0.79578 0.62497 0.0
C451 C 0.63484 0.83146 0.61049 0.0
C452 C 0.67325 0.88783 0.60783 0.0
C453 C 0.72812 0.90793 0.61934 0.0
C454 C 0.74238 0.87034 0.63324 0.0
H455 H 0.62169 0.75252 0.62725 0.0
O456 O 0.6411 0.75842 0.73674 0.0
O457 O 0.71581 0.78773 0.70294 0.0
O458 O 0.64678 0.66895 0.70688 0.0
O459 O 0.6707 0.70617 0.65307 0.0
C460 C 0.76887 0.96391 0.61825 0.0
C461 C 0.82284 0.98131 0.63115 0.0
H462 H 0.92158 0.99951 0.65929 0.0
H463 H 0.93797 0.92708 0.68436 0.0
H464 H 0.59245 0.81563 0.60163 0.0
H465 H 0.6601 0.9153 0.59705 0.0
H466 H 0.75895 0.99399 0.60788 0.0
H467 H 0.85363 0.02451 0.63048 0.0
Mn468 Mn 0.21683 0.9678 0.69033 0.0
Mn469 Mn 0.22734 0.94741 0.60646 0.0
C470 C 0.18697 0.88071 0.66973 0.0
C471 C 0.16768 0.95114 0.74301 0.0
C472 C 0.32162 0.98046 0.65447 0.0
O473 O 0.22766 0.04206 0.6694 0.0
O474 O 0.2508 0.02543 0.61654 0.0
C475 C 0.13722 0.96961 0.58436 0.0
N476 N 0.15933 0.93557 0.58579 0.0
C477 C 0.08172 0.86627 0.55479 0.0
C478 C 0.05832 0.90071 0.55291 0.0
C479 C 0.08619 0.95258 0.56779 0.0
C480 C 0.13284 0.88556 0.5715 0.0
H481 H 0.1582 0.00946 0.59579 0.0
C482 C 0.24853 0.05834 0.63844 0.0
O483 O 0.22162 0.9843 0.74086 0.0
O484 O 0.14184 0.94107 0.71396 0.0
N485 N 0.20581 0.87457 0.59253 0.0
C486 C 0.23357 0.84597 0.59689 0.0
C487 C 0.2106 0.79281 0.58404 0.0
C488 C 0.15986 0.76994 0.56638 0.0
C489 C 0.13271 0.80061 0.56152 0.0
C490 C 0.15766 0.85345 0.57485 0.0
H491 H 0.27255 0.86333 0.61046 0.0
O492 O 0.20634 0.8941 0.70023 0.0
O493 O 0.18748 0.91951 0.65065 0.0
O494 O 0.29914 0.9946 0.67821 0.0
O495 O 0.29702 0.95718 0.62684 0.0
C496 C 0.08149 0.78053 0.54439 0.0
C497 C 0.05601 0.81334 0.54103 0.0
H498 H 0.01885 0.88764 0.54026 0.0
H499 H 0.06833 0.97935 0.56655 0.0
H500 H 0.23191 0.76947 0.5878 0.0
H501 H 0.14209 0.72879 0.5567 0.0
H502 H 0.06113 0.73978 0.53391 0.0
H503 H 0.01646 0.79733 0.52799 0.0
Mn504 Mn 0.05955 0.29137 0.76196 0.0
Mn505 Mn 0.02693 0.22813 0.68478 0.0
C506 C 0.13254 0.30835 0.72283 0.0
C507 C 0.08903 0.29569 0.81937 0.0
C508 C 0.01691 0.32811 0.70299 0.0
O509 O 0.97066 0.23873 0.76361 0.0
O510 O 0.97871 0.18787 0.72435 0.0
C511 C 0.03991 0.13184 0.7014 0.0
N512 N 0.05359 0.17691 0.68125 0.0
C513 C 0.10977 0.15554 0.64299 0.0
C514 C 0.09638 0.10901 0.66338 0.0
C515 C 0.06155 0.09731 0.69283 0.0
C516 C 0.08819 0.18929 0.65331 0.0
H517 H 0.01229 0.12197 0.72372 0.0
C518 C 0.94793 0.20286 0.73987 0.0
O519 O 0.0665 0.32438 0.80883 0.0
O520 O 0.08259 0.25639 0.7992 0.0
N521 N 0.07371 0.26357 0.64492 0.0
C522 C 0.07394 0.30338 0.62431 0.0
C523 C 0.10608 0.31948 0.5935 0.0
C524 C 0.13495 0.29229 0.58301 0.0
C525 C 0.13019 0.24832 0.60303 0.0
C526 C 0.09868 0.23501 0.63401 0.0
H527 H 0.05046 0.32341 0.63149 0.0
O528 O 0.14149 0.33698 0.75013 0.0
O529 O 0.08219 0.26761 0.72004 0.0
O530 O 0.04336 0.33955 0.73114 0.0
O531 O 0.00142 0.28386 0.68619 0.0
C532 C 0.15292 0.21536 0.59246 0.0
C533 C 0.14222 0.16872 0.61224 0.0
H534 H 0.11214 0.08171 0.65648 0.0
H535 H 0.05076 0.06131 0.7086 0.0
H536 H 0.10779 0.35214 0.5776 0.0
H537 H 0.15899 0.30426 0.55895 0.0
H538 H 0.17727 0.22456 0.5686 0.0
H539 H 0.15818 0.14258 0.60316 0.0
Mn540 Mn 0.95928 0.55173 0.62021 0.0
Mn541 Mn 0.95933 0.55083 0.70733 0.0
C542 C 0.99633 0.50752 0.65134 0.0
C543 C 0.93999 0.51076 0.566 0.0
C544 C 0.03726 0.64938 0.66366 0.0
O545 O 0.89657 0.57183 0.63174 0.0
O546 O 0.90719 0.57458 0.6899 0.0
C547 C 0.84336 0.45929 0.71871 0.0
N548 N 0.89953 0.48145 0.72338 0.0
C549 C 0.88561 0.40045 0.75387 0.0
C550 C 0.82759 0.37696 0.74958 0.0
C551 C 0.80641 0.40651 0.73192 0.0
C552 C 0.92036 0.45331 0.7403 0.0
H553 H 0.8269 0.48155 0.7048 0.0
C554 C 0.88552 0.58195 0.66271 0.0
O555 O 0.96542 0.56369 0.56898 0.0
O556 O 0.9135 0.4828 0.59364 0.0
N557 N 0.00822 0.52793 0.7271 0.0
C558 C 0.06531 0.5559 0.72829 0.0
C559 C 0.09321 0.53188 0.74495 0.0
C560 C 0.06215 0.47952 0.7603 0.0
C561 C 0.0034 0.45184 0.75913 0.0
C562 C 0.97788 0.47815 0.74257 0.0
H563 H 0.08936 0.59599 0.71632 0.0
O564 O 0.01722 0.52832 0.62123 0.0
O565 O 0.95805 0.51711 0.66361 0.0
O566 O 0.01537 0.6283 0.63521 0.0
O567 O 0.02302 0.62324 0.69258 0.0
C568 C 0.9692 0.39888 0.7733 0.0
C569 C 0.91036 0.37312 0.77056 0.0
H570 H 0.79897 0.33611 0.75951 0.0
H571 H 0.7617 0.38852 0.72831 0.0
H572 H 0.13857 0.55347 0.74569 0.0
H573 H 0.08384 0.46083 0.77272 0.0
H574 H 0.98776 0.37735 0.78603 0.0
H575 H 0.88455 0.33214 0.7812 0.0
Mn576 Mn 0.37296 0.37669 0.58457 0.0
Mn577 Mn 0.35399 0.48606 0.59496 0.0
C578 C 0.32133 0.38106 0.63087 0.0
C579 C 0.33956 0.28142 0.57769 0.0
C580 C 0.45878 0.48566 0.61441 0.0
O581 O 0.39232 0.41194 0.53446 0.0
O582 O 0.38635 0.48688 0.54891 0.0
C583 C 0.2654 0.45826 0.54355 0.0
N584 N 0.28462 0.4729 0.57607 0.0
C585 C 0.20587 0.48425 0.59204 0.0
C586 C 0.18539 0.46979 0.55861 0.0
C587 C 0.21504 0.45626 0.53436 0.0
C588 C 0.25605 0.48526 0.59972 0.0
H589 H 0.28847 0.44849 0.52479 0.0
C590 C 0.3988 0.46009 0.52747 0.0
O591 O 0.39296 0.3165 0.57839 0.0
O592 O 0.30759 0.30278 0.57329 0.0
N593 N 0.32346 0.49215 0.63818 0.0
C594 C 0.34575 0.4993 0.67014 0.0
C595 C 0.31915 0.50956 0.69801 0.0
C596 C 0.2707 0.5135 0.69254 0.0
C597 C 0.24888 0.50633 0.65932 0.0
C598 C 0.27681 0.49568 0.63265 0.0
H599 H 0.38353 0.4972 0.67427 0.0
O600 O 0.34934 0.35541 0.63313 0.0
O601 O 0.32671 0.40744 0.60194 0.0
O602 O 0.44787 0.44066 0.60048 0.0
O603 O 0.42518 0.50447 0.61567 0.0
C604 C 0.20017 0.50874 0.6517 0.0
C605 C 0.17827 0.49718 0.61816 0.0
H606 H 0.14661 0.46828 0.55141 0.0
H607 H 0.19931 0.4447 0.50859 0.0
H608 H 0.33622 0.51495 0.72357 0.0
H609 H 0.25034 0.52157 0.71407 0.0
H610 H 0.17914 0.51887 0.67173 0.0
H611 H 0.14002 0.4979 0.61273 0.0
Mn612 Mn 0.62788 0.04449 0.63812 0.0
Mn613 Mn 0.61166 0.05634 0.72333 0.0
C614 C 0.54034 0.00832 0.66441 0.0
C615 C 0.61024 0.05469 0.57998 0.0
C616 C 0.63924 0.97426 0.69381 0.0
O617 O 0.70848 0.10808 0.65008 0.0
O618 O 0.6911 0.10297 0.70784 0.0
C619 C 0.63726 0.17184 0.72206 0.0
N620 N 0.60116 0.11812 0.72982 0.0
C621 C 0.53088 0.13892 0.75094 0.0
C622 C 0.56746 0.1945 0.74336 0.0
C623 C 0.6209 0.21101 0.72889 0.0
C624 C 0.54977 0.10183 0.74397 0.0
H625 H 0.67817 0.18473 0.71066 0.0
C626 C 0.72486 0.12137 0.68162 0.0
O627 O 0.63911 0.03098 0.58826 0.0
O628 O 0.60606 0.08454 0.60389 0.0
N629 N 0.53644 0.01352 0.74114 0.0
C630 C 0.50538 0.95816 0.74558 0.0
C631 C 0.45021 0.93479 0.75889 0.0
C632 C 0.42771 0.96856 0.76765 0.0
C633 C 0.4607 0.02546 0.76316 0.0
C634 C 0.51552 0.04645 0.75 0.0
H635 H 0.52234 0.93202 0.73857 0.0
O636 O 0.5485 0.98586 0.63782 0.0
O637 O 0.58447 0.04992 0.67662 0.0
O638 O 0.64778 0.99303 0.66308 0.0
O639 O 0.62088 0.99126 0.71852 0.0
C640 C 0.44099 0.06209 0.77065 0.0
C641 C 0.47607 0.11878 0.76458 0.0
H642 H 0.55482 0.22479 0.74832 0.0
H643 H 0.6493 0.25381 0.72284 0.0
H644 H 0.42499 0.89084 0.7622 0.0
H645 H 0.38498 0.95035 0.77763 0.0
H646 H 0.39874 0.04706 0.78079 0.0
H647 H 0.46028 0.14649 0.77017 0.0
C648 C 0.48233 0.98145 0.04761 0.0
C649 C 0.49023 0.02647 0.02731 0.0
H650 H 0.49727 0.91372 0.05324 0.0
C651 C 0.51826 0.03467 0.99481 0.0
H652 H 0.46011 0.97262 0.07225 0.0
C653 C 0.53814 0.99974 0.9833 0.0
C654 C 0.531 0.95536 1.00388 0.0
H655 H 0.52503 0.06846 0.97796 0.0
H656 H 0.5615 0.00914 0.95904 0.0
C657 C 0.50256 0.94677 0.03617 0.0
C658 C 0.96307 0.50874 0.98505 0.0
C659 C 0.93275 0.46286 0.9643 0.0
H660 H 0.01355 0.59679 0.98715 0.0
C661 C 0.92998 0.47313 0.92866 0.0
H662 H 0.96731 0.50311 0.01228 0.0
C663 C 0.95659 0.52656 0.91427 0.0
C664 C 0.98813 0.5721 0.93472 0.0
H665 H 0.90741 0.43936 0.91148 0.0
H666 H 0.95271 0.53219 0.88697 0.0
C667 C 0.99053 0.56248 0.97041 0.0
C668 C 0.48306 0.45574 0.01484 0.0
C669 C 0.44813 0.47404 0.02916 0.0
H670 H 0.56233 0.45818 0.01571 0.0
C671 C 0.46818 0.5087 0.05802 0.0
H672 H 0.46853 0.42721 0.99382 0.0
C673 C 0.52235 0.52647 0.07105 0.0
C674 C 0.55769 0.50886 0.05622 0.0
H675 H 0.44176 0.52233 0.07056 0.0
H676 H 0.53731 0.55572 0.09166 0.0
C677 C 0.53641 0.47238 0.02828 0.0
C678 C 0.14841 0.31449 0.38045 0.0
C679 C 0.15808 0.36089 0.36101 0.0
H680 H 0.16241 0.24609 0.38527 0.0
C681 C 0.18812 0.3709 0.32913 0.0
H682 H 0.1246 0.30431 0.40456 0.0
C683 C 0.20829 0.33635 0.3174 0.0
C684 C 0.1994 0.2906 0.33716 0.0
H685 H 0.19627 0.40581 0.31295 0.0
H686 H 0.23334 0.34713 0.29374 0.0
C687 C 0.16893 0.28019 0.3688 0.0
C688 C 0.58091 0.83146 0.30736 0.0
C689 C 0.61166 0.80368 0.30693 0.0
H690 H 0.57677 0.90245 0.29142 0.0
C691 C 0.6645 0.8298 0.28939 0.0
H692 H 0.53967 0.81256 0.31967 0.0
C693 C 0.6858 0.88162 0.27292 0.0
C694 C 0.65438 0.90886 0.27236 0.0
H695 H 0.68923 0.80941 0.28787 0.0
H696 H 0.72669 0.9 0.26019 0.0
C697 C 0.60188 0.88286 0.29026 0.0
C698 C 0.15259 0.79056 0.34484 0.0
C699 C 0.11638 0.80648 0.36014 0.0
H700 H 0.23318 0.79564 0.34484 0.0
C701 C 0.13566 0.83981 0.38968 0.0
H702 H 0.13893 0.76346 0.32309 0.0
C703 C 0.18992 0.8581 0.40266 0.0
C704 C 0.22642 0.84267 0.38699 0.0
H705 H 0.10847 0.85189 0.40288 0.0
H706 H 0.20403 0.88614 0.42394 0.0
C707 C 0.20621 0.8079 0.35815 0.0
C708 C 0.85922 0.65442 0.64899 0.0
C709 C 0.85217 0.61024 0.6697 0.0
H710 H 0.84568 0.72272 0.64329 0.0
C711 C 0.82344 0.60157 0.70191 0.0
H712 H 0.88271 0.66382 0.62478 0.0
C713 C 0.80264 0.63594 0.71309 0.0
C714 C 0.8103 0.68064 0.69256 0.0
H715 H 0.81809 0.56854 0.71902 0.0
H716 H 0.78002 0.62704 0.73758 0.0
C717 C 0.8389 0.68904 0.66025 0.0
C718 C 0.27645 0.20615 0.62092 0.0
C719 C 0.31578 0.22413 0.5929 0.0
H720 H 0.22534 0.14164 0.65801 0.0
C721 C 0.33496 0.18859 0.58215 0.0
H722 H 0.262 0.23309 0.6308 0.0
C723 C 0.31357 0.13607 0.59758 0.0
C724 C 0.27322 0.11718 0.62516 0.0
H725 H 0.36604 0.20106 0.56142 0.0
H726 H 0.32904 0.10996 0.58767 0.0
C727 C 0.25587 0.15382 0.63699 0.0
C728 C 0.80152 0.18512 0.72143 0.0
C729 C 0.78584 0.15296 0.69129 0.0
H730 H 0.86346 0.2262 0.76041 0.0
C731 C 0.82529 0.14048 0.67681 0.0
H732 H 0.77203 0.19497 0.73385 0.0
C733 C 0.87706 0.1571 0.69272 0.0
C734 C 0.89197 0.18731 0.72369 0.0
H735 H 0.81473 0.11472 0.65443 0.0
H736 H 0.90513 0.14491 0.68085 0.0
C737 C 0.8538 0.20245 0.73716 0.0
C738 C 0.3747 0.17149 0.16393 0.0
C739 C 0.35334 0.11437 0.16245 0.0
H740 H 0.3699 0.23848 0.18627 0.0
C741 C 0.30734 0.08096 0.18466 0.0
H742 H 0.40936 0.19919 0.14713 0.0
C743 C 0.28447 0.10418 0.2078 0.0
C744 C 0.30569 0.16143 0.2087 0.0
H745 H 0.28877 0.03688 0.18404 0.0
H746 H 0.25033 0.07725 0.22516 0.0
C747 C 0.35113 0.19435 0.18617 0.0
C748 C 0.74929 0.20755 0.10765 0.0
C749 C 0.80679 0.2474 0.10747 0.0
H750 H 0.68114 0.13706 0.1332 0.0
C751 C 0.84071 0.23995 0.1315 0.0
H752 H 0.72171 0.21072 0.08921 0.0
C753 C 0.81772 0.19583 0.15559 0.0
C754 C 0.75986 0.15729 0.1568 0.0
H755 H 0.88535 0.26851 0.1319 0.0
H756 H 0.84475 0.19426 0.17514 0.0
C757 C 0.72618 0.16388 0.13217 0.0
C758 C 0.8567 0.71204 0.21861 0.0
C759 C 0.89537 0.6929 0.22231 0.0
H760 H 0.78291 0.7035 0.19406 0.0
C761 C 0.88575 0.64691 0.2029 0.0
H762 H 0.86134 0.74642 0.23345 0.0
C763 C 0.83969 0.6214 0.18064 0.0
C764 C 0.80102 0.64054 0.17699 0.0
H765 H 0.91336 0.62981 0.20533 0.0
H766 H 0.83487 0.5869 0.16587 0.0
C767 C 0.81065 0.68653 0.19638 0.0
C768 C 0.67693 0.85641 0.85047 0.0
C769 C 0.63229 0.82384 0.87361 0.0
H770 H 0.73366 0.86052 0.81054 0.0
C771 C 0.61097 0.76658 0.87294 0.0
H772 H 0.6957 0.90056 0.85034 0.0
C773 C 0.63302 0.74299 0.84951 0.0
C774 C 0.67825 0.77602 0.82669 0.0
H775 H 0.57745 0.73992 0.89074 0.0
H776 H 0.61444 0.6989 0.84918 0.0
C777 C 0.69964 0.83316 0.82785 0.0
C778 C 0.06227 0.82733 0.79865 0.0
C779 C 0.09642 0.82249 0.82372 0.0
H780 H 0.05695 0.87132 0.75438 0.0
C781 C 0.15404 0.86166 0.82229 0.0
H782 H 0.01733 0.79997 0.79982 0.0
C783 C 0.17652 0.9044 0.79721 0.0
C784 C 0.14221 0.90985 0.77251 0.0
H785 H 0.18131 0.86142 0.84215 0.0
H786 H 0.22107 0.93338 0.79731 0.0
C787 C 0.08483 0.86964 0.77323 0.0
C788 C 0.19357 0.38955 0.88645 0.0
C789 C 0.22992 0.36773 0.89045 0.0
H790 H 0.12085 0.38394 0.86214 0.0
C791 C 0.21727 0.32015 0.87191 0.0
H792 H 0.20064 0.42531 0.90066 0.0
C793 C 0.17031 0.29546 0.85033 0.0
C794 C 0.13396 0.31726 0.84639 0.0
H795 H 0.243 0.30102 0.87465 0.0
H796 H 0.163 0.2595 0.83628 0.0
C797 C 0.14679 0.36502 0.86475 0.0
C798 C 0.964 0.40637 0.51477 0.0
C799 C 0.01181 0.44088 0.49417 0.0
H800 H 0.90334 0.40064 0.55328 0.0
C801 C 0.03261 0.49784 0.4963 0.0
H802 H 0.94581 0.36238 0.51354 0.0
C803 C 0.00683 0.51953 0.51767 0.0
C804 C 0.95959 0.48551 0.53864 0.0
H805 H 0.06861 0.52635 0.48069 0.0
H806 H 0.02529 0.56361 0.51838 0.0
C807 C 0.93882 0.42839 0.53704 0.0
C808 C 0.4173 0.54215 0.44505 0.0
C809 C 0.47419 0.58349 0.44629 0.0
H810 H 0.34915 0.46931 0.46869 0.0
C811 C 0.50693 0.5777 0.47198 0.0
H812 H 0.39059 0.54412 0.42545 0.0
C813 C 0.48347 0.53327 0.4959 0.0
C814 C 0.42647 0.49248 0.49501 0.0
H815 H 0.55104 0.60761 0.47368 0.0
H816 H 0.50946 0.53235 0.51638 0.0
C817 C 0.39375 0.49799 0.46924 0.0
C818 C 0.52526 0.04806 0.54962 0.0
C819 C 0.56619 0.03156 0.55229 0.0
H820 H 0.4491 0.03593 0.52654 0.0
C821 C 0.5581 0.9864 0.53249 0.0
H822 H 0.52866 0.08167 0.5648 0.0
C823 C 0.51138 0.95923 0.51084 0.0
C824 C 0.47047 0.97577 0.50824 0.0
H825 H 0.58747 0.97124 0.53415 0.0
H826 H 0.50779 0.92551 0.4957 0.0
C827 C 0.47858 0.02089 0.52804 0.0
C828 C 0.24184 0.91582 1.00981 0.0
C829 C 0.28243 0.96115 0.99059 0.0
H830 H 0.16477 0.83962 1.00824 0.0
C831 C 0.28163 0.95971 0.95426 0.0
H832 H 0.24162 0.91548 0.03775 0.0
C833 C 0.23814 0.91626 0.9376 0.0
C834 C 0.19555 0.87336 0.95698 0.0
H835 H 0.31281 0.99353 0.93858 0.0
H836 H 0.2356 0.91807 0.90978 0.0
C837 C 0.19844 0.87215 0.99301 0.0
C838 C 0.09078 0.38402 1.00509 0.0
C839 C 0.04394 0.33408 0.99695 0.0
H840 H 0.17934 0.42633 0.01291 0.0
C841 C 0.04771 0.28619 0.99653 0.0
H842 H 0.08801 0.42115 1.00598 0.0
C843 C 0.09878 0.28859 1.00225 0.0
C844 C 0.14677 0.33901 1.00805 0.0
H845 H 0.01129 0.24704 0.99134 0.0
H846 H 0.10154 0.25154 1.00021 0.0
C847 C 0.1424 0.38669 1.00992 0.0
C848 C 0.74826 0.77537 0.01184 0.0
C849 C 0.70166 0.72612 0.02301 0.0
H850 H 0.77677 0.85704 0.99252 0.0
C851 C 0.648 0.7203 0.02348 0.0
H852 H 0.78991 0.77993 0.01138 0.0
C853 C 0.6408 0.7635 0.01216 0.0
C854 C 0.68745 0.81312 1.00125 0.0
H855 H 0.61173 0.68208 0.03181 0.0
H856 H 0.59879 0.75792 0.01147 0.0
C857 C 0.74102 0.81884 1.001 0.0
C858 C 0.73998 0.09079 0.97773 0.0
C859 C 0.75631 0.05562 0.99325 0.0
H860 H 0.75893 0.17379 0.96998 0.0
C861 C 0.80884 0.07735 1.00837 0.0
H862 H 0.69912 0.07454 0.96627 0.0
C863 C 0.84416 0.13389 1.00878 0.0
C864 C 0.82677 0.16935 0.99483 0.0
H865 H 0.82203 0.05071 0.0204 0.0
H866 H 0.88397 0.15008 0.02156 0.0
C867 C 0.77445 0.14739 0.97927 0.0
C868 C 0.89077 0.72874 0.02981 0.0
C869 C 0.85879 0.67181 0.03385 0.0
H870 H 0.96533 0.79511 1.01002 0.0
C871 C 0.87797 0.63872 0.01918 0.0
H872 H 0.87862 0.75539 0.04287 0.0
C873 C 0.9249 0.66206 0.99707 0.0
C874 C 0.95535 0.71922 0.99112 0.0
H875 H 0.85593 0.59493 0.02407 0.0
H876 H 0.93734 0.63523 0.98463 0.0
C877 C 0.93947 0.75203 1.00947 0.0
C878 C 0.36384 0.27117 0.04449 0.0
C879 C 0.30859 0.25861 0.03826 0.0
H880 H 0.41949 0.2392 0.05255 0.0
C881 C 0.26684 0.20449 0.03339 0.0
H882 H 0.39659 0.31322 0.04756 0.0
C883 C 0.28013 0.16276 0.03529 0.0
C884 C 0.33547 0.17513 0.04124 0.0
H885 H 0.22428 0.19469 0.02785 0.0
H886 H 0.24725 0.12076 0.03227 0.0
C887 C 0.37714 0.22937 0.04643 0.0
C888 C 0.94901 0.29764 0.28444 0.0
C889 C 0.95233 0.29565 0.32061 0.0
H890 H 0.90029 0.25947 0.24013 0.0
C891 C 0.91449 0.24777 0.33895 0.0
H892 H 0.97802 0.33355 0.26936 0.0
C893 C 0.8709 0.20488 0.3218 0.0
C894 C 0.86499 0.20962 0.28631 0.0
H895 H 0.9164 0.24471 0.36672 0.0
H896 H 0.83909 0.17026 0.33668 0.0
C897 C 0.9052 0.25505 0.26747 0.0
C898 C 0.76601 0.62166 0.33854 0.0
C899 C 0.81472 0.67217 0.34267 0.0
H900 H 0.6776 0.58033 0.33028 0.0
C901 C 0.81106 0.72021 0.34452 0.0
H902 H 0.76825 0.58435 0.33643 0.0
C903 C 0.75927 0.7178 0.34156 0.0
C904 C 0.71147 0.66766 0.33522 0.0
H905 H 0.84849 0.75986 0.3461 0.0
H906 H 0.75704 0.75523 0.34222 0.0
C907 C 0.71465 0.61946 0.33459 0.0
C908 C 0.41168 0.15698 0.33666 0.0
C909 C 0.35839 0.15189 0.33659 0.0
H910 H 0.45934 0.11676 0.34673 0.0
C911 C 0.31117 0.10246 0.34717 0.0
H912 H 0.44794 0.19505 0.32852 0.0
C913 C 0.31743 0.05869 0.35832 0.0
C914 C 0.37071 0.06372 0.3579 0.0
H915 H 0.26938 0.09739 0.34622 0.0
H916 H 0.2807 0.02055 0.36622 0.0
C917 C 0.41796 0.11285 0.3472 0.0
C918 C 0.44279 0.48588 0.3152 0.0
C919 C 0.49503 0.50761 0.33086 0.0
H920 H 0.36774 0.4131 0.30165 0.0
C921 C 0.51289 0.47205 0.34397 0.0
H922 H 0.42706 0.51236 0.30641 0.0
C923 C 0.47796 0.41555 0.34291 0.0
C924 C 0.42534 0.394 0.32794 0.0
H925 H 0.5527 0.48806 0.35673 0.0
H926 H 0.49142 0.38878 0.35443 0.0
C927 C 0.40866 0.42929 0.31302 0.0
C928 C 0.59537 1.00318 0.33105 0.0
C929 C 0.6251 0.06025 0.32544 0.0
H930 H 0.52487 0.93444 0.35563 0.0
C931 C 0.60729 0.09221 0.34306 0.0
H932 H 0.61043 0.9778 0.31996 0.0
C933 C 0.55793 0.06774 0.36284 0.0
C934 C 0.52663 0.01061 0.36625 0.0
H935 H 0.63203 0.13548 0.34343 0.0
H936 H 0.54452 0.09352 0.37577 0.0
C937 C 0.54677 0.97843 0.35152 0.0
C938 C 0.93338 0.53694 0.36593 0.0
C939 C 0.97457 0.59052 0.37286 0.0
H940 H 0.91395 0.45343 0.36271 0.0
C941 C 0.02913 0.60246 0.38064 0.0
H942 H 0.89147 0.52773 0.35906 0.0
C943 C 0.04229 0.56053 0.38191 0.0
C944 C 0.00118 0.50687 0.37466 0.0
H945 H 0.06157 0.64417 0.38515 0.0
H946 H 0.08408 0.56977 0.38904 0.0
C947 C 0.94646 0.49507 0.36733 0.0
C948 C 0.55676 0.5591 0.60883 0.0
C949 C 0.51295 0.52006 0.62977 0.0
H950 H 0.63208 0.63649 0.60651 0.0
C951 C 0.51482 0.52585 0.66567 0.0
H952 H 0.55505 0.5559 0.58099 0.0
C953 C 0.55827 0.57218 0.68039 0.0
C954 C 0.5999 0.61376 0.65926 0.0
H955 H 0.48039 0.49662 0.68206 0.0
H956 H 0.55724 0.57687 0.70805 0.0
C957 C 0.60004 0.60567 0.62347 0.0
C958 C 0.47515 0.04489 0.67305 0.0
C959 C 0.48363 0.99976 0.66985 0.0
H960 H 0.41583 0.07369 0.67127 0.0
C961 C 0.43791 0.94798 0.66342 0.0
H962 H 0.51021 0.08565 0.67635 0.0
C963 C 0.38494 0.94183 0.65859 0.0
C964 C 0.37693 0.98721 0.66075 0.0
H965 H 0.44381 0.91285 0.66027 0.0
H966 H 0.3504 0.9018 0.65273 0.0
C967 C 0.42166 0.03837 0.66932 0.0
C968 C 0.05848 0.42249 0.68102 0.0
C969 C 0.01025 0.37174 0.68738 0.0
H970 H 0.09101 0.50604 0.66433 0.0
C971 C 0.95716 0.36507 0.68108 0.0
H972 H 0.09962 0.42782 0.68605 0.0
C973 C 0.95255 0.40989 0.66956 0.0
C974 C 0.00103 0.46104 0.66399 0.0
H975 H 0.91962 0.32609 0.68615 0.0
H976 H 0.9113 0.4048 0.6652 0.0
C977 C 0.05384 0.46673 0.66881 0.0
C978 C 0.10118 0.80109 0.64674 0.0
C979 C 0.15284 0.82179 0.663 0.0
H980 H 0.02473 0.72961 0.63343 0.0
C981 C 0.16683 0.78506 0.67901 0.0
H982 H 0.088 0.82847 0.6359 0.0
C983 C 0.1294 0.72875 0.67933 0.0
C984 C 0.07794 0.70827 0.66295 0.0
H985 H 0.20596 0.80015 0.69244 0.0
H986 H 0.14049 0.70132 0.69244 0.0
C987 C 0.06462 0.74468 0.64596 0.0
C988 C 0.18312 0.35501 0.66912 0.0
C989 C 0.17821 0.3232 0.69814 0.0
H990 H 0.22673 0.38763 0.62133 0.0
C991 C 0.22263 0.31464 0.70689 0.0
H992 H 0.15214 0.36723 0.66421 0.0
C993 C 0.27079 0.33635 0.68586 0.0
C994 C 0.27387 0.36483 0.65513 0.0
H995 H 0.22065 0.29249 0.73039 0.0
H996 H 0.30497 0.32975 0.69326 0.0
C997 C 0.22813 0.37108 0.64616 0.0
C998 C 0.71035 0.89127 0.70719 0.0
C999 C 0.66487 0.8381 0.70438 0.0
H1000 H 0.73751 0.97718 0.70563 0.0
C1001 C 0.61062 0.83011 0.70021 0.0
H1002 H 0.75207 0.89797 0.71208 0.0
C1003 C 0.60211 0.8749 0.6978 0.0
C1004 C 0.6477 0.9279 0.69997 0.0
H1005 H 0.57489 0.78918 0.69903 0.0
H1006 H 0.56015 0.86828 0.69389 0.0
C1007 C 0.70193 0.93617 0.70436 0.0
loop_
_geom_bond_atom_site_label_1
_geom_bond_atom_site_label_2
_geom_bond_distance
_geom_bond_site_symmetry_2
_ccdc_geom_bond_type
Mn0 O5 2.095 . S
Mn0 O15 2.162 . S
Mn0 O16 2.297 . S
Mn0 O24 2.385 . S
Mn0 O25 2.209 . S
Mn0 O26 2.094 1_545 S
Mn1 O6 2.121 1_556 S
Mn1 N8 2.257 . S
Mn1 N17 2.282 . S
Mn1 O25 2.215 1_556 S
Mn1 O27 2.107 1_546 S
C2 O24 1.234 . S
C2 O25 1.283 . S
C3 O15 1.281 . S
C3 O16 1.236 . S
C4 O26 1.240 . S
C4 O27 1.286 . S
O5 Mn0 2.095 . S
O5 C14 1.250 . S
O6 Mn1 2.121 1_554 S
O6 C14 1.258 . S
C7 N8 1.326 . S
C7 C11 1.460 . S
C7 H13 0.929 . S
N8 Mn1 2.257 . S
N8 C7 1.326 . S
N8 C12 1.362 . S
C9 C10 1.258 . S
C9 C12 1.431 . S
C9 C29 1.449 . S
C10 C9 1.258 . S
C10 C11 1.477 . S
C10 H30 0.931 . S
C11 C7 1.460 . S
C11 C10 1.477 . S
C11 H31 0.930 . S
C12 N8 1.362 . S
C12 C9 1.431 . S
C12 C22 1.476 . S
H13 C7 0.929 . S
C14 O5 1.250 . S
C14 O6 1.258 . S
O15 Mn0 2.162 . S
O15 C3 1.281 . S
O16 Mn0 2.297 . S
O16 C3 1.236 . S
N17 Mn1 2.282 . S
N17 C18 1.328 . S
N17 C22 1.318 . S
C18 N17 1.328 . S
C18 C19 1.457 . S
C18 H23 0.929 . S
C19 C18 1.457 . S
C19 C20 1.291 . S
C19 H32 0.931 . S
C20 C19 1.291 . S
C20 C21 1.373 . S
C20 H33 0.929 . S
C21 C20 1.373 . S
C21 C22 1.396 . S
C21 C28 1.403 . S
C22 C12 1.476 . S
C22 N17 1.318 . S
C22 C21 1.396 . S
H23 C18 0.929 . S
O24 Mn0 2.385 . S
O24 C2 1.234 . S
O25 Mn0 2.209 . S
O25 Mn1 2.215 1_554 S
O25 C2 1.283 . S
O26 Mn0 2.094 1_565 S
O26 C4 1.240 . S
O27 Mn1 2.107 1_564 S
O27 C4 1.286 . S
C28 C21 1.403 . S
C28 C29 1.399 . S
C28 H34 0.929 . S
C29 C9 1.449 . S
C29 C28 1.399 . S
C29 H35 0.930 . S
H30 C10 0.931 . S
H31 C11 0.930 . S
H32 C19 0.931 . S
H33 C20 0.929 . S
H34 C28 0.929 . S
H35 C29 0.930 . S
Mn36 O41 2.095 . S
Mn36 O51 2.162 . S
Mn36 O52 2.297 . S
Mn36 O60 2.385 . S
Mn36 O61 2.209 . S
Mn36 O62 2.094 1_655 S
Mn37 O42 2.121 1_556 S
Mn37 N44 2.257 . S
Mn37 N53 2.282 . S
Mn37 O61 2.215 1_556 S
Mn37 O63 2.117 1_655 S
C38 O60 1.234 . S
C38 O61 1.283 . S
C39 O51 1.281 . S
C39 O52 1.236 . S
C40 O62 1.240 . S
C40 O63 1.264 1_554 S
O41 Mn36 2.095 . S
O41 C50 1.250 . S
O42 Mn37 2.121 1_554 S
O42 C50 1.258 . S
C43 N44 1.326 . S
C43 C47 1.460 . S
C43 H49 0.929 . S
N44 Mn37 2.257 . S
N44 C43 1.326 . S
N44 C48 1.362 . S
C45 C46 1.258 . S
C45 C48 1.431 . S
C45 C65 1.449 . S
C46 C45 1.258 . S
C46 C47 1.477 . S
C46 H66 0.931 . S
C47 C43 1.460 . S
C47 C46 1.477 . S
C47 H67 0.930 . S
C48 N44 1.362 . S
C48 C45 1.431 . S
C48 C58 1.476 . S
H49 C43 0.929 . S
C50 O41 1.250 . S
C50 O42 1.258 . S
O51 Mn36 2.162 . S
O51 C39 1.281 . S
O52 Mn36 2.297 . S
O52 C39 1.236 . S
N53 Mn37 2.282 . S
N53 C54 1.328 . S
N53 C58 1.318 . S
C54 N53 1.328 . S
C54 C55 1.457 . S
C54 H59 0.929 . S
C55 C54 1.457 . S
C55 C56 1.291 . S
C55 H68 0.931 . S
C56 C55 1.291 . S
C56 C57 1.373 . S
C56 H69 0.929 . S
C57 C56 1.373 . S
C57 C58 1.396 . S
C57 C64 1.403 . S
C58 C48 1.476 . S
C58 N53 1.318 . S
C58 C57 1.396 . S
H59 C54 0.929 . S
O60 Mn36 2.385 . S
O60 C38 1.234 . S
O61 Mn36 2.209 . S
O61 Mn37 2.215 1_554 S
O61 C38 1.283 . S
O62 Mn36 2.094 1_455 S
O62 C40 1.240 . S
O63 Mn37 2.117 1_455 S
O63 C40 1.264 1_556 S
C64 C57 1.403 . S
C64 C65 1.399 . S
C64 H70 0.929 . S
C65 C45 1.449 . S
C65 C64 1.399 . S
C65 H71 0.930 . S
H66 C46 0.931 . S
H67 C47 0.930 . S
H68 C55 0.931 . S
H69 C56 0.929 . S
H70 C64 0.929 . S
H71 C65 0.930 . S
Mn72 O77 2.095 . S
Mn72 O87 2.162 . S
Mn72 O88 2.297 . S
Mn72 O96 2.385 . S
Mn72 O97 2.209 . S
Mn72 O98 2.094 . S
Mn73 O78 2.107 1_556 S
Mn73 N80 2.257 . S
Mn73 N89 2.282 . S
Mn73 O97 2.215 1_556 S
Mn73 O99 2.117 . S
C74 O96 1.234 . S
C74 O97 1.283 . S
C75 O87 1.281 . S
C75 O88 1.236 . S
C76 O98 1.240 . S
C76 O99 1.264 1_554 S
O77 Mn72 2.095 . S
O77 C86 1.250 . S
O78 Mn73 2.107 1_554 S
O78 C86 1.288 . S
C79 N80 1.326 . S
C79 C83 1.460 . S
C79 H85 0.929 . S
N80 Mn73 2.257 . S
N80 C79 1.326 . S
N80 C84 1.362 . S
C81 C82 1.258 . S
C81 C84 1.431 . S
C81 C101 1.449 . S
C82 C81 1.258 . S
C82 C83 1.477 . S
C82 H102 0.931 . S
C83 C79 1.460 . S
C83 C82 1.477 . S
C83 H103 0.930 . S
C84 N80 1.362 . S
C84 C81 1.431 . S
C84 C94 1.476 . S
H85 C79 0.929 . S
C86 O77 1.250 . S
C86 O78 1.288 . S
O87 Mn72 2.162 . S
O87 C75 1.281 . S
O88 Mn72 2.297 . S
O88 C75 1.236 . S
N89 Mn73 2.282 . S
N89 C90 1.328 . S
N89 C94 1.318 . S
C90 N89 1.328 . S
C90 C91 1.457 . S
C90 H95 0.929 . S
C91 C90 1.457 . S
C91 C92 1.291 . S
C91 H104 0.931 . S
C92 C91 1.291 . S
C92 C93 1.373 . S
C92 H105 0.929 . S
C93 C92 1.373 . S
C93 C94 1.396 . S
C93 C100 1.403 . S
C94 C84 1.476 . S
C94 N89 1.318 . S
C94 C93 1.396 . S
H95 C90 0.929 . S
O96 Mn72 2.385 . S
O96 C74 1.234 . S
O97 Mn72 2.209 . S
O97 Mn73 2.215 1_554 S
O97 C74 1.283 . S
O98 Mn72 2.094 . S
O98 C76 1.240 . S
O99 Mn73 2.117 . S
O99 C76 1.264 1_556 S
C100 C93 1.403 . S
C100 C101 1.399 . S
C100 H106 0.929 . S
C101 C81 1.449 . S
C101 C100 1.399 . S
C101 H107 0.930 . S
H102 C82 0.931 . S
H103 C83 0.930 . S
H104 C91 0.931 . S
H105 C92 0.929 . S
H106 C100 0.929 . S
H107 C101 0.930 . S
Mn108 O113 2.095 . S
Mn108 O123 2.162 . S
Mn108 O124 2.297 . S
Mn108 O132 2.385 . S
Mn108 O133 2.209 . S
Mn108 O134 2.094 1_565 S
Mn109 O114 2.121 1_554 S
Mn109 N116 2.257 . S
Mn109 N125 2.282 . S
Mn109 O133 2.215 1_554 S
Mn109 O135 2.117 1_565 S
C110 O132 1.234 . S
C110 O133 1.283 . S
C111 O123 1.281 . S
C111 O124 1.236 . S
C112 O134 1.240 . S
C112 O135 1.264 1_556 S
O113 Mn108 2.095 . S
O113 C122 1.250 . S
O114 Mn109 2.121 1_556 S
O114 C122 1.258 . S
C115 N116 1.326 . S
C115 C119 1.460 . S
C115 H121 0.929 . S
N116 Mn109 2.257 . S
N116 C115 1.326 . S
N116 C120 1.362 . S
C117 C118 1.258 . S
C117 C120 1.431 . S
C117 C137 1.449 . S
C118 C117 1.258 . S
C118 C119 1.477 . S
C118 H138 0.931 . S
C119 C115 1.460 . S
C119 C118 1.477 . S
C119 H139 0.930 . S
C120 N116 1.362 . S
C120 C117 1.431 . S
C120 C130 1.476 . S
H121 C115 0.929 . S
C122 O113 1.250 . S
C122 O114 1.258 . S
O123 Mn108 2.162 . S
O123 C111 1.281 . S
O124 Mn108 2.297 . S
O124 C111 1.236 . S
N125 Mn109 2.282 . S
N125 C126 1.328 . S
N125 C130 1.318 . S
C126 N125 1.328 . S
C126 C127 1.457 . S
C126 H131 0.942 . S
C127 C126 1.457 . S
C127 C128 1.291 . S
C127 H140 0.931 . S
C128 C127 1.291 . S
C128 C129 1.373 . S
C128 H141 0.929 . S
C129 C128 1.373 . S
C129 C130 1.396 . S
C129 C136 1.403 . S
C130 C120 1.476 . S
C130 N125 1.318 . S
C130 C129 1.396 . S
H131 C126 0.942 . S
O132 Mn108 2.385 . S
O132 C110 1.234 . S
O133 Mn108 2.209 . S
O133 Mn109 2.215 1_556 S
O133 C110 1.283 . S
O134 Mn108 2.094 1_545 S
O134 C112 1.240 . S
O135 Mn109 2.117 1_545 S
O135 C112 1.264 1_554 S
C136 C129 1.403 . S
C136 C137 1.399 . S
C136 H142 0.929 . S
C137 C117 1.449 . S
C137 C136 1.399 . S
C137 H143 0.930 . S
H138 C118 0.931 . S
H139 C119 0.930 . S
H140 C127 0.931 . S
H141 C128 0.929 . S
H142 C136 0.929 . S
H143 C137 0.930 . S
Mn144 O149 2.095 . S
Mn144 O159 2.162 . S
Mn144 O160 2.297 1_455 S
Mn144 O168 2.385 1_455 S
Mn144 O169 2.209 1_455 S
Mn144 O170 2.094 . S
Mn145 O150 2.121 . S
Mn145 N152 2.257 1_455 S
Mn145 N161 2.282 1_455 S
Mn145 O169 2.215 1_455 S
Mn145 O171 2.117 . S
C146 O168 1.234 . S
C146 O169 1.283 . S
C147 O159 1.281 . S
C147 O160 1.236 1_455 S
C148 O170 1.240 . S
C148 O171 1.264 . S
O149 Mn144 2.095 . S
O149 C158 1.250 . S
O150 Mn145 2.121 . S
O150 C158 1.258 . S
C151 N152 1.326 . S
C151 C155 1.460 . S
C151 H157 0.929 . S
N152 Mn145 2.257 1_655 S
N152 C151 1.326 . S
N152 C156 1.362 . S
C153 C154 1.258 . S
C153 C156 1.431 . S
C153 C173 1.449 . S
C154 C153 1.258 . S
C154 C155 1.477 . S
C154 H174 0.931 . S
C155 C151 1.460 . S
C155 C154 1.477 . S
C155 H175 0.930 . S
C156 N152 1.362 . S
C156 C153 1.431 . S
C156 C166 1.476 . S
H157 C151 0.929 . S
C158 O149 1.250 . S
C158 O150 1.258 . S
O159 Mn144 2.162 . S
O159 C147 1.281 . S
O160 Mn144 2.297 1_655 S
O160 C147 1.236 1_655 S
N161 Mn145 2.282 1_655 S
N161 C162 1.328 . S
N161 C166 1.318 . S
C162 N161 1.328 . S
C162 C163 1.457 1_556 S
C162 H167 0.929 1_656 S
C163 C162 1.457 1_554 S
C163 C164 1.291 . S
C163 H176 0.931 . S
C164 C163 1.291 . S
C164 C165 1.373 1_554 S
C164 H177 0.929 . S
C165 C164 1.373 1_556 S
C165 C166 1.396 . S
C165 C172 1.403 . S
C166 C156 1.476 . S
C166 N161 1.318 . S
C166 C165 1.396 . S
H167 C162 0.929 1_454 S
O168 Mn144 2.385 1_655 S
O168 C146 1.234 . S
O169 Mn144 2.209 1_655 S
O169 Mn145 2.215 1_655 S
O169 C146 1.283 . S
O170 Mn144 2.094 . S
O170 C148 1.240 . S
O171 Mn145 2.117 . S
O171 C148 1.264 . S
C172 C165 1.403 . S
C172 C173 1.399 . S
C172 H178 0.929 . S
C173 C153 1.449 . S
C173 C172 1.399 . S
C173 H179 0.930 . S
H174 C154 0.931 . S
H175 C155 0.930 . S
H176 C163 0.931 . S
H177 C164 0.929 . S
H178 C172 0.929 . S
H179 C173 0.930 . S
Mn180 O185 2.095 . S
Mn180 O195 2.162 . S
Mn180 O196 2.297 . S
Mn180 O204 2.385 . S
Mn180 O205 2.209 . S
Mn180 O206 2.094 . S
Mn181 O186 2.121 1_554 S
Mn181 N188 2.257 . S
Mn181 N197 2.282 . S
Mn181 O205 2.215 1_554 S
Mn181 O207 2.111 1_554 S
C182 O204 1.234 . S
C182 O205 1.283 . S
C183 O195 1.281 . S
C183 O196 1.236 . S
C184 O206 1.240 . S
C184 O207 1.277 . S
O185 Mn180 2.095 . S
O185 C194 1.250 . S
O186 Mn181 2.121 1_556 S
O186 C194 1.258 . S
C187 N188 1.326 . S
C187 C191 1.460 . S
C187 H193 0.929 . S
N188 Mn181 2.257 . S
N188 C187 1.326 . S
N188 C192 1.362 . S
C189 C190 1.258 . S
C189 C192 1.431 . S
C189 C209 1.449 . S
C190 C189 1.258 . S
C190 C191 1.477 . S
C190 H210 0.931 . S
C191 C187 1.460 . S
C191 C190 1.477 . S
C191 H211 0.930 . S
C192 N188 1.362 . S
C192 C189 1.431 . S
C192 C202 1.476 . S
H193 C187 0.929 . S
C194 O185 1.250 . S
C194 O186 1.258 . S
O195 Mn180 2.162 . S
O195 C183 1.281 . S
O196 Mn180 2.297 . S
O196 C183 1.236 . S
N197 Mn181 2.282 . S
N197 C198 1.328 . S
N197 C202 1.318 . S
C198 N197 1.328 . S
C198 C199 1.457 . S
C198 H203 0.929 . S
C199 C198 1.457 . S
C199 C200 1.291 . S
C199 H212 0.931 . S
C200 C199 1.291 . S
C200 C201 1.373 . S
C200 H213 0.929 . S
C201 C200 1.373 . S
C201 C202 1.396 . S
C201 C208 1.403 . S
C202 C192 1.476 . S
C202 N197 1.318 . S
C202 C201 1.396 . S
H203 C198 0.929 . S
O204 Mn180 2.385 . S
O204 C182 1.234 . S
O205 Mn180 2.209 . S
O205 Mn181 2.215 1_556 S
O205 C182 1.283 . S
O206 Mn180 2.094 . S
O206 C184 1.240 . S
O207 Mn181 2.111 1_556 S
O207 C184 1.277 . S
C208 C201 1.403 . S
C208 C209 1.399 . S
C208 H214 0.929 . S
C209 C189 1.449 . S
C209 C208 1.399 . S
C209 H215 0.930 . S
H210 C190 0.931 . S
H211 C191 0.930 . S
H212 C199 0.931 . S
H213 C200 0.929 . S
H214 C208 0.929 . S
H215 C209 0.930 . S
Mn216 O221 2.095 1_655 S
Mn216 O231 2.162 . S
Mn216 O232 2.297 1_655 S
Mn216 O240 2.385 . S
Mn216 O241 2.209 1_655 S
Mn216 O242 2.094 . S
Mn217 O222 2.121 . S
Mn217 N224 2.257 . S
Mn217 N233 2.282 1_455 S
Mn217 O241 2.215 . S
Mn217 O243 2.117 1_455 S
C218 O240 1.234 . S
C218 O241 1.283 1_655 S
C219 O231 1.281 1_455 S
C219 O232 1.236 . S
C220 O242 1.240 . S
C220 O243 1.264 . S
O221 Mn216 2.095 1_455 S
O221 C230 1.250 . S
O222 Mn217 2.121 . S
O222 C230 1.258 . S
C223 N224 1.326 . S
C223 C227 1.460 . S
C223 H229 0.929 . S
N224 Mn217 2.257 . S
N224 C223 1.326 . S
N224 C228 1.362 . S
C225 C226 1.258 . S
C225 C228 1.431 . S
C225 C245 1.449 . S
C226 C225 1.258 . S
C226 C227 1.477 . S
C226 H246 0.931 . S
C227 C223 1.460 . S
C227 C226 1.477 . S
C227 H247 0.930 . S
C228 N224 1.362 . S
C228 C225 1.431 . S
C228 C238 1.476 1_455 S
H229 C223 0.929 . S
C230 O221 1.250 . S
C230 O222 1.258 . S
O231 Mn216 2.162 . S
O231 C219 1.281 1_655 S
O232 Mn216 2.297 1_455 S
O232 C219 1.236 . S
N233 Mn217 2.282 1_655 S
N233 C234 1.328 . S
N233 C238 1.318 . S
C234 N233 1.328 . S
C234 C235 1.457 . S
C234 H239 0.929 . S
C235 C234 1.457 . S
C235 C236 1.291 . S
C235 H248 0.931 . S
C236 C235 1.291 . S
C236 C237 1.373 . S
C236 H249 0.929 . S
C237 C236 1.373 . S
C237 C238 1.396 . S
C237 C244 1.403 . S
C238 C228 1.476 1_655 S
C238 N233 1.318 . S
C238 C237 1.396 . S
H239 C234 0.929 . S
O240 Mn216 2.385 . S
O240 C218 1.234 . S
O241 Mn216 2.209 1_455 S
O241 Mn217 2.215 . S
O241 C218 1.283 1_455 S
O242 Mn216 2.094 . S
O242 C220 1.240 . S
O243 Mn217 2.117 1_655 S
O243 C220 1.264 . S
C244 C237 1.403 . S
C244 C245 1.399 1_655 S
C244 H250 0.929 . S
C245 C225 1.449 . S
C245 C244 1.399 1_455 S
C245 H251 0.930 . S
H246 C226 0.931 . S
H247 C227 0.930 . S
H248 C235 0.931 . S
H249 C236 0.929 . S
H250 C244 0.929 . S
H251 C245 0.930 . S
Mn252 O257 2.095 . S
Mn252 O267 2.162 . S
Mn252 O268 2.297 . S
Mn252 O276 2.385 . S
Mn252 O277 2.209 . S
Mn252 O278 2.094 . S
Mn253 O258 2.121 . S
Mn253 N260 2.257 . S
Mn253 N269 2.282 . S
Mn253 O277 2.215 . S
Mn253 O279 2.117 . S
C254 O276 1.234 . S
C254 O277 1.283 . S
C255 O267 1.281 . S
C255 O268 1.236 . S
C256 O278 1.240 . S
C256 O279 1.264 . S
O257 Mn252 2.095 . S
O257 C266 1.250 . S
O258 Mn253 2.121 . S
O258 C266 1.258 . S
C259 N260 1.326 . S
C259 C263 1.460 . S
C259 H265 0.929 . S
N260 Mn253 2.257 . S
N260 C259 1.326 . S
N260 C264 1.362 . S
C261 C262 1.258 . S
C261 C264 1.431 . S
C261 C281 1.449 . S
C262 C261 1.258 . S
C262 C263 1.477 . S
C262 H282 0.931 . S
C263 C259 1.460 . S
C263 C262 1.477 . S
C263 H283 0.930 . S
C264 N260 1.362 . S
C264 C261 1.431 . S
C264 C274 1.476 . S
H265 C259 0.929 . S
C266 O257 1.250 . S
C266 O258 1.258 . S
O267 Mn252 2.162 . S
O267 C255 1.281 . S
O268 Mn252 2.297 . S
O268 C255 1.236 . S
N269 Mn253 2.282 . S
N269 C270 1.328 . S
N269 C274 1.318 . S
C270 N269 1.328 . S
C270 C271 1.457 . S
C270 H275 0.929 . S
C271 C270 1.457 . S
C271 C272 1.291 . S
C271 H284 0.931 . S
C272 C271 1.291 . S
C272 C273 1.373 . S
C272 H285 0.929 . S
C273 C272 1.373 . S
C273 C274 1.396 . S
C273 C280 1.403 . S
C274 C264 1.476 . S
C274 N269 1.318 . S
C274 C273 1.396 . S
H275 C270 0.929 . S
O276 Mn252 2.385 . S
O276 C254 1.234 . S
O277 Mn252 2.209 . S
O277 Mn253 2.215 . S
O277 C254 1.283 . S
O278 Mn252 2.094 . S
O278 C256 1.240 . S
O279 Mn253 2.117 . S
O279 C256 1.264 . S
C280 C273 1.403 . S
C280 C281 1.399 . S
C280 H286 0.929 . S
C281 C261 1.449 . S
C281 C280 1.399 . S
C281 H287 0.930 . S
H282 C262 0.931 . S
H283 C263 0.930 . S
H284 C271 0.931 . S
H285 C272 0.929 . S
H286 C280 0.929 . S
H287 C281 0.930 . S
Mn288 O293 2.095 1_545 S
Mn288 O303 2.162 . S
Mn288 O304 2.297 1_545 S
Mn288 O312 2.385 . S
Mn288 O313 2.209 1_545 S
Mn288 O314 2.094 . S
Mn289 O294 2.121 . S
Mn289 N296 2.257 . S
Mn289 N305 2.282 1_565 S
Mn289 O313 2.215 . S
Mn289 O315 2.117 1_565 S
C290 O312 1.234 . S
C290 O313 1.283 1_545 S
C291 O303 1.281 1_565 S
C291 O304 1.236 . S
C292 O314 1.240 . S
C292 O315 1.264 . S
O293 Mn288 2.095 1_565 S
O293 C302 1.250 . S
O294 Mn289 2.121 . S
O294 C302 1.258 . S
C295 N296 1.326 . S
C295 C299 1.460 . S
C295 H301 0.929 . S
N296 Mn289 2.257 . S
N296 C295 1.326 . S
N296 C300 1.362 . S
C297 C298 1.258 . S
C297 C300 1.431 . S
C297 C317 1.449 . S
C298 C297 1.258 . S
C298 C299 1.477 . S
C298 H318 0.931 . S
C299 C295 1.460 . S
C299 C298 1.477 . S
C299 H319 0.930 . S
C300 N296 1.362 . S
C300 C297 1.431 . S
C300 C310 1.476 1_565 S
H301 C295 0.929 . S
C302 O293 1.250 . S
C302 O294 1.258 . S
O303 Mn288 2.162 . S
O303 C291 1.281 1_545 S
O304 Mn288 2.297 1_565 S
O304 C291 1.236 . S
N305 Mn289 2.282 1_545 S
N305 C306 1.328 . S
N305 C310 1.318 . S
C306 N305 1.328 . S
C306 C307 1.457 . S
C306 H311 0.929 . S
C307 C306 1.457 . S
C307 C308 1.291 . S
C307 H320 0.931 . S
C308 C307 1.291 . S
C308 C309 1.373 . S
C308 H321 0.929 . S
C309 C308 1.373 . S
C309 C310 1.396 . S
C309 C316 1.403 . S
C310 C300 1.476 1_545 S
C310 N305 1.318 . S
C310 C309 1.396 . S
H311 C306 0.929 . S
O312 Mn288 2.385 . S
O312 C290 1.234 . S
O313 Mn288 2.209 1_565 S
O313 Mn289 2.215 . S
O313 C290 1.283 1_565 S
O314 Mn288 2.094 . S
O314 C292 1.240 . S
O315 Mn289 2.117 1_545 S
O315 C292 1.264 . S
C316 C309 1.403 . S
C316 C317 1.399 1_545 S
C316 H322 0.929 . S
C317 C297 1.449 . S
C317 C316 1.399 1_565 S
C317 H323 0.930 . S
H318 C298 0.931 . S
H319 C299 0.930 . S
H320 C307 0.931 . S
H321 C308 0.929 . S
H322 C316 0.929 . S
H323 C317 0.930 . S
Mn324 O329 2.095 . S
Mn324 O339 2.162 . S
Mn324 O340 2.297 . S
Mn324 O348 2.385 . S
Mn324 O349 2.209 . S
Mn324 O350 2.094 . S
Mn325 O330 2.121 . S
Mn325 N332 2.257 . S
Mn325 N341 2.282 . S
Mn325 O349 2.215 . S
Mn325 O351 2.117 . S
C326 O348 1.234 . S
C326 O349 1.283 . S
C327 O339 1.281 . S
C327 O340 1.236 . S
C328 O350 1.240 . S
C328 O351 1.264 . S
O329 Mn324 2.095 . S
O329 C338 1.250 . S
O330 Mn325 2.121 . S
O330 C338 1.258 . S
C331 N332 1.326 . S
C331 C335 1.460 . S
C331 H337 0.929 . S
N332 Mn325 2.257 . S
N332 C331 1.326 . S
N332 C336 1.362 . S
C333 C334 1.258 . S
C333 C336 1.431 . S
C333 C353 1.449 . S
C334 C333 1.258 . S
C334 C335 1.477 . S
C334 H354 0.931 . S
C335 C331 1.460 . S
C335 C334 1.477 . S
C335 H355 0.930 . S
C336 N332 1.362 . S
C336 C333 1.431 . S
C336 C346 1.476 . S
H337 C331 0.929 . S
C338 O329 1.250 . S
C338 O330 1.258 . S
O339 Mn324 2.162 . S
O339 C327 1.281 . S
O340 Mn324 2.297 . S
O340 C327 1.236 . S
N341 Mn325 2.282 . S
N341 C342 1.328 . S
N341 C346 1.318 . S
C342 N341 1.328 . S
C342 C343 1.457 . S
C342 H347 0.929 . S
C343 C342 1.457 . S
C343 C344 1.291 . S
C343 H356 0.931 . S
C344 C343 1.291 . S
C344 C345 1.373 . S
C344 H357 0.929 . S
C345 C344 1.373 . S
C345 C346 1.396 . S
C345 C352 1.403 . S
C346 C336 1.476 . S
C346 N341 1.318 . S
C346 C345 1.396 . S
H347 C342 0.929 . S
O348 Mn324 2.385 . S
O348 C326 1.234 . S
O349 Mn324 2.209 . S
O349 Mn325 2.215 . S
O349 C326 1.283 . S
O350 Mn324 2.094 . S
O350 C328 1.240 . S
O351 Mn325 2.117 . S
O351 C328 1.264 . S
C352 C345 1.403 . S
C352 C353 1.399 . S
C352 H358 0.929 . S
C353 C333 1.449 . S
C353 C352 1.399 . S
C353 H359 0.930 . S
H354 C334 0.931 . S
H355 C335 0.930 . S
H356 C343 0.931 . S
H357 C344 0.929 . S
H358 C352 0.929 . S
H359 C353 0.930 . S
Mn360 O365 2.095 . S
Mn360 O375 2.162 1_545 S
Mn360 O376 2.297 1_545 S
Mn360 O384 2.385 . S
Mn360 O385 2.209 . S
Mn360 O386 2.094 . S
Mn361 O366 2.121 . S
Mn361 N368 2.257 . S
Mn361 N377 2.282 . S
Mn361 O385 2.215 . S
Mn361 O387 2.117 . S
C362 O384 1.234 . S
C362 O385 1.283 . S
C363 O375 1.281 . S
C363 O376 1.236 . S
C364 O386 1.240 . S
C364 O387 1.264 . S
O365 Mn360 2.095 . S
O365 C374 1.250 . S
O366 Mn361 2.121 . S
O366 C374 1.258 . S
C367 N368 1.326 . S
C367 C371 1.460 . S
C367 H373 0.929 . S
N368 Mn361 2.257 . S
N368 C367 1.326 . S
N368 C372 1.362 . S
C369 C370 1.258 . S
C369 C372 1.431 . S
C369 C389 1.449 . S
C370 C369 1.258 . S
C370 C371 1.477 . S
C370 H390 0.931 . S
C371 C367 1.460 . S
C371 C370 1.477 . S
C371 H391 0.930 . S
C372 N368 1.362 . S
C372 C369 1.431 . S
C372 C382 1.476 . S
H373 C367 0.929 . S
C374 O365 1.250 . S
C374 O366 1.258 . S
O375 Mn360 2.162 1_565 S
O375 C363 1.281 . S
O376 Mn360 2.297 1_565 S
O376 C363 1.236 . S
N377 Mn361 2.282 . S
N377 C378 1.328 . S
N377 C382 1.318 . S
C378 N377 1.328 . S
C378 C379 1.457 . S
C378 H383 0.929 . S
C379 C378 1.457 . S
C379 C380 1.291 . S
C379 H392 0.931 . S
C380 C379 1.291 . S
C380 C381 1.373 . S
C380 H393 0.929 . S
C381 C380 1.373 . S
C381 C382 1.396 . S
C381 C388 1.403 . S
C382 C372 1.476 . S
C382 N377 1.318 . S
C382 C381 1.396 . S
H383 C378 0.929 . S
O384 Mn360 2.385 . S
O384 C362 1.234 . S
O385 Mn360 2.209 . S
O385 Mn361 2.215 . S
O385 C362 1.283 . S
O386 Mn360 2.094 . S
O386 C364 1.240 . S
O387 Mn361 2.117 . S
O387 C364 1.264 . S
C388 C381 1.403 . S
C388 C389 1.399 . S
C388 H394 0.929 . S
C389 C369 1.449 . S
C389 C388 1.399 . S
C389 H395 0.930 . S
H390 C370 0.931 . S
H391 C371 0.930 . S
H392 C379 0.931 . S
H393 C380 0.929 . S
H394 C388 0.929 . S
H395 C389 0.930 . S
Mn396 O401 2.095 1_655 S
Mn396 O411 2.162 . S
Mn396 O412 2.297 . S
Mn396 O420 2.385 . S
Mn396 O421 2.209 . S
Mn396 O422 2.094 . S
Mn397 O402 2.121 1_655 S
Mn397 N404 2.257 . S
Mn397 N413 2.282 . S
Mn397 O421 2.215 . S
Mn397 O423 2.117 . S
C398 O420 1.234 . S
C398 O421 1.283 . S
C399 O411 1.281 . S
C399 O412 1.236 . S
C400 O422 1.240 . S
C400 O423 1.264 . S
O401 Mn396 2.095 1_455 S
O401 C410 1.250 . S
O402 Mn397 2.121 1_455 S
O402 C410 1.258 . S
C403 N404 1.326 . S
C403 C407 1.460 . S
C403 H409 0.929 1_655 S
N404 Mn397 2.257 . S
N404 C403 1.326 . S
N404 C408 1.362 . S
C405 C406 1.258 . S
C405 C408 1.431 . S
C405 C425 1.449 . S
C406 C405 1.258 . S
C406 C407 1.477 . S
C406 H426 0.931 . S
C407 C403 1.460 . S
C407 C406 1.477 . S
C407 H427 0.930 . S
C408 N404 1.362 . S
C408 C405 1.431 . S
C408 C418 1.476 . S
H409 C403 0.929 1_455 S
C410 O401 1.250 . S
C410 O402 1.258 . S
O411 Mn396 2.162 . S
O411 C399 1.281 . S
O412 Mn396 2.297 . S
O412 C399 1.236 . S
N413 Mn397 2.282 . S
N413 C414 1.328 . S
N413 C418 1.318 . S
C414 N413 1.328 . S
C414 C415 1.457 . S
C414 H419 0.929 . S
C415 C414 1.457 . S
C415 C416 1.291 . S
C415 H428 0.931 . S
C416 C415 1.291 . S
C416 C417 1.373 . S
C416 H429 0.929 . S
C417 C416 1.373 . S
C417 C418 1.396 . S
C417 C424 1.403 . S
C418 C408 1.476 . S
C418 N413 1.318 . S
C418 C417 1.396 . S
H419 C414 0.929 . S
O420 Mn396 2.385 . S
O420 C398 1.234 . S
O421 Mn396 2.209 . S
O421 Mn397 2.215 . S
O421 C398 1.283 . S
O422 Mn396 2.094 . S
O422 C400 1.240 . S
O423 Mn397 2.117 . S
O423 C400 1.264 . S
C424 C417 1.403 . S
C424 C425 1.399 . S
C424 H430 0.929 . S
C425 C405 1.449 . S
C425 C424 1.399 . S
C425 H431 0.930 . S
H426 C406 0.931 . S
H427 C407 0.930 . S
H428 C415 0.931 . S
H429 C416 0.929 . S
H430 C424 0.929 . S
H431 C425 0.930 . S
Mn432 O437 2.095 . S
Mn432 O447 2.162 . S
Mn432 O448 2.297 . S
Mn432 O456 2.385 . S
Mn432 O457 2.209 . S
Mn432 O458 2.094 . S
Mn433 O438 2.121 . S
Mn433 N440 2.257 . S
Mn433 N449 2.282 . S
Mn433 O457 2.215 . S
Mn433 O459 2.117 . S
C434 O456 1.234 . S
C434 O457 1.283 . S
C435 O447 1.281 . S
C435 O448 1.236 . S
C436 O458 1.240 . S
C436 O459 1.264 . S
O437 Mn432 2.095 . S
O437 C446 1.250 . S
O438 Mn433 2.121 . S
O438 C446 1.258 . S
C439 N440 1.326 . S
C439 C443 1.460 . S
C439 H445 0.929 . S
N440 Mn433 2.257 . S
N440 C439 1.326 . S
N440 C444 1.362 . S
C441 C442 1.258 . S
C441 C444 1.431 . S
C441 C461 1.449 . S
C442 C441 1.258 . S
C442 C443 1.477 . S
C442 H462 0.931 . S
C443 C439 1.460 . S
C443 C442 1.477 . S
C443 H463 0.930 . S
C444 N440 1.362 . S
C444 C441 1.431 . S
C444 C454 1.476 . S
H445 C439 0.929 . S
C446 O437 1.250 . S
C446 O438 1.258 . S
O447 Mn432 2.162 . S
O447 C435 1.281 . S
O448 Mn432 2.297 . S
O448 C435 1.236 . S
N449 Mn433 2.282 . S
N449 C450 1.328 . S
N449 C454 1.318 . S
C450 N449 1.328 . S
C450 C451 1.457 . S
C450 H455 0.929 . S
C451 C450 1.457 . S
C451 C452 1.291 . S
C451 H464 0.931 . S
C452 C451 1.291 . S
C452 C453 1.373 . S
C452 H465 0.929 . S
C453 C452 1.373 . S
C453 C454 1.396 . S
C453 C460 1.403 . S
C454 C444 1.476 . S
C454 N449 1.318 . S
C454 C453 1.396 . S
H455 C450 0.929 . S
O456 Mn432 2.385 . S
O456 C434 1.234 . S
O457 Mn432 2.209 . S
O457 Mn433 2.215 . S
O457 C434 1.283 . S
O458 Mn432 2.094 . S
O458 C436 1.240 . S
O459 Mn433 2.117 . S
O459 C436 1.264 . S
C460 C453 1.403 . S
C460 C461 1.399 . S
C460 H466 0.929 . S
C461 C441 1.449 . S
C461 C460 1.399 . S
C461 H467 0.930 . S
H462 C442 0.931 . S
H463 C443 0.930 . S
H464 C451 0.931 . S
H465 C452 0.929 . S
H466 C460 0.929 . S
H467 C461 0.930 . S
Mn468 O473 2.095 1_565 S
Mn468 O483 2.162 . S
Mn468 O484 2.297 . S
Mn468 O492 2.385 . S
Mn468 O493 2.209 . S
Mn468 O494 2.094 . S
Mn469 O474 2.121 1_565 S
Mn469 N476 2.257 . S
Mn469 N485 2.282 . S
Mn469 O493 2.215 . S
Mn469 O495 2.117 . S
C470 O492 1.234 . S
C470 O493 1.283 . S
C471 O483 1.281 . S
C471 O484 1.236 . S
C472 O494 1.240 . S
C472 O495 1.264 . S
O473 Mn468 2.095 1_545 S
O473 C482 1.250 . S
O474 Mn469 2.121 1_545 S
O474 C482 1.258 . S
C475 N476 1.326 . S
C475 C479 1.460 . S
C475 H481 0.929 1_565 S
N476 Mn469 2.257 . S
N476 C475 1.326 . S
N476 C480 1.362 . S
C477 C478 1.258 . S
C477 C480 1.431 . S
C477 C497 1.449 . S
C478 C477 1.258 . S
C478 C479 1.477 . S
C478 H498 0.931 . S
C479 C475 1.460 . S
C479 C478 1.477 . S
C479 H499 0.930 . S
C480 N476 1.362 . S
C480 C477 1.431 . S
C480 C490 1.476 . S
H481 C475 0.929 1_545 S
C482 O473 1.250 . S
C482 O474 1.258 . S
O483 Mn468 2.162 . S
O483 C471 1.281 . S
O484 Mn468 2.297 . S
O484 C471 1.236 . S
N485 Mn469 2.282 . S
N485 C486 1.328 . S
N485 C490 1.318 . S
C486 N485 1.328 . S
C486 C487 1.457 . S
C486 H491 0.929 . S
C487 C486 1.457 . S
C487 C488 1.291 . S
C487 H500 0.931 . S
C488 C487 1.291 . S
C488 C489 1.373 . S
C488 H501 0.929 . S
C489 C488 1.373 . S
C489 C490 1.396 . S
C489 C496 1.403 . S
C490 C480 1.476 . S
C490 N485 1.318 . S
C490 C489 1.396 . S
H491 C486 0.929 . S
O492 Mn468 2.385 . S
O492 C470 1.234 . S
O493 Mn468 2.209 . S
O493 Mn469 2.215 . S
O493 C470 1.283 . S
O494 Mn468 2.094 . S
O494 C472 1.240 . S
O495 Mn469 2.117 . S
O495 C472 1.264 . S
C496 C489 1.403 . S
C496 C497 1.399 . S
C496 H502 0.929 . S
C497 C477 1.449 . S
C497 C496 1.399 . S
C497 H503 0.930 . S
H498 C478 0.931 . S
H499 C479 0.930 . S
H500 C487 0.931 . S
H501 C488 0.929 . S
H502 C496 0.929 . S
H503 C497 0.930 . S
Mn504 O509 2.095 1_455 S
Mn504 O519 2.162 . S
Mn504 O520 2.297 . S
Mn504 O528 2.385 . S
Mn504 O529 2.209 . S
Mn504 O530 2.094 . S
Mn505 O510 2.121 1_455 S
Mn505 N512 2.257 . S
Mn505 N521 2.282 . S
Mn505 O529 2.215 . S
Mn505 O531 2.117 . S
C506 O528 1.234 . S
C506 O529 1.283 . S
C507 O519 1.281 . S
C507 O520 1.236 . S
C508 O530 1.240 . S
C508 O531 1.264 . S
O509 Mn504 2.095 1_655 S
O509 C518 1.250 . S
O510 Mn505 2.121 1_655 S
O510 C518 1.258 . S
C511 N512 1.326 . S
C511 C515 1.460 . S
C511 H517 0.929 1_455 S
N512 Mn505 2.257 . S
N512 C511 1.326 . S
N512 C516 1.362 . S
C513 C514 1.258 . S
C513 C516 1.431 . S
C513 C533 1.449 . S
C514 C513 1.258 . S
C514 C515 1.477 . S
C514 H534 0.931 . S
C515 C511 1.460 . S
C515 C514 1.477 . S
C515 H535 0.931 . S
C516 N512 1.362 . S
C516 C513 1.431 . S
C516 C526 1.476 . S
H517 C511 0.929 1_655 S
C518 O509 1.250 . S
C518 O510 1.258 . S
O519 Mn504 2.162 . S
O519 C507 1.281 . S
O520 Mn504 2.297 . S
O520 C507 1.236 . S
N521 Mn505 2.282 . S
N521 C522 1.328 . S
N521 C526 1.318 . S
C522 N521 1.328 . S
C522 C523 1.457 . S
C522 H527 0.929 . S
C523 C522 1.457 . S
C523 C524 1.291 . S
C523 H536 0.931 . S
C524 C523 1.291 . S
C524 C525 1.373 . S
C524 H537 0.929 . S
C525 C524 1.373 . S
C525 C526 1.396 . S
C525 C532 1.403 . S
C526 C516 1.476 . S
C526 N521 1.318 . S
C526 C525 1.396 . S
H527 C522 0.929 . S
O528 Mn504 2.385 . S
O528 C506 1.234 . S
O529 Mn504 2.209 . S
O529 Mn505 2.215 . S
O529 C506 1.283 . S
O530 Mn504 2.094 . S
O530 C508 1.240 . S
O531 Mn505 2.117 . S
O531 C508 1.264 . S
C532 C525 1.403 . S
C532 C533 1.399 . S
C532 H538 0.929 . S
C533 C513 1.449 . S
C533 C532 1.399 . S
C533 H539 0.930 . S
H534 C514 0.931 . S
H535 C515 0.931 . S
H536 C523 0.931 . S
H537 C524 0.929 . S
H538 C532 0.929 . S
H539 C533 0.930 . S
Mn540 O545 2.095 1_455 S
Mn540 O555 2.162 . S
Mn540 O556 2.297 1_455 S
Mn540 O564 2.385 . S
Mn540 O565 2.209 1_455 S
Mn540 O566 2.094 . S
Mn541 O546 2.121 . S
Mn541 N548 2.257 . S
Mn541 N557 2.282 1_655 S
Mn541 O565 2.215 . S
Mn541 O567 2.117 1_655 S
C542 O564 1.234 . S
C542 O565 1.283 1_455 S
C543 O555 1.281 1_655 S
C543 O556 1.236 . S
C544 O566 1.240 . S
C544 O567 1.264 . S
O545 Mn540 2.095 1_655 S
O545 C554 1.250 . S
O546 Mn541 2.121 . S
O546 C554 1.258 . S
C547 N548 1.326 . S
C547 C551 1.460 . S
C547 H553 0.929 . S
N548 Mn541 2.257 . S
N548 C547 1.326 . S
N548 C552 1.362 . S
C549 C550 1.258 . S
C549 C552 1.431 . S
C549 C569 1.449 . S
C550 C549 1.258 . S
C550 C551 1.477 . S
C550 H570 0.931 . S
C551 C547 1.460 . S
C551 C550 1.477 . S
C551 H571 0.930 . S
C552 N548 1.362 . S
C552 C549 1.431 . S
C552 C562 1.476 1_655 S
H553 C547 0.929 . S
C554 O545 1.250 . S
C554 O546 1.258 . S
O555 Mn540 2.162 . S
O555 C543 1.281 1_455 S
O556 Mn540 2.297 1_655 S
O556 C543 1.236 . S
N557 Mn541 2.282 1_455 S
N557 C558 1.328 . S
N557 C562 1.318 . S
C558 N557 1.328 . S
C558 C559 1.457 . S
C558 H563 0.929 . S
C559 C558 1.457 . S
C559 C560 1.291 . S
C559 H572 0.931 . S
C560 C559 1.291 . S
C560 C561 1.373 . S
C560 H573 0.929 . S
C561 C560 1.373 . S
C561 C562 1.396 . S
C561 C568 1.403 . S
C562 C552 1.476 1_455 S
C562 N557 1.318 . S
C562 C561 1.396 . S
H563 C558 0.929 . S
O564 Mn540 2.385 . S
O564 C542 1.234 . S
O565 Mn540 2.209 1_655 S
O565 Mn541 2.215 . S
O565 C542 1.283 1_655 S
O566 Mn540 2.094 . S
O566 C544 1.240 . S
O567 Mn541 2.117 1_455 S
O567 C544 1.264 . S
C568 C561 1.403 . S
C568 C569 1.399 1_455 S
C568 H574 0.929 . S
C569 C549 1.449 . S
C569 C568 1.399 1_655 S
C569 H575 0.930 . S
H570 C550 0.931 . S
H571 C551 0.930 . S
H572 C559 0.931 . S
H573 C560 0.929 . S
H574 C568 0.929 . S
H575 C569 0.930 . S
Mn576 O581 2.095 . S
Mn576 O591 2.162 . S
Mn576 O592 2.297 . S
Mn576 O600 2.385 . S
Mn576 O601 2.209 . S
Mn576 O602 2.094 . S
Mn577 O582 2.121 . S
Mn577 N584 2.257 . S
Mn577 N593 2.282 . S
Mn577 O601 2.215 . S
Mn577 O603 2.117 . S
C578 O600 1.234 . S
C578 O601 1.283 . S
C579 O591 1.281 . S
C579 O592 1.236 . S
C580 O602 1.240 . S
C580 O603 1.264 . S
O581 Mn576 2.095 . S
O581 C590 1.250 . S
O582 Mn577 2.121 . S
O582 C590 1.258 . S
C583 N584 1.326 . S
C583 C587 1.460 . S
C583 H589 0.929 . S
N584 Mn577 2.257 . S
N584 C583 1.326 . S
N584 C588 1.362 . S
C585 C586 1.258 . S
C585 C588 1.431 . S
C585 C605 1.449 . S
C586 C585 1.258 . S
C586 C587 1.477 . S
C586 H606 0.931 . S
C587 C583 1.460 . S
C587 C586 1.477 . S
C587 H607 0.930 . S
C588 N584 1.362 . S
C588 C585 1.431 . S
C588 C598 1.476 . S
H589 C583 0.929 . S
C590 O581 1.250 . S
C590 O582 1.258 . S
O591 Mn576 2.162 . S
O591 C579 1.281 . S
O592 Mn576 2.297 . S
O592 C579 1.236 . S
N593 Mn577 2.282 . S
N593 C594 1.328 . S
N593 C598 1.318 . S
C594 N593 1.328 . S
C594 C595 1.457 . S
C594 H599 0.929 . S
C595 C594 1.457 . S
C595 C596 1.291 . S
C595 H608 0.931 . S
C596 C595 1.291 . S
C596 C597 1.373 . S
C596 H609 0.929 . S
C597 C596 1.373 . S
C597 C598 1.396 . S
C597 C604 1.403 . S
C598 C588 1.476 . S
C598 N593 1.318 . S
C598 C597 1.396 . S
H599 C594 0.929 . S
O600 Mn576 2.385 . S
O600 C578 1.234 . S
O601 Mn576 2.209 . S
O601 Mn577 2.215 . S
O601 C578 1.283 . S
O602 Mn576 2.094 . S
O602 C580 1.240 . S
O603 Mn577 2.117 . S
O603 C580 1.264 . S
C604 C597 1.403 . S
C604 C605 1.399 . S
C604 H610 0.929 . S
C605 C585 1.449 . S
C605 C604 1.399 . S
C605 H611 0.930 . S
H606 C586 0.931 . S
H607 C587 0.930 . S
H608 C595 0.931 . S
H609 C596 0.929 . S
H610 C604 0.929 . S
H611 C605 0.930 . S
Mn612 O617 2.095 1_565 S
Mn612 O627 2.162 . S
Mn612 O628 2.297 1_565 S
Mn612 O636 2.385 . S
Mn612 O637 2.209 1_565 S
Mn612 O638 2.094 . S
Mn613 O618 2.121 . S
Mn613 N620 2.257 . S
Mn613 N629 2.282 1_545 S
Mn613 O637 2.215 . S
Mn613 O639 2.117 1_545 S
C614 O636 1.234 . S
C614 O637 1.283 1_565 S
C615 O627 1.281 1_545 S
C615 O628 1.236 . S
C616 O638 1.240 . S
C616 O639 1.264 . S
O617 Mn612 2.095 1_545 S
O617 C626 1.250 . S
O618 Mn613 2.121 . S
O618 C626 1.258 . S
C619 N620 1.326 . S
C619 C623 1.460 . S
C619 H625 0.929 . S
N620 Mn613 2.257 . S
N620 C619 1.326 . S
N620 C624 1.362 . S
C621 C622 1.258 . S
C621 C624 1.431 . S
C621 C641 1.449 . S
C622 C621 1.258 . S
C622 C623 1.477 . S
C622 H642 0.931 . S
C623 C619 1.460 . S
C623 C622 1.477 . S
C623 H643 0.930 . S
C624 N620 1.362 . S
C624 C621 1.431 . S
C624 C634 1.476 1_545 S
H625 C619 0.929 . S
C626 O617 1.250 . S
C626 O618 1.258 . S
O627 Mn612 2.162 . S
O627 C615 1.281 1_565 S
O628 Mn612 2.297 1_545 S
O628 C615 1.236 . S
N629 Mn613 2.282 1_565 S
N629 C630 1.328 . S
N629 C634 1.318 . S
C630 N629 1.328 . S
C630 C631 1.457 . S
C630 H635 0.929 . S
C631 C630 1.457 . S
C631 C632 1.291 . S
C631 H644 0.931 . S
C632 C631 1.291 . S
C632 C633 1.373 . S
C632 H645 0.929 . S
C633 C632 1.373 . S
C633 C634 1.396 . S
C633 C640 1.403 . S
C634 C624 1.476 1_565 S
C634 N629 1.318 . S
C634 C633 1.396 . S
H635 C630 0.929 . S
O636 Mn612 2.385 . S
O636 C614 1.234 . S
O637 Mn612 2.209 1_545 S
O637 Mn613 2.215 . S
O637 C614 1.283 1_545 S
O638 Mn612 2.094 . S
O638 C616 1.240 . S
O639 Mn613 2.117 1_565 S
O639 C616 1.264 . S
C640 C633 1.403 . S
C640 C641 1.399 1_565 S
C640 H646 0.929 . S
C641 C621 1.449 . S
C641 C640 1.399 1_545 S
C641 H647 0.930 . S
H642 C622 0.931 . S
H643 C623 0.930 . S
H644 C631 0.931 . S
H645 C632 0.929 . S
H646 C640 0.929 . S
H647 C641 0.930 . S
C648 C649 1.387 1_565 S
C648 H652 0.950 . S
C648 C657 1.410 . S
C649 C648 1.387 1_545 S
C649 C651 1.405 . S
H650 C657 0.950 . S
C651 C649 1.405 . S
C651 C653 1.372 1_554 S
C651 H655 0.950 . S
H652 C648 0.950 . S
C653 C651 1.372 1_556 S
C653 C654 1.387 1_545 S
C653 H656 0.950 . S
C654 C653 1.387 1_565 S
C654 C657 1.368 1_556 S
H655 C651 0.950 . S
H656 C653 0.950 . S
C657 C648 1.410 . S
C657 H650 0.950 . S
C657 C654 1.368 1_554 S
C658 C659 1.387 1_455 S
C658 H662 0.950 . S
C658 C667 1.390 . S
C659 C658 1.387 1_655 S
C659 C661 1.387 1_554 S
H660 C667 0.950 . S
C661 C659 1.387 1_556 S
C661 C663 1.390 . S
C661 H665 0.950 . S
H662 C658 0.950 . S
C663 C661 1.390 . S
C663 C664 1.387 . S
C663 H666 0.950 . S
C664 C663 1.387 . S
C664 C667 1.387 1_656 S
H665 C661 0.950 . S
H666 C663 0.950 . S
C667 C658 1.390 . S
C667 H660 0.950 . S
C667 C664 1.387 1_454 S
C668 C669 1.387 . S
C668 H672 0.950 . S
C668 C677 1.390 . S
C669 C668 1.387 . S
C669 C671 1.387 1_556 S
H670 C677 0.950 . S
C671 C669 1.387 1_554 S
C671 C673 1.390 . S
C671 H675 0.950 . S
H672 C668 0.950 . S
C673 C671 1.390 . S
C673 C674 1.387 . S
C673 H676 0.950 . S
C674 C673 1.387 . S
C674 C677 1.387 1_554 S
H675 C671 0.950 . S
H676 C673 0.950 . S
C677 C668 1.390 . S
C677 H670 0.950 . S
C677 C674 1.387 1_556 S
C678 C679 1.387 . S
C678 H682 0.950 . S
C678 C687 1.390 . S
C679 C678 1.387 . S
C679 C681 1.387 . S
H680 C687 0.950 . S
C681 C679 1.387 . S
C681 C683 1.390 . S
C681 H685 0.950 . S
H682 C678 0.950 . S
C683 C681 1.390 . S
C683 C684 1.387 . S
C683 H686 0.950 . S
C684 C683 1.387 . S
C684 C687 1.387 . S
H685 C681 0.950 . S
H686 C683 0.950 . S
C687 C678 1.390 . S
C687 H680 0.950 . S
C687 C684 1.387 . S
C688 C689 1.387 . S
C688 H692 0.950 . S
C688 C697 1.390 . S
C689 C688 1.387 . S
C689 C691 1.387 . S
H690 C697 0.950 . S
C691 C689 1.387 . S
C691 C693 1.390 . S
C691 H695 0.950 . S
H692 C688 0.950 . S
C693 C691 1.390 . S
C693 C694 1.387 . S
C693 H696 0.950 . S
C694 C693 1.387 . S
C694 C697 1.387 . S
H695 C691 0.950 . S
H696 C693 0.950 . S
C697 C688 1.390 . S
C697 H690 0.950 . S
C697 C694 1.387 . S
C698 C699 1.387 . S
C698 H702 0.950 . S
C698 C707 1.390 . S
C699 C698 1.387 . S
C699 C701 1.387 . S
H700 C707 0.950 . S
C701 C699 1.387 . S
C701 C703 1.390 . S
C701 H705 0.950 . S
H702 C698 0.950 . S
C703 C701 1.390 . S
C703 C704 1.387 . S
C703 H706 0.950 . S
C704 C703 1.387 . S
C704 C707 1.387 . S
H705 C701 0.950 . S
H706 C703 0.950 . S
C707 C698 1.390 . S
C707 H700 0.950 . S
C707 C704 1.387 . S
C708 C709 1.387 . S
C708 H712 0.950 . S
C708 C717 1.390 . S
C709 C708 1.387 . S
C709 C711 1.387 . S
H710 C717 0.950 . S
C711 C709 1.387 . S
C711 C713 1.390 . S
C711 H715 0.950 . S
H712 C708 0.950 . S
C713 C711 1.390 . S
C713 C714 1.387 . S
C713 H716 0.950 . S
C714 C713 1.387 . S
C714 C717 1.387 . S
H715 C711 0.950 . S
H716 C713 0.950 . S
C717 C708 1.390 . S
C717 H710 0.950 . S
C717 C714 1.387 . S
C718 C719 1.387 . S
C718 H722 0.950 . S
C718 C727 1.390 . S
C719 C718 1.387 . S
C719 C721 1.387 . S
H720 C727 0.950 . S
C721 C719 1.387 . S
C721 C723 1.390 . S
C721 H725 0.950 . S
H722 C718 0.950 . S
C723 C721 1.390 . S
C723 C724 1.387 . S
C723 H726 0.950 . S
C724 C723 1.387 . S
C724 C727 1.387 . S
H725 C721 0.950 . S
H726 C723 0.950 . S
C727 C718 1.390 . S
C727 H720 0.950 . S
C727 C724 1.387 . S
C728 C729 1.387 . S
C728 H732 0.950 . S
C728 C737 1.390 . S
C729 C728 1.387 . S
C729 C731 1.387 . S
H730 C737 0.950 . S
C731 C729 1.387 . S
C731 C733 1.390 . S
C731 H735 0.950 . S
H732 C728 0.950 . S
C733 C731 1.390 . S
C733 C734 1.387 . S
C733 H736 0.950 . S
C734 C733 1.387 . S
C734 C737 1.387 . S
H735 C731 0.950 . S
H736 C733 0.950 . S
C737 C728 1.390 . S
C737 H730 0.950 . S
C737 C734 1.387 . S
C738 C739 1.387 . S
C738 H742 0.950 . S
C738 C747 1.390 . S
C739 C738 1.387 . S
C739 C741 1.387 . S
H740 C747 0.950 . S
C741 C739 1.387 . S
C741 C743 1.390 . S
C741 H745 0.950 . S
H742 C738 0.950 . S
C743 C741 1.390 . S
C743 C744 1.387 . S
C743 H746 0.950 . S
C744 C743 1.387 . S
C744 C747 1.387 . S
H745 C741 0.950 . S
H746 C743 0.950 . S
C747 C738 1.390 . S
C747 H740 0.950 . S
C747 C744 1.387 . S
C748 C749 1.387 . S
C748 H752 0.950 . S
C748 C757 1.390 . S
C749 C748 1.387 . S
C749 C751 1.387 . S
H750 C757 0.950 . S
C751 C749 1.387 . S
C751 C753 1.390 . S
C751 H755 0.950 . S
H752 C748 0.950 . S
C753 C751 1.390 . S
C753 C754 1.387 . S
C753 H756 0.950 . S
C754 C753 1.387 . S
C754 C757 1.387 . S
H755 C751 0.950 . S
H756 C753 0.950 . S
C757 C748 1.390 . S
C757 H750 0.950 . S
C757 C754 1.387 . S
C758 C759 1.387 . S
C758 H762 0.950 . S
C758 C767 1.390 . S
C759 C758 1.387 . S
C759 C761 1.387 . S
H760 C767 0.950 . S
C761 C759 1.387 . S
C761 C763 1.390 . S
C761 H765 0.950 . S
H762 C758 0.950 . S
C763 C761 1.390 . S
C763 C764 1.387 . S
C763 H766 0.950 . S
C764 C763 1.387 . S
C764 C767 1.387 . S
H765 C761 0.950 . S
H766 C763 0.950 . S
C767 C758 1.390 . S
C767 H760 0.950 . S
C767 C764 1.387 . S
C768 C769 1.387 . S
C768 H772 0.950 . S
C768 C777 1.390 . S
C769 C768 1.387 . S
C769 C771 1.387 . S
H770 C777 0.950 . S
C771 C769 1.387 . S
C771 C773 1.390 . S
C771 H775 0.950 . S
H772 C768 0.950 . S
C773 C771 1.390 . S
C773 C774 1.387 . S
C773 H776 0.950 . S
C774 C773 1.387 . S
C774 C777 1.387 . S
H775 C771 0.950 . S
H776 C773 0.950 . S
C777 C768 1.390 . S
C777 H770 0.950 . S
C777 C774 1.387 . S
C778 C779 1.387 . S
C778 H782 0.950 . S
C778 C787 1.390 . S
C779 C778 1.387 . S
C779 C781 1.387 . S
H780 C787 0.950 . S
C781 C779 1.387 . S
C781 C783 1.390 . S
C781 H785 0.950 . S
H782 C778 0.950 . S
C783 C781 1.390 . S
C783 C784 1.387 . S
C783 H786 0.950 . S
C784 C783 1.387 . S
C784 C787 1.387 . S
H785 C781 0.950 . S
H786 C783 0.950 . S
C787 C778 1.390 . S
C787 H780 0.950 . S
C787 C784 1.387 . S
C788 C789 1.387 . S
C788 H792 0.950 . S
C788 C797 1.390 . S
C789 C788 1.387 . S
C789 C791 1.387 . S
H790 C797 0.950 . S
C791 C789 1.387 . S
C791 C793 1.390 . S
C791 H795 0.950 . S
H792 C788 0.950 . S
C793 C791 1.390 . S
C793 C794 1.387 . S
C793 H796 0.950 . S
C794 C793 1.387 . S
C794 C797 1.387 . S
H795 C791 0.950 . S
H796 C793 0.950 . S
C797 C788 1.390 . S
C797 H790 0.950 . S
C797 C794 1.387 . S
C798 C799 1.387 1_655 S
C798 H802 0.950 . S
C798 C807 1.390 . S
C799 C798 1.387 1_455 S
C799 C801 1.387 . S
H800 C807 0.950 . S
C801 C799 1.387 . S
C801 C803 1.390 . S
C801 H805 0.950 . S
H802 C798 0.950 . S
C803 C801 1.390 . S
C803 C804 1.387 1_455 S
C803 H806 0.950 . S
C804 C803 1.387 1_655 S
C804 C807 1.387 . S
H805 C801 0.950 . S
H806 C803 0.950 . S
C807 C798 1.390 . S
C807 H800 0.950 . S
C807 C804 1.387 . S
C808 C809 1.387 . S
C808 H812 0.950 . S
C808 C817 1.390 . S
C809 C808 1.387 . S
C809 C811 1.387 . S
H810 C817 0.950 . S
C811 C809 1.387 . S
C811 C813 1.390 . S
C811 H815 0.950 . S
H812 C808 0.950 . S
C813 C811 1.390 . S
C813 C814 1.387 . S
C813 H816 0.950 . S
C814 C813 1.387 . S
C814 C817 1.387 . S
H815 C811 0.950 . S
H816 C813 0.950 . S
C817 C808 1.390 . S
C817 H810 0.950 . S
C817 C814 1.387 . S
C818 C819 1.387 . S
C818 H822 0.950 . S
C818 C827 1.390 . S
C819 C818 1.387 . S
C819 C821 1.387 1_545 S
H820 C827 0.950 . S
C821 C819 1.387 1_565 S
C821 C823 1.390 . S
C821 H825 0.950 . S
H822 C818 0.950 . S
C823 C821 1.390 . S
C823 C824 1.387 . S
C823 H826 0.950 . S
C824 C823 1.387 . S
C824 C827 1.387 1_565 S
H825 C821 0.950 . S
H826 C823 0.950 . S
C827 C818 1.390 . S
C827 H820 0.950 . S
C827 C824 1.387 1_545 S
C828 C829 1.387 . S
C828 H832 0.950 . S
C828 C837 1.390 . S
C829 C828 1.387 . S
C829 C831 1.387 1_554 S
H830 C837 0.950 . S
C831 C829 1.387 1_556 S
C831 C833 1.390 . S
C831 H835 0.950 . S
H832 C828 0.950 . S
C833 C831 1.390 . S
C833 C834 1.387 . S
C833 H836 0.950 . S
C834 C833 1.387 . S
C834 C837 1.387 1_556 S
H835 C831 0.950 . S
H836 C833 0.950 . S
C837 C828 1.390 . S
C837 H830 0.950 . S
C837 C834 1.387 1_554 S
C838 C839 1.387 . S
C838 H842 0.950 . S
C838 C847 1.390 . S
C839 C838 1.387 . S
C839 C841 1.387 . S
H840 C847 0.950 . S
C841 C839 1.387 . S
C841 C843 1.390 1_554 S
C841 H845 0.950 . S
H842 C838 0.950 . S
C843 C841 1.390 1_556 S
C843 C844 1.387 . S
C843 H846 0.950 . S
C844 C843 1.387 . S
C844 C847 1.387 1_556 S
H845 C841 0.950 . S
H846 C843 0.950 . S
C847 C838 1.390 . S
C847 H840 0.950 . S
C847 C844 1.387 1_554 S
C848 C849 1.387 1_556 S
C848 H852 0.950 . S
C848 C857 1.390 . S
C849 C848 1.387 1_554 S
C849 C851 1.387 . S
H850 C857 0.950 . S
C851 C849 1.387 . S
C851 C853 1.390 . S
C851 H855 0.950 . S
H852 C848 0.950 . S
C853 C851 1.390 . S
C853 C854 1.387 1_554 S
C853 H856 0.950 . S
C854 C853 1.387 1_556 S
C854 C857 1.387 . S
H855 C851 0.950 . S
H856 C853 0.950 . S
C857 C848 1.390 . S
C857 H850 0.950 . S
C857 C854 1.387 . S
C858 C859 1.387 1_554 S
C858 H862 0.950 . S
C858 C867 1.390 . S
C859 C858 1.387 1_556 S
C859 C861 1.387 . S
H860 C867 0.950 . S
C861 C859 1.387 . S
C861 C863 1.390 . S
C861 H865 0.950 . S
H862 C858 0.950 . S
C863 C861 1.390 . S
C863 C864 1.387 1_556 S
C863 H866 0.950 . S
C864 C863 1.387 1_554 S
C864 C867 1.387 . S
H865 C861 0.950 . S
H866 C863 0.950 . S
C867 C858 1.390 . S
C867 H860 0.950 . S
C867 C864 1.387 . S
C868 C869 1.379 1_556 S
C868 H872 0.943 1_556 S
C868 C877 1.406 . S
C869 C868 1.379 1_554 S
C869 C871 1.387 . S
H870 C877 0.950 . S
C871 C869 1.387 . S
C871 C873 1.390 1_554 S
C871 H875 0.950 . S
H872 C868 0.943 1_554 S
C873 C871 1.390 1_556 S
C873 C874 1.387 . S
C873 H876 0.950 . S
C874 C873 1.387 . S
C874 C877 1.387 . S
H875 C871 0.950 . S
H876 C873 0.950 . S
C877 C868 1.406 . S
C877 H870 0.950 . S
C877 C874 1.387 . S
C878 C879 1.387 . S
C878 H882 0.950 . S
C878 C887 1.390 . S
C879 C878 1.387 . S
C879 C881 1.387 1_556 S
H880 C887 0.950 . S
C881 C879 1.387 1_554 S
C881 C883 1.390 . S
C881 H885 0.950 . S
H882 C878 0.950 . S
C883 C881 1.390 . S
C883 C884 1.387 . S
C883 H886 0.950 . S
C884 C883 1.387 . S
C884 C887 1.387 1_554 S
H885 C881 0.950 . S
H886 C883 0.950 . S
C887 C878 1.390 . S
C887 H880 0.950 . S
C887 C884 1.387 1_556 S
C888 C889 1.387 . S
C888 H892 0.950 . S
C888 C897 1.390 . S
C889 C888 1.387 . S
C889 C891 1.387 . S
H890 C897 0.950 . S
C891 C889 1.387 . S
C891 C893 1.390 . S
C891 H895 0.950 . S
H892 C888 0.950 . S
C893 C891 1.390 . S
C893 C894 1.387 . S
C893 H896 0.950 . S
C894 C893 1.387 . S
C894 C897 1.387 . S
H895 C891 0.950 . S
H896 C893 0.950 . S
C897 C888 1.390 . S
C897 H890 0.950 . S
C897 C894 1.387 . S
C898 C899 1.387 . S
C898 H902 0.950 . S
C898 C907 1.390 . S
C899 C898 1.387 . S
C899 C901 1.387 . S
H900 C907 0.950 . S
C901 C899 1.387 . S
C901 C903 1.390 . S
C901 H905 0.950 . S
H902 C898 0.950 . S
C903 C901 1.390 . S
C903 C904 1.387 . S
C903 H906 0.950 . S
C904 C903 1.387 . S
C904 C907 1.387 . S
H905 C901 0.950 . S
H906 C903 0.950 . S
C907 C898 1.390 . S
C907 H900 0.950 . S
C907 C904 1.387 . S
C908 C909 1.387 . S
C908 H912 0.950 . S
C908 C917 1.390 . S
C909 C908 1.387 . S
C909 C911 1.387 . S
H910 C917 0.950 . S
C911 C909 1.387 . S
C911 C913 1.390 . S
C911 H915 0.950 . S
H912 C908 0.950 . S
C913 C911 1.390 . S
C913 C914 1.387 . S
C913 H916 0.950 . S
C914 C913 1.387 . S
C914 C917 1.387 . S
H915 C911 0.950 . S
H916 C913 0.950 . S
C917 C908 1.390 . S
C917 H910 0.950 . S
C917 C914 1.387 . S
C918 C919 1.387 . S
C918 H922 0.950 . S
C918 C927 1.390 . S
C919 C918 1.387 . S
C919 C921 1.387 . S
H920 C927 0.950 . S
C921 C919 1.387 . S
C921 C923 1.390 . S
C921 H925 0.950 . S
H922 C918 0.950 . S
C923 C921 1.390 . S
C923 C924 1.387 . S
C923 H926 0.950 . S
C924 C923 1.387 . S
C924 C927 1.387 . S
H925 C921 0.950 . S
H926 C923 0.950 . S
C927 C918 1.390 . S
C927 H920 0.950 . S
C927 C924 1.387 . S
C928 C929 1.387 1_565 S
C928 H932 0.950 . S
C928 C937 1.390 . S
C929 C928 1.387 1_545 S
C929 C931 1.387 . S
H930 C937 0.950 . S
C931 C929 1.387 . S
C931 C933 1.390 . S
C931 H935 0.950 . S
H932 C928 0.950 . S
C933 C931 1.390 . S
C933 C934 1.387 . S
C933 H936 0.950 . S
C934 C933 1.387 . S
C934 C937 1.387 1_545 S
H935 C931 0.950 . S
H936 C933 0.950 . S
C937 C928 1.390 . S
C937 H930 0.950 . S
C937 C934 1.387 1_565 S
C938 C939 1.387 . S
C938 H942 0.950 . S
C938 C947 1.390 . S
C939 C938 1.387 . S
C939 C941 1.387 . S
H940 C947 0.950 . S
C941 C939 1.387 . S
C941 C943 1.390 . S
C941 H945 0.955 1_655 S
H942 C938 0.950 . S
C943 C941 1.390 . S
C943 C944 1.387 . S
C943 H946 0.950 1_655 S
C944 C943 1.387 . S
C944 C947 1.387 . S
H945 C941 0.955 1_455 S
H946 C943 0.950 1_455 S
C947 C938 1.390 . S
C947 H940 0.950 . S
C947 C944 1.387 . S
C948 C949 1.387 . S
C948 H952 0.950 . S
C948 C957 1.390 . S
C949 C948 1.387 . S
C949 C951 1.387 . S
H950 C957 0.950 . S
C951 C949 1.387 . S
C951 C953 1.390 . S
C951 H955 0.950 . S
H952 C948 0.950 . S
C953 C951 1.390 . S
C953 C954 1.387 . S
C953 H956 0.950 . S
C954 C953 1.387 . S
C954 C957 1.387 . S
H955 C951 0.950 . S
H956 C953 0.950 . S
C957 C948 1.390 . S
C957 H950 0.950 . S
C957 C954 1.387 . S
C958 C959 1.387 1_545 S
C958 H962 0.950 . S
C958 C967 1.390 . S
C959 C958 1.387 1_565 S
C959 C961 1.387 . S
H960 C967 0.950 . S
C961 C959 1.387 . S
C961 C963 1.390 . S
C961 H965 0.950 . S
H962 C958 0.950 . S
C963 C961 1.390 . S
C963 C964 1.387 . S
C963 H966 0.950 . S
C964 C963 1.387 . S
C964 C967 1.387 1_565 S
H965 C961 0.950 . S
H966 C963 0.950 . S
C967 C958 1.390 . S
C967 H960 0.950 . S
C967 C964 1.387 1_545 S
C968 C969 1.387 . S
C968 H972 0.950 . S
C968 C977 1.390 . S
C969 C968 1.387 . S
C969 C971 1.387 . S
H970 C977 0.950 . S
C971 C969 1.387 . S
C971 C973 1.390 . S
C971 H975 0.950 . S
H972 C968 0.950 . S
C973 C971 1.390 . S
C973 C974 1.387 . S
C973 H976 0.950 . S
C974 C973 1.387 . S
C974 C977 1.387 . S
H975 C971 0.950 . S
H976 C973 0.950 . S
C977 C968 1.390 . S
C977 H970 0.950 . S
C977 C974 1.387 . S
C978 C979 1.387 . S
C978 H982 0.950 . S
C978 C987 1.390 . S
C979 C978 1.387 . S
C979 C981 1.387 . S
H980 C987 0.950 . S
C981 C979 1.387 . S
C981 C983 1.390 . S
C981 H985 0.950 . S
H982 C978 0.950 . S
C983 C981 1.390 . S
C983 C984 1.387 . S
C983 H986 0.950 . S
C984 C983 1.387 . S
C984 C987 1.387 . S
H985 C981 0.950 . S
H986 C983 0.950 . S
C987 C978 1.390 . S
C987 H980 0.950 . S
C987 C984 1.387 . S
C988 C989 1.387 . S
C988 H992 0.950 . S
C988 C997 1.390 . S
C989 C988 1.387 . S
C989 C991 1.387 . S
H990 C997 0.950 . S
C991 C989 1.387 . S
C991 C993 1.390 . S
C991 H995 0.950 . S
H992 C988 0.950 . S
C993 C991 1.390 . S
C993 C994 1.387 . S
C993 H996 0.950 . S
C994 C993 1.387 . S
C994 C997 1.387 . S
H995 C991 0.950 . S
H996 C993 0.950 . S
C997 C988 1.390 . S
C997 H990 0.950 . S
C997 C994 1.387 . S
C998 C999 1.387 . S
C998 H1002 0.950 . S
C998 C1007 1.390 . S
C999 C998 1.387 . S
C999 C1001 1.387 . S
H1000 C1007 0.950 . S
C1001 C999 1.387 . S
C1001 C1003 1.390 . S
C1001 H1005 0.950 . S
H1002 C998 0.950 . S
C1003 C1001 1.390 . S
C1003 C1004 1.387 . S
C1003 H1006 0.950 . S
C1004 C1003 1.387 . S
C1004 C1007 1.387 . S
H1005 C1001 0.950 . S
H1006 C1003 0.950 . S
C1007 C998 1.390 . S
C1007 H1000 0.950 . S
C1007 C1004 1.387 . S
C649 C14 1.692 . S
C654 C122 1.692 . S
C659 C50 1.762 . S
C664 C147 1.933 1_655 S
C669 C194 1.790 . S
C674 C86 1.792 . S
C679 C230 1.683 . S
C684 C338 1.684 . S
C689 C266 1.755 . S
C694 C363 1.926 . S
C699 C410 1.776 . S
C704 C302 1.777 . S
C709 C554 1.679 . S
C714 C446 1.679 . S
C719 C579 1.927 . S
C724 C482 1.754 . S
C729 C626 1.779 . S
C734 C518 1.780 . S
C739 C3 1.736 . S
C744 C327 1.731 . S
C749 C39 1.781 . S
C754 C374 1.569 . S
C759 C399 1.822 . S
C764 C75 1.820 . S
C769 C111 1.732 . S
C774 C435 1.734 . S
C779 C158 1.570 . S
C784 C471 1.783 . S
C789 C183 1.822 . S
C794 C507 1.821 . S
C799 C219 1.752 . S
C804 C543 1.751 . S
C809 C255 1.782 . S
C814 C590 1.572 . S
C819 C615 1.817 . S
C824 C291 1.814 . S
C829 C4 0.800 . S
C834 C148 0.800 . S
C839 C40 0.807 . S
C844 C182 0.812 . S
C849 C76 0.805 . S
C854 C110 0.806 . S
C859 C112 0.720 . S
C864 C38 0.716 . S
C869 C74 0.759 . S
C874 C146 0.756 . S
C879 C184 0.772 . S
C884 C2 0.775 . S
C889 C220 0.817 . S
C894 C364 0.821 . S
C899 C398 0.813 . S
C904 C256 0.812 . S
C909 C326 0.822 . S
C914 C292 0.826 . S
C919 C254 0.719 . S
C924 C328 0.722 . S
C929 C362 0.764 . S
C934 C290 0.760 . S
C939 C400 0.760 . S
C944 C218 0.764 . S
C949 C580 0.802 . S
C954 C436 0.798 . S
C959 C614 0.816 . S
C964 C472 0.812 . S
C969 C508 0.793 . S
C974 C542 0.796 . S
C979 C470 0.736 . S
C984 C544 0.740 . S
C989 C506 0.763 . S
C994 C578 0.759 . S
C999 C434 0.789 . S
C1004 C616 0.788 . S
