# Generated by pormake.
# Topology atn, (4)-cn, num edge types: 1
# Building blocks:
#     Node 0, Type 0, BuildingBlock: ICAMEG_clean_sbu_1, # of connection points: 4
#     Node 1, Type 0, BuildingBlock: ICAMEG_clean_sbu_1, # of connection points: 4
#     Node 2, Type 0, BuildingBlock: ICAMEG_clean_sbu_1, # of connection points: 4
#     Node 3, Type 0, BuildingBlock: ICAMEG_clean_sbu_1, # of connection points: 4
#     Node 4, Type 0, BuildingBlock: ICAMEG_clean_sbu_1, # of connection points: 4
#     Node 5, Type 0, BuildingBlock: ICAMEG_clean_sbu_1, # of connection points: 4
#     Node 6, Type 0, BuildingBlock: ICAMEG_clean_sbu_1, # of connection points: 4
#     Node 7, Type 0, BuildingBlock: ICAMEG_clean_sbu_1, # of connection points: 4
#     Node 8, Type 0, BuildingBlock: ICAMEG_clean_sbu_1, # of connection points: 4
#     Node 9, Type 0, BuildingBlock: ICAMEG_clean_sbu_1, # of connection points: 4
#     Node 10, Type 0, BuildingBlock: ICAMEG_clean_sbu_1, # of connection points: 4
#     Node 11, Type 0, BuildingBlock: ICAMEG_clean_sbu_1, # of connection points: 4
#     Node 12, Type 0, BuildingBlock: ICAMEG_clean_sbu_1, # of connection points: 4
#     Node 13, Type 0, BuildingBlock: ICAMEG_clean_sbu_1, # of connection points: 4
#     Node 14, Type 0, BuildingBlock: ICAMEG_clean_sbu_1, # of connection points: 4
#     Node 15, Type 0, BuildingBlock: ICAMEG_clean_sbu_1, # of connection points: 4
#     Edge 16, Type (0, 0), BuildingBlock: OJICUG_clean_linker_0, # of connection points: 2
#     Edge 17, Type (0, 0), BuildingBlock: OJICUG_clean_linker_0, # of connection points: 2
#     Edge 18, Type (0, 0), BuildingBlock: OJICUG_clean_linker_0, # of connection points: 2
#     Edge 19, Type (0, 0), BuildingBlock: OJICUG_clean_linker_0, # of connection points: 2
#     Edge 20, Type (0, 0), BuildingBlock: OJICUG_clean_linker_0, # of connection points: 2
#     Edge 21, Type (0, 0), BuildingBlock: OJICUG_clean_linker_0, # of connection points: 2
#     Edge 22, Type (0, 0), BuildingBlock: OJICUG_clean_linker_0, # of connection points: 2
#     Edge 23, Type (0, 0), BuildingBlock: OJICUG_clean_linker_0, # of connection points: 2
#     Edge 24, Type (0, 0), BuildingBlock: OJICUG_clean_linker_0, # of connection points: 2
#     Edge 25, Type (0, 0), BuildingBlock: OJICUG_clean_linker_0, # of connection points: 2
#     Edge 26, Type (0, 0), BuildingBlock: OJICUG_clean_linker_0, # of connection points: 2
#     Edge 27, Type (0, 0), BuildingBlock: OJICUG_clean_linker_0, # of connection points: 2
#     Edge 28, Type (0, 0), BuildingBlock: OJICUG_clean_linker_0, # of connection points: 2
#     Edge 29, Type (0, 0), BuildingBlock: OJICUG_clean_linker_0, # of connection points: 2
#     Edge 30, Type (0, 0), BuildingBlock: OJICUG_clean_linker_0, # of connection points: 2
#     Edge 31, Type (0, 0), BuildingBlock: OJICUG_clean_linker_0, # of connection points: 2
#     Edge 32, Type (0, 0), BuildingBlock: OJICUG_clean_linker_0, # of connection points: 2
#     Edge 33, Type (0, 0), BuildingBlock: OJICUG_clean_linker_0, # of connection points: 2
#     Edge 34, Type (0, 0), BuildingBlock: OJICUG_clean_linker_0, # of connection points: 2
#     Edge 35, Type (0, 0), BuildingBlock: OJICUG_clean_linker_0, # of connection points: 2
#     Edge 36, Type (0, 0), BuildingBlock: OJICUG_clean_linker_0, # of connection points: 2
#     Edge 37, Type (0, 0), BuildingBlock: OJICUG_clean_linker_0, # of connection points: 2
#     Edge 38, Type (0, 0), BuildingBlock: OJICUG_clean_linker_0, # of connection points: 2
#     Edge 39, Type (0, 0), BuildingBlock: OJICUG_clean_linker_0, # of connection points: 2
#     Edge 40, Type (0, 0), BuildingBlock: OJICUG_clean_linker_0, # of connection points: 2
#     Edge 41, Type (0, 0), BuildingBlock: OJICUG_clean_linker_0, # of connection points: 2
#     Edge 42, Type (0, 0), BuildingBlock: OJICUG_clean_linker_0, # of connection points: 2
#     Edge 43, Type (0, 0), BuildingBlock: OJICUG_clean_linker_0, # of connection points: 2
#     Edge 44, Type (0, 0), BuildingBlock: OJICUG_clean_linker_0, # of connection points: 2
#     Edge 45, Type (0, 0), BuildingBlock: OJICUG_clean_linker_0, # of connection points: 2
#     Edge 46, Type (0, 0), BuildingBlock: OJICUG_clean_linker_0, # of connection points: 2
#     Edge 47, Type (0, 0), BuildingBlock: OJICUG_clean_linker_0, # of connection points: 2
# Relax obj value: 0.029
# Max RMSD: 0.060
# Mean RMSD: 0.060
data_MOF--net-atn--node1-ICAMEG_clean_sbu_1--edge1-OJICUG_clean_linker_0
_symmetry_space_group_name_H-M    P1
_symmetry_Int_Tables_number       1
_symmetry_cell_setting            triclinic
loop_
_symmetry_equiv_pos_as_xyz
'x, y, z'
_cell_length_a     45.240844
_cell_length_b     45.268906
_cell_length_c     22.471934
_cell_angle_alpha  90.005943
_cell_angle_beta   89.997084
_cell_angle_gamma 90.000154
loop_
_atom_site_label
_atom_site_type_symbol
_atom_site_fract_x
_atom_site_fract_y
_atom_site_fract_z
_atom_type_partial_charge
Co0 Co 0.17964 0.35029 0.00615 0.0
Co1 Co 0.23484 0.3992 0.04823 0.0
O2 O 0.20126 0.38777 0.99811 0.0
C3 C 0.20003 0.35093 0.88248 0.0
O4 O 0.22561 0.36004 0.90294 0.0
C5 C 0.19579 0.45377 0.04005 0.0
O6 O 0.17184 0.43756 0.03585 0.0
O7 O 0.21173 0.38941 0.12215 0.0
O8 O 0.18041 0.35339 0.09447 0.0
H9 H 0.30583 0.38516 0.21758 0.0
H10 H 0.15515 0.39668 0.92718 0.0
O11 O 0.1786 0.3461 0.9178 0.0
H12 H 0.0789 0.38008 0.0804 0.0
H13 H 0.10146 0.27626 0.94967 0.0
H14 H 0.18467 0.29787 0.08461 0.0
H15 H 0.12533 0.35157 0.08162 0.0
H16 H 0.12869 0.32332 0.94181 0.0
O17 O 0.22076 0.44162 0.05023 0.0
H18 H 0.26467 0.3715 0.15105 0.0
H19 H 0.27555 0.45136 0.05442 0.0
H20 H 0.15789 0.25064 0.09436 0.0
H21 H 0.10884 0.42539 0.92376 0.0
H22 H 0.11597 0.23959 0.02655 0.0
H23 H 0.07038 0.41725 1.00092 0.0
O24 O 0.21702 0.32711 0.00722 0.0
H25 H 0.24833 0.44216 0.84356 0.0
H26 H 0.2969 0.38886 0.00787 0.0
H27 H 0.32501 0.39962 0.91644 0.0
H28 H 0.30072 0.42655 0.83347 0.0
H29 H 0.22094 0.43046 0.93528 0.0
H30 H 0.31658 0.46605 0.12024 0.0
H31 H 0.33208 0.43276 0.20239 0.0
O32 O 0.25146 0.35788 0.04402 0.0
C33 C 0.19234 0.36964 0.13405 0.0
C34 C 0.29933 0.39982 0.18186 0.0
C35 C 0.30532 0.44525 0.12732 0.0
N36 N 0.26775 0.41055 0.09876 0.0
C37 C 0.2761 0.39217 0.14396 0.0
C38 C 0.28196 0.43688 0.09035 0.0
C39 C 0.31402 0.42655 0.17336 0.0
C40 C 0.13839 0.39281 0.96056 0.0
N41 N 0.14296 0.37248 0.00455 0.0
C42 C 0.11227 0.40923 0.95855 0.0
C43 C 0.09073 0.40468 1.00192 0.0
C44 C 0.09551 0.38387 0.04658 0.0
C45 C 0.12192 0.36788 0.04721 0.0
C46 C 0.11965 0.28085 0.97957 0.0
C47 C 0.16632 0.29329 0.05521 0.0
C48 C 0.13518 0.30743 0.97526 0.0
N49 N 0.15808 0.31342 0.01305 0.0
C50 C 0.1513 0.26648 0.06082 0.0
C51 C 0.1278 0.26029 0.02272 0.0
C52 C 0.24327 0.33264 0.0244 0.0
C53 C 0.25916 0.4304 0.87937 0.0
C54 C 0.28606 0.4002 0.9717 0.0
C55 C 0.30215 0.40644 0.92017 0.0
C56 C 0.28853 0.42159 0.8737 0.0
N57 N 0.2572 0.40873 0.97687 0.0
C58 C 0.24378 0.42378 0.93158 0.0
Co59 Co 0.68243 0.17949 0.00709 0.0
Co60 Co 0.63368 0.23483 0.04927 0.0
O61 O 0.64498 0.20121 0.99916 0.0
C62 C 0.68171 0.19991 0.88345 0.0
O63 O 0.67259 0.22547 0.90392 0.0
C64 C 0.57903 0.19589 0.04143 0.0
O65 O 0.59528 0.17201 0.03659 0.0
O66 O 0.64353 0.21176 0.12319 0.0
O67 O 0.67932 0.18019 0.0954 0.0
H68 H 0.64812 0.30586 0.21838 0.0
H69 H 0.63592 0.15521 0.92804 0.0
O70 O 0.6866 0.1785 0.91876 0.0
H71 H 0.65236 0.07881 0.08091 0.0
H72 H 0.75629 0.10121 0.95029 0.0
H73 H 0.73489 0.18429 0.08558 0.0
H74 H 0.68101 0.12513 0.08232 0.0
H75 H 0.70927 0.12855 0.94254 0.0
O76 O 0.59121 0.22083 0.0517 0.0
H77 H 0.6616 0.26463 0.1519 0.0
H78 H 0.58162 0.27568 0.05555 0.0
H79 H 0.78207 0.15739 0.09523 0.0
H80 H 0.60708 0.10901 0.92442 0.0
H81 H 0.79301 0.11553 0.02723 0.0
H82 H 0.61514 0.07047 1.00141 0.0
O83 O 0.70574 0.21677 0.00826 0.0
H84 H 0.59035 0.24825 0.84488 0.0
H85 H 0.64418 0.29676 0.0086 0.0
H86 H 0.63333 0.3248 0.91714 0.0
H87 H 0.60614 0.30054 0.83446 0.0
H88 H 0.60213 0.22093 0.93662 0.0
H89 H 0.56711 0.31677 0.12132 0.0
H90 H 0.60055 0.33221 0.2033 0.0
O91 O 0.67504 0.25135 0.04474 0.0
C92 C 0.66317 0.19222 0.13501 0.0
C93 C 0.63339 0.29938 0.18274 0.0
C94 C 0.5879 0.30546 0.12836 0.0
N95 N 0.62247 0.26779 0.09978 0.0
C96 C 0.64094 0.2761 0.14487 0.0
C97 C 0.59616 0.28206 0.09142 0.0
C98 C 0.60668 0.31413 0.17431 0.0
C99 C 0.63976 0.13842 0.96135 0.0
N100 N 0.66011 0.14289 0.00536 0.0
C101 C 0.62327 0.11236 0.95923 0.0
C102 C 0.62776 0.09077 0.0025 0.0
C103 C 0.64861 0.09546 0.04717 0.0
C104 C 0.66467 0.12181 0.04792 0.0
C105 C 0.75174 0.11937 0.98026 0.0
C106 C 0.73941 0.16596 0.05611 0.0
C107 C 0.72519 0.13496 0.97602 0.0
N108 N 0.71925 0.15783 0.01391 0.0
C109 C 0.7662 0.15088 0.06166 0.0
C110 C 0.77234 0.12741 0.02345 0.0
C111 C 0.70028 0.24305 0.02524 0.0
C112 C 0.60222 0.25907 0.88056 0.0
C113 C 0.6327 0.28594 0.97256 0.0
C114 C 0.62643 0.30199 0.92101 0.0
C115 C 0.61113 0.28839 0.8747 0.0
N116 N 0.62407 0.25714 0.97791 0.0
C117 C 0.60888 0.24373 0.93279 0.0
Co118 Co 0.85399 0.68194 0.0068 0.0
Co119 Co 0.7986 0.63326 0.04911 0.0
O120 O 0.83222 0.64452 0.99891 0.0
C121 C 0.83365 0.68123 0.88307 0.0
O122 O 0.80805 0.6721 0.9034 0.0
C123 C 0.83748 0.57855 0.04124 0.0
O124 O 0.8614 0.59475 0.03633 0.0
O125 O 0.82173 0.6431 0.12301 0.0
O126 O 0.85325 0.67889 0.0951 0.0
H127 H 0.72762 0.64782 0.21834 0.0
H128 H 0.87827 0.63539 0.9279 0.0
O129 O 0.85503 0.68607 0.91848 0.0
H130 H 0.95467 0.65185 0.08085 0.0
H131 H 0.93242 0.75565 0.95007 0.0
H132 H 0.84918 0.73442 0.08516 0.0
H133 H 0.90835 0.68053 0.08212 0.0
H134 H 0.90502 0.70869 0.94233 0.0
O135 O 0.81254 0.59077 0.05152 0.0
H136 H 0.76886 0.66122 0.15178 0.0
H137 H 0.75767 0.58128 0.05551 0.0
H138 H 0.87612 0.78155 0.09479 0.0
H139 H 0.92447 0.60652 0.92443 0.0
H140 H 0.91807 0.79241 0.02689 0.0
H141 H 0.96301 0.61458 1.00146 0.0
O142 O 0.81669 0.70526 0.00787 0.0
H143 H 0.785 0.58995 0.84476 0.0
H144 H 0.73662 0.64384 0.00857 0.0
H145 H 0.7085 0.63302 0.91718 0.0
H146 H 0.73269 0.6058 0.83446 0.0
H147 H 0.8124 0.6017 0.93644 0.0
H148 H 0.71655 0.56685 0.12136 0.0
H149 H 0.70118 0.60031 0.20334 0.0
O150 O 0.78212 0.67462 0.0446 0.0
C151 C 0.84125 0.66277 0.13476 0.0
C152 C 0.73407 0.63308 0.1827 0.0
C153 C 0.7279 0.58761 0.12836 0.0
N154 N 0.76563 0.62211 0.09969 0.0
C155 C 0.75735 0.64059 0.14479 0.0
C156 C 0.75131 0.59583 0.09138 0.0
C157 C 0.71927 0.6064 0.17431 0.0
C158 C 0.89506 0.63924 0.96123 0.0
N159 N 0.89059 0.65961 0.00518 0.0
C160 C 0.92112 0.62272 0.95919 0.0
C161 C 0.94271 0.62722 0.00248 0.0
C162 C 0.93803 0.64809 0.04709 0.0
C163 C 0.91168 0.66417 0.04776 0.0
C164 C 0.91422 0.75115 0.97999 0.0
C165 C 0.86754 0.73891 0.05573 0.0
C166 C 0.8986 0.72462 0.97576 0.0
N167 N 0.87569 0.71873 0.0136 0.0
C168 C 0.88265 0.76567 0.06127 0.0
C169 C 0.90616 0.77176 0.02312 0.0
C170 C 0.79041 0.69982 0.02497 0.0
C171 C 0.7742 0.60184 0.88046 0.0
C172 C 0.74741 0.63235 0.97251 0.0
C173 C 0.73131 0.62609 0.92101 0.0
C174 C 0.74488 0.61078 0.87467 0.0
N175 N 0.77622 0.62368 0.9778 0.0
C176 C 0.78959 0.60848 0.93266 0.0
Co177 Co 0.35068 0.85347 0.00553 0.0
Co178 Co 0.39912 0.79842 0.04869 0.0
O179 O 0.38806 0.83177 0.99778 0.0
C180 C 0.35156 0.8337 0.88159 0.0
O181 O 0.36017 0.80792 0.90182 0.0
C182 C 0.45435 0.83646 0.03963 0.0
O183 O 0.43842 0.86067 0.03813 0.0
O184 O 0.39071 0.82251 0.12189 0.0
O185 O 0.35331 0.85217 0.09405 0.0
H186 H 0.38573 0.72926 0.22127 0.0
H187 H 0.39778 0.87814 0.92853 0.0
O188 O 0.34697 0.85507 0.91715 0.0
H189 H 0.38036 0.95363 0.08281 0.0
H190 H 0.27716 0.93218 0.94946 0.0
H191 H 0.29775 0.84805 0.08254 0.0
H192 H 0.35157 0.90739 0.08213 0.0
H193 H 0.32422 0.90491 0.94198 0.0
O194 O 0.44191 0.81149 0.04808 0.0
H195 H 0.37223 0.77036 0.15451 0.0
H196 H 0.45012 0.75634 0.05285 0.0
H197 H 0.2505 0.87486 0.09191 0.0
H198 H 0.4268 0.92427 0.92704 0.0
H199 H 0.23997 0.91726 0.02503 0.0
H200 H 0.41824 0.96235 0.00473 0.0
O201 O 0.32747 0.81616 0.00504 0.0
H202 H 0.44059 0.78151 0.84384 0.0
H203 H 0.38478 0.73696 0.00938 0.0
H204 H 0.3936 0.70791 0.91838 0.0
H205 H 0.4218 0.73015 0.83479 0.0
H206 H 0.43076 0.80993 0.93519 0.0
H207 H 0.46459 0.71528 0.11878 0.0
H208 H 0.43222 0.70142 0.20358 0.0
O209 O 0.35734 0.78285 0.04793 0.0
C210 C 0.37023 0.84119 0.13366 0.0
C211 C 0.39999 0.73504 0.18439 0.0
C212 C 0.44428 0.72724 0.12694 0.0
N213 N 0.4103 0.76569 0.09971 0.0
C214 C 0.39243 0.75825 0.14637 0.0
C215 C 0.43602 0.7506 0.08989 0.0
C216 C 0.42609 0.71946 0.17449 0.0
C217 C 0.39374 0.89473 0.96215 0.0
N218 N 0.37302 0.89006 0.00537 0.0
C219 C 0.41032 0.92075 0.96123 0.0
C220 C 0.40554 0.94209 0.0049 0.0
C221 C 0.38432 0.93719 0.04876 0.0
C222 C 0.36819 0.91089 0.04832 0.0
C223 C 0.28152 0.91379 0.97895 0.0
C224 C 0.2934 0.86661 0.05357 0.0
C225 C 0.30811 0.89824 0.97486 0.0
N226 N 0.31382 0.87508 0.01216 0.0
C227 C 0.26658 0.88164 0.05895 0.0
C228 C 0.26067 0.90541 0.02137 0.0
C229 C 0.33245 0.79043 0.02563 0.0
C230 C 0.4283 0.77155 0.87997 0.0
C231 C 0.39673 0.74692 0.97304 0.0
C232 C 0.40184 0.73029 0.92171 0.0
C233 C 0.41771 0.74276 0.87488 0.0
N234 N 0.40711 0.77518 0.97771 0.0
C235 C 0.42278 0.7875 0.93201 0.0
Co236 Co 0.17955 0.68194 0.00742 0.0
Co237 Co 0.23476 0.63309 0.96519 0.0
O238 O 0.2012 0.64448 0.01541 0.0
C239 C 0.19983 0.68122 0.13118 0.0
O240 O 0.22544 0.67208 0.11087 0.0
C241 C 0.19576 0.57848 0.97334 0.0
O242 O 0.1718 0.59467 0.97739 0.0
O243 O 0.21159 0.64283 0.89133 0.0
O244 O 0.1803 0.67886 0.91912 0.0
H245 H 0.30566 0.64723 0.79569 0.0
H246 H 0.15513 0.63545 0.08626 0.0
O247 O 0.17847 0.68611 0.09574 0.0
H248 H 0.0788 0.65212 0.93327 0.0
H249 H 0.10131 0.75591 0.06392 0.0
H250 H 0.18454 0.73437 0.92899 0.0
H251 H 0.12519 0.68069 0.93208 0.0
H252 H 0.12857 0.70887 0.07177 0.0
O253 O 0.22074 0.59065 0.96324 0.0
H254 H 0.26451 0.66083 0.86231 0.0
H255 H 0.27552 0.58095 0.95884 0.0
H256 H 0.15773 0.78158 0.91925 0.0
H257 H 0.10886 0.60668 0.08965 0.0
H258 H 0.11579 0.79259 0.98706 0.0
H259 H 0.07035 0.61486 0.0126 0.0
O260 O 0.21692 0.70514 0.00638 0.0
H261 H 0.24844 0.5901 0.16979 0.0
H262 H 0.29684 0.64348 0.00536 0.0
H263 H 0.32503 0.63273 0.0967 0.0
H264 H 0.30082 0.60576 0.17973 0.0
H265 H 0.22097 0.6018 0.07816 0.0
H266 H 0.31654 0.56633 0.89293 0.0
H267 H 0.33196 0.59965 0.81079 0.0
O268 O 0.25134 0.67442 0.96936 0.0
C269 C 0.19217 0.66259 0.87951 0.0
C270 C 0.29919 0.63255 0.8314 0.0
C271 C 0.30525 0.58712 0.88589 0.0
N272 N 0.26766 0.62177 0.91456 0.0
C273 C 0.27596 0.64017 0.86936 0.0
C274 C 0.28189 0.59545 0.92291 0.0
C275 C 0.31391 0.60584 0.83985 0.0
C276 C 0.13836 0.63934 0.05292 0.0
N277 N 0.14288 0.65971 0.00901 0.0
C278 C 0.11226 0.62289 0.05492 0.0
C279 C 0.09069 0.62745 0.01161 0.0
C280 C 0.09543 0.64832 0.96704 0.0
C281 C 0.12181 0.66434 0.96641 0.0
C282 C 0.1195 0.75134 0.03403 0.0
C283 C 0.16618 0.73893 0.95839 0.0
C284 C 0.13505 0.72476 0.03834 0.0
N285 N 0.15796 0.71879 1.00054 0.0
C286 C 0.15115 0.76573 0.95279 0.0
C287 C 0.12764 0.77191 0.99089 0.0
C288 C 0.24316 0.69965 0.98909 0.0
C289 C 0.25923 0.60189 0.13396 0.0
C290 C 0.28604 0.63213 0.04157 0.0
C291 C 0.30218 0.62589 0.09304 0.0
C292 C 0.2886 0.61072 0.13955 0.0
N293 N 0.25719 0.62358 0.03648 0.0
C294 C 0.24381 0.6085 0.0818 0.0
Co295 Co 0.35085 0.1789 0.00789 0.0
Co296 Co 0.39923 0.23401 0.96498 0.0
O297 O 0.38815 0.20068 0.01583 0.0
C298 C 0.35168 0.1988 0.13169 0.0
O299 O 0.36021 0.22458 0.1113 0.0
C300 C 0.45435 0.19596 0.97416 0.0
O301 O 0.43847 0.1717 0.97433 0.0
O302 O 0.39102 0.20987 0.8918 0.0
O303 O 0.35363 0.18012 0.91937 0.0
H304 H 0.38609 0.30313 0.79224 0.0
H305 H 0.39797 0.15445 0.08512 0.0
O306 O 0.34705 0.17739 0.09625 0.0
H307 H 0.38078 0.0787 0.93125 0.0
H308 H 0.27736 0.10015 0.0639 0.0
H309 H 0.29805 0.18413 0.93048 0.0
H310 H 0.35189 0.12487 0.93164 0.0
H311 H 0.32437 0.12751 0.07155 0.0
O312 O 0.44196 0.22098 0.9661 0.0
H313 H 0.3725 0.26205 0.85896 0.0
H314 H 0.45025 0.27607 0.96102 0.0
H315 H 0.25086 0.15723 0.92094 0.0
H316 H 0.4271 0.10839 0.08691 0.0
H317 H 0.24028 0.11491 0.988 0.0
H318 H 0.41866 0.07018 0.00942 0.0
O319 O 0.32757 0.21617 0.00814 0.0
H320 H 0.44038 0.25116 0.17 0.0
H321 H 0.38471 0.29547 0.00403 0.0
H322 H 0.39337 0.32462 0.09496 0.0
H323 H 0.4215 0.3025 0.17877 0.0
H324 H 0.4307 0.22264 0.07872 0.0
H325 H 0.46482 0.31711 0.89514 0.0
H326 H 0.43256 0.33097 0.81016 0.0
O327 O 0.35743 0.24952 0.96535 0.0
C328 C 0.37063 0.19112 0.8799 0.0
C329 C 0.4003 0.29735 0.8292 0.0
C330 C 0.44451 0.30516 0.88689 0.0
N331 N 0.41049 0.26673 0.91398 0.0
C332 C 0.39268 0.27415 0.8672 0.0
C333 C 0.4362 0.28181 0.92392 0.0
C334 C 0.42639 0.31294 0.83924 0.0
C335 C 0.39398 0.1378 0.05159 0.0
N336 N 0.37326 0.14236 0.00832 0.0
C337 C 0.41063 0.11182 0.05268 0.0
C338 C 0.40591 0.09041 0.00913 0.0
C339 C 0.3847 0.0952 0.96521 0.0
C340 C 0.36849 0.12146 0.96548 0.0
C341 C 0.28174 0.1185 0.03434 0.0
C342 C 0.29368 0.1656 0.95953 0.0
C343 C 0.3083 0.13411 0.03852 0.0
N344 N 0.31404 0.15721 1.00113 0.0
C345 C 0.26689 0.15051 0.95405 0.0
C346 C 0.26095 0.12679 0.99173 0.0
C347 C 0.33254 0.24191 0.98755 0.0
C348 C 0.42812 0.26107 0.13378 0.0
C349 C 0.39663 0.28557 0.04047 0.0
C350 C 0.40165 0.30225 0.09177 0.0
C351 C 0.41748 0.28984 0.13872 0.0
N352 N 0.40704 0.25731 0.03595 0.0
C353 C 0.42268 0.24506 0.08178 0.0
Co354 Co 0.85435 0.35021 0.00859 0.0
Co355 Co 0.79931 0.39865 0.96554 0.0
O356 O 0.83262 0.38755 0.01649 0.0
C357 C 0.83454 0.35105 0.1325 0.0
O358 O 0.80873 0.35959 0.1122 0.0
C359 C 0.83737 0.45378 0.97487 0.0
O360 O 0.86165 0.43792 0.97522 0.0
O361 O 0.82351 0.39042 0.89241 0.0
O362 O 0.85304 0.3529 0.92006 0.0
H363 H 0.73026 0.38557 0.79259 0.0
H364 H 0.879 0.3973 0.08561 0.0
O365 O 0.85594 0.34647 0.09697 0.0
H366 H 0.95456 0.37992 0.93138 0.0
H367 H 0.9331 0.2767 0.06449 0.0
H368 H 0.84891 0.29737 0.93145 0.0
H369 H 0.90831 0.35112 0.93205 0.0
H370 H 0.9058 0.32373 0.07209 0.0
O371 O 0.81235 0.44137 0.96674 0.0
H372 H 0.77132 0.37197 0.8594 0.0
H373 H 0.75723 0.44964 0.96155 0.0
H374 H 0.87575 0.25016 0.92195 0.0
H375 H 0.92513 0.42634 0.08711 0.0
H376 H 0.91817 0.23958 0.98882 0.0
H377 H 0.96325 0.41779 0.00944 0.0
O378 O 0.817 0.32703 0.00904 0.0
H379 H 0.78203 0.43971 0.17059 0.0
H380 H 0.73778 0.38414 0.00442 0.0
H381 H 0.70856 0.39277 0.0953 0.0
H382 H 0.73066 0.42085 0.1792 0.0
H383 H 0.81062 0.43007 0.07935 0.0
H384 H 0.71621 0.46422 0.89557 0.0
H385 H 0.7024 0.43201 0.8105 0.0
O386 O 0.78377 0.35687 0.96583 0.0
C387 C 0.84214 0.36992 0.88054 0.0
C388 C 0.73602 0.39976 0.82959 0.0
C389 C 0.72817 0.44393 0.88732 0.0
N390 N 0.7666 0.40992 0.91447 0.0
C391 C 0.7592 0.39214 0.86764 0.0
C392 C 0.75151 0.43561 0.92441 0.0
C393 C 0.72042 0.42583 0.83962 0.0
C394 C 0.8956 0.39326 0.052 0.0
N395 N 0.89095 0.37254 0.0088 0.0
C396 C 0.92163 0.40986 0.05293 0.0
C397 C 0.94298 0.40509 0.00928 0.0
C398 C 0.9381 0.38387 0.96542 0.0
C399 C 0.9118 0.36772 0.96586 0.0
C400 C 0.9147 0.28108 0.03501 0.0
C401 C 0.86748 0.293 0.96041 0.0
C402 C 0.89913 0.30765 0.03917 0.0
N403 N 0.87597 0.31338 1.00187 0.0
C404 C 0.88253 0.2662 0.95496 0.0
C405 C 0.90631 0.26027 0.99253 0.0
C406 C 0.79129 0.33202 0.98826 0.0
C407 C 0.77214 0.42748 0.13432 0.0
C408 C 0.74768 0.39604 0.0409 0.0
C409 C 0.73096 0.40104 0.09217 0.0
C410 C 0.74334 0.41684 0.13917 0.0
N411 N 0.77595 0.40644 0.03647 0.0
C412 C 0.78818 0.42206 0.08235 0.0
Co413 Co 0.68307 0.8538 0.00856 0.0
Co414 Co 0.63471 0.79876 0.96509 0.0
O415 O 0.6457 0.83205 0.0162 0.0
C416 C 0.68212 0.83412 0.13258 0.0
O417 O 0.67354 0.8083 0.11243 0.0
C418 C 0.57939 0.83663 0.97438 0.0
O419 O 0.59523 0.8609 0.97575 0.0
O420 O 0.64301 0.823 0.89206 0.0
O421 O 0.68054 0.85246 0.92001 0.0
H422 H 0.64819 0.72991 0.79198 0.0
H423 H 0.63585 0.87845 0.08528 0.0
O424 O 0.68669 0.85546 0.09694 0.0
H425 H 0.6534 0.9539 0.93102 0.0
H426 H 0.75648 0.93259 0.06478 0.0
H427 H 0.73609 0.84835 0.93181 0.0
H428 H 0.68224 0.90769 0.9319 0.0
H429 H 0.70942 0.90529 0.07211 0.0
O430 O 0.59189 0.81169 0.96593 0.0
H431 H 0.6616 0.77095 0.85898 0.0
H432 H 0.58384 0.75653 0.96078 0.0
H433 H 0.78333 0.87519 0.92259 0.0
H434 H 0.60678 0.92455 0.08657 0.0
H435 H 0.79376 0.91764 0.98941 0.0
H436 H 0.61541 0.96261 0.00887 0.0
O437 O 0.70629 0.81648 0.00922 0.0
H438 H 0.59338 0.78134 0.16987 0.0
H439 H 0.64933 0.7373 0.00397 0.0
H440 H 0.64066 0.70806 0.09476 0.0
H441 H 0.61238 0.73005 0.17854 0.0
H442 H 0.60307 0.80995 0.07871 0.0
H443 H 0.56944 0.71554 0.89462 0.0
H444 H 0.60179 0.7019 0.80962 0.0
O445 O 0.67654 0.7833 0.9656 0.0
C446 C 0.66356 0.84161 0.88036 0.0
C447 C 0.63394 0.7356 0.82894 0.0
C448 C 0.58972 0.72757 0.88648 0.0
N449 N 0.62359 0.76607 0.91387 0.0
C450 C 0.64145 0.75877 0.8671 0.0
C451 C 0.59793 0.75089 0.92367 0.0
C452 C 0.60789 0.71992 0.83882 0.0
C453 C 0.63993 0.89503 0.05167 0.0
N454 N 0.66071 0.89036 0.00856 0.0
C455 C 0.62331 0.92104 0.05247 0.0
C456 C 0.62813 0.94236 0.0088 0.0
C457 C 0.64941 0.93747 0.96506 0.0
C458 C 0.66558 0.91118 0.96562 0.0
C459 C 0.75216 0.91418 0.03531 0.0
C460 C 0.7404 0.86693 0.96075 0.0
C461 C 0.72558 0.89861 0.03932 0.0
N462 N 0.71993 0.87543 1.00205 0.0
C463 C 0.76722 0.88198 0.95546 0.0
C464 C 0.77307 0.90578 0.99301 0.0
C465 C 0.70136 0.79081 0.98828 0.0
C466 C 0.60569 0.77149 0.13365 0.0
C467 C 0.63734 0.74714 0.04039 0.0
C468 C 0.63231 0.73041 0.0916 0.0
C469 C 0.61641 0.74274 0.13854 0.0
N470 N 0.62685 0.77537 0.03592 0.0
C471 C 0.61113 0.78755 0.08173 0.0
Co472 Co 0.67964 0.85144 0.50683 0.0
Co473 Co 0.73496 0.9002 0.54912 0.0
O474 O 0.70134 0.88889 0.49894 0.0
C475 C 0.6999 0.85217 0.38304 0.0
O476 O 0.72551 0.86133 0.4033 0.0
C477 C 0.69606 0.95491 0.54116 0.0
O478 O 0.67214 0.93873 0.53617 0.0
O479 O 0.71183 0.89036 0.62303 0.0
O480 O 0.6804 0.85448 0.59512 0.0
H481 H 0.80594 0.88577 0.71837 0.0
H482 H 0.65525 0.89796 0.42803 0.0
O483 O 0.67855 0.8473 0.41851 0.0
H484 H 0.57892 0.88134 0.58107 0.0
H485 H 0.60131 0.77759 0.45022 0.0
H486 H 0.68457 0.79896 0.58515 0.0
H487 H 0.62529 0.85274 0.58223 0.0
H488 H 0.62861 0.8246 0.44246 0.0
O489 O 0.72099 0.94268 0.55149 0.0
H490 H 0.76471 0.8723 0.65183 0.0
H491 H 0.77585 0.95221 0.55545 0.0
H492 H 0.65772 0.75178 0.59481 0.0
H493 H 0.60899 0.92676 0.42466 0.0
H494 H 0.61576 0.74085 0.527 0.0
H495 H 0.57049 0.9186 0.50174 0.0
O496 O 0.71698 0.82818 0.50781 0.0
H497 H 0.74847 0.9434 0.34467 0.0
H498 H 0.79697 0.88973 0.50859 0.0
H499 H 0.82506 0.90052 0.41715 0.0
H500 H 0.80081 0.92763 0.33437 0.0
H501 H 0.7211 0.93167 0.4364 0.0
H502 H 0.81695 0.9667 0.62129 0.0
H503 H 0.83234 0.93329 0.70332 0.0
O504 O 0.75148 0.85884 0.54467 0.0
C505 C 0.69236 0.87065 0.63479 0.0
C506 C 0.79948 0.90048 0.68271 0.0
C507 C 0.80561 0.94594 0.62832 0.0
N508 N 0.76792 0.9114 0.59969 0.0
C509 C 0.77621 0.89295 0.64481 0.0
C510 C 0.78221 0.93768 0.59134 0.0
C511 C 0.81426 0.92717 0.67429 0.0
C512 C 0.63848 0.89408 0.46138 0.0
N513 N 0.643 0.87371 0.5053 0.0
C514 C 0.61238 0.91055 0.4594 0.0
C515 C 0.59081 0.906 0.50272 0.0
C516 C 0.59555 0.88513 0.5473 0.0
C517 C 0.62193 0.8691 0.5479 0.0
C518 C 0.61951 0.78212 0.48011 0.0
C519 C 0.66621 0.79444 0.55575 0.0
C520 C 0.63508 0.80868 0.47586 0.0
N521 N 0.658 0.81461 0.51365 0.0
C522 C 0.65115 0.76766 0.56131 0.0
C523 C 0.62763 0.76152 0.52321 0.0
C524 C 0.74324 0.83364 0.52498 0.0
C525 C 0.75929 0.93156 0.38039 0.0
C526 C 0.78615 0.90116 0.4725 0.0
C527 C 0.80223 0.90741 0.42097 0.0
C528 C 0.78863 0.92266 0.3746 0.0
N529 N 0.75732 0.90977 0.47779 0.0
C530 C 0.74392 0.92493 0.43262 0.0
Co531 Co 0.18288 0.67906 0.50567 0.0
Co532 Co 0.13449 0.73413 0.54892 0.0
O533 O 0.14551 0.70079 0.49796 0.0
C534 C 0.182 0.69884 0.38175 0.0
O535 O 0.17341 0.72463 0.40201 0.0
C536 C 0.0792 0.69618 0.53979 0.0
O537 O 0.09507 0.67193 0.53836 0.0
O538 O 0.14285 0.71 0.62207 0.0
O539 O 0.18026 0.68035 0.5942 0.0
H540 H 0.14793 0.80322 0.72164 0.0
H541 H 0.13573 0.65443 0.42872 0.0
O542 O 0.18657 0.67746 0.41728 0.0
H543 H 0.15316 0.5789 0.58287 0.0
H544 H 0.25635 0.60032 0.44944 0.0
H545 H 0.23582 0.68444 0.58264 0.0
H546 H 0.18197 0.62513 0.58221 0.0
H547 H 0.20929 0.62762 0.44204 0.0
O548 O 0.09168 0.72113 0.54822 0.0
H549 H 0.16138 0.76212 0.65483 0.0
H550 H 0.08355 0.77629 0.55311 0.0
H551 H 0.28306 0.65761 0.59193 0.0
H552 H 0.10669 0.60832 0.42721 0.0
H553 H 0.29356 0.61521 0.52498 0.0
H554 H 0.11526 0.57022 0.50484 0.0
O555 O 0.20611 0.71636 0.50517 0.0
H556 H 0.09308 0.7512 0.34408 0.0
H557 H 0.14895 0.79558 0.50972 0.0
H558 H 0.1402 0.82468 0.41878 0.0
H559 H 0.11197 0.80252 0.33514 0.0
H560 H 0.10284 0.72273 0.43538 0.0
H561 H 0.06912 0.81734 0.61909 0.0
H562 H 0.10148 0.83113 0.70395 0.0
O563 O 0.17629 0.74965 0.54825 0.0
C564 C 0.16333 0.69132 0.63382 0.0
C565 C 0.13367 0.79746 0.68474 0.0
C566 C 0.08941 0.80535 0.62725 0.0
N567 N 0.12333 0.76686 0.59999 0.0
C568 C 0.1412 0.77426 0.64669 0.0
C569 C 0.09764 0.782 0.59017 0.0
C570 C 0.10759 0.81309 0.67483 0.0
C571 C 0.13978 0.63784 0.46231 0.0
N572 N 0.16051 0.64249 0.5055 0.0
C573 C 0.12318 0.61182 0.46138 0.0
C574 C 0.12796 0.59048 0.50501 0.0
C575 C 0.14919 0.59535 0.54885 0.0
C576 C 0.16535 0.62165 0.54842 0.0
C577 C 0.252 0.6187 0.47896 0.0
C578 C 0.24016 0.66589 0.55364 0.0
C579 C 0.22542 0.63427 0.47491 0.0
N580 N 0.21973 0.65742 0.51225 0.0
C581 C 0.26698 0.65084 0.55898 0.0
C582 C 0.27287 0.62707 0.52136 0.0
C583 C 0.20116 0.74208 0.52586 0.0
C584 C 0.10538 0.76112 0.38024 0.0
C585 C 0.13698 0.78566 0.47336 0.0
C586 C 0.13191 0.80232 0.42206 0.0
C587 C 0.11603 0.78989 0.3752 0.0
N588 N 0.12656 0.75742 0.47798 0.0
C589 C 0.11086 0.74515 0.43225 0.0
Co590 Co 0.3545 0.18218 0.50617 0.0
Co591 Co 0.29931 0.13382 0.5489 0.0
O592 O 0.33271 0.1449 0.49818 0.0
C593 C 0.33454 0.18142 0.38242 0.0
O594 O 0.30876 0.17286 0.40286 0.0
C595 C 0.33746 0.07875 0.53992 0.0
O596 O 0.36171 0.09465 0.53959 0.0
O597 O 0.32334 0.14212 0.6222 0.0
O598 O 0.3533 0.17934 0.59467 0.0
H599 H 0.22988 0.14699 0.72123 0.0
H600 H 0.37894 0.13514 0.42875 0.0
O601 O 0.35598 0.18604 0.41782 0.0
H602 H 0.45479 0.1522 0.58256 0.0
H603 H 0.4333 0.25565 0.45024 0.0
H604 H 0.34931 0.23489 0.58376 0.0
H605 H 0.40858 0.18107 0.58235 0.0
H606 H 0.4059 0.20868 0.4425 0.0
O607 O 0.31241 0.09112 0.54799 0.0
H608 H 0.27106 0.16058 0.65467 0.0
H609 H 0.2573 0.08276 0.55281 0.0
H610 H 0.37625 0.28204 0.59341 0.0
H611 H 0.42503 0.10603 0.42679 0.0
H612 H 0.41857 0.29266 0.5263 0.0
H613 H 0.46329 0.11441 0.50424 0.0
O614 O 0.31722 0.20547 0.50607 0.0
H615 H 0.28253 0.09256 0.34384 0.0
H616 H 0.23782 0.14812 0.50953 0.0
H617 H 0.20879 0.13935 0.41845 0.0
H618 H 0.23112 0.11127 0.33479 0.0
H619 H 0.31092 0.10234 0.43527 0.0
H620 H 0.21617 0.06819 0.61853 0.0
H621 H 0.20213 0.10048 0.70333 0.0
O622 O 0.28373 0.17557 0.5483 0.0
C623 C 0.34217 0.16243 0.63413 0.0
C624 C 0.23574 0.13277 0.68435 0.0
C625 C 0.22808 0.08852 0.62678 0.0
N626 N 0.26651 0.12256 0.59977 0.0
C627 C 0.25899 0.14038 0.64644 0.0
C628 C 0.25148 0.09683 0.58984 0.0
C629 C 0.2202 0.10666 0.67432 0.0
C630 C 0.39561 0.13911 0.46227 0.0
N631 N 0.39106 0.15978 0.50562 0.0
C632 C 0.4216 0.12247 0.46108 0.0
C633 C 0.44304 0.12715 0.50461 0.0
C634 C 0.43827 0.14831 0.54862 0.0
C635 C 0.41199 0.16451 0.54844 0.0
C636 C 0.41494 0.25125 0.47983 0.0
C637 C 0.36784 0.23928 0.5547 0.0
C638 C 0.39932 0.22472 0.47559 0.0
N639 N 0.37621 0.21896 0.51301 0.0
C640 C 0.38295 0.26604 0.56023 0.0
C641 C 0.40667 0.272 0.52253 0.0
C642 C 0.29142 0.20048 0.52639 0.0
C643 C 0.27254 0.10479 0.38 0.0
C644 C 0.24781 0.13623 0.47315 0.0
C645 C 0.2312 0.13115 0.42177 0.0
C646 C 0.24372 0.11535 0.37491 0.0
N647 N 0.2761 0.12591 0.47782 0.0
C648 C 0.28847 0.11029 0.43208 0.0
Co649 Co 0.85149 0.35405 0.50682 0.0
Co650 Co 0.90033 0.29881 0.54892 0.0
O651 O 0.88896 0.33238 0.49879 0.0
C652 C 0.85218 0.33367 0.38316 0.0
O653 O 0.8613 0.3081 0.40359 0.0
C654 C 0.95497 0.33779 0.54092 0.0
O655 O 0.93877 0.36174 0.53697 0.0
O656 O 0.89058 0.32193 0.62283 0.0
O657 O 0.85462 0.35332 0.59513 0.0
H658 H 0.88616 0.22787 0.71825 0.0
H659 H 0.898 0.37838 0.42787 0.0
O660 O 0.8473 0.35506 0.41851 0.0
H661 H 0.88142 0.45474 0.58076 0.0
H662 H 0.7775 0.43223 0.45027 0.0
H663 H 0.79906 0.34914 0.58538 0.0
H664 H 0.85281 0.4084 0.58209 0.0
H665 H 0.82455 0.40497 0.44241 0.0
O666 O 0.94279 0.31282 0.55091 0.0
H667 H 0.87256 0.26904 0.65174 0.0
H668 H 0.95248 0.25806 0.55513 0.0
H669 H 0.75184 0.37596 0.59513 0.0
H670 H 0.92681 0.42461 0.42434 0.0
H671 H 0.74081 0.41783 0.52723 0.0
H672 H 0.91867 0.46313 0.50134 0.0
O673 O 0.82824 0.31672 0.50797 0.0
H674 H 0.94335 0.28525 0.34429 0.0
H675 H 0.88989 0.2368 0.50855 0.0
H676 H 0.90062 0.20869 0.41711 0.0
H677 H 0.92763 0.23292 0.33417 0.0
H678 H 0.93168 0.31264 0.43601 0.0
H679 H 0.9671 0.21702 0.62093 0.0
H680 H 0.93376 0.20157 0.70305 0.0
O681 O 0.85896 0.28226 0.54473 0.0
C682 C 0.87086 0.34138 0.6347 0.0
C683 C 0.90085 0.23434 0.68254 0.0
C684 C 0.94631 0.2283 0.62801 0.0
N685 N 0.91165 0.2659 0.59946 0.0
C686 C 0.89323 0.25758 0.64465 0.0
C687 C 0.93798 0.25167 0.59105 0.0
C688 C 0.92758 0.21963 0.67404 0.0
C689 C 0.89413 0.39516 0.46118 0.0
N690 N 0.87376 0.39067 0.50515 0.0
C691 C 0.9106 0.42124 0.45912 0.0
C692 C 0.90606 0.44282 0.50239 0.0
C693 C 0.8852 0.43811 0.54702 0.0
C694 C 0.86916 0.41175 0.54772 0.0
C695 C 0.78208 0.41407 0.4802 0.0
C696 C 0.7945 0.36747 0.55594 0.0
C697 C 0.80866 0.39852 0.4759 0.0
N698 N 0.81464 0.37565 0.51374 0.0
C699 C 0.76769 0.38251 0.56156 0.0
C700 C 0.7615 0.40598 0.5234 0.0
C701 C 0.83372 0.29048 0.52514 0.0
C702 C 0.93155 0.27444 0.38008 0.0
C703 C 0.90126 0.24761 0.47238 0.0
C704 C 0.90748 0.23152 0.42085 0.0
C705 C 0.92268 0.24511 0.37439 0.0
N706 N 0.90984 0.27644 0.47756 0.0
C707 C 0.92495 0.28983 0.4323 0.0
Co708 Co 0.67955 0.18342 0.50888 0.0
Co709 Co 0.7345 0.13481 0.46601 0.0
O710 O 0.70117 0.14602 0.51683 0.0
C711 C 0.69936 0.18259 0.63277 0.0
O712 O 0.72514 0.17396 0.61247 0.0
C713 C 0.69627 0.07975 0.4753 0.0
O714 O 0.67203 0.09567 0.47601 0.0
O715 O 0.71043 0.14316 0.39276 0.0
O716 O 0.68085 0.18067 0.42037 0.0
H717 H 0.80379 0.1477 0.29339 0.0
H718 H 0.65476 0.13647 0.58604 0.0
O719 O 0.67797 0.18722 0.59725 0.0
H720 H 0.57924 0.15396 0.4318 0.0
H721 H 0.60101 0.25719 0.56465 0.0
H722 H 0.68512 0.23619 0.43158 0.0
H723 H 0.62559 0.1826 0.43234 0.0
H724 H 0.62818 0.21009 0.57236 0.0
O725 O 0.7213 0.09212 0.467 0.0
H726 H 0.76271 0.16143 0.36007 0.0
H727 H 0.7764 0.08366 0.46209 0.0
H728 H 0.65841 0.28346 0.42198 0.0
H729 H 0.60853 0.10759 0.58768 0.0
H730 H 0.61603 0.29421 0.48886 0.0
H731 H 0.57043 0.1162 0.51 0.0
O732 O 0.71696 0.20651 0.50924 0.0
H733 H 0.75129 0.09363 0.67111 0.0
H734 H 0.79606 0.14895 0.50519 0.0
H735 H 0.82512 0.14015 0.5962 0.0
H736 H 0.80276 0.11219 0.67998 0.0
H737 H 0.72287 0.10344 0.57974 0.0
H738 H 0.81743 0.06894 0.39624 0.0
H739 H 0.83145 0.10114 0.3113 0.0
O740 O 0.75021 0.17652 0.4665 0.0
C741 C 0.6918 0.16366 0.38086 0.0
C742 C 0.79794 0.13351 0.33033 0.0
C743 C 0.80555 0.08929 0.38799 0.0
N744 N 0.76723 0.12344 0.41506 0.0
C745 C 0.77474 0.14121 0.36831 0.0
C746 C 0.78221 0.09768 0.425 0.0
C747 C 0.81342 0.10737 0.34036 0.0
C748 C 0.63817 0.14053 0.55243 0.0
N749 N 0.64289 0.16119 0.50915 0.0
C750 C 0.61209 0.12402 0.55343 0.0
C751 C 0.59074 0.12882 0.50978 0.0
C752 C 0.59569 0.14998 0.46584 0.0
C753 C 0.62205 0.16604 0.46621 0.0
C754 C 0.6194 0.25274 0.53516 0.0
C755 C 0.66656 0.24063 0.46055 0.0
C756 C 0.63489 0.22613 0.53938 0.0
N757 N 0.65803 0.22031 0.50208 0.0
C758 C 0.65159 0.26747 0.45504 0.0
C759 C 0.62783 0.27349 0.49262 0.0
C760 C 0.74269 0.20143 0.48868 0.0
C761 C 0.7613 0.10581 0.63489 0.0
C762 C 0.78606 0.13711 0.54162 0.0
C763 C 0.80269 0.13201 0.59296 0.0
C764 C 0.79015 0.11628 0.63989 0.0
N765 N 0.75773 0.12687 0.53704 0.0
C766 C 0.74535 0.11132 0.58285 0.0
Co767 Co 0.85035 0.67951 0.50855 0.0
Co768 Co 0.89897 0.73442 0.46541 0.0
O769 O 0.88781 0.7011 0.51631 0.0
C770 C 0.8513 0.69922 0.63254 0.0
O771 O 0.85999 0.725 0.61239 0.0
C772 C 0.95414 0.69629 0.47467 0.0
O773 O 0.9382 0.67209 0.47647 0.0
O774 O 0.89049 0.71035 0.3922 0.0
O775 O 0.853 0.68081 0.42003 0.0
H776 H 0.88578 0.80362 0.29282 0.0
H777 H 0.89737 0.65468 0.58553 0.0
O778 O 0.84664 0.6779 0.59692 0.0
H779 H 0.87969 0.57925 0.43124 0.0
H780 H 0.77657 0.60103 0.56455 0.0
H781 H 0.79745 0.68512 0.43154 0.0
H782 H 0.85108 0.6256 0.43192 0.0
H783 H 0.82372 0.62815 0.57206 0.0
O784 O 0.94173 0.72125 0.466 0.0
H785 H 0.87217 0.76255 0.35957 0.0
H786 H 0.95007 0.77639 0.46128 0.0
H787 H 0.75012 0.65846 0.42214 0.0
H788 H 0.92622 0.60844 0.58703 0.0
H789 H 0.73944 0.61609 0.48899 0.0
H790 H 0.91753 0.57039 0.50933 0.0
O791 O 0.82726 0.7169 0.50907 0.0
H792 H 0.94045 0.75118 0.6703 0.0
H793 H 0.88484 0.79593 0.50472 0.0
H794 H 0.89375 0.82495 0.59573 0.0
H795 H 0.92185 0.8026 0.67933 0.0
H796 H 0.93053 0.7228 0.57893 0.0
H797 H 0.96466 0.8174 0.39535 0.0
H798 H 0.93234 0.83134 0.31052 0.0
O799 O 0.85723 0.75012 0.46617 0.0
C800 C 0.86997 0.69173 0.38043 0.0
C801 C 0.90002 0.79779 0.3297 0.0
C802 C 0.94431 0.80549 0.38717 0.0
N803 N 0.91024 0.76713 0.41439 0.0
C804 C 0.8924 0.77461 0.36772 0.0
C805 C 0.936 0.78216 0.42423 0.0
C806 C 0.92616 0.81332 0.33962 0.0
C807 C 0.89327 0.6381 0.55191 0.0
N808 N 0.87258 0.64285 0.50868 0.0
C809 C 0.90976 0.61202 0.55283 0.0
C810 C 0.90491 0.59071 0.50916 0.0
C811 C 0.88372 0.59568 0.46529 0.0
C812 C 0.86767 0.62204 0.46573 0.0
C813 C 0.781 0.61941 0.53507 0.0
C814 C 0.79304 0.66657 0.46049 0.0
C815 C 0.80763 0.63488 0.53918 0.0
N816 N 0.81342 0.65802 0.5019 0.0
C817 C 0.76617 0.65162 0.45509 0.0
C818 C 0.76018 0.62787 0.49266 0.0
C819 C 0.83232 0.74262 0.48848 0.0
C820 C 0.92821 0.76118 0.63415 0.0
C821 C 0.89675 0.78593 0.54107 0.0
C822 C 0.90191 0.80254 0.59241 0.0
C823 C 0.91772 0.79001 0.63925 0.0
N824 N 0.90702 0.75763 0.5364 0.0
C825 C 0.92264 0.74526 0.58211 0.0
Co826 Co 0.35402 0.85063 0.50729 0.0
Co827 Co 0.29873 0.89942 0.46502 0.0
O828 O 0.33233 0.88809 0.51521 0.0
C829 C 0.33372 0.8514 0.63105 0.0
O830 O 0.30812 0.86055 0.61076 0.0
C831 C 0.33767 0.95406 0.47309 0.0
O832 O 0.36158 0.93785 0.47807 0.0
O833 O 0.32185 0.88958 0.39114 0.0
O834 O 0.35327 0.85369 0.41899 0.0
H835 H 0.22777 0.88505 0.2957 0.0
H836 H 0.37842 0.89712 0.58618 0.0
O837 O 0.35507 0.84649 0.59561 0.0
H838 H 0.45475 0.88051 0.43316 0.0
H839 H 0.4323 0.77675 0.56392 0.0
H840 H 0.34908 0.79817 0.42892 0.0
H841 H 0.40837 0.85193 0.43192 0.0
H842 H 0.40501 0.82377 0.5717 0.0
O843 O 0.31274 0.94187 0.46268 0.0
H844 H 0.26897 0.87155 0.36229 0.0
H845 H 0.25787 0.95147 0.45869 0.0
H846 H 0.37593 0.75098 0.41924 0.0
H847 H 0.42468 0.92589 0.58963 0.0
H848 H 0.41787 0.74003 0.48709 0.0
H849 H 0.46319 0.91775 0.51256 0.0
O850 O 0.31666 0.82739 0.50626 0.0
H851 H 0.2852 0.94265 0.66947 0.0
H852 H 0.2367 0.88901 0.50549 0.0
H853 H 0.20859 0.89985 0.5969 0.0
H854 H 0.23284 0.92695 0.6797 0.0
H855 H 0.31259 0.93088 0.57778 0.0
H856 H 0.21681 0.96599 0.3928 0.0
H857 H 0.20141 0.9326 0.31075 0.0
O858 O 0.28217 0.85809 0.46947 0.0
C859 C 0.34133 0.86988 0.37936 0.0
C860 C 0.23423 0.89976 0.33137 0.0
C861 C 0.22813 0.94522 0.38578 0.0
N862 N 0.26579 0.91065 0.41444 0.0
C863 C 0.25749 0.8922 0.36931 0.0
C864 C 0.25151 0.93695 0.42278 0.0
C865 C 0.21948 0.92646 0.33979 0.0
C866 C 0.39519 0.89324 0.55284 0.0
N867 N 0.39067 0.87289 0.50888 0.0
C868 C 0.42129 0.9097 0.55486 0.0
C869 C 0.44286 0.90515 0.51155 0.0
C870 C 0.43812 0.8843 0.46693 0.0
C871 C 0.41174 0.86828 0.46628 0.0
C872 C 0.41411 0.7813 0.53401 0.0
C873 C 0.36743 0.79364 0.45833 0.0
C874 C 0.39854 0.80786 0.53827 0.0
N875 N 0.37564 0.8138 0.50046 0.0
C876 C 0.38249 0.76685 0.45276 0.0
C877 C 0.406 0.7607 0.49088 0.0
C878 C 0.2904 0.83287 0.48913 0.0
C879 C 0.27438 0.93082 0.63373 0.0
C880 C 0.24752 0.90044 0.54159 0.0
C881 C 0.23143 0.90671 0.5931 0.0
C882 C 0.24503 0.92196 0.63948 0.0
N883 N 0.27636 0.90902 0.53634 0.0
C884 C 0.28976 0.92416 0.58153 0.0
Co885 Co 0.18342 0.35363 0.50801 0.0
Co886 Co 0.13431 0.29863 0.4659 0.0
O887 O 0.14584 0.33215 0.51605 0.0
C888 C 0.18268 0.33331 0.63172 0.0
O889 O 0.17351 0.30776 0.61131 0.0
C890 C 0.07977 0.33776 0.4743 0.0
O891 O 0.09602 0.36166 0.47869 0.0
O892 O 0.14413 0.32174 0.39201 0.0
O893 O 0.18033 0.35286 0.41969 0.0
H894 H 0.14814 0.22773 0.29637 0.0
H895 H 0.13706 0.37829 0.58694 0.0
O896 O 0.18759 0.35469 0.59635 0.0
H897 H 0.15396 0.4544 0.43371 0.0
H898 H 0.25774 0.43153 0.56447 0.0
H899 H 0.23587 0.34842 0.42958 0.0
H900 H 0.18234 0.4079 0.43251 0.0
H901 H 0.21056 0.40448 0.57232 0.0
O902 O 0.09189 0.3128 0.46396 0.0
H903 H 0.16192 0.2688 0.36297 0.0
H904 H 0.08201 0.25806 0.45972 0.0
H905 H 0.28321 0.37501 0.41984 0.0
H906 H 0.10849 0.42466 0.59034 0.0
H907 H 0.29439 0.4169 0.48763 0.0
H908 H 0.11679 0.46306 0.51317 0.0
O909 O 0.20648 0.3162 0.50698 0.0
H910 H 0.09138 0.28524 0.67065 0.0
H911 H 0.14443 0.23655 0.50611 0.0
H912 H 0.13362 0.20847 0.59754 0.0
H913 H 0.10682 0.23282 0.68063 0.0
H914 H 0.10313 0.31259 0.57894 0.0
H915 H 0.0672 0.21712 0.39383 0.0
H916 H 0.10045 0.2016 0.31159 0.0
O917 O 0.17561 0.28191 0.47002 0.0
C918 C 0.16399 0.34104 0.38012 0.0
C919 C 0.13349 0.23424 0.33213 0.0
C920 C 0.08804 0.22833 0.38673 0.0
N921 N 0.12285 0.26578 0.41532 0.0
C922 C 0.14121 0.25743 0.37007 0.0
C923 C 0.09647 0.25164 0.42374 0.0
C924 C 0.10671 0.21961 0.34064 0.0
C925 C 0.141 0.39501 0.55355 0.0
N926 N 0.16133 0.39037 0.50957 0.0
C927 C 0.12466 0.42117 0.55555 0.0
C928 C 0.12929 0.44268 0.51218 0.0
C929 C 0.15011 0.43782 0.46753 0.0
C930 C 0.16601 0.41137 0.46691 0.0
C931 C 0.25309 0.41336 0.53459 0.0
C932 C 0.2405 0.36675 0.45897 0.0
C933 C 0.22644 0.39794 0.53889 0.0
N934 N 0.22038 0.37506 0.50111 0.0
C935 C 0.26738 0.38167 0.45336 0.0
C936 C 0.27365 0.40514 0.49145 0.0
C937 C 0.20088 0.29 0.48971 0.0
C938 C 0.10309 0.27438 0.6348 0.0
C939 C 0.13315 0.24741 0.54235 0.0
C940 C 0.12688 0.23134 0.59387 0.0
C941 C 0.1118 0.24499 0.64041 0.0
N942 N 0.12473 0.27629 0.53724 0.0
C943 C 0.10974 0.28974 0.58259 0.0
C944 C 0.22165 0.53094 0.99791 0.0
C945 C 0.19502 0.54634 0.98872 0.0
H946 H 0.24276 0.49053 0.02184 0.0
C947 C 0.16826 0.53107 0.99791 0.0
H948 H 0.24275 0.54181 0.99205 0.0
C949 C 0.16826 0.50115 0.01528 0.0
C950 C 0.19503 0.48592 0.02472 0.0
H951 H 0.1473 0.54221 0.9917 0.0
H952 H 0.14731 0.48997 0.02129 0.0
C953 C 0.22166 0.50136 0.01578 0.0
C954 C 0.50139 0.22178 0.00265 0.0
C955 C 0.48638 0.19523 0.99047 0.0
H956 H 0.54153 0.24277 0.02892 0.0
C957 C 0.50199 0.16848 0.99702 0.0
H958 H 0.49022 0.24284 0.9989 0.0
C959 C 0.53191 0.16845 0.0145 0.0
C960 C 0.54681 0.19513 0.02659 0.0
H961 H 0.49114 0.14759 0.98847 0.0
H962 H 0.54337 0.14753 0.01826 0.0
C963 C 0.53098 0.22172 0.02057 0.0
C964 C 0.81152 0.50089 0.00288 0.0
C965 C 0.83809 0.48584 0.99096 0.0
H966 H 0.79053 0.54109 0.02872 0.0
C967 C 0.86485 0.50143 0.99751 0.0
H968 H 0.79044 0.48973 0.99911 0.0
C969 C 0.8649 0.53137 0.01475 0.0
C970 C 0.8382 0.54632 0.0266 0.0
H971 H 0.88577 0.49056 0.98915 0.0
H972 H 0.88584 0.54281 0.01853 0.0
C973 C 0.81158 0.53051 0.02056 0.0
C974 C 0.53182 0.86398 0.99846 0.0
C975 C 0.54719 0.83726 0.98962 0.0
H976 H 0.49059 0.88487 0.02119 0.0
C977 C 0.53179 0.81061 0.99858 0.0
H978 H 0.54294 0.88494 0.99237 0.0
C979 C 0.50207 0.81057 0.01585 0.0
C980 C 0.48655 0.83717 0.02449 0.0
H981 H 0.54274 0.78954 0.99284 0.0
H982 H 0.49122 0.78947 0.02183 0.0
C983 C 0.50181 0.86394 0.01536 0.0
C984 C 0.72208 0.03255 0.5028 0.0
C985 C 0.69552 0.04767 0.4912 0.0
H986 H 0.74305 0.99229 0.52826 0.0
C987 C 0.66874 0.03213 0.49794 0.0
H988 H 0.74318 0.04367 0.49887 0.0
C989 C 0.66867 1.00217 0.51505 0.0
C990 C 0.69536 0.98716 0.52659 0.0
H991 H 0.64783 0.04305 0.48983 0.0
H992 H 0.64772 0.99077 0.51899 0.0
C993 C 0.722 1.00292 0.52036 0.0
C994 C 1.00161 0.66883 0.49904 0.0
C995 C 0.98635 0.69558 0.48977 0.0
H996 H 0.04274 0.64785 0.5221 0.0
C997 C 1.00188 0.72219 0.49823 0.0
H998 H 0.99038 0.64789 0.49334 0.0
C999 C 0.0316 0.72217 0.51548 0.0
C1000 C 0.047 0.69554 0.52458 0.0
H1001 H 0.99103 0.74328 0.49214 0.0
H1002 H 0.04255 0.74324 0.52108 0.0
C1003 C 0.03162 0.6688 0.51591 0.0
C1004 C 0.365 0.03115 0.51716 0.0
C1005 C 0.33822 0.04671 0.52376 0.0
H1006 H 0.38602 0.9898 0.49598 0.0
C1007 C 0.31167 0.03165 0.51176 0.0
H1008 H 0.3859 0.04203 0.52558 0.0
C1009 C 0.31176 1.00206 0.49394 0.0
C1010 C 0.33839 0.98628 0.48786 0.0
H1011 H 0.29057 0.04279 0.51556 0.0
H1012 H 0.29071 0.99148 0.48573 0.0
C1013 C 0.36507 1.00123 0.4998 0.0
C1014 C 0.03238 0.36528 0.49916 0.0
C1015 C 0.0476 0.33852 0.4896 0.0
H1016 H 0.99129 0.38622 0.52282 0.0
C1017 C 0.03212 0.31191 0.49838 0.0
H1018 H 0.04358 0.38621 0.49327 0.0
C1019 C 1.00252 0.31192 0.51623 0.0
C1020 C 0.98713 0.33853 0.52555 0.0
H1021 H 0.04294 0.29082 0.49222 0.0
H1022 H 0.99163 0.29083 0.52197 0.0
C1023 C 1.00243 0.36528 0.51651 0.0
C1024 C 0.25891 0.27919 0.02327 0.0
C1025 C 0.26596 0.30924 0.01612 0.0
H1026 H 0.27431 0.23437 0.02047 0.0
C1027 C 0.29452 0.31671 0.99676 0.0
H1028 H 0.23696 0.27268 0.03738 0.0
C1029 C 0.31558 0.29485 0.9851 0.0
C1030 C 0.30902 0.26481 0.99415 0.0
H1031 H 0.30049 0.33945 0.98902 0.0
H1032 H 0.33712 0.30168 0.96947 0.0
C1033 C 0.2803 0.25725 0.0132 0.0
C1034 C 0.7383 0.31513 0.98535 0.0
C1035 C 0.76832 0.30857 0.99485 0.0
H1036 H 0.69364 0.30011 0.98892 0.0
C1037 C 0.77579 0.27991 0.01433 0.0
H1038 H 0.73154 0.33661 0.96937 0.0
C1039 C 0.75378 0.25859 0.02441 0.0
C1040 C 0.72375 0.26566 0.01685 0.0
H1041 H 0.79866 0.27391 0.02193 0.0
H1042 H 0.76023 0.23669 0.03888 0.0
C1043 C 0.71637 0.29414 0.99701 0.0
C1044 C 0.73935 0.71594 0.99643 0.0
C1045 C 0.76779 0.72329 0.01664 0.0
H1046 H 0.69689 0.73114 0.96861 0.0
C1047 C 0.7748 0.75329 0.02466 0.0
H1048 H 0.73343 0.69325 0.98796 0.0
C1049 C 0.75347 0.77529 0.01469 0.0
C1050 C 0.72484 0.76785 0.99485 0.0
H1051 H 0.79668 0.75971 0.03942 0.0
H1052 H 0.75942 0.79813 0.02265 0.0
C1053 C 0.71834 0.73787 0.98489 0.0
C1054 C 0.29445 0.7156 0.01642 0.0
C1055 C 0.26586 0.72306 0.99729 0.0
H1056 H 0.3371 0.73064 0.04341 0.0
C1057 C 0.25879 0.75311 0.99024 0.0
H1058 H 0.30045 0.69286 0.02407 0.0
C1059 C 0.28019 0.77506 1.00018 0.0
C1060 C 0.30895 0.7675 0.01902 0.0
H1061 H 0.23681 0.75962 0.97629 0.0
H1062 H 0.27418 0.79794 0.99301 0.0
C1063 C 0.31553 0.73746 0.02796 0.0
C1064 C 0.78007 0.75812 0.51371 0.0
C1065 C 0.80888 0.76561 0.49507 0.0
H1066 H 0.73671 0.77366 0.53742 0.0
C1067 C 0.81557 0.79564 0.48632 0.0
H1068 H 0.77398 0.73525 0.52073 0.0
C1069 C 0.79454 0.81756 0.49785 0.0
C1070 C 0.76589 0.81016 0.51677 0.0
H1071 H 0.83718 0.80242 0.47103 0.0
H1072 H 0.80062 0.84029 0.49037 0.0
C1073 C 0.75872 0.78012 0.52363 0.0
C1074 C 0.23918 0.81689 0.51694 0.0
C1075 C 0.26772 0.80945 0.49744 0.0
H1076 H 0.19659 0.80183 0.54423 0.0
C1077 C 0.27477 0.77941 0.49011 0.0
H1078 H 0.23322 0.83962 0.52483 0.0
C1079 C 0.25338 0.75746 0.50009 0.0
C1080 C 0.22466 0.765 0.51926 0.0
H1081 H 0.2967 0.77292 0.47588 0.0
H1082 H 0.25936 0.73459 0.49268 0.0
C1083 C 0.21812 0.79502 0.52851 0.0
C1084 C 0.23844 0.21744 0.52793 0.0
C1085 C 0.26854 0.22403 0.51979 0.0
H1086 H 0.19385 0.23255 0.52328 0.0
C1087 C 0.27623 0.25285 0.50165 0.0
H1088 H 0.2315 0.19582 0.5428 0.0
C1089 C 0.25435 0.2743 0.49163 0.0
C1090 C 0.22424 0.26723 0.4979 0.0
H1091 H 0.29918 0.25886 0.49509 0.0
H1092 H 0.26097 0.29632 0.47825 0.0
C1093 C 0.21664 0.23857 0.5163 0.0
C1094 C 0.78018 0.27501 0.52369 0.0
C1095 C 0.81025 0.26784 0.51697 0.0
H1096 H 0.73528 0.25977 0.52065 0.0
C1097 C 0.81766 0.23919 0.49818 0.0
H1098 H 0.7737 0.29703 0.53737 0.0
C1099 C 0.79575 0.21817 0.48663 0.0
C1100 C 0.76569 0.22487 0.49523 0.0
H1101 H 0.84042 0.2331 0.49083 0.0
H1102 H 0.80254 0.19656 0.47144 0.0
C1103 C 0.75818 0.25367 0.51374 0.0
C1104 C 0.19096 0.37147 0.30345 0.0
C1105 C 0.1696 0.34975 0.31708 0.0
H1106 H 0.2148 0.39489 0.23582 0.0
C1107 C 0.1549 0.33574 0.26983 0.0
H1108 H 0.20285 0.38281 0.33848 0.0
C1109 C 0.16186 0.34273 0.21073 0.0
C1110 C 0.18368 0.36399 0.1971 0.0
H1111 H 0.13843 0.3189 0.27836 0.0
H1112 H 0.15038 0.33098 0.1757 0.0
C1113 C 0.19787 0.3785 0.24436 0.0
C1114 C 0.69658 0.15424 0.27062 0.0
C1115 C 0.68297 0.16927 0.31792 0.0
H1116 H 0.70108 0.14956 0.17648 0.0
C1117 C 0.66163 0.19103 0.3044 0.0
H1118 H 0.71312 0.13747 0.27908 0.0
C1119 C 0.6546 0.198 0.24534 0.0
C1120 C 0.66875 0.1835 0.19803 0.0
H1121 H 0.65062 0.20319 0.33947 0.0
H1122 H 0.63852 0.21523 0.23688 0.0
C1123 C 0.68961 0.16128 0.21156 0.0
C1124 C 0.87932 0.69634 0.27013 0.0
C1125 C 0.86429 0.68283 0.31754 0.0
H1126 H 0.88398 0.70068 0.17596 0.0
C1127 C 0.84249 0.6615 0.30417 0.0
H1128 H 0.89612 0.71288 0.27847 0.0
C1129 C 0.83549 0.65438 0.24517 0.0
C1130 C 0.85 0.66843 0.19775 0.0
H1131 H 0.83033 0.65057 0.33933 0.0
H1132 H 0.81823 0.63831 0.23682 0.0
C1133 C 0.87225 0.68929 0.21113 0.0
C1134 C 0.33573 0.87846 0.26898 0.0
C1135 C 0.35012 0.86427 0.31638 0.0
H1136 H 0.3307 0.88245 0.17481 0.0
C1137 C 0.37232 0.84336 0.30297 0.0
H1138 H 0.31851 0.89457 0.27735 0.0
C1139 C 0.37944 0.83638 0.24395 0.0
C1140 C 0.36452 0.85003 0.19657 0.0
H1141 H 0.38396 0.83186 0.33811 0.0
H1142 H 0.3962 0.8198 0.23559 0.0
C1143 C 0.34278 0.87141 0.20996 0.0
C1144 C 0.19074 0.66106 0.71011 0.0
C1145 C 0.16902 0.68246 0.69672 0.0
H1146 H 0.21498 0.63788 0.7775 0.0
C1147 C 0.1541 0.69611 0.74411 0.0
H1148 H 0.20281 0.65002 0.67495 0.0
C1149 C 0.16121 0.68912 0.80313 0.0
C1150 C 0.18338 0.66819 0.81653 0.0
H1151 H 0.13736 0.71271 0.73576 0.0
H1152 H 0.14957 0.70063 0.83827 0.0
C1153 C 0.19778 0.654 0.76913 0.0
C1154 C 0.37284 0.1892 0.71062 0.0
C1155 C 0.35101 0.16795 0.69709 0.0
H1156 H 0.39631 0.21305 0.77816 0.0
C1157 C 0.33687 0.15341 0.74438 0.0
H1158 H 0.38426 0.20098 0.67555 0.0
C1159 C 0.34379 0.16049 0.80344 0.0
C1160 C 0.36514 0.18223 0.81697 0.0
H1161 H 0.31992 0.13704 0.7359 0.0
H1162 H 0.33188 0.14921 0.83851 0.0
C1163 C 0.37985 0.19618 0.76968 0.0
C1164 C 0.83741 0.37934 0.7703 0.0
C1165 C 0.85101 0.36432 0.81761 0.0
H1166 H 0.83292 0.38402 0.67616 0.0
C1167 C 0.87237 0.34258 0.8041 0.0
H1168 H 0.82084 0.39609 0.77875 0.0
C1169 C 0.87944 0.33562 0.74504 0.0
C1170 C 0.86528 0.35011 0.69772 0.0
H1171 H 0.88338 0.33043 0.83919 0.0
H1172 H 0.89553 0.3184 0.73658 0.0
C1173 C 0.8444 0.37231 0.71125 0.0
C1174 C 0.65425 0.83704 0.77006 0.0
C1175 C 0.66925 0.85054 0.81751 0.0
H1176 H 0.64963 0.83271 0.67589 0.0
C1177 C 0.69105 0.87188 0.80421 0.0
H1178 H 0.63745 0.82049 0.77834 0.0
C1179 C 0.69808 0.87902 0.74522 0.0
C1180 C 0.68359 0.86497 0.69776 0.0
H1181 H 0.7032 0.88281 0.8394 0.0
H1182 H 0.71533 0.89509 0.73691 0.0
C1183 C 0.66134 0.84411 0.71108 0.0
C1184 C 0.86265 0.71153 0.73809 0.0
C1185 C 0.8466 0.69487 0.69658 0.0
H1186 H 0.87144 0.71978 0.8302 0.0
C1187 C 0.82604 0.67385 0.71669 0.0
H1188 H 0.8787 0.72777 0.72356 0.0
C1189 C 0.82142 0.66974 0.77751 0.0
C1190 C 0.83785 0.68604 0.81902 0.0
H1191 H 0.8133 0.66083 0.68539 0.0
H1192 H 0.8054 0.65348 0.79205 0.0
C1193 C 0.85859 0.70687 0.79891 0.0
C1194 C 0.35867 0.82581 0.71525 0.0
C1195 C 0.33796 0.84666 0.69511 0.0
H1196 H 0.37881 0.80498 0.79063 0.0
C1197 C 0.32161 0.86306 0.73658 0.0
H1198 H 0.37146 0.81282 0.68398 0.0
C1199 C 0.32629 0.85904 0.79741 0.0
C1200 C 0.34682 0.838 0.81755 0.0
H1201 H 0.30562 0.87935 0.72202 0.0
H1202 H 0.31362 0.87214 0.82869 0.0
C1203 C 0.36279 0.82124 0.77607 0.0
C1204 C 0.20808 0.35829 0.71618 0.0
C1205 C 0.18739 0.33747 0.69583 0.0
H1206 H 0.22871 0.37846 0.79176 0.0
C1207 C 0.1711 0.32092 0.73715 0.0
H1208 H 0.22098 0.37124 0.68504 0.0
C1209 C 0.17506 0.32551 0.79802 0.0
C1210 C 0.19592 0.34616 0.81838 0.0
H1211 H 0.15493 0.30483 0.72244 0.0
H1212 H 0.16203 0.31269 0.82917 0.0
C1213 C 0.21259 0.36233 0.77705 0.0
C1214 C 0.67003 0.21223 0.77805 0.0
C1215 C 0.68643 0.19578 0.81937 0.0
H1216 H 0.66096 0.22043 0.68602 0.0
C1217 C 0.70725 0.1751 0.79902 0.0
H1218 H 0.65376 0.2282 0.79277 0.0
C1219 C 0.71182 0.17111 0.73816 0.0
C1220 C 0.69507 0.1872 0.69684 0.0
H1221 H 0.72024 0.16223 0.83017 0.0
H1222 H 0.72808 0.15512 0.72345 0.0
C1223 C 0.67405 0.20768 0.71718 0.0
C1224 C 0.8639 0.32141 0.27774 0.0
C1225 C 0.84747 0.33782 0.31908 0.0
H1226 H 0.87301 0.31326 0.1857 0.0
C1227 C 0.82662 0.35848 0.29877 0.0
H1228 H 0.88019 0.30546 0.29244 0.0
C1229 C 0.82206 0.36248 0.23791 0.0
C1230 C 0.83884 0.34644 0.19657 0.0
H1231 H 0.81361 0.37132 0.32993 0.0
H1232 H 0.80578 0.37846 0.22322 0.0
C1233 C 0.85989 0.32598 0.21687 0.0
C1234 C 0.70735 0.85958 0.21665 0.0
C1235 C 0.68684 0.83851 0.1966 0.0
H1236 H 0.728 0.88001 0.29195 0.0
C1237 C 0.67086 0.8218 0.23816 0.0
H1238 H 0.72002 0.87264 0.18531 0.0
C1239 C 0.67497 0.82646 0.29896 0.0
C1240 C 0.69567 0.84735 0.31901 0.0
H1241 H 0.65486 0.8055 0.22368 0.0
H1242 H 0.66218 0.81351 0.3303 0.0
C1243 C 0.71201 0.8637 0.27746 0.0
C1244 C 0.20725 0.67352 0.29752 0.0
C1245 C 0.18673 0.69455 0.3177 0.0
H1246 H 0.22793 0.65323 0.22209 0.0
C1247 C 0.17076 0.71133 0.27625 0.0
H1248 H 0.21992 0.66041 0.32878 0.0
C1249 C 0.17488 0.70677 0.21542 0.0
C1250 C 0.19559 0.68594 0.19524 0.0
H1251 H 0.15475 0.7276 0.29083 0.0
H1252 H 0.16209 0.71978 0.18417 0.0
C1253 C 0.21193 0.66952 0.23669 0.0
C1254 C 0.32211 0.16969 0.27714 0.0
C1255 C 0.33876 0.18597 0.31833 0.0
H1256 H 0.31367 0.16068 0.18518 0.0
C1257 C 0.3596 0.2066 0.29787 0.0
H1258 H 0.306 0.15358 0.29198 0.0
C1259 C 0.3635 0.21114 0.23698 0.0
C1260 C 0.34719 0.19453 0.19578 0.0
H1261 H 0.37261 0.21949 0.32894 0.0
H1262 H 0.3796 0.22726 0.22214 0.0
C1263 C 0.32659 0.17366 0.21625 0.0
loop_
_geom_bond_atom_site_label_1
_geom_bond_atom_site_label_2
_geom_bond_distance
_geom_bond_site_symmetry_2
_ccdc_geom_bond_type
Co0 O2 2.143 . S
Co0 O8 2.074 1_556 S
Co0 O11 2.093 . S
Co0 O24 2.097 . S
Co0 N41 2.151 . S
Co0 N49 2.214 1_556 S
Co1 O2 2.160 1_554 S
Co1 O7 2.058 . S
Co1 O17 2.057 . S
Co1 O32 2.037 . S
Co1 N36 2.145 . S
Co1 N57 2.257 1_554 S
O2 Co0 2.143 . S
O2 Co1 2.160 1_556 S
C3 O4 1.278 . S
C3 O11 1.224 . S
O4 C3 1.278 . S
C5 O6 1.247 . S
C5 O17 1.232 . S
O6 C5 1.247 . S
O7 Co1 2.058 . S
O7 C33 1.269 . S
O8 Co0 2.074 1_554 S
O8 C33 1.257 . S
H9 C34 0.930 . S
H10 C40 0.930 . S
O11 Co0 2.093 . S
O11 C3 1.224 . S
H12 C44 0.929 . S
H13 C46 0.930 . S
H14 C47 0.930 . S
H15 C45 0.929 . S
H16 C48 0.928 . S
O17 Co1 2.057 . S
O17 C5 1.232 . S
H18 C37 0.929 . S
H19 C38 0.929 . S
H20 C50 0.931 . S
H21 C42 0.929 . S
H22 C51 0.930 . S
H23 C43 0.931 . S
O24 Co0 2.097 . S
O24 C52 1.214 1_556 S
H25 C53 0.929 . S
H26 C54 0.929 . S
H27 C55 0.930 . S
H28 C56 0.929 . S
H29 C58 0.930 . S
H30 C35 0.930 . S
H31 C39 0.930 . S
O32 Co1 2.037 . S
O32 C52 1.234 . S
C33 O7 1.269 . S
C33 O8 1.257 . S
C34 H9 0.930 . S
C34 C37 1.388 . S
C34 C39 1.418 . S
C35 H30 0.930 . S
C35 C38 1.404 . S
C35 C39 1.353 . S
N36 Co1 2.145 . S
N36 C37 1.397 . S
N36 C38 1.334 . S
C37 H18 0.929 . S
C37 C34 1.388 . S
C37 N36 1.397 . S
C38 H19 0.929 . S
C38 C35 1.404 . S
C38 N36 1.334 . S
C39 H31 0.930 . S
C39 C34 1.418 . S
C39 C35 1.353 . S
C40 H10 0.930 . S
C40 N41 1.330 . S
C40 C42 1.446 . S
N41 Co0 2.151 . S
N41 C40 1.330 . S
N41 C45 1.418 1_556 S
C42 H21 0.929 . S
C42 C40 1.446 . S
C42 C43 1.343 . S
C43 H23 0.931 . S
C43 C42 1.343 . S
C43 C44 1.256 1_556 S
C44 H12 0.929 . S
C44 C43 1.256 1_554 S
C44 C45 1.251 . S
C45 H15 0.929 . S
C45 N41 1.418 1_554 S
C45 C44 1.251 . S
C46 H13 0.930 . S
C46 C48 1.406 . S
C46 C51 1.261 1_556 S
C47 H14 0.930 . S
C47 N49 1.325 . S
C47 C50 1.357 . S
C48 H16 0.928 . S
C48 C46 1.406 . S
C48 N49 1.261 1_556 S
N49 Co0 2.214 1_554 S
N49 C47 1.325 . S
N49 C48 1.261 1_554 S
C50 H20 0.931 . S
C50 C47 1.357 . S
C50 C51 1.312 . S
C51 H22 0.930 . S
C51 C46 1.261 1_554 S
C51 C50 1.312 . S
C52 O24 1.214 1_554 S
C52 O32 1.234 . S
C53 H25 0.929 . S
C53 C56 1.391 . S
C53 C58 1.391 . S
C54 H26 0.929 . S
C54 C55 1.390 . S
C54 N57 1.391 . S
C55 H27 0.930 . S
C55 C54 1.390 . S
C55 C56 1.392 . S
C56 H28 0.929 . S
C56 C53 1.391 . S
C56 C55 1.392 . S
N57 Co1 2.257 1_556 S
N57 C54 1.391 . S
N57 C58 1.388 . S
C58 H29 0.930 . S
C58 C53 1.391 . S
C58 N57 1.388 . S
Co59 O61 2.143 . S
Co59 O67 2.074 1_556 S
Co59 O70 2.093 . S
Co59 O83 2.097 . S
Co59 N100 2.151 . S
Co59 N108 2.214 1_556 S
Co60 O61 2.160 1_554 S
Co60 O66 2.058 . S
Co60 O76 2.057 . S
Co60 O91 2.037 . S
Co60 N95 2.145 . S
Co60 N116 2.257 1_554 S
O61 Co59 2.143 . S
O61 Co60 2.160 1_556 S
C62 O63 1.278 . S
C62 O70 1.224 . S
O63 C62 1.278 . S
C64 O65 1.247 . S
C64 O76 1.232 . S
O65 C64 1.247 . S
O66 Co60 2.058 . S
O66 C92 1.269 . S
O67 Co59 2.074 1_554 S
O67 C92 1.257 . S
H68 C93 0.930 . S
H69 C99 0.930 . S
O70 Co59 2.093 . S
O70 C62 1.224 . S
H71 C103 0.929 . S
H72 C105 0.930 . S
H73 C106 0.930 . S
H74 C104 0.929 . S
H75 C107 0.928 . S
O76 Co60 2.057 . S
O76 C64 1.232 . S
H77 C96 0.929 . S
H78 C97 0.929 . S
H79 C109 0.931 . S
H80 C101 0.929 . S
H81 C110 0.930 . S
H82 C102 0.931 . S
O83 Co59 2.097 . S
O83 C111 1.214 1_556 S
H84 C112 0.929 . S
H85 C113 0.929 . S
H86 C114 0.930 . S
H87 C115 0.929 . S
H88 C117 0.930 . S
H89 C94 0.930 . S
H90 C98 0.930 . S
O91 Co60 2.037 . S
O91 C111 1.234 . S
C92 O66 1.269 . S
C92 O67 1.257 . S
C93 H68 0.930 . S
C93 C96 1.388 . S
C93 C98 1.418 . S
C94 H89 0.930 . S
C94 C97 1.404 . S
C94 C98 1.353 . S
N95 Co60 2.145 . S
N95 C96 1.397 . S
N95 C97 1.334 . S
C96 H77 0.929 . S
C96 C93 1.388 . S
C96 N95 1.397 . S
C97 H78 0.929 . S
C97 C94 1.404 . S
C97 N95 1.334 . S
C98 H90 0.930 . S
C98 C93 1.418 . S
C98 C94 1.353 . S
C99 H69 0.930 . S
C99 N100 1.330 . S
C99 C101 1.446 . S
N100 Co59 2.151 . S
N100 C99 1.330 . S
N100 C104 1.418 1_556 S
C101 H80 0.929 . S
C101 C99 1.446 . S
C101 C102 1.343 . S
C102 H82 0.931 . S
C102 C101 1.343 . S
C102 C103 1.256 1_556 S
C103 H71 0.929 . S
C103 C102 1.256 1_554 S
C103 C104 1.251 . S
C104 H74 0.929 . S
C104 N100 1.418 1_554 S
C104 C103 1.251 . S
C105 H72 0.930 . S
C105 C107 1.406 . S
C105 C110 1.261 1_556 S
C106 H73 0.930 . S
C106 N108 1.325 . S
C106 C109 1.357 . S
C107 H75 0.928 . S
C107 C105 1.406 . S
C107 N108 1.261 1_556 S
N108 Co59 2.214 1_554 S
N108 C106 1.325 . S
N108 C107 1.261 1_554 S
C109 H79 0.931 . S
C109 C106 1.357 . S
C109 C110 1.312 . S
C110 H81 0.930 . S
C110 C105 1.261 1_554 S
C110 C109 1.312 . S
C111 O83 1.214 1_554 S
C111 O91 1.234 . S
C112 H84 0.929 . S
C112 C115 1.391 . S
C112 C117 1.391 . S
C113 H85 0.929 . S
C113 C114 1.390 . S
C113 N116 1.391 . S
C114 H86 0.930 . S
C114 C113 1.390 . S
C114 C115 1.392 . S
C115 H87 0.929 . S
C115 C112 1.391 . S
C115 C114 1.392 . S
N116 Co60 2.257 1_556 S
N116 C113 1.391 . S
N116 C117 1.388 . S
C117 H88 0.930 . S
C117 C112 1.391 . S
C117 N116 1.388 . S
Co118 O120 2.143 . S
Co118 O126 2.074 1_556 S
Co118 O129 2.093 . S
Co118 O142 2.097 . S
Co118 N159 2.151 . S
Co118 N167 2.214 1_556 S
Co119 O120 2.160 1_554 S
Co119 O125 2.058 . S
Co119 O135 2.057 . S
Co119 O150 2.037 . S
Co119 N154 2.145 . S
Co119 N175 2.257 1_554 S
O120 Co118 2.143 . S
O120 Co119 2.160 1_556 S
C121 O122 1.278 . S
C121 O129 1.224 . S
O122 C121 1.278 . S
C123 O124 1.247 . S
C123 O135 1.232 . S
O124 C123 1.247 . S
O125 Co119 2.058 . S
O125 C151 1.269 . S
O126 Co118 2.074 1_554 S
O126 C151 1.257 . S
H127 C152 0.930 . S
H128 C158 0.930 . S
O129 Co118 2.093 . S
O129 C121 1.224 . S
H130 C162 0.929 . S
H131 C164 0.930 . S
H132 C165 0.930 . S
H133 C163 0.929 . S
H134 C166 0.928 . S
O135 Co119 2.057 . S
O135 C123 1.232 . S
H136 C155 0.929 . S
H137 C156 0.929 . S
H138 C168 0.931 . S
H139 C160 0.929 . S
H140 C169 0.930 . S
H141 C161 0.931 . S
O142 Co118 2.097 . S
O142 C170 1.214 1_556 S
H143 C171 0.929 . S
H144 C172 0.929 . S
H145 C173 0.930 . S
H146 C174 0.929 . S
H147 C176 0.930 . S
H148 C153 0.930 . S
H149 C157 0.930 . S
O150 Co119 2.037 . S
O150 C170 1.234 . S
C151 O125 1.269 . S
C151 O126 1.257 . S
C152 H127 0.930 . S
C152 C155 1.388 . S
C152 C157 1.418 . S
C153 H148 0.930 . S
C153 C156 1.404 . S
C153 C157 1.353 . S
N154 Co119 2.145 . S
N154 C155 1.397 . S
N154 C156 1.334 . S
C155 H136 0.929 . S
C155 C152 1.388 . S
C155 N154 1.397 . S
C156 H137 0.929 . S
C156 C153 1.404 . S
C156 N154 1.334 . S
C157 H149 0.930 . S
C157 C152 1.418 . S
C157 C153 1.353 . S
C158 H128 0.930 . S
C158 N159 1.330 . S
C158 C160 1.446 . S
N159 Co118 2.151 . S
N159 C158 1.330 . S
N159 C163 1.418 1_556 S
C160 H139 0.929 . S
C160 C158 1.446 . S
C160 C161 1.343 . S
C161 H141 0.931 . S
C161 C160 1.343 . S
C161 C162 1.256 1_556 S
C162 H130 0.929 . S
C162 C161 1.256 1_554 S
C162 C163 1.251 . S
C163 H133 0.929 . S
C163 N159 1.418 1_554 S
C163 C162 1.251 . S
C164 H131 0.930 . S
C164 C166 1.406 . S
C164 C169 1.261 1_556 S
C165 H132 0.930 . S
C165 N167 1.325 . S
C165 C168 1.357 . S
C166 H134 0.928 . S
C166 C164 1.406 . S
C166 N167 1.261 1_556 S
N167 Co118 2.214 1_554 S
N167 C165 1.325 . S
N167 C166 1.261 1_554 S
C168 H138 0.931 . S
C168 C165 1.357 . S
C168 C169 1.312 . S
C169 H140 0.930 . S
C169 C164 1.261 1_554 S
C169 C168 1.312 . S
C170 O142 1.214 1_554 S
C170 O150 1.234 . S
C171 H143 0.929 . S
C171 C174 1.391 . S
C171 C176 1.391 . S
C172 H144 0.929 . S
C172 C173 1.390 . S
C172 N175 1.391 . S
C173 H145 0.930 . S
C173 C172 1.390 . S
C173 C174 1.392 . S
C174 H146 0.929 . S
C174 C171 1.391 . S
C174 C173 1.392 . S
N175 Co119 2.257 1_556 S
N175 C172 1.391 . S
N175 C176 1.388 . S
C176 H147 0.930 . S
C176 C171 1.391 . S
C176 N175 1.388 . S
Co177 O179 2.143 . S
Co177 O185 2.074 1_556 S
Co177 O188 2.093 . S
Co177 O201 2.097 . S
Co177 N218 2.151 . S
Co177 N226 2.214 1_556 S
Co178 O179 2.160 1_554 S
Co178 O184 2.058 . S
Co178 O194 2.057 . S
Co178 O209 2.037 . S
Co178 N213 2.145 . S
Co178 N234 2.257 1_554 S
O179 Co177 2.143 . S
O179 Co178 2.160 1_556 S
C180 O181 1.278 . S
C180 O188 1.224 . S
O181 C180 1.278 . S
C182 O183 1.247 . S
C182 O194 1.232 . S
O183 C182 1.247 . S
O184 Co178 2.058 . S
O184 C210 1.269 . S
O185 Co177 2.074 1_554 S
O185 C210 1.257 . S
H186 C211 0.930 . S
H187 C217 0.930 . S
O188 Co177 2.093 . S
O188 C180 1.224 . S
H189 C221 0.929 . S
H190 C223 0.930 . S
H191 C224 0.930 . S
H192 C222 0.929 . S
H193 C225 0.928 . S
O194 Co178 2.057 . S
O194 C182 1.232 . S
H195 C214 0.929 . S
H196 C215 0.929 . S
H197 C227 0.931 . S
H198 C219 0.929 . S
H199 C228 0.930 . S
H200 C220 0.931 . S
O201 Co177 2.097 . S
O201 C229 1.214 1_556 S
H202 C230 0.929 . S
H203 C231 0.929 . S
H204 C232 0.930 . S
H205 C233 0.929 . S
H206 C235 0.930 . S
H207 C212 0.930 . S
H208 C216 0.930 . S
O209 Co178 2.037 . S
O209 C229 1.234 . S
C210 O184 1.269 . S
C210 O185 1.257 . S
C211 H186 0.930 . S
C211 C214 1.388 . S
C211 C216 1.418 . S
C212 H207 0.930 . S
C212 C215 1.404 . S
C212 C216 1.353 . S
N213 Co178 2.145 . S
N213 C214 1.397 . S
N213 C215 1.334 . S
C214 H195 0.929 . S
C214 C211 1.388 . S
C214 N213 1.397 . S
C215 H196 0.929 . S
C215 C212 1.404 . S
C215 N213 1.334 . S
C216 H208 0.930 . S
C216 C211 1.418 . S
C216 C212 1.353 . S
C217 H187 0.930 . S
C217 N218 1.330 . S
C217 C219 1.446 . S
N218 Co177 2.151 . S
N218 C217 1.330 . S
N218 C222 1.418 1_556 S
C219 H198 0.929 . S
C219 C217 1.446 . S
C219 C220 1.343 . S
C220 H200 0.931 . S
C220 C219 1.343 . S
C220 C221 1.256 1_556 S
C221 H189 0.929 . S
C221 C220 1.256 1_554 S
C221 C222 1.251 . S
C222 H192 0.929 . S
C222 N218 1.418 1_554 S
C222 C221 1.251 . S
C223 H190 0.930 . S
C223 C225 1.406 . S
C223 C228 1.261 1_556 S
C224 H191 0.930 . S
C224 N226 1.325 . S
C224 C227 1.357 . S
C225 H193 0.928 . S
C225 C223 1.406 . S
C225 N226 1.261 1_556 S
N226 Co177 2.214 1_554 S
N226 C224 1.325 . S
N226 C225 1.261 1_554 S
C227 H197 0.931 . S
C227 C224 1.357 . S
C227 C228 1.312 . S
C228 H199 0.930 . S
C228 C223 1.261 1_554 S
C228 C227 1.312 . S
C229 O201 1.214 1_554 S
C229 O209 1.234 . S
C230 H202 0.929 . S
C230 C233 1.391 . S
C230 C235 1.391 . S
C231 H203 0.929 . S
C231 C232 1.390 . S
C231 N234 1.391 . S
C232 H204 0.930 . S
C232 C231 1.390 . S
C232 C233 1.392 . S
C233 H205 0.929 . S
C233 C230 1.391 . S
C233 C232 1.392 . S
N234 Co178 2.257 1_556 S
N234 C231 1.391 . S
N234 C235 1.388 . S
C235 H206 0.930 . S
C235 C230 1.391 . S
C235 N234 1.388 . S
Co236 O238 2.143 . S
Co236 O244 2.074 1_554 S
Co236 O247 2.093 . S
Co236 O260 2.097 . S
Co236 N277 2.151 . S
Co236 N285 2.214 . S
Co237 O238 2.160 1_556 S
Co237 O243 2.058 . S
Co237 O253 2.057 . S
Co237 O268 2.037 . S
Co237 N272 2.145 . S
Co237 N293 2.257 1_556 S
O238 Co236 2.143 . S
O238 Co237 2.160 1_554 S
C239 O240 1.278 . S
C239 O247 1.224 . S
O240 C239 1.278 . S
C241 O242 1.245 1_556 S
C241 O253 1.232 . S
O242 C241 1.245 1_554 S
O243 Co237 2.058 . S
O243 C269 1.269 . S
O244 Co236 2.074 1_556 S
O244 C269 1.257 . S
H245 C270 0.930 . S
H246 C276 0.930 . S
O247 Co236 2.093 . S
O247 C239 1.224 . S
H248 C280 0.929 . S
H249 C282 0.930 . S
H250 C283 0.930 . S
H251 C281 0.929 . S
H252 C284 0.928 . S
O253 Co237 2.057 . S
O253 C241 1.232 . S
H254 C273 0.929 . S
H255 C274 0.929 . S
H256 C286 0.931 . S
H257 C278 0.929 . S
H258 C287 0.930 . S
H259 C279 0.931 . S
O260 Co236 2.097 . S
O260 C288 1.214 1_554 S
H261 C289 0.929 . S
H262 C290 0.929 . S
H263 C291 0.930 . S
H264 C292 0.929 . S
H265 C294 0.930 . S
H266 C271 0.930 . S
H267 C275 0.930 . S
O268 Co237 2.037 . S
O268 C288 1.234 . S
C269 O243 1.269 . S
C269 O244 1.257 . S
C270 H245 0.930 . S
C270 C273 1.388 . S
C270 C275 1.418 . S
C271 H266 0.930 . S
C271 C274 1.404 . S
C271 C275 1.353 . S
N272 Co237 2.145 . S
N272 C273 1.397 . S
N272 C274 1.334 . S
C273 H254 0.929 . S
C273 C270 1.388 . S
C273 N272 1.397 . S
C274 H255 0.929 . S
C274 C271 1.404 . S
C274 N272 1.334 . S
C275 H267 0.930 . S
C275 C270 1.418 . S
C275 C271 1.353 . S
C276 H246 0.930 . S
C276 N277 1.330 . S
C276 C278 1.446 . S
N277 Co236 2.151 . S
N277 C276 1.330 . S
N277 C281 1.418 1_554 S
C278 H257 0.929 . S
C278 C276 1.446 . S
C278 C279 1.332 . S
C279 H259 0.931 . S
C279 C278 1.332 . S
C279 C280 1.267 1_554 S
C280 H248 0.929 . S
C280 C279 1.267 1_556 S
C280 C281 1.251 . S
C281 H251 0.929 . S
C281 N277 1.418 1_556 S
C281 C280 1.251 . S
C282 H249 0.930 . S
C282 C284 1.406 . S
C282 C287 1.261 1_554 S
C283 H250 0.930 . S
C283 N285 1.325 1_556 S
C283 C286 1.357 . S
C284 H252 0.928 . S
C284 C282 1.406 . S
C284 N285 1.261 . S
N285 Co236 2.214 . S
N285 C283 1.325 1_554 S
N285 C284 1.261 . S
C286 H256 0.931 . S
C286 C283 1.357 . S
C286 C287 1.312 . S
C287 H258 0.930 . S
C287 C282 1.261 1_556 S
C287 C286 1.312 . S
C288 O260 1.214 1_556 S
C288 O268 1.234 . S
C289 H261 0.929 . S
C289 C292 1.391 . S
C289 C294 1.391 . S
C290 H262 0.929 . S
C290 C291 1.390 . S
C290 N293 1.391 . S
C291 H263 0.930 . S
C291 C290 1.390 . S
C291 C292 1.392 . S
C292 H264 0.929 . S
C292 C289 1.391 . S
C292 C291 1.392 . S
N293 Co237 2.257 1_554 S
N293 C290 1.391 . S
N293 C294 1.388 . S
C294 H265 0.930 . S
C294 C289 1.391 . S
C294 N293 1.388 . S
Co295 O297 2.143 . S
Co295 O303 2.074 1_554 S
Co295 O306 2.093 . S
Co295 O319 2.097 . S
Co295 N336 2.151 . S
Co295 N344 2.214 . S
Co296 O297 2.160 1_556 S
Co296 O302 2.058 . S
Co296 O312 2.057 . S
Co296 O327 2.037 . S
Co296 N331 2.145 . S
Co296 N352 2.257 1_556 S
O297 Co295 2.143 . S
O297 Co296 2.160 1_554 S
C298 O299 1.278 . S
C298 O306 1.224 . S
O299 C298 1.278 . S
C300 O301 1.245 1_556 S
C300 O312 1.232 . S
O301 C300 1.245 1_554 S
O302 Co296 2.058 . S
O302 C328 1.269 . S
O303 Co295 2.074 1_556 S
O303 C328 1.257 . S
H304 C329 0.930 . S
H305 C335 0.930 . S
O306 Co295 2.093 . S
O306 C298 1.224 . S
H307 C339 0.929 . S
H308 C341 0.930 . S
H309 C342 0.930 . S
H310 C340 0.929 . S
H311 C343 0.928 . S
O312 Co296 2.057 . S
O312 C300 1.232 . S
H313 C332 0.929 . S
H314 C333 0.929 . S
H315 C345 0.931 . S
H316 C337 0.929 . S
H317 C346 0.930 . S
H318 C338 0.931 . S
O319 Co295 2.097 . S
O319 C347 1.214 1_554 S
H320 C348 0.929 . S
H321 C349 0.929 . S
H322 C350 0.930 . S
H323 C351 0.929 . S
H324 C353 0.930 . S
H325 C330 0.930 . S
H326 C334 0.930 . S
O327 Co296 2.037 . S
O327 C347 1.234 . S
C328 O302 1.269 . S
C328 O303 1.257 . S
C329 H304 0.930 . S
C329 C332 1.388 . S
C329 C334 1.418 . S
C330 H325 0.930 . S
C330 C333 1.404 . S
C330 C334 1.353 . S
N331 Co296 2.145 . S
N331 C332 1.397 . S
N331 C333 1.334 . S
C332 H313 0.929 . S
C332 C329 1.388 . S
C332 N331 1.397 . S
C333 H314 0.929 . S
C333 C330 1.404 . S
C333 N331 1.334 . S
C334 H326 0.930 . S
C334 C329 1.418 . S
C334 C330 1.353 . S
C335 H305 0.930 . S
C335 N336 1.330 . S
C335 C337 1.446 . S
N336 Co295 2.151 . S
N336 C335 1.330 . S
N336 C340 1.418 1_554 S
C337 H316 0.929 . S
C337 C335 1.446 . S
C337 C338 1.332 . S
C338 H318 0.931 . S
C338 C337 1.332 . S
C338 C339 1.267 1_554 S
C339 H307 0.929 . S
C339 C338 1.267 1_556 S
C339 C340 1.251 . S
C340 H310 0.929 . S
C340 N336 1.418 1_556 S
C340 C339 1.251 . S
C341 H308 0.930 . S
C341 C343 1.406 . S
C341 C346 1.261 1_554 S
C342 H309 0.930 . S
C342 N344 1.325 1_556 S
C342 C345 1.357 . S
C343 H311 0.928 . S
C343 C341 1.406 . S
C343 N344 1.261 . S
N344 Co295 2.214 . S
N344 C342 1.325 1_554 S
N344 C343 1.261 . S
C345 H315 0.931 . S
C345 C342 1.357 . S
C345 C346 1.312 . S
C346 H317 0.930 . S
C346 C341 1.261 1_556 S
C346 C345 1.312 . S
C347 O319 1.214 1_556 S
C347 O327 1.234 . S
C348 H320 0.929 . S
C348 C351 1.391 . S
C348 C353 1.391 . S
C349 H321 0.929 . S
C349 C350 1.390 . S
C349 N352 1.391 . S
C350 H322 0.930 . S
C350 C349 1.390 . S
C350 C351 1.392 . S
C351 H323 0.929 . S
C351 C348 1.391 . S
C351 C350 1.392 . S
N352 Co296 2.257 1_554 S
N352 C349 1.391 . S
N352 C353 1.388 . S
C353 H324 0.930 . S
C353 C348 1.391 . S
C353 N352 1.388 . S
Co354 O356 2.143 . S
Co354 O362 2.074 1_554 S
Co354 O365 2.093 . S
Co354 O378 2.097 . S
Co354 N395 2.151 . S
Co354 N403 2.214 . S
Co355 O356 2.160 1_556 S
Co355 O361 2.058 . S
Co355 O371 2.057 . S
Co355 O386 2.037 . S
Co355 N390 2.145 . S
Co355 N411 2.257 1_556 S
O356 Co354 2.143 . S
O356 Co355 2.160 1_554 S
C357 O358 1.278 . S
C357 O365 1.224 . S
O358 C357 1.278 . S
C359 O360 1.245 1_556 S
C359 O371 1.232 . S
O360 C359 1.245 1_554 S
O361 Co355 2.058 . S
O361 C387 1.269 . S
O362 Co354 2.074 1_556 S
O362 C387 1.257 . S
H363 C388 0.930 . S
H364 C394 0.930 . S
O365 Co354 2.093 . S
O365 C357 1.224 . S
H366 C398 0.929 . S
H367 C400 0.930 . S
H368 C401 0.930 . S
H369 C399 0.929 . S
H370 C402 0.928 . S
O371 Co355 2.057 . S
O371 C359 1.232 . S
H372 C391 0.929 . S
H373 C392 0.929 . S
H374 C404 0.931 . S
H375 C396 0.929 . S
H376 C405 0.930 . S
H377 C397 0.931 . S
O378 Co354 2.097 . S
O378 C406 1.214 1_554 S
H379 C407 0.929 . S
H380 C408 0.929 . S
H381 C409 0.930 . S
H382 C410 0.929 . S
H383 C412 0.930 . S
H384 C389 0.930 . S
H385 C393 0.930 . S
O386 Co355 2.037 . S
O386 C406 1.234 . S
C387 O361 1.269 . S
C387 O362 1.257 . S
C388 H363 0.930 . S
C388 C391 1.388 . S
C388 C393 1.418 . S
C389 H384 0.930 . S
C389 C392 1.404 . S
C389 C393 1.353 . S
N390 Co355 2.145 . S
N390 C391 1.397 . S
N390 C392 1.334 . S
C391 H372 0.929 . S
C391 C388 1.388 . S
C391 N390 1.397 . S
C392 H373 0.929 . S
C392 C389 1.404 . S
C392 N390 1.334 . S
C393 H385 0.930 . S
C393 C388 1.418 . S
C393 C389 1.353 . S
C394 H364 0.930 . S
C394 N395 1.330 . S
C394 C396 1.446 . S
N395 Co354 2.151 . S
N395 C394 1.330 . S
N395 C399 1.418 1_554 S
C396 H375 0.929 . S
C396 C394 1.446 . S
C396 C397 1.332 . S
C397 H377 0.931 . S
C397 C396 1.332 . S
C397 C398 1.267 1_554 S
C398 H366 0.929 . S
C398 C397 1.267 1_556 S
C398 C399 1.251 . S
C399 H369 0.929 . S
C399 N395 1.418 1_556 S
C399 C398 1.251 . S
C400 H367 0.930 . S
C400 C402 1.406 . S
C400 C405 1.261 1_554 S
C401 H368 0.930 . S
C401 N403 1.325 1_556 S
C401 C404 1.357 . S
C402 H370 0.928 . S
C402 C400 1.406 . S
C402 N403 1.261 . S
N403 Co354 2.214 . S
N403 C401 1.325 1_554 S
N403 C402 1.261 . S
C404 H374 0.931 . S
C404 C401 1.357 . S
C404 C405 1.312 . S
C405 H376 0.930 . S
C405 C400 1.261 1_556 S
C405 C404 1.312 . S
C406 O378 1.214 1_556 S
C406 O386 1.234 . S
C407 H379 0.929 . S
C407 C410 1.391 . S
C407 C412 1.391 . S
C408 H380 0.929 . S
C408 C409 1.390 . S
C408 N411 1.391 . S
C409 H381 0.930 . S
C409 C408 1.390 . S
C409 C410 1.392 . S
C410 H382 0.929 . S
C410 C407 1.391 . S
C410 C409 1.392 . S
N411 Co355 2.257 1_554 S
N411 C408 1.391 . S
N411 C412 1.388 . S
C412 H383 0.930 . S
C412 C407 1.391 . S
C412 N411 1.388 . S
Co413 O415 2.143 . S
Co413 O421 2.074 1_554 S
Co413 O424 2.093 . S
Co413 O437 2.097 . S
Co413 N454 2.151 . S
Co413 N462 2.214 . S
Co414 O415 2.160 1_556 S
Co414 O420 2.058 . S
Co414 O430 2.057 . S
Co414 O445 2.037 . S
Co414 N449 2.145 . S
Co414 N470 2.257 1_556 S
O415 Co413 2.143 . S
O415 Co414 2.160 1_554 S
C416 O417 1.278 . S
C416 O424 1.224 . S
O417 C416 1.278 . S
C418 O419 1.245 1_556 S
C418 O430 1.232 . S
O419 C418 1.245 1_554 S
O420 Co414 2.058 . S
O420 C446 1.269 . S
O421 Co413 2.074 1_556 S
O421 C446 1.257 . S
H422 C447 0.930 . S
H423 C453 0.930 . S
O424 Co413 2.093 . S
O424 C416 1.224 . S
H425 C457 0.929 . S
H426 C459 0.930 . S
H427 C460 0.930 . S
H428 C458 0.929 . S
H429 C461 0.928 . S
O430 Co414 2.057 . S
O430 C418 1.232 . S
H431 C450 0.929 . S
H432 C451 0.929 . S
H433 C463 0.931 . S
H434 C455 0.929 . S
H435 C464 0.930 . S
H436 C456 0.931 . S
O437 Co413 2.097 . S
O437 C465 1.214 1_554 S
H438 C466 0.929 . S
H439 C467 0.929 . S
H440 C468 0.930 . S
H441 C469 0.929 . S
H442 C471 0.930 . S
H443 C448 0.930 . S
H444 C452 0.930 . S
O445 Co414 2.037 . S
O445 C465 1.234 . S
C446 O420 1.269 . S
C446 O421 1.257 . S
C447 H422 0.930 . S
C447 C450 1.388 . S
C447 C452 1.418 . S
C448 H443 0.930 . S
C448 C451 1.404 . S
C448 C452 1.353 . S
N449 Co414 2.145 . S
N449 C450 1.397 . S
N449 C451 1.334 . S
C450 H431 0.929 . S
C450 C447 1.388 . S
C450 N449 1.397 . S
C451 H432 0.929 . S
C451 C448 1.404 . S
C451 N449 1.334 . S
C452 H444 0.930 . S
C452 C447 1.418 . S
C452 C448 1.353 . S
C453 H423 0.930 . S
C453 N454 1.330 . S
C453 C455 1.446 . S
N454 Co413 2.151 . S
N454 C453 1.330 . S
N454 C458 1.418 1_554 S
C455 H434 0.929 . S
C455 C453 1.446 . S
C455 C456 1.332 . S
C456 H436 0.931 . S
C456 C455 1.332 . S
C456 C457 1.267 1_554 S
C457 H425 0.929 . S
C457 C456 1.267 1_556 S
C457 C458 1.251 . S
C458 H428 0.929 . S
C458 N454 1.418 1_556 S
C458 C457 1.251 . S
C459 H426 0.930 . S
C459 C461 1.406 . S
C459 C464 1.261 1_554 S
C460 H427 0.930 . S
C460 N462 1.325 1_556 S
C460 C463 1.357 . S
C461 H429 0.928 . S
C461 C459 1.406 . S
C461 N462 1.261 . S
N462 Co413 2.214 . S
N462 C460 1.325 1_554 S
N462 C461 1.261 . S
C463 H433 0.931 . S
C463 C460 1.357 . S
C463 C464 1.312 . S
C464 H435 0.930 . S
C464 C459 1.261 1_556 S
C464 C463 1.312 . S
C465 O437 1.214 1_556 S
C465 O445 1.234 . S
C466 H438 0.929 . S
C466 C469 1.391 . S
C466 C471 1.391 . S
C467 H439 0.929 . S
C467 C468 1.390 . S
C467 N470 1.391 . S
C468 H440 0.930 . S
C468 C467 1.390 . S
C468 C469 1.392 . S
C469 H441 0.929 . S
C469 C466 1.391 . S
C469 C468 1.392 . S
N470 Co414 2.257 1_554 S
N470 C467 1.391 . S
N470 C471 1.388 . S
C471 H442 0.930 . S
C471 C466 1.391 . S
C471 N470 1.388 . S
Co472 O474 2.143 . S
Co472 O480 2.074 . S
Co472 O483 2.093 . S
Co472 O496 2.097 . S
Co472 N513 2.151 . S
Co472 N521 2.214 . S
Co473 O474 2.160 . S
Co473 O479 2.058 . S
Co473 O489 2.057 . S
Co473 O504 2.037 . S
Co473 N508 2.145 . S
Co473 N529 2.257 . S
O474 Co472 2.143 . S
O474 Co473 2.160 . S
C475 O476 1.278 . S
C475 O483 1.224 . S
O476 C475 1.278 . S
C477 O478 1.245 . S
C477 O489 1.232 . S
O478 C477 1.245 . S
O479 Co473 2.058 . S
O479 C505 1.269 . S
O480 Co472 2.074 . S
O480 C505 1.257 . S
H481 C506 0.930 . S
H482 C512 0.930 . S
O483 Co472 2.093 . S
O483 C475 1.224 . S
H484 C516 0.929 . S
H485 C518 0.930 . S
H486 C519 0.930 . S
H487 C517 0.929 . S
H488 C520 0.928 . S
O489 Co473 2.057 . S
O489 C477 1.232 . S
H490 C509 0.929 . S
H491 C510 0.929 . S
H492 C522 0.931 . S
H493 C514 0.929 . S
H494 C523 0.930 . S
H495 C515 0.931 . S
O496 Co472 2.097 . S
O496 C524 1.214 . S
H497 C525 0.929 . S
H498 C526 0.929 . S
H499 C527 0.930 . S
H500 C528 0.929 . S
H501 C530 0.930 . S
H502 C507 0.930 . S
H503 C511 0.930 . S
O504 Co473 2.037 . S
O504 C524 1.234 . S
C505 O479 1.269 . S
C505 O480 1.257 . S
C506 H481 0.930 . S
C506 C509 1.388 . S
C506 C511 1.418 . S
C507 H502 0.930 . S
C507 C510 1.404 . S
C507 C511 1.353 . S
N508 Co473 2.145 . S
N508 C509 1.397 . S
N508 C510 1.334 . S
C509 H490 0.929 . S
C509 C506 1.388 . S
C509 N508 1.397 . S
C510 H491 0.929 . S
C510 C507 1.404 . S
C510 N508 1.334 . S
C511 H503 0.930 . S
C511 C506 1.418 . S
C511 C507 1.353 . S
C512 H482 0.930 . S
C512 N513 1.330 . S
C512 C514 1.446 . S
N513 Co472 2.151 . S
N513 C512 1.330 . S
N513 C517 1.418 . S
C514 H493 0.929 . S
C514 C512 1.446 . S
C514 C515 1.332 . S
C515 H495 0.931 . S
C515 C514 1.332 . S
C515 C516 1.267 . S
C516 H484 0.929 . S
C516 C515 1.267 . S
C516 C517 1.251 . S
C517 H487 0.929 . S
C517 N513 1.418 . S
C517 C516 1.251 . S
C518 H485 0.930 . S
C518 C520 1.406 . S
C518 C523 1.261 . S
C519 H486 0.930 . S
C519 N521 1.325 . S
C519 C522 1.357 . S
C520 H488 0.928 . S
C520 C518 1.406 . S
C520 N521 1.261 . S
N521 Co472 2.214 . S
N521 C519 1.325 . S
N521 C520 1.261 . S
C522 H492 0.931 . S
C522 C519 1.357 . S
C522 C523 1.312 . S
C523 H494 0.930 . S
C523 C518 1.261 . S
C523 C522 1.312 . S
C524 O496 1.214 . S
C524 O504 1.234 . S
C525 H497 0.929 . S
C525 C528 1.391 . S
C525 C530 1.391 . S
C526 H498 0.929 . S
C526 C527 1.390 . S
C526 N529 1.391 . S
C527 H499 0.930 . S
C527 C526 1.390 . S
C527 C528 1.392 . S
C528 H500 0.929 . S
C528 C525 1.391 . S
C528 C527 1.392 . S
N529 Co473 2.257 . S
N529 C526 1.391 . S
N529 C530 1.388 . S
C530 H501 0.930 . S
C530 C525 1.391 . S
C530 N529 1.388 . S
Co531 O533 2.143 . S
Co531 O539 2.074 . S
Co531 O542 2.093 . S
Co531 O555 2.097 . S
Co531 N572 2.151 . S
Co531 N580 2.214 . S
Co532 O533 2.160 . S
Co532 O538 2.058 . S
Co532 O548 2.057 . S
Co532 O563 2.037 . S
Co532 N567 2.145 . S
Co532 N588 2.257 . S
O533 Co531 2.143 . S
O533 Co532 2.160 . S
C534 O535 1.278 . S
C534 O542 1.224 . S
O535 C534 1.278 . S
C536 O537 1.245 . S
C536 O548 1.232 . S
O537 C536 1.245 . S
O538 Co532 2.058 . S
O538 C564 1.269 . S
O539 Co531 2.074 . S
O539 C564 1.257 . S
H540 C565 0.930 . S
H541 C571 0.930 . S
O542 Co531 2.093 . S
O542 C534 1.224 . S
H543 C575 0.929 . S
H544 C577 0.930 . S
H545 C578 0.930 . S
H546 C576 0.929 . S
H547 C579 0.928 . S
O548 Co532 2.057 . S
O548 C536 1.232 . S
H549 C568 0.929 . S
H550 C569 0.929 . S
H551 C581 0.931 . S
H552 C573 0.929 . S
H553 C582 0.930 . S
H554 C574 0.931 . S
O555 Co531 2.097 . S
O555 C583 1.214 . S
H556 C584 0.929 . S
H557 C585 0.929 . S
H558 C586 0.930 . S
H559 C587 0.929 . S
H560 C589 0.930 . S
H561 C566 0.930 . S
H562 C570 0.930 . S
O563 Co532 2.037 . S
O563 C583 1.234 . S
C564 O538 1.269 . S
C564 O539 1.257 . S
C565 H540 0.930 . S
C565 C568 1.388 . S
C565 C570 1.418 . S
C566 H561 0.930 . S
C566 C569 1.404 . S
C566 C570 1.353 . S
N567 Co532 2.145 . S
N567 C568 1.397 . S
N567 C569 1.334 . S
C568 H549 0.929 . S
C568 C565 1.388 . S
C568 N567 1.397 . S
C569 H550 0.929 . S
C569 C566 1.404 . S
C569 N567 1.334 . S
C570 H562 0.930 . S
C570 C565 1.418 . S
C570 C566 1.353 . S
C571 H541 0.930 . S
C571 N572 1.330 . S
C571 C573 1.446 . S
N572 Co531 2.151 . S
N572 C571 1.330 . S
N572 C576 1.418 . S
C573 H552 0.929 . S
C573 C571 1.446 . S
C573 C574 1.332 . S
C574 H554 0.931 . S
C574 C573 1.332 . S
C574 C575 1.267 . S
C575 H543 0.929 . S
C575 C574 1.267 . S
C575 C576 1.251 . S
C576 H546 0.929 . S
C576 N572 1.418 . S
C576 C575 1.251 . S
C577 H544 0.930 . S
C577 C579 1.406 . S
C577 C582 1.261 . S
C578 H545 0.930 . S
C578 N580 1.325 . S
C578 C581 1.357 . S
C579 H547 0.928 . S
C579 C577 1.406 . S
C579 N580 1.261 . S
N580 Co531 2.214 . S
N580 C578 1.325 . S
N580 C579 1.261 . S
C581 H551 0.931 . S
C581 C578 1.357 . S
C581 C582 1.312 . S
C582 H553 0.930 . S
C582 C577 1.261 . S
C582 C581 1.312 . S
C583 O555 1.214 . S
C583 O563 1.234 . S
C584 H556 0.929 . S
C584 C587 1.391 . S
C584 C589 1.391 . S
C585 H557 0.929 . S
C585 C586 1.390 . S
C585 N588 1.391 . S
C586 H558 0.930 . S
C586 C585 1.390 . S
C586 C587 1.392 . S
C587 H559 0.929 . S
C587 C584 1.391 . S
C587 C586 1.392 . S
N588 Co532 2.257 . S
N588 C585 1.391 . S
N588 C589 1.388 . S
C589 H560 0.930 . S
C589 C584 1.391 . S
C589 N588 1.388 . S
Co590 O592 2.143 . S
Co590 O598 2.074 . S
Co590 O601 2.093 . S
Co590 O614 2.097 . S
Co590 N631 2.151 . S
Co590 N639 2.214 . S
Co591 O592 2.160 . S
Co591 O597 2.058 . S
Co591 O607 2.057 . S
Co591 O622 2.037 . S
Co591 N626 2.145 . S
Co591 N647 2.257 . S
O592 Co590 2.143 . S
O592 Co591 2.160 . S
C593 O594 1.278 . S
C593 O601 1.224 . S
O594 C593 1.278 . S
C595 O596 1.245 . S
C595 O607 1.232 . S
O596 C595 1.245 . S
O597 Co591 2.058 . S
O597 C623 1.269 . S
O598 Co590 2.074 . S
O598 C623 1.257 . S
H599 C624 0.930 . S
H600 C630 0.930 . S
O601 Co590 2.093 . S
O601 C593 1.224 . S
H602 C634 0.929 . S
H603 C636 0.930 . S
H604 C637 0.930 . S
H605 C635 0.929 . S
H606 C638 0.928 . S
O607 Co591 2.057 . S
O607 C595 1.232 . S
H608 C627 0.929 . S
H609 C628 0.929 . S
H610 C640 0.931 . S
H611 C632 0.929 . S
H612 C641 0.930 . S
H613 C633 0.931 . S
O614 Co590 2.097 . S
O614 C642 1.214 . S
H615 C643 0.929 . S
H616 C644 0.929 . S
H617 C645 0.930 . S
H618 C646 0.929 . S
H619 C648 0.930 . S
H620 C625 0.930 . S
H621 C629 0.930 . S
O622 Co591 2.037 . S
O622 C642 1.234 . S
C623 O597 1.269 . S
C623 O598 1.257 . S
C624 H599 0.930 . S
C624 C627 1.388 . S
C624 C629 1.418 . S
C625 H620 0.930 . S
C625 C628 1.404 . S
C625 C629 1.353 . S
N626 Co591 2.145 . S
N626 C627 1.397 . S
N626 C628 1.334 . S
C627 H608 0.929 . S
C627 C624 1.388 . S
C627 N626 1.397 . S
C628 H609 0.929 . S
C628 C625 1.404 . S
C628 N626 1.334 . S
C629 H621 0.930 . S
C629 C624 1.418 . S
C629 C625 1.353 . S
C630 H600 0.930 . S
C630 N631 1.330 . S
C630 C632 1.446 . S
N631 Co590 2.151 . S
N631 C630 1.330 . S
N631 C635 1.418 . S
C632 H611 0.929 . S
C632 C630 1.446 . S
C632 C633 1.332 . S
C633 H613 0.931 . S
C633 C632 1.332 . S
C633 C634 1.267 . S
C634 H602 0.929 . S
C634 C633 1.267 . S
C634 C635 1.251 . S
C635 H605 0.929 . S
C635 N631 1.418 . S
C635 C634 1.251 . S
C636 H603 0.930 . S
C636 C638 1.406 . S
C636 C641 1.261 . S
C637 H604 0.930 . S
C637 N639 1.325 . S
C637 C640 1.357 . S
C638 H606 0.928 . S
C638 C636 1.406 . S
C638 N639 1.261 . S
N639 Co590 2.214 . S
N639 C637 1.325 . S
N639 C638 1.261 . S
C640 H610 0.931 . S
C640 C637 1.357 . S
C640 C641 1.312 . S
C641 H612 0.930 . S
C641 C636 1.261 . S
C641 C640 1.312 . S
C642 O614 1.214 . S
C642 O622 1.234 . S
C643 H615 0.929 . S
C643 C646 1.391 . S
C643 C648 1.391 . S
C644 H616 0.929 . S
C644 C645 1.390 . S
C644 N647 1.391 . S
C645 H617 0.930 . S
C645 C644 1.390 . S
C645 C646 1.392 . S
C646 H618 0.929 . S
C646 C643 1.391 . S
C646 C645 1.392 . S
N647 Co591 2.257 . S
N647 C644 1.391 . S
N647 C648 1.388 . S
C648 H619 0.930 . S
C648 C643 1.391 . S
C648 N647 1.388 . S
Co649 O651 2.143 . S
Co649 O657 2.074 . S
Co649 O660 2.093 . S
Co649 O673 2.097 . S
Co649 N690 2.151 . S
Co649 N698 2.214 . S
Co650 O651 2.160 . S
Co650 O656 2.058 . S
Co650 O666 2.057 . S
Co650 O681 2.037 . S
Co650 N685 2.145 . S
Co650 N706 2.257 . S
O651 Co649 2.143 . S
O651 Co650 2.160 . S
C652 O653 1.278 . S
C652 O660 1.224 . S
O653 C652 1.278 . S
C654 O655 1.245 . S
C654 O666 1.232 . S
O655 C654 1.245 . S
O656 Co650 2.058 . S
O656 C682 1.269 . S
O657 Co649 2.074 . S
O657 C682 1.257 . S
H658 C683 0.930 . S
H659 C689 0.930 . S
O660 Co649 2.093 . S
O660 C652 1.224 . S
H661 C693 0.929 . S
H662 C695 0.930 . S
H663 C696 0.930 . S
H664 C694 0.929 . S
H665 C697 0.928 . S
O666 Co650 2.057 . S
O666 C654 1.232 . S
H667 C686 0.929 . S
H668 C687 0.929 . S
H669 C699 0.931 . S
H670 C691 0.929 . S
H671 C700 0.930 . S
H672 C692 0.931 . S
O673 Co649 2.097 . S
O673 C701 1.214 . S
H674 C702 0.929 . S
H675 C703 0.929 . S
H676 C704 0.930 . S
H677 C705 0.929 . S
H678 C707 0.930 . S
H679 C684 0.930 . S
H680 C688 0.930 . S
O681 Co650 2.037 . S
O681 C701 1.234 . S
C682 O656 1.269 . S
C682 O657 1.257 . S
C683 H658 0.930 . S
C683 C686 1.388 . S
C683 C688 1.418 . S
C684 H679 0.930 . S
C684 C687 1.404 . S
C684 C688 1.353 . S
N685 Co650 2.145 . S
N685 C686 1.397 . S
N685 C687 1.334 . S
C686 H667 0.929 . S
C686 C683 1.388 . S
C686 N685 1.397 . S
C687 H668 0.929 . S
C687 C684 1.404 . S
C687 N685 1.334 . S
C688 H680 0.930 . S
C688 C683 1.418 . S
C688 C684 1.353 . S
C689 H659 0.930 . S
C689 N690 1.330 . S
C689 C691 1.446 . S
N690 Co649 2.151 . S
N690 C689 1.330 . S
N690 C694 1.418 . S
C691 H670 0.929 . S
C691 C689 1.446 . S
C691 C692 1.332 . S
C692 H672 0.931 . S
C692 C691 1.332 . S
C692 C693 1.267 . S
C693 H661 0.929 . S
C693 C692 1.267 . S
C693 C694 1.251 . S
C694 H664 0.929 . S
C694 N690 1.418 . S
C694 C693 1.251 . S
C695 H662 0.930 . S
C695 C697 1.406 . S
C695 C700 1.261 . S
C696 H663 0.930 . S
C696 N698 1.325 . S
C696 C699 1.357 . S
C697 H665 0.928 . S
C697 C695 1.406 . S
C697 N698 1.261 . S
N698 Co649 2.214 . S
N698 C696 1.325 . S
N698 C697 1.261 . S
C699 H669 0.931 . S
C699 C696 1.357 . S
C699 C700 1.312 . S
C700 H671 0.930 . S
C700 C695 1.261 . S
C700 C699 1.312 . S
C701 O673 1.214 . S
C701 O681 1.234 . S
C702 H674 0.929 . S
C702 C705 1.391 . S
C702 C707 1.391 . S
C703 H675 0.929 . S
C703 C704 1.390 . S
C703 N706 1.391 . S
C704 H676 0.930 . S
C704 C703 1.390 . S
C704 C705 1.392 . S
C705 H677 0.929 . S
C705 C702 1.391 . S
C705 C704 1.392 . S
N706 Co650 2.257 . S
N706 C703 1.391 . S
N706 C707 1.388 . S
C707 H678 0.930 . S
C707 C702 1.391 . S
C707 N706 1.388 . S
Co708 O710 2.143 . S
Co708 O716 2.074 . S
Co708 O719 2.093 . S
Co708 O732 2.097 . S
Co708 N749 2.151 . S
Co708 N757 2.214 . S
Co709 O710 2.160 . S
Co709 O715 2.058 . S
Co709 O725 2.057 . S
Co709 O740 2.037 . S
Co709 N744 2.145 . S
Co709 N765 2.257 . S
O710 Co708 2.143 . S
O710 Co709 2.160 . S
C711 O712 1.278 . S
C711 O719 1.224 . S
O712 C711 1.278 . S
C713 O714 1.245 . S
C713 O725 1.232 . S
O714 C713 1.245 . S
O715 Co709 2.058 . S
O715 C741 1.269 . S
O716 Co708 2.074 . S
O716 C741 1.257 . S
H717 C742 0.930 . S
H718 C748 0.930 . S
O719 Co708 2.093 . S
O719 C711 1.224 . S
H720 C752 0.929 . S
H721 C754 0.930 . S
H722 C755 0.930 . S
H723 C753 0.929 . S
H724 C756 0.928 . S
O725 Co709 2.057 . S
O725 C713 1.232 . S
H726 C745 0.929 . S
H727 C746 0.929 . S
H728 C758 0.931 . S
H729 C750 0.929 . S
H730 C759 0.930 . S
H731 C751 0.931 . S
O732 Co708 2.097 . S
O732 C760 1.214 . S
H733 C761 0.929 . S
H734 C762 0.929 . S
H735 C763 0.930 . S
H736 C764 0.929 . S
H737 C766 0.930 . S
H738 C743 0.930 . S
H739 C747 0.930 . S
O740 Co709 2.037 . S
O740 C760 1.234 . S
C741 O715 1.269 . S
C741 O716 1.257 . S
C742 H717 0.930 . S
C742 C745 1.388 . S
C742 C747 1.418 . S
C743 H738 0.930 . S
C743 C746 1.404 . S
C743 C747 1.353 . S
N744 Co709 2.145 . S
N744 C745 1.397 . S
N744 C746 1.334 . S
C745 H726 0.929 . S
C745 C742 1.388 . S
C745 N744 1.397 . S
C746 H727 0.929 . S
C746 C743 1.404 . S
C746 N744 1.334 . S
C747 H739 0.930 . S
C747 C742 1.418 . S
C747 C743 1.353 . S
C748 H718 0.930 . S
C748 N749 1.330 . S
C748 C750 1.446 . S
N749 Co708 2.151 . S
N749 C748 1.330 . S
N749 C753 1.418 . S
C750 H729 0.929 . S
C750 C748 1.446 . S
C750 C751 1.332 . S
C751 H731 0.931 . S
C751 C750 1.332 . S
C751 C752 1.267 . S
C752 H720 0.929 . S
C752 C751 1.267 . S
C752 C753 1.251 . S
C753 H723 0.929 . S
C753 N749 1.418 . S
C753 C752 1.251 . S
C754 H721 0.930 . S
C754 C756 1.406 . S
C754 C759 1.261 . S
C755 H722 0.930 . S
C755 N757 1.325 . S
C755 C758 1.357 . S
C756 H724 0.928 . S
C756 C754 1.406 . S
C756 N757 1.261 . S
N757 Co708 2.214 . S
N757 C755 1.325 . S
N757 C756 1.261 . S
C758 H728 0.931 . S
C758 C755 1.357 . S
C758 C759 1.312 . S
C759 H730 0.930 . S
C759 C754 1.261 . S
C759 C758 1.312 . S
C760 O732 1.214 . S
C760 O740 1.234 . S
C761 H733 0.929 . S
C761 C764 1.391 . S
C761 C766 1.391 . S
C762 H734 0.929 . S
C762 C763 1.390 . S
C762 N765 1.391 . S
C763 H735 0.930 . S
C763 C762 1.390 . S
C763 C764 1.392 . S
C764 H736 0.929 . S
C764 C761 1.391 . S
C764 C763 1.392 . S
N765 Co709 2.257 . S
N765 C762 1.391 . S
N765 C766 1.388 . S
C766 H737 0.930 . S
C766 C761 1.391 . S
C766 N765 1.388 . S
Co767 O769 2.143 . S
Co767 O775 2.074 . S
Co767 O778 2.093 . S
Co767 O791 2.097 . S
Co767 N808 2.151 . S
Co767 N816 2.214 . S
Co768 O769 2.160 . S
Co768 O774 2.058 . S
Co768 O784 2.057 . S
Co768 O799 2.037 . S
Co768 N803 2.145 . S
Co768 N824 2.257 . S
O769 Co767 2.143 . S
O769 Co768 2.160 . S
C770 O771 1.278 . S
C770 O778 1.224 . S
O771 C770 1.278 . S
C772 O773 1.245 . S
C772 O784 1.232 . S
O773 C772 1.245 . S
O774 Co768 2.058 . S
O774 C800 1.269 . S
O775 Co767 2.074 . S
O775 C800 1.257 . S
H776 C801 0.930 . S
H777 C807 0.930 . S
O778 Co767 2.093 . S
O778 C770 1.224 . S
H779 C811 0.929 . S
H780 C813 0.930 . S
H781 C814 0.930 . S
H782 C812 0.929 . S
H783 C815 0.928 . S
O784 Co768 2.057 . S
O784 C772 1.232 . S
H785 C804 0.929 . S
H786 C805 0.929 . S
H787 C817 0.931 . S
H788 C809 0.929 . S
H789 C818 0.930 . S
H790 C810 0.931 . S
O791 Co767 2.097 . S
O791 C819 1.214 . S
H792 C820 0.929 . S
H793 C821 0.929 . S
H794 C822 0.930 . S
H795 C823 0.929 . S
H796 C825 0.930 . S
H797 C802 0.930 . S
H798 C806 0.930 . S
O799 Co768 2.037 . S
O799 C819 1.234 . S
C800 O774 1.269 . S
C800 O775 1.257 . S
C801 H776 0.930 . S
C801 C804 1.388 . S
C801 C806 1.418 . S
C802 H797 0.930 . S
C802 C805 1.404 . S
C802 C806 1.353 . S
N803 Co768 2.145 . S
N803 C804 1.397 . S
N803 C805 1.334 . S
C804 H785 0.929 . S
C804 C801 1.388 . S
C804 N803 1.397 . S
C805 H786 0.929 . S
C805 C802 1.404 . S
C805 N803 1.334 . S
C806 H798 0.930 . S
C806 C801 1.418 . S
C806 C802 1.353 . S
C807 H777 0.930 . S
C807 N808 1.330 . S
C807 C809 1.446 . S
N808 Co767 2.151 . S
N808 C807 1.330 . S
N808 C812 1.418 . S
C809 H788 0.929 . S
C809 C807 1.446 . S
C809 C810 1.332 . S
C810 H790 0.931 . S
C810 C809 1.332 . S
C810 C811 1.267 . S
C811 H779 0.929 . S
C811 C810 1.267 . S
C811 C812 1.251 . S
C812 H782 0.929 . S
C812 N808 1.418 . S
C812 C811 1.251 . S
C813 H780 0.930 . S
C813 C815 1.406 . S
C813 C818 1.261 . S
C814 H781 0.930 . S
C814 N816 1.325 . S
C814 C817 1.357 . S
C815 H783 0.928 . S
C815 C813 1.406 . S
C815 N816 1.261 . S
N816 Co767 2.214 . S
N816 C814 1.325 . S
N816 C815 1.261 . S
C817 H787 0.931 . S
C817 C814 1.357 . S
C817 C818 1.312 . S
C818 H789 0.930 . S
C818 C813 1.261 . S
C818 C817 1.312 . S
C819 O791 1.214 . S
C819 O799 1.234 . S
C820 H792 0.929 . S
C820 C823 1.391 . S
C820 C825 1.391 . S
C821 H793 0.929 . S
C821 C822 1.390 . S
C821 N824 1.391 . S
C822 H794 0.930 . S
C822 C821 1.390 . S
C822 C823 1.392 . S
C823 H795 0.929 . S
C823 C820 1.391 . S
C823 C822 1.392 . S
N824 Co768 2.257 . S
N824 C821 1.391 . S
N824 C825 1.388 . S
C825 H796 0.930 . S
C825 C820 1.391 . S
C825 N824 1.388 . S
Co826 O828 2.143 . S
Co826 O834 2.074 . S
Co826 O837 2.093 . S
Co826 O850 2.097 . S
Co826 N867 2.151 . S
Co826 N875 2.214 . S
Co827 O828 2.160 . S
Co827 O833 2.058 . S
Co827 O843 2.057 . S
Co827 O858 2.037 . S
Co827 N862 2.145 . S
Co827 N883 2.257 . S
O828 Co826 2.143 . S
O828 Co827 2.160 . S
C829 O830 1.278 . S
C829 O837 1.224 . S
O830 C829 1.278 . S
C831 O832 1.245 . S
C831 O843 1.232 . S
O832 C831 1.245 . S
O833 Co827 2.058 . S
O833 C859 1.269 . S
O834 Co826 2.074 . S
O834 C859 1.257 . S
H835 C860 0.930 . S
H836 C866 0.930 . S
O837 Co826 2.093 . S
O837 C829 1.224 . S
H838 C870 0.929 . S
H839 C872 0.930 . S
H840 C873 0.930 . S
H841 C871 0.929 . S
H842 C874 0.928 . S
O843 Co827 2.057 . S
O843 C831 1.232 . S
H844 C863 0.929 . S
H845 C864 0.929 . S
H846 C876 0.931 . S
H847 C868 0.929 . S
H848 C877 0.930 . S
H849 C869 0.931 . S
O850 Co826 2.097 . S
O850 C878 1.214 . S
H851 C879 0.929 . S
H852 C880 0.929 . S
H853 C881 0.930 . S
H854 C882 0.929 . S
H855 C884 0.930 . S
H856 C861 0.930 . S
H857 C865 0.930 . S
O858 Co827 2.037 . S
O858 C878 1.234 . S
C859 O833 1.269 . S
C859 O834 1.257 . S
C860 H835 0.930 . S
C860 C863 1.388 . S
C860 C865 1.418 . S
C861 H856 0.930 . S
C861 C864 1.404 . S
C861 C865 1.353 . S
N862 Co827 2.145 . S
N862 C863 1.397 . S
N862 C864 1.334 . S
C863 H844 0.929 . S
C863 C860 1.388 . S
C863 N862 1.397 . S
C864 H845 0.929 . S
C864 C861 1.404 . S
C864 N862 1.334 . S
C865 H857 0.930 . S
C865 C860 1.418 . S
C865 C861 1.353 . S
C866 H836 0.930 . S
C866 N867 1.330 . S
C866 C868 1.446 . S
N867 Co826 2.151 . S
N867 C866 1.330 . S
N867 C871 1.418 . S
C868 H847 0.929 . S
C868 C866 1.446 . S
C868 C869 1.332 . S
C869 H849 0.931 . S
C869 C868 1.332 . S
C869 C870 1.267 . S
C870 H838 0.929 . S
C870 C869 1.267 . S
C870 C871 1.251 . S
C871 H841 0.929 . S
C871 N867 1.418 . S
C871 C870 1.251 . S
C872 H839 0.930 . S
C872 C874 1.406 . S
C872 C877 1.261 . S
C873 H840 0.930 . S
C873 N875 1.325 . S
C873 C876 1.357 . S
C874 H842 0.928 . S
C874 C872 1.406 . S
C874 N875 1.261 . S
N875 Co826 2.214 . S
N875 C873 1.325 . S
N875 C874 1.261 . S
C876 H846 0.931 . S
C876 C873 1.357 . S
C876 C877 1.312 . S
C877 H848 0.930 . S
C877 C872 1.261 . S
C877 C876 1.312 . S
C878 O850 1.214 . S
C878 O858 1.234 . S
C879 H851 0.929 . S
C879 C882 1.391 . S
C879 C884 1.391 . S
C880 H852 0.929 . S
C880 C881 1.390 . S
C880 N883 1.391 . S
C881 H853 0.930 . S
C881 C880 1.390 . S
C881 C882 1.392 . S
C882 H854 0.929 . S
C882 C879 1.391 . S
C882 C881 1.392 . S
N883 Co827 2.257 . S
N883 C880 1.391 . S
N883 C884 1.388 . S
C884 H855 0.930 . S
C884 C879 1.391 . S
C884 N883 1.388 . S
Co885 O887 2.143 . S
Co885 O893 2.074 . S
Co885 O896 2.093 . S
Co885 O909 2.097 . S
Co885 N926 2.151 . S
Co885 N934 2.214 . S
Co886 O887 2.160 . S
Co886 O892 2.058 . S
Co886 O902 2.057 . S
Co886 O917 2.037 . S
Co886 N921 2.145 . S
Co886 N942 2.257 . S
O887 Co885 2.143 . S
O887 Co886 2.160 . S
C888 O889 1.278 . S
C888 O896 1.224 . S
O889 C888 1.278 . S
C890 O891 1.245 . S
C890 O902 1.232 . S
O891 C890 1.245 . S
O892 Co886 2.058 . S
O892 C918 1.269 . S
O893 Co885 2.074 . S
O893 C918 1.257 . S
H894 C919 0.930 . S
H895 C925 0.930 . S
O896 Co885 2.093 . S
O896 C888 1.224 . S
H897 C929 0.929 . S
H898 C931 0.930 . S
H899 C932 0.930 . S
H900 C930 0.929 . S
H901 C933 0.928 . S
O902 Co886 2.057 . S
O902 C890 1.232 . S
H903 C922 0.929 . S
H904 C923 0.929 . S
H905 C935 0.931 . S
H906 C927 0.929 . S
H907 C936 0.930 . S
H908 C928 0.931 . S
O909 Co885 2.097 . S
O909 C937 1.214 . S
H910 C938 0.929 . S
H911 C939 0.929 . S
H912 C940 0.930 . S
H913 C941 0.929 . S
H914 C943 0.930 . S
H915 C920 0.930 . S
H916 C924 0.930 . S
O917 Co886 2.037 . S
O917 C937 1.234 . S
C918 O892 1.269 . S
C918 O893 1.257 . S
C919 H894 0.930 . S
C919 C922 1.388 . S
C919 C924 1.418 . S
C920 H915 0.930 . S
C920 C923 1.404 . S
C920 C924 1.353 . S
N921 Co886 2.145 . S
N921 C922 1.397 . S
N921 C923 1.334 . S
C922 H903 0.929 . S
C922 C919 1.388 . S
C922 N921 1.397 . S
C923 H904 0.929 . S
C923 C920 1.404 . S
C923 N921 1.334 . S
C924 H916 0.930 . S
C924 C919 1.418 . S
C924 C920 1.353 . S
C925 H895 0.930 . S
C925 N926 1.330 . S
C925 C927 1.446 . S
N926 Co885 2.151 . S
N926 C925 1.330 . S
N926 C930 1.418 . S
C927 H906 0.929 . S
C927 C925 1.446 . S
C927 C928 1.332 . S
C928 H908 0.931 . S
C928 C927 1.332 . S
C928 C929 1.267 . S
C929 H897 0.929 . S
C929 C928 1.267 . S
C929 C930 1.251 . S
C930 H900 0.929 . S
C930 N926 1.418 . S
C930 C929 1.251 . S
C931 H898 0.930 . S
C931 C933 1.406 . S
C931 C936 1.261 . S
C932 H899 0.930 . S
C932 N934 1.325 . S
C932 C935 1.357 . S
C933 H901 0.928 . S
C933 C931 1.406 . S
C933 N934 1.261 . S
N934 Co885 2.214 . S
N934 C932 1.325 . S
N934 C933 1.261 . S
C935 H905 0.931 . S
C935 C932 1.357 . S
C935 C936 1.312 . S
C936 H907 0.930 . S
C936 C931 1.261 . S
C936 C935 1.312 . S
C937 O909 1.214 . S
C937 O917 1.234 . S
C938 H910 0.929 . S
C938 C941 1.391 . S
C938 C943 1.391 . S
C939 H911 0.929 . S
C939 C940 1.390 . S
C939 N942 1.391 . S
C940 H912 0.930 . S
C940 C939 1.390 . S
C940 C941 1.392 . S
C941 H913 0.929 . S
C941 C938 1.391 . S
C941 C940 1.392 . S
N942 Co886 2.257 . S
N942 C939 1.391 . S
N942 C943 1.388 . S
C943 H914 0.930 . S
C943 C938 1.391 . S
C943 N942 1.388 . S
C944 C945 1.387 1_554 S
C944 H948 0.949 1_554 S
C944 C953 1.392 . S
C945 C944 1.387 1_556 S
C945 C947 1.388 1_556 S
H946 C953 0.950 . S
C947 C945 1.388 1_554 S
C947 C949 1.390 . S
C947 H951 0.950 1_554 S
H948 C944 0.949 1_556 S
C949 C947 1.390 . S
C949 C950 1.387 . S
C949 H952 0.950 . S
C950 C949 1.387 . S
C950 C953 1.387 . S
H951 C947 0.950 1_556 S
H952 C949 0.950 . S
C953 C944 1.392 . S
C953 H946 0.950 . S
C953 C950 1.387 . S
C954 C955 1.387 1_554 S
C954 H958 0.949 1_554 S
C954 C963 1.392 . S
C955 C954 1.387 1_556 S
C955 C957 1.387 1_556 S
H956 C963 0.950 . S
C957 C955 1.387 1_554 S
C957 C959 1.390 . S
C957 H961 0.950 1_554 S
H958 C954 0.949 1_556 S
C959 C957 1.390 . S
C959 C960 1.387 . S
C959 H962 0.950 . S
C960 C959 1.387 . S
C960 C963 1.387 . S
H961 C957 0.950 1_556 S
H962 C959 0.950 . S
C963 C954 1.392 . S
C963 H956 0.950 . S
C963 C960 1.387 . S
C964 C965 1.387 1_554 S
C964 H968 0.949 1_554 S
C964 C973 1.391 . S
C965 C964 1.387 1_556 S
C965 C967 1.387 1_556 S
H966 C973 0.950 . S
C967 C965 1.387 1_554 S
C967 C969 1.391 . S
C967 H971 0.949 1_554 S
H968 C964 0.949 1_556 S
C969 C967 1.391 . S
C969 C970 1.387 . S
C969 H972 0.950 . S
C970 C969 1.387 . S
C970 C973 1.387 . S
H971 C967 0.949 1_556 S
H972 C969 0.950 . S
C973 C964 1.391 . S
C973 H966 0.950 . S
C973 C970 1.387 . S
C974 C975 1.387 . S
C974 H978 0.950 . S
C974 C983 1.390 1_556 S
C975 C974 1.387 . S
C975 C977 1.387 1_556 S
H976 C983 0.950 . S
C977 C975 1.387 1_554 S
C977 C979 1.390 . S
C977 H981 0.949 1_554 S
H978 C974 0.950 . S
C979 C977 1.390 . S
C979 C980 1.387 . S
C979 H982 0.950 . S
C980 C979 1.387 . S
C980 C983 1.387 . S
H981 C977 0.949 1_556 S
H982 C979 0.950 . S
C983 C974 1.390 1_554 S
C983 H976 0.950 . S
C983 C980 1.387 . S
C984 C985 1.387 . S
C984 H988 0.950 . S
C984 C993 1.390 1_545 S
C985 C984 1.387 . S
C985 C987 1.387 . S
H986 C993 0.950 . S
C987 C985 1.387 . S
C987 C989 1.390 1_545 S
C987 H991 0.950 . S
H988 C984 0.950 . S
C989 C987 1.390 1_565 S
C989 C990 1.387 . S
C989 H992 0.950 . S
C990 C989 1.387 . S
C990 C993 1.387 . S
H991 C987 0.950 . S
H992 C989 0.950 . S
C993 C984 1.390 1_565 S
C993 H986 0.950 . S
C993 C990 1.387 . S
C994 C995 1.387 . S
C994 H998 0.950 . S
C994 C1003 1.390 1_655 S
C995 C994 1.387 . S
C995 C997 1.387 . S
H996 C1003 0.950 . S
C997 C995 1.387 . S
C997 C999 1.390 1_655 S
C997 H1001 0.950 . S
H998 C994 0.950 . S
C999 C997 1.390 1_455 S
C999 C1000 1.387 . S
C999 H1002 0.950 . S
C1000 C999 1.387 . S
C1000 C1003 1.387 . S
H1001 C997 0.950 . S
H1002 C999 0.950 . S
C1003 C994 1.390 1_455 S
C1003 H996 0.950 . S
C1003 C1000 1.387 . S
C1004 C1005 1.387 . S
C1004 H1008 0.950 . S
C1004 C1013 1.390 1_545 S
C1005 C1004 1.387 . S
C1005 C1007 1.387 . S
H1006 C1013 0.950 . S
C1007 C1005 1.387 . S
C1007 C1009 1.390 1_545 S
C1007 H1011 0.950 . S
H1008 C1004 0.950 . S
C1009 C1007 1.390 1_565 S
C1009 C1010 1.387 . S
C1009 H1012 0.950 . S
C1010 C1009 1.387 . S
C1010 C1013 1.387 . S
H1011 C1007 0.950 . S
H1012 C1009 0.950 . S
C1013 C1004 1.390 1_565 S
C1013 H1006 0.950 . S
C1013 C1010 1.387 . S
C1014 C1015 1.387 . S
C1014 H1018 0.950 . S
C1014 C1023 1.390 1_455 S
C1015 C1014 1.387 . S
C1015 C1017 1.387 . S
H1016 C1023 0.950 . S
C1017 C1015 1.387 . S
C1017 C1019 1.390 1_455 S
C1017 H1021 0.950 . S
H1018 C1014 0.950 . S
C1019 C1017 1.390 1_655 S
C1019 C1020 1.387 . S
C1019 H1022 0.950 . S
C1020 C1019 1.387 . S
C1020 C1023 1.387 . S
H1021 C1017 0.950 . S
H1022 C1019 0.950 . S
C1023 C1014 1.390 1_655 S
C1023 H1016 0.950 . S
C1023 C1020 1.387 . S
C1024 C1025 1.387 . S
C1024 H1028 0.950 . S
C1024 C1033 1.390 . S
C1025 C1024 1.387 . S
C1025 C1027 1.387 1_554 S
H1026 C1033 0.950 . S
C1027 C1025 1.387 1_556 S
C1027 C1029 1.390 . S
C1027 H1031 0.950 . S
H1028 C1024 0.950 . S
C1029 C1027 1.390 . S
C1029 C1030 1.387 . S
C1029 H1032 0.950 . S
C1030 C1029 1.387 . S
C1030 C1033 1.387 1_556 S
H1031 C1027 0.950 . S
H1032 C1029 0.950 . S
C1033 C1024 1.390 . S
C1033 H1026 0.950 . S
C1033 C1030 1.387 1_554 S
C1034 C1035 1.387 . S
C1034 H1038 0.950 . S
C1034 C1043 1.390 . S
C1035 C1034 1.387 . S
C1035 C1037 1.387 1_556 S
H1036 C1043 0.950 . S
C1037 C1035 1.387 1_554 S
C1037 C1039 1.390 . S
C1037 H1041 0.950 . S
H1038 C1034 0.950 . S
C1039 C1037 1.390 . S
C1039 C1040 1.387 . S
C1039 H1042 0.950 . S
C1040 C1039 1.387 . S
C1040 C1043 1.387 1_554 S
H1041 C1037 0.950 . S
H1042 C1039 0.950 . S
C1043 C1034 1.390 . S
C1043 H1036 0.950 . S
C1043 C1040 1.387 1_556 S
C1044 C1045 1.387 1_556 S
C1044 H1048 0.950 . S
C1044 C1053 1.390 . S
C1045 C1044 1.387 1_554 S
C1045 C1047 1.387 . S
H1046 C1053 0.950 . S
C1047 C1045 1.387 . S
C1047 C1049 1.390 . S
C1047 H1051 0.950 . S
H1048 C1044 0.950 . S
C1049 C1047 1.390 . S
C1049 C1050 1.387 1_554 S
C1049 H1052 0.950 . S
C1050 C1049 1.387 1_556 S
C1050 C1053 1.387 . S
H1051 C1047 0.950 . S
H1052 C1049 0.950 . S
C1053 C1044 1.390 . S
C1053 H1046 0.950 . S
C1053 C1050 1.387 . S
C1054 C1055 1.387 1_554 S
C1054 H1058 0.950 . S
C1054 C1063 1.390 . S
C1055 C1054 1.387 1_556 S
C1055 C1057 1.387 . S
H1056 C1063 0.950 . S
C1057 C1055 1.387 . S
C1057 C1059 1.390 . S
C1057 H1061 0.950 . S
H1058 C1054 0.950 . S
C1059 C1057 1.390 . S
C1059 C1060 1.387 1_556 S
C1059 H1062 0.950 . S
C1060 C1059 1.387 1_554 S
C1060 C1063 1.387 . S
H1061 C1057 0.950 . S
H1062 C1059 0.950 . S
C1063 C1054 1.390 . S
C1063 H1056 0.950 . S
C1063 C1060 1.387 . S
C1064 C1065 1.387 . S
C1064 H1068 0.950 . S
C1064 C1073 1.390 . S
C1065 C1064 1.387 . S
C1065 C1067 1.387 . S
H1066 C1073 0.950 . S
C1067 C1065 1.387 . S
C1067 C1069 1.390 . S
C1067 H1071 0.950 . S
H1068 C1064 0.950 . S
C1069 C1067 1.390 . S
C1069 C1070 1.387 . S
C1069 H1072 0.950 . S
C1070 C1069 1.387 . S
C1070 C1073 1.387 . S
H1071 C1067 0.950 . S
H1072 C1069 0.950 . S
C1073 C1064 1.390 . S
C1073 H1066 0.950 . S
C1073 C1070 1.387 . S
C1074 C1075 1.387 . S
C1074 H1078 0.950 . S
C1074 C1083 1.390 . S
C1075 C1074 1.387 . S
C1075 C1077 1.387 . S
H1076 C1083 0.950 . S
C1077 C1075 1.387 . S
C1077 C1079 1.390 . S
C1077 H1081 0.950 . S
H1078 C1074 0.950 . S
C1079 C1077 1.390 . S
C1079 C1080 1.387 . S
C1079 H1082 0.950 . S
C1080 C1079 1.387 . S
C1080 C1083 1.387 . S
H1081 C1077 0.950 . S
H1082 C1079 0.950 . S
C1083 C1074 1.390 . S
C1083 H1076 0.950 . S
C1083 C1080 1.387 . S
C1084 C1085 1.387 . S
C1084 H1088 0.950 . S
C1084 C1093 1.390 . S
C1085 C1084 1.387 . S
C1085 C1087 1.387 . S
H1086 C1093 0.950 . S
C1087 C1085 1.387 . S
C1087 C1089 1.390 . S
C1087 H1091 0.950 . S
H1088 C1084 0.950 . S
C1089 C1087 1.390 . S
C1089 C1090 1.387 . S
C1089 H1092 0.950 . S
C1090 C1089 1.387 . S
C1090 C1093 1.387 . S
H1091 C1087 0.950 . S
H1092 C1089 0.950 . S
C1093 C1084 1.390 . S
C1093 H1086 0.950 . S
C1093 C1090 1.387 . S
C1094 C1095 1.387 . S
C1094 H1098 0.950 . S
C1094 C1103 1.390 . S
C1095 C1094 1.387 . S
C1095 C1097 1.387 . S
H1096 C1103 0.950 . S
C1097 C1095 1.387 . S
C1097 C1099 1.390 . S
C1097 H1101 0.950 . S
H1098 C1094 0.950 . S
C1099 C1097 1.390 . S
C1099 C1100 1.387 . S
C1099 H1102 0.950 . S
C1100 C1099 1.387 . S
C1100 C1103 1.387 . S
H1101 C1097 0.950 . S
H1102 C1099 0.950 . S
C1103 C1094 1.390 . S
C1103 H1096 0.950 . S
C1103 C1100 1.387 . S
C1104 C1105 1.387 . S
C1104 H1108 0.950 . S
C1104 C1113 1.390 . S
C1105 C1104 1.387 . S
C1105 C1107 1.387 . S
H1106 C1113 0.950 . S
C1107 C1105 1.387 . S
C1107 C1109 1.390 . S
C1107 H1111 0.950 . S
H1108 C1104 0.950 . S
C1109 C1107 1.390 . S
C1109 C1110 1.387 . S
C1109 H1112 0.950 . S
C1110 C1109 1.387 . S
C1110 C1113 1.387 . S
H1111 C1107 0.950 . S
H1112 C1109 0.950 . S
C1113 C1104 1.390 . S
C1113 H1106 0.950 . S
C1113 C1110 1.387 . S
C1114 C1115 1.387 . S
C1114 H1118 0.950 . S
C1114 C1123 1.390 . S
C1115 C1114 1.387 . S
C1115 C1117 1.387 . S
H1116 C1123 0.950 . S
C1117 C1115 1.387 . S
C1117 C1119 1.390 . S
C1117 H1121 0.950 . S
H1118 C1114 0.950 . S
C1119 C1117 1.390 . S
C1119 C1120 1.387 . S
C1119 H1122 0.950 . S
C1120 C1119 1.387 . S
C1120 C1123 1.387 . S
H1121 C1117 0.950 . S
H1122 C1119 0.950 . S
C1123 C1114 1.390 . S
C1123 H1116 0.950 . S
C1123 C1120 1.387 . S
C1124 C1125 1.387 . S
C1124 H1128 0.950 . S
C1124 C1133 1.390 . S
C1125 C1124 1.387 . S
C1125 C1127 1.387 . S
H1126 C1133 0.950 . S
C1127 C1125 1.387 . S
C1127 C1129 1.390 . S
C1127 H1131 0.950 . S
H1128 C1124 0.950 . S
C1129 C1127 1.390 . S
C1129 C1130 1.387 . S
C1129 H1132 0.950 . S
C1130 C1129 1.387 . S
C1130 C1133 1.387 . S
H1131 C1127 0.950 . S
H1132 C1129 0.950 . S
C1133 C1124 1.390 . S
C1133 H1126 0.950 . S
C1133 C1130 1.387 . S
C1134 C1135 1.387 . S
C1134 H1138 0.950 . S
C1134 C1143 1.390 . S
C1135 C1134 1.387 . S
C1135 C1137 1.387 . S
H1136 C1143 0.950 . S
C1137 C1135 1.387 . S
C1137 C1139 1.390 . S
C1137 H1141 0.950 . S
H1138 C1134 0.950 . S
C1139 C1137 1.390 . S
C1139 C1140 1.387 . S
C1139 H1142 0.950 . S
C1140 C1139 1.387 . S
C1140 C1143 1.387 . S
H1141 C1137 0.950 . S
H1142 C1139 0.950 . S
C1143 C1134 1.390 . S
C1143 H1136 0.950 . S
C1143 C1140 1.387 . S
C1144 C1145 1.387 . S
C1144 H1148 0.950 . S
C1144 C1153 1.390 . S
C1145 C1144 1.387 . S
C1145 C1147 1.387 . S
H1146 C1153 0.950 . S
C1147 C1145 1.387 . S
C1147 C1149 1.390 . S
C1147 H1151 0.950 . S
H1148 C1144 0.950 . S
C1149 C1147 1.390 . S
C1149 C1150 1.387 . S
C1149 H1152 0.950 . S
C1150 C1149 1.387 . S
C1150 C1153 1.387 . S
H1151 C1147 0.950 . S
H1152 C1149 0.950 . S
C1153 C1144 1.390 . S
C1153 H1146 0.950 . S
C1153 C1150 1.387 . S
C1154 C1155 1.387 . S
C1154 H1158 0.950 . S
C1154 C1163 1.390 . S
C1155 C1154 1.387 . S
C1155 C1157 1.387 . S
H1156 C1163 0.950 . S
C1157 C1155 1.387 . S
C1157 C1159 1.390 . S
C1157 H1161 0.950 . S
H1158 C1154 0.950 . S
C1159 C1157 1.390 . S
C1159 C1160 1.387 . S
C1159 H1162 0.950 . S
C1160 C1159 1.387 . S
C1160 C1163 1.387 . S
H1161 C1157 0.950 . S
H1162 C1159 0.950 . S
C1163 C1154 1.390 . S
C1163 H1156 0.950 . S
C1163 C1160 1.387 . S
C1164 C1165 1.387 . S
C1164 H1168 0.950 . S
C1164 C1173 1.390 . S
C1165 C1164 1.387 . S
C1165 C1167 1.387 . S
H1166 C1173 0.950 . S
C1167 C1165 1.387 . S
C1167 C1169 1.390 . S
C1167 H1171 0.950 . S
H1168 C1164 0.950 . S
C1169 C1167 1.390 . S
C1169 C1170 1.387 . S
C1169 H1172 0.950 . S
C1170 C1169 1.387 . S
C1170 C1173 1.387 . S
H1171 C1167 0.950 . S
H1172 C1169 0.950 . S
C1173 C1164 1.390 . S
C1173 H1166 0.950 . S
C1173 C1170 1.387 . S
C1174 C1175 1.387 . S
C1174 H1178 0.950 . S
C1174 C1183 1.390 . S
C1175 C1174 1.387 . S
C1175 C1177 1.387 . S
H1176 C1183 0.950 . S
C1177 C1175 1.387 . S
C1177 C1179 1.390 . S
C1177 H1181 0.950 . S
H1178 C1174 0.950 . S
C1179 C1177 1.390 . S
C1179 C1180 1.387 . S
C1179 H1182 0.950 . S
C1180 C1179 1.387 . S
C1180 C1183 1.387 . S
H1181 C1177 0.950 . S
H1182 C1179 0.950 . S
C1183 C1174 1.390 . S
C1183 H1176 0.950 . S
C1183 C1180 1.387 . S
C1184 C1185 1.387 . S
C1184 H1188 0.950 . S
C1184 C1193 1.390 . S
C1185 C1184 1.387 . S
C1185 C1187 1.387 . S
H1186 C1193 0.950 . S
C1187 C1185 1.387 . S
C1187 C1189 1.390 . S
C1187 H1191 0.950 . S
H1188 C1184 0.950 . S
C1189 C1187 1.390 . S
C1189 C1190 1.387 . S
C1189 H1192 0.950 . S
C1190 C1189 1.387 . S
C1190 C1193 1.387 . S
H1191 C1187 0.950 . S
H1192 C1189 0.950 . S
C1193 C1184 1.390 . S
C1193 H1186 0.950 . S
C1193 C1190 1.387 . S
C1194 C1195 1.387 . S
C1194 H1198 0.950 . S
C1194 C1203 1.390 . S
C1195 C1194 1.387 . S
C1195 C1197 1.387 . S
H1196 C1203 0.950 . S
C1197 C1195 1.387 . S
C1197 C1199 1.390 . S
C1197 H1201 0.950 . S
H1198 C1194 0.950 . S
C1199 C1197 1.390 . S
C1199 C1200 1.387 . S
C1199 H1202 0.950 . S
C1200 C1199 1.387 . S
C1200 C1203 1.387 . S
H1201 C1197 0.950 . S
H1202 C1199 0.950 . S
C1203 C1194 1.390 . S
C1203 H1196 0.950 . S
C1203 C1200 1.387 . S
C1204 C1205 1.387 . S
C1204 H1208 0.950 . S
C1204 C1213 1.390 . S
C1205 C1204 1.387 . S
C1205 C1207 1.387 . S
H1206 C1213 0.950 . S
C1207 C1205 1.387 . S
C1207 C1209 1.390 . S
C1207 H1211 0.950 . S
H1208 C1204 0.950 . S
C1209 C1207 1.390 . S
C1209 C1210 1.387 . S
C1209 H1212 0.950 . S
C1210 C1209 1.387 . S
C1210 C1213 1.387 . S
H1211 C1207 0.950 . S
H1212 C1209 0.950 . S
C1213 C1204 1.390 . S
C1213 H1206 0.950 . S
C1213 C1210 1.387 . S
C1214 C1215 1.387 . S
C1214 H1218 0.950 . S
C1214 C1223 1.390 . S
C1215 C1214 1.387 . S
C1215 C1217 1.387 . S
H1216 C1223 0.950 . S
C1217 C1215 1.387 . S
C1217 C1219 1.390 . S
C1217 H1221 0.950 . S
H1218 C1214 0.950 . S
C1219 C1217 1.390 . S
C1219 C1220 1.387 . S
C1219 H1222 0.950 . S
C1220 C1219 1.387 . S
C1220 C1223 1.387 . S
H1221 C1217 0.950 . S
H1222 C1219 0.950 . S
C1223 C1214 1.390 . S
C1223 H1216 0.950 . S
C1223 C1220 1.387 . S
C1224 C1225 1.387 . S
C1224 H1228 0.950 . S
C1224 C1233 1.390 . S
C1225 C1224 1.387 . S
C1225 C1227 1.387 . S
H1226 C1233 0.950 . S
C1227 C1225 1.387 . S
C1227 C1229 1.390 . S
C1227 H1231 0.950 . S
H1228 C1224 0.950 . S
C1229 C1227 1.390 . S
C1229 C1230 1.387 . S
C1229 H1232 0.950 . S
C1230 C1229 1.387 . S
C1230 C1233 1.387 . S
H1231 C1227 0.950 . S
H1232 C1229 0.950 . S
C1233 C1224 1.390 . S
C1233 H1226 0.950 . S
C1233 C1230 1.387 . S
C1234 C1235 1.387 . S
C1234 H1238 0.950 . S
C1234 C1243 1.390 . S
C1235 C1234 1.387 . S
C1235 C1237 1.387 . S
H1236 C1243 0.950 . S
C1237 C1235 1.387 . S
C1237 C1239 1.390 . S
C1237 H1241 0.950 . S
H1238 C1234 0.950 . S
C1239 C1237 1.390 . S
C1239 C1240 1.387 . S
C1239 H1242 0.950 . S
C1240 C1239 1.387 . S
C1240 C1243 1.387 . S
H1241 C1237 0.950 . S
H1242 C1239 0.950 . S
C1243 C1234 1.390 . S
C1243 H1236 0.950 . S
C1243 C1240 1.387 . S
C1244 C1245 1.387 . S
C1244 H1248 0.950 . S
C1244 C1253 1.390 . S
C1245 C1244 1.387 . S
C1245 C1247 1.387 . S
H1246 C1253 0.950 . S
C1247 C1245 1.387 . S
C1247 C1249 1.390 . S
C1247 H1251 0.950 . S
H1248 C1244 0.950 . S
C1249 C1247 1.390 . S
C1249 C1250 1.387 . S
C1249 H1252 0.950 . S
C1250 C1249 1.387 . S
C1250 C1253 1.387 . S
H1251 C1247 0.950 . S
H1252 C1249 0.950 . S
C1253 C1244 1.390 . S
C1253 H1246 0.950 . S
C1253 C1250 1.387 . S
C1254 C1255 1.387 . S
C1254 H1258 0.950 . S
C1254 C1263 1.390 . S
C1255 C1254 1.387 . S
C1255 C1257 1.387 . S
H1256 C1263 0.950 . S
C1257 C1255 1.387 . S
C1257 C1259 1.390 . S
C1257 H1261 0.950 . S
H1258 C1254 0.950 . S
C1259 C1257 1.390 . S
C1259 C1260 1.387 . S
C1259 H1262 0.950 . S
C1260 C1259 1.387 . S
C1260 C1263 1.387 . S
H1261 C1257 0.950 . S
H1262 C1259 0.950 . S
C1263 C1254 1.390 . S
C1263 H1256 0.950 . S
C1263 C1260 1.387 . S
C945 C241 1.564 . S
C950 C5 1.564 . S
C955 C300 1.564 . S
C960 C64 1.564 . S
C965 C359 1.564 . S
C970 C123 1.564 . S
C975 C418 1.563 . S
C980 C182 1.563 . S
C985 C713 1.564 . S
C990 C477 1.564 . S
C995 C772 1.563 . S
C1000 C536 1.563 . S
C1005 C595 1.563 . S
C1010 C831 1.563 . S
C1015 C890 1.563 . S
C1020 C654 1.563 . S
C1025 C52 1.596 . S
C1030 C347 1.597 . S
C1035 C406 1.596 . S
C1040 C111 1.596 . S
C1045 C170 1.596 . S
C1050 C465 1.596 . S
C1055 C288 1.596 . S
C1060 C229 1.596 . S
C1065 C819 1.597 . S
C1070 C524 1.597 . S
C1075 C878 1.596 . S
C1080 C583 1.596 . S
C1085 C642 1.596 . S
C1090 C937 1.596 . S
C1095 C701 1.597 . S
C1100 C760 1.597 . S
C1105 C918 1.738 . S
C1110 C33 1.738 . S
C1115 C741 1.738 . S
C1120 C92 1.738 . S
C1125 C800 1.738 . S
C1130 C151 1.738 . S
C1135 C859 1.738 . S
C1140 C210 1.738 . S
C1145 C564 1.738 . S
C1150 C269 1.738 . S
C1155 C623 1.738 . S
C1160 C328 1.738 . S
C1165 C387 1.738 . S
C1170 C682 1.738 . S
C1175 C446 1.738 . S
C1180 C505 1.738 . S
C1185 C770 1.195 . S
C1190 C121 1.193 . S
C1195 C829 1.193 . S
C1200 C180 1.195 . S
C1205 C888 1.194 . S
C1210 C3 1.195 . S
C1215 C62 1.195 . S
C1220 C711 1.193 . S
C1225 C652 1.195 . S
C1230 C357 1.194 . S
C1235 C416 1.194 . S
C1240 C475 1.195 . S
C1245 C534 1.193 . S
C1250 C239 1.195 . S
C1255 C593 1.195 . S
C1260 C298 1.193 . S
