# Generated by pormake.
# Topology qtz-x, (6)-cn, num edge types: 1
# Building blocks:
#     Node 0, Type 0, BuildingBlock: KUMBUR_clean_sbu_1, # of connection points: 6
#     Node 1, Type 0, BuildingBlock: KUMBUR_clean_sbu_1, # of connection points: 6
#     Node 2, Type 0, BuildingBlock: KUMBUR_clean_sbu_1, # of connection points: 6
#     Edge 3, Type (0, 0), BuildingBlock: KIFKEQ_clean_linker_1, # of connection points: 2
#     Edge 4, Type (0, 0), BuildingBlock: KIFKEQ_clean_linker_1, # of connection points: 2
#     Edge 5, Type (0, 0), BuildingBlock: KIFKEQ_clean_linker_1, # of connection points: 2
#     Edge 6, Type (0, 0), BuildingBlock: KIFKEQ_clean_linker_1, # of connection points: 2
#     Edge 7, Type (0, 0), BuildingBlock: KIFKEQ_clean_linker_1, # of connection points: 2
#     Edge 8, Type (0, 0), BuildingBlock: KIFKEQ_clean_linker_1, # of connection points: 2
#     Edge 9, Type (0, 0), BuildingBlock: KIFKEQ_clean_linker_1, # of connection points: 2
#     Edge 10, Type (0, 0), BuildingBlock: KIFKEQ_clean_linker_1, # of connection points: 2
#     Edge 11, Type (0, 0), BuildingBlock: KIFKEQ_clean_linker_1, # of connection points: 2
# Relax obj value: 0.202
# Max RMSD: 0.279
# Mean RMSD: 0.279
data_MOF--net-qtz-x--node1-KUMBUR_clean_sbu_1--edge1-KIFKEQ_clean_linker_1
_symmetry_space_group_name_H-M    P1
_symmetry_Int_Tables_number       1
_symmetry_cell_setting            triclinic
loop_
_symmetry_equiv_pos_as_xyz
'x, y, z'
_cell_length_a     15.112534
_cell_length_b     15.122784
_cell_length_c     53.386013
_cell_angle_alpha  90.154044
_cell_angle_beta   89.967446
_cell_angle_gamma 120.0666
loop_
_atom_site_label
_atom_site_type_symbol
_atom_site_fract_x
_atom_site_fract_y
_atom_site_fract_z
_atom_type_partial_charge
Tb0 Tb 0.99198 0.41486 0.14391 0.0
C1 C 0.465 0.59531 0.15472 0.0
N2 N 0.3858 0.51458 0.1664 0.0
C3 C 0.46382 0.41239 0.15905 0.0
C4 C 0.54659 0.58708 0.14448 0.0
C5 C 0.38473 0.42418 0.169 0.0
C6 C 0.54487 0.49399 0.14664 0.0
C7 C 0.54248 0.77018 0.14006 0.0
C8 C 0.46173 0.68515 0.15219 0.0
C9 C 0.62441 0.7626 0.13002 0.0
C10 C 0.62628 0.67123 0.13215 0.0
Tb11 Tb 0.26212 0.54361 0.18205 0.0
N12 N 0.38007 0.68927 0.16175 0.0
C13 C 0.53945 0.86092 0.13873 0.0
C14 C 0.38096 0.7801 0.16194 0.0
C15 C 0.45911 0.86626 0.15005 0.0
H16 H 0.3243 0.36189 0.17927 0.0
H17 H 0.45843 0.93751 0.1501 0.0
H18 H 0.90351 0.57227 0.15351 0.0
H19 H 0.81685 1.00583 0.15834 0.0
H20 H 0.32467 0.78913 0.17197 0.0
H21 H 0.60017 0.92809 0.12969 0.0
H22 H 0.93938 0.17076 0.13995 0.0
H23 H 0.46262 0.3406 0.1611 0.0
H24 H 0.68692 0.82717 0.12064 0.0
H25 H 0.68977 0.66646 0.12421 0.0
H26 H 0.75776 0.56925 0.17535 0.0
H27 H 0.60572 0.48438 0.13883 0.0
H28 H 0.67664 0.99124 0.18509 0.0
N29 N 0.85805 0.41864 0.16254 0.0
C30 C 0.78647 0.33044 0.17342 0.0
C31 C 0.76513 0.50165 0.17502 0.0
C32 C 0.70142 0.32467 0.18583 0.0
C33 C 0.84777 0.50338 0.16275 0.0
C34 C 0.6918 0.41204 0.18671 0.0
N35 N 0.88165 0.25481 0.15942 0.0
C36 C 0.88448 0.16842 0.15319 0.0
C37 C 0.72389 0.15163 0.18198 0.0
C38 C 0.79926 0.24605 0.17202 0.0
C39 C 0.73313 0.06527 0.17788 0.0
C40 C 0.81256 0.07334 0.16294 0.0
H41 H 0.62766 0.41083 0.19611 0.0
H42 H 0.56269 0.22594 0.20637 0.0
H43 H 0.58132 0.07379 0.20259 0.0
O44 O 0.95875 0.3343 0.10983 0.0
O45 O 0.98814 0.45 0.18378 0.0
O46 O 0.11846 0.43127 0.19978 0.0
O47 O 0.90431 0.43856 0.11696 0.0
O48 O 0.08232 0.33632 0.14483 0.0
O49 O 0.16586 0.37702 0.1831 0.0
O50 O 0.30249 0.63716 0.21434 0.0
O51 O 0.26596 0.51316 0.14173 0.0
O52 O 0.13526 0.53372 0.12833 0.0
O53 O 0.36246 0.53735 0.20815 0.0
O54 O 0.18 0.63069 0.1814 0.0
O55 O 0.07898 0.58236 0.14542 0.0
C56 C 0.03674 0.4396 0.20286 0.0
C57 C 0.80962 0.30447 0.08843 0.0
C58 C 0.70997 0.26112 0.04977 0.0
C59 C 0.62929 0.17693 0.06198 0.0
C60 C 0.7285 0.22084 0.10044 0.0
C61 C 0.63879 0.1571 0.08716 0.0
C62 C 0.80029 0.3237 0.06323 0.0
C63 C 0.12481 0.31531 0.16376 0.0
C64 C 0.90564 0.37365 0.1013 0.0
C65 C 0.62863 0.23201 0.19673 0.0
C66 C 0.63958 0.14554 0.19471 0.0
C67 C 0.21376 0.52287 0.12343 0.0
C68 C 0.32524 0.55724 0.24972 0.0
C69 C 0.3263 0.58687 0.29461 0.0
C70 C 0.26657 0.48112 0.29846 0.0
C71 C 0.26808 0.45141 0.25401 0.0
C72 C 0.35566 0.62484 0.27017 0.0
C73 C 0.23867 0.41381 0.27825 0.0
C74 C 0.12385 0.64478 0.16458 0.0
C75 C 0.35323 0.59705 0.22404 0.0
H76 H 0.55839 0.1276 0.05225 0.0
H77 H 0.73448 0.20482 0.1199 0.0
H78 H 0.57616 0.0925 0.09646 0.0
H79 H 0.86438 0.3876 0.05404 0.0
H80 H 0.24361 0.45061 0.31718 0.0
H81 H 0.24504 0.39762 0.23858 0.0
H82 H 0.40146 0.70652 0.26711 0.0
H83 H 0.19376 0.33225 0.28135 0.0
Tb84 Tb 0.69976 0.15218 0.4804 0.0
C85 C 0.4386 0.68259 0.48907 0.0
N86 N 0.41832 0.75203 0.49989 0.0
C87 C 0.24404 0.65678 0.48591 0.0
C88 C 0.36239 0.59836 0.47566 0.0
C89 C 0.32192 0.73904 0.49907 0.0
C90 C 0.26458 0.58663 0.47397 0.0
C91 C 0.5582 0.62297 0.48159 0.0
C92 C 0.53617 0.69633 0.49163 0.0
C93 C 0.48349 0.54051 0.46757 0.0
C94 C 0.38592 0.52838 0.46457 0.0
Tb95 Tb 0.55186 0.88442 0.52039 0.0
N96 N 0.60657 0.77671 0.50552 0.0
C97 C 0.6528 0.63173 0.48697 0.0
C98 C 0.69317 0.77715 0.51333 0.0
C99 C 0.71944 0.70765 0.50344 0.0
H100 H 0.30608 0.79327 0.50828 0.0
H101 H 0.7898 0.71091 0.5091 0.0
H102 H 0.93853 0.20123 0.47594 0.0
H103 H 0.53801 0.37473 0.51753 0.0
H104 H 0.74174 0.82896 0.52771 0.0
H105 H 0.67257 0.57689 0.47968 0.0
H106 H 0.53328 0.23012 0.49568 0.0
H107 H 0.16834 0.64758 0.48496 0.0
H108 H 0.49954 0.48409 0.45957 0.0
H109 H 0.32856 0.46345 0.45407 0.0
H110 H 0.10815 0.33095 0.49185 0.0
H111 H 0.20416 0.52318 0.46371 0.0
H112 H 0.70142 0.51433 0.53413 0.0
N113 N 0.86136 0.2728 0.49184 0.0
C114 C 0.87068 0.35572 0.50417 0.0
C115 C 0.04184 0.33861 0.49553 0.0
C116 C 0.96635 0.43324 0.51296 0.0
C117 C 0.94546 0.2645 0.48683 0.0
C118 C 0.05211 0.42271 0.50893 0.0
N119 N 0.69146 0.28126 0.50102 0.0
C120 C 0.60465 0.2873 0.50349 0.0
C121 C 0.78932 0.44573 0.52128 0.0
C122 C 0.78291 0.36045 0.50878 0.0
C123 C 0.69975 0.44984 0.52477 0.0
C124 C 0.60728 0.37082 0.51558 0.0
H125 H 0.12648 0.47909 0.51602 0.0
H126 H 0.04595 0.57834 0.53254 0.0
H127 H 0.89112 0.59031 0.53939 0.0
O128 O 0.64424 0.20306 0.45074 0.0
O129 O 0.73852 0.16085 0.52041 0.0
O130 O 0.58769 0.03291 0.53587 0.0
O131 O 0.79186 0.21501 0.44864 0.0
O132 O 0.53082 0.078 0.48344 0.0
O133 O 0.47664 0.97635 0.51945 0.0
O134 O 0.58747 0.85207 0.55637 0.0
O135 O 0.50741 0.88242 0.48097 0.0
O136 O 0.65861 1.00325 0.46498 0.0
O137 O 0.43303 0.78235 0.54374 0.0
O138 O 0.72087 0.96902 0.51943 0.0
O139 O 0.76031 0.04709 0.48069 0.0
C140 C 0.67974 0.11088 0.53945 0.0
C141 C 0.76909 0.33045 0.42411 0.0
C142 C 0.83245 0.42136 0.38438 0.0
C143 C 0.87058 0.51446 0.39754 0.0
C144 C 0.80726 0.42358 0.43682 0.0
C145 C 0.8569 0.5152 0.42348 0.0
C146 C 0.77945 0.32965 0.39803 0.0
C147 C 0.46126 0.02452 0.50074 0.0
C148 C 0.72641 0.23276 0.43738 0.0
C149 C 0.97298 0.51767 0.52574 0.0
C150 C 0.88477 0.5243 0.52971 0.0
C151 C 0.56463 0.93033 0.46163 0.0
C152 C 0.45991 0.81737 0.5868 0.0
C153 C 0.45918 0.80986 0.63243 0.0
C154 C 0.39295 0.84979 0.63316 0.0
C155 C 0.39327 0.85697 0.58791 0.0
C156 C 0.49329 0.79482 0.60914 0.0
C157 C 0.36082 0.87376 0.611 0.0
C158 C 0.78496 0.01317 0.50069 0.0
C159 C 0.49205 0.79571 0.56257 0.0
H160 H 0.91343 0.58697 0.38803 0.0
H161 H 0.80023 0.4255 0.45696 0.0
H162 H 0.88722 0.58723 0.43336 0.0
H163 H 0.74732 0.25655 0.38854 0.0
H164 H 0.36621 0.86253 0.6509 0.0
H165 H 0.36675 0.8755 0.57096 0.0
H166 H 0.54332 0.76274 0.60837 0.0
H167 H 0.30994 0.90469 0.61171 0.0
Tb168 Tb 0.73396 0.45087 0.81091 0.0
C169 C 0.53785 0.71547 0.81516 0.0
N170 N 0.62683 0.73695 0.8266 0.0
C171 C 0.70885 0.9075 0.81012 0.0
C172 C 0.53221 0.78829 0.79984 0.0
C173 C 0.71101 0.83278 0.82505 0.0
C174 C 0.6195 0.88474 0.79719 0.0
C175 C 0.35775 0.59697 0.80827 0.0
C176 C 0.45239 0.62018 0.81902 0.0
C177 C 0.35252 0.66765 0.7922 0.0
C178 C 0.43961 0.76303 0.78796 0.0
Tb179 Tb 0.62248 0.60756 0.84982 0.0
N180 N 0.46017 0.55368 0.83478 0.0
C181 C 0.27023 0.50565 0.81494 0.0
C182 C 0.37267 0.47083 0.84355 0.0
C183 C 0.27741 0.44365 0.83315 0.0
H184 H 0.78049 0.85017 0.83481 0.0
H185 H 0.20922 0.37609 0.83963 0.0
H186 H 0.5397 0.21611 0.80292 0.0
H187 H 0.10754 0.59465 0.8533 0.0
H188 H 0.37474 0.42564 0.85891 0.0
H189 H 0.19606 0.48519 0.8072 0.0
H190 H 0.97423 0.60915 0.83097 0.0
H191 H 0.77609 0.98248 0.80854 0.0
H192 H 0.28075 0.65049 0.78356 0.0
H193 H 0.43394 0.81759 0.77593 0.0
H194 H 0.49415 0.04109 0.81531 0.0
H195 H 0.61817 0.94277 0.78559 0.0
H196 H 0.07728 0.42548 0.86676 0.0
N197 N 0.68565 0.28576 0.82034 0.0
C198 C 0.75564 0.27114 0.83277 0.0
C199 C 0.56781 0.10521 0.82045 0.0
C200 C 0.73409 0.17244 0.8397 0.0
C201 C 0.59318 0.20456 0.81376 0.0
C202 C 0.63829 0.08913 0.83364 0.0
N203 N 0.86413 0.45037 0.83292 0.0
C204 C 0.95704 0.53512 0.8374 0.0
C205 C 0.92342 0.34422 0.85181 0.0
C206 C 0.84823 0.35615 0.83913 0.0
C207 C 0.01716 0.43135 0.85722 0.0
C208 C 0.03427 0.52703 0.84978 0.0
H209 H 0.61812 0.01225 0.83899 0.0
H210 H 0.79333 0.08495 0.85799 0.0
H211 H 0.95981 0.23531 0.86825 0.0
O212 O 0.8456 0.50834 0.78245 0.0
O213 O 0.70246 0.41136 0.8509 0.0
O214 O 0.72464 0.56153 0.86687 0.0
O215 O 0.70991 0.36144 0.7787 0.0
O216 O 0.83346 0.61948 0.81383 0.0
O217 O 0.78804 0.66909 0.8506 0.0
O218 O 0.54159 0.59091 0.88424 0.0
O219 O 0.67064 0.64666 0.81063 0.0
O220 O 0.62812 0.49179 0.79374 0.0
O221 O 0.67054 0.73538 0.87261 0.0
O222 O 0.53262 0.43831 0.85008 0.0
O223 O 0.56886 0.39483 0.81144 0.0
C224 C 0.70768 0.4685 0.87006 0.0
C225 C 0.85465 0.38442 0.75681 0.0
C226 C 0.88994 0.31525 0.71919 0.0
C227 C 0.95281 0.29061 0.73341 0.0
C228 C 0.91873 0.36078 0.77072 0.0
C229 C 0.96773 0.3142 0.75899 0.0
C230 C 0.84147 0.36259 0.73108 0.0
C231 C 0.85123 0.68747 0.83171 0.0
C232 C 0.79613 0.42693 0.76859 0.0
C233 C 0.80829 0.16025 0.85258 0.0
C234 C 0.90297 0.2459 0.85848 0.0
C235 C 0.64559 0.58522 0.79136 0.0
C236 C 0.59293 0.74282 0.91118 0.0
C237 C 0.53075 0.74695 0.95321 0.0
C238 C 0.58273 0.85436 0.95206 0.0
C239 C 0.64344 0.85021 0.91054 0.0
C240 C 0.53665 0.6912 0.93265 0.0
C241 C 0.63842 0.90533 0.93086 0.0
C242 C 0.51069 0.37256 0.8315 0.0
C243 C 0.60071 0.68738 0.88925 0.0
H244 H 0.99084 0.25389 0.72469 0.0
H245 H 0.93023 0.37747 0.79054 0.0
H246 H 0.0168 0.29561 0.7698 0.0
H247 H 0.79095 0.37986 0.7204 0.0
H248 H 0.5811 0.89927 0.96771 0.0
H249 H 0.68693 0.89201 0.89424 0.0
H250 H 0.49701 0.60846 0.93327 0.0
H251 H 0.67792 0.98798 0.93019 0.0
H252 H 0.19434 0.79202 0.20148 0.0
H253 H 0.04538 0.71718 0.12918 0.0
H254 H 0.19727 0.95437 0.20109 0.0
H255 H 0.04092 0.87492 0.12967 0.0
H256 H 0.13912 0.21008 0.1239 0.0
H257 H 0.14042 0.04955 0.12454 0.0
H258 H 0.10259 0.03583 0.20505 0.0
H259 H 0.10741 0.19921 0.20429 0.0
C260 C 0.1613 0.80962 0.1856 0.0
C261 C 0.12063 0.74155 0.16527 0.0
C262 C 0.16194 0.90256 0.18548 0.0
C263 C 0.11976 0.92893 0.16526 0.0
C264 C 0.07653 0.85923 0.14529 0.0
C265 C 0.07788 0.76755 0.14518 0.0
C266 C 0.13114 0.17237 0.14168 0.0
C267 C 0.12314 0.21678 0.16402 0.0
C268 C 0.13113 0.07987 0.1421 0.0
C269 C 0.12115 0.02854 0.16486 0.0
C270 C 0.11243 0.07338 0.1872 0.0
C271 C 0.11444 0.16682 0.18679 0.0
H272 H 0.39108 0.10858 0.46579 0.0
H273 H 0.30572 0.9373 0.5349 0.0
H274 H 0.23 0.10892 0.46613 0.0
H275 H 0.14333 0.93295 0.53452 0.0
H276 H 0.9027 0.02807 0.54098 0.0
H277 H 0.06726 0.03422 0.54088 0.0
H278 H 0.05184 1.00368 0.4602 0.0
H279 H 0.88943 1.00134 0.46042 0.0
C280 C 0.33801 0.07061 0.481 0.0
C281 C 0.3623 0.02362 0.5004 0.0
C282 C 0.24496 0.06997 0.48109 0.0
C283 C 0.17314 0.02111 0.5004 0.0
C284 C 0.19717 0.97317 0.5196 0.0
C285 C 0.29045 0.97489 0.51967 0.0
C286 C 0.93469 0.02248 0.52328 0.0
C287 C 0.88347 0.01433 0.50073 0.0
C288 C 0.02883 0.02557 0.52317 0.0
C289 C 0.0734 0.0194 0.50051 0.0
C290 C 0.02125 0.01056 0.47797 0.0
C291 C 0.92771 0.0085 0.47809 0.0
H292 H 0.91457 0.84384 0.86559 0.0
H293 H 1.00988 0.75846 0.7978 0.0
H294 H 0.07065 0.00849 0.86541 0.0
H295 H 0.16893 0.92254 0.79821 0.0
H296 H 0.39405 0.26468 0.79151 0.0
H297 H 0.23623 0.10008 0.79153 0.0
H298 H 0.24908 0.09154 0.87232 0.0
H299 H 0.40589 0.25804 0.87217 0.0
C300 C 0.9692 0.85961 0.85071 0.0
C301 C 0.94902 0.7872 0.83167 0.0
C302 C 0.05956 0.95433 0.85073 0.0
C303 C 0.13327 0.97953 0.83186 0.0
C304 C 0.11353 0.90683 0.81288 0.0
C305 C 0.02245 0.81214 0.81273 0.0
C306 C 0.36297 0.22758 0.80928 0.0
C307 C 0.41255 0.27412 0.83185 0.0
C308 C 0.27272 0.13268 0.8093 0.0
C309 C 0.22958 0.08141 0.8319 0.0
C310 C 0.27892 0.12889 0.85453 0.0
C311 C 0.36903 0.2243 0.8545 0.0
H312 H 0.52754 0.58951 0.97962 0.0
H313 H 0.40004 0.78899 0.9785 0.0
H314 H 0.44217 0.51874 0.01971 0.0
H315 H 0.31859 0.72192 0.01859 0.0
H316 H 0.12104 0.54055 0.08158 0.0
H317 H 0.18633 0.57567 0.03905 0.0
H318 H 0.45832 0.57411 0.0633 0.0
H319 H 0.39034 0.53389 0.10579 0.0
C320 C 0.48034 0.61725 0.98779 0.0
C321 C 0.47106 0.69531 0.97603 0.0
C322 C 0.43242 0.57764 0.01085 0.0
C323 C 0.37377 0.61486 0.02246 0.0
C324 C 0.36196 0.69036 0.01014 0.0
C325 C 0.40963 0.72974 0.98724 0.0
C326 C 0.19451 0.54693 0.07789 0.0
C327 C 0.25168 0.53697 0.09731 0.0
C328 C 0.23215 0.56749 0.05346 0.0
C329 C 0.32846 0.5796 0.04778 0.0
C330 C 0.38371 0.56502 0.06696 0.0
C331 C 0.34537 0.54329 0.09144 0.0
H332 H 0.85864 0.27875 0.35829 0.0
H333 H 0.8525 0.55915 0.3476 0.0
H334 H 0.88847 0.2727 0.31427 0.0
H335 H 0.89535 0.55951 0.30373 0.0
H336 H 0.9077 0.50394 0.2206 0.0
H337 H 0.84712 0.49295 0.26357 0.0
H338 H 0.01358 0.34138 0.28541 0.0
H339 H 0.06366 0.34323 0.24231 0.0
C340 C 0.86313 0.33933 0.34666 0.0
C341 C 0.85205 0.41916 0.35691 0.0
C342 C 0.88295 0.33706 0.32121 0.0
C343 C 0.89623 0.41641 0.30515 0.0
C344 C 0.88472 0.4962 0.31527 0.0
C345 C 0.86198 0.49703 0.34071 0.0
C346 C 0.92974 0.46698 0.23463 0.0
C347 C 0.99333 0.4273 0.22831 0.0
C348 C 0.89623 0.46184 0.25938 0.0
C349 C 0.9263 0.41757 0.27836 0.0
C350 C 0.9875 0.37538 0.27159 0.0
C351 C 0.01883 0.37866 0.24688 0.0
H352 H 0.50147 0.46692 0.75689 0.0
H353 H 0.73806 0.77713 0.77216 0.0
H354 H 0.45783 0.52338 0.71827 0.0
H355 H 0.69399 0.83388 0.73366 0.0
H356 H 0.65139 0.86116 0.64783 0.0
H357 H 0.69941 0.80712 0.68629 0.0
H358 H 0.38177 0.63667 0.70806 0.0
H359 H 0.33398 0.69059 0.66971 0.0
C360 C 0.5445 0.547 0.75186 0.0
C361 C 0.6227 0.61794 0.76747 0.0
C362 C 0.51903 0.5794 0.72993 0.0
C363 C 0.5724 0.683 0.72307 0.0
C364 C 0.65207 0.75352 0.73846 0.0
C365 C 0.67672 0.72126 0.76052 0.0
C366 C 0.59213 0.81209 0.66088 0.0
C367 C 0.4891 0.77985 0.65588 0.0
C368 C 0.61952 0.78174 0.68288 0.0
C369 C 0.54415 0.71738 0.70003 0.0
C370 C 0.44121 0.68547 0.69502 0.0
C371 C 0.41401 0.71693 0.67323 0.0
H372 H 0.72302 0.30404 0.88642 0.0
H373 H 0.674 0.54701 0.91235 0.0
H374 H 0.71746 0.249 0.92969 0.0
H375 H 0.66326 0.48955 0.95509 0.0
H376 H 0.62229 0.12916 0.00992 0.0
H377 H 0.61357 0.17298 0.96627 0.0
H378 H 0.7743 0.49346 0.98613 0.0
H379 H 0.77716 0.44962 0.02955 0.0
C380 C 0.71034 0.3452 0.90129 0.0
C381 C 0.70078 0.43101 0.89596 0.0
C382 C 0.70623 0.31314 0.9261 0.0
C383 C 0.69116 0.36555 0.946 0.0
C384 C 0.67789 0.44897 0.94041 0.0
C385 C 0.68353 0.48174 0.91579 0.0
C386 C 0.6542 0.2088 0.00497 0.0
C387 C 0.70088 0.28586 0.02326 0.0
C388 C 0.65042 0.23402 0.97989 0.0
C389 C 0.69319 0.33683 0.97259 0.0
C390 C 0.73905 0.41339 0.991 0.0
C391 C 0.7421 0.38827 0.01595 0.0
H392 H 0.52153 0.70916 0.31016 0.0
H393 H 0.20918 0.61704 0.3283 0.0
H394 H 0.57839 0.80253 0.34963 0.0
H395 H 0.26538 0.71582 0.36709 0.0
H396 H 0.37716 0.77481 0.44749 0.0
H397 H 0.32103 0.70261 0.40621 0.0
H398 H 0.60742 0.93844 0.37531 0.0
H399 H 0.66646 1.00478 0.41732 0.0
C400 C 0.46558 0.71167 0.32239 0.0
C401 C 0.36131 0.65609 0.31643 0.0
C402 C 0.49792 0.76554 0.34498 0.0
C403 C 0.42658 0.7663 0.36187 0.0
C404 C 0.32247 0.71494 0.35501 0.0
C405 C 0.29009 0.65925 0.33268 0.0
C406 C 0.42878 0.81007 0.43203 0.0
C407 C 0.52738 0.8931 0.43595 0.0
C408 C 0.39581 0.77 0.40808 0.0
C409 C 0.45966 0.81402 0.38716 0.0
C410 C 0.55682 0.90063 0.39094 0.0
C411 C 0.59052 0.93927 0.41506 0.0
H412 H 0.90911 0.4405 0.68035 0.0
H413 H 0.82698 0.12976 0.69737 0.0
H414 H 0.86533 0.39359 0.63624 0.0
H415 H 0.78185 0.08245 0.65334 0.0
H416 H 0.57828 0.0275 0.58284 0.0
H417 H 0.63819 0.07613 0.62568 0.0
H418 H 0.92239 0.32539 0.59805 0.0
H419 H 0.86347 0.27349 0.55493 0.0
C420 C 0.8824 0.3624 0.67457 0.0
C421 C 0.87131 0.28868 0.69221 0.0
C422 C 0.85792 0.33575 0.64937 0.0
C423 C 0.82 0.23442 0.64142 0.0
C424 C 0.81052 0.16105 0.659 0.0
C425 C 0.83685 0.18815 0.68411 0.0
C426 C 0.65385 0.09156 0.58583 0.0
C427 C 0.71602 0.14539 0.56541 0.0
C428 C 0.68828 0.11963 0.6104 0.0
C429 C 0.78529 0.20409 0.61519 0.0
C430 C 0.84718 0.25989 0.59486 0.0
C431 C 0.81328 0.23023 0.57019 0.0
loop_
_geom_bond_atom_site_label_1
_geom_bond_atom_site_label_2
_geom_bond_distance
_geom_bond_site_symmetry_2
_ccdc_geom_bond_type
Tb0 N29 2.617 . S
Tb0 N35 2.572 . S
Tb0 O44 2.465 . S
Tb0 O45 2.387 . S
Tb0 O47 2.428 . S
Tb0 O48 2.308 . S
Tb0 O52 2.349 1_655 S
Tb0 O55 2.393 . S
Tb0 C64 2.802 . S
C1 N2 1.379 . S
C1 C4 1.416 . S
C1 C8 1.424 . S
N2 C1 1.379 . S
N2 C5 1.334 . S
N2 Tb11 2.617 . S
C3 C5 1.390 . S
C3 C6 1.339 . S
C3 H23 0.930 . S
C4 C1 1.416 . S
C4 C6 1.416 . S
C4 C10 1.448 . S
C5 N2 1.334 . S
C5 C3 1.390 . S
C5 H16 0.930 . S
C6 C3 1.339 . S
C6 C4 1.416 . S
C6 H27 0.930 . S
C7 C8 1.413 . S
C7 C9 1.427 . S
C7 C13 1.416 . S
C8 C1 1.424 . S
C8 C7 1.413 . S
C8 N12 1.361 . S
C9 C7 1.427 . S
C9 C10 1.328 . S
C9 H24 0.929 . S
C10 C4 1.448 . S
C10 C9 1.328 . S
C10 H25 0.930 . S
Tb11 N2 2.617 . S
Tb11 N12 2.572 . S
Tb11 O46 2.349 1_455 S
Tb11 O49 2.393 . S
Tb11 O50 2.465 . S
Tb11 O51 2.387 . S
Tb11 O53 2.428 . S
Tb11 O54 2.308 . S
Tb11 C75 2.802 . S
N12 C8 1.361 . S
N12 Tb11 2.572 . S
N12 C14 1.340 . S
C13 C7 1.416 . S
C13 C15 1.332 . S
C13 H21 0.931 . S
C14 N12 1.340 . S
C14 C15 1.407 . S
C14 H20 0.930 . S
C15 C13 1.332 . S
C15 C14 1.407 . S
C15 H17 0.929 . S
H16 C5 0.930 . S
H17 C15 0.929 . S
H18 C33 0.930 . S
H19 C40 0.929 . S
H20 C14 0.930 . S
H21 C13 0.931 . S
H22 C36 0.930 . S
H23 C3 0.930 . S
H24 C9 0.929 . S
H25 C10 0.930 . S
H26 C31 0.930 . S
H27 C6 0.930 . S
H28 C39 0.931 . S
N29 Tb0 2.617 . S
N29 C30 1.379 . S
N29 C33 1.334 . S
C30 N29 1.379 . S
C30 C32 1.416 . S
C30 C38 1.424 . S
C31 H26 0.930 . S
C31 C33 1.390 . S
C31 C34 1.339 . S
C32 C30 1.416 . S
C32 C34 1.416 . S
C32 C65 1.448 . S
C33 H18 0.930 . S
C33 N29 1.334 . S
C33 C31 1.390 . S
C34 C31 1.339 . S
C34 C32 1.416 . S
C34 H41 0.930 . S
N35 Tb0 2.572 . S
N35 C36 1.340 . S
N35 C38 1.361 . S
C36 H22 0.930 . S
C36 N35 1.340 . S
C36 C40 1.407 . S
C37 C38 1.413 . S
C37 C39 1.416 . S
C37 C66 1.427 . S
C38 C30 1.424 . S
C38 N35 1.361 . S
C38 C37 1.413 . S
C39 H28 0.931 . S
C39 C37 1.416 . S
C39 C40 1.332 . S
C40 H19 0.929 . S
C40 C36 1.407 . S
C40 C39 1.332 . S
H41 C34 0.930 . S
H42 C65 0.930 . S
H43 C66 0.929 . S
O44 Tb0 2.465 . S
O44 C64 1.264 . S
O45 Tb0 2.387 . S
O45 C56 1.264 . S
O46 Tb11 2.349 1_655 S
O46 C56 1.243 . S
O47 Tb0 2.428 . S
O47 C64 1.256 . S
O48 Tb0 2.308 . S
O48 C63 1.266 . S
O49 Tb11 2.393 . S
O49 C63 1.248 1_455 S
O50 Tb11 2.465 . S
O50 C75 1.264 . S
O51 Tb11 2.387 . S
O51 C67 1.264 . S
O52 Tb0 2.349 1_455 S
O52 C67 1.243 . S
O53 Tb11 2.428 . S
O53 C75 1.256 . S
O54 Tb11 2.308 . S
O54 C74 1.266 . S
O55 Tb0 2.393 . S
O55 C74 1.248 1_655 S
C56 O45 1.264 . S
C56 O46 1.243 . S
C57 C60 1.399 . S
C57 C62 1.383 . S
C57 C64 1.496 . S
C58 C59 1.399 . S
C58 C62 1.389 . S
C59 C58 1.399 . S
C59 C61 1.380 . S
C59 H76 0.929 . S
C60 C57 1.399 . S
C60 C61 1.392 . S
C60 H77 0.929 . S
C61 C59 1.380 . S
C61 C60 1.392 . S
C61 H78 0.929 . S
C62 C57 1.383 . S
C62 C58 1.389 . S
C62 H79 0.931 . S
C63 O48 1.266 . S
C63 O49 1.248 1_655 S
C64 Tb0 2.802 . S
C64 O44 1.264 . S
C64 O47 1.256 . S
C64 C57 1.496 . S
C65 C32 1.448 . S
C65 H42 0.930 . S
C65 C66 1.328 . S
C66 C37 1.427 . S
C66 H43 0.929 . S
C66 C65 1.328 . S
C67 O51 1.264 . S
C67 O52 1.243 . S
C68 C71 1.399 . S
C68 C72 1.383 . S
C68 C75 1.496 . S
C69 C70 1.399 . S
C69 C72 1.389 . S
C70 C69 1.399 . S
C70 C73 1.380 . S
C70 H80 0.929 . S
C71 C68 1.399 . S
C71 C73 1.392 . S
C71 H81 0.929 . S
C72 C68 1.383 . S
C72 C69 1.389 . S
C72 H82 0.931 . S
C73 C70 1.380 . S
C73 C71 1.392 . S
C73 H83 0.929 . S
C74 O54 1.266 . S
C74 O55 1.248 1_455 S
C75 Tb11 2.802 . S
C75 O50 1.264 . S
C75 O53 1.256 . S
C75 C68 1.496 . S
H76 C59 0.929 . S
H77 C60 0.929 . S
H78 C61 0.929 . S
H79 C62 0.931 . S
H80 C70 0.929 . S
H81 C71 0.929 . S
H82 C72 0.931 . S
H83 C73 0.929 . S
Tb84 N113 2.617 . S
Tb84 N119 2.572 . S
Tb84 O128 2.465 . S
Tb84 O129 2.387 . S
Tb84 O131 2.428 . S
Tb84 O132 2.308 . S
Tb84 O136 2.349 . S
Tb84 O139 2.393 . S
Tb84 C148 2.802 . S
C85 N86 1.379 . S
C85 C88 1.416 . S
C85 C92 1.424 . S
N86 C85 1.379 . S
N86 C89 1.334 . S
N86 Tb95 2.617 . S
C87 C89 1.390 . S
C87 C90 1.339 . S
C87 H107 0.930 . S
C88 C85 1.416 . S
C88 C90 1.416 . S
C88 C94 1.448 . S
C89 N86 1.334 . S
C89 C87 1.390 . S
C89 H100 0.930 . S
C90 C87 1.339 . S
C90 C88 1.416 . S
C90 H111 0.930 . S
C91 C92 1.413 . S
C91 C93 1.427 . S
C91 C97 1.416 . S
C92 C85 1.424 . S
C92 C91 1.413 . S
C92 N96 1.361 . S
C93 C91 1.427 . S
C93 C94 1.328 . S
C93 H108 0.929 . S
C94 C88 1.448 . S
C94 C93 1.328 . S
C94 H109 0.930 . S
Tb95 N86 2.617 . S
Tb95 N96 2.572 . S
Tb95 O130 2.349 1_565 S
Tb95 O133 2.393 1_565 S
Tb95 O134 2.465 . S
Tb95 O135 2.387 . S
Tb95 O137 2.428 . S
Tb95 O138 2.308 1_565 S
Tb95 C159 2.802 . S
N96 C92 1.361 . S
N96 Tb95 2.572 . S
N96 C98 1.340 . S
C97 C91 1.416 . S
C97 C99 1.332 . S
C97 H105 0.931 . S
C98 N96 1.340 . S
C98 C99 1.407 . S
C98 H104 0.930 . S
C99 C97 1.332 . S
C99 C98 1.407 . S
C99 H101 0.929 . S
H100 C89 0.930 . S
H101 C99 0.929 . S
H102 C117 0.930 . S
H103 C124 0.929 . S
H104 C98 0.930 . S
H105 C97 0.931 . S
H106 C120 0.930 . S
H107 C87 0.930 . S
H108 C93 0.929 . S
H109 C94 0.930 . S
H110 C115 0.930 . S
H111 C90 0.930 . S
H112 C123 0.931 . S
N113 Tb84 2.617 . S
N113 C114 1.379 . S
N113 C117 1.334 1_655 S
C114 N113 1.379 . S
C114 C116 1.416 1_655 S
C114 C122 1.424 . S
C115 H110 0.930 . S
C115 C117 1.390 . S
C115 C118 1.339 . S
C116 C114 1.416 1_455 S
C116 C118 1.416 . S
C116 C149 1.448 . S
C117 H102 0.930 . S
C117 N113 1.334 1_455 S
C117 C115 1.390 . S
C118 C115 1.339 . S
C118 C116 1.416 . S
C118 H125 0.930 . S
N119 Tb84 2.572 . S
N119 C120 1.340 . S
N119 C122 1.361 . S
C120 H106 0.930 . S
C120 N119 1.340 . S
C120 C124 1.407 . S
C121 C122 1.413 . S
C121 C123 1.416 . S
C121 C150 1.427 1_655 S
C122 C114 1.424 . S
C122 N119 1.361 . S
C122 C121 1.413 . S
C123 H112 0.931 . S
C123 C121 1.416 . S
C123 C124 1.332 . S
C124 H103 0.929 . S
C124 C120 1.407 . S
C124 C123 1.332 . S
H125 C118 0.930 . S
H126 C149 0.930 . S
H127 C150 0.929 . S
O128 Tb84 2.465 . S
O128 C148 1.264 . S
O129 Tb84 2.387 . S
O129 C140 1.264 . S
O130 Tb95 2.349 1_545 S
O130 C140 1.243 . S
O131 Tb84 2.428 . S
O131 C148 1.256 . S
O132 Tb84 2.308 . S
O132 C147 1.266 . S
O133 Tb95 2.393 1_545 S
O133 C147 1.248 . S
O134 Tb95 2.465 . S
O134 C159 1.264 . S
O135 Tb95 2.387 . S
O135 C151 1.264 1_565 S
O136 Tb84 2.349 . S
O136 C151 1.243 . S
O137 Tb95 2.428 . S
O137 C159 1.256 . S
O138 Tb95 2.308 1_545 S
O138 C158 1.266 . S
O139 Tb84 2.393 . S
O139 C158 1.248 . S
C140 O129 1.264 . S
C140 O130 1.243 . S
C141 C144 1.399 . S
C141 C146 1.383 . S
C141 C148 1.496 . S
C142 C143 1.399 . S
C142 C146 1.389 . S
C143 C142 1.399 . S
C143 C145 1.380 . S
C143 H160 0.929 . S
C144 C141 1.399 . S
C144 C145 1.392 . S
C144 H161 0.929 . S
C145 C143 1.380 . S
C145 C144 1.392 . S
C145 H162 0.929 . S
C146 C141 1.383 . S
C146 C142 1.389 . S
C146 H163 0.931 . S
C147 O132 1.266 . S
C147 O133 1.248 . S
C148 Tb84 2.802 . S
C148 O128 1.264 . S
C148 O131 1.256 . S
C148 C141 1.496 . S
C149 C116 1.448 . S
C149 H126 0.930 . S
C149 C150 1.328 . S
C150 C121 1.427 1_455 S
C150 H127 0.929 . S
C150 C149 1.328 . S
C151 O135 1.264 1_545 S
C151 O136 1.243 . S
C152 C155 1.399 . S
C152 C156 1.383 . S
C152 C159 1.496 . S
C153 C154 1.399 . S
C153 C156 1.389 . S
C154 C153 1.399 . S
C154 C157 1.380 . S
C154 H164 0.929 . S
C155 C152 1.399 . S
C155 C157 1.392 . S
C155 H165 0.929 . S
C156 C152 1.383 . S
C156 C153 1.389 . S
C156 H166 0.931 . S
C157 C154 1.380 . S
C157 C155 1.392 . S
C157 H167 0.929 . S
C158 O138 1.266 . S
C158 O139 1.248 . S
C159 Tb95 2.802 . S
C159 O134 1.264 . S
C159 O137 1.256 . S
C159 C152 1.496 . S
H160 C143 0.929 . S
H161 C144 0.929 . S
H162 C145 0.929 . S
H163 C146 0.931 . S
H164 C154 0.929 . S
H165 C155 0.929 . S
H166 C156 0.931 . S
H167 C157 0.929 . S
Tb168 N197 2.617 . S
Tb168 N203 2.572 . S
Tb168 O212 2.465 . S
Tb168 O213 2.387 . S
Tb168 O215 2.428 . S
Tb168 O216 2.308 . S
Tb168 O220 2.349 . S
Tb168 O223 2.393 . S
Tb168 C232 2.802 . S
C169 N170 1.379 . S
C169 C172 1.416 . S
C169 C176 1.424 . S
N170 C169 1.379 . S
N170 C173 1.334 . S
N170 Tb179 2.617 . S
C171 C173 1.390 . S
C171 C174 1.339 . S
C171 H191 0.930 . S
C172 C169 1.416 . S
C172 C174 1.416 . S
C172 C178 1.448 . S
C173 N170 1.334 . S
C173 C171 1.390 . S
C173 H184 0.930 . S
C174 C171 1.339 . S
C174 C172 1.416 . S
C174 H195 0.930 . S
C175 C176 1.413 . S
C175 C177 1.427 . S
C175 C181 1.416 . S
C176 C169 1.424 . S
C176 C175 1.413 . S
C176 N180 1.361 . S
C177 C175 1.427 . S
C177 C178 1.328 . S
C177 H192 0.929 . S
C178 C172 1.448 . S
C178 C177 1.328 . S
C178 H193 0.930 . S
Tb179 N170 2.617 . S
Tb179 N180 2.572 . S
Tb179 O214 2.349 . S
Tb179 O217 2.393 . S
Tb179 O218 2.465 . S
Tb179 O219 2.387 . S
Tb179 O221 2.428 . S
Tb179 O222 2.308 . S
Tb179 C243 2.802 . S
N180 C176 1.361 . S
N180 Tb179 2.572 . S
N180 C182 1.340 . S
C181 C175 1.416 . S
C181 C183 1.332 . S
C181 H189 0.931 . S
C182 N180 1.340 . S
C182 C183 1.407 . S
C182 H188 0.930 . S
C183 C181 1.332 . S
C183 C182 1.407 . S
C183 H185 0.929 . S
H184 C173 0.930 . S
H185 C183 0.929 . S
H186 C201 0.930 . S
H187 C208 0.929 . S
H188 C182 0.930 . S
H189 C181 0.931 . S
H190 C204 0.930 . S
H191 C171 0.930 . S
H192 C177 0.929 . S
H193 C178 0.930 . S
H194 C199 0.930 . S
H195 C174 0.930 . S
H196 C207 0.931 . S
N197 Tb168 2.617 . S
N197 C198 1.379 . S
N197 C201 1.334 . S
C198 N197 1.379 . S
C198 C200 1.416 . S
C198 C206 1.424 . S
C199 H194 0.930 . S
C199 C201 1.390 1_565 S
C199 C202 1.339 . S
C200 C198 1.416 . S
C200 C202 1.416 1_545 S
C200 C233 1.448 . S
C201 H186 0.930 . S
C201 N197 1.334 . S
C201 C199 1.390 1_545 S
C202 C199 1.339 . S
C202 C200 1.416 1_565 S
C202 H209 0.930 . S
N203 Tb168 2.572 . S
N203 C204 1.340 . S
N203 C206 1.361 . S
C204 H190 0.930 . S
C204 N203 1.340 . S
C204 C208 1.407 1_655 S
C205 C206 1.413 . S
C205 C207 1.416 1_655 S
C205 C234 1.427 . S
C206 C198 1.424 . S
C206 N203 1.361 . S
C206 C205 1.413 . S
C207 H196 0.931 . S
C207 C205 1.416 1_455 S
C207 C208 1.332 . S
C208 H187 0.929 . S
C208 C204 1.407 1_455 S
C208 C207 1.332 . S
H209 C202 0.930 . S
H210 C233 0.930 1_565 S
H211 C234 0.929 . S
O212 Tb168 2.465 . S
O212 C232 1.264 . S
O213 Tb168 2.387 . S
O213 C224 1.264 . S
O214 Tb179 2.349 . S
O214 C224 1.243 . S
O215 Tb168 2.428 . S
O215 C232 1.256 . S
O216 Tb168 2.308 . S
O216 C231 1.266 . S
O217 Tb179 2.393 . S
O217 C231 1.248 . S
O218 Tb179 2.465 . S
O218 C243 1.264 . S
O219 Tb179 2.387 . S
O219 C235 1.264 . S
O220 Tb168 2.349 . S
O220 C235 1.243 . S
O221 Tb179 2.428 . S
O221 C243 1.256 . S
O222 Tb179 2.308 . S
O222 C242 1.266 . S
O223 Tb168 2.393 . S
O223 C242 1.248 . S
C224 O213 1.264 . S
C224 O214 1.243 . S
C225 C228 1.399 . S
C225 C230 1.383 . S
C225 C232 1.496 . S
C226 C227 1.399 . S
C226 C230 1.389 . S
C227 C226 1.399 . S
C227 C229 1.380 . S
C227 H244 0.929 . S
C228 C225 1.399 . S
C228 C229 1.392 . S
C228 H245 0.929 . S
C229 C227 1.380 . S
C229 C228 1.392 . S
C229 H246 0.929 . S
C230 C225 1.383 . S
C230 C226 1.389 . S
C230 H247 0.931 . S
C231 O216 1.266 . S
C231 O217 1.248 . S
C232 Tb168 2.802 . S
C232 O212 1.264 . S
C232 O215 1.256 . S
C232 C225 1.496 . S
C233 C200 1.448 . S
C233 H210 0.930 1_545 S
C233 C234 1.328 . S
C234 C205 1.427 . S
C234 H211 0.929 . S
C234 C233 1.328 . S
C235 O219 1.264 . S
C235 O220 1.243 . S
C236 C239 1.399 . S
C236 C240 1.383 . S
C236 C243 1.496 . S
C237 C238 1.399 . S
C237 C240 1.389 . S
C238 C237 1.399 . S
C238 C241 1.380 . S
C238 H248 0.929 . S
C239 C236 1.399 . S
C239 C241 1.392 . S
C239 H249 0.929 . S
C240 C236 1.383 . S
C240 C237 1.389 . S
C240 H250 0.931 . S
C241 C238 1.380 . S
C241 C239 1.392 . S
C241 H251 0.929 . S
C242 O222 1.266 . S
C242 O223 1.248 . S
C243 Tb179 2.802 . S
C243 O218 1.264 . S
C243 O221 1.256 . S
C243 C236 1.496 . S
H244 C227 0.929 . S
H245 C228 0.929 . S
H246 C229 0.929 . S
H247 C230 0.931 . S
H248 C238 0.929 . S
H249 C239 0.929 . S
H250 C240 0.931 . S
H251 C241 0.929 . S
H252 C260 0.950 . S
H253 C265 0.950 . S
H254 C262 0.950 . S
H255 C264 0.950 . S
H256 C266 0.950 . S
H257 C268 0.950 . S
H258 C270 0.950 . S
H259 C271 0.950 . S
C260 H252 0.950 . S
C260 C261 1.386 1_655 S
C260 C262 1.391 . S
C261 C260 1.386 1_455 S
C261 C265 1.393 . S
C262 H254 0.950 . S
C262 C260 1.391 . S
C262 C263 1.400 1_655 S
C263 C262 1.400 1_455 S
C263 C264 1.398 . S
C263 C269 1.491 1_455 S
C264 H255 0.950 . S
C264 C263 1.398 . S
C264 C265 1.391 . S
C265 H253 0.950 . S
C265 C261 1.393 . S
C265 C264 1.391 . S
C266 H256 0.950 . S
C266 C267 1.386 1_455 S
C266 C268 1.391 . S
C267 C266 1.386 1_655 S
C267 C271 1.393 . S
C268 H257 0.950 . S
C268 C266 1.391 . S
C268 C269 1.400 1_445 S
C269 C263 1.491 1_655 S
C269 C268 1.400 1_665 S
C269 C270 1.398 . S
C270 H258 0.950 . S
C270 C269 1.398 . S
C270 C271 1.391 1_565 S
C271 H259 0.950 . S
C271 C267 1.393 . S
C271 C270 1.391 1_545 S
H272 C280 0.950 . S
H273 C285 0.950 . S
H274 C282 0.950 . S
H275 C284 0.950 . S
H276 C286 0.950 . S
H277 C288 0.950 . S
H278 C290 0.950 . S
H279 C291 0.945 1_655 S
C280 H272 0.950 . S
C280 C281 1.386 . S
C280 C282 1.391 . S
C281 C280 1.386 . S
C281 C285 1.393 . S
C282 H274 0.950 . S
C282 C280 1.391 . S
C282 C283 1.400 . S
C283 C282 1.400 . S
C283 C284 1.398 . S
C283 C289 1.491 . S
C284 H275 0.950 . S
C284 C283 1.398 . S
C284 C285 1.391 . S
C285 H273 0.950 . S
C285 C281 1.393 . S
C285 C284 1.391 . S
C286 H276 0.950 . S
C286 C287 1.386 . S
C286 C288 1.391 1_655 S
C287 C286 1.386 . S
C287 C291 1.390 1_655 S
C288 H277 0.950 . S
C288 C286 1.391 1_455 S
C288 C289 1.400 . S
C289 C283 1.491 . S
C289 C288 1.400 . S
C289 C290 1.398 . S
C290 H278 0.950 . S
C290 C289 1.398 . S
C290 C291 1.398 . S
C291 H279 0.945 1_455 S
C291 C287 1.390 1_455 S
C291 C290 1.398 . S
H292 C300 0.950 . S
H293 C305 0.950 . S
H294 C302 0.950 . S
H295 C304 0.950 . S
H296 C306 0.950 . S
H297 C308 0.950 1_565 S
H298 C310 0.950 . S
H299 C311 0.950 . S
C300 H292 0.950 . S
C300 C301 1.386 . S
C300 C302 1.391 1_655 S
C301 C300 1.386 . S
C301 C305 1.393 1_655 S
C302 H294 0.950 . S
C302 C300 1.391 1_455 S
C302 C303 1.400 . S
C303 C302 1.400 . S
C303 C304 1.398 . S
C303 C309 1.491 . S
C304 H295 0.950 . S
C304 C303 1.398 . S
C304 C305 1.391 . S
C305 H293 0.950 . S
C305 C301 1.393 1_455 S
C305 C304 1.391 . S
C306 H296 0.950 . S
C306 C307 1.386 . S
C306 C308 1.391 . S
C307 C306 1.386 . S
C307 C311 1.393 . S
C308 H297 0.950 1_545 S
C308 C306 1.391 . S
C308 C309 1.400 1_545 S
C309 C303 1.491 . S
C309 C308 1.400 1_565 S
C309 C310 1.398 1_565 S
C310 H298 0.950 . S
C310 C309 1.398 1_545 S
C310 C311 1.391 . S
C311 H299 0.950 . S
C311 C307 1.393 . S
C311 C310 1.391 . S
H312 C320 0.950 . S
H313 C325 0.950 . S
H314 C322 0.950 . S
H315 C324 0.950 . S
H316 C326 0.950 . S
H317 C328 0.950 . S
H318 C330 0.950 . S
H319 C331 0.950 . S
C320 H312 0.950 . S
C320 C321 1.386 1_554 S
C320 C322 1.391 . S
C321 C320 1.386 1_556 S
C321 C325 1.393 . S
C322 H314 0.950 . S
C322 C320 1.391 . S
C322 C323 1.400 . S
C323 C322 1.400 . S
C323 C324 1.398 . S
C323 C329 1.491 . S
C324 H315 0.950 . S
C324 C323 1.398 . S
C324 C325 1.391 1_554 S
C325 H313 0.950 . S
C325 C321 1.393 . S
C325 C324 1.391 1_556 S
C326 H316 0.950 . S
C326 C327 1.386 . S
C326 C328 1.391 . S
C327 C326 1.386 . S
C327 C331 1.393 . S
C328 H317 0.950 . S
C328 C326 1.391 . S
C328 C329 1.400 . S
C329 C323 1.491 . S
C329 C328 1.400 . S
C329 C330 1.398 . S
C330 H318 0.950 . S
C330 C329 1.398 . S
C330 C331 1.391 . S
C331 H319 0.950 . S
C331 C327 1.393 . S
C331 C330 1.391 . S
H332 C340 0.950 . S
H333 C345 0.950 . S
H334 C342 0.950 . S
H335 C344 0.950 . S
H336 C346 0.950 . S
H337 C348 0.950 . S
H338 C350 0.950 . S
H339 C351 0.950 . S
C340 H332 0.950 . S
C340 C341 1.386 . S
C340 C342 1.391 . S
C341 C340 1.386 . S
C341 C345 1.393 . S
C342 H334 0.950 . S
C342 C340 1.391 . S
C342 C343 1.400 . S
C343 C342 1.400 . S
C343 C344 1.398 . S
C343 C349 1.491 . S
C344 H335 0.950 . S
C344 C343 1.398 . S
C344 C345 1.391 . S
C345 H333 0.950 . S
C345 C341 1.393 . S
C345 C344 1.391 . S
C346 H336 0.950 . S
C346 C347 1.386 . S
C346 C348 1.391 . S
C347 C346 1.386 . S
C347 C351 1.393 . S
C348 H337 0.950 . S
C348 C346 1.391 . S
C348 C349 1.400 . S
C349 C343 1.491 . S
C349 C348 1.400 . S
C349 C350 1.398 . S
C350 H338 0.950 . S
C350 C349 1.398 . S
C350 C351 1.391 . S
C351 H339 0.950 . S
C351 C347 1.393 . S
C351 C350 1.391 . S
H352 C360 0.950 . S
H353 C365 0.950 . S
H354 C362 0.950 . S
H355 C364 0.950 . S
H356 C366 0.950 . S
H357 C368 0.950 . S
H358 C370 0.950 . S
H359 C371 0.950 . S
C360 H352 0.950 . S
C360 C361 1.386 . S
C360 C362 1.391 . S
C361 C360 1.386 . S
C361 C365 1.393 . S
C362 H354 0.950 . S
C362 C360 1.391 . S
C362 C363 1.400 . S
C363 C362 1.400 . S
C363 C364 1.398 . S
C363 C369 1.491 . S
C364 H355 0.950 . S
C364 C363 1.398 . S
C364 C365 1.391 . S
C365 H353 0.950 . S
C365 C361 1.393 . S
C365 C364 1.391 . S
C366 H356 0.950 . S
C366 C367 1.386 . S
C366 C368 1.391 . S
C367 C366 1.386 . S
C367 C371 1.393 . S
C368 H357 0.950 . S
C368 C366 1.391 . S
C368 C369 1.400 . S
C369 C363 1.491 . S
C369 C368 1.400 . S
C369 C370 1.398 . S
C370 H358 0.950 . S
C370 C369 1.398 . S
C370 C371 1.391 . S
C371 H359 0.950 . S
C371 C367 1.393 . S
C371 C370 1.391 . S
H372 C380 0.950 . S
H373 C385 0.950 . S
H374 C382 0.950 . S
H375 C384 0.950 . S
H376 C386 0.950 . S
H377 C388 0.950 . S
H378 C390 0.950 . S
H379 C391 0.950 . S
C380 H372 0.950 . S
C380 C381 1.386 . S
C380 C382 1.391 . S
C381 C380 1.386 . S
C381 C385 1.393 . S
C382 H374 0.950 . S
C382 C380 1.391 . S
C382 C383 1.400 . S
C383 C382 1.400 . S
C383 C384 1.398 . S
C383 C389 1.491 . S
C384 H375 0.950 . S
C384 C383 1.398 . S
C384 C385 1.391 . S
C385 H373 0.950 . S
C385 C381 1.393 . S
C385 C384 1.391 . S
C386 H376 0.950 . S
C386 C387 1.386 . S
C386 C388 1.391 1_554 S
C387 C386 1.386 . S
C387 C391 1.393 . S
C388 H377 0.950 . S
C388 C386 1.391 1_556 S
C388 C389 1.400 . S
C389 C383 1.491 . S
C389 C388 1.400 . S
C389 C390 1.398 . S
C390 H378 0.950 . S
C390 C389 1.398 . S
C390 C391 1.391 1_556 S
C391 H379 0.950 . S
C391 C387 1.393 . S
C391 C390 1.391 1_554 S
H392 C400 0.950 . S
H393 C405 0.950 . S
H394 C402 0.950 . S
H395 C404 0.950 . S
H396 C406 0.950 . S
H397 C408 0.950 . S
H398 C410 0.950 1_545 S
H399 C411 0.950 . S
C400 H392 0.950 . S
C400 C401 1.386 . S
C400 C402 1.391 . S
C401 C400 1.386 . S
C401 C405 1.393 . S
C402 H394 0.950 . S
C402 C400 1.391 . S
C402 C403 1.400 . S
C403 C402 1.400 . S
C403 C404 1.398 . S
C403 C409 1.491 . S
C404 H395 0.950 . S
C404 C403 1.398 . S
C404 C405 1.391 . S
C405 H393 0.950 . S
C405 C401 1.393 . S
C405 C404 1.391 . S
C406 H396 0.950 . S
C406 C407 1.386 . S
C406 C408 1.391 . S
C407 C406 1.386 . S
C407 C411 1.393 1_565 S
C408 H397 0.950 . S
C408 C406 1.391 . S
C408 C409 1.400 . S
C409 C403 1.491 . S
C409 C408 1.400 . S
C409 C410 1.398 . S
C410 H398 0.950 1_565 S
C410 C409 1.398 . S
C410 C411 1.391 1_565 S
C411 H399 0.950 . S
C411 C407 1.393 1_545 S
C411 C410 1.391 1_545 S
H412 C420 0.950 . S
H413 C425 0.950 . S
H414 C422 0.950 1_455 S
H415 C424 0.950 . S
H416 C426 0.950 . S
H417 C428 0.950 . S
H418 C430 0.950 . S
H419 C431 0.950 . S
C420 H412 0.950 . S
C420 C421 1.386 1_455 S
C420 C422 1.391 1_455 S
C421 C420 1.386 1_655 S
C421 C425 1.393 . S
C422 H414 0.950 1_655 S
C422 C420 1.391 1_655 S
C422 C423 1.400 . S
C423 C422 1.400 . S
C423 C424 1.398 . S
C423 C429 1.491 . S
C424 H415 0.950 . S
C424 C423 1.398 . S
C424 C425 1.391 . S
C425 H413 0.950 . S
C425 C421 1.393 . S
C425 C424 1.391 . S
C426 H416 0.950 . S
C426 C427 1.386 . S
C426 C428 1.391 . S
C427 C426 1.386 . S
C427 C431 1.393 . S
C428 H417 0.950 . S
C428 C426 1.391 . S
C428 C429 1.400 . S
C429 C423 1.491 . S
C429 C428 1.400 . S
C429 C430 1.398 . S
C430 H418 0.950 . S
C430 C429 1.398 . S
C430 C431 1.391 . S
C431 H419 0.950 . S
C431 C427 1.393 . S
C431 C430 1.391 . S
C261 C74 1.548 . S
C267 C63 1.548 . S
C281 C147 1.532 . S
C287 C158 1.532 . S
C301 C231 1.533 . S
C307 C242 1.533 . S
C321 C237 1.415 . S
C327 C67 1.557 . S
C341 C142 1.017 . S
C347 C56 1.376 . S
C361 C235 1.580 . S
C367 C153 1.452 . S
C381 C224 1.400 . S
C387 C58 1.048 . S
C401 C69 1.450 . S
C407 C151 1.581 1_565 S
C421 C226 1.032 . S
C427 C140 1.403 . S
