# Generated by pormake.
# Topology lcy-e, (6)-cn, num edge types: 1
# Building blocks:
#     Node 0, Type 0, BuildingBlock: CUKXOW_clean_sbu_0, # of connection points: 6
#     Node 1, Type 0, BuildingBlock: CUKXOW_clean_sbu_0, # of connection points: 6
#     Node 2, Type 0, BuildingBlock: CUKXOW_clean_sbu_0, # of connection points: 6
#     Node 3, Type 0, BuildingBlock: CUKXOW_clean_sbu_0, # of connection points: 6
#     Node 4, Type 0, BuildingBlock: CUKXOW_clean_sbu_0, # of connection points: 6
#     Node 5, Type 0, BuildingBlock: CUKXOW_clean_sbu_0, # of connection points: 6
#     Node 6, Type 0, BuildingBlock: CUKXOW_clean_sbu_0, # of connection points: 6
#     Node 7, Type 0, BuildingBlock: CUKXOW_clean_sbu_0, # of connection points: 6
#     Node 8, Type 0, BuildingBlock: CUKXOW_clean_sbu_0, # of connection points: 6
#     Node 9, Type 0, BuildingBlock: CUKXOW_clean_sbu_0, # of connection points: 6
#     Node 10, Type 0, BuildingBlock: CUKXOW_clean_sbu_0, # of connection points: 6
#     Node 11, Type 0, BuildingBlock: CUKXOW_clean_sbu_0, # of connection points: 6
#     Edge 12, Type (0, 0), BuildingBlock: KIFKEQ_clean_linker_1, # of connection points: 2
#     Edge 13, Type (0, 0), BuildingBlock: KIFKEQ_clean_linker_1, # of connection points: 2
#     Edge 14, Type (0, 0), BuildingBlock: KIFKEQ_clean_linker_1, # of connection points: 2
#     Edge 15, Type (0, 0), BuildingBlock: KIFKEQ_clean_linker_1, # of connection points: 2
#     Edge 16, Type (0, 0), BuildingBlock: KIFKEQ_clean_linker_1, # of connection points: 2
#     Edge 17, Type (0, 0), BuildingBlock: KIFKEQ_clean_linker_1, # of connection points: 2
#     Edge 18, Type (0, 0), BuildingBlock: KIFKEQ_clean_linker_1, # of connection points: 2
#     Edge 19, Type (0, 0), BuildingBlock: KIFKEQ_clean_linker_1, # of connection points: 2
#     Edge 20, Type (0, 0), BuildingBlock: KIFKEQ_clean_linker_1, # of connection points: 2
#     Edge 21, Type (0, 0), BuildingBlock: KIFKEQ_clean_linker_1, # of connection points: 2
#     Edge 22, Type (0, 0), BuildingBlock: KIFKEQ_clean_linker_1, # of connection points: 2
#     Edge 23, Type (0, 0), BuildingBlock: KIFKEQ_clean_linker_1, # of connection points: 2
#     Edge 24, Type (0, 0), BuildingBlock: KIFKEQ_clean_linker_1, # of connection points: 2
#     Edge 25, Type (0, 0), BuildingBlock: KIFKEQ_clean_linker_1, # of connection points: 2
#     Edge 26, Type (0, 0), BuildingBlock: KIFKEQ_clean_linker_1, # of connection points: 2
#     Edge 27, Type (0, 0), BuildingBlock: KIFKEQ_clean_linker_1, # of connection points: 2
#     Edge 28, Type (0, 0), BuildingBlock: KIFKEQ_clean_linker_1, # of connection points: 2
#     Edge 29, Type (0, 0), BuildingBlock: KIFKEQ_clean_linker_1, # of connection points: 2
#     Edge 30, Type (0, 0), BuildingBlock: KIFKEQ_clean_linker_1, # of connection points: 2
#     Edge 31, Type (0, 0), BuildingBlock: KIFKEQ_clean_linker_1, # of connection points: 2
#     Edge 32, Type (0, 0), BuildingBlock: KIFKEQ_clean_linker_1, # of connection points: 2
#     Edge 33, Type (0, 0), BuildingBlock: KIFKEQ_clean_linker_1, # of connection points: 2
#     Edge 34, Type (0, 0), BuildingBlock: KIFKEQ_clean_linker_1, # of connection points: 2
#     Edge 35, Type (0, 0), BuildingBlock: KIFKEQ_clean_linker_1, # of connection points: 2
#     Edge 36, Type (0, 0), BuildingBlock: KIFKEQ_clean_linker_1, # of connection points: 2
#     Edge 37, Type (0, 0), BuildingBlock: KIFKEQ_clean_linker_1, # of connection points: 2
#     Edge 38, Type (0, 0), BuildingBlock: KIFKEQ_clean_linker_1, # of connection points: 2
#     Edge 39, Type (0, 0), BuildingBlock: KIFKEQ_clean_linker_1, # of connection points: 2
#     Edge 40, Type (0, 0), BuildingBlock: KIFKEQ_clean_linker_1, # of connection points: 2
#     Edge 41, Type (0, 0), BuildingBlock: KIFKEQ_clean_linker_1, # of connection points: 2
#     Edge 42, Type (0, 0), BuildingBlock: KIFKEQ_clean_linker_1, # of connection points: 2
#     Edge 43, Type (0, 0), BuildingBlock: KIFKEQ_clean_linker_1, # of connection points: 2
#     Edge 44, Type (0, 0), BuildingBlock: KIFKEQ_clean_linker_1, # of connection points: 2
#     Edge 45, Type (0, 0), BuildingBlock: KIFKEQ_clean_linker_1, # of connection points: 2
#     Edge 46, Type (0, 0), BuildingBlock: KIFKEQ_clean_linker_1, # of connection points: 2
#     Edge 47, Type (0, 0), BuildingBlock: KIFKEQ_clean_linker_1, # of connection points: 2
# Relax obj value: 0.161
# Max RMSD: 0.260
# Mean RMSD: 0.229
data_MOF--net-lcy-e--node1-CUKXOW_clean_sbu_0--edge1-KIFKEQ_clean_linker_1
_symmetry_space_group_name_H-M    P1
_symmetry_Int_Tables_number       1
_symmetry_cell_setting            triclinic
loop_
_symmetry_equiv_pos_as_xyz
'x, y, z'
_cell_length_a     35.4141
_cell_length_b     37.957502
_cell_length_c     38.321487
_cell_angle_alpha  89.96971
_cell_angle_beta   91.710489
_cell_angle_gamma 88.828018
loop_
_atom_site_label
_atom_site_type_symbol
_atom_site_fract_x
_atom_site_fract_y
_atom_site_fract_z
_atom_type_partial_charge
Tb0 Tb 0.17621 0.18237 0.42251 0.0
C1 C 0.09918 0.14192 0.42352 0.0
Tb2 Tb 0.1155 0.20866 0.47187 0.0
O3 O 0.18396 0.13381 0.45133 0.0
O4 O 0.16723 0.18002 0.477 0.0
O5 O 0.12934 0.14877 0.40464 0.0
C6 C 0.0646 0.21795 0.52094 0.0
O7 O 0.09071 0.16034 0.45185 0.0
C8 C 0.11733 0.23905 0.41045 0.0
C9 C 0.18914 0.25029 0.47092 0.0
O10 O 0.06593 0.23577 0.49219 0.0
O11 O 0.09199 0.19474 0.52215 0.0
O12 O 0.10788 0.25588 0.43843 0.0
O13 O 0.12315 0.20734 0.41771 0.0
O14 O 0.16204 0.23974 0.49125 0.0
O15 O 0.19658 0.23439 0.4408 0.0
C16 C 0.23056 0.17264 0.37674 0.0
O17 O 0.23229 0.16305 0.40917 0.0
O18 O 0.19804 0.18799 0.36978 0.0
C19 C 0.1723 0.14708 0.48033 0.0
Tb20 Tb 0.09679 0.9194 0.70701 0.0
C21 C 0.12392 0.83959 0.69416 0.0
Tb22 Tb 0.07158 0.86121 0.75378 0.0
O23 O 0.1289 0.94149 0.75097 0.0
O24 O 0.12325 0.88731 0.74666 0.0
O25 O 0.11818 0.87144 0.67984 0.0
C26 C 0.06504 0.82198 0.8105 0.0
O27 O 0.11433 0.83243 0.72642 0.0
C28 C 0.03277 0.86886 0.69482 0.0
C29 C 0.03412 0.93772 0.7621 0.0
O30 O 0.05171 0.81399 0.77963 0.0
O31 O 0.08137 0.85219 0.80949 0.0
O32 O 0.03621 0.8388 0.71102 0.0
O33 O 0.04679 0.89233 0.7138 0.0
O34 O 0.04146 0.90641 0.77664 0.0
O35 O 0.04991 0.94717 0.7325 0.0
C36 C 0.11098 0.96638 0.65763 0.0
O37 O 0.13027 0.96202 0.68656 0.0
O38 O 0.08432 0.94348 0.65585 0.0
C39 C 0.13664 0.91137 0.7657 0.0
Tb40 Tb 0.4314 0.83087 0.96806 0.0
C41 C 0.35252 0.8567 0.93053 0.0
Tb42 Tb 0.35571 0.80341 0.99278 0.0
O43 O 0.44352 0.77943 0.94344 0.0
O44 O 0.38896 0.79749 0.94813 0.0
O45 O 0.38999 0.86043 0.93365 0.0
C46 C 0.29907 0.75979 1.00205 0.0
O47 O 0.33353 0.83407 0.94921 0.0
C48 C 0.3727 0.86589 0.01543 0.0
C49 C 0.43058 0.78236 0.03579 0.0
O50 O 0.31007 0.7836 0.02429 0.0
O51 O 0.32001 0.76057 0.97491 0.0
O52 O 0.33818 0.85477 1.01331 0.0
O53 O 0.39561 0.84062 1.01009 0.0
O54 O 0.3963 0.77266 0.02524 0.0
O55 O 0.44868 0.80774 0.01935 0.0
C56 C 0.49025 0.87069 0.95164 0.0
O57 O 0.48767 0.83711 0.94601 0.0
O58 O 0.45985 0.88166 0.96654 0.0
C59 C 0.40826 0.7716 0.93789 0.0
Tb60 Tb 0.46583 0.15141 0.14398 0.0
C61 C 0.4345 0.2313 0.14564 0.0
Tb62 Tb 0.49869 0.20365 0.1986 0.0
O63 O 0.44329 0.1209 0.18741 0.0
O64 O 0.44938 0.17443 0.19127 0.0
O65 O 0.43597 0.20078 0.12806 0.0
C66 C 0.50597 0.2328 0.26181 0.0
O67 O 0.45531 0.23754 0.17446 0.0
C68 C 0.53937 0.19464 0.14271 0.0
C69 C 0.5325 0.1267 0.19347 0.0
O70 O 0.51449 0.24829 0.23265 0.0
O71 O 0.49335 0.20169 0.25488 0.0
O72 O 0.55317 0.20545 0.17266 0.0
O73 O 0.50397 0.19355 0.14442 0.0
O74 O 0.52355 0.15308 0.21439 0.0
O75 O 0.51755 0.12372 0.16156 0.0
C76 C 0.43999 0.1095 0.09289 0.0
O77 O 0.47507 0.11816 0.098 0.0
O78 O 0.41953 0.12612 0.11537 0.0
C79 C 0.4401 0.1478 0.20791 0.0
Tb80 Tb 0.61257 0.34874 0.56856 0.0
C81 C 0.6979 0.36592 0.59297 0.0
Tb82 Tb 0.67808 0.31333 0.53292 0.0
O83 O 0.59827 0.29751 0.59025 0.0
O84 O 0.65396 0.30956 0.58295 0.0
O85 O 0.66127 0.37498 0.5941 0.0
C86 C 0.72249 0.25925 0.51307 0.0
O87 O 0.7108 0.3403 0.57268 0.0
C88 C 0.66083 0.37736 0.51005 0.0
C89 C 0.59489 0.3024 0.50269 0.0
O90 O 0.71392 0.28703 0.49431 0.0
O91 O 0.70699 0.26266 0.54312 0.0
O92 O 0.69461 0.36311 0.50843 0.0
O93 O 0.63852 0.35421 0.52014 0.0
O94 O 0.62903 0.28808 0.50802 0.0
O95 O 0.58356 0.33026 0.52087 0.0
C96 C 0.55824 0.38828 0.59733 0.0
O97 O 0.5652 0.35525 0.60346 0.0
O98 O 0.58222 0.39946 0.57505 0.0
C99 C 0.6328 0.2858 0.59362 0.0
Tb100 Tb 0.93102 0.42827 0.83882 0.0
C101 C 0.89634 0.35188 0.83658 0.0
Tb102 Tb 0.95834 0.37526 0.78412 0.0
O103 O 0.87507 0.43432 0.81402 0.0
O104 O 0.92174 0.42035 0.78444 0.0
O105 O 0.90387 0.37964 0.857 0.0
C106 C 0.96588 0.33028 0.73146 0.0
O107 O 0.90992 0.34894 0.80479 0.0
C108 C 0.99977 0.37881 0.84196 0.0
C109 C 0.99875 0.44645 0.78793 0.0
O110 O 0.97658 0.32411 0.76356 0.0
O111 O 0.95156 0.36188 0.72887 0.0
O112 O 0.01363 0.37003 0.81212 0.0
O113 O 0.96467 0.38216 0.8384 0.0
O114 O 0.98777 0.42082 0.76683 0.0
O115 O 0.98411 0.45099 0.81939 0.0
C116 C 0.92421 0.4779 0.88813 0.0
O117 O 0.92638 0.48353 0.85493 0.0
O118 O 0.92585 0.44412 0.89377 0.0
C119 C 0.88611 0.42322 0.78396 0.0
Tb120 Tb 0.85658 0.70053 0.12556 0.0
C121 C 0.93569 0.66158 0.13123 0.0
Tb122 Tb 0.91855 0.72425 0.07795 0.0
O123 O 0.85603 0.64937 0.10011 0.0
O124 O 0.86913 0.6943 0.07199 0.0
O125 O 0.90395 0.66883 0.14796 0.0
C126 C 0.96626 0.72532 0.02576 0.0
O127 O 0.94457 0.67774 0.102 0.0
C128 C 0.9121 0.76088 0.13565 0.0
C129 C 0.84409 0.76804 0.07594 0.0
O130 O 0.97304 0.73824 0.05664 0.0
O131 O 0.93281 0.7122 0.02441 0.0
O132 O 0.9249 0.77383 0.10695 0.0
O133 O 0.9072 0.72837 0.13176 0.0
O134 O 0.87305 0.75737 0.05745 0.0
O135 O 0.83514 0.7524 0.10567 0.0
C136 C 0.79815 0.68806 0.16581 0.0
O137 O 0.79824 0.68549 0.13212 0.0
O138 O 0.831 0.6987 0.17718 0.0
C139 C 0.86723 0.66113 0.07059 0.0
Tb140 Tb 0.54783 0.67346 0.34992 0.0
C141 C 0.55914 0.59443 0.37955 0.0
Tb142 Tb 0.50041 0.61423 0.3196 0.0
O143 O 0.49973 0.69457 0.37872 0.0
O144 O 0.50328 0.64187 0.36795 0.0
O145 O 0.57508 0.62599 0.37579 0.0
C146 C 0.44135 0.5741 0.30462 0.0
O147 O 0.5262 0.58708 0.36407 0.0
C148 C 0.56818 0.61998 0.29432 0.0
C149 C 0.49667 0.68723 0.27993 0.0
O150 O 0.47587 0.56714 0.29587 0.0
O151 O 0.44012 0.60373 0.32145 0.0
O152 O 0.54987 0.59059 0.29354 0.0
O153 O 0.54631 0.64396 0.30419 0.0
O154 O 0.4781 0.65826 0.28731 0.0
O155 O 0.52795 0.69542 0.29835 0.0
C156 C 0.59716 0.72388 0.36635 0.0
O157 O 0.56196 0.72867 0.3573 0.0
O158 O 0.60491 0.69019 0.36691 0.0
C159 C 0.48205 0.66516 0.3807 0.0
Tb160 Tb 0.1704 0.4094 0.14438 0.0
C161 C 0.13691 0.41881 0.06968 0.0
Tb162 Tb 0.18831 0.47547 0.10519 0.0
O163 O 0.11214 0.42781 0.15213 0.0
O164 O 0.15538 0.46352 0.14861 0.0
O165 O 0.15244 0.39498 0.09139 0.0
C166 C 0.18771 0.53653 0.07077 0.0
O167 O 0.14251 0.45294 0.07397 0.0
C168 C 0.23979 0.42478 0.10276 0.0
C169 C 0.2247 0.46668 0.17934 0.0
O170 O 0.17062 0.53087 0.09963 0.0
O171 O 0.20492 0.50779 0.06127 0.0
O172 O 0.24739 0.45806 0.10159 0.0
O173 O 0.20454 0.42121 0.10208 0.0
O174 O 0.21402 0.48965 0.1548 0.0
O175 O 0.21351 0.43344 0.179 0.0
C176 C 0.17102 0.3508 0.18287 0.0
O177 O 0.1422 0.36363 0.16519 0.0
O178 O 0.19989 0.37041 0.17788 0.0
C179 C 0.12022 0.46077 0.14998 0.0
Tb180 Tb 0.72301 0.09813 0.86331 0.0
C181 C 0.69562 0.11621 0.94115 0.0
Tb182 Tb 0.75815 0.05847 0.92767 0.0
O183 O 0.69277 0.04998 0.84847 0.0
O184 O 0.70563 0.0606 0.9001 0.0
O185 O 0.69599 0.12634 0.90755 0.0
C186 C 0.76906 1.00117 0.96805 0.0
O187 O 0.71408 0.08769 0.9532 0.0
C188 C 0.78716 0.12005 0.9142 0.0
C189 C 0.79346 0.04579 0.8533 0.0
O190 O 0.78567 0.03121 0.97307 0.0
O191 O 0.74691 1.00381 0.94063 0.0
O192 O 0.78921 0.1055 0.94514 0.0
O193 O 0.77423 0.09797 0.89265 0.0
O194 O 0.78832 0.0333 0.88512 0.0
O195 O 0.77457 0.07425 0.84111 0.0
C196 C 0.69962 0.13993 0.80962 0.0
O197 O 0.69489 0.10629 0.81209 0.0
O198 O 0.71698 0.15053 0.83802 0.0
C199 C 0.69204 0.03777 0.88 0.0
Tb200 Tb 0.8469 0.94862 0.41538 0.0
C201 C 0.85718 0.90862 0.34309 0.0
Tb202 Tb 0.80493 0.97504 0.35001 0.0
O203 O 0.79485 0.92725 0.43553 0.0
O204 O 0.80165 0.93017 0.38282 0.0
O205 O 0.87295 0.91583 0.37431 0.0
C206 C 0.74725 0.99139 0.30611 0.0
O207 O 0.82617 0.92509 0.33082 0.0
C208 C 0.87487 0.99645 0.35758 0.0
C209 C 0.80116 0.02118 0.41866 0.0
O210 O 0.78261 0.997 0.3003 0.0
O211 O 0.74463 0.97663 0.33643 0.0
O212 O 0.85713 0.99453 0.32742 0.0
O213 O 0.85168 0.99137 0.38115 0.0
O214 O 0.78389 1.01224 0.3889 0.0
O215 O 0.8309 1.00264 0.43122 0.0
C216 C 0.89116 0.92964 0.47041 0.0
O217 O 0.85724 0.94272 0.47139 0.0
O218 O 0.90083 0.92721 0.438 0.0
C219 C 0.77819 0.92279 0.40548 0.0
Tb220 Tb 0.30309 0.59336 0.66972 0.0
C221 C 0.33371 0.59611 0.59139 0.0
Tb222 Tb 0.26768 0.5453 0.61055 0.0
O223 O 0.32895 0.54576 0.69471 0.0
O224 O 0.317 0.54701 0.64246 0.0
O225 O 0.33064 0.61301 0.6221 0.0
C226 C 0.25679 0.48588 0.57431 0.0
O227 O 0.31455 0.56729 0.58297 0.0
C228 C 0.23178 0.60586 0.62207 0.0
C229 C 0.23308 0.54599 0.68525 0.0
O230 O 0.25538 0.51756 0.56082 0.0
O231 O 0.26437 0.48816 0.60756 0.0
O232 O 0.21579 0.57913 0.60663 0.0
O233 O 0.26626 0.59856 0.62589 0.0
O234 O 0.24165 0.52687 0.65763 0.0
O235 O 0.25017 0.57606 0.69264 0.0
C236 C 0.32574 0.64157 0.71692 0.0
O237 O 0.29091 0.63511 0.70771 0.0
O238 O 0.3479 0.62196 0.69821 0.0
C239 C 0.32892 0.52703 0.6664 0.0
H240 H 0.22779 0.26287 0.53157 0.0
H241 H 0.19192 0.31186 0.43447 0.0
H242 H 0.24911 0.31931 0.55378 0.0
H243 H 0.20999 0.36937 0.45743 0.0
H244 H 0.26033 0.47007 0.504 0.0
H245 H 0.25078 0.4125 0.47637 0.0
H246 H 0.22449 0.36884 0.57694 0.0
H247 H 0.23662 0.42505 0.60407 0.0
C248 C 0.22487 0.28587 0.51486 0.0
C249 C 0.20852 0.283 0.48127 0.0
C250 C 0.23639 0.31855 0.52777 0.0
C251 C 0.23036 0.3497 0.50802 0.0
C252 C 0.21547 0.34636 0.47361 0.0
C253 C 0.20503 0.31332 0.46031 0.0
C254 C 0.25268 0.44793 0.51998 0.0
C255 C 0.24947 0.452 0.55621 0.0
C256 C 0.24702 0.41485 0.5042 0.0
C257 C 0.2373 0.38526 0.52424 0.0
C258 C 0.23327 0.3901 0.56042 0.0
C259 C 0.23976 0.4227 0.57612 0.0
H260 H 0.82195 0.97903 0.85802 0.0
H261 H 0.83905 0.07835 0.8066 0.0
H262 H 0.8806 0.95582 0.83513 0.0
H263 H 0.89894 0.05547 0.78438 0.0
H264 H 0.99048 0.98814 0.72762 0.0
H265 H 0.93124 1.01502 0.74658 0.0
H266 H 0.9459 0.96226 0.84616 0.0
H267 H 1.00414 0.93463 0.82677 0.0
C268 C 0.83819 0.99587 0.84155 0.0
C269 C 0.82585 0.03057 0.83423 0.0
C270 C 0.87218 0.9827 0.82873 0.0
C271 C 0.89526 1.00398 0.80857 0.0
C272 C 0.88203 0.03825 0.7998 0.0
C273 C 0.8476 0.05137 0.81241 0.0
C274 C 0.98134 0.98277 0.75379 0.0
C275 C 1.002 0.95902 0.7756 0.0
C276 C 0.94726 0.99817 0.76466 0.0
C277 C 0.93314 0.99032 0.79768 0.0
C278 C 0.95508 0.96813 0.82013 0.0
C279 C 0.98883 0.95254 0.80917 0.0
H280 H 0.26666 0.74386 0.06345 0.0
H281 H 0.26889 0.71454 0.95472 0.0
H282 H 0.22981 0.69199 0.07576 0.0
H283 H 0.23068 0.66341 0.96654 0.0
H284 H 0.15711 0.59961 0.09077 0.0
H285 H 0.17361 0.65802 0.06972 0.0
H286 H 0.24716 0.60933 0.99474 0.0
H287 H 0.22969 0.55149 0.01499 0.0
C288 C 0.25828 0.72681 0.04205 0.0
C289 C 0.27102 0.73271 1.00831 0.0
C290 C 0.23694 0.6972 0.049 0.0
C291 C 0.22771 0.67323 0.02219 0.0
C292 C 0.23802 0.6809 0.9879 0.0
C293 C 0.25973 0.71023 0.98108 0.0
C294 C 0.1761 0.60159 0.06925 0.0
C295 C 0.19247 0.57122 0.05467 0.0
C296 C 0.18573 0.63496 0.05734 0.0
C297 C 0.21199 0.63842 0.03078 0.0
C298 C 0.22647 0.60779 0.0149 0.0
C299 C 0.2167 0.57455 0.02667 0.0
H300 H 0.58033 0.08452 0.15585 0.0
H301 H 0.54912 0.11034 0.26106 0.0
H302 H 0.63142 0.04567 0.1792 0.0
H303 H 0.59957 0.07192 0.2841 0.0
H304 H 0.67319 0.98161 0.31803 0.0
H305 H 0.61879 1.00842 0.28695 0.0
H306 H 0.69316 0.05618 0.21407 0.0
H307 H 0.74782 0.02899 0.24519 0.0
C308 C 0.58401 0.08147 0.18386 0.0
C309 C 0.56086 0.10051 0.20665 0.0
C310 C 0.61332 0.05947 0.19718 0.0
C311 C 0.61938 0.05571 0.23345 0.0
C312 C 0.59533 0.0739 0.25605 0.0
C313 C 0.56658 0.09613 0.24282 0.0
C314 C 0.67789 0.99737 0.29504 0.0
C315 C 0.71466 1.00363 0.28421 0.0
C316 C 0.64677 1.01276 0.27731 0.0
C317 C 0.65178 0.03469 0.24833 0.0
C318 C 0.68846 0.03923 0.2362 0.0
C319 C 0.71971 0.02386 0.25408 0.0
H320 H 0.74194 0.20072 0.55115 0.0
H321 H 0.74217 0.24271 0.4465 0.0
H322 H 0.76298 0.14324 0.52949 0.0
H323 H 0.76338 0.18523 0.42475 0.0
H324 H 0.748 0.06927 0.39476 0.0
H325 H 0.73333 0.12731 0.41805 0.0
H326 H 0.81578 0.11013 0.5019 0.0
H327 H 0.83062 0.05156 0.47855 0.0
C328 C 0.74714 0.19779 0.52358 0.0
C329 C 0.74036 0.22618 0.50049 0.0
C330 C 0.75926 0.16487 0.51118 0.0
C331 C 0.76451 0.15949 0.47534 0.0
C332 C 0.75906 0.18833 0.45245 0.0
C333 C 0.74723 0.22135 0.46491 0.0
C334 C 0.76301 0.07763 0.41826 0.0
C335 C 0.79058 0.05557 0.43473 0.0
C336 C 0.75479 0.11117 0.43143 0.0
C337 C 0.77368 0.12361 0.46161 0.0
C338 C 0.80067 0.10133 0.47862 0.0
C339 C 0.80916 0.06775 0.46524 0.0
H340 H 0.04974 0.48606 0.82716 0.0
H341 H 0.02056 0.45555 0.72136 0.0
H342 H 0.10776 0.51304 0.80637 0.0
H343 H 0.0776 0.48203 0.70107 0.0
H344 H 0.20187 0.48112 0.68374 0.0
H345 H 0.14535 0.46176 0.71149 0.0
H346 H 0.13444 0.56215 0.7633 0.0
H347 H 0.19191 0.58208 0.73505 0.0
C348 C 0.05522 0.48569 0.79951 0.0
C349 C 0.03064 0.46816 0.77605 0.0
C350 C 0.08847 0.50108 0.78763 0.0
C351 C 0.09769 0.49904 0.75214 0.0
C352 C 0.07186 0.48339 0.72866 0.0
C353 C 0.03897 0.46824 0.74038 0.0
C354 C 0.18784 0.49924 0.7012 0.0
C355 C 0.20141 0.53344 0.70668 0.0
C356 C 0.15521 0.48806 0.71709 0.0
C357 C 0.1349 0.51059 0.73913 0.0
C358 C 0.1494 0.54419 0.74638 0.0
C359 C 0.18233 0.55557 0.7302 0.0
H360 H 0.81642 0.98848 0.02543 0.0
H361 H 0.73488 0.93901 0.95642 0.0
H362 H 0.82856 0.93166 0.0551 0.0
H363 H 0.74689 0.88281 0.98576 0.0
H364 H 0.82542 0.78544 1.00919 0.0
H365 H 0.8035 0.84249 0.98661 0.0
H366 H 0.79823 0.88266 0.09177 0.0
H367 H 0.82 0.82477 0.11453 0.0
C368 C 0.80085 0.96562 0.01688 0.0
C369 C 0.77502 0.96812 0.98837 0.0
C370 C 0.8076 0.93317 0.03396 0.0
C371 C 0.78885 0.90265 0.02263 0.0
C372 C 0.76212 0.90566 0.99489 0.0
C373 C 0.75523 0.93793 0.97809 0.0
C374 C 0.81871 0.80617 0.02756 0.0
C375 C 0.82398 0.80053 0.06361 0.0
C376 C 0.80618 0.83892 1.01463 0.0
C377 C 0.79919 0.86721 0.03737 0.0
C378 C 0.80354 0.86141 0.0736 0.0
C379 C 0.81548 0.82822 0.08664 0.0
H380 H 0.43967 0.51397 0.26587 0.0
H381 H 0.36839 0.5874 0.32101 0.0
H382 H 0.38369 0.48382 0.24339 0.0
H383 H 0.31243 0.55702 0.29899 0.0
H384 H 0.23449 0.53373 0.2016 0.0
H385 H 0.28512 0.55554 0.23928 0.0
H386 H 0.32662 0.44895 0.25671 0.0
H387 H 0.27563 0.42695 0.21845 0.0
C388 C 0.41203 0.52321 0.27367 0.0
C389 C 0.40818 0.55325 0.29468 0.0
C390 C 0.38002 0.5058 0.26107 0.0
C391 C 0.34368 0.51823 0.26926 0.0
C392 C 0.34007 0.54713 0.29192 0.0
C393 C 0.37205 0.56449 0.30451 0.0
C394 C 0.254 0.51485 0.21393 0.0
C395 C 0.25137 0.47869 0.20686 0.0
C396 C 0.28286 0.52733 0.23577 0.0
C397 C 0.30994 0.50395 0.25084 0.0
C398 C 0.30626 0.46755 0.2452 0.0
C399 C 0.27698 0.45497 0.22355 0.0
H400 H 0.53505 0.2963 0.28354 0.0
H401 H 0.49196 0.19836 0.32163 0.0
H402 H 0.55062 0.31399 0.34396 0.0
H403 H 0.50761 0.21578 0.38137 0.0
H404 H 0.59662 0.23842 0.47065 0.0
H405 H 0.57052 0.22362 0.41299 0.0
H406 H 0.5204 0.32793 0.4036 0.0
H407 H 0.54625 0.34271 0.46174 0.0
C408 C 0.52853 0.27881 0.30477 0.0
C409 C 0.51257 0.24588 0.29785 0.0
C410 C 0.53727 0.28894 0.33931 0.0
C411 C 0.53056 0.26612 0.36739 0.0
C412 C 0.51351 0.23374 0.36033 0.0
C413 C 0.50447 0.22384 0.32606 0.0
C414 C 0.57932 0.25795 0.45665 0.0
C415 C 0.57326 0.29161 0.47089 0.0
C416 C 0.56441 0.2495 0.42358 0.0
C417 C 0.54358 0.2747 0.40365 0.0
C418 C 0.53656 0.30808 0.41825 0.0
C419 C 0.55095 0.31635 0.45171 0.0
H420 H 0.01878 0.27534 0.52596 0.0
H421 H 0.05597 0.18121 0.58127 0.0
H422 H 0.9876 0.29653 0.57743 0.0
H423 H 0.02257 0.20127 0.63274 0.0
H424 H 0.0174 0.27674 0.72755 0.0
H425 H 0.03349 0.24322 0.67583 0.0
H426 H 0.9411 0.29494 0.61811 0.0
H427 H 0.9271 0.33021 0.66946 0.0
C428 C 0.01925 0.2587 0.54896 0.0
C429 C 0.04013 0.22696 0.54996 0.0
C430 C 1.00104 0.27067 0.57851 0.0
C431 C 1.00275 0.25082 0.60958 0.0
C432 C 0.0214 0.21767 0.60959 0.0
C433 C 0.04026 0.206 0.5801 0.0
C434 C 1.00037 0.28052 0.70383 0.0
C435 C 0.9716 0.30637 0.70203 0.0
C436 C 1.00928 0.26107 0.6742 0.0
C437 C 0.98896 0.26664 0.64245 0.0
C438 C 0.95812 0.29068 0.64173 0.0
C439 C 0.94991 0.31076 0.67112 0.0
H440 H 0.07675 0.84354 0.87712 0.0
H441 H 0.04315 0.75391 0.81521 0.0
H442 H 0.06126 0.81246 0.93001 0.0
H443 H 0.02964 0.72159 0.86835 0.0
H444 H 0.94803 0.70814 0.95914 0.0
H445 H 0.98038 0.72516 0.90721 0.0
H446 H 0.07108 0.76765 0.97155 0.0
H447 H 0.03712 0.75214 0.02382 0.0
C448 C 0.06687 0.81678 0.875 0.0
C449 C 0.06036 0.80126 0.84228 0.0
C450 C 0.05839 0.79872 0.90535 0.0
C451 C 0.04382 0.76454 0.90353 0.0
C452 C 0.03994 0.74817 0.87069 0.0
C453 C 0.04775 0.76655 0.84027 0.0
C454 C 0.97519 0.72061 0.96216 0.0
C455 C 0.98982 0.72954 0.9953 0.0
C456 C 0.99403 0.73009 0.93234 0.0
C457 C 0.0282 0.74826 0.93508 0.0
C458 C 0.04436 0.75448 0.96849 0.0
C459 C 0.02512 0.74543 0.9984 0.0
H460 H 0.43038 0.68553 0.24131 0.0
H461 H 0.54167 0.72954 0.24072 0.0
H462 H 0.41694 0.70887 0.18308 0.0
H463 H 0.52895 0.75181 0.18159 0.0
H464 H 0.48182 0.81124 0.08295 0.0
H465 H 0.49775 0.79107 0.14237 0.0
H466 H 0.42939 0.69935 0.12505 0.0
H467 H 0.41248 0.7203 0.06667 0.0
C468 C 0.45202 0.70036 0.22881 0.0
C469 C 0.4871 0.7056 0.24601 0.0
C470 C 0.44451 0.71346 0.19496 0.0
C471 C 0.47202 0.73185 0.1767 0.0
C472 C 0.50677 0.73807 0.19444 0.0
C473 C 0.51413 0.72527 0.22858 0.0
C474 C 0.47067 0.78651 0.0917 0.0
C475 C 0.44574 0.76753 0.06982 0.0
C476 C 0.47975 0.77486 0.12599 0.0
C477 C 0.46442 0.74371 0.13935 0.0
C478 C 0.44095 0.72401 0.11663 0.0
C479 C 0.43156 0.73584 0.0827 0.0
H480 H 0.11709 0.20439 0.34915 0.0
H481 H 0.13372 0.30715 0.39469 0.0
H482 H 0.13299 0.22731 0.29194 0.0
H483 H 0.15053 0.32998 0.33728 0.0
H484 H 0.11328 0.30696 0.19516 0.0
H485 H 0.10086 0.27767 0.25046 0.0
H486 H 0.20753 0.31317 0.29335 0.0
H487 H 0.22043 0.34181 0.23784 0.0
C488 C 0.12411 0.23192 0.3468 0.0
C489 C 0.12436 0.25413 0.37611 0.0
C490 C 0.13321 0.24491 0.31419 0.0
C491 C 0.14329 0.28016 0.31053 0.0
C492 C 0.14324 0.30253 0.33977 0.0
C493 C 0.1334 0.28965 0.37237 0.0
C494 C 0.13453 0.30755 0.21607 0.0
C495 C 0.16776 0.32655 0.21239 0.0
C496 C 0.12735 0.29102 0.24765 0.0
C497 C 0.15303 0.29382 0.27606 0.0
C498 C 0.18718 0.31116 0.27179 0.0
C499 C 0.19469 0.32712 0.24001 0.0
H500 H 1.00733 0.93201 0.67046 0.0
H501 H 0.0147 0.82193 0.64266 0.0
H502 H 0.97571 0.94535 0.61465 0.0
H503 H 0.98259 0.83545 0.58613 0.0
H504 H 0.95802 0.89117 0.4748 0.0
H505 H 0.99384 0.87411 0.52857 0.0
H506 H 0.91057 0.92821 0.59003 0.0
H507 H 0.87504 0.94476 0.53705 0.0
C508 C 1.00228 0.91064 0.65229 0.0
C509 C 0.01331 0.8759 0.66088 0.0
C510 C 0.98409 0.9183 0.62037 0.0
C511 C 0.97665 0.89143 0.59612 0.0
C512 C 0.98824 0.85665 0.60434 0.0
C513 C 1.00621 0.84889 0.63668 0.0
C514 C 0.94757 0.89933 0.49987 0.0
C515 C 0.91391 0.91939 0.50183 0.0
C516 C 0.96784 0.88941 0.53053 0.0
C517 C 0.95497 0.89998 0.56338 0.0
C518 C 0.92132 0.91997 0.56507 0.0
C519 C 0.90096 0.92939 0.53471 0.0
H520 H 0.28123 0.66807 0.7678 0.0
H521 H 0.39734 0.66067 0.73746 0.0
H522 H 0.30062 0.69625 0.82218 0.0
H523 H 0.41701 0.69089 0.79109 0.0
H524 H 0.44709 0.7188 0.90403 0.0
H525 H 0.42722 0.68727 0.85113 0.0
H526 H 0.32127 0.74609 0.84919 0.0
H527 H 0.34031 0.77555 0.90267 0.0
C528 C 0.31094 0.67318 0.77247 0.0
C529 C 0.33769 0.66229 0.74818 0.0
C530 C 0.3222 0.68956 0.80378 0.0
C531 C 0.36061 0.69617 0.81159 0.0
C532 C 0.38729 0.6858 0.78673 0.0
C533 C 0.37601 0.66885 0.75562 0.0
C534 C 0.41931 0.7244 0.89253 0.0
C535 C 0.39527 0.74952 0.90784 0.0
C536 C 0.40799 0.70668 0.86182 0.0
C537 C 0.3725 0.71398 0.84524 0.0
C538 C 0.34843 0.73889 0.86109 0.0
C539 C 0.35947 0.75606 0.89196 0.0
H540 H 0.51385 0.17316 0.07801 0.0
H541 H 0.61437 0.20458 0.13512 0.0
H542 H 0.55153 0.16006 0.02687 0.0
H543 H 0.65166 0.19369 0.08379 0.0
H544 H 0.71252 0.1205 1.00983 0.0
H545 H 0.67422 0.1433 0.05585 0.0
H546 H 0.59014 0.1801 0.97948 0.0
H547 H 0.62882 0.15554 0.93255 0.0
C548 C 0.54397 0.17744 0.07953 0.0
C549 C 0.56134 0.18902 0.11081 0.0
C550 C 0.56552 0.17047 0.05005 0.0
C551 C 0.60485 0.17535 0.05115 0.0
C552 C 0.62167 0.1887 0.08208 0.0
C553 C 0.60027 0.19511 0.11157 0.0
C554 C 0.68601 0.1337 1.00259 0.0
C555 C 0.67361 0.1359 0.96744 0.0
C556 C 0.66407 0.1472 0.02917 0.0
C557 C 0.62893 0.16373 0.02165 0.0
C558 C 0.61691 0.16722 0.9863 0.0
C559 C 0.63919 0.15356 0.95936 0.0
H560 H 0.58915 0.2381 0.62615 0.0
H561 H 0.70237 0.27803 0.62654 0.0
H562 H 0.60536 0.2031 0.67818 0.0
H563 H 0.71873 0.24289 0.67862 0.0
H564 H 0.71843 0.20825 0.79516 0.0
H565 H 0.70364 0.24182 0.74152 0.0
H566 H 0.64392 0.15279 0.69895 0.0
H567 H 0.65852 0.11959 0.75237 0.0
C568 C 0.6177 0.23897 0.63704 0.0
C569 C 0.64443 0.26083 0.62213 0.0
C570 C 0.62703 0.21889 0.66693 0.0
C571 C 0.66331 0.22032 0.68291 0.0
C572 C 0.69037 0.24152 0.66739 0.0
C573 C 0.68111 0.26136 0.63728 0.0
C574 C 0.70195 0.19603 0.77438 0.0
C575 C 0.68947 0.16136 0.77808 0.0
C576 C 0.69375 0.21511 0.7435 0.0
C577 C 0.67258 0.20004 0.71575 0.0
C578 C 0.65991 0.16543 0.71979 0.0
C579 C 0.66837 0.14633 0.75043 0.0
H580 H 0.07993 0.4556 0.03761 0.0
H581 H 0.14493 0.35838 0.03123 0.0
H582 H 0.04712 0.44186 0.98276 0.0
H583 H 0.11202 0.34473 0.97553 0.0
H584 H 0.07607 0.37205 0.85531 0.0
H585 H 0.10901 0.37682 0.91252 0.0
H586 H 1.00184 0.39298 0.96151 0.0
H587 H 0.9692 0.38761 0.90507 0.0
C588 C 0.08695 0.43112 0.02454 0.0
C589 C 0.11486 0.40799 0.03856 0.0
C590 C 0.06814 0.42325 0.99323 0.0
C591 C 0.07721 0.39233 0.97503 0.0
C592 C 0.10479 0.36883 0.98915 0.0
C593 C 0.12325 0.37644 0.02101 0.0
C594 C 0.05973 0.37634 0.87843 0.0
C595 C 0.02024 0.38016 0.87583 0.0
C596 C 0.07845 0.37881 0.91103 0.0
C597 C 0.05783 0.38541 0.9412 0.0
C598 C 0.01833 0.38821 0.93855 0.0
C599 C 0.99973 0.38541 0.90623 0.0
H600 H 0.9272 0.90355 0.31543 0.0
H601 H 0.81997 0.85214 0.31911 0.0
H602 H 0.94547 0.8649 0.26695 0.0
H603 H 0.83809 0.81338 0.27139 0.0
H604 H 0.89181 0.73426 0.19818 0.0
H605 H 0.88428 0.76589 0.25314 0.0
H606 H 0.91893 0.86185 0.20393 0.0
H607 H 0.92593 0.8302 0.14872 0.0
C608 C 0.90823 0.8831 0.3067 0.0
C609 C 0.87246 0.88035 0.32109 0.0
C610 C 0.91839 0.86135 0.27876 0.0
C611 C 0.8931 0.83625 0.26529 0.0
C612 C 0.85832 0.8322 0.28135 0.0
C613 C 0.84796 0.85428 0.30871 0.0
C614 C 0.89769 0.76212 0.19909 0.0
C615 C 0.90892 0.77991 0.1691 0.0
C616 C 0.89359 0.78017 0.23059 0.0
C617 C 0.90113 0.81631 0.23288 0.0
C618 C 0.91342 0.83389 0.20308 0.0
C619 C 0.91711 0.81588 0.17144 0.0
H620 H 0.3403 0.66376 0.56686 0.0
H621 H 0.38248 0.55749 0.55356 0.0
H622 H 0.37318 0.68198 0.51468 0.0
H623 H 0.41716 0.57556 0.50309 0.0
H624 H 0.44571 0.60403 0.3941 0.0
H625 H 0.40987 0.58951 0.44521 0.0
H626 H 0.42808 0.69417 0.48619 0.0
H627 H 0.46164 0.70911 0.43386 0.0
C628 C 0.35755 0.64457 0.55332 0.0
C629 C 0.35889 0.60926 0.56425 0.0
C630 C 0.37641 0.6549 0.52327 0.0
C631 C 0.39756 0.63021 0.50382 0.0
C632 C 0.40027 0.59527 0.51623 0.0
C633 C 0.38084 0.58491 0.54564 0.0
C634 C 0.44137 0.6241 0.41374 0.0
C635 C 0.45648 0.6577 0.4098 0.0
C636 C 0.42129 0.61566 0.4435 0.0
C637 C 0.41646 0.64034 0.47068 0.0
C638 C 0.43069 0.67438 0.46605 0.0
C639 C 0.45015 0.68299 0.43593 0.0
H640 H 0.29276 0.13056 0.38611 0.0
H641 H 0.23789 0.20288 0.31279 0.0
H642 H 0.34569 0.12309 0.34702 0.0
H643 H 0.29122 0.19576 0.27386 0.0
H644 H 0.41313 0.20708 0.23859 0.0
H645 H 0.36238 0.21188 0.27998 0.0
H646 H 0.35625 0.09849 0.28394 0.0
H647 H 0.40706 0.09356 0.24188 0.0
C648 C 0.29204 0.14476 0.36156 0.0
C649 C 0.26142 0.16734 0.35236 0.0
C650 C 0.3222 0.14037 0.33923 0.0
C651 C 0.3225 0.15897 0.30763 0.0
C652 C 0.29171 0.18137 0.2983 0.0
C653 C 0.26122 0.18532 0.32039 0.0
C654 C 0.40135 0.18312 0.24862 0.0
C655 C 0.41382 0.1499 0.23692 0.0
C656 C 0.37211 0.18593 0.27205 0.0
C657 C 0.35514 0.15559 0.28464 0.0
C658 C 0.36891 0.12226 0.27445 0.0
C659 C 0.39793 0.11944 0.25054 0.0
H660 H 0.16255 0.16248 0.54967 0.0
H661 H 0.14796 0.08109 0.47201 0.0
H662 H 0.14232 0.12131 0.59486 0.0
H663 H 0.12834 0.0405 0.51637 0.0
H664 H 0.06951 0.98067 0.59825 0.0
H665 H 0.07791 0.02913 0.55733 0.0
H666 H 0.17201 0.0658 0.62083 0.0
H667 H 0.16324 0.01764 0.66192 0.0
C668 C 0.15458 0.13605 0.54231 0.0
C669 C 0.15711 0.12474 0.50763 0.0
C670 C 0.14322 0.11252 0.568 0.0
C671 C 0.1338 0.07772 0.55905 0.0
C672 C 0.13496 0.0672 0.52404 0.0
C673 C 0.14661 0.09038 0.49869 0.0
C674 C 0.09191 0.99915 0.6034 0.0
C675 C 0.1161 0.99525 0.63283 0.0
C676 C 0.09663 0.02691 0.58014 0.0
C677 C 0.12561 0.05122 0.58596 0.0
C678 C 0.14913 0.04777 0.61595 0.0
C679 C 0.14444 0.01997 0.63917 0.0
H680 H 0.17365 0.84964 0.78296 0.0
H681 H 0.17318 0.96135 0.80409 0.0
H682 H 0.23068 0.84193 0.81995 0.0
H683 H 0.23024 0.95365 0.84116 0.0
H684 H 0.3008 0.90883 0.93914 0.0
H685 H 0.24916 0.92484 0.89797 0.0
H686 H 0.29918 0.85798 0.81995 0.0
H687 H 0.3509 0.84223 0.86138 0.0
C688 C 0.18561 0.8725 0.79569 0.0
C689 C 0.16898 0.90609 0.79064 0.0
C690 C 0.21852 0.86817 0.81653 0.0
C691 C 0.2353 0.89728 0.83309 0.0
C692 C 0.21805 0.93074 0.82872 0.0
C693 C 0.18535 0.93512 0.80758 0.0
C694 C 0.30154 0.89892 0.91264 0.0
C695 C 0.33018 0.8751 0.903 0.0
C696 C 0.27185 0.90779 0.88917 0.0
C697 C 0.26983 0.89234 0.85584 0.0
C698 C 0.29975 0.87002 0.84558 0.0
C699 C 0.32972 0.86153 0.86897 0.0
H700 H 0.37105 0.07961 0.09424 0.0
H701 H 0.4811 0.06706 0.04977 0.0
H702 H 0.35418 0.02107 0.07342 0.0
H703 H 0.46392 1.00844 0.02844 0.0
H704 H 0.39969 0.916 0.97241 0.0
H705 H 0.4159 0.97666 0.98711 0.0
H706 H 0.37947 0.95988 0.09224 0.0
H707 H 0.36505 0.89857 0.07769 0.0
C708 C 0.39131 0.06469 0.07927 0.0
C709 C 0.42744 0.07785 0.07369 0.0
C710 C 0.38176 0.03103 0.06767 0.0
C711 C 0.40794 1.01002 0.04981 0.0
C712 C 0.44321 0.02408 0.04219 0.0
C713 C 0.45299 0.05764 0.05426 0.0
C714 C 0.39663 0.92488 0.99895 0.0
C715 C 0.38291 0.90226 0.02439 0.0
C716 C 0.40528 0.95975 1.00722 0.0
C717 C 0.39912 0.97295 0.04085 0.0
C718 C 0.38439 0.95046 0.06606 0.0
C719 C 0.37636 0.91541 0.05787 0.0
H720 H 0.82756 0.46644 0.7638 0.0
H721 H 0.88458 0.36929 0.73742 0.0
H722 H 0.7822 0.45808 0.71511 0.0
H723 H 0.84018 0.36086 0.68862 0.0
H724 H 0.7743 0.36638 0.58798 0.0
H725 H 0.82068 0.38445 0.63205 0.0
H726 H 0.73074 0.419 0.69851 0.0
H727 H 0.68407 0.40146 0.65386 0.0
C728 C 0.83077 0.4436 0.74711 0.0
C729 C 0.86056 0.4192 0.75328 0.0
C730 C 0.80474 0.43871 0.71942 0.0
C731 C 0.80785 0.40907 0.69761 0.0
C732 C 0.83764 0.3846 0.70413 0.0
C733 C 0.86356 0.38958 0.73177 0.0
C734 C 0.76433 0.37825 0.61179 0.0
C735 C 0.72545 0.38212 0.61759 0.0
C736 C 0.79098 0.38844 0.63715 0.0
C737 C 0.77946 0.40259 0.66906 0.0
C738 C 0.74058 0.40831 0.67413 0.0
C739 C 0.71381 0.39824 0.64857 0.0
H740 H 0.93324 0.54856 0.88047 0.0
H741 H 0.90395 0.46983 0.95562 0.0
H742 H 0.9243 0.5947 0.92397 0.0
H743 H 0.89279 0.51575 0.99861 0.0
H744 H 0.9025 0.59824 0.07995 0.0
H745 H 0.92052 0.55559 0.03602 0.0
H746 H 0.87991 0.62741 0.95489 0.0
H747 H 0.86407 0.67108 0.99951 0.0
C748 C 0.92469 0.54119 0.90634 0.0
C749 C 0.91939 0.50565 0.91478 0.0
C750 C 0.91926 0.56768 0.93125 0.0
C751 C 0.90783 0.55926 0.96509 0.0
C752 C 0.90246 0.52347 0.97326 0.0
C753 C 0.90854 0.49701 0.94853 0.0
C754 C 0.89787 0.60503 0.05266 0.0
C755 C 0.88164 0.63777 0.04303 0.0
C756 C 0.90784 0.5804 0.02738 0.0
C757 C 0.90089 0.58741 0.99167 0.0
C758 C 0.88594 0.62094 0.98202 0.0
C759 C 0.87671 0.64601 1.00751 0.0
H760 H 0.73661 0.65244 0.14376 0.0
H761 H 0.78912 0.69763 0.23602 0.0
H762 H 0.68443 0.63241 0.17823 0.0
H763 H 0.73624 0.67784 0.2707 0.0
H764 H 0.61297 0.57494 0.25683 0.0
H765 H 0.67192 0.58932 0.22823 0.0
H766 H 0.66551 0.69467 0.27038 0.0
H767 H 0.60672 0.68065 0.29803 0.0
C768 C 0.73694 0.6581 0.17148 0.0
C769 C 0.76672 0.67676 0.18726 0.0
C770 C 0.70727 0.64629 0.19124 0.0
C771 C 0.70646 0.65333 0.22714 0.0
C772 C 0.73625 0.67206 0.24302 0.0
C773 C 0.76638 0.68342 0.22326 0.0
C774 C 0.6245 0.60096 0.26023 0.0
C775 C 0.60537 0.62666 0.27962 0.0
C776 C 0.65808 0.60922 0.24388 0.0
C777 C 0.67325 0.64311 0.2472 0.0
C778 C 0.65477 0.66825 0.26774 0.0
C779 C 0.62104 0.6602 0.28351 0.0
H780 H 0.58974 0.40599 0.50696 0.0
H781 H 0.70384 0.42718 0.47817 0.0
H782 H 0.56799 0.461 0.48023 0.0
H783 H 0.6817 0.482 0.44938 0.0
H784 H 0.62755 0.5924 0.41843 0.0
H785 H 0.65423 0.54239 0.45294 0.0
H786 H 0.55755 0.48062 0.42288 0.0
H787 H 0.53103 0.52942 0.39022 0.0
C788 C 0.61031 0.42254 0.49506 0.0
C789 C 0.64853 0.41205 0.49476 0.0
C790 C 0.59776 0.4541 0.47927 0.0
C791 C 0.62288 0.47602 0.46193 0.0
C792 C 0.66147 0.46607 0.46254 0.0
C793 C 0.67415 0.43447 0.47882 0.0
C794 C 0.61197 0.5682 0.41956 0.0
C795 C 0.57686 0.56547 0.4016 0.0
C796 C 0.62734 0.5394 0.43917 0.0
C797 C 0.60785 0.50735 0.44132 0.0
C798 C 0.5731 0.50489 0.42297 0.0
C799 C 0.55791 0.53324 0.40375 0.0
H800 H 0.22783 0.35395 0.10756 0.0
H801 H 0.31594 0.43045 0.10186 0.0
H802 H 0.2757 0.30667 0.11376 0.0
H803 H 0.36365 0.38343 0.10708 0.0
H804 H 0.43334 0.29964 0.16695 0.0
H805 H 0.38637 0.34515 0.15343 0.0
H806 H 0.32692 0.27373 0.08454 0.0
H807 H 0.37407 0.22729 0.09878 0.0
C808 C 0.25743 0.36056 0.10728 0.0
C809 C 0.26825 0.39583 0.10454 0.0
C810 C 0.28483 0.3335 0.11055 0.0
C811 C 0.32354 0.34126 0.1111 0.0
C812 C 0.33413 0.37656 0.10732 0.0
C813 C 0.30681 0.40351 0.10419 0.0
C814 C 0.41048 0.29349 0.14869 0.0
C815 C 0.40751 0.25966 0.13402 0.0
C816 C 0.38359 0.31981 0.14074 0.0
C817 C 0.35286 0.31319 0.11783 0.0
C818 C 0.35012 0.27958 0.10253 0.0
C819 C 0.37729 0.25309 0.11043 0.0
H820 H 0.88863 0.28902 0.80379 0.0
H821 H 0.85957 0.34224 0.89929 0.0
H822 H 0.86212 0.23576 0.82435 0.0
H823 H 0.83016 0.288 0.91957 0.0
H824 H 0.81671 0.17133 0.95736 0.0
H825 H 0.84021 0.22907 0.94037 0.0
H826 H 0.80762 0.20727 0.83299 0.0
H827 H 0.7881 0.14911 0.84961 0.0
C828 C 0.87578 0.28976 0.82908 0.0
C829 C 0.87617 0.32048 0.84968 0.0
C830 C 0.86005 0.25879 0.84087 0.0
C831 C 0.84309 0.2572 0.87351 0.0
C832 C 0.84307 0.28796 0.89432 0.0
C833 C 0.8596 0.31924 0.88259 0.0
C834 C 0.81487 0.17902 0.93013 0.0
C835 C 0.80032 0.15569 0.90483 0.0
C836 C 0.82795 0.21232 0.92038 0.0
C837 C 0.82637 0.22315 0.88513 0.0
C838 C 0.81051 0.19994 0.86025 0.0
C839 C 0.79848 0.16659 0.86985 0.0
H840 H 0.13602 0.52863 0.16664 0.0
H841 H 0.04362 0.45906 0.144 0.0
H842 H 0.09144 0.57798 0.17193 0.0
H843 H 0.99887 0.50865 0.14776 0.0
H844 H 0.92278 0.60218 0.17023 0.0
H845 H 0.96801 0.55341 0.18231 0.0
H846 H 0.05473 0.61143 0.1315 0.0
H847 H 1.0106 0.65973 0.12084 0.0
C848 C 0.10611 0.52399 0.1627 0.0
C849 C 0.09319 0.49026 0.15445 0.0
C850 C 0.08052 0.55222 0.16572 0.0
C851 C 0.04149 0.54742 0.15996 0.0
C852 C 0.02859 0.51328 0.15284 0.0
C853 C 0.05422 0.48494 0.15029 0.0
C854 C 0.95182 0.60467 0.16261 0.0
C855 C 0.96309 0.63455 0.14436 0.0
C856 C 0.9776 0.57667 0.16913 0.0
C857 C 0.01502 0.57835 0.15768 0.0
C858 C 0.02646 0.60921 0.14117 0.0
C859 C 1.00092 0.63689 0.13472 0.0
H860 H 0.74769 0.88053 0.45436 0.0
H861 H 0.74351 0.90352 0.34391 0.0
H862 H 0.7049 0.83153 0.4445 0.0
H863 H 0.69962 0.85505 0.33429 0.0
H864 H 0.58703 0.79198 0.34682 0.0
H865 H 0.63023 0.84075 0.35567 0.0
H866 H 0.71048 0.77054 0.40849 0.0
H867 H 0.66743 0.72116 0.39873 0.0
C868 C 0.7372 0.87546 0.42804 0.0
C869 C 0.74883 0.89599 0.39989 0.0
C870 C 0.71299 0.84723 0.42242 0.0
C871 C 0.69924 0.83939 0.38864 0.0
C872 C 0.70985 0.86058 0.3606 0.0
C873 C 0.73476 0.88839 0.36612 0.0
C874 C 0.61393 0.78689 0.36027 0.0
C875 C 0.6239 0.75283 0.3722 0.0
C876 C 0.63867 0.81479 0.36515 0.0
C877 C 0.67359 0.8094 0.38276 0.0
C878 C 0.68357 0.77536 0.39495 0.0
C879 C 0.65909 0.74718 0.38933 0.0
H880 H 0.51377 0.36979 0.65065 0.0
H881 H 0.52876 0.45115 0.57383 0.0
H882 H 0.45613 0.39988 0.66976 0.0
H883 H 0.47083 0.48098 0.59262 0.0
H884 H 0.34441 0.49769 0.60391 0.0
H885 H 0.40051 0.46334 0.5892 0.0
H886 H 0.43572 0.46003 0.69796 0.0
H887 H 0.37945 0.49513 0.71285 0.0
C888 C 0.50486 0.39428 0.63808 0.0
C889 C 0.5256 0.40822 0.61076 0.0
C890 C 0.47196 0.41144 0.64905 0.0
C891 C 0.45888 0.4425 0.63244 0.0
C892 C 0.4801 0.4568 0.60557 0.0
C893 C 0.51333 0.43994 0.595 0.0
C894 C 0.36365 0.48906 0.62485 0.0
C895 C 0.35769 0.49935 0.65953 0.0
C896 C 0.39597 0.4697 0.61633 0.0
C897 C 0.42279 0.4597 0.64235 0.0
C898 C 0.41552 0.46762 0.6774 0.0
C899 C 0.38327 0.48749 0.68593 0.0
H900 H 0.26769 0.66458 0.64478 0.0
H901 H 0.15845 0.62786 0.60989 0.0
H902 H 0.24066 0.72316 0.65473 0.0
H903 H 0.13138 0.68691 0.61873 0.0
H904 H 0.09113 0.77695 0.69066 0.0
H905 H 0.11636 0.72203 0.66809 0.0
H906 H 0.21242 0.77692 0.6295 0.0
H907 H 0.18681 0.83259 0.65311 0.0
C908 C 0.23784 0.66911 0.63911 0.0
C909 C 0.215 0.64149 0.62713 0.0
C910 C 0.22245 0.70289 0.64431 0.0
C911 C 0.18379 0.70995 0.63756 0.0
C912 C 0.16118 0.6824 0.62463 0.0
C913 C 0.17661 0.64854 0.61953 0.0
C914 C 0.11732 0.77745 0.67675 0.0
C915 C 0.13712 0.80896 0.67373 0.0
C916 C 0.13172 0.74591 0.66357 0.0
C917 C 0.16657 0.7448 0.64705 0.0
C918 C 0.18566 0.77675 0.64245 0.0
C919 C 0.17091 0.80869 0.65555 0.0
H920 H 0.501 0.93918 0.96938 0.0
H921 H 0.55093 0.85303 0.91218 0.0
H922 H 0.55245 0.97711 0.95284 0.0
H923 H 0.6025 0.89114 0.89536 0.0
H924 H 0.6573 0.98786 0.83966 0.0
H925 H 0.61044 0.94538 0.85775 0.0
H926 H 0.62223 0.98245 0.96394 0.0
H927 H 0.66887 0.02473 0.94589 0.0
C928 C 0.5231 0.92833 0.95336 0.0
C929 C 0.52202 0.89317 0.94208 0.0
C930 C 0.55267 0.95 0.94402 0.0
C931 C 0.58164 0.93711 0.92285 0.0
C932 C 0.5805 0.90188 0.91152 0.0
C933 C 0.5511 0.88005 0.92125 0.0
C934 C 0.65016 0.98657 0.86691 0.0
C935 C 0.66667 1.00966 0.89131 0.0
C936 C 0.62344 0.9622 0.8773 0.0
C937 C 0.61239 0.96074 0.91224 0.0
C938 C 0.62977 0.98322 0.93676 0.0
C939 C 0.65669 1.00728 0.92645 0.0
H940 H 0.91787 0.03399 0.31278 0.0
H941 H 0.91719 0.99206 0.41734 0.0
H942 H 0.97658 0.06453 0.32719 0.0
H943 H 0.97679 0.02007 0.43114 0.0
H944 H 0.04298 0.11584 0.46172 0.0
H945 H 0.99321 0.07726 0.44357 0.0
H946 H 0.04287 0.0655 0.34241 0.0
H947 H 0.09271 0.10636 0.36045 0.0
C948 C 0.9308 0.03064 0.33857 0.0
C949 C 0.91279 1.01106 0.36412 0.0
C950 C 0.96461 0.04791 0.3468 0.0
C951 C 0.9813 0.04541 0.38059 0.0
C952 C 0.96435 0.02365 0.4052 0.0
C953 C 0.93028 1.00721 0.39723 0.0
C954 C 0.04367 0.10508 0.43556 0.0
C955 C 0.07181 0.11463 0.41243 0.0
C956 C 0.01511 0.08238 0.42522 0.0
C957 C 0.01384 0.06784 0.39149 0.0
C958 C 0.04267 0.07643 0.36849 0.0
C959 C 0.07144 0.09958 0.3789 0.0
loop_
_geom_bond_atom_site_label_1
_geom_bond_atom_site_label_2
_geom_bond_distance
_geom_bond_site_symmetry_2
_ccdc_geom_bond_type
Tb0 O3 2.453 . S
Tb0 O4 2.596 . S
Tb0 O5 2.374 . S
Tb0 O13 2.343 . S
Tb0 O15 2.353 . S
Tb0 O17 2.427 . S
Tb0 O18 2.513 . S
C1 O5 1.251 . S
C1 O7 1.263 . S
Tb2 O4 2.343 . S
Tb2 O7 2.353 . S
Tb2 O10 2.427 . S
Tb2 O11 2.513 . S
Tb2 O12 2.453 . S
Tb2 O13 2.596 . S
Tb2 O14 2.374 . S
O3 Tb0 2.453 . S
O3 C19 1.245 . S
O4 Tb0 2.596 . S
O4 Tb2 2.343 . S
O4 C19 1.259 . S
O5 Tb0 2.374 . S
O5 C1 1.251 . S
C6 O10 1.275 . S
C6 O11 1.246 . S
O7 C1 1.263 . S
O7 Tb2 2.353 . S
C8 O12 1.245 . S
C8 O13 1.259 . S
C9 O14 1.250 . S
C9 O15 1.263 . S
O10 Tb2 2.427 . S
O10 C6 1.275 . S
O11 Tb2 2.513 . S
O11 C6 1.246 . S
O12 Tb2 2.453 . S
O12 C8 1.245 . S
O13 Tb0 2.343 . S
O13 Tb2 2.596 . S
O13 C8 1.259 . S
O14 Tb2 2.374 . S
O14 C9 1.250 . S
O15 Tb0 2.353 . S
O15 C9 1.263 . S
C16 O17 1.275 . S
C16 O18 1.246 . S
O17 Tb0 2.427 . S
O17 C16 1.275 . S
O18 Tb0 2.513 . S
O18 C16 1.246 . S
C19 O3 1.245 . S
C19 O4 1.259 . S
Tb20 O23 2.453 . S
Tb20 O24 2.596 . S
Tb20 O25 2.374 . S
Tb20 O33 2.343 . S
Tb20 O35 2.353 . S
Tb20 O37 2.427 . S
Tb20 O38 2.513 . S
C21 O25 1.251 . S
C21 O27 1.263 . S
Tb22 O24 2.343 . S
Tb22 O27 2.353 . S
Tb22 O30 2.427 . S
Tb22 O31 2.513 . S
Tb22 O32 2.453 . S
Tb22 O33 2.596 . S
Tb22 O34 2.374 . S
O23 Tb20 2.453 . S
O23 C39 1.245 . S
O24 Tb20 2.596 . S
O24 Tb22 2.343 . S
O24 C39 1.259 . S
O25 Tb20 2.374 . S
O25 C21 1.251 . S
C26 O30 1.275 . S
C26 O31 1.246 . S
O27 C21 1.263 . S
O27 Tb22 2.353 . S
C28 O32 1.245 . S
C28 O33 1.259 . S
C29 O34 1.250 . S
C29 O35 1.263 . S
O30 Tb22 2.427 . S
O30 C26 1.275 . S
O31 Tb22 2.513 . S
O31 C26 1.246 . S
O32 Tb22 2.453 . S
O32 C28 1.245 . S
O33 Tb20 2.343 . S
O33 Tb22 2.596 . S
O33 C28 1.259 . S
O34 Tb22 2.374 . S
O34 C29 1.250 . S
O35 Tb20 2.353 . S
O35 C29 1.263 . S
C36 O37 1.275 . S
C36 O38 1.246 . S
O37 Tb20 2.427 . S
O37 C36 1.275 . S
O38 Tb20 2.513 . S
O38 C36 1.246 . S
C39 O23 1.245 . S
C39 O24 1.259 . S
Tb40 O43 2.453 . S
Tb40 O44 2.596 . S
Tb40 O45 2.374 . S
Tb40 O53 2.343 . S
Tb40 O55 2.353 . S
Tb40 O57 2.427 . S
Tb40 O58 2.513 . S
C41 O45 1.251 . S
C41 O47 1.263 . S
Tb42 O44 2.343 . S
Tb42 O47 2.353 . S
Tb42 O50 2.427 . S
Tb42 O51 2.513 . S
Tb42 O52 2.453 1_556 S
Tb42 O53 2.596 . S
Tb42 O54 2.374 1_556 S
O43 Tb40 2.453 . S
O43 C59 1.245 . S
O44 Tb40 2.596 . S
O44 Tb42 2.343 . S
O44 C59 1.259 . S
O45 Tb40 2.374 . S
O45 C41 1.251 . S
C46 O50 1.275 . S
C46 O51 1.246 . S
O47 C41 1.263 . S
O47 Tb42 2.353 . S
C48 O52 1.234 1_556 S
C48 O53 1.278 . S
C49 O54 1.250 . S
C49 O55 1.263 1_554 S
O50 Tb42 2.427 . S
O50 C46 1.275 . S
O51 Tb42 2.513 . S
O51 C46 1.246 . S
O52 Tb42 2.453 1_554 S
O52 C48 1.234 1_554 S
O53 Tb40 2.343 . S
O53 Tb42 2.596 . S
O53 C48 1.278 . S
O54 Tb42 2.374 1_554 S
O54 C49 1.250 . S
O55 Tb40 2.353 . S
O55 C49 1.263 1_556 S
C56 O57 1.275 . S
C56 O58 1.246 . S
O57 Tb40 2.427 . S
O57 C56 1.275 . S
O58 Tb40 2.513 . S
O58 C56 1.246 . S
C59 O43 1.245 . S
C59 O44 1.259 . S
Tb60 O63 2.453 . S
Tb60 O64 2.596 . S
Tb60 O65 2.374 . S
Tb60 O73 2.343 . S
Tb60 O75 2.353 . S
Tb60 O77 2.427 . S
Tb60 O78 2.513 . S
C61 O65 1.251 . S
C61 O67 1.263 . S
Tb62 O64 2.343 . S
Tb62 O67 2.353 . S
Tb62 O70 2.427 . S
Tb62 O71 2.513 . S
Tb62 O72 2.453 . S
Tb62 O73 2.596 . S
Tb62 O74 2.374 . S
O63 Tb60 2.453 . S
O63 C79 1.245 . S
O64 Tb60 2.596 . S
O64 Tb62 2.343 . S
O64 C79 1.259 . S
O65 Tb60 2.374 . S
O65 C61 1.251 . S
C66 O70 1.275 . S
C66 O71 1.246 . S
O67 C61 1.263 . S
O67 Tb62 2.353 . S
C68 O72 1.245 . S
C68 O73 1.259 . S
C69 O74 1.250 . S
C69 O75 1.263 . S
O70 Tb62 2.427 . S
O70 C66 1.275 . S
O71 Tb62 2.513 . S
O71 C66 1.246 . S
O72 Tb62 2.453 . S
O72 C68 1.245 . S
O73 Tb60 2.343 . S
O73 Tb62 2.596 . S
O73 C68 1.259 . S
O74 Tb62 2.374 . S
O74 C69 1.250 . S
O75 Tb60 2.353 . S
O75 C69 1.263 . S
C76 O77 1.275 . S
C76 O78 1.246 . S
O77 Tb60 2.427 . S
O77 C76 1.275 . S
O78 Tb60 2.513 . S
O78 C76 1.246 . S
C79 O63 1.245 . S
C79 O64 1.259 . S
Tb80 O83 2.453 . S
Tb80 O84 2.596 . S
Tb80 O85 2.374 . S
Tb80 O93 2.343 . S
Tb80 O95 2.353 . S
Tb80 O97 2.427 . S
Tb80 O98 2.513 . S
C81 O85 1.251 . S
C81 O87 1.263 . S
Tb82 O84 2.343 . S
Tb82 O87 2.353 . S
Tb82 O90 2.427 . S
Tb82 O91 2.513 . S
Tb82 O92 2.453 . S
Tb82 O93 2.596 . S
Tb82 O94 2.374 . S
O83 Tb80 2.453 . S
O83 C99 1.245 . S
O84 Tb80 2.596 . S
O84 Tb82 2.343 . S
O84 C99 1.259 . S
O85 Tb80 2.374 . S
O85 C81 1.251 . S
C86 O90 1.275 . S
C86 O91 1.246 . S
O87 C81 1.263 . S
O87 Tb82 2.353 . S
C88 O92 1.245 . S
C88 O93 1.259 . S
C89 O94 1.250 . S
C89 O95 1.263 . S
O90 Tb82 2.427 . S
O90 C86 1.275 . S
O91 Tb82 2.513 . S
O91 C86 1.246 . S
O92 Tb82 2.453 . S
O92 C88 1.245 . S
O93 Tb80 2.343 . S
O93 Tb82 2.596 . S
O93 C88 1.259 . S
O94 Tb82 2.374 . S
O94 C89 1.250 . S
O95 Tb80 2.353 . S
O95 C89 1.263 . S
C96 O97 1.275 . S
C96 O98 1.246 . S
O97 Tb80 2.427 . S
O97 C96 1.275 . S
O98 Tb80 2.513 . S
O98 C96 1.246 . S
C99 O83 1.245 . S
C99 O84 1.259 . S
Tb100 O103 2.453 . S
Tb100 O104 2.596 . S
Tb100 O105 2.374 . S
Tb100 O113 2.343 . S
Tb100 O115 2.353 . S
Tb100 O117 2.427 . S
Tb100 O118 2.513 . S
C101 O105 1.251 . S
C101 O107 1.263 . S
Tb102 O104 2.343 . S
Tb102 O107 2.353 . S
Tb102 O110 2.427 . S
Tb102 O111 2.513 . S
Tb102 O112 2.453 1_655 S
Tb102 O113 2.596 . S
Tb102 O114 2.374 . S
O103 Tb100 2.453 . S
O103 C119 1.245 . S
O104 Tb100 2.596 . S
O104 Tb102 2.343 . S
O104 C119 1.259 . S
O105 Tb100 2.374 . S
O105 C101 1.251 . S
C106 O110 1.275 . S
C106 O111 1.246 . S
O107 C101 1.263 . S
O107 Tb102 2.353 . S
C108 O112 1.245 1_655 S
C108 O113 1.259 . S
C109 O114 1.250 . S
C109 O115 1.263 . S
O110 Tb102 2.427 . S
O110 C106 1.275 . S
O111 Tb102 2.513 . S
O111 C106 1.246 . S
O112 Tb102 2.453 1_455 S
O112 C108 1.245 1_455 S
O113 Tb100 2.343 . S
O113 Tb102 2.596 . S
O113 C108 1.259 . S
O114 Tb102 2.374 . S
O114 C109 1.250 . S
O115 Tb100 2.353 . S
O115 C109 1.263 . S
C116 O117 1.275 . S
C116 O118 1.246 . S
O117 Tb100 2.427 . S
O117 C116 1.275 . S
O118 Tb100 2.513 . S
O118 C116 1.246 . S
C119 O103 1.245 . S
C119 O104 1.259 . S
Tb120 O123 2.453 . S
Tb120 O124 2.596 . S
Tb120 O125 2.374 . S
Tb120 O133 2.343 . S
Tb120 O135 2.353 . S
Tb120 O137 2.427 . S
Tb120 O138 2.513 . S
C121 O125 1.251 . S
C121 O127 1.263 . S
Tb122 O124 2.343 . S
Tb122 O127 2.353 . S
Tb122 O130 2.427 . S
Tb122 O131 2.513 . S
Tb122 O132 2.453 . S
Tb122 O133 2.596 . S
Tb122 O134 2.374 . S
O123 Tb120 2.453 . S
O123 C139 1.245 . S
O124 Tb120 2.596 . S
O124 Tb122 2.343 . S
O124 C139 1.259 . S
O125 Tb120 2.374 . S
O125 C121 1.251 . S
C126 O130 1.275 . S
C126 O131 1.246 . S
O127 C121 1.263 . S
O127 Tb122 2.353 . S
C128 O132 1.245 . S
C128 O133 1.259 . S
C129 O134 1.250 . S
C129 O135 1.263 . S
O130 Tb122 2.427 . S
O130 C126 1.275 . S
O131 Tb122 2.513 . S
O131 C126 1.246 . S
O132 Tb122 2.453 . S
O132 C128 1.245 . S
O133 Tb120 2.343 . S
O133 Tb122 2.596 . S
O133 C128 1.259 . S
O134 Tb122 2.374 . S
O134 C129 1.250 . S
O135 Tb120 2.353 . S
O135 C129 1.263 . S
C136 O137 1.275 . S
C136 O138 1.246 . S
O137 Tb120 2.427 . S
O137 C136 1.275 . S
O138 Tb120 2.513 . S
O138 C136 1.246 . S
C139 O123 1.245 . S
C139 O124 1.259 . S
Tb140 O143 2.453 . S
Tb140 O144 2.596 . S
Tb140 O145 2.374 . S
Tb140 O153 2.343 . S
Tb140 O155 2.353 . S
Tb140 O157 2.427 . S
Tb140 O158 2.513 . S
C141 O145 1.251 . S
C141 O147 1.263 . S
Tb142 O144 2.343 . S
Tb142 O147 2.353 . S
Tb142 O150 2.427 . S
Tb142 O151 2.513 . S
Tb142 O152 2.453 . S
Tb142 O153 2.596 . S
Tb142 O154 2.374 . S
O143 Tb140 2.453 . S
O143 C159 1.245 . S
O144 Tb140 2.596 . S
O144 Tb142 2.343 . S
O144 C159 1.259 . S
O145 Tb140 2.374 . S
O145 C141 1.251 . S
C146 O150 1.275 . S
C146 O151 1.246 . S
O147 C141 1.263 . S
O147 Tb142 2.353 . S
C148 O152 1.245 . S
C148 O153 1.259 . S
C149 O154 1.250 . S
C149 O155 1.263 . S
O150 Tb142 2.427 . S
O150 C146 1.275 . S
O151 Tb142 2.513 . S
O151 C146 1.246 . S
O152 Tb142 2.453 . S
O152 C148 1.245 . S
O153 Tb140 2.343 . S
O153 Tb142 2.596 . S
O153 C148 1.259 . S
O154 Tb142 2.374 . S
O154 C149 1.250 . S
O155 Tb140 2.353 . S
O155 C149 1.263 . S
C156 O157 1.275 . S
C156 O158 1.246 . S
O157 Tb140 2.427 . S
O157 C156 1.275 . S
O158 Tb140 2.513 . S
O158 C156 1.246 . S
C159 O143 1.245 . S
C159 O144 1.259 . S
Tb160 O163 2.453 . S
Tb160 O164 2.596 . S
Tb160 O165 2.374 . S
Tb160 O173 2.343 . S
Tb160 O175 2.353 . S
Tb160 O177 2.427 . S
Tb160 O178 2.513 . S
C161 O165 1.251 . S
C161 O167 1.263 . S
Tb162 O164 2.343 . S
Tb162 O167 2.353 . S
Tb162 O170 2.427 . S
Tb162 O171 2.513 . S
Tb162 O172 2.453 . S
Tb162 O173 2.596 . S
Tb162 O174 2.374 . S
O163 Tb160 2.453 . S
O163 C179 1.245 . S
O164 Tb160 2.596 . S
O164 Tb162 2.343 . S
O164 C179 1.259 . S
O165 Tb160 2.374 . S
O165 C161 1.251 . S
C166 O170 1.275 . S
C166 O171 1.246 . S
O167 C161 1.263 . S
O167 Tb162 2.353 . S
C168 O172 1.245 . S
C168 O173 1.259 . S
C169 O174 1.250 . S
C169 O175 1.263 . S
O170 Tb162 2.427 . S
O170 C166 1.275 . S
O171 Tb162 2.513 . S
O171 C166 1.246 . S
O172 Tb162 2.453 . S
O172 C168 1.245 . S
O173 Tb160 2.343 . S
O173 Tb162 2.596 . S
O173 C168 1.259 . S
O174 Tb162 2.374 . S
O174 C169 1.250 . S
O175 Tb160 2.353 . S
O175 C169 1.263 . S
C176 O177 1.275 . S
C176 O178 1.246 . S
O177 Tb160 2.427 . S
O177 C176 1.275 . S
O178 Tb160 2.513 . S
O178 C176 1.246 . S
C179 O163 1.245 . S
C179 O164 1.259 . S
Tb180 O183 2.453 . S
Tb180 O184 2.596 . S
Tb180 O185 2.374 . S
Tb180 O193 2.343 . S
Tb180 O195 2.353 . S
Tb180 O197 2.427 . S
Tb180 O198 2.513 . S
C181 O185 1.251 . S
C181 O187 1.263 . S
Tb182 O184 2.343 . S
Tb182 O187 2.353 . S
Tb182 O190 2.427 . S
Tb182 O191 2.513 1_545 S
Tb182 O192 2.453 . S
Tb182 O193 2.596 . S
Tb182 O194 2.374 . S
O183 Tb180 2.453 . S
O183 C199 1.244 1_545 S
O184 Tb180 2.596 . S
O184 Tb182 2.343 . S
O184 C199 1.258 1_545 S
O185 Tb180 2.374 . S
O185 C181 1.251 . S
C186 O190 1.275 1_565 S
C186 O191 1.246 . S
O187 C181 1.263 . S
O187 Tb182 2.353 . S
C188 O192 1.245 . S
C188 O193 1.259 . S
C189 O194 1.250 . S
C189 O195 1.263 . S
O190 Tb182 2.427 . S
O190 C186 1.275 1_545 S
O191 Tb182 2.513 1_565 S
O191 C186 1.246 . S
O192 Tb182 2.453 . S
O192 C188 1.245 . S
O193 Tb180 2.343 . S
O193 Tb182 2.596 . S
O193 C188 1.259 . S
O194 Tb182 2.374 . S
O194 C189 1.250 . S
O195 Tb180 2.353 . S
O195 C189 1.263 . S
C196 O197 1.275 . S
C196 O198 1.246 . S
O197 Tb180 2.427 . S
O197 C196 1.275 . S
O198 Tb180 2.513 . S
O198 C196 1.246 . S
C199 O183 1.244 1_565 S
C199 O184 1.258 1_565 S
Tb200 O203 2.453 . S
Tb200 O204 2.596 . S
Tb200 O205 2.374 . S
Tb200 O213 2.343 . S
Tb200 O215 2.353 . S
Tb200 O217 2.427 . S
Tb200 O218 2.513 . S
C201 O205 1.251 . S
C201 O207 1.263 . S
Tb202 O204 2.343 . S
Tb202 O207 2.353 . S
Tb202 O210 2.427 . S
Tb202 O211 2.513 . S
Tb202 O212 2.453 1_565 S
Tb202 O213 2.596 . S
Tb202 O214 2.374 1_565 S
O203 Tb200 2.453 . S
O203 C219 1.245 . S
O204 Tb200 2.596 . S
O204 Tb202 2.343 . S
O204 C219 1.259 . S
O205 Tb200 2.374 . S
O205 C201 1.251 . S
C206 O210 1.275 . S
C206 O211 1.246 . S
O207 C201 1.263 . S
O207 Tb202 2.353 . S
C208 O212 1.245 1_565 S
C208 O213 1.259 . S
C209 O214 1.250 1_565 S
C209 O215 1.263 . S
O210 Tb202 2.427 . S
O210 C206 1.275 . S
O211 Tb202 2.513 . S
O211 C206 1.246 . S
O212 Tb202 2.453 1_545 S
O212 C208 1.245 1_545 S
O213 Tb200 2.343 . S
O213 Tb202 2.596 . S
O213 C208 1.259 . S
O214 Tb202 2.374 1_545 S
O214 C209 1.250 1_545 S
O215 Tb200 2.353 . S
O215 C209 1.263 . S
C216 O217 1.275 . S
C216 O218 1.246 . S
O217 Tb200 2.427 . S
O217 C216 1.275 . S
O218 Tb200 2.513 . S
O218 C216 1.246 . S
C219 O203 1.245 . S
C219 O204 1.259 . S
Tb220 O223 2.453 . S
Tb220 O224 2.596 . S
Tb220 O225 2.374 . S
Tb220 O233 2.343 . S
Tb220 O235 2.353 . S
Tb220 O237 2.427 . S
Tb220 O238 2.513 . S
C221 O225 1.251 . S
C221 O227 1.263 . S
Tb222 O224 2.343 . S
Tb222 O227 2.353 . S
Tb222 O230 2.427 . S
Tb222 O231 2.513 . S
Tb222 O232 2.453 . S
Tb222 O233 2.596 . S
Tb222 O234 2.374 . S
O223 Tb220 2.453 . S
O223 C239 1.245 . S
O224 Tb220 2.596 . S
O224 Tb222 2.343 . S
O224 C239 1.259 . S
O225 Tb220 2.374 . S
O225 C221 1.251 . S
C226 O230 1.275 . S
C226 O231 1.246 . S
O227 C221 1.263 . S
O227 Tb222 2.353 . S
C228 O232 1.245 . S
C228 O233 1.259 . S
C229 O234 1.250 . S
C229 O235 1.263 . S
O230 Tb222 2.427 . S
O230 C226 1.275 . S
O231 Tb222 2.513 . S
O231 C226 1.246 . S
O232 Tb222 2.453 . S
O232 C228 1.245 . S
O233 Tb220 2.343 . S
O233 Tb222 2.596 . S
O233 C228 1.259 . S
O234 Tb222 2.374 . S
O234 C229 1.250 . S
O235 Tb220 2.353 . S
O235 C229 1.263 . S
C236 O237 1.275 . S
C236 O238 1.246 . S
O237 Tb220 2.427 . S
O237 C236 1.275 . S
O238 Tb220 2.513 . S
O238 C236 1.246 . S
C239 O223 1.245 . S
C239 O224 1.259 . S
H240 C248 0.950 . S
H241 C253 0.950 . S
H242 C250 0.950 . S
H243 C252 0.950 . S
H244 C254 0.950 . S
H245 C256 0.950 . S
H246 C258 0.950 . S
H247 C259 0.950 . S
C248 H240 0.950 . S
C248 C249 1.386 . S
C248 C250 1.391 . S
C249 C248 1.386 . S
C249 C253 1.393 . S
C250 H242 0.950 . S
C250 C248 1.391 . S
C250 C251 1.400 . S
C251 C250 1.400 . S
C251 C252 1.398 . S
C251 C257 1.491 . S
C252 H243 0.950 . S
C252 C251 1.398 . S
C252 C253 1.391 . S
C253 H241 0.950 . S
C253 C249 1.393 . S
C253 C252 1.391 . S
C254 H244 0.950 . S
C254 C255 1.386 . S
C254 C256 1.391 . S
C255 C254 1.386 . S
C255 C259 1.393 . S
C256 H245 0.950 . S
C256 C254 1.391 . S
C256 C257 1.400 . S
C257 C251 1.491 . S
C257 C256 1.400 . S
C257 C258 1.398 . S
C258 H246 0.950 . S
C258 C257 1.398 . S
C258 C259 1.391 . S
C259 H247 0.950 . S
C259 C255 1.393 . S
C259 C258 1.391 . S
H260 C268 0.950 . S
H261 C273 0.950 . S
H262 C270 0.950 . S
H263 C272 0.950 . S
H264 C274 0.950 . S
H265 C276 0.950 1_545 S
H266 C278 0.950 . S
H267 C279 0.950 . S
C268 H260 0.950 . S
C268 C269 1.386 1_565 S
C268 C270 1.391 . S
C269 C268 1.386 1_545 S
C269 C273 1.393 . S
C270 H262 0.950 . S
C270 C268 1.391 . S
C270 C271 1.400 . S
C271 C270 1.400 . S
C271 C272 1.398 1_565 S
C271 C277 1.491 . S
C272 H263 0.950 . S
C272 C271 1.398 1_545 S
C272 C273 1.391 . S
C273 H261 0.950 . S
C273 C269 1.393 . S
C273 C272 1.391 . S
C274 H264 0.950 . S
C274 C275 1.386 . S
C274 C276 1.391 . S
C275 C274 1.386 . S
C275 C279 1.393 . S
C276 H265 0.950 1_565 S
C276 C274 1.391 . S
C276 C277 1.400 . S
C277 C271 1.491 . S
C277 C276 1.400 . S
C277 C278 1.398 . S
C278 H266 0.950 . S
C278 C277 1.398 . S
C278 C279 1.391 . S
C279 H267 0.950 . S
C279 C275 1.393 . S
C279 C278 1.391 . S
H280 C288 0.950 . S
H281 C293 0.950 . S
H282 C290 0.950 . S
H283 C292 0.950 . S
H284 C294 0.926 1_556 S
H285 C296 0.950 . S
H286 C298 0.950 . S
H287 C299 0.950 . S
C288 H280 0.950 . S
C288 C289 1.386 1_554 S
C288 C290 1.391 . S
C289 C288 1.386 1_556 S
C289 C293 1.393 . S
C290 H282 0.950 . S
C290 C288 1.391 . S
C290 C291 1.400 . S
C291 C290 1.400 . S
C291 C292 1.398 1_554 S
C291 C297 1.491 . S
C292 H283 0.950 . S
C292 C291 1.398 1_556 S
C292 C293 1.391 . S
C293 H281 0.950 . S
C293 C289 1.393 . S
C293 C292 1.391 . S
C294 H284 0.926 1_554 S
C294 C295 1.420 . S
C294 C296 1.381 1_554 S
C295 C294 1.420 . S
C295 C299 1.393 . S
C296 H285 0.950 . S
C296 C294 1.381 1_556 S
C296 C297 1.400 1_556 S
C297 C291 1.491 . S
C297 C296 1.400 1_554 S
C297 C298 1.398 . S
C298 H286 0.950 . S
C298 C297 1.398 . S
C298 C299 1.391 . S
C299 H287 0.950 . S
C299 C295 1.393 . S
C299 C298 1.391 . S
H300 C308 0.950 . S
H301 C313 0.950 . S
H302 C310 0.950 . S
H303 C312 0.950 . S
H304 C314 0.950 . S
H305 C316 0.950 . S
H306 C318 0.950 . S
H307 C319 0.950 . S
C308 H300 0.950 . S
C308 C309 1.386 . S
C308 C310 1.391 . S
C309 C308 1.386 . S
C309 C313 1.393 . S
C310 H302 0.950 . S
C310 C308 1.391 . S
C310 C311 1.400 . S
C311 C310 1.400 . S
C311 C312 1.398 . S
C311 C317 1.491 . S
C312 H303 0.950 . S
C312 C311 1.398 . S
C312 C313 1.391 . S
C313 H301 0.950 . S
C313 C309 1.393 . S
C313 C312 1.391 . S
C314 H304 0.950 . S
C314 C315 1.386 . S
C314 C316 1.391 1_565 S
C315 C314 1.386 . S
C315 C319 1.393 . S
C316 H305 0.950 . S
C316 C314 1.391 1_545 S
C316 C317 1.400 . S
C317 C311 1.491 . S
C317 C316 1.400 . S
C317 C318 1.398 . S
C318 H306 0.950 . S
C318 C317 1.398 . S
C318 C319 1.391 1_545 S
C319 H307 0.950 . S
C319 C315 1.393 . S
C319 C318 1.391 1_565 S
H320 C328 0.950 . S
H321 C333 0.950 . S
H322 C330 0.950 . S
H323 C332 0.950 . S
H324 C334 0.950 . S
H325 C336 0.950 . S
H326 C338 0.950 . S
H327 C339 0.950 . S
C328 H320 0.950 . S
C328 C329 1.386 . S
C328 C330 1.391 . S
C329 C328 1.386 . S
C329 C333 1.393 . S
C330 H322 0.950 . S
C330 C328 1.391 . S
C330 C331 1.400 . S
C331 C330 1.400 . S
C331 C332 1.398 . S
C331 C337 1.491 . S
C332 H323 0.950 . S
C332 C331 1.398 . S
C332 C333 1.391 . S
C333 H321 0.950 . S
C333 C329 1.393 . S
C333 C332 1.391 . S
C334 H324 0.950 . S
C334 C335 1.386 . S
C334 C336 1.391 . S
C335 C334 1.386 . S
C335 C339 1.393 . S
C336 H325 0.950 . S
C336 C334 1.391 . S
C336 C337 1.400 . S
C337 C331 1.491 . S
C337 C336 1.400 . S
C337 C338 1.398 . S
C338 H326 0.950 . S
C338 C337 1.398 . S
C338 C339 1.391 . S
C339 H327 0.950 . S
C339 C335 1.393 . S
C339 C338 1.391 . S
H340 C348 0.950 . S
H341 C353 0.950 1_655 S
H342 C350 0.950 . S
H343 C352 0.950 . S
H344 C354 0.950 . S
H345 C356 0.950 . S
H346 C358 0.950 . S
H347 C359 0.950 . S
C348 H340 0.950 . S
C348 C349 1.386 . S
C348 C350 1.391 . S
C349 C348 1.386 . S
C349 C353 1.393 . S
C350 H342 0.950 . S
C350 C348 1.391 . S
C350 C351 1.400 . S
C351 C350 1.400 . S
C351 C352 1.398 . S
C351 C357 1.491 . S
C352 H343 0.950 . S
C352 C351 1.398 . S
C352 C353 1.391 . S
C353 H341 0.950 1_455 S
C353 C349 1.393 . S
C353 C352 1.391 . S
C354 H344 0.950 . S
C354 C355 1.386 . S
C354 C356 1.391 . S
C355 C354 1.386 . S
C355 C359 1.393 . S
C356 H345 0.950 . S
C356 C354 1.391 . S
C356 C357 1.400 . S
C357 C351 1.491 . S
C357 C356 1.400 . S
C357 C358 1.398 . S
C358 H346 0.950 . S
C358 C357 1.398 . S
C358 C359 1.391 . S
C359 H347 0.950 . S
C359 C355 1.393 . S
C359 C358 1.391 . S
H360 C368 0.950 1_554 S
H361 C373 0.950 . S
H362 C370 0.950 . S
H363 C372 0.950 . S
H364 C374 0.950 . S
H365 C376 0.950 1_556 S
H366 C378 0.950 . S
H367 C379 0.950 . S
C368 H360 0.950 1_556 S
C368 C369 1.386 . S
C368 C370 1.391 1_556 S
C369 C368 1.386 . S
C369 C373 1.393 . S
C370 H362 0.950 . S
C370 C368 1.391 1_554 S
C370 C371 1.400 1_554 S
C371 C370 1.400 1_556 S
C371 C372 1.398 . S
C371 C377 1.491 1_556 S
C372 H363 0.950 . S
C372 C371 1.398 . S
C372 C373 1.391 . S
C373 H361 0.950 . S
C373 C369 1.393 . S
C373 C372 1.391 . S
C374 H364 0.950 . S
C374 C375 1.386 . S
C374 C376 1.391 . S
C375 C374 1.386 . S
C375 C379 1.393 . S
C376 H365 0.950 1_554 S
C376 C374 1.391 . S
C376 C377 1.400 . S
C377 C371 1.491 1_554 S
C377 C376 1.400 . S
C377 C378 1.398 . S
C378 H366 0.950 . S
C378 C377 1.398 . S
C378 C379 1.391 . S
C379 H367 0.950 . S
C379 C375 1.393 . S
C379 C378 1.391 . S
H380 C388 0.950 . S
H381 C393 0.950 . S
H382 C390 0.950 . S
H383 C392 0.950 . S
H384 C394 0.950 . S
H385 C396 0.950 . S
H386 C398 0.950 . S
H387 C399 0.950 . S
C388 H380 0.950 . S
C388 C389 1.386 . S
C388 C390 1.391 . S
C389 C388 1.386 . S
C389 C393 1.393 . S
C390 H382 0.950 . S
C390 C388 1.391 . S
C390 C391 1.400 . S
C391 C390 1.400 . S
C391 C392 1.398 . S
C391 C397 1.491 . S
C392 H383 0.950 . S
C392 C391 1.398 . S
C392 C393 1.391 . S
C393 H381 0.950 . S
C393 C389 1.393 . S
C393 C392 1.391 . S
C394 H384 0.950 . S
C394 C395 1.386 . S
C394 C396 1.391 . S
C395 C394 1.386 . S
C395 C399 1.393 . S
C396 H385 0.950 . S
C396 C394 1.391 . S
C396 C397 1.400 . S
C397 C391 1.491 . S
C397 C396 1.400 . S
C397 C398 1.398 . S
C398 H386 0.950 . S
C398 C397 1.398 . S
C398 C399 1.391 . S
C399 H387 0.950 . S
C399 C395 1.393 . S
C399 C398 1.391 . S
H400 C408 0.950 . S
H401 C413 0.950 . S
H402 C410 0.950 . S
H403 C412 0.950 . S
H404 C414 0.950 . S
H405 C416 0.950 . S
H406 C418 0.950 . S
H407 C419 0.950 . S
C408 H400 0.950 . S
C408 C409 1.386 . S
C408 C410 1.391 . S
C409 C408 1.386 . S
C409 C413 1.393 . S
C410 H402 0.950 . S
C410 C408 1.391 . S
C410 C411 1.400 . S
C411 C410 1.400 . S
C411 C412 1.398 . S
C411 C417 1.491 . S
C412 H403 0.950 . S
C412 C411 1.398 . S
C412 C413 1.391 . S
C413 H401 0.950 . S
C413 C409 1.393 . S
C413 C412 1.391 . S
C414 H404 0.950 . S
C414 C415 1.386 . S
C414 C416 1.391 . S
C415 C414 1.386 . S
C415 C419 1.393 . S
C416 H405 0.950 . S
C416 C414 1.391 . S
C416 C417 1.400 . S
C417 C411 1.491 . S
C417 C416 1.400 . S
C417 C418 1.398 . S
C418 H406 0.950 . S
C418 C417 1.398 . S
C418 C419 1.391 . S
C419 H407 0.950 . S
C419 C415 1.393 . S
C419 C418 1.391 . S
H420 C428 0.950 1_655 S
H421 C433 0.950 . S
H422 C430 0.950 . S
H423 C432 0.950 . S
H424 C434 0.950 . S
H425 C436 0.950 . S
H426 C438 0.950 . S
H427 C439 0.950 . S
C428 H420 0.950 1_455 S
C428 C429 1.386 . S
C428 C430 1.391 1_455 S
C429 C428 1.386 . S
C429 C433 1.393 . S
C430 H422 0.950 . S
C430 C428 1.391 1_655 S
C430 C431 1.400 1_655 S
C431 C430 1.400 1_455 S
C431 C432 1.398 . S
C431 C437 1.500 . S
C432 H423 0.950 . S
C432 C431 1.398 . S
C432 C433 1.391 . S
C433 H421 0.950 . S
C433 C429 1.393 . S
C433 C432 1.391 . S
C434 H424 0.950 . S
C434 C435 1.386 1_455 S
C434 C436 1.391 . S
C435 C434 1.386 1_655 S
C435 C439 1.393 . S
C436 H425 0.950 . S
C436 C434 1.391 . S
C436 C437 1.414 . S
C437 C431 1.500 . S
C437 C436 1.414 . S
C437 C438 1.376 1_455 S
C438 H426 0.950 . S
C438 C437 1.376 1_655 S
C438 C439 1.391 . S
C439 H427 0.950 . S
C439 C435 1.393 . S
C439 C438 1.391 . S
H440 C448 0.950 . S
H441 C453 0.950 1_655 S
H442 C450 0.950 . S
H443 C452 0.950 . S
H444 C454 0.950 . S
H445 C456 0.950 . S
H446 C458 0.950 . S
H447 C459 0.950 . S
C448 H440 0.950 . S
C448 C449 1.386 . S
C448 C450 1.391 . S
C449 C448 1.386 . S
C449 C453 1.393 . S
C450 H442 0.950 . S
C450 C448 1.391 . S
C450 C451 1.400 . S
C451 C450 1.400 . S
C451 C452 1.398 1_455 S
C451 C457 1.491 . S
C452 H443 0.950 . S
C452 C451 1.398 1_655 S
C452 C453 1.391 1_655 S
C453 H441 0.950 1_455 S
C453 C449 1.393 . S
C453 C452 1.391 1_455 S
C454 H444 0.950 . S
C454 C455 1.386 . S
C454 C456 1.391 . S
C455 C454 1.386 . S
C455 C459 1.393 1_655 S
C456 H445 0.950 . S
C456 C454 1.391 . S
C456 C457 1.400 1_655 S
C457 C451 1.491 . S
C457 C456 1.400 1_455 S
C457 C458 1.398 . S
C458 H446 0.950 . S
C458 C457 1.398 . S
C458 C459 1.391 . S
C459 H447 0.950 . S
C459 C455 1.393 1_455 S
C459 C458 1.391 . S
H460 C468 0.950 . S
H461 C473 0.950 . S
H462 C470 0.950 . S
H463 C472 0.950 . S
H464 C474 0.950 . S
H465 C476 0.950 . S
H466 C478 0.950 . S
H467 C479 0.950 . S
C468 H460 0.950 . S
C468 C469 1.386 . S
C468 C470 1.391 . S
C469 C468 1.386 . S
C469 C473 1.393 . S
C470 H462 0.950 . S
C470 C468 1.391 . S
C470 C471 1.400 . S
C471 C470 1.400 . S
C471 C472 1.398 . S
C471 C477 1.491 . S
C472 H463 0.950 . S
C472 C471 1.398 . S
C472 C473 1.391 . S
C473 H461 0.950 . S
C473 C469 1.393 . S
C473 C472 1.391 . S
C474 H464 0.950 . S
C474 C475 1.386 . S
C474 C476 1.391 . S
C475 C474 1.386 . S
C475 C479 1.393 . S
C476 H465 0.950 . S
C476 C474 1.391 . S
C476 C477 1.400 . S
C477 C471 1.491 . S
C477 C476 1.400 . S
C477 C478 1.398 . S
C478 H466 0.950 . S
C478 C477 1.398 . S
C478 C479 1.391 . S
C479 H467 0.950 . S
C479 C475 1.393 . S
C479 C478 1.391 . S
H480 C488 0.950 . S
H481 C493 0.950 . S
H482 C490 0.950 . S
H483 C492 0.950 . S
H484 C494 0.950 . S
H485 C496 0.950 . S
H486 C498 0.950 . S
H487 C499 0.950 . S
C488 H480 0.950 . S
C488 C489 1.386 . S
C488 C490 1.391 . S
C489 C488 1.386 . S
C489 C493 1.393 . S
C490 H482 0.950 . S
C490 C488 1.391 . S
C490 C491 1.400 . S
C491 C490 1.400 . S
C491 C492 1.398 . S
C491 C497 1.491 . S
C492 H483 0.950 . S
C492 C491 1.398 . S
C492 C493 1.391 . S
C493 H481 0.950 . S
C493 C489 1.393 . S
C493 C492 1.391 . S
C494 H484 0.950 . S
C494 C495 1.386 . S
C494 C496 1.391 . S
C495 C494 1.386 . S
C495 C499 1.393 . S
C496 H485 0.950 . S
C496 C494 1.391 . S
C496 C497 1.400 . S
C497 C491 1.491 . S
C497 C496 1.400 . S
C497 C498 1.398 . S
C498 H486 0.950 . S
C498 C497 1.398 . S
C498 C499 1.391 . S
C499 H487 0.950 . S
C499 C495 1.393 . S
C499 C498 1.391 . S
H500 C508 0.950 . S
H501 C513 0.950 . S
H502 C510 0.950 . S
H503 C512 0.950 . S
H504 C514 0.950 . S
H505 C516 0.950 . S
H506 C518 0.950 . S
H507 C519 0.950 . S
C508 H500 0.950 . S
C508 C509 1.386 1_655 S
C508 C510 1.391 . S
C509 C508 1.386 1_455 S
C509 C513 1.393 . S
C510 H502 0.950 . S
C510 C508 1.391 . S
C510 C511 1.400 . S
C511 C510 1.400 . S
C511 C512 1.398 1_655 S
C511 C517 1.491 . S
C512 H503 0.950 . S
C512 C511 1.398 1_455 S
C512 C513 1.391 . S
C513 H501 0.950 . S
C513 C509 1.393 . S
C513 C512 1.391 . S
C514 H504 0.950 . S
C514 C515 1.386 . S
C514 C516 1.391 . S
C515 C514 1.386 . S
C515 C519 1.393 . S
C516 H505 0.950 . S
C516 C514 1.391 . S
C516 C517 1.400 . S
C517 C511 1.491 . S
C517 C516 1.400 . S
C517 C518 1.398 . S
C518 H506 0.950 . S
C518 C517 1.398 . S
C518 C519 1.391 . S
C519 H507 0.950 . S
C519 C515 1.393 . S
C519 C518 1.391 . S
H520 C528 0.950 . S
H521 C533 0.950 . S
H522 C530 0.950 . S
H523 C532 0.950 . S
H524 C534 0.950 . S
H525 C536 0.950 . S
H526 C538 0.950 . S
H527 C539 0.950 . S
C528 H520 0.950 . S
C528 C529 1.386 . S
C528 C530 1.391 . S
C529 C528 1.386 . S
C529 C533 1.393 . S
C530 H522 0.950 . S
C530 C528 1.391 . S
C530 C531 1.400 . S
C531 C530 1.400 . S
C531 C532 1.398 . S
C531 C537 1.491 . S
C532 H523 0.950 . S
C532 C531 1.398 . S
C532 C533 1.391 . S
C533 H521 0.950 . S
C533 C529 1.393 . S
C533 C532 1.391 . S
C534 H524 0.950 . S
C534 C535 1.386 . S
C534 C536 1.391 . S
C535 C534 1.386 . S
C535 C539 1.393 . S
C536 H525 0.950 . S
C536 C534 1.391 . S
C536 C537 1.400 . S
C537 C531 1.491 . S
C537 C536 1.400 . S
C537 C538 1.398 . S
C538 H526 0.950 . S
C538 C537 1.398 . S
C538 C539 1.391 . S
C539 H527 0.950 . S
C539 C535 1.393 . S
C539 C538 1.391 . S
H540 C548 0.950 . S
H541 C553 0.950 . S
H542 C550 0.950 . S
H543 C552 0.950 . S
H544 C554 0.950 . S
H545 C556 0.950 . S
H546 C558 0.950 . S
H547 C559 0.950 . S
C548 H540 0.950 . S
C548 C549 1.386 . S
C548 C550 1.391 . S
C549 C548 1.386 . S
C549 C553 1.393 . S
C550 H542 0.950 . S
C550 C548 1.391 . S
C550 C551 1.400 . S
C551 C550 1.400 . S
C551 C552 1.398 . S
C551 C557 1.491 . S
C552 H543 0.950 . S
C552 C551 1.398 . S
C552 C553 1.391 . S
C553 H541 0.950 . S
C553 C549 1.393 . S
C553 C552 1.391 . S
C554 H544 0.950 . S
C554 C555 1.386 . S
C554 C556 1.391 1_556 S
C555 C554 1.386 . S
C555 C559 1.393 . S
C556 H545 0.950 . S
C556 C554 1.391 1_554 S
C556 C557 1.400 . S
C557 C551 1.491 . S
C557 C556 1.400 . S
C557 C558 1.398 1_554 S
C558 H546 0.950 . S
C558 C557 1.398 1_556 S
C558 C559 1.391 . S
C559 H547 0.950 . S
C559 C555 1.393 . S
C559 C558 1.391 . S
H560 C568 0.950 . S
H561 C573 0.950 . S
H562 C570 0.950 . S
H563 C572 0.950 . S
H564 C574 0.950 . S
H565 C576 0.950 . S
H566 C578 0.950 . S
H567 C579 0.950 . S
C568 H560 0.950 . S
C568 C569 1.386 . S
C568 C570 1.391 . S
C569 C568 1.386 . S
C569 C573 1.393 . S
C570 H562 0.950 . S
C570 C568 1.391 . S
C570 C571 1.400 . S
C571 C570 1.400 . S
C571 C572 1.398 . S
C571 C577 1.491 . S
C572 H563 0.950 . S
C572 C571 1.398 . S
C572 C573 1.391 . S
C573 H561 0.950 . S
C573 C569 1.393 . S
C573 C572 1.391 . S
C574 H564 0.950 . S
C574 C575 1.386 . S
C574 C576 1.391 . S
C575 C574 1.386 . S
C575 C579 1.393 . S
C576 H565 0.950 . S
C576 C574 1.391 . S
C576 C577 1.400 . S
C577 C571 1.491 . S
C577 C576 1.400 . S
C577 C578 1.398 . S
C578 H566 0.950 . S
C578 C577 1.398 . S
C578 C579 1.391 . S
C579 H567 0.950 . S
C579 C575 1.393 . S
C579 C578 1.391 . S
H580 C588 0.950 . S
H581 C593 0.950 . S
H582 C590 0.950 . S
H583 C592 0.950 . S
H584 C594 0.950 . S
H585 C596 0.950 . S
H586 C598 0.950 1_655 S
H587 C599 0.950 . S
C588 H580 0.950 . S
C588 C589 1.386 . S
C588 C590 1.391 . S
C589 C588 1.386 . S
C589 C593 1.393 . S
C590 H582 0.950 . S
C590 C588 1.391 . S
C590 C591 1.400 1_554 S
C591 C590 1.400 1_556 S
C591 C592 1.398 . S
C591 C597 1.491 . S
C592 H583 0.950 . S
C592 C591 1.398 . S
C592 C593 1.391 1_556 S
C593 H581 0.950 . S
C593 C589 1.393 . S
C593 C592 1.391 1_554 S
C594 H584 0.950 . S
C594 C595 1.386 . S
C594 C596 1.391 . S
C595 C594 1.386 . S
C595 C599 1.393 1_455 S
C596 H585 0.950 . S
C596 C594 1.391 . S
C596 C597 1.400 . S
C597 C591 1.491 . S
C597 C596 1.400 . S
C597 C598 1.398 . S
C598 H586 0.950 1_455 S
C598 C597 1.398 . S
C598 C599 1.391 1_455 S
C599 H587 0.950 . S
C599 C595 1.393 1_655 S
C599 C598 1.391 1_655 S
H600 C608 0.950 . S
H601 C613 0.950 . S
H602 C610 0.950 . S
H603 C612 0.950 . S
H604 C614 0.950 . S
H605 C616 0.950 . S
H606 C618 0.950 . S
H607 C619 0.950 . S
C608 H600 0.950 . S
C608 C609 1.386 . S
C608 C610 1.391 . S
C609 C608 1.386 . S
C609 C613 1.393 . S
C610 H602 0.950 . S
C610 C608 1.391 . S
C610 C611 1.400 . S
C611 C610 1.400 . S
C611 C612 1.398 . S
C611 C617 1.491 . S
C612 H603 0.950 . S
C612 C611 1.398 . S
C612 C613 1.391 . S
C613 H601 0.950 . S
C613 C609 1.393 . S
C613 C612 1.391 . S
C614 H604 0.950 . S
C614 C615 1.386 . S
C614 C616 1.391 . S
C615 C614 1.386 . S
C615 C619 1.393 . S
C616 H605 0.950 . S
C616 C614 1.391 . S
C616 C617 1.400 . S
C617 C611 1.491 . S
C617 C616 1.400 . S
C617 C618 1.398 . S
C618 H606 0.950 . S
C618 C617 1.398 . S
C618 C619 1.391 . S
C619 H607 0.950 . S
C619 C615 1.393 . S
C619 C618 1.391 . S
H620 C628 0.950 . S
H621 C633 0.950 . S
H622 C630 0.950 . S
H623 C632 0.950 . S
H624 C634 0.950 . S
H625 C636 0.950 . S
H626 C638 0.950 . S
H627 C639 0.950 . S
C628 H620 0.950 . S
C628 C629 1.386 . S
C628 C630 1.391 . S
C629 C628 1.386 . S
C629 C633 1.393 . S
C630 H622 0.950 . S
C630 C628 1.391 . S
C630 C631 1.400 . S
C631 C630 1.400 . S
C631 C632 1.398 . S
C631 C637 1.491 . S
C632 H623 0.950 . S
C632 C631 1.398 . S
C632 C633 1.391 . S
C633 H621 0.950 . S
C633 C629 1.393 . S
C633 C632 1.391 . S
C634 H624 0.950 . S
C634 C635 1.386 . S
C634 C636 1.391 . S
C635 C634 1.386 . S
C635 C639 1.393 . S
C636 H625 0.950 . S
C636 C634 1.391 . S
C636 C637 1.400 . S
C637 C631 1.491 . S
C637 C636 1.400 . S
C637 C638 1.398 . S
C638 H626 0.950 . S
C638 C637 1.398 . S
C638 C639 1.391 . S
C639 H627 0.950 . S
C639 C635 1.393 . S
C639 C638 1.391 . S
H640 C648 0.950 . S
H641 C653 0.950 . S
H642 C650 0.950 . S
H643 C652 0.950 . S
H644 C654 0.950 . S
H645 C656 0.950 . S
H646 C658 0.950 . S
H647 C659 0.950 . S
C648 H640 0.950 . S
C648 C649 1.386 . S
C648 C650 1.391 . S
C649 C648 1.386 . S
C649 C653 1.393 . S
C650 H642 0.950 . S
C650 C648 1.391 . S
C650 C651 1.400 . S
C651 C650 1.400 . S
C651 C652 1.398 . S
C651 C657 1.491 . S
C652 H643 0.950 . S
C652 C651 1.398 . S
C652 C653 1.391 . S
C653 H641 0.950 . S
C653 C649 1.393 . S
C653 C652 1.391 . S
C654 H644 0.950 . S
C654 C655 1.386 . S
C654 C656 1.391 . S
C655 C654 1.386 . S
C655 C659 1.393 . S
C656 H645 0.950 . S
C656 C654 1.391 . S
C656 C657 1.400 . S
C657 C651 1.491 . S
C657 C656 1.400 . S
C657 C658 1.398 . S
C658 H646 0.950 . S
C658 C657 1.398 . S
C658 C659 1.391 . S
C659 H647 0.950 . S
C659 C655 1.393 . S
C659 C658 1.391 . S
H660 C668 0.950 . S
H661 C673 0.950 . S
H662 C670 0.950 . S
H663 C672 0.950 . S
H664 C674 0.950 . S
H665 C676 0.950 . S
H666 C678 0.950 . S
H667 C679 0.950 . S
C668 H660 0.950 . S
C668 C669 1.386 . S
C668 C670 1.391 . S
C669 C668 1.386 . S
C669 C673 1.393 . S
C670 H662 0.950 . S
C670 C668 1.391 . S
C670 C671 1.400 . S
C671 C670 1.400 . S
C671 C672 1.398 . S
C671 C677 1.491 . S
C672 H663 0.950 . S
C672 C671 1.398 . S
C672 C673 1.391 . S
C673 H661 0.950 . S
C673 C669 1.393 . S
C673 C672 1.391 . S
C674 H664 0.950 . S
C674 C675 1.386 . S
C674 C676 1.391 1_565 S
C675 C674 1.386 . S
C675 C679 1.393 . S
C676 H665 0.950 . S
C676 C674 1.391 1_545 S
C676 C677 1.400 . S
C677 C671 1.491 . S
C677 C676 1.400 . S
C677 C678 1.398 . S
C678 H666 0.950 . S
C678 C677 1.398 . S
C678 C679 1.391 1_545 S
C679 H667 0.950 . S
C679 C675 1.393 . S
C679 C678 1.391 1_565 S
H680 C688 0.950 . S
H681 C693 0.950 . S
H682 C690 0.950 . S
H683 C692 0.950 . S
H684 C694 0.950 . S
H685 C696 0.950 . S
H686 C698 0.950 . S
H687 C699 0.950 . S
C688 H680 0.950 . S
C688 C689 1.386 . S
C688 C690 1.391 . S
C689 C688 1.386 . S
C689 C693 1.393 . S
C690 H682 0.950 . S
C690 C688 1.391 . S
C690 C691 1.400 . S
C691 C690 1.400 . S
C691 C692 1.398 . S
C691 C697 1.491 . S
C692 H683 0.950 . S
C692 C691 1.398 . S
C692 C693 1.391 . S
C693 H681 0.950 . S
C693 C689 1.393 . S
C693 C692 1.391 . S
C694 H684 0.950 . S
C694 C695 1.386 . S
C694 C696 1.391 . S
C695 C694 1.386 . S
C695 C699 1.393 . S
C696 H685 0.950 . S
C696 C694 1.391 . S
C696 C697 1.400 . S
C697 C691 1.491 . S
C697 C696 1.400 . S
C697 C698 1.398 . S
C698 H686 0.950 . S
C698 C697 1.398 . S
C698 C699 1.391 . S
C699 H687 0.950 . S
C699 C695 1.393 . S
C699 C698 1.391 . S
H700 C708 0.950 . S
H701 C713 0.950 . S
H702 C710 0.950 . S
H703 C712 0.950 . S
H704 C714 0.950 . S
H705 C716 0.950 1_556 S
H706 C718 0.950 . S
H707 C719 0.950 . S
C708 H700 0.950 . S
C708 C709 1.386 . S
C708 C710 1.391 1_545 S
C709 C708 1.386 . S
C709 C713 1.393 . S
C710 H702 0.950 . S
C710 C708 1.391 1_565 S
C710 C711 1.400 . S
C711 C710 1.400 . S
C711 C712 1.398 . S
C711 C717 1.491 . S
C712 H703 0.950 . S
C712 C711 1.398 . S
C712 C713 1.391 1_565 S
C713 H701 0.950 . S
C713 C709 1.393 . S
C713 C712 1.391 1_545 S
C714 H704 0.950 . S
C714 C715 1.386 1_556 S
C714 C716 1.391 1_556 S
C715 C714 1.386 1_554 S
C715 C719 1.393 . S
C716 H705 0.950 1_554 S
C716 C714 1.391 1_554 S
C716 C717 1.400 . S
C717 C711 1.491 . S
C717 C716 1.400 . S
C717 C718 1.398 . S
C718 H706 0.950 . S
C718 C717 1.398 . S
C718 C719 1.391 . S
C719 H707 0.950 . S
C719 C715 1.393 . S
C719 C718 1.391 . S
H720 C728 0.950 . S
H721 C733 0.950 . S
H722 C730 0.950 . S
H723 C732 0.950 . S
H724 C734 0.950 . S
H725 C736 0.950 . S
H726 C738 0.950 . S
H727 C739 0.950 . S
C728 H720 0.950 . S
C728 C729 1.386 . S
C728 C730 1.391 . S
C729 C728 1.386 . S
C729 C733 1.393 . S
C730 H722 0.950 . S
C730 C728 1.391 . S
C730 C731 1.400 . S
C731 C730 1.400 . S
C731 C732 1.398 . S
C731 C737 1.491 . S
C732 H723 0.950 . S
C732 C731 1.398 . S
C732 C733 1.391 . S
C733 H721 0.950 . S
C733 C729 1.393 . S
C733 C732 1.391 . S
C734 H724 0.950 . S
C734 C735 1.386 . S
C734 C736 1.391 . S
C735 C734 1.386 . S
C735 C739 1.393 . S
C736 H725 0.950 . S
C736 C734 1.391 . S
C736 C737 1.400 . S
C737 C731 1.491 . S
C737 C736 1.400 . S
C737 C738 1.398 . S
C738 H726 0.950 . S
C738 C737 1.398 . S
C738 C739 1.391 . S
C739 H727 0.950 . S
C739 C735 1.393 . S
C739 C738 1.391 . S
H740 C748 0.950 . S
H741 C753 0.950 . S
H742 C750 0.950 . S
H743 C752 0.950 . S
H744 C754 0.950 . S
H745 C756 0.950 1_554 S
H746 C758 0.950 . S
H747 C759 0.950 . S
C748 H740 0.950 . S
C748 C749 1.386 . S
C748 C750 1.391 . S
C749 C748 1.386 . S
C749 C753 1.393 . S
C750 H742 0.950 . S
C750 C748 1.391 . S
C750 C751 1.400 . S
C751 C750 1.400 . S
C751 C752 1.398 . S
C751 C757 1.491 . S
C752 H743 0.950 . S
C752 C751 1.398 . S
C752 C753 1.391 . S
C753 H741 0.950 . S
C753 C749 1.393 . S
C753 C752 1.391 . S
C754 H744 0.950 . S
C754 C755 1.397 . S
C754 C756 1.391 1_554 S
C755 C754 1.397 . S
C755 C759 1.367 1_554 S
C756 H745 0.950 1_556 S
C756 C754 1.391 1_556 S
C756 C757 1.400 . S
C757 C751 1.491 . S
C757 C756 1.400 . S
C757 C758 1.398 . S
C758 H746 0.950 . S
C758 C757 1.398 . S
C758 C759 1.391 . S
C759 H747 0.950 . S
C759 C755 1.367 1_556 S
C759 C758 1.391 . S
H760 C768 0.950 . S
H761 C773 0.950 . S
H762 C770 0.950 . S
H763 C772 0.950 . S
H764 C774 0.950 . S
H765 C776 0.950 . S
H766 C778 0.950 . S
H767 C779 0.950 . S
C768 H760 0.950 . S
C768 C769 1.386 . S
C768 C770 1.391 . S
C769 C768 1.386 . S
C769 C773 1.393 . S
C770 H762 0.950 . S
C770 C768 1.391 . S
C770 C771 1.400 . S
C771 C770 1.400 . S
C771 C772 1.398 . S
C771 C777 1.491 . S
C772 H763 0.950 . S
C772 C771 1.398 . S
C772 C773 1.391 . S
C773 H761 0.950 . S
C773 C769 1.393 . S
C773 C772 1.391 . S
C774 H764 0.950 . S
C774 C775 1.386 . S
C774 C776 1.391 . S
C775 C774 1.386 . S
C775 C779 1.393 . S
C776 H765 0.950 . S
C776 C774 1.391 . S
C776 C777 1.400 . S
C777 C771 1.491 . S
C777 C776 1.400 . S
C777 C778 1.398 . S
C778 H766 0.950 . S
C778 C777 1.398 . S
C778 C779 1.391 . S
C779 H767 0.950 . S
C779 C775 1.393 . S
C779 C778 1.391 . S
H780 C788 0.950 . S
H781 C793 0.950 . S
H782 C790 0.950 . S
H783 C792 0.950 . S
H784 C794 0.950 . S
H785 C796 0.950 . S
H786 C798 0.950 . S
H787 C799 0.950 . S
C788 H780 0.950 . S
C788 C789 1.386 . S
C788 C790 1.391 . S
C789 C788 1.386 . S
C789 C793 1.393 . S
C790 H782 0.950 . S
C790 C788 1.391 . S
C790 C791 1.400 . S
C791 C790 1.400 . S
C791 C792 1.398 . S
C791 C797 1.491 . S
C792 H783 0.950 . S
C792 C791 1.398 . S
C792 C793 1.391 . S
C793 H781 0.950 . S
C793 C789 1.393 . S
C793 C792 1.391 . S
C794 H784 0.950 . S
C794 C795 1.386 . S
C794 C796 1.391 . S
C795 C794 1.386 . S
C795 C799 1.393 . S
C796 H785 0.950 . S
C796 C794 1.391 . S
C796 C797 1.400 . S
C797 C791 1.491 . S
C797 C796 1.400 . S
C797 C798 1.398 . S
C798 H786 0.950 . S
C798 C797 1.398 . S
C798 C799 1.391 . S
C799 H787 0.950 . S
C799 C795 1.393 . S
C799 C798 1.391 . S
H800 C808 0.950 . S
H801 C813 0.950 . S
H802 C810 0.950 . S
H803 C812 0.950 . S
H804 C814 0.950 . S
H805 C816 0.950 . S
H806 C818 0.950 . S
H807 C819 0.950 . S
C808 H800 0.950 . S
C808 C809 1.386 . S
C808 C810 1.391 . S
C809 C808 1.386 . S
C809 C813 1.393 . S
C810 H802 0.950 . S
C810 C808 1.391 . S
C810 C811 1.400 . S
C811 C810 1.400 . S
C811 C812 1.398 . S
C811 C817 1.491 . S
C812 H803 0.950 . S
C812 C811 1.398 . S
C812 C813 1.391 . S
C813 H801 0.950 . S
C813 C809 1.393 . S
C813 C812 1.391 . S
C814 H804 0.950 . S
C814 C815 1.386 . S
C814 C816 1.391 . S
C815 C814 1.386 . S
C815 C819 1.393 . S
C816 H805 0.950 . S
C816 C814 1.391 . S
C816 C817 1.400 . S
C817 C811 1.491 . S
C817 C816 1.400 . S
C817 C818 1.398 . S
C818 H806 0.950 . S
C818 C817 1.398 . S
C818 C819 1.391 . S
C819 H807 0.950 . S
C819 C815 1.393 . S
C819 C818 1.391 . S
H820 C828 0.950 . S
H821 C833 0.950 . S
H822 C830 0.950 . S
H823 C832 0.950 . S
H824 C834 0.950 . S
H825 C836 0.950 . S
H826 C838 0.950 . S
H827 C839 0.950 . S
C828 H820 0.950 . S
C828 C829 1.386 . S
C828 C830 1.391 . S
C829 C828 1.386 . S
C829 C833 1.393 . S
C830 H822 0.950 . S
C830 C828 1.391 . S
C830 C831 1.400 . S
C831 C830 1.400 . S
C831 C832 1.398 . S
C831 C837 1.491 . S
C832 H823 0.950 . S
C832 C831 1.398 . S
C832 C833 1.391 . S
C833 H821 0.950 . S
C833 C829 1.393 . S
C833 C832 1.391 . S
C834 H824 0.950 . S
C834 C835 1.386 . S
C834 C836 1.391 . S
C835 C834 1.386 . S
C835 C839 1.393 . S
C836 H825 0.950 . S
C836 C834 1.391 . S
C836 C837 1.400 . S
C837 C831 1.491 . S
C837 C836 1.400 . S
C837 C838 1.398 . S
C838 H826 0.950 . S
C838 C837 1.398 . S
C838 C839 1.391 . S
C839 H827 0.950 . S
C839 C835 1.393 . S
C839 C838 1.391 . S
H840 C848 0.950 . S
H841 C853 0.950 . S
H842 C850 0.950 . S
H843 C852 0.950 . S
H844 C854 0.950 . S
H845 C856 0.950 . S
H846 C858 0.950 . S
H847 C859 0.950 . S
C848 H840 0.950 . S
C848 C849 1.386 . S
C848 C850 1.391 . S
C849 C848 1.386 . S
C849 C853 1.393 . S
C850 H842 0.950 . S
C850 C848 1.391 . S
C850 C851 1.400 . S
C851 C850 1.400 . S
C851 C852 1.398 . S
C851 C857 1.491 . S
C852 H843 0.950 . S
C852 C851 1.398 . S
C852 C853 1.391 . S
C853 H841 0.950 . S
C853 C849 1.393 . S
C853 C852 1.391 . S
C854 H844 0.950 . S
C854 C855 1.386 . S
C854 C856 1.391 . S
C855 C854 1.386 . S
C855 C859 1.393 1_655 S
C856 H845 0.950 . S
C856 C854 1.391 . S
C856 C857 1.400 1_655 S
C857 C851 1.491 . S
C857 C856 1.400 1_455 S
C857 C858 1.398 . S
C858 H846 0.950 . S
C858 C857 1.398 . S
C858 C859 1.391 . S
C859 H847 0.950 . S
C859 C855 1.393 1_455 S
C859 C858 1.391 . S
H860 C868 0.950 . S
H861 C873 0.950 . S
H862 C870 0.950 . S
H863 C872 0.950 . S
H864 C874 0.950 . S
H865 C876 0.950 . S
H866 C878 0.950 . S
H867 C879 0.950 . S
C868 H860 0.950 . S
C868 C869 1.386 . S
C868 C870 1.391 . S
C869 C868 1.386 . S
C869 C873 1.393 . S
C870 H862 0.950 . S
C870 C868 1.391 . S
C870 C871 1.400 . S
C871 C870 1.400 . S
C871 C872 1.398 . S
C871 C877 1.491 . S
C872 H863 0.950 . S
C872 C871 1.398 . S
C872 C873 1.391 . S
C873 H861 0.950 . S
C873 C869 1.393 . S
C873 C872 1.391 . S
C874 H864 0.950 . S
C874 C875 1.386 . S
C874 C876 1.391 . S
C875 C874 1.386 . S
C875 C879 1.393 . S
C876 H865 0.950 . S
C876 C874 1.391 . S
C876 C877 1.400 . S
C877 C871 1.491 . S
C877 C876 1.400 . S
C877 C878 1.398 . S
C878 H866 0.950 . S
C878 C877 1.398 . S
C878 C879 1.391 . S
C879 H867 0.950 . S
C879 C875 1.393 . S
C879 C878 1.391 . S
H880 C888 0.950 . S
H881 C893 0.950 . S
H882 C890 0.950 . S
H883 C892 0.950 . S
H884 C894 0.950 . S
H885 C896 0.950 . S
H886 C898 0.950 . S
H887 C899 0.950 . S
C888 H880 0.950 . S
C888 C889 1.386 . S
C888 C890 1.391 . S
C889 C888 1.386 . S
C889 C893 1.393 . S
C890 H882 0.950 . S
C890 C888 1.391 . S
C890 C891 1.400 . S
C891 C890 1.400 . S
C891 C892 1.398 . S
C891 C897 1.491 . S
C892 H883 0.950 . S
C892 C891 1.398 . S
C892 C893 1.391 . S
C893 H881 0.950 . S
C893 C889 1.393 . S
C893 C892 1.391 . S
C894 H884 0.950 . S
C894 C895 1.386 . S
C894 C896 1.391 . S
C895 C894 1.386 . S
C895 C899 1.393 . S
C896 H885 0.950 . S
C896 C894 1.391 . S
C896 C897 1.400 . S
C897 C891 1.491 . S
C897 C896 1.400 . S
C897 C898 1.398 . S
C898 H886 0.950 . S
C898 C897 1.398 . S
C898 C899 1.391 . S
C899 H887 0.950 . S
C899 C895 1.393 . S
C899 C898 1.391 . S
H900 C908 0.950 . S
H901 C913 0.950 . S
H902 C910 0.950 . S
H903 C912 0.950 . S
H904 C914 0.950 . S
H905 C916 0.950 . S
H906 C918 0.950 . S
H907 C919 0.950 . S
C908 H900 0.950 . S
C908 C909 1.386 . S
C908 C910 1.391 . S
C909 C908 1.386 . S
C909 C913 1.393 . S
C910 H902 0.950 . S
C910 C908 1.391 . S
C910 C911 1.400 . S
C911 C910 1.400 . S
C911 C912 1.398 . S
C911 C917 1.491 . S
C912 H903 0.950 . S
C912 C911 1.398 . S
C912 C913 1.391 . S
C913 H901 0.950 . S
C913 C909 1.393 . S
C913 C912 1.391 . S
C914 H904 0.950 . S
C914 C915 1.386 . S
C914 C916 1.391 . S
C915 C914 1.386 . S
C915 C919 1.393 . S
C916 H905 0.950 . S
C916 C914 1.391 . S
C916 C917 1.400 . S
C917 C911 1.491 . S
C917 C916 1.400 . S
C917 C918 1.398 . S
C918 H906 0.950 . S
C918 C917 1.398 . S
C918 C919 1.391 . S
C919 H907 0.950 . S
C919 C915 1.393 . S
C919 C918 1.391 . S
H920 C928 0.950 . S
H921 C933 0.950 . S
H922 C930 0.950 . S
H923 C932 0.950 . S
H924 C934 0.950 . S
H925 C936 0.950 . S
H926 C938 0.950 . S
H927 C939 0.950 1_545 S
C928 H920 0.950 . S
C928 C929 1.386 . S
C928 C930 1.391 . S
C929 C928 1.386 . S
C929 C933 1.393 . S
C930 H922 0.950 . S
C930 C928 1.391 . S
C930 C931 1.400 . S
C931 C930 1.400 . S
C931 C932 1.398 . S
C931 C937 1.491 . S
C932 H923 0.950 . S
C932 C931 1.398 . S
C932 C933 1.391 . S
C933 H921 0.950 . S
C933 C929 1.393 . S
C933 C932 1.391 . S
C934 H924 0.950 . S
C934 C935 1.386 . S
C934 C936 1.391 . S
C935 C934 1.386 . S
C935 C939 1.393 . S
C936 H925 0.950 . S
C936 C934 1.391 . S
C936 C937 1.400 . S
C937 C931 1.491 . S
C937 C936 1.400 . S
C937 C938 1.398 . S
C938 H926 0.950 . S
C938 C937 1.398 . S
C938 C939 1.391 . S
C939 H927 0.950 1_565 S
C939 C935 1.393 . S
C939 C938 1.391 . S
H940 C948 0.950 1_565 S
H941 C953 0.950 . S
H942 C950 0.950 . S
H943 C952 0.950 . S
H944 C954 0.950 . S
H945 C956 0.956 . S
H946 C958 0.950 . S
H947 C959 0.950 . S
C948 H940 0.950 1_545 S
C948 C949 1.386 . S
C948 C950 1.391 . S
C949 C948 1.386 . S
C949 C953 1.393 . S
C950 H942 0.950 . S
C950 C948 1.391 . S
C950 C951 1.400 . S
C951 C950 1.400 . S
C951 C952 1.398 . S
C951 C957 1.491 . S
C952 H943 0.950 . S
C952 C951 1.398 . S
C952 C953 1.391 . S
C953 H941 0.950 . S
C953 C949 1.393 . S
C953 C952 1.391 . S
C954 H944 0.950 . S
C954 C955 1.386 . S
C954 C956 1.385 1_455 S
C955 C954 1.386 . S
C955 C959 1.393 . S
C956 H945 0.956 . S
C956 C954 1.385 1_655 S
C956 C957 1.401 . S
C957 C951 1.491 . S
C957 C956 1.401 . S
C957 C958 1.398 1_655 S
C958 H946 0.950 . S
C958 C957 1.398 1_455 S
C958 C959 1.391 . S
C959 H947 0.950 . S
C959 C955 1.393 . S
C959 C958 1.391 . S
C249 C9 1.574 . S
C255 C226 1.577 . S
C269 C189 1.700 . S
C275 C29 1.688 1_655 S
C289 C46 1.208 . S
C295 C166 1.173 . S
C309 C69 1.432 . S
C315 C206 1.411 . S
C329 C86 1.532 . S
C335 C209 1.595 1_545 S
C349 C109 1.611 1_455 S
C355 C229 1.652 . S
C369 C186 1.569 . S
C375 C129 1.572 . S
C389 C146 1.406 . S
C395 C169 1.439 . S
C409 C66 1.539 . S
C415 C89 1.551 . S
C429 C6 1.246 . S
C435 C106 1.254 . S
C449 C26 1.224 . S
C455 C126 1.227 1_556 S
C469 C149 1.935 . S
C475 C49 1.911 . S
C489 C8 1.402 . S
C495 C176 1.402 . S
C509 C28 1.397 . S
C515 C216 1.362 . S
C529 C236 1.799 . S
C535 C59 1.776 . S
C549 C68 1.672 . S
C555 C181 1.735 . S
C569 C99 1.725 . S
C575 C196 1.772 . S
C589 C161 1.599 . S
C595 C108 1.529 1_455 S
C609 C201 1.568 . S
C615 C128 1.510 . S
C629 C221 1.796 . S
C635 C159 1.712 . S
C649 C16 1.232 . S
C655 C79 1.197 . S
C669 C19 1.354 . S
C675 C36 1.375 . S
C689 C39 1.176 . S
C695 C41 1.229 . S
C709 C76 1.346 . S
C715 C48 1.399 1_554 S
C729 C119 1.620 . S
C735 C81 1.710 . S
C749 C116 1.841 . S
C755 C139 1.786 . S
C769 C136 1.633 . S
C775 C148 1.666 . S
C789 C88 2.014 . S
C795 C141 2.026 . S
C809 C168 1.534 . S
C815 C61 1.618 . S
C829 C101 1.752 . S
C835 C188 1.719 . S
C849 C179 1.302 . S
C855 C121 1.382 . S
C869 C219 1.458 . S
C875 C156 1.537 . S
C889 C96 1.459 . S
C895 C239 1.440 . S
C909 C228 1.621 . S
C915 C21 1.632 . S
C929 C56 1.573 . S
C935 C199 1.523 . S
C949 C208 1.425 1_545 S
C955 C1 1.490 . S
