# Generated by pormake.
# Topology reo, (8)-cn, num edge types: 1
# Building blocks:
#     Node 0, Type 0, BuildingBlock: TAGTUT_clean_sbu_1, # of connection points: 8
#     Node 1, Type 0, BuildingBlock: TAGTUT_clean_sbu_1, # of connection points: 8
#     Node 2, Type 0, BuildingBlock: TAGTUT_clean_sbu_1, # of connection points: 8
#     Edge 3, Type (0, 0), BuildingBlock: FUNLAD_clean_linker_1, # of connection points: 2
#     Edge 4, Type (0, 0), BuildingBlock: FUNLAD_clean_linker_1, # of connection points: 2
#     Edge 5, Type (0, 0), BuildingBlock: FUNLAD_clean_linker_1, # of connection points: 2
#     Edge 6, Type (0, 0), BuildingBlock: FUNLAD_clean_linker_1, # of connection points: 2
#     Edge 7, Type (0, 0), BuildingBlock: FUNLAD_clean_linker_1, # of connection points: 2
#     Edge 8, Type (0, 0), BuildingBlock: FUNLAD_clean_linker_1, # of connection points: 2
#     Edge 9, Type (0, 0), BuildingBlock: FUNLAD_clean_linker_1, # of connection points: 2
#     Edge 10, Type (0, 0), BuildingBlock: FUNLAD_clean_linker_1, # of connection points: 2
#     Edge 11, Type (0, 0), BuildingBlock: FUNLAD_clean_linker_1, # of connection points: 2
#     Edge 12, Type (0, 0), BuildingBlock: FUNLAD_clean_linker_1, # of connection points: 2
#     Edge 13, Type (0, 0), BuildingBlock: FUNLAD_clean_linker_1, # of connection points: 2
#     Edge 14, Type (0, 0), BuildingBlock: FUNLAD_clean_linker_1, # of connection points: 2
# Relax obj value: 0.194
# Max RMSD: 0.231
# Mean RMSD: 0.181
data_MOF--net-reo--node1-TAGTUT_clean_sbu_1--edge1-FUNLAD_clean_linker_1
_symmetry_space_group_name_H-M    P1
_symmetry_Int_Tables_number       1
_symmetry_cell_setting            triclinic
loop_
_symmetry_equiv_pos_as_xyz
'x, y, z'
_cell_length_a     21.874433
_cell_length_b     24.249566
_cell_length_c     27.110221
_cell_angle_alpha  91.368559
_cell_angle_beta   89.16822
_cell_angle_gamma 93.923772
loop_
_atom_site_label
_atom_site_type_symbol
_atom_site_fract_x
_atom_site_fract_y
_atom_site_fract_z
_atom_type_partial_charge
C0 C 0.04421 0.79178 0.54704 0.0
C1 C 0.9246 0.83925 0.43198 0.0
C2 C 0.09441 0.99635 0.39094 0.0
Mg3 Mg 0.94817 0.87878 0.53737 0.0
O4 O 0.01969 0.91982 0.51766 0.0
Mg5 Mg 0.06907 0.88943 0.46168 0.0
Mg6 Mg 0.009 0.99362 0.49045 0.0
O7 O 0.99718 0.06716 0.46338 0.0
Mg8 Mg 0.0661 0.11077 0.44313 0.0
Mg9 Mg 0.94256 0.09695 0.51619 0.0
C10 C 0.92289 0.99289 0.59052 0.0
C11 C 0.86802 0.99627 0.45609 0.0
O12 O 0.07705 0.81371 0.51199 0.0
O13 O 0.99361 0.81002 0.56227 0.0
O14 O 0.98257 0.84684 0.42443 0.0
O15 O 0.89922 0.85308 0.47253 0.0
O16 O 0.91246 0.94006 0.58829 0.0
O17 O 0.9588 0.01872 0.55991 0.0
C18 C 0.15002 0.98548 0.52215 0.0
O19 O 0.10386 0.01559 0.52328 0.0
O20 O 0.1483 0.9377 0.50066 0.0
O21 O 0.93097 0.16948 0.46256 0.0
O22 O 0.01482 0.17323 0.41311 0.0
O23 O 0.02539 0.14536 0.55436 0.0
C24 C 0.96231 0.18964 0.4259 0.0
O25 O 0.11112 0.14171 0.50865 0.0
O26 O 0.10469 0.04917 0.3942 0.0
C27 C 0.08328 0.15573 0.54811 0.0
O28 O 0.05772 0.96985 0.42057 0.0
O29 O 0.91648 0.96977 0.45659 0.0
O30 O 0.86544 0.04427 0.47667 0.0
C31 C 0.56014 0.96634 0.17928 0.0
C32 C 0.38475 0.9981 0.11828 0.0
C33 C 0.44267 0.8838 0.96332 0.0
Mg34 Mg 0.51475 0.05261 0.10771 0.0
O35 O 0.53471 0.99674 0.06216 0.0
Mg36 Mg 0.49454 0.92061 0.07248 0.0
Mg37 Mg 0.50746 0.00588 -0.0067 0.0
O38 O 0.47946 0.0155 0.92464 0.0
Mg39 Mg 0.49676 0.96064 0.87732 0.0
Mg40 Mg 0.51768 0.09235 0.91457 0.0
C41 C 0.57035 0.12872 0.02223 0.0
C42 C 0.40601 0.09966 -0.00613 0.0
O43 O 0.53879 0.92674 0.15067 0.0
O44 O 0.55753 0.01756 0.16925 0.0
O45 O 0.40693 0.95262 0.10516 0.0
O46 O 0.41719 0.04381 0.11959 0.0
O47 O 0.55523 0.12441 0.06808 0.0
O48 O 0.56227 0.08833 0.99109 0.0
C49 C 0.60871 0.91207 -0.00483 0.0
O50 O 0.58927 0.9526 0.97137 0.0
O51 O 0.58186 0.89388 0.03454 0.0
O52 O 0.46729 0.08804 0.8396 0.0
O53 O 0.45301 0.998 0.81687 0.0
O54 O 0.60395 0.06078 0.87758 0.0
C55 C 0.44715 0.04949 0.80955 0.0
O56 O 0.59376 0.96922 0.86471 0.0
O57 O 0.45587 0.88873 0.91712 0.0
C58 C 0.62574 0.01516 0.86409 0.0
O59 O 0.45325 0.92359 -0.00528 0.0
O60 O 0.42543 0.05818 0.01613 0.0
O61 O 0.43251 0.11918 0.955 0.0
C62 C 0.07839 0.44326 0.81192 0.0
C63 C 0.04704 0.6083 0.86192 0.0
C64 C 0.13776 0.55508 0.03234 0.0
Mg65 Mg 0.97454 0.49689 0.87196 0.0
O66 O 0.02625 0.4784 0.92264 0.0
Mg67 Mg 0.1145 0.50782 0.92048 0.0
Mg68 Mg 0.00518 0.50278 0.99053 0.0
O69 O 0.98404 0.52727 0.05842 0.0
Mg70 Mg 0.0362 0.50969 0.10908 0.0
Mg71 Mg 0.8961 0.4966 0.06047 0.0
C72 C 0.87245 0.45263 0.94861 0.0
C73 C 0.90796 0.5998 0.9856 0.0
O74 O 0.11817 0.46068 0.84431 0.0
O75 O 0.0214 0.45218 0.81551 0.0
O76 O 0.09216 0.58647 0.88115 0.0
O77 O 0.99416 0.58288 0.85848 0.0
O78 O 0.88596 0.46643 0.90408 0.0
O79 O 0.91173 0.45731 0.98343 0.0
C80 C 0.10203 0.40538 -0.00415 0.0
O81 O 0.05178 0.42309 0.01323 0.0
O82 O 0.13275 0.43054 0.96159 0.0
O83 O 0.89102 0.54266 0.13627 0.0
O84 O 0.98732 0.55288 0.16583 0.0
O85 O 0.92002 0.41818 0.1003 0.0
C86 C 0.92994 0.56055 0.16903 0.0
O87 O 0.01901 0.42293 0.1206 0.0
O88 O 0.12432 0.54234 0.07715 0.0
C89 C 0.96645 0.39688 0.11835 0.0
O90 O 0.0988 0.5481 -0.00256 0.0
O91 O 0.95845 0.58254 0.96819 0.0
O92 O 0.87711 0.57404 0.01948 0.0
H93 H 0.99781 0.32888 0.16099 0.0
C94 C 0.95713 0.34613 0.14676 0.0
H95 H 0.86155 0.35064 0.15534 0.0
H96 H 0.95727 0.15285 0.30054 0.0
H97 H 0.95856 0.09543 0.22591 0.0
H98 H 0.93318 0.13292 0.14539 0.0
H99 H 0.90513 0.22807 0.13937 0.0
C100 C 0.90211 0.33127 0.16686 0.0
C101 C 0.90011 0.30369 0.21507 0.0
C102 C 0.91532 0.24823 0.21795 0.0
C103 C 0.9305 0.227 0.26414 0.0
C104 C 0.94618 0.17138 0.26614 0.0
C105 C 0.94692 0.13796 0.22362 0.0
C106 C 0.93252 0.15904 0.17831 0.0
C107 C 0.91684 0.2136 0.17528 0.0
H108 H 0.88429 0.23205 0.39678 0.0
C109 C 0.93287 0.2262 0.39204 0.0
H110 H 0.01088 0.23629 0.34561 0.0
H111 H 0.86069 0.40861 0.22317 0.0
H112 H 0.85516 0.46466 0.2981 0.0
H113 H 0.8845 0.42873 0.37813 0.0
H114 H 0.91927 0.33611 0.38362 0.0
C115 C 0.96283 0.24391 0.35115 0.0
C116 C 0.93097 0.26166 0.30706 0.0
C117 C 0.90957 0.31528 0.30501 0.0
C118 C 0.89332 0.33617 0.25882 0.0
C119 C 0.87375 0.39059 0.25723 0.0
C120 C 0.87034 0.42326 0.30001 0.0
C121 C 0.88683 0.40299 0.34507 0.0
C122 C 0.90658 0.34973 0.34773 0.0
H123 H 0.83293 0.95566 0.3886 0.0
C124 C 0.81878 0.97514 0.42305 0.0
H125 H 0.74654 0.00342 0.46595 0.0
H126 H 0.5935 0.07371 0.28591 0.0
H127 H 0.59296 0.15268 0.3422 0.0
H128 H 0.64938 0.15413 0.42033 0.0
H129 H 0.70527 0.07658 0.4431 0.0
C130 C 0.75971 0.98469 0.43098 0.0
C131 C 0.71521 0.97924 0.38947 0.0
C132 C 0.68307 0.0257 0.37676 0.0
C133 C 0.65235 0.02577 0.3309 0.0
C134 C 0.61933 0.07209 0.31952 0.0
C135 C 0.61831 0.11767 0.35162 0.0
C136 C 0.64995 0.11843 0.39562 0.0
C137 C 0.68205 0.07327 0.40821 0.0
H138 H 0.57054 0.91561 0.24503 0.0
C139 C 0.58775 0.95273 0.22628 0.0
H140 H 0.64909 0.02331 0.22662 0.0
H141 H 0.75101 0.87666 0.41057 0.0
H142 H 0.75186 0.79715 0.3537 0.0
H143 H 0.71606 0.80343 0.2685 0.0
H144 H 0.67464 0.88701 0.24046 0.0
C145 C 0.63258 0.98643 0.24616 0.0
C146 C 0.65582 0.98055 0.29698 0.0
C147 C 0.68463 0.93273 0.31097 0.0
C148 C 0.71112 0.93103 0.35849 0.0
C149 C 0.73394 0.881 0.37368 0.0
C150 C 0.73456 0.83524 0.34163 0.0
C151 C 0.71376 0.83855 0.29373 0.0
C152 C 0.6894 0.88673 0.27827 0.0
H153 H 0.83881 0.79718 0.40478 0.0
C154 C 0.88632 0.80838 0.39515 0.0
H155 H 0.95797 0.79902 0.34335 0.0
H156 H 0.82525 0.56055 0.2903 0.0
H157 H 0.83975 0.53693 0.37614 0.0
H158 H 0.8731 0.60908 0.43764 0.0
H159 H 0.89083 0.70461 0.41437 0.0
C160 C 0.91067 0.78767 0.35368 0.0
C161 C 0.87655 0.74627 0.32162 0.0
C162 C 0.86689 0.6906 0.3366 0.0
C163 C 0.85018 0.64862 0.30104 0.0
C164 C 0.83988 0.59334 0.31618 0.0
C165 C 0.84772 0.57946 0.36512 0.0
C166 C 0.86633 0.62011 0.39974 0.0
C167 C 0.87617 0.67504 0.38585 0.0
H168 H 0.94326 0.60505 0.23954 0.0
C169 C 0.90986 0.59465 0.21084 0.0
H170 H 0.82351 0.61152 0.18256 0.0
H171 H 0.87508 0.84987 0.28479 0.0
H172 H 0.85458 0.87266 0.1998 0.0
H173 H 0.83133 0.79884 0.13713 0.0
H174 H 0.82811 0.70206 0.15918 0.0
C175 C 0.85616 0.61854 0.21225 0.0
C176 C 0.84678 0.66194 0.25071 0.0
C177 C 0.84815 0.71799 0.2371 0.0
C178 C 0.86275 0.76037 0.27287 0.0
C179 C 0.8651 0.8162 0.25855 0.0
C180 C 0.85325 0.82973 0.21008 0.0
C181 C 0.84005 0.78818 0.17483 0.0
C182 C 0.83813 0.73284 0.1879 0.0
H183 H 0.30858 0.03328 0.15866 0.0
C184 C 0.32226 0.99657 0.13869 0.0
H185 H 0.30083 0.91183 0.12214 0.0
H186 H 0.2199 0.9111 0.34749 0.0
H187 H 0.29567 0.84294 0.34355 0.0
H188 H 0.34521 0.8185 0.26442 0.0
H189 H 0.31954 0.86286 0.18889 0.0
C190 C 0.287 0.94902 0.1411 0.0
C191 C 0.23924 0.9439 0.18018 0.0
C192 C 0.25149 0.91443 0.22302 0.0
C193 C 0.22164 0.92737 0.26826 0.0
C194 C 0.2393 0.90164 0.31171 0.0
C195 C 0.28317 0.86257 0.31004 0.0
C196 C 0.31117 0.8489 0.26553 0.0
C197 C 0.2961 0.87475 0.22247 0.0
H198 H 0.10883 0.92239 0.34399 0.0
C199 C 0.12181 0.96615 0.34951 0.0
H200 H 0.16874 0.03748 0.3209 0.0
H201 H 0.19449 0.99405 0.10096 0.0
H202 H 0.11123 0.05608 0.10216 0.0
H203 H 0.05703 0.07746 0.18 0.0
H204 H 0.0851 0.03675 0.25703 0.0
C205 C 0.15802 0.99322 0.31646 0.0
C206 C 0.1777 0.96776 0.26931 0.0
C207 C 0.15891 0.99049 0.22472 0.0
C208 C 0.18992 0.97845 0.17997 0.0
C209 C 0.17215 0.00267 0.13594 0.0
C210 C 0.12442 0.03789 0.13616 0.0
C211 C 0.0939 0.04992 0.18003 0.0
C212 C 0.11069 0.0266 0.22395 0.0
H213 H 0.03901 0.71371 0.58477 0.0
C214 C 0.06911 0.75031 0.5776 0.0
H215 H 0.13635 0.80728 0.60718 0.0
H216 H 0.00288 0.76454 0.81297 0.0
H217 H 0.98331 0.86001 0.7981 0.0
H218 H 0.01828 0.90453 0.72069 0.0
H219 H 0.07273 0.85384 0.6579 0.0
C220 C 0.11045 0.76775 0.61158 0.0
C221 C 0.1028 0.74562 0.66194 0.0
C222 C 0.07207 0.77671 0.69859 0.0
C223 C 0.05129 0.7512 0.74293 0.0
C224 C 0.01936 0.7822 0.77855 0.0
C225 C 0.0079 0.837 0.77048 0.0
C226 C 0.02753 0.86198 0.72691 0.0
C227 C 0.0589 0.83233 0.69114 0.0
H228 H 0.10506 0.68116 0.83913 0.0
C229 C 0.06115 0.65825 0.83328 0.0
H230 H 0.98902 0.6399 0.7834 0.0
H231 H 0.1683 0.67833 0.60245 0.0
H232 H 0.18755 0.58247 0.61744 0.0
H233 H 0.14894 0.5372 0.69342 0.0
H234 H 0.09138 0.58719 0.7548 0.0
C235 C 0.03053 0.66544 0.79176 0.0
C236 C 0.06081 0.69499 0.75007 0.0
C237 C 0.09494 0.66499 0.71494 0.0
C238 C 0.11648 0.69065 0.67094 0.0
C239 C 0.15021 0.66012 0.63617 0.0
C240 C 0.16174 0.60531 0.64442 0.0
C241 C 0.14007 0.57984 0.68722 0.0
C242 C 0.10703 0.60908 0.72219 0.0
H243 H 0.38286 0.10039 0.7723 0.0
C244 C 0.40989 0.06457 0.76783 0.0
H245 H 0.43118 0.99616 0.72343 0.0
H246 H 0.17316 0.94463 0.63277 0.0
H247 H 0.18588 0.86424 0.68199 0.0
H248 H 0.2727 0.86162 0.73832 0.0
H249 H 0.34815 0.93882 0.74531 0.0
C250 C 0.40381 0.03183 0.72738 0.0
C251 C 0.35157 0.03513 0.69332 0.0
C252 C 0.30749 0.98948 0.68996 0.0
C253 C 0.25737 0.99094 0.65743 0.0
C254 C 0.21326 0.94525 0.6557 0.0
C255 C 0.21943 0.899 0.68422 0.0
C256 C 0.26844 0.89747 0.71589 0.0
C257 C 0.31176 0.94214 0.71922 0.0
H258 H 0.24475 0.97832 0.54536 0.0
C259 C 0.20473 1.00208 0.55114 0.0
H260 H 0.16285 0.05997 0.59817 0.0
H261 H 0.42909 0.12887 0.68902 0.0
H262 H 0.41462 0.21025 0.64133 0.0
H263 H 0.32527 0.21375 0.58722 0.0
H264 H 0.25032 0.13535 0.57999 0.0
C265 C 0.2028 0.03676 0.59039 0.0
C266 C 0.25181 0.03779 0.62783 0.0
C267 C 0.29429 0.08423 0.63259 0.0
C268 C 0.3449 0.08268 0.66482 0.0
C269 C 0.38853 0.12856 0.66668 0.0
C270 C 0.38106 0.17537 0.63913 0.0
C271 C 0.33083 0.17731 0.60857 0.0
C272 C 0.28809 0.13218 0.60485 0.0
H273 H 0.06282 0.40022 0.74102 0.0
C274 C 0.09648 0.40835 0.76993 0.0
H275 H 0.18001 0.38508 0.7988 0.0
H276 H 0.11702 0.14852 0.69656 0.0
H277 H 0.12908 0.12553 0.78266 0.0
H278 H 0.15078 0.19898 0.84593 0.0
H279 H 0.16098 0.29552 0.82344 0.0
C280 C 0.14754 0.38054 0.76879 0.0
C281 C 0.15317 0.33605 0.73055 0.0
C282 C 0.14707 0.28 0.7445 0.0
C283 C 0.1329 0.23785 0.70835 0.0
C284 C 0.12669 0.18209 0.72296 0.0
C285 C 0.13366 0.1684 0.77211 0.0
C286 C 0.14596 0.20973 0.80771 0.0
C287 C 0.15203 0.26499 0.79432 0.0
H288 H 0.16686 0.19971 0.57842 0.0
C289 C 0.11854 0.18898 0.58556 0.0
H290 H 0.04305 0.20015 0.63323 0.0
H291 H 0.18083 0.43684 0.69078 0.0
H292 H 0.17189 0.46031 0.60445 0.0
H293 H 0.139 0.38875 0.54227 0.0
H294 H 0.11606 0.29373 0.56556 0.0
C295 C 0.09111 0.21105 0.62516 0.0
C296 C 0.12341 0.25211 0.65885 0.0
C297 C 0.13612 0.30754 0.64404 0.0
C298 C 0.15269 0.34926 0.67998 0.0
C299 C 0.16621 0.40419 0.66475 0.0
C300 C 0.16158 0.41803 0.61546 0.0
C301 C 0.1432 0.37771 0.58047 0.0
C302 C 0.13033 0.32311 0.59438 0.0
H303 H 0.70192 0.97723 0.82602 0.0
C304 C 0.68693 0.01608 0.84121 0.0
H305 H 0.70367 0.10311 0.84409 0.0
H306 H 0.93594 0.97715 0.73267 0.0
H307 H 0.96789 0.95787 0.81577 0.0
H308 H 0.90719 0.98617 0.88835 0.0
H309 H 0.8148 0.03536 0.87825 0.0
C310 C 0.71915 0.06368 0.83095 0.0
C311 C 0.76601 0.06314 0.79112 0.0
C312 C 0.81983 0.03532 0.7977 0.0
C313 C 0.85412 0.01849 0.75593 0.0
C314 C 0.90765 0.99018 0.7633 0.0
C315 C 0.9265 0.97896 0.81072 0.0
C316 C 0.89244 0.9951 0.85162 0.0
C317 C 0.83952 0.02291 0.84539 0.0
H318 H 0.90137 0.06955 0.63101 0.0
C319 C 0.89371 0.02477 0.62997 0.0
H320 H 0.85494 0.95427 0.66594 0.0
H321 H 0.67341 0.128 0.76767 0.0
H322 H 0.64347 0.15129 0.6853 0.0
H323 H 0.69938 0.11786 0.61203 0.0
H324 H 0.7856 0.06168 0.62067 0.0
C325 C 0.86012 0.99916 0.66542 0.0
C326 C 0.83385 0.0292 0.7079 0.0
C327 C 0.78368 0.06234 0.70158 0.0
C328 C 0.75047 0.08041 0.74364 0.0
C329 C 0.69983 0.11272 0.73686 0.0
C330 C 0.6822 0.12644 0.6898 0.0
C331 C 0.71375 0.10771 0.64858 0.0
C332 C 0.7636 0.07568 0.65413 0.0
H333 H 0.08983 0.31807 0.01917 0.0
C334 C 0.12349 0.35196 0.01167 0.0
H335 H 0.21608 0.37839 0.0018 0.0
H336 H 0.25127 0.12106 0.07214 0.0
H337 H 0.19766 0.14318 0.14836 0.0
H338 H 0.1489 0.23146 0.15914 0.0
H339 H 0.1536 0.29849 0.09389 0.0
C340 C 0.18374 0.34337 0.00922 0.0
C341 C 0.20825 0.28749 0.00313 0.0
C342 C 0.20616 0.24922 0.04203 0.0
C343 C 0.23621 0.1989 0.03643 0.0
C344 C 0.23135 0.16063 0.07513 0.0
C345 C 0.2002 0.17258 0.11887 0.0
C346 C 0.17273 0.22233 0.12495 0.0
C347 C 0.17558 0.26039 0.08713 0.0
H348 H 0.36277 0.15367 0.04859 0.0
C349 C 0.35475 0.12953 0.01475 0.0
H350 H 0.3001 0.11314 0.95277 0.0
H351 H 0.21551 0.34832 0.91887 0.0
H352 H 0.27406 0.32921 0.84489 0.0
H353 H 0.33196 0.24571 0.8373 0.0
H354 H 0.33214 0.18127 0.90357 0.0
C355 C 0.30607 0.13762 0.9867 0.0
C356 C 0.2703 0.18791 -0.00732 0.0
C357 C 0.27146 0.2259 0.95348 0.0
C358 C 0.23965 0.27503 0.95842 0.0
C359 C 0.24053 0.31135 0.91807 0.0
C360 C 0.27367 0.30075 0.87509 0.0
C361 C 0.30607 0.25369 0.87075 0.0
C362 C 0.30528 0.2167 0.90925 0.0
H363 H 0.23851 0.56765 0.03898 0.0
C364 C 0.19845 0.5823 0.02155 0.0
H365 H 0.16179 0.64332 0.97936 0.0
H366 H 0.4355 0.7592 0.04682 0.0
H367 H 0.40748 0.73783 0.13162 0.0
H368 H 0.30928 0.68631 0.15116 0.0
H369 H 0.24046 0.65351 0.08631 0.0
C370 C 0.20289 0.62894 -0.00443 0.0
C371 C 0.2617 0.66209 0.98592 0.0
C372 C 0.2987 0.68475 0.02515 0.0
C373 C 0.35214 0.71946 0.01447 0.0
C374 C 0.39207 0.73631 0.05348 0.0
C375 C 0.37684 0.72388 0.10218 0.0
C376 C 0.32179 0.69456 0.11313 0.0
C377 C 0.28295 0.67525 0.07528 0.0
H378 H 0.37726 0.83738 0.01134 0.0
C379 C 0.40838 0.83321 0.98006 0.0
H380 H 0.4421 0.78084 0.92475 0.0
H381 H 0.20695 0.61961 0.90185 0.0
H382 H 0.22995 0.64765 0.81808 0.0
H383 H 0.31365 0.71818 0.8007 0.0
H384 H 0.37525 0.76006 0.86653 0.0
C385 C 0.41035 0.78438 0.95565 0.0
C386 C 0.36411 0.73748 0.9656 0.0
C387 C 0.32783 0.71411 0.92632 0.0
C388 C 0.27778 0.67526 0.93647 0.0
C389 C 0.24378 0.65098 0.89644 0.0
C390 C 0.25682 0.66637 0.84809 0.0
C391 C 0.30401 0.70594 0.83832 0.0
C392 C 0.33923 0.72962 0.87671 0.0
H393 H 0.63761 0.17556 0.97639 0.0
C394 C 0.60354 0.17976 0.00557 0.0
H395 H 0.56154 0.23285 0.05592 0.0
H396 H 0.7887 0.40487 0.08076 0.0
H397 H 0.75498 0.38766 0.16492 0.0
H398 H 0.67007 0.31853 0.18261 0.0
H399 H 0.61705 0.26772 0.11657 0.0
C400 C 0.59631 0.22941 0.02725 0.0
C401 C 0.6401 0.27798 0.01683 0.0
C402 C 0.67125 0.30659 0.05639 0.0
C403 C 0.72191 0.34484 0.04637 0.0
C404 C 0.75116 0.37413 0.08636 0.0
C405 C 0.73215 0.36484 0.13486 0.0
C406 C 0.68424 0.32604 0.1448 0.0
C407 C 0.65409 0.29707 0.10628 0.0
H408 H 0.77221 0.44107 0.93867 0.0
C409 C 0.81064 0.42775 0.95921 0.0
H410 H 0.84235 0.37081 0.00853 0.0
H411 H 0.57609 0.24814 0.93338 0.0
H412 H 0.61135 0.26195 0.84881 0.0
H413 H 0.71082 0.31242 0.83135 0.0
H414 H 0.77358 0.3517 0.89763 0.0
C415 C 0.80318 0.38409 0.98879 0.0
C416 C 0.74323 0.35247 -0.00283 0.0
C417 C 0.71011 0.32586 0.95748 0.0
C418 C 0.65612 0.29172 0.96749 0.0
C419 C 0.61982 0.27086 0.92751 0.0
C420 C 0.63923 0.2789 0.87894 0.0
C421 C 0.695 0.30762 0.86913 0.0
C422 C 0.73031 0.33071 0.90774 0.0
H423 H 0.92046 0.68859 0.96749 0.0
C424 C 0.88683 0.65376 0.97091 0.0
H425 H 0.79428 0.62546 0.97414 0.0
H426 H 0.66582 0.81114 0.07989 0.0
H427 H 0.65859 0.73886 0.13955 0.0
H428 H 0.71748 0.6563 0.12844 0.0
H429 H 0.78385 0.64573 0.05741 0.0
C430 C 0.82638 0.66152 0.97079 0.0
C431 C 0.80051 0.71652 0.97997 0.0
C432 C 0.76416 0.72372 0.02323 0.0
C433 C 0.73216 0.77246 0.03065 0.0
C434 C 0.69329 0.77637 0.07286 0.0
C435 C 0.68816 0.7348 0.10748 0.0
C436 C 0.72104 0.68825 0.10111 0.0
C437 C 0.75878 0.68263 0.0598 0.0
H438 H 0.65567 0.86353 0.93796 0.0
C439 C 0.65984 0.88118 0.97505 0.0
H440 H 0.70666 0.88519 0.04188 0.0
H441 H 0.86464 0.71624 0.89254 0.0
H442 H 0.87904 0.79206 0.83576 0.0
H443 H 0.83163 0.88008 0.8526 0.0
H444 H 0.76883 0.89274 0.92604 0.0
C445 C 0.70392 0.86617 0.00517 0.0
C446 C 0.7385 0.81557 -0.00409 0.0
C447 C 0.77759 0.80977 0.954 0.0
C448 C 0.8074 0.75968 0.9454 0.0
C449 C 0.84291 0.75392 0.90179 0.0
C450 C 0.85131 0.79705 0.86877 0.0
C451 C 0.82449 0.84661 0.8782 0.0
C452 C 0.78812 0.85317 0.92029 0.0
loop_
_geom_bond_atom_site_label_1
_geom_bond_atom_site_label_2
_geom_bond_distance
_geom_bond_site_symmetry_2
_ccdc_geom_bond_type
C0 O12 1.241 . S
C0 O13 1.280 1_455 S
C1 O14 1.277 1_655 S
C1 O15 1.245 . S
C2 O26 1.247 . S
C2 O28 1.289 1_545 S
Mg3 O4 1.926 . S
Mg3 O13 1.984 . S
Mg3 O15 1.988 . S
Mg3 O16 2.061 . S
O4 Mg3 1.926 . S
O4 Mg5 1.986 1_655 S
O4 Mg6 1.917 1_665 S
Mg5 O4 1.986 1_455 S
Mg5 O12 2.042 . S
Mg5 O14 2.041 . S
Mg5 O20 2.038 . S
Mg5 O28 2.238 . S
Mg6 O4 1.917 1_445 S
Mg6 O7 1.917 . S
Mg6 O17 2.106 1_455 S
Mg6 O19 2.079 . S
Mg6 O28 2.106 1_545 S
Mg6 O29 2.079 1_445 S
O7 Mg6 1.917 . S
O7 Mg8 1.926 . S
O7 Mg9 1.986 1_455 S
Mg8 O7 1.926 . S
Mg8 O22 1.984 . S
Mg8 O25 1.988 . S
Mg8 O26 2.061 . S
Mg9 O7 1.986 1_655 S
Mg9 O17 2.238 . S
Mg9 O21 2.042 . S
Mg9 O23 2.041 . S
Mg9 O30 2.038 . S
C10 O16 1.247 . S
C10 O17 1.289 1_565 S
C11 O29 1.245 1_545 S
C11 O30 1.274 . S
O12 C0 1.241 . S
O12 Mg5 2.042 . S
O13 C0 1.280 1_655 S
O13 Mg3 1.984 . S
O14 C1 1.277 1_455 S
O14 Mg5 2.041 . S
O15 C1 1.245 . S
O15 Mg3 1.988 . S
O16 Mg3 2.061 . S
O16 C10 1.247 . S
O17 Mg6 2.106 1_655 S
O17 Mg9 2.238 . S
O17 C10 1.289 1_545 S
C18 O19 1.245 1_565 S
C18 O20 1.274 . S
O19 Mg6 2.079 . S
O19 C18 1.245 1_545 S
O20 Mg5 2.038 . S
O20 C18 1.274 . S
O21 Mg9 2.042 . S
O21 C24 1.241 . S
O22 Mg8 1.984 . S
O22 C24 1.280 1_455 S
O23 Mg9 2.041 . S
O23 C27 1.277 1_655 S
C24 O21 1.241 . S
C24 O22 1.280 1_655 S
O25 Mg8 1.988 . S
O25 C27 1.245 . S
O26 C2 1.247 . S
O26 Mg8 2.061 . S
C27 O23 1.277 1_455 S
C27 O25 1.245 . S
O28 C2 1.289 1_565 S
O28 Mg5 2.238 . S
O28 Mg6 2.106 1_565 S
O29 Mg6 2.079 1_665 S
O29 C11 1.245 1_565 S
O30 Mg9 2.038 . S
O30 C11 1.274 . S
C31 O43 1.241 . S
C31 O44 1.280 1_565 S
C32 O45 1.277 1_545 S
C32 O46 1.245 . S
C33 O57 1.247 . S
C33 O59 1.289 1_556 S
Mg34 O35 1.926 . S
Mg34 O44 1.984 . S
Mg34 O46 1.988 . S
Mg34 O47 2.061 . S
O35 Mg34 1.926 . S
O35 Mg36 1.986 1_545 S
O35 Mg37 1.917 . S
Mg36 O35 1.986 1_565 S
Mg36 O43 2.042 . S
Mg36 O45 2.041 . S
Mg36 O51 2.038 . S
Mg36 O59 2.238 . S
Mg37 O35 1.917 . S
Mg37 O38 1.917 1_544 S
Mg37 O48 2.106 1_554 S
Mg37 O50 2.079 1_544 S
Mg37 O59 2.106 1_545 S
Mg37 O60 2.079 . S
O38 Mg37 1.917 1_566 S
O38 Mg39 1.926 . S
O38 Mg40 1.986 1_565 S
Mg39 O38 1.926 . S
Mg39 O53 1.984 . S
Mg39 O56 1.988 . S
Mg39 O57 2.061 . S
Mg40 O38 1.986 1_545 S
Mg40 O48 2.238 . S
Mg40 O52 2.042 . S
Mg40 O54 2.041 . S
Mg40 O61 2.038 . S
C41 O47 1.247 . S
C41 O48 1.289 1_554 S
C42 O60 1.245 1_556 S
C42 O61 1.274 . S
O43 C31 1.241 . S
O43 Mg36 2.042 . S
O44 C31 1.280 1_545 S
O44 Mg34 1.984 . S
O45 C32 1.277 1_565 S
O45 Mg36 2.041 . S
O46 C32 1.245 . S
O46 Mg34 1.988 . S
O47 Mg34 2.061 . S
O47 C41 1.247 . S
O48 Mg37 2.106 1_556 S
O48 Mg40 2.238 . S
O48 C41 1.289 1_556 S
C49 O50 1.245 1_554 S
C49 O51 1.274 . S
O50 Mg37 2.079 1_566 S
O50 C49 1.245 1_556 S
O51 Mg36 2.038 . S
O51 C49 1.274 . S
O52 Mg40 2.042 . S
O52 C55 1.241 . S
O53 Mg39 1.984 . S
O53 C55 1.280 1_565 S
O54 Mg40 2.041 . S
O54 C58 1.277 1_545 S
C55 O52 1.241 . S
C55 O53 1.280 1_545 S
O56 Mg39 1.988 . S
O56 C58 1.245 . S
O57 C33 1.247 . S
O57 Mg39 2.061 . S
C58 O54 1.277 1_565 S
C58 O56 1.245 . S
O59 C33 1.289 1_554 S
O59 Mg36 2.238 . S
O59 Mg37 2.106 1_565 S
O60 Mg37 2.079 . S
O60 C42 1.245 1_554 S
O61 Mg40 2.038 . S
O61 C42 1.274 . S
C62 O74 1.241 . S
C62 O75 1.280 1_455 S
C63 O76 1.277 1_655 S
C63 O77 1.245 . S
C64 O88 1.247 . S
C64 O90 1.289 1_554 S
Mg65 O66 1.926 . S
Mg65 O75 1.984 . S
Mg65 O77 1.988 . S
Mg65 O78 2.061 . S
O66 Mg65 1.926 . S
O66 Mg67 1.986 1_655 S
O66 Mg68 1.917 1_656 S
Mg67 O66 1.986 1_455 S
Mg67 O74 2.042 . S
Mg67 O76 2.041 . S
Mg67 O82 2.038 . S
Mg67 O90 2.238 . S
Mg68 O66 1.917 1_454 S
Mg68 O69 1.917 . S
Mg68 O79 2.106 1_455 S
Mg68 O81 2.079 . S
Mg68 O90 2.106 1_554 S
Mg68 O91 2.079 1_454 S
O69 Mg68 1.917 . S
O69 Mg70 1.926 . S
O69 Mg71 1.986 1_455 S
Mg70 O69 1.926 . S
Mg70 O84 1.984 . S
Mg70 O87 1.988 . S
Mg70 O88 2.061 . S
Mg71 O69 1.986 1_655 S
Mg71 O79 2.238 . S
Mg71 O83 2.042 . S
Mg71 O85 2.041 . S
Mg71 O92 2.038 . S
C72 O78 1.247 . S
C72 O79 1.289 1_556 S
C73 O91 1.245 1_554 S
C73 O92 1.274 . S
O74 C62 1.241 . S
O74 Mg67 2.042 . S
O75 C62 1.280 1_655 S
O75 Mg65 1.984 . S
O76 C63 1.277 1_455 S
O76 Mg67 2.041 . S
O77 C63 1.245 . S
O77 Mg65 1.988 . S
O78 Mg65 2.061 . S
O78 C72 1.247 . S
O79 Mg68 2.106 1_655 S
O79 Mg71 2.238 . S
O79 C72 1.289 1_554 S
C80 O81 1.245 1_556 S
C80 O82 1.274 . S
O81 Mg68 2.079 . S
O81 C80 1.245 1_554 S
O82 Mg67 2.038 . S
O82 C80 1.274 . S
O83 Mg71 2.042 . S
O83 C86 1.241 . S
O84 Mg70 1.984 . S
O84 C86 1.280 1_455 S
O85 Mg71 2.041 . S
O85 C89 1.277 1_655 S
C86 O83 1.241 . S
C86 O84 1.280 1_655 S
O87 Mg70 1.988 . S
O87 C89 1.245 . S
O88 C64 1.247 . S
O88 Mg70 2.061 . S
C89 O85 1.277 1_455 S
C89 O87 1.245 . S
O90 C64 1.289 1_556 S
O90 Mg67 2.238 . S
O90 Mg68 2.106 1_556 S
O91 Mg68 2.079 1_656 S
O91 C73 1.245 1_556 S
O92 Mg71 2.038 . S
O92 C73 1.274 . S
H93 C94 0.951 . S
C94 H93 0.951 . S
C94 C100 1.265 1_455 S
H95 C100 0.950 . S
H96 C104 0.949 . S
H97 C105 0.950 . S
H98 C106 0.951 . S
H99 C107 0.951 . S
C100 C94 1.265 1_655 S
C100 H95 0.950 . S
C100 C101 1.478 . S
C101 C100 1.478 . S
C101 C102 1.397 . S
C101 C118 1.394 . S
C102 C101 1.397 . S
C102 C103 1.441 . S
C102 C107 1.429 . S
C103 C102 1.441 . S
C103 C104 1.424 1_655 S
C103 C116 1.394 . S
C104 H96 0.949 . S
C104 C103 1.424 1_455 S
C104 C105 1.345 . S
C105 H97 0.950 . S
C105 C104 1.345 . S
C105 C106 1.422 1_455 S
C106 H98 0.951 . S
C106 C105 1.422 1_655 S
C106 C107 1.349 . S
C107 H99 0.951 . S
C107 C102 1.429 . S
C107 C106 1.349 . S
H108 C109 0.951 . S
C109 H108 0.951 . S
C109 C115 1.265 1_655 S
H110 C115 0.950 . S
H111 C119 0.949 . S
H112 C120 0.950 . S
H113 C121 0.951 . S
H114 C122 0.951 . S
C115 C109 1.265 1_455 S
C115 H110 0.950 . S
C115 C116 1.478 1_455 S
C116 C103 1.394 . S
C116 C115 1.478 1_655 S
C116 C117 1.397 . S
C117 C116 1.397 . S
C117 C118 1.438 . S
C117 C122 1.429 . S
C118 C101 1.394 . S
C118 C117 1.438 . S
C118 C119 1.428 . S
C119 H111 0.949 . S
C119 C118 1.428 . S
C119 C120 1.345 . S
C120 H112 0.950 . S
C120 C119 1.345 . S
C120 C121 1.424 . S
C121 H113 0.951 . S
C121 C120 1.424 . S
C121 C122 1.347 . S
C122 H114 0.951 . S
C122 C117 1.429 . S
C122 C121 1.347 . S
H123 C124 0.952 . S
C124 H123 0.952 . S
C124 C130 1.264 . S
H125 C130 0.949 . S
H126 C134 0.949 . S
H127 C135 0.950 . S
H128 C136 0.951 . S
H129 C137 0.951 . S
C130 C124 1.264 . S
C130 H125 0.949 . S
C130 C131 1.478 . S
C131 C130 1.478 . S
C131 C132 1.397 1_565 S
C131 C148 1.394 . S
C132 C131 1.397 1_545 S
C132 C133 1.438 . S
C132 C137 1.429 . S
C133 C132 1.438 . S
C133 C134 1.428 . S
C133 C146 1.394 1_545 S
C134 H126 0.949 . S
C134 C133 1.428 . S
C134 C135 1.345 . S
C135 H127 0.950 . S
C135 C134 1.345 . S
C135 C136 1.424 . S
C136 H128 0.951 . S
C136 C135 1.424 . S
C136 C137 1.347 . S
C137 H129 0.951 . S
C137 C132 1.429 . S
C137 C136 1.347 . S
H138 C139 0.951 . S
C139 H138 0.951 . S
C139 C145 1.265 . S
H140 C145 0.950 . S
H141 C149 0.949 . S
H142 C150 0.950 . S
H143 C151 0.951 . S
H144 C152 0.951 . S
C145 C139 1.265 . S
C145 H140 0.950 . S
C145 C146 1.478 . S
C146 C133 1.394 1_565 S
C146 C145 1.478 . S
C146 C147 1.397 . S
C147 C146 1.397 . S
C147 C148 1.438 . S
C147 C152 1.429 . S
C148 C131 1.394 . S
C148 C147 1.438 . S
C148 C149 1.428 . S
C149 H141 0.949 . S
C149 C148 1.428 . S
C149 C150 1.345 . S
C150 H142 0.950 . S
C150 C149 1.345 . S
C150 C151 1.424 . S
C151 H143 0.951 . S
C151 C150 1.424 . S
C151 C152 1.347 . S
C152 H144 0.951 . S
C152 C147 1.429 . S
C152 C151 1.347 . S
H153 C154 0.951 . S
C154 H153 0.951 . S
C154 C160 1.265 . S
H155 C160 0.950 . S
H156 C164 0.949 . S
H157 C165 0.950 . S
H158 C166 0.951 . S
H159 C167 0.951 . S
C160 C154 1.265 . S
C160 H155 0.950 . S
C160 C161 1.478 . S
C161 C160 1.478 . S
C161 C162 1.397 . S
C161 C178 1.394 1_655 S
C162 C161 1.397 . S
C162 C163 1.438 . S
C162 C167 1.429 . S
C163 C162 1.438 . S
C163 C164 1.428 . S
C163 C176 1.394 . S
C164 H156 0.949 . S
C164 C163 1.428 . S
C164 C165 1.345 . S
C165 H157 0.950 . S
C165 C164 1.345 . S
C165 C166 1.424 . S
C166 H158 0.951 . S
C166 C165 1.424 . S
C166 C167 1.347 . S
C167 H159 0.951 . S
C167 C162 1.429 . S
C167 C166 1.347 . S
H168 C169 0.951 . S
C169 H168 0.951 . S
C169 C175 1.265 . S
H170 C175 0.950 . S
H171 C179 0.949 . S
H172 C180 0.950 . S
H173 C181 0.951 . S
H174 C182 0.951 . S
C175 C169 1.265 . S
C175 H170 0.950 . S
C175 C176 1.478 . S
C176 C163 1.394 . S
C176 C175 1.478 . S
C176 C177 1.397 1_655 S
C177 C176 1.397 1_455 S
C177 C178 1.438 . S
C177 C182 1.429 . S
C178 C161 1.394 1_455 S
C178 C177 1.438 . S
C178 C179 1.428 . S
C179 H171 0.949 . S
C179 C178 1.428 . S
C179 C180 1.345 . S
C180 H172 0.950 . S
C180 C179 1.345 . S
C180 C181 1.424 . S
C181 H173 0.951 . S
C181 C180 1.424 . S
C181 C182 1.347 . S
C182 H174 0.951 . S
C182 C177 1.429 . S
C182 C181 1.347 . S
H183 C184 0.951 . S
C184 H183 0.951 . S
C184 C190 1.265 . S
H185 C190 0.950 1_565 S
H186 C194 0.949 . S
H187 C195 0.950 . S
H188 C196 0.951 . S
H189 C197 0.951 . S
C190 C184 1.265 . S
C190 H185 0.950 1_545 S
C190 C191 1.478 . S
C191 C190 1.478 . S
C191 C192 1.397 1_545 S
C191 C208 1.394 . S
C192 C191 1.397 1_565 S
C192 C193 1.438 . S
C192 C197 1.429 . S
C193 C192 1.438 . S
C193 C194 1.428 . S
C193 C206 1.394 1_565 S
C194 H186 0.949 . S
C194 C193 1.428 . S
C194 C195 1.345 . S
C195 H187 0.950 . S
C195 C194 1.345 . S
C195 C196 1.424 . S
C196 H188 0.951 . S
C196 C195 1.424 . S
C196 C197 1.347 . S
C197 H189 0.951 . S
C197 C192 1.429 . S
C197 C196 1.347 . S
H198 C199 0.951 . S
C199 H198 0.951 . S
C199 C205 1.265 1_565 S
H200 C205 0.950 . S
H201 C209 0.949 . S
H202 C210 0.950 . S
H203 C211 0.951 . S
H204 C212 0.951 . S
C205 C199 1.265 1_545 S
C205 H200 0.950 . S
C205 C206 1.478 . S
C206 C193 1.394 1_545 S
C206 C205 1.478 . S
C206 C207 1.397 . S
C207 C206 1.397 . S
C207 C208 1.438 . S
C207 C212 1.429 . S
C208 C191 1.394 . S
C208 C207 1.438 . S
C208 C209 1.428 . S
C209 H201 0.949 . S
C209 C208 1.428 . S
C209 C210 1.345 . S
C210 H202 0.950 . S
C210 C209 1.345 . S
C210 C211 1.424 . S
C211 H203 0.951 . S
C211 C210 1.424 . S
C211 C212 1.347 . S
C212 H204 0.951 . S
C212 C207 1.429 . S
C212 C211 1.347 . S
H213 C214 0.951 1_655 S
C214 H213 0.951 1_455 S
C214 C220 1.265 . S
H215 C220 0.950 . S
H216 C224 0.953 . S
H217 C225 0.950 . S
H218 C226 0.951 . S
H219 C227 0.951 . S
C220 C214 1.265 . S
C220 H215 0.950 . S
C220 C221 1.478 . S
C221 C220 1.478 . S
C221 C222 1.397 . S
C221 C238 1.394 . S
C222 C221 1.397 . S
C222 C223 1.438 . S
C222 C227 1.429 . S
C223 C222 1.438 . S
C223 C224 1.427 1_455 S
C223 C236 1.394 1_455 S
C224 H216 0.953 . S
C224 C223 1.427 1_655 S
C224 C225 1.342 1_655 S
C225 H217 0.950 . S
C225 C224 1.342 1_455 S
C225 C226 1.424 . S
C226 H218 0.951 . S
C226 C225 1.424 . S
C226 C227 1.347 . S
C227 H219 0.951 . S
C227 C222 1.429 . S
C227 C226 1.347 . S
H228 C229 0.951 . S
C229 H228 0.951 . S
C229 C235 1.265 1_455 S
H230 C235 0.950 . S
H231 C239 0.949 . S
H232 C240 0.950 . S
H233 C241 0.951 . S
H234 C242 0.951 . S
C235 C229 1.265 1_655 S
C235 H230 0.950 . S
C235 C236 1.478 . S
C236 C223 1.394 1_655 S
C236 C235 1.478 . S
C236 C237 1.397 . S
C237 C236 1.397 . S
C237 C238 1.438 1_655 S
C237 C242 1.429 . S
C238 C221 1.394 . S
C238 C237 1.438 1_455 S
C238 C239 1.428 . S
C239 H231 0.949 . S
C239 C238 1.428 . S
C239 C240 1.345 . S
C240 H232 0.950 . S
C240 C239 1.345 . S
C240 C241 1.424 1_455 S
C241 H233 0.951 . S
C241 C240 1.424 1_655 S
C241 C242 1.347 . S
C242 H234 0.951 . S
C242 C237 1.429 . S
C242 C241 1.347 . S
H243 C244 0.951 . S
C244 H243 0.951 . S
C244 C250 1.265 . S
H245 C250 0.950 . S
H246 C254 0.949 . S
H247 C255 0.950 . S
H248 C256 0.951 . S
H249 C257 0.951 . S
C250 C244 1.265 . S
C250 H245 0.950 . S
C250 C251 1.478 . S
C251 C250 1.478 . S
C251 C252 1.397 1_545 S
C251 C268 1.394 . S
C252 C251 1.397 1_565 S
C252 C253 1.438 . S
C252 C257 1.429 . S
C253 C252 1.438 . S
C253 C254 1.428 . S
C253 C266 1.394 1_565 S
C254 H246 0.949 . S
C254 C253 1.428 . S
C254 C255 1.345 . S
C255 H247 0.950 . S
C255 C254 1.345 . S
C255 C256 1.424 . S
C256 H248 0.951 . S
C256 C255 1.424 . S
C256 C257 1.347 . S
C257 H249 0.951 . S
C257 C252 1.429 . S
C257 C256 1.347 . S
H258 C259 0.951 1_565 S
C259 H258 0.951 1_545 S
C259 C265 1.265 . S
H260 C265 0.950 . S
H261 C269 0.949 . S
H262 C270 0.950 . S
H263 C271 0.951 . S
H264 C272 0.951 . S
C265 C259 1.265 . S
C265 H260 0.950 . S
C265 C266 1.478 . S
C266 C253 1.394 1_545 S
C266 C265 1.478 . S
C266 C267 1.397 . S
C267 C266 1.397 . S
C267 C268 1.438 . S
C267 C272 1.429 . S
C268 C251 1.394 . S
C268 C267 1.438 . S
C268 C269 1.428 . S
C269 H261 0.949 . S
C269 C268 1.428 . S
C269 C270 1.345 . S
C270 H262 0.950 . S
C270 C269 1.345 . S
C270 C271 1.424 . S
C271 H263 0.951 . S
C271 C270 1.424 . S
C271 C272 1.347 . S
C272 H264 0.951 . S
C272 C267 1.429 . S
C272 C271 1.347 . S
H273 C274 0.951 1_655 S
C274 H273 0.951 1_455 S
C274 C280 1.265 . S
H275 C280 0.950 . S
H276 C284 0.949 . S
H277 C285 0.950 . S
H278 C286 0.951 . S
H279 C287 0.951 . S
C280 C274 1.265 . S
C280 H275 0.950 . S
C280 C281 1.478 . S
C281 C280 1.478 . S
C281 C282 1.397 . S
C281 C298 1.394 . S
C282 C281 1.397 . S
C282 C283 1.438 . S
C282 C287 1.429 . S
C283 C282 1.438 . S
C283 C284 1.428 . S
C283 C296 1.394 . S
C284 H276 0.949 . S
C284 C283 1.428 . S
C284 C285 1.345 . S
C285 H277 0.950 . S
C285 C284 1.345 . S
C285 C286 1.424 . S
C286 H278 0.951 . S
C286 C285 1.424 . S
C286 C287 1.347 . S
C287 H279 0.951 . S
C287 C282 1.429 . S
C287 C286 1.347 . S
H288 C289 0.951 . S
C289 H288 0.951 . S
C289 C295 1.265 1_455 S
H290 C295 0.950 . S
H291 C299 0.946 1_455 S
H292 C300 0.950 . S
H293 C301 0.951 . S
H294 C302 0.951 . S
C295 C289 1.265 1_655 S
C295 H290 0.950 . S
C295 C296 1.478 1_655 S
C296 C283 1.394 . S
C296 C295 1.478 1_455 S
C296 C297 1.397 1_455 S
C297 C296 1.397 1_655 S
C297 C298 1.438 1_655 S
C297 C302 1.429 . S
C298 C281 1.394 . S
C298 C297 1.438 1_455 S
C298 C299 1.424 1_455 S
C299 H291 0.946 1_655 S
C299 C298 1.424 1_655 S
C299 C300 1.352 . S
C300 H292 0.950 . S
C300 C299 1.352 . S
C300 C301 1.424 . S
C301 H293 0.951 . S
C301 C300 1.424 . S
C301 C302 1.347 . S
C302 H294 0.951 . S
C302 C297 1.429 . S
C302 C301 1.347 . S
H303 C304 0.951 . S
C304 H303 0.951 . S
C304 C310 1.265 . S
H305 C310 0.950 1_545 S
H306 C314 0.949 . S
H307 C315 0.950 . S
H308 C316 0.951 . S
H309 C317 0.951 . S
C310 C304 1.265 . S
C310 H305 0.950 1_565 S
C310 C311 1.478 . S
C311 C310 1.478 . S
C311 C312 1.397 . S
C311 C328 1.394 1_565 S
C312 C311 1.397 . S
C312 C313 1.438 . S
C312 C317 1.429 . S
C313 C312 1.438 . S
C313 C314 1.428 . S
C313 C326 1.394 . S
C314 H306 0.949 . S
C314 C313 1.428 . S
C314 C315 1.345 . S
C315 H307 0.950 . S
C315 C314 1.345 . S
C315 C316 1.424 . S
C316 H308 0.951 . S
C316 C315 1.424 . S
C316 C317 1.347 . S
C317 H309 0.951 . S
C317 C312 1.429 . S
C317 C316 1.347 . S
H318 C319 0.951 . S
C319 H318 0.951 . S
C319 C325 1.265 1_545 S
H320 C325 0.950 . S
H321 C329 0.949 . S
H322 C330 0.950 . S
H323 C331 0.951 . S
H324 C332 0.951 . S
C325 C319 1.265 1_565 S
C325 H320 0.950 . S
C325 C326 1.478 . S
C326 C313 1.394 . S
C326 C325 1.478 . S
C326 C327 1.397 1_565 S
C327 C326 1.397 1_545 S
C327 C328 1.438 . S
C327 C332 1.429 . S
C328 C311 1.394 1_545 S
C328 C327 1.438 . S
C328 C329 1.428 . S
C329 H321 0.949 . S
C329 C328 1.428 . S
C329 C330 1.345 . S
C330 H322 0.950 . S
C330 C329 1.345 . S
C330 C331 1.424 . S
C331 H323 0.951 . S
C331 C330 1.424 . S
C331 C332 1.347 . S
C332 H324 0.951 . S
C332 C327 1.429 . S
C332 C331 1.347 . S
H333 C334 0.951 . S
C334 H333 0.951 . S
C334 C340 1.265 . S
H335 C340 0.948 1_554 S
H336 C344 0.949 . S
H337 C345 0.950 . S
H338 C346 0.951 . S
H339 C347 0.951 . S
C340 C334 1.265 . S
C340 H335 0.948 1_556 S
C340 C341 1.478 . S
C341 C340 1.478 . S
C341 C342 1.397 1_556 S
C341 C358 1.394 . S
C342 C341 1.397 1_554 S
C342 C343 1.438 . S
C342 C347 1.429 . S
C343 C342 1.438 . S
C343 C344 1.428 . S
C343 C356 1.394 1_554 S
C344 H336 0.949 . S
C344 C343 1.428 . S
C344 C345 1.345 . S
C345 H337 0.950 . S
C345 C344 1.345 . S
C345 C346 1.424 . S
C346 H338 0.951 . S
C346 C345 1.424 . S
C346 C347 1.347 . S
C347 H339 0.951 . S
C347 C342 1.429 . S
C347 C346 1.347 . S
H348 C349 0.951 . S
C349 H348 0.951 . S
C349 C355 1.265 . S
H350 C355 0.950 . S
H351 C359 0.949 . S
H352 C360 0.950 . S
H353 C361 0.951 . S
H354 C362 0.951 . S
C355 C349 1.265 . S
C355 H350 0.950 . S
C355 C356 1.478 . S
C356 C343 1.394 1_556 S
C356 C355 1.478 . S
C356 C357 1.397 . S
C357 C356 1.397 . S
C357 C358 1.438 . S
C357 C362 1.429 . S
C358 C341 1.394 . S
C358 C357 1.438 . S
C358 C359 1.428 . S
C359 H351 0.949 . S
C359 C358 1.428 . S
C359 C360 1.345 . S
C360 H352 0.950 . S
C360 C359 1.345 . S
C360 C361 1.424 . S
C361 H353 0.951 . S
C361 C360 1.424 . S
C361 C362 1.347 . S
C362 H354 0.951 . S
C362 C357 1.429 . S
C362 C361 1.347 . S
H363 C364 0.951 . S
C364 H363 0.951 . S
C364 C370 1.264 1_556 S
H365 C370 0.951 . S
H366 C374 0.949 . S
H367 C375 0.950 . S
H368 C376 0.951 . S
H369 C377 0.951 . S
C370 C364 1.264 1_554 S
C370 H365 0.951 . S
C370 C371 1.478 1_554 S
C371 C370 1.478 1_556 S
C371 C372 1.390 1_556 S
C371 C388 1.401 . S
C372 C371 1.390 1_554 S
C372 C373 1.438 . S
C372 C377 1.429 . S
C373 C372 1.438 . S
C373 C374 1.428 . S
C373 C386 1.381 1_554 S
C374 H366 0.949 . S
C374 C373 1.428 . S
C374 C375 1.345 . S
C375 H367 0.950 . S
C375 C374 1.345 . S
C375 C376 1.424 . S
C376 H368 0.951 . S
C376 C375 1.424 . S
C376 C377 1.347 . S
C377 H369 0.951 . S
C377 C372 1.429 . S
C377 C376 1.347 . S
H378 C379 0.951 . S
C379 H378 0.951 . S
C379 C385 1.265 1_554 S
H380 C385 0.950 . S
H381 C389 0.949 . S
H382 C390 0.950 . S
H383 C391 0.951 . S
H384 C392 0.951 . S
C385 C379 1.265 1_556 S
C385 H380 0.950 . S
C385 C386 1.478 . S
C386 C373 1.381 1_556 S
C386 C385 1.478 . S
C386 C387 1.410 . S
C387 C386 1.410 . S
C387 C388 1.438 . S
C387 C392 1.429 . S
C388 C371 1.401 . S
C388 C387 1.438 . S
C388 C389 1.428 . S
C389 H381 0.949 . S
C389 C388 1.428 . S
C389 C390 1.345 . S
C390 H382 0.950 . S
C390 C389 1.345 . S
C390 C391 1.424 . S
C391 H383 0.951 . S
C391 C390 1.424 . S
C391 C392 1.347 . S
C392 H384 0.951 . S
C392 C387 1.429 . S
C392 C391 1.347 . S
H393 C394 0.951 . S
C394 H393 0.951 . S
C394 C400 1.265 1_556 S
H395 C400 0.950 . S
H396 C404 0.949 . S
H397 C405 0.950 . S
H398 C406 0.951 . S
H399 C407 0.951 . S
C400 C394 1.265 1_554 S
C400 H395 0.950 . S
C400 C401 1.478 . S
C401 C400 1.478 . S
C401 C402 1.397 . S
C401 C418 1.394 1_554 S
C402 C401 1.397 . S
C402 C403 1.438 . S
C402 C407 1.429 . S
C403 C402 1.438 . S
C403 C404 1.428 . S
C403 C416 1.393 1_554 S
C404 H396 0.949 . S
C404 C403 1.428 . S
C404 C405 1.345 . S
C405 H397 0.950 . S
C405 C404 1.345 . S
C405 C406 1.424 . S
C406 H398 0.951 . S
C406 C405 1.424 . S
C406 C407 1.347 . S
C407 H399 0.951 . S
C407 C402 1.429 . S
C407 C406 1.347 . S
H408 C409 0.951 . S
C409 H408 0.951 . S
C409 C415 1.265 1_554 S
H410 C415 0.950 . S
H411 C419 0.949 . S
H412 C420 0.950 . S
H413 C421 0.951 . S
H414 C422 0.951 . S
C415 C409 1.265 1_556 S
C415 H410 0.950 . S
C415 C416 1.478 . S
C416 C403 1.393 1_556 S
C416 C415 1.478 . S
C416 C417 1.398 . S
C417 C416 1.398 . S
C417 C418 1.438 . S
C417 C422 1.429 . S
C418 C401 1.394 1_556 S
C418 C417 1.438 . S
C418 C419 1.428 . S
C419 H411 0.949 . S
C419 C418 1.428 . S
C419 C420 1.345 . S
C420 H412 0.950 . S
C420 C419 1.345 . S
C420 C421 1.424 . S
C421 H413 0.951 . S
C421 C420 1.424 . S
C421 C422 1.347 . S
C422 H414 0.951 . S
C422 C417 1.429 . S
C422 C421 1.347 . S
H423 C424 0.951 . S
C424 H423 0.951 . S
C424 C430 1.265 . S
H425 C430 0.950 . S
H426 C434 0.949 . S
H427 C435 0.950 . S
H428 C436 0.951 . S
H429 C437 0.951 . S
C430 C424 1.265 . S
C430 H425 0.950 . S
C430 C431 1.478 . S
C431 C430 1.478 . S
C431 C432 1.397 . S
C431 C448 1.394 1_554 S
C432 C431 1.397 . S
C432 C433 1.438 . S
C432 C437 1.429 . S
C433 C432 1.438 . S
C433 C434 1.428 . S
C433 C446 1.394 . S
C434 H426 0.949 . S
C434 C433 1.428 . S
C434 C435 1.345 . S
C435 H427 0.950 . S
C435 C434 1.345 . S
C435 C436 1.424 . S
C436 H428 0.951 . S
C436 C435 1.424 . S
C436 C437 1.347 . S
C437 H429 0.951 . S
C437 C432 1.429 . S
C437 C436 1.347 . S
H438 C439 0.951 . S
C439 H438 0.951 . S
C439 C445 1.265 . S
H440 C445 0.950 1_556 S
H441 C449 0.949 . S
H442 C450 0.950 . S
H443 C451 0.951 . S
H444 C452 0.951 . S
C445 C439 1.265 . S
C445 H440 0.950 1_554 S
C445 C446 1.478 . S
C446 C433 1.394 . S
C446 C445 1.478 . S
C446 C447 1.397 1_554 S
C447 C446 1.397 1_556 S
C447 C448 1.438 . S
C447 C452 1.429 . S
C448 C431 1.394 1_556 S
C448 C447 1.438 . S
C448 C449 1.428 . S
C449 H441 0.949 . S
C449 C448 1.428 . S
C449 C450 1.345 . S
C450 H442 0.950 . S
C450 C449 1.345 . S
C450 C451 1.424 . S
C451 H443 0.951 . S
C451 C450 1.424 . S
C451 C452 1.347 . S
C452 H444 0.951 . S
C452 C447 1.429 . S
C452 C451 1.347 . S
C94 C89 1.053 . S
C109 C24 1.106 . S
C124 C11 1.263 1_565 S
C139 C31 1.208 . S
C154 C1 0.944 . S
C169 C86 0.849 . S
C184 C32 1.164 . S
C199 C2 1.217 1_565 S
C214 C0 1.037 . S
C229 C63 1.073 1_455 S
C244 C55 1.270 . S
C259 C18 1.188 1_545 S
C274 C62 0.872 . S
C289 C27 0.921 . S
C304 C58 1.165 . S
C319 C10 1.227 1_545 S
C334 C80 1.891 . S
C349 C42 1.804 . S
C364 C64 1.153 1_556 S
C379 C33 1.201 1_554 S
C394 C41 1.204 1_556 S
C409 C72 1.156 1_554 S
C424 C73 1.892 . S
C439 C49 1.810 . S
