# Generated by pormake.
# Topology vby, (6)-cn, num edge types: 1
# Building blocks:
#     Node 0, Type 0, BuildingBlock: BETDAH_clean_sbu_0, # of connection points: 6
#     Node 1, Type 0, BuildingBlock: BETDAH_clean_sbu_0, # of connection points: 6
#     Node 2, Type 0, BuildingBlock: BETDAH_clean_sbu_0, # of connection points: 6
#     Node 3, Type 0, BuildingBlock: BETDAH_clean_sbu_0, # of connection points: 6
#     Node 4, Type 0, BuildingBlock: BETDAH_clean_sbu_0, # of connection points: 6
#     Node 5, Type 0, BuildingBlock: BETDAH_clean_sbu_0, # of connection points: 6
#     Node 6, Type 0, BuildingBlock: BETDAH_clean_sbu_0, # of connection points: 6
#     Node 7, Type 0, BuildingBlock: BETDAH_clean_sbu_0, # of connection points: 6
#     Edge 8, Type (0, 0), BuildingBlock: AJUNOK_clean_linker_0, # of connection points: 2
#     Edge 9, Type (0, 0), BuildingBlock: AJUNOK_clean_linker_0, # of connection points: 2
#     Edge 10, Type (0, 0), BuildingBlock: AJUNOK_clean_linker_0, # of connection points: 2
#     Edge 11, Type (0, 0), BuildingBlock: AJUNOK_clean_linker_0, # of connection points: 2
#     Edge 12, Type (0, 0), BuildingBlock: AJUNOK_clean_linker_0, # of connection points: 2
#     Edge 13, Type (0, 0), BuildingBlock: AJUNOK_clean_linker_0, # of connection points: 2
#     Edge 14, Type (0, 0), BuildingBlock: AJUNOK_clean_linker_0, # of connection points: 2
#     Edge 15, Type (0, 0), BuildingBlock: AJUNOK_clean_linker_0, # of connection points: 2
#     Edge 16, Type (0, 0), BuildingBlock: AJUNOK_clean_linker_0, # of connection points: 2
#     Edge 17, Type (0, 0), BuildingBlock: AJUNOK_clean_linker_0, # of connection points: 2
#     Edge 18, Type (0, 0), BuildingBlock: AJUNOK_clean_linker_0, # of connection points: 2
#     Edge 19, Type (0, 0), BuildingBlock: AJUNOK_clean_linker_0, # of connection points: 2
#     Edge 20, Type (0, 0), BuildingBlock: AJUNOK_clean_linker_0, # of connection points: 2
#     Edge 21, Type (0, 0), BuildingBlock: AJUNOK_clean_linker_0, # of connection points: 2
#     Edge 22, Type (0, 0), BuildingBlock: AJUNOK_clean_linker_0, # of connection points: 2
#     Edge 23, Type (0, 0), BuildingBlock: AJUNOK_clean_linker_0, # of connection points: 2
#     Edge 24, Type (0, 0), BuildingBlock: AJUNOK_clean_linker_0, # of connection points: 2
#     Edge 25, Type (0, 0), BuildingBlock: AJUNOK_clean_linker_0, # of connection points: 2
#     Edge 26, Type (0, 0), BuildingBlock: AJUNOK_clean_linker_0, # of connection points: 2
#     Edge 27, Type (0, 0), BuildingBlock: AJUNOK_clean_linker_0, # of connection points: 2
#     Edge 28, Type (0, 0), BuildingBlock: AJUNOK_clean_linker_0, # of connection points: 2
#     Edge 29, Type (0, 0), BuildingBlock: AJUNOK_clean_linker_0, # of connection points: 2
#     Edge 30, Type (0, 0), BuildingBlock: AJUNOK_clean_linker_0, # of connection points: 2
#     Edge 31, Type (0, 0), BuildingBlock: AJUNOK_clean_linker_0, # of connection points: 2
# Relax obj value: 0.206
# Max RMSD: 0.226
# Mean RMSD: 0.226
data_MOF--net-vby--node1-BETDAH_clean_sbu_0--edge1-AJUNOK_clean_linker_0
_symmetry_space_group_name_H-M    P1
_symmetry_Int_Tables_number       1
_symmetry_cell_setting            triclinic
loop_
_symmetry_equiv_pos_as_xyz
'x, y, z'
_cell_length_a     11.589655
_cell_length_b     88.202649
_cell_length_c     21.451957
_cell_angle_alpha  90.080061
_cell_angle_beta   85.227916
_cell_angle_gamma 89.915607
loop_
_atom_site_label
_atom_site_type_symbol
_atom_site_fract_x
_atom_site_fract_y
_atom_site_fract_z
_atom_type_partial_charge
Ho0 Ho 0.05556 0.40722 0.01911 0.0
Ho1 Ho 0.04424 0.37398 0.01844 0.0
C2 C 0.80541 0.39101 0.02147 0.0
C3 C 0.04146 0.43649 0.01368 0.0
C4 C 1.03211 0.45334 0.01386 0.0
C5 C 0.05914 0.46186 0.95925 0.0
C6 C 0.05725 0.47779 0.96116 0.0
C7 C 1.02816 0.48558 0.01772 0.0
C8 C 1.00105 0.477 0.07219 0.0
C9 C 1.00259 0.46113 0.07024 0.0
C10 C 0.07036 0.39406 0.13309 0.0
C11 C 0.29881 0.39071 0.00858 0.0
C12 C 0.05455 0.34494 0.03992 0.0
C13 C 0.12214 0.33055 0.03328 0.0
C14 C 0.15865 0.32343 0.08689 0.0
C15 C 0.20355 0.30864 0.08383 0.0
C16 C 0.21206 0.3005 0.02715 0.0
C17 C 0.18032 0.30787 0.97295 0.0
C18 C 0.13543 0.32267 0.97598 0.0
C19 C 1.02586 0.38639 0.90352 0.0
O20 O 0.86921 0.40259 0.9998 0.0
O21 O 0.85601 0.37902 0.04401 0.0
O22 O 1.00452 0.42855 0.06255 0.0
O23 O 0.08249 0.42836 0.96572 0.0
O24 O 0.13695 0.40479 0.11038 0.0
O25 O 1.00018 0.39052 0.0935 0.0
O26 O 0.23911 0.37804 0.02046 0.0
O27 O 0.2452 0.40357 0.99887 0.0
O28 O 1.01559 0.35084 0.99 0.0
O29 O 0.08478 0.35526 0.07921 0.0
O30 O 0.96812 0.37481 0.92575 0.0
O31 O 0.09597 0.39061 0.94244 0.0
H32 H 0.08295 0.45622 0.91515 0.0
H33 H 0.07847 0.48403 0.91831 0.0
H34 H 0.98121 0.48256 0.11684 0.0
H35 H 0.98294 0.45495 0.11343 0.0
H36 H 0.14855 0.3291 0.13186 0.0
H37 H 0.22972 0.30348 0.12621 0.0
H38 H 0.18576 0.30195 0.92852 0.0
H39 H 0.10709 0.32768 0.93379 0.0
Ho40 Ho 1.03564 0.66381 0.02026 0.0
Ho41 Ho 1.024 0.63048 0.02085 0.0
C42 C 0.78099 0.64712 0.03079 0.0
C43 C 1.02617 0.69279 0.99746 0.0
C44 C 0.95837 0.70716 0.00241 0.0
C45 C 0.94128 0.7153 0.94765 0.0
C46 C 0.89498 0.73001 0.95076 0.0
C47 C 0.86447 0.737 0.00883 0.0
C48 C 0.87885 0.7287 0.0637 0.0
C49 C 0.92517 0.71396 0.06058 0.0
C50 C 0.0529 0.65162 0.13563 0.0
C51 C 0.27435 0.64674 0.01825 0.0
C52 C 1.03717 0.60123 0.02818 0.0
C53 C 0.04586 0.58438 0.02962 0.0
C54 C 1.01811 0.57622 0.08508 0.0
C55 C 1.01755 0.56029 0.0847 0.0
C56 C 0.04379 0.55213 0.02874 0.0
C57 C 0.0743 0.56034 0.97368 0.0
C58 C 0.07521 0.57623 0.9741 0.0
C59 C 1.00892 0.64349 0.90653 0.0
O60 O 0.84083 0.65975 0.01815 0.0
O61 O 0.83439 0.63427 0.04108 0.0
O62 O 0.06205 0.68702 0.04841 0.0
O63 O 0.99815 0.68238 0.95799 0.0
O64 O 0.11079 0.66319 0.11331 0.0
O65 O 0.98354 0.64729 0.09653 0.0
O66 O 0.21049 0.63515 0.03992 0.0
O67 O 0.22394 0.65871 0.99545 0.0
O68 O 0.07349 0.60893 0.97851 0.0
O69 O 0.99724 0.60959 0.07566 0.0
O70 O 0.9426 0.63275 0.92949 0.0
O71 O 0.07942 0.64703 0.94595 0.0
H72 H 0.96819 0.71052 0.9022 0.0
H73 H 0.88752 0.73614 0.90757 0.0
H74 H 0.85583 0.7337 0.10918 0.0
H75 H 0.9382 0.70811 0.10378 0.0
H76 H 0.99537 0.58214 0.12866 0.0
H77 H 0.99635 0.55435 0.12829 0.0
H78 H 0.09461 0.55447 0.92974 0.0
H79 H 0.0964 0.58213 0.93041 0.0
Ho80 Ho 0.04179 0.66356 0.52124 0.0
Ho81 Ho 0.05464 0.63033 0.52143 0.0
C82 C 0.29727 0.6471 0.51243 0.0
C83 C 0.05212 0.6926 0.54297 0.0
C84 C 0.1198 0.70693 0.53506 0.0
C85 C 0.17164 0.7132 0.58622 0.0
C86 C 0.21724 0.72793 0.58331 0.0
C87 C 0.21125 0.73686 0.52935 0.0
C88 C 0.16409 0.73036 0.47719 0.0
C89 C 0.11838 0.71563 0.48009 0.0
C90 C 1.02204 0.65111 0.40637 0.0
C91 C 0.80384 0.64672 0.52633 0.0
C92 C 1.04111 0.60108 0.51497 0.0
C93 C 1.03138 0.58425 0.51355 0.0
C94 C 0.08013 0.57577 0.46234 0.0
C95 C 0.08065 0.55984 0.46423 0.0
C96 C 1.03315 0.55203 0.51753 0.0
C97 C 0.98113 0.56053 0.56781 0.0
C98 C 0.98053 0.57641 0.56592 0.0
C99 C 0.07227 0.64359 0.63528 0.0
O100 O 0.23576 0.65968 0.52293 0.0
O101 O 0.24578 0.63405 0.50314 0.0
O102 O 1.00929 0.68671 0.49404 0.0
O103 O 0.08553 0.68225 0.58123 0.0
O104 O 0.96453 0.66273 0.42881 0.0
O105 O 0.09296 0.64692 0.44487 0.0
O106 O 0.8664 0.63508 0.50331 0.0
O107 O 0.85615 0.6584 0.54989 0.0
O108 O 0.99894 0.60898 0.5631 0.0
O109 O 0.08709 0.60925 0.46844 0.0
O110 O 0.13743 0.6327 0.61238 0.0
O111 O 1.0004 0.647 0.59645 0.0
H112 H 0.17319 0.70691 0.6295 0.0
H113 H 0.25532 0.73244 0.62385 0.0
H114 H 0.1581 0.73691 0.43491 0.0
H115 H 0.07788 0.7113 0.43999 0.0
H116 H 0.12041 0.58144 0.42139 0.0
H117 H 0.1212 0.55364 0.42463 0.0
H118 H 0.94117 0.5549 0.60892 0.0
H119 H 0.94195 0.58255 0.60619 0.0
Ho120 Ho 1.02069 0.40723 0.51848 0.0
Ho121 Ho 1.03332 0.37397 0.51801 0.0
C122 C 0.27125 0.39098 0.51569 0.0
C123 C 1.0351 0.43646 0.52598 0.0
C124 C 0.04499 0.45328 0.52843 0.0
C125 C 0.99764 0.46154 0.58057 0.0
C126 C 0.99903 0.47746 0.58036 0.0
C127 C 0.04798 0.48552 0.52802 0.0
C128 C 0.09646 0.47723 0.47624 0.0
C129 C 0.09519 0.46133 0.47647 0.0
C130 C 1.00393 0.3942 0.40431 0.0
C131 C 0.77791 0.39063 0.5288 0.0
C132 C 1.02181 0.34494 0.49592 0.0
C133 C 0.95303 0.3307 0.50488 0.0
C134 C 0.88991 0.32506 0.45658 0.0
C135 C 0.84123 0.31048 0.46028 0.0
C136 C 0.85545 0.30107 0.51208 0.0
C137 C 0.91493 0.30693 0.56137 0.0
C138 C 0.96349 0.32149 0.55771 0.0
C139 C 0.05236 0.38635 0.63312 0.0
O140 O 0.20687 0.40247 0.53825 0.0
O141 O 0.22107 0.37912 0.49183 0.0
O142 O 0.07765 0.42866 0.47764 0.0
O143 O 0.98799 0.4282 0.57192 0.0
O144 O 0.93859 0.40506 0.42739 0.0
O145 O 0.07527 0.39061 0.44322 0.0
O146 O 0.83822 0.37798 0.51675 0.0
O147 O 0.83079 0.40354 0.53827 0.0
O148 O 0.06647 0.35078 0.54437 0.0
O149 O 0.98788 0.35534 0.45803 0.0
O150 O 0.10921 0.37466 0.61094 0.0
O151 O 0.98168 0.39053 0.59451 0.0
H152 H 0.95724 0.45571 0.62108 0.0
H153 H 0.95899 0.48347 0.6206 0.0
H154 H 0.13536 0.48305 0.43532 0.0
H155 H 0.13196 0.45536 0.43535 0.0
H156 H 0.88119 0.33172 0.41486 0.0
H157 H 0.7938 0.30649 0.42208 0.0
H158 H 0.9279 0.30001 0.60187 0.0
H159 H 1.01296 0.32529 0.59542 0.0
Ho160 Ho 0.56114 0.90748 0.01808 0.0
Ho161 Ho 0.54923 0.8741 0.01914 0.0
C162 C 0.31077 0.89102 0.02359 0.0
C163 C 0.54778 0.93672 0.00958 0.0
C164 C 0.53864 0.95357 0.00747 0.0
C165 C 0.57299 0.9617 0.95271 0.0
C166 C 0.57348 0.97764 0.95288 0.0
C167 C 0.54037 0.98585 0.00793 0.0
C168 C 0.50316 0.97767 0.06216 0.0
C169 C 0.50248 0.96178 0.06196 0.0
C170 C 0.57631 0.89463 0.13265 0.0
C171 C 0.80414 0.89062 0.01023 0.0
C172 C 0.55915 0.84514 0.04218 0.0
C173 C 0.62541 0.8307 0.0346 0.0
C174 C 0.6434 0.82209 0.08803 0.0
C175 C 0.68783 0.80731 0.08257 0.0
C176 C 0.71473 0.80069 0.02344 0.0
C177 C 0.70159 0.80956 0.96989 0.0
C178 C 0.65705 0.82437 0.97536 0.0
C179 C 0.53113 0.88628 0.90374 0.0
O180 O 0.37284 0.90266 1.0006 0.0
O181 O 0.36335 0.87936 0.04724 0.0
O182 O 0.50963 0.92909 0.05914 0.0
O183 O 0.58958 0.92827 0.96275 0.0
O184 O 0.6415 0.9055 0.10985 0.0
O185 O 0.50636 0.89093 0.09319 0.0
O186 O 0.74295 0.87805 0.02107 0.0
O187 O 0.7524 0.90364 1.00044 0.0
O188 O 0.51599 0.85091 0.99314 0.0
O189 O 0.59421 0.85554 0.07973 0.0
O190 O 0.47337 0.87472 0.9263 0.0
O191 O 0.60112 0.89056 0.94259 0.0
H192 H 0.60118 0.95575 0.90992 0.0
H193 H 0.60007 0.98354 0.90985 0.0
H194 H 0.47742 0.98358 0.10541 0.0
H195 H 0.47604 0.95592 0.10513 0.0
H196 H 0.61862 0.82659 0.13425 0.0
H197 H 0.6967 0.80083 0.12477 0.0
H198 H 0.72411 0.80496 0.92363 0.0
H199 H 0.64422 0.83066 0.93318 0.0
Ho200 Ho 0.53798 0.16394 0.01474 0.0
Ho201 Ho 0.52637 0.13086 0.01682 0.0
C202 C 0.28299 0.14734 0.02736 0.0
C203 C 0.52641 0.19284 0.99056 0.0
C204 C 0.45899 0.20718 1.00001 0.0
C205 C 0.42198 0.21482 0.94777 0.0
C206 C 0.37534 0.22949 0.95357 0.0
C207 C 0.36455 0.23694 0.01182 0.0
C208 C 0.39872 0.22912 0.06448 0.0
C209 C 0.44534 0.21444 0.05869 0.0
C210 C 0.56092 0.15255 0.13077 0.0
C211 C 0.77645 0.1469 0.01316 0.0
C212 C 0.54104 0.10158 0.02286 0.0
C213 C 0.55111 0.08473 0.02312 0.0
C214 C 0.51673 0.07619 0.07679 0.0
C215 C 0.51877 0.06025 0.07489 0.0
C216 C 0.55538 0.05246 0.01931 0.0
C217 C 0.58999 0.06105 0.96581 0.0
C218 C 0.58826 0.07693 0.96775 0.0
C219 C 0.51095 0.14358 0.90158 0.0
O220 O 0.34283 0.15996 0.01477 0.0
O221 O 0.33651 0.13449 0.03716 0.0
O222 O 0.57452 0.18718 0.03823 0.0
O223 O 0.48857 0.18232 0.95442 0.0
O224 O 0.61575 0.16412 0.10636 0.0
O225 O 0.48952 0.14771 0.09346 0.0
O226 O 0.71222 0.13556 0.03668 0.0
O227 O 0.72588 0.15863 0.98844 0.0
O228 O 0.58308 0.10954 0.97508 0.0
O229 O 0.49471 0.1097 0.06959 0.0
O230 O 0.44374 0.13305 0.92549 0.0
O231 O 0.58176 0.14715 0.94071 0.0
H232 H 0.43287 0.20965 0.90181 0.0
H233 H 0.34941 0.23512 0.91211 0.0
H234 H 0.3938 0.23459 0.10986 0.0
H235 H 0.47449 0.20902 0.09985 0.0
H236 H 0.48685 0.08182 0.12006 0.0
H237 H 0.49166 0.05401 0.11701 0.0
H238 H 0.61583 0.0555 0.92178 0.0
H239 H 0.61372 0.08311 0.92521 0.0
Ho240 Ho 0.54959 0.16497 0.52023 0.0
Ho241 Ho 0.55632 0.12933 0.51746 0.0
C242 C 0.79913 0.14707 0.50759 0.0
C243 C 0.55215 0.19288 0.55869 0.0
C244 C 0.60731 0.20792 0.54547 0.0
C245 C 0.6704 0.21476 0.59111 0.0
C246 C 0.71291 0.22956 0.5832 0.0
C247 C 0.69351 0.23797 0.52936 0.0
C248 C 0.63197 0.23104 0.4831 0.0
C249 C 0.58934 0.2162 0.49103 0.0
C250 C 0.56555 0.1551 0.3988 0.0
C251 C 0.30854 0.14709 0.51551 0.0
C252 C 0.54179 0.10024 0.50797 0.0
C253 C 0.53171 0.08343 0.5053 0.0
C254 C 0.57221 0.07528 0.45151 0.0
C255 C 0.57325 0.05935 0.45174 0.0
C256 C 0.53485 0.0512 0.50599 0.0
C257 C 0.49123 0.0594 0.55911 0.0
C258 C 0.48976 0.07528 0.55879 0.0
C259 C 0.57788 0.14303 0.6302 0.0
O260 O 0.73999 0.15953 0.52454 0.0
O261 O 0.74621 0.13428 0.49414 0.0
O262 O 0.48004 0.18774 0.51972 0.0
O263 O 0.61633 0.18214 0.58022 0.0
O264 O 0.56584 0.16924 0.41527 0.0
O265 O 0.56167 0.14725 0.4479 0.0
O266 O 0.36865 0.13456 0.50041 0.0
O267 O 0.35985 0.15953 0.53402 0.0
O268 O 0.49178 0.10799 0.55484 0.0
O269 O 0.59603 0.10852 0.46394 0.0
O270 O 0.63546 0.13122 0.60968 0.0
O271 O 0.5095 0.14683 0.59004 0.0
H272 H 0.68471 0.20875 0.63382 0.0
H273 H 0.76042 0.2345 0.61959 0.0
H274 H 0.61358 0.23726 0.44155 0.0
H275 H 0.54001 0.21138 0.45516 0.0
H276 H 0.60497 0.0812 0.40952 0.0
H277 H 0.60474 0.05342 0.40947 0.0
H278 H 0.46128 0.05353 0.60173 0.0
H279 H 0.4587 0.08118 0.60125 0.0
Ho280 Ho 0.52911 0.90641 0.51719 0.0
Ho281 Ho 0.54189 0.87324 0.51876 0.0
C282 C 0.77994 0.89003 0.5129 0.0
C283 C 0.54278 0.93567 0.52253 0.0
C284 C 0.55233 0.9525 0.5228 0.0
C285 C 0.51435 0.96108 0.57593 0.0
C286 C 0.51548 0.977 0.57391 0.0
C287 C 0.55495 0.98473 0.51878 0.0
C288 C 0.59357 0.97611 0.46589 0.0
C289 C 0.59254 0.96023 0.46792 0.0
C290 C 0.512 0.89299 0.40371 0.0
C291 C 0.28637 0.88969 0.52702 0.0
C292 C 0.53067 0.84413 0.49868 0.0
C293 C 0.46234 0.8299 0.50852 0.0
C294 C 0.41057 0.82325 0.45814 0.0
C295 C 0.36306 0.80864 0.46324 0.0
C296 C 0.36613 0.80026 0.51885 0.0
C297 C 0.41516 0.80707 0.56982 0.0
C298 C 0.46274 0.82168 0.56473 0.0
C299 C 0.5614 0.88602 0.6331 0.0
O300 O 0.71749 0.90175 0.53521 0.0
O301 O 0.7276 0.87828 0.48984 0.0
O302 O 0.58238 0.92767 0.47417 0.0
O303 O 0.49933 0.9276 0.56998 0.0
O304 O 0.44657 0.90387 0.42638 0.0
O305 O 0.58357 0.88958 0.44276 0.0
O306 O 0.34787 0.8771 0.51701 0.0
O307 O 0.33798 0.90277 0.53567 0.0
O308 O 0.57586 0.85018 0.54658 0.0
O309 O 0.49579 0.85436 0.46032 0.0
O310 O 0.61918 0.87437 0.61119 0.0
O311 O 0.49022 0.89002 0.59446 0.0
H312 H 0.48212 0.95549 0.6188 0.0
H313 H 0.48531 0.98329 0.61552 0.0
H314 H 0.62197 0.98163 0.42224 0.0
H315 H 0.62102 0.95402 0.42583 0.0
H316 H 0.41047 0.82913 0.41384 0.0
H317 H 0.32561 0.80377 0.42316 0.0
H318 H 0.42118 0.80086 0.61295 0.0
H319 H 0.50378 0.82627 0.60417 0.0
C320 C 0.48835 0.378 0.02916 0.0
C321 C 0.42855 0.39081 0.00919 0.0
C322 C 0.60925 0.37819 0.03342 0.0
C323 C 0.67646 0.39119 0.01773 0.0
H324 H 0.44138 0.36773 0.0424 0.0
H325 H 0.6502 0.368 0.04912 0.0
S326 S 0.56353 0.42777 0.96179 0.0
N327 N 0.44791 0.4169 0.97269 0.0
N328 N 0.67286 0.41723 0.98083 0.0
C329 C 0.61792 0.40404 0.99725 0.0
C330 C 0.495 0.40386 0.99294 0.0
C331 C 0.47114 0.65933 0.00327 0.0
C332 C 0.40329 0.6466 0.02219 0.0
C333 C 0.59205 0.65956 0.00741 0.0
C334 C 0.65125 0.64705 0.03049 0.0
H335 H 0.43073 0.66926 0.98494 0.0
H336 H 0.63954 0.66958 0.99149 0.0
S337 S 0.51448 0.61098 0.08799 0.0
N338 N 0.40562 0.6212 0.06612 0.0
N339 N 0.63068 0.62161 0.07402 0.0
C340 C 0.58419 0.63429 0.05019 0.0
C341 C 0.46123 0.63407 0.046 0.0
C342 C 0.61537 0.63432 0.50227 0.0
C343 C 0.67468 0.64707 0.52308 0.0
C344 C 0.49443 0.6345 0.49828 0.0
C345 C 0.42673 0.64747 0.51435 0.0
H346 H 0.66253 0.62404 0.48916 0.0
H347 H 0.4538 0.62429 0.48251 0.0
S348 S 0.53907 0.68406 0.57052 0.0
N349 N 0.65501 0.67321 0.5593 0.0
N350 N 0.42985 0.67352 0.55154 0.0
C351 C 0.48513 0.66036 0.53465 0.0
C352 C 0.60809 0.66016 0.5391 0.0
C353 C 0.59025 0.37848 0.50183 0.0
C354 C 0.64815 0.3906 0.52862 0.0
C355 C 0.46933 0.37872 0.49757 0.0
C356 C 0.40017 0.39108 0.52009 0.0
H357 H 0.63887 0.36878 0.4829 0.0
H358 H 0.42998 0.36911 0.47616 0.0
S359 S 0.50762 0.42542 0.5976 0.0
N360 N 0.625 0.41515 0.58018 0.0
N361 N 0.39985 0.41559 0.57229 0.0
C362 C 0.45683 0.40317 0.54793 0.0
C363 C 0.57982 0.40294 0.55215 0.0
C364 C 1.00054 0.90337 0.9977 0.0
C365 C 0.93365 0.89026 0.01201 0.0
C366 C 0.12149 0.90354 1.00158 0.0
C367 C 0.18164 0.89066 0.02047 0.0
H368 H 0.95926 0.91368 0.98348 0.0
H369 H 0.16798 0.91394 0.98997 0.0
S370 S 0.04869 0.85325 0.06227 0.0
N371 N 0.93866 0.86391 0.04508 0.0
N372 N 0.16386 0.86424 0.05268 0.0
C373 C 0.11594 0.87744 0.03463 0.0
C374 C 0.99297 0.87723 0.0303 0.0
C375 C 0.09449 0.15967 0.0022 0.0
C376 C 0.15319 0.14731 0.02688 0.0
C377 C 0.97367 0.15941 0.99752 0.0
C378 C 0.90537 0.1468 0.01752 0.0
H379 H 0.14238 0.16958 0.98534 0.0
H380 H 0.93368 0.16922 0.97794 0.0
S381 S 1.01509 0.11163 0.08781 0.0
N382 N 0.13161 0.12217 0.07313 0.0
N383 N 0.90677 0.1217 0.06434 0.0
C384 C 0.96281 0.13444 0.043 0.0
C385 C 0.08567 0.13469 0.04768 0.0
C386 C 0.11709 0.1339 0.50175 0.0
C387 C 0.17903 0.14733 0.51186 0.0
C388 C 0.99548 0.13392 0.49941 0.0
C389 C 0.92948 0.14738 0.50688 0.0
H390 H 0.16261 0.12319 0.49628 0.0
H391 H 0.95285 0.1232 0.49248 0.0
S392 S 0.04942 0.18589 0.53034 0.0
N393 N 0.1637 0.17466 0.52653 0.0
N394 N 0.9379 0.17469 0.52206 0.0
C395 C 0.99075 0.16094 0.5157 0.0
C396 C 0.11426 0.16092 0.5182 0.0
C397 C 0.96907 0.90271 0.53361 0.0
C398 C 0.90896 0.88967 0.51648 0.0
C399 C 0.08998 0.90256 0.53766 0.0
C400 C 0.15685 0.88932 0.52532 0.0
H401 H 0.9226 0.91321 0.54361 0.0
H402 H 0.13126 0.91299 0.55035 0.0
S403 S 0.04167 0.85185 0.48083 0.0
N404 N 0.92657 0.86294 0.48855 0.0
N405 N 0.15175 0.86266 0.49639 0.0
C406 C 0.09751 0.87613 0.50898 0.0
C407 C 0.97457 0.87631 0.50449 0.0
C408 C 0.12737 0.5267 0.99455 0.0
C409 C 1.03817 0.53515 0.0271 0.0
C410 C 0.12301 0.51077 0.99128 0.0
C411 C 1.02924 0.50256 0.02041 0.0
H412 H 0.20206 0.53243 0.9719 0.0
H413 H 0.19473 0.50482 0.96651 0.0
S414 S 0.76839 0.51928 0.10679 0.0
N415 N 0.84984 0.53406 0.08593 0.0
N416 N 0.8417 0.50425 0.07987 0.0
C417 C 0.93864 0.51089 0.05232 0.0
C418 C 0.9431 0.5271 0.05566 0.0
C419 C 1.01006 0.51016 0.47362 0.0
C420 C 0.04587 0.5025 0.52638 0.0
C421 C 1.00667 0.5261 0.47096 0.0
C422 C 1.03875 0.53508 0.521 0.0
H423 H 0.98281 0.50377 0.43426 0.0
H424 H 0.97701 0.53142 0.42971 0.0
S425 S 0.14942 0.52072 0.66743 0.0
N426 N 0.1209 0.50523 0.62823 0.0
N427 N 0.11458 0.53508 0.62333 0.0
C428 C 0.07661 0.52758 0.57358 0.0
C429 C 0.08008 0.51136 0.57627 0.0
C430 C 0.45327 1.01133 0.03879 0.0
C431 C 0.54585 1.00284 0.00959 0.0
C432 C 0.4574 0.02727 0.04215 0.0
C433 C 0.55433 0.03545 0.01651 0.0
H434 H 0.37618 1.00562 0.05871 0.0
H435 H 0.38311 0.03324 0.06424 0.0
S436 S 0.82404 0.01864 0.9399 0.0
N437 N 0.7403 1.00389 0.95774 0.0
N438 N 0.74807 0.0337 0.96404 0.0
C439 C 0.64819 0.02709 0.98798 0.0
C440 C 0.64395 1.01087 0.98452 0.0
C441 C 0.44757 0.02568 0.53475 0.0
C442 C 0.54175 0.03423 0.50805 0.0
C443 C 0.45289 1.00977 0.53853 0.0
C444 C 0.5526 1.00169 0.51573 0.0
H445 H 0.36837 0.03132 0.55237 0.0
H446 H 0.37746 1.00373 0.55863 0.0
S447 S 0.82676 0.01869 0.44647 0.0
N448 N 0.74042 0.03337 0.46179 0.0
N449 N 0.75016 1.00357 0.46864 0.0
C450 C 0.64796 1.0101 0.4897 0.0
C451 C 0.6426 0.0263 0.4859 0.0
C452 C 0.33269 0.27921 0.97714 0.0
C453 C 0.25041 0.28426 0.02469 0.0
C454 C 0.3685 0.26396 0.97331 0.0
C455 C 0.32347 0.25305 0.01676 0.0
H456 H 0.37077 0.28714 0.94288 0.0
H457 H 0.43332 0.26072 0.93637 0.0
S458 S 0.09851 0.26009 0.14712 0.0
N459 N 0.12014 0.27687 0.11417 0.0
N460 N 0.18731 0.24832 0.10696 0.0
C461 C 0.24007 0.25791 0.06408 0.0
C462 C 0.20364 0.27345 0.06802 0.0
C463 C 0.83746 0.77881 0.05552 0.0
C464 C 0.75266 0.78444 0.01813 0.0
C465 C 0.87216 0.76351 0.05258 0.0
C466 C 0.82354 0.75313 0.01218 0.0
H467 H 0.87831 0.78634 0.08698 0.0
H468 H 0.93902 0.75983 0.0816 0.0
S469 S 0.59103 0.76171 0.90846 0.0
N470 N 0.61616 0.77811 0.94201 0.0
N471 N 0.68133 0.74946 0.93646 0.0
C472 C 0.73757 0.75856 0.97516 0.0
C473 C 0.70225 0.77414 0.97813 0.0
C474 C 0.32103 0.75866 0.47656 0.0
C475 C 0.25027 0.75305 0.52794 0.0
C476 C 0.35723 0.77388 0.47389 0.0
C477 C 0.32404 0.7842 0.5224 0.0
H478 H 0.34986 0.75116 0.43833 0.0
H479 H 0.4132 0.77755 0.4338 0.0
S480 S 0.13061 0.77565 0.66463 0.0
N481 N 0.14269 0.75934 0.62677 0.0
N482 N 0.21052 0.78785 0.62171 0.0
C483 C 0.25185 0.7788 0.57358 0.0
C484 C 0.21507 0.76329 0.57634 0.0
C485 C 0.75206 0.27939 0.56933 0.0
C486 C 0.81172 0.28507 0.51439 0.0
C487 C 0.71399 0.26426 0.57352 0.0
C488 C 0.73387 0.25409 0.523 0.0
H489 H 0.73404 0.28673 0.60948 0.0
H490 H 0.66771 0.26052 0.61671 0.0
S491 S 0.89301 0.26289 0.37 0.0
N492 N 0.89327 0.27902 0.40915 0.0
N493 N 0.82161 0.25069 0.41703 0.0
C494 C 0.79377 0.25958 0.46784 0.0
C495 C 0.83264 0.27501 0.46355 0.0
C496 C 0.14705 0.39174 0.23848 0.0
C497 C 0.05185 0.39139 0.20168 0.0
C498 C 0.13166 0.39152 0.30433 0.0
C499 C 1.02019 0.39142 0.33579 0.0
H500 H 0.23415 0.39262 0.21617 0.0
H501 H 0.20723 0.39233 0.33066 0.0
S502 S 0.7426 0.38967 0.26168 0.0
N503 N 0.84242 0.38993 0.20203 0.0
N504 N 0.81346 0.39022 0.32537 0.0
C505 C 0.92459 0.39057 0.29963 0.0
C506 C 0.94034 0.39035 0.23268 0.0
C507 C 0.14456 0.64904 0.23669 0.0
C508 C 0.04422 0.64819 0.20384 0.0
C509 C 0.13832 0.64865 0.30259 0.0
C510 C 1.03101 0.64782 0.33812 0.0
H511 H 0.22843 0.6506 0.21123 0.0
H512 H 0.2172 0.65002 0.32578 0.0
S513 S 0.74337 0.6444 0.27536 0.0
N514 N 0.83515 0.64535 0.21226 0.0
N515 N 0.82283 0.64531 0.33575 0.0
C516 C 0.93061 0.64634 0.30589 0.0
C517 C 0.93726 0.64632 0.23884 0.0
C518 C 0.93045 0.64526 0.80144 0.0
C519 C 1.02588 0.64626 0.83792 0.0
C520 C 0.94495 0.64554 0.73559 0.0
C521 C 0.05587 0.64637 0.70377 0.0
H522 H 0.84402 0.64381 0.824 0.0
H523 H 0.86945 0.64419 0.70953 0.0
S524 S 0.33336 0.65014 0.77682 0.0
N525 N 0.23452 0.64922 0.83681 0.0
N526 N 0.262 0.64904 0.71341 0.0
C527 C 0.15148 0.64792 0.73956 0.0
C528 C 0.13649 0.64806 0.80655 0.0
C529 C 0.93776 0.38918 0.73716 0.0
C530 C 0.04456 0.38988 0.70112 0.0
C531 C 0.93265 0.38895 0.80303 0.0
C532 C 1.03364 0.38983 0.83534 0.0
H533 H 0.85842 0.38776 0.71443 0.0
H534 H 0.84911 0.38746 0.82893 0.0
S535 S 0.33351 0.39349 0.76221 0.0
N536 N 0.25293 0.39244 0.70231 0.0
N537 N 0.24276 0.39267 0.82577 0.0
C538 C 0.14011 0.39163 0.79977 0.0
C539 C 0.1456 0.39146 0.73275 0.0
C540 C 0.65499 0.89357 0.23788 0.0
C541 C 0.56092 0.89152 0.20108 0.0
C542 C 0.64048 0.89289 0.30366 0.0
C543 C 0.53068 0.89051 0.33514 0.0
H544 H 0.74003 0.89618 0.21569 0.0
H545 H 0.71441 0.89512 0.33004 0.0
S546 S 0.25783 0.88343 0.26121 0.0
N547 N 0.35562 0.88584 0.2015 0.0
N548 N 0.32772 0.88525 0.32487 0.0
C549 C 0.43687 0.88789 0.29903 0.0
C550 C 0.45213 0.88818 0.23206 0.0
C551 C 0.66544 0.15275 0.22743 0.0
C552 C 0.56346 0.14922 0.1989 0.0
C553 C 0.66789 0.15322 0.29276 0.0
C554 C 0.56894 0.14997 0.33268 0.0
H555 H 0.74295 0.15603 0.19889 0.0
H556 H 0.7463 0.15701 0.31218 0.0
S557 S 0.28118 0.13927 0.28285 0.0
N558 N 0.36189 0.14165 0.21631 0.0
N559 N 0.3668 0.14248 0.33936 0.0
C560 C 0.46798 0.14554 0.30519 0.0
C561 C 0.46524 0.14511 0.23823 0.0
C562 C 0.43349 0.14472 0.79582 0.0
C563 C 0.52809 0.14616 0.8327 0.0
C564 C 0.44877 0.14493 0.72993 0.0
C565 C 0.55974 0.1462 0.69841 0.0
H566 H 0.3472 0.14295 0.81809 0.0
H567 H 0.37408 0.14318 0.7036 0.0
S568 S 0.83515 0.15114 0.77242 0.0
N569 N 0.7359 0.14995 0.83213 0.0
N570 N 0.76487 0.14965 0.70876 0.0
C571 C 0.65438 0.14817 0.73457 0.0
C572 C 0.63855 0.14836 0.80157 0.0
C573 C 0.44536 0.88882 0.73679 0.0
C574 C 0.55261 0.88953 0.70115 0.0
C575 C 0.43929 0.88863 0.80269 0.0
C576 C 0.53974 0.88956 0.83542 0.0
H577 H 0.3664 0.88738 0.71373 0.0
H578 H 0.35546 0.88714 0.82828 0.0
S579 S 0.8405 0.89308 0.76349 0.0
N580 N 0.76084 0.89202 0.70322 0.0
N581 N 0.74887 0.89234 0.8267 0.0
C582 C 0.64665 0.89131 0.80026 0.0
C583 C 0.65312 0.8911 0.73322 0.0
loop_
_geom_bond_atom_site_label_1
_geom_bond_atom_site_label_2
_geom_bond_distance
_geom_bond_site_symmetry_2
_ccdc_geom_bond_type
Ho0 C3 2.811 1_455 S
Ho0 O20 2.322 1_455 S
Ho0 O22 2.378 . S
Ho0 O23 2.524 1_454 S
Ho0 O24 2.381 . S
Ho0 O25 2.669 . S
Ho0 O27 2.346 . S
Ho0 O31 2.305 1_554 S
Ho1 C12 2.811 . S
Ho1 O21 2.346 1_455 S
Ho1 O25 2.305 . S
Ho1 O26 2.322 1_554 S
Ho1 O28 2.378 1_554 S
Ho1 O29 2.524 . S
Ho1 O30 2.381 1_554 S
Ho1 O31 2.669 1_554 S
C2 O20 1.259 . S
C2 O21 1.268 . S
C3 Ho0 2.811 1_655 S
C3 C4 1.488 . S
C3 O22 1.215 1_655 S
C3 O23 1.289 1_554 S
C4 C3 1.488 . S
C4 C5 1.348 1_554 S
C4 C9 1.413 . S
C5 C4 1.348 1_556 S
C5 C6 1.442 . S
C5 H32 0.930 . S
C6 C5 1.442 . S
C6 C7 1.381 1_556 S
C6 H33 0.931 . S
C7 C6 1.381 1_554 S
C7 C8 1.321 . S
C8 C7 1.321 . S
C8 C9 1.403 . S
C8 H34 0.934 . S
C9 C4 1.413 . S
C9 C8 1.403 . S
C9 H35 0.930 . S
C10 O24 1.275 . S
C10 O25 1.256 . S
C11 O26 1.259 1_554 S
C11 O27 1.268 . S
C12 Ho1 2.811 . S
C12 C13 1.488 . S
C12 O28 1.215 1_554 S
C12 O29 1.289 . S
C13 C12 1.488 . S
C13 C14 1.348 . S
C13 C18 1.413 1_554 S
C14 C13 1.348 . S
C14 C15 1.442 . S
C14 H36 0.930 . S
C15 C14 1.442 . S
C15 C16 1.381 . S
C15 H37 0.931 . S
C16 C15 1.381 . S
C16 C17 1.321 1_554 S
C17 C16 1.321 1_556 S
C17 C18 1.403 . S
C17 H38 0.934 . S
C18 C13 1.413 1_556 S
C18 C17 1.403 . S
C18 H39 0.930 . S
C19 O30 1.275 . S
C19 O31 1.256 . S
O20 Ho0 2.322 1_655 S
O20 C2 1.259 . S
O21 Ho1 2.346 1_655 S
O21 C2 1.268 . S
O22 Ho0 2.378 . S
O22 C3 1.215 1_455 S
O23 Ho0 2.524 1_656 S
O23 C3 1.289 1_556 S
O24 Ho0 2.381 . S
O24 C10 1.275 . S
O25 Ho0 2.669 . S
O25 Ho1 2.305 . S
O25 C10 1.256 . S
O26 Ho1 2.322 1_556 S
O26 C11 1.259 1_556 S
O27 Ho0 2.346 . S
O27 C11 1.268 . S
O28 Ho1 2.378 1_556 S
O28 C12 1.215 1_556 S
O29 Ho1 2.524 . S
O29 C12 1.289 . S
O30 Ho1 2.381 1_556 S
O30 C19 1.275 . S
O31 Ho0 2.305 1_556 S
O31 Ho1 2.669 1_556 S
O31 C19 1.256 . S
H32 C5 0.930 . S
H33 C6 0.931 . S
H34 C8 0.934 . S
H35 C9 0.930 . S
H36 C14 0.930 . S
H37 C15 0.931 . S
H38 C17 0.934 . S
H39 C18 0.930 . S
Ho40 C43 2.811 . S
Ho40 O60 2.322 . S
Ho40 O62 2.378 . S
Ho40 O63 2.524 1_554 S
Ho40 O64 2.381 . S
Ho40 O65 2.669 . S
Ho40 O67 2.346 1_655 S
Ho40 O71 2.305 1_554 S
Ho41 C52 2.811 1_655 S
Ho41 O61 2.346 . S
Ho41 O65 2.305 . S
Ho41 O66 2.322 1_654 S
Ho41 O68 2.378 1_554 S
Ho41 O69 2.524 1_655 S
Ho41 O70 2.381 1_554 S
Ho41 O71 2.669 1_554 S
C42 O60 1.259 . S
C42 O61 1.268 . S
C43 Ho40 2.811 . S
C43 C44 1.488 . S
C43 O62 1.215 . S
C43 O63 1.289 1_554 S
C44 C43 1.488 . S
C44 C45 1.348 1_554 S
C44 C49 1.413 . S
C45 C44 1.348 1_556 S
C45 C46 1.442 . S
C45 H72 0.930 . S
C46 C45 1.442 . S
C46 C47 1.381 1_556 S
C46 H73 0.931 . S
C47 C46 1.381 1_554 S
C47 C48 1.321 . S
C48 C47 1.321 . S
C48 C49 1.403 . S
C48 H74 0.934 . S
C49 C44 1.413 . S
C49 C48 1.403 . S
C49 H75 0.930 . S
C50 O64 1.275 . S
C50 O65 1.256 . S
C51 O66 1.259 1_554 S
C51 O67 1.268 . S
C52 Ho41 2.811 1_455 S
C52 C53 1.488 . S
C52 O68 1.215 1_454 S
C52 O69 1.289 . S
C53 C52 1.488 . S
C53 C54 1.348 . S
C53 C58 1.413 1_554 S
C54 C53 1.348 . S
C54 C55 1.442 . S
C54 H76 0.930 . S
C55 C54 1.442 . S
C55 C56 1.381 . S
C55 H77 0.931 . S
C56 C55 1.381 . S
C56 C57 1.321 1_554 S
C57 C56 1.321 1_556 S
C57 C58 1.403 . S
C57 H78 0.934 . S
C58 C53 1.413 1_556 S
C58 C57 1.403 . S
C58 H79 0.930 . S
C59 O70 1.275 . S
C59 O71 1.256 . S
O60 Ho40 2.322 . S
O60 C42 1.259 . S
O61 Ho41 2.346 . S
O61 C42 1.268 . S
O62 Ho40 2.378 . S
O62 C43 1.215 . S
O63 Ho40 2.524 1_556 S
O63 C43 1.289 1_556 S
O64 Ho40 2.381 . S
O64 C50 1.275 . S
O65 Ho40 2.669 . S
O65 Ho41 2.305 . S
O65 C50 1.256 . S
O66 Ho41 2.322 1_456 S
O66 C51 1.259 1_556 S
O67 Ho40 2.346 1_455 S
O67 C51 1.268 . S
O68 Ho41 2.378 1_556 S
O68 C52 1.215 1_656 S
O69 Ho41 2.524 1_455 S
O69 C52 1.289 . S
O70 Ho41 2.381 1_556 S
O70 C59 1.275 . S
O71 Ho40 2.305 1_556 S
O71 Ho41 2.669 1_556 S
O71 C59 1.256 . S
H72 C45 0.930 . S
H73 C46 0.931 . S
H74 C48 0.934 . S
H75 C49 0.930 . S
H76 C54 0.930 . S
H77 C55 0.931 . S
H78 C57 0.934 . S
H79 C58 0.930 . S
Ho80 C83 2.811 . S
Ho80 O100 2.322 . S
Ho80 O102 2.378 . S
Ho80 O103 2.524 . S
Ho80 O104 2.381 . S
Ho80 O105 2.669 . S
Ho80 O107 2.346 1_455 S
Ho80 O111 2.305 . S
Ho81 C92 2.811 1_455 S
Ho81 O101 2.346 . S
Ho81 O105 2.305 . S
Ho81 O106 2.322 1_455 S
Ho81 O108 2.378 . S
Ho81 O109 2.524 1_455 S
Ho81 O110 2.381 . S
Ho81 O111 2.669 . S
C82 O100 1.259 . S
C82 O101 1.268 . S
C83 Ho80 2.811 . S
C83 C84 1.488 . S
C83 O102 1.215 . S
C83 O103 1.289 . S
C84 C83 1.488 . S
C84 C85 1.348 . S
C84 C89 1.413 . S
C85 C84 1.348 . S
C85 C86 1.442 . S
C85 H112 0.930 . S
C86 C85 1.442 . S
C86 C87 1.381 . S
C86 H113 0.931 . S
C87 C86 1.381 . S
C87 C88 1.321 . S
C88 C87 1.321 . S
C88 C89 1.403 . S
C88 H114 0.934 . S
C89 C84 1.413 . S
C89 C88 1.403 . S
C89 H115 0.930 . S
C90 O104 1.275 . S
C90 O105 1.256 . S
C91 O106 1.259 . S
C91 O107 1.268 . S
C92 Ho81 2.811 1_655 S
C92 C93 1.488 . S
C92 O108 1.215 1_655 S
C92 O109 1.289 . S
C93 C92 1.488 . S
C93 C94 1.348 . S
C93 C98 1.413 . S
C94 C93 1.348 . S
C94 C95 1.442 . S
C94 H116 0.930 . S
C95 C94 1.442 . S
C95 C96 1.381 . S
C95 H117 0.931 . S
C96 C95 1.381 . S
C96 C97 1.321 . S
C97 C96 1.321 . S
C97 C98 1.403 . S
C97 H118 0.934 . S
C98 C93 1.413 . S
C98 C97 1.403 . S
C98 H119 0.930 . S
C99 O110 1.275 . S
C99 O111 1.256 . S
O100 Ho80 2.322 . S
O100 C82 1.259 . S
O101 Ho81 2.346 . S
O101 C82 1.268 . S
O102 Ho80 2.378 . S
O102 C83 1.215 . S
O103 Ho80 2.524 . S
O103 C83 1.289 . S
O104 Ho80 2.381 . S
O104 C90 1.275 . S
O105 Ho80 2.669 . S
O105 Ho81 2.305 . S
O105 C90 1.256 . S
O106 Ho81 2.322 1_655 S
O106 C91 1.259 . S
O107 Ho80 2.346 1_655 S
O107 C91 1.268 . S
O108 Ho81 2.378 . S
O108 C92 1.215 1_455 S
O109 Ho81 2.524 1_655 S
O109 C92 1.289 . S
O110 Ho81 2.381 . S
O110 C99 1.275 . S
O111 Ho80 2.305 . S
O111 Ho81 2.669 . S
O111 C99 1.256 . S
H112 C85 0.930 . S
H113 C86 0.931 . S
H114 C88 0.934 . S
H115 C89 0.930 . S
H116 C94 0.930 . S
H117 C95 0.931 . S
H118 C97 0.934 . S
H119 C98 0.930 . S
Ho120 C123 2.811 1_655 S
Ho120 O140 2.322 1_655 S
Ho120 O142 2.378 . S
Ho120 O143 2.524 1_655 S
Ho120 O144 2.381 . S
Ho120 O145 2.669 . S
Ho120 O147 2.346 . S
Ho120 O151 2.305 . S
Ho121 C132 2.811 . S
Ho121 O141 2.346 1_655 S
Ho121 O145 2.305 . S
Ho121 O146 2.322 . S
Ho121 O148 2.378 . S
Ho121 O149 2.524 . S
Ho121 O150 2.381 . S
Ho121 O151 2.669 . S
C122 O140 1.259 . S
C122 O141 1.268 . S
C123 Ho120 2.811 1_455 S
C123 C124 1.488 . S
C123 O142 1.215 1_455 S
C123 O143 1.289 . S
C124 C123 1.488 . S
C124 C125 1.348 . S
C124 C129 1.413 . S
C125 C124 1.348 . S
C125 C126 1.442 . S
C125 H152 0.930 . S
C126 C125 1.442 . S
C126 C127 1.381 . S
C126 H153 0.931 . S
C127 C126 1.381 . S
C127 C128 1.321 . S
C128 C127 1.321 . S
C128 C129 1.403 . S
C128 H154 0.934 . S
C129 C124 1.413 . S
C129 C128 1.403 . S
C129 H155 0.930 . S
C130 O144 1.275 . S
C130 O145 1.256 . S
C131 O146 1.259 . S
C131 O147 1.268 . S
C132 Ho121 2.811 . S
C132 C133 1.488 . S
C132 O148 1.215 . S
C132 O149 1.289 . S
C133 C132 1.488 . S
C133 C134 1.348 . S
C133 C138 1.413 . S
C134 C133 1.348 . S
C134 C135 1.442 . S
C134 H156 0.930 . S
C135 C134 1.442 . S
C135 C136 1.381 . S
C135 H157 0.931 . S
C136 C135 1.381 . S
C136 C137 1.321 . S
C137 C136 1.321 . S
C137 C138 1.403 . S
C137 H158 0.934 . S
C138 C133 1.413 . S
C138 C137 1.403 . S
C138 H159 0.930 . S
C139 O150 1.275 . S
C139 O151 1.256 . S
O140 Ho120 2.322 1_455 S
O140 C122 1.259 . S
O141 Ho121 2.346 1_455 S
O141 C122 1.268 . S
O142 Ho120 2.378 . S
O142 C123 1.215 1_655 S
O143 Ho120 2.524 1_455 S
O143 C123 1.289 . S
O144 Ho120 2.381 . S
O144 C130 1.275 . S
O145 Ho120 2.669 . S
O145 Ho121 2.305 . S
O145 C130 1.256 . S
O146 Ho121 2.322 . S
O146 C131 1.259 . S
O147 Ho120 2.346 . S
O147 C131 1.268 . S
O148 Ho121 2.378 . S
O148 C132 1.215 . S
O149 Ho121 2.524 . S
O149 C132 1.289 . S
O150 Ho121 2.381 . S
O150 C139 1.275 . S
O151 Ho120 2.305 . S
O151 Ho121 2.669 . S
O151 C139 1.256 . S
H152 C125 0.930 . S
H153 C126 0.931 . S
H154 C128 0.934 . S
H155 C129 0.930 . S
H156 C134 0.930 . S
H157 C135 0.931 . S
H158 C137 0.934 . S
H159 C138 0.930 . S
Ho160 C163 2.811 . S
Ho160 O180 2.322 . S
Ho160 O182 2.378 . S
Ho160 O183 2.524 1_554 S
Ho160 O184 2.381 . S
Ho160 O185 2.669 . S
Ho160 O187 2.346 . S
Ho160 O191 2.305 1_554 S
Ho161 C172 2.811 . S
Ho161 O181 2.346 . S
Ho161 O185 2.305 . S
Ho161 O186 2.322 1_554 S
Ho161 O188 2.378 1_554 S
Ho161 O189 2.524 . S
Ho161 O190 2.381 1_554 S
Ho161 O191 2.669 1_554 S
C162 O180 1.259 . S
C162 O181 1.268 . S
C163 Ho160 2.811 . S
C163 C164 1.488 . S
C163 O182 1.215 . S
C163 O183 1.289 1_554 S
C164 C163 1.488 . S
C164 C165 1.348 1_554 S
C164 C169 1.413 . S
C165 C164 1.348 1_556 S
C165 C166 1.442 . S
C165 H192 0.930 . S
C166 C165 1.442 . S
C166 C167 1.381 1_556 S
C166 H193 0.931 . S
C167 C166 1.381 1_554 S
C167 C168 1.321 . S
C168 C167 1.321 . S
C168 C169 1.403 . S
C168 H194 0.934 . S
C169 C164 1.413 . S
C169 C168 1.403 . S
C169 H195 0.930 . S
C170 O184 1.275 . S
C170 O185 1.256 . S
C171 O186 1.259 1_554 S
C171 O187 1.268 . S
C172 Ho161 2.811 . S
C172 C173 1.488 . S
C172 O188 1.215 1_554 S
C172 O189 1.289 . S
C173 C172 1.488 . S
C173 C174 1.348 . S
C173 C178 1.413 1_554 S
C174 C173 1.348 . S
C174 C175 1.442 . S
C174 H196 0.930 . S
C175 C174 1.442 . S
C175 C176 1.381 . S
C175 H197 0.931 . S
C176 C175 1.381 . S
C176 C177 1.321 1_554 S
C177 C176 1.321 1_556 S
C177 C178 1.403 . S
C177 H198 0.934 . S
C178 C173 1.413 1_556 S
C178 C177 1.403 . S
C178 H199 0.930 . S
C179 O190 1.275 . S
C179 O191 1.256 . S
O180 Ho160 2.322 . S
O180 C162 1.259 . S
O181 Ho161 2.346 . S
O181 C162 1.268 . S
O182 Ho160 2.378 . S
O182 C163 1.215 . S
O183 Ho160 2.524 1_556 S
O183 C163 1.289 1_556 S
O184 Ho160 2.381 . S
O184 C170 1.275 . S
O185 Ho160 2.669 . S
O185 Ho161 2.305 . S
O185 C170 1.256 . S
O186 Ho161 2.322 1_556 S
O186 C171 1.259 1_556 S
O187 Ho160 2.346 . S
O187 C171 1.268 . S
O188 Ho161 2.378 1_556 S
O188 C172 1.215 1_556 S
O189 Ho161 2.524 . S
O189 C172 1.289 . S
O190 Ho161 2.381 1_556 S
O190 C179 1.275 . S
O191 Ho160 2.305 1_556 S
O191 Ho161 2.669 1_556 S
O191 C179 1.256 . S
H192 C165 0.930 . S
H193 C166 0.931 . S
H194 C168 0.934 . S
H195 C169 0.930 . S
H196 C174 0.930 . S
H197 C175 0.931 . S
H198 C177 0.934 . S
H199 C178 0.930 . S
Ho200 C203 2.811 . S
Ho200 O220 2.322 . S
Ho200 O222 2.378 . S
Ho200 O223 2.524 1_554 S
Ho200 O224 2.381 . S
Ho200 O225 2.669 . S
Ho200 O227 2.346 . S
Ho200 O231 2.305 1_554 S
Ho201 C212 2.811 . S
Ho201 O221 2.346 . S
Ho201 O225 2.305 . S
Ho201 O226 2.322 1_554 S
Ho201 O228 2.378 1_554 S
Ho201 O229 2.524 . S
Ho201 O230 2.381 1_554 S
Ho201 O231 2.669 1_554 S
C202 O220 1.259 . S
C202 O221 1.268 . S
C203 Ho200 2.811 . S
C203 C204 1.488 . S
C203 O222 1.215 . S
C203 O223 1.289 1_554 S
C204 C203 1.488 . S
C204 C205 1.348 1_554 S
C204 C209 1.413 . S
C205 C204 1.348 1_556 S
C205 C206 1.442 . S
C205 H232 0.930 . S
C206 C205 1.442 . S
C206 C207 1.381 1_556 S
C206 H233 0.931 . S
C207 C206 1.381 1_554 S
C207 C208 1.321 . S
C208 C207 1.321 . S
C208 C209 1.403 . S
C208 H234 0.934 . S
C209 C204 1.413 . S
C209 C208 1.403 . S
C209 H235 0.930 . S
C210 O224 1.275 . S
C210 O225 1.256 . S
C211 O226 1.259 1_554 S
C211 O227 1.268 . S
C212 Ho201 2.811 . S
C212 C213 1.488 . S
C212 O228 1.215 1_554 S
C212 O229 1.289 . S
C213 C212 1.488 . S
C213 C214 1.348 . S
C213 C218 1.413 1_554 S
C214 C213 1.348 . S
C214 C215 1.442 . S
C214 H236 0.930 . S
C215 C214 1.442 . S
C215 C216 1.381 . S
C215 H237 0.931 . S
C216 C215 1.381 . S
C216 C217 1.321 1_554 S
C217 C216 1.321 1_556 S
C217 C218 1.403 . S
C217 H238 0.934 . S
C218 C213 1.413 1_556 S
C218 C217 1.403 . S
C218 H239 0.930 . S
C219 O230 1.275 . S
C219 O231 1.256 . S
O220 Ho200 2.322 . S
O220 C202 1.259 . S
O221 Ho201 2.346 . S
O221 C202 1.268 . S
O222 Ho200 2.378 . S
O222 C203 1.215 . S
O223 Ho200 2.524 1_556 S
O223 C203 1.289 1_556 S
O224 Ho200 2.381 . S
O224 C210 1.275 . S
O225 Ho200 2.669 . S
O225 Ho201 2.305 . S
O225 C210 1.256 . S
O226 Ho201 2.322 1_556 S
O226 C211 1.259 1_556 S
O227 Ho200 2.346 . S
O227 C211 1.268 . S
O228 Ho201 2.378 1_556 S
O228 C212 1.215 1_556 S
O229 Ho201 2.524 . S
O229 C212 1.289 . S
O230 Ho201 2.381 1_556 S
O230 C219 1.275 . S
O231 Ho200 2.305 1_556 S
O231 Ho201 2.669 1_556 S
O231 C219 1.256 . S
H232 C205 0.930 . S
H233 C206 0.931 . S
H234 C208 0.934 . S
H235 C209 0.930 . S
H236 C214 0.930 . S
H237 C215 0.931 . S
H238 C217 0.934 . S
H239 C218 0.930 . S
Ho240 C243 2.811 . S
Ho240 O260 2.322 . S
Ho240 O262 2.378 . S
Ho240 O263 2.524 . S
Ho240 O264 2.381 . S
Ho240 O265 2.669 . S
Ho240 O267 2.346 . S
Ho240 O271 2.305 . S
Ho241 C252 2.811 . S
Ho241 O261 2.346 . S
Ho241 O265 2.305 . S
Ho241 O266 2.322 . S
Ho241 O268 2.378 . S
Ho241 O269 2.524 . S
Ho241 O270 2.381 . S
Ho241 O271 2.669 . S
C242 O260 1.259 . S
C242 O261 1.268 . S
C243 Ho240 2.811 . S
C243 C244 1.488 . S
C243 O262 1.215 . S
C243 O263 1.289 . S
C244 C243 1.488 . S
C244 C245 1.348 . S
C244 C249 1.413 . S
C245 C244 1.348 . S
C245 C246 1.442 . S
C245 H272 0.930 . S
C246 C245 1.442 . S
C246 C247 1.381 . S
C246 H273 0.931 . S
C247 C246 1.381 . S
C247 C248 1.321 . S
C248 C247 1.321 . S
C248 C249 1.403 . S
C248 H274 0.934 . S
C249 C244 1.413 . S
C249 C248 1.403 . S
C249 H275 0.930 . S
C250 O264 1.275 . S
C250 O265 1.256 . S
C251 O266 1.259 . S
C251 O267 1.268 . S
C252 Ho241 2.811 . S
C252 C253 1.488 . S
C252 O268 1.215 . S
C252 O269 1.289 . S
C253 C252 1.488 . S
C253 C254 1.348 . S
C253 C258 1.413 . S
C254 C253 1.348 . S
C254 C255 1.442 . S
C254 H276 0.930 . S
C255 C254 1.442 . S
C255 C256 1.381 . S
C255 H277 0.931 . S
C256 C255 1.381 . S
C256 C257 1.321 . S
C257 C256 1.321 . S
C257 C258 1.403 . S
C257 H278 0.934 . S
C258 C253 1.413 . S
C258 C257 1.403 . S
C258 H279 0.930 . S
C259 O270 1.275 . S
C259 O271 1.256 . S
O260 Ho240 2.322 . S
O260 C242 1.259 . S
O261 Ho241 2.346 . S
O261 C242 1.268 . S
O262 Ho240 2.378 . S
O262 C243 1.215 . S
O263 Ho240 2.524 . S
O263 C243 1.289 . S
O264 Ho240 2.381 . S
O264 C250 1.275 . S
O265 Ho240 2.669 . S
O265 Ho241 2.305 . S
O265 C250 1.256 . S
O266 Ho241 2.322 . S
O266 C251 1.259 . S
O267 Ho240 2.346 . S
O267 C251 1.268 . S
O268 Ho241 2.378 . S
O268 C252 1.215 . S
O269 Ho241 2.524 . S
O269 C252 1.289 . S
O270 Ho241 2.381 . S
O270 C259 1.275 . S
O271 Ho240 2.305 . S
O271 Ho241 2.669 . S
O271 C259 1.256 . S
H272 C245 0.930 . S
H273 C246 0.931 . S
H274 C248 0.934 . S
H275 C249 0.930 . S
H276 C254 0.930 . S
H277 C255 0.931 . S
H278 C257 0.934 . S
H279 C258 0.930 . S
Ho280 C283 2.811 . S
Ho280 O300 2.322 . S
Ho280 O302 2.378 . S
Ho280 O303 2.524 . S
Ho280 O304 2.381 . S
Ho280 O305 2.669 . S
Ho280 O307 2.346 . S
Ho280 O311 2.305 . S
Ho281 C292 2.811 . S
Ho281 O301 2.346 . S
Ho281 O305 2.305 . S
Ho281 O306 2.322 . S
Ho281 O308 2.378 . S
Ho281 O309 2.524 . S
Ho281 O310 2.381 . S
Ho281 O311 2.669 . S
C282 O300 1.259 . S
C282 O301 1.268 . S
C283 Ho280 2.811 . S
C283 C284 1.488 . S
C283 O302 1.215 . S
C283 O303 1.289 . S
C284 C283 1.488 . S
C284 C285 1.348 . S
C284 C289 1.413 . S
C285 C284 1.348 . S
C285 C286 1.442 . S
C285 H312 0.930 . S
C286 C285 1.442 . S
C286 C287 1.381 . S
C286 H313 0.931 . S
C287 C286 1.381 . S
C287 C288 1.321 . S
C288 C287 1.321 . S
C288 C289 1.403 . S
C288 H314 0.934 . S
C289 C284 1.413 . S
C289 C288 1.403 . S
C289 H315 0.930 . S
C290 O304 1.275 . S
C290 O305 1.256 . S
C291 O306 1.259 . S
C291 O307 1.268 . S
C292 Ho281 2.811 . S
C292 C293 1.488 . S
C292 O308 1.215 . S
C292 O309 1.289 . S
C293 C292 1.488 . S
C293 C294 1.348 . S
C293 C298 1.413 . S
C294 C293 1.348 . S
C294 C295 1.442 . S
C294 H316 0.930 . S
C295 C294 1.442 . S
C295 C296 1.381 . S
C295 H317 0.931 . S
C296 C295 1.381 . S
C296 C297 1.321 . S
C297 C296 1.321 . S
C297 C298 1.403 . S
C297 H318 0.934 . S
C298 C293 1.413 . S
C298 C297 1.403 . S
C298 H319 0.930 . S
C299 O310 1.275 . S
C299 O311 1.256 . S
O300 Ho280 2.322 . S
O300 C282 1.259 . S
O301 Ho281 2.346 . S
O301 C282 1.268 . S
O302 Ho280 2.378 . S
O302 C283 1.215 . S
O303 Ho280 2.524 . S
O303 C283 1.289 . S
O304 Ho280 2.381 . S
O304 C290 1.275 . S
O305 Ho280 2.669 . S
O305 Ho281 2.305 . S
O305 C290 1.256 . S
O306 Ho281 2.322 . S
O306 C291 1.259 . S
O307 Ho280 2.346 . S
O307 C291 1.268 . S
O308 Ho281 2.378 . S
O308 C292 1.215 . S
O309 Ho281 2.524 . S
O309 C292 1.289 . S
O310 Ho281 2.381 . S
O310 C299 1.275 . S
O311 Ho280 2.305 . S
O311 Ho281 2.669 . S
O311 C299 1.256 . S
H312 C285 0.930 . S
H313 C286 0.931 . S
H314 C288 0.934 . S
H315 C289 0.930 . S
H316 C294 0.930 . S
H317 C295 0.931 . S
H318 C297 0.934 . S
H319 C298 0.930 . S
C320 C321 1.369 . S
C320 C322 1.419 . S
C320 H324 0.930 1_554 S
C321 C320 1.369 . S
C321 C330 1.429 . S
C322 C320 1.419 . S
C322 C323 1.363 . S
C322 H325 0.929 1_554 S
C323 C322 1.363 . S
C323 C329 1.428 . S
H324 C320 0.930 1_556 S
H325 C322 0.929 1_556 S
S326 N327 1.613 . S
S326 N328 1.610 . S
N327 S326 1.613 . S
N327 C330 1.350 . S
N328 S326 1.610 . S
N328 C329 1.351 . S
C329 C323 1.428 . S
C329 N328 1.351 . S
C329 C330 1.434 . S
C330 C321 1.429 . S
C330 N327 1.350 . S
C330 C329 1.434 . S
C331 C332 1.369 1_556 S
C331 C333 1.419 . S
C331 H335 0.930 . S
C332 C331 1.369 1_554 S
C332 C341 1.429 . S
C333 C331 1.419 . S
C333 C334 1.363 1_556 S
C333 H336 0.929 . S
C334 C333 1.363 1_554 S
C334 C340 1.428 . S
H335 C331 0.930 . S
H336 C333 0.929 . S
S337 N338 1.613 . S
S337 N339 1.610 . S
N338 S337 1.613 . S
N338 C341 1.350 . S
N339 S337 1.610 . S
N339 C340 1.351 . S
C340 C334 1.428 . S
C340 N339 1.351 . S
C340 C341 1.434 . S
C341 C332 1.429 . S
C341 N338 1.350 . S
C341 C340 1.434 . S
C342 C343 1.369 . S
C342 C344 1.419 . S
C342 H346 0.930 . S
C343 C342 1.369 . S
C343 C352 1.429 . S
C344 C342 1.419 . S
C344 C345 1.363 . S
C344 H347 0.929 . S
C345 C344 1.363 . S
C345 C351 1.428 . S
H346 C342 0.930 . S
H347 C344 0.929 . S
S348 N349 1.613 . S
S348 N350 1.610 . S
N349 S348 1.613 . S
N349 C352 1.350 . S
N350 S348 1.610 . S
N350 C351 1.351 . S
C351 C345 1.428 . S
C351 N350 1.351 . S
C351 C352 1.434 . S
C352 C343 1.429 . S
C352 N349 1.350 . S
C352 C351 1.434 . S
C353 C354 1.369 . S
C353 C355 1.419 . S
C353 H357 0.930 . S
C354 C353 1.369 . S
C354 C363 1.429 . S
C355 C353 1.419 . S
C355 C356 1.363 . S
C355 H358 0.929 . S
C356 C355 1.363 . S
C356 C362 1.428 . S
H357 C353 0.930 . S
H358 C355 0.929 . S
S359 N360 1.613 . S
S359 N361 1.610 . S
N360 S359 1.613 . S
N360 C363 1.350 . S
N361 S359 1.610 . S
N361 C362 1.351 . S
C362 C356 1.428 . S
C362 N361 1.351 . S
C362 C363 1.434 . S
C363 C354 1.429 . S
C363 N360 1.350 . S
C363 C362 1.434 . S
C364 C365 1.369 . S
C364 C366 1.419 1_655 S
C364 H368 0.930 . S
C365 C364 1.369 . S
C365 C374 1.429 1_654 S
C366 C364 1.419 1_455 S
C366 C367 1.363 . S
C366 H369 0.929 . S
C367 C366 1.363 . S
C367 C373 1.428 1_554 S
H368 C364 0.930 . S
H369 C366 0.929 . S
S370 N371 1.613 . S
S370 N372 1.610 . S
N371 S370 1.613 . S
N371 C374 1.350 . S
N372 S370 1.610 . S
N372 C373 1.351 . S
C373 C367 1.428 1_556 S
C373 N372 1.351 . S
C373 C374 1.434 . S
C374 C365 1.429 1_456 S
C374 N371 1.350 . S
C374 C373 1.434 . S
C375 C376 1.369 1_656 S
C375 C377 1.419 . S
C375 H379 0.930 1_655 S
C376 C375 1.369 1_454 S
C376 C385 1.429 1_455 S
C377 C375 1.419 . S
C377 C378 1.363 1_556 S
C377 H380 0.929 . S
C378 C377 1.363 1_554 S
C378 C384 1.428 . S
H379 C375 0.930 1_455 S
H380 C377 0.929 . S
S381 N382 1.613 1_655 S
S381 N383 1.610 . S
N382 S381 1.613 1_455 S
N382 C385 1.350 1_455 S
N383 S381 1.610 . S
N383 C384 1.351 . S
C384 C378 1.428 . S
C384 N383 1.351 . S
C384 C385 1.434 . S
C385 C376 1.429 1_655 S
C385 N382 1.350 1_655 S
C385 C384 1.434 . S
C386 C387 1.369 . S
C386 C388 1.419 1_455 S
C386 H390 0.930 . S
C387 C386 1.369 . S
C387 C396 1.429 . S
C388 C386 1.419 1_655 S
C388 C389 1.363 . S
C388 H391 0.929 . S
C389 C388 1.363 . S
C389 C395 1.428 1_655 S
H390 C386 0.930 . S
H391 C388 0.929 . S
S392 N393 1.613 . S
S392 N394 1.610 . S
N393 S392 1.613 . S
N393 C396 1.350 . S
N394 S392 1.610 . S
N394 C395 1.351 . S
C395 C389 1.428 1_455 S
C395 N394 1.351 . S
C395 C396 1.434 . S
C396 C387 1.429 . S
C396 N393 1.350 . S
C396 C395 1.434 . S
C397 C398 1.369 . S
C397 C399 1.419 1_655 S
C397 H401 0.930 . S
C398 C397 1.369 . S
C398 C407 1.429 . S
C399 C397 1.419 1_455 S
C399 C400 1.363 . S
C399 H402 0.929 . S
C400 C399 1.363 . S
C400 C406 1.428 1_455 S
H401 C397 0.930 . S
H402 C399 0.929 . S
S403 N404 1.613 . S
S403 N405 1.610 . S
N404 S403 1.613 . S
N404 C407 1.350 . S
N405 S403 1.610 . S
N405 C406 1.351 . S
C406 C400 1.428 1_655 S
C406 N405 1.351 . S
C406 C407 1.434 . S
C407 C398 1.429 . S
C407 N404 1.350 . S
C407 C406 1.434 . S
C408 C409 1.369 1_556 S
C408 C410 1.419 . S
C408 H412 0.930 . S
C409 C408 1.369 1_554 S
C409 C418 1.429 1_455 S
C410 C408 1.419 . S
C410 C411 1.363 1_456 S
C410 H413 0.929 . S
C411 C410 1.363 1_654 S
C411 C417 1.428 . S
H412 C408 0.930 . S
H413 C410 0.929 . S
S414 N415 1.613 . S
S414 N416 1.610 . S
N415 S414 1.613 . S
N415 C418 1.350 . S
N416 S414 1.610 . S
N416 C417 1.351 . S
C417 C411 1.428 . S
C417 N416 1.351 . S
C417 C418 1.434 . S
C418 C409 1.429 1_655 S
C418 N415 1.350 . S
C418 C417 1.434 . S
C419 C420 1.369 . S
C419 C421 1.419 1_455 S
C419 H423 0.930 . S
C420 C419 1.369 . S
C420 C429 1.429 . S
C421 C419 1.419 1_655 S
C421 C422 1.363 . S
C421 H424 0.929 . S
C422 C421 1.363 . S
C422 C428 1.428 . S
H423 C419 0.930 . S
H424 C421 0.929 . S
S425 N426 1.613 . S
S425 N427 1.610 1_455 S
N426 S425 1.613 . S
N426 C429 1.350 . S
N427 S425 1.610 1_655 S
N427 C428 1.351 . S
C428 C422 1.428 . S
C428 N427 1.351 . S
C428 C429 1.434 1_655 S
C429 C420 1.429 . S
C429 N426 1.350 . S
C429 C428 1.434 1_455 S
C430 C431 1.366 . S
C430 C432 1.421 1_565 S
C430 H434 0.929 1_565 S
C431 C430 1.366 . S
C431 C440 1.429 1_554 S
C432 C430 1.421 1_545 S
C432 C433 1.363 . S
C432 H435 0.929 . S
C433 C432 1.363 . S
C433 C439 1.400 1_544 S
H434 C430 0.929 1_545 S
H435 C432 0.929 . S
S436 N437 1.613 . S
S436 N438 1.610 . S
N437 S436 1.613 . S
N437 C440 1.350 . S
N438 S436 1.610 . S
N438 C439 1.357 . S
C439 C433 1.400 1_566 S
C439 N438 1.357 . S
C439 C440 1.462 . S
C440 C431 1.429 1_556 S
C440 N437 1.350 . S
C440 C439 1.462 . S
C441 C442 1.347 1_565 S
C441 C443 1.439 . S
C441 H445 0.933 . S
C442 C441 1.347 1_545 S
C442 C451 1.429 . S
C443 C441 1.439 . S
C443 C444 1.363 . S
C443 H446 0.929 . S
C444 C443 1.363 . S
C444 C450 1.382 1_565 S
H445 C441 0.933 . S
H446 C443 0.929 . S
S447 N448 1.613 . S
S447 N449 1.610 . S
N448 S447 1.613 . S
N448 C451 1.350 . S
N449 S447 1.610 . S
N449 C450 1.360 . S
C450 C444 1.382 1_545 S
C450 N449 1.360 . S
C450 C451 1.477 . S
C451 C442 1.429 . S
C451 N448 1.350 . S
C451 C450 1.477 . S
C452 C453 1.369 1_556 S
C452 C454 1.419 . S
C452 H456 0.930 . S
C453 C452 1.369 1_554 S
C453 C462 1.429 . S
C454 C452 1.419 . S
C454 C455 1.363 1_556 S
C454 H457 0.929 . S
C455 C454 1.363 1_554 S
C455 C461 1.428 . S
H456 C452 0.930 . S
H457 C454 0.929 . S
S458 N459 1.613 . S
S458 N460 1.610 . S
N459 S458 1.613 . S
N459 C462 1.350 . S
N460 S458 1.610 . S
N460 C461 1.351 . S
C461 C455 1.428 . S
C461 N460 1.351 . S
C461 C462 1.434 . S
C462 C453 1.429 . S
C462 N459 1.350 . S
C462 C461 1.434 . S
C463 C464 1.369 . S
C463 C465 1.419 . S
C463 H467 0.930 . S
C464 C463 1.369 . S
C464 C473 1.429 1_554 S
C465 C463 1.419 . S
C465 C466 1.363 . S
C465 H468 0.929 . S
C466 C465 1.363 . S
C466 C472 1.428 1_554 S
H467 C463 0.930 . S
H468 C465 0.929 . S
S469 N470 1.613 . S
S469 N471 1.610 . S
N470 S469 1.613 . S
N470 C473 1.350 . S
N471 S469 1.610 . S
N471 C472 1.351 . S
C472 C466 1.428 1_556 S
C472 N471 1.351 . S
C472 C473 1.434 . S
C473 C464 1.429 1_556 S
C473 N470 1.350 . S
C473 C472 1.434 . S
C474 C475 1.369 . S
C474 C476 1.419 . S
C474 H478 0.930 . S
C475 C474 1.369 . S
C475 C484 1.429 . S
C476 C474 1.419 . S
C476 C477 1.363 . S
C476 H479 0.929 . S
C477 C476 1.363 . S
C477 C483 1.428 . S
H478 C474 0.930 . S
H479 C476 0.929 . S
S480 N481 1.613 . S
S480 N482 1.610 . S
N481 S480 1.613 . S
N481 C484 1.350 . S
N482 S480 1.610 . S
N482 C483 1.351 . S
C483 C477 1.428 . S
C483 N482 1.351 . S
C483 C484 1.434 . S
C484 C475 1.429 . S
C484 N481 1.350 . S
C484 C483 1.434 . S
C485 C486 1.369 . S
C485 C487 1.419 . S
C485 H489 0.930 . S
C486 C485 1.369 . S
C486 C495 1.429 . S
C487 C485 1.419 . S
C487 C488 1.363 . S
C487 H490 0.929 . S
C488 C487 1.363 . S
C488 C494 1.428 . S
H489 C485 0.930 . S
H490 C487 0.929 . S
S491 N492 1.613 . S
S491 N493 1.610 . S
N492 S491 1.613 . S
N492 C495 1.350 . S
N493 S491 1.610 . S
N493 C494 1.351 . S
C494 C488 1.428 . S
C494 N493 1.351 . S
C494 C495 1.434 . S
C495 C486 1.429 . S
C495 N492 1.350 . S
C495 C494 1.434 . S
C496 C497 1.369 . S
C496 C498 1.419 . S
C496 H500 0.930 . S
C497 C496 1.369 . S
C497 C506 1.429 1_455 S
C498 C496 1.419 . S
C498 C499 1.363 1_455 S
C498 H501 0.929 . S
C499 C498 1.363 1_655 S
C499 C505 1.428 . S
H500 C496 0.930 . S
H501 C498 0.929 . S
S502 N503 1.613 . S
S502 N504 1.610 . S
N503 S502 1.613 . S
N503 C506 1.350 . S
N504 S502 1.610 . S
N504 C505 1.351 . S
C505 C499 1.428 . S
C505 N504 1.351 . S
C505 C506 1.434 . S
C506 C497 1.429 1_655 S
C506 N503 1.350 . S
C506 C505 1.434 . S
C507 C508 1.369 1_455 S
C507 C509 1.419 . S
C507 H511 0.930 . S
C508 C507 1.369 1_655 S
C508 C517 1.429 . S
C509 C507 1.419 . S
C509 C510 1.363 . S
C509 H512 0.929 . S
C510 C509 1.363 . S
C510 C516 1.428 1_455 S
H511 C507 0.930 . S
H512 C509 0.929 . S
S513 N514 1.613 . S
S513 N515 1.610 . S
N514 S513 1.613 . S
N514 C517 1.350 . S
N515 S513 1.610 . S
N515 C516 1.351 . S
C516 C510 1.428 1_655 S
C516 N515 1.351 . S
C516 C517 1.434 . S
C517 C508 1.429 . S
C517 N514 1.350 . S
C517 C516 1.434 . S
C518 C519 1.369 . S
C518 C520 1.419 . S
C518 H522 0.930 . S
C519 C518 1.369 . S
C519 C528 1.429 1_655 S
C520 C518 1.419 . S
C520 C521 1.363 1_655 S
C520 H523 0.929 . S
C521 C520 1.363 1_455 S
C521 C527 1.428 . S
H522 C518 0.930 . S
H523 C520 0.929 . S
S524 N525 1.613 . S
S524 N526 1.610 . S
N525 S524 1.613 . S
N525 C528 1.350 . S
N526 S524 1.610 . S
N526 C527 1.351 . S
C527 C521 1.428 . S
C527 N526 1.351 . S
C527 C528 1.434 . S
C528 C519 1.429 1_455 S
C528 N525 1.350 . S
C528 C527 1.434 . S
C529 C530 1.369 . S
C529 C531 1.419 . S
C529 H533 0.930 . S
C530 C529 1.369 . S
C530 C539 1.429 1_655 S
C531 C529 1.419 . S
C531 C532 1.363 1_655 S
C531 H534 0.929 . S
C532 C531 1.363 1_455 S
C532 C538 1.428 . S
H533 C529 0.930 . S
H534 C531 0.929 . S
S535 N536 1.613 . S
S535 N537 1.610 . S
N536 S535 1.613 . S
N536 C539 1.350 . S
N537 S535 1.610 . S
N537 C538 1.351 . S
C538 C532 1.428 . S
C538 N537 1.351 . S
C538 C539 1.434 . S
C539 C530 1.429 1_455 S
C539 N536 1.350 . S
C539 C538 1.434 . S
C540 C541 1.369 . S
C540 C542 1.419 . S
C540 H544 0.930 . S
C541 C540 1.369 . S
C541 C550 1.429 . S
C542 C540 1.419 . S
C542 C543 1.363 . S
C542 H545 0.929 . S
C543 C542 1.363 . S
C543 C549 1.428 . S
H544 C540 0.930 . S
H545 C542 0.929 . S
S546 N547 1.613 . S
S546 N548 1.610 . S
N547 S546 1.613 . S
N547 C550 1.350 . S
N548 S546 1.610 . S
N548 C549 1.351 . S
C549 C543 1.428 . S
C549 N548 1.351 . S
C549 C550 1.434 . S
C550 C541 1.429 . S
C550 N547 1.350 . S
C550 C549 1.434 . S
C551 C552 1.369 . S
C551 C553 1.419 . S
C551 H555 0.930 . S
C552 C551 1.369 . S
C552 C561 1.429 . S
C553 C551 1.419 . S
C553 C554 1.363 . S
C553 H556 0.929 . S
C554 C553 1.363 . S
C554 C560 1.428 . S
H555 C551 0.930 . S
H556 C553 0.929 . S
S557 N558 1.613 . S
S557 N559 1.610 . S
N558 S557 1.613 . S
N558 C561 1.350 . S
N559 S557 1.610 . S
N559 C560 1.351 . S
C560 C554 1.428 . S
C560 N559 1.351 . S
C560 C561 1.434 . S
C561 C552 1.429 . S
C561 N558 1.350 . S
C561 C560 1.434 . S
C562 C563 1.369 . S
C562 C564 1.419 . S
C562 H566 0.930 . S
C563 C562 1.369 . S
C563 C572 1.429 . S
C564 C562 1.419 . S
C564 C565 1.363 . S
C564 H567 0.929 . S
C565 C564 1.363 . S
C565 C571 1.428 . S
H566 C562 0.930 . S
H567 C564 0.929 . S
S568 N569 1.613 . S
S568 N570 1.610 . S
N569 S568 1.613 . S
N569 C572 1.350 . S
N570 S568 1.610 . S
N570 C571 1.351 . S
C571 C565 1.428 . S
C571 N570 1.351 . S
C571 C572 1.434 . S
C572 C563 1.429 . S
C572 N569 1.350 . S
C572 C571 1.434 . S
C573 C574 1.369 . S
C573 C575 1.419 . S
C573 H577 0.930 . S
C574 C573 1.369 . S
C574 C583 1.429 . S
C575 C573 1.419 . S
C575 C576 1.363 . S
C575 H578 0.929 . S
C576 C575 1.363 . S
C576 C582 1.428 . S
H577 C573 0.930 . S
H578 C575 0.929 . S
S579 N580 1.613 . S
S579 N581 1.610 . S
N580 S579 1.613 . S
N580 C583 1.350 . S
N581 S579 1.610 . S
N581 C582 1.351 . S
C582 C576 1.428 . S
C582 N581 1.351 . S
C582 C583 1.434 . S
C583 C574 1.429 . S
C583 N580 1.350 . S
C583 C582 1.434 . S
C321 C11 2.277 . S
C323 C2 2.283 . S
C332 C51 2.283 . S
C334 C42 2.279 . S
C343 C91 2.278 . S
C345 C82 2.282 . S
C354 C131 2.278 . S
C356 C122 2.282 . S
C365 C171 2.284 . S
C367 C162 2.278 . S
C376 C202 2.278 . S
C378 C211 2.282 . S
C387 C251 2.279 . S
C389 C242 2.281 . S
C398 C282 2.280 . S
C400 C291 2.281 . S
C409 C56 2.924 . S
C411 C7 2.925 . S
C420 C127 2.924 . S
C422 C96 2.923 . S
C431 C167 2.919 . S
C433 C216 2.926 . S
C442 C256 2.923 . S
C444 C287 2.926 . S
C453 C16 2.050 . S
C455 C207 2.049 . S
C464 C176 2.044 . S
C466 C47 2.053 . S
C475 C87 2.048 . S
C477 C296 2.050 . S
C486 C136 2.052 . S
C488 C247 2.046 . S
C497 C10 1.488 . S
C499 C130 1.491 . S
C508 C50 1.592 . S
C510 C90 1.590 . S
C519 C59 1.495 . S
C521 C99 1.495 . S
C530 C139 1.588 . S
C532 C19 1.591 . S
C541 C170 1.493 . S
C543 C290 1.494 . S
C552 C210 1.594 . S
C554 C250 1.590 . S
C563 C219 1.495 . S
C565 C259 1.494 . S
C574 C299 1.591 . S
C576 C179 1.597 . S
