# Generated by pormake.
# Topology svz, (7)-cn, num edge types: 1
# Building blocks:
#     Node 0, Type 0, BuildingBlock: NUHQUE_clean_sbu_2, # of connection points: 7
#     Node 1, Type 0, BuildingBlock: NUHQUE_clean_sbu_2, # of connection points: 7
#     Node 2, Type 0, BuildingBlock: NUHQUE_clean_sbu_2, # of connection points: 7
#     Node 3, Type 0, BuildingBlock: NUHQUE_clean_sbu_2, # of connection points: 7
#     Node 4, Type 0, BuildingBlock: NUHQUE_clean_sbu_2, # of connection points: 7
#     Node 5, Type 0, BuildingBlock: NUHQUE_clean_sbu_2, # of connection points: 7
#     Node 6, Type 0, BuildingBlock: NUHQUE_clean_sbu_2, # of connection points: 7
#     Node 7, Type 0, BuildingBlock: NUHQUE_clean_sbu_2, # of connection points: 7
#     Node 8, Type 0, BuildingBlock: NUHQUE_clean_sbu_2, # of connection points: 7
#     Node 9, Type 0, BuildingBlock: NUHQUE_clean_sbu_2, # of connection points: 7
#     Node 10, Type 0, BuildingBlock: NUHQUE_clean_sbu_2, # of connection points: 7
#     Node 11, Type 0, BuildingBlock: NUHQUE_clean_sbu_2, # of connection points: 7
#     Node 12, Type 0, BuildingBlock: NUHQUE_clean_sbu_2, # of connection points: 7
#     Node 13, Type 0, BuildingBlock: NUHQUE_clean_sbu_2, # of connection points: 7
#     Node 14, Type 0, BuildingBlock: NUHQUE_clean_sbu_2, # of connection points: 7
#     Node 15, Type 0, BuildingBlock: NUHQUE_clean_sbu_2, # of connection points: 7
#     Node 16, Type 0, BuildingBlock: NUHQUE_clean_sbu_2, # of connection points: 7
#     Node 17, Type 0, BuildingBlock: NUHQUE_clean_sbu_2, # of connection points: 7
#     Node 18, Type 0, BuildingBlock: NUHQUE_clean_sbu_2, # of connection points: 7
#     Node 19, Type 0, BuildingBlock: NUHQUE_clean_sbu_2, # of connection points: 7
#     Node 20, Type 0, BuildingBlock: NUHQUE_clean_sbu_2, # of connection points: 7
#     Node 21, Type 0, BuildingBlock: NUHQUE_clean_sbu_2, # of connection points: 7
#     Node 22, Type 0, BuildingBlock: NUHQUE_clean_sbu_2, # of connection points: 7
#     Node 23, Type 0, BuildingBlock: NUHQUE_clean_sbu_2, # of connection points: 7
#     Node 24, Type 0, BuildingBlock: NUHQUE_clean_sbu_2, # of connection points: 7
#     Node 25, Type 0, BuildingBlock: NUHQUE_clean_sbu_2, # of connection points: 7
#     Node 26, Type 0, BuildingBlock: NUHQUE_clean_sbu_2, # of connection points: 7
#     Node 27, Type 0, BuildingBlock: NUHQUE_clean_sbu_2, # of connection points: 7
#     Node 28, Type 0, BuildingBlock: NUHQUE_clean_sbu_2, # of connection points: 7
#     Node 29, Type 0, BuildingBlock: NUHQUE_clean_sbu_2, # of connection points: 7
#     Node 30, Type 0, BuildingBlock: NUHQUE_clean_sbu_2, # of connection points: 7
#     Node 31, Type 0, BuildingBlock: NUHQUE_clean_sbu_2, # of connection points: 7
#     Node 32, Type 0, BuildingBlock: NUHQUE_clean_sbu_2, # of connection points: 7
#     Node 33, Type 0, BuildingBlock: NUHQUE_clean_sbu_2, # of connection points: 7
#     Node 34, Type 0, BuildingBlock: NUHQUE_clean_sbu_2, # of connection points: 7
#     Node 35, Type 0, BuildingBlock: NUHQUE_clean_sbu_2, # of connection points: 7
#     Node 36, Type 0, BuildingBlock: NUHQUE_clean_sbu_2, # of connection points: 7
#     Node 37, Type 0, BuildingBlock: NUHQUE_clean_sbu_2, # of connection points: 7
#     Node 38, Type 0, BuildingBlock: NUHQUE_clean_sbu_2, # of connection points: 7
#     Node 39, Type 0, BuildingBlock: NUHQUE_clean_sbu_2, # of connection points: 7
#     Node 40, Type 0, BuildingBlock: NUHQUE_clean_sbu_2, # of connection points: 7
#     Node 41, Type 0, BuildingBlock: NUHQUE_clean_sbu_2, # of connection points: 7
#     Node 42, Type 0, BuildingBlock: NUHQUE_clean_sbu_2, # of connection points: 7
#     Node 43, Type 0, BuildingBlock: NUHQUE_clean_sbu_2, # of connection points: 7
#     Node 44, Type 0, BuildingBlock: NUHQUE_clean_sbu_2, # of connection points: 7
#     Node 45, Type 0, BuildingBlock: NUHQUE_clean_sbu_2, # of connection points: 7
#     Node 46, Type 0, BuildingBlock: NUHQUE_clean_sbu_2, # of connection points: 7
#     Node 47, Type 0, BuildingBlock: NUHQUE_clean_sbu_2, # of connection points: 7
#     Edge 48, Type (0, 0), BuildingBlock: CIFDUS_clean_linker_0, # of connection points: 2
#     Edge 49, Type (0, 0), BuildingBlock: CIFDUS_clean_linker_0, # of connection points: 2
#     Edge 50, Type (0, 0), BuildingBlock: CIFDUS_clean_linker_0, # of connection points: 2
#     Edge 51, Type (0, 0), BuildingBlock: CIFDUS_clean_linker_0, # of connection points: 2
#     Edge 52, Type (0, 0), BuildingBlock: CIFDUS_clean_linker_0, # of connection points: 2
#     Edge 53, Type (0, 0), BuildingBlock: CIFDUS_clean_linker_0, # of connection points: 2
#     Edge 54, Type (0, 0), BuildingBlock: CIFDUS_clean_linker_0, # of connection points: 2
#     Edge 55, Type (0, 0), BuildingBlock: CIFDUS_clean_linker_0, # of connection points: 2
#     Edge 56, Type (0, 0), BuildingBlock: CIFDUS_clean_linker_0, # of connection points: 2
#     Edge 57, Type (0, 0), BuildingBlock: CIFDUS_clean_linker_0, # of connection points: 2
#     Edge 58, Type (0, 0), BuildingBlock: CIFDUS_clean_linker_0, # of connection points: 2
#     Edge 59, Type (0, 0), BuildingBlock: CIFDUS_clean_linker_0, # of connection points: 2
#     Edge 60, Type (0, 0), BuildingBlock: CIFDUS_clean_linker_0, # of connection points: 2
#     Edge 61, Type (0, 0), BuildingBlock: CIFDUS_clean_linker_0, # of connection points: 2
#     Edge 62, Type (0, 0), BuildingBlock: CIFDUS_clean_linker_0, # of connection points: 2
#     Edge 63, Type (0, 0), BuildingBlock: CIFDUS_clean_linker_0, # of connection points: 2
#     Edge 64, Type (0, 0), BuildingBlock: CIFDUS_clean_linker_0, # of connection points: 2
#     Edge 65, Type (0, 0), BuildingBlock: CIFDUS_clean_linker_0, # of connection points: 2
#     Edge 66, Type (0, 0), BuildingBlock: CIFDUS_clean_linker_0, # of connection points: 2
#     Edge 67, Type (0, 0), BuildingBlock: CIFDUS_clean_linker_0, # of connection points: 2
#     Edge 68, Type (0, 0), BuildingBlock: CIFDUS_clean_linker_0, # of connection points: 2
#     Edge 69, Type (0, 0), BuildingBlock: CIFDUS_clean_linker_0, # of connection points: 2
#     Edge 70, Type (0, 0), BuildingBlock: CIFDUS_clean_linker_0, # of connection points: 2
#     Edge 71, Type (0, 0), BuildingBlock: CIFDUS_clean_linker_0, # of connection points: 2
#     Edge 72, Type (0, 0), BuildingBlock: CIFDUS_clean_linker_0, # of connection points: 2
#     Edge 73, Type (0, 0), BuildingBlock: CIFDUS_clean_linker_0, # of connection points: 2
#     Edge 74, Type (0, 0), BuildingBlock: CIFDUS_clean_linker_0, # of connection points: 2
#     Edge 75, Type (0, 0), BuildingBlock: CIFDUS_clean_linker_0, # of connection points: 2
#     Edge 76, Type (0, 0), BuildingBlock: CIFDUS_clean_linker_0, # of connection points: 2
#     Edge 77, Type (0, 0), BuildingBlock: CIFDUS_clean_linker_0, # of connection points: 2
#     Edge 78, Type (0, 0), BuildingBlock: CIFDUS_clean_linker_0, # of connection points: 2
#     Edge 79, Type (0, 0), BuildingBlock: CIFDUS_clean_linker_0, # of connection points: 2
#     Edge 80, Type (0, 0), BuildingBlock: CIFDUS_clean_linker_0, # of connection points: 2
#     Edge 81, Type (0, 0), BuildingBlock: CIFDUS_clean_linker_0, # of connection points: 2
#     Edge 82, Type (0, 0), BuildingBlock: CIFDUS_clean_linker_0, # of connection points: 2
#     Edge 83, Type (0, 0), BuildingBlock: CIFDUS_clean_linker_0, # of connection points: 2
#     Edge 84, Type (0, 0), BuildingBlock: CIFDUS_clean_linker_0, # of connection points: 2
#     Edge 85, Type (0, 0), BuildingBlock: CIFDUS_clean_linker_0, # of connection points: 2
#     Edge 86, Type (0, 0), BuildingBlock: CIFDUS_clean_linker_0, # of connection points: 2
#     Edge 87, Type (0, 0), BuildingBlock: CIFDUS_clean_linker_0, # of connection points: 2
#     Edge 88, Type (0, 0), BuildingBlock: CIFDUS_clean_linker_0, # of connection points: 2
#     Edge 89, Type (0, 0), BuildingBlock: CIFDUS_clean_linker_0, # of connection points: 2
#     Edge 90, Type (0, 0), BuildingBlock: CIFDUS_clean_linker_0, # of connection points: 2
#     Edge 91, Type (0, 0), BuildingBlock: CIFDUS_clean_linker_0, # of connection points: 2
#     Edge 92, Type (0, 0), BuildingBlock: CIFDUS_clean_linker_0, # of connection points: 2
#     Edge 93, Type (0, 0), BuildingBlock: CIFDUS_clean_linker_0, # of connection points: 2
#     Edge 94, Type (0, 0), BuildingBlock: CIFDUS_clean_linker_0, # of connection points: 2
#     Edge 95, Type (0, 0), BuildingBlock: CIFDUS_clean_linker_0, # of connection points: 2
#     Edge 96, Type (0, 0), BuildingBlock: CIFDUS_clean_linker_0, # of connection points: 2
#     Edge 97, Type (0, 0), BuildingBlock: CIFDUS_clean_linker_0, # of connection points: 2
#     Edge 98, Type (0, 0), BuildingBlock: CIFDUS_clean_linker_0, # of connection points: 2
#     Edge 99, Type (0, 0), BuildingBlock: CIFDUS_clean_linker_0, # of connection points: 2
#     Edge 100, Type (0, 0), BuildingBlock: CIFDUS_clean_linker_0, # of connection points: 2
#     Edge 101, Type (0, 0), BuildingBlock: CIFDUS_clean_linker_0, # of connection points: 2
#     Edge 102, Type (0, 0), BuildingBlock: CIFDUS_clean_linker_0, # of connection points: 2
#     Edge 103, Type (0, 0), BuildingBlock: CIFDUS_clean_linker_0, # of connection points: 2
#     Edge 104, Type (0, 0), BuildingBlock: CIFDUS_clean_linker_0, # of connection points: 2
#     Edge 105, Type (0, 0), BuildingBlock: CIFDUS_clean_linker_0, # of connection points: 2
#     Edge 106, Type (0, 0), BuildingBlock: CIFDUS_clean_linker_0, # of connection points: 2
#     Edge 107, Type (0, 0), BuildingBlock: CIFDUS_clean_linker_0, # of connection points: 2
#     Edge 108, Type (0, 0), BuildingBlock: CIFDUS_clean_linker_0, # of connection points: 2
#     Edge 109, Type (0, 0), BuildingBlock: CIFDUS_clean_linker_0, # of connection points: 2
#     Edge 110, Type (0, 0), BuildingBlock: CIFDUS_clean_linker_0, # of connection points: 2
#     Edge 111, Type (0, 0), BuildingBlock: CIFDUS_clean_linker_0, # of connection points: 2
#     Edge 112, Type (0, 0), BuildingBlock: CIFDUS_clean_linker_0, # of connection points: 2
#     Edge 113, Type (0, 0), BuildingBlock: CIFDUS_clean_linker_0, # of connection points: 2
#     Edge 114, Type (0, 0), BuildingBlock: CIFDUS_clean_linker_0, # of connection points: 2
#     Edge 115, Type (0, 0), BuildingBlock: CIFDUS_clean_linker_0, # of connection points: 2
#     Edge 116, Type (0, 0), BuildingBlock: CIFDUS_clean_linker_0, # of connection points: 2
#     Edge 117, Type (0, 0), BuildingBlock: CIFDUS_clean_linker_0, # of connection points: 2
#     Edge 118, Type (0, 0), BuildingBlock: CIFDUS_clean_linker_0, # of connection points: 2
#     Edge 119, Type (0, 0), BuildingBlock: CIFDUS_clean_linker_0, # of connection points: 2
#     Edge 120, Type (0, 0), BuildingBlock: CIFDUS_clean_linker_0, # of connection points: 2
#     Edge 121, Type (0, 0), BuildingBlock: CIFDUS_clean_linker_0, # of connection points: 2
#     Edge 122, Type (0, 0), BuildingBlock: CIFDUS_clean_linker_0, # of connection points: 2
#     Edge 123, Type (0, 0), BuildingBlock: CIFDUS_clean_linker_0, # of connection points: 2
#     Edge 124, Type (0, 0), BuildingBlock: CIFDUS_clean_linker_0, # of connection points: 2
#     Edge 125, Type (0, 0), BuildingBlock: CIFDUS_clean_linker_0, # of connection points: 2
#     Edge 126, Type (0, 0), BuildingBlock: CIFDUS_clean_linker_0, # of connection points: 2
#     Edge 127, Type (0, 0), BuildingBlock: CIFDUS_clean_linker_0, # of connection points: 2
#     Edge 128, Type (0, 0), BuildingBlock: CIFDUS_clean_linker_0, # of connection points: 2
#     Edge 129, Type (0, 0), BuildingBlock: CIFDUS_clean_linker_0, # of connection points: 2
#     Edge 130, Type (0, 0), BuildingBlock: CIFDUS_clean_linker_0, # of connection points: 2
#     Edge 131, Type (0, 0), BuildingBlock: CIFDUS_clean_linker_0, # of connection points: 2
#     Edge 132, Type (0, 0), BuildingBlock: CIFDUS_clean_linker_0, # of connection points: 2
#     Edge 133, Type (0, 0), BuildingBlock: CIFDUS_clean_linker_0, # of connection points: 2
#     Edge 134, Type (0, 0), BuildingBlock: CIFDUS_clean_linker_0, # of connection points: 2
#     Edge 135, Type (0, 0), BuildingBlock: CIFDUS_clean_linker_0, # of connection points: 2
#     Edge 136, Type (0, 0), BuildingBlock: CIFDUS_clean_linker_0, # of connection points: 2
#     Edge 137, Type (0, 0), BuildingBlock: CIFDUS_clean_linker_0, # of connection points: 2
#     Edge 138, Type (0, 0), BuildingBlock: CIFDUS_clean_linker_0, # of connection points: 2
#     Edge 139, Type (0, 0), BuildingBlock: CIFDUS_clean_linker_0, # of connection points: 2
#     Edge 140, Type (0, 0), BuildingBlock: CIFDUS_clean_linker_0, # of connection points: 2
#     Edge 141, Type (0, 0), BuildingBlock: CIFDUS_clean_linker_0, # of connection points: 2
#     Edge 142, Type (0, 0), BuildingBlock: CIFDUS_clean_linker_0, # of connection points: 2
#     Edge 143, Type (0, 0), BuildingBlock: CIFDUS_clean_linker_0, # of connection points: 2
#     Edge 144, Type (0, 0), BuildingBlock: CIFDUS_clean_linker_0, # of connection points: 2
#     Edge 145, Type (0, 0), BuildingBlock: CIFDUS_clean_linker_0, # of connection points: 2
#     Edge 146, Type (0, 0), BuildingBlock: CIFDUS_clean_linker_0, # of connection points: 2
#     Edge 147, Type (0, 0), BuildingBlock: CIFDUS_clean_linker_0, # of connection points: 2
#     Edge 148, Type (0, 0), BuildingBlock: CIFDUS_clean_linker_0, # of connection points: 2
#     Edge 149, Type (0, 0), BuildingBlock: CIFDUS_clean_linker_0, # of connection points: 2
#     Edge 150, Type (0, 0), BuildingBlock: CIFDUS_clean_linker_0, # of connection points: 2
#     Edge 151, Type (0, 0), BuildingBlock: CIFDUS_clean_linker_0, # of connection points: 2
#     Edge 152, Type (0, 0), BuildingBlock: CIFDUS_clean_linker_0, # of connection points: 2
#     Edge 153, Type (0, 0), BuildingBlock: CIFDUS_clean_linker_0, # of connection points: 2
#     Edge 154, Type (0, 0), BuildingBlock: CIFDUS_clean_linker_0, # of connection points: 2
#     Edge 155, Type (0, 0), BuildingBlock: CIFDUS_clean_linker_0, # of connection points: 2
#     Edge 156, Type (0, 0), BuildingBlock: CIFDUS_clean_linker_0, # of connection points: 2
#     Edge 157, Type (0, 0), BuildingBlock: CIFDUS_clean_linker_0, # of connection points: 2
#     Edge 158, Type (0, 0), BuildingBlock: CIFDUS_clean_linker_0, # of connection points: 2
#     Edge 159, Type (0, 0), BuildingBlock: CIFDUS_clean_linker_0, # of connection points: 2
#     Edge 160, Type (0, 0), BuildingBlock: CIFDUS_clean_linker_0, # of connection points: 2
#     Edge 161, Type (0, 0), BuildingBlock: CIFDUS_clean_linker_0, # of connection points: 2
#     Edge 162, Type (0, 0), BuildingBlock: CIFDUS_clean_linker_0, # of connection points: 2
#     Edge 163, Type (0, 0), BuildingBlock: CIFDUS_clean_linker_0, # of connection points: 2
#     Edge 164, Type (0, 0), BuildingBlock: CIFDUS_clean_linker_0, # of connection points: 2
#     Edge 165, Type (0, 0), BuildingBlock: CIFDUS_clean_linker_0, # of connection points: 2
#     Edge 166, Type (0, 0), BuildingBlock: CIFDUS_clean_linker_0, # of connection points: 2
#     Edge 167, Type (0, 0), BuildingBlock: CIFDUS_clean_linker_0, # of connection points: 2
#     Edge 168, Type (0, 0), BuildingBlock: CIFDUS_clean_linker_0, # of connection points: 2
#     Edge 169, Type (0, 0), BuildingBlock: CIFDUS_clean_linker_0, # of connection points: 2
#     Edge 170, Type (0, 0), BuildingBlock: CIFDUS_clean_linker_0, # of connection points: 2
#     Edge 171, Type (0, 0), BuildingBlock: CIFDUS_clean_linker_0, # of connection points: 2
#     Edge 172, Type (0, 0), BuildingBlock: CIFDUS_clean_linker_0, # of connection points: 2
#     Edge 173, Type (0, 0), BuildingBlock: CIFDUS_clean_linker_0, # of connection points: 2
#     Edge 174, Type (0, 0), BuildingBlock: CIFDUS_clean_linker_0, # of connection points: 2
#     Edge 175, Type (0, 0), BuildingBlock: CIFDUS_clean_linker_0, # of connection points: 2
#     Edge 176, Type (0, 0), BuildingBlock: CIFDUS_clean_linker_0, # of connection points: 2
#     Edge 177, Type (0, 0), BuildingBlock: CIFDUS_clean_linker_0, # of connection points: 2
#     Edge 178, Type (0, 0), BuildingBlock: CIFDUS_clean_linker_0, # of connection points: 2
#     Edge 179, Type (0, 0), BuildingBlock: CIFDUS_clean_linker_0, # of connection points: 2
#     Edge 180, Type (0, 0), BuildingBlock: CIFDUS_clean_linker_0, # of connection points: 2
#     Edge 181, Type (0, 0), BuildingBlock: CIFDUS_clean_linker_0, # of connection points: 2
#     Edge 182, Type (0, 0), BuildingBlock: CIFDUS_clean_linker_0, # of connection points: 2
#     Edge 183, Type (0, 0), BuildingBlock: CIFDUS_clean_linker_0, # of connection points: 2
#     Edge 184, Type (0, 0), BuildingBlock: CIFDUS_clean_linker_0, # of connection points: 2
#     Edge 185, Type (0, 0), BuildingBlock: CIFDUS_clean_linker_0, # of connection points: 2
#     Edge 186, Type (0, 0), BuildingBlock: CIFDUS_clean_linker_0, # of connection points: 2
#     Edge 187, Type (0, 0), BuildingBlock: CIFDUS_clean_linker_0, # of connection points: 2
#     Edge 188, Type (0, 0), BuildingBlock: CIFDUS_clean_linker_0, # of connection points: 2
#     Edge 189, Type (0, 0), BuildingBlock: CIFDUS_clean_linker_0, # of connection points: 2
#     Edge 190, Type (0, 0), BuildingBlock: CIFDUS_clean_linker_0, # of connection points: 2
#     Edge 191, Type (0, 0), BuildingBlock: CIFDUS_clean_linker_0, # of connection points: 2
#     Edge 192, Type (0, 0), BuildingBlock: CIFDUS_clean_linker_0, # of connection points: 2
#     Edge 193, Type (0, 0), BuildingBlock: CIFDUS_clean_linker_0, # of connection points: 2
#     Edge 194, Type (0, 0), BuildingBlock: CIFDUS_clean_linker_0, # of connection points: 2
#     Edge 195, Type (0, 0), BuildingBlock: CIFDUS_clean_linker_0, # of connection points: 2
#     Edge 196, Type (0, 0), BuildingBlock: CIFDUS_clean_linker_0, # of connection points: 2
#     Edge 197, Type (0, 0), BuildingBlock: CIFDUS_clean_linker_0, # of connection points: 2
#     Edge 198, Type (0, 0), BuildingBlock: CIFDUS_clean_linker_0, # of connection points: 2
#     Edge 199, Type (0, 0), BuildingBlock: CIFDUS_clean_linker_0, # of connection points: 2
#     Edge 200, Type (0, 0), BuildingBlock: CIFDUS_clean_linker_0, # of connection points: 2
#     Edge 201, Type (0, 0), BuildingBlock: CIFDUS_clean_linker_0, # of connection points: 2
#     Edge 202, Type (0, 0), BuildingBlock: CIFDUS_clean_linker_0, # of connection points: 2
#     Edge 203, Type (0, 0), BuildingBlock: CIFDUS_clean_linker_0, # of connection points: 2
#     Edge 204, Type (0, 0), BuildingBlock: CIFDUS_clean_linker_0, # of connection points: 2
#     Edge 205, Type (0, 0), BuildingBlock: CIFDUS_clean_linker_0, # of connection points: 2
#     Edge 206, Type (0, 0), BuildingBlock: CIFDUS_clean_linker_0, # of connection points: 2
#     Edge 207, Type (0, 0), BuildingBlock: CIFDUS_clean_linker_0, # of connection points: 2
#     Edge 208, Type (0, 0), BuildingBlock: CIFDUS_clean_linker_0, # of connection points: 2
#     Edge 209, Type (0, 0), BuildingBlock: CIFDUS_clean_linker_0, # of connection points: 2
#     Edge 210, Type (0, 0), BuildingBlock: CIFDUS_clean_linker_0, # of connection points: 2
#     Edge 211, Type (0, 0), BuildingBlock: CIFDUS_clean_linker_0, # of connection points: 2
#     Edge 212, Type (0, 0), BuildingBlock: CIFDUS_clean_linker_0, # of connection points: 2
#     Edge 213, Type (0, 0), BuildingBlock: CIFDUS_clean_linker_0, # of connection points: 2
#     Edge 214, Type (0, 0), BuildingBlock: CIFDUS_clean_linker_0, # of connection points: 2
#     Edge 215, Type (0, 0), BuildingBlock: CIFDUS_clean_linker_0, # of connection points: 2
# Relax obj value: 0.201
# Max RMSD: 0.264
# Mean RMSD: 0.264
data_MOF--net-svz--node1-NUHQUE_clean_sbu_2--edge1-CIFDUS_clean_linker_0
_symmetry_space_group_name_H-M    P1
_symmetry_Int_Tables_number       1
_symmetry_cell_setting            triclinic
loop_
_symmetry_equiv_pos_as_xyz
'x, y, z'
_cell_length_a     61.50027
_cell_length_b     61.420733
_cell_length_c     61.320373
_cell_angle_alpha  89.998727
_cell_angle_beta   89.950696
_cell_angle_gamma 89.929592
loop_
_atom_site_label
_atom_site_type_symbol
_atom_site_fract_x
_atom_site_fract_y
_atom_site_fract_z
_atom_type_partial_charge
O0 O 0.07588 0.60642 0.25022 0.0
Tb1 Tb 0.04131 0.61178 0.24418 0.0
Eu2 Eu 0.04728 0.59107 0.18806 0.0
C3 C 0.08329 0.58684 0.25497 0.0
O4 O 0.07189 0.56985 0.24886 0.0
C5 C 0.02464 0.56488 0.2299 0.0
O6 O 0.0198 0.59434 0.16391 0.0
C7 C 0.08098 0.57461 0.16898 0.0
C8 C 0.99959 0.59277 0.17082 0.0
O9 O 0.99587 0.59098 0.19183 0.0
C10 C 0.03505 0.63822 0.20055 0.0
C11 C 0.09707 0.58176 0.15273 0.0
C12 C 0.11932 0.57806 0.15655 0.0
C13 C 0.1347 0.58501 0.14125 0.0
C14 C 0.12783 0.59507 0.12199 0.0
C15 C 0.10583 0.59895 0.11794 0.0
C16 C 0.0904 0.59222 0.13334 0.0
O17 O 0.02867 0.57908 0.24543 0.0
O18 O 0.0301 0.56691 0.20928 0.0
O19 O 0.04533 0.63554 0.27045 0.0
O20 O 0.01684 0.61617 0.2698 0.0
C21 C 0.02705 0.63143 0.28023 0.0
O22 O 0.0507 0.62727 0.19115 0.0
O23 O 0.02639 0.63132 0.21881 0.0
O24 O 0.06102 0.57217 0.16175 0.0
O25 O 0.08202 0.58371 0.18844 0.0
H26 H 0.12462 0.57003 0.17138 0.0
H27 H 0.13984 0.59987 0.10993 0.0
H28 H 0.07333 0.59548 0.13035 0.0
O29 O 0.90498 0.07969 0.25558 0.0
Tb30 Tb 0.89273 0.04918 0.24197 0.0
Eu31 Eu 0.92524 0.04496 0.19126 0.0
C32 C 0.92523 0.08302 0.26167 0.0
O33 O 0.94038 0.06932 0.25561 0.0
C34 C 0.94018 0.02793 0.23782 0.0
O35 O 0.93215 0.0179 0.16726 0.0
C36 C 0.92814 0.08321 0.17342 0.0
C37 C 0.9388 0.99885 0.17454 0.0
O38 O 0.94362 0.99685 0.1953 0.0
C39 C 0.87394 0.03967 0.19608 0.0
C40 C 0.92042 0.09584 0.1544 0.0
C41 C 0.92112 0.11881 0.15506 0.0
C42 C 0.91414 0.13107 0.13702 0.0
C43 C 0.90697 0.12034 0.11827 0.0
C44 C 0.90619 0.09763 0.11733 0.0
C45 C 0.91275 0.08529 0.13546 0.0
O46 O 0.91969 0.02607 0.24384 0.0
O47 O 0.94626 0.03915 0.22059 0.0
O48 O 0.86887 0.0539 0.26823 0.0
O49 O 0.87781 0.02184 0.25961 0.0
C50 C 0.86597 0.03345 0.27273 0.0
O51 O 0.89211 0.03012 0.19036 0.0
O52 O 0.87318 0.05328 0.21259 0.0
O53 O 0.94175 0.06714 0.16928 0.0
O54 O 0.91376 0.07852 0.1887 0.0
H55 H 0.92684 0.12708 0.16958 0.0
H56 H 0.90151 0.1298 0.10434 0.0
H57 H 0.91185 0.06768 0.13486 0.0
O58 O 0.43958 0.91579 0.25923 0.0
Tb59 Tb 0.46803 0.89798 0.24843 0.0
Eu60 Eu 0.46112 0.92605 0.19491 0.0
C61 C 0.42071 0.90591 0.26067 0.0
O62 O 0.41867 0.88649 0.25192 0.0
C63 C 0.4831 0.94481 0.23713 0.0
O64 O 0.49028 0.93329 0.17365 0.0
C65 C 0.42387 0.93152 0.17567 0.0
C66 C 0.50935 0.92814 0.18197 0.0
O67 O 0.50993 0.92029 0.20187 0.0
C68 C 0.47081 0.87429 0.20262 0.0
C69 C 0.411 0.92349 0.15697 0.0
C70 C 0.38831 0.92716 0.15638 0.0
C71 C 0.3759 0.91969 0.13862 0.0
C72 C 0.38644 0.9094 0.12123 0.0
C73 C 0.40886 0.90575 0.1215 0.0
C74 C 0.42116 0.91248 0.13955 0.0
O75 O 0.48972 0.92523 0.24266 0.0
O76 O 0.46665 0.94777 0.22384 0.0
O77 O 0.46359 0.8758 0.27602 0.0
O78 O 0.49495 0.88862 0.27026 0.0
C79 C 0.48354 0.87614 0.28297 0.0
O80 O 0.47385 0.89211 0.19125 0.0
O81 O 0.46318 0.87396 0.22267 0.0
O82 O 0.44136 0.94299 0.17096 0.0
O83 O 0.4267 0.91797 0.19213 0.0
H84 H 0.38035 0.93553 0.16975 0.0
H85 H 0.37699 0.90389 0.10734 0.0
H86 H 0.43852 0.90939 0.13993 0.0
O87 O 0.60261 0.44287 0.2622 0.0
Tb88 Tb 0.61126 0.47458 0.2484 0.0
Eu89 Eu 0.58601 0.46202 0.19408 0.0
C90 C 0.58317 0.43926 0.27047 0.0
O91 O 0.56819 0.45434 0.26828 0.0
C92 C 0.56492 0.48798 0.23312 0.0
O93 O 0.58021 0.48616 0.16685 0.0
C94 C 0.58172 0.42252 0.17955 0.0
C95 C 0.57608 0.50674 0.17129 0.0
O96 O 0.57318 0.51256 0.19167 0.0
C97 C 0.63698 0.47201 0.20444 0.0
C98 C 0.58906 0.40946 0.16077 0.0
C99 C 0.58536 0.38676 0.16022 0.0
C100 C 0.59168 0.37457 0.14184 0.0
C101 C 0.60092 0.38527 0.12401 0.0
C102 C 0.60423 0.40778 0.12414 0.0
C103 C 0.59868 0.41984 0.14273 0.0
O104 O 0.58408 0.49544 0.23889 0.0
O105 O 0.56301 0.47015 0.22151 0.0
O106 O 0.61867 0.48357 0.2824 0.0
O107 O 0.63668 0.49795 0.2568 0.0
C108 C 0.63424 0.49715 0.27782 0.0
O109 O 0.62015 0.47511 0.19159 0.0
O110 O 0.63515 0.46412 0.22432 0.0
O111 O 0.56824 0.43848 0.17477 0.0
O112 O 0.59659 0.42806 0.19402 0.0
H113 H 0.57769 0.37869 0.17393 0.0
H114 H 0.60561 0.37587 0.10976 0.0
H115 H 0.60131 0.43729 0.14296 0.0
O116 O 0.07457 0.90201 0.26012 0.0
Tb117 Tb 0.03999 0.89905 0.26755 0.0
Eu118 Eu 0.04711 0.92034 0.32576 0.0
C119 C 0.08144 0.92002 0.25064 0.0
O120 O 0.06879 0.93723 0.25138 0.0
C121 C 0.02917 0.94801 0.28283 0.0
O122 O 0.01447 0.92059 0.34305 0.0
C123 C 0.07861 0.93085 0.35191 0.0
C124 C 0.99647 0.91906 0.33154 0.0
O125 O 0.99803 0.91738 0.31026 0.0
C126 C 0.03319 0.87432 0.31125 0.0
C127 C 0.09507 0.92041 0.36625 0.0
C128 C 0.11728 0.92204 0.36066 0.0
C129 C 0.13316 0.91271 0.3741 0.0
C130 C 0.12695 0.902 0.39316 0.0
C131 C 0.10527 0.90162 0.40007 0.0
C132 C 0.08918 0.91035 0.38623 0.0
O133 O 0.02614 0.93122 0.26986 0.0
O134 O 0.03868 0.9476 0.30218 0.0
O135 O 0.03295 0.87066 0.24716 0.0
O136 O 0.02172 0.90171 0.23708 0.0
C137 C 0.02213 0.88113 0.23228 0.0
O138 O 0.05003 0.88442 0.31936 0.0
O139 O 0.02383 0.88163 0.29357 0.0
O140 O 0.05813 0.92994 0.35804 0.0
O141 O 0.08122 0.92848 0.33071 0.0
H142 H 0.12223 0.93083 0.34616 0.0
H143 H 0.13951 0.8949 0.40336 0.0
H144 H 0.07233 0.91003 0.39139 0.0
O145 O 0.61404 0.07081 0.24567 0.0
Tb146 Tb 0.61728 0.03738 0.25635 0.0
Eu147 Eu 0.59624 0.05114 0.32513 0.0
C148 C 0.59478 0.07967 0.24283 0.0
O149 O 0.57733 0.06846 0.24791 0.0
C150 C 0.56975 0.02808 0.28302 0.0
O151 O 0.60141 0.0258 0.35091 0.0
C152 C 0.58875 0.09012 0.3396 0.0
C153 C 0.58994 0.00787 0.34917 0.0
O154 O 0.57636 0.00596 0.33279 0.0
C155 C 0.63993 0.04378 0.29697 0.0
C156 C 0.58828 0.10315 0.35966 0.0
C157 C 0.582 0.12518 0.35831 0.0
C158 C 0.58377 0.13866 0.37663 0.0
C159 C 0.59127 0.13 0.39626 0.0
C160 C 0.59827 0.1084 0.39766 0.0
C161 C 0.59644 0.09474 0.37942 0.0
O162 O 0.5856 0.02599 0.26831 0.0
O163 O 0.57022 0.03885 0.3019 0.0
O164 O 0.62256 0.02828 0.22214 0.0
O165 O 0.63178 0.00633 0.24726 0.0
C166 C 0.6313 0.00938 0.22633 0.0
O167 O 0.62007 0.05113 0.29865 0.0
O168 O 0.64528 0.03983 0.27702 0.0
O169 O 0.57332 0.07551 0.33701 0.0
O170 O 0.60805 0.08334 0.33327 0.0
H171 H 0.5767 0.132 0.34289 0.0
H172 H 0.59306 0.14064 0.4103 0.0
H173 H 0.6025 0.07817 0.38018 0.0
O174 O 0.43392 0.6157 0.24925 0.0
Tb175 Tb 0.46629 0.61051 0.262 0.0
Eu176 Eu 0.46239 0.58018 0.33058 0.0
C177 C 0.42131 0.59893 0.24521 0.0
O178 O 0.42763 0.57951 0.25162 0.0
C179 C 0.47587 0.56403 0.28636 0.0
O180 O 0.49446 0.58289 0.34766 0.0
C181 C 0.43255 0.56898 0.35833 0.0
C182 C 0.51276 0.58423 0.33678 0.0
O183 O 0.51234 0.58453 0.31537 0.0
C184 C 0.46517 0.62859 0.30853 0.0
C185 C 0.41605 0.57987 0.37224 0.0
C186 C 0.39377 0.57616 0.36842 0.0
C187 C 0.37808 0.58564 0.38205 0.0
C188 C 0.38462 0.59836 0.39982 0.0
C189 C 0.4066 0.60178 0.40419 0.0
C190 C 0.42234 0.59282 0.39026 0.0
O191 O 0.46755 0.58358 0.28469 0.0
O192 O 0.4735 0.55529 0.30573 0.0
O193 O 0.4814 0.60477 0.23009 0.0
O194 O 0.49303 0.6303 0.24987 0.0
C195 C 0.49516 0.62093 0.23097 0.0
O196 O 0.45306 0.61136 0.31272 0.0
O197 O 0.46836 0.63433 0.28805 0.0
O198 O 0.45296 0.5722 0.36361 0.0
O199 O 0.42929 0.56884 0.33711 0.0
H200 H 0.38866 0.56578 0.35508 0.0
H201 H 0.3725 0.60504 0.41083 0.0
H202 H 0.43937 0.59546 0.3939 0.0
O203 O 0.91148 0.43378 0.2577 0.0
Tb204 Tb 0.89957 0.46526 0.26857 0.0
Eu205 Eu 0.92413 0.45908 0.32429 0.0
C206 C 0.93027 0.43267 0.24749 0.0
O207 O 0.94303 0.44978 0.24787 0.0
C208 C 0.9446 0.48095 0.28373 0.0
O209 O 0.92765 0.49096 0.34239 0.0
C210 C 0.93366 0.42464 0.34642 0.0
C211 C 0.91753 0.50772 0.33365 0.0
O212 O 0.90697 0.5046 0.31532 0.0
C213 C 0.87192 0.46033 0.31163 0.0
C214 C 0.92421 0.41027 0.36302 0.0
C215 C 0.92957 0.38806 0.36236 0.0
C216 C 0.9208 0.37377 0.37773 0.0
C217 C 0.90709 0.38177 0.39408 0.0
C218 C 0.90202 0.40397 0.3954 0.0
C219 C 0.91026 0.41823 0.37947 0.0
O220 O 0.92498 0.48748 0.27851 0.0
O221 O 0.94767 0.46487 0.29731 0.0
O222 O 0.89747 0.47085 0.23342 0.0
O223 O 0.87477 0.48663 0.25402 0.0
C224 C 0.88099 0.48405 0.23391 0.0
O225 O 0.88823 0.4642 0.32488 0.0
O226 O 0.87391 0.45556 0.29079 0.0
O227 O 0.93924 0.4444 0.35266 0.0
O228 O 0.92456 0.42387 0.32699 0.0
H229 H 0.94051 0.3819 0.34991 0.0
H230 H 0.90064 0.37061 0.40618 0.0
H231 H 0.90631 0.43542 0.38019 0.0
O232 O 0.25389 0.07348 0.61269 0.0
Tb233 Tb 0.24549 0.03923 0.61355 0.0
Eu234 Eu 0.1778 0.04255 0.58706 0.0
C235 C 0.26026 0.08241 0.59427 0.0
O236 O 0.25744 0.0715 0.57606 0.0
C237 C 0.22419 0.02605 0.56366 0.0
O238 O 0.15337 0.01551 0.58719 0.0
C239 C 0.16332 0.08226 0.58494 0.0
C240 C 0.16157 0.99579 0.58577 0.0
O241 O 0.1828 0.99363 0.5847 0.0
C242 C 0.2033 0.03784 0.63374 0.0
C243 C 0.1436 0.09574 0.58699 0.0
C244 C 0.14469 0.11813 0.58192 0.0
C245 C 0.12706 0.13188 0.58674 0.0
C246 C 0.10826 0.12308 0.59605 0.0
C247 C 0.1069 0.10091 0.60089 0.0
C248 C 0.12457 0.08717 0.59642 0.0
O249 O 0.23756 0.02668 0.58077 0.0
O250 O 0.2039 0.03364 0.56222 0.0
O251 O 0.2806 0.03423 0.61557 0.0
O252 O 0.25951 0.01205 0.63168 0.0
C253 C 0.27964 0.01688 0.62765 0.0
O254 O 0.20256 0.03925 0.6125 0.0
O255 O 0.22307 0.0386 0.64073 0.0
O256 O 0.16526 0.06968 0.56763 0.0
O257 O 0.17006 0.07297 0.60305 0.0
H258 H 0.15946 0.12494 0.57511 0.0
H259 H 0.09467 0.13369 0.59999 0.0
H260 H 0.12384 0.07014 0.601 0.0
O261 O 0.431 0.24949 0.60629 0.0
Tb262 Tb 0.4648 0.2411 0.61279 0.0
Eu263 Eu 0.45691 0.18594 0.58789 0.0
C264 C 0.42633 0.26285 0.59012 0.0
O265 O 0.44122 0.26638 0.57517 0.0
C266 C 0.48019 0.22654 0.56675 0.0
O267 O 0.49005 0.16987 0.58722 0.0
C268 C 0.42649 0.16033 0.57387 0.0
C269 C 0.50597 0.17896 0.59823 0.0
O270 O 0.50222 0.19739 0.60833 0.0
C271 C 0.46497 0.19631 0.63933 0.0
C272 C 0.4118 0.14339 0.58274 0.0
C273 C 0.38929 0.14541 0.57905 0.0
C274 C 0.37481 0.1302 0.58789 0.0
C275 C 0.38288 0.1127 0.60005 0.0
C276 C 0.40523 0.11004 0.60361 0.0
C277 C 0.41974 0.12548 0.59488 0.0
O278 O 0.48634 0.23283 0.58617 0.0
O279 O 0.46367 0.2133 0.56413 0.0
O280 O 0.47266 0.26164 0.64078 0.0
O281 O 0.48246 0.27181 0.60924 0.0
C282 C 0.48282 0.2766 0.62985 0.0
O283 O 0.45391 0.18543 0.62456 0.0
O284 O 0.47242 0.21618 0.63659 0.0
O285 O 0.44731 0.15557 0.57243 0.0
O286 O 0.42276 0.18041 0.58043 0.0
H287 H 0.38304 0.15887 0.56948 0.0
H288 H 0.3716 0.10061 0.60624 0.0
H289 H 0.43702 0.12369 0.59781 0.0
O290 O 0.25974 0.42954 0.60973 0.0
Tb291 Tb 0.26823 0.46375 0.61265 0.0
Eu292 Eu 0.31987 0.46508 0.58353 0.0
C293 C 0.2493 0.42228 0.59251 0.0
O294 O 0.2488 0.43444 0.5749 0.0
C295 C 0.27488 0.48264 0.56311 0.0
O296 O 0.34808 0.48822 0.57951 0.0
C297 C 0.33286 0.42481 0.58222 0.0
C298 C 0.34415 0.50855 0.57394 0.0
O299 O 0.32431 0.51396 0.56813 0.0
C300 C 0.31318 0.47259 0.63459 0.0
C301 C 0.35019 0.41065 0.59104 0.0
C302 C 0.35066 0.3883 0.58553 0.0
C303 C 0.36774 0.37493 0.59293 0.0
C304 C 0.38449 0.38417 0.6052 0.0
C305 C 0.38457 0.40636 0.61028 0.0
C306 C 0.36716 0.41957 0.60358 0.0
O307 O 0.26531 0.48229 0.58236 0.0
O308 O 0.29433 0.47459 0.55918 0.0
O309 O 0.23382 0.46466 0.62129 0.0
O310 O 0.25486 0.48786 0.63567 0.0
C311 C 0.23481 0.48127 0.6343 0.0
O312 O 0.3201 0.48111 0.6163 0.0
O313 O 0.29547 0.46066 0.63531 0.0
O314 O 0.33936 0.43985 0.56834 0.0
O315 O 0.31786 0.43181 0.59597 0.0
H316 H 0.33794 0.38141 0.57545 0.0
H317 H 0.39794 0.374 0.61051 0.0
H318 H 0.36719 0.43679 0.60746 0.0
O319 O 0.07451 0.2602 0.60688 0.0
Tb320 Tb 0.0407 0.26879 0.61256 0.0
Eu321 Eu 0.04772 0.32141 0.58648 0.0
C322 C 0.07985 0.24849 0.58972 0.0
O323 O 0.06597 0.24721 0.5735 0.0
C324 C 0.02475 0.28071 0.56648 0.0
O325 O 0.01594 0.33967 0.58216 0.0
C326 C 0.0827 0.34273 0.57645 0.0
C327 C 0.99908 0.33137 0.59252 0.0
O328 O 1.00204 0.31334 0.60362 0.0
C329 C 0.03992 0.31304 0.63968 0.0
C330 C 0.09735 0.36029 0.58402 0.0
C331 C 0.12002 0.35731 0.58207 0.0
C332 C 0.13439 0.37385 0.58847 0.0
C333 C 0.12603 0.39356 0.59618 0.0
C334 C 0.10362 0.39708 0.59777 0.0
C335 C 0.0892 0.38023 0.59213 0.0
O336 O 0.01835 0.27675 0.58644 0.0
O337 O 0.04125 0.29375 0.56303 0.0
O338 O 0.03383 0.23382 0.61171 0.0
O339 O 0.02158 0.25272 0.6379 0.0
C340 C 0.02247 0.23334 0.62954 0.0
O341 O 0.04092 0.32571 0.62237 0.0
O342 O 0.04249 0.29177 0.63935 0.0
O343 O 0.06318 0.34834 0.56955 0.0
O344 O 0.08301 0.32434 0.58757 0.0
H345 H 0.12646 0.34222 0.57551 0.0
H346 H 0.13716 0.4065 0.60072 0.0
H347 H 0.07183 0.38284 0.59356 0.0
O348 O 0.24727 0.43285 0.90029 0.0
Tb349 Tb 0.24195 0.46779 0.89773 0.0
Eu350 Eu 0.188 0.4579 0.92294 0.0
C351 C 0.25634 0.42504 0.9181 0.0
O352 O 0.25644 0.43731 0.93562 0.0
C353 C 0.23147 0.47791 0.94692 0.0
O354 O 0.1686 0.48926 0.92476 0.0
C355 C 0.1653 0.42412 0.93451 0.0
C356 C 0.1788 0.50785 0.92181 0.0
O357 O 0.19989 0.50743 0.91856 0.0
C358 C 0.19755 0.47369 0.87443 0.0
C359 C 0.14809 0.4094 0.9262 0.0
C360 C 0.14965 0.38683 0.9303 0.0
C361 C 0.13313 0.37266 0.92331 0.0
C362 C 0.11489 0.38119 0.91275 0.0
C363 C 0.11254 0.4036 0.90937 0.0
C364 C 0.12946 0.41768 0.91557 0.0
O365 O 0.24025 0.4843 0.92853 0.0
O366 O 0.21417 0.46523 0.94824 0.0
O367 O 0.26071 0.47649 0.86859 0.0
O368 O 0.27392 0.48307 0.89983 0.0
C369 C 0.27714 0.48482 0.87899 0.0
O370 O 0.18801 0.45848 0.88605 0.0
O371 O 0.21524 0.48334 0.8812 0.0
O372 O 0.15962 0.44429 0.93902 0.0
O373 O 0.18464 0.42258 0.92539 0.0
H374 H 0.1635 0.38035 0.93911 0.0
H375 H 0.10193 0.37026 0.90785 0.0
H376 H 0.12772 0.43504 0.91293 0.0
O377 O 0.07364 0.24725 0.90706 0.0
Tb378 Tb 0.03956 0.24073 0.89987 0.0
Eu379 Eu 0.05169 0.18699 0.92236 0.0
C380 C 0.07858 0.25995 0.92367 0.0
O381 O 0.06363 0.26361 0.93853 0.0
C382 C 0.02555 0.2269 0.948 0.0
O383 O 0.02406 0.16351 0.91666 0.0
C384 C 0.08516 0.1658 0.93639 0.0
C385 C 1.00385 0.17024 0.91863 0.0
O386 O 1.00008 0.19088 0.92267 0.0
C387 C 0.04085 0.19722 0.87395 0.0
C388 C 0.09937 0.14913 0.92654 0.0
C389 C 0.12194 0.14983 0.93002 0.0
C390 C 0.1355 0.13407 0.92049 0.0
C391 C 0.12629 0.11733 0.90801 0.0
C392 C 0.10378 0.11612 0.9048 0.0
C393 C 0.09042 0.13235 0.91371 0.0
O394 O 0.02444 0.24065 0.93159 0.0
O395 O 0.03616 0.20824 0.94805 0.0
O396 O 0.04541 0.26824 0.87805 0.0
O397 O 0.01379 0.2638 0.89105 0.0
C398 C 0.02571 0.2758 0.87839 0.0
O399 O 0.05683 0.19081 0.8864 0.0
O400 O 0.02921 0.21424 0.87921 0.0
O401 O 0.06502 0.15969 0.94021 0.0
O402 O 0.08666 0.1856 0.92824 0.0
H403 H 0.12892 0.1626 0.94 0.0
H404 H 0.13674 0.1049 0.90103 0.0
H405 H 0.073 0.13158 0.9111 0.0
O406 O 0.26283 0.07894 0.90227 0.0
Tb407 Tb 0.27117 0.04511 0.89657 0.0
Eu408 Eu 0.32259 0.05095 0.92563 0.0
C409 C 0.25097 0.08444 0.91924 0.0
O410 O 0.24901 0.07049 0.93536 0.0
C411 C 0.2792 0.03106 0.9442 0.0
O412 O 0.34695 0.02464 0.93298 0.0
C413 C 0.34002 0.08932 0.92827 0.0
C414 C 0.34029 1.00432 0.93394 0.0
O415 O 0.31932 1.00032 0.93335 0.0
C416 C 0.31614 0.04028 0.8738 0.0
C417 C 0.35813 0.10255 0.91958 0.0
C418 C 0.35659 0.12548 0.92051 0.0
C419 C 0.37348 0.13845 0.91229 0.0
C420 C 0.39195 0.12849 0.90357 0.0
C421 C 0.3938 0.10583 0.90234 0.0
C422 C 0.3769 0.09274 0.91054 0.0
O423 O 0.27664 0.02389 0.92425 0.0
O424 O 0.29477 0.04489 0.94882 0.0
O425 O 0.23607 0.04138 0.89336 0.0
O426 O 0.25656 0.02377 0.87183 0.0
C427 C 0.23649 0.02756 0.87736 0.0
O428 O 0.32589 0.03579 0.89234 0.0
O429 O 0.29691 0.04958 0.87285 0.0
O430 O 0.34532 0.07301 0.94117 0.0
O431 O 0.32387 0.08478 0.91483 0.0
H432 H 0.34224 0.13315 0.92736 0.0
H433 H 0.40506 0.13861 0.89741 0.0
H434 H 0.37813 0.07517 0.90949 0.0
O435 O 0.4321 0.25949 0.90384 0.0
Tb436 Tb 0.46596 0.26677 0.89593 0.0
Eu437 Eu 0.45556 0.31936 0.92221 0.0
C438 C 0.42756 0.25057 0.92287 0.0
O439 O 0.44257 0.25081 0.93804 0.0
C440 C 0.47997 0.27758 0.94418 0.0
O441 O 0.4863 0.3396 0.92373 0.0
C442 C 0.42119 0.3405 0.93461 0.0
C443 C 0.50479 0.3297 0.91937 0.0
O444 O 0.50437 0.30877 0.9152 0.0
C445 C 0.47228 0.31281 0.8743 0.0
C446 C 0.40683 0.35757 0.92562 0.0
C447 C 0.38428 0.35678 0.92966 0.0
C448 C 0.37049 0.37283 0.92097 0.0
C449 C 0.3794 0.3899 0.9088 0.0
C450 C 0.40184 0.39134 0.9052 0.0
C451 C 0.41549 0.37485 0.91324 0.0
O452 O 0.48496 0.26858 0.92536 0.0
O453 O 0.46508 0.29296 0.94634 0.0
O454 O 0.46831 0.24934 0.86501 0.0
O455 O 0.48411 0.23622 0.89288 0.0
C456 C 0.48052 0.23359 0.87214 0.0
O457 O 0.45587 0.32065 0.88543 0.0
O458 O 0.48077 0.29384 0.87903 0.0
O459 O 0.44111 0.34649 0.93967 0.0
O460 O 0.42026 0.3213 0.92508 0.0
H461 H 0.3775 0.34374 0.93944 0.0
H462 H 0.36872 0.4024 0.90235 0.0
H463 H 0.43285 0.37574 0.9103 0.0
O464 O 0.61297 0.25469 0.0714 0.0
Tb465 Tb 0.61722 0.24631 0.03719 0.0
Eu466 Eu 0.58843 0.19514 0.05307 0.0
C467 C 0.59605 0.26619 0.07783 0.0
O468 O 0.57958 0.26861 0.06441 0.0
C469 C 0.56949 0.23427 0.02525 0.0
O470 O 0.58851 0.17356 0.0232 0.0
C471 C 0.57287 0.17337 0.0857 0.0
C472 C 0.5957 0.1804 1.00422 0.0
O473 O 0.6035 0.20014 1.00233 0.0
C474 C 0.63876 0.20007 0.0423 0.0
C475 C 0.58087 0.15563 0.09977 0.0
C476 C 0.57512 0.15551 0.12198 0.0
C477 C 0.58361 0.13952 0.13586 0.0
C478 C 0.5974 0.12343 0.12747 0.0
C479 C 0.60297 0.12311 0.10542 0.0
C480 C 0.59481 0.13929 0.09149 0.0
O481 O 0.58859 0.24012 0.01773 0.0
O482 O 0.56711 0.22361 0.04367 0.0
O483 O 0.6197 0.27817 0.02066 0.0
O484 O 0.64824 0.25995 0.02706 0.0
C485 C 0.64076 0.27777 0.0185 0.0
O486 O 0.62475 0.19448 0.05744 0.0
O487 O 0.63605 0.21732 0.02995 0.0
O488 O 0.56895 0.1683 0.06526 0.0
O489 O 0.58265 0.19227 0.088 0.0
H490 H 0.56444 0.16797 0.12849 0.0
H491 H 0.60379 0.11091 0.13821 0.0
H492 H 0.59953 0.13933 0.07445 0.0
O493 O 0.60918 0.25943 0.43851 0.0
Tb494 Tb 0.61549 0.26398 0.47308 0.0
Eu495 Eu 0.58788 0.31597 0.46044 0.0
C496 C 0.59182 0.24862 0.43224 0.0
O497 O 0.57626 0.24522 0.44649 0.0
C498 C 0.5666 0.27366 0.48399 0.0
O499 O 0.58475 0.33574 0.49165 0.0
C500 C 0.57631 0.33711 0.42551 0.0
C501 C 0.59015 0.32614 0.51009 0.0
O502 O 0.59669 0.30584 0.50924 0.0
C503 C 0.6376 0.30999 0.47596 0.0
C504 C 0.58479 0.35528 0.41197 0.0
C505 C 0.58281 0.35477 0.38896 0.0
C506 C 0.59073 0.37221 0.37631 0.0
C507 C 0.60004 0.39014 0.38672 0.0
C508 C 0.60198 0.39101 0.4094 0.0
C509 C 0.5947 0.3734 0.42199 0.0
O510 O 0.58544 0.2664 0.49112 0.0
O511 O 0.56491 0.28798 0.46801 0.0
O512 O 0.64569 0.24534 0.47411 0.0
O513 O 0.61832 0.23264 0.49062 0.0
C514 C 0.63871 0.2293 0.48599 0.0
O515 O 0.62443 0.31861 0.46148 0.0
O516 O 0.63395 0.29123 0.48552 0.0
O517 O 0.56953 0.34216 0.44526 0.0
O518 O 0.58728 0.3187 0.42489 0.0
H519 H 0.57532 0.34093 0.381 0.0
H520 H 0.60611 0.40355 0.37692 0.0
H521 H 0.59644 0.37399 0.43957 0.0
O522 O 0.25758 0.61446 0.43376 0.0
Tb523 Tb 0.24673 0.61837 0.46712 0.0
Eu524 Eu 0.17742 0.58699 0.46273 0.0
C525 C 0.26354 0.59533 0.42624 0.0
O526 O 0.26 0.57796 0.43821 0.0
C527 C 0.22384 0.56709 0.47877 0.0
O528 O 0.15119 0.5887 0.48797 0.0
C529 C 0.16459 0.58472 0.4224 0.0
C530 C 0.15562 0.57982 0.50695 0.0
O531 O 0.17435 0.56982 0.50946 0.0
C532 C 0.20177 0.634 0.4714 0.0
C533 C 0.14493 0.58734 0.40893 0.0
C534 C 0.14667 0.58606 0.386 0.0
C535 C 0.12866 0.59105 0.37282 0.0
C536 C 0.10896 0.59673 0.38264 0.0
C537 C 0.10718 0.59867 0.40525 0.0
C538 C 0.12514 0.5939 0.41851 0.0
O539 O 0.23249 0.58633 0.47442 0.0
O540 O 0.20328 0.56265 0.4737 0.0
O541 O 0.27087 0.64297 0.47386 0.0
O542 O 0.27032 0.61457 0.49377 0.0
C543 C 0.27977 0.63324 0.49035 0.0
O544 O 0.20163 0.61321 0.46689 0.0
O545 O 0.22118 0.64224 0.47186 0.0
O546 O 0.16565 0.56759 0.43532 0.0
O547 O 0.17181 0.60266 0.43158 0.0
H548 H 0.16216 0.58222 0.37846 0.0
H549 H 0.09522 0.60121 0.37245 0.0
H550 H 0.12407 0.59629 0.43599 0.0
O551 O 0.89686 0.25595 0.43938 0.0
Tb552 Tb 0.89032 0.2461 0.47261 0.0
Eu553 Eu 0.92561 0.18191 0.4658 0.0
C554 C 0.91584 0.26351 0.4332 0.0
O555 O 0.93224 0.26277 0.44689 0.0
C556 C 0.93653 0.22822 0.48657 0.0
O557 O 0.92403 0.15853 0.49403 0.0
C558 C 0.93059 0.16577 0.42698 0.0
C559 C 0.93754 0.16209 0.5103 0.0
O560 O 0.95181 0.17787 0.50838 0.0
C561 C 0.87602 0.20165 0.46748 0.0
C562 C 0.92539 0.14618 0.41423 0.0
C563 C 0.92831 0.14682 0.39146 0.0
C564 C 0.91999 0.13011 0.37837 0.0
C565 C 0.90947 0.11246 0.38809 0.0
C566 C 0.90624 0.1116 0.41067 0.0
C567 C 0.91408 0.12865 0.42379 0.0
O568 O 0.91543 0.22787 0.49078 0.0
O569 O 0.94547 0.21167 0.47576 0.0
O570 O 0.88945 0.2769 0.49092 0.0
O571 O 0.86025 0.25919 0.48526 0.0
C572 C 0.86843 0.27657 0.49393 0.0
O573 O 0.89689 0.20333 0.46426 0.0
O574 O 0.86654 0.22037 0.46949 0.0
O575 O 0.94592 0.16465 0.44199 0.0
O576 O 0.91347 0.17688 0.43323 0.0
H577 H 0.93591 0.16083 0.38387 0.0
H578 H 0.90273 0.09977 0.37779 0.0
H579 H 0.91085 0.12861 0.44117 0.0
O580 O 0.24561 0.90129 0.43654 0.0
Tb581 Tb 0.25986 0.89955 0.46887 0.0
Eu582 Eu 0.33034 0.93058 0.46453 0.0
C583 C 0.245 0.92046 0.42699 0.0
O584 O 0.2559 0.93656 0.43584 0.0
C585 C 0.2847 0.94747 0.48054 0.0
O586 O 0.35574 0.92729 0.49036 0.0
C587 C 0.34559 0.93684 0.42546 0.0
C588 C 0.34818 0.92592 0.51027 0.0
O589 O 0.32703 0.92533 0.51324 0.0
C590 C 0.30534 0.8805 0.4671 0.0
C591 C 0.36462 0.93149 0.41189 0.0
C592 C 0.36446 0.93777 0.3898 0.0
C593 C 0.38128 0.93116 0.37591 0.0
C594 C 0.39806 0.91819 0.38398 0.0
C595 C 0.39842 0.91149 0.40577 0.0
C596 C 0.38175 0.9184 0.41994 0.0
O597 O 0.28133 0.92759 0.47348 0.0
O598 O 0.30464 0.95481 0.47708 0.0
O599 O 0.22784 0.90354 0.48407 0.0
O600 O 0.24862 0.87831 0.49516 0.0
C601 C 0.2296 0.88723 0.49749 0.0
O602 O 0.3079 0.90148 0.46409 0.0
O603 O 0.2849 0.87405 0.46693 0.0
O604 O 0.3481 0.95101 0.44135 0.0
O605 O 0.33341 0.92021 0.43093 0.0
H606 H 0.35113 0.9474 0.38338 0.0
H607 H 0.41098 0.91307 0.37302 0.0
H608 H 0.38169 0.91305 0.43678 0.0
O609 O 0.90375 0.2532 0.07982 0.0
Tb610 Tb 0.89649 0.26563 0.04732 0.0
Eu611 Eu 0.92371 0.32057 0.05177 0.0
C612 C 0.92316 0.2454 0.08442 0.0
O613 O 0.93909 0.24888 0.0706 0.0
C614 C 0.94362 0.27831 0.03257 0.0
O615 O 0.92867 0.34715 0.02692 0.0
C616 C 0.92283 0.33612 0.09092 0.0
C617 C 0.93468 0.34209 0.00695 0.0
O618 O 0.94048 0.32195 1.00268 0.0
C619 C 0.87396 0.31041 0.04434 0.0
C620 C 0.91437 0.35479 0.10315 0.0
C621 C 0.91835 0.356 0.12564 0.0
C622 C 0.91177 0.37436 0.13742 0.0
C623 C 0.90149 0.39161 0.12667 0.0
C624 C 0.8974 0.39064 0.10419 0.0
C625 C 0.9037 0.37201 0.09245 0.0
O626 O 0.92384 0.27348 0.02597 0.0
O627 O 0.94697 0.29317 0.04745 0.0
O628 O 0.89445 0.23131 0.03854 0.0
O629 O 0.87038 0.25271 0.02634 0.0
C630 C 0.8772 0.23266 0.02646 0.0
O631 O 0.89184 0.31683 0.03474 0.0
O632 O 0.8732 0.29151 0.05437 0.0
O633 O 0.93824 0.34068 0.07671 0.0
O634 O 0.90857 0.32171 0.08387 0.0
H635 H 0.92668 0.34281 0.13392 0.0
H636 H 0.89638 0.40576 0.13596 0.0
H637 H 0.9008 0.37113 0.07503 0.0
O638 O 0.25297 0.89891 0.0733 0.0
Tb639 Tb 0.24531 0.89735 0.03865 0.0
Eu640 Eu 0.18998 0.92424 0.05119 0.0
C641 C 0.26326 0.91593 0.08131 0.0
O642 O 0.26376 0.93393 0.06977 0.0
C643 C 0.23427 0.94773 0.02999 0.0
O644 O 0.17032 0.92212 0.01982 0.0
C645 C 0.16559 0.9363 0.08383 0.0
C646 C 0.1806 0.92 1.0011 0.0
O647 O 0.20194 0.91974 1.00116 0.0
C648 C 0.19968 0.87681 0.03768 0.0
C649 C 0.14885 0.92666 0.09848 0.0
C650 C 0.14928 0.93144 0.12103 0.0
C651 C 0.13378 0.92224 0.1352 0.0
C652 C 0.11777 0.90855 0.1267 0.0
C653 C 0.11657 0.90408 0.10436 0.0
C654 C 0.13217 0.91313 0.09021 0.0
O655 O 0.24493 0.92975 0.02491 0.0
O656 O 0.21609 0.94893 0.04166 0.0
O657 O 0.25913 0.86551 0.03146 0.0
O658 O 0.27621 0.89329 0.0205 0.0
C659 C 0.27627 0.87209 0.021 0.0
O660 O 0.19444 0.88812 0.05494 0.0
O661 O 0.21596 0.88301 0.02542 0.0
O662 O 0.16019 0.93918 0.06327 0.0
O663 O 0.1857 0.92933 0.08624 0.0
H664 H 0.16156 0.9423 0.12752 0.0
H665 H 0.10539 0.90211 0.13755 0.0
H666 H 0.13132 0.90959 0.07292 0.0
O667 O 0.24217 0.61577 0.07414 0.0
Tb668 Tb 0.25317 0.61454 0.04067 0.0
Eu669 Eu 0.32256 0.58693 0.04218 0.0
C670 C 0.24192 0.59821 0.08638 0.0
O671 O 0.24981 0.57992 0.07857 0.0
C672 C 0.27512 0.56335 0.03038 0.0
O673 O 0.34422 0.59255 0.01308 0.0
C674 C 0.34068 0.58206 0.08007 0.0
C675 C 0.3344 0.59212 0.99405 0.0
O676 O 0.31315 0.58986 0.99381 0.0
C677 C 0.2964 0.63252 0.04188 0.0
C678 C 0.35986 0.58683 0.09349 0.0
C679 C 0.3581 0.58357 0.1161 0.0
C680 C 0.3743 0.59123 0.13007 0.0
C681 C 0.39262 0.60151 0.12134 0.0
C682 C 0.39519 0.60428 0.09876 0.0
C683 C 0.37844 0.59707 0.08479 0.0
O684 O 0.26254 0.58089 0.03258 0.0
O685 O 0.29647 0.562 0.0342 0.0
O686 O 0.2194 0.62079 0.03065 0.0
O687 O 0.24535 0.62996 0.00975 0.0
C688 C 0.22436 0.62992 0.01213 0.0
O689 O 0.29687 0.61145 0.04432 0.0
O690 O 0.27685 0.64022 0.04228 0.0
O691 O 0.34218 0.56729 0.06455 0.0
O692 O 0.32891 0.59906 0.07464 0.0
H693 H 0.34368 0.576 0.1229 0.0
H694 H 0.4048 0.60774 0.13247 0.0
H695 H 0.37959 0.59966 0.06735 0.0
O696 O 0.92924 0.40593 0.75926 0.0
Tb697 Tb 0.96121 0.39492 0.77029 0.0
Eu698 Eu 0.96489 0.4243 0.82187 0.0
C699 C 0.92564 0.42655 0.75467 0.0
O700 O 0.93823 0.4413 0.76343 0.0
C701 C 0.98208 0.44091 0.77702 0.0
O702 O 0.99236 0.43144 0.84512 0.0
C703 C 0.92679 0.42669 0.83976 0.0
C704 C 0.01106 0.43825 0.83718 0.0
O705 O 0.01239 0.44283 0.81632 0.0
C706 C 0.96909 0.373 0.8145 0.0
C707 C 0.91388 0.41735 0.85772 0.0
C708 C 0.89106 0.41822 0.85655 0.0
C709 C 0.87842 0.40977 0.87357 0.0
C710 C 0.88861 0.40092 0.89193 0.0
C711 C 0.91133 0.40017 0.89357 0.0
C712 C 0.92398 0.40817 0.87619 0.0
O713 O 0.98574 0.42029 0.77274 0.0
O714 O 0.97023 0.4468 0.79379 0.0
O715 O 0.96134 0.3874 0.73554 0.0
O716 O 0.98262 0.36984 0.7561 0.0
C717 C 0.97642 0.37267 0.73603 0.0
O718 O 0.979 0.39067 0.82117 0.0
O719 O 0.95552 0.37331 0.79792 0.0
O720 O 0.94321 0.43925 0.84538 0.0
O721 O 0.93106 0.41382 0.82307 0.0
H722 H 0.88316 0.42531 0.84242 0.0
H723 H 0.87866 0.39433 0.90497 0.0
H724 H 0.94157 0.4076 0.87717 0.0
O725 O 0.10834 0.93875 0.75609 0.0
Tb726 Tb 0.11623 0.97137 0.76715 0.0
Eu727 Eu 0.08836 0.96061 0.82064 0.0
C728 C 0.09055 0.93494 0.74484 0.0
O729 O 0.0763 0.95069 0.74237 0.0
C730 C 0.06895 0.98325 0.77905 0.0
O731 O 0.08272 0.98627 0.84614 0.0
C732 C 0.08456 0.92277 0.83888 0.0
C733 C 0.07853 0.00653 0.84073 0.0
O734 O 0.07455 0.01133 0.82025 0.0
C735 C 0.13994 0.97086 0.81197 0.0
C736 C 0.09223 0.90935 0.85736 0.0
C737 C 0.09009 0.88664 0.8556 0.0
C738 C 0.097 0.87312 0.87257 0.0
C739 C 0.10582 0.88225 0.89143 0.0
C740 C 0.10842 0.9048 0.8936 0.0
C741 C 0.10131 0.91851 0.87652 0.0
O742 O 0.08862 0.99122 0.77674 0.0
O743 O 0.06545 0.96711 0.79266 0.0
O744 O 0.12162 0.97945 0.73249 0.0
O745 O 0.14095 0.9947 0.75655 0.0
C746 C 0.13718 0.99342 0.73573 0.0
O747 O 0.12196 0.9748 0.82291 0.0
O748 O 0.13994 0.96288 0.79206 0.0
O749 O 0.07193 0.93943 0.84363 0.0
O750 O 0.09839 0.9266 0.82284 0.0
H751 H 0.08327 0.87947 0.84096 0.0
H752 H 0.11104 0.87154 0.90451 0.0
H753 H 0.10327 0.93599 0.87788 0.0
O754 O 0.574 0.10457 0.76119 0.0
Tb755 Tb 0.53974 0.10952 0.76818 0.0
Eu756 Eu 0.55131 0.08658 0.82456 0.0
C757 C 0.57942 0.08658 0.75081 0.0
O758 O 0.56513 0.07071 0.75015 0.0
C759 C 0.5276 0.06227 0.78418 0.0
O760 O 0.51915 0.08792 0.84268 0.0
C761 C 0.58311 0.0744 0.84962 0.0
C762 C 0.50168 0.09384 0.83184 0.0
O763 O 0.50371 0.09864 0.81113 0.0
C764 C 0.54038 0.13512 0.81243 0.0
C765 C 0.59857 0.08505 0.86482 0.0
C766 C 0.62113 0.08282 0.8613 0.0
C767 C 0.63588 0.094 0.87462 0.0
C768 C 0.62809 0.10723 0.89141 0.0
C769 C 0.60588 0.10822 0.89662 0.0
C770 C 0.59109 0.09732 0.88286 0.0
O771 O 0.52119 0.08044 0.77483 0.0
O772 O 0.54276 0.06111 0.79934 0.0
O773 O 0.52686 0.10648 0.73497 0.0
O774 O 0.52767 0.1376 0.74979 0.0
C775 C 0.52225 0.12695 0.73235 0.0
O776 O 0.55618 0.12245 0.81912 0.0
O777 O 0.5297 0.13092 0.79442 0.0
O778 O 0.56257 0.07364 0.85556 0.0
O779 O 0.58567 0.07884 0.82878 0.0
H780 H 0.62716 0.07261 0.8482 0.0
H781 H 0.63985 0.11635 0.90085 0.0
H782 H 0.57385 0.09809 0.88629 0.0
O783 O 0.39041 0.58047 0.75776 0.0
Tb784 Tb 0.39783 0.54644 0.76395 0.0
Eu785 Eu 0.42026 0.54819 0.81981 0.0
C786 C 0.40639 0.59367 0.75227 0.0
O787 O 0.42629 0.58831 0.75788 0.0
C788 C 0.44556 0.53248 0.77542 0.0
O789 O 0.41614 0.52185 0.84509 0.0
C790 C 0.43576 0.58283 0.83817 0.0
C791 C 0.42151 0.50163 0.84046 0.0
O792 O 0.42933 0.49705 0.82108 0.0
C793 C 0.37039 0.54014 0.80785 0.0
C794 C 0.42816 0.59779 0.85561 0.0
C795 C 0.42944 0.62055 0.85262 0.0
C796 C 0.42236 0.63467 0.86921 0.0
C797 C 0.4144 0.62612 0.88875 0.0
C798 C 0.41274 0.60374 0.89188 0.0
C799 C 0.41943 0.58949 0.87529 0.0
O800 O 0.43297 0.54462 0.76324 0.0
O801 O 0.44229 0.52996 0.79646 0.0
O802 O 0.38804 0.54571 0.72971 0.0
O803 O 0.38892 0.51605 0.74737 0.0
C804 C 0.38462 0.5249 0.72866 0.0
O805 O 0.38392 0.55154 0.81976 0.0
O806 O 0.37485 0.534 0.78784 0.0
O807 O 0.44082 0.56295 0.84439 0.0
O808 O 0.42518 0.58345 0.81947 0.0
H809 H 0.43569 0.6272 0.83749 0.0
H810 H 0.4088 0.63709 0.90148 0.0
H811 H 0.41771 0.5721 0.87771 0.0
O812 O 0.93098 0.10607 0.7501 0.0
Tb813 Tb 0.9647 0.11461 0.74391 0.0
Eu814 Eu 0.95734 0.08754 0.69204 0.0
C815 C 0.92651 0.09023 0.76383 0.0
O816 O 0.94186 0.07605 0.76837 0.0
C817 C 0.98488 0.0695 0.73196 0.0
O818 O 0.98819 0.0847 0.67233 0.0
C819 C 0.92352 0.07417 0.67089 0.0
C820 C 0.00591 0.09355 0.68036 0.0
O821 O 0.00466 0.10382 0.69908 0.0
C822 C 0.96764 0.1391 0.69844 0.0
C823 C 0.90854 0.0831 0.65419 0.0
C824 C 0.88596 0.08231 0.65806 0.0
C825 C 0.87146 0.09059 0.64255 0.0
C826 C 0.87939 0.09953 0.62323 0.0
C827 C 0.90161 0.09956 0.61843 0.0
C828 C 0.91632 0.09181 0.63424 0.0
O829 O 0.98847 0.0893 0.73898 0.0
O830 O 0.9683 0.06487 0.71921 0.0
O831 O 0.96676 0.14495 0.76204 0.0
O832 O 0.98124 0.11657 0.77548 0.0
C833 C 0.97798 0.13731 0.77822 0.0
O834 O 0.95734 0.12393 0.68747 0.0
O835 O 0.97433 0.13684 0.71857 0.0
O836 O 0.94357 0.06985 0.66469 0.0
O837 O 0.92227 0.08293 0.69049 0.0
H838 H 0.87971 0.0751 0.67293 0.0
H839 H 0.86789 0.10595 0.61143 0.0
H840 H 0.93359 0.09198 0.63075 0.0
O841 O 0.40626 0.9331 0.75016 0.0
Tb842 Tb 0.40017 0.9669 0.74158 0.0
Eu843 Eu 0.42586 0.95547 0.68868 0.0
C844 C 0.42345 0.92852 0.76212 0.0
O845 O 0.43885 0.94325 0.76366 0.0
C846 C 0.44667 0.9807 0.72858 0.0
O847 O 0.42709 0.98721 0.66972 0.0
C848 C 0.43929 0.92096 0.66841 0.0
C849 C 0.41554 1.00341 0.67779 0.0
O850 O 0.40512 1.00006 0.69617 0.0
C851 C 0.37292 0.96192 0.6972 0.0
C852 C 0.43125 0.90507 0.65225 0.0
C853 C 0.43475 0.88259 0.65578 0.0
C854 C 0.42642 0.86728 0.64099 0.0
C855 C 0.41548 0.87455 0.62245 0.0
C856 C 0.41113 0.89658 0.61913 0.0
C857 C 0.41925 0.91197 0.63389 0.0
O858 O 0.4274 0.98783 0.73416 0.0
O859 O 0.44926 0.9641 0.71544 0.0
O860 O 0.39961 0.97181 0.77693 0.0
O861 O 0.37596 0.98769 0.75759 0.0
C862 C 0.38298 0.9848 0.77731 0.0
O863 O 0.38953 0.95592 0.68505 0.0
O864 O 0.37387 0.96654 0.71813 0.0
O865 O 0.44322 0.94089 0.66146 0.0
O866 O 0.4299 0.92031 0.68772 0.0
H867 H 0.44347 0.87707 0.67011 0.0
H868 H 0.40964 0.86275 0.61064 0.0
H869 H 0.41563 0.92908 0.63147 0.0
O870 O 0.57639 0.39166 0.75049 0.0
Tb871 Tb 0.54234 0.39853 0.74339 0.0
Eu872 Eu 0.54594 0.42037 0.68605 0.0
C873 C 0.59001 0.40747 0.75547 0.0
O874 O 0.58614 0.42715 0.74806 0.0
C875 C 0.53185 0.44632 0.73082 0.0
O876 O 0.51755 0.41707 0.66313 0.0
C877 C 0.57942 0.43395 0.66416 0.0
C878 C 0.49759 0.41949 0.6705 0.0
O879 O 0.4945 0.42281 0.69143 0.0
C880 C 0.53482 0.37222 0.70009 0.0
C881 C 0.59397 0.42481 0.64708 0.0
C882 C 0.61633 0.42988 0.64734 0.0
C883 C 0.6303 0.42158 0.63116 0.0
C884 C 0.62181 0.40837 0.61463 0.0
C885 C 0.59957 0.40379 0.6136 0.0
C886 C 0.58564 0.41184 0.62993 0.0
O887 O 0.5444 0.43359 0.74241 0.0
O888 O 0.52947 0.44382 0.7096 0.0
O889 O 0.54032 0.37919 0.77309 0.0
O890 O 0.51435 0.40066 0.76567 0.0
C891 C 0.52147 0.38625 0.7795 0.0
O892 O 0.54876 0.38399 0.68904 0.0
O893 O 0.5265 0.37906 0.71854 0.0
O894 O 0.55921 0.43773 0.65828 0.0
O895 O 0.58106 0.42569 0.68395 0.0
H896 H 0.6228 0.44043 0.65993 0.0
H897 H 0.63246 0.40249 0.60178 0.0
H898 H 0.56842 0.40819 0.62913 0.0
O899 O 0.1135 0.57873 0.75131 0.0
Tb900 Tb 0.11125 0.54422 0.7433 0.0
Eu901 Eu 0.08749 0.54731 0.68886 0.0
C902 C 0.09618 0.58984 0.75748 0.0
O903 O 0.07687 0.58283 0.7517 0.0
C904 C 0.06249 0.53113 0.73342 0.0
O905 O 0.08635 0.51949 0.66472 0.0
C906 C 0.07305 0.58347 0.67282 0.0
C907 C 0.08577 0.49968 0.67294 0.0
O908 O 0.08722 0.49732 0.69417 0.0
C909 C 0.13705 0.53671 0.69903 0.0
C910 C 0.08173 0.59829 0.65604 0.0
C911 C 0.07749 0.62085 0.6568 0.0
C912 C 0.08577 0.63452 0.64036 0.0
C913 C 0.0975 0.62544 0.62303 0.0
C914 C 0.1013 0.60306 0.62185 0.0
C915 C 0.09396 0.5896 0.63868 0.0
O916 O 0.07648 0.54 0.74684 0.0
O917 O 0.065 0.53045 0.7122 0.0
O918 O 0.1354 0.54089 0.76914 0.0
O919 O 0.10933 0.51833 0.76781 0.0
C920 C 0.12684 0.52382 0.77823 0.0
O921 O 0.12384 0.54822 0.68688 0.0
O922 O 0.1313 0.52903 0.71816 0.0
O923 O 0.06711 0.56419 0.66559 0.0
O924 O 0.0839 0.5826 0.69134 0.0
H925 H 0.06787 0.62766 0.66995 0.0
H926 H 0.10333 0.63589 0.61 0.0
H927 H 0.09708 0.57224 0.63783 0.0
O928 O 0.75342 0.93571 0.40106 0.0
Tb929 Tb 0.76217 0.96978 0.39473 0.0
Eu930 Eu 0.81498 0.95761 0.42035 0.0
C931 C 0.74992 0.92869 0.42109 0.0
O932 O 0.75764 0.94005 0.43739 0.0
C933 C 0.77257 0.9828 0.44377 0.0
O934 O 0.83899 0.98519 0.41795 0.0
C935 C 0.83681 0.92322 0.43203 0.0
C936 C 0.83421 0.00524 0.42381 0.0
O937 O 0.8146 0.00972 0.431 0.0
C938 C 0.80719 0.97336 0.37239 0.0
C939 C 0.85528 0.91024 0.42312 0.0
C940 C 0.85571 0.88739 0.42601 0.0
C941 C 0.87366 0.87509 0.41869 0.0
C942 C 0.89072 0.88567 0.40796 0.0
C943 C 0.89061 0.90815 0.40478 0.0
C944 C 0.87293 0.92054 0.41242 0.0
O945 O 0.76186 0.98646 0.42556 0.0
O946 O 0.79034 0.97055 0.44542 0.0
O947 O 0.74583 0.97188 0.36337 0.0
O948 O 0.73236 0.98915 0.39012 0.0
C949 C 0.73023 0.98481 0.36947 0.0
O950 O 0.81389 0.95651 0.38359 0.0
O951 O 0.79028 0.98445 0.37904 0.0
O952 O 0.84146 0.94303 0.43868 0.0
O953 O 0.81807 0.92208 0.42167 0.0
H954 H 0.84244 0.87933 0.43437 0.0
H955 H 0.90441 0.87624 0.40192 0.0
H956 H 0.87292 0.93802 0.41001 0.0
O957 O 0.57463 0.74889 0.3948 0.0
Tb958 Tb 0.54196 0.75947 0.38681 0.0
Eu959 Eu 0.54891 0.82265 0.41846 0.0
C960 C 0.58204 0.75102 0.41479 0.0
O961 O 0.57091 0.76272 0.42881 0.0
C962 C 0.52492 0.77838 0.43605 0.0
O963 O 0.52084 0.84516 0.41157 0.0
C964 C 0.58642 0.83945 0.42892 0.0
C965 C 0.50285 0.83564 0.40501 0.0
O966 O 0.50328 0.81462 0.40107 0.0
C967 C 0.54628 0.80245 0.36929 0.0
C968 C 0.60036 0.85825 0.42363 0.0
C969 C 0.62323 0.85629 0.42505 0.0
C970 C 0.6366 0.87364 0.41846 0.0
C971 C 0.62708 0.89275 0.41072 0.0
C972 C 0.60447 0.89501 0.40928 0.0
C973 C 0.5911 0.87761 0.41564 0.0
O974 O 0.52525 0.76746 0.41732 0.0
O975 O 0.5366 0.79596 0.44098 0.0
O976 O 0.53538 0.72522 0.37903 0.0
O977 O 0.51281 0.74955 0.36942 0.0
C978 C 0.51688 0.72886 0.3694 0.0
O979 O 0.55287 0.80192 0.38953 0.0
O980 O 0.54481 0.78315 0.36109 0.0
O981 O 0.56844 0.84312 0.44001 0.0
O982 O 0.5837 0.82547 0.41301 0.0
H983 H 0.63053 0.84128 0.43077 0.0
H984 H 0.63758 0.90577 0.40507 0.0
H985 H 0.57359 0.879 0.41418 0.0
O986 O 0.76067 0.57381 0.4042 0.0
Tb987 Tb 0.74927 0.54116 0.39646 0.0
Eu988 Eu 0.68089 0.54915 0.42186 0.0
C989 C 0.76302 0.58036 0.42448 0.0
O990 O 0.75554 0.56805 0.44027 0.0
C991 C 0.72606 0.53047 0.44175 0.0
O992 O 0.65468 0.52373 0.42253 0.0
C993 C 0.66881 0.58923 0.42512 0.0
C994 C 0.6597 0.50431 0.43001 0.0
O995 O 0.67929 0.50103 0.43789 0.0
C996 C 0.70684 0.54193 0.37551 0.0
C997 C 0.6491 0.60234 0.42521 0.0
C998 C 0.65077 0.62495 0.42786 0.0
C999 C 0.63232 0.63803 0.42542 0.0
C1000 C 0.61228 0.62845 0.42046 0.0
C1001 C 0.61076 0.60601 0.41708 0.0
C1002 C 0.62912 0.59287 0.41975 0.0
O1003 O 0.73089 0.52326 0.42192 0.0
O1004 O 0.70779 0.54133 0.44557 0.0
O1005 O 0.76809 0.5289 0.36925 0.0
O1006 O 0.77707 0.51947 0.40141 0.0
C1007 C 0.78144 0.51732 0.38074 0.0
O1008 O 0.70565 0.54572 0.39637 0.0
O1009 O 0.72682 0.54065 0.36902 0.0
O1010 O 0.67201 0.57668 0.44225 0.0
O1011 O 0.67331 0.57976 0.40638 0.0
H1012 H 0.66649 0.63241 0.43074 0.0
H1013 H 0.59827 0.63873 0.41723 0.0
H1014 H 0.62818 0.57559 0.41621 0.0
O1015 O 0.93016 0.75194 0.39747 0.0
Tb1016 Tb 0.96428 0.74218 0.39738 0.0
Eu1017 Eu 0.95643 0.6864 0.42032 0.0
C1018 C 0.9197 0.75459 0.41601 0.0
O1019 O 0.92568 0.74269 0.43275 0.0
C1020 C 0.97803 0.7292 0.44531 0.0
O1021 O 0.98605 0.66551 0.41471 0.0
C1022 C 0.92591 0.66318 0.43757 0.0
C1023 C 0.0045 0.67559 0.41086 0.0
O1024 O 0.00417 0.69681 0.40839 0.0
C1025 C 0.96405 0.69801 0.37193 0.0
C1026 C 0.91092 0.64651 0.42873 0.0
C1027 C 0.88823 0.64963 0.43 0.0
C1028 C 0.87413 0.63442 0.42047 0.0
C1029 C 0.88266 0.61602 0.4101 0.0
C1030 C 0.90508 0.61254 0.4088 0.0
C1031 C 0.9192 0.62773 0.41823 0.0
O1032 O 0.97039 0.74413 0.43207 0.0
O1033 O 0.9754 0.7081 0.44292 0.0
O1034 O 0.96631 0.77042 0.37587 0.0
O1035 O 0.99374 0.7621 0.39511 0.0
C1036 C 0.98616 0.7757 0.38078 0.0
O1037 O 0.94877 0.69076 0.38482 0.0
O1038 O 0.97547 0.71515 0.37739 0.0
O1039 O 0.94656 0.65768 0.43814 0.0
O1040 O 0.92271 0.68346 0.43123 0.0
H1041 H 0.88162 0.66392 0.43799 0.0
H1042 H 0.87164 0.6042 0.40297 0.0
H1043 H 0.93657 0.62513 0.41679 0.0
O1044 O 0.75023 0.57766 0.11172 0.0
Tb1045 Tb 0.76579 0.54644 0.11797 0.0
Eu1046 Eu 0.8168 0.54626 0.08685 0.0
C1047 C 0.74864 0.58632 0.09215 0.0
O1048 O 0.75951 0.57766 0.07589 0.0
C1049 C 0.77024 0.53053 0.06701 0.0
O1050 O 0.8431 0.52167 0.08014 0.0
C1051 C 0.83244 0.58557 0.08503 0.0
C1052 C 0.83734 0.50139 0.07643 0.0
O1053 O 0.81657 0.49692 0.07416 0.0
C1054 C 0.81157 0.53754 0.13786 0.0
C1055 C 0.85101 0.59861 0.09317 0.0
C1056 C 0.85173 0.62127 0.08899 0.0
C1057 C 0.87017 0.63355 0.09487 0.0
C1058 C 0.88747 0.62303 0.10526 0.0
C1059 C 0.88717 0.60068 0.10943 0.0
C1060 C 0.86876 0.58843 0.10362 0.0
O1061 O 0.76045 0.53146 0.08614 0.0
O1062 O 0.79011 0.53767 0.06324 0.0
O1063 O 0.73981 0.54321 0.14233 0.0
O1064 O 0.75224 0.51479 0.12713 0.0
C1065 C 0.73815 0.52213 0.1411 0.0
O1066 O 0.81921 0.52996 0.11944 0.0
O1067 O 0.79459 0.55053 0.13833 0.0
O1068 O 0.83738 0.57013 0.07095 0.0
O1069 O 0.8174 0.57966 0.09924 0.0
H1070 H 0.83828 0.62916 0.08073 0.0
H1071 H 0.90134 0.63253 0.11061 0.0
H1072 H 0.86843 0.57107 0.10677 0.0
O1073 O 0.9285 0.75697 0.11351 0.0
Tb1074 Tb 0.96277 0.76593 0.11111 0.0
Eu1075 Eu 0.96139 0.82233 0.08892 0.0
C1076 C 0.91681 0.75387 0.09578 0.0
O1077 O 0.92132 0.76565 0.07851 0.0
C1078 C 0.97539 0.77729 0.06228 0.0
O1079 O 0.99272 0.84135 0.09146 0.0
C1080 C 0.92951 0.8459 0.07441 0.0
C1081 C 0.01025 0.83068 0.09756 0.0
O1082 O 0.00847 0.80989 0.10227 0.0
C1083 C 0.96898 0.80945 0.13812 0.0
C1084 C 0.91376 0.86185 0.08378 0.0
C1085 C 0.89119 0.85766 0.08267 0.0
C1086 C 0.87624 0.8728 0.09111 0.0
C1087 C 0.88376 0.89224 0.10021 0.0
C1088 C 0.90596 0.89703 0.10114 0.0
C1089 C 0.92098 0.8816 0.09326 0.0
O1090 O 0.96557 0.76414 0.07598 0.0
O1091 O 0.97688 0.79855 0.06511 0.0
O1092 O 0.96487 0.73738 0.13206 0.0
O1093 O 0.99138 0.74457 0.11109 0.0
C1094 C 0.98419 0.73133 0.12597 0.0
O1095 O 0.95639 0.82068 0.12513 0.0
O1096 O 0.97679 0.79043 0.13245 0.0
O1097 O 0.95001 0.85199 0.07345 0.0
O1098 O 0.9271 0.82529 0.07998 0.0
H1099 H 0.8853 0.84277 0.07527 0.0
H1100 H 0.87206 0.90387 0.10659 0.0
H1101 H 0.93819 0.88528 0.09406 0.0
O1102 O 0.7567 0.92532 0.10676 0.0
Tb1103 Tb 0.74611 0.95842 0.11374 0.0
Eu1104 Eu 0.68102 0.96427 0.08398 0.0
C1105 C 0.76032 0.91949 0.08643 0.0
O1106 O 0.75253 0.93182 0.07078 0.0
C1107 C 0.72943 0.97689 0.06418 0.0
O1108 O 0.65689 0.99193 0.08159 0.0
C1109 C 0.66519 0.92492 0.08503 0.0
C1110 C 0.66484 0.0118 0.08276 0.0
O1111 O 0.68598 0.01412 0.08487 0.0
C1112 C 0.70269 0.96336 0.13029 0.0
C1113 C 0.64489 0.91227 0.08767 0.0
C1114 C 0.64499 0.88966 0.08334 0.0
C1115 C 0.62663 0.87688 0.08823 0.0
C1116 C 0.60804 0.88693 0.09676 0.0
C1117 C 0.60763 0.90931 0.10094 0.0
C1118 C 0.62613 0.92198 0.09658 0.0
O1119 O 0.74115 0.97528 0.0824 0.0
O1120 O 0.70928 0.96964 0.06075 0.0
O1121 O 0.7807 0.96038 0.12124 0.0
O1122 O 0.76003 0.98578 0.13213 0.0
C1123 C 0.77998 0.97884 0.13147 0.0
O1124 O 0.70441 0.97071 0.11042 0.0
O1125 O 0.72076 0.95582 0.13812 0.0
O1126 O 0.66804 0.93587 0.06675 0.0
O1127 O 0.6719 0.93554 0.10239 0.0
H1128 H 0.65952 0.88194 0.07696 0.0
H1129 H 0.59388 0.87713 0.10067 0.0
H1130 H 0.62608 0.93918 0.10056 0.0
O1131 O 0.57296 0.74823 0.11055 0.0
Tb1132 Tb 0.53828 0.74181 0.11476 0.0
Eu1133 Eu 0.55237 0.69142 0.08787 0.0
C1134 C 0.57971 0.7591 0.09323 0.0
O1135 O 0.56724 0.75936 0.07589 0.0
C1136 C 0.52779 0.73374 0.06456 0.0
O1137 O 0.52338 0.67011 0.09513 0.0
C1138 C 0.58384 0.66701 0.07405 0.0
C1139 C 0.50547 0.67114 0.08349 0.0
O1140 O 0.50418 0.6853 0.06752 0.0
C1141 C 0.54341 0.69721 0.13749 0.0
C1142 C 0.59663 0.64908 0.08403 0.0
C1143 C 0.61956 0.64986 0.08375 0.0
C1144 C 0.63173 0.6334 0.09397 0.0
C1145 C 0.621 0.61579 0.10367 0.0
C1146 C 0.59831 0.61469 0.10412 0.0
C1147 C 0.58612 0.63154 0.0946 0.0
O1148 O 0.52347 0.74377 0.083 0.0
O1149 O 0.54011 0.71609 0.06275 0.0
O1150 O 0.54403 0.77315 0.13048 0.0
O1151 O 0.51208 0.76044 0.13046 0.0
C1152 C 0.52417 0.77662 0.13656 0.0
O1153 O 0.55943 0.69414 0.1238 0.0
O1154 O 0.53045 0.71388 0.13485 0.0
O1155 O 0.56324 0.66291 0.06996 0.0
O1156 O 0.58708 0.68662 0.0821 0.0
H1157 H 0.62785 0.66346 0.07616 0.0
H1158 H 0.63047 0.60309 0.1115 0.0
H1159 H 0.56853 0.63089 0.09542 0.0
O1160 O 0.39745 0.74526 0.93174 0.0
Tb1161 Tb 0.3886 0.75487 0.9648 0.0
Eu1162 Eu 0.41768 0.82238 0.96432 0.0
C1163 C 0.41771 0.74545 0.92477 0.0
O1164 O 0.4326 0.75534 0.93641 0.0
C1165 C 0.43842 0.77457 0.9812 0.0
O1166 O 0.41516 0.84784 0.99052 0.0
C1167 C 0.4223 0.83737 0.92491 0.0
C1168 C 0.42029 0.84194 0.01046 0.0
O1169 O 0.42569 0.82154 0.01401 0.0
C1170 C 0.37039 0.79826 0.96916 0.0
C1171 C 0.4194 0.85778 0.91261 0.0
C1172 C 0.42643 0.85911 0.89077 0.0
C1173 C 0.42157 0.87764 0.87824 0.0
C1174 C 0.41009 0.8949 0.88774 0.0
C1175 C 0.40315 0.89388 0.90949 0.0
C1176 C 0.40775 0.8752 0.92187 0.0
O1177 O 0.42091 0.762 0.97861 0.0
O1178 O 0.44093 0.79524 0.97475 0.0
O1179 O 0.36935 0.72511 0.96444 0.0
O1180 O 0.38447 0.73447 0.99387 0.0
C1181 C 0.37235 0.71979 0.9847 0.0
O1182 O 0.39125 0.79867 0.96537 0.0
O1183 O 0.36291 0.77865 0.96815 0.0
O1184 O 0.43849 0.83635 0.93895 0.0
O1185 O 0.40423 0.82868 0.93235 0.0
H1186 H 0.43506 0.84558 0.88338 0.0
H1187 H 0.40618 0.90908 0.87793 0.0
H1188 H 0.40206 0.8741 0.93858 0.0
O1189 O 0.39533 0.75601 0.57344 0.0
Tb1190 Tb 0.39598 0.75106 0.5383 0.0
Eu1191 Eu 0.42206 0.69689 0.55259 0.0
C1192 C 0.41329 0.76018 0.58431 0.0
O1193 O 0.43204 0.75736 0.57448 0.0
C1194 C 0.44547 0.73932 0.53011 0.0
O1195 O 0.42206 0.67638 0.52183 0.0
C1196 C 0.43356 0.67285 0.58547 0.0
C1197 C 0.4207 0.68551 0.50246 0.0
O1198 O 0.41903 0.70675 0.5012 0.0
C1199 C 0.3739 0.70631 0.53819 0.0
C1200 C 0.42425 0.65454 0.59819 0.0
C1201 C 0.42512 0.65513 0.62114 0.0
C1202 C 0.41616 0.63813 0.63356 0.0
C1203 C 0.40696 0.62019 0.62287 0.0
C1204 C 0.40621 0.61903 0.60006 0.0
C1205 C 0.41461 0.63646 0.58775 0.0
O1206 O 0.42733 0.74812 0.52289 0.0
O1207 O 0.44647 0.72387 0.54513 0.0
O1208 O 0.39309 0.78415 0.52443 0.0
O1209 O 0.36586 0.76312 0.52394 0.0
C1210 C 0.3729 0.78223 0.51833 0.0
O1211 O 0.38551 0.69818 0.55411 0.0
O1212 O 0.38171 0.72164 0.52568 0.0
O1213 O 0.43929 0.66869 0.56522 0.0
O1214 O 0.42412 0.69197 0.5878 0.0
H1215 H 0.4325 0.66892 0.62931 0.0
H1216 H 0.40022 0.607 0.63248 0.0
H1217 H 0.41386 0.63581 0.57011 0.0
O1218 O 0.75818 0.4099 0.57536 0.0
Tb1219 Tb 0.76547 0.40499 0.54104 0.0
Eu1220 Eu 0.82083 0.42736 0.55462 0.0
C1221 C 0.74621 0.42689 0.58064 0.0
O1222 O 0.74443 0.44271 0.56631 0.0
C1223 C 0.78278 0.45147 0.52635 0.0
O1224 O 0.84249 0.41953 0.52595 0.0
C1225 C 0.84528 0.43979 0.58672 0.0
C1226 C 0.83553 0.42057 0.50571 0.0
O1227 O 0.81514 0.42547 0.50186 0.0
C1228 C 0.80871 0.37946 0.54459 0.0
C1229 C 0.86235 0.42968 0.6005 0.0
C1230 C 0.8614 0.43218 0.62334 0.0
C1231 C 0.87743 0.42277 0.63663 0.0
C1232 C 0.89431 0.41083 0.62713 0.0
C1233 C 0.89556 0.40804 0.60451 0.0
C1234 C 0.87961 0.41758 0.59115 0.0
O1235 O 0.77244 0.43338 0.52139 0.0
O1236 O 0.79763 0.45322 0.54184 0.0
O1237 O 0.73245 0.40684 0.52763 0.0
O1238 O 0.74775 0.37604 0.53042 0.0
C1239 C 0.7302 0.38608 0.5243 0.0
O1240 O 0.81368 0.3922 0.56089 0.0
O1241 O 0.79222 0.38402 0.5319 0.0
O1242 O 0.85024 0.44311 0.56612 0.0
O1243 O 0.82525 0.43277 0.58954 0.0
H1244 H 0.84835 0.44149 0.63073 0.0
H1245 H 0.90674 0.40377 0.63753 0.0
H1246 H 0.8805 0.4153 0.57365 0.0
O1247 O 0.10818 0.75395 0.5728 0.0
Tb1248 Tb 0.11338 0.76475 0.53942 0.0
Eu1249 Eu 0.08362 0.81449 0.55362 0.0
C1250 C 0.09091 0.74261 0.57837 0.0
O1251 O 0.07502 0.7404 0.56425 0.0
C1252 C 0.06536 0.77459 0.52891 0.0
O1253 O 0.07428 0.83567 0.52495 0.0
C1254 C 0.07456 0.83196 0.59094 0.0
C1255 C 0.08279 0.83111 0.50578 0.0
O1256 O 0.09621 0.81458 0.50398 0.0
C1257 C 0.13665 0.81098 0.54411 0.0
C1258 C 0.0828 0.85009 0.60411 0.0
C1259 C 0.07641 0.85216 0.62607 0.0
C1260 C 0.08434 0.86948 0.63864 0.0
C1261 C 0.09816 0.88483 0.62911 0.0
C1262 C 0.10424 0.8831 0.60726 0.0
C1263 C 0.09682 0.86558 0.59474 0.0
O1264 O 0.08472 0.77226 0.52031 0.0
O1265 O 0.06295 0.78522 0.5472 0.0
O1266 O 0.11972 0.73008 0.53263 0.0
O1267 O 0.13593 0.7541 0.514 0.0
C1268 C 0.13342 0.73329 0.51679 0.0
O1269 O 0.11837 0.82214 0.54509 0.0
O1270 O 0.13786 0.78957 0.54519 0.0
O1271 O 0.06473 0.83747 0.57268 0.0
O1272 O 0.08777 0.81518 0.58881 0.0
H1273 H 0.06541 0.84041 0.6333 0.0
H1274 H 0.1039 0.89854 0.63869 0.0
H1275 H 0.10158 0.86424 0.57776 0.0
O1276 O 0.76314 0.11236 0.5772 0.0
Tb1277 Tb 0.7512 0.11846 0.54439 0.0
Eu1278 Eu 0.6846 0.09015 0.54894 0.0
C1279 C 0.76131 0.09291 0.58601 0.0
O1280 O 0.74904 0.0783 0.57646 0.0
C1281 C 0.73083 0.06794 0.53084 0.0
O1282 O 0.66243 0.09899 0.52142 0.0
C1283 C 0.66573 0.08069 0.58578 0.0
C1284 C 0.67203 0.10548 0.50348 0.0
O1285 O 0.69325 0.10789 0.50348 0.0
C1286 C 0.70816 0.1375 0.54612 0.0
C1287 C 0.64678 0.08645 0.59935 0.0
C1288 C 0.6465 0.07978 0.62134 0.0
C1289 C 0.62974 0.08665 0.63525 0.0
C1290 C 0.61317 0.09986 0.62706 0.0
C1291 C 0.61302 0.10658 0.60521 0.0
C1292 C 0.6299 0.09975 0.59126 0.0
O1293 O 0.74333 0.08546 0.53313 0.0
O1294 O 0.71008 0.06591 0.53698 0.0
O1295 O 0.78478 0.12869 0.53833 0.0
O1296 O 0.76239 0.12806 0.51202 0.0
C1297 C 0.78231 0.13223 0.51756 0.0
O1298 O 0.70735 0.11741 0.55311 0.0
O1299 O 0.72789 0.14471 0.54502 0.0
O1300 O 0.6623 0.0697 0.56768 0.0
O1301 O 0.68042 0.09599 0.58359 0.0
H1302 H 0.65946 0.06963 0.6277 0.0
H1303 H 0.59999 0.10463 0.63784 0.0
H1304 H 0.63019 0.10515 0.57443 0.0
O1305 O 0.10564 0.75461 0.9274 0.0
Tb1306 Tb 0.11498 0.74802 0.96088 0.0
Eu1307 Eu 0.08309 0.68327 0.96452 0.0
C1308 C 0.08555 0.75967 0.92209 0.0
O1309 O 0.06986 0.75562 0.93602 0.0
C1310 C 0.06491 0.73202 0.97981 0.0
O1311 O 0.08805 0.66212 0.99402 0.0
C1312 C 0.07658 0.66432 0.92715 0.0
C1313 C 0.09673 0.67179 0.01099 0.0
O1314 O 0.10221 0.69239 0.00928 0.0
C1315 C 0.13192 0.70461 0.96289 0.0
C1316 C 0.08192 0.64486 0.91412 0.0
C1317 C 0.07885 0.64586 0.89137 0.0
C1318 C 0.08676 0.62919 0.87787 0.0
C1319 C 0.09715 0.61124 0.88728 0.0
C1320 C 0.09995 0.60975 0.90986 0.0
C1321 C 0.0924 0.62665 0.9234 0.0
O1322 O 0.08325 0.74338 0.9771 0.0
O1323 O 0.06084 0.71173 0.97301 0.0
O1324 O 0.13075 0.77942 0.95597 0.0
O1325 O 0.1252 0.7685 0.98831 0.0
C1326 C 0.13322 0.7841 0.97646 0.0
O1327 O 0.11074 0.70551 0.96214 0.0
O1328 O 0.14035 0.72378 0.96155 0.0
O1329 O 0.06302 0.66241 0.9437 0.0
O1330 O 0.09302 0.67729 0.93121 0.0
H1331 H 0.07116 0.66 0.8841 0.0
H1332 H 0.1032 0.59825 0.87689 0.0
H1333 H 0.09531 0.62599 0.94082 0.0
O1334 O 0.75239 0.10565 0.93537 0.0
Tb1335 Tb 0.76691 0.11373 0.96687 0.0
Eu1336 Eu 0.82052 0.08484 0.96572 0.0
C1337 C 0.74789 0.08536 0.9301 0.0
O1338 O 0.75565 0.06962 0.94224 0.0
C1339 C 0.77596 0.06644 0.98376 0.0
O1340 O 0.84126 0.07765 0.99528 0.0
C1341 C 0.8396 0.08019 0.9282 0.0
C1342 C 0.83152 0.08053 0.0142 0.0
O1343 O 0.81097 0.08632 0.01408 0.0
C1344 C 0.81188 0.13656 0.96959 0.0
C1345 C 0.85668 0.08913 0.91378 0.0
C1346 C 0.85549 0.08498 0.89117 0.0
C1347 C 0.8717 0.09279 0.87706 0.0
C1348 C 0.88928 0.10429 0.88573 0.0
C1349 C 0.89123 0.10794 0.90819 0.0
C1350 C 0.87459 0.10072 0.92222 0.0
O1351 O 0.77132 0.08658 0.9893 0.0
O1352 O 0.79263 0.06182 0.97118 0.0
O1353 O 0.73363 0.1217 0.97694 0.0
O1354 O 0.75944 0.14197 0.98735 0.0
C1355 C 0.73862 0.13878 0.98835 0.0
O1356 O 0.82135 0.11925 0.97779 0.0
O1357 O 0.7938 0.13527 0.95817 0.0
O1358 O 0.84603 0.07017 0.94608 0.0
O1359 O 0.82187 0.092 0.93091 0.0
H1360 H 0.84208 0.0756 0.88461 0.0
H1361 H 0.90192 0.11006 0.87481 0.0
H1362 H 0.87584 0.10358 0.93962 0.0
O1363 O 0.76083 0.39974 0.93217 0.0
Tb1364 Tb 0.74971 0.39623 0.96554 0.0
Eu1365 Eu 0.68001 0.42075 0.96417 0.0
C1366 C 0.76409 0.4194 0.92431 0.0
O1367 O 0.75665 0.43616 0.93534 0.0
C1368 C 0.72573 0.44502 0.98063 0.0
O1369 O 0.65576 0.41599 0.99102 0.0
C1370 C 0.66372 0.42559 0.92538 0.0
C1371 C 0.66081 0.42427 0.01009 0.0
O1372 O 0.6797 0.43397 0.01234 0.0
C1373 C 0.70783 0.37531 0.96526 0.0
C1374 C 0.64381 0.42245 0.91241 0.0
C1375 C 0.64502 0.42543 0.88965 0.0
C1376 C 0.62767 0.41909 0.87625 0.0
C1377 C 0.60887 0.41056 0.88579 0.0
C1378 C 0.60737 0.40747 0.90833 0.0
C1379 C 0.62486 0.41351 0.92177 0.0
O1380 O 0.73907 0.42824 0.97753 0.0
O1381 O 0.7048 0.44623 0.97494 0.0
O1382 O 0.78444 0.39434 0.97251 0.0
O1383 O 0.76225 0.37899 0.99411 0.0
C1384 C 0.78262 0.38287 0.99021 0.0
O1385 O 0.70614 0.39644 0.96342 0.0
O1386 O 0.72784 0.36893 0.96403 0.0
O1387 O 0.66411 0.44143 0.93987 0.0
O1388 O 0.67312 0.40761 0.93219 0.0
H1389 H 0.65985 0.43153 0.8823 0.0
H1390 H 0.59547 0.40553 0.87544 0.0
H1391 H 0.62421 0.41021 0.93913 0.0
H1392 H 0.02543 0.54056 0.26669 0.0
H1393 H 0.99213 0.54877 0.20531 0.0
H1394 H 0.96452 0.52264 0.2164 0.0
H1395 H 0.94831 0.49988 0.24468 0.0
H1396 H 0.98234 0.48946 0.30523 0.0
H1397 H 0.01154 0.51379 0.29324 0.0
C1398 C 0.01229 0.53627 0.2557 0.0
C1399 C 0.01058 0.54655 0.23539 0.0
C1400 C 0.99666 0.52098 0.26203 0.0
C1401 C 0.99373 0.5409 0.22104 0.0
C1402 C 0.97788 0.52609 0.22739 0.0
C1403 C 0.96225 0.50284 0.25512 0.0
C1404 C 0.96321 0.49337 0.27583 0.0
C1405 C 0.97895 0.51644 0.24802 0.0
C1406 C 0.98139 0.4968 0.28919 0.0
C1407 C 0.99798 0.51071 0.2824 0.0
H1408 H 0.98167 0.01732 0.22605 0.0
H1409 H 0.93566 0.01208 0.27901 0.0
H1410 H 0.96121 0.98978 0.29955 0.0
H1411 H 0.99493 0.96833 0.30079 0.0
H1412 H 0.03957 0.97106 0.24676 0.0
H1413 H 0.01669 0.99814 0.22859 0.0
C1414 C 0.97738 0.01158 0.24222 0.0
C1415 C 0.9567 0.01618 0.25085 0.0
C1416 C 0.99203 0.99839 0.25384 0.0
C1417 C 0.95137 0.00854 0.27182 0.0
C1418 C 0.966 0.99584 0.28365 0.0
C1419 C 0.99996 0.97555 0.28544 0.0
C1420 C 0.01903 0.96825 0.27529 0.0
C1421 C 0.98617 0.99025 0.27464 0.0
C1422 C 0.02512 0.97691 0.25501 0.0
C1423 C 0.01191 0.99216 0.24452 0.0
H1424 H 0.55501 0.0166 0.24297 0.0
H1425 H 0.53926 0.01195 0.31144 0.0
H1426 H 0.51027 0.98611 0.30316 0.0
H1427 H 0.49181 0.96202 0.27666 0.0
H1428 H 0.50623 0.96849 0.20821 0.0
H1429 H 0.53358 0.99626 0.21625 0.0
C1430 C 0.54512 0.01011 0.2561 0.0
C1431 C 0.54969 0.01579 0.27786 0.0
C1432 C 0.52843 0.99539 0.25122 0.0
C1433 C 0.53633 0.00766 0.29458 0.0
C1434 C 0.51978 0.99279 0.28987 0.0
C1435 C 0.50077 0.96983 0.26358 0.0
C1436 C 0.49731 0.96331 0.24195 0.0
C1437 C 0.5161 0.98609 0.26832 0.0
C1438 C 0.50876 0.97341 0.22498 0.0
C1439 C 0.52438 0.98922 0.22958 0.0
H1440 H 0.55788 0.53167 0.23509 0.0
H1441 H 0.5276 0.46965 0.24767 0.0
H1442 H 0.49588 0.48801 0.26323 0.0
H1443 H 0.47838 0.52156 0.27631 0.0
H1444 H 0.50734 0.58376 0.26214 0.0
H1445 H 0.53767 0.56564 0.24349 0.0
C1446 C 0.54422 0.52226 0.24109 0.0
C1447 C 0.54515 0.49937 0.24065 0.0
C1448 C 0.52576 0.53297 0.24948 0.0
C1449 C 0.52724 0.48729 0.24801 0.0
C1450 C 0.50913 0.49777 0.2569 0.0
C1451 C 0.49104 0.53112 0.26856 0.0
C1452 C 0.49061 0.5539 0.27034 0.0
C1453 C 0.50839 0.52057 0.25807 0.0
C1454 C 0.50712 0.56621 0.26047 0.0
C1455 C 0.52462 0.55582 0.25015 0.0
H1456 H 0.21385 0.98767 0.54405 0.0
H1457 H 0.25792 0.04199 0.54057 0.0
H1458 H 0.27946 0.02321 0.51279 0.0
H1459 H 0.2878 0.99003 0.49217 0.0
H1460 H 0.24619 0.93429 0.49821 0.0
H1461 H 0.22137 0.95476 0.52172 0.0
C1462 C 0.22781 0.99556 0.53667 0.0
C1463 C 0.2341 0.01634 0.54397 0.0
C1464 C 0.2406 0.98428 0.52122 0.0
C1465 C 0.25261 0.02616 0.53489 0.0
C1466 C 0.26501 0.01536 0.51914 0.0
C1467 C 0.27312 0.98244 0.49834 0.0
C1468 C 0.26853 0.96063 0.49296 0.0
C1469 C 0.25949 0.9942 0.51257 0.0
C1470 C 0.2496 0.95111 0.5014 0.0
C1471 C 0.23561 0.96282 0.51515 0.0
H1472 H 0.47756 0.25374 0.5318 0.0
H1473 H 0.51877 0.20661 0.56346 0.0
H1474 H 0.54876 0.21594 0.53924 0.0
H1475 H 0.56421 0.23966 0.51179 0.0
H1476 H 0.52435 0.28828 0.48035 0.0
H1477 H 0.49276 0.276 0.50142 0.0
C1478 C 0.49296 0.24517 0.53284 0.0
C1479 C 0.49601 0.22931 0.54907 0.0
C1480 C 0.51038 0.25107 0.51913 0.0
C1481 C 0.51608 0.21862 0.55083 0.0
C1482 C 0.53325 0.22407 0.53711 0.0
C1483 C 0.54862 0.24758 0.50935 0.0
C1484 C 0.54677 0.26511 0.49473 0.0
C1485 C 0.53075 0.24065 0.52163 0.0
C1486 C 0.52629 0.27484 0.49161 0.0
C1487 C 0.50823 0.26785 0.5037 0.0
H1488 H 0.20911 0.53265 0.50239 0.0
H1489 H 0.26821 0.56465 0.48225 0.0
H1490 H 0.2896 0.53957 0.5046 0.0
H1491 H 0.29129 0.5104 0.53243 0.0
H1492 H 0.23172 0.48092 0.55477 0.0
H1493 H 0.21085 0.50285 0.52894 0.0
C1494 C 0.2267 0.53394 0.50259 0.0
C1495 C 0.237 0.5505 0.49055 0.0
C1496 C 0.23885 0.5199 0.51604 0.0
C1497 C 0.25981 0.55208 0.49132 0.0
C1498 C 0.27208 0.53774 0.50415 0.0
C1499 C 0.27379 0.50854 0.53131 0.0
C1500 C 0.26305 0.49403 0.54542 0.0
C1501 C 0.26176 0.52184 0.51693 0.0
C1502 C 0.24033 0.49203 0.54409 0.0
C1503 C 0.22838 0.50459 0.52936 0.0
H1504 H 0.97953 0.24045 0.48263 0.0
H1505 H 0.92471 0.2423 0.52677 0.0
H1506 H 0.94712 0.25846 0.5548 0.0
H1507 H 0.98216 0.27109 0.56767 0.0
H1508 H 0.03728 0.27206 0.52426 0.0
H1509 H 0.01492 0.25611 0.49511 0.0
C1510 C 0.97252 0.24461 0.49832 0.0
C1511 C 0.95041 0.24008 0.50244 0.0
C1512 C 0.98553 0.2544 0.51458 0.0
C1513 C 0.94156 0.24568 0.52289 0.0
C1514 C 0.9544 0.25486 0.5391 0.0
C1515 C 0.98934 0.26786 0.55182 0.0
C1516 C 0.01138 0.27252 0.54817 0.0
C1517 C 0.97638 0.25911 0.53522 0.0
C1518 C 0.02031 0.26859 0.52744 0.0
C1519 C 0.00754 0.25941 0.51082 0.0
H1520 H 0.29312 0.52896 0.0087 0.0
H1521 H 0.23162 0.55451 0.03115 0.0
H1522 H 0.21225 0.52736 0.0098 0.0
H1523 H 0.21263 0.50005 0.9803 0.0
H1524 H 0.27407 0.47606 0.95654 0.0
H1525 H 0.29349 0.49832 0.98311 0.0
C1526 C 0.27552 0.52822 0.00941 0.0
C1527 C 0.26392 0.544 0.02126 0.0
C1528 C 0.26436 0.5128 0.9967 0.0
C1529 C 0.24104 0.5428 0.02189 0.0
C1530 C 0.22987 0.52725 0.00966 0.0
C1531 C 0.2302 0.49915 0.98159 0.0
C1532 C 0.24194 0.48642 0.9667 0.0
C1533 C 0.24132 0.51268 0.99637 0.0
C1534 C 0.26475 0.48571 0.96803 0.0
C1535 C 0.27586 0.49857 0.98307 0.0
H1536 H 0.94783 0.2395 0.01245 0.0
H1537 H 0.9812 0.3001 0.02422 0.0
H1538 H 0.0107 0.28888 1.0 0.0
H1539 H 0.02535 0.26307 0.97295 0.0
H1540 H 0.99367 0.20122 0.96376 0.0
H1541 H 0.96508 0.21163 0.98941 0.0
C1542 C 0.96167 0.25012 0.00979 0.0
C1543 C 0.96228 0.27065 0.01974 0.0
C1544 C 0.97877 0.24339 0.99627 0.0
C1545 C 0.98041 0.28421 0.01661 0.0
C1546 C 0.99723 0.27785 1.00273 0.0
C1547 C 0.01242 0.25177 0.97704 0.0
C1548 C 0.01141 0.23154 0.9666 0.0
C1549 C 0.99637 0.25766 0.99216 0.0
C1550 C 0.99471 0.21687 0.9718 0.0
C1551 C 0.97833 0.22285 0.98634 0.0
H1552 H 0.29421 0.01498 0.98265 0.0
H1553 H 0.2361 0.02289 0.94427 0.0
H1554 H 0.21553 1.0008 0.97029 0.0
H1555 H 0.21537 0.97507 1.00113 0.0
H1556 H 0.27459 0.9637 0.03678 0.0
H1557 H 0.29336 0.99132 0.0151 0.0
C1558 C 0.27694 0.01224 0.98035 0.0
C1559 C 0.2666 0.02052 0.96171 0.0
C1560 C 0.26546 0.99873 0.99488 0.0
C1561 C 0.24433 0.01657 0.95856 0.0
C1562 C 0.23259 1.00393 0.97339 0.0
C1563 C 0.23215 0.97927 1.00457 0.0
C1564 C 0.24353 0.96778 0.02071 0.0
C1565 C 0.24312 0.99436 0.99125 0.0
C1566 C 0.26548 0.97268 0.02462 0.0
C1567 C 0.27626 0.98831 0.0121 0.0
H1568 H 0.50688 0.2429 0.94616 0.0
H1569 H 0.48046 0.29479 0.98566 0.0
H1570 H 0.50428 0.28408 0.01583 0.0
H1571 H 0.53559 0.26229 0.02935 0.0
H1572 H 0.56275 0.21235 0.98814 0.0
H1573 H 0.53558 0.21989 0.9602 0.0
C1574 C 0.50612 0.25187 0.96138 0.0
C1575 C 0.49211 0.26985 0.96351 0.0
C1576 C 0.52009 0.24596 0.97832 0.0
C1577 C 0.49119 0.28097 0.98353 0.0
C1578 C 0.50486 0.27489 1.00076 0.0
C1579 C 0.53511 0.25284 0.01442 0.0
C1580 C 0.55088 0.23675 0.01065 0.0
C1581 C 0.51978 0.25775 0.99813 0.0
C1582 C 0.55059 0.22472 0.99125 0.0
C1583 C 0.53515 0.2291 0.97528 0.0
H1584 H 0.99405 0.48124 0.7907 0.0
H1585 H 0.99782 0.43721 0.73596 0.0
H1586 H 0.02115 0.46278 0.7165 0.0
H1587 H 0.0428 0.49598 0.71633 0.0
H1588 H 0.04183 0.53874 0.77215 0.0
H1589 H 0.01478 0.51545 0.78987 0.0
C1590 C 0.99974 0.47743 0.77439 0.0
C1591 C 0.99437 0.45739 0.76478 0.0
C1592 C 0.01364 0.49193 0.76355 0.0
C1593 C 1.00195 0.4525 0.74373 0.0
C1594 C 0.01524 0.4671 0.73259 0.0
C1595 C 0.03633 0.50046 0.73218 0.0
C1596 C 0.04413 0.51907 0.74291 0.0
C1597 C 0.02151 0.48664 0.74252 0.0
C1598 C 0.03599 0.52445 0.76362 0.0
C1599 C 0.02061 0.51114 0.77375 0.0
H1600 H 0.98131 0.02738 0.74674 0.0
H1601 H 0.02752 0.07635 0.72696 0.0
H1602 H 0.05753 0.05333 0.73847 0.0
H1603 H 0.07066 0.021 0.75669 0.0
H1604 H 0.02555 0.97202 0.77886 0.0
H1605 H 0.99517 0.99316 0.76384 0.0
C1606 C 0.99799 0.03268 0.74459 0.0
C1607 C 1.00225 0.05346 0.73597 0.0
C1608 C 0.01534 0.01952 0.75194 0.0
C1609 C 0.02388 0.0604 0.73354 0.0
C1610 C 0.04106 0.04729 0.7402 0.0
C1611 C 0.05423 0.01478 0.75819 0.0
C1612 C 0.0504 0.99506 0.76912 0.0
C1613 C 0.03697 0.0271 0.74988 0.0
C1614 C 0.02894 0.9873 0.77074 0.0
C1615 C 0.01157 0.99937 0.76211 0.0
H1616 H 0.45628 0.99154 0.76991 0.0
H1617 H 0.47914 0.99714 0.70371 0.0
H1618 H 0.50811 0.02185 0.71554 0.0
H1619 H 0.52431 0.04461 0.74433 0.0
H1620 H 0.50292 0.03739 0.81083 0.0
H1621 H 0.47608 0.01014 0.79949 0.0
C1622 C 0.4679 0.99795 0.75822 0.0
C1623 C 0.46571 0.99286 0.73604 0.0
C1624 C 0.48465 0.01171 0.76522 0.0
C1625 C 0.48074 1.00093 0.72089 0.0
C1626 C 0.49718 0.01507 0.72763 0.0
C1627 C 0.51415 0.03654 0.75633 0.0
C1628 C 0.51549 0.04267 0.77831 0.0
C1629 C 0.49897 0.02092 0.74968 0.0
C1630 C 0.50225 0.03249 0.79387 0.0
C1631 C 0.48681 0.01715 0.78735 0.0
H1632 H 0.47341 0.5029 0.7935 0.0
H1633 H 0.45788 0.53467 0.73262 0.0
H1634 H 0.48402 0.51173 0.71358 0.0
H1635 H 0.50942 0.48075 0.71359 0.0
H1636 H 0.52506 0.4493 0.77459 0.0
H1637 H 0.50088 0.47396 0.79398 0.0
C1638 C 0.47595 0.50506 0.77613 0.0
C1639 C 0.46354 0.52047 0.76458 0.0
C1640 C 0.49097 0.49171 0.76515 0.0
C1641 C 0.46709 0.52293 0.74202 0.0
C1642 C 0.48204 0.50975 0.73103 0.0
C1643 C 0.50777 0.47949 0.73115 0.0
C1644 C 0.51911 0.46318 0.74253 0.0
C1645 C 0.49377 0.49379 0.74234 0.0
C1646 C 0.51672 0.46179 0.76534 0.0
C1647 C 0.50277 0.47584 0.77651 0.0
H1648 H 0.79215 0.00675 0.47566 0.0
H1649 H 0.73023 0.98129 0.45513 0.0
H1650 H 0.71155 1.00349 0.48236 0.0
H1651 H 0.71238 0.0339 0.50853 0.0
H1652 H 0.77442 0.06022 0.52815 0.0
H1653 H 0.79324 0.03415 0.50505 0.0
C1654 C 0.77466 0.00565 0.47764 0.0
C1655 C 0.76258 0.99248 0.46345 0.0
C1656 C 0.7639 0.01901 0.49295 0.0
C1657 C 0.73985 0.99142 0.46589 0.0
C1658 C 0.72914 1.00419 0.48139 0.0
C1659 C 0.73001 0.0336 0.50815 0.0
C1660 C 0.74182 0.0493 0.51986 0.0
C1661 C 0.7409 0.01865 0.4945 0.0
C1662 C 0.76475 0.04863 0.51906 0.0
C1663 C 0.77564 0.03366 0.50583 0.0
H1664 H 0.45205 0.73003 0.48873 0.0
H1665 H 0.4814 0.76264 0.54329 0.0
H1666 H 0.50942 0.77814 0.51899 0.0
H1667 H 0.52376 0.78407 0.48109 0.0
H1668 H 0.49131 0.75145 0.42764 0.0
H1669 H 0.46643 0.73445 0.45259 0.0
C1670 C 0.46489 0.74012 0.49539 0.0
C1671 C 0.46502 0.74497 0.51763 0.0
C1672 C 0.48023 0.74927 0.48139 0.0
C1673 C 0.48141 0.75837 0.52616 0.0
C1674 C 0.49718 0.76742 0.51222 0.0
C1675 C 0.51122 0.77329 0.47498 0.0
C1676 C 0.50969 0.7691 0.4524 0.0
C1677 C 0.49647 0.76335 0.48962 0.0
C1678 C 0.49328 0.75496 0.44484 0.0
C1679 C 0.47888 0.74512 0.45911 0.0
H1680 H 0.74605 0.4749 0.52573 0.0
H1681 H 0.80841 0.46849 0.49452 0.0
H1682 H 0.79671 0.49302 0.46519 0.0
H1683 H 0.76714 0.51372 0.44682 0.0
H1684 H 0.7055 0.52098 0.47991 0.0
H1685 H 0.71854 0.49911 0.51006 0.0
C1686 C 0.75725 0.47948 0.51284 0.0
C1687 C 0.77805 0.47022 0.51228 0.0
C1688 C 0.75042 0.49357 0.49618 0.0
C1689 C 0.7924 0.47579 0.49536 0.0
C1690 C 0.78562 0.48963 0.47851 0.0
C1691 C 0.75669 0.51065 0.46073 0.0
C1692 C 0.7353 0.51884 0.46086 0.0
C1693 C 0.76442 0.49819 0.47844 0.0
C1694 C 0.72204 0.51496 0.4792 0.0
C1695 C 0.72944 0.50235 0.49655 0.0
H1696 H 0.06546 0.75316 0.49069 0.0
H1697 H 0.02215 0.77932 0.53955 0.0
H1698 H 0.99071 0.76755 0.51809 0.0
H1699 H 0.97561 0.75009 0.48469 0.0
H1700 H 0.02 0.72387 0.43699 0.0
H1701 H 0.05097 0.73558 0.45862 0.0
C1702 C 0.04917 0.7563 0.49675 0.0
C1703 C 0.04615 0.76714 0.51663 0.0
C1704 C 0.03135 0.74951 0.48446 0.0
C1705 C 0.02491 0.771 0.52423 0.0
C1706 C 0.00692 0.76431 0.51197 0.0
C1707 C 0.99211 0.74689 0.4793 0.0
C1708 C 0.99574 0.73595 0.45958 0.0
C1709 C 0.00995 0.75358 0.49198 0.0
C1710 C 0.01701 0.73196 0.45238 0.0
C1711 C 0.03469 0.73873 0.46466 0.0
H1712 H 0.78707 0.50905 0.03192 0.0
H1713 H 0.72628 0.52625 0.06256 0.0
H1714 H 0.70656 0.50325 0.03683 0.0
H1715 H 0.70692 0.47504 0.00802 0.0
H1716 H 0.76817 0.45703 0.97868 0.0
H1717 H 0.78711 0.48344 1.00123 0.0
C1718 C 0.76947 0.50815 0.03267 0.0
C1719 C 0.75824 0.51932 0.04923 0.0
C1720 C 0.75822 0.49446 0.01812 0.0
C1721 C 0.73541 0.5177 0.0501 0.0
C1722 C 0.72407 0.5045 0.03538 0.0
C1723 C 0.72432 0.47729 0.00621 0.0
C1724 C 0.73603 0.46393 0.99171 0.0
C1725 C 0.73534 0.49233 0.01966 0.0
C1726 C 0.75868 0.46692 0.9898 0.0
C1727 C 0.76961 0.48205 1.00274 0.0
H1728 H 0.00705 0.79504 0.03682 0.0
H1729 H 0.97045 0.73589 0.04643 0.0
H1730 H 0.99385 0.71686 0.02054 0.0
H1731 H 0.02702 0.71603 0.99777 0.0
H1732 H 0.06348 0.77554 0.98894 0.0
H1733 H 0.03793 0.79506 0.01176 0.0
C1734 C 1.00385 0.77812 0.03293 0.0
C1735 C 0.98702 0.76698 0.04369 0.0
C1736 C 0.01763 0.76709 0.01832 0.0
C1737 C 0.98334 0.74493 0.03851 0.0
C1738 C 0.99679 0.73396 0.02373 0.0
C1739 C 0.02922 0.73332 1.00055 0.0
C1740 C 0.04746 0.74403 0.99174 0.0
C1741 C 0.01438 0.7447 0.01394 0.0
C1742 C 0.04988 0.76655 0.99564 0.0
C1743 C 0.0352 0.7779 0.00872 0.0
H1744 H 0.7116 1.00438 0.03404 0.0
H1745 H 0.77259 0.97674 0.05514 0.0
H1746 H 0.79238 1.00079 0.03058 0.0
H1747 H 0.79275 0.03197 1.00548 0.0
H1748 H 0.73226 0.0618 0.98649 0.0
H1749 H 0.71191 0.03448 0.00729 0.0
C1750 C 0.72917 1.00327 0.0328 0.0
C1751 C 0.74057 0.98875 0.04635 0.0
C1752 C 0.74058 0.01767 0.01905 0.0
C1753 C 0.7634 0.9878 0.0449 0.0
C1754 C 0.77477 1.00159 0.03089 0.0
C1755 C 0.7751 0.03219 0.00566 0.0
C1756 C 0.76393 0.0487 0.99453 0.0
C1757 C 0.7636 0.01693 0.01827 0.0
C1758 C 0.74111 0.04918 0.99509 0.0
C1759 C 0.7295 0.0336 0.00696 0.0
H1760 H 0.50118 0.71383 0.03544 0.0
H1761 H 0.53017 0.77562 0.05113 0.0
H1762 H 0.5066 0.79389 0.0247 0.0
H1763 H 0.47434 0.79291 1.00075 0.0
H1764 H 0.44417 0.73087 0.98709 0.0
H1765 H 0.47115 0.71238 0.00915 0.0
C1766 C 0.50271 0.73117 0.03261 0.0
C1767 C 0.51747 0.74334 0.04505 0.0
C1768 C 0.48842 0.7417 0.01809 0.0
C1769 C 0.519 0.76591 0.04156 0.0
C1770 C 0.50539 0.77639 0.0266 0.0
C1771 C 0.47389 0.77532 1.00225 0.0
C1772 C 0.45694 0.76351 0.99238 0.0
C1773 C 0.48947 0.76457 0.01531 0.0
C1774 C 0.45673 0.74064 0.99467 0.0
C1775 C 0.47226 0.7299 0.00728 0.0
H1776 H 0.16422 0.61632 0.14696 0.0
H1777 H 0.15732 0.547 0.13978 0.0
H1778 H 0.19466 0.54433 0.12616 0.0
H1779 H 0.22421 0.56315 0.10682 0.0
H1780 H 0.2284 0.63322 0.10993 0.0
H1781 H 0.19746 0.6343 0.13476 0.0
C1782 C 0.17141 0.60054 0.14347 0.0
C1783 C 0.15824 0.58191 0.1441 0.0
C1784 C 0.19215 0.59944 0.13416 0.0
C1785 C 0.16734 0.5615 0.13946 0.0
C1786 C 0.18853 0.56007 0.13128 0.0
C1787 C 0.21883 0.57858 0.11353 0.0
C1788 C 0.22816 0.59813 0.10611 0.0
C1789 C 0.20039 0.57914 0.12705 0.0
C1790 C 0.22116 0.61799 0.11507 0.0
C1791 C 0.20344 0.61862 0.12924 0.0
H1792 H 0.89136 0.22481 0.10769 0.0
H1793 H 0.96095 0.22716 0.09898 0.0
H1794 H 0.96489 0.19309 0.11905 0.0
H1795 H 0.94787 0.15917 0.13247 0.0
H1796 H 0.8783 0.15626 0.13952 0.0
H1797 H 0.87502 0.19395 0.12712 0.0
C1798 C 0.90745 0.21822 0.1107 0.0
C1799 C 0.92578 0.22833 0.1014 0.0
C1800 C 0.90957 0.19827 0.1218 0.0
C1801 C 0.9465 0.21956 0.10563 0.0
C1802 C 0.94878 0.19999 0.11706 0.0
C1803 C 0.93214 0.16718 0.13215 0.0
C1804 C 0.91335 0.15514 0.137 0.0
C1805 C 0.93035 0.18866 0.12428 0.0
C1806 C 0.89296 0.16541 0.13609 0.0
C1807 C 0.89108 0.18686 0.12876 0.0
H1808 H 0.2847 0.94735 0.10432 0.0
H1809 H 0.27902 0.87763 0.09752 0.0
H1810 H 0.31217 0.8726 0.11865 0.0
H1811 H 0.34594 0.88814 0.13318 0.0
H1812 H 0.35262 0.95766 0.1392 0.0
H1813 H 0.31565 0.96266 0.125 0.0
C1814 C 0.29039 0.93104 0.10798 0.0
C1815 C 0.27951 0.91292 0.099 0.0
C1816 C 0.30975 0.92824 0.11995 0.0
C1817 C 0.28701 0.89189 0.10411 0.0
C1818 C 0.30611 0.88898 0.1161 0.0
C1819 C 0.33898 0.90434 0.13202 0.0
C1820 C 0.35197 0.92253 0.13702 0.0
C1821 C 0.31807 0.90705 0.12325 0.0
C1822 C 0.34288 0.94344 0.13553 0.0
C1823 C 0.32185 0.94628 0.12715 0.0
H1824 H 0.56372 0.28735 0.09992 0.0
H1825 H 0.63342 0.27935 0.09763 0.0
H1826 H 0.63799 0.31056 0.12166 0.0
H1827 H 0.62257 0.34384 0.13758 0.0
H1828 H 0.55318 0.35279 0.13937 0.0
H1829 H 0.54798 0.31715 0.12211 0.0
C1830 C 0.57986 0.29208 0.10519 0.0
C1831 C 0.59819 0.28118 0.0967 0.0
C1832 C 0.58242 0.31026 0.11896 0.0
C1833 C 0.61901 0.28739 0.10384 0.0
C1834 C 0.62167 0.30538 0.11752 0.0
C1835 C 0.60631 0.33751 0.13501 0.0
C1836 C 0.58827 0.3508 0.13972 0.0
C1837 C 0.60355 0.31744 0.12441 0.0
C1838 C 0.56726 0.34269 0.1361 0.0
C1839 C 0.56434 0.32247 0.12591 0.0
H1840 H 0.1558 0.94722 0.38754 0.0
H1841 H 0.16264 0.88488 0.35633 0.0
H1842 H 0.20073 0.88287 0.36786 0.0
H1843 H 0.2287 0.89502 0.39429 0.0
H1844 H 0.22085 0.95711 0.42622 0.0
H1845 H 0.18653 0.96295 0.40739 0.0
C1846 C 0.16604 0.93379 0.38229 0.0
C1847 C 0.15664 0.91628 0.37106 0.0
C1848 C 0.18746 0.93229 0.38998 0.0
C1849 C 0.16975 0.89865 0.36475 0.0
C1850 C 0.19136 0.89732 0.37174 0.0
C1851 C 0.21972 0.91006 0.39657 0.0
C1852 C 0.22714 0.9255 0.41174 0.0
C1853 C 0.19991 0.91339 0.38557 0.0
C1854 C 0.21551 0.94501 0.41454 0.0
C1855 C 0.19581 0.94835 0.40384 0.0
H1856 H 0.55836 0.22863 0.41152 0.0
H1857 H 0.62816 0.23568 0.4101 0.0
H1858 H 0.63126 0.20344 0.38716 0.0
H1859 H 0.61481 0.16908 0.37505 0.0
H1860 H 0.54544 0.16065 0.37852 0.0
H1861 H 0.5413 0.19787 0.39235 0.0
C1862 C 0.57418 0.22352 0.40555 0.0
C1863 C 0.593 0.23429 0.41287 0.0
C1864 C 0.57589 0.20459 0.3928 0.0
C1865 C 0.61339 0.22767 0.40483 0.0
C1866 C 0.6152 0.20908 0.39183 0.0
C1867 C 0.59874 0.17587 0.37786 0.0
C1868 C 0.58041 0.16238 0.37577 0.0
C1869 C 0.59667 0.1968 0.38675 0.0
C1870 C 0.55967 0.17095 0.3798 0.0
C1871 C 0.55738 0.19208 0.38802 0.0
H1872 H 0.34642 0.61451 0.37317 0.0
H1873 H 0.35779 0.54683 0.38744 0.0
H1874 H 0.31973 0.54242 0.3983 0.0
H1875 H 0.28669 0.56021 0.41213 0.0
H1876 H 0.27643 0.62868 0.39983 0.0
H1877 H 0.31025 0.6303 0.37924 0.0
C1878 C 0.34021 0.59861 0.37772 0.0
C1879 C 0.35469 0.58105 0.37974 0.0
C1880 C 0.31864 0.59649 0.38476 0.0
C1881 C 0.34677 0.5605 0.38572 0.0
C1882 C 0.32511 0.55808 0.3922 0.0
C1883 C 0.29148 0.57533 0.40437 0.0
C1884 C 0.27945 0.59446 0.40816 0.0
C1885 C 0.31134 0.57632 0.39311 0.0
C1886 C 0.28566 0.61381 0.39762 0.0
C1887 C 0.30507 0.61479 0.38589 0.0
H1888 H 0.89428 0.33968 0.37144 0.0
H1889 H 0.96036 0.35661 0.38694 0.0
H1890 H 0.96655 0.32018 0.40195 0.0
H1891 H 0.95012 0.28764 0.41859 0.0
H1892 H 0.88328 0.27173 0.40415 0.0
H1893 H 0.88055 0.30329 0.38038 0.0
C1894 C 0.91027 0.33496 0.37726 0.0
C1895 C 0.9268 0.35061 0.37841 0.0
C1896 C 0.91339 0.31436 0.38652 0.0
C1897 C 0.94748 0.34464 0.38594 0.0
C1898 C 0.9509 0.32394 0.39476 0.0
C1899 C 0.93518 0.29069 0.40972 0.0
C1900 C 0.91671 0.27783 0.41381 0.0
C1901 C 0.93353 0.30922 0.39641 0.0
C1902 C 0.89761 0.28169 0.40178 0.0
C1903 C 0.89598 0.2998 0.38819 0.0
H1904 H 0.09808 0.22401 0.55743 0.0
H1905 H 0.09934 0.23411 0.62707 0.0
H1906 H 0.11831 0.19963 0.63199 0.0
H1907 H 0.12768 0.16356 0.61713 0.0
H1908 H 0.12611 0.15297 0.54776 0.0
H1909 H 0.1147 0.1908 0.54199 0.0
C1910 C 0.10309 0.21897 0.57361 0.0
C1911 C 0.09686 0.23145 0.59186 0.0
C1912 C 0.11378 0.19888 0.57638 0.0
C1913 C 0.10374 0.22482 0.61271 0.0
C1914 C 0.11448 0.20497 0.61558 0.0
C1915 C 0.12562 0.16986 0.60073 0.0
C1916 C 0.12759 0.15564 0.58287 0.0
C1917 C 0.11859 0.19141 0.59764 0.0
C1918 C 0.12478 0.16375 0.56168 0.0
C1919 C 0.11802 0.18529 0.55844 0.0
H1920 H 0.28347 0.0995 0.56045 0.0
H1921 H 0.2733 0.10573 0.62986 0.0
H1922 H 0.30701 0.12624 0.63318 0.0
H1923 H 0.34297 0.13444 0.61779 0.0
H1924 H 0.35414 0.12664 0.54891 0.0
H1925 H 0.31634 0.11515 0.54381 0.0
C1926 C 0.28827 0.10589 0.57621 0.0
C1927 C 0.27623 0.10045 0.59499 0.0
C1928 C 0.30806 0.11715 0.57812 0.0
C1929 C 0.28248 0.10925 0.6152 0.0
C1930 C 0.30185 0.12092 0.61715 0.0
C1931 C 0.3368 0.13103 0.60157 0.0
C1932 C 0.35118 0.13111 0.58376 0.0
C1933 C 0.31535 0.12377 0.59895 0.0
C1934 C 0.34323 0.1267 0.56279 0.0
C1935 C 0.32172 0.1199 0.55995 0.0
H1936 H 0.36805 0.34052 0.62036 0.0
H1937 H 0.37415 0.35764 0.55256 0.0
H1938 H 0.3903 0.32197 0.54473 0.0
H1939 H 0.40893 0.28912 0.55871 0.0
H1940 H 0.40297 0.27244 0.62682 0.0
H1941 H 0.3803 0.30446 0.63294 0.0
C1942 C 0.37214 0.33604 0.60373 0.0
C1943 C 0.36993 0.3516 0.58703 0.0
C1944 C 0.38189 0.31574 0.59952 0.0
C1945 C 0.37548 0.34581 0.5656 0.0
C1946 C 0.38499 0.32553 0.56121 0.0
C1947 C 0.40218 0.29216 0.57476 0.0
C1948 C 0.408 0.27853 0.59233 0.0
C1949 C 0.38925 0.31081 0.57824 0.0
C1950 C 0.39889 0.28262 0.61299 0.0
C1951 C 0.38601 0.30106 0.61656 0.0
H1952 H 0.22692 0.40072 0.56082 0.0
H1953 H 0.23405 0.40512 0.6307 0.0
H1954 H 0.19998 0.38559 0.63574 0.0
H1955 H 0.16471 0.37472 0.62024 0.0
H1956 H 0.15704 0.37086 0.55057 0.0
H1957 H 0.19492 0.38206 0.54545 0.0
C1958 C 0.22135 0.39683 0.57714 0.0
C1959 C 0.23278 0.40489 0.59531 0.0
C1960 C 0.20149 0.38582 0.57996 0.0
C1961 C 0.22552 0.39937 0.61637 0.0
C1962 C 0.2059 0.3883 0.61931 0.0
C1963 C 0.17169 0.37546 0.60399 0.0
C1964 C 0.15822 0.37215 0.58578 0.0
C1965 C 0.19323 0.38251 0.60122 0.0
C1966 C 0.16723 0.37323 0.56479 0.0
C1967 C 0.18878 0.37992 0.56188 0.0
H1968 H 0.09543 0.28545 0.9558 0.0
H1969 H 0.1031 0.26961 0.88766 0.0
H1970 H 0.12536 0.30204 0.88239 0.0
H1971 H 0.13572 0.33859 0.89547 0.0
H1972 H 0.12753 0.35478 0.96328 0.0
H1973 H 0.11283 0.31845 0.9705 0.0
C1974 C 0.10251 0.28874 0.93993 0.0
C1975 C 0.09718 0.27532 0.92207 0.0
C1976 C 0.11504 0.30767 0.93692 0.0
C1977 C 0.10674 0.27968 0.90169 0.0
C1978 C 0.11938 0.29837 0.8986 0.0
C1979 C 0.13162 0.33374 0.91198 0.0
C1980 C 0.13272 0.34921 0.92886 0.0
C1981 C 0.12267 0.31302 0.91584 0.0
C1982 C 0.12709 0.34299 0.95014 0.0
C1983 C 0.11839 0.32233 0.95418 0.0
H1984 H 0.16754 0.13339 0.89036 0.0
H1985 H 0.15616 0.13269 0.95967 0.0
H1986 H 0.19365 0.12079 0.96598 0.0
H1987 H 0.22666 0.10345 0.95109 0.0
H1988 H 0.23752 0.10379 0.88153 0.0
H1989 H 0.20345 0.12322 0.87602 0.0
C1990 C 0.17355 0.13125 0.90686 0.0
C1991 C 0.15918 0.13353 0.92453 0.0
C1992 C 0.19489 0.12398 0.91027 0.0
C1993 C 0.16701 0.13097 0.94586 0.0
C1994 C 0.18836 0.12396 0.94943 0.0
C1995 C 0.22188 0.10837 0.9348 0.0
C1996 C 0.2344 0.10176 0.91676 0.0
C1997 C 0.20204 0.11932 0.93168 0.0
C1998 C 0.22816 0.10851 0.89574 0.0
C1999 C 0.20855 0.11951 0.89252 0.0
H2000 H 0.40296 0.23195 0.89075 0.0
H2001 H 0.41194 0.23311 0.9605 0.0
H2002 H 0.39117 0.19954 0.96412 0.0
H2003 H 0.37761 0.16599 0.94662 0.0
H2004 H 0.36986 0.16428 0.8769 0.0
H2005 H 0.38245 0.20189 0.8741 0.0
C2006 C 0.39971 0.22531 0.90681 0.0
C2007 C 0.40941 0.23482 0.92526 0.0
C2008 C 0.38816 0.20561 0.90875 0.0
C2009 C 0.40497 0.22595 0.94596 0.0
C2010 C 0.39315 0.20664 0.94806 0.0
C2011 C 0.37772 0.17427 0.931 0.0
C2012 C 0.37277 0.16253 0.912 0.0
C2013 C 0.38568 0.19571 0.92947 0.0
C2014 C 0.3734 0.17318 0.89173 0.0
C2015 C 0.38087 0.19459 0.89012 0.0
H2016 H 0.28073 0.40759 0.95074 0.0
H2017 H 0.26845 0.40212 0.88165 0.0
H2018 H 0.30175 0.38093 0.87719 0.0
H2019 H 0.33778 0.37094 0.89166 0.0
H2020 H 0.35082 0.37793 0.96028 0.0
H2021 H 0.31375 0.39129 0.96629 0.0
C2022 C 0.285 0.40128 0.93478 0.0
C2023 C 0.27234 0.40695 0.91648 0.0
C2024 C 0.30452 0.38962 0.93223 0.0
C2025 C 0.27798 0.3983 0.896 0.0
C2026 C 0.29714 0.38628 0.89339 0.0
C2027 C 0.33214 0.37461 0.90803 0.0
C2028 C 0.34687 0.37353 0.92553 0.0
C2029 C 0.31106 0.38286 0.91119 0.0
C2030 C 0.33962 0.37845 0.94665 0.0
C2031 C 0.31853 0.38634 0.95001 0.0
H2032 H 0.61098 0.14609 0.16913 0.0
H2033 H 0.54484 0.1289 0.15419 0.0
H2034 H 0.54075 0.11219 0.19023 0.0
H2035 H 0.55916 0.09463 0.22119 0.0
H2036 H 0.62661 0.10913 0.23401 0.0
H2037 H 0.62699 0.13509 0.20396 0.0
C2038 C 0.5954 0.13957 0.17428 0.0
C2039 C 0.57827 0.13848 0.15923 0.0
C2040 C 0.59365 0.12899 0.19442 0.0
C2041 C 0.55815 0.12994 0.16571 0.0
C2042 C 0.55597 0.1201 0.18616 0.0
C2043 C 0.57374 0.10398 0.21785 0.0
C2044 C 0.59302 0.09952 0.22937 0.0
C2045 C 0.57407 0.11827 0.19998 0.0
C2046 C 0.6117 0.11193 0.22503 0.0
C2047 C 0.61195 0.12675 0.20782 0.0
H2048 H 0.55627 0.38324 0.35119 0.0
H2049 H 0.62396 0.36575 0.34818 0.0
H2050 H 0.62718 0.38276 0.31227 0.0
H2051 H 0.61255 0.40926 0.2858 0.0
H2052 H 0.54485 0.42749 0.28947 0.0
H2053 H 0.53972 0.40331 0.32054 0.0
C2054 C 0.57138 0.38217 0.34211 0.0
C2055 C 0.5898 0.37309 0.35218 0.0
C2056 C 0.57328 0.39275 0.32179 0.0
C2057 C 0.60949 0.37232 0.34054 0.0
C2058 C 0.61141 0.3824 0.32017 0.0
C2059 C 0.59654 0.40754 0.29304 0.0
C2060 C 0.57927 0.42072 0.28564 0.0
C2061 C 0.59372 0.39374 0.31121 0.0
C2062 C 0.55859 0.41797 0.29508 0.0
C2063 C 0.5556 0.40411 0.31292 0.0
H2064 H 0.10312 0.61858 0.27919 0.0
H2065 H 0.09969 0.54884 0.2713 0.0
H2066 H 0.11771 0.5437 0.30631 0.0
H2067 H 0.12776 0.55899 0.34224 0.0
H2068 H 0.13052 0.62855 0.35023 0.0
H2069 H 0.11981 0.6338 0.31222 0.0
C2070 C 0.10686 0.60225 0.28478 0.0
C2071 C 0.09957 0.58414 0.27275 0.0
C2072 C 0.11694 0.59936 0.3052 0.0
C2073 C 0.10478 0.56312 0.28029 0.0
C2074 C 0.11503 0.56013 0.30043 0.0
C2075 C 0.12695 0.57522 0.33529 0.0
C2076 C 0.13005 0.59337 0.34885 0.0
C2077 C 0.12025 0.5781 0.3135 0.0
C2078 C 0.12848 0.61438 0.33991 0.0
C2079 C 0.1221 0.61737 0.31826 0.0
H2080 H 0.95368 0.12218 0.35098 0.0
H2081 H 0.88572 0.13899 0.35256 0.0
H2082 H 0.88205 0.12939 0.31406 0.0
H2083 H 0.89654 0.10961 0.2826 0.0
H2084 H 0.96427 0.09111 0.2814 0.0
H2085 H 0.96984 0.10851 0.31669 0.0
C2086 C 0.93836 0.12455 0.34255 0.0
C2087 C 0.92001 0.13127 0.35436 0.0
C2088 C 0.93624 0.11832 0.32058 0.0
C2089 C 0.90006 0.13398 0.34357 0.0
C2090 C 0.89792 0.12829 0.32166 0.0
C2091 C 0.91266 0.10986 0.28975 0.0
C2092 C 0.92981 0.09857 0.27959 0.0
C2093 C 0.91565 0.11941 0.31033 0.0
C2094 C 0.95066 0.09936 0.289 0.0
C2095 C 0.95386 0.10923 0.30928 0.0
H2096 H 0.42288 0.94234 0.28585 0.0
H2097 H 0.38277 0.88619 0.27289 0.0
H2098 H 0.36261 0.89261 0.30655 0.0
H2099 H 0.3622 0.90913 0.3432 0.0
H2100 H 0.40388 0.96365 0.35694 0.0
H2101 H 0.41734 0.96325 0.3194 0.0
C2102 C 0.40934 0.93184 0.29005 0.0
C2103 C 0.40475 0.91346 0.27715 0.0
C2104 C 0.3982 0.93527 0.30975 0.0
C2105 C 0.38692 0.90025 0.28269 0.0
C2106 C 0.37541 0.90385 0.30202 0.0
C2107 C 0.37338 0.92158 0.33754 0.0
C2108 C 0.38192 0.93657 0.35254 0.0
C2109 C 0.3817 0.9206 0.31622 0.0
C2110 C 0.39685 0.95227 0.34542 0.0
C2111 C 0.40478 0.9518 0.32408 0.0
H2112 H 0.90233 0.40075 0.23454 0.0
H2113 H 0.96599 0.42739 0.22165 0.0
H2114 H 0.9675 0.40795 0.18705 0.0
H2115 H 0.94763 0.38952 0.15747 0.0
H2116 H 0.88343 0.36445 0.16957 0.0
H2117 H 0.88528 0.37676 0.20752 0.0
C2118 C 0.91681 0.4018 0.22449 0.0
C2119 C 0.93377 0.41595 0.23044 0.0
C2120 C 0.91733 0.39105 0.20428 0.0
C2121 C 0.95252 0.41691 0.21731 0.0
C2122 C 0.95337 0.40588 0.19742 0.0
C2123 C 0.93444 0.38613 0.16873 0.0
C2124 C 0.91545 0.37616 0.16104 0.0
C2125 C 0.93541 0.39384 0.19026 0.0
C2126 C 0.89822 0.37203 0.17542 0.0
C2127 C 0.89923 0.37921 0.197 0.0
H2128 H 0.13826 0.89508 0.16966 0.0
H2129 H 0.12361 0.96152 0.15273 0.0
H2130 H 0.10885 0.96782 0.1893 0.0
H2131 H 0.0945 0.95253 0.2234 0.0
H2132 H 0.10758 0.8854 0.23969 0.0
H2133 H 0.1292 0.88146 0.20645 0.0
C2134 C 0.13264 0.91116 0.17436 0.0
C2135 C 0.13217 0.92789 0.15866 0.0
C2136 C 0.12361 0.91442 0.19521 0.0
C2137 C 0.1245 0.94856 0.16469 0.0
C2138 C 0.11579 0.95204 0.1855 0.0
C2139 C 0.10249 0.93715 0.22001 0.0
C2140 C 0.099 0.91915 0.23391 0.0
C2141 C 0.11441 0.93482 0.20054 0.0
C2142 C 0.10972 0.89946 0.22924 0.0
C2143 C 0.12201 0.89715 0.21014 0.0
H2144 H 0.37424 0.62354 0.15962 0.0
H2145 H 0.37208 0.55373 0.15367 0.0
H2146 H 0.38216 0.54989 0.19215 0.0
H2147 H 0.39967 0.56647 0.22415 0.0
H2148 H 0.40431 0.63647 0.22865 0.0
H2149 H 0.38475 0.64023 0.19432 0.0
C2150 C 0.37526 0.60753 0.16705 0.0
C2151 C 0.37282 0.58893 0.15398 0.0
C2152 C 0.38192 0.60553 0.18878 0.0
C2153 C 0.37397 0.56823 0.16355 0.0
C2154 C 0.37996 0.56607 0.18545 0.0
C2155 C 0.39584 0.58256 0.21796 0.0
C2156 C 0.40402 0.60115 0.2286 0.0
C2157 C 0.38524 0.5846 0.19779 0.0
C2158 C 0.39861 0.62188 0.22055 0.0
C2159 C 0.38749 0.62406 0.20086 0.0
H2160 H 0.85177 0.44419 0.88016 0.0
H2161 H 0.85202 0.37527 0.86741 0.0
H2162 H 0.81386 0.37274 0.87841 0.0
H2163 H 0.78343 0.38881 0.89867 0.0
H2164 H 0.78368 0.45763 0.91289 0.0
H2165 H 0.81828 0.46166 0.89395 0.0
C2166 C 0.84311 0.42885 0.87898 0.0
C2167 C 0.85447 0.40993 0.87303 0.0
C2168 C 0.82141 0.42743 0.88605 0.0
C2169 C 0.84339 0.39001 0.87185 0.0
C2170 C 0.82168 0.38855 0.87834 0.0
C2171 C 0.79075 0.40479 0.89711 0.0
C2172 C 0.78124 0.42275 0.90767 0.0
C2173 C 0.81092 0.40694 0.88657 0.0
C2174 C 0.79076 0.44343 0.90517 0.0
C2175 C 0.81067 0.44576 0.89443 0.0
H2176 H 0.06187 0.84719 0.87798 0.0
H2177 H 0.13078 0.84617 0.86558 0.0
H2178 H 0.13247 0.8077 0.87556 0.0
H2179 H 0.11585 0.77745 0.8952 0.0
H2180 H 0.04726 0.77907 0.91012 0.0
H2181 H 0.0437 0.81372 0.891 0.0
C2182 C 0.07699 0.83818 0.87657 0.0
C2183 C 0.09618 0.84923 0.87106 0.0
C2184 C 0.07794 0.81626 0.88312 0.0
C2185 C 0.11584 0.83773 0.86963 0.0
C2186 C 0.11682 0.81584 0.87554 0.0
C2187 C 0.09997 0.78502 0.89374 0.0
C2188 C 0.082 0.77601 0.90469 0.0
C2189 C 0.0982 0.80532 0.88344 0.0
C2190 C 0.06148 0.78586 0.90223 0.0
C2191 C 0.05944 0.80579 0.89141 0.0
H2192 H 0.65876 0.05954 0.8889 0.0
H2193 H 0.66578 0.12289 0.85979 0.0
H2194 H 0.70355 0.12475 0.87221 0.0
H2195 H 0.7315 0.11159 0.89796 0.0
H2196 H 0.72379 0.04837 0.9277 0.0
H2197 H 0.68958 0.0432 0.90852 0.0
C2198 C 0.66896 0.07322 0.88436 0.0
C2199 C 0.65968 0.09098 0.87334 0.0
C2200 C 0.69034 0.07453 0.89236 0.0
C2201 C 0.67278 0.10892 0.868 0.0
C2202 C 0.69424 0.11013 0.87544 0.0
C2203 C 0.7226 0.09647 0.89979 0.0
C2204 C 0.73005 0.08059 0.91455 0.0
C2205 C 0.70276 0.09357 0.88869 0.0
C2206 C 0.71844 0.06096 0.91655 0.0
C2207 C 0.69876 0.05798 0.90562 0.0
H2208 H 0.45439 0.66286 0.87929 0.0
H2209 H 0.38827 0.65925 0.85673 0.0
H2210 H 0.38148 0.69637 0.86938 0.0
H2211 H 0.39216 0.72596 0.8942 0.0
H2212 H 0.45834 0.72926 0.9173 0.0
H2213 H 0.46744 0.69652 0.89681 0.0
C2214 C 0.43891 0.67072 0.87609 0.0
C2215 C 0.42188 0.65855 0.86699 0.0
C2216 C 0.43495 0.6918 0.88411 0.0
C2217 C 0.40167 0.66856 0.86338 0.0
C2218 C 0.39769 0.68963 0.87097 0.0
C2219 C 0.40872 0.71987 0.89423 0.0
C2220 C 0.42438 0.72975 0.90768 0.0
C2221 C 0.41384 0.70086 0.88252 0.0
C2222 C 0.44587 0.72188 0.90728 0.0
C2223 C 0.4511 0.70304 0.89563 0.0
H2224 H 0.8469 0.05833 0.627 0.0
H2225 H 0.84353 0.12001 0.66005 0.0
H2226 H 0.80605 0.12509 0.64753 0.0
H2227 H 0.7781 0.11573 0.6201 0.0
H2228 H 0.78237 0.05431 0.58629 0.0
H2229 H 0.81567 0.04539 0.60587 0.0
C2230 C 0.83747 0.07228 0.6324 0.0
C2231 C 0.8477 0.08872 0.6445 0.0
C2232 C 0.81642 0.0755 0.62424 0.0
C2233 C 0.83572 0.10705 0.651 0.0
C2234 C 0.81448 0.11012 0.64347 0.0
C2235 C 0.786 0.10013 0.61761 0.0
C2236 C 0.77795 0.08577 0.60174 0.0
C2237 C 0.80521 0.09508 0.62897 0.0
C2238 C 0.78821 0.06556 0.59857 0.0
C2239 C 0.80733 0.06049 0.60966 0.0
H2240 H 0.3937 0.83861 0.64416 0.0
H2241 H 0.46352 0.84281 0.64202 0.0
H2242 H 0.46561 0.80534 0.6285 0.0
H2243 H 0.44717 0.77651 0.60776 0.0
H2244 H 0.377 0.7751 0.6055 0.0
H2245 H 0.37535 0.80616 0.63017 0.0
C2246 C 0.40939 0.83087 0.64168 0.0
C2247 C 0.42843 0.84342 0.6437 0.0
C2248 C 0.41029 0.8101 0.63225 0.0
C2249 C 0.44869 0.83343 0.64054 0.0
C2250 C 0.44981 0.81215 0.6324 0.0
C2251 C 0.4315 0.78256 0.61317 0.0
C2252 C 0.41225 0.77386 0.60425 0.0
C2253 C 0.43067 0.80106 0.62665 0.0
C2254 C 0.39209 0.78167 0.61178 0.0
C2255 C 0.39112 0.79953 0.62585 0.0
H2256 H 0.66612 0.39613 0.63516 0.0
H2257 H 0.64551 0.46172 0.62142 0.0
H2258 H 0.68176 0.47051 0.60747 0.0
H2259 H 0.71693 0.45758 0.59354 0.0
H2260 H 0.73741 0.39163 0.60666 0.0
H2261 H 0.70402 0.38517 0.62722 0.0
C2262 C 0.66991 0.41254 0.62986 0.0
C2263 C 0.65332 0.42832 0.62935 0.0
C2264 C 0.6907 0.41733 0.62155 0.0
C2265 C 0.65817 0.44946 0.62222 0.0
C2266 C 0.67882 0.45439 0.61403 0.0
C2267 C 0.71439 0.44195 0.60135 0.0
C2268 C 0.7295 0.42497 0.59809 0.0
C2269 C 0.6949 0.43819 0.61277 0.0
C2270 C 0.72601 0.40494 0.60863 0.0
C2271 C 0.7068 0.40116 0.62029 0.0
H2272 H 0.11502 0.66703 0.64131 0.0
H2273 H 0.04653 0.65419 0.63496 0.0
H2274 H 0.04117 0.68982 0.61781 0.0
H2275 H 0.05756 0.72026 0.59731 0.0
H2276 H 0.12656 0.73199 0.6026 0.0
H2277 H 0.13013 0.70135 0.62755 0.0
C2278 C 0.09879 0.67254 0.63705 0.0
C2279 C 0.0812 0.65811 0.63924 0.0
C2280 C 0.09607 0.69255 0.62638 0.0
C2281 C 0.06025 0.66516 0.63356 0.0
C2282 C 0.05728 0.68536 0.62341 0.0
C2283 C 0.07327 0.71646 0.60439 0.0
C2284 C 0.09183 0.72811 0.59768 0.0
C2285 C 0.07529 0.69856 0.61856 0.0
C2286 C 0.11202 0.72321 0.60728 0.0
C2287 C 0.11412 0.70559 0.62151 0.0
H2288 H 0.90712 0.85374 0.43706 0.0
H2289 H 0.8451 0.84293 0.40644 0.0
H2290 H 0.85315 0.80379 0.40365 0.0
H2291 H 0.88015 0.77332 0.40613 0.0
H2292 H 0.94228 0.78563 0.43619 0.0
H2293 H 0.93221 0.82353 0.44249 0.0
C2294 C 0.89518 0.84272 0.43016 0.0
C2295 C 0.87562 0.85117 0.42185 0.0
C2296 C 0.90024 0.82057 0.42803 0.0
C2297 C 0.86022 0.83676 0.41307 0.0
C2298 C 0.86497 0.81445 0.41121 0.0
C2299 C 0.89126 0.78433 0.41428 0.0
C2300 C 0.9119 0.77682 0.42076 0.0
C2301 C 0.88527 0.80626 0.41798 0.0
C2302 C 0.92627 0.79112 0.43124 0.0
C2303 C 0.92053 0.81277 0.43484 0.0
H2304 H 0.72979 0.90064 0.3925 0.0
H2305 H 0.73037 0.9205 0.46006 0.0
H2306 H 0.69665 0.90102 0.46652 0.0
H2307 H 0.66367 0.88402 0.4515 0.0
H2308 H 0.66273 0.86382 0.38435 0.0
H2309 H 0.69999 0.87694 0.37942 0.0
C2310 C 0.72285 0.90022 0.40876 0.0
C2311 C 0.73252 0.91244 0.4256 0.0
C2312 C 0.70326 0.88884 0.4125 0.0
C2313 C 0.72333 0.91147 0.44664 0.0
C2314 C 0.7039 0.90034 0.45042 0.0
C2315 C 0.67207 0.88153 0.43613 0.0
C2316 C 0.66065 0.87275 0.41839 0.0
C2317 C 0.69327 0.8897 0.43329 0.0
C2318 C 0.67142 0.87016 0.39833 0.0
C2319 C 0.69259 0.87801 0.39543 0.0
H2320 H 0.62097 0.66776 0.45572 0.0
H2321 H 0.64586 0.6607 0.39048 0.0
H2322 H 0.63578 0.6983 0.3821 0.0
H2323 H 0.61255 0.72962 0.39107 0.0
H2324 H 0.58749 0.73659 0.45645 0.0
H2325 H 0.6055 0.70295 0.46731 0.0
C2326 C 0.62504 0.6749 0.44006 0.0
C2327 C 0.63401 0.66177 0.42368 0.0
C2328 C 0.6188 0.69633 0.43528 0.0
C2329 C 0.63909 0.6708 0.4033 0.0
C2330 C 0.63309 0.69216 0.39845 0.0
C2331 C 0.61163 0.72412 0.40786 0.0
C2332 C 0.59827 0.73522 0.42275 0.0
C2333 C 0.62181 0.7046 0.41394 0.0
C2334 C 0.59749 0.7282 0.44457 0.0
C2335 C 0.60766 0.70885 0.45079 0.0
H2336 H 0.84729 0.62682 0.45446 0.0
H2337 H 0.84809 0.64496 0.38667 0.0
H2338 H 0.81039 0.63312 0.38263 0.0
H2339 H 0.78106 0.60963 0.39631 0.0
H2340 H 0.78077 0.5904 0.46401 0.0
H2341 H 0.81399 0.61101 0.47031 0.0
C2342 C 0.83876 0.62918 0.43915 0.0
C2343 C 0.85027 0.63667 0.42088 0.0
C2344 C 0.81736 0.62154 0.43678 0.0
C2345 C 0.83934 0.63936 0.40096 0.0
C2346 C 0.81791 0.63229 0.39859 0.0
C2347 C 0.78792 0.61044 0.41259 0.0
C2348 C 0.77883 0.59788 0.42948 0.0
C2349 C 0.80729 0.62206 0.41604 0.0
C2350 C 0.78764 0.59955 0.45058 0.0
C2351 C 0.80674 0.61128 0.45421 0.0
H2352 H 0.9044 0.65424 0.07685 0.0
H2353 H 0.84125 0.66641 0.10475 0.0
H2354 H 0.84942 0.70555 0.10657 0.0
H2355 H 0.87671 0.73573 0.10432 0.0
H2356 H 0.94034 0.72183 0.07823 0.0
H2357 H 0.93016 0.68392 0.07225 0.0
C2358 C 0.89227 0.66551 0.08305 0.0
C2359 C 0.87234 0.65741 0.09089 0.0
C2360 C 0.89747 0.68764 0.08492 0.0
C2361 C 0.85667 0.67223 0.09855 0.0
C2362 C 0.8615 0.69456 0.09987 0.0
C2363 C 0.88817 0.72434 0.0972 0.0
C2364 C 0.90926 0.73142 0.09177 0.0
C2365 C 0.88216 0.70237 0.09384 0.0
C2366 C 0.92404 0.71665 0.0825 0.0
C2367 C 0.91821 0.69501 0.07904 0.0
H2368 H 0.78047 0.89082 0.11405 0.0
H2369 H 0.78099 0.91385 0.04753 0.0
H2370 H 0.81613 0.89668 0.04149 0.0
H2371 H 0.84977 0.88174 0.0573 0.0
H2372 H 0.84985 0.8594 0.12379 0.0
H2373 H 0.81134 0.86889 0.12745 0.0
C2374 C 0.78798 0.89154 0.09806 0.0
C2375 C 0.77826 0.90405 0.08145 0.0
C2376 C 0.80843 0.88174 0.09468 0.0
C2377 C 0.78812 0.90456 0.06073 0.0
C2378 C 0.80834 0.8948 0.05724 0.0
C2379 C 0.841 0.87798 0.07219 0.0
C2380 C 0.85244 0.86976 0.0902 0.0
C2381 C 0.8191 0.88424 0.07438 0.0
C2382 C 0.84118 0.86544 0.10965 0.0
C2383 C 0.81927 0.87119 0.11183 0.0
H2384 H 0.59864 0.78314 0.06103 0.0
H2385 H 0.59716 0.77536 0.13097 0.0
H2386 H 0.61511 0.81048 0.13544 0.0
H2387 H 0.6249 0.84615 0.11972 0.0
H2388 H 0.62596 0.85434 0.05 0.0
H2389 H 0.6148 0.81631 0.04513 0.0
C2390 C 0.60278 0.78884 0.07725 0.0
C2391 C 0.59616 0.77672 0.09564 0.0
C2392 C 0.61279 0.80932 0.07973 0.0
C2393 C 0.60191 0.78428 0.1165 0.0
C2394 C 0.61203 0.80452 0.1191 0.0
C2395 C 0.62337 0.83932 0.10347 0.0
C2396 C 0.62619 0.85292 0.08521 0.0
C2397 C 0.61661 0.81759 0.10088 0.0
C2398 C 0.62404 0.84407 0.06424 0.0
C2399 C 0.61746 0.82241 0.0615 0.0
H2400 H 0.72536 0.60937 0.1219 0.0
H2401 H 0.73172 0.59846 0.05268 0.0
H2402 H 0.69689 0.61655 0.0464 0.0
H2403 H 0.6615 0.62872 0.06147 0.0
H2404 H 0.65511 0.63824 0.13077 0.0
H2405 H 0.69306 0.62782 0.13613 0.0
C2406 C 0.71939 0.61139 0.10538 0.0
C2407 C 0.73088 0.60209 0.08786 0.0
C2408 C 0.69915 0.6214 0.10193 0.0
C2409 C 0.72309 0.60522 0.06652 0.0
C2410 C 0.70308 0.61547 0.06291 0.0
C2411 C 0.66876 0.62932 0.07758 0.0
C2412 C 0.65567 0.63414 0.09573 0.0
C2413 C 0.69048 0.62266 0.08059 0.0
C2414 C 0.66503 0.63462 0.1166 0.0
C2415 C 0.68664 0.62847 0.11968 0.0
H2416 H 0.45503 0.91591 0.79058 0.0
H2417 H 0.38867 0.90252 0.7721 0.0
H2418 H 0.38333 0.88188 0.80567 0.0
H2419 H 0.39546 0.87366 0.84314 0.0
H2420 H 0.46132 0.88785 0.86205 0.0
H2421 H 0.46905 0.90193 0.82545 0.0
C2422 C 0.43956 0.90801 0.7936 0.0
C2423 C 0.42216 0.91118 0.77898 0.0
C2424 C 0.43645 0.89651 0.8132 0.0
C2425 C 0.40231 0.90057 0.78309 0.0
C2426 C 0.39918 0.88886 0.8024 0.0
C2427 C 0.4117 0.87911 0.83889 0.0
C2428 C 0.42788 0.87967 0.85507 0.0
C2429 C 0.41581 0.88759 0.818 0.0
C2430 C 0.44877 0.88704 0.84968 0.0
C2431 C 0.45308 0.89529 0.82885 0.0
H2432 H 0.43729 0.61743 0.73099 0.0
H2433 H 0.36845 0.6036 0.7312 0.0
H2434 H 0.36494 0.61977 0.69507 0.0
H2435 H 0.38246 0.63169 0.66114 0.0
H2436 H 0.45143 0.64386 0.66 0.0
H2437 H 0.45383 0.63488 0.69887 0.0
C2438 C 0.42139 0.61844 0.72341 0.0
C2439 C 0.40323 0.60887 0.73369 0.0
C2440 C 0.41959 0.62722 0.7023 0.0
C2441 C 0.38275 0.6106 0.72365 0.0
C2442 C 0.38074 0.61973 0.70288 0.0
C2443 C 0.39792 0.63282 0.66957 0.0
C2444 C 0.4168 0.63809 0.65774 0.0
C2445 C 0.39921 0.62711 0.69169 0.0
C2446 C 0.4367 0.63983 0.6688 0.0
C2447 C 0.43807 0.63451 0.69096 0.0
H2448 H 0.89184 0.40452 0.7356 0.0
H2449 H 0.9329 0.461 0.72806 0.0
H2450 H 0.91905 0.46674 0.69143 0.0
H2451 H 0.89915 0.45286 0.65968 0.0
H2452 H 0.85774 0.39689 0.66656 0.0
H2453 H 0.86715 0.3942 0.70535 0.0
C2454 C 0.8973 0.41838 0.72612 0.0
C2455 C 0.91347 0.4322 0.73458 0.0
C2456 C 0.88914 0.42174 0.70489 0.0
C2457 C 0.92037 0.45014 0.7221 0.0
C2458 C 0.91256 0.45341 0.70101 0.0
C2459 C 0.89158 0.44063 0.66995 0.0
C2460 C 0.87761 0.42526 0.66055 0.0
C2461 C 0.89744 0.43897 0.69202 0.0
C2462 C 0.86826 0.40908 0.6737 0.0
C2463 C 0.87387 0.4074 0.69577 0.0
H2464 H 0.05672 0.92205 0.71924 0.0
H2465 H 0.12148 0.9035 0.73914 0.0
H2466 H 0.12315 0.87684 0.70978 0.0
H2467 H 0.10938 0.86482 0.67418 0.0
H2468 H 0.04549 0.88433 0.65328 0.0
H2469 H 0.03998 0.90411 0.68753 0.0
C2470 C 0.07098 0.91179 0.7175 0.0
C2471 C 0.08917 0.91521 0.73101 0.0
C2472 C 0.07201 0.89672 0.70029 0.0
C2473 C 0.10737 0.9015 0.72878 0.0
C2474 C 0.10839 0.88626 0.71192 0.0
C2475 C 0.0939 0.87258 0.67766 0.0
C2476 C 0.07782 0.87318 0.66145 0.0
C2477 C 0.09126 0.88455 0.69696 0.0
C2478 C 0.05792 0.8835 0.66576 0.0
C2479 C 0.05495 0.89507 0.68517 0.0
H2480 H 0.63634 0.11189 0.67062 0.0
H2481 H 0.61812 0.04714 0.65103 0.0
H2482 H 0.60397 0.0398 0.68766 0.0
H2483 H 0.59083 0.05434 0.72256 0.0
H2484 H 0.60759 0.11989 0.74153 0.0
H2485 H 0.62895 0.12415 0.70822 0.0
C2486 C 0.63007 0.0959 0.67474 0.0
C2487 C 0.62835 0.07998 0.65836 0.0
C2488 C 0.62145 0.09208 0.69562 0.0
C2489 C 0.61988 0.05944 0.66357 0.0
C2490 C 0.61156 0.05538 0.68441 0.0
C2491 C 0.5996 0.06938 0.71973 0.0
C2492 C 0.59715 0.08696 0.73434 0.0
C2493 C 0.61135 0.07194 0.70022 0.0
C2494 C 0.60891 0.10619 0.73048 0.0
C2495 C 0.62104 0.10869 0.71134 0.0
H2496 H 0.11934 0.62878 0.84842 0.0
H2497 H 0.04954 0.63041 0.85378 0.0
H2498 H 0.04619 0.62205 0.8148 0.0
H2499 H 0.06327 0.60801 0.78128 0.0
H2500 H 0.13329 0.60509 0.77669 0.0
H2501 H 0.13643 0.62082 0.81306 0.0
C2502 C 0.10343 0.62789 0.84084 0.0
C2503 C 0.08469 0.62997 0.85383 0.0
C2504 C 0.1017 0.62263 0.81863 0.0
C2505 C 0.06414 0.6289 0.84399 0.0
C2506 C 0.06226 0.62394 0.82178 0.0
C2507 C 0.07924 0.61133 0.78795 0.0
C2508 C 0.09803 0.60489 0.77637 0.0
C2509 C 0.08094 0.61984 0.80919 0.0
C2510 C 0.11856 0.60958 0.78527 0.0
C2511 C 0.12038 0.61847 0.80617 0.0
H2512 H 0.87191 0.12125 0.84339 0.0
H2513 H 0.87442 0.0528 0.85831 0.0
H2514 H 0.88867 0.04512 0.8218 0.0
H2515 H 0.90756 0.059 0.78904 0.0
H2516 H 0.90506 0.12768 0.77444 0.0
H2517 H 0.88348 0.13413 0.80716 0.0
C2518 C 0.87478 0.10458 0.83827 0.0
C2519 C 0.87229 0.0876 0.85347 0.0
C2520 C 0.88345 0.1004 0.81747 0.0
C2521 C 0.8761 0.06608 0.84681 0.0
C2522 C 0.88453 0.06174 0.82603 0.0
C2523 C 0.90169 0.07526 0.79267 0.0
C2524 C 0.90824 0.09285 0.77947 0.0
C2525 C 0.88938 0.07892 0.8117 0.0
C2526 C 0.90034 0.11382 0.78427 0.0
C2527 C 0.88811 0.11757 0.80313 0.0
H2528 H 0.61171 0.43922 0.77776 0.0
H2529 H 0.59949 0.36997 0.77754 0.0
H2530 H 0.61381 0.36714 0.81449 0.0
H2531 H 0.62354 0.38521 0.84877 0.0
H2532 H 0.63393 0.45453 0.85002 0.0
H2533 H 0.62692 0.45648 0.81065 0.0
C2534 C 0.6127 0.42339 0.78553 0.0
C2535 C 0.60412 0.40488 0.77495 0.0
C2536 C 0.62035 0.42197 0.8071 0.0
C2537 C 0.60573 0.38452 0.7853 0.0
C2538 C 0.61381 0.3829 0.80652 0.0
C2539 C 0.62479 0.40065 0.84025 0.0
C2540 C 0.62898 0.41975 0.85215 0.0
C2541 C 0.62019 0.40164 0.81788 0.0
C2542 C 0.63074 0.43965 0.84109 0.0
C2543 C 0.62655 0.44075 0.81866 0.0
H2544 H 0.00588 0.69156 0.36042 0.0
H2545 H 0.94037 0.67256 0.34432 0.0
H2546 H 0.95415 0.6494 0.31475 0.0
H2547 H 0.98501 0.63521 0.29311 0.0
H2548 H 0.05036 0.65443 0.3097 0.0
H2549 H 0.03654 0.67641 0.33997 0.0
C2550 C 0.99462 0.6824 0.35038 0.0
C2551 C 0.97215 0.68389 0.35427 0.0
C2552 C 1.00267 0.66898 0.33375 0.0
C2553 C 0.95774 0.67163 0.3415 0.0
C2554 C 0.96561 0.65842 0.32465 0.0
C2555 C 0.99617 0.64412 0.30349 0.0
C2556 C 0.01862 0.64339 0.29923 0.0
C2557 C 0.98806 0.65702 0.3206 0.0
C2558 C 0.03299 0.65499 0.31264 0.0
C2559 C 0.02511 0.66754 0.32988 0.0
H2560 H 0.80451 0.01283 0.35253 0.0
H2561 H 0.83812 0.95121 0.34906 0.0
H2562 H 0.85862 0.96398 0.31733 0.0
H2563 H 0.86731 0.99296 0.29071 0.0
H2564 H 0.8351 0.05515 0.2958 0.0
H2565 H 0.81367 0.04184 0.32665 0.0
C2566 C 0.81624 1.00212 0.34479 0.0
C2567 C 0.81965 0.98102 0.35311 0.0
C2568 C 0.82821 0.0097 0.32679 0.0
C2569 C 0.83515 0.96751 0.34301 0.0
C2570 C 0.84686 0.9748 0.32484 0.0
C2571 C 0.85548 1.00351 0.29851 0.0
C2572 C 0.85262 0.02494 0.2909 0.0
C2573 C 0.84355 0.99588 0.31659 0.0
C2574 C 0.8375 0.03856 0.30132 0.0
C2575 C 0.82527 0.03097 0.31897 0.0
H2576 H 0.51481 0.88412 0.31423 0.0
H2577 H 0.47184 0.83469 0.28901 0.0
H2578 H 0.4867 0.80823 0.31454 0.0
H2579 H 0.51243 0.79862 0.3426 0.0
H2580 H 0.55502 0.84691 0.37032 0.0
H2581 H 0.53915 0.87473 0.34595 0.0
C2582 C 0.50869 0.86758 0.31455 0.0
C2583 C 0.49233 0.86124 0.2997 0.0
C2584 C 0.517 0.85244 0.32984 0.0
C2585 C 0.48432 0.8399 0.30033 0.0
C2586 C 0.49282 0.82478 0.3149 0.0
C2587 C 0.51826 0.81527 0.34349 0.0
C2588 C 0.53515 0.82065 0.35796 0.0
C2589 C 0.50921 0.83082 0.32954 0.0
C2590 C 0.5421 0.84238 0.35923 0.0
C2591 C 0.53312 0.85818 0.34517 0.0
H2592 H 0.62932 0.5003 0.3222 0.0
H2593 H 0.67059 0.52012 0.26885 0.0
H2594 H 0.69554 0.53749 0.29432 0.0
H2595 H 0.70707 0.54491 0.33173 0.0
H2596 H 0.66646 0.52583 0.3854 0.0
H2597 H 0.63958 0.51074 0.36008 0.0
C2598 C 0.64369 0.50859 0.31621 0.0
C2599 C 0.6482 0.50877 0.29367 0.0
C2600 C 0.65801 0.51876 0.33103 0.0
C2601 C 0.66678 0.51968 0.2861 0.0
C2602 C 0.68109 0.52963 0.30066 0.0
C2603 C 0.69214 0.5378 0.3379 0.0
C2604 C 0.68865 0.53655 0.36054 0.0
C2605 C 0.67704 0.529 0.32315 0.0
C2606 C 0.66928 0.52728 0.36818 0.0
C2607 C 0.65407 0.51843 0.35362 0.0
H2608 H 0.97133 0.85274 0.14764 0.0
H2609 H 0.98634 0.78907 0.17339 0.0
H2610 H 0.00405 0.80562 0.20487 0.0
H2611 H 0.0167 0.83815 0.22435 0.0
H2612 H 1.00206 0.90184 0.19864 0.0
H2613 H 0.98294 0.88536 0.16781 0.0
C2614 C 0.97821 0.8425 0.16029 0.0
C2615 C 0.97752 0.81971 0.15817 0.0
C2616 C 0.98871 0.85213 0.1782 0.0
C2617 C 0.98674 0.80666 0.17459 0.0
C2618 C 0.99692 0.8161 0.19258 0.0
C2619 C 0.00935 0.84838 0.21195 0.0
C2620 C 0.01088 0.87112 0.2136 0.0
C2621 C 0.99831 0.8388 0.19438 0.0
C2622 C 1.00114 0.88426 0.1976 0.0
C2623 C 0.99017 0.87485 0.18002 0.0
H2624 H 0.6297 0.0118 0.18213 0.0
H2625 H 0.65776 0.97515 0.2351 0.0
H2626 H 0.68055 0.95497 0.20947 0.0
H2627 H 0.6958 0.95116 0.1725 0.0
H2628 H 0.6676 0.98773 0.11987 0.0
H2629 H 0.64125 1.00403 0.14451 0.0
C2630 C 0.64054 0.99912 0.18797 0.0
C2631 C 0.6423 0.99515 0.21042 0.0
C2632 C 0.65359 0.98755 0.17315 0.0
C2633 C 0.65624 0.97858 0.21784 0.0
C2634 C 0.66932 0.96706 0.20321 0.0
C2635 C 0.6835 0.96224 0.16635 0.0
C2636 C 0.6837 0.96836 0.14427 0.0
C2637 C 0.66861 0.97186 0.18088 0.0
C2638 C 0.66766 0.98269 0.13662 0.0
C2639 C 0.65273 0.99221 0.15083 0.0
H2640 H 0.50509 0.69186 0.15832 0.0
H2641 H 0.56962 0.66469 0.15367 0.0
H2642 H 0.56036 0.63751 0.18149 0.0
H2643 H 0.53395 0.62249 0.20859 0.0
H2644 H 0.46921 0.64932 0.21108 0.0
H2645 H 0.47844 0.67553 0.18265 0.0
C2646 C 0.51722 0.68009 0.16344 0.0
C2647 C 0.53816 0.6806 0.15425 0.0
C2648 C 0.51166 0.66435 0.17903 0.0
C2649 C 0.55346 0.66484 0.16071 0.0
C2650 C 0.54815 0.64927 0.17658 0.0
C2651 C 0.52188 0.63387 0.20255 0.0
C2652 C 0.50091 0.63399 0.21169 0.0
C2653 C 0.52732 0.64895 0.18603 0.0
C2654 C 0.48538 0.64888 0.20403 0.0
C2655 C 0.49067 0.66394 0.1879 0.0
H2656 H 0.84322 0.50744 0.23145 0.0
H2657 H 0.8969 0.48367 0.19282 0.0
H2658 H 0.88076 0.49926 0.16003 0.0
H2659 H 0.85088 0.51813 0.14204 0.0
H2660 H 0.79645 0.54157 0.17985 0.0
H2661 H 0.81342 0.52774 0.21323 0.0
C2662 C 0.85137 0.50579 0.21584 0.0
C2663 C 0.87115 0.49432 0.2145 0.0
C2664 C 0.84185 0.51467 0.19692 0.0
C2665 C 0.88159 0.49229 0.19423 0.0
C2666 C 0.87239 0.50122 0.17547 0.0
C2667 C 0.8427 0.52032 0.15757 0.0
C2668 C 0.82235 0.53079 0.1584 0.0
C2669 C 0.85243 0.5122 0.17658 0.0
C2670 C 0.81215 0.53363 0.17874 0.0
C2671 C 0.82181 0.52564 0.19783 0.0
H2672 H 0.28092 0.99246 0.66424 0.0
H2673 H 0.32053 0.01623 0.61132 0.0
H2674 H 0.35257 0.99865 0.62712 0.0
H2675 H 0.36955 0.97876 0.65701 0.0
H2676 H 0.33111 0.95851 0.71225 0.0
H2677 H 0.29815 0.97234 0.69447 0.0
C2678 C 0.29656 0.99352 0.65611 0.0
C2679 C 0.29852 0.0054 0.63664 0.0
C2680 C 0.31498 0.98403 0.66569 0.0
C2681 C 0.31879 0.0071 0.62634 0.0
C2682 C 0.33704 0.99706 0.63534 0.0
C2683 C 0.35388 0.97688 0.66494 0.0
C2684 C 0.3526 0.96725 0.68569 0.0
C2685 C 0.33535 0.98572 0.65512 0.0
C2686 C 0.33236 0.96563 0.69614 0.0
C2687 C 0.31359 0.97362 0.68604 0.0
H2688 H 0.48437 0.2875 0.67244 0.0
H2689 H 0.50718 0.30714 0.60892 0.0
H2690 H 0.5267 0.33782 0.6252 0.0
H2691 H 0.53627 0.35965 0.65745 0.0
H2692 H 0.51261 0.34009 0.72081 0.0
H2693 H 0.49459 0.30869 0.70465 0.0
C2694 C 0.49359 0.29854 0.66218 0.0
C2695 C 0.49426 0.29526 0.63956 0.0
C2696 C 0.50468 0.31608 0.67163 0.0
C2697 C 0.50634 0.30952 0.6264 0.0
C2698 C 0.51754 0.32699 0.6357 0.0
C2699 C 0.52739 0.34837 0.66774 0.0
C2700 C 0.52576 0.35223 0.69029 0.0
C2701 C 0.51673 0.3305 0.6583 0.0
C2702 C 0.51403 0.33756 0.70338 0.0
C2703 C 0.50368 0.3196 0.69417 0.0
H2704 H 0.14382 0.52206 0.65807 0.0
H2705 H 0.17642 0.53402 0.71904 0.0
H2706 H 0.21047 0.51964 0.70389 0.0
H2707 H 0.23049 0.50177 0.6736 0.0
H2708 H 0.19605 0.48585 0.61454 0.0
H2709 H 0.16333 0.50369 0.62841 0.0
C2710 C 0.15847 0.52172 0.6679 0.0
C2711 C 0.15779 0.52922 0.68951 0.0
C2712 C 0.17763 0.51257 0.65941 0.0
C2713 C 0.17669 0.52832 0.70232 0.0
C2714 C 0.19611 0.5201 0.69367 0.0
C2715 C 0.2158 0.50235 0.66383 0.0
C2716 C 0.21556 0.49255 0.64314 0.0
C2717 C 0.19672 0.51188 0.67231 0.0
C2718 C 0.19647 0.49317 0.63061 0.0
C2719 C 0.17779 0.5034 0.6385 0.0
H2720 H 1.00269 0.23017 0.6686 0.0
H2721 H 0.01842 0.19333 0.61083 0.0
H2722 H 1.0006 0.16116 0.62623 0.0
H2723 H 0.98197 0.14318 0.65693 0.0
H2724 H 0.96865 0.17966 0.71554 0.0
H2725 H 0.98384 0.21246 0.69894 0.0
C2726 C 1.00213 0.2151 0.65938 0.0
C2727 C 0.01179 0.214 0.63869 0.0
C2728 C 0.99217 0.19671 0.66844 0.0
C2729 C 0.0111 0.19444 0.62687 0.0
C2730 C 1.00088 0.1761 0.63562 0.0
C2731 C 0.982 0.15846 0.66581 0.0
C2732 C 0.97399 0.15922 0.68724 0.0
C2733 C 0.99147 0.17702 0.65645 0.0
C2734 C 0.97462 0.17886 0.69892 0.0
C2735 C 0.98339 0.19754 0.68951 0.0
H2736 H 0.28377 0.49293 0.83599 0.0
H2737 H 0.31189 0.50247 0.89968 0.0
H2738 H 0.34248 0.52203 0.88347 0.0
H2739 H 0.36181 0.53538 0.85111 0.0
H2740 H 0.33406 0.52522 0.78728 0.0
H2741 H 0.30264 0.50726 0.80363 0.0
C2742 C 0.29664 0.49926 0.84627 0.0
C2743 C 0.29573 0.49615 0.86893 0.0
C2744 C 0.31415 0.51053 0.83684 0.0
C2745 C 0.31236 0.50457 0.88214 0.0
C2746 C 0.3298 0.51581 0.8729 0.0
C2747 C 0.34873 0.52955 0.84079 0.0
C2748 C 0.35027 0.53168 0.81801 0.0
C2749 C 0.33091 0.51883 0.85026 0.0
C2750 C 0.3333 0.52375 0.80487 0.0
C2751 C 0.31535 0.51341 0.81419 0.0
H2752 H 0.98473 0.28434 0.86418 0.0
H2753 H 0.05015 0.30957 0.86467 0.0
H2754 H 0.03828 0.34166 0.84437 0.0
H2755 H 0.00939 0.36273 0.82722 0.0
H2756 H 0.94423 0.33717 0.82408 0.0
H2757 H 0.9559 0.30465 0.84439 0.0
C2758 C 0.99629 0.29693 0.85982 0.0
C2759 C 0.0182 0.29487 0.86604 0.0
C2760 C 0.98944 0.31505 0.84758 0.0
C2761 C 0.0332 0.31096 0.86006 0.0
C2762 C 0.02643 0.32926 0.84847 0.0
C2763 C 0.99775 0.34997 0.83089 0.0
C2764 C 0.97598 0.35228 0.82439 0.0
C2765 C 0.00462 0.33147 0.84223 0.0
C2766 C 0.9611 0.33558 0.82889 0.0
C2767 C 0.96775 0.31714 0.8406 0.0
H2768 H 0.14474 0.99281 0.84984 0.0
H2769 H 0.1818 0.9652 0.79673 0.0
H2770 H 0.21534 0.97967 0.81267 0.0
H2771 H 0.23385 1.0017 0.84114 0.0
H2772 H 0.1955 0.03028 0.89273 0.0
H2773 H 0.16269 0.01388 0.87783 0.0
C2774 C 0.16011 0.98973 0.84171 0.0
C2775 C 0.16068 0.97791 0.82206 0.0
C2776 C 0.17911 0.99844 0.85064 0.0
C2777 C 0.18085 0.97424 0.81186 0.0
C2778 C 0.20003 0.98257 0.82094 0.0
C2779 C 0.21828 1.00425 0.84906 0.0
C2780 C 0.21702 0.01724 0.86793 0.0
C2781 C 0.19932 0.99495 0.84021 0.0
C2782 C 0.19683 0.02046 0.87811 0.0
C2783 C 0.17807 0.01105 0.86964 0.0
H2784 H 0.51431 0.16852 0.80054 0.0
H2785 H 0.54893 0.14206 0.85573 0.0
H2786 H 0.53324 0.17012 0.87931 0.0
H2787 H 0.50868 0.20163 0.88436 0.0
H2788 H 0.47444 0.22777 0.82881 0.0
H2789 H 0.49094 0.2003 0.80525 0.0
C2790 C 0.51855 0.16894 0.8177 0.0
C2791 C 0.53276 0.15323 0.82635 0.0
C2792 C 0.50939 0.18496 0.83113 0.0
C2793 C 0.53817 0.15408 0.84861 0.0
C2794 C 0.52908 0.17003 0.86214 0.0
C2795 C 0.50481 0.20121 0.86711 0.0
C2796 C 0.49022 0.21651 0.85833 0.0
C2797 C 0.51449 0.18543 0.85361 0.0
C2798 C 0.48548 0.216 0.83595 0.0
C2799 C 0.49495 0.20036 0.82246 0.0
H2800 H 0.71414 0.33364 0.97548 0.0
H2801 H 0.663 0.3813 0.96985 0.0
H2802 H 0.63704 0.35518 0.98578 0.0
H2803 H 0.62978 0.3187 1.00305 0.0
H2804 H 0.6829 0.27295 0.00862 0.0
H2805 H 0.7072 0.29846 0.9909 0.0
C2806 C 0.69728 0.33847 0.9775 0.0
C2807 C 0.69063 0.35964 0.97185 0.0
C2808 C 0.68283 0.32361 0.9868 0.0
C2809 C 0.66866 0.36532 0.97453 0.0
C2810 C 0.65384 0.35032 0.98357 0.0
C2811 C 0.64666 0.31442 1.00028 0.0
C2812 C 0.65456 0.29397 0.00726 0.0
C2813 C 0.66086 0.32946 0.99015 0.0
C2814 C 0.67643 0.28857 1.00357 0.0
C2815 C 0.69037 0.30314 0.99337 0.0
H2816 H 0.62841 0.19506 0.51367 0.0
H2817 H 0.68071 0.22312 0.47595 0.0
H2818 H 0.70576 0.196 0.48993 0.0
H2819 H 0.71372 0.16621 0.51411 0.0
H2820 H 0.66332 0.13703 0.55321 0.0
H2821 H 0.63646 0.16225 0.53705 0.0
C2822 C 0.64525 0.19502 0.50842 0.0
C2823 C 0.65271 0.21125 0.49386 0.0
C2824 C 0.65987 0.1792 0.51672 0.0
C2825 C 0.67453 0.21097 0.48716 0.0
C2826 C 0.68892 0.19544 0.49515 0.0
C2827 C 0.69684 0.1652 0.51916 0.0
C2828 C 0.69059 0.14997 0.53509 0.0
C2829 C 0.68187 0.17978 0.51015 0.0
C2830 C 0.66856 0.14866 0.54102 0.0
C2831 C 0.65328 0.16318 0.53186 0.0
H2832 H 0.36113 0.6641 0.54463 0.0
H2833 H 0.34102 0.72538 0.51653 0.0
H2834 H 0.30944 0.70805 0.50034 0.0
H2835 H 0.2894 0.67537 0.49149 0.0
H2836 H 0.30834 0.6135 0.51867 0.0
H2837 H 0.33864 0.63113 0.53802 0.0
C2838 C 0.34959 0.67365 0.53529 0.0
C2839 C 0.35345 0.69592 0.53155 0.0
C2840 C 0.33152 0.66346 0.52566 0.0
C2841 C 0.33848 0.70816 0.51938 0.0
C2842 C 0.32044 0.69829 0.51009 0.0
C2843 C 0.3001 0.66573 0.50173 0.0
C2844 C 0.297 0.64322 0.50351 0.0
C2845 C 0.31716 0.67591 0.51264 0.0
C2846 C 0.31064 0.63091 0.51707 0.0
C2847 C 0.3279 0.64097 0.52806 0.0
H2848 H 0.88165 0.31274 0.51645 0.0
H2849 H 0.82483 0.27865 0.49328 0.0
H2850 H 0.80139 0.30712 0.50755 0.0
H2851 H 0.79684 0.34219 0.52537 0.0
H2852 H 0.85271 0.37637 0.55028 0.0
H2853 H 0.87672 0.34742 0.53678 0.0
C2854 C 0.86415 0.3116 0.51469 0.0
C2855 C 0.85497 0.29374 0.50378 0.0
C2856 C 0.8506 0.328 0.52323 0.0
C2857 C 0.83228 0.29228 0.50163 0.0
C2858 C 0.81882 0.30855 0.50975 0.0
C2859 C 0.81427 0.34318 0.52798 0.0
C2860 C 0.82306 0.36125 0.53869 0.0
C2861 C 0.8278 0.32652 0.52041 0.0
C2862 C 0.84562 0.36241 0.54219 0.0
C2863 C 0.85933 0.34596 0.53436 0.0
H2864 H 0.22848 0.84768 0.51696 0.0
H2865 H 0.1898 0.90505 0.505 0.0
H2866 H 0.1579 0.88706 0.52058 0.0
H2867 H 0.14041 0.85402 0.53418 0.0
H2868 H 0.17862 0.79578 0.54421 0.0
H2869 H 0.21134 0.81521 0.53294 0.0
C2870 C 0.21315 0.85636 0.51815 0.0
C2871 C 0.21142 0.87763 0.50986 0.0
C2872 C 0.19478 0.84569 0.52657 0.0
C2873 C 0.19147 0.88866 0.5113 0.0
C2874 C 0.17324 0.87835 0.52012 0.0
C2875 C 0.15591 0.84557 0.53424 0.0
C2876 C 0.15694 0.82337 0.53994 0.0
C2877 C 0.17459 0.85669 0.5273 0.0
C2878 C 0.17725 0.81281 0.53981 0.0
C2879 C 0.196 0.8239 0.53333 0.0
H2880 H 0.85312 0.14418 0.98164 0.0
H2881 H 0.79185 0.17683 0.97143 0.0
H2882 H 0.80695 0.21036 0.98717 0.0
H2883 H 0.83712 0.22935 0.00677 0.0
H2884 H 0.89713 0.19464 0.01813 0.0
H2885 H 0.88295 0.16298 0.99908 0.0
C2886 C 0.84304 0.15866 0.98266 0.0
C2887 C 0.82135 0.15795 0.97552 0.0
C2888 C 0.8516 0.17749 0.99219 0.0
C2889 C 0.80865 0.17697 0.9767 0.0
C2890 C 0.81724 0.19608 0.98589 0.0
C2891 C 0.84703 0.21486 1.00493 0.0
C2892 C 0.86807 0.21423 0.01403 0.0
C2893 C 0.83858 0.19638 0.99417 0.0
C2894 C 0.88081 0.19542 0.01151 0.0
C2895 C 0.87276 0.17732 1.00055 0.0
H2896 H 0.32954 0.79403 0.98274 0.0
H2897 H 0.37824 0.84318 0.97164 0.0
H2898 H 0.35337 0.87105 0.98656 0.0
H2899 H 0.31731 0.88081 1.00389 0.0
H2900 H 0.2705 0.82948 0.0145 0.0
H2901 H 0.29507 0.80316 0.99842 0.0
C2902 C 0.33491 0.81084 0.98341 0.0
C2903 C 0.35597 0.81639 0.97638 0.0
C2904 C 0.3207 0.82642 0.99197 0.0
C2905 C 0.36234 0.83834 0.97737 0.0
C2906 C 0.34803 0.85426 0.9858 0.0
C2907 C 0.31259 0.86387 1.00258 0.0
C2908 C 0.29206 0.85711 0.01052 0.0
C2909 C 0.32714 0.84843 0.9934 0.0
C2910 C 0.28616 0.83513 0.00872 0.0
C2911 C 0.30021 0.82001 0.99947 0.0
H2912 H 0.17535 0.70399 0.96292 0.0
H2913 H 0.12042 0.66179 0.97197 0.0
H2914 H 0.14402 0.63434 0.98923 0.0
H2915 H 0.1806 0.62432 1.00455 0.0
H2916 H 0.23537 0.66576 0.98993 0.0
H2917 H 0.21159 0.69153 0.97163 0.0
C2918 C 0.16843 0.6887 0.96844 0.0
C2919 C 0.14583 0.68551 0.96779 0.0
C2920 C 0.18223 0.67293 0.97728 0.0
C2921 C 0.13744 0.66523 0.974 0.0
C2922 C 0.15105 0.64946 0.98349 0.0
C2923 C 0.18723 0.63886 0.99706 0.0
C2924 C 0.20963 0.64333 0.99878 0.0
C2925 C 0.17345 0.6535 0.98591 0.0
C2926 C 0.21819 0.662 0.9888 0.0
C2927 C 0.20461 0.6768 0.97838 0.0
H2928 H 0.01218 0.3466 0.6436 0.0
H2929 H 0.04962 0.30107 0.68176 0.0
H2930 H 0.03348 0.31568 0.71537 0.0
H2931 H 0.00754 0.3408 0.73369 0.0
H2932 H 0.9685 0.38399 0.6943 0.0
H2933 H 0.98628 0.37073 0.66137 0.0
C2934 C 0.01715 0.34012 0.65929 0.0
C2935 C 0.03237 0.32307 0.66026 0.0
C2936 C 0.00722 0.34796 0.6783 0.0
C2937 C 0.03809 0.31438 0.68066 0.0
C2938 C 0.02878 0.32264 0.69983 0.0
C2939 C 1.00293 0.34719 0.71786 0.0
C2940 C 0.98671 0.3633 0.7164 0.0
C2941 C 0.01309 0.33927 0.69883 0.0
C2942 C 0.98085 0.37149 0.69584 0.0
C2943 C 0.99109 0.36401 0.67699 0.0
H2944 H 0.20352 0.04466 0.67693 0.0
H2945 H 0.16298 0.01991 0.62559 0.0
H2946 H 0.13793 1.00444 0.65262 0.0
H2947 H 0.13002 0.99462 0.69141 0.0
H2948 H 0.1718 0.01961 0.74205 0.0
H2949 H 0.194 0.03812 0.71489 0.0
C2950 C 0.18897 0.03624 0.67158 0.0
C2951 C 0.18517 0.0333 0.64914 0.0
C2952 C 0.1751 0.02706 0.68726 0.0
C2953 C 0.16619 0.02249 0.64262 0.0
C2954 C 0.15203 0.01343 0.65818 0.0
C2955 C 0.14389 1.00426 0.69644 0.0
C2956 C 0.14941 0.00551 0.71875 0.0
C2957 C 0.1567 0.01501 0.68059 0.0
C2958 C 0.16729 0.01823 0.72504 0.0
C2959 C 0.18 0.02887 0.7095 0.0
H2960 H 0.48283 0.15626 0.64198 0.0
H2961 H 0.4635 0.21148 0.68083 0.0
H2962 H 0.4793 0.19457 0.71335 0.0
H2963 H 0.50038 0.16503 0.73022 0.0
H2964 H 0.52056 0.11013 0.69133 0.0
H2965 H 0.50317 0.12614 0.65914 0.0
C2966 C 0.48172 0.16431 0.6577 0.0
C2967 C 0.47177 0.18486 0.65925 0.0
C2968 C 0.49142 0.15479 0.67612 0.0
C2969 C 0.47095 0.19553 0.67945 0.0
C2970 C 0.48008 0.18595 0.69795 0.0
C2971 C 0.50091 0.15659 0.71468 0.0
C2972 C 0.51171 0.13651 0.71302 0.0
C2973 C 0.49069 0.16578 0.69639 0.0
C2974 C 0.51222 0.1256 0.69292 0.0
C2975 C 0.50228 0.13473 0.67456 0.0
H2976 H 0.35099 0.49637 0.72769 0.0
H2977 H 0.39779 0.52926 0.68707 0.0
H2978 H 0.38087 0.51401 0.6544 0.0
H2979 H 0.35139 0.49401 0.63747 0.0
H2980 H 0.30206 0.46357 0.67723 0.0
H2981 H 0.32127 0.47521 0.71025 0.0
C2982 C 0.35758 0.49983 0.71164 0.0
C2983 C 0.37563 0.51371 0.70957 0.0
C2984 C 0.34715 0.49174 0.69289 0.0
C2985 C 0.38391 0.51856 0.68886 0.0
C2986 C 0.37422 0.50991 0.67025 0.0
C2987 C 0.34476 0.48979 0.65332 0.0
C2988 C 0.32517 0.47807 0.65483 0.0
C2989 C 0.35557 0.49692 0.67207 0.0
C2990 C 0.31707 0.47262 0.67557 0.0
C2991 C 0.32804 0.4793 0.69446 0.0
H2992 H 0.00714 0.125 0.80921 0.0
H2993 H 0.97137 0.18028 0.78463 0.0
H2994 H 0.98899 0.20393 0.81116 0.0
H2995 H 0.01389 0.20886 0.84151 0.0
H2996 H 0.04995 0.15408 0.86674 0.0
H2997 H 0.03318 0.13027 0.83952 0.0
C2998 C 1.00314 0.14219 0.80985 0.0
C2999 C 0.98784 0.15091 0.79524 0.0
C3000 C 0.01351 0.15577 0.82503 0.0
C3001 C 0.98295 0.17321 0.7959 0.0
C3002 C 0.99308 0.18676 0.81097 0.0
C3003 C 0.0182 0.19173 0.84099 0.0
C3004 C 0.03308 0.18323 0.85608 0.0
C3005 C 0.00833 0.17821 0.82559 0.0
C3006 C 0.03865 0.16104 0.85513 0.0
C3007 C 0.02893 0.1474 0.83971 0.0
H3008 H 0.34729 0.01067 0.78012 0.0
H3009 H 0.39764 0.9806 0.81876 0.0
H3010 H 0.38188 0.99601 0.85192 0.0
H3011 H 0.35348 0.01707 0.8699 0.0
H3012 H 0.30236 0.04665 0.83171 0.0
H3013 H 0.31887 0.03248 0.79833 0.0
C3014 C 0.3548 0.00759 0.79582 0.0
C3015 C 0.37354 0.99453 0.79709 0.0
C3016 C 0.34557 0.0164 0.81483 0.0
C3017 C 0.38317 0.99059 0.81745 0.0
C3018 C 0.37419 0.99939 0.83638 0.0
C3019 C 0.34595 0.0206 0.8543 0.0
C3020 C 0.32668 0.03294 0.85336 0.0
C3021 C 0.35534 0.01221 0.83526 0.0
C3022 C 0.3172 0.03722 0.83295 0.0
C3023 C 0.3266 0.02908 0.81384 0.0
H3024 H 0.53673 0.35804 0.80908 0.0
H3025 H 0.47893 0.39348 0.7912 0.0
H3026 H 0.45836 0.37469 0.81996 0.0
H3027 H 0.45661 0.34626 0.8489 0.0
H3028 H 0.51504 0.31057 0.86485 0.0
H3029 H 0.53553 0.33147 0.83835 0.0
C3030 C 0.51967 0.36181 0.81159 0.0
C3031 C 0.50932 0.37703 0.79808 0.0
C3032 C 0.50801 0.35076 0.82776 0.0
C3033 C 0.48723 0.38182 0.80151 0.0
C3034 C 0.47547 0.37101 0.81786 0.0
C3035 C 0.47383 0.34319 0.84657 0.0
C3036 C 0.48417 0.32664 0.85859 0.0
C3037 C 0.48563 0.35515 0.83089 0.0
C3038 C 0.50653 0.32289 0.85552 0.0
C3039 C 0.51835 0.3349 0.84041 0.0
H3040 H 0.16849 0.52487 0.79079 0.0
H3041 H 0.10677 0.49553 0.80616 0.0
H3042 H 0.12329 0.47617 0.83705 0.0
H3043 H 0.1554 0.46885 0.86043 0.0
H3044 H 0.21711 0.49775 0.8432 0.0
H3045 H 0.20057 0.51567 0.8121 0.0
C3046 C 0.15867 0.51424 0.80094 0.0
C3047 C 0.13649 0.51178 0.79653 0.0
C3048 C 0.16832 0.50298 0.81824 0.0
C3049 C 0.12393 0.4977 0.80944 0.0
C3050 C 0.13337 0.48664 0.82704 0.0
C3051 C 0.16523 0.47885 0.8497 0.0
C3052 C 0.18739 0.48216 0.85432 0.0
C3053 C 0.15558 0.48927 0.83169 0.0
C3054 C 0.19994 0.49515 0.84024 0.0
C3055 C 0.19052 0.50546 0.82241 0.0
H3056 H 0.67491 0.01892 0.29132 0.0
H3057 H 0.63699 0.04916 0.34221 0.0
H3058 H 0.66143 0.03311 0.36979 0.0
H3059 H 0.69441 0.01045 0.37885 0.0
H3060 H 0.73036 0.98082 0.32601 0.0
H3061 H 0.70581 0.99693 0.29968 0.0
C3062 C 0.67179 0.02219 0.30842 0.0
C3063 C 0.65397 0.03515 0.31467 0.0
C3064 C 0.68569 0.01301 0.32382 0.0
C3065 C 0.6504 0.03902 0.33696 0.0
C3066 C 0.66446 0.02991 0.35268 0.0
C3067 C 0.69669 0.00752 0.36156 0.0
C3068 C 0.71418 0.9944 0.35437 0.0
C3069 C 0.68223 0.01683 0.34625 0.0
C3070 C 0.71703 0.99072 0.33198 0.0
C3071 C 0.70302 0.99998 0.31688 0.0
H3072 H 0.45858 0.67174 0.30834 0.0
H3073 H 0.48633 0.62037 0.34674 0.0
H3074 H 0.50549 0.64684 0.3694 0.0
H3075 H 0.51683 0.68502 0.37577 0.0
H3076 H 0.48579 0.73646 0.33934 0.0
H3077 H 0.46495 0.70975 0.31865 0.0
C3078 C 0.46845 0.66641 0.32199 0.0
C3079 C 0.47168 0.64409 0.3256 0.0
C3080 C 0.47884 0.68184 0.33515 0.0
C3081 C 0.48409 0.63734 0.34347 0.0
C3082 C 0.49502 0.65256 0.35638 0.0
C3083 C 0.50537 0.69029 0.36341 0.0
C3084 C 0.50314 0.71254 0.35866 0.0
C3085 C 0.49304 0.67487 0.35191 0.0
C3086 C 0.48793 0.71934 0.34301 0.0
C3087 C 0.47601 0.70411 0.33119 0.0
H3088 H 0.78774 0.50943 0.33814 0.0
H3089 H 0.81162 0.49303 0.40223 0.0
H3090 H 0.83982 0.47001 0.38594 0.0
H3091 H 0.85944 0.45766 0.35359 0.0
H3092 H 0.83653 0.47546 0.28948 0.0
H3093 H 0.80541 0.49419 0.30571 0.0
C3094 C 0.79907 0.50071 0.34852 0.0
C3095 C 0.79796 0.50303 0.37128 0.0
C3096 C 0.81509 0.48761 0.33906 0.0
C3097 C 0.81246 0.49156 0.38464 0.0
C3098 C 0.82844 0.47838 0.37535 0.0
C3099 C 0.84734 0.46521 0.34315 0.0
C3100 C 0.85029 0.46537 0.32043 0.0
C3101 C 0.83011 0.47664 0.3526 0.0
C3102 C 0.83447 0.47498 0.30702 0.0
C3103 C 0.81689 0.48598 0.31631 0.0
H3104 H 0.05027 0.84514 0.34022 0.0
H3105 H 0.98989 0.86696 0.3117 0.0
H3106 H 0.97005 0.83904 0.33153 0.0
H3107 H 0.96983 0.80736 0.35543 0.0
H3108 H 0.02965 0.78443 0.38394 0.0
H3109 H 0.04977 0.81367 0.36562 0.0
C3110 C 0.03277 0.84377 0.3385 0.0
C3111 C 0.0216 0.85788 0.32433 0.0
C3112 C 0.02139 0.82739 0.34978 0.0
C3113 C 0.99892 0.85603 0.32221 0.0
C3114 C 0.98752 0.84012 0.33359 0.0
C3115 C 0.98726 0.80883 0.35769 0.0
C3116 C 0.99829 0.79382 0.37086 0.0
C3117 C 0.99861 0.82552 0.34712 0.0
C3118 C 0.02084 0.79591 0.37383 0.0
C3119 C 0.03233 0.81257 0.36334 0.0
H3120 H 0.65357 0.46887 0.16345 0.0
H3121 H 0.66847 0.49224 0.22802 0.0
H3122 H 0.70122 0.51007 0.21425 0.0
H3123 H 0.72435 0.52123 0.18316 0.0
H3124 H 0.71183 0.49438 0.11952 0.0
H3125 H 0.67953 0.47566 0.13346 0.0
C3126 C 0.66419 0.4776 0.17453 0.0
C3127 C 0.6585 0.47945 0.19667 0.0
C3128 C 0.68333 0.48733 0.16659 0.0
C3129 C 0.6725 0.49058 0.21092 0.0
C3130 C 0.69117 0.5009 0.20302 0.0
C3131 C 0.71462 0.51107 0.17249 0.0
C3132 C 0.72019 0.50927 0.15038 0.0
C3133 C 0.69653 0.49975 0.18081 0.0
C3134 C 0.70775 0.49591 0.13664 0.0
C3135 C 0.68927 0.48528 0.14459 0.0
H3136 H 0.04972 0.66301 0.16639 0.0
H3137 H 0.99332 0.65087 0.20666 0.0
H3138 H 0.97259 0.67757 0.1863 0.0
H3139 H 0.97029 0.70484 0.15774 0.0
H3140 H 0.02622 0.71886 0.11778 0.0
H3141 H 0.04729 0.691 0.13724 0.0
C3142 C 0.03292 0.66629 0.17067 0.0
C3143 C 0.02319 0.65507 0.18814 0.0
C3144 C 0.02097 0.68196 0.15895 0.0
C3145 C 1.00138 0.65946 0.19352 0.0
C3146 C 0.9894 0.67466 0.1818 0.0
C3147 C 0.98705 0.7017 0.15318 0.0
C3148 C 0.99669 0.71371 0.13635 0.0
C3149 C 0.99903 0.68605 0.16459 0.0
C3150 C 0.01844 0.70962 0.13064 0.0
C3151 C 0.03049 0.69378 0.14181 0.0
H3152 H 0.78114 0.0115 0.16168 0.0
H3153 H 0.82175 0.97148 0.12052 0.0
H3154 H 0.85423 0.98849 0.13549 0.0
H3155 H 0.87108 0.01268 0.16156 0.0
H3156 H 0.83154 0.05147 0.20497 0.0
H3157 H 0.79858 0.03718 0.18766 0.0
C3158 C 0.79713 0.00667 0.15598 0.0
C3159 C 0.79915 0.99017 0.14019 0.0
C3160 C 0.81585 0.0162 0.16507 0.0
C3161 C 0.81987 0.98398 0.13285 0.0
C3162 C 0.83843 0.99372 0.14135 0.0
C3163 C 0.8553 0.01816 0.16729 0.0
C3164 C 0.8538 0.03296 0.18472 0.0
C3165 C 0.8366 0.00953 0.15771 0.0
C3166 C 0.83316 0.04001 0.19165 0.0
C3167 C 0.81432 0.03178 0.1818 0.0
H3168 H 0.5057 0.86848 0.17729 0.0
H3169 H 0.4511 0.83432 0.20503 0.0
H3170 H 0.46233 0.80083 0.18616 0.0
H3171 H 0.48791 0.78154 0.16148 0.0
H3172 H 0.54397 0.81573 0.13672 0.0
H3173 H 0.53193 0.84911 0.15467 0.0
C3174 C 0.49623 0.85369 0.17915 0.0
C3175 C 0.47751 0.85377 0.19225 0.0
C3176 C 0.50307 0.83461 0.16879 0.0
C3177 C 0.46558 0.83451 0.19497 0.0
C3178 C 0.47196 0.81545 0.18415 0.0
C3179 C 0.49738 0.79635 0.16007 0.0
C3180 C 0.51666 0.79637 0.14775 0.0
C3181 C 0.49068 0.81534 0.17097 0.0
C3182 C 0.52906 0.81545 0.14616 0.0
C3183 C 0.5222 0.8345 0.15638 0.0
H3184 H 0.38015 0.68145 0.00636 0.0
H3185 H 0.33023 0.72788 0.98956 0.0
H3186 H 0.3029 0.70569 0.00777 0.0
H3187 H 0.29284 0.67275 0.02626 0.0
H3188 H 0.34099 0.62413 0.04194 0.0
H3189 H 0.36954 0.64749 0.02649 0.0
C3190 C 0.36328 0.68659 0.0069 0.0
C3191 C 0.35698 0.7061 0.99669 0.0
C3192 C 0.34746 0.67339 0.01703 0.0
C3193 C 0.33522 0.7128 0.99728 0.0
C3194 C 0.31966 0.70017 0.00768 0.0
C3195 C 0.30958 0.66718 0.02655 0.0
C3196 C 0.31471 0.64655 0.03501 0.0
C3197 C 0.32555 0.68037 0.01731 0.0
C3198 C 0.33653 0.63976 0.03521 0.0
C3199 C 0.35284 0.65316 0.0264 0.0
H3200 H 0.38073 0.82596 0.51171 0.0
H3201 H 0.33585 0.77417 0.49654 0.0
H3202 H 0.31244 0.79964 0.47723 0.0
H3203 H 0.30297 0.83677 0.46723 0.0
H3204 H 0.34681 0.88926 0.4816 0.0
H3205 H 0.3723 0.86365 0.49869 0.0
C3206 C 0.36588 0.82033 0.50406 0.0
C3207 C 0.35986 0.79825 0.50585 0.0
C3208 C 0.35221 0.83523 0.49304 0.0
C3209 C 0.34067 0.79112 0.49573 0.0
C3210 C 0.32728 0.80566 0.4846 0.0
C3211 C 0.31823 0.84264 0.47385 0.0
C3212 C 0.32281 0.86505 0.47359 0.0
C3213 C 0.33263 0.82778 0.48354 0.0
C3214 C 0.34279 0.87222 0.48194 0.0
C3215 C 0.35734 0.85751 0.49171 0.0
H3216 H 0.72772 0.34515 0.50866 0.0
H3217 H 0.68965 0.40325 0.51881 0.0
H3218 H 0.65758 0.38518 0.50348 0.0
H3219 H 0.64028 0.35234 0.48786 0.0
H3220 H 0.67842 0.29409 0.47903 0.0
H3221 H 0.71078 0.31283 0.49261 0.0
C3222 C 0.7124 0.35385 0.50746 0.0
C3223 C 0.71095 0.37544 0.5148 0.0
C3224 C 0.69417 0.34339 0.49863 0.0
C3225 C 0.69109 0.38661 0.51312 0.0
C3226 C 0.6728 0.37629 0.50438 0.0
C3227 C 0.65579 0.34395 0.48869 0.0
C3228 C 0.65719 0.322 0.4824 0.0
C3229 C 0.67415 0.35467 0.49709 0.0
C3230 C 0.67713 0.31102 0.48385 0.0
C3231 C 0.69556 0.32169 0.49164 0.0
H3232 H 0.19568 0.67538 0.45967 0.0
H3233 H 0.16749 0.62432 0.49829 0.0
H3234 H 0.14182 0.65029 0.51453 0.0
H3235 H 0.13091 0.68884 0.52111 0.0
H3236 H 0.16185 0.73977 0.48388 0.0
H3237 H 0.18319 0.71282 0.46407 0.0
C3238 C 0.18348 0.66985 0.4712 0.0
C3239 C 0.18292 0.64779 0.47724 0.0
C3240 C 0.16972 0.68511 0.4812 0.0
C3241 C 0.16741 0.6409 0.49253 0.0
C3242 C 0.15315 0.65594 0.50223 0.0
C3243 C 0.14218 0.69395 0.50851 0.0
C3244 C 0.14496 0.71631 0.50411 0.0
C3245 C 0.15464 0.67825 0.49719 0.0
C3246 C 0.15953 0.72271 0.48769 0.0
C3247 C 0.17172 0.7073 0.4763 0.0
H3248 H 0.83735 0.18854 0.45277 0.0
H3249 H 0.8874 0.17325 0.49918 0.0
H3250 H 0.86328 0.14756 0.51762 0.0
H3251 H 0.82587 0.13454 0.52406 0.0
H3252 H 0.77519 0.15167 0.4786 0.0
H3253 H 0.80128 0.17194 0.45648 0.0
C3254 C 0.84315 0.17886 0.4664 0.0
C3255 C 0.86439 0.18193 0.47412 0.0
C3256 C 0.82874 0.16513 0.47753 0.0
C3257 C 0.87164 0.17001 0.49219 0.0
C3258 C 0.85756 0.15586 0.50311 0.0
C3259 C 0.8207 0.14242 0.50911 0.0
C3260 C 0.7987 0.14189 0.50303 0.0
C3261 C 0.83581 0.154 0.49644 0.0
C3262 C 0.79209 0.15196 0.48358 0.0
C3263 C 0.80697 0.16355 0.47095 0.0
H3264 H 0.13599 0.79853 0.01835 0.0
H3265 H 0.15757 0.81203 0.95276 0.0
H3266 H 0.18005 0.84193 0.966 0.0
H3267 H 0.19471 0.86314 0.99621 0.0
H3268 H 0.17185 0.85173 0.06171 0.0
H3269 H 0.14874 0.82199 0.04858 0.0
C3270 C 0.14555 0.80814 0.00701 0.0
C3271 C 0.14532 0.80305 0.98467 0.0
C3272 C 0.15828 0.82549 0.01473 0.0
C3273 C 0.15756 0.81566 0.97005 0.0
C3274 C 0.17046 0.83269 0.9776 0.0
C3275 C 0.18464 0.8542 0.00761 0.0
C3276 C 0.18512 0.85941 0.02989 0.0
C3277 C 0.17115 0.83756 0.99991 0.0
C3278 C 0.17177 0.8479 0.04446 0.0
C3279 C 0.15859 0.83092 0.03697 0.0
H3280 H 0.69959 0.12685 1.00503 0.0
H3281 H 0.74338 0.18129 0.99904 0.0
H3282 H 0.71673 0.20509 0.01674 0.0
H3283 H 0.6798 0.21091 0.03114 0.0
H3284 H 0.63751 0.15585 0.04087 0.0
H3285 H 0.66481 0.13164 0.02474 0.0
C3286 C 0.70326 0.14392 0.00772 0.0
C3287 C 0.7231 0.15253 1.00036 0.0
C3288 C 0.68818 0.1573 0.01856 0.0
C3289 C 0.72803 0.17446 1.00437 0.0
C3290 C 0.71284 0.18804 0.01447 0.0
C3291 C 0.67679 0.19353 0.03006 0.0
C3292 C 0.65668 0.18513 0.03683 0.0
C3293 C 0.69271 0.17972 0.02125 0.0
C3294 C 0.65298 0.16261 0.0358 0.0
C3295 C 0.66848 0.14881 0.0264 0.0
H3296 H 0.87171 0.35027 0.02648 0.0
H3297 H 0.83126 0.29853 0.05146 0.0
H3298 H 0.79874 0.31795 0.03884 0.0
H3299 H 0.78238 0.34795 0.01733 0.0
H3300 H 0.82399 0.39746 0.99 0.0
H3301 H 0.85567 0.38052 0.00696 0.0
C3302 C 0.8558 0.34318 0.0293 0.0
C3303 C 0.85392 0.32279 0.03957 0.0
C3304 C 0.83745 0.35401 0.02146 0.0
C3305 C 0.83315 0.31413 0.04346 0.0
C3306 C 0.81459 0.32519 0.03617 0.0
C3307 C 0.79837 0.35513 0.01542 0.0
C3308 C 0.80101 0.37384 1.00247 0.0
C3309 C 0.81661 0.34488 0.02465 0.0
C3310 C 0.82171 0.383 0.99986 0.0
C3311 C 0.83977 0.37333 0.00952 0.0
H3312 H 0.0768 0.63487 0.0258 0.0
H3313 H 0.12541 0.68274 0.04241 0.0
H3314 H 0.13154 0.66493 0.0773 0.0
H3315 H 0.12326 0.63611 0.1031 0.0
H3316 H 0.07487 0.58785 0.08768 0.0
H3317 H 0.06798 0.60577 0.05251 0.0
C3318 C 0.08878 0.64128 0.03706 0.0
C3319 C 0.10064 0.66009 0.03158 0.0
C3320 C 0.09202 0.6311 0.05736 0.0
C3321 C 0.11599 0.66837 0.04633 0.0
C3322 C 0.11951 0.65822 0.06629 0.0
C3323 C 0.11118 0.62953 0.09203 0.0
C3324 C 0.09966 0.61069 0.09781 0.0
C3325 C 0.10758 0.63969 0.07198 0.0
C3326 C 0.08381 0.60246 0.08356 0.0
C3327 C 0.08004 0.61258 0.06342 0.0
H3328 H 0.86438 0.08769 0.11104 0.0
H3329 H 0.92673 0.08783 0.07923 0.0
H3330 H 0.90927 0.08058 0.04394 0.0
H3331 H 0.8756 0.0784 0.02172 0.0
H3332 H 0.81338 0.0803 0.05439 0.0
H3333 H 0.83132 0.08258 0.08956 0.0
C3334 C 0.87411 0.08535 0.09644 0.0
C3335 C 0.89672 0.08769 0.09763 0.0
C3336 C 0.86391 0.08202 0.07627 0.0
C3337 C 0.90928 0.08549 0.07862 0.0
C3338 C 0.89927 0.08164 0.05847 0.0
C3339 C 0.86602 0.07892 0.03657 0.0
C3340 C 0.84316 0.07928 0.03534 0.0
C3341 C 0.8765 0.08048 0.05698 0.0
C3342 C 0.83099 0.08013 0.05476 0.0
C3343 C 0.84122 0.08141 0.07497 0.0
H3344 H 0.43041 0.83414 0.05279 0.0
H3345 H 0.41023 0.88533 0.00896 0.0
H3346 H 0.4084 0.91088 0.03949 0.0
H3347 H 0.40894 0.91754 0.07911 0.0
H3348 H 0.42833 0.86618 0.12283 0.0
H3349 H 0.43449 0.84182 0.09179 0.0
C3350 C 0.42574 0.85092 0.04985 0.0
C3351 C 0.42016 0.85774 0.02867 0.0
C3352 C 0.42471 0.86547 0.06745 0.0
C3353 C 0.41435 0.87959 0.02514 0.0
C3354 C 0.41337 0.89422 0.04258 0.0
C3355 C 0.41516 0.9012 0.08169 0.0
C3356 C 0.41837 0.89358 0.10307 0.0
C3357 C 0.41809 0.88721 0.06384 0.0
C3358 C 0.42616 0.87239 0.10643 0.0
C3359 C 0.42936 0.85842 0.08873 0.0
H3360 H 0.59157 0.40286 0.08234 0.0
H3361 H 0.63934 0.43478 0.12259 0.0
H3362 H 0.66049 0.44426 0.0901 0.0
H3363 H 0.66748 0.43931 0.05106 0.0
H3364 H 0.62054 0.40559 0.01109 0.0
H3365 H 0.59696 0.40076 0.04279 0.0
C3366 C 0.60646 0.41221 0.08389 0.0
C3367 C 0.61412 0.41793 0.10471 0.0
C3368 C 0.61881 0.41687 0.06531 0.0
C3369 C 0.63316 0.4303 0.10667 0.0
C3370 C 0.64535 0.43547 0.08815 0.0
C3371 C 0.65202 0.43104 0.04922 0.0
C3372 C 0.6459 0.42254 0.02883 0.0
C3373 C 0.6387 0.42814 0.06751 0.0
C3374 C 0.62573 0.41206 0.02667 0.0
C3375 C 0.61223 0.40934 0.04476 0.0
H3376 H 0.109 0.8643 0.49557 0.0
H3377 H 0.05209 0.82992 0.47389 0.0
H3378 H 0.05249 0.85029 0.43937 0.0
H3379 H 0.07179 0.87511 0.41385 0.0
H3380 H 0.12822 0.90991 0.43696 0.0
H3381 H 0.12541 0.89211 0.47217 0.0
C3382 C 0.09639 0.86174 0.48346 0.0
C3383 C 0.0804 0.84596 0.48715 0.0
C3384 C 0.09694 0.87327 0.4637 0.0
C3385 C 0.06437 0.84229 0.47133 0.0
C3386 C 0.06472 0.8538 0.45158 0.0
C3387 C 0.08313 0.87913 0.42675 0.0
C3388 C 0.10055 0.89336 0.42246 0.0
C3389 C 0.08129 0.86897 0.44733 0.0
C3390 C 0.11505 0.89848 0.4395 0.0
C3391 C 0.11342 0.88841 0.45976 0.0
H3392 H 0.63516 0.12661 0.41065 0.0
H3393 H 0.58882 0.07719 0.42839 0.0
H3394 H 0.6072 0.07234 0.46376 0.0
H3395 H 0.6358 0.08377 0.49006 0.0
H3396 H 0.68155 0.13357 0.47118 0.0
H3397 H 0.66367 0.1372 0.4359 0.0
C3398 C 0.6293 0.11457 0.42221 0.0
C3399 C 0.61084 0.1022 0.41713 0.0
C3400 C 0.63954 0.11236 0.44237 0.0
C3401 C 0.60322 0.08666 0.43203 0.0
C3402 C 0.61355 0.08412 0.45225 0.0
C3403 C 0.64165 0.09552 0.47823 0.0
C3404 C 0.65985 0.1085 0.48312 0.0
C3405 C 0.63152 0.0972 0.45775 0.0
C3406 C 0.66758 0.12343 0.46767 0.0
C3407 C 0.65744 0.12545 0.44751 0.0
H3408 H 0.4182 0.64412 0.40795 0.0
H3409 H 0.40671 0.58594 0.44529 0.0
H3410 H 0.41097 0.60639 0.47936 0.0
H3411 H 0.41575 0.64141 0.49845 0.0
H3412 H 0.42579 0.69991 0.46078 0.0
H3413 H 0.4244 0.6789 0.42707 0.0
C3414 C 0.41713 0.63595 0.4236 0.0
C3415 C 0.41256 0.6136 0.42429 0.0
C3416 C 0.41908 0.64794 0.44306 0.0
C3417 C 0.41061 0.60312 0.44454 0.0
C3418 C 0.41288 0.61483 0.46396 0.0
C3419 C 0.41781 0.64953 0.48288 0.0
C3420 C 0.42076 0.67224 0.4822 0.0
C3421 C 0.41678 0.63734 0.46344 0.0
C3422 C 0.42331 0.68248 0.46183 0.0
C3423 C 0.42257 0.67047 0.4425 0.0
H3424 H 0.83106 0.43374 0.46359 0.0
H3425 H 0.87408 0.39885 0.50688 0.0
H3426 H 0.89913 0.39204 0.47672 0.0
H3427 H 0.90825 0.39498 0.43798 0.0
H3428 H 0.86574 0.42991 0.39436 0.0
H3429 H 0.84124 0.43827 0.42485 0.0
C3430 C 0.84591 0.42463 0.46638 0.0
C3431 C 0.85066 0.41668 0.48739 0.0
C3432 C 0.86038 0.42099 0.44899 0.0
C3433 C 0.87008 0.40515 0.49087 0.0
C3434 C 0.88441 0.40125 0.47364 0.0
C3435 C 0.89365 0.40452 0.43519 0.0
C3436 C 0.88865 0.41167 0.41398 0.0
C3437 C 0.87965 0.40899 0.45266 0.0
C3438 C 0.86993 0.42432 0.41058 0.0
C3439 C 0.85586 0.42891 0.42796 0.0
H3440 H 0.01339 0.08289 0.63769 0.0
H3441 H 0.04575 0.10224 0.69706 0.0
H3442 H 0.08045 0.10344 0.67804 0.0
H3443 H 0.10123 0.10201 0.64402 0.0
H3444 H 0.06933 0.08469 0.58409 0.0
H3445 H 0.0349 0.07935 0.60373 0.0
C3446 C 0.02809 0.0871 0.64647 0.0
C3447 C 0.02695 0.0926 0.66872 0.0
C3448 C 0.04808 0.08806 0.63533 0.0
C3449 C 0.04612 0.09813 0.67989 0.0
C3450 C 0.06602 0.09878 0.66905 0.0
C3451 C 0.08682 0.09647 0.63547 0.0
C3452 C 0.08767 0.09324 0.61289 0.0
C3453 C 0.06713 0.09414 0.64674 0.0
C3454 C 0.06894 0.08672 0.60163 0.0
C3455 C 0.04929 0.08392 0.61282 0.0
H3456 H 0.43672 0.01906 0.64114 0.0
H3457 H 0.38811 0.03588 0.68924 0.0
H3458 H 0.38216 0.07067 0.67164 0.0
H3459 H 0.38948 0.09609 0.64218 0.0
H3460 H 0.43722 0.08048 0.59317 0.0
H3461 H 0.44519 0.04592 0.61176 0.0
C3462 C 0.42491 0.0304 0.64777 0.0
C3463 C 0.41291 0.02471 0.66654 0.0
C3464 C 0.4215 0.05075 0.63751 0.0
C3465 C 0.39768 0.03967 0.6749 0.0
C3466 C 0.39421 0.05969 0.66484 0.0
C3467 C 0.40176 0.08519 0.63564 0.0
C3468 C 0.41268 0.09078 0.61631 0.0
C3469 C 0.4059 0.06534 0.64613 0.0
C3470 C 0.42873 0.07662 0.60816 0.0
C3471 C 0.4331 0.05677 0.61867 0.0
H3472 H 0.45558 0.43002 0.67948 0.0
H3473 H 0.49745 0.40717 0.62773 0.0
H3474 H 0.46613 0.40381 0.60352 0.0
H3475 H 0.42657 0.40437 0.59812 0.0
H3476 H 0.38457 0.42689 0.64967 0.0
H3477 H 0.4163 0.43386 0.67287 0.0
C3478 C 0.45788 0.42439 0.66288 0.0
C3479 C 0.47879 0.41854 0.65552 0.0
C3480 C 0.43981 0.42256 0.64903 0.0
C3481 C 0.48153 0.41159 0.63386 0.0
C3482 C 0.46363 0.40969 0.62 0.0
C3483 C 0.42448 0.41123 0.6143 0.0
C3484 C 0.40341 0.41509 0.62233 0.0
C3485 C 0.44269 0.41476 0.62754 0.0
C3486 C 0.40071 0.42399 0.6432 0.0
C3487 C 0.41881 0.42773 0.65649 0.0
H3488 H 0.09873 0.49365 0.63067 0.0
H3489 H 0.06716 0.46161 0.68467 0.0
H3490 H 0.06652 0.42744 0.66449 0.0
H3491 H 0.07907 0.40548 0.63345 0.0
H3492 H 0.11272 0.43668 0.58039 0.0
H3493 H 0.10819 0.47219 0.5979 0.0
C3494 C 0.0914 0.47925 0.6378 0.0
C3495 C 0.08326 0.48007 0.65919 0.0
C3496 C 0.09155 0.45941 0.62627 0.0
C3497 C 0.07386 0.46129 0.66832 0.0
C3498 C 0.07342 0.44173 0.65679 0.0
C3499 C 0.08476 0.42018 0.62547 0.0
C3500 C 0.09611 0.41857 0.60571 0.0
C3501 C 0.08278 0.44041 0.63602 0.0
C3502 C 0.10383 0.43764 0.59563 0.0
C3503 C 0.1014 0.4579 0.6057 0.0
H3504 H 0.01686 0.41838 0.87636 0.0
H3505 H 0.05063 0.45575 0.82735 0.0
H3506 H 0.08502 0.45015 0.84647 0.0
H3507 H 0.10607 0.43168 0.8754 0.0
H3508 H 0.07206 0.39346 0.92353 0.0
H3509 H 0.03733 0.40233 0.90655 0.0
C3510 C 0.03166 0.42563 0.87006 0.0
C3511 C 0.03116 0.43741 0.85044 0.0
C3512 C 0.05145 0.42198 0.88088 0.0
C3513 C 0.05056 0.44653 0.84241 0.0
C3514 C 0.07027 0.4433 0.8533 0.0
C3515 C 0.091 0.42569 0.88235 0.0
C3516 C 0.09162 0.41179 0.90053 0.0
C3517 C 0.07101 0.43063 0.8723 0.0
C3518 C 0.07198 0.40398 0.90935 0.0
C3519 C 0.05212 0.40905 0.89967 0.0
H3520 H 0.11332 0.07342 0.90989 0.0
H3521 H 0.07323 0.11721 0.87238 0.0
H3522 H 0.06047 0.08673 0.85007 0.0
H3523 H 0.06313 0.04804 0.83944 0.0
H3524 H 0.10319 1.00453 0.87743 0.0
H3525 H 0.11372 0.03451 0.90122 0.0
C3526 C 0.10178 0.07627 0.89682 0.0
C3527 C 0.09448 0.09754 0.89253 0.0
C3528 C 0.09464 0.05875 0.88409 0.0
C3529 C 0.07911 0.10097 0.87594 0.0
C3530 C 0.07191 0.08357 0.86313 0.0
C3531 C 0.07392 0.04512 0.85311 0.0
C3532 C 0.08237 0.02413 0.85666 0.0
C3533 C 0.0799 0.06246 0.86679 0.0
C3534 C 0.09629 0.02049 0.87446 0.0
C3535 C 0.10244 0.03766 0.888 0.0
H3536 H 0.48776 0.0778 0.87156 0.0
H3537 H 0.4668 0.11487 0.81547 0.0
H3538 H 0.43096 0.11922 0.83132 0.0
H3539 H 0.40589 0.11429 0.86146 0.0
H3540 H 0.42554 0.07863 0.91856 0.0
H3541 H 0.46122 0.07126 0.90178 0.0
C3542 C 0.4753 0.08677 0.86286 0.0
C3543 C 0.48005 0.09599 0.84233 0.0
C3544 C 0.45438 0.08919 0.87209 0.0
C3545 C 0.46368 0.10749 0.83121 0.0
C3546 C 0.44309 0.11 0.84024 0.0
C3547 C 0.41787 0.10452 0.87003 0.0
C3548 C 0.41317 0.0969 0.89107 0.0
C3549 C 0.4383 0.10104 0.86063 0.0
C3550 C 0.42876 0.08438 0.90217 0.0
C3551 C 0.44922 0.08046 0.89269 0.0
H3552 H 0.43801 0.46073 0.83896 0.0
H3553 H 0.39681 0.50278 0.87748 0.0
H3554 H 0.38859 0.47254 0.90204 0.0
H3555 H 0.39136 0.43376 0.91115 0.0
H3556 H 0.43182 0.39148 0.8722 0.0
H3557 H 0.44259 0.42242 0.84948 0.0
C3558 C 0.42732 0.46332 0.8528 0.0
C3559 C 0.41788 0.48391 0.85631 0.0
C3560 C 0.42263 0.44587 0.86678 0.0
C3561 C 0.40428 0.48709 0.87444 0.0
C3562 C 0.39953 0.4698 0.88845 0.0
C3563 C 0.40257 0.43134 0.8977 0.0
C3564 C 0.41056 0.41034 0.89313 0.0
C3565 C 0.40835 0.44907 0.88455 0.0
C3566 C 0.42548 0.40749 0.87603 0.0
C3567 C 0.4315 0.42514 0.86296 0.0
H3568 H 0.59245 0.08524 0.08539 0.0
H3569 H 0.64642 0.12192 0.11074 0.0
H3570 H 0.67062 0.09071 0.10531 0.0
H3571 H 0.67582 0.05248 0.09557 0.0
H3572 H 0.62167 0.01468 0.07192 0.0
H3573 H 0.59809 0.0468 0.0743 0.0
C3574 C 0.60966 0.08646 0.08908 0.0
C3575 C 0.61792 0.10589 0.09786 0.0
C3576 C 0.62329 0.06821 0.08648 0.0
C3577 C 0.63999 0.10724 0.10339 0.0
C3578 C 0.65371 0.08935 0.10051 0.0
C3579 C 0.65891 0.05127 0.09073 0.0
C3580 C 0.65052 0.03121 0.08354 0.0
C3581 C 0.64547 0.06967 0.0924 0.0
C3582 C 0.6285 0.02991 0.07758 0.0
C3583 C 0.61504 0.04828 0.0789 0.0
H3584 H 0.66424 0.46326 0.44592 0.0
H3585 H 0.62134 0.50385 0.40773 0.0
H3586 H 0.59829 0.47248 0.4 0.0
H3587 H 0.59203 0.43312 0.40159 0.0
H3588 H 0.63525 0.3922 0.43882 0.0
H3589 H 0.65626 0.42422 0.44989 0.0
C3590 C 0.64971 0.4653 0.4361 0.0
C3591 C 0.64458 0.48584 0.42731 0.0
C3592 C 0.63661 0.44716 0.4316 0.0
C3593 C 0.62566 0.48823 0.41471 0.0
C3594 C 0.61249 0.47029 0.41023 0.0
C3595 C 0.6059 0.4313 0.41237 0.0
C3596 C 0.61224 0.41041 0.4193 0.0
C3597 C 0.61806 0.44964 0.41825 0.0
C3598 C 0.63004 0.40817 0.43342 0.0
C3599 C 0.64214 0.42643 0.43956 0.0
H3600 H 0.10088 0.64138 0.4061 0.0
H3601 H 0.0697 0.58046 0.42072 0.0
H3602 H 0.03449 0.59913 0.42443 0.0
H3603 H 0.01228 0.63253 0.41976 0.0
H3604 H 0.04425 0.69277 0.40266 0.0
H3605 H 0.07937 0.67464 0.40334 0.0
C3606 C 0.08643 0.6324 0.41082 0.0
C3607 C 0.08774 0.60981 0.41367 0.0
C3608 C 0.06633 0.64304 0.41183 0.0
C3609 C 0.06898 0.598 0.41905 0.0
C3610 C 0.04888 0.60863 0.4208 0.0
C3611 C 0.02694 0.64165 0.41619 0.0
C3612 C 0.02557 0.66395 0.41098 0.0
C3613 C 0.04726 0.63107 0.41655 0.0
C3614 C 0.04475 0.67558 0.40657 0.0
C3615 C 0.06491 0.66527 0.40706 0.0
H3616 H 0.83103 0.04763 0.43695 0.0
H3617 H 0.87504 1.00167 0.4069 0.0
H3618 H 0.90225 0.03015 0.40268 0.0
H3619 H 0.91267 0.06855 0.40515 0.0
H3620 H 0.86896 0.11489 0.43459 0.0
H3621 H 0.84267 0.08577 0.44187 0.0
C3622 C 0.84661 0.04382 0.42957 0.0
C3623 C 0.85087 0.02256 0.42208 0.0
C3624 C 0.86229 0.06031 0.42723 0.0
C3625 C 0.87122 0.01789 0.4127 0.0
C3626 C 0.88685 0.03416 0.41031 0.0
C3627 C 0.89756 0.07212 0.41359 0.0
C3628 C 0.89274 0.09371 0.41946 0.0
C3629 C 0.88246 0.05545 0.41726 0.0
C3630 C 0.87313 0.09829 0.43026 0.0
C3631 C 0.85801 0.08171 0.43415 0.0
H3632 H 0.48951 0.87102 0.42862 0.0
H3633 H 0.46901 0.82596 0.37874 0.0
H3634 H 0.4335 0.84357 0.37705 0.0
H3635 H 0.40899 0.87287 0.38818 0.0
H3636 H 0.42873 0.91847 0.43766 0.0
H3637 H 0.46349 0.89911 0.44179 0.0
C3638 C 0.47728 0.86523 0.4173 0.0
C3639 C 0.48196 0.84744 0.40357 0.0
C3640 C 0.45665 0.87523 0.41669 0.0
C3641 C 0.46583 0.83972 0.38934 0.0
C3642 C 0.44549 0.8497 0.38844 0.0
C3643 C 0.42076 0.87825 0.40021 0.0
C3644 C 0.41643 0.89701 0.41261 0.0
C3645 C 0.44078 0.86751 0.40193 0.0
C3646 C 0.43168 0.90391 0.42813 0.0
C3647 C 0.45165 0.89305 0.43022 0.0
H3648 H 0.9077 0.43342 0.10662 0.0
H3649 H 0.86154 0.38895 0.0782 0.0
H3650 H 0.83963 0.41965 0.06525 0.0
H3651 H 0.83189 0.45895 0.0653 0.0
H3652 H 0.87822 0.5034 0.09372 0.0
H3653 H 0.90189 0.47291 0.10323 0.0
C3654 C 0.89296 0.43052 0.09735 0.0
C3655 C 0.88607 0.40904 0.09351 0.0
C3656 C 0.88046 0.44822 0.0901 0.0
C3657 C 0.86715 0.40538 0.08127 0.0
C3658 C 0.85458 0.42291 0.07401 0.0
C3659 C 0.84732 0.462 0.07328 0.0
C3660 C 0.85319 0.48341 0.07893 0.0
C3661 C 0.86081 0.44438 0.0788 0.0
C3662 C 0.87331 0.4871 0.08913 0.0
C3663 C 0.88681 0.46966 0.0947 0.0
H3664 H 0.0247 0.86769 0.07707 0.0
H3665 H 0.04414 0.81752 0.12236 0.0
H3666 H 0.0797 0.83442 0.12633 0.0
H3667 H 0.10466 0.86436 0.11866 0.0
H3668 H 0.08621 0.91481 0.07354 0.0
H3669 H 0.05124 0.89661 0.06719 0.0
C3670 C 0.03675 0.86052 0.08779 0.0
C3671 C 0.03169 0.84147 0.09955 0.0
C3672 C 0.05746 0.87019 0.08979 0.0
C3673 C 0.04757 0.83217 0.11314 0.0
C3674 C 0.06796 0.84179 0.11541 0.0
C3675 C 0.09312 0.87111 0.1071 0.0
C3676 C 0.09796 0.89084 0.09655 0.0
C3677 C 0.07302 0.86085 0.10396 0.0
C3678 C 0.08293 0.89948 0.08163 0.0
C3679 C 0.06284 0.88923 0.07825 0.0
H3680 H 0.43667 0.60163 0.11431 0.0
H3681 H 0.39806 0.63366 0.06498 0.0
H3682 H 0.42913 0.65641 0.05527 0.0
H3683 H 0.4663 0.66925 0.06277 0.0
H3684 H 0.50346 0.63925 0.11446 0.0
H3685 H 0.47348 0.61437 0.12191 0.0
C3686 C 0.43488 0.61371 0.10154 0.0
C3687 C 0.41481 0.61605 0.09063 0.0
C3688 C 0.45244 0.62744 0.09676 0.0
C3689 C 0.41324 0.63128 0.07358 0.0
C3690 C 0.43095 0.64453 0.06821 0.0
C3691 C 0.46788 0.65724 0.07564 0.0
C3692 C 0.48715 0.65614 0.08801 0.0
C3693 C 0.45046 0.64308 0.08001 0.0
C3694 C 0.48886 0.64049 0.10465 0.0
C3695 C 0.47173 0.62619 0.10891 0.0
H3696 H 0.90051 0.40766 0.93586 0.0
H3697 H 0.94425 0.3703 0.89549 0.0
H3698 H 0.95675 0.35011 0.92754 0.0
H3699 H 0.95255 0.34068 0.96639 0.0
H3700 H 0.90848 0.37796 0.00656 0.0
H3701 H 0.89868 0.40045 0.97523 0.0
C3702 C 0.91292 0.3952 0.93412 0.0
C3703 C 0.9213 0.39031 0.9133 0.0
C3704 C 0.91979 0.38351 0.95255 0.0
C3705 C 0.93762 0.37443 0.91133 0.0
C3706 C 0.94463 0.36276 0.92963 0.0
C3707 C 0.94105 0.35395 0.96834 0.0
C3708 C 0.93125 0.35761 0.98878 0.0
C3709 C 0.93545 0.36681 0.95022 0.0
C3710 C 0.91642 0.37489 0.99108 0.0
C3711 C 0.91069 0.38769 0.97312 0.0
H3712 H 0.14156 0.93695 0.98639 0.0
H3713 H 0.19376 0.89318 0.96911 0.0
H3714 H 0.17655 0.88565 0.93426 0.0
H3715 H 0.14721 0.89143 0.9084 0.0
H3716 H 0.09487 0.93549 0.92366 0.0
H3717 H 0.11189 0.94371 0.95908 0.0
C3718 C 0.14905 0.92575 0.97496 0.0
C3719 C 0.16892 0.91556 0.9804 0.0
C3720 C 0.1393 0.92194 0.95438 0.0
C3721 C 0.17854 0.90125 0.96535 0.0
C3722 C 0.16875 0.89698 0.94535 0.0
C3723 C 0.13961 0.90302 0.9194 0.0
C3724 C 0.11986 0.91288 0.91342 0.0
C3725 C 0.14929 0.90733 0.93963 0.0
C3726 C 0.11023 0.9279 0.92778 0.0
C3727 C 0.11985 0.93237 0.94813 0.0
H3728 H 0.62865 0.11398 0.93446 0.0
H3729 H 0.56671 0.12944 0.90486 0.0
H3730 H 0.55705 0.15115 0.93679 0.0
H3731 H 0.56778 0.16885 0.97176 0.0
H3732 H 0.63225 0.15797 0.99677 0.0
H3733 H 0.64 0.13256 0.9672 0.0
C3734 C 0.61326 0.12257 0.93435 0.0
C3735 C 0.59881 0.12039 0.91662 0.0
C3736 C 0.60842 0.13624 0.95193 0.0
C3737 C 0.57833 0.13063 0.91804 0.0
C3738 C 0.57284 0.14333 0.93625 0.0
C3739 C 0.5834 0.16069 0.97069 0.0
C3740 C 0.59938 0.16474 0.98655 0.0
C3741 C 0.58798 0.14668 0.95307 0.0
C3742 C 0.61968 0.15456 0.98498 0.0
C3743 C 0.62409 0.14015 0.96804 0.0
H3744 H 0.37861 0.59259 0.98777 0.0
H3745 H 0.3174 0.59287 0.95326 0.0
H3746 H 0.33647 0.59338 0.91855 0.0
H3747 H 0.37036 0.59588 0.89772 0.0
H3748 H 0.43168 0.59714 0.93138 0.0
H3749 H 0.41293 0.59343 0.96657 0.0
C3750 C 0.36948 0.59274 0.97265 0.0
C3751 C 0.34658 0.5928 0.9732 0.0
C3752 C 0.38059 0.593 0.95254 0.0
C3753 C 0.33501 0.5929 0.95341 0.0
C3754 C 0.34589 0.59311 0.93348 0.0
C3755 C 0.37956 0.59463 0.91277 0.0
C3756 C 0.40227 0.59613 0.91212 0.0
C3757 C 0.36863 0.59328 0.93282 0.0
C3758 C 0.41416 0.59536 0.93163 0.0
C3759 C 0.40342 0.59356 0.9517 0.0
H3760 H 0.90876 0.13016 0.52071 0.0
H3761 H 0.96177 0.16773 0.54718 0.0
H3762 H 0.95663 0.15066 0.58275 0.0
H3763 H 0.93525 0.12675 0.60716 0.0
H3764 H 0.8831 0.08854 0.57983 0.0
H3765 H 0.88969 0.10419 0.54403 0.0
C3766 C 0.91934 0.13445 0.53418 0.0
C3767 C 0.93552 0.15027 0.53126 0.0
C3768 C 0.91634 0.12456 0.55461 0.0
C3769 C 0.9491 0.15563 0.54895 0.0
C3770 C 0.94618 0.14589 0.56935 0.0
C3771 C 0.92567 0.12154 0.59327 0.0
C3772 C 0.90848 0.10679 0.5963 0.0
C3773 C 0.92963 0.13053 0.57249 0.0
C3774 C 0.89616 0.10024 0.57808 0.0
C3775 C 0.89992 0.10912 0.55754 0.0
H3776 H 0.34172 0.9004 0.54468 0.0
H3777 H 0.38696 0.9465 0.51755 0.0
H3778 H 0.41004 0.94327 0.55015 0.0
H3779 H 0.41758 0.92601 0.58616 0.0
H3780 H 0.37179 0.87925 0.61164 0.0
H3781 H 0.34875 0.88386 0.57982 0.0
C3782 C 0.35662 0.90977 0.54597 0.0
C3783 C 0.36275 0.92363 0.529 0.0
C3784 C 0.36969 0.90763 0.56443 0.0
C3785 C 0.38217 0.93554 0.53052 0.0
C3786 C 0.39523 0.93378 0.54915 0.0
C3787 C 0.40233 0.91725 0.58483 0.0
C3788 C 0.39629 0.90239 0.60115 0.0
C3789 C 0.38916 0.91979 0.56624 0.0
C3790 C 0.3767 0.8908 0.59921 0.0
C3791 C 0.36355 0.89335 0.58103 0.0
H3792 H 0.57829 0.36854 0.51948 0.0
H3793 H 0.60194 0.30929 0.54917 0.0
H3794 H 0.60462 0.3274 0.58421 0.0
H3795 H 0.60322 0.36071 0.60618 0.0
H3796 H 0.57954 0.42013 0.57763 0.0
H3797 H 0.57368 0.40145 0.54271 0.0
C3798 C 0.58385 0.35958 0.53366 0.0
C3799 C 0.59012 0.3376 0.53148 0.0
C3800 C 0.58532 0.37014 0.5541 0.0
C3801 C 0.59716 0.32624 0.55015 0.0
C3802 C 0.5987 0.33657 0.57032 0.0
C3803 C 0.5962 0.36934 0.59244 0.0
C3804 C 0.59146 0.39158 0.59445 0.0
C3805 C 0.59317 0.35856 0.57245 0.0
C3806 C 0.58285 0.40284 0.57648 0.0
C3807 C 0.57974 0.39221 0.55648 0.0
H3808 H 0.16197 0.56559 0.54834 0.0
H3809 H 0.11731 0.6022 0.50818 0.0
H3810 H 0.09561 0.61116 0.5403 0.0
H3811 H 0.09084 0.61075 0.57993 0.0
H3812 H 0.13586 0.57512 0.62035 0.0
H3813 H 0.15588 0.56331 0.58784 0.0
C3814 C 0.14737 0.57535 0.54656 0.0
C3815 C 0.14131 0.58334 0.52593 0.0
C3816 C 0.13515 0.58066 0.56511 0.0
C3817 C 0.12233 0.5959 0.52388 0.0
C3818 C 0.10996 0.60107 0.54224 0.0
C3819 C 0.10501 0.60033 0.58156 0.0
C3820 C 0.11212 0.59399 0.60238 0.0
C3821 C 0.11647 0.59389 0.56293 0.0
C3822 C 0.13017 0.58016 0.6044 0.0
C3823 C 0.14164 0.57353 0.58587 0.0
H3824 H 0.98525 0.93042 0.37349 0.0
H3825 H 0.95853 0.90629 0.31306 0.0
H3826 H 0.92267 0.90386 0.32964 0.0
H3827 H 0.89926 0.90579 0.36195 0.0
H3828 H 0.92513 0.92943 0.42262 0.0
H3829 H 0.96069 0.93536 0.40534 0.0
C3830 C 0.97154 0.92474 0.36395 0.0
C3831 C 0.97469 0.91842 0.34206 0.0
C3832 C 0.95071 0.92354 0.37358 0.0
C3833 C 0.95668 0.91126 0.32991 0.0
C3834 C 0.93609 0.90987 0.33937 0.0
C3835 C 0.91253 0.91297 0.37112 0.0
C3836 C 0.90955 0.91767 0.39333 0.0
C3837 C 0.93294 0.91574 0.36121 0.0
C3838 C 0.92695 0.9263 0.40533 0.0
C3839 C 0.94735 0.92934 0.39552 0.0
H3840 H 0.56926 0.969 0.34843 0.0
H3841 H 0.61716 0.00586 0.38427 0.0
H3842 H 0.62351 0.97469 0.40817 0.0
H3843 H 0.61733 0.93641 0.4171 0.0
H3844 H 0.57178 0.89866 0.37925 0.0
H3845 H 0.5619 0.93112 0.35845 0.0
C3846 C 0.58097 0.9703 0.36158 0.0
C3847 C 0.59283 0.98966 0.36452 0.0
C3848 C 0.58477 0.95226 0.37499 0.0
C3849 C 0.60789 0.99111 0.38164 0.0
C3850 C 0.61151 0.97332 0.39531 0.0
C3851 C 0.60515 0.93532 0.40435 0.0
C3852 C 0.59547 0.91514 0.39955 0.0
C3853 C 0.60031 0.95374 0.39187 0.0
C3854 C 0.57935 0.91403 0.38338 0.0
C3855 C 0.57391 0.93252 0.3713 0.0
H3856 H 0.51899 0.58137 0.38051 0.0
H3857 H 0.55294 0.59219 0.31976 0.0
H3858 H 0.58683 0.59783 0.3396 0.0
H3859 H 0.60629 0.60189 0.37421 0.0
H3860 H 0.57247 0.59263 0.43499 0.0
H3861 H 0.53892 0.58372 0.41515 0.0
C3862 C 0.53382 0.58484 0.37159 0.0
C3863 C 0.53344 0.58648 0.34869 0.0
C3864 C 0.5532 0.58818 0.3831 0.0
C3865 C 0.5528 0.59087 0.33738 0.0
C3866 C 0.57218 0.5941 0.34869 0.0
C3867 C 0.5916 0.59749 0.38298 0.0
C3868 C 0.59157 0.59758 0.40582 0.0
C3869 C 0.57249 0.59303 0.37152 0.0
C3870 C 0.57262 0.59235 0.41733 0.0
C3871 C 0.55353 0.58744 0.406 0.0
H3872 H 0.8947 0.6014 0.36789 0.0
H3873 H 0.93323 0.58066 0.42268 0.0
H3874 H 0.94178 0.54631 0.40388 0.0
H3875 H 0.93546 0.52099 0.37272 0.0
H3876 H 0.89636 0.54321 0.31853 0.0
H3877 H 0.89079 0.57796 0.33628 0.0
C3878 C 0.90514 0.58941 0.37561 0.0
C3879 C 0.91317 0.59334 0.39663 0.0
C3880 C 0.90967 0.56983 0.3649 0.0
C3881 C 0.92692 0.57791 0.40643 0.0
C3882 C 0.93164 0.55825 0.39575 0.0
C3883 C 0.92591 0.53353 0.36476 0.0
C3884 C 0.91619 0.5293 0.34439 0.0
C3885 C 0.92268 0.5538 0.37513 0.0
C3886 C 0.90395 0.54581 0.33424 0.0
C3887 C 0.90072 0.5658 0.34437 0.0
H3888 H 0.92918 0.60408 0.09714 0.0
H3889 H 0.888 0.57735 0.14731 0.0
H3890 H 0.91984 0.57144 0.17064 0.0
H3891 H 0.95854 0.57837 0.17835 0.0
H3892 H 0.99943 0.6061 0.12833 0.0
H3893 H 0.96847 0.60745 0.10338 0.0
C3894 C 0.9273 0.59645 0.11299 0.0
C3895 C 0.90633 0.59123 0.12062 0.0
C3896 C 0.94551 0.59386 0.12649 0.0
C3897 C 0.90401 0.58131 0.14108 0.0
C3898 C 0.92216 0.57825 0.15451 0.0
C3899 C 0.96069 0.58463 0.16196 0.0
C3900 C 0.98118 0.59247 0.1553 0.0
C3901 C 0.94284 0.58526 0.14769 0.0
C3902 C 0.98382 0.60013 0.13389 0.0
C3903 C 0.96613 0.60087 0.11961 0.0
H3904 H 0.93681 0.90511 0.13214 0.0
H3905 H 0.88982 0.93693 0.0908 0.0
H3906 H 0.89693 0.97166 0.10875 0.0
H3907 H 0.91464 0.99258 0.13788 0.0
H3908 H 0.96047 0.9606 0.1804 0.0
H3909 H 0.95601 0.92662 0.16016 0.0
C3910 C 0.9285 0.91976 0.12679 0.0
C3911 C 0.9128 0.91843 0.11021 0.0
C3912 C 0.93243 0.9397 0.13745 0.0
C3913 C 0.9019 0.9375 0.10365 0.0
C3914 C 0.90595 0.95738 0.11389 0.0
C3915 C 0.92396 0.97829 0.14245 0.0
C3916 C 0.93795 0.97917 0.16056 0.0
C3917 C 0.92091 0.95863 0.13106 0.0
C3918 C 0.94959 0.96037 0.16651 0.0
C3919 C 0.94703 0.9409 0.15497 0.0
H3920 H 0.51438 0.93 0.13756 0.0
H3921 H 0.55031 0.92759 0.19796 0.0
H3922 H 0.58431 0.9242 0.17793 0.0
H3923 H 0.60371 0.91856 0.14348 0.0
H3924 H 0.56825 0.91849 0.08304 0.0
H3925 H 0.53435 0.92662 0.10263 0.0
C3926 C 0.52969 0.92917 0.14627 0.0
C3927 C 0.52977 0.92902 0.16921 0.0
C3928 C 0.54932 0.92679 0.13461 0.0
C3929 C 0.54975 0.92764 0.1803 0.0
C3930 C 0.56925 0.9257 0.16887 0.0
C3931 C 0.58861 0.92097 0.13464 0.0
C3932 C 0.58835 0.91843 0.11194 0.0
C3933 C 0.56921 0.92484 0.14607 0.0
C3934 C 0.56871 0.92083 0.10054 0.0
C3935 C 0.54937 0.92527 0.11175 0.0
H3936 H 0.60438 0.57161 0.09702 0.0
H3937 H 0.56974 0.61689 0.13801 0.0
H3938 H 0.55826 0.58697 0.16182 0.0
H3939 H 0.56137 0.5485 0.1729 0.0
H3940 H 0.59567 0.50318 0.13146 0.0
H3941 H 0.60384 0.53247 0.10578 0.0
C3942 C 0.59395 0.57479 0.11095 0.0
C3943 C 0.58792 0.59634 0.11586 0.0
C3944 C 0.58755 0.55754 0.12455 0.0
C3945 C 0.5744 0.60038 0.13386 0.0
C3946 C 0.56801 0.58331 0.14755 0.0
C3947 C 0.57036 0.54497 0.15808 0.0
C3948 C 0.57806 0.52371 0.1542 0.0
C3949 C 0.57498 0.56191 0.14336 0.0
C3950 C 0.58952 0.51937 0.13484 0.0
C3951 C 0.5943 0.53614 0.12019 0.0
H3952 H 0.4129 0.9368 0.90807 0.0
H3953 H 0.36428 0.89167 0.93083 0.0
H3954 H 0.34087 0.92206 0.94177 0.0
H3955 H 0.33326 0.96145 0.94231 0.0
H3956 H 0.38226 0.00644 0.91981 0.0
H3957 H 0.40652 0.97613 0.91134 0.0
C3958 C 0.39725 0.93368 0.91562 0.0
C3959 C 0.39023 0.91211 0.91858 0.0
C3960 C 0.38394 0.95118 0.9218 0.0
C3961 C 0.37005 0.90817 0.92855 0.0
C3962 C 0.35663 0.92553 0.93466 0.0
C3963 C 0.34937 0.96462 0.93583 0.0
C3964 C 0.35594 0.98616 0.93169 0.0
C3965 C 0.36326 0.94709 0.93101 0.0
C3966 C 0.37686 0.99003 0.92333 0.0
C3967 C 0.39071 0.9727 0.91835 0.0
H3968 H 0.41209 0.57622 0.61012 0.0
H3969 H 0.37672 0.61868 0.56672 0.0
H3970 H 0.35568 0.58769 0.55331 0.0
H3971 H 0.34479 0.54927 0.55668 0.0
H3972 H 0.37984 0.5069 0.60045 0.0
H3973 H 0.40343 0.53709 0.61107 0.0
C3974 C 0.39987 0.57865 0.59761 0.0
C3975 C 0.39581 0.5998 0.5896 0.0
C3976 C 0.38765 0.5608 0.5902 0.0
C3977 C 0.38024 0.60261 0.57309 0.0
C3978 C 0.36808 0.58491 0.56555 0.0
C3979 C 0.35781 0.54657 0.5683 0.0
C3980 C 0.3605 0.52587 0.57779 0.0
C3981 C 0.37127 0.56405 0.57439 0.0
C3982 C 0.3775 0.5226 0.59276 0.0
C3983 C 0.39092 0.53992 0.59894 0.0
H3984 H 0.90603 0.36712 0.61562 0.0
H3985 H 0.92622 0.41995 0.5742 0.0
H3986 H 0.96012 0.40047 0.56555 0.0
H3987 H 0.98553 0.36961 0.57291 0.0
H3988 H 0.96397 0.31749 0.61507 0.0
H3989 H 0.92938 0.33553 0.62036 0.0
C3990 C 0.91772 0.37419 0.6044 0.0
C3991 C 0.91377 0.3949 0.59562 0.0
C3992 C 0.93715 0.36314 0.59992 0.0
C3993 C 0.92891 0.40391 0.58103 0.0
C3994 C 0.94836 0.39287 0.57629 0.0
C3995 C 0.97316 0.36215 0.58305 0.0
C3996 C 0.97756 0.34228 0.5937 0.0
C3997 C 0.95294 0.37268 0.58612 0.0
C3998 C 0.96125 0.3328 0.60673 0.0
C3999 C 0.94134 0.34308 0.6098 0.0
H4000 H 0.09051 0.92264 0.59509 0.0
H4001 H 0.14777 0.88263 0.60052 0.0
H4002 H 0.1709 0.91431 0.59314 0.0
H4003 H 0.17459 0.95376 0.58856 0.0
H4004 H 0.11719 0.99411 0.58449 0.0
H4005 H 0.09417 0.96185 0.58773 0.0
C4006 C 0.10804 0.92089 0.59399 0.0
C4007 C 0.11761 0.90052 0.59791 0.0
C4008 C 0.12109 0.9392 0.59032 0.0
C4009 C 0.14025 0.89821 0.59704 0.0
C4010 C 0.15338 0.91631 0.59309 0.0
C4011 C 0.15704 0.95551 0.58818 0.0
C4012 C 0.14759 0.97631 0.58648 0.0
C4013 C 0.14397 0.93696 0.59025 0.0
C4014 C 0.12485 0.97829 0.586 0.0
C4015 C 0.11169 0.95987 0.58779 0.0
H4016 H 0.5977 0.1426 0.62503 0.0
H4017 H 0.58724 0.10161 0.569 0.0
H4018 H 0.55307 0.12084 0.56118 0.0
H4019 H 0.52455 0.14734 0.57253 0.0
H4020 H 0.53576 0.18717 0.62946 0.0
H4021 H 0.57092 0.17 0.63496 0.0
C4022 C 0.58802 0.138 0.61097 0.0
C4023 C 0.59481 0.12059 0.59774 0.0
C4024 C 0.5683 0.14865 0.607 0.0
C4025 C 0.58236 0.11503 0.57937 0.0
C4026 C 0.56272 0.12585 0.57507 0.0
C4027 C 0.53477 0.15225 0.58606 0.0
C4028 C 0.52749 0.16846 0.60059 0.0
C4029 C 0.55522 0.14232 0.58914 0.0
C4030 C 0.54097 0.17482 0.61796 0.0
C4031 C 0.56111 0.16501 0.62116 0.0
H4032 H 0.14293 0.60311 0.90747 0.0
H4033 H 0.08342 0.57346 0.92924 0.0
H4034 H 0.10256 0.53885 0.93542 0.0
H4035 H 0.136 0.5164 0.93183 0.0
H4036 H 0.19524 0.547 0.90968 0.0
H4037 H 0.17653 0.5817 0.90641 0.0
C4038 C 0.13437 0.58919 0.91416 0.0
C4039 C 0.11201 0.59078 0.91835 0.0
C4040 C 0.14538 0.5694 0.91723 0.0
C4041 C 0.1008 0.57261 0.92645 0.0
C4042 C 0.11169 0.55281 0.92969 0.0
C4043 C 0.14482 0.5307 0.92644 0.0
C4044 C 0.16702 0.52897 0.92093 0.0
C4045 C 0.13393 0.55087 0.92469 0.0
C4046 C 0.17819 0.54773 0.91404 0.0
C4047 C 0.16751 0.56768 0.91215 0.0
H4048 H 0.96364 0.1745 0.93628 0.0
H4049 H 1.00297 0.13139 0.89706 0.0
H4050 H 0.97193 0.10693 0.89246 0.0
H4051 H 0.9331 0.09918 0.89758 0.0
H4052 H 0.89356 0.14233 0.93648 0.0
H4053 H 0.92544 0.16505 0.94394 0.0
C4054 C 0.96541 0.15972 0.92677 0.0
C4055 C 0.98546 0.15487 0.91678 0.0
C4056 C 0.94755 0.14567 0.92436 0.0
C4057 C 0.98768 0.13548 0.90485 0.0
C4058 C 0.96995 0.12151 0.90222 0.0
C4059 C 0.93152 0.11348 0.90786 0.0
C4060 C 0.91096 0.11929 0.91622 0.0
C4061 C 0.94975 0.12663 0.91164 0.0
C4062 C 0.9092 0.13754 0.92988 0.0
C4063 C 0.92737 0.15063 0.93394 0.0
H4064 H 0.59842 0.36596 0.89979 0.0
H4065 H 0.57369 0.42196 0.93391 0.0
H4066 H 0.53917 0.40282 0.94076 0.0
H4067 H 0.51527 0.37061 0.93454 0.0
H4068 H 0.54137 0.31525 0.89976 0.0
H4069 H 0.57591 0.33373 0.89541 0.0
C4070 C 0.58559 0.37374 0.90915 0.0
C4071 C 0.5885 0.39512 0.91658 0.0
C4072 C 0.5659 0.36288 0.91252 0.0
C4073 C 0.57181 0.40531 0.9284 0.0
C4074 C 0.55205 0.39447 0.93205 0.0
C4075 C 0.52857 0.36263 0.9261 0.0
C4076 C 0.52566 0.34156 0.91749 0.0
C4077 C 0.54874 0.37335 0.92378 0.0
C4078 C 0.5431 0.33139 0.90666 0.0
C4079 C 0.56294 0.34193 0.90414 0.0
loop_
_geom_bond_atom_site_label_1
_geom_bond_atom_site_label_2
_geom_bond_distance
_geom_bond_site_symmetry_2
_ccdc_geom_bond_type
O0 Tb1 2.292 . S
O0 C3 1.255 . S
Tb1 O0 2.292 . S
Tb1 O17 2.326 . S
Tb1 O19 2.500 . S
Tb1 O20 2.473 . S
Tb1 O23 2.324 . S
Eu2 O6 2.292 1_455 S
Eu2 C7 2.852 . S
Eu2 O18 2.324 . S
Eu2 O22 2.326 . S
Eu2 O24 2.500 . S
Eu2 O25 2.473 . S
C3 O0 1.255 . S
C3 O4 1.247 . S
O4 C3 1.247 . S
C5 O17 1.242 . S
C5 O18 1.258 . S
O6 Eu2 2.292 1_655 S
O6 C8 1.255 . S
C7 Eu2 2.852 . S
C7 C11 1.503 . S
C7 O24 1.273 . S
C7 O25 1.257 . S
C8 O6 1.255 . S
C8 O9 1.247 . S
O9 C8 1.247 . S
C10 O22 1.242 . S
C10 O23 1.258 . S
C11 C7 1.503 . S
C11 C12 1.379 . S
C11 C16 1.392 . S
C12 C11 1.379 . S
C12 C13 1.404 . S
C12 H26 0.929 . S
C13 C12 1.404 . S
C13 C14 1.389 . S
C14 C13 1.389 . S
C14 C15 1.399 . S
C14 H27 0.931 . S
C15 C14 1.399 . S
C15 C16 1.390 . S
C16 C11 1.392 . S
C16 C15 1.390 . S
C16 H28 0.929 . S
O17 Tb1 2.326 . S
O17 C5 1.242 . S
O18 Eu2 2.324 . S
O18 C5 1.258 . S
O19 Tb1 2.500 . S
O19 C21 1.273 . S
O20 Tb1 2.473 . S
O20 C21 1.257 . S
C21 O19 1.273 . S
C21 O20 1.257 . S
O22 Eu2 2.326 . S
O22 C10 1.242 . S
O23 Tb1 2.324 . S
O23 C10 1.258 . S
O24 Eu2 2.500 . S
O24 C7 1.273 . S
O25 Eu2 2.473 . S
O25 C7 1.257 . S
H26 C12 0.929 . S
H27 C14 0.931 . S
H28 C16 0.929 . S
O29 Tb30 2.292 . S
O29 C32 1.255 . S
Tb30 O29 2.292 . S
Tb30 O46 2.326 . S
Tb30 O48 2.500 . S
Tb30 O49 2.473 . S
Tb30 O52 2.324 . S
Eu31 O35 2.292 1_545 S
Eu31 C36 2.852 . S
Eu31 O47 2.324 . S
Eu31 O51 2.326 . S
Eu31 O53 2.500 . S
Eu31 O54 2.473 . S
C32 O29 1.255 . S
C32 O33 1.247 . S
O33 C32 1.247 . S
C34 O46 1.242 . S
C34 O47 1.258 . S
O35 Eu31 2.292 1_565 S
O35 C37 1.255 . S
C36 Eu31 2.852 . S
C36 C40 1.503 . S
C36 O53 1.273 . S
C36 O54 1.257 . S
C37 O35 1.255 . S
C37 O38 1.247 . S
O38 C37 1.247 . S
C39 O51 1.242 . S
C39 O52 1.258 . S
C40 C36 1.503 . S
C40 C41 1.379 . S
C40 C45 1.392 . S
C41 C40 1.379 . S
C41 C42 1.404 . S
C41 H55 0.929 . S
C42 C41 1.404 . S
C42 C43 1.389 . S
C43 C42 1.389 . S
C43 C44 1.399 . S
C43 H56 0.931 . S
C44 C43 1.399 . S
C44 C45 1.390 . S
C45 C40 1.392 . S
C45 C44 1.390 . S
C45 H57 0.929 . S
O46 Tb30 2.326 . S
O46 C34 1.242 . S
O47 Eu31 2.324 . S
O47 C34 1.258 . S
O48 Tb30 2.500 . S
O48 C50 1.273 . S
O49 Tb30 2.473 . S
O49 C50 1.257 . S
C50 O48 1.273 . S
C50 O49 1.257 . S
O51 Eu31 2.326 . S
O51 C39 1.242 . S
O52 Tb30 2.324 . S
O52 C39 1.258 . S
O53 Eu31 2.500 . S
O53 C36 1.273 . S
O54 Eu31 2.473 . S
O54 C36 1.257 . S
H55 C41 0.929 . S
H56 C43 0.931 . S
H57 C45 0.929 . S
O58 Tb59 2.292 . S
O58 C61 1.255 . S
Tb59 O58 2.292 . S
Tb59 O75 2.326 . S
Tb59 O77 2.500 . S
Tb59 O78 2.473 . S
Tb59 O81 2.324 . S
Eu60 O64 2.292 . S
Eu60 C65 2.852 . S
Eu60 O76 2.324 . S
Eu60 O80 2.326 . S
Eu60 O82 2.500 . S
Eu60 O83 2.473 . S
C61 O58 1.255 . S
C61 O62 1.247 . S
O62 C61 1.247 . S
C63 O75 1.242 . S
C63 O76 1.258 . S
O64 Eu60 2.292 . S
O64 C66 1.255 . S
C65 Eu60 2.852 . S
C65 C69 1.503 . S
C65 O82 1.273 . S
C65 O83 1.257 . S
C66 O64 1.255 . S
C66 O67 1.247 . S
O67 C66 1.247 . S
C68 O80 1.242 . S
C68 O81 1.258 . S
C69 C65 1.503 . S
C69 C70 1.379 . S
C69 C74 1.392 . S
C70 C69 1.379 . S
C70 C71 1.404 . S
C70 H84 0.929 . S
C71 C70 1.404 . S
C71 C72 1.389 . S
C72 C71 1.389 . S
C72 C73 1.399 . S
C72 H85 0.931 . S
C73 C72 1.399 . S
C73 C74 1.390 . S
C74 C69 1.392 . S
C74 C73 1.390 . S
C74 H86 0.929 . S
O75 Tb59 2.326 . S
O75 C63 1.242 . S
O76 Eu60 2.324 . S
O76 C63 1.258 . S
O77 Tb59 2.500 . S
O77 C79 1.273 . S
O78 Tb59 2.473 . S
O78 C79 1.257 . S
C79 O77 1.273 . S
C79 O78 1.257 . S
O80 Eu60 2.326 . S
O80 C68 1.242 . S
O81 Tb59 2.324 . S
O81 C68 1.258 . S
O82 Eu60 2.500 . S
O82 C65 1.273 . S
O83 Eu60 2.473 . S
O83 C65 1.257 . S
H84 C70 0.929 . S
H85 C72 0.931 . S
H86 C74 0.929 . S
O87 Tb88 2.292 . S
O87 C90 1.255 . S
Tb88 O87 2.292 . S
Tb88 O104 2.326 . S
Tb88 O106 2.500 . S
Tb88 O107 2.473 . S
Tb88 O110 2.324 . S
Eu89 O93 2.292 . S
Eu89 C94 2.852 . S
Eu89 O105 2.324 . S
Eu89 O109 2.326 . S
Eu89 O111 2.500 . S
Eu89 O112 2.473 . S
C90 O87 1.255 . S
C90 O91 1.247 . S
O91 C90 1.247 . S
C92 O104 1.242 . S
C92 O105 1.258 . S
O93 Eu89 2.292 . S
O93 C95 1.255 . S
C94 Eu89 2.852 . S
C94 C98 1.503 . S
C94 O111 1.273 . S
C94 O112 1.257 . S
C95 O93 1.255 . S
C95 O96 1.247 . S
O96 C95 1.247 . S
C97 O109 1.242 . S
C97 O110 1.258 . S
C98 C94 1.503 . S
C98 C99 1.379 . S
C98 C103 1.392 . S
C99 C98 1.379 . S
C99 C100 1.404 . S
C99 H113 0.929 . S
C100 C99 1.404 . S
C100 C101 1.389 . S
C101 C100 1.389 . S
C101 C102 1.399 . S
C101 H114 0.931 . S
C102 C101 1.399 . S
C102 C103 1.390 . S
C103 C98 1.392 . S
C103 C102 1.390 . S
C103 H115 0.929 . S
O104 Tb88 2.326 . S
O104 C92 1.242 . S
O105 Eu89 2.324 . S
O105 C92 1.258 . S
O106 Tb88 2.500 . S
O106 C108 1.273 . S
O107 Tb88 2.473 . S
O107 C108 1.257 . S
C108 O106 1.273 . S
C108 O107 1.257 . S
O109 Eu89 2.326 . S
O109 C97 1.242 . S
O110 Tb88 2.324 . S
O110 C97 1.258 . S
O111 Eu89 2.500 . S
O111 C94 1.273 . S
O112 Eu89 2.473 . S
O112 C94 1.257 . S
H113 C99 0.929 . S
H114 C101 0.931 . S
H115 C103 0.929 . S
O116 Tb117 2.292 . S
O116 C119 1.255 . S
Tb117 O116 2.292 . S
Tb117 O133 2.326 . S
Tb117 O135 2.500 . S
Tb117 O136 2.473 . S
Tb117 O139 2.324 . S
Eu118 O122 2.292 1_455 S
Eu118 C123 2.852 . S
Eu118 O134 2.324 . S
Eu118 O138 2.326 . S
Eu118 O140 2.500 . S
Eu118 O141 2.473 . S
C119 O116 1.255 . S
C119 O120 1.247 . S
O120 C119 1.247 . S
C121 O133 1.242 . S
C121 O134 1.258 . S
O122 Eu118 2.292 1_655 S
O122 C124 1.255 . S
C123 Eu118 2.852 . S
C123 C127 1.503 . S
C123 O140 1.273 . S
C123 O141 1.257 . S
C124 O122 1.255 . S
C124 O125 1.247 . S
O125 C124 1.247 . S
C126 O138 1.242 . S
C126 O139 1.258 . S
C127 C123 1.503 . S
C127 C128 1.379 . S
C127 C132 1.392 . S
C128 C127 1.379 . S
C128 C129 1.404 . S
C128 H142 0.929 . S
C129 C128 1.404 . S
C129 C130 1.389 . S
C130 C129 1.389 . S
C130 C131 1.399 . S
C130 H143 0.931 . S
C131 C130 1.399 . S
C131 C132 1.390 . S
C132 C127 1.392 . S
C132 C131 1.390 . S
C132 H144 0.929 . S
O133 Tb117 2.326 . S
O133 C121 1.242 . S
O134 Eu118 2.324 . S
O134 C121 1.258 . S
O135 Tb117 2.500 . S
O135 C137 1.273 . S
O136 Tb117 2.473 . S
O136 C137 1.257 . S
C137 O135 1.273 . S
C137 O136 1.257 . S
O138 Eu118 2.326 . S
O138 C126 1.242 . S
O139 Tb117 2.324 . S
O139 C126 1.258 . S
O140 Eu118 2.500 . S
O140 C123 1.273 . S
O141 Eu118 2.473 . S
O141 C123 1.257 . S
H142 C128 0.929 . S
H143 C130 0.931 . S
H144 C132 0.929 . S
O145 Tb146 2.292 . S
O145 C148 1.255 . S
Tb146 O145 2.292 . S
Tb146 O162 2.326 . S
Tb146 O164 2.500 . S
Tb146 O165 2.473 . S
Tb146 O168 2.324 . S
Eu147 O151 2.292 1_545 S
Eu147 C152 2.852 . S
Eu147 O163 2.324 . S
Eu147 O167 2.326 . S
Eu147 O169 2.500 . S
Eu147 O170 2.473 . S
C148 O145 1.255 . S
C148 O149 1.247 . S
O149 C148 1.247 . S
C150 O162 1.242 . S
C150 O163 1.258 . S
O151 Eu147 2.292 1_565 S
O151 C153 1.255 . S
C152 Eu147 2.852 . S
C152 C156 1.503 . S
C152 O169 1.273 . S
C152 O170 1.257 . S
C153 O151 1.255 . S
C153 O154 1.247 . S
O154 C153 1.247 . S
C155 O167 1.242 . S
C155 O168 1.258 . S
C156 C152 1.503 . S
C156 C157 1.379 . S
C156 C161 1.392 . S
C157 C156 1.379 . S
C157 C158 1.404 . S
C157 H171 0.929 . S
C158 C157 1.404 . S
C158 C159 1.389 . S
C159 C158 1.389 . S
C159 C160 1.399 . S
C159 H172 0.931 . S
C160 C159 1.399 . S
C160 C161 1.390 . S
C161 C156 1.392 . S
C161 C160 1.390 . S
C161 H173 0.929 . S
O162 Tb146 2.326 . S
O162 C150 1.242 . S
O163 Eu147 2.324 . S
O163 C150 1.258 . S
O164 Tb146 2.500 . S
O164 C166 1.273 . S
O165 Tb146 2.473 . S
O165 C166 1.257 . S
C166 O164 1.273 . S
C166 O165 1.257 . S
O167 Eu147 2.326 . S
O167 C155 1.242 . S
O168 Tb146 2.324 . S
O168 C155 1.258 . S
O169 Eu147 2.500 . S
O169 C152 1.273 . S
O170 Eu147 2.473 . S
O170 C152 1.257 . S
H171 C157 0.929 . S
H172 C159 0.931 . S
H173 C161 0.929 . S
O174 Tb175 2.292 . S
O174 C177 1.255 . S
Tb175 O174 2.292 . S
Tb175 O191 2.326 . S
Tb175 O193 2.500 . S
Tb175 O194 2.473 . S
Tb175 O197 2.324 . S
Eu176 O180 2.292 . S
Eu176 C181 2.852 . S
Eu176 O192 2.324 . S
Eu176 O196 2.326 . S
Eu176 O198 2.500 . S
Eu176 O199 2.473 . S
C177 O174 1.255 . S
C177 O178 1.247 . S
O178 C177 1.247 . S
C179 O191 1.242 . S
C179 O192 1.258 . S
O180 Eu176 2.292 . S
O180 C182 1.255 . S
C181 Eu176 2.852 . S
C181 C185 1.503 . S
C181 O198 1.273 . S
C181 O199 1.257 . S
C182 O180 1.255 . S
C182 O183 1.247 . S
O183 C182 1.247 . S
C184 O196 1.242 . S
C184 O197 1.258 . S
C185 C181 1.503 . S
C185 C186 1.379 . S
C185 C190 1.392 . S
C186 C185 1.379 . S
C186 C187 1.404 . S
C186 H200 0.929 . S
C187 C186 1.404 . S
C187 C188 1.389 . S
C188 C187 1.389 . S
C188 C189 1.399 . S
C188 H201 0.931 . S
C189 C188 1.399 . S
C189 C190 1.390 . S
C190 C185 1.392 . S
C190 C189 1.390 . S
C190 H202 0.929 . S
O191 Tb175 2.326 . S
O191 C179 1.242 . S
O192 Eu176 2.324 . S
O192 C179 1.258 . S
O193 Tb175 2.500 . S
O193 C195 1.273 . S
O194 Tb175 2.473 . S
O194 C195 1.257 . S
C195 O193 1.273 . S
C195 O194 1.257 . S
O196 Eu176 2.326 . S
O196 C184 1.242 . S
O197 Tb175 2.324 . S
O197 C184 1.258 . S
O198 Eu176 2.500 . S
O198 C181 1.273 . S
O199 Eu176 2.473 . S
O199 C181 1.257 . S
H200 C186 0.929 . S
H201 C188 0.931 . S
H202 C190 0.929 . S
O203 Tb204 2.292 . S
O203 C206 1.255 . S
Tb204 O203 2.292 . S
Tb204 O220 2.326 . S
Tb204 O222 2.500 . S
Tb204 O223 2.473 . S
Tb204 O226 2.324 . S
Eu205 O209 2.292 . S
Eu205 C210 2.852 . S
Eu205 O221 2.324 . S
Eu205 O225 2.326 . S
Eu205 O227 2.500 . S
Eu205 O228 2.473 . S
C206 O203 1.255 . S
C206 O207 1.247 . S
O207 C206 1.247 . S
C208 O220 1.242 . S
C208 O221 1.258 . S
O209 Eu205 2.292 . S
O209 C211 1.255 . S
C210 Eu205 2.852 . S
C210 C214 1.503 . S
C210 O227 1.273 . S
C210 O228 1.257 . S
C211 O209 1.255 . S
C211 O212 1.247 . S
O212 C211 1.247 . S
C213 O225 1.242 . S
C213 O226 1.258 . S
C214 C210 1.503 . S
C214 C215 1.379 . S
C214 C219 1.392 . S
C215 C214 1.379 . S
C215 C216 1.404 . S
C215 H229 0.929 . S
C216 C215 1.404 . S
C216 C217 1.389 . S
C217 C216 1.389 . S
C217 C218 1.399 . S
C217 H230 0.931 . S
C218 C217 1.399 . S
C218 C219 1.390 . S
C219 C214 1.392 . S
C219 C218 1.390 . S
C219 H231 0.929 . S
O220 Tb204 2.326 . S
O220 C208 1.242 . S
O221 Eu205 2.324 . S
O221 C208 1.258 . S
O222 Tb204 2.500 . S
O222 C224 1.273 . S
O223 Tb204 2.473 . S
O223 C224 1.257 . S
C224 O222 1.273 . S
C224 O223 1.257 . S
O225 Eu205 2.326 . S
O225 C213 1.242 . S
O226 Tb204 2.324 . S
O226 C213 1.258 . S
O227 Eu205 2.500 . S
O227 C210 1.273 . S
O228 Eu205 2.473 . S
O228 C210 1.257 . S
H229 C215 0.929 . S
H230 C217 0.931 . S
H231 C219 0.929 . S
O232 Tb233 2.292 . S
O232 C235 1.255 . S
Tb233 O232 2.292 . S
Tb233 O249 2.326 . S
Tb233 O251 2.500 . S
Tb233 O252 2.473 . S
Tb233 O255 2.324 . S
Eu234 O238 2.292 1_545 S
Eu234 C239 2.852 . S
Eu234 O250 2.324 . S
Eu234 O254 2.326 . S
Eu234 O256 2.500 . S
Eu234 O257 2.473 . S
C235 O232 1.255 . S
C235 O236 1.247 . S
O236 C235 1.247 . S
C237 O249 1.242 . S
C237 O250 1.258 . S
O238 Eu234 2.292 1_565 S
O238 C240 1.255 . S
C239 Eu234 2.852 . S
C239 C243 1.503 . S
C239 O256 1.273 . S
C239 O257 1.257 . S
C240 O238 1.255 . S
C240 O241 1.247 . S
O241 C240 1.247 . S
C242 O254 1.242 . S
C242 O255 1.258 . S
C243 C239 1.503 . S
C243 C244 1.379 . S
C243 C248 1.392 . S
C244 C243 1.379 . S
C244 C245 1.404 . S
C244 H258 0.929 . S
C245 C244 1.404 . S
C245 C246 1.389 . S
C246 C245 1.389 . S
C246 C247 1.399 . S
C246 H259 0.931 . S
C247 C246 1.399 . S
C247 C248 1.390 . S
C248 C243 1.392 . S
C248 C247 1.390 . S
C248 H260 0.929 . S
O249 Tb233 2.326 . S
O249 C237 1.242 . S
O250 Eu234 2.324 . S
O250 C237 1.258 . S
O251 Tb233 2.500 . S
O251 C253 1.273 . S
O252 Tb233 2.473 . S
O252 C253 1.257 . S
C253 O251 1.273 . S
C253 O252 1.257 . S
O254 Eu234 2.326 . S
O254 C242 1.242 . S
O255 Tb233 2.324 . S
O255 C242 1.258 . S
O256 Eu234 2.500 . S
O256 C239 1.273 . S
O257 Eu234 2.473 . S
O257 C239 1.257 . S
H258 C244 0.929 . S
H259 C246 0.931 . S
H260 C248 0.929 . S
O261 Tb262 2.292 . S
O261 C264 1.255 . S
Tb262 O261 2.292 . S
Tb262 O278 2.326 . S
Tb262 O280 2.500 . S
Tb262 O281 2.473 . S
Tb262 O284 2.324 . S
Eu263 O267 2.292 . S
Eu263 C268 2.852 . S
Eu263 O279 2.324 . S
Eu263 O283 2.326 . S
Eu263 O285 2.500 . S
Eu263 O286 2.473 . S
C264 O261 1.255 . S
C264 O265 1.247 . S
O265 C264 1.247 . S
C266 O278 1.242 . S
C266 O279 1.258 . S
O267 Eu263 2.292 . S
O267 C269 1.255 . S
C268 Eu263 2.852 . S
C268 C272 1.503 . S
C268 O285 1.273 . S
C268 O286 1.257 . S
C269 O267 1.255 . S
C269 O270 1.247 . S
O270 C269 1.247 . S
C271 O283 1.242 . S
C271 O284 1.258 . S
C272 C268 1.503 . S
C272 C273 1.379 . S
C272 C277 1.392 . S
C273 C272 1.379 . S
C273 C274 1.404 . S
C273 H287 0.929 . S
C274 C273 1.404 . S
C274 C275 1.389 . S
C275 C274 1.389 . S
C275 C276 1.399 . S
C275 H288 0.931 . S
C276 C275 1.399 . S
C276 C277 1.390 . S
C277 C272 1.392 . S
C277 C276 1.390 . S
C277 H289 0.929 . S
O278 Tb262 2.326 . S
O278 C266 1.242 . S
O279 Eu263 2.324 . S
O279 C266 1.258 . S
O280 Tb262 2.500 . S
O280 C282 1.273 . S
O281 Tb262 2.473 . S
O281 C282 1.257 . S
C282 O280 1.273 . S
C282 O281 1.257 . S
O283 Eu263 2.326 . S
O283 C271 1.242 . S
O284 Tb262 2.324 . S
O284 C271 1.258 . S
O285 Eu263 2.500 . S
O285 C268 1.273 . S
O286 Eu263 2.473 . S
O286 C268 1.257 . S
H287 C273 0.929 . S
H288 C275 0.931 . S
H289 C277 0.929 . S
O290 Tb291 2.292 . S
O290 C293 1.255 . S
Tb291 O290 2.292 . S
Tb291 O307 2.326 . S
Tb291 O309 2.500 . S
Tb291 O310 2.473 . S
Tb291 O313 2.324 . S
Eu292 O296 2.292 . S
Eu292 C297 2.852 . S
Eu292 O308 2.324 . S
Eu292 O312 2.326 . S
Eu292 O314 2.500 . S
Eu292 O315 2.473 . S
C293 O290 1.255 . S
C293 O294 1.247 . S
O294 C293 1.247 . S
C295 O307 1.242 . S
C295 O308 1.258 . S
O296 Eu292 2.292 . S
O296 C298 1.255 . S
C297 Eu292 2.852 . S
C297 C301 1.503 . S
C297 O314 1.273 . S
C297 O315 1.257 . S
C298 O296 1.255 . S
C298 O299 1.247 . S
O299 C298 1.247 . S
C300 O312 1.242 . S
C300 O313 1.258 . S
C301 C297 1.503 . S
C301 C302 1.379 . S
C301 C306 1.392 . S
C302 C301 1.379 . S
C302 C303 1.404 . S
C302 H316 0.929 . S
C303 C302 1.404 . S
C303 C304 1.389 . S
C304 C303 1.389 . S
C304 C305 1.399 . S
C304 H317 0.931 . S
C305 C304 1.399 . S
C305 C306 1.390 . S
C306 C301 1.392 . S
C306 C305 1.390 . S
C306 H318 0.929 . S
O307 Tb291 2.326 . S
O307 C295 1.242 . S
O308 Eu292 2.324 . S
O308 C295 1.258 . S
O309 Tb291 2.500 . S
O309 C311 1.273 . S
O310 Tb291 2.473 . S
O310 C311 1.257 . S
C311 O309 1.273 . S
C311 O310 1.257 . S
O312 Eu292 2.326 . S
O312 C300 1.242 . S
O313 Tb291 2.324 . S
O313 C300 1.258 . S
O314 Eu292 2.500 . S
O314 C297 1.273 . S
O315 Eu292 2.473 . S
O315 C297 1.257 . S
H316 C302 0.929 . S
H317 C304 0.931 . S
H318 C306 0.929 . S
O319 Tb320 2.292 . S
O319 C322 1.255 . S
Tb320 O319 2.292 . S
Tb320 O336 2.326 . S
Tb320 O338 2.500 . S
Tb320 O339 2.473 . S
Tb320 O342 2.324 . S
Eu321 O325 2.292 1_455 S
Eu321 C326 2.852 . S
Eu321 O337 2.324 . S
Eu321 O341 2.326 . S
Eu321 O343 2.500 . S
Eu321 O344 2.473 . S
C322 O319 1.255 . S
C322 O323 1.247 . S
O323 C322 1.247 . S
C324 O336 1.242 . S
C324 O337 1.258 . S
O325 Eu321 2.292 1_655 S
O325 C327 1.255 . S
C326 Eu321 2.852 . S
C326 C330 1.503 . S
C326 O343 1.273 . S
C326 O344 1.257 . S
C327 O325 1.255 . S
C327 O328 1.247 . S
O328 C327 1.247 . S
C329 O341 1.242 . S
C329 O342 1.258 . S
C330 C326 1.503 . S
C330 C331 1.379 . S
C330 C335 1.392 . S
C331 C330 1.379 . S
C331 C332 1.404 . S
C331 H345 0.929 . S
C332 C331 1.404 . S
C332 C333 1.389 . S
C333 C332 1.389 . S
C333 C334 1.399 . S
C333 H346 0.931 . S
C334 C333 1.399 . S
C334 C335 1.390 . S
C335 C330 1.392 . S
C335 C334 1.390 . S
C335 H347 0.929 . S
O336 Tb320 2.326 . S
O336 C324 1.242 . S
O337 Eu321 2.324 . S
O337 C324 1.258 . S
O338 Tb320 2.500 . S
O338 C340 1.273 . S
O339 Tb320 2.473 . S
O339 C340 1.257 . S
C340 O338 1.273 . S
C340 O339 1.257 . S
O341 Eu321 2.326 . S
O341 C329 1.242 . S
O342 Tb320 2.324 . S
O342 C329 1.258 . S
O343 Eu321 2.500 . S
O343 C326 1.273 . S
O344 Eu321 2.473 . S
O344 C326 1.257 . S
H345 C331 0.929 . S
H346 C333 0.931 . S
H347 C335 0.929 . S
O348 Tb349 2.292 . S
O348 C351 1.255 . S
Tb349 O348 2.292 . S
Tb349 O365 2.326 . S
Tb349 O367 2.500 . S
Tb349 O368 2.473 . S
Tb349 O371 2.324 . S
Eu350 O354 2.292 . S
Eu350 C355 2.852 . S
Eu350 O366 2.324 . S
Eu350 O370 2.326 . S
Eu350 O372 2.500 . S
Eu350 O373 2.473 . S
C351 O348 1.255 . S
C351 O352 1.247 . S
O352 C351 1.247 . S
C353 O365 1.242 . S
C353 O366 1.258 . S
O354 Eu350 2.292 . S
O354 C356 1.255 . S
C355 Eu350 2.852 . S
C355 C359 1.503 . S
C355 O372 1.273 . S
C355 O373 1.257 . S
C356 O354 1.255 . S
C356 O357 1.247 . S
O357 C356 1.247 . S
C358 O370 1.242 . S
C358 O371 1.258 . S
C359 C355 1.503 . S
C359 C360 1.379 . S
C359 C364 1.392 . S
C360 C359 1.379 . S
C360 C361 1.404 . S
C360 H374 0.929 . S
C361 C360 1.404 . S
C361 C362 1.389 . S
C362 C361 1.389 . S
C362 C363 1.399 . S
C362 H375 0.931 . S
C363 C362 1.399 . S
C363 C364 1.390 . S
C364 C359 1.392 . S
C364 C363 1.390 . S
C364 H376 0.929 . S
O365 Tb349 2.326 . S
O365 C353 1.242 . S
O366 Eu350 2.324 . S
O366 C353 1.258 . S
O367 Tb349 2.500 . S
O367 C369 1.273 . S
O368 Tb349 2.473 . S
O368 C369 1.257 . S
C369 O367 1.273 . S
C369 O368 1.257 . S
O370 Eu350 2.326 . S
O370 C358 1.242 . S
O371 Tb349 2.324 . S
O371 C358 1.258 . S
O372 Eu350 2.500 . S
O372 C355 1.273 . S
O373 Eu350 2.473 . S
O373 C355 1.257 . S
H374 C360 0.929 . S
H375 C362 0.931 . S
H376 C364 0.929 . S
O377 Tb378 2.292 . S
O377 C380 1.255 . S
Tb378 O377 2.292 . S
Tb378 O394 2.326 . S
Tb378 O396 2.500 . S
Tb378 O397 2.473 . S
Tb378 O400 2.324 . S
Eu379 O383 2.292 1_455 S
Eu379 C384 2.852 . S
Eu379 O395 2.324 . S
Eu379 O399 2.326 . S
Eu379 O401 2.500 . S
Eu379 O402 2.473 . S
C380 O377 1.255 . S
C380 O381 1.247 . S
O381 C380 1.247 . S
C382 O394 1.242 . S
C382 O395 1.258 . S
O383 Eu379 2.292 1_655 S
O383 C385 1.255 . S
C384 Eu379 2.852 . S
C384 C388 1.503 . S
C384 O401 1.273 . S
C384 O402 1.257 . S
C385 O383 1.255 . S
C385 O386 1.247 . S
O386 C385 1.247 . S
C387 O399 1.242 . S
C387 O400 1.258 . S
C388 C384 1.503 . S
C388 C389 1.379 . S
C388 C393 1.392 . S
C389 C388 1.379 . S
C389 C390 1.404 . S
C389 H403 0.929 . S
C390 C389 1.404 . S
C390 C391 1.389 . S
C391 C390 1.389 . S
C391 C392 1.399 . S
C391 H404 0.931 . S
C392 C391 1.399 . S
C392 C393 1.390 . S
C393 C388 1.392 . S
C393 C392 1.390 . S
C393 H405 0.929 . S
O394 Tb378 2.326 . S
O394 C382 1.242 . S
O395 Eu379 2.324 . S
O395 C382 1.258 . S
O396 Tb378 2.500 . S
O396 C398 1.273 . S
O397 Tb378 2.473 . S
O397 C398 1.257 . S
C398 O396 1.273 . S
C398 O397 1.257 . S
O399 Eu379 2.326 . S
O399 C387 1.242 . S
O400 Tb378 2.324 . S
O400 C387 1.258 . S
O401 Eu379 2.500 . S
O401 C384 1.273 . S
O402 Eu379 2.473 . S
O402 C384 1.257 . S
H403 C389 0.929 . S
H404 C391 0.931 . S
H405 C393 0.929 . S
O406 Tb407 2.292 . S
O406 C409 1.255 . S
Tb407 O406 2.292 . S
Tb407 O423 2.326 . S
Tb407 O425 2.500 . S
Tb407 O426 2.473 . S
Tb407 O429 2.324 . S
Eu408 O412 2.292 1_545 S
Eu408 C413 2.852 . S
Eu408 O424 2.324 . S
Eu408 O428 2.326 . S
Eu408 O430 2.500 . S
Eu408 O431 2.473 . S
C409 O406 1.255 . S
C409 O410 1.247 . S
O410 C409 1.247 . S
C411 O423 1.242 . S
C411 O424 1.258 . S
O412 Eu408 2.292 1_565 S
O412 C414 1.255 . S
C413 Eu408 2.852 . S
C413 C417 1.503 . S
C413 O430 1.273 . S
C413 O431 1.257 . S
C414 O412 1.255 . S
C414 O415 1.247 . S
O415 C414 1.247 . S
C416 O428 1.242 . S
C416 O429 1.258 . S
C417 C413 1.503 . S
C417 C418 1.379 . S
C417 C422 1.392 . S
C418 C417 1.379 . S
C418 C419 1.404 . S
C418 H432 0.929 . S
C419 C418 1.404 . S
C419 C420 1.389 . S
C420 C419 1.389 . S
C420 C421 1.399 . S
C420 H433 0.931 . S
C421 C420 1.399 . S
C421 C422 1.390 . S
C422 C417 1.392 . S
C422 C421 1.390 . S
C422 H434 0.929 . S
O423 Tb407 2.326 . S
O423 C411 1.242 . S
O424 Eu408 2.324 . S
O424 C411 1.258 . S
O425 Tb407 2.500 . S
O425 C427 1.273 . S
O426 Tb407 2.473 . S
O426 C427 1.257 . S
C427 O425 1.273 . S
C427 O426 1.257 . S
O428 Eu408 2.326 . S
O428 C416 1.242 . S
O429 Tb407 2.324 . S
O429 C416 1.258 . S
O430 Eu408 2.500 . S
O430 C413 1.273 . S
O431 Eu408 2.473 . S
O431 C413 1.257 . S
H432 C418 0.929 . S
H433 C420 0.931 . S
H434 C422 0.929 . S
O435 Tb436 2.292 . S
O435 C438 1.255 . S
Tb436 O435 2.292 . S
Tb436 O452 2.326 . S
Tb436 O454 2.500 . S
Tb436 O455 2.473 . S
Tb436 O458 2.324 . S
Eu437 O441 2.292 . S
Eu437 C442 2.852 . S
Eu437 O453 2.324 . S
Eu437 O457 2.326 . S
Eu437 O459 2.500 . S
Eu437 O460 2.473 . S
C438 O435 1.255 . S
C438 O439 1.247 . S
O439 C438 1.247 . S
C440 O452 1.242 . S
C440 O453 1.258 . S
O441 Eu437 2.292 . S
O441 C443 1.255 . S
C442 Eu437 2.852 . S
C442 C446 1.503 . S
C442 O459 1.273 . S
C442 O460 1.257 . S
C443 O441 1.255 . S
C443 O444 1.247 . S
O444 C443 1.247 . S
C445 O457 1.242 . S
C445 O458 1.258 . S
C446 C442 1.503 . S
C446 C447 1.379 . S
C446 C451 1.392 . S
C447 C446 1.379 . S
C447 C448 1.404 . S
C447 H461 0.929 . S
C448 C447 1.404 . S
C448 C449 1.389 . S
C449 C448 1.389 . S
C449 C450 1.399 . S
C449 H462 0.931 . S
C450 C449 1.399 . S
C450 C451 1.390 . S
C451 C446 1.392 . S
C451 C450 1.390 . S
C451 H463 0.929 . S
O452 Tb436 2.326 . S
O452 C440 1.242 . S
O453 Eu437 2.324 . S
O453 C440 1.258 . S
O454 Tb436 2.500 . S
O454 C456 1.273 . S
O455 Tb436 2.473 . S
O455 C456 1.257 . S
C456 O454 1.273 . S
C456 O455 1.257 . S
O457 Eu437 2.326 . S
O457 C445 1.242 . S
O458 Tb436 2.324 . S
O458 C445 1.258 . S
O459 Eu437 2.500 . S
O459 C442 1.273 . S
O460 Eu437 2.473 . S
O460 C442 1.257 . S
H461 C447 0.929 . S
H462 C449 0.931 . S
H463 C451 0.929 . S
O464 Tb465 2.292 . S
O464 C467 1.255 . S
Tb465 O464 2.292 . S
Tb465 O481 2.326 . S
Tb465 O483 2.500 . S
Tb465 O484 2.473 . S
Tb465 O487 2.324 . S
Eu466 O470 2.292 1_554 S
Eu466 C471 2.852 . S
Eu466 O482 2.324 . S
Eu466 O486 2.326 . S
Eu466 O488 2.500 . S
Eu466 O489 2.473 . S
C467 O464 1.255 . S
C467 O468 1.247 . S
O468 C467 1.247 . S
C469 O481 1.242 . S
C469 O482 1.258 . S
O470 Eu466 2.292 1_556 S
O470 C472 1.255 . S
C471 Eu466 2.852 . S
C471 C475 1.503 . S
C471 O488 1.273 . S
C471 O489 1.257 . S
C472 O470 1.255 . S
C472 O473 1.247 . S
O473 C472 1.247 . S
C474 O486 1.242 . S
C474 O487 1.258 . S
C475 C471 1.503 . S
C475 C476 1.379 . S
C475 C480 1.392 . S
C476 C475 1.379 . S
C476 C477 1.404 . S
C476 H490 0.929 . S
C477 C476 1.404 . S
C477 C478 1.389 . S
C478 C477 1.389 . S
C478 C479 1.399 . S
C478 H491 0.931 . S
C479 C478 1.399 . S
C479 C480 1.390 . S
C480 C475 1.392 . S
C480 C479 1.390 . S
C480 H492 0.929 . S
O481 Tb465 2.326 . S
O481 C469 1.242 . S
O482 Eu466 2.324 . S
O482 C469 1.258 . S
O483 Tb465 2.500 . S
O483 C485 1.273 . S
O484 Tb465 2.473 . S
O484 C485 1.257 . S
C485 O483 1.273 . S
C485 O484 1.257 . S
O486 Eu466 2.326 . S
O486 C474 1.242 . S
O487 Tb465 2.324 . S
O487 C474 1.258 . S
O488 Eu466 2.500 . S
O488 C471 1.273 . S
O489 Eu466 2.473 . S
O489 C471 1.257 . S
H490 C476 0.929 . S
H491 C478 0.931 . S
H492 C480 0.929 . S
O493 Tb494 2.292 . S
O493 C496 1.255 . S
Tb494 O493 2.292 . S
Tb494 O510 2.326 . S
Tb494 O512 2.500 . S
Tb494 O513 2.473 . S
Tb494 O516 2.324 . S
Eu495 O499 2.292 . S
Eu495 C500 2.852 . S
Eu495 O511 2.324 . S
Eu495 O515 2.326 . S
Eu495 O517 2.500 . S
Eu495 O518 2.473 . S
C496 O493 1.255 . S
C496 O497 1.247 . S
O497 C496 1.247 . S
C498 O510 1.242 . S
C498 O511 1.258 . S
O499 Eu495 2.292 . S
O499 C501 1.255 . S
C500 Eu495 2.852 . S
C500 C504 1.503 . S
C500 O517 1.273 . S
C500 O518 1.257 . S
C501 O499 1.255 . S
C501 O502 1.247 . S
O502 C501 1.247 . S
C503 O515 1.242 . S
C503 O516 1.258 . S
C504 C500 1.503 . S
C504 C505 1.379 . S
C504 C509 1.392 . S
C505 C504 1.379 . S
C505 C506 1.404 . S
C505 H519 0.929 . S
C506 C505 1.404 . S
C506 C507 1.389 . S
C507 C506 1.389 . S
C507 C508 1.399 . S
C507 H520 0.931 . S
C508 C507 1.399 . S
C508 C509 1.390 . S
C509 C504 1.392 . S
C509 C508 1.390 . S
C509 H521 0.929 . S
O510 Tb494 2.326 . S
O510 C498 1.242 . S
O511 Eu495 2.324 . S
O511 C498 1.258 . S
O512 Tb494 2.500 . S
O512 C514 1.273 . S
O513 Tb494 2.473 . S
O513 C514 1.257 . S
C514 O512 1.273 . S
C514 O513 1.257 . S
O515 Eu495 2.326 . S
O515 C503 1.242 . S
O516 Tb494 2.324 . S
O516 C503 1.258 . S
O517 Eu495 2.500 . S
O517 C500 1.273 . S
O518 Eu495 2.473 . S
O518 C500 1.257 . S
H519 C505 0.929 . S
H520 C507 0.931 . S
H521 C509 0.929 . S
O522 Tb523 2.292 . S
O522 C525 1.255 . S
Tb523 O522 2.292 . S
Tb523 O539 2.326 . S
Tb523 O541 2.500 . S
Tb523 O542 2.473 . S
Tb523 O545 2.324 . S
Eu524 O528 2.292 . S
Eu524 C529 2.852 . S
Eu524 O540 2.324 . S
Eu524 O544 2.326 . S
Eu524 O546 2.500 . S
Eu524 O547 2.473 . S
C525 O522 1.255 . S
C525 O526 1.247 . S
O526 C525 1.247 . S
C527 O539 1.242 . S
C527 O540 1.258 . S
O528 Eu524 2.292 . S
O528 C530 1.255 . S
C529 Eu524 2.852 . S
C529 C533 1.503 . S
C529 O546 1.273 . S
C529 O547 1.257 . S
C530 O528 1.255 . S
C530 O531 1.247 . S
O531 C530 1.247 . S
C532 O544 1.242 . S
C532 O545 1.258 . S
C533 C529 1.503 . S
C533 C534 1.379 . S
C533 C538 1.392 . S
C534 C533 1.379 . S
C534 C535 1.404 . S
C534 H548 0.929 . S
C535 C534 1.404 . S
C535 C536 1.389 . S
C536 C535 1.389 . S
C536 C537 1.399 . S
C536 H549 0.931 . S
C537 C536 1.399 . S
C537 C538 1.390 . S
C538 C533 1.392 . S
C538 C537 1.390 . S
C538 H550 0.929 . S
O539 Tb523 2.326 . S
O539 C527 1.242 . S
O540 Eu524 2.324 . S
O540 C527 1.258 . S
O541 Tb523 2.500 . S
O541 C543 1.273 . S
O542 Tb523 2.473 . S
O542 C543 1.257 . S
C543 O541 1.273 . S
C543 O542 1.257 . S
O544 Eu524 2.326 . S
O544 C532 1.242 . S
O545 Tb523 2.324 . S
O545 C532 1.258 . S
O546 Eu524 2.500 . S
O546 C529 1.273 . S
O547 Eu524 2.473 . S
O547 C529 1.257 . S
H548 C534 0.929 . S
H549 C536 0.931 . S
H550 C538 0.929 . S
O551 Tb552 2.292 . S
O551 C554 1.255 . S
Tb552 O551 2.292 . S
Tb552 O568 2.326 . S
Tb552 O570 2.500 . S
Tb552 O571 2.473 . S
Tb552 O574 2.324 . S
Eu553 O557 2.292 . S
Eu553 C558 2.852 . S
Eu553 O569 2.324 . S
Eu553 O573 2.326 . S
Eu553 O575 2.500 . S
Eu553 O576 2.473 . S
C554 O551 1.255 . S
C554 O555 1.247 . S
O555 C554 1.247 . S
C556 O568 1.242 . S
C556 O569 1.258 . S
O557 Eu553 2.292 . S
O557 C559 1.255 . S
C558 Eu553 2.852 . S
C558 C562 1.503 . S
C558 O575 1.273 . S
C558 O576 1.257 . S
C559 O557 1.255 . S
C559 O560 1.247 . S
O560 C559 1.247 . S
C561 O573 1.242 . S
C561 O574 1.258 . S
C562 C558 1.503 . S
C562 C563 1.379 . S
C562 C567 1.392 . S
C563 C562 1.379 . S
C563 C564 1.404 . S
C563 H577 0.929 . S
C564 C563 1.404 . S
C564 C565 1.389 . S
C565 C564 1.389 . S
C565 C566 1.399 . S
C565 H578 0.931 . S
C566 C565 1.399 . S
C566 C567 1.390 . S
C567 C562 1.392 . S
C567 C566 1.390 . S
C567 H579 0.929 . S
O568 Tb552 2.326 . S
O568 C556 1.242 . S
O569 Eu553 2.324 . S
O569 C556 1.258 . S
O570 Tb552 2.500 . S
O570 C572 1.273 . S
O571 Tb552 2.473 . S
O571 C572 1.257 . S
C572 O570 1.273 . S
C572 O571 1.257 . S
O573 Eu553 2.326 . S
O573 C561 1.242 . S
O574 Tb552 2.324 . S
O574 C561 1.258 . S
O575 Eu553 2.500 . S
O575 C558 1.273 . S
O576 Eu553 2.473 . S
O576 C558 1.257 . S
H577 C563 0.929 . S
H578 C565 0.931 . S
H579 C567 0.929 . S
O580 Tb581 2.292 . S
O580 C583 1.255 . S
Tb581 O580 2.292 . S
Tb581 O597 2.326 . S
Tb581 O599 2.500 . S
Tb581 O600 2.473 . S
Tb581 O603 2.324 . S
Eu582 O586 2.292 . S
Eu582 C587 2.852 . S
Eu582 O598 2.324 . S
Eu582 O602 2.326 . S
Eu582 O604 2.500 . S
Eu582 O605 2.473 . S
C583 O580 1.255 . S
C583 O584 1.247 . S
O584 C583 1.247 . S
C585 O597 1.242 . S
C585 O598 1.258 . S
O586 Eu582 2.292 . S
O586 C588 1.255 . S
C587 Eu582 2.852 . S
C587 C591 1.503 . S
C587 O604 1.273 . S
C587 O605 1.257 . S
C588 O586 1.255 . S
C588 O589 1.247 . S
O589 C588 1.247 . S
C590 O602 1.242 . S
C590 O603 1.258 . S
C591 C587 1.503 . S
C591 C592 1.379 . S
C591 C596 1.392 . S
C592 C591 1.379 . S
C592 C593 1.404 . S
C592 H606 0.929 . S
C593 C592 1.404 . S
C593 C594 1.389 . S
C594 C593 1.389 . S
C594 C595 1.399 . S
C594 H607 0.931 . S
C595 C594 1.399 . S
C595 C596 1.390 . S
C596 C591 1.392 . S
C596 C595 1.390 . S
C596 H608 0.929 . S
O597 Tb581 2.326 . S
O597 C585 1.242 . S
O598 Eu582 2.324 . S
O598 C585 1.258 . S
O599 Tb581 2.500 . S
O599 C601 1.273 . S
O600 Tb581 2.473 . S
O600 C601 1.257 . S
C601 O599 1.273 . S
C601 O600 1.257 . S
O602 Eu582 2.326 . S
O602 C590 1.242 . S
O603 Tb581 2.324 . S
O603 C590 1.258 . S
O604 Eu582 2.500 . S
O604 C587 1.273 . S
O605 Eu582 2.473 . S
O605 C587 1.257 . S
H606 C592 0.929 . S
H607 C594 0.931 . S
H608 C596 0.929 . S
O609 Tb610 2.292 . S
O609 C612 1.255 . S
Tb610 O609 2.292 . S
Tb610 O626 2.326 . S
Tb610 O628 2.500 . S
Tb610 O629 2.473 . S
Tb610 O632 2.324 . S
Eu611 O615 2.292 1_554 S
Eu611 C616 2.852 . S
Eu611 O627 2.324 . S
Eu611 O631 2.326 . S
Eu611 O633 2.500 . S
Eu611 O634 2.473 . S
C612 O609 1.255 . S
C612 O613 1.247 . S
O613 C612 1.247 . S
C614 O626 1.242 . S
C614 O627 1.258 . S
O615 Eu611 2.292 1_556 S
O615 C617 1.255 . S
C616 Eu611 2.852 . S
C616 C620 1.503 . S
C616 O633 1.273 . S
C616 O634 1.257 . S
C617 O615 1.255 . S
C617 O618 1.247 . S
O618 C617 1.247 . S
C619 O631 1.242 . S
C619 O632 1.258 . S
C620 C616 1.503 . S
C620 C621 1.379 . S
C620 C625 1.392 . S
C621 C620 1.379 . S
C621 C622 1.404 . S
C621 H635 0.929 . S
C622 C621 1.404 . S
C622 C623 1.389 . S
C623 C622 1.389 . S
C623 C624 1.399 . S
C623 H636 0.931 . S
C624 C623 1.399 . S
C624 C625 1.390 . S
C625 C620 1.392 . S
C625 C624 1.390 . S
C625 H637 0.929 . S
O626 Tb610 2.326 . S
O626 C614 1.242 . S
O627 Eu611 2.324 . S
O627 C614 1.258 . S
O628 Tb610 2.500 . S
O628 C630 1.273 . S
O629 Tb610 2.473 . S
O629 C630 1.257 . S
C630 O628 1.273 . S
C630 O629 1.257 . S
O631 Eu611 2.326 . S
O631 C619 1.242 . S
O632 Tb610 2.324 . S
O632 C619 1.258 . S
O633 Eu611 2.500 . S
O633 C616 1.273 . S
O634 Eu611 2.473 . S
O634 C616 1.257 . S
H635 C621 0.929 . S
H636 C623 0.931 . S
H637 C625 0.929 . S
O638 Tb639 2.292 . S
O638 C641 1.255 . S
Tb639 O638 2.292 . S
Tb639 O655 2.326 . S
Tb639 O657 2.500 . S
Tb639 O658 2.473 . S
Tb639 O661 2.324 . S
Eu640 O644 2.292 1_554 S
Eu640 C645 2.852 . S
Eu640 O656 2.324 . S
Eu640 O660 2.326 . S
Eu640 O662 2.500 . S
Eu640 O663 2.473 . S
C641 O638 1.255 . S
C641 O642 1.247 . S
O642 C641 1.247 . S
C643 O655 1.242 . S
C643 O656 1.258 . S
O644 Eu640 2.292 1_556 S
O644 C646 1.255 . S
C645 Eu640 2.852 . S
C645 C649 1.503 . S
C645 O662 1.273 . S
C645 O663 1.257 . S
C646 O644 1.255 . S
C646 O647 1.247 . S
O647 C646 1.247 . S
C648 O660 1.242 . S
C648 O661 1.258 . S
C649 C645 1.503 . S
C649 C650 1.379 . S
C649 C654 1.392 . S
C650 C649 1.379 . S
C650 C651 1.404 . S
C650 H664 0.929 . S
C651 C650 1.404 . S
C651 C652 1.389 . S
C652 C651 1.389 . S
C652 C653 1.399 . S
C652 H665 0.931 . S
C653 C652 1.399 . S
C653 C654 1.390 . S
C654 C649 1.392 . S
C654 C653 1.390 . S
C654 H666 0.929 . S
O655 Tb639 2.326 . S
O655 C643 1.242 . S
O656 Eu640 2.324 . S
O656 C643 1.258 . S
O657 Tb639 2.500 . S
O657 C659 1.273 . S
O658 Tb639 2.473 . S
O658 C659 1.257 . S
C659 O657 1.273 . S
C659 O658 1.257 . S
O660 Eu640 2.326 . S
O660 C648 1.242 . S
O661 Tb639 2.324 . S
O661 C648 1.258 . S
O662 Eu640 2.500 . S
O662 C645 1.273 . S
O663 Eu640 2.473 . S
O663 C645 1.257 . S
H664 C650 0.929 . S
H665 C652 0.931 . S
H666 C654 0.929 . S
O667 Tb668 2.292 . S
O667 C670 1.255 . S
Tb668 O667 2.292 . S
Tb668 O684 2.326 . S
Tb668 O686 2.500 . S
Tb668 O687 2.473 . S
Tb668 O690 2.324 . S
Eu669 O673 2.292 1_554 S
Eu669 C674 2.852 . S
Eu669 O685 2.324 . S
Eu669 O689 2.326 . S
Eu669 O691 2.500 . S
Eu669 O692 2.473 . S
C670 O667 1.255 . S
C670 O671 1.247 . S
O671 C670 1.247 . S
C672 O684 1.242 . S
C672 O685 1.258 . S
O673 Eu669 2.292 1_556 S
O673 C675 1.255 . S
C674 Eu669 2.852 . S
C674 C678 1.503 . S
C674 O691 1.273 . S
C674 O692 1.257 . S
C675 O673 1.255 . S
C675 O676 1.247 . S
O676 C675 1.247 . S
C677 O689 1.242 . S
C677 O690 1.258 . S
C678 C674 1.503 . S
C678 C679 1.379 . S
C678 C683 1.392 . S
C679 C678 1.379 . S
C679 C680 1.404 . S
C679 H693 0.929 . S
C680 C679 1.404 . S
C680 C681 1.389 . S
C681 C680 1.389 . S
C681 C682 1.399 . S
C681 H694 0.931 . S
C682 C681 1.399 . S
C682 C683 1.390 . S
C683 C678 1.392 . S
C683 C682 1.390 . S
C683 H695 0.929 . S
O684 Tb668 2.326 . S
O684 C672 1.242 . S
O685 Eu669 2.324 . S
O685 C672 1.258 . S
O686 Tb668 2.500 . S
O686 C688 1.273 . S
O687 Tb668 2.473 . S
O687 C688 1.257 . S
C688 O686 1.273 . S
C688 O687 1.257 . S
O689 Eu669 2.326 . S
O689 C677 1.242 . S
O690 Tb668 2.324 . S
O690 C677 1.258 . S
O691 Eu669 2.500 . S
O691 C674 1.273 . S
O692 Eu669 2.473 . S
O692 C674 1.257 . S
H693 C679 0.929 . S
H694 C681 0.931 . S
H695 C683 0.929 . S
O696 Tb697 2.292 . S
O696 C699 1.255 . S
Tb697 O696 2.292 . S
Tb697 O713 2.326 . S
Tb697 O715 2.500 . S
Tb697 O716 2.473 . S
Tb697 O719 2.324 . S
Eu698 O702 2.292 1_655 S
Eu698 C703 2.852 . S
Eu698 O714 2.324 . S
Eu698 O718 2.326 . S
Eu698 O720 2.500 . S
Eu698 O721 2.473 . S
C699 O696 1.255 . S
C699 O700 1.247 . S
O700 C699 1.247 . S
C701 O713 1.242 . S
C701 O714 1.258 . S
O702 Eu698 2.292 1_455 S
O702 C704 1.255 . S
C703 Eu698 2.852 . S
C703 C707 1.503 . S
C703 O720 1.273 . S
C703 O721 1.257 . S
C704 O702 1.255 . S
C704 O705 1.247 . S
O705 C704 1.247 . S
C706 O718 1.242 . S
C706 O719 1.258 . S
C707 C703 1.503 . S
C707 C708 1.379 . S
C707 C712 1.392 . S
C708 C707 1.379 . S
C708 C709 1.404 . S
C708 H722 0.929 . S
C709 C708 1.404 . S
C709 C710 1.389 . S
C710 C709 1.389 . S
C710 C711 1.399 . S
C710 H723 0.931 . S
C711 C710 1.399 . S
C711 C712 1.390 . S
C712 C707 1.392 . S
C712 C711 1.390 . S
C712 H724 0.929 . S
O713 Tb697 2.326 . S
O713 C701 1.242 . S
O714 Eu698 2.324 . S
O714 C701 1.258 . S
O715 Tb697 2.500 . S
O715 C717 1.273 . S
O716 Tb697 2.473 . S
O716 C717 1.257 . S
C717 O715 1.273 . S
C717 O716 1.257 . S
O718 Eu698 2.326 . S
O718 C706 1.242 . S
O719 Tb697 2.324 . S
O719 C706 1.258 . S
O720 Eu698 2.500 . S
O720 C703 1.273 . S
O721 Eu698 2.473 . S
O721 C703 1.257 . S
H722 C708 0.929 . S
H723 C710 0.931 . S
H724 C712 0.929 . S
O725 Tb726 2.292 . S
O725 C728 1.255 . S
Tb726 O725 2.292 . S
Tb726 O742 2.326 . S
Tb726 O744 2.500 . S
Tb726 O745 2.473 . S
Tb726 O748 2.324 . S
Eu727 O731 2.292 1_565 S
Eu727 C732 2.852 . S
Eu727 O743 2.324 . S
Eu727 O747 2.326 . S
Eu727 O749 2.500 . S
Eu727 O750 2.473 . S
C728 O725 1.255 . S
C728 O729 1.247 . S
O729 C728 1.247 . S
C730 O742 1.242 . S
C730 O743 1.258 . S
O731 Eu727 2.292 1_545 S
O731 C733 1.255 . S
C732 Eu727 2.852 . S
C732 C736 1.503 . S
C732 O749 1.273 . S
C732 O750 1.257 . S
C733 O731 1.255 . S
C733 O734 1.247 . S
O734 C733 1.247 . S
C735 O747 1.242 . S
C735 O748 1.258 . S
C736 C732 1.503 . S
C736 C737 1.379 . S
C736 C741 1.392 . S
C737 C736 1.379 . S
C737 C738 1.404 . S
C737 H751 0.929 . S
C738 C737 1.404 . S
C738 C739 1.389 . S
C739 C738 1.389 . S
C739 C740 1.399 . S
C739 H752 0.931 . S
C740 C739 1.399 . S
C740 C741 1.390 . S
C741 C736 1.392 . S
C741 C740 1.390 . S
C741 H753 0.929 . S
O742 Tb726 2.326 . S
O742 C730 1.242 . S
O743 Eu727 2.324 . S
O743 C730 1.258 . S
O744 Tb726 2.500 . S
O744 C746 1.273 . S
O745 Tb726 2.473 . S
O745 C746 1.257 . S
C746 O744 1.273 . S
C746 O745 1.257 . S
O747 Eu727 2.326 . S
O747 C735 1.242 . S
O748 Tb726 2.324 . S
O748 C735 1.258 . S
O749 Eu727 2.500 . S
O749 C732 1.273 . S
O750 Eu727 2.473 . S
O750 C732 1.257 . S
H751 C737 0.929 . S
H752 C739 0.931 . S
H753 C741 0.929 . S
O754 Tb755 2.292 . S
O754 C757 1.255 . S
Tb755 O754 2.292 . S
Tb755 O771 2.326 . S
Tb755 O773 2.500 . S
Tb755 O774 2.473 . S
Tb755 O777 2.324 . S
Eu756 O760 2.292 . S
Eu756 C761 2.852 . S
Eu756 O772 2.324 . S
Eu756 O776 2.326 . S
Eu756 O778 2.500 . S
Eu756 O779 2.473 . S
C757 O754 1.255 . S
C757 O758 1.247 . S
O758 C757 1.247 . S
C759 O771 1.242 . S
C759 O772 1.258 . S
O760 Eu756 2.292 . S
O760 C762 1.255 . S
C761 Eu756 2.852 . S
C761 C765 1.503 . S
C761 O778 1.273 . S
C761 O779 1.257 . S
C762 O760 1.255 . S
C762 O763 1.247 . S
O763 C762 1.247 . S
C764 O776 1.242 . S
C764 O777 1.258 . S
C765 C761 1.503 . S
C765 C766 1.379 . S
C765 C770 1.392 . S
C766 C765 1.379 . S
C766 C767 1.404 . S
C766 H780 0.929 . S
C767 C766 1.404 . S
C767 C768 1.389 . S
C768 C767 1.389 . S
C768 C769 1.399 . S
C768 H781 0.931 . S
C769 C768 1.399 . S
C769 C770 1.390 . S
C770 C765 1.392 . S
C770 C769 1.390 . S
C770 H782 0.929 . S
O771 Tb755 2.326 . S
O771 C759 1.242 . S
O772 Eu756 2.324 . S
O772 C759 1.258 . S
O773 Tb755 2.500 . S
O773 C775 1.273 . S
O774 Tb755 2.473 . S
O774 C775 1.257 . S
C775 O773 1.273 . S
C775 O774 1.257 . S
O776 Eu756 2.326 . S
O776 C764 1.242 . S
O777 Tb755 2.324 . S
O777 C764 1.258 . S
O778 Eu756 2.500 . S
O778 C761 1.273 . S
O779 Eu756 2.473 . S
O779 C761 1.257 . S
H780 C766 0.929 . S
H781 C768 0.931 . S
H782 C770 0.929 . S
O783 Tb784 2.292 . S
O783 C786 1.255 . S
Tb784 O783 2.292 . S
Tb784 O800 2.326 . S
Tb784 O802 2.500 . S
Tb784 O803 2.473 . S
Tb784 O806 2.324 . S
Eu785 O789 2.292 . S
Eu785 C790 2.852 . S
Eu785 O801 2.324 . S
Eu785 O805 2.326 . S
Eu785 O807 2.500 . S
Eu785 O808 2.473 . S
C786 O783 1.255 . S
C786 O787 1.247 . S
O787 C786 1.247 . S
C788 O800 1.242 . S
C788 O801 1.258 . S
O789 Eu785 2.292 . S
O789 C791 1.255 . S
C790 Eu785 2.852 . S
C790 C794 1.503 . S
C790 O807 1.273 . S
C790 O808 1.257 . S
C791 O789 1.255 . S
C791 O792 1.247 . S
O792 C791 1.247 . S
C793 O805 1.242 . S
C793 O806 1.258 . S
C794 C790 1.503 . S
C794 C795 1.379 . S
C794 C799 1.392 . S
C795 C794 1.379 . S
C795 C796 1.404 . S
C795 H809 0.929 . S
C796 C795 1.404 . S
C796 C797 1.389 . S
C797 C796 1.389 . S
C797 C798 1.399 . S
C797 H810 0.931 . S
C798 C797 1.399 . S
C798 C799 1.390 . S
C799 C794 1.392 . S
C799 C798 1.390 . S
C799 H811 0.929 . S
O800 Tb784 2.326 . S
O800 C788 1.242 . S
O801 Eu785 2.324 . S
O801 C788 1.258 . S
O802 Tb784 2.500 . S
O802 C804 1.273 . S
O803 Tb784 2.473 . S
O803 C804 1.257 . S
C804 O802 1.273 . S
C804 O803 1.257 . S
O805 Eu785 2.326 . S
O805 C793 1.242 . S
O806 Tb784 2.324 . S
O806 C793 1.258 . S
O807 Eu785 2.500 . S
O807 C790 1.273 . S
O808 Eu785 2.473 . S
O808 C790 1.257 . S
H809 C795 0.929 . S
H810 C797 0.931 . S
H811 C799 0.929 . S
O812 Tb813 2.292 . S
O812 C815 1.255 . S
Tb813 O812 2.292 . S
Tb813 O829 2.326 . S
Tb813 O831 2.500 . S
Tb813 O832 2.473 . S
Tb813 O835 2.324 . S
Eu814 O818 2.292 1_655 S
Eu814 C819 2.852 . S
Eu814 O830 2.324 . S
Eu814 O834 2.326 . S
Eu814 O836 2.500 . S
Eu814 O837 2.473 . S
C815 O812 1.255 . S
C815 O816 1.247 . S
O816 C815 1.247 . S
C817 O829 1.242 . S
C817 O830 1.258 . S
O818 Eu814 2.292 1_455 S
O818 C820 1.255 . S
C819 Eu814 2.852 . S
C819 C823 1.503 . S
C819 O836 1.273 . S
C819 O837 1.257 . S
C820 O818 1.255 . S
C820 O821 1.247 . S
O821 C820 1.247 . S
C822 O834 1.242 . S
C822 O835 1.258 . S
C823 C819 1.503 . S
C823 C824 1.379 . S
C823 C828 1.392 . S
C824 C823 1.379 . S
C824 C825 1.404 . S
C824 H838 0.929 . S
C825 C824 1.404 . S
C825 C826 1.389 . S
C826 C825 1.389 . S
C826 C827 1.399 . S
C826 H839 0.931 . S
C827 C826 1.399 . S
C827 C828 1.390 . S
C828 C823 1.392 . S
C828 C827 1.390 . S
C828 H840 0.929 . S
O829 Tb813 2.326 . S
O829 C817 1.242 . S
O830 Eu814 2.324 . S
O830 C817 1.258 . S
O831 Tb813 2.500 . S
O831 C833 1.273 . S
O832 Tb813 2.473 . S
O832 C833 1.257 . S
C833 O831 1.273 . S
C833 O832 1.257 . S
O834 Eu814 2.326 . S
O834 C822 1.242 . S
O835 Tb813 2.324 . S
O835 C822 1.258 . S
O836 Eu814 2.500 . S
O836 C819 1.273 . S
O837 Eu814 2.473 . S
O837 C819 1.257 . S
H838 C824 0.929 . S
H839 C826 0.931 . S
H840 C828 0.929 . S
O841 Tb842 2.292 . S
O841 C844 1.255 . S
Tb842 O841 2.292 . S
Tb842 O858 2.326 . S
Tb842 O860 2.500 . S
Tb842 O861 2.473 . S
Tb842 O864 2.324 . S
Eu843 O847 2.292 1_565 S
Eu843 C848 2.852 . S
Eu843 O859 2.324 . S
Eu843 O863 2.326 . S
Eu843 O865 2.500 . S
Eu843 O866 2.473 . S
C844 O841 1.255 . S
C844 O845 1.247 . S
O845 C844 1.247 . S
C846 O858 1.242 . S
C846 O859 1.258 . S
O847 Eu843 2.292 1_545 S
O847 C849 1.255 . S
C848 Eu843 2.852 . S
C848 C852 1.503 . S
C848 O865 1.273 . S
C848 O866 1.257 . S
C849 O847 1.255 . S
C849 O850 1.247 . S
O850 C849 1.247 . S
C851 O863 1.242 . S
C851 O864 1.258 . S
C852 C848 1.503 . S
C852 C853 1.379 . S
C852 C857 1.392 . S
C853 C852 1.379 . S
C853 C854 1.404 . S
C853 H867 0.929 . S
C854 C853 1.404 . S
C854 C855 1.389 . S
C855 C854 1.389 . S
C855 C856 1.399 . S
C855 H868 0.931 . S
C856 C855 1.399 . S
C856 C857 1.390 . S
C857 C852 1.392 . S
C857 C856 1.390 . S
C857 H869 0.929 . S
O858 Tb842 2.326 . S
O858 C846 1.242 . S
O859 Eu843 2.324 . S
O859 C846 1.258 . S
O860 Tb842 2.500 . S
O860 C862 1.273 . S
O861 Tb842 2.473 . S
O861 C862 1.257 . S
C862 O860 1.273 . S
C862 O861 1.257 . S
O863 Eu843 2.326 . S
O863 C851 1.242 . S
O864 Tb842 2.324 . S
O864 C851 1.258 . S
O865 Eu843 2.500 . S
O865 C848 1.273 . S
O866 Eu843 2.473 . S
O866 C848 1.257 . S
H867 C853 0.929 . S
H868 C855 0.931 . S
H869 C857 0.929 . S
O870 Tb871 2.292 . S
O870 C873 1.255 . S
Tb871 O870 2.292 . S
Tb871 O887 2.326 . S
Tb871 O889 2.500 . S
Tb871 O890 2.473 . S
Tb871 O893 2.324 . S
Eu872 O876 2.292 . S
Eu872 C877 2.852 . S
Eu872 O888 2.324 . S
Eu872 O892 2.326 . S
Eu872 O894 2.500 . S
Eu872 O895 2.473 . S
C873 O870 1.255 . S
C873 O874 1.247 . S
O874 C873 1.247 . S
C875 O887 1.242 . S
C875 O888 1.258 . S
O876 Eu872 2.292 . S
O876 C878 1.255 . S
C877 Eu872 2.852 . S
C877 C881 1.503 . S
C877 O894 1.273 . S
C877 O895 1.257 . S
C878 O876 1.255 . S
C878 O879 1.247 . S
O879 C878 1.247 . S
C880 O892 1.242 . S
C880 O893 1.258 . S
C881 C877 1.503 . S
C881 C882 1.379 . S
C881 C886 1.392 . S
C882 C881 1.379 . S
C882 C883 1.404 . S
C882 H896 0.929 . S
C883 C882 1.404 . S
C883 C884 1.389 . S
C884 C883 1.389 . S
C884 C885 1.399 . S
C884 H897 0.931 . S
C885 C884 1.399 . S
C885 C886 1.390 . S
C886 C881 1.392 . S
C886 C885 1.390 . S
C886 H898 0.929 . S
O887 Tb871 2.326 . S
O887 C875 1.242 . S
O888 Eu872 2.324 . S
O888 C875 1.258 . S
O889 Tb871 2.500 . S
O889 C891 1.273 . S
O890 Tb871 2.473 . S
O890 C891 1.257 . S
C891 O889 1.273 . S
C891 O890 1.257 . S
O892 Eu872 2.326 . S
O892 C880 1.242 . S
O893 Tb871 2.324 . S
O893 C880 1.258 . S
O894 Eu872 2.500 . S
O894 C877 1.273 . S
O895 Eu872 2.473 . S
O895 C877 1.257 . S
H896 C882 0.929 . S
H897 C884 0.931 . S
H898 C886 0.929 . S
O899 Tb900 2.292 . S
O899 C902 1.255 . S
Tb900 O899 2.292 . S
Tb900 O916 2.326 . S
Tb900 O918 2.500 . S
Tb900 O919 2.473 . S
Tb900 O922 2.324 . S
Eu901 O905 2.292 . S
Eu901 C906 2.852 . S
Eu901 O917 2.324 . S
Eu901 O921 2.326 . S
Eu901 O923 2.500 . S
Eu901 O924 2.473 . S
C902 O899 1.255 . S
C902 O903 1.247 . S
O903 C902 1.247 . S
C904 O916 1.242 . S
C904 O917 1.258 . S
O905 Eu901 2.292 . S
O905 C907 1.255 . S
C906 Eu901 2.852 . S
C906 C910 1.503 . S
C906 O923 1.273 . S
C906 O924 1.257 . S
C907 O905 1.255 . S
C907 O908 1.247 . S
O908 C907 1.247 . S
C909 O921 1.242 . S
C909 O922 1.258 . S
C910 C906 1.503 . S
C910 C911 1.379 . S
C910 C915 1.392 . S
C911 C910 1.379 . S
C911 C912 1.404 . S
C911 H925 0.929 . S
C912 C911 1.404 . S
C912 C913 1.389 . S
C913 C912 1.389 . S
C913 C914 1.399 . S
C913 H926 0.931 . S
C914 C913 1.399 . S
C914 C915 1.390 . S
C915 C910 1.392 . S
C915 C914 1.390 . S
C915 H927 0.929 . S
O916 Tb900 2.326 . S
O916 C904 1.242 . S
O917 Eu901 2.324 . S
O917 C904 1.258 . S
O918 Tb900 2.500 . S
O918 C920 1.273 . S
O919 Tb900 2.473 . S
O919 C920 1.257 . S
C920 O918 1.273 . S
C920 O919 1.257 . S
O921 Eu901 2.326 . S
O921 C909 1.242 . S
O922 Tb900 2.324 . S
O922 C909 1.258 . S
O923 Eu901 2.500 . S
O923 C906 1.273 . S
O924 Eu901 2.473 . S
O924 C906 1.257 . S
H925 C911 0.929 . S
H926 C913 0.931 . S
H927 C915 0.929 . S
O928 Tb929 2.292 . S
O928 C931 1.255 . S
Tb929 O928 2.292 . S
Tb929 O945 2.326 . S
Tb929 O947 2.500 . S
Tb929 O948 2.473 . S
Tb929 O951 2.324 . S
Eu930 O934 2.292 1_565 S
Eu930 C935 2.852 . S
Eu930 O946 2.324 . S
Eu930 O950 2.326 . S
Eu930 O952 2.500 . S
Eu930 O953 2.473 . S
C931 O928 1.255 . S
C931 O932 1.247 . S
O932 C931 1.247 . S
C933 O945 1.242 . S
C933 O946 1.258 . S
O934 Eu930 2.292 1_545 S
O934 C936 1.255 . S
C935 Eu930 2.852 . S
C935 C939 1.503 . S
C935 O952 1.273 . S
C935 O953 1.257 . S
C936 O934 1.255 . S
C936 O937 1.247 . S
O937 C936 1.247 . S
C938 O950 1.242 . S
C938 O951 1.258 . S
C939 C935 1.503 . S
C939 C940 1.379 . S
C939 C944 1.392 . S
C940 C939 1.379 . S
C940 C941 1.404 . S
C940 H954 0.929 . S
C941 C940 1.404 . S
C941 C942 1.389 . S
C942 C941 1.389 . S
C942 C943 1.399 . S
C942 H955 0.931 . S
C943 C942 1.399 . S
C943 C944 1.390 . S
C944 C939 1.392 . S
C944 C943 1.390 . S
C944 H956 0.929 . S
O945 Tb929 2.326 . S
O945 C933 1.242 . S
O946 Eu930 2.324 . S
O946 C933 1.258 . S
O947 Tb929 2.500 . S
O947 C949 1.273 . S
O948 Tb929 2.473 . S
O948 C949 1.257 . S
C949 O947 1.273 . S
C949 O948 1.257 . S
O950 Eu930 2.326 . S
O950 C938 1.242 . S
O951 Tb929 2.324 . S
O951 C938 1.258 . S
O952 Eu930 2.500 . S
O952 C935 1.273 . S
O953 Eu930 2.473 . S
O953 C935 1.257 . S
H954 C940 0.929 . S
H955 C942 0.931 . S
H956 C944 0.929 . S
O957 Tb958 2.292 . S
O957 C960 1.255 . S
Tb958 O957 2.292 . S
Tb958 O974 2.326 . S
Tb958 O976 2.500 . S
Tb958 O977 2.473 . S
Tb958 O980 2.324 . S
Eu959 O963 2.292 . S
Eu959 C964 2.852 . S
Eu959 O975 2.324 . S
Eu959 O979 2.326 . S
Eu959 O981 2.500 . S
Eu959 O982 2.473 . S
C960 O957 1.255 . S
C960 O961 1.247 . S
O961 C960 1.247 . S
C962 O974 1.242 . S
C962 O975 1.258 . S
O963 Eu959 2.292 . S
O963 C965 1.255 . S
C964 Eu959 2.852 . S
C964 C968 1.503 . S
C964 O981 1.273 . S
C964 O982 1.257 . S
C965 O963 1.255 . S
C965 O966 1.247 . S
O966 C965 1.247 . S
C967 O979 1.242 . S
C967 O980 1.258 . S
C968 C964 1.503 . S
C968 C969 1.379 . S
C968 C973 1.392 . S
C969 C968 1.379 . S
C969 C970 1.404 . S
C969 H983 0.929 . S
C970 C969 1.404 . S
C970 C971 1.389 . S
C971 C970 1.389 . S
C971 C972 1.399 . S
C971 H984 0.931 . S
C972 C971 1.399 . S
C972 C973 1.390 . S
C973 C968 1.392 . S
C973 C972 1.390 . S
C973 H985 0.929 . S
O974 Tb958 2.326 . S
O974 C962 1.242 . S
O975 Eu959 2.324 . S
O975 C962 1.258 . S
O976 Tb958 2.500 . S
O976 C978 1.273 . S
O977 Tb958 2.473 . S
O977 C978 1.257 . S
C978 O976 1.273 . S
C978 O977 1.257 . S
O979 Eu959 2.326 . S
O979 C967 1.242 . S
O980 Tb958 2.324 . S
O980 C967 1.258 . S
O981 Eu959 2.500 . S
O981 C964 1.273 . S
O982 Eu959 2.473 . S
O982 C964 1.257 . S
H983 C969 0.929 . S
H984 C971 0.931 . S
H985 C973 0.929 . S
O986 Tb987 2.292 . S
O986 C989 1.255 . S
Tb987 O986 2.292 . S
Tb987 O1003 2.326 . S
Tb987 O1005 2.500 . S
Tb987 O1006 2.473 . S
Tb987 O1009 2.324 . S
Eu988 O992 2.292 . S
Eu988 C993 2.852 . S
Eu988 O1004 2.324 . S
Eu988 O1008 2.326 . S
Eu988 O1010 2.500 . S
Eu988 O1011 2.473 . S
C989 O986 1.255 . S
C989 O990 1.247 . S
O990 C989 1.247 . S
C991 O1003 1.242 . S
C991 O1004 1.258 . S
O992 Eu988 2.292 . S
O992 C994 1.255 . S
C993 Eu988 2.852 . S
C993 C997 1.503 . S
C993 O1010 1.273 . S
C993 O1011 1.257 . S
C994 O992 1.255 . S
C994 O995 1.247 . S
O995 C994 1.247 . S
C996 O1008 1.242 . S
C996 O1009 1.258 . S
C997 C993 1.503 . S
C997 C998 1.379 . S
C997 C1002 1.392 . S
C998 C997 1.379 . S
C998 C999 1.404 . S
C998 H1012 0.929 . S
C999 C998 1.404 . S
C999 C1000 1.389 . S
C1000 C999 1.389 . S
C1000 C1001 1.399 . S
C1000 H1013 0.931 . S
C1001 C1000 1.399 . S
C1001 C1002 1.390 . S
C1002 C997 1.392 . S
C1002 C1001 1.390 . S
C1002 H1014 0.929 . S
O1003 Tb987 2.326 . S
O1003 C991 1.242 . S
O1004 Eu988 2.324 . S
O1004 C991 1.258 . S
O1005 Tb987 2.500 . S
O1005 C1007 1.273 . S
O1006 Tb987 2.473 . S
O1006 C1007 1.257 . S
C1007 O1005 1.273 . S
C1007 O1006 1.257 . S
O1008 Eu988 2.326 . S
O1008 C996 1.242 . S
O1009 Tb987 2.324 . S
O1009 C996 1.258 . S
O1010 Eu988 2.500 . S
O1010 C993 1.273 . S
O1011 Eu988 2.473 . S
O1011 C993 1.257 . S
H1012 C998 0.929 . S
H1013 C1000 0.931 . S
H1014 C1002 0.929 . S
O1015 Tb1016 2.292 . S
O1015 C1018 1.255 . S
Tb1016 O1015 2.292 . S
Tb1016 O1032 2.326 . S
Tb1016 O1034 2.500 . S
Tb1016 O1035 2.473 . S
Tb1016 O1038 2.324 . S
Eu1017 O1021 2.292 1_655 S
Eu1017 C1022 2.852 . S
Eu1017 O1033 2.324 . S
Eu1017 O1037 2.326 . S
Eu1017 O1039 2.500 . S
Eu1017 O1040 2.473 . S
C1018 O1015 1.255 . S
C1018 O1019 1.247 . S
O1019 C1018 1.247 . S
C1020 O1032 1.242 . S
C1020 O1033 1.258 . S
O1021 Eu1017 2.292 1_455 S
O1021 C1023 1.255 . S
C1022 Eu1017 2.852 . S
C1022 C1026 1.503 . S
C1022 O1039 1.273 . S
C1022 O1040 1.257 . S
C1023 O1021 1.255 . S
C1023 O1024 1.247 . S
O1024 C1023 1.247 . S
C1025 O1037 1.242 . S
C1025 O1038 1.258 . S
C1026 C1022 1.503 . S
C1026 C1027 1.379 . S
C1026 C1031 1.392 . S
C1027 C1026 1.379 . S
C1027 C1028 1.404 . S
C1027 H1041 0.929 . S
C1028 C1027 1.404 . S
C1028 C1029 1.389 . S
C1029 C1028 1.389 . S
C1029 C1030 1.399 . S
C1029 H1042 0.931 . S
C1030 C1029 1.399 . S
C1030 C1031 1.390 . S
C1031 C1026 1.392 . S
C1031 C1030 1.390 . S
C1031 H1043 0.929 . S
O1032 Tb1016 2.326 . S
O1032 C1020 1.242 . S
O1033 Eu1017 2.324 . S
O1033 C1020 1.258 . S
O1034 Tb1016 2.500 . S
O1034 C1036 1.273 . S
O1035 Tb1016 2.473 . S
O1035 C1036 1.257 . S
C1036 O1034 1.273 . S
C1036 O1035 1.257 . S
O1037 Eu1017 2.326 . S
O1037 C1025 1.242 . S
O1038 Tb1016 2.324 . S
O1038 C1025 1.258 . S
O1039 Eu1017 2.500 . S
O1039 C1022 1.273 . S
O1040 Eu1017 2.473 . S
O1040 C1022 1.257 . S
H1041 C1027 0.929 . S
H1042 C1029 0.931 . S
H1043 C1031 0.929 . S
O1044 Tb1045 2.292 . S
O1044 C1047 1.255 . S
Tb1045 O1044 2.292 . S
Tb1045 O1061 2.326 . S
Tb1045 O1063 2.500 . S
Tb1045 O1064 2.473 . S
Tb1045 O1067 2.324 . S
Eu1046 O1050 2.292 . S
Eu1046 C1051 2.852 . S
Eu1046 O1062 2.324 . S
Eu1046 O1066 2.326 . S
Eu1046 O1068 2.500 . S
Eu1046 O1069 2.473 . S
C1047 O1044 1.255 . S
C1047 O1048 1.247 . S
O1048 C1047 1.247 . S
C1049 O1061 1.242 . S
C1049 O1062 1.258 . S
O1050 Eu1046 2.292 . S
O1050 C1052 1.255 . S
C1051 Eu1046 2.852 . S
C1051 C1055 1.503 . S
C1051 O1068 1.273 . S
C1051 O1069 1.257 . S
C1052 O1050 1.255 . S
C1052 O1053 1.247 . S
O1053 C1052 1.247 . S
C1054 O1066 1.242 . S
C1054 O1067 1.258 . S
C1055 C1051 1.503 . S
C1055 C1056 1.379 . S
C1055 C1060 1.392 . S
C1056 C1055 1.379 . S
C1056 C1057 1.404 . S
C1056 H1070 0.929 . S
C1057 C1056 1.404 . S
C1057 C1058 1.389 . S
C1058 C1057 1.389 . S
C1058 C1059 1.399 . S
C1058 H1071 0.931 . S
C1059 C1058 1.399 . S
C1059 C1060 1.390 . S
C1060 C1055 1.392 . S
C1060 C1059 1.390 . S
C1060 H1072 0.929 . S
O1061 Tb1045 2.326 . S
O1061 C1049 1.242 . S
O1062 Eu1046 2.324 . S
O1062 C1049 1.258 . S
O1063 Tb1045 2.500 . S
O1063 C1065 1.273 . S
O1064 Tb1045 2.473 . S
O1064 C1065 1.257 . S
C1065 O1063 1.273 . S
C1065 O1064 1.257 . S
O1066 Eu1046 2.326 . S
O1066 C1054 1.242 . S
O1067 Tb1045 2.324 . S
O1067 C1054 1.258 . S
O1068 Eu1046 2.500 . S
O1068 C1051 1.273 . S
O1069 Eu1046 2.473 . S
O1069 C1051 1.257 . S
H1070 C1056 0.929 . S
H1071 C1058 0.931 . S
H1072 C1060 0.929 . S
O1073 Tb1074 2.292 . S
O1073 C1076 1.255 . S
Tb1074 O1073 2.292 . S
Tb1074 O1090 2.326 . S
Tb1074 O1092 2.500 . S
Tb1074 O1093 2.473 . S
Tb1074 O1096 2.324 . S
Eu1075 O1079 2.292 1_655 S
Eu1075 C1080 2.852 . S
Eu1075 O1091 2.324 . S
Eu1075 O1095 2.326 . S
Eu1075 O1097 2.500 . S
Eu1075 O1098 2.473 . S
C1076 O1073 1.255 . S
C1076 O1077 1.247 . S
O1077 C1076 1.247 . S
C1078 O1090 1.242 . S
C1078 O1091 1.258 . S
O1079 Eu1075 2.292 1_455 S
O1079 C1081 1.255 . S
C1080 Eu1075 2.852 . S
C1080 C1084 1.503 . S
C1080 O1097 1.273 . S
C1080 O1098 1.257 . S
C1081 O1079 1.255 . S
C1081 O1082 1.247 . S
O1082 C1081 1.247 . S
C1083 O1095 1.242 . S
C1083 O1096 1.258 . S
C1084 C1080 1.503 . S
C1084 C1085 1.379 . S
C1084 C1089 1.392 . S
C1085 C1084 1.379 . S
C1085 C1086 1.404 . S
C1085 H1099 0.929 . S
C1086 C1085 1.404 . S
C1086 C1087 1.389 . S
C1087 C1086 1.389 . S
C1087 C1088 1.399 . S
C1087 H1100 0.931 . S
C1088 C1087 1.399 . S
C1088 C1089 1.390 . S
C1089 C1084 1.392 . S
C1089 C1088 1.390 . S
C1089 H1101 0.929 . S
O1090 Tb1074 2.326 . S
O1090 C1078 1.242 . S
O1091 Eu1075 2.324 . S
O1091 C1078 1.258 . S
O1092 Tb1074 2.500 . S
O1092 C1094 1.273 . S
O1093 Tb1074 2.473 . S
O1093 C1094 1.257 . S
C1094 O1092 1.273 . S
C1094 O1093 1.257 . S
O1095 Eu1075 2.326 . S
O1095 C1083 1.242 . S
O1096 Tb1074 2.324 . S
O1096 C1083 1.258 . S
O1097 Eu1075 2.500 . S
O1097 C1080 1.273 . S
O1098 Eu1075 2.473 . S
O1098 C1080 1.257 . S
H1099 C1085 0.929 . S
H1100 C1087 0.931 . S
H1101 C1089 0.929 . S
O1102 Tb1103 2.292 . S
O1102 C1105 1.255 . S
Tb1103 O1102 2.292 . S
Tb1103 O1119 2.326 . S
Tb1103 O1121 2.500 . S
Tb1103 O1122 2.473 . S
Tb1103 O1125 2.324 . S
Eu1104 O1108 2.292 1_565 S
Eu1104 C1109 2.852 . S
Eu1104 O1120 2.324 . S
Eu1104 O1124 2.326 . S
Eu1104 O1126 2.500 . S
Eu1104 O1127 2.473 . S
C1105 O1102 1.255 . S
C1105 O1106 1.247 . S
O1106 C1105 1.247 . S
C1107 O1119 1.242 . S
C1107 O1120 1.258 . S
O1108 Eu1104 2.292 1_545 S
O1108 C1110 1.255 . S
C1109 Eu1104 2.852 . S
C1109 C1113 1.503 . S
C1109 O1126 1.273 . S
C1109 O1127 1.257 . S
C1110 O1108 1.255 . S
C1110 O1111 1.247 . S
O1111 C1110 1.247 . S
C1112 O1124 1.242 . S
C1112 O1125 1.258 . S
C1113 C1109 1.503 . S
C1113 C1114 1.379 . S
C1113 C1118 1.392 . S
C1114 C1113 1.379 . S
C1114 C1115 1.404 . S
C1114 H1128 0.929 . S
C1115 C1114 1.404 . S
C1115 C1116 1.389 . S
C1116 C1115 1.389 . S
C1116 C1117 1.399 . S
C1116 H1129 0.931 . S
C1117 C1116 1.399 . S
C1117 C1118 1.390 . S
C1118 C1113 1.392 . S
C1118 C1117 1.390 . S
C1118 H1130 0.929 . S
O1119 Tb1103 2.326 . S
O1119 C1107 1.242 . S
O1120 Eu1104 2.324 . S
O1120 C1107 1.258 . S
O1121 Tb1103 2.500 . S
O1121 C1123 1.273 . S
O1122 Tb1103 2.473 . S
O1122 C1123 1.257 . S
C1123 O1121 1.273 . S
C1123 O1122 1.257 . S
O1124 Eu1104 2.326 . S
O1124 C1112 1.242 . S
O1125 Tb1103 2.324 . S
O1125 C1112 1.258 . S
O1126 Eu1104 2.500 . S
O1126 C1109 1.273 . S
O1127 Eu1104 2.473 . S
O1127 C1109 1.257 . S
H1128 C1114 0.929 . S
H1129 C1116 0.931 . S
H1130 C1118 0.929 . S
O1131 Tb1132 2.292 . S
O1131 C1134 1.255 . S
Tb1132 O1131 2.292 . S
Tb1132 O1148 2.326 . S
Tb1132 O1150 2.500 . S
Tb1132 O1151 2.473 . S
Tb1132 O1154 2.324 . S
Eu1133 O1137 2.292 . S
Eu1133 C1138 2.852 . S
Eu1133 O1149 2.324 . S
Eu1133 O1153 2.326 . S
Eu1133 O1155 2.500 . S
Eu1133 O1156 2.473 . S
C1134 O1131 1.255 . S
C1134 O1135 1.247 . S
O1135 C1134 1.247 . S
C1136 O1148 1.242 . S
C1136 O1149 1.258 . S
O1137 Eu1133 2.292 . S
O1137 C1139 1.255 . S
C1138 Eu1133 2.852 . S
C1138 C1142 1.503 . S
C1138 O1155 1.273 . S
C1138 O1156 1.257 . S
C1139 O1137 1.255 . S
C1139 O1140 1.247 . S
O1140 C1139 1.247 . S
C1141 O1153 1.242 . S
C1141 O1154 1.258 . S
C1142 C1138 1.503 . S
C1142 C1143 1.379 . S
C1142 C1147 1.392 . S
C1143 C1142 1.379 . S
C1143 C1144 1.404 . S
C1143 H1157 0.929 . S
C1144 C1143 1.404 . S
C1144 C1145 1.389 . S
C1145 C1144 1.389 . S
C1145 C1146 1.399 . S
C1145 H1158 0.931 . S
C1146 C1145 1.399 . S
C1146 C1147 1.390 . S
C1147 C1142 1.392 . S
C1147 C1146 1.390 . S
C1147 H1159 0.929 . S
O1148 Tb1132 2.326 . S
O1148 C1136 1.242 . S
O1149 Eu1133 2.324 . S
O1149 C1136 1.258 . S
O1150 Tb1132 2.500 . S
O1150 C1152 1.273 . S
O1151 Tb1132 2.473 . S
O1151 C1152 1.257 . S
C1152 O1150 1.273 . S
C1152 O1151 1.257 . S
O1153 Eu1133 2.326 . S
O1153 C1141 1.242 . S
O1154 Tb1132 2.324 . S
O1154 C1141 1.258 . S
O1155 Eu1133 2.500 . S
O1155 C1138 1.273 . S
O1156 Eu1133 2.473 . S
O1156 C1138 1.257 . S
H1157 C1143 0.929 . S
H1158 C1145 0.931 . S
H1159 C1147 0.929 . S
O1160 Tb1161 2.292 . S
O1160 C1163 1.255 . S
Tb1161 O1160 2.292 . S
Tb1161 O1177 2.326 . S
Tb1161 O1179 2.500 . S
Tb1161 O1180 2.473 . S
Tb1161 O1183 2.324 . S
Eu1162 O1166 2.292 1_556 S
Eu1162 C1167 2.852 . S
Eu1162 O1178 2.324 . S
Eu1162 O1182 2.326 . S
Eu1162 O1184 2.500 . S
Eu1162 O1185 2.473 . S
C1163 O1160 1.255 . S
C1163 O1164 1.247 . S
O1164 C1163 1.247 . S
C1165 O1177 1.242 . S
C1165 O1178 1.258 . S
O1166 Eu1162 2.292 1_554 S
O1166 C1168 1.255 . S
C1167 Eu1162 2.852 . S
C1167 C1171 1.503 . S
C1167 O1184 1.273 . S
C1167 O1185 1.257 . S
C1168 O1166 1.255 . S
C1168 O1169 1.247 . S
O1169 C1168 1.247 . S
C1170 O1182 1.242 . S
C1170 O1183 1.258 . S
C1171 C1167 1.503 . S
C1171 C1172 1.379 . S
C1171 C1176 1.392 . S
C1172 C1171 1.379 . S
C1172 C1173 1.404 . S
C1172 H1186 0.929 . S
C1173 C1172 1.404 . S
C1173 C1174 1.389 . S
C1174 C1173 1.389 . S
C1174 C1175 1.399 . S
C1174 H1187 0.931 . S
C1175 C1174 1.399 . S
C1175 C1176 1.390 . S
C1176 C1171 1.392 . S
C1176 C1175 1.390 . S
C1176 H1188 0.929 . S
O1177 Tb1161 2.326 . S
O1177 C1165 1.242 . S
O1178 Eu1162 2.324 . S
O1178 C1165 1.258 . S
O1179 Tb1161 2.500 . S
O1179 C1181 1.273 . S
O1180 Tb1161 2.473 . S
O1180 C1181 1.257 . S
C1181 O1179 1.273 . S
C1181 O1180 1.257 . S
O1182 Eu1162 2.326 . S
O1182 C1170 1.242 . S
O1183 Tb1161 2.324 . S
O1183 C1170 1.258 . S
O1184 Eu1162 2.500 . S
O1184 C1167 1.273 . S
O1185 Eu1162 2.473 . S
O1185 C1167 1.257 . S
H1186 C1172 0.929 . S
H1187 C1174 0.931 . S
H1188 C1176 0.929 . S
O1189 Tb1190 2.292 . S
O1189 C1192 1.255 . S
Tb1190 O1189 2.292 . S
Tb1190 O1206 2.326 . S
Tb1190 O1208 2.500 . S
Tb1190 O1209 2.473 . S
Tb1190 O1212 2.324 . S
Eu1191 O1195 2.292 . S
Eu1191 C1196 2.852 . S
Eu1191 O1207 2.324 . S
Eu1191 O1211 2.326 . S
Eu1191 O1213 2.500 . S
Eu1191 O1214 2.473 . S
C1192 O1189 1.255 . S
C1192 O1193 1.247 . S
O1193 C1192 1.247 . S
C1194 O1206 1.242 . S
C1194 O1207 1.258 . S
O1195 Eu1191 2.292 . S
O1195 C1197 1.255 . S
C1196 Eu1191 2.852 . S
C1196 C1200 1.503 . S
C1196 O1213 1.273 . S
C1196 O1214 1.257 . S
C1197 O1195 1.255 . S
C1197 O1198 1.247 . S
O1198 C1197 1.247 . S
C1199 O1211 1.242 . S
C1199 O1212 1.258 . S
C1200 C1196 1.503 . S
C1200 C1201 1.379 . S
C1200 C1205 1.392 . S
C1201 C1200 1.379 . S
C1201 C1202 1.404 . S
C1201 H1215 0.929 . S
C1202 C1201 1.404 . S
C1202 C1203 1.389 . S
C1203 C1202 1.389 . S
C1203 C1204 1.399 . S
C1203 H1216 0.931 . S
C1204 C1203 1.399 . S
C1204 C1205 1.390 . S
C1205 C1200 1.392 . S
C1205 C1204 1.390 . S
C1205 H1217 0.929 . S
O1206 Tb1190 2.326 . S
O1206 C1194 1.242 . S
O1207 Eu1191 2.324 . S
O1207 C1194 1.258 . S
O1208 Tb1190 2.500 . S
O1208 C1210 1.273 . S
O1209 Tb1190 2.473 . S
O1209 C1210 1.257 . S
C1210 O1208 1.273 . S
C1210 O1209 1.257 . S
O1211 Eu1191 2.326 . S
O1211 C1199 1.242 . S
O1212 Tb1190 2.324 . S
O1212 C1199 1.258 . S
O1213 Eu1191 2.500 . S
O1213 C1196 1.273 . S
O1214 Eu1191 2.473 . S
O1214 C1196 1.257 . S
H1215 C1201 0.929 . S
H1216 C1203 0.931 . S
H1217 C1205 0.929 . S
O1218 Tb1219 2.292 . S
O1218 C1221 1.255 . S
Tb1219 O1218 2.292 . S
Tb1219 O1235 2.326 . S
Tb1219 O1237 2.500 . S
Tb1219 O1238 2.473 . S
Tb1219 O1241 2.324 . S
Eu1220 O1224 2.292 . S
Eu1220 C1225 2.852 . S
Eu1220 O1236 2.324 . S
Eu1220 O1240 2.326 . S
Eu1220 O1242 2.500 . S
Eu1220 O1243 2.473 . S
C1221 O1218 1.255 . S
C1221 O1222 1.247 . S
O1222 C1221 1.247 . S
C1223 O1235 1.242 . S
C1223 O1236 1.258 . S
O1224 Eu1220 2.292 . S
O1224 C1226 1.255 . S
C1225 Eu1220 2.852 . S
C1225 C1229 1.503 . S
C1225 O1242 1.273 . S
C1225 O1243 1.257 . S
C1226 O1224 1.255 . S
C1226 O1227 1.247 . S
O1227 C1226 1.247 . S
C1228 O1240 1.242 . S
C1228 O1241 1.258 . S
C1229 C1225 1.503 . S
C1229 C1230 1.379 . S
C1229 C1234 1.392 . S
C1230 C1229 1.379 . S
C1230 C1231 1.404 . S
C1230 H1244 0.929 . S
C1231 C1230 1.404 . S
C1231 C1232 1.389 . S
C1232 C1231 1.389 . S
C1232 C1233 1.399 . S
C1232 H1245 0.931 . S
C1233 C1232 1.399 . S
C1233 C1234 1.390 . S
C1234 C1229 1.392 . S
C1234 C1233 1.390 . S
C1234 H1246 0.929 . S
O1235 Tb1219 2.326 . S
O1235 C1223 1.242 . S
O1236 Eu1220 2.324 . S
O1236 C1223 1.258 . S
O1237 Tb1219 2.500 . S
O1237 C1239 1.273 . S
O1238 Tb1219 2.473 . S
O1238 C1239 1.257 . S
C1239 O1237 1.273 . S
C1239 O1238 1.257 . S
O1240 Eu1220 2.326 . S
O1240 C1228 1.242 . S
O1241 Tb1219 2.324 . S
O1241 C1228 1.258 . S
O1242 Eu1220 2.500 . S
O1242 C1225 1.273 . S
O1243 Eu1220 2.473 . S
O1243 C1225 1.257 . S
H1244 C1230 0.929 . S
H1245 C1232 0.931 . S
H1246 C1234 0.929 . S
O1247 Tb1248 2.292 . S
O1247 C1250 1.255 . S
Tb1248 O1247 2.292 . S
Tb1248 O1264 2.326 . S
Tb1248 O1266 2.500 . S
Tb1248 O1267 2.473 . S
Tb1248 O1270 2.324 . S
Eu1249 O1253 2.292 . S
Eu1249 C1254 2.852 . S
Eu1249 O1265 2.324 . S
Eu1249 O1269 2.326 . S
Eu1249 O1271 2.500 . S
Eu1249 O1272 2.473 . S
C1250 O1247 1.255 . S
C1250 O1251 1.247 . S
O1251 C1250 1.247 . S
C1252 O1264 1.242 . S
C1252 O1265 1.258 . S
O1253 Eu1249 2.292 . S
O1253 C1255 1.255 . S
C1254 Eu1249 2.852 . S
C1254 C1258 1.503 . S
C1254 O1271 1.273 . S
C1254 O1272 1.257 . S
C1255 O1253 1.255 . S
C1255 O1256 1.247 . S
O1256 C1255 1.247 . S
C1257 O1269 1.242 . S
C1257 O1270 1.258 . S
C1258 C1254 1.503 . S
C1258 C1259 1.379 . S
C1258 C1263 1.392 . S
C1259 C1258 1.379 . S
C1259 C1260 1.404 . S
C1259 H1273 0.929 . S
C1260 C1259 1.404 . S
C1260 C1261 1.389 . S
C1261 C1260 1.389 . S
C1261 C1262 1.399 . S
C1261 H1274 0.931 . S
C1262 C1261 1.399 . S
C1262 C1263 1.390 . S
C1263 C1258 1.392 . S
C1263 C1262 1.390 . S
C1263 H1275 0.929 . S
O1264 Tb1248 2.326 . S
O1264 C1252 1.242 . S
O1265 Eu1249 2.324 . S
O1265 C1252 1.258 . S
O1266 Tb1248 2.500 . S
O1266 C1268 1.273 . S
O1267 Tb1248 2.473 . S
O1267 C1268 1.257 . S
C1268 O1266 1.273 . S
C1268 O1267 1.257 . S
O1269 Eu1249 2.326 . S
O1269 C1257 1.242 . S
O1270 Tb1248 2.324 . S
O1270 C1257 1.258 . S
O1271 Eu1249 2.500 . S
O1271 C1254 1.273 . S
O1272 Eu1249 2.473 . S
O1272 C1254 1.257 . S
H1273 C1259 0.929 . S
H1274 C1261 0.931 . S
H1275 C1263 0.929 . S
O1276 Tb1277 2.292 . S
O1276 C1279 1.255 . S
Tb1277 O1276 2.292 . S
Tb1277 O1293 2.326 . S
Tb1277 O1295 2.500 . S
Tb1277 O1296 2.473 . S
Tb1277 O1299 2.324 . S
Eu1278 O1282 2.292 . S
Eu1278 C1283 2.852 . S
Eu1278 O1294 2.324 . S
Eu1278 O1298 2.326 . S
Eu1278 O1300 2.500 . S
Eu1278 O1301 2.473 . S
C1279 O1276 1.255 . S
C1279 O1280 1.247 . S
O1280 C1279 1.247 . S
C1281 O1293 1.242 . S
C1281 O1294 1.258 . S
O1282 Eu1278 2.292 . S
O1282 C1284 1.255 . S
C1283 Eu1278 2.852 . S
C1283 C1287 1.503 . S
C1283 O1300 1.273 . S
C1283 O1301 1.257 . S
C1284 O1282 1.255 . S
C1284 O1285 1.247 . S
O1285 C1284 1.247 . S
C1286 O1298 1.242 . S
C1286 O1299 1.258 . S
C1287 C1283 1.503 . S
C1287 C1288 1.379 . S
C1287 C1292 1.392 . S
C1288 C1287 1.379 . S
C1288 C1289 1.404 . S
C1288 H1302 0.929 . S
C1289 C1288 1.404 . S
C1289 C1290 1.389 . S
C1290 C1289 1.389 . S
C1290 C1291 1.399 . S
C1290 H1303 0.931 . S
C1291 C1290 1.399 . S
C1291 C1292 1.390 . S
C1292 C1287 1.392 . S
C1292 C1291 1.390 . S
C1292 H1304 0.929 . S
O1293 Tb1277 2.326 . S
O1293 C1281 1.242 . S
O1294 Eu1278 2.324 . S
O1294 C1281 1.258 . S
O1295 Tb1277 2.500 . S
O1295 C1297 1.273 . S
O1296 Tb1277 2.473 . S
O1296 C1297 1.257 . S
C1297 O1295 1.273 . S
C1297 O1296 1.257 . S
O1298 Eu1278 2.326 . S
O1298 C1286 1.242 . S
O1299 Tb1277 2.324 . S
O1299 C1286 1.258 . S
O1300 Eu1278 2.500 . S
O1300 C1283 1.273 . S
O1301 Eu1278 2.473 . S
O1301 C1283 1.257 . S
H1302 C1288 0.929 . S
H1303 C1290 0.931 . S
H1304 C1292 0.929 . S
O1305 Tb1306 2.292 . S
O1305 C1308 1.255 . S
Tb1306 O1305 2.292 . S
Tb1306 O1322 2.326 . S
Tb1306 O1324 2.500 . S
Tb1306 O1325 2.473 . S
Tb1306 O1328 2.324 . S
Eu1307 O1311 2.292 1_556 S
Eu1307 C1312 2.852 . S
Eu1307 O1323 2.324 . S
Eu1307 O1327 2.326 . S
Eu1307 O1329 2.500 . S
Eu1307 O1330 2.473 . S
C1308 O1305 1.255 . S
C1308 O1309 1.247 . S
O1309 C1308 1.247 . S
C1310 O1322 1.242 . S
C1310 O1323 1.258 . S
O1311 Eu1307 2.292 1_554 S
O1311 C1313 1.255 . S
C1312 Eu1307 2.852 . S
C1312 C1316 1.503 . S
C1312 O1329 1.273 . S
C1312 O1330 1.257 . S
C1313 O1311 1.255 . S
C1313 O1314 1.247 . S
O1314 C1313 1.247 . S
C1315 O1327 1.242 . S
C1315 O1328 1.258 . S
C1316 C1312 1.503 . S
C1316 C1317 1.379 . S
C1316 C1321 1.392 . S
C1317 C1316 1.379 . S
C1317 C1318 1.404 . S
C1317 H1331 0.929 . S
C1318 C1317 1.404 . S
C1318 C1319 1.389 . S
C1319 C1318 1.389 . S
C1319 C1320 1.399 . S
C1319 H1332 0.931 . S
C1320 C1319 1.399 . S
C1320 C1321 1.390 . S
C1321 C1316 1.392 . S
C1321 C1320 1.390 . S
C1321 H1333 0.929 . S
O1322 Tb1306 2.326 . S
O1322 C1310 1.242 . S
O1323 Eu1307 2.324 . S
O1323 C1310 1.258 . S
O1324 Tb1306 2.500 . S
O1324 C1326 1.273 . S
O1325 Tb1306 2.473 . S
O1325 C1326 1.257 . S
C1326 O1324 1.273 . S
C1326 O1325 1.257 . S
O1327 Eu1307 2.326 . S
O1327 C1315 1.242 . S
O1328 Tb1306 2.324 . S
O1328 C1315 1.258 . S
O1329 Eu1307 2.500 . S
O1329 C1312 1.273 . S
O1330 Eu1307 2.473 . S
O1330 C1312 1.257 . S
H1331 C1317 0.929 . S
H1332 C1319 0.931 . S
H1333 C1321 0.929 . S
O1334 Tb1335 2.292 . S
O1334 C1337 1.255 . S
Tb1335 O1334 2.292 . S
Tb1335 O1351 2.326 . S
Tb1335 O1353 2.500 . S
Tb1335 O1354 2.473 . S
Tb1335 O1357 2.324 . S
Eu1336 O1340 2.292 1_556 S
Eu1336 C1341 2.852 . S
Eu1336 O1352 2.324 . S
Eu1336 O1356 2.326 . S
Eu1336 O1358 2.500 . S
Eu1336 O1359 2.473 . S
C1337 O1334 1.255 . S
C1337 O1338 1.247 . S
O1338 C1337 1.247 . S
C1339 O1351 1.242 . S
C1339 O1352 1.258 . S
O1340 Eu1336 2.292 1_554 S
O1340 C1342 1.255 . S
C1341 Eu1336 2.852 . S
C1341 C1345 1.503 . S
C1341 O1358 1.273 . S
C1341 O1359 1.257 . S
C1342 O1340 1.255 . S
C1342 O1343 1.247 . S
O1343 C1342 1.247 . S
C1344 O1356 1.242 . S
C1344 O1357 1.258 . S
C1345 C1341 1.503 . S
C1345 C1346 1.379 . S
C1345 C1350 1.392 . S
C1346 C1345 1.379 . S
C1346 C1347 1.404 . S
C1346 H1360 0.929 . S
C1347 C1346 1.404 . S
C1347 C1348 1.389 . S
C1348 C1347 1.389 . S
C1348 C1349 1.399 . S
C1348 H1361 0.931 . S
C1349 C1348 1.399 . S
C1349 C1350 1.390 . S
C1350 C1345 1.392 . S
C1350 C1349 1.390 . S
C1350 H1362 0.929 . S
O1351 Tb1335 2.326 . S
O1351 C1339 1.242 . S
O1352 Eu1336 2.324 . S
O1352 C1339 1.258 . S
O1353 Tb1335 2.500 . S
O1353 C1355 1.273 . S
O1354 Tb1335 2.473 . S
O1354 C1355 1.257 . S
C1355 O1353 1.273 . S
C1355 O1354 1.257 . S
O1356 Eu1336 2.326 . S
O1356 C1344 1.242 . S
O1357 Tb1335 2.324 . S
O1357 C1344 1.258 . S
O1358 Eu1336 2.500 . S
O1358 C1341 1.273 . S
O1359 Eu1336 2.473 . S
O1359 C1341 1.257 . S
H1360 C1346 0.929 . S
H1361 C1348 0.931 . S
H1362 C1350 0.929 . S
O1363 Tb1364 2.292 . S
O1363 C1366 1.255 . S
Tb1364 O1363 2.292 . S
Tb1364 O1380 2.326 . S
Tb1364 O1382 2.500 . S
Tb1364 O1383 2.473 . S
Tb1364 O1386 2.324 . S
Eu1365 O1369 2.292 1_556 S
Eu1365 C1370 2.852 . S
Eu1365 O1381 2.324 . S
Eu1365 O1385 2.326 . S
Eu1365 O1387 2.500 . S
Eu1365 O1388 2.473 . S
C1366 O1363 1.255 . S
C1366 O1367 1.247 . S
O1367 C1366 1.247 . S
C1368 O1380 1.242 . S
C1368 O1381 1.258 . S
O1369 Eu1365 2.292 1_554 S
O1369 C1371 1.255 . S
C1370 Eu1365 2.852 . S
C1370 C1374 1.503 . S
C1370 O1387 1.273 . S
C1370 O1388 1.257 . S
C1371 O1369 1.255 . S
C1371 O1372 1.247 . S
O1372 C1371 1.247 . S
C1373 O1385 1.242 . S
C1373 O1386 1.258 . S
C1374 C1370 1.503 . S
C1374 C1375 1.379 . S
C1374 C1379 1.392 . S
C1375 C1374 1.379 . S
C1375 C1376 1.404 . S
C1375 H1389 0.929 . S
C1376 C1375 1.404 . S
C1376 C1377 1.389 . S
C1377 C1376 1.389 . S
C1377 C1378 1.399 . S
C1377 H1390 0.931 . S
C1378 C1377 1.399 . S
C1378 C1379 1.390 . S
C1379 C1374 1.392 . S
C1379 C1378 1.390 . S
C1379 H1391 0.929 . S
O1380 Tb1364 2.326 . S
O1380 C1368 1.242 . S
O1381 Eu1365 2.324 . S
O1381 C1368 1.258 . S
O1382 Tb1364 2.500 . S
O1382 C1384 1.273 . S
O1383 Tb1364 2.473 . S
O1383 C1384 1.257 . S
C1384 O1382 1.273 . S
C1384 O1383 1.257 . S
O1385 Eu1365 2.326 . S
O1385 C1373 1.242 . S
O1386 Tb1364 2.324 . S
O1386 C1373 1.258 . S
O1387 Eu1365 2.500 . S
O1387 C1370 1.273 . S
O1388 Eu1365 2.473 . S
O1388 C1370 1.257 . S
H1389 C1375 0.929 . S
H1390 C1377 0.931 . S
H1391 C1379 0.929 . S
H1392 C1398 0.930 . S
H1393 C1401 0.930 . S
H1394 C1402 0.930 . S
H1395 C1403 0.930 . S
H1396 C1406 0.930 . S
H1397 C1407 0.930 . S
C1398 H1392 0.930 . S
C1398 C1399 1.355 . S
C1398 C1400 1.415 . S
C1399 C1398 1.355 . S
C1399 C1401 1.419 . S
C1400 C1398 1.415 . S
C1400 C1405 1.425 1_455 S
C1400 C1407 1.409 . S
C1401 H1393 0.930 . S
C1401 C1399 1.419 . S
C1401 C1402 1.362 1_455 S
C1402 H1394 0.930 . S
C1402 C1401 1.362 1_655 S
C1402 C1405 1.409 . S
C1403 H1395 0.930 . S
C1403 C1404 1.355 . S
C1403 C1405 1.415 . S
C1404 C1403 1.355 . S
C1404 C1406 1.419 . S
C1405 C1400 1.425 1_655 S
C1405 C1402 1.409 . S
C1405 C1403 1.415 . S
C1406 H1396 0.930 . S
C1406 C1404 1.419 . S
C1406 C1407 1.362 1_655 S
C1407 H1397 0.930 . S
C1407 C1400 1.409 . S
C1407 C1406 1.362 1_455 S
H1408 C1414 0.930 . S
H1409 C1417 0.930 . S
H1410 C1418 0.930 . S
H1411 C1419 0.930 1_655 S
H1412 C1422 0.930 . S
H1413 C1423 0.930 . S
C1414 H1408 0.930 . S
C1414 C1415 1.355 . S
C1414 C1416 1.415 1_655 S
C1415 C1414 1.355 . S
C1415 C1417 1.419 . S
C1416 C1414 1.415 1_455 S
C1416 C1421 1.425 1_445 S
C1416 C1423 1.409 . S
C1417 H1409 0.930 . S
C1417 C1415 1.419 . S
C1417 C1418 1.362 1_545 S
C1418 H1410 0.930 . S
C1418 C1417 1.362 1_565 S
C1418 C1421 1.409 . S
C1419 H1411 0.930 1_455 S
C1419 C1420 1.355 . S
C1419 C1421 1.415 1_455 S
C1420 C1419 1.355 . S
C1420 C1422 1.419 . S
C1421 C1416 1.425 1_665 S
C1421 C1418 1.409 . S
C1421 C1419 1.415 1_655 S
C1422 H1412 0.930 . S
C1422 C1420 1.419 . S
C1422 C1423 1.362 1_565 S
C1423 H1413 0.930 . S
C1423 C1416 1.409 . S
C1423 C1422 1.362 1_545 S
H1424 C1430 0.930 . S
H1425 C1433 0.930 . S
H1426 C1434 0.930 . S
H1427 C1435 0.930 . S
H1428 C1438 0.930 . S
H1429 C1439 0.930 . S
C1430 H1424 0.930 . S
C1430 C1431 1.355 . S
C1430 C1432 1.415 1_545 S
C1431 C1430 1.355 . S
C1431 C1433 1.419 . S
C1432 C1430 1.415 1_565 S
C1432 C1437 1.425 . S
C1432 C1439 1.409 . S
C1433 H1425 0.930 . S
C1433 C1431 1.419 . S
C1433 C1434 1.362 . S
C1434 H1426 0.930 . S
C1434 C1433 1.362 . S
C1434 C1437 1.409 1_545 S
C1435 H1427 0.930 . S
C1435 C1436 1.355 . S
C1435 C1437 1.415 . S
C1436 C1435 1.355 . S
C1436 C1438 1.419 . S
C1437 C1432 1.425 . S
C1437 C1434 1.409 1_565 S
C1437 C1435 1.415 . S
C1438 H1428 0.930 . S
C1438 C1436 1.419 . S
C1438 C1439 1.362 . S
C1439 H1429 0.930 . S
C1439 C1432 1.409 . S
C1439 C1438 1.362 . S
H1440 C1446 0.930 . S
H1441 C1449 0.930 . S
H1442 C1450 0.930 . S
H1443 C1451 0.930 . S
H1444 C1454 0.930 . S
H1445 C1455 0.930 . S
C1446 H1440 0.930 . S
C1446 C1447 1.355 . S
C1446 C1448 1.415 . S
C1447 C1446 1.355 . S
C1447 C1449 1.419 . S
C1448 C1446 1.415 . S
C1448 C1453 1.425 . S
C1448 C1455 1.409 . S
C1449 H1441 0.930 . S
C1449 C1447 1.419 . S
C1449 C1450 1.362 . S
C1450 H1442 0.930 . S
C1450 C1449 1.362 . S
C1450 C1453 1.409 . S
C1451 H1443 0.930 . S
C1451 C1452 1.355 . S
C1451 C1453 1.415 . S
C1452 C1451 1.355 . S
C1452 C1454 1.419 . S
C1453 C1448 1.425 . S
C1453 C1450 1.409 . S
C1453 C1451 1.415 . S
C1454 H1444 0.930 . S
C1454 C1452 1.419 . S
C1454 C1455 1.362 . S
C1455 H1445 0.930 . S
C1455 C1448 1.409 . S
C1455 C1454 1.362 . S
H1456 C1462 0.930 1_565 S
H1457 C1465 0.930 . S
H1458 C1466 0.930 . S
H1459 C1467 0.930 . S
H1460 C1470 0.930 . S
H1461 C1471 0.930 . S
C1462 H1456 0.930 1_545 S
C1462 C1463 1.355 . S
C1462 C1464 1.415 1_545 S
C1463 C1462 1.355 . S
C1463 C1465 1.419 . S
C1464 C1462 1.415 1_565 S
C1464 C1469 1.410 1_565 S
C1464 C1471 1.409 . S
C1465 H1457 0.930 . S
C1465 C1463 1.419 . S
C1465 C1466 1.362 . S
C1466 H1458 0.930 . S
C1466 C1465 1.362 . S
C1466 C1469 1.446 . S
C1467 H1459 0.930 . S
C1467 C1468 1.355 . S
C1467 C1469 1.393 1_565 S
C1468 C1467 1.355 . S
C1468 C1470 1.419 . S
C1469 C1464 1.410 1_545 S
C1469 C1466 1.446 . S
C1469 C1467 1.393 1_545 S
C1470 H1460 0.930 . S
C1470 C1468 1.419 . S
C1470 C1471 1.362 . S
C1471 H1461 0.930 . S
C1471 C1464 1.409 . S
C1471 C1470 1.362 . S
H1472 C1478 0.930 . S
H1473 C1481 0.930 . S
H1474 C1482 0.930 . S
H1475 C1483 0.930 . S
H1476 C1486 0.930 . S
H1477 C1487 0.930 . S
C1478 H1472 0.930 . S
C1478 C1479 1.355 . S
C1478 C1480 1.415 . S
C1479 C1478 1.355 . S
C1479 C1481 1.419 . S
C1480 C1478 1.415 . S
C1480 C1485 1.425 . S
C1480 C1487 1.409 . S
C1481 H1473 0.930 . S
C1481 C1479 1.419 . S
C1481 C1482 1.362 . S
C1482 H1474 0.930 . S
C1482 C1481 1.362 . S
C1482 C1485 1.409 . S
C1483 H1475 0.930 . S
C1483 C1484 1.355 . S
C1483 C1485 1.415 . S
C1484 C1483 1.355 . S
C1484 C1486 1.419 . S
C1485 C1480 1.425 . S
C1485 C1482 1.409 . S
C1485 C1483 1.415 . S
C1486 H1476 0.930 . S
C1486 C1484 1.419 . S
C1486 C1487 1.362 . S
C1487 H1477 0.930 . S
C1487 C1480 1.409 . S
C1487 C1486 1.362 . S
H1488 C1494 0.930 . S
H1489 C1497 0.930 . S
H1490 C1498 0.930 . S
H1491 C1499 0.930 . S
H1492 C1502 0.930 . S
H1493 C1503 0.930 . S
C1494 H1488 0.930 . S
C1494 C1495 1.355 . S
C1494 C1496 1.415 . S
C1495 C1494 1.355 . S
C1495 C1497 1.419 . S
C1496 C1494 1.415 . S
C1496 C1501 1.425 . S
C1496 C1503 1.409 . S
C1497 H1489 0.930 . S
C1497 C1495 1.419 . S
C1497 C1498 1.362 . S
C1498 H1490 0.930 . S
C1498 C1497 1.362 . S
C1498 C1501 1.409 . S
C1499 H1491 0.930 . S
C1499 C1500 1.355 . S
C1499 C1501 1.415 . S
C1500 C1499 1.355 . S
C1500 C1502 1.419 . S
C1501 C1496 1.425 . S
C1501 C1498 1.409 . S
C1501 C1499 1.415 . S
C1502 H1492 0.930 . S
C1502 C1500 1.419 . S
C1502 C1503 1.362 . S
C1503 H1493 0.930 . S
C1503 C1496 1.409 . S
C1503 C1502 1.362 . S
H1504 C1510 0.930 . S
H1505 C1513 0.930 . S
H1506 C1514 0.930 . S
H1507 C1515 0.930 1_655 S
H1508 C1518 0.930 . S
H1509 C1519 0.930 . S
C1510 H1504 0.930 . S
C1510 C1511 1.355 . S
C1510 C1512 1.415 1_655 S
C1511 C1510 1.355 . S
C1511 C1513 1.419 . S
C1512 C1510 1.415 1_455 S
C1512 C1517 1.425 1_455 S
C1512 C1519 1.409 . S
C1513 H1505 0.930 . S
C1513 C1511 1.419 . S
C1513 C1514 1.362 . S
C1514 H1506 0.930 . S
C1514 C1513 1.362 . S
C1514 C1517 1.409 . S
C1515 H1507 0.930 1_455 S
C1515 C1516 1.355 . S
C1515 C1517 1.415 1_455 S
C1516 C1515 1.355 . S
C1516 C1518 1.419 . S
C1517 C1512 1.425 1_655 S
C1517 C1514 1.409 . S
C1517 C1515 1.415 1_655 S
C1518 H1508 0.930 . S
C1518 C1516 1.419 . S
C1518 C1519 1.362 . S
C1519 H1509 0.930 . S
C1519 C1512 1.409 . S
C1519 C1518 1.362 . S
H1520 C1526 0.930 . S
H1521 C1529 0.930 . S
H1522 C1530 0.930 . S
H1523 C1531 0.930 . S
H1524 C1534 0.930 . S
H1525 C1535 0.930 . S
C1526 H1520 0.930 . S
C1526 C1527 1.355 . S
C1526 C1528 1.415 1_554 S
C1527 C1526 1.355 . S
C1527 C1529 1.419 . S
C1528 C1526 1.415 1_556 S
C1528 C1533 1.425 . S
C1528 C1535 1.409 . S
C1529 H1521 0.930 . S
C1529 C1527 1.419 . S
C1529 C1530 1.362 . S
C1530 H1522 0.930 . S
C1530 C1529 1.362 . S
C1530 C1533 1.409 1_554 S
C1531 H1523 0.930 . S
C1531 C1532 1.355 . S
C1531 C1533 1.415 . S
C1532 C1531 1.355 . S
C1532 C1534 1.419 . S
C1533 C1528 1.425 . S
C1533 C1530 1.409 1_556 S
C1533 C1531 1.415 . S
C1534 H1524 0.930 . S
C1534 C1532 1.419 . S
C1534 C1535 1.362 . S
C1535 H1525 0.930 . S
C1535 C1528 1.409 . S
C1535 C1534 1.362 . S
H1536 C1542 0.930 . S
H1537 C1545 0.930 . S
H1538 C1546 0.930 . S
H1539 C1547 0.930 . S
H1540 C1550 0.930 . S
H1541 C1551 0.930 . S
C1542 H1536 0.930 . S
C1542 C1543 1.355 . S
C1542 C1544 1.415 1_554 S
C1543 C1542 1.355 . S
C1543 C1545 1.419 . S
C1544 C1542 1.415 1_556 S
C1544 C1549 1.425 1_655 S
C1544 C1551 1.409 . S
C1545 H1537 0.930 . S
C1545 C1543 1.419 . S
C1545 C1546 1.362 1_655 S
C1546 H1538 0.930 . S
C1546 C1545 1.362 1_455 S
C1546 C1549 1.409 1_554 S
C1547 H1539 0.930 . S
C1547 C1548 1.355 . S
C1547 C1549 1.415 . S
C1548 C1547 1.355 . S
C1548 C1550 1.419 . S
C1549 C1544 1.425 1_455 S
C1549 C1546 1.409 1_556 S
C1549 C1547 1.415 . S
C1550 H1540 0.930 . S
C1550 C1548 1.419 . S
C1550 C1551 1.362 1_455 S
C1551 H1541 0.930 . S
C1551 C1544 1.409 . S
C1551 C1550 1.362 1_655 S
H1552 C1558 0.930 . S
H1553 C1561 0.930 . S
H1554 C1562 0.930 . S
H1555 C1563 0.930 . S
H1556 C1566 0.930 . S
H1557 C1567 0.930 . S
C1558 H1552 0.930 . S
C1558 C1559 1.355 . S
C1558 C1560 1.415 1_545 S
C1559 C1558 1.355 . S
C1559 C1561 1.419 . S
C1560 C1558 1.415 1_565 S
C1560 C1565 1.425 . S
C1560 C1567 1.409 1_556 S
C1561 H1553 0.930 . S
C1561 C1559 1.419 . S
C1561 C1562 1.362 . S
C1562 H1554 0.930 . S
C1562 C1561 1.362 . S
C1562 C1565 1.409 1_545 S
C1563 H1555 0.930 . S
C1563 C1564 1.355 . S
C1563 C1565 1.415 1_554 S
C1564 C1563 1.355 . S
C1564 C1566 1.419 . S
C1565 C1560 1.425 . S
C1565 C1562 1.409 1_565 S
C1565 C1563 1.415 1_556 S
C1566 H1556 0.930 . S
C1566 C1564 1.419 . S
C1566 C1567 1.362 . S
C1567 H1557 0.930 . S
C1567 C1560 1.409 1_554 S
C1567 C1566 1.362 . S
H1568 C1574 0.930 . S
H1569 C1577 0.930 . S
H1570 C1578 0.930 . S
H1571 C1579 0.930 . S
H1572 C1582 0.930 . S
H1573 C1583 0.930 . S
C1574 H1568 0.930 . S
C1574 C1575 1.355 . S
C1574 C1576 1.415 . S
C1575 C1574 1.355 . S
C1575 C1577 1.419 . S
C1576 C1574 1.415 . S
C1576 C1581 1.425 1_556 S
C1576 C1583 1.409 . S
C1577 H1569 0.930 . S
C1577 C1575 1.419 . S
C1577 C1578 1.362 1_556 S
C1578 H1570 0.930 . S
C1578 C1577 1.362 1_554 S
C1578 C1581 1.409 . S
C1579 H1571 0.930 . S
C1579 C1580 1.355 . S
C1579 C1581 1.415 . S
C1580 C1579 1.355 . S
C1580 C1582 1.419 . S
C1581 C1576 1.425 1_554 S
C1581 C1578 1.409 . S
C1581 C1579 1.415 . S
C1582 H1572 0.930 . S
C1582 C1580 1.419 . S
C1582 C1583 1.362 1_554 S
C1583 H1573 0.930 . S
C1583 C1576 1.409 . S
C1583 C1582 1.362 1_556 S
H1584 C1590 0.930 . S
H1585 C1593 0.930 . S
H1586 C1594 0.930 . S
H1587 C1595 0.930 . S
H1588 C1598 0.930 . S
H1589 C1599 0.930 . S
C1590 H1584 0.930 . S
C1590 C1591 1.355 . S
C1590 C1592 1.415 . S
C1591 C1590 1.355 . S
C1591 C1593 1.419 . S
C1592 C1590 1.415 . S
C1592 C1597 1.425 1_655 S
C1592 C1599 1.409 . S
C1593 H1585 0.930 . S
C1593 C1591 1.419 . S
C1593 C1594 1.362 1_655 S
C1594 H1586 0.930 . S
C1594 C1593 1.362 1_455 S
C1594 C1597 1.409 . S
C1595 H1587 0.930 . S
C1595 C1596 1.355 . S
C1595 C1597 1.415 . S
C1596 C1595 1.355 . S
C1596 C1598 1.419 . S
C1597 C1592 1.425 1_455 S
C1597 C1594 1.409 . S
C1597 C1595 1.415 . S
C1598 H1588 0.930 . S
C1598 C1596 1.419 . S
C1598 C1599 1.362 1_455 S
C1599 H1589 0.930 . S
C1599 C1592 1.409 . S
C1599 C1598 1.362 1_655 S
H1600 C1606 0.930 . S
H1601 C1609 0.934 . S
H1602 C1610 0.930 . S
H1603 C1611 0.930 1_545 S
H1604 C1614 0.930 . S
H1605 C1615 0.930 . S
C1606 H1600 0.930 . S
C1606 C1607 1.355 . S
C1606 C1608 1.385 1_545 S
C1607 C1606 1.355 . S
C1607 C1609 1.419 . S
C1608 C1606 1.385 1_565 S
C1608 C1613 1.404 1_665 S
C1608 C1615 1.461 . S
C1609 H1601 0.934 . S
C1609 C1607 1.419 . S
C1609 C1610 1.362 1_655 S
C1610 H1602 0.930 . S
C1610 C1609 1.362 1_455 S
C1610 C1613 1.409 . S
C1611 H1603 0.930 1_565 S
C1611 C1612 1.355 . S
C1611 C1613 1.415 1_565 S
C1612 C1611 1.355 . S
C1612 C1614 1.419 . S
C1613 C1608 1.404 1_445 S
C1613 C1610 1.409 . S
C1613 C1611 1.415 1_545 S
C1614 H1604 0.930 . S
C1614 C1612 1.419 . S
C1614 C1615 1.362 1_455 S
C1615 H1605 0.930 . S
C1615 C1608 1.461 . S
C1615 C1614 1.362 1_655 S
H1616 C1622 0.930 . S
H1617 C1625 0.930 . S
H1618 C1626 0.940 . S
H1619 C1627 0.930 . S
H1620 C1630 0.930 . S
H1621 C1631 0.930 . S
C1622 H1616 0.930 . S
C1622 C1623 1.355 . S
C1622 C1624 1.415 1_565 S
C1623 C1622 1.355 . S
C1623 C1625 1.419 . S
C1624 C1622 1.415 1_545 S
C1624 C1629 1.425 . S
C1624 C1631 1.409 . S
C1625 H1617 0.930 . S
C1625 C1623 1.419 . S
C1625 C1626 1.362 . S
C1626 H1618 0.940 . S
C1626 C1625 1.362 . S
C1626 C1629 1.409 1_565 S
C1627 H1619 0.930 . S
C1627 C1628 1.355 . S
C1627 C1629 1.415 . S
C1628 C1627 1.355 . S
C1628 C1630 1.419 . S
C1629 C1624 1.425 . S
C1629 C1626 1.409 1_545 S
C1629 C1627 1.415 . S
C1630 H1620 0.930 . S
C1630 C1628 1.419 . S
C1630 C1631 1.362 . S
C1631 H1621 0.930 . S
C1631 C1624 1.409 . S
C1631 C1630 1.362 . S
H1632 C1638 0.930 . S
H1633 C1641 0.930 . S
H1634 C1642 0.930 . S
H1635 C1643 0.930 . S
H1636 C1646 0.930 . S
H1637 C1647 0.930 . S
C1638 H1632 0.930 . S
C1638 C1639 1.355 . S
C1638 C1640 1.415 . S
C1639 C1638 1.355 . S
C1639 C1641 1.419 . S
C1640 C1638 1.415 . S
C1640 C1645 1.425 . S
C1640 C1647 1.409 . S
C1641 H1633 0.930 . S
C1641 C1639 1.419 . S
C1641 C1642 1.362 . S
C1642 H1634 0.930 . S
C1642 C1641 1.362 . S
C1642 C1645 1.409 . S
C1643 H1635 0.930 . S
C1643 C1644 1.355 . S
C1643 C1645 1.415 . S
C1644 C1643 1.355 . S
C1644 C1646 1.419 . S
C1645 C1640 1.425 . S
C1645 C1642 1.409 . S
C1645 C1643 1.415 . S
C1646 H1636 0.930 . S
C1646 C1644 1.419 . S
C1646 C1647 1.362 . S
C1647 H1637 0.930 . S
C1647 C1640 1.409 . S
C1647 C1646 1.362 . S
H1648 C1654 0.930 . S
H1649 C1657 0.930 . S
H1650 C1658 0.930 . S
H1651 C1659 0.930 . S
H1652 C1662 0.930 . S
H1653 C1663 0.930 . S
C1654 H1648 0.930 . S
C1654 C1655 1.355 . S
C1654 C1656 1.415 1_565 S
C1655 C1654 1.355 . S
C1655 C1657 1.419 . S
C1656 C1654 1.415 1_545 S
C1656 C1661 1.425 . S
C1656 C1663 1.409 . S
C1657 H1649 0.930 . S
C1657 C1655 1.419 . S
C1657 C1658 1.362 . S
C1658 H1650 0.930 . S
C1658 C1657 1.362 . S
C1658 C1661 1.409 1_565 S
C1659 H1651 0.930 . S
C1659 C1660 1.355 . S
C1659 C1661 1.415 . S
C1660 C1659 1.355 . S
C1660 C1662 1.419 . S
C1661 C1656 1.425 . S
C1661 C1658 1.409 1_545 S
C1661 C1659 1.415 . S
C1662 H1652 0.930 . S
C1662 C1660 1.419 . S
C1662 C1663 1.362 . S
C1663 H1653 0.930 . S
C1663 C1656 1.409 . S
C1663 C1662 1.362 . S
H1664 C1670 0.930 . S
H1665 C1673 0.930 . S
H1666 C1674 0.930 . S
H1667 C1675 0.930 . S
H1668 C1678 0.930 . S
H1669 C1679 0.930 . S
C1670 H1664 0.930 . S
C1670 C1671 1.355 . S
C1670 C1672 1.415 . S
C1671 C1670 1.355 . S
C1671 C1673 1.419 . S
C1672 C1670 1.415 . S
C1672 C1677 1.425 . S
C1672 C1679 1.409 . S
C1673 H1665 0.930 . S
C1673 C1671 1.419 . S
C1673 C1674 1.362 . S
C1674 H1666 0.930 . S
C1674 C1673 1.362 . S
C1674 C1677 1.409 . S
C1675 H1667 0.930 . S
C1675 C1676 1.355 . S
C1675 C1677 1.415 . S
C1676 C1675 1.355 . S
C1676 C1678 1.419 . S
C1677 C1672 1.425 . S
C1677 C1674 1.409 . S
C1677 C1675 1.415 . S
C1678 H1668 0.930 . S
C1678 C1676 1.419 . S
C1678 C1679 1.362 . S
C1679 H1669 0.930 . S
C1679 C1672 1.409 . S
C1679 C1678 1.362 . S
H1680 C1686 0.930 . S
H1681 C1689 0.930 . S
H1682 C1690 0.930 . S
H1683 C1691 0.930 . S
H1684 C1694 0.930 . S
H1685 C1695 0.930 . S
C1686 H1680 0.930 . S
C1686 C1687 1.355 . S
C1686 C1688 1.415 . S
C1687 C1686 1.355 . S
C1687 C1689 1.419 . S
C1688 C1686 1.415 . S
C1688 C1693 1.425 . S
C1688 C1695 1.409 . S
C1689 H1681 0.930 . S
C1689 C1687 1.419 . S
C1689 C1690 1.362 . S
C1690 H1682 0.930 . S
C1690 C1689 1.362 . S
C1690 C1693 1.409 . S
C1691 H1683 0.930 . S
C1691 C1692 1.355 . S
C1691 C1693 1.415 . S
C1692 C1691 1.355 . S
C1692 C1694 1.419 . S
C1693 C1688 1.425 . S
C1693 C1690 1.409 . S
C1693 C1691 1.415 . S
C1694 H1684 0.930 . S
C1694 C1692 1.419 . S
C1694 C1695 1.362 . S
C1695 H1685 0.930 . S
C1695 C1688 1.409 . S
C1695 C1694 1.362 . S
H1696 C1702 0.930 . S
H1697 C1705 0.930 . S
H1698 C1706 0.930 . S
H1699 C1707 0.930 . S
H1700 C1710 0.933 . S
H1701 C1711 0.930 . S
C1702 H1696 0.930 . S
C1702 C1703 1.355 . S
C1702 C1704 1.415 . S
C1703 C1702 1.355 . S
C1703 C1705 1.419 . S
C1704 C1702 1.415 . S
C1704 C1709 1.425 1_455 S
C1704 C1711 1.409 . S
C1705 H1697 0.930 . S
C1705 C1703 1.419 . S
C1705 C1706 1.362 1_455 S
C1706 H1698 0.930 . S
C1706 C1705 1.362 1_655 S
C1706 C1709 1.409 . S
C1707 H1699 0.930 . S
C1707 C1708 1.355 . S
C1707 C1709 1.415 . S
C1708 C1707 1.355 . S
C1708 C1710 1.419 . S
C1709 C1704 1.425 1_655 S
C1709 C1706 1.409 . S
C1709 C1707 1.415 . S
C1710 H1700 0.933 . S
C1710 C1708 1.419 . S
C1710 C1711 1.362 1_655 S
C1711 H1701 0.930 . S
C1711 C1704 1.409 . S
C1711 C1710 1.362 1_455 S
H1712 C1718 0.930 . S
H1713 C1721 0.930 . S
H1714 C1722 0.930 . S
H1715 C1723 0.930 . S
H1716 C1726 0.930 . S
H1717 C1727 0.930 . S
C1718 H1712 0.930 . S
C1718 C1719 1.355 . S
C1718 C1720 1.415 . S
C1719 C1718 1.355 . S
C1719 C1721 1.419 . S
C1720 C1718 1.415 . S
C1720 C1725 1.425 . S
C1720 C1727 1.409 1_554 S
C1721 H1713 0.930 . S
C1721 C1719 1.419 . S
C1721 C1722 1.362 . S
C1722 H1714 0.930 . S
C1722 C1721 1.362 . S
C1722 C1725 1.409 . S
C1723 H1715 0.930 . S
C1723 C1724 1.355 . S
C1723 C1725 1.415 1_556 S
C1724 C1723 1.355 . S
C1724 C1726 1.419 . S
C1725 C1720 1.425 . S
C1725 C1722 1.409 . S
C1725 C1723 1.415 1_554 S
C1726 H1716 0.930 . S
C1726 C1724 1.419 . S
C1726 C1727 1.362 . S
C1727 H1717 0.930 . S
C1727 C1720 1.409 1_556 S
C1727 C1726 1.362 . S
H1728 C1734 0.926 1_455 S
H1729 C1737 0.930 . S
H1730 C1738 0.930 . S
H1731 C1739 0.930 . S
H1732 C1742 0.930 . S
H1733 C1743 0.930 . S
C1734 H1728 0.926 1_655 S
C1734 C1735 1.355 . S
C1734 C1736 1.415 1_655 S
C1735 C1734 1.355 . S
C1735 C1737 1.419 . S
C1736 C1734 1.415 1_455 S
C1736 C1741 1.415 1_454 S
C1736 C1743 1.409 . S
C1737 H1729 0.930 . S
C1737 C1735 1.419 . S
C1737 C1738 1.362 1_554 S
C1738 H1730 0.930 . S
C1738 C1737 1.362 1_556 S
C1738 C1741 1.434 . S
C1739 H1731 0.930 . S
C1739 C1740 1.355 . S
C1739 C1741 1.399 1_455 S
C1740 C1739 1.355 . S
C1740 C1742 1.419 . S
C1741 C1736 1.415 1_656 S
C1741 C1738 1.434 . S
C1741 C1739 1.399 1_655 S
C1742 H1732 0.930 . S
C1742 C1740 1.419 . S
C1742 C1743 1.362 1_556 S
C1743 H1733 0.930 . S
C1743 C1736 1.409 . S
C1743 C1742 1.362 1_554 S
H1744 C1750 0.930 . S
H1745 C1753 0.930 . S
H1746 C1754 0.930 . S
H1747 C1755 0.930 . S
H1748 C1758 0.930 . S
H1749 C1759 0.930 1_565 S
C1750 H1744 0.930 . S
C1750 C1751 1.355 . S
C1750 C1752 1.424 . S
C1751 C1750 1.355 . S
C1751 C1753 1.419 . S
C1752 C1750 1.424 . S
C1752 C1757 1.430 1_565 S
C1752 C1759 1.395 1_564 S
C1753 H1745 0.930 . S
C1753 C1751 1.419 . S
C1753 C1754 1.362 1_565 S
C1754 H1746 0.930 . S
C1754 C1753 1.362 1_545 S
C1754 C1757 1.409 . S
C1755 H1747 0.930 . S
C1755 C1756 1.355 . S
C1755 C1757 1.415 1_556 S
C1756 C1755 1.355 . S
C1756 C1758 1.419 . S
C1757 C1752 1.430 1_545 S
C1757 C1754 1.409 . S
C1757 C1755 1.415 1_554 S
C1758 H1748 0.930 . S
C1758 C1756 1.419 . S
C1758 C1759 1.362 . S
C1759 H1749 0.930 1_545 S
C1759 C1752 1.395 1_546 S
C1759 C1758 1.362 . S
H1760 C1766 0.930 . S
H1761 C1769 0.930 . S
H1762 C1770 0.930 . S
H1763 C1771 0.930 . S
H1764 C1774 0.930 . S
H1765 C1775 0.930 . S
C1766 H1760 0.930 . S
C1766 C1767 1.355 . S
C1766 C1768 1.415 . S
C1767 C1766 1.355 . S
C1767 C1769 1.419 . S
C1768 C1766 1.415 . S
C1768 C1773 1.425 1_554 S
C1768 C1775 1.409 . S
C1769 H1761 0.930 . S
C1769 C1767 1.419 . S
C1769 C1770 1.362 1_554 S
C1770 H1762 0.930 . S
C1770 C1769 1.362 1_556 S
C1770 C1773 1.409 . S
C1771 H1763 0.930 . S
C1771 C1772 1.355 . S
C1771 C1773 1.415 . S
C1772 C1771 1.355 . S
C1772 C1774 1.419 . S
C1773 C1768 1.425 1_556 S
C1773 C1770 1.409 . S
C1773 C1771 1.415 . S
C1774 H1764 0.930 . S
C1774 C1772 1.419 . S
C1774 C1775 1.362 1_556 S
C1775 H1765 0.930 . S
C1775 C1768 1.409 . S
C1775 C1774 1.362 1_554 S
H1776 C1782 0.930 . S
H1777 C1785 0.930 . S
H1778 C1786 0.930 . S
H1779 C1787 0.930 . S
H1780 C1790 0.930 . S
H1781 C1791 0.930 . S
C1782 H1776 0.930 . S
C1782 C1783 1.355 . S
C1782 C1784 1.415 . S
C1783 C1782 1.355 . S
C1783 C1785 1.419 . S
C1784 C1782 1.415 . S
C1784 C1789 1.425 . S
C1784 C1791 1.409 . S
C1785 H1777 0.930 . S
C1785 C1783 1.419 . S
C1785 C1786 1.362 . S
C1786 H1778 0.930 . S
C1786 C1785 1.362 . S
C1786 C1789 1.409 . S
C1787 H1779 0.930 . S
C1787 C1788 1.355 . S
C1787 C1789 1.415 . S
C1788 C1787 1.355 . S
C1788 C1790 1.419 . S
C1789 C1784 1.425 . S
C1789 C1786 1.409 . S
C1789 C1787 1.415 . S
C1790 H1780 0.930 . S
C1790 C1788 1.419 . S
C1790 C1791 1.362 . S
C1791 H1781 0.930 . S
C1791 C1784 1.409 . S
C1791 C1790 1.362 . S
H1792 C1798 0.930 . S
H1793 C1801 0.930 . S
H1794 C1802 0.930 . S
H1795 C1803 0.930 . S
H1796 C1806 0.930 . S
H1797 C1807 0.930 . S
C1798 H1792 0.930 . S
C1798 C1799 1.355 . S
C1798 C1800 1.415 . S
C1799 C1798 1.355 . S
C1799 C1801 1.419 . S
C1800 C1798 1.415 . S
C1800 C1805 1.425 . S
C1800 C1807 1.409 . S
C1801 H1793 0.930 . S
C1801 C1799 1.419 . S
C1801 C1802 1.362 . S
C1802 H1794 0.930 . S
C1802 C1801 1.362 . S
C1802 C1805 1.409 . S
C1803 H1795 0.930 . S
C1803 C1804 1.355 . S
C1803 C1805 1.415 . S
C1804 C1803 1.355 . S
C1804 C1806 1.419 . S
C1805 C1800 1.425 . S
C1805 C1802 1.409 . S
C1805 C1803 1.415 . S
C1806 H1796 0.930 . S
C1806 C1804 1.419 . S
C1806 C1807 1.362 . S
C1807 H1797 0.930 . S
C1807 C1800 1.409 . S
C1807 C1806 1.362 . S
H1808 C1814 0.930 . S
H1809 C1817 0.930 . S
H1810 C1818 0.930 . S
H1811 C1819 0.930 . S
H1812 C1822 0.930 . S
H1813 C1823 0.930 . S
C1814 H1808 0.930 . S
C1814 C1815 1.355 . S
C1814 C1816 1.415 . S
C1815 C1814 1.355 . S
C1815 C1817 1.419 . S
C1816 C1814 1.415 . S
C1816 C1821 1.425 . S
C1816 C1823 1.409 . S
C1817 H1809 0.930 . S
C1817 C1815 1.419 . S
C1817 C1818 1.362 . S
C1818 H1810 0.930 . S
C1818 C1817 1.362 . S
C1818 C1821 1.409 . S
C1819 H1811 0.930 . S
C1819 C1820 1.355 . S
C1819 C1821 1.415 . S
C1820 C1819 1.355 . S
C1820 C1822 1.419 . S
C1821 C1816 1.425 . S
C1821 C1818 1.409 . S
C1821 C1819 1.415 . S
C1822 H1812 0.930 . S
C1822 C1820 1.419 . S
C1822 C1823 1.362 . S
C1823 H1813 0.930 . S
C1823 C1816 1.409 . S
C1823 C1822 1.362 . S
H1824 C1830 0.930 . S
H1825 C1833 0.930 . S
H1826 C1834 0.930 . S
H1827 C1835 0.930 . S
H1828 C1838 0.930 . S
H1829 C1839 0.930 . S
C1830 H1824 0.930 . S
C1830 C1831 1.355 . S
C1830 C1832 1.415 . S
C1831 C1830 1.355 . S
C1831 C1833 1.419 . S
C1832 C1830 1.415 . S
C1832 C1837 1.425 . S
C1832 C1839 1.409 . S
C1833 H1825 0.930 . S
C1833 C1831 1.419 . S
C1833 C1834 1.362 . S
C1834 H1826 0.930 . S
C1834 C1833 1.362 . S
C1834 C1837 1.409 . S
C1835 H1827 0.930 . S
C1835 C1836 1.355 . S
C1835 C1837 1.415 . S
C1836 C1835 1.355 . S
C1836 C1838 1.419 . S
C1837 C1832 1.425 . S
C1837 C1834 1.409 . S
C1837 C1835 1.415 . S
C1838 H1828 0.930 . S
C1838 C1836 1.419 . S
C1838 C1839 1.362 . S
C1839 H1829 0.930 . S
C1839 C1832 1.409 . S
C1839 C1838 1.362 . S
H1840 C1846 0.930 . S
H1841 C1849 0.930 . S
H1842 C1850 0.930 . S
H1843 C1851 0.930 . S
H1844 C1854 0.930 . S
H1845 C1855 0.930 . S
C1846 H1840 0.930 . S
C1846 C1847 1.355 . S
C1846 C1848 1.415 . S
C1847 C1846 1.355 . S
C1847 C1849 1.419 . S
C1848 C1846 1.415 . S
C1848 C1853 1.425 . S
C1848 C1855 1.409 . S
C1849 H1841 0.930 . S
C1849 C1847 1.419 . S
C1849 C1850 1.362 . S
C1850 H1842 0.930 . S
C1850 C1849 1.362 . S
C1850 C1853 1.409 . S
C1851 H1843 0.930 . S
C1851 C1852 1.355 . S
C1851 C1853 1.415 . S
C1852 C1851 1.355 . S
C1852 C1854 1.419 . S
C1853 C1848 1.425 . S
C1853 C1850 1.409 . S
C1853 C1851 1.415 . S
C1854 H1844 0.930 . S
C1854 C1852 1.419 . S
C1854 C1855 1.362 . S
C1855 H1845 0.930 . S
C1855 C1848 1.409 . S
C1855 C1854 1.362 . S
H1856 C1862 0.930 . S
H1857 C1865 0.930 . S
H1858 C1866 0.930 . S
H1859 C1867 0.930 . S
H1860 C1870 0.930 . S
H1861 C1871 0.930 . S
C1862 H1856 0.930 . S
C1862 C1863 1.355 . S
C1862 C1864 1.415 . S
C1863 C1862 1.355 . S
C1863 C1865 1.419 . S
C1864 C1862 1.415 . S
C1864 C1869 1.425 . S
C1864 C1871 1.409 . S
C1865 H1857 0.930 . S
C1865 C1863 1.419 . S
C1865 C1866 1.362 . S
C1866 H1858 0.930 . S
C1866 C1865 1.362 . S
C1866 C1869 1.409 . S
C1867 H1859 0.930 . S
C1867 C1868 1.355 . S
C1867 C1869 1.415 . S
C1868 C1867 1.355 . S
C1868 C1870 1.419 . S
C1869 C1864 1.425 . S
C1869 C1866 1.409 . S
C1869 C1867 1.415 . S
C1870 H1860 0.930 . S
C1870 C1868 1.419 . S
C1870 C1871 1.362 . S
C1871 H1861 0.930 . S
C1871 C1864 1.409 . S
C1871 C1870 1.362 . S
H1872 C1878 0.930 . S
H1873 C1881 0.930 . S
H1874 C1882 0.930 . S
H1875 C1883 0.930 . S
H1876 C1886 0.930 . S
H1877 C1887 0.930 . S
C1878 H1872 0.930 . S
C1878 C1879 1.355 . S
C1878 C1880 1.415 . S
C1879 C1878 1.355 . S
C1879 C1881 1.419 . S
C1880 C1878 1.415 . S
C1880 C1885 1.425 . S
C1880 C1887 1.409 . S
C1881 H1873 0.930 . S
C1881 C1879 1.419 . S
C1881 C1882 1.362 . S
C1882 H1874 0.930 . S
C1882 C1881 1.362 . S
C1882 C1885 1.409 . S
C1883 H1875 0.930 . S
C1883 C1884 1.355 . S
C1883 C1885 1.415 . S
C1884 C1883 1.355 . S
C1884 C1886 1.419 . S
C1885 C1880 1.425 . S
C1885 C1882 1.409 . S
C1885 C1883 1.415 . S
C1886 H1876 0.930 . S
C1886 C1884 1.419 . S
C1886 C1887 1.362 . S
C1887 H1877 0.930 . S
C1887 C1880 1.409 . S
C1887 C1886 1.362 . S
H1888 C1894 0.930 . S
H1889 C1897 0.930 . S
H1890 C1898 0.930 . S
H1891 C1899 0.930 . S
H1892 C1902 0.930 . S
H1893 C1903 0.930 . S
C1894 H1888 0.930 . S
C1894 C1895 1.355 . S
C1894 C1896 1.415 . S
C1895 C1894 1.355 . S
C1895 C1897 1.419 . S
C1896 C1894 1.415 . S
C1896 C1901 1.425 . S
C1896 C1903 1.409 . S
C1897 H1889 0.930 . S
C1897 C1895 1.419 . S
C1897 C1898 1.362 . S
C1898 H1890 0.930 . S
C1898 C1897 1.362 . S
C1898 C1901 1.409 . S
C1899 H1891 0.930 . S
C1899 C1900 1.355 . S
C1899 C1901 1.415 . S
C1900 C1899 1.355 . S
C1900 C1902 1.419 . S
C1901 C1896 1.425 . S
C1901 C1898 1.409 . S
C1901 C1899 1.415 . S
C1902 H1892 0.930 . S
C1902 C1900 1.419 . S
C1902 C1903 1.362 . S
C1903 H1893 0.930 . S
C1903 C1896 1.409 . S
C1903 C1902 1.362 . S
H1904 C1910 0.930 . S
H1905 C1913 0.930 . S
H1906 C1914 0.930 . S
H1907 C1915 0.930 . S
H1908 C1918 0.930 . S
H1909 C1919 0.930 . S
C1910 H1904 0.930 . S
C1910 C1911 1.355 . S
C1910 C1912 1.415 . S
C1911 C1910 1.355 . S
C1911 C1913 1.419 . S
C1912 C1910 1.415 . S
C1912 C1917 1.425 . S
C1912 C1919 1.409 . S
C1913 H1905 0.930 . S
C1913 C1911 1.419 . S
C1913 C1914 1.362 . S
C1914 H1906 0.930 . S
C1914 C1913 1.362 . S
C1914 C1917 1.409 . S
C1915 H1907 0.930 . S
C1915 C1916 1.355 . S
C1915 C1917 1.415 . S
C1916 C1915 1.355 . S
C1916 C1918 1.419 . S
C1917 C1912 1.425 . S
C1917 C1914 1.409 . S
C1917 C1915 1.415 . S
C1918 H1908 0.930 . S
C1918 C1916 1.419 . S
C1918 C1919 1.362 . S
C1919 H1909 0.930 . S
C1919 C1912 1.409 . S
C1919 C1918 1.362 . S
H1920 C1926 0.930 . S
H1921 C1929 0.930 . S
H1922 C1930 0.930 . S
H1923 C1931 0.930 . S
H1924 C1934 0.930 . S
H1925 C1935 0.930 . S
C1926 H1920 0.930 . S
C1926 C1927 1.355 . S
C1926 C1928 1.415 . S
C1927 C1926 1.355 . S
C1927 C1929 1.419 . S
C1928 C1926 1.415 . S
C1928 C1933 1.425 . S
C1928 C1935 1.409 . S
C1929 H1921 0.930 . S
C1929 C1927 1.419 . S
C1929 C1930 1.362 . S
C1930 H1922 0.930 . S
C1930 C1929 1.362 . S
C1930 C1933 1.409 . S
C1931 H1923 0.930 . S
C1931 C1932 1.355 . S
C1931 C1933 1.415 . S
C1932 C1931 1.355 . S
C1932 C1934 1.419 . S
C1933 C1928 1.425 . S
C1933 C1930 1.409 . S
C1933 C1931 1.415 . S
C1934 H1924 0.930 . S
C1934 C1932 1.419 . S
C1934 C1935 1.362 . S
C1935 H1925 0.930 . S
C1935 C1928 1.409 . S
C1935 C1934 1.362 . S
H1936 C1942 0.930 . S
H1937 C1945 0.930 . S
H1938 C1946 0.930 . S
H1939 C1947 0.930 . S
H1940 C1950 0.930 . S
H1941 C1951 0.930 . S
C1942 H1936 0.930 . S
C1942 C1943 1.355 . S
C1942 C1944 1.415 . S
C1943 C1942 1.355 . S
C1943 C1945 1.419 . S
C1944 C1942 1.415 . S
C1944 C1949 1.425 . S
C1944 C1951 1.409 . S
C1945 H1937 0.930 . S
C1945 C1943 1.419 . S
C1945 C1946 1.362 . S
C1946 H1938 0.930 . S
C1946 C1945 1.362 . S
C1946 C1949 1.409 . S
C1947 H1939 0.930 . S
C1947 C1948 1.355 . S
C1947 C1949 1.415 . S
C1948 C1947 1.355 . S
C1948 C1950 1.419 . S
C1949 C1944 1.425 . S
C1949 C1946 1.409 . S
C1949 C1947 1.415 . S
C1950 H1940 0.930 . S
C1950 C1948 1.419 . S
C1950 C1951 1.362 . S
C1951 H1941 0.930 . S
C1951 C1944 1.409 . S
C1951 C1950 1.362 . S
H1952 C1958 0.930 . S
H1953 C1961 0.930 . S
H1954 C1962 0.930 . S
H1955 C1963 0.930 . S
H1956 C1966 0.930 . S
H1957 C1967 0.930 . S
C1958 H1952 0.930 . S
C1958 C1959 1.355 . S
C1958 C1960 1.415 . S
C1959 C1958 1.355 . S
C1959 C1961 1.419 . S
C1960 C1958 1.415 . S
C1960 C1965 1.425 . S
C1960 C1967 1.409 . S
C1961 H1953 0.930 . S
C1961 C1959 1.419 . S
C1961 C1962 1.362 . S
C1962 H1954 0.930 . S
C1962 C1961 1.362 . S
C1962 C1965 1.409 . S
C1963 H1955 0.930 . S
C1963 C1964 1.355 . S
C1963 C1965 1.415 . S
C1964 C1963 1.355 . S
C1964 C1966 1.419 . S
C1965 C1960 1.425 . S
C1965 C1962 1.409 . S
C1965 C1963 1.415 . S
C1966 H1956 0.930 . S
C1966 C1964 1.419 . S
C1966 C1967 1.362 . S
C1967 H1957 0.930 . S
C1967 C1960 1.409 . S
C1967 C1966 1.362 . S
H1968 C1974 0.930 . S
H1969 C1977 0.930 . S
H1970 C1978 0.930 . S
H1971 C1979 0.930 . S
H1972 C1982 0.930 . S
H1973 C1983 0.930 . S
C1974 H1968 0.930 . S
C1974 C1975 1.355 . S
C1974 C1976 1.415 . S
C1975 C1974 1.355 . S
C1975 C1977 1.419 . S
C1976 C1974 1.415 . S
C1976 C1981 1.425 . S
C1976 C1983 1.409 . S
C1977 H1969 0.930 . S
C1977 C1975 1.419 . S
C1977 C1978 1.362 . S
C1978 H1970 0.930 . S
C1978 C1977 1.362 . S
C1978 C1981 1.409 . S
C1979 H1971 0.930 . S
C1979 C1980 1.355 . S
C1979 C1981 1.415 . S
C1980 C1979 1.355 . S
C1980 C1982 1.419 . S
C1981 C1976 1.425 . S
C1981 C1978 1.409 . S
C1981 C1979 1.415 . S
C1982 H1972 0.930 . S
C1982 C1980 1.419 . S
C1982 C1983 1.362 . S
C1983 H1973 0.930 . S
C1983 C1976 1.409 . S
C1983 C1982 1.362 . S
H1984 C1990 0.930 . S
H1985 C1993 0.930 . S
H1986 C1994 0.930 . S
H1987 C1995 0.930 . S
H1988 C1998 0.930 . S
H1989 C1999 0.930 . S
C1990 H1984 0.930 . S
C1990 C1991 1.355 . S
C1990 C1992 1.415 . S
C1991 C1990 1.355 . S
C1991 C1993 1.419 . S
C1992 C1990 1.415 . S
C1992 C1997 1.425 . S
C1992 C1999 1.409 . S
C1993 H1985 0.930 . S
C1993 C1991 1.419 . S
C1993 C1994 1.362 . S
C1994 H1986 0.930 . S
C1994 C1993 1.362 . S
C1994 C1997 1.409 . S
C1995 H1987 0.930 . S
C1995 C1996 1.355 . S
C1995 C1997 1.415 . S
C1996 C1995 1.355 . S
C1996 C1998 1.419 . S
C1997 C1992 1.425 . S
C1997 C1994 1.409 . S
C1997 C1995 1.415 . S
C1998 H1988 0.930 . S
C1998 C1996 1.419 . S
C1998 C1999 1.362 . S
C1999 H1989 0.930 . S
C1999 C1992 1.409 . S
C1999 C1998 1.362 . S
H2000 C2006 0.930 . S
H2001 C2009 0.930 . S
H2002 C2010 0.930 . S
H2003 C2011 0.930 . S
H2004 C2014 0.930 . S
H2005 C2015 0.930 . S
C2006 H2000 0.930 . S
C2006 C2007 1.355 . S
C2006 C2008 1.415 . S
C2007 C2006 1.355 . S
C2007 C2009 1.419 . S
C2008 C2006 1.415 . S
C2008 C2013 1.425 . S
C2008 C2015 1.409 . S
C2009 H2001 0.930 . S
C2009 C2007 1.419 . S
C2009 C2010 1.362 . S
C2010 H2002 0.930 . S
C2010 C2009 1.362 . S
C2010 C2013 1.409 . S
C2011 H2003 0.930 . S
C2011 C2012 1.355 . S
C2011 C2013 1.415 . S
C2012 C2011 1.355 . S
C2012 C2014 1.419 . S
C2013 C2008 1.425 . S
C2013 C2010 1.409 . S
C2013 C2011 1.415 . S
C2014 H2004 0.930 . S
C2014 C2012 1.419 . S
C2014 C2015 1.362 . S
C2015 H2005 0.930 . S
C2015 C2008 1.409 . S
C2015 C2014 1.362 . S
H2016 C2022 0.930 . S
H2017 C2025 0.930 . S
H2018 C2026 0.930 . S
H2019 C2027 0.930 . S
H2020 C2030 0.930 . S
H2021 C2031 0.930 . S
C2022 H2016 0.930 . S
C2022 C2023 1.355 . S
C2022 C2024 1.415 . S
C2023 C2022 1.355 . S
C2023 C2025 1.419 . S
C2024 C2022 1.415 . S
C2024 C2029 1.425 . S
C2024 C2031 1.409 . S
C2025 H2017 0.930 . S
C2025 C2023 1.419 . S
C2025 C2026 1.362 . S
C2026 H2018 0.930 . S
C2026 C2025 1.362 . S
C2026 C2029 1.409 . S
C2027 H2019 0.930 . S
C2027 C2028 1.355 . S
C2027 C2029 1.415 . S
C2028 C2027 1.355 . S
C2028 C2030 1.419 . S
C2029 C2024 1.425 . S
C2029 C2026 1.409 . S
C2029 C2027 1.415 . S
C2030 H2020 0.930 . S
C2030 C2028 1.419 . S
C2030 C2031 1.362 . S
C2031 H2021 0.930 . S
C2031 C2024 1.409 . S
C2031 C2030 1.362 . S
H2032 C2038 0.930 . S
H2033 C2041 0.930 . S
H2034 C2042 0.930 . S
H2035 C2043 0.930 . S
H2036 C2046 0.930 . S
H2037 C2047 0.930 . S
C2038 H2032 0.930 . S
C2038 C2039 1.355 . S
C2038 C2040 1.415 . S
C2039 C2038 1.355 . S
C2039 C2041 1.419 . S
C2040 C2038 1.415 . S
C2040 C2045 1.425 . S
C2040 C2047 1.409 . S
C2041 H2033 0.930 . S
C2041 C2039 1.419 . S
C2041 C2042 1.362 . S
C2042 H2034 0.930 . S
C2042 C2041 1.362 . S
C2042 C2045 1.409 . S
C2043 H2035 0.930 . S
C2043 C2044 1.355 . S
C2043 C2045 1.415 . S
C2044 C2043 1.355 . S
C2044 C2046 1.419 . S
C2045 C2040 1.425 . S
C2045 C2042 1.409 . S
C2045 C2043 1.415 . S
C2046 H2036 0.930 . S
C2046 C2044 1.419 . S
C2046 C2047 1.362 . S
C2047 H2037 0.930 . S
C2047 C2040 1.409 . S
C2047 C2046 1.362 . S
H2048 C2054 0.930 . S
H2049 C2057 0.930 . S
H2050 C2058 0.930 . S
H2051 C2059 0.930 . S
H2052 C2062 0.930 . S
H2053 C2063 0.930 . S
C2054 H2048 0.930 . S
C2054 C2055 1.355 . S
C2054 C2056 1.415 . S
C2055 C2054 1.355 . S
C2055 C2057 1.419 . S
C2056 C2054 1.415 . S
C2056 C2061 1.425 . S
C2056 C2063 1.409 . S
C2057 H2049 0.930 . S
C2057 C2055 1.419 . S
C2057 C2058 1.362 . S
C2058 H2050 0.930 . S
C2058 C2057 1.362 . S
C2058 C2061 1.409 . S
C2059 H2051 0.930 . S
C2059 C2060 1.355 . S
C2059 C2061 1.415 . S
C2060 C2059 1.355 . S
C2060 C2062 1.419 . S
C2061 C2056 1.425 . S
C2061 C2058 1.409 . S
C2061 C2059 1.415 . S
C2062 H2052 0.930 . S
C2062 C2060 1.419 . S
C2062 C2063 1.362 . S
C2063 H2053 0.930 . S
C2063 C2056 1.409 . S
C2063 C2062 1.362 . S
H2064 C2070 0.930 . S
H2065 C2073 0.930 . S
H2066 C2074 0.930 . S
H2067 C2075 0.930 . S
H2068 C2078 0.930 . S
H2069 C2079 0.930 . S
C2070 H2064 0.930 . S
C2070 C2071 1.355 . S
C2070 C2072 1.415 . S
C2071 C2070 1.355 . S
C2071 C2073 1.419 . S
C2072 C2070 1.415 . S
C2072 C2077 1.425 . S
C2072 C2079 1.409 . S
C2073 H2065 0.930 . S
C2073 C2071 1.419 . S
C2073 C2074 1.362 . S
C2074 H2066 0.930 . S
C2074 C2073 1.362 . S
C2074 C2077 1.409 . S
C2075 H2067 0.930 . S
C2075 C2076 1.355 . S
C2075 C2077 1.415 . S
C2076 C2075 1.355 . S
C2076 C2078 1.419 . S
C2077 C2072 1.425 . S
C2077 C2074 1.409 . S
C2077 C2075 1.415 . S
C2078 H2068 0.930 . S
C2078 C2076 1.419 . S
C2078 C2079 1.362 . S
C2079 H2069 0.930 . S
C2079 C2072 1.409 . S
C2079 C2078 1.362 . S
H2080 C2086 0.930 . S
H2081 C2089 0.930 . S
H2082 C2090 0.930 . S
H2083 C2091 0.930 . S
H2084 C2094 0.930 . S
H2085 C2095 0.930 . S
C2086 H2080 0.930 . S
C2086 C2087 1.355 . S
C2086 C2088 1.415 . S
C2087 C2086 1.355 . S
C2087 C2089 1.419 . S
C2088 C2086 1.415 . S
C2088 C2093 1.425 . S
C2088 C2095 1.409 . S
C2089 H2081 0.930 . S
C2089 C2087 1.419 . S
C2089 C2090 1.362 . S
C2090 H2082 0.930 . S
C2090 C2089 1.362 . S
C2090 C2093 1.409 . S
C2091 H2083 0.930 . S
C2091 C2092 1.355 . S
C2091 C2093 1.415 . S
C2092 C2091 1.355 . S
C2092 C2094 1.419 . S
C2093 C2088 1.425 . S
C2093 C2090 1.409 . S
C2093 C2091 1.415 . S
C2094 H2084 0.930 . S
C2094 C2092 1.419 . S
C2094 C2095 1.362 . S
C2095 H2085 0.930 . S
C2095 C2088 1.409 . S
C2095 C2094 1.362 . S
H2096 C2102 0.930 . S
H2097 C2105 0.930 . S
H2098 C2106 0.930 . S
H2099 C2107 0.930 . S
H2100 C2110 0.930 . S
H2101 C2111 0.930 . S
C2102 H2096 0.930 . S
C2102 C2103 1.355 . S
C2102 C2104 1.415 . S
C2103 C2102 1.355 . S
C2103 C2105 1.419 . S
C2104 C2102 1.415 . S
C2104 C2109 1.425 . S
C2104 C2111 1.409 . S
C2105 H2097 0.930 . S
C2105 C2103 1.419 . S
C2105 C2106 1.362 . S
C2106 H2098 0.930 . S
C2106 C2105 1.362 . S
C2106 C2109 1.409 . S
C2107 H2099 0.930 . S
C2107 C2108 1.355 . S
C2107 C2109 1.415 . S
C2108 C2107 1.355 . S
C2108 C2110 1.419 . S
C2109 C2104 1.425 . S
C2109 C2106 1.409 . S
C2109 C2107 1.415 . S
C2110 H2100 0.930 . S
C2110 C2108 1.419 . S
C2110 C2111 1.362 . S
C2111 H2101 0.930 . S
C2111 C2104 1.409 . S
C2111 C2110 1.362 . S
H2112 C2118 0.930 . S
H2113 C2121 0.930 . S
H2114 C2122 0.930 . S
H2115 C2123 0.930 . S
H2116 C2126 0.930 . S
H2117 C2127 0.930 . S
C2118 H2112 0.930 . S
C2118 C2119 1.355 . S
C2118 C2120 1.415 . S
C2119 C2118 1.355 . S
C2119 C2121 1.419 . S
C2120 C2118 1.415 . S
C2120 C2125 1.425 . S
C2120 C2127 1.409 . S
C2121 H2113 0.930 . S
C2121 C2119 1.419 . S
C2121 C2122 1.362 . S
C2122 H2114 0.930 . S
C2122 C2121 1.362 . S
C2122 C2125 1.409 . S
C2123 H2115 0.930 . S
C2123 C2124 1.355 . S
C2123 C2125 1.415 . S
C2124 C2123 1.355 . S
C2124 C2126 1.419 . S
C2125 C2120 1.425 . S
C2125 C2122 1.409 . S
C2125 C2123 1.415 . S
C2126 H2116 0.930 . S
C2126 C2124 1.419 . S
C2126 C2127 1.362 . S
C2127 H2117 0.930 . S
C2127 C2120 1.409 . S
C2127 C2126 1.362 . S
H2128 C2134 0.930 . S
H2129 C2137 0.930 . S
H2130 C2138 0.930 . S
H2131 C2139 0.930 . S
H2132 C2142 0.930 . S
H2133 C2143 0.930 . S
C2134 H2128 0.930 . S
C2134 C2135 1.355 . S
C2134 C2136 1.415 . S
C2135 C2134 1.355 . S
C2135 C2137 1.419 . S
C2136 C2134 1.415 . S
C2136 C2141 1.425 . S
C2136 C2143 1.409 . S
C2137 H2129 0.930 . S
C2137 C2135 1.419 . S
C2137 C2138 1.362 . S
C2138 H2130 0.930 . S
C2138 C2137 1.362 . S
C2138 C2141 1.409 . S
C2139 H2131 0.930 . S
C2139 C2140 1.355 . S
C2139 C2141 1.415 . S
C2140 C2139 1.355 . S
C2140 C2142 1.419 . S
C2141 C2136 1.425 . S
C2141 C2138 1.409 . S
C2141 C2139 1.415 . S
C2142 H2132 0.930 . S
C2142 C2140 1.419 . S
C2142 C2143 1.362 . S
C2143 H2133 0.930 . S
C2143 C2136 1.409 . S
C2143 C2142 1.362 . S
H2144 C2150 0.930 . S
H2145 C2153 0.930 . S
H2146 C2154 0.930 . S
H2147 C2155 0.930 . S
H2148 C2158 0.930 . S
H2149 C2159 0.930 . S
C2150 H2144 0.930 . S
C2150 C2151 1.355 . S
C2150 C2152 1.415 . S
C2151 C2150 1.355 . S
C2151 C2153 1.419 . S
C2152 C2150 1.415 . S
C2152 C2157 1.425 . S
C2152 C2159 1.409 . S
C2153 H2145 0.930 . S
C2153 C2151 1.419 . S
C2153 C2154 1.362 . S
C2154 H2146 0.930 . S
C2154 C2153 1.362 . S
C2154 C2157 1.409 . S
C2155 H2147 0.930 . S
C2155 C2156 1.355 . S
C2155 C2157 1.415 . S
C2156 C2155 1.355 . S
C2156 C2158 1.419 . S
C2157 C2152 1.425 . S
C2157 C2154 1.409 . S
C2157 C2155 1.415 . S
C2158 H2148 0.930 . S
C2158 C2156 1.419 . S
C2158 C2159 1.362 . S
C2159 H2149 0.930 . S
C2159 C2152 1.409 . S
C2159 C2158 1.362 . S
H2160 C2166 0.930 . S
H2161 C2169 0.930 . S
H2162 C2170 0.930 . S
H2163 C2171 0.930 . S
H2164 C2174 0.930 . S
H2165 C2175 0.930 . S
C2166 H2160 0.930 . S
C2166 C2167 1.355 . S
C2166 C2168 1.415 . S
C2167 C2166 1.355 . S
C2167 C2169 1.419 . S
C2168 C2166 1.415 . S
C2168 C2173 1.425 . S
C2168 C2175 1.409 . S
C2169 H2161 0.930 . S
C2169 C2167 1.419 . S
C2169 C2170 1.362 . S
C2170 H2162 0.930 . S
C2170 C2169 1.362 . S
C2170 C2173 1.409 . S
C2171 H2163 0.930 . S
C2171 C2172 1.355 . S
C2171 C2173 1.415 . S
C2172 C2171 1.355 . S
C2172 C2174 1.419 . S
C2173 C2168 1.425 . S
C2173 C2170 1.409 . S
C2173 C2171 1.415 . S
C2174 H2164 0.930 . S
C2174 C2172 1.419 . S
C2174 C2175 1.362 . S
C2175 H2165 0.930 . S
C2175 C2168 1.409 . S
C2175 C2174 1.362 . S
H2176 C2182 0.930 . S
H2177 C2185 0.930 . S
H2178 C2186 0.930 . S
H2179 C2187 0.930 . S
H2180 C2190 0.930 . S
H2181 C2191 0.930 . S
C2182 H2176 0.930 . S
C2182 C2183 1.355 . S
C2182 C2184 1.415 . S
C2183 C2182 1.355 . S
C2183 C2185 1.419 . S
C2184 C2182 1.415 . S
C2184 C2189 1.425 . S
C2184 C2191 1.409 . S
C2185 H2177 0.930 . S
C2185 C2183 1.419 . S
C2185 C2186 1.362 . S
C2186 H2178 0.930 . S
C2186 C2185 1.362 . S
C2186 C2189 1.409 . S
C2187 H2179 0.930 . S
C2187 C2188 1.355 . S
C2187 C2189 1.415 . S
C2188 C2187 1.355 . S
C2188 C2190 1.419 . S
C2189 C2184 1.425 . S
C2189 C2186 1.409 . S
C2189 C2187 1.415 . S
C2190 H2180 0.930 . S
C2190 C2188 1.419 . S
C2190 C2191 1.362 . S
C2191 H2181 0.930 . S
C2191 C2184 1.409 . S
C2191 C2190 1.362 . S
H2192 C2198 0.930 . S
H2193 C2201 0.930 . S
H2194 C2202 0.930 . S
H2195 C2203 0.930 . S
H2196 C2206 0.930 . S
H2197 C2207 0.930 . S
C2198 H2192 0.930 . S
C2198 C2199 1.355 . S
C2198 C2200 1.415 . S
C2199 C2198 1.355 . S
C2199 C2201 1.419 . S
C2200 C2198 1.415 . S
C2200 C2205 1.425 . S
C2200 C2207 1.409 . S
C2201 H2193 0.930 . S
C2201 C2199 1.419 . S
C2201 C2202 1.362 . S
C2202 H2194 0.930 . S
C2202 C2201 1.362 . S
C2202 C2205 1.409 . S
C2203 H2195 0.930 . S
C2203 C2204 1.355 . S
C2203 C2205 1.415 . S
C2204 C2203 1.355 . S
C2204 C2206 1.419 . S
C2205 C2200 1.425 . S
C2205 C2202 1.409 . S
C2205 C2203 1.415 . S
C2206 H2196 0.930 . S
C2206 C2204 1.419 . S
C2206 C2207 1.362 . S
C2207 H2197 0.930 . S
C2207 C2200 1.409 . S
C2207 C2206 1.362 . S
H2208 C2214 0.930 . S
H2209 C2217 0.930 . S
H2210 C2218 0.930 . S
H2211 C2219 0.930 . S
H2212 C2222 0.930 . S
H2213 C2223 0.930 . S
C2214 H2208 0.930 . S
C2214 C2215 1.355 . S
C2214 C2216 1.415 . S
C2215 C2214 1.355 . S
C2215 C2217 1.419 . S
C2216 C2214 1.415 . S
C2216 C2221 1.425 . S
C2216 C2223 1.409 . S
C2217 H2209 0.930 . S
C2217 C2215 1.419 . S
C2217 C2218 1.362 . S
C2218 H2210 0.930 . S
C2218 C2217 1.362 . S
C2218 C2221 1.409 . S
C2219 H2211 0.930 . S
C2219 C2220 1.355 . S
C2219 C2221 1.415 . S
C2220 C2219 1.355 . S
C2220 C2222 1.419 . S
C2221 C2216 1.425 . S
C2221 C2218 1.409 . S
C2221 C2219 1.415 . S
C2222 H2212 0.930 . S
C2222 C2220 1.419 . S
C2222 C2223 1.362 . S
C2223 H2213 0.930 . S
C2223 C2216 1.409 . S
C2223 C2222 1.362 . S
H2224 C2230 0.930 . S
H2225 C2233 0.930 . S
H2226 C2234 0.930 . S
H2227 C2235 0.930 . S
H2228 C2238 0.930 . S
H2229 C2239 0.930 . S
C2230 H2224 0.930 . S
C2230 C2231 1.355 . S
C2230 C2232 1.415 . S
C2231 C2230 1.355 . S
C2231 C2233 1.419 . S
C2232 C2230 1.415 . S
C2232 C2237 1.425 . S
C2232 C2239 1.409 . S
C2233 H2225 0.930 . S
C2233 C2231 1.419 . S
C2233 C2234 1.362 . S
C2234 H2226 0.930 . S
C2234 C2233 1.362 . S
C2234 C2237 1.409 . S
C2235 H2227 0.930 . S
C2235 C2236 1.355 . S
C2235 C2237 1.415 . S
C2236 C2235 1.355 . S
C2236 C2238 1.419 . S
C2237 C2232 1.425 . S
C2237 C2234 1.409 . S
C2237 C2235 1.415 . S
C2238 H2228 0.930 . S
C2238 C2236 1.419 . S
C2238 C2239 1.362 . S
C2239 H2229 0.930 . S
C2239 C2232 1.409 . S
C2239 C2238 1.362 . S
H2240 C2246 0.930 . S
H2241 C2249 0.930 . S
H2242 C2250 0.930 . S
H2243 C2251 0.930 . S
H2244 C2254 0.930 . S
H2245 C2255 0.930 . S
C2246 H2240 0.930 . S
C2246 C2247 1.355 . S
C2246 C2248 1.415 . S
C2247 C2246 1.355 . S
C2247 C2249 1.419 . S
C2248 C2246 1.415 . S
C2248 C2253 1.425 . S
C2248 C2255 1.409 . S
C2249 H2241 0.930 . S
C2249 C2247 1.419 . S
C2249 C2250 1.362 . S
C2250 H2242 0.930 . S
C2250 C2249 1.362 . S
C2250 C2253 1.409 . S
C2251 H2243 0.930 . S
C2251 C2252 1.355 . S
C2251 C2253 1.415 . S
C2252 C2251 1.355 . S
C2252 C2254 1.419 . S
C2253 C2248 1.425 . S
C2253 C2250 1.409 . S
C2253 C2251 1.415 . S
C2254 H2244 0.930 . S
C2254 C2252 1.419 . S
C2254 C2255 1.362 . S
C2255 H2245 0.930 . S
C2255 C2248 1.409 . S
C2255 C2254 1.362 . S
H2256 C2262 0.930 . S
H2257 C2265 0.930 . S
H2258 C2266 0.930 . S
H2259 C2267 0.930 . S
H2260 C2270 0.930 . S
H2261 C2271 0.930 . S
C2262 H2256 0.930 . S
C2262 C2263 1.355 . S
C2262 C2264 1.415 . S
C2263 C2262 1.355 . S
C2263 C2265 1.419 . S
C2264 C2262 1.415 . S
C2264 C2269 1.425 . S
C2264 C2271 1.409 . S
C2265 H2257 0.930 . S
C2265 C2263 1.419 . S
C2265 C2266 1.362 . S
C2266 H2258 0.930 . S
C2266 C2265 1.362 . S
C2266 C2269 1.409 . S
C2267 H2259 0.930 . S
C2267 C2268 1.355 . S
C2267 C2269 1.415 . S
C2268 C2267 1.355 . S
C2268 C2270 1.419 . S
C2269 C2264 1.425 . S
C2269 C2266 1.409 . S
C2269 C2267 1.415 . S
C2270 H2260 0.930 . S
C2270 C2268 1.419 . S
C2270 C2271 1.362 . S
C2271 H2261 0.930 . S
C2271 C2264 1.409 . S
C2271 C2270 1.362 . S
H2272 C2278 0.930 . S
H2273 C2281 0.930 . S
H2274 C2282 0.930 . S
H2275 C2283 0.930 . S
H2276 C2286 0.930 . S
H2277 C2287 0.930 . S
C2278 H2272 0.930 . S
C2278 C2279 1.355 . S
C2278 C2280 1.415 . S
C2279 C2278 1.355 . S
C2279 C2281 1.419 . S
C2280 C2278 1.415 . S
C2280 C2285 1.425 . S
C2280 C2287 1.409 . S
C2281 H2273 0.930 . S
C2281 C2279 1.419 . S
C2281 C2282 1.362 . S
C2282 H2274 0.930 . S
C2282 C2281 1.362 . S
C2282 C2285 1.409 . S
C2283 H2275 0.930 . S
C2283 C2284 1.355 . S
C2283 C2285 1.415 . S
C2284 C2283 1.355 . S
C2284 C2286 1.419 . S
C2285 C2280 1.425 . S
C2285 C2282 1.409 . S
C2285 C2283 1.415 . S
C2286 H2276 0.930 . S
C2286 C2284 1.419 . S
C2286 C2287 1.362 . S
C2287 H2277 0.930 . S
C2287 C2280 1.409 . S
C2287 C2286 1.362 . S
H2288 C2294 0.930 . S
H2289 C2297 0.930 . S
H2290 C2298 0.930 . S
H2291 C2299 0.930 . S
H2292 C2302 0.930 . S
H2293 C2303 0.930 . S
C2294 H2288 0.930 . S
C2294 C2295 1.355 . S
C2294 C2296 1.415 . S
C2295 C2294 1.355 . S
C2295 C2297 1.419 . S
C2296 C2294 1.415 . S
C2296 C2301 1.425 . S
C2296 C2303 1.409 . S
C2297 H2289 0.930 . S
C2297 C2295 1.419 . S
C2297 C2298 1.362 . S
C2298 H2290 0.930 . S
C2298 C2297 1.362 . S
C2298 C2301 1.409 . S
C2299 H2291 0.930 . S
C2299 C2300 1.355 . S
C2299 C2301 1.415 . S
C2300 C2299 1.355 . S
C2300 C2302 1.419 . S
C2301 C2296 1.425 . S
C2301 C2298 1.409 . S
C2301 C2299 1.415 . S
C2302 H2292 0.930 . S
C2302 C2300 1.419 . S
C2302 C2303 1.362 . S
C2303 H2293 0.930 . S
C2303 C2296 1.409 . S
C2303 C2302 1.362 . S
H2304 C2310 0.930 . S
H2305 C2313 0.930 . S
H2306 C2314 0.930 . S
H2307 C2315 0.930 . S
H2308 C2318 0.930 . S
H2309 C2319 0.930 . S
C2310 H2304 0.930 . S
C2310 C2311 1.355 . S
C2310 C2312 1.415 . S
C2311 C2310 1.355 . S
C2311 C2313 1.419 . S
C2312 C2310 1.415 . S
C2312 C2317 1.425 . S
C2312 C2319 1.409 . S
C2313 H2305 0.930 . S
C2313 C2311 1.419 . S
C2313 C2314 1.362 . S
C2314 H2306 0.930 . S
C2314 C2313 1.362 . S
C2314 C2317 1.409 . S
C2315 H2307 0.930 . S
C2315 C2316 1.355 . S
C2315 C2317 1.415 . S
C2316 C2315 1.355 . S
C2316 C2318 1.419 . S
C2317 C2312 1.425 . S
C2317 C2314 1.409 . S
C2317 C2315 1.415 . S
C2318 H2308 0.930 . S
C2318 C2316 1.419 . S
C2318 C2319 1.362 . S
C2319 H2309 0.930 . S
C2319 C2312 1.409 . S
C2319 C2318 1.362 . S
H2320 C2326 0.930 . S
H2321 C2329 0.930 . S
H2322 C2330 0.930 . S
H2323 C2331 0.930 . S
H2324 C2334 0.930 . S
H2325 C2335 0.930 . S
C2326 H2320 0.930 . S
C2326 C2327 1.355 . S
C2326 C2328 1.415 . S
C2327 C2326 1.355 . S
C2327 C2329 1.419 . S
C2328 C2326 1.415 . S
C2328 C2333 1.425 . S
C2328 C2335 1.409 . S
C2329 H2321 0.930 . S
C2329 C2327 1.419 . S
C2329 C2330 1.362 . S
C2330 H2322 0.930 . S
C2330 C2329 1.362 . S
C2330 C2333 1.409 . S
C2331 H2323 0.930 . S
C2331 C2332 1.355 . S
C2331 C2333 1.415 . S
C2332 C2331 1.355 . S
C2332 C2334 1.419 . S
C2333 C2328 1.425 . S
C2333 C2330 1.409 . S
C2333 C2331 1.415 . S
C2334 H2324 0.930 . S
C2334 C2332 1.419 . S
C2334 C2335 1.362 . S
C2335 H2325 0.930 . S
C2335 C2328 1.409 . S
C2335 C2334 1.362 . S
H2336 C2342 0.930 . S
H2337 C2345 0.930 . S
H2338 C2346 0.930 . S
H2339 C2347 0.930 . S
H2340 C2350 0.930 . S
H2341 C2351 0.930 . S
C2342 H2336 0.930 . S
C2342 C2343 1.355 . S
C2342 C2344 1.415 . S
C2343 C2342 1.355 . S
C2343 C2345 1.419 . S
C2344 C2342 1.415 . S
C2344 C2349 1.425 . S
C2344 C2351 1.409 . S
C2345 H2337 0.930 . S
C2345 C2343 1.419 . S
C2345 C2346 1.362 . S
C2346 H2338 0.930 . S
C2346 C2345 1.362 . S
C2346 C2349 1.409 . S
C2347 H2339 0.930 . S
C2347 C2348 1.355 . S
C2347 C2349 1.415 . S
C2348 C2347 1.355 . S
C2348 C2350 1.419 . S
C2349 C2344 1.425 . S
C2349 C2346 1.409 . S
C2349 C2347 1.415 . S
C2350 H2340 0.930 . S
C2350 C2348 1.419 . S
C2350 C2351 1.362 . S
C2351 H2341 0.930 . S
C2351 C2344 1.409 . S
C2351 C2350 1.362 . S
H2352 C2358 0.930 . S
H2353 C2361 0.930 . S
H2354 C2362 0.930 . S
H2355 C2363 0.930 . S
H2356 C2366 0.930 . S
H2357 C2367 0.930 . S
C2358 H2352 0.930 . S
C2358 C2359 1.355 . S
C2358 C2360 1.415 . S
C2359 C2358 1.355 . S
C2359 C2361 1.419 . S
C2360 C2358 1.415 . S
C2360 C2365 1.425 . S
C2360 C2367 1.409 . S
C2361 H2353 0.930 . S
C2361 C2359 1.419 . S
C2361 C2362 1.362 . S
C2362 H2354 0.930 . S
C2362 C2361 1.362 . S
C2362 C2365 1.409 . S
C2363 H2355 0.930 . S
C2363 C2364 1.355 . S
C2363 C2365 1.415 . S
C2364 C2363 1.355 . S
C2364 C2366 1.419 . S
C2365 C2360 1.425 . S
C2365 C2362 1.409 . S
C2365 C2363 1.415 . S
C2366 H2356 0.930 . S
C2366 C2364 1.419 . S
C2366 C2367 1.362 . S
C2367 H2357 0.930 . S
C2367 C2360 1.409 . S
C2367 C2366 1.362 . S
H2368 C2374 0.930 . S
H2369 C2377 0.930 . S
H2370 C2378 0.930 . S
H2371 C2379 0.930 . S
H2372 C2382 0.930 . S
H2373 C2383 0.930 . S
C2374 H2368 0.930 . S
C2374 C2375 1.355 . S
C2374 C2376 1.415 . S
C2375 C2374 1.355 . S
C2375 C2377 1.419 . S
C2376 C2374 1.415 . S
C2376 C2381 1.425 . S
C2376 C2383 1.409 . S
C2377 H2369 0.930 . S
C2377 C2375 1.419 . S
C2377 C2378 1.362 . S
C2378 H2370 0.930 . S
C2378 C2377 1.362 . S
C2378 C2381 1.409 . S
C2379 H2371 0.930 . S
C2379 C2380 1.355 . S
C2379 C2381 1.415 . S
C2380 C2379 1.355 . S
C2380 C2382 1.419 . S
C2381 C2376 1.425 . S
C2381 C2378 1.409 . S
C2381 C2379 1.415 . S
C2382 H2372 0.930 . S
C2382 C2380 1.419 . S
C2382 C2383 1.362 . S
C2383 H2373 0.930 . S
C2383 C2376 1.409 . S
C2383 C2382 1.362 . S
H2384 C2390 0.930 . S
H2385 C2393 0.930 . S
H2386 C2394 0.930 . S
H2387 C2395 0.930 . S
H2388 C2398 0.930 . S
H2389 C2399 0.930 . S
C2390 H2384 0.930 . S
C2390 C2391 1.355 . S
C2390 C2392 1.415 . S
C2391 C2390 1.355 . S
C2391 C2393 1.419 . S
C2392 C2390 1.415 . S
C2392 C2397 1.425 . S
C2392 C2399 1.409 . S
C2393 H2385 0.930 . S
C2393 C2391 1.419 . S
C2393 C2394 1.362 . S
C2394 H2386 0.930 . S
C2394 C2393 1.362 . S
C2394 C2397 1.409 . S
C2395 H2387 0.930 . S
C2395 C2396 1.355 . S
C2395 C2397 1.415 . S
C2396 C2395 1.355 . S
C2396 C2398 1.419 . S
C2397 C2392 1.425 . S
C2397 C2394 1.409 . S
C2397 C2395 1.415 . S
C2398 H2388 0.930 . S
C2398 C2396 1.419 . S
C2398 C2399 1.362 . S
C2399 H2389 0.930 . S
C2399 C2392 1.409 . S
C2399 C2398 1.362 . S
H2400 C2406 0.930 . S
H2401 C2409 0.930 . S
H2402 C2410 0.930 . S
H2403 C2411 0.930 . S
H2404 C2414 0.930 . S
H2405 C2415 0.930 . S
C2406 H2400 0.930 . S
C2406 C2407 1.355 . S
C2406 C2408 1.415 . S
C2407 C2406 1.355 . S
C2407 C2409 1.419 . S
C2408 C2406 1.415 . S
C2408 C2413 1.425 . S
C2408 C2415 1.409 . S
C2409 H2401 0.930 . S
C2409 C2407 1.419 . S
C2409 C2410 1.362 . S
C2410 H2402 0.930 . S
C2410 C2409 1.362 . S
C2410 C2413 1.409 . S
C2411 H2403 0.930 . S
C2411 C2412 1.355 . S
C2411 C2413 1.415 . S
C2412 C2411 1.355 . S
C2412 C2414 1.419 . S
C2413 C2408 1.425 . S
C2413 C2410 1.409 . S
C2413 C2411 1.415 . S
C2414 H2404 0.930 . S
C2414 C2412 1.419 . S
C2414 C2415 1.362 . S
C2415 H2405 0.930 . S
C2415 C2408 1.409 . S
C2415 C2414 1.362 . S
H2416 C2422 0.930 . S
H2417 C2425 0.930 . S
H2418 C2426 0.930 . S
H2419 C2427 0.930 . S
H2420 C2430 0.930 . S
H2421 C2431 0.930 . S
C2422 H2416 0.930 . S
C2422 C2423 1.355 . S
C2422 C2424 1.415 . S
C2423 C2422 1.355 . S
C2423 C2425 1.419 . S
C2424 C2422 1.415 . S
C2424 C2429 1.425 . S
C2424 C2431 1.409 . S
C2425 H2417 0.930 . S
C2425 C2423 1.419 . S
C2425 C2426 1.362 . S
C2426 H2418 0.930 . S
C2426 C2425 1.362 . S
C2426 C2429 1.409 . S
C2427 H2419 0.930 . S
C2427 C2428 1.355 . S
C2427 C2429 1.415 . S
C2428 C2427 1.355 . S
C2428 C2430 1.419 . S
C2429 C2424 1.425 . S
C2429 C2426 1.409 . S
C2429 C2427 1.415 . S
C2430 H2420 0.930 . S
C2430 C2428 1.419 . S
C2430 C2431 1.362 . S
C2431 H2421 0.930 . S
C2431 C2424 1.409 . S
C2431 C2430 1.362 . S
H2432 C2438 0.930 . S
H2433 C2441 0.930 . S
H2434 C2442 0.930 . S
H2435 C2443 0.930 . S
H2436 C2446 0.930 . S
H2437 C2447 0.930 . S
C2438 H2432 0.930 . S
C2438 C2439 1.355 . S
C2438 C2440 1.415 . S
C2439 C2438 1.355 . S
C2439 C2441 1.419 . S
C2440 C2438 1.415 . S
C2440 C2445 1.425 . S
C2440 C2447 1.409 . S
C2441 H2433 0.930 . S
C2441 C2439 1.419 . S
C2441 C2442 1.362 . S
C2442 H2434 0.930 . S
C2442 C2441 1.362 . S
C2442 C2445 1.409 . S
C2443 H2435 0.930 . S
C2443 C2444 1.355 . S
C2443 C2445 1.415 . S
C2444 C2443 1.355 . S
C2444 C2446 1.419 . S
C2445 C2440 1.425 . S
C2445 C2442 1.409 . S
C2445 C2443 1.415 . S
C2446 H2436 0.930 . S
C2446 C2444 1.419 . S
C2446 C2447 1.362 . S
C2447 H2437 0.930 . S
C2447 C2440 1.409 . S
C2447 C2446 1.362 . S
H2448 C2454 0.930 . S
H2449 C2457 0.930 . S
H2450 C2458 0.930 . S
H2451 C2459 0.930 . S
H2452 C2462 0.930 . S
H2453 C2463 0.930 . S
C2454 H2448 0.930 . S
C2454 C2455 1.355 . S
C2454 C2456 1.415 . S
C2455 C2454 1.355 . S
C2455 C2457 1.419 . S
C2456 C2454 1.415 . S
C2456 C2461 1.425 . S
C2456 C2463 1.409 . S
C2457 H2449 0.930 . S
C2457 C2455 1.419 . S
C2457 C2458 1.362 . S
C2458 H2450 0.930 . S
C2458 C2457 1.362 . S
C2458 C2461 1.409 . S
C2459 H2451 0.930 . S
C2459 C2460 1.355 . S
C2459 C2461 1.415 . S
C2460 C2459 1.355 . S
C2460 C2462 1.419 . S
C2461 C2456 1.425 . S
C2461 C2458 1.409 . S
C2461 C2459 1.415 . S
C2462 H2452 0.930 . S
C2462 C2460 1.419 . S
C2462 C2463 1.362 . S
C2463 H2453 0.930 . S
C2463 C2456 1.409 . S
C2463 C2462 1.362 . S
H2464 C2470 0.930 . S
H2465 C2473 0.930 . S
H2466 C2474 0.930 . S
H2467 C2475 0.930 . S
H2468 C2478 0.930 . S
H2469 C2479 0.930 . S
C2470 H2464 0.930 . S
C2470 C2471 1.355 . S
C2470 C2472 1.415 . S
C2471 C2470 1.355 . S
C2471 C2473 1.419 . S
C2472 C2470 1.415 . S
C2472 C2477 1.425 . S
C2472 C2479 1.409 . S
C2473 H2465 0.930 . S
C2473 C2471 1.419 . S
C2473 C2474 1.362 . S
C2474 H2466 0.930 . S
C2474 C2473 1.362 . S
C2474 C2477 1.409 . S
C2475 H2467 0.930 . S
C2475 C2476 1.355 . S
C2475 C2477 1.415 . S
C2476 C2475 1.355 . S
C2476 C2478 1.419 . S
C2477 C2472 1.425 . S
C2477 C2474 1.409 . S
C2477 C2475 1.415 . S
C2478 H2468 0.930 . S
C2478 C2476 1.419 . S
C2478 C2479 1.362 . S
C2479 H2469 0.930 . S
C2479 C2472 1.409 . S
C2479 C2478 1.362 . S
H2480 C2486 0.930 . S
H2481 C2489 0.930 . S
H2482 C2490 0.930 . S
H2483 C2491 0.930 . S
H2484 C2494 0.930 . S
H2485 C2495 0.930 . S
C2486 H2480 0.930 . S
C2486 C2487 1.355 . S
C2486 C2488 1.415 . S
C2487 C2486 1.355 . S
C2487 C2489 1.419 . S
C2488 C2486 1.415 . S
C2488 C2493 1.425 . S
C2488 C2495 1.409 . S
C2489 H2481 0.930 . S
C2489 C2487 1.419 . S
C2489 C2490 1.362 . S
C2490 H2482 0.930 . S
C2490 C2489 1.362 . S
C2490 C2493 1.409 . S
C2491 H2483 0.930 . S
C2491 C2492 1.355 . S
C2491 C2493 1.415 . S
C2492 C2491 1.355 . S
C2492 C2494 1.419 . S
C2493 C2488 1.425 . S
C2493 C2490 1.409 . S
C2493 C2491 1.415 . S
C2494 H2484 0.930 . S
C2494 C2492 1.419 . S
C2494 C2495 1.362 . S
C2495 H2485 0.930 . S
C2495 C2488 1.409 . S
C2495 C2494 1.362 . S
H2496 C2502 0.930 . S
H2497 C2505 0.930 . S
H2498 C2506 0.930 . S
H2499 C2507 0.930 . S
H2500 C2510 0.930 . S
H2501 C2511 0.930 . S
C2502 H2496 0.930 . S
C2502 C2503 1.355 . S
C2502 C2504 1.415 . S
C2503 C2502 1.355 . S
C2503 C2505 1.419 . S
C2504 C2502 1.415 . S
C2504 C2509 1.425 . S
C2504 C2511 1.409 . S
C2505 H2497 0.930 . S
C2505 C2503 1.419 . S
C2505 C2506 1.362 . S
C2506 H2498 0.930 . S
C2506 C2505 1.362 . S
C2506 C2509 1.409 . S
C2507 H2499 0.930 . S
C2507 C2508 1.355 . S
C2507 C2509 1.415 . S
C2508 C2507 1.355 . S
C2508 C2510 1.419 . S
C2509 C2504 1.425 . S
C2509 C2506 1.409 . S
C2509 C2507 1.415 . S
C2510 H2500 0.930 . S
C2510 C2508 1.419 . S
C2510 C2511 1.362 . S
C2511 H2501 0.930 . S
C2511 C2504 1.409 . S
C2511 C2510 1.362 . S
H2512 C2518 0.930 . S
H2513 C2521 0.930 . S
H2514 C2522 0.930 . S
H2515 C2523 0.930 . S
H2516 C2526 0.930 . S
H2517 C2527 0.930 . S
C2518 H2512 0.930 . S
C2518 C2519 1.355 . S
C2518 C2520 1.415 . S
C2519 C2518 1.355 . S
C2519 C2521 1.419 . S
C2520 C2518 1.415 . S
C2520 C2525 1.425 . S
C2520 C2527 1.409 . S
C2521 H2513 0.930 . S
C2521 C2519 1.419 . S
C2521 C2522 1.362 . S
C2522 H2514 0.930 . S
C2522 C2521 1.362 . S
C2522 C2525 1.409 . S
C2523 H2515 0.930 . S
C2523 C2524 1.355 . S
C2523 C2525 1.415 . S
C2524 C2523 1.355 . S
C2524 C2526 1.419 . S
C2525 C2520 1.425 . S
C2525 C2522 1.409 . S
C2525 C2523 1.415 . S
C2526 H2516 0.930 . S
C2526 C2524 1.419 . S
C2526 C2527 1.362 . S
C2527 H2517 0.930 . S
C2527 C2520 1.409 . S
C2527 C2526 1.362 . S
H2528 C2534 0.930 . S
H2529 C2537 0.930 . S
H2530 C2538 0.930 . S
H2531 C2539 0.930 . S
H2532 C2542 0.930 . S
H2533 C2543 0.930 . S
C2534 H2528 0.930 . S
C2534 C2535 1.355 . S
C2534 C2536 1.415 . S
C2535 C2534 1.355 . S
C2535 C2537 1.419 . S
C2536 C2534 1.415 . S
C2536 C2541 1.425 . S
C2536 C2543 1.409 . S
C2537 H2529 0.930 . S
C2537 C2535 1.419 . S
C2537 C2538 1.362 . S
C2538 H2530 0.930 . S
C2538 C2537 1.362 . S
C2538 C2541 1.409 . S
C2539 H2531 0.930 . S
C2539 C2540 1.355 . S
C2539 C2541 1.415 . S
C2540 C2539 1.355 . S
C2540 C2542 1.419 . S
C2541 C2536 1.425 . S
C2541 C2538 1.409 . S
C2541 C2539 1.415 . S
C2542 H2532 0.930 . S
C2542 C2540 1.419 . S
C2542 C2543 1.362 . S
C2543 H2533 0.930 . S
C2543 C2536 1.409 . S
C2543 C2542 1.362 . S
H2544 C2550 0.930 1_455 S
H2545 C2553 0.930 . S
H2546 C2554 0.930 . S
H2547 C2555 0.930 . S
H2548 C2558 0.930 . S
H2549 C2559 0.930 . S
C2550 H2544 0.930 1_655 S
C2550 C2551 1.355 . S
C2550 C2552 1.415 . S
C2551 C2550 1.355 . S
C2551 C2553 1.419 . S
C2552 C2550 1.415 . S
C2552 C2557 1.425 . S
C2552 C2559 1.409 1_655 S
C2553 H2545 0.930 . S
C2553 C2551 1.419 . S
C2553 C2554 1.362 . S
C2554 H2546 0.930 . S
C2554 C2553 1.362 . S
C2554 C2557 1.409 . S
C2555 H2547 0.930 . S
C2555 C2556 1.369 . S
C2555 C2557 1.415 . S
C2556 C2555 1.369 . S
C2556 C2558 1.407 1_655 S
C2557 C2552 1.425 . S
C2557 C2554 1.409 . S
C2557 C2555 1.415 . S
C2558 H2548 0.930 . S
C2558 C2556 1.407 1_455 S
C2558 C2559 1.362 . S
C2559 H2549 0.930 . S
C2559 C2552 1.409 1_455 S
C2559 C2558 1.362 . S
H2560 C2566 0.930 1_545 S
H2561 C2569 0.930 . S
H2562 C2570 0.930 . S
H2563 C2571 0.930 . S
H2564 C2574 0.930 . S
H2565 C2575 0.930 . S
C2566 H2560 0.930 1_565 S
C2566 C2567 1.355 . S
C2566 C2568 1.415 . S
C2567 C2566 1.355 . S
C2567 C2569 1.419 . S
C2568 C2566 1.415 . S
C2568 C2573 1.425 . S
C2568 C2575 1.409 1_565 S
C2569 H2561 0.930 . S
C2569 C2567 1.419 . S
C2569 C2570 1.362 . S
C2570 H2562 0.930 . S
C2570 C2569 1.362 . S
C2570 C2573 1.409 . S
C2571 H2563 0.930 . S
C2571 C2572 1.357 1_565 S
C2571 C2573 1.415 . S
C2572 C2571 1.357 1_545 S
C2572 C2574 1.417 . S
C2573 C2568 1.425 . S
C2573 C2570 1.409 . S
C2573 C2571 1.415 . S
C2574 H2564 0.930 . S
C2574 C2572 1.417 . S
C2574 C2575 1.362 . S
C2575 H2565 0.930 . S
C2575 C2568 1.409 1_545 S
C2575 C2574 1.362 . S
H2576 C2582 0.930 . S
H2577 C2585 0.930 . S
H2578 C2586 0.930 . S
H2579 C2587 0.930 . S
H2580 C2590 0.930 . S
H2581 C2591 0.930 . S
C2582 H2576 0.930 . S
C2582 C2583 1.355 . S
C2582 C2584 1.415 . S
C2583 C2582 1.355 . S
C2583 C2585 1.419 . S
C2584 C2582 1.415 . S
C2584 C2589 1.425 . S
C2584 C2591 1.409 . S
C2585 H2577 0.930 . S
C2585 C2583 1.419 . S
C2585 C2586 1.362 . S
C2586 H2578 0.930 . S
C2586 C2585 1.362 . S
C2586 C2589 1.409 . S
C2587 H2579 0.930 . S
C2587 C2588 1.355 . S
C2587 C2589 1.415 . S
C2588 C2587 1.355 . S
C2588 C2590 1.419 . S
C2589 C2584 1.425 . S
C2589 C2586 1.409 . S
C2589 C2587 1.415 . S
C2590 H2580 0.930 . S
C2590 C2588 1.419 . S
C2590 C2591 1.362 . S
C2591 H2581 0.930 . S
C2591 C2584 1.409 . S
C2591 C2590 1.362 . S
H2592 C2598 0.930 . S
H2593 C2601 0.930 . S
H2594 C2602 0.930 . S
H2595 C2603 0.930 . S
H2596 C2606 0.930 . S
H2597 C2607 0.930 . S
C2598 H2592 0.930 . S
C2598 C2599 1.355 . S
C2598 C2600 1.415 . S
C2599 C2598 1.355 . S
C2599 C2601 1.419 . S
C2600 C2598 1.415 . S
C2600 C2605 1.425 . S
C2600 C2607 1.409 . S
C2601 H2593 0.930 . S
C2601 C2599 1.419 . S
C2601 C2602 1.362 . S
C2602 H2594 0.930 . S
C2602 C2601 1.362 . S
C2602 C2605 1.409 . S
C2603 H2595 0.930 . S
C2603 C2604 1.355 . S
C2603 C2605 1.415 . S
C2604 C2603 1.355 . S
C2604 C2606 1.419 . S
C2605 C2600 1.425 . S
C2605 C2602 1.409 . S
C2605 C2603 1.415 . S
C2606 H2596 0.930 . S
C2606 C2604 1.419 . S
C2606 C2607 1.362 . S
C2607 H2597 0.930 . S
C2607 C2600 1.409 . S
C2607 C2606 1.362 . S
H2608 C2614 0.930 . S
H2609 C2617 0.930 . S
H2610 C2618 0.930 . S
H2611 C2619 0.930 . S
H2612 C2622 0.928 1_455 S
H2613 C2623 0.930 . S
C2614 H2608 0.930 . S
C2614 C2615 1.355 . S
C2614 C2616 1.415 . S
C2615 C2614 1.355 . S
C2615 C2617 1.419 . S
C2616 C2614 1.415 . S
C2616 C2621 1.425 . S
C2616 C2623 1.409 . S
C2617 H2609 0.930 . S
C2617 C2615 1.419 . S
C2617 C2618 1.362 . S
C2618 H2610 0.930 . S
C2618 C2617 1.362 . S
C2618 C2621 1.409 . S
C2619 H2611 0.930 . S
C2619 C2620 1.355 . S
C2619 C2621 1.415 . S
C2620 C2619 1.355 . S
C2620 C2622 1.419 . S
C2621 C2616 1.425 . S
C2621 C2618 1.409 . S
C2621 C2619 1.415 . S
C2622 H2612 0.928 1_655 S
C2622 C2620 1.419 . S
C2622 C2623 1.362 . S
C2623 H2613 0.930 . S
C2623 C2616 1.409 . S
C2623 C2622 1.362 . S
H2624 C2630 0.930 . S
H2625 C2633 0.930 . S
H2626 C2634 0.930 . S
H2627 C2635 0.930 . S
H2628 C2638 0.930 . S
H2629 C2639 0.962 . S
C2630 H2624 0.930 . S
C2630 C2631 1.355 1_545 S
C2630 C2632 1.415 1_545 S
C2631 C2630 1.355 1_565 S
C2631 C2633 1.419 . S
C2632 C2630 1.415 1_565 S
C2632 C2637 1.425 . S
C2632 C2639 1.397 1_565 S
C2633 H2625 0.930 . S
C2633 C2631 1.419 . S
C2633 C2634 1.362 . S
C2634 H2626 0.930 . S
C2634 C2633 1.362 . S
C2634 C2637 1.409 . S
C2635 H2627 0.930 . S
C2635 C2636 1.355 . S
C2635 C2637 1.415 . S
C2636 C2635 1.355 . S
C2636 C2638 1.419 . S
C2637 C2632 1.425 . S
C2637 C2634 1.409 . S
C2637 C2635 1.415 . S
C2638 H2628 0.930 . S
C2638 C2636 1.419 . S
C2638 C2639 1.345 1_565 S
C2639 H2629 0.962 . S
C2639 C2632 1.397 1_545 S
C2639 C2638 1.345 1_545 S
H2640 C2646 0.930 . S
H2641 C2649 0.930 . S
H2642 C2650 0.930 . S
H2643 C2651 0.930 . S
H2644 C2654 0.930 . S
H2645 C2655 0.930 . S
C2646 H2640 0.930 . S
C2646 C2647 1.355 . S
C2646 C2648 1.415 . S
C2647 C2646 1.355 . S
C2647 C2649 1.419 . S
C2648 C2646 1.415 . S
C2648 C2653 1.425 . S
C2648 C2655 1.409 . S
C2649 H2641 0.930 . S
C2649 C2647 1.419 . S
C2649 C2650 1.362 . S
C2650 H2642 0.930 . S
C2650 C2649 1.362 . S
C2650 C2653 1.409 . S
C2651 H2643 0.930 . S
C2651 C2652 1.355 . S
C2651 C2653 1.415 . S
C2652 C2651 1.355 . S
C2652 C2654 1.419 . S
C2653 C2648 1.425 . S
C2653 C2650 1.409 . S
C2653 C2651 1.415 . S
C2654 H2644 0.930 . S
C2654 C2652 1.419 . S
C2654 C2655 1.362 . S
C2655 H2645 0.930 . S
C2655 C2648 1.409 . S
C2655 C2654 1.362 . S
H2656 C2662 0.930 . S
H2657 C2665 0.930 . S
H2658 C2666 0.930 . S
H2659 C2667 0.930 . S
H2660 C2670 0.930 . S
H2661 C2671 0.930 . S
C2662 H2656 0.930 . S
C2662 C2663 1.355 . S
C2662 C2664 1.415 . S
C2663 C2662 1.355 . S
C2663 C2665 1.419 . S
C2664 C2662 1.415 . S
C2664 C2669 1.425 . S
C2664 C2671 1.409 . S
C2665 H2657 0.930 . S
C2665 C2663 1.419 . S
C2665 C2666 1.362 . S
C2666 H2658 0.930 . S
C2666 C2665 1.362 . S
C2666 C2669 1.409 . S
C2667 H2659 0.930 . S
C2667 C2668 1.355 . S
C2667 C2669 1.415 . S
C2668 C2667 1.355 . S
C2668 C2670 1.419 . S
C2669 C2664 1.425 . S
C2669 C2666 1.409 . S
C2669 C2667 1.415 . S
C2670 H2660 0.930 . S
C2670 C2668 1.419 . S
C2670 C2671 1.362 . S
C2671 H2661 0.930 . S
C2671 C2664 1.409 . S
C2671 C2670 1.362 . S
H2672 C2678 0.930 . S
H2673 C2681 0.923 1_545 S
H2674 C2682 0.930 . S
H2675 C2683 0.930 . S
H2676 C2686 0.930 . S
H2677 C2687 0.930 . S
C2678 H2672 0.930 . S
C2678 C2679 1.355 . S
C2678 C2680 1.415 . S
C2679 C2678 1.355 . S
C2679 C2681 1.420 . S
C2680 C2678 1.415 . S
C2680 C2685 1.425 . S
C2680 C2687 1.409 . S
C2681 H2673 0.923 1_565 S
C2681 C2679 1.420 . S
C2681 C2682 1.369 . S
C2682 H2674 0.930 . S
C2682 C2681 1.369 . S
C2682 C2685 1.409 . S
C2683 H2675 0.930 . S
C2683 C2684 1.355 . S
C2683 C2685 1.415 . S
C2684 C2683 1.355 . S
C2684 C2686 1.419 . S
C2685 C2680 1.425 . S
C2685 C2682 1.409 . S
C2685 C2683 1.415 . S
C2686 H2676 0.930 . S
C2686 C2684 1.419 . S
C2686 C2687 1.362 . S
C2687 H2677 0.930 . S
C2687 C2680 1.409 . S
C2687 C2686 1.362 . S
H2688 C2694 0.930 . S
H2689 C2697 0.930 . S
H2690 C2698 0.930 . S
H2691 C2699 0.930 . S
H2692 C2702 0.930 . S
H2693 C2703 0.930 . S
C2694 H2688 0.930 . S
C2694 C2695 1.355 . S
C2694 C2696 1.415 . S
C2695 C2694 1.355 . S
C2695 C2697 1.419 . S
C2696 C2694 1.415 . S
C2696 C2701 1.425 . S
C2696 C2703 1.409 . S
C2697 H2689 0.930 . S
C2697 C2695 1.419 . S
C2697 C2698 1.362 . S
C2698 H2690 0.930 . S
C2698 C2697 1.362 . S
C2698 C2701 1.409 . S
C2699 H2691 0.930 . S
C2699 C2700 1.355 . S
C2699 C2701 1.415 . S
C2700 C2699 1.355 . S
C2700 C2702 1.419 . S
C2701 C2696 1.425 . S
C2701 C2698 1.409 . S
C2701 C2699 1.415 . S
C2702 H2692 0.930 . S
C2702 C2700 1.419 . S
C2702 C2703 1.362 . S
C2703 H2693 0.930 . S
C2703 C2696 1.409 . S
C2703 C2702 1.362 . S
H2704 C2710 0.930 . S
H2705 C2713 0.930 . S
H2706 C2714 0.930 . S
H2707 C2715 0.930 . S
H2708 C2718 0.930 . S
H2709 C2719 0.930 . S
C2710 H2704 0.930 . S
C2710 C2711 1.355 . S
C2710 C2712 1.415 . S
C2711 C2710 1.355 . S
C2711 C2713 1.419 . S
C2712 C2710 1.415 . S
C2712 C2717 1.425 . S
C2712 C2719 1.409 . S
C2713 H2705 0.930 . S
C2713 C2711 1.419 . S
C2713 C2714 1.362 . S
C2714 H2706 0.930 . S
C2714 C2713 1.362 . S
C2714 C2717 1.409 . S
C2715 H2707 0.930 . S
C2715 C2716 1.355 . S
C2715 C2717 1.415 . S
C2716 C2715 1.355 . S
C2716 C2718 1.419 . S
C2717 C2712 1.425 . S
C2717 C2714 1.409 . S
C2717 C2715 1.415 . S
C2718 H2708 0.930 . S
C2718 C2716 1.419 . S
C2718 C2719 1.362 . S
C2719 H2709 0.930 . S
C2719 C2712 1.409 . S
C2719 C2718 1.362 . S
H2720 C2726 0.930 . S
H2721 C2729 0.930 . S
H2722 C2730 0.930 . S
H2723 C2731 0.930 . S
H2724 C2734 0.930 . S
H2725 C2735 0.930 . S
C2726 H2720 0.930 . S
C2726 C2727 1.373 . S
C2726 C2728 1.415 . S
C2727 C2726 1.373 . S
C2727 C2729 1.415 1_655 S
C2728 C2726 1.415 . S
C2728 C2733 1.425 . S
C2728 C2735 1.409 . S
C2729 H2721 0.930 . S
C2729 C2727 1.415 1_455 S
C2729 C2730 1.362 1_455 S
C2730 H2722 0.930 . S
C2730 C2729 1.362 1_655 S
C2730 C2733 1.409 . S
C2731 H2723 0.930 . S
C2731 C2732 1.355 . S
C2731 C2733 1.415 . S
C2732 C2731 1.355 . S
C2732 C2734 1.419 . S
C2733 C2728 1.425 . S
C2733 C2730 1.409 . S
C2733 C2731 1.415 . S
C2734 H2724 0.930 . S
C2734 C2732 1.419 . S
C2734 C2735 1.362 . S
C2735 H2725 0.930 . S
C2735 C2728 1.409 . S
C2735 C2734 1.362 . S
H2736 C2742 0.930 . S
H2737 C2745 0.930 . S
H2738 C2746 0.930 . S
H2739 C2747 0.930 . S
H2740 C2750 0.930 . S
H2741 C2751 0.930 . S
C2742 H2736 0.930 . S
C2742 C2743 1.355 . S
C2742 C2744 1.415 . S
C2743 C2742 1.355 . S
C2743 C2745 1.419 . S
C2744 C2742 1.415 . S
C2744 C2749 1.425 . S
C2744 C2751 1.409 . S
C2745 H2737 0.930 . S
C2745 C2743 1.419 . S
C2745 C2746 1.362 . S
C2746 H2738 0.930 . S
C2746 C2745 1.362 . S
C2746 C2749 1.409 . S
C2747 H2739 0.930 . S
C2747 C2748 1.355 . S
C2747 C2749 1.415 . S
C2748 C2747 1.355 . S
C2748 C2750 1.419 . S
C2749 C2744 1.425 . S
C2749 C2746 1.409 . S
C2749 C2747 1.415 . S
C2750 H2740 0.930 . S
C2750 C2748 1.419 . S
C2750 C2751 1.362 . S
C2751 H2741 0.930 . S
C2751 C2744 1.409 . S
C2751 C2750 1.362 . S
H2752 C2758 0.930 . S
H2753 C2761 0.930 . S
H2754 C2762 0.930 . S
H2755 C2763 0.930 1_455 S
H2756 C2766 0.930 . S
H2757 C2767 0.930 . S
C2758 H2752 0.930 . S
C2758 C2759 1.351 . S
C2758 C2760 1.415 . S
C2759 C2758 1.351 . S
C2759 C2761 1.422 1_655 S
C2760 C2758 1.415 . S
C2760 C2765 1.425 . S
C2760 C2767 1.409 . S
C2761 H2753 0.930 . S
C2761 C2759 1.422 1_455 S
C2761 C2762 1.362 . S
C2762 H2754 0.930 . S
C2762 C2761 1.362 . S
C2762 C2765 1.409 1_455 S
C2763 H2755 0.930 1_655 S
C2763 C2764 1.355 . S
C2763 C2765 1.415 . S
C2764 C2763 1.355 . S
C2764 C2766 1.419 . S
C2765 C2760 1.425 . S
C2765 C2762 1.409 1_655 S
C2765 C2763 1.415 . S
C2766 H2756 0.930 . S
C2766 C2764 1.419 . S
C2766 C2767 1.362 . S
C2767 H2757 0.930 . S
C2767 C2760 1.409 . S
C2767 C2766 1.362 . S
H2768 C2774 0.930 . S
H2769 C2777 0.930 . S
H2770 C2778 0.930 . S
H2771 C2779 0.930 . S
H2772 C2782 0.930 . S
H2773 C2783 0.930 . S
C2774 H2768 0.930 . S
C2774 C2775 1.355 . S
C2774 C2776 1.415 . S
C2775 C2774 1.355 . S
C2775 C2777 1.419 . S
C2776 C2774 1.415 . S
C2776 C2781 1.425 . S
C2776 C2783 1.409 1_565 S
C2777 H2769 0.930 . S
C2777 C2775 1.419 . S
C2777 C2778 1.362 . S
C2778 H2770 0.930 . S
C2778 C2777 1.362 . S
C2778 C2781 1.409 . S
C2779 H2771 0.930 . S
C2779 C2780 1.355 . S
C2779 C2781 1.415 . S
C2780 C2779 1.355 . S
C2780 C2782 1.419 1_565 S
C2781 C2776 1.425 . S
C2781 C2778 1.409 . S
C2781 C2779 1.415 . S
C2782 H2772 0.930 . S
C2782 C2780 1.419 1_545 S
C2782 C2783 1.362 . S
C2783 H2773 0.930 . S
C2783 C2776 1.409 1_545 S
C2783 C2782 1.362 . S
H2784 C2790 0.930 . S
H2785 C2793 0.930 . S
H2786 C2794 0.930 . S
H2787 C2795 0.930 . S
H2788 C2798 0.930 . S
H2789 C2799 0.930 . S
C2790 H2784 0.930 . S
C2790 C2791 1.355 . S
C2790 C2792 1.415 . S
C2791 C2790 1.355 . S
C2791 C2793 1.419 . S
C2792 C2790 1.415 . S
C2792 C2797 1.425 . S
C2792 C2799 1.409 . S
C2793 H2785 0.930 . S
C2793 C2791 1.419 . S
C2793 C2794 1.362 . S
C2794 H2786 0.930 . S
C2794 C2793 1.362 . S
C2794 C2797 1.409 . S
C2795 H2787 0.930 . S
C2795 C2796 1.355 . S
C2795 C2797 1.415 . S
C2796 C2795 1.355 . S
C2796 C2798 1.419 . S
C2797 C2792 1.425 . S
C2797 C2794 1.409 . S
C2797 C2795 1.415 . S
C2798 H2788 0.930 . S
C2798 C2796 1.419 . S
C2798 C2799 1.362 . S
C2799 H2789 0.930 . S
C2799 C2792 1.409 . S
C2799 C2798 1.362 . S
H2800 C2806 0.930 . S
H2801 C2809 0.930 . S
H2802 C2810 0.930 . S
H2803 C2811 0.930 . S
H2804 C2814 0.930 . S
H2805 C2815 0.925 1_554 S
C2806 H2800 0.930 . S
C2806 C2807 1.355 . S
C2806 C2808 1.415 . S
C2807 C2806 1.355 . S
C2807 C2809 1.419 . S
C2808 C2806 1.415 . S
C2808 C2813 1.425 . S
C2808 C2815 1.409 . S
C2809 H2801 0.930 . S
C2809 C2807 1.419 . S
C2809 C2810 1.362 . S
C2810 H2802 0.930 . S
C2810 C2809 1.362 . S
C2810 C2813 1.409 . S
C2811 H2803 0.930 . S
C2811 C2812 1.372 . S
C2811 C2813 1.415 . S
C2812 C2811 1.372 . S
C2812 C2814 1.413 1_556 S
C2813 C2808 1.425 . S
C2813 C2810 1.409 . S
C2813 C2811 1.415 . S
C2814 H2804 0.930 . S
C2814 C2812 1.413 1_554 S
C2814 C2815 1.362 1_554 S
C2815 H2805 0.925 1_556 S
C2815 C2808 1.409 . S
C2815 C2814 1.362 1_556 S
H2816 C2822 0.930 . S
H2817 C2825 0.930 . S
H2818 C2826 0.930 . S
H2819 C2827 0.930 . S
H2820 C2830 0.930 . S
H2821 C2831 0.930 . S
C2822 H2816 0.930 . S
C2822 C2823 1.355 . S
C2822 C2824 1.415 . S
C2823 C2822 1.355 . S
C2823 C2825 1.419 . S
C2824 C2822 1.415 . S
C2824 C2829 1.425 . S
C2824 C2831 1.409 . S
C2825 H2817 0.930 . S
C2825 C2823 1.419 . S
C2825 C2826 1.362 . S
C2826 H2818 0.930 . S
C2826 C2825 1.362 . S
C2826 C2829 1.409 . S
C2827 H2819 0.930 . S
C2827 C2828 1.355 . S
C2827 C2829 1.415 . S
C2828 C2827 1.355 . S
C2828 C2830 1.419 . S
C2829 C2824 1.425 . S
C2829 C2826 1.409 . S
C2829 C2827 1.415 . S
C2830 H2820 0.930 . S
C2830 C2828 1.419 . S
C2830 C2831 1.362 . S
C2831 H2821 0.930 . S
C2831 C2824 1.409 . S
C2831 C2830 1.362 . S
H2832 C2838 0.930 . S
H2833 C2841 0.930 . S
H2834 C2842 0.930 . S
H2835 C2843 0.930 . S
H2836 C2846 0.930 . S
H2837 C2847 0.930 . S
C2838 H2832 0.930 . S
C2838 C2839 1.355 . S
C2838 C2840 1.415 . S
C2839 C2838 1.355 . S
C2839 C2841 1.419 . S
C2840 C2838 1.415 . S
C2840 C2845 1.425 . S
C2840 C2847 1.409 . S
C2841 H2833 0.930 . S
C2841 C2839 1.419 . S
C2841 C2842 1.362 . S
C2842 H2834 0.930 . S
C2842 C2841 1.362 . S
C2842 C2845 1.409 . S
C2843 H2835 0.930 . S
C2843 C2844 1.355 . S
C2843 C2845 1.415 . S
C2844 C2843 1.355 . S
C2844 C2846 1.419 . S
C2845 C2840 1.425 . S
C2845 C2842 1.409 . S
C2845 C2843 1.415 . S
C2846 H2836 0.930 . S
C2846 C2844 1.419 . S
C2846 C2847 1.362 . S
C2847 H2837 0.930 . S
C2847 C2840 1.409 . S
C2847 C2846 1.362 . S
H2848 C2854 0.930 . S
H2849 C2857 0.930 . S
H2850 C2858 0.930 . S
H2851 C2859 0.930 . S
H2852 C2862 0.930 . S
H2853 C2863 0.930 . S
C2854 H2848 0.930 . S
C2854 C2855 1.355 . S
C2854 C2856 1.415 . S
C2855 C2854 1.355 . S
C2855 C2857 1.419 . S
C2856 C2854 1.415 . S
C2856 C2861 1.425 . S
C2856 C2863 1.409 . S
C2857 H2849 0.930 . S
C2857 C2855 1.419 . S
C2857 C2858 1.362 . S
C2858 H2850 0.930 . S
C2858 C2857 1.362 . S
C2858 C2861 1.409 . S
C2859 H2851 0.930 . S
C2859 C2860 1.355 . S
C2859 C2861 1.415 . S
C2860 C2859 1.355 . S
C2860 C2862 1.419 . S
C2861 C2856 1.425 . S
C2861 C2858 1.409 . S
C2861 C2859 1.415 . S
C2862 H2852 0.930 . S
C2862 C2860 1.419 . S
C2862 C2863 1.362 . S
C2863 H2853 0.930 . S
C2863 C2856 1.409 . S
C2863 C2862 1.362 . S
H2864 C2870 0.930 . S
H2865 C2873 0.930 . S
H2866 C2874 0.930 . S
H2867 C2875 0.930 . S
H2868 C2878 0.930 . S
H2869 C2879 0.930 . S
C2870 H2864 0.930 . S
C2870 C2871 1.355 . S
C2870 C2872 1.415 . S
C2871 C2870 1.355 . S
C2871 C2873 1.419 . S
C2872 C2870 1.415 . S
C2872 C2877 1.425 . S
C2872 C2879 1.409 . S
C2873 H2865 0.930 . S
C2873 C2871 1.419 . S
C2873 C2874 1.362 . S
C2874 H2866 0.930 . S
C2874 C2873 1.362 . S
C2874 C2877 1.409 . S
C2875 H2867 0.930 . S
C2875 C2876 1.355 . S
C2875 C2877 1.415 . S
C2876 C2875 1.355 . S
C2876 C2878 1.419 . S
C2877 C2872 1.425 . S
C2877 C2874 1.409 . S
C2877 C2875 1.415 . S
C2878 H2868 0.930 . S
C2878 C2876 1.419 . S
C2878 C2879 1.362 . S
C2879 H2869 0.930 . S
C2879 C2872 1.409 . S
C2879 C2878 1.362 . S
H2880 C2886 0.930 . S
H2881 C2889 0.930 . S
H2882 C2890 0.930 . S
H2883 C2891 0.930 . S
H2884 C2894 0.930 . S
H2885 C2895 0.930 . S
C2886 H2880 0.930 . S
C2886 C2887 1.355 . S
C2886 C2888 1.415 . S
C2887 C2886 1.355 . S
C2887 C2889 1.419 . S
C2888 C2886 1.415 . S
C2888 C2893 1.425 . S
C2888 C2895 1.409 . S
C2889 H2881 0.930 . S
C2889 C2887 1.419 . S
C2889 C2890 1.362 . S
C2890 H2882 0.930 . S
C2890 C2889 1.362 . S
C2890 C2893 1.409 . S
C2891 H2883 0.930 . S
C2891 C2892 1.355 . S
C2891 C2893 1.415 . S
C2892 C2891 1.355 . S
C2892 C2894 1.419 . S
C2893 C2888 1.425 . S
C2893 C2890 1.409 . S
C2893 C2891 1.415 . S
C2894 H2884 0.930 . S
C2894 C2892 1.419 . S
C2894 C2895 1.362 . S
C2895 H2885 0.930 . S
C2895 C2888 1.409 . S
C2895 C2894 1.362 . S
H2896 C2902 0.930 . S
H2897 C2905 0.930 . S
H2898 C2906 0.930 . S
H2899 C2907 0.930 . S
H2900 C2910 0.922 1_554 S
H2901 C2911 0.930 . S
C2902 H2896 0.930 . S
C2902 C2903 1.355 . S
C2902 C2904 1.415 . S
C2903 C2902 1.355 . S
C2903 C2905 1.419 . S
C2904 C2902 1.415 . S
C2904 C2909 1.425 . S
C2904 C2911 1.409 . S
C2905 H2897 0.930 . S
C2905 C2903 1.419 . S
C2905 C2906 1.362 . S
C2906 H2898 0.930 . S
C2906 C2905 1.362 . S
C2906 C2909 1.409 . S
C2907 H2899 0.930 . S
C2907 C2908 1.355 . S
C2907 C2909 1.415 . S
C2908 C2907 1.355 . S
C2908 C2910 1.420 . S
C2909 C2904 1.425 . S
C2909 C2906 1.409 . S
C2909 C2907 1.415 . S
C2910 H2900 0.922 1_556 S
C2910 C2908 1.420 . S
C2910 C2911 1.370 . S
C2911 H2901 0.930 . S
C2911 C2904 1.409 . S
C2911 C2910 1.370 . S
H2912 C2918 0.930 . S
H2913 C2921 0.930 . S
H2914 C2922 0.930 . S
H2915 C2923 0.930 . S
H2916 C2926 0.937 . S
H2917 C2927 0.930 . S
C2918 H2912 0.930 . S
C2918 C2919 1.355 . S
C2918 C2920 1.415 . S
C2919 C2918 1.355 . S
C2919 C2921 1.419 . S
C2920 C2918 1.415 . S
C2920 C2925 1.425 . S
C2920 C2927 1.409 . S
C2921 H2913 0.930 . S
C2921 C2919 1.419 . S
C2921 C2922 1.362 . S
C2922 H2914 0.930 . S
C2922 C2921 1.362 . S
C2922 C2925 1.409 . S
C2923 H2915 0.930 . S
C2923 C2924 1.355 . S
C2923 C2925 1.415 . S
C2924 C2923 1.355 . S
C2924 C2926 1.419 . S
C2925 C2920 1.425 . S
C2925 C2922 1.409 . S
C2925 C2923 1.415 . S
C2926 H2916 0.937 . S
C2926 C2924 1.419 . S
C2926 C2927 1.362 . S
C2927 H2917 0.930 . S
C2927 C2920 1.409 . S
C2927 C2926 1.362 . S
H2928 C2934 0.930 . S
H2929 C2937 0.930 . S
H2930 C2938 0.930 . S
H2931 C2939 0.930 . S
H2932 C2942 0.930 . S
H2933 C2943 0.930 . S
C2934 H2928 0.930 . S
C2934 C2935 1.355 . S
C2934 C2936 1.415 . S
C2935 C2934 1.355 . S
C2935 C2937 1.419 . S
C2936 C2934 1.415 . S
C2936 C2941 1.425 . S
C2936 C2943 1.409 1_455 S
C2937 H2929 0.930 . S
C2937 C2935 1.419 . S
C2937 C2938 1.362 . S
C2938 H2930 0.930 . S
C2938 C2937 1.362 . S
C2938 C2941 1.409 . S
C2939 H2931 0.930 . S
C2939 C2940 1.359 . S
C2939 C2941 1.415 . S
C2940 C2939 1.359 . S
C2940 C2942 1.416 1_455 S
C2941 C2936 1.425 . S
C2941 C2938 1.409 . S
C2941 C2939 1.415 . S
C2942 H2932 0.930 . S
C2942 C2940 1.416 1_655 S
C2942 C2943 1.362 . S
C2943 H2933 0.930 . S
C2943 C2936 1.409 1_655 S
C2943 C2942 1.362 . S
H2944 C2950 0.930 . S
H2945 C2953 0.930 . S
H2946 C2954 0.930 1_565 S
H2947 C2955 0.932 1_565 S
H2948 C2958 0.930 . S
H2949 C2959 0.930 . S
C2950 H2944 0.930 . S
C2950 C2951 1.355 . S
C2950 C2952 1.415 . S
C2951 C2950 1.355 . S
C2951 C2953 1.419 . S
C2952 C2950 1.415 . S
C2952 C2957 1.425 . S
C2952 C2959 1.409 . S
C2953 H2945 0.930 . S
C2953 C2951 1.419 . S
C2953 C2954 1.362 . S
C2954 H2946 0.930 1_545 S
C2954 C2953 1.362 . S
C2954 C2957 1.409 . S
C2955 H2947 0.932 1_545 S
C2955 C2956 1.354 . S
C2955 C2957 1.413 . S
C2956 C2955 1.354 . S
C2956 C2958 1.419 . S
C2957 C2952 1.425 . S
C2957 C2954 1.409 . S
C2957 C2955 1.413 . S
C2958 H2948 0.930 . S
C2958 C2956 1.419 . S
C2958 C2959 1.362 . S
C2959 H2949 0.930 . S
C2959 C2952 1.409 . S
C2959 C2958 1.362 . S
H2960 C2966 0.930 . S
H2961 C2969 0.930 . S
H2962 C2970 0.930 . S
H2963 C2971 0.930 . S
H2964 C2974 0.930 . S
H2965 C2975 0.930 . S
C2966 H2960 0.930 . S
C2966 C2967 1.355 . S
C2966 C2968 1.415 . S
C2967 C2966 1.355 . S
C2967 C2969 1.419 . S
C2968 C2966 1.415 . S
C2968 C2973 1.425 . S
C2968 C2975 1.409 . S
C2969 H2961 0.930 . S
C2969 C2967 1.419 . S
C2969 C2970 1.362 . S
C2970 H2962 0.930 . S
C2970 C2969 1.362 . S
C2970 C2973 1.409 . S
C2971 H2963 0.930 . S
C2971 C2972 1.355 . S
C2971 C2973 1.415 . S
C2972 C2971 1.355 . S
C2972 C2974 1.419 . S
C2973 C2968 1.425 . S
C2973 C2970 1.409 . S
C2973 C2971 1.415 . S
C2974 H2964 0.930 . S
C2974 C2972 1.419 . S
C2974 C2975 1.362 . S
C2975 H2965 0.930 . S
C2975 C2968 1.409 . S
C2975 C2974 1.362 . S
H2976 C2982 0.930 . S
H2977 C2985 0.930 . S
H2978 C2986 0.930 . S
H2979 C2987 0.930 . S
H2980 C2990 0.930 . S
H2981 C2991 0.930 . S
C2982 H2976 0.930 . S
C2982 C2983 1.355 . S
C2982 C2984 1.415 . S
C2983 C2982 1.355 . S
C2983 C2985 1.419 . S
C2984 C2982 1.415 . S
C2984 C2989 1.425 . S
C2984 C2991 1.409 . S
C2985 H2977 0.930 . S
C2985 C2983 1.419 . S
C2985 C2986 1.362 . S
C2986 H2978 0.930 . S
C2986 C2985 1.362 . S
C2986 C2989 1.409 . S
C2987 H2979 0.930 . S
C2987 C2988 1.355 . S
C2987 C2989 1.415 . S
C2988 C2987 1.355 . S
C2988 C2990 1.419 . S
C2989 C2984 1.425 . S
C2989 C2986 1.409 . S
C2989 C2987 1.415 . S
C2990 H2980 0.930 . S
C2990 C2988 1.419 . S
C2990 C2991 1.362 . S
C2991 H2981 0.930 . S
C2991 C2984 1.409 . S
C2991 C2990 1.362 . S
H2992 C2998 0.930 . S
H2993 C3001 0.930 . S
H2994 C3002 0.930 . S
H2995 C3003 0.930 . S
H2996 C3006 0.930 . S
H2997 C3007 0.930 . S
C2998 H2992 0.930 . S
C2998 C2999 1.368 . S
C2998 C3000 1.415 . S
C2999 C2998 1.368 . S
C2999 C3001 1.411 1_455 S
C3000 C2998 1.415 . S
C3000 C3005 1.425 . S
C3000 C3007 1.409 . S
C3001 H2993 0.930 . S
C3001 C2999 1.411 1_655 S
C3001 C3002 1.362 . S
C3002 H2994 0.930 . S
C3002 C3001 1.362 . S
C3002 C3005 1.409 1_655 S
C3003 H2995 0.930 . S
C3003 C3004 1.355 . S
C3003 C3005 1.415 . S
C3004 C3003 1.355 . S
C3004 C3006 1.419 . S
C3005 C3000 1.425 . S
C3005 C3002 1.409 1_455 S
C3005 C3003 1.415 . S
C3006 H2996 0.930 . S
C3006 C3004 1.419 . S
C3006 C3007 1.362 . S
C3007 H2997 0.930 . S
C3007 C3000 1.409 . S
C3007 C3006 1.362 . S
H3008 C3014 0.930 . S
H3009 C3017 0.930 . S
H3010 C3018 0.922 1_565 S
H3011 C3019 0.930 . S
H3012 C3022 0.930 . S
H3013 C3023 0.930 . S
C3014 H3008 0.930 . S
C3014 C3015 1.355 . S
C3014 C3016 1.415 . S
C3015 C3014 1.355 . S
C3015 C3017 1.419 1_545 S
C3016 C3014 1.415 . S
C3016 C3021 1.425 . S
C3016 C3023 1.409 . S
C3017 H3009 0.930 . S
C3017 C3015 1.419 1_565 S
C3017 C3018 1.355 1_565 S
C3018 H3010 0.922 1_545 S
C3018 C3017 1.355 1_545 S
C3018 C3021 1.425 . S
C3019 H3011 0.930 . S
C3019 C3020 1.355 . S
C3019 C3021 1.415 . S
C3020 C3019 1.355 . S
C3020 C3022 1.419 . S
C3021 C3016 1.425 . S
C3021 C3018 1.425 . S
C3021 C3019 1.415 . S
C3022 H3012 0.930 . S
C3022 C3020 1.419 . S
C3022 C3023 1.362 . S
C3023 H3013 0.930 . S
C3023 C3016 1.409 . S
C3023 C3022 1.362 . S
H3024 C3030 0.930 . S
H3025 C3033 0.930 . S
H3026 C3034 0.930 . S
H3027 C3035 0.930 . S
H3028 C3038 0.930 . S
H3029 C3039 0.930 . S
C3030 H3024 0.930 . S
C3030 C3031 1.355 . S
C3030 C3032 1.415 . S
C3031 C3030 1.355 . S
C3031 C3033 1.419 . S
C3032 C3030 1.415 . S
C3032 C3037 1.425 . S
C3032 C3039 1.409 . S
C3033 H3025 0.930 . S
C3033 C3031 1.419 . S
C3033 C3034 1.362 . S
C3034 H3026 0.930 . S
C3034 C3033 1.362 . S
C3034 C3037 1.409 . S
C3035 H3027 0.930 . S
C3035 C3036 1.355 . S
C3035 C3037 1.415 . S
C3036 C3035 1.355 . S
C3036 C3038 1.419 . S
C3037 C3032 1.425 . S
C3037 C3034 1.409 . S
C3037 C3035 1.415 . S
C3038 H3028 0.930 . S
C3038 C3036 1.419 . S
C3038 C3039 1.362 . S
C3039 H3029 0.930 . S
C3039 C3032 1.409 . S
C3039 C3038 1.362 . S
H3040 C3046 0.930 . S
H3041 C3049 0.930 . S
H3042 C3050 0.930 . S
H3043 C3051 0.930 . S
H3044 C3054 0.930 . S
H3045 C3055 0.930 . S
C3046 H3040 0.930 . S
C3046 C3047 1.355 . S
C3046 C3048 1.415 . S
C3047 C3046 1.355 . S
C3047 C3049 1.419 . S
C3048 C3046 1.415 . S
C3048 C3053 1.425 . S
C3048 C3055 1.409 . S
C3049 H3041 0.930 . S
C3049 C3047 1.419 . S
C3049 C3050 1.362 . S
C3050 H3042 0.930 . S
C3050 C3049 1.362 . S
C3050 C3053 1.409 . S
C3051 H3043 0.930 . S
C3051 C3052 1.355 . S
C3051 C3053 1.415 . S
C3052 C3051 1.355 . S
C3052 C3054 1.419 . S
C3053 C3048 1.425 . S
C3053 C3050 1.409 . S
C3053 C3051 1.415 . S
C3054 H3044 0.930 . S
C3054 C3052 1.419 . S
C3054 C3055 1.362 . S
C3055 H3045 0.930 . S
C3055 C3048 1.409 . S
C3055 C3054 1.362 . S
H3056 C3062 0.930 . S
H3057 C3065 0.930 . S
H3058 C3066 0.930 . S
H3059 C3067 0.930 . S
H3060 C3070 0.930 . S
H3061 C3071 0.930 1_565 S
C3062 H3056 0.930 . S
C3062 C3063 1.355 . S
C3062 C3064 1.415 . S
C3063 C3062 1.355 . S
C3063 C3065 1.419 . S
C3064 C3062 1.415 . S
C3064 C3069 1.425 . S
C3064 C3071 1.409 . S
C3065 H3057 0.930 . S
C3065 C3063 1.419 . S
C3065 C3066 1.362 . S
C3066 H3058 0.930 . S
C3066 C3065 1.362 . S
C3066 C3069 1.409 . S
C3067 H3059 0.930 . S
C3067 C3068 1.355 . S
C3067 C3069 1.415 . S
C3068 C3067 1.355 . S
C3068 C3070 1.419 1_545 S
C3069 C3064 1.425 . S
C3069 C3066 1.409 . S
C3069 C3067 1.415 . S
C3070 H3060 0.930 . S
C3070 C3068 1.419 1_565 S
C3070 C3071 1.362 1_565 S
C3071 H3061 0.930 1_545 S
C3071 C3064 1.409 . S
C3071 C3070 1.362 1_545 S
H3072 C3078 0.930 . S
H3073 C3081 0.930 . S
H3074 C3082 0.930 . S
H3075 C3083 0.930 . S
H3076 C3086 0.930 . S
H3077 C3087 0.930 . S
C3078 H3072 0.930 . S
C3078 C3079 1.355 . S
C3078 C3080 1.415 . S
C3079 C3078 1.355 . S
C3079 C3081 1.419 . S
C3080 C3078 1.415 . S
C3080 C3085 1.425 . S
C3080 C3087 1.409 . S
C3081 H3073 0.930 . S
C3081 C3079 1.419 . S
C3081 C3082 1.362 . S
C3082 H3074 0.930 . S
C3082 C3081 1.362 . S
C3082 C3085 1.409 . S
C3083 H3075 0.930 . S
C3083 C3084 1.355 . S
C3083 C3085 1.415 . S
C3084 C3083 1.355 . S
C3084 C3086 1.419 . S
C3085 C3080 1.425 . S
C3085 C3082 1.409 . S
C3085 C3083 1.415 . S
C3086 H3076 0.930 . S
C3086 C3084 1.419 . S
C3086 C3087 1.362 . S
C3087 H3077 0.930 . S
C3087 C3080 1.409 . S
C3087 C3086 1.362 . S
H3088 C3094 0.930 . S
H3089 C3097 0.930 . S
H3090 C3098 0.930 . S
H3091 C3099 0.930 . S
H3092 C3102 0.930 . S
H3093 C3103 0.930 . S
C3094 H3088 0.930 . S
C3094 C3095 1.355 . S
C3094 C3096 1.415 . S
C3095 C3094 1.355 . S
C3095 C3097 1.419 . S
C3096 C3094 1.415 . S
C3096 C3101 1.425 . S
C3096 C3103 1.409 . S
C3097 H3089 0.930 . S
C3097 C3095 1.419 . S
C3097 C3098 1.362 . S
C3098 H3090 0.930 . S
C3098 C3097 1.362 . S
C3098 C3101 1.409 . S
C3099 H3091 0.930 . S
C3099 C3100 1.355 . S
C3099 C3101 1.415 . S
C3100 C3099 1.355 . S
C3100 C3102 1.419 . S
C3101 C3096 1.425 . S
C3101 C3098 1.409 . S
C3101 C3099 1.415 . S
C3102 H3092 0.930 . S
C3102 C3100 1.419 . S
C3102 C3103 1.362 . S
C3103 H3093 0.930 . S
C3103 C3096 1.409 . S
C3103 C3102 1.362 . S
H3104 C3110 0.930 . S
H3105 C3113 0.930 1_655 S
H3106 C3114 0.930 . S
H3107 C3115 0.930 . S
H3108 C3118 0.930 . S
H3109 C3119 0.930 . S
C3110 H3104 0.930 . S
C3110 C3111 1.355 . S
C3110 C3112 1.415 . S
C3111 C3110 1.355 . S
C3111 C3113 1.419 . S
C3112 C3110 1.415 . S
C3112 C3117 1.425 . S
C3112 C3119 1.409 . S
C3113 H3105 0.930 1_455 S
C3113 C3111 1.419 . S
C3113 C3114 1.362 1_455 S
C3114 H3106 0.930 . S
C3114 C3113 1.362 1_655 S
C3114 C3117 1.409 1_655 S
C3115 H3107 0.930 . S
C3115 C3116 1.355 1_655 S
C3115 C3117 1.415 1_655 S
C3116 C3115 1.355 1_455 S
C3116 C3118 1.419 . S
C3117 C3112 1.425 . S
C3117 C3114 1.409 1_455 S
C3117 C3115 1.415 1_455 S
C3118 H3108 0.930 . S
C3118 C3116 1.419 . S
C3118 C3119 1.362 . S
C3119 H3109 0.930 . S
C3119 C3112 1.409 . S
C3119 C3118 1.362 . S
H3120 C3126 0.930 . S
H3121 C3129 0.930 . S
H3122 C3130 0.930 . S
H3123 C3131 0.930 . S
H3124 C3134 0.930 . S
H3125 C3135 0.930 . S
C3126 H3120 0.930 . S
C3126 C3127 1.355 . S
C3126 C3128 1.415 . S
C3127 C3126 1.355 . S
C3127 C3129 1.419 . S
C3128 C3126 1.415 . S
C3128 C3133 1.425 . S
C3128 C3135 1.409 . S
C3129 H3121 0.930 . S
C3129 C3127 1.419 . S
C3129 C3130 1.362 . S
C3130 H3122 0.930 . S
C3130 C3129 1.362 . S
C3130 C3133 1.409 . S
C3131 H3123 0.930 . S
C3131 C3132 1.355 . S
C3131 C3133 1.415 . S
C3132 C3131 1.355 . S
C3132 C3134 1.419 . S
C3133 C3128 1.425 . S
C3133 C3130 1.409 . S
C3133 C3131 1.415 . S
C3134 H3124 0.930 . S
C3134 C3132 1.419 . S
C3134 C3135 1.362 . S
C3135 H3125 0.930 . S
C3135 C3128 1.409 . S
C3135 C3134 1.362 . S
H3136 C3142 0.930 . S
H3137 C3145 0.911 1_655 S
H3138 C3146 0.930 . S
H3139 C3147 0.930 . S
H3140 C3150 0.930 . S
H3141 C3151 0.930 . S
C3142 H3136 0.930 . S
C3142 C3143 1.355 . S
C3142 C3144 1.415 . S
C3143 C3142 1.355 . S
C3143 C3145 1.455 . S
C3144 C3142 1.415 . S
C3144 C3149 1.425 . S
C3144 C3151 1.409 . S
C3145 H3137 0.911 1_455 S
C3145 C3143 1.455 . S
C3145 C3146 1.346 1_455 S
C3146 H3138 0.930 . S
C3146 C3145 1.346 1_655 S
C3146 C3149 1.409 1_655 S
C3147 H3139 0.930 . S
C3147 C3148 1.355 1_655 S
C3147 C3149 1.415 1_655 S
C3148 C3147 1.355 1_455 S
C3148 C3150 1.419 . S
C3149 C3144 1.425 . S
C3149 C3146 1.409 1_455 S
C3149 C3147 1.415 1_455 S
C3150 H3140 0.930 . S
C3150 C3148 1.419 . S
C3150 C3151 1.362 . S
C3151 H3141 0.930 . S
C3151 C3144 1.409 . S
C3151 C3150 1.362 . S
H3152 C3158 0.930 . S
H3153 C3161 0.930 . S
H3154 C3162 0.930 . S
H3155 C3163 0.930 . S
H3156 C3166 0.930 . S
H3157 C3167 0.930 . S
C3158 H3152 0.930 . S
C3158 C3159 1.355 . S
C3158 C3160 1.415 . S
C3159 C3158 1.355 . S
C3159 C3161 1.419 1_545 S
C3160 C3158 1.415 . S
C3160 C3165 1.425 . S
C3160 C3167 1.409 . S
C3161 H3153 0.930 . S
C3161 C3159 1.419 1_565 S
C3161 C3162 1.362 . S
C3162 H3154 0.930 . S
C3162 C3161 1.362 . S
C3162 C3165 1.409 1_565 S
C3163 H3155 0.930 . S
C3163 C3164 1.355 . S
C3163 C3165 1.415 . S
C3164 C3163 1.355 . S
C3164 C3166 1.419 . S
C3165 C3160 1.425 . S
C3165 C3162 1.409 1_545 S
C3165 C3163 1.415 . S
C3166 H3156 0.930 . S
C3166 C3164 1.419 . S
C3166 C3167 1.362 . S
C3167 H3157 0.930 . S
C3167 C3160 1.409 . S
C3167 C3166 1.362 . S
H3168 C3174 0.930 . S
H3169 C3177 0.930 . S
H3170 C3178 0.930 . S
H3171 C3179 0.930 . S
H3172 C3182 0.930 . S
H3173 C3183 0.930 . S
C3174 H3168 0.930 . S
C3174 C3175 1.355 . S
C3174 C3176 1.415 . S
C3175 C3174 1.355 . S
C3175 C3177 1.419 . S
C3176 C3174 1.415 . S
C3176 C3181 1.425 . S
C3176 C3183 1.409 . S
C3177 H3169 0.930 . S
C3177 C3175 1.419 . S
C3177 C3178 1.362 . S
C3178 H3170 0.930 . S
C3178 C3177 1.362 . S
C3178 C3181 1.409 . S
C3179 H3171 0.930 . S
C3179 C3180 1.355 . S
C3179 C3181 1.415 . S
C3180 C3179 1.355 . S
C3180 C3182 1.419 . S
C3181 C3176 1.425 . S
C3181 C3178 1.409 . S
C3181 C3179 1.415 . S
C3182 H3172 0.930 . S
C3182 C3180 1.419 . S
C3182 C3183 1.362 . S
C3183 H3173 0.930 . S
C3183 C3176 1.409 . S
C3183 C3182 1.362 . S
H3184 C3190 0.930 . S
H3185 C3193 0.930 . S
H3186 C3194 0.930 . S
H3187 C3195 0.930 . S
H3188 C3198 0.930 . S
H3189 C3199 0.930 . S
C3190 H3184 0.930 . S
C3190 C3191 1.368 . S
C3190 C3192 1.415 . S
C3191 C3190 1.368 . S
C3191 C3193 1.411 1_554 S
C3192 C3190 1.415 . S
C3192 C3197 1.425 . S
C3192 C3199 1.409 . S
C3193 H3185 0.930 . S
C3193 C3191 1.411 1_556 S
C3193 C3194 1.362 . S
C3194 H3186 0.930 . S
C3194 C3193 1.362 . S
C3194 C3197 1.409 1_556 S
C3195 H3187 0.930 . S
C3195 C3196 1.355 . S
C3195 C3197 1.415 . S
C3196 C3195 1.355 . S
C3196 C3198 1.419 . S
C3197 C3192 1.425 . S
C3197 C3194 1.409 1_554 S
C3197 C3195 1.415 . S
C3198 H3188 0.930 . S
C3198 C3196 1.419 . S
C3198 C3199 1.362 . S
C3199 H3189 0.930 . S
C3199 C3192 1.409 . S
C3199 C3198 1.362 . S
H3200 C3206 0.930 . S
H3201 C3209 0.930 . S
H3202 C3210 0.930 . S
H3203 C3211 0.930 . S
H3204 C3214 0.930 . S
H3205 C3215 0.930 . S
C3206 H3200 0.930 . S
C3206 C3207 1.355 . S
C3206 C3208 1.415 . S
C3207 C3206 1.355 . S
C3207 C3209 1.419 . S
C3208 C3206 1.415 . S
C3208 C3213 1.425 . S
C3208 C3215 1.409 . S
C3209 H3201 0.930 . S
C3209 C3207 1.419 . S
C3209 C3210 1.362 . S
C3210 H3202 0.930 . S
C3210 C3209 1.362 . S
C3210 C3213 1.409 . S
C3211 H3203 0.930 . S
C3211 C3212 1.355 . S
C3211 C3213 1.415 . S
C3212 C3211 1.355 . S
C3212 C3214 1.419 . S
C3213 C3208 1.425 . S
C3213 C3210 1.409 . S
C3213 C3211 1.415 . S
C3214 H3204 0.930 . S
C3214 C3212 1.419 . S
C3214 C3215 1.362 . S
C3215 H3205 0.930 . S
C3215 C3208 1.409 . S
C3215 C3214 1.362 . S
H3216 C3222 0.930 . S
H3217 C3225 0.930 . S
H3218 C3226 0.930 . S
H3219 C3227 0.930 . S
H3220 C3230 0.930 . S
H3221 C3231 0.930 . S
C3222 H3216 0.930 . S
C3222 C3223 1.355 . S
C3222 C3224 1.415 . S
C3223 C3222 1.355 . S
C3223 C3225 1.419 . S
C3224 C3222 1.415 . S
C3224 C3229 1.425 . S
C3224 C3231 1.409 . S
C3225 H3217 0.930 . S
C3225 C3223 1.419 . S
C3225 C3226 1.362 . S
C3226 H3218 0.930 . S
C3226 C3225 1.362 . S
C3226 C3229 1.409 . S
C3227 H3219 0.930 . S
C3227 C3228 1.355 . S
C3227 C3229 1.415 . S
C3228 C3227 1.355 . S
C3228 C3230 1.419 . S
C3229 C3224 1.425 . S
C3229 C3226 1.409 . S
C3229 C3227 1.415 . S
C3230 H3220 0.930 . S
C3230 C3228 1.419 . S
C3230 C3231 1.362 . S
C3231 H3221 0.930 . S
C3231 C3224 1.409 . S
C3231 C3230 1.362 . S
H3232 C3238 0.930 . S
H3233 C3241 0.930 . S
H3234 C3242 0.930 . S
H3235 C3243 0.930 . S
H3236 C3246 0.930 . S
H3237 C3247 0.930 . S
C3238 H3232 0.930 . S
C3238 C3239 1.355 . S
C3238 C3240 1.415 . S
C3239 C3238 1.355 . S
C3239 C3241 1.419 . S
C3240 C3238 1.415 . S
C3240 C3245 1.425 . S
C3240 C3247 1.409 . S
C3241 H3233 0.930 . S
C3241 C3239 1.419 . S
C3241 C3242 1.362 . S
C3242 H3234 0.930 . S
C3242 C3241 1.362 . S
C3242 C3245 1.409 . S
C3243 H3235 0.930 . S
C3243 C3244 1.355 . S
C3243 C3245 1.415 . S
C3244 C3243 1.355 . S
C3244 C3246 1.419 . S
C3245 C3240 1.425 . S
C3245 C3242 1.409 . S
C3245 C3243 1.415 . S
C3246 H3236 0.930 . S
C3246 C3244 1.419 . S
C3246 C3247 1.362 . S
C3247 H3237 0.930 . S
C3247 C3240 1.409 . S
C3247 C3246 1.362 . S
H3248 C3254 0.930 . S
H3249 C3257 0.930 . S
H3250 C3258 0.930 . S
H3251 C3259 0.930 . S
H3252 C3262 0.930 . S
H3253 C3263 0.930 . S
C3254 H3248 0.930 . S
C3254 C3255 1.355 . S
C3254 C3256 1.415 . S
C3255 C3254 1.355 . S
C3255 C3257 1.419 . S
C3256 C3254 1.415 . S
C3256 C3261 1.425 . S
C3256 C3263 1.409 . S
C3257 H3249 0.930 . S
C3257 C3255 1.419 . S
C3257 C3258 1.362 . S
C3258 H3250 0.930 . S
C3258 C3257 1.362 . S
C3258 C3261 1.409 . S
C3259 H3251 0.930 . S
C3259 C3260 1.355 . S
C3259 C3261 1.415 . S
C3260 C3259 1.355 . S
C3260 C3262 1.419 . S
C3261 C3256 1.425 . S
C3261 C3258 1.409 . S
C3261 C3259 1.415 . S
C3262 H3252 0.930 . S
C3262 C3260 1.419 . S
C3262 C3263 1.362 . S
C3263 H3253 0.930 . S
C3263 C3256 1.409 . S
C3263 C3262 1.362 . S
H3264 C3270 0.930 . S
H3265 C3273 0.930 . S
H3266 C3274 0.930 . S
H3267 C3275 0.930 1_556 S
H3268 C3278 0.930 . S
H3269 C3279 0.930 . S
C3270 H3264 0.930 . S
C3270 C3271 1.357 1_554 S
C3270 C3272 1.415 . S
C3271 C3270 1.357 1_556 S
C3271 C3273 1.417 . S
C3272 C3270 1.415 . S
C3272 C3277 1.425 . S
C3272 C3279 1.409 . S
C3273 H3265 0.930 . S
C3273 C3271 1.417 . S
C3273 C3274 1.362 . S
C3274 H3266 0.930 . S
C3274 C3273 1.362 . S
C3274 C3277 1.409 1_556 S
C3275 H3267 0.930 1_554 S
C3275 C3276 1.355 . S
C3275 C3277 1.415 . S
C3276 C3275 1.355 . S
C3276 C3278 1.419 . S
C3277 C3272 1.425 . S
C3277 C3274 1.409 1_554 S
C3277 C3275 1.415 . S
C3278 H3268 0.930 . S
C3278 C3276 1.419 . S
C3278 C3279 1.362 . S
C3279 H3269 0.930 . S
C3279 C3272 1.409 . S
C3279 C3278 1.362 . S
H3280 C3286 0.930 . S
H3281 C3289 0.929 . S
H3282 C3290 0.930 . S
H3283 C3291 0.930 . S
H3284 C3294 0.930 . S
H3285 C3295 0.930 . S
C3286 H3280 0.930 . S
C3286 C3287 1.355 . S
C3286 C3288 1.415 . S
C3287 C3286 1.355 . S
C3287 C3289 1.419 . S
C3288 C3286 1.415 . S
C3288 C3293 1.425 . S
C3288 C3295 1.409 . S
C3289 H3281 0.929 . S
C3289 C3287 1.419 . S
C3289 C3290 1.362 . S
C3290 H3282 0.930 . S
C3290 C3289 1.362 . S
C3290 C3293 1.409 . S
C3291 H3283 0.930 . S
C3291 C3292 1.355 . S
C3291 C3293 1.415 . S
C3292 C3291 1.355 . S
C3292 C3294 1.419 . S
C3293 C3288 1.425 . S
C3293 C3290 1.409 . S
C3293 C3291 1.415 . S
C3294 H3284 0.930 . S
C3294 C3292 1.419 . S
C3294 C3295 1.362 . S
C3295 H3285 0.930 . S
C3295 C3288 1.409 . S
C3295 C3294 1.362 . S
H3296 C3302 0.930 . S
H3297 C3305 0.930 . S
H3298 C3306 0.930 . S
H3299 C3307 0.930 . S
H3300 C3310 0.930 . S
H3301 C3311 0.930 . S
C3302 H3296 0.930 . S
C3302 C3303 1.355 . S
C3302 C3304 1.415 . S
C3303 C3302 1.355 . S
C3303 C3305 1.419 . S
C3304 C3302 1.415 . S
C3304 C3309 1.425 . S
C3304 C3311 1.409 1_554 S
C3305 H3297 0.930 . S
C3305 C3303 1.419 . S
C3305 C3306 1.362 . S
C3306 H3298 0.930 . S
C3306 C3305 1.362 . S
C3306 C3309 1.409 . S
C3307 H3299 0.930 . S
C3307 C3308 1.362 . S
C3307 C3309 1.415 . S
C3308 C3307 1.362 . S
C3308 C3310 1.414 1_554 S
C3309 C3304 1.425 . S
C3309 C3306 1.409 . S
C3309 C3307 1.415 . S
C3310 H3300 0.930 . S
C3310 C3308 1.414 1_556 S
C3310 C3311 1.362 . S
C3311 H3301 0.930 . S
C3311 C3304 1.409 1_556 S
C3311 C3310 1.362 . S
H3312 C3318 0.930 . S
H3313 C3321 0.930 . S
H3314 C3322 0.930 . S
H3315 C3323 0.930 . S
H3316 C3326 0.930 . S
H3317 C3327 0.930 . S
C3318 H3312 0.930 . S
C3318 C3319 1.355 . S
C3318 C3320 1.415 . S
C3319 C3318 1.355 . S
C3319 C3321 1.419 . S
C3320 C3318 1.415 . S
C3320 C3325 1.425 . S
C3320 C3327 1.409 . S
C3321 H3313 0.930 . S
C3321 C3319 1.419 . S
C3321 C3322 1.362 . S
C3322 H3314 0.930 . S
C3322 C3321 1.362 . S
C3322 C3325 1.409 . S
C3323 H3315 0.930 . S
C3323 C3324 1.355 . S
C3323 C3325 1.415 . S
C3324 C3323 1.355 . S
C3324 C3326 1.419 . S
C3325 C3320 1.425 . S
C3325 C3322 1.409 . S
C3325 C3323 1.415 . S
C3326 H3316 0.930 . S
C3326 C3324 1.419 . S
C3326 C3327 1.362 . S
C3327 H3317 0.930 . S
C3327 C3320 1.409 . S
C3327 C3326 1.362 . S
H3328 C3334 0.930 . S
H3329 C3337 0.930 . S
H3330 C3338 0.930 . S
H3331 C3339 0.930 . S
H3332 C3342 0.930 . S
H3333 C3343 0.930 . S
C3334 H3328 0.930 . S
C3334 C3335 1.355 . S
C3334 C3336 1.415 . S
C3335 C3334 1.355 . S
C3335 C3337 1.419 . S
C3336 C3334 1.415 . S
C3336 C3341 1.425 . S
C3336 C3343 1.409 . S
C3337 H3329 0.930 . S
C3337 C3335 1.419 . S
C3337 C3338 1.362 . S
C3338 H3330 0.930 . S
C3338 C3337 1.362 . S
C3338 C3341 1.409 . S
C3339 H3331 0.930 . S
C3339 C3340 1.355 . S
C3339 C3341 1.415 . S
C3340 C3339 1.355 . S
C3340 C3342 1.419 . S
C3341 C3336 1.425 . S
C3341 C3338 1.409 . S
C3341 C3339 1.415 . S
C3342 H3332 0.930 . S
C3342 C3340 1.419 . S
C3342 C3343 1.362 . S
C3343 H3333 0.930 . S
C3343 C3336 1.409 . S
C3343 C3342 1.362 . S
H3344 C3350 0.930 . S
H3345 C3353 0.930 . S
H3346 C3354 0.930 . S
H3347 C3355 0.930 . S
H3348 C3358 0.930 . S
H3349 C3359 0.930 . S
C3350 H3344 0.930 . S
C3350 C3351 1.355 . S
C3350 C3352 1.415 . S
C3351 C3350 1.355 . S
C3351 C3353 1.419 . S
C3352 C3350 1.415 . S
C3352 C3357 1.425 . S
C3352 C3359 1.409 . S
C3353 H3345 0.930 . S
C3353 C3351 1.419 . S
C3353 C3354 1.362 . S
C3354 H3346 0.930 . S
C3354 C3353 1.362 . S
C3354 C3357 1.409 . S
C3355 H3347 0.930 . S
C3355 C3356 1.355 . S
C3355 C3357 1.415 . S
C3356 C3355 1.355 . S
C3356 C3358 1.419 . S
C3357 C3352 1.425 . S
C3357 C3354 1.409 . S
C3357 C3355 1.415 . S
C3358 H3348 0.930 . S
C3358 C3356 1.419 . S
C3358 C3359 1.362 . S
C3359 H3349 0.930 . S
C3359 C3352 1.409 . S
C3359 C3358 1.362 . S
H3360 C3366 0.930 . S
H3361 C3369 0.930 . S
H3362 C3370 0.930 . S
H3363 C3371 0.930 . S
H3364 C3374 0.930 . S
H3365 C3375 0.930 . S
C3366 H3360 0.930 . S
C3366 C3367 1.355 . S
C3366 C3368 1.415 . S
C3367 C3366 1.355 . S
C3367 C3369 1.419 . S
C3368 C3366 1.415 . S
C3368 C3373 1.425 . S
C3368 C3375 1.409 . S
C3369 H3361 0.930 . S
C3369 C3367 1.419 . S
C3369 C3370 1.362 . S
C3370 H3362 0.930 . S
C3370 C3369 1.362 . S
C3370 C3373 1.409 . S
C3371 H3363 0.930 . S
C3371 C3372 1.355 . S
C3371 C3373 1.415 . S
C3372 C3371 1.355 . S
C3372 C3374 1.419 . S
C3373 C3368 1.425 . S
C3373 C3370 1.409 . S
C3373 C3371 1.415 . S
C3374 H3364 0.930 . S
C3374 C3372 1.419 . S
C3374 C3375 1.362 . S
C3375 H3365 0.930 . S
C3375 C3368 1.409 . S
C3375 C3374 1.362 . S
H3376 C3382 0.930 . S
H3377 C3385 0.930 . S
H3378 C3386 0.930 . S
H3379 C3387 0.930 . S
H3380 C3390 0.930 . S
H3381 C3391 0.930 . S
C3382 H3376 0.930 . S
C3382 C3383 1.355 . S
C3382 C3384 1.415 . S
C3383 C3382 1.355 . S
C3383 C3385 1.419 . S
C3384 C3382 1.415 . S
C3384 C3389 1.425 . S
C3384 C3391 1.409 . S
C3385 H3377 0.930 . S
C3385 C3383 1.419 . S
C3385 C3386 1.362 . S
C3386 H3378 0.930 . S
C3386 C3385 1.362 . S
C3386 C3389 1.409 . S
C3387 H3379 0.930 . S
C3387 C3388 1.355 . S
C3387 C3389 1.415 . S
C3388 C3387 1.355 . S
C3388 C3390 1.419 . S
C3389 C3384 1.425 . S
C3389 C3386 1.409 . S
C3389 C3387 1.415 . S
C3390 H3380 0.930 . S
C3390 C3388 1.419 . S
C3390 C3391 1.362 . S
C3391 H3381 0.930 . S
C3391 C3384 1.409 . S
C3391 C3390 1.362 . S
H3392 C3398 0.930 . S
H3393 C3401 0.930 . S
H3394 C3402 0.930 . S
H3395 C3403 0.930 . S
H3396 C3406 0.930 . S
H3397 C3407 0.930 . S
C3398 H3392 0.930 . S
C3398 C3399 1.355 . S
C3398 C3400 1.415 . S
C3399 C3398 1.355 . S
C3399 C3401 1.419 . S
C3400 C3398 1.415 . S
C3400 C3405 1.425 . S
C3400 C3407 1.409 . S
C3401 H3393 0.930 . S
C3401 C3399 1.419 . S
C3401 C3402 1.362 . S
C3402 H3394 0.930 . S
C3402 C3401 1.362 . S
C3402 C3405 1.409 . S
C3403 H3395 0.930 . S
C3403 C3404 1.355 . S
C3403 C3405 1.415 . S
C3404 C3403 1.355 . S
C3404 C3406 1.419 . S
C3405 C3400 1.425 . S
C3405 C3402 1.409 . S
C3405 C3403 1.415 . S
C3406 H3396 0.930 . S
C3406 C3404 1.419 . S
C3406 C3407 1.362 . S
C3407 H3397 0.930 . S
C3407 C3400 1.409 . S
C3407 C3406 1.362 . S
H3408 C3414 0.930 . S
H3409 C3417 0.930 . S
H3410 C3418 0.930 . S
H3411 C3419 0.930 . S
H3412 C3422 0.930 . S
H3413 C3423 0.930 . S
C3414 H3408 0.930 . S
C3414 C3415 1.355 . S
C3414 C3416 1.415 . S
C3415 C3414 1.355 . S
C3415 C3417 1.419 . S
C3416 C3414 1.415 . S
C3416 C3421 1.425 . S
C3416 C3423 1.409 . S
C3417 H3409 0.930 . S
C3417 C3415 1.419 . S
C3417 C3418 1.362 . S
C3418 H3410 0.930 . S
C3418 C3417 1.362 . S
C3418 C3421 1.409 . S
C3419 H3411 0.930 . S
C3419 C3420 1.355 . S
C3419 C3421 1.415 . S
C3420 C3419 1.355 . S
C3420 C3422 1.419 . S
C3421 C3416 1.425 . S
C3421 C3418 1.409 . S
C3421 C3419 1.415 . S
C3422 H3412 0.930 . S
C3422 C3420 1.419 . S
C3422 C3423 1.362 . S
C3423 H3413 0.930 . S
C3423 C3416 1.409 . S
C3423 C3422 1.362 . S
H3424 C3430 0.930 . S
H3425 C3433 0.930 . S
H3426 C3434 0.930 . S
H3427 C3435 0.930 . S
H3428 C3438 0.930 . S
H3429 C3439 0.930 . S
C3430 H3424 0.930 . S
C3430 C3431 1.355 . S
C3430 C3432 1.415 . S
C3431 C3430 1.355 . S
C3431 C3433 1.419 . S
C3432 C3430 1.415 . S
C3432 C3437 1.425 . S
C3432 C3439 1.409 . S
C3433 H3425 0.930 . S
C3433 C3431 1.419 . S
C3433 C3434 1.362 . S
C3434 H3426 0.930 . S
C3434 C3433 1.362 . S
C3434 C3437 1.409 . S
C3435 H3427 0.930 . S
C3435 C3436 1.355 . S
C3435 C3437 1.415 . S
C3436 C3435 1.355 . S
C3436 C3438 1.419 . S
C3437 C3432 1.425 . S
C3437 C3434 1.409 . S
C3437 C3435 1.415 . S
C3438 H3428 0.930 . S
C3438 C3436 1.419 . S
C3438 C3439 1.362 . S
C3439 H3429 0.930 . S
C3439 C3432 1.409 . S
C3439 C3438 1.362 . S
H3440 C3446 0.930 . S
H3441 C3449 0.930 . S
H3442 C3450 0.930 . S
H3443 C3451 0.930 . S
H3444 C3454 0.930 . S
H3445 C3455 0.930 . S
C3446 H3440 0.930 . S
C3446 C3447 1.355 . S
C3446 C3448 1.415 . S
C3447 C3446 1.355 . S
C3447 C3449 1.419 . S
C3448 C3446 1.415 . S
C3448 C3453 1.425 . S
C3448 C3455 1.409 . S
C3449 H3441 0.930 . S
C3449 C3447 1.419 . S
C3449 C3450 1.362 . S
C3450 H3442 0.930 . S
C3450 C3449 1.362 . S
C3450 C3453 1.409 . S
C3451 H3443 0.930 . S
C3451 C3452 1.355 . S
C3451 C3453 1.415 . S
C3452 C3451 1.355 . S
C3452 C3454 1.419 . S
C3453 C3448 1.425 . S
C3453 C3450 1.409 . S
C3453 C3451 1.415 . S
C3454 H3444 0.930 . S
C3454 C3452 1.419 . S
C3454 C3455 1.362 . S
C3455 H3445 0.930 . S
C3455 C3448 1.409 . S
C3455 C3454 1.362 . S
H3456 C3462 0.930 . S
H3457 C3465 0.930 . S
H3458 C3466 0.930 . S
H3459 C3467 0.930 . S
H3460 C3470 0.930 . S
H3461 C3471 0.930 . S
C3462 H3456 0.930 . S
C3462 C3463 1.355 . S
C3462 C3464 1.415 . S
C3463 C3462 1.355 . S
C3463 C3465 1.419 . S
C3464 C3462 1.415 . S
C3464 C3469 1.425 . S
C3464 C3471 1.409 . S
C3465 H3457 0.930 . S
C3465 C3463 1.419 . S
C3465 C3466 1.362 . S
C3466 H3458 0.930 . S
C3466 C3465 1.362 . S
C3466 C3469 1.409 . S
C3467 H3459 0.930 . S
C3467 C3468 1.355 . S
C3467 C3469 1.415 . S
C3468 C3467 1.355 . S
C3468 C3470 1.419 . S
C3469 C3464 1.425 . S
C3469 C3466 1.409 . S
C3469 C3467 1.415 . S
C3470 H3460 0.930 . S
C3470 C3468 1.419 . S
C3470 C3471 1.362 . S
C3471 H3461 0.930 . S
C3471 C3464 1.409 . S
C3471 C3470 1.362 . S
H3472 C3478 0.930 . S
H3473 C3481 0.930 . S
H3474 C3482 0.930 . S
H3475 C3483 0.930 . S
H3476 C3486 0.930 . S
H3477 C3487 0.930 . S
C3478 H3472 0.930 . S
C3478 C3479 1.355 . S
C3478 C3480 1.415 . S
C3479 C3478 1.355 . S
C3479 C3481 1.419 . S
C3480 C3478 1.415 . S
C3480 C3485 1.425 . S
C3480 C3487 1.409 . S
C3481 H3473 0.930 . S
C3481 C3479 1.419 . S
C3481 C3482 1.362 . S
C3482 H3474 0.930 . S
C3482 C3481 1.362 . S
C3482 C3485 1.409 . S
C3483 H3475 0.930 . S
C3483 C3484 1.355 . S
C3483 C3485 1.415 . S
C3484 C3483 1.355 . S
C3484 C3486 1.419 . S
C3485 C3480 1.425 . S
C3485 C3482 1.409 . S
C3485 C3483 1.415 . S
C3486 H3476 0.930 . S
C3486 C3484 1.419 . S
C3486 C3487 1.362 . S
C3487 H3477 0.930 . S
C3487 C3480 1.409 . S
C3487 C3486 1.362 . S
H3488 C3494 0.930 . S
H3489 C3497 0.930 . S
H3490 C3498 0.930 . S
H3491 C3499 0.930 . S
H3492 C3502 0.930 . S
H3493 C3503 0.930 . S
C3494 H3488 0.930 . S
C3494 C3495 1.355 . S
C3494 C3496 1.415 . S
C3495 C3494 1.355 . S
C3495 C3497 1.419 . S
C3496 C3494 1.415 . S
C3496 C3501 1.425 . S
C3496 C3503 1.409 . S
C3497 H3489 0.930 . S
C3497 C3495 1.419 . S
C3497 C3498 1.362 . S
C3498 H3490 0.930 . S
C3498 C3497 1.362 . S
C3498 C3501 1.409 . S
C3499 H3491 0.930 . S
C3499 C3500 1.355 . S
C3499 C3501 1.415 . S
C3500 C3499 1.355 . S
C3500 C3502 1.419 . S
C3501 C3496 1.425 . S
C3501 C3498 1.409 . S
C3501 C3499 1.415 . S
C3502 H3492 0.930 . S
C3502 C3500 1.419 . S
C3502 C3503 1.362 . S
C3503 H3493 0.930 . S
C3503 C3496 1.409 . S
C3503 C3502 1.362 . S
H3504 C3510 0.930 . S
H3505 C3513 0.930 . S
H3506 C3514 0.930 . S
H3507 C3515 0.930 . S
H3508 C3518 0.930 . S
H3509 C3519 0.930 . S
C3510 H3504 0.930 . S
C3510 C3511 1.355 . S
C3510 C3512 1.415 . S
C3511 C3510 1.355 . S
C3511 C3513 1.419 . S
C3512 C3510 1.415 . S
C3512 C3517 1.425 . S
C3512 C3519 1.409 . S
C3513 H3505 0.930 . S
C3513 C3511 1.419 . S
C3513 C3514 1.362 . S
C3514 H3506 0.930 . S
C3514 C3513 1.362 . S
C3514 C3517 1.409 . S
C3515 H3507 0.930 . S
C3515 C3516 1.355 . S
C3515 C3517 1.415 . S
C3516 C3515 1.355 . S
C3516 C3518 1.419 . S
C3517 C3512 1.425 . S
C3517 C3514 1.409 . S
C3517 C3515 1.415 . S
C3518 H3508 0.930 . S
C3518 C3516 1.419 . S
C3518 C3519 1.362 . S
C3519 H3509 0.930 . S
C3519 C3512 1.409 . S
C3519 C3518 1.362 . S
H3520 C3526 0.930 . S
H3521 C3529 0.930 . S
H3522 C3530 0.930 . S
H3523 C3531 0.930 . S
H3524 C3534 0.930 . S
H3525 C3535 0.930 . S
C3526 H3520 0.930 . S
C3526 C3527 1.355 . S
C3526 C3528 1.415 . S
C3527 C3526 1.355 . S
C3527 C3529 1.419 . S
C3528 C3526 1.415 . S
C3528 C3533 1.425 . S
C3528 C3535 1.409 . S
C3529 H3521 0.930 . S
C3529 C3527 1.419 . S
C3529 C3530 1.362 . S
C3530 H3522 0.930 . S
C3530 C3529 1.362 . S
C3530 C3533 1.409 . S
C3531 H3523 0.930 . S
C3531 C3532 1.355 . S
C3531 C3533 1.415 . S
C3532 C3531 1.355 . S
C3532 C3534 1.419 . S
C3533 C3528 1.425 . S
C3533 C3530 1.409 . S
C3533 C3531 1.415 . S
C3534 H3524 0.930 . S
C3534 C3532 1.419 . S
C3534 C3535 1.362 . S
C3535 H3525 0.930 . S
C3535 C3528 1.409 . S
C3535 C3534 1.362 . S
H3536 C3542 0.930 . S
H3537 C3545 0.930 . S
H3538 C3546 0.930 . S
H3539 C3547 0.930 . S
H3540 C3550 0.930 . S
H3541 C3551 0.930 . S
C3542 H3536 0.930 . S
C3542 C3543 1.355 . S
C3542 C3544 1.415 . S
C3543 C3542 1.355 . S
C3543 C3545 1.419 . S
C3544 C3542 1.415 . S
C3544 C3549 1.425 . S
C3544 C3551 1.409 . S
C3545 H3537 0.930 . S
C3545 C3543 1.419 . S
C3545 C3546 1.362 . S
C3546 H3538 0.930 . S
C3546 C3545 1.362 . S
C3546 C3549 1.409 . S
C3547 H3539 0.930 . S
C3547 C3548 1.355 . S
C3547 C3549 1.415 . S
C3548 C3547 1.355 . S
C3548 C3550 1.419 . S
C3549 C3544 1.425 . S
C3549 C3546 1.409 . S
C3549 C3547 1.415 . S
C3550 H3540 0.930 . S
C3550 C3548 1.419 . S
C3550 C3551 1.362 . S
C3551 H3541 0.930 . S
C3551 C3544 1.409 . S
C3551 C3550 1.362 . S
H3552 C3558 0.930 . S
H3553 C3561 0.930 . S
H3554 C3562 0.930 . S
H3555 C3563 0.930 . S
H3556 C3566 0.930 . S
H3557 C3567 0.930 . S
C3558 H3552 0.930 . S
C3558 C3559 1.355 . S
C3558 C3560 1.415 . S
C3559 C3558 1.355 . S
C3559 C3561 1.419 . S
C3560 C3558 1.415 . S
C3560 C3565 1.425 . S
C3560 C3567 1.409 . S
C3561 H3553 0.930 . S
C3561 C3559 1.419 . S
C3561 C3562 1.362 . S
C3562 H3554 0.930 . S
C3562 C3561 1.362 . S
C3562 C3565 1.409 . S
C3563 H3555 0.930 . S
C3563 C3564 1.355 . S
C3563 C3565 1.415 . S
C3564 C3563 1.355 . S
C3564 C3566 1.419 . S
C3565 C3560 1.425 . S
C3565 C3562 1.409 . S
C3565 C3563 1.415 . S
C3566 H3556 0.930 . S
C3566 C3564 1.419 . S
C3566 C3567 1.362 . S
C3567 H3557 0.930 . S
C3567 C3560 1.409 . S
C3567 C3566 1.362 . S
H3568 C3574 0.930 . S
H3569 C3577 0.930 . S
H3570 C3578 0.930 . S
H3571 C3579 0.930 . S
H3572 C3582 0.930 . S
H3573 C3583 0.930 . S
C3574 H3568 0.930 . S
C3574 C3575 1.355 . S
C3574 C3576 1.415 . S
C3575 C3574 1.355 . S
C3575 C3577 1.419 . S
C3576 C3574 1.415 . S
C3576 C3581 1.425 . S
C3576 C3583 1.409 . S
C3577 H3569 0.930 . S
C3577 C3575 1.419 . S
C3577 C3578 1.362 . S
C3578 H3570 0.930 . S
C3578 C3577 1.362 . S
C3578 C3581 1.409 . S
C3579 H3571 0.930 . S
C3579 C3580 1.355 . S
C3579 C3581 1.415 . S
C3580 C3579 1.355 . S
C3580 C3582 1.419 . S
C3581 C3576 1.425 . S
C3581 C3578 1.409 . S
C3581 C3579 1.415 . S
C3582 H3572 0.930 . S
C3582 C3580 1.419 . S
C3582 C3583 1.362 . S
C3583 H3573 0.930 . S
C3583 C3576 1.409 . S
C3583 C3582 1.362 . S
H3584 C3590 0.930 . S
H3585 C3593 0.930 . S
H3586 C3594 0.930 . S
H3587 C3595 0.930 . S
H3588 C3598 0.930 . S
H3589 C3599 0.930 . S
C3590 H3584 0.930 . S
C3590 C3591 1.355 . S
C3590 C3592 1.415 . S
C3591 C3590 1.355 . S
C3591 C3593 1.419 . S
C3592 C3590 1.415 . S
C3592 C3597 1.425 . S
C3592 C3599 1.409 . S
C3593 H3585 0.930 . S
C3593 C3591 1.419 . S
C3593 C3594 1.362 . S
C3594 H3586 0.930 . S
C3594 C3593 1.362 . S
C3594 C3597 1.409 . S
C3595 H3587 0.930 . S
C3595 C3596 1.355 . S
C3595 C3597 1.415 . S
C3596 C3595 1.355 . S
C3596 C3598 1.419 . S
C3597 C3592 1.425 . S
C3597 C3594 1.409 . S
C3597 C3595 1.415 . S
C3598 H3588 0.930 . S
C3598 C3596 1.419 . S
C3598 C3599 1.362 . S
C3599 H3589 0.930 . S
C3599 C3592 1.409 . S
C3599 C3598 1.362 . S
H3600 C3606 0.930 . S
H3601 C3609 0.930 . S
H3602 C3610 0.930 . S
H3603 C3611 0.930 . S
H3604 C3614 0.930 . S
H3605 C3615 0.930 . S
C3606 H3600 0.930 . S
C3606 C3607 1.355 . S
C3606 C3608 1.415 . S
C3607 C3606 1.355 . S
C3607 C3609 1.419 . S
C3608 C3606 1.415 . S
C3608 C3613 1.425 . S
C3608 C3615 1.409 . S
C3609 H3601 0.930 . S
C3609 C3607 1.419 . S
C3609 C3610 1.362 . S
C3610 H3602 0.930 . S
C3610 C3609 1.362 . S
C3610 C3613 1.409 . S
C3611 H3603 0.930 . S
C3611 C3612 1.355 . S
C3611 C3613 1.415 . S
C3612 C3611 1.355 . S
C3612 C3614 1.419 . S
C3613 C3608 1.425 . S
C3613 C3610 1.409 . S
C3613 C3611 1.415 . S
C3614 H3604 0.930 . S
C3614 C3612 1.419 . S
C3614 C3615 1.362 . S
C3615 H3605 0.930 . S
C3615 C3608 1.409 . S
C3615 C3614 1.362 . S
H3616 C3622 0.930 . S
H3617 C3625 0.930 . S
H3618 C3626 0.930 . S
H3619 C3627 0.930 . S
H3620 C3630 0.930 . S
H3621 C3631 0.930 . S
C3622 H3616 0.930 . S
C3622 C3623 1.355 . S
C3622 C3624 1.415 . S
C3623 C3622 1.355 . S
C3623 C3625 1.419 . S
C3624 C3622 1.415 . S
C3624 C3629 1.425 . S
C3624 C3631 1.409 . S
C3625 H3617 0.930 . S
C3625 C3623 1.419 . S
C3625 C3626 1.362 . S
C3626 H3618 0.930 . S
C3626 C3625 1.362 . S
C3626 C3629 1.409 . S
C3627 H3619 0.930 . S
C3627 C3628 1.355 . S
C3627 C3629 1.415 . S
C3628 C3627 1.355 . S
C3628 C3630 1.419 . S
C3629 C3624 1.425 . S
C3629 C3626 1.409 . S
C3629 C3627 1.415 . S
C3630 H3620 0.930 . S
C3630 C3628 1.419 . S
C3630 C3631 1.362 . S
C3631 H3621 0.930 . S
C3631 C3624 1.409 . S
C3631 C3630 1.362 . S
H3632 C3638 0.930 . S
H3633 C3641 0.930 . S
H3634 C3642 0.930 . S
H3635 C3643 0.930 . S
H3636 C3646 0.930 . S
H3637 C3647 0.930 . S
C3638 H3632 0.930 . S
C3638 C3639 1.355 . S
C3638 C3640 1.415 . S
C3639 C3638 1.355 . S
C3639 C3641 1.419 . S
C3640 C3638 1.415 . S
C3640 C3645 1.425 . S
C3640 C3647 1.409 . S
C3641 H3633 0.930 . S
C3641 C3639 1.419 . S
C3641 C3642 1.362 . S
C3642 H3634 0.930 . S
C3642 C3641 1.362 . S
C3642 C3645 1.409 . S
C3643 H3635 0.930 . S
C3643 C3644 1.355 . S
C3643 C3645 1.415 . S
C3644 C3643 1.355 . S
C3644 C3646 1.419 . S
C3645 C3640 1.425 . S
C3645 C3642 1.409 . S
C3645 C3643 1.415 . S
C3646 H3636 0.930 . S
C3646 C3644 1.419 . S
C3646 C3647 1.362 . S
C3647 H3637 0.930 . S
C3647 C3640 1.409 . S
C3647 C3646 1.362 . S
H3648 C3654 0.930 . S
H3649 C3657 0.930 . S
H3650 C3658 0.930 . S
H3651 C3659 0.930 . S
H3652 C3662 0.930 . S
H3653 C3663 0.930 . S
C3654 H3648 0.930 . S
C3654 C3655 1.355 . S
C3654 C3656 1.415 . S
C3655 C3654 1.355 . S
C3655 C3657 1.419 . S
C3656 C3654 1.415 . S
C3656 C3661 1.425 . S
C3656 C3663 1.409 . S
C3657 H3649 0.930 . S
C3657 C3655 1.419 . S
C3657 C3658 1.362 . S
C3658 H3650 0.930 . S
C3658 C3657 1.362 . S
C3658 C3661 1.409 . S
C3659 H3651 0.930 . S
C3659 C3660 1.355 . S
C3659 C3661 1.415 . S
C3660 C3659 1.355 . S
C3660 C3662 1.419 . S
C3661 C3656 1.425 . S
C3661 C3658 1.409 . S
C3661 C3659 1.415 . S
C3662 H3652 0.930 . S
C3662 C3660 1.419 . S
C3662 C3663 1.362 . S
C3663 H3653 0.930 . S
C3663 C3656 1.409 . S
C3663 C3662 1.362 . S
H3664 C3670 0.930 . S
H3665 C3673 0.930 . S
H3666 C3674 0.930 . S
H3667 C3675 0.930 . S
H3668 C3678 0.930 . S
H3669 C3679 0.930 . S
C3670 H3664 0.930 . S
C3670 C3671 1.355 . S
C3670 C3672 1.415 . S
C3671 C3670 1.355 . S
C3671 C3673 1.419 . S
C3672 C3670 1.415 . S
C3672 C3677 1.425 . S
C3672 C3679 1.409 . S
C3673 H3665 0.930 . S
C3673 C3671 1.419 . S
C3673 C3674 1.362 . S
C3674 H3666 0.930 . S
C3674 C3673 1.362 . S
C3674 C3677 1.409 . S
C3675 H3667 0.930 . S
C3675 C3676 1.355 . S
C3675 C3677 1.415 . S
C3676 C3675 1.355 . S
C3676 C3678 1.419 . S
C3677 C3672 1.425 . S
C3677 C3674 1.409 . S
C3677 C3675 1.415 . S
C3678 H3668 0.930 . S
C3678 C3676 1.419 . S
C3678 C3679 1.362 . S
C3679 H3669 0.930 . S
C3679 C3672 1.409 . S
C3679 C3678 1.362 . S
H3680 C3686 0.930 . S
H3681 C3689 0.930 . S
H3682 C3690 0.930 . S
H3683 C3691 0.930 . S
H3684 C3694 0.930 . S
H3685 C3695 0.930 . S
C3686 H3680 0.930 . S
C3686 C3687 1.355 . S
C3686 C3688 1.415 . S
C3687 C3686 1.355 . S
C3687 C3689 1.419 . S
C3688 C3686 1.415 . S
C3688 C3693 1.425 . S
C3688 C3695 1.409 . S
C3689 H3681 0.930 . S
C3689 C3687 1.419 . S
C3689 C3690 1.362 . S
C3690 H3682 0.930 . S
C3690 C3689 1.362 . S
C3690 C3693 1.409 . S
C3691 H3683 0.930 . S
C3691 C3692 1.355 . S
C3691 C3693 1.415 . S
C3692 C3691 1.355 . S
C3692 C3694 1.419 . S
C3693 C3688 1.425 . S
C3693 C3690 1.409 . S
C3693 C3691 1.415 . S
C3694 H3684 0.930 . S
C3694 C3692 1.419 . S
C3694 C3695 1.362 . S
C3695 H3685 0.930 . S
C3695 C3688 1.409 . S
C3695 C3694 1.362 . S
H3696 C3702 0.930 . S
H3697 C3705 0.930 . S
H3698 C3706 0.930 . S
H3699 C3707 0.930 . S
H3700 C3710 0.930 . S
H3701 C3711 0.930 . S
C3702 H3696 0.930 . S
C3702 C3703 1.355 . S
C3702 C3704 1.415 . S
C3703 C3702 1.355 . S
C3703 C3705 1.419 . S
C3704 C3702 1.415 . S
C3704 C3709 1.425 . S
C3704 C3711 1.409 . S
C3705 H3697 0.930 . S
C3705 C3703 1.419 . S
C3705 C3706 1.362 . S
C3706 H3698 0.930 . S
C3706 C3705 1.362 . S
C3706 C3709 1.409 . S
C3707 H3699 0.930 . S
C3707 C3708 1.355 . S
C3707 C3709 1.415 . S
C3708 C3707 1.355 . S
C3708 C3710 1.419 . S
C3709 C3704 1.425 . S
C3709 C3706 1.409 . S
C3709 C3707 1.415 . S
C3710 H3700 0.930 . S
C3710 C3708 1.419 . S
C3710 C3711 1.362 . S
C3711 H3701 0.930 . S
C3711 C3704 1.409 . S
C3711 C3710 1.362 . S
H3712 C3718 0.930 . S
H3713 C3721 0.930 . S
H3714 C3722 0.930 . S
H3715 C3723 0.930 . S
H3716 C3726 0.930 . S
H3717 C3727 0.930 . S
C3718 H3712 0.930 . S
C3718 C3719 1.355 . S
C3718 C3720 1.415 . S
C3719 C3718 1.355 . S
C3719 C3721 1.419 . S
C3720 C3718 1.415 . S
C3720 C3725 1.425 . S
C3720 C3727 1.409 . S
C3721 H3713 0.930 . S
C3721 C3719 1.419 . S
C3721 C3722 1.362 . S
C3722 H3714 0.930 . S
C3722 C3721 1.362 . S
C3722 C3725 1.409 . S
C3723 H3715 0.930 . S
C3723 C3724 1.355 . S
C3723 C3725 1.415 . S
C3724 C3723 1.355 . S
C3724 C3726 1.419 . S
C3725 C3720 1.425 . S
C3725 C3722 1.409 . S
C3725 C3723 1.415 . S
C3726 H3716 0.930 . S
C3726 C3724 1.419 . S
C3726 C3727 1.362 . S
C3727 H3717 0.930 . S
C3727 C3720 1.409 . S
C3727 C3726 1.362 . S
H3728 C3734 0.930 . S
H3729 C3737 0.930 . S
H3730 C3738 0.930 . S
H3731 C3739 0.930 . S
H3732 C3742 0.930 . S
H3733 C3743 0.930 . S
C3734 H3728 0.930 . S
C3734 C3735 1.355 . S
C3734 C3736 1.415 . S
C3735 C3734 1.355 . S
C3735 C3737 1.419 . S
C3736 C3734 1.415 . S
C3736 C3741 1.425 . S
C3736 C3743 1.409 . S
C3737 H3729 0.930 . S
C3737 C3735 1.419 . S
C3737 C3738 1.362 . S
C3738 H3730 0.930 . S
C3738 C3737 1.362 . S
C3738 C3741 1.409 . S
C3739 H3731 0.930 . S
C3739 C3740 1.355 . S
C3739 C3741 1.415 . S
C3740 C3739 1.355 . S
C3740 C3742 1.419 . S
C3741 C3736 1.425 . S
C3741 C3738 1.409 . S
C3741 C3739 1.415 . S
C3742 H3732 0.930 . S
C3742 C3740 1.419 . S
C3742 C3743 1.362 . S
C3743 H3733 0.930 . S
C3743 C3736 1.409 . S
C3743 C3742 1.362 . S
H3744 C3750 0.930 . S
H3745 C3753 0.930 . S
H3746 C3754 0.930 . S
H3747 C3755 0.930 . S
H3748 C3758 0.930 . S
H3749 C3759 0.930 . S
C3750 H3744 0.930 . S
C3750 C3751 1.355 . S
C3750 C3752 1.415 . S
C3751 C3750 1.355 . S
C3751 C3753 1.419 . S
C3752 C3750 1.415 . S
C3752 C3757 1.425 . S
C3752 C3759 1.409 . S
C3753 H3745 0.930 . S
C3753 C3751 1.419 . S
C3753 C3754 1.362 . S
C3754 H3746 0.930 . S
C3754 C3753 1.362 . S
C3754 C3757 1.409 . S
C3755 H3747 0.930 . S
C3755 C3756 1.355 . S
C3755 C3757 1.415 . S
C3756 C3755 1.355 . S
C3756 C3758 1.419 . S
C3757 C3752 1.425 . S
C3757 C3754 1.409 . S
C3757 C3755 1.415 . S
C3758 H3748 0.930 . S
C3758 C3756 1.419 . S
C3758 C3759 1.362 . S
C3759 H3749 0.930 . S
C3759 C3752 1.409 . S
C3759 C3758 1.362 . S
H3760 C3766 0.930 . S
H3761 C3769 0.930 . S
H3762 C3770 0.930 . S
H3763 C3771 0.930 . S
H3764 C3774 0.930 . S
H3765 C3775 0.930 . S
C3766 H3760 0.930 . S
C3766 C3767 1.355 . S
C3766 C3768 1.415 . S
C3767 C3766 1.355 . S
C3767 C3769 1.419 . S
C3768 C3766 1.415 . S
C3768 C3773 1.425 . S
C3768 C3775 1.409 . S
C3769 H3761 0.930 . S
C3769 C3767 1.419 . S
C3769 C3770 1.362 . S
C3770 H3762 0.930 . S
C3770 C3769 1.362 . S
C3770 C3773 1.409 . S
C3771 H3763 0.930 . S
C3771 C3772 1.355 . S
C3771 C3773 1.415 . S
C3772 C3771 1.355 . S
C3772 C3774 1.419 . S
C3773 C3768 1.425 . S
C3773 C3770 1.409 . S
C3773 C3771 1.415 . S
C3774 H3764 0.930 . S
C3774 C3772 1.419 . S
C3774 C3775 1.362 . S
C3775 H3765 0.930 . S
C3775 C3768 1.409 . S
C3775 C3774 1.362 . S
H3776 C3782 0.930 . S
H3777 C3785 0.930 . S
H3778 C3786 0.930 . S
H3779 C3787 0.930 . S
H3780 C3790 0.930 . S
H3781 C3791 0.930 . S
C3782 H3776 0.930 . S
C3782 C3783 1.355 . S
C3782 C3784 1.415 . S
C3783 C3782 1.355 . S
C3783 C3785 1.419 . S
C3784 C3782 1.415 . S
C3784 C3789 1.425 . S
C3784 C3791 1.409 . S
C3785 H3777 0.930 . S
C3785 C3783 1.419 . S
C3785 C3786 1.362 . S
C3786 H3778 0.930 . S
C3786 C3785 1.362 . S
C3786 C3789 1.409 . S
C3787 H3779 0.930 . S
C3787 C3788 1.355 . S
C3787 C3789 1.415 . S
C3788 C3787 1.355 . S
C3788 C3790 1.419 . S
C3789 C3784 1.425 . S
C3789 C3786 1.409 . S
C3789 C3787 1.415 . S
C3790 H3780 0.930 . S
C3790 C3788 1.419 . S
C3790 C3791 1.362 . S
C3791 H3781 0.930 . S
C3791 C3784 1.409 . S
C3791 C3790 1.362 . S
H3792 C3798 0.930 . S
H3793 C3801 0.930 . S
H3794 C3802 0.930 . S
H3795 C3803 0.930 . S
H3796 C3806 0.930 . S
H3797 C3807 0.930 . S
C3798 H3792 0.930 . S
C3798 C3799 1.355 . S
C3798 C3800 1.415 . S
C3799 C3798 1.355 . S
C3799 C3801 1.419 . S
C3800 C3798 1.415 . S
C3800 C3805 1.425 . S
C3800 C3807 1.409 . S
C3801 H3793 0.930 . S
C3801 C3799 1.419 . S
C3801 C3802 1.362 . S
C3802 H3794 0.930 . S
C3802 C3801 1.362 . S
C3802 C3805 1.409 . S
C3803 H3795 0.930 . S
C3803 C3804 1.355 . S
C3803 C3805 1.415 . S
C3804 C3803 1.355 . S
C3804 C3806 1.419 . S
C3805 C3800 1.425 . S
C3805 C3802 1.409 . S
C3805 C3803 1.415 . S
C3806 H3796 0.930 . S
C3806 C3804 1.419 . S
C3806 C3807 1.362 . S
C3807 H3797 0.930 . S
C3807 C3800 1.409 . S
C3807 C3806 1.362 . S
H3808 C3814 0.930 . S
H3809 C3817 0.930 . S
H3810 C3818 0.930 . S
H3811 C3819 0.930 . S
H3812 C3822 0.930 . S
H3813 C3823 0.930 . S
C3814 H3808 0.930 . S
C3814 C3815 1.355 . S
C3814 C3816 1.415 . S
C3815 C3814 1.355 . S
C3815 C3817 1.419 . S
C3816 C3814 1.415 . S
C3816 C3821 1.425 . S
C3816 C3823 1.409 . S
C3817 H3809 0.930 . S
C3817 C3815 1.419 . S
C3817 C3818 1.362 . S
C3818 H3810 0.930 . S
C3818 C3817 1.362 . S
C3818 C3821 1.409 . S
C3819 H3811 0.930 . S
C3819 C3820 1.355 . S
C3819 C3821 1.415 . S
C3820 C3819 1.355 . S
C3820 C3822 1.419 . S
C3821 C3816 1.425 . S
C3821 C3818 1.409 . S
C3821 C3819 1.415 . S
C3822 H3812 0.930 . S
C3822 C3820 1.419 . S
C3822 C3823 1.362 . S
C3823 H3813 0.930 . S
C3823 C3816 1.409 . S
C3823 C3822 1.362 . S
H3824 C3830 0.930 . S
H3825 C3833 0.930 . S
H3826 C3834 0.930 . S
H3827 C3835 0.930 . S
H3828 C3838 0.930 . S
H3829 C3839 0.930 . S
C3830 H3824 0.930 . S
C3830 C3831 1.355 . S
C3830 C3832 1.415 . S
C3831 C3830 1.355 . S
C3831 C3833 1.419 . S
C3832 C3830 1.415 . S
C3832 C3837 1.425 . S
C3832 C3839 1.409 . S
C3833 H3825 0.930 . S
C3833 C3831 1.419 . S
C3833 C3834 1.362 . S
C3834 H3826 0.930 . S
C3834 C3833 1.362 . S
C3834 C3837 1.409 . S
C3835 H3827 0.930 . S
C3835 C3836 1.355 . S
C3835 C3837 1.415 . S
C3836 C3835 1.355 . S
C3836 C3838 1.419 . S
C3837 C3832 1.425 . S
C3837 C3834 1.409 . S
C3837 C3835 1.415 . S
C3838 H3828 0.930 . S
C3838 C3836 1.419 . S
C3838 C3839 1.362 . S
C3839 H3829 0.930 . S
C3839 C3832 1.409 . S
C3839 C3838 1.362 . S
H3840 C3846 0.930 . S
H3841 C3849 0.930 . S
H3842 C3850 0.930 . S
H3843 C3851 0.930 . S
H3844 C3854 0.930 . S
H3845 C3855 0.930 . S
C3846 H3840 0.930 . S
C3846 C3847 1.355 . S
C3846 C3848 1.415 . S
C3847 C3846 1.355 . S
C3847 C3849 1.419 . S
C3848 C3846 1.415 . S
C3848 C3853 1.425 . S
C3848 C3855 1.409 . S
C3849 H3841 0.930 . S
C3849 C3847 1.419 . S
C3849 C3850 1.362 . S
C3850 H3842 0.930 . S
C3850 C3849 1.362 . S
C3850 C3853 1.409 . S
C3851 H3843 0.930 . S
C3851 C3852 1.355 . S
C3851 C3853 1.415 . S
C3852 C3851 1.355 . S
C3852 C3854 1.419 . S
C3853 C3848 1.425 . S
C3853 C3850 1.409 . S
C3853 C3851 1.415 . S
C3854 H3844 0.930 . S
C3854 C3852 1.419 . S
C3854 C3855 1.362 . S
C3855 H3845 0.930 . S
C3855 C3848 1.409 . S
C3855 C3854 1.362 . S
H3856 C3862 0.930 . S
H3857 C3865 0.930 . S
H3858 C3866 0.930 . S
H3859 C3867 0.930 . S
H3860 C3870 0.930 . S
H3861 C3871 0.930 . S
C3862 H3856 0.930 . S
C3862 C3863 1.355 . S
C3862 C3864 1.415 . S
C3863 C3862 1.355 . S
C3863 C3865 1.419 . S
C3864 C3862 1.415 . S
C3864 C3869 1.425 . S
C3864 C3871 1.409 . S
C3865 H3857 0.930 . S
C3865 C3863 1.419 . S
C3865 C3866 1.362 . S
C3866 H3858 0.930 . S
C3866 C3865 1.362 . S
C3866 C3869 1.409 . S
C3867 H3859 0.930 . S
C3867 C3868 1.355 . S
C3867 C3869 1.415 . S
C3868 C3867 1.355 . S
C3868 C3870 1.419 . S
C3869 C3864 1.425 . S
C3869 C3866 1.409 . S
C3869 C3867 1.415 . S
C3870 H3860 0.930 . S
C3870 C3868 1.419 . S
C3870 C3871 1.362 . S
C3871 H3861 0.930 . S
C3871 C3864 1.409 . S
C3871 C3870 1.362 . S
H3872 C3878 0.930 . S
H3873 C3881 0.930 . S
H3874 C3882 0.930 . S
H3875 C3883 0.930 . S
H3876 C3886 0.930 . S
H3877 C3887 0.930 . S
C3878 H3872 0.930 . S
C3878 C3879 1.355 . S
C3878 C3880 1.415 . S
C3879 C3878 1.355 . S
C3879 C3881 1.419 . S
C3880 C3878 1.415 . S
C3880 C3885 1.425 . S
C3880 C3887 1.409 . S
C3881 H3873 0.930 . S
C3881 C3879 1.419 . S
C3881 C3882 1.362 . S
C3882 H3874 0.930 . S
C3882 C3881 1.362 . S
C3882 C3885 1.409 . S
C3883 H3875 0.930 . S
C3883 C3884 1.355 . S
C3883 C3885 1.415 . S
C3884 C3883 1.355 . S
C3884 C3886 1.419 . S
C3885 C3880 1.425 . S
C3885 C3882 1.409 . S
C3885 C3883 1.415 . S
C3886 H3876 0.930 . S
C3886 C3884 1.419 . S
C3886 C3887 1.362 . S
C3887 H3877 0.930 . S
C3887 C3880 1.409 . S
C3887 C3886 1.362 . S
H3888 C3894 0.930 . S
H3889 C3897 0.930 . S
H3890 C3898 0.930 . S
H3891 C3899 0.930 . S
H3892 C3902 0.930 . S
H3893 C3903 0.930 . S
C3894 H3888 0.930 . S
C3894 C3895 1.355 . S
C3894 C3896 1.415 . S
C3895 C3894 1.355 . S
C3895 C3897 1.419 . S
C3896 C3894 1.415 . S
C3896 C3901 1.425 . S
C3896 C3903 1.409 . S
C3897 H3889 0.930 . S
C3897 C3895 1.419 . S
C3897 C3898 1.362 . S
C3898 H3890 0.930 . S
C3898 C3897 1.362 . S
C3898 C3901 1.409 . S
C3899 H3891 0.930 . S
C3899 C3900 1.355 . S
C3899 C3901 1.415 . S
C3900 C3899 1.355 . S
C3900 C3902 1.419 . S
C3901 C3896 1.425 . S
C3901 C3898 1.409 . S
C3901 C3899 1.415 . S
C3902 H3892 0.930 . S
C3902 C3900 1.419 . S
C3902 C3903 1.362 . S
C3903 H3893 0.930 . S
C3903 C3896 1.409 . S
C3903 C3902 1.362 . S
H3904 C3910 0.930 . S
H3905 C3913 0.930 . S
H3906 C3914 0.930 . S
H3907 C3915 0.930 . S
H3908 C3918 0.930 . S
H3909 C3919 0.930 . S
C3910 H3904 0.930 . S
C3910 C3911 1.355 . S
C3910 C3912 1.415 . S
C3911 C3910 1.355 . S
C3911 C3913 1.419 . S
C3912 C3910 1.415 . S
C3912 C3917 1.425 . S
C3912 C3919 1.409 . S
C3913 H3905 0.930 . S
C3913 C3911 1.419 . S
C3913 C3914 1.362 . S
C3914 H3906 0.930 . S
C3914 C3913 1.362 . S
C3914 C3917 1.409 . S
C3915 H3907 0.930 . S
C3915 C3916 1.355 . S
C3915 C3917 1.415 . S
C3916 C3915 1.355 . S
C3916 C3918 1.419 . S
C3917 C3912 1.425 . S
C3917 C3914 1.409 . S
C3917 C3915 1.415 . S
C3918 H3908 0.930 . S
C3918 C3916 1.419 . S
C3918 C3919 1.362 . S
C3919 H3909 0.930 . S
C3919 C3912 1.409 . S
C3919 C3918 1.362 . S
H3920 C3926 0.930 . S
H3921 C3929 0.930 . S
H3922 C3930 0.930 . S
H3923 C3931 0.930 . S
H3924 C3934 0.930 . S
H3925 C3935 0.930 . S
C3926 H3920 0.930 . S
C3926 C3927 1.355 . S
C3926 C3928 1.415 . S
C3927 C3926 1.355 . S
C3927 C3929 1.419 . S
C3928 C3926 1.415 . S
C3928 C3933 1.425 . S
C3928 C3935 1.409 . S
C3929 H3921 0.930 . S
C3929 C3927 1.419 . S
C3929 C3930 1.362 . S
C3930 H3922 0.930 . S
C3930 C3929 1.362 . S
C3930 C3933 1.409 . S
C3931 H3923 0.930 . S
C3931 C3932 1.355 . S
C3931 C3933 1.415 . S
C3932 C3931 1.355 . S
C3932 C3934 1.419 . S
C3933 C3928 1.425 . S
C3933 C3930 1.409 . S
C3933 C3931 1.415 . S
C3934 H3924 0.930 . S
C3934 C3932 1.419 . S
C3934 C3935 1.362 . S
C3935 H3925 0.930 . S
C3935 C3928 1.409 . S
C3935 C3934 1.362 . S
H3936 C3942 0.930 . S
H3937 C3945 0.930 . S
H3938 C3946 0.930 . S
H3939 C3947 0.930 . S
H3940 C3950 0.930 . S
H3941 C3951 0.930 . S
C3942 H3936 0.930 . S
C3942 C3943 1.355 . S
C3942 C3944 1.415 . S
C3943 C3942 1.355 . S
C3943 C3945 1.419 . S
C3944 C3942 1.415 . S
C3944 C3949 1.425 . S
C3944 C3951 1.409 . S
C3945 H3937 0.930 . S
C3945 C3943 1.419 . S
C3945 C3946 1.362 . S
C3946 H3938 0.930 . S
C3946 C3945 1.362 . S
C3946 C3949 1.409 . S
C3947 H3939 0.930 . S
C3947 C3948 1.355 . S
C3947 C3949 1.415 . S
C3948 C3947 1.355 . S
C3948 C3950 1.419 . S
C3949 C3944 1.425 . S
C3949 C3946 1.409 . S
C3949 C3947 1.415 . S
C3950 H3940 0.930 . S
C3950 C3948 1.419 . S
C3950 C3951 1.362 . S
C3951 H3941 0.930 . S
C3951 C3944 1.409 . S
C3951 C3950 1.362 . S
H3952 C3958 0.930 . S
H3953 C3961 0.930 . S
H3954 C3962 0.930 . S
H3955 C3963 0.930 . S
H3956 C3966 0.930 . S
H3957 C3967 0.930 . S
C3958 H3952 0.930 . S
C3958 C3959 1.355 . S
C3958 C3960 1.415 . S
C3959 C3958 1.355 . S
C3959 C3961 1.419 . S
C3960 C3958 1.415 . S
C3960 C3965 1.425 . S
C3960 C3967 1.409 . S
C3961 H3953 0.930 . S
C3961 C3959 1.419 . S
C3961 C3962 1.362 . S
C3962 H3954 0.930 . S
C3962 C3961 1.362 . S
C3962 C3965 1.409 . S
C3963 H3955 0.930 . S
C3963 C3964 1.355 . S
C3963 C3965 1.415 . S
C3964 C3963 1.355 . S
C3964 C3966 1.419 . S
C3965 C3960 1.425 . S
C3965 C3962 1.409 . S
C3965 C3963 1.415 . S
C3966 H3956 0.930 . S
C3966 C3964 1.419 . S
C3966 C3967 1.362 . S
C3967 H3957 0.930 . S
C3967 C3960 1.409 . S
C3967 C3966 1.362 . S
H3968 C3974 0.930 . S
H3969 C3977 0.930 . S
H3970 C3978 0.930 . S
H3971 C3979 0.930 . S
H3972 C3982 0.930 . S
H3973 C3983 0.930 . S
C3974 H3968 0.930 . S
C3974 C3975 1.355 . S
C3974 C3976 1.415 . S
C3975 C3974 1.355 . S
C3975 C3977 1.419 . S
C3976 C3974 1.415 . S
C3976 C3981 1.425 . S
C3976 C3983 1.409 . S
C3977 H3969 0.930 . S
C3977 C3975 1.419 . S
C3977 C3978 1.362 . S
C3978 H3970 0.930 . S
C3978 C3977 1.362 . S
C3978 C3981 1.409 . S
C3979 H3971 0.930 . S
C3979 C3980 1.355 . S
C3979 C3981 1.415 . S
C3980 C3979 1.355 . S
C3980 C3982 1.419 . S
C3981 C3976 1.425 . S
C3981 C3978 1.409 . S
C3981 C3979 1.415 . S
C3982 H3972 0.930 . S
C3982 C3980 1.419 . S
C3982 C3983 1.362 . S
C3983 H3973 0.930 . S
C3983 C3976 1.409 . S
C3983 C3982 1.362 . S
H3984 C3990 0.930 . S
H3985 C3993 0.930 . S
H3986 C3994 0.930 . S
H3987 C3995 0.930 . S
H3988 C3998 0.930 . S
H3989 C3999 0.930 . S
C3990 H3984 0.930 . S
C3990 C3991 1.355 . S
C3990 C3992 1.415 . S
C3991 C3990 1.355 . S
C3991 C3993 1.419 . S
C3992 C3990 1.415 . S
C3992 C3997 1.425 . S
C3992 C3999 1.409 . S
C3993 H3985 0.930 . S
C3993 C3991 1.419 . S
C3993 C3994 1.362 . S
C3994 H3986 0.930 . S
C3994 C3993 1.362 . S
C3994 C3997 1.409 . S
C3995 H3987 0.930 . S
C3995 C3996 1.355 . S
C3995 C3997 1.415 . S
C3996 C3995 1.355 . S
C3996 C3998 1.419 . S
C3997 C3992 1.425 . S
C3997 C3994 1.409 . S
C3997 C3995 1.415 . S
C3998 H3988 0.930 . S
C3998 C3996 1.419 . S
C3998 C3999 1.362 . S
C3999 H3989 0.930 . S
C3999 C3992 1.409 . S
C3999 C3998 1.362 . S
H4000 C4006 0.930 . S
H4001 C4009 0.930 . S
H4002 C4010 0.930 . S
H4003 C4011 0.930 . S
H4004 C4014 0.930 . S
H4005 C4015 0.930 . S
C4006 H4000 0.930 . S
C4006 C4007 1.355 . S
C4006 C4008 1.415 . S
C4007 C4006 1.355 . S
C4007 C4009 1.419 . S
C4008 C4006 1.415 . S
C4008 C4013 1.425 . S
C4008 C4015 1.409 . S
C4009 H4001 0.930 . S
C4009 C4007 1.419 . S
C4009 C4010 1.362 . S
C4010 H4002 0.930 . S
C4010 C4009 1.362 . S
C4010 C4013 1.409 . S
C4011 H4003 0.930 . S
C4011 C4012 1.355 . S
C4011 C4013 1.415 . S
C4012 C4011 1.355 . S
C4012 C4014 1.419 . S
C4013 C4008 1.425 . S
C4013 C4010 1.409 . S
C4013 C4011 1.415 . S
C4014 H4004 0.930 . S
C4014 C4012 1.419 . S
C4014 C4015 1.362 . S
C4015 H4005 0.930 . S
C4015 C4008 1.409 . S
C4015 C4014 1.362 . S
H4016 C4022 0.930 . S
H4017 C4025 0.930 . S
H4018 C4026 0.930 . S
H4019 C4027 0.930 . S
H4020 C4030 0.930 . S
H4021 C4031 0.930 . S
C4022 H4016 0.930 . S
C4022 C4023 1.355 . S
C4022 C4024 1.415 . S
C4023 C4022 1.355 . S
C4023 C4025 1.419 . S
C4024 C4022 1.415 . S
C4024 C4029 1.425 . S
C4024 C4031 1.409 . S
C4025 H4017 0.930 . S
C4025 C4023 1.419 . S
C4025 C4026 1.362 . S
C4026 H4018 0.930 . S
C4026 C4025 1.362 . S
C4026 C4029 1.409 . S
C4027 H4019 0.930 . S
C4027 C4028 1.355 . S
C4027 C4029 1.415 . S
C4028 C4027 1.355 . S
C4028 C4030 1.419 . S
C4029 C4024 1.425 . S
C4029 C4026 1.409 . S
C4029 C4027 1.415 . S
C4030 H4020 0.930 . S
C4030 C4028 1.419 . S
C4030 C4031 1.362 . S
C4031 H4021 0.930 . S
C4031 C4024 1.409 . S
C4031 C4030 1.362 . S
H4032 C4038 0.930 . S
H4033 C4041 0.930 . S
H4034 C4042 0.930 . S
H4035 C4043 0.930 . S
H4036 C4046 0.930 . S
H4037 C4047 0.930 . S
C4038 H4032 0.930 . S
C4038 C4039 1.355 . S
C4038 C4040 1.415 . S
C4039 C4038 1.355 . S
C4039 C4041 1.419 . S
C4040 C4038 1.415 . S
C4040 C4045 1.425 . S
C4040 C4047 1.409 . S
C4041 H4033 0.930 . S
C4041 C4039 1.419 . S
C4041 C4042 1.362 . S
C4042 H4034 0.930 . S
C4042 C4041 1.362 . S
C4042 C4045 1.409 . S
C4043 H4035 0.930 . S
C4043 C4044 1.355 . S
C4043 C4045 1.415 . S
C4044 C4043 1.355 . S
C4044 C4046 1.419 . S
C4045 C4040 1.425 . S
C4045 C4042 1.409 . S
C4045 C4043 1.415 . S
C4046 H4036 0.930 . S
C4046 C4044 1.419 . S
C4046 C4047 1.362 . S
C4047 H4037 0.930 . S
C4047 C4040 1.409 . S
C4047 C4046 1.362 . S
H4048 C4054 0.930 . S
H4049 C4057 0.930 . S
H4050 C4058 0.930 . S
H4051 C4059 0.930 . S
H4052 C4062 0.930 . S
H4053 C4063 0.930 . S
C4054 H4048 0.930 . S
C4054 C4055 1.355 . S
C4054 C4056 1.415 . S
C4055 C4054 1.355 . S
C4055 C4057 1.419 . S
C4056 C4054 1.415 . S
C4056 C4061 1.425 . S
C4056 C4063 1.409 . S
C4057 H4049 0.930 . S
C4057 C4055 1.419 . S
C4057 C4058 1.362 . S
C4058 H4050 0.930 . S
C4058 C4057 1.362 . S
C4058 C4061 1.409 . S
C4059 H4051 0.930 . S
C4059 C4060 1.355 . S
C4059 C4061 1.415 . S
C4060 C4059 1.355 . S
C4060 C4062 1.419 . S
C4061 C4056 1.425 . S
C4061 C4058 1.409 . S
C4061 C4059 1.415 . S
C4062 H4052 0.930 . S
C4062 C4060 1.419 . S
C4062 C4063 1.362 . S
C4063 H4053 0.930 . S
C4063 C4056 1.409 . S
C4063 C4062 1.362 . S
H4064 C4070 0.930 . S
H4065 C4073 0.930 . S
H4066 C4074 0.930 . S
H4067 C4075 0.930 . S
H4068 C4078 0.930 . S
H4069 C4079 0.930 . S
C4070 H4064 0.930 . S
C4070 C4071 1.355 . S
C4070 C4072 1.415 . S
C4071 C4070 1.355 . S
C4071 C4073 1.419 . S
C4072 C4070 1.415 . S
C4072 C4077 1.425 . S
C4072 C4079 1.409 . S
C4073 H4065 0.930 . S
C4073 C4071 1.419 . S
C4073 C4074 1.362 . S
C4074 H4066 0.930 . S
C4074 C4073 1.362 . S
C4074 C4077 1.409 . S
C4075 H4067 0.930 . S
C4075 C4076 1.355 . S
C4075 C4077 1.415 . S
C4076 C4075 1.355 . S
C4076 C4078 1.419 . S
C4077 C4072 1.425 . S
C4077 C4074 1.409 . S
C4077 C4075 1.415 . S
C4078 H4068 0.930 . S
C4078 C4076 1.419 . S
C4078 C4079 1.362 . S
C4079 H4069 0.930 . S
C4079 C4072 1.409 . S
C4079 C4078 1.362 . S
C1399 C5 2.069 . S
C1404 C208 2.103 . S
C1415 C34 2.082 . S
C1420 C121 2.145 . S
C1431 C150 2.108 . S
C1436 C63 2.069 . S
C1447 C92 2.151 . S
C1452 C179 2.093 . S
C1463 C237 2.154 . S
C1468 C585 2.117 . S
C1479 C266 2.068 . S
C1484 C498 2.117 . S
C1495 C527 2.112 . S
C1500 C295 2.155 . S
C1511 C556 2.072 . S
C1516 C324 2.130 . S
C1527 C672 2.143 . S
C1532 C353 2.141 . S
C1543 C614 2.133 . S
C1548 C382 2.073 . S
C1559 C411 2.125 . S
C1564 C643 2.152 . S
C1575 C440 2.136 . S
C1580 C469 2.075 . S
C1591 C701 2.099 . S
C1596 C904 2.153 . S
C1607 C817 2.088 . S
C1612 C730 2.149 . S
C1623 C846 2.078 . S
C1628 C759 2.086 . S
C1639 C788 2.152 . S
C1644 C875 2.096 . S
C1655 C933 2.155 . S
C1660 C1281 2.111 . S
C1671 C1194 2.133 . S
C1676 C962 2.073 . S
C1687 C1223 2.073 . S
C1692 C991 2.133 . S
C1703 C1252 2.121 . S
C1708 C1020 2.069 . S
C1719 C1049 2.147 . S
C1724 C1368 2.135 . S
C1735 C1078 2.150 . S
C1740 C1310 2.091 . S
C1751 C1107 2.128 . S
C1756 C1339 2.151 . S
C1767 C1136 2.150 . S
C1772 C1165 2.091 . S
C1783 C13 1.516 . S
C1788 C670 1.660 . S
C1799 C612 1.683 . S
C1804 C42 1.474 . S
C1815 C641 1.672 . S
C1820 C71 1.562 . S
C1831 C467 1.672 . S
C1836 C100 1.563 . S
C1847 C129 1.556 . S
C1852 C583 1.665 . S
C1863 C496 1.668 . S
C1868 C158 1.561 . S
C1879 C187 1.458 . S
C1884 C525 1.670 . S
C1895 C216 1.472 . S
C1900 C554 1.665 . S
C1911 C322 1.661 . S
C1916 C245 1.536 . S
C1927 C235 1.661 . S
C1932 C274 1.497 . S
C1943 C303 1.471 . S
C1948 C264 1.665 . S
C1959 C293 1.661 . S
C1964 C332 1.536 . S
C1975 C380 1.668 . S
C1980 C361 1.462 . S
C1991 C390 1.517 . S
C1996 C409 1.660 . S
C2007 C438 1.684 . S
C2012 C419 1.480 . S
C2023 C351 1.668 . S
C2028 C448 1.463 . S
C2039 C477 1.461 . S
C2044 C148 1.669 . S
C2055 C506 1.540 . S
C2060 C90 1.682 . S
C2071 C3 1.683 . S
C2076 C535 1.479 . S
C2087 C564 1.514 . S
C2092 C32 1.685 . S
C2103 C61 1.670 . S
C2108 C593 1.458 . S
C2119 C206 1.681 . S
C2124 C622 1.545 . S
C2135 C651 1.463 . S
C2140 C119 1.680 . S
C2151 C680 1.516 . S
C2156 C177 1.660 . S
C2167 C709 1.524 . S
C2172 C1366 1.684 . S
C2183 C738 1.469 . S
C2188 C1308 1.682 . S
C2199 C767 1.557 . S
C2204 C1337 1.677 . S
C2215 C796 1.529 . S
C2220 C1163 1.683 . S
C2231 C825 1.562 . S
C2236 C1279 1.673 . S
C2247 C854 1.561 . S
C2252 C1192 1.668 . S
C2263 C883 1.456 . S
C2268 C1221 1.673 . S
C2279 C912 1.550 . S
C2284 C1250 1.663 . S
C2295 C941 1.562 . S
C2300 C1018 1.672 . S
C2311 C931 1.675 . S
C2316 C970 1.560 . S
C2327 C999 1.526 . S
C2332 C960 1.684 . S
C2343 C1028 1.522 . S
C2348 C989 1.684 . S
C2359 C1057 1.562 . S
C2364 C1076 1.672 . S
C2375 C1105 1.671 . S
C2380 C1086 1.563 . S
C2391 C1134 1.665 . S
C2396 C1115 1.471 . S
C2407 C1047 1.685 . S
C2412 C1144 1.502 . S
C2423 C844 1.673 . S
C2428 C1173 1.456 . S
C2439 C786 1.662 . S
C2444 C1202 1.541 . S
C2455 C699 1.667 . S
C2460 C1231 1.560 . S
C2471 C728 1.672 . S
C2476 C1260 1.456 . S
C2487 C1289 1.456 . S
C2492 C757 1.673 . S
C2503 C1318 1.493 . S
C2508 C902 1.661 . S
C2519 C1347 1.540 . S
C2524 C815 1.661 . S
C2535 C873 1.660 . S
C2540 C1376 1.516 . S
C2551 C1025 2.233 . S
C2556 C21 1.957 1_655 S
C2567 C938 2.238 . S
C2572 C50 1.939 . S
C2583 C79 1.950 . S
C2588 C967 2.242 . S
C2599 C108 1.981 . S
C2604 C996 2.240 . S
C2615 C1083 2.228 . S
C2620 C137 2.013 1_655 S
C2631 C166 2.000 1_565 S
C2636 C1112 2.237 . S
C2647 C1141 2.239 . S
C2652 C195 1.939 . S
C2663 C224 1.987 . S
C2668 C1054 2.230 . S
C2679 C253 1.985 1_565 S
C2684 C851 2.230 . S
C2695 C282 2.006 . S
C2700 C880 2.229 . S
C2711 C909 2.228 . S
C2716 C311 2.012 . S
C2727 C340 1.956 1_655 S
C2732 C822 2.231 . S
C2743 C369 1.993 . S
C2748 C793 2.230 . S
C2759 C398 1.939 1_655 S
C2764 C706 2.240 . S
C2775 C735 2.229 . S
C2780 C427 1.997 1_565 S
C2791 C764 2.242 . S
C2796 C456 1.936 . S
C2807 C1373 2.242 . S
C2812 C485 1.916 1_556 S
C2823 C514 1.948 . S
C2828 C1286 2.243 . S
C2839 C1199 2.229 . S
C2844 C543 2.022 . S
C2855 C572 1.951 . S
C2860 C1228 2.242 . S
C2871 C601 1.992 . S
C2876 C1257 2.230 . S
C2887 C1344 2.228 . S
C2892 C630 2.016 1_556 S
C2903 C1170 2.243 . S
C2908 C659 1.941 1_556 S
C2919 C1315 2.243 . S
C2924 C688 1.944 1_556 S
C2935 C329 2.234 . S
C2940 C717 1.956 1_455 S
C2951 C242 2.238 . S
C2956 C746 1.991 1_545 S
C2967 C271 2.236 . S
C2972 C775 1.950 . S
C2983 C804 2.003 . S
C2988 C300 2.229 . S
C2999 C833 1.923 1_455 S
C3004 C387 2.242 . S
C3015 C862 2.002 1_545 S
C3020 C416 2.229 . S
C3031 C891 2.005 . S
C3036 C445 2.236 . S
C3047 C920 2.018 . S
C3052 C358 2.228 . S
C3063 C155 2.242 . S
C3068 C949 1.955 1_545 S
C3079 C184 2.236 . S
C3084 C978 2.003 . S
C3095 C1007 2.018 . S
C3100 C213 2.228 . S
C3111 C126 2.234 . S
C3116 C1036 2.013 1_455 S
C3127 C97 2.228 . S
C3132 C1065 2.012 . S
C3143 C10 2.231 . S
C3148 C1094 2.023 1_455 S
C3159 C1123 1.987 1_545 S
C3164 C39 2.230 . S
C3175 C68 2.237 . S
C3180 C1152 1.944 . S
C3191 C1181 1.924 1_554 S
C3196 C677 2.242 . S
C3207 C1210 1.953 . S
C3212 C590 2.242 . S
C3223 C1239 1.991 . S
C3228 C503 2.230 . S
C3239 C532 2.238 . S
C3244 C1268 1.991 . S
C3255 C561 2.237 . S
C3260 C1297 2.002 . S
C3271 C1326 1.944 . S
C3276 C648 2.237 . S
C3287 C1355 1.944 1_554 S
C3292 C474 2.243 . S
C3303 C619 2.234 . S
C3308 C1384 1.957 1_554 S
C3319 C1313 0.988 . S
C3324 C15 1.058 . S
C3335 C44 1.059 . S
C3340 C1342 0.985 . S
C3351 C1168 1.048 . S
C3356 C73 0.987 . S
C3367 C102 0.988 . S
C3372 C1371 1.044 . S
C3383 C1255 1.011 . S
C3388 C131 1.004 . S
C3399 C160 1.037 . S
C3404 C1284 1.027 . S
C3415 C189 1.059 . S
C3420 C1197 0.971 . S
C3431 C1226 1.060 . S
C3436 C218 0.998 . S
C3447 C820 0.969 . S
C3452 C247 1.058 . S
C3463 C849 0.984 . S
C3468 C276 1.059 . S
C3479 C878 1.059 . S
C3484 C305 0.989 . S
C3495 C907 0.982 . S
C3500 C334 1.028 . S
C3511 C704 0.985 . S
C3516 C363 1.025 . S
C3527 C392 1.002 . S
C3532 C733 1.058 . S
C3543 C762 0.983 . S
C3548 C421 1.059 . S
C3559 C791 1.042 . S
C3564 C450 1.024 . S
C3575 C479 1.010 . S
C3580 C1110 1.002 . S
C3591 C994 1.060 . S
C3596 C508 0.998 . S
C3607 C537 1.056 . S
C3612 C1023 0.993 . S
C3623 C936 1.059 . S
C3628 C566 0.990 . S
C3639 C965 0.984 . S
C3644 C595 1.059 . S
C3655 C624 0.987 . S
C3660 C1052 1.051 . S
C3671 C1081 0.983 . S
C3676 C653 1.059 . S
C3687 C682 1.014 . S
C3692 C1139 1.050 . S
C3703 C711 1.024 . S
C3708 C617 1.042 . S
C3719 C646 1.025 . S
C3724 C740 1.038 . S
C3735 C769 1.051 . S
C3740 C472 1.005 . S
C3751 C675 0.976 . S
C3756 C798 1.060 . S
C3767 C559 0.984 . S
C3772 C827 1.026 . S
C3783 C588 0.986 . S
C3788 C856 1.024 . S
C3799 C501 0.984 . S
C3804 C885 1.059 . S
C3815 C530 1.051 . S
C3820 C914 0.987 . S
C3831 C124 0.992 . S
C3836 C943 1.057 . S
C3847 C153 1.058 . S
C3852 C972 1.002 . S
C3863 C182 0.992 . S
C3868 C1001 1.057 . S
C3879 C1030 1.059 . S
C3884 C211 0.981 . S
C3895 C1059 0.997 . S
C3900 C8 1.060 . S
C3911 C1088 1.014 . S
C3916 C37 0.997 . S
C3927 C66 0.982 . S
C3932 C1117 1.059 . S
C3943 C1146 1.000 . S
C3948 C95 1.059 . S
C3959 C1175 0.998 . S
C3964 C414 1.060 . S
C3975 C1204 1.024 . S
C3980 C298 1.042 . S
C3991 C1233 1.059 . S
C3996 C327 0.983 . S
C4007 C1262 0.987 . S
C4012 C240 1.046 . S
C4023 C1291 1.049 . S
C4028 C269 1.008 . S
C4039 C1320 1.057 . S
C4044 C356 0.968 . S
C4055 C385 1.060 . S
C4060 C1349 0.992 . S
C4071 C1378 1.059 . S
C4076 C443 0.982 . S
