# Generated by pormake.
# Topology smk, (6)-cn, num edge types: 1
# Building blocks:
#     Node 0, Type 0, BuildingBlock: LEVNOQ01_clean_sbu_1, # of connection points: 6
#     Node 1, Type 0, BuildingBlock: LEVNOQ01_clean_sbu_1, # of connection points: 6
#     Node 2, Type 0, BuildingBlock: LEVNOQ01_clean_sbu_1, # of connection points: 6
#     Node 3, Type 0, BuildingBlock: LEVNOQ01_clean_sbu_1, # of connection points: 6
#     Node 4, Type 0, BuildingBlock: LEVNOQ01_clean_sbu_1, # of connection points: 6
#     Node 5, Type 0, BuildingBlock: LEVNOQ01_clean_sbu_1, # of connection points: 6
#     Edge 6, Type (0, 0), BuildingBlock: FUNLAD_clean_linker_1, # of connection points: 2
#     Edge 7, Type (0, 0), BuildingBlock: FUNLAD_clean_linker_1, # of connection points: 2
#     Edge 8, Type (0, 0), BuildingBlock: FUNLAD_clean_linker_1, # of connection points: 2
#     Edge 9, Type (0, 0), BuildingBlock: FUNLAD_clean_linker_1, # of connection points: 2
#     Edge 10, Type (0, 0), BuildingBlock: FUNLAD_clean_linker_1, # of connection points: 2
#     Edge 11, Type (0, 0), BuildingBlock: FUNLAD_clean_linker_1, # of connection points: 2
#     Edge 12, Type (0, 0), BuildingBlock: FUNLAD_clean_linker_1, # of connection points: 2
#     Edge 13, Type (0, 0), BuildingBlock: FUNLAD_clean_linker_1, # of connection points: 2
#     Edge 14, Type (0, 0), BuildingBlock: FUNLAD_clean_linker_1, # of connection points: 2
#     Edge 15, Type (0, 0), BuildingBlock: FUNLAD_clean_linker_1, # of connection points: 2
#     Edge 16, Type (0, 0), BuildingBlock: FUNLAD_clean_linker_1, # of connection points: 2
#     Edge 17, Type (0, 0), BuildingBlock: FUNLAD_clean_linker_1, # of connection points: 2
#     Edge 18, Type (0, 0), BuildingBlock: FUNLAD_clean_linker_1, # of connection points: 2
#     Edge 19, Type (0, 0), BuildingBlock: FUNLAD_clean_linker_1, # of connection points: 2
#     Edge 20, Type (0, 0), BuildingBlock: FUNLAD_clean_linker_1, # of connection points: 2
#     Edge 21, Type (0, 0), BuildingBlock: FUNLAD_clean_linker_1, # of connection points: 2
#     Edge 22, Type (0, 0), BuildingBlock: FUNLAD_clean_linker_1, # of connection points: 2
#     Edge 23, Type (0, 0), BuildingBlock: FUNLAD_clean_linker_1, # of connection points: 2
# Relax obj value: 0.261
# Max RMSD: 0.244
# Mean RMSD: 0.244
data_MOF--net-smk--node1-LEVNOQ01_clean_sbu_1--edge1-FUNLAD_clean_linker_1
_symmetry_space_group_name_H-M    P1
_symmetry_Int_Tables_number       1
_symmetry_cell_setting            triclinic
loop_
_symmetry_equiv_pos_as_xyz
'x, y, z'
_cell_length_a     42.916332
_cell_length_b     43.205012
_cell_length_c     16.120303
_cell_angle_alpha  89.881231
_cell_angle_beta   89.677743
_cell_angle_gamma 119.79298
loop_
_atom_site_label
_atom_site_type_symbol
_atom_site_fract_x
_atom_site_fract_y
_atom_site_fract_z
_atom_type_partial_charge
O0 O 0.3928 0.16809 0.73864 0.0
Mg1 Mg 0.38768 0.18215 0.61588 0.0
O2 O 0.45041 0.20628 0.72692 0.0
Mg3 Mg 0.45591 0.21233 0.58357 0.0
O4 O 0.41405 0.23435 0.57412 0.0
O5 O 0.35747 0.20544 0.62432 0.0
O6 O 0.46133 0.21826 0.43951 0.0
O7 O 0.49351 0.27479 0.60243 0.0
Mg8 Mg 0.52914 0.24127 0.54028 0.0
O9 O 0.49933 0.19363 0.6022 0.0
O10 O 0.51954 0.24525 0.41418 0.0
O11 O 0.54956 0.28762 0.61134 0.0
O12 O 0.55591 0.21461 0.55498 0.0
C13 C 0.38793 0.13075 0.52314 0.0
C14 C 0.42329 0.18569 0.77139 0.0
C15 C 0.38403 0.23369 0.59264 0.0
C16 C 0.48773 0.23207 0.38874 0.0
C17 C 0.52643 0.2975 0.61567 0.0
C18 C 0.52843 0.19118 0.59625 0.0
O19 O 0.36649 0.14257 0.52687 0.0
O20 O 0.41941 0.14929 0.55354 0.0
O21 O 0.21419 0.38509 0.87498 0.0
Mg22 Mg 0.20278 0.37904 0.74325 0.0
O23 O 0.22306 0.43985 0.8676 0.0
Mg24 Mg 0.23439 0.44514 0.72853 0.0
O25 O 0.17249 0.4006 0.704 0.0
O26 O 0.15112 0.34189 0.7244 0.0
O27 O 0.24221 0.4449 0.58394 0.0
O28 O 0.20691 0.48086 0.71806 0.0
Mg29 Mg 0.28551 0.51433 0.66162 0.0
O30 O 0.29298 0.49172 0.76588 0.0
O31 O 0.28957 0.49528 0.54561 0.0
O32 O 0.25011 0.53403 0.67766 0.0
O33 O 0.33387 0.5448 0.71156 0.0
C34 C 0.2647 0.38993 0.68622 0.0
C35 C 0.21828 0.4131 0.91042 0.0
C36 C 0.14584 0.36782 0.70494 0.0
C37 C 0.26472 0.46442 0.52833 0.0
C38 C 0.21788 0.51346 0.69931 0.0
C39 C 0.32433 0.5208 0.76869 0.0
O40 O 0.23445 0.37105 0.65407 0.0
O41 O 0.26818 0.41417 0.73642 0.0
O42 O 0.83919 0.20209 0.05764 0.0
Mg43 Mg 0.83877 0.19128 0.92885 0.0
O44 O 0.79795 0.21786 0.03976 0.0
Mg45 Mg 0.79439 0.22071 0.89618 0.0
O46 O 0.78785 0.16307 0.87929 0.0
O47 O 0.82397 0.14019 0.90349 0.0
O48 O 0.79069 0.22385 0.75409 0.0
O49 O 0.73006 0.18268 0.90317 0.0
Mg50 Mg 0.75209 0.2471 0.87919 0.0
O51 O 0.80276 0.27919 0.92105 0.0
O52 O 0.74489 0.23336 0.75008 0.0
O53 O 0.71507 0.21606 0.97288 0.0
O54 O 0.76333 0.29764 0.89274 0.0
C55 C 0.88441 0.2563 0.85305 0.0
C56 C 0.81782 0.21154 0.08737 0.0
C57 C 0.79361 0.13609 0.87911 0.0
C58 C 0.76727 0.22714 0.71288 0.0
C59 C 0.70629 0.18593 0.94396 0.0
C60 C 0.7941 0.30415 0.92066 0.0
O61 O 0.88226 0.22616 0.85424 0.0
O62 O 0.85749 0.2591 0.87673 0.0
O63 O 0.62931 0.83409 0.22492 0.0
Mg64 Mg 0.64298 0.83009 0.10084 0.0
O65 O 0.57013 0.80262 0.20679 0.0
Mg66 Mg 0.56278 0.79174 0.06834 0.0
O67 O 0.60951 0.77845 0.06487 0.0
O68 O 0.66879 0.80207 0.07891 0.0
O69 O 0.5615 0.78281 0.92756 0.0
O70 O 0.52508 0.73015 0.09464 0.0
Mg71 Mg 0.49301 0.77148 0.98381 0.0
O72 O 0.51562 0.80409 0.08279 0.0
O73 O 0.51987 0.79179 0.87218 0.0
O74 O 0.47836 0.71847 0.01519 0.0
O75 O 0.46348 0.79314 0.02638 0.0
C76 C 0.62715 0.87727 0.01067 0.0
C77 C 0.59738 0.81953 0.25307 0.0
C78 C 0.63779 0.77466 0.06425 0.0
C79 C 0.54728 0.78839 0.86475 0.0
C80 C 0.49489 0.70797 0.06249 0.0
C81 C 0.48773 0.80851 0.08228 0.0
O82 O 0.65335 0.87191 0.01862 0.0
O83 O 0.59572 0.85325 0.03317 0.0
O84 O 0.79572 0.61744 0.39013 0.0
Mg85 Mg 0.81668 0.63083 0.26706 0.0
O86 O 0.77877 0.5613 0.36566 0.0
Mg87 Mg 0.7761 0.56882 0.22675 0.0
O88 O 0.8411 0.60434 0.21893 0.0
O89 O 0.87031 0.65895 0.27587 0.0
O90 O 0.77649 0.57904 0.08556 0.0
O91 O 0.78722 0.52279 0.19744 0.0
Mg92 Mg 0.70938 0.51671 0.12606 0.0
O93 O 0.71586 0.52932 0.24673 0.0
O94 O 0.72036 0.56225 0.056 0.0
O95 O 0.74235 0.49249 0.10859 0.0
O96 O 0.66243 0.4914 0.19571 0.0
C97 C 0.76595 0.63956 0.20151 0.0
C98 C 0.78467 0.58599 0.41632 0.0
C99 C 0.87098 0.63243 0.24122 0.0
C100 C 0.75335 0.58011 0.03834 0.0
C101 C 0.77097 0.49775 0.14467 0.0
C102 C 0.68209 0.50718 0.25914 0.0
O103 O 0.79904 0.65684 0.18613 0.0
O104 O 0.75334 0.60952 0.2385 0.0
O105 O 0.18331 0.80638 0.56802 0.0
Mg106 Mg 0.18916 0.82211 0.44123 0.0
O107 O 0.21434 0.77849 0.54929 0.0
Mg108 Mg 0.22004 0.77685 0.40642 0.0
O109 O 0.23998 0.83853 0.39664 0.0
O110 O 0.21804 0.87527 0.41878 0.0
O111 O 0.22536 0.77573 0.26366 0.0
O112 O 0.28399 0.80346 0.42212 0.0
Mg113 Mg 0.25069 0.73829 0.38155 0.0
O114 O 0.1992 0.71421 0.4266 0.0
O115 O 0.26159 0.7536 0.25434 0.0
O116 O 0.29113 0.76051 0.47103 0.0
O117 O 0.22851 0.68533 0.3891 0.0
C118 C 0.13632 0.76259 0.35592 0.0
C119 C 0.19847 0.78994 0.59696 0.0
C120 C 0.2444 0.87065 0.3967 0.0
C121 C 0.24455 0.76697 0.22007 0.0
C122 C 0.30416 0.79313 0.45579 0.0
C123 C 0.20073 0.68483 0.42147 0.0
O124 O 0.14637 0.7953 0.36036 0.0
O125 O 0.15703 0.75114 0.38081 0.0
H126 H 0.50573 0.24812 0.26028 0.0
C127 C 0.48221 0.23206 0.29898 0.0
H128 H 0.4271 0.19301 0.29944 0.0
H129 H 0.45931 0.26681 0.92148 0.0
H130 H 0.45907 0.31646 -0.00926 0.0
H131 H 0.45375 0.31716 0.14313 0.0
H132 H 0.44855 0.26807 0.22713 0.0
C133 C 0.45058 0.21101 0.26282 0.0
C134 C 0.44892 0.20855 0.171 0.0
C135 C 0.45169 0.23729 0.12288 0.0
C136 C 0.45458 0.23678 0.03513 0.0
C137 C 0.45719 0.26582 -0.01155 0.0
C138 C 0.45704 0.2945 0.0274 0.0
C139 C 0.45407 0.29491 0.11319 0.0
C140 C 0.45132 0.26667 0.16069 0.0
H141 H 0.40202 0.16486 0.89592 0.0
C142 C 0.42599 0.18376 0.86186 0.0
H143 H 0.47909 0.22667 0.87133 0.0
H144 H 0.44267 0.14867 0.24547 0.0
H145 H 0.44397 0.09941 0.17673 0.0
H146 H 0.45032 0.09905 0.02458 0.0
H147 H 0.45566 0.14807 0.9403 0.0
C148 C 0.45549 0.20628 0.90382 0.0
C149 C 0.45435 0.20734 -0.00419 0.0
C150 C 0.45138 0.17848 0.04399 0.0
C151 C 0.44822 0.1789 0.13172 0.0
C152 C 0.44537 0.14982 0.17858 0.0
C153 C 0.44606 0.12136 0.13993 0.0
C154 C 0.44957 0.12113 0.05426 0.0
C155 C 0.45234 0.14932 0.00655 0.0
H156 H 0.28351 0.4695 0.39985 0.0
C157 C 0.26147 0.45276 0.44174 0.0
H158 H 0.20914 0.40801 0.45058 0.0
H159 H 0.25178 0.47611 0.06403 0.0
H160 H 0.24742 0.52554 0.12089 0.0
H161 H 0.23298 0.52652 0.26884 0.0
H162 H 0.22324 0.47789 0.36068 0.0
C163 C 0.2316 0.42533 0.41052 0.0
C164 C 0.22871 0.4193 0.31926 0.0
C165 C 0.23132 0.44645 0.26526 0.0
C166 C 0.23628 0.44435 0.17871 0.0
C167 C 0.24422 0.47443 0.1286 0.0
C168 C 0.24271 0.50352 0.16094 0.0
C169 C 0.23464 0.50409 0.24419 0.0
C170 C 0.22934 0.47612 0.29623 0.0
H171 H 0.19589 0.42202 0.0243 0.0
C172 C 0.21452 0.41394 0.00064 0.0
H173 H 0.25457 0.40112 0.02867 0.0
H174 H 0.22139 0.36151 0.40539 0.0
H175 H 0.2167 0.30766 0.34679 0.0
H176 H 0.21842 0.30071 0.19524 0.0
H177 H 0.22554 0.34773 0.10142 0.0
C178 C 0.2357 0.40877 0.05305 0.0
C179 C 0.2337 0.41277 0.14474 0.0
C180 C 0.22848 0.38446 0.19862 0.0
C181 C 0.22654 0.38801 0.28604 0.0
C182 C 0.22264 0.35997 0.33856 0.0
C183 C 0.21985 0.32891 0.30575 0.0
C184 C 0.22086 0.32503 0.22042 0.0
C185 C 0.22508 0.35233 0.1672 0.0
H186 H 0.8352 0.2109 0.21532 0.0
C187 C 0.81637 0.21486 0.17814 0.0
H188 H 0.7725 0.2243 0.1811 0.0
H189 H 0.73607 0.15944 0.54958 0.0
H190 H 0.6898 0.1101 0.47224 0.0
H191 H 0.6891 0.11169 0.31928 0.0
H192 H 0.73484 0.16264 0.24275 0.0
C193 C 0.79254 0.22162 0.21638 0.0
C194 C 0.79116 0.22247 0.30857 0.0
C195 C 0.76364 0.19301 0.35245 0.0
C196 C 0.76371 0.19239 0.44071 0.0
C197 C 0.7368 0.16185 0.48272 0.0
C198 C 0.71018 0.13319 0.43904 0.0
C199 C 0.70982 0.13405 0.35292 0.0
C200 C 0.73622 0.16348 0.30978 0.0
H201 H 0.74507 0.22652 0.58935 0.0
C202 C 0.76631 0.22471 0.62155 0.0
H203 H 0.81344 0.22114 0.60823 0.0
H204 H 0.84592 0.28433 0.2434 0.0
H205 H 0.89228 0.33389 0.32042 0.0
H206 H 0.89301 0.33255 0.47341 0.0
H207 H 0.84712 0.28187 0.55035 0.0
C208 C 0.79115 0.22145 0.57731 0.0
C209 C 0.79093 0.22163 0.48491 0.0
C210 C 0.81827 0.25125 0.44091 0.0
C211 C 0.81819 0.25182 0.35267 0.0
C212 C 0.84519 0.28219 0.31036 0.0
C213 C 0.87185 0.3109 0.35381 0.0
C214 C 0.87222 0.31017 0.43994 0.0
C215 C 0.84575 0.28085 0.48333 0.0
H216 H 0.56376 0.80873 0.36371 0.0
C217 C 0.59133 0.81969 0.34189 0.0
H218 H 0.64571 0.84005 0.37736 0.0
H219 H 0.58534 0.87016 0.71964 0.0
H220 H 0.62196 0.93087 0.66911 0.0
H221 H 0.6535 0.94303 0.53416 0.0
H222 H 0.64833 0.89429 0.44873 0.0
C223 C 0.6179 0.82932 0.39655 0.0
C224 C 0.60844 0.8232 0.48504 0.0
C225 C 0.61261 0.85193 0.53438 0.0
C226 C 0.59449 0.8449 0.61163 0.0
C227 C 0.59839 0.87399 0.65985 0.0
C228 C 0.61939 0.90896 0.63166 0.0
C229 C 0.63709 0.9158 0.55561 0.0
C230 C 0.63383 0.88768 0.50717 0.0
H231 H 0.58703 0.78798 0.77912 0.0
C232 C 0.56409 0.79215 0.78385 0.0
H233 H 0.53108 0.80806 0.72128 0.0
H234 H 0.60169 0.76328 0.41091 0.0
H235 H 0.56505 0.70221 0.46031 0.0
H236 H 0.53065 0.68938 0.59137 0.0
H237 H 0.53307 0.73738 0.67404 0.0
C238 C 0.55284 0.80209 0.71723 0.0
C239 C 0.57266 0.80917 0.63858 0.0
C240 C 0.57033 0.78049 0.5914 0.0
C241 C 0.58903 0.78769 0.51499 0.0
C242 C 0.58707 0.75895 0.4687 0.0
C243 C 0.56633 0.72388 0.4965 0.0
C244 C 0.54706 0.71668 0.57037 0.0
C245 C 0.54886 0.74454 0.61748 0.0
H246 H 0.78203 0.55519 0.52747 0.0
C247 C 0.78169 0.57883 0.50549 0.0
H248 H 0.78061 0.6256 0.53709 0.0
H249 H 0.74331 0.52815 0.88651 0.0
H250 H 0.69407 0.47964 0.81316 0.0
H251 H 0.68392 0.48582 0.6651 0.0
H252 H 0.72257 0.54037 0.58995 0.0
C253 C 0.78047 0.60176 0.5594 0.0
C254 C 0.78409 0.59833 0.64963 0.0
C255 C 0.75895 0.5673 0.69362 0.0
C256 C 0.76349 0.56454 0.77976 0.0
C257 C 0.73995 0.53225 0.82167 0.0
C258 C 0.71174 0.50413 0.78026 0.0
C259 C 0.70603 0.50761 0.69694 0.0
C260 C 0.72892 0.53894 0.6541 0.0
H261 H 0.74349 0.59747 0.91866 0.0
C262 C 0.76309 0.59396 0.95389 0.0
H263 H 0.80984 0.58909 0.94689 0.0
H264 H 0.83979 0.65952 0.58188 0.0
H265 H 0.88904 0.70722 0.65649 0.0
H266 H 0.8938 0.70389 0.80837 0.0
H267 H 0.84937 0.65237 0.88634 0.0
C268 C 0.79058 0.59392 0.91416 0.0
C269 C 0.79103 0.59397 0.82262 0.0
C270 C 0.81681 0.62428 0.77867 0.0
C271 C 0.81358 0.62639 0.69163 0.0
C272 C 0.84031 0.65672 0.64847 0.0
C273 C 0.86887 0.68428 0.69051 0.0
C274 C 0.87157 0.6824 0.776 0.0
C275 C 0.84589 0.65279 0.81997 0.0
H276 H 0.26625 0.76726 0.09576 0.0
C277 C 0.24599 0.77053 0.12911 0.0
H278 H 0.20125 0.77824 0.11868 0.0
H279 H 0.24538 0.84691 0.75941 0.0
H280 H 0.25565 0.89806 0.84112 0.0
H281 H 0.25054 0.89406 -0.00626 0.0
H282 H 0.23557 0.83896 0.06545 0.0
C283 C 0.22161 0.7748 0.08636 0.0
C284 C 0.22246 0.77618 -0.00595 0.0
C285 C 0.23012 0.80826 0.95302 0.0
C286 C 0.23202 0.81024 0.86493 0.0
C287 C 0.24188 0.84331 0.82587 0.0
C288 C 0.24827 0.87307 0.87214 0.0
C289 C 0.24549 0.87085 0.95804 0.0
C290 C 0.23676 0.83898 -0.00161 0.0
H291 H 0.18014 0.79028 0.7245 0.0
C292 C 0.19884 0.78588 0.6875 0.0
H293 H 0.24251 0.77622 0.68974 0.0
H294 H 0.20393 0.70937 0.05251 0.0
H295 H 0.1965 0.65917 0.97095 0.0
H296 H 0.20277 0.66367 0.81869 0.0
H297 H 0.21463 0.71779 0.74663 0.0
C298 C 0.22346 0.78045 0.7257 0.0
C299 C 0.22499 0.77969 0.81791 0.0
C300 C 0.21839 0.74795 0.85895 0.0
C301 C 0.21637 0.7459 0.94708 0.0
C302 C 0.20751 0.71309 -0.01389 0.0
C303 C 0.20277 0.68386 0.93994 0.0
C304 C 0.20604 0.68631 0.85414 0.0
C305 C 0.21314 0.71767 0.81365 0.0
H306 H 0.34731 0.08196 0.46346 0.0
C307 C 0.3745 0.09486 0.48767 0.0
H308 H 0.41894 0.08799 0.51358 0.0
H309 H 0.30337 0.92101 0.54404 0.0
H310 H 0.32761 0.9348 0.68313 0.0
H311 H 0.3737 0.99604 0.72016 0.0
H312 H 0.39564 0.04393 0.61831 0.0
C313 C 0.39236 0.07665 0.48673 0.0
C314 C 0.37328 0.03875 0.45799 0.0
C315 C 0.3622 0.0107 0.51676 0.0
C316 C 0.33575 0.97528 0.49513 0.0
C317 C 0.32352 0.94827 0.55675 0.0
C318 C 0.33724 0.95583 0.63689 0.0
C319 C 0.36318 0.99031 0.65775 0.0
C320 C 0.37553 0.01756 0.59875 0.0
H321 H 0.30386 0.89869 0.38125 0.0
C322 C 0.28072 0.90241 0.38776 0.0
H323 H 0.26226 0.93903 0.4063 0.0
H324 H 0.39481 0.08457 0.32585 0.0
H325 H 0.37136 0.07047 0.18538 0.0
H326 H 0.3255 0.00921 0.14824 0.0
H327 H 0.30237 0.96155 0.25147 0.0
C328 C 0.28544 0.93536 0.4001 0.0
C329 C 0.32085 0.96793 0.41432 0.0
C330 C 0.33486 0.99522 0.35331 0.0
C331 C 0.36122 0.0306 0.37492 0.0
C332 C 0.37429 0.05742 0.31283 0.0
C333 C 0.3613 0.04963 0.23205 0.0
C334 C 0.3354 0.01511 0.21113 0.0
C335 C 0.32224 0.98809 0.27084 0.0
H336 H 0.39321 0.2834 0.52847 0.0
C337 C 0.37966 0.26534 0.58005 0.0
H338 H 0.3444 0.25176 0.68202 0.0
H339 H 0.36099 0.41008 0.61658 0.0
H340 H 0.42515 0.43569 0.6367 0.0
H341 H 0.45223 0.39715 0.64892 0.0
H342 H 0.41547 0.33279 0.63933 0.0
C343 C 0.35725 0.27019 0.6305 0.0
C344 C 0.34305 0.29484 0.61303 0.0
C345 C 0.36479 0.33235 0.62097 0.0
C346 C 0.3489 0.35457 0.6174 0.0
C347 C 0.37144 0.39197 0.62197 0.0
C348 C 0.40832 0.40701 0.63302 0.0
C349 C 0.42359 0.3853 0.63968 0.0
C350 C 0.4022 0.34839 0.6339 0.0
H351 H 0.30993 0.38321 0.7295 0.0
C352 C 0.29242 0.37927 0.67736 0.0
H353 H 0.27563 0.35801 0.55832 0.0
H354 H 0.29431 0.22458 0.58517 0.0
H355 H 0.2301 0.19874 0.56879 0.0
H356 H 0.20195 0.23648 0.57248 0.0
H357 H 0.23773 0.30013 0.59165 0.0
C358 C 0.29322 0.36128 0.60991 0.0
C359 C 0.31112 0.33911 0.60922 0.0
C360 C 0.28958 0.30164 0.59905 0.0
C361 C 0.30562 0.27968 0.59967 0.0
C362 C 0.28347 0.24245 0.58761 0.0
C363 C 0.24654 0.22723 0.57765 0.0
C364 C 0.23073 0.24847 0.57948 0.0
C365 C 0.25177 0.28516 0.59012 0.0
H366 H 0.92169 0.31458 0.83848 0.0
C367 C 0.91863 0.28835 0.82848 0.0
H368 H 0.94292 0.25928 0.78472 0.0
H369 H 0.06843 0.37675 0.57427 0.0
H370 H 0.02389 0.35215 0.46472 0.0
H371 H 0.95997 0.31135 0.49812 0.0
H372 H 0.94013 0.29489 0.64123 0.0
C373 C 0.94623 0.28545 0.79706 0.0
C374 C 0.98236 0.31666 0.77867 0.0
C375 C 0.99351 0.32626 0.69512 0.0
C376 C 0.03041 0.34963 0.67576 0.0
C377 C 0.0408 0.35865 0.59184 0.0
C378 C 0.01551 0.34487 0.52864 0.0
C379 C 0.97951 0.32189 0.54745 0.0
C380 C 0.96849 0.31255 0.62964 0.0
H381 H 0.08935 0.33166 0.67608 0.0
C382 C 0.10832 0.35911 0.69253 0.0
H383 H 0.11374 0.40635 0.7438 0.0
H384 H 0.96956 0.30702 0.94592 0.0
H385 H 0.01355 0.33366 0.05511 0.0
H386 H 0.07737 0.37453 0.02172 0.0
H387 H 0.09762 0.3889 0.87898 0.0
C388 C 0.0954 0.37988 0.72032 0.0
C389 C 0.05618 0.36315 0.73995 0.0
C390 C 0.04452 0.35626 0.82397 0.0
C391 C 0.00761 0.33279 0.84333 0.0
C392 C 0.99711 0.32486 0.92764 0.0
C393 C 0.02211 0.33995 -0.00899 0.0
C394 C 0.05804 0.36295 0.97221 0.0
C395 C 0.0693 0.37099 0.88986 0.0
H396 H 0.61033 0.91623 0.97279 0.0
C397 C 0.6332 0.91205 0.97855 0.0
H398 H 0.68924 0.93455 0.964 0.0
H399 H 0.7255 0.06091 0.72448 0.0
H400 H 0.72497 0.018 0.62609 0.0
H401 H 0.70148 0.95518 0.66709 0.0
H402 H 0.67698 0.93445 0.80528 0.0
C403 C 0.66643 0.93891 0.96026 0.0
C404 C 0.67422 0.97501 0.93185 0.0
C405 C 0.68786 0.98661 0.85052 0.0
C406 C 0.70249 0.02309 0.82762 0.0
C407 C 0.71528 0.03373 0.74555 0.0
C408 C 0.71487 0.00936 0.68849 0.0
C409 C 0.70154 0.97396 0.7115 0.0
C410 C 0.68782 0.96247 0.79119 0.0
H411 H 0.77386 0.07966 0.85595 0.0
C412 C 0.76507 0.09922 0.86242 0.0
H413 H 0.72071 0.10643 0.88456 0.0
H414 H 0.64786 0.96161 0.09124 0.0
H415 H 0.64757 0.00428 0.18771 0.0
H416 H 0.67278 0.06743 0.14777 0.0
H417 H 0.6985 0.08825 0.0112 0.0
C418 C 0.7298 0.08745 0.87271 0.0
C419 C 0.70478 0.04834 0.88693 0.0
C420 C 0.6881 0.03619 0.96583 0.0
C421 C 0.6731 0.99956 -0.01139 0.0
C422 C 0.65889 0.98878 0.06977 0.0
C423 C 0.65869 0.01308 0.12608 0.0
C424 C 0.67292 0.04864 0.10363 0.0
C425 C 0.68766 0.06025 0.0248 0.0
H426 H 0.75698 0.68158 0.15051 0.0
C427 C 0.74326 0.65467 0.17611 0.0
H428 H 0.69256 0.60987 0.20427 0.0
H429 H 0.6335 0.72096 0.21905 0.0
H430 H 0.62571 0.70092 0.36203 0.0
H431 H 0.64511 0.65864 0.40784 0.0
H432 H 0.6727 0.63633 0.31061 0.0
C433 C 0.70716 0.63665 0.17835 0.0
C434 C 0.68694 0.65407 0.14676 0.0
C435 C 0.66938 0.66553 0.20316 0.0
C436 C 0.65789 0.68969 0.17636 0.0
C437 C 0.64242 0.70238 0.23543 0.0
C438 C 0.63779 0.69108 0.31787 0.0
C439 C 0.64872 0.66728 0.34369 0.0
C440 C 0.66452 0.6547 0.28736 0.0
H441 H 0.60802 0.71527 0.06346 0.0
C442 C 0.63453 0.73884 0.06208 0.0
H443 H 0.69052 0.75927 0.06882 0.0
H444 H 0.71096 0.62975 0.01913 0.0
H445 H 0.71608 0.64732 0.87405 0.0
H446 H 0.69694 0.68979 0.82778 0.0
H447 H 0.67227 0.71476 0.92641 0.0
C448 C 0.66404 0.73565 0.07131 0.0
C449 C 0.66361 0.70188 0.09276 0.0
C450 C 0.67739 0.68713 0.03465 0.0
C451 C 0.68882 0.66299 0.06148 0.0
C452 C 0.70262 0.64877 0.00207 0.0
C453 C 0.70549 0.65847 0.91869 0.0
C454 C 0.69469 0.68238 0.89264 0.0
C455 C 0.68079 0.69664 0.94972 0.0
H456 H 0.90685 0.61114 0.20407 0.0
C457 C 0.90583 0.63314 0.23394 0.0
H458 H 0.9338 0.68043 0.30343 0.0
H459 H 0.05583 0.66981 0.46698 0.0
H460 H 0.01138 0.64377 0.57747 0.0
H461 H 0.94764 0.62422 0.55139 0.0
H462 H 0.92796 0.63065 0.41444 0.0
C463 C 0.93542 0.65941 0.2702 0.0
C464 C 0.9703 0.65997 0.2774 0.0
C465 C 0.98125 0.65487 0.35669 0.0
C466 C 0.01797 0.66591 0.3716 0.0
C467 C 0.02829 0.66178 0.45229 0.0
C468 C 1.00304 0.64684 0.5162 0.0
C469 C 0.96715 0.63585 0.50153 0.0
C470 C 0.95623 0.63981 0.42287 0.0
H471 H 0.08487 0.75143 0.30323 0.0
C472 C 0.09966 0.73865 0.32531 0.0
H473 H 0.09605 0.68915 0.35349 0.0
H474 H 0.95748 0.66861 0.1155 0.0
H475 H 1.0013 0.69122 0.00308 0.0
H476 H 0.06463 0.70874 0.02815 0.0
H477 H 0.08463 0.70412 0.16634 0.0
C478 C 0.08276 0.70284 0.32807 0.0
C479 C 0.04372 0.68223 0.30718 0.0
C480 C 0.03206 0.6835 0.22568 0.0
C481 C 0.99535 0.67265 0.21086 0.0
C482 C 0.98491 0.67609 0.12985 0.0
C483 C 0.00979 0.68899 0.06484 0.0
C484 C 0.04547 0.69891 0.07898 0.0
C485 C 0.05664 0.6963 0.15842 0.0
H486 H 0.51897 0.34335 0.58809 0.0
C487 C 0.53867 0.33608 0.60788 0.0
H488 H 0.59376 0.35258 0.61614 0.0
H489 H 0.61567 0.42269 0.26053 0.0
H490 H 0.59386 0.3618 0.21806 0.0
H491 H 0.5691 0.3128 0.32063 0.0
H492 H 0.56597 0.32451 0.46573 0.0
C493 C 0.57389 0.35996 0.59859 0.0
C494 C 0.58633 0.38963 0.53711 0.0
C495 C 0.58845 0.38231 0.45198 0.0
C496 C 0.60299 0.41058 0.39294 0.0
C497 C 0.6047 0.40239 0.30835 0.0
C498 C 0.59237 0.36746 0.2829 0.0
C499 C 0.57845 0.33991 0.34058 0.0
C500 C 0.57665 0.34708 0.42405 0.0
H501 H 0.68556 0.49683 0.39206 0.0
C502 C 0.66728 0.49506 0.34353 0.0
H503 H 0.61366 0.47343 0.30588 0.0
H504 H 0.58541 0.41246 0.69414 0.0
H505 H 0.60681 0.47378 0.73677 0.0
H506 H 0.63275 0.52296 0.6344 0.0
H507 H 0.63748 0.51127 0.48862 0.0
C508 C 0.63157 0.47519 0.35541 0.0
C509 C 0.61617 0.44629 0.41906 0.0
C510 C 0.61388 0.45361 0.50382 0.0
C511 C 0.59883 0.42519 0.56293 0.0
C512 C 0.59664 0.43314 0.64704 0.0
C513 C 0.6087 0.46813 0.67213 0.0
C514 C 0.62331 0.49584 0.61444 0.0
C515 C 0.62599 0.48883 0.53114 0.0
H516 H 0.20607 0.55688 0.69676 0.0
C517 C 0.19335 0.52797 0.69325 0.0
H518 H 0.14889 0.48131 0.6489 0.0
H519 H 0.15067 0.63944 0.61435 0.0
H520 H 0.1377 0.63458 0.76192 0.0
H521 H 0.12903 0.58205 0.84191 0.0
H522 H 0.13277 0.53355 0.7734 0.0
C523 C 0.16066 0.50978 0.65886 0.0
C524 C 0.1474 0.53055 0.61082 0.0
C525 C 0.14359 0.55777 0.65024 0.0
C526 C 0.14837 0.58793 0.60383 0.0
C527 C 0.14691 0.61581 0.64604 0.0
C528 C 0.13949 0.61332 0.73089 0.0
C529 C 0.13455 0.5837 0.77596 0.0
C530 C 0.13683 0.55624 0.73639 0.0
H531 H 0.14627 0.64779 0.47387 0.0
C532 C 0.17242 0.651 0.45898 0.0
H533 H 0.20676 0.6293 0.4615 0.0
H534 H 0.14379 0.47714 0.5124 0.0
H535 H 0.1495 0.47864 0.3623 0.0
H536 H 0.15668 0.53047 0.28174 0.0
H537 H 0.15854 0.58143 0.3516 0.0
C538 C 0.18039 0.6253 0.47789 0.0
C539 C 0.15629 0.59014 0.51779 0.0
C540 C 0.15253 0.55955 0.47658 0.0
C541 C 0.14813 0.52963 0.52304 0.0
C542 C 0.14722 0.50062 0.48026 0.0
C543 C 0.15027 0.50107 0.39405 0.0
C544 C 0.15433 0.53026 0.34866 0.0
C545 C 0.1555 0.55927 0.3892 0.0
H546 H 0.64916 0.16033 0.97704 0.0
C547 C 0.66763 0.16268 0.92777 0.0
H548 H 0.67493 0.16345 0.79834 0.0
H549 H 0.50605 0.09397 0.72532 0.0
H550 H 0.50726 0.03824 0.72932 0.0
H551 H 0.56079 0.03677 0.77923 0.0
H552 H 0.61356 0.091 0.82526 0.0
C553 C 0.656 0.15806 0.8489 0.0
C554 C 0.62208 0.15786 0.82699 0.0
C555 C 0.59127 0.12598 0.80194 0.0
C556 C 0.56037 0.12683 0.77285 0.0
C557 C 0.53023 0.0947 0.74699 0.0
C558 C 0.53057 0.06262 0.74934 0.0
C559 C 0.56072 0.06179 0.77753 0.0
C560 C 0.5908 0.09303 0.80368 0.0
H561 H 0.54971 0.1552 0.61007 0.0
C562 C 0.53296 0.16402 0.64127 0.0
H563 H 0.51734 0.17401 0.75708 0.0
H564 H 0.67765 0.22499 0.86119 0.0
H565 H 0.67591 0.27995 0.86027 0.0
H566 H 0.62093 0.28065 0.81985 0.0
H567 H 0.56777 0.22643 0.77914 0.0
C568 C 0.53137 0.16248 0.72447 0.0
C569 C 0.56016 0.15953 0.76955 0.0
C570 C 0.59037 0.1912 0.79835 0.0
C571 C 0.62168 0.19058 0.82459 0.0
C572 C 0.65254 0.22333 0.84515 0.0
C573 C 0.65207 0.25531 0.84384 0.0
C574 C 0.62118 0.25571 0.82088 0.0
C575 C 0.59076 0.22424 0.79771 0.0
H576 H 0.48102 0.65952 0.13907 0.0
C577 C 0.47756 0.66914 0.07947 0.0
H578 H 0.45276 0.6567 0.96255 0.0
H579 H 0.38801 0.49736 0.92201 0.0
H580 H 0.44929 0.50779 0.90888 0.0
H581 H 0.50089 0.56462 0.9549 0.0
H582 H 0.49153 0.61125 0.01567 0.0
C583 C 0.45492 0.64638 0.02255 0.0
C584 C 0.42755 0.60848 0.03795 0.0
C585 C 0.43326 0.58145 0.00502 0.0
C586 C 0.40358 0.549 0.97724 0.0
C587 C 0.40995 0.52261 0.9428 0.0
C588 C 0.44481 0.52828 0.93527 0.0
C589 C 0.47389 0.56031 0.9612 0.0
C590 C 0.46831 0.58681 -0.00452 0.0
H591 H 0.37788 0.54806 0.82028 0.0
C592 C 0.3502 0.52868 0.83611 0.0
H593 H 0.3133 0.50436 0.93418 0.0
H594 H 0.40763 0.65015 0.1229 0.0
H595 H 0.34657 0.63874 0.14397 0.0
H596 H 0.29501 0.58395 0.09066 0.0
H597 H 0.30379 0.53947 0.01823 0.0
C598 C 0.34128 0.52128 0.91672 0.0
C599 C 0.36846 0.54439 0.97984 0.0
C600 C 0.36235 0.56866 0.0267 0.0
C601 C 0.39211 0.60068 0.05631 0.0
C602 C 0.38578 0.62565 0.09875 0.0
C603 C 0.35098 0.61935 0.11138 0.0
C604 C 0.32191 0.58836 0.08155 0.0
C605 C 0.32734 0.56318 0.03965 0.0
H606 H 0.76796 0.4518 0.08113 0.0
C607 C 0.7853 0.47444 0.11988 0.0
H608 H 0.83732 0.50335 0.17233 0.0
H609 H 0.82846 0.34988 0.12015 0.0
H610 H 0.83559 0.35627 0.26974 0.0
H611 H 0.8412 0.40958 0.33976 0.0
H612 H 0.83954 0.45685 0.2602 0.0
C613 C 0.81889 0.48107 0.13428 0.0
C614 C 0.83091 0.45783 0.09338 0.0
C615 C 0.83352 0.43145 0.13997 0.0
C616 C 0.83054 0.40086 0.09934 0.0
C617 C 0.83085 0.37371 0.14778 0.0
C618 C 0.83495 0.37711 0.23363 0.0
C619 C 0.8381 0.40714 0.2731 0.0
C620 C 0.83707 0.43397 0.22709 0.0
H621 H 0.84544 0.34692 0.97368 0.0
C622 C 0.81808 0.33951 0.95749 0.0
H623 H 0.77766 0.3537 0.95743 0.0
H624 H 0.83727 0.50944 -0.01432 0.0
H625 H 0.83563 0.50579 0.83467 0.0
H626 H 0.83021 0.45267 0.76401 0.0
H627 H 0.82651 0.40293 0.84398 0.0
C628 C 0.80504 0.36143 0.97451 0.0
C629 C 0.82542 0.39734 0.0123 0.0
C630 C 0.82927 0.42669 0.9651 0.0
C631 C 0.83218 0.4571 0.00566 0.0
C632 C 0.83456 0.48555 0.95724 0.0
C633 C 0.83382 0.48382 0.87088 0.0
C634 C 0.83076 0.4539 0.83109 0.0
C635 C 0.82849 0.42556 0.87741 0.0
H636 H 0.46865 0.84396 0.125 0.0
C637 C 0.48125 0.8289 0.14626 0.0
H638 H 0.48604 0.80055 0.24679 0.0
H639 H 0.41134 0.89029 0.41598 0.0
H640 H 0.47249 0.94021 0.42271 0.0
H641 H 0.523 0.93563 0.36219 0.0
H642 H 0.51279 0.881 0.29468 0.0
C643 C 0.47713 0.81885 0.2262 0.0
C644 C 0.44836 0.82041 0.27522 0.0
C645 C 0.45472 0.85226 0.31477 0.0
C646 C 0.42554 0.85488 0.34983 0.0
C647 C 0.43261 0.88702 0.38855 0.0
C648 C 0.4675 0.91578 0.39276 0.0
C649 C 0.49597 0.91321 0.3586 0.0
C650 C 0.48979 0.88186 0.31988 0.0
H651 H 0.35875 0.80748 0.49201 0.0
C652 C 0.34362 0.81423 0.44889 0.0
H653 H 0.3428 0.83235 0.32825 0.0
H654 H 0.42723 0.75423 0.21073 0.0
H655 H 0.36638 0.70487 0.20185 0.0
H656 H 0.31547 0.71032 0.25617 0.0
H657 H 0.32526 0.76492 0.32022 0.0
C658 C 0.35878 0.82866 0.3752 0.0
C659 C 0.39007 0.82577 0.34435 0.0
C660 C 0.38384 0.79361 0.30599 0.0
C661 C 0.41307 0.7907 0.27311 0.0
C662 C 0.40603 0.75812 0.236 0.0
C663 C 0.37119 0.72949 0.23052 0.0
C664 C 0.34257 0.73253 0.2612 0.0
C665 C 0.34864 0.7641 0.29831 0.0
loop_
_geom_bond_atom_site_label_1
_geom_bond_atom_site_label_2
_geom_bond_distance
_geom_bond_site_symmetry_2
_ccdc_geom_bond_type
O0 Mg1 1.990 . S
O0 C14 1.253 . S
Mg1 O0 1.990 . S
Mg1 O4 2.180 . S
Mg1 O5 2.117 . S
Mg1 O19 2.030 . S
O2 Mg3 2.072 . S
O2 C14 1.260 . S
Mg3 O2 2.072 . S
Mg3 O4 2.099 . S
Mg3 O6 2.079 . S
Mg3 O7 2.072 . S
Mg3 O9 2.099 . S
Mg3 O20 2.079 . S
O4 Mg1 2.180 . S
O4 Mg3 2.099 . S
O4 C15 1.279 . S
O5 Mg1 2.117 . S
O5 C15 1.250 . S
O6 Mg3 2.079 . S
O6 C16 1.264 . S
O7 Mg3 2.072 . S
O7 C17 1.260 . S
Mg8 O9 2.180 . S
Mg8 O10 2.030 . S
Mg8 O11 1.990 . S
Mg8 O12 2.117 . S
O9 Mg3 2.099 . S
O9 Mg8 2.180 . S
O9 C18 1.279 . S
O10 Mg8 2.030 . S
O10 C16 1.248 . S
O11 Mg8 1.990 . S
O11 C17 1.253 . S
O12 Mg8 2.117 . S
O12 C18 1.250 . S
C13 O19 1.248 . S
C13 O20 1.264 . S
C14 O0 1.253 . S
C14 O2 1.260 . S
C15 O4 1.279 . S
C15 O5 1.250 . S
C16 O6 1.264 . S
C16 O10 1.248 . S
C17 O7 1.260 . S
C17 O11 1.253 . S
C18 O9 1.279 . S
C18 O12 1.250 . S
O19 Mg1 2.030 . S
O19 C13 1.248 . S
O20 Mg3 2.079 . S
O20 C13 1.264 . S
O21 Mg22 1.990 . S
O21 C35 1.253 . S
Mg22 O21 1.990 . S
Mg22 O25 2.180 . S
Mg22 O26 2.117 . S
Mg22 O40 2.030 . S
O23 Mg24 2.072 . S
O23 C35 1.260 . S
Mg24 O23 2.072 . S
Mg24 O25 2.099 . S
Mg24 O27 2.079 . S
Mg24 O28 2.072 . S
Mg24 O30 2.099 . S
Mg24 O41 2.079 . S
O25 Mg22 2.180 . S
O25 Mg24 2.099 . S
O25 C36 1.279 . S
O26 Mg22 2.117 . S
O26 C36 1.250 . S
O27 Mg24 2.079 . S
O27 C37 1.264 . S
O28 Mg24 2.072 . S
O28 C38 1.260 . S
Mg29 O30 2.180 . S
Mg29 O31 2.030 . S
Mg29 O32 1.990 . S
Mg29 O33 2.117 . S
O30 Mg24 2.099 . S
O30 Mg29 2.180 . S
O30 C39 1.279 . S
O31 Mg29 2.030 . S
O31 C37 1.248 . S
O32 Mg29 1.990 . S
O32 C38 1.253 . S
O33 Mg29 2.117 . S
O33 C39 1.250 . S
C34 O40 1.248 . S
C34 O41 1.264 . S
C35 O21 1.253 . S
C35 O23 1.260 . S
C36 O25 1.279 . S
C36 O26 1.250 . S
C37 O27 1.264 . S
C37 O31 1.248 . S
C38 O28 1.260 . S
C38 O32 1.253 . S
C39 O30 1.279 . S
C39 O33 1.250 . S
O40 Mg22 2.030 . S
O40 C34 1.248 . S
O41 Mg24 2.079 . S
O41 C34 1.264 . S
O42 Mg43 1.990 . S
O42 C56 1.253 . S
Mg43 O42 1.990 . S
Mg43 O46 2.180 1_554 S
Mg43 O47 2.117 1_554 S
Mg43 O61 2.030 . S
O44 Mg45 2.072 1_554 S
O44 C56 1.260 . S
Mg45 O44 2.072 1_556 S
Mg45 O46 2.099 . S
Mg45 O48 2.079 . S
Mg45 O49 2.072 . S
Mg45 O51 2.099 . S
Mg45 O62 2.079 . S
O46 Mg43 2.180 1_556 S
O46 Mg45 2.099 . S
O46 C57 1.279 . S
O47 Mg43 2.117 1_556 S
O47 C57 1.250 . S
O48 Mg45 2.079 . S
O48 C58 1.264 . S
O49 Mg45 2.072 . S
O49 C59 1.260 . S
Mg50 O51 2.180 . S
Mg50 O52 2.030 . S
Mg50 O53 1.990 . S
Mg50 O54 2.117 . S
O51 Mg45 2.099 . S
O51 Mg50 2.180 . S
O51 C60 1.279 . S
O52 Mg50 2.030 . S
O52 C58 1.248 . S
O53 Mg50 1.990 . S
O53 C59 1.253 . S
O54 Mg50 2.117 . S
O54 C60 1.250 . S
C55 O61 1.248 1_556 S
C55 O62 1.264 . S
C56 O42 1.253 . S
C56 O44 1.260 . S
C57 O46 1.279 . S
C57 O47 1.250 . S
C58 O48 1.264 . S
C58 O52 1.248 . S
C59 O49 1.260 . S
C59 O53 1.253 . S
C60 O51 1.279 . S
C60 O54 1.250 . S
O61 Mg43 2.030 . S
O61 C55 1.248 1_554 S
O62 Mg45 2.079 . S
O62 C55 1.264 . S
O63 Mg64 1.990 . S
O63 C77 1.253 . S
Mg64 O63 1.990 . S
Mg64 O67 2.180 . S
Mg64 O68 2.117 . S
Mg64 O82 2.030 . S
O65 Mg66 2.072 . S
O65 C77 1.260 . S
Mg66 O65 2.072 . S
Mg66 O67 2.099 . S
Mg66 O69 2.079 1_554 S
Mg66 O70 2.072 . S
Mg66 O72 2.099 . S
Mg66 O83 2.079 . S
O67 Mg64 2.180 . S
O67 Mg66 2.099 . S
O67 C78 1.279 . S
O68 Mg64 2.117 . S
O68 C78 1.250 . S
O69 Mg66 2.079 1_556 S
O69 C79 1.264 . S
O70 Mg66 2.072 . S
O70 C80 1.260 . S
Mg71 O72 2.180 1_556 S
Mg71 O73 2.030 . S
Mg71 O74 1.990 1_556 S
Mg71 O75 2.117 1_556 S
O72 Mg66 2.099 . S
O72 Mg71 2.180 1_554 S
O72 C81 1.279 . S
O73 Mg71 2.030 . S
O73 C79 1.248 . S
O74 Mg71 1.990 1_554 S
O74 C80 1.253 . S
O75 Mg71 2.117 1_554 S
O75 C81 1.250 . S
C76 O82 1.248 . S
C76 O83 1.264 . S
C77 O63 1.253 . S
C77 O65 1.260 . S
C78 O67 1.279 . S
C78 O68 1.250 . S
C79 O69 1.264 . S
C79 O73 1.248 . S
C80 O70 1.260 . S
C80 O74 1.253 . S
C81 O72 1.279 . S
C81 O75 1.250 . S
O82 Mg64 2.030 . S
O82 C76 1.248 . S
O83 Mg66 2.079 . S
O83 C76 1.264 . S
O84 Mg85 1.990 . S
O84 C98 1.253 . S
Mg85 O84 1.990 . S
Mg85 O88 2.180 . S
Mg85 O89 2.117 . S
Mg85 O103 2.030 . S
O86 Mg87 2.072 . S
O86 C98 1.260 . S
Mg87 O86 2.072 . S
Mg87 O88 2.099 . S
Mg87 O90 2.079 . S
Mg87 O91 2.072 . S
Mg87 O93 2.099 . S
Mg87 O104 2.079 . S
O88 Mg85 2.180 . S
O88 Mg87 2.099 . S
O88 C99 1.279 . S
O89 Mg85 2.117 . S
O89 C99 1.250 . S
O90 Mg87 2.079 . S
O90 C100 1.264 . S
O91 Mg87 2.072 . S
O91 C101 1.260 . S
Mg92 O93 2.180 . S
Mg92 O94 2.030 . S
Mg92 O95 1.990 . S
Mg92 O96 2.117 . S
O93 Mg87 2.099 . S
O93 Mg92 2.180 . S
O93 C102 1.279 . S
O94 Mg92 2.030 . S
O94 C100 1.248 . S
O95 Mg92 1.990 . S
O95 C101 1.253 . S
O96 Mg92 2.117 . S
O96 C102 1.250 . S
C97 O103 1.248 . S
C97 O104 1.264 . S
C98 O84 1.253 . S
C98 O86 1.260 . S
C99 O88 1.279 . S
C99 O89 1.250 . S
C100 O90 1.264 . S
C100 O94 1.248 . S
C101 O91 1.260 . S
C101 O95 1.253 . S
C102 O93 1.279 . S
C102 O96 1.250 . S
O103 Mg85 2.030 . S
O103 C97 1.248 . S
O104 Mg87 2.079 . S
O104 C97 1.264 . S
O105 Mg106 1.990 . S
O105 C119 1.253 . S
Mg106 O105 1.990 . S
Mg106 O109 2.180 . S
Mg106 O110 2.117 . S
Mg106 O124 2.030 . S
O107 Mg108 2.072 . S
O107 C119 1.260 . S
Mg108 O107 2.072 . S
Mg108 O109 2.099 . S
Mg108 O111 2.079 . S
Mg108 O112 2.072 . S
Mg108 O114 2.099 . S
Mg108 O125 2.079 . S
O109 Mg106 2.180 . S
O109 Mg108 2.099 . S
O109 C120 1.279 . S
O110 Mg106 2.117 . S
O110 C120 1.250 . S
O111 Mg108 2.079 . S
O111 C121 1.264 . S
O112 Mg108 2.072 . S
O112 C122 1.260 . S
Mg113 O114 2.180 . S
Mg113 O115 2.030 . S
Mg113 O116 1.990 . S
Mg113 O117 2.117 . S
O114 Mg108 2.099 . S
O114 Mg113 2.180 . S
O114 C123 1.279 . S
O115 Mg113 2.030 . S
O115 C121 1.248 . S
O116 Mg113 1.990 . S
O116 C122 1.253 . S
O117 Mg113 2.117 . S
O117 C123 1.250 . S
C118 O124 1.248 . S
C118 O125 1.264 . S
C119 O105 1.253 . S
C119 O107 1.260 . S
C120 O109 1.279 . S
C120 O110 1.250 . S
C121 O111 1.264 . S
C121 O115 1.248 . S
C122 O112 1.260 . S
C122 O116 1.253 . S
C123 O114 1.279 . S
C123 O117 1.250 . S
O124 Mg106 2.030 . S
O124 C118 1.248 . S
O125 Mg108 2.079 . S
O125 C118 1.264 . S
H126 C127 0.951 . S
C127 H126 0.951 . S
C127 C133 1.265 . S
H128 C133 0.950 . S
H129 C137 0.949 . S
H130 C138 0.950 . S
H131 C139 0.951 . S
H132 C140 0.951 . S
C133 C127 1.265 . S
C133 H128 0.950 . S
C133 C134 1.478 . S
C134 C133 1.478 . S
C134 C135 1.397 . S
C134 C151 1.394 . S
C135 C134 1.397 . S
C135 C136 1.438 . S
C135 C140 1.429 . S
C136 C135 1.438 . S
C136 C137 1.428 1_554 S
C136 C149 1.394 1_554 S
C137 H129 0.949 . S
C137 C136 1.428 1_556 S
C137 C138 1.345 . S
C138 H130 0.950 . S
C138 C137 1.345 . S
C138 C139 1.424 1_556 S
C139 H131 0.951 . S
C139 C138 1.424 1_554 S
C139 C140 1.347 . S
C140 H132 0.951 . S
C140 C135 1.429 . S
C140 C139 1.347 . S
H141 C142 0.951 . S
C142 H141 0.951 . S
C142 C148 1.265 . S
H143 C148 0.950 . S
H144 C152 0.949 . S
H145 C153 0.950 . S
H146 C154 0.951 . S
H147 C155 0.951 1_556 S
C148 C142 1.265 . S
C148 H143 0.950 . S
C148 C149 1.478 . S
C149 C136 1.394 1_556 S
C149 C148 1.478 . S
C149 C150 1.397 1_556 S
C150 C149 1.397 1_554 S
C150 C151 1.438 . S
C150 C155 1.429 . S
C151 C134 1.394 . S
C151 C150 1.438 . S
C151 C152 1.428 . S
C152 H144 0.949 . S
C152 C151 1.428 . S
C152 C153 1.345 . S
C153 H145 0.950 . S
C153 C152 1.345 . S
C153 C154 1.424 . S
C154 H146 0.951 . S
C154 C153 1.424 . S
C154 C155 1.347 . S
C155 H147 0.951 1_554 S
C155 C150 1.429 . S
C155 C154 1.347 . S
H156 C157 0.951 . S
C157 H156 0.951 . S
C157 C163 1.265 . S
H158 C163 0.950 . S
H159 C167 0.949 . S
H160 C168 0.950 . S
H161 C169 0.951 . S
H162 C170 0.951 . S
C163 C157 1.265 . S
C163 H158 0.950 . S
C163 C164 1.478 . S
C164 C163 1.478 . S
C164 C165 1.397 . S
C164 C181 1.394 . S
C165 C164 1.397 . S
C165 C166 1.438 . S
C165 C170 1.429 . S
C166 C165 1.438 . S
C166 C167 1.428 . S
C166 C179 1.394 . S
C167 H159 0.949 . S
C167 C166 1.428 . S
C167 C168 1.345 . S
C168 H160 0.950 . S
C168 C167 1.345 . S
C168 C169 1.424 . S
C169 H161 0.951 . S
C169 C168 1.424 . S
C169 C170 1.347 . S
C170 H162 0.951 . S
C170 C165 1.429 . S
C170 C169 1.347 . S
H171 C172 0.951 1_554 S
C172 H171 0.951 1_556 S
C172 C178 1.265 1_556 S
H173 C178 0.950 . S
H174 C182 0.949 . S
H175 C183 0.950 . S
H176 C184 0.951 . S
H177 C185 0.951 . S
C178 C172 1.265 1_554 S
C178 H173 0.950 . S
C178 C179 1.478 . S
C179 C166 1.394 . S
C179 C178 1.478 . S
C179 C180 1.397 . S
C180 C179 1.397 . S
C180 C181 1.438 . S
C180 C185 1.429 . S
C181 C164 1.394 . S
C181 C180 1.438 . S
C181 C182 1.428 . S
C182 H174 0.949 . S
C182 C181 1.428 . S
C182 C183 1.345 . S
C183 H175 0.950 . S
C183 C182 1.345 . S
C183 C184 1.424 . S
C184 H176 0.951 . S
C184 C183 1.424 . S
C184 C185 1.347 . S
C185 H177 0.951 . S
C185 C180 1.429 . S
C185 C184 1.347 . S
H186 C187 0.951 . S
C187 H186 0.951 . S
C187 C193 1.265 . S
H188 C193 0.950 . S
H189 C197 0.949 . S
H190 C198 0.950 . S
H191 C199 0.951 . S
H192 C200 0.951 . S
C193 C187 1.265 . S
C193 H188 0.950 . S
C193 C194 1.478 . S
C194 C193 1.478 . S
C194 C195 1.397 . S
C194 C211 1.394 . S
C195 C194 1.397 . S
C195 C196 1.438 . S
C195 C200 1.429 . S
C196 C195 1.438 . S
C196 C197 1.428 . S
C196 C209 1.394 . S
C197 H189 0.949 . S
C197 C196 1.428 . S
C197 C198 1.345 . S
C198 H190 0.950 . S
C198 C197 1.345 . S
C198 C199 1.424 . S
C199 H191 0.951 . S
C199 C198 1.424 . S
C199 C200 1.347 . S
C200 H192 0.951 . S
C200 C195 1.429 . S
C200 C199 1.347 . S
H201 C202 0.951 . S
C202 H201 0.951 . S
C202 C208 1.265 . S
H203 C208 0.950 . S
H204 C212 0.949 . S
H205 C213 0.950 . S
H206 C214 0.951 . S
H207 C215 0.951 . S
C208 C202 1.265 . S
C208 H203 0.950 . S
C208 C209 1.478 . S
C209 C196 1.394 . S
C209 C208 1.478 . S
C209 C210 1.397 . S
C210 C209 1.397 . S
C210 C211 1.438 . S
C210 C215 1.429 . S
C211 C194 1.394 . S
C211 C210 1.438 . S
C211 C212 1.428 . S
C212 H204 0.949 . S
C212 C211 1.428 . S
C212 C213 1.345 . S
C213 H205 0.950 . S
C213 C212 1.345 . S
C213 C214 1.424 . S
C214 H206 0.951 . S
C214 C213 1.424 . S
C214 C215 1.347 . S
C215 H207 0.951 . S
C215 C210 1.429 . S
C215 C214 1.347 . S
H216 C217 0.951 . S
C217 H216 0.951 . S
C217 C223 1.265 . S
H218 C223 0.950 . S
H219 C227 0.949 . S
H220 C228 0.950 . S
H221 C229 0.951 . S
H222 C230 0.951 . S
C223 C217 1.265 . S
C223 H218 0.950 . S
C223 C224 1.478 . S
C224 C223 1.478 . S
C224 C225 1.397 . S
C224 C241 1.394 . S
C225 C224 1.397 . S
C225 C226 1.438 . S
C225 C230 1.429 . S
C226 C225 1.438 . S
C226 C227 1.428 . S
C226 C239 1.394 . S
C227 H219 0.949 . S
C227 C226 1.428 . S
C227 C228 1.345 . S
C228 H220 0.950 . S
C228 C227 1.345 . S
C228 C229 1.424 . S
C229 H221 0.951 . S
C229 C228 1.424 . S
C229 C230 1.347 . S
C230 H222 0.951 . S
C230 C225 1.429 . S
C230 C229 1.347 . S
H231 C232 0.951 . S
C232 H231 0.951 . S
C232 C238 1.265 . S
H233 C238 0.950 . S
H234 C242 0.949 . S
H235 C243 0.950 . S
H236 C244 0.951 . S
H237 C245 0.951 . S
C238 C232 1.265 . S
C238 H233 0.950 . S
C238 C239 1.478 . S
C239 C226 1.394 . S
C239 C238 1.478 . S
C239 C240 1.397 . S
C240 C239 1.397 . S
C240 C241 1.438 . S
C240 C245 1.429 . S
C241 C224 1.394 . S
C241 C240 1.438 . S
C241 C242 1.428 . S
C242 H234 0.949 . S
C242 C241 1.428 . S
C242 C243 1.345 . S
C243 H235 0.950 . S
C243 C242 1.345 . S
C243 C244 1.424 . S
C244 H236 0.951 . S
C244 C243 1.424 . S
C244 C245 1.347 . S
C245 H237 0.951 . S
C245 C240 1.429 . S
C245 C244 1.347 . S
H246 C247 0.951 . S
C247 H246 0.951 . S
C247 C253 1.265 . S
H248 C253 0.950 . S
H249 C257 0.949 . S
H250 C258 0.950 . S
H251 C259 0.951 . S
H252 C260 0.951 . S
C253 C247 1.265 . S
C253 H248 0.950 . S
C253 C254 1.478 . S
C254 C253 1.478 . S
C254 C255 1.397 . S
C254 C271 1.394 . S
C255 C254 1.397 . S
C255 C256 1.438 . S
C255 C260 1.429 . S
C256 C255 1.438 . S
C256 C257 1.428 . S
C256 C269 1.394 . S
C257 H249 0.949 . S
C257 C256 1.428 . S
C257 C258 1.345 . S
C258 H250 0.950 . S
C258 C257 1.345 . S
C258 C259 1.424 . S
C259 H251 0.951 . S
C259 C258 1.424 . S
C259 C260 1.347 . S
C260 H252 0.951 . S
C260 C255 1.429 . S
C260 C259 1.347 . S
H261 C262 0.951 . S
C262 H261 0.951 . S
C262 C268 1.265 . S
H263 C268 0.950 . S
H264 C272 0.949 . S
H265 C273 0.950 . S
H266 C274 0.951 . S
H267 C275 0.951 . S
C268 C262 1.265 . S
C268 H263 0.950 . S
C268 C269 1.478 . S
C269 C256 1.394 . S
C269 C268 1.478 . S
C269 C270 1.397 . S
C270 C269 1.397 . S
C270 C271 1.438 . S
C270 C275 1.429 . S
C271 C254 1.394 . S
C271 C270 1.438 . S
C271 C272 1.428 . S
C272 H264 0.949 . S
C272 C271 1.428 . S
C272 C273 1.345 . S
C273 H265 0.950 . S
C273 C272 1.345 . S
C273 C274 1.424 . S
C274 H266 0.951 . S
C274 C273 1.424 . S
C274 C275 1.347 . S
C275 H267 0.951 . S
C275 C270 1.429 . S
C275 C274 1.347 . S
H276 C277 0.951 . S
C277 H276 0.951 . S
C277 C283 1.265 . S
H278 C283 0.950 . S
H279 C287 0.949 . S
H280 C288 0.950 . S
H281 C289 0.951 . S
H282 C290 0.951 1_554 S
C283 C277 1.265 . S
C283 H278 0.950 . S
C283 C284 1.478 1_554 S
C284 C283 1.478 1_556 S
C284 C285 1.397 . S
C284 C301 1.394 . S
C285 C284 1.397 . S
C285 C286 1.438 . S
C285 C290 1.429 . S
C286 C285 1.438 . S
C286 C287 1.428 . S
C286 C299 1.394 . S
C287 H279 0.949 . S
C287 C286 1.428 . S
C287 C288 1.345 . S
C288 H280 0.950 . S
C288 C287 1.345 . S
C288 C289 1.424 . S
C289 H281 0.951 . S
C289 C288 1.424 . S
C289 C290 1.347 . S
C290 H282 0.951 1_556 S
C290 C285 1.429 . S
C290 C289 1.347 . S
H291 C292 0.951 . S
C292 H291 0.951 . S
C292 C298 1.265 . S
H293 C298 0.950 . S
H294 C302 0.949 . S
H295 C303 0.950 1_554 S
H296 C304 0.951 . S
H297 C305 0.951 . S
C298 C292 1.265 . S
C298 H293 0.950 . S
C298 C299 1.478 . S
C299 C286 1.394 . S
C299 C298 1.478 . S
C299 C300 1.397 . S
C300 C299 1.397 . S
C300 C301 1.438 . S
C300 C305 1.429 . S
C301 C284 1.394 . S
C301 C300 1.438 . S
C301 C302 1.428 1_556 S
C302 H294 0.949 . S
C302 C301 1.428 1_554 S
C302 C303 1.345 1_554 S
C303 H295 0.950 1_556 S
C303 C302 1.345 1_556 S
C303 C304 1.424 . S
C304 H296 0.951 . S
C304 C303 1.424 . S
C304 C305 1.347 . S
C305 H297 0.951 . S
C305 C300 1.429 . S
C305 C304 1.347 . S
H306 C307 0.951 . S
C307 H306 0.951 . S
C307 C313 1.265 . S
H308 C313 0.950 . S
H309 C317 0.949 . S
H310 C318 0.950 . S
H311 C319 0.951 . S
H312 C320 0.951 1_545 S
C313 C307 1.265 . S
C313 H308 0.950 . S
C313 C314 1.478 . S
C314 C313 1.478 . S
C314 C315 1.397 1_545 S
C314 C331 1.394 . S
C315 C314 1.397 1_565 S
C315 C316 1.438 . S
C315 C320 1.429 . S
C316 C315 1.438 . S
C316 C317 1.428 . S
C316 C329 1.394 . S
C317 H309 0.949 . S
C317 C316 1.428 . S
C317 C318 1.345 . S
C318 H310 0.950 . S
C318 C317 1.345 . S
C318 C319 1.424 . S
C319 H311 0.951 . S
C319 C318 1.424 . S
C319 C320 1.347 . S
C320 H312 0.951 1_565 S
C320 C315 1.429 . S
C320 C319 1.347 . S
H321 C322 0.951 . S
C322 H321 0.951 . S
C322 C328 1.265 . S
H323 C328 0.950 . S
H324 C332 0.949 . S
H325 C333 0.950 . S
H326 C334 0.951 . S
H327 C335 0.951 . S
C328 C322 1.265 . S
C328 H323 0.950 . S
C328 C329 1.478 . S
C329 C316 1.394 . S
C329 C328 1.478 . S
C329 C330 1.397 . S
C330 C329 1.397 . S
C330 C331 1.438 1_565 S
C330 C335 1.429 . S
C331 C314 1.394 . S
C331 C330 1.438 1_545 S
C331 C332 1.428 . S
C332 H324 0.949 . S
C332 C331 1.428 . S
C332 C333 1.345 . S
C333 H325 0.950 . S
C333 C332 1.345 . S
C333 C334 1.424 . S
C334 H326 0.951 . S
C334 C333 1.424 . S
C334 C335 1.347 1_545 S
C335 H327 0.951 . S
C335 C330 1.429 . S
C335 C334 1.347 1_565 S
H336 C337 0.951 . S
C337 H336 0.951 . S
C337 C343 1.265 . S
H338 C343 0.950 . S
H339 C347 0.949 . S
H340 C348 0.950 . S
H341 C349 0.951 . S
H342 C350 0.951 . S
C343 C337 1.265 . S
C343 H338 0.950 . S
C343 C344 1.478 . S
C344 C343 1.478 . S
C344 C345 1.397 . S
C344 C361 1.394 . S
C345 C344 1.397 . S
C345 C346 1.438 . S
C345 C350 1.429 . S
C346 C345 1.438 . S
C346 C347 1.428 . S
C346 C359 1.394 . S
C347 H339 0.949 . S
C347 C346 1.428 . S
C347 C348 1.345 . S
C348 H340 0.950 . S
C348 C347 1.345 . S
C348 C349 1.424 . S
C349 H341 0.951 . S
C349 C348 1.424 . S
C349 C350 1.347 . S
C350 H342 0.951 . S
C350 C345 1.429 . S
C350 C349 1.347 . S
H351 C352 0.951 . S
C352 H351 0.951 . S
C352 C358 1.265 . S
H353 C358 0.950 . S
H354 C362 0.949 . S
H355 C363 0.950 . S
H356 C364 0.951 . S
H357 C365 0.951 . S
C358 C352 1.265 . S
C358 H353 0.950 . S
C358 C359 1.478 . S
C359 C346 1.394 . S
C359 C358 1.478 . S
C359 C360 1.397 . S
C360 C359 1.397 . S
C360 C361 1.438 . S
C360 C365 1.429 . S
C361 C344 1.394 . S
C361 C360 1.438 . S
C361 C362 1.428 . S
C362 H354 0.949 . S
C362 C361 1.428 . S
C362 C363 1.345 . S
C363 H355 0.950 . S
C363 C362 1.345 . S
C363 C364 1.424 . S
C364 H356 0.951 . S
C364 C363 1.424 . S
C364 C365 1.347 . S
C365 H357 0.951 . S
C365 C360 1.429 . S
C365 C364 1.347 . S
H366 C367 0.951 . S
C367 H366 0.951 . S
C367 C373 1.265 . S
H368 C373 0.950 . S
H369 C377 0.949 . S
H370 C378 0.950 . S
H371 C379 0.951 . S
H372 C380 0.951 . S
C373 C367 1.265 . S
C373 H368 0.950 . S
C373 C374 1.478 . S
C374 C373 1.478 . S
C374 C375 1.397 . S
C374 C391 1.379 1_655 S
C375 C374 1.397 . S
C375 C376 1.438 1_655 S
C375 C380 1.429 . S
C376 C375 1.438 1_455 S
C376 C377 1.428 . S
C376 C389 1.394 . S
C377 H369 0.949 . S
C377 C376 1.428 . S
C377 C378 1.345 . S
C378 H370 0.950 . S
C378 C377 1.345 . S
C378 C379 1.424 1_455 S
C379 H371 0.951 . S
C379 C378 1.424 1_655 S
C379 C380 1.347 . S
C380 H372 0.951 . S
C380 C375 1.429 . S
C380 C379 1.347 . S
H381 C382 0.951 . S
C382 H381 0.951 . S
C382 C388 1.265 . S
H383 C388 0.950 . S
H384 C392 0.949 . S
H385 C393 0.950 . S
H386 C394 0.951 . S
H387 C395 0.951 . S
C388 C382 1.265 . S
C388 H383 0.950 . S
C388 C389 1.478 . S
C389 C376 1.394 . S
C389 C388 1.478 . S
C389 C390 1.397 . S
C390 C389 1.397 . S
C390 C391 1.458 . S
C390 C395 1.429 . S
C391 C374 1.379 1_455 S
C391 C390 1.458 . S
C391 C392 1.424 1_456 S
C392 H384 0.949 . S
C392 C391 1.424 1_654 S
C392 C393 1.345 1_655 S
C393 H385 0.950 . S
C393 C392 1.345 1_455 S
C393 C394 1.424 . S
C394 H386 0.951 . S
C394 C393 1.424 . S
C394 C395 1.347 1_554 S
C395 H387 0.951 . S
C395 C390 1.429 . S
C395 C394 1.347 1_556 S
H396 C397 0.951 . S
C397 H396 0.951 . S
C397 C403 1.265 . S
H398 C403 0.950 . S
H399 C407 0.949 . S
H400 C408 0.950 . S
H401 C409 0.951 . S
H402 C410 0.951 . S
C403 C397 1.265 . S
C403 H398 0.950 . S
C403 C404 1.478 . S
C404 C403 1.478 . S
C404 C405 1.397 1_554 S
C404 C421 1.393 . S
C405 C404 1.397 1_556 S
C405 C406 1.438 1_565 S
C405 C410 1.429 . S
C406 C405 1.438 1_545 S
C406 C407 1.428 . S
C406 C419 1.394 . S
C407 H399 0.949 . S
C407 C406 1.428 . S
C407 C408 1.345 . S
C408 H400 0.950 . S
C408 C407 1.345 . S
C408 C409 1.424 1_545 S
C409 H401 0.951 . S
C409 C408 1.424 1_565 S
C409 C410 1.347 . S
C410 H402 0.951 . S
C410 C405 1.429 . S
C410 C409 1.347 . S
H411 C412 0.951 . S
C412 H411 0.951 . S
C412 C418 1.265 . S
H413 C418 0.950 . S
H414 C422 0.949 . S
H415 C423 0.950 . S
H416 C424 0.951 . S
H417 C425 0.951 . S
C418 C412 1.265 . S
C418 H413 0.950 . S
C418 C419 1.478 . S
C419 C406 1.394 . S
C419 C418 1.478 . S
C419 C420 1.397 1_556 S
C420 C419 1.397 1_554 S
C420 C421 1.439 1_545 S
C420 C425 1.429 . S
C421 C404 1.393 . S
C421 C420 1.439 1_565 S
C421 C422 1.428 . S
C422 H414 0.949 . S
C422 C421 1.428 . S
C422 C423 1.345 1_565 S
C423 H415 0.950 . S
C423 C422 1.345 1_545 S
C423 C424 1.424 . S
C424 H416 0.951 . S
C424 C423 1.424 . S
C424 C425 1.347 . S
C425 H417 0.951 . S
C425 C420 1.429 . S
C425 C424 1.347 . S
H426 C427 0.951 . S
C427 H426 0.951 . S
C427 C433 1.265 . S
H428 C433 0.950 . S
H429 C437 0.949 . S
H430 C438 0.950 . S
H431 C439 0.951 . S
H432 C440 0.951 . S
C433 C427 1.265 . S
C433 H428 0.950 . S
C433 C434 1.478 . S
C434 C433 1.478 . S
C434 C435 1.397 . S
C434 C451 1.394 . S
C435 C434 1.397 . S
C435 C436 1.438 . S
C435 C440 1.429 . S
C436 C435 1.438 . S
C436 C437 1.428 . S
C436 C449 1.394 . S
C437 H429 0.949 . S
C437 C436 1.428 . S
C437 C438 1.345 . S
C438 H430 0.950 . S
C438 C437 1.345 . S
C438 C439 1.424 . S
C439 H431 0.951 . S
C439 C438 1.424 . S
C439 C440 1.347 . S
C440 H432 0.951 . S
C440 C435 1.429 . S
C440 C439 1.347 . S
H441 C442 0.951 . S
C442 H441 0.951 . S
C442 C448 1.265 . S
H443 C448 0.950 . S
H444 C452 0.949 . S
H445 C453 0.950 . S
H446 C454 0.951 . S
H447 C455 0.951 . S
C448 C442 1.265 . S
C448 H443 0.950 . S
C448 C449 1.478 . S
C449 C436 1.394 . S
C449 C448 1.478 . S
C449 C450 1.397 . S
C450 C449 1.397 . S
C450 C451 1.438 . S
C450 C455 1.429 1_554 S
C451 C434 1.394 . S
C451 C450 1.438 . S
C451 C452 1.428 . S
C452 H444 0.949 . S
C452 C451 1.428 . S
C452 C453 1.345 1_554 S
C453 H445 0.950 . S
C453 C452 1.345 1_556 S
C453 C454 1.424 . S
C454 H446 0.951 . S
C454 C453 1.424 . S
C454 C455 1.347 . S
C455 H447 0.951 . S
C455 C450 1.429 1_556 S
C455 C454 1.347 . S
H456 C457 0.951 . S
C457 H456 0.951 . S
C457 C463 1.265 . S
H458 C463 0.950 . S
H459 C467 0.949 . S
H460 C468 0.950 . S
H461 C469 0.951 . S
H462 C470 0.951 . S
C463 C457 1.265 . S
C463 H458 0.950 . S
C463 C464 1.478 . S
C464 C463 1.478 . S
C464 C465 1.397 . S
C464 C481 1.394 . S
C465 C464 1.397 . S
C465 C466 1.447 . S
C465 C470 1.429 . S
C466 C465 1.447 . S
C466 C467 1.425 1_655 S
C466 C479 1.389 1_655 S
C467 H459 0.949 . S
C467 C466 1.425 1_455 S
C467 C468 1.345 1_455 S
C468 H460 0.950 . S
C468 C467 1.345 1_655 S
C468 C469 1.424 . S
C469 H461 0.951 . S
C469 C468 1.424 . S
C469 C470 1.347 . S
C470 H462 0.951 . S
C470 C465 1.429 . S
C470 C469 1.347 . S
H471 C472 0.951 . S
C472 H471 0.951 . S
C472 C478 1.265 . S
H473 C478 0.950 . S
H474 C482 0.949 . S
H475 C483 0.950 . S
H476 C484 0.951 . S
H477 C485 0.951 . S
C478 C472 1.265 . S
C478 H473 0.950 . S
C478 C479 1.478 . S
C479 C466 1.389 1_455 S
C479 C478 1.478 . S
C479 C480 1.397 . S
C480 C479 1.397 . S
C480 C481 1.438 1_455 S
C480 C485 1.429 . S
C481 C464 1.394 . S
C481 C480 1.438 1_655 S
C481 C482 1.428 . S
C482 H474 0.949 . S
C482 C481 1.428 . S
C482 C483 1.345 . S
C483 H475 0.950 . S
C483 C482 1.345 . S
C483 C484 1.424 1_655 S
C484 H476 0.951 . S
C484 C483 1.424 1_455 S
C484 C485 1.347 . S
C485 H477 0.951 . S
C485 C480 1.429 . S
C485 C484 1.347 . S
H486 C487 0.951 . S
C487 H486 0.951 . S
C487 C493 1.265 . S
H488 C493 0.950 . S
H489 C497 0.949 . S
H490 C498 0.950 . S
H491 C499 0.951 . S
H492 C500 0.951 . S
C493 C487 1.265 . S
C493 H488 0.950 . S
C493 C494 1.478 . S
C494 C493 1.478 . S
C494 C495 1.397 . S
C494 C511 1.394 . S
C495 C494 1.397 . S
C495 C496 1.438 . S
C495 C500 1.429 . S
C496 C495 1.438 . S
C496 C497 1.428 . S
C496 C509 1.394 . S
C497 H489 0.949 . S
C497 C496 1.428 . S
C497 C498 1.345 . S
C498 H490 0.950 . S
C498 C497 1.345 . S
C498 C499 1.424 . S
C499 H491 0.951 . S
C499 C498 1.424 . S
C499 C500 1.347 . S
C500 H492 0.951 . S
C500 C495 1.429 . S
C500 C499 1.347 . S
H501 C502 0.951 . S
C502 H501 0.951 . S
C502 C508 1.265 . S
H503 C508 0.950 . S
H504 C512 0.949 . S
H505 C513 0.950 . S
H506 C514 0.951 . S
H507 C515 0.951 . S
C508 C502 1.265 . S
C508 H503 0.950 . S
C508 C509 1.478 . S
C509 C496 1.394 . S
C509 C508 1.478 . S
C509 C510 1.397 . S
C510 C509 1.397 . S
C510 C511 1.438 . S
C510 C515 1.429 . S
C511 C494 1.394 . S
C511 C510 1.438 . S
C511 C512 1.428 . S
C512 H504 0.949 . S
C512 C511 1.428 . S
C512 C513 1.345 . S
C513 H505 0.950 . S
C513 C512 1.345 . S
C513 C514 1.424 . S
C514 H506 0.951 . S
C514 C513 1.424 . S
C514 C515 1.347 . S
C515 H507 0.951 . S
C515 C510 1.429 . S
C515 C514 1.347 . S
H516 C517 0.951 . S
C517 H516 0.951 . S
C517 C523 1.265 . S
H518 C523 0.950 . S
H519 C527 0.949 . S
H520 C528 0.950 . S
H521 C529 0.951 . S
H522 C530 0.951 . S
C523 C517 1.265 . S
C523 H518 0.950 . S
C523 C524 1.478 . S
C524 C523 1.478 . S
C524 C525 1.397 . S
C524 C541 1.394 . S
C525 C524 1.397 . S
C525 C526 1.438 . S
C525 C530 1.429 . S
C526 C525 1.438 . S
C526 C527 1.428 . S
C526 C539 1.394 . S
C527 H519 0.949 . S
C527 C526 1.428 . S
C527 C528 1.345 . S
C528 H520 0.950 . S
C528 C527 1.345 . S
C528 C529 1.424 . S
C529 H521 0.951 . S
C529 C528 1.424 . S
C529 C530 1.347 . S
C530 H522 0.951 . S
C530 C525 1.429 . S
C530 C529 1.347 . S
H531 C532 0.951 . S
C532 H531 0.951 . S
C532 C538 1.265 . S
H533 C538 0.950 . S
H534 C542 0.949 . S
H535 C543 0.950 . S
H536 C544 0.951 . S
H537 C545 0.951 . S
C538 C532 1.265 . S
C538 H533 0.950 . S
C538 C539 1.478 . S
C539 C526 1.394 . S
C539 C538 1.478 . S
C539 C540 1.397 . S
C540 C539 1.397 . S
C540 C541 1.438 . S
C540 C545 1.429 . S
C541 C524 1.394 . S
C541 C540 1.438 . S
C541 C542 1.428 . S
C542 H534 0.949 . S
C542 C541 1.428 . S
C542 C543 1.345 . S
C543 H535 0.950 . S
C543 C542 1.345 . S
C543 C544 1.424 . S
C544 H536 0.951 . S
C544 C543 1.424 . S
C544 C545 1.347 . S
C545 H537 0.951 . S
C545 C540 1.429 . S
C545 C544 1.347 . S
H546 C547 0.951 . S
C547 H546 0.951 . S
C547 C553 1.265 . S
H548 C553 0.950 . S
H549 C557 0.949 . S
H550 C558 0.950 . S
H551 C559 0.951 . S
H552 C560 0.951 . S
C553 C547 1.265 . S
C553 H548 0.950 . S
C553 C554 1.478 . S
C554 C553 1.478 . S
C554 C555 1.397 . S
C554 C571 1.394 . S
C555 C554 1.397 . S
C555 C556 1.438 . S
C555 C560 1.429 . S
C556 C555 1.438 . S
C556 C557 1.428 . S
C556 C569 1.394 . S
C557 H549 0.949 . S
C557 C556 1.428 . S
C557 C558 1.345 . S
C558 H550 0.950 . S
C558 C557 1.345 . S
C558 C559 1.424 . S
C559 H551 0.951 . S
C559 C558 1.424 . S
C559 C560 1.347 . S
C560 H552 0.951 . S
C560 C555 1.429 . S
C560 C559 1.347 . S
H561 C562 0.951 . S
C562 H561 0.951 . S
C562 C568 1.265 . S
H563 C568 0.950 . S
H564 C572 0.949 . S
H565 C573 0.950 . S
H566 C574 0.951 . S
H567 C575 0.951 . S
C568 C562 1.265 . S
C568 H563 0.950 . S
C568 C569 1.478 . S
C569 C556 1.394 . S
C569 C568 1.478 . S
C569 C570 1.397 . S
C570 C569 1.397 . S
C570 C571 1.438 . S
C570 C575 1.429 . S
C571 C554 1.394 . S
C571 C570 1.438 . S
C571 C572 1.428 . S
C572 H564 0.949 . S
C572 C571 1.428 . S
C572 C573 1.345 . S
C573 H565 0.950 . S
C573 C572 1.345 . S
C573 C574 1.424 . S
C574 H566 0.951 . S
C574 C573 1.424 . S
C574 C575 1.347 . S
C575 H567 0.951 . S
C575 C570 1.429 . S
C575 C574 1.347 . S
H576 C577 0.951 . S
C577 H576 0.951 . S
C577 C583 1.265 1_554 S
H578 C583 0.950 . S
H579 C587 0.949 . S
H580 C588 0.950 . S
H581 C589 0.951 . S
H582 C590 0.951 . S
C583 C577 1.265 1_556 S
C583 H578 0.950 . S
C583 C584 1.478 . S
C584 C583 1.478 . S
C584 C585 1.397 . S
C584 C601 1.394 . S
C585 C584 1.397 . S
C585 C586 1.438 . S
C585 C590 1.429 . S
C586 C585 1.438 . S
C586 C587 1.428 . S
C586 C599 1.394 . S
C587 H579 0.949 . S
C587 C586 1.428 . S
C587 C588 1.345 . S
C588 H580 0.950 . S
C588 C587 1.345 . S
C588 C589 1.424 . S
C589 H581 0.951 . S
C589 C588 1.424 . S
C589 C590 1.347 . S
C590 H582 0.951 . S
C590 C585 1.429 . S
C590 C589 1.347 . S
H591 C592 0.951 . S
C592 H591 0.951 . S
C592 C598 1.265 . S
H593 C598 0.950 . S
H594 C602 0.949 1_554 S
H595 C603 0.950 . S
H596 C604 0.951 1_554 S
H597 C605 0.951 . S
C598 C592 1.265 . S
C598 H593 0.950 . S
C598 C599 1.478 . S
C599 C586 1.394 . S
C599 C598 1.478 . S
C599 C600 1.397 . S
C600 C599 1.397 . S
C600 C601 1.438 . S
C600 C605 1.429 . S
C601 C584 1.394 . S
C601 C600 1.438 . S
C601 C602 1.428 . S
C602 H594 0.949 1_556 S
C602 C601 1.428 . S
C602 C603 1.345 1_556 S
C603 H595 0.950 . S
C603 C602 1.345 1_554 S
C603 C604 1.424 1_554 S
C604 H596 0.951 1_556 S
C604 C603 1.424 1_556 S
C604 C605 1.347 . S
C605 H597 0.951 . S
C605 C600 1.429 . S
C605 C604 1.347 . S
H606 C607 0.951 . S
C607 H606 0.951 . S
C607 C613 1.265 . S
H608 C613 0.950 . S
H609 C617 0.949 . S
H610 C618 0.950 . S
H611 C619 0.951 . S
H612 C620 0.951 . S
C613 C607 1.265 . S
C613 H608 0.950 . S
C613 C614 1.478 . S
C614 C613 1.478 . S
C614 C615 1.397 . S
C614 C631 1.394 . S
C615 C614 1.397 . S
C615 C616 1.438 . S
C615 C620 1.429 . S
C616 C615 1.438 . S
C616 C617 1.428 . S
C616 C629 1.394 . S
C617 H609 0.949 . S
C617 C616 1.428 . S
C617 C618 1.345 . S
C618 H610 0.950 . S
C618 C617 1.345 . S
C618 C619 1.424 . S
C619 H611 0.951 . S
C619 C618 1.424 . S
C619 C620 1.347 . S
C620 H612 0.951 . S
C620 C615 1.429 . S
C620 C619 1.347 . S
H621 C622 0.951 . S
C622 H621 0.951 . S
C622 C628 1.265 1_556 S
H623 C628 0.950 . S
H624 C632 0.949 . S
H625 C633 0.950 . S
H626 C634 0.951 . S
H627 C635 0.951 . S
C628 C622 1.265 1_554 S
C628 H623 0.950 . S
C628 C629 1.478 . S
C629 C616 1.394 . S
C629 C628 1.478 . S
C629 C630 1.397 . S
C630 C629 1.397 . S
C630 C631 1.438 . S
C630 C635 1.429 1_554 S
C631 C614 1.394 . S
C631 C630 1.438 . S
C631 C632 1.428 . S
C632 H624 0.949 . S
C632 C631 1.428 . S
C632 C633 1.345 1_554 S
C633 H625 0.950 . S
C633 C632 1.345 1_556 S
C633 C634 1.424 . S
C634 H626 0.951 . S
C634 C633 1.424 . S
C634 C635 1.347 . S
C635 H627 0.951 . S
C635 C630 1.429 1_556 S
C635 C634 1.347 . S
H636 C637 0.951 . S
C637 H636 0.951 . S
C637 C643 1.265 . S
H638 C643 0.950 . S
H639 C647 0.949 . S
H640 C648 0.950 . S
H641 C649 0.951 . S
H642 C650 0.951 . S
C643 C637 1.265 . S
C643 H638 0.950 . S
C643 C644 1.478 . S
C644 C643 1.478 . S
C644 C645 1.397 . S
C644 C661 1.394 . S
C645 C644 1.397 . S
C645 C646 1.438 . S
C645 C650 1.429 . S
C646 C645 1.438 . S
C646 C647 1.428 . S
C646 C659 1.394 . S
C647 H639 0.949 . S
C647 C646 1.428 . S
C647 C648 1.345 . S
C648 H640 0.950 . S
C648 C647 1.345 . S
C648 C649 1.424 . S
C649 H641 0.951 . S
C649 C648 1.424 . S
C649 C650 1.347 . S
C650 H642 0.951 . S
C650 C645 1.429 . S
C650 C649 1.347 . S
H651 C652 0.951 . S
C652 H651 0.951 . S
C652 C658 1.265 . S
H653 C658 0.950 . S
H654 C662 0.949 . S
H655 C663 0.950 . S
H656 C664 0.951 . S
H657 C665 0.951 . S
C658 C652 1.265 . S
C658 H653 0.950 . S
C658 C659 1.478 . S
C659 C646 1.394 . S
C659 C658 1.478 . S
C659 C660 1.397 . S
C660 C659 1.397 . S
C660 C661 1.438 . S
C660 C665 1.429 . S
C661 C644 1.394 . S
C661 C660 1.438 . S
C661 C662 1.428 . S
C662 H654 0.949 . S
C662 C661 1.428 . S
C662 C663 1.345 . S
C663 H655 0.950 . S
C663 C662 1.345 . S
C663 C664 1.424 . S
C664 H656 0.951 . S
C664 C663 1.424 . S
C664 C665 1.347 . S
C665 H657 0.951 . S
C665 C660 1.429 . S
C665 C664 1.347 . S
C127 C16 0.967 . S
C142 C14 0.951 . S
C157 C37 1.000 . S
C172 C35 0.968 . S
C187 C56 1.001 . S
C202 C58 0.989 . S
C217 C77 1.086 . S
C232 C79 1.086 . S
C247 C98 0.974 . S
C262 C100 1.007 1_556 S
C277 C121 0.982 . S
C292 C119 0.990 . S
C307 C13 1.790 . S
C322 C120 1.478 . S
C337 C15 1.520 . S
C352 C34 1.831 . S
C367 C55 1.832 . S
C382 C36 1.453 . S
C397 C76 1.826 . S
C412 C57 1.412 . S
C427 C97 1.790 . S
C442 C78 1.475 . S
C457 C99 1.541 . S
C472 C118 1.806 . S
C487 C17 1.568 . S
C502 C102 1.401 . S
C517 C38 1.443 . S
C532 C123 1.518 . S
C547 C59 1.528 . S
C562 C18 1.400 . S
C577 C80 1.530 . S
C592 C39 1.398 . S
C607 C101 1.452 . S
C622 C60 1.497 . S
C637 C81 1.389 . S
C652 C122 1.539 . S
