# Generated by pormake.
# Topology pcb, (4)-cn, num edge types: 1
# Building blocks:
#     Node 0, Type 0, BuildingBlock: ICAMEG_clean_sbu_1, # of connection points: 4
#     Node 1, Type 0, BuildingBlock: ICAMEG_clean_sbu_1, # of connection points: 4
#     Node 2, Type 0, BuildingBlock: ICAMEG_clean_sbu_1, # of connection points: 4
#     Node 3, Type 0, BuildingBlock: ICAMEG_clean_sbu_1, # of connection points: 4
#     Node 4, Type 0, BuildingBlock: ICAMEG_clean_sbu_1, # of connection points: 4
#     Node 5, Type 0, BuildingBlock: ICAMEG_clean_sbu_1, # of connection points: 4
#     Node 6, Type 0, BuildingBlock: ICAMEG_clean_sbu_1, # of connection points: 4
#     Node 7, Type 0, BuildingBlock: ICAMEG_clean_sbu_1, # of connection points: 4
#     Node 8, Type 0, BuildingBlock: ICAMEG_clean_sbu_1, # of connection points: 4
#     Node 9, Type 0, BuildingBlock: ICAMEG_clean_sbu_1, # of connection points: 4
#     Node 10, Type 0, BuildingBlock: ICAMEG_clean_sbu_1, # of connection points: 4
#     Node 11, Type 0, BuildingBlock: ICAMEG_clean_sbu_1, # of connection points: 4
#     Node 12, Type 0, BuildingBlock: ICAMEG_clean_sbu_1, # of connection points: 4
#     Node 13, Type 0, BuildingBlock: ICAMEG_clean_sbu_1, # of connection points: 4
#     Node 14, Type 0, BuildingBlock: ICAMEG_clean_sbu_1, # of connection points: 4
#     Node 15, Type 0, BuildingBlock: ICAMEG_clean_sbu_1, # of connection points: 4
#     Edge 16, Type (0, 0), BuildingBlock: XIVTED_clean_linker_0, # of connection points: 2
#     Edge 17, Type (0, 0), BuildingBlock: XIVTED_clean_linker_0, # of connection points: 2
#     Edge 18, Type (0, 0), BuildingBlock: XIVTED_clean_linker_0, # of connection points: 2
#     Edge 19, Type (0, 0), BuildingBlock: XIVTED_clean_linker_0, # of connection points: 2
#     Edge 20, Type (0, 0), BuildingBlock: XIVTED_clean_linker_0, # of connection points: 2
#     Edge 21, Type (0, 0), BuildingBlock: XIVTED_clean_linker_0, # of connection points: 2
#     Edge 22, Type (0, 0), BuildingBlock: XIVTED_clean_linker_0, # of connection points: 2
#     Edge 23, Type (0, 0), BuildingBlock: XIVTED_clean_linker_0, # of connection points: 2
#     Edge 24, Type (0, 0), BuildingBlock: XIVTED_clean_linker_0, # of connection points: 2
#     Edge 25, Type (0, 0), BuildingBlock: XIVTED_clean_linker_0, # of connection points: 2
#     Edge 26, Type (0, 0), BuildingBlock: XIVTED_clean_linker_0, # of connection points: 2
#     Edge 27, Type (0, 0), BuildingBlock: XIVTED_clean_linker_0, # of connection points: 2
#     Edge 28, Type (0, 0), BuildingBlock: XIVTED_clean_linker_0, # of connection points: 2
#     Edge 29, Type (0, 0), BuildingBlock: XIVTED_clean_linker_0, # of connection points: 2
#     Edge 30, Type (0, 0), BuildingBlock: XIVTED_clean_linker_0, # of connection points: 2
#     Edge 31, Type (0, 0), BuildingBlock: XIVTED_clean_linker_0, # of connection points: 2
#     Edge 32, Type (0, 0), BuildingBlock: XIVTED_clean_linker_0, # of connection points: 2
#     Edge 33, Type (0, 0), BuildingBlock: XIVTED_clean_linker_0, # of connection points: 2
#     Edge 34, Type (0, 0), BuildingBlock: XIVTED_clean_linker_0, # of connection points: 2
#     Edge 35, Type (0, 0), BuildingBlock: XIVTED_clean_linker_0, # of connection points: 2
#     Edge 36, Type (0, 0), BuildingBlock: XIVTED_clean_linker_0, # of connection points: 2
#     Edge 37, Type (0, 0), BuildingBlock: XIVTED_clean_linker_0, # of connection points: 2
#     Edge 38, Type (0, 0), BuildingBlock: XIVTED_clean_linker_0, # of connection points: 2
#     Edge 39, Type (0, 0), BuildingBlock: XIVTED_clean_linker_0, # of connection points: 2
#     Edge 40, Type (0, 0), BuildingBlock: XIVTED_clean_linker_0, # of connection points: 2
#     Edge 41, Type (0, 0), BuildingBlock: XIVTED_clean_linker_0, # of connection points: 2
#     Edge 42, Type (0, 0), BuildingBlock: XIVTED_clean_linker_0, # of connection points: 2
#     Edge 43, Type (0, 0), BuildingBlock: XIVTED_clean_linker_0, # of connection points: 2
#     Edge 44, Type (0, 0), BuildingBlock: XIVTED_clean_linker_0, # of connection points: 2
#     Edge 45, Type (0, 0), BuildingBlock: XIVTED_clean_linker_0, # of connection points: 2
#     Edge 46, Type (0, 0), BuildingBlock: XIVTED_clean_linker_0, # of connection points: 2
#     Edge 47, Type (0, 0), BuildingBlock: XIVTED_clean_linker_0, # of connection points: 2
# Relax obj value: 0.342
# Max RMSD: 0.267
# Mean RMSD: 0.202
data_MOF--net-pcb--node1-ICAMEG_clean_sbu_1--edge1-XIVTED_clean_linker_0
_symmetry_space_group_name_H-M    P1
_symmetry_Int_Tables_number       1
_symmetry_cell_setting            triclinic
loop_
_symmetry_equiv_pos_as_xyz
'x, y, z'
_cell_length_a     54.771964
_cell_length_b     43.636108
_cell_length_c     44.886056
_cell_angle_alpha  95.26534
_cell_angle_beta   94.070452
_cell_angle_gamma 99.454138
loop_
_atom_site_label
_atom_site_type_symbol
_atom_site_fract_x
_atom_site_fract_y
_atom_site_fract_z
_atom_type_partial_charge
Co0 Co 0.12235 0.12186 0.12547 0.0
Co1 Co 0.1299 0.20133 0.1341 0.0
O2 O 0.13986 0.16226 0.14394 0.0
C3 C 0.11541 0.0874 0.17895 0.0
O4 O 0.09134 0.08421 0.1722 0.0
C5 C 0.18454 0.21027 0.13105 0.0
O6 O 0.18107 0.18407 0.11322 0.0
O7 O 0.13249 0.18945 0.09067 0.0
O8 O 0.11465 0.13899 0.08647 0.0
H9 H 0.08242 0.26825 0.0751 0.0
H10 H 0.17372 0.12707 0.15357 0.0
O11 O 0.13034 0.10386 0.16378 0.0
H12 H 0.17679 0.08579 0.04815 0.0
H13 H 0.10944 0.00468 0.10285 0.0
H14 H 0.07442 0.10007 0.08892 0.0
H15 H 0.13744 0.09671 0.06656 0.0
H16 H 0.13216 0.05632 0.12462 0.0
O17 O 0.16589 0.22157 0.13972 0.0
H18 H 0.09409 0.21875 0.08867 0.0
H19 H 0.14673 0.26818 0.15775 0.0
H20 H 0.05113 0.0489 0.06661 0.0
H21 H 0.21339 0.116 0.13621 0.0
H22 H 0.06864 0.00075 0.07355 0.0
H23 H 0.21513 0.09532 0.08311 0.0
O24 O 0.09113 0.1324 0.14032 0.0
H25 H 0.15827 0.21307 0.24418 0.0
H26 H 0.09181 0.22652 0.16896 0.0
H27 H 0.08765 0.23993 0.22271 0.0
H28 H 0.12109 0.23334 0.26074 0.0
H29 H 0.16158 0.19964 0.19021 0.0
H30 H 0.13575 0.31824 0.1448 0.0
H31 H 0.10331 0.31845 0.10326 0.0
O32 O 0.09356 0.18194 0.12936 0.0
C33 C 0.12237 0.1641 0.0749 0.0
C34 C 0.09652 0.26845 0.0933 0.0
C35 C 0.12648 0.29651 0.13239 0.0
N36 N 0.12093 0.24057 0.12412 0.0
C37 C 0.10316 0.24049 0.10114 0.0
C38 C 0.13266 0.2681 0.13958 0.0
C39 C 0.10827 0.29661 0.10909 0.0
C40 C 0.17424 0.11771 0.13052 0.0
N41 N 0.15323 0.11247 0.11114 0.0
C42 C 0.1968 0.11164 0.12078 0.0
C43 C 0.19777 0.10011 0.09097 0.0
C44 C 0.17627 0.0948 0.07134 0.0
C45 C 0.15405 0.10118 0.08186 0.0
C46 C 0.10164 0.02549 0.09964 0.0
C47 C 0.08219 0.07923 0.09195 0.0
C48 C 0.1144 0.0548 0.11192 0.0
N49 N 0.10465 0.0812 0.10796 0.0
C50 C 0.06891 0.05032 0.07929 0.0
C51 C 0.07874 0.02331 0.0832 0.0
C52 C 0.08147 0.15667 0.13703 0.0
C53 C 0.14361 0.21613 0.22782 0.0
C54 C 0.10641 0.22347 0.18536 0.0
C55 C 0.10397 0.23117 0.21577 0.0
C56 C 0.12273 0.22747 0.2371 0.0
N57 N 0.127 0.21248 0.17642 0.0
C58 C 0.14542 0.20865 0.19721 0.0
Co59 Co 0.8516 0.123 0.17 0.0
Co60 Co 0.87211 0.17641 0.23223 0.0
O61 O 0.8499 0.16091 0.19585 0.0
C62 C 0.85528 0.17134 0.12762 0.0
O63 O 0.87138 0.18928 0.14757 0.0
C64 C 0.82166 0.16854 0.2524 0.0
O65 O 0.81808 0.14076 0.23724 0.0
O66 O 0.8679 0.13436 0.2473 0.0
O67 O 0.85774 0.1005 0.20565 0.0
H68 H 0.94256 0.17574 0.31015 0.0
H69 H 0.80802 0.15461 0.16242 0.0
O70 O 0.8452 0.14437 0.13338 0.0
H71 H 0.77415 0.04834 0.1853 0.0
H72 H 0.82478 0.04213 0.08119 0.0
H73 H 0.88463 0.07562 0.17013 0.0
H74 H 0.81907 0.06406 0.18136 0.0
H75 H 0.82253 0.08986 0.11414 0.0
O76 O 0.84274 0.18629 0.25346 0.0
H77 H 0.91485 0.15587 0.26431 0.0
H78 H 0.87543 0.23133 0.27786 0.0
H79 H 0.88743 0.02759 0.13793 0.0
H80 H 0.76293 0.1398 0.16589 0.0
H81 H 0.85732 0.01053 0.09313 0.0
H82 H 0.74575 0.08636 0.17754 0.0
O83 O 0.88807 0.13619 0.16826 0.0
H84 H 0.84341 0.26771 0.1884 0.0
H85 H 0.91622 0.22438 0.22521 0.0
H86 H 0.92244 0.27588 0.20573 0.0
H87 H 0.88587 0.29789 0.18719 0.0
H88 H 0.83804 0.21617 0.20783 0.0
H89 H 0.90257 0.25191 0.324 0.0
H90 H 0.93649 0.22411 0.34034 0.0
O91 O 0.9016 0.16659 0.21156 0.0
C92 C 0.86312 0.10676 0.23386 0.0
C93 C 0.9279 0.18811 0.30321 0.0
C94 C 0.90543 0.23083 0.31101 0.0
N95 N 0.89368 0.19253 0.26832 0.0
C96 C 0.9122 0.17701 0.27724 0.0
C97 C 0.89009 0.21904 0.28491 0.0
C98 C 0.92446 0.21523 0.32016 0.0
C99 C 0.80063 0.13122 0.16721 0.0
N100 N 0.81613 0.11021 0.17165 0.0
C101 C 0.77511 0.12301 0.16926 0.0
C102 C 0.76549 0.09303 0.17584 0.0
C103 C 0.78141 0.0717 0.18023 0.0
C104 C 0.80684 0.08075 0.17806 0.0
C105 C 0.83797 0.04928 0.10069 0.0
C106 C 0.87139 0.06827 0.15075 0.0
C107 C 0.83683 0.07634 0.11938 0.0
N108 N 0.85332 0.08539 0.14415 0.0
C109 C 0.8731 0.04109 0.13257 0.0
C110 C 0.85623 0.03155 0.10741 0.0
C111 C 0.90538 0.152 0.18675 0.0
C112 C 0.85949 0.25841 0.1965 0.0
C113 C 0.90021 0.23377 0.21712 0.0
C114 C 0.90385 0.26297 0.20617 0.0
C115 C 0.88332 0.27531 0.19579 0.0
N116 N 0.87678 0.21736 0.21781 0.0
C117 C 0.85656 0.22929 0.20764 0.0
Co118 Co 0.87971 0.87048 0.17194 0.0
Co119 Co 0.86427 0.7908 0.16249 0.0
O120 O 0.86008 0.83164 0.18128 0.0
C121 C 0.89634 0.90466 0.23166 0.0
O122 O 0.91925 0.90401 0.22508 0.0
C123 C 0.81018 0.79084 0.15509 0.0
O124 O 0.81551 0.81828 0.14511 0.0
O125 O 0.85957 0.80465 0.12173 0.0
O126 O 0.88121 0.85336 0.12933 0.0
H127 H 0.89807 0.71761 0.08947 0.0
H128 H 0.8326 0.87308 0.20006 0.0
O129 O 0.8783 0.8888 0.21433 0.0
H130 H 0.8221 0.91743 0.10375 0.0
H131 H 0.90168 0.98762 0.17391 0.0
H132 H 0.92507 0.88643 0.14028 0.0
H133 H 0.86101 0.89923 0.1187 0.0
H134 H 0.8766 0.93831 0.18471 0.0
O135 O 0.82752 0.77594 0.16215 0.0
H136 H 0.89331 0.76901 0.11391 0.0
H137 H 0.84245 0.72515 0.17057 0.0
H138 H 0.95061 0.93525 0.12881 0.0
H139 H 0.79354 0.89148 0.18618 0.0
H140 H 0.93896 0.98631 0.14567 0.0
H141 H 0.78806 0.91376 0.13767 0.0
O142 O 0.91065 0.85454 0.18356 0.0
H143 H 0.84391 0.77885 0.26869 0.0
H144 H 0.90147 0.75825 0.19257 0.0
H145 H 0.90826 0.74189 0.24322 0.0
H146 H 0.8793 0.75208 0.28166 0.0
H147 H 0.83793 0.79507 0.21784 0.0
H148 H 0.84652 0.67327 0.1466 0.0
H149 H 0.87458 0.66927 0.10582 0.0
O150 O 0.90118 0.8047 0.16284 0.0
C151 C 0.87062 0.82934 0.112 0.0
C152 C 0.88586 0.71904 0.10729 0.0
C153 C 0.8569 0.69416 0.13932 0.0
N154 N 0.86779 0.75007 0.1438 0.0
C155 C 0.88314 0.74808 0.12127 0.0
C156 C 0.85463 0.7236 0.15276 0.0
C157 C 0.87265 0.69193 0.11645 0.0
C158 C 0.83049 0.88309 0.17907 0.0
N159 N 0.84915 0.88519 0.1603 0.0
C160 C 0.80827 0.89332 0.17126 0.0
C161 C 0.80519 0.90575 0.14401 0.0
C162 C 0.82426 0.90776 0.12495 0.0
C163 C 0.84622 0.89726 0.13348 0.0
C164 C 0.90694 0.96552 0.16639 0.0
C165 C 0.91987 0.90855 0.14768 0.0
C166 C 0.89282 0.93749 0.17247 0.0
N167 N 0.89938 0.90945 0.16318 0.0
C168 C 0.9344 0.93612 0.14112 0.0
C169 C 0.92786 0.96477 0.15057 0.0
C170 C 0.91683 0.82851 0.17459 0.0
C171 C 0.85661 0.7742 0.25211 0.0
C172 C 0.88884 0.76288 0.2092 0.0
C173 C 0.89275 0.7535 0.23783 0.0
C174 C 0.87649 0.75921 0.25938 0.0
N175 N 0.86923 0.77744 0.2022 0.0
C176 C 0.85328 0.78325 0.22325 0.0
Co177 Co 0.14382 0.84132 0.14465 0.0
Co178 Co 0.14757 0.82032 0.21747 0.0
O179 O 0.15557 0.81673 0.17531 0.0
C180 C 0.13673 0.77495 0.11373 0.0
O181 O 0.14591 0.76353 0.13724 0.0
C182 C 0.2023 0.83513 0.2202 0.0
O183 O 0.19945 0.85187 0.19777 0.0
O184 O 0.15399 0.86688 0.22094 0.0
O185 O 0.15102 0.87958 0.1736 0.0
H186 H 0.1061 0.86039 0.30585 0.0
H187 H 0.18399 0.80397 0.13291 0.0
O188 O 0.13555 0.80389 0.11403 0.0
H189 H 0.21958 0.91218 0.11828 0.0
H190 H 0.13387 0.87474 0.04054 0.0
H191 H 0.11233 0.8905 0.14505 0.0
H192 H 0.17664 0.89925 0.13207 0.0
H193 H 0.14942 0.84426 0.07917 0.0
O194 O 0.18338 0.82083 0.23124 0.0
H195 H 0.11614 0.85634 0.25309 0.0
H196 H 0.16301 0.79064 0.27133 0.0
H197 H 0.09667 0.9218 0.10721 0.0
H198 H 0.22679 0.81576 0.11876 0.0
H199 H 0.10741 0.91395 0.05452 0.0
H200 H 0.24496 0.87024 0.11141 0.0
O201 O 0.10931 0.8319 0.1566 0.0
H202 H 0.16743 0.71283 0.19326 0.0
H203 H 0.10568 0.773 0.2323 0.0
H204 H 0.09691 0.71545 0.22862 0.0
H205 H 0.12795 0.68496 0.20908 0.0
H206 H 0.17528 0.77039 0.1969 0.0
H207 H 0.15365 0.79415 0.32436 0.0
H208 H 0.12492 0.82913 0.3419 0.0
O209 O 0.11187 0.82045 0.20453 0.0
C210 C 0.15445 0.88676 0.20186 0.0
C211 C 0.11858 0.84498 0.29847 0.0
C212 C 0.1453 0.80784 0.30886 0.0
N213 N 0.13997 0.82309 0.25908 0.0
C214 C 0.12427 0.84253 0.26859 0.0
C215 C 0.15056 0.80599 0.27882 0.0
C216 C 0.12917 0.82746 0.31868 0.0
C217 C 0.19143 0.82757 0.1292 0.0
N218 N 0.17749 0.8507 0.13276 0.0
C219 C 0.21584 0.83419 0.12142 0.0
C220 C 0.22605 0.86477 0.11738 0.0
C221 C 0.21183 0.8883 0.12125 0.0
C222 C 0.1875 0.88082 0.12907 0.0
C223 C 0.12911 0.87841 0.06344 0.0
C224 C 0.11725 0.88714 0.12222 0.0
C225 C 0.1378 0.86116 0.0854 0.0
N226 N 0.13194 0.86577 0.1144 0.0
C227 C 0.10826 0.90485 0.10087 0.0
C228 C 0.11427 0.90042 0.0713 0.0
C229 C 0.0995 0.82489 0.18057 0.0
C230 C 0.15378 0.72585 0.20186 0.0
C231 C 0.11919 0.7599 0.22352 0.0
C232 C 0.11417 0.72731 0.22163 0.0
C233 C 0.13161 0.71023 0.2107 0.0
N234 N 0.14098 0.77505 0.21481 0.0
C235 C 0.15817 0.75846 0.2041 0.0
Co236 Co 0.13143 0.81818 0.88275 0.0
Co237 Co 0.12551 0.75006 0.8371 0.0
O238 O 0.14289 0.79268 0.85026 0.0
C239 C 0.13804 0.86334 0.83691 0.0
O240 O 0.12467 0.84204 0.81707 0.0
C241 C 0.17871 0.7437 0.84396 0.0
O242 O 0.18081 0.76075 0.86997 0.0
O243 O 0.13002 0.73838 0.8788 0.0
O244 O 0.11953 0.78061 0.90353 0.0
H245 H 0.06406 0.65254 0.84435 0.0
H246 H 0.18323 0.83501 0.86724 0.0
O247 O 0.14305 0.85698 0.86353 0.0
H248 H 0.19016 0.81448 0.97347 0.0
H249 H 0.13734 0.91203 0.95884 0.0
H250 H 0.08594 0.81223 0.91544 0.0
H251 H 0.14907 0.81035 0.94573 0.0
H252 H 0.15182 0.8795 0.91813 0.0
O253 O 0.1579 0.73719 0.82824 0.0
H254 H 0.08545 0.70652 0.85999 0.0
H255 H 0.13015 0.70242 0.78666 0.0
H256 H 0.07084 0.84392 0.95628 0.0
H257 H 0.22474 0.83987 0.89428 0.0
H258 H 0.09666 0.89416 0.97834 0.0
H259 H 0.22837 0.82943 0.94776 0.0
O260 O 0.09843 0.81318 0.85989 0.0
H261 H 0.15405 0.79985 0.74618 0.0
H262 H 0.0828 0.74166 0.7901 0.0
H263 H 0.07708 0.7575 0.73909 0.0
H264 H 0.11288 0.78676 0.71677 0.0
H265 H 0.1589 0.7838 0.79725 0.0
H266 H 0.10941 0.64831 0.77038 0.0
H267 H 0.07603 0.62306 0.79925 0.0
O268 O 0.09223 0.76176 0.84497 0.0
C269 C 0.12349 0.75259 0.90218 0.0
C270 C 0.07853 0.66332 0.83154 0.0
C271 C 0.104 0.66092 0.79005 0.0
N272 N 0.10891 0.70767 0.82416 0.0
C273 C 0.09066 0.6939 0.84025 0.0
C274 C 0.11573 0.69154 0.79943 0.0
C275 C 0.08527 0.64678 0.80625 0.0
C276 C 0.18469 0.83079 0.8906 0.0
N277 N 0.16376 0.82248 0.90488 0.0
C278 C 0.20823 0.83343 0.90576 0.0
C279 C 0.21025 0.82752 0.93574 0.0
C280 C 0.18882 0.8191 0.95018 0.0
C281 C 0.1656 0.81669 0.93431 0.0
C282 C 0.12594 0.89015 0.94945 0.0
C283 C 0.09731 0.83403 0.92495 0.0
C284 C 0.13401 0.87167 0.92633 0.0
N285 N 0.11982 0.84387 0.91455 0.0
C286 C 0.08864 0.85191 0.94804 0.0
C287 C 0.10312 0.88011 0.96039 0.0
C288 C 0.0844 0.78772 0.84911 0.0
C289 C 0.13832 0.78705 0.75563 0.0
C290 C 0.09846 0.75448 0.7806 0.0
C291 C 0.09511 0.76332 0.75167 0.0
C292 C 0.11521 0.77972 0.73915 0.0
N293 N 0.12121 0.7617 0.7966 0.0
C294 C 0.14098 0.7778 0.78449 0.0
Co295 Co 0.10459 0.12409 0.78794 0.0
Co296 Co 0.13687 0.19881 0.80629 0.0
O297 O 0.1341 0.15599 0.78688 0.0
C298 C 0.14179 0.08685 0.81118 0.0
O299 O 0.14907 0.10837 0.83391 0.0
C300 C 0.15409 0.20733 0.74498 0.0
O301 O 0.13643 0.18463 0.73292 0.0
O302 O 0.1047 0.20376 0.7848 0.0
O303 O 0.08229 0.15574 0.78438 0.0
H304 H 0.10582 0.28811 0.86168 0.0
H305 H 0.14127 0.11459 0.74416 0.0
O306 O 0.12568 0.09091 0.79072 0.0
H307 H 0.06188 0.10891 0.68309 0.0
H308 H 0.05191 0.01754 0.76248 0.0
H309 H 0.0584 0.12141 0.8189 0.0
H310 H 0.064 0.11721 0.73835 0.0
H311 H 0.08851 0.05825 0.76016 0.0
O312 O 0.15589 0.21573 0.77308 0.0
H313 H 0.10278 0.23433 0.83769 0.0
H314 H 0.17749 0.25444 0.81573 0.0
H315 H 0.02134 0.08147 0.82159 0.0
H316 H 0.13999 0.10575 0.68895 0.0
H317 H 0.01794 0.02908 0.79327 0.0
H318 H 0.10009 0.10302 0.65802 0.0
O319 O 0.10664 0.13172 0.83276 0.0
H320 H 0.22096 0.16684 0.81471 0.0
H321 H 0.15851 0.21212 0.87009 0.0
H322 H 0.19736 0.20462 0.89743 0.0
H323 H 0.22896 0.1819 0.86969 0.0
H324 H 0.18172 0.17446 0.78829 0.0
H325 H 0.18128 0.30851 0.83929 0.0
H326 H 0.14529 0.32564 0.86257 0.0
O327 O 0.11884 0.18363 0.84069 0.0
C328 C 0.08408 0.18471 0.78098 0.0
C329 C 0.12163 0.28093 0.85161 0.0
C330 C 0.16397 0.29239 0.839 0.0
N331 N 0.13991 0.24124 0.82525 0.0
C332 C 0.12003 0.25049 0.838 0.0
C333 C 0.16168 0.26177 0.82558 0.0
C334 C 0.14378 0.30198 0.85209 0.0
C335 C 0.12381 0.11325 0.73085 0.0
N336 N 0.10276 0.11673 0.74446 0.0
C337 C 0.12322 0.10831 0.6996 0.0
C338 C 0.10084 0.10683 0.68226 0.0
C339 C 0.07941 0.1102 0.69631 0.0
C340 C 0.08073 0.11515 0.72761 0.0
C341 C 0.05316 0.04029 0.77489 0.0
C342 C 0.05698 0.09874 0.80635 0.0
C343 C 0.07387 0.06342 0.77373 0.0
N344 N 0.07553 0.09227 0.78924 0.0
C345 C 0.03598 0.07619 0.80803 0.0
C346 C 0.0341 0.04679 0.79216 0.0
C347 C 0.11085 0.15737 0.84991 0.0
C348 C 0.20736 0.17683 0.82703 0.0
C349 C 0.1721 0.2021 0.85786 0.0
C350 C 0.19411 0.19798 0.87346 0.0
C351 C 0.21183 0.18525 0.85789 0.0
N352 N 0.16787 0.19386 0.82757 0.0
C353 C 0.18514 0.18129 0.81217 0.0
Co354 Co 0.89783 0.22363 0.87394 0.0
Co355 Co 0.86146 0.20314 0.8062 0.0
O356 O 0.86902 0.2266 0.84637 0.0
C357 C 0.85733 0.20535 0.91313 0.0
O358 O 0.846 0.18454 0.89144 0.0
C359 C 0.85497 0.26917 0.7977 0.0
O360 O 0.8688 0.27996 0.82267 0.0
O361 O 0.89643 0.21558 0.79574 0.0
O362 O 0.9195 0.2243 0.84016 0.0
H363 H 0.87633 0.12747 0.72084 0.0
H364 H 0.86812 0.27306 0.8886 0.0
O365 O 0.8772 0.22344 0.90892 0.0
H366 H 0.95294 0.32896 0.88087 0.0
H367 H 0.95325 0.2488 0.97057 0.0
H368 H 0.93897 0.18737 0.87119 0.0
H369 H 0.94352 0.27139 0.8735 0.0
H370 H 0.91747 0.25311 0.93559 0.0
O371 O 0.85166 0.24028 0.78823 0.0
H372 H 0.88528 0.1573 0.7709 0.0
H373 H 0.82117 0.199 0.75664 0.0
H374 H 0.97514 0.18259 0.90537 0.0
H375 H 0.87679 0.33063 0.89684 0.0
H376 H 0.98245 0.21344 0.95548 0.0
H377 H 0.91943 0.35897 0.89276 0.0
O378 O 0.89024 0.1769 0.86819 0.0
H379 H 0.78174 0.22139 0.84834 0.0
H380 H 0.82557 0.143 0.79978 0.0
H381 H 0.78294 0.12677 0.81343 0.0
H382 H 0.76066 0.16614 0.8378 0.0
H383 H 0.82448 0.23651 0.83471 0.0
H384 H 0.81166 0.16982 0.70634 0.0
H385 H 0.83929 0.13365 0.68817 0.0
O386 O 0.87001 0.16496 0.82231 0.0
C387 C 0.9173 0.22207 0.81156 0.0
C388 C 0.86414 0.14314 0.72851 0.0
C389 C 0.82786 0.16694 0.72036 0.0
N390 N 0.85379 0.17986 0.76672 0.0
C391 C 0.8691 0.16007 0.75685 0.0
C392 C 0.83341 0.1835 0.74883 0.0
C393 C 0.84336 0.14663 0.71019 0.0
C394 C 0.88676 0.28523 0.88701 0.0
N395 N 0.90523 0.26891 0.88012 0.0
C396 C 0.89154 0.31783 0.89159 0.0
C397 C 0.91545 0.33372 0.88926 0.0
C398 C 0.93425 0.3169 0.8825 0.0
C399 C 0.92877 0.28431 0.87805 0.0
C400 C 0.95029 0.23528 0.94878 0.0
C401 C 0.94213 0.20103 0.89287 0.0
C402 C 0.93002 0.23756 0.9289 0.0
N403 N 0.92623 0.22066 0.90127 0.0
C404 C 0.96259 0.19815 0.91217 0.0
C405 C 0.96667 0.21544 0.94029 0.0
C406 C 0.87975 0.15715 0.84644 0.0
C407 C 0.79121 0.20404 0.83763 0.0
C408 C 0.81609 0.16025 0.81049 0.0
C409 C 0.7919 0.15093 0.8181 0.0
C410 C 0.77941 0.17303 0.83175 0.0
N411 N 0.82753 0.19075 0.81617 0.0
C412 C 0.81541 0.2125 0.8297 0.0
Co413 Co 0.89887 0.8816 0.8417 0.0
Co414 Co 0.85649 0.81189 0.8307 0.0
O415 O 0.86678 0.8565 0.82439 0.0
C416 C 0.86226 0.92652 0.85018 0.0
O417 O 0.84289 0.90545 0.83975 0.0
C418 C 0.83984 0.81599 0.76525 0.0
O419 O 0.85166 0.84478 0.76625 0.0
O420 O 0.88858 0.80125 0.81774 0.0
O421 O 0.91574 0.84538 0.83262 0.0
H422 H 0.86866 0.71076 0.87001 0.0
H423 H 0.86937 0.90522 0.79306 0.0
O424 O 0.88398 0.91975 0.85179 0.0
H425 H 0.95128 0.90154 0.75545 0.0
H426 H 0.96536 0.97757 0.86179 0.0
H427 H 0.94012 0.86819 0.882 0.0
H428 H 0.94262 0.88582 0.8055 0.0
H429 H 0.92542 0.94694 0.83919 0.0
O430 O 0.84093 0.80084 0.78814 0.0
H431 H 0.88062 0.76609 0.86168 0.0
H432 H 0.8108 0.76402 0.81314 0.0
H433 H 0.98036 0.89791 0.90481 0.0
H434 H 0.87735 0.92175 0.74319 0.0
H435 H 0.9932 0.95301 0.89475 0.0
H436 H 0.91854 0.91983 0.72394 0.0
O437 O 0.89224 0.86908 0.8822 0.0
H438 H 0.77937 0.86082 0.82335 0.0
H439 H 0.82707 0.79739 0.88258 0.0
H440 H 0.78783 0.80997 0.8998 0.0
H441 H 0.76358 0.84176 0.87002 0.0
H442 H 0.81887 0.8482 0.80726 0.0
H443 H 0.79818 0.7086 0.82073 0.0
H444 H 0.82717 0.68162 0.84945 0.0
O445 O 0.87087 0.82028 0.8734 0.0
C446 C 0.9106 0.81679 0.8221 0.0
C447 C 0.85585 0.72226 0.85749 0.0
C448 C 0.81631 0.72104 0.8298 0.0
N449 N 0.84643 0.76834 0.83701 0.0
C450 C 0.86251 0.75361 0.85274 0.0
C451 C 0.82361 0.75241 0.82549 0.0
C452 C 0.83258 0.70593 0.84593 0.0
C453 C 0.8874 0.90461 0.78511 0.0
N454 N 0.90545 0.89445 0.80227 0.0
C455 C 0.89179 0.91386 0.75671 0.0
C456 C 0.91488 0.91273 0.7459 0.0
C457 C 0.93324 0.90243 0.76354 0.0
C458 C 0.92816 0.89335 0.7918 0.0
C459 C 0.95999 0.95356 0.86631 0.0
C460 C 0.94565 0.8921 0.87736 0.0
C461 C 0.93735 0.93611 0.85364 0.0
N462 N 0.93051 0.90569 0.85909 0.0
C463 C 0.96843 0.90884 0.89041 0.0
C464 C 0.97561 0.93976 0.88478 0.0
C465 C 0.88233 0.84343 0.89113 0.0
C466 C 0.78969 0.84679 0.83644 0.0
C467 C 0.81675 0.81139 0.86953 0.0
C468 C 0.79448 0.81835 0.87937 0.0
C469 C 0.78087 0.83616 0.86265 0.0
N470 N 0.82526 0.82174 0.84367 0.0
C471 C 0.81205 0.83935 0.82729 0.0
Co472 Co 0.62649 0.62849 0.62906 0.0
Co473 Co 0.63305 0.70797 0.63817 0.0
O474 O 0.64379 0.66908 0.64765 0.0
C475 C 0.62046 0.59283 0.68179 0.0
O476 O 0.59635 0.59021 0.67582 0.0
C477 C 0.68765 0.71839 0.6346 0.0
O478 O 0.68459 0.69149 0.61794 0.0
O479 O 0.63541 0.69645 0.59462 0.0
O480 O 0.61795 0.6459 0.5905 0.0
H481 H 0.5836 0.77366 0.58021 0.0
H482 H 0.67817 0.6338 0.65612 0.0
O483 O 0.6352 0.60992 0.66687 0.0
H484 H 0.68022 0.59456 0.54992 0.0
H485 H 0.61462 0.51155 0.60464 0.0
H486 H 0.57813 0.60639 0.59352 0.0
H487 H 0.64103 0.60473 0.56934 0.0
H488 H 0.63714 0.56319 0.62664 0.0
O489 O 0.6688 0.72927 0.64318 0.0
H490 H 0.59634 0.72458 0.59335 0.0
H491 H 0.64894 0.77493 0.66201 0.0
H492 H 0.55503 0.55521 0.571 0.0
H493 H 0.71768 0.62338 0.63776 0.0
H494 H 0.57327 0.50733 0.57653 0.0
H495 H 0.71891 0.60375 0.58426 0.0
O496 O 0.59539 0.63828 0.64477 0.0
H497 H 0.66269 0.71985 0.74787 0.0
H498 H 0.59487 0.73189 0.67387 0.0
H499 H 0.59117 0.74486 0.7278 0.0
H500 H 0.62528 0.73897 0.76522 0.0
H501 H 0.66553 0.70684 0.69372 0.0
H502 H 0.63689 0.82458 0.64947 0.0
H503 H 0.60393 0.82412 0.60837 0.0
O504 O 0.59687 0.68773 0.63393 0.0
C505 C 0.62537 0.67106 0.57889 0.0
C506 C 0.59793 0.77415 0.59823 0.0
C507 C 0.62786 0.80274 0.63707 0.0
N508 N 0.62322 0.74688 0.62856 0.0
C509 C 0.60517 0.74643 0.60582 0.0
C510 C 0.63464 0.77456 0.64402 0.0
C511 C 0.60936 0.80246 0.61402 0.0
C512 C 0.67847 0.62489 0.6329 0.0
N513 N 0.65727 0.61984 0.61386 0.0
C514 C 0.70094 0.61919 0.62259 0.0
C515 C 0.70162 0.60824 0.59256 0.0
C516 C 0.67993 0.60313 0.57327 0.0
C517 C 0.65781 0.6091 0.58437 0.0
C518 C 0.60649 0.53225 0.60205 0.0
C519 C 0.58622 0.58567 0.59595 0.0
C520 C 0.61914 0.56156 0.61447 0.0
N521 N 0.60897 0.58781 0.61132 0.0
C522 C 0.57304 0.55675 0.58317 0.0
C523 C 0.58329 0.52989 0.58629 0.0
C524 C 0.58528 0.66225 0.64178 0.0
C525 C 0.64773 0.72259 0.73177 0.0
C526 C 0.60976 0.72914 0.69 0.0
C527 C 0.60758 0.73659 0.72052 0.0
C528 C 0.62673 0.73329 0.7415 0.0
N529 N 0.63047 0.71878 0.68062 0.0
C530 C 0.64927 0.71535 0.70107 0.0
Co531 Co 0.35453 0.62407 0.67332 0.0
Co532 Co 0.37517 0.68018 0.73348 0.0
O533 O 0.35284 0.663 0.69759 0.0
C534 C 0.35785 0.67051 0.62911 0.0
O535 O 0.37374 0.68924 0.6487 0.0
C536 C 0.32504 0.6721 0.75411 0.0
O537 O 0.32183 0.64402 0.73962 0.0
O538 O 0.37146 0.63907 0.75031 0.0
O539 O 0.36065 0.60336 0.71013 0.0
H540 H 0.44622 0.68343 0.81162 0.0
H541 H 0.31089 0.6552 0.66378 0.0
O542 O 0.34809 0.64369 0.63561 0.0
H543 H 0.27718 0.55092 0.6918 0.0
H544 H 0.32717 0.53907 0.58809 0.0
H545 H 0.38742 0.57665 0.67594 0.0
H546 H 0.32207 0.5662 0.68747 0.0
H547 H 0.32543 0.58861 0.61849 0.0
O548 O 0.34582 0.69035 0.7545 0.0
H549 H 0.41831 0.66145 0.76647 0.0
H550 H 0.37832 0.73671 0.77708 0.0
H551 H 0.38963 0.52678 0.64639 0.0
H552 H 0.26582 0.6408 0.66761 0.0
H553 H 0.35932 0.50766 0.60217 0.0
H554 H 0.24872 0.58836 0.68183 0.0
O555 O 0.39099 0.63703 0.67124 0.0
H556 H 0.34503 0.7687 0.68615 0.0
H557 H 0.41875 0.72808 0.72439 0.0
H558 H 0.42423 0.7785 0.70283 0.0
H559 H 0.38719 0.79915 0.68356 0.0
H560 H 0.34041 0.71825 0.70766 0.0
H561 H 0.40566 0.75939 0.82251 0.0
H562 H 0.43997 0.73276 0.83997 0.0
O563 O 0.40462 0.66995 0.71301 0.0
C564 C 0.36631 0.61099 0.73812 0.0
C565 C 0.4314 0.69531 0.80418 0.0
C566 C 0.40861 0.73792 0.81031 0.0
N567 N 0.39687 0.69793 0.76902 0.0
C568 C 0.41559 0.68303 0.77857 0.0
C569 C 0.39316 0.72494 0.78462 0.0
C570 C 0.42786 0.72297 0.82009 0.0
C571 C 0.30354 0.63223 0.66967 0.0
N572 N 0.31907 0.61154 0.67529 0.0
C573 C 0.27803 0.62425 0.67192 0.0
C574 C 0.26845 0.59484 0.67995 0.0
C575 C 0.2844 0.57383 0.68557 0.0
C576 C 0.30981 0.58264 0.68314 0.0
C577 C 0.34046 0.54713 0.60735 0.0
C578 C 0.37411 0.56842 0.65677 0.0
C579 C 0.33962 0.57522 0.62458 0.0
N580 N 0.3562 0.58539 0.64909 0.0
C581 C 0.3755 0.54021 0.64009 0.0
C582 C 0.35849 0.52951 0.61526 0.0
C583 C 0.40831 0.65406 0.68888 0.0
C584 C 0.3613 0.76 0.69456 0.0
C585 C 0.40254 0.73687 0.71599 0.0
C586 C 0.40576 0.76547 0.70386 0.0
C587 C 0.38497 0.77705 0.69307 0.0
N588 N 0.37927 0.72032 0.71742 0.0
C589 C 0.3588 0.73151 0.70687 0.0
Co590 Co 0.38736 0.38629 0.67009 0.0
Co591 Co 0.36373 0.30857 0.66691 0.0
O592 O 0.36377 0.35214 0.68227 0.0
C593 C 0.38067 0.40541 0.73541 0.0
O594 O 0.36621 0.37895 0.73829 0.0
C595 C 0.30935 0.28579 0.65113 0.0
O596 O 0.31439 0.27423 0.62464 0.0
O597 O 0.3588 0.31934 0.62491 0.0
O598 O 0.38596 0.36419 0.6288 0.0
H599 H 0.38597 0.22245 0.59734 0.0
H600 H 0.34021 0.39823 0.69493 0.0
O601 O 0.38998 0.41038 0.71074 0.0
H602 H 0.34092 0.44277 0.59796 0.0
H603 H 0.42575 0.49882 0.66574 0.0
H604 H 0.43152 0.38894 0.6352 0.0
H605 H 0.37499 0.41646 0.61529 0.0
H606 H 0.39501 0.45605 0.68013 0.0
O607 O 0.3268 0.30068 0.66991 0.0
H608 H 0.38664 0.27711 0.6175 0.0
H609 H 0.33887 0.24694 0.6835 0.0
H610 H 0.46247 0.43103 0.62003 0.0
H611 H 0.30596 0.42462 0.67864 0.0
H612 H 0.45968 0.48644 0.6353 0.0
H613 H 0.30618 0.44727 0.62986 0.0
O614 O 0.41506 0.36566 0.68389 0.0
H615 H 0.34594 0.30845 0.77534 0.0
H616 H 0.3991 0.27473 0.69893 0.0
H617 H 0.40629 0.26252 0.751 0.0
H618 H 0.37955 0.27931 0.78963 0.0
H619 H 0.3396 0.3206 0.72312 0.0
H620 H 0.3377 0.19193 0.66406 0.0
H621 H 0.36137 0.1794 0.62066 0.0
O622 O 0.40085 0.31625 0.66428 0.0
C623 C 0.37223 0.34099 0.61317 0.0
C624 C 0.37559 0.22761 0.61626 0.0
C625 C 0.3485 0.21048 0.65371 0.0
N626 N 0.36284 0.26523 0.65166 0.0
C627 C 0.3759 0.25852 0.62778 0.0
C628 C 0.34925 0.24167 0.66463 0.0
C629 C 0.36178 0.20347 0.62936 0.0
C630 C 0.34069 0.40826 0.67388 0.0
N631 N 0.35997 0.40634 0.65648 0.0
C632 C 0.3211 0.42305 0.66465 0.0
C633 C 0.3212 0.43569 0.63726 0.0
C634 C 0.34068 0.43317 0.61936 0.0
C635 C 0.35993 0.41819 0.6293 0.0
C636 C 0.42711 0.47477 0.65887 0.0
C637 C 0.4301 0.41299 0.6418 0.0
C638 C 0.40982 0.45043 0.66704 0.0
N639 N 0.41136 0.41998 0.65833 0.0
C640 C 0.44771 0.43673 0.6332 0.0
C641 C 0.44615 0.46781 0.6418 0.0
C642 C 0.41846 0.33811 0.67552 0.0
C643 C 0.35772 0.30101 0.75872 0.0
C644 C 0.38755 0.28247 0.71564 0.0
C645 C 0.39163 0.27531 0.74507 0.0
C646 C 0.37659 0.28469 0.76673 0.0
N647 N 0.36901 0.29854 0.70794 0.0
C648 C 0.35418 0.30774 0.72905 0.0
Co649 Co 0.64266 0.33962 0.63962 0.0
Co650 Co 0.64713 0.32041 0.71306 0.0
O651 O 0.65483 0.31585 0.67081 0.0
C652 C 0.63547 0.27269 0.61007 0.0
O653 O 0.64491 0.26181 0.63376 0.0
C654 C 0.70199 0.33484 0.71572 0.0
O655 O 0.69947 0.3507 0.69257 0.0
O656 O 0.65366 0.36693 0.71547 0.0
O657 O 0.65006 0.37852 0.66778 0.0
H658 H 0.60631 0.36291 0.80093 0.0
H659 H 0.68283 0.30215 0.62841 0.0
O660 O 0.63422 0.30154 0.60978 0.0
H661 H 0.71785 0.40964 0.61072 0.0
H662 H 0.63149 0.37018 0.53453 0.0
H663 H 0.61102 0.38862 0.63921 0.0
H664 H 0.67511 0.39706 0.62526 0.0
H665 H 0.64761 0.34091 0.57384 0.0
O666 O 0.68291 0.32109 0.72684 0.0
H667 H 0.61605 0.35748 0.74809 0.0
H668 H 0.66271 0.29192 0.76764 0.0
H669 H 0.59479 0.41872 0.60068 0.0
H670 H 0.72543 0.31358 0.61352 0.0
H671 H 0.60498 0.40951 0.54789 0.0
H672 H 0.74331 0.36771 0.60462 0.0
O673 O 0.60824 0.33047 0.65205 0.0
H674 H 0.66674 0.2125 0.69092 0.0
H675 H 0.60534 0.27369 0.72919 0.0
H676 H 0.59654 0.21621 0.72676 0.0
H677 H 0.62741 0.18522 0.70761 0.0
H678 H 0.67463 0.27001 0.69332 0.0
H679 H 0.65365 0.29681 0.82076 0.0
H680 H 0.62518 0.33242 0.83768 0.0
O681 O 0.61143 0.32029 0.7003 0.0
C682 C 0.65389 0.38635 0.69595 0.0
C683 C 0.61868 0.34724 0.79381 0.0
C684 C 0.64528 0.31017 0.80495 0.0
N685 N 0.63975 0.32422 0.75474 0.0
C686 C 0.6242 0.344 0.7639 0.0
C687 C 0.65037 0.30754 0.77486 0.0
C688 C 0.62929 0.33015 0.81442 0.0
C689 C 0.69015 0.32559 0.62405 0.0
N690 N 0.67617 0.34871 0.62719 0.0
C691 C 0.71445 0.33201 0.61585 0.0
C692 C 0.7245 0.36239 0.61094 0.0
C693 C 0.71023 0.38592 0.61437 0.0
C694 C 0.68602 0.37863 0.62264 0.0
C695 C 0.62697 0.37444 0.55747 0.0
C696 C 0.61571 0.38468 0.61634 0.0
C697 C 0.63598 0.35788 0.57981 0.0
N698 N 0.63042 0.36323 0.60886 0.0
C699 C 0.6064 0.40171 0.5946 0.0
C700 C 0.6121 0.39652 0.56498 0.0
C701 C 0.59874 0.32403 0.67635 0.0
C702 C 0.65316 0.22575 0.69936 0.0
C703 C 0.61877 0.26037 0.72058 0.0
C704 C 0.61374 0.22783 0.71939 0.0
C705 C 0.63107 0.21045 0.70868 0.0
N706 N 0.64049 0.2752 0.71139 0.0
C707 C 0.65758 0.25833 0.70089 0.0
Co708 Co 0.62862 0.31917 0.38051 0.0
Co709 Co 0.62276 0.25187 0.33371 0.0
O710 O 0.6401 0.29437 0.34749 0.0
C711 C 0.63506 0.36572 0.3359 0.0
O712 O 0.62154 0.34496 0.31569 0.0
C713 C 0.676 0.24511 0.33999 0.0
O714 O 0.67823 0.26165 0.36628 0.0
O715 O 0.62751 0.23945 0.37513 0.0
O716 O 0.61669 0.28106 0.40051 0.0
H717 H 0.56152 0.15388 0.33985 0.0
H718 H 0.68043 0.33639 0.36516 0.0
O719 O 0.64026 0.35853 0.36216 0.0
H720 H 0.68734 0.31346 0.47069 0.0
H721 H 0.63469 0.4113 0.45866 0.0
H722 H 0.58312 0.31243 0.41321 0.0
H723 H 0.64626 0.30996 0.44313 0.0
H724 H 0.64906 0.37979 0.41711 0.0
O725 O 0.65516 0.23917 0.32428 0.0
H726 H 0.58289 0.20772 0.35621 0.0
H727 H 0.62722 0.20511 0.28242 0.0
H728 H 0.56813 0.34311 0.45487 0.0
H729 H 0.72193 0.34065 0.39205 0.0
H730 H 0.59405 0.39287 0.47799 0.0
H731 H 0.72556 0.32899 0.44516 0.0
O732 O 0.5956 0.31459 0.35775 0.0
H733 H 0.65084 0.30359 0.24362 0.0
H734 H 0.57988 0.24413 0.28701 0.0
H735 H 0.57393 0.26096 0.23643 0.0
H736 H 0.60958 0.29085 0.21438 0.0
H737 H 0.65592 0.28653 0.29426 0.0
H738 H 0.6065 0.15115 0.26542 0.0
H739 H 0.57331 0.12523 0.29415 0.0
O740 O 0.58944 0.26334 0.34207 0.0
C741 C 0.62094 0.25316 0.39875 0.0
C742 C 0.57591 0.16496 0.3271 0.0
C743 C 0.60117 0.1634 0.28535 0.0
N744 N 0.60617 0.2096 0.32019 0.0
C745 C 0.58803 0.19546 0.33621 0.0
C746 C 0.61289 0.19393 0.29513 0.0
C747 C 0.58255 0.14888 0.30147 0.0
C748 C 0.68188 0.33164 0.38837 0.0
N749 N 0.66095 0.32301 0.40255 0.0
C750 C 0.70542 0.33394 0.40344 0.0
C751 C 0.70744 0.32735 0.43323 0.0
C752 C 0.68601 0.31861 0.44755 0.0
C753 C 0.66279 0.31656 0.43178 0.0
C754 C 0.62326 0.38963 0.44882 0.0
C755 C 0.59452 0.33404 0.42316 0.0
C756 C 0.63126 0.37172 0.42522 0.0
N757 N 0.61702 0.34417 0.41287 0.0
C758 C 0.58592 0.35134 0.44672 0.0
C759 C 0.60045 0.37927 0.45965 0.0
C760 C 0.58156 0.28923 0.34669 0.0
C761 C 0.63518 0.29051 0.25295 0.0
C762 C 0.59548 0.25722 0.27762 0.0
C763 C 0.592 0.26663 0.24894 0.0
C764 C 0.61202 0.28339 0.23657 0.0
N765 N 0.61827 0.26425 0.29353 0.0
C766 C 0.63796 0.2807 0.28157 0.0
Co767 Co 0.6051 0.63105 0.2925 0.0
Co768 Co 0.64145 0.70425 0.30792 0.0
O769 O 0.63561 0.66073 0.28935 0.0
C770 C 0.64049 0.5912 0.31582 0.0
O771 O 0.64876 0.61247 0.33848 0.0
C772 C 0.65553 0.70838 0.24484 0.0
O773 O 0.63823 0.6843 0.23525 0.0
O774 O 0.60884 0.71143 0.28944 0.0
O775 O 0.58451 0.66448 0.28843 0.0
H776 H 0.61878 0.79792 0.36621 0.0
H777 H 0.63968 0.61609 0.24766 0.0
O778 O 0.62449 0.59619 0.29568 0.0
H779 H 0.55965 0.61392 0.18911 0.0
H780 H 0.5478 0.5271 0.27243 0.0
H781 H 0.56011 0.63353 0.32497 0.0
H782 H 0.56359 0.62501 0.24427 0.0
H783 H 0.58567 0.56489 0.26756 0.0
O784 O 0.65844 0.7191 0.27243 0.0
H785 H 0.61188 0.74344 0.34295 0.0
H786 H 0.68407 0.75734 0.31224 0.0
H787 H 0.52182 0.59655 0.3302 0.0
H788 H 0.63652 0.60423 0.19259 0.0
H789 H 0.51549 0.54289 0.30384 0.0
H790 H 0.59631 0.6033 0.1629 0.0
O791 O 0.60839 0.64047 0.33725 0.0
H792 H 0.72308 0.6658 0.30838 0.0
H793 H 0.6673 0.7174 0.36976 0.0
H794 H 0.70689 0.70764 0.39344 0.0
H795 H 0.73515 0.68175 0.36267 0.0
H796 H 0.68319 0.67575 0.28564 0.0
H797 H 0.69168 0.81203 0.335 0.0
H798 H 0.65892 0.83264 0.3623 0.0
O799 O 0.62543 0.69125 0.3443 0.0
C800 C 0.58763 0.69366 0.28563 0.0
C801 C 0.6332 0.78922 0.35438 0.0
C802 C 0.6741 0.79715 0.33683 0.0
N803 N 0.64751 0.74719 0.32621 0.0
C804 C 0.6294 0.75838 0.34117 0.0
C805 C 0.66964 0.76618 0.32388 0.0
C806 C 0.65572 0.80869 0.35216 0.0
C807 C 0.62208 0.61554 0.23491 0.0
N808 N 0.60191 0.62172 0.24913 0.0
C809 C 0.62043 0.60889 0.20372 0.0
C810 C 0.59788 0.60843 0.18708 0.0
C811 C 0.57732 0.61447 0.20176 0.0
C812 C 0.5797 0.62106 0.23298 0.0
C813 C 0.55033 0.55043 0.284 0.0
C814 C 0.55741 0.61029 0.31326 0.0
C815 C 0.57177 0.57192 0.28139 0.0
N816 N 0.57504 0.60148 0.29582 0.0
C817 C 0.53573 0.58942 0.31638 0.0
C818 C 0.5322 0.55931 0.30161 0.0
C819 C 0.61532 0.66613 0.35404 0.0
C820 C 0.71097 0.67719 0.322 0.0
C821 C 0.67943 0.70604 0.35621 0.0
C822 C 0.70187 0.70063 0.36975 0.0
C823 C 0.71771 0.68611 0.35247 0.0
N824 N 0.67299 0.69734 0.32627 0.0
C825 C 0.68839 0.68299 0.30922 0.0
Co826 Co 0.40009 0.73258 0.37843 0.0
Co827 Co 0.36747 0.70665 0.30938 0.0
O828 O 0.37143 0.73074 0.34919 0.0
C829 C 0.35966 0.7101 0.41604 0.0
O830 O 0.35067 0.68779 0.39452 0.0
C831 C 0.35718 0.77004 0.29843 0.0
O832 O 0.37356 0.78261 0.32073 0.0
O833 O 0.40175 0.72511 0.3005 0.0
O834 O 0.42312 0.73482 0.34593 0.0
H835 H 0.39299 0.63635 0.22649 0.0
H836 H 0.3654 0.77706 0.3887 0.0
O837 O 0.37814 0.7307 0.41215 0.0
H838 H 0.44694 0.84265 0.38284 0.0
H839 H 0.45141 0.76765 0.47696 0.0
H840 H 0.44485 0.70256 0.37997 0.0
H841 H 0.44249 0.78521 0.37806 0.0
H842 H 0.4158 0.76593 0.43965 0.0
O843 O 0.35356 0.74077 0.29068 0.0
H844 H 0.39767 0.66676 0.27626 0.0
H845 H 0.32809 0.69531 0.25812 0.0
H846 H 0.48092 0.70385 0.41654 0.0
H847 H 0.36903 0.83444 0.39416 0.0
H848 H 0.48435 0.73656 0.46544 0.0
H849 H 0.41001 0.86764 0.39105 0.0
O850 O 0.39626 0.686 0.37433 0.0
H851 H 0.28298 0.70934 0.34555 0.0
H852 H 0.33877 0.6417 0.30387 0.0
H853 H 0.29702 0.61804 0.31571 0.0
H854 H 0.26876 0.65195 0.33661 0.0
H855 H 0.32498 0.732 0.3337 0.0
H856 H 0.32275 0.66539 0.20807 0.0
H857 H 0.3553 0.63555 0.192 0.0
O858 O 0.38043 0.6715 0.32667 0.0
C859 C 0.42202 0.73303 0.31735 0.0
C860 C 0.37867 0.64925 0.23323 0.0
C861 C 0.33926 0.66559 0.22288 0.0
N862 N 0.3632 0.68282 0.2701 0.0
C863 C 0.38121 0.6665 0.2614 0.0
C864 C 0.34244 0.68259 0.25122 0.0
C865 C 0.35753 0.64883 0.21389 0.0
C866 C 0.38333 0.79137 0.38758 0.0
N867 N 0.40368 0.7778 0.38278 0.0
C868 C 0.38525 0.82384 0.39057 0.0
C869 C 0.40824 0.84245 0.38877 0.0
C870 C 0.42895 0.82844 0.38409 0.0
C871 C 0.42631 0.79589 0.38116 0.0
C872 C 0.45015 0.75336 0.4557 0.0
C873 C 0.4463 0.71702 0.40113 0.0
C874 C 0.42999 0.75223 0.43451 0.0
N875 N 0.42834 0.73434 0.40755 0.0
C876 C 0.46673 0.71758 0.42177 0.0
C877 C 0.46863 0.73591 0.44923 0.0
C878 C 0.38922 0.66533 0.35204 0.0
C879 C 0.29509 0.69433 0.33635 0.0
C880 C 0.32664 0.65663 0.31305 0.0
C881 C 0.30298 0.64309 0.31965 0.0
C882 C 0.28714 0.66212 0.33137 0.0
N883 N 0.33428 0.68826 0.31788 0.0
C884 C 0.31887 0.70705 0.32947 0.0
Co885 Co 0.39501 0.38281 0.3407 0.0
Co886 Co 0.35305 0.31338 0.33021 0.0
O887 O 0.36331 0.35753 0.32426 0.0
C888 C 0.38084 0.43762 0.3742 0.0
O889 O 0.39235 0.42951 0.39814 0.0
C890 C 0.33872 0.28376 0.26746 0.0
O891 O 0.35376 0.26387 0.27242 0.0
O892 O 0.38533 0.30285 0.31716 0.0
O893 O 0.41254 0.34721 0.33156 0.0
H894 H 0.36415 0.21028 0.36586 0.0
H895 H 0.36373 0.40518 0.29362 0.0
O896 O 0.37803 0.41969 0.34961 0.0
H897 H 0.4443 0.40275 0.2517 0.0
H898 H 0.46107 0.47958 0.35664 0.0
H899 H 0.43671 0.37168 0.3816 0.0
H900 H 0.43775 0.38771 0.30255 0.0
H901 H 0.42116 0.44786 0.33528 0.0
O902 O 0.33755 0.30599 0.28758 0.0
H903 H 0.37687 0.26578 0.3585 0.0
H904 H 0.30612 0.26715 0.31383 0.0
H905 H 0.47685 0.40256 0.40336 0.0
H906 H 0.36955 0.42088 0.24282 0.0
H907 H 0.48925 0.45693 0.39093 0.0
H908 H 0.41006 0.41963 0.22152 0.0
O909 O 0.38921 0.36942 0.38123 0.0
H910 H 0.27716 0.36427 0.32295 0.0
H911 H 0.32332 0.29921 0.38214 0.0
H912 H 0.28445 0.31308 0.3994 0.0
H913 H 0.261 0.34571 0.36963 0.0
H914 H 0.31632 0.35023 0.30673 0.0
H915 H 0.29264 0.21167 0.32067 0.0
H916 H 0.32176 0.18285 0.34685 0.0
O917 O 0.36756 0.32059 0.37294 0.0
C918 C 0.40738 0.31852 0.32123 0.0
C919 C 0.35131 0.22257 0.35438 0.0
C920 C 0.31117 0.22335 0.32902 0.0
N921 N 0.34232 0.26967 0.33565 0.0
C922 C 0.35841 0.25399 0.35013 0.0
C923 C 0.31892 0.25475 0.32519 0.0
C924 C 0.32752 0.2072 0.34371 0.0
C925 C 0.38143 0.40468 0.28453 0.0
N926 N 0.40035 0.39541 0.30098 0.0
C927 C 0.38461 0.41355 0.25574 0.0
C928 C 0.40733 0.41282 0.24379 0.0
C929 C 0.42654 0.40332 0.2607 0.0
C930 C 0.42268 0.39462 0.2894 0.0
C931 C 0.45589 0.45591 0.36222 0.0
C932 C 0.442 0.3953 0.37603 0.0
C933 C 0.4333 0.43784 0.35021 0.0
N934 N 0.4266 0.4079 0.35717 0.0
C935 C 0.46474 0.41268 0.38844 0.0
C936 C 0.47168 0.44319 0.38146 0.0
C937 C 0.37941 0.34378 0.39042 0.0
C938 C 0.28718 0.34997 0.33608 0.0
C939 C 0.31337 0.31363 0.36919 0.0
C940 C 0.29129 0.3213 0.37901 0.0
C941 C 0.27814 0.33959 0.36229 0.0
N942 N 0.32208 0.32377 0.34337 0.0
C943 C 0.30933 0.34185 0.32695 0.0
H944 H 0.30339 0.31858 0.25192 0.0
H945 H 0.22764 0.18577 0.12907 0.0
H946 H 0.3294 0.23303 0.22448 0.0
H947 H 0.19893 0.26628 0.16564 0.0
H948 H 0.2676 0.20623 0.15787 0.0
H949 H 0.26798 0.30339 0.21443 0.0
C950 C 0.30188 0.29677 0.23775 0.0
C951 C 0.31939 0.27695 0.24164 0.0
C952 C 0.25263 0.21957 0.15932 0.0
C953 C 0.27851 0.25922 0.1986 0.0
C954 C 0.22982 0.20798 0.14275 0.0
C955 C 0.2098 0.22423 0.14501 0.0
C956 C 0.25551 0.24769 0.17822 0.0
C957 C 0.21376 0.25283 0.16327 0.0
C958 C 0.28154 0.28805 0.21636 0.0
C959 C 0.31637 0.24902 0.22242 0.0
N960 N 0.23604 0.2635 0.17926 0.0
N961 N 0.29621 0.24086 0.20195 0.0
H962 H 0.67575 0.2009 0.29275 0.0
H963 H 0.82329 0.2204 0.29269 0.0
H964 H 0.72554 0.26232 0.35982 0.0
H965 H 0.77246 0.14234 0.24498 0.0
H966 H 0.78811 0.23887 0.31519 0.0
H967 H 0.71132 0.18205 0.27248 0.0
C968 C 0.69418 0.21045 0.30325 0.0
C969 C 0.69764 0.23325 0.32807 0.0
C970 C 0.78472 0.21763 0.29991 0.0
C971 C 0.73861 0.21176 0.30475 0.0
C972 C 0.80476 0.20711 0.287 0.0
C973 C 0.80083 0.17973 0.26695 0.0
C974 C 0.76055 0.20089 0.29239 0.0
C975 C 0.77643 0.16346 0.26041 0.0
C976 C 0.71451 0.19957 0.2917 0.0
C977 C 0.722 0.24464 0.34075 0.0
N978 N 0.75724 0.17438 0.27295 0.0
N979 N 0.74159 0.2339 0.32884 0.0
H980 H 0.77304 0.82406 0.16647 0.0
H981 H 0.67396 0.67705 0.19813 0.0
H982 H 0.78909 0.73024 0.1595 0.0
H983 H 0.68018 0.76815 0.24714 0.0
H984 H 0.70974 0.69713 0.17103 0.0
H985 H 0.73233 0.80428 0.18337 0.0
C986 C 0.76783 0.79924 0.16796 0.0
C987 C 0.7845 0.77876 0.16173 0.0
C988 C 0.70296 0.71275 0.1874 0.0
C989 C 0.73798 0.75607 0.18071 0.0
C990 C 0.68248 0.70142 0.20266 0.0
C991 C 0.6742 0.721 0.22491 0.0
C992 C 0.71477 0.744 0.19401 0.0
C993 C 0.68608 0.75229 0.23021 0.0
C994 C 0.74468 0.78804 0.17774 0.0
C995 C 0.77684 0.74684 0.16428 0.0
N996 N 0.70576 0.76283 0.21488 0.0
N997 N 0.75412 0.73644 0.17357 0.0
H998 H 0.33505 0.81378 0.3284 0.0
H999 H 0.24347 0.83618 0.18913 0.0
H1000 H 0.33711 0.76544 0.24065 0.0
H1001 H 0.21818 0.82525 0.27702 0.0
H1002 H 0.28441 0.82609 0.20773 0.0
H1003 H 0.29861 0.83475 0.30929 0.0
C1004 C 0.3283 0.8084 0.30491 0.0
C1005 C 0.33904 0.78799 0.28597 0.0
C1006 C 0.26992 0.8263 0.22293 0.0
C1007 C 0.29777 0.81182 0.26416 0.0
C1008 C 0.24666 0.83211 0.21243 0.0
C1009 C 0.22746 0.83134 0.23158 0.0
C1010 C 0.27413 0.82059 0.25296 0.0
C1011 C 0.23248 0.82578 0.26151 0.0
C1012 C 0.30744 0.82007 0.29416 0.0
C1013 C 0.32932 0.78118 0.25588 0.0
N1014 N 0.2554 0.82073 0.27136 0.0
N1015 N 0.30921 0.7931 0.24585 0.0
H1016 H 0.32609 0.72457 0.79343 0.0
H1017 H 0.17879 0.69843 0.79791 0.0
H1018 H 0.27638 0.64395 0.7484 0.0
H1019 H 0.22823 0.76316 0.86273 0.0
H1020 H 0.21462 0.68085 0.77714 0.0
H1021 H 0.29078 0.74175 0.81678 0.0
C1022 C 0.30779 0.71047 0.78849 0.0
C1023 C 0.30419 0.68275 0.76895 0.0
C1024 C 0.21769 0.6988 0.79599 0.0
C1025 C 0.2638 0.70237 0.79538 0.0
C1026 C 0.19722 0.70894 0.80783 0.0
C1027 C 0.20051 0.73233 0.83213 0.0
C1028 C 0.24176 0.71234 0.80822 0.0
C1029 C 0.22485 0.74498 0.84408 0.0
C1030 C 0.28769 0.72024 0.80189 0.0
C1031 C 0.28008 0.66539 0.76339 0.0
N1032 N 0.24459 0.73496 0.83187 0.0
N1033 N 0.26083 0.67557 0.7764 0.0
H1034 H 0.16514 0.18729 0.68807 0.0
H1035 H 0.29133 0.31187 0.70075 0.0
H1036 H 0.18836 0.26008 0.76113 0.0
H1037 H 0.26977 0.24184 0.62502 0.0
H1038 H 0.2516 0.29544 0.72054 0.0
H1039 H 0.20105 0.20896 0.66203 0.0
C1040 C 0.17755 0.20802 0.69846 0.0
C1041 C 0.1738 0.2217 0.72698 0.0
C1042 C 0.25537 0.28374 0.69946 0.0
C1043 C 0.21493 0.24647 0.69743 0.0
C1044 C 0.27814 0.29316 0.68811 0.0
C1045 C 0.28403 0.27811 0.66124 0.0
C1046 C 0.23825 0.2588 0.68408 0.0
C1047 C 0.26603 0.25412 0.64582 0.0
C1048 C 0.19809 0.22031 0.68364 0.0
C1049 C 0.19057 0.24847 0.73937 0.0
N1050 N 0.24405 0.24499 0.6576 0.0
N1051 N 0.21037 0.25978 0.72465 0.0
H1052 H 0.83868 0.26709 0.73869 0.0
H1053 H 0.71622 0.32585 0.77326 0.0
H1054 H 0.83138 0.31224 0.82637 0.0
H1055 H 0.7444 0.33618 0.68673 0.0
H1056 H 0.75713 0.31725 0.7931 0.0
H1057 H 0.80357 0.28943 0.71831 0.0
C1058 C 0.83006 0.28238 0.75346 0.0
C1059 C 0.83798 0.28804 0.78419 0.0
C1060 C 0.75442 0.32181 0.76989 0.0
C1061 C 0.79737 0.31255 0.76133 0.0
C1062 C 0.73109 0.32649 0.75851 0.0
C1063 C 0.72698 0.33165 0.72832 0.0
C1064 C 0.77355 0.3214 0.75072 0.0
C1065 C 0.74687 0.33236 0.71018 0.0
C1066 C 0.81004 0.29502 0.74186 0.0
C1067 C 0.826 0.30763 0.80249 0.0
N1068 N 0.76923 0.32673 0.72153 0.0
N1069 N 0.8059 0.31864 0.79091 0.0
H1070 H 0.81433 0.84709 0.72653 0.0
H1071 H 0.72958 0.6923 0.64189 0.0
H1072 H 0.82242 0.75435 0.7468 0.0
H1073 H 0.70285 0.77958 0.65723 0.0
H1074 H 0.76942 0.7167 0.66926 0.0
H1075 H 0.77912 0.82421 0.68989 0.0
C1076 C 0.80907 0.82191 0.72281 0.0
C1077 C 0.82129 0.80258 0.73979 0.0
C1078 C 0.75491 0.73056 0.66625 0.0
C1079 C 0.78119 0.77637 0.69793 0.0
C1080 C 0.73224 0.71675 0.65049 0.0
C1081 C 0.71282 0.73391 0.64737 0.0
C1082 C 0.75836 0.76192 0.6785 0.0
C1083 C 0.71727 0.76545 0.65925 0.0
C1084 C 0.78888 0.80892 0.70209 0.0
C1085 C 0.81347 0.77011 0.73427 0.0
N1086 N 0.73956 0.77845 0.6743 0.0
N1087 N 0.79392 0.75802 0.71385 0.0
H1088 H 0.10152 0.10686 0.88283 0.0
H1089 H 0.13195 0.21305 0.04055 0.0
H1090 H 0.11492 0.20778 0.89206 0.0
H1091 H 0.10462 0.11376 0.03327 0.0
H1092 H 0.12652 0.21109 0.98587 0.0
H1093 H 0.1026 0.10832 0.9377 0.0
C1094 C 0.10439 0.12928 0.89627 0.0
C1095 C 0.10832 0.15721 0.88266 0.0
C1096 C 0.12166 0.18973 0.99625 0.0
C1097 C 0.10993 0.15904 0.94547 0.0
C1098 C 0.12485 0.19083 0.02753 0.0
C1099 C 0.11893 0.16352 0.04168 0.0
C1100 C 0.11265 0.16109 0.97885 0.0
C1101 C 0.10962 0.13543 0.02346 0.0
C1102 C 0.10511 0.1301 0.92761 0.0
C1103 C 0.11203 0.18558 0.90137 0.0
N1104 N 0.1069 0.13492 0.99305 0.0
N1105 N 0.11294 0.18573 0.93169 0.0
H1106 H 0.82465 0.16054 0.93606 0.0
H1107 H 0.87517 0.22552 0.10514 0.0
H1108 H 0.87396 0.24837 0.96133 0.0
H1109 H 0.82459 0.13852 0.08052 0.0
H1110 H 0.87046 0.23761 0.05315 0.0
H1111 H 0.81949 0.15559 0.98924 0.0
C1112 C 0.83401 0.17906 0.95271 0.0
C1113 C 0.85006 0.20466 0.94423 0.0
C1114 C 0.86019 0.21601 0.05919 0.0
C1115 C 0.84453 0.19898 0.00511 0.0
C1116 C 0.86288 0.20911 0.08891 0.0
C1117 C 0.85054 0.18078 0.09717 0.0
C1118 C 0.84513 0.19437 0.03752 0.0
C1119 C 0.83471 0.1605 0.07516 0.0
C1120 C 0.83117 0.17616 0.9831 0.0
C1121 C 0.8617 0.22797 0.96683 0.0
N1122 N 0.83268 0.16754 0.04632 0.0
N1123 N 0.85895 0.22438 0.99619 0.0
H1124 H 0.90181 0.88806 0.93769 0.0
H1125 H 0.85355 0.7827 0.06603 0.0
H1126 H 0.86387 0.79247 0.91943 0.0
H1127 H 0.89189 0.87819 0.08315 0.0
H1128 H 0.8577 0.78524 0.0123 0.0
H1129 H 0.89947 0.88404 0.99132 0.0
C1130 C 0.89311 0.86616 0.9449 0.0
C1131 C 0.88286 0.84067 0.92387 0.0
C1132 C 0.86518 0.80561 0.02788 0.0
C1133 C 0.87997 0.83596 0.98542 0.0
C1134 C 0.86274 0.80421 0.05856 0.0
C1135 C 0.87227 0.83028 0.07925 0.0
C1136 C 0.87723 0.83328 0.0178 0.0
C1137 C 0.88416 0.85747 0.06817 0.0
C1138 C 0.89171 0.86391 0.97558 0.0
C1139 C 0.87187 0.81287 0.9347 0.0
N1140 N 0.88626 0.85823 0.0383 0.0
N1141 N 0.87062 0.81132 0.96467 0.0
H1142 H 0.16413 0.73643 0.08447 0.0
H1143 H 0.08259 0.744 0.93242 0.0
H1144 H 0.09513 0.77152 0.07679 0.0
H1145 H 0.15852 0.72925 0.93542 0.0
H1146 H 0.08174 0.73545 0.98534 0.0
H1147 H 0.15735 0.7166 0.03082 0.0
C1148 C 0.14714 0.73889 0.07172 0.0
C1149 C 0.13017 0.75565 0.08479 0.0
C1150 C 0.09843 0.73322 0.97434 0.0
C1151 C 0.12239 0.73344 0.02391 0.0
C1152 C 0.0988 0.7378 0.94409 0.0
C1153 C 0.12062 0.73724 0.92977 0.0
C1154 C 0.12027 0.7289 0.9906 0.0
C1155 C 0.14129 0.72956 0.94579 0.0
C1156 C 0.14337 0.72783 0.04114 0.0
C1157 C 0.10867 0.75879 0.06738 0.0
N1158 N 0.14082 0.72637 0.97567 0.0
N1159 N 0.10551 0.74808 0.0378 0.0
H1160 H 0.04702 0.18615 0.10939 0.0
H1161 H 0.94656 0.15394 0.22529 0.0
H1162 H 0.05629 0.12557 0.17855 0.0
H1163 H 0.92323 0.15274 0.13129 0.0
H1164 H 0.98944 0.15466 0.21247 0.0
H1165 H 0.00357 0.18493 0.12077 0.0
C1166 C 0.0399 0.1726 0.12692 0.0
C1167 C 0.05515 0.15572 0.14292 0.0
C1168 C 0.97489 0.15428 0.19472 0.0
C1169 C 0.00601 0.15496 0.15645 0.0
C1170 C 0.9505 0.15404 0.20199 0.0
C1171 C 0.93135 0.15317 0.17928 0.0
C1172 C 0.98028 0.15458 0.16464 0.0
C1173 C 0.93747 0.15317 0.14941 0.0
C1174 C 0.01518 0.17185 0.13329 0.0
C1175 C 0.04506 0.1386 0.16546 0.0
N1176 N 0.96149 0.15419 0.14294 0.0
N1177 N 0.0212 0.13895 0.17182 0.0
H1178 H 0.85122 0.91565 0.24859 0.0
H1179 H 0.90296 0.09776 0.26992 0.0
H1180 H 0.92915 0.95604 0.25811 0.0
H1181 H 0.82882 0.05457 0.23486 0.0
H1182 H 0.91052 0.04716 0.28499 0.0
H1183 H 0.84129 0.96689 0.264 0.0
C1184 C 0.86633 0.93506 0.25483 0.0
C1185 C 0.89103 0.9317 0.25108 0.0
C1186 C 0.89235 0.049 0.27484 0.0
C1187 C 0.87969 0.99051 0.26837 0.0
C1188 C 0.88799 0.07787 0.26647 0.0
C1189 C 0.86534 0.08003 0.25091 0.0
C1190 C 0.87383 0.02242 0.26768 0.0
C1191 C 0.84663 0.05361 0.24652 0.0
C1192 C 0.8606 0.96438 0.26349 0.0
C1193 C 0.9098 0.95763 0.26004 0.0
N1194 N 0.85138 0.02579 0.25451 0.0
N1195 N 0.90371 0.98615 0.26754 0.0
H1196 H 0.93982 0.78994 0.13903 0.0
H1197 H 0.07297 0.83515 0.22891 0.0
H1198 H 0.95454 0.86162 0.21407 0.0
H1199 H 0.06412 0.81063 0.13291 0.0
H1200 H 0.02816 0.83507 0.22832 0.0
H1201 H 0.98426 0.78746 0.14105 0.0
C1202 C 0.95236 0.80499 0.15608 0.0
C1203 C 0.9435 0.82611 0.17638 0.0
C1204 C 0.0361 0.82961 0.20746 0.0
C1205 C 0.99417 0.82301 0.17897 0.0
C1206 C 0.0616 0.82946 0.20777 0.0
C1207 C 0.0723 0.82299 0.18088 0.0
C1208 C 0.02115 0.8225 0.18022 0.0
C1209 C 0.05666 0.81593 0.15412 0.0
C1210 C 0.97768 0.80364 0.15708 0.0
C1211 C 0.96062 0.84517 0.19788 0.0
N1212 N 0.03183 0.81568 0.15448 0.0
N1213 N 0.98516 0.84303 0.19876 0.0
H1214 H 0.08973 0.04399 0.21099 0.0
H1215 H 0.18479 0.93548 0.18318 0.0
H1216 H 0.16376 0.07923 0.18846 0.0
H1217 H 0.12771 0.91321 0.24286 0.0
H1218 H 0.17999 0.99027 0.19012 0.0
H1219 H 0.10479 0.99863 0.22884 0.0
C1220 C 0.10927 0.04265 0.21051 0.0
C1221 C 0.12533 0.06506 0.19744 0.0
C1222 C 0.16897 0.97364 0.20244 0.0
C1223 C 0.14255 0.01302 0.21736 0.0
C1224 C 0.17175 0.94241 0.19846 0.0
C1225 C 0.15658 0.92002 0.21243 0.0
C1226 C 0.15026 0.98227 0.21965 0.0
C1227 C 0.13983 0.92996 0.23186 0.0
C1228 C 0.11787 0.01673 0.22074 0.0
C1229 C 0.15054 0.06224 0.19776 0.0
N1230 N 0.13661 0.96032 0.2343 0.0
N1231 N 0.15823 0.03628 0.20679 0.0
H1232 H 0.92486 0.76669 0.84687 0.0
H1233 H 0.06364 0.83649 0.83168 0.0
H1234 H 0.94609 0.83445 0.78535 0.0
H1235 H 0.04479 0.73992 0.84818 0.0
H1236 H 0.01971 0.83716 0.81843 0.0
H1237 H 0.96746 0.75512 0.84956 0.0
C1238 C 0.93823 0.77826 0.8331 0.0
C1239 C 0.93215 0.80176 0.81607 0.0
C1240 C 0.0252 0.81574 0.82475 0.0
C1241 C 0.98072 0.78973 0.81998 0.0
C1242 C 0.05022 0.81545 0.83259 0.0
C1243 C 0.05782 0.78817 0.84117 0.0
C1244 C 0.0075 0.78879 0.82613 0.0
C1245 C 0.03965 0.76144 0.84165 0.0
C1246 C 0.96255 0.77193 0.83489 0.0
C1247 C 0.95023 0.81659 0.79914 0.0
N1248 N 0.01521 0.76251 0.83463 0.0
N1249 N 0.97381 0.81082 0.80199 0.0
H1250 H 0.16591 0.91256 0.87291 0.0
H1251 H 0.13259 0.03897 0.76595 0.0
H1252 H 0.12561 0.88905 0.78539 0.0
H1253 H 0.16579 0.06242 0.85705 0.0
H1254 H 0.13664 0.98461 0.76948 0.0
H1255 H 0.17242 0.96752 0.86418 0.0
C1256 C 0.15863 0.91887 0.85168 0.0
C1257 C 0.14487 0.89608 0.82999 0.0
C1258 C 0.14332 0.00166 0.78859 0.0
C1259 C 0.15228 0.95926 0.81992 0.0
C1260 C 0.14108 0.0328 0.7866 0.0
C1261 C 0.14854 0.05532 0.81143 0.0
C1262 C 0.15306 0.99279 0.81562 0.0
C1263 C 0.15965 0.04589 0.83741 0.0
C1264 C 0.16237 0.95034 0.84675 0.0
C1265 C 0.13616 0.90577 0.80284 0.0
N1266 N 0.16129 0.01527 0.83896 0.0
N1267 N 0.1398 0.93665 0.79871 0.0
H1268 H 0.07423 0.24435 0.7937 0.0
H1269 H 0.92728 0.18675 0.76164 0.0
H1270 H 0.03959 0.15168 0.75563 0.0
H1271 H 0.9608 0.26226 0.82818 0.0
H1272 H 0.96866 0.1828 0.74555 0.0
H1273 H 0.03297 0.25957 0.79305 0.0
C1274 C 0.05812 0.22741 0.78455 0.0
C1275 C 0.06044 0.19652 0.77511 0.0
C1276 C 0.96685 0.20066 0.76327 0.0
C1277 C 0.01333 0.21387 0.774 0.0
C1278 C 0.94323 0.20306 0.77229 0.0
C1279 C 0.94068 0.22449 0.79664 0.0
C1280 C 0.98794 0.2201 0.77849 0.0
C1281 C 0.96201 0.24498 0.80974 0.0
C1282 C 0.03458 0.2361 0.78428 0.0
C1283 C 0.03882 0.17564 0.7634 0.0
N1284 N 0.98477 0.24209 0.80074 0.0
N1285 N 0.01623 0.1846 0.7634 0.0
H1286 H 0.82816 0.95751 0.82378 0.0
H1287 H 0.8979 0.12779 0.89314 0.0
H1288 H 0.89293 0.97172 0.8873 0.0
H1289 H 0.85476 0.1087 0.80706 0.0
H1290 H 0.89071 0.07149 0.89812 0.0
H1291 H 0.83102 0.01439 0.82548 0.0
C1292 C 0.84259 0.97256 0.83861 0.0
C1293 C 0.86041 0.95996 0.85527 0.0
C1294 C 0.88278 0.07983 0.87825 0.0
C1295 C 0.86394 0.02478 0.85714 0.0
C1296 C 0.88694 0.11191 0.87533 0.0
C1297 C 0.8769 0.12319 0.84968 0.0
C1298 C 0.86817 0.059 0.8556 0.0
C1299 C 0.86278 0.10136 0.82736 0.0
C1300 C 0.84438 0.00497 0.83934 0.0
C1301 C 0.87891 0.98055 0.87392 0.0
N1302 N 0.85876 0.07045 0.83092 0.0
N1303 N 0.88029 0.01195 0.87425 0.0
H1304 H 0.62448 0.71749 0.39559 0.0
H1305 H 0.60569 0.62105 0.53777 0.0
H1306 H 0.60183 0.61728 0.38793 0.0
H1307 H 0.63658 0.71933 0.544 0.0
H1308 H 0.60088 0.61977 0.48322 0.0
H1309 H 0.62523 0.71893 0.44987 0.0
C1310 C 0.61949 0.69571 0.40524 0.0
C1311 C 0.61325 0.66712 0.38695 0.0
C1312 C 0.60868 0.64161 0.49651 0.0
C1313 C 0.61418 0.66876 0.44966 0.0
C1314 C 0.61148 0.64243 0.52775 0.0
C1315 C 0.62178 0.67035 0.54569 0.0
C1316 C 0.61608 0.66893 0.48291 0.0
C1317 C 0.6287 0.69724 0.53121 0.0
C1318 C 0.61999 0.69661 0.43639 0.0
C1319 C 0.60679 0.63983 0.40103 0.0
N1320 N 0.62576 0.69583 0.50072 0.0
N1321 N 0.60756 0.64131 0.43155 0.0
H1322 H 0.328 0.63573 0.58235 0.0
H1323 H 0.37154 0.75472 0.46393 0.0
H1324 H 0.37579 0.725 0.60589 0.0
H1325 H 0.33112 0.66127 0.43882 0.0
H1326 H 0.36645 0.74784 0.51652 0.0
H1327 H 0.32277 0.6482 0.53064 0.0
C1328 C 0.33724 0.6581 0.57674 0.0
C1329 C 0.35265 0.67921 0.59848 0.0
C1330 C 0.3584 0.72896 0.49952 0.0
C1331 C 0.34667 0.69359 0.53917 0.0
C1332 C 0.36122 0.73289 0.46942 0.0
C1333 C 0.35206 0.70833 0.44691 0.0
C1334 C 0.34641 0.70022 0.50729 0.0
C1335 C 0.33862 0.68075 0.45541 0.0
C1336 C 0.33422 0.66518 0.54716 0.0
C1337 C 0.36395 0.7079 0.58986 0.0
N1338 N 0.33649 0.67728 0.48498 0.0
N1339 N 0.36089 0.71413 0.56083 0.0
H1340 H 0.40464 0.38613 0.43565 0.0
H1341 H 0.34847 0.29483 0.56933 0.0
H1342 H 0.35698 0.29588 0.42035 0.0
H1343 H 0.39863 0.38333 0.5814 0.0
H1344 H 0.35145 0.29362 0.51487 0.0
H1345 H 0.40328 0.38405 0.48947 0.0
C1346 C 0.39389 0.36582 0.44353 0.0
C1347 C 0.38059 0.3414 0.42325 0.0
C1348 C 0.36178 0.31324 0.52957 0.0
C1349 C 0.37891 0.33885 0.48525 0.0
C1350 C 0.36003 0.31399 0.56063 0.0
C1351 C 0.37318 0.33928 0.5801 0.0
C1352 C 0.37678 0.33796 0.51799 0.0
C1353 C 0.38801 0.36336 0.56748 0.0
C1354 C 0.39312 0.36463 0.47438 0.0
C1355 C 0.3673 0.31548 0.43504 0.0
N1356 N 0.38933 0.36208 0.53738 0.0
N1357 N 0.36665 0.31499 0.46525 0.0
H1358 H 0.65601 0.2272 0.4292 0.0
H1359 H 0.59149 0.26319 0.57675 0.0
H1360 H 0.58149 0.2464 0.4317 0.0
H1361 H 0.66483 0.23958 0.5779 0.0
H1362 H 0.58393 0.2435 0.52373 0.0
H1363 H 0.65636 0.21823 0.4825 0.0
C1364 C 0.63937 0.22815 0.44068 0.0
C1365 C 0.6187 0.23753 0.42629 0.0
C1366 C 0.60151 0.24182 0.53556 0.0
C1367 C 0.6191 0.2282 0.48704 0.0
C1368 C 0.60571 0.25289 0.56589 0.0
C1369 C 0.62873 0.25284 0.58149 0.0
C1370 C 0.62082 0.23166 0.52042 0.0
C1371 C 0.64674 0.23968 0.56651 0.0
C1372 C 0.63963 0.22337 0.47114 0.0
C1373 C 0.59778 0.23922 0.44215 0.0
N1374 N 0.64263 0.23025 0.53652 0.0
N1375 N 0.59864 0.23507 0.47175 0.0
H1376 H 0.56147 0.63126 0.68426 0.0
H1377 H 0.42532 0.65312 0.63298 0.0
H1378 H 0.54953 0.68963 0.61395 0.0
H1379 H 0.45008 0.65817 0.72697 0.0
H1380 H 0.46869 0.65569 0.62077 0.0
H1381 H 0.51814 0.62966 0.69559 0.0
C1382 C 0.54965 0.64348 0.67103 0.0
C1383 C 0.55901 0.66054 0.6481 0.0
C1384 C 0.46451 0.65626 0.64402 0.0
C1385 C 0.50954 0.6584 0.66066 0.0
C1386 C 0.43987 0.65462 0.65099 0.0
C1387 C 0.43419 0.65547 0.68103 0.0
C1388 C 0.48339 0.65775 0.6672 0.0
C1389 C 0.45371 0.65763 0.70355 0.0
C1390 C 0.52505 0.64272 0.67764 0.0
C1391 C 0.54299 0.67628 0.63186 0.0
N1392 N 0.47742 0.65831 0.69616 0.0
N1393 N 0.51889 0.67456 0.63823 0.0
H1394 H 0.40673 0.59907 0.7709 0.0
H1395 H 0.34159 0.42187 0.7637 0.0
H1396 H 0.32918 0.56386 0.74549 0.0
H1397 H 0.41898 0.45304 0.75285 0.0
H1398 H 0.33783 0.47565 0.78112 0.0
H1399 H 0.41135 0.5481 0.78771 0.0
C1400 C 0.3905 0.58097 0.77006 0.0
C1401 C 0.36762 0.58525 0.75664 0.0
C1402 C 0.35585 0.47047 0.77603 0.0
C1403 C 0.3727 0.52735 0.7754 0.0
C1404 C 0.35806 0.43975 0.76639 0.0
C1405 C 0.38054 0.43326 0.75648 0.0
C1406 C 0.37631 0.49454 0.77582 0.0
C1407 C 0.40126 0.45731 0.76002 0.0
C1408 C 0.39315 0.55193 0.77945 0.0
C1409 C 0.34716 0.56114 0.75553 0.0
N1410 N 0.39855 0.48706 0.76886 0.0
N1411 N 0.35024 0.53301 0.76439 0.0
H1412 H 0.57301 0.3325 0.72565 0.0
H1413 H 0.43816 0.29686 0.63861 0.0
H1414 H 0.56257 0.31151 0.62923 0.0
H1415 H 0.45738 0.36586 0.7155 0.0
H1416 H 0.48194 0.29042 0.63923 0.0
H1417 H 0.52847 0.33306 0.72647 0.0
C1418 C 0.56135 0.3277 0.70468 0.0
C1419 C 0.57158 0.32218 0.67728 0.0
C1420 C 0.47643 0.30678 0.65603 0.0
C1421 C 0.52061 0.32236 0.67824 0.0
C1422 C 0.45152 0.31033 0.65583 0.0
C1423 C 0.44422 0.33202 0.67698 0.0
C1424 C 0.49394 0.32446 0.67799 0.0
C1425 C 0.46229 0.34905 0.69868 0.0
C1426 C 0.53598 0.32816 0.7052 0.0
C1427 C 0.55549 0.31614 0.65082 0.0
N1428 N 0.48632 0.3448 0.69872 0.0
N1429 N 0.53075 0.31628 0.65195 0.0
H1430 H 0.59524 0.54971 0.71445 0.0
H1431 H 0.68308 0.43412 0.67419 0.0
H1432 H 0.66809 0.58089 0.6861 0.0
H1433 H 0.62994 0.41443 0.73919 0.0
H1434 H 0.6801 0.48946 0.68226 0.0
H1435 H 0.60904 0.50218 0.72876 0.0
C1436 C 0.61432 0.547 0.71196 0.0
C1437 C 0.63032 0.56902 0.69836 0.0
C1438 C 0.66954 0.47323 0.69538 0.0
C1439 C 0.64605 0.51447 0.71418 0.0
C1440 C 0.67124 0.44168 0.69071 0.0
C1441 C 0.65666 0.41986 0.70597 0.0
C1442 C 0.65252 0.48285 0.7147 0.0
C1443 C 0.64155 0.43067 0.72712 0.0
C1444 C 0.62219 0.51982 0.72015 0.0
C1445 C 0.65493 0.56436 0.696 0.0
N1446 N 0.63936 0.4614 0.73034 0.0
N1447 N 0.66183 0.53723 0.70307 0.0
H1448 H 0.42178 0.26815 0.34555 0.0
H1449 H 0.56064 0.3383 0.33032 0.0
H1450 H 0.44295 0.33665 0.28471 0.0
H1451 H 0.54191 0.24133 0.34545 0.0
H1452 H 0.51666 0.33918 0.31767 0.0
H1453 H 0.46443 0.25666 0.34803 0.0
C1454 C 0.43513 0.27991 0.33188 0.0
C1455 C 0.429 0.30357 0.31509 0.0
C1456 C 0.52217 0.31763 0.32357 0.0
C1457 C 0.47766 0.29162 0.3188 0.0
C1458 C 0.54724 0.31721 0.33105 0.0
C1459 C 0.55491 0.28976 0.33905 0.0
C1460 C 0.50448 0.29062 0.32473 0.0
C1461 C 0.53673 0.26298 0.33935 0.0
C1462 C 0.45949 0.27363 0.33357 0.0
C1463 C 0.4471 0.31865 0.29831 0.0
N1464 N 0.51225 0.26416 0.33269 0.0
N1465 N 0.4707 0.31291 0.30106 0.0
H1466 H 0.6631 0.41407 0.37287 0.0
H1467 H 0.62969 0.54396 0.27007 0.0
H1468 H 0.6223 0.39304 0.28548 0.0
H1469 H 0.66425 0.56509 0.36073 0.0
H1470 H 0.63303 0.48921 0.2723 0.0
H1471 H 0.66958 0.46944 0.36567 0.0
C1472 C 0.6557 0.42101 0.35199 0.0
C1473 C 0.64183 0.39878 0.32988 0.0
C1474 C 0.64014 0.50582 0.29161 0.0
C1475 C 0.6492 0.46244 0.32158 0.0
C1476 C 0.6383 0.53719 0.29037 0.0
C1477 C 0.64642 0.5592 0.31544 0.0
C1478 C 0.65012 0.49619 0.31814 0.0
C1479 C 0.65763 0.54898 0.34093 0.0
C1480 C 0.65942 0.45272 0.34793 0.0
C1481 C 0.63295 0.40929 0.30322 0.0
N1482 N 0.65889 0.51815 0.34175 0.0
N1483 N 0.63658 0.44038 0.29995 0.0
H1484 H 0.57957 0.7526 0.30485 0.0
H1485 H 0.43276 0.70632 0.26302 0.0
H1486 H 0.54346 0.66582 0.25511 0.0
H1487 H 0.46639 0.76806 0.34094 0.0
H1488 H 0.47436 0.7033 0.24731 0.0
H1489 H 0.53912 0.76987 0.30539 0.0
C1490 C 0.56332 0.73748 0.29341 0.0
C1491 C 0.56488 0.70743 0.28041 0.0
C1492 C 0.47251 0.71804 0.26751 0.0
C1493 C 0.51874 0.72716 0.28063 0.0
C1494 C 0.44878 0.7199 0.27642 0.0
C1495 C 0.44606 0.73699 0.30367 0.0
C1496 C 0.49359 0.73381 0.28573 0.0
C1497 C 0.46757 0.75419 0.32005 0.0
C1498 C 0.54025 0.74731 0.29382 0.0
C1499 C 0.54315 0.68891 0.26582 0.0
N1500 N 0.49041 0.75191 0.31101 0.0
N1501 N 0.52098 0.69894 0.26654 0.0
H1502 H 0.39073 0.48526 0.42007 0.0
H1503 H 0.3795 0.61578 0.3086 0.0
H1504 H 0.36462 0.46555 0.3261 0.0
H1505 H 0.3978 0.63826 0.40418 0.0
H1506 H 0.37475 0.56065 0.31524 0.0
H1507 H 0.3927 0.54106 0.41564 0.0
C1508 C 0.385 0.49257 0.39863 0.0
C1509 C 0.37763 0.4706 0.37337 0.0
C1510 C 0.37983 0.57755 0.33482 0.0
C1511 C 0.38028 0.5345 0.36808 0.0
C1512 C 0.38269 0.6092 0.33105 0.0
C1513 C 0.38903 0.63189 0.3559 0.0
C1514 C 0.38339 0.5682 0.36366 0.0
C1515 C 0.39299 0.62165 0.38436 0.0
C1516 C 0.38629 0.52448 0.3961 0.0
C1517 C 0.37048 0.48153 0.34618 0.0
N1518 N 0.39006 0.59053 0.38747 0.0
N1519 N 0.37221 0.51267 0.34422 0.0
loop_
_geom_bond_atom_site_label_1
_geom_bond_atom_site_label_2
_geom_bond_distance
_geom_bond_site_symmetry_2
_ccdc_geom_bond_type
Co0 O2 2.143 . S
Co0 O8 2.074 . S
Co0 O11 2.093 . S
Co0 O24 2.097 . S
Co0 N41 2.151 . S
Co0 N49 2.214 . S
Co1 O2 2.160 . S
Co1 O7 2.058 . S
Co1 O17 2.057 . S
Co1 O32 2.037 . S
Co1 N36 2.145 . S
Co1 N57 2.257 . S
O2 Co0 2.143 . S
O2 Co1 2.160 . S
C3 O4 1.278 . S
C3 O11 1.224 . S
O4 C3 1.278 . S
C5 O6 1.245 . S
C5 O17 1.232 . S
O6 C5 1.245 . S
O7 Co1 2.058 . S
O7 C33 1.269 . S
O8 Co0 2.074 . S
O8 C33 1.257 . S
H9 C34 0.930 . S
H10 C40 0.930 . S
O11 Co0 2.093 . S
O11 C3 1.224 . S
H12 C44 0.929 . S
H13 C46 0.930 . S
H14 C47 0.930 . S
H15 C45 0.929 . S
H16 C48 0.928 . S
O17 Co1 2.057 . S
O17 C5 1.232 . S
H18 C37 0.929 . S
H19 C38 0.929 . S
H20 C50 0.931 . S
H21 C42 0.929 . S
H22 C51 0.930 . S
H23 C43 0.931 . S
O24 Co0 2.097 . S
O24 C52 1.214 . S
H25 C53 0.929 . S
H26 C54 0.929 . S
H27 C55 0.930 . S
H28 C56 0.929 . S
H29 C58 0.930 . S
H30 C35 0.930 . S
H31 C39 0.930 . S
O32 Co1 2.037 . S
O32 C52 1.234 . S
C33 O7 1.269 . S
C33 O8 1.257 . S
C34 H9 0.930 . S
C34 C37 1.388 . S
C34 C39 1.418 . S
C35 H30 0.930 . S
C35 C38 1.404 . S
C35 C39 1.353 . S
N36 Co1 2.145 . S
N36 C37 1.397 . S
N36 C38 1.334 . S
C37 H18 0.929 . S
C37 C34 1.388 . S
C37 N36 1.397 . S
C38 H19 0.929 . S
C38 C35 1.404 . S
C38 N36 1.334 . S
C39 H31 0.930 . S
C39 C34 1.418 . S
C39 C35 1.353 . S
C40 H10 0.930 . S
C40 N41 1.330 . S
C40 C42 1.446 . S
N41 Co0 2.151 . S
N41 C40 1.330 . S
N41 C45 1.418 . S
C42 H21 0.929 . S
C42 C40 1.446 . S
C42 C43 1.332 . S
C43 H23 0.931 . S
C43 C42 1.332 . S
C43 C44 1.267 . S
C44 H12 0.929 . S
C44 C43 1.267 . S
C44 C45 1.251 . S
C45 H15 0.929 . S
C45 N41 1.418 . S
C45 C44 1.251 . S
C46 H13 0.930 . S
C46 C48 1.406 . S
C46 C51 1.261 . S
C47 H14 0.930 . S
C47 N49 1.325 . S
C47 C50 1.357 . S
C48 H16 0.928 . S
C48 C46 1.406 . S
C48 N49 1.261 . S
N49 Co0 2.214 . S
N49 C47 1.325 . S
N49 C48 1.261 . S
C50 H20 0.931 . S
C50 C47 1.357 . S
C50 C51 1.312 . S
C51 H22 0.930 . S
C51 C46 1.261 . S
C51 C50 1.312 . S
C52 O24 1.214 . S
C52 O32 1.234 . S
C53 H25 0.929 . S
C53 C56 1.391 . S
C53 C58 1.391 . S
C54 H26 0.929 . S
C54 C55 1.390 . S
C54 N57 1.391 . S
C55 H27 0.930 . S
C55 C54 1.390 . S
C55 C56 1.392 . S
C56 H28 0.929 . S
C56 C53 1.391 . S
C56 C55 1.392 . S
N57 Co1 2.257 . S
N57 C54 1.391 . S
N57 C58 1.388 . S
C58 H29 0.930 . S
C58 C53 1.391 . S
C58 N57 1.388 . S
Co59 O61 2.143 . S
Co59 O67 2.074 . S
Co59 O70 2.093 . S
Co59 O83 2.097 . S
Co59 N100 2.151 . S
Co59 N108 2.214 . S
Co60 O61 2.160 . S
Co60 O66 2.058 . S
Co60 O76 2.057 . S
Co60 O91 2.037 . S
Co60 N95 2.145 . S
Co60 N116 2.257 . S
O61 Co59 2.143 . S
O61 Co60 2.160 . S
C62 O63 1.278 . S
C62 O70 1.224 . S
O63 C62 1.278 . S
C64 O65 1.245 . S
C64 O76 1.232 . S
O65 C64 1.245 . S
O66 Co60 2.058 . S
O66 C92 1.269 . S
O67 Co59 2.074 . S
O67 C92 1.257 . S
H68 C93 0.930 . S
H69 C99 0.930 . S
O70 Co59 2.093 . S
O70 C62 1.224 . S
H71 C103 0.929 . S
H72 C105 0.930 . S
H73 C106 0.930 . S
H74 C104 0.929 . S
H75 C107 0.928 . S
O76 Co60 2.057 . S
O76 C64 1.232 . S
H77 C96 0.929 . S
H78 C97 0.929 . S
H79 C109 0.931 . S
H80 C101 0.929 . S
H81 C110 0.930 . S
H82 C102 0.931 . S
O83 Co59 2.097 . S
O83 C111 1.214 . S
H84 C112 0.929 . S
H85 C113 0.929 . S
H86 C114 0.930 . S
H87 C115 0.929 . S
H88 C117 0.930 . S
H89 C94 0.930 . S
H90 C98 0.930 . S
O91 Co60 2.037 . S
O91 C111 1.234 . S
C92 O66 1.269 . S
C92 O67 1.257 . S
C93 H68 0.930 . S
C93 C96 1.388 . S
C93 C98 1.418 . S
C94 H89 0.930 . S
C94 C97 1.404 . S
C94 C98 1.353 . S
N95 Co60 2.145 . S
N95 C96 1.397 . S
N95 C97 1.334 . S
C96 H77 0.929 . S
C96 C93 1.388 . S
C96 N95 1.397 . S
C97 H78 0.929 . S
C97 C94 1.404 . S
C97 N95 1.334 . S
C98 H90 0.930 . S
C98 C93 1.418 . S
C98 C94 1.353 . S
C99 H69 0.930 . S
C99 N100 1.330 . S
C99 C101 1.446 . S
N100 Co59 2.151 . S
N100 C99 1.330 . S
N100 C104 1.418 . S
C101 H80 0.929 . S
C101 C99 1.446 . S
C101 C102 1.332 . S
C102 H82 0.931 . S
C102 C101 1.332 . S
C102 C103 1.267 . S
C103 H71 0.929 . S
C103 C102 1.267 . S
C103 C104 1.251 . S
C104 H74 0.929 . S
C104 N100 1.418 . S
C104 C103 1.251 . S
C105 H72 0.930 . S
C105 C107 1.406 . S
C105 C110 1.261 . S
C106 H73 0.930 . S
C106 N108 1.325 . S
C106 C109 1.357 . S
C107 H75 0.928 . S
C107 C105 1.406 . S
C107 N108 1.261 . S
N108 Co59 2.214 . S
N108 C106 1.325 . S
N108 C107 1.261 . S
C109 H79 0.931 . S
C109 C106 1.357 . S
C109 C110 1.312 . S
C110 H81 0.930 . S
C110 C105 1.261 . S
C110 C109 1.312 . S
C111 O83 1.214 . S
C111 O91 1.234 . S
C112 H84 0.929 . S
C112 C115 1.391 . S
C112 C117 1.391 . S
C113 H85 0.929 . S
C113 C114 1.390 . S
C113 N116 1.391 . S
C114 H86 0.930 . S
C114 C113 1.390 . S
C114 C115 1.392 . S
C115 H87 0.929 . S
C115 C112 1.391 . S
C115 C114 1.392 . S
N116 Co60 2.257 . S
N116 C113 1.391 . S
N116 C117 1.388 . S
C117 H88 0.930 . S
C117 C112 1.391 . S
C117 N116 1.388 . S
Co118 O120 2.143 . S
Co118 O126 2.074 . S
Co118 O129 2.093 . S
Co118 O142 2.097 . S
Co118 N159 2.151 . S
Co118 N167 2.214 . S
Co119 O120 2.160 . S
Co119 O125 2.058 . S
Co119 O135 2.057 . S
Co119 O150 2.037 . S
Co119 N154 2.145 . S
Co119 N175 2.257 . S
O120 Co118 2.143 . S
O120 Co119 2.160 . S
C121 O122 1.278 . S
C121 O129 1.224 . S
O122 C121 1.278 . S
C123 O124 1.245 . S
C123 O135 1.232 . S
O124 C123 1.245 . S
O125 Co119 2.058 . S
O125 C151 1.269 . S
O126 Co118 2.074 . S
O126 C151 1.257 . S
H127 C152 0.930 . S
H128 C158 0.930 . S
O129 Co118 2.093 . S
O129 C121 1.224 . S
H130 C162 0.929 . S
H131 C164 0.930 . S
H132 C165 0.930 . S
H133 C163 0.929 . S
H134 C166 0.928 . S
O135 Co119 2.057 . S
O135 C123 1.232 . S
H136 C155 0.929 . S
H137 C156 0.929 . S
H138 C168 0.931 . S
H139 C160 0.929 . S
H140 C169 0.930 . S
H141 C161 0.931 . S
O142 Co118 2.097 . S
O142 C170 1.214 . S
H143 C171 0.929 . S
H144 C172 0.929 . S
H145 C173 0.930 . S
H146 C174 0.929 . S
H147 C176 0.930 . S
H148 C153 0.930 . S
H149 C157 0.930 . S
O150 Co119 2.037 . S
O150 C170 1.234 . S
C151 O125 1.269 . S
C151 O126 1.257 . S
C152 H127 0.930 . S
C152 C155 1.388 . S
C152 C157 1.418 . S
C153 H148 0.930 . S
C153 C156 1.404 . S
C153 C157 1.353 . S
N154 Co119 2.145 . S
N154 C155 1.397 . S
N154 C156 1.334 . S
C155 H136 0.929 . S
C155 C152 1.388 . S
C155 N154 1.397 . S
C156 H137 0.929 . S
C156 C153 1.404 . S
C156 N154 1.334 . S
C157 H149 0.930 . S
C157 C152 1.418 . S
C157 C153 1.353 . S
C158 H128 0.930 . S
C158 N159 1.330 . S
C158 C160 1.446 . S
N159 Co118 2.151 . S
N159 C158 1.330 . S
N159 C163 1.418 . S
C160 H139 0.929 . S
C160 C158 1.446 . S
C160 C161 1.332 . S
C161 H141 0.931 . S
C161 C160 1.332 . S
C161 C162 1.267 . S
C162 H130 0.929 . S
C162 C161 1.267 . S
C162 C163 1.251 . S
C163 H133 0.929 . S
C163 N159 1.418 . S
C163 C162 1.251 . S
C164 H131 0.930 . S
C164 C166 1.406 . S
C164 C169 1.261 . S
C165 H132 0.930 . S
C165 N167 1.325 . S
C165 C168 1.357 . S
C166 H134 0.928 . S
C166 C164 1.406 . S
C166 N167 1.261 . S
N167 Co118 2.214 . S
N167 C165 1.325 . S
N167 C166 1.261 . S
C168 H138 0.931 . S
C168 C165 1.357 . S
C168 C169 1.312 . S
C169 H140 0.930 . S
C169 C164 1.261 . S
C169 C168 1.312 . S
C170 O142 1.214 . S
C170 O150 1.234 . S
C171 H143 0.929 . S
C171 C174 1.391 . S
C171 C176 1.391 . S
C172 H144 0.929 . S
C172 C173 1.390 . S
C172 N175 1.391 . S
C173 H145 0.930 . S
C173 C172 1.390 . S
C173 C174 1.392 . S
C174 H146 0.929 . S
C174 C171 1.391 . S
C174 C173 1.392 . S
N175 Co119 2.257 . S
N175 C172 1.391 . S
N175 C176 1.388 . S
C176 H147 0.930 . S
C176 C171 1.391 . S
C176 N175 1.388 . S
Co177 O179 2.143 . S
Co177 O185 2.074 . S
Co177 O188 2.093 . S
Co177 O201 2.097 . S
Co177 N218 2.151 . S
Co177 N226 2.214 . S
Co178 O179 2.160 . S
Co178 O184 2.058 . S
Co178 O194 2.057 . S
Co178 O209 2.037 . S
Co178 N213 2.145 . S
Co178 N234 2.257 . S
O179 Co177 2.143 . S
O179 Co178 2.160 . S
C180 O181 1.278 . S
C180 O188 1.224 . S
O181 C180 1.278 . S
C182 O183 1.245 . S
C182 O194 1.232 . S
O183 C182 1.245 . S
O184 Co178 2.058 . S
O184 C210 1.269 . S
O185 Co177 2.074 . S
O185 C210 1.257 . S
H186 C211 0.930 . S
H187 C217 0.930 . S
O188 Co177 2.093 . S
O188 C180 1.224 . S
H189 C221 0.929 . S
H190 C223 0.930 . S
H191 C224 0.930 . S
H192 C222 0.929 . S
H193 C225 0.928 . S
O194 Co178 2.057 . S
O194 C182 1.232 . S
H195 C214 0.929 . S
H196 C215 0.929 . S
H197 C227 0.931 . S
H198 C219 0.929 . S
H199 C228 0.930 . S
H200 C220 0.931 . S
O201 Co177 2.097 . S
O201 C229 1.214 . S
H202 C230 0.929 . S
H203 C231 0.929 . S
H204 C232 0.930 . S
H205 C233 0.929 . S
H206 C235 0.930 . S
H207 C212 0.930 . S
H208 C216 0.930 . S
O209 Co178 2.037 . S
O209 C229 1.234 . S
C210 O184 1.269 . S
C210 O185 1.257 . S
C211 H186 0.930 . S
C211 C214 1.388 . S
C211 C216 1.418 . S
C212 H207 0.930 . S
C212 C215 1.404 . S
C212 C216 1.353 . S
N213 Co178 2.145 . S
N213 C214 1.397 . S
N213 C215 1.334 . S
C214 H195 0.929 . S
C214 C211 1.388 . S
C214 N213 1.397 . S
C215 H196 0.929 . S
C215 C212 1.404 . S
C215 N213 1.334 . S
C216 H208 0.930 . S
C216 C211 1.418 . S
C216 C212 1.353 . S
C217 H187 0.930 . S
C217 N218 1.330 . S
C217 C219 1.446 . S
N218 Co177 2.151 . S
N218 C217 1.330 . S
N218 C222 1.418 . S
C219 H198 0.929 . S
C219 C217 1.446 . S
C219 C220 1.332 . S
C220 H200 0.931 . S
C220 C219 1.332 . S
C220 C221 1.267 . S
C221 H189 0.929 . S
C221 C220 1.267 . S
C221 C222 1.251 . S
C222 H192 0.929 . S
C222 N218 1.418 . S
C222 C221 1.251 . S
C223 H190 0.930 . S
C223 C225 1.406 . S
C223 C228 1.261 . S
C224 H191 0.930 . S
C224 N226 1.325 . S
C224 C227 1.357 . S
C225 H193 0.928 . S
C225 C223 1.406 . S
C225 N226 1.261 . S
N226 Co177 2.214 . S
N226 C224 1.325 . S
N226 C225 1.261 . S
C227 H197 0.931 . S
C227 C224 1.357 . S
C227 C228 1.312 . S
C228 H199 0.930 . S
C228 C223 1.261 . S
C228 C227 1.312 . S
C229 O201 1.214 . S
C229 O209 1.234 . S
C230 H202 0.929 . S
C230 C233 1.391 . S
C230 C235 1.391 . S
C231 H203 0.929 . S
C231 C232 1.390 . S
C231 N234 1.391 . S
C232 H204 0.930 . S
C232 C231 1.390 . S
C232 C233 1.392 . S
C233 H205 0.929 . S
C233 C230 1.391 . S
C233 C232 1.392 . S
N234 Co178 2.257 . S
N234 C231 1.391 . S
N234 C235 1.388 . S
C235 H206 0.930 . S
C235 C230 1.391 . S
C235 N234 1.388 . S
Co236 O238 2.143 . S
Co236 O244 2.074 . S
Co236 O247 2.093 . S
Co236 O260 2.097 . S
Co236 N277 2.151 . S
Co236 N285 2.214 . S
Co237 O238 2.160 . S
Co237 O243 2.058 . S
Co237 O253 2.057 . S
Co237 O268 2.037 . S
Co237 N272 2.145 . S
Co237 N293 2.257 . S
O238 Co236 2.143 . S
O238 Co237 2.160 . S
C239 O240 1.278 . S
C239 O247 1.224 . S
O240 C239 1.278 . S
C241 O242 1.245 . S
C241 O253 1.232 . S
O242 C241 1.245 . S
O243 Co237 2.058 . S
O243 C269 1.269 . S
O244 Co236 2.074 . S
O244 C269 1.257 . S
H245 C270 0.930 . S
H246 C276 0.930 . S
O247 Co236 2.093 . S
O247 C239 1.224 . S
H248 C280 0.929 . S
H249 C282 0.930 . S
H250 C283 0.930 . S
H251 C281 0.929 . S
H252 C284 0.928 . S
O253 Co237 2.057 . S
O253 C241 1.232 . S
H254 C273 0.929 . S
H255 C274 0.929 . S
H256 C286 0.931 . S
H257 C278 0.929 . S
H258 C287 0.930 . S
H259 C279 0.931 . S
O260 Co236 2.097 . S
O260 C288 1.214 . S
H261 C289 0.929 . S
H262 C290 0.929 . S
H263 C291 0.930 . S
H264 C292 0.929 . S
H265 C294 0.930 . S
H266 C271 0.930 . S
H267 C275 0.930 . S
O268 Co237 2.037 . S
O268 C288 1.234 . S
C269 O243 1.269 . S
C269 O244 1.257 . S
C270 H245 0.930 . S
C270 C273 1.388 . S
C270 C275 1.418 . S
C271 H266 0.930 . S
C271 C274 1.404 . S
C271 C275 1.353 . S
N272 Co237 2.145 . S
N272 C273 1.397 . S
N272 C274 1.334 . S
C273 H254 0.929 . S
C273 C270 1.388 . S
C273 N272 1.397 . S
C274 H255 0.929 . S
C274 C271 1.404 . S
C274 N272 1.334 . S
C275 H267 0.930 . S
C275 C270 1.418 . S
C275 C271 1.353 . S
C276 H246 0.930 . S
C276 N277 1.330 . S
C276 C278 1.446 . S
N277 Co236 2.151 . S
N277 C276 1.330 . S
N277 C281 1.418 . S
C278 H257 0.929 . S
C278 C276 1.446 . S
C278 C279 1.332 . S
C279 H259 0.931 . S
C279 C278 1.332 . S
C279 C280 1.267 . S
C280 H248 0.929 . S
C280 C279 1.267 . S
C280 C281 1.251 . S
C281 H251 0.929 . S
C281 N277 1.418 . S
C281 C280 1.251 . S
C282 H249 0.930 . S
C282 C284 1.406 . S
C282 C287 1.261 . S
C283 H250 0.930 . S
C283 N285 1.325 . S
C283 C286 1.357 . S
C284 H252 0.928 . S
C284 C282 1.406 . S
C284 N285 1.261 . S
N285 Co236 2.214 . S
N285 C283 1.325 . S
N285 C284 1.261 . S
C286 H256 0.931 . S
C286 C283 1.357 . S
C286 C287 1.312 . S
C287 H258 0.930 . S
C287 C282 1.261 . S
C287 C286 1.312 . S
C288 O260 1.214 . S
C288 O268 1.234 . S
C289 H261 0.929 . S
C289 C292 1.391 . S
C289 C294 1.391 . S
C290 H262 0.929 . S
C290 C291 1.390 . S
C290 N293 1.391 . S
C291 H263 0.930 . S
C291 C290 1.390 . S
C291 C292 1.392 . S
C292 H264 0.929 . S
C292 C289 1.391 . S
C292 C291 1.392 . S
N293 Co237 2.257 . S
N293 C290 1.391 . S
N293 C294 1.388 . S
C294 H265 0.930 . S
C294 C289 1.391 . S
C294 N293 1.388 . S
Co295 O297 2.143 . S
Co295 O303 2.074 . S
Co295 O306 2.093 . S
Co295 O319 2.097 . S
Co295 N336 2.151 . S
Co295 N344 2.214 . S
Co296 O297 2.160 . S
Co296 O302 2.058 . S
Co296 O312 2.057 . S
Co296 O327 2.037 . S
Co296 N331 2.145 . S
Co296 N352 2.257 . S
O297 Co295 2.143 . S
O297 Co296 2.160 . S
C298 O299 1.278 . S
C298 O306 1.224 . S
O299 C298 1.278 . S
C300 O301 1.245 . S
C300 O312 1.232 . S
O301 C300 1.245 . S
O302 Co296 2.058 . S
O302 C328 1.269 . S
O303 Co295 2.074 . S
O303 C328 1.257 . S
H304 C329 0.930 . S
H305 C335 0.930 . S
O306 Co295 2.093 . S
O306 C298 1.224 . S
H307 C339 0.929 . S
H308 C341 0.930 . S
H309 C342 0.930 . S
H310 C340 0.929 . S
H311 C343 0.928 . S
O312 Co296 2.057 . S
O312 C300 1.232 . S
H313 C332 0.929 . S
H314 C333 0.929 . S
H315 C345 0.931 . S
H316 C337 0.929 . S
H317 C346 0.930 1_655 S
H318 C338 0.931 . S
O319 Co295 2.097 . S
O319 C347 1.214 . S
H320 C348 0.929 . S
H321 C349 0.929 . S
H322 C350 0.930 . S
H323 C351 0.929 . S
H324 C353 0.930 . S
H325 C330 0.930 . S
H326 C334 0.930 . S
O327 Co296 2.037 . S
O327 C347 1.234 . S
C328 O302 1.269 . S
C328 O303 1.257 . S
C329 H304 0.930 . S
C329 C332 1.388 . S
C329 C334 1.418 . S
C330 H325 0.930 . S
C330 C333 1.404 . S
C330 C334 1.353 . S
N331 Co296 2.145 . S
N331 C332 1.397 . S
N331 C333 1.334 . S
C332 H313 0.929 . S
C332 C329 1.388 . S
C332 N331 1.397 . S
C333 H314 0.929 . S
C333 C330 1.404 . S
C333 N331 1.334 . S
C334 H326 0.930 . S
C334 C329 1.418 . S
C334 C330 1.353 . S
C335 H305 0.930 . S
C335 N336 1.330 . S
C335 C337 1.446 . S
N336 Co295 2.151 . S
N336 C335 1.330 . S
N336 C340 1.418 . S
C337 H316 0.929 . S
C337 C335 1.446 . S
C337 C338 1.332 . S
C338 H318 0.931 . S
C338 C337 1.332 . S
C338 C339 1.267 . S
C339 H307 0.929 . S
C339 C338 1.267 . S
C339 C340 1.251 . S
C340 H310 0.929 . S
C340 N336 1.418 . S
C340 C339 1.251 . S
C341 H308 0.930 . S
C341 C343 1.406 . S
C341 C346 1.261 . S
C342 H309 0.930 . S
C342 N344 1.325 . S
C342 C345 1.357 . S
C343 H311 0.928 . S
C343 C341 1.406 . S
C343 N344 1.261 . S
N344 Co295 2.214 . S
N344 C342 1.325 . S
N344 C343 1.261 . S
C345 H315 0.931 . S
C345 C342 1.357 . S
C345 C346 1.312 . S
C346 H317 0.930 1_455 S
C346 C341 1.261 . S
C346 C345 1.312 . S
C347 O319 1.214 . S
C347 O327 1.234 . S
C348 H320 0.929 . S
C348 C351 1.391 . S
C348 C353 1.391 . S
C349 H321 0.929 . S
C349 C350 1.390 . S
C349 N352 1.391 . S
C350 H322 0.930 . S
C350 C349 1.390 . S
C350 C351 1.392 . S
C351 H323 0.929 . S
C351 C348 1.391 . S
C351 C350 1.392 . S
N352 Co296 2.257 . S
N352 C349 1.391 . S
N352 C353 1.388 . S
C353 H324 0.930 . S
C353 C348 1.391 . S
C353 N352 1.388 . S
Co354 O356 2.143 . S
Co354 O362 2.074 . S
Co354 O365 2.093 . S
Co354 O378 2.097 . S
Co354 N395 2.151 . S
Co354 N403 2.214 . S
Co355 O356 2.160 . S
Co355 O361 2.058 . S
Co355 O371 2.057 . S
Co355 O386 2.037 . S
Co355 N390 2.145 . S
Co355 N411 2.257 . S
O356 Co354 2.143 . S
O356 Co355 2.160 . S
C357 O358 1.278 . S
C357 O365 1.224 . S
O358 C357 1.278 . S
C359 O360 1.245 . S
C359 O371 1.232 . S
O360 C359 1.245 . S
O361 Co355 2.058 . S
O361 C387 1.269 . S
O362 Co354 2.074 . S
O362 C387 1.257 . S
H363 C388 0.930 . S
H364 C394 0.930 . S
O365 Co354 2.093 . S
O365 C357 1.224 . S
H366 C398 0.929 . S
H367 C400 0.930 . S
H368 C401 0.930 . S
H369 C399 0.929 . S
H370 C402 0.928 . S
O371 Co355 2.057 . S
O371 C359 1.232 . S
H372 C391 0.929 . S
H373 C392 0.929 . S
H374 C404 0.931 . S
H375 C396 0.929 . S
H376 C405 0.930 . S
H377 C397 0.931 . S
O378 Co354 2.097 . S
O378 C406 1.214 . S
H379 C407 0.929 . S
H380 C408 0.929 . S
H381 C409 0.930 . S
H382 C410 0.929 . S
H383 C412 0.930 . S
H384 C389 0.930 . S
H385 C393 0.930 . S
O386 Co355 2.037 . S
O386 C406 1.234 . S
C387 O361 1.269 . S
C387 O362 1.257 . S
C388 H363 0.930 . S
C388 C391 1.388 . S
C388 C393 1.418 . S
C389 H384 0.930 . S
C389 C392 1.404 . S
C389 C393 1.353 . S
N390 Co355 2.145 . S
N390 C391 1.397 . S
N390 C392 1.334 . S
C391 H372 0.929 . S
C391 C388 1.388 . S
C391 N390 1.397 . S
C392 H373 0.929 . S
C392 C389 1.404 . S
C392 N390 1.334 . S
C393 H385 0.930 . S
C393 C388 1.418 . S
C393 C389 1.353 . S
C394 H364 0.930 . S
C394 N395 1.330 . S
C394 C396 1.446 . S
N395 Co354 2.151 . S
N395 C394 1.330 . S
N395 C399 1.418 . S
C396 H375 0.929 . S
C396 C394 1.446 . S
C396 C397 1.332 . S
C397 H377 0.931 . S
C397 C396 1.332 . S
C397 C398 1.267 . S
C398 H366 0.929 . S
C398 C397 1.267 . S
C398 C399 1.251 . S
C399 H369 0.929 . S
C399 N395 1.418 . S
C399 C398 1.251 . S
C400 H367 0.930 . S
C400 C402 1.406 . S
C400 C405 1.261 . S
C401 H368 0.930 . S
C401 N403 1.325 . S
C401 C404 1.357 . S
C402 H370 0.928 . S
C402 C400 1.406 . S
C402 N403 1.261 . S
N403 Co354 2.214 . S
N403 C401 1.325 . S
N403 C402 1.261 . S
C404 H374 0.931 . S
C404 C401 1.357 . S
C404 C405 1.312 . S
C405 H376 0.930 . S
C405 C400 1.261 . S
C405 C404 1.312 . S
C406 O378 1.214 . S
C406 O386 1.234 . S
C407 H379 0.929 . S
C407 C410 1.391 . S
C407 C412 1.391 . S
C408 H380 0.929 . S
C408 C409 1.390 . S
C408 N411 1.391 . S
C409 H381 0.930 . S
C409 C408 1.390 . S
C409 C410 1.392 . S
C410 H382 0.929 . S
C410 C407 1.391 . S
C410 C409 1.392 . S
N411 Co355 2.257 . S
N411 C408 1.391 . S
N411 C412 1.388 . S
C412 H383 0.930 . S
C412 C407 1.391 . S
C412 N411 1.388 . S
Co413 O415 2.143 . S
Co413 O421 2.074 . S
Co413 O424 2.093 . S
Co413 O437 2.097 . S
Co413 N454 2.151 . S
Co413 N462 2.214 . S
Co414 O415 2.160 . S
Co414 O420 2.058 . S
Co414 O430 2.057 . S
Co414 O445 2.037 . S
Co414 N449 2.145 . S
Co414 N470 2.257 . S
O415 Co413 2.143 . S
O415 Co414 2.160 . S
C416 O417 1.278 . S
C416 O424 1.224 . S
O417 C416 1.278 . S
C418 O419 1.245 . S
C418 O430 1.232 . S
O419 C418 1.245 . S
O420 Co414 2.058 . S
O420 C446 1.269 . S
O421 Co413 2.074 . S
O421 C446 1.257 . S
H422 C447 0.930 . S
H423 C453 0.930 . S
O424 Co413 2.093 . S
O424 C416 1.224 . S
H425 C457 0.929 . S
H426 C459 0.930 . S
H427 C460 0.930 . S
H428 C458 0.929 . S
H429 C461 0.928 . S
O430 Co414 2.057 . S
O430 C418 1.232 . S
H431 C450 0.929 . S
H432 C451 0.929 . S
H433 C463 0.931 . S
H434 C455 0.929 . S
H435 C464 0.950 . S
H436 C456 0.931 . S
O437 Co413 2.097 . S
O437 C465 1.214 . S
H438 C466 0.929 . S
H439 C467 0.929 . S
H440 C468 0.930 . S
H441 C469 0.929 . S
H442 C471 0.930 . S
H443 C448 0.930 . S
H444 C452 0.930 . S
O445 Co414 2.037 . S
O445 C465 1.234 . S
C446 O420 1.269 . S
C446 O421 1.257 . S
C447 H422 0.930 . S
C447 C450 1.388 . S
C447 C452 1.418 . S
C448 H443 0.930 . S
C448 C451 1.404 . S
C448 C452 1.353 . S
N449 Co414 2.145 . S
N449 C450 1.397 . S
N449 C451 1.334 . S
C450 H431 0.929 . S
C450 C447 1.388 . S
C450 N449 1.397 . S
C451 H432 0.929 . S
C451 C448 1.404 . S
C451 N449 1.334 . S
C452 H444 0.930 . S
C452 C447 1.418 . S
C452 C448 1.353 . S
C453 H423 0.930 . S
C453 N454 1.330 . S
C453 C455 1.446 . S
N454 Co413 2.151 . S
N454 C453 1.330 . S
N454 C458 1.418 . S
C455 H434 0.929 . S
C455 C453 1.446 . S
C455 C456 1.332 . S
C456 H436 0.931 . S
C456 C455 1.332 . S
C456 C457 1.267 . S
C457 H425 0.929 . S
C457 C456 1.267 . S
C457 C458 1.251 . S
C458 H428 0.929 . S
C458 N454 1.418 . S
C458 C457 1.251 . S
C459 H426 0.930 . S
C459 C461 1.406 . S
C459 C464 1.261 . S
C460 H427 0.930 . S
C460 N462 1.325 . S
C460 C463 1.357 . S
C461 H429 0.928 . S
C461 C459 1.406 . S
C461 N462 1.261 . S
N462 Co413 2.214 . S
N462 C460 1.325 . S
N462 C461 1.261 . S
C463 H433 0.931 . S
C463 C460 1.357 . S
C463 C464 1.312 . S
C464 H435 0.950 . S
C464 C459 1.261 . S
C464 C463 1.312 . S
C465 O437 1.214 . S
C465 O445 1.234 . S
C466 H438 0.929 . S
C466 C469 1.391 . S
C466 C471 1.391 . S
C467 H439 0.929 . S
C467 C468 1.390 . S
C467 N470 1.391 . S
C468 H440 0.930 . S
C468 C467 1.390 . S
C468 C469 1.392 . S
C469 H441 0.929 . S
C469 C466 1.391 . S
C469 C468 1.392 . S
N470 Co414 2.257 . S
N470 C467 1.391 . S
N470 C471 1.388 . S
C471 H442 0.930 . S
C471 C466 1.391 . S
C471 N470 1.388 . S
Co472 O474 2.143 . S
Co472 O480 2.074 . S
Co472 O483 2.093 . S
Co472 O496 2.097 . S
Co472 N513 2.151 . S
Co472 N521 2.214 . S
Co473 O474 2.160 . S
Co473 O479 2.058 . S
Co473 O489 2.057 . S
Co473 O504 2.037 . S
Co473 N508 2.145 . S
Co473 N529 2.257 . S
O474 Co472 2.143 . S
O474 Co473 2.160 . S
C475 O476 1.278 . S
C475 O483 1.224 . S
O476 C475 1.278 . S
C477 O478 1.245 . S
C477 O489 1.232 . S
O478 C477 1.245 . S
O479 Co473 2.058 . S
O479 C505 1.269 . S
O480 Co472 2.074 . S
O480 C505 1.257 . S
H481 C506 0.930 . S
H482 C512 0.930 . S
O483 Co472 2.093 . S
O483 C475 1.224 . S
H484 C516 0.929 . S
H485 C518 0.930 . S
H486 C519 0.930 . S
H487 C517 0.929 . S
H488 C520 0.928 . S
O489 Co473 2.057 . S
O489 C477 1.232 . S
H490 C509 0.929 . S
H491 C510 0.929 . S
H492 C522 0.931 . S
H493 C514 0.929 . S
H494 C523 0.930 . S
H495 C515 0.931 . S
O496 Co472 2.097 . S
O496 C524 1.214 . S
H497 C525 0.929 . S
H498 C526 0.929 . S
H499 C527 0.930 . S
H500 C528 0.929 . S
H501 C530 0.930 . S
H502 C507 0.930 . S
H503 C511 0.930 . S
O504 Co473 2.037 . S
O504 C524 1.234 . S
C505 O479 1.269 . S
C505 O480 1.257 . S
C506 H481 0.930 . S
C506 C509 1.388 . S
C506 C511 1.418 . S
C507 H502 0.930 . S
C507 C510 1.404 . S
C507 C511 1.353 . S
N508 Co473 2.145 . S
N508 C509 1.397 . S
N508 C510 1.334 . S
C509 H490 0.929 . S
C509 C506 1.388 . S
C509 N508 1.397 . S
C510 H491 0.929 . S
C510 C507 1.404 . S
C510 N508 1.334 . S
C511 H503 0.930 . S
C511 C506 1.418 . S
C511 C507 1.353 . S
C512 H482 0.930 . S
C512 N513 1.330 . S
C512 C514 1.446 . S
N513 Co472 2.151 . S
N513 C512 1.330 . S
N513 C517 1.418 . S
C514 H493 0.929 . S
C514 C512 1.446 . S
C514 C515 1.332 . S
C515 H495 0.931 . S
C515 C514 1.332 . S
C515 C516 1.267 . S
C516 H484 0.929 . S
C516 C515 1.267 . S
C516 C517 1.251 . S
C517 H487 0.929 . S
C517 N513 1.418 . S
C517 C516 1.251 . S
C518 H485 0.930 . S
C518 C520 1.406 . S
C518 C523 1.261 . S
C519 H486 0.930 . S
C519 N521 1.325 . S
C519 C522 1.357 . S
C520 H488 0.928 . S
C520 C518 1.406 . S
C520 N521 1.261 . S
N521 Co472 2.214 . S
N521 C519 1.325 . S
N521 C520 1.261 . S
C522 H492 0.931 . S
C522 C519 1.357 . S
C522 C523 1.312 . S
C523 H494 0.930 . S
C523 C518 1.261 . S
C523 C522 1.312 . S
C524 O496 1.214 . S
C524 O504 1.234 . S
C525 H497 0.929 . S
C525 C528 1.391 . S
C525 C530 1.391 . S
C526 H498 0.929 . S
C526 C527 1.390 . S
C526 N529 1.391 . S
C527 H499 0.930 . S
C527 C526 1.390 . S
C527 C528 1.392 . S
C528 H500 0.929 . S
C528 C525 1.391 . S
C528 C527 1.392 . S
N529 Co473 2.257 . S
N529 C526 1.391 . S
N529 C530 1.388 . S
C530 H501 0.930 . S
C530 C525 1.391 . S
C530 N529 1.388 . S
Co531 O533 2.143 . S
Co531 O539 2.074 . S
Co531 O542 2.093 . S
Co531 O555 2.097 . S
Co531 N572 2.151 . S
Co531 N580 2.214 . S
Co532 O533 2.160 . S
Co532 O538 2.058 . S
Co532 O548 2.057 . S
Co532 O563 2.037 . S
Co532 N567 2.145 . S
Co532 N588 2.257 . S
O533 Co531 2.143 . S
O533 Co532 2.160 . S
C534 O535 1.278 . S
C534 O542 1.224 . S
O535 C534 1.278 . S
C536 O537 1.245 . S
C536 O548 1.232 . S
O537 C536 1.245 . S
O538 Co532 2.058 . S
O538 C564 1.269 . S
O539 Co531 2.074 . S
O539 C564 1.257 . S
H540 C565 0.930 . S
H541 C571 0.930 . S
O542 Co531 2.093 . S
O542 C534 1.224 . S
H543 C575 0.929 . S
H544 C577 0.930 . S
H545 C578 0.930 . S
H546 C576 0.929 . S
H547 C579 0.928 . S
O548 Co532 2.057 . S
O548 C536 1.232 . S
H549 C568 0.929 . S
H550 C569 0.929 . S
H551 C581 0.931 . S
H552 C573 0.929 . S
H553 C582 0.930 . S
H554 C574 0.931 . S
O555 Co531 2.097 . S
O555 C583 1.214 . S
H556 C584 0.929 . S
H557 C585 0.929 . S
H558 C586 0.930 . S
H559 C587 0.929 . S
H560 C589 0.930 . S
H561 C566 0.930 . S
H562 C570 0.930 . S
O563 Co532 2.037 . S
O563 C583 1.234 . S
C564 O538 1.269 . S
C564 O539 1.257 . S
C565 H540 0.930 . S
C565 C568 1.388 . S
C565 C570 1.418 . S
C566 H561 0.930 . S
C566 C569 1.404 . S
C566 C570 1.353 . S
N567 Co532 2.145 . S
N567 C568 1.397 . S
N567 C569 1.334 . S
C568 H549 0.929 . S
C568 C565 1.388 . S
C568 N567 1.397 . S
C569 H550 0.929 . S
C569 C566 1.404 . S
C569 N567 1.334 . S
C570 H562 0.930 . S
C570 C565 1.418 . S
C570 C566 1.353 . S
C571 H541 0.930 . S
C571 N572 1.330 . S
C571 C573 1.446 . S
N572 Co531 2.151 . S
N572 C571 1.330 . S
N572 C576 1.418 . S
C573 H552 0.929 . S
C573 C571 1.446 . S
C573 C574 1.332 . S
C574 H554 0.931 . S
C574 C573 1.332 . S
C574 C575 1.267 . S
C575 H543 0.929 . S
C575 C574 1.267 . S
C575 C576 1.251 . S
C576 H546 0.929 . S
C576 N572 1.418 . S
C576 C575 1.251 . S
C577 H544 0.930 . S
C577 C579 1.406 . S
C577 C582 1.261 . S
C578 H545 0.930 . S
C578 N580 1.325 . S
C578 C581 1.357 . S
C579 H547 0.928 . S
C579 C577 1.406 . S
C579 N580 1.261 . S
N580 Co531 2.214 . S
N580 C578 1.325 . S
N580 C579 1.261 . S
C581 H551 0.931 . S
C581 C578 1.357 . S
C581 C582 1.312 . S
C582 H553 0.930 . S
C582 C577 1.261 . S
C582 C581 1.312 . S
C583 O555 1.214 . S
C583 O563 1.234 . S
C584 H556 0.929 . S
C584 C587 1.391 . S
C584 C589 1.391 . S
C585 H557 0.929 . S
C585 C586 1.390 . S
C585 N588 1.391 . S
C586 H558 0.930 . S
C586 C585 1.390 . S
C586 C587 1.392 . S
C587 H559 0.929 . S
C587 C584 1.391 . S
C587 C586 1.392 . S
N588 Co532 2.257 . S
N588 C585 1.391 . S
N588 C589 1.388 . S
C589 H560 0.930 . S
C589 C584 1.391 . S
C589 N588 1.388 . S
Co590 O592 2.143 . S
Co590 O598 2.074 . S
Co590 O601 2.093 . S
Co590 O614 2.097 . S
Co590 N631 2.151 . S
Co590 N639 2.214 . S
Co591 O592 2.160 . S
Co591 O597 2.058 . S
Co591 O607 2.057 . S
Co591 O622 2.037 . S
Co591 N626 2.145 . S
Co591 N647 2.257 . S
O592 Co590 2.143 . S
O592 Co591 2.160 . S
C593 O594 1.278 . S
C593 O601 1.224 . S
O594 C593 1.278 . S
C595 O596 1.245 . S
C595 O607 1.232 . S
O596 C595 1.245 . S
O597 Co591 2.058 . S
O597 C623 1.269 . S
O598 Co590 2.074 . S
O598 C623 1.257 . S
H599 C624 0.930 . S
H600 C630 0.930 . S
O601 Co590 2.093 . S
O601 C593 1.224 . S
H602 C634 0.929 . S
H603 C636 0.930 . S
H604 C637 0.930 . S
H605 C635 0.929 . S
H606 C638 0.928 . S
O607 Co591 2.057 . S
O607 C595 1.232 . S
H608 C627 0.929 . S
H609 C628 0.929 . S
H610 C640 0.931 . S
H611 C632 0.929 . S
H612 C641 0.930 . S
H613 C633 0.931 . S
O614 Co590 2.097 . S
O614 C642 1.214 . S
H615 C643 0.929 . S
H616 C644 0.929 . S
H617 C645 0.930 . S
H618 C646 0.929 . S
H619 C648 0.930 . S
H620 C625 0.930 . S
H621 C629 0.930 . S
O622 Co591 2.037 . S
O622 C642 1.234 . S
C623 O597 1.269 . S
C623 O598 1.257 . S
C624 H599 0.930 . S
C624 C627 1.388 . S
C624 C629 1.418 . S
C625 H620 0.930 . S
C625 C628 1.404 . S
C625 C629 1.353 . S
N626 Co591 2.145 . S
N626 C627 1.397 . S
N626 C628 1.334 . S
C627 H608 0.929 . S
C627 C624 1.388 . S
C627 N626 1.397 . S
C628 H609 0.929 . S
C628 C625 1.404 . S
C628 N626 1.334 . S
C629 H621 0.930 . S
C629 C624 1.418 . S
C629 C625 1.353 . S
C630 H600 0.930 . S
C630 N631 1.330 . S
C630 C632 1.446 . S
N631 Co590 2.151 . S
N631 C630 1.330 . S
N631 C635 1.418 . S
C632 H611 0.929 . S
C632 C630 1.446 . S
C632 C633 1.332 . S
C633 H613 0.931 . S
C633 C632 1.332 . S
C633 C634 1.267 . S
C634 H602 0.929 . S
C634 C633 1.267 . S
C634 C635 1.251 . S
C635 H605 0.929 . S
C635 N631 1.418 . S
C635 C634 1.251 . S
C636 H603 0.930 . S
C636 C638 1.406 . S
C636 C641 1.261 . S
C637 H604 0.930 . S
C637 N639 1.325 . S
C637 C640 1.357 . S
C638 H606 0.928 . S
C638 C636 1.406 . S
C638 N639 1.261 . S
N639 Co590 2.214 . S
N639 C637 1.325 . S
N639 C638 1.261 . S
C640 H610 0.931 . S
C640 C637 1.357 . S
C640 C641 1.312 . S
C641 H612 0.930 . S
C641 C636 1.261 . S
C641 C640 1.312 . S
C642 O614 1.214 . S
C642 O622 1.234 . S
C643 H615 0.929 . S
C643 C646 1.391 . S
C643 C648 1.391 . S
C644 H616 0.929 . S
C644 C645 1.390 . S
C644 N647 1.391 . S
C645 H617 0.930 . S
C645 C644 1.390 . S
C645 C646 1.392 . S
C646 H618 0.929 . S
C646 C643 1.391 . S
C646 C645 1.392 . S
N647 Co591 2.257 . S
N647 C644 1.391 . S
N647 C648 1.388 . S
C648 H619 0.930 . S
C648 C643 1.391 . S
C648 N647 1.388 . S
Co649 O651 2.143 . S
Co649 O657 2.074 . S
Co649 O660 2.093 . S
Co649 O673 2.097 . S
Co649 N690 2.151 . S
Co649 N698 2.214 . S
Co650 O651 2.160 . S
Co650 O656 2.058 . S
Co650 O666 2.057 . S
Co650 O681 2.037 . S
Co650 N685 2.145 . S
Co650 N706 2.257 . S
O651 Co649 2.143 . S
O651 Co650 2.160 . S
C652 O653 1.278 . S
C652 O660 1.224 . S
O653 C652 1.278 . S
C654 O655 1.245 . S
C654 O666 1.232 . S
O655 C654 1.245 . S
O656 Co650 2.058 . S
O656 C682 1.269 . S
O657 Co649 2.074 . S
O657 C682 1.257 . S
H658 C683 0.930 . S
H659 C689 0.930 . S
O660 Co649 2.093 . S
O660 C652 1.224 . S
H661 C693 0.929 . S
H662 C695 0.930 . S
H663 C696 0.930 . S
H664 C694 0.929 . S
H665 C697 0.928 . S
O666 Co650 2.057 . S
O666 C654 1.232 . S
H667 C686 0.929 . S
H668 C687 0.929 . S
H669 C699 0.931 . S
H670 C691 0.929 . S
H671 C700 0.930 . S
H672 C692 0.931 . S
O673 Co649 2.097 . S
O673 C701 1.214 . S
H674 C702 0.929 . S
H675 C703 0.929 . S
H676 C704 0.930 . S
H677 C705 0.929 . S
H678 C707 0.930 . S
H679 C684 0.930 . S
H680 C688 0.930 . S
O681 Co650 2.037 . S
O681 C701 1.234 . S
C682 O656 1.269 . S
C682 O657 1.257 . S
C683 H658 0.930 . S
C683 C686 1.388 . S
C683 C688 1.418 . S
C684 H679 0.930 . S
C684 C687 1.404 . S
C684 C688 1.353 . S
N685 Co650 2.145 . S
N685 C686 1.397 . S
N685 C687 1.334 . S
C686 H667 0.929 . S
C686 C683 1.388 . S
C686 N685 1.397 . S
C687 H668 0.929 . S
C687 C684 1.404 . S
C687 N685 1.334 . S
C688 H680 0.930 . S
C688 C683 1.418 . S
C688 C684 1.353 . S
C689 H659 0.930 . S
C689 N690 1.330 . S
C689 C691 1.446 . S
N690 Co649 2.151 . S
N690 C689 1.330 . S
N690 C694 1.418 . S
C691 H670 0.929 . S
C691 C689 1.446 . S
C691 C692 1.332 . S
C692 H672 0.931 . S
C692 C691 1.332 . S
C692 C693 1.267 . S
C693 H661 0.929 . S
C693 C692 1.267 . S
C693 C694 1.251 . S
C694 H664 0.929 . S
C694 N690 1.418 . S
C694 C693 1.251 . S
C695 H662 0.930 . S
C695 C697 1.406 . S
C695 C700 1.261 . S
C696 H663 0.930 . S
C696 N698 1.325 . S
C696 C699 1.357 . S
C697 H665 0.928 . S
C697 C695 1.406 . S
C697 N698 1.261 . S
N698 Co649 2.214 . S
N698 C696 1.325 . S
N698 C697 1.261 . S
C699 H669 0.931 . S
C699 C696 1.357 . S
C699 C700 1.312 . S
C700 H671 0.930 . S
C700 C695 1.261 . S
C700 C699 1.312 . S
C701 O673 1.214 . S
C701 O681 1.234 . S
C702 H674 0.929 . S
C702 C705 1.391 . S
C702 C707 1.391 . S
C703 H675 0.929 . S
C703 C704 1.390 . S
C703 N706 1.391 . S
C704 H676 0.930 . S
C704 C703 1.390 . S
C704 C705 1.392 . S
C705 H677 0.929 . S
C705 C702 1.391 . S
C705 C704 1.392 . S
N706 Co650 2.257 . S
N706 C703 1.391 . S
N706 C707 1.388 . S
C707 H678 0.930 . S
C707 C702 1.391 . S
C707 N706 1.388 . S
Co708 O710 2.143 . S
Co708 O716 2.074 . S
Co708 O719 2.093 . S
Co708 O732 2.097 . S
Co708 N749 2.151 . S
Co708 N757 2.214 . S
Co709 O710 2.160 . S
Co709 O715 2.058 . S
Co709 O725 2.057 . S
Co709 O740 2.037 . S
Co709 N744 2.145 . S
Co709 N765 2.257 . S
O710 Co708 2.143 . S
O710 Co709 2.160 . S
C711 O712 1.278 . S
C711 O719 1.224 . S
O712 C711 1.278 . S
C713 O714 1.245 . S
C713 O725 1.232 . S
O714 C713 1.245 . S
O715 Co709 2.058 . S
O715 C741 1.269 . S
O716 Co708 2.074 . S
O716 C741 1.257 . S
H717 C742 0.930 . S
H718 C748 0.930 . S
O719 Co708 2.093 . S
O719 C711 1.224 . S
H720 C752 0.929 . S
H721 C754 0.930 . S
H722 C755 0.930 . S
H723 C753 0.929 . S
H724 C756 0.928 . S
O725 Co709 2.057 . S
O725 C713 1.232 . S
H726 C745 0.929 . S
H727 C746 0.929 . S
H728 C758 0.931 . S
H729 C750 0.929 . S
H730 C759 0.930 . S
H731 C751 0.931 . S
O732 Co708 2.097 . S
O732 C760 1.214 . S
H733 C761 0.929 . S
H734 C762 0.929 . S
H735 C763 0.930 . S
H736 C764 0.929 . S
H737 C766 0.930 . S
H738 C743 0.930 . S
H739 C747 0.930 . S
O740 Co709 2.037 . S
O740 C760 1.234 . S
C741 O715 1.269 . S
C741 O716 1.257 . S
C742 H717 0.930 . S
C742 C745 1.388 . S
C742 C747 1.418 . S
C743 H738 0.930 . S
C743 C746 1.404 . S
C743 C747 1.353 . S
N744 Co709 2.145 . S
N744 C745 1.397 . S
N744 C746 1.334 . S
C745 H726 0.929 . S
C745 C742 1.388 . S
C745 N744 1.397 . S
C746 H727 0.929 . S
C746 C743 1.404 . S
C746 N744 1.334 . S
C747 H739 0.930 . S
C747 C742 1.418 . S
C747 C743 1.353 . S
C748 H718 0.930 . S
C748 N749 1.330 . S
C748 C750 1.446 . S
N749 Co708 2.151 . S
N749 C748 1.330 . S
N749 C753 1.418 . S
C750 H729 0.929 . S
C750 C748 1.446 . S
C750 C751 1.332 . S
C751 H731 0.931 . S
C751 C750 1.332 . S
C751 C752 1.267 . S
C752 H720 0.929 . S
C752 C751 1.267 . S
C752 C753 1.251 . S
C753 H723 0.929 . S
C753 N749 1.418 . S
C753 C752 1.251 . S
C754 H721 0.930 . S
C754 C756 1.406 . S
C754 C759 1.261 . S
C755 H722 0.930 . S
C755 N757 1.325 . S
C755 C758 1.357 . S
C756 H724 0.928 . S
C756 C754 1.406 . S
C756 N757 1.261 . S
N757 Co708 2.214 . S
N757 C755 1.325 . S
N757 C756 1.261 . S
C758 H728 0.931 . S
C758 C755 1.357 . S
C758 C759 1.312 . S
C759 H730 0.930 . S
C759 C754 1.261 . S
C759 C758 1.312 . S
C760 O732 1.214 . S
C760 O740 1.234 . S
C761 H733 0.929 . S
C761 C764 1.391 . S
C761 C766 1.391 . S
C762 H734 0.929 . S
C762 C763 1.390 . S
C762 N765 1.391 . S
C763 H735 0.930 . S
C763 C762 1.390 . S
C763 C764 1.392 . S
C764 H736 0.929 . S
C764 C761 1.391 . S
C764 C763 1.392 . S
N765 Co709 2.257 . S
N765 C762 1.391 . S
N765 C766 1.388 . S
C766 H737 0.930 . S
C766 C761 1.391 . S
C766 N765 1.388 . S
Co767 O769 2.143 . S
Co767 O775 2.074 . S
Co767 O778 2.093 . S
Co767 O791 2.097 . S
Co767 N808 2.151 . S
Co767 N816 2.214 . S
Co768 O769 2.160 . S
Co768 O774 2.058 . S
Co768 O784 2.057 . S
Co768 O799 2.037 . S
Co768 N803 2.145 . S
Co768 N824 2.257 . S
O769 Co767 2.143 . S
O769 Co768 2.160 . S
C770 O771 1.278 . S
C770 O778 1.224 . S
O771 C770 1.278 . S
C772 O773 1.245 . S
C772 O784 1.232 . S
O773 C772 1.245 . S
O774 Co768 2.058 . S
O774 C800 1.269 . S
O775 Co767 2.074 . S
O775 C800 1.257 . S
H776 C801 0.930 . S
H777 C807 0.930 . S
O778 Co767 2.093 . S
O778 C770 1.224 . S
H779 C811 0.929 . S
H780 C813 0.930 . S
H781 C814 0.930 . S
H782 C812 0.929 . S
H783 C815 0.928 . S
O784 Co768 2.057 . S
O784 C772 1.232 . S
H785 C804 0.929 . S
H786 C805 0.929 . S
H787 C817 0.931 . S
H788 C809 0.929 . S
H789 C818 0.930 . S
H790 C810 0.931 . S
O791 Co767 2.097 . S
O791 C819 1.214 . S
H792 C820 0.929 . S
H793 C821 0.929 . S
H794 C822 0.930 . S
H795 C823 0.929 . S
H796 C825 0.930 . S
H797 C802 0.930 . S
H798 C806 0.930 . S
O799 Co768 2.037 . S
O799 C819 1.234 . S
C800 O774 1.269 . S
C800 O775 1.257 . S
C801 H776 0.930 . S
C801 C804 1.388 . S
C801 C806 1.418 . S
C802 H797 0.930 . S
C802 C805 1.404 . S
C802 C806 1.353 . S
N803 Co768 2.145 . S
N803 C804 1.397 . S
N803 C805 1.334 . S
C804 H785 0.929 . S
C804 C801 1.388 . S
C804 N803 1.397 . S
C805 H786 0.929 . S
C805 C802 1.404 . S
C805 N803 1.334 . S
C806 H798 0.930 . S
C806 C801 1.418 . S
C806 C802 1.353 . S
C807 H777 0.930 . S
C807 N808 1.330 . S
C807 C809 1.446 . S
N808 Co767 2.151 . S
N808 C807 1.330 . S
N808 C812 1.418 . S
C809 H788 0.929 . S
C809 C807 1.446 . S
C809 C810 1.332 . S
C810 H790 0.931 . S
C810 C809 1.332 . S
C810 C811 1.267 . S
C811 H779 0.929 . S
C811 C810 1.267 . S
C811 C812 1.251 . S
C812 H782 0.929 . S
C812 N808 1.418 . S
C812 C811 1.251 . S
C813 H780 0.930 . S
C813 C815 1.406 . S
C813 C818 1.261 . S
C814 H781 0.930 . S
C814 N816 1.325 . S
C814 C817 1.357 . S
C815 H783 0.928 . S
C815 C813 1.406 . S
C815 N816 1.261 . S
N816 Co767 2.214 . S
N816 C814 1.325 . S
N816 C815 1.261 . S
C817 H787 0.931 . S
C817 C814 1.357 . S
C817 C818 1.312 . S
C818 H789 0.930 . S
C818 C813 1.261 . S
C818 C817 1.312 . S
C819 O791 1.214 . S
C819 O799 1.234 . S
C820 H792 0.929 . S
C820 C823 1.391 . S
C820 C825 1.391 . S
C821 H793 0.929 . S
C821 C822 1.390 . S
C821 N824 1.391 . S
C822 H794 0.930 . S
C822 C821 1.390 . S
C822 C823 1.392 . S
C823 H795 0.929 . S
C823 C820 1.391 . S
C823 C822 1.392 . S
N824 Co768 2.257 . S
N824 C821 1.391 . S
N824 C825 1.388 . S
C825 H796 0.930 . S
C825 C820 1.391 . S
C825 N824 1.388 . S
Co826 O828 2.143 . S
Co826 O834 2.074 . S
Co826 O837 2.093 . S
Co826 O850 2.097 . S
Co826 N867 2.151 . S
Co826 N875 2.214 . S
Co827 O828 2.160 . S
Co827 O833 2.058 . S
Co827 O843 2.057 . S
Co827 O858 2.037 . S
Co827 N862 2.145 . S
Co827 N883 2.257 . S
O828 Co826 2.143 . S
O828 Co827 2.160 . S
C829 O830 1.278 . S
C829 O837 1.224 . S
O830 C829 1.278 . S
C831 O832 1.245 . S
C831 O843 1.232 . S
O832 C831 1.245 . S
O833 Co827 2.058 . S
O833 C859 1.269 . S
O834 Co826 2.074 . S
O834 C859 1.257 . S
H835 C860 0.930 . S
H836 C866 0.930 . S
O837 Co826 2.093 . S
O837 C829 1.224 . S
H838 C870 0.929 . S
H839 C872 0.930 . S
H840 C873 0.930 . S
H841 C871 0.929 . S
H842 C874 0.928 . S
O843 Co827 2.057 . S
O843 C831 1.232 . S
H844 C863 0.929 . S
H845 C864 0.929 . S
H846 C876 0.931 . S
H847 C868 0.929 . S
H848 C877 0.930 . S
H849 C869 0.931 . S
O850 Co826 2.097 . S
O850 C878 1.214 . S
H851 C879 0.929 . S
H852 C880 0.929 . S
H853 C881 0.930 . S
H854 C882 0.929 . S
H855 C884 0.930 . S
H856 C861 0.930 . S
H857 C865 0.930 . S
O858 Co827 2.037 . S
O858 C878 1.234 . S
C859 O833 1.269 . S
C859 O834 1.257 . S
C860 H835 0.930 . S
C860 C863 1.388 . S
C860 C865 1.418 . S
C861 H856 0.930 . S
C861 C864 1.404 . S
C861 C865 1.353 . S
N862 Co827 2.145 . S
N862 C863 1.397 . S
N862 C864 1.334 . S
C863 H844 0.929 . S
C863 C860 1.388 . S
C863 N862 1.397 . S
C864 H845 0.929 . S
C864 C861 1.404 . S
C864 N862 1.334 . S
C865 H857 0.930 . S
C865 C860 1.418 . S
C865 C861 1.353 . S
C866 H836 0.930 . S
C866 N867 1.330 . S
C866 C868 1.446 . S
N867 Co826 2.151 . S
N867 C866 1.330 . S
N867 C871 1.418 . S
C868 H847 0.929 . S
C868 C866 1.446 . S
C868 C869 1.332 . S
C869 H849 0.931 . S
C869 C868 1.332 . S
C869 C870 1.267 . S
C870 H838 0.929 . S
C870 C869 1.267 . S
C870 C871 1.251 . S
C871 H841 0.929 . S
C871 N867 1.418 . S
C871 C870 1.251 . S
C872 H839 0.930 . S
C872 C874 1.406 . S
C872 C877 1.261 . S
C873 H840 0.930 . S
C873 N875 1.325 . S
C873 C876 1.357 . S
C874 H842 0.928 . S
C874 C872 1.406 . S
C874 N875 1.261 . S
N875 Co826 2.214 . S
N875 C873 1.325 . S
N875 C874 1.261 . S
C876 H846 0.931 . S
C876 C873 1.357 . S
C876 C877 1.312 . S
C877 H848 0.930 . S
C877 C872 1.261 . S
C877 C876 1.312 . S
C878 O850 1.214 . S
C878 O858 1.234 . S
C879 H851 0.929 . S
C879 C882 1.391 . S
C879 C884 1.391 . S
C880 H852 0.929 . S
C880 C881 1.390 . S
C880 N883 1.391 . S
C881 H853 0.930 . S
C881 C880 1.390 . S
C881 C882 1.392 . S
C882 H854 0.929 . S
C882 C879 1.391 . S
C882 C881 1.392 . S
N883 Co827 2.257 . S
N883 C880 1.391 . S
N883 C884 1.388 . S
C884 H855 0.930 . S
C884 C879 1.391 . S
C884 N883 1.388 . S
Co885 O887 2.143 . S
Co885 O893 2.074 . S
Co885 O896 2.093 . S
Co885 O909 2.097 . S
Co885 N926 2.151 . S
Co885 N934 2.214 . S
Co886 O887 2.160 . S
Co886 O892 2.058 . S
Co886 O902 2.057 . S
Co886 O917 2.037 . S
Co886 N921 2.145 . S
Co886 N942 2.257 . S
O887 Co885 2.143 . S
O887 Co886 2.160 . S
C888 O889 1.278 . S
C888 O896 1.224 . S
O889 C888 1.278 . S
C890 O891 1.245 . S
C890 O902 1.232 . S
O891 C890 1.245 . S
O892 Co886 2.058 . S
O892 C918 1.269 . S
O893 Co885 2.074 . S
O893 C918 1.257 . S
H894 C919 0.930 . S
H895 C925 0.930 . S
O896 Co885 2.093 . S
O896 C888 1.224 . S
H897 C929 0.929 . S
H898 C931 0.930 . S
H899 C932 0.930 . S
H900 C930 0.929 . S
H901 C933 0.928 . S
O902 Co886 2.057 . S
O902 C890 1.232 . S
H903 C922 0.929 . S
H904 C923 0.929 . S
H905 C935 0.931 . S
H906 C927 0.929 . S
H907 C936 0.930 . S
H908 C928 0.931 . S
O909 Co885 2.097 . S
O909 C937 1.214 . S
H910 C938 0.929 . S
H911 C939 0.929 . S
H912 C940 0.930 . S
H913 C941 0.929 . S
H914 C943 0.930 . S
H915 C920 0.930 . S
H916 C924 0.930 . S
O917 Co886 2.037 . S
O917 C937 1.234 . S
C918 O892 1.269 . S
C918 O893 1.257 . S
C919 H894 0.930 . S
C919 C922 1.388 . S
C919 C924 1.418 . S
C920 H915 0.930 . S
C920 C923 1.404 . S
C920 C924 1.353 . S
N921 Co886 2.145 . S
N921 C922 1.397 . S
N921 C923 1.334 . S
C922 H903 0.929 . S
C922 C919 1.388 . S
C922 N921 1.397 . S
C923 H904 0.929 . S
C923 C920 1.404 . S
C923 N921 1.334 . S
C924 H916 0.930 . S
C924 C919 1.418 . S
C924 C920 1.353 . S
C925 H895 0.930 . S
C925 N926 1.330 . S
C925 C927 1.446 . S
N926 Co885 2.151 . S
N926 C925 1.330 . S
N926 C930 1.418 . S
C927 H906 0.929 . S
C927 C925 1.446 . S
C927 C928 1.332 . S
C928 H908 0.931 . S
C928 C927 1.332 . S
C928 C929 1.267 . S
C929 H897 0.929 . S
C929 C928 1.267 . S
C929 C930 1.251 . S
C930 H900 0.929 . S
C930 N926 1.418 . S
C930 C929 1.251 . S
C931 H898 0.930 . S
C931 C933 1.406 . S
C931 C936 1.261 . S
C932 H899 0.930 . S
C932 N934 1.325 . S
C932 C935 1.357 . S
C933 H901 0.928 . S
C933 C931 1.406 . S
C933 N934 1.261 . S
N934 Co885 2.214 . S
N934 C932 1.325 . S
N934 C933 1.261 . S
C935 H905 0.931 . S
C935 C932 1.357 . S
C935 C936 1.312 . S
C936 H907 0.930 . S
C936 C931 1.261 . S
C936 C935 1.312 . S
C937 O909 1.214 . S
C937 O917 1.234 . S
C938 H910 0.929 . S
C938 C941 1.391 . S
C938 C943 1.391 . S
C939 H911 0.929 . S
C939 C940 1.390 . S
C939 N942 1.391 . S
C940 H912 0.930 . S
C940 C939 1.390 . S
C940 C941 1.392 . S
C941 H913 0.929 . S
C941 C938 1.391 . S
C941 C940 1.392 . S
N942 Co886 2.257 . S
N942 C939 1.391 . S
N942 C943 1.388 . S
C943 H914 0.930 . S
C943 C938 1.391 . S
C943 N942 1.388 . S
H944 C950 0.930 . S
H945 C954 0.930 . S
H946 C959 0.929 . S
H947 C957 0.929 . S
H948 C952 0.929 . S
H949 C958 0.929 . S
C950 H944 0.930 . S
C950 C951 1.367 . S
C950 C958 1.378 . S
C951 C950 1.367 . S
C951 C959 1.433 . S
C952 H948 0.929 . S
C952 C954 1.378 . S
C952 C956 1.350 . S
C953 C956 1.463 . S
C953 C958 1.350 . S
C953 N961 1.427 . S
C954 H945 0.930 . S
C954 C952 1.378 . S
C954 C955 1.367 . S
C955 C954 1.367 . S
C955 C957 1.433 . S
C956 C952 1.350 . S
C956 C953 1.463 . S
C956 N960 1.427 . S
C957 H947 0.929 . S
C957 C955 1.433 . S
C957 N960 1.384 . S
C958 H949 0.929 . S
C958 C950 1.378 . S
C958 C953 1.350 . S
C959 H946 0.929 . S
C959 C951 1.433 . S
C959 N961 1.384 . S
N960 C956 1.427 . S
N960 C957 1.384 . S
N961 C953 1.427 . S
N961 C959 1.384 . S
H962 C968 0.930 . S
H963 C972 0.930 . S
H964 C977 0.929 . S
H965 C975 0.929 . S
H966 C970 0.929 . S
H967 C976 0.929 . S
C968 H962 0.930 . S
C968 C969 1.367 . S
C968 C976 1.378 . S
C969 C968 1.367 . S
C969 C977 1.433 . S
C970 H966 0.929 . S
C970 C972 1.378 . S
C970 C974 1.350 . S
C971 C974 1.463 . S
C971 C976 1.350 . S
C971 N979 1.427 . S
C972 H963 0.930 . S
C972 C970 1.378 . S
C972 C973 1.367 . S
C973 C972 1.367 . S
C973 C975 1.433 . S
C974 C970 1.350 . S
C974 C971 1.463 . S
C974 N978 1.427 . S
C975 H965 0.929 . S
C975 C973 1.433 . S
C975 N978 1.384 . S
C976 H967 0.929 . S
C976 C968 1.378 . S
C976 C971 1.350 . S
C977 H964 0.929 . S
C977 C969 1.433 . S
C977 N979 1.384 . S
N978 C974 1.427 . S
N978 C975 1.384 . S
N979 C971 1.427 . S
N979 C977 1.384 . S
H980 C986 0.930 . S
H981 C990 0.930 . S
H982 C995 0.929 . S
H983 C993 0.929 . S
H984 C988 0.929 . S
H985 C994 0.929 . S
C986 H980 0.930 . S
C986 C987 1.367 . S
C986 C994 1.378 . S
C987 C986 1.367 . S
C987 C995 1.433 . S
C988 H984 0.929 . S
C988 C990 1.378 . S
C988 C992 1.350 . S
C989 C992 1.463 . S
C989 C994 1.350 . S
C989 N997 1.427 . S
C990 H981 0.930 . S
C990 C988 1.378 . S
C990 C991 1.367 . S
C991 C990 1.367 . S
C991 C993 1.433 . S
C992 C988 1.350 . S
C992 C989 1.463 . S
C992 N996 1.427 . S
C993 H983 0.929 . S
C993 C991 1.433 . S
C993 N996 1.384 . S
C994 H985 0.929 . S
C994 C986 1.378 . S
C994 C989 1.350 . S
C995 H982 0.929 . S
C995 C987 1.433 . S
C995 N997 1.384 . S
N996 C992 1.427 . S
N996 C993 1.384 . S
N997 C989 1.427 . S
N997 C995 1.384 . S
H998 C1004 0.930 . S
H999 C1008 0.930 . S
H1000 C1013 0.929 . S
H1001 C1011 0.929 . S
H1002 C1006 0.929 . S
H1003 C1012 0.929 . S
C1004 H998 0.930 . S
C1004 C1005 1.367 . S
C1004 C1012 1.378 . S
C1005 C1004 1.367 . S
C1005 C1013 1.433 . S
C1006 H1002 0.929 . S
C1006 C1008 1.378 . S
C1006 C1010 1.350 . S
C1007 C1010 1.463 . S
C1007 C1012 1.350 . S
C1007 N1015 1.427 . S
C1008 H999 0.930 . S
C1008 C1006 1.378 . S
C1008 C1009 1.367 . S
C1009 C1008 1.367 . S
C1009 C1011 1.433 . S
C1010 C1006 1.350 . S
C1010 C1007 1.463 . S
C1010 N1014 1.427 . S
C1011 H1001 0.929 . S
C1011 C1009 1.433 . S
C1011 N1014 1.384 . S
C1012 H1003 0.929 . S
C1012 C1004 1.378 . S
C1012 C1007 1.350 . S
C1013 H1000 0.929 . S
C1013 C1005 1.433 . S
C1013 N1015 1.384 . S
N1014 C1010 1.427 . S
N1014 C1011 1.384 . S
N1015 C1007 1.427 . S
N1015 C1013 1.384 . S
H1016 C1022 0.930 . S
H1017 C1026 0.930 . S
H1018 C1031 0.929 . S
H1019 C1029 0.929 . S
H1020 C1024 0.929 . S
H1021 C1030 0.929 . S
C1022 H1016 0.930 . S
C1022 C1023 1.367 . S
C1022 C1030 1.378 . S
C1023 C1022 1.367 . S
C1023 C1031 1.433 . S
C1024 H1020 0.929 . S
C1024 C1026 1.378 . S
C1024 C1028 1.350 . S
C1025 C1028 1.463 . S
C1025 C1030 1.350 . S
C1025 N1033 1.427 . S
C1026 H1017 0.930 . S
C1026 C1024 1.378 . S
C1026 C1027 1.367 . S
C1027 C1026 1.367 . S
C1027 C1029 1.433 . S
C1028 C1024 1.350 . S
C1028 C1025 1.463 . S
C1028 N1032 1.427 . S
C1029 H1019 0.929 . S
C1029 C1027 1.433 . S
C1029 N1032 1.384 . S
C1030 H1021 0.929 . S
C1030 C1022 1.378 . S
C1030 C1025 1.350 . S
C1031 H1018 0.929 . S
C1031 C1023 1.433 . S
C1031 N1033 1.384 . S
N1032 C1028 1.427 . S
N1032 C1029 1.384 . S
N1033 C1025 1.427 . S
N1033 C1031 1.384 . S
H1034 C1040 0.930 . S
H1035 C1044 0.930 . S
H1036 C1049 0.929 . S
H1037 C1047 0.929 . S
H1038 C1042 0.929 . S
H1039 C1048 0.929 . S
C1040 H1034 0.930 . S
C1040 C1041 1.367 . S
C1040 C1048 1.378 . S
C1041 C1040 1.367 . S
C1041 C1049 1.433 . S
C1042 H1038 0.929 . S
C1042 C1044 1.378 . S
C1042 C1046 1.350 . S
C1043 C1046 1.463 . S
C1043 C1048 1.350 . S
C1043 N1051 1.427 . S
C1044 H1035 0.930 . S
C1044 C1042 1.378 . S
C1044 C1045 1.367 . S
C1045 C1044 1.367 . S
C1045 C1047 1.433 . S
C1046 C1042 1.350 . S
C1046 C1043 1.463 . S
C1046 N1050 1.427 . S
C1047 H1037 0.929 . S
C1047 C1045 1.433 . S
C1047 N1050 1.384 . S
C1048 H1039 0.929 . S
C1048 C1040 1.378 . S
C1048 C1043 1.350 . S
C1049 H1036 0.929 . S
C1049 C1041 1.433 . S
C1049 N1051 1.384 . S
N1050 C1046 1.427 . S
N1050 C1047 1.384 . S
N1051 C1043 1.427 . S
N1051 C1049 1.384 . S
H1052 C1058 0.930 . S
H1053 C1062 0.930 . S
H1054 C1067 0.929 . S
H1055 C1065 0.929 . S
H1056 C1060 0.929 . S
H1057 C1066 0.929 . S
C1058 H1052 0.930 . S
C1058 C1059 1.367 . S
C1058 C1066 1.378 . S
C1059 C1058 1.367 . S
C1059 C1067 1.433 . S
C1060 H1056 0.929 . S
C1060 C1062 1.378 . S
C1060 C1064 1.350 . S
C1061 C1064 1.463 . S
C1061 C1066 1.350 . S
C1061 N1069 1.427 . S
C1062 H1053 0.930 . S
C1062 C1060 1.378 . S
C1062 C1063 1.367 . S
C1063 C1062 1.367 . S
C1063 C1065 1.433 . S
C1064 C1060 1.350 . S
C1064 C1061 1.463 . S
C1064 N1068 1.427 . S
C1065 H1055 0.929 . S
C1065 C1063 1.433 . S
C1065 N1068 1.384 . S
C1066 H1057 0.929 . S
C1066 C1058 1.378 . S
C1066 C1061 1.350 . S
C1067 H1054 0.929 . S
C1067 C1059 1.433 . S
C1067 N1069 1.384 . S
N1068 C1064 1.427 . S
N1068 C1065 1.384 . S
N1069 C1061 1.427 . S
N1069 C1067 1.384 . S
H1070 C1076 0.930 . S
H1071 C1080 0.930 . S
H1072 C1085 0.929 . S
H1073 C1083 0.929 . S
H1074 C1078 0.929 . S
H1075 C1084 0.929 . S
C1076 H1070 0.930 . S
C1076 C1077 1.367 . S
C1076 C1084 1.378 . S
C1077 C1076 1.367 . S
C1077 C1085 1.433 . S
C1078 H1074 0.929 . S
C1078 C1080 1.378 . S
C1078 C1082 1.350 . S
C1079 C1082 1.463 . S
C1079 C1084 1.350 . S
C1079 N1087 1.427 . S
C1080 H1071 0.930 . S
C1080 C1078 1.378 . S
C1080 C1081 1.367 . S
C1081 C1080 1.367 . S
C1081 C1083 1.433 . S
C1082 C1078 1.350 . S
C1082 C1079 1.463 . S
C1082 N1086 1.427 . S
C1083 H1073 0.929 . S
C1083 C1081 1.433 . S
C1083 N1086 1.384 . S
C1084 H1075 0.929 . S
C1084 C1076 1.378 . S
C1084 C1079 1.350 . S
C1085 H1072 0.929 . S
C1085 C1077 1.433 . S
C1085 N1087 1.384 . S
N1086 C1082 1.427 . S
N1086 C1083 1.384 . S
N1087 C1079 1.427 . S
N1087 C1085 1.384 . S
H1088 C1094 0.930 . S
H1089 C1098 0.930 . S
H1090 C1103 0.929 . S
H1091 C1101 0.929 . S
H1092 C1096 0.929 1_556 S
H1093 C1102 0.929 . S
C1094 H1088 0.930 . S
C1094 C1095 1.367 . S
C1094 C1102 1.378 . S
C1095 C1094 1.367 . S
C1095 C1103 1.433 . S
C1096 H1092 0.929 1_554 S
C1096 C1098 1.378 . S
C1096 C1100 1.350 1_554 S
C1097 C1100 1.463 . S
C1097 C1102 1.350 . S
C1097 N1105 1.427 . S
C1098 H1089 0.930 . S
C1098 C1096 1.378 . S
C1098 C1099 1.367 . S
C1099 C1098 1.367 . S
C1099 C1101 1.433 . S
C1100 C1096 1.350 1_556 S
C1100 C1097 1.463 . S
C1100 N1104 1.427 1_556 S
C1101 H1091 0.929 . S
C1101 C1099 1.433 . S
C1101 N1104 1.384 . S
C1102 H1093 0.929 . S
C1102 C1094 1.378 . S
C1102 C1097 1.350 . S
C1103 H1090 0.929 . S
C1103 C1095 1.433 . S
C1103 N1105 1.384 . S
N1104 C1100 1.427 1_554 S
N1104 C1101 1.384 . S
N1105 C1097 1.427 . S
N1105 C1103 1.384 . S
H1106 C1112 0.930 . S
H1107 C1116 0.930 . S
H1108 C1121 0.929 . S
H1109 C1119 0.929 . S
H1110 C1114 0.929 . S
H1111 C1120 0.929 . S
C1112 H1106 0.930 . S
C1112 C1113 1.367 . S
C1112 C1120 1.378 . S
C1113 C1112 1.367 . S
C1113 C1121 1.433 . S
C1114 H1110 0.929 . S
C1114 C1116 1.378 . S
C1114 C1118 1.350 . S
C1115 C1118 1.463 . S
C1115 C1120 1.350 1_554 S
C1115 N1123 1.427 1_554 S
C1116 H1107 0.930 . S
C1116 C1114 1.378 . S
C1116 C1117 1.367 . S
C1117 C1116 1.367 . S
C1117 C1119 1.433 . S
C1118 C1114 1.350 . S
C1118 C1115 1.463 . S
C1118 N1122 1.427 . S
C1119 H1109 0.929 . S
C1119 C1117 1.433 . S
C1119 N1122 1.384 . S
C1120 H1111 0.929 . S
C1120 C1112 1.378 . S
C1120 C1115 1.350 1_556 S
C1121 H1108 0.929 . S
C1121 C1113 1.433 . S
C1121 N1123 1.384 . S
N1122 C1118 1.427 . S
N1122 C1119 1.384 . S
N1123 C1115 1.427 1_556 S
N1123 C1121 1.384 . S
H1124 C1130 0.930 . S
H1125 C1134 0.930 . S
H1126 C1139 0.929 . S
H1127 C1137 0.929 . S
H1128 C1132 0.929 . S
H1129 C1138 0.929 1_554 S
C1130 H1124 0.930 . S
C1130 C1131 1.367 . S
C1130 C1138 1.378 . S
C1131 C1130 1.367 . S
C1131 C1139 1.433 . S
C1132 H1128 0.929 . S
C1132 C1134 1.378 . S
C1132 C1136 1.350 . S
C1133 C1136 1.463 . S
C1133 C1138 1.350 1_554 S
C1133 N1141 1.427 1_554 S
C1134 H1125 0.930 . S
C1134 C1132 1.378 . S
C1134 C1135 1.367 . S
C1135 C1134 1.367 . S
C1135 C1137 1.433 . S
C1136 C1132 1.350 . S
C1136 C1133 1.463 . S
C1136 N1140 1.427 . S
C1137 H1127 0.929 . S
C1137 C1135 1.433 . S
C1137 N1140 1.384 . S
C1138 H1129 0.929 1_556 S
C1138 C1130 1.378 . S
C1138 C1133 1.350 1_556 S
C1139 H1126 0.929 . S
C1139 C1131 1.433 . S
C1139 N1141 1.384 . S
N1140 C1136 1.427 . S
N1140 C1137 1.384 . S
N1141 C1133 1.427 1_556 S
N1141 C1139 1.384 . S
H1142 C1148 0.930 . S
H1143 C1152 0.930 . S
H1144 C1157 0.929 . S
H1145 C1155 0.929 . S
H1146 C1150 0.929 . S
H1147 C1156 0.929 . S
C1148 H1142 0.930 . S
C1148 C1149 1.367 . S
C1148 C1156 1.378 . S
C1149 C1148 1.367 . S
C1149 C1157 1.433 . S
C1150 H1146 0.929 . S
C1150 C1152 1.378 . S
C1150 C1154 1.350 . S
C1151 C1154 1.463 1_554 S
C1151 C1156 1.350 . S
C1151 N1159 1.427 . S
C1152 H1143 0.930 . S
C1152 C1150 1.378 . S
C1152 C1153 1.367 . S
C1153 C1152 1.367 . S
C1153 C1155 1.433 . S
C1154 C1150 1.350 . S
C1154 C1151 1.463 1_556 S
C1154 N1158 1.427 . S
C1155 H1145 0.929 . S
C1155 C1153 1.433 . S
C1155 N1158 1.384 . S
C1156 H1147 0.929 . S
C1156 C1148 1.378 . S
C1156 C1151 1.350 . S
C1157 H1144 0.929 . S
C1157 C1149 1.433 . S
C1157 N1159 1.384 . S
N1158 C1154 1.427 . S
N1158 C1155 1.384 . S
N1159 C1151 1.427 . S
N1159 C1157 1.384 . S
H1160 C1166 0.930 . S
H1161 C1170 0.930 . S
H1162 C1175 0.929 . S
H1163 C1173 0.929 . S
H1164 C1168 0.929 . S
H1165 C1174 0.929 . S
C1166 H1160 0.930 . S
C1166 C1167 1.367 . S
C1166 C1174 1.378 . S
C1167 C1166 1.367 . S
C1167 C1175 1.433 . S
C1168 H1164 0.929 . S
C1168 C1170 1.378 . S
C1168 C1172 1.350 . S
C1169 C1172 1.463 1_455 S
C1169 C1174 1.350 . S
C1169 N1177 1.427 . S
C1170 H1161 0.930 . S
C1170 C1168 1.378 . S
C1170 C1171 1.367 . S
C1171 C1170 1.367 . S
C1171 C1173 1.433 . S
C1172 C1168 1.350 . S
C1172 C1169 1.463 1_655 S
C1172 N1176 1.427 . S
C1173 H1163 0.929 . S
C1173 C1171 1.433 . S
C1173 N1176 1.384 . S
C1174 H1165 0.929 . S
C1174 C1166 1.378 . S
C1174 C1169 1.350 . S
C1175 H1162 0.929 . S
C1175 C1167 1.433 . S
C1175 N1177 1.384 . S
N1176 C1172 1.427 . S
N1176 C1173 1.384 . S
N1177 C1169 1.427 . S
N1177 C1175 1.384 . S
H1178 C1184 0.930 . S
H1179 C1188 0.930 . S
H1180 C1193 0.929 . S
H1181 C1191 0.929 . S
H1182 C1186 0.929 . S
H1183 C1192 0.929 1_545 S
C1184 H1178 0.930 . S
C1184 C1185 1.367 . S
C1184 C1192 1.378 . S
C1185 C1184 1.367 . S
C1185 C1193 1.433 . S
C1186 H1182 0.929 . S
C1186 C1188 1.378 . S
C1186 C1190 1.350 . S
C1187 C1190 1.463 . S
C1187 C1192 1.350 1_545 S
C1187 N1195 1.427 . S
C1188 H1179 0.930 . S
C1188 C1186 1.378 . S
C1188 C1189 1.367 . S
C1189 C1188 1.367 . S
C1189 C1191 1.433 . S
C1190 C1186 1.350 . S
C1190 C1187 1.463 . S
C1190 N1194 1.427 . S
C1191 H1181 0.929 . S
C1191 C1189 1.433 . S
C1191 N1194 1.384 . S
C1192 H1183 0.929 1_565 S
C1192 C1184 1.378 . S
C1192 C1187 1.350 1_565 S
C1193 H1180 0.929 . S
C1193 C1185 1.433 . S
C1193 N1195 1.384 1_565 S
N1194 C1190 1.427 . S
N1194 C1191 1.384 . S
N1195 C1187 1.427 . S
N1195 C1193 1.384 1_545 S
H1196 C1202 0.930 . S
H1197 C1206 0.930 . S
H1198 C1211 0.929 . S
H1199 C1209 0.929 . S
H1200 C1204 0.929 . S
H1201 C1210 0.929 . S
C1202 H1196 0.930 . S
C1202 C1203 1.367 . S
C1202 C1210 1.378 . S
C1203 C1202 1.367 . S
C1203 C1211 1.433 . S
C1204 H1200 0.929 . S
C1204 C1206 1.378 . S
C1204 C1208 1.350 . S
C1205 C1208 1.463 1_655 S
C1205 C1210 1.350 . S
C1205 N1213 1.427 . S
C1206 H1197 0.930 . S
C1206 C1204 1.378 . S
C1206 C1207 1.367 . S
C1207 C1206 1.367 . S
C1207 C1209 1.433 . S
C1208 C1204 1.350 . S
C1208 C1205 1.463 1_455 S
C1208 N1212 1.427 . S
C1209 H1199 0.929 . S
C1209 C1207 1.433 . S
C1209 N1212 1.384 . S
C1210 H1201 0.929 . S
C1210 C1202 1.378 . S
C1210 C1205 1.350 . S
C1211 H1198 0.929 . S
C1211 C1203 1.433 . S
C1211 N1213 1.384 . S
N1212 C1208 1.427 . S
N1212 C1209 1.384 . S
N1213 C1205 1.427 . S
N1213 C1211 1.384 . S
H1214 C1220 0.930 . S
H1215 C1224 0.930 . S
H1216 C1229 0.929 . S
H1217 C1227 0.929 . S
H1218 C1222 0.929 . S
H1219 C1228 0.929 1_565 S
C1220 H1214 0.930 . S
C1220 C1221 1.367 . S
C1220 C1228 1.378 . S
C1221 C1220 1.367 . S
C1221 C1229 1.433 . S
C1222 H1218 0.929 . S
C1222 C1224 1.378 . S
C1222 C1226 1.350 . S
C1223 C1226 1.463 . S
C1223 C1228 1.350 1_565 S
C1223 N1231 1.427 1_565 S
C1224 H1215 0.930 . S
C1224 C1222 1.378 . S
C1224 C1225 1.367 . S
C1225 C1224 1.367 . S
C1225 C1227 1.433 . S
C1226 C1222 1.350 . S
C1226 C1223 1.463 . S
C1226 N1230 1.427 . S
C1227 H1217 0.929 . S
C1227 C1225 1.433 . S
C1227 N1230 1.384 . S
C1228 H1219 0.929 1_545 S
C1228 C1220 1.378 . S
C1228 C1223 1.350 1_545 S
C1229 H1216 0.929 . S
C1229 C1221 1.433 . S
C1229 N1231 1.384 . S
N1230 C1226 1.427 . S
N1230 C1227 1.384 . S
N1231 C1223 1.427 1_545 S
N1231 C1229 1.384 . S
H1232 C1238 0.930 . S
H1233 C1242 0.930 . S
H1234 C1247 0.929 . S
H1235 C1245 0.929 . S
H1236 C1240 0.929 . S
H1237 C1246 0.929 . S
C1238 H1232 0.930 . S
C1238 C1239 1.367 . S
C1238 C1246 1.378 . S
C1239 C1238 1.367 . S
C1239 C1247 1.433 . S
C1240 H1236 0.929 . S
C1240 C1242 1.378 . S
C1240 C1244 1.350 . S
C1241 C1244 1.463 1_655 S
C1241 C1246 1.350 . S
C1241 N1249 1.427 . S
C1242 H1233 0.930 . S
C1242 C1240 1.378 . S
C1242 C1243 1.367 . S
C1243 C1242 1.367 . S
C1243 C1245 1.433 . S
C1244 C1240 1.350 . S
C1244 C1241 1.463 1_455 S
C1244 N1248 1.427 . S
C1245 H1235 0.929 . S
C1245 C1243 1.433 . S
C1245 N1248 1.384 . S
C1246 H1237 0.929 . S
C1246 C1238 1.378 . S
C1246 C1241 1.350 . S
C1247 H1234 0.929 . S
C1247 C1239 1.433 . S
C1247 N1249 1.384 . S
N1248 C1244 1.427 . S
N1248 C1245 1.384 . S
N1249 C1241 1.427 . S
N1249 C1247 1.384 . S
H1250 C1256 0.930 . S
H1251 C1260 0.930 . S
H1252 C1265 0.929 . S
H1253 C1263 0.929 . S
H1254 C1258 0.929 . S
H1255 C1264 0.929 . S
C1256 H1250 0.930 . S
C1256 C1257 1.367 . S
C1256 C1264 1.378 . S
C1257 C1256 1.367 . S
C1257 C1265 1.433 . S
C1258 H1254 0.929 . S
C1258 C1260 1.378 1_565 S
C1258 C1262 1.350 . S
C1259 C1262 1.463 . S
C1259 C1264 1.350 . S
C1259 N1267 1.427 . S
C1260 H1251 0.930 . S
C1260 C1258 1.378 1_545 S
C1260 C1261 1.367 . S
C1261 C1260 1.367 . S
C1261 C1263 1.433 . S
C1262 C1258 1.350 . S
C1262 C1259 1.463 . S
C1262 N1266 1.427 . S
C1263 H1253 0.929 . S
C1263 C1261 1.433 . S
C1263 N1266 1.384 1_545 S
C1264 H1255 0.929 . S
C1264 C1256 1.378 . S
C1264 C1259 1.350 . S
C1265 H1252 0.929 . S
C1265 C1257 1.433 . S
C1265 N1267 1.384 . S
N1266 C1262 1.427 . S
N1266 C1263 1.384 1_565 S
N1267 C1259 1.427 . S
N1267 C1265 1.384 . S
H1268 C1274 0.930 . S
H1269 C1278 0.930 . S
H1270 C1283 0.929 . S
H1271 C1281 0.929 . S
H1272 C1276 0.929 . S
H1273 C1282 0.929 . S
C1274 H1268 0.930 . S
C1274 C1275 1.367 . S
C1274 C1282 1.378 . S
C1275 C1274 1.367 . S
C1275 C1283 1.433 . S
C1276 H1272 0.929 . S
C1276 C1278 1.378 . S
C1276 C1280 1.350 . S
C1277 C1280 1.463 1_455 S
C1277 C1282 1.350 . S
C1277 N1285 1.427 . S
C1278 H1269 0.930 . S
C1278 C1276 1.378 . S
C1278 C1279 1.367 . S
C1279 C1278 1.367 . S
C1279 C1281 1.433 . S
C1280 C1276 1.350 . S
C1280 C1277 1.463 1_655 S
C1280 N1284 1.427 . S
C1281 H1271 0.929 . S
C1281 C1279 1.433 . S
C1281 N1284 1.384 . S
C1282 H1273 0.929 . S
C1282 C1274 1.378 . S
C1282 C1277 1.350 . S
C1283 H1270 0.929 . S
C1283 C1275 1.433 . S
C1283 N1285 1.384 . S
N1284 C1280 1.427 . S
N1284 C1281 1.384 . S
N1285 C1277 1.427 . S
N1285 C1283 1.384 . S
H1286 C1292 0.930 . S
H1287 C1296 0.930 . S
H1288 C1301 0.929 . S
H1289 C1299 0.929 . S
H1290 C1294 0.929 . S
H1291 C1300 0.929 . S
C1292 H1286 0.930 . S
C1292 C1293 1.367 . S
C1292 C1300 1.378 1_565 S
C1293 C1292 1.367 . S
C1293 C1301 1.433 . S
C1294 H1290 0.929 . S
C1294 C1296 1.378 . S
C1294 C1298 1.350 . S
C1295 C1298 1.463 . S
C1295 C1300 1.350 . S
C1295 N1303 1.427 . S
C1296 H1287 0.930 . S
C1296 C1294 1.378 . S
C1296 C1297 1.367 . S
C1297 C1296 1.367 . S
C1297 C1299 1.433 . S
C1298 C1294 1.350 . S
C1298 C1295 1.463 . S
C1298 N1302 1.427 . S
C1299 H1289 0.929 . S
C1299 C1297 1.433 . S
C1299 N1302 1.384 . S
C1300 H1291 0.929 . S
C1300 C1292 1.378 1_545 S
C1300 C1295 1.350 . S
C1301 H1288 0.929 . S
C1301 C1293 1.433 . S
C1301 N1303 1.384 1_565 S
N1302 C1298 1.427 . S
N1302 C1299 1.384 . S
N1303 C1295 1.427 . S
N1303 C1301 1.384 1_545 S
H1304 C1310 0.930 . S
H1305 C1314 0.930 . S
H1306 C1319 0.929 . S
H1307 C1317 0.929 . S
H1308 C1312 0.929 . S
H1309 C1318 0.929 . S
C1310 H1304 0.930 . S
C1310 C1311 1.367 . S
C1310 C1318 1.378 . S
C1311 C1310 1.367 . S
C1311 C1319 1.433 . S
C1312 H1308 0.929 . S
C1312 C1314 1.378 . S
C1312 C1316 1.350 . S
C1313 C1316 1.463 . S
C1313 C1318 1.350 . S
C1313 N1321 1.427 . S
C1314 H1305 0.930 . S
C1314 C1312 1.378 . S
C1314 C1315 1.367 . S
C1315 C1314 1.367 . S
C1315 C1317 1.433 . S
C1316 C1312 1.350 . S
C1316 C1313 1.463 . S
C1316 N1320 1.427 . S
C1317 H1307 0.929 . S
C1317 C1315 1.433 . S
C1317 N1320 1.384 . S
C1318 H1309 0.929 . S
C1318 C1310 1.378 . S
C1318 C1313 1.350 . S
C1319 H1306 0.929 . S
C1319 C1311 1.433 . S
C1319 N1321 1.384 . S
N1320 C1316 1.427 . S
N1320 C1317 1.384 . S
N1321 C1313 1.427 . S
N1321 C1319 1.384 . S
H1322 C1328 0.930 . S
H1323 C1332 0.930 . S
H1324 C1337 0.929 . S
H1325 C1335 0.929 . S
H1326 C1330 0.929 . S
H1327 C1336 0.929 . S
C1328 H1322 0.930 . S
C1328 C1329 1.367 . S
C1328 C1336 1.378 . S
C1329 C1328 1.367 . S
C1329 C1337 1.433 . S
C1330 H1326 0.929 . S
C1330 C1332 1.378 . S
C1330 C1334 1.350 . S
C1331 C1334 1.463 . S
C1331 C1336 1.350 . S
C1331 N1339 1.427 . S
C1332 H1323 0.930 . S
C1332 C1330 1.378 . S
C1332 C1333 1.367 . S
C1333 C1332 1.367 . S
C1333 C1335 1.433 . S
C1334 C1330 1.350 . S
C1334 C1331 1.463 . S
C1334 N1338 1.427 . S
C1335 H1325 0.929 . S
C1335 C1333 1.433 . S
C1335 N1338 1.384 . S
C1336 H1327 0.929 . S
C1336 C1328 1.378 . S
C1336 C1331 1.350 . S
C1337 H1324 0.929 . S
C1337 C1329 1.433 . S
C1337 N1339 1.384 . S
N1338 C1334 1.427 . S
N1338 C1335 1.384 . S
N1339 C1331 1.427 . S
N1339 C1337 1.384 . S
H1340 C1346 0.930 . S
H1341 C1350 0.930 . S
H1342 C1355 0.929 . S
H1343 C1353 0.929 . S
H1344 C1348 0.929 . S
H1345 C1354 0.929 . S
C1346 H1340 0.930 . S
C1346 C1347 1.367 . S
C1346 C1354 1.378 . S
C1347 C1346 1.367 . S
C1347 C1355 1.433 . S
C1348 H1344 0.929 . S
C1348 C1350 1.378 . S
C1348 C1352 1.350 . S
C1349 C1352 1.463 . S
C1349 C1354 1.350 . S
C1349 N1357 1.427 . S
C1350 H1341 0.930 . S
C1350 C1348 1.378 . S
C1350 C1351 1.367 . S
C1351 C1350 1.367 . S
C1351 C1353 1.433 . S
C1352 C1348 1.350 . S
C1352 C1349 1.463 . S
C1352 N1356 1.427 . S
C1353 H1343 0.929 . S
C1353 C1351 1.433 . S
C1353 N1356 1.384 . S
C1354 H1345 0.929 . S
C1354 C1346 1.378 . S
C1354 C1349 1.350 . S
C1355 H1342 0.929 . S
C1355 C1347 1.433 . S
C1355 N1357 1.384 . S
N1356 C1352 1.427 . S
N1356 C1353 1.384 . S
N1357 C1349 1.427 . S
N1357 C1355 1.384 . S
H1358 C1364 0.930 . S
H1359 C1368 0.930 . S
H1360 C1373 0.929 . S
H1361 C1371 0.929 . S
H1362 C1366 0.929 . S
H1363 C1372 0.929 . S
C1364 H1358 0.930 . S
C1364 C1365 1.367 . S
C1364 C1372 1.378 . S
C1365 C1364 1.367 . S
C1365 C1373 1.433 . S
C1366 H1362 0.929 . S
C1366 C1368 1.378 . S
C1366 C1370 1.350 . S
C1367 C1370 1.463 . S
C1367 C1372 1.350 . S
C1367 N1375 1.427 . S
C1368 H1359 0.930 . S
C1368 C1366 1.378 . S
C1368 C1369 1.367 . S
C1369 C1368 1.367 . S
C1369 C1371 1.433 . S
C1370 C1366 1.350 . S
C1370 C1367 1.463 . S
C1370 N1374 1.427 . S
C1371 H1361 0.929 . S
C1371 C1369 1.433 . S
C1371 N1374 1.384 . S
C1372 H1363 0.929 . S
C1372 C1364 1.378 . S
C1372 C1367 1.350 . S
C1373 H1360 0.929 . S
C1373 C1365 1.433 . S
C1373 N1375 1.384 . S
N1374 C1370 1.427 . S
N1374 C1371 1.384 . S
N1375 C1367 1.427 . S
N1375 C1373 1.384 . S
H1376 C1382 0.930 . S
H1377 C1386 0.930 . S
H1378 C1391 0.929 . S
H1379 C1389 0.929 . S
H1380 C1384 0.929 . S
H1381 C1390 0.929 . S
C1382 H1376 0.930 . S
C1382 C1383 1.367 . S
C1382 C1390 1.378 . S
C1383 C1382 1.367 . S
C1383 C1391 1.433 . S
C1384 H1380 0.929 . S
C1384 C1386 1.378 . S
C1384 C1388 1.350 . S
C1385 C1388 1.463 . S
C1385 C1390 1.350 . S
C1385 N1393 1.427 . S
C1386 H1377 0.930 . S
C1386 C1384 1.378 . S
C1386 C1387 1.367 . S
C1387 C1386 1.367 . S
C1387 C1389 1.433 . S
C1388 C1384 1.350 . S
C1388 C1385 1.463 . S
C1388 N1392 1.427 . S
C1389 H1379 0.929 . S
C1389 C1387 1.433 . S
C1389 N1392 1.384 . S
C1390 H1381 0.929 . S
C1390 C1382 1.378 . S
C1390 C1385 1.350 . S
C1391 H1378 0.929 . S
C1391 C1383 1.433 . S
C1391 N1393 1.384 . S
N1392 C1388 1.427 . S
N1392 C1389 1.384 . S
N1393 C1385 1.427 . S
N1393 C1391 1.384 . S
H1394 C1400 0.930 . S
H1395 C1404 0.930 . S
H1396 C1409 0.929 . S
H1397 C1407 0.929 . S
H1398 C1402 0.929 . S
H1399 C1408 0.929 . S
C1400 H1394 0.930 . S
C1400 C1401 1.367 . S
C1400 C1408 1.378 . S
C1401 C1400 1.367 . S
C1401 C1409 1.433 . S
C1402 H1398 0.929 . S
C1402 C1404 1.378 . S
C1402 C1406 1.350 . S
C1403 C1406 1.463 . S
C1403 C1408 1.350 . S
C1403 N1411 1.427 . S
C1404 H1395 0.930 . S
C1404 C1402 1.378 . S
C1404 C1405 1.367 . S
C1405 C1404 1.367 . S
C1405 C1407 1.433 . S
C1406 C1402 1.350 . S
C1406 C1403 1.463 . S
C1406 N1410 1.427 . S
C1407 H1397 0.929 . S
C1407 C1405 1.433 . S
C1407 N1410 1.384 . S
C1408 H1399 0.929 . S
C1408 C1400 1.378 . S
C1408 C1403 1.350 . S
C1409 H1396 0.929 . S
C1409 C1401 1.433 . S
C1409 N1411 1.384 . S
N1410 C1406 1.427 . S
N1410 C1407 1.384 . S
N1411 C1403 1.427 . S
N1411 C1409 1.384 . S
H1412 C1418 0.930 . S
H1413 C1422 0.930 . S
H1414 C1427 0.929 . S
H1415 C1425 0.929 . S
H1416 C1420 0.929 . S
H1417 C1426 0.929 . S
C1418 H1412 0.930 . S
C1418 C1419 1.367 . S
C1418 C1426 1.378 . S
C1419 C1418 1.367 . S
C1419 C1427 1.433 . S
C1420 H1416 0.929 . S
C1420 C1422 1.378 . S
C1420 C1424 1.350 . S
C1421 C1424 1.463 . S
C1421 C1426 1.350 . S
C1421 N1429 1.427 . S
C1422 H1413 0.930 . S
C1422 C1420 1.378 . S
C1422 C1423 1.367 . S
C1423 C1422 1.367 . S
C1423 C1425 1.433 . S
C1424 C1420 1.350 . S
C1424 C1421 1.463 . S
C1424 N1428 1.427 . S
C1425 H1415 0.929 . S
C1425 C1423 1.433 . S
C1425 N1428 1.384 . S
C1426 H1417 0.929 . S
C1426 C1418 1.378 . S
C1426 C1421 1.350 . S
C1427 H1414 0.929 . S
C1427 C1419 1.433 . S
C1427 N1429 1.384 . S
N1428 C1424 1.427 . S
N1428 C1425 1.384 . S
N1429 C1421 1.427 . S
N1429 C1427 1.384 . S
H1430 C1436 0.930 . S
H1431 C1440 0.930 . S
H1432 C1445 0.929 . S
H1433 C1443 0.929 . S
H1434 C1438 0.929 . S
H1435 C1444 0.929 . S
C1436 H1430 0.930 . S
C1436 C1437 1.367 . S
C1436 C1444 1.378 . S
C1437 C1436 1.367 . S
C1437 C1445 1.433 . S
C1438 H1434 0.929 . S
C1438 C1440 1.378 . S
C1438 C1442 1.350 . S
C1439 C1442 1.463 . S
C1439 C1444 1.350 . S
C1439 N1447 1.427 . S
C1440 H1431 0.930 . S
C1440 C1438 1.378 . S
C1440 C1441 1.367 . S
C1441 C1440 1.367 . S
C1441 C1443 1.433 . S
C1442 C1438 1.350 . S
C1442 C1439 1.463 . S
C1442 N1446 1.427 . S
C1443 H1433 0.929 . S
C1443 C1441 1.433 . S
C1443 N1446 1.384 . S
C1444 H1435 0.929 . S
C1444 C1436 1.378 . S
C1444 C1439 1.350 . S
C1445 H1432 0.929 . S
C1445 C1437 1.433 . S
C1445 N1447 1.384 . S
N1446 C1442 1.427 . S
N1446 C1443 1.384 . S
N1447 C1439 1.427 . S
N1447 C1445 1.384 . S
H1448 C1454 0.930 . S
H1449 C1458 0.930 . S
H1450 C1463 0.929 . S
H1451 C1461 0.929 . S
H1452 C1456 0.929 . S
H1453 C1462 0.929 . S
C1454 H1448 0.930 . S
C1454 C1455 1.367 . S
C1454 C1462 1.378 . S
C1455 C1454 1.367 . S
C1455 C1463 1.433 . S
C1456 H1452 0.929 . S
C1456 C1458 1.378 . S
C1456 C1460 1.350 . S
C1457 C1460 1.463 . S
C1457 C1462 1.350 . S
C1457 N1465 1.427 . S
C1458 H1449 0.930 . S
C1458 C1456 1.378 . S
C1458 C1459 1.367 . S
C1459 C1458 1.367 . S
C1459 C1461 1.433 . S
C1460 C1456 1.350 . S
C1460 C1457 1.463 . S
C1460 N1464 1.427 . S
C1461 H1451 0.929 . S
C1461 C1459 1.433 . S
C1461 N1464 1.384 . S
C1462 H1453 0.929 . S
C1462 C1454 1.378 . S
C1462 C1457 1.350 . S
C1463 H1450 0.929 . S
C1463 C1455 1.433 . S
C1463 N1465 1.384 . S
N1464 C1460 1.427 . S
N1464 C1461 1.384 . S
N1465 C1457 1.427 . S
N1465 C1463 1.384 . S
H1466 C1472 0.930 . S
H1467 C1476 0.930 . S
H1468 C1481 0.929 . S
H1469 C1479 0.929 . S
H1470 C1474 0.929 . S
H1471 C1480 0.929 . S
C1472 H1466 0.930 . S
C1472 C1473 1.367 . S
C1472 C1480 1.378 . S
C1473 C1472 1.367 . S
C1473 C1481 1.433 . S
C1474 H1470 0.929 . S
C1474 C1476 1.378 . S
C1474 C1478 1.350 . S
C1475 C1478 1.463 . S
C1475 C1480 1.350 . S
C1475 N1483 1.427 . S
C1476 H1467 0.930 . S
C1476 C1474 1.378 . S
C1476 C1477 1.367 . S
C1477 C1476 1.367 . S
C1477 C1479 1.433 . S
C1478 C1474 1.350 . S
C1478 C1475 1.463 . S
C1478 N1482 1.427 . S
C1479 H1469 0.929 . S
C1479 C1477 1.433 . S
C1479 N1482 1.384 . S
C1480 H1471 0.929 . S
C1480 C1472 1.378 . S
C1480 C1475 1.350 . S
C1481 H1468 0.929 . S
C1481 C1473 1.433 . S
C1481 N1483 1.384 . S
N1482 C1478 1.427 . S
N1482 C1479 1.384 . S
N1483 C1475 1.427 . S
N1483 C1481 1.384 . S
H1484 C1490 0.930 . S
H1485 C1494 0.930 . S
H1486 C1499 0.929 . S
H1487 C1497 0.929 . S
H1488 C1492 0.929 . S
H1489 C1498 0.929 . S
C1490 H1484 0.930 . S
C1490 C1491 1.367 . S
C1490 C1498 1.378 . S
C1491 C1490 1.367 . S
C1491 C1499 1.433 . S
C1492 H1488 0.929 . S
C1492 C1494 1.378 . S
C1492 C1496 1.350 . S
C1493 C1496 1.463 . S
C1493 C1498 1.350 . S
C1493 N1501 1.427 . S
C1494 H1485 0.930 . S
C1494 C1492 1.378 . S
C1494 C1495 1.367 . S
C1495 C1494 1.367 . S
C1495 C1497 1.433 . S
C1496 C1492 1.350 . S
C1496 C1493 1.463 . S
C1496 N1500 1.427 . S
C1497 H1487 0.929 . S
C1497 C1495 1.433 . S
C1497 N1500 1.384 . S
C1498 H1489 0.929 . S
C1498 C1490 1.378 . S
C1498 C1493 1.350 . S
C1499 H1486 0.929 . S
C1499 C1491 1.433 . S
C1499 N1501 1.384 . S
N1500 C1496 1.427 . S
N1500 C1497 1.384 . S
N1501 C1493 1.427 . S
N1501 C1499 1.384 . S
H1502 C1508 0.930 . S
H1503 C1512 0.930 . S
H1504 C1517 0.929 . S
H1505 C1515 0.929 . S
H1506 C1510 0.929 . S
H1507 C1516 0.929 . S
C1508 H1502 0.930 . S
C1508 C1509 1.367 . S
C1508 C1516 1.378 . S
C1509 C1508 1.367 . S
C1509 C1517 1.433 . S
C1510 H1506 0.929 . S
C1510 C1512 1.378 . S
C1510 C1514 1.350 . S
C1511 C1514 1.463 . S
C1511 C1516 1.350 . S
C1511 N1519 1.427 . S
C1512 H1503 0.930 . S
C1512 C1510 1.378 . S
C1512 C1513 1.367 . S
C1513 C1512 1.367 . S
C1513 C1515 1.433 . S
C1514 C1510 1.350 . S
C1514 C1511 1.463 . S
C1514 N1518 1.427 . S
C1515 H1505 0.929 . S
C1515 C1513 1.433 . S
C1515 N1518 1.384 . S
C1516 H1507 0.929 . S
C1516 C1508 1.378 . S
C1516 C1511 1.350 . S
C1517 H1504 0.929 . S
C1517 C1509 1.433 . S
C1517 N1519 1.384 . S
N1518 C1514 1.427 . S
N1518 C1515 1.384 . S
N1519 C1511 1.427 . S
N1519 C1517 1.384 . S
C951 C890 1.223 . S
C955 C5 1.237 . S
C969 C713 1.193 . S
C973 C64 1.193 . S
C987 C123 1.570 . S
C991 C772 1.520 . S
C1005 C831 1.421 . S
C1009 C182 1.464 . S
C1023 C536 1.192 . S
C1027 C241 1.191 . S
C1041 C300 1.529 . S
C1045 C595 1.574 . S
C1059 C359 1.423 . S
C1063 C654 1.464 . S
C1077 C418 1.231 . S
C1081 C477 1.236 . S
C1095 C347 2.265 . S
C1099 C33 2.229 . S
C1113 C357 1.199 . S
C1117 C62 1.216 . S
C1131 C465 1.650 . S
C1135 C151 1.621 . S
C1149 C180 1.611 . S
C1153 C269 1.652 . S
C1167 C52 1.492 . S
C1171 C111 1.467 . S
C1185 C121 1.285 . S
C1189 C92 1.339 . S
C1203 C170 1.348 . S
C1207 C229 1.344 . S
C1221 C3 1.289 . S
C1225 C210 1.269 . S
C1239 C446 1.194 . S
C1243 C288 1.168 . S
C1257 C239 1.811 . S
C1261 C298 1.812 . S
C1275 C328 1.370 . S
C1279 C387 1.339 . S
C1293 C416 2.035 . S
C1297 C406 2.063 . S
C1311 C819 2.267 . S
C1315 C505 2.222 . S
C1329 C534 1.211 . S
C1333 C829 1.204 . S
C1347 C937 1.643 . S
C1351 C623 1.616 . S
C1365 C741 1.655 . S
C1369 C652 1.602 . S
C1383 C524 1.492 . S
C1387 C583 1.469 . S
C1401 C564 1.332 . S
C1405 C593 1.300 . S
C1419 C701 1.345 . S
C1423 C642 1.348 . S
C1437 C475 1.290 . S
C1441 C682 1.269 . S
C1455 C918 1.195 . S
C1459 C760 1.167 . S
C1473 C711 1.815 . S
C1477 C770 1.809 . S
C1491 C800 1.367 . S
C1495 C859 1.344 . S
C1509 C888 2.031 . S
C1513 C878 2.063 . S
