# Generated by pormake.
# Topology pyc, (8)-cn, num edge types: 1
# Building blocks:
#     Node 0, Type 0, BuildingBlock: GIZVER_clean_sbu_0, # of connection points: 8
#     Node 1, Type 0, BuildingBlock: GIZVER_clean_sbu_0, # of connection points: 8
#     Node 2, Type 0, BuildingBlock: GIZVER_clean_sbu_0, # of connection points: 8
#     Node 3, Type 0, BuildingBlock: GIZVER_clean_sbu_0, # of connection points: 8
#     Node 4, Type 0, BuildingBlock: GIZVER_clean_sbu_0, # of connection points: 8
#     Node 5, Type 0, BuildingBlock: GIZVER_clean_sbu_0, # of connection points: 8
#     Node 6, Type 0, BuildingBlock: GIZVER_clean_sbu_0, # of connection points: 8
#     Node 7, Type 0, BuildingBlock: GIZVER_clean_sbu_0, # of connection points: 8
#     Node 8, Type 0, BuildingBlock: GIZVER_clean_sbu_0, # of connection points: 8
#     Node 9, Type 0, BuildingBlock: GIZVER_clean_sbu_0, # of connection points: 8
#     Node 10, Type 0, BuildingBlock: GIZVER_clean_sbu_0, # of connection points: 8
#     Node 11, Type 0, BuildingBlock: GIZVER_clean_sbu_0, # of connection points: 8
#     Node 12, Type 0, BuildingBlock: GIZVER_clean_sbu_0, # of connection points: 8
#     Node 13, Type 0, BuildingBlock: GIZVER_clean_sbu_0, # of connection points: 8
#     Node 14, Type 0, BuildingBlock: GIZVER_clean_sbu_0, # of connection points: 8
#     Node 15, Type 0, BuildingBlock: GIZVER_clean_sbu_0, # of connection points: 8
#     Node 16, Type 0, BuildingBlock: GIZVER_clean_sbu_0, # of connection points: 8
#     Node 17, Type 0, BuildingBlock: GIZVER_clean_sbu_0, # of connection points: 8
#     Node 18, Type 0, BuildingBlock: GIZVER_clean_sbu_0, # of connection points: 8
#     Node 19, Type 0, BuildingBlock: GIZVER_clean_sbu_0, # of connection points: 8
#     Node 20, Type 0, BuildingBlock: GIZVER_clean_sbu_0, # of connection points: 8
#     Node 21, Type 0, BuildingBlock: GIZVER_clean_sbu_0, # of connection points: 8
#     Node 22, Type 0, BuildingBlock: GIZVER_clean_sbu_0, # of connection points: 8
#     Node 23, Type 0, BuildingBlock: GIZVER_clean_sbu_0, # of connection points: 8
#     Node 24, Type 0, BuildingBlock: GIZVER_clean_sbu_0, # of connection points: 8
#     Node 25, Type 0, BuildingBlock: GIZVER_clean_sbu_0, # of connection points: 8
#     Node 26, Type 0, BuildingBlock: GIZVER_clean_sbu_0, # of connection points: 8
#     Node 27, Type 0, BuildingBlock: GIZVER_clean_sbu_0, # of connection points: 8
#     Node 28, Type 0, BuildingBlock: GIZVER_clean_sbu_0, # of connection points: 8
#     Node 29, Type 0, BuildingBlock: GIZVER_clean_sbu_0, # of connection points: 8
#     Node 30, Type 0, BuildingBlock: GIZVER_clean_sbu_0, # of connection points: 8
#     Node 31, Type 0, BuildingBlock: GIZVER_clean_sbu_0, # of connection points: 8
#     Node 32, Type 0, BuildingBlock: GIZVER_clean_sbu_0, # of connection points: 8
#     Node 33, Type 0, BuildingBlock: GIZVER_clean_sbu_0, # of connection points: 8
#     Node 34, Type 0, BuildingBlock: GIZVER_clean_sbu_0, # of connection points: 8
#     Node 35, Type 0, BuildingBlock: GIZVER_clean_sbu_0, # of connection points: 8
#     Node 36, Type 0, BuildingBlock: GIZVER_clean_sbu_0, # of connection points: 8
#     Node 37, Type 0, BuildingBlock: GIZVER_clean_sbu_0, # of connection points: 8
#     Node 38, Type 0, BuildingBlock: GIZVER_clean_sbu_0, # of connection points: 8
#     Node 39, Type 0, BuildingBlock: GIZVER_clean_sbu_0, # of connection points: 8
#     Node 40, Type 0, BuildingBlock: GIZVER_clean_sbu_0, # of connection points: 8
#     Node 41, Type 0, BuildingBlock: GIZVER_clean_sbu_0, # of connection points: 8
#     Node 42, Type 0, BuildingBlock: GIZVER_clean_sbu_0, # of connection points: 8
#     Node 43, Type 0, BuildingBlock: GIZVER_clean_sbu_0, # of connection points: 8
#     Node 44, Type 0, BuildingBlock: GIZVER_clean_sbu_0, # of connection points: 8
#     Node 45, Type 0, BuildingBlock: GIZVER_clean_sbu_0, # of connection points: 8
#     Node 46, Type 0, BuildingBlock: GIZVER_clean_sbu_0, # of connection points: 8
#     Node 47, Type 0, BuildingBlock: GIZVER_clean_sbu_0, # of connection points: 8
#     Edge 48, Type (0, 0), BuildingBlock: AJUNOK_clean_linker_0, # of connection points: 2
#     Edge 49, Type (0, 0), BuildingBlock: AJUNOK_clean_linker_0, # of connection points: 2
#     Edge 50, Type (0, 0), BuildingBlock: AJUNOK_clean_linker_0, # of connection points: 2
#     Edge 51, Type (0, 0), BuildingBlock: AJUNOK_clean_linker_0, # of connection points: 2
#     Edge 52, Type (0, 0), BuildingBlock: AJUNOK_clean_linker_0, # of connection points: 2
#     Edge 53, Type (0, 0), BuildingBlock: AJUNOK_clean_linker_0, # of connection points: 2
#     Edge 54, Type (0, 0), BuildingBlock: AJUNOK_clean_linker_0, # of connection points: 2
#     Edge 55, Type (0, 0), BuildingBlock: AJUNOK_clean_linker_0, # of connection points: 2
#     Edge 56, Type (0, 0), BuildingBlock: AJUNOK_clean_linker_0, # of connection points: 2
#     Edge 57, Type (0, 0), BuildingBlock: AJUNOK_clean_linker_0, # of connection points: 2
#     Edge 58, Type (0, 0), BuildingBlock: AJUNOK_clean_linker_0, # of connection points: 2
#     Edge 59, Type (0, 0), BuildingBlock: AJUNOK_clean_linker_0, # of connection points: 2
#     Edge 60, Type (0, 0), BuildingBlock: AJUNOK_clean_linker_0, # of connection points: 2
#     Edge 61, Type (0, 0), BuildingBlock: AJUNOK_clean_linker_0, # of connection points: 2
#     Edge 62, Type (0, 0), BuildingBlock: AJUNOK_clean_linker_0, # of connection points: 2
#     Edge 63, Type (0, 0), BuildingBlock: AJUNOK_clean_linker_0, # of connection points: 2
#     Edge 64, Type (0, 0), BuildingBlock: AJUNOK_clean_linker_0, # of connection points: 2
#     Edge 65, Type (0, 0), BuildingBlock: AJUNOK_clean_linker_0, # of connection points: 2
#     Edge 66, Type (0, 0), BuildingBlock: AJUNOK_clean_linker_0, # of connection points: 2
#     Edge 67, Type (0, 0), BuildingBlock: AJUNOK_clean_linker_0, # of connection points: 2
#     Edge 68, Type (0, 0), BuildingBlock: AJUNOK_clean_linker_0, # of connection points: 2
#     Edge 69, Type (0, 0), BuildingBlock: AJUNOK_clean_linker_0, # of connection points: 2
#     Edge 70, Type (0, 0), BuildingBlock: AJUNOK_clean_linker_0, # of connection points: 2
#     Edge 71, Type (0, 0), BuildingBlock: AJUNOK_clean_linker_0, # of connection points: 2
#     Edge 72, Type (0, 0), BuildingBlock: AJUNOK_clean_linker_0, # of connection points: 2
#     Edge 73, Type (0, 0), BuildingBlock: AJUNOK_clean_linker_0, # of connection points: 2
#     Edge 74, Type (0, 0), BuildingBlock: AJUNOK_clean_linker_0, # of connection points: 2
#     Edge 75, Type (0, 0), BuildingBlock: AJUNOK_clean_linker_0, # of connection points: 2
#     Edge 76, Type (0, 0), BuildingBlock: AJUNOK_clean_linker_0, # of connection points: 2
#     Edge 77, Type (0, 0), BuildingBlock: AJUNOK_clean_linker_0, # of connection points: 2
#     Edge 78, Type (0, 0), BuildingBlock: AJUNOK_clean_linker_0, # of connection points: 2
#     Edge 79, Type (0, 0), BuildingBlock: AJUNOK_clean_linker_0, # of connection points: 2
#     Edge 80, Type (0, 0), BuildingBlock: AJUNOK_clean_linker_0, # of connection points: 2
#     Edge 81, Type (0, 0), BuildingBlock: AJUNOK_clean_linker_0, # of connection points: 2
#     Edge 82, Type (0, 0), BuildingBlock: AJUNOK_clean_linker_0, # of connection points: 2
#     Edge 83, Type (0, 0), BuildingBlock: AJUNOK_clean_linker_0, # of connection points: 2
#     Edge 84, Type (0, 0), BuildingBlock: AJUNOK_clean_linker_0, # of connection points: 2
#     Edge 85, Type (0, 0), BuildingBlock: AJUNOK_clean_linker_0, # of connection points: 2
#     Edge 86, Type (0, 0), BuildingBlock: AJUNOK_clean_linker_0, # of connection points: 2
#     Edge 87, Type (0, 0), BuildingBlock: AJUNOK_clean_linker_0, # of connection points: 2
#     Edge 88, Type (0, 0), BuildingBlock: AJUNOK_clean_linker_0, # of connection points: 2
#     Edge 89, Type (0, 0), BuildingBlock: AJUNOK_clean_linker_0, # of connection points: 2
#     Edge 90, Type (0, 0), BuildingBlock: AJUNOK_clean_linker_0, # of connection points: 2
#     Edge 91, Type (0, 0), BuildingBlock: AJUNOK_clean_linker_0, # of connection points: 2
#     Edge 92, Type (0, 0), BuildingBlock: AJUNOK_clean_linker_0, # of connection points: 2
#     Edge 93, Type (0, 0), BuildingBlock: AJUNOK_clean_linker_0, # of connection points: 2
#     Edge 94, Type (0, 0), BuildingBlock: AJUNOK_clean_linker_0, # of connection points: 2
#     Edge 95, Type (0, 0), BuildingBlock: AJUNOK_clean_linker_0, # of connection points: 2
#     Edge 96, Type (0, 0), BuildingBlock: AJUNOK_clean_linker_0, # of connection points: 2
#     Edge 97, Type (0, 0), BuildingBlock: AJUNOK_clean_linker_0, # of connection points: 2
#     Edge 98, Type (0, 0), BuildingBlock: AJUNOK_clean_linker_0, # of connection points: 2
#     Edge 99, Type (0, 0), BuildingBlock: AJUNOK_clean_linker_0, # of connection points: 2
#     Edge 100, Type (0, 0), BuildingBlock: AJUNOK_clean_linker_0, # of connection points: 2
#     Edge 101, Type (0, 0), BuildingBlock: AJUNOK_clean_linker_0, # of connection points: 2
#     Edge 102, Type (0, 0), BuildingBlock: AJUNOK_clean_linker_0, # of connection points: 2
#     Edge 103, Type (0, 0), BuildingBlock: AJUNOK_clean_linker_0, # of connection points: 2
#     Edge 104, Type (0, 0), BuildingBlock: AJUNOK_clean_linker_0, # of connection points: 2
#     Edge 105, Type (0, 0), BuildingBlock: AJUNOK_clean_linker_0, # of connection points: 2
#     Edge 106, Type (0, 0), BuildingBlock: AJUNOK_clean_linker_0, # of connection points: 2
#     Edge 107, Type (0, 0), BuildingBlock: AJUNOK_clean_linker_0, # of connection points: 2
#     Edge 108, Type (0, 0), BuildingBlock: AJUNOK_clean_linker_0, # of connection points: 2
#     Edge 109, Type (0, 0), BuildingBlock: AJUNOK_clean_linker_0, # of connection points: 2
#     Edge 110, Type (0, 0), BuildingBlock: AJUNOK_clean_linker_0, # of connection points: 2
#     Edge 111, Type (0, 0), BuildingBlock: AJUNOK_clean_linker_0, # of connection points: 2
#     Edge 112, Type (0, 0), BuildingBlock: AJUNOK_clean_linker_0, # of connection points: 2
#     Edge 113, Type (0, 0), BuildingBlock: AJUNOK_clean_linker_0, # of connection points: 2
#     Edge 114, Type (0, 0), BuildingBlock: AJUNOK_clean_linker_0, # of connection points: 2
#     Edge 115, Type (0, 0), BuildingBlock: AJUNOK_clean_linker_0, # of connection points: 2
#     Edge 116, Type (0, 0), BuildingBlock: AJUNOK_clean_linker_0, # of connection points: 2
#     Edge 117, Type (0, 0), BuildingBlock: AJUNOK_clean_linker_0, # of connection points: 2
#     Edge 118, Type (0, 0), BuildingBlock: AJUNOK_clean_linker_0, # of connection points: 2
#     Edge 119, Type (0, 0), BuildingBlock: AJUNOK_clean_linker_0, # of connection points: 2
#     Edge 120, Type (0, 0), BuildingBlock: AJUNOK_clean_linker_0, # of connection points: 2
#     Edge 121, Type (0, 0), BuildingBlock: AJUNOK_clean_linker_0, # of connection points: 2
#     Edge 122, Type (0, 0), BuildingBlock: AJUNOK_clean_linker_0, # of connection points: 2
#     Edge 123, Type (0, 0), BuildingBlock: AJUNOK_clean_linker_0, # of connection points: 2
#     Edge 124, Type (0, 0), BuildingBlock: AJUNOK_clean_linker_0, # of connection points: 2
#     Edge 125, Type (0, 0), BuildingBlock: AJUNOK_clean_linker_0, # of connection points: 2
#     Edge 126, Type (0, 0), BuildingBlock: AJUNOK_clean_linker_0, # of connection points: 2
#     Edge 127, Type (0, 0), BuildingBlock: AJUNOK_clean_linker_0, # of connection points: 2
#     Edge 128, Type (0, 0), BuildingBlock: AJUNOK_clean_linker_0, # of connection points: 2
#     Edge 129, Type (0, 0), BuildingBlock: AJUNOK_clean_linker_0, # of connection points: 2
#     Edge 130, Type (0, 0), BuildingBlock: AJUNOK_clean_linker_0, # of connection points: 2
#     Edge 131, Type (0, 0), BuildingBlock: AJUNOK_clean_linker_0, # of connection points: 2
#     Edge 132, Type (0, 0), BuildingBlock: AJUNOK_clean_linker_0, # of connection points: 2
#     Edge 133, Type (0, 0), BuildingBlock: AJUNOK_clean_linker_0, # of connection points: 2
#     Edge 134, Type (0, 0), BuildingBlock: AJUNOK_clean_linker_0, # of connection points: 2
#     Edge 135, Type (0, 0), BuildingBlock: AJUNOK_clean_linker_0, # of connection points: 2
#     Edge 136, Type (0, 0), BuildingBlock: AJUNOK_clean_linker_0, # of connection points: 2
#     Edge 137, Type (0, 0), BuildingBlock: AJUNOK_clean_linker_0, # of connection points: 2
#     Edge 138, Type (0, 0), BuildingBlock: AJUNOK_clean_linker_0, # of connection points: 2
#     Edge 139, Type (0, 0), BuildingBlock: AJUNOK_clean_linker_0, # of connection points: 2
#     Edge 140, Type (0, 0), BuildingBlock: AJUNOK_clean_linker_0, # of connection points: 2
#     Edge 141, Type (0, 0), BuildingBlock: AJUNOK_clean_linker_0, # of connection points: 2
#     Edge 142, Type (0, 0), BuildingBlock: AJUNOK_clean_linker_0, # of connection points: 2
#     Edge 143, Type (0, 0), BuildingBlock: AJUNOK_clean_linker_0, # of connection points: 2
#     Edge 144, Type (0, 0), BuildingBlock: AJUNOK_clean_linker_0, # of connection points: 2
#     Edge 145, Type (0, 0), BuildingBlock: AJUNOK_clean_linker_0, # of connection points: 2
#     Edge 146, Type (0, 0), BuildingBlock: AJUNOK_clean_linker_0, # of connection points: 2
#     Edge 147, Type (0, 0), BuildingBlock: AJUNOK_clean_linker_0, # of connection points: 2
#     Edge 148, Type (0, 0), BuildingBlock: AJUNOK_clean_linker_0, # of connection points: 2
#     Edge 149, Type (0, 0), BuildingBlock: AJUNOK_clean_linker_0, # of connection points: 2
#     Edge 150, Type (0, 0), BuildingBlock: AJUNOK_clean_linker_0, # of connection points: 2
#     Edge 151, Type (0, 0), BuildingBlock: AJUNOK_clean_linker_0, # of connection points: 2
#     Edge 152, Type (0, 0), BuildingBlock: AJUNOK_clean_linker_0, # of connection points: 2
#     Edge 153, Type (0, 0), BuildingBlock: AJUNOK_clean_linker_0, # of connection points: 2
#     Edge 154, Type (0, 0), BuildingBlock: AJUNOK_clean_linker_0, # of connection points: 2
#     Edge 155, Type (0, 0), BuildingBlock: AJUNOK_clean_linker_0, # of connection points: 2
#     Edge 156, Type (0, 0), BuildingBlock: AJUNOK_clean_linker_0, # of connection points: 2
#     Edge 157, Type (0, 0), BuildingBlock: AJUNOK_clean_linker_0, # of connection points: 2
#     Edge 158, Type (0, 0), BuildingBlock: AJUNOK_clean_linker_0, # of connection points: 2
#     Edge 159, Type (0, 0), BuildingBlock: AJUNOK_clean_linker_0, # of connection points: 2
#     Edge 160, Type (0, 0), BuildingBlock: AJUNOK_clean_linker_0, # of connection points: 2
#     Edge 161, Type (0, 0), BuildingBlock: AJUNOK_clean_linker_0, # of connection points: 2
#     Edge 162, Type (0, 0), BuildingBlock: AJUNOK_clean_linker_0, # of connection points: 2
#     Edge 163, Type (0, 0), BuildingBlock: AJUNOK_clean_linker_0, # of connection points: 2
#     Edge 164, Type (0, 0), BuildingBlock: AJUNOK_clean_linker_0, # of connection points: 2
#     Edge 165, Type (0, 0), BuildingBlock: AJUNOK_clean_linker_0, # of connection points: 2
#     Edge 166, Type (0, 0), BuildingBlock: AJUNOK_clean_linker_0, # of connection points: 2
#     Edge 167, Type (0, 0), BuildingBlock: AJUNOK_clean_linker_0, # of connection points: 2
#     Edge 168, Type (0, 0), BuildingBlock: AJUNOK_clean_linker_0, # of connection points: 2
#     Edge 169, Type (0, 0), BuildingBlock: AJUNOK_clean_linker_0, # of connection points: 2
#     Edge 170, Type (0, 0), BuildingBlock: AJUNOK_clean_linker_0, # of connection points: 2
#     Edge 171, Type (0, 0), BuildingBlock: AJUNOK_clean_linker_0, # of connection points: 2
#     Edge 172, Type (0, 0), BuildingBlock: AJUNOK_clean_linker_0, # of connection points: 2
#     Edge 173, Type (0, 0), BuildingBlock: AJUNOK_clean_linker_0, # of connection points: 2
#     Edge 174, Type (0, 0), BuildingBlock: AJUNOK_clean_linker_0, # of connection points: 2
#     Edge 175, Type (0, 0), BuildingBlock: AJUNOK_clean_linker_0, # of connection points: 2
#     Edge 176, Type (0, 0), BuildingBlock: AJUNOK_clean_linker_0, # of connection points: 2
#     Edge 177, Type (0, 0), BuildingBlock: AJUNOK_clean_linker_0, # of connection points: 2
#     Edge 178, Type (0, 0), BuildingBlock: AJUNOK_clean_linker_0, # of connection points: 2
#     Edge 179, Type (0, 0), BuildingBlock: AJUNOK_clean_linker_0, # of connection points: 2
#     Edge 180, Type (0, 0), BuildingBlock: AJUNOK_clean_linker_0, # of connection points: 2
#     Edge 181, Type (0, 0), BuildingBlock: AJUNOK_clean_linker_0, # of connection points: 2
#     Edge 182, Type (0, 0), BuildingBlock: AJUNOK_clean_linker_0, # of connection points: 2
#     Edge 183, Type (0, 0), BuildingBlock: AJUNOK_clean_linker_0, # of connection points: 2
#     Edge 184, Type (0, 0), BuildingBlock: AJUNOK_clean_linker_0, # of connection points: 2
#     Edge 185, Type (0, 0), BuildingBlock: AJUNOK_clean_linker_0, # of connection points: 2
#     Edge 186, Type (0, 0), BuildingBlock: AJUNOK_clean_linker_0, # of connection points: 2
#     Edge 187, Type (0, 0), BuildingBlock: AJUNOK_clean_linker_0, # of connection points: 2
#     Edge 188, Type (0, 0), BuildingBlock: AJUNOK_clean_linker_0, # of connection points: 2
#     Edge 189, Type (0, 0), BuildingBlock: AJUNOK_clean_linker_0, # of connection points: 2
#     Edge 190, Type (0, 0), BuildingBlock: AJUNOK_clean_linker_0, # of connection points: 2
#     Edge 191, Type (0, 0), BuildingBlock: AJUNOK_clean_linker_0, # of connection points: 2
#     Edge 192, Type (0, 0), BuildingBlock: AJUNOK_clean_linker_0, # of connection points: 2
#     Edge 193, Type (0, 0), BuildingBlock: AJUNOK_clean_linker_0, # of connection points: 2
#     Edge 194, Type (0, 0), BuildingBlock: AJUNOK_clean_linker_0, # of connection points: 2
#     Edge 195, Type (0, 0), BuildingBlock: AJUNOK_clean_linker_0, # of connection points: 2
#     Edge 196, Type (0, 0), BuildingBlock: AJUNOK_clean_linker_0, # of connection points: 2
#     Edge 197, Type (0, 0), BuildingBlock: AJUNOK_clean_linker_0, # of connection points: 2
#     Edge 198, Type (0, 0), BuildingBlock: AJUNOK_clean_linker_0, # of connection points: 2
#     Edge 199, Type (0, 0), BuildingBlock: AJUNOK_clean_linker_0, # of connection points: 2
#     Edge 200, Type (0, 0), BuildingBlock: AJUNOK_clean_linker_0, # of connection points: 2
#     Edge 201, Type (0, 0), BuildingBlock: AJUNOK_clean_linker_0, # of connection points: 2
#     Edge 202, Type (0, 0), BuildingBlock: AJUNOK_clean_linker_0, # of connection points: 2
#     Edge 203, Type (0, 0), BuildingBlock: AJUNOK_clean_linker_0, # of connection points: 2
#     Edge 204, Type (0, 0), BuildingBlock: AJUNOK_clean_linker_0, # of connection points: 2
#     Edge 205, Type (0, 0), BuildingBlock: AJUNOK_clean_linker_0, # of connection points: 2
#     Edge 206, Type (0, 0), BuildingBlock: AJUNOK_clean_linker_0, # of connection points: 2
#     Edge 207, Type (0, 0), BuildingBlock: AJUNOK_clean_linker_0, # of connection points: 2
#     Edge 208, Type (0, 0), BuildingBlock: AJUNOK_clean_linker_0, # of connection points: 2
#     Edge 209, Type (0, 0), BuildingBlock: AJUNOK_clean_linker_0, # of connection points: 2
#     Edge 210, Type (0, 0), BuildingBlock: AJUNOK_clean_linker_0, # of connection points: 2
#     Edge 211, Type (0, 0), BuildingBlock: AJUNOK_clean_linker_0, # of connection points: 2
#     Edge 212, Type (0, 0), BuildingBlock: AJUNOK_clean_linker_0, # of connection points: 2
#     Edge 213, Type (0, 0), BuildingBlock: AJUNOK_clean_linker_0, # of connection points: 2
#     Edge 214, Type (0, 0), BuildingBlock: AJUNOK_clean_linker_0, # of connection points: 2
#     Edge 215, Type (0, 0), BuildingBlock: AJUNOK_clean_linker_0, # of connection points: 2
#     Edge 216, Type (0, 0), BuildingBlock: AJUNOK_clean_linker_0, # of connection points: 2
#     Edge 217, Type (0, 0), BuildingBlock: AJUNOK_clean_linker_0, # of connection points: 2
#     Edge 218, Type (0, 0), BuildingBlock: AJUNOK_clean_linker_0, # of connection points: 2
#     Edge 219, Type (0, 0), BuildingBlock: AJUNOK_clean_linker_0, # of connection points: 2
#     Edge 220, Type (0, 0), BuildingBlock: AJUNOK_clean_linker_0, # of connection points: 2
#     Edge 221, Type (0, 0), BuildingBlock: AJUNOK_clean_linker_0, # of connection points: 2
#     Edge 222, Type (0, 0), BuildingBlock: AJUNOK_clean_linker_0, # of connection points: 2
#     Edge 223, Type (0, 0), BuildingBlock: AJUNOK_clean_linker_0, # of connection points: 2
#     Edge 224, Type (0, 0), BuildingBlock: AJUNOK_clean_linker_0, # of connection points: 2
#     Edge 225, Type (0, 0), BuildingBlock: AJUNOK_clean_linker_0, # of connection points: 2
#     Edge 226, Type (0, 0), BuildingBlock: AJUNOK_clean_linker_0, # of connection points: 2
#     Edge 227, Type (0, 0), BuildingBlock: AJUNOK_clean_linker_0, # of connection points: 2
#     Edge 228, Type (0, 0), BuildingBlock: AJUNOK_clean_linker_0, # of connection points: 2
#     Edge 229, Type (0, 0), BuildingBlock: AJUNOK_clean_linker_0, # of connection points: 2
#     Edge 230, Type (0, 0), BuildingBlock: AJUNOK_clean_linker_0, # of connection points: 2
#     Edge 231, Type (0, 0), BuildingBlock: AJUNOK_clean_linker_0, # of connection points: 2
#     Edge 232, Type (0, 0), BuildingBlock: AJUNOK_clean_linker_0, # of connection points: 2
#     Edge 233, Type (0, 0), BuildingBlock: AJUNOK_clean_linker_0, # of connection points: 2
#     Edge 234, Type (0, 0), BuildingBlock: AJUNOK_clean_linker_0, # of connection points: 2
#     Edge 235, Type (0, 0), BuildingBlock: AJUNOK_clean_linker_0, # of connection points: 2
#     Edge 236, Type (0, 0), BuildingBlock: AJUNOK_clean_linker_0, # of connection points: 2
#     Edge 237, Type (0, 0), BuildingBlock: AJUNOK_clean_linker_0, # of connection points: 2
#     Edge 238, Type (0, 0), BuildingBlock: AJUNOK_clean_linker_0, # of connection points: 2
#     Edge 239, Type (0, 0), BuildingBlock: AJUNOK_clean_linker_0, # of connection points: 2
# Relax obj value: 0.410
# Max RMSD: 0.244
# Mean RMSD: 0.207
data_MOF--net-pyc--node1-GIZVER_clean_sbu_0--edge1-AJUNOK_clean_linker_0
_symmetry_space_group_name_H-M    P1
_symmetry_Int_Tables_number       1
_symmetry_cell_setting            triclinic
loop_
_symmetry_equiv_pos_as_xyz
'x, y, z'
_cell_length_a     51.461172
_cell_length_b     50.154028
_cell_length_c     48.581532
_cell_angle_alpha  90.01187
_cell_angle_beta   87.862293
_cell_angle_gamma 91.822055
loop_
_atom_site_label
_atom_site_type_symbol
_atom_site_fract_x
_atom_site_fract_y
_atom_site_fract_z
_atom_type_partial_charge
Co0 Co 0.19187 0.22155 0.46467 0.0
Co1 Co 0.18288 0.20376 0.51156 0.0
Co2 Co 0.17532 0.15674 0.47099 0.0
O3 O 0.17092 0.19384 0.47886 0.0
H4 H 0.15266 0.19777 0.47878 0.0
O5 O 0.17997 0.11926 0.46427 0.0
Co6 Co 0.15638 0.09285 0.4788 0.0
Co7 Co 0.16702 0.11275 0.42959 0.0
H8 H 0.19794 0.11424 0.4645 0.0
O9 O 0.16272 0.22426 0.53159 0.0
O10 O 0.1981 0.23658 0.50395 0.0
O11 O 0.20634 0.18147 0.52977 0.0
O12 O 0.20692 0.1528 0.49499 0.0
O13 O 0.14828 0.14848 0.50323 0.0
O14 O 0.13606 0.06766 0.49073 0.0
O15 O 0.17932 0.06663 0.48357 0.0
O16 O 0.12812 0.11671 0.48054 0.0
O17 O 0.13872 0.15798 0.44903 0.0
O18 O 0.13692 0.1281 0.41575 0.0
O19 O 0.15296 0.08074 0.43977 0.0
O20 O 0.18584 0.09198 0.40816 0.0
C21 C 0.18397 0.25695 0.4504 0.0
C22 C 0.22739 0.18306 0.44466 0.0
C23 C 0.21595 0.16164 0.51754 0.0
C24 C 0.18108 0.24159 0.52429 0.0
C25 C 0.15734 0.05508 0.49232 0.0
C26 C 0.12768 0.1334 0.50047 0.0
C27 C 0.12495 0.14388 0.43141 0.0
C28 C 0.17131 0.07443 0.42167 0.0
O29 O 0.20778 0.249 0.45021 0.0
O30 O 0.16495 0.24276 0.46169 0.0
O31 O 0.20686 0.16677 0.44029 0.0
O32 O 0.22394 0.20111 0.46309 0.0
Co33 Co 0.8729 0.45897 0.69023 0.0
Co34 Co 0.85736 0.44805 0.73352 0.0
Co35 Co 0.91916 0.4418 0.72241 0.0
O36 O 0.88294 0.43358 0.71574 0.0
H37 H 0.87941 0.41521 0.71067 0.0
O38 O 0.95552 0.45067 0.72831 0.0
Co39 Co 0.97781 0.42918 0.74665 0.0
Co40 Co 0.97468 0.44016 0.69802 0.0
H41 H 0.95841 0.46946 0.73197 0.0
O42 O 0.83019 0.42581 0.73704 0.0
O43 O 0.83629 0.45919 0.70525 0.0
O44 O 0.86825 0.46822 0.76555 0.0
O45 O 0.91147 0.46475 0.75859 0.0
O46 O 0.92005 0.40859 0.74569 0.0
O47 O 0.99958 0.41081 0.76478 0.0
O48 O 0.99556 0.45556 0.76411 0.0
O49 O 0.96034 0.39788 0.73326 0.0
O50 O 0.92553 0.41201 0.68896 0.0
O51 O 0.9673 0.4079 0.67786 0.0
O52 O 1.00404 0.43275 0.71439 0.0
O53 O 0.99499 0.46528 0.68285 0.0
C54 C 0.86425 0.45722 0.65059 0.0
C55 C 0.90112 0.49679 0.706 0.0
C56 C 0.89142 0.47291 0.77328 0.0
C57 C 0.82173 0.44048 0.71731 0.0
C58 C 1.00632 0.43432 0.77353 0.0
C59 C 0.93756 0.39109 0.74288 0.0
C60 C 0.94451 0.39816 0.67705 0.0
C61 C 1.01125 0.45205 0.69698 0.0
O62 O 0.86495 0.47992 0.66342 0.0
O63 O 0.86631 0.43507 0.66427 0.0
O64 O 0.91861 0.47901 0.70017 0.0
O65 O 0.8792 0.48752 0.71392 0.0
Co66 Co 0.68801 0.22444 0.96563 0.0
Co67 Co 0.67438 0.20542 1.01117 0.0
Co68 Co 0.67124 0.15918 0.97099 0.0
O69 O 0.66615 0.19637 0.97729 0.0
H70 H 0.64805 0.20021 0.97524 0.0
O71 O 0.67597 0.12174 0.96513 0.0
Co72 Co 0.65247 0.0943 0.97818 0.0
Co73 Co 0.66365 0.11613 0.93002 0.0
H74 H 0.694 0.11701 0.96558 0.0
O75 O 0.65379 0.22765 0.02815 0.0
O76 O 0.69325 0.2367 1.00607 0.0
O77 O 0.69209 0.18046 0.03321 0.0
O78 O 0.70258 0.15685 0.9962 0.0
O79 O 0.64409 0.15103 1.00302 0.0
O80 O 0.6328 0.06732 0.98936 0.0
O81 O 0.67599 0.06862 0.98033 0.0
O82 O 0.62355 0.11804 0.98179 0.0
O83 O 0.63456 0.15903 0.94939 0.0
O84 O 0.63519 0.13216 0.91384 0.0
O85 O 0.64819 0.08453 0.93852 0.0
O86 O 0.683 0.09649 0.90911 0.0
C87 C 0.68057 0.25995 0.95123 0.0
C88 C 0.72332 0.18557 0.94432 0.0
C89 C 0.70625 0.16343 0.02135 0.0
C90 C 0.67514 0.24222 0.02519 0.0
C91 C 0.65483 0.0556 0.98907 0.0
C92 C 0.62353 0.13564 1.001 0.0
C93 C 0.62191 0.14576 0.93045 0.0
C94 C 0.66679 0.07891 0.92031 0.0
O95 O 0.70462 0.25281 0.95241 0.0
O96 O 0.66175 0.24616 0.96342 0.0
O97 O 0.70301 0.1689 0.94002 0.0
O98 O 0.71958 0.20305 0.96337 0.0
Co99 Co 0.87654 0.95801 0.18914 0.0
Co100 Co 0.86159 0.94589 0.23297 0.0
Co101 Co 0.92313 0.94145 0.22313 0.0
O102 O 0.88765 0.93307 0.21425 0.0
H103 H 0.88464 0.91468 0.20901 0.0
O104 O 0.9591 0.95043 0.23177 0.0
Co105 Co 0.98092 0.93033 0.25273 0.0
Co106 Co 0.97922 0.93689 0.20408 0.0
H107 H 0.96221 0.96944 0.23362 0.0
O108 O 0.83651 0.9215 0.23555 0.0
O109 O 0.84011 0.956 0.20485 0.0
O110 O 0.87099 0.96574 0.26595 0.0
O111 O 0.91425 0.96461 0.25844 0.0
O112 O 0.92193 0.90907 0.24717 0.0
O113 O 1.00197 0.91313 0.27278 0.0
O114 O 0.99899 0.95778 0.26876 0.0
O115 O 0.96338 0.89815 0.24157 0.0
O116 O 0.93116 0.91092 0.19021 0.0
O117 O 0.97309 0.90283 0.18743 0.0
O118 O 1.00829 0.93196 0.22097 0.0
O119 O 0.99787 0.96084 0.18603 0.0
C120 C 0.86641 0.95638 0.14987 0.0
C121 C 0.90477 0.99611 0.206 0.0
C122 C 0.89403 0.97161 0.27335 0.0
C123 C 0.82754 0.93501 0.21519 0.0
C124 C 1.0094 0.93699 0.27969 0.0
C125 C 0.93968 0.89207 0.24873 0.0
C126 C 0.95037 0.89477 0.18276 0.0
C127 C 1.01465 0.94901 0.20082 0.0
O128 O 0.86728 0.97893 0.16298 0.0
O129 O 0.86995 0.93416 0.16294 0.0
O130 O 0.92299 0.97877 0.20086 0.0
O131 O 0.88271 0.98637 0.21302 0.0
Co132 Co 0.10571 0.18468 0.82963 0.0
Co133 Co 0.13593 0.17785 0.78936 0.0
Co134 Co 0.12438 0.12365 0.81586 0.0
O135 O 0.131 0.16104 0.82117 0.0
H136 H 0.14653 0.16407 0.83143 0.0
O137 O 0.12032 0.08334 0.81014 0.0
Co138 Co 0.14961 0.06739 0.78847 0.0
Co139 Co 0.13417 0.06117 0.83744 0.0
H140 H 0.10326 0.0777 0.80434 0.0
O141 O 0.1596 0.20428 0.78656 0.0
O142 O 0.11561 0.20676 0.7951 0.0
O143 O 0.125 0.16014 0.75673 0.0
O144 O 0.10191 0.12903 0.78029 0.0
O145 O 0.1582 0.12513 0.79161 0.0
O146 O 0.17352 0.05348 0.76765 0.0
O147 O 0.13061 0.04512 0.76576 0.0
O148 O 0.17478 0.08851 0.806 0.0
O149 O 0.15354 0.11938 0.8492 0.0
O150 O 0.16043 0.07686 0.85995 0.0
O151 O 0.15405 0.03816 0.81595 0.0
O152 O 0.12192 0.02738 0.84772 0.0
C153 C 0.10304 0.21009 0.85737 0.0
C154 C 0.06797 0.14805 0.82915 0.0
C155 C 0.10609 0.14335 0.758 0.0
C156 C 0.13802 0.217 0.78519 0.0
C157 C 0.15431 0.0422 0.75535 0.0
C158 C 0.17828 0.1111 0.7947 0.0
C159 C 0.16798 0.10103 0.8611 0.0
C160 C 0.14301 1.02138 0.83386 0.0
O161 O 0.08392 0.20735 0.84088 0.0
O162 O 0.12658 0.20377 0.84987 0.0
O163 O 0.08451 0.12924 0.83731 0.0
O164 O 0.07906 0.16466 0.81218 0.0
Co165 Co 0.86392 0.37728 0.11924 0.0
Co166 Co 0.85318 0.38876 0.07331 0.0
Co167 Co 0.91312 0.38882 0.07577 0.0
O168 O 0.87998 0.39804 0.09167 0.0
H169 H 0.87916 0.41694 0.09533 0.0
O170 O 0.9473 0.38019 0.05971 0.0
Co171 Co 0.97062 0.40462 0.03953 0.0
Co172 Co 0.96674 0.38735 0.09077 0.0
H173 H 0.94866 0.36173 0.05426 0.0
O174 O 0.83254 0.41531 0.07177 0.0
O175 O 0.82934 0.3779 0.09939 0.0
O176 O 0.85697 0.3621 0.04477 0.0
O177 O 0.89962 0.36018 0.05019 0.0
O178 O 0.91109 0.41977 0.04575 0.0
O179 O 0.99302 0.42568 0.02188 0.0
O180 O 0.99244 0.38094 0.02206 0.0
O181 O 0.95108 0.43407 0.05253 0.0
O182 O 0.92598 0.42187 0.09947 0.0
O183 O 0.9646 0.41698 0.11549 0.0
O184 O 0.99331 0.40196 0.07143 0.0
O185 O 0.98936 0.36321 0.09642 0.0
C186 C 0.8481 0.3851 0.15629 0.0
C187 C 0.89407 0.3361 0.10873 0.0
C188 C 0.87858 0.35123 0.03985 0.0
C189 C 0.8187 0.39666 0.08472 0.0
C190 C 1.00367 0.40379 1.01436 0.0
C191 C 0.9295 0.438 0.04122 0.0
C192 C 0.946 0.43189 0.11154 0.0
C193 C 1.00308 0.38017 0.08128 0.0
O194 O 0.84954 0.36084 0.14716 0.0
O195 O 0.8552 0.40512 0.14032 0.0
O196 O 0.91377 0.35398 0.10481 0.0
O197 O 0.8723 0.34459 0.10167 0.0
Co198 Co 0.61873 0.18322 0.34326 0.0
Co199 Co 0.62054 0.18443 0.29642 0.0
Co200 Co 0.62288 0.12458 0.31413 0.0
O201 O 0.63148 0.16136 0.31748 0.0
H202 H 0.65018 0.16353 0.31645 0.0
O203 O 0.61786 0.08417 0.30938 0.0
Co204 Co 0.64724 0.06815 0.28724 0.0
Co205 Co 0.63219 0.0618 0.33617 0.0
H206 H 0.60073 0.07869 0.30363 0.0
O207 O 0.64603 0.19953 0.27799 0.0
O208 O 0.62189 0.21574 0.31501 0.0
O209 O 0.59257 0.17327 0.27539 0.0
O210 O 0.59989 0.12947 0.27876 0.0
O211 O 0.65669 0.12422 0.28956 0.0
O212 O 0.67107 0.05439 0.2663 0.0
O213 O 0.62818 0.04682 0.26339 0.0
O214 O 0.67276 0.08801 0.30541 0.0
O215 O 0.65126 0.12079 0.34779 0.0
O216 O 0.65851 0.07814 0.35811 0.0
O217 O 0.65106 0.03835 0.31386 0.0
O218 O 0.62074 0.02801 0.3476 0.0
C219 C 0.63515 0.20034 0.37515 0.0
C220 C 0.56972 0.15395 0.33776 0.0
C221 C 0.58813 0.14946 0.26774 0.0
C222 C 0.63734 0.21941 0.29252 0.0
C223 C 0.65198 0.04396 0.25317 0.0
C224 C 0.67671 0.11052 0.29416 0.0
C225 C 0.66553 0.10245 0.35976 0.0
C226 C 0.64102 1.02176 0.3325 0.0
O227 O 0.61044 0.20329 0.37095 0.0
O228 O 0.65018 0.19029 0.35611 0.0
O229 O 0.58382 0.13148 0.3362 0.0
O230 O 0.58259 0.17605 0.33427 0.0
Co231 Co 0.86679 0.87811 0.62132 0.0
Co232 Co 0.85774 0.88813 0.57387 0.0
Co233 Co 0.91822 0.889 0.57923 0.0
O234 O 0.884 0.89791 0.59314 0.0
H235 H 0.88276 0.91692 0.59588 0.0
O236 O 0.95297 0.87943 0.56462 0.0
Co237 Co 0.97831 0.89791 0.54155 0.0
Co238 Co 0.97245 0.89522 0.59049 0.0
H239 H 0.95526 0.86037 0.56485 0.0
O240 O 0.83518 0.91387 0.57132 0.0
O241 O 0.8334 0.87708 0.59962 0.0
O242 O 0.86368 0.86026 0.54706 0.0
O243 O 0.90643 0.86058 0.55256 0.0
O244 O 0.91785 0.91991 0.54936 0.0
O245 O 1.00289 0.91356 0.52097 0.0
O246 O 0.9978 0.86962 0.53007 0.0
O247 O 0.96028 0.93143 0.54735 0.0
O248 O 0.92856 0.92182 0.60556 0.0
O249 O 0.97032 0.93042 0.60024 0.0
O250 O 1.00226 0.89865 0.57408 0.0
O251 O 0.98639 0.8732 0.6115 0.0
C252 C 0.84908 0.88778 0.6569 0.0
C253 C 0.89833 0.83631 0.61242 0.0
C254 C 0.88582 0.85045 0.54226 0.0
C255 C 0.82203 0.89491 0.58445 0.0
C256 C 1.01139 0.88965 0.51886 0.0
C257 C 0.93682 0.93626 0.54084 0.0
C258 C 0.94829 0.93879 0.60574 0.0
C259 C 1.00517 0.8822 0.59498 0.0
O260 O 0.8512 0.86308 0.64938 0.0
O261 O 0.85682 0.90699 0.64015 0.0
O262 O 0.91778 0.85431 0.608 0.0
O263 O 0.87598 0.84416 0.6065 0.0
Co264 Co 0.51022 0.09473 0.11111 0.0
Co265 Co 0.46139 0.10148 0.11809 0.0
Co266 Co 0.48962 0.16219 0.12144 0.0
O267 O 0.48958 0.12179 0.12906 0.0
H268 H 0.4899 0.11884 0.1487 0.0
O269 O 0.48872 0.20567 0.11715 0.0
Co270 Co 0.4646 0.23639 0.13731 0.0
Co271 Co 0.51216 0.22058 0.1432 0.0
H272 H 0.49421 0.21104 0.09868 0.0
O273 O 0.44772 0.0709 0.13626 0.0
O274 O 0.47709 0.07217 0.10049 0.0
O275 O 0.44197 0.11941 0.09223 0.0
O276 O 0.46474 0.15842 0.08777 0.0
O277 O 0.45964 0.16398 0.14939 0.0
O278 O 0.44407 0.26348 0.15603 0.0
O279 O 0.46948 0.27318 0.1203 0.0
O280 O 0.45376 0.20762 0.15913 0.0
O281 O 0.51447 0.16082 0.15446 0.0
O282 O 0.52813 0.19966 0.17077 0.0
O283 O 0.49284 0.24548 0.16124 0.0
O284 O 0.5293 0.25184 0.13423 0.0
C285 C 0.5263 0.05917 0.12213 0.0
C286 C 0.52701 0.13869 0.07692 0.0
C287 C 0.44724 0.14102 0.07932 0.0
C288 C 0.46066 0.05831 0.11715 0.0
C289 C 0.45366 0.28227 0.14002 0.0
C290 C 0.45033 0.18289 0.16421 0.0
C291 C 0.52736 0.17455 0.17203 0.0
C292 C 0.51192 0.26087 0.15165 0.0
O293 O 0.52965 0.06878 0.09734 0.0
O294 O 0.51269 0.0723 0.14057 0.0
O295 O 0.5213 0.15838 0.09347 0.0
O296 O 0.513 0.11685 0.07797 0.0
Co297 Co 0.88156 0.70775 0.43925 0.0
Co298 Co 0.89667 0.75353 0.43206 0.0
Co299 Co 0.89914 0.7242 0.37517 0.0
O300 O 0.90428 0.72391 0.41413 0.0
H301 H 0.92222 0.72018 0.4174 0.0
O302 O 0.89585 0.72621 0.33431 0.0
Co303 Co 0.92153 0.75009 0.31498 0.0
Co304 Co 0.91509 0.70201 0.31393 0.0
H305 H 0.87818 0.72781 0.32862 0.0
O306 O 0.91938 0.76609 0.45525 0.0
O307 O 0.88192 0.74094 0.46429 0.0
O308 O 0.87242 0.7766 0.41696 0.0
O309 O 0.86962 0.75426 0.37743 0.0
O310 O 0.92927 0.75182 0.37313 0.0
O311 O 0.9426 0.77292 0.29792 0.0
O312 O 0.89927 0.76938 0.29405 0.0
O313 O 0.94883 0.7376 0.33534 0.0
O314 O 0.93403 0.6954 0.37221 0.0
O315 O 0.94525 0.68489 0.32864 0.0
O316 O 0.92817 0.72249 0.28501 0.0
O317 O 0.89989 0.6859 0.28584 0.0
C318 C 0.88645 0.68243 0.46913 0.0
C319 C 0.84379 0.70521 0.40199 0.0
C320 C 0.86123 0.77271 0.39455 0.0
C321 C 0.89968 0.75899 0.47148 0.0
C322 C 0.92133 0.78306 0.29004 0.0
C323 C 0.95018 0.74968 0.35821 0.0
C324 C 0.95142 0.68478 0.35357 0.0
C325 C 0.91725 0.70141 0.27325 0.0
O326 O 0.86314 0.68967 0.46369 0.0
O327 O 0.90676 0.69382 0.45701 0.0
O328 O 0.86234 0.69952 0.38259 0.0
O329 O 0.8514 0.71937 0.42201 0.0
Co330 Co 0.34262 0.1416 0.7357 0.0
Co331 Co 0.30332 0.1573 0.71137 0.0
Co332 Co 0.34905 0.1622 0.66783 0.0
O333 O 0.33867 0.16837 0.7075 0.0
H334 H 0.34187 0.18657 0.71333 0.0
O335 O 0.35568 0.15297 0.62966 0.0
Co336 Co 0.33439 0.16791 0.60318 0.0
Co337 Co 0.38153 0.17141 0.61233 0.0
H338 H 0.35816 0.13412 0.62693 0.0
O339 O 0.28136 0.17244 0.73622 0.0
O340 O 0.30205 0.13337 0.74074 0.0
O341 O 0.28677 0.13864 0.68091 0.0
O342 O 0.32555 0.12812 0.66486 0.0
O343 O 0.32001 0.18501 0.65793 0.0
O344 O 0.31464 0.18002 0.57751 0.0
O345 O 0.32447 0.13728 0.58513 0.0
O346 O 0.33803 0.20186 0.61969 0.0
O347 O 0.37226 0.20222 0.66532 0.0
O348 O 0.39073 0.20687 0.62288 0.0
O349 O 0.36676 0.17253 0.57912 0.0
O350 O 0.40315 0.15147 0.59354 0.0
C351 C 0.34912 0.1424 0.77649 0.0
C352 C 0.36937 0.11288 0.69395 0.0
C353 C 0.30093 0.12335 0.6666 0.0
C354 C 0.28186 0.1486 0.7466 0.0
C355 C 0.31098 0.15491 0.57229 0.0
C356 C 0.32369 0.20454 0.64149 0.0
C357 C 0.38454 0.21774 0.64554 0.0
C358 C 0.38665 0.15689 0.57482 0.0
O359 O 0.34844 0.12012 0.76295 0.0
O360 O 0.34169 0.16433 0.76497 0.0
O361 O 0.3768 0.1342 0.67944 0.0
O362 O 0.34815 0.11389 0.70867 0.0
Co363 Co 0.97149 0.55828 0.92825 0.0
Co364 Co 0.96356 0.60793 0.92573 0.0
Co365 Co 0.9035 0.57551 0.92369 0.0
O366 O 0.94324 0.57825 0.91324 0.0
H367 H 0.94529 0.57807 0.89339 0.0
O368 O 0.86183 0.57525 0.93218 0.0
Co369 Co 0.8315 0.5861 0.90449 0.0
Co370 Co 0.85143 0.54131 0.92124 0.0
H371 H 0.85742 0.57825 0.95142 0.0
O372 O 0.99545 0.62394 0.91037 0.0
O373 O 0.99262 0.59255 0.9432 0.0
O374 O 0.94391 0.62698 0.95235 0.0
O375 O 0.9087 0.59936 0.95899 0.0
O376 O 0.89728 0.60712 0.89902 0.0
O377 O 0.80421 0.59586 0.8787 0.0
O378 O 0.79442 0.58626 0.92142 0.0
O379 O 0.86156 0.58866 0.881 0.0
O380 O 0.90087 0.55191 0.88804 0.0
O381 O 0.87488 0.51799 0.90062 0.0
O382 O 0.82613 0.54822 0.89669 0.0
O383 O 0.82273 0.52625 0.9377 0.0
C384 C 1.00705 0.54588 0.9136 0.0
C385 C 0.9287 0.53613 0.96427 0.0
C386 C 0.9244 0.61863 0.96707 0.0
C387 C 1.0071 0.61088 0.92911 0.0
C388 C 0.78559 0.5934 0.89738 0.0
C389 C 0.87786 0.60825 0.883 0.0
C390 C 0.89091 0.52852 0.88308 0.0
C391 C 0.81462 0.53039 0.91304 0.0
O392 O 0.99808 0.53934 0.93818 0.0
O393 O 0.99308 0.5602 0.89771 0.0
O394 O 0.90932 0.54186 0.94882 0.0
O395 O 0.95004 0.5506 0.96235 0.0
Co396 Co 0.25211 0.46033 0.11597 0.0
Co397 Co 0.22407 0.50068 0.11277 0.0
Co398 Co 0.18862 0.44843 0.10876 0.0
O399 O 0.22182 0.46631 0.09867 0.0
H400 H 0.22421 0.46694 0.07885 0.0
O401 O 0.15481 0.43299 0.11899 0.0
Co402 Co 0.12725 0.4473 0.09945 0.0
Co403 Co 0.14901 0.39975 0.10391 0.0
H404 H 0.15146 0.43234 0.1387 0.0
O405 O 0.24647 0.52782 0.09932 0.0
O406 O 0.25389 0.49836 0.13321 0.0
O407 O 0.19534 0.51065 0.13726 0.0
O408 O 0.18477 0.46809 0.14557 0.0
O409 O 0.17316 0.47881 0.09059 0.0
O410 O 0.09997 0.46027 0.08483 0.0
O411 O 0.10409 0.44597 0.12849 0.0
O412 O 0.14752 0.45378 0.06662 0.0
O413 O 0.19002 0.42857 0.06916 0.0
O414 O 0.17068 0.38851 0.07376 0.0
O415 O 0.12064 0.41148 0.08622 0.0
O416 O 0.12181 0.37729 0.11612 0.0
C417 C 0.28858 0.46103 0.10181 0.0
C418 C 0.2189 0.42502 0.15092 0.0
C419 C 0.18325 0.49286 0.15169 0.0
C420 C 0.25869 0.52166 0.12124 0.0
C421 C 0.09279 0.46101 0.11076 0.0
C422 C 0.16256 0.47413 0.06811 0.0
C423 C 0.18098 0.40641 0.05821 0.0
C424 C 0.10968 0.391 0.09827 0.0
O425 O 0.28288 0.45389 0.12723 0.0
O426 O 0.27141 0.47134 0.08658 0.0
O427 O 0.20505 0.41872 0.13019 0.0
O428 O 0.23418 0.44572 0.14918 0.0
Co429 Co 0.61693 0.37331 0.18132 0.0
Co430 Co 0.60585 0.32865 0.17491 0.0
Co431 Co 0.66735 0.3404 0.16756 0.0
O432 O 0.6314 0.34661 0.15832 0.0
H433 H 0.62886 0.34881 0.13885 0.0
O434 O 0.70249 0.33554 0.17808 0.0
Co435 Co 0.72602 0.31407 0.16127 0.0
Co436 Co 0.72248 0.36081 0.16067 0.0
H437 H 0.70431 0.33645 0.1978 0.0
O438 O 0.5806 0.31997 0.15345 0.0
O439 O 0.58213 0.354 0.18492 0.0
O440 O 0.61529 0.30505 0.20309 0.0
O441 O 0.6585 0.31182 0.19747 0.0
O442 O 0.67086 0.31234 0.13831 0.0
O443 O 0.74832 0.29319 0.14694 0.0
O444 O 0.73926 0.30058 0.1922 0.0
O445 O 0.71257 0.32147 0.12658 0.0
O446 O 0.67488 0.36664 0.13265 0.0
O447 O 0.71711 0.37225 0.12354 0.0
O448 O 0.75294 0.34529 0.16194 0.0
O449 O 0.73613 0.38267 0.18345 0.0
C450 C 0.60072 0.40822 0.17523 0.0
C451 C 0.6486 0.36325 0.2204 0.0
C452 C 0.63832 0.30086 0.21005 0.0
C453 C 0.56939 0.33859 0.16792 0.0
C454 C 0.74971 0.28628 0.17248 0.0
C455 C 0.6905 0.31046 0.1213 0.0
C456 C 0.69425 0.37242 0.11509 0.0
C457 C 0.75496 0.36644 0.17828 0.0
O458 O 0.60467 0.3995 0.19975 0.0
O459 O 0.60643 0.39361 0.15371 0.0
O460 O 0.66592 0.36724 0.20062 0.0
O461 O 0.62603 0.35647 0.21348 0.0
Co462 Co 0.7523 0.87351 0.45098 0.0
Co463 Co 0.7044 0.88546 0.44433 0.0
Co464 Co 0.73462 0.88836 0.38266 0.0
O465 O 0.73471 0.89508 0.42423 0.0
H466 H 0.73809 0.9138 0.42773 0.0
O467 O 0.73512 0.88132 0.34086 0.0
Co468 Co 0.72342 0.9077 0.31386 0.0
Co469 Co 0.76961 0.89004 0.32679 0.0
H470 H 0.72997 0.86318 0.33646 0.0
O471 O 0.69352 0.89947 0.479 0.0
O472 O 0.71727 0.86303 0.47235 0.0
O473 O 0.67941 0.86918 0.42068 0.0
O474 O 0.70731 0.85923 0.386 0.0
O475 O 0.70658 0.91626 0.37809 0.0
O476 O 0.7131 0.93046 0.28756 0.0
O477 O 0.71752 0.88658 0.28247 0.0
O478 O 0.72811 0.93263 0.34171 0.0
O479 O 0.76097 0.91812 0.3809 0.0
O480 O 0.79224 0.91294 0.3487 0.0
O481 O 0.7591 0.91401 0.30142 0.0
O482 O 0.78114 0.87726 0.29195 0.0
C483 C 0.7674 0.88017 0.48855 0.0
C484 C 0.76751 0.8428 0.40321 0.0
C485 C 0.68522 0.85613 0.39893 0.0
C486 C 0.70405 0.8788 0.48954 0.0
C487 C 0.71254 0.90971 0.27145 0.0
C488 C 0.70934 0.93424 0.35914 0.0
C489 C 0.78283 0.92484 0.36965 0.0
C490 C 0.77061 0.89884 0.28366 0.0
O491 O 0.76915 0.8572 0.47639 0.0
O492 O 0.75601 0.89956 0.47632 0.0
O493 O 0.76376 0.86118 0.38537 0.0
O494 O 0.75362 0.84239 0.4259 0.0
Co495 Co 0.2489 0.96465 0.61492 0.0
Co496 Co 0.22 1.00381 0.60747 0.0
Co497 Co 0.18549 0.94945 0.60851 0.0
O498 O 0.21829 0.96809 0.59644 0.0
H499 H 0.22085 0.96687 0.57668 0.0
O500 O 0.15217 0.93404 0.62184 0.0
Co501 Co 0.12218 0.94517 0.60427 0.0
Co502 Co 0.14594 0.90052 0.60949 0.0
H503 H 0.15011 0.93421 0.64169 0.0
O504 O 0.24177 0.03136 0.59327 0.0
O505 O 0.25004 1.00375 0.6283 0.0
O506 O 0.19119 1.0146 0.631 0.0
O507 O 0.18088 0.97273 0.64265 0.0
O508 O 0.16831 0.97566 0.58609 0.0
O509 O 0.09322 0.95535 0.59074 0.0
O510 O 0.10092 0.94866 0.63534 0.0
O511 O 0.13988 0.94693 0.56944 0.0
O512 O 0.18802 0.92569 0.57114 0.0
O513 O 0.1625 0.88924 0.57631 0.0
O514 O 0.11314 0.90721 0.59856 0.0
O515 O 0.12625 0.87746 0.63062 0.0
C516 C 0.28548 0.96394 0.60136 0.0
C517 C 0.21667 0.93297 0.65359 0.0
C518 C 0.17982 0.99778 0.64715 0.0
C519 C 0.2543 0.02655 0.61535 0.0
C520 C 0.08658 0.95882 0.61643 0.0
C521 C 0.15494 0.9674 0.56635 0.0
C522 C 0.17671 0.90424 0.56079 0.0
C523 C 0.10862 0.88739 0.61557 0.0
O524 O 0.2795 0.95996 0.6274 0.0
O525 O 0.26859 0.97261 0.58467 0.0
O526 O 0.20327 0.92346 0.63371 0.0
O527 O 0.2311 0.95388 0.64925 0.0
Co528 Co 0.60364 0.31961 0.37754 0.0
Co529 Co 0.56386 0.34473 0.38953 0.0
Co530 Co 0.61179 0.38394 0.38981 0.0
O531 O 0.59772 0.34879 0.39859 0.0
H532 H 0.59903 0.34556 0.41809 0.0
O533 O 0.62334 0.41998 0.38146 0.0
Co534 Co 0.61019 0.44647 0.40603 0.0
Co535 Co 0.65765 0.42612 0.39168 0.0
H536 H 0.62178 0.42457 0.36229 0.0
O537 O 0.54131 0.32218 0.40802 0.0
O538 O 0.56435 0.31383 0.36828 0.0
O539 O 0.54949 0.37462 0.37079 0.0
O540 O 0.58935 0.38798 0.35703 0.0
O541 O 0.58292 0.39629 0.41358 0.0
O542 O 0.59872 0.47376 0.42543 0.0
O543 O 0.60931 0.47246 0.38001 0.0
O544 O 0.60662 0.42321 0.43759 0.0
O545 O 0.63452 0.38181 0.42627 0.0
O546 O 0.67193 0.40438 0.4194 0.0
O547 O 0.64617 0.45253 0.41415 0.0
O548 O 0.67691 0.45678 0.38033 0.0
C549 C 0.61145 0.2845 0.38867 0.0
C550 C 0.63161 0.35669 0.34067 0.0
C551 C 0.56476 0.38894 0.35553 0.0
C552 C 0.54399 0.30882 0.38519 0.0
C553 C 0.59808 0.48435 0.40107 0.0
C554 C 0.58822 0.40588 0.43664 0.0
C555 C 0.65629 0.39174 0.43571 0.0
C556 C 0.66404 0.46647 0.40126 0.0
O557 O 0.61199 0.28977 0.36233 0.0
O558 O 0.59912 0.29901 0.40648 0.0
O559 O 0.63911 0.37048 0.36168 0.0
O560 O 0.61215 0.34012 0.34382 0.0
Co561 Co 0.12122 0.87105 0.18195 0.0
Co562 Co 0.11077 0.82637 0.17323 0.0
Co563 Co 0.17181 0.83868 0.16747 0.0
O564 O 0.13604 0.84525 0.15885 0.0
H565 H 0.13329 0.84763 0.13944 0.0
O566 O 0.20805 0.83308 0.17591 0.0
Co567 Co 0.23387 0.81772 0.15377 0.0
Co568 Co 0.22372 0.86321 0.16063 0.0
H569 H 0.21084 0.83208 0.19546 0.0
O570 O 0.08674 0.81927 0.14995 0.0
O571 O 0.08671 0.85101 0.18398 0.0
O572 O 0.12014 0.8012 0.19978 0.0
O573 O 0.16329 0.80943 0.19676 0.0
O574 O 0.17477 0.81173 0.13749 0.0
O575 O 0.25861 0.8032 0.13433 0.0
O576 O 0.25382 0.80478 0.1806 0.0
O577 O 0.21459 0.82486 0.12189 0.0
O578 O 0.17703 0.86576 0.13329 0.0
O579 O 0.21795 0.87696 0.12481 0.0
O580 O 0.25557 0.85297 0.15616 0.0
O581 O 0.23604 0.88447 0.18474 0.0
C582 C 0.10513 0.90609 0.17631 0.0
C583 C 0.15275 0.86079 0.22099 0.0
C584 C 0.14292 0.79722 0.20775 0.0
C585 C 0.07483 0.8369 0.16519 0.0
C586 C 0.26626 0.7965 0.15832 0.0
C587 C 0.19283 0.81215 0.11851 0.0
C588 C 0.19532 0.87489 0.11626 0.0
C589 C 0.25637 0.87301 0.17401 0.0
O590 O 0.10832 0.8968 0.20079 0.0
O591 O 0.11105 0.89184 0.15461 0.0
O592 O 0.17043 0.86468 0.20145 0.0
O593 O 0.13034 0.85349 0.21384 0.0
Co594 Co 0.09501 0.32419 0.88772 0.0
Co595 Co 0.05919 0.35627 0.89826 0.0
Co596 Co 0.11153 0.3895 0.8917 0.0
O597 O 0.09508 0.35637 0.9033 0.0
H598 H 0.09804 0.35461 0.9227 0.0
O599 O 0.12494 0.42455 0.88132 0.0
Co600 Co 0.11353 0.45313 0.9046 0.0
Co601 Co 0.15824 0.43121 0.89191 0.0
H602 H 0.12357 0.42823 0.86191 0.0
O603 O 1.03313 0.33339 0.91433 0.0
O604 O 0.05706 0.32614 0.87561 0.0
O605 O 0.04766 0.38777 0.8797 0.0
O606 O 0.08716 0.39422 0.86075 0.0
O607 O 0.08567 0.40484 0.9171 0.0
O608 O 0.10338 0.48096 0.92299 0.0
O609 O 0.10923 0.47699 0.87704 0.0
O610 O 0.11229 0.43191 0.9379 0.0
O611 O 0.13632 0.38614 0.92654 0.0
O612 O 0.17168 0.41274 0.92193 0.0
O613 O 0.15059 0.46307 0.90793 0.0
O614 O 0.17829 0.45432 0.87133 0.0
C615 C 0.08914 0.28885 0.90536 0.0
C616 C 0.12656 0.35568 0.84352 0.0
C617 C 0.06305 0.39941 0.86223 0.0
C618 C 1.03623 0.32064 0.89124 0.0
C619 C 0.10002 0.49002 0.89845 0.0
C620 C 0.09237 0.41614 0.93887 0.0
C621 C 0.15755 0.39692 0.93662 0.0
C622 C 0.16743 0.47071 0.88857 0.0
O623 O 0.09521 0.2904 0.87889 0.0
O624 O 0.0842 0.30969 0.91968 0.0
O625 O 0.13535 0.37254 0.86162 0.0
O626 O 0.10884 0.33808 0.85117 0.0
Co627 Co 0.12224 0.68366 0.34374 0.0
Co628 Co 0.12989 0.68522 0.2959 0.0
Co629 Co 0.12858 0.62522 0.31506 0.0
O630 O 0.13689 0.66192 0.31889 0.0
H631 H 0.15559 0.66361 0.31971 0.0
O632 O 0.12352 0.58508 0.31052 0.0
Co633 Co 0.15154 0.56699 0.28877 0.0
Co634 Co 0.13765 0.56389 0.33791 0.0
H635 H 0.10606 0.57967 0.3058 0.0
O636 O 0.15788 0.70237 0.28392 0.0
O637 O 0.12596 0.71557 0.31532 0.0
O638 O 0.10635 0.67401 0.26926 0.0
O639 O 0.10621 0.63018 0.2792 0.0
O640 O 0.16209 0.62491 0.29045 0.0
O641 O 0.17425 0.55077 0.26758 0.0
O642 O 0.13081 0.54465 0.26798 0.0
O643 O 0.17822 0.58789 0.30471 0.0
O644 O 0.15759 0.62161 0.34844 0.0
O645 O 0.16494 0.57928 0.35933 0.0
O646 O 0.15563 0.53875 0.3176 0.0
O647 O 0.12259 0.53228 0.34983 0.0
C648 C 0.13656 0.70156 0.3763 0.0
C649 C 0.07453 0.65359 0.33764 0.0
C650 C 0.09909 0.6502 0.26409 0.0
C651 C 0.14436 0.72093 0.29588 0.0
C652 C 0.15388 0.53974 0.25698 0.0
C653 C 0.18199 0.61075 0.29403 0.0
C654 C 0.17229 0.60351 0.36028 0.0
C655 C 0.14289 0.52387 0.33612 0.0
O656 O 0.11208 0.7038 0.37064 0.0
O657 O 0.15277 0.69167 0.3583 0.0
O658 O 0.0893 0.63158 0.33709 0.0
O659 O 0.08687 0.67573 0.33273 0.0
Co660 Co 0.36831 0.8824 0.11896 0.0
Co661 Co 0.35906 0.88115 0.0731 0.0
Co662 Co 0.41894 0.89002 0.075 0.0
O663 O 0.38429 0.89816 0.08756 0.0
H664 H 0.38153 0.9171 0.08641 0.0
O665 O 0.45464 0.88193 0.06198 0.0
Co666 Co 0.47985 0.89839 0.03673 0.0
Co667 Co 0.47148 0.90702 0.08152 0.0
H668 H 0.45947 0.86438 0.06773 0.0
O669 O 0.33851 0.9032 0.05934 0.0
O670 O 0.33348 0.87861 0.0995 0.0
O671 O 0.36706 0.84961 0.05358 0.0
O672 O 0.4089 0.86179 0.04681 0.0
O673 O 0.41785 0.92156 0.04531 0.0
O674 O 0.50399 0.91188 1.0143 0.0
O675 O 0.50144 0.87032 0.0321 0.0
O676 O 0.46006 0.93068 0.03493 0.0
O677 O 0.42792 0.92169 0.10358 0.0
O678 O 0.46235 0.94205 0.08451 0.0
O679 O 0.50248 0.90842 0.069 0.0
O680 O 0.48326 0.89367 0.11062 0.0
C681 C 0.35092 0.89688 0.15291 0.0
C682 C 0.39913 0.83794 0.1105 0.0
C683 C 0.38956 0.84539 0.0434 0.0
C684 C 0.32397 0.89262 0.07931 0.0
C685 C 0.51416 0.88894 1.01768 0.0
C686 C 0.43617 0.93698 0.03365 0.0
C687 C 0.44194 0.94363 0.09876 0.0
C688 C 0.50337 0.89819 0.09402 0.0
O689 O 0.35383 0.87144 0.14957 0.0
O690 O 0.35913 0.91355 0.13369 0.0
O691 O 0.4187 0.85495 0.10324 0.0
O692 O 0.37639 0.84667 0.10854 0.0
Co693 Co 0.18865 0.72202 0.96564 0.0
Co694 Co 0.18348 0.70452 1.01222 0.0
Co695 Co 0.17482 0.65685 0.97152 0.0
O696 O 0.16927 0.69356 0.98129 0.0
H697 H 0.15085 0.69681 0.98256 0.0
O698 O 0.18096 0.62061 0.96239 0.0
Co699 Co 0.16232 0.5913 0.97701 0.0
Co700 Co 0.1673 0.61358 0.92904 0.0
H701 H 0.19939 0.61748 0.96069 0.0
O702 O 0.16297 0.72234 0.03414 0.0
O703 O 0.1952 0.73857 1.00411 0.0
O704 O 0.20897 0.68333 0.02843 0.0
O705 O 0.20665 0.65256 0.99559 0.0
O706 O 0.1482 0.64596 1.00325 0.0
O707 O 0.14745 0.56179 0.98986 0.0
O708 O 0.18972 0.57009 0.97747 0.0
O709 O 0.1302 0.61111 0.98242 0.0
O710 O 0.13752 0.65749 0.95044 0.0
O711 O 0.13597 0.62679 0.9179 0.0
O712 O 0.15642 0.58013 0.93802 0.0
O713 O 0.18692 0.59617 0.90561 0.0
C714 C 0.17849 0.75558 0.9484 0.0
C715 C 0.22598 0.6857 0.94568 0.0
C716 C 0.21716 0.6624 1.01706 0.0
C717 C 0.17898 0.74151 0.02567 0.0
C718 C 0.17137 0.55435 0.98809 0.0
C719 C 0.12859 0.62932 1.00104 0.0
C720 C 0.12385 0.64256 0.93334 0.0
C721 C 0.17381 0.57676 0.9179 0.0
O722 O 0.20292 0.74978 0.949 0.0
O723 O 0.1608 0.74174 0.96242 0.0
O724 O 0.20605 0.66879 0.94089 0.0
O725 O 0.22147 0.70325 0.96436 0.0
Co726 Co 0.37332 0.95847 0.68827 0.0
Co727 Co 0.35835 0.94951 0.73243 0.0
Co728 Co 0.41982 0.94385 0.72212 0.0
O729 O 0.38412 0.93509 0.71489 0.0
H730 H 0.38092 0.91643 0.71086 0.0
O731 O 0.45605 0.95305 0.72935 0.0
Co732 Co 0.47847 0.93349 0.75015 0.0
Co733 Co 0.47591 0.93951 0.70169 0.0
H734 H 0.45907 0.97209 0.73095 0.0
O735 O 0.33338 0.92528 0.73717 0.0
O736 O 0.33661 0.95697 0.70333 0.0
O737 O 0.36841 0.97055 0.76471 0.0
O738 O 0.41158 0.96658 0.75766 0.0
O739 O 0.41955 0.91108 0.74602 0.0
O740 O 0.50007 0.91713 0.77024 0.0
O741 O 0.49627 0.96159 0.76511 0.0
O742 O 0.46111 0.90068 0.74007 0.0
O743 O 0.42696 0.91426 0.6886 0.0
O744 O 0.4688 0.90562 0.68533 0.0
O745 O 0.50531 0.93427 0.71792 0.0
O746 O 0.49458 0.96321 0.68316 0.0
C747 C 0.36477 0.95453 0.64872 0.0
C748 C 0.4004 0.99826 0.70442 0.0
C749 C 0.39171 0.97508 0.77212 0.0
C750 C 0.3241 0.93705 0.71586 0.0
C751 C 0.50691 0.9413 0.77666 0.0
C752 C 0.43761 0.8944 0.74789 0.0
C753 C 0.44589 0.89803 0.68085 0.0
C754 C 0.51147 0.95049 0.69701 0.0
O755 O 0.36456 0.9778 0.66051 0.0
O756 O 0.36782 0.93314 0.66334 0.0
O757 O 0.41902 0.98127 0.69992 0.0
O758 O 0.37838 0.98813 0.71077 0.0
Co759 Co 0.59657 0.82864 0.87684 0.0
Co760 Co 0.5604 0.8565 0.89386 0.0
Co761 Co 0.61266 0.89055 0.89147 0.0
O762 O 0.59521 0.85652 0.90036 0.0
H763 H 0.59838 0.85159 0.91913 0.0
O764 O 0.62682 0.92562 0.884 0.0
Co765 Co 0.61441 0.95228 0.90909 0.0
Co766 Co 0.65969 0.93203 0.89496 0.0
H767 H 0.62576 0.93066 0.86488 0.0
O768 O 0.5366 0.83419 0.91183 0.0
O769 O 0.55715 0.82679 0.87079 0.0
O770 O 0.5484 0.88898 0.87751 0.0
O771 O 0.58835 0.89915 0.86134 0.0
O772 O 0.58729 0.9052 0.91796 0.0
O773 O 0.60297 0.97927 0.92879 0.0
O774 O 0.60939 0.97678 0.88275 0.0
O775 O 0.61407 0.92919 0.94166 0.0
O776 O 0.6375 0.8842 0.92578 0.0
O777 O 0.67284 0.91125 0.92304 0.0
O778 O 0.6513 0.96286 0.91287 0.0
O779 O 0.6794 0.95652 0.87594 0.0
C780 C 0.6035 0.79305 0.88359 0.0
C781 C 0.62485 0.86236 0.83979 0.0
C782 C 0.56392 0.9027 0.86185 0.0
C783 C 0.53787 0.82131 0.88863 0.0
C784 C 0.59952 0.98884 0.90438 0.0
C785 C 0.59471 0.91271 0.9411 0.0
C786 C 0.65848 0.89477 0.9367 0.0
C787 C 0.66772 0.97182 0.8937 0.0
O788 O 0.60079 0.80003 0.85803 0.0
O789 O 0.5931 0.80592 0.90406 0.0
O790 O 0.63622 0.87509 0.85963 0.0
O791 O 0.60271 0.85104 0.84548 0.0
Co792 Co 0.11734 0.37274 0.67898 0.0
Co793 Co 0.10753 0.32935 0.66556 0.0
Co794 Co 0.1685 0.34156 0.66433 0.0
O795 O 0.13335 0.34903 0.65451 0.0
H796 H 0.1316 0.35312 0.63524 0.0
O797 O 0.2044 0.33534 0.67391 0.0
Co798 Co 0.23075 0.32005 0.65199 0.0
Co799 Co 0.22126 0.36587 0.66031 0.0
H800 H 0.20646 0.33348 0.69352 0.0
O801 O 0.08546 0.32452 0.63996 0.0
O802 O 0.08279 0.3532 0.67663 0.0
O803 O 0.11581 0.30125 0.68923 0.0
O804 O 0.15886 0.30975 0.68965 0.0
O805 O 0.17269 0.31716 0.63192 0.0
O806 O 0.25564 0.30578 0.63286 0.0
O807 O 0.24921 0.30518 0.67895 0.0
O808 O 0.21354 0.32945 0.61977 0.0
O809 O 0.17521 0.37166 0.63328 0.0
O810 O 0.21666 0.38033 0.62445 0.0
O811 O 0.25294 0.3543 0.6569 0.0
O812 O 0.23405 0.38579 0.68569 0.0
C813 C 0.10185 0.40845 0.6755 0.0
C814 C 0.14591 0.35816 0.71952 0.0
C815 C 0.13818 0.29629 0.69776 0.0
C816 C 0.07245 0.34107 0.65553 0.0
C817 C 0.2621 0.29742 0.65671 0.0
C818 C 0.19215 0.317 0.61456 0.0
C819 C 0.19395 0.3792 0.61589 0.0
C820 C 0.25399 0.37273 0.67642 0.0
O821 O 0.10333 0.39701 0.69931 0.0
O822 O 0.10918 0.39609 0.65304 0.0
O823 O 0.16488 0.36393 0.70161 0.0
O824 O 0.1242 0.35191 0.7097 0.0
Co825 Co 0.38399 0.7046 0.94005 0.0
Co826 Co 0.39756 0.75088 0.93357 0.0
Co827 Co 0.39816 0.72353 0.87607 0.0
O828 O 0.40453 0.72215 0.91453 0.0
H829 H 0.42276 0.71907 0.9168 0.0
O830 O 0.39459 0.72701 0.83534 0.0
Co831 Co 0.42024 0.75168 0.8161 0.0
Co832 Co 0.41522 0.70404 0.81467 0.0
H833 H 0.37687 0.72806 0.82961 0.0
O834 O 0.42197 0.76226 0.95543 0.0
O835 O 0.38483 0.73714 0.96614 0.0
O836 O 0.37334 0.77507 0.91958 0.0
O837 O 0.36844 0.75333 0.87997 0.0
O838 O 0.42691 0.7519 0.87414 0.0
O839 O 0.44128 0.77491 0.79923 0.0
O840 O 0.39799 0.77186 0.7956 0.0
O841 O 0.4478 0.73912 0.8366 0.0
O842 O 0.43361 0.69517 0.87214 0.0
O843 O 0.44596 0.68709 0.8284 0.0
O844 O 0.42623 0.72464 0.78505 0.0
O845 O 0.39949 0.68675 0.78836 0.0
C846 C 0.3914 0.67846 0.9686 0.0
C847 C 0.34383 0.70377 0.90431 0.0
C848 C 0.36117 0.77187 0.89759 0.0
C849 C 0.40336 0.75459 0.97281 0.0
C850 C 0.42012 0.78554 0.79178 0.0
C851 C 0.44801 0.75141 0.8595 0.0
C852 C 0.45158 0.68555 0.85342 0.0
C853 C 0.41458 0.70342 0.77425 0.0
O854 O 0.36748 0.68499 0.965 0.0
O855 O 0.41068 0.6909 0.95572 0.0
O856 O 0.36142 0.69866 0.88374 0.0
O857 O 0.35276 0.71613 0.92498 0.0
Co858 Co 0.97234 0.05517 0.43457 0.0
Co859 Co 0.96587 0.10462 0.42688 0.0
Co860 Co 0.90594 0.07266 0.42475 0.0
O861 O 0.946 0.07443 0.41493 0.0
H862 H 0.94896 0.07248 0.3953 0.0
O863 O 0.86373 0.0725 0.43343 0.0
Co864 Co 0.82492 0.08224 0.41544 0.0
Co865 Co 0.85178 0.03947 0.4215 0.0
H866 H 0.86111 0.07229 0.45333 0.0
O867 O 0.99659 0.12119 0.41091 0.0
O868 O 0.99523 0.0905 0.4448 0.0
O869 O 0.94638 0.12438 0.45287 0.0
O870 O 0.91052 0.09782 0.45932 0.0
O871 O 0.9004 0.10279 0.3981 0.0
O872 O 0.79942 0.09683 0.38596 0.0
O873 O 0.78435 0.07987 0.42209 0.0
O874 O 0.86147 0.08745 0.40709 0.0
O875 O 0.90359 0.04813 0.38965 0.0
O876 O 0.87407 1.01644 0.39968 0.0
O877 O 0.82327 0.04546 0.40116 0.0
O878 O 0.82653 1.02311 0.44182 0.0
C879 C 1.00641 0.03702 0.42522 0.0
C880 C 0.92942 0.03601 0.46817 0.0
C881 C 0.92621 0.1172 0.46711 0.0
C882 C 1.00888 0.10898 0.4298 0.0
C883 C 0.77835 0.09113 0.39974 0.0
C884 C 0.87651 0.10249 0.39199 0.0
C885 C 0.89185 1.02588 0.38348 0.0
C886 C 0.8177 1.02469 0.41706 0.0
O887 O 0.99534 0.03705 0.44951 0.0
O888 O 0.99603 0.05047 0.40551 0.0
O889 O 0.91098 0.03997 0.45106 0.0
O890 O 0.94928 0.05255 0.46775 0.0
Co891 Co 0.51499 0.59457 0.6144 0.0
Co892 Co 0.46616 0.60119 0.6219 0.0
Co893 Co 0.4936 0.66222 0.6245 0.0
O894 O 0.49442 0.62193 0.63226 0.0
H895 H 0.49528 0.61936 0.65192 0.0
O896 O 0.49196 0.70525 0.62008 0.0
Co897 Co 0.46656 0.73598 0.63776 0.0
Co898 Co 0.50828 0.71567 0.65331 0.0
H899 H 0.50227 0.71162 0.60426 0.0
O900 O 0.45326 0.57072 0.64067 0.0
O901 O 0.48168 0.5721 0.60402 0.0
O902 O 0.44603 0.61821 0.59599 0.0
O903 O 0.46697 0.65818 0.59235 0.0
O904 O 0.46485 0.66396 0.6545 0.0
O905 O 0.44501 0.76244 0.6552 0.0
O906 O 0.47249 0.77241 0.62126 0.0
O907 O 0.45499 0.70729 0.65856 0.0
O908 O 0.52195 0.66225 0.65448 0.0
O909 O 0.51132 0.69242 0.68499 0.0
O910 O 0.49263 0.74538 0.66383 0.0
O911 O 0.53411 0.74071 0.64746 0.0
C912 C 0.53071 0.55865 0.62568 0.0
C913 C 0.53049 0.63934 0.5791 0.0
C914 C 0.44999 0.64035 0.58373 0.0
C915 C 0.46554 0.55824 0.621 0.0
C916 C 0.45583 0.78129 0.64017 0.0
C917 C 0.45235 0.68312 0.66596 0.0
C918 C 0.52231 0.67088 0.67945 0.0
C919 C 0.51532 0.75563 0.65615 0.0
O920 O 0.53428 0.56821 0.60088 0.0
O921 O 0.51731 0.57213 0.64402 0.0
O922 O 0.52375 0.65905 0.59503 0.0
O923 O 0.51798 0.61657 0.58088 0.0
Co924 Co 0.86924 0.21237 0.93274 0.0
Co925 Co 0.89416 0.25531 0.92728 0.0
Co926 Co 0.89581 0.22414 0.87212 0.0
O927 O 0.89868 0.22284 0.91174 0.0
H928 H 0.91469 0.21511 0.91709 0.0
O929 O 0.89354 0.22737 0.8314 0.0
Co930 Co 0.91845 0.25207 0.81257 0.0
Co931 Co 0.91253 0.20327 0.8112 0.0
H932 H 0.87589 0.22862 0.82549 0.0
O933 O 0.91232 0.26397 0.95675 0.0
O934 O 0.87063 0.2468 0.95561 0.0
O935 O 0.87739 0.28275 0.90733 0.0
O936 O 0.86757 0.25494 0.87339 0.0
O937 O 0.92565 0.25198 0.87256 0.0
O938 O 0.93894 0.27533 0.79511 0.0
O939 O 0.89598 0.26933 0.79002 0.0
O940 O 0.94588 0.24093 0.83407 0.0
O941 O 0.93099 0.19521 0.86947 0.0
O942 O 0.94234 0.18618 0.82569 0.0
O943 O 0.92663 0.22447 0.78373 0.0
O944 O 0.89818 0.18811 0.78222 0.0
C945 C 0.86302 0.19032 0.96467 0.0
C946 C 0.83881 0.20845 0.89428 0.0
C947 C 0.86291 0.27651 0.88769 0.0
C948 C 0.88907 0.26056 0.9679 0.0
C949 C 0.91778 0.28301 0.78454 0.0
C950 C 0.94642 0.25251 0.85727 0.0
C951 C 0.94846 0.18498 0.85055 0.0
C952 C 0.9165 0.20356 0.77113 0.0
O953 O 0.84377 0.20023 0.95245 0.0
O954 O 0.88708 0.19563 0.95682 0.0
O955 O 0.85827 0.19933 0.87771 0.0
O956 O 0.84644 0.22713 0.90969 0.0
Co957 Co 1.01725 0.59099 0.11208 0.0
Co958 Co 0.96888 0.59449 0.11767 0.0
Co959 Co 0.99503 0.65736 0.12238 0.0
O960 O 0.99504 0.61666 0.13081 0.0
H961 H 0.99526 0.61383 0.15047 0.0
O962 O 0.99391 0.70013 0.1163 0.0
Co963 Co 0.975 0.73066 0.14102 0.0
Co964 Co 1.0243 0.71527 0.13253 0.0
H965 H 0.99397 0.70445 0.09692 0.0
O966 O 0.95472 0.5638 0.13518 0.0
O967 O 0.9862 0.56508 0.10164 0.0
O968 O 0.95008 0.61212 0.09119 0.0
O969 O 0.96964 0.65302 0.08933 0.0
O970 O 0.96537 0.6607 0.1507 0.0
O971 O 0.95928 0.75807 0.16361 0.0
O972 O 0.97463 0.76713 0.12219 0.0
O973 O 0.96981 0.70306 0.16598 0.0
O974 O 1.01967 0.65808 0.1556 0.0
O975 O 0.04642 0.69354 0.15509 0.0
O976 O 1.00848 0.73973 0.15576 0.0
O977 O 1.0375 0.74851 0.12088 0.0
C978 C 1.03743 0.55801 0.12239 0.0
C979 C 1.03167 0.63364 0.0773 0.0
C980 C 0.95311 0.63502 0.08023 0.0
C981 C 0.96906 0.55099 0.11737 0.0
C982 C 0.96359 0.77644 0.14513 0.0
C983 C 0.96468 0.67837 0.16993 0.0
C984 C 1.03946 0.67095 0.16507 0.0
C985 C 1.02371 0.75643 0.14208 0.0
O986 O 1.03865 0.56802 0.09772 0.0
O987 O 1.02237 0.5687 0.14139 0.0
O988 O 1.02678 0.65332 0.09411 0.0
O989 O 1.01707 0.61239 0.07902 0.0
Co990 Co 0.69002 0.72778 0.45927 0.0
Co991 Co 0.68003 0.71386 0.50783 0.0
Co992 Co 0.67437 0.66324 0.47184 0.0
O993 O 0.66965 0.70077 0.47557 0.0
H994 H 0.65131 0.7041 0.47459 0.0
O995 O 0.67947 0.62546 0.47008 0.0
Co996 Co 0.65611 0.60191 0.48932 0.0
Co997 Co 0.66624 0.61269 0.43869 0.0
H998 H 0.69748 0.62077 0.47105 0.0
O999 O 0.65972 0.73739 0.52436 0.0
O1000 O 0.69688 0.74498 0.49736 0.0
O1001 O 0.70285 0.69317 0.52951 0.0
O1002 O 0.70532 0.66236 0.49689 0.0
O1003 O 0.64674 0.65802 0.5043 0.0
O1004 O 0.63637 0.57954 0.50702 0.0
O1005 O 0.67964 0.57789 0.49931 0.0
O1006 O 0.62759 0.62382 0.48475 0.0
O1007 O 0.63839 0.6614 0.44846 0.0
O1008 O 0.63792 0.62644 0.42074 0.0
O1009 O 0.65181 0.58246 0.45356 0.0
O1010 O 0.68554 0.59019 0.42178 0.0
C1011 C 0.68037 0.76048 0.44046 0.0
C1012 C 0.72669 0.68777 0.44325 0.0
C1013 C 0.7133 0.67281 0.51914 0.0
C1014 C 0.68039 0.75188 0.51753 0.0
C1015 C 0.65804 0.56831 0.51121 0.0
C1016 C 0.62648 0.64221 0.50279 0.0
C1017 C 0.62558 0.64489 0.43214 0.0
C1018 C 0.66964 0.57412 0.43571 0.0
O1019 O 0.70485 0.7548 0.44155 0.0
O1020 O 0.66273 0.74769 0.45545 0.0
O1021 O 0.70656 0.6704 0.44089 0.0
O1022 O 0.72258 0.70809 0.4587 0.0
Co1023 Co 0.62045 0.68518 0.83986 0.0
Co1024 Co 0.63123 0.68124 0.79041 0.0
Co1025 Co 0.62545 0.62321 0.81649 0.0
O1026 O 0.63444 0.66015 0.81808 0.0
H1027 H 0.65308 0.66092 0.81986 0.0
O1028 O 0.61954 0.58296 0.81331 0.0
Co1029 Co 0.64642 0.56455 0.79004 0.0
Co1030 Co 0.63474 0.56149 0.83952 0.0
H1031 H 0.60181 0.57772 0.80943 0.0
O1032 O 0.6583 0.70238 0.78031 0.0
O1033 O 0.62182 0.7122 0.8069 0.0
O1034 O 0.60824 0.66815 0.76375 0.0
O1035 O 0.60104 0.62743 0.78244 0.0
O1036 O 0.65829 0.62158 0.79073 0.0
O1037 O 0.66801 0.54842 0.7671 0.0
O1038 O 0.62439 0.54318 0.76969 0.0
O1039 O 0.6741 0.58453 0.80524 0.0
O1040 O 0.6555 0.61976 0.84909 0.0
O1041 O 0.66256 0.57727 0.86003 0.0
O1042 O 0.6513 0.53585 0.81815 0.0
O1043 O 0.62003 0.53001 0.85239 0.0
C1044 C 0.63641 0.70843 0.86764 0.0
C1045 C 0.57206 0.65307 0.8389 0.0
C1046 C 0.59662 0.64551 0.76389 0.0
C1047 C 0.64063 0.71897 0.78853 0.0
C1048 C 0.6468 0.53883 0.75692 0.0
C1049 C 0.67809 0.60722 0.79429 0.0
C1050 C 0.67015 0.60147 0.86084 0.0
C1051 C 0.63948 0.52125 0.83753 0.0
O1052 O 0.61146 0.70918 0.8636 0.0
O1053 O 0.65171 0.69603 0.85067 0.0
O1054 O 0.58682 0.63102 0.83936 0.0
O1055 O 0.58431 0.67495 0.83247 0.0
Co1056 Co 0.34659 0.64227 0.23604 0.0
Co1057 Co 0.30632 0.65596 0.21241 0.0
Co1058 Co 0.35135 0.66151 0.16745 0.0
O1059 O 0.34133 0.6682 0.20723 0.0
H1060 H 0.34396 0.68661 0.21256 0.0
O1061 O 0.35741 0.65159 0.12932 0.0
Co1062 Co 0.33569 0.66633 0.10305 0.0
Co1063 Co 0.38283 0.66955 0.11119 0.0
H1064 H 0.35988 0.63271 0.12677 0.0
O1065 O 0.28451 0.67241 0.23619 0.0
O1066 O 0.30624 0.63418 0.2431 0.0
O1067 O 0.28987 0.63349 0.18482 0.0
O1068 O 0.32828 0.62715 0.16485 0.0
O1069 O 0.32217 0.68416 0.15739 0.0
O1070 O 0.31548 0.67841 0.07781 0.0
O1071 O 0.32491 0.63561 0.08566 0.0
O1072 O 0.34017 0.70036 0.11886 0.0
O1073 O 0.37457 0.70146 0.1642 0.0
O1074 O 0.39242 0.70495 0.12143 0.0
O1075 O 0.36762 0.66996 0.07808 0.0
O1076 O 0.40403 0.64906 0.09271 0.0
C1077 C 0.35433 0.64391 0.27668 0.0
C1078 C 0.37209 0.61286 0.19426 0.0
C1079 C 0.30447 0.61971 0.16936 0.0
C1080 C 0.28572 0.64923 0.24805 0.0
C1081 C 0.31138 0.6533 0.07298 0.0
C1082 C 0.32599 0.7035 0.14066 0.0
C1083 C 0.38664 0.71645 0.14389 0.0
C1084 C 0.38726 0.65391 0.07407 0.0
O1085 O 0.35348 0.62142 0.26356 0.0
O1086 O 0.34663 0.66561 0.2649 0.0
O1087 O 0.37924 0.6339 0.17924 0.0
O1088 O 0.3512 0.61403 0.20951 0.0
Co1089 Co 0.61945 0.87207 0.67465 0.0
Co1090 Co 0.61011 0.82737 0.66216 0.0
Co1091 Co 0.67085 0.83927 0.66438 0.0
O1092 O 0.63644 0.84749 0.65208 0.0
H1093 H 0.63591 0.85113 0.63258 0.0
O1094 O 0.70561 0.83229 0.67691 0.0
Co1095 Co 0.73247 0.81486 0.659 0.0
Co1096 Co 0.72395 0.8611 0.66151 0.0
H1097 H 0.70654 0.83224 0.69674 0.0
O1098 O 0.5874 0.82339 0.6364 0.0
O1099 O 0.58564 0.85137 0.67348 0.0
O1100 O 0.61687 0.79934 0.6874 0.0
O1101 O 0.65934 0.80883 0.69109 0.0
O1102 O 0.67479 0.81309 0.63353 0.0
O1103 O 0.75793 0.79915 0.64312 0.0
O1104 O 0.74898 0.80284 0.68875 0.0
O1105 O 0.71727 0.82083 0.62498 0.0
O1106 O 0.68063 0.86811 0.63233 0.0
O1107 O 0.72264 0.87115 0.62373 0.0
O1108 O 0.75515 0.84913 0.66206 0.0
O1109 O 0.73525 0.88356 0.68568 0.0
C1110 C 0.60232 0.90659 0.66908 0.0
C1111 C 0.64731 0.85933 0.71681 0.0
C1112 C 0.63853 0.79503 0.69804 0.0
C1113 C 0.57447 0.83893 0.65316 0.0
C1114 C 0.76324 0.79366 0.66815 0.0
C1115 C 0.69535 0.81036 0.6183 0.0
C1116 C 0.70024 0.87174 0.61459 0.0
C1117 C 0.75535 0.86925 0.67973 0.0
O1118 O 0.60459 0.8967 0.69348 0.0
O1119 O 0.61061 0.89367 0.64731 0.0
O1120 O 0.66716 0.86374 0.69987 0.0
O1121 O 0.62615 0.85323 0.7059 0.0
Co1122 Co 0.75254 0.37331 0.95147 0.0
Co1123 Co 0.70559 0.38786 0.94503 0.0
Co1124 Co 0.73385 0.38797 0.88242 0.0
O1125 O 0.73614 0.39485 0.92391 0.0
H1126 H 0.74063 0.41344 0.92688 0.0
O1127 O 0.73181 0.38046 0.84005 0.0
Co1128 Co 0.7064 0.39152 0.81097 0.0
Co1129 Co 0.74919 0.40919 0.82349 0.0
H1130 H 0.74014 0.36407 0.83499 0.0
O1131 O 0.6966 0.4029 0.97992 0.0
O1132 O 0.71654 0.36407 0.97305 0.0
O1133 O 0.67863 0.3748 0.92158 0.0
O1134 O 0.70549 0.36012 0.88815 0.0
O1135 O 0.70714 0.41725 0.88034 0.0
O1136 O 0.68496 0.4007 0.7841 0.0
O1137 O 0.71655 0.3713 0.77975 0.0
O1138 O 0.69311 0.41508 0.83705 0.0
O1139 O 0.763 0.416 0.87918 0.0
O1140 O 0.75389 0.44014 0.84339 0.0
O1141 O 0.73032 0.4198 0.79633 0.0
O1142 O 0.77099 0.40324 0.79445 0.0
C1143 C 0.76646 0.38051 0.98953 0.0
C1144 C 0.76671 0.34202 0.90263 0.0
C1145 C 0.68407 0.35824 0.90255 0.0
C1146 C 0.70446 0.38082 0.99029 0.0
C1147 C 0.69951 0.38627 0.76798 0.0
C1148 C 0.69262 0.42507 0.86105 0.0
C1149 C 0.76343 0.43828 0.86656 0.0
C1150 C 0.75207 0.41503 0.78286 0.0
O1151 O 0.76842 0.35707 0.9783 0.0
O1152 O 0.75632 0.39972 0.97583 0.0
O1153 O 0.76157 0.35952 0.88432 0.0
O1154 O 0.75419 0.34191 0.9263 0.0
Co1155 Co 0.10368 0.82135 0.37824 0.0
Co1156 Co 0.06573 0.84871 0.3919 0.0
Co1157 Co 0.11669 0.88492 0.39302 0.0
O1158 O 0.10003 0.8504 0.40002 0.0
H1159 H 0.10143 0.84628 0.41933 0.0
O1160 O 0.13028 0.92055 0.38731 0.0
Co1161 Co 0.11961 0.94512 0.4153 0.0
Co1162 Co 0.16419 0.92492 0.39743 0.0
H1163 H 0.12834 0.92705 0.3688 0.0
O1164 O 0.04214 0.82603 0.40954 0.0
O1165 O 0.06429 0.81852 0.36926 0.0
O1166 O 0.05297 0.88115 0.37645 0.0
O1167 O 0.093 0.89348 0.3621 0.0
O1168 O 0.09042 0.89799 0.41943 0.0
O1169 O 0.11075 0.96923 0.43809 0.0
O1170 O 0.11386 0.97241 0.39192 0.0
O1171 O 0.11803 0.91933 0.44491 0.0
O1172 O 0.14095 0.87817 0.42765 0.0
O1173 O 0.17832 0.9017 0.42323 0.0
O1174 O 0.15686 0.95387 0.41894 0.0
O1175 O 0.18347 0.9513 0.38044 0.0
C1176 C 0.1092 0.78552 0.38857 0.0
C1177 C 0.13274 0.8581 0.3414 0.0
C1178 C 0.06844 0.89646 0.36242 0.0
C1179 C 0.04457 0.8127 0.38666 0.0
C1180 C 0.10371 0.98022 0.41561 0.0
C1181 C 0.09721 0.90496 0.44303 0.0
C1182 C 0.16275 0.88731 0.43797 0.0
C1183 C 0.1725 0.96481 0.40022 0.0
O1184 O 0.10987 0.79122 0.36231 0.0
O1185 O 0.09796 0.80046 0.40675 0.0
O1186 O 0.14153 0.87131 0.36227 0.0
O1187 O 0.11296 0.84204 0.34498 0.0
Co1188 Co 0.36701 0.38045 0.62017 0.0
Co1189 Co 0.35819 0.38969 0.57374 0.0
Co1190 Co 0.41818 0.39169 0.57777 0.0
O1191 O 0.38428 0.40047 0.59231 0.0
H1192 H 0.38305 0.41948 0.59509 0.0
O1193 O 0.45289 0.38236 0.56319 0.0
Co1194 Co 0.47739 0.39685 0.53631 0.0
Co1195 Co 0.47058 0.40849 0.5801 0.0
H1196 H 0.45777 0.36512 0.56981 0.0
O1197 O 0.33802 0.41576 0.56807 0.0
O1198 O 0.33295 0.38098 0.5991 0.0
O1199 O 0.36342 0.36185 0.54742 0.0
O1200 O 0.40646 0.36439 0.54987 0.0
O1201 O 0.41677 0.42384 0.54857 0.0
O1202 O 0.50075 0.40845 0.51225 0.0
O1203 O 0.49823 0.36809 0.53295 0.0
O1204 O 0.45826 0.42932 0.5333 0.0
O1205 O 0.42977 0.4226 0.60616 0.0
O1206 O 0.46135 0.44346 0.58249 0.0
O1207 O 0.50124 0.4086 0.56692 0.0
O1208 O 0.48248 0.39648 0.60959 0.0
C1209 C 0.34936 0.3896 0.65602 0.0
C1210 C 0.39783 0.33845 0.60975 0.0
C1211 C 0.38572 0.35347 0.54069 0.0
C1212 C 0.32331 0.39929 0.58302 0.0
C1213 C 0.51052 0.38549 0.51665 0.0
C1214 C 0.43495 0.43762 0.5346 0.0
C1215 C 0.44293 0.44473 0.59965 0.0
C1216 C 0.50239 0.39967 0.59244 0.0
O1217 O 0.35143 0.365 0.64811 0.0
O1218 O 0.35779 0.40898 0.63982 0.0
O1219 O 0.41756 0.35612 0.60541 0.0
O1220 O 0.37554 0.34683 0.60425 0.0
Co1221 Co 0.3723 0.46125 0.19187 0.0
Co1222 Co 0.356 0.45417 0.23511 0.0
Co1223 Co 0.41708 0.44265 0.22375 0.0
O1224 O 0.38035 0.4363 0.21859 0.0
H1225 H 0.37556 0.418 0.21436 0.0
O1226 O 0.45397 0.44941 0.22878 0.0
Co1227 Co 0.47587 0.42494 0.24372 0.0
Co1228 Co 0.47082 0.44119 0.19589 0.0
H1229 H 0.45782 0.46764 0.23413 0.0
O1230 O 0.3279 0.43383 0.24052 0.0
O1231 O 0.33549 0.46361 0.20532 0.0
O1232 O 0.36862 0.4743 0.26677 0.0
O1233 O 0.41115 0.46565 0.26007 0.0
O1234 O 0.41705 0.40893 0.2466 0.0
O1235 O 0.49726 0.40371 0.25824 0.0
O1236 O 0.49696 0.44861 0.26137 0.0
O1237 O 0.45527 0.3958 0.23003 0.0
O1238 O 0.42146 0.41281 0.19015 0.0
O1239 O 0.46187 0.41112 0.17355 0.0
O1240 O 0.49982 0.42922 0.2098 0.0
O1241 O 0.49284 0.46589 0.18268 0.0
C1242 C 0.36527 0.45851 0.15192 0.0
C1243 C 0.40094 0.4987 0.20734 0.0
C1244 C 0.39212 0.47629 0.27441 0.0
C1245 C 0.32044 0.44621 0.2187 0.0
C1246 C 0.50684 0.42584 0.26782 0.0
C1247 C 0.4331 0.39025 0.24195 0.0
C1248 C 0.43954 0.40026 0.1754 0.0
C1249 C 0.50817 0.44982 0.19469 0.0
O1250 O 0.3663 0.4817 0.16384 0.0
O1251 O 0.36575 0.43683 0.16663 0.0
O1252 O 0.41787 0.48028 0.2017 0.0
O1253 O 0.37872 0.49014 0.2149 0.0
Co1254 Co 0.38246 0.20956 0.43917 0.0
Co1255 Co 0.3962 0.25583 0.4295 0.0
Co1256 Co 0.39744 0.22444 0.37373 0.0
O1257 O 0.40358 0.22544 0.41246 0.0
H1258 H 0.42176 0.22239 0.41509 0.0
O1259 O 0.39299 0.22576 0.33308 0.0
Co1260 Co 0.41742 0.2499 0.31215 0.0
Co1261 Co 0.41203 0.20154 0.31278 0.0
H1262 H 0.37508 0.22667 0.32796 0.0
O1263 O 0.41908 0.26911 0.45236 0.0
O1264 O 0.38165 0.24411 0.46217 0.0
O1265 O 0.37179 0.27865 0.41398 0.0
O1266 O 0.36748 0.25375 0.37627 0.0
O1267 O 0.42697 0.25254 0.37017 0.0
O1268 O 0.43747 0.27308 0.29308 0.0
O1269 O 0.39409 0.26773 0.2912 0.0
O1270 O 0.4456 0.23826 0.3319 0.0
O1271 O 0.43251 0.1961 0.37057 0.0
O1272 O 0.44275 0.18487 0.32699 0.0
O1273 O 0.42361 0.22174 0.28296 0.0
O1274 O 0.39556 0.18504 0.2858 0.0
C1275 C 0.38982 0.18618 0.46991 0.0
C1276 C 0.34337 0.20393 0.40209 0.0
C1277 C 0.35977 0.27322 0.3924 0.0
C1278 C 0.3993 0.26251 0.46876 0.0
C1279 C 0.41564 0.28142 0.28451 0.0
C1280 C 0.44755 0.25017 0.35479 0.0
C1281 C 0.44946 0.18517 0.35178 0.0
C1282 C 0.41133 0.20119 0.27186 0.0
O1283 O 0.36585 0.19173 0.46529 0.0
O1284 O 0.40912 0.19843 0.45686 0.0
O1285 O 0.36167 0.19877 0.38233 0.0
O1286 O 0.35092 0.21822 0.4221 0.0
Co1287 Co 1.01404 0.09223 0.61025 0.0
Co1288 Co 0.96554 0.10058 0.62 0.0
Co1289 Co 0.99515 0.16033 0.62155 0.0
O1290 O 0.99505 0.11988 0.63003 0.0
H1291 H 0.99643 0.11703 0.64957 0.0
O1292 O 0.99424 0.20332 0.61526 0.0
Co1293 Co 0.97305 0.23471 0.63746 0.0
Co1294 Co 1.02232 0.21837 0.63547 0.0
H1295 H 0.99667 0.20766 0.59594 0.0
O1296 O 0.95215 0.06977 0.63784 0.0
O1297 O 0.97979 0.07133 0.60081 0.0
O1298 O 0.94478 0.11923 0.59565 0.0
O1299 O 0.97037 0.15584 0.58811 0.0
O1300 O 0.96532 0.16341 0.6494 0.0
O1301 O 0.95495 0.26225 0.65871 0.0
O1302 O 0.97382 0.27142 0.61899 0.0
O1303 O 0.96632 0.20695 0.66135 0.0
O1304 O 1.0199 0.16023 0.65485 0.0
O1305 O 0.04329 0.19749 0.66 0.0
O1306 O 1.00524 0.24455 0.65486 0.0
O1307 O 1.03759 0.24933 0.62229 0.0
C1308 C 1.02914 0.05523 0.61888 0.0
C1309 C 1.03125 0.13626 0.5769 0.0
C1310 C 0.95149 0.13947 0.5811 0.0
C1311 C 0.9639 0.05724 0.61783 0.0
C1312 C 0.96081 0.28072 0.64077 0.0
C1313 C 0.9624 0.18239 0.66687 0.0
C1314 C 1.03789 0.1736 0.66707 0.0
C1315 C 1.02191 0.25957 0.64072 0.0
O1316 O 1.03177 0.06602 0.59456 0.0
O1317 O 1.01712 0.06828 0.63865 0.0
O1318 O 1.02671 0.15597 0.59371 0.0
O1319 O 1.01598 0.11532 0.57794 0.0
Co1320 Co 0.84375 0.13552 0.24304 0.0
Co1321 Co 0.80549 0.15311 0.21742 0.0
Co1322 Co 0.84832 0.15884 0.17585 0.0
O1323 O 0.84186 0.16334 0.21605 0.0
H1324 H 0.84503 0.18137 0.22241 0.0
O1325 O 0.85026 0.15209 0.13644 0.0
Co1326 Co 0.82303 0.1679 0.11608 0.0
Co1327 Co 0.87489 0.17131 0.11617 0.0
H1328 H 0.85218 0.13342 0.13212 0.0
O1329 O 0.78422 0.16883 0.242 0.0
O1330 O 0.80254 0.12824 0.24524 0.0
O1331 O 0.78764 0.13571 0.18585 0.0
O1332 O 0.82688 0.12351 0.17451 0.0
O1333 O 0.81626 0.17879 0.17399 0.0
O1334 O 0.79818 0.17996 0.09576 0.0
O1335 O 0.81492 0.13916 0.09325 0.0
O1336 O 0.82552 0.20009 0.13601 0.0
O1337 O 0.86895 0.20042 0.17064 0.0
O1338 O 0.88765 0.20513 0.12811 0.0
O1339 O 0.85068 0.18138 0.09226 0.0
O1340 O 0.88585 0.15664 0.08354 0.0
C1341 C 0.84528 0.13367 0.28463 0.0
C1342 C 0.87255 0.10994 0.19828 0.0
C1343 C 0.80235 0.11983 0.17304 0.0
C1344 C 0.78326 0.14459 0.25161 0.0
C1345 C 0.79741 0.15599 0.08588 0.0
C1346 C 0.81471 0.1993 0.15974 0.0
C1347 C 0.88103 0.21601 0.15062 0.0
C1348 C 0.86487 0.1676 0.07557 0.0
O1349 O 0.84675 0.11242 0.2695 0.0
O1350 O 0.84063 0.15664 0.27339 0.0
O1351 O 0.87801 0.13159 0.18319 0.0
O1352 O 0.8521 0.1094 0.21459 0.0
Co1353 Co 0.47291 0.55996 0.42785 0.0
Co1354 Co 0.46581 0.6097 0.42644 0.0
Co1355 Co 0.40507 0.57845 0.42357 0.0
O1356 O 0.44496 0.58089 0.41302 0.0
H1357 H 0.44703 0.58112 0.39318 0.0
O1358 O 0.36346 0.57848 0.43187 0.0
Co1359 Co 0.33329 0.58853 0.40371 0.0
Co1360 Co 0.35322 0.5446 0.42148 0.0
H1361 H 0.35895 0.58177 0.45104 0.0
O1362 O 0.49666 0.62612 0.4097 0.0
O1363 O 0.49559 0.59381 0.44167 0.0
O1364 O 0.44769 0.627 0.45546 0.0
O1365 O 0.41 0.60265 0.45906 0.0
O1366 O 0.39875 0.6097 0.3982 0.0
O1367 O 0.30601 0.59764 0.37777 0.0
O1368 O 0.29648 0.58917 0.42087 0.0
O1369 O 0.36329 0.59054 0.38012 0.0
O1370 O 0.4022 0.55439 0.38823 0.0
O1371 O 0.37731 0.5206 0.40296 0.0
O1372 O 0.32776 0.55035 0.39664 0.0
O1373 O 0.32503 0.52997 0.43858 0.0
C1374 C 0.5078 0.54562 0.41306 0.0
C1375 C 0.43044 0.53919 0.46426 0.0
C1376 C 0.4267 0.62032 0.46864 0.0
C1377 C 0.50929 0.61253 0.42726 0.0
C1378 C 0.28753 0.59565 0.39667 0.0
C1379 C 0.37959 0.61019 0.38167 0.0
C1380 C 0.39247 0.53068 0.38437 0.0
C1381 C 0.31657 0.53309 0.4139 0.0
O1382 O 0.49885 0.54006 0.43785 0.0
O1383 O 0.49432 0.5603 0.39697 0.0
O1384 O 0.41092 0.54498 0.44901 0.0
O1385 O 0.45171 0.55372 0.46225 0.0
Co1386 Co 0.7472 0.4601 0.61713 0.0
Co1387 Co 0.71901 0.49984 0.61114 0.0
Co1388 Co 0.68352 0.44715 0.61068 0.0
O1389 O 0.71675 0.4646 0.5989 0.0
H1390 H 0.71917 0.46391 0.57909 0.0
O1391 O 0.65008 0.43266 0.62392 0.0
Co1392 Co 0.62046 0.44813 0.60946 0.0
Co1393 Co 0.64053 0.40122 0.60838 0.0
H1394 H 0.6489 0.43079 0.64373 0.0
O1395 O 0.74235 0.52691 0.59824 0.0
O1396 O 0.74789 0.49844 0.63332 0.0
O1397 O 0.68964 0.51046 0.63401 0.0
O1398 O 0.68067 0.46867 0.64671 0.0
O1399 O 0.66723 0.47593 0.5918 0.0
O1400 O 0.59192 0.46174 0.59874 0.0
O1401 O 0.60157 0.45107 0.64208 0.0
O1402 O 0.63639 0.45136 0.57353 0.0
O1403 O 0.68395 0.426 0.57141 0.0
O1404 O 0.65386 0.39292 0.57269 0.0
O1405 O 0.60769 0.41156 0.60216 0.0
O1406 O 0.621 0.37748 0.62903 0.0
C1407 C 0.78387 0.46152 0.60362 0.0
C1408 C 0.71454 0.42514 0.65272 0.0
C1409 C 0.67871 0.49385 0.65078 0.0
C1410 C 0.75349 0.52138 0.62102 0.0
C1411 C 0.58682 0.46325 0.62496 0.0
C1412 C 0.65284 0.47087 0.57198 0.0
C1413 C 0.67061 0.4069 0.55898 0.0
C1414 C 0.60288 0.39148 0.61884 0.0
O1415 O 0.77795 0.45496 0.62915 0.0
O1416 O 0.76665 0.47073 0.58769 0.0
O1417 O 0.70065 0.41824 0.6323 0.0
O1418 O 0.72935 0.44612 0.6506 0.0
Co1419 Co 0.25104 0.87235 0.95457 0.0
Co1420 Co 0.20386 0.88654 0.9467 0.0
Co1421 Co 0.23333 0.88613 0.88541 0.0
O1422 O 0.23485 0.89402 0.9267 0.0
H1423 H 0.23928 0.91264 0.92957 0.0
O1424 O 0.23282 0.87824 0.84357 0.0
Co1425 Co 0.22071 0.90446 0.81612 0.0
Co1426 Co 0.26732 0.88691 0.82845 0.0
H1427 H 0.2275 0.86002 0.83967 0.0
O1428 O 0.19384 0.90204 0.98087 0.0
O1429 O 0.21493 0.86364 0.97523 0.0
O1430 O 0.17802 0.87133 0.92319 0.0
O1431 O 0.20649 0.85665 0.89128 0.0
O1432 O 0.20485 0.91364 0.8811 0.0
O1433 O 0.21003 0.92693 0.78959 0.0
O1434 O 0.21558 0.88327 0.7844 0.0
O1435 O 0.22487 0.9298 0.84357 0.0
O1436 O 0.25911 0.91633 0.8815 0.0
O1437 O 0.2902 0.91026 0.84941 0.0
O1438 O 0.25622 0.91171 0.80419 0.0
O1439 O 0.27834 0.87573 0.79252 0.0
C1440 C 0.26446 0.87912 0.993 0.0
C1441 C 0.26629 0.84095 0.90658 0.0
C1442 C 0.18438 0.85481 0.90445 0.0
C1443 C 0.20244 0.88058 0.99184 0.0
C1444 C 0.21031 0.90632 0.7733 0.0
C1445 C 0.20706 0.93155 0.86203 0.0
C1446 C 0.2805 0.92335 0.86939 0.0
C1447 C 0.26811 0.89791 0.78558 0.0
O1448 O 0.26632 0.85586 0.98145 0.0
O1449 O 0.25488 0.89875 0.97935 0.0
O1450 O 0.26271 0.85925 0.88852 0.0
O1451 O 0.2527 0.84084 0.92956 0.0
Co1452 Co 0.74901 0.9667 0.11378 0.0
Co1453 Co 0.72001 1.00582 0.1054 0.0
Co1454 Co 0.68527 0.95215 0.10713 0.0
O1455 O 0.71855 0.96967 0.09484 0.0
H1456 H 0.72179 0.9671 0.07537 0.0
O1457 O 0.65196 0.93812 0.12146 0.0
Co1458 Co 0.62226 0.95245 0.10643 0.0
Co1459 Co 0.64214 0.90584 0.10897 0.0
H1460 H 0.65089 0.93765 0.14136 0.0
O1461 O 0.74235 0.03327 0.09207 0.0
O1462 O 0.74939 1.00553 0.12731 0.0
O1463 O 0.69065 1.01743 0.12796 0.0
O1464 O 0.68159 0.97584 0.14095 0.0
O1465 O 0.6687 0.97867 0.08415 0.0
O1466 O 0.5936 0.9657 0.09517 0.0
O1467 O 0.60399 0.95768 0.13898 0.0
O1468 O 0.6373 0.95192 0.07023 0.0
O1469 O 0.68654 0.92766 0.07022 0.0
O1470 O 0.65544 0.89566 0.07411 0.0
O1471 O 0.60899 0.91559 0.1026 0.0
O1472 O 0.62286 0.88365 0.13169 0.0
C1473 C 0.78587 0.96723 0.10101 0.0
C1474 C 0.7163 0.93517 0.15204 0.0
C1475 C 0.67955 1.00088 0.14458 0.0
C1476 C 0.75408 0.02836 0.11466 0.0
C1477 C 0.5886 0.96824 0.12138 0.0
C1478 C 0.65397 0.97071 0.06532 0.0
C1479 C 0.67251 0.90816 0.05936 0.0
C1480 C 0.60449 0.89704 0.12111 0.0
O1481 O 0.77945 0.96264 0.12684 0.0
O1482 O 0.76901 0.97517 0.0839 0.0
O1483 O 0.70251 0.92589 0.13239 0.0
O1484 O 0.73106 0.95576 0.14762 0.0
Co1485 Co 0.46993 0.05887 0.92776 0.0
Co1486 Co 0.46216 0.10842 0.92374 0.0
Co1487 Co 0.40187 0.07582 0.92168 0.0
O1488 O 0.44191 0.07869 0.91131 0.0
H1489 H 0.44422 0.07803 0.8915 0.0
O1490 O 0.36007 0.07466 0.92968 0.0
Co1491 Co 0.3298 0.08454 0.90167 0.0
Co1492 Co 0.35006 0.04091 0.91811 0.0
H1493 H 0.35537 0.07738 0.9489 0.0
O1494 O 0.49386 0.12444 0.90793 0.0
O1495 O 0.49139 0.09347 0.94121 0.0
O1496 O 0.44274 0.12686 0.95089 0.0
O1497 O 0.40656 0.10042 0.95687 0.0
O1498 O 0.39522 0.10711 0.89658 0.0
O1499 O 0.30228 0.09423 0.87626 0.0
O1500 O 0.29301 0.08384 0.919 0.0
O1501 O 0.35984 0.08814 0.87817 0.0
O1502 O 0.39943 0.05197 0.88639 0.0
O1503 O 0.37522 1.01736 0.9004 0.0
O1504 O 0.32529 0.04605 0.89246 0.0
O1505 O 0.32196 1.0255 0.93456 0.0
C1506 C 0.50565 0.04525 0.91489 0.0
C1507 C 0.42758 0.03765 0.96281 0.0
C1508 C 0.42247 0.11958 0.965 0.0
C1509 C 0.50573 0.11154 0.92662 0.0
C1510 C 0.28391 0.09148 0.89523 0.0
C1511 C 0.37592 0.1079 0.88029 0.0
C1512 C 0.39049 0.02804 0.88226 0.0
C1513 C 0.31629 0.02658 0.90864 0.0
O1514 O 0.49587 0.04002 0.93944 0.0
O1515 O 0.4923 0.05882 0.89767 0.0
O1516 O 0.40816 0.04246 0.94707 0.0
O1517 O 0.44799 0.05341 0.96147 0.0
Co1518 Co 0.84411 0.63895 0.73846 0.0
Co1519 Co 0.80399 0.65272 0.71518 0.0
Co1520 Co 0.84841 0.6595 0.67022 0.0
O1521 O 0.83892 0.66496 0.71014 0.0
H1522 H 0.84141 0.6833 0.71584 0.0
O1523 O 0.85358 0.65138 0.6315 0.0
Co1524 Co 0.83197 0.66903 0.60676 0.0
Co1525 Co 0.87981 0.66966 0.61444 0.0
H1526 H 0.8552 0.63257 0.62771 0.0
O1527 O 0.78277 0.66857 0.74 0.0
O1528 O 0.80369 0.62967 0.74484 0.0
O1529 O 0.78711 0.63175 0.68659 0.0
O1530 O 0.82568 0.62477 0.66724 0.0
O1531 O 0.81845 0.68131 0.66187 0.0
O1532 O 0.81226 0.68391 0.58295 0.0
O1533 O 0.82063 0.64027 0.58635 0.0
O1534 O 0.83677 0.70148 0.62575 0.0
O1535 O 0.87141 0.70003 0.66777 0.0
O1536 O 0.89067 0.70408 0.6258 0.0
O1537 O 0.86386 0.67403 0.58231 0.0
O1538 O 0.89943 0.64982 0.59337 0.0
C1539 C 0.85122 0.64078 0.77906 0.0
C1540 C 0.87055 0.61063 0.6955 0.0
C1541 C 0.80159 0.61789 0.67105 0.0
C1542 C 0.78324 0.64471 0.75028 0.0
C1543 C 0.8077 0.65955 0.57545 0.0
C1544 C 0.82171 0.70207 0.64721 0.0
C1545 C 0.88445 0.71529 0.64822 0.0
C1546 C 0.88236 0.65722 0.57604 0.0
O1547 O 0.85105 0.61821 0.76598 0.0
O1548 O 0.84302 0.66218 0.76723 0.0
O1549 O 0.87692 0.63206 0.68067 0.0
O1550 O 0.85003 0.61099 0.71148 0.0
Co1551 Co 0.25231 0.37684 0.45369 0.0
Co1552 Co 0.20411 0.38755 0.4455 0.0
Co1553 Co 0.23413 0.38936 0.38327 0.0
O1554 O 0.23457 0.39611 0.42517 0.0
H1555 H 0.23573 0.415 0.42824 0.0
O1556 O 0.23388 0.38218 0.34065 0.0
Co1557 Co 0.20941 0.39361 0.31061 0.0
Co1558 Co 0.25328 0.40999 0.32428 0.0
H1559 H 0.24147 0.36543 0.33612 0.0
O1560 O 0.19358 0.40394 0.47934 0.0
O1561 O 0.21641 0.36651 0.47542 0.0
O1562 O 0.17774 0.37787 0.41864 0.0
O1563 O 0.20516 0.36138 0.38715 0.0
O1564 O 0.20782 0.41878 0.38028 0.0
O1565 O 0.18891 0.40326 0.28295 0.0
O1566 O 0.21965 0.37297 0.27941 0.0
O1567 O 0.19589 0.41736 0.33624 0.0
O1568 O 0.26338 0.41757 0.38218 0.0
O1569 O 0.25985 0.44094 0.34428 0.0
O1570 O 0.23451 0.42116 0.29696 0.0
O1571 O 0.2744 0.40296 0.29476 0.0
C1572 C 0.26571 0.38546 0.49185 0.0
C1573 C 0.26758 0.34369 0.40487 0.0
C1574 C 0.18381 0.35952 0.40177 0.0
C1575 C 0.20293 0.3833 0.49125 0.0
C1576 C 0.20313 0.38821 0.26717 0.0
C1577 C 0.19447 0.42712 0.3603 0.0
C1578 C 0.26604 0.43952 0.36893 0.0
C1579 C 0.25579 0.41528 0.2832 0.0
O1580 O 0.26883 0.36221 0.48069 0.0
O1581 O 0.25449 0.40402 0.47807 0.0
O1582 O 0.26182 0.36052 0.38604 0.0
O1583 O 0.25691 0.34505 0.42934 0.0
C1584 C 0.17733 0.99242 0.52805 0.0
C1585 C 0.15403 0.98441 0.54216 0.0
C1586 C 0.17816 1.01431 0.51006 0.0
C1587 C 0.15569 0.02877 0.50598 0.0
H1588 H 0.19528 0.98271 0.53223 0.0
H1589 H 0.19671 1.02084 0.50071 0.0
S1590 S 0.08993 1.0151 0.53873 0.0
N1591 N 0.10846 0.99223 0.55124 0.0
N1592 N 0.10898 0.03213 0.51663 0.0
C1593 C 0.13188 1.01955 0.51876 0.0
C1594 C 0.13132 0.99766 0.53718 0.0
C1595 C 0.06203 0.41253 0.81303 0.0
C1596 C 0.05201 0.41506 0.84017 0.0
C1597 C 0.04845 0.42218 0.79093 0.0
C1598 C 1.02504 0.43546 0.79537 0.0
H1599 H 0.07913 0.40097 0.80863 0.0
H1600 H 0.05505 0.4171 0.7702 0.0
S1601 S 0.99344 0.45159 0.86272 0.0
N1602 N 1.01932 0.43487 0.87056 0.0
N1603 N 0.9941 0.45356 0.82874 0.0
C1604 C 1.01638 0.44066 0.82245 0.0
C1605 C 1.02984 0.4303 0.84499 0.0
C1606 C 0.66011 0.26471 0.06847 0.0
C1607 C 0.67954 0.26239 0.04735 0.0
C1608 C 0.664 0.28023 0.09188 0.0
C1609 C 0.68739 0.29477 0.09544 0.0
H1610 H 0.64161 0.25391 0.06747 0.0
H1611 H 0.64836 0.28063 0.10741 0.0
S1612 S 0.74418 0.29731 0.0458 0.0
N1613 N 0.72294 0.27694 0.0312 0.0
N1614 N 0.73016 0.30691 0.07513 0.0
C1615 C 0.70688 0.29346 0.07422 0.0
C1616 C 0.70294 0.27724 0.05022 0.0
C1617 C 0.77195 0.93516 0.24874 0.0
C1618 C 0.77371 0.90777 0.25487 0.0
C1619 C 0.78384 0.94563 0.22453 0.0
C1620 C 0.80033 0.92933 0.20889 0.0
H1621 H 0.76398 0.94891 0.26378 0.0
H1622 H 0.78578 0.96713 0.22252 0.0
S1623 S 0.79614 0.85595 0.20607 0.0
N1624 N 0.78121 0.86369 0.23559 0.0
N1625 N 0.80435 0.88459 0.19076 0.0
C1626 C 0.79402 0.90193 0.2093 0.0
C1627 C 0.782 0.89071 0.23363 0.0
C1628 C 0.11578 0.26394 0.73069 0.0
C1629 C 0.13919 0.27635 0.72037 0.0
C1630 C 0.11533 0.24629 0.753 0.0
C1631 C 0.13829 0.23998 0.76593 0.0
H1632 H 0.09742 0.26774 0.72147 0.0
H1633 H 0.09691 0.23671 0.75935 0.0
S1634 S 0.20461 0.2681 0.74831 0.0
N1635 N 0.18583 0.28195 0.7259 0.0
N1636 N 0.18508 0.24863 0.76778 0.0
C1637 C 0.16179 0.25278 0.75643 0.0
C1638 C 0.16224 0.27088 0.73366 0.0
C1639 C 0.78023 0.36235 0.03444 0.0
C1640 C 0.77398 0.38449 1.01838 0.0
C1641 C 0.78968 0.36566 0.06094 0.0
C1642 C 0.7936 0.39132 0.07193 0.0
H1643 H 0.77948 0.34245 0.02587 0.0
H1644 H 0.7974 0.34846 0.07094 0.0
S1645 S 0.77376 0.45496 0.04179 0.0
N1646 N 0.76867 0.43258 1.01751 0.0
N1647 N 0.7838 0.43816 0.06838 0.0
C1648 C 0.78288 0.41287 0.05826 0.0
C1649 C 0.77472 0.40984 0.03074 0.0
C1650 C 0.63951 1.01924 0.20942 0.0
C1651 C 0.65863 0.03072 0.22623 0.0
C1652 C 0.64623 1.00896 0.18305 0.0
C1653 C 0.67206 1.01061 0.1724 0.0
H1654 H 0.6193 1.01844 0.21649 0.0
H1655 H 0.63117 1.00017 0.17069 0.0
S1656 S 0.7299 0.0364 0.20809 0.0
N1657 N 0.70532 0.04076 0.23021 0.0
N1658 N 0.71687 1.02284 0.18075 0.0
C1659 C 0.69129 1.02138 0.189 0.0
C1660 C 0.68485 0.03107 0.21587 0.0
C1661 C 0.06058 0.87601 0.46231 0.0
C1662 C 0.07984 0.89624 0.46667 0.0
C1663 C 1.03953 0.87142 0.48106 0.0
C1664 C 1.03708 0.88689 0.50487 0.0
H1665 H 0.06069 0.86478 0.44329 0.0
H1666 H 1.02404 0.85748 0.47565 0.0
S1667 S 0.08494 0.93751 0.52922 0.0
N1668 N 0.09724 0.92831 0.49898 0.0
N1669 N 0.0576 0.91983 0.53438 0.0
C1670 C 0.05761 0.90496 0.51102 0.0
C1671 C 0.07908 0.90958 0.49192 0.0
C1672 C 0.55563 0.11932 0.03734 0.0
C1673 C 0.55136 0.13989 0.05695 0.0
C1674 C 0.57844 0.11844 0.01976 0.0
C1675 C 0.59905 0.13791 0.02045 0.0
H1676 H 0.54114 0.10335 0.03551 0.0
H1677 H 0.57992 0.10196 1.00546 0.0
S1678 S 0.5985 0.19662 0.06741 0.0
N1679 N 0.57056 0.18077 0.07528 0.0
N1680 N 0.6129 0.17898 0.04285 0.0
C1681 C 0.59509 0.15875 0.03981 0.0
C1682 C 0.57163 0.15977 0.05768 0.0
C1683 C 0.94573 0.8267 0.28665 0.0
C1684 C 0.92358 0.81114 0.27946 0.0
C1685 C 0.95025 0.85281 0.2771 0.0
C1686 C 0.93288 0.86492 0.25985 0.0
H1687 H 0.96013 0.81863 0.29978 0.0
H1688 H 0.96782 0.86348 0.28299 0.0
S1689 S 0.87085 0.83438 0.23629 0.0
N1690 N 0.88316 0.81076 0.25515 0.0
N1691 N 0.8917 0.86012 0.237 0.0
C1692 C 0.91002 0.85027 0.25328 0.0
C1693 C 0.90537 0.82337 0.26309 0.0
C1694 C 0.28798 0.16294 0.52917 0.0
C1695 C 0.28978 0.14782 0.55343 0.0
C1696 C 0.26427 0.16513 0.51604 0.0
C1697 C 0.24132 0.15256 0.52687 0.0
H1698 H 0.30461 0.17491 0.52149 0.0
H1699 H 0.26349 0.1785 0.49859 0.0
S1700 S 0.23584 0.10844 0.58797 0.0
N1701 N 0.2669 0.118 0.58612 0.0
N1702 N 0.22218 0.1226 0.56168 0.0
C1703 C 0.24314 0.13582 0.54983 0.0
C1704 C 0.26745 0.13323 0.563 0.0
C1705 C 0.87148 0.5002 0.8453 0.0
C1706 C 0.89318 0.51506 0.85472 0.0
C1707 C 0.87164 0.48714 0.81951 0.0
C1708 C 0.89369 0.48734 0.80112 0.0
H1709 H 0.8537 0.49881 0.85794 0.0
H1710 H 0.85393 0.47646 0.81411 0.0
S1711 S 0.95655 0.52237 0.81559 0.0
N1712 N 0.93793 0.52893 0.8431 0.0
N1713 N 0.93857 0.50363 0.79517 0.0
C1714 C 0.9159 0.50175 0.81032 0.0
C1715 C 0.91553 0.51576 0.8367 0.0
C1716 C 0.54747 0.16444 0.24644 0.0
C1717 C 0.56885 0.14735 0.24476 0.0
C1718 C 0.53368 0.17173 0.22316 0.0
C1719 C 0.5397 0.16183 0.1966 0.0
H1720 H 0.5425 0.17403 0.26584 0.0
H1721 H 0.51878 0.18637 0.22589 0.0
S1722 S 0.59204 0.11428 0.18037 0.0
N1723 N 0.59432 0.11945 0.21384 0.0
N1724 N 0.56752 0.13203 0.17039 0.0
C1725 C 0.55969 0.14307 0.19469 0.0
C1726 C 0.57434 0.13607 0.21858 0.0
C1727 C 0.91282 0.81446 0.52141 0.0
C1728 C 0.88807 0.82513 0.5263 0.0
C1729 C 0.91605 0.7911 0.5061 0.0
C1730 C 0.89472 0.77723 0.49492 0.0
H1731 H 0.93012 0.82458 0.52878 0.0
H1732 H 0.93568 0.78468 0.50164 0.0
S1733 S 0.8254 0.79425 0.50464 0.0
N1734 N 0.84144 0.81802 0.5211 0.0
N1735 N 0.84772 0.77428 0.49193 0.0
C1736 C 0.86969 0.78644 0.5012 0.0
C1737 C 0.86633 0.81039 0.51683 0.0
C1738 C 0.23447 0.15463 0.7617 0.0
C1739 C 0.25654 0.13825 0.76094 0.0
C1740 C 0.20973 0.14577 0.7724 0.0
C1741 C 0.20528 0.11999 0.78341 0.0
H1742 H 0.23603 0.17469 0.75346 0.0
H1743 H 0.19388 0.15945 0.772 0.0
S1744 S 0.25609 0.0689 0.78779 0.0
N1745 N 0.27181 0.09464 0.77297 0.0
N1746 N 0.22584 0.07816 0.79353 0.0
C1747 C 0.22719 0.10339 0.78333 0.0
C1748 C 0.2525 0.11241 0.77209 0.0
C1749 C 0.90621 0.46966 1.00591 0.0
C1750 C 0.9277 0.46355 0.02232 0.0
C1751 C 0.90609 0.49276 0.98788 0.0
C1752 C 0.92743 0.51165 0.98482 0.0
H1753 H 0.88928 0.45627 1.00667 0.0
H1754 H 0.88906 0.49559 0.97592 0.0
S1755 S 0.98876 0.5061 0.02259 0.0
N1756 N 0.97105 0.47995 0.03345 0.0
N1757 N 0.97069 0.52162 1.00085 0.0
C1758 C 0.94875 0.5058 1.00131 0.0
C1759 C 0.94891 0.48255 0.01946 0.0
C1760 C 0.09 0.50963 0.10887 0.0
C1761 C 0.07958 0.48547 0.11981 0.0
C1762 C 0.07719 0.53346 0.11247 0.0
C1763 C 0.05326 0.53439 0.12717 0.0
H1764 H 0.1079 0.50999 0.09634 0.0
H1765 H 0.08545 0.55112 0.10217 0.0
S1766 S 1.01952 0.47757 0.16383 0.0
N1767 N 0.04556 0.46432 0.14903 0.0
N1768 N 1.02105 0.50968 0.15587 0.0
C1769 C 0.0437 0.51096 0.14063 0.0
C1770 C 0.05696 0.4863 0.13688 0.0
C1771 C 0.51864 0.30784 0.13771 0.0
C1772 C 0.51355 0.28917 0.15892 0.0
C1773 C 0.53041 0.33262 0.14329 0.0
C1774 C 0.54097 0.33696 0.16918 0.0
H1775 H 0.51602 0.30225 0.11643 0.0
H1776 H 0.53721 0.34483 0.1259 0.0
S1777 S 0.52276 0.3001 0.23321 0.0
N1778 N 0.5107 0.28147 0.20835 0.0
N1779 N 0.53607 0.32695 0.21798 0.0
C1780 C 0.53023 0.32194 0.19141 0.0
C1781 C 0.51676 0.29731 0.1862 0.0
C1782 C 0.81847 0.78825 0.4167 0.0
C1783 C 0.83531 0.78748 0.39278 0.0
C1784 C 0.79662 0.80501 0.41932 0.0
C1785 C 0.78985 0.82283 0.39835 0.0
H1786 H 0.82262 0.77596 0.43424 0.0
H1787 H 0.78533 0.80446 0.43859 0.0
S1788 S 0.82668 0.82923 0.33079 0.0
N1789 N 0.84273 0.80642 0.34718 0.0
N1790 N 0.80235 0.83776 0.35184 0.0
C1791 C 0.80614 0.82194 0.3739 0.0
C1792 C 0.82845 0.80451 0.37118 0.0
C1793 C 0.30455 0.07917 0.64034 0.0
C1794 C 0.28898 0.09826 0.65403 0.0
C1795 C 0.29357 0.05563 0.6286 0.0
C1796 C 0.26655 0.05008 0.62984 0.0
H1797 H 0.32545 0.08242 0.63858 0.0
H1798 H 0.30629 0.04188 0.61815 0.0
S1799 S 0.21684 0.09254 0.66338 0.0
N1800 N 0.24462 0.10888 0.66836 0.0
N1801 N 0.22453 0.0655 0.64591 0.0
C1802 C 0.25084 0.06872 0.64356 0.0
C1803 C 0.26186 0.09248 0.6557 0.0
C1804 C 0.53737 0.5189 0.38206 0.0
C1805 C 0.53389 0.53625 0.40456 0.0
C1806 C 0.56031 0.50434 0.37864 0.0
C1807 C 0.58038 0.50683 0.39758 0.0
H1808 H 0.5215 0.51482 0.36849 0.0
H1809 H 0.56116 0.48917 0.36277 0.0
S1810 S 0.58273 0.55425 0.45607 0.0
N1811 N 0.55385 0.55826 0.44326 0.0
N1812 N 0.59677 0.53145 0.43657 0.0
C1813 C 0.57806 0.52635 0.41818 0.0
C1814 C 0.55482 0.54089 0.42179 0.0
C1815 C 0.28431 0.75506 0.17674 0.0
C1816 C 0.287 0.77696 0.15884 0.0
C1817 C 0.2979 0.73175 0.17124 0.0
C1818 C 0.31454 0.72952 0.14759 0.0
H1819 H 0.27009 0.75507 0.19376 0.0
H1820 H 0.29425 0.7149 0.18494 0.0
S1821 S 0.33232 0.78377 0.09778 0.0
N1822 N 0.31073 0.79688 0.11938 0.0
N1823 N 0.33573 0.75291 0.10855 0.0
C1824 C 0.31905 0.75221 0.13093 0.0
C1825 C 0.30548 0.776 0.13677 0.0
C1826 C 0.80751 0.99614 0.37603 0.0
C1827 C 0.80753 0.99952 0.40487 0.0
C1828 C 0.80154 0.97116 0.36428 0.0
C1829 C 0.79551 0.94883 0.38102 0.0
H1830 H 0.81249 1.01277 0.36239 0.0
H1831 H 0.8007 0.96955 0.34209 0.0
S1832 S 0.79361 0.94652 0.45731 0.0
N1833 N 0.80096 0.97792 0.44965 0.0
N1834 N 0.79073 0.93119 0.42748 0.0
C1835 C 0.79592 0.9518 0.4097 0.0
C1836 C 0.80156 0.97708 0.42165 0.0
C1837 C 0.9736 0.27623 0.8931 0.0
C1838 C 0.97026 0.26888 0.86538 0.0
C1839 C 0.9951 0.29229 0.90119 0.0
C1840 C 1.01464 0.30181 0.88207 0.0
H1841 H 0.95936 0.26961 0.90882 0.0
H1842 H 0.99634 0.29735 0.92279 0.0
S1843 S 1.01423 0.2909 0.8065 0.0
N1844 N 0.98799 0.27428 0.81848 0.0
N1845 N 1.02823 0.3037 0.83373 0.0
C1846 C 1.01157 0.29471 0.85428 0.0
C1847 C 0.98954 0.27853 0.84597 0.0
C1848 C 0.91243 1.00431 0.50922 0.0
C1849 C 0.92976 1.00991 0.48614 0.0
C1850 C 0.9139 0.98071 0.52628 0.0
C1851 C 0.93292 0.96096 0.52162 0.0
H1852 H 0.89774 1.01859 0.51457 0.0
H1853 H 0.90035 0.97834 0.54375 0.0
S1854 S 0.98055 0.96314 0.46191 0.0
N1855 N 0.96471 0.991 0.45852 0.0
N1856 N 0.968 0.94852 0.49001 0.0
C1857 C 0.94971 0.96609 0.49819 0.0
C1858 C 0.94802 0.98975 0.4808 0.0
C1859 C 0.08145 0.66686 0.19051 0.0
C1860 C 0.05469 0.66018 0.18894 0.0
C1861 C 0.09589 0.66064 0.21377 0.0
C1862 C 0.08464 0.64754 0.23736 0.0
H1863 H 0.09132 0.6779 0.17383 0.0
H1864 H 0.11601 0.66769 0.21393 0.0
S1865 S 1.01528 0.62493 0.24437 0.0
N1866 N 1.01772 0.63825 0.21319 0.0
N1867 N 0.04457 0.62777 0.25718 0.0
C1868 C 0.05808 0.6398 0.23585 0.0
C1869 C 0.0433 0.64575 0.21172 0.0
C1870 C 0.3749 0.78157 1.00364 0.0
C1871 C 0.39979 0.77225 0.9969 0.0
C1872 C 0.37178 0.80502 1.019 0.0
C1873 C 0.39346 0.82011 0.02807 0.0
H1874 H 0.35781 0.7719 0.99525 0.0
H1875 H 0.35224 0.81193 0.02278 0.0
S1876 S 0.46252 0.80127 0.02003 0.0
N1877 N 0.44622 0.77772 1.00356 0.0
N1878 N 0.44046 0.82172 0.03238 0.0
C1879 C 0.41831 0.80977 0.02329 0.0
C1880 C 0.42143 0.78582 1.00783 0.0
C1881 C 0.24297 0.63775 0.05146 0.0
C1882 C 0.24215 0.65223 0.02665 0.0
C1883 C 0.26663 0.6346 0.06485 0.0
C1884 C 0.29012 0.64638 0.05418 0.0
H1885 H 0.22502 0.63039 0.06152 0.0
H1886 H 0.26605 0.62524 0.08498 0.0
S1887 S 0.2986 0.68511 0.98939 0.0
N1888 N 0.26727 0.6768 0.99131 0.0
N1889 N 0.31111 0.67191 1.01682 0.0
C1890 C 0.28965 0.6595 0.02867 0.0
C1891 C 0.26583 0.66222 1.01486 0.0
C1892 C 0.40473 0.02662 0.8305 0.0
C1893 C 0.39412 1.01365 0.85454 0.0
C1894 C 0.40523 1.01397 0.80411 0.0
C1895 C 0.395 0.98774 0.80032 0.0
H1896 H 0.412 0.04706 0.83186 0.0
H1897 H 0.41288 1.02518 0.78641 0.0
S1898 S 0.36686 0.94384 0.85603 0.0
N1899 N 0.37469 0.97179 0.87209 0.0
N1900 N 0.37519 0.94897 0.82329 0.0
C1901 C 0.38511 0.97439 0.82417 0.0
C1902 C 0.38481 0.98699 0.8509 0.0
C1903 C 0.07553 0.15667 0.55665 0.0
C1904 C 0.05538 0.13655 0.55662 0.0
C1905 C 0.09853 0.15578 0.53892 0.0
C1906 C 0.10297 0.13476 0.51983 0.0
H1907 H 0.07374 0.17324 0.57081 0.0
H1908 H 0.113 0.17184 0.54026 0.0
S1909 S 0.05696 0.07655 0.51139 0.0
N1910 N 0.04231 0.09474 0.53517 0.0
N1911 N 0.08444 0.09291 0.5031 0.0
C1912 C 0.08291 0.11463 0.5197 0.0
C1913 C 0.05966 0.11554 0.53757 0.0
C1914 C 0.56257 0.87932 0.96138 0.0
C1915 C 0.58021 0.9011 0.96562 0.0
C1916 C 0.54309 0.87188 0.98094 0.0
C1917 C 0.54047 0.88596 1.00557 0.0
H1918 H 0.56211 0.86935 0.94173 0.0
H1919 H 0.52823 0.8573 0.9753 0.0
S1920 S 0.58532 0.93914 0.03047 0.0
N1921 N 0.5968 0.93271 0.99902 0.0
N1922 N 0.55984 0.91876 0.036 0.0
C1923 C 0.56 0.90513 1.01184 0.0
C1924 C 0.57996 0.91276 0.99182 0.0
C1925 C 0.79219 0.8626 0.52702 0.0
C1926 C 0.77706 0.88295 0.51674 0.0
C1927 C 0.80175 0.86381 0.55349 0.0
C1928 C 0.79884 0.88669 0.56969 0.0
H1929 H 0.79678 0.84544 0.5145 0.0
H1930 H 0.8143 0.84817 0.55979 0.0
S1931 S 0.7576 0.94373 0.55463 0.0
N1932 N 0.75568 0.92456 0.52707 0.0
N1933 N 0.77678 0.92845 0.5757 0.0
C1934 C 0.78206 0.90625 0.56077 0.0
C1935 C 0.77098 0.90433 0.53428 0.0
C1936 C 0.19121 0.50367 0.20049 0.0
C1937 C 0.17343 0.5007 0.17949 0.0
C1938 C 0.1838 0.51422 0.22615 0.0
C1939 C 0.15836 0.52307 0.23185 0.0
H1940 H 0.21132 0.49851 0.19677 0.0
H1941 H 0.19867 0.51661 0.24125 0.0
S1942 S 0.10408 0.51862 0.18377 0.0
N1943 N 0.12892 0.5061 0.1661 0.0
N1944 N 0.11499 0.52685 0.2143 0.0
C1945 C 0.14002 0.51925 0.2113 0.0
C1946 C 0.1476 0.50805 0.18507 0.0
C1947 C 0.51609 0.94462 0.82547 0.0
C1948 C 0.5259 0.94411 0.79812 0.0
C1949 C 0.52942 0.93258 0.84656 0.0
C1950 C 0.5531 0.92007 0.84092 0.0
H1951 H 0.49664 0.95147 0.83004 0.0
H1952 H 0.5203 0.93155 0.86702 0.0
S1953 S 0.58872 0.91729 0.7732 0.0
N1954 N 0.5618 0.93295 0.76697 0.0
N1955 N 0.58746 0.91116 0.80663 0.0
C1956 C 0.56451 0.92225 0.81421 0.0
C1957 C 0.55075 0.93418 0.79277 0.0
C1958 C 0.16587 0.28779 0.58377 0.0
C1959 C 0.1897 0.30113 0.58863 0.0
C1960 C 0.16299 0.2706 0.56138 0.0
C1961 C 0.18397 0.26507 0.54299 0.0
H1962 H 0.14914 0.29021 0.59765 0.0
H1963 H 0.1442 0.26059 0.55932 0.0
S1964 S 0.25017 0.29631 0.54481 0.0
N1965 N 0.23435 0.30939 0.57151 0.0
N1966 N 0.2291 0.27593 0.52995 0.0
C1967 C 0.20764 0.27924 0.54658 0.0
C1968 C 0.2105 0.29736 0.56932 0.0
C1969 C 0.18692 0.51322 0.04746 0.0
C1970 C 0.17006 0.49085 0.044 0.0
C1971 C 0.19062 0.53241 0.02678 0.0
C1972 C 0.17743 0.52987 1.00221 0.0
H1973 H 0.19596 0.51699 0.06692 0.0
H1974 H 0.20155 0.55063 0.03128 0.0
S1975 S 0.13791 0.47172 0.97971 0.0
N1976 N 0.14508 0.46444 1.01162 0.0
N1977 N 0.1515 0.50136 0.97296 0.0
C1978 C 0.16323 0.50625 0.9971 0.0
C1979 C 0.15966 0.48646 1.01801 0.0
C1980 C 0.07683 0.52748 0.92012 0.0
C1981 C 0.0818 0.5122 0.89626 0.0
C1982 C 0.05305 0.53976 0.92466 0.0
C1983 C 1.03366 0.53813 0.90512 0.0
H1984 H 0.09032 0.52772 0.93674 0.0
H1985 H 0.04929 0.54939 0.94432 0.0
S1986 S 1.03962 0.50702 0.8361 0.0
N1987 N 0.06719 0.50032 0.85068 0.0
N1988 N 1.02276 0.52471 0.8588 0.0
C1989 C 1.03969 0.52625 0.87956 0.0
C1990 C 0.06384 0.51311 0.87514 0.0
C1991 C 0.51664 0.7852 0.85892 0.0
C1992 C 0.51531 0.80286 0.88155 0.0
C1993 C 0.49509 0.7685 0.85198 0.0
C1994 C 0.47114 0.76878 0.86723 0.0
H1995 H 0.53447 0.78422 0.84645 0.0
H1996 H 0.49725 0.7553 0.83445 0.0
S1997 S 0.45673 0.81256 0.92741 0.0
N1998 N 0.48732 0.82 0.91857 0.0
N1999 N 0.44746 0.78932 0.90553 0.0
C2000 C 0.46958 0.78656 0.88972 0.0
C2001 C 0.4914 0.80335 0.89684 0.0
C2002 C 0.31147 0.2503 0.62797 0.0
C2003 C 0.31117 0.23012 0.64797 0.0
C2004 C 0.29757 0.27346 0.63241 0.0
C2005 C 0.28236 0.27722 0.65681 0.0
H2006 H 0.32181 0.24788 0.60834 0.0
H2007 H 0.29759 0.28786 0.61578 0.0
S2008 S 0.2785 0.23268 0.71756 0.0
N2009 N 0.29735 0.21719 0.69486 0.0
N2010 N 0.27046 0.26057 0.70253 0.0
C2011 C 0.28352 0.25832 0.67786 0.0
C2012 C 0.29795 0.23472 0.67352 0.0
C2013 C 0.55925 0.52748 0.6511 0.0
C2014 C 0.54017 0.53159 0.63158 0.0
C2015 C 0.57243 0.50316 0.65197 0.0
C2016 C 0.56648 0.48214 0.63372 0.0
H2017 H 0.56554 0.54383 0.66408 0.0
H2018 H 0.58897 0.50186 0.66501 0.0
S2019 S 0.5148 0.48118 0.58285 0.0
N2020 N 0.51423 0.51155 0.59592 0.0
N2021 N 0.5374 0.46562 0.59912 0.0
C2022 C 0.54537 0.48511 0.61663 0.0
C2023 C 0.53276 0.50995 0.61498 0.0
C2024 C 0.82179 0.29138 0.9138 0.0
C2025 C 0.83649 0.29038 0.88848 0.0
C2026 C 0.79913 0.30682 0.91776 0.0
C2027 C 0.7895 0.32291 0.89674 0.0
H2028 H 0.82817 0.2802 0.9312 0.0
H2029 H 0.78954 0.3067 0.93799 0.0
S2030 S 0.82005 0.32771 0.82582 0.0
N2031 N 0.83887 0.30695 0.84163 0.0
N2032 N 0.79706 0.33593 0.84865 0.0
C2033 C 0.80372 0.3217 0.87095 0.0
C2034 C 0.82679 0.30563 0.86692 0.0
C2035 C 1.03788 0.81569 0.18653 0.0
C2036 C 0.04655 0.83398 0.16606 0.0
C2037 C 1.0288 0.79026 0.17877 0.0
C2038 C 1.02554 0.78431 0.15085 0.0
H2039 H 0.04386 0.81844 0.20754 0.0
H2040 H 1.02667 0.77472 0.19426 0.0
S2041 S 1.02912 0.8326 0.09316 0.0
N2042 N 1.03946 0.84972 0.11992 0.0
N2043 N 1.02157 0.80223 0.10471 0.0
C2044 C 1.02697 0.80527 0.1317 0.0
C2045 C 1.03615 0.83093 0.13997 0.0
C2046 C 0.05272 0.9258 0.29401 0.0
C2047 C 1.02942 0.93882 0.30027 0.0
C2048 C 0.06661 0.91391 0.3147 0.0
C2049 C 0.05742 0.91443 0.34225 0.0
H2050 H 0.05858 0.92206 0.27273 0.0
H2051 H 0.08304 0.90197 0.30872 0.0
S2052 S 1.00036 0.95041 0.36992 0.0
N2053 N 0.99999 0.955 0.33624 0.0
N2054 N 1.0261 0.93251 0.37535 0.0
C2055 C 1.03576 0.92978 0.34912 0.0
C2056 C 1.02181 0.94217 0.32803 0.0
C2057 C 0.67199 0.8022 0.57445 0.0
C2058 C 0.69319 0.79727 0.59099 0.0
C2059 C 0.66936 0.78947 0.54885 0.0
C2060 C 0.68795 0.77157 0.53867 0.0
H2061 H 0.65711 0.81566 0.58153 0.0
H2062 H 0.65198 0.79264 0.53753 0.0
S2063 S 0.74683 0.75155 0.57417 0.0
N2064 N 0.73294 0.77299 0.59545 0.0
N2065 N 0.72821 0.74956 0.54723 0.0
C2066 C 0.70956 0.76704 0.55468 0.0
C2067 C 0.71204 0.77965 0.58092 0.0
C2068 C 0.78283 0.41319 0.71376 0.0
C2069 C 0.79364 0.43924 0.71377 0.0
C2070 C 0.76538 0.40524 0.7351 0.0
C2071 C 0.75647 0.42394 0.75446 0.0
H2072 H 0.79245 0.39776 0.70198 0.0
H2073 H 0.76176 0.38409 0.73863 0.0
S2074 S 0.76757 0.49699 0.75162 0.0
N2075 N 0.7865 0.48529 0.72647 0.0
N2076 N 0.75176 0.47079 0.76546 0.0
C2077 C 0.76117 0.4511 0.74905 0.0
C2078 C 0.77976 0.45891 0.72796 0.0
C2079 C 0.12263 0.7578 0.27273 0.0
C2080 C 0.14582 0.74654 0.28057 0.0
C2081 C 0.12213 0.77423 0.24936 0.0
C2082 C 0.14481 0.78017 0.23279 0.0
H2083 H 0.10435 0.75211 0.28323 0.0
H2084 H 0.1035 0.78169 0.24386 0.0
S2085 S 0.21134 0.75912 0.24742 0.0
N2086 N 0.19267 0.74524 0.2722 0.0
N2087 N 0.19167 0.77585 0.22818 0.0
C2088 C 0.16847 0.7707 0.24172 0.0
C2089 C 0.16899 0.75417 0.2657 0.0
C2090 C 0.67102 0.53183 0.68331 0.0
C2091 C 0.66686 0.50459 0.67711 0.0
C2092 C 0.66263 0.54266 0.70853 0.0
C2093 C 0.64934 0.52705 0.72889 0.0
H2094 H 0.68179 0.54496 0.66899 0.0
H2095 H 0.66755 0.56344 0.71258 0.0
S2096 S 0.63113 0.45529 0.72277 0.0
N2097 N 0.64653 0.46258 0.69312 0.0
N2098 N 0.6311 0.4832 0.7409 0.0
C2099 C 0.64382 0.50011 0.7228 0.0
C2100 C 0.65248 0.48886 0.69687 0.0
C2101 C 0.0613 0.38731 0.96683 0.0
C2102 C 0.07457 0.41226 0.96326 0.0
C2103 C 1.03908 0.38419 0.98431 0.0
C2104 C 1.02908 0.40603 0.99868 0.0
H2105 H 0.06729 0.37025 0.95486 0.0
H2106 H 1.02899 0.36491 0.98543 0.0
S2107 S 0.05855 0.47497 0.99923 0.0
N2108 N 0.07732 0.45852 0.97731 0.0
N2109 N 1.0362 0.45301 1.01078 0.0
C2110 C 0.04335 0.43071 0.99686 0.0
C2111 C 0.06597 0.43374 0.97906 0.0
C2112 C 0.56017 0.62152 0.53975 0.0
C2113 C 0.55448 0.64204 0.5589 0.0
C2114 C 0.58294 0.62212 0.52214 0.0
C2115 C 0.60209 0.64316 0.52238 0.0
H2116 H 0.5469 0.60442 0.53836 0.0
H2117 H 0.58558 0.6055 0.5082 0.0
S2118 S 0.59742 0.70245 0.56812 0.0
N2119 N 0.57069 0.68464 0.5764 0.0
N2120 N 0.61304 0.68555 0.54381 0.0
C2121 C 0.59671 0.66398 0.54126 0.0
C2122 C 0.57325 0.66349 0.55918 0.0
C2123 C 0.9013 0.32828 0.77198 0.0
C2124 C 0.91976 0.30835 0.76834 0.0
C2125 C 0.90687 0.35478 0.76308 0.0
C2126 C 0.93121 0.36248 0.75046 0.0
H2127 H 0.88311 0.3238 0.78322 0.0
H2128 H 0.89229 0.36954 0.76708 0.0
S2129 S 0.98488 0.31674 0.73332 0.0
N2130 N 0.96218 0.29748 0.74866 0.0
N2131 N 0.97294 0.34685 0.73288 0.0
C2132 C 0.94923 0.34227 0.74559 0.0
C2133 C 0.94338 0.31539 0.75416 0.0
C2134 C 0.87762 0.99093 0.34869 0.0
C2135 C 0.89542 1.01185 0.35549 0.0
C2136 C 0.87791 0.97838 0.32265 0.0
C2137 C 0.89642 0.9852 0.30141 0.0
H2138 H 0.8626 0.98428 0.36355 0.0
H2139 H 0.86319 0.96294 0.31915 0.0
S2140 S 0.9485 0.03773 0.30763 0.0
N2141 N 0.93277 0.03845 0.33793 0.0
N2142 N 0.93389 1.01414 0.28947 0.0
C2143 C 0.91502 1.00546 0.30788 0.0
C2144 C 0.91437 1.01886 0.33455 0.0
C2145 C 0.57981 0.63832 0.71551 0.0
C2146 C 0.57473 0.64334 0.74389 0.0
C2147 C 0.5622 0.64543 0.69489 0.0
C2148 C 0.53902 0.65893 0.70145 0.0
H2149 H 0.59829 0.63021 0.70899 0.0
H2150 H 0.56767 0.64186 0.6735 0.0
S2151 S 0.51635 0.67668 0.77263 0.0
N2152 N 0.54418 0.66207 0.77705 0.0
N2153 N 0.51189 0.67592 0.73916 0.0
C2154 C 0.53346 0.66327 0.72986 0.0
C2155 C 0.55103 0.6555 0.75069 0.0
C2156 C 0.86014 0.31934 1.0049 0.0
C2157 C 0.87931 0.32588 0.02395 0.0
C2158 C 0.86177 0.29622 0.98857 0.0
C2159 C 0.88253 0.27883 0.99083 0.0
H2160 H 0.84442 0.33274 1.00169 0.0
H2161 H 0.84773 0.29302 0.97279 0.0
S2162 S 0.93447 0.28368 0.04151 0.0
N2163 N 0.91732 0.31053 0.0471 0.0
N2164 N 0.92043 0.26763 1.01609 0.0
C2165 C 0.9005 0.28397 1.01131 0.0
C2166 C 0.89891 0.30736 0.02792 0.0
C2167 C 0.21405 0.6465 0.27495 0.0
C2168 C 0.20926 0.62011 0.28415 0.0
C2169 C 0.23889 0.65562 0.26485 0.0
C2170 C 0.2607 0.63895 0.26296 0.0
H2171 H 0.19834 0.66037 0.2753 0.0
H2172 H 0.24069 0.67609 0.25777 0.0
S2173 S 0.2595 0.56825 0.28588 0.0
N2174 N 0.22933 0.57756 0.29205 0.0
N2175 N 0.27553 0.59458 0.27263 0.0
C2176 C 0.25643 0.61264 0.2728 0.0
C2177 C 0.23102 0.60333 0.2834 0.0
C2178 C 1.03763 1.00996 0.60022 0.0
C2179 C 1.03871 0.02771 0.62258 0.0
C2180 C 0.05028 0.98567 0.60034 0.0
C2181 C 0.06563 0.97828 0.6224 0.0
H2182 H 1.02795 1.01544 0.58173 0.0
H2183 H 0.0498 0.97367 0.5818 0.0
S2184 S 0.07117 1.01558 0.68802 0.0
N2185 N 0.05292 0.03443 0.66923 0.0
N2186 N 0.07797 0.98917 0.66901 0.0
C2187 C 0.06493 0.99465 0.64602 0.0
C2188 C 0.05132 1.01932 0.64614 0.0
C2189 C 0.52409 0.79817 0.68028 0.0
C2190 C 0.51985 0.78445 0.65565 0.0
C2191 C 0.53646 0.82344 0.67969 0.0
C2192 C 0.54626 0.83408 0.65446 0.0
H2193 H 0.5204 0.78827 0.69993 0.0
H2194 H 0.54303 0.83162 0.69897 0.0
S2195 S 0.53214 0.81041 0.58476 0.0
N2196 N 0.52129 0.78617 0.60553 0.0
N2197 N 0.54208 0.83479 0.60505 0.0
C2198 C 0.53599 0.82391 0.6302 0.0
C2199 C 0.52474 0.79776 0.63049 0.0
C2200 C 0.3026 0.58398 0.13205 0.0
C2201 C 0.29428 0.59336 0.15823 0.0
C2202 C 0.29188 0.56024 0.12063 0.0
C2203 C 0.27329 0.54396 0.13539 0.0
H2204 H 0.31687 0.59556 0.11984 0.0
H2205 H 0.29792 0.55477 0.09985 0.0
S2206 S 0.24654 0.55791 0.20577 0.0
N2207 N 0.2669 0.5834 0.19906 0.0
N2208 N 0.24799 0.53854 0.17827 0.0
C2209 C 0.26581 0.55238 0.16212 0.0
C2210 C 0.27599 0.577 0.17335 0.0
C2211 C 0.53825 1.02189 0.88424 0.0
C2212 C 0.53246 0.03693 0.90799 0.0
C2213 C 0.56198 1.00866 0.88126 0.0
C2214 C 0.58056 1.01029 0.90188 0.0
H2215 H 0.52361 1.01854 0.86905 0.0
H2216 H 0.56464 0.99513 0.86406 0.0
S2217 S 0.57686 0.0524 0.96453 0.0
N2218 N 0.54873 0.05622 0.95004 0.0
N2219 N 0.59335 0.03213 0.94414 0.0
C2220 C 0.57607 0.02782 0.924 0.0
C2221 C 0.55194 0.04086 0.92719 0.0
C2222 C 0.778 0.46479 0.90662 0.0
C2223 C 0.77589 0.46228 0.87808 0.0
C2224 C 0.78858 0.48803 0.918 0.0
C2225 C 0.7978 0.50945 0.90118 0.0
H2226 H 0.77151 0.44872 0.92032 0.0
H2227 H 0.79045 0.4887 0.94013 0.0
S2228 S 0.79542 0.51317 0.82497 0.0
N2229 N 0.78296 0.48338 0.83307 0.0
N2230 N 0.80257 0.52725 0.85452 0.0
C2231 C 0.79479 0.50761 0.8726 0.0
C2232 C 0.78411 0.48389 0.86101 0.0
C2233 C 1.01707 0.78696 0.35212 0.0
C2234 C 1.02249 0.79353 0.37961 0.0
C2235 C 0.99413 0.77227 0.34542 0.0
C2236 C 0.97535 0.76369 0.36584 0.0
H2237 H 1.03014 0.79401 0.33552 0.0
H2238 H 0.99074 0.76837 0.32391 0.0
S2239 S 0.98198 0.7719 0.44118 0.0
N2240 N 1.00821 0.7873 0.42758 0.0
N2241 N 0.96549 0.76048 0.41492 0.0
C2242 C 0.98118 0.76901 0.39339 0.0
C2243 C 1.00456 0.78365 0.40025 0.0
C2244 C 0.08147 0.16414 0.6873 0.0
C2245 C 0.05414 0.16111 0.68925 0.0
C2246 C 0.0976 0.15604 0.70858 0.0
C2247 C 0.08767 0.14489 0.73386 0.0
H2248 H 0.09064 0.1735 0.66918 0.0
H2249 H 0.11836 0.15977 0.70551 0.0
S2250 S 1.01715 0.13235 0.75012 0.0
N2251 N 1.01775 0.14481 0.71858 0.0
N2252 N 0.0478 0.13117 0.75902 0.0
C2253 C 0.06028 0.141 0.73592 0.0
C2254 C 0.04372 0.14871 0.7137 0.0
C2255 C 0.41575 0.29474 0.50327 0.0
C2256 C 0.39435 0.28125 0.4918 0.0
C2257 C 0.41268 0.31789 0.51898 0.0
C2258 C 0.38802 0.32873 0.52391 0.0
H2259 H 0.4353 0.28803 0.49898 0.0
H2260 H 0.42999 0.32761 0.52681 0.0
S2261 S 0.32527 0.29968 0.50067 0.0
N2262 N 0.34735 0.27939 0.48797 0.0
N2263 N 0.34144 0.32282 0.51778 0.0
C2264 C 0.36622 0.31464 0.5138 0.0
C2265 C 0.36939 0.2909 0.49779 0.0
C2266 C 0.41035 0.52559 0.33367 0.0
C2267 C 0.39516 0.51569 0.35672 0.0
C2268 C 0.41079 0.51236 0.30747 0.0
C2269 C 0.39587 0.48864 0.30282 0.0
H2270 H 0.42159 0.54407 0.33566 0.0
H2271 H 0.4221 0.52139 0.29048 0.0
S2272 S 0.35314 0.45361 0.35548 0.0
N2273 N 0.36529 0.47952 0.37213 0.0
N2274 N 0.3659 0.45583 0.32389 0.0
C2275 C 0.38106 0.47844 0.32567 0.0
C2276 C 0.38078 0.49152 0.35217 0.0
C2277 C 0.07735 0.65211 0.05858 0.0
C2278 C 0.05577 0.63385 0.05676 0.0
C2279 C 0.10036 0.65076 0.04088 0.0
C2280 C 0.10349 0.63109 0.01997 0.0
H2281 H 0.07677 0.66745 0.07425 0.0
H2282 H 0.11598 0.66533 0.04383 0.0
S2283 S 0.0525 0.57923 1.00466 0.0
N2284 N 1.0394 0.59591 0.03067 0.0
N2285 N 0.08146 0.59344 0.99836 0.0
C2286 C 0.08183 0.61304 1.01767 0.0
C2287 C 0.05854 0.6144 0.03561 0.0
C2288 C 0.5371 0.3669 0.479 0.0
C2289 C 0.53613 0.38128 0.50362 0.0
C2290 C 0.55565 0.37373 0.45821 0.0
C2291 C 0.57378 0.39518 0.46138 0.0
H2292 H 0.52165 0.35257 0.47444 0.0
H2293 H 0.55428 0.36351 0.43871 0.0
S2294 S 0.58294 0.43442 0.5251 0.0
N2295 N 0.55746 0.41442 0.53232 0.0
N2296 N 0.59267 0.42706 0.49328 0.0
C2297 C 0.57517 0.40721 0.48737 0.0
C2298 C 0.55624 0.40021 0.50854 0.0
C2299 C 0.14092 1.01708 0.71234 0.0
C2300 C 0.1605 0.02793 0.72895 0.0
C2301 C 0.14705 1.00656 0.68595 0.0
C2302 C 0.17286 1.00701 0.67528 0.0
H2303 H 0.12077 1.01725 0.71952 0.0
H2304 H 0.13153 0.99874 0.67353 0.0
S2305 S 0.23173 0.03031 0.71084 0.0
N2306 N 0.20743 0.03592 0.73294 0.0
N2307 N 0.21815 1.01706 0.68365 0.0
C2308 C 0.19258 1.01685 0.69188 0.0
C2309 C 0.18662 0.027 0.71865 0.0
C2310 C 0.53781 0.42406 0.33586 0.0
C2311 C 0.55414 0.40234 0.33194 0.0
C2312 C 0.52478 0.43466 0.31367 0.0
C2313 C 0.52774 0.42355 0.28724 0.0
H2314 H 0.53414 0.43197 0.35634 0.0
H2315 H 0.51058 0.4498 0.31773 0.0
S2316 S 0.56983 0.36791 0.26629 0.0
N2317 N 0.5735 0.37102 0.29977 0.0
N2318 N 0.55006 0.39163 0.25789 0.0
C2319 C 0.54576 0.40337 0.28283 0.0
C2320 C 0.55861 0.39241 0.30533 0.0
C2321 C 0.2053 0.77737 0.04937 0.0
C2322 C 0.1811 0.7647 0.04462 0.0
C2323 C 0.20873 0.79366 0.07271 0.0
C2324 C 0.18822 0.79759 0.09225 0.0
H2325 H 0.22208 0.77333 0.03607 0.0
H2326 H 0.22791 0.80211 0.07618 0.0
S2327 S 0.11983 0.77257 0.08641 0.0
N2328 N 0.13537 0.76054 0.05906 0.0
N2329 N 0.14201 0.78976 0.10321 0.0
C2330 C 0.16356 0.78632 0.08665 0.0
C2331 C 0.15995 0.77041 0.06269 0.0
C2332 C 0.04596 1.02223 0.39672 0.0
C2333 C 1.03118 1.02255 0.42176 0.0
C2334 C 0.07008 1.00946 0.3947 0.0
C2335 C 0.0804 0.99707 0.41779 0.0
H2336 H 1.0389 0.03187 0.37865 0.0
H2337 H 0.08055 1.00906 0.37496 0.0
S2338 S 0.04863 0.99139 0.48803 0.0
N2339 N 1.02847 1.00822 0.46986 0.0
N2340 N 0.07317 0.98563 0.46649 0.0
C2341 C 0.06561 0.99738 0.44292 0.0
C2342 C 0.04117 1.00965 0.44476 0.0
C2343 C 0.49872 0.2893 0.39538 0.0
C2344 C 0.52105 0.29106 0.3774 0.0
C2345 C 0.47553 0.27584 0.38811 0.0
C2346 C 0.4732 0.26314 0.36245 0.0
H2347 H 0.49876 0.29902 0.41528 0.0
H2348 H 0.45911 0.27577 0.40273 0.0
S2349 S 0.52623 0.25926 0.30847 0.0
N2350 N 0.53946 0.27716 0.33316 0.0
N2351 N 0.49617 0.25171 0.31952 0.0
C2352 C 0.49562 0.26374 0.34459 0.0
C2353 C 0.51935 0.27764 0.35202 0.0
C2354 C 0.57108 1.00684 0.14849 0.0
C2355 C 0.56705 0.98584 0.12967 0.0
C2356 C 0.55613 0.02997 0.14784 0.0
C2357 C 0.53701 0.03278 0.12814 0.0
H2358 H 0.58733 1.00658 0.16195 0.0
H2359 H 0.56107 0.04656 0.16115 0.0
S2360 S 0.51563 0.98108 0.07867 0.0
N2361 N 0.53943 0.96733 0.09474 0.0
N2362 N 0.51267 1.01113 0.0921 0.0
C2363 C 0.53129 1.01086 0.11117 0.0
C2364 C 0.54585 0.98722 0.11247 0.0
C2365 C 1.03178 0.32533 0.67544 0.0
C2366 C 0.04418 0.3392 0.65324 0.0
C2367 C 1.02192 0.29932 0.67121 0.0
C2368 C 1.02251 0.28851 0.64454 0.0
H2369 H 1.0354 0.33148 0.69637 0.0
H2370 H 1.01701 0.28676 0.6889 0.0
S2371 S 1.03766 0.32509 0.57945 0.0
N2372 N 0.04433 0.34674 0.60405 0.0
N2373 N 1.02649 0.29772 0.59535 0.0
C2374 C 1.02756 0.30568 0.62205 0.0
C2375 C 1.03665 0.33223 0.62672 0.0
C2376 C 0.63111 0.99586 0.03035 0.0
C2377 C 0.65433 0.98591 0.03952 0.0
C2378 C 0.63154 1.01672 1.01131 0.0
C2379 C 0.65526 0.02872 1.00136 0.0
H2380 H 0.61263 0.98943 0.03988 0.0
H2381 H 0.61308 1.02494 1.00637 0.0
S2382 S 0.72118 1.00507 1.01421 0.0
N2383 N 0.70136 0.9856 0.03335 0.0
N2384 N 0.70234 1.0256 0.9982 0.0
C2385 C 0.6785 1.0168 1.00795 0.0
C2386 C 0.67798 0.99527 0.02708 0.0
C2387 C 0.27989 0.89209 0.73566 0.0
C2388 C 0.27145 0.90859 0.7574 0.0
C2389 C 0.29083 0.90355 0.7114 0.0
C2390 C 0.2967 0.93113 0.71089 0.0
H2391 H 0.28017 0.87066 0.73826 0.0
H2392 H 0.3007 0.8906 0.69684 0.0
S2393 S 0.26487 0.98207 0.75354 0.0
N2394 N 0.25891 0.95373 0.77023 0.0
N2395 N 0.2806 0.97406 0.72461 0.0
C2396 C 0.28073 0.9471 0.72731 0.0
C2397 C 0.26931 0.93609 0.75202 0.0
C2398 C 0.66216 0.24794 0.25802 0.0
C2399 C 0.64194 0.24577 0.27863 0.0
C2400 C 0.66169 0.26656 0.2365 0.0
C2401 C 0.64122 0.28415 0.23496 0.0
H2402 H 0.67746 0.23359 0.25714 0.0
H2403 H 0.67665 0.26615 0.22022 0.0
S2404 S 0.58831 0.29281 0.28803 0.0
N2405 N 0.60396 0.26679 0.29894 0.0
N2406 N 0.6036 0.30259 0.25913 0.0
C2407 C 0.6228 0.28462 0.25727 0.0
C2408 C 0.62314 0.26541 0.27908 0.0
C2409 C 0.27954 0.36723 0.53658 0.0
C2410 C 0.27376 0.38957 0.52054 0.0
C2411 C 0.29074 0.37022 0.56227 0.0
C2412 C 0.29709 0.39572 0.57234 0.0
H2413 H 0.27715 0.34726 0.52845 0.0
H2414 H 0.29798 0.35263 0.572 0.0
S2415 S 0.2788 0.46022 0.5428 0.0
N2416 N 0.27047 0.43784 0.51954 0.0
N2417 N 0.29012 0.44318 0.56859 0.0
C2418 C 0.28691 0.41783 0.55909 0.0
C2419 C 0.27643 0.41495 0.5325 0.0
C2420 C 0.4097 0.85149 0.75285 0.0
C2421 C 0.43145 0.86749 0.76042 0.0
C2422 C 0.40536 0.82514 0.76319 0.0
C2423 C 0.42253 0.81396 0.78165 0.0
H2424 H 0.39649 0.85905 0.73809 0.0
H2425 H 0.38897 0.8133 0.75613 0.0
S2426 S 0.47981 0.84946 0.81136 0.0
N2427 N 0.46849 0.8711 0.78963 0.0
N2428 N 0.46039 0.82279 0.8095 0.0
C2429 C 0.44343 0.83058 0.79045 0.0
C2430 C 0.44787 0.85696 0.77976 0.0
C2431 C 0.72763 0.1539 0.06566 0.0
C2432 C 0.72917 0.15419 0.03663 0.0
C2433 C 0.7498 0.1512 0.0813 0.0
C2434 C 0.77472 0.14866 0.06884 0.0
H2435 H 0.70925 0.15726 0.07652 0.0
H2436 H 0.74764 0.15298 0.10349 0.0
S2437 S 0.78939 0.14493 0.99363 0.0
N2438 N 0.75765 0.1491 0.99601 0.0
N2439 N 0.79929 0.14389 0.0256 0.0
C2440 C 0.77642 0.14679 0.03991 0.0
C2441 C 0.75367 0.14953 0.02379 0.0
C2442 C 0.72371 0.10054 0.27816 0.0
C2443 C 0.70424 0.1193 0.28448 0.0
C2444 C 0.74942 0.10841 0.26874 0.0
C2445 C 0.75733 0.13554 0.26574 0.0
H2446 H 0.7189 0.07942 0.27987 0.0
H2447 H 0.76294 0.09305 0.26308 0.0
S2448 S 0.71508 0.19277 0.28344 0.0
N2449 N 0.69578 0.16629 0.28897 0.0
N2450 N 0.7434 0.18117 0.27295 0.0
C2451 C 0.73828 0.1544 0.27347 0.0
C2452 C 0.7121 0.14634 0.2823 0.0
C2453 C 0.40931 0.47109 0.50351 0.0
C2454 C 0.431 0.46496 0.51957 0.0
C2455 C 0.40863 0.49484 0.48647 0.0
C2456 C 0.42947 0.5144 0.48435 0.0
H2457 H 0.39303 0.45691 0.50315 0.0
H2458 H 0.39171 0.4975 0.4743 0.0
S2459 S 0.49013 0.5097 0.5235 0.0
N2460 N 0.47338 0.4823 0.53248 0.0
N2461 N 0.47191 0.52551 0.50208 0.0
C2462 C 0.45067 0.50879 0.50114 0.0
C2463 C 0.45147 0.48476 0.51806 0.0
C2464 C 0.33664 0.8143 0.9104 0.0
C2465 C 0.33711 0.78983 0.89545 0.0
C2466 C 0.31411 0.83006 0.91376 0.0
C2467 C 0.28995 0.82269 0.90262 0.0
H2468 H 0.35406 0.82138 0.92029 0.0
H2469 H 0.31568 0.84835 0.92553 0.0
S2470 S 0.27896 0.7608 0.86167 0.0
N2471 N 0.30997 0.75942 0.86923 0.0
N2472 N 0.26815 0.78871 0.87541 0.0
C2473 C 0.28993 0.79855 0.8872 0.0
C2474 C 0.31311 0.78237 0.88367 0.0
C2475 C 0.75793 0.07715 0.12755 0.0
C2476 C 0.76778 0.05121 0.129 0.0
C2477 C 0.76899 0.0989 0.14201 0.0
C2478 C 0.79104 0.09611 0.15799 0.0
H2479 H 0.74098 0.08063 0.11563 0.0
H2480 H 0.76033 0.11821 0.1404 0.0
S2481 S 0.82503 0.03278 0.16833 0.0
N2482 N 0.80099 1.02417 0.14817 0.0
N2483 N 0.82258 0.06512 0.17402 0.0
C2484 C 0.80148 0.07043 0.1592 0.0
C2485 C 0.78966 0.04803 0.14515 0.0
C2486 C 0.81606 0.75104 0.64333 0.0
C2487 C 0.80951 0.72688 0.65671 0.0
C2488 C 0.8038 0.77447 0.65098 0.0
C2489 C 0.7835 0.77428 0.67124 0.0
H2490 H 0.83028 0.75181 0.62632 0.0
H2491 H 0.80842 0.79235 0.63899 0.0
S2492 S 0.75862 0.71662 0.71252 0.0
N2493 N 0.78197 0.70458 0.69233 0.0
N2494 N 0.75805 0.7487 0.70533 0.0
C2495 C 0.77767 0.7508 0.68587 0.0
C2496 C 0.79057 0.72694 0.67859 0.0
C2497 C 0.29487 0.98195 0.91499 0.0
C2498 C 0.30533 1.00163 0.89675 0.0
C2499 C 0.28852 0.95633 0.90593 0.0
C2500 C 0.29197 0.94913 0.87813 0.0
H2501 H 0.29196 0.98614 0.93674 0.0
H2502 H 0.28049 0.94202 0.92092 0.0
S2503 S 0.31693 0.99332 0.82129 0.0
N2504 N 0.31823 1.01225 0.84909 0.0
N2505 N 0.30515 0.9639 0.83191 0.0
C2506 C 0.30188 0.96854 0.85936 0.0
C2507 C 0.30865 0.99487 0.86866 0.0
C2508 C 0.40984 0.96821 1.0009 0.0
C2509 C 0.4313 0.96369 1.01789 0.0
C2510 C 0.40813 0.9918 0.98385 0.0
C2511 C 0.42761 1.01279 0.98267 0.0
H2512 H 0.39455 0.95295 0.99995 0.0
H2513 H 0.3915 0.99326 0.97099 0.0
S2514 S 0.48673 1.01279 0.02471 0.0
N2515 N 0.47171 0.98417 0.03284 0.0
N2516 N 0.46836 0.0271 1.00235 0.0
C2517 C 0.44852 1.00875 1.00034 0.0
C2518 C 0.45038 0.98489 1.01727 0.0
C2519 C 0.73968 0.64608 0.55152 0.0
C2520 C 0.7385 0.66462 0.52985 0.0
C2521 C 0.76338 0.64148 0.56429 0.0
C2522 C 0.78657 0.65534 0.5558 0.0
H2523 H 0.72199 0.63618 0.55957 0.0
H2524 H 0.76309 0.62881 0.58237 0.0
S2525 S 0.79401 0.70427 0.49857 0.0
N2526 N 0.7628 0.69544 0.4994 0.0
N2527 N 0.80698 0.68681 0.52307 0.0
C2528 C 0.78576 0.67251 0.53296 0.0
C2529 C 0.76181 0.67721 0.52013 0.0
C2530 C 0.28732 0.91221 0.05825 0.0
C2531 C 0.29648 0.89031 0.07273 0.0
C2532 C 0.27676 0.90853 0.03234 0.0
C2533 C 0.27224 0.88275 0.02181 0.0
H2534 H 0.29319 0.9323 0.06413 0.0
H2535 H 0.27335 0.92596 0.01999 0.0
S2536 S 0.28118 0.81919 0.05891 0.0
N2537 N 0.29293 0.84247 0.07946 0.0
N2538 N 0.27023 0.83514 0.03219 0.0
C2539 C 0.27585 0.86084 0.03928 0.0
C2540 C 0.28767 0.86477 0.06509 0.0
C2541 C 0.67814 0.52666 0.5272 0.0
C2542 C 0.65657 0.54302 0.52668 0.0
C2543 C 0.67598 0.50152 0.53963 0.0
C2544 C 0.6521 0.49172 0.55129 0.0
H2545 H 0.69677 0.53331 0.51811 0.0
H2546 H 0.69338 0.49011 0.54125 0.0
S2547 S 0.58968 0.52632 0.55527 0.0
N2548 N 0.61039 0.54755 0.53958 0.0
N2549 N 0.60661 0.49973 0.56131 0.0
C2550 C 0.63029 0.50742 0.55026 0.0
C2551 C 0.63251 0.53334 0.53857 0.0
C2552 C 0.78327 0.25849 0.1932 0.0
C2553 C 0.76129 0.26063 0.17727 0.0
C2554 C 0.80003 0.23725 0.18873 0.0
C2555 C 0.7952 0.21846 0.16785 0.0
H2556 H 0.7886 0.27421 0.20731 0.0
H2557 H 0.81782 0.23673 0.19994 0.0
S2558 S 0.73585 0.21103 0.12763 0.0
N2559 N 0.7322 0.23888 0.14527 0.0
N2560 N 0.76402 0.19947 0.13658 0.0
C2561 C 0.77153 0.21848 0.1548 0.0
C2562 C 0.75438 0.23955 0.15968 0.0
C2563 C 0.30794 0.32634 0.37681 0.0
C2564 C 0.28886 0.32299 0.3987 0.0
C2565 C 0.32968 0.30919 0.37306 0.0
C2566 C 0.33358 0.28726 0.3907 0.0
H2567 H 0.3068 0.34319 0.36303 0.0
H2568 H 0.34421 0.31402 0.35699 0.0
S2569 S 0.28865 0.2677 0.44975 0.0
N2570 N 0.27512 0.29415 0.43694 0.0
N2571 N 0.31536 0.26322 0.43063 0.0
C2572 C 0.31418 0.28332 0.41203 0.0
C2573 C 0.29215 0.30058 0.41576 0.0
C2574 C 0.2608 0.45087 0.2482 0.0
C2575 C 0.25986 0.42353 0.25455 0.0
C2576 C 0.27687 0.46028 0.22611 0.0
C2577 C 0.29312 0.4424 0.21205 0.0
H2578 H 0.25241 0.46514 0.26244 0.0
H2579 H 0.28114 0.48154 0.22474 0.0
S2580 S 0.28659 0.36926 0.21156 0.0
N2581 N 0.26855 0.37867 0.23847 0.0
N2582 N 0.29715 0.39705 0.19604 0.0
C2583 C 0.28525 0.41546 0.21223 0.0
C2584 C 0.27003 0.40558 0.23516 0.0
C2585 C 0.66009 0.75784 0.76184 0.0
C2586 C 0.63798 0.74197 0.76975 0.0
C2587 C 0.66031 0.77462 0.73855 0.0
C2588 C 0.63865 0.77569 0.72165 0.0
H2589 H 0.67768 0.75663 0.7733 0.0
H2590 H 0.67771 0.78667 0.73367 0.0
S2591 S 0.57628 0.73667 0.7328 0.0
N2592 N 0.59406 0.728 0.75871 0.0
N2593 N 0.59447 0.75848 0.71463 0.0
C2594 C 0.61642 0.75965 0.72938 0.0
C2595 C 0.61606 0.74317 0.75349 0.0
C2596 C 0.4447 0.3419 0.24585 0.0
C2597 C 0.42624 0.3618 0.25024 0.0
C2598 C 0.44001 0.31556 0.25509 0.0
C2599 C 0.4166 0.30748 0.26921 0.0
H2600 H 0.46338 0.34678 0.23579 0.0
H2601 H 0.45547 0.30155 0.25203 0.0
S2602 S 0.36073 0.35084 0.28416 0.0
N2603 N 0.38253 0.3708 0.26813 0.0
N2604 N 0.37402 0.32134 0.28566 0.0
C2605 C 0.39735 0.32668 0.27252 0.0
C2606 C 0.40212 0.35373 0.2631 0.0
C2607 C 0.71039 0.64184 0.77338 0.0
C2608 C 0.7055 0.61604 0.78415 0.0
C2609 C 0.73547 0.65065 0.76369 0.0
C2610 C 0.75753 0.63426 0.76376 0.0
H2611 H 0.69463 0.65557 0.77238 0.0
H2612 H 0.73729 0.67075 0.75558 0.0
S2613 S 0.75599 0.56493 0.79066 0.0
N2614 N 0.72561 0.57418 0.79514 0.0
N2615 N 0.77227 0.59063 0.77643 0.0
C2616 C 0.75305 0.60841 0.77474 0.0
C2617 C 0.72736 0.59942 0.78497 0.0
C2618 C 0.78567 0.56105 0.62002 0.0
C2619 C 0.76822 0.54376 0.63516 0.0
C2620 C 0.79718 0.5842 0.63194 0.0
C2621 C 0.79079 0.59204 0.65921 0.0
H2622 H 0.79026 0.55682 0.59856 0.0
H2623 H 0.81044 0.59661 0.61932 0.0
S2624 S 0.7457 0.55435 0.70776 0.0
N2625 N 0.74553 0.53627 0.67932 0.0
N2626 N 0.76576 0.5801 0.70108 0.0
C2627 C 0.77335 0.57493 0.67458 0.0
C2628 C 0.76244 0.55084 0.66276 0.0
C2629 C 0.2983 0.50799 0.37461 0.0
C2630 C 0.29951 0.51173 0.40319 0.0
C2631 C 0.28766 0.48444 0.36387 0.0
C2632 C 0.27803 0.46362 0.38127 0.0
H2633 H 0.30667 0.52275 0.36032 0.0
H2634 H 0.28755 0.48239 0.34168 0.0
S2635 S 0.27397 0.46506 0.45763 0.0
N2636 N 0.28744 0.49416 0.44872 0.0
N2637 N 0.26914 0.44919 0.42847 0.0
C2638 C 0.27834 0.46757 0.40984 0.0
C2639 C 0.28845 0.49188 0.4208 0.0
C2640 C 0.1889 1.00329 0.42516 0.0
C2641 C 0.17727 0.993 0.40173 0.0
C2642 C 0.18789 0.03031 0.4309 0.0
C2643 C 0.17407 0.04702 0.41409 0.0
H2644 H 0.198 0.99026 0.4395 0.0
H2645 H 0.19761 0.03789 0.4487 0.0
S2646 S 0.14279 0.02969 0.34893 0.0
N2647 N 0.15436 1.00138 0.3599 0.0
N2648 N 0.1508 0.05248 0.37196 0.0
C2649 C 0.16366 0.03725 0.38979 0.0
C2650 C 0.1656 1.00992 0.38333 0.0
C2651 C 0.0684 0.43408 0.65407 0.0
C2652 C 0.08682 0.43259 0.67452 0.0
C2653 C 0.0441 0.44444 0.66053 0.0
C2654 C 1.03822 0.45349 0.68733 0.0
H2655 H 0.071 0.42344 0.63479 0.0
H2656 H 1.0289 0.44192 0.64579 0.0
S2657 S 0.08401 0.46466 0.74319 0.0
N2658 N 0.10105 0.44949 0.71866 0.0
N2659 N 0.05466 0.46801 0.73119 0.0
C2660 C 0.05813 0.45705 0.70579 0.0
C2661 C 0.083 0.44714 0.699 0.0
C2662 C 0.68626 0.31002 0.89441 0.0
C2663 C 0.67222 0.33124 0.90584 0.0
C2664 C 0.68813 0.2864 0.90908 0.0
C2665 C 0.67463 0.28278 0.93445 0.0
H2666 H 0.69894 0.31292 0.87628 0.0
H2667 H 0.70135 0.27153 0.90129 0.0
S2668 S 0.62576 0.327 0.96609 0.0
N2669 N 0.63785 0.34362 0.93893 0.0
N2670 N 0.64071 0.29834 0.96606 0.0
C2671 C 0.65625 0.30131 0.94296 0.0
C2672 C 0.65475 0.32568 0.92831 0.0
C2673 C 0.82991 0.98452 0.09491 0.0
C2674 C 0.81251 0.96285 0.0919 0.0
C2675 C 0.85225 0.98122 0.10976 0.0
C2676 C 0.85678 0.95632 0.12185 0.0
H2677 H 0.82388 1.00461 0.09085 0.0
H2678 H 0.86307 0.99899 0.11585 0.0
S2679 S 0.82396 0.89189 0.10563 0.0
N2680 N 0.80663 0.91472 0.09092 0.0
N2681 N 0.8485 0.90831 0.11955 0.0
C2682 C 0.84357 0.93366 0.11189 0.0
C2683 C 0.82118 0.93707 0.09633 0.0
C2684 C 0.11857 0.23268 0.89911 0.0
C2685 C 0.09794 0.22202 0.88405 0.0
C2686 C 0.1135 0.25254 0.91843 0.0
C2687 C 0.08875 0.26341 0.9193 0.0
H2688 H 0.1386 0.22829 0.89374 0.0
H2689 H 0.12991 0.26382 0.92635 0.0
S2690 S 1.02759 0.22977 0.89996 0.0
N2691 N 0.05087 0.21327 0.8838 0.0
N2692 N 0.04257 0.25287 0.91842 0.0
C2693 C 0.06773 0.24696 0.91248 0.0
C2694 C 0.07224 0.22618 0.89359 0.0
C2695 C 0.81476 0.40939 0.18041 0.0
C2696 C 0.83287 0.38922 0.1819 0.0
C2697 C 0.78833 0.40227 0.18199 0.0
C2698 C 0.7804 0.37554 0.18702 0.0
H2699 H 0.82048 0.4287 0.17175 0.0
H2700 H 0.77454 0.41679 0.17575 0.0
S2701 S 0.82146 0.32217 0.21186 0.0
N2702 N 0.84202 0.3471 0.20359 0.0
N2703 N 0.79214 0.33277 0.20566 0.0
C2704 C 0.79839 0.35794 0.19688 0.0
C2705 C 0.82507 0.36577 0.1961 0.0
C2706 C 0.68018 0.99418 0.3253 0.0
C2707 C 0.65609 0.99757 0.3392 0.0
C2708 C 0.69686 0.9742 0.33268 0.0
C2709 C 0.6904 0.95573 0.35402 0.0
H2710 H 0.68681 1.00755 0.30881 0.0
H2711 H 0.71531 0.97352 0.32126 0.0
S2712 S 0.62931 0.95508 0.39703 0.0
N2713 N 0.62639 0.98051 0.37582 0.0
N2714 N 0.65771 0.94207 0.38897 0.0
C2715 C 0.6662 0.95845 0.36806 0.0
C2716 C 0.6491 0.9794 0.36077 0.0
C2717 C 0.04907 0.86796 0.58257 0.0
C2718 C 1.03104 0.87627 0.60271 0.0
C2719 C 0.07513 0.86692 0.58864 0.0
C2720 C 0.08339 0.87469 0.61472 0.0
H2721 H 0.04329 0.86384 0.56176 0.0
H2722 H 0.08917 0.86311 0.57204 0.0
S2723 S 0.04293 0.89405 0.67527 0.0
N2724 N 1.0222 0.88875 0.65054 0.0
N2725 N 0.07188 0.88746 0.6616 0.0
C2726 C 0.06524 0.88002 0.63582 0.0
C2727 C 1.03867 0.88085 0.62979 0.0
C2728 C 0.41667 0.12169 0.04389 0.0
C2729 C 0.43538 0.14186 0.05107 0.0
C2730 C 0.41034 0.11611 1.01631 0.0
C2731 C 0.42192 0.13072 0.99418 0.0
H2732 H 0.40801 0.10856 0.05963 0.0
H2733 H 0.39778 0.09891 1.01229 0.0
S2734 S 0.46768 0.18948 1.00145 0.0
N2735 N 0.46246 0.17879 0.03337 0.0
N2736 N 0.44979 0.16967 0.98208 0.0
C2737 C 0.43834 0.15297 1.0013 0.0
C2738 C 0.44521 0.15821 0.02941 0.0
C2739 C 0.96789 0.68226 0.21949 0.0
C2740 C 0.95308 0.6731 0.19742 0.0
C2741 C 0.95598 0.69157 0.24377 0.0
C2742 C 0.92879 0.69153 0.24716 0.0
H2743 H 0.98883 0.68487 0.21685 0.0
H2744 H 0.9682 0.69942 0.25978 0.0
S2745 S 0.88127 0.66601 0.19726 0.0
N2746 N 0.90991 0.66237 0.18138 0.0
N2747 N 0.88733 0.67851 0.22794 0.0
C2748 C 0.91374 0.68006 0.22639 0.0
C2749 C 0.92594 0.67104 0.20131 0.0
C2750 C 0.41641 0.17458 0.50864 0.0
C2751 C 0.39505 0.16851 0.49239 0.0
C2752 C 0.41605 0.16603 0.53585 0.0
C2753 C 0.39435 0.1515 0.54669 0.0
H2754 H 0.43155 0.1888 0.50172 0.0
H2755 H 0.43065 0.17422 0.54927 0.0
S2756 S 0.34046 0.12068 0.50862 0.0
N2757 N 0.35664 0.13996 0.48587 0.0
N2758 N 0.3562 0.12376 0.53752 0.0
C2759 C 0.376 0.14072 0.52909 0.0
C2760 C 0.37626 0.14941 0.5015 0.0
C2761 C 0.88555 0.62773 0.81016 0.0
C2762 C 0.86239 0.64133 0.80658 0.0
C2763 C 0.89343 0.62079 0.8364 0.0
C2764 C 0.87824 0.6271 0.8599 0.0
H2765 H 0.89667 0.62066 0.79241 0.0
H2766 H 0.9097 0.60774 0.83801 0.0
S2767 S 0.81936 0.66779 0.86206 0.0
N2768 N 0.82702 0.66503 0.82884 0.0
N2769 N 0.84155 0.65149 0.87843 0.0
C2770 C 0.85683 0.64346 0.8568 0.0
C2771 C 0.84892 0.65074 0.83 0.0
C2772 C 0.45502 0.17847 0.21343 0.0
C2773 C 0.43832 0.17723 0.19126 0.0
C2774 C 0.44597 0.18632 0.23955 0.0
C2775 C 0.41979 0.19249 0.24435 0.0
H2776 H 0.47568 0.17582 0.20994 0.0
H2777 H 0.45965 0.18824 0.25593 0.0
S2778 S 0.36759 0.18871 0.19405 0.0
N2779 N 0.39417 0.1808 0.1761 0.0
N2780 N 0.37663 0.19385 0.22597 0.0
C2781 C 0.40239 0.18899 0.22305 0.0
C2782 C 0.4118 0.18171 0.19622 0.0
C2783 C 0.86715 0.65137 0.50344 0.0
C2784 C 0.88959 0.6642 0.49185 0.0
C2785 C 0.86591 0.6451 0.53122 0.0
C2786 C 0.88721 0.65111 0.54738 0.0
H2787 H 0.84945 0.64941 0.49209 0.0
H2788 H 0.84745 0.63838 0.5405 0.0
S2789 S 0.95342 0.67386 0.5239 0.0
N2790 N 0.9359 0.67461 0.49614 0.0
N2791 N 0.93343 0.66252 0.54888 0.0
C2792 C 0.91132 0.65831 0.53481 0.0
C2793 C 0.91259 0.66491 0.50652 0.0
C2794 C 0.38298 0.12751 0.80728 0.0
C2795 C 0.36026 0.14199 0.80405 0.0
C2796 C 0.39094 0.12017 0.83339 0.0
C2797 C 0.37621 0.12674 0.85714 0.0
H2798 H 0.39364 0.12008 0.78936 0.0
H2799 H 0.40688 0.10666 0.83473 0.0
S2800 S 0.31792 0.16834 0.86018 0.0
N2801 N 0.32544 0.16601 0.8269 0.0
N2802 N 0.33995 0.15147 0.87618 0.0
C2803 C 0.35504 0.14351 0.85436 0.0
C2804 C 0.34712 0.15134 0.82771 0.0
C2805 C 0.95091 0.65277 0.03137 0.0
C2806 C 0.93962 0.63757 0.05319 0.0
C2807 C 0.94352 0.64851 1.00392 0.0
C2808 C 0.9248 0.62841 0.99664 0.0
H2809 H 0.96703 0.66656 0.03509 0.0
H2810 H 0.95423 0.65983 0.988 0.0
S2811 S 0.8852 0.58719 0.04682 0.0
N2812 N 0.90495 0.60508 0.06609 0.0
N2813 N 0.89234 0.59634 1.01471 0.0
C2814 C 0.91147 0.61511 1.01859 0.0
C2815 C 0.91858 0.61982 0.04665 0.0
C2816 C 0.0461 0.39755 0.06664 0.0
C2817 C 1.03102 0.37737 0.07977 0.0
C2818 C 0.07228 0.39998 0.07084 0.0
C2819 C 0.08398 0.38321 0.08958 0.0
H2820 H 1.03754 0.41309 0.05496 0.0
H2821 H 0.08276 0.41656 0.0608 0.0
S2822 S 0.05458 0.32254 0.12285 0.0
N2823 N 1.03063 0.3361 0.10667 0.0
N2824 N 0.08039 0.34227 0.1165 0.0
C2825 C 0.07002 0.36097 0.10029 0.0
C2826 C 0.04326 0.35773 0.09499 0.0
C2827 C 0.56603 0.43136 0.15284 0.0
C2828 C 0.58455 0.4315 0.1733 0.0
C2829 C 0.54129 0.44082 0.15892 0.0
C2830 C 0.53511 0.4507 0.18529 0.0
H2831 H 0.56909 0.42024 0.13393 0.0
H2832 H 0.52617 0.43729 0.14426 0.0
S2833 S 0.5799 0.46471 0.24142 0.0
N2834 N 0.59781 0.45018 0.21716 0.0
N2835 N 0.55058 0.46666 0.22899 0.0
C2836 C 0.55474 0.45555 0.20376 0.0
C2837 C 0.58005 0.44667 0.19733 0.0
C2838 C 0.68554 0.80997 0.38332 0.0
C2839 C 0.67099 0.83052 0.39532 0.0
C2840 C 0.68743 0.78604 0.39749 0.0
C2841 C 0.67281 0.78153 0.42209 0.0
H2842 H 0.69947 0.81409 0.36646 0.0
H2843 H 0.7019 0.77209 0.39046 0.0
S2844 S 0.6196 0.82257 0.45028 0.0
N2845 N 0.63314 0.8404 0.42467 0.0
N2846 N 0.63561 0.79456 0.45089 0.0
C2847 C 0.65272 0.79872 0.42922 0.0
C2848 C 0.65134 0.82332 0.41505 0.0
C2849 C 0.31952 0.93228 0.5983 0.0
C2850 C 0.3116 0.95791 0.59143 0.0
C2851 C 0.342 0.92951 0.61307 0.0
C2852 C 0.35652 0.95243 0.62026 0.0
H2853 H 0.30579 0.91545 0.59777 0.0
H2854 H 0.34487 0.91058 0.62308 0.0
S2855 S 0.35241 1.01965 0.58975 0.0
N2856 N 0.32573 1.00335 0.58044 0.0
N2857 N 0.36901 0.99809 0.60721 0.0
C2858 C 0.35321 0.97599 0.60531 0.0
C2859 C 0.33011 0.97882 0.5908 0.0
C2860 C 0.68323 0.51184 0.3959 0.0
C2861 C 0.6699 0.4926 0.41219 0.0
C2862 C 0.68384 0.53829 0.40432 0.0
C2863 C 0.67045 0.54603 0.42874 0.0
H2864 H 0.69208 0.50674 0.37609 0.0
H2865 H 0.69379 0.55283 0.39085 0.0
S2866 S 0.63454 0.50174 0.47918 0.0
N2867 N 0.64679 0.48179 0.45573 0.0
N2868 N 0.64401 0.53195 0.46896 0.0
C2869 C 0.65794 0.52658 0.44552 0.0
C2870 C 0.65884 0.49963 0.43795 0.0
C2871 C 0.29968 0.8741 0.19416 0.0
C2872 C 0.28098 0.88645 0.17885 0.0
C2873 C 0.32512 0.88467 0.19369 0.0
C2874 C 0.33235 0.905 0.17461 0.0
H2875 H 0.29512 0.85543 0.20476 0.0
H2876 H 0.33991 0.87283 0.20266 0.0
S2877 S 0.28804 0.95083 0.14182 0.0
N2878 N 0.26903 0.92608 0.15404 0.0
N2879 N 0.31771 0.94431 0.15123 0.0
C2880 C 0.31282 0.9214 0.16572 0.0
C2881 C 0.28674 0.9115 0.167 0.0
C2882 C 0.96879 1.01265 0.59229 0.0
C2883 C 0.95766 0.02721 0.61424 0.0
C2884 C 0.96415 0.98476 0.58941 0.0
C2885 C 0.94754 0.96929 0.60782 0.0
H2886 H 0.9817 1.02279 0.57732 0.0
H2887 H 0.97447 0.97502 0.57261 0.0
S2888 S 0.91208 0.99729 0.6684 0.0
N2889 N 0.92806 1.02344 0.65466 0.0
N2890 N 0.91937 0.97157 0.64865 0.0
C2891 C 0.93545 0.98363 0.62933 0.0
C2892 C 0.94045 1.0122 0.63261 0.0
C2893 C 1.00464 0.68992 0.36047 0.0
C2894 C 0.98112 0.67346 0.35694 0.0
C2895 C 1.03241 0.68252 0.35545 0.0
C2896 C 0.04302 0.65721 0.3456 0.0
H2897 H 1.00162 0.71042 0.36639 0.0
H2898 H 0.04663 0.6984 0.35901 0.0
S2899 S 1.00095 0.63035 0.33989 0.0
N2900 N 0.96976 0.62664 0.33831 0.0
N2901 N 1.02454 0.61192 0.32919 0.0
C2902 C 1.01908 0.6374 0.34066 0.0
C2903 C 0.98993 0.64521 0.3457 0.0
C2904 C 0.41034 0.75862 0.11915 0.0
C2905 C 0.39301 0.74845 0.14124 0.0
C2906 C 0.41381 0.7865 0.11064 0.0
C2907 C 0.4002 0.80796 0.12313 0.0
H2908 H 0.42121 0.74436 0.10704 0.0
H2909 H 0.42658 0.79096 0.09292 0.0
S2910 S 0.35311 0.79556 0.18309 0.0
N2911 N 0.36291 0.76514 0.17616 0.0
N2912 N 0.3686 0.81568 0.1606 0.0
C2913 C 0.38325 0.79841 0.14576 0.0
C2914 C 0.37998 0.76987 0.15465 0.0
C2915 C 0.23212 0.08203 0.90088 0.0
C2916 C 0.25384 0.09681 0.88888 0.0
C2917 C 0.20526 0.08521 0.8932 0.0
C2918 C 0.19667 0.10419 0.87346 0.0
H2919 H 0.23591 0.06673 0.91579 0.0
H2920 H 0.19079 0.07163 0.90266 0.0
S2921 S 0.24459 0.15053 0.83694 0.0
N2922 N 0.26341 0.13258 0.85601 0.0
N2923 N 0.21442 0.13938 0.84344 0.0
C2924 C 0.21812 0.11998 0.86219 0.0
C2925 C 0.24571 0.11613 0.86932 0.0
C2926 C 0.94862 0.82742 0.13602 0.0
C2927 C 0.95861 0.80697 0.15307 0.0
C2928 C 0.94377 0.85471 0.14553 0.0
C2929 C 0.94881 0.86418 0.17283 0.0
H2930 H 0.94431 0.82239 0.11498 0.0
H2931 H 0.93685 0.86878 0.13081 0.0
S2932 S 0.97911 0.82055 0.22442 0.0
N2933 N 0.97392 0.79995 0.19871 0.0
N2934 N 0.96884 0.84964 0.21438 0.0
C2935 C 0.96 0.84398 0.18906 0.0
C2936 C 0.9636 0.8163 0.18001 0.0
C2937 C 0.29663 0.71709 0.92168 0.0
C2938 C 0.31243 0.69768 0.90793 0.0
C2939 C 0.26984 0.71285 0.93174 0.0
C2940 C 0.25478 0.68834 0.93 0.0
H2941 H 0.30556 0.73647 0.92575 0.0
H2942 H 0.26092 0.72955 0.94207 0.0
S2943 S 0.2848 0.62858 0.89697 0.0
N2944 N 0.3089 0.65116 0.89397 0.0
N2945 N 0.25989 0.64337 0.91231 0.0
C2946 C 0.26992 0.66838 0.91592 0.0
C2947 C 0.29773 0.67283 0.90541 0.0
C2948 C 0.3916 0.04484 0.72352 0.0
C2949 C 0.40109 0.0293 0.7011 0.0
C2950 C 0.38354 0.07174 0.72086 0.0
C2951 C 0.38396 0.08589 0.69545 0.0
H2952 H 0.38886 0.03547 0.74354 0.0
H2953 H 0.37572 0.08126 0.73921 0.0
S2954 S 0.40621 0.05533 0.62912 0.0
N2955 N 0.40983 0.0311 0.65164 0.0
N2956 N 0.39515 0.08108 0.64676 0.0
C2957 C 0.39407 0.07102 0.6727 0.0
C2958 C 0.4023 0.04323 0.67544 0.0
C2959 C 0.07401 0.15478 0.43203 0.0
C2960 C 0.09468 0.13687 0.43473 0.0
C2961 C 0.04687 0.14585 0.43133 0.0
C2962 C 1.03798 0.11851 0.43437 0.0
H2963 H 0.07877 0.1758 0.42919 0.0
H2964 H 1.03257 0.16077 0.42799 0.0
S2965 S 0.08333 0.0632 0.4418 0.0
N2966 N 0.10279 0.08974 0.43908 0.0
N2967 N 0.05356 0.07427 0.44065 0.0
C2968 C 0.05833 0.10086 0.43794 0.0
C2969 C 0.08577 0.10963 0.43731 0.0
C2970 C 0.68732 0.91523 1.00769 0.0
C2971 C 0.67164 0.90171 0.028 0.0
C2972 C 0.68383 0.91135 0.97885 0.0
C2973 C 0.66411 0.89398 0.96789 0.0
H2974 H 0.70208 0.92957 1.01404 0.0
H2975 H 0.69637 0.9232 0.96492 0.0
S2976 S 0.61764 0.85286 1.01135 0.0
N2977 N 0.63554 0.86888 0.03393 0.0
N2978 N 0.62915 0.8627 0.98076 0.0
C2979 C 0.64867 0.87991 0.98785 0.0
C2980 C 0.65236 0.88349 1.01727 0.0
C2981 C 0.13405 0.33551 0.76573 0.0
C2982 C 0.14694 0.35717 0.75151 0.0
C2983 C 0.12891 0.33501 0.79479 0.0
C2984 C 0.13571 0.35644 0.81245 0.0
H2985 H 0.12673 0.31878 0.75401 0.0
H2986 H 0.11857 0.3176 0.80337 0.0
S2987 S 0.16831 0.41959 0.78673 0.0
N2988 N 0.16562 0.4016 0.75838 0.0
N2989 N 0.15592 0.40095 0.81237 0.0
C2990 C 0.14884 0.37841 0.79873 0.0
C2991 C 0.15433 0.37877 0.76878 0.0
C2992 C 0.68401 0.89031 0.53809 0.0
C2993 C 0.70112 0.87472 0.52122 0.0
C2994 C 0.6824 0.88861 0.56769 0.0
C2995 C 0.69886 0.87227 0.58258 0.0
H2996 H 0.67163 0.90425 0.52832 0.0
H2997 H 0.66893 0.90112 0.57893 0.0
S2998 S 0.74598 0.82602 0.54896 0.0
N2999 N 0.73191 0.83951 0.52268 0.0
N3000 N 0.73366 0.84063 0.57666 0.0
C3001 C 0.71627 0.85699 0.56572 0.0
C3002 C 0.71611 0.85698 0.5358 0.0
C3003 C 0.20112 0.42151 0.22841 0.0
C3004 C 0.20486 0.39481 0.23643 0.0
C3005 C 0.20533 0.43044 0.201 0.0
C3006 C 0.21263 0.41326 0.17938 0.0
H3007 H 0.19603 0.43629 0.24379 0.0
H3008 H 0.20307 0.45129 0.19673 0.0
S3009 S 0.22321 0.34081 0.18778 0.0
N3010 N 0.21559 0.35079 0.21944 0.0
N3011 N 0.22236 0.36744 0.1678 0.0
C3012 C 0.21544 0.38618 0.18658 0.0
C3013 C 0.21182 0.37706 0.21495 0.0
C3014 C 0.6539 0.87788 0.79584 0.0
C3015 C 0.63489 0.86056 0.80927 0.0
C3016 C 0.65967 0.87683 0.76645 0.0
C3017 C 0.64658 0.85857 0.7488 0.0
H3018 H 0.66374 0.89301 0.80788 0.0
H3019 H 0.67352 0.89131 0.75742 0.0
S3020 S 0.59574 0.8083 0.77317 0.0
N3021 N 0.60458 0.82339 0.80148 0.0
N3022 N 0.61365 0.8228 0.74839 0.0
C3023 C 0.62813 0.84102 0.76242 0.0
C3024 C 0.62283 0.84162 0.79177 0.0
C3025 C 0.21025 0.39927 0.56942 0.0
C3026 C 0.19168 0.38273 0.58423 0.0
C3027 C 0.21301 0.39941 0.54007 0.0
C3028 C 0.19955 0.38124 0.52307 0.0
H3029 H 0.22295 0.41261 0.5807 0.0
H3030 H 0.22569 0.41435 0.53041 0.0
S3031 S 0.14354 0.33861 0.54924 0.0
N3032 N 0.15511 0.35177 0.5777 0.0
N3033 N 0.16261 0.35001 0.52345 0.0
C3034 C 0.17969 0.36573 0.53718 0.0
C3035 C 0.17552 0.36676 0.56722 0.0
C3036 C 0.70692 0.94011 0.23057 0.0
C3037 C 0.7099 0.91395 0.2406 0.0
C3038 C 0.70803 0.94617 0.20217 0.0
C3039 C 0.71162 0.92648 0.18177 0.0
H3040 H 0.70465 0.95654 0.24484 0.0
H3041 H 0.7066 0.96681 0.19613 0.0
S3042 S 0.71992 0.8546 0.19598 0.0
N3043 N 0.71631 0.86788 0.22699 0.0
N3044 N 0.71777 0.87933 0.17375 0.0
C3045 C 0.71373 0.90005 0.1912 0.0
C3046 C 0.71299 0.89381 0.2204 0.0
C3047 C 0.192 0.41453 1.00564 0.0
C3048 C 0.17608 0.40284 0.02694 0.0
C3049 C 0.1865 0.4111 0.9771 0.0
C3050 C 0.1644 0.39617 0.96756 0.0
H3051 H 0.20894 0.42653 1.01096 0.0
H3052 H 0.19968 0.42108 0.96227 0.0
S3053 S 0.11456 0.36341 1.01452 0.0
N3054 N 0.13594 0.37639 0.03564 0.0
N3055 N 0.12581 0.37095 0.98313 0.0
C3056 C 0.14813 0.38476 0.98866 0.0
C3057 C 0.15386 0.38786 1.01771 0.0
C3058 C 0.08267 0.61885 0.91392 0.0
C3059 C 0.09316 0.63762 0.9332 0.0
C3060 C 0.05593 0.60981 0.91381 0.0
C3061 C 1.03673 0.61804 0.93332 0.0
H3062 H 0.09546 0.61051 0.8982 0.0
H3063 H 0.05019 0.59616 0.8977 0.0
S3064 S 0.05088 0.66895 0.98733 0.0
N3065 N 0.07974 0.66534 0.97185 0.0
N3066 N 1.03032 0.64853 0.97168 0.0
C3067 C 0.04635 0.63734 0.95246 0.0
C3068 C 0.07392 0.64683 0.9525 0.0
C3069 C 0.50393 0.68941 0.86442 0.0
C3070 C 0.48126 0.67374 0.85687 0.0
C3071 C 0.53137 0.68175 0.85988 0.0
C3072 C 0.54058 0.65725 0.84734 0.0
H3073 H 0.50064 0.70903 0.87286 0.0
H3074 H 0.54607 0.69631 0.86589 0.0
S3075 S 0.49121 0.6086 0.82002 0.0
N3076 N 0.47247 0.63194 0.83313 0.0
N3077 N 0.52155 0.61799 0.82601 0.0
C3078 C 0.51821 0.64133 0.83956 0.0
C3079 C 0.49014 0.64938 0.8437 0.0
C3080 C 0.37533 0.29761 0.6388 0.0
C3081 C 0.39773 0.30868 0.62336 0.0
C3082 C 0.37216 0.27005 0.64883 0.0
C3083 C 0.39077 0.2498 0.644 0.0
H3084 H 0.35918 0.3105 0.64292 0.0
H3085 H 0.35406 0.2644 0.65955 0.0
S3086 S 0.45368 0.26588 0.60481 0.0
N3087 N 0.43946 0.29495 0.60486 0.0
N3088 N 0.43356 0.24489 0.62184 0.0
C3089 C 0.4135 0.26075 0.62893 0.0
C3090 C 0.41696 0.28902 0.6193 0.0
C3091 C 0.71638 0.11679 0.35884 0.0
C3092 C 0.69346 0.10608 0.37307 0.0
C3093 C 0.74291 0.11238 0.36723 0.0
C3094 C 0.74925 0.09683 0.39076 0.0
H3095 H 0.714 0.12791 0.34013 0.0
H3096 H 0.75876 0.12103 0.35459 0.0
S3097 S 0.69762 0.064 0.4362 0.0
N3098 N 0.68063 0.07873 0.41273 0.0
N3099 N 0.7285 0.07132 0.42826 0.0
C3100 C 0.72654 0.08663 0.40543 0.0
C3101 C 0.69973 0.09089 0.39677 0.0
C3102 C 0.43352 0.49298 0.59318 0.0
C3103 C 0.44057 0.47258 0.61149 0.0
C3104 C 0.44214 0.52011 0.59579 0.0
C3105 C 0.45831 0.52873 0.61709 0.0
H3106 H 0.42259 0.48756 0.57529 0.0
H3107 H 0.43624 0.53443 0.58075 0.0
S3108 S 0.48277 0.48441 0.67099 0.0
N3109 N 0.46562 0.46385 0.6516 0.0
N3110 N 0.47994 0.51453 0.65786 0.0
C3111 C 0.46452 0.50898 0.63639 0.0
C3112 C 0.4563 0.4812 0.63323 0.0
C3113 C 0.76649 0.213 0.92891 0.0
C3114 C 0.7517 0.18838 0.9275 0.0
C3115 C 0.79246 0.21808 0.91696 0.0
C3116 C 0.80826 0.19938 0.90191 0.0
H3117 H 0.75781 0.22941 0.93999 0.0
H3118 H 0.80062 0.23787 0.92041 0.0
S3119 S 0.78105 0.1301 0.89064 0.0
N3120 N 0.75677 0.14396 0.90812 0.0
N3121 N 0.80466 0.15315 0.88682 0.0
C3122 C 0.79387 0.17425 0.89979 0.0
C3123 C 0.76659 0.16901 0.91198 0.0
C3124 C 0.19091 0.50581 0.91184 0.0
C3125 C 0.17648 0.49789 0.88922 0.0
C3126 C 0.19114 0.53219 0.92033 0.0
C3127 C 0.17663 0.55069 0.90651 0.0
H3128 H 0.20015 0.49117 0.92432 0.0
H3129 H 0.20159 0.53775 0.93847 0.0
S3130 S 0.13897 0.54015 0.84393 0.0
N3131 N 0.15029 0.51057 0.85107 0.0
N3132 N 0.15016 0.56067 0.86766 0.0
C3133 C 0.16409 0.54353 0.88247 0.0
C3134 C 0.16419 0.51676 0.87357 0.0
C3135 C 0.06979 0.92916 0.15546 0.0
C3136 C 0.08966 0.92983 0.17441 0.0
C3137 C 0.0455 0.93887 0.16313 0.0
C3138 C 0.0411 0.94947 0.18961 0.0
H3139 H 0.07148 0.91735 0.13684 0.0
H3140 H 1.02941 0.93488 0.14979 0.0
S3141 S 0.09024 0.96638 0.24067 0.0
N3142 N 0.10626 0.95041 0.21593 0.0
N3143 N 0.05989 0.96758 0.2309 0.0
C3144 C 0.06209 0.95508 0.20615 0.0
C3145 C 0.08694 0.94592 0.19802 0.0
C3146 C 0.82134 0.43429 0.59822 0.0
C3147 C 0.81059 0.45921 0.59371 0.0
C3148 C 0.8442 0.43295 0.61259 0.0
C3149 C 0.85605 0.45664 0.62203 0.0
H3150 H 0.80953 0.41617 0.59608 0.0
H3151 H 0.84934 0.41376 0.62066 0.0
S3152 S 0.84378 0.52516 0.5987 0.0
N3153 N 0.81916 0.50668 0.58759 0.0
N3154 N 0.86312 0.50429 0.6136 0.0
C3155 C 0.85005 0.48076 0.60935 0.0
C3156 C 0.82662 0.48207 0.59514 0.0
C3157 C 0.16224 0.73734 0.39124 0.0
C3158 C 0.14662 0.71551 0.40033 0.0
C3159 C 0.14977 0.7613 0.38743 0.0
C3160 C 0.12425 0.764 0.39827 0.0
H3161 H 0.18032 0.73421 0.37971 0.0
H3162 H 0.15915 0.77668 0.37452 0.0
S3163 S 0.08927 0.7183 0.44755 0.0
N3164 N 0.11492 0.70188 0.43622 0.0
N3165 N 0.09147 0.74786 0.43241 0.0
C3166 C 0.11422 0.74539 0.4177 0.0
C3167 C 0.12701 0.72096 0.42011 0.0
C3168 C 0.7879 0.90591 0.68095 0.0
C3169 C 0.78015 0.87978 0.68869 0.0
C3170 C 0.81432 0.91285 0.67799 0.0
C3171 C 0.83258 0.89304 0.68134 0.0
H3172 H 0.77391 0.91961 0.67344 0.0
H3173 H 0.81981 0.93128 0.66732 0.0
S3174 S 0.82153 0.82813 0.71639 0.0
N3175 N 0.79214 0.8386 0.71043 0.0
N3176 N 0.84203 0.85232 0.70569 0.0
C3177 C 0.82501 0.8706 0.69734 0.0
C3178 C 0.79831 0.86307 0.69965 0.0
C3179 C 0.65124 0.44892 0.85638 0.0
C3180 C 0.67758 0.44975 0.86357 0.0
C3181 C 0.63857 0.47217 0.84877 0.0
C3182 C 0.65217 0.49688 0.84691 0.0
H3183 H 0.64075 0.4299 0.85521 0.0
H3184 H 0.61846 0.47056 0.84297 0.0
S3185 S 0.72058 0.51044 0.86547 0.0
N3186 N 0.71595 0.47801 0.87042 0.0
N3187 N 0.69268 0.5213 0.85493 0.0
C3188 C 0.6781 0.49821 0.8551 0.0
C3189 C 0.69067 0.47476 0.86373 0.0
C3190 C 0.44967 0.65643 0.53381 0.0
C3191 C 0.43777 0.64158 0.55563 0.0
C3192 C 0.44365 0.65127 0.50601 0.0
C3193 C 0.42567 0.63065 0.49821 0.0
H3194 H 0.46521 0.67078 0.53794 0.0
H3195 H 0.45477 0.66246 0.49029 0.0
S3196 S 0.3854 0.58912 0.54755 0.0
N3197 N 0.40364 0.6081 0.5674 0.0
N3198 N 0.3936 0.59788 0.51557 0.0
C3199 C 0.41187 0.61741 0.51993 0.0
C3200 C 0.41762 0.62296 0.54833 0.0
C3201 C 0.91519 0.17919 0.72619 0.0
C3202 C 0.92922 0.19443 0.74538 0.0
C3203 C 0.92706 0.17125 0.70116 0.0
C3204 C 0.95337 0.17773 0.69523 0.0
H3205 H 0.89462 0.1747 0.72986 0.0
H3206 H 0.91516 0.16216 0.68556 0.0
S3207 S 0.99935 0.21399 0.73974 0.0
N3208 N 0.97146 0.21321 0.75766 0.0
N3209 N 0.9936 0.19772 0.71106 0.0
C3210 C 0.96805 0.19057 0.71536 0.0
C3211 C 0.95597 0.1993 0.74027 0.0
C3212 C 0.417 0.65983 0.03461 0.0
C3213 C 0.39453 0.64713 0.0461 0.0
C3214 C 0.41816 0.66636 1.00681 0.0
C3215 C 0.39671 0.66029 0.99067 0.0
H3216 H 0.43179 0.66826 0.04767 0.0
H3217 H 0.4339 0.67958 0.99926 0.0
S3218 S 0.34058 0.61507 1.00896 0.0
N3219 N 0.35569 0.6199 0.03807 0.0
N3220 N 0.3577 0.63236 0.98524 0.0
C3221 C 0.37722 0.64237 1.00068 0.0
C3222 C 0.37608 0.63576 0.02892 0.0
C3223 C 0.848 0.0992 0.35256 0.0
C3224 C 0.86676 0.11427 0.36665 0.0
C3225 C 0.8394 0.10726 0.32712 0.0
C3226 C 0.84952 0.13057 0.31428 0.0
H3227 H 0.8408 0.0801 0.36055 0.0
H3228 H 0.82573 0.09425 0.31666 0.0
S3229 S 0.89919 0.17733 0.3422 0.0
N3230 N 0.8951 0.15395 0.36611 0.0
N3231 N 0.87916 0.16908 0.31752 0.0
C3232 C 0.86783 0.14641 0.3283 0.0
C3233 C 0.87663 0.13811 0.35454 0.0
C3234 C 0.45017 0.6701 0.71497 0.0
C3235 C 0.43734 0.67948 0.69206 0.0
C3236 C 0.44248 0.67795 0.74171 0.0
C3237 C 0.42176 0.69526 0.74615 0.0
H3238 H 0.46759 0.6587 0.71209 0.0
H3239 H 0.45339 0.67127 0.75893 0.0
S3240 S 0.37899 0.72115 0.69362 0.0
N3241 N 0.40074 0.70388 0.67593 0.0
N3242 N 0.38629 0.71833 0.7263 0.0
C3243 C 0.40729 0.70263 0.72381 0.0
C3244 C 0.41499 0.69463 0.69669 0.0
C3245 C 0.87307 0.1584 1.00015 0.0
C3246 C 0.85753 0.17862 0.99092 0.0
C3247 C 0.87362 0.15307 0.02807 0.0
C3248 C 0.8593 0.16859 0.04683 0.0
H3249 H 0.88606 0.14807 0.98601 0.0
H3250 H 0.88675 0.13823 0.03503 0.0
S3251 S 0.81323 0.22195 0.03115 0.0
N3252 N 0.82482 0.21163 1.00114 0.0
N3253 N 0.82739 0.2035 0.05384 0.0
C3254 C 0.84205 0.18748 0.03729 0.0
C3255 C 0.84074 0.19201 1.00902 0.0
C3256 C 0.35759 0.64367 0.3542 0.0
C3257 C 0.37987 0.6286 0.35806 0.0
C3258 C 0.35053 0.65145 0.32772 0.0
C3259 C 0.36535 0.64388 0.30435 0.0
H3260 H 0.34418 0.64718 0.37145 0.0
H3261 H 0.33218 0.66104 0.32539 0.0
S3262 S 0.42668 0.60687 0.3036 0.0
N3263 N 0.41783 0.60877 0.33656 0.0
N3264 N 0.4046 0.62294 0.28688 0.0
C3265 C 0.3888 0.63087 0.3082 0.0
C3266 C 0.39612 0.62338 0.33508 0.0
C3267 C 0.92141 0.11895 0.54587 0.0
C3268 C 0.93974 0.13956 0.5528 0.0
C3269 C 0.91479 0.11335 0.5184 0.0
C3270 C 0.92571 0.12834 0.4962 0.0
H3271 H 0.91327 0.10556 0.56165 0.0
H3272 H 0.90258 0.09587 0.51449 0.0
S3273 S 0.96999 0.18826 0.50295 0.0
N3274 N 0.96555 0.17733 0.53488 0.0
N3275 N 0.9524 0.16798 0.48377 0.0
C3276 C 0.94171 0.15092 0.50311 0.0
C3277 C 0.94887 0.15623 0.53109 0.0
C3278 C 0.55917 0.95487 0.69956 0.0
C3279 C 0.53729 0.94915 0.68422 0.0
C3280 C 0.58333 0.94566 0.69066 0.0
C3281 C 0.58551 0.92928 0.66715 0.0
H3282 H 0.5572 0.96446 0.71949 0.0
H3283 H 0.59932 0.94773 0.70449 0.0
S3284 S 0.53478 0.91472 0.61689 0.0
N3285 N 0.52002 0.93178 0.64163 0.0
N3286 N 0.56539 0.91313 0.62563 0.0
C3287 C 0.56471 0.92737 0.64944 0.0
C3288 C 0.54027 0.93731 0.65815 0.0
C3289 C 0.3527 0.48124 0.10988 0.0
C3290 C 0.35866 0.45718 0.12287 0.0
C3291 C 0.33072 0.48206 0.094 0.0
C3292 C 0.31519 0.45886 0.09143 0.0
H3293 H 0.36156 0.50003 0.1162 0.0
H3294 H 0.32305 0.50137 0.08937 0.0
S3295 S 0.33333 0.38977 0.10536 0.0
N3296 N 0.3557 0.40867 0.12013 0.0
N3297 N 0.31416 0.41054 0.09006 0.0
C3298 C 0.32628 0.43422 0.09591 0.0
C3299 C 0.34841 0.43326 0.11226 0.0
C3300 C 0.68786 1.00912 0.91672 0.0
C3301 C 0.67427 0.99963 0.89416 0.0
C3302 C 0.68584 0.03549 0.92474 0.0
C3303 C 0.66933 0.05215 0.91101 0.0
H3304 H 0.69863 0.99572 0.92921 0.0
H3305 H 0.69657 0.04253 0.94216 0.0
S3306 S 0.63367 0.03762 0.84788 0.0
N3307 N 0.64762 1.00942 0.85538 0.0
N3308 N 0.64232 0.05916 0.87188 0.0
C3309 C 0.6574 0.04353 0.88713 0.0
C3310 C 0.66028 1.01698 0.8783 0.0
C3311 C 0.29682 0.36461 0.69508 0.0
C3312 C 0.2792 0.38247 0.68491 0.0
C3313 C 0.32327 0.3716 0.69451 0.0
C3314 C 0.33207 0.39466 0.67994 0.0
H3315 H 0.29051 0.34454 0.70104 0.0
H3316 H 0.33674 0.35614 0.69904 0.0
S3317 S 0.29278 0.45238 0.66326 0.0
N3318 N 0.27135 0.42817 0.67144 0.0
N3319 N 0.32168 0.43997 0.66774 0.0
C3320 C 0.31455 0.41516 0.67704 0.0
C3321 C 0.28755 0.40877 0.67889 0.0
C3322 C 0.9394 0.50875 0.12458 0.0
C3323 C 0.96342 0.52061 0.11433 0.0
C3324 C 0.93345 0.48069 0.12344 0.0
C3325 C 0.95158 0.46233 0.11301 0.0
H3326 H 0.92468 0.52139 0.13356 0.0
H3327 H 0.91464 0.47331 0.13138 0.0
S3328 S 1.01694 0.48187 0.08213 0.0
N3329 N 1.00464 0.5107 0.09142 0.0
N3330 N 0.99468 0.45879 0.09121 0.0
C3331 C 0.97563 0.47388 0.10259 0.0
C3332 C 0.98121 0.50252 0.10271 0.0
C3333 C 1.01737 0.14197 0.85616 0.0
C3334 C 1.03723 0.15579 0.83879 0.0
C3335 C 0.99014 0.15111 0.86201 0.0
C3336 C 0.97941 0.17594 0.85243 0.0
H3337 H 1.02246 0.12311 0.86495 0.0
H3338 H 0.9771 0.13779 0.87384 0.0
S3339 S 1.02068 0.22066 0.80581 0.0
N3340 N 0.04039 0.1963 0.81135 0.0
N3341 N 0.99358 0.21296 0.82345 0.0
C3342 C 0.99919 0.18953 0.8355 0.0
C3343 C 1.02608 0.18001 0.82878 0.0
C3344 C 0.223 0.6192 0.35862 0.0
C3345 C 0.2007 0.60738 0.37299 0.0
C3346 C 0.2499 0.61572 0.36641 0.0
C3347 C 0.25752 0.6004 0.38969 0.0
H3348 H 0.21988 0.63046 0.34013 0.0
H3349 H 0.26513 0.62507 0.35344 0.0
S3350 S 0.20808 0.56394 0.43478 0.0
N3351 N 0.18996 0.57838 0.4121 0.0
N3352 N 0.23853 0.57308 0.4267 0.0
C3353 C 0.23547 0.58891 0.40448 0.0
C3354 C 0.20819 0.59197 0.39624 0.0
C3355 C 0.93293 0.34581 0.67904 0.0
C3356 C 0.94277 0.36878 0.66424 0.0
C3357 C 0.93852 0.31851 0.6712 0.0
C3358 C 0.95372 0.31116 0.64713 0.0
H3359 H 0.92143 0.34884 0.69773 0.0
H3360 H 0.93092 0.30277 0.68476 0.0
S3361 S 0.98033 0.36268 0.59739 0.0
N3362 N 0.96712 0.38088 0.6222 0.0
N3363 N 0.97515 0.33117 0.60656 0.0
C3364 C 0.96197 0.33388 0.63103 0.0
C3365 C 0.95719 0.36172 0.63966 0.0
C3366 C 0.26506 0.20702 0.41246 0.0
C3367 C 0.25562 0.18408 0.42808 0.0
C3368 C 0.29185 0.21146 0.40165 0.0
C3369 C 0.31295 0.19386 0.40547 0.0
H3370 H 0.25152 0.22269 0.40915 0.0
H3371 H 0.29631 0.23008 0.391 0.0
S3372 S 0.30148 0.13126 0.44682 0.0
N3373 N 0.2721 0.14364 0.44722 0.0
N3374 N 0.32078 0.15218 0.42865 0.0
C3375 C 0.30388 0.17092 0.42138 0.0
C3376 C 0.27635 0.16609 0.43197 0.0
C3377 C 0.39726 0.54661 0.22476 0.0
C3378 C 0.403 0.52941 0.20227 0.0
C3379 C 0.38955 0.57359 0.22161 0.0
C3380 C 0.38674 0.58603 0.19563 0.0
H3381 H 0.39706 0.53852 0.24545 0.0
H3382 H 0.38446 0.58452 0.24014 0.0
S3383 S 0.39843 0.5507 0.12911 0.0
N3384 N 0.40477 0.52786 0.15226 0.0
N3385 N 0.39066 0.57787 0.14645 0.0
C3386 C 0.39316 0.56949 0.17274 0.0
C3387 C 0.40101 0.5417 0.17599 0.0
C3388 C 0.64964 0.37762 0.48754 0.0
C3389 C 0.66188 0.39413 0.46705 0.0
C3390 C 0.65391 0.38126 0.51632 0.0
C3391 C 0.67036 0.40202 0.52721 0.0
H3392 H 0.63634 0.36174 0.48139 0.0
H3393 H 0.64336 0.36771 0.53037 0.0
S3394 S 0.70582 0.45266 0.48313 0.0
N3395 N 0.69095 0.43329 0.46074 0.0
N3396 N 0.69804 0.44002 0.51382 0.0
C3397 C 0.68256 0.41881 0.50698 0.0
C3398 C 0.67855 0.41494 0.47755 0.0
C3399 C 0.15925 0.84019 0.26809 0.0
C3400 C 0.15648 0.8634 0.25208 0.0
C3401 C 0.15292 0.83902 0.29689 0.0
C3402 C 0.14441 0.86144 0.31201 0.0
H3403 H 0.16515 0.82221 0.25796 0.0
H3404 H 0.15392 0.81999 0.30726 0.0
S3405 S 0.13609 0.92833 0.28133 0.0
N3406 N 0.14525 0.90997 0.25464 0.0
N3407 N 0.13567 0.90852 0.30854 0.0
C3408 C 0.14338 0.8854 0.29677 0.0
C3409 C 0.14882 0.88623 0.26712 0.0
C3410 C 0.70949 0.39502 0.06934 0.0
C3411 C 0.69213 0.37666 0.08342 0.0
C3412 C 0.71254 0.39618 0.03999 0.0
C3413 C 0.70107 0.37726 0.02212 0.0
H3414 H 0.72084 0.4091 0.08124 0.0
H3415 H 0.72393 0.41252 0.03103 0.0
S3416 S 0.64878 0.32903 0.04626 0.0
N3417 N 0.65853 0.34271 0.07526 0.0
N3418 N 0.66726 0.34259 0.02113 0.0
C3419 C 0.6826 0.35957 0.03555 0.0
C3420 C 0.67779 0.35965 0.06559 0.0
C3421 C 0.2075 0.94337 0.70392 0.0
C3422 C 0.21181 0.92399 0.68336 0.0
C3423 C 0.20554 0.93701 0.73228 0.0
C3424 C 0.20852 0.91081 0.74225 0.0
H3425 H 0.20601 0.964 0.69805 0.0
H3426 H 0.20265 0.95328 0.74662 0.0
S3427 S 0.22072 0.85213 0.69728 0.0
N3428 N 0.21878 0.877 0.67519 0.0
N3429 N 0.21606 0.86504 0.72833 0.0
C3430 C 0.21252 0.89096 0.72189 0.0
C3431 C 0.21398 0.8975 0.69269 0.0
C3432 C 0.637 0.38498 0.26641 0.0
C3433 C 0.65242 0.36667 0.25133 0.0
C3434 C 0.63256 0.38326 0.29552 0.0
C3435 C 0.64229 0.3624 0.31132 0.0
H3436 H 0.62692 0.40003 0.25534 0.0
H3437 H 0.61988 0.39747 0.30544 0.0
S3438 S 0.68674 0.31121 0.28348 0.0
N3439 N 0.68023 0.32889 0.25598 0.0
N3440 N 0.67038 0.32452 0.30968 0.0
C3441 C 0.65885 0.34482 0.29687 0.0
C3442 C 0.66421 0.34718 0.26734 0.0
C3443 C 0.21135 0.89518 0.06988 0.0
C3444 C 0.1928 0.87865 0.08471 0.0
C3445 C 0.21364 0.89575 0.04054 0.0
C3446 C 0.19968 0.87795 0.02357 0.0
H3447 H 0.22437 0.90819 0.08113 0.0
H3448 H 0.22642 0.91071 0.03089 0.0
S3449 S 0.14288 0.83667 0.04985 0.0
N3450 N 0.1553 0.84885 0.07835 0.0
N3451 N 0.16195 0.84781 0.02398 0.0
C3452 C 0.17972 0.86268 0.03771 0.0
C3453 C 0.17604 0.86331 0.06778 0.0
C3454 C 0.69709 0.42045 0.73012 0.0
C3455 C 0.70126 0.39364 0.73754 0.0
C3456 C 0.70141 0.43004 0.70297 0.0
C3457 C 0.70896 0.41323 0.68109 0.0
H3458 H 0.69161 0.43478 0.74581 0.0
H3459 H 0.69901 0.45106 0.69914 0.0
S3460 S 0.72233 0.34127 0.68829 0.0
N3461 N 0.714 0.35045 0.72003 0.0
N3462 N 0.72039 0.36807 0.66873 0.0
C3463 C 0.71255 0.38619 0.68778 0.0
C3464 C 0.70909 0.37653 0.71589 0.0
C3465 C 0.18809 0.90508 0.47988 0.0
C3466 C 0.16779 0.88814 0.46939 0.0
C3467 C 0.19143 0.91003 0.50865 0.0
C3468 C 0.17499 0.89801 0.52937 0.0
H3469 H 0.20137 0.91561 0.46555 0.0
H3470 H 0.20691 0.92371 0.51461 0.0
S3471 S 0.11816 0.85229 0.51406 0.0
N3472 N 0.13077 0.85982 0.48323 0.0
N3473 N 0.13671 0.86815 0.53615 0.0
C3474 C 0.15473 0.88071 0.51912 0.0
C3475 C 0.15125 0.87604 0.48981 0.0
C3476 C 0.52899 0.1823 0.35834 0.0
C3477 C 0.53829 0.15804 0.34542 0.0
C3478 C 0.50156 0.18967 0.36289 0.0
C3479 C 0.47921 0.1739 0.3549 0.0
H3480 H 0.54356 0.1968 0.36476 0.0
H3481 H 0.49804 0.20907 0.37177 0.0
S3482 S 0.48954 0.10889 0.31801 0.0
N3483 N 0.51981 0.11863 0.32389 0.0
N3484 N 0.4706 0.13206 0.33113 0.0
C3485 C 0.48816 0.14968 0.34159 0.0
C3486 C 0.51621 0.14195 0.33741 0.0
C3487 C 0.70706 0.58629 0.89379 0.0
C3488 C 0.69867 0.60488 0.87353 0.0
C3489 C 0.73379 0.58351 0.9021 0.0
C3490 C 0.75559 0.59832 0.8903 0.0
H3491 H 0.69254 0.57273 0.9032 0.0
H3492 H 0.73743 0.56848 0.91734 0.0
S3493 S 0.74687 0.65065 0.83672 0.0
N3494 N 0.71667 0.63944 0.84294 0.0
N3495 N 0.76546 0.63335 0.85666 0.0
C3496 C 0.74766 0.61711 0.87009 0.0
C3497 C 0.72018 0.62057 0.86231 0.0
C3498 C 0.4569 0.98154 0.12919 0.0
C3499 C 0.43852 0.97152 0.11038 0.0
C3500 C 0.46389 1.00921 0.13125 0.0
C3501 C 0.45407 0.02858 0.11357 0.0
H3502 H 0.46733 0.96757 0.14131 0.0
H3503 H 0.47801 1.01534 0.14617 0.0
S3504 S 0.40343 1.01441 0.06261 0.0
N3505 N 0.409 0.9847 0.07545 0.0
N3506 N 0.42275 0.03582 0.07854 0.0
C3507 C 0.43488 1.0192 0.09559 0.0
C3508 C 0.42717 0.99113 0.09409 0.0
C3509 C 0.77637 0.67093 0.4341 0.0
C3510 C 0.75527 0.68759 0.42721 0.0
C3511 C 0.80361 0.67498 0.42404 0.0
C3512 C 0.81316 0.69572 0.40527 0.0
H3513 H 0.77222 0.65517 0.44899 0.0
H3514 H 0.81782 0.66207 0.43241 0.0
S3515 S 0.76782 0.74711 0.3815 0.0
N3516 N 0.74818 0.72748 0.40073 0.0
N3517 N 0.79695 0.73425 0.38218 0.0
C3518 C 0.79222 0.71251 0.39843 0.0
C3519 C 0.76463 0.70868 0.40897 0.0
C3520 C 0.19842 0.32697 0.4329 0.0
C3521 C 0.18009 0.33318 0.41383 0.0
C3522 C 0.1983 0.30277 0.44595 0.0
C3523 C 0.17964 0.28326 0.43986 0.0
H3524 H 0.21346 0.3411 0.43707 0.0
H3525 H 0.21356 0.29903 0.46015 0.0
S3526 S 0.12561 0.28936 0.39209 0.0
N3527 N 0.14139 0.31861 0.39012 0.0
N3528 N 0.14103 0.27122 0.41439 0.0
C3529 C 0.16006 0.28901 0.42144 0.0
C3530 C 0.1603 0.31445 0.40822 0.0
C3531 C 0.65157 0.25941 0.38668 0.0
C3532 C 0.62661 0.2631 0.39861 0.0
C3533 C 0.66305 0.23477 0.38946 0.0
C3534 C 0.64679 0.21353 0.39884 0.0
H3535 H 0.661 0.27448 0.37342 0.0
H3536 H 0.68044 0.231 0.37697 0.0
S3537 S 0.59141 0.21807 0.44841 0.0
N3538 N 0.59438 0.24783 0.43375 0.0
N3539 N 0.61592 0.2007 0.43579 0.0
C3540 C 0.6283 0.21955 0.4196 0.0
C3541 C 0.61653 0.24463 0.41817 0.0
C3542 C 0.18493 0.99799 0.83639 0.0
C3543 C 0.15797 0.99771 0.84226 0.0
C3544 C 0.20039 0.97733 0.84484 0.0
C3545 C 0.18987 0.95483 0.8593 0.0
H3546 H 0.19447 1.01451 0.82526 0.0
H3547 H 0.22098 0.9788 0.83924 0.0
S3548 S 0.12047 0.94425 0.88085 0.0
N3549 N 0.12137 0.97333 0.86475 0.0
N3550 N 0.15065 0.93383 0.8798 0.0
C3551 C 0.16305 0.95437 0.86605 0.0
C3552 C 0.1471 0.97587 0.85767 0.0
C3553 C 0.56079 0.90412 0.138 0.0
C3554 C 0.5781 0.8874 0.12403 0.0
C3555 C 0.53583 0.90682 0.1286 0.0
C3556 C 0.52814 0.89289 0.10513 0.0
H3557 H 0.5675 0.9174 0.15402 0.0
H3558 H 0.52325 0.92124 0.1384 0.0
S3559 S 0.5644 0.84181 0.06625 0.0
N3560 N 0.58471 0.8532 0.08936 0.0
N3561 N 0.53726 0.85801 0.07181 0.0
C3562 C 0.54408 0.87365 0.09334 0.0
C3563 C 0.56931 0.8707 0.10309 0.0
C3564 C 0.54309 0.37595 0.58725 0.0
C3565 C 0.52706 0.39267 0.60283 0.0
C3566 C 0.56755 0.37019 0.59627 0.0
C3567 C 0.57646 0.38178 0.62055 0.0
H3568 H 0.5372 0.36824 0.56756 0.0
H3569 H 0.58076 0.35977 0.58242 0.0
S3570 S 0.53954 0.42201 0.67119 0.0
N3571 N 0.51954 0.41671 0.6458 0.0
N3572 N 0.56633 0.40628 0.6624 0.0
C3573 C 0.55939 0.39551 0.63797 0.0
C3574 C 0.53441 0.40123 0.62896 0.0
C3575 C 0.18496 0.78236 0.90631 0.0
C3576 C 0.17134 0.77795 0.93152 0.0
C3577 C 0.18442 0.807 0.89325 0.0
C3578 C 0.17142 0.82818 0.90609 0.0
H3579 H 0.19781 0.76747 0.89782 0.0
H3580 H 0.19746 0.81046 0.87549 0.0
S3581 S 0.12465 0.82269 0.96604 0.0
N3582 N 0.13821 0.7933 0.96416 0.0
N3583 N 0.13746 0.84024 0.93985 0.0
C3584 C 0.15345 0.8221 0.92802 0.0
C3585 C 0.15374 0.79679 0.94112 0.0
C3586 C 0.87865 0.79649 0.64544 0.0
C3587 C 0.89881 0.80663 0.62622 0.0
C3588 C 0.87554 0.76877 0.65531 0.0
C3589 C 0.8915 0.74737 0.64607 0.0
H3590 H 0.86429 0.81032 0.6529 0.0
H3591 H 0.85948 0.76399 0.6696 0.0
S3592 S 0.94827 0.76112 0.59636 0.0
N3593 N 0.93589 0.79095 0.59978 0.0
N3594 N 0.93004 0.74086 0.61635 0.0
C3595 C 0.91222 0.75757 0.62742 0.0
C3596 C 0.91576 0.78591 0.61807 0.0
C3597 C 0.44298 0.83262 0.63236 0.0
C3598 C 0.45219 0.81151 0.64899 0.0
C3599 C 0.43878 0.85966 0.6426 0.0
C3600 C 0.44364 0.86795 0.67025 0.0
H3601 H 0.4388 0.82829 0.61113 0.0
H3602 H 0.4325 0.87442 0.62825 0.0
S3603 S 0.47115 0.82176 0.72134 0.0
N3604 N 0.46616 0.80219 0.6947 0.0
N3605 N 0.46212 0.85156 0.71196 0.0
C3606 C 0.45388 0.84701 0.68618 0.0
C3607 C 0.4569 0.8196 0.67632 0.0
C3608 C 0.90073 0.04354 0.2252 0.0
C3609 C 0.90578 0.02704 0.20197 0.0
C3610 C 0.89237 0.07045 0.22325 0.0
C3611 C 0.88809 0.08354 0.19789 0.0
H3612 H 0.90164 0.03492 0.24557 0.0
H3613 H 0.88785 0.08079 0.24233 0.0
S3614 S 0.8968 0.04994 0.12999 0.0
N3615 N 0.90483 0.02673 0.15202 0.0
N3616 N 0.88949 0.07654 0.14848 0.0
C3617 C 0.89359 0.06764 0.17427 0.0
C3618 C 0.90212 0.03993 0.17627 0.0
C3619 C 0.58148 0.11979 0.91179 0.0
C3620 C 0.59146 0.13933 0.93052 0.0
C3621 C 0.55479 0.11044 0.91167 0.0
C3622 C 0.5353 0.11906 0.93072 0.0
H3623 H 0.59461 0.11117 0.89658 0.0
H3624 H 0.54933 0.09619 0.896 0.0
S3625 S 0.5484 0.17162 0.98331 0.0
N3626 N 0.5774 0.16797 0.96818 0.0
N3627 N 0.52823 0.15045 0.96814 0.0
C3628 C 0.54455 0.13893 0.94942 0.0
C3629 C 0.57197 0.14877 0.94941 0.0
C3630 C 0.57647 0.64501 0.4524 0.0
C3631 C 0.59498 0.64097 0.43024 0.0
C3632 C 0.54965 0.63493 0.45231 0.0
C3633 C 0.53907 0.61997 0.43005 0.0
H3634 H 0.58279 0.65567 0.4704 0.0
H3635 H 0.53697 0.63929 0.46991 0.0
S3636 S 0.57746 0.60456 0.36596 0.0
N3637 N 0.59875 0.62101 0.38468 0.0
N3638 N 0.54995 0.60338 0.38454 0.0
C3639 C 0.55704 0.61663 0.40761 0.0
C3640 C 0.58415 0.62655 0.40773 0.0
C3641 C 0.91353 0.28891 0.12877 0.0
C3642 C 0.89267 0.30641 0.12342 0.0
C3643 C 0.9099 0.26148 0.13981 0.0
C3644 C 0.88523 0.24843 0.1481 0.0
H3645 H 0.93315 0.2959 0.12326 0.0
H3646 H 0.92715 0.24979 0.14096 0.0
S3647 S 0.82321 0.28289 0.13673 0.0
N3648 N 0.84533 0.30569 0.12686 0.0
N3649 N 0.83951 0.25703 0.14664 0.0
C3650 C 0.86451 0.2658 0.14269 0.0
C3651 C 0.86795 0.29334 0.1311 0.0
C3652 C 0.61577 0.75363 0.9101 0.0
C3653 C 0.62156 0.77273 0.88952 0.0
C3654 C 0.63037 0.73063 0.91053 0.0
C3655 C 0.64767 0.72606 0.88808 0.0
H3656 H 0.59868 0.75509 0.92367 0.0
H3657 H 0.62313 0.71408 0.92325 0.0
S3658 S 0.68068 0.77696 0.84371 0.0
N3659 N 0.65466 0.79138 0.85705 0.0
N3660 N 0.68091 0.74705 0.85798 0.0
C3661 C 0.65963 0.74832 0.87529 0.0
C3662 C 0.64527 0.77176 0.87436 0.0
C3663 C 0.1536 0.45116 0.35366 0.0
C3664 C 0.17942 0.45174 0.36252 0.0
C3665 C 0.14141 0.47463 0.34598 0.0
C3666 C 0.15502 0.49935 0.34583 0.0
H3667 H 0.14325 0.43221 0.35123 0.0
H3668 H 0.12175 0.47323 0.33878 0.0
S3669 S 0.22204 0.51219 0.36933 0.0
N3670 N 0.21724 0.47961 0.37278 0.0
N3671 N 0.19483 0.52348 0.3574 0.0
C3672 C 0.18036 0.50042 0.3558 0.0
C3673 C 0.19243 0.47667 0.3644 0.0
C3674 C 0.42655 0.34812 0.17739 0.0
C3675 C 0.43796 0.3707 0.16312 0.0
C3676 C 0.43132 0.32063 0.1696 0.0
C3677 C 0.44752 0.31285 0.14641 0.0
H3678 H 0.41453 0.35156 0.19567 0.0
H3679 H 0.42238 0.30509 0.18256 0.0
S3680 S 0.48014 0.36329 0.09932 0.0
N3681 N 0.46565 0.38194 0.12293 0.0
N3682 N 0.4728 0.332 0.10785 0.0
C3683 C 0.45784 0.33522 0.13112 0.0
C3684 C 0.45358 0.36316 0.13946 0.0
C3685 C 0.88698 0.56617 0.6728 0.0
C3686 C 0.88578 0.58409 0.69552 0.0
C3687 C 0.8949 0.53888 0.67528 0.0
C3688 C 0.90247 0.52745 0.70057 0.0
H3689 H 0.88004 0.57265 0.6532 0.0
H3690 H 0.89349 0.52613 0.65741 0.0
S3691 S 0.90327 0.56506 0.76652 0.0
N3692 N 0.89377 0.58736 0.74429 0.0
N3693 N 0.90795 0.5375 0.7487 0.0
C3694 C 0.90205 0.54546 0.72303 0.0
C3695 C 0.89401 0.57303 0.72059 0.0
loop_
_geom_bond_atom_site_label_1
_geom_bond_atom_site_label_2
_geom_bond_distance
_geom_bond_site_symmetry_2
_ccdc_geom_bond_type
Co0 O3 2.042 . S
Co0 O10 2.264 . S
Co0 O29 2.286 . S
Co0 O30 2.069 . S
Co0 O32 2.015 . S
Co1 O3 2.122 . S
Co1 O9 2.073 . S
Co1 O10 2.327 . S
Co1 O11 1.976 . S
Co2 O3 2.087 . S
Co2 O5 2.087 . S
Co2 O12 2.111 . S
Co2 O13 2.143 . S
Co2 O17 2.111 . S
Co2 O31 2.143 . S
O3 Co0 2.042 . S
O3 Co1 2.122 . S
O3 Co2 2.087 . S
O3 H4 0.980 . S
H4 O3 0.980 . S
O5 Co2 2.087 . S
O5 Co6 2.042 . S
O5 Co7 2.122 . S
O5 H8 0.980 . S
Co6 O5 2.042 . S
Co6 O14 2.286 . S
Co6 O15 2.069 . S
Co6 O16 2.015 . S
Co6 O19 2.264 . S
Co7 O5 2.122 . S
Co7 O18 1.976 . S
Co7 O19 2.327 . S
Co7 O20 2.073 . S
H8 O5 0.980 . S
O9 Co1 2.073 . S
O9 C24 1.245 . S
O10 Co0 2.264 . S
O10 Co1 2.327 . S
O10 C24 1.257 . S
O11 Co1 1.976 . S
O11 C23 1.251 . S
O12 Co2 2.111 . S
O12 C23 1.274 . S
O13 Co2 2.143 . S
O13 C26 1.246 . S
O14 Co6 2.286 . S
O14 C25 1.259 . S
O15 Co6 2.069 . S
O15 C25 1.289 . S
O16 Co6 2.015 . S
O16 C26 1.257 . S
O17 Co2 2.111 . S
O17 C27 1.274 . S
O18 Co7 1.976 . S
O18 C27 1.251 . S
O19 Co6 2.264 . S
O19 Co7 2.327 . S
O19 C28 1.257 . S
O20 Co7 2.073 . S
O20 C28 1.245 . S
C21 O29 1.259 . S
C21 O30 1.289 . S
C22 O31 1.246 . S
C22 O32 1.257 . S
C23 O11 1.251 . S
C23 O12 1.274 . S
C24 O9 1.245 . S
C24 O10 1.257 . S
C25 O14 1.259 . S
C25 O15 1.289 . S
C26 O13 1.246 . S
C26 O16 1.257 . S
C27 O17 1.274 . S
C27 O18 1.251 . S
C28 O19 1.257 . S
C28 O20 1.245 . S
O29 Co0 2.286 . S
O29 C21 1.259 . S
O30 Co0 2.069 . S
O30 C21 1.289 . S
O31 Co2 2.143 . S
O31 C22 1.246 . S
O32 Co0 2.015 . S
O32 C22 1.257 . S
Co33 O36 2.042 . S
Co33 O43 2.264 . S
Co33 O62 2.286 . S
Co33 O63 2.069 . S
Co33 O65 2.015 . S
Co34 O36 2.122 . S
Co34 O42 2.073 . S
Co34 O43 2.327 . S
Co34 O44 1.976 . S
Co35 O36 2.087 . S
Co35 O38 2.087 . S
Co35 O45 2.111 . S
Co35 O46 2.143 . S
Co35 O50 2.111 . S
Co35 O64 2.143 . S
O36 Co33 2.042 . S
O36 Co34 2.122 . S
O36 Co35 2.087 . S
O36 H37 0.980 . S
H37 O36 0.980 . S
O38 Co35 2.087 . S
O38 Co39 2.042 . S
O38 Co40 2.122 . S
O38 H41 0.980 . S
Co39 O38 2.042 . S
Co39 O47 2.286 . S
Co39 O48 2.069 . S
Co39 O49 2.015 . S
Co39 O52 2.264 . S
Co40 O38 2.122 . S
Co40 O51 1.976 . S
Co40 O52 2.327 . S
Co40 O53 2.073 . S
H41 O38 0.980 . S
O42 Co34 2.073 . S
O42 C57 1.245 . S
O43 Co33 2.264 . S
O43 Co34 2.327 . S
O43 C57 1.257 . S
O44 Co34 1.976 . S
O44 C56 1.251 . S
O45 Co35 2.111 . S
O45 C56 1.274 . S
O46 Co35 2.143 . S
O46 C59 1.246 . S
O47 Co39 2.286 . S
O47 C58 1.259 . S
O48 Co39 2.069 . S
O48 C58 1.289 . S
O49 Co39 2.015 . S
O49 C59 1.257 . S
O50 Co35 2.111 . S
O50 C60 1.274 . S
O51 Co40 1.976 . S
O51 C60 1.251 . S
O52 Co39 2.264 . S
O52 Co40 2.327 . S
O52 C61 1.257 . S
O53 Co40 2.073 . S
O53 C61 1.245 . S
C54 O62 1.259 . S
C54 O63 1.289 . S
C55 O64 1.246 . S
C55 O65 1.257 . S
C56 O44 1.251 . S
C56 O45 1.274 . S
C57 O42 1.245 . S
C57 O43 1.257 . S
C58 O47 1.259 . S
C58 O48 1.289 . S
C59 O46 1.246 . S
C59 O49 1.257 . S
C60 O50 1.274 . S
C60 O51 1.251 . S
C61 O52 1.257 . S
C61 O53 1.245 . S
O62 Co33 2.286 . S
O62 C54 1.259 . S
O63 Co33 2.069 . S
O63 C54 1.289 . S
O64 Co35 2.143 . S
O64 C55 1.246 . S
O65 Co33 2.015 . S
O65 C55 1.257 . S
Co66 O69 2.042 . S
Co66 O76 2.264 . S
Co66 O95 2.286 . S
Co66 O96 2.069 . S
Co66 O98 2.015 . S
Co67 O69 2.122 . S
Co67 O75 2.073 . S
Co67 O76 2.327 . S
Co67 O77 1.976 . S
Co68 O69 2.087 . S
Co68 O71 2.087 . S
Co68 O78 2.111 . S
Co68 O79 2.143 . S
Co68 O83 2.111 . S
Co68 O97 2.143 . S
O69 Co66 2.042 . S
O69 Co67 2.122 . S
O69 Co68 2.087 . S
O69 H70 0.980 . S
H70 O69 0.980 . S
O71 Co68 2.087 . S
O71 Co72 2.042 . S
O71 Co73 2.122 . S
O71 H74 0.980 . S
Co72 O71 2.042 . S
Co72 O80 2.286 . S
Co72 O81 2.069 . S
Co72 O82 2.015 . S
Co72 O85 2.264 . S
Co73 O71 2.122 . S
Co73 O84 1.976 . S
Co73 O85 2.327 . S
Co73 O86 2.073 . S
H74 O71 0.980 . S
O75 Co67 2.073 . S
O75 C90 1.245 . S
O76 Co66 2.264 . S
O76 Co67 2.327 . S
O76 C90 1.257 . S
O77 Co67 1.976 . S
O77 C89 1.251 . S
O78 Co68 2.111 . S
O78 C89 1.274 . S
O79 Co68 2.143 . S
O79 C92 1.246 . S
O80 Co72 2.286 . S
O80 C91 1.259 . S
O81 Co72 2.069 . S
O81 C91 1.289 . S
O82 Co72 2.015 . S
O82 C92 1.257 . S
O83 Co68 2.111 . S
O83 C93 1.274 . S
O84 Co73 1.976 . S
O84 C93 1.251 . S
O85 Co72 2.264 . S
O85 Co73 2.327 . S
O85 C94 1.257 . S
O86 Co73 2.073 . S
O86 C94 1.245 . S
C87 O95 1.259 . S
C87 O96 1.289 . S
C88 O97 1.246 . S
C88 O98 1.257 . S
C89 O77 1.251 . S
C89 O78 1.274 . S
C90 O75 1.245 . S
C90 O76 1.257 . S
C91 O80 1.259 . S
C91 O81 1.289 . S
C92 O79 1.246 . S
C92 O82 1.257 . S
C93 O83 1.274 . S
C93 O84 1.251 . S
C94 O85 1.257 . S
C94 O86 1.245 . S
O95 Co66 2.286 . S
O95 C87 1.259 . S
O96 Co66 2.069 . S
O96 C87 1.289 . S
O97 Co68 2.143 . S
O97 C88 1.246 . S
O98 Co66 2.015 . S
O98 C88 1.257 . S
Co99 O102 2.042 . S
Co99 O109 2.264 . S
Co99 O128 2.286 . S
Co99 O129 2.069 . S
Co99 O131 2.015 . S
Co100 O102 2.122 . S
Co100 O108 2.073 . S
Co100 O109 2.327 . S
Co100 O110 1.976 . S
Co101 O102 2.087 . S
Co101 O104 2.087 . S
Co101 O111 2.111 . S
Co101 O112 2.143 . S
Co101 O116 2.111 . S
Co101 O130 2.143 . S
O102 Co99 2.042 . S
O102 Co100 2.122 . S
O102 Co101 2.087 . S
O102 H103 0.980 . S
H103 O102 0.980 . S
O104 Co101 2.087 . S
O104 Co105 2.042 . S
O104 Co106 2.122 . S
O104 H107 0.980 . S
Co105 O104 2.042 . S
Co105 O113 2.286 . S
Co105 O114 2.069 . S
Co105 O115 2.015 . S
Co105 O118 2.264 . S
Co106 O104 2.122 . S
Co106 O117 1.976 . S
Co106 O118 2.327 . S
Co106 O119 2.073 . S
H107 O104 0.980 . S
O108 Co100 2.073 . S
O108 C123 1.245 . S
O109 Co99 2.264 . S
O109 Co100 2.327 . S
O109 C123 1.257 . S
O110 Co100 1.976 . S
O110 C122 1.251 . S
O111 Co101 2.111 . S
O111 C122 1.274 . S
O112 Co101 2.143 . S
O112 C125 1.246 . S
O113 Co105 2.286 . S
O113 C124 1.259 . S
O114 Co105 2.069 . S
O114 C124 1.289 . S
O115 Co105 2.015 . S
O115 C125 1.257 . S
O116 Co101 2.111 . S
O116 C126 1.274 . S
O117 Co106 1.976 . S
O117 C126 1.251 . S
O118 Co105 2.264 . S
O118 Co106 2.327 . S
O118 C127 1.257 . S
O119 Co106 2.073 . S
O119 C127 1.245 . S
C120 O128 1.259 . S
C120 O129 1.289 . S
C121 O130 1.246 . S
C121 O131 1.257 . S
C122 O110 1.251 . S
C122 O111 1.274 . S
C123 O108 1.245 . S
C123 O109 1.257 . S
C124 O113 1.259 . S
C124 O114 1.289 . S
C125 O112 1.246 . S
C125 O115 1.257 . S
C126 O116 1.274 . S
C126 O117 1.251 . S
C127 O118 1.257 . S
C127 O119 1.245 . S
O128 Co99 2.286 . S
O128 C120 1.259 . S
O129 Co99 2.069 . S
O129 C120 1.289 . S
O130 Co101 2.143 . S
O130 C121 1.246 . S
O131 Co99 2.015 . S
O131 C121 1.257 . S
Co132 O135 2.042 . S
Co132 O142 2.264 . S
Co132 O161 2.286 . S
Co132 O162 2.069 . S
Co132 O164 2.015 . S
Co133 O135 2.122 . S
Co133 O141 2.073 . S
Co133 O142 2.327 . S
Co133 O143 1.976 . S
Co134 O135 2.087 . S
Co134 O137 2.087 . S
Co134 O144 2.111 . S
Co134 O145 2.143 . S
Co134 O149 2.111 . S
Co134 O163 2.143 . S
O135 Co132 2.042 . S
O135 Co133 2.122 . S
O135 Co134 2.087 . S
O135 H136 0.980 . S
H136 O135 0.980 . S
O137 Co134 2.087 . S
O137 Co138 2.042 . S
O137 Co139 2.122 . S
O137 H140 0.980 . S
Co138 O137 2.042 . S
Co138 O146 2.286 . S
Co138 O147 2.069 . S
Co138 O148 2.015 . S
Co138 O151 2.264 . S
Co139 O137 2.122 . S
Co139 O150 1.976 . S
Co139 O151 2.327 . S
Co139 O152 2.073 . S
H140 O137 0.980 . S
O141 Co133 2.073 . S
O141 C156 1.245 . S
O142 Co132 2.264 . S
O142 Co133 2.327 . S
O142 C156 1.257 . S
O143 Co133 1.976 . S
O143 C155 1.251 . S
O144 Co134 2.111 . S
O144 C155 1.274 . S
O145 Co134 2.143 . S
O145 C158 1.246 . S
O146 Co138 2.286 . S
O146 C157 1.259 1_545 S
O147 Co138 2.069 . S
O147 C157 1.289 1_545 S
O148 Co138 2.015 . S
O148 C158 1.257 . S
O149 Co134 2.111 . S
O149 C159 1.274 . S
O150 Co139 1.976 . S
O150 C159 1.251 . S
O151 Co138 2.264 . S
O151 Co139 2.327 . S
O151 C160 1.257 . S
O152 Co139 2.073 . S
O152 C160 1.245 . S
C153 O161 1.259 . S
C153 O162 1.289 . S
C154 O163 1.246 . S
C154 O164 1.257 . S
C155 O143 1.251 . S
C155 O144 1.274 . S
C156 O141 1.245 . S
C156 O142 1.257 . S
C157 O146 1.259 1_565 S
C157 O147 1.289 1_565 S
C158 O145 1.246 . S
C158 O148 1.257 . S
C159 O149 1.274 . S
C159 O150 1.251 . S
C160 O151 1.257 . S
C160 O152 1.245 . S
O161 Co132 2.286 . S
O161 C153 1.259 . S
O162 Co132 2.069 . S
O162 C153 1.289 . S
O163 Co134 2.143 . S
O163 C154 1.246 . S
O164 Co132 2.015 . S
O164 C154 1.257 . S
Co165 O168 2.042 . S
Co165 O175 2.264 . S
Co165 O194 2.286 . S
Co165 O195 2.069 . S
Co165 O197 2.015 . S
Co166 O168 2.122 . S
Co166 O174 2.073 . S
Co166 O175 2.327 . S
Co166 O176 1.976 . S
Co167 O168 2.087 . S
Co167 O170 2.087 . S
Co167 O177 2.111 . S
Co167 O178 2.143 . S
Co167 O182 2.111 . S
Co167 O196 2.143 . S
O168 Co165 2.042 . S
O168 Co166 2.122 . S
O168 Co167 2.087 . S
O168 H169 0.980 . S
H169 O168 0.980 . S
O170 Co167 2.087 . S
O170 Co171 2.042 . S
O170 Co172 2.122 . S
O170 H173 0.980 . S
Co171 O170 2.042 . S
Co171 O179 2.286 . S
Co171 O180 2.069 . S
Co171 O181 2.015 . S
Co171 O184 2.264 . S
Co172 O170 2.122 . S
Co172 O183 1.976 . S
Co172 O184 2.327 . S
Co172 O185 2.073 . S
H173 O170 0.980 . S
O174 Co166 2.073 . S
O174 C189 1.245 . S
O175 Co165 2.264 . S
O175 Co166 2.327 . S
O175 C189 1.257 . S
O176 Co166 1.976 . S
O176 C188 1.251 . S
O177 Co167 2.111 . S
O177 C188 1.274 . S
O178 Co167 2.143 . S
O178 C191 1.246 . S
O179 Co171 2.286 . S
O179 C190 1.259 . S
O180 Co171 2.069 . S
O180 C190 1.289 . S
O181 Co171 2.015 . S
O181 C191 1.257 . S
O182 Co167 2.111 . S
O182 C192 1.274 . S
O183 Co172 1.976 . S
O183 C192 1.251 . S
O184 Co171 2.264 . S
O184 Co172 2.327 . S
O184 C193 1.257 . S
O185 Co172 2.073 . S
O185 C193 1.245 . S
C186 O194 1.259 . S
C186 O195 1.289 . S
C187 O196 1.246 . S
C187 O197 1.257 . S
C188 O176 1.251 . S
C188 O177 1.274 . S
C189 O174 1.245 . S
C189 O175 1.257 . S
C190 O179 1.259 . S
C190 O180 1.289 . S
C191 O178 1.246 . S
C191 O181 1.257 . S
C192 O182 1.274 . S
C192 O183 1.251 . S
C193 O184 1.257 . S
C193 O185 1.245 . S
O194 Co165 2.286 . S
O194 C186 1.259 . S
O195 Co165 2.069 . S
O195 C186 1.289 . S
O196 Co167 2.143 . S
O196 C187 1.246 . S
O197 Co165 2.015 . S
O197 C187 1.257 . S
Co198 O201 2.042 . S
Co198 O208 2.264 . S
Co198 O227 2.286 . S
Co198 O228 2.069 . S
Co198 O230 2.015 . S
Co199 O201 2.122 . S
Co199 O207 2.073 . S
Co199 O208 2.327 . S
Co199 O209 1.976 . S
Co200 O201 2.087 . S
Co200 O203 2.087 . S
Co200 O210 2.111 . S
Co200 O211 2.143 . S
Co200 O215 2.111 . S
Co200 O229 2.143 . S
O201 Co198 2.042 . S
O201 Co199 2.122 . S
O201 Co200 2.087 . S
O201 H202 0.980 . S
H202 O201 0.980 . S
O203 Co200 2.087 . S
O203 Co204 2.042 . S
O203 Co205 2.122 . S
O203 H206 0.980 . S
Co204 O203 2.042 . S
Co204 O212 2.286 . S
Co204 O213 2.069 . S
Co204 O214 2.015 . S
Co204 O217 2.264 . S
Co205 O203 2.122 . S
Co205 O216 1.976 . S
Co205 O217 2.327 . S
Co205 O218 2.073 . S
H206 O203 0.980 . S
O207 Co199 2.073 . S
O207 C222 1.245 . S
O208 Co198 2.264 . S
O208 Co199 2.327 . S
O208 C222 1.257 . S
O209 Co199 1.976 . S
O209 C221 1.251 . S
O210 Co200 2.111 . S
O210 C221 1.274 . S
O211 Co200 2.143 . S
O211 C224 1.246 . S
O212 Co204 2.286 . S
O212 C223 1.259 1_545 S
O213 Co204 2.069 . S
O213 C223 1.289 1_545 S
O214 Co204 2.015 . S
O214 C224 1.257 . S
O215 Co200 2.111 . S
O215 C225 1.274 . S
O216 Co205 1.976 . S
O216 C225 1.251 . S
O217 Co204 2.264 . S
O217 Co205 2.327 . S
O217 C226 1.257 . S
O218 Co205 2.073 . S
O218 C226 1.245 . S
C219 O227 1.259 . S
C219 O228 1.289 . S
C220 O229 1.246 . S
C220 O230 1.257 . S
C221 O209 1.251 . S
C221 O210 1.274 . S
C222 O207 1.245 . S
C222 O208 1.257 . S
C223 O212 1.259 1_565 S
C223 O213 1.289 1_565 S
C224 O211 1.246 . S
C224 O214 1.257 . S
C225 O215 1.274 . S
C225 O216 1.251 . S
C226 O217 1.257 . S
C226 O218 1.245 . S
O227 Co198 2.286 . S
O227 C219 1.259 . S
O228 Co198 2.069 . S
O228 C219 1.289 . S
O229 Co200 2.143 . S
O229 C220 1.246 . S
O230 Co198 2.015 . S
O230 C220 1.257 . S
Co231 O234 2.042 . S
Co231 O241 2.264 . S
Co231 O260 2.286 . S
Co231 O261 2.069 . S
Co231 O263 2.015 . S
Co232 O234 2.122 . S
Co232 O240 2.073 . S
Co232 O241 2.327 . S
Co232 O242 1.976 . S
Co233 O234 2.087 . S
Co233 O236 2.087 . S
Co233 O243 2.111 . S
Co233 O244 2.143 . S
Co233 O248 2.111 . S
Co233 O262 2.143 . S
O234 Co231 2.042 . S
O234 Co232 2.122 . S
O234 Co233 2.087 . S
O234 H235 0.980 . S
H235 O234 0.980 . S
O236 Co233 2.087 . S
O236 Co237 2.042 . S
O236 Co238 2.122 . S
O236 H239 0.980 . S
Co237 O236 2.042 . S
Co237 O245 2.286 . S
Co237 O246 2.069 . S
Co237 O247 2.015 . S
Co237 O250 2.264 . S
Co238 O236 2.122 . S
Co238 O249 1.976 . S
Co238 O250 2.327 . S
Co238 O251 2.073 . S
H239 O236 0.980 . S
O240 Co232 2.073 . S
O240 C255 1.245 . S
O241 Co231 2.264 . S
O241 Co232 2.327 . S
O241 C255 1.257 . S
O242 Co232 1.976 . S
O242 C254 1.251 . S
O243 Co233 2.111 . S
O243 C254 1.274 . S
O244 Co233 2.143 . S
O244 C257 1.246 . S
O245 Co237 2.286 . S
O245 C256 1.259 . S
O246 Co237 2.069 . S
O246 C256 1.289 . S
O247 Co237 2.015 . S
O247 C257 1.257 . S
O248 Co233 2.111 . S
O248 C258 1.274 . S
O249 Co238 1.976 . S
O249 C258 1.251 . S
O250 Co237 2.264 . S
O250 Co238 2.327 . S
O250 C259 1.257 . S
O251 Co238 2.073 . S
O251 C259 1.245 . S
C252 O260 1.259 . S
C252 O261 1.289 . S
C253 O262 1.246 . S
C253 O263 1.257 . S
C254 O242 1.251 . S
C254 O243 1.274 . S
C255 O240 1.245 . S
C255 O241 1.257 . S
C256 O245 1.259 . S
C256 O246 1.289 . S
C257 O244 1.246 . S
C257 O247 1.257 . S
C258 O248 1.274 . S
C258 O249 1.251 . S
C259 O250 1.257 . S
C259 O251 1.245 . S
O260 Co231 2.286 . S
O260 C252 1.259 . S
O261 Co231 2.069 . S
O261 C252 1.289 . S
O262 Co233 2.143 . S
O262 C253 1.246 . S
O263 Co231 2.015 . S
O263 C253 1.257 . S
Co264 O267 2.042 . S
Co264 O274 2.264 . S
Co264 O293 2.286 . S
Co264 O294 2.069 . S
Co264 O296 2.015 . S
Co265 O267 2.122 . S
Co265 O273 2.073 . S
Co265 O274 2.327 . S
Co265 O275 1.976 . S
Co266 O267 2.087 . S
Co266 O269 2.087 . S
Co266 O276 2.111 . S
Co266 O277 2.143 . S
Co266 O281 2.111 . S
Co266 O295 2.143 . S
O267 Co264 2.042 . S
O267 Co265 2.122 . S
O267 Co266 2.087 . S
O267 H268 0.980 . S
H268 O267 0.980 . S
O269 Co266 2.087 . S
O269 Co270 2.042 . S
O269 Co271 2.122 . S
O269 H272 0.980 . S
Co270 O269 2.042 . S
Co270 O278 2.286 . S
Co270 O279 2.069 . S
Co270 O280 2.015 . S
Co270 O283 2.264 . S
Co271 O269 2.122 . S
Co271 O282 1.976 . S
Co271 O283 2.327 . S
Co271 O284 2.073 . S
H272 O269 0.980 . S
O273 Co265 2.073 . S
O273 C288 1.245 . S
O274 Co264 2.264 . S
O274 Co265 2.327 . S
O274 C288 1.257 . S
O275 Co265 1.976 . S
O275 C287 1.251 . S
O276 Co266 2.111 . S
O276 C287 1.274 . S
O277 Co266 2.143 . S
O277 C290 1.246 . S
O278 Co270 2.286 . S
O278 C289 1.259 . S
O279 Co270 2.069 . S
O279 C289 1.289 . S
O280 Co270 2.015 . S
O280 C290 1.257 . S
O281 Co266 2.111 . S
O281 C291 1.274 . S
O282 Co271 1.976 . S
O282 C291 1.251 . S
O283 Co270 2.264 . S
O283 Co271 2.327 . S
O283 C292 1.257 . S
O284 Co271 2.073 . S
O284 C292 1.245 . S
C285 O293 1.259 . S
C285 O294 1.289 . S
C286 O295 1.246 . S
C286 O296 1.257 . S
C287 O275 1.251 . S
C287 O276 1.274 . S
C288 O273 1.245 . S
C288 O274 1.257 . S
C289 O278 1.259 . S
C289 O279 1.289 . S
C290 O277 1.246 . S
C290 O280 1.257 . S
C291 O281 1.274 . S
C291 O282 1.251 . S
C292 O283 1.257 . S
C292 O284 1.245 . S
O293 Co264 2.286 . S
O293 C285 1.259 . S
O294 Co264 2.069 . S
O294 C285 1.289 . S
O295 Co266 2.143 . S
O295 C286 1.246 . S
O296 Co264 2.015 . S
O296 C286 1.257 . S
Co297 O300 2.042 . S
Co297 O307 2.264 . S
Co297 O326 2.286 . S
Co297 O327 2.069 . S
Co297 O329 2.015 . S
Co298 O300 2.122 . S
Co298 O306 2.073 . S
Co298 O307 2.327 . S
Co298 O308 1.976 . S
Co299 O300 2.087 . S
Co299 O302 2.087 . S
Co299 O309 2.111 . S
Co299 O310 2.143 . S
Co299 O314 2.111 . S
Co299 O328 2.143 . S
O300 Co297 2.042 . S
O300 Co298 2.122 . S
O300 Co299 2.087 . S
O300 H301 0.980 . S
H301 O300 0.980 . S
O302 Co299 2.087 . S
O302 Co303 2.042 . S
O302 Co304 2.122 . S
O302 H305 0.980 . S
Co303 O302 2.042 . S
Co303 O311 2.286 . S
Co303 O312 2.069 . S
Co303 O313 2.015 . S
Co303 O316 2.264 . S
Co304 O302 2.122 . S
Co304 O315 1.976 . S
Co304 O316 2.327 . S
Co304 O317 2.073 . S
H305 O302 0.980 . S
O306 Co298 2.073 . S
O306 C321 1.245 . S
O307 Co297 2.264 . S
O307 Co298 2.327 . S
O307 C321 1.257 . S
O308 Co298 1.976 . S
O308 C320 1.251 . S
O309 Co299 2.111 . S
O309 C320 1.274 . S
O310 Co299 2.143 . S
O310 C323 1.246 . S
O311 Co303 2.286 . S
O311 C322 1.259 . S
O312 Co303 2.069 . S
O312 C322 1.289 . S
O313 Co303 2.015 . S
O313 C323 1.257 . S
O314 Co299 2.111 . S
O314 C324 1.274 . S
O315 Co304 1.976 . S
O315 C324 1.251 . S
O316 Co303 2.264 . S
O316 Co304 2.327 . S
O316 C325 1.257 . S
O317 Co304 2.073 . S
O317 C325 1.245 . S
C318 O326 1.259 . S
C318 O327 1.289 . S
C319 O328 1.246 . S
C319 O329 1.257 . S
C320 O308 1.251 . S
C320 O309 1.274 . S
C321 O306 1.245 . S
C321 O307 1.257 . S
C322 O311 1.259 . S
C322 O312 1.289 . S
C323 O310 1.246 . S
C323 O313 1.257 . S
C324 O314 1.274 . S
C324 O315 1.251 . S
C325 O316 1.257 . S
C325 O317 1.245 . S
O326 Co297 2.286 . S
O326 C318 1.259 . S
O327 Co297 2.069 . S
O327 C318 1.289 . S
O328 Co299 2.143 . S
O328 C319 1.246 . S
O329 Co297 2.015 . S
O329 C319 1.257 . S
Co330 O333 2.042 . S
Co330 O340 2.264 . S
Co330 O359 2.286 . S
Co330 O360 2.069 . S
Co330 O362 2.015 . S
Co331 O333 2.122 . S
Co331 O339 2.073 . S
Co331 O340 2.327 . S
Co331 O341 1.976 . S
Co332 O333 2.087 . S
Co332 O335 2.087 . S
Co332 O342 2.111 . S
Co332 O343 2.143 . S
Co332 O347 2.111 . S
Co332 O361 2.143 . S
O333 Co330 2.042 . S
O333 Co331 2.122 . S
O333 Co332 2.087 . S
O333 H334 0.980 . S
H334 O333 0.980 . S
O335 Co332 2.087 . S
O335 Co336 2.042 . S
O335 Co337 2.122 . S
O335 H338 0.980 . S
Co336 O335 2.042 . S
Co336 O344 2.286 . S
Co336 O345 2.069 . S
Co336 O346 2.015 . S
Co336 O349 2.264 . S
Co337 O335 2.122 . S
Co337 O348 1.976 . S
Co337 O349 2.327 . S
Co337 O350 2.073 . S
H338 O335 0.980 . S
O339 Co331 2.073 . S
O339 C354 1.245 . S
O340 Co330 2.264 . S
O340 Co331 2.327 . S
O340 C354 1.257 . S
O341 Co331 1.976 . S
O341 C353 1.251 . S
O342 Co332 2.111 . S
O342 C353 1.274 . S
O343 Co332 2.143 . S
O343 C356 1.246 . S
O344 Co336 2.286 . S
O344 C355 1.259 . S
O345 Co336 2.069 . S
O345 C355 1.289 . S
O346 Co336 2.015 . S
O346 C356 1.257 . S
O347 Co332 2.111 . S
O347 C357 1.274 . S
O348 Co337 1.976 . S
O348 C357 1.251 . S
O349 Co336 2.264 . S
O349 Co337 2.327 . S
O349 C358 1.257 . S
O350 Co337 2.073 . S
O350 C358 1.245 . S
C351 O359 1.259 . S
C351 O360 1.289 . S
C352 O361 1.246 . S
C352 O362 1.257 . S
C353 O341 1.251 . S
C353 O342 1.274 . S
C354 O339 1.245 . S
C354 O340 1.257 . S
C355 O344 1.259 . S
C355 O345 1.289 . S
C356 O343 1.246 . S
C356 O346 1.257 . S
C357 O347 1.274 . S
C357 O348 1.251 . S
C358 O349 1.257 . S
C358 O350 1.245 . S
O359 Co330 2.286 . S
O359 C351 1.259 . S
O360 Co330 2.069 . S
O360 C351 1.289 . S
O361 Co332 2.143 . S
O361 C352 1.246 . S
O362 Co330 2.015 . S
O362 C352 1.257 . S
Co363 O366 2.042 . S
Co363 O373 2.264 . S
Co363 O392 2.286 . S
Co363 O393 2.069 . S
Co363 O395 2.015 . S
Co364 O366 2.122 . S
Co364 O372 2.073 . S
Co364 O373 2.327 . S
Co364 O374 1.976 . S
Co365 O366 2.087 . S
Co365 O368 2.087 . S
Co365 O375 2.111 . S
Co365 O376 2.143 . S
Co365 O380 2.111 . S
Co365 O394 2.143 . S
O366 Co363 2.042 . S
O366 Co364 2.122 . S
O366 Co365 2.087 . S
O366 H367 0.980 . S
H367 O366 0.980 . S
O368 Co365 2.087 . S
O368 Co369 2.042 . S
O368 Co370 2.122 . S
O368 H371 0.980 . S
Co369 O368 2.042 . S
Co369 O377 2.286 . S
Co369 O378 2.069 . S
Co369 O379 2.015 . S
Co369 O382 2.264 . S
Co370 O368 2.122 . S
Co370 O381 1.976 . S
Co370 O382 2.327 . S
Co370 O383 2.073 . S
H371 O368 0.980 . S
O372 Co364 2.073 . S
O372 C387 1.245 . S
O373 Co363 2.264 . S
O373 Co364 2.327 . S
O373 C387 1.257 . S
O374 Co364 1.976 . S
O374 C386 1.251 . S
O375 Co365 2.111 . S
O375 C386 1.274 . S
O376 Co365 2.143 . S
O376 C389 1.246 . S
O377 Co369 2.286 . S
O377 C388 1.259 . S
O378 Co369 2.069 . S
O378 C388 1.289 . S
O379 Co369 2.015 . S
O379 C389 1.257 . S
O380 Co365 2.111 . S
O380 C390 1.274 . S
O381 Co370 1.976 . S
O381 C390 1.251 . S
O382 Co369 2.264 . S
O382 Co370 2.327 . S
O382 C391 1.257 . S
O383 Co370 2.073 . S
O383 C391 1.245 . S
C384 O392 1.259 . S
C384 O393 1.289 . S
C385 O394 1.246 . S
C385 O395 1.257 . S
C386 O374 1.251 . S
C386 O375 1.274 . S
C387 O372 1.245 . S
C387 O373 1.257 . S
C388 O377 1.259 . S
C388 O378 1.289 . S
C389 O376 1.246 . S
C389 O379 1.257 . S
C390 O380 1.274 . S
C390 O381 1.251 . S
C391 O382 1.257 . S
C391 O383 1.245 . S
O392 Co363 2.286 . S
O392 C384 1.259 . S
O393 Co363 2.069 . S
O393 C384 1.289 . S
O394 Co365 2.143 . S
O394 C385 1.246 . S
O395 Co363 2.015 . S
O395 C385 1.257 . S
Co396 O399 2.042 . S
Co396 O406 2.264 . S
Co396 O425 2.286 . S
Co396 O426 2.069 . S
Co396 O428 2.015 . S
Co397 O399 2.122 . S
Co397 O405 2.073 . S
Co397 O406 2.327 . S
Co397 O407 1.976 . S
Co398 O399 2.087 . S
Co398 O401 2.087 . S
Co398 O408 2.111 . S
Co398 O409 2.143 . S
Co398 O413 2.111 . S
Co398 O427 2.143 . S
O399 Co396 2.042 . S
O399 Co397 2.122 . S
O399 Co398 2.087 . S
O399 H400 0.980 . S
H400 O399 0.980 . S
O401 Co398 2.087 . S
O401 Co402 2.042 . S
O401 Co403 2.122 . S
O401 H404 0.980 . S
Co402 O401 2.042 . S
Co402 O410 2.286 . S
Co402 O411 2.069 . S
Co402 O412 2.015 . S
Co402 O415 2.264 . S
Co403 O401 2.122 . S
Co403 O414 1.976 . S
Co403 O415 2.327 . S
Co403 O416 2.073 . S
H404 O401 0.980 . S
O405 Co397 2.073 . S
O405 C420 1.245 . S
O406 Co396 2.264 . S
O406 Co397 2.327 . S
O406 C420 1.257 . S
O407 Co397 1.976 . S
O407 C419 1.251 . S
O408 Co398 2.111 . S
O408 C419 1.274 . S
O409 Co398 2.143 . S
O409 C422 1.246 . S
O410 Co402 2.286 . S
O410 C421 1.259 . S
O411 Co402 2.069 . S
O411 C421 1.289 . S
O412 Co402 2.015 . S
O412 C422 1.257 . S
O413 Co398 2.111 . S
O413 C423 1.274 . S
O414 Co403 1.976 . S
O414 C423 1.251 . S
O415 Co402 2.264 . S
O415 Co403 2.327 . S
O415 C424 1.257 . S
O416 Co403 2.073 . S
O416 C424 1.245 . S
C417 O425 1.259 . S
C417 O426 1.289 . S
C418 O427 1.246 . S
C418 O428 1.257 . S
C419 O407 1.251 . S
C419 O408 1.274 . S
C420 O405 1.245 . S
C420 O406 1.257 . S
C421 O410 1.259 . S
C421 O411 1.289 . S
C422 O409 1.246 . S
C422 O412 1.257 . S
C423 O413 1.274 . S
C423 O414 1.251 . S
C424 O415 1.257 . S
C424 O416 1.245 . S
O425 Co396 2.286 . S
O425 C417 1.259 . S
O426 Co396 2.069 . S
O426 C417 1.289 . S
O427 Co398 2.143 . S
O427 C418 1.246 . S
O428 Co396 2.015 . S
O428 C418 1.257 . S
Co429 O432 2.042 . S
Co429 O439 2.264 . S
Co429 O458 2.286 . S
Co429 O459 2.069 . S
Co429 O461 2.015 . S
Co430 O432 2.122 . S
Co430 O438 2.073 . S
Co430 O439 2.327 . S
Co430 O440 1.976 . S
Co431 O432 2.087 . S
Co431 O434 2.087 . S
Co431 O441 2.111 . S
Co431 O442 2.143 . S
Co431 O446 2.111 . S
Co431 O460 2.143 . S
O432 Co429 2.042 . S
O432 Co430 2.122 . S
O432 Co431 2.087 . S
O432 H433 0.980 . S
H433 O432 0.980 . S
O434 Co431 2.087 . S
O434 Co435 2.042 . S
O434 Co436 2.122 . S
O434 H437 0.980 . S
Co435 O434 2.042 . S
Co435 O443 2.286 . S
Co435 O444 2.069 . S
Co435 O445 2.015 . S
Co435 O448 2.264 . S
Co436 O434 2.122 . S
Co436 O447 1.976 . S
Co436 O448 2.327 . S
Co436 O449 2.073 . S
H437 O434 0.980 . S
O438 Co430 2.073 . S
O438 C453 1.245 . S
O439 Co429 2.264 . S
O439 Co430 2.327 . S
O439 C453 1.257 . S
O440 Co430 1.976 . S
O440 C452 1.251 . S
O441 Co431 2.111 . S
O441 C452 1.274 . S
O442 Co431 2.143 . S
O442 C455 1.246 . S
O443 Co435 2.286 . S
O443 C454 1.259 . S
O444 Co435 2.069 . S
O444 C454 1.289 . S
O445 Co435 2.015 . S
O445 C455 1.257 . S
O446 Co431 2.111 . S
O446 C456 1.274 . S
O447 Co436 1.976 . S
O447 C456 1.251 . S
O448 Co435 2.264 . S
O448 Co436 2.327 . S
O448 C457 1.257 . S
O449 Co436 2.073 . S
O449 C457 1.245 . S
C450 O458 1.259 . S
C450 O459 1.289 . S
C451 O460 1.246 . S
C451 O461 1.257 . S
C452 O440 1.251 . S
C452 O441 1.274 . S
C453 O438 1.245 . S
C453 O439 1.257 . S
C454 O443 1.259 . S
C454 O444 1.289 . S
C455 O442 1.246 . S
C455 O445 1.257 . S
C456 O446 1.274 . S
C456 O447 1.251 . S
C457 O448 1.257 . S
C457 O449 1.245 . S
O458 Co429 2.286 . S
O458 C450 1.259 . S
O459 Co429 2.069 . S
O459 C450 1.289 . S
O460 Co431 2.143 . S
O460 C451 1.246 . S
O461 Co429 2.015 . S
O461 C451 1.257 . S
Co462 O465 2.042 . S
Co462 O472 2.264 . S
Co462 O491 2.286 . S
Co462 O492 2.069 . S
Co462 O494 2.015 . S
Co463 O465 2.122 . S
Co463 O471 2.073 . S
Co463 O472 2.327 . S
Co463 O473 1.976 . S
Co464 O465 2.087 . S
Co464 O467 2.087 . S
Co464 O474 2.111 . S
Co464 O475 2.143 . S
Co464 O479 2.111 . S
Co464 O493 2.143 . S
O465 Co462 2.042 . S
O465 Co463 2.122 . S
O465 Co464 2.087 . S
O465 H466 0.980 . S
H466 O465 0.980 . S
O467 Co464 2.087 . S
O467 Co468 2.042 . S
O467 Co469 2.122 . S
O467 H470 0.980 . S
Co468 O467 2.042 . S
Co468 O476 2.286 . S
Co468 O477 2.069 . S
Co468 O478 2.015 . S
Co468 O481 2.264 . S
Co469 O467 2.122 . S
Co469 O480 1.976 . S
Co469 O481 2.327 . S
Co469 O482 2.073 . S
H470 O467 0.980 . S
O471 Co463 2.073 . S
O471 C486 1.245 . S
O472 Co462 2.264 . S
O472 Co463 2.327 . S
O472 C486 1.257 . S
O473 Co463 1.976 . S
O473 C485 1.251 . S
O474 Co464 2.111 . S
O474 C485 1.274 . S
O475 Co464 2.143 . S
O475 C488 1.246 . S
O476 Co468 2.286 . S
O476 C487 1.259 . S
O477 Co468 2.069 . S
O477 C487 1.289 . S
O478 Co468 2.015 . S
O478 C488 1.257 . S
O479 Co464 2.111 . S
O479 C489 1.274 . S
O480 Co469 1.976 . S
O480 C489 1.251 . S
O481 Co468 2.264 . S
O481 Co469 2.327 . S
O481 C490 1.257 . S
O482 Co469 2.073 . S
O482 C490 1.245 . S
C483 O491 1.259 . S
C483 O492 1.289 . S
C484 O493 1.246 . S
C484 O494 1.257 . S
C485 O473 1.251 . S
C485 O474 1.274 . S
C486 O471 1.245 . S
C486 O472 1.257 . S
C487 O476 1.259 . S
C487 O477 1.289 . S
C488 O475 1.246 . S
C488 O478 1.257 . S
C489 O479 1.274 . S
C489 O480 1.251 . S
C490 O481 1.257 . S
C490 O482 1.245 . S
O491 Co462 2.286 . S
O491 C483 1.259 . S
O492 Co462 2.069 . S
O492 C483 1.289 . S
O493 Co464 2.143 . S
O493 C484 1.246 . S
O494 Co462 2.015 . S
O494 C484 1.257 . S
Co495 O498 2.042 . S
Co495 O505 2.264 . S
Co495 O524 2.286 . S
Co495 O525 2.069 . S
Co495 O527 2.015 . S
Co496 O498 2.122 . S
Co496 O504 2.073 . S
Co496 O505 2.327 . S
Co496 O506 1.976 . S
Co497 O498 2.087 . S
Co497 O500 2.087 . S
Co497 O507 2.111 . S
Co497 O508 2.143 . S
Co497 O512 2.111 . S
Co497 O526 2.143 . S
O498 Co495 2.042 . S
O498 Co496 2.122 . S
O498 Co497 2.087 . S
O498 H499 0.980 . S
H499 O498 0.980 . S
O500 Co497 2.087 . S
O500 Co501 2.042 . S
O500 Co502 2.122 . S
O500 H503 0.980 . S
Co501 O500 2.042 . S
Co501 O509 2.286 . S
Co501 O510 2.069 . S
Co501 O511 2.015 . S
Co501 O514 2.264 . S
Co502 O500 2.122 . S
Co502 O513 1.976 . S
Co502 O514 2.327 . S
Co502 O515 2.073 . S
H503 O500 0.980 . S
O504 Co496 2.073 . S
O504 C519 1.245 . S
O505 Co495 2.264 . S
O505 Co496 2.327 . S
O505 C519 1.257 . S
O506 Co496 1.976 . S
O506 C518 1.251 . S
O507 Co497 2.111 . S
O507 C518 1.274 . S
O508 Co497 2.143 . S
O508 C521 1.246 . S
O509 Co501 2.286 . S
O509 C520 1.259 . S
O510 Co501 2.069 . S
O510 C520 1.289 . S
O511 Co501 2.015 . S
O511 C521 1.257 . S
O512 Co497 2.111 . S
O512 C522 1.274 . S
O513 Co502 1.976 . S
O513 C522 1.251 . S
O514 Co501 2.264 . S
O514 Co502 2.327 . S
O514 C523 1.257 . S
O515 Co502 2.073 . S
O515 C523 1.245 . S
C516 O524 1.259 . S
C516 O525 1.289 . S
C517 O526 1.246 . S
C517 O527 1.257 . S
C518 O506 1.251 . S
C518 O507 1.274 . S
C519 O504 1.245 . S
C519 O505 1.257 . S
C520 O509 1.259 . S
C520 O510 1.289 . S
C521 O508 1.246 . S
C521 O511 1.257 . S
C522 O512 1.274 . S
C522 O513 1.251 . S
C523 O514 1.257 . S
C523 O515 1.245 . S
O524 Co495 2.286 . S
O524 C516 1.259 . S
O525 Co495 2.069 . S
O525 C516 1.289 . S
O526 Co497 2.143 . S
O526 C517 1.246 . S
O527 Co495 2.015 . S
O527 C517 1.257 . S
Co528 O531 2.042 . S
Co528 O538 2.264 . S
Co528 O557 2.286 . S
Co528 O558 2.069 . S
Co528 O560 2.015 . S
Co529 O531 2.122 . S
Co529 O537 2.073 . S
Co529 O538 2.327 . S
Co529 O539 1.976 . S
Co530 O531 2.087 . S
Co530 O533 2.087 . S
Co530 O540 2.111 . S
Co530 O541 2.143 . S
Co530 O545 2.111 . S
Co530 O559 2.143 . S
O531 Co528 2.042 . S
O531 Co529 2.122 . S
O531 Co530 2.087 . S
O531 H532 0.980 . S
H532 O531 0.980 . S
O533 Co530 2.087 . S
O533 Co534 2.042 . S
O533 Co535 2.122 . S
O533 H536 0.980 . S
Co534 O533 2.042 . S
Co534 O542 2.286 . S
Co534 O543 2.069 . S
Co534 O544 2.015 . S
Co534 O547 2.264 . S
Co535 O533 2.122 . S
Co535 O546 1.976 . S
Co535 O547 2.327 . S
Co535 O548 2.073 . S
H536 O533 0.980 . S
O537 Co529 2.073 . S
O537 C552 1.245 . S
O538 Co528 2.264 . S
O538 Co529 2.327 . S
O538 C552 1.257 . S
O539 Co529 1.976 . S
O539 C551 1.251 . S
O540 Co530 2.111 . S
O540 C551 1.274 . S
O541 Co530 2.143 . S
O541 C554 1.246 . S
O542 Co534 2.286 . S
O542 C553 1.259 . S
O543 Co534 2.069 . S
O543 C553 1.289 . S
O544 Co534 2.015 . S
O544 C554 1.257 . S
O545 Co530 2.111 . S
O545 C555 1.274 . S
O546 Co535 1.976 . S
O546 C555 1.251 . S
O547 Co534 2.264 . S
O547 Co535 2.327 . S
O547 C556 1.257 . S
O548 Co535 2.073 . S
O548 C556 1.245 . S
C549 O557 1.259 . S
C549 O558 1.289 . S
C550 O559 1.246 . S
C550 O560 1.257 . S
C551 O539 1.251 . S
C551 O540 1.274 . S
C552 O537 1.245 . S
C552 O538 1.257 . S
C553 O542 1.259 . S
C553 O543 1.289 . S
C554 O541 1.246 . S
C554 O544 1.257 . S
C555 O545 1.274 . S
C555 O546 1.251 . S
C556 O547 1.257 . S
C556 O548 1.245 . S
O557 Co528 2.286 . S
O557 C549 1.259 . S
O558 Co528 2.069 . S
O558 C549 1.289 . S
O559 Co530 2.143 . S
O559 C550 1.246 . S
O560 Co528 2.015 . S
O560 C550 1.257 . S
Co561 O564 2.042 . S
Co561 O571 2.264 . S
Co561 O590 2.286 . S
Co561 O591 2.069 . S
Co561 O593 2.015 . S
Co562 O564 2.122 . S
Co562 O570 2.073 . S
Co562 O571 2.327 . S
Co562 O572 1.976 . S
Co563 O564 2.087 . S
Co563 O566 2.087 . S
Co563 O573 2.111 . S
Co563 O574 2.143 . S
Co563 O578 2.111 . S
Co563 O592 2.143 . S
O564 Co561 2.042 . S
O564 Co562 2.122 . S
O564 Co563 2.087 . S
O564 H565 0.980 . S
H565 O564 0.980 . S
O566 Co563 2.087 . S
O566 Co567 2.042 . S
O566 Co568 2.122 . S
O566 H569 0.980 . S
Co567 O566 2.042 . S
Co567 O575 2.286 . S
Co567 O576 2.069 . S
Co567 O577 2.015 . S
Co567 O580 2.264 . S
Co568 O566 2.122 . S
Co568 O579 1.976 . S
Co568 O580 2.327 . S
Co568 O581 2.073 . S
H569 O566 0.980 . S
O570 Co562 2.073 . S
O570 C585 1.245 . S
O571 Co561 2.264 . S
O571 Co562 2.327 . S
O571 C585 1.257 . S
O572 Co562 1.976 . S
O572 C584 1.251 . S
O573 Co563 2.111 . S
O573 C584 1.274 . S
O574 Co563 2.143 . S
O574 C587 1.246 . S
O575 Co567 2.286 . S
O575 C586 1.259 . S
O576 Co567 2.069 . S
O576 C586 1.289 . S
O577 Co567 2.015 . S
O577 C587 1.257 . S
O578 Co563 2.111 . S
O578 C588 1.274 . S
O579 Co568 1.976 . S
O579 C588 1.251 . S
O580 Co567 2.264 . S
O580 Co568 2.327 . S
O580 C589 1.257 . S
O581 Co568 2.073 . S
O581 C589 1.245 . S
C582 O590 1.259 . S
C582 O591 1.289 . S
C583 O592 1.246 . S
C583 O593 1.257 . S
C584 O572 1.251 . S
C584 O573 1.274 . S
C585 O570 1.245 . S
C585 O571 1.257 . S
C586 O575 1.259 . S
C586 O576 1.289 . S
C587 O574 1.246 . S
C587 O577 1.257 . S
C588 O578 1.274 . S
C588 O579 1.251 . S
C589 O580 1.257 . S
C589 O581 1.245 . S
O590 Co561 2.286 . S
O590 C582 1.259 . S
O591 Co561 2.069 . S
O591 C582 1.289 . S
O592 Co563 2.143 . S
O592 C583 1.246 . S
O593 Co561 2.015 . S
O593 C583 1.257 . S
Co594 O597 2.042 . S
Co594 O604 2.264 . S
Co594 O623 2.286 . S
Co594 O624 2.069 . S
Co594 O626 2.015 . S
Co595 O597 2.122 . S
Co595 O603 2.073 . S
Co595 O604 2.327 . S
Co595 O605 1.976 . S
Co596 O597 2.087 . S
Co596 O599 2.087 . S
Co596 O606 2.111 . S
Co596 O607 2.143 . S
Co596 O611 2.111 . S
Co596 O625 2.143 . S
O597 Co594 2.042 . S
O597 Co595 2.122 . S
O597 Co596 2.087 . S
O597 H598 0.980 . S
H598 O597 0.980 . S
O599 Co596 2.087 . S
O599 Co600 2.042 . S
O599 Co601 2.122 . S
O599 H602 0.980 . S
Co600 O599 2.042 . S
Co600 O608 2.286 . S
Co600 O609 2.069 . S
Co600 O610 2.015 . S
Co600 O613 2.264 . S
Co601 O599 2.122 . S
Co601 O612 1.976 . S
Co601 O613 2.327 . S
Co601 O614 2.073 . S
H602 O599 0.980 . S
O603 Co595 2.073 . S
O603 C618 1.245 . S
O604 Co594 2.264 . S
O604 Co595 2.327 . S
O604 C618 1.257 . S
O605 Co595 1.976 . S
O605 C617 1.251 . S
O606 Co596 2.111 . S
O606 C617 1.274 . S
O607 Co596 2.143 . S
O607 C620 1.246 . S
O608 Co600 2.286 . S
O608 C619 1.259 . S
O609 Co600 2.069 . S
O609 C619 1.289 . S
O610 Co600 2.015 . S
O610 C620 1.257 . S
O611 Co596 2.111 . S
O611 C621 1.274 . S
O612 Co601 1.976 . S
O612 C621 1.251 . S
O613 Co600 2.264 . S
O613 Co601 2.327 . S
O613 C622 1.257 . S
O614 Co601 2.073 . S
O614 C622 1.245 . S
C615 O623 1.259 . S
C615 O624 1.289 . S
C616 O625 1.246 . S
C616 O626 1.257 . S
C617 O605 1.251 . S
C617 O606 1.274 . S
C618 O603 1.245 . S
C618 O604 1.257 . S
C619 O608 1.259 . S
C619 O609 1.289 . S
C620 O607 1.246 . S
C620 O610 1.257 . S
C621 O611 1.274 . S
C621 O612 1.251 . S
C622 O613 1.257 . S
C622 O614 1.245 . S
O623 Co594 2.286 . S
O623 C615 1.259 . S
O624 Co594 2.069 . S
O624 C615 1.289 . S
O625 Co596 2.143 . S
O625 C616 1.246 . S
O626 Co594 2.015 . S
O626 C616 1.257 . S
Co627 O630 2.042 . S
Co627 O637 2.264 . S
Co627 O656 2.286 . S
Co627 O657 2.069 . S
Co627 O659 2.015 . S
Co628 O630 2.122 . S
Co628 O636 2.073 . S
Co628 O637 2.327 . S
Co628 O638 1.976 . S
Co629 O630 2.087 . S
Co629 O632 2.087 . S
Co629 O639 2.111 . S
Co629 O640 2.143 . S
Co629 O644 2.111 . S
Co629 O658 2.143 . S
O630 Co627 2.042 . S
O630 Co628 2.122 . S
O630 Co629 2.087 . S
O630 H631 0.980 . S
H631 O630 0.980 . S
O632 Co629 2.087 . S
O632 Co633 2.042 . S
O632 Co634 2.122 . S
O632 H635 0.980 . S
Co633 O632 2.042 . S
Co633 O641 2.286 . S
Co633 O642 2.069 . S
Co633 O643 2.015 . S
Co633 O646 2.264 . S
Co634 O632 2.122 . S
Co634 O645 1.976 . S
Co634 O646 2.327 . S
Co634 O647 2.073 . S
H635 O632 0.980 . S
O636 Co628 2.073 . S
O636 C651 1.245 . S
O637 Co627 2.264 . S
O637 Co628 2.327 . S
O637 C651 1.257 . S
O638 Co628 1.976 . S
O638 C650 1.251 . S
O639 Co629 2.111 . S
O639 C650 1.274 . S
O640 Co629 2.143 . S
O640 C653 1.246 . S
O641 Co633 2.286 . S
O641 C652 1.259 . S
O642 Co633 2.069 . S
O642 C652 1.289 . S
O643 Co633 2.015 . S
O643 C653 1.257 . S
O644 Co629 2.111 . S
O644 C654 1.274 . S
O645 Co634 1.976 . S
O645 C654 1.251 . S
O646 Co633 2.264 . S
O646 Co634 2.327 . S
O646 C655 1.257 . S
O647 Co634 2.073 . S
O647 C655 1.245 . S
C648 O656 1.259 . S
C648 O657 1.289 . S
C649 O658 1.246 . S
C649 O659 1.257 . S
C650 O638 1.251 . S
C650 O639 1.274 . S
C651 O636 1.245 . S
C651 O637 1.257 . S
C652 O641 1.259 . S
C652 O642 1.289 . S
C653 O640 1.246 . S
C653 O643 1.257 . S
C654 O644 1.274 . S
C654 O645 1.251 . S
C655 O646 1.257 . S
C655 O647 1.245 . S
O656 Co627 2.286 . S
O656 C648 1.259 . S
O657 Co627 2.069 . S
O657 C648 1.289 . S
O658 Co629 2.143 . S
O658 C649 1.246 . S
O659 Co627 2.015 . S
O659 C649 1.257 . S
Co660 O663 2.042 . S
Co660 O670 2.264 . S
Co660 O689 2.286 . S
Co660 O690 2.069 . S
Co660 O692 2.015 . S
Co661 O663 2.122 . S
Co661 O669 2.073 . S
Co661 O670 2.327 . S
Co661 O671 1.976 . S
Co662 O663 2.087 . S
Co662 O665 2.087 . S
Co662 O672 2.111 . S
Co662 O673 2.143 . S
Co662 O677 2.111 . S
Co662 O691 2.143 . S
O663 Co660 2.042 . S
O663 Co661 2.122 . S
O663 Co662 2.087 . S
O663 H664 0.980 . S
H664 O663 0.980 . S
O665 Co662 2.087 . S
O665 Co666 2.042 . S
O665 Co667 2.122 . S
O665 H668 0.980 . S
Co666 O665 2.042 . S
Co666 O674 2.286 . S
Co666 O675 2.069 . S
Co666 O676 2.015 . S
Co666 O679 2.264 . S
Co667 O665 2.122 . S
Co667 O678 1.976 . S
Co667 O679 2.327 . S
Co667 O680 2.073 . S
H668 O665 0.980 . S
O669 Co661 2.073 . S
O669 C684 1.245 . S
O670 Co660 2.264 . S
O670 Co661 2.327 . S
O670 C684 1.257 . S
O671 Co661 1.976 . S
O671 C683 1.251 . S
O672 Co662 2.111 . S
O672 C683 1.274 . S
O673 Co662 2.143 . S
O673 C686 1.246 . S
O674 Co666 2.286 . S
O674 C685 1.259 . S
O675 Co666 2.069 . S
O675 C685 1.289 . S
O676 Co666 2.015 . S
O676 C686 1.257 . S
O677 Co662 2.111 . S
O677 C687 1.274 . S
O678 Co667 1.976 . S
O678 C687 1.251 . S
O679 Co666 2.264 . S
O679 Co667 2.327 . S
O679 C688 1.257 . S
O680 Co667 2.073 . S
O680 C688 1.245 . S
C681 O689 1.259 . S
C681 O690 1.289 . S
C682 O691 1.246 . S
C682 O692 1.257 . S
C683 O671 1.251 . S
C683 O672 1.274 . S
C684 O669 1.245 . S
C684 O670 1.257 . S
C685 O674 1.259 . S
C685 O675 1.289 . S
C686 O673 1.246 . S
C686 O676 1.257 . S
C687 O677 1.274 . S
C687 O678 1.251 . S
C688 O679 1.257 . S
C688 O680 1.245 . S
O689 Co660 2.286 . S
O689 C681 1.259 . S
O690 Co660 2.069 . S
O690 C681 1.289 . S
O691 Co662 2.143 . S
O691 C682 1.246 . S
O692 Co660 2.015 . S
O692 C682 1.257 . S
Co693 O696 2.042 . S
Co693 O703 2.264 . S
Co693 O722 2.286 . S
Co693 O723 2.069 . S
Co693 O725 2.015 . S
Co694 O696 2.122 . S
Co694 O702 2.073 . S
Co694 O703 2.327 . S
Co694 O704 1.976 . S
Co695 O696 2.087 . S
Co695 O698 2.087 . S
Co695 O705 2.111 . S
Co695 O706 2.143 . S
Co695 O710 2.111 . S
Co695 O724 2.143 . S
O696 Co693 2.042 . S
O696 Co694 2.122 . S
O696 Co695 2.087 . S
O696 H697 0.980 . S
H697 O696 0.980 . S
O698 Co695 2.087 . S
O698 Co699 2.042 . S
O698 Co700 2.122 . S
O698 H701 0.980 . S
Co699 O698 2.042 . S
Co699 O707 2.286 . S
Co699 O708 2.069 . S
Co699 O709 2.015 . S
Co699 O712 2.264 . S
Co700 O698 2.122 . S
Co700 O711 1.976 . S
Co700 O712 2.327 . S
Co700 O713 2.073 . S
H701 O698 0.980 . S
O702 Co694 2.073 . S
O702 C717 1.245 . S
O703 Co693 2.264 . S
O703 Co694 2.327 . S
O703 C717 1.257 . S
O704 Co694 1.976 . S
O704 C716 1.251 . S
O705 Co695 2.111 . S
O705 C716 1.274 . S
O706 Co695 2.143 . S
O706 C719 1.246 . S
O707 Co699 2.286 . S
O707 C718 1.259 . S
O708 Co699 2.069 . S
O708 C718 1.289 . S
O709 Co699 2.015 . S
O709 C719 1.257 . S
O710 Co695 2.111 . S
O710 C720 1.274 . S
O711 Co700 1.976 . S
O711 C720 1.251 . S
O712 Co699 2.264 . S
O712 Co700 2.327 . S
O712 C721 1.257 . S
O713 Co700 2.073 . S
O713 C721 1.245 . S
C714 O722 1.259 . S
C714 O723 1.289 . S
C715 O724 1.246 . S
C715 O725 1.257 . S
C716 O704 1.251 . S
C716 O705 1.274 . S
C717 O702 1.245 . S
C717 O703 1.257 . S
C718 O707 1.259 . S
C718 O708 1.289 . S
C719 O706 1.246 . S
C719 O709 1.257 . S
C720 O710 1.274 . S
C720 O711 1.251 . S
C721 O712 1.257 . S
C721 O713 1.245 . S
O722 Co693 2.286 . S
O722 C714 1.259 . S
O723 Co693 2.069 . S
O723 C714 1.289 . S
O724 Co695 2.143 . S
O724 C715 1.246 . S
O725 Co693 2.015 . S
O725 C715 1.257 . S
Co726 O729 2.042 . S
Co726 O736 2.264 . S
Co726 O755 2.286 . S
Co726 O756 2.069 . S
Co726 O758 2.015 . S
Co727 O729 2.122 . S
Co727 O735 2.073 . S
Co727 O736 2.327 . S
Co727 O737 1.976 . S
Co728 O729 2.087 . S
Co728 O731 2.087 . S
Co728 O738 2.111 . S
Co728 O739 2.143 . S
Co728 O743 2.111 . S
Co728 O757 2.143 . S
O729 Co726 2.042 . S
O729 Co727 2.122 . S
O729 Co728 2.087 . S
O729 H730 0.980 . S
H730 O729 0.980 . S
O731 Co728 2.087 . S
O731 Co732 2.042 . S
O731 Co733 2.122 . S
O731 H734 0.980 . S
Co732 O731 2.042 . S
Co732 O740 2.286 . S
Co732 O741 2.069 . S
Co732 O742 2.015 . S
Co732 O745 2.264 . S
Co733 O731 2.122 . S
Co733 O744 1.976 . S
Co733 O745 2.327 . S
Co733 O746 2.073 . S
H734 O731 0.980 . S
O735 Co727 2.073 . S
O735 C750 1.245 . S
O736 Co726 2.264 . S
O736 Co727 2.327 . S
O736 C750 1.257 . S
O737 Co727 1.976 . S
O737 C749 1.251 . S
O738 Co728 2.111 . S
O738 C749 1.274 . S
O739 Co728 2.143 . S
O739 C752 1.246 . S
O740 Co732 2.286 . S
O740 C751 1.259 . S
O741 Co732 2.069 . S
O741 C751 1.289 . S
O742 Co732 2.015 . S
O742 C752 1.257 . S
O743 Co728 2.111 . S
O743 C753 1.274 . S
O744 Co733 1.976 . S
O744 C753 1.251 . S
O745 Co732 2.264 . S
O745 Co733 2.327 . S
O745 C754 1.257 . S
O746 Co733 2.073 . S
O746 C754 1.245 . S
C747 O755 1.259 . S
C747 O756 1.289 . S
C748 O757 1.246 . S
C748 O758 1.257 . S
C749 O737 1.251 . S
C749 O738 1.274 . S
C750 O735 1.245 . S
C750 O736 1.257 . S
C751 O740 1.259 . S
C751 O741 1.289 . S
C752 O739 1.246 . S
C752 O742 1.257 . S
C753 O743 1.274 . S
C753 O744 1.251 . S
C754 O745 1.257 . S
C754 O746 1.245 . S
O755 Co726 2.286 . S
O755 C747 1.259 . S
O756 Co726 2.069 . S
O756 C747 1.289 . S
O757 Co728 2.143 . S
O757 C748 1.246 . S
O758 Co726 2.015 . S
O758 C748 1.257 . S
Co759 O762 2.042 . S
Co759 O769 2.264 . S
Co759 O788 2.286 . S
Co759 O789 2.069 . S
Co759 O791 2.015 . S
Co760 O762 2.122 . S
Co760 O768 2.073 . S
Co760 O769 2.327 . S
Co760 O770 1.976 . S
Co761 O762 2.087 . S
Co761 O764 2.087 . S
Co761 O771 2.111 . S
Co761 O772 2.143 . S
Co761 O776 2.111 . S
Co761 O790 2.143 . S
O762 Co759 2.042 . S
O762 Co760 2.122 . S
O762 Co761 2.087 . S
O762 H763 0.980 . S
H763 O762 0.980 . S
O764 Co761 2.087 . S
O764 Co765 2.042 . S
O764 Co766 2.122 . S
O764 H767 0.980 . S
Co765 O764 2.042 . S
Co765 O773 2.286 . S
Co765 O774 2.069 . S
Co765 O775 2.015 . S
Co765 O778 2.264 . S
Co766 O764 2.122 . S
Co766 O777 1.976 . S
Co766 O778 2.327 . S
Co766 O779 2.073 . S
H767 O764 0.980 . S
O768 Co760 2.073 . S
O768 C783 1.245 . S
O769 Co759 2.264 . S
O769 Co760 2.327 . S
O769 C783 1.257 . S
O770 Co760 1.976 . S
O770 C782 1.251 . S
O771 Co761 2.111 . S
O771 C782 1.274 . S
O772 Co761 2.143 . S
O772 C785 1.246 . S
O773 Co765 2.286 . S
O773 C784 1.259 . S
O774 Co765 2.069 . S
O774 C784 1.289 . S
O775 Co765 2.015 . S
O775 C785 1.257 . S
O776 Co761 2.111 . S
O776 C786 1.274 . S
O777 Co766 1.976 . S
O777 C786 1.251 . S
O778 Co765 2.264 . S
O778 Co766 2.327 . S
O778 C787 1.257 . S
O779 Co766 2.073 . S
O779 C787 1.245 . S
C780 O788 1.259 . S
C780 O789 1.289 . S
C781 O790 1.246 . S
C781 O791 1.257 . S
C782 O770 1.251 . S
C782 O771 1.274 . S
C783 O768 1.245 . S
C783 O769 1.257 . S
C784 O773 1.259 . S
C784 O774 1.289 . S
C785 O772 1.246 . S
C785 O775 1.257 . S
C786 O776 1.274 . S
C786 O777 1.251 . S
C787 O778 1.257 . S
C787 O779 1.245 . S
O788 Co759 2.286 . S
O788 C780 1.259 . S
O789 Co759 2.069 . S
O789 C780 1.289 . S
O790 Co761 2.143 . S
O790 C781 1.246 . S
O791 Co759 2.015 . S
O791 C781 1.257 . S
Co792 O795 2.042 . S
Co792 O802 2.264 . S
Co792 O821 2.286 . S
Co792 O822 2.069 . S
Co792 O824 2.015 . S
Co793 O795 2.122 . S
Co793 O801 2.073 . S
Co793 O802 2.327 . S
Co793 O803 1.976 . S
Co794 O795 2.087 . S
Co794 O797 2.087 . S
Co794 O804 2.111 . S
Co794 O805 2.143 . S
Co794 O809 2.111 . S
Co794 O823 2.143 . S
O795 Co792 2.042 . S
O795 Co793 2.122 . S
O795 Co794 2.087 . S
O795 H796 0.980 . S
H796 O795 0.980 . S
O797 Co794 2.087 . S
O797 Co798 2.042 . S
O797 Co799 2.122 . S
O797 H800 0.980 . S
Co798 O797 2.042 . S
Co798 O806 2.286 . S
Co798 O807 2.069 . S
Co798 O808 2.015 . S
Co798 O811 2.264 . S
Co799 O797 2.122 . S
Co799 O810 1.976 . S
Co799 O811 2.327 . S
Co799 O812 2.073 . S
H800 O797 0.980 . S
O801 Co793 2.073 . S
O801 C816 1.245 . S
O802 Co792 2.264 . S
O802 Co793 2.327 . S
O802 C816 1.257 . S
O803 Co793 1.976 . S
O803 C815 1.251 . S
O804 Co794 2.111 . S
O804 C815 1.274 . S
O805 Co794 2.143 . S
O805 C818 1.246 . S
O806 Co798 2.286 . S
O806 C817 1.259 . S
O807 Co798 2.069 . S
O807 C817 1.289 . S
O808 Co798 2.015 . S
O808 C818 1.257 . S
O809 Co794 2.111 . S
O809 C819 1.274 . S
O810 Co799 1.976 . S
O810 C819 1.251 . S
O811 Co798 2.264 . S
O811 Co799 2.327 . S
O811 C820 1.257 . S
O812 Co799 2.073 . S
O812 C820 1.245 . S
C813 O821 1.259 . S
C813 O822 1.289 . S
C814 O823 1.246 . S
C814 O824 1.257 . S
C815 O803 1.251 . S
C815 O804 1.274 . S
C816 O801 1.245 . S
C816 O802 1.257 . S
C817 O806 1.259 . S
C817 O807 1.289 . S
C818 O805 1.246 . S
C818 O808 1.257 . S
C819 O809 1.274 . S
C819 O810 1.251 . S
C820 O811 1.257 . S
C820 O812 1.245 . S
O821 Co792 2.286 . S
O821 C813 1.259 . S
O822 Co792 2.069 . S
O822 C813 1.289 . S
O823 Co794 2.143 . S
O823 C814 1.246 . S
O824 Co792 2.015 . S
O824 C814 1.257 . S
Co825 O828 2.042 . S
Co825 O835 2.264 . S
Co825 O854 2.286 . S
Co825 O855 2.069 . S
Co825 O857 2.015 . S
Co826 O828 2.122 . S
Co826 O834 2.073 . S
Co826 O835 2.327 . S
Co826 O836 1.976 . S
Co827 O828 2.087 . S
Co827 O830 2.087 . S
Co827 O837 2.111 . S
Co827 O838 2.143 . S
Co827 O842 2.111 . S
Co827 O856 2.143 . S
O828 Co825 2.042 . S
O828 Co826 2.122 . S
O828 Co827 2.087 . S
O828 H829 0.980 . S
H829 O828 0.980 . S
O830 Co827 2.087 . S
O830 Co831 2.042 . S
O830 Co832 2.122 . S
O830 H833 0.980 . S
Co831 O830 2.042 . S
Co831 O839 2.286 . S
Co831 O840 2.069 . S
Co831 O841 2.015 . S
Co831 O844 2.264 . S
Co832 O830 2.122 . S
Co832 O843 1.976 . S
Co832 O844 2.327 . S
Co832 O845 2.073 . S
H833 O830 0.980 . S
O834 Co826 2.073 . S
O834 C849 1.245 . S
O835 Co825 2.264 . S
O835 Co826 2.327 . S
O835 C849 1.257 . S
O836 Co826 1.976 . S
O836 C848 1.251 . S
O837 Co827 2.111 . S
O837 C848 1.274 . S
O838 Co827 2.143 . S
O838 C851 1.246 . S
O839 Co831 2.286 . S
O839 C850 1.259 . S
O840 Co831 2.069 . S
O840 C850 1.289 . S
O841 Co831 2.015 . S
O841 C851 1.257 . S
O842 Co827 2.111 . S
O842 C852 1.274 . S
O843 Co832 1.976 . S
O843 C852 1.251 . S
O844 Co831 2.264 . S
O844 Co832 2.327 . S
O844 C853 1.257 . S
O845 Co832 2.073 . S
O845 C853 1.245 . S
C846 O854 1.259 . S
C846 O855 1.289 . S
C847 O856 1.246 . S
C847 O857 1.257 . S
C848 O836 1.251 . S
C848 O837 1.274 . S
C849 O834 1.245 . S
C849 O835 1.257 . S
C850 O839 1.259 . S
C850 O840 1.289 . S
C851 O838 1.246 . S
C851 O841 1.257 . S
C852 O842 1.274 . S
C852 O843 1.251 . S
C853 O844 1.257 . S
C853 O845 1.245 . S
O854 Co825 2.286 . S
O854 C846 1.259 . S
O855 Co825 2.069 . S
O855 C846 1.289 . S
O856 Co827 2.143 . S
O856 C847 1.246 . S
O857 Co825 2.015 . S
O857 C847 1.257 . S
Co858 O861 2.042 . S
Co858 O868 2.264 . S
Co858 O887 2.286 . S
Co858 O888 2.069 . S
Co858 O890 2.015 . S
Co859 O861 2.122 . S
Co859 O867 2.073 . S
Co859 O868 2.327 . S
Co859 O869 1.976 . S
Co860 O861 2.087 . S
Co860 O863 2.087 . S
Co860 O870 2.111 . S
Co860 O871 2.143 . S
Co860 O875 2.111 . S
Co860 O889 2.143 . S
O861 Co858 2.042 . S
O861 Co859 2.122 . S
O861 Co860 2.087 . S
O861 H862 0.980 . S
H862 O861 0.980 . S
O863 Co860 2.087 . S
O863 Co864 2.042 . S
O863 Co865 2.122 . S
O863 H866 0.980 . S
Co864 O863 2.042 . S
Co864 O872 2.286 . S
Co864 O873 2.069 . S
Co864 O874 2.015 . S
Co864 O877 2.264 . S
Co865 O863 2.122 . S
Co865 O876 1.976 . S
Co865 O877 2.327 . S
Co865 O878 2.073 . S
H866 O863 0.980 . S
O867 Co859 2.073 . S
O867 C882 1.245 . S
O868 Co858 2.264 . S
O868 Co859 2.327 . S
O868 C882 1.257 . S
O869 Co859 1.976 . S
O869 C881 1.251 . S
O870 Co860 2.111 . S
O870 C881 1.274 . S
O871 Co860 2.143 . S
O871 C884 1.246 . S
O872 Co864 2.286 . S
O872 C883 1.259 . S
O873 Co864 2.069 . S
O873 C883 1.289 . S
O874 Co864 2.015 . S
O874 C884 1.257 . S
O875 Co860 2.111 . S
O875 C885 1.274 . S
O876 Co865 1.976 . S
O876 C885 1.251 . S
O877 Co864 2.264 . S
O877 Co865 2.327 . S
O877 C886 1.257 . S
O878 Co865 2.073 . S
O878 C886 1.245 . S
C879 O887 1.259 . S
C879 O888 1.289 . S
C880 O889 1.246 . S
C880 O890 1.257 . S
C881 O869 1.251 . S
C881 O870 1.274 . S
C882 O867 1.245 . S
C882 O868 1.257 . S
C883 O872 1.259 . S
C883 O873 1.289 . S
C884 O871 1.246 . S
C884 O874 1.257 . S
C885 O875 1.274 . S
C885 O876 1.251 . S
C886 O877 1.257 . S
C886 O878 1.245 . S
O887 Co858 2.286 . S
O887 C879 1.259 . S
O888 Co858 2.069 . S
O888 C879 1.289 . S
O889 Co860 2.143 . S
O889 C880 1.246 . S
O890 Co858 2.015 . S
O890 C880 1.257 . S
Co891 O894 2.042 . S
Co891 O901 2.264 . S
Co891 O920 2.286 . S
Co891 O921 2.069 . S
Co891 O923 2.015 . S
Co892 O894 2.122 . S
Co892 O900 2.073 . S
Co892 O901 2.327 . S
Co892 O902 1.976 . S
Co893 O894 2.087 . S
Co893 O896 2.087 . S
Co893 O903 2.111 . S
Co893 O904 2.143 . S
Co893 O908 2.111 . S
Co893 O922 2.143 . S
O894 Co891 2.042 . S
O894 Co892 2.122 . S
O894 Co893 2.087 . S
O894 H895 0.980 . S
H895 O894 0.980 . S
O896 Co893 2.087 . S
O896 Co897 2.042 . S
O896 Co898 2.122 . S
O896 H899 0.980 . S
Co897 O896 2.042 . S
Co897 O905 2.286 . S
Co897 O906 2.069 . S
Co897 O907 2.015 . S
Co897 O910 2.264 . S
Co898 O896 2.122 . S
Co898 O909 1.976 . S
Co898 O910 2.327 . S
Co898 O911 2.073 . S
H899 O896 0.980 . S
O900 Co892 2.073 . S
O900 C915 1.245 . S
O901 Co891 2.264 . S
O901 Co892 2.327 . S
O901 C915 1.257 . S
O902 Co892 1.976 . S
O902 C914 1.251 . S
O903 Co893 2.111 . S
O903 C914 1.274 . S
O904 Co893 2.143 . S
O904 C917 1.246 . S
O905 Co897 2.286 . S
O905 C916 1.259 . S
O906 Co897 2.069 . S
O906 C916 1.289 . S
O907 Co897 2.015 . S
O907 C917 1.257 . S
O908 Co893 2.111 . S
O908 C918 1.274 . S
O909 Co898 1.976 . S
O909 C918 1.251 . S
O910 Co897 2.264 . S
O910 Co898 2.327 . S
O910 C919 1.257 . S
O911 Co898 2.073 . S
O911 C919 1.245 . S
C912 O920 1.259 . S
C912 O921 1.289 . S
C913 O922 1.246 . S
C913 O923 1.257 . S
C914 O902 1.251 . S
C914 O903 1.274 . S
C915 O900 1.245 . S
C915 O901 1.257 . S
C916 O905 1.259 . S
C916 O906 1.289 . S
C917 O904 1.246 . S
C917 O907 1.257 . S
C918 O908 1.274 . S
C918 O909 1.251 . S
C919 O910 1.257 . S
C919 O911 1.245 . S
O920 Co891 2.286 . S
O920 C912 1.259 . S
O921 Co891 2.069 . S
O921 C912 1.289 . S
O922 Co893 2.143 . S
O922 C913 1.246 . S
O923 Co891 2.015 . S
O923 C913 1.257 . S
Co924 O927 2.042 . S
Co924 O934 2.264 . S
Co924 O953 2.286 . S
Co924 O954 2.069 . S
Co924 O956 2.015 . S
Co925 O927 2.122 . S
Co925 O933 2.073 . S
Co925 O934 2.327 . S
Co925 O935 1.976 . S
Co926 O927 2.087 . S
Co926 O929 2.087 . S
Co926 O936 2.111 . S
Co926 O937 2.143 . S
Co926 O941 2.111 . S
Co926 O955 2.143 . S
O927 Co924 2.042 . S
O927 Co925 2.122 . S
O927 Co926 2.087 . S
O927 H928 0.980 . S
H928 O927 0.980 . S
O929 Co926 2.087 . S
O929 Co930 2.042 . S
O929 Co931 2.122 . S
O929 H932 0.980 . S
Co930 O929 2.042 . S
Co930 O938 2.286 . S
Co930 O939 2.069 . S
Co930 O940 2.015 . S
Co930 O943 2.264 . S
Co931 O929 2.122 . S
Co931 O942 1.976 . S
Co931 O943 2.327 . S
Co931 O944 2.073 . S
H932 O929 0.980 . S
O933 Co925 2.073 . S
O933 C948 1.245 . S
O934 Co924 2.264 . S
O934 Co925 2.327 . S
O934 C948 1.257 . S
O935 Co925 1.976 . S
O935 C947 1.251 . S
O936 Co926 2.111 . S
O936 C947 1.274 . S
O937 Co926 2.143 . S
O937 C950 1.246 . S
O938 Co930 2.286 . S
O938 C949 1.259 . S
O939 Co930 2.069 . S
O939 C949 1.289 . S
O940 Co930 2.015 . S
O940 C950 1.257 . S
O941 Co926 2.111 . S
O941 C951 1.274 . S
O942 Co931 1.976 . S
O942 C951 1.251 . S
O943 Co930 2.264 . S
O943 Co931 2.327 . S
O943 C952 1.257 . S
O944 Co931 2.073 . S
O944 C952 1.245 . S
C945 O953 1.259 . S
C945 O954 1.289 . S
C946 O955 1.246 . S
C946 O956 1.257 . S
C947 O935 1.251 . S
C947 O936 1.274 . S
C948 O933 1.245 . S
C948 O934 1.257 . S
C949 O938 1.259 . S
C949 O939 1.289 . S
C950 O937 1.246 . S
C950 O940 1.257 . S
C951 O941 1.274 . S
C951 O942 1.251 . S
C952 O943 1.257 . S
C952 O944 1.245 . S
O953 Co924 2.286 . S
O953 C945 1.259 . S
O954 Co924 2.069 . S
O954 C945 1.289 . S
O955 Co926 2.143 . S
O955 C946 1.246 . S
O956 Co924 2.015 . S
O956 C946 1.257 . S
Co957 O960 2.042 . S
Co957 O967 2.264 . S
Co957 O986 2.286 . S
Co957 O987 2.069 . S
Co957 O989 2.015 . S
Co958 O960 2.122 . S
Co958 O966 2.073 . S
Co958 O967 2.327 . S
Co958 O968 1.976 . S
Co959 O960 2.087 . S
Co959 O962 2.087 . S
Co959 O969 2.111 . S
Co959 O970 2.143 . S
Co959 O974 2.111 . S
Co959 O988 2.143 . S
O960 Co957 2.042 . S
O960 Co958 2.122 . S
O960 Co959 2.087 . S
O960 H961 0.980 . S
H961 O960 0.980 . S
O962 Co959 2.087 . S
O962 Co963 2.042 . S
O962 Co964 2.122 . S
O962 H965 0.980 . S
Co963 O962 2.042 . S
Co963 O971 2.286 . S
Co963 O972 2.069 . S
Co963 O973 2.015 . S
Co963 O976 2.264 . S
Co964 O962 2.122 . S
Co964 O975 1.976 . S
Co964 O976 2.327 . S
Co964 O977 2.073 . S
H965 O962 0.980 . S
O966 Co958 2.073 . S
O966 C981 1.245 . S
O967 Co957 2.264 . S
O967 Co958 2.327 . S
O967 C981 1.257 . S
O968 Co958 1.976 . S
O968 C980 1.251 . S
O969 Co959 2.111 . S
O969 C980 1.274 . S
O970 Co959 2.143 . S
O970 C983 1.246 . S
O971 Co963 2.286 . S
O971 C982 1.259 . S
O972 Co963 2.069 . S
O972 C982 1.289 . S
O973 Co963 2.015 . S
O973 C983 1.257 . S
O974 Co959 2.111 . S
O974 C984 1.274 . S
O975 Co964 1.976 . S
O975 C984 1.251 . S
O976 Co963 2.264 . S
O976 Co964 2.327 . S
O976 C985 1.257 . S
O977 Co964 2.073 . S
O977 C985 1.245 . S
C978 O986 1.259 . S
C978 O987 1.289 . S
C979 O988 1.246 . S
C979 O989 1.257 . S
C980 O968 1.251 . S
C980 O969 1.274 . S
C981 O966 1.245 . S
C981 O967 1.257 . S
C982 O971 1.259 . S
C982 O972 1.289 . S
C983 O970 1.246 . S
C983 O973 1.257 . S
C984 O974 1.274 . S
C984 O975 1.251 . S
C985 O976 1.257 . S
C985 O977 1.245 . S
O986 Co957 2.286 . S
O986 C978 1.259 . S
O987 Co957 2.069 . S
O987 C978 1.289 . S
O988 Co959 2.143 . S
O988 C979 1.246 . S
O989 Co957 2.015 . S
O989 C979 1.257 . S
Co990 O993 2.042 . S
Co990 O1000 2.264 . S
Co990 O1019 2.286 . S
Co990 O1020 2.069 . S
Co990 O1022 2.015 . S
Co991 O993 2.122 . S
Co991 O999 2.073 . S
Co991 O1000 2.327 . S
Co991 O1001 1.976 . S
Co992 O993 2.087 . S
Co992 O995 2.087 . S
Co992 O1002 2.111 . S
Co992 O1003 2.143 . S
Co992 O1007 2.111 . S
Co992 O1021 2.143 . S
O993 Co990 2.042 . S
O993 Co991 2.122 . S
O993 Co992 2.087 . S
O993 H994 0.980 . S
H994 O993 0.980 . S
O995 Co992 2.087 . S
O995 Co996 2.042 . S
O995 Co997 2.122 . S
O995 H998 0.980 . S
Co996 O995 2.042 . S
Co996 O1004 2.286 . S
Co996 O1005 2.069 . S
Co996 O1006 2.015 . S
Co996 O1009 2.264 . S
Co997 O995 2.122 . S
Co997 O1008 1.976 . S
Co997 O1009 2.327 . S
Co997 O1010 2.073 . S
H998 O995 0.980 . S
O999 Co991 2.073 . S
O999 C1014 1.245 . S
O1000 Co990 2.264 . S
O1000 Co991 2.327 . S
O1000 C1014 1.257 . S
O1001 Co991 1.976 . S
O1001 C1013 1.251 . S
O1002 Co992 2.111 . S
O1002 C1013 1.274 . S
O1003 Co992 2.143 . S
O1003 C1016 1.246 . S
O1004 Co996 2.286 . S
O1004 C1015 1.259 . S
O1005 Co996 2.069 . S
O1005 C1015 1.289 . S
O1006 Co996 2.015 . S
O1006 C1016 1.257 . S
O1007 Co992 2.111 . S
O1007 C1017 1.274 . S
O1008 Co997 1.976 . S
O1008 C1017 1.251 . S
O1009 Co996 2.264 . S
O1009 Co997 2.327 . S
O1009 C1018 1.257 . S
O1010 Co997 2.073 . S
O1010 C1018 1.245 . S
C1011 O1019 1.259 . S
C1011 O1020 1.289 . S
C1012 O1021 1.246 . S
C1012 O1022 1.257 . S
C1013 O1001 1.251 . S
C1013 O1002 1.274 . S
C1014 O999 1.245 . S
C1014 O1000 1.257 . S
C1015 O1004 1.259 . S
C1015 O1005 1.289 . S
C1016 O1003 1.246 . S
C1016 O1006 1.257 . S
C1017 O1007 1.274 . S
C1017 O1008 1.251 . S
C1018 O1009 1.257 . S
C1018 O1010 1.245 . S
O1019 Co990 2.286 . S
O1019 C1011 1.259 . S
O1020 Co990 2.069 . S
O1020 C1011 1.289 . S
O1021 Co992 2.143 . S
O1021 C1012 1.246 . S
O1022 Co990 2.015 . S
O1022 C1012 1.257 . S
Co1023 O1026 2.042 . S
Co1023 O1033 2.264 . S
Co1023 O1052 2.286 . S
Co1023 O1053 2.069 . S
Co1023 O1055 2.015 . S
Co1024 O1026 2.122 . S
Co1024 O1032 2.073 . S
Co1024 O1033 2.327 . S
Co1024 O1034 1.976 . S
Co1025 O1026 2.087 . S
Co1025 O1028 2.087 . S
Co1025 O1035 2.111 . S
Co1025 O1036 2.143 . S
Co1025 O1040 2.111 . S
Co1025 O1054 2.143 . S
O1026 Co1023 2.042 . S
O1026 Co1024 2.122 . S
O1026 Co1025 2.087 . S
O1026 H1027 0.980 . S
H1027 O1026 0.980 . S
O1028 Co1025 2.087 . S
O1028 Co1029 2.042 . S
O1028 Co1030 2.122 . S
O1028 H1031 0.980 . S
Co1029 O1028 2.042 . S
Co1029 O1037 2.286 . S
Co1029 O1038 2.069 . S
Co1029 O1039 2.015 . S
Co1029 O1042 2.264 . S
Co1030 O1028 2.122 . S
Co1030 O1041 1.976 . S
Co1030 O1042 2.327 . S
Co1030 O1043 2.073 . S
H1031 O1028 0.980 . S
O1032 Co1024 2.073 . S
O1032 C1047 1.245 . S
O1033 Co1023 2.264 . S
O1033 Co1024 2.327 . S
O1033 C1047 1.257 . S
O1034 Co1024 1.976 . S
O1034 C1046 1.251 . S
O1035 Co1025 2.111 . S
O1035 C1046 1.274 . S
O1036 Co1025 2.143 . S
O1036 C1049 1.246 . S
O1037 Co1029 2.286 . S
O1037 C1048 1.259 . S
O1038 Co1029 2.069 . S
O1038 C1048 1.289 . S
O1039 Co1029 2.015 . S
O1039 C1049 1.257 . S
O1040 Co1025 2.111 . S
O1040 C1050 1.274 . S
O1041 Co1030 1.976 . S
O1041 C1050 1.251 . S
O1042 Co1029 2.264 . S
O1042 Co1030 2.327 . S
O1042 C1051 1.257 . S
O1043 Co1030 2.073 . S
O1043 C1051 1.245 . S
C1044 O1052 1.259 . S
C1044 O1053 1.289 . S
C1045 O1054 1.246 . S
C1045 O1055 1.257 . S
C1046 O1034 1.251 . S
C1046 O1035 1.274 . S
C1047 O1032 1.245 . S
C1047 O1033 1.257 . S
C1048 O1037 1.259 . S
C1048 O1038 1.289 . S
C1049 O1036 1.246 . S
C1049 O1039 1.257 . S
C1050 O1040 1.274 . S
C1050 O1041 1.251 . S
C1051 O1042 1.257 . S
C1051 O1043 1.245 . S
O1052 Co1023 2.286 . S
O1052 C1044 1.259 . S
O1053 Co1023 2.069 . S
O1053 C1044 1.289 . S
O1054 Co1025 2.143 . S
O1054 C1045 1.246 . S
O1055 Co1023 2.015 . S
O1055 C1045 1.257 . S
Co1056 O1059 2.042 . S
Co1056 O1066 2.264 . S
Co1056 O1085 2.286 . S
Co1056 O1086 2.069 . S
Co1056 O1088 2.015 . S
Co1057 O1059 2.122 . S
Co1057 O1065 2.073 . S
Co1057 O1066 2.327 . S
Co1057 O1067 1.976 . S
Co1058 O1059 2.087 . S
Co1058 O1061 2.087 . S
Co1058 O1068 2.111 . S
Co1058 O1069 2.143 . S
Co1058 O1073 2.111 . S
Co1058 O1087 2.143 . S
O1059 Co1056 2.042 . S
O1059 Co1057 2.122 . S
O1059 Co1058 2.087 . S
O1059 H1060 0.980 . S
H1060 O1059 0.980 . S
O1061 Co1058 2.087 . S
O1061 Co1062 2.042 . S
O1061 Co1063 2.122 . S
O1061 H1064 0.980 . S
Co1062 O1061 2.042 . S
Co1062 O1070 2.286 . S
Co1062 O1071 2.069 . S
Co1062 O1072 2.015 . S
Co1062 O1075 2.264 . S
Co1063 O1061 2.122 . S
Co1063 O1074 1.976 . S
Co1063 O1075 2.327 . S
Co1063 O1076 2.073 . S
H1064 O1061 0.980 . S
O1065 Co1057 2.073 . S
O1065 C1080 1.245 . S
O1066 Co1056 2.264 . S
O1066 Co1057 2.327 . S
O1066 C1080 1.257 . S
O1067 Co1057 1.976 . S
O1067 C1079 1.251 . S
O1068 Co1058 2.111 . S
O1068 C1079 1.274 . S
O1069 Co1058 2.143 . S
O1069 C1082 1.246 . S
O1070 Co1062 2.286 . S
O1070 C1081 1.259 . S
O1071 Co1062 2.069 . S
O1071 C1081 1.289 . S
O1072 Co1062 2.015 . S
O1072 C1082 1.257 . S
O1073 Co1058 2.111 . S
O1073 C1083 1.274 . S
O1074 Co1063 1.976 . S
O1074 C1083 1.251 . S
O1075 Co1062 2.264 . S
O1075 Co1063 2.327 . S
O1075 C1084 1.257 . S
O1076 Co1063 2.073 . S
O1076 C1084 1.245 . S
C1077 O1085 1.259 . S
C1077 O1086 1.289 . S
C1078 O1087 1.246 . S
C1078 O1088 1.257 . S
C1079 O1067 1.251 . S
C1079 O1068 1.274 . S
C1080 O1065 1.245 . S
C1080 O1066 1.257 . S
C1081 O1070 1.259 . S
C1081 O1071 1.289 . S
C1082 O1069 1.246 . S
C1082 O1072 1.257 . S
C1083 O1073 1.274 . S
C1083 O1074 1.251 . S
C1084 O1075 1.257 . S
C1084 O1076 1.245 . S
O1085 Co1056 2.286 . S
O1085 C1077 1.259 . S
O1086 Co1056 2.069 . S
O1086 C1077 1.289 . S
O1087 Co1058 2.143 . S
O1087 C1078 1.246 . S
O1088 Co1056 2.015 . S
O1088 C1078 1.257 . S
Co1089 O1092 2.042 . S
Co1089 O1099 2.264 . S
Co1089 O1118 2.286 . S
Co1089 O1119 2.069 . S
Co1089 O1121 2.015 . S
Co1090 O1092 2.122 . S
Co1090 O1098 2.073 . S
Co1090 O1099 2.327 . S
Co1090 O1100 1.976 . S
Co1091 O1092 2.087 . S
Co1091 O1094 2.087 . S
Co1091 O1101 2.111 . S
Co1091 O1102 2.143 . S
Co1091 O1106 2.111 . S
Co1091 O1120 2.143 . S
O1092 Co1089 2.042 . S
O1092 Co1090 2.122 . S
O1092 Co1091 2.087 . S
O1092 H1093 0.980 . S
H1093 O1092 0.980 . S
O1094 Co1091 2.087 . S
O1094 Co1095 2.042 . S
O1094 Co1096 2.122 . S
O1094 H1097 0.980 . S
Co1095 O1094 2.042 . S
Co1095 O1103 2.286 . S
Co1095 O1104 2.069 . S
Co1095 O1105 2.015 . S
Co1095 O1108 2.264 . S
Co1096 O1094 2.122 . S
Co1096 O1107 1.976 . S
Co1096 O1108 2.327 . S
Co1096 O1109 2.073 . S
H1097 O1094 0.980 . S
O1098 Co1090 2.073 . S
O1098 C1113 1.245 . S
O1099 Co1089 2.264 . S
O1099 Co1090 2.327 . S
O1099 C1113 1.257 . S
O1100 Co1090 1.976 . S
O1100 C1112 1.251 . S
O1101 Co1091 2.111 . S
O1101 C1112 1.274 . S
O1102 Co1091 2.143 . S
O1102 C1115 1.246 . S
O1103 Co1095 2.286 . S
O1103 C1114 1.259 . S
O1104 Co1095 2.069 . S
O1104 C1114 1.289 . S
O1105 Co1095 2.015 . S
O1105 C1115 1.257 . S
O1106 Co1091 2.111 . S
O1106 C1116 1.274 . S
O1107 Co1096 1.976 . S
O1107 C1116 1.251 . S
O1108 Co1095 2.264 . S
O1108 Co1096 2.327 . S
O1108 C1117 1.257 . S
O1109 Co1096 2.073 . S
O1109 C1117 1.245 . S
C1110 O1118 1.259 . S
C1110 O1119 1.289 . S
C1111 O1120 1.246 . S
C1111 O1121 1.257 . S
C1112 O1100 1.251 . S
C1112 O1101 1.274 . S
C1113 O1098 1.245 . S
C1113 O1099 1.257 . S
C1114 O1103 1.259 . S
C1114 O1104 1.289 . S
C1115 O1102 1.246 . S
C1115 O1105 1.257 . S
C1116 O1106 1.274 . S
C1116 O1107 1.251 . S
C1117 O1108 1.257 . S
C1117 O1109 1.245 . S
O1118 Co1089 2.286 . S
O1118 C1110 1.259 . S
O1119 Co1089 2.069 . S
O1119 C1110 1.289 . S
O1120 Co1091 2.143 . S
O1120 C1111 1.246 . S
O1121 Co1089 2.015 . S
O1121 C1111 1.257 . S
Co1122 O1125 2.042 . S
Co1122 O1132 2.264 . S
Co1122 O1151 2.286 . S
Co1122 O1152 2.069 . S
Co1122 O1154 2.015 . S
Co1123 O1125 2.122 . S
Co1123 O1131 2.073 . S
Co1123 O1132 2.327 . S
Co1123 O1133 1.976 . S
Co1124 O1125 2.087 . S
Co1124 O1127 2.087 . S
Co1124 O1134 2.111 . S
Co1124 O1135 2.143 . S
Co1124 O1139 2.111 . S
Co1124 O1153 2.143 . S
O1125 Co1122 2.042 . S
O1125 Co1123 2.122 . S
O1125 Co1124 2.087 . S
O1125 H1126 0.980 . S
H1126 O1125 0.980 . S
O1127 Co1124 2.087 . S
O1127 Co1128 2.042 . S
O1127 Co1129 2.122 . S
O1127 H1130 0.980 . S
Co1128 O1127 2.042 . S
Co1128 O1136 2.286 . S
Co1128 O1137 2.069 . S
Co1128 O1138 2.015 . S
Co1128 O1141 2.264 . S
Co1129 O1127 2.122 . S
Co1129 O1140 1.976 . S
Co1129 O1141 2.327 . S
Co1129 O1142 2.073 . S
H1130 O1127 0.980 . S
O1131 Co1123 2.073 . S
O1131 C1146 1.245 . S
O1132 Co1122 2.264 . S
O1132 Co1123 2.327 . S
O1132 C1146 1.257 . S
O1133 Co1123 1.976 . S
O1133 C1145 1.251 . S
O1134 Co1124 2.111 . S
O1134 C1145 1.274 . S
O1135 Co1124 2.143 . S
O1135 C1148 1.246 . S
O1136 Co1128 2.286 . S
O1136 C1147 1.259 . S
O1137 Co1128 2.069 . S
O1137 C1147 1.289 . S
O1138 Co1128 2.015 . S
O1138 C1148 1.257 . S
O1139 Co1124 2.111 . S
O1139 C1149 1.274 . S
O1140 Co1129 1.976 . S
O1140 C1149 1.251 . S
O1141 Co1128 2.264 . S
O1141 Co1129 2.327 . S
O1141 C1150 1.257 . S
O1142 Co1129 2.073 . S
O1142 C1150 1.245 . S
C1143 O1151 1.259 . S
C1143 O1152 1.289 . S
C1144 O1153 1.246 . S
C1144 O1154 1.257 . S
C1145 O1133 1.251 . S
C1145 O1134 1.274 . S
C1146 O1131 1.245 . S
C1146 O1132 1.257 . S
C1147 O1136 1.259 . S
C1147 O1137 1.289 . S
C1148 O1135 1.246 . S
C1148 O1138 1.257 . S
C1149 O1139 1.274 . S
C1149 O1140 1.251 . S
C1150 O1141 1.257 . S
C1150 O1142 1.245 . S
O1151 Co1122 2.286 . S
O1151 C1143 1.259 . S
O1152 Co1122 2.069 . S
O1152 C1143 1.289 . S
O1153 Co1124 2.143 . S
O1153 C1144 1.246 . S
O1154 Co1122 2.015 . S
O1154 C1144 1.257 . S
Co1155 O1158 2.042 . S
Co1155 O1165 2.264 . S
Co1155 O1184 2.286 . S
Co1155 O1185 2.069 . S
Co1155 O1187 2.015 . S
Co1156 O1158 2.122 . S
Co1156 O1164 2.073 . S
Co1156 O1165 2.327 . S
Co1156 O1166 1.976 . S
Co1157 O1158 2.087 . S
Co1157 O1160 2.087 . S
Co1157 O1167 2.111 . S
Co1157 O1168 2.143 . S
Co1157 O1172 2.111 . S
Co1157 O1186 2.143 . S
O1158 Co1155 2.042 . S
O1158 Co1156 2.122 . S
O1158 Co1157 2.087 . S
O1158 H1159 0.980 . S
H1159 O1158 0.980 . S
O1160 Co1157 2.087 . S
O1160 Co1161 2.042 . S
O1160 Co1162 2.122 . S
O1160 H1163 0.980 . S
Co1161 O1160 2.042 . S
Co1161 O1169 2.286 . S
Co1161 O1170 2.069 . S
Co1161 O1171 2.015 . S
Co1161 O1174 2.264 . S
Co1162 O1160 2.122 . S
Co1162 O1173 1.976 . S
Co1162 O1174 2.327 . S
Co1162 O1175 2.073 . S
H1163 O1160 0.980 . S
O1164 Co1156 2.073 . S
O1164 C1179 1.245 . S
O1165 Co1155 2.264 . S
O1165 Co1156 2.327 . S
O1165 C1179 1.257 . S
O1166 Co1156 1.976 . S
O1166 C1178 1.251 . S
O1167 Co1157 2.111 . S
O1167 C1178 1.274 . S
O1168 Co1157 2.143 . S
O1168 C1181 1.246 . S
O1169 Co1161 2.286 . S
O1169 C1180 1.259 . S
O1170 Co1161 2.069 . S
O1170 C1180 1.289 . S
O1171 Co1161 2.015 . S
O1171 C1181 1.257 . S
O1172 Co1157 2.111 . S
O1172 C1182 1.274 . S
O1173 Co1162 1.976 . S
O1173 C1182 1.251 . S
O1174 Co1161 2.264 . S
O1174 Co1162 2.327 . S
O1174 C1183 1.257 . S
O1175 Co1162 2.073 . S
O1175 C1183 1.245 . S
C1176 O1184 1.259 . S
C1176 O1185 1.289 . S
C1177 O1186 1.246 . S
C1177 O1187 1.257 . S
C1178 O1166 1.251 . S
C1178 O1167 1.274 . S
C1179 O1164 1.245 . S
C1179 O1165 1.257 . S
C1180 O1169 1.259 . S
C1180 O1170 1.289 . S
C1181 O1168 1.246 . S
C1181 O1171 1.257 . S
C1182 O1172 1.274 . S
C1182 O1173 1.251 . S
C1183 O1174 1.257 . S
C1183 O1175 1.245 . S
O1184 Co1155 2.286 . S
O1184 C1176 1.259 . S
O1185 Co1155 2.069 . S
O1185 C1176 1.289 . S
O1186 Co1157 2.143 . S
O1186 C1177 1.246 . S
O1187 Co1155 2.015 . S
O1187 C1177 1.257 . S
Co1188 O1191 2.042 . S
Co1188 O1198 2.264 . S
Co1188 O1217 2.286 . S
Co1188 O1218 2.069 . S
Co1188 O1220 2.015 . S
Co1189 O1191 2.122 . S
Co1189 O1197 2.073 . S
Co1189 O1198 2.327 . S
Co1189 O1199 1.976 . S
Co1190 O1191 2.087 . S
Co1190 O1193 2.087 . S
Co1190 O1200 2.111 . S
Co1190 O1201 2.143 . S
Co1190 O1205 2.111 . S
Co1190 O1219 2.143 . S
O1191 Co1188 2.042 . S
O1191 Co1189 2.122 . S
O1191 Co1190 2.087 . S
O1191 H1192 0.980 . S
H1192 O1191 0.980 . S
O1193 Co1190 2.087 . S
O1193 Co1194 2.042 . S
O1193 Co1195 2.122 . S
O1193 H1196 0.980 . S
Co1194 O1193 2.042 . S
Co1194 O1202 2.286 . S
Co1194 O1203 2.069 . S
Co1194 O1204 2.015 . S
Co1194 O1207 2.264 . S
Co1195 O1193 2.122 . S
Co1195 O1206 1.976 . S
Co1195 O1207 2.327 . S
Co1195 O1208 2.073 . S
H1196 O1193 0.980 . S
O1197 Co1189 2.073 . S
O1197 C1212 1.245 . S
O1198 Co1188 2.264 . S
O1198 Co1189 2.327 . S
O1198 C1212 1.257 . S
O1199 Co1189 1.976 . S
O1199 C1211 1.251 . S
O1200 Co1190 2.111 . S
O1200 C1211 1.274 . S
O1201 Co1190 2.143 . S
O1201 C1214 1.246 . S
O1202 Co1194 2.286 . S
O1202 C1213 1.259 . S
O1203 Co1194 2.069 . S
O1203 C1213 1.289 . S
O1204 Co1194 2.015 . S
O1204 C1214 1.257 . S
O1205 Co1190 2.111 . S
O1205 C1215 1.274 . S
O1206 Co1195 1.976 . S
O1206 C1215 1.251 . S
O1207 Co1194 2.264 . S
O1207 Co1195 2.327 . S
O1207 C1216 1.257 . S
O1208 Co1195 2.073 . S
O1208 C1216 1.245 . S
C1209 O1217 1.259 . S
C1209 O1218 1.289 . S
C1210 O1219 1.246 . S
C1210 O1220 1.257 . S
C1211 O1199 1.251 . S
C1211 O1200 1.274 . S
C1212 O1197 1.245 . S
C1212 O1198 1.257 . S
C1213 O1202 1.259 . S
C1213 O1203 1.289 . S
C1214 O1201 1.246 . S
C1214 O1204 1.257 . S
C1215 O1205 1.274 . S
C1215 O1206 1.251 . S
C1216 O1207 1.257 . S
C1216 O1208 1.245 . S
O1217 Co1188 2.286 . S
O1217 C1209 1.259 . S
O1218 Co1188 2.069 . S
O1218 C1209 1.289 . S
O1219 Co1190 2.143 . S
O1219 C1210 1.246 . S
O1220 Co1188 2.015 . S
O1220 C1210 1.257 . S
Co1221 O1224 2.042 . S
Co1221 O1231 2.264 . S
Co1221 O1250 2.286 . S
Co1221 O1251 2.069 . S
Co1221 O1253 2.015 . S
Co1222 O1224 2.122 . S
Co1222 O1230 2.073 . S
Co1222 O1231 2.327 . S
Co1222 O1232 1.976 . S
Co1223 O1224 2.087 . S
Co1223 O1226 2.087 . S
Co1223 O1233 2.111 . S
Co1223 O1234 2.143 . S
Co1223 O1238 2.111 . S
Co1223 O1252 2.143 . S
O1224 Co1221 2.042 . S
O1224 Co1222 2.122 . S
O1224 Co1223 2.087 . S
O1224 H1225 0.980 . S
H1225 O1224 0.980 . S
O1226 Co1223 2.087 . S
O1226 Co1227 2.042 . S
O1226 Co1228 2.122 . S
O1226 H1229 0.980 . S
Co1227 O1226 2.042 . S
Co1227 O1235 2.286 . S
Co1227 O1236 2.069 . S
Co1227 O1237 2.015 . S
Co1227 O1240 2.264 . S
Co1228 O1226 2.122 . S
Co1228 O1239 1.976 . S
Co1228 O1240 2.327 . S
Co1228 O1241 2.073 . S
H1229 O1226 0.980 . S
O1230 Co1222 2.073 . S
O1230 C1245 1.245 . S
O1231 Co1221 2.264 . S
O1231 Co1222 2.327 . S
O1231 C1245 1.257 . S
O1232 Co1222 1.976 . S
O1232 C1244 1.251 . S
O1233 Co1223 2.111 . S
O1233 C1244 1.274 . S
O1234 Co1223 2.143 . S
O1234 C1247 1.246 . S
O1235 Co1227 2.286 . S
O1235 C1246 1.259 . S
O1236 Co1227 2.069 . S
O1236 C1246 1.289 . S
O1237 Co1227 2.015 . S
O1237 C1247 1.257 . S
O1238 Co1223 2.111 . S
O1238 C1248 1.274 . S
O1239 Co1228 1.976 . S
O1239 C1248 1.251 . S
O1240 Co1227 2.264 . S
O1240 Co1228 2.327 . S
O1240 C1249 1.257 . S
O1241 Co1228 2.073 . S
O1241 C1249 1.245 . S
C1242 O1250 1.259 . S
C1242 O1251 1.289 . S
C1243 O1252 1.246 . S
C1243 O1253 1.257 . S
C1244 O1232 1.251 . S
C1244 O1233 1.274 . S
C1245 O1230 1.245 . S
C1245 O1231 1.257 . S
C1246 O1235 1.259 . S
C1246 O1236 1.289 . S
C1247 O1234 1.246 . S
C1247 O1237 1.257 . S
C1248 O1238 1.274 . S
C1248 O1239 1.251 . S
C1249 O1240 1.257 . S
C1249 O1241 1.245 . S
O1250 Co1221 2.286 . S
O1250 C1242 1.259 . S
O1251 Co1221 2.069 . S
O1251 C1242 1.289 . S
O1252 Co1223 2.143 . S
O1252 C1243 1.246 . S
O1253 Co1221 2.015 . S
O1253 C1243 1.257 . S
Co1254 O1257 2.042 . S
Co1254 O1264 2.264 . S
Co1254 O1283 2.286 . S
Co1254 O1284 2.069 . S
Co1254 O1286 2.015 . S
Co1255 O1257 2.122 . S
Co1255 O1263 2.073 . S
Co1255 O1264 2.327 . S
Co1255 O1265 1.976 . S
Co1256 O1257 2.087 . S
Co1256 O1259 2.087 . S
Co1256 O1266 2.111 . S
Co1256 O1267 2.143 . S
Co1256 O1271 2.111 . S
Co1256 O1285 2.143 . S
O1257 Co1254 2.042 . S
O1257 Co1255 2.122 . S
O1257 Co1256 2.087 . S
O1257 H1258 0.980 . S
H1258 O1257 0.980 . S
O1259 Co1256 2.087 . S
O1259 Co1260 2.042 . S
O1259 Co1261 2.122 . S
O1259 H1262 0.980 . S
Co1260 O1259 2.042 . S
Co1260 O1268 2.286 . S
Co1260 O1269 2.069 . S
Co1260 O1270 2.015 . S
Co1260 O1273 2.264 . S
Co1261 O1259 2.122 . S
Co1261 O1272 1.976 . S
Co1261 O1273 2.327 . S
Co1261 O1274 2.073 . S
H1262 O1259 0.980 . S
O1263 Co1255 2.073 . S
O1263 C1278 1.245 . S
O1264 Co1254 2.264 . S
O1264 Co1255 2.327 . S
O1264 C1278 1.257 . S
O1265 Co1255 1.976 . S
O1265 C1277 1.251 . S
O1266 Co1256 2.111 . S
O1266 C1277 1.274 . S
O1267 Co1256 2.143 . S
O1267 C1280 1.246 . S
O1268 Co1260 2.286 . S
O1268 C1279 1.259 . S
O1269 Co1260 2.069 . S
O1269 C1279 1.289 . S
O1270 Co1260 2.015 . S
O1270 C1280 1.257 . S
O1271 Co1256 2.111 . S
O1271 C1281 1.274 . S
O1272 Co1261 1.976 . S
O1272 C1281 1.251 . S
O1273 Co1260 2.264 . S
O1273 Co1261 2.327 . S
O1273 C1282 1.257 . S
O1274 Co1261 2.073 . S
O1274 C1282 1.245 . S
C1275 O1283 1.259 . S
C1275 O1284 1.289 . S
C1276 O1285 1.246 . S
C1276 O1286 1.257 . S
C1277 O1265 1.251 . S
C1277 O1266 1.274 . S
C1278 O1263 1.245 . S
C1278 O1264 1.257 . S
C1279 O1268 1.259 . S
C1279 O1269 1.289 . S
C1280 O1267 1.246 . S
C1280 O1270 1.257 . S
C1281 O1271 1.274 . S
C1281 O1272 1.251 . S
C1282 O1273 1.257 . S
C1282 O1274 1.245 . S
O1283 Co1254 2.286 . S
O1283 C1275 1.259 . S
O1284 Co1254 2.069 . S
O1284 C1275 1.289 . S
O1285 Co1256 2.143 . S
O1285 C1276 1.246 . S
O1286 Co1254 2.015 . S
O1286 C1276 1.257 . S
Co1287 O1290 2.042 . S
Co1287 O1297 2.264 . S
Co1287 O1316 2.286 . S
Co1287 O1317 2.069 . S
Co1287 O1319 2.015 . S
Co1288 O1290 2.122 . S
Co1288 O1296 2.073 . S
Co1288 O1297 2.327 . S
Co1288 O1298 1.976 . S
Co1289 O1290 2.087 . S
Co1289 O1292 2.087 . S
Co1289 O1299 2.111 . S
Co1289 O1300 2.143 . S
Co1289 O1304 2.111 . S
Co1289 O1318 2.143 . S
O1290 Co1287 2.042 . S
O1290 Co1288 2.122 . S
O1290 Co1289 2.087 . S
O1290 H1291 0.980 . S
H1291 O1290 0.980 . S
O1292 Co1289 2.087 . S
O1292 Co1293 2.042 . S
O1292 Co1294 2.122 . S
O1292 H1295 0.980 . S
Co1293 O1292 2.042 . S
Co1293 O1301 2.286 . S
Co1293 O1302 2.069 . S
Co1293 O1303 2.015 . S
Co1293 O1306 2.264 . S
Co1294 O1292 2.122 . S
Co1294 O1305 1.976 . S
Co1294 O1306 2.327 . S
Co1294 O1307 2.073 . S
H1295 O1292 0.980 . S
O1296 Co1288 2.073 . S
O1296 C1311 1.245 . S
O1297 Co1287 2.264 . S
O1297 Co1288 2.327 . S
O1297 C1311 1.257 . S
O1298 Co1288 1.976 . S
O1298 C1310 1.251 . S
O1299 Co1289 2.111 . S
O1299 C1310 1.274 . S
O1300 Co1289 2.143 . S
O1300 C1313 1.246 . S
O1301 Co1293 2.286 . S
O1301 C1312 1.259 . S
O1302 Co1293 2.069 . S
O1302 C1312 1.289 . S
O1303 Co1293 2.015 . S
O1303 C1313 1.257 . S
O1304 Co1289 2.111 . S
O1304 C1314 1.274 . S
O1305 Co1294 1.976 . S
O1305 C1314 1.251 . S
O1306 Co1293 2.264 . S
O1306 Co1294 2.327 . S
O1306 C1315 1.257 . S
O1307 Co1294 2.073 . S
O1307 C1315 1.245 . S
C1308 O1316 1.259 . S
C1308 O1317 1.289 . S
C1309 O1318 1.246 . S
C1309 O1319 1.257 . S
C1310 O1298 1.251 . S
C1310 O1299 1.274 . S
C1311 O1296 1.245 . S
C1311 O1297 1.257 . S
C1312 O1301 1.259 . S
C1312 O1302 1.289 . S
C1313 O1300 1.246 . S
C1313 O1303 1.257 . S
C1314 O1304 1.274 . S
C1314 O1305 1.251 . S
C1315 O1306 1.257 . S
C1315 O1307 1.245 . S
O1316 Co1287 2.286 . S
O1316 C1308 1.259 . S
O1317 Co1287 2.069 . S
O1317 C1308 1.289 . S
O1318 Co1289 2.143 . S
O1318 C1309 1.246 . S
O1319 Co1287 2.015 . S
O1319 C1309 1.257 . S
Co1320 O1323 2.042 . S
Co1320 O1330 2.264 . S
Co1320 O1349 2.286 . S
Co1320 O1350 2.069 . S
Co1320 O1352 2.015 . S
Co1321 O1323 2.122 . S
Co1321 O1329 2.073 . S
Co1321 O1330 2.327 . S
Co1321 O1331 1.976 . S
Co1322 O1323 2.087 . S
Co1322 O1325 2.087 . S
Co1322 O1332 2.111 . S
Co1322 O1333 2.143 . S
Co1322 O1337 2.111 . S
Co1322 O1351 2.143 . S
O1323 Co1320 2.042 . S
O1323 Co1321 2.122 . S
O1323 Co1322 2.087 . S
O1323 H1324 0.980 . S
H1324 O1323 0.980 . S
O1325 Co1322 2.087 . S
O1325 Co1326 2.042 . S
O1325 Co1327 2.122 . S
O1325 H1328 0.980 . S
Co1326 O1325 2.042 . S
Co1326 O1334 2.286 . S
Co1326 O1335 2.069 . S
Co1326 O1336 2.015 . S
Co1326 O1339 2.264 . S
Co1327 O1325 2.122 . S
Co1327 O1338 1.976 . S
Co1327 O1339 2.327 . S
Co1327 O1340 2.073 . S
H1328 O1325 0.980 . S
O1329 Co1321 2.073 . S
O1329 C1344 1.245 . S
O1330 Co1320 2.264 . S
O1330 Co1321 2.327 . S
O1330 C1344 1.257 . S
O1331 Co1321 1.976 . S
O1331 C1343 1.251 . S
O1332 Co1322 2.111 . S
O1332 C1343 1.274 . S
O1333 Co1322 2.143 . S
O1333 C1346 1.246 . S
O1334 Co1326 2.286 . S
O1334 C1345 1.259 . S
O1335 Co1326 2.069 . S
O1335 C1345 1.289 . S
O1336 Co1326 2.015 . S
O1336 C1346 1.257 . S
O1337 Co1322 2.111 . S
O1337 C1347 1.274 . S
O1338 Co1327 1.976 . S
O1338 C1347 1.251 . S
O1339 Co1326 2.264 . S
O1339 Co1327 2.327 . S
O1339 C1348 1.257 . S
O1340 Co1327 2.073 . S
O1340 C1348 1.245 . S
C1341 O1349 1.259 . S
C1341 O1350 1.289 . S
C1342 O1351 1.246 . S
C1342 O1352 1.257 . S
C1343 O1331 1.251 . S
C1343 O1332 1.274 . S
C1344 O1329 1.245 . S
C1344 O1330 1.257 . S
C1345 O1334 1.259 . S
C1345 O1335 1.289 . S
C1346 O1333 1.246 . S
C1346 O1336 1.257 . S
C1347 O1337 1.274 . S
C1347 O1338 1.251 . S
C1348 O1339 1.257 . S
C1348 O1340 1.245 . S
O1349 Co1320 2.286 . S
O1349 C1341 1.259 . S
O1350 Co1320 2.069 . S
O1350 C1341 1.289 . S
O1351 Co1322 2.143 . S
O1351 C1342 1.246 . S
O1352 Co1320 2.015 . S
O1352 C1342 1.257 . S
Co1353 O1356 2.042 . S
Co1353 O1363 2.264 . S
Co1353 O1382 2.286 . S
Co1353 O1383 2.069 . S
Co1353 O1385 2.015 . S
Co1354 O1356 2.122 . S
Co1354 O1362 2.073 . S
Co1354 O1363 2.327 . S
Co1354 O1364 1.976 . S
Co1355 O1356 2.087 . S
Co1355 O1358 2.087 . S
Co1355 O1365 2.111 . S
Co1355 O1366 2.143 . S
Co1355 O1370 2.111 . S
Co1355 O1384 2.143 . S
O1356 Co1353 2.042 . S
O1356 Co1354 2.122 . S
O1356 Co1355 2.087 . S
O1356 H1357 0.980 . S
H1357 O1356 0.980 . S
O1358 Co1355 2.087 . S
O1358 Co1359 2.042 . S
O1358 Co1360 2.122 . S
O1358 H1361 0.980 . S
Co1359 O1358 2.042 . S
Co1359 O1367 2.286 . S
Co1359 O1368 2.069 . S
Co1359 O1369 2.015 . S
Co1359 O1372 2.264 . S
Co1360 O1358 2.122 . S
Co1360 O1371 1.976 . S
Co1360 O1372 2.327 . S
Co1360 O1373 2.073 . S
H1361 O1358 0.980 . S
O1362 Co1354 2.073 . S
O1362 C1377 1.245 . S
O1363 Co1353 2.264 . S
O1363 Co1354 2.327 . S
O1363 C1377 1.257 . S
O1364 Co1354 1.976 . S
O1364 C1376 1.251 . S
O1365 Co1355 2.111 . S
O1365 C1376 1.274 . S
O1366 Co1355 2.143 . S
O1366 C1379 1.246 . S
O1367 Co1359 2.286 . S
O1367 C1378 1.259 . S
O1368 Co1359 2.069 . S
O1368 C1378 1.289 . S
O1369 Co1359 2.015 . S
O1369 C1379 1.257 . S
O1370 Co1355 2.111 . S
O1370 C1380 1.274 . S
O1371 Co1360 1.976 . S
O1371 C1380 1.251 . S
O1372 Co1359 2.264 . S
O1372 Co1360 2.327 . S
O1372 C1381 1.257 . S
O1373 Co1360 2.073 . S
O1373 C1381 1.245 . S
C1374 O1382 1.259 . S
C1374 O1383 1.289 . S
C1375 O1384 1.246 . S
C1375 O1385 1.257 . S
C1376 O1364 1.251 . S
C1376 O1365 1.274 . S
C1377 O1362 1.245 . S
C1377 O1363 1.257 . S
C1378 O1367 1.259 . S
C1378 O1368 1.289 . S
C1379 O1366 1.246 . S
C1379 O1369 1.257 . S
C1380 O1370 1.274 . S
C1380 O1371 1.251 . S
C1381 O1372 1.257 . S
C1381 O1373 1.245 . S
O1382 Co1353 2.286 . S
O1382 C1374 1.259 . S
O1383 Co1353 2.069 . S
O1383 C1374 1.289 . S
O1384 Co1355 2.143 . S
O1384 C1375 1.246 . S
O1385 Co1353 2.015 . S
O1385 C1375 1.257 . S
Co1386 O1389 2.042 . S
Co1386 O1396 2.264 . S
Co1386 O1415 2.286 . S
Co1386 O1416 2.069 . S
Co1386 O1418 2.015 . S
Co1387 O1389 2.122 . S
Co1387 O1395 2.073 . S
Co1387 O1396 2.327 . S
Co1387 O1397 1.976 . S
Co1388 O1389 2.087 . S
Co1388 O1391 2.087 . S
Co1388 O1398 2.111 . S
Co1388 O1399 2.143 . S
Co1388 O1403 2.111 . S
Co1388 O1417 2.143 . S
O1389 Co1386 2.042 . S
O1389 Co1387 2.122 . S
O1389 Co1388 2.087 . S
O1389 H1390 0.980 . S
H1390 O1389 0.980 . S
O1391 Co1388 2.087 . S
O1391 Co1392 2.042 . S
O1391 Co1393 2.122 . S
O1391 H1394 0.980 . S
Co1392 O1391 2.042 . S
Co1392 O1400 2.286 . S
Co1392 O1401 2.069 . S
Co1392 O1402 2.015 . S
Co1392 O1405 2.264 . S
Co1393 O1391 2.122 . S
Co1393 O1404 1.976 . S
Co1393 O1405 2.327 . S
Co1393 O1406 2.073 . S
H1394 O1391 0.980 . S
O1395 Co1387 2.073 . S
O1395 C1410 1.245 . S
O1396 Co1386 2.264 . S
O1396 Co1387 2.327 . S
O1396 C1410 1.257 . S
O1397 Co1387 1.976 . S
O1397 C1409 1.251 . S
O1398 Co1388 2.111 . S
O1398 C1409 1.274 . S
O1399 Co1388 2.143 . S
O1399 C1412 1.246 . S
O1400 Co1392 2.286 . S
O1400 C1411 1.259 . S
O1401 Co1392 2.069 . S
O1401 C1411 1.289 . S
O1402 Co1392 2.015 . S
O1402 C1412 1.257 . S
O1403 Co1388 2.111 . S
O1403 C1413 1.274 . S
O1404 Co1393 1.976 . S
O1404 C1413 1.251 . S
O1405 Co1392 2.264 . S
O1405 Co1393 2.327 . S
O1405 C1414 1.257 . S
O1406 Co1393 2.073 . S
O1406 C1414 1.245 . S
C1407 O1415 1.259 . S
C1407 O1416 1.289 . S
C1408 O1417 1.246 . S
C1408 O1418 1.257 . S
C1409 O1397 1.251 . S
C1409 O1398 1.274 . S
C1410 O1395 1.245 . S
C1410 O1396 1.257 . S
C1411 O1400 1.259 . S
C1411 O1401 1.289 . S
C1412 O1399 1.246 . S
C1412 O1402 1.257 . S
C1413 O1403 1.274 . S
C1413 O1404 1.251 . S
C1414 O1405 1.257 . S
C1414 O1406 1.245 . S
O1415 Co1386 2.286 . S
O1415 C1407 1.259 . S
O1416 Co1386 2.069 . S
O1416 C1407 1.289 . S
O1417 Co1388 2.143 . S
O1417 C1408 1.246 . S
O1418 Co1386 2.015 . S
O1418 C1408 1.257 . S
Co1419 O1422 2.042 . S
Co1419 O1429 2.264 . S
Co1419 O1448 2.286 . S
Co1419 O1449 2.069 . S
Co1419 O1451 2.015 . S
Co1420 O1422 2.122 . S
Co1420 O1428 2.073 . S
Co1420 O1429 2.327 . S
Co1420 O1430 1.976 . S
Co1421 O1422 2.087 . S
Co1421 O1424 2.087 . S
Co1421 O1431 2.111 . S
Co1421 O1432 2.143 . S
Co1421 O1436 2.111 . S
Co1421 O1450 2.143 . S
O1422 Co1419 2.042 . S
O1422 Co1420 2.122 . S
O1422 Co1421 2.087 . S
O1422 H1423 0.980 . S
H1423 O1422 0.980 . S
O1424 Co1421 2.087 . S
O1424 Co1425 2.042 . S
O1424 Co1426 2.122 . S
O1424 H1427 0.980 . S
Co1425 O1424 2.042 . S
Co1425 O1433 2.286 . S
Co1425 O1434 2.069 . S
Co1425 O1435 2.015 . S
Co1425 O1438 2.264 . S
Co1426 O1424 2.122 . S
Co1426 O1437 1.976 . S
Co1426 O1438 2.327 . S
Co1426 O1439 2.073 . S
H1427 O1424 0.980 . S
O1428 Co1420 2.073 . S
O1428 C1443 1.245 . S
O1429 Co1419 2.264 . S
O1429 Co1420 2.327 . S
O1429 C1443 1.257 . S
O1430 Co1420 1.976 . S
O1430 C1442 1.251 . S
O1431 Co1421 2.111 . S
O1431 C1442 1.274 . S
O1432 Co1421 2.143 . S
O1432 C1445 1.246 . S
O1433 Co1425 2.286 . S
O1433 C1444 1.259 . S
O1434 Co1425 2.069 . S
O1434 C1444 1.289 . S
O1435 Co1425 2.015 . S
O1435 C1445 1.257 . S
O1436 Co1421 2.111 . S
O1436 C1446 1.274 . S
O1437 Co1426 1.976 . S
O1437 C1446 1.251 . S
O1438 Co1425 2.264 . S
O1438 Co1426 2.327 . S
O1438 C1447 1.257 . S
O1439 Co1426 2.073 . S
O1439 C1447 1.245 . S
C1440 O1448 1.259 . S
C1440 O1449 1.289 . S
C1441 O1450 1.246 . S
C1441 O1451 1.257 . S
C1442 O1430 1.251 . S
C1442 O1431 1.274 . S
C1443 O1428 1.245 . S
C1443 O1429 1.257 . S
C1444 O1433 1.259 . S
C1444 O1434 1.289 . S
C1445 O1432 1.246 . S
C1445 O1435 1.257 . S
C1446 O1436 1.274 . S
C1446 O1437 1.251 . S
C1447 O1438 1.257 . S
C1447 O1439 1.245 . S
O1448 Co1419 2.286 . S
O1448 C1440 1.259 . S
O1449 Co1419 2.069 . S
O1449 C1440 1.289 . S
O1450 Co1421 2.143 . S
O1450 C1441 1.246 . S
O1451 Co1419 2.015 . S
O1451 C1441 1.257 . S
Co1452 O1455 2.042 . S
Co1452 O1462 2.264 . S
Co1452 O1481 2.286 . S
Co1452 O1482 2.069 . S
Co1452 O1484 2.015 . S
Co1453 O1455 2.122 . S
Co1453 O1461 2.073 . S
Co1453 O1462 2.327 . S
Co1453 O1463 1.976 . S
Co1454 O1455 2.087 . S
Co1454 O1457 2.087 . S
Co1454 O1464 2.111 . S
Co1454 O1465 2.143 . S
Co1454 O1469 2.111 . S
Co1454 O1483 2.143 . S
O1455 Co1452 2.042 . S
O1455 Co1453 2.122 . S
O1455 Co1454 2.087 . S
O1455 H1456 0.980 . S
H1456 O1455 0.980 . S
O1457 Co1454 2.087 . S
O1457 Co1458 2.042 . S
O1457 Co1459 2.122 . S
O1457 H1460 0.980 . S
Co1458 O1457 2.042 . S
Co1458 O1466 2.286 . S
Co1458 O1467 2.069 . S
Co1458 O1468 2.015 . S
Co1458 O1471 2.264 . S
Co1459 O1457 2.122 . S
Co1459 O1470 1.976 . S
Co1459 O1471 2.327 . S
Co1459 O1472 2.073 . S
H1460 O1457 0.980 . S
O1461 Co1453 2.073 . S
O1461 C1476 1.245 . S
O1462 Co1452 2.264 . S
O1462 Co1453 2.327 . S
O1462 C1476 1.257 . S
O1463 Co1453 1.976 . S
O1463 C1475 1.251 . S
O1464 Co1454 2.111 . S
O1464 C1475 1.274 . S
O1465 Co1454 2.143 . S
O1465 C1478 1.246 . S
O1466 Co1458 2.286 . S
O1466 C1477 1.259 . S
O1467 Co1458 2.069 . S
O1467 C1477 1.289 . S
O1468 Co1458 2.015 . S
O1468 C1478 1.257 . S
O1469 Co1454 2.111 . S
O1469 C1479 1.274 . S
O1470 Co1459 1.976 . S
O1470 C1479 1.251 . S
O1471 Co1458 2.264 . S
O1471 Co1459 2.327 . S
O1471 C1480 1.257 . S
O1472 Co1459 2.073 . S
O1472 C1480 1.245 . S
C1473 O1481 1.259 . S
C1473 O1482 1.289 . S
C1474 O1483 1.246 . S
C1474 O1484 1.257 . S
C1475 O1463 1.251 . S
C1475 O1464 1.274 . S
C1476 O1461 1.245 . S
C1476 O1462 1.257 . S
C1477 O1466 1.259 . S
C1477 O1467 1.289 . S
C1478 O1465 1.246 . S
C1478 O1468 1.257 . S
C1479 O1469 1.274 . S
C1479 O1470 1.251 . S
C1480 O1471 1.257 . S
C1480 O1472 1.245 . S
O1481 Co1452 2.286 . S
O1481 C1473 1.259 . S
O1482 Co1452 2.069 . S
O1482 C1473 1.289 . S
O1483 Co1454 2.143 . S
O1483 C1474 1.246 . S
O1484 Co1452 2.015 . S
O1484 C1474 1.257 . S
Co1485 O1488 2.042 . S
Co1485 O1495 2.264 . S
Co1485 O1514 2.286 . S
Co1485 O1515 2.069 . S
Co1485 O1517 2.015 . S
Co1486 O1488 2.122 . S
Co1486 O1494 2.073 . S
Co1486 O1495 2.327 . S
Co1486 O1496 1.976 . S
Co1487 O1488 2.087 . S
Co1487 O1490 2.087 . S
Co1487 O1497 2.111 . S
Co1487 O1498 2.143 . S
Co1487 O1502 2.111 . S
Co1487 O1516 2.143 . S
O1488 Co1485 2.042 . S
O1488 Co1486 2.122 . S
O1488 Co1487 2.087 . S
O1488 H1489 0.980 . S
H1489 O1488 0.980 . S
O1490 Co1487 2.087 . S
O1490 Co1491 2.042 . S
O1490 Co1492 2.122 . S
O1490 H1493 0.980 . S
Co1491 O1490 2.042 . S
Co1491 O1499 2.286 . S
Co1491 O1500 2.069 . S
Co1491 O1501 2.015 . S
Co1491 O1504 2.264 . S
Co1492 O1490 2.122 . S
Co1492 O1503 1.976 . S
Co1492 O1504 2.327 . S
Co1492 O1505 2.073 . S
H1493 O1490 0.980 . S
O1494 Co1486 2.073 . S
O1494 C1509 1.245 . S
O1495 Co1485 2.264 . S
O1495 Co1486 2.327 . S
O1495 C1509 1.257 . S
O1496 Co1486 1.976 . S
O1496 C1508 1.251 . S
O1497 Co1487 2.111 . S
O1497 C1508 1.274 . S
O1498 Co1487 2.143 . S
O1498 C1511 1.246 . S
O1499 Co1491 2.286 . S
O1499 C1510 1.259 . S
O1500 Co1491 2.069 . S
O1500 C1510 1.289 . S
O1501 Co1491 2.015 . S
O1501 C1511 1.257 . S
O1502 Co1487 2.111 . S
O1502 C1512 1.274 . S
O1503 Co1492 1.976 . S
O1503 C1512 1.251 . S
O1504 Co1491 2.264 . S
O1504 Co1492 2.327 . S
O1504 C1513 1.257 . S
O1505 Co1492 2.073 . S
O1505 C1513 1.245 . S
C1506 O1514 1.259 . S
C1506 O1515 1.289 . S
C1507 O1516 1.246 . S
C1507 O1517 1.257 . S
C1508 O1496 1.251 . S
C1508 O1497 1.274 . S
C1509 O1494 1.245 . S
C1509 O1495 1.257 . S
C1510 O1499 1.259 . S
C1510 O1500 1.289 . S
C1511 O1498 1.246 . S
C1511 O1501 1.257 . S
C1512 O1502 1.274 . S
C1512 O1503 1.251 . S
C1513 O1504 1.257 . S
C1513 O1505 1.245 . S
O1514 Co1485 2.286 . S
O1514 C1506 1.259 . S
O1515 Co1485 2.069 . S
O1515 C1506 1.289 . S
O1516 Co1487 2.143 . S
O1516 C1507 1.246 . S
O1517 Co1485 2.015 . S
O1517 C1507 1.257 . S
Co1518 O1521 2.042 . S
Co1518 O1528 2.264 . S
Co1518 O1547 2.286 . S
Co1518 O1548 2.069 . S
Co1518 O1550 2.015 . S
Co1519 O1521 2.122 . S
Co1519 O1527 2.073 . S
Co1519 O1528 2.327 . S
Co1519 O1529 1.976 . S
Co1520 O1521 2.087 . S
Co1520 O1523 2.087 . S
Co1520 O1530 2.111 . S
Co1520 O1531 2.143 . S
Co1520 O1535 2.111 . S
Co1520 O1549 2.143 . S
O1521 Co1518 2.042 . S
O1521 Co1519 2.122 . S
O1521 Co1520 2.087 . S
O1521 H1522 0.980 . S
H1522 O1521 0.980 . S
O1523 Co1520 2.087 . S
O1523 Co1524 2.042 . S
O1523 Co1525 2.122 . S
O1523 H1526 0.980 . S
Co1524 O1523 2.042 . S
Co1524 O1532 2.286 . S
Co1524 O1533 2.069 . S
Co1524 O1534 2.015 . S
Co1524 O1537 2.264 . S
Co1525 O1523 2.122 . S
Co1525 O1536 1.976 . S
Co1525 O1537 2.327 . S
Co1525 O1538 2.073 . S
H1526 O1523 0.980 . S
O1527 Co1519 2.073 . S
O1527 C1542 1.245 . S
O1528 Co1518 2.264 . S
O1528 Co1519 2.327 . S
O1528 C1542 1.257 . S
O1529 Co1519 1.976 . S
O1529 C1541 1.251 . S
O1530 Co1520 2.111 . S
O1530 C1541 1.274 . S
O1531 Co1520 2.143 . S
O1531 C1544 1.246 . S
O1532 Co1524 2.286 . S
O1532 C1543 1.259 . S
O1533 Co1524 2.069 . S
O1533 C1543 1.289 . S
O1534 Co1524 2.015 . S
O1534 C1544 1.257 . S
O1535 Co1520 2.111 . S
O1535 C1545 1.274 . S
O1536 Co1525 1.976 . S
O1536 C1545 1.251 . S
O1537 Co1524 2.264 . S
O1537 Co1525 2.327 . S
O1537 C1546 1.257 . S
O1538 Co1525 2.073 . S
O1538 C1546 1.245 . S
C1539 O1547 1.259 . S
C1539 O1548 1.289 . S
C1540 O1549 1.246 . S
C1540 O1550 1.257 . S
C1541 O1529 1.251 . S
C1541 O1530 1.274 . S
C1542 O1527 1.245 . S
C1542 O1528 1.257 . S
C1543 O1532 1.259 . S
C1543 O1533 1.289 . S
C1544 O1531 1.246 . S
C1544 O1534 1.257 . S
C1545 O1535 1.274 . S
C1545 O1536 1.251 . S
C1546 O1537 1.257 . S
C1546 O1538 1.245 . S
O1547 Co1518 2.286 . S
O1547 C1539 1.259 . S
O1548 Co1518 2.069 . S
O1548 C1539 1.289 . S
O1549 Co1520 2.143 . S
O1549 C1540 1.246 . S
O1550 Co1518 2.015 . S
O1550 C1540 1.257 . S
Co1551 O1554 2.042 . S
Co1551 O1561 2.264 . S
Co1551 O1580 2.286 . S
Co1551 O1581 2.069 . S
Co1551 O1583 2.015 . S
Co1552 O1554 2.122 . S
Co1552 O1560 2.073 . S
Co1552 O1561 2.327 . S
Co1552 O1562 1.976 . S
Co1553 O1554 2.087 . S
Co1553 O1556 2.087 . S
Co1553 O1563 2.111 . S
Co1553 O1564 2.143 . S
Co1553 O1568 2.111 . S
Co1553 O1582 2.143 . S
O1554 Co1551 2.042 . S
O1554 Co1552 2.122 . S
O1554 Co1553 2.087 . S
O1554 H1555 0.980 . S
H1555 O1554 0.980 . S
O1556 Co1553 2.087 . S
O1556 Co1557 2.042 . S
O1556 Co1558 2.122 . S
O1556 H1559 0.980 . S
Co1557 O1556 2.042 . S
Co1557 O1565 2.286 . S
Co1557 O1566 2.069 . S
Co1557 O1567 2.015 . S
Co1557 O1570 2.264 . S
Co1558 O1556 2.122 . S
Co1558 O1569 1.976 . S
Co1558 O1570 2.327 . S
Co1558 O1571 2.073 . S
H1559 O1556 0.980 . S
O1560 Co1552 2.073 . S
O1560 C1575 1.245 . S
O1561 Co1551 2.264 . S
O1561 Co1552 2.327 . S
O1561 C1575 1.257 . S
O1562 Co1552 1.976 . S
O1562 C1574 1.251 . S
O1563 Co1553 2.111 . S
O1563 C1574 1.274 . S
O1564 Co1553 2.143 . S
O1564 C1577 1.246 . S
O1565 Co1557 2.286 . S
O1565 C1576 1.259 . S
O1566 Co1557 2.069 . S
O1566 C1576 1.289 . S
O1567 Co1557 2.015 . S
O1567 C1577 1.257 . S
O1568 Co1553 2.111 . S
O1568 C1578 1.274 . S
O1569 Co1558 1.976 . S
O1569 C1578 1.251 . S
O1570 Co1557 2.264 . S
O1570 Co1558 2.327 . S
O1570 C1579 1.257 . S
O1571 Co1558 2.073 . S
O1571 C1579 1.245 . S
C1572 O1580 1.259 . S
C1572 O1581 1.289 . S
C1573 O1582 1.246 . S
C1573 O1583 1.257 . S
C1574 O1562 1.251 . S
C1574 O1563 1.274 . S
C1575 O1560 1.245 . S
C1575 O1561 1.257 . S
C1576 O1565 1.259 . S
C1576 O1566 1.289 . S
C1577 O1564 1.246 . S
C1577 O1567 1.257 . S
C1578 O1568 1.274 . S
C1578 O1569 1.251 . S
C1579 O1570 1.257 . S
C1579 O1571 1.245 . S
O1580 Co1551 2.286 . S
O1580 C1572 1.259 . S
O1581 Co1551 2.069 . S
O1581 C1572 1.289 . S
O1582 Co1553 2.143 . S
O1582 C1573 1.246 . S
O1583 Co1551 2.015 . S
O1583 C1573 1.257 . S
C1584 C1585 1.369 . S
C1584 C1586 1.419 . S
C1584 H1588 0.930 . S
C1585 C1584 1.369 . S
C1585 C1594 1.429 . S
C1586 C1584 1.419 . S
C1586 C1587 1.363 1_565 S
C1586 H1589 0.929 . S
C1587 C1586 1.363 1_545 S
C1587 C1593 1.428 . S
H1588 C1584 0.930 . S
H1589 C1586 0.929 . S
S1590 N1591 1.613 1_545 S
S1590 N1592 1.610 . S
N1591 S1590 1.613 1_565 S
N1591 C1594 1.350 . S
N1592 S1590 1.610 . S
N1592 C1593 1.351 . S
C1593 C1587 1.428 . S
C1593 N1592 1.351 . S
C1593 C1594 1.434 1_545 S
C1594 C1585 1.429 . S
C1594 N1591 1.350 . S
C1594 C1593 1.434 1_565 S
C1595 C1596 1.369 . S
C1595 C1597 1.419 . S
C1595 H1599 0.930 . S
C1596 C1595 1.369 . S
C1596 C1605 1.429 . S
C1597 C1595 1.419 . S
C1597 C1598 1.363 . S
C1597 H1600 0.929 . S
C1598 C1597 1.363 . S
C1598 C1604 1.419 1_455 S
H1599 C1595 0.930 . S
H1600 C1597 0.929 . S
S1601 N1602 1.653 . S
S1601 N1603 1.610 . S
N1602 S1601 1.653 . S
N1602 C1605 1.328 1_655 S
N1603 S1601 1.610 . S
N1603 C1604 1.372 . S
C1604 C1598 1.419 1_655 S
C1604 N1603 1.372 . S
C1604 C1605 1.422 1_655 S
C1605 C1596 1.429 . S
C1605 N1602 1.328 1_455 S
C1605 C1604 1.422 1_455 S
C1606 C1607 1.369 1_554 S
C1606 C1608 1.419 . S
C1606 H1610 0.930 . S
C1607 C1606 1.369 1_556 S
C1607 C1616 1.429 . S
C1608 C1606 1.419 . S
C1608 C1609 1.363 . S
C1608 H1611 0.929 . S
C1609 C1608 1.363 . S
C1609 C1615 1.428 . S
H1610 C1606 0.930 . S
H1611 C1608 0.929 . S
S1612 N1613 1.613 . S
S1612 N1614 1.610 1_556 S
N1613 S1612 1.613 . S
N1613 C1616 1.350 . S
N1614 S1612 1.610 1_554 S
N1614 C1615 1.351 . S
C1615 C1609 1.428 . S
C1615 N1614 1.351 . S
C1615 C1616 1.434 1_554 S
C1616 C1607 1.429 . S
C1616 N1613 1.350 . S
C1616 C1615 1.434 1_556 S
C1617 C1618 1.369 . S
C1617 C1619 1.419 . S
C1617 H1621 0.930 . S
C1618 C1617 1.369 . S
C1618 C1627 1.429 . S
C1619 C1617 1.419 . S
C1619 C1620 1.363 . S
C1619 H1622 0.929 . S
C1620 C1619 1.363 . S
C1620 C1626 1.428 . S
H1621 C1617 0.930 . S
H1622 C1619 0.929 . S
S1623 N1624 1.613 . S
S1623 N1625 1.610 . S
N1624 S1623 1.613 . S
N1624 C1627 1.350 . S
N1625 S1623 1.610 . S
N1625 C1626 1.351 . S
C1626 C1620 1.428 . S
C1626 N1625 1.351 . S
C1626 C1627 1.434 . S
C1627 C1618 1.429 . S
C1627 N1624 1.350 . S
C1627 C1626 1.434 . S
C1628 C1629 1.369 . S
C1628 C1630 1.419 . S
C1628 H1632 0.930 . S
C1629 C1628 1.369 . S
C1629 C1638 1.429 . S
C1630 C1628 1.419 . S
C1630 C1631 1.363 . S
C1630 H1633 0.929 . S
C1631 C1630 1.363 . S
C1631 C1637 1.428 . S
H1632 C1628 0.930 . S
H1633 C1630 0.929 . S
S1634 N1635 1.613 . S
S1634 N1636 1.610 . S
N1635 S1634 1.613 . S
N1635 C1638 1.350 . S
N1636 S1634 1.610 . S
N1636 C1637 1.351 . S
C1637 C1631 1.428 . S
C1637 N1636 1.351 . S
C1637 C1638 1.434 . S
C1638 C1629 1.429 . S
C1638 N1635 1.350 . S
C1638 C1637 1.434 . S
C1639 C1640 1.369 . S
C1639 C1641 1.419 . S
C1639 H1643 0.930 . S
C1640 C1639 1.369 . S
C1640 C1649 1.429 . S
C1641 C1639 1.419 . S
C1641 C1642 1.363 . S
C1641 H1644 0.929 . S
C1642 C1641 1.363 . S
C1642 C1648 1.428 . S
H1643 C1639 0.930 . S
H1644 C1641 0.929 . S
S1645 N1646 1.613 . S
S1645 N1647 1.610 1_556 S
N1646 S1645 1.613 . S
N1646 C1649 1.350 1_556 S
N1647 S1645 1.610 1_554 S
N1647 C1648 1.351 . S
C1648 C1642 1.428 . S
C1648 N1647 1.351 . S
C1648 C1649 1.434 . S
C1649 C1640 1.429 . S
C1649 N1646 1.350 1_554 S
C1649 C1648 1.434 . S
C1650 C1651 1.369 . S
C1650 C1652 1.419 . S
C1650 H1654 0.930 . S
C1651 C1650 1.369 . S
C1651 C1660 1.429 . S
C1652 C1650 1.419 . S
C1652 C1653 1.363 . S
C1652 H1655 0.929 . S
C1653 C1652 1.363 . S
C1653 C1659 1.428 . S
H1654 C1650 0.930 . S
H1655 C1652 0.929 . S
S1656 N1657 1.616 . S
S1656 N1658 1.610 1_545 S
N1657 S1656 1.616 . S
N1657 C1660 1.334 1_545 S
N1658 S1656 1.610 1_565 S
N1658 C1659 1.351 . S
C1659 C1653 1.428 . S
C1659 N1658 1.351 . S
C1659 C1660 1.434 . S
C1660 C1651 1.429 . S
C1660 N1657 1.334 1_565 S
C1660 C1659 1.434 . S
C1661 C1662 1.369 . S
C1661 C1663 1.419 . S
C1661 H1665 0.930 . S
C1662 C1661 1.369 . S
C1662 C1671 1.429 . S
C1663 C1661 1.419 . S
C1663 C1664 1.363 . S
C1663 H1666 0.929 1_455 S
C1664 C1663 1.363 . S
C1664 C1670 1.428 . S
H1665 C1661 0.930 . S
H1666 C1663 0.929 1_655 S
S1667 N1668 1.613 . S
S1667 N1669 1.610 . S
N1668 S1667 1.613 . S
N1668 C1671 1.350 . S
N1669 S1667 1.610 . S
N1669 C1670 1.351 . S
C1670 C1664 1.428 . S
C1670 N1669 1.351 . S
C1670 C1671 1.434 . S
C1671 C1662 1.429 . S
C1671 N1668 1.350 . S
C1671 C1670 1.434 . S
C1672 C1673 1.369 1_556 S
C1672 C1674 1.419 . S
C1672 H1676 0.930 . S
C1673 C1672 1.369 1_554 S
C1673 C1682 1.429 . S
C1674 C1672 1.419 . S
C1674 C1675 1.363 . S
C1674 H1677 0.929 . S
C1675 C1674 1.363 . S
C1675 C1681 1.428 1_556 S
H1676 C1672 0.930 . S
H1677 C1674 0.929 . S
S1678 N1679 1.613 . S
S1678 N1680 1.610 . S
N1679 S1678 1.613 . S
N1679 C1682 1.350 . S
N1680 S1678 1.610 . S
N1680 C1681 1.351 . S
C1681 C1675 1.428 1_554 S
C1681 N1680 1.351 . S
C1681 C1682 1.434 . S
C1682 C1673 1.429 . S
C1682 N1679 1.350 . S
C1682 C1681 1.434 . S
C1683 C1684 1.369 . S
C1683 C1685 1.419 . S
C1683 H1687 0.930 . S
C1684 C1683 1.369 . S
C1684 C1693 1.429 . S
C1685 C1683 1.419 . S
C1685 C1686 1.363 . S
C1685 H1688 0.929 . S
C1686 C1685 1.363 . S
C1686 C1692 1.428 . S
H1687 C1683 0.930 . S
H1688 C1685 0.929 . S
S1689 N1690 1.613 . S
S1689 N1691 1.610 . S
N1690 S1689 1.613 . S
N1690 C1693 1.350 . S
N1691 S1689 1.610 . S
N1691 C1692 1.351 . S
C1692 C1686 1.428 . S
C1692 N1691 1.351 . S
C1692 C1693 1.434 . S
C1693 C1684 1.429 . S
C1693 N1690 1.350 . S
C1693 C1692 1.434 . S
C1694 C1695 1.369 . S
C1694 C1696 1.419 . S
C1694 H1698 0.930 . S
C1695 C1694 1.369 . S
C1695 C1704 1.429 . S
C1696 C1694 1.419 . S
C1696 C1697 1.363 . S
C1696 H1699 0.929 . S
C1697 C1696 1.363 . S
C1697 C1703 1.428 . S
H1698 C1694 0.930 . S
H1699 C1696 0.929 . S
S1700 N1701 1.613 . S
S1700 N1702 1.610 . S
N1701 S1700 1.613 . S
N1701 C1704 1.350 . S
N1702 S1700 1.610 . S
N1702 C1703 1.351 . S
C1703 C1697 1.428 . S
C1703 N1702 1.351 . S
C1703 C1704 1.434 . S
C1704 C1695 1.429 . S
C1704 N1701 1.350 . S
C1704 C1703 1.434 . S
C1705 C1706 1.369 . S
C1705 C1707 1.419 . S
C1705 H1709 0.930 . S
C1706 C1705 1.369 . S
C1706 C1715 1.429 . S
C1707 C1705 1.419 . S
C1707 C1708 1.363 . S
C1707 H1710 0.929 . S
C1708 C1707 1.363 . S
C1708 C1714 1.428 . S
H1709 C1705 0.930 . S
H1710 C1707 0.929 . S
S1711 N1712 1.613 . S
S1711 N1713 1.610 . S
N1712 S1711 1.613 . S
N1712 C1715 1.350 . S
N1713 S1711 1.610 . S
N1713 C1714 1.351 . S
C1714 C1708 1.428 . S
C1714 N1713 1.351 . S
C1714 C1715 1.434 . S
C1715 C1706 1.429 . S
C1715 N1712 1.350 . S
C1715 C1714 1.434 . S
C1716 C1717 1.369 . S
C1716 C1718 1.419 . S
C1716 H1720 0.930 . S
C1717 C1716 1.369 . S
C1717 C1726 1.429 . S
C1718 C1716 1.419 . S
C1718 C1719 1.363 . S
C1718 H1721 0.929 . S
C1719 C1718 1.363 . S
C1719 C1725 1.428 . S
H1720 C1716 0.930 . S
H1721 C1718 0.929 . S
S1722 N1723 1.613 . S
S1722 N1724 1.610 . S
N1723 S1722 1.613 . S
N1723 C1726 1.350 . S
N1724 S1722 1.610 . S
N1724 C1725 1.351 . S
C1725 C1719 1.428 . S
C1725 N1724 1.351 . S
C1725 C1726 1.434 . S
C1726 C1717 1.429 . S
C1726 N1723 1.350 . S
C1726 C1725 1.434 . S
C1727 C1728 1.369 . S
C1727 C1729 1.419 . S
C1727 H1731 0.930 . S
C1728 C1727 1.369 . S
C1728 C1737 1.429 . S
C1729 C1727 1.419 . S
C1729 C1730 1.363 . S
C1729 H1732 0.929 . S
C1730 C1729 1.363 . S
C1730 C1736 1.428 . S
H1731 C1727 0.930 . S
H1732 C1729 0.929 . S
S1733 N1734 1.613 . S
S1733 N1735 1.610 . S
N1734 S1733 1.613 . S
N1734 C1737 1.350 . S
N1735 S1733 1.610 . S
N1735 C1736 1.351 . S
C1736 C1730 1.428 . S
C1736 N1735 1.351 . S
C1736 C1737 1.434 . S
C1737 C1728 1.429 . S
C1737 N1734 1.350 . S
C1737 C1736 1.434 . S
C1738 C1739 1.369 . S
C1738 C1740 1.419 . S
C1738 H1742 0.930 . S
C1739 C1738 1.369 . S
C1739 C1748 1.429 . S
C1740 C1738 1.419 . S
C1740 C1741 1.363 . S
C1740 H1743 0.929 . S
C1741 C1740 1.363 . S
C1741 C1747 1.428 . S
H1742 C1738 0.930 . S
H1743 C1740 0.929 . S
S1744 N1745 1.613 . S
S1744 N1746 1.610 . S
N1745 S1744 1.613 . S
N1745 C1748 1.350 . S
N1746 S1744 1.610 . S
N1746 C1747 1.351 . S
C1747 C1741 1.428 . S
C1747 N1746 1.351 . S
C1747 C1748 1.434 . S
C1748 C1739 1.429 . S
C1748 N1745 1.350 . S
C1748 C1747 1.434 . S
C1749 C1750 1.369 . S
C1749 C1751 1.419 1_554 S
C1749 H1753 0.930 . S
C1750 C1749 1.369 . S
C1750 C1759 1.429 . S
C1751 C1749 1.419 1_556 S
C1751 C1752 1.363 . S
C1751 H1754 0.929 . S
C1752 C1751 1.363 . S
C1752 C1758 1.422 1_556 S
H1753 C1749 0.930 . S
H1754 C1751 0.929 . S
S1755 N1756 1.613 . S
S1755 N1757 1.610 . S
N1756 S1755 1.613 . S
N1756 C1759 1.350 . S
N1757 S1755 1.610 . S
N1757 C1758 1.352 . S
C1758 C1752 1.422 1_554 S
C1758 N1757 1.352 . S
C1758 C1759 1.441 . S
C1759 C1750 1.429 . S
C1759 N1756 1.350 . S
C1759 C1758 1.441 . S
C1760 C1761 1.369 . S
C1760 C1762 1.419 1_455 S
C1760 H1764 0.930 . S
C1761 C1760 1.369 . S
C1761 C1770 1.429 1_455 S
C1762 C1760 1.419 1_655 S
C1762 C1763 1.363 . S
C1762 H1765 0.929 . S
C1763 C1762 1.363 . S
C1763 C1769 1.428 . S
H1764 C1760 0.930 . S
H1765 C1762 0.929 . S
S1766 N1767 1.613 . S
S1766 N1768 1.610 . S
N1767 S1766 1.613 . S
N1767 C1770 1.350 . S
N1768 S1766 1.610 . S
N1768 C1769 1.351 . S
C1769 C1763 1.428 . S
C1769 N1768 1.351 . S
C1769 C1770 1.434 . S
C1770 C1761 1.429 1_655 S
C1770 N1767 1.350 . S
C1770 C1769 1.434 . S
C1771 C1772 1.369 . S
C1771 C1773 1.419 . S
C1771 H1775 0.930 . S
C1772 C1771 1.369 . S
C1772 C1781 1.429 . S
C1773 C1771 1.419 . S
C1773 C1774 1.363 . S
C1773 H1776 0.929 . S
C1774 C1773 1.363 . S
C1774 C1780 1.428 . S
H1775 C1771 0.930 . S
H1776 C1773 0.929 . S
S1777 N1778 1.613 . S
S1777 N1779 1.610 . S
N1778 S1777 1.613 . S
N1778 C1781 1.350 . S
N1779 S1777 1.610 . S
N1779 C1780 1.351 . S
C1780 C1774 1.428 . S
C1780 N1779 1.351 . S
C1780 C1781 1.434 . S
C1781 C1772 1.429 . S
C1781 N1778 1.350 . S
C1781 C1780 1.434 . S
C1782 C1783 1.369 . S
C1782 C1784 1.419 . S
C1782 H1786 0.930 . S
C1783 C1782 1.369 . S
C1783 C1792 1.429 . S
C1784 C1782 1.419 . S
C1784 C1785 1.363 . S
C1784 H1787 0.929 . S
C1785 C1784 1.363 . S
C1785 C1791 1.428 . S
H1786 C1782 0.930 . S
H1787 C1784 0.929 . S
S1788 N1789 1.613 . S
S1788 N1790 1.610 . S
N1789 S1788 1.613 . S
N1789 C1792 1.350 . S
N1790 S1788 1.610 . S
N1790 C1791 1.351 . S
C1791 C1785 1.428 . S
C1791 N1790 1.351 . S
C1791 C1792 1.434 . S
C1792 C1783 1.429 . S
C1792 N1789 1.350 . S
C1792 C1791 1.434 . S
C1793 C1794 1.369 . S
C1793 C1795 1.419 1_545 S
C1793 H1797 0.930 . S
C1794 C1793 1.369 . S
C1794 C1803 1.429 . S
C1795 C1793 1.419 1_565 S
C1795 C1796 1.363 . S
C1795 H1798 0.929 . S
C1796 C1795 1.363 . S
C1796 C1802 1.409 1_565 S
H1797 C1793 0.930 . S
H1798 C1795 0.929 . S
S1799 N1800 1.613 . S
S1799 N1801 1.610 1_545 S
N1800 S1799 1.613 . S
N1800 C1803 1.350 . S
N1801 S1799 1.610 1_565 S
N1801 C1802 1.351 1_565 S
C1802 C1796 1.409 1_545 S
C1802 N1801 1.351 1_545 S
C1802 C1803 1.456 . S
C1803 C1794 1.429 . S
C1803 N1800 1.350 . S
C1803 C1802 1.456 . S
C1804 C1805 1.369 . S
C1804 C1806 1.419 . S
C1804 H1808 0.930 . S
C1805 C1804 1.369 . S
C1805 C1814 1.429 . S
C1806 C1804 1.419 . S
C1806 C1807 1.363 . S
C1806 H1809 0.929 . S
C1807 C1806 1.363 . S
C1807 C1813 1.428 . S
H1808 C1804 0.930 . S
H1809 C1806 0.929 . S
S1810 N1811 1.613 . S
S1810 N1812 1.610 . S
N1811 S1810 1.613 . S
N1811 C1814 1.350 . S
N1812 S1810 1.610 . S
N1812 C1813 1.351 . S
C1813 C1807 1.428 . S
C1813 N1812 1.351 . S
C1813 C1814 1.434 . S
C1814 C1805 1.429 . S
C1814 N1811 1.350 . S
C1814 C1813 1.434 . S
C1815 C1816 1.369 . S
C1815 C1817 1.419 . S
C1815 H1819 0.930 . S
C1816 C1815 1.369 . S
C1816 C1825 1.429 . S
C1817 C1815 1.419 . S
C1817 C1818 1.363 . S
C1817 H1820 0.929 . S
C1818 C1817 1.363 . S
C1818 C1824 1.428 . S
H1819 C1815 0.930 . S
H1820 C1817 0.929 . S
S1821 N1822 1.613 . S
S1821 N1823 1.610 . S
N1822 S1821 1.613 . S
N1822 C1825 1.350 . S
N1823 S1821 1.610 . S
N1823 C1824 1.351 . S
C1824 C1818 1.428 . S
C1824 N1823 1.351 . S
C1824 C1825 1.434 . S
C1825 C1816 1.429 . S
C1825 N1822 1.350 . S
C1825 C1824 1.434 . S
C1826 C1827 1.373 . S
C1826 C1828 1.407 1_545 S
C1826 H1830 0.938 . S
C1827 C1826 1.373 . S
C1827 C1836 1.429 1_545 S
C1828 C1826 1.407 1_565 S
C1828 C1829 1.363 . S
C1828 H1831 0.929 . S
C1829 C1828 1.363 . S
C1829 C1835 1.428 . S
H1830 C1826 0.938 . S
H1831 C1828 0.929 . S
S1832 N1833 1.613 . S
S1832 N1834 1.610 . S
N1833 S1832 1.613 . S
N1833 C1836 1.350 . S
N1834 S1832 1.610 . S
N1834 C1835 1.351 . S
C1835 C1829 1.428 . S
C1835 N1834 1.351 . S
C1835 C1836 1.434 . S
C1836 C1827 1.429 1_565 S
C1836 N1833 1.350 . S
C1836 C1835 1.434 . S
C1837 C1838 1.369 . S
C1837 C1839 1.419 1_655 S
C1837 H1841 0.930 . S
C1838 C1837 1.369 . S
C1838 C1847 1.429 . S
C1839 C1837 1.419 1_455 S
C1839 C1840 1.363 . S
C1839 H1842 0.929 . S
C1840 C1839 1.363 . S
C1840 C1846 1.428 1_455 S
H1841 C1837 0.930 . S
H1842 C1839 0.929 . S
S1843 N1844 1.613 . S
S1843 N1845 1.612 1_655 S
N1844 S1843 1.613 . S
N1844 C1847 1.350 . S
N1845 S1843 1.612 1_455 S
N1845 C1846 1.351 1_455 S
C1846 C1840 1.428 1_655 S
C1846 N1845 1.351 1_655 S
C1846 C1847 1.434 . S
C1847 C1838 1.429 . S
C1847 N1844 1.350 . S
C1847 C1846 1.434 . S
C1848 C1849 1.367 1_565 S
C1848 C1850 1.430 . S
C1848 H1852 0.921 1_565 S
C1849 C1848 1.367 1_545 S
C1849 C1858 1.429 1_545 S
C1850 C1848 1.430 . S
C1850 C1851 1.363 . S
C1850 H1853 0.929 . S
C1851 C1850 1.363 . S
C1851 C1857 1.428 . S
H1852 C1848 0.921 1_545 S
H1853 C1850 0.929 . S
S1854 N1855 1.613 . S
S1854 N1856 1.610 . S
N1855 S1854 1.613 . S
N1855 C1858 1.350 . S
N1856 S1854 1.610 . S
N1856 C1857 1.351 . S
C1857 C1851 1.428 . S
C1857 N1856 1.351 . S
C1857 C1858 1.434 . S
C1858 C1849 1.429 1_565 S
C1858 N1855 1.350 . S
C1858 C1857 1.434 . S
C1859 C1860 1.369 1_455 S
C1859 C1861 1.419 . S
C1859 H1863 0.930 . S
C1860 C1859 1.369 1_655 S
C1860 C1869 1.429 . S
C1861 C1859 1.419 . S
C1861 C1862 1.363 . S
C1861 H1864 0.929 . S
C1862 C1861 1.363 . S
C1862 C1868 1.428 1_455 S
H1863 C1859 0.930 . S
H1864 C1861 0.929 . S
S1865 N1866 1.613 . S
S1865 N1867 1.610 . S
N1866 S1865 1.613 . S
N1866 C1869 1.350 . S
N1867 S1865 1.610 . S
N1867 C1868 1.351 . S
C1868 C1862 1.428 1_655 S
C1868 N1867 1.351 . S
C1868 C1869 1.434 . S
C1869 C1860 1.429 . S
C1869 N1866 1.350 . S
C1869 C1868 1.434 . S
C1870 C1871 1.369 . S
C1870 C1872 1.415 1_556 S
C1870 H1874 0.930 . S
C1871 C1870 1.369 . S
C1871 C1880 1.429 1_556 S
C1872 C1870 1.415 1_554 S
C1872 C1873 1.370 . S
C1872 H1875 0.926 1_554 S
C1873 C1872 1.370 . S
C1873 C1879 1.428 . S
H1874 C1870 0.930 . S
H1875 C1872 0.926 1_556 S
S1876 N1877 1.613 . S
S1876 N1878 1.610 . S
N1877 S1876 1.613 . S
N1877 C1880 1.350 . S
N1878 S1876 1.610 . S
N1878 C1879 1.351 . S
C1879 C1873 1.428 . S
C1879 N1878 1.351 . S
C1879 C1880 1.434 . S
C1880 C1871 1.429 1_554 S
C1880 N1877 1.350 . S
C1880 C1879 1.434 . S
C1881 C1882 1.369 1_554 S
C1881 C1883 1.419 . S
C1881 H1885 0.930 . S
C1882 C1881 1.369 1_556 S
C1882 C1891 1.429 . S
C1883 C1881 1.419 . S
C1883 C1884 1.378 . S
C1883 H1886 0.929 . S
C1884 C1883 1.378 . S
C1884 C1890 1.400 1_554 S
H1885 C1881 0.930 . S
H1886 C1883 0.929 . S
S1887 N1888 1.613 . S
S1887 N1889 1.610 . S
N1888 S1887 1.613 . S
N1888 C1891 1.350 . S
N1889 S1887 1.610 . S
N1889 C1890 1.351 . S
C1890 C1884 1.400 1_556 S
C1890 N1889 1.351 . S
C1890 C1891 1.434 . S
C1891 C1882 1.429 . S
C1891 N1888 1.350 . S
C1891 C1890 1.434 . S
C1892 C1893 1.369 . S
C1892 C1894 1.419 . S
C1892 H1896 0.930 . S
C1893 C1892 1.369 . S
C1893 C1902 1.429 1_545 S
C1894 C1892 1.419 . S
C1894 C1895 1.363 1_545 S
C1894 H1897 0.929 . S
C1895 C1894 1.363 1_565 S
C1895 C1901 1.428 . S
H1896 C1892 0.930 . S
H1897 C1894 0.929 . S
S1898 N1899 1.613 . S
S1898 N1900 1.610 . S
N1899 S1898 1.613 . S
N1899 C1902 1.350 . S
N1900 S1898 1.610 . S
N1900 C1901 1.351 . S
C1901 C1895 1.428 . S
C1901 N1900 1.351 . S
C1901 C1902 1.434 . S
C1902 C1893 1.429 1_565 S
C1902 N1899 1.350 . S
C1902 C1901 1.434 . S
C1903 C1904 1.369 1_455 S
C1903 C1905 1.419 . S
C1903 H1907 0.930 1_455 S
C1904 C1903 1.369 1_655 S
C1904 C1913 1.436 . S
C1905 C1903 1.419 . S
C1905 C1906 1.363 . S
C1905 H1908 0.929 . S
C1906 C1905 1.363 . S
C1906 C1912 1.428 . S
H1907 C1903 0.930 1_655 S
H1908 C1905 0.929 . S
S1909 N1910 1.613 1_455 S
S1909 N1911 1.610 . S
N1910 S1909 1.613 1_655 S
N1910 C1913 1.356 . S
N1911 S1909 1.610 . S
N1911 C1912 1.351 . S
C1912 C1906 1.428 . S
C1912 N1911 1.351 . S
C1912 C1913 1.419 1_455 S
C1913 C1904 1.436 . S
C1913 N1910 1.356 . S
C1913 C1912 1.419 1_655 S
C1914 C1915 1.369 . S
C1914 C1916 1.419 . S
C1914 H1918 0.930 . S
C1915 C1914 1.369 . S
C1915 C1924 1.429 . S
C1916 C1914 1.419 . S
C1916 C1917 1.363 1_556 S
C1916 H1919 0.929 . S
C1917 C1916 1.363 1_554 S
C1917 C1923 1.428 . S
H1918 C1914 0.930 . S
H1919 C1916 0.929 . S
S1920 N1921 1.613 1_554 S
S1920 N1922 1.610 . S
N1921 S1920 1.613 1_556 S
N1921 C1924 1.350 . S
N1922 S1920 1.610 . S
N1922 C1923 1.351 . S
C1923 C1917 1.428 . S
C1923 N1922 1.351 . S
C1923 C1924 1.434 1_554 S
C1924 C1915 1.429 . S
C1924 N1921 1.350 . S
C1924 C1923 1.434 1_556 S
C1925 C1926 1.369 . S
C1925 C1927 1.419 . S
C1925 H1929 0.930 . S
C1926 C1925 1.369 . S
C1926 C1935 1.429 . S
C1927 C1925 1.419 . S
C1927 C1928 1.363 . S
C1927 H1930 0.929 . S
C1928 C1927 1.363 . S
C1928 C1934 1.428 . S
H1929 C1925 0.930 . S
H1930 C1927 0.929 . S
S1931 N1932 1.613 . S
S1931 N1933 1.610 . S
N1932 S1931 1.613 . S
N1932 C1935 1.350 . S
N1933 S1931 1.610 . S
N1933 C1934 1.351 . S
C1934 C1928 1.428 . S
C1934 N1933 1.351 . S
C1934 C1935 1.434 . S
C1935 C1926 1.429 . S
C1935 N1932 1.350 . S
C1935 C1934 1.434 . S
C1936 C1937 1.369 . S
C1936 C1938 1.419 . S
C1936 H1940 0.930 . S
C1937 C1936 1.369 . S
C1937 C1946 1.429 . S
C1938 C1936 1.419 . S
C1938 C1939 1.363 . S
C1938 H1941 0.929 . S
C1939 C1938 1.363 . S
C1939 C1945 1.428 . S
H1940 C1936 0.930 . S
H1941 C1938 0.929 . S
S1942 N1943 1.613 . S
S1942 N1944 1.610 . S
N1943 S1942 1.613 . S
N1943 C1946 1.350 . S
N1944 S1942 1.610 . S
N1944 C1945 1.351 . S
C1945 C1939 1.428 . S
C1945 N1944 1.351 . S
C1945 C1946 1.434 . S
C1946 C1937 1.429 . S
C1946 N1943 1.350 . S
C1946 C1945 1.434 . S
C1947 C1948 1.369 . S
C1947 C1949 1.419 . S
C1947 H1951 0.930 . S
C1948 C1947 1.369 . S
C1948 C1957 1.429 . S
C1949 C1947 1.419 . S
C1949 C1950 1.363 . S
C1949 H1952 0.929 . S
C1950 C1949 1.363 . S
C1950 C1956 1.428 . S
H1951 C1947 0.930 . S
H1952 C1949 0.929 . S
S1953 N1954 1.613 . S
S1953 N1955 1.610 . S
N1954 S1953 1.613 . S
N1954 C1957 1.350 . S
N1955 S1953 1.610 . S
N1955 C1956 1.351 . S
C1956 C1950 1.428 . S
C1956 N1955 1.351 . S
C1956 C1957 1.434 . S
C1957 C1948 1.429 . S
C1957 N1954 1.350 . S
C1957 C1956 1.434 . S
C1958 C1959 1.369 . S
C1958 C1960 1.419 . S
C1958 H1962 0.930 . S
C1959 C1958 1.369 . S
C1959 C1968 1.429 . S
C1960 C1958 1.419 . S
C1960 C1961 1.363 . S
C1960 H1963 0.929 . S
C1961 C1960 1.363 . S
C1961 C1967 1.428 . S
H1962 C1958 0.930 . S
H1963 C1960 0.929 . S
S1964 N1965 1.613 . S
S1964 N1966 1.610 . S
N1965 S1964 1.613 . S
N1965 C1968 1.350 . S
N1966 S1964 1.610 . S
N1966 C1967 1.351 . S
C1967 C1961 1.428 . S
C1967 N1966 1.351 . S
C1967 C1968 1.434 . S
C1968 C1959 1.429 . S
C1968 N1965 1.350 . S
C1968 C1967 1.434 . S
C1969 C1970 1.369 . S
C1969 C1971 1.419 . S
C1969 H1973 0.930 . S
C1970 C1969 1.369 . S
C1970 C1979 1.429 1_554 S
C1971 C1969 1.419 . S
C1971 C1972 1.363 1_554 S
C1971 H1974 0.929 . S
C1972 C1971 1.363 1_556 S
C1972 C1978 1.428 . S
H1973 C1969 0.930 . S
H1974 C1971 0.929 . S
S1975 N1976 1.613 . S
S1975 N1977 1.610 . S
N1976 S1975 1.613 . S
N1976 C1979 1.350 . S
N1977 S1975 1.610 . S
N1977 C1978 1.351 . S
C1978 C1972 1.428 . S
C1978 N1977 1.351 . S
C1978 C1979 1.434 . S
C1979 C1970 1.429 1_556 S
C1979 N1976 1.350 . S
C1979 C1978 1.434 . S
C1980 C1981 1.369 . S
C1980 C1982 1.419 . S
C1980 H1984 0.930 . S
C1981 C1980 1.369 . S
C1981 C1990 1.429 . S
C1982 C1980 1.419 . S
C1982 C1983 1.363 1_455 S
C1982 H1985 0.929 . S
C1983 C1982 1.363 1_655 S
C1983 C1989 1.428 . S
H1984 C1980 0.930 . S
H1985 C1982 0.929 . S
S1986 N1987 1.613 1_655 S
S1986 N1988 1.610 . S
N1987 S1986 1.613 1_455 S
N1987 C1990 1.350 . S
N1988 S1986 1.610 . S
N1988 C1989 1.351 . S
C1989 C1983 1.428 . S
C1989 N1988 1.351 . S
C1989 C1990 1.434 1_655 S
C1990 C1981 1.429 . S
C1990 N1987 1.350 . S
C1990 C1989 1.434 1_455 S
C1991 C1992 1.369 . S
C1991 C1993 1.419 . S
C1991 H1995 0.930 . S
C1992 C1991 1.369 . S
C1992 C2001 1.429 . S
C1993 C1991 1.419 . S
C1993 C1994 1.363 . S
C1993 H1996 0.929 . S
C1994 C1993 1.363 . S
C1994 C2000 1.428 . S
H1995 C1991 0.930 . S
H1996 C1993 0.929 . S
S1997 N1998 1.613 . S
S1997 N1999 1.610 . S
N1998 S1997 1.613 . S
N1998 C2001 1.350 . S
N1999 S1997 1.610 . S
N1999 C2000 1.351 . S
C2000 C1994 1.428 . S
C2000 N1999 1.351 . S
C2000 C2001 1.434 . S
C2001 C1992 1.429 . S
C2001 N1998 1.350 . S
C2001 C2000 1.434 . S
C2002 C2003 1.369 . S
C2002 C2004 1.419 . S
C2002 H2006 0.930 . S
C2003 C2002 1.369 . S
C2003 C2012 1.429 . S
C2004 C2002 1.419 . S
C2004 C2005 1.363 . S
C2004 H2007 0.929 . S
C2005 C2004 1.363 . S
C2005 C2011 1.428 . S
H2006 C2002 0.930 . S
H2007 C2004 0.929 . S
S2008 N2009 1.613 . S
S2008 N2010 1.610 . S
N2009 S2008 1.613 . S
N2009 C2012 1.350 . S
N2010 S2008 1.610 . S
N2010 C2011 1.351 . S
C2011 C2005 1.428 . S
C2011 N2010 1.351 . S
C2011 C2012 1.434 . S
C2012 C2003 1.429 . S
C2012 N2009 1.350 . S
C2012 C2011 1.434 . S
C2013 C2014 1.369 . S
C2013 C2015 1.419 . S
C2013 H2017 0.930 . S
C2014 C2013 1.369 . S
C2014 C2023 1.429 . S
C2015 C2013 1.419 . S
C2015 C2016 1.363 . S
C2015 H2018 0.929 . S
C2016 C2015 1.363 . S
C2016 C2022 1.428 . S
H2017 C2013 0.930 . S
H2018 C2015 0.929 . S
S2019 N2020 1.613 . S
S2019 N2021 1.610 . S
N2020 S2019 1.613 . S
N2020 C2023 1.350 . S
N2021 S2019 1.610 . S
N2021 C2022 1.351 . S
C2022 C2016 1.428 . S
C2022 N2021 1.351 . S
C2022 C2023 1.434 . S
C2023 C2014 1.429 . S
C2023 N2020 1.350 . S
C2023 C2022 1.434 . S
C2024 C2025 1.369 . S
C2024 C2026 1.419 . S
C2024 H2028 0.930 . S
C2025 C2024 1.369 . S
C2025 C2034 1.429 . S
C2026 C2024 1.419 . S
C2026 C2027 1.363 . S
C2026 H2029 0.929 . S
C2027 C2026 1.363 . S
C2027 C2033 1.428 . S
H2028 C2024 0.930 . S
H2029 C2026 0.929 . S
S2030 N2031 1.613 . S
S2030 N2032 1.610 . S
N2031 S2030 1.613 . S
N2031 C2034 1.350 . S
N2032 S2030 1.610 . S
N2032 C2033 1.351 . S
C2033 C2027 1.428 . S
C2033 N2032 1.351 . S
C2033 C2034 1.434 . S
C2034 C2025 1.429 . S
C2034 N2031 1.350 . S
C2034 C2033 1.434 . S
C2035 C2036 1.369 . S
C2035 C2037 1.419 1_455 S
C2035 H2039 0.930 . S
C2036 C2035 1.369 . S
C2036 C2045 1.429 1_455 S
C2037 C2035 1.419 1_655 S
C2037 C2038 1.363 . S
C2037 H2040 0.929 . S
C2038 C2037 1.363 . S
C2038 C2044 1.428 . S
H2039 C2035 0.930 . S
H2040 C2037 0.929 . S
S2041 N2042 1.613 . S
S2041 N2043 1.610 . S
N2042 S2041 1.613 . S
N2042 C2045 1.350 . S
N2043 S2041 1.610 . S
N2043 C2044 1.351 . S
C2044 C2038 1.428 . S
C2044 N2043 1.351 . S
C2044 C2045 1.434 . S
C2045 C2036 1.429 1_655 S
C2045 N2042 1.350 . S
C2045 C2044 1.434 . S
C2046 C2047 1.369 . S
C2046 C2048 1.419 . S
C2046 H2050 0.930 . S
C2047 C2046 1.369 . S
C2047 C2056 1.429 . S
C2048 C2046 1.419 . S
C2048 C2049 1.363 . S
C2048 H2051 0.929 . S
C2049 C2048 1.363 . S
C2049 C2055 1.428 . S
H2050 C2046 0.930 . S
H2051 C2048 0.929 . S
S2052 N2053 1.613 . S
S2052 N2054 1.610 . S
N2053 S2052 1.613 . S
N2053 C2056 1.350 . S
N2054 S2052 1.610 . S
N2054 C2055 1.351 . S
C2055 C2049 1.428 . S
C2055 N2054 1.351 . S
C2055 C2056 1.434 . S
C2056 C2047 1.429 . S
C2056 N2053 1.350 . S
C2056 C2055 1.434 . S
C2057 C2058 1.369 . S
C2057 C2059 1.419 . S
C2057 H2061 0.930 . S
C2058 C2057 1.369 . S
C2058 C2067 1.429 . S
C2059 C2057 1.419 . S
C2059 C2060 1.363 . S
C2059 H2062 0.929 . S
C2060 C2059 1.363 . S
C2060 C2066 1.428 . S
H2061 C2057 0.930 . S
H2062 C2059 0.929 . S
S2063 N2064 1.613 . S
S2063 N2065 1.610 . S
N2064 S2063 1.613 . S
N2064 C2067 1.350 . S
N2065 S2063 1.610 . S
N2065 C2066 1.351 . S
C2066 C2060 1.428 . S
C2066 N2065 1.351 . S
C2066 C2067 1.434 . S
C2067 C2058 1.429 . S
C2067 N2064 1.350 . S
C2067 C2066 1.434 . S
C2068 C2069 1.369 . S
C2068 C2070 1.419 . S
C2068 H2072 0.930 . S
C2069 C2068 1.369 . S
C2069 C2078 1.429 . S
C2070 C2068 1.419 . S
C2070 C2071 1.363 . S
C2070 H2073 0.929 . S
C2071 C2070 1.363 . S
C2071 C2077 1.428 . S
H2072 C2068 0.930 . S
H2073 C2070 0.929 . S
S2074 N2075 1.613 . S
S2074 N2076 1.610 . S
N2075 S2074 1.613 . S
N2075 C2078 1.350 . S
N2076 S2074 1.610 . S
N2076 C2077 1.351 . S
C2077 C2071 1.428 . S
C2077 N2076 1.351 . S
C2077 C2078 1.434 . S
C2078 C2069 1.429 . S
C2078 N2075 1.350 . S
C2078 C2077 1.434 . S
C2079 C2080 1.369 . S
C2079 C2081 1.419 . S
C2079 H2083 0.930 . S
C2080 C2079 1.369 . S
C2080 C2089 1.429 . S
C2081 C2079 1.419 . S
C2081 C2082 1.363 . S
C2081 H2084 0.929 . S
C2082 C2081 1.363 . S
C2082 C2088 1.428 . S
H2083 C2079 0.930 . S
H2084 C2081 0.929 . S
S2085 N2086 1.613 . S
S2085 N2087 1.610 . S
N2086 S2085 1.613 . S
N2086 C2089 1.350 . S
N2087 S2085 1.610 . S
N2087 C2088 1.351 . S
C2088 C2082 1.428 . S
C2088 N2087 1.351 . S
C2088 C2089 1.434 . S
C2089 C2080 1.429 . S
C2089 N2086 1.350 . S
C2089 C2088 1.434 . S
C2090 C2091 1.369 . S
C2090 C2092 1.419 . S
C2090 H2094 0.930 . S
C2091 C2090 1.369 . S
C2091 C2100 1.429 . S
C2092 C2090 1.419 . S
C2092 C2093 1.363 . S
C2092 H2095 0.929 . S
C2093 C2092 1.363 . S
C2093 C2099 1.428 . S
H2094 C2090 0.930 . S
H2095 C2092 0.929 . S
S2096 N2097 1.613 . S
S2096 N2098 1.610 . S
N2097 S2096 1.613 . S
N2097 C2100 1.350 . S
N2098 S2096 1.610 . S
N2098 C2099 1.351 . S
C2099 C2093 1.428 . S
C2099 N2098 1.351 . S
C2099 C2100 1.434 . S
C2100 C2091 1.429 . S
C2100 N2097 1.350 . S
C2100 C2099 1.434 . S
C2101 C2102 1.369 . S
C2101 C2103 1.419 . S
C2101 H2105 0.930 . S
C2102 C2101 1.369 . S
C2102 C2111 1.429 . S
C2103 C2101 1.419 . S
C2103 C2104 1.363 1_556 S
C2103 H2106 0.929 1_455 S
C2104 C2103 1.363 1_554 S
C2104 C2110 1.428 . S
H2105 C2101 0.930 . S
H2106 C2103 0.929 1_655 S
S2107 N2108 1.613 1_554 S
S2107 N2109 1.610 . S
N2108 S2107 1.613 1_556 S
N2108 C2111 1.350 . S
N2109 S2107 1.610 . S
N2109 C2110 1.351 . S
C2110 C2104 1.428 . S
C2110 N2109 1.351 . S
C2110 C2111 1.434 1_554 S
C2111 C2102 1.429 . S
C2111 N2108 1.350 . S
C2111 C2110 1.434 1_556 S
C2112 C2113 1.369 . S
C2112 C2114 1.419 . S
C2112 H2116 0.930 . S
C2113 C2112 1.369 . S
C2113 C2122 1.429 . S
C2114 C2112 1.419 . S
C2114 C2115 1.363 . S
C2114 H2117 0.929 . S
C2115 C2114 1.363 . S
C2115 C2121 1.428 . S
H2116 C2112 0.930 . S
H2117 C2114 0.929 . S
S2118 N2119 1.613 . S
S2118 N2120 1.610 . S
N2119 S2118 1.613 . S
N2119 C2122 1.350 . S
N2120 S2118 1.610 . S
N2120 C2121 1.351 . S
C2121 C2115 1.428 . S
C2121 N2120 1.351 . S
C2121 C2122 1.434 . S
C2122 C2113 1.429 . S
C2122 N2119 1.350 . S
C2122 C2121 1.434 . S
C2123 C2124 1.369 . S
C2123 C2125 1.419 . S
C2123 H2127 0.930 . S
C2124 C2123 1.369 . S
C2124 C2133 1.429 . S
C2125 C2123 1.419 . S
C2125 C2126 1.363 . S
C2125 H2128 0.929 . S
C2126 C2125 1.363 . S
C2126 C2132 1.428 . S
H2127 C2123 0.930 . S
H2128 C2125 0.929 . S
S2129 N2130 1.613 . S
S2129 N2131 1.610 . S
N2130 S2129 1.613 . S
N2130 C2133 1.350 . S
N2131 S2129 1.610 . S
N2131 C2132 1.351 . S
C2132 C2126 1.428 . S
C2132 N2131 1.351 . S
C2132 C2133 1.434 . S
C2133 C2124 1.429 . S
C2133 N2130 1.350 . S
C2133 C2132 1.434 . S
C2134 C2135 1.369 1_565 S
C2134 C2136 1.419 . S
C2134 H2138 0.930 . S
C2135 C2134 1.369 1_545 S
C2135 C2144 1.429 . S
C2136 C2134 1.419 . S
C2136 C2137 1.363 . S
C2136 H2139 0.929 . S
C2137 C2136 1.363 . S
C2137 C2143 1.428 1_565 S
H2138 C2134 0.930 . S
H2139 C2136 0.929 . S
S2140 N2141 1.613 . S
S2140 N2142 1.610 . S
N2141 S2140 1.613 . S
N2141 C2144 1.350 . S
N2142 S2140 1.610 . S
N2142 C2143 1.351 . S
C2143 C2137 1.428 1_545 S
C2143 N2142 1.351 . S
C2143 C2144 1.434 . S
C2144 C2135 1.429 . S
C2144 N2141 1.350 . S
C2144 C2143 1.434 . S
C2145 C2146 1.369 . S
C2145 C2147 1.419 . S
C2145 H2149 0.930 . S
C2146 C2145 1.369 . S
C2146 C2155 1.429 . S
C2147 C2145 1.419 . S
C2147 C2148 1.363 . S
C2147 H2150 0.929 . S
C2148 C2147 1.363 . S
C2148 C2154 1.428 . S
H2149 C2145 0.930 . S
H2150 C2147 0.929 . S
S2151 N2152 1.613 . S
S2151 N2153 1.610 . S
N2152 S2151 1.613 . S
N2152 C2155 1.350 . S
N2153 S2151 1.610 . S
N2153 C2154 1.351 . S
C2154 C2148 1.428 . S
C2154 N2153 1.351 . S
C2154 C2155 1.434 . S
C2155 C2146 1.429 . S
C2155 N2152 1.350 . S
C2155 C2154 1.434 . S
C2156 C2157 1.349 1_556 S
C2156 C2158 1.430 . S
C2156 H2160 0.939 . S
C2157 C2156 1.349 1_554 S
C2157 C2166 1.429 . S
C2158 C2156 1.430 . S
C2158 C2159 1.363 . S
C2158 H2161 0.929 . S
C2159 C2158 1.363 . S
C2159 C2165 1.428 1_556 S
H2160 C2156 0.939 . S
H2161 C2158 0.929 . S
S2162 N2163 1.613 . S
S2162 N2164 1.610 . S
N2163 S2162 1.613 . S
N2163 C2166 1.350 . S
N2164 S2162 1.610 . S
N2164 C2165 1.351 . S
C2165 C2159 1.428 1_554 S
C2165 N2164 1.351 . S
C2165 C2166 1.434 . S
C2166 C2157 1.429 . S
C2166 N2163 1.350 . S
C2166 C2165 1.434 . S
C2167 C2168 1.369 . S
C2167 C2169 1.419 . S
C2167 H2171 0.930 . S
C2168 C2167 1.369 . S
C2168 C2177 1.429 . S
C2169 C2167 1.419 . S
C2169 C2170 1.363 . S
C2169 H2172 0.929 . S
C2170 C2169 1.363 . S
C2170 C2176 1.428 . S
H2171 C2167 0.930 . S
H2172 C2169 0.929 . S
S2173 N2174 1.613 . S
S2173 N2175 1.610 . S
N2174 S2173 1.613 . S
N2174 C2177 1.350 . S
N2175 S2173 1.610 . S
N2175 C2176 1.351 . S
C2176 C2170 1.428 . S
C2176 N2175 1.351 . S
C2176 C2177 1.434 . S
C2177 C2168 1.429 . S
C2177 N2174 1.350 . S
C2177 C2176 1.434 . S
C2178 C2179 1.369 . S
C2178 C2180 1.419 . S
C2178 H2182 0.930 . S
C2179 C2178 1.369 . S
C2179 C2188 1.429 1_565 S
C2180 C2178 1.419 . S
C2180 C2181 1.363 1_655 S
C2180 H2183 0.929 . S
C2181 C2180 1.363 1_455 S
C2181 C2187 1.428 . S
H2182 C2178 0.930 . S
H2183 C2180 0.929 . S
S2184 N2185 1.638 . S
S2184 N2186 1.610 1_545 S
N2185 S2184 1.638 . S
N2185 C2188 1.343 1_455 S
N2186 S2184 1.610 1_565 S
N2186 C2187 1.351 . S
C2187 C2181 1.428 . S
C2187 N2186 1.351 . S
C2187 C2188 1.434 1_465 S
C2188 C2179 1.429 1_545 S
C2188 N2185 1.343 1_655 S
C2188 C2187 1.434 1_645 S
C2189 C2190 1.369 . S
C2189 C2191 1.419 . S
C2189 H2193 0.930 . S
C2190 C2189 1.369 . S
C2190 C2199 1.429 . S
C2191 C2189 1.419 . S
C2191 C2192 1.363 . S
C2191 H2194 0.929 . S
C2192 C2191 1.363 . S
C2192 C2198 1.428 . S
H2193 C2189 0.930 . S
H2194 C2191 0.929 . S
S2195 N2196 1.613 . S
S2195 N2197 1.610 . S
N2196 S2195 1.613 . S
N2196 C2199 1.350 . S
N2197 S2195 1.610 . S
N2197 C2198 1.351 . S
C2198 C2192 1.428 . S
C2198 N2197 1.351 . S
C2198 C2199 1.434 . S
C2199 C2190 1.429 . S
C2199 N2196 1.350 . S
C2199 C2198 1.434 . S
C2200 C2201 1.369 . S
C2200 C2202 1.419 . S
C2200 H2204 0.930 . S
C2201 C2200 1.369 . S
C2201 C2210 1.429 . S
C2202 C2200 1.419 . S
C2202 C2203 1.363 . S
C2202 H2205 0.929 . S
C2203 C2202 1.363 . S
C2203 C2209 1.428 . S
H2204 C2200 0.930 . S
H2205 C2202 0.929 . S
S2206 N2207 1.613 . S
S2206 N2208 1.610 . S
N2207 S2206 1.613 . S
N2207 C2210 1.350 . S
N2208 S2206 1.610 . S
N2208 C2209 1.351 . S
C2209 C2203 1.428 . S
C2209 N2208 1.351 . S
C2209 C2210 1.434 . S
C2210 C2201 1.429 . S
C2210 N2207 1.350 . S
C2210 C2209 1.434 . S
C2211 C2212 1.369 . S
C2211 C2213 1.419 . S
C2211 H2215 0.930 . S
C2212 C2211 1.369 . S
C2212 C2221 1.429 . S
C2213 C2211 1.419 . S
C2213 C2214 1.363 . S
C2213 H2216 0.929 . S
C2214 C2213 1.363 . S
C2214 C2220 1.430 . S
H2215 C2211 0.930 . S
H2216 C2213 0.929 . S
S2217 N2218 1.613 1_565 S
S2217 N2219 1.610 . S
N2218 S2217 1.613 1_545 S
N2218 C2221 1.350 . S
N2219 S2217 1.610 . S
N2219 C2220 1.329 1_565 S
C2220 C2214 1.430 . S
C2220 N2219 1.329 1_545 S
C2220 C2221 1.457 . S
C2221 C2212 1.429 . S
C2221 N2218 1.350 . S
C2221 C2220 1.457 . S
C2222 C2223 1.369 . S
C2222 C2224 1.419 . S
C2222 H2226 0.930 . S
C2223 C2222 1.369 . S
C2223 C2232 1.429 . S
C2224 C2222 1.419 . S
C2224 C2225 1.363 . S
C2224 H2227 0.929 . S
C2225 C2224 1.363 . S
C2225 C2231 1.428 . S
H2226 C2222 0.930 . S
H2227 C2224 0.929 . S
S2228 N2229 1.613 . S
S2228 N2230 1.610 . S
N2229 S2228 1.613 . S
N2229 C2232 1.350 . S
N2230 S2228 1.610 . S
N2230 C2231 1.351 . S
C2231 C2225 1.428 . S
C2231 N2230 1.351 . S
C2231 C2232 1.434 . S
C2232 C2223 1.429 . S
C2232 N2229 1.350 . S
C2232 C2231 1.434 . S
C2233 C2234 1.369 . S
C2233 C2235 1.419 1_455 S
C2233 H2237 0.930 . S
C2234 C2233 1.369 . S
C2234 C2243 1.429 1_455 S
C2235 C2233 1.419 1_655 S
C2235 C2236 1.363 . S
C2235 H2238 0.929 . S
C2236 C2235 1.363 . S
C2236 C2242 1.428 . S
H2237 C2233 0.930 . S
H2238 C2235 0.929 . S
S2239 N2240 1.613 1_655 S
S2239 N2241 1.610 . S
N2240 S2239 1.613 1_455 S
N2240 C2243 1.350 1_455 S
N2241 S2239 1.610 . S
N2241 C2242 1.351 . S
C2242 C2236 1.428 . S
C2242 N2241 1.351 . S
C2242 C2243 1.434 . S
C2243 C2234 1.429 1_655 S
C2243 N2240 1.350 1_655 S
C2243 C2242 1.434 . S
C2244 C2245 1.369 1_455 S
C2244 C2246 1.419 . S
C2244 H2248 0.930 . S
C2245 C2244 1.369 1_655 S
C2245 C2254 1.429 . S
C2246 C2244 1.419 . S
C2246 C2247 1.363 . S
C2246 H2249 0.929 . S
C2247 C2246 1.363 . S
C2247 C2253 1.428 1_455 S
H2248 C2244 0.930 . S
H2249 C2246 0.929 . S
S2250 N2251 1.613 . S
S2250 N2252 1.610 . S
N2251 S2250 1.613 . S
N2251 C2254 1.350 . S
N2252 S2250 1.610 . S
N2252 C2253 1.351 . S
C2253 C2247 1.428 1_655 S
C2253 N2252 1.351 . S
C2253 C2254 1.434 . S
C2254 C2245 1.429 . S
C2254 N2251 1.350 . S
C2254 C2253 1.434 . S
C2255 C2256 1.369 . S
C2255 C2257 1.419 . S
C2255 H2259 0.930 . S
C2256 C2255 1.369 . S
C2256 C2265 1.429 . S
C2257 C2255 1.419 . S
C2257 C2258 1.363 . S
C2257 H2260 0.929 . S
C2258 C2257 1.363 . S
C2258 C2264 1.428 . S
H2259 C2255 0.930 . S
H2260 C2257 0.929 . S
S2261 N2262 1.613 . S
S2261 N2263 1.610 . S
N2262 S2261 1.613 . S
N2262 C2265 1.350 . S
N2263 S2261 1.610 . S
N2263 C2264 1.351 . S
C2264 C2258 1.428 . S
C2264 N2263 1.351 . S
C2264 C2265 1.434 . S
C2265 C2256 1.429 . S
C2265 N2262 1.350 . S
C2265 C2264 1.434 . S
C2266 C2267 1.369 . S
C2266 C2268 1.419 . S
C2266 H2270 0.930 . S
C2267 C2266 1.369 . S
C2267 C2276 1.429 . S
C2268 C2266 1.419 . S
C2268 C2269 1.363 . S
C2268 H2271 0.929 . S
C2269 C2268 1.363 . S
C2269 C2275 1.428 . S
H2270 C2266 0.930 . S
H2271 C2268 0.929 . S
S2272 N2273 1.613 . S
S2272 N2274 1.610 . S
N2273 S2272 1.613 . S
N2273 C2276 1.350 . S
N2274 S2272 1.610 . S
N2274 C2275 1.351 . S
C2275 C2269 1.428 . S
C2275 N2274 1.351 . S
C2275 C2276 1.434 . S
C2276 C2267 1.429 . S
C2276 N2273 1.350 . S
C2276 C2275 1.434 . S
C2277 C2278 1.369 1_455 S
C2277 C2279 1.395 1_554 S
C2277 H2281 0.930 1_455 S
C2278 C2277 1.369 1_655 S
C2278 C2287 1.429 1_655 S
C2279 C2277 1.395 1_556 S
C2279 C2280 1.379 . S
C2279 H2282 0.940 . S
C2280 C2279 1.379 . S
C2280 C2286 1.428 . S
H2281 C2277 0.930 1_655 S
H2282 C2279 0.940 . S
S2283 N2284 1.613 1_455 S
S2283 N2285 1.610 1_554 S
N2284 S2283 1.613 1_655 S
N2284 C2287 1.350 1_655 S
N2285 S2283 1.610 1_556 S
N2285 C2286 1.351 . S
C2286 C2280 1.428 . S
C2286 N2285 1.351 . S
C2286 C2287 1.434 1_556 S
C2287 C2278 1.429 1_455 S
C2287 N2284 1.350 1_455 S
C2287 C2286 1.434 1_554 S
C2288 C2289 1.369 . S
C2288 C2290 1.419 . S
C2288 H2292 0.930 . S
C2289 C2288 1.369 . S
C2289 C2298 1.429 . S
C2290 C2288 1.419 . S
C2290 C2291 1.363 . S
C2290 H2293 0.929 . S
C2291 C2290 1.363 . S
C2291 C2297 1.428 . S
H2292 C2288 0.930 . S
H2293 C2290 0.929 . S
S2294 N2295 1.613 . S
S2294 N2296 1.610 . S
N2295 S2294 1.613 . S
N2295 C2298 1.350 . S
N2296 S2294 1.610 . S
N2296 C2297 1.351 . S
C2297 C2291 1.428 . S
C2297 N2296 1.351 . S
C2297 C2298 1.434 . S
C2298 C2289 1.429 . S
C2298 N2295 1.350 . S
C2298 C2297 1.434 . S
C2299 C2300 1.369 . S
C2299 C2301 1.419 . S
C2299 H2303 0.930 . S
C2300 C2299 1.369 . S
C2300 C2309 1.429 . S
C2301 C2299 1.419 . S
C2301 C2302 1.363 . S
C2301 H2304 0.929 . S
C2302 C2301 1.363 . S
C2302 C2308 1.428 . S
H2303 C2299 0.930 . S
H2304 C2301 0.929 . S
S2305 N2306 1.613 . S
S2305 N2307 1.610 1_545 S
N2306 S2305 1.613 . S
N2306 C2309 1.350 1_545 S
N2307 S2305 1.610 1_565 S
N2307 C2308 1.351 . S
C2308 C2302 1.428 . S
C2308 N2307 1.351 . S
C2308 C2309 1.434 . S
C2309 C2300 1.429 . S
C2309 N2306 1.350 1_565 S
C2309 C2308 1.434 . S
C2310 C2311 1.369 . S
C2310 C2312 1.419 . S
C2310 H2314 0.930 . S
C2311 C2310 1.369 . S
C2311 C2320 1.429 . S
C2312 C2310 1.419 . S
C2312 C2313 1.363 . S
C2312 H2315 0.929 . S
C2313 C2312 1.363 . S
C2313 C2319 1.428 . S
H2314 C2310 0.930 . S
H2315 C2312 0.929 . S
S2316 N2317 1.613 . S
S2316 N2318 1.610 . S
N2317 S2316 1.613 . S
N2317 C2320 1.350 . S
N2318 S2316 1.610 . S
N2318 C2319 1.351 . S
C2319 C2313 1.428 . S
C2319 N2318 1.351 . S
C2319 C2320 1.434 . S
C2320 C2311 1.429 . S
C2320 N2317 1.350 . S
C2320 C2319 1.434 . S
C2321 C2322 1.377 . S
C2321 C2323 1.381 1_556 S
C2321 H2325 0.962 . S
C2322 C2321 1.377 . S
C2322 C2331 1.429 1_556 S
C2323 C2321 1.381 1_554 S
C2323 C2324 1.363 . S
C2323 H2326 0.929 . S
C2324 C2323 1.363 . S
C2324 C2330 1.428 . S
H2325 C2321 0.962 . S
H2326 C2323 0.929 . S
S2327 N2328 1.613 . S
S2327 N2329 1.610 . S
N2328 S2327 1.613 . S
N2328 C2331 1.350 . S
N2329 S2327 1.610 . S
N2329 C2330 1.351 . S
C2330 C2324 1.428 . S
C2330 N2329 1.351 . S
C2330 C2331 1.434 . S
C2331 C2322 1.429 1_554 S
C2331 N2328 1.350 . S
C2331 C2330 1.434 . S
C2332 C2333 1.369 1_455 S
C2332 C2334 1.419 . S
C2332 H2336 0.930 . S
C2333 C2332 1.369 1_655 S
C2333 C2342 1.429 1_655 S
C2334 C2332 1.419 . S
C2334 C2335 1.363 . S
C2334 H2337 0.929 . S
C2335 C2334 1.363 . S
C2335 C2341 1.428 . S
H2336 C2332 0.930 . S
H2337 C2334 0.929 . S
S2338 N2339 1.613 1_455 S
S2338 N2340 1.610 1_545 S
N2339 S2338 1.613 1_655 S
N2339 C2342 1.350 1_655 S
N2340 S2338 1.610 1_565 S
N2340 C2341 1.351 1_565 S
C2341 C2335 1.428 . S
C2341 N2340 1.351 1_545 S
C2341 C2342 1.434 . S
C2342 C2333 1.429 1_455 S
C2342 N2339 1.350 1_455 S
C2342 C2341 1.434 . S
C2343 C2344 1.369 . S
C2343 C2345 1.419 . S
C2343 H2347 0.930 . S
C2344 C2343 1.369 . S
C2344 C2353 1.429 . S
C2345 C2343 1.419 . S
C2345 C2346 1.363 . S
C2345 H2348 0.929 . S
C2346 C2345 1.363 . S
C2346 C2352 1.428 . S
H2347 C2343 0.930 . S
H2348 C2345 0.929 . S
S2349 N2350 1.613 . S
S2349 N2351 1.610 . S
N2350 S2349 1.613 . S
N2350 C2353 1.350 . S
N2351 S2349 1.610 . S
N2351 C2352 1.351 . S
C2352 C2346 1.428 . S
C2352 N2351 1.351 . S
C2352 C2353 1.434 . S
C2353 C2344 1.429 . S
C2353 N2350 1.350 . S
C2353 C2352 1.434 . S
C2354 C2355 1.369 . S
C2354 C2356 1.419 1_565 S
C2354 H2358 0.930 . S
C2355 C2354 1.369 . S
C2355 C2364 1.429 . S
C2356 C2354 1.419 1_545 S
C2356 C2357 1.363 1_545 S
C2356 H2359 0.929 . S
C2357 C2356 1.363 1_565 S
C2357 C2363 1.428 . S
H2358 C2354 0.930 . S
H2359 C2356 0.929 . S
S2360 N2361 1.613 . S
S2360 N2362 1.610 . S
N2361 S2360 1.613 . S
N2361 C2364 1.350 . S
N2362 S2360 1.610 . S
N2362 C2363 1.351 . S
C2363 C2357 1.428 . S
C2363 N2362 1.351 . S
C2363 C2364 1.434 . S
C2364 C2355 1.429 . S
C2364 N2361 1.350 . S
C2364 C2363 1.434 . S
C2365 C2366 1.369 1_655 S
C2365 C2367 1.419 . S
C2365 H2369 0.930 . S
C2366 C2365 1.369 1_455 S
C2366 C2375 1.429 . S
C2367 C2365 1.419 . S
C2367 C2368 1.363 . S
C2367 H2370 0.929 . S
C2368 C2367 1.363 . S
C2368 C2374 1.428 . S
H2369 C2365 0.930 . S
H2370 C2367 0.929 . S
S2371 N2372 1.613 . S
S2371 N2373 1.610 . S
N2372 S2371 1.613 . S
N2372 C2375 1.350 . S
N2373 S2371 1.610 . S
N2373 C2374 1.351 1_455 S
C2374 C2368 1.428 . S
C2374 N2373 1.351 1_655 S
C2374 C2375 1.434 1_655 S
C2375 C2366 1.429 . S
C2375 N2372 1.350 . S
C2375 C2374 1.434 1_455 S
C2376 C2377 1.369 1_556 S
C2376 C2378 1.419 . S
C2376 H2380 0.930 . S
C2377 C2376 1.369 1_554 S
C2377 C2386 1.429 . S
C2378 C2376 1.419 . S
C2378 C2379 1.363 1_565 S
C2378 H2381 0.929 . S
C2379 C2378 1.363 1_545 S
C2379 C2385 1.428 1_556 S
H2380 C2376 0.930 . S
H2381 C2378 0.929 . S
S2382 N2383 1.599 1_545 S
S2382 N2384 1.610 . S
N2383 S2382 1.599 1_565 S
N2383 C2386 1.355 . S
N2384 S2382 1.610 . S
N2384 C2385 1.351 . S
C2385 C2379 1.428 1_554 S
C2385 N2384 1.351 . S
C2385 C2386 1.434 1_545 S
C2386 C2377 1.429 . S
C2386 N2383 1.355 . S
C2386 C2385 1.434 1_565 S
C2387 C2388 1.369 . S
C2387 C2389 1.419 . S
C2387 H2391 0.930 . S
C2388 C2387 1.369 . S
C2388 C2397 1.429 . S
C2389 C2387 1.419 . S
C2389 C2390 1.363 . S
C2389 H2392 0.929 . S
C2390 C2389 1.363 . S
C2390 C2396 1.428 . S
H2391 C2387 0.930 . S
H2392 C2389 0.929 . S
S2393 N2394 1.613 . S
S2393 N2395 1.610 . S
N2394 S2393 1.613 . S
N2394 C2397 1.350 . S
N2395 S2393 1.610 . S
N2395 C2396 1.351 . S
C2396 C2390 1.428 . S
C2396 N2395 1.351 . S
C2396 C2397 1.434 . S
C2397 C2388 1.429 . S
C2397 N2394 1.350 . S
C2397 C2396 1.434 . S
C2398 C2399 1.369 . S
C2398 C2400 1.419 . S
C2398 H2402 0.930 . S
C2399 C2398 1.369 . S
C2399 C2408 1.429 . S
C2400 C2398 1.419 . S
C2400 C2401 1.363 . S
C2400 H2403 0.929 . S
C2401 C2400 1.363 . S
C2401 C2407 1.428 . S
H2402 C2398 0.930 . S
H2403 C2400 0.929 . S
S2404 N2405 1.613 . S
S2404 N2406 1.610 . S
N2405 S2404 1.613 . S
N2405 C2408 1.350 . S
N2406 S2404 1.610 . S
N2406 C2407 1.351 . S
C2407 C2401 1.428 . S
C2407 N2406 1.351 . S
C2407 C2408 1.434 . S
C2408 C2399 1.429 . S
C2408 N2405 1.350 . S
C2408 C2407 1.434 . S
C2409 C2410 1.369 . S
C2409 C2411 1.419 . S
C2409 H2413 0.930 . S
C2410 C2409 1.369 . S
C2410 C2419 1.429 . S
C2411 C2409 1.419 . S
C2411 C2412 1.363 . S
C2411 H2414 0.929 . S
C2412 C2411 1.363 . S
C2412 C2418 1.428 . S
H2413 C2409 0.930 . S
H2414 C2411 0.929 . S
S2415 N2416 1.613 . S
S2415 N2417 1.610 . S
N2416 S2415 1.613 . S
N2416 C2419 1.350 . S
N2417 S2415 1.610 . S
N2417 C2418 1.351 . S
C2418 C2412 1.428 . S
C2418 N2417 1.351 . S
C2418 C2419 1.434 . S
C2419 C2410 1.429 . S
C2419 N2416 1.350 . S
C2419 C2418 1.434 . S
C2420 C2421 1.369 . S
C2420 C2422 1.419 . S
C2420 H2424 0.930 . S
C2421 C2420 1.369 . S
C2421 C2430 1.429 . S
C2422 C2420 1.419 . S
C2422 C2423 1.363 . S
C2422 H2425 0.929 . S
C2423 C2422 1.363 . S
C2423 C2429 1.428 . S
H2424 C2420 0.930 . S
H2425 C2422 0.929 . S
S2426 N2427 1.613 . S
S2426 N2428 1.610 . S
N2427 S2426 1.613 . S
N2427 C2430 1.350 . S
N2428 S2426 1.610 . S
N2428 C2429 1.351 . S
C2429 C2423 1.428 . S
C2429 N2428 1.351 . S
C2429 C2430 1.434 . S
C2430 C2421 1.429 . S
C2430 N2427 1.350 . S
C2430 C2429 1.434 . S
C2431 C2432 1.369 1_554 S
C2431 C2433 1.419 . S
C2431 H2435 0.930 . S
C2432 C2431 1.369 1_556 S
C2432 C2441 1.429 . S
C2433 C2431 1.419 . S
C2433 C2434 1.378 . S
C2433 H2436 0.929 . S
C2434 C2433 1.378 . S
C2434 C2440 1.399 1_554 S
H2435 C2431 0.930 . S
H2436 C2433 0.929 . S
S2437 N2438 1.613 . S
S2437 N2439 1.610 . S
N2438 S2437 1.613 . S
N2438 C2441 1.350 . S
N2439 S2437 1.610 . S
N2439 C2440 1.351 . S
C2440 C2434 1.399 1_556 S
C2440 N2439 1.351 . S
C2440 C2441 1.434 . S
C2441 C2432 1.429 . S
C2441 N2438 1.350 . S
C2441 C2440 1.434 . S
C2442 C2443 1.369 . S
C2442 C2444 1.419 . S
C2442 H2446 0.930 . S
C2443 C2442 1.369 . S
C2443 C2452 1.429 . S
C2444 C2442 1.419 . S
C2444 C2445 1.363 . S
C2444 H2447 0.929 . S
C2445 C2444 1.363 . S
C2445 C2451 1.428 . S
H2446 C2442 0.930 . S
H2447 C2444 0.929 . S
S2448 N2449 1.613 . S
S2448 N2450 1.610 . S
N2449 S2448 1.613 . S
N2449 C2452 1.350 . S
N2450 S2448 1.610 . S
N2450 C2451 1.351 . S
C2451 C2445 1.428 . S
C2451 N2450 1.351 . S
C2451 C2452 1.434 . S
C2452 C2443 1.429 . S
C2452 N2449 1.350 . S
C2452 C2451 1.434 . S
C2453 C2454 1.369 . S
C2453 C2455 1.419 . S
C2453 H2457 0.930 . S
C2454 C2453 1.369 . S
C2454 C2463 1.429 . S
C2455 C2453 1.419 . S
C2455 C2456 1.363 . S
C2455 H2458 0.929 . S
C2456 C2455 1.363 . S
C2456 C2462 1.428 . S
H2457 C2453 0.930 . S
H2458 C2455 0.929 . S
S2459 N2460 1.613 . S
S2459 N2461 1.610 . S
N2460 S2459 1.613 . S
N2460 C2463 1.350 . S
N2461 S2459 1.610 . S
N2461 C2462 1.351 . S
C2462 C2456 1.428 . S
C2462 N2461 1.351 . S
C2462 C2463 1.434 . S
C2463 C2454 1.429 . S
C2463 N2460 1.350 . S
C2463 C2462 1.434 . S
C2464 C2465 1.369 . S
C2464 C2466 1.419 . S
C2464 H2468 0.930 . S
C2465 C2464 1.369 . S
C2465 C2474 1.429 . S
C2466 C2464 1.419 . S
C2466 C2467 1.363 . S
C2466 H2469 0.929 . S
C2467 C2466 1.363 . S
C2467 C2473 1.428 . S
H2468 C2464 0.930 . S
H2469 C2466 0.929 . S
S2470 N2471 1.613 . S
S2470 N2472 1.610 . S
N2471 S2470 1.613 . S
N2471 C2474 1.350 . S
N2472 S2470 1.610 . S
N2472 C2473 1.351 . S
C2473 C2467 1.428 . S
C2473 N2472 1.351 . S
C2473 C2474 1.434 . S
C2474 C2465 1.429 . S
C2474 N2471 1.350 . S
C2474 C2473 1.434 . S
C2475 C2476 1.369 1_545 S
C2475 C2477 1.419 . S
C2475 H2479 0.931 . S
C2476 C2475 1.369 1_565 S
C2476 C2485 1.429 . S
C2477 C2475 1.419 . S
C2477 C2478 1.363 . S
C2477 H2480 0.929 . S
C2478 C2477 1.363 . S
C2478 C2484 1.428 . S
H2479 C2475 0.931 . S
H2480 C2477 0.929 . S
S2481 N2482 1.613 . S
S2481 N2483 1.610 1_565 S
N2482 S2481 1.613 . S
N2482 C2485 1.350 . S
N2483 S2481 1.610 1_545 S
N2483 C2484 1.351 . S
C2484 C2478 1.428 . S
C2484 N2483 1.351 . S
C2484 C2485 1.434 1_545 S
C2485 C2476 1.429 . S
C2485 N2482 1.350 . S
C2485 C2484 1.434 1_565 S
C2486 C2487 1.369 . S
C2486 C2488 1.419 . S
C2486 H2490 0.930 . S
C2487 C2486 1.369 . S
C2487 C2496 1.429 . S
C2488 C2486 1.419 . S
C2488 C2489 1.363 . S
C2488 H2491 0.929 . S
C2489 C2488 1.363 . S
C2489 C2495 1.428 . S
H2490 C2486 0.930 . S
H2491 C2488 0.929 . S
S2492 N2493 1.613 . S
S2492 N2494 1.610 . S
N2493 S2492 1.613 . S
N2493 C2496 1.350 . S
N2494 S2492 1.610 . S
N2494 C2495 1.351 . S
C2495 C2489 1.428 . S
C2495 N2494 1.351 . S
C2495 C2496 1.434 . S
C2496 C2487 1.429 . S
C2496 N2493 1.350 . S
C2496 C2495 1.434 . S
C2497 C2498 1.369 . S
C2497 C2499 1.419 1_545 S
C2497 H2501 0.930 . S
C2498 C2497 1.369 . S
C2498 C2507 1.429 1_545 S
C2499 C2497 1.419 1_565 S
C2499 C2500 1.363 . S
C2499 H2502 0.929 . S
C2500 C2499 1.363 . S
C2500 C2506 1.428 . S
H2501 C2497 0.930 . S
H2502 C2499 0.929 . S
S2503 N2504 1.613 . S
S2503 N2505 1.610 . S
N2504 S2503 1.613 . S
N2504 C2507 1.350 . S
N2505 S2503 1.610 . S
N2505 C2506 1.351 . S
C2506 C2500 1.428 . S
C2506 N2505 1.351 . S
C2506 C2507 1.434 . S
C2507 C2498 1.429 1_565 S
C2507 N2504 1.350 . S
C2507 C2506 1.434 . S
C2508 C2509 1.369 . S
C2508 C2510 1.419 1_554 S
C2508 H2512 0.930 . S
C2509 C2508 1.369 . S
C2509 C2518 1.429 . S
C2510 C2508 1.419 1_556 S
C2510 C2511 1.363 1_565 S
C2510 H2513 0.929 . S
C2511 C2510 1.363 1_545 S
C2511 C2517 1.428 1_545 S
H2512 C2508 0.930 . S
H2513 C2510 0.929 . S
S2514 N2515 1.613 1_556 S
S2514 N2516 1.610 1_565 S
N2515 S2514 1.613 1_554 S
N2515 C2518 1.350 . S
N2516 S2514 1.610 1_545 S
N2516 C2517 1.351 1_545 S
C2517 C2511 1.428 1_565 S
C2517 N2516 1.351 1_565 S
C2517 C2518 1.434 1_556 S
C2518 C2509 1.429 . S
C2518 N2515 1.350 . S
C2518 C2517 1.434 1_554 S
C2519 C2520 1.369 . S
C2519 C2521 1.419 . S
C2519 H2523 0.930 . S
C2520 C2519 1.369 . S
C2520 C2529 1.429 . S
C2521 C2519 1.419 . S
C2521 C2522 1.363 . S
C2521 H2524 0.929 . S
C2522 C2521 1.363 . S
C2522 C2528 1.428 . S
H2523 C2519 0.930 . S
H2524 C2521 0.929 . S
S2525 N2526 1.613 . S
S2525 N2527 1.610 . S
N2526 S2525 1.613 . S
N2526 C2529 1.350 . S
N2527 S2525 1.610 . S
N2527 C2528 1.351 . S
C2528 C2522 1.428 . S
C2528 N2527 1.351 . S
C2528 C2529 1.434 . S
C2529 C2520 1.429 . S
C2529 N2526 1.350 . S
C2529 C2528 1.434 . S
C2530 C2531 1.369 . S
C2530 C2532 1.419 . S
C2530 H2534 0.930 . S
C2531 C2530 1.369 . S
C2531 C2540 1.429 . S
C2532 C2530 1.419 . S
C2532 C2533 1.363 . S
C2532 H2535 0.929 . S
C2533 C2532 1.363 . S
C2533 C2539 1.428 1_554 S
H2534 C2530 0.930 . S
H2535 C2532 0.929 . S
S2536 N2537 1.613 1_556 S
S2536 N2538 1.610 . S
N2537 S2536 1.613 1_554 S
N2537 C2540 1.350 . S
N2538 S2536 1.610 . S
N2538 C2539 1.351 . S
C2539 C2533 1.428 1_556 S
C2539 N2538 1.351 . S
C2539 C2540 1.434 1_556 S
C2540 C2531 1.429 . S
C2540 N2537 1.350 . S
C2540 C2539 1.434 1_554 S
C2541 C2542 1.369 . S
C2541 C2543 1.419 . S
C2541 H2545 0.930 . S
C2542 C2541 1.369 . S
C2542 C2551 1.429 . S
C2543 C2541 1.419 . S
C2543 C2544 1.363 . S
C2543 H2546 0.929 . S
C2544 C2543 1.363 . S
C2544 C2550 1.428 . S
H2545 C2541 0.930 . S
H2546 C2543 0.929 . S
S2547 N2548 1.613 . S
S2547 N2549 1.610 . S
N2548 S2547 1.613 . S
N2548 C2551 1.350 . S
N2549 S2547 1.610 . S
N2549 C2550 1.351 . S
C2550 C2544 1.428 . S
C2550 N2549 1.351 . S
C2550 C2551 1.434 . S
C2551 C2542 1.429 . S
C2551 N2548 1.350 . S
C2551 C2550 1.434 . S
C2552 C2553 1.369 . S
C2552 C2554 1.419 . S
C2552 H2556 0.930 . S
C2553 C2552 1.369 . S
C2553 C2562 1.429 . S
C2554 C2552 1.419 . S
C2554 C2555 1.363 . S
C2554 H2557 0.929 . S
C2555 C2554 1.363 . S
C2555 C2561 1.428 . S
H2556 C2552 0.930 . S
H2557 C2554 0.929 . S
S2558 N2559 1.613 . S
S2558 N2560 1.610 . S
N2559 S2558 1.613 . S
N2559 C2562 1.350 . S
N2560 S2558 1.610 . S
N2560 C2561 1.351 . S
C2561 C2555 1.428 . S
C2561 N2560 1.351 . S
C2561 C2562 1.434 . S
C2562 C2553 1.429 . S
C2562 N2559 1.350 . S
C2562 C2561 1.434 . S
C2563 C2564 1.369 . S
C2563 C2565 1.419 . S
C2563 H2567 0.930 . S
C2564 C2563 1.369 . S
C2564 C2573 1.429 . S
C2565 C2563 1.419 . S
C2565 C2566 1.363 . S
C2565 H2568 0.929 . S
C2566 C2565 1.363 . S
C2566 C2572 1.428 . S
H2567 C2563 0.930 . S
H2568 C2565 0.929 . S
S2569 N2570 1.613 . S
S2569 N2571 1.610 . S
N2570 S2569 1.613 . S
N2570 C2573 1.350 . S
N2571 S2569 1.610 . S
N2571 C2572 1.351 . S
C2572 C2566 1.428 . S
C2572 N2571 1.351 . S
C2572 C2573 1.434 . S
C2573 C2564 1.429 . S
C2573 N2570 1.350 . S
C2573 C2572 1.434 . S
C2574 C2575 1.369 . S
C2574 C2576 1.419 . S
C2574 H2578 0.930 . S
C2575 C2574 1.369 . S
C2575 C2584 1.429 . S
C2576 C2574 1.419 . S
C2576 C2577 1.363 . S
C2576 H2579 0.929 . S
C2577 C2576 1.363 . S
C2577 C2583 1.428 . S
H2578 C2574 0.930 . S
H2579 C2576 0.929 . S
S2580 N2581 1.613 . S
S2580 N2582 1.610 . S
N2581 S2580 1.613 . S
N2581 C2584 1.350 . S
N2582 S2580 1.610 . S
N2582 C2583 1.351 . S
C2583 C2577 1.428 . S
C2583 N2582 1.351 . S
C2583 C2584 1.434 . S
C2584 C2575 1.429 . S
C2584 N2581 1.350 . S
C2584 C2583 1.434 . S
C2585 C2586 1.369 . S
C2585 C2587 1.419 . S
C2585 H2589 0.930 . S
C2586 C2585 1.369 . S
C2586 C2595 1.429 . S
C2587 C2585 1.419 . S
C2587 C2588 1.363 . S
C2587 H2590 0.929 . S
C2588 C2587 1.363 . S
C2588 C2594 1.428 . S
H2589 C2585 0.930 . S
H2590 C2587 0.929 . S
S2591 N2592 1.613 . S
S2591 N2593 1.610 . S
N2592 S2591 1.613 . S
N2592 C2595 1.350 . S
N2593 S2591 1.610 . S
N2593 C2594 1.351 . S
C2594 C2588 1.428 . S
C2594 N2593 1.351 . S
C2594 C2595 1.434 . S
C2595 C2586 1.429 . S
C2595 N2592 1.350 . S
C2595 C2594 1.434 . S
C2596 C2597 1.369 . S
C2596 C2598 1.419 . S
C2596 H2600 0.930 . S
C2597 C2596 1.369 . S
C2597 C2606 1.429 . S
C2598 C2596 1.419 . S
C2598 C2599 1.363 . S
C2598 H2601 0.929 . S
C2599 C2598 1.363 . S
C2599 C2605 1.428 . S
H2600 C2596 0.930 . S
H2601 C2598 0.929 . S
S2602 N2603 1.613 . S
S2602 N2604 1.610 . S
N2603 S2602 1.613 . S
N2603 C2606 1.350 . S
N2604 S2602 1.610 . S
N2604 C2605 1.351 . S
C2605 C2599 1.428 . S
C2605 N2604 1.351 . S
C2605 C2606 1.434 . S
C2606 C2597 1.429 . S
C2606 N2603 1.350 . S
C2606 C2605 1.434 . S
C2607 C2608 1.369 . S
C2607 C2609 1.419 . S
C2607 H2611 0.930 . S
C2608 C2607 1.369 . S
C2608 C2617 1.429 . S
C2609 C2607 1.419 . S
C2609 C2610 1.363 . S
C2609 H2612 0.929 . S
C2610 C2609 1.363 . S
C2610 C2616 1.428 . S
H2611 C2607 0.930 . S
H2612 C2609 0.929 . S
S2613 N2614 1.613 . S
S2613 N2615 1.610 . S
N2614 S2613 1.613 . S
N2614 C2617 1.350 . S
N2615 S2613 1.610 . S
N2615 C2616 1.351 . S
C2616 C2610 1.428 . S
C2616 N2615 1.351 . S
C2616 C2617 1.434 . S
C2617 C2608 1.429 . S
C2617 N2614 1.350 . S
C2617 C2616 1.434 . S
C2618 C2619 1.369 . S
C2618 C2620 1.419 . S
C2618 H2622 0.930 . S
C2619 C2618 1.369 . S
C2619 C2628 1.429 . S
C2620 C2618 1.419 . S
C2620 C2621 1.363 . S
C2620 H2623 0.929 . S
C2621 C2620 1.363 . S
C2621 C2627 1.428 . S
H2622 C2618 0.930 . S
H2623 C2620 0.929 . S
S2624 N2625 1.613 . S
S2624 N2626 1.610 . S
N2625 S2624 1.613 . S
N2625 C2628 1.350 . S
N2626 S2624 1.610 . S
N2626 C2627 1.351 . S
C2627 C2621 1.428 . S
C2627 N2626 1.351 . S
C2627 C2628 1.434 . S
C2628 C2619 1.429 . S
C2628 N2625 1.350 . S
C2628 C2627 1.434 . S
C2629 C2630 1.369 . S
C2629 C2631 1.419 . S
C2629 H2633 0.930 . S
C2630 C2629 1.369 . S
C2630 C2639 1.429 . S
C2631 C2629 1.419 . S
C2631 C2632 1.363 . S
C2631 H2634 0.929 . S
C2632 C2631 1.363 . S
C2632 C2638 1.428 . S
H2633 C2629 0.930 . S
H2634 C2631 0.929 . S
S2635 N2636 1.613 . S
S2635 N2637 1.610 . S
N2636 S2635 1.613 . S
N2636 C2639 1.350 . S
N2637 S2635 1.610 . S
N2637 C2638 1.351 . S
C2638 C2632 1.428 . S
C2638 N2637 1.351 . S
C2638 C2639 1.434 . S
C2639 C2630 1.429 . S
C2639 N2636 1.350 . S
C2639 C2638 1.434 . S
C2640 C2641 1.369 . S
C2640 C2642 1.419 1_565 S
C2640 H2644 0.930 . S
C2641 C2640 1.369 . S
C2641 C2650 1.429 . S
C2642 C2640 1.419 1_545 S
C2642 C2643 1.363 . S
C2642 H2645 0.929 . S
C2643 C2642 1.363 . S
C2643 C2649 1.428 . S
H2644 C2640 0.930 . S
H2645 C2642 0.929 . S
S2646 N2647 1.613 1_545 S
S2646 N2648 1.610 . S
N2647 S2646 1.613 1_565 S
N2647 C2650 1.350 . S
N2648 S2646 1.610 . S
N2648 C2649 1.351 . S
C2649 C2643 1.428 . S
C2649 N2648 1.351 . S
C2649 C2650 1.434 1_545 S
C2650 C2641 1.429 . S
C2650 N2647 1.350 . S
C2650 C2649 1.434 1_565 S
C2651 C2652 1.400 . S
C2651 C2653 1.395 1_455 S
C2651 H2655 0.923 1_455 S
C2652 C2651 1.400 . S
C2652 C2661 1.429 . S
C2653 C2651 1.395 1_655 S
C2653 C2654 1.363 . S
C2653 H2656 0.929 . S
C2654 C2653 1.363 . S
C2654 C2660 1.428 1_655 S
H2655 C2651 0.923 1_655 S
H2656 C2653 0.929 . S
S2657 N2658 1.613 . S
S2657 N2659 1.610 . S
N2658 S2657 1.613 . S
N2658 C2661 1.350 . S
N2659 S2657 1.610 . S
N2659 C2660 1.351 . S
C2660 C2654 1.428 1_455 S
C2660 N2659 1.351 . S
C2660 C2661 1.434 . S
C2661 C2652 1.429 . S
C2661 N2658 1.350 . S
C2661 C2660 1.434 . S
C2662 C2663 1.369 . S
C2662 C2664 1.419 . S
C2662 H2666 0.930 . S
C2663 C2662 1.369 . S
C2663 C2672 1.429 . S
C2664 C2662 1.419 . S
C2664 C2665 1.363 . S
C2664 H2667 0.929 . S
C2665 C2664 1.363 . S
C2665 C2671 1.428 . S
H2666 C2662 0.930 . S
H2667 C2664 0.929 . S
S2668 N2669 1.613 . S
S2668 N2670 1.610 . S
N2669 S2668 1.613 . S
N2669 C2672 1.350 . S
N2670 S2668 1.610 . S
N2670 C2671 1.351 . S
C2671 C2665 1.428 . S
C2671 N2670 1.351 . S
C2671 C2672 1.434 . S
C2672 C2663 1.429 . S
C2672 N2669 1.350 . S
C2672 C2671 1.434 . S
C2673 C2674 1.369 . S
C2673 C2675 1.419 . S
C2673 H2677 0.930 . S
C2674 C2673 1.369 . S
C2674 C2683 1.429 . S
C2675 C2673 1.419 . S
C2675 C2676 1.363 . S
C2675 H2678 0.929 . S
C2676 C2675 1.363 . S
C2676 C2682 1.428 . S
H2677 C2673 0.930 . S
H2678 C2675 0.929 . S
S2679 N2680 1.613 . S
S2679 N2681 1.610 . S
N2680 S2679 1.613 . S
N2680 C2683 1.350 . S
N2681 S2679 1.610 . S
N2681 C2682 1.351 . S
C2682 C2676 1.428 . S
C2682 N2681 1.351 . S
C2682 C2683 1.434 . S
C2683 C2674 1.429 . S
C2683 N2680 1.350 . S
C2683 C2682 1.434 . S
C2684 C2685 1.369 . S
C2684 C2686 1.419 . S
C2684 H2688 0.930 . S
C2685 C2684 1.369 . S
C2685 C2694 1.429 . S
C2686 C2684 1.419 . S
C2686 C2687 1.363 . S
C2686 H2689 0.929 . S
C2687 C2686 1.363 . S
C2687 C2693 1.428 . S
H2688 C2684 0.930 . S
H2689 C2686 0.929 . S
S2690 N2691 1.613 . S
S2690 N2692 1.610 . S
N2691 S2690 1.613 . S
N2691 C2694 1.350 . S
N2692 S2690 1.610 . S
N2692 C2693 1.351 . S
C2693 C2687 1.428 . S
C2693 N2692 1.351 . S
C2693 C2694 1.434 . S
C2694 C2685 1.429 . S
C2694 N2691 1.350 . S
C2694 C2693 1.434 . S
C2695 C2696 1.369 . S
C2695 C2697 1.419 . S
C2695 H2699 0.930 . S
C2696 C2695 1.369 . S
C2696 C2705 1.429 . S
C2697 C2695 1.419 . S
C2697 C2698 1.363 . S
C2697 H2700 0.929 . S
C2698 C2697 1.363 . S
C2698 C2704 1.428 . S
H2699 C2695 0.930 . S
H2700 C2697 0.929 . S
S2701 N2702 1.613 . S
S2701 N2703 1.610 . S
N2702 S2701 1.613 . S
N2702 C2705 1.350 . S
N2703 S2701 1.610 . S
N2703 C2704 1.351 . S
C2704 C2698 1.428 . S
C2704 N2703 1.351 . S
C2704 C2705 1.434 . S
C2705 C2696 1.429 . S
C2705 N2702 1.350 . S
C2705 C2704 1.434 . S
C2706 C2707 1.369 . S
C2706 C2708 1.419 . S
C2706 H2710 0.930 . S
C2707 C2706 1.369 . S
C2707 C2716 1.429 . S
C2708 C2706 1.419 . S
C2708 C2709 1.363 . S
C2708 H2711 0.929 . S
C2709 C2708 1.363 . S
C2709 C2715 1.428 . S
H2710 C2706 0.930 . S
H2711 C2708 0.929 . S
S2712 N2713 1.613 . S
S2712 N2714 1.610 . S
N2713 S2712 1.613 . S
N2713 C2716 1.350 . S
N2714 S2712 1.610 . S
N2714 C2715 1.351 . S
C2715 C2709 1.428 . S
C2715 N2714 1.351 . S
C2715 C2716 1.434 . S
C2716 C2707 1.429 . S
C2716 N2713 1.350 . S
C2716 C2715 1.434 . S
C2717 C2718 1.369 . S
C2717 C2719 1.419 1_655 S
C2717 H2721 0.930 . S
C2718 C2717 1.369 . S
C2718 C2727 1.429 . S
C2719 C2717 1.419 1_455 S
C2719 C2720 1.363 . S
C2719 H2722 0.929 . S
C2720 C2719 1.363 . S
C2720 C2726 1.428 . S
H2721 C2717 0.930 . S
H2722 C2719 0.929 . S
S2723 N2724 1.613 1_455 S
S2723 N2725 1.610 . S
N2724 S2723 1.613 1_655 S
N2724 C2727 1.350 . S
N2725 S2723 1.610 . S
N2725 C2726 1.351 . S
C2726 C2720 1.428 . S
C2726 N2725 1.351 . S
C2726 C2727 1.434 1_455 S
C2727 C2718 1.429 . S
C2727 N2724 1.350 . S
C2727 C2726 1.434 1_655 S
C2728 C2729 1.369 . S
C2728 C2730 1.377 1_554 S
C2728 H2732 0.930 . S
C2729 C2728 1.369 . S
C2729 C2738 1.429 . S
C2730 C2728 1.377 1_556 S
C2730 C2731 1.400 . S
C2730 H2733 0.935 . S
C2731 C2730 1.400 . S
C2731 C2737 1.428 . S
H2732 C2728 0.930 . S
H2733 C2730 0.935 . S
S2734 N2735 1.613 1_556 S
S2734 N2736 1.610 . S
N2735 S2734 1.613 1_554 S
N2735 C2738 1.350 . S
N2736 S2734 1.610 . S
N2736 C2737 1.351 . S
C2737 C2731 1.428 . S
C2737 N2736 1.351 . S
C2737 C2738 1.434 1_556 S
C2738 C2729 1.429 . S
C2738 N2735 1.350 . S
C2738 C2737 1.434 1_554 S
C2739 C2740 1.369 . S
C2739 C2741 1.419 . S
C2739 H2743 0.930 . S
C2740 C2739 1.369 . S
C2740 C2749 1.429 . S
C2741 C2739 1.419 . S
C2741 C2742 1.363 . S
C2741 H2744 0.929 . S
C2742 C2741 1.363 . S
C2742 C2748 1.428 . S
H2743 C2739 0.930 . S
H2744 C2741 0.929 . S
S2745 N2746 1.613 . S
S2745 N2747 1.610 . S
N2746 S2745 1.613 . S
N2746 C2749 1.350 . S
N2747 S2745 1.610 . S
N2747 C2748 1.351 . S
C2748 C2742 1.428 . S
C2748 N2747 1.351 . S
C2748 C2749 1.434 . S
C2749 C2740 1.429 . S
C2749 N2746 1.350 . S
C2749 C2748 1.434 . S
C2750 C2751 1.369 . S
C2750 C2752 1.419 . S
C2750 H2754 0.930 . S
C2751 C2750 1.369 . S
C2751 C2760 1.429 . S
C2752 C2750 1.419 . S
C2752 C2753 1.363 . S
C2752 H2755 0.929 . S
C2753 C2752 1.363 . S
C2753 C2759 1.428 . S
H2754 C2750 0.930 . S
H2755 C2752 0.929 . S
S2756 N2757 1.613 . S
S2756 N2758 1.610 . S
N2757 S2756 1.613 . S
N2757 C2760 1.350 . S
N2758 S2756 1.610 . S
N2758 C2759 1.351 . S
C2759 C2753 1.428 . S
C2759 N2758 1.351 . S
C2759 C2760 1.434 . S
C2760 C2751 1.429 . S
C2760 N2757 1.350 . S
C2760 C2759 1.434 . S
C2761 C2762 1.369 . S
C2761 C2763 1.419 . S
C2761 H2765 0.930 . S
C2762 C2761 1.369 . S
C2762 C2771 1.429 . S
C2763 C2761 1.419 . S
C2763 C2764 1.363 . S
C2763 H2766 0.929 . S
C2764 C2763 1.363 . S
C2764 C2770 1.428 . S
H2765 C2761 0.930 . S
H2766 C2763 0.929 . S
S2767 N2768 1.613 . S
S2767 N2769 1.610 . S
N2768 S2767 1.613 . S
N2768 C2771 1.350 . S
N2769 S2767 1.610 . S
N2769 C2770 1.351 . S
C2770 C2764 1.428 . S
C2770 N2769 1.351 . S
C2770 C2771 1.434 . S
C2771 C2762 1.429 . S
C2771 N2768 1.350 . S
C2771 C2770 1.434 . S
C2772 C2773 1.369 . S
C2772 C2774 1.419 . S
C2772 H2776 0.930 . S
C2773 C2772 1.369 . S
C2773 C2782 1.429 . S
C2774 C2772 1.419 . S
C2774 C2775 1.363 . S
C2774 H2777 0.929 . S
C2775 C2774 1.363 . S
C2775 C2781 1.428 . S
H2776 C2772 0.930 . S
H2777 C2774 0.929 . S
S2778 N2779 1.613 . S
S2778 N2780 1.610 . S
N2779 S2778 1.613 . S
N2779 C2782 1.350 . S
N2780 S2778 1.610 . S
N2780 C2781 1.351 . S
C2781 C2775 1.428 . S
C2781 N2780 1.351 . S
C2781 C2782 1.434 . S
C2782 C2773 1.429 . S
C2782 N2779 1.350 . S
C2782 C2781 1.434 . S
C2783 C2784 1.369 . S
C2783 C2785 1.419 . S
C2783 H2787 0.930 . S
C2784 C2783 1.369 . S
C2784 C2793 1.429 . S
C2785 C2783 1.419 . S
C2785 C2786 1.363 . S
C2785 H2788 0.929 . S
C2786 C2785 1.363 . S
C2786 C2792 1.428 . S
H2787 C2783 0.930 . S
H2788 C2785 0.929 . S
S2789 N2790 1.613 . S
S2789 N2791 1.610 . S
N2790 S2789 1.613 . S
N2790 C2793 1.350 . S
N2791 S2789 1.610 . S
N2791 C2792 1.351 . S
C2792 C2786 1.428 . S
C2792 N2791 1.351 . S
C2792 C2793 1.434 . S
C2793 C2784 1.429 . S
C2793 N2790 1.350 . S
C2793 C2792 1.434 . S
C2794 C2795 1.369 . S
C2794 C2796 1.419 . S
C2794 H2798 0.930 . S
C2795 C2794 1.369 . S
C2795 C2804 1.429 . S
C2796 C2794 1.419 . S
C2796 C2797 1.363 . S
C2796 H2799 0.929 . S
C2797 C2796 1.363 . S
C2797 C2803 1.428 . S
H2798 C2794 0.930 . S
H2799 C2796 0.929 . S
S2800 N2801 1.613 . S
S2800 N2802 1.610 . S
N2801 S2800 1.613 . S
N2801 C2804 1.350 . S
N2802 S2800 1.610 . S
N2802 C2803 1.351 . S
C2803 C2797 1.428 . S
C2803 N2802 1.351 . S
C2803 C2804 1.434 . S
C2804 C2795 1.429 . S
C2804 N2801 1.350 . S
C2804 C2803 1.434 . S
C2805 C2806 1.369 . S
C2805 C2807 1.419 1_554 S
C2805 H2809 0.930 . S
C2806 C2805 1.369 . S
C2806 C2815 1.429 . S
C2807 C2805 1.419 1_556 S
C2807 C2808 1.363 . S
C2807 H2810 0.929 . S
C2808 C2807 1.363 . S
C2808 C2814 1.462 . S
H2809 C2805 0.930 . S
H2810 C2807 0.929 . S
S2811 N2812 1.613 . S
S2811 N2813 1.610 1_554 S
N2812 S2811 1.613 . S
N2812 C2815 1.350 . S
N2813 S2811 1.610 1_556 S
N2813 C2814 1.354 . S
C2814 C2808 1.462 . S
C2814 N2813 1.354 . S
C2814 C2815 1.393 1_556 S
C2815 C2806 1.429 . S
C2815 N2812 1.350 . S
C2815 C2814 1.393 1_554 S
C2816 C2817 1.369 . S
C2816 C2818 1.419 1_655 S
C2816 H2820 0.930 . S
C2817 C2816 1.369 . S
C2817 C2826 1.429 . S
C2818 C2816 1.419 1_455 S
C2818 C2819 1.363 . S
C2818 H2821 0.929 . S
C2819 C2818 1.363 . S
C2819 C2825 1.428 . S
H2820 C2816 0.930 . S
H2821 C2818 0.929 . S
S2822 N2823 1.613 1_455 S
S2822 N2824 1.610 . S
N2823 S2822 1.613 1_655 S
N2823 C2826 1.350 . S
N2824 S2822 1.610 . S
N2824 C2825 1.351 . S
C2825 C2819 1.428 . S
C2825 N2824 1.351 . S
C2825 C2826 1.434 1_455 S
C2826 C2817 1.429 . S
C2826 N2823 1.350 . S
C2826 C2825 1.434 1_655 S
C2827 C2828 1.369 . S
C2827 C2829 1.419 . S
C2827 H2831 0.930 . S
C2828 C2827 1.369 . S
C2828 C2837 1.429 . S
C2829 C2827 1.419 . S
C2829 C2830 1.363 . S
C2829 H2832 0.929 . S
C2830 C2829 1.363 . S
C2830 C2836 1.428 . S
H2831 C2827 0.930 . S
H2832 C2829 0.929 . S
S2833 N2834 1.613 . S
S2833 N2835 1.610 . S
N2834 S2833 1.613 . S
N2834 C2837 1.350 . S
N2835 S2833 1.610 . S
N2835 C2836 1.351 . S
C2836 C2830 1.428 . S
C2836 N2835 1.351 . S
C2836 C2837 1.434 . S
C2837 C2828 1.429 . S
C2837 N2834 1.350 . S
C2837 C2836 1.434 . S
C2838 C2839 1.369 . S
C2838 C2840 1.419 . S
C2838 H2842 0.930 . S
C2839 C2838 1.369 . S
C2839 C2848 1.429 . S
C2840 C2838 1.419 . S
C2840 C2841 1.363 . S
C2840 H2843 0.929 . S
C2841 C2840 1.363 . S
C2841 C2847 1.428 . S
H2842 C2838 0.930 . S
H2843 C2840 0.929 . S
S2844 N2845 1.613 . S
S2844 N2846 1.610 . S
N2845 S2844 1.613 . S
N2845 C2848 1.350 . S
N2846 S2844 1.610 . S
N2846 C2847 1.351 . S
C2847 C2841 1.428 . S
C2847 N2846 1.351 . S
C2847 C2848 1.434 . S
C2848 C2839 1.429 . S
C2848 N2845 1.350 . S
C2848 C2847 1.434 . S
C2849 C2850 1.369 . S
C2849 C2851 1.419 . S
C2849 H2853 0.930 . S
C2850 C2849 1.369 . S
C2850 C2859 1.429 . S
C2851 C2849 1.419 . S
C2851 C2852 1.363 . S
C2851 H2854 0.929 . S
C2852 C2851 1.363 . S
C2852 C2858 1.428 . S
H2853 C2849 0.930 . S
H2854 C2851 0.929 . S
S2855 N2856 1.613 . S
S2855 N2857 1.610 . S
N2856 S2855 1.613 . S
N2856 C2859 1.350 . S
N2857 S2855 1.610 . S
N2857 C2858 1.351 . S
C2858 C2852 1.428 . S
C2858 N2857 1.351 . S
C2858 C2859 1.434 . S
C2859 C2850 1.429 . S
C2859 N2856 1.350 . S
C2859 C2858 1.434 . S
C2860 C2861 1.369 . S
C2860 C2862 1.419 . S
C2860 H2864 0.930 . S
C2861 C2860 1.369 . S
C2861 C2870 1.429 . S
C2862 C2860 1.419 . S
C2862 C2863 1.363 . S
C2862 H2865 0.929 . S
C2863 C2862 1.363 . S
C2863 C2869 1.428 . S
H2864 C2860 0.930 . S
H2865 C2862 0.929 . S
S2866 N2867 1.613 . S
S2866 N2868 1.610 . S
N2867 S2866 1.613 . S
N2867 C2870 1.350 . S
N2868 S2866 1.610 . S
N2868 C2869 1.351 . S
C2869 C2863 1.428 . S
C2869 N2868 1.351 . S
C2869 C2870 1.434 . S
C2870 C2861 1.429 . S
C2870 N2867 1.350 . S
C2870 C2869 1.434 . S
C2871 C2872 1.369 . S
C2871 C2873 1.419 . S
C2871 H2875 0.930 . S
C2872 C2871 1.369 . S
C2872 C2881 1.429 . S
C2873 C2871 1.419 . S
C2873 C2874 1.363 . S
C2873 H2876 0.929 . S
C2874 C2873 1.363 . S
C2874 C2880 1.428 . S
H2875 C2871 0.930 . S
H2876 C2873 0.929 . S
S2877 N2878 1.613 . S
S2877 N2879 1.610 . S
N2878 S2877 1.613 . S
N2878 C2881 1.350 . S
N2879 S2877 1.610 . S
N2879 C2880 1.351 . S
C2880 C2874 1.428 . S
C2880 N2879 1.351 . S
C2880 C2881 1.434 . S
C2881 C2872 1.429 . S
C2881 N2878 1.350 . S
C2881 C2880 1.434 . S
C2882 C2883 1.369 . S
C2882 C2884 1.419 . S
C2882 H2886 0.930 . S
C2883 C2882 1.369 . S
C2883 C2892 1.429 . S
C2884 C2882 1.419 . S
C2884 C2885 1.363 . S
C2884 H2887 0.929 . S
C2885 C2884 1.363 . S
C2885 C2891 1.428 . S
H2886 C2882 0.930 . S
H2887 C2884 0.929 . S
S2888 N2889 1.613 1_565 S
S2888 N2890 1.610 . S
N2889 S2888 1.613 1_545 S
N2889 C2892 1.350 1_545 S
N2890 S2888 1.610 . S
N2890 C2891 1.351 . S
C2891 C2885 1.428 . S
C2891 N2890 1.351 . S
C2891 C2892 1.434 . S
C2892 C2883 1.429 . S
C2892 N2889 1.350 1_565 S
C2892 C2891 1.434 . S
C2893 C2894 1.369 . S
C2893 C2895 1.385 1_655 S
C2893 H2897 0.930 . S
C2894 C2893 1.369 . S
C2894 C2903 1.429 . S
C2895 C2893 1.385 1_455 S
C2895 C2896 1.375 . S
C2895 H2898 0.952 . S
C2896 C2895 1.375 . S
C2896 C2902 1.428 1_455 S
H2897 C2893 0.930 . S
H2898 C2895 0.952 . S
S2899 N2900 1.613 . S
S2899 N2901 1.610 . S
N2900 S2899 1.613 . S
N2900 C2903 1.350 . S
N2901 S2899 1.610 . S
N2901 C2902 1.351 . S
C2902 C2896 1.428 1_655 S
C2902 N2901 1.351 . S
C2902 C2903 1.434 . S
C2903 C2894 1.429 . S
C2903 N2900 1.350 . S
C2903 C2902 1.434 . S
C2904 C2905 1.369 . S
C2904 C2906 1.419 . S
C2904 H2908 0.930 . S
C2905 C2904 1.369 . S
C2905 C2914 1.429 . S
C2906 C2904 1.419 . S
C2906 C2907 1.363 . S
C2906 H2909 0.929 . S
C2907 C2906 1.363 . S
C2907 C2913 1.428 . S
H2908 C2904 0.930 . S
H2909 C2906 0.929 . S
S2910 N2911 1.613 . S
S2910 N2912 1.610 . S
N2911 S2910 1.613 . S
N2911 C2914 1.350 . S
N2912 S2910 1.610 . S
N2912 C2913 1.351 . S
C2913 C2907 1.428 . S
C2913 N2912 1.351 . S
C2913 C2914 1.434 . S
C2914 C2905 1.429 . S
C2914 N2911 1.350 . S
C2914 C2913 1.434 . S
C2915 C2916 1.369 . S
C2915 C2917 1.419 . S
C2915 H2919 0.930 . S
C2916 C2915 1.369 . S
C2916 C2925 1.429 . S
C2917 C2915 1.419 . S
C2917 C2918 1.363 . S
C2917 H2920 0.929 . S
C2918 C2917 1.363 . S
C2918 C2924 1.428 . S
H2919 C2915 0.930 . S
H2920 C2917 0.929 . S
S2921 N2922 1.613 . S
S2921 N2923 1.610 . S
N2922 S2921 1.613 . S
N2922 C2925 1.350 . S
N2923 S2921 1.610 . S
N2923 C2924 1.351 . S
C2924 C2918 1.428 . S
C2924 N2923 1.351 . S
C2924 C2925 1.434 . S
C2925 C2916 1.429 . S
C2925 N2922 1.350 . S
C2925 C2924 1.434 . S
C2926 C2927 1.369 . S
C2926 C2928 1.419 . S
C2926 H2930 0.930 . S
C2927 C2926 1.369 . S
C2927 C2936 1.429 . S
C2928 C2926 1.419 . S
C2928 C2929 1.363 . S
C2928 H2931 0.929 . S
C2929 C2928 1.363 . S
C2929 C2935 1.428 . S
H2930 C2926 0.930 . S
H2931 C2928 0.929 . S
S2932 N2933 1.613 . S
S2932 N2934 1.610 . S
N2933 S2932 1.613 . S
N2933 C2936 1.350 . S
N2934 S2932 1.610 . S
N2934 C2935 1.351 . S
C2935 C2929 1.428 . S
C2935 N2934 1.351 . S
C2935 C2936 1.434 . S
C2936 C2927 1.429 . S
C2936 N2933 1.350 . S
C2936 C2935 1.434 . S
C2937 C2938 1.369 . S
C2937 C2939 1.419 . S
C2937 H2941 0.930 . S
C2938 C2937 1.369 . S
C2938 C2947 1.429 . S
C2939 C2937 1.419 . S
C2939 C2940 1.363 . S
C2939 H2942 0.929 . S
C2940 C2939 1.363 . S
C2940 C2946 1.428 . S
H2941 C2937 0.930 . S
H2942 C2939 0.929 . S
S2943 N2944 1.613 . S
S2943 N2945 1.610 . S
N2944 S2943 1.613 . S
N2944 C2947 1.350 . S
N2945 S2943 1.610 . S
N2945 C2946 1.351 . S
C2946 C2940 1.428 . S
C2946 N2945 1.351 . S
C2946 C2947 1.434 . S
C2947 C2938 1.429 . S
C2947 N2944 1.350 . S
C2947 C2946 1.434 . S
C2948 C2949 1.369 . S
C2948 C2950 1.419 1_565 S
C2948 H2952 0.930 . S
C2949 C2948 1.369 . S
C2949 C2958 1.429 1_565 S
C2950 C2948 1.419 1_545 S
C2950 C2951 1.363 . S
C2950 H2953 0.929 . S
C2951 C2950 1.363 . S
C2951 C2957 1.428 . S
H2952 C2948 0.930 . S
H2953 C2950 0.929 . S
S2954 N2955 1.613 1_545 S
S2954 N2956 1.610 . S
N2955 S2954 1.613 1_565 S
N2955 C2958 1.350 1_565 S
N2956 S2954 1.610 . S
N2956 C2957 1.351 . S
C2957 C2951 1.428 . S
C2957 N2956 1.351 . S
C2957 C2958 1.434 . S
C2958 C2949 1.429 1_545 S
C2958 N2955 1.350 1_545 S
C2958 C2957 1.434 . S
C2959 C2960 1.369 . S
C2959 C2961 1.419 . S
C2959 H2963 0.930 . S
C2960 C2959 1.369 . S
C2960 C2969 1.429 . S
C2961 C2959 1.419 . S
C2961 C2962 1.363 1_455 S
C2961 H2964 0.929 1_455 S
C2962 C2961 1.363 1_655 S
C2962 C2968 1.428 1_655 S
H2963 C2959 0.930 . S
H2964 C2961 0.929 1_655 S
S2965 N2966 1.613 . S
S2965 N2967 1.610 . S
N2966 S2965 1.613 . S
N2966 C2969 1.350 . S
N2967 S2965 1.610 . S
N2967 C2968 1.351 . S
C2968 C2962 1.428 1_455 S
C2968 N2967 1.351 . S
C2968 C2969 1.434 . S
C2969 C2960 1.429 . S
C2969 N2966 1.350 . S
C2969 C2968 1.434 . S
C2970 C2971 1.369 1_556 S
C2970 C2972 1.419 . S
C2970 H2974 0.929 . S
C2971 C2970 1.369 1_554 S
C2971 C2980 1.429 . S
C2972 C2970 1.419 . S
C2972 C2973 1.363 . S
C2972 H2975 0.929 . S
C2973 C2972 1.363 . S
C2973 C2979 1.428 . S
H2974 C2970 0.929 . S
H2975 C2972 0.929 . S
S2976 N2977 1.613 . S
S2976 N2978 1.610 1_554 S
N2977 S2976 1.613 . S
N2977 C2980 1.350 . S
N2978 S2976 1.610 1_556 S
N2978 C2979 1.351 . S
C2979 C2973 1.428 . S
C2979 N2978 1.351 . S
C2979 C2980 1.434 1_556 S
C2980 C2971 1.429 . S
C2980 N2977 1.350 . S
C2980 C2979 1.434 1_554 S
C2981 C2982 1.369 . S
C2981 C2983 1.419 . S
C2981 H2985 0.930 . S
C2982 C2981 1.369 . S
C2982 C2991 1.429 . S
C2983 C2981 1.419 . S
C2983 C2984 1.363 . S
C2983 H2986 0.929 . S
C2984 C2983 1.363 . S
C2984 C2990 1.428 . S
H2985 C2981 0.930 . S
H2986 C2983 0.929 . S
S2987 N2988 1.613 . S
S2987 N2989 1.610 . S
N2988 S2987 1.613 . S
N2988 C2991 1.350 . S
N2989 S2987 1.610 . S
N2989 C2990 1.351 . S
C2990 C2984 1.428 . S
C2990 N2989 1.351 . S
C2990 C2991 1.434 . S
C2991 C2982 1.429 . S
C2991 N2988 1.350 . S
C2991 C2990 1.434 . S
C2992 C2993 1.369 . S
C2992 C2994 1.419 . S
C2992 H2996 0.930 . S
C2993 C2992 1.369 . S
C2993 C3002 1.429 . S
C2994 C2992 1.419 . S
C2994 C2995 1.363 . S
C2994 H2997 0.929 . S
C2995 C2994 1.363 . S
C2995 C3001 1.428 . S
H2996 C2992 0.930 . S
H2997 C2994 0.929 . S
S2998 N2999 1.613 . S
S2998 N3000 1.610 . S
N2999 S2998 1.613 . S
N2999 C3002 1.350 . S
N3000 S2998 1.610 . S
N3000 C3001 1.351 . S
C3001 C2995 1.428 . S
C3001 N3000 1.351 . S
C3001 C3002 1.434 . S
C3002 C2993 1.429 . S
C3002 N2999 1.350 . S
C3002 C3001 1.434 . S
C3003 C3004 1.369 . S
C3003 C3005 1.419 . S
C3003 H3007 0.930 . S
C3004 C3003 1.369 . S
C3004 C3013 1.429 . S
C3005 C3003 1.419 . S
C3005 C3006 1.363 . S
C3005 H3008 0.929 . S
C3006 C3005 1.363 . S
C3006 C3012 1.428 . S
H3007 C3003 0.930 . S
H3008 C3005 0.929 . S
S3009 N3010 1.613 . S
S3009 N3011 1.610 . S
N3010 S3009 1.613 . S
N3010 C3013 1.350 . S
N3011 S3009 1.610 . S
N3011 C3012 1.351 . S
C3012 C3006 1.428 . S
C3012 N3011 1.351 . S
C3012 C3013 1.434 . S
C3013 C3004 1.429 . S
C3013 N3010 1.350 . S
C3013 C3012 1.434 . S
C3014 C3015 1.369 . S
C3014 C3016 1.419 . S
C3014 H3018 0.930 . S
C3015 C3014 1.369 . S
C3015 C3024 1.429 . S
C3016 C3014 1.419 . S
C3016 C3017 1.363 . S
C3016 H3019 0.929 . S
C3017 C3016 1.363 . S
C3017 C3023 1.428 . S
H3018 C3014 0.930 . S
H3019 C3016 0.929 . S
S3020 N3021 1.613 . S
S3020 N3022 1.610 . S
N3021 S3020 1.613 . S
N3021 C3024 1.350 . S
N3022 S3020 1.610 . S
N3022 C3023 1.351 . S
C3023 C3017 1.428 . S
C3023 N3022 1.351 . S
C3023 C3024 1.434 . S
C3024 C3015 1.429 . S
C3024 N3021 1.350 . S
C3024 C3023 1.434 . S
C3025 C3026 1.369 . S
C3025 C3027 1.419 . S
C3025 H3029 0.930 . S
C3026 C3025 1.369 . S
C3026 C3035 1.429 . S
C3027 C3025 1.419 . S
C3027 C3028 1.363 . S
C3027 H3030 0.929 . S
C3028 C3027 1.363 . S
C3028 C3034 1.428 . S
H3029 C3025 0.930 . S
H3030 C3027 0.929 . S
S3031 N3032 1.613 . S
S3031 N3033 1.610 . S
N3032 S3031 1.613 . S
N3032 C3035 1.350 . S
N3033 S3031 1.610 . S
N3033 C3034 1.351 . S
C3034 C3028 1.428 . S
C3034 N3033 1.351 . S
C3034 C3035 1.434 . S
C3035 C3026 1.429 . S
C3035 N3032 1.350 . S
C3035 C3034 1.434 . S
C3036 C3037 1.369 . S
C3036 C3038 1.419 . S
C3036 H3040 0.930 . S
C3037 C3036 1.369 . S
C3037 C3046 1.429 . S
C3038 C3036 1.419 . S
C3038 C3039 1.363 . S
C3038 H3041 0.929 . S
C3039 C3038 1.363 . S
C3039 C3045 1.428 . S
H3040 C3036 0.930 . S
H3041 C3038 0.929 . S
S3042 N3043 1.613 . S
S3042 N3044 1.610 . S
N3043 S3042 1.613 . S
N3043 C3046 1.350 . S
N3044 S3042 1.610 . S
N3044 C3045 1.351 . S
C3045 C3039 1.428 . S
C3045 N3044 1.351 . S
C3045 C3046 1.434 . S
C3046 C3037 1.429 . S
C3046 N3043 1.350 . S
C3046 C3045 1.434 . S
C3047 C3048 1.369 1_556 S
C3047 C3049 1.419 . S
C3047 H3051 0.930 1_556 S
C3048 C3047 1.369 1_554 S
C3048 C3057 1.429 . S
C3049 C3047 1.419 . S
C3049 C3050 1.363 . S
C3049 H3052 0.929 . S
C3050 C3049 1.363 . S
C3050 C3056 1.428 . S
H3051 C3047 0.930 1_554 S
H3052 C3049 0.929 . S
S3053 N3054 1.612 . S
S3053 N3055 1.611 1_554 S
N3054 S3053 1.612 . S
N3054 C3057 1.350 . S
N3055 S3053 1.611 1_556 S
N3055 C3056 1.351 . S
C3056 C3050 1.428 . S
C3056 N3055 1.351 . S
C3056 C3057 1.434 1_556 S
C3057 C3048 1.429 . S
C3057 N3054 1.350 . S
C3057 C3056 1.434 1_554 S
C3058 C3059 1.369 . S
C3058 C3060 1.419 . S
C3058 H3062 0.930 . S
C3059 C3058 1.369 . S
C3059 C3068 1.429 . S
C3060 C3058 1.419 . S
C3060 C3061 1.363 1_455 S
C3060 H3063 0.929 . S
C3061 C3060 1.363 1_655 S
C3061 C3067 1.428 1_655 S
H3062 C3058 0.930 . S
H3063 C3060 0.929 . S
S3064 N3065 1.613 . S
S3064 N3066 1.610 . S
N3065 S3064 1.613 . S
N3065 C3068 1.350 . S
N3066 S3064 1.610 . S
N3066 C3067 1.351 . S
C3067 C3061 1.428 1_455 S
C3067 N3066 1.351 . S
C3067 C3068 1.434 . S
C3068 C3059 1.429 . S
C3068 N3065 1.350 . S
C3068 C3067 1.434 . S
C3069 C3070 1.369 . S
C3069 C3071 1.419 . S
C3069 H3073 0.930 . S
C3070 C3069 1.369 . S
C3070 C3079 1.429 . S
C3071 C3069 1.419 . S
C3071 C3072 1.363 . S
C3071 H3074 0.929 . S
C3072 C3071 1.363 . S
C3072 C3078 1.428 . S
H3073 C3069 0.930 . S
H3074 C3071 0.929 . S
S3075 N3076 1.613 . S
S3075 N3077 1.610 . S
N3076 S3075 1.613 . S
N3076 C3079 1.350 . S
N3077 S3075 1.610 . S
N3077 C3078 1.351 . S
C3078 C3072 1.428 . S
C3078 N3077 1.351 . S
C3078 C3079 1.434 . S
C3079 C3070 1.429 . S
C3079 N3076 1.350 . S
C3079 C3078 1.434 . S
C3080 C3081 1.369 . S
C3080 C3082 1.419 . S
C3080 H3084 0.930 . S
C3081 C3080 1.369 . S
C3081 C3090 1.429 . S
C3082 C3080 1.419 . S
C3082 C3083 1.363 . S
C3082 H3085 0.929 . S
C3083 C3082 1.363 . S
C3083 C3089 1.428 . S
H3084 C3080 0.930 . S
H3085 C3082 0.929 . S
S3086 N3087 1.613 . S
S3086 N3088 1.610 . S
N3087 S3086 1.613 . S
N3087 C3090 1.350 . S
N3088 S3086 1.610 . S
N3088 C3089 1.351 . S
C3089 C3083 1.428 . S
C3089 N3088 1.351 . S
C3089 C3090 1.434 . S
C3090 C3081 1.429 . S
C3090 N3087 1.350 . S
C3090 C3089 1.434 . S
C3091 C3092 1.369 . S
C3091 C3093 1.419 . S
C3091 H3095 0.930 . S
C3092 C3091 1.369 . S
C3092 C3101 1.429 . S
C3093 C3091 1.419 . S
C3093 C3094 1.363 . S
C3093 H3096 0.929 . S
C3094 C3093 1.363 . S
C3094 C3100 1.428 . S
H3095 C3091 0.930 . S
H3096 C3093 0.929 . S
S3097 N3098 1.613 . S
S3097 N3099 1.610 . S
N3098 S3097 1.613 . S
N3098 C3101 1.350 . S
N3099 S3097 1.610 . S
N3099 C3100 1.351 . S
C3100 C3094 1.428 . S
C3100 N3099 1.351 . S
C3100 C3101 1.434 . S
C3101 C3092 1.429 . S
C3101 N3098 1.350 . S
C3101 C3100 1.434 . S
C3102 C3103 1.369 . S
C3102 C3104 1.419 . S
C3102 H3106 0.930 . S
C3103 C3102 1.369 . S
C3103 C3112 1.429 . S
C3104 C3102 1.419 . S
C3104 C3105 1.363 . S
C3104 H3107 0.929 . S
C3105 C3104 1.363 . S
C3105 C3111 1.428 . S
H3106 C3102 0.930 . S
H3107 C3104 0.929 . S
S3108 N3109 1.613 . S
S3108 N3110 1.610 . S
N3109 S3108 1.613 . S
N3109 C3112 1.350 . S
N3110 S3108 1.610 . S
N3110 C3111 1.351 . S
C3111 C3105 1.428 . S
C3111 N3110 1.351 . S
C3111 C3112 1.434 . S
C3112 C3103 1.429 . S
C3112 N3109 1.350 . S
C3112 C3111 1.434 . S
C3113 C3114 1.369 . S
C3113 C3115 1.419 . S
C3113 H3117 0.930 . S
C3114 C3113 1.369 . S
C3114 C3123 1.429 . S
C3115 C3113 1.419 . S
C3115 C3116 1.363 . S
C3115 H3118 0.929 . S
C3116 C3115 1.363 . S
C3116 C3122 1.428 . S
H3117 C3113 0.930 . S
H3118 C3115 0.929 . S
S3119 N3120 1.613 . S
S3119 N3121 1.610 . S
N3120 S3119 1.613 . S
N3120 C3123 1.350 . S
N3121 S3119 1.610 . S
N3121 C3122 1.351 . S
C3122 C3116 1.428 . S
C3122 N3121 1.351 . S
C3122 C3123 1.434 . S
C3123 C3114 1.429 . S
C3123 N3120 1.350 . S
C3123 C3122 1.434 . S
C3124 C3125 1.369 . S
C3124 C3126 1.419 . S
C3124 H3128 0.930 . S
C3125 C3124 1.369 . S
C3125 C3134 1.429 . S
C3126 C3124 1.419 . S
C3126 C3127 1.363 . S
C3126 H3129 0.929 . S
C3127 C3126 1.363 . S
C3127 C3133 1.428 . S
H3128 C3124 0.930 . S
H3129 C3126 0.929 . S
S3130 N3131 1.613 . S
S3130 N3132 1.610 . S
N3131 S3130 1.613 . S
N3131 C3134 1.350 . S
N3132 S3130 1.610 . S
N3132 C3133 1.351 . S
C3133 C3127 1.428 . S
C3133 N3132 1.351 . S
C3133 C3134 1.434 . S
C3134 C3125 1.429 . S
C3134 N3131 1.350 . S
C3134 C3133 1.434 . S
C3135 C3136 1.369 . S
C3135 C3137 1.419 1_455 S
C3135 H3139 0.930 . S
C3136 C3135 1.369 . S
C3136 C3145 1.429 . S
C3137 C3135 1.419 1_655 S
C3137 C3138 1.363 . S
C3137 H3140 0.929 . S
C3138 C3137 1.363 . S
C3138 C3144 1.443 . S
H3139 C3135 0.930 . S
H3140 C3137 0.929 . S
S3141 N3142 1.613 . S
S3141 N3143 1.610 1_455 S
N3142 S3141 1.613 . S
N3142 C3145 1.350 . S
N3143 S3141 1.610 1_655 S
N3143 C3144 1.358 . S
C3144 C3138 1.443 . S
C3144 N3143 1.358 . S
C3144 C3145 1.412 1_655 S
C3145 C3136 1.429 . S
C3145 N3142 1.350 . S
C3145 C3144 1.412 1_455 S
C3146 C3147 1.369 . S
C3146 C3148 1.419 . S
C3146 H3150 0.930 . S
C3147 C3146 1.369 . S
C3147 C3156 1.429 . S
C3148 C3146 1.419 . S
C3148 C3149 1.363 . S
C3148 H3151 0.929 . S
C3149 C3148 1.363 . S
C3149 C3155 1.428 . S
H3150 C3146 0.930 . S
H3151 C3148 0.929 . S
S3152 N3153 1.613 . S
S3152 N3154 1.610 . S
N3153 S3152 1.613 . S
N3153 C3156 1.350 . S
N3154 S3152 1.610 . S
N3154 C3155 1.351 . S
C3155 C3149 1.428 . S
C3155 N3154 1.351 . S
C3155 C3156 1.434 . S
C3156 C3147 1.429 . S
C3156 N3153 1.350 . S
C3156 C3155 1.434 . S
C3157 C3158 1.369 . S
C3157 C3159 1.419 . S
C3157 H3161 0.930 . S
C3158 C3157 1.369 . S
C3158 C3167 1.429 . S
C3159 C3157 1.419 . S
C3159 C3160 1.363 . S
C3159 H3162 0.929 . S
C3160 C3159 1.363 . S
C3160 C3166 1.428 . S
H3161 C3157 0.930 . S
H3162 C3159 0.929 . S
S3163 N3164 1.613 . S
S3163 N3165 1.610 . S
N3164 S3163 1.613 . S
N3164 C3167 1.350 . S
N3165 S3163 1.610 . S
N3165 C3166 1.351 . S
C3166 C3160 1.428 . S
C3166 N3165 1.351 . S
C3166 C3167 1.434 . S
C3167 C3158 1.429 . S
C3167 N3164 1.350 . S
C3167 C3166 1.434 . S
C3168 C3169 1.369 . S
C3168 C3170 1.419 . S
C3168 H3172 0.930 . S
C3169 C3168 1.369 . S
C3169 C3178 1.429 . S
C3170 C3168 1.419 . S
C3170 C3171 1.363 . S
C3170 H3173 0.929 . S
C3171 C3170 1.363 . S
C3171 C3177 1.428 . S
H3172 C3168 0.930 . S
H3173 C3170 0.929 . S
S3174 N3175 1.613 . S
S3174 N3176 1.610 . S
N3175 S3174 1.613 . S
N3175 C3178 1.350 . S
N3176 S3174 1.610 . S
N3176 C3177 1.351 . S
C3177 C3171 1.428 . S
C3177 N3176 1.351 . S
C3177 C3178 1.434 . S
C3178 C3169 1.429 . S
C3178 N3175 1.350 . S
C3178 C3177 1.434 . S
C3179 C3180 1.369 . S
C3179 C3181 1.419 . S
C3179 H3183 0.930 . S
C3180 C3179 1.369 . S
C3180 C3189 1.429 . S
C3181 C3179 1.419 . S
C3181 C3182 1.363 . S
C3181 H3184 0.929 . S
C3182 C3181 1.363 . S
C3182 C3188 1.428 . S
H3183 C3179 0.930 . S
H3184 C3181 0.929 . S
S3185 N3186 1.613 . S
S3185 N3187 1.610 . S
N3186 S3185 1.613 . S
N3186 C3189 1.350 . S
N3187 S3185 1.610 . S
N3187 C3188 1.351 . S
C3188 C3182 1.428 . S
C3188 N3187 1.351 . S
C3188 C3189 1.434 . S
C3189 C3180 1.429 . S
C3189 N3186 1.350 . S
C3189 C3188 1.434 . S
C3190 C3191 1.369 . S
C3190 C3192 1.419 . S
C3190 H3194 0.930 . S
C3191 C3190 1.369 . S
C3191 C3200 1.429 . S
C3192 C3190 1.419 . S
C3192 C3193 1.363 . S
C3192 H3195 0.929 . S
C3193 C3192 1.363 . S
C3193 C3199 1.428 . S
H3194 C3190 0.930 . S
H3195 C3192 0.929 . S
S3196 N3197 1.613 . S
S3196 N3198 1.610 . S
N3197 S3196 1.613 . S
N3197 C3200 1.350 . S
N3198 S3196 1.610 . S
N3198 C3199 1.351 . S
C3199 C3193 1.428 . S
C3199 N3198 1.351 . S
C3199 C3200 1.434 . S
C3200 C3191 1.429 . S
C3200 N3197 1.350 . S
C3200 C3199 1.434 . S
C3201 C3202 1.369 . S
C3201 C3203 1.419 . S
C3201 H3205 0.930 . S
C3202 C3201 1.369 . S
C3202 C3211 1.429 . S
C3203 C3201 1.419 . S
C3203 C3204 1.363 . S
C3203 H3206 0.929 . S
C3204 C3203 1.363 . S
C3204 C3210 1.428 . S
H3205 C3201 0.930 . S
H3206 C3203 0.929 . S
S3207 N3208 1.613 . S
S3207 N3209 1.610 . S
N3208 S3207 1.613 . S
N3208 C3211 1.350 . S
N3209 S3207 1.610 . S
N3209 C3210 1.351 . S
C3210 C3204 1.428 . S
C3210 N3209 1.351 . S
C3210 C3211 1.434 . S
C3211 C3202 1.429 . S
C3211 N3208 1.350 . S
C3211 C3210 1.434 . S
C3212 C3213 1.369 . S
C3212 C3214 1.404 1_554 S
C3212 H3216 0.930 . S
C3213 C3212 1.369 . S
C3213 C3222 1.429 . S
C3214 C3212 1.404 1_556 S
C3214 C3215 1.376 . S
C3214 H3217 0.932 . S
C3215 C3214 1.376 . S
C3215 C3221 1.428 . S
H3216 C3212 0.930 . S
H3217 C3214 0.932 . S
S3218 N3219 1.613 1_556 S
S3218 N3220 1.610 . S
N3219 S3218 1.613 1_554 S
N3219 C3222 1.350 . S
N3220 S3218 1.610 . S
N3220 C3221 1.351 . S
C3221 C3215 1.428 . S
C3221 N3220 1.351 . S
C3221 C3222 1.434 1_556 S
C3222 C3213 1.429 . S
C3222 N3219 1.350 . S
C3222 C3221 1.434 1_554 S
C3223 C3224 1.369 . S
C3223 C3225 1.419 . S
C3223 H3227 0.930 . S
C3224 C3223 1.369 . S
C3224 C3233 1.429 . S
C3225 C3223 1.419 . S
C3225 C3226 1.363 . S
C3225 H3228 0.929 . S
C3226 C3225 1.363 . S
C3226 C3232 1.428 . S
H3227 C3223 0.930 . S
H3228 C3225 0.929 . S
S3229 N3230 1.613 . S
S3229 N3231 1.610 . S
N3230 S3229 1.613 . S
N3230 C3233 1.350 . S
N3231 S3229 1.610 . S
N3231 C3232 1.351 . S
C3232 C3226 1.428 . S
C3232 N3231 1.351 . S
C3232 C3233 1.434 . S
C3233 C3224 1.429 . S
C3233 N3230 1.350 . S
C3233 C3232 1.434 . S
C3234 C3235 1.369 . S
C3234 C3236 1.419 . S
C3234 H3238 0.930 . S
C3235 C3234 1.369 . S
C3235 C3244 1.429 . S
C3236 C3234 1.419 . S
C3236 C3237 1.363 . S
C3236 H3239 0.929 . S
C3237 C3236 1.363 . S
C3237 C3243 1.428 . S
H3238 C3234 0.930 . S
H3239 C3236 0.929 . S
S3240 N3241 1.613 . S
S3240 N3242 1.610 . S
N3241 S3240 1.613 . S
N3241 C3244 1.350 . S
N3242 S3240 1.610 . S
N3242 C3243 1.351 . S
C3243 C3237 1.428 . S
C3243 N3242 1.351 . S
C3243 C3244 1.434 . S
C3244 C3235 1.429 . S
C3244 N3241 1.350 . S
C3244 C3243 1.434 . S
C3245 C3246 1.369 . S
C3245 C3247 1.419 1_556 S
C3245 H3249 0.930 . S
C3246 C3245 1.369 . S
C3246 C3255 1.429 . S
C3247 C3245 1.419 1_554 S
C3247 C3248 1.363 . S
C3247 H3250 0.929 . S
C3248 C3247 1.363 . S
C3248 C3254 1.428 . S
H3249 C3245 0.930 . S
H3250 C3247 0.929 . S
S3251 N3252 1.613 . S
S3251 N3253 1.610 1_556 S
N3252 S3251 1.613 . S
N3252 C3255 1.350 . S
N3253 S3251 1.610 1_554 S
N3253 C3254 1.351 . S
C3254 C3248 1.428 . S
C3254 N3253 1.351 . S
C3254 C3255 1.434 1_554 S
C3255 C3246 1.429 . S
C3255 N3252 1.350 . S
C3255 C3254 1.434 1_556 S
C3256 C3257 1.369 . S
C3256 C3258 1.419 . S
C3256 H3260 0.930 . S
C3257 C3256 1.369 . S
C3257 C3266 1.429 . S
C3258 C3256 1.419 . S
C3258 C3259 1.363 . S
C3258 H3261 0.929 . S
C3259 C3258 1.363 . S
C3259 C3265 1.428 . S
H3260 C3256 0.930 . S
H3261 C3258 0.929 . S
S3262 N3263 1.613 . S
S3262 N3264 1.610 . S
N3263 S3262 1.613 . S
N3263 C3266 1.350 . S
N3264 S3262 1.610 . S
N3264 C3265 1.351 . S
C3265 C3259 1.428 . S
C3265 N3264 1.351 . S
C3265 C3266 1.434 . S
C3266 C3257 1.429 . S
C3266 N3263 1.350 . S
C3266 C3265 1.434 . S
C3267 C3268 1.369 . S
C3267 C3269 1.419 . S
C3267 H3271 0.930 . S
C3268 C3267 1.369 . S
C3268 C3277 1.429 . S
C3269 C3267 1.419 . S
C3269 C3270 1.363 . S
C3269 H3272 0.929 . S
C3270 C3269 1.363 . S
C3270 C3276 1.428 . S
H3271 C3267 0.930 . S
H3272 C3269 0.929 . S
S3273 N3274 1.613 . S
S3273 N3275 1.610 . S
N3274 S3273 1.613 . S
N3274 C3277 1.350 . S
N3275 S3273 1.610 . S
N3275 C3276 1.351 . S
C3276 C3270 1.428 . S
C3276 N3275 1.351 . S
C3276 C3277 1.434 . S
C3277 C3268 1.429 . S
C3277 N3274 1.350 . S
C3277 C3276 1.434 . S
C3278 C3279 1.369 . S
C3278 C3280 1.419 . S
C3278 H3282 0.930 . S
C3279 C3278 1.369 . S
C3279 C3288 1.429 . S
C3280 C3278 1.419 . S
C3280 C3281 1.363 . S
C3280 H3283 0.929 . S
C3281 C3280 1.363 . S
C3281 C3287 1.428 . S
H3282 C3278 0.930 . S
H3283 C3280 0.929 . S
S3284 N3285 1.613 . S
S3284 N3286 1.610 . S
N3285 S3284 1.613 . S
N3285 C3288 1.350 . S
N3286 S3284 1.610 . S
N3286 C3287 1.351 . S
C3287 C3281 1.428 . S
C3287 N3286 1.351 . S
C3287 C3288 1.434 . S
C3288 C3279 1.429 . S
C3288 N3285 1.350 . S
C3288 C3287 1.434 . S
C3289 C3290 1.369 . S
C3289 C3291 1.419 . S
C3289 H3293 0.930 . S
C3290 C3289 1.369 . S
C3290 C3299 1.429 . S
C3291 C3289 1.419 . S
C3291 C3292 1.363 . S
C3291 H3294 0.929 . S
C3292 C3291 1.363 . S
C3292 C3298 1.428 . S
H3293 C3289 0.930 . S
H3294 C3291 0.929 . S
S3295 N3296 1.613 . S
S3295 N3297 1.610 . S
N3296 S3295 1.613 . S
N3296 C3299 1.350 . S
N3297 S3295 1.610 . S
N3297 C3298 1.351 . S
C3298 C3292 1.428 . S
C3298 N3297 1.351 . S
C3298 C3299 1.434 . S
C3299 C3290 1.429 . S
C3299 N3296 1.350 . S
C3299 C3298 1.434 . S
C3300 C3301 1.369 . S
C3300 C3302 1.419 1_565 S
C3300 H3304 0.930 . S
C3301 C3300 1.369 . S
C3301 C3310 1.429 . S
C3302 C3300 1.419 1_545 S
C3302 C3303 1.363 . S
C3302 H3305 0.929 . S
C3303 C3302 1.363 . S
C3303 C3309 1.428 . S
H3304 C3300 0.930 . S
H3305 C3302 0.929 . S
S3306 N3307 1.613 1_545 S
S3306 N3308 1.610 . S
N3307 S3306 1.613 1_565 S
N3307 C3310 1.350 . S
N3308 S3306 1.610 . S
N3308 C3309 1.351 . S
C3309 C3303 1.428 . S
C3309 N3308 1.351 . S
C3309 C3310 1.434 1_545 S
C3310 C3301 1.429 . S
C3310 N3307 1.350 . S
C3310 C3309 1.434 1_565 S
C3311 C3312 1.369 . S
C3311 C3313 1.419 . S
C3311 H3315 0.930 . S
C3312 C3311 1.369 . S
C3312 C3321 1.429 . S
C3313 C3311 1.419 . S
C3313 C3314 1.363 . S
C3313 H3316 0.929 . S
C3314 C3313 1.363 . S
C3314 C3320 1.428 . S
H3315 C3311 0.930 . S
H3316 C3313 0.929 . S
S3317 N3318 1.613 . S
S3317 N3319 1.610 . S
N3318 S3317 1.613 . S
N3318 C3321 1.350 . S
N3319 S3317 1.610 . S
N3319 C3320 1.351 . S
C3320 C3314 1.428 . S
C3320 N3319 1.351 . S
C3320 C3321 1.434 . S
C3321 C3312 1.429 . S
C3321 N3318 1.350 . S
C3321 C3320 1.434 . S
C3322 C3323 1.369 . S
C3322 C3324 1.419 . S
C3322 H3326 0.930 . S
C3323 C3322 1.369 . S
C3323 C3332 1.429 . S
C3324 C3322 1.419 . S
C3324 C3325 1.363 . S
C3324 H3327 0.929 . S
C3325 C3324 1.363 . S
C3325 C3331 1.428 . S
H3326 C3322 0.930 . S
H3327 C3324 0.929 . S
S3328 N3329 1.613 . S
S3328 N3330 1.610 . S
N3329 S3328 1.613 . S
N3329 C3332 1.350 . S
N3330 S3328 1.610 . S
N3330 C3331 1.351 . S
C3331 C3325 1.428 . S
C3331 N3330 1.351 . S
C3331 C3332 1.434 . S
C3332 C3323 1.429 . S
C3332 N3329 1.350 . S
C3332 C3331 1.434 . S
C3333 C3334 1.369 1_655 S
C3333 C3335 1.419 . S
C3333 H3337 0.930 . S
C3334 C3333 1.369 1_455 S
C3334 C3343 1.429 . S
C3335 C3333 1.419 . S
C3335 C3336 1.363 . S
C3335 H3338 0.929 . S
C3336 C3335 1.363 . S
C3336 C3342 1.428 . S
H3337 C3333 0.930 . S
H3338 C3335 0.929 . S
S3339 N3340 1.613 . S
S3339 N3341 1.610 1_455 S
N3340 S3339 1.613 . S
N3340 C3343 1.350 . S
N3341 S3339 1.610 1_655 S
N3341 C3342 1.351 . S
C3342 C3336 1.428 . S
C3342 N3341 1.351 . S
C3342 C3343 1.434 1_655 S
C3343 C3334 1.429 . S
C3343 N3340 1.350 . S
C3343 C3342 1.434 1_455 S
C3344 C3345 1.369 . S
C3344 C3346 1.419 . S
C3344 H3348 0.930 . S
C3345 C3344 1.369 . S
C3345 C3354 1.429 . S
C3346 C3344 1.419 . S
C3346 C3347 1.363 . S
C3346 H3349 0.929 . S
C3347 C3346 1.363 . S
C3347 C3353 1.428 . S
H3348 C3344 0.930 . S
H3349 C3346 0.929 . S
S3350 N3351 1.613 . S
S3350 N3352 1.610 . S
N3351 S3350 1.613 . S
N3351 C3354 1.350 . S
N3352 S3350 1.610 . S
N3352 C3353 1.351 . S
C3353 C3347 1.428 . S
C3353 N3352 1.351 . S
C3353 C3354 1.434 . S
C3354 C3345 1.429 . S
C3354 N3351 1.350 . S
C3354 C3353 1.434 . S
C3355 C3356 1.369 . S
C3355 C3357 1.419 . S
C3355 H3359 0.930 . S
C3356 C3355 1.369 . S
C3356 C3365 1.429 . S
C3357 C3355 1.419 . S
C3357 C3358 1.363 . S
C3357 H3360 0.929 . S
C3358 C3357 1.363 . S
C3358 C3364 1.428 . S
H3359 C3355 0.930 . S
H3360 C3357 0.929 . S
S3361 N3362 1.613 . S
S3361 N3363 1.610 . S
N3362 S3361 1.613 . S
N3362 C3365 1.350 . S
N3363 S3361 1.610 . S
N3363 C3364 1.351 . S
C3364 C3358 1.428 . S
C3364 N3363 1.351 . S
C3364 C3365 1.434 . S
C3365 C3356 1.429 . S
C3365 N3362 1.350 . S
C3365 C3364 1.434 . S
C3366 C3367 1.369 . S
C3366 C3368 1.419 . S
C3366 H3370 0.930 . S
C3367 C3366 1.369 . S
C3367 C3376 1.429 . S
C3368 C3366 1.419 . S
C3368 C3369 1.363 . S
C3368 H3371 0.929 . S
C3369 C3368 1.363 . S
C3369 C3375 1.428 . S
H3370 C3366 0.930 . S
H3371 C3368 0.929 . S
S3372 N3373 1.613 . S
S3372 N3374 1.610 . S
N3373 S3372 1.613 . S
N3373 C3376 1.350 . S
N3374 S3372 1.610 . S
N3374 C3375 1.351 . S
C3375 C3369 1.428 . S
C3375 N3374 1.351 . S
C3375 C3376 1.434 . S
C3376 C3367 1.429 . S
C3376 N3373 1.350 . S
C3376 C3375 1.434 . S
C3377 C3378 1.369 . S
C3377 C3379 1.419 . S
C3377 H3381 0.930 . S
C3378 C3377 1.369 . S
C3378 C3387 1.429 . S
C3379 C3377 1.419 . S
C3379 C3380 1.363 . S
C3379 H3382 0.929 . S
C3380 C3379 1.363 . S
C3380 C3386 1.428 . S
H3381 C3377 0.930 . S
H3382 C3379 0.929 . S
S3383 N3384 1.613 . S
S3383 N3385 1.610 . S
N3384 S3383 1.613 . S
N3384 C3387 1.350 . S
N3385 S3383 1.610 . S
N3385 C3386 1.351 . S
C3386 C3380 1.428 . S
C3386 N3385 1.351 . S
C3386 C3387 1.434 . S
C3387 C3378 1.429 . S
C3387 N3384 1.350 . S
C3387 C3386 1.434 . S
C3388 C3389 1.369 . S
C3388 C3390 1.419 . S
C3388 H3392 0.930 . S
C3389 C3388 1.369 . S
C3389 C3398 1.429 . S
C3390 C3388 1.419 . S
C3390 C3391 1.363 . S
C3390 H3393 0.929 . S
C3391 C3390 1.363 . S
C3391 C3397 1.428 . S
H3392 C3388 0.930 . S
H3393 C3390 0.929 . S
S3394 N3395 1.613 . S
S3394 N3396 1.610 . S
N3395 S3394 1.613 . S
N3395 C3398 1.350 . S
N3396 S3394 1.610 . S
N3396 C3397 1.351 . S
C3397 C3391 1.428 . S
C3397 N3396 1.351 . S
C3397 C3398 1.434 . S
C3398 C3389 1.429 . S
C3398 N3395 1.350 . S
C3398 C3397 1.434 . S
C3399 C3400 1.369 . S
C3399 C3401 1.419 . S
C3399 H3403 0.930 . S
C3400 C3399 1.369 . S
C3400 C3409 1.429 . S
C3401 C3399 1.419 . S
C3401 C3402 1.363 . S
C3401 H3404 0.929 . S
C3402 C3401 1.363 . S
C3402 C3408 1.428 . S
H3403 C3399 0.930 . S
H3404 C3401 0.929 . S
S3405 N3406 1.613 . S
S3405 N3407 1.610 . S
N3406 S3405 1.613 . S
N3406 C3409 1.350 . S
N3407 S3405 1.610 . S
N3407 C3408 1.351 . S
C3408 C3402 1.428 . S
C3408 N3407 1.351 . S
C3408 C3409 1.434 . S
C3409 C3400 1.429 . S
C3409 N3406 1.350 . S
C3409 C3408 1.434 . S
C3410 C3411 1.369 . S
C3410 C3412 1.419 . S
C3410 H3414 0.930 . S
C3411 C3410 1.369 . S
C3411 C3420 1.429 . S
C3412 C3410 1.419 . S
C3412 C3413 1.363 . S
C3412 H3415 0.929 . S
C3413 C3412 1.363 . S
C3413 C3419 1.428 . S
H3414 C3410 0.930 . S
H3415 C3412 0.929 . S
S3416 N3417 1.613 . S
S3416 N3418 1.610 . S
N3417 S3416 1.613 . S
N3417 C3420 1.350 . S
N3418 S3416 1.610 . S
N3418 C3419 1.351 . S
C3419 C3413 1.428 . S
C3419 N3418 1.351 . S
C3419 C3420 1.434 . S
C3420 C3411 1.429 . S
C3420 N3417 1.350 . S
C3420 C3419 1.434 . S
C3421 C3422 1.369 . S
C3421 C3423 1.419 . S
C3421 H3425 0.930 . S
C3422 C3421 1.369 . S
C3422 C3431 1.429 . S
C3423 C3421 1.419 . S
C3423 C3424 1.363 . S
C3423 H3426 0.929 . S
C3424 C3423 1.363 . S
C3424 C3430 1.428 . S
H3425 C3421 0.930 . S
H3426 C3423 0.929 . S
S3427 N3428 1.613 . S
S3427 N3429 1.610 . S
N3428 S3427 1.613 . S
N3428 C3431 1.350 . S
N3429 S3427 1.610 . S
N3429 C3430 1.351 . S
C3430 C3424 1.428 . S
C3430 N3429 1.351 . S
C3430 C3431 1.434 . S
C3431 C3422 1.429 . S
C3431 N3428 1.350 . S
C3431 C3430 1.434 . S
C3432 C3433 1.369 . S
C3432 C3434 1.419 . S
C3432 H3436 0.930 . S
C3433 C3432 1.369 . S
C3433 C3442 1.429 . S
C3434 C3432 1.419 . S
C3434 C3435 1.363 . S
C3434 H3437 0.929 . S
C3435 C3434 1.363 . S
C3435 C3441 1.428 . S
H3436 C3432 0.930 . S
H3437 C3434 0.929 . S
S3438 N3439 1.613 . S
S3438 N3440 1.610 . S
N3439 S3438 1.613 . S
N3439 C3442 1.350 . S
N3440 S3438 1.610 . S
N3440 C3441 1.351 . S
C3441 C3435 1.428 . S
C3441 N3440 1.351 . S
C3441 C3442 1.434 . S
C3442 C3433 1.429 . S
C3442 N3439 1.350 . S
C3442 C3441 1.434 . S
C3443 C3444 1.369 . S
C3443 C3445 1.419 . S
C3443 H3447 0.930 . S
C3444 C3443 1.369 . S
C3444 C3453 1.429 . S
C3445 C3443 1.419 . S
C3445 C3446 1.363 . S
C3445 H3448 0.929 . S
C3446 C3445 1.363 . S
C3446 C3452 1.428 . S
H3447 C3443 0.930 . S
H3448 C3445 0.929 . S
S3449 N3450 1.613 . S
S3449 N3451 1.610 . S
N3450 S3449 1.613 . S
N3450 C3453 1.350 . S
N3451 S3449 1.610 . S
N3451 C3452 1.351 . S
C3452 C3446 1.428 . S
C3452 N3451 1.351 . S
C3452 C3453 1.434 . S
C3453 C3444 1.429 . S
C3453 N3450 1.350 . S
C3453 C3452 1.434 . S
C3454 C3455 1.369 . S
C3454 C3456 1.419 . S
C3454 H3458 0.930 . S
C3455 C3454 1.369 . S
C3455 C3464 1.429 . S
C3456 C3454 1.419 . S
C3456 C3457 1.363 . S
C3456 H3459 0.929 . S
C3457 C3456 1.363 . S
C3457 C3463 1.428 . S
H3458 C3454 0.930 . S
H3459 C3456 0.929 . S
S3460 N3461 1.613 . S
S3460 N3462 1.610 . S
N3461 S3460 1.613 . S
N3461 C3464 1.350 . S
N3462 S3460 1.610 . S
N3462 C3463 1.351 . S
C3463 C3457 1.428 . S
C3463 N3462 1.351 . S
C3463 C3464 1.434 . S
C3464 C3455 1.429 . S
C3464 N3461 1.350 . S
C3464 C3463 1.434 . S
C3465 C3466 1.369 . S
C3465 C3467 1.419 . S
C3465 H3469 0.930 . S
C3466 C3465 1.369 . S
C3466 C3475 1.429 . S
C3467 C3465 1.419 . S
C3467 C3468 1.363 . S
C3467 H3470 0.929 . S
C3468 C3467 1.363 . S
C3468 C3474 1.428 . S
H3469 C3465 0.930 . S
H3470 C3467 0.929 . S
S3471 N3472 1.613 . S
S3471 N3473 1.610 . S
N3472 S3471 1.613 . S
N3472 C3475 1.350 . S
N3473 S3471 1.610 . S
N3473 C3474 1.351 . S
C3474 C3468 1.428 . S
C3474 N3473 1.351 . S
C3474 C3475 1.434 . S
C3475 C3466 1.429 . S
C3475 N3472 1.350 . S
C3475 C3474 1.434 . S
C3476 C3477 1.369 . S
C3476 C3478 1.419 . S
C3476 H3480 0.930 . S
C3477 C3476 1.369 . S
C3477 C3486 1.429 . S
C3478 C3476 1.419 . S
C3478 C3479 1.363 . S
C3478 H3481 0.929 . S
C3479 C3478 1.363 . S
C3479 C3485 1.428 . S
H3480 C3476 0.930 . S
H3481 C3478 0.929 . S
S3482 N3483 1.613 . S
S3482 N3484 1.610 . S
N3483 S3482 1.613 . S
N3483 C3486 1.350 . S
N3484 S3482 1.610 . S
N3484 C3485 1.351 . S
C3485 C3479 1.428 . S
C3485 N3484 1.351 . S
C3485 C3486 1.434 . S
C3486 C3477 1.429 . S
C3486 N3483 1.350 . S
C3486 C3485 1.434 . S
C3487 C3488 1.369 . S
C3487 C3489 1.419 . S
C3487 H3491 0.930 . S
C3488 C3487 1.369 . S
C3488 C3497 1.429 . S
C3489 C3487 1.419 . S
C3489 C3490 1.363 . S
C3489 H3492 0.929 . S
C3490 C3489 1.363 . S
C3490 C3496 1.428 . S
H3491 C3487 0.930 . S
H3492 C3489 0.929 . S
S3493 N3494 1.613 . S
S3493 N3495 1.610 . S
N3494 S3493 1.613 . S
N3494 C3497 1.350 . S
N3495 S3493 1.610 . S
N3495 C3496 1.351 . S
C3496 C3490 1.428 . S
C3496 N3495 1.351 . S
C3496 C3497 1.434 . S
C3497 C3488 1.429 . S
C3497 N3494 1.350 . S
C3497 C3496 1.434 . S
C3498 C3499 1.369 . S
C3498 C3500 1.419 . S
C3498 H3502 0.930 . S
C3499 C3498 1.369 . S
C3499 C3508 1.429 . S
C3500 C3498 1.419 . S
C3500 C3501 1.363 . S
C3500 H3503 0.929 . S
C3501 C3500 1.363 . S
C3501 C3507 1.428 . S
H3502 C3498 0.930 . S
H3503 C3500 0.929 . S
S3504 N3505 1.613 . S
S3504 N3506 1.610 . S
N3505 S3504 1.613 . S
N3505 C3508 1.350 . S
N3506 S3504 1.610 . S
N3506 C3507 1.351 . S
C3507 C3501 1.428 . S
C3507 N3506 1.351 . S
C3507 C3508 1.434 . S
C3508 C3499 1.429 . S
C3508 N3505 1.350 . S
C3508 C3507 1.434 . S
C3509 C3510 1.369 . S
C3509 C3511 1.419 . S
C3509 H3513 0.930 . S
C3510 C3509 1.369 . S
C3510 C3519 1.429 . S
C3511 C3509 1.419 . S
C3511 C3512 1.363 . S
C3511 H3514 0.929 . S
C3512 C3511 1.363 . S
C3512 C3518 1.428 . S
H3513 C3509 0.930 . S
H3514 C3511 0.929 . S
S3515 N3516 1.613 . S
S3515 N3517 1.610 . S
N3516 S3515 1.613 . S
N3516 C3519 1.350 . S
N3517 S3515 1.610 . S
N3517 C3518 1.351 . S
C3518 C3512 1.428 . S
C3518 N3517 1.351 . S
C3518 C3519 1.434 . S
C3519 C3510 1.429 . S
C3519 N3516 1.350 . S
C3519 C3518 1.434 . S
C3520 C3521 1.369 . S
C3520 C3522 1.419 . S
C3520 H3524 0.930 . S
C3521 C3520 1.369 . S
C3521 C3530 1.429 . S
C3522 C3520 1.419 . S
C3522 C3523 1.363 . S
C3522 H3525 0.929 . S
C3523 C3522 1.363 . S
C3523 C3529 1.428 . S
H3524 C3520 0.930 . S
H3525 C3522 0.929 . S
S3526 N3527 1.613 . S
S3526 N3528 1.610 . S
N3527 S3526 1.613 . S
N3527 C3530 1.350 . S
N3528 S3526 1.610 . S
N3528 C3529 1.351 . S
C3529 C3523 1.428 . S
C3529 N3528 1.351 . S
C3529 C3530 1.434 . S
C3530 C3521 1.429 . S
C3530 N3527 1.350 . S
C3530 C3529 1.434 . S
C3531 C3532 1.369 . S
C3531 C3533 1.419 . S
C3531 H3535 0.930 . S
C3532 C3531 1.369 . S
C3532 C3541 1.429 . S
C3533 C3531 1.419 . S
C3533 C3534 1.363 . S
C3533 H3536 0.929 . S
C3534 C3533 1.363 . S
C3534 C3540 1.428 . S
H3535 C3531 0.930 . S
H3536 C3533 0.929 . S
S3537 N3538 1.613 . S
S3537 N3539 1.610 . S
N3538 S3537 1.613 . S
N3538 C3541 1.350 . S
N3539 S3537 1.610 . S
N3539 C3540 1.351 . S
C3540 C3534 1.428 . S
C3540 N3539 1.351 . S
C3540 C3541 1.434 . S
C3541 C3532 1.429 . S
C3541 N3538 1.350 . S
C3541 C3540 1.434 . S
C3542 C3543 1.369 . S
C3542 C3544 1.419 . S
C3542 H3546 0.930 . S
C3543 C3542 1.369 . S
C3543 C3552 1.429 . S
C3544 C3542 1.419 . S
C3544 C3545 1.363 . S
C3544 H3547 0.929 . S
C3545 C3544 1.363 . S
C3545 C3551 1.428 . S
H3546 C3542 0.930 . S
H3547 C3544 0.929 . S
S3548 N3549 1.613 . S
S3548 N3550 1.610 . S
N3549 S3548 1.613 . S
N3549 C3552 1.350 . S
N3550 S3548 1.610 . S
N3550 C3551 1.351 . S
C3551 C3545 1.428 . S
C3551 N3550 1.351 . S
C3551 C3552 1.434 . S
C3552 C3543 1.429 . S
C3552 N3549 1.350 . S
C3552 C3551 1.434 . S
C3553 C3554 1.369 . S
C3553 C3555 1.419 . S
C3553 H3557 0.930 . S
C3554 C3553 1.369 . S
C3554 C3563 1.429 . S
C3555 C3553 1.419 . S
C3555 C3556 1.363 . S
C3555 H3558 0.929 . S
C3556 C3555 1.363 . S
C3556 C3562 1.428 . S
H3557 C3553 0.930 . S
H3558 C3555 0.929 . S
S3559 N3560 1.613 . S
S3559 N3561 1.610 . S
N3560 S3559 1.613 . S
N3560 C3563 1.350 . S
N3561 S3559 1.610 . S
N3561 C3562 1.351 . S
C3562 C3556 1.428 . S
C3562 N3561 1.351 . S
C3562 C3563 1.434 . S
C3563 C3554 1.429 . S
C3563 N3560 1.350 . S
C3563 C3562 1.434 . S
C3564 C3565 1.369 . S
C3564 C3566 1.419 . S
C3564 H3568 0.930 . S
C3565 C3564 1.369 . S
C3565 C3574 1.429 . S
C3566 C3564 1.419 . S
C3566 C3567 1.363 . S
C3566 H3569 0.929 . S
C3567 C3566 1.363 . S
C3567 C3573 1.428 . S
H3568 C3564 0.930 . S
H3569 C3566 0.929 . S
S3570 N3571 1.613 . S
S3570 N3572 1.610 . S
N3571 S3570 1.613 . S
N3571 C3574 1.350 . S
N3572 S3570 1.610 . S
N3572 C3573 1.351 . S
C3573 C3567 1.428 . S
C3573 N3572 1.351 . S
C3573 C3574 1.434 . S
C3574 C3565 1.429 . S
C3574 N3571 1.350 . S
C3574 C3573 1.434 . S
C3575 C3576 1.369 . S
C3575 C3577 1.419 . S
C3575 H3579 0.930 . S
C3576 C3575 1.369 . S
C3576 C3585 1.429 . S
C3577 C3575 1.419 . S
C3577 C3578 1.363 . S
C3577 H3580 0.929 . S
C3578 C3577 1.363 . S
C3578 C3584 1.428 . S
H3579 C3575 0.930 . S
H3580 C3577 0.929 . S
S3581 N3582 1.613 . S
S3581 N3583 1.610 . S
N3582 S3581 1.613 . S
N3582 C3585 1.350 . S
N3583 S3581 1.610 . S
N3583 C3584 1.351 . S
C3584 C3578 1.428 . S
C3584 N3583 1.351 . S
C3584 C3585 1.434 . S
C3585 C3576 1.429 . S
C3585 N3582 1.350 . S
C3585 C3584 1.434 . S
C3586 C3587 1.369 . S
C3586 C3588 1.419 . S
C3586 H3590 0.930 . S
C3587 C3586 1.369 . S
C3587 C3596 1.429 . S
C3588 C3586 1.419 . S
C3588 C3589 1.363 . S
C3588 H3591 0.929 . S
C3589 C3588 1.363 . S
C3589 C3595 1.428 . S
H3590 C3586 0.930 . S
H3591 C3588 0.929 . S
S3592 N3593 1.613 . S
S3592 N3594 1.610 . S
N3593 S3592 1.613 . S
N3593 C3596 1.350 . S
N3594 S3592 1.610 . S
N3594 C3595 1.351 . S
C3595 C3589 1.428 . S
C3595 N3594 1.351 . S
C3595 C3596 1.434 . S
C3596 C3587 1.429 . S
C3596 N3593 1.350 . S
C3596 C3595 1.434 . S
C3597 C3598 1.369 . S
C3597 C3599 1.419 . S
C3597 H3601 0.930 . S
C3598 C3597 1.369 . S
C3598 C3607 1.429 . S
C3599 C3597 1.419 . S
C3599 C3600 1.363 . S
C3599 H3602 0.929 . S
C3600 C3599 1.363 . S
C3600 C3606 1.428 . S
H3601 C3597 0.930 . S
H3602 C3599 0.929 . S
S3603 N3604 1.613 . S
S3603 N3605 1.610 . S
N3604 S3603 1.613 . S
N3604 C3607 1.350 . S
N3605 S3603 1.610 . S
N3605 C3606 1.351 . S
C3606 C3600 1.428 . S
C3606 N3605 1.351 . S
C3606 C3607 1.434 . S
C3607 C3598 1.429 . S
C3607 N3604 1.350 . S
C3607 C3606 1.434 . S
C3608 C3609 1.369 1_545 S
C3608 C3610 1.419 . S
C3608 H3612 0.930 1_545 S
C3609 C3608 1.369 1_565 S
C3609 C3618 1.429 . S
C3610 C3608 1.419 . S
C3610 C3611 1.363 . S
C3610 H3613 0.929 . S
C3611 C3610 1.363 . S
C3611 C3617 1.428 . S
H3612 C3608 0.930 1_565 S
H3613 C3610 0.929 . S
S3614 N3615 1.613 1_545 S
S3614 N3616 1.610 . S
N3615 S3614 1.613 1_565 S
N3615 C3618 1.350 . S
N3616 S3614 1.610 . S
N3616 C3617 1.351 . S
C3617 C3611 1.428 . S
C3617 N3616 1.351 . S
C3617 C3618 1.434 1_545 S
C3618 C3609 1.429 . S
C3618 N3615 1.350 . S
C3618 C3617 1.434 1_565 S
C3619 C3620 1.369 . S
C3619 C3621 1.419 . S
C3619 H3623 0.930 . S
C3620 C3619 1.369 . S
C3620 C3629 1.429 . S
C3621 C3619 1.419 . S
C3621 C3622 1.363 . S
C3621 H3624 0.929 . S
C3622 C3621 1.363 . S
C3622 C3628 1.428 . S
H3623 C3619 0.930 . S
H3624 C3621 0.929 . S
S3625 N3626 1.613 . S
S3625 N3627 1.610 . S
N3626 S3625 1.613 . S
N3626 C3629 1.350 . S
N3627 S3625 1.610 . S
N3627 C3628 1.351 . S
C3628 C3622 1.428 . S
C3628 N3627 1.351 . S
C3628 C3629 1.434 . S
C3629 C3620 1.429 . S
C3629 N3626 1.350 . S
C3629 C3628 1.434 . S
C3630 C3631 1.369 . S
C3630 C3632 1.419 . S
C3630 H3634 0.930 . S
C3631 C3630 1.369 . S
C3631 C3640 1.429 . S
C3632 C3630 1.419 . S
C3632 C3633 1.363 . S
C3632 H3635 0.929 . S
C3633 C3632 1.363 . S
C3633 C3639 1.428 . S
H3634 C3630 0.930 . S
H3635 C3632 0.929 . S
S3636 N3637 1.613 . S
S3636 N3638 1.610 . S
N3637 S3636 1.613 . S
N3637 C3640 1.350 . S
N3638 S3636 1.610 . S
N3638 C3639 1.351 . S
C3639 C3633 1.428 . S
C3639 N3638 1.351 . S
C3639 C3640 1.434 . S
C3640 C3631 1.429 . S
C3640 N3637 1.350 . S
C3640 C3639 1.434 . S
C3641 C3642 1.369 . S
C3641 C3643 1.419 . S
C3641 H3645 0.930 . S
C3642 C3641 1.369 . S
C3642 C3651 1.429 . S
C3643 C3641 1.419 . S
C3643 C3644 1.363 . S
C3643 H3646 0.929 . S
C3644 C3643 1.363 . S
C3644 C3650 1.428 . S
H3645 C3641 0.930 . S
H3646 C3643 0.929 . S
S3647 N3648 1.613 . S
S3647 N3649 1.610 . S
N3648 S3647 1.613 . S
N3648 C3651 1.350 . S
N3649 S3647 1.610 . S
N3649 C3650 1.351 . S
C3650 C3644 1.428 . S
C3650 N3649 1.351 . S
C3650 C3651 1.434 . S
C3651 C3642 1.429 . S
C3651 N3648 1.350 . S
C3651 C3650 1.434 . S
C3652 C3653 1.369 . S
C3652 C3654 1.419 . S
C3652 H3656 0.930 . S
C3653 C3652 1.369 . S
C3653 C3662 1.429 . S
C3654 C3652 1.419 . S
C3654 C3655 1.363 . S
C3654 H3657 0.929 . S
C3655 C3654 1.363 . S
C3655 C3661 1.428 . S
H3656 C3652 0.930 . S
H3657 C3654 0.929 . S
S3658 N3659 1.613 . S
S3658 N3660 1.610 . S
N3659 S3658 1.613 . S
N3659 C3662 1.350 . S
N3660 S3658 1.610 . S
N3660 C3661 1.351 . S
C3661 C3655 1.428 . S
C3661 N3660 1.351 . S
C3661 C3662 1.434 . S
C3662 C3653 1.429 . S
C3662 N3659 1.350 . S
C3662 C3661 1.434 . S
C3663 C3664 1.369 . S
C3663 C3665 1.419 . S
C3663 H3667 0.930 . S
C3664 C3663 1.369 . S
C3664 C3673 1.429 . S
C3665 C3663 1.419 . S
C3665 C3666 1.363 . S
C3665 H3668 0.929 . S
C3666 C3665 1.363 . S
C3666 C3672 1.428 . S
H3667 C3663 0.930 . S
H3668 C3665 0.929 . S
S3669 N3670 1.613 . S
S3669 N3671 1.610 . S
N3670 S3669 1.613 . S
N3670 C3673 1.350 . S
N3671 S3669 1.610 . S
N3671 C3672 1.351 . S
C3672 C3666 1.428 . S
C3672 N3671 1.351 . S
C3672 C3673 1.434 . S
C3673 C3664 1.429 . S
C3673 N3670 1.350 . S
C3673 C3672 1.434 . S
C3674 C3675 1.369 . S
C3674 C3676 1.419 . S
C3674 H3678 0.930 . S
C3675 C3674 1.369 . S
C3675 C3684 1.429 . S
C3676 C3674 1.419 . S
C3676 C3677 1.363 . S
C3676 H3679 0.929 . S
C3677 C3676 1.363 . S
C3677 C3683 1.428 . S
H3678 C3674 0.930 . S
H3679 C3676 0.929 . S
S3680 N3681 1.613 . S
S3680 N3682 1.610 . S
N3681 S3680 1.613 . S
N3681 C3684 1.350 . S
N3682 S3680 1.610 . S
N3682 C3683 1.351 . S
C3683 C3677 1.428 . S
C3683 N3682 1.351 . S
C3683 C3684 1.434 . S
C3684 C3675 1.429 . S
C3684 N3681 1.350 . S
C3684 C3683 1.434 . S
C3685 C3686 1.369 . S
C3685 C3687 1.419 . S
C3685 H3689 0.930 . S
C3686 C3685 1.369 . S
C3686 C3695 1.429 . S
C3687 C3685 1.419 . S
C3687 C3688 1.363 . S
C3687 H3690 0.929 . S
C3688 C3687 1.363 . S
C3688 C3694 1.428 . S
H3689 C3685 0.930 . S
H3690 C3687 0.929 . S
S3691 N3692 1.613 . S
S3691 N3693 1.610 . S
N3692 S3691 1.613 . S
N3692 C3695 1.350 . S
N3693 S3691 1.610 . S
N3693 C3694 1.351 . S
C3694 C3688 1.428 . S
C3694 N3693 1.351 . S
C3694 C3695 1.434 . S
C3695 C3686 1.429 . S
C3695 N3692 1.350 . S
C3695 C3694 1.434 . S
C1585 C521 1.682 . S
C1587 C25 1.717 . S
C1596 C617 1.921 . S
C1598 C58 1.893 1_455 S
C1607 C90 1.944 . S
C1609 C455 2.296 . S
C1618 C490 1.513 . S
C1620 C123 1.685 . S
C1629 C815 2.082 . S
C1631 C156 2.095 . S
C1640 C1143 1.433 1_554 S
C1642 C189 1.403 . S
C1651 C223 1.847 . S
C1653 C1475 1.991 . S
C1662 C1181 1.873 . S
C1664 C256 1.805 1_455 S
C1673 C286 2.795 . S
C1675 C92 2.876 . S
C1684 C322 1.863 . S
C1686 C125 2.061 . S
C1695 C355 2.025 . S
C1697 C23 2.103 . S
C1706 C390 2.782 . S
C1708 C56 2.640 . S
C1717 C221 2.829 . S
C1719 C291 2.894 . S
C1728 C254 2.044 . S
C1730 C321 1.913 . S
C1739 C354 2.112 . S
C1741 C158 2.636 . S
C1750 C191 2.935 . S
C1752 C385 2.821 . S
C1761 C421 1.450 . S
C1763 C978 1.445 . S
C1772 C292 1.584 . S
C1774 C453 1.638 . S
C1783 C320 3.006 . S
C1785 C484 3.113 . S
C1794 C353 2.361 . S
C1796 C519 2.062 . S
C1805 C1374 1.417 . S
C1807 C553 1.348 . S
C1816 C586 2.008 . S
C1818 C1082 2.105 . S
C1827 C886 2.061 . S
C1829 C489 2.262 . S
C1838 C950 2.575 . S
C1840 C618 2.135 . S
C1849 C880 2.818 . S
C1851 C257 2.933 . S
C1860 C984 2.898 . S
C1862 C650 2.832 . S
C1871 C849 1.915 . S
C1873 C683 2.045 . S
C1882 C716 2.105 . S
C1884 C1081 2.046 . S
C1893 C1512 2.779 . S
C1895 C749 2.637 . S
C1904 C1309 2.793 . S
C1906 C26 2.874 . S
C1915 C785 1.871 . S
C1917 C685 1.805 . S
C1926 C483 1.432 . S
C1928 C255 1.402 . S
C1937 C419 1.991 . S
C1939 C652 1.848 . S
C1948 C751 1.899 . S
C1950 C782 1.927 . S
C1959 C818 2.297 . S
C1961 C24 1.942 . S
C1970 C422 1.691 . S
C1972 C718 1.722 . S
C1981 C619 1.338 . S
C1983 C384 1.411 . S
C1992 C783 2.133 . S
C1994 C851 2.575 . S
C2003 C356 2.107 . S
C2005 C817 2.003 . S
C2014 C912 1.443 . S
C2016 C1411 1.447 . S
C2025 C947 3.001 . S
C2027 C1144 3.110 . S
C2036 C585 1.641 . S
C2038 C985 1.585 . S
C2047 C124 1.900 1_455 S
C2049 C1178 1.928 . S
C2058 C1115 2.293 . S
C2060 C1014 1.938 . S
C2069 C57 1.684 . S
C2071 C1150 1.516 . S
C2080 C651 2.103 . S
C2082 C584 2.091 . S
C2091 C1409 1.997 . S
C2093 C1048 1.856 . S
C2102 C620 1.870 . S
C2104 C190 1.804 1_455 S
C2113 C913 2.795 . S
C2115 C1016 2.876 . S
C2124 C949 1.861 . S
C2126 C59 2.060 . S
C2135 C885 2.785 . S
C2137 C122 2.643 . S
C2146 C1046 2.830 . S
C2148 C918 2.895 . S
C2157 C188 2.048 . S
C2159 C948 1.914 . S
C2168 C653 2.635 . S
C2170 C1080 2.116 . S
C2179 C1308 1.437 1_565 S
C2181 C520 1.442 . S
C2190 C919 1.579 . S
C2192 C1113 1.633 . S
C2201 C1079 2.362 . S
C2203 C420 2.065 . S
C2212 C1506 1.412 . S
C2214 C784 1.341 1_545 S
C2223 C1149 2.259 . S
C2225 C391 2.062 . S
C2234 C1179 2.140 . S
C2236 C323 2.578 . S
C2245 C1314 2.897 . S
C2247 C155 2.832 . S
C2256 C1278 1.912 . S
C2258 C1211 2.042 . S
C2267 C1380 2.779 . S
C2269 C1244 2.637 . S
C2278 C979 2.793 . S
C2280 C719 2.874 . S
C2289 C1213 1.804 . S
C2291 C554 1.870 . S
C2300 C157 1.847 . S
C2302 C518 1.991 . S
C2311 C551 1.925 . S
C2313 C1246 1.896 . S
C2322 C717 1.932 . S
C2324 C587 2.295 . S
C2333 C879 1.413 . S
C2335 C1180 1.342 1_545 S
C2344 C552 2.140 . S
C2346 C1280 2.575 . S
C2355 C1477 1.450 . S
C2357 C285 1.445 1_565 S
C2366 C816 1.631 . S
C2368 C1315 1.577 . S
C2377 C1478 1.684 . S
C2379 C91 1.716 . S
C2388 C1447 1.529 . S
C2390 C750 1.693 . S
C2399 C222 2.101 . S
C2401 C452 2.086 . S
C2410 C1572 1.431 . S
C2412 C1212 1.402 . S
C2421 C752 2.060 . S
C2423 C850 1.857 . S
C2432 C89 2.105 . S
C2434 C1345 2.047 . S
C2443 C224 2.638 . S
C2445 C1344 2.114 . S
C2454 C1214 2.936 . S
C2456 C1375 2.823 . S
C2465 C848 3.007 . S
C2467 C1441 3.113 . S
C2476 C1476 2.068 . S
C2478 C1343 2.365 . S
C2487 C1544 2.107 . S
C2489 C1114 2.002 . S
C2498 C1513 2.060 . S
C2500 C1446 2.259 . S
C2509 C686 2.934 . S
C2511 C1507 2.819 . S
C2520 C1013 2.103 . S
C2522 C1543 2.026 . S
C2531 C684 1.400 . S
C2533 C1440 1.433 1_554 S
C2542 C1015 1.715 . S
C2544 C1412 1.684 . S
C2553 C454 2.001 . S
C2555 C1346 2.104 . S
C2564 C1573 3.111 . S
C2566 C1277 3.003 . S
C2575 C1579 1.526 . S
C2577 C1245 1.691 . S
C2586 C1047 2.095 . S
C2588 C1112 2.083 . S
C2597 C1247 2.061 . S
C2599 C1279 1.854 . S
C2608 C1049 2.635 . S
C2610 C1542 2.119 . S
C2619 C1410 2.064 . S
C2621 C1541 2.363 . S
C2630 C1381 2.058 . S
C2632 C1578 2.260 . S
C2641 C1183 0.468 . S
C2643 C28 0.458 . S
C2652 C813 0.530 . S
C2654 C61 0.648 . S
C2663 C1145 0.747 . S
C2665 C87 0.766 . S
C2674 C1473 0.675 . S
C2676 C120 0.532 . S
C2685 C153 0.395 . S
C2687 C615 0.505 . S
C2696 C186 0.297 . S
C2698 C457 0.457 . S
C2707 C226 1.303 1_565 S
C2709 C488 1.330 . S
C2718 C259 0.364 . S
C2720 C523 0.393 . S
C2729 C287 1.592 . S
C2731 C1508 1.584 . S
C2740 C983 1.160 . S
C2742 C325 1.219 . S
C2751 C1275 0.476 . S
C2753 C358 0.514 . S
C2762 C1539 1.073 . S
C2764 C389 1.015 . S
C2773 C290 1.165 . S
C2775 C1282 1.217 . S
C2784 C318 0.498 . S
C2786 C1546 0.493 . S
C2795 C351 1.073 . S
C2797 C1511 1.017 . S
C2806 C980 1.580 . S
C2808 C386 1.592 . S
C2817 C193 0.384 . S
C2819 C424 0.378 . S
C2828 C450 0.532 . S
C2830 C1249 0.645 . S
C2839 C485 0.746 . S
C2841 C1011 0.764 . S
C2850 C516 0.677 . S
C2852 C747 0.532 . S
C2861 C556 0.460 . S
C2863 C1018 0.466 . S
C2872 C589 0.441 . S
C2874 C681 0.304 . S
C2883 C1311 1.709 1_565 S
C2885 C258 1.667 . S
C2894 C324 2.761 . S
C2896 C649 2.693 . S
C2905 C1083 2.495 . S
C2907 C682 2.553 . S
C2916 C1510 2.117 . S
C2918 C159 2.126 . S
C2927 C982 1.865 . S
C2929 C126 1.830 . S
C2938 C847 2.662 . S
C2940 C715 2.716 . S
C2949 C748 1.978 . S
C2951 C352 2.087 . S
C2960 C27 1.898 . S
C2962 C882 1.984 . S
C2971 C1479 1.716 . S
C2973 C786 1.741 . S
C2982 C814 1.891 . S
C2984 C616 1.862 . S
C2993 C486 1.628 . S
C2995 C1116 1.582 . S
C3004 C1576 1.463 . S
C3006 C418 1.394 . S
C3015 C781 1.855 . S
C3017 C1111 1.887 . S
C3026 C819 1.587 . S
C3028 C1575 1.625 . S
C3037 C487 1.466 . S
C3039 C1474 1.401 . S
C3048 C423 1.719 . S
C3050 C621 1.740 . S
C3059 C720 1.902 . S
C3061 C387 1.982 . S
C3070 C852 2.762 . S
C3072 C1045 2.693 . S
C3081 C1210 2.558 . S
C3083 C357 2.491 . S
C3092 C225 2.123 . S
C3094 C883 2.121 . S
C3103 C1215 1.666 . S
C3105 C915 1.709 . S
C3114 C88 2.717 . S
C3116 C946 2.660 . S
C3125 C622 0.468 . S
C3127 C721 0.459 . S
C3136 C582 0.539 . S
C3138 C127 0.637 . S
C3147 C1407 0.662 . S
C3149 C54 0.540 . S
C3158 C648 0.416 . S
C3160 C1176 0.509 . S
C3169 C1117 0.447 . S
C3171 C252 0.314 . S
C3180 C1148 1.326 . S
C3182 C1051 1.302 . S
C3191 C914 1.580 . S
C3193 C1376 1.590 . S
C3202 C952 1.219 . S
C3204 C1313 1.156 . S
C3213 C1084 0.517 . S
C3215 C846 0.479 . S
C3224 C884 1.023 . S
C3226 C1341 1.072 . S
C3235 C917 1.154 . S
C3237 C853 1.220 . S
C3246 C945 0.476 . S
C3248 C1348 0.508 . S
C3257 C1379 1.013 . S
C3259 C1077 1.070 . S
C3268 C1310 1.590 . S
C3270 C881 1.586 . S
C3279 C754 0.620 . S
C3281 C1110 0.550 . S
C3290 C1242 0.535 . S
C3292 C417 0.662 . S
C3301 C787 0.466 . S
C3303 C94 0.459 . S
C3312 C820 0.430 . S
C3314 C1209 0.312 . S
C3323 C981 1.711 . S
C3325 C192 1.664 . S
C3334 C154 2.688 . S
C3336 C951 2.766 . S
C3345 C654 2.120 . S
C3347 C1378 2.119 . S
C3356 C60 1.830 . S
C3358 C1312 1.869 . S
C3367 C22 2.714 . S
C3369 C1276 2.657 . S
C3378 C1243 1.970 . S
C3380 C1078 2.086 . S
C3389 C555 1.733 . S
C3391 C1413 1.722 . S
C3400 C583 1.892 . S
C3402 C1177 1.862 . S
C3411 C456 1.585 . S
C3413 C1146 1.626 1_554 S
C3422 C517 1.400 . S
C3424 C1444 1.465 . S
C3433 C451 1.888 . S
C3435 C550 1.856 . S
C3444 C588 1.587 . S
C3446 C1443 1.625 1_554 S
C3455 C1147 1.465 . S
C3457 C1408 1.399 . S
C3466 C1182 1.741 . S
C3468 C522 1.719 . S
C3477 C220 2.695 . S
C3479 C1281 2.764 . S
C3488 C1050 2.126 . S
C3490 C388 2.118 . S
C3499 C687 1.665 . S
C3501 C288 1.710 1_565 S
C3510 C1012 2.717 . S
C3512 C319 2.661 . S
C3521 C1574 0.764 . S
C3523 C21 0.764 . S
C3532 C549 0.507 . S
C3534 C219 0.414 . S
C3543 C160 1.308 1_565 S
C3545 C1445 1.328 . S
C3554 C1480 0.390 . S
C3556 C688 0.373 . S
C3565 C1216 0.373 . S
C3567 C1414 0.385 . S
C3576 C714 0.763 . S
C3578 C1442 0.764 . S
C3587 C253 2.558 . S
C3589 C1545 2.491 . S
C3598 C916 1.866 . S
C3600 C753 1.832 . S
C3609 C121 1.976 . S
C3611 C1342 2.087 . S
C3620 C93 1.901 . S
C3622 C1509 1.982 . S
C3631 C1017 1.900 . S
C3633 C1377 1.984 . S
C3642 C187 2.553 . S
C3644 C1347 2.493 . S
C3653 C780 0.510 . S
C3655 C1044 0.396 . S
C3664 C1577 1.331 . S
C3666 C655 1.301 . S
C3675 C1248 1.828 . S
C3677 C289 1.869 . S
C3686 C1540 2.082 . S
C3688 C55 1.973 . S
