# Generated by pormake.
# Topology und, (4)-cn, num edge types: 1
# Building blocks:
#     Node 0, Type 0, BuildingBlock: GALJAG_clean_sbu_0, # of connection points: 4
#     Node 1, Type 0, BuildingBlock: GALJAG_clean_sbu_0, # of connection points: 4
#     Node 2, Type 0, BuildingBlock: GALJAG_clean_sbu_0, # of connection points: 4
#     Node 3, Type 0, BuildingBlock: GALJAG_clean_sbu_0, # of connection points: 4
#     Node 4, Type 0, BuildingBlock: GALJAG_clean_sbu_0, # of connection points: 4
#     Node 5, Type 0, BuildingBlock: GALJAG_clean_sbu_0, # of connection points: 4
#     Node 6, Type 0, BuildingBlock: GALJAG_clean_sbu_0, # of connection points: 4
#     Node 7, Type 0, BuildingBlock: GALJAG_clean_sbu_0, # of connection points: 4
#     Node 8, Type 0, BuildingBlock: GALJAG_clean_sbu_0, # of connection points: 4
#     Node 9, Type 0, BuildingBlock: GALJAG_clean_sbu_0, # of connection points: 4
#     Node 10, Type 0, BuildingBlock: GALJAG_clean_sbu_0, # of connection points: 4
#     Node 11, Type 0, BuildingBlock: GALJAG_clean_sbu_0, # of connection points: 4
#     Node 12, Type 0, BuildingBlock: GALJAG_clean_sbu_0, # of connection points: 4
#     Node 13, Type 0, BuildingBlock: GALJAG_clean_sbu_0, # of connection points: 4
#     Node 14, Type 0, BuildingBlock: GALJAG_clean_sbu_0, # of connection points: 4
#     Node 15, Type 0, BuildingBlock: GALJAG_clean_sbu_0, # of connection points: 4
#     Edge 16, Type (0, 0), BuildingBlock: ZUJKAS_clean_linker_0, # of connection points: 2
#     Edge 17, Type (0, 0), BuildingBlock: ZUJKAS_clean_linker_0, # of connection points: 2
#     Edge 18, Type (0, 0), BuildingBlock: ZUJKAS_clean_linker_0, # of connection points: 2
#     Edge 19, Type (0, 0), BuildingBlock: ZUJKAS_clean_linker_0, # of connection points: 2
#     Edge 20, Type (0, 0), BuildingBlock: ZUJKAS_clean_linker_0, # of connection points: 2
#     Edge 21, Type (0, 0), BuildingBlock: ZUJKAS_clean_linker_0, # of connection points: 2
#     Edge 22, Type (0, 0), BuildingBlock: ZUJKAS_clean_linker_0, # of connection points: 2
#     Edge 23, Type (0, 0), BuildingBlock: ZUJKAS_clean_linker_0, # of connection points: 2
#     Edge 24, Type (0, 0), BuildingBlock: ZUJKAS_clean_linker_0, # of connection points: 2
#     Edge 25, Type (0, 0), BuildingBlock: ZUJKAS_clean_linker_0, # of connection points: 2
#     Edge 26, Type (0, 0), BuildingBlock: ZUJKAS_clean_linker_0, # of connection points: 2
#     Edge 27, Type (0, 0), BuildingBlock: ZUJKAS_clean_linker_0, # of connection points: 2
#     Edge 28, Type (0, 0), BuildingBlock: ZUJKAS_clean_linker_0, # of connection points: 2
#     Edge 29, Type (0, 0), BuildingBlock: ZUJKAS_clean_linker_0, # of connection points: 2
#     Edge 30, Type (0, 0), BuildingBlock: ZUJKAS_clean_linker_0, # of connection points: 2
#     Edge 31, Type (0, 0), BuildingBlock: ZUJKAS_clean_linker_0, # of connection points: 2
#     Edge 32, Type (0, 0), BuildingBlock: ZUJKAS_clean_linker_0, # of connection points: 2
#     Edge 33, Type (0, 0), BuildingBlock: ZUJKAS_clean_linker_0, # of connection points: 2
#     Edge 34, Type (0, 0), BuildingBlock: ZUJKAS_clean_linker_0, # of connection points: 2
#     Edge 35, Type (0, 0), BuildingBlock: ZUJKAS_clean_linker_0, # of connection points: 2
#     Edge 36, Type (0, 0), BuildingBlock: ZUJKAS_clean_linker_0, # of connection points: 2
#     Edge 37, Type (0, 0), BuildingBlock: ZUJKAS_clean_linker_0, # of connection points: 2
#     Edge 38, Type (0, 0), BuildingBlock: ZUJKAS_clean_linker_0, # of connection points: 2
#     Edge 39, Type (0, 0), BuildingBlock: ZUJKAS_clean_linker_0, # of connection points: 2
#     Edge 40, Type (0, 0), BuildingBlock: ZUJKAS_clean_linker_0, # of connection points: 2
#     Edge 41, Type (0, 0), BuildingBlock: ZUJKAS_clean_linker_0, # of connection points: 2
#     Edge 42, Type (0, 0), BuildingBlock: ZUJKAS_clean_linker_0, # of connection points: 2
#     Edge 43, Type (0, 0), BuildingBlock: ZUJKAS_clean_linker_0, # of connection points: 2
#     Edge 44, Type (0, 0), BuildingBlock: ZUJKAS_clean_linker_0, # of connection points: 2
#     Edge 45, Type (0, 0), BuildingBlock: ZUJKAS_clean_linker_0, # of connection points: 2
#     Edge 46, Type (0, 0), BuildingBlock: ZUJKAS_clean_linker_0, # of connection points: 2
#     Edge 47, Type (0, 0), BuildingBlock: ZUJKAS_clean_linker_0, # of connection points: 2
# Relax obj value: 0.013
# Max RMSD: 0.034
# Mean RMSD: 0.034
data_MOF--net-und--node1-GALJAG_clean_sbu_0--edge1-ZUJKAS_clean_linker_0
_symmetry_space_group_name_H-M    P1
_symmetry_Int_Tables_number       1
_symmetry_cell_setting            triclinic
loop_
_symmetry_equiv_pos_as_xyz
'x, y, z'
_cell_length_a     81.992141
_cell_length_b     81.992165
_cell_length_c     26.238655
_cell_angle_alpha  90.004618
_cell_angle_beta   89.989269
_cell_angle_gamma 89.993221
loop_
_atom_site_label
_atom_site_type_symbol
_atom_site_fract_x
_atom_site_fract_y
_atom_site_fract_z
_atom_type_partial_charge
In0 In 0.24898 0.33835 -0.00053 0.0
O1 O 0.22442 0.35129 0.98994 0.0
O2 O 0.23873 0.35672 0.05548 0.0
C3 C 0.24945 0.31611 0.92417 0.0
C4 C 0.27185 0.35955 0.96739 0.0
C5 C 0.24896 0.31645 0.07574 0.0
O6 O 0.23693 0.32462 0.93352 0.0
O7 O 0.26164 0.31918 0.95188 0.0
O8 O 0.26121 0.32537 0.06655 0.0
O9 O 0.23681 0.31893 0.04731 0.0
C10 C 0.22575 0.35928 0.03096 0.0
O11 O 0.27334 0.35161 0.00842 0.0
O12 O 0.25886 0.35681 0.94305 0.0
In13 In 0.90996 -0.00043 0.25034 0.0
O14 O 0.89684 0.02401 0.25925 0.0
O15 O 0.89152 0.00954 0.19397 0.0
C16 C 0.9318 -0.00049 0.32688 0.0
C17 C 0.88883 0.97655 0.28194 0.0
C18 C 0.93199 -0.00028 0.17436 0.0
O19 O 0.92326 0.01193 0.31661 0.0
O20 O 0.92899 0.98722 0.29938 0.0
O21 O 0.92321 0.98739 0.18363 0.0
O22 O 0.92933 0.01188 0.20258 0.0
C23 C 0.88885 0.02254 0.2183 0.0
O24 O 0.89733 0.97484 0.24208 0.0
O25 O 0.891 0.98982 0.30532 0.0
In26 In 0.24872 0.65996 0.49755 0.0
O27 O 0.27303 0.6465 0.49058 0.0
O28 O 0.25845 0.64222 0.55643 0.0
C29 C 0.24909 0.6812 0.41928 0.0
C30 C 0.22553 0.63891 0.46681 0.0
C31 C 0.2488 0.68229 0.57263 0.0
O32 O 0.26149 0.67284 0.43105 0.0
O33 O 0.23662 0.67847 0.44605 0.0
O34 O 0.23673 0.673 0.56498 0.0
O35 O 0.26073 0.68004 0.54315 0.0
C36 C 0.27146 0.63912 0.53262 0.0
O37 O 0.22322 0.64886 0.50289 0.0
O38 O 0.23951 0.63953 0.44683 0.0
In39 In 0.58895 -0.00046 0.74622 0.0
O40 O 0.60211 0.02403 0.73792 0.0
O41 O 0.60702 0.00956 0.80349 0.0
C42 C 0.56672 -0.00057 0.67089 0.0
C43 C 0.61013 0.97682 0.71287 0.0
C44 C 0.56708 0.99924 0.82256 0.0
O45 O 0.57505 0.01198 0.68132 0.0
O46 O 0.56995 0.98705 0.69755 0.0
O47 O 0.57617 0.98712 0.81339 0.0
O48 O 0.56931 0.01139 0.79391 0.0
C49 C 0.6098 0.02259 0.77946 0.0
O50 O 0.60205 0.97503 0.75353 0.0
O51 O 0.60756 0.99004 0.68959 0.0
In52 In 0.74856 0.65979 0.0041 0.0
O53 O 0.72355 0.64771 0.99532 0.0
O54 O 0.73946 0.63902 0.05338 0.0
C55 C 0.74846 0.6833 0.93268 0.0
C56 C 0.77293 0.64068 0.96947 0.0
C57 C 0.74678 0.67994 0.08457 0.0
O58 O 0.73868 0.67139 0.93075 0.0
O59 O 0.75819 0.68315 0.96986 0.0
O60 O 0.75974 0.67232 0.07347 0.0
O61 O 0.73478 0.67702 0.05584 0.0
C62 C 0.72578 0.63784 0.03171 0.0
O63 O 0.77354 0.64748 0.01268 0.0
O64 O 0.76014 0.64356 0.9444 0.0
In65 In 0.08886 6e-05 0.74949 0.0
O66 O 0.10035 0.02538 0.75628 0.0
O67 O 0.10901 0.00948 0.69812 0.0
C68 C 0.06666 -0.00036 0.82503 0.0
C69 C 0.10979 0.97708 0.78243 0.0
C70 C 0.06751 0.00018 0.6715 0.0
O71 O 0.07578 0.01184 0.81725 0.0
O72 O 0.06905 0.98775 0.79551 0.0
O73 O 0.07596 0.98775 0.68226 0.0
O74 O 0.07018 0.01245 0.6992 0.0
C75 C 0.11 0.02326 0.71929 0.0
O76 O 0.10198 0.97564 0.74113 0.0
O77 O 0.10704 0.99009 0.8067 0.0
In78 In 0.74998 0.33891 0.4993 0.0
O79 O 0.72535 0.35174 0.50756 0.0
O80 O 0.74019 0.35762 0.44358 0.0
C81 C 0.74995 0.31677 0.57493 0.0
C82 C 0.77279 0.36001 0.53252 0.0
C83 C 0.75007 0.31713 0.4226 0.0
O84 O 0.73759 0.32546 0.5652 0.0
O85 O 0.76222 0.31954 0.54727 0.0
O86 O 0.76248 0.32566 0.4331 0.0
O87 O 0.73774 0.31989 0.45004 0.0
C88 C 0.72699 0.35998 0.46715 0.0
O89 O 0.77439 0.35219 0.49129 0.0
O90 O 0.75974 0.3572 0.55641 0.0
In91 In 0.4102 0.9988 0.24756 0.0
O92 O 0.39651 0.97464 0.25484 0.0
O93 O 0.39324 0.98862 0.1872 0.0
C94 C 0.43061 0.99869 0.32798 0.0
C95 C 0.38888 0.02215 0.27538 0.0
C96 C 0.43313 0.99846 0.17423 0.0
O97 O 0.42262 0.98616 0.31511 0.0
O98 O 0.42792 0.01116 0.30119 0.0
O99 O 0.42343 0.01033 0.1797 0.0
O100 O 0.43102 0.98686 0.20508 0.0
C101 C 0.38973 0.97585 0.21173 0.0
O102 O 0.39956 0.0245 0.2414 0.0
O103 O 0.38892 0.00805 0.29468 0.0
In104 In 0.75017 0.83841 0.50261 0.0
O105 O 0.72574 0.8514 0.49227 0.0
O106 O 0.74041 0.85772 0.55636 0.0
C107 C 0.74751 0.81544 0.42965 0.0
C108 C 0.77292 0.85948 0.46841 0.0
C109 C 0.75262 0.81735 0.58105 0.0
O110 O 0.73542 0.82392 0.44356 0.0
O111 O 0.76072 0.81887 0.45167 0.0
O112 O 0.76498 0.82265 0.55762 0.0
O113 O 0.73919 0.82305 0.566 0.0
C114 C 0.72733 0.86002 0.53196 0.0
O115 O 0.77368 0.8531 0.51218 0.0
O116 O 0.76071 0.85526 0.44232 0.0
In117 In 0.40909 0.4994 0.74904 0.0
O118 O 0.39606 0.52386 0.75905 0.0
O119 O 0.39028 0.50943 0.69405 0.0
C120 C 0.43133 0.49917 0.82438 0.0
C121 C 0.38816 0.47637 0.78172 0.0
C122 C 0.43083 0.49962 0.67223 0.0
O123 O 0.42277 0.51163 0.81478 0.0
O124 O 0.42838 0.48694 0.79675 0.0
O125 O 0.42226 0.48719 0.68221 0.0
O126 O 0.42809 0.51184 0.70014 0.0
C127 C 0.38779 0.52243 0.71863 0.0
O128 O 0.39594 0.47496 0.74033 0.0
O129 O 0.39092 0.48936 0.80601 0.0
In130 In 0.74929 0.15998 -0.00092 0.0
O131 O 0.77371 0.14673 0.99099 0.0
O132 O 0.75913 0.14177 0.05632 0.0
C133 C 0.74937 0.18165 0.92212 0.0
C134 C 0.72627 0.13883 0.96757 0.0
C135 C 0.74942 0.18221 0.07448 0.0
O136 O 0.76174 0.17306 0.93255 0.0
O137 O 0.73707 0.179 0.94974 0.0
O138 O 0.73701 0.17357 0.06493 0.0
O139 O 0.76165 0.17935 0.04673 0.0
C140 C 0.77217 0.13897 0.03235 0.0
O141 O 0.72468 0.14714 0.00787 0.0
O142 O 0.73944 0.14118 0.94376 0.0
In143 In 0.08844 0.49901 0.24987 0.0
O144 O 0.10174 0.47466 0.258 0.0
O145 O 0.10616 0.48889 0.19151 0.0
C146 C 0.06727 0.49924 0.32834 0.0
C147 C 0.1096 0.52228 0.27929 0.0
C148 C 0.06602 0.49869 0.17505 0.0
O149 O 0.07555 0.48673 0.31726 0.0
O150 O 0.07003 0.51152 0.30079 0.0
O151 O 0.07546 0.5107 0.18186 0.0
O152 O 0.06819 0.48691 0.20519 0.0
C153 C 0.10917 0.47598 0.21597 0.0
O154 O 0.09964 0.52444 0.24314 0.0
O155 O 0.10893 0.5084 0.29999 0.0
In156 In 0.25042 0.1595 0.50003 0.0
O157 O 0.27563 0.14776 0.50508 0.0
O158 O 0.25985 0.14037 0.44487 0.0
C159 C 0.25004 0.1805 0.57891 0.0
C160 C 0.22724 0.13847 0.53084 0.0
C161 C 0.25066 0.1817 0.42442 0.0
O162 O 0.26238 0.1718 0.56904 0.0
O163 O 0.23801 0.17825 0.54987 0.0
O164 O 0.23873 0.17218 0.43133 0.0
O165 O 0.26239 0.1797 0.45479 0.0
C166 C 0.27357 0.1389 0.46617 0.0
O167 O 0.22494 0.14842 0.49476 0.0
O168 O 0.24124 0.13904 0.55078 0.0
In169 In 0.58807 0.49827 0.24899 0.0
O170 O 0.60145 0.47394 0.24031 0.0
O171 O 0.60643 0.48842 0.30581 0.0
C172 C 0.56606 0.49797 0.17309 0.0
C173 C 0.60899 0.52121 0.21558 0.0
C174 C 0.56593 0.49853 0.32461 0.0
O175 O 0.5746 0.48558 0.18371 0.0
O176 O 0.56892 0.51038 0.20002 0.0
O177 O 0.57456 0.51089 0.31436 0.0
O178 O 0.56881 0.48614 0.29759 0.0
C179 C 0.60929 0.47545 0.28153 0.0
O180 O 0.60142 0.52264 0.25733 0.0
O181 O 0.60606 0.50825 0.19137 0.0
In182 In 0.24903 0.83886 0.99862 0.0
O183 O 0.22476 0.85231 0.00822 0.0
O184 O 0.23872 0.85676 0.94124 0.0
C185 C 0.24931 0.81725 0.0758 0.0
C186 C 0.27225 0.86009 0.02788 0.0
C187 C 0.24869 0.81649 0.92365 0.0
O188 O 0.2368 0.82562 0.06528 0.0
O189 O 0.26159 0.82015 0.04832 0.0
O190 O 0.26102 0.82535 0.93213 0.0
O191 O 0.23662 0.81921 0.95221 0.0
C192 C 0.22595 0.85982 0.9663 0.0
O193 O 0.27366 0.85147 0.98817 0.0
O194 O 0.25917 0.85799 0.05236 0.0
In195 In 0.90953 0.50063 0.74953 0.0
O196 O 0.89693 0.52537 0.74059 0.0
O197 O 0.8912 0.51094 0.80558 0.0
C198 C 0.93162 0.50005 0.67372 0.0
C199 C 0.8882 0.47779 0.71799 0.0
C200 C 0.93149 0.50048 0.82564 0.0
O201 O 0.9231 0.51257 0.68299 0.0
O202 O 0.92865 0.48792 0.70176 0.0
O203 O 0.92249 0.4883 0.81647 0.0
O204 O 0.92909 0.51265 0.79723 0.0
C205 C 0.88887 0.52404 0.78146 0.0
O206 O 0.8963 0.47628 0.75871 0.0
O207 O 0.89084 0.4908 0.69367 0.0
H208 H 0.27393 0.30739 0.13903 0.0
H209 H 0.27428 0.28427 0.19848 0.0
H210 H 0.2245 0.27299 0.15884 0.0
H211 H 0.22407 0.2959 0.09937 0.0
H212 H 0.25288 0.27742 0.28323 0.0
H213 H 0.24966 0.23002 0.13219 0.0
H214 H 0.25522 0.25091 0.11902 0.0
H215 H 0.2342 0.24551 0.12847 0.0
C216 C 0.26305 0.30003 0.14324 0.0
C217 C 0.24901 0.30338 0.11438 0.0
C218 C 0.26327 0.28684 0.17709 0.0
C219 C 0.24951 0.2768 0.18224 0.0
C220 C 0.23534 0.28043 0.1546 0.0
H221 H 0.22608 0.19036 0.35913 0.0
H222 H 0.22578 0.21358 0.30009 0.0
C223 C 0.2351 0.29358 0.1209 0.0
C224 C 0.24989 0.26249 0.21644 0.0
H225 H 0.24689 0.22096 0.21757 0.0
C226 C 0.25166 0.26506 0.26896 0.0
C227 C 0.24822 0.24642 0.19751 0.0
C228 C 0.24685 0.24296 0.14118 0.0
C229 C 0.25152 0.25196 0.30333 0.0
C230 C 0.24988 0.23588 0.28441 0.0
C231 C 0.24811 0.23331 0.23186 0.0
C232 C 0.25024 0.22154 0.31858 0.0
C233 C 0.25278 0.25545 0.35967 0.0
C234 C 0.26423 0.21814 0.34737 0.0
C235 C 0.26443 0.20496 0.38093 0.0
C236 C 0.25068 0.19485 0.38604 0.0
C237 C 0.23684 0.19796 0.35599 0.0
C238 C 0.23664 0.2112 0.32238 0.0
H239 H 0.24967 0.26833 0.36858 0.0
H240 H 0.2446 0.24733 0.38188 0.0
H241 H 0.26549 0.25323 0.37241 0.0
H242 H 0.27496 0.22577 0.34411 0.0
H243 H 0.27531 0.20281 0.40335 0.0
H244 H 0.95102 0.97399 0.35472 0.0
H245 H 0.97391 0.97422 0.41428 0.0
H246 H 0.96536 0.02519 0.445 0.0
H247 H 0.94224 0.02502 0.38574 0.0
H248 H 0.00186 0.99361 0.40631 0.0
H249 H 0.96893 0.00507 0.58789 0.0
H250 H 0.95868 0.99837 0.5307 0.0
H251 H 0.96452 0.01937 0.53786 0.0
C252 C 0.95388 0.98522 0.3746 0.0
C253 C 0.94482 -0.00051 0.36571 0.0
C254 C 0.96698 0.98532 0.40849 0.0
C255 C 0.97123 -0.00033 0.43431 0.0
C256 C 0.96209 0.01392 0.42607 0.0
H257 H 0.04852 0.02574 0.64267 0.0
H258 H 0.02576 0.02552 0.58262 0.0
C259 C 0.94894 0.01382 0.39213 0.0
C260 C 0.98569 -0.00016 0.46803 0.0
H261 H 0.99781 0.00608 0.59086 0.0
C262 C 0.00099 0.99627 0.44672 0.0
C263 C 0.98448 0.00333 0.52064 0.0
C264 C 0.96827 0.00662 0.54587 0.0
C265 C 0.01519 0.99635 0.47654 0.0
C266 C 0.01398 -0.00014 0.52914 0.0
C267 C 0.99868 0.00342 0.55045 0.0
C268 C 0.02843 4e-05 0.56287 0.0
C269 C 0.0314 0.99305 0.45135 0.0
C270 C 0.03753 0.98579 0.57138 0.0
C271 C 0.05061 0.98588 0.60562 0.0
C272 C 0.05468 0.00022 0.63207 0.0
C273 C 0.04569 0.01451 0.6228 0.0
C274 C 0.03266 0.01441 0.58861 0.0
H275 H 0.03074 0.99453 0.40931 0.0
H276 H 0.04098 0.00133 0.46642 0.0
H277 H 0.03516 0.98032 0.45954 0.0
H278 H 0.03427 0.9745 0.5525 0.0
H279 H 0.05725 0.97467 0.6123 0.0
H280 H 0.2239 0.6915 0.636 0.0
H281 H 0.22372 0.71456 0.69564 0.0
H282 H 0.27357 0.72554 0.65588 0.0
H283 H 0.2738 0.70274 0.59601 0.0
H284 H 0.24431 0.72111 0.78002 0.0
H285 H 0.24969 0.76884 0.63085 0.0
H286 H 0.24417 0.74803 0.61645 0.0
H287 H 0.26513 0.75334 0.62777 0.0
C288 C 0.23483 0.69881 0.64017 0.0
C289 C 0.24882 0.69541 0.61114 0.0
C290 C 0.2347 0.71196 0.67414 0.0
C291 C 0.24853 0.72191 0.67933 0.0
C292 C 0.26266 0.71822 0.65154 0.0
H293 H 0.27355 0.80679 0.86093 0.0
H294 H 0.27346 0.78368 0.80148 0.0
C295 C 0.26279 0.70513 0.6176 0.0
C296 C 0.24828 0.73614 0.71393 0.0
H297 H 0.25255 0.77756 0.7167 0.0
C298 C 0.24601 0.73347 0.76624 0.0
C299 C 0.25055 0.75222 0.69567 0.0
C300 C 0.25238 0.75586 0.63957 0.0
C301 C 0.24627 0.74646 0.80104 0.0
C302 C 0.2486 0.76252 0.78279 0.0
C303 C 0.25083 0.7652 0.73048 0.0
C304 C 0.24851 0.77675 0.81742 0.0
C305 C 0.2444 0.74284 0.85714 0.0
C306 C 0.2344 0.78067 0.84497 0.0
C307 C 0.23441 0.79381 0.87875 0.0
C308 C 0.24852 0.80332 0.88534 0.0
C309 C 0.26251 0.79965 0.85665 0.0
C310 C 0.26249 0.78648 0.82279 0.0
H311 H 0.24686 0.72981 0.86587 0.0
H312 H 0.25277 0.75053 0.8802 0.0
H313 H 0.23171 0.74561 0.869 0.0
H314 H 0.22339 0.77351 0.84051 0.0
H315 H 0.2234 0.79639 0.90013 0.0
H316 H 0.44152 0.02244 0.10651 0.0
H317 H 0.46441 0.0222 0.04623 0.0
H318 H 0.47769 0.97397 0.097 0.0
H319 H 0.45486 0.97404 0.15674 0.0
H320 H 0.49794 0.0182 0.07132 0.0
H321 H 0.47618 0.96947 0.94097 0.0
H322 H 0.46281 0.97988 0.98494 0.0
H323 H 0.47615 0.96402 0.00727 0.0
C324 C 0.44923 0.01174 0.10441 0.0
C325 C 0.44637 0.99824 0.13614 0.0
C326 C 0.46229 0.01163 0.07011 0.0
C327 C 0.47258 0.99798 0.0668 0.0
C328 C 0.4697 0.98448 0.0983 0.0
H329 H 0.55897 0.97452 0.88807 0.0
H330 H 0.53663 0.97431 0.95034 0.0
C331 C 0.45669 0.98459 0.13257 0.0
C332 C 0.48676 0.99807 0.03196 0.0
H333 H 0.50348 0.97839 0.92993 0.0
C334 C 0.49914 0.00957 0.04022 0.0
C335 C 0.4883 0.98668 0.99179 0.0
C336 C 0.4751 0.97439 0.98028 0.0
C337 C 0.51317 0.00986 0.00965 0.0
C338 C 0.51467 0.99855 0.96922 0.0
C339 C 0.50231 0.987 0.96112 0.0
C340 C 0.52865 0.9989 0.93356 0.0
C341 C 0.52639 0.0221 0.02147 0.0
C342 C 0.53147 0.01274 0.90351 0.0
C343 C 0.5442 0.01291 0.86825 0.0
C344 C 0.55425 0.99917 0.86202 0.0
C345 C 0.55146 0.98531 0.89224 0.0
C346 C 0.5387 0.98516 0.92768 0.0
H347 H 0.52561 0.02649 0.06146 0.0
H348 H 0.53869 0.01681 0.01508 0.0
H349 H 0.52499 0.03282 0.99601 0.0
H350 H 0.52363 0.02333 0.90663 0.0
H351 H 0.54597 0.02374 0.84524 0.0
H352 H 0.2751 0.79858 0.10487 0.0
H353 H 0.27494 0.77535 0.16319 0.0
H354 H 0.22378 0.7831 0.19262 0.0
H355 H 0.22378 0.80634 0.13375 0.0
H356 H 0.26621 0.7735 0.26736 0.0
H357 H 0.22633 0.73514 0.14493 0.0
H358 H 0.23628 0.75333 0.12174 0.0
H359 H 0.21827 0.75491 0.16047 0.0
C360 C 0.26382 0.79541 0.12398 0.0
C361 C 0.24941 0.80421 0.11455 0.0
C362 C 0.26377 0.78214 0.15726 0.0
C363 C 0.2493 0.77737 0.18146 0.0
C364 C 0.235 0.78644 0.1735 0.0
H365 H 0.22358 0.69988 0.38814 0.0
H366 H 0.22418 0.72292 0.32921 0.0
C367 C 0.23504 0.79976 0.1402 0.0
C368 C 0.24923 0.76276 0.21454 0.0
H369 H 0.23324 0.72451 0.22598 0.0
C370 C 0.25905 0.76275 0.25833 0.0
C371 C 0.23992 0.74878 0.20236 0.0
C372 C 0.2297 0.7479 0.15461 0.0
C373 C 0.25954 0.74921 0.29098 0.0
C374 C 0.25019 0.73524 0.27886 0.0
C375 C 0.24042 0.73524 0.23499 0.0
C376 C 0.24991 0.72072 0.31234 0.0
C377 C 0.26972 0.75012 0.3388 0.0
C378 C 0.26412 0.71161 0.32133 0.0
C379 C 0.26383 0.69839 0.35505 0.0
C380 C 0.24929 0.6941 0.38005 0.0
C381 C 0.23498 0.70293 0.36956 0.0
C382 C 0.23529 0.71609 0.33591 0.0
H383 H 0.27314 0.76287 0.34833 0.0
H384 H 0.26309 0.74477 0.3717 0.0
H385 H 0.28112 0.74304 0.33315 0.0
H386 H 0.27546 0.71482 0.30269 0.0
H387 H 0.27502 0.69177 0.36232 0.0
H388 H 0.44816 0.02455 0.36256 0.0
H389 H 0.47095 0.02418 0.42246 0.0
H390 H 0.46437 0.97246 0.44435 0.0
H391 H 0.44157 0.97269 0.38381 0.0
H392 H 0.4728 0.01406 0.52528 0.0
H393 H 0.51234 0.97684 0.39829 0.0
H394 H 0.49394 0.98662 0.37611 0.0
H395 H 0.49276 0.96811 0.41255 0.0
C396 C 0.45147 0.01311 0.3804 0.0
C397 C 0.44317 0.99862 0.36825 0.0
C398 C 0.46449 0.01293 0.41461 0.0
C399 C 0.4695 0.99825 0.43707 0.0
C400 C 0.46085 0.98386 0.42661 0.0
H401 H 0.54854 0.97344 0.64063 0.0
H402 H 0.52504 0.97348 0.58337 0.0
C403 C 0.44778 0.98403 0.39236 0.0
C404 C 0.48403 0.99807 0.47047 0.0
H405 H 0.52283 0.98326 0.47978 0.0
C406 C 0.48375 0.00735 0.5154 0.0
C407 C 0.4983 0.98936 0.45718 0.0
C408 C 0.49949 0.97977 0.40822 0.0
C409 C 0.49732 0.00794 0.54791 0.0
C410 C 0.5116 0.99925 0.53456 0.0
C411 C 0.51186 0.98994 0.48972 0.0
C412 C 0.52626 -0.00068 0.56738 0.0
C413 C 0.49618 0.01759 0.59675 0.0
C414 C 0.53494 0.0138 0.57631 0.0
C415 C 0.54843 0.01383 0.60895 0.0
C416 C 0.55341 -0.00065 0.63301 0.0
C417 C 0.54496 0.9848 0.62275 0.0
C418 C 0.53154 0.98479 0.59008 0.0
H419 H 0.48334 0.02049 0.60686 0.0
H420 H 0.50183 0.01081 0.62884 0.0
H421 H 0.50287 0.02927 0.59214 0.0
H422 H 0.5312 0.0251 0.55835 0.0
H423 H 0.55474 0.0252 0.6161 0.0
H424 H 0.22433 0.19924 0.60791 0.0
H425 H 0.22441 0.22206 0.66771 0.0
H426 H 0.27538 0.21371 0.6988 0.0
H427 H 0.27537 0.19063 0.63916 0.0
H428 H 0.2558 0.21998 0.78675 0.0
H429 H 0.24605 0.26615 0.63492 0.0
H430 H 0.23134 0.24992 0.63541 0.0
H431 H 0.25234 0.2455 0.62132 0.0
C432 C 0.23555 0.20217 0.62771 0.0
C433 C 0.24989 0.19324 0.61862 0.0
C434 C 0.23558 0.21527 0.66161 0.0
C435 C 0.24998 0.21975 0.68674 0.0
C436 C 0.26418 0.21049 0.67935 0.0
H437 H 0.27523 0.29695 0.89824 0.0
H438 H 0.27536 0.27364 0.84026 0.0
C439 C 0.26415 0.19732 0.64541 0.0
C440 C 0.25018 0.23426 0.72022 0.0
H441 H 0.24425 0.27548 0.72035 0.0
C442 C 0.25337 0.23213 0.77229 0.0
C443 C 0.24697 0.25007 0.70107 0.0
C444 C 0.24412 0.25313 0.64505 0.0
C445 C 0.25311 0.2454 0.80605 0.0
C446 C 0.24984 0.26121 0.78691 0.0
C447 C 0.24669 0.26333 0.73483 0.0
C448 C 0.24985 0.27573 0.82034 0.0
C449 C 0.25597 0.24236 0.86207 0.0
C450 C 0.23559 0.28498 0.82679 0.0
C451 C 0.23549 0.29841 0.85967 0.0
C452 C 0.24969 0.30281 0.8863 0.0
C453 C 0.26406 0.2938 0.87846 0.0
C454 C 0.26415 0.28041 0.84565 0.0
H455 H 0.25415 0.22933 0.8722 0.0
H456 H 0.26872 0.24568 0.87173 0.0
H457 H 0.24769 0.24993 0.88578 0.0
H458 H 0.22446 0.2816 0.80718 0.0
H459 H 0.22425 0.30514 0.86496 0.0
H460 H 0.04671 0.97431 0.84915 0.0
H461 H 0.0238 0.97431 0.90866 0.0
H462 H 0.03378 0.02449 0.94687 0.0
H463 H 0.05695 0.02454 0.88764 0.0
H464 H 0.02737 0.00422 0.03178 0.0
H465 H 0.98013 0.99718 0.88176 0.0
H466 H 0.99591 0.98201 0.87995 0.0
H467 H 0.00088 0.00299 0.86755 0.0
C468 C 0.04408 0.98534 0.87035 0.0
C469 C 0.05355 -0.00053 0.86355 0.0
C470 C 0.03093 0.98534 0.90407 0.0
C471 C 0.02692 -0.00051 0.93128 0.0
C472 C 0.03663 0.01348 0.92581 0.0
H473 H 0.95173 0.02507 0.14871 0.0
H474 H 0.97464 0.0249 0.08923 0.0
C475 C 0.04985 0.01349 0.89208 0.0
C476 C 0.01259 -0.00037 0.96554 0.0
H477 H 0.97123 0.99477 0.96753 0.0
C478 C 0.01508 0.00224 0.01778 0.0
C479 C 0.99659 0.99699 0.94703 0.0
C480 C 0.99314 0.99478 0.89095 0.0
C481 C 0.00201 0.00201 0.05225 0.0
C482 C 0.98602 -0.00063 0.03373 0.0
C483 C 0.98352 0.99674 0.98151 0.0
C484 C 0.97169 -0.00042 0.06797 0.0
C485 C 0.00544 0.00429 0.10831 0.0
C486 C 0.9621 0.98554 0.07424 0.0
C487 C 0.9489 0.98562 0.10803 0.0
C488 C 0.94508 -0.00022 0.13575 0.0
C489 C 0.95443 0.01394 0.12812 0.0
C490 C 0.96758 0.01385 0.09441 0.0
H491 H 0.01846 0.00201 0.11754 0.0
H492 H 0.00253 0.01703 0.11926 0.0
H493 H 0.99777 0.99601 0.13172 0.0
H494 H 0.96503 0.97444 0.05378 0.0
H495 H 0.94189 0.97454 0.11313 0.0
H496 H 0.73898 0.68223 0.8328 0.0
H497 H 0.74099 0.7043 0.76986 0.0
H498 H 0.75925 0.7366 0.88659 0.0
H499 H 0.75822 0.7144 0.94833 0.0
H500 H 0.72717 0.73213 0.76016 0.0
H501 H 0.79295 0.74425 0.78213 0.0
H502 H 0.78326 0.72681 0.81097 0.0
H503 H 0.78287 0.74641 0.84227 0.0
C504 C 0.74349 0.69404 0.84471 0.0
C505 C 0.74864 0.69661 0.89506 0.0
C506 C 0.74465 0.70663 0.80885 0.0
C507 C 0.75074 0.72202 0.82308 0.0
C508 C 0.75519 0.7247 0.87406 0.0
H509 H 0.73112 0.81128 0.65757 0.0
H510 H 0.73118 0.78814 0.71635 0.0
C511 C 0.75443 0.71205 0.90945 0.0
C512 C 0.75197 0.73544 0.78528 0.0
H513 H 0.77725 0.76558 0.7427 0.0
C514 C 0.73819 0.73932 0.75592 0.0
C515 C 0.76646 0.74462 0.77868 0.0
C516 C 0.78225 0.74017 0.80479 0.0
C517 C 0.73834 0.75239 0.7214 0.0
C518 C 0.7524 0.76237 0.71792 0.0
C519 C 0.76634 0.75818 0.74608 0.0
C520 C 0.753 0.77709 0.68496 0.0
C521 C 0.72349 0.75506 0.68839 0.0
C522 C 0.76585 0.77924 0.65012 0.0
C523 C 0.76616 0.79281 0.61792 0.0
C524 C 0.75349 0.80431 0.61948 0.0
C525 C 0.74094 0.80247 0.65535 0.0
C526 C 0.74086 0.78914 0.68845 0.0
H527 H 0.71659 0.74353 0.68277 0.0
H528 H 0.7152 0.76385 0.70742 0.0
H529 H 0.72686 0.75997 0.65039 0.0
H530 H 0.77544 0.77021 0.64695 0.0
H531 H 0.77594 0.79394 0.59036 0.0
H532 H 0.77559 0.30673 0.36364 0.0
H533 H 0.77566 0.28386 0.30337 0.0
H534 H 0.72461 0.27553 0.33336 0.0
H535 H 0.72448 0.29816 0.39387 0.0
H536 H 0.74386 0.24743 0.34033 0.0
H537 H 0.75555 0.28106 0.16014 0.0
H538 H 0.76983 0.28513 0.21051 0.0
H539 H 0.74887 0.2911 0.21772 0.0
C540 C 0.76436 0.30013 0.35689 0.0
C541 C 0.75004 0.30423 0.38337 0.0
C542 C 0.76439 0.28712 0.32237 0.0
C543 C 0.75009 0.27812 0.31362 0.0
C544 C 0.73575 0.28236 0.33953 0.0
H545 H 0.72408 0.19278 0.1339 0.0
H546 H 0.72421 0.21577 0.19369 0.0
C547 C 0.73571 0.29531 0.37399 0.0
C548 C 0.75016 0.26381 0.27928 0.0
H549 H 0.7561 0.2522 0.1558 0.0
C550 C 0.74648 0.24845 0.29993 0.0
C551 C 0.75361 0.26523 0.22669 0.0
C552 C 0.75706 0.28152 0.2022 0.0
C553 C 0.74637 0.23439 0.26947 0.0
C554 C 0.74978 0.23582 0.21685 0.0
C555 C 0.75349 0.25117 0.19621 0.0
C556 C 0.74973 0.22151 0.18246 0.0
C557 C 0.74296 0.21811 0.29403 0.0
C558 C 0.76397 0.21726 0.15605 0.0
C559 C 0.76391 0.20425 0.12182 0.0
C560 C 0.74956 0.19527 0.1132 0.0
C561 C 0.73533 0.19942 0.14008 0.0
C562 C 0.7354 0.21249 0.17433 0.0
H563 H 0.74465 0.21855 0.33603 0.0
H564 H 0.73013 0.21457 0.28628 0.0
H565 H 0.75103 0.20849 0.27816 0.0
H566 H 0.77513 0.2241 0.16172 0.0
H567 H 0.77506 0.20136 0.1016 0.0
H568 H 0.72387 0.20075 0.89336 0.0
H569 H 0.72413 0.2234 0.83291 0.0
H570 H 0.77513 0.21476 0.80287 0.0
H571 H 0.77493 0.19188 0.86305 0.0
H572 H 0.74351 0.25135 0.84013 0.0
H573 H 0.75513 0.21784 0.65967 0.0
H574 H 0.74838 0.20778 0.71714 0.0
H575 H 0.76938 0.21364 0.71 0.0
C576 C 0.73511 0.20354 0.87347 0.0
C577 C 0.74939 0.19453 0.88282 0.0
C578 C 0.73523 0.2165 0.83904 0.0
C579 C 0.7496 0.22065 0.81315 0.0
C580 C 0.76384 0.21156 0.82185 0.0
H581 H 0.77543 0.29745 0.6024 0.0
H582 H 0.77524 0.27465 0.66234 0.0
C583 C 0.76373 0.19854 0.85632 0.0
C584 C 0.74977 0.23499 0.77895 0.0
H585 H 0.75597 0.24671 0.65571 0.0
C586 C 0.74617 0.25035 0.79975 0.0
C587 C 0.75327 0.23361 0.72639 0.0
C588 C 0.75663 0.21732 0.70173 0.0
C589 C 0.74622 0.26445 0.76947 0.0
C590 C 0.7497 0.26307 0.71689 0.0
C591 C 0.75332 0.24771 0.69609 0.0
C592 C 0.74982 0.27742 0.68269 0.0
C593 C 0.7429 0.28074 0.79419 0.0
C594 C 0.73558 0.28655 0.67443 0.0
C595 C 0.73565 0.29965 0.64028 0.0
C596 C 0.74995 0.30371 0.61365 0.0
C597 C 0.76422 0.29463 0.62243 0.0
C598 C 0.76414 0.28158 0.65656 0.0
H599 H 0.74451 0.28022 0.83621 0.0
H600 H 0.75107 0.29031 0.77857 0.0
H601 H 0.73011 0.28439 0.78627 0.0
H602 H 0.72432 0.28334 0.69357 0.0
H603 H 0.72446 0.30637 0.63397 0.0
H604 H 0.72022 0.69748 0.11419 0.0
H605 H 0.71946 0.72035 0.174 0.0
H606 H 0.77063 0.71369 0.20566 0.0
H607 H 0.77156 0.69085 0.14542 0.0
H608 H 0.72797 0.72249 0.27936 0.0
H609 H 0.76695 0.76151 0.15635 0.0
H610 H 0.75736 0.7431 0.13341 0.0
H611 H 0.77549 0.74194 0.17168 0.0
C612 C 0.73129 0.70078 0.13423 0.0
C613 C 0.74599 0.69247 0.12488 0.0
C614 C 0.73082 0.71384 0.16836 0.0
C615 C 0.74504 0.71885 0.19347 0.0
C616 C 0.75959 0.71016 0.18587 0.0
H617 H 0.77213 0.79591 0.39715 0.0
H618 H 0.77043 0.77268 0.33938 0.0
C619 C 0.76008 0.69707 0.15175 0.0
C620 C 0.74473 0.73348 0.22641 0.0
H621 H 0.76045 0.77182 0.2382 0.0
C622 C 0.73499 0.73332 0.27038 0.0
C623 C 0.75383 0.74759 0.21416 0.0
C624 C 0.7639 0.74869 0.16612 0.0
C625 C 0.73452 0.74678 0.30345 0.0
C626 C 0.74381 0.76081 0.29155 0.0
C627 C 0.75334 0.76103 0.24715 0.0
C628 C 0.74452 0.7751 0.32593 0.0
C629 C 0.72451 0.74568 0.35159 0.0
C630 C 0.73052 0.78433 0.33687 0.0
C631 C 0.73144 0.79767 0.37008 0.0
C632 C 0.7464 0.80198 0.39248 0.0
C633 C 0.76042 0.79289 0.38053 0.0
C634 C 0.75948 0.7796 0.34753 0.0
H635 H 0.72104 0.7329 0.36058 0.0
H636 H 0.73131 0.75081 0.3845 0.0
H637 H 0.71315 0.75286 0.34675 0.0
H638 H 0.71891 0.78123 0.31975 0.0
H639 H 0.72045 0.8045 0.37852 0.0
H640 H 0.54713 0.52352 0.14373 0.0
H641 H 0.5243 0.52321 0.08399 0.0
H642 H 0.53267 0.47214 0.05468 0.0
H643 H 0.55553 0.47229 0.11503 0.0
H644 H 0.52355 0.5147 0.97981 0.0
H645 H 0.48426 0.47424 0.09746 0.0
H646 H 0.50215 0.48422 0.12266 0.0
H647 H 0.50422 0.46637 0.08348 0.0
C648 C 0.54417 0.51222 0.12445 0.0
C649 C 0.55305 0.49789 0.13423 0.0
C650 C 0.53113 0.51208 0.09034 0.0
C651 C 0.52667 0.49761 0.06561 0.0
C652 C 0.53577 0.48336 0.07416 0.0
H653 H 0.45022 0.47339 0.85208 0.0
H654 H 0.47323 0.47333 0.9112 0.0
C655 C 0.54886 0.48349 0.10833 0.0
C656 C 0.5124 0.49752 0.03114 0.0
H657 H 0.47425 0.48158 0.01606 0.0
C658 C 0.51275 0.50749 0.9877 0.0
C659 C 0.49834 0.48813 0.04179 0.0
C660 C 0.49708 0.47772 0.08907 0.0
C661 C 0.49947 0.50813 0.95407 0.0
C662 C 0.4854 0.49877 0.96479 0.0
C663 C 0.48506 0.48877 0.00815 0.0
C664 C 0.47105 0.49887 0.93068 0.0
C665 C 0.50072 0.51856 0.90683 0.0
C666 C 0.46199 0.51319 0.92297 0.0
C667 C 0.44879 0.51327 0.88922 0.0
C668 C 0.44445 0.499 0.86285 0.0
C669 C 0.45329 0.48459 0.87176 0.0
C670 C 0.46644 0.48452 0.9055 0.0
H671 H 0.51354 0.52198 0.8983 0.0
H672 H 0.49556 0.51211 0.87328 0.0
H673 H 0.49363 0.52994 0.9126 0.0
H674 H 0.4652 0.52432 0.94281 0.0
H675 H 0.44216 0.52453 0.88319 0.0
H676 H 0.05675 0.47379 0.3875 0.0
H677 H 0.03358 0.4738 0.44682 0.0
H678 H 0.02566 0.52491 0.41691 0.0
H679 H 0.0486 0.52499 0.35755 0.0
H680 H 0.02757 0.49363 0.53543 0.0
H681 H 0.98136 0.50332 0.3836 0.0
H682 H 0.00194 0.49678 0.37007 0.0
H683 H 0.99776 0.51784 0.38384 0.0
C684 C 0.05013 0.48504 0.39392 0.0
C685 C 0.05439 0.49936 0.36767 0.0
C686 C 0.03692 0.48502 0.42768 0.0
C687 C 0.02776 0.49928 0.43536 0.0
C688 C 0.03238 0.51371 0.41063 0.0
H689 H 0.9424 0.52516 0.61371 0.0
H690 H 0.96585 0.5249 0.55557 0.0
C691 C 0.04555 0.51374 0.37699 0.0
C692 C 0.01326 0.49912 0.46887 0.0
H693 H 0.97203 0.50503 0.46903 0.0
C694 C 0.0154 0.49602 0.52098 0.0
C695 C 0.99745 0.50231 0.44973 0.0
C696 C 0.99439 0.50512 0.39368 0.0
C697 C 0.00214 0.49634 0.55478 0.0
C698 C 0.98633 0.49955 0.53564 0.0
C699 C 0.98419 0.50262 0.48351 0.0
C700 C 0.97182 0.49956 0.56913 0.0
C701 C 0.00522 0.49359 0.61084 0.0
C702 C 0.9672 0.48529 0.59479 0.0
C703 C 0.95387 0.48541 0.62783 0.0
C704 C 0.94484 0.49978 0.63555 0.0
C705 C 0.94915 0.51393 0.60853 0.0
C706 C 0.96253 0.5138 0.57544 0.0
H707 H 0.01825 0.49549 0.62089 0.0
H708 H 0.99763 0.50189 0.63443 0.0
H709 H 0.00195 0.48085 0.62076 0.0
H710 H 0.974 0.47409 0.58954 0.0
H711 H 0.95079 0.47428 0.64789 0.0
H712 H 0.05711 0.52328 0.11025 0.0
H713 H 0.03391 0.52346 0.05117 0.0
H714 H 0.02215 0.4741 0.09445 0.0
H715 H 0.04509 0.47388 0.15381 0.0
H716 H 0.02686 0.50248 0.96837 0.0
H717 H 0.97931 0.49886 0.11871 0.0
H718 H 0.00024 0.50409 0.13242 0.0
H719 H 0.99455 0.48317 0.12227 0.0
C720 C 0.0496 0.51246 0.10698 0.0
C721 C 0.05283 0.49861 0.13683 0.0
C722 C 0.03638 0.51259 0.07333 0.0
C723 C 0.02617 0.4989 0.06928 0.0
C724 C 0.02968 0.4849 0.09791 0.0
H725 H 0.94051 0.47537 0.88842 0.0
H726 H 0.96358 0.47488 0.948 0.0
C727 C 0.04285 0.48477 0.13153 0.0
C728 C 0.01188 0.49919 0.03494 0.0
H729 H 0.97036 0.49592 0.03317 0.0
C730 C 0.0145 0.50113 0.98248 0.0
C731 C 0.99579 0.49737 0.05362 0.0
C732 C 0.99223 0.4959 0.10987 0.0
C733 C 0.00144 0.50104 0.94797 0.0
C734 C 0.98535 0.49923 0.96666 0.0
C735 C 0.98273 0.49726 0.01909 0.0
C736 C 0.97108 0.49968 0.93232 0.0
C737 C 0.00496 0.50261 0.89173 0.0
C738 C 0.96748 0.51391 0.90496 0.0
C739 C 0.95436 0.51423 0.87116 0.0
C740 C 0.94455 0.50034 0.86431 0.0
C741 C 0.94788 0.48624 0.8929 0.0
C742 C 0.96103 0.48594 0.92682 0.0
H743 H 0.01791 0.49982 0.8828 0.0
H744 H 0.99703 0.49433 0.86917 0.0
H745 H 0.00245 0.51531 0.87943 0.0
H746 H 0.9749 0.52474 0.90949 0.0
H747 H 0.95204 0.52531 0.84986 0.0
H748 H 0.44112 0.47429 0.61226 0.0
H749 H 0.46425 0.47426 0.55287 0.0
H750 H 0.47288 0.5251 0.58514 0.0
H751 H 0.44999 0.52521 0.6447 0.0
H752 H 0.47023 0.49399 0.4654 0.0
H753 H 0.51706 0.5033 0.61557 0.0
H754 H 0.49644 0.49707 0.62989 0.0
H755 H 0.50087 0.51806 0.61582 0.0
C756 C 0.4479 0.48547 0.60642 0.0
C757 C 0.44383 0.49972 0.63333 0.0
C758 C 0.4611 0.48543 0.57261 0.0
C759 C 0.47043 0.4996 0.56548 0.0
C760 C 0.46604 0.51396 0.591 0.0
H761 H 0.55557 0.52413 0.38336 0.0
H762 H 0.53225 0.52448 0.44205 0.0
C763 C 0.45289 0.51401 0.62475 0.0
C764 C 0.48481 0.49941 0.53146 0.0
H765 H 0.52609 0.50491 0.52983 0.0
C766 C 0.48246 0.4963 0.47944 0.0
C767 C 0.50072 0.50248 0.55003 0.0
C768 C 0.50401 0.50528 0.60595 0.0
C769 C 0.4956 0.49643 0.4452 0.0
C770 C 0.51151 0.49949 0.46378 0.0
C771 C 0.51386 0.50262 0.51579 0.0
C772 C 0.52592 0.49916 0.42987 0.0
C773 C 0.49232 0.49361 0.38929 0.0
C774 C 0.53027 0.4847 0.40479 0.0
C775 C 0.54352 0.48446 0.37148 0.0
C776 C 0.55273 0.49866 0.36287 0.0
C777 C 0.54867 0.51302 0.38923 0.0
C778 C 0.53537 0.51324 0.42264 0.0
H779 H 0.47929 0.49565 0.37961 0.0
H780 H 0.49994 0.50177 0.36532 0.0
H781 H 0.49541 0.48081 0.37952 0.0
H782 H 0.52333 0.47362 0.41075 0.0
H783 H 0.54641 0.47319 0.35193 0.0
H784 H 0.1186 0.44766 0.26257 0.0
H785 H 0.13806 0.42737 0.23062 0.0
H786 H 0.14464 0.45567 0.09361 0.0
H787 H 0.12544 0.47606 0.12547 0.0
H788 H 0.13736 0.40867 0.14074 0.0
H789 H 0.19128 0.44957 0.1463 0.0
H790 H 0.1724 0.45441 0.17828 0.0
H791 H 0.17436 0.45757 0.11075 0.0
C792 C 0.12422 0.44955 0.22568 0.0
C793 C 0.12061 0.4635 0.19668 0.0
C794 C 0.1353 0.43795 0.20746 0.0
C795 C 0.14296 0.44016 0.16012 0.0
C796 C 0.1391 0.45391 0.13068 0.0
H797 H 0.19716 0.36791 0.98412 0.0
H798 H 0.17659 0.38722 0.01518 0.0
C799 C 0.12808 0.46551 0.14887 0.0
C800 C 0.15501 0.42811 0.14144 0.0
H801 H 0.1948 0.424 0.10543 0.0
C802 C 0.14993 0.41198 0.13311 0.0
C803 C 0.17143 0.43246 0.13208 0.0
C804 C 0.17778 0.4494 0.14273 0.0
C805 C 0.16083 0.4001 0.11501 0.0
C806 C 0.17714 0.40457 0.10431 0.0
C807 C 0.18224 0.42065 0.1132 0.0
C808 C 0.18931 0.39265 0.08546 0.0
C809 C 0.15488 0.38281 0.10846 0.0
C810 C 0.20341 0.38958 0.11414 0.0
C811 C 0.2152 0.3787 0.09634 0.0
C812 C 0.21314 0.37072 0.04939 0.0
C813 C 0.19903 0.37383 0.02056 0.0
C814 C 0.18723 0.38477 0.03839 0.0
H815 H 0.14343 0.38056 0.12998 0.0
H816 H 0.1524 0.38051 0.06752 0.0
H817 H 0.16424 0.37393 0.12135 0.0
H818 H 0.20528 0.39559 0.15046 0.0
H819 H 0.22594 0.37657 0.11943 0.0
H820 H 0.79924 0.872 0.51906 0.0
H821 H 0.81925 0.89168 0.48672 0.0
H822 H 0.79465 0.89235 0.34146 0.0
H823 H 0.77449 0.87295 0.37367 0.0
H824 H 0.84045 0.88946 0.40359 0.0
H825 H 0.79675 0.9406 0.37968 0.0
H826 H 0.7919 0.92252 0.41587 0.0
H827 H 0.79085 0.92222 0.34743 0.0
C828 C 0.7981 0.87638 0.48027 0.0
C829 C 0.78524 0.87105 0.44901 0.0
C830 C 0.80953 0.88758 0.46185 0.0
C831 C 0.80826 0.89365 0.41198 0.0
C832 C 0.79564 0.88808 0.3804 0.0
H833 H 0.88238 0.94662 0.24024 0.0
H834 H 0.8631 0.92607 0.2716 0.0
C835 C 0.78418 0.87694 0.39881 0.0
C836 C 0.82016 0.90578 0.39289 0.0
H837 H 0.82327 0.94443 0.34552 0.0
C838 C 0.83673 0.9015 0.39097 0.0
C839 C 0.81526 0.92152 0.37698 0.0
C840 C 0.79774 0.92709 0.38047 0.0
C841 C 0.84852 0.9125 0.37294 0.0
C842 C 0.84354 0.92807 0.35579 0.0
C843 C 0.82701 0.93241 0.35824 0.0
C844 C 0.85535 0.9403 0.33674 0.0
C845 C 0.86623 0.90749 0.37331 0.0
C846 C 0.85711 0.95519 0.36242 0.0
C847 C 0.86802 0.96694 0.34452 0.0
C848 C 0.87729 0.96404 0.30038 0.0
C849 C 0.87543 0.94916 0.27445 0.0
C850 C 0.86451 0.93738 0.29246 0.0
H851 H 0.86838 0.89676 0.3983 0.0
H852 H 0.87001 0.90418 0.33404 0.0
H853 H 0.87409 0.91769 0.38641 0.0
H854 H 0.85009 0.95769 0.39653 0.0
H855 H 0.86916 0.9783 0.36528 0.0
H856 H 0.27097 0.62319 0.62363 0.0
H857 H 0.29134 0.60431 0.65742 0.0
H858 H 0.32011 0.61017 0.521 0.0
H859 H 0.29987 0.62933 0.48722 0.0
H860 H 0.30129 0.57515 0.61722 0.0
H861 H 0.35356 0.61781 0.63377 0.0
H862 H 0.33287 0.62472 0.62424 0.0
H863 H 0.3446 0.61717 0.57135 0.0
C864 C 0.28168 0.62053 0.6009 0.0
C865 C 0.28386 0.62776 0.55283 0.0
C866 C 0.2933 0.60974 0.62028 0.0
C867 C 0.30734 0.60602 0.59206 0.0
C868 C 0.30953 0.61315 0.54388 0.0
H869 H 0.36973 0.52202 0.63162 0.0
H870 H 0.35024 0.54251 0.60226 0.0
C871 C 0.29791 0.624 0.52449 0.0
C872 C 0.31934 0.59417 0.61237 0.0
H873 H 0.35934 0.58961 0.64567 0.0
C874 C 0.31397 0.57832 0.62363 0.0
C875 C 0.33581 0.59842 0.62138 0.0
C876 C 0.34206 0.6155 0.61255 0.0
C877 C 0.32471 0.5665 0.64276 0.0
C878 C 0.34131 0.57056 0.64991 0.0
C879 C 0.34662 0.5865 0.63967 0.0
C880 C 0.35338 0.55835 0.66747 0.0
C881 C 0.31812 0.54982 0.6557 0.0
C882 C 0.36194 0.5607 0.71322 0.0
C883 C 0.37318 0.54905 0.72999 0.0
C884 C 0.37608 0.53491 0.70109 0.0
C885 C 0.36766 0.53273 0.65493 0.0
C886 C 0.35647 0.54438 0.63819 0.0
H887 H 0.30469 0.55005 0.66143 0.0
H888 H 0.32078 0.54132 0.62383 0.0
H889 H 0.32394 0.54492 0.69072 0.0
H890 H 0.35977 0.57147 0.73619 0.0
H891 H 0.37954 0.55107 0.76562 0.0
H892 H 0.69721 0.13091 0.01267 0.0
H893 H 0.67681 0.11136 0.98191 0.0
H894 H 0.70658 0.10148 0.84993 0.0
H895 H 0.72706 0.12075 0.88064 0.0
H896 H 0.65925 0.11094 0.89 0.0
H897 H 0.69836 0.05607 0.90934 0.0
H898 H 0.70339 0.07534 0.93871 0.0
H899 H 0.70743 0.07205 0.87212 0.0
C900 C 0.69941 0.12453 0.97718 0.0
C901 C 0.71378 0.12725 0.94925 0.0
C902 C 0.68775 0.11341 0.95963 0.0
C903 C 0.69032 0.10481 0.91406 0.0
C904 C 0.70452 0.10774 0.88571 0.0
H905 H 0.61954 0.05085 0.73284 0.0
H906 H 0.63866 0.07127 0.76593 0.0
C907 C 0.71617 0.11881 0.90322 0.0
C908 C 0.67815 0.0928 0.89585 0.0
H909 H 0.67351 0.05273 0.86395 0.0
C910 C 0.66232 0.09819 0.8845 0.0
C911 C 0.68215 0.07616 0.88931 0.0
C912 C 0.69871 0.06949 0.90345 0.0
C913 C 0.65043 0.0874 0.86583 0.0
C914 C 0.65462 0.07087 0.85758 0.0
C915 C 0.67038 0.06545 0.86978 0.0
C916 C 0.64276 0.05882 0.83757 0.0
C917 C 0.63344 0.09373 0.85595 0.0
C918 C 0.63902 0.0449 0.86634 0.0
C919 C 0.62829 0.03318 0.84733 0.0
C920 C 0.62109 0.03513 0.79911 0.0
C921 C 0.62484 0.04907 0.77024 0.0
C922 C 0.63566 0.06079 0.78924 0.0
H923 H 0.63111 0.10534 0.87658 0.0
H924 H 0.63198 0.0961 0.81457 0.0
H925 H 0.6241 0.08466 0.8676 0.0
H926 H 0.64441 0.04311 0.90362 0.0
H927 H 0.62563 0.02257 0.87051 0.0
H928 H 0.13494 0.51878 0.34532 0.0
H929 H 0.15332 0.53994 0.37678 0.0
H930 H 0.12793 0.57589 0.2866 0.0
H931 H 0.1098 0.55459 0.25359 0.0
H932 H 0.1601 0.57981 0.27964 0.0
H933 H 0.14351 0.57377 0.48305 0.0
H934 H 0.15028 0.55475 0.45681 0.0
H935 H 0.13194 0.56414 0.43291 0.0
C936 C 0.13326 0.5312 0.33221 0.0
C937 C 0.12089 0.53507 0.29722 0.0
C938 C 0.14369 0.54331 0.35057 0.0
C939 C 0.14174 0.55958 0.33508 0.0
C940 C 0.12956 0.56343 0.29942 0.0
H941 H 0.1931 0.63873 0.4912 0.0
H942 H 0.17196 0.62054 0.45759 0.0
C943 C 0.11923 0.55127 0.28057 0.0
C944 C 0.15275 0.57243 0.35502 0.0
H945 H 0.16816 0.58842 0.46508 0.0
C946 C 0.16174 0.58181 0.32019 0.0
C947 C 0.15466 0.57529 0.40791 0.0
C948 C 0.14444 0.56657 0.44727 0.0
C949 C 0.17302 0.59354 0.3368 0.0
C950 C 0.17571 0.5956 0.38971 0.0
C951 C 0.16628 0.58666 0.42453 0.0
C952 C 0.18846 0.60672 0.40975 0.0
C953 C 0.18179 0.60368 0.29741 0.0
C954 C 0.20479 0.6048 0.39476 0.0
C955 C 0.21681 0.61526 0.41346 0.0
C956 C 0.2128 0.62764 0.4483 0.0
C957 C 0.19654 0.6293 0.46435 0.0
C958 C 0.18446 0.61893 0.44516 0.0
H959 H 0.17468 0.6045 0.26145 0.0
H960 H 0.18415 0.61623 0.31153 0.0
H961 H 0.19366 0.59787 0.28829 0.0
H962 H 0.20826 0.59516 0.36875 0.0
H963 H 0.22928 0.61359 0.4008 0.0
H964 H 0.62716 0.97762 0.62384 0.0
H965 H 0.6462 0.95722 0.59112 0.0
H966 H 0.63851 0.92785 0.72537 0.0
H967 H 0.61915 0.9481 0.75798 0.0
H968 H 0.67471 0.94676 0.63287 0.0
H969 H 0.63177 0.89496 0.61101 0.0
H970 H 0.62495 0.91564 0.62111 0.0
H971 H 0.63198 0.90356 0.67393 0.0
C972 C 0.62945 0.96677 0.64631 0.0
C973 C 0.62163 0.96442 0.69342 0.0
C974 C 0.64033 0.95513 0.62755 0.0
C975 C 0.64359 0.94091 0.65543 0.0
C976 C 0.63589 0.93857 0.7027 0.0
H977 H 0.72763 0.8782 0.61876 0.0
H978 H 0.70715 0.89779 0.64754 0.0
C979 C 0.62493 0.95019 0.72144 0.0
C980 C 0.65551 0.92887 0.63572 0.0
H981 H 0.66001 0.88894 0.60144 0.0
C982 C 0.67148 0.93413 0.62581 0.0
C983 C 0.6512 0.91246 0.62582 0.0
C984 C 0.63401 0.90632 0.63301 0.0
C985 C 0.68336 0.92337 0.60713 0.0
C986 C 0.67923 0.90682 0.59914 0.0
C987 C 0.66318 0.90161 0.60808 0.0
C988 C 0.69146 0.89471 0.58193 0.0
C989 C 0.70017 0.9299 0.59543 0.0
C990 C 0.6892 0.88611 0.53618 0.0
C991 C 0.70083 0.87478 0.5198 0.0
C992 C 0.71489 0.87185 0.54905 0.0
C993 C 0.717 0.88031 0.59517 0.0
C994 C 0.70535 0.89157 0.61156 0.0
H995 H 0.70001 0.94333 0.58972 0.0
H996 H 0.70839 0.92723 0.62795 0.0
H997 H 0.70532 0.92407 0.56078 0.0
H998 H 0.6785 0.8883 0.51292 0.0
H999 H 0.69886 0.8684 0.48419 0.0
H1000 H 0.37141 0.47669 0.87122 0.0
H1001 H 0.35249 0.45613 0.90347 0.0
H1002 H 0.35988 0.42738 0.76772 0.0
H1003 H 0.37909 0.44784 0.73547 0.0
H1004 H 0.3238 0.44579 0.86066 0.0
H1005 H 0.36707 0.39414 0.8817 0.0
H1006 H 0.37376 0.41492 0.87259 0.0
H1007 H 0.36677 0.40308 0.81922 0.0
C1008 C 0.36908 0.46596 0.84829 0.0
C1009 C 0.37676 0.46384 0.80086 0.0
C1010 C 0.35827 0.45422 0.86679 0.0
C1011 C 0.35495 0.44013 0.83833 0.0
C1012 C 0.36253 0.43801 0.79077 0.0
H1013 H 0.27146 0.37674 0.87863 0.0
H1014 H 0.2918 0.39615 0.84783 0.0
C1015 C 0.37341 0.44975 0.77226 0.0
C1016 C 0.34311 0.42801 0.85786 0.0
H1017 H 0.33894 0.38813 0.89307 0.0
C1018 C 0.32711 0.43319 0.86786 0.0
C1019 C 0.34754 0.41164 0.86786 0.0
C1020 C 0.36475 0.4056 0.86028 0.0
C1021 C 0.31534 0.42239 0.88696 0.0
C1022 C 0.31962 0.4059 0.89537 0.0
C1023 C 0.33568 0.40075 0.88614 0.0
C1024 C 0.30754 0.3938 0.91361 0.0
C1025 C 0.2985 0.42881 0.89871 0.0
C1026 C 0.30989 0.3857 0.96017 0.0
C1027 C 0.29832 0.3745 0.97776 0.0
C1028 C 0.28426 0.37119 0.94891 0.0
C1029 C 0.2821 0.37913 0.90192 0.0
C1030 C 0.29367 0.39028 0.88435 0.0
H1031 H 0.29848 0.44228 0.90334 0.0
H1032 H 0.29018 0.42574 0.86675 0.0
H1033 H 0.29356 0.4232 0.93401 0.0
H1034 H 0.32057 0.3882 0.98316 0.0
H1035 H 0.30033 0.36851 0.01402 0.0
H1036 H 0.77182 0.12252 0.12241 0.0
H1037 H 0.79231 0.1036 0.15514 0.0
H1038 H 0.82098 0.11034 0.01889 0.0
H1039 H 0.8006 0.12956 0.98619 0.0
H1040 H 0.80246 0.07473 0.11382 0.0
H1041 H 0.85442 0.11773 0.13171 0.0
H1042 H 0.83369 0.12452 0.12244 0.0
H1043 H 0.84545 0.1172 0.06931 0.0
C1044 C 0.78252 0.12004 0.09948 0.0
C1045 C 0.78464 0.12755 0.05179 0.0
C1046 C 0.79422 0.10923 0.11825 0.0
C1047 C 0.80827 0.10574 0.08979 0.0
C1048 C 0.81039 0.11313 0.04196 0.0
H1049 H 0.87127 0.02203 0.13031 0.0
H1050 H 0.85181 0.04239 0.09991 0.0
C1051 C 0.7987 0.12402 0.02319 0.0
C1052 C 0.82036 0.0939 0.10961 0.0
H1053 H 0.86034 0.08957 0.14349 0.0
C1054 C 0.81511 0.07799 0.12044 0.0
C1055 C 0.8368 0.09825 0.11889 0.0
C1056 C 0.84293 0.11539 0.11048 0.0
C1057 C 0.82589 0.06621 0.13958 0.0
C1058 C 0.84245 0.07039 0.14716 0.0
C1059 C 0.84767 0.08638 0.13718 0.0
C1060 C 0.85454 0.05829 0.1652 0.0
C1061 C 0.8194 0.04946 0.15221 0.0
C1062 C 0.86286 0.0607 0.21133 0.0
C1063 C 0.87409 0.04912 0.2287 0.0
C1064 C 0.8772 0.03498 0.20002 0.0
C1065 C 0.86903 0.03274 0.15344 0.0
C1066 C 0.85786 0.04432 0.13611 0.0
H1067 H 0.80595 0.04957 0.1574 0.0
H1068 H 0.82228 0.04101 0.12043 0.0
H1069 H 0.82513 0.04462 0.18744 0.0
H1070 H 0.86052 0.07146 0.23417 0.0
H1071 H 0.88025 0.05118 0.26464 0.0
H1072 H 0.80084 0.63066 0.01775 0.0
H1073 H 0.8216 0.61185 0.98484 0.0
H1074 H 0.79508 0.60783 0.84344 0.0
H1075 H 0.77425 0.62633 0.87619 0.0
H1076 H 0.80357 0.57809 0.88358 0.0
H1077 H 0.85708 0.61956 0.87746 0.0
H1078 H 0.84698 0.61865 0.93817 0.0
H1079 H 0.83643 0.62693 0.88401 0.0
C1080 C 0.79953 0.62585 0.97952 0.0
C1081 C 0.78593 0.62995 0.94956 0.0
C1082 C 0.81144 0.6152 0.96067 0.0
C1083 C 0.80997 0.60861 0.91146 0.0
C1084 C 0.79647 0.61282 0.88143 0.0
H1085 H 0.88143 0.55329 0.7367 0.0
H1086 H 0.86231 0.57404 0.76793 0.0
C1087 C 0.78458 0.6234 0.90024 0.0
C1088 C 0.82198 0.59663 0.89195 0.0
H1089 H 0.86218 0.59144 0.8619 0.0
C1090 C 0.81638 0.58102 0.87873 0.0
C1091 C 0.83864 0.60056 0.88509 0.0
C1092 C 0.84517 0.61737 0.89645 0.0
C1093 C 0.82702 0.56914 0.85943 0.0
C1094 C 0.84376 0.5729 0.85402 0.0
C1095 C 0.84935 0.58858 0.86649 0.0
C1096 C 0.85564 0.56061 0.8358 0.0
C1097 C 0.8202 0.55274 0.84431 0.0
C1098 C 0.85836 0.54635 0.86403 0.0
C1099 C 0.86919 0.53451 0.84628 0.0
C1100 C 0.87758 0.53676 0.8001 0.0
C1101 C 0.87508 0.5512 0.7723 0.0
C1102 C 0.86421 0.56306 0.79012 0.0
H1103 H 0.80679 0.55325 0.8383 0.0
H1104 H 0.82605 0.54821 0.80885 0.0
H1105 H 0.82266 0.54381 0.87513 0.0
H1106 H 0.85208 0.54437 0.89983 0.0
H1107 H 0.87096 0.52357 0.86876 0.0
H1108 H 0.19468 0.13909 0.50884 0.0
H1109 H 0.17342 0.12115 0.54287 0.0
H1110 H 0.20982 0.09434 0.62705 0.0
H1111 H 0.23099 0.11258 0.59471 0.0
H1112 H 0.16861 0.08943 0.53354 0.0
H1113 H 0.1775 0.10344 0.73778 0.0
H1114 H 0.18691 0.1153 0.68791 0.0
H1115 H 0.19601 0.09644 0.70875 0.0
C1116 C 0.19812 0.1294 0.53475 0.0
C1117 C 0.21445 0.12729 0.54947 0.0
C1118 C 0.18597 0.11917 0.5542 0.0
C1119 C 0.18996 0.10663 0.58847 0.0
C1120 C 0.20636 0.10425 0.60202 0.0
H1121 H 0.13453 0.01973 0.65036 0.0
H1122 H 0.15315 0.04067 0.61891 0.0
C1123 C 0.21847 0.11459 0.58314 0.0
C1124 C 0.1771 0.09567 0.60876 0.0
H1125 H 0.16201 0.07937 0.71883 0.0
C1126 C 0.16707 0.08735 0.57408 0.0
C1127 C 0.17483 0.09321 0.66171 0.0
C1128 C 0.18427 0.10271 0.70115 0.0
C1129 C 0.15523 0.07621 0.5908 0.0
C1130 C 0.15373 0.07293 0.64357 0.0
C1131 C 0.16334 0.08169 0.67834 0.0
C1132 C 0.14252 0.06022 0.66338 0.0
C1133 C 0.14436 0.06821 0.55168 0.0
C1134 C 0.13079 0.06408 0.70048 0.0
C1135 C 0.1203 0.05204 0.71928 0.0
C1136 C 0.12138 0.03595 0.70116 0.0
C1137 C 0.1333 0.03207 0.66465 0.0
C1138 C 0.14387 0.04405 0.64631 0.0
H1139 H 0.14332 0.07577 0.5167 0.0
H1140 H 0.14972 0.0563 0.5405 0.0
H1141 H 0.13193 0.06603 0.56704 0.0
H1142 H 0.12963 0.07646 0.71453 0.0
H1143 H 0.11124 0.05536 0.74746 0.0
H1144 H 0.69782 0.36789 0.51158 0.0
H1145 H 0.67724 0.38701 0.47952 0.0
H1146 H 0.70722 0.39675 0.34789 0.0
H1147 H 0.72789 0.37792 0.37998 0.0
H1148 H 0.69559 0.42465 0.39283 0.0
H1149 H 0.64551 0.38024 0.36114 0.0
H1150 H 0.65375 0.38003 0.42455 0.0
H1151 H 0.66636 0.37403 0.37172 0.0
C1152 C 0.69998 0.37408 0.47575 0.0
C1153 C 0.71444 0.3714 0.44823 0.0
C1154 C 0.68818 0.38491 0.45732 0.0
C1155 C 0.6906 0.3931 0.41095 0.0
C1156 C 0.70508 0.39049 0.38363 0.0
H1157 H 0.61923 0.4475 0.23372 0.0
H1158 H 0.63911 0.42746 0.26478 0.0
C1159 C 0.71687 0.37973 0.40203 0.0
C1160 C 0.67836 0.40484 0.39146 0.0
H1161 H 0.6388 0.4083 0.35229 0.0
C1162 C 0.68318 0.42108 0.38386 0.0
C1163 C 0.66226 0.40008 0.37913 0.0
C1164 C 0.65665 0.38262 0.38405 0.0
C1165 C 0.67227 0.43276 0.36486 0.0
C1166 C 0.656 0.42813 0.35413 0.0
C1167 C 0.65124 0.41183 0.361 0.0
C1168 C 0.64377 0.44006 0.33579 0.0
C1169 C 0.67834 0.44989 0.35565 0.0
C1170 C 0.63965 0.4536 0.36578 0.0
C1171 C 0.62842 0.46507 0.34806 0.0
C1172 C 0.62096 0.46311 0.30021 0.0
C1173 C 0.62483 0.44935 0.27066 0.0
C1174 C 0.63614 0.4379 0.28836 0.0
H1175 H 0.69184 0.45029 0.35226 0.0
H1176 H 0.67293 0.45511 0.32046 0.0
H1177 H 0.67478 0.45773 0.38828 0.0
H1178 H 0.64512 0.45531 0.40297 0.0
H1179 H 0.62557 0.47547 0.37191 0.0
H1180 H 0.37865 0.94826 0.25906 0.0
H1181 H 0.35953 0.92803 0.22507 0.0
H1182 H 0.35654 0.95499 0.08421 0.0
H1183 H 0.37537 0.97537 0.11819 0.0
H1184 H 0.32658 0.94653 0.12119 0.0
H1185 H 0.36762 0.89273 0.11855 0.0
H1186 H 0.36637 0.90258 0.17954 0.0
H1187 H 0.37508 0.9133 0.12632 0.0
C1188 C 0.37398 0.94981 0.22076 0.0
C1189 C 0.37851 0.96338 0.19126 0.0
C1190 C 0.36315 0.9382 0.20127 0.0
C1191 C 0.35682 0.93989 0.15183 0.0
C1192 C 0.36135 0.95342 0.12236 0.0
H1193 H 0.30151 0.86688 0.98231 0.0
H1194 H 0.32221 0.88647 0.01079 0.0
C1195 C 0.37211 0.96505 0.14185 0.0
C1196 C 0.34489 0.92798 0.13149 0.0
H1197 H 0.33939 0.88764 0.10393 0.0
C1198 C 0.32941 0.93367 0.11719 0.0
C1199 C 0.34868 0.91125 0.12565 0.0
C1200 C 0.36539 0.90459 0.13784 0.0
C1201 C 0.31748 0.92302 0.0982 0.0
C1202 C 0.32106 0.90619 0.09427 0.0
C1203 C 0.33665 0.90054 0.10746 0.0
C1204 C 0.30866 0.89426 0.07725 0.0
C1205 C 0.30122 0.92991 0.08202 0.0
C1206 C 0.29433 0.89203 0.1056 0.0
C1207 C 0.28252 0.88092 0.08944 0.0
C1208 C 0.28487 0.87175 0.04477 0.0
C1209 C 0.29934 0.87383 0.01677 0.0
C1210 C 0.31117 0.88497 0.03301 0.0
H1211 H 0.30196 0.94322 0.07441 0.0
H1212 H 0.29663 0.9237 0.04724 0.0
H1213 H 0.29221 0.92799 0.11302 0.0
H1214 H 0.29231 0.89885 0.14039 0.0
H1215 H 0.27155 0.87951 0.11201 0.0
H1216 H 0.80117 0.36956 0.4863 0.0
H1217 H 0.82133 0.38907 0.51864 0.0
H1218 H 0.79256 0.39579 0.6547 0.0
H1219 H 0.77228 0.37659 0.62233 0.0
H1220 H 0.80235 0.42468 0.6127 0.0
H1221 H 0.85484 0.38236 0.63168 0.0
H1222 H 0.84587 0.38266 0.56926 0.0
H1223 H 0.8342 0.3753 0.62251 0.0
C1224 C 0.7992 0.37516 0.52319 0.0
C1225 C 0.78517 0.37155 0.55182 0.0
C1226 C 0.81077 0.38621 0.54176 0.0
C1227 C 0.80856 0.39369 0.58942 0.0
C1228 C 0.79454 0.3901 0.61794 0.0
H1229 H 0.87975 0.44911 0.76429 0.0
H1230 H 0.86023 0.42868 0.73366 0.0
C1231 C 0.78297 0.37913 0.59937 0.0
C1232 C 0.82049 0.40572 0.609 0.0
H1233 H 0.86038 0.41059 0.64324 0.0
C1234 C 0.81503 0.4216 0.6195 0.0
C1235 C 0.83697 0.40159 0.61848 0.0
C1236 C 0.84333 0.38452 0.61039 0.0
C1237 C 0.82565 0.43353 0.6386 0.0
C1238 C 0.84225 0.42956 0.64647 0.0
C1239 C 0.84767 0.41362 0.63673 0.0
C1240 C 0.85416 0.44182 0.6647 0.0
C1241 C 0.81893 0.45021 0.65093 0.0
C1242 C 0.85734 0.45583 0.63572 0.0
C1243 C 0.8684 0.46752 0.65318 0.0
C1244 C 0.87658 0.46533 0.69975 0.0
C1245 C 0.87357 0.45115 0.72836 0.0
C1246 C 0.86247 0.43947 0.71089 0.0
H1247 H 0.80548 0.44995 0.65594 0.0
H1248 H 0.82455 0.45518 0.68619 0.0
H1249 H 0.82174 0.45866 0.61909 0.0
H1250 H 0.85131 0.45772 0.59948 0.0
H1251 H 0.87055 0.47826 0.63009 0.0
H1252 H 0.30555 0.13702 0.49506 0.0
H1253 H 0.32662 0.11894 0.46046 0.0
H1254 H 0.29111 0.0973 0.35969 0.0
H1255 H 0.2702 0.11566 0.39284 0.0
H1256 H 0.32899 0.08672 0.46147 0.0
H1257 H 0.32706 0.10729 0.26091 0.0
H1258 H 0.31708 0.11833 0.31157 0.0
H1259 H 0.30734 0.10092 0.28275 0.0
C1260 C 0.30228 0.12846 0.46533 0.0
C1261 C 0.28627 0.12781 0.4464 0.0
C1262 C 0.31432 0.11815 0.44557 0.0
C1263 C 0.31053 0.107 0.40668 0.0
C1264 C 0.29445 0.10613 0.38852 0.0
H1265 H 0.36196 0.01836 0.33476 0.0
H1266 H 0.34362 0.03957 0.36619 0.0
C1267 C 0.28247 0.11654 0.40784 0.0
C1268 C 0.32319 0.09578 0.38657 0.0
H1269 H 0.34025 0.08162 0.27638 0.0
C1270 C 0.33157 0.08572 0.42103 0.0
C1271 C 0.32681 0.0947 0.3339 0.0
C1272 C 0.31922 0.10602 0.29525 0.0
C1273 C 0.34304 0.07422 0.40417 0.0
C1274 C 0.34583 0.07238 0.35122 0.0
C1275 C 0.33791 0.08285 0.31689 0.0
C1276 C 0.35671 0.0595 0.33068 0.0
C1277 C 0.35213 0.06429 0.44339 0.0
C1278 C 0.36973 0.06355 0.29827 0.0
C1279 C 0.38006 0.05138 0.27936 0.0
C1280 C 0.37754 0.03498 0.29276 0.0
C1281 C 0.3643 0.03092 0.32428 0.0
C1282 C 0.35389 0.04305 0.34262 0.0
H1283 H 0.35266 0.0707 0.48068 0.0
H1284 H 0.34567 0.05256 0.44942 0.0
H1285 H 0.36478 0.06162 0.4308 0.0
H1286 H 0.37205 0.07615 0.28819 0.0
H1287 H 0.39017 0.05484 0.25509 0.0
H1288 H 0.61962 0.54892 0.26344 0.0
H1289 H 0.63882 0.56925 0.23034 0.0
H1290 H 0.64285 0.54212 0.09001 0.0
H1291 H 0.62404 0.52163 0.12322 0.0
H1292 H 0.67231 0.5509 0.12643 0.0
H1293 H 0.631 0.60446 0.12444 0.0
H1294 H 0.63242 0.59476 0.1856 0.0
H1295 H 0.62366 0.58388 0.13276 0.0
C1296 C 0.62456 0.54735 0.22547 0.0
C1297 C 0.62033 0.53371 0.19589 0.0
C1298 C 0.63543 0.55903 0.20646 0.0
C1299 C 0.64206 0.55733 0.15737 0.0
C1300 C 0.63783 0.5437 0.12789 0.0
H1301 H 0.69597 0.6316 0.98884 0.0
H1302 H 0.67555 0.61179 0.01777 0.0
C1303 C 0.62708 0.53201 0.14694 0.0
C1304 C 0.65394 0.56935 0.13727 0.0
H1305 H 0.65918 0.60971 0.10966 0.0
C1306 C 0.66941 0.56375 0.12256 0.0
C1307 C 0.65005 0.58607 0.13153 0.0
C1308 C 0.63333 0.59265 0.14392 0.0
C1309 C 0.68122 0.57443 0.10307 0.0
C1310 C 0.67757 0.59125 0.09929 0.0
C1311 C 0.66199 0.59683 0.11306 0.0
C1312 C 0.68985 0.60326 0.08178 0.0
C1313 C 0.6974 0.56755 0.08604 0.0
C1314 C 0.70453 0.60516 0.10856 0.0
C1315 C 0.71621 0.61634 0.09197 0.0
C1316 C 0.71335 0.62598 0.0486 0.0
C1317 C 0.69853 0.62428 0.02225 0.0
C1318 C 0.68685 0.61301 0.03878 0.0
H1319 H 0.69652 0.55431 0.07743 0.0
H1320 H 0.702 0.57397 0.05166 0.0
H1321 H 0.70647 0.56911 0.11706 0.0
H1322 H 0.70693 0.59804 0.14252 0.0
H1323 H 0.72745 0.61749 0.11337 0.0
H1324 H 0.19797 0.86962 0.01439 0.0
H1325 H 0.17758 0.88904 0.98286 0.0
H1326 H 0.20524 0.89513 0.84432 0.0
H1327 H 0.22574 0.87601 0.87581 0.0
H1328 H 0.19582 0.92428 0.88672 0.0
H1329 H 0.14324 0.88188 0.87204 0.0
H1330 H 0.15274 0.88232 0.9337 0.0
H1331 H 0.16396 0.87484 0.87967 0.0
C1332 C 0.19965 0.87506 0.97713 0.0
C1333 C 0.21343 0.87129 0.94752 0.0
C1334 C 0.18795 0.88606 0.95905 0.0
C1335 C 0.18979 0.89334 0.91094 0.0
C1336 C 0.20356 0.8896 0.88145 0.0
H1337 H 0.11822 0.9483 0.73675 0.0
H1338 H 0.13774 0.92793 0.76777 0.0
C1339 C 0.21526 0.87867 0.89951 0.0
C1340 C 0.17773 0.90532 0.89184 0.0
H1341 H 0.13767 0.91003 0.85944 0.0
C1342 C 0.18311 0.92117 0.88067 0.0
C1343 C 0.16121 0.90114 0.88336 0.0
C1344 C 0.15493 0.88408 0.89233 0.0
C1345 C 0.17237 0.93303 0.86181 0.0
C1346 C 0.15575 0.92901 0.85481 0.0
C1347 C 0.1504 0.9131 0.86529 0.0
C1348 C 0.14376 0.94118 0.83656 0.0
C1349 C 0.17898 0.9497 0.84876 0.0
C1350 C 0.14054 0.95522 0.86536 0.0
C1351 C 0.12947 0.96686 0.84772 0.0
C1352 C 0.12133 0.96461 0.8011 0.0
C1353 C 0.12436 0.95039 0.77271 0.0
C1354 C 0.13546 0.93874 0.7904 0.0
H1355 H 0.19243 0.9495 0.84362 0.0
H1356 H 0.17329 0.95448 0.81337 0.0
H1357 H 0.17614 0.95827 0.88027 0.0
H1358 H 0.14658 0.95717 0.90155 0.0
H1359 H 0.1273 0.97764 0.87062 0.0
loop_
_geom_bond_atom_site_label_1
_geom_bond_atom_site_label_2
_geom_bond_distance
_geom_bond_site_symmetry_2
_ccdc_geom_bond_type
In0 O1 2.294 1_554 S
In0 O2 2.326 . S
In0 O6 2.266 1_554 S
In0 O7 2.326 1_554 S
In0 O8 2.266 . S
In0 O9 2.326 . S
In0 O11 2.294 . S
In0 O12 2.326 1_554 S
O1 In0 2.294 1_556 S
O1 C10 1.240 1_556 S
O2 In0 2.326 . S
O2 C10 1.252 . S
C3 O6 1.252 . S
C3 O7 1.260 . S
C4 O11 1.240 1_556 S
C4 O12 1.252 . S
C5 O8 1.252 . S
C5 O9 1.260 . S
O6 In0 2.266 1_556 S
O6 C3 1.252 . S
O7 In0 2.326 1_556 S
O7 C3 1.260 . S
O8 In0 2.266 . S
O8 C5 1.252 . S
O9 In0 2.326 . S
O9 C5 1.260 . S
C10 O1 1.240 1_554 S
C10 O2 1.252 . S
O11 In0 2.294 . S
O11 C4 1.240 1_554 S
O12 In0 2.326 1_556 S
O12 C4 1.252 . S
In13 O14 2.294 . S
In13 O15 2.326 . S
In13 O19 2.266 . S
In13 O20 2.326 1_545 S
In13 O21 2.266 1_545 S
In13 O22 2.326 . S
In13 O24 2.294 1_545 S
In13 O25 2.326 1_545 S
O14 In13 2.294 . S
O14 C23 1.240 . S
O15 In13 2.326 . S
O15 C23 1.252 . S
C16 O19 1.254 . S
C16 O20 1.258 1_545 S
C17 O24 1.240 . S
C17 O25 1.252 . S
C18 O21 1.254 1_545 S
C18 O22 1.258 . S
O19 In13 2.266 . S
O19 C16 1.254 . S
O20 In13 2.326 1_565 S
O20 C16 1.258 1_565 S
O21 In13 2.266 1_565 S
O21 C18 1.254 1_565 S
O22 In13 2.326 . S
O22 C18 1.258 . S
C23 O14 1.240 . S
C23 O15 1.252 . S
O24 In13 2.294 1_565 S
O24 C17 1.240 . S
O25 In13 2.326 1_565 S
O25 C17 1.252 . S
In26 O27 2.294 . S
In26 O28 2.326 . S
In26 O32 2.266 . S
In26 O33 2.326 . S
In26 O34 2.266 . S
In26 O35 2.326 . S
In26 O37 2.294 . S
In26 O38 2.326 . S
O27 In26 2.294 . S
O27 C36 1.240 . S
O28 In26 2.326 . S
O28 C36 1.252 . S
C29 O32 1.252 . S
C29 O33 1.260 . S
C30 O37 1.240 . S
C30 O38 1.252 . S
C31 O34 1.252 . S
C31 O35 1.260 . S
O32 In26 2.266 . S
O32 C29 1.252 . S
O33 In26 2.326 . S
O33 C29 1.260 . S
O34 In26 2.266 . S
O34 C31 1.252 . S
O35 In26 2.326 . S
O35 C31 1.260 . S
C36 O27 1.240 . S
C36 O28 1.252 . S
O37 In26 2.294 . S
O37 C30 1.240 . S
O38 In26 2.326 . S
O38 C30 1.252 . S
In39 O40 2.294 . S
In39 O41 2.326 . S
In39 O45 2.266 . S
In39 O46 2.326 1_545 S
In39 O47 2.266 1_545 S
In39 O48 2.326 . S
In39 O50 2.294 1_545 S
In39 O51 2.326 1_545 S
O40 In39 2.294 . S
O40 C49 1.240 . S
O41 In39 2.326 . S
O41 C49 1.252 . S
C42 O45 1.254 . S
C42 O46 1.258 1_545 S
C43 O50 1.240 . S
C43 O51 1.252 . S
C44 O47 1.254 1_545 S
C44 O48 1.258 . S
O45 In39 2.266 . S
O45 C42 1.254 . S
O46 In39 2.326 1_565 S
O46 C42 1.258 1_565 S
O47 In39 2.266 1_565 S
O47 C44 1.254 1_565 S
O48 In39 2.326 . S
O48 C44 1.258 . S
C49 O40 1.240 . S
C49 O41 1.252 . S
O50 In39 2.294 1_565 S
O50 C43 1.240 . S
O51 In39 2.326 1_565 S
O51 C43 1.252 . S
In52 O53 2.294 1_554 S
In52 O54 2.326 . S
In52 O58 2.266 1_554 S
In52 O59 2.326 1_554 S
In52 O60 2.266 . S
In52 O61 2.326 . S
In52 O63 2.294 . S
In52 O64 2.326 1_554 S
O53 In52 2.294 1_556 S
O53 C62 1.240 1_556 S
O54 In52 2.326 . S
O54 C62 1.252 . S
C55 O58 1.252 . S
C55 O59 1.260 . S
C56 O63 1.240 1_556 S
C56 O64 1.252 . S
C57 O60 1.252 . S
C57 O61 1.260 . S
O58 In52 2.266 1_556 S
O58 C55 1.252 . S
O59 In52 2.326 1_556 S
O59 C55 1.260 . S
O60 In52 2.266 . S
O60 C57 1.252 . S
O61 In52 2.326 . S
O61 C57 1.260 . S
C62 O53 1.240 1_554 S
C62 O54 1.252 . S
O63 In52 2.294 . S
O63 C56 1.240 1_554 S
O64 In52 2.326 1_556 S
O64 C56 1.252 . S
In65 O66 2.294 . S
In65 O67 2.326 . S
In65 O71 2.266 . S
In65 O72 2.326 1_545 S
In65 O73 2.266 1_545 S
In65 O74 2.326 . S
In65 O76 2.294 1_545 S
In65 O77 2.326 1_545 S
O66 In65 2.294 . S
O66 C75 1.240 . S
O67 In65 2.326 . S
O67 C75 1.252 . S
C68 O71 1.254 . S
C68 O72 1.258 1_545 S
C69 O76 1.240 . S
C69 O77 1.252 . S
C70 O73 1.254 1_545 S
C70 O74 1.258 . S
O71 In65 2.266 . S
O71 C68 1.254 . S
O72 In65 2.326 1_565 S
O72 C68 1.258 1_565 S
O73 In65 2.266 1_565 S
O73 C70 1.254 1_565 S
O74 In65 2.326 . S
O74 C70 1.258 . S
C75 O66 1.240 . S
C75 O67 1.252 . S
O76 In65 2.294 1_565 S
O76 C69 1.240 . S
O77 In65 2.326 1_565 S
O77 C69 1.252 . S
In78 O79 2.294 . S
In78 O80 2.326 . S
In78 O84 2.266 . S
In78 O85 2.326 . S
In78 O86 2.266 . S
In78 O87 2.326 . S
In78 O89 2.294 . S
In78 O90 2.326 . S
O79 In78 2.294 . S
O79 C88 1.240 . S
O80 In78 2.326 . S
O80 C88 1.252 . S
C81 O84 1.252 . S
C81 O85 1.260 . S
C82 O89 1.240 . S
C82 O90 1.252 . S
C83 O86 1.252 . S
C83 O87 1.260 . S
O84 In78 2.266 . S
O84 C81 1.252 . S
O85 In78 2.326 . S
O85 C81 1.260 . S
O86 In78 2.266 . S
O86 C83 1.252 . S
O87 In78 2.326 . S
O87 C83 1.260 . S
C88 O79 1.240 . S
C88 O80 1.252 . S
O89 In78 2.294 . S
O89 C82 1.240 . S
O90 In78 2.326 . S
O90 C82 1.252 . S
In91 O92 2.294 1_545 S
In91 O93 2.326 1_545 S
In91 O97 2.266 1_545 S
In91 O98 2.326 . S
In91 O99 2.266 . S
In91 O100 2.326 1_545 S
In91 O102 2.294 . S
In91 O103 2.326 . S
O92 In91 2.294 1_565 S
O92 C101 1.240 . S
O93 In91 2.326 1_565 S
O93 C101 1.252 . S
C94 O97 1.254 1_545 S
C94 O98 1.258 . S
C95 O102 1.240 . S
C95 O103 1.252 . S
C96 O99 1.254 . S
C96 O100 1.258 1_545 S
O97 In91 2.266 1_565 S
O97 C94 1.254 1_565 S
O98 In91 2.326 . S
O98 C94 1.258 . S
O99 In91 2.266 . S
O99 C96 1.254 . S
O100 In91 2.326 1_565 S
O100 C96 1.258 1_565 S
C101 O92 1.240 . S
C101 O93 1.252 . S
O102 In91 2.294 . S
O102 C95 1.240 . S
O103 In91 2.326 . S
O103 C95 1.252 . S
In104 O105 2.294 . S
In104 O106 2.326 . S
In104 O110 2.266 . S
In104 O111 2.326 . S
In104 O112 2.266 . S
In104 O113 2.326 . S
In104 O115 2.294 . S
In104 O116 2.326 . S
O105 In104 2.294 . S
O105 C114 1.240 . S
O106 In104 2.326 . S
O106 C114 1.252 . S
C107 O110 1.252 . S
C107 O111 1.260 . S
C108 O115 1.240 . S
C108 O116 1.252 . S
C109 O112 1.252 . S
C109 O113 1.260 . S
O110 In104 2.266 . S
O110 C107 1.252 . S
O111 In104 2.326 . S
O111 C107 1.260 . S
O112 In104 2.266 . S
O112 C109 1.252 . S
O113 In104 2.326 . S
O113 C109 1.260 . S
C114 O105 1.240 . S
C114 O106 1.252 . S
O115 In104 2.294 . S
O115 C108 1.240 . S
O116 In104 2.326 . S
O116 C108 1.252 . S
In117 O118 2.294 . S
In117 O119 2.326 . S
In117 O123 2.266 . S
In117 O124 2.326 . S
In117 O125 2.266 . S
In117 O126 2.326 . S
In117 O128 2.294 . S
In117 O129 2.326 . S
O118 In117 2.294 . S
O118 C127 1.240 . S
O119 In117 2.326 . S
O119 C127 1.252 . S
C120 O123 1.252 . S
C120 O124 1.260 . S
C121 O128 1.240 . S
C121 O129 1.252 . S
C122 O125 1.252 . S
C122 O126 1.260 . S
O123 In117 2.266 . S
O123 C120 1.252 . S
O124 In117 2.326 . S
O124 C120 1.260 . S
O125 In117 2.266 . S
O125 C122 1.252 . S
O126 In117 2.326 . S
O126 C122 1.260 . S
C127 O118 1.240 . S
C127 O119 1.252 . S
O128 In117 2.294 . S
O128 C121 1.240 . S
O129 In117 2.326 . S
O129 C121 1.252 . S
In130 O131 2.294 1_554 S
In130 O132 2.326 . S
In130 O136 2.266 1_554 S
In130 O137 2.326 1_554 S
In130 O138 2.266 . S
In130 O139 2.326 . S
In130 O141 2.294 . S
In130 O142 2.326 1_554 S
O131 In130 2.294 1_556 S
O131 C140 1.240 1_556 S
O132 In130 2.326 . S
O132 C140 1.252 . S
C133 O136 1.252 . S
C133 O137 1.260 . S
C134 O141 1.240 1_556 S
C134 O142 1.252 . S
C135 O138 1.252 . S
C135 O139 1.260 . S
O136 In130 2.266 1_556 S
O136 C133 1.252 . S
O137 In130 2.326 1_556 S
O137 C133 1.260 . S
O138 In130 2.266 . S
O138 C135 1.252 . S
O139 In130 2.326 . S
O139 C135 1.260 . S
C140 O131 1.240 1_554 S
C140 O132 1.252 . S
O141 In130 2.294 . S
O141 C134 1.240 1_554 S
O142 In130 2.326 1_556 S
O142 C134 1.252 . S
In143 O144 2.294 . S
In143 O145 2.326 . S
In143 O149 2.266 . S
In143 O150 2.326 . S
In143 O151 2.266 . S
In143 O152 2.326 . S
In143 O154 2.294 . S
In143 O155 2.326 . S
O144 In143 2.294 . S
O144 C153 1.240 . S
O145 In143 2.326 . S
O145 C153 1.252 . S
C146 O149 1.252 . S
C146 O150 1.260 . S
C147 O154 1.240 . S
C147 O155 1.252 . S
C148 O151 1.252 . S
C148 O152 1.260 . S
O149 In143 2.266 . S
O149 C146 1.252 . S
O150 In143 2.326 . S
O150 C146 1.260 . S
O151 In143 2.266 . S
O151 C148 1.252 . S
O152 In143 2.326 . S
O152 C148 1.260 . S
C153 O144 1.240 . S
C153 O145 1.252 . S
O154 In143 2.294 . S
O154 C147 1.240 . S
O155 In143 2.326 . S
O155 C147 1.252 . S
In156 O157 2.294 . S
In156 O158 2.326 . S
In156 O162 2.266 . S
In156 O163 2.326 . S
In156 O164 2.266 . S
In156 O165 2.326 . S
In156 O167 2.294 . S
In156 O168 2.326 . S
O157 In156 2.294 . S
O157 C166 1.240 . S
O158 In156 2.326 . S
O158 C166 1.252 . S
C159 O162 1.252 . S
C159 O163 1.260 . S
C160 O167 1.240 . S
C160 O168 1.252 . S
C161 O164 1.252 . S
C161 O165 1.260 . S
O162 In156 2.266 . S
O162 C159 1.252 . S
O163 In156 2.326 . S
O163 C159 1.260 . S
O164 In156 2.266 . S
O164 C161 1.252 . S
O165 In156 2.326 . S
O165 C161 1.260 . S
C166 O157 1.240 . S
C166 O158 1.252 . S
O167 In156 2.294 . S
O167 C160 1.240 . S
O168 In156 2.326 . S
O168 C160 1.252 . S
In169 O170 2.294 . S
In169 O171 2.326 . S
In169 O175 2.266 . S
In169 O176 2.326 . S
In169 O177 2.266 . S
In169 O178 2.326 . S
In169 O180 2.294 . S
In169 O181 2.326 . S
O170 In169 2.294 . S
O170 C179 1.240 . S
O171 In169 2.326 . S
O171 C179 1.252 . S
C172 O175 1.252 . S
C172 O176 1.260 . S
C173 O180 1.240 . S
C173 O181 1.252 . S
C174 O177 1.252 . S
C174 O178 1.260 . S
O175 In169 2.266 . S
O175 C172 1.252 . S
O176 In169 2.326 . S
O176 C172 1.260 . S
O177 In169 2.266 . S
O177 C174 1.252 . S
O178 In169 2.326 . S
O178 C174 1.260 . S
C179 O170 1.240 . S
C179 O171 1.252 . S
O180 In169 2.294 . S
O180 C173 1.240 . S
O181 In169 2.326 . S
O181 C173 1.252 . S
In182 O183 2.294 . S
In182 O184 2.326 1_554 S
In182 O188 2.266 . S
In182 O189 2.326 . S
In182 O190 2.266 1_554 S
In182 O191 2.326 1_554 S
In182 O193 2.294 1_554 S
In182 O194 2.326 . S
O183 In182 2.294 . S
O183 C192 1.240 1_554 S
O184 In182 2.326 1_556 S
O184 C192 1.252 . S
C185 O188 1.252 . S
C185 O189 1.260 . S
C186 O193 1.240 1_554 S
C186 O194 1.252 . S
C187 O190 1.252 . S
C187 O191 1.260 . S
O188 In182 2.266 . S
O188 C185 1.252 . S
O189 In182 2.326 . S
O189 C185 1.260 . S
O190 In182 2.266 1_556 S
O190 C187 1.252 . S
O191 In182 2.326 1_556 S
O191 C187 1.260 . S
C192 O183 1.240 1_556 S
C192 O184 1.252 . S
O193 In182 2.294 1_556 S
O193 C186 1.240 1_556 S
O194 In182 2.326 . S
O194 C186 1.252 . S
In195 O196 2.294 . S
In195 O197 2.326 . S
In195 O201 2.266 . S
In195 O202 2.326 . S
In195 O203 2.266 . S
In195 O204 2.326 . S
In195 O206 2.294 . S
In195 O207 2.326 . S
O196 In195 2.294 . S
O196 C205 1.240 . S
O197 In195 2.326 . S
O197 C205 1.252 . S
C198 O201 1.252 . S
C198 O202 1.260 . S
C199 O206 1.240 . S
C199 O207 1.252 . S
C200 O203 1.252 . S
C200 O204 1.260 . S
O201 In195 2.266 . S
O201 C198 1.252 . S
O202 In195 2.326 . S
O202 C198 1.260 . S
O203 In195 2.266 . S
O203 C200 1.252 . S
O204 In195 2.326 . S
O204 C200 1.260 . S
C205 O196 1.240 . S
C205 O197 1.252 . S
O206 In195 2.294 . S
O206 C199 1.240 . S
O207 In195 2.326 . S
O207 C199 1.252 . S
H208 C216 0.929 . S
H209 C218 0.930 . S
H210 C220 0.930 . S
H211 C223 0.929 . S
H212 C226 0.930 . S
H213 C228 0.960 . S
H214 C228 0.960 . S
H215 C228 0.960 . S
C216 H208 0.929 . S
C216 C217 1.377 . S
C216 C218 1.384 . S
C217 C216 1.377 . S
C217 C223 1.390 . S
C218 H209 0.930 . S
C218 C216 1.384 . S
C218 C219 1.372 . S
C219 C218 1.372 . S
C219 C220 1.400 . S
C219 C224 1.490 . S
C220 H210 0.930 . S
C220 C219 1.400 . S
C220 C223 1.386 . S
H221 C237 0.930 . S
H222 C238 0.931 . S
C223 H211 0.929 . S
C223 C217 1.390 . S
C223 C220 1.386 . S
C224 C219 1.490 . S
C224 C226 1.395 . S
C224 C227 1.403 . S
H225 C231 0.930 . S
C226 H212 0.930 . S
C226 C224 1.395 . S
C226 C229 1.403 . S
C227 C224 1.403 . S
C227 C228 1.524 . S
C227 C231 1.400 . S
C228 H213 0.960 . S
C228 H214 0.960 . S
C228 H215 0.960 . S
C228 C227 1.524 . S
C229 C226 1.403 . S
C229 C230 1.392 . S
C229 C233 1.495 . S
C230 C229 1.392 . S
C230 C231 1.385 . S
C230 C232 1.478 . S
C231 H225 0.930 . S
C231 C227 1.400 . S
C231 C230 1.385 . S
C232 C230 1.478 . S
C232 C234 1.381 . S
C232 C238 1.383 . S
C233 C229 1.495 . S
C233 H239 0.959 . S
C233 H240 0.961 . S
C233 H241 0.960 . S
C234 C232 1.381 . S
C234 C235 1.394 . S
C234 H242 0.930 . S
C235 C234 1.394 . S
C235 C236 1.383 . S
C235 H243 0.929 . S
C236 C235 1.383 . S
C236 C237 1.377 . S
C237 H221 0.930 . S
C237 C236 1.377 . S
C237 C238 1.379 . S
C238 H222 0.931 . S
C238 C232 1.383 . S
C238 C237 1.379 . S
H239 C233 0.959 . S
H240 C233 0.961 . S
H241 C233 0.960 . S
H242 C234 0.930 . S
H243 C235 0.929 . S
H244 C252 0.929 . S
H245 C254 0.930 . S
H246 C256 0.930 . S
H247 C259 0.929 . S
H248 C262 0.930 . S
H249 C264 0.960 . S
H250 C264 0.960 1_565 S
H251 C264 0.960 . S
C252 H244 0.929 . S
C252 C253 1.367 1_565 S
C252 C254 1.384 . S
C253 C252 1.367 1_545 S
C253 C259 1.400 . S
C254 H245 0.930 . S
C254 C252 1.384 . S
C254 C255 1.409 . S
C255 C254 1.409 . S
C255 C256 1.362 1_565 S
C255 C260 1.490 . S
C256 H246 0.930 . S
C256 C255 1.362 1_545 S
C256 C259 1.386 . S
H257 C273 0.930 . S
H258 C274 0.931 . S
C259 H247 0.929 . S
C259 C253 1.400 . S
C259 C256 1.386 . S
C260 C255 1.490 . S
C260 C262 1.415 1_655 S
C260 C263 1.387 1_565 S
H261 C267 0.932 . S
C262 H248 0.930 . S
C262 C260 1.415 1_455 S
C262 C265 1.403 . S
C263 C260 1.387 1_545 S
C263 C264 1.524 . S
C263 C267 1.412 . S
C264 H249 0.960 . S
C264 H250 0.960 1_545 S
C264 H251 0.960 . S
C264 C263 1.524 . S
C265 C262 1.403 . S
C265 C266 1.392 . S
C265 C269 1.495 . S
C266 C265 1.392 . S
C266 C267 1.372 1_465 S
C266 C268 1.478 . S
C267 H261 0.932 . S
C267 C263 1.412 . S
C267 C266 1.372 1_645 S
C268 C266 1.478 . S
C268 C270 1.381 . S
C268 C274 1.383 1_565 S
C269 C265 1.495 . S
C269 H275 0.959 . S
C269 H276 0.961 . S
C269 H277 0.960 . S
C270 C268 1.381 . S
C270 C271 1.394 . S
C270 H278 0.930 . S
C271 C270 1.394 . S
C271 C272 1.413 . S
C271 H279 0.929 . S
C272 C271 1.413 . S
C272 C273 1.348 1_565 S
C273 H257 0.930 . S
C273 C272 1.348 1_545 S
C273 C274 1.379 . S
C274 H258 0.931 . S
C274 C268 1.383 1_545 S
C274 C273 1.379 . S
H275 C269 0.959 . S
H276 C269 0.961 . S
H277 C269 0.960 . S
H278 C270 0.930 . S
H279 C271 0.929 . S
H280 C288 0.929 . S
H281 C290 0.930 . S
H282 C292 0.930 . S
H283 C295 0.929 . S
H284 C298 0.930 . S
H285 C300 0.960 . S
H286 C300 0.960 . S
H287 C300 0.960 . S
C288 H280 0.929 . S
C288 C289 1.377 . S
C288 C290 1.384 . S
C289 C288 1.377 . S
C289 C295 1.390 . S
C290 H281 0.930 . S
C290 C288 1.384 . S
C290 C291 1.372 . S
C291 C290 1.372 . S
C291 C292 1.400 . S
C291 C296 1.490 . S
C292 H282 0.930 . S
C292 C291 1.400 . S
C292 C295 1.386 . S
H293 C309 0.930 . S
H294 C310 0.931 . S
C295 H283 0.929 . S
C295 C289 1.390 . S
C295 C292 1.386 . S
C296 C291 1.490 . S
C296 C298 1.395 . S
C296 C299 1.403 . S
H297 C303 0.930 . S
C298 H284 0.930 . S
C298 C296 1.395 . S
C298 C301 1.403 . S
C299 C296 1.403 . S
C299 C300 1.524 . S
C299 C303 1.400 . S
C300 H285 0.960 . S
C300 H286 0.960 . S
C300 H287 0.960 . S
C300 C299 1.524 . S
C301 C298 1.403 . S
C301 C302 1.392 . S
C301 C305 1.495 . S
C302 C301 1.392 . S
C302 C303 1.385 . S
C302 C304 1.478 . S
C303 H297 0.930 . S
C303 C299 1.400 . S
C303 C302 1.385 . S
C304 C302 1.478 . S
C304 C306 1.381 . S
C304 C310 1.383 . S
C305 C301 1.495 . S
C305 H311 0.959 . S
C305 H312 0.961 . S
C305 H313 0.960 . S
C306 C304 1.381 . S
C306 C307 1.394 . S
C306 H314 0.930 . S
C307 C306 1.394 . S
C307 C308 1.383 . S
C307 H315 0.929 . S
C308 C307 1.383 . S
C308 C309 1.377 . S
C309 H293 0.930 . S
C309 C308 1.377 . S
C309 C310 1.379 . S
C310 H294 0.931 . S
C310 C304 1.383 . S
C310 C309 1.379 . S
H311 C305 0.959 . S
H312 C305 0.961 . S
H313 C305 0.960 . S
H314 C306 0.930 . S
H315 C307 0.929 . S
H316 C324 0.929 . S
H317 C326 0.930 . S
H318 C328 0.930 . S
H319 C331 0.929 . S
H320 C334 0.930 . S
H321 C336 0.960 . S
H322 C336 0.960 . S
H323 C336 0.960 . S
C324 H316 0.929 . S
C324 C325 1.380 . S
C324 C326 1.384 . S
C325 C324 1.380 . S
C325 C331 1.387 1_545 S
C326 H317 0.930 . S
C326 C324 1.384 . S
C326 C327 1.376 . S
C327 C326 1.376 . S
C327 C328 1.396 1_545 S
C327 C332 1.489 . S
C328 H318 0.930 . S
C328 C327 1.396 1_565 S
C328 C331 1.386 . S
H329 C345 0.933 . S
H330 C346 0.928 1_565 S
C331 H319 0.929 . S
C331 C325 1.387 1_565 S
C331 C328 1.386 . S
C332 C327 1.489 . S
C332 C334 1.445 . S
C332 C335 1.356 1_545 S
H333 C339 0.930 . S
C334 H320 0.930 . S
C334 C332 1.445 . S
C334 C337 1.403 1_554 S
C335 C332 1.356 1_565 S
C335 C336 1.524 . S
C335 C339 1.400 1_554 S
C336 H321 0.960 . S
C336 H322 0.960 . S
C336 H323 0.960 . S
C336 C335 1.524 . S
C337 C334 1.403 1_556 S
C337 C338 1.392 . S
C337 C341 1.495 . S
C338 C337 1.392 . S
C338 C339 1.385 1_545 S
C338 C340 1.478 . S
C339 H333 0.930 . S
C339 C335 1.400 1_556 S
C339 C338 1.385 1_565 S
C340 C338 1.478 . S
C340 C342 1.381 . S
C340 C346 1.391 . S
C341 C337 1.495 . S
C341 H347 0.959 . S
C341 H348 0.961 . S
C341 H349 0.960 . S
C342 C340 1.381 . S
C342 C343 1.394 . S
C342 H350 0.930 . S
C343 C342 1.394 . S
C343 C344 1.395 . S
C343 H351 0.929 . S
C344 C343 1.395 . S
C344 C345 1.372 1_545 S
C345 H329 0.933 . S
C345 C344 1.372 1_565 S
C345 C346 1.376 1_565 S
C346 H330 0.928 1_545 S
C346 C340 1.391 . S
C346 C345 1.376 1_545 S
H347 C341 0.959 . S
H348 C341 0.961 . S
H349 C341 0.960 . S
H350 C342 0.930 . S
H351 C343 0.929 . S
H352 C360 0.929 . S
H353 C362 0.930 . S
H354 C364 0.930 . S
H355 C367 0.929 . S
H356 C370 0.930 . S
H357 C372 0.960 . S
H358 C372 0.960 . S
H359 C372 0.960 . S
C360 H352 0.929 . S
C360 C361 1.377 . S
C360 C362 1.384 . S
C361 C360 1.377 . S
C361 C367 1.390 . S
C362 H353 0.930 . S
C362 C360 1.384 . S
C362 C363 1.372 . S
C363 C362 1.372 . S
C363 C364 1.400 . S
C363 C368 1.490 . S
C364 H354 0.930 . S
C364 C363 1.400 . S
C364 C367 1.386 . S
H365 C381 0.930 . S
H366 C382 0.931 . S
C367 H355 0.929 . S
C367 C361 1.390 . S
C367 C364 1.386 . S
C368 C363 1.490 . S
C368 C370 1.395 . S
C368 C371 1.403 . S
H369 C375 0.930 . S
C370 H356 0.930 . S
C370 C368 1.395 . S
C370 C373 1.403 . S
C371 C368 1.403 . S
C371 C372 1.524 . S
C371 C375 1.400 . S
C372 H357 0.960 . S
C372 H358 0.960 . S
C372 H359 0.960 . S
C372 C371 1.524 . S
C373 C370 1.403 . S
C373 C374 1.392 . S
C373 C377 1.495 . S
C374 C373 1.392 . S
C374 C375 1.385 . S
C374 C376 1.478 . S
C375 H369 0.930 . S
C375 C371 1.400 . S
C375 C374 1.385 . S
C376 C374 1.478 . S
C376 C378 1.381 . S
C376 C382 1.383 . S
C377 C373 1.495 . S
C377 H383 0.959 . S
C377 H384 0.961 . S
C377 H385 0.960 . S
C378 C376 1.381 . S
C378 C379 1.394 . S
C378 H386 0.930 . S
C379 C378 1.394 . S
C379 C380 1.383 . S
C379 H387 0.929 . S
C380 C379 1.383 . S
C380 C381 1.377 . S
C381 H365 0.930 . S
C381 C380 1.377 . S
C381 C382 1.379 . S
C382 H366 0.931 . S
C382 C376 1.383 . S
C382 C381 1.379 . S
H383 C377 0.959 . S
H384 C377 0.961 . S
H385 C377 0.960 . S
H386 C378 0.930 . S
H387 C379 0.929 . S
H388 C396 0.929 . S
H389 C398 0.930 . S
H390 C400 0.930 . S
H391 C403 0.929 . S
H392 C406 0.930 . S
H393 C408 0.960 . S
H394 C408 0.960 . S
H395 C408 0.960 1_565 S
C396 H388 0.929 . S
C396 C397 1.372 . S
C396 C398 1.384 . S
C397 C396 1.372 . S
C397 C403 1.395 1_545 S
C398 H389 0.930 . S
C398 C396 1.384 . S
C398 C399 1.407 . S
C399 C398 1.407 . S
C399 C400 1.364 1_545 S
C399 C404 1.490 . S
C400 H390 0.930 . S
C400 C399 1.364 1_565 S
C400 C403 1.386 . S
H401 C417 0.930 . S
H402 C418 0.931 . S
C403 H391 0.929 . S
C403 C397 1.395 1_565 S
C403 C400 1.386 . S
C404 C399 1.490 . S
C404 C406 1.389 1_545 S
C404 C407 1.411 . S
H405 C411 0.930 . S
C406 H392 0.930 . S
C406 C404 1.389 1_565 S
C406 C409 1.403 . S
C407 C404 1.411 . S
C407 C408 1.524 . S
C407 C411 1.400 . S
C408 H393 0.960 . S
C408 H394 0.960 . S
C408 H395 0.960 1_545 S
C408 C407 1.524 . S
C409 C406 1.403 . S
C409 C410 1.392 1_565 S
C409 C413 1.495 . S
C410 C409 1.392 1_545 S
C410 C411 1.386 . S
C410 C412 1.477 1_545 S
C411 H405 0.930 . S
C411 C407 1.400 . S
C411 C410 1.386 . S
C412 C410 1.477 1_565 S
C412 C414 1.377 1_565 S
C412 C418 1.387 . S
C413 C409 1.495 . S
C413 H419 0.959 . S
C413 H420 0.961 . S
C413 H421 0.960 1_565 S
C414 C412 1.377 1_545 S
C414 C415 1.394 . S
C414 H422 0.930 . S
C415 C414 1.394 . S
C415 C416 1.386 . S
C415 H423 0.929 . S
C416 C415 1.386 . S
C416 C417 1.374 1_545 S
C417 H401 0.930 . S
C417 C416 1.374 1_565 S
C417 C418 1.379 . S
C418 H402 0.931 . S
C418 C412 1.387 . S
C418 C417 1.379 . S
H419 C413 0.959 . S
H420 C413 0.961 . S
H421 C413 0.960 1_545 S
H422 C414 0.930 . S
H423 C415 0.929 . S
H424 C432 0.929 . S
H425 C434 0.930 . S
H426 C436 0.930 . S
H427 C439 0.929 . S
H428 C442 0.930 . S
H429 C444 0.960 . S
H430 C444 0.960 . S
H431 C444 0.960 . S
C432 H424 0.929 . S
C432 C433 1.377 . S
C432 C434 1.384 . S
C433 C432 1.377 . S
C433 C439 1.390 . S
C434 H425 0.930 . S
C434 C432 1.384 . S
C434 C435 1.372 . S
C435 C434 1.372 . S
C435 C436 1.400 . S
C435 C440 1.490 . S
C436 H426 0.930 . S
C436 C435 1.400 . S
C436 C439 1.386 . S
H437 C453 0.930 . S
H438 C454 0.931 . S
C439 H427 0.929 . S
C439 C433 1.390 . S
C439 C436 1.386 . S
C440 C435 1.490 . S
C440 C442 1.395 . S
C440 C443 1.403 . S
H441 C447 0.930 . S
C442 H428 0.930 . S
C442 C440 1.395 . S
C442 C445 1.403 . S
C443 C440 1.403 . S
C443 C444 1.524 . S
C443 C447 1.400 . S
C444 H429 0.960 . S
C444 H430 0.960 . S
C444 H431 0.960 . S
C444 C443 1.524 . S
C445 C442 1.403 . S
C445 C446 1.392 . S
C445 C449 1.495 . S
C446 C445 1.392 . S
C446 C447 1.385 . S
C446 C448 1.478 . S
C447 H441 0.930 . S
C447 C443 1.400 . S
C447 C446 1.385 . S
C448 C446 1.478 . S
C448 C450 1.381 . S
C448 C454 1.383 . S
C449 C445 1.495 . S
C449 H455 0.959 . S
C449 H456 0.961 . S
C449 H457 0.960 . S
C450 C448 1.381 . S
C450 C451 1.394 . S
C450 H458 0.930 . S
C451 C450 1.394 . S
C451 C452 1.383 . S
C451 H459 0.929 . S
C452 C451 1.383 . S
C452 C453 1.377 . S
C453 H437 0.930 . S
C453 C452 1.377 . S
C453 C454 1.379 . S
C454 H438 0.931 . S
C454 C448 1.383 . S
C454 C453 1.379 . S
H455 C449 0.959 . S
H456 C449 0.961 . S
H457 C449 0.960 . S
H458 C450 0.930 . S
H459 C451 0.929 . S
H460 C468 0.929 . S
H461 C470 0.930 . S
H462 C472 0.930 . S
H463 C475 0.929 . S
H464 C478 0.930 . S
H465 C480 0.960 . S
H466 C480 0.989 . S
H467 C480 0.960 . S
C468 H460 0.929 . S
C468 C469 1.373 1_565 S
C468 C470 1.384 . S
C469 C468 1.373 1_545 S
C469 C475 1.394 . S
C470 H461 0.930 . S
C470 C468 1.384 . S
C470 C471 1.387 . S
C471 C470 1.387 . S
C471 C472 1.385 1_565 S
C471 C476 1.490 . S
C472 H462 0.930 . S
C472 C471 1.385 1_545 S
C472 C475 1.386 . S
H473 C489 0.930 . S
H474 C490 0.931 . S
C475 H463 0.929 . S
C475 C469 1.394 . S
C475 C472 1.386 . S
C476 C471 1.490 . S
C476 C478 1.389 1_566 S
C476 C479 1.408 1_455 S
H477 C483 0.930 . S
C478 H464 0.930 . S
C478 C476 1.389 1_544 S
C478 C481 1.403 . S
C479 C476 1.408 1_655 S
C479 C480 1.524 . S
C479 C483 1.400 . S
C480 H465 0.960 . S
C480 H466 0.989 . S
C480 H467 0.960 . S
C480 C479 1.524 . S
C481 C478 1.403 . S
C481 C482 1.407 1_455 S
C481 C485 1.495 . S
C482 C481 1.407 1_655 S
C482 C483 1.370 1_544 S
C482 C484 1.479 . S
C483 H477 0.930 . S
C483 C479 1.400 . S
C483 C482 1.370 1_566 S
C484 C482 1.479 . S
C484 C486 1.381 1_545 S
C484 C490 1.383 . S
C485 C481 1.495 . S
C485 H491 0.959 . S
C485 H492 0.961 . S
C485 H493 0.960 . S
C486 C484 1.381 1_565 S
C486 C487 1.394 . S
C486 H494 0.930 . S
C487 C486 1.394 . S
C487 C488 1.374 1_565 S
C487 H495 0.929 . S
C488 C487 1.374 1_545 S
C488 C489 1.387 . S
C489 H473 0.930 . S
C489 C488 1.387 . S
C489 C490 1.379 . S
C490 H474 0.931 . S
C490 C484 1.383 . S
C490 C489 1.379 . S
H491 C485 0.959 . S
H492 C485 0.961 . S
H493 C485 0.960 . S
H494 C486 0.930 . S
H495 C487 0.929 . S
H496 C504 0.929 . S
H497 C506 0.930 . S
H498 C508 0.930 . S
H499 C511 0.929 . S
H500 C514 0.930 . S
H501 C516 0.960 . S
H502 C516 0.960 . S
H503 C516 0.960 . S
C504 H496 0.929 . S
C504 C505 1.377 . S
C504 C506 1.384 . S
C505 C504 1.377 . S
C505 C511 1.390 . S
C506 H497 0.930 . S
C506 C504 1.384 . S
C506 C507 1.372 . S
C507 C506 1.372 . S
C507 C508 1.400 . S
C507 C512 1.490 . S
C508 H498 0.930 . S
C508 C507 1.400 . S
C508 C511 1.386 . S
H509 C525 0.930 . S
H510 C526 0.931 . S
C511 H499 0.929 . S
C511 C505 1.390 . S
C511 C508 1.386 . S
C512 C507 1.490 . S
C512 C514 1.395 . S
C512 C515 1.403 . S
H513 C519 0.930 . S
C514 H500 0.930 . S
C514 C512 1.395 . S
C514 C517 1.403 . S
C515 C512 1.403 . S
C515 C516 1.524 . S
C515 C519 1.400 . S
C516 H501 0.960 . S
C516 H502 0.960 . S
C516 H503 0.960 . S
C516 C515 1.524 . S
C517 C514 1.403 . S
C517 C518 1.392 . S
C517 C521 1.495 . S
C518 C517 1.392 . S
C518 C519 1.385 . S
C518 C520 1.478 . S
C519 H513 0.930 . S
C519 C515 1.400 . S
C519 C518 1.385 . S
C520 C518 1.478 . S
C520 C522 1.381 . S
C520 C526 1.383 . S
C521 C517 1.495 . S
C521 H527 0.959 . S
C521 H528 0.961 . S
C521 H529 0.960 . S
C522 C520 1.381 . S
C522 C523 1.394 . S
C522 H530 0.930 . S
C523 C522 1.394 . S
C523 C524 1.383 . S
C523 H531 0.929 . S
C524 C523 1.383 . S
C524 C525 1.377 . S
C525 H509 0.930 . S
C525 C524 1.377 . S
C525 C526 1.379 . S
C526 H510 0.931 . S
C526 C520 1.383 . S
C526 C525 1.379 . S
H527 C521 0.959 . S
H528 C521 0.961 . S
H529 C521 0.960 . S
H530 C522 0.930 . S
H531 C523 0.929 . S
H532 C540 0.929 . S
H533 C542 0.930 . S
H534 C544 0.930 . S
H535 C547 0.929 . S
H536 C550 0.930 . S
H537 C552 0.960 . S
H538 C552 0.960 . S
H539 C552 0.960 . S
C540 H532 0.929 . S
C540 C541 1.377 . S
C540 C542 1.384 . S
C541 C540 1.377 . S
C541 C547 1.390 . S
C542 H533 0.930 . S
C542 C540 1.384 . S
C542 C543 1.372 . S
C543 C542 1.372 . S
C543 C544 1.400 . S
C543 C548 1.490 . S
C544 H534 0.930 . S
C544 C543 1.400 . S
C544 C547 1.386 . S
H545 C561 0.930 . S
H546 C562 0.931 . S
C547 H535 0.929 . S
C547 C541 1.390 . S
C547 C544 1.386 . S
C548 C543 1.490 . S
C548 C550 1.395 . S
C548 C551 1.403 . S
H549 C555 0.930 . S
C550 H536 0.930 . S
C550 C548 1.395 . S
C550 C553 1.403 . S
C551 C548 1.403 . S
C551 C552 1.524 . S
C551 C555 1.400 . S
C552 H537 0.960 . S
C552 H538 0.960 . S
C552 H539 0.960 . S
C552 C551 1.524 . S
C553 C550 1.403 . S
C553 C554 1.392 . S
C553 C557 1.495 . S
C554 C553 1.392 . S
C554 C555 1.385 . S
C554 C556 1.478 . S
C555 H549 0.930 . S
C555 C551 1.400 . S
C555 C554 1.385 . S
C556 C554 1.478 . S
C556 C558 1.381 . S
C556 C562 1.383 . S
C557 C553 1.495 . S
C557 H563 0.959 . S
C557 H564 0.961 . S
C557 H565 0.960 . S
C558 C556 1.381 . S
C558 C559 1.394 . S
C558 H566 0.930 . S
C559 C558 1.394 . S
C559 C560 1.383 . S
C559 H567 0.929 . S
C560 C559 1.383 . S
C560 C561 1.377 . S
C561 H545 0.930 . S
C561 C560 1.377 . S
C561 C562 1.379 . S
C562 H546 0.931 . S
C562 C556 1.383 . S
C562 C561 1.379 . S
H563 C557 0.959 . S
H564 C557 0.961 . S
H565 C557 0.960 . S
H566 C558 0.930 . S
H567 C559 0.929 . S
H568 C576 0.929 . S
H569 C578 0.930 . S
H570 C580 0.930 . S
H571 C583 0.929 . S
H572 C586 0.930 . S
H573 C588 0.960 . S
H574 C588 0.960 . S
H575 C588 0.960 . S
C576 H568 0.929 . S
C576 C577 1.377 . S
C576 C578 1.384 . S
C577 C576 1.377 . S
C577 C583 1.390 . S
C578 H569 0.930 . S
C578 C576 1.384 . S
C578 C579 1.372 . S
C579 C578 1.372 . S
C579 C580 1.400 . S
C579 C584 1.490 . S
C580 H570 0.930 . S
C580 C579 1.400 . S
C580 C583 1.386 . S
H581 C597 0.930 . S
H582 C598 0.931 . S
C583 H571 0.929 . S
C583 C577 1.390 . S
C583 C580 1.386 . S
C584 C579 1.490 . S
C584 C586 1.395 . S
C584 C587 1.403 . S
H585 C591 0.930 . S
C586 H572 0.930 . S
C586 C584 1.395 . S
C586 C589 1.403 . S
C587 C584 1.403 . S
C587 C588 1.524 . S
C587 C591 1.400 . S
C588 H573 0.960 . S
C588 H574 0.960 . S
C588 H575 0.960 . S
C588 C587 1.524 . S
C589 C586 1.403 . S
C589 C590 1.392 . S
C589 C593 1.495 . S
C590 C589 1.392 . S
C590 C591 1.385 . S
C590 C592 1.478 . S
C591 H585 0.930 . S
C591 C587 1.400 . S
C591 C590 1.385 . S
C592 C590 1.478 . S
C592 C594 1.381 . S
C592 C598 1.383 . S
C593 C589 1.495 . S
C593 H599 0.959 . S
C593 H600 0.961 . S
C593 H601 0.960 . S
C594 C592 1.381 . S
C594 C595 1.394 . S
C594 H602 0.930 . S
C595 C594 1.394 . S
C595 C596 1.383 . S
C595 H603 0.929 . S
C596 C595 1.383 . S
C596 C597 1.377 . S
C597 H581 0.930 . S
C597 C596 1.377 . S
C597 C598 1.379 . S
C598 H582 0.931 . S
C598 C592 1.383 . S
C598 C597 1.379 . S
H599 C593 0.959 . S
H600 C593 0.961 . S
H601 C593 0.960 . S
H602 C594 0.930 . S
H603 C595 0.929 . S
H604 C612 0.929 . S
H605 C614 0.930 . S
H606 C616 0.930 . S
H607 C619 0.929 . S
H608 C622 0.930 . S
H609 C624 0.960 . S
H610 C624 0.960 . S
H611 C624 0.960 . S
C612 H604 0.929 . S
C612 C613 1.377 . S
C612 C614 1.384 . S
C613 C612 1.377 . S
C613 C619 1.390 . S
C614 H605 0.930 . S
C614 C612 1.384 . S
C614 C615 1.372 . S
C615 C614 1.372 . S
C615 C616 1.400 . S
C615 C620 1.490 . S
C616 H606 0.930 . S
C616 C615 1.400 . S
C616 C619 1.386 . S
H617 C633 0.930 . S
H618 C634 0.931 . S
C619 H607 0.929 . S
C619 C613 1.390 . S
C619 C616 1.386 . S
C620 C615 1.490 . S
C620 C622 1.395 . S
C620 C623 1.403 . S
H621 C627 0.930 . S
C622 H608 0.930 . S
C622 C620 1.395 . S
C622 C625 1.403 . S
C623 C620 1.403 . S
C623 C624 1.524 . S
C623 C627 1.400 . S
C624 H609 0.960 . S
C624 H610 0.960 . S
C624 H611 0.960 . S
C624 C623 1.524 . S
C625 C622 1.403 . S
C625 C626 1.392 . S
C625 C629 1.495 . S
C626 C625 1.392 . S
C626 C627 1.385 . S
C626 C628 1.478 . S
C627 H621 0.930 . S
C627 C623 1.400 . S
C627 C626 1.385 . S
C628 C626 1.478 . S
C628 C630 1.381 . S
C628 C634 1.383 . S
C629 C625 1.495 . S
C629 H635 0.959 . S
C629 H636 0.961 . S
C629 H637 0.960 . S
C630 C628 1.381 . S
C630 C631 1.394 . S
C630 H638 0.930 . S
C631 C630 1.394 . S
C631 C632 1.383 . S
C631 H639 0.929 . S
C632 C631 1.383 . S
C632 C633 1.377 . S
C633 H617 0.930 . S
C633 C632 1.377 . S
C633 C634 1.379 . S
C634 H618 0.931 . S
C634 C628 1.383 . S
C634 C633 1.379 . S
H635 C629 0.959 . S
H636 C629 0.961 . S
H637 C629 0.960 . S
H638 C630 0.930 . S
H639 C631 0.929 . S
H640 C648 0.929 . S
H641 C650 0.930 . S
H642 C652 0.930 . S
H643 C655 0.929 . S
H644 C658 0.930 . S
H645 C660 0.960 . S
H646 C660 0.960 . S
H647 C660 0.960 . S
C648 H640 0.929 . S
C648 C649 1.377 . S
C648 C650 1.384 . S
C649 C648 1.377 . S
C649 C655 1.390 . S
C650 H641 0.930 . S
C650 C648 1.384 . S
C650 C651 1.372 . S
C651 C650 1.372 . S
C651 C652 1.400 . S
C651 C656 1.490 . S
C652 H642 0.930 . S
C652 C651 1.400 . S
C652 C655 1.386 . S
H653 C669 0.930 . S
H654 C670 0.931 . S
C655 H643 0.929 . S
C655 C649 1.390 . S
C655 C652 1.386 . S
C656 C651 1.490 . S
C656 C658 1.395 1_554 S
C656 C659 1.403 . S
H657 C663 0.930 . S
C658 H644 0.930 . S
C658 C656 1.395 1_556 S
C658 C661 1.403 . S
C659 C656 1.403 . S
C659 C660 1.524 . S
C659 C663 1.400 . S
C660 H645 0.960 . S
C660 H646 0.960 . S
C660 H647 0.960 . S
C660 C659 1.524 . S
C661 C658 1.403 . S
C661 C662 1.392 . S
C661 C665 1.495 . S
C662 C661 1.392 . S
C662 C663 1.385 1_556 S
C662 C664 1.478 . S
C663 H657 0.930 . S
C663 C659 1.400 . S
C663 C662 1.385 1_554 S
C664 C662 1.478 . S
C664 C666 1.381 . S
C664 C670 1.383 . S
C665 C661 1.495 . S
C665 H671 0.959 . S
C665 H672 0.961 . S
C665 H673 0.960 . S
C666 C664 1.381 . S
C666 C667 1.394 . S
C666 H674 0.930 . S
C667 C666 1.394 . S
C667 C668 1.383 . S
C667 H675 0.929 . S
C668 C667 1.383 . S
C668 C669 1.377 . S
C669 H653 0.930 . S
C669 C668 1.377 . S
C669 C670 1.379 . S
C670 H654 0.931 . S
C670 C664 1.383 . S
C670 C669 1.379 . S
H671 C665 0.959 . S
H672 C665 0.961 . S
H673 C665 0.960 . S
H674 C666 0.930 . S
H675 C667 0.929 . S
H676 C684 0.929 . S
H677 C686 0.930 . S
H678 C688 0.930 . S
H679 C691 0.929 . S
H680 C694 0.930 . S
H681 C696 0.960 . S
H682 C696 0.960 . S
H683 C696 0.960 . S
C684 H676 0.929 . S
C684 C685 1.377 . S
C684 C686 1.384 . S
C685 C684 1.377 . S
C685 C691 1.390 . S
C686 H677 0.930 . S
C686 C684 1.384 . S
C686 C687 1.372 . S
C687 C686 1.372 . S
C687 C688 1.400 . S
C687 C692 1.490 . S
C688 H678 0.930 . S
C688 C687 1.400 . S
C688 C691 1.386 . S
H689 C705 0.930 . S
H690 C706 0.931 . S
C691 H679 0.929 . S
C691 C685 1.390 . S
C691 C688 1.386 . S
C692 C687 1.490 . S
C692 C694 1.395 . S
C692 C695 1.403 1_455 S
H693 C699 0.930 . S
C694 H680 0.930 . S
C694 C692 1.395 . S
C694 C697 1.403 . S
C695 C692 1.403 1_655 S
C695 C696 1.524 . S
C695 C699 1.400 . S
C696 H681 0.960 . S
C696 H682 0.960 . S
C696 H683 0.960 . S
C696 C695 1.524 . S
C697 C694 1.403 . S
C697 C698 1.392 1_455 S
C697 C701 1.495 . S
C698 C697 1.392 1_655 S
C698 C699 1.385 . S
C698 C700 1.478 . S
C699 H693 0.930 . S
C699 C695 1.400 . S
C699 C698 1.385 . S
C700 C698 1.478 . S
C700 C702 1.381 . S
C700 C706 1.383 . S
C701 C697 1.495 . S
C701 H707 0.959 . S
C701 H708 0.961 . S
C701 H709 0.960 . S
C702 C700 1.381 . S
C702 C703 1.394 . S
C702 H710 0.930 . S
C703 C702 1.394 . S
C703 C704 1.383 . S
C703 H711 0.929 . S
C704 C703 1.383 . S
C704 C705 1.377 . S
C705 H689 0.930 . S
C705 C704 1.377 . S
C705 C706 1.379 . S
C706 H690 0.931 . S
C706 C700 1.383 . S
C706 C705 1.379 . S
H707 C701 0.959 . S
H708 C701 0.961 . S
H709 C701 0.960 . S
H710 C702 0.930 . S
H711 C703 0.929 . S
H712 C720 0.929 . S
H713 C722 0.930 . S
H714 C724 0.930 . S
H715 C727 0.929 . S
H716 C730 0.930 . S
H717 C732 0.960 . S
H718 C732 0.960 . S
H719 C732 0.960 . S
C720 H712 0.929 . S
C720 C721 1.377 . S
C720 C722 1.384 . S
C721 C720 1.377 . S
C721 C727 1.390 . S
C722 H713 0.930 . S
C722 C720 1.384 . S
C722 C723 1.372 . S
C723 C722 1.372 . S
C723 C724 1.400 . S
C723 C728 1.490 . S
C724 H714 0.930 . S
C724 C723 1.400 . S
C724 C727 1.386 . S
H725 C741 0.930 . S
H726 C742 0.931 . S
C727 H715 0.929 . S
C727 C721 1.390 . S
C727 C724 1.386 . S
C728 C723 1.490 . S
C728 C730 1.395 1_554 S
C728 C731 1.403 1_455 S
H729 C735 0.930 . S
C730 H716 0.930 . S
C730 C728 1.395 1_556 S
C730 C733 1.403 . S
C731 C728 1.403 1_655 S
C731 C732 1.524 . S
C731 C735 1.400 . S
C732 H717 0.960 . S
C732 H718 0.960 . S
C732 H719 0.960 . S
C732 C731 1.524 . S
C733 C730 1.403 . S
C733 C734 1.392 1_455 S
C733 C737 1.495 . S
C734 C733 1.392 1_655 S
C734 C735 1.385 1_556 S
C734 C736 1.478 . S
C735 H729 0.930 . S
C735 C731 1.400 . S
C735 C734 1.385 1_554 S
C736 C734 1.478 . S
C736 C738 1.381 . S
C736 C742 1.383 . S
C737 C733 1.495 . S
C737 H743 0.959 . S
C737 H744 0.961 . S
C737 H745 0.960 . S
C738 C736 1.381 . S
C738 C739 1.394 . S
C738 H746 0.930 . S
C739 C738 1.394 . S
C739 C740 1.383 . S
C739 H747 0.929 . S
C740 C739 1.383 . S
C740 C741 1.377 . S
C741 H725 0.930 . S
C741 C740 1.377 . S
C741 C742 1.379 . S
C742 H726 0.931 . S
C742 C736 1.383 . S
C742 C741 1.379 . S
H743 C737 0.959 . S
H744 C737 0.961 . S
H745 C737 0.960 . S
H746 C738 0.930 . S
H747 C739 0.929 . S
H748 C756 0.929 . S
H749 C758 0.930 . S
H750 C760 0.930 . S
H751 C763 0.929 . S
H752 C766 0.930 . S
H753 C768 0.960 . S
H754 C768 0.960 . S
H755 C768 0.960 . S
C756 H748 0.929 . S
C756 C757 1.377 . S
C756 C758 1.384 . S
C757 C756 1.377 . S
C757 C763 1.390 . S
C758 H749 0.930 . S
C758 C756 1.384 . S
C758 C759 1.372 . S
C759 C758 1.372 . S
C759 C760 1.400 . S
C759 C764 1.490 . S
C760 H750 0.930 . S
C760 C759 1.400 . S
C760 C763 1.386 . S
H761 C777 0.930 . S
H762 C778 0.931 . S
C763 H751 0.929 . S
C763 C757 1.390 . S
C763 C760 1.386 . S
C764 C759 1.490 . S
C764 C766 1.395 . S
C764 C767 1.403 . S
H765 C771 0.930 . S
C766 H752 0.930 . S
C766 C764 1.395 . S
C766 C769 1.403 . S
C767 C764 1.403 . S
C767 C768 1.524 . S
C767 C771 1.400 . S
C768 H753 0.960 . S
C768 H754 0.960 . S
C768 H755 0.960 . S
C768 C767 1.524 . S
C769 C766 1.403 . S
C769 C770 1.392 . S
C769 C773 1.495 . S
C770 C769 1.392 . S
C770 C771 1.385 . S
C770 C772 1.478 . S
C771 H765 0.930 . S
C771 C767 1.400 . S
C771 C770 1.385 . S
C772 C770 1.478 . S
C772 C774 1.381 . S
C772 C778 1.383 . S
C773 C769 1.495 . S
C773 H779 0.959 . S
C773 H780 0.961 . S
C773 H781 0.960 . S
C774 C772 1.381 . S
C774 C775 1.394 . S
C774 H782 0.930 . S
C775 C774 1.394 . S
C775 C776 1.383 . S
C775 H783 0.929 . S
C776 C775 1.383 . S
C776 C777 1.377 . S
C777 H761 0.930 . S
C777 C776 1.377 . S
C777 C778 1.379 . S
C778 H762 0.931 . S
C778 C772 1.383 . S
C778 C777 1.379 . S
H779 C773 0.959 . S
H780 C773 0.961 . S
H781 C773 0.960 . S
H782 C774 0.930 . S
H783 C775 0.929 . S
H784 C792 0.929 . S
H785 C794 0.930 . S
H786 C796 0.930 . S
H787 C799 0.929 . S
H788 C802 0.930 . S
H789 C804 0.960 . S
H790 C804 0.960 . S
H791 C804 0.960 . S
C792 H784 0.929 . S
C792 C793 1.377 . S
C792 C794 1.384 . S
C793 C792 1.377 . S
C793 C799 1.390 . S
C794 H785 0.930 . S
C794 C792 1.384 . S
C794 C795 1.372 . S
C795 C794 1.372 . S
C795 C796 1.400 . S
C795 C800 1.490 . S
C796 H786 0.930 . S
C796 C795 1.400 . S
C796 C799 1.386 . S
H797 C813 0.930 1_556 S
H798 C814 0.931 . S
C799 H787 0.929 . S
C799 C793 1.390 . S
C799 C796 1.386 . S
C800 C795 1.490 . S
C800 C802 1.395 . S
C800 C803 1.403 . S
H801 C807 0.930 . S
C802 H788 0.930 . S
C802 C800 1.395 . S
C802 C805 1.403 . S
C803 C800 1.403 . S
C803 C804 1.524 . S
C803 C807 1.400 . S
C804 H789 0.960 . S
C804 H790 0.960 . S
C804 H791 0.960 . S
C804 C803 1.524 . S
C805 C802 1.403 . S
C805 C806 1.392 . S
C805 C809 1.495 . S
C806 C805 1.392 . S
C806 C807 1.385 . S
C806 C808 1.478 . S
C807 H801 0.930 . S
C807 C803 1.400 . S
C807 C806 1.385 . S
C808 C806 1.478 . S
C808 C810 1.381 . S
C808 C814 1.383 . S
C809 C805 1.495 . S
C809 H815 0.959 . S
C809 H816 0.961 . S
C809 H817 0.960 . S
C810 C808 1.381 . S
C810 C811 1.394 . S
C810 H818 0.930 . S
C811 C810 1.394 . S
C811 C812 1.383 . S
C811 H819 0.929 . S
C812 C811 1.383 . S
C812 C813 1.377 . S
C813 H797 0.930 1_554 S
C813 C812 1.377 . S
C813 C814 1.379 . S
C814 H798 0.931 . S
C814 C808 1.383 . S
C814 C813 1.379 . S
H815 C809 0.959 . S
H816 C809 0.961 . S
H817 C809 0.960 . S
H818 C810 0.930 . S
H819 C811 0.929 . S
H820 C828 0.929 . S
H821 C830 0.930 . S
H822 C832 0.930 . S
H823 C835 0.929 . S
H824 C838 0.930 . S
H825 C840 0.960 . S
H826 C840 0.960 . S
H827 C840 0.960 . S
C828 H820 0.929 . S
C828 C829 1.377 . S
C828 C830 1.384 . S
C829 C828 1.377 . S
C829 C835 1.390 . S
C830 H821 0.930 . S
C830 C828 1.384 . S
C830 C831 1.372 . S
C831 C830 1.372 . S
C831 C832 1.400 . S
C831 C836 1.490 . S
C832 H822 0.930 . S
C832 C831 1.400 . S
C832 C835 1.386 . S
H833 C849 0.930 . S
H834 C850 0.931 . S
C835 H823 0.929 . S
C835 C829 1.390 . S
C835 C832 1.386 . S
C836 C831 1.490 . S
C836 C838 1.395 . S
C836 C839 1.403 . S
H837 C843 0.930 . S
C838 H824 0.930 . S
C838 C836 1.395 . S
C838 C841 1.403 . S
C839 C836 1.403 . S
C839 C840 1.524 . S
C839 C843 1.400 . S
C840 H825 0.960 . S
C840 H826 0.960 . S
C840 H827 0.960 . S
C840 C839 1.524 . S
C841 C838 1.403 . S
C841 C842 1.392 . S
C841 C845 1.495 . S
C842 C841 1.392 . S
C842 C843 1.385 . S
C842 C844 1.478 . S
C843 H837 0.930 . S
C843 C839 1.400 . S
C843 C842 1.385 . S
C844 C842 1.478 . S
C844 C846 1.381 . S
C844 C850 1.383 . S
C845 C841 1.495 . S
C845 H851 0.959 . S
C845 H852 0.961 . S
C845 H853 0.960 . S
C846 C844 1.381 . S
C846 C847 1.394 . S
C846 H854 0.930 . S
C847 C846 1.394 . S
C847 C848 1.383 . S
C847 H855 0.929 . S
C848 C847 1.383 . S
C848 C849 1.377 . S
C849 H833 0.930 . S
C849 C848 1.377 . S
C849 C850 1.379 . S
C850 H834 0.931 . S
C850 C844 1.383 . S
C850 C849 1.379 . S
H851 C845 0.959 . S
H852 C845 0.961 . S
H853 C845 0.960 . S
H854 C846 0.930 . S
H855 C847 0.929 . S
H856 C864 0.929 . S
H857 C866 0.930 . S
H858 C868 0.930 . S
H859 C871 0.929 . S
H860 C874 0.930 . S
H861 C876 0.960 . S
H862 C876 0.960 . S
H863 C876 0.960 . S
C864 H856 0.929 . S
C864 C865 1.377 . S
C864 C866 1.384 . S
C865 C864 1.377 . S
C865 C871 1.390 . S
C866 H857 0.930 . S
C866 C864 1.384 . S
C866 C867 1.372 . S
C867 C866 1.372 . S
C867 C868 1.400 . S
C867 C872 1.490 . S
C868 H858 0.930 . S
C868 C867 1.400 . S
C868 C871 1.386 . S
H869 C885 0.930 . S
H870 C886 0.931 . S
C871 H859 0.929 . S
C871 C865 1.390 . S
C871 C868 1.386 . S
C872 C867 1.490 . S
C872 C874 1.395 . S
C872 C875 1.403 . S
H873 C879 0.930 . S
C874 H860 0.930 . S
C874 C872 1.395 . S
C874 C877 1.403 . S
C875 C872 1.403 . S
C875 C876 1.524 . S
C875 C879 1.400 . S
C876 H861 0.960 . S
C876 H862 0.960 . S
C876 H863 0.960 . S
C876 C875 1.524 . S
C877 C874 1.403 . S
C877 C878 1.392 . S
C877 C881 1.495 . S
C878 C877 1.392 . S
C878 C879 1.385 . S
C878 C880 1.478 . S
C879 H873 0.930 . S
C879 C875 1.400 . S
C879 C878 1.385 . S
C880 C878 1.478 . S
C880 C882 1.381 . S
C880 C886 1.383 . S
C881 C877 1.495 . S
C881 H887 0.959 . S
C881 H888 0.961 . S
C881 H889 0.960 . S
C882 C880 1.381 . S
C882 C883 1.394 . S
C882 H890 0.930 . S
C883 C882 1.394 . S
C883 C884 1.383 . S
C883 H891 0.929 . S
C884 C883 1.383 . S
C884 C885 1.377 . S
C885 H869 0.930 . S
C885 C884 1.377 . S
C885 C886 1.379 . S
C886 H870 0.931 . S
C886 C880 1.383 . S
C886 C885 1.379 . S
H887 C881 0.959 . S
H888 C881 0.961 . S
H889 C881 0.960 . S
H890 C882 0.930 . S
H891 C883 0.929 . S
H892 C900 0.929 1_554 S
H893 C902 0.930 . S
H894 C904 0.930 . S
H895 C907 0.929 . S
H896 C910 0.930 . S
H897 C912 0.960 . S
H898 C912 0.960 . S
H899 C912 0.960 . S
C900 H892 0.929 1_556 S
C900 C901 1.377 . S
C900 C902 1.384 . S
C901 C900 1.377 . S
C901 C907 1.390 . S
C902 H893 0.930 . S
C902 C900 1.384 . S
C902 C903 1.372 . S
C903 C902 1.372 . S
C903 C904 1.400 . S
C903 C908 1.490 . S
C904 H894 0.930 . S
C904 C903 1.400 . S
C904 C907 1.386 . S
H905 C921 0.930 . S
H906 C922 0.931 . S
C907 H895 0.929 . S
C907 C901 1.390 . S
C907 C904 1.386 . S
C908 C903 1.490 . S
C908 C910 1.395 . S
C908 C911 1.403 . S
H909 C915 0.930 . S
C910 H896 0.930 . S
C910 C908 1.395 . S
C910 C913 1.403 . S
C911 C908 1.403 . S
C911 C912 1.524 . S
C911 C915 1.400 . S
C912 H897 0.960 . S
C912 H898 0.960 . S
C912 H899 0.960 . S
C912 C911 1.524 . S
C913 C910 1.403 . S
C913 C914 1.392 . S
C913 C917 1.495 . S
C914 C913 1.392 . S
C914 C915 1.385 . S
C914 C916 1.478 . S
C915 H909 0.930 . S
C915 C911 1.400 . S
C915 C914 1.385 . S
C916 C914 1.478 . S
C916 C918 1.381 . S
C916 C922 1.383 . S
C917 C913 1.495 . S
C917 H923 0.959 . S
C917 H924 0.961 . S
C917 H925 0.960 . S
C918 C916 1.381 . S
C918 C919 1.394 . S
C918 H926 0.930 . S
C919 C918 1.394 . S
C919 C920 1.383 . S
C919 H927 0.929 . S
C920 C919 1.383 . S
C920 C921 1.377 . S
C921 H905 0.930 . S
C921 C920 1.377 . S
C921 C922 1.379 . S
C922 H906 0.931 . S
C922 C916 1.383 . S
C922 C921 1.379 . S
H923 C917 0.959 . S
H924 C917 0.961 . S
H925 C917 0.960 . S
H926 C918 0.930 . S
H927 C919 0.929 . S
H928 C936 0.929 . S
H929 C938 0.930 . S
H930 C940 0.930 . S
H931 C943 0.929 . S
H932 C946 0.930 . S
H933 C948 0.960 . S
H934 C948 0.960 . S
H935 C948 0.960 . S
C936 H928 0.929 . S
C936 C937 1.377 . S
C936 C938 1.384 . S
C937 C936 1.377 . S
C937 C943 1.390 . S
C938 H929 0.930 . S
C938 C936 1.384 . S
C938 C939 1.372 . S
C939 C938 1.372 . S
C939 C940 1.400 . S
C939 C944 1.490 . S
C940 H930 0.930 . S
C940 C939 1.400 . S
C940 C943 1.386 . S
H941 C957 0.930 . S
H942 C958 0.931 . S
C943 H931 0.929 . S
C943 C937 1.390 . S
C943 C940 1.386 . S
C944 C939 1.490 . S
C944 C946 1.395 . S
C944 C947 1.403 . S
H945 C951 0.930 . S
C946 H932 0.930 . S
C946 C944 1.395 . S
C946 C949 1.403 . S
C947 C944 1.403 . S
C947 C948 1.524 . S
C947 C951 1.400 . S
C948 H933 0.960 . S
C948 H934 0.960 . S
C948 H935 0.960 . S
C948 C947 1.524 . S
C949 C946 1.403 . S
C949 C950 1.392 . S
C949 C953 1.495 . S
C950 C949 1.392 . S
C950 C951 1.385 . S
C950 C952 1.478 . S
C951 H945 0.930 . S
C951 C947 1.400 . S
C951 C950 1.385 . S
C952 C950 1.478 . S
C952 C954 1.381 . S
C952 C958 1.383 . S
C953 C949 1.495 . S
C953 H959 0.959 . S
C953 H960 0.961 . S
C953 H961 0.960 . S
C954 C952 1.381 . S
C954 C955 1.394 . S
C954 H962 0.930 . S
C955 C954 1.394 . S
C955 C956 1.383 . S
C955 H963 0.929 . S
C956 C955 1.383 . S
C956 C957 1.377 . S
C957 H941 0.930 . S
C957 C956 1.377 . S
C957 C958 1.379 . S
C958 H942 0.931 . S
C958 C952 1.383 . S
C958 C957 1.379 . S
H959 C953 0.959 . S
H960 C953 0.961 . S
H961 C953 0.960 . S
H962 C954 0.930 . S
H963 C955 0.929 . S
H964 C972 0.929 . S
H965 C974 0.930 . S
H966 C976 0.930 . S
H967 C979 0.929 . S
H968 C982 0.930 . S
H969 C984 0.960 . S
H970 C984 0.960 . S
H971 C984 0.960 . S
C972 H964 0.929 . S
C972 C973 1.377 . S
C972 C974 1.384 . S
C973 C972 1.377 . S
C973 C979 1.390 . S
C974 H965 0.930 . S
C974 C972 1.384 . S
C974 C975 1.372 . S
C975 C974 1.372 . S
C975 C976 1.400 . S
C975 C980 1.490 . S
C976 H966 0.930 . S
C976 C975 1.400 . S
C976 C979 1.386 . S
H977 C993 0.930 . S
H978 C994 0.931 . S
C979 H967 0.929 . S
C979 C973 1.390 . S
C979 C976 1.386 . S
C980 C975 1.490 . S
C980 C982 1.395 . S
C980 C983 1.403 . S
H981 C987 0.930 . S
C982 H968 0.930 . S
C982 C980 1.395 . S
C982 C985 1.403 . S
C983 C980 1.403 . S
C983 C984 1.524 . S
C983 C987 1.400 . S
C984 H969 0.960 . S
C984 H970 0.960 . S
C984 H971 0.960 . S
C984 C983 1.524 . S
C985 C982 1.403 . S
C985 C986 1.392 . S
C985 C989 1.495 . S
C986 C985 1.392 . S
C986 C987 1.385 . S
C986 C988 1.478 . S
C987 H981 0.930 . S
C987 C983 1.400 . S
C987 C986 1.385 . S
C988 C986 1.478 . S
C988 C990 1.381 . S
C988 C994 1.383 . S
C989 C985 1.495 . S
C989 H995 0.959 . S
C989 H996 0.961 . S
C989 H997 0.960 . S
C990 C988 1.381 . S
C990 C991 1.394 . S
C990 H998 0.930 . S
C991 C990 1.394 . S
C991 C992 1.383 . S
C991 H999 0.929 . S
C992 C991 1.383 . S
C992 C993 1.377 . S
C993 H977 0.930 . S
C993 C992 1.377 . S
C993 C994 1.379 . S
C994 H978 0.931 . S
C994 C988 1.383 . S
C994 C993 1.379 . S
H995 C989 0.959 . S
H996 C989 0.961 . S
H997 C989 0.960 . S
H998 C990 0.930 . S
H999 C991 0.929 . S
H1000 C1008 0.929 . S
H1001 C1010 0.930 . S
H1002 C1012 0.930 . S
H1003 C1015 0.929 . S
H1004 C1018 0.930 . S
H1005 C1020 0.960 . S
H1006 C1020 0.960 . S
H1007 C1020 0.960 . S
C1008 H1000 0.929 . S
C1008 C1009 1.377 . S
C1008 C1010 1.384 . S
C1009 C1008 1.377 . S
C1009 C1015 1.390 . S
C1010 H1001 0.930 . S
C1010 C1008 1.384 . S
C1010 C1011 1.372 . S
C1011 C1010 1.372 . S
C1011 C1012 1.400 . S
C1011 C1016 1.490 . S
C1012 H1002 0.930 . S
C1012 C1011 1.400 . S
C1012 C1015 1.386 . S
H1013 C1029 0.930 . S
H1014 C1030 0.931 . S
C1015 H1003 0.929 . S
C1015 C1009 1.390 . S
C1015 C1012 1.386 . S
C1016 C1011 1.490 . S
C1016 C1018 1.395 . S
C1016 C1019 1.403 . S
H1017 C1023 0.930 . S
C1018 H1004 0.930 . S
C1018 C1016 1.395 . S
C1018 C1021 1.403 . S
C1019 C1016 1.403 . S
C1019 C1020 1.524 . S
C1019 C1023 1.400 . S
C1020 H1005 0.960 . S
C1020 H1006 0.960 . S
C1020 H1007 0.960 . S
C1020 C1019 1.524 . S
C1021 C1018 1.403 . S
C1021 C1022 1.392 . S
C1021 C1025 1.495 . S
C1022 C1021 1.392 . S
C1022 C1023 1.385 . S
C1022 C1024 1.478 . S
C1023 H1017 0.930 . S
C1023 C1019 1.400 . S
C1023 C1022 1.385 . S
C1024 C1022 1.478 . S
C1024 C1026 1.381 . S
C1024 C1030 1.383 . S
C1025 C1021 1.495 . S
C1025 H1031 0.959 . S
C1025 H1032 0.961 . S
C1025 H1033 0.960 . S
C1026 C1024 1.381 . S
C1026 C1027 1.394 . S
C1026 H1034 0.930 . S
C1027 C1026 1.394 . S
C1027 C1028 1.383 . S
C1027 H1035 0.929 1_556 S
C1028 C1027 1.383 . S
C1028 C1029 1.377 . S
C1029 H1013 0.930 . S
C1029 C1028 1.377 . S
C1029 C1030 1.379 . S
C1030 H1014 0.931 . S
C1030 C1024 1.383 . S
C1030 C1029 1.379 . S
H1031 C1025 0.959 . S
H1032 C1025 0.961 . S
H1033 C1025 0.960 . S
H1034 C1026 0.930 . S
H1035 C1027 0.929 1_554 S
H1036 C1044 0.929 . S
H1037 C1046 0.930 . S
H1038 C1048 0.930 . S
H1039 C1051 0.929 1_556 S
H1040 C1054 0.930 . S
H1041 C1056 0.960 . S
H1042 C1056 0.960 . S
H1043 C1056 0.960 . S
C1044 H1036 0.929 . S
C1044 C1045 1.377 . S
C1044 C1046 1.384 . S
C1045 C1044 1.377 . S
C1045 C1051 1.390 . S
C1046 H1037 0.930 . S
C1046 C1044 1.384 . S
C1046 C1047 1.372 . S
C1047 C1046 1.372 . S
C1047 C1048 1.400 . S
C1047 C1052 1.490 . S
C1048 H1038 0.930 . S
C1048 C1047 1.400 . S
C1048 C1051 1.386 . S
H1049 C1065 0.930 . S
H1050 C1066 0.931 . S
C1051 H1039 0.929 1_554 S
C1051 C1045 1.390 . S
C1051 C1048 1.386 . S
C1052 C1047 1.490 . S
C1052 C1054 1.395 . S
C1052 C1055 1.403 . S
H1053 C1059 0.930 . S
C1054 H1040 0.930 . S
C1054 C1052 1.395 . S
C1054 C1057 1.403 . S
C1055 C1052 1.403 . S
C1055 C1056 1.524 . S
C1055 C1059 1.400 . S
C1056 H1041 0.960 . S
C1056 H1042 0.960 . S
C1056 H1043 0.960 . S
C1056 C1055 1.524 . S
C1057 C1054 1.403 . S
C1057 C1058 1.392 . S
C1057 C1061 1.495 . S
C1058 C1057 1.392 . S
C1058 C1059 1.385 . S
C1058 C1060 1.478 . S
C1059 H1053 0.930 . S
C1059 C1055 1.400 . S
C1059 C1058 1.385 . S
C1060 C1058 1.478 . S
C1060 C1062 1.381 . S
C1060 C1066 1.383 . S
C1061 C1057 1.495 . S
C1061 H1067 0.959 . S
C1061 H1068 0.961 . S
C1061 H1069 0.960 . S
C1062 C1060 1.381 . S
C1062 C1063 1.394 . S
C1062 H1070 0.930 . S
C1063 C1062 1.394 . S
C1063 C1064 1.383 . S
C1063 H1071 0.929 . S
C1064 C1063 1.383 . S
C1064 C1065 1.377 . S
C1065 H1049 0.930 . S
C1065 C1064 1.377 . S
C1065 C1066 1.379 . S
C1066 H1050 0.931 . S
C1066 C1060 1.383 . S
C1066 C1065 1.379 . S
H1067 C1061 0.959 . S
H1068 C1061 0.961 . S
H1069 C1061 0.960 . S
H1070 C1062 0.930 . S
H1071 C1063 0.929 . S
H1072 C1080 0.929 1_554 S
H1073 C1082 0.930 . S
H1074 C1084 0.930 . S
H1075 C1087 0.929 . S
H1076 C1090 0.930 . S
H1077 C1092 0.960 . S
H1078 C1092 0.960 . S
H1079 C1092 0.960 . S
C1080 H1072 0.929 1_556 S
C1080 C1081 1.377 . S
C1080 C1082 1.384 . S
C1081 C1080 1.377 . S
C1081 C1087 1.390 . S
C1082 H1073 0.930 . S
C1082 C1080 1.384 . S
C1082 C1083 1.372 . S
C1083 C1082 1.372 . S
C1083 C1084 1.400 . S
C1083 C1088 1.490 . S
C1084 H1074 0.930 . S
C1084 C1083 1.400 . S
C1084 C1087 1.386 . S
H1085 C1101 0.930 . S
H1086 C1102 0.931 . S
C1087 H1075 0.929 . S
C1087 C1081 1.390 . S
C1087 C1084 1.386 . S
C1088 C1083 1.490 . S
C1088 C1090 1.395 . S
C1088 C1091 1.403 . S
H1089 C1095 0.930 . S
C1090 H1076 0.930 . S
C1090 C1088 1.395 . S
C1090 C1093 1.403 . S
C1091 C1088 1.403 . S
C1091 C1092 1.524 . S
C1091 C1095 1.400 . S
C1092 H1077 0.960 . S
C1092 H1078 0.960 . S
C1092 H1079 0.960 . S
C1092 C1091 1.524 . S
C1093 C1090 1.403 . S
C1093 C1094 1.392 . S
C1093 C1097 1.495 . S
C1094 C1093 1.392 . S
C1094 C1095 1.385 . S
C1094 C1096 1.478 . S
C1095 H1089 0.930 . S
C1095 C1091 1.400 . S
C1095 C1094 1.385 . S
C1096 C1094 1.478 . S
C1096 C1098 1.381 . S
C1096 C1102 1.383 . S
C1097 C1093 1.495 . S
C1097 H1103 0.959 . S
C1097 H1104 0.961 . S
C1097 H1105 0.960 . S
C1098 C1096 1.381 . S
C1098 C1099 1.394 . S
C1098 H1106 0.930 . S
C1099 C1098 1.394 . S
C1099 C1100 1.383 . S
C1099 H1107 0.929 . S
C1100 C1099 1.383 . S
C1100 C1101 1.377 . S
C1101 H1085 0.930 . S
C1101 C1100 1.377 . S
C1101 C1102 1.379 . S
C1102 H1086 0.931 . S
C1102 C1096 1.383 . S
C1102 C1101 1.379 . S
H1103 C1097 0.959 . S
H1104 C1097 0.961 . S
H1105 C1097 0.960 . S
H1106 C1098 0.930 . S
H1107 C1099 0.929 . S
H1108 C1116 0.929 . S
H1109 C1118 0.930 . S
H1110 C1120 0.930 . S
H1111 C1123 0.929 . S
H1112 C1126 0.930 . S
H1113 C1128 0.960 . S
H1114 C1128 0.960 . S
H1115 C1128 0.960 . S
C1116 H1108 0.929 . S
C1116 C1117 1.377 . S
C1116 C1118 1.384 . S
C1117 C1116 1.377 . S
C1117 C1123 1.390 . S
C1118 H1109 0.930 . S
C1118 C1116 1.384 . S
C1118 C1119 1.372 . S
C1119 C1118 1.372 . S
C1119 C1120 1.400 . S
C1119 C1124 1.490 . S
C1120 H1110 0.930 . S
C1120 C1119 1.400 . S
C1120 C1123 1.386 . S
H1121 C1137 0.930 . S
H1122 C1138 0.931 . S
C1123 H1111 0.929 . S
C1123 C1117 1.390 . S
C1123 C1120 1.386 . S
C1124 C1119 1.490 . S
C1124 C1126 1.395 . S
C1124 C1127 1.403 . S
H1125 C1131 0.930 . S
C1126 H1112 0.930 . S
C1126 C1124 1.395 . S
C1126 C1129 1.403 . S
C1127 C1124 1.403 . S
C1127 C1128 1.524 . S
C1127 C1131 1.400 . S
C1128 H1113 0.960 . S
C1128 H1114 0.960 . S
C1128 H1115 0.960 . S
C1128 C1127 1.524 . S
C1129 C1126 1.403 . S
C1129 C1130 1.392 . S
C1129 C1133 1.495 . S
C1130 C1129 1.392 . S
C1130 C1131 1.385 . S
C1130 C1132 1.478 . S
C1131 H1125 0.930 . S
C1131 C1127 1.400 . S
C1131 C1130 1.385 . S
C1132 C1130 1.478 . S
C1132 C1134 1.381 . S
C1132 C1138 1.383 . S
C1133 C1129 1.495 . S
C1133 H1139 0.959 . S
C1133 H1140 0.961 . S
C1133 H1141 0.960 . S
C1134 C1132 1.381 . S
C1134 C1135 1.394 . S
C1134 H1142 0.930 . S
C1135 C1134 1.394 . S
C1135 C1136 1.383 . S
C1135 H1143 0.929 . S
C1136 C1135 1.383 . S
C1136 C1137 1.377 . S
C1137 H1121 0.930 . S
C1137 C1136 1.377 . S
C1137 C1138 1.379 . S
C1138 H1122 0.931 . S
C1138 C1132 1.383 . S
C1138 C1137 1.379 . S
H1139 C1133 0.959 . S
H1140 C1133 0.961 . S
H1141 C1133 0.960 . S
H1142 C1134 0.930 . S
H1143 C1135 0.929 . S
H1144 C1152 0.929 . S
H1145 C1154 0.930 . S
H1146 C1156 0.930 . S
H1147 C1159 0.929 . S
H1148 C1162 0.930 . S
H1149 C1164 0.960 . S
H1150 C1164 0.960 . S
H1151 C1164 0.960 . S
C1152 H1144 0.929 . S
C1152 C1153 1.377 . S
C1152 C1154 1.384 . S
C1153 C1152 1.377 . S
C1153 C1159 1.390 . S
C1154 H1145 0.930 . S
C1154 C1152 1.384 . S
C1154 C1155 1.372 . S
C1155 C1154 1.372 . S
C1155 C1156 1.400 . S
C1155 C1160 1.490 . S
C1156 H1146 0.930 . S
C1156 C1155 1.400 . S
C1156 C1159 1.386 . S
H1157 C1173 0.930 . S
H1158 C1174 0.931 . S
C1159 H1147 0.929 . S
C1159 C1153 1.390 . S
C1159 C1156 1.386 . S
C1160 C1155 1.490 . S
C1160 C1162 1.395 . S
C1160 C1163 1.403 . S
H1161 C1167 0.930 . S
C1162 H1148 0.930 . S
C1162 C1160 1.395 . S
C1162 C1165 1.403 . S
C1163 C1160 1.403 . S
C1163 C1164 1.524 . S
C1163 C1167 1.400 . S
C1164 H1149 0.960 . S
C1164 H1150 0.960 . S
C1164 H1151 0.960 . S
C1164 C1163 1.524 . S
C1165 C1162 1.403 . S
C1165 C1166 1.392 . S
C1165 C1169 1.495 . S
C1166 C1165 1.392 . S
C1166 C1167 1.385 . S
C1166 C1168 1.478 . S
C1167 H1161 0.930 . S
C1167 C1163 1.400 . S
C1167 C1166 1.385 . S
C1168 C1166 1.478 . S
C1168 C1170 1.381 . S
C1168 C1174 1.383 . S
C1169 C1165 1.495 . S
C1169 H1175 0.959 . S
C1169 H1176 0.961 . S
C1169 H1177 0.960 . S
C1170 C1168 1.381 . S
C1170 C1171 1.394 . S
C1170 H1178 0.930 . S
C1171 C1170 1.394 . S
C1171 C1172 1.383 . S
C1171 H1179 0.929 . S
C1172 C1171 1.383 . S
C1172 C1173 1.377 . S
C1173 H1157 0.930 . S
C1173 C1172 1.377 . S
C1173 C1174 1.379 . S
C1174 H1158 0.931 . S
C1174 C1168 1.383 . S
C1174 C1173 1.379 . S
H1175 C1169 0.959 . S
H1176 C1169 0.961 . S
H1177 C1169 0.960 . S
H1178 C1170 0.930 . S
H1179 C1171 0.929 . S
H1180 C1188 0.929 . S
H1181 C1190 0.930 . S
H1182 C1192 0.930 . S
H1183 C1195 0.929 . S
H1184 C1198 0.930 . S
H1185 C1200 0.960 . S
H1186 C1200 0.960 . S
H1187 C1200 0.960 . S
C1188 H1180 0.929 . S
C1188 C1189 1.377 . S
C1188 C1190 1.384 . S
C1189 C1188 1.377 . S
C1189 C1195 1.390 . S
C1190 H1181 0.930 . S
C1190 C1188 1.384 . S
C1190 C1191 1.372 . S
C1191 C1190 1.372 . S
C1191 C1192 1.400 . S
C1191 C1196 1.490 . S
C1192 H1182 0.930 . S
C1192 C1191 1.400 . S
C1192 C1195 1.386 . S
H1193 C1209 0.930 . S
H1194 C1210 0.931 . S
C1195 H1183 0.929 . S
C1195 C1189 1.390 . S
C1195 C1192 1.386 . S
C1196 C1191 1.490 . S
C1196 C1198 1.395 . S
C1196 C1199 1.403 . S
H1197 C1203 0.930 . S
C1198 H1184 0.930 . S
C1198 C1196 1.395 . S
C1198 C1201 1.403 . S
C1199 C1196 1.403 . S
C1199 C1200 1.524 . S
C1199 C1203 1.400 . S
C1200 H1185 0.960 . S
C1200 H1186 0.960 . S
C1200 H1187 0.960 . S
C1200 C1199 1.524 . S
C1201 C1198 1.403 . S
C1201 C1202 1.392 . S
C1201 C1205 1.495 . S
C1202 C1201 1.392 . S
C1202 C1203 1.385 . S
C1202 C1204 1.478 . S
C1203 H1197 0.930 . S
C1203 C1199 1.400 . S
C1203 C1202 1.385 . S
C1204 C1202 1.478 . S
C1204 C1206 1.381 . S
C1204 C1210 1.383 . S
C1205 C1201 1.495 . S
C1205 H1211 0.959 . S
C1205 H1212 0.961 . S
C1205 H1213 0.960 . S
C1206 C1204 1.381 . S
C1206 C1207 1.394 . S
C1206 H1214 0.930 . S
C1207 C1206 1.394 . S
C1207 C1208 1.383 . S
C1207 H1215 0.929 . S
C1208 C1207 1.383 . S
C1208 C1209 1.377 . S
C1209 H1193 0.930 . S
C1209 C1208 1.377 . S
C1209 C1210 1.379 . S
C1210 H1194 0.931 . S
C1210 C1204 1.383 . S
C1210 C1209 1.379 . S
H1211 C1205 0.959 . S
H1212 C1205 0.961 . S
H1213 C1205 0.960 . S
H1214 C1206 0.930 . S
H1215 C1207 0.929 . S
H1216 C1224 0.929 . S
H1217 C1226 0.930 . S
H1218 C1228 0.930 . S
H1219 C1231 0.929 . S
H1220 C1234 0.930 . S
H1221 C1236 0.960 . S
H1222 C1236 0.960 . S
H1223 C1236 0.960 . S
C1224 H1216 0.929 . S
C1224 C1225 1.377 . S
C1224 C1226 1.384 . S
C1225 C1224 1.377 . S
C1225 C1231 1.390 . S
C1226 H1217 0.930 . S
C1226 C1224 1.384 . S
C1226 C1227 1.372 . S
C1227 C1226 1.372 . S
C1227 C1228 1.400 . S
C1227 C1232 1.490 . S
C1228 H1218 0.930 . S
C1228 C1227 1.400 . S
C1228 C1231 1.386 . S
H1229 C1245 0.930 . S
H1230 C1246 0.931 . S
C1231 H1219 0.929 . S
C1231 C1225 1.390 . S
C1231 C1228 1.386 . S
C1232 C1227 1.490 . S
C1232 C1234 1.395 . S
C1232 C1235 1.403 . S
H1233 C1239 0.930 . S
C1234 H1220 0.930 . S
C1234 C1232 1.395 . S
C1234 C1237 1.403 . S
C1235 C1232 1.403 . S
C1235 C1236 1.524 . S
C1235 C1239 1.400 . S
C1236 H1221 0.960 . S
C1236 H1222 0.960 . S
C1236 H1223 0.960 . S
C1236 C1235 1.524 . S
C1237 C1234 1.403 . S
C1237 C1238 1.392 . S
C1237 C1241 1.495 . S
C1238 C1237 1.392 . S
C1238 C1239 1.385 . S
C1238 C1240 1.478 . S
C1239 H1233 0.930 . S
C1239 C1235 1.400 . S
C1239 C1238 1.385 . S
C1240 C1238 1.478 . S
C1240 C1242 1.381 . S
C1240 C1246 1.383 . S
C1241 C1237 1.495 . S
C1241 H1247 0.959 . S
C1241 H1248 0.961 . S
C1241 H1249 0.960 . S
C1242 C1240 1.381 . S
C1242 C1243 1.394 . S
C1242 H1250 0.930 . S
C1243 C1242 1.394 . S
C1243 C1244 1.383 . S
C1243 H1251 0.929 . S
C1244 C1243 1.383 . S
C1244 C1245 1.377 . S
C1245 H1229 0.930 . S
C1245 C1244 1.377 . S
C1245 C1246 1.379 . S
C1246 H1230 0.931 . S
C1246 C1240 1.383 . S
C1246 C1245 1.379 . S
H1247 C1241 0.959 . S
H1248 C1241 0.961 . S
H1249 C1241 0.960 . S
H1250 C1242 0.930 . S
H1251 C1243 0.929 . S
H1252 C1260 0.929 . S
H1253 C1262 0.930 . S
H1254 C1264 0.930 . S
H1255 C1267 0.929 . S
H1256 C1270 0.930 . S
H1257 C1272 0.960 . S
H1258 C1272 0.960 . S
H1259 C1272 0.960 . S
C1260 H1252 0.929 . S
C1260 C1261 1.377 . S
C1260 C1262 1.384 . S
C1261 C1260 1.377 . S
C1261 C1267 1.390 . S
C1262 H1253 0.930 . S
C1262 C1260 1.384 . S
C1262 C1263 1.372 . S
C1263 C1262 1.372 . S
C1263 C1264 1.400 . S
C1263 C1268 1.490 . S
C1264 H1254 0.930 . S
C1264 C1263 1.400 . S
C1264 C1267 1.386 . S
H1265 C1281 0.930 . S
H1266 C1282 0.931 . S
C1267 H1255 0.929 . S
C1267 C1261 1.390 . S
C1267 C1264 1.386 . S
C1268 C1263 1.490 . S
C1268 C1270 1.395 . S
C1268 C1271 1.403 . S
H1269 C1275 0.930 . S
C1270 H1256 0.930 . S
C1270 C1268 1.395 . S
C1270 C1273 1.403 . S
C1271 C1268 1.403 . S
C1271 C1272 1.524 . S
C1271 C1275 1.400 . S
C1272 H1257 0.960 . S
C1272 H1258 0.960 . S
C1272 H1259 0.960 . S
C1272 C1271 1.524 . S
C1273 C1270 1.403 . S
C1273 C1274 1.392 . S
C1273 C1277 1.495 . S
C1274 C1273 1.392 . S
C1274 C1275 1.385 . S
C1274 C1276 1.478 . S
C1275 H1269 0.930 . S
C1275 C1271 1.400 . S
C1275 C1274 1.385 . S
C1276 C1274 1.478 . S
C1276 C1278 1.381 . S
C1276 C1282 1.383 . S
C1277 C1273 1.495 . S
C1277 H1283 0.959 . S
C1277 H1284 0.961 . S
C1277 H1285 0.960 . S
C1278 C1276 1.381 . S
C1278 C1279 1.394 . S
C1278 H1286 0.930 . S
C1279 C1278 1.394 . S
C1279 C1280 1.383 . S
C1279 H1287 0.929 . S
C1280 C1279 1.383 . S
C1280 C1281 1.377 . S
C1281 H1265 0.930 . S
C1281 C1280 1.377 . S
C1281 C1282 1.379 . S
C1282 H1266 0.931 . S
C1282 C1276 1.383 . S
C1282 C1281 1.379 . S
H1283 C1277 0.959 . S
H1284 C1277 0.961 . S
H1285 C1277 0.960 . S
H1286 C1278 0.930 . S
H1287 C1279 0.929 . S
H1288 C1296 0.929 . S
H1289 C1298 0.930 . S
H1290 C1300 0.930 . S
H1291 C1303 0.929 . S
H1292 C1306 0.930 . S
H1293 C1308 0.960 . S
H1294 C1308 0.960 . S
H1295 C1308 0.960 . S
C1296 H1288 0.929 . S
C1296 C1297 1.377 . S
C1296 C1298 1.384 . S
C1297 C1296 1.377 . S
C1297 C1303 1.390 . S
C1298 H1289 0.930 . S
C1298 C1296 1.384 . S
C1298 C1299 1.372 . S
C1299 C1298 1.372 . S
C1299 C1300 1.400 . S
C1299 C1304 1.490 . S
C1300 H1290 0.930 . S
C1300 C1299 1.400 . S
C1300 C1303 1.386 . S
H1301 C1317 0.930 1_556 S
H1302 C1318 0.931 . S
C1303 H1291 0.929 . S
C1303 C1297 1.390 . S
C1303 C1300 1.386 . S
C1304 C1299 1.490 . S
C1304 C1306 1.395 . S
C1304 C1307 1.403 . S
H1305 C1311 0.930 . S
C1306 H1292 0.930 . S
C1306 C1304 1.395 . S
C1306 C1309 1.403 . S
C1307 C1304 1.403 . S
C1307 C1308 1.524 . S
C1307 C1311 1.400 . S
C1308 H1293 0.960 . S
C1308 H1294 0.960 . S
C1308 H1295 0.960 . S
C1308 C1307 1.524 . S
C1309 C1306 1.403 . S
C1309 C1310 1.392 . S
C1309 C1313 1.495 . S
C1310 C1309 1.392 . S
C1310 C1311 1.385 . S
C1310 C1312 1.478 . S
C1311 H1305 0.930 . S
C1311 C1307 1.400 . S
C1311 C1310 1.385 . S
C1312 C1310 1.478 . S
C1312 C1314 1.381 . S
C1312 C1318 1.383 . S
C1313 C1309 1.495 . S
C1313 H1319 0.959 . S
C1313 H1320 0.961 . S
C1313 H1321 0.960 . S
C1314 C1312 1.381 . S
C1314 C1315 1.394 . S
C1314 H1322 0.930 . S
C1315 C1314 1.394 . S
C1315 C1316 1.383 . S
C1315 H1323 0.929 . S
C1316 C1315 1.383 . S
C1316 C1317 1.377 . S
C1317 H1301 0.930 1_554 S
C1317 C1316 1.377 . S
C1317 C1318 1.379 . S
C1318 H1302 0.931 . S
C1318 C1312 1.383 . S
C1318 C1317 1.379 . S
H1319 C1313 0.959 . S
H1320 C1313 0.961 . S
H1321 C1313 0.960 . S
H1322 C1314 0.930 . S
H1323 C1315 0.929 . S
H1324 C1332 0.929 . S
H1325 C1334 0.930 . S
H1326 C1336 0.930 . S
H1327 C1339 0.929 . S
H1328 C1342 0.930 . S
H1329 C1344 0.960 . S
H1330 C1344 0.960 . S
H1331 C1344 0.960 . S
C1332 H1324 0.929 . S
C1332 C1333 1.377 . S
C1332 C1334 1.384 . S
C1333 C1332 1.377 . S
C1333 C1339 1.390 . S
C1334 H1325 0.930 . S
C1334 C1332 1.384 . S
C1334 C1335 1.372 . S
C1335 C1334 1.372 . S
C1335 C1336 1.400 . S
C1335 C1340 1.490 . S
C1336 H1326 0.930 . S
C1336 C1335 1.400 . S
C1336 C1339 1.386 . S
H1337 C1353 0.930 . S
H1338 C1354 0.931 . S
C1339 H1327 0.929 . S
C1339 C1333 1.390 . S
C1339 C1336 1.386 . S
C1340 C1335 1.490 . S
C1340 C1342 1.395 . S
C1340 C1343 1.403 . S
H1341 C1347 0.930 . S
C1342 H1328 0.930 . S
C1342 C1340 1.395 . S
C1342 C1345 1.403 . S
C1343 C1340 1.403 . S
C1343 C1344 1.524 . S
C1343 C1347 1.400 . S
C1344 H1329 0.960 . S
C1344 H1330 0.960 . S
C1344 H1331 0.960 . S
C1344 C1343 1.524 . S
C1345 C1342 1.403 . S
C1345 C1346 1.392 . S
C1345 C1349 1.495 . S
C1346 C1345 1.392 . S
C1346 C1347 1.385 . S
C1346 C1348 1.478 . S
C1347 H1341 0.930 . S
C1347 C1343 1.400 . S
C1347 C1346 1.385 . S
C1348 C1346 1.478 . S
C1348 C1350 1.381 . S
C1348 C1354 1.383 . S
C1349 C1345 1.495 . S
C1349 H1355 0.959 . S
C1349 H1356 0.961 . S
C1349 H1357 0.960 . S
C1350 C1348 1.381 . S
C1350 C1351 1.394 . S
C1350 H1358 0.930 . S
C1351 C1350 1.394 . S
C1351 C1352 1.383 . S
C1351 H1359 0.929 . S
C1352 C1351 1.383 . S
C1352 C1353 1.377 . S
C1353 H1337 0.930 . S
C1353 C1352 1.377 . S
C1353 C1354 1.379 . S
C1354 H1338 0.931 . S
C1354 C1348 1.383 . S
C1354 C1353 1.379 . S
H1355 C1349 0.959 . S
H1356 C1349 0.961 . S
H1357 C1349 0.960 . S
H1358 C1350 0.930 . S
H1359 C1351 0.929 . S
C217 C5 1.453 . S
C236 C161 1.444 . S
C253 C16 1.453 . S
C272 C70 1.453 1_565 S
C289 C31 1.452 . S
C308 C187 1.447 . S
C325 C96 1.453 . S
C344 C44 1.444 . S
C361 C185 1.451 . S
C380 C29 1.446 . S
C397 C94 1.452 . S
C416 C42 1.445 . S
C433 C159 1.452 . S
C452 C3 1.446 . S
C469 C68 1.452 . S
C488 C18 1.445 . S
C505 C55 1.452 . S
C524 C109 1.447 . S
C541 C83 1.453 . S
C560 C135 1.452 . S
C577 C133 1.453 . S
C596 C81 1.456 . S
C613 C57 1.452 . S
C632 C107 1.449 . S
C649 C172 1.452 . S
C668 C120 1.445 . S
C685 C146 1.453 . S
C704 C198 1.446 . S
C721 C148 1.452 . S
C740 C200 1.445 . S
C757 C122 1.452 . S
C776 C174 1.445 . S
C793 C153 1.568 . S
C812 C10 1.563 . S
C829 C108 1.568 . S
C848 C17 1.569 . S
C865 C36 1.568 . S
C884 C127 1.565 . S
C901 C134 1.568 . S
C920 C49 1.559 . S
C937 C147 1.568 . S
C956 C30 1.563 . S
C973 C43 1.568 . S
C992 C114 1.570 . S
C1009 C121 1.568 . S
C1028 C4 1.565 . S
C1045 C140 1.567 . S
C1064 C23 1.559 . S
C1081 C56 1.568 . S
C1100 C205 1.566 . S
C1117 C160 1.568 . S
C1136 C75 1.558 . S
C1153 C88 1.568 . S
C1172 C179 1.564 . S
C1189 C101 1.568 . S
C1208 C186 1.570 . S
C1225 C82 1.568 . S
C1244 C199 1.565 . S
C1261 C166 1.568 . S
C1280 C95 1.558 . S
C1297 C173 1.568 . S
C1316 C62 1.564 . S
C1333 C192 1.568 . S
C1352 C69 1.571 . S
