# Generated by pormake.
# Topology qtz-h, (3)-cn, num edge types: 1
# Building blocks:
#     Node 0, Type 0, BuildingBlock: OLANEW_clean_sbu_2, # of connection points: 3
#     Node 1, Type 0, BuildingBlock: OLANEW_clean_sbu_2, # of connection points: 3
#     Node 2, Type 0, BuildingBlock: OLANEW_clean_sbu_2, # of connection points: 3
#     Node 3, Type 0, BuildingBlock: OLANEW_clean_sbu_2, # of connection points: 3
#     Node 4, Type 0, BuildingBlock: OLANEW_clean_sbu_2, # of connection points: 3
#     Node 5, Type 0, BuildingBlock: OLANEW_clean_sbu_2, # of connection points: 3
#     Node 6, Type 0, BuildingBlock: OLANEW_clean_sbu_2, # of connection points: 3
#     Node 7, Type 0, BuildingBlock: OLANEW_clean_sbu_2, # of connection points: 3
#     Node 8, Type 0, BuildingBlock: OLANEW_clean_sbu_2, # of connection points: 3
#     Node 9, Type 0, BuildingBlock: OLANEW_clean_sbu_2, # of connection points: 3
#     Node 10, Type 0, BuildingBlock: OLANEW_clean_sbu_2, # of connection points: 3
#     Node 11, Type 0, BuildingBlock: OLANEW_clean_sbu_2, # of connection points: 3
#     Edge 12, Type (0, 0), BuildingBlock: CIFDUS_clean_linker_0, # of connection points: 2
#     Edge 13, Type (0, 0), BuildingBlock: CIFDUS_clean_linker_0, # of connection points: 2
#     Edge 14, Type (0, 0), BuildingBlock: CIFDUS_clean_linker_0, # of connection points: 2
#     Edge 15, Type (0, 0), BuildingBlock: CIFDUS_clean_linker_0, # of connection points: 2
#     Edge 16, Type (0, 0), BuildingBlock: CIFDUS_clean_linker_0, # of connection points: 2
#     Edge 17, Type (0, 0), BuildingBlock: CIFDUS_clean_linker_0, # of connection points: 2
#     Edge 18, Type (0, 0), BuildingBlock: CIFDUS_clean_linker_0, # of connection points: 2
#     Edge 19, Type (0, 0), BuildingBlock: CIFDUS_clean_linker_0, # of connection points: 2
#     Edge 20, Type (0, 0), BuildingBlock: CIFDUS_clean_linker_0, # of connection points: 2
#     Edge 21, Type (0, 0), BuildingBlock: CIFDUS_clean_linker_0, # of connection points: 2
#     Edge 22, Type (0, 0), BuildingBlock: CIFDUS_clean_linker_0, # of connection points: 2
#     Edge 23, Type (0, 0), BuildingBlock: CIFDUS_clean_linker_0, # of connection points: 2
#     Edge 24, Type (0, 0), BuildingBlock: CIFDUS_clean_linker_0, # of connection points: 2
#     Edge 25, Type (0, 0), BuildingBlock: CIFDUS_clean_linker_0, # of connection points: 2
#     Edge 26, Type (0, 0), BuildingBlock: CIFDUS_clean_linker_0, # of connection points: 2
#     Edge 27, Type (0, 0), BuildingBlock: CIFDUS_clean_linker_0, # of connection points: 2
#     Edge 28, Type (0, 0), BuildingBlock: CIFDUS_clean_linker_0, # of connection points: 2
#     Edge 29, Type (0, 0), BuildingBlock: CIFDUS_clean_linker_0, # of connection points: 2
# Relax obj value: 0.007
# Max RMSD: 0.023
# Mean RMSD: 0.023
data_MOF--net-qtz-h--node1-OLANEW_clean_sbu_2--edge1-CIFDUS_clean_linker_0
_symmetry_space_group_name_H-M    P1
_symmetry_Int_Tables_number       1
_symmetry_cell_setting            triclinic
loop_
_symmetry_equiv_pos_as_xyz
'x, y, z'
_cell_length_a     52.943516
_cell_length_b     52.948507
_cell_length_c     60.128689
_cell_angle_alpha  89.991373
_cell_angle_beta   90.003163
_cell_angle_gamma 119.99518
loop_
_atom_site_label
_atom_site_type_symbol
_atom_site_fract_x
_atom_site_fract_y
_atom_site_fract_z
_atom_type_partial_charge
O0 O 0.67737 0.22859 0.05593 0.0
Cd1 Cd 0.69625 0.2321 0.09357 0.0
O2 O 0.63477 0.19566 0.06892 0.0
Cd3 Cd 0.5898 0.16078 0.06404 0.0
O4 O 0.55157 0.11733 0.06121 0.0
C5 C 0.55633 0.09614 0.05952 0.0
O6 O 0.58346 0.10168 0.05919 0.0
C7 C 0.65047 0.21073 0.05272 0.0
C8 C 0.6945 0.27564 0.11846 0.0
O9 O 0.71763 0.28076 0.10791 0.0
O10 O 0.67221 0.24996 0.11719 0.0
O11 O 0.40149 0.64023 0.40621 0.0
Cd12 Cd 0.41492 0.65052 0.4454 0.0
O13 O 0.42426 0.61522 0.40518 0.0
Cd14 Cd 0.44123 0.58973 0.38871 0.0
O15 O 0.4541 0.55918 0.37579 0.0
C16 C 0.48013 0.56775 0.36962 0.0
O17 O 0.49945 0.59571 0.37048 0.0
C18 C 0.40906 0.62443 0.39545 0.0
C19 C 0.37181 0.65321 0.47022 0.0
O20 O 0.39326 0.67634 0.462 0.0
O21 O 0.37077 0.62884 0.46669 0.0
O22 O 0.77673 0.42076 0.7422 0.0
Cd23 Cd 0.77604 0.43102 0.78175 0.0
O24 O 0.82424 0.449 0.74297 0.0
Cd25 Cd 0.86809 0.46727 0.72885 0.0
O26 O 0.91311 0.48431 0.71795 0.0
C27 C 0.93139 0.51123 0.72059 0.0
O28 O 0.92241 0.52816 0.72925 0.0
C29 C 0.80111 0.43237 0.73217 0.0
C30 C 0.73011 0.38484 0.80428 0.0
O31 O 0.72746 0.40594 0.7965 0.0
O32 O 0.75444 0.38556 0.80133 0.0
O33 O 0.33876 0.77322 0.06703 0.0
Cd34 Cd 0.3203 0.76981 0.10481 0.0
O35 O 0.37304 0.81753 0.07513 0.0
Cd36 Cd 0.41288 0.85975 0.07092 0.0
O37 O 0.44924 0.90406 0.06654 0.0
C38 C 0.44399 0.92481 0.06388 0.0
O39 O 0.41675 0.91892 0.06368 0.0
C40 C 0.36124 0.79678 0.06111 0.0
C41 C 0.32032 0.72471 0.12878 0.0
O42 O 0.29755 0.72061 0.1182 0.0
O43 O 0.34304 0.75014 0.12803 0.0
O44 O 0.5721 0.3488 0.39826 0.0
Cd45 Cd 0.55973 0.33764 0.43755 0.0
O46 O 0.55004 0.37453 0.39878 0.0
Cd47 Cd 0.53868 0.40545 0.38406 0.0
O48 O 0.52802 0.43832 0.37292 0.0
C49 C 0.50295 0.43081 0.36507 0.0
O50 O 0.48377 0.40292 0.36307 0.0
C51 C 0.56415 0.36477 0.38818 0.0
C52 C 0.60685 0.34354 0.46246 0.0
O53 O 0.58811 0.31883 0.45423 0.0
O54 O 0.60329 0.36543 0.45887 0.0
O55 O 0.22934 0.56106 0.72929 0.0
Cd56 Cd 0.22912 0.54442 0.76722 0.0
O57 O 0.18987 0.56263 0.73794 0.0
Cd58 Cd 0.15294 0.56755 0.72766 0.0
O59 O 0.10998 0.56112 0.71926 0.0
C60 C 0.09305 0.54025 0.70655 0.0
O61 O 0.10232 0.52355 0.6979 0.0
C62 C 0.2094 0.56657 0.72388 0.0
C63 C 0.26758 0.59053 0.79425 0.0
O64 O 0.27557 0.57404 0.78465 0.0
O65 O 0.24138 0.5851 0.79114 0.0
O66 O 0.77048 0.35179 0.59951 0.0
Cd67 Cd 0.7753 0.34094 0.56075 0.0
O68 O 0.81778 0.3813 0.6006 0.0
Cd69 Cd 0.85942 0.41094 0.61684 0.0
O70 O 0.90265 0.44355 0.62881 0.0
C71 C 0.92294 0.43736 0.62968 0.0
O72 O 0.91713 0.41104 0.62399 0.0
C73 C 0.79306 0.3699 0.61018 0.0
C74 C 0.72876 0.33468 0.53488 0.0
O75 O 0.72825 0.31249 0.5439 0.0
O76 O 0.7513 0.35979 0.53808 0.0
O77 O 0.41536 0.75875 0.93238 0.0
Cd78 Cd 0.433 0.76147 0.89441 0.0
O79 O 0.42532 0.80376 0.9282 0.0
Cd80 Cd 0.42876 0.84624 0.93414 0.0
O81 O 0.43926 0.89144 0.93838 0.0
C82 C 0.46578 0.91113 0.94082 0.0
O83 O 0.48595 0.90358 0.94102 0.0
C84 C 0.41558 0.78108 0.94038 0.0
C85 C 0.3939 0.714 0.86876 0.0
O86 O 0.4152 0.71387 0.87878 0.0
O87 O 0.39111 0.73657 0.87089 0.0
O88 O 0.64929 0.40956 0.25683 0.0
Cd89 Cd 0.66177 0.4255 0.21824 0.0
O90 O 0.62408 0.43213 0.25799 0.0
Cd91 Cd 0.59727 0.44757 0.27443 0.0
O92 O 0.56535 0.45872 0.28712 0.0
C93 C 0.57304 0.48394 0.29477 0.0
O94 O 0.60093 0.5035 0.29562 0.0
C95 C 0.63273 0.41629 0.26743 0.0
C96 C 0.66366 0.3829 0.19216 0.0
O97 O 0.68689 0.40347 0.20102 0.0
O98 O 0.63959 0.38254 0.1956 0.0
O99 O 0.22453 0.67231 0.6076 0.0
Cd100 Cd 0.22342 0.68841 0.56972 0.0
O101 O 0.18751 0.62958 0.5986 0.0
Cd102 Cd 0.15305 0.58624 0.60877 0.0
O103 O 0.11198 0.54753 0.61783 0.0
C104 C 0.09305 0.55043 0.62881 0.0
O105 O 0.09922 0.57666 0.63515 0.0
C106 C 0.20616 0.64619 0.61282 0.0
C107 C 0.26561 0.68635 0.54325 0.0
O108 O 0.27094 0.7099 0.55323 0.0
O109 O 0.24027 0.66384 0.54571 0.0
O110 O 0.56168 0.22423 0.93553 0.0
Cd111 Cd 0.54589 0.22485 0.89744 0.0
O112 O 0.56494 0.18592 0.92628 0.0
Cd113 Cd 0.57028 0.14865 0.93449 0.0
O114 O 0.56153 0.10407 0.93925 0.0
C115 C 0.53501 0.08416 0.94113 0.0
O116 O 0.51468 0.09149 0.9406 0.0
C117 C 0.56776 0.20463 0.94075 0.0
C118 C 0.59005 0.26977 0.87267 0.0
O119 O 0.57069 0.27339 0.88264 0.0
O120 O 0.58845 0.24488 0.87437 0.0
O121 O 0.35414 0.5743 0.26057 0.0
Cd122 Cd 0.34767 0.56555 0.22052 0.0
O123 O 0.38043 0.55284 0.26069 0.0
Cd124 Cd 0.4102 0.54078 0.27653 0.0
O125 O 0.44239 0.52976 0.28875 0.0
C126 C 0.43452 0.50416 0.29557 0.0
O127 O 0.4066 0.4846 0.29589 0.0
C128 C 0.36922 0.5657 0.27117 0.0
C129 C 0.34709 0.61119 0.19779 0.0
O130 O 0.32329 0.58893 0.20426 0.0
O131 O 0.37112 0.61187 0.20212 0.0
H132 H 0.71151 0.38356 0.175 0.0
H133 H 0.61769 0.3312 0.1784 0.0
H134 H 0.61898 0.29332 0.15609 0.0
H135 H 0.64673 0.27496 0.13574 0.0
H136 H 0.74039 0.32807 0.13119 0.0
H137 H 0.73915 0.36576 0.15379 0.0
C138 C 0.69135 0.36384 0.17089 0.0
C139 C 0.66456 0.36017 0.17843 0.0
C140 C 0.69221 0.34229 0.15783 0.0
C141 C 0.63861 0.3346 0.17278 0.0
C142 C 0.63932 0.3129 0.16005 0.0
C143 C 0.66688 0.29476 0.13971 0.0
C144 C 0.69361 0.29863 0.13186 0.0
C145 C 0.66599 0.31649 0.15251 0.0
C146 C 0.7195 0.32454 0.13699 0.0
C147 C 0.71883 0.3461 0.14996 0.0
H148 H 0.37261 0.7016 0.48634 0.0
H149 H 0.31968 0.60778 0.48396 0.0
H150 H 0.28196 0.60981 0.50593 0.0
H151 H 0.26414 0.63816 0.52607 0.0
H152 H 0.31773 0.73185 0.52949 0.0
H153 H 0.35502 0.72991 0.50686 0.0
C154 C 0.35279 0.6816 0.49058 0.0
C155 C 0.34896 0.65459 0.48347 0.0
C156 C 0.33131 0.68289 0.50342 0.0
C157 C 0.32323 0.62886 0.48924 0.0
C158 C 0.30161 0.63 0.50179 0.0
C159 C 0.28394 0.65817 0.52181 0.0
C160 C 0.28809 0.68511 0.52942 0.0
C161 C 0.30544 0.65688 0.509 0.0
C162 C 0.31398 0.71081 0.52388 0.0
C163 C 0.33532 0.70974 0.51092 0.0
H164 H 0.63883 0.27197 0.85601 0.0
H165 H 0.59433 0.32138 0.86031 0.0
H166 H 0.63336 0.36101 0.83908 0.0
H167 H 0.68037 0.38186 0.81962 0.0
H168 H 0.72564 0.33311 0.81646 0.0
H169 H 0.68605 0.293 0.8369 0.0
C170 C 0.63762 0.29137 0.85225 0.0
C171 C 0.61366 0.29367 0.8597 0.0
C172 C 0.66029 0.31422 0.84026 0.0
C173 C 0.61254 0.31906 0.85481 0.0
C174 C 0.63484 0.34173 0.84265 0.0
C175 C 0.68153 0.36242 0.82334 0.0
C176 C 0.70591 0.36048 0.81648 0.0
C177 C 0.65885 0.33957 0.83533 0.0
C178 C 0.70716 0.33521 0.82158 0.0
C179 C 0.68451 0.31224 0.83325 0.0
H180 H 0.3002 0.61213 0.18025 0.0
H181 H 0.3936 0.66451 0.18774 0.0
H182 H 0.39347 0.70434 0.16738 0.0
H183 H 0.36695 0.72422 0.14724 0.0
H184 H 0.27375 0.67133 0.13875 0.0
H185 H 0.27373 0.63181 0.1597 0.0
C186 C 0.32052 0.63228 0.17748 0.0
C187 C 0.34685 0.63534 0.18555 0.0
C188 C 0.32035 0.65501 0.16555 0.0
C189 C 0.37302 0.66154 0.18168 0.0
C190 C 0.37297 0.68436 0.17005 0.0
C191 C 0.34661 0.70408 0.15001 0.0
C192 C 0.32039 0.70078 0.14147 0.0
C193 C 0.34678 0.68132 0.16188 0.0
C194 C 0.29426 0.67445 0.1451 0.0
C195 C 0.29422 0.65183 0.1571 0.0
H196 H 0.72013 0.37777 0.5188 0.0
H197 H 0.68174 0.28416 0.52034 0.0
H198 H 0.64092 0.27866 0.4978 0.0
H199 H 0.61598 0.30041 0.47779 0.0
H200 H 0.65377 0.39397 0.47713 0.0
H201 H 0.69494 0.39947 0.49917 0.0
C202 C 0.70287 0.35616 0.51417 0.0
C203 C 0.70404 0.33142 0.52121 0.0
C204 C 0.67932 0.35313 0.50137 0.0
C205 C 0.68138 0.30357 0.51517 0.0
C206 C 0.65803 0.3004 0.50226 0.0
C207 C 0.63325 0.32201 0.48242 0.0
C208 C 0.6318 0.34673 0.47577 0.0
C209 C 0.65676 0.32502 0.49528 0.0
C210 C 0.6543 0.37456 0.48204 0.0
C211 C 0.67788 0.37774 0.49464 0.0
H212 H 0.32004 0.60132 0.81039 0.0
H213 H 0.26096 0.63524 0.80986 0.0
H214 H 0.29492 0.67653 0.83266 0.0
H215 H 0.34148 0.70316 0.85259 0.0
H216 H 0.39982 0.66838 0.85426 0.0
H217 H 0.36604 0.62727 0.8312 0.0
C218 C 0.31461 0.61776 0.81525 0.0
C219 C 0.28805 0.61525 0.80836 0.0
C220 C 0.33409 0.64129 0.82857 0.0
C221 C 0.28123 0.63662 0.81496 0.0
C222 C 0.30066 0.66027 0.82797 0.0
C223 C 0.34683 0.6866 0.84789 0.0
C224 C 0.37319 0.6889 0.85506 0.0
C225 C 0.32717 0.66285 0.83484 0.0
C226 C 0.37966 0.66712 0.84899 0.0
C227 C 0.36038 0.64362 0.83577 0.0
H228 H 0.44012 0.97409 0.06127 0.0
H229 H 0.50239 0.94403 0.06182 0.0
H230 H 0.54245 0.99429 0.05971 0.0
H231 H 0.55988 0.04672 0.05887 0.0
H232 H 0.4978 0.07699 0.05897 0.0
H233 H 0.45759 0.02663 0.05958 0.0
C234 C 0.46244 0.97849 0.06085 0.0
C235 C 0.4682 0.95528 0.06179 0.0
C236 C 0.48542 0.00748 0.05979 0.0
C237 C 0.49729 0.96145 0.0612 0.0
C238 C 0.52024 0.9902 0.05999 0.0
C239 C 0.53757 0.04236 0.05893 0.0
C240 C 0.5319 0.06564 0.05896 0.0
C241 C 0.51457 0.01338 0.05946 0.0
C242 C 0.50282 0.05951 0.05902 0.0
C243 C 0.47979 0.03071 0.05938 0.0
H244 H 0.53834 0.48963 0.3621 0.0
H245 H 0.44798 0.42189 0.35903 0.0
H246 H 0.43299 0.4586 0.358 0.0
H247 H 0.44526 0.50963 0.36206 0.0
H248 H 0.53562 0.57742 0.36503 0.0
H249 H 0.55082 0.541 0.36171 0.0
C250 C 0.51537 0.4829 0.36105 0.0
C251 C 0.4943 0.45305 0.36114 0.0
C252 C 0.50686 0.50411 0.36063 0.0
C253 C 0.46466 0.4447 0.35925 0.0
C254 C 0.45604 0.46568 0.35876 0.0
C255 C 0.46829 0.51648 0.36181 0.0
C256 C 0.48924 0.54616 0.3643 0.0
C257 C 0.47691 0.49541 0.36009 0.0
C258 C 0.519 0.5547 0.36341 0.0
C259 C 0.52774 0.53387 0.36161 0.0
H260 H 0.95663 0.48371 0.69965 0.0
H261 H 0.97681 0.56469 0.73164 0.0
H262 H 0.0288 0.58182 0.72835 0.0
H263 H 0.06834 0.57216 0.71947 0.0
H264 H 0.04847 0.49129 0.6875 0.0
H265 H 0.99663 0.47591 0.68761 0.0
C266 C 0.9724 0.50519 0.70576 0.0
C267 C 0.96279 0.52269 0.7162 0.0
C268 C 0.00234 0.51488 0.70397 0.0
C269 C 0.98355 0.55066 0.72368 0.0
C270 C 0.01333 0.56048 0.72186 0.0
C271 C 0.05272 0.55128 0.71232 0.0
C272 C 0.06226 0.53271 0.70386 0.0
C273 C 0.02294 0.54251 0.71251 0.0
C274 C 0.04174 0.50591 0.69437 0.0
C275 C 0.01205 0.49703 0.69449 0.0
H276 H 0.04466 0.55122 0.6431 0.0
H277 H 0.07463 0.49292 0.62145 0.0
H278 H 0.02465 0.45211 0.62204 0.0
H279 H 0.9722 0.43397 0.6251 0.0
H280 H 0.94192 0.49256 0.64526 0.0
H281 H 0.99229 0.53217 0.64902 0.0
C282 C 0.04033 0.52954 0.63872 0.0
C283 C 0.06333 0.52523 0.63194 0.0
C284 C 0.01144 0.50627 0.63858 0.0
C285 C 0.0573 0.49693 0.6265 0.0
C286 C 0.02871 0.47356 0.62681 0.0
C287 C 0.97657 0.45531 0.63055 0.0
C288 C 0.9533 0.46037 0.63456 0.0
C289 C 0.00555 0.47813 0.63225 0.0
C290 C 0.95942 0.48814 0.64175 0.0
C291 C 0.98822 0.51084 0.64386 0.0
H292 H 0.52044 0.95832 0.9431 0.0
H293 H 0.42948 0.93391 0.94201 0.0
H294 H 0.44294 0.98521 0.94292 0.0
H295 H 0.48044 0.03695 0.94266 0.0
H296 H 0.57144 0.06149 0.94311 0.0
H297 H 0.55799 0.01014 0.94391 0.0
C298 C 0.50353 0.96418 0.94317 0.0
C299 C 0.47399 0.94224 0.94239 0.0
C300 C 0.51142 0.99375 0.94352 0.0
C301 C 0.45239 0.9503 0.94251 0.0
C302 C 0.46006 0.97966 0.94303 0.0
C303 C 0.49737 0.03112 0.94304 0.0
C304 C 0.52691 0.05308 0.94273 0.0
C305 C 0.4895 0.00156 0.94332 0.0
C306 C 0.54853 0.04506 0.94326 0.0
C307 C 0.54086 0.01569 0.94371 0.0
H308 H 0.49279 0.53977 0.302 0.0
H309 H 0.42592 0.44904 0.29942 0.0
H310 H 0.46303 0.43462 0.30121 0.0
H311 H 0.51452 0.44788 0.29926 0.0
H312 H 0.58145 0.53859 0.30192 0.0
H313 H 0.54424 0.55281 0.30467 0.0
C314 C 0.48632 0.51683 0.302 0.0
C315 C 0.45667 0.49554 0.30008 0.0
C316 C 0.50778 0.50866 0.30285 0.0
C317 C 0.44861 0.4659 0.30063 0.0
C318 C 0.46983 0.45762 0.30154 0.0
C319 C 0.52099 0.47076 0.30062 0.0
C320 C 0.55072 0.49215 0.29986 0.0
C321 C 0.4995 0.47882 0.30198 0.0
C322 C 0.55873 0.52166 0.30219 0.0
C323 C 0.53745 0.52984 0.30365 0.0
H324 H 0.61422 0.19925 0.95173 0.0
H325 H 0.54492 0.20922 0.97996 0.0
H326 H 0.5633 0.20982 0.0175 0.0
H327 H 0.60031 0.2094 0.0421 0.0
H328 H 0.67274 0.20517 0.01353 0.0
H329 H 0.6521 0.20042 0.97624 0.0
C330 C 0.60306 0.20124 0.96618 0.0
C331 C 0.57812 0.20381 0.96329 0.0
C332 C 0.61444 0.20274 0.98754 0.0
C333 C 0.56411 0.20709 0.98195 0.0
C334 C 0.57461 0.20744 0.00334 0.0
C335 C 0.61135 0.20716 0.02767 0.0
C336 C 0.63773 0.20727 0.0304 0.0
C337 C 0.5999 0.20553 0.00631 0.0
C338 C 0.65233 0.20506 0.01168 0.0
C339 C 0.64053 0.20232 0.99043 0.0
H340 H 0.37822 0.61405 0.29325 0.0
H341 H 0.37123 0.53009 0.30287 0.0
H342 H 0.38259 0.54071 0.34233 0.0
H343 H 0.39443 0.57387 0.37401 0.0
H344 H 0.40281 0.65842 0.36451 0.0
H345 H 0.38983 0.64721 0.32523 0.0
C346 C 0.3791 0.5981 0.30406 0.0
C347 C 0.37461 0.57164 0.29516 0.0
C348 C 0.38567 0.6044 0.32671 0.0
C349 C 0.37557 0.551 0.30926 0.0
C350 C 0.38178 0.55695 0.33184 0.0
C351 C 0.39425 0.59015 0.36321 0.0
C352 C 0.40056 0.61729 0.37192 0.0
C353 C 0.38719 0.5837 0.34068 0.0
C354 C 0.39836 0.63748 0.35807 0.0
C355 C 0.39101 0.63111 0.33563 0.0
H356 H 0.76739 0.38106 0.71112 0.0
H357 H 0.83728 0.46903 0.70014 0.0
H358 H 0.84116 0.45739 0.66143 0.0
H359 H 0.8243 0.42231 0.63066 0.0
H360 H 0.7546 0.33422 0.64141 0.0
H361 H 0.75024 0.34599 0.68008 0.0
C362 C 0.7834 0.39764 0.70019 0.0
C363 C 0.80256 0.42562 0.70856 0.0
C364 C 0.78537 0.39081 0.67793 0.0
C365 C 0.82304 0.44704 0.69427 0.0
C366 C 0.82504 0.44048 0.67208 0.0
C367 C 0.80872 0.4055 0.64162 0.0
C368 C 0.79043 0.37722 0.63343 0.0
C369 C 0.8065 0.41238 0.66379 0.0
C370 C 0.76913 0.35609 0.64746 0.0
C371 C 0.76666 0.36278 0.66954 0.0
H372 H 0.35513 0.75259 0.03482 0.0
H373 H 0.39346 0.84612 0.03595 0.0
H374 H 0.41564 0.84976 0.99975 0.0
H375 H 0.42444 0.82626 0.96796 0.0
H376 H 0.38112 0.73238 0.96461 0.0
H377 H 0.36105 0.72899 0.00168 0.0
C378 C 0.3683 0.77379 0.02714 0.0
C379 C 0.37366 0.79916 0.03861 0.0
C380 C 0.38006 0.77562 0.00588 0.0
C381 C 0.39039 0.82639 0.02823 0.0
C382 C 0.40267 0.82844 0.00726 0.0
C383 C 0.40987 0.80505 0.97484 0.0
C384 C 0.40377 0.77968 0.96305 0.0
C385 C 0.39771 0.80319 0.99596 0.0
C386 C 0.38614 0.75236 0.97316 0.0
C387 C 0.37454 0.75035 0.99437 0.0
H388 H 0.61454 0.37654 0.36793 0.0
H389 H 0.53105 0.36961 0.35569 0.0
H390 H 0.54486 0.38476 0.31713 0.0
H391 H 0.58054 0.39963 0.28692 0.0
H392 H 0.66457 0.40786 0.29905 0.0
H393 H 0.65034 0.39141 0.33744 0.0
C394 C 0.59941 0.37829 0.35675 0.0
C395 C 0.57212 0.37268 0.36469 0.0
C396 C 0.60752 0.38701 0.33461 0.0
C397 C 0.55256 0.37479 0.3501 0.0
C398 C 0.56032 0.38316 0.32802 0.0
C399 C 0.59604 0.39867 0.29814 0.0
C400 C 0.6239 0.40591 0.29044 0.0
C401 C 0.58785 0.3896 0.32017 0.0
C402 C 0.6431 0.40271 0.30474 0.0
C403 C 0.63501 0.39338 0.32666 0.0
H404 H 0.2055 0.61398 0.71377 0.0
H405 H 0.21263 0.54365 0.68428 0.0
H406 H 0.21088 0.56151 0.64698 0.0
H407 H 0.20757 0.59744 0.62292 0.0
H408 H 0.20575 0.67064 0.65244 0.0
H409 H 0.20519 0.65154 0.68973 0.0
C410 C 0.20658 0.60262 0.6991 0.0
C411 C 0.20883 0.57745 0.70153 0.0
C412 C 0.20654 0.61357 0.67787 0.0
C413 C 0.2108 0.56306 0.68262 0.0
C414 C 0.20976 0.57322 0.66138 0.0
C415 C 0.20698 0.60907 0.63759 0.0
C416 C 0.20636 0.63511 0.63517 0.0
C417 C 0.20764 0.59846 0.65883 0.0
C418 C 0.20616 0.65047 0.6541 0.0
C419 C 0.2058 0.63954 0.67533 0.0
loop_
_geom_bond_atom_site_label_1
_geom_bond_atom_site_label_2
_geom_bond_distance
_geom_bond_site_symmetry_2
_ccdc_geom_bond_type
O0 Cd1 2.300 . S
O0 C7 1.275 . S
Cd1 O0 2.300 . S
Cd1 O9 2.381 . S
Cd1 O10 2.378 . S
O2 Cd3 2.385 . S
O2 C7 1.255 . S
Cd3 O2 2.385 . S
Cd3 O4 2.317 . S
O4 Cd3 2.317 . S
O4 C5 1.232 . S
C5 O4 1.232 . S
C5 O6 1.218 . S
O6 C5 1.218 . S
C7 O0 1.275 . S
C7 O2 1.255 . S
C8 O9 1.258 . S
C8 O10 1.256 . S
O9 Cd1 2.381 . S
O9 C8 1.258 . S
O10 Cd1 2.378 . S
O10 C8 1.256 . S
O11 Cd12 2.300 . S
O11 C18 1.275 . S
Cd12 O11 2.300 . S
Cd12 O20 2.381 . S
Cd12 O21 2.378 . S
O13 Cd14 2.385 . S
O13 C18 1.255 . S
Cd14 O13 2.385 . S
Cd14 O15 2.317 . S
O15 Cd14 2.317 . S
O15 C16 1.232 . S
C16 O15 1.232 . S
C16 O17 1.218 . S
O17 C16 1.218 . S
C18 O11 1.275 . S
C18 O13 1.255 . S
C19 O20 1.258 . S
C19 O21 1.256 . S
O20 Cd12 2.381 . S
O20 C19 1.258 . S
O21 Cd12 2.378 . S
O21 C19 1.256 . S
O22 Cd23 2.300 . S
O22 C29 1.275 . S
Cd23 O22 2.300 . S
Cd23 O31 2.381 . S
Cd23 O32 2.378 . S
O24 Cd25 2.385 . S
O24 C29 1.255 . S
Cd25 O24 2.385 . S
Cd25 O26 2.317 . S
O26 Cd25 2.317 . S
O26 C27 1.232 . S
C27 O26 1.232 . S
C27 O28 1.218 . S
O28 C27 1.218 . S
C29 O22 1.275 . S
C29 O24 1.255 . S
C30 O31 1.258 . S
C30 O32 1.256 . S
O31 Cd23 2.381 . S
O31 C30 1.258 . S
O32 Cd23 2.378 . S
O32 C30 1.256 . S
O33 Cd34 2.300 . S
O33 C40 1.275 . S
Cd34 O33 2.300 . S
Cd34 O42 2.381 . S
Cd34 O43 2.378 . S
O35 Cd36 2.385 . S
O35 C40 1.255 . S
Cd36 O35 2.385 . S
Cd36 O37 2.317 . S
O37 Cd36 2.317 . S
O37 C38 1.232 . S
C38 O37 1.232 . S
C38 O39 1.218 . S
O39 C38 1.218 . S
C40 O33 1.275 . S
C40 O35 1.255 . S
C41 O42 1.258 . S
C41 O43 1.256 . S
O42 Cd34 2.381 . S
O42 C41 1.258 . S
O43 Cd34 2.378 . S
O43 C41 1.256 . S
O44 Cd45 2.300 . S
O44 C51 1.275 . S
Cd45 O44 2.300 . S
Cd45 O53 2.381 . S
Cd45 O54 2.378 . S
O46 Cd47 2.385 . S
O46 C51 1.255 . S
Cd47 O46 2.385 . S
Cd47 O48 2.317 . S
O48 Cd47 2.317 . S
O48 C49 1.232 . S
C49 O48 1.232 . S
C49 O50 1.218 . S
O50 C49 1.218 . S
C51 O44 1.275 . S
C51 O46 1.255 . S
C52 O53 1.258 . S
C52 O54 1.256 . S
O53 Cd45 2.381 . S
O53 C52 1.258 . S
O54 Cd45 2.378 . S
O54 C52 1.256 . S
O55 Cd56 2.300 . S
O55 C62 1.275 . S
Cd56 O55 2.300 . S
Cd56 O64 2.381 . S
Cd56 O65 2.378 . S
O57 Cd58 2.385 . S
O57 C62 1.255 . S
Cd58 O57 2.385 . S
Cd58 O59 2.317 . S
O59 Cd58 2.317 . S
O59 C60 1.232 . S
C60 O59 1.232 . S
C60 O61 1.218 . S
O61 C60 1.218 . S
C62 O55 1.275 . S
C62 O57 1.255 . S
C63 O64 1.258 . S
C63 O65 1.256 . S
O64 Cd56 2.381 . S
O64 C63 1.258 . S
O65 Cd56 2.378 . S
O65 C63 1.256 . S
O66 Cd67 2.300 . S
O66 C73 1.275 . S
Cd67 O66 2.300 . S
Cd67 O75 2.381 . S
Cd67 O76 2.378 . S
O68 Cd69 2.385 . S
O68 C73 1.255 . S
Cd69 O68 2.385 . S
Cd69 O70 2.317 . S
O70 Cd69 2.317 . S
O70 C71 1.232 . S
C71 O70 1.232 . S
C71 O72 1.218 . S
O72 C71 1.218 . S
C73 O66 1.275 . S
C73 O68 1.255 . S
C74 O75 1.258 . S
C74 O76 1.256 . S
O75 Cd67 2.381 . S
O75 C74 1.258 . S
O76 Cd67 2.378 . S
O76 C74 1.256 . S
O77 Cd78 2.300 . S
O77 C84 1.275 . S
Cd78 O77 2.300 . S
Cd78 O86 2.381 . S
Cd78 O87 2.378 . S
O79 Cd80 2.385 . S
O79 C84 1.255 . S
Cd80 O79 2.385 . S
Cd80 O81 2.317 . S
O81 Cd80 2.317 . S
O81 C82 1.232 . S
C82 O81 1.232 . S
C82 O83 1.218 . S
O83 C82 1.218 . S
C84 O77 1.275 . S
C84 O79 1.255 . S
C85 O86 1.258 . S
C85 O87 1.256 . S
O86 Cd78 2.381 . S
O86 C85 1.258 . S
O87 Cd78 2.378 . S
O87 C85 1.256 . S
O88 Cd89 2.300 . S
O88 C95 1.275 . S
Cd89 O88 2.300 . S
Cd89 O97 2.381 . S
Cd89 O98 2.378 . S
O90 Cd91 2.385 . S
O90 C95 1.255 . S
Cd91 O90 2.385 . S
Cd91 O92 2.317 . S
O92 Cd91 2.317 . S
O92 C93 1.232 . S
C93 O92 1.232 . S
C93 O94 1.218 . S
O94 C93 1.218 . S
C95 O88 1.275 . S
C95 O90 1.255 . S
C96 O97 1.258 . S
C96 O98 1.256 . S
O97 Cd89 2.381 . S
O97 C96 1.258 . S
O98 Cd89 2.378 . S
O98 C96 1.256 . S
O99 Cd100 2.300 . S
O99 C106 1.275 . S
Cd100 O99 2.300 . S
Cd100 O108 2.381 . S
Cd100 O109 2.378 . S
O101 Cd102 2.385 . S
O101 C106 1.255 . S
Cd102 O101 2.385 . S
Cd102 O103 2.317 . S
O103 Cd102 2.317 . S
O103 C104 1.232 . S
C104 O103 1.232 . S
C104 O105 1.218 . S
O105 C104 1.218 . S
C106 O99 1.275 . S
C106 O101 1.255 . S
C107 O108 1.258 . S
C107 O109 1.256 . S
O108 Cd100 2.381 . S
O108 C107 1.258 . S
O109 Cd100 2.378 . S
O109 C107 1.256 . S
O110 Cd111 2.300 . S
O110 C117 1.275 . S
Cd111 O110 2.300 . S
Cd111 O119 2.381 . S
Cd111 O120 2.378 . S
O112 Cd113 2.385 . S
O112 C117 1.255 . S
Cd113 O112 2.385 . S
Cd113 O114 2.317 . S
O114 Cd113 2.317 . S
O114 C115 1.232 . S
C115 O114 1.232 . S
C115 O116 1.218 . S
O116 C115 1.218 . S
C117 O110 1.275 . S
C117 O112 1.255 . S
C118 O119 1.258 . S
C118 O120 1.256 . S
O119 Cd111 2.381 . S
O119 C118 1.258 . S
O120 Cd111 2.378 . S
O120 C118 1.256 . S
O121 Cd122 2.300 . S
O121 C128 1.275 . S
Cd122 O121 2.300 . S
Cd122 O130 2.381 . S
Cd122 O131 2.378 . S
O123 Cd124 2.385 . S
O123 C128 1.255 . S
Cd124 O123 2.385 . S
Cd124 O125 2.317 . S
O125 Cd124 2.317 . S
O125 C126 1.232 . S
C126 O125 1.232 . S
C126 O127 1.218 . S
O127 C126 1.218 . S
C128 O121 1.275 . S
C128 O123 1.255 . S
C129 O130 1.258 . S
C129 O131 1.256 . S
O130 Cd122 2.381 . S
O130 C129 1.258 . S
O131 Cd122 2.378 . S
O131 C129 1.256 . S
H132 C138 0.930 . S
H133 C141 0.930 . S
H134 C142 0.930 . S
H135 C143 0.930 . S
H136 C146 0.930 . S
H137 C147 0.930 . S
C138 H132 0.930 . S
C138 C139 1.355 . S
C138 C140 1.415 . S
C139 C138 1.355 . S
C139 C141 1.419 . S
C140 C138 1.415 . S
C140 C145 1.425 . S
C140 C147 1.409 . S
C141 H133 0.930 . S
C141 C139 1.419 . S
C141 C142 1.362 . S
C142 H134 0.930 . S
C142 C141 1.362 . S
C142 C145 1.409 . S
C143 H135 0.930 . S
C143 C144 1.355 . S
C143 C145 1.415 . S
C144 C143 1.355 . S
C144 C146 1.419 . S
C145 C140 1.425 . S
C145 C142 1.409 . S
C145 C143 1.415 . S
C146 H136 0.930 . S
C146 C144 1.419 . S
C146 C147 1.362 . S
C147 H137 0.930 . S
C147 C140 1.409 . S
C147 C146 1.362 . S
H148 C154 0.930 . S
H149 C157 0.930 . S
H150 C158 0.930 . S
H151 C159 0.930 . S
H152 C162 0.930 . S
H153 C163 0.930 . S
C154 H148 0.930 . S
C154 C155 1.355 . S
C154 C156 1.415 . S
C155 C154 1.355 . S
C155 C157 1.419 . S
C156 C154 1.415 . S
C156 C161 1.425 . S
C156 C163 1.409 . S
C157 H149 0.930 . S
C157 C155 1.419 . S
C157 C158 1.362 . S
C158 H150 0.930 . S
C158 C157 1.362 . S
C158 C161 1.409 . S
C159 H151 0.930 . S
C159 C160 1.355 . S
C159 C161 1.415 . S
C160 C159 1.355 . S
C160 C162 1.419 . S
C161 C156 1.425 . S
C161 C158 1.409 . S
C161 C159 1.415 . S
C162 H152 0.930 . S
C162 C160 1.419 . S
C162 C163 1.362 . S
C163 H153 0.930 . S
C163 C156 1.409 . S
C163 C162 1.362 . S
H164 C170 0.930 . S
H165 C173 0.930 . S
H166 C174 0.930 . S
H167 C175 0.930 . S
H168 C178 0.930 . S
H169 C179 0.930 . S
C170 H164 0.930 . S
C170 C171 1.355 . S
C170 C172 1.415 . S
C171 C170 1.355 . S
C171 C173 1.419 . S
C172 C170 1.415 . S
C172 C177 1.425 . S
C172 C179 1.409 . S
C173 H165 0.930 . S
C173 C171 1.419 . S
C173 C174 1.362 . S
C174 H166 0.930 . S
C174 C173 1.362 . S
C174 C177 1.409 . S
C175 H167 0.930 . S
C175 C176 1.355 . S
C175 C177 1.415 . S
C176 C175 1.355 . S
C176 C178 1.419 . S
C177 C172 1.425 . S
C177 C174 1.409 . S
C177 C175 1.415 . S
C178 H168 0.930 . S
C178 C176 1.419 . S
C178 C179 1.362 . S
C179 H169 0.930 . S
C179 C172 1.409 . S
C179 C178 1.362 . S
H180 C186 0.930 . S
H181 C189 0.930 . S
H182 C190 0.930 . S
H183 C191 0.930 . S
H184 C194 0.930 . S
H185 C195 0.930 . S
C186 H180 0.930 . S
C186 C187 1.355 . S
C186 C188 1.415 . S
C187 C186 1.355 . S
C187 C189 1.419 . S
C188 C186 1.415 . S
C188 C193 1.425 . S
C188 C195 1.409 . S
C189 H181 0.930 . S
C189 C187 1.419 . S
C189 C190 1.362 . S
C190 H182 0.930 . S
C190 C189 1.362 . S
C190 C193 1.409 . S
C191 H183 0.930 . S
C191 C192 1.355 . S
C191 C193 1.415 . S
C192 C191 1.355 . S
C192 C194 1.419 . S
C193 C188 1.425 . S
C193 C190 1.409 . S
C193 C191 1.415 . S
C194 H184 0.930 . S
C194 C192 1.419 . S
C194 C195 1.362 . S
C195 H185 0.930 . S
C195 C188 1.409 . S
C195 C194 1.362 . S
H196 C202 0.930 . S
H197 C205 0.930 . S
H198 C206 0.930 . S
H199 C207 0.930 . S
H200 C210 0.930 . S
H201 C211 0.930 . S
C202 H196 0.930 . S
C202 C203 1.355 . S
C202 C204 1.415 . S
C203 C202 1.355 . S
C203 C205 1.419 . S
C204 C202 1.415 . S
C204 C209 1.425 . S
C204 C211 1.409 . S
C205 H197 0.930 . S
C205 C203 1.419 . S
C205 C206 1.362 . S
C206 H198 0.930 . S
C206 C205 1.362 . S
C206 C209 1.409 . S
C207 H199 0.930 . S
C207 C208 1.355 . S
C207 C209 1.415 . S
C208 C207 1.355 . S
C208 C210 1.419 . S
C209 C204 1.425 . S
C209 C206 1.409 . S
C209 C207 1.415 . S
C210 H200 0.930 . S
C210 C208 1.419 . S
C210 C211 1.362 . S
C211 H201 0.930 . S
C211 C204 1.409 . S
C211 C210 1.362 . S
H212 C218 0.930 . S
H213 C221 0.930 . S
H214 C222 0.930 . S
H215 C223 0.930 . S
H216 C226 0.930 . S
H217 C227 0.930 . S
C218 H212 0.930 . S
C218 C219 1.355 . S
C218 C220 1.415 . S
C219 C218 1.355 . S
C219 C221 1.419 . S
C220 C218 1.415 . S
C220 C225 1.425 . S
C220 C227 1.409 . S
C221 H213 0.930 . S
C221 C219 1.419 . S
C221 C222 1.362 . S
C222 H214 0.930 . S
C222 C221 1.362 . S
C222 C225 1.409 . S
C223 H215 0.930 . S
C223 C224 1.355 . S
C223 C225 1.415 . S
C224 C223 1.355 . S
C224 C226 1.419 . S
C225 C220 1.425 . S
C225 C222 1.409 . S
C225 C223 1.415 . S
C226 H216 0.930 . S
C226 C224 1.419 . S
C226 C227 1.362 . S
C227 H217 0.930 . S
C227 C220 1.409 . S
C227 C226 1.362 . S
H228 C234 0.930 . S
H229 C237 0.930 . S
H230 C238 0.930 . S
H231 C239 0.930 . S
H232 C242 0.930 . S
H233 C243 0.930 . S
C234 H228 0.930 . S
C234 C235 1.355 . S
C234 C236 1.415 . S
C235 C234 1.355 . S
C235 C237 1.419 . S
C236 C234 1.415 . S
C236 C241 1.425 1_565 S
C236 C243 1.409 1_565 S
C237 H229 0.930 . S
C237 C235 1.419 . S
C237 C238 1.362 . S
C238 H230 0.930 . S
C238 C237 1.362 . S
C238 C241 1.409 1_565 S
C239 H231 0.930 . S
C239 C240 1.355 . S
C239 C241 1.415 . S
C240 C239 1.355 . S
C240 C242 1.419 . S
C241 C236 1.425 1_545 S
C241 C238 1.409 1_545 S
C241 C239 1.415 . S
C242 H232 0.930 . S
C242 C240 1.419 . S
C242 C243 1.362 . S
C243 H233 0.930 . S
C243 C236 1.409 1_545 S
C243 C242 1.362 . S
H244 C250 0.930 . S
H245 C253 0.930 . S
H246 C254 0.930 . S
H247 C255 0.930 . S
H248 C258 0.930 . S
H249 C259 0.930 . S
C250 H244 0.930 . S
C250 C251 1.355 . S
C250 C252 1.415 . S
C251 C250 1.355 . S
C251 C253 1.419 . S
C252 C250 1.415 . S
C252 C257 1.425 . S
C252 C259 1.409 . S
C253 H245 0.930 . S
C253 C251 1.419 . S
C253 C254 1.362 . S
C254 H246 0.930 . S
C254 C253 1.362 . S
C254 C257 1.409 . S
C255 H247 0.930 . S
C255 C256 1.355 . S
C255 C257 1.415 . S
C256 C255 1.355 . S
C256 C258 1.419 . S
C257 C252 1.425 . S
C257 C254 1.409 . S
C257 C255 1.415 . S
C258 H248 0.930 . S
C258 C256 1.419 . S
C258 C259 1.362 . S
C259 H249 0.930 . S
C259 C252 1.409 . S
C259 C258 1.362 . S
H260 C266 0.930 . S
H261 C269 0.930 . S
H262 C270 0.930 . S
H263 C271 0.930 . S
H264 C274 0.930 . S
H265 C275 0.930 . S
C266 H260 0.930 . S
C266 C267 1.355 . S
C266 C268 1.415 . S
C267 C266 1.355 . S
C267 C269 1.419 . S
C268 C266 1.415 . S
C268 C273 1.425 1_655 S
C268 C275 1.409 1_655 S
C269 H261 0.930 . S
C269 C267 1.419 . S
C269 C270 1.362 . S
C270 H262 0.930 . S
C270 C269 1.362 . S
C270 C273 1.409 1_655 S
C271 H263 0.930 . S
C271 C272 1.355 . S
C271 C273 1.415 . S
C272 C271 1.355 . S
C272 C274 1.419 . S
C273 C268 1.425 1_455 S
C273 C270 1.409 1_455 S
C273 C271 1.415 . S
C274 H264 0.930 . S
C274 C272 1.419 . S
C274 C275 1.362 . S
C275 H265 0.930 . S
C275 C268 1.409 1_455 S
C275 C274 1.362 . S
H276 C282 0.930 . S
H277 C285 0.930 . S
H278 C286 0.930 . S
H279 C287 0.930 . S
H280 C290 0.930 . S
H281 C291 0.930 . S
C282 H276 0.930 . S
C282 C283 1.355 . S
C282 C284 1.415 . S
C283 C282 1.355 . S
C283 C285 1.419 . S
C284 C282 1.415 . S
C284 C289 1.425 1_455 S
C284 C291 1.409 1_455 S
C285 H277 0.930 . S
C285 C283 1.419 . S
C285 C286 1.362 . S
C286 H278 0.930 . S
C286 C285 1.362 . S
C286 C289 1.409 1_455 S
C287 H279 0.930 . S
C287 C288 1.355 . S
C287 C289 1.415 . S
C288 C287 1.355 . S
C288 C290 1.419 . S
C289 C284 1.425 1_655 S
C289 C286 1.409 1_655 S
C289 C287 1.415 . S
C290 H280 0.930 . S
C290 C288 1.419 . S
C290 C291 1.362 . S
C291 H281 0.930 . S
C291 C284 1.409 1_655 S
C291 C290 1.362 . S
H292 C298 0.930 . S
H293 C301 0.930 . S
H294 C302 0.930 . S
H295 C303 0.930 . S
H296 C306 0.930 . S
H297 C307 0.930 . S
C298 H292 0.930 . S
C298 C299 1.355 . S
C298 C300 1.415 . S
C299 C298 1.355 . S
C299 C301 1.419 . S
C300 C298 1.415 . S
C300 C305 1.425 1_565 S
C300 C307 1.409 1_565 S
C301 H293 0.930 . S
C301 C299 1.419 . S
C301 C302 1.362 . S
C302 H294 0.930 . S
C302 C301 1.362 . S
C302 C305 1.409 1_565 S
C303 H295 0.930 . S
C303 C304 1.355 . S
C303 C305 1.415 . S
C304 C303 1.355 . S
C304 C306 1.419 . S
C305 C300 1.425 1_545 S
C305 C302 1.409 1_545 S
C305 C303 1.415 . S
C306 H296 0.930 . S
C306 C304 1.419 . S
C306 C307 1.362 . S
C307 H297 0.930 . S
C307 C300 1.409 1_545 S
C307 C306 1.362 . S
H308 C314 0.930 . S
H309 C317 0.930 . S
H310 C318 0.930 . S
H311 C319 0.930 . S
H312 C322 0.930 . S
H313 C323 0.930 . S
C314 H308 0.930 . S
C314 C315 1.355 . S
C314 C316 1.415 . S
C315 C314 1.355 . S
C315 C317 1.419 . S
C316 C314 1.415 . S
C316 C321 1.425 . S
C316 C323 1.409 . S
C317 H309 0.930 . S
C317 C315 1.419 . S
C317 C318 1.362 . S
C318 H310 0.930 . S
C318 C317 1.362 . S
C318 C321 1.409 . S
C319 H311 0.930 . S
C319 C320 1.355 . S
C319 C321 1.415 . S
C320 C319 1.355 . S
C320 C322 1.419 . S
C321 C316 1.425 . S
C321 C318 1.409 . S
C321 C319 1.415 . S
C322 H312 0.930 . S
C322 C320 1.419 . S
C322 C323 1.362 . S
C323 H313 0.930 . S
C323 C316 1.409 . S
C323 C322 1.362 . S
H324 C330 0.930 . S
H325 C333 0.930 . S
H326 C334 0.930 . S
H327 C335 0.930 . S
H328 C338 0.930 . S
H329 C339 0.930 . S
C330 H324 0.930 . S
C330 C331 1.355 . S
C330 C332 1.415 . S
C331 C330 1.355 . S
C331 C333 1.419 . S
C332 C330 1.415 . S
C332 C337 1.425 1_556 S
C332 C339 1.409 1_556 S
C333 H325 0.930 . S
C333 C331 1.419 . S
C333 C334 1.362 . S
C334 H326 0.930 . S
C334 C333 1.362 . S
C334 C337 1.409 1_556 S
C335 H327 0.930 . S
C335 C336 1.355 . S
C335 C337 1.415 . S
C336 C335 1.355 . S
C336 C338 1.419 . S
C337 C332 1.425 1_554 S
C337 C334 1.409 1_554 S
C337 C335 1.415 . S
C338 H328 0.930 . S
C338 C336 1.419 . S
C338 C339 1.362 . S
C339 H329 0.930 . S
C339 C332 1.409 1_554 S
C339 C338 1.362 . S
H340 C346 0.930 . S
H341 C349 0.930 . S
H342 C350 0.930 . S
H343 C351 0.930 . S
H344 C354 0.930 . S
H345 C355 0.930 . S
C346 H340 0.930 . S
C346 C347 1.355 . S
C346 C348 1.415 . S
C347 C346 1.355 . S
C347 C349 1.419 . S
C348 C346 1.415 . S
C348 C353 1.425 . S
C348 C355 1.409 . S
C349 H341 0.930 . S
C349 C347 1.419 . S
C349 C350 1.362 . S
C350 H342 0.930 . S
C350 C349 1.362 . S
C350 C353 1.409 . S
C351 H343 0.930 . S
C351 C352 1.355 . S
C351 C353 1.415 . S
C352 C351 1.355 . S
C352 C354 1.419 . S
C353 C348 1.425 . S
C353 C350 1.409 . S
C353 C351 1.415 . S
C354 H344 0.930 . S
C354 C352 1.419 . S
C354 C355 1.362 . S
C355 H345 0.930 . S
C355 C348 1.409 . S
C355 C354 1.362 . S
H356 C362 0.930 . S
H357 C365 0.930 . S
H358 C366 0.930 . S
H359 C367 0.930 . S
H360 C370 0.930 . S
H361 C371 0.930 . S
C362 H356 0.930 . S
C362 C363 1.355 . S
C362 C364 1.415 . S
C363 C362 1.355 . S
C363 C365 1.419 . S
C364 C362 1.415 . S
C364 C369 1.425 . S
C364 C371 1.409 . S
C365 H357 0.930 . S
C365 C363 1.419 . S
C365 C366 1.362 . S
C366 H358 0.930 . S
C366 C365 1.362 . S
C366 C369 1.409 . S
C367 H359 0.930 . S
C367 C368 1.355 . S
C367 C369 1.415 . S
C368 C367 1.355 . S
C368 C370 1.419 . S
C369 C364 1.425 . S
C369 C366 1.409 . S
C369 C367 1.415 . S
C370 H360 0.930 . S
C370 C368 1.419 . S
C370 C371 1.362 . S
C371 H361 0.930 . S
C371 C364 1.409 . S
C371 C370 1.362 . S
H372 C378 0.930 . S
H373 C381 0.930 . S
H374 C382 0.930 . S
H375 C383 0.930 . S
H376 C386 0.930 . S
H377 C387 0.930 . S
C378 H372 0.930 . S
C378 C379 1.355 . S
C378 C380 1.415 . S
C379 C378 1.355 . S
C379 C381 1.419 . S
C380 C378 1.415 . S
C380 C385 1.425 1_554 S
C380 C387 1.409 1_554 S
C381 H373 0.930 . S
C381 C379 1.419 . S
C381 C382 1.362 . S
C382 H374 0.930 . S
C382 C381 1.362 . S
C382 C385 1.409 1_554 S
C383 H375 0.930 . S
C383 C384 1.355 . S
C383 C385 1.415 . S
C384 C383 1.355 . S
C384 C386 1.419 . S
C385 C380 1.425 1_556 S
C385 C382 1.409 1_556 S
C385 C383 1.415 . S
C386 H376 0.930 . S
C386 C384 1.419 . S
C386 C387 1.362 . S
C387 H377 0.930 . S
C387 C380 1.409 1_556 S
C387 C386 1.362 . S
H388 C394 0.930 . S
H389 C397 0.930 . S
H390 C398 0.930 . S
H391 C399 0.930 . S
H392 C402 0.930 . S
H393 C403 0.930 . S
C394 H388 0.930 . S
C394 C395 1.355 . S
C394 C396 1.415 . S
C395 C394 1.355 . S
C395 C397 1.419 . S
C396 C394 1.415 . S
C396 C401 1.425 . S
C396 C403 1.409 . S
C397 H389 0.930 . S
C397 C395 1.419 . S
C397 C398 1.362 . S
C398 H390 0.930 . S
C398 C397 1.362 . S
C398 C401 1.409 . S
C399 H391 0.930 . S
C399 C400 1.355 . S
C399 C401 1.415 . S
C400 C399 1.355 . S
C400 C402 1.419 . S
C401 C396 1.425 . S
C401 C398 1.409 . S
C401 C399 1.415 . S
C402 H392 0.930 . S
C402 C400 1.419 . S
C402 C403 1.362 . S
C403 H393 0.930 . S
C403 C396 1.409 . S
C403 C402 1.362 . S
H404 C410 0.930 . S
H405 C413 0.930 . S
H406 C414 0.930 . S
H407 C415 0.930 . S
H408 C418 0.930 . S
H409 C419 0.930 . S
C410 H404 0.930 . S
C410 C411 1.355 . S
C410 C412 1.415 . S
C411 C410 1.355 . S
C411 C413 1.419 . S
C412 C410 1.415 . S
C412 C417 1.425 . S
C412 C419 1.409 . S
C413 H405 0.930 . S
C413 C411 1.419 . S
C413 C414 1.362 . S
C414 H406 0.930 . S
C414 C413 1.362 . S
C414 C417 1.409 . S
C415 H407 0.930 . S
C415 C416 1.355 . S
C415 C417 1.415 . S
C416 C415 1.355 . S
C416 C418 1.419 . S
C417 C412 1.425 . S
C417 C414 1.409 . S
C417 C415 1.415 . S
C418 H408 0.930 . S
C418 C416 1.419 . S
C418 C419 1.362 . S
C419 H409 0.930 . S
C419 C412 1.409 . S
C419 C418 1.362 . S
C139 C96 1.535 . S
C144 C8 1.566 . S
C155 C19 1.511 . S
C160 C107 1.545 . S
C171 C118 1.558 . S
C176 C30 1.518 . S
C187 C129 1.523 . S
C192 C41 1.561 . S
C203 C74 1.565 . S
C208 C52 1.536 . S
C219 C63 1.512 . S
C224 C85 1.548 . S
C235 C38 1.206 . S
C240 C5 1.182 . S
C251 C49 1.327 . S
C256 C16 1.322 . S
C267 C27 1.329 . S
C272 C60 1.257 . S
C283 C104 1.205 . S
C288 C71 1.181 . S
C299 C82 1.179 . S
C304 C115 1.212 . S
C315 C126 1.332 . S
C320 C93 1.313 . S
C331 C117 1.534 . S
C336 C7 1.535 . S
C347 C128 1.469 . S
C352 C18 1.452 . S
C363 C29 1.484 . S
C368 C73 1.463 . S
C379 C40 1.491 . S
C384 C84 1.469 . S
C395 C51 1.500 . S
C400 C95 1.477 . S
C411 C62 1.533 . S
C416 C106 1.520 . S
