# Generated by pormake.
# Topology snl, (6)-cn, num edge types: 1
# Building blocks:
#     Node 0, Type 0, BuildingBlock: KUMBUR_clean_sbu_1, # of connection points: 6
#     Node 1, Type 0, BuildingBlock: KUMBUR_clean_sbu_1, # of connection points: 6
#     Node 2, Type 0, BuildingBlock: KUMBUR_clean_sbu_1, # of connection points: 6
#     Node 3, Type 0, BuildingBlock: KUMBUR_clean_sbu_1, # of connection points: 6
#     Node 4, Type 0, BuildingBlock: KUMBUR_clean_sbu_1, # of connection points: 6
#     Node 5, Type 0, BuildingBlock: KUMBUR_clean_sbu_1, # of connection points: 6
#     Node 6, Type 0, BuildingBlock: KUMBUR_clean_sbu_1, # of connection points: 6
#     Node 7, Type 0, BuildingBlock: KUMBUR_clean_sbu_1, # of connection points: 6
#     Node 8, Type 0, BuildingBlock: KUMBUR_clean_sbu_1, # of connection points: 6
#     Node 9, Type 0, BuildingBlock: KUMBUR_clean_sbu_1, # of connection points: 6
#     Node 10, Type 0, BuildingBlock: KUMBUR_clean_sbu_1, # of connection points: 6
#     Node 11, Type 0, BuildingBlock: KUMBUR_clean_sbu_1, # of connection points: 6
#     Node 12, Type 0, BuildingBlock: KUMBUR_clean_sbu_1, # of connection points: 6
#     Node 13, Type 0, BuildingBlock: KUMBUR_clean_sbu_1, # of connection points: 6
#     Node 14, Type 0, BuildingBlock: KUMBUR_clean_sbu_1, # of connection points: 6
#     Node 15, Type 0, BuildingBlock: KUMBUR_clean_sbu_1, # of connection points: 6
#     Edge 16, Type (0, 0), BuildingBlock: XIVTED_clean_linker_0, # of connection points: 2
#     Edge 17, Type (0, 0), BuildingBlock: XIVTED_clean_linker_0, # of connection points: 2
#     Edge 18, Type (0, 0), BuildingBlock: XIVTED_clean_linker_0, # of connection points: 2
#     Edge 19, Type (0, 0), BuildingBlock: XIVTED_clean_linker_0, # of connection points: 2
#     Edge 20, Type (0, 0), BuildingBlock: XIVTED_clean_linker_0, # of connection points: 2
#     Edge 21, Type (0, 0), BuildingBlock: XIVTED_clean_linker_0, # of connection points: 2
#     Edge 22, Type (0, 0), BuildingBlock: XIVTED_clean_linker_0, # of connection points: 2
#     Edge 23, Type (0, 0), BuildingBlock: XIVTED_clean_linker_0, # of connection points: 2
#     Edge 24, Type (0, 0), BuildingBlock: XIVTED_clean_linker_0, # of connection points: 2
#     Edge 25, Type (0, 0), BuildingBlock: XIVTED_clean_linker_0, # of connection points: 2
#     Edge 26, Type (0, 0), BuildingBlock: XIVTED_clean_linker_0, # of connection points: 2
#     Edge 27, Type (0, 0), BuildingBlock: XIVTED_clean_linker_0, # of connection points: 2
#     Edge 28, Type (0, 0), BuildingBlock: XIVTED_clean_linker_0, # of connection points: 2
#     Edge 29, Type (0, 0), BuildingBlock: XIVTED_clean_linker_0, # of connection points: 2
#     Edge 30, Type (0, 0), BuildingBlock: XIVTED_clean_linker_0, # of connection points: 2
#     Edge 31, Type (0, 0), BuildingBlock: XIVTED_clean_linker_0, # of connection points: 2
#     Edge 32, Type (0, 0), BuildingBlock: XIVTED_clean_linker_0, # of connection points: 2
#     Edge 33, Type (0, 0), BuildingBlock: XIVTED_clean_linker_0, # of connection points: 2
#     Edge 34, Type (0, 0), BuildingBlock: XIVTED_clean_linker_0, # of connection points: 2
#     Edge 35, Type (0, 0), BuildingBlock: XIVTED_clean_linker_0, # of connection points: 2
#     Edge 36, Type (0, 0), BuildingBlock: XIVTED_clean_linker_0, # of connection points: 2
#     Edge 37, Type (0, 0), BuildingBlock: XIVTED_clean_linker_0, # of connection points: 2
#     Edge 38, Type (0, 0), BuildingBlock: XIVTED_clean_linker_0, # of connection points: 2
#     Edge 39, Type (0, 0), BuildingBlock: XIVTED_clean_linker_0, # of connection points: 2
#     Edge 40, Type (0, 0), BuildingBlock: XIVTED_clean_linker_0, # of connection points: 2
#     Edge 41, Type (0, 0), BuildingBlock: XIVTED_clean_linker_0, # of connection points: 2
#     Edge 42, Type (0, 0), BuildingBlock: XIVTED_clean_linker_0, # of connection points: 2
#     Edge 43, Type (0, 0), BuildingBlock: XIVTED_clean_linker_0, # of connection points: 2
#     Edge 44, Type (0, 0), BuildingBlock: XIVTED_clean_linker_0, # of connection points: 2
#     Edge 45, Type (0, 0), BuildingBlock: XIVTED_clean_linker_0, # of connection points: 2
#     Edge 46, Type (0, 0), BuildingBlock: XIVTED_clean_linker_0, # of connection points: 2
#     Edge 47, Type (0, 0), BuildingBlock: XIVTED_clean_linker_0, # of connection points: 2
#     Edge 48, Type (0, 0), BuildingBlock: XIVTED_clean_linker_0, # of connection points: 2
#     Edge 49, Type (0, 0), BuildingBlock: XIVTED_clean_linker_0, # of connection points: 2
#     Edge 50, Type (0, 0), BuildingBlock: XIVTED_clean_linker_0, # of connection points: 2
#     Edge 51, Type (0, 0), BuildingBlock: XIVTED_clean_linker_0, # of connection points: 2
#     Edge 52, Type (0, 0), BuildingBlock: XIVTED_clean_linker_0, # of connection points: 2
#     Edge 53, Type (0, 0), BuildingBlock: XIVTED_clean_linker_0, # of connection points: 2
#     Edge 54, Type (0, 0), BuildingBlock: XIVTED_clean_linker_0, # of connection points: 2
#     Edge 55, Type (0, 0), BuildingBlock: XIVTED_clean_linker_0, # of connection points: 2
#     Edge 56, Type (0, 0), BuildingBlock: XIVTED_clean_linker_0, # of connection points: 2
#     Edge 57, Type (0, 0), BuildingBlock: XIVTED_clean_linker_0, # of connection points: 2
#     Edge 58, Type (0, 0), BuildingBlock: XIVTED_clean_linker_0, # of connection points: 2
#     Edge 59, Type (0, 0), BuildingBlock: XIVTED_clean_linker_0, # of connection points: 2
#     Edge 60, Type (0, 0), BuildingBlock: XIVTED_clean_linker_0, # of connection points: 2
#     Edge 61, Type (0, 0), BuildingBlock: XIVTED_clean_linker_0, # of connection points: 2
#     Edge 62, Type (0, 0), BuildingBlock: XIVTED_clean_linker_0, # of connection points: 2
#     Edge 63, Type (0, 0), BuildingBlock: XIVTED_clean_linker_0, # of connection points: 2
# Relax obj value: 0.160
# Max RMSD: 0.230
# Mean RMSD: 0.226
data_MOF--net-snl--node1-KUMBUR_clean_sbu_1--edge1-XIVTED_clean_linker_0
_symmetry_space_group_name_H-M    P1
_symmetry_Int_Tables_number       1
_symmetry_cell_setting            triclinic
loop_
_symmetry_equiv_pos_as_xyz
'x, y, z'
_cell_length_a     57.397944
_cell_length_b     57.383417
_cell_length_c     24.917251
_cell_angle_alpha  90.350738
_cell_angle_beta   90.256992
_cell_angle_gamma 89.936129
loop_
_atom_site_label
_atom_site_type_symbol
_atom_site_fract_x
_atom_site_fract_y
_atom_site_fract_z
_atom_type_partial_charge
Tb0 Tb 0.12828 0.6229 0.20216 0.0
C1 C 0.20585 0.65095 0.06026 0.0
N2 N 0.18571 0.66287 0.06856 0.0
C3 C 0.20723 0.69819 0.08265 0.0
C4 C 0.22765 0.66203 0.06532 0.0
C5 C 0.18601 0.68636 0.07768 0.0
C6 C 0.22815 0.68593 0.07703 0.0
C7 C 0.2249 0.61448 0.03834 0.0
C8 C 0.20441 0.62748 0.04734 0.0
C9 C 0.24674 0.6252 0.04502 0.0
C10 C 0.24811 0.64894 0.0584 0.0
Tb11 Tb 0.15209 0.64214 0.0588 0.0
N12 N 0.18293 0.61775 0.04104 0.0
C13 C 0.22281 0.59134 0.02111 0.0
C14 C 0.18098 0.59601 0.01879 0.0
C15 C 0.20074 0.58224 1.01016 0.0
H16 H 0.16993 0.69601 0.08113 0.0
H17 H 0.19896 0.56482 0.99373 0.0
H18 H 0.13626 0.56533 0.21562 0.0
H19 H 0.05056 0.67169 0.25051 0.0
H20 H 0.16438 0.58951 1.00536 0.0
H21 H 0.23811 0.58074 0.0137 0.0
H22 H 0.09326 0.66507 0.24373 0.0
H23 H 0.20743 0.71674 0.09068 0.0
H24 H 0.26267 0.61543 0.03874 0.0
H25 H 0.26506 0.65706 0.0626 0.0
H26 H 0.11237 0.52978 0.20415 0.0
H27 H 0.24455 0.69511 0.08114 0.0
H28 H 0.02315 0.64015 0.22499 0.0
N29 N 0.10792 0.58848 0.20125 0.0
C30 C 0.08444 0.59054 0.1977 0.0
C31 C 0.10431 0.54679 0.2014 0.0
C32 C 0.07 0.57085 0.19203 0.0
C33 C 0.11781 0.56696 0.2074 0.0
C34 C 0.08035 0.54876 0.19216 0.0
N35 N 0.08954 0.63036 0.21469 0.0
C36 C 0.08125 0.65117 0.23379 0.0
C37 C 0.05055 0.61523 0.20795 0.0
C38 C 0.07485 0.61229 0.2057 0.0
C39 C 0.04174 0.63707 0.22306 0.0
C40 C 0.05718 0.65494 0.23742 0.0
H41 H 0.06989 0.53315 0.18791 0.0
H42 H 0.03429 0.55909 0.18285 0.0
H43 H 0.01734 0.59823 0.19452 0.0
O44 O 0.14488 0.63934 0.26774 0.0
O45 O 0.10557 0.64167 0.14598 0.0
O46 O 0.11511 0.63026 0.06076 0.0
O47 O 0.12282 0.60988 0.28005 0.0
O48 O 0.13745 0.66072 0.19378 0.0
O49 O 0.13513 0.67042 0.10285 0.0
O50 O 0.15871 0.63906 0.9759 0.0
O51 O 0.17289 0.64524 0.13476 0.0
O52 O 0.16369 0.61264 0.18106 0.0
O53 O 0.14178 0.66938 1.00776 0.0
O54 O 0.13545 0.6079 0.0621 0.0
O55 O 0.14365 0.59568 0.14799 0.0
C56 C 0.09931 0.63503 0.09766 0.0
C57 C 0.1519 0.61689 0.34534 0.0
C58 C 0.1617 0.61497 0.44085 0.0
C59 C 0.18207 0.60257 0.4277 0.0
C60 C 0.1719 0.60398 0.33317 0.0
C61 C 0.18703 0.59704 0.37418 0.0
C62 C 0.14675 0.62218 0.39913 0.0
C63 C 0.13619 0.6762 0.15418 0.0
C64 C 0.13617 0.62522 0.30287 0.0
C65 C 0.04572 0.57389 0.18895 0.0
C66 C 0.03603 0.59613 0.19644 0.0
C67 C 0.17915 0.62821 0.16718 0.0
C68 C 0.13006 0.6563 0.92124 0.0
C69 C 0.12052 0.64916 0.82647 0.0
C70 C 0.09678 0.65224 0.83885 0.0
C71 C 0.10623 0.65886 0.93247 0.0
C72 C 0.13709 0.65136 0.86827 0.0
C73 C 0.08977 0.65693 0.89139 0.0
C74 C 0.13805 0.59112 0.09731 0.0
C75 C 0.14771 0.65814 0.96441 0.0
H76 H 0.19386 0.5967 0.45887 0.0
H77 H 0.17567 0.59928 0.29211 0.0
H78 H 0.20257 0.5872 0.36449 0.0
H79 H 0.13118 0.63211 0.40844 0.0
H80 H 0.08354 0.65125 0.80784 0.0
H81 H 0.1003 0.66235 0.97295 0.0
H82 H 0.15544 0.64882 0.86002 0.0
H83 H 0.07145 0.65911 0.90029 0.0
Tb84 Tb 0.63185 0.90095 0.33098 0.0
C85 C 0.70237 0.85327 0.48019 0.0
N86 N 0.6794 0.8479 0.47446 0.0
C87 C 0.68868 0.80712 0.47512 0.0
C88 C 0.71948 0.83566 0.48254 0.0
C89 C 0.67233 0.82518 0.473 0.0
C90 C 0.71235 0.81236 0.47973 0.0
C91 C 0.73245 0.88288 0.48654 0.0
C92 C 0.70878 0.87661 0.48212 0.0
C93 C 0.74955 0.86539 0.48915 0.0
C94 C 0.74308 0.84185 0.48715 0.0
Tb95 Tb 0.65454 0.87897 0.47082 0.0
N96 N 0.69179 0.8931 0.47727 0.0
C97 C 0.73822 0.90655 0.48791 0.0
C98 C 0.69729 0.91619 0.48123 0.0
C99 C 0.72054 0.92326 0.48577 0.0
H100 H 0.65404 0.82091 0.47154 0.0
H101 H 0.72479 0.94161 0.48811 0.0
H102 H 0.62976 0.95894 0.33104 0.0
H103 H 0.56461 0.83565 0.30127 0.0
H104 H 0.68398 0.92931 0.4819 0.0
H105 H 0.75621 0.91211 0.49126 0.0
H106 H 0.60476 0.84976 0.30732 0.0
H107 H 0.683 0.78917 0.47353 0.0
H108 H 0.76783 0.86988 0.4925 0.0
H109 H 0.75648 0.82856 0.48899 0.0
H110 H 0.59952 0.98942 0.32847 0.0
H111 H 0.72496 0.79831 0.48133 0.0
H112 H 0.5318 0.86361 0.30375 0.0
N113 N 0.60562 0.93086 0.32483 0.0
C114 C 0.58294 0.92461 0.31828 0.0
C115 C 0.5946 0.97124 0.32591 0.0
C116 C 0.56508 0.94147 0.31704 0.0
C117 C 0.61169 0.95387 0.32787 0.0
C118 C 0.57118 0.96502 0.32084 0.0
N119 N 0.59532 0.88533 0.31914 0.0
C120 C 0.59089 0.86217 0.31132 0.0
C121 C 0.55425 0.89378 0.31073 0.0
C122 C 0.57761 0.90107 0.31525 0.0
C123 C 0.54954 0.86993 0.30711 0.0
C124 C 0.56799 0.85409 0.30627 0.0
H125 H 0.55796 0.97851 0.31997 0.0
H126 H 0.52771 0.94692 0.31345 0.0
H127 H 0.51835 0.90512 0.30985 0.0
O128 O 0.63642 0.88407 0.25663 0.0
O129 O 0.6081 0.90414 0.39982 0.0
O130 O 0.61644 0.87396 0.457 0.0
O131 O 0.63502 0.92134 0.26136 0.0
O132 O 0.64275 0.86337 0.33903 0.0
O133 O 0.63373 0.85385 0.42606 0.0
O134 O 0.65397 0.89601 0.54566 0.0
O135 O 0.67833 0.87684 0.39973 0.0
O136 O 0.66843 0.90828 0.34859 0.0
O137 O 0.65135 0.85875 0.54061 0.0
O138 O 0.6422 0.91536 0.46713 0.0
O139 O 0.64946 0.92802 0.38096 0.0
C140 C 0.60144 0.88863 0.435 0.0
C141 C 0.65613 0.90477 0.18953 0.0
C142 C 0.66749 0.90294 0.09525 0.0
C143 C 0.69089 0.90597 0.11085 0.0
C144 C 0.67946 0.90799 0.20426 0.0
C145 C 0.69679 0.90851 0.16508 0.0
C146 C 0.65021 0.90229 0.13516 0.0
C147 C 0.63804 0.84763 0.37635 0.0
C148 C 0.63766 0.90343 0.22999 0.0
C149 C 0.54174 0.93426 0.31345 0.0
C150 C 0.53637 0.91047 0.31082 0.0
C151 C 0.68371 0.89262 0.3635 0.0
C152 C 0.63268 0.87741 0.61315 0.0
C153 C 0.62208 0.8813 0.70758 0.0
C154 C 0.59843 0.87969 0.69284 0.0
C155 C 0.60904 0.87585 0.59916 0.0
C156 C 0.6391 0.88015 0.66716 0.0
C157 C 0.59202 0.87698 0.63896 0.0
C158 C 0.64515 0.93233 0.43235 0.0
C159 C 0.65096 0.87682 0.57219 0.0
H160 H 0.70459 0.90671 0.08115 0.0
H161 H 0.68415 0.91007 0.2459 0.0
H162 H 0.71482 0.91096 0.17676 0.0
H163 H 0.63214 0.89948 0.12406 0.0
H164 H 0.5849 0.88024 0.72295 0.0
H165 H 0.60375 0.87382 0.55769 0.0
H166 H 0.6574 0.8818 0.6775 0.0
H167 H 0.57379 0.87572 0.62803 0.0
Tb168 Tb 0.37088 0.3815 0.56376 0.0
C169 C 0.39684 0.45804 0.71001 0.0
N170 N 0.40887 0.43783 0.70298 0.0
C171 C 0.44428 0.45931 0.69155 0.0
C172 C 0.40792 0.47981 0.70537 0.0
C173 C 0.43245 0.4381 0.69592 0.0
C174 C 0.43193 0.48025 0.69567 0.0
C175 C 0.36 0.47721 0.72715 0.0
C176 C 0.37316 0.45666 0.7202 0.0
C177 C 0.3708 0.49902 0.7213 0.0
C178 C 0.39471 0.50032 0.71046 0.0
Tb179 Tb 0.38793 0.40423 0.71025 0.0
N180 N 0.36326 0.43519 0.72499 0.0
C181 C 0.33652 0.47522 0.74117 0.0
C182 C 0.34105 0.43336 0.74387 0.0
C183 C 0.32716 0.4532 0.75071 0.0
H184 H 0.44214 0.42201 0.69346 0.0
H185 H 0.3094 0.45152 0.76458 0.0
H186 H 0.31264 0.38192 0.55229 0.0
H187 H 0.43076 0.31369 0.50461 0.0
H188 H 0.3342 0.41684 0.75607 0.0
H189 H 0.32579 0.49057 0.74697 0.0
H190 H 0.41826 0.35431 0.52253 0.0
H191 H 0.46291 0.45948 0.68504 0.0
H192 H 0.36091 0.51499 0.72599 0.0
H193 H 0.40285 0.51725 0.7066 0.0
H194 H 0.28084 0.35307 0.55482 0.0
H195 H 0.44113 0.49664 0.69191 0.0
H196 H 0.40262 0.28132 0.51443 0.0
N197 N 0.3396 0.35656 0.55913 0.0
C198 C 0.34486 0.33354 0.555 0.0
C199 C 0.2988 0.34731 0.55589 0.0
C200 C 0.32732 0.31637 0.55403 0.0
C201 C 0.31689 0.36364 0.55558 0.0
C202 C 0.30404 0.32354 0.55638 0.0
N203 N 0.38381 0.34472 0.54442 0.0
C204 C 0.40595 0.34023 0.52704 0.0
C205 C 0.37402 0.30406 0.53633 0.0
C206 C 0.36778 0.32742 0.54626 0.0
C207 C 0.3971 0.29906 0.52238 0.0
C208 C 0.41304 0.31729 0.51678 0.0
H209 H 0.29001 0.31092 0.55575 0.0
H210 H 0.32036 0.27929 0.54765 0.0
H211 H 0.36138 0.26858 0.53178 0.0
O212 O 0.38734 0.39914 0.50066 0.0
O213 O 0.38873 0.35799 0.61932 0.0
O214 O 0.37724 0.3668 0.70505 0.0
O215 O 0.35713 0.37821 0.48539 0.0
O216 O 0.40838 0.39139 0.57681 0.0
O217 O 0.4166 0.3873 0.66825 0.0
O218 O 0.38307 0.41082 0.79273 0.0
O219 O 0.39202 0.42502 0.6356 0.0
O220 O 0.35965 0.4164 0.58772 0.0
O221 O 0.41438 0.3946 0.76459 0.0
O222 O 0.35409 0.38709 0.70331 0.0
O223 O 0.34181 0.3942 0.61646 0.0
C224 C 0.38225 0.35134 0.66713 0.0
C225 C 0.36502 0.40832 0.42371 0.0
C226 C 0.36278 0.41923 0.32907 0.0
C227 C 0.35273 0.44062 0.34434 0.0
C228 C 0.35451 0.42947 0.43805 0.0
C229 C 0.34853 0.44561 0.3985 0.0
C230 C 0.36894 0.40319 0.3693 0.0
C231 C 0.42321 0.38871 0.61769 0.0
C232 C 0.37281 0.39158 0.46445 0.0
C233 C 0.33355 0.29279 0.54782 0.0
C234 C 0.35688 0.28667 0.53878 0.0
C235 C 0.37509 0.43175 0.60345 0.0
C236 C 0.40003 0.38293 0.84944 0.0
C237 C 0.39246 0.37381 0.9438 0.0
C238 C 0.39497 0.34997 0.93128 0.0
C239 C 0.40207 0.35903 0.83801 0.0
C240 C 0.39516 0.39022 0.9023 0.0
C241 C 0.39965 0.34271 0.87883 0.0
C242 C 0.33737 0.38887 0.66724 0.0
C243 C 0.40222 0.40042 0.80653 0.0
H244 H 0.34772 0.4533 0.31438 0.0
H245 H 0.35104 0.43342 0.47967 0.0
H246 H 0.34057 0.46202 0.40985 0.0
H247 H 0.37718 0.38683 0.35837 0.0
H248 H 0.39354 0.33684 0.96211 0.0
H249 H 0.40551 0.35294 0.79757 0.0
H250 H 0.39303 0.40865 0.91069 0.0
H251 H 0.40141 0.32431 0.86979 0.0
Tb252 Tb 0.86936 0.14137 0.95489 0.0
C253 C 0.9182 0.07312 0.80633 0.0
N254 N 0.92394 0.09592 0.8138 0.0
C255 C 0.96445 0.08578 0.81748 0.0
C256 C 0.93547 0.05565 0.80531 0.0
C257 C 0.94673 0.10251 0.81806 0.0
C258 C 0.95882 0.06225 0.81124 0.0
C259 C 0.88811 0.04374 0.79534 0.0
C260 C 0.89476 0.06723 0.80159 0.0
C261 C 0.90529 0.02628 0.79401 0.0
C262 C 0.92889 0.03222 0.79902 0.0
Tb263 Tb 0.89334 0.12134 0.8145 0.0
N264 N 0.8785 0.08452 0.80524 0.0
C265 C 0.86438 0.03849 0.79081 0.0
C266 C 0.85546 0.07957 0.79802 0.0
C267 C 0.84802 0.05652 0.79158 0.0
H268 H 0.95139 0.12069 0.82071 0.0
H269 H 0.82968 0.05269 0.78658 0.0
H270 H 0.81116 0.13688 0.95169 0.0
H271 H 0.92681 0.21278 1.00514 0.0
H272 H 0.84276 0.09323 0.79574 0.0
H273 H 0.85854 0.02065 0.7859 0.0
H274 H 0.91736 0.17326 0.97463 0.0
H275 H 0.98243 0.09109 0.82158 0.0
H276 H 0.90049 1.00812 0.78931 0.0
H277 H 0.94191 0.01854 0.79817 0.0
H278 H 0.77764 0.16264 0.96788 0.0
H279 H 0.97262 0.04935 0.81081 0.0
H280 H 0.89527 0.24034 0.02819 0.0
N281 N 0.8365 0.16336 0.96654 0.0
C282 C 0.84026 0.18573 0.98271 0.0
C283 C 0.79516 0.16939 0.97185 0.0
C284 C 0.82152 0.20075 0.99476 0.0
C285 C 0.81429 0.15494 0.96168 0.0
C286 C 0.79878 0.19239 0.98849 0.0
N287 N 0.88066 0.17865 0.97449 0.0
C288 C 0.90333 0.18525 0.98149 0.0
C289 C 0.86771 0.21617 1.00706 0.0
C290 C 0.86306 0.19347 0.98796 0.0
C291 C 0.89093 0.22315 1.01296 0.0
C292 C 0.90879 0.20766 0.99988 0.0
H293 H 0.78391 0.20342 0.99717 0.0
H294 H 0.81191 0.23514 0.02359 0.0
H295 H 0.85232 0.24831 0.0362 0.0
O296 O 0.8879 0.13325 0.0255 0.0
O297 O 0.86961 0.16894 0.89406 0.0
O298 O 0.8969 0.15948 0.82881 0.0
O299 O 0.85071 0.13739 0.02675 0.0
O300 O 0.90744 0.1327 0.94707 0.0
O301 O 0.91797 0.14212 0.86056 0.0
O302 O 0.87838 0.12099 0.73733 0.0
O303 O 0.89531 0.09739 0.88541 0.0
O304 O 0.86223 0.10538 0.93204 0.0
O305 O 0.91526 0.1254 0.74774 0.0
O306 O 0.85755 0.13519 0.8164 0.0
O307 O 0.84395 0.1246 0.89935 0.0
C308 C 0.88355 0.17471 0.85455 0.0
C309 C 0.86759 0.11555 0.0969 0.0
C310 C 0.87026 0.10559 0.19187 0.0
C311 C 0.86399 0.08252 0.17889 0.0
C312 C 0.86076 0.09275 0.08492 0.0
C313 C 0.85924 0.0762 0.12564 0.0
C314 C 0.87228 0.12193 0.15027 0.0
C315 C 0.92339 0.1383 0.91091 0.0
C316 C 0.86927 0.13336 0.0551 0.0
C317 C 0.82607 0.22342 0.01357 0.0
C318 C 0.8491 0.23097 0.02046 0.0
C319 C 0.87891 0.09088 0.91917 0.0
C320 C 0.89783 0.14301 0.67232 0.0
C321 C 0.89448 0.15329 0.57758 0.0
C322 C 0.89662 0.17696 0.59195 0.0
C323 C 0.89987 0.16667 0.68589 0.0
C324 C 0.89508 0.13642 0.61837 0.0
C325 C 0.89928 0.18354 0.64576 0.0
C326 C 0.84017 0.13128 0.84933 0.0
C327 C 0.89811 0.12487 0.71361 0.0
H328 H 0.86214 0.06956 0.20997 0.0
H329 H 0.85634 0.08802 0.04431 0.0
H330 H 0.85403 0.05853 0.11606 0.0
H331 H 0.87746 0.1397 0.15935 0.0
H332 H 0.89652 0.19039 0.56161 0.0
H333 H 0.90192 0.17209 0.72731 0.0
H334 H 0.89305 0.11812 0.60839 0.0
H335 H 0.90093 0.20179 0.65637 0.0
Tb336 Tb 0.1284 0.39716 0.82056 0.0
C337 C 0.19879 0.34501 0.955 0.0
N338 N 0.17525 0.34274 0.95643 0.0
C339 C 0.17931 0.30106 0.95284 0.0
C340 C 0.21351 0.32543 0.94985 0.0
C341 C 0.16558 0.32102 0.95959 0.0
C342 C 0.20337 0.3033 0.94674 0.0
C343 C 0.23244 0.36978 0.96934 0.0
C344 C 0.20817 0.3668 0.96426 0.0
C345 C 0.24726 0.35062 0.96098 0.0
C346 C 0.23781 0.32848 0.95098 0.0
Tb347 Tb 0.15447 0.37687 0.96403 0.0
N348 N 0.19329 0.3849 0.97154 0.0
C349 C 0.24095 0.39173 0.98456 0.0
C350 C 0.20134 0.40599 0.98943 0.0
C351 C 0.22529 0.40982 0.99551 0.0
H352 H 0.14728 0.31894 0.96806 0.0
H353 H 0.23165 0.42669 1.0085 0.0
H354 H 0.10324 0.44791 0.84061 0.0
H355 H 0.09446 0.32007 0.72014 0.0
H356 H 0.18924 0.41992 0.99791 0.0
H357 H 0.25949 0.39473 0.98921 0.0
H358 H 0.125 0.34798 0.74686 0.0
H359 H 0.17139 0.28396 0.95357 0.0
H360 H 0.266 0.35259 0.96388 0.0
H361 H 0.2494 0.31369 0.94651 0.0
H362 H 0.06309 0.46372 0.84592 0.0
H363 H 0.21403 0.2878 0.94264 0.0
H364 H 0.05305 0.32888 0.73887 0.0
N365 N 0.09209 0.41341 0.82328 0.0
C366 C 0.07393 0.3993 0.81089 0.0
C367 C 0.06589 0.4455 0.83643 0.0
C368 C 0.05078 0.40739 0.81326 0.0
C369 C 0.08855 0.43656 0.83345 0.0
C370 C 0.04689 0.43076 0.82713 0.0
N371 N 0.10151 0.37113 0.7867 0.0
C372 C 0.10712 0.35162 0.75753 0.0
C373 C 0.06066 0.36216 0.77636 0.0
C374 C 0.07882 0.37713 0.79286 0.0
C375 C 0.06646 0.34092 0.75206 0.0
C376 C 0.0898 0.33589 0.74142 0.0
H377 H 0.0294 0.43774 0.82945 0.0
H378 H 0.01453 0.39765 0.8028 0.0
H379 H 0.02318 0.35806 0.77048 0.0
O380 O 0.12277 0.40172 0.7373 0.0
O381 O 0.10884 0.40328 0.8951 0.0
O382 O 0.11648 0.37218 0.94969 0.0
O383 O 0.14728 0.42296 0.77993 0.0
O384 O 0.14057 0.36048 0.83155 0.0
O385 O 0.13238 0.35202 0.91954 0.0
O386 O 0.14801 0.39533 0.03569 0.0
O387 O 0.1775 0.39236 0.90071 0.0
O388 O 0.1613 0.37841 0.82352 0.0
O389 O 0.15706 0.35932 0.03822 0.0
O390 O 0.14483 0.41346 0.96094 0.0
O391 O 0.142 0.42649 0.87221 0.0
C392 C 0.10167 0.38717 0.92818 0.0
C393 C 0.15586 0.41441 0.68815 0.0
C394 C 0.16422 0.40594 0.59309 0.0
C395 C 0.18791 0.4106 0.60339 0.0
C396 C 0.17962 0.41923 0.69647 0.0
C397 C 0.19545 0.41718 0.6545 0.0
C398 C 0.14822 0.40798 0.63599 0.0
C399 C 0.13447 0.3455 0.86908 0.0
C400 C 0.13898 0.41729 0.73295 0.0
C401 C 0.03249 0.39206 0.80035 0.0
C402 C 0.03742 0.36944 0.78208 0.0
C403 C 0.17954 0.38605 0.84977 0.0
C404 C 0.13353 0.37404 0.10869 0.0
C405 C 0.12243 0.37636 0.2037 0.0
C406 C 0.09967 0.36971 0.18897 0.0
C407 C 0.11073 0.36744 0.09528 0.0
C408 C 0.13936 0.3784 0.16293 0.0
C409 C 0.09394 0.36526 0.13529 0.0
C410 C 0.14469 0.43017 0.92492 0.0
C411 C 0.15112 0.37744 0.06641 0.0
H412 H 0.20066 0.40968 0.57153 0.0
H413 H 0.18607 0.42466 0.73549 0.0
H414 H 0.21371 0.42089 0.66156 0.0
H415 H 0.1299 0.4045 0.62892 0.0
H416 H 0.0863 0.36763 0.21908 0.0
H417 H 0.10589 0.36411 0.0539 0.0
H418 H 0.15692 0.38383 0.17313 0.0
H419 H 0.07637 0.36013 0.12464 0.0
Tb420 Tb 0.89006 0.90128 0.20942 0.0
C421 C 0.81293 0.8816 0.0615 0.0
N422 N 0.83189 0.86773 0.0685 0.0
C423 C 0.80718 0.83445 0.07934 0.0
C424 C 0.79021 0.87262 0.066 0.0
C425 C 0.82941 0.84423 0.07495 0.0
C426 C 0.7875 0.84875 0.07561 0.0
C427 C 0.79739 0.9198 0.04156 0.0
C428 C 0.81657 0.90488 0.05016 0.0
C429 C 0.77464 0.91122 0.048 0.0
C430 C 0.77106 0.88767 0.06022 0.0
Tb431 Tb 0.86736 0.88541 0.06237 0.0
N432 N 0.83887 0.91249 0.04427 0.0
C433 C 0.80166 0.94259 0.02466 0.0
C434 C 0.84283 0.93382 0.02194 0.0
C435 C 0.82445 0.94943 0.01351 0.0
H436 H 0.8446 0.83316 0.07774 0.0
H437 H 0.82784 0.96656 0.99733 0.0
H438 H 0.88712 0.9597 0.21954 0.0
H439 H 0.96091 0.84507 0.26764 0.0
H440 H 0.86003 0.93874 1.00906 0.0
H441 H 0.78742 0.95462 0.01752 0.0
H442 H 0.9196 0.85562 0.25089 0.0
H443 H 0.80524 0.81591 0.0857 0.0
H444 H 0.7597 0.92249 0.0422 0.0
H445 H 0.75342 0.88119 0.06409 0.0
H446 H 0.91452 0.99264 0.21461 0.0
H447 H 0.77031 0.84114 0.0793 0.0
H448 H 0.99193 0.87446 0.25456 0.0
N449 N 0.91359 0.93373 0.2122 0.0
C450 C 0.93684 0.92952 0.21476 0.0
C451 C 0.92105 0.97494 0.21375 0.0
C452 C 0.95321 0.9478 0.21401 0.0
C453 C 0.90555 0.95616 0.21572 0.0
C454 C 0.945 0.97074 0.21161 0.0
N455 N 0.92752 0.89024 0.22725 0.0
C456 C 0.93312 0.86848 0.24534 0.0
C457 C 0.96778 0.90183 0.23245 0.0
C458 C 0.94407 0.90697 0.22371 0.0
C459 C 0.9739 0.87913 0.24734 0.0
C460 C 0.95643 0.86249 0.25482 0.0
H461 H 0.95698 0.98531 0.21089 0.0
H462 H 0.98999 0.95641 0.2172 0.0
H463 H 1.00276 0.91603 0.23334 0.0
O464 O 0.87311 0.88426 0.27272 0.0
O465 O 0.9132 0.88307 0.15302 0.0
O466 O 0.90469 0.89597 0.06832 0.0
O467 O 0.89364 0.91473 0.28803 0.0
O468 O 0.88064 0.86366 0.19626 0.0
O469 O 0.88257 0.85567 0.10414 0.0
O470 O 0.86104 0.88886 0.9794 0.0
O471 O 0.84637 0.8804 0.1368 0.0
O472 O 0.8549 0.9122 0.18704 0.0
O473 O 0.87761 0.85831 1.01024 0.0
O474 O 0.88543 0.91882 0.0714 0.0
O475 O 0.87567 0.92962 0.1574 0.0
C476 C 0.92002 0.88999 0.10559 0.0
C477 C 0.86389 0.90624 0.35022 0.0
C478 C 0.85313 0.90795 0.44503 0.0
C479 C 0.83164 0.91793 0.43031 0.0
C480 C 0.84265 0.91667 0.33644 0.0
C481 C 0.82654 0.92234 0.37634 0.0
C482 C 0.86913 0.90208 0.40444 0.0
C483 C 0.88188 0.84891 0.15474 0.0
C484 C 0.88061 0.89879 0.30902 0.0
C485 C 0.9771 0.94265 0.21854 0.0
C486 C 0.98438 0.91967 0.22788 0.0
C487 C 0.83967 0.89677 0.17065 0.0
C488 C 0.88941 0.8715 0.92447 0.0
C489 C 0.89876 0.87834 0.82994 0.0
C490 C 0.92256 0.87567 0.84264 0.0
C491 C 0.91327 0.86929 0.93609 0.0
C492 C 0.88227 0.87608 0.87142 0.0
C493 C 0.92968 0.87127 0.89527 0.0
C494 C 0.88254 0.93499 0.10832 0.0
C495 C 0.8718 0.86971 0.96727 0.0
H496 H 0.81899 0.92272 0.46057 0.0
H497 H 0.83861 0.92032 0.29497 0.0
H498 H 0.81006 0.93024 0.36543 0.0
H499 H 0.88556 0.89391 0.41492 0.0
H500 H 0.93574 0.87678 0.81182 0.0
H501 H 0.91926 0.86606 0.97667 0.0
H502 H 0.86388 0.87833 0.86287 0.0
H503 H 0.94804 0.86939 0.90446 0.0
Tb504 Tb 0.36945 0.64112 0.45148 0.0
C505 C 0.4139 0.56934 0.30043 0.0
N506 N 0.42002 0.59214 0.30582 0.0
C507 C 0.46047 0.58161 0.3041 0.0
C508 C 0.43095 0.55168 0.29793 0.0
C509 C 0.44293 0.59852 0.30663 0.0
C510 C 0.45446 0.55808 0.29998 0.0
C511 C 0.38333 0.54021 0.29527 0.0
C512 C 0.39036 0.56369 0.2992 0.0
C513 C 0.40026 0.52254 0.29262 0.0
C514 C 0.42399 0.52826 0.29393 0.0
Tb515 Tb 0.38983 0.61802 0.30988 0.0
N516 N 0.37443 0.58122 0.30401 0.0
C517 C 0.35949 0.53519 0.29431 0.0
C518 C 0.35119 0.57644 0.3001 0.0
C519 C 0.34338 0.55341 0.29612 0.0
H520 H 0.44774 0.61666 0.30776 0.0
H521 H 0.3249 0.54974 0.29384 0.0
H522 H 0.31166 0.64582 0.44893 0.0
H523 H 0.43734 0.70508 0.48919 0.0
H524 H 0.33852 0.59015 0.2987 0.0
H525 H 0.35336 0.51737 0.29133 0.0
H526 H 0.42162 0.66578 0.47874 0.0
H527 H 0.4786 0.58676 0.30494 0.0
H528 H 0.39518 0.50439 0.28968 0.0
H529 H 0.43684 0.51443 0.29202 0.0
H530 H 0.2825 0.67727 0.45373 0.0
H531 H 0.4681 0.54503 0.29814 0.0
H532 H 0.41081 0.73904 0.49001 0.0
N533 N 0.34071 0.66863 0.45766 0.0
C534 C 0.3479 0.69091 0.46636 0.0
C535 C 0.30086 0.68136 0.45702 0.0
C536 C 0.33179 0.70941 0.46981 0.0
C537 C 0.3175 0.66359 0.4537 0.0
C538 C 0.30803 0.70438 0.4649 0.0
N539 N 0.38663 0.67689 0.46512 0.0
C540 C 0.40986 0.6802 0.47478 0.0
C541 C 0.37982 0.71809 0.47856 0.0
C542 C 0.37163 0.69519 0.47016 0.0
C543 C 0.40381 0.7217 0.48368 0.0
C544 C 0.41884 0.70261 0.4827 0.0
H545 H 0.29509 0.71811 0.46734 0.0
H546 H 0.32778 0.74671 0.48052 0.0
H547 H 0.36994 0.75422 0.48879 0.0
O548 O 0.38601 0.63565 0.52577 0.0
O549 O 0.3657 0.6651 0.38342 0.0
O550 O 0.39507 0.65607 0.32422 0.0
O551 O 0.34882 0.63833 0.52091 0.0
O552 O 0.40683 0.63014 0.44074 0.0
O553 O 0.41539 0.63883 0.35284 0.0
O554 O 0.37271 0.61875 0.23517 0.0
O555 O 0.39289 0.59463 0.38118 0.0
O556 O 0.36187 0.60453 0.43372 0.0
O557 O 0.40998 0.62097 0.23988 0.0
O558 O 0.35392 0.63109 0.31587 0.0
O559 O 0.34199 0.62368 0.40259 0.0
C560 C 0.38103 0.67137 0.34749 0.0
C561 C 0.36458 0.61637 0.59226 0.0
C562 C 0.36633 0.60453 0.68617 0.0
C563 C 0.36233 0.58132 0.67001 0.0
C564 C 0.36034 0.59325 0.57698 0.0
C565 C 0.35931 0.57578 0.61569 0.0
C566 C 0.36753 0.62194 0.64672 0.0
C567 C 0.42207 0.63506 0.40245 0.0
C568 C 0.36658 0.63495 0.55228 0.0
C569 C 0.3399 0.73227 0.47769 0.0
C570 C 0.36387 0.73657 0.48217 0.0
C571 C 0.37734 0.58921 0.41785 0.0
C572 C 0.39148 0.63996 0.16774 0.0
C573 C 0.3875 0.65088 0.07355 0.0
C574 C 0.3897 0.67445 0.08868 0.0
C575 C 0.3936 0.66353 0.18208 0.0
C576 C 0.38842 0.63372 0.11367 0.0
C577 C 0.39272 0.68067 0.14259 0.0
C578 C 0.33733 0.62823 0.35157 0.0
C579 C 0.3919 0.62158 0.20847 0.0
H580 H 0.36117 0.56753 0.69936 0.0
H581 H 0.35784 0.58884 0.53527 0.0
H582 H 0.3561 0.55791 0.6036 0.0
H583 H 0.3711 0.63984 0.65823 0.0
H584 H 0.38935 0.68808 0.05882 0.0
H585 H 0.39589 0.66868 0.22358 0.0
H586 H 0.38635 0.61549 0.10305 0.0
H587 H 0.39441 0.69885 0.1538 0.0
Tb588 Tb 0.64713 0.14219 0.56314 0.0
C589 C 0.62628 0.07243 0.73123 0.0
N590 N 0.61324 0.09084 0.71471 0.0
C591 C 0.57947 0.06639 0.70846 0.0
C592 C 0.61667 0.04991 0.73423 0.0
C593 C 0.58986 0.0884 0.70576 0.0
C594 C 0.593 0.04699 0.72197 0.0
C595 C 0.66315 0.05799 0.76483 0.0
C596 C 0.6492 0.07648 0.74596 0.0
C597 C 0.65405 0.03526 0.7656 0.0
C598 C 0.63083 0.03123 0.75039 0.0
Tb599 Tb 0.63159 0.12604 0.71274 0.0
N600 N 0.65723 0.09878 0.74545 0.0
C601 C 0.68544 0.06306 0.78453 0.0
C602 C 0.67804 0.10399 0.76963 0.0
C603 C 0.6927 0.08623 0.78806 0.0
H604 H 0.57932 0.1034 0.69598 0.0
H605 H 0.70941 0.09048 0.80585 0.0
H606 H 0.70593 0.14212 0.5589 0.0
H607 H 0.58578 0.20566 0.49054 0.0
H608 H 0.68329 0.12185 0.77601 0.0
H609 H 0.69671 0.04937 0.79944 0.0
H610 H 0.5986 0.16686 0.52182 0.0
H611 H 0.56105 0.06441 0.7002 0.0
H612 H 0.66458 0.0208 0.77946 0.0
H613 H 0.62387 0.01372 0.75246 0.0
H614 H 0.73702 0.17115 0.5517 0.0
H615 H 0.58492 0.02997 0.72393 0.0
H616 H 0.61424 0.23792 0.48471 0.0
N617 N 0.67826 0.16708 0.55503 0.0
C618 C 0.67267 0.18943 0.54219 0.0
C619 C 0.71898 0.17662 0.54988 0.0
C620 C 0.69009 0.20636 0.53399 0.0
C621 C 0.70114 0.16025 0.55545 0.0
C622 C 0.71344 0.19986 0.53993 0.0
N623 N 0.63341 0.1777 0.5376 0.0
C624 C 0.61095 0.18102 0.52069 0.0
C625 C 0.64316 0.21698 0.51304 0.0
C626 C 0.64953 0.19479 0.53205 0.0
C627 C 0.61982 0.22106 0.49935 0.0
C628 C 0.60371 0.2029 0.50257 0.0
H629 H 0.72732 0.21238 0.53419 0.0
H630 H 0.69693 0.24195 0.51017 0.0
H631 H 0.6559 0.25102 0.49058 0.0
O632 O 0.63133 0.1224 0.50105 0.0
O633 O 0.63057 0.16841 0.61565 0.0
O634 O 0.6447 0.16217 0.7002 0.0
O635 O 0.66067 0.14432 0.48513 0.0
O636 O 0.61021 0.13124 0.57751 0.0
O637 O 0.6025 0.14056 0.66656 0.0
O638 O 0.63336 0.1254 0.79788 0.0
O639 O 0.62796 0.1002 0.64478 0.0
O640 O 0.65883 0.10828 0.5916 0.0
O641 O 0.60359 0.14036 0.75627 0.0
O642 O 0.66614 0.14165 0.70084 0.0
O643 O 0.67628 0.12939 0.61576 0.0
C644 C 0.63849 0.17659 0.6615 0.0
C645 C 0.6537 0.11413 0.42285 0.0
C646 C 0.65598 0.10446 0.32713 0.0
C647 C 0.67122 0.08603 0.33977 0.0
C648 C 0.6693 0.09609 0.43444 0.0
C649 C 0.67775 0.08189 0.39309 0.0
C650 C 0.64702 0.11816 0.36944 0.0
C651 C 0.59549 0.13612 0.61712 0.0
C652 C 0.64537 0.13026 0.46458 0.0
C653 C 0.68376 0.22878 0.51699 0.0
C654 C 0.66038 0.234 0.50604 0.0
C655 C 0.64404 0.0931 0.61047 0.0
C656 C 0.60212 0.14122 0.85406 0.0
C657 C 0.60226 0.14155 0.9524 0.0
C658 C 0.58088 0.15353 0.95154 0.0
C659 C 0.58071 0.15311 0.85452 0.0
C660 C 0.61276 0.13525 0.9033 0.0
C661 C 0.57019 0.15916 0.90296 0.0
C662 C 0.68204 0.13602 0.66519 0.0
C663 C 0.61322 0.13549 0.80215 0.0
H664 H 0.67865 0.07522 0.30843 0.0
H665 H 0.67522 0.09336 0.47511 0.0
H666 H 0.6898 0.06793 0.40225 0.0
H667 H 0.63498 0.13224 0.36091 0.0
H668 H 0.57226 0.15834 0.98859 0.0
H669 H 0.5721 0.15785 0.81738 0.0
H670 H 0.62932 0.12616 0.90349 0.0
H671 H 0.5537 0.16832 0.90285 0.0
Tb672 Tb 0.89815 0.40253 0.81555 0.0
C673 C 0.85392 0.3261 0.95365 0.0
N674 N 0.84597 0.34834 0.95037 0.0
C675 C 0.80668 0.33433 0.94315 0.0
C676 C 0.83858 0.307 0.94975 0.0
C677 C 0.82264 0.35269 0.94642 0.0
C678 C 0.8147 0.31136 0.94427 0.0
C679 C 0.88673 0.29978 0.96143 0.0
C680 C 0.87769 0.3226 0.95894 0.0
C681 C 0.87163 0.28069 0.95581 0.0
C682 C 0.8476 0.28427 0.95029 0.0
Tb683 Tb 0.87352 0.37707 0.95212 0.0
N684 N 0.89191 0.34157 0.96123 0.0
C685 C 0.91065 0.29685 0.96962 0.0
C686 C 0.91481 0.33869 0.97505 0.0
C687 C 0.92465 0.31641 0.97785 0.0
H688 H 0.81631 0.37034 0.94711 0.0
H689 H 0.94295 0.31435 0.98737 0.0
H690 H 0.95605 0.39959 0.81961 0.0
H691 H 0.83868 0.47557 0.79969 0.0
H692 H 0.92554 0.35327 0.98622 0.0
H693 H 0.9183 0.2796 0.97174 0.0
H694 H 0.84928 0.43423 0.80324 0.0
H695 H 0.78822 0.33792 0.93982 0.0
H696 H 0.8784 0.26312 0.95514 0.0
H697 H 0.83616 0.26936 0.94588 0.0
H698 H 0.9888 0.42725 0.82516 0.0
H699 H 0.80234 0.29715 0.94119 0.0
H700 H 0.86937 0.50576 0.80253 0.0
N701 N 0.93016 0.42611 0.8172 0.0
C702 C 0.92581 0.44937 0.81376 0.0
C703 C 0.97119 0.43367 0.82198 0.0
C704 C 0.94408 0.46575 0.81514 0.0
C705 C 0.95252 0.41806 0.81995 0.0
C706 C 0.96699 0.45761 0.81965 0.0
N707 N 0.88564 0.44044 0.81177 0.0
C708 C 0.86287 0.44696 0.80628 0.0
C709 C 0.89755 0.48075 0.80776 0.0
C710 C 0.90283 0.45678 0.81029 0.0
C711 C 0.87417 0.48751 0.8046 0.0
C712 C 0.85679 0.47053 0.80335 0.0
H713 H 0.98153 0.46962 0.82114 0.0
H714 H 0.95273 0.5025 0.81357 0.0
H715 H 0.91199 0.51562 0.80695 0.0
O716 O 0.88178 0.40202 0.73982 0.0
O717 O 0.89885 0.42517 0.88894 0.0
O718 O 0.86745 0.41435 0.93997 0.0
O719 O 0.91901 0.40053 0.74637 0.0
O720 O 0.86131 0.3925 0.81663 0.0
O721 O 0.84651 0.39529 0.90324 0.0
O722 O 0.88765 0.37987 0.03013 0.0
O723 O 0.86984 0.35614 0.87818 0.0
O724 O 0.90182 0.36423 0.82659 0.0
O725 O 0.85077 0.37858 0.01819 0.0
O726 O 0.91075 0.38873 0.94706 0.0
O727 O 0.92144 0.38 0.8604 0.0
C728 C 0.88312 0.42979 0.92611 0.0
C729 C 0.90166 0.38122 0.67247 0.0
C730 C 0.89717 0.36962 0.57824 0.0
C731 C 0.90176 0.3464 0.59297 0.0
C732 C 0.90613 0.35796 0.68611 0.0
C733 C 0.90616 0.34068 0.64648 0.0
C734 C 0.89717 0.38697 0.61862 0.0
C735 C 0.84372 0.39478 0.85016 0.0
C736 C 0.90126 0.39961 0.71392 0.0
C737 C 0.93892 0.48965 0.81253 0.0
C738 C 0.91571 0.49713 0.80878 0.0
C739 C 0.88598 0.34949 0.84428 0.0
C740 C 0.86448 0.39837 0.0956 0.0
C741 C 0.86777 0.40972 0.19021 0.0
C742 C 0.85945 0.43204 0.17689 0.0
C743 C 0.85577 0.42053 0.08357 0.0
C744 C 0.87038 0.39299 0.14895 0.0
C745 C 0.85346 0.43734 0.12393 0.0
C746 C 0.92691 0.38388 0.91073 0.0
C747 C 0.86742 0.38061 0.05323 0.0
H748 H 0.90228 0.33266 0.56303 0.0
H749 H 0.90966 0.35315 0.72724 0.0
H750 H 0.9097 0.32277 0.65724 0.0
H751 H 0.89336 0.40492 0.60844 0.0
H752 H 0.85701 0.44524 0.20761 0.0
H753 H 0.85056 0.42463 0.04309 0.0
H754 H 0.8771 0.3758 0.1582 0.0
H755 H 0.84676 0.45445 0.11425 0.0
Tb756 Tb 0.36681 0.14339 0.55998 0.0
C757 C 0.4446 0.11685 0.7153 0.0
N758 N 0.42532 0.10433 0.70255 0.0
C759 C 0.44873 0.07008 0.69018 0.0
C760 C 0.46697 0.10674 0.71362 0.0
C761 C 0.42691 0.08096 0.6924 0.0
C762 C 0.46889 0.08311 0.70007 0.0
C763 C 0.46108 0.15319 0.74692 0.0
C764 C 0.44165 0.13969 0.73139 0.0
C765 C 0.48359 0.14367 0.74271 0.0
C766 C 0.48653 0.12046 0.72617 0.0
Tb767 Tb 0.39058 0.12372 0.70403 0.0
N768 N 0.41957 0.14807 0.73545 0.0
C769 C 0.45723 0.17545 0.76821 0.0
C770 C 0.41574 0.1688 0.7615 0.0
C771 C 0.43442 0.18306 0.77667 0.0
H772 H 0.41137 0.07087 0.68505 0.0
H773 H 0.43121 0.19976 0.7957 0.0
H774 H 0.37073 0.20174 0.55751 0.0
H775 H 0.29203 0.0891 0.51966 0.0
H776 H 0.39829 0.17447 0.7712 0.0
H777 H 0.47167 0.18641 0.78058 0.0
H778 H 0.33409 0.09843 0.52605 0.0
H779 H 0.44998 0.05168 0.68086 0.0
H780 H 0.49877 0.15389 0.75366 0.0
H781 H 0.50393 0.11316 0.72425 0.0
H782 H 0.34476 0.23512 0.57475 0.0
H783 H 0.48576 0.07467 0.69821 0.0
H784 H 0.26267 0.11938 0.54126 0.0
N785 N 0.34416 0.1763 0.56822 0.0
C786 C 0.32078 0.17271 0.57004 0.0
C787 C 0.33779 0.21762 0.57424 0.0
C788 C 0.30504 0.19136 0.57689 0.0
C789 C 0.35258 0.19855 0.56598 0.0
C790 C 0.31394 0.21399 0.58084 0.0
N791 N 0.32839 0.13324 0.55244 0.0
C792 C 0.32133 0.11167 0.53529 0.0
C793 C 0.28847 0.14603 0.55777 0.0
C794 C 0.31256 0.15048 0.56054 0.0
C795 C 0.28105 0.12353 0.54392 0.0
C796 C 0.29758 0.10638 0.5317 0.0
H797 H 0.30248 0.22882 0.58636 0.0
H798 H 0.26859 0.20097 0.58306 0.0
H799 H 0.25406 0.16118 0.56632 0.0
O800 O 0.37264 0.12537 0.48755 0.0
O801 O 0.34403 0.12716 0.62252 0.0
O802 O 0.35745 0.14243 0.70077 0.0
O803 O 0.36476 0.16167 0.48664 0.0
O804 O 0.379 0.10747 0.56353 0.0
O805 O 0.37628 0.09464 0.65192 0.0
O806 O 0.39592 0.12078 0.78762 0.0
O807 O 0.41178 0.11809 0.63178 0.0
O808 O 0.40476 0.14882 0.57587 0.0
O809 O 0.37153 0.09866 0.74679 0.0
O810 O 0.37907 0.16067 0.69319 0.0
O811 O 0.38757 0.16922 0.60518 0.0
C812 C 0.33995 0.13539 0.67113 0.0
C813 C 0.3876 0.14667 0.41528 0.0
C814 C 0.39818 0.14441 0.32008 0.0
C815 C 0.42131 0.14983 0.33441 0.0
C816 C 0.41074 0.15206 0.42843 0.0
C817 C 0.42746 0.15367 0.3881 0.0
C818 C 0.38135 0.14298 0.3611 0.0
C819 C 0.3762 0.09073 0.59889 0.0
C820 C 0.37004 0.14359 0.45765 0.0
C821 C 0.28096 0.18691 0.57722 0.0
C822 C 0.27268 0.16427 0.56756 0.0
C823 C 0.41946 0.13439 0.59983 0.0
C824 C 0.36222 0.11035 0.83631 0.0
C825 C 0.35349 0.11948 0.93078 0.0
C826 C 0.32958 0.11924 0.91778 0.0
C827 C 0.33822 0.11024 0.82497 0.0
C828 C 0.36975 0.11492 0.88946 0.0
C829 C 0.32209 0.11472 0.86541 0.0
C830 C 0.38475 0.17579 0.65549 0.0
C831 C 0.37947 0.10554 0.7933 0.0
H832 H 0.43464 0.15136 0.30401 0.0
H833 H 0.4159 0.15481 0.46984 0.0
H834 H 0.44532 0.15784 0.3985 0.0
H835 H 0.36351 0.13844 0.35112 0.0
H836 H 0.31651 0.12215 0.94832 0.0
H837 H 0.33182 0.10658 0.78489 0.0
H838 H 0.38824 0.11517 0.89834 0.0
H839 H 0.30364 0.11452 0.85618 0.0
Tb840 Tb 0.63561 0.6191 0.31153 0.0
C841 C 0.67664 0.68846 0.46795 0.0
N842 N 0.68163 0.66537 0.46406 0.0
C843 C 0.72255 0.6742 0.46687 0.0
C844 C 0.69437 0.70545 0.46852 0.0
C845 C 0.7043 0.65806 0.46748 0.0
C846 C 0.71757 0.69803 0.46613 0.0
C847 C 0.64782 0.71835 0.48593 0.0
C848 C 0.6538 0.69488 0.47652 0.0
C849 C 0.66514 0.73555 0.48297 0.0
C850 C 0.68841 0.72912 0.47414 0.0
Tb851 Tb 0.64995 0.64083 0.45947 0.0
N852 N 0.63756 0.6778 0.47833 0.0
C853 C 0.62476 0.72366 0.49955 0.0
C854 C 0.61541 0.68259 0.49515 0.0
C855 C 0.60858 0.70564 0.50514 0.0
H856 H 0.70848 0.63974 0.47049 0.0
H857 H 0.59086 0.70949 0.51694 0.0
H858 H 0.58331 0.59617 0.3253 0.0
H859 H 0.71688 0.58014 0.24526 0.0
H860 H 0.6029 0.66866 0.49936 0.0
H861 H 0.61944 0.7415 0.5071 0.0
H862 H 0.689 0.61222 0.25825 0.0
H863 H 0.74045 0.66826 0.46775 0.0
H864 H 0.66081 0.75373 0.48916 0.0
H865 H 0.70173 0.74247 0.47388 0.0
H866 H 0.56606 0.55674 0.33117 0.0
H867 H 0.73173 0.71049 0.46643 0.0
H868 H 0.7049 0.53953 0.26335 0.0
N869 N 0.61791 0.58356 0.31594 0.0
C870 C 0.63179 0.56466 0.30802 0.0
C871 C 0.58461 0.55874 0.32512 0.0
C872 C 0.6228 0.54189 0.31126 0.0
C873 C 0.5944 0.58102 0.32194 0.0
C874 C 0.59892 0.53909 0.32054 0.0
N875 N 0.66271 0.59074 0.29221 0.0
C876 C 0.68408 0.5949 0.27027 0.0
C877 C 0.67003 0.54929 0.28756 0.0
C878 C 0.65509 0.5684 0.29701 0.0
C879 C 0.69285 0.5537 0.27108 0.0
C880 C 0.69972 0.5766 0.26111 0.0
H881 H 0.59131 0.52187 0.32327 0.0
H882 H 0.63137 0.50511 0.30746 0.0
H883 H 0.67272 0.51158 0.28628 0.0
O884 O 0.63944 0.6132 0.22849 0.0
O885 O 0.63035 0.59736 0.38481 0.0
O886 O 0.66158 0.6059 0.43674 0.0
O887 O 0.60886 0.62985 0.25915 0.0
O888 O 0.66912 0.63687 0.32268 0.0
O889 O 0.67914 0.62683 0.40898 0.0
O890 O 0.63268 0.62355 0.5219 0.0
O891 O 0.63233 0.66429 0.40292 0.0
O892 O 0.64638 0.65643 0.31903 0.0
O893 O 0.66301 0.64415 0.53845 0.0
O894 O 0.61258 0.63081 0.44441 0.0
O895 O 0.60548 0.63415 0.35232 0.0
C896 C 0.64662 0.59054 0.41873 0.0
C897 C 0.62231 0.64165 0.17362 0.0
C898 C 0.62899 0.65081 0.07899 0.0
C899 C 0.62672 0.67466 0.09169 0.0
C900 C 0.62047 0.66554 0.1853 0.0
C901 C 0.62257 0.6819 0.14442 0.0
C902 C 0.62664 0.63439 0.12053 0.0
C903 C 0.68501 0.63335 0.3599 0.0
C904 C 0.62036 0.62405 0.21628 0.0
C905 C 0.63786 0.52279 0.30459 0.0
C906 C 0.66143 0.52648 0.29276 0.0
C907 C 0.63998 0.67155 0.35649 0.0
C908 C 0.65437 0.61403 0.59954 0.0
C909 C 0.65658 0.60335 0.69429 0.0
C910 C 0.6657 0.58152 0.6792 0.0
C911 C 0.66391 0.59241 0.58534 0.0
C912 C 0.6509 0.61949 0.65392 0.0
C913 C 0.66944 0.57618 0.62504 0.0
C914 C 0.5982 0.63281 0.40244 0.0
C915 C 0.64704 0.63093 0.55869 0.0
H916 H 0.62793 0.68779 0.06082 0.0
H917 H 0.61742 0.67159 0.22594 0.0
H918 H 0.62097 0.70029 0.15362 0.0
H919 H 0.62862 0.61596 0.11197 0.0
H920 H 0.67032 0.56875 0.70928 0.0
H921 H 0.66695 0.58813 0.54371 0.0
H922 H 0.64335 0.6362 0.66471 0.0
H923 H 0.67665 0.55941 0.61381 0.0
Tb924 Tb 0.13219 0.90254 0.21709 0.0
C925 C 0.17303 0.83263 0.06403 0.0
N926 N 0.17871 0.85555 0.06827 0.0
C927 C 0.21935 0.84533 0.06892 0.0
C928 C 0.19022 0.81506 0.06513 0.0
C929 C 0.20164 0.86208 0.06648 0.0
C930 C 0.21359 0.8217 0.06955 0.0
C931 C 0.1436 0.80367 0.04297 0.0
C932 C 0.15011 0.82695 0.05318 0.0
C933 C 0.16034 0.78592 0.04772 0.0
C934 C 0.18362 0.7916 0.05894 0.0
Tb935 Tb 0.14775 0.88108 0.06901 0.0
N936 N 0.13439 0.84453 0.04977 0.0
C937 C 0.12064 0.7991 0.02684 0.0
C938 C 0.11239 0.84043 0.0307 0.0
C939 C 0.10508 0.81762 0.01979 0.0
H940 H 0.20645 0.88022 0.06326 0.0
H941 H 0.08746 0.81432 1.00611 0.0
H942 H 0.08129 0.92807 0.20141 0.0
H943 H 0.21299 0.93565 0.30163 0.0
H944 H 0.10038 0.85475 0.02522 0.0
H945 H 0.11493 0.78145 0.01855 0.0
H946 H 0.18411 0.90538 0.27969 0.0
H947 H 0.23743 0.85067 0.06941 0.0
H948 H 0.15561 0.76784 0.04114 0.0
H949 H 0.19653 0.77783 0.06051 0.0
H950 H 0.06564 0.96831 0.20036 0.0
H951 H 0.22735 0.80877 0.07059 0.0
H952 H 0.20333 0.97722 0.28758 0.0
N953 N 0.1162 0.93891 0.21563 0.0
C954 C 0.13067 0.95691 0.22758 0.0
C955 C 0.08402 0.96535 0.20757 0.0
C956 C 0.12263 0.9801 0.22722 0.0
C957 C 0.0929 0.94263 0.20802 0.0
C958 C 0.09901 0.98421 0.21635 0.0
N959 N 0.15978 0.92902 0.24495 0.0
C960 C 0.1803 0.92322 0.26958 0.0
C961 C 0.16884 0.96985 0.25632 0.0
C962 C 0.15341 0.95179 0.2416 0.0
C963 C 0.19093 0.96389 0.27585 0.0
C964 C 0.19647 0.94045 0.28367 0.0
H965 H 0.09211 1.00178 0.21583 0.0
H966 H 0.13252 0.01626 0.23836 0.0
H967 H 0.17303 1.00728 0.26402 0.0
O968 O 0.13346 0.90568 0.30219 0.0
O969 O 0.12868 0.92559 0.1454 0.0
O970 O 0.15977 0.91538 0.09464 0.0
O971 O 0.10378 0.89001 0.26127 0.0
O972 O 0.16568 0.88442 0.20684 0.0
O973 O 0.17677 0.89445 0.12132 0.0
O974 O 0.13359 0.90019 1.00439 0.0
O975 O 0.12839 0.85875 0.12438 0.0
O976 O 0.14315 0.86561 0.20816 0.0
O977 O 0.16105 0.87555 0.99153 0.0
O978 O 0.11063 0.89263 0.07985 0.0
O979 O 0.10207 0.88984 0.1713 0.0
C980 C 0.14487 0.93123 0.11037 0.0
C981 C 0.10143 0.89187 0.35868 0.0
C982 C 0.10174 0.89092 0.45694 0.0
C983 C 0.0789 0.88208 0.45577 0.0
C984 C 0.07859 0.88308 0.35884 0.0
C985 C 0.06743 0.87831 0.40708 0.0
C986 C 0.11289 0.89604 0.40805 0.0
C987 C 0.18204 0.88828 0.17116 0.0
C988 C 0.11317 0.89596 0.30685 0.0
C989 C 0.13826 0.99826 0.23897 0.0
C990 C 0.16135 0.99315 0.25342 0.0
C991 C 0.13581 0.851 0.17073 0.0
C992 C 0.15766 0.90561 0.9283 0.0
C993 C 0.16085 0.91593 0.8334 0.0
C994 C 0.1785 0.93194 0.84712 0.0
C995 C 0.17561 0.92121 0.94094 0.0
C996 C 0.15028 0.90311 0.87478 0.0
C997 C 0.18575 0.93455 0.90055 0.0
C998 C 0.09562 0.89153 0.12048 0.0
C999 C 0.14727 0.89056 0.96925 0.0
H1000 H 0.06981 0.87826 0.49269 0.0
H1001 H 0.06933 0.87978 0.32159 0.0
H1002 H 0.04983 0.87154 0.40673 0.0
H1003 H 0.13057 0.90265 0.40847 0.0
H1004 H 0.1872 0.94197 0.81649 0.0
H1005 H 0.18199 0.92271 0.98171 0.0
H1006 H 0.1364 0.89093 0.86544 0.0
H1007 H 0.19961 0.94663 0.9105 0.0
Tb1008 Tb 0.87232 0.63561 0.06867 0.0
C1009 C 0.93887 0.59568 0.2381 0.0
N1010 N 0.91626 0.59023 0.22733 0.0
C1011 C 0.9254 0.54948 0.23487 0.0
C1012 C 0.95575 0.57814 0.24623 0.0
C1013 C 0.90915 0.56747 0.22921 0.0
C1014 C 0.94889 0.55482 0.2425 0.0
C1015 C 0.96714 0.62517 0.26387 0.0
C1016 C 0.94459 0.61886 0.24657 0.0
C1017 C 0.98414 0.60783 0.27049 0.0
C1018 C 0.97855 0.58439 0.26109 0.0
Tb1019 Tb 0.89156 0.62152 0.21811 0.0
N1020 N 0.9275 0.63507 0.24171 0.0
C1021 C 0.97158 0.64856 0.27651 0.0
C1022 C 0.93123 0.6576 0.25784 0.0
C1023 C 0.95345 0.66479 0.27417 0.0
H1024 H 0.89089 0.56298 0.22718 0.0
H1025 H 0.95651 0.68277 0.2855 0.0
H1026 H 0.84737 0.68689 0.08279 0.0
H1027 H 0.83877 0.55452 0.98628 0.0
H1028 H 0.91713 0.67008 0.25729 0.0
H1029 H 0.9887 0.6541 0.28988 0.0
H1030 H 0.86931 0.58301 1.00876 0.0
H1031 H 0.91969 0.5315 0.23479 0.0
H1032 H 1.00149 0.61228 0.28437 0.0
H1033 H 0.99174 0.57117 0.26756 0.0
H1034 H 0.80729 0.70305 0.08215 0.0
H1035 H 0.96134 0.54084 0.24829 0.0
H1036 H 0.79725 0.56496 0.99791 0.0
N1037 N 0.83616 0.65207 0.0689 0.0
C1038 C 0.81809 0.63776 0.05644 0.0
C1039 C 0.81009 0.68462 0.07536 0.0
C1040 C 0.79501 0.64609 0.05584 0.0
C1041 C 0.8327 0.67547 0.07581 0.0
C1042 C 0.79112 0.6698 0.06619 0.0
N1043 N 0.84573 0.6081 0.04111 0.0
C1044 C 0.85143 0.58726 0.01769 0.0
C1045 C 0.80487 0.59957 0.02828 0.0
C1046 C 0.82303 0.61485 0.04322 0.0
C1047 C 0.81066 0.57725 1.00978 0.0
C1048 C 0.83407 0.57127 1.00334 0.0
H1049 H 0.77363 0.67692 0.06598 0.0
H1050 H 0.75883 0.63661 0.04355 0.0
H1051 H 0.76746 0.59585 0.01923 0.0
O1052 O 0.87022 0.63347 0.98338 0.0
O1053 O 0.84864 0.64036 0.13927 0.0
O1054 O 0.85756 0.60933 0.19069 0.0
O1055 O 0.88439 0.66398 0.02397 0.0
O1056 O 0.89002 0.60219 0.08067 0.0
O1057 O 0.8791 0.59197 0.16618 0.0
O1058 O 0.87112 0.63702 0.27904 0.0
O1059 O 0.91674 0.63824 0.16399 0.0
O1060 O 0.9092 0.62427 0.0792 0.0
O1061 O 0.89502 0.60944 0.29709 0.0
O1062 O 0.88112 0.65864 0.20352 0.0
O1063 O 0.88704 0.66504 0.11247 0.0
C1064 C 0.84211 0.6244 0.17397 0.0
C1065 C 0.88367 0.66561 0.9266 0.0
C1066 C 0.8839 0.66547 0.82837 0.0
C1067 C 0.89382 0.68786 0.82942 0.0
C1068 C 0.89351 0.68803 0.92635 0.0
C1069 C 0.89848 0.69905 0.87806 0.0
C1070 C 0.87864 0.65445 0.8773 0.0
C1071 C 0.88606 0.58626 0.11717 0.0
C1072 C 0.87927 0.65407 0.97848 0.0
C1073 C 0.77674 0.63064 0.04373 0.0
C1074 C 0.78166 0.6074 0.03003 0.0
C1075 C 0.9241 0.63094 0.11696 0.0
C1076 C 0.8638 0.61421 0.35648 0.0
C1077 C 0.85327 0.61073 0.45114 0.0
C1078 C 0.83623 0.5942 0.43662 0.0
C1079 C 0.84729 0.59721 0.343 0.0
C1080 C 0.86664 0.62098 0.41029 0.0
C1081 C 0.83327 0.58757 0.38285 0.0
C1082 C 0.88423 0.67271 0.16192 0.0
C1083 C 0.87975 0.62379 0.31638 0.0
H1084 H 0.8978 0.69683 0.79244 0.0
H1085 H 0.8975 0.69708 0.96355 0.0
H1086 H 0.90606 0.71631 0.87835 0.0
H1087 H 0.87117 0.63711 0.87692 0.0
H1088 H 0.82572 0.58583 0.46687 0.0
H1089 H 0.84566 0.59112 0.30206 0.0
H1090 H 0.87963 0.63402 0.42033 0.0
H1091 H 0.82046 0.57448 0.37222 0.0
Tb1092 Tb 0.15157 0.14041 0.95995 0.0
C1093 C 0.07822 0.09613 0.81078 0.0
N1094 N 0.10053 0.08896 0.81913 0.0
C1095 C 0.08761 0.04929 0.82482 0.0
C1096 C 0.05961 0.08013 0.81033 0.0
C1097 C 0.10549 0.06582 0.82525 0.0
C1098 C 0.06456 0.05647 0.81757 0.0
C1099 C 0.05107 0.12797 0.79708 0.0
C1100 C 0.07403 0.1198 0.80476 0.0
C1101 C 0.03246 0.1121 0.79669 0.0
C1102 C 0.03672 0.08824 0.80326 0.0
Tb1103 Tb 0.12826 0.11753 0.81987 0.0
N1104 N 0.09245 0.13476 0.80696 0.0
C1105 C 0.04752 0.15182 0.78954 0.0
C1106 C 0.08914 0.15771 0.79461 0.0
C1107 C 0.06669 0.16668 0.7873 0.0
H1108 H 0.12327 0.05995 0.82948 0.0
H1109 H 0.06424 0.185 0.77875 0.0
H1110 H 0.1486 0.19837 0.96193 0.0
H1111 H 0.22428 0.08054 0.97446 0.0
H1112 H 0.10357 0.16918 0.78793 0.0
H1113 H 0.03015 0.15881 0.78368 0.0
H1114 H 0.18298 0.09126 0.96826 0.0
H1115 H 0.09163 0.031 0.82987 0.0
H1116 H 0.01472 0.11812 0.79114 0.0
H1117 H 0.02222 0.07618 0.80286 0.0
H1118 H 0.17619 0.23128 0.96544 0.0
H1119 H 0.05074 0.04362 0.81747 0.0
H1120 H 0.25445 0.11124 0.97919 0.0
N1121 N 0.17508 0.17243 0.96446 0.0
C1122 C 0.19824 0.16796 0.97012 0.0
C1123 C 0.18263 0.21355 0.9664 0.0
C1124 C 0.2146 0.18622 0.97314 0.0
C1125 C 0.16706 0.19485 0.96351 0.0
C1126 C 0.20651 0.20923 0.97105 0.0
N1127 N 0.18934 0.12774 0.96563 0.0
C1128 C 0.19576 0.10487 0.9685 0.0
C1129 C 0.22951 0.13953 0.97555 0.0
C1130 C 0.20561 0.14488 0.97127 0.0
C1131 C 0.23625 0.11609 0.97598 0.0
C1132 C 0.21928 0.09871 0.97294 0.0
H1133 H 0.21853 0.22376 0.97323 0.0
H1134 H 0.25128 0.19475 0.97997 0.0
H1135 H 0.26433 0.15389 0.98206 0.0
O1136 O 0.15059 0.123 0.03392 0.0
O1137 O 0.17524 0.14275 0.889 0.0
O1138 O 0.16569 0.1121 0.83345 0.0
O1139 O 0.14849 0.16033 0.03073 0.0
O1140 O 0.14051 0.10387 0.95496 0.0
O1141 O 0.14728 0.09119 0.86808 0.0
O1142 O 0.13151 0.13204 0.74288 0.0
O1143 O 0.10543 0.11371 0.89038 0.0
O1144 O 0.11346 0.14481 0.94575 0.0
O1145 O 0.13046 0.09502 0.75303 0.0
O1146 O 0.13896 0.15505 0.82815 0.0
O1147 O 0.12979 0.16439 0.91549 0.0
C1148 C 0.18076 0.12766 0.85082 0.0
C1149 C 0.12922 0.14177 0.10187 0.0
C1150 C 0.11801 0.13794 0.19587 0.0
C1151 C 0.09452 0.14071 0.18061 0.0
C1152 C 0.10573 0.14445 0.08743 0.0
C1153 C 0.08849 0.14391 0.12674 0.0
C1154 C 0.13526 0.13847 0.15589 0.0
C1155 C 0.1438 0.08703 0.91968 0.0
C1156 C 0.14772 0.14214 0.06137 0.0
C1157 C 0.23844 0.18095 0.97764 0.0
C1158 C 0.24588 0.15767 0.97884 0.0
C1159 C 0.09857 0.12972 0.92461 0.0
C1160 C 0.15035 0.10928 0.67731 0.0
C1161 C 0.16109 0.11149 0.58275 0.0
C1162 C 0.18401 0.10508 0.5966 0.0
C1163 C 0.17311 0.10252 0.69017 0.0
C1164 C 0.14439 0.11371 0.62369 0.0
C1165 C 0.18992 0.10059 0.65004 0.0
C1166 C 0.13379 0.17061 0.8659 0.0
C1167 C 0.13249 0.11188 0.71896 0.0
H1168 H 0.08082 0.1407 0.21034 0.0
H1169 H 0.10073 0.147 0.04599 0.0
H1170 H 0.07039 0.14607 0.11546 0.0
H1171 H 0.15343 0.13599 0.16655 0.0
H1172 H 0.19723 0.10306 0.56604 0.0
H1173 H 0.17768 0.09861 0.73111 0.0
H1174 H 0.12675 0.11905 0.61396 0.0
H1175 H 0.20752 0.09541 0.66031 0.0
Tb1176 Tb 0.6326 0.40566 0.71633 0.0
C1177 C 0.68287 0.33931 0.56946 0.0
N1178 N 0.68534 0.36278 0.56825 0.0
C1179 C 0.72694 0.35837 0.56716 0.0
C1180 C 0.7023 0.32441 0.5735 0.0
C1181 C 0.70701 0.37235 0.56283 0.0
C1182 C 0.72456 0.33433 0.57407 0.0
C1183 C 0.65753 0.30607 0.55666 0.0
C1184 C 0.66095 0.33026 0.56087 0.0
C1185 C 0.67638 0.29104 0.56648 0.0
C1186 C 0.69881 0.30017 0.57441 0.0
Tb1187 Tb 0.65129 0.38377 0.57039 0.0
N1188 N 0.64314 0.34543 0.55358 0.0
C1189 C 0.63545 0.2979 0.54143 0.0
C1190 C 0.62211 0.33782 0.53429 0.0
C1191 C 0.61785 0.31389 0.52875 0.0
H1192 H 0.70894 0.39087 0.5564 0.0
H1193 H 0.60092 0.30778 0.51556 0.0
H1194 H 0.57996 0.42652 0.69352 0.0
H1195 H 0.71037 0.44756 0.79485 0.0
H1196 H 0.6084 0.35022 0.52579 0.0
H1197 H 0.63196 0.27941 0.53812 0.0
H1198 H 0.6841 0.41452 0.77746 0.0
H1199 H 0.74408 0.36613 0.56498 0.0
H1200 H 0.67394 0.2724 0.56669 0.0
H1201 H 0.7134 0.28836 0.57922 0.0
H1202 H 0.56124 0.46522 0.68534 0.0
H1203 H 0.73999 0.32351 0.5771 0.0
H1204 H 0.69715 0.48775 0.77576 0.0
N1205 N 0.61364 0.44048 0.70904 0.0
C1206 C 0.62644 0.45991 0.71939 0.0
C1207 C 0.57965 0.46396 0.69447 0.0
C1208 C 0.6166 0.4823 0.71499 0.0
C1209 C 0.59028 0.44209 0.69891 0.0
C1210 C 0.59292 0.48416 0.70182 0.0
N1211 N 0.65786 0.43503 0.74011 0.0
C1212 C 0.67887 0.43163 0.76483 0.0
C1213 C 0.66336 0.47671 0.7462 0.0
C1214 C 0.6495 0.45707 0.73425 0.0
C1215 C 0.68592 0.47314 0.76601 0.0
C1216 C 0.69349 0.45049 0.77654 0.0
H1217 H 0.58466 0.50106 0.69813 0.0
H1218 H 0.62347 0.51938 0.72072 0.0
H1219 H 0.66443 0.5145 0.74836 0.0
O1220 O 0.63453 0.40996 0.80117 0.0
O1221 O 0.62912 0.42729 0.64202 0.0
O1222 O 0.66182 0.41866 0.59562 0.0
O1223 O 0.60437 0.39413 0.7626 0.0
O1224 O 0.66673 0.38882 0.71048 0.0
O1225 O 0.67891 0.39808 0.62526 0.0
O1226 O 0.63522 0.40232 0.50749 0.0
O1227 O 0.6329 0.3601 0.62486 0.0
O1228 O 0.6446 0.36863 0.71065 0.0
O1229 O 0.6638 0.37939 0.49161 0.0
O1230 O 0.61335 0.39227 0.57992 0.0
O1231 O 0.60432 0.38953 0.67106 0.0
C1232 C 0.64617 0.43397 0.61028 0.0
C1233 C 0.60283 0.39722 0.86009 0.0
C1234 C 0.604 0.3968 0.95845 0.0
C1235 C 0.58111 0.38813 0.9586 0.0
C1236 C 0.57992 0.38866 0.86166 0.0
C1237 C 0.56916 0.38425 0.91058 0.0
C1238 C 0.61477 0.4016 0.90887 0.0
C1239 C 0.68349 0.39212 0.67557 0.0
C1240 C 0.61421 0.40048 0.8074 0.0
C1241 C 0.63062 0.50197 0.7244 0.0
C1242 C 0.65397 0.49918 0.73994 0.0
C1243 C 0.63956 0.35323 0.67259 0.0
C1244 C 0.65806 0.41026 0.43095 0.0
C1245 C 0.66063 0.42201 0.3367 0.0
C1246 C 0.67528 0.44052 0.35252 0.0
C1247 C 0.67286 0.42862 0.44567 0.0
C1248 C 0.65194 0.40709 0.37673 0.0
C1249 C 0.68127 0.44377 0.40659 0.0
C1250 C 0.59819 0.39055 0.62005 0.0
C1251 C 0.64901 0.39391 0.471 0.0
H1252 H 0.57237 0.3845 0.99607 0.0
H1253 H 0.57029 0.38519 0.82498 0.0
H1254 H 0.55151 0.37762 0.91127 0.0
H1255 H 0.6325 0.40804 0.90832 0.0
H1256 H 0.68254 0.45223 0.32311 0.0
H1257 H 0.67796 0.43108 0.48717 0.0
H1258 H 0.64024 0.39298 0.36593 0.0
H1259 H 0.69268 0.45796 0.41816 0.0
Tb1260 Tb 0.37264 0.87604 0.45799 0.0
C1261 C 0.4331 0.93179 0.28475 0.0
N1262 N 0.41027 0.93383 0.29796 0.0
C1263 C 0.41192 0.97507 0.28289 0.0
C1264 C 0.44628 0.95138 0.26966 0.0
C1265 C 0.39943 0.95504 0.29631 0.0
C1266 C 0.43547 0.97325 0.26961 0.0
C1267 C 0.4664 0.90668 0.26876 0.0
C1268 C 0.44312 0.90982 0.28502 0.0
C1269 C 0.4795 0.9261 0.25284 0.0
C1270 C 0.46958 0.94842 0.25399 0.0
Tb1271 Tb 0.39163 0.89977 0.31715 0.0
N1272 N 0.42987 0.89148 0.3008 0.0
C1273 C 0.47559 0.88407 0.26802 0.0
C1274 C 0.43852 0.86932 0.29837 0.0
C1275 C 0.46159 0.86533 0.28295 0.0
H1276 H 0.38095 0.9564 0.30341 0.0
H1277 H 0.46843 0.84775 0.28166 0.0
H1278 H 0.37533 0.81787 0.45452 0.0
H1279 H 0.30059 0.93596 0.48364 0.0
H1280 H 0.42768 0.85465 0.30779 0.0
H1281 H 0.49329 0.88082 0.25511 0.0
H1282 H 0.34173 0.92514 0.47319 0.0
H1283 H 0.40326 0.99183 0.28174 0.0
H1284 H 0.49725 0.92406 0.23906 0.0
H1285 H 0.47994 0.96322 0.24174 0.0
H1286 H 0.34747 0.78533 0.45361 0.0
H1287 H 0.44502 0.98875 0.25841 0.0
H1288 H 0.27036 0.90533 0.48718 0.0
N1289 N 0.34911 0.84403 0.46022 0.0
C1290 C 0.32606 0.84855 0.4678 0.0
C1291 C 0.34123 0.80301 0.45768 0.0
C1292 C 0.30961 0.83035 0.46961 0.0
C1293 C 0.35694 0.82159 0.45686 0.0
C1294 C 0.31747 0.80737 0.46402 0.0
N1295 N 0.33509 0.8888 0.46715 0.0
C1296 C 0.32885 0.91163 0.47291 0.0
C1297 C 0.29506 0.87702 0.47857 0.0
C1298 C 0.31884 0.87164 0.47207 0.0
C1299 C 0.28847 0.90046 0.48212 0.0
C1300 C 0.30546 0.91781 0.47976 0.0
H1301 H 0.30537 0.79289 0.46478 0.0
H1302 H 0.273 0.8219 0.47767 0.0
H1303 H 0.26028 0.86273 0.48567 0.0
O1304 O 0.37179 0.8924 0.53355 0.0
O1305 O 0.34774 0.8747 0.38795 0.0
O1306 O 0.35564 0.90708 0.33857 0.0
O1307 O 0.37776 0.85554 0.52692 0.0
O1308 O 0.38553 0.91194 0.45477 0.0
O1309 O 0.37539 0.92609 0.37161 0.0
O1310 O 0.38671 0.87778 0.2505 0.0
O1311 O 0.41937 0.90062 0.37846 0.0
O1312 O 0.4109 0.87338 0.44425 0.0
O1313 O 0.38457 0.91495 0.24175 0.0
O1314 O 0.38282 0.86199 0.32721 0.0
O1315 O 0.39397 0.85173 0.41259 0.0
C1316 C 0.34108 0.89086 0.35339 0.0
C1317 C 0.39444 0.87525 0.6012 0.0
C1318 C 0.40423 0.87985 0.69622 0.0
C1319 C 0.42796 0.88083 0.68244 0.0
C1320 C 0.41815 0.87626 0.58821 0.0
C1321 C 0.43482 0.87899 0.62878 0.0
C1322 C 0.38757 0.87704 0.65504 0.0
C1323 C 0.38041 0.92945 0.42312 0.0
C1324 C 0.37644 0.87331 0.55934 0.0
C1325 C 0.28589 0.83566 0.47624 0.0
C1326 C 0.27865 0.85892 0.4808 0.0
C1327 C 0.42569 0.88706 0.41847 0.0
C1328 C 0.3649 0.89173 0.17699 0.0
C1329 C 0.35359 0.88882 0.08243 0.0
C1330 C 0.33064 0.8838 0.09847 0.0
C1331 C 0.34223 0.88579 0.19191 0.0
C1332 C 0.37055 0.89315 0.12234 0.0
C1333 C 0.32507 0.88227 0.15287 0.0
C1334 C 0.39001 0.84626 0.36228 0.0
C1335 C 0.3834 0.89492 0.21733 0.0
H1336 H 0.44124 0.88273 0.71315 0.0
H1337 H 0.42375 0.87506 0.54688 0.0
H1338 H 0.45312 0.87973 0.6186 0.0
H1339 H 0.36917 0.87669 0.66468 0.0
H1340 H 0.31703 0.88083 0.069 0.0
H1341 H 0.33806 0.88341 0.23357 0.0
H1342 H 0.38841 0.89672 0.11109 0.0
H1343 H 0.30748 0.87794 0.16479 0.0
H1344 H 0.15976 0.6637 0.77219 0.0
H1345 H 0.11962 0.60963 0.49035 0.0
H1346 H 0.09784 0.6218 0.75172 0.0
H1347 H 0.19029 0.63156 0.52125 0.0
H1348 H 0.1101 0.6176 0.58428 0.0
H1349 H 0.17037 0.65504 0.67912 0.0
C1350 C 0.14845 0.65256 0.74848 0.0
C1351 C 0.12774 0.64362 0.7702 0.0
C1352 C 0.12771 0.62064 0.57059 0.0
C1353 C 0.13965 0.63405 0.663 0.0
C1354 C 0.13311 0.61626 0.51687 0.0
C1355 C 0.15578 0.61997 0.49788 0.0
C1356 C 0.14501 0.62909 0.60568 0.0
C1357 C 0.17264 0.62829 0.5343 0.0
C1358 C 0.1545 0.64774 0.69517 0.0
C1359 C 0.11369 0.62957 0.73679 0.0
N1360 N 0.16689 0.6327 0.58637 0.0
N1361 N 0.11983 0.62536 0.685 0.0
H1362 H 0.63034 0.92243 0.0425 0.0
H1363 H 0.65866 0.86086 0.7609 0.0
H1364 H 0.68979 0.87769 0.01675 0.0
H1365 H 0.60143 0.90862 0.78483 0.0
H1366 H 0.67021 0.86657 0.85451 0.0
H1367 H 0.61924 0.91718 0.94849 0.0
C1368 C 0.64102 0.91142 0.01712 0.0
C1369 C 0.66098 0.9004 0.03768 0.0
C1370 C 0.65513 0.87581 0.8393 0.0
C1371 C 0.64846 0.89446 0.92966 0.0
C1372 C 0.64858 0.87265 0.78573 0.0
C1373 C 0.62905 0.88431 0.7648 0.0
C1374 C 0.64206 0.89073 0.87241 0.0
C1375 C 0.61643 0.89904 0.79929 0.0
C1376 C 0.63474 0.90853 0.96333 0.0
C1377 C 0.67438 0.88668 1.00257 0.0
N1378 N 0.62316 0.90184 0.85131 0.0
N1379 N 0.66783 0.88404 0.95037 0.0
H1380 H 0.38107 0.44712 0.25044 0.0
H1381 H 0.36385 0.35234 0.01658 0.0
H1382 H 0.35335 0.37828 0.27639 0.0
H1383 H 0.40824 0.41253 0.99949 0.0
H1384 H 0.3564 0.36371 0.10933 0.0
H1385 H 0.3876 0.43692 0.15589 0.0
C1386 C 0.37626 0.42991 0.23619 0.0
C1387 C 0.36671 0.4135 0.27144 0.0
C1388 C 0.36778 0.37444 0.08531 0.0
C1389 C 0.37409 0.40175 0.16336 0.0
C1390 C 0.37218 0.36789 0.03227 0.0
C1391 C 0.38695 0.38132 0.99991 0.0
C1392 C 0.37801 0.39473 0.10649 0.0
C1393 C 0.39661 0.40169 0.02249 0.0
C1394 C 0.3801 0.42407 0.18232 0.0
C1395 C 0.361 0.39139 0.25086 0.0
N1396 N 0.392 0.40774 0.07433 0.0
N1397 N 0.3647 0.3862 0.19825 0.0
H1398 H 0.91366 0.1156 0.52535 0.0
H1399 H 0.85526 0.14552 0.24154 0.0
H1400 H 0.86846 0.17467 0.49913 0.0
H1401 H 0.89362 0.08219 0.27167 0.0
H1402 H 0.86155 0.15736 0.33474 0.0
H1403 H 0.90785 0.1038 0.4319 0.0
C1404 C 0.90241 0.12604 0.50009 0.0
C1405 C 0.89149 0.14616 0.52038 0.0
C1406 C 0.86861 0.14087 0.32104 0.0
C1407 C 0.88501 0.13286 0.41288 0.0
C1408 C 0.86515 0.13416 0.26769 0.0
C1409 C 0.87401 0.11286 0.24864 0.0
C1410 C 0.88109 0.12623 0.35581 0.0
C1411 C 0.88632 0.09866 0.28471 0.0
C1412 C 0.8992 0.11934 0.44659 0.0
C1413 C 0.87749 0.15922 0.48525 0.0
N1414 N 0.88955 0.10563 0.3365 0.0
N1415 N 0.87465 0.15234 0.43333 0.0
H1416 H 0.09624 0.39961 0.27932 0.0
H1417 H 0.18636 0.37728 0.52071 0.0
H1418 H 0.16183 0.36379 0.26023 0.0
H1419 H 0.12502 0.42022 0.53726 0.0
H1420 H 0.17624 0.37025 0.42681 0.0
H1421 H 0.10526 0.40567 0.37447 0.0
C1422 C 0.11253 0.39294 0.2951 0.0
C1423 C 0.12825 0.38107 0.26142 0.0
C1424 C 0.16493 0.38118 0.45089 0.0
C1425 C 0.13873 0.38805 0.37091 0.0
C1426 C 0.17072 0.38527 0.50468 0.0
C1427 C 0.15668 0.39962 0.5372 0.0
C1428 C 0.14483 0.3914 0.42889 0.0
C1429 C 0.13634 0.40896 0.51409 0.0
C1430 C 0.1177 0.3965 0.34951 0.0
C1431 C 0.14925 0.3732 0.28428 0.0
N1432 N 0.13111 0.40479 0.4614 0.0
N1433 N 0.1538 0.37674 0.33745 0.0
H1434 H 0.92058 0.90636 0.75654 0.0
H1435 H 0.82545 0.88933 0.5237 0.0
H1436 H 0.85999 0.8626 0.77455 0.0
H1437 H 0.89415 0.9173 0.49729 0.0
H1438 H 0.83581 0.88264 0.61801 0.0
H1439 H 0.90924 0.91364 0.66378 0.0
C1440 C 0.90496 0.89813 0.74104 0.0
C1441 C 0.89139 0.88361 0.77368 0.0
C1442 C 0.84861 0.89022 0.59153 0.0
C1443 C 0.87802 0.89234 0.66708 0.0
C1444 C 0.84267 0.89416 0.53779 0.0
C1445 C 0.85899 0.90383 0.50248 0.0
C1446 C 0.87094 0.89627 0.61031 0.0
C1447 C 0.88112 0.90956 0.52287 0.0
C1448 C 0.89843 0.90242 0.68799 0.0
C1449 C 0.87094 0.87405 0.75133 0.0
N1450 N 0.88639 0.90577 0.57535 0.0
N1451 N 0.8649 0.87857 0.69948 0.0
H1452 H 0.39089 0.58094 0.76365 0.0
H1453 H 0.36044 0.67245 0.99745 0.0
H1454 H 0.34836 0.64215 0.74024 0.0
H1455 H 0.40682 0.61393 0.01891 0.0
H1456 H 0.35515 0.66109 0.90359 0.0
H1457 H 0.39584 0.59188 0.85807 0.0
C1458 C 0.38248 0.59661 0.77842 0.0
C1459 C 0.36924 0.61068 0.74387 0.0
C1460 C 0.36649 0.65073 0.9288 0.0
C1461 C 0.37498 0.62342 0.85187 0.0
C1462 C 0.36964 0.65729 0.98238 0.0
C1463 C 0.38414 0.64417 0.01625 0.0
C1464 C 0.3779 0.63085 0.90873 0.0
C1465 C 0.39525 0.62443 0.99457 0.0
C1466 C 0.38543 0.60292 0.83227 0.0
C1467 C 0.35899 0.63094 0.76516 0.0
N1468 N 0.39191 0.61839 0.94225 0.0
N1469 N 0.36207 0.63668 0.8177 0.0
H1470 H 0.62101 0.09986 0.98567 0.0
H1471 H 0.65063 0.14753 0.28131 0.0
H1472 H 0.60847 0.17042 0.03874 0.0
H1473 H 0.6481 0.07415 0.2423 0.0
H1474 H 0.63972 0.15649 0.18916 0.0
H1475 H 0.63599 0.09052 0.07564 0.0
C1476 C 0.62166 0.11343 0.01606 0.0
C1477 C 0.61332 0.13591 1.00487 0.0
C1478 C 0.64155 0.13841 0.20069 0.0
C1479 C 0.63032 0.12537 0.10763 0.0
C1480 C 0.64762 0.13324 0.25357 0.0
C1481 C 0.65 0.11 0.27018 0.0
C1482 C 0.63792 0.12027 0.16354 0.0
C1483 C 0.64658 0.09233 0.23151 0.0
C1484 C 0.63004 0.10806 0.06743 0.0
C1485 C 0.61442 0.15279 0.04581 0.0
N1486 N 0.64065 0.09782 0.18009 0.0
N1487 N 0.6227 0.14718 0.09524 0.0
H1488 H 0.89022 0.43653 0.26619 0.0
H1489 H 0.87191 0.34476 0.50346 0.0
H1490 H 0.85727 0.36957 0.24428 0.0
H1491 H 0.91171 0.40811 0.52199 0.0
H1492 H 0.86544 0.35417 0.40919 0.0
H1493 H 0.89725 0.42708 0.36052 0.0
C1494 C 0.88443 0.41984 0.28121 0.0
C1495 C 0.8731 0.40383 0.24714 0.0
C1496 C 0.87561 0.36602 0.43382 0.0
C1497 C 0.88117 0.39287 0.35529 0.0
C1498 C 0.87942 0.3606 0.48773 0.0
C1499 C 0.8925 0.37559 0.52096 0.0
C1500 C 0.88486 0.38664 0.41264 0.0
C1501 C 0.90131 0.39613 0.49827 0.0
C1502 C 0.88854 0.41442 0.33506 0.0
C1503 C 0.86629 0.38235 0.26879 0.0
N1504 N 0.89736 0.40103 0.44561 0.0
N1505 N 0.87034 0.37756 0.32142 0.0
H1506 H 0.42239 0.11953 0.24382 0.0
H1507 H 0.33452 0.15033 1.00353 0.0
H1508 H 0.35958 0.15985 0.26479 0.0
H1509 H 0.38977 0.09966 0.98808 0.0
H1510 H 0.34517 0.15602 0.09754 0.0
H1511 H 0.41238 0.11401 0.14897 0.0
C1512 C 0.40651 0.1273 0.22849 0.0
C1513 C 0.39184 0.14025 0.26254 0.0
C1514 C 0.35499 0.14365 0.07365 0.0
C1515 C 0.38024 0.13394 0.15355 0.0
C1516 C 0.34886 0.14029 0.0198 0.0
C1517 C 0.36107 0.12426 0.98746 0.0
C1518 C 0.37364 0.13106 0.09582 0.0
C1519 C 0.37991 0.11232 1.01099 0.0
C1520 C 0.40076 0.12403 0.1743 0.0
C1521 C 0.37133 0.14958 0.24035 0.0
N1522 N 0.38555 0.11591 0.06362 0.0
N1523 N 0.36622 0.14634 0.18737 0.0
H1524 H 0.6571 0.67202 1.00481 0.0
H1525 H 0.63773 0.57631 0.77377 0.0
H1526 H 0.61243 0.61219 0.02434 0.0
H1527 H 0.66736 0.64421 0.74595 0.0
H1528 H 0.63159 0.58713 0.86805 0.0
H1529 H 0.66407 0.66019 0.91214 0.0
C1530 C 0.64861 0.65646 0.98966 0.0
C1531 C 0.63395 0.64324 0.0227 0.0
C1532 C 0.63942 0.59965 0.84127 0.0
C1533 C 0.64231 0.6293 0.91627 0.0
C1534 C 0.64305 0.59344 0.78756 0.0
C1535 C 0.65301 0.60941 0.75185 0.0
C1536 C 0.64604 0.6219 0.85962 0.0
C1537 C 0.65937 0.63145 0.77185 0.0
C1538 C 0.65273 0.64964 0.93668 0.0
C1539 C 0.62402 0.62286 1.0008 0.0
N1540 N 0.65584 0.637 0.82431 0.0
N1541 N 0.62836 0.61654 0.94903 0.0
H1542 H 0.12596 0.92928 0.4934 0.0
H1543 H 0.14961 0.87455 0.78394 0.0
H1544 H 0.10437 0.86043 0.5403 0.0
H1545 H 0.15678 0.94803 0.75162 0.0
H1546 H 0.13743 0.86824 0.69125 0.0
H1547 H 0.14225 0.93546 0.58385 0.0
C1548 C 0.1249 0.91539 0.52253 0.0
C1549 C 0.11364 0.89438 0.50952 0.0
C1550 C 0.14166 0.88576 0.70437 0.0
C1551 C 0.13212 0.9013 0.61277 0.0
C1552 C 0.14847 0.88943 0.75756 0.0
C1553 C 0.15397 0.91194 0.77618 0.0
C1554 C 0.14042 0.90467 0.66895 0.0
C1555 C 0.15284 0.93036 0.73922 0.0
C1556 C 0.13404 0.91897 0.57417 0.0
C1557 C 0.11262 0.87701 0.54885 0.0
N1558 N 0.14613 0.92633 0.68747 0.0
N1559 N 0.12168 0.88086 0.59856 0.0
H1560 H 0.84393 0.64379 0.79294 0.0
H1561 H 0.89549 0.61826 0.49999 0.0
H1562 H 0.91374 0.66112 0.74415 0.0
H1563 H 0.82183 0.61616 0.53398 0.0
H1564 H 0.90304 0.62912 0.59302 0.0
H1565 H 0.83621 0.6283 0.70229 0.0
C1566 C 0.85769 0.64406 0.76335 0.0
C1567 C 0.87944 0.6539 0.77584 0.0
C1568 C 0.8852 0.62629 0.58022 0.0
C1569 C 0.87078 0.63635 0.67247 0.0
C1570 C 0.88084 0.62025 0.52685 0.0
C1571 C 0.85792 0.61663 0.5086 0.0
C1572 C 0.86658 0.62864 0.61618 0.0
C1573 C 0.83978 0.61872 0.54611 0.0
C1574 C 0.85324 0.63539 0.71162 0.0
C1575 C 0.89663 0.65396 0.73599 0.0
N1576 N 0.84448 0.62468 0.59806 0.0
N1577 N 0.89193 0.64539 0.68621 0.0
H1578 H 0.1215 0.09723 0.53034 0.0
H1579 H 0.15548 0.15611 0.2509 0.0
H1580 H 0.18561 0.13477 0.50531 0.0
H1581 H 0.09542 0.1119 0.27177 0.0
H1582 H 0.16613 0.14971 0.34466 0.0
H1583 H 0.11081 0.10398 0.43674 0.0
C1584 C 0.13328 0.10702 0.50523 0.0
C1585 C 0.15447 0.1155 0.5258 0.0
C1586 C 0.15063 0.1414 0.32872 0.0
C1587 C 0.14241 0.12312 0.41826 0.0
C1588 C 0.14458 0.14494 0.27505 0.0
C1589 C 0.12452 0.13448 0.25318 0.0
C1590 C 0.1365 0.12734 0.36103 0.0
C1591 C 0.11086 0.12057 0.28691 0.0
C1592 C 0.12722 0.11075 0.45167 0.0
C1593 C 0.16921 0.12773 0.49107 0.0
N1594 N 0.11711 0.11741 0.33905 0.0
N1595 N 0.16288 0.13122 0.43907 0.0
H1596 H 0.65506 0.38027 0.28326 0.0
H1597 H 0.62645 0.43601 0.99601 0.0
H1598 H 0.65276 0.45458 0.2572 0.0
H1599 H 0.60902 0.36562 0.03973 0.0
H1600 H 0.64243 0.44236 0.08684 0.0
H1601 H 0.64392 0.37399 0.18979 0.0
C1602 C 0.6521 0.39532 0.25814 0.0
C1603 C 0.65462 0.41803 0.27883 0.0
C1604 C 0.63525 0.42549 0.07633 0.0
C1605 C 0.64232 0.41084 0.17063 0.0
C1606 C 0.62632 0.42182 0.02447 0.0
C1607 C 0.6163 0.40031 1.01054 0.0
C1608 C 0.63442 0.40739 0.11412 0.0
C1609 C 0.61639 0.38253 0.04902 0.0
C1610 C 0.64589 0.39168 0.2045 0.0
C1611 C 0.65121 0.43675 0.2433 0.0
N1612 N 0.62525 0.38647 0.09892 0.0
N1613 N 0.6452 0.43274 0.19108 0.0
H1614 H 0.33813 0.85881 1.00386 0.0
H1615 H 0.42101 0.90937 0.77461 0.0
H1616 H 0.38415 0.91739 0.02875 0.0
H1617 H 0.37049 0.85483 0.74792 0.0
H1618 H 0.4084 0.91222 0.86811 0.0
H1619 H 0.34989 0.85721 0.91008 0.0
C1620 C 0.35052 0.87153 0.98958 0.0
C1621 C 0.36009 0.88831 0.02454 0.0
C1622 C 0.40004 0.89966 0.84177 0.0
C1623 C 0.37405 0.88624 0.91684 0.0
C1624 C 0.40735 0.89791 0.78844 0.0
C1625 C 0.39681 0.88182 0.75325 0.0
C1626 C 0.38213 0.88514 0.86024 0.0
C1627 C 0.37894 0.86767 0.77333 0.0
C1628 C 0.35738 0.87047 0.93596 0.0
C1629 C 0.3765 0.90396 1.00363 0.0
N1630 N 0.37222 0.86963 0.8254 0.0
N1631 N 0.38299 0.90251 0.95125 0.0
H1632 H 0.15816 0.70173 0.23446 0.0
H1633 H 0.10033 0.82245 0.1411 0.0
H1634 H 0.11053 0.70874 0.10132 0.0
H1635 H 0.16654 0.82146 0.22305 0.0
H1636 H 0.0993 0.77993 0.14363 0.0
H1637 H 0.15738 0.74456 0.24657 0.0
C1638 C 0.14726 0.7122 0.20843 0.0
C1639 C 0.13434 0.70159 0.1669 0.0
C1640 C 0.114 0.78892 0.1616 0.0
C1641 C 0.13326 0.75043 0.18067 0.0
C1642 C 0.11457 0.81324 0.16025 0.0
C1643 C 0.13367 0.82555 0.18132 0.0
C1644 C 0.13262 0.77651 0.18449 0.0
C1645 C 0.15146 0.81266 0.20641 0.0
C1646 C 0.14698 0.73662 0.21506 0.0
C1647 C 0.12082 0.71608 0.1338 0.0
N1648 N 0.15062 0.7888 0.20692 0.0
N1649 N 0.12057 0.73957 0.14152 0.0
H1650 H 0.57147 0.92521 0.44058 0.0
H1651 H 0.45262 0.85137 0.46219 0.0
H1652 H 0.57277 0.85044 0.45467 0.0
H1653 H 0.45762 0.92155 0.40266 0.0
H1654 H 0.49545 0.85084 0.47402 0.0
H1655 H 0.52904 0.92441 0.44319 0.0
C1656 C 0.56282 0.90857 0.44516 0.0
C1657 C 0.57588 0.88786 0.4472 0.0
C1658 C 0.48708 0.86638 0.45872 0.0
C1659 C 0.5266 0.88675 0.44953 0.0
C1660 C 0.4626 0.86676 0.45233 0.0
C1661 C 0.4513 0.88656 0.43146 0.0
C1662 C 0.50039 0.88608 0.44503 0.0
C1663 C 0.46534 0.90584 0.41875 0.0
C1664 C 0.53846 0.90812 0.44635 0.0
C1665 C 0.56349 0.86686 0.45329 0.0
N1666 N 0.48889 0.90511 0.42578 0.0
N1667 N 0.53957 0.86681 0.45372 0.0
H1668 H 0.418 0.32294 0.63903 0.0
H1669 H 0.35807 0.20209 0.72579 0.0
H1670 H 0.352 0.32157 0.72036 0.0
H1671 H 0.41404 0.208 0.61218 0.0
H1672 H 0.35809 0.24493 0.73647 0.0
H1673 H 0.41958 0.28048 0.64215 0.0
C1674 C 0.40394 0.31367 0.65835 0.0
C1675 C 0.38482 0.32595 0.67932 0.0
C1676 C 0.37049 0.23681 0.70961 0.0
C1677 C 0.38639 0.27672 0.68276 0.0
C1678 C 0.37063 0.21233 0.70385 0.0
C1679 C 0.38612 0.20135 0.66804 0.0
C1680 C 0.38624 0.25045 0.68008 0.0
C1681 C 0.40177 0.21562 0.64014 0.0
C1682 C 0.4048 0.28932 0.65994 0.0
C1683 C 0.36718 0.31288 0.70411 0.0
N1684 N 0.40141 0.23923 0.64672 0.0
N1685 N 0.36829 0.28899 0.70478 0.0
H1686 H 0.95509 0.17126 0.88227 0.0
H1687 H 0.06712 0.09437 0.9373 0.0
H1688 H 0.94977 0.10666 0.96833 0.0
H1689 H 0.07139 0.16924 0.93261 0.0
H1690 H 0.02445 0.09728 0.94188 0.0
H1691 H 0.99763 0.16999 0.89313 0.0
C1692 C 0.96287 0.157 0.90437 0.0
C1693 C 0.94874 0.13924 0.9252 0.0
C1694 C 0.03471 0.11309 0.94078 0.0
C1695 C 0.99775 0.13726 0.93624 0.0
C1696 C 0.0591 0.11146 0.9382 0.0
C1697 C 0.07296 0.13161 0.93517 0.0
C1698 C 0.02385 0.13504 0.93887 0.0
C1699 C 0.06149 0.15327 0.93571 0.0
C1700 C 0.98718 0.15627 0.91044 0.0
C1701 C 0.95989 0.12097 0.95263 0.0
N1702 N 0.03768 0.1544 0.93661 0.0
N1703 N 0.98369 0.12027 0.95662 0.0
H1704 H 0.15914 0.31825 0.79677 0.0
H1705 H 0.10187 0.20022 0.90757 0.0
H1706 H 0.10445 0.31479 0.91424 0.0
H1707 H 0.15991 0.19896 0.79857 0.0
H1708 H 0.10027 0.24243 0.90065 0.0
H1709 H 0.15763 0.27538 0.78752 0.0
C1710 C 0.14653 0.30853 0.81981 0.0
C1711 C 0.13193 0.32014 0.85649 0.0
C1712 C 0.1133 0.2331 0.87771 0.0
C1713 C 0.13017 0.27114 0.84635 0.0
C1714 C 0.11416 0.20886 0.88151 0.0
C1715 C 0.13109 0.19594 0.85374 0.0
C1716 C 0.12962 0.24494 0.84611 0.0
C1717 C 0.14648 0.2082 0.82042 0.0
C1718 C 0.14579 0.28406 0.81483 0.0
C1719 C 0.11609 0.30664 0.88568 0.0
N1720 N 0.14556 0.23205 0.81797 0.0
N1721 N 0.11574 0.28304 0.88017 0.0
H1722 H 0.06356 0.8678 0.17855 0.0
H1723 H 0.94812 0.92102 0.05023 0.0
H1724 H 0.06868 0.91176 0.03945 0.0
H1725 H 0.95032 0.85605 0.13561 0.0
H1726 H 0.99124 0.92086 0.04716 0.0
H1727 H 0.02143 0.86665 0.16725 0.0
C1728 C 0.05585 0.87719 0.14531 0.0
C1729 C 0.06991 0.88985 0.10983 0.0
C1730 C 0.98221 0.9065 0.06587 0.0
C1731 C 0.02093 0.88878 0.09687 0.0
C1732 C 0.9576 0.90652 0.06734 0.0
C1733 C 0.94554 0.88863 0.09377 0.0
C1734 C 0.9948 0.88855 0.09134 0.0
C1735 C 0.95881 0.87041 0.11564 0.0
C1736 C 0.03166 0.87644 0.13878 0.0
C1737 C 0.05863 0.9016 0.06751 0.0
N1738 N 0.98252 0.87099 0.11452 0.0
N1739 N 0.0348 0.901 0.06252 0.0
H1740 H 0.34579 0.70306 0.33789 0.0
H1741 H 0.42334 0.81455 0.38991 0.0
H1742 H 0.42066 0.69808 0.33631 0.0
H1743 H 0.35799 0.82 0.30534 0.0
H1744 H 0.42208 0.77199 0.37842 0.0
H1745 H 0.34888 0.74568 0.33365 0.0
C1746 C 0.36291 0.71093 0.33557 0.0
C1747 C 0.38301 0.69688 0.33659 0.0
C1748 C 0.4082 0.78249 0.36159 0.0
C1749 C 0.38666 0.74593 0.33341 0.0
C1750 C 0.40892 0.8068 0.36804 0.0
C1751 C 0.39091 0.82094 0.34787 0.0
C1752 C 0.38898 0.77199 0.33612 0.0
C1753 C 0.37246 0.80986 0.32063 0.0
C1754 C 0.36464 0.73528 0.33323 0.0
C1755 C 0.40472 0.70815 0.33453 0.0
N1756 N 0.37178 0.78608 0.31633 0.0
N1757 N 0.40598 0.73196 0.3339 0.0
H1758 H 0.56398 0.16552 0.66403 0.0
H1759 H 0.44949 0.09922 0.57265 0.0
H1760 H 0.56791 0.10975 0.54787 0.0
H1761 H 0.44824 0.17254 0.61006 0.0
H1762 H 0.49234 0.10052 0.57037 0.0
H1763 H 0.5215 0.16627 0.65302 0.0
C1764 C 0.55594 0.1535 0.63585 0.0
C1765 C 0.56973 0.13763 0.60658 0.0
C1766 C 0.48272 0.11642 0.57813 0.0
C1767 C 0.52063 0.13812 0.59462 0.0
C1768 C 0.45824 0.11571 0.57932 0.0
C1769 C 0.44518 0.1359 0.59066 0.0
C1770 C 0.49445 0.13732 0.5901 0.0
C1771 C 0.45753 0.15667 0.60012 0.0
C1772 C 0.53163 0.15402 0.62951 0.0
C1773 C 0.55812 0.12246 0.57083 0.0
N1774 N 0.48139 0.15676 0.60051 0.0
N1775 N 0.5343 0.12285 0.56644 0.0
H1776 H 0.92051 0.2004 0.81422 0.0
H1777 H 0.84896 0.32094 0.82699 0.0
H1778 H 0.84936 0.20735 0.8667 0.0
H1779 H 0.92399 0.32017 0.8298 0.0
H1780 H 0.84886 0.27848 0.82053 0.0
H1781 H 0.92214 0.2431 0.80195 0.0
C1782 C 0.90515 0.21079 0.82237 0.0
C1783 C 0.88475 0.20014 0.84145 0.0
C1784 C 0.86542 0.2875 0.82181 0.0
C1785 C 0.88645 0.24897 0.82713 0.0
C1786 C 0.86548 0.31183 0.8252 0.0
C1787 C 0.8865 0.32422 0.82926 0.0
C1788 C 0.88655 0.2751 0.82287 0.0
C1789 C 0.90737 0.31136 0.82657 0.0
C1790 C 0.90615 0.23517 0.8157 0.0
C1791 C 0.8655 0.21463 0.85204 0.0
N1792 N 0.90689 0.28749 0.82425 0.0
N1793 N 0.86682 0.23809 0.84464 0.0
H1794 H 0.60831 0.81574 0.41819 0.0
H1795 H 0.67221 0.70068 0.30774 0.0
H1796 H 0.66523 0.82075 0.30683 0.0
H1797 H 0.60486 0.70123 0.38301 0.0
H1798 H 0.67135 0.74382 0.30603 0.0
H1799 H 0.60824 0.7735 0.40645 0.0
C1800 C 0.62069 0.80796 0.39069 0.0
C1801 C 0.63671 0.82202 0.3633 0.0
C1802 C 0.65663 0.73446 0.32222 0.0
C1803 C 0.63696 0.77291 0.34992 0.0
C1804 C 0.65704 0.70981 0.3228 0.0
C1805 C 0.63859 0.69722 0.34569 0.0
C1806 C 0.63765 0.74664 0.34481 0.0
C1807 C 0.61957 0.71009 0.36538 0.0
C1808 C 0.62066 0.7837 0.38397 0.0
C1809 C 0.65237 0.81071 0.32833 0.0
N1810 N 0.6197 0.73385 0.36488 0.0
N1811 N 0.65228 0.78686 0.32305 0.0
H1812 H 0.90541 0.70313 0.09507 0.0
H1813 H 0.86993 0.82251 0.24456 0.0
H1814 H 0.86769 0.70182 0.24442 0.0
H1815 H 0.89827 0.81617 0.08505 0.0
H1816 H 0.8716 0.77952 0.25266 0.0
H1817 H 0.90602 0.74515 0.0988 0.0
C1818 C 0.89721 0.71165 0.12901 0.0
C1819 C 0.88622 0.69861 0.1692 0.0
C1820 C 0.8775 0.78767 0.2161 0.0
C1821 C 0.88681 0.74784 0.17364 0.0
C1822 C 0.87665 0.81221 0.21151 0.0
C1823 C 0.88384 0.82317 0.1639 0.0
C1824 C 0.88585 0.77405 0.173 0.0
C1825 C 0.89229 0.80879 0.12242 0.0
C1826 C 0.89758 0.7359 0.13108 0.0
C1827 C 0.87634 0.71106 0.21245 0.0
N1828 N 0.89302 0.78528 0.12801 0.0
N1829 N 0.87669 0.735 0.21336 0.0
H1830 H 0.60722 0.20794 0.62135 0.0
H1831 H 0.67277 0.32459 0.71974 0.0
H1832 H 0.66821 0.20476 0.72224 0.0
H1833 H 0.60439 0.32314 0.64821 0.0
H1834 H 0.67255 0.28148 0.72201 0.0
H1835 H 0.60731 0.25033 0.6295 0.0
C1836 C 0.6207 0.21615 0.64532 0.0
C1837 C 0.6378 0.20254 0.6708 0.0
C1838 C 0.65745 0.29061 0.70662 0.0
C1839 C 0.63791 0.25183 0.68109 0.0
C1840 C 0.65749 0.31526 0.70579 0.0
C1841 C 0.63851 0.32759 0.68396 0.0
C1842 C 0.6383 0.27815 0.68538 0.0
C1843 C 0.61941 0.31446 0.66538 0.0
C1844 C 0.62065 0.2405 0.65031 0.0
C1845 C 0.65457 0.21443 0.70211 0.0
N1846 N 0.61987 0.29069 0.66622 0.0
N1847 N 0.65432 0.23831 0.70604 0.0
H1848 H 0.95277 0.41438 0.973 0.0
H1849 H 0.07447 0.34804 0.92177 0.0
H1850 H 0.95866 0.35139 0.87915 0.0
H1851 H 0.07069 0.42175 0.9537 0.0
H1852 H 0.03167 0.34611 0.92448 0.0
H1853 H 0.99553 0.41458 0.98446 0.0
C1854 C 0.963 0.40032 0.95593 0.0
C1855 C 0.95214 0.38276 0.92537 0.0
C1856 C 0.0402 0.36265 0.93175 0.0
C1857 C 1.00099 0.38282 0.93832 0.0
C1858 C 0.06465 0.36369 0.93071 0.0
C1859 C 0.07615 0.38505 0.9378 0.0
C1860 C 0.0271 0.38304 0.9411 0.0
C1861 C 0.06249 0.40492 0.94817 0.0
C1862 C 0.9874 0.40056 0.96198 0.0
C1863 C 0.96632 0.36523 0.90311 0.0
N1864 N 0.03876 0.40345 0.9496 0.0
N1865 N 0.98989 0.36566 0.91011 0.0
H1866 H 0.44954 0.61174 0.47797 0.0
H1867 H 0.56726 0.65496 0.33751 0.0
H1868 H 0.45339 0.66239 0.35136 0.0
H1869 H 0.56989 0.61585 0.48463 0.0
H1870 H 0.52517 0.65678 0.34407 0.0
H1871 H 0.49264 0.61224 0.48436 0.0
C1872 C 0.45935 0.6232 0.45217 0.0
C1873 C 0.44772 0.63687 0.41368 0.0
C1874 C 0.53476 0.64787 0.37533 0.0
C1875 C 0.49699 0.63737 0.42033 0.0
C1876 C 0.559 0.64676 0.37153 0.0
C1877 C 0.57239 0.63516 0.41047 0.0
C1878 C 0.52324 0.63707 0.41818 0.0
C1879 C 0.56037 0.62508 0.45375 0.0
C1880 C 0.48396 0.6234 0.45562 0.0
C1881 C 0.46144 0.6513 0.38118 0.0
N1882 N 0.53648 0.62606 0.4562 0.0
N1883 N 0.48509 0.65099 0.38496 0.0
H1884 H 0.45353 0.36299 0.67604 0.0
H1885 H 0.57105 0.408 0.53624 0.0
H1886 H 0.45116 0.40791 0.53808 0.0
H1887 H 0.56714 0.36637 0.6794 0.0
H1888 H 0.52809 0.40575 0.52802 0.0
H1889 H 0.4956 0.36133 0.66941 0.0
C1890 C 0.46189 0.37246 0.64396 0.0
C1891 C 0.44868 0.38577 0.60786 0.0
C1892 C 0.53675 0.39697 0.56087 0.0
C1893 C 0.49764 0.38418 0.60019 0.0
C1894 C 0.56127 0.39813 0.56538 0.0
C1895 C 0.57279 0.38751 0.60881 0.0
C1896 C 0.5238 0.38491 0.59978 0.0
C1897 C 0.55916 0.37511 0.64558 0.0
C1898 C 0.48608 0.37152 0.64017 0.0
C1899 C 0.46065 0.39739 0.56673 0.0
N1900 N 0.53563 0.37425 0.64028 0.0
N1901 N 0.4845 0.39656 0.56433 0.0
H1902 H 0.07154 0.6009 0.05142 0.0
H1903 H 0.95497 0.66321 0.15504 0.0
H1904 H 0.06893 0.67035 0.11735 0.0
H1905 H 0.9518 0.60252 0.05277 0.0
H1906 H 0.99705 0.66476 0.14254 0.0
H1907 H 0.02846 0.60017 0.04953 0.0
C1908 C 0.06193 0.61624 0.06393 0.0
C1909 C 0.07388 0.63576 0.08443 0.0
C1910 C 0.98727 0.65115 0.12234 0.0
C1911 C 0.0246 0.63488 0.0836 0.0
C1912 C 0.96313 0.65014 0.12988 0.0
C1913 C 0.94967 0.63262 0.10529 0.0
C1914 C 0.99849 0.63442 0.09001 0.0
C1915 C 0.9614 0.61643 0.07231 0.0
C1916 C 0.03733 0.61574 0.06333 0.0
C1917 C 0.06049 0.65493 0.10125 0.0
N1918 N 0.9851 0.61758 0.06602 0.0
N1919 N 0.03676 0.65393 0.10087 0.0
H1920 H 0.11561 0.5758 1.00689 0.0
H1921 H 0.15715 0.44327 0.02697 0.0
H1922 H 0.15927 0.55071 0.13542 0.0
H1923 H 0.133 0.47305 0.87807 0.0
H1924 H 0.15521 0.4814 0.0691 0.0
H1925 H 0.11822 0.53765 0.96303 0.0
C1926 C 0.12556 0.56219 0.02638 0.0
C1927 C 0.13723 0.56668 0.07531 0.0
C1928 C 0.15042 0.47972 0.02717 0.0
C1929 C 0.14024 0.52251 0.02456 0.0
C1930 C 0.15155 0.45778 1.00258 0.0
C1931 C 0.1452 0.4545 0.94823 0.0
C1932 C 0.1425 0.49897 0.99802 0.0
C1933 C 0.13803 0.47442 0.91984 0.0
C1934 C 0.12715 0.5404 1.00092 0.0
C1935 C 0.14975 0.54816 0.09827 0.0
N1936 N 0.13667 0.49568 0.94514 0.0
N1937 N 0.15091 0.52698 0.07279 0.0
H1938 H 0.70818 0.93062 0.32888 0.0
H1939 H 0.81297 0.85798 0.19323 0.0
H1940 H 0.714 0.85605 0.34255 0.0
H1941 H 0.81313 0.93269 0.21058 0.0
H1942 H 0.77578 0.85655 0.24203 0.0
H1943 H 0.74563 0.93142 0.28214 0.0
C1944 C 0.71739 0.91438 0.32226 0.0
C1945 C 0.70765 0.89321 0.33932 0.0
C1946 C 0.78395 0.87326 0.23527 0.0
C1947 C 0.75093 0.89396 0.28492 0.0
C1948 C 0.80515 0.87411 0.20701 0.0
C1949 C 0.81641 0.8955 0.19797 0.0
C1950 C 0.77361 0.89399 0.25432 0.0
C1951 C 0.8053 0.91578 0.21697 0.0
C1952 C 0.73885 0.91485 0.29542 0.0
C1953 C 0.72068 0.87278 0.32996 0.0
N1954 N 0.78468 0.91453 0.24402 0.0
N1955 N 0.74143 0.87363 0.30303 0.0
H1956 H 0.41341 0.45891 0.58062 0.0
H1957 H 0.33956 0.56459 0.4535 0.0
H1958 H 0.33864 0.45816 0.56554 0.0
H1959 H 0.41395 0.55878 0.43586 0.0
H1960 H 0.33909 0.52669 0.49836 0.0
H1961 H 0.41426 0.4965 0.5337 0.0
C1962 C 0.39714 0.46667 0.56764 0.0
C1963 C 0.37592 0.45513 0.57676 0.0
C1964 C 0.35555 0.5336 0.48463 0.0
C1965 C 0.37675 0.49843 0.52268 0.0
C1966 C 0.35583 0.55531 0.45894 0.0
C1967 C 0.37686 0.56517 0.44137 0.0
C1968 C 0.37649 0.5214 0.49339 0.0
C1969 C 0.39733 0.55203 0.449 0.0
C1970 C 0.39766 0.48811 0.54049 0.0
C1971 C 0.35543 0.4662 0.55897 0.0
N1972 N 0.39667 0.53103 0.47481 0.0
N1973 N 0.35636 0.48709 0.53298 0.0
H1974 H 0.80383 0.09955 0.85712 0.0
H1975 H 0.70627 0.17244 0.7087 0.0
H1976 H 0.8217 0.16525 0.78569 0.0
H1977 H 0.71381 0.09973 0.66903 0.0
H1978 H 0.7445 0.17146 0.75394 0.0
H1979 H 0.76632 0.10027 0.80763 0.0
C1980 C 0.79972 0.11431 0.83189 0.0
C1981 C 0.816 0.13242 0.82583 0.0
C1982 C 0.7379 0.15577 0.73493 0.0
C1983 C 0.77296 0.13345 0.76946 0.0
C1984 C 0.71616 0.15634 0.70873 0.0
C1985 C 0.70694 0.13626 0.68402 0.0
C1986 C 0.75029 0.13469 0.73875 0.0
C1987 C 0.72043 0.11576 0.68641 0.0
C1988 C 0.77844 0.11457 0.80316 0.0
C1989 C 0.80975 0.15093 0.79173 0.0
N1990 N 0.74115 0.11538 0.71408 0.0
N1991 N 0.78876 0.1511 0.76552 0.0
H1992 H 0.91966 0.56713 0.05432 0.0
H1993 H 0.84713 0.45258 0.97731 0.0
H1994 H 0.8558 0.54932 0.13417 0.0
H1995 H 0.91971 0.46068 0.93841 0.0
H1996 H 0.84883 0.48878 0.03015 0.0
H1997 H 0.91931 0.52917 1.00891 0.0
C1998 C 0.90576 0.555 0.06313 0.0
C1999 C 0.88787 0.56142 0.09868 0.0
C2000 C 0.86444 0.48258 1.01041 0.0
C2001 C 0.88692 0.51785 0.04495 0.0
C2002 C 0.86354 0.46177 0.98041 0.0
C2003 C 0.88349 0.45298 0.95458 0.0
C2004 C 0.88535 0.49526 0.01385 0.0
C2005 C 0.90391 0.46649 0.95795 0.0
C2006 C 0.9055 0.53333 0.03685 0.0
C2007 C 0.87016 0.54501 0.10789 0.0
N2008 N 0.9043 0.48682 0.98691 0.0
N2009 N 0.86997 0.52417 0.0807 0.0
H2010 H 0.20455 0.09255 0.79805 0.0
H2011 H 0.32216 0.16463 0.74801 0.0
H2012 H 0.21269 0.16388 0.84955 0.0
H2013 H 0.3033 0.1048 0.65222 0.0
H2014 H 0.28411 0.16286 0.79237 0.0
H2015 H 0.24217 0.0948 0.752 0.0
C2016 C 0.21404 0.10883 0.79913 0.0
C2017 C 0.20478 0.1283 0.82634 0.0
C2018 C 0.28817 0.15019 0.76141 0.0
C2019 C 0.24887 0.13067 0.77528 0.0
C2020 C 0.30996 0.15117 0.73598 0.0
C2021 C 0.31604 0.13496 0.69573 0.0
C2022 C 0.27218 0.13257 0.74756 0.0
C2023 C 0.29939 0.11788 0.6823 0.0
C2024 C 0.23571 0.11002 0.77311 0.0
C2025 C 0.21878 0.14846 0.82865 0.0
N2026 N 0.27841 0.11703 0.70831 0.0
N2027 N 0.23997 0.1491 0.8036 0.0
H2028 H 0.60836 0.56277 0.43993 0.0
H2029 H 0.6832 0.45814 0.56974 0.0
H2030 H 0.68306 0.56416 0.45634 0.0
H2031 H 0.60884 0.46345 0.58876 0.0
H2032 H 0.68307 0.49537 0.52216 0.0
H2033 H 0.60772 0.52508 0.48683 0.0
C2034 C 0.62466 0.5551 0.45301 0.0
C2035 C 0.6458 0.56686 0.44432 0.0
C2036 C 0.66674 0.48852 0.53681 0.0
C2037 C 0.64521 0.52345 0.49838 0.0
C2038 C 0.66679 0.46714 0.564 0.0
C2039 C 0.646 0.45743 0.58348 0.0
C2040 C 0.64568 0.50055 0.52817 0.0
C2041 C 0.62534 0.4702 0.57491 0.0
C2042 C 0.62426 0.5336 0.48018 0.0
C2043 C 0.66632 0.55593 0.46242 0.0
N2044 N 0.62568 0.49091 0.54775 0.0
N2045 N 0.66551 0.53501 0.48835 0.0
H2046 H 0.3079 0.85579 0.3563 0.0
H2047 H 0.21983 0.91611 0.14501 0.0
H2048 H 0.31942 0.92429 0.29147 0.0
H2049 H 0.20058 0.85809 0.24419 0.0
H2050 H 0.25837 0.91682 0.18943 0.0
H2051 H 0.27022 0.85434 0.30944 0.0
C2052 C 0.3025 0.87064 0.33275 0.0
C2053 C 0.3171 0.89021 0.3283 0.0
C2054 C 0.24577 0.90381 0.20116 0.0
C2055 C 0.27382 0.88839 0.27274 0.0
C2056 C 0.22384 0.90324 0.17529 0.0
C2057 C 0.20684 0.887 0.1907 0.0
C2058 C 0.25098 0.88781 0.24234 0.0
C2059 C 0.21304 0.87096 0.23094 0.0
C2060 C 0.28095 0.86973 0.30554 0.0
C2061 C 0.30894 0.90878 0.29636 0.0
N2062 N 0.23442 0.87178 0.25517 0.0
N2063 N 0.28811 0.90733 0.26965 0.0
H2064 H 0.66891 0.97211 0.39979 0.0
H2065 H 0.60891 0.0597 0.61178 0.0
H2066 H 0.61889 0.94868 0.51595 0.0
H2067 H 0.67825 0.07098 0.55212 0.0
H2068 H 0.60862 0.02123 0.56745 0.0
H2069 H 0.66853 1.01099 0.44306 0.0
C2070 C 0.65765 0.97516 0.43388 0.0
C2071 C 0.64398 0.9569 0.45414 0.0
C2072 C 0.62387 0.03219 0.56385 0.0
C2073 C 0.64328 1.00161 0.50388 0.0
C2074 C 0.62412 0.05416 0.58964 0.0
C2075 C 0.64356 0.06897 0.58566 0.0
C2076 C 0.64301 0.02493 0.53262 0.0
C2077 C 0.66258 0.06064 0.55538 0.0
C2078 C 0.65756 0.99734 0.45888 0.0
C2079 C 0.62987 0.96205 0.49892 0.0
N2080 N 0.66175 0.03948 0.5298 0.0
N2081 N 0.62979 0.98376 0.52187 0.0
H2082 H 0.18917 0.37038 0.74769 0.0
H2083 H 0.3241 0.36966 0.76219 0.0
H2084 H 0.22229 0.40404 0.88286 0.0
H2085 H 0.2945 0.40343 0.62334 0.0
H2086 H 0.28597 0.37044 0.80494 0.0
H2087 H 0.22628 0.37153 0.69927 0.0
C2088 C 0.20421 0.37787 0.76768 0.0
C2089 C 0.20244 0.3868 0.82046 0.0
C2090 C 0.2878 0.37749 0.76493 0.0
C2091 C 0.24531 0.3876 0.76481 0.0
C2092 C 0.30959 0.377 0.74006 0.0
C2093 C 0.31291 0.38664 0.68864 0.0
C2094 C 0.26859 0.38685 0.73792 0.0
C2095 C 0.29301 0.39557 0.6625 0.0
C2096 C 0.22538 0.37857 0.73965 0.0
C2097 C 0.22276 0.39633 0.84335 0.0
N2098 N 0.27169 0.39532 0.68724 0.0
N2099 N 0.24335 0.39613 0.8159 0.0
H2100 H 0.91583 0.95316 0.04363 0.0
H2101 H 0.8428 0.0662 0.96323 0.0
H2102 H 0.85306 0.97261 0.1266 0.0
H2103 H 0.91658 0.06131 0.93409 0.0
H2104 H 0.84476 0.02994 0.01476 0.0
H2105 H 0.91557 0.99085 0.99779 0.0
C2106 C 0.9022 0.96558 0.05303 0.0
C2107 C 0.88458 0.9597 0.08959 0.0
C2108 C 0.86055 0.03679 0.99724 0.0
C2109 C 0.88365 1.00286 0.03521 0.0
C2110 C 0.85946 0.05749 0.96752 0.0
C2111 C 0.87967 0.06733 0.9453 0.0
C2112 C 0.88193 0.02516 1.00368 0.0
C2113 C 0.90058 0.05472 0.95105 0.0
C2114 C 0.902 0.98708 0.02651 0.0
C2115 C 0.86721 0.97648 0.09952 0.0
N2116 N 0.90116 0.03439 0.97958 0.0
N2117 N 0.86698 0.99707 0.07191 0.0
H2118 H 0.20138 0.5921 0.21846 0.0
H2119 H 0.3203 0.65912 0.27891 0.0
H2120 H 0.21029 0.66468 0.18054 0.0
H2121 H 0.29868 0.601 0.37514 0.0
H2122 H 0.28181 0.65972 0.23596 0.0
H2123 H 0.23828 0.59299 0.26865 0.0
C2124 C 0.21102 0.60829 0.22074 0.0
C2125 C 0.2024 0.62842 0.19536 0.0
C2126 C 0.28533 0.64694 0.26678 0.0
C2127 C 0.24538 0.62933 0.2518 0.0
C2128 C 0.30734 0.64658 0.29143 0.0
C2129 C 0.31279 0.63005 0.33104 0.0
C2130 C 0.26854 0.63025 0.28051 0.0
C2131 C 0.29522 0.61422 0.34534 0.0
C2132 C 0.23217 0.60874 0.24941 0.0
C2133 C 0.21616 0.64866 0.19881 0.0
N2134 N 0.27405 0.61449 0.31962 0.0
N2135 N 0.23692 0.64855 0.22606 0.0
H2136 H 0.39261 0.94162 0.52641 0.0
H2137 H 0.36999 0.07831 0.49346 0.0
H2138 H 0.36509 0.97207 0.3815 0.0
H2139 H 0.37987 0.04692 0.64887 0.0
H2140 H 0.37018 0.03997 0.45223 0.0
H2141 H 0.39022 0.97961 0.57071 0.0
C2142 C 0.38617 0.95625 0.50342 0.0
C2143 C 0.37937 0.95331 0.4492 0.0
C2144 C 0.37225 0.04132 0.49536 0.0
C2145 C 0.37666 0.99753 0.50091 0.0
C2146 C 0.37217 0.06342 0.51942 0.0
C2147 C 0.37506 0.06635 0.57541 0.0
C2148 C 0.37555 0.02141 0.52676 0.0
C2149 C 0.37772 0.04587 0.60578 0.0
C2150 C 0.38476 0.97805 0.52919 0.0
C2151 C 0.37108 0.97325 0.42258 0.0
N2152 N 0.3781 0.02439 0.5811 0.0
N2153 N 0.37009 0.99436 0.44847 0.0
H2154 H 0.81932 0.59037 0.23067 0.0
H2155 H 0.70439 0.66489 0.29226 0.0
H2156 H 0.81172 0.66189 0.18234 0.0
H2157 H 0.72215 0.60374 0.38301 0.0
H2158 H 0.74258 0.6633 0.24887 0.0
H2159 H 0.78312 0.59369 0.28232 0.0
C2160 C 0.81019 0.60688 0.23122 0.0
C2161 C 0.81904 0.62599 0.20258 0.0
C2162 C 0.73835 0.65036 0.27873 0.0
C2163 C 0.77671 0.62971 0.26072 0.0
C2164 C 0.71652 0.65133 0.30385 0.0
C2165 C 0.70997 0.63456 0.34191 0.0
C2166 C 0.75392 0.63215 0.29051 0.0
C2167 C 0.72648 0.61727 0.35467 0.0
C2168 C 0.78937 0.60871 0.26062 0.0
C2169 C 0.80574 0.64662 0.2034 0.0
N2170 N 0.74746 0.61632 0.32856 0.0
N2171 N 0.78536 0.64789 0.23167 0.0
H2172 H 0.16965 0.0479 0.89056 0.0
H2173 H 0.10924 0.96361 0.10616 0.0
H2174 H 0.11592 0.07081 0.99903 0.0
H2175 H 0.17874 0.95135 0.04792 0.0
H2176 H 0.10833 1.00052 0.05711 0.0
H2177 H 0.16979 1.0096 0.93559 0.0
C2178 C 0.15767 0.04479 0.9232 0.0
C2179 C 0.14281 0.06269 0.94105 0.0
C2180 C 0.12377 0.98971 0.05484 0.0
C2181 C 0.1428 0.01891 0.99272 0.0
C2182 C 0.12437 0.96865 0.08332 0.0
C2183 C 0.14407 0.95412 0.08138 0.0
C2184 C 0.14287 0.99631 0.02308 0.0
C2185 C 0.16295 0.9616 0.04986 0.0
C2186 C 0.15789 0.02301 0.94923 0.0
C2187 C 0.12781 0.05766 0.98404 0.0
N2188 N 0.16185 0.98199 0.02184 0.0
N2189 N 0.12814 0.03639 1.00808 0.0
H2190 H 0.69864 0.37008 0.76607 0.0
H2191 H 0.83313 0.39518 0.74264 0.0
H2192 H 0.72427 0.41222 0.63635 0.0
H2193 H 0.79933 0.39774 0.89701 0.0
H2194 H 0.79509 0.39493 0.69904 0.0
H2195 H 0.73683 0.37247 0.80951 0.0
C2196 C 0.71235 0.37966 0.74622 0.0
C2197 C 0.70795 0.39112 0.69728 0.0
C2198 C 0.79601 0.39543 0.74246 0.0
C2199 C 0.75222 0.39347 0.7471 0.0
C2200 C 0.81782 0.39551 0.76785 0.0
C2201 C 0.81988 0.39579 0.82441 0.0
C2202 C 0.77572 0.39508 0.77333 0.0
C2203 C 0.79899 0.39656 0.85377 0.0
C2204 C 0.73413 0.38112 0.77146 0.0
C2205 C 0.7267 0.40298 0.67366 0.0
N2206 N 0.77787 0.39578 0.828 0.0
N2207 N 0.74801 0.40373 0.6986 0.0
loop_
_geom_bond_atom_site_label_1
_geom_bond_atom_site_label_2
_geom_bond_distance
_geom_bond_site_symmetry_2
_ccdc_geom_bond_type
Tb0 N29 2.617 . S
Tb0 N35 2.572 . S
Tb0 O44 2.465 . S
Tb0 O45 2.387 . S
Tb0 O47 2.428 . S
Tb0 O48 2.308 . S
Tb0 O52 2.349 . S
Tb0 O55 2.393 . S
Tb0 C64 2.802 . S
C1 N2 1.379 . S
C1 C4 1.416 . S
C1 C8 1.424 . S
N2 C1 1.379 . S
N2 C5 1.334 . S
N2 Tb11 2.617 . S
C3 C5 1.390 . S
C3 C6 1.339 . S
C3 H23 0.930 . S
C4 C1 1.416 . S
C4 C6 1.416 . S
C4 C10 1.448 1_554 S
C5 N2 1.334 . S
C5 C3 1.390 . S
C5 H16 0.930 . S
C6 C3 1.339 . S
C6 C4 1.416 . S
C6 H27 0.930 . S
C7 C8 1.413 1_556 S
C7 C9 1.427 . S
C7 C13 1.416 . S
C8 C1 1.424 . S
C8 C7 1.413 1_554 S
C8 N12 1.361 . S
C9 C7 1.427 . S
C9 C10 1.328 . S
C9 H24 0.929 . S
C10 C4 1.448 1_556 S
C10 C9 1.328 . S
C10 H25 0.930 . S
Tb11 N2 2.617 . S
Tb11 N12 2.572 . S
Tb11 O46 2.349 . S
Tb11 O49 2.393 . S
Tb11 O50 2.465 1_554 S
Tb11 O51 2.387 . S
Tb11 O53 2.428 1_554 S
Tb11 O54 2.308 . S
Tb11 C75 2.802 1_554 S
N12 C8 1.361 . S
N12 Tb11 2.572 . S
N12 C14 1.340 . S
C13 C7 1.416 . S
C13 C15 1.332 . S
C13 H21 0.931 . S
C14 N12 1.340 . S
C14 C15 1.407 1_554 S
C14 H20 0.930 . S
C15 C13 1.332 . S
C15 C14 1.407 1_556 S
C15 H17 0.929 . S
H16 C5 0.930 . S
H17 C15 0.929 . S
H18 C33 0.930 . S
H19 C40 0.929 . S
H20 C14 0.930 . S
H21 C13 0.931 . S
H22 C36 0.930 . S
H23 C3 0.930 . S
H24 C9 0.929 . S
H25 C10 0.930 . S
H26 C31 0.930 . S
H27 C6 0.930 . S
H28 C39 0.931 . S
N29 Tb0 2.617 . S
N29 C30 1.379 . S
N29 C33 1.334 . S
C30 N29 1.379 . S
C30 C32 1.416 . S
C30 C38 1.424 . S
C31 H26 0.930 . S
C31 C33 1.390 . S
C31 C34 1.339 . S
C32 C30 1.416 . S
C32 C34 1.416 . S
C32 C65 1.448 . S
C33 H18 0.930 . S
C33 N29 1.334 . S
C33 C31 1.390 . S
C34 C31 1.339 . S
C34 C32 1.416 . S
C34 H41 0.930 . S
N35 Tb0 2.572 . S
N35 C36 1.340 . S
N35 C38 1.361 . S
C36 H22 0.930 . S
C36 N35 1.340 . S
C36 C40 1.407 . S
C37 C38 1.413 . S
C37 C39 1.416 . S
C37 C66 1.427 . S
C38 C30 1.424 . S
C38 N35 1.361 . S
C38 C37 1.413 . S
C39 H28 0.931 . S
C39 C37 1.416 . S
C39 C40 1.332 . S
C40 H19 0.929 . S
C40 C36 1.407 . S
C40 C39 1.332 . S
H41 C34 0.930 . S
H42 C65 0.930 . S
H43 C66 0.929 . S
O44 Tb0 2.465 . S
O44 C64 1.264 . S
O45 Tb0 2.387 . S
O45 C56 1.264 . S
O46 Tb11 2.349 . S
O46 C56 1.243 . S
O47 Tb0 2.428 . S
O47 C64 1.256 . S
O48 Tb0 2.308 . S
O48 C63 1.266 . S
O49 Tb11 2.393 . S
O49 C63 1.248 . S
O50 Tb11 2.465 1_556 S
O50 C75 1.264 . S
O51 Tb11 2.387 . S
O51 C67 1.264 . S
O52 Tb0 2.349 . S
O52 C67 1.243 . S
O53 Tb11 2.428 1_556 S
O53 C75 1.256 . S
O54 Tb11 2.308 . S
O54 C74 1.266 . S
O55 Tb0 2.393 . S
O55 C74 1.248 . S
C56 O45 1.264 . S
C56 O46 1.243 . S
C57 C60 1.399 . S
C57 C62 1.383 . S
C57 C64 1.496 . S
C58 C59 1.399 . S
C58 C62 1.389 . S
C59 C58 1.399 . S
C59 C61 1.380 . S
C59 H76 0.929 . S
C60 C57 1.399 . S
C60 C61 1.392 . S
C60 H77 0.929 . S
C61 C59 1.380 . S
C61 C60 1.392 . S
C61 H78 0.929 . S
C62 C57 1.383 . S
C62 C58 1.389 . S
C62 H79 0.931 . S
C63 O48 1.266 . S
C63 O49 1.248 . S
C64 Tb0 2.802 . S
C64 O44 1.264 . S
C64 O47 1.256 . S
C64 C57 1.496 . S
C65 C32 1.448 . S
C65 H42 0.930 . S
C65 C66 1.328 . S
C66 C37 1.427 . S
C66 H43 0.929 . S
C66 C65 1.328 . S
C67 O51 1.264 . S
C67 O52 1.243 . S
C68 C71 1.399 . S
C68 C72 1.383 . S
C68 C75 1.496 . S
C69 C70 1.399 . S
C69 C72 1.389 . S
C70 C69 1.399 . S
C70 C73 1.380 . S
C70 H80 0.929 . S
C71 C68 1.399 . S
C71 C73 1.392 . S
C71 H81 0.929 . S
C72 C68 1.383 . S
C72 C69 1.389 . S
C72 H82 0.931 . S
C73 C70 1.380 . S
C73 C71 1.392 . S
C73 H83 0.929 . S
C74 O54 1.266 . S
C74 O55 1.248 . S
C75 Tb11 2.802 1_556 S
C75 O50 1.264 . S
C75 O53 1.256 . S
C75 C68 1.496 . S
H76 C59 0.929 . S
H77 C60 0.929 . S
H78 C61 0.929 . S
H79 C62 0.931 . S
H80 C70 0.929 . S
H81 C71 0.929 . S
H82 C72 0.931 . S
H83 C73 0.929 . S
Tb84 N113 2.617 . S
Tb84 N119 2.572 . S
Tb84 O128 2.465 . S
Tb84 O129 2.387 . S
Tb84 O131 2.428 . S
Tb84 O132 2.308 . S
Tb84 O136 2.349 . S
Tb84 O139 2.393 . S
Tb84 C148 2.802 . S
C85 N86 1.379 . S
C85 C88 1.416 . S
C85 C92 1.424 . S
N86 C85 1.379 . S
N86 C89 1.334 . S
N86 Tb95 2.617 . S
C87 C89 1.390 . S
C87 C90 1.339 . S
C87 H107 0.930 . S
C88 C85 1.416 . S
C88 C90 1.416 . S
C88 C94 1.448 . S
C89 N86 1.334 . S
C89 C87 1.390 . S
C89 H100 0.930 . S
C90 C87 1.339 . S
C90 C88 1.416 . S
C90 H111 0.930 . S
C91 C92 1.413 . S
C91 C93 1.427 . S
C91 C97 1.416 . S
C92 C85 1.424 . S
C92 C91 1.413 . S
C92 N96 1.361 . S
C93 C91 1.427 . S
C93 C94 1.328 . S
C93 H108 0.929 . S
C94 C88 1.448 . S
C94 C93 1.328 . S
C94 H109 0.930 . S
Tb95 N86 2.617 . S
Tb95 N96 2.572 . S
Tb95 O130 2.349 . S
Tb95 O133 2.393 . S
Tb95 O134 2.465 . S
Tb95 O135 2.387 . S
Tb95 O137 2.428 . S
Tb95 O138 2.308 . S
Tb95 C159 2.802 . S
N96 C92 1.361 . S
N96 Tb95 2.572 . S
N96 C98 1.340 . S
C97 C91 1.416 . S
C97 C99 1.332 . S
C97 H105 0.931 . S
C98 N96 1.340 . S
C98 C99 1.407 . S
C98 H104 0.930 . S
C99 C97 1.332 . S
C99 C98 1.407 . S
C99 H101 0.929 . S
H100 C89 0.930 . S
H101 C99 0.929 . S
H102 C117 0.930 . S
H103 C124 0.929 . S
H104 C98 0.930 . S
H105 C97 0.931 . S
H106 C120 0.930 . S
H107 C87 0.930 . S
H108 C93 0.929 . S
H109 C94 0.930 . S
H110 C115 0.930 . S
H111 C90 0.930 . S
H112 C123 0.931 . S
N113 Tb84 2.617 . S
N113 C114 1.379 . S
N113 C117 1.334 . S
C114 N113 1.379 . S
C114 C116 1.416 . S
C114 C122 1.424 . S
C115 H110 0.930 . S
C115 C117 1.390 . S
C115 C118 1.339 . S
C116 C114 1.416 . S
C116 C118 1.416 . S
C116 C149 1.448 . S
C117 H102 0.930 . S
C117 N113 1.334 . S
C117 C115 1.390 . S
C118 C115 1.339 . S
C118 C116 1.416 . S
C118 H125 0.930 . S
N119 Tb84 2.572 . S
N119 C120 1.340 . S
N119 C122 1.361 . S
C120 H106 0.930 . S
C120 N119 1.340 . S
C120 C124 1.407 . S
C121 C122 1.413 . S
C121 C123 1.416 . S
C121 C150 1.427 . S
C122 C114 1.424 . S
C122 N119 1.361 . S
C122 C121 1.413 . S
C123 H112 0.931 . S
C123 C121 1.416 . S
C123 C124 1.332 . S
C124 H103 0.929 . S
C124 C120 1.407 . S
C124 C123 1.332 . S
H125 C118 0.930 . S
H126 C149 0.930 . S
H127 C150 0.929 . S
O128 Tb84 2.465 . S
O128 C148 1.264 . S
O129 Tb84 2.387 . S
O129 C140 1.264 . S
O130 Tb95 2.349 . S
O130 C140 1.243 . S
O131 Tb84 2.428 . S
O131 C148 1.256 . S
O132 Tb84 2.308 . S
O132 C147 1.266 . S
O133 Tb95 2.393 . S
O133 C147 1.248 . S
O134 Tb95 2.465 . S
O134 C159 1.264 . S
O135 Tb95 2.387 . S
O135 C151 1.264 . S
O136 Tb84 2.349 . S
O136 C151 1.243 . S
O137 Tb95 2.428 . S
O137 C159 1.256 . S
O138 Tb95 2.308 . S
O138 C158 1.266 . S
O139 Tb84 2.393 . S
O139 C158 1.248 . S
C140 O129 1.264 . S
C140 O130 1.243 . S
C141 C144 1.399 . S
C141 C146 1.383 . S
C141 C148 1.496 . S
C142 C143 1.399 . S
C142 C146 1.389 . S
C143 C142 1.399 . S
C143 C145 1.380 . S
C143 H160 0.946 . S
C144 C141 1.399 . S
C144 C145 1.392 . S
C144 H161 0.929 . S
C145 C143 1.380 . S
C145 C144 1.392 . S
C145 H162 0.929 . S
C146 C141 1.383 . S
C146 C142 1.389 . S
C146 H163 0.931 . S
C147 O132 1.266 . S
C147 O133 1.248 . S
C148 Tb84 2.802 . S
C148 O128 1.264 . S
C148 O131 1.256 . S
C148 C141 1.496 . S
C149 C116 1.448 . S
C149 H126 0.930 . S
C149 C150 1.328 . S
C150 C121 1.427 . S
C150 H127 0.929 . S
C150 C149 1.328 . S
C151 O135 1.264 . S
C151 O136 1.243 . S
C152 C155 1.399 . S
C152 C156 1.383 . S
C152 C159 1.496 . S
C153 C154 1.399 . S
C153 C156 1.389 . S
C154 C153 1.399 . S
C154 C157 1.380 . S
C154 H164 0.929 . S
C155 C152 1.399 . S
C155 C157 1.392 . S
C155 H165 0.929 . S
C156 C152 1.383 . S
C156 C153 1.389 . S
C156 H166 0.931 . S
C157 C154 1.380 . S
C157 C155 1.392 . S
C157 H167 0.929 . S
C158 O138 1.266 . S
C158 O139 1.248 . S
C159 Tb95 2.802 . S
C159 O134 1.264 . S
C159 O137 1.256 . S
C159 C152 1.496 . S
H160 C143 0.946 . S
H161 C144 0.929 . S
H162 C145 0.929 . S
H163 C146 0.931 . S
H164 C154 0.929 . S
H165 C155 0.929 . S
H166 C156 0.931 . S
H167 C157 0.929 . S
Tb168 N197 2.617 . S
Tb168 N203 2.572 . S
Tb168 O212 2.465 . S
Tb168 O213 2.387 . S
Tb168 O215 2.428 . S
Tb168 O216 2.308 . S
Tb168 O220 2.349 . S
Tb168 O223 2.393 . S
Tb168 C232 2.802 . S
C169 N170 1.379 . S
C169 C172 1.416 . S
C169 C176 1.424 . S
N170 C169 1.379 . S
N170 C173 1.334 . S
N170 Tb179 2.617 . S
C171 C173 1.390 . S
C171 C174 1.339 . S
C171 H191 0.930 . S
C172 C169 1.416 . S
C172 C174 1.416 . S
C172 C178 1.448 . S
C173 N170 1.334 . S
C173 C171 1.390 . S
C173 H184 0.930 . S
C174 C171 1.339 . S
C174 C172 1.416 . S
C174 H195 0.930 . S
C175 C176 1.413 . S
C175 C177 1.427 . S
C175 C181 1.416 . S
C176 C169 1.424 . S
C176 C175 1.413 . S
C176 N180 1.361 . S
C177 C175 1.427 . S
C177 C178 1.328 . S
C177 H192 0.929 . S
C178 C172 1.448 . S
C178 C177 1.328 . S
C178 H193 0.930 . S
Tb179 N170 2.617 . S
Tb179 N180 2.572 . S
Tb179 O214 2.349 . S
Tb179 O217 2.393 . S
Tb179 O218 2.465 . S
Tb179 O219 2.387 . S
Tb179 O221 2.428 . S
Tb179 O222 2.308 . S
Tb179 C243 2.802 . S
N180 C176 1.361 . S
N180 Tb179 2.572 . S
N180 C182 1.340 . S
C181 C175 1.416 . S
C181 C183 1.332 . S
C181 H189 0.931 . S
C182 N180 1.340 . S
C182 C183 1.407 . S
C182 H188 0.930 . S
C183 C181 1.332 . S
C183 C182 1.407 . S
C183 H185 0.929 . S
H184 C173 0.930 . S
H185 C183 0.929 . S
H186 C201 0.930 . S
H187 C208 0.929 . S
H188 C182 0.930 . S
H189 C181 0.931 . S
H190 C204 0.930 . S
H191 C171 0.930 . S
H192 C177 0.929 . S
H193 C178 0.930 . S
H194 C199 0.930 . S
H195 C174 0.930 . S
H196 C207 0.931 . S
N197 Tb168 2.617 . S
N197 C198 1.379 . S
N197 C201 1.334 . S
C198 N197 1.379 . S
C198 C200 1.416 . S
C198 C206 1.424 . S
C199 H194 0.930 . S
C199 C201 1.390 . S
C199 C202 1.339 . S
C200 C198 1.416 . S
C200 C202 1.416 . S
C200 C233 1.448 . S
C201 H186 0.930 . S
C201 N197 1.334 . S
C201 C199 1.390 . S
C202 C199 1.339 . S
C202 C200 1.416 . S
C202 H209 0.930 . S
N203 Tb168 2.572 . S
N203 C204 1.340 . S
N203 C206 1.361 . S
C204 H190 0.930 . S
C204 N203 1.340 . S
C204 C208 1.407 . S
C205 C206 1.413 . S
C205 C207 1.416 . S
C205 C234 1.427 . S
C206 C198 1.424 . S
C206 N203 1.361 . S
C206 C205 1.413 . S
C207 H196 0.931 . S
C207 C205 1.416 . S
C207 C208 1.332 . S
C208 H187 0.929 . S
C208 C204 1.407 . S
C208 C207 1.332 . S
H209 C202 0.930 . S
H210 C233 0.930 . S
H211 C234 0.929 . S
O212 Tb168 2.465 . S
O212 C232 1.264 . S
O213 Tb168 2.387 . S
O213 C224 1.264 . S
O214 Tb179 2.349 . S
O214 C224 1.243 . S
O215 Tb168 2.428 . S
O215 C232 1.256 . S
O216 Tb168 2.308 . S
O216 C231 1.266 . S
O217 Tb179 2.393 . S
O217 C231 1.248 . S
O218 Tb179 2.465 . S
O218 C243 1.264 . S
O219 Tb179 2.387 . S
O219 C235 1.264 . S
O220 Tb168 2.349 . S
O220 C235 1.243 . S
O221 Tb179 2.428 . S
O221 C243 1.256 . S
O222 Tb179 2.308 . S
O222 C242 1.266 . S
O223 Tb168 2.393 . S
O223 C242 1.248 . S
C224 O213 1.264 . S
C224 O214 1.243 . S
C225 C228 1.399 . S
C225 C230 1.383 . S
C225 C232 1.496 . S
C226 C227 1.399 . S
C226 C230 1.389 . S
C227 C226 1.399 . S
C227 C229 1.380 . S
C227 H244 0.929 . S
C228 C225 1.399 . S
C228 C229 1.392 . S
C228 H245 0.929 . S
C229 C227 1.380 . S
C229 C228 1.392 . S
C229 H246 0.929 . S
C230 C225 1.383 . S
C230 C226 1.389 . S
C230 H247 0.931 . S
C231 O216 1.266 . S
C231 O217 1.248 . S
C232 Tb168 2.802 . S
C232 O212 1.264 . S
C232 O215 1.256 . S
C232 C225 1.496 . S
C233 C200 1.448 . S
C233 H210 0.930 . S
C233 C234 1.328 . S
C234 C205 1.427 . S
C234 H211 0.929 . S
C234 C233 1.328 . S
C235 O219 1.264 . S
C235 O220 1.243 . S
C236 C239 1.399 . S
C236 C240 1.383 . S
C236 C243 1.496 . S
C237 C238 1.399 . S
C237 C240 1.389 . S
C238 C237 1.399 . S
C238 C241 1.380 . S
C238 H248 0.929 1_556 S
C239 C236 1.399 . S
C239 C241 1.392 . S
C239 H249 0.929 . S
C240 C236 1.383 . S
C240 C237 1.389 . S
C240 H250 0.931 . S
C241 C238 1.380 . S
C241 C239 1.392 . S
C241 H251 0.929 . S
C242 O222 1.266 . S
C242 O223 1.248 . S
C243 Tb179 2.802 . S
C243 O218 1.264 . S
C243 O221 1.256 . S
C243 C236 1.496 . S
H244 C227 0.929 . S
H245 C228 0.929 . S
H246 C229 0.929 . S
H247 C230 0.931 . S
H248 C238 0.929 1_554 S
H249 C239 0.929 . S
H250 C240 0.931 . S
H251 C241 0.929 . S
Tb252 N281 2.617 . S
Tb252 N287 2.572 . S
Tb252 O296 2.465 1_556 S
Tb252 O297 2.387 . S
Tb252 O299 2.428 1_556 S
Tb252 O300 2.308 . S
Tb252 O304 2.349 . S
Tb252 O307 2.393 . S
Tb252 C316 2.802 1_556 S
C253 N254 1.379 . S
C253 C256 1.416 . S
C253 C260 1.424 . S
N254 C253 1.379 . S
N254 C257 1.334 . S
N254 Tb263 2.617 . S
C255 C257 1.390 . S
C255 C258 1.339 . S
C255 H275 0.930 . S
C256 C253 1.416 . S
C256 C258 1.416 . S
C256 C262 1.448 . S
C257 N254 1.334 . S
C257 C255 1.390 . S
C257 H268 0.930 . S
C258 C255 1.339 . S
C258 C256 1.416 . S
C258 H279 0.930 . S
C259 C260 1.413 . S
C259 C261 1.427 . S
C259 C265 1.416 . S
C260 C253 1.424 . S
C260 C259 1.413 . S
C260 N264 1.361 . S
C261 C259 1.427 . S
C261 C262 1.328 . S
C261 H276 0.929 1_545 S
C262 C256 1.448 . S
C262 C261 1.328 . S
C262 H277 0.930 . S
Tb263 N254 2.617 . S
Tb263 N264 2.572 . S
Tb263 O298 2.349 . S
Tb263 O301 2.393 . S
Tb263 O302 2.465 . S
Tb263 O303 2.387 . S
Tb263 O305 2.428 . S
Tb263 O306 2.308 . S
Tb263 C327 2.802 . S
N264 C260 1.361 . S
N264 Tb263 2.572 . S
N264 C266 1.340 . S
C265 C259 1.416 . S
C265 C267 1.332 . S
C265 H273 0.931 . S
C266 N264 1.340 . S
C266 C267 1.407 . S
C266 H272 0.930 . S
C267 C265 1.332 . S
C267 C266 1.407 . S
C267 H269 0.929 . S
H268 C257 0.930 . S
H269 C267 0.929 . S
H270 C285 0.930 . S
H271 C292 0.929 . S
H272 C266 0.930 . S
H273 C265 0.931 . S
H274 C288 0.930 . S
H275 C255 0.930 . S
H276 C261 0.929 1_565 S
H277 C262 0.930 . S
H278 C283 0.930 . S
H279 C258 0.930 . S
H280 C291 0.931 . S
N281 Tb252 2.617 . S
N281 C282 1.379 . S
N281 C285 1.334 . S
C282 N281 1.379 . S
C282 C284 1.416 . S
C282 C290 1.424 . S
C283 H278 0.930 . S
C283 C285 1.390 . S
C283 C286 1.339 . S
C284 C282 1.416 . S
C284 C286 1.416 . S
C284 C317 1.448 1_556 S
C285 H270 0.930 . S
C285 N281 1.334 . S
C285 C283 1.390 . S
C286 C283 1.339 . S
C286 C284 1.416 . S
C286 H293 0.930 . S
N287 Tb252 2.572 . S
N287 C288 1.340 . S
N287 C290 1.361 . S
C288 H274 0.930 . S
C288 N287 1.340 . S
C288 C292 1.407 1_556 S
C289 C290 1.413 1_554 S
C289 C291 1.416 . S
C289 C318 1.427 . S
C290 C282 1.424 . S
C290 N287 1.361 . S
C290 C289 1.413 1_556 S
C291 H280 0.931 . S
C291 C289 1.416 . S
C291 C292 1.332 . S
C292 H271 0.929 . S
C292 C288 1.407 1_554 S
C292 C291 1.332 . S
H293 C286 0.930 . S
H294 C317 0.930 . S
H295 C318 0.929 . S
O296 Tb252 2.465 1_554 S
O296 C316 1.264 . S
O297 Tb252 2.387 . S
O297 C308 1.264 . S
O298 Tb263 2.349 . S
O298 C308 1.243 . S
O299 Tb252 2.428 1_554 S
O299 C316 1.256 . S
O300 Tb252 2.308 . S
O300 C315 1.266 . S
O301 Tb263 2.393 . S
O301 C315 1.248 . S
O302 Tb263 2.465 . S
O302 C327 1.264 . S
O303 Tb263 2.387 . S
O303 C319 1.264 . S
O304 Tb252 2.349 . S
O304 C319 1.243 . S
O305 Tb263 2.428 . S
O305 C327 1.256 . S
O306 Tb263 2.308 . S
O306 C326 1.266 . S
O307 Tb252 2.393 . S
O307 C326 1.248 . S
C308 O297 1.264 . S
C308 O298 1.243 . S
C309 C312 1.399 . S
C309 C314 1.383 . S
C309 C316 1.496 . S
C310 C311 1.399 . S
C310 C314 1.389 . S
C311 C310 1.399 . S
C311 C313 1.380 . S
C311 H328 0.929 . S
C312 C309 1.399 . S
C312 C313 1.392 . S
C312 H329 0.929 . S
C313 C311 1.380 . S
C313 C312 1.392 . S
C313 H330 0.929 . S
C314 C309 1.383 . S
C314 C310 1.389 . S
C314 H331 0.931 . S
C315 O300 1.266 . S
C315 O301 1.248 . S
C316 Tb252 2.802 1_554 S
C316 O296 1.264 . S
C316 O299 1.256 . S
C316 C309 1.496 . S
C317 C284 1.448 1_554 S
C317 H294 0.930 . S
C317 C318 1.328 . S
C318 C289 1.427 . S
C318 H295 0.929 . S
C318 C317 1.328 . S
C319 O303 1.264 . S
C319 O304 1.243 . S
C320 C323 1.399 . S
C320 C324 1.383 . S
C320 C327 1.496 . S
C321 C322 1.399 . S
C321 C324 1.389 . S
C322 C321 1.399 . S
C322 C325 1.380 . S
C322 H332 0.929 . S
C323 C320 1.399 . S
C323 C325 1.392 . S
C323 H333 0.929 . S
C324 C320 1.383 . S
C324 C321 1.389 . S
C324 H334 0.931 . S
C325 C322 1.380 . S
C325 C323 1.392 . S
C325 H335 0.929 . S
C326 O306 1.266 . S
C326 O307 1.248 . S
C327 Tb263 2.802 . S
C327 O302 1.264 . S
C327 O305 1.256 . S
C327 C320 1.496 . S
H328 C311 0.929 . S
H329 C312 0.929 . S
H330 C313 0.929 . S
H331 C314 0.931 . S
H332 C322 0.929 . S
H333 C323 0.929 . S
H334 C324 0.931 . S
H335 C325 0.929 . S
Tb336 N365 2.617 . S
Tb336 N371 2.572 . S
Tb336 O380 2.465 . S
Tb336 O381 2.387 . S
Tb336 O383 2.428 . S
Tb336 O384 2.308 . S
Tb336 O388 2.349 . S
Tb336 O391 2.393 . S
Tb336 C400 2.802 . S
C337 N338 1.379 . S
C337 C340 1.416 . S
C337 C344 1.424 . S
N338 C337 1.379 . S
N338 C341 1.334 . S
N338 Tb347 2.617 . S
C339 C341 1.390 . S
C339 C342 1.339 . S
C339 H359 0.930 . S
C340 C337 1.416 . S
C340 C342 1.416 . S
C340 C346 1.448 1_556 S
C341 N338 1.334 . S
C341 C339 1.390 . S
C341 H352 0.930 . S
C342 C339 1.339 . S
C342 C340 1.416 . S
C342 H363 0.930 . S
C343 C344 1.413 1_554 S
C343 C345 1.427 . S
C343 C349 1.416 . S
C344 C337 1.424 . S
C344 C343 1.413 1_556 S
C344 N348 1.361 . S
C345 C343 1.427 . S
C345 C346 1.328 . S
C345 H360 0.929 . S
C346 C340 1.448 1_554 S
C346 C345 1.328 . S
C346 H361 0.930 . S
Tb347 N338 2.617 . S
Tb347 N348 2.572 . S
Tb347 O382 2.349 . S
Tb347 O385 2.393 . S
Tb347 O386 2.465 1_556 S
Tb347 O387 2.387 . S
Tb347 O389 2.428 1_556 S
Tb347 O390 2.308 . S
Tb347 C411 2.802 1_556 S
N348 C344 1.361 . S
N348 Tb347 2.572 . S
N348 C350 1.340 . S
C349 C343 1.416 . S
C349 C351 1.332 . S
C349 H357 0.931 . S
C350 N348 1.340 . S
C350 C351 1.407 1_556 S
C350 H356 0.930 . S
C351 C349 1.332 . S
C351 C350 1.407 1_554 S
C351 H353 0.929 . S
H352 C341 0.930 . S
H353 C351 0.929 . S
H354 C369 0.930 . S
H355 C376 0.929 . S
H356 C350 0.930 . S
H357 C349 0.931 . S
H358 C372 0.930 . S
H359 C339 0.930 . S
H360 C345 0.929 . S
H361 C346 0.930 . S
H362 C367 0.930 . S
H363 C342 0.930 . S
H364 C375 0.931 . S
N365 Tb336 2.617 . S
N365 C366 1.379 . S
N365 C369 1.334 . S
C366 N365 1.379 . S
C366 C368 1.416 . S
C366 C374 1.424 . S
C367 H362 0.930 . S
C367 C369 1.390 . S
C367 C370 1.339 . S
C368 C366 1.416 . S
C368 C370 1.416 . S
C368 C401 1.448 . S
C369 H354 0.930 . S
C369 N365 1.334 . S
C369 C367 1.390 . S
C370 C367 1.339 . S
C370 C368 1.416 . S
C370 H377 0.930 . S
N371 Tb336 2.572 . S
N371 C372 1.340 . S
N371 C374 1.361 . S
C372 H358 0.930 . S
C372 N371 1.340 . S
C372 C376 1.407 . S
C373 C374 1.413 . S
C373 C375 1.416 . S
C373 C402 1.427 . S
C374 C366 1.424 . S
C374 N371 1.361 . S
C374 C373 1.413 . S
C375 H364 0.931 . S
C375 C373 1.416 . S
C375 C376 1.332 . S
C376 H355 0.929 . S
C376 C372 1.407 . S
C376 C375 1.332 . S
H377 C370 0.930 . S
H378 C401 0.930 . S
H379 C402 0.929 . S
O380 Tb336 2.465 . S
O380 C400 1.264 . S
O381 Tb336 2.387 . S
O381 C392 1.264 . S
O382 Tb347 2.349 . S
O382 C392 1.243 . S
O383 Tb336 2.428 . S
O383 C400 1.256 . S
O384 Tb336 2.308 . S
O384 C399 1.266 . S
O385 Tb347 2.393 . S
O385 C399 1.248 . S
O386 Tb347 2.465 1_554 S
O386 C411 1.264 . S
O387 Tb347 2.387 . S
O387 C403 1.264 . S
O388 Tb336 2.349 . S
O388 C403 1.243 . S
O389 Tb347 2.428 1_554 S
O389 C411 1.256 . S
O390 Tb347 2.308 . S
O390 C410 1.266 . S
O391 Tb336 2.393 . S
O391 C410 1.248 . S
C392 O381 1.264 . S
C392 O382 1.243 . S
C393 C396 1.399 . S
C393 C398 1.383 . S
C393 C400 1.496 . S
C394 C395 1.399 . S
C394 C398 1.389 . S
C395 C394 1.399 . S
C395 C397 1.380 . S
C395 H412 0.929 . S
C396 C393 1.399 . S
C396 C397 1.392 . S
C396 H413 0.929 . S
C397 C395 1.380 . S
C397 C396 1.392 . S
C397 H414 0.929 . S
C398 C393 1.383 . S
C398 C394 1.389 . S
C398 H415 0.931 . S
C399 O384 1.266 . S
C399 O385 1.248 . S
C400 Tb336 2.802 . S
C400 O380 1.264 . S
C400 O383 1.256 . S
C400 C393 1.496 . S
C401 C368 1.448 . S
C401 H378 0.930 . S
C401 C402 1.328 . S
C402 C373 1.427 . S
C402 H379 0.929 . S
C402 C401 1.328 . S
C403 O387 1.264 . S
C403 O388 1.243 . S
C404 C407 1.399 . S
C404 C408 1.383 . S
C404 C411 1.496 . S
C405 C406 1.399 . S
C405 C408 1.389 . S
C406 C405 1.399 . S
C406 C409 1.380 . S
C406 H416 0.929 . S
C407 C404 1.399 . S
C407 C409 1.392 . S
C407 H417 0.929 . S
C408 C404 1.383 . S
C408 C405 1.389 . S
C408 H418 0.931 . S
C409 C406 1.380 . S
C409 C407 1.392 . S
C409 H419 0.929 . S
C410 O390 1.266 . S
C410 O391 1.248 . S
C411 Tb347 2.802 1_554 S
C411 O386 1.264 . S
C411 O389 1.256 . S
C411 C404 1.496 . S
H412 C395 0.929 . S
H413 C396 0.929 . S
H414 C397 0.929 . S
H415 C398 0.931 . S
H416 C406 0.929 . S
H417 C407 0.929 . S
H418 C408 0.931 . S
H419 C409 0.929 . S
Tb420 N449 2.617 . S
Tb420 N455 2.572 . S
Tb420 O464 2.465 . S
Tb420 O465 2.387 . S
Tb420 O467 2.428 . S
Tb420 O468 2.308 . S
Tb420 O472 2.349 . S
Tb420 O475 2.393 . S
Tb420 C484 2.802 . S
C421 N422 1.379 . S
C421 C424 1.416 . S
C421 C428 1.424 . S
N422 C421 1.379 . S
N422 C425 1.334 . S
N422 Tb431 2.617 . S
C423 C425 1.390 . S
C423 C426 1.339 . S
C423 H443 0.930 . S
C424 C421 1.416 . S
C424 C426 1.416 . S
C424 C430 1.448 1_554 S
C425 N422 1.334 . S
C425 C423 1.390 . S
C425 H436 0.930 . S
C426 C423 1.339 . S
C426 C424 1.416 . S
C426 H447 0.930 . S
C427 C428 1.413 1_556 S
C427 C429 1.427 . S
C427 C433 1.416 . S
C428 C421 1.424 . S
C428 C427 1.413 1_554 S
C428 N432 1.361 . S
C429 C427 1.427 . S
C429 C430 1.328 . S
C429 H444 0.929 . S
C430 C424 1.448 1_556 S
C430 C429 1.328 . S
C430 H445 0.930 . S
Tb431 N422 2.617 . S
Tb431 N432 2.572 . S
Tb431 O466 2.349 . S
Tb431 O469 2.393 . S
Tb431 O470 2.465 1_554 S
Tb431 O471 2.387 . S
Tb431 O473 2.428 1_554 S
Tb431 O474 2.308 . S
Tb431 C495 2.802 1_554 S
N432 C428 1.361 . S
N432 Tb431 2.572 . S
N432 C434 1.343 . S
C433 C427 1.416 . S
C433 C435 1.332 . S
C433 H441 0.931 . S
C434 N432 1.343 . S
C434 C435 1.403 1_554 S
C434 H440 0.932 . S
C435 C433 1.332 . S
C435 C434 1.403 1_556 S
C435 H437 0.929 . S
H436 C425 0.930 . S
H437 C435 0.929 . S
H438 C453 0.930 . S
H439 C460 0.929 . S
H440 C434 0.932 . S
H441 C433 0.931 . S
H442 C456 0.930 . S
H443 C423 0.930 . S
H444 C429 0.929 . S
H445 C430 0.930 . S
H446 C451 0.930 . S
H447 C426 0.930 . S
H448 C459 0.931 . S
N449 Tb420 2.617 . S
N449 C450 1.379 . S
N449 C453 1.334 . S
C450 N449 1.379 . S
C450 C452 1.416 . S
C450 C458 1.424 . S
C451 H446 0.930 . S
C451 C453 1.390 . S
C451 C454 1.339 . S
C452 C450 1.416 . S
C452 C454 1.416 . S
C452 C485 1.448 . S
C453 H438 0.930 . S
C453 N449 1.334 . S
C453 C451 1.390 . S
C454 C451 1.339 . S
C454 C452 1.416 . S
C454 H461 0.930 . S
N455 Tb420 2.572 . S
N455 C456 1.340 . S
N455 C458 1.361 . S
C456 H442 0.930 . S
C456 N455 1.340 . S
C456 C460 1.407 . S
C457 C458 1.413 . S
C457 C459 1.416 . S
C457 C486 1.427 . S
C458 C450 1.424 . S
C458 N455 1.361 . S
C458 C457 1.413 . S
C459 H448 0.931 . S
C459 C457 1.416 . S
C459 C460 1.332 . S
C460 H439 0.929 . S
C460 C456 1.407 . S
C460 C459 1.332 . S
H461 C454 0.930 . S
H462 C485 0.930 . S
H463 C486 0.929 . S
O464 Tb420 2.465 . S
O464 C484 1.264 . S
O465 Tb420 2.387 . S
O465 C476 1.264 . S
O466 Tb431 2.349 . S
O466 C476 1.243 . S
O467 Tb420 2.428 . S
O467 C484 1.256 . S
O468 Tb420 2.308 . S
O468 C483 1.266 . S
O469 Tb431 2.393 . S
O469 C483 1.248 . S
O470 Tb431 2.465 1_556 S
O470 C495 1.264 . S
O471 Tb431 2.387 . S
O471 C487 1.264 . S
O472 Tb420 2.349 . S
O472 C487 1.243 . S
O473 Tb431 2.428 1_556 S
O473 C495 1.256 . S
O474 Tb431 2.308 . S
O474 C494 1.266 . S
O475 Tb420 2.393 . S
O475 C494 1.248 . S
C476 O465 1.264 . S
C476 O466 1.243 . S
C477 C480 1.399 . S
C477 C482 1.383 . S
C477 C484 1.496 . S
C478 C479 1.399 . S
C478 C482 1.389 . S
C479 C478 1.399 . S
C479 C481 1.380 . S
C479 H496 0.929 . S
C480 C477 1.399 . S
C480 C481 1.392 . S
C480 H497 0.929 . S
C481 C479 1.380 . S
C481 C480 1.392 . S
C481 H498 0.929 . S
C482 C477 1.383 . S
C482 C478 1.389 . S
C482 H499 0.931 . S
C483 O468 1.266 . S
C483 O469 1.248 . S
C484 Tb420 2.802 . S
C484 O464 1.264 . S
C484 O467 1.256 . S
C484 C477 1.496 . S
C485 C452 1.448 . S
C485 H462 0.930 . S
C485 C486 1.328 . S
C486 C457 1.427 . S
C486 H463 0.929 . S
C486 C485 1.328 . S
C487 O471 1.264 . S
C487 O472 1.243 . S
C488 C491 1.399 . S
C488 C492 1.383 . S
C488 C495 1.496 . S
C489 C490 1.399 . S
C489 C492 1.389 . S
C490 C489 1.399 . S
C490 C493 1.380 . S
C490 H500 0.929 . S
C491 C488 1.399 . S
C491 C493 1.392 . S
C491 H501 0.929 . S
C492 C488 1.383 . S
C492 C489 1.389 . S
C492 H502 0.931 . S
C493 C490 1.380 . S
C493 C491 1.392 . S
C493 H503 0.929 . S
C494 O474 1.266 . S
C494 O475 1.248 . S
C495 Tb431 2.802 1_556 S
C495 O470 1.264 . S
C495 O473 1.256 . S
C495 C488 1.496 . S
H496 C479 0.929 . S
H497 C480 0.929 . S
H498 C481 0.929 . S
H499 C482 0.931 . S
H500 C490 0.929 . S
H501 C491 0.929 . S
H502 C492 0.931 . S
H503 C493 0.929 . S
Tb504 N533 2.617 . S
Tb504 N539 2.572 . S
Tb504 O548 2.465 . S
Tb504 O549 2.387 . S
Tb504 O551 2.428 . S
Tb504 O552 2.308 . S
Tb504 O556 2.349 . S
Tb504 O559 2.393 . S
Tb504 C568 2.802 . S
C505 N506 1.379 . S
C505 C508 1.416 . S
C505 C512 1.424 . S
N506 C505 1.379 . S
N506 C509 1.334 . S
N506 Tb515 2.617 . S
C507 C509 1.390 . S
C507 C510 1.339 . S
C507 H527 0.930 . S
C508 C505 1.416 . S
C508 C510 1.416 . S
C508 C514 1.448 . S
C509 N506 1.334 . S
C509 C507 1.390 . S
C509 H520 0.930 . S
C510 C507 1.339 . S
C510 C508 1.416 . S
C510 H531 0.930 . S
C511 C512 1.413 . S
C511 C513 1.427 . S
C511 C517 1.416 . S
C512 C505 1.424 . S
C512 C511 1.413 . S
C512 N516 1.361 . S
C513 C511 1.427 . S
C513 C514 1.328 . S
C513 H528 0.929 . S
C514 C508 1.448 . S
C514 C513 1.328 . S
C514 H529 0.930 . S
Tb515 N506 2.617 . S
Tb515 N516 2.572 . S
Tb515 O550 2.349 . S
Tb515 O553 2.393 . S
Tb515 O554 2.465 . S
Tb515 O555 2.387 . S
Tb515 O557 2.428 . S
Tb515 O558 2.308 . S
Tb515 C579 2.802 . S
N516 C512 1.361 . S
N516 Tb515 2.572 . S
N516 C518 1.340 . S
C517 C511 1.416 . S
C517 C519 1.332 . S
C517 H525 0.931 . S
C518 N516 1.340 . S
C518 C519 1.407 . S
C518 H524 0.930 . S
C519 C517 1.332 . S
C519 C518 1.407 . S
C519 H521 0.929 . S
H520 C509 0.930 . S
H521 C519 0.929 . S
H522 C537 0.930 . S
H523 C544 0.929 . S
H524 C518 0.930 . S
H525 C517 0.931 . S
H526 C540 0.930 . S
H527 C507 0.930 . S
H528 C513 0.929 . S
H529 C514 0.930 . S
H530 C535 0.930 . S
H531 C510 0.930 . S
H532 C543 0.931 . S
N533 Tb504 2.617 . S
N533 C534 1.379 . S
N533 C537 1.334 . S
C534 N533 1.379 . S
C534 C536 1.416 . S
C534 C542 1.424 . S
C535 H530 0.930 . S
C535 C537 1.390 . S
C535 C538 1.339 . S
C536 C534 1.416 . S
C536 C538 1.416 . S
C536 C569 1.448 . S
C537 H522 0.930 . S
C537 N533 1.334 . S
C537 C535 1.390 . S
C538 C535 1.339 . S
C538 C536 1.416 . S
C538 H545 0.930 . S
N539 Tb504 2.572 . S
N539 C540 1.340 . S
N539 C542 1.361 . S
C540 H526 0.930 . S
C540 N539 1.340 . S
C540 C544 1.407 . S
C541 C542 1.413 . S
C541 C543 1.416 . S
C541 C570 1.427 . S
C542 C534 1.424 . S
C542 N539 1.361 . S
C542 C541 1.413 . S
C543 H532 0.931 . S
C543 C541 1.416 . S
C543 C544 1.332 . S
C544 H523 0.929 . S
C544 C540 1.407 . S
C544 C543 1.332 . S
H545 C538 0.930 . S
H546 C569 0.930 . S
H547 C570 0.929 . S
O548 Tb504 2.465 . S
O548 C568 1.264 . S
O549 Tb504 2.387 . S
O549 C560 1.264 . S
O550 Tb515 2.349 . S
O550 C560 1.243 . S
O551 Tb504 2.428 . S
O551 C568 1.256 . S
O552 Tb504 2.308 . S
O552 C567 1.266 . S
O553 Tb515 2.393 . S
O553 C567 1.248 . S
O554 Tb515 2.465 . S
O554 C579 1.264 . S
O555 Tb515 2.387 . S
O555 C571 1.264 . S
O556 Tb504 2.349 . S
O556 C571 1.243 . S
O557 Tb515 2.428 . S
O557 C579 1.256 . S
O558 Tb515 2.308 . S
O558 C578 1.266 . S
O559 Tb504 2.393 . S
O559 C578 1.248 . S
C560 O549 1.264 . S
C560 O550 1.243 . S
C561 C564 1.399 . S
C561 C566 1.383 . S
C561 C568 1.496 . S
C562 C563 1.399 . S
C562 C566 1.389 . S
C563 C562 1.399 . S
C563 C565 1.380 . S
C563 H580 0.929 . S
C564 C561 1.399 . S
C564 C565 1.392 . S
C564 H581 0.929 . S
C565 C563 1.380 . S
C565 C564 1.392 . S
C565 H582 0.929 . S
C566 C561 1.383 . S
C566 C562 1.389 . S
C566 H583 0.931 . S
C567 O552 1.266 . S
C567 O553 1.248 . S
C568 Tb504 2.802 . S
C568 O548 1.264 . S
C568 O551 1.256 . S
C568 C561 1.496 . S
C569 C536 1.448 . S
C569 H546 0.930 . S
C569 C570 1.328 . S
C570 C541 1.427 . S
C570 H547 0.929 . S
C570 C569 1.328 . S
C571 O555 1.264 . S
C571 O556 1.243 . S
C572 C575 1.399 . S
C572 C576 1.383 . S
C572 C579 1.496 . S
C573 C574 1.399 . S
C573 C576 1.389 . S
C574 C573 1.399 . S
C574 C577 1.380 . S
C574 H584 0.925 1_554 S
C575 C572 1.399 . S
C575 C577 1.392 . S
C575 H585 0.929 . S
C576 C572 1.383 . S
C576 C573 1.389 . S
C576 H586 0.931 . S
C577 C574 1.380 . S
C577 C575 1.392 . S
C577 H587 0.929 . S
C578 O558 1.266 . S
C578 O559 1.248 . S
C579 Tb515 2.802 . S
C579 O554 1.264 . S
C579 O557 1.256 . S
C579 C572 1.496 . S
H580 C563 0.929 . S
H581 C564 0.929 . S
H582 C565 0.929 . S
H583 C566 0.931 . S
H584 C574 0.925 1_556 S
H585 C575 0.929 . S
H586 C576 0.931 . S
H587 C577 0.929 . S
Tb588 N617 2.617 . S
Tb588 N623 2.572 . S
Tb588 O632 2.465 . S
Tb588 O633 2.387 . S
Tb588 O635 2.428 . S
Tb588 O636 2.308 . S
Tb588 O640 2.349 . S
Tb588 O643 2.393 . S
Tb588 C652 2.802 . S
C589 N590 1.379 . S
C589 C592 1.416 . S
C589 C596 1.424 . S
N590 C589 1.379 . S
N590 C593 1.334 . S
N590 Tb599 2.617 . S
C591 C593 1.390 . S
C591 C594 1.339 . S
C591 H611 0.930 . S
C592 C589 1.416 . S
C592 C594 1.416 . S
C592 C598 1.448 . S
C593 N590 1.334 . S
C593 C591 1.390 . S
C593 H604 0.930 . S
C594 C591 1.339 . S
C594 C592 1.416 . S
C594 H615 0.930 . S
C595 C596 1.413 . S
C595 C597 1.427 . S
C595 C601 1.416 . S
C596 C589 1.424 . S
C596 C595 1.413 . S
C596 N600 1.361 . S
C597 C595 1.427 . S
C597 C598 1.328 . S
C597 H612 0.929 1_545 S
C598 C592 1.448 . S
C598 C597 1.328 . S
C598 H613 0.930 . S
Tb599 N590 2.617 . S
Tb599 N600 2.572 . S
Tb599 O634 2.349 . S
Tb599 O637 2.393 . S
Tb599 O638 2.465 . S
Tb599 O639 2.387 . S
Tb599 O641 2.428 . S
Tb599 O642 2.308 . S
Tb599 C663 2.802 . S
N600 C596 1.361 . S
N600 Tb599 2.572 . S
N600 C602 1.340 . S
C601 C595 1.416 . S
C601 C603 1.332 . S
C601 H609 0.931 . S
C602 N600 1.340 . S
C602 C603 1.407 . S
C602 H608 0.930 . S
C603 C601 1.332 . S
C603 C602 1.407 . S
C603 H605 0.929 . S
H604 C593 0.930 . S
H605 C603 0.929 . S
H606 C621 0.930 . S
H607 C628 0.929 . S
H608 C602 0.930 . S
H609 C601 0.931 . S
H610 C624 0.930 . S
H611 C591 0.930 . S
H612 C597 0.929 1_565 S
H613 C598 0.930 . S
H614 C619 0.930 . S
H615 C594 0.930 . S
H616 C627 0.931 . S
N617 Tb588 2.617 . S
N617 C618 1.379 . S
N617 C621 1.334 . S
C618 N617 1.379 . S
C618 C620 1.416 . S
C618 C626 1.424 . S
C619 H614 0.930 . S
C619 C621 1.390 . S
C619 C622 1.339 . S
C620 C618 1.416 . S
C620 C622 1.416 . S
C620 C653 1.448 . S
C621 H606 0.930 . S
C621 N617 1.334 . S
C621 C619 1.390 . S
C622 C619 1.339 . S
C622 C620 1.416 . S
C622 H629 0.930 . S
N623 Tb588 2.572 . S
N623 C624 1.340 . S
N623 C626 1.361 . S
C624 H610 0.930 . S
C624 N623 1.340 . S
C624 C628 1.407 . S
C625 C626 1.413 . S
C625 C627 1.416 . S
C625 C654 1.427 . S
C626 C618 1.424 . S
C626 N623 1.361 . S
C626 C625 1.413 . S
C627 H616 0.931 . S
C627 C625 1.416 . S
C627 C628 1.332 . S
C628 H607 0.929 . S
C628 C624 1.407 . S
C628 C627 1.332 . S
H629 C622 0.930 . S
H630 C653 0.930 . S
H631 C654 0.929 . S
O632 Tb588 2.465 . S
O632 C652 1.264 . S
O633 Tb588 2.387 . S
O633 C644 1.264 . S
O634 Tb599 2.349 . S
O634 C644 1.243 . S
O635 Tb588 2.428 . S
O635 C652 1.256 . S
O636 Tb588 2.308 . S
O636 C651 1.266 . S
O637 Tb599 2.393 . S
O637 C651 1.248 . S
O638 Tb599 2.465 . S
O638 C663 1.264 . S
O639 Tb599 2.387 . S
O639 C655 1.264 . S
O640 Tb588 2.349 . S
O640 C655 1.243 . S
O641 Tb599 2.428 . S
O641 C663 1.256 . S
O642 Tb599 2.308 . S
O642 C662 1.266 . S
O643 Tb588 2.393 . S
O643 C662 1.248 . S
C644 O633 1.264 . S
C644 O634 1.243 . S
C645 C648 1.399 . S
C645 C650 1.383 . S
C645 C652 1.496 . S
C646 C647 1.399 . S
C646 C650 1.389 . S
C647 C646 1.399 . S
C647 C649 1.380 . S
C647 H664 0.929 . S
C648 C645 1.399 . S
C648 C649 1.392 . S
C648 H665 0.929 . S
C649 C647 1.380 . S
C649 C648 1.392 . S
C649 H666 0.929 . S
C650 C645 1.383 . S
C650 C646 1.389 . S
C650 H667 0.931 . S
C651 O636 1.266 . S
C651 O637 1.248 . S
C652 Tb588 2.802 . S
C652 O632 1.264 . S
C652 O635 1.256 . S
C652 C645 1.496 . S
C653 C620 1.448 . S
C653 H630 0.930 . S
C653 C654 1.328 . S
C654 C625 1.427 . S
C654 H631 0.929 . S
C654 C653 1.328 . S
C655 O639 1.264 . S
C655 O640 1.243 . S
C656 C659 1.399 . S
C656 C660 1.383 . S
C656 C663 1.496 . S
C657 C658 1.399 . S
C657 C660 1.389 . S
C658 C657 1.399 . S
C658 C661 1.380 . S
C658 H668 0.929 1_556 S
C659 C656 1.399 . S
C659 C661 1.392 . S
C659 H669 0.929 . S
C660 C656 1.383 . S
C660 C657 1.389 . S
C660 H670 0.931 . S
C661 C658 1.380 . S
C661 C659 1.392 . S
C661 H671 0.929 . S
C662 O642 1.266 . S
C662 O643 1.248 . S
C663 Tb599 2.802 . S
C663 O638 1.264 . S
C663 O641 1.256 . S
C663 C656 1.496 . S
H664 C647 0.929 . S
H665 C648 0.929 . S
H666 C649 0.929 . S
H667 C650 0.931 . S
H668 C658 0.929 1_554 S
H669 C659 0.929 . S
H670 C660 0.931 . S
H671 C661 0.929 . S
Tb672 N701 2.617 . S
Tb672 N707 2.572 . S
Tb672 O716 2.465 . S
Tb672 O717 2.387 . S
Tb672 O719 2.428 . S
Tb672 O720 2.308 . S
Tb672 O724 2.349 . S
Tb672 O727 2.393 . S
Tb672 C736 2.802 . S
C673 N674 1.379 . S
C673 C676 1.416 . S
C673 C680 1.424 . S
N674 C673 1.379 . S
N674 C677 1.334 . S
N674 Tb683 2.617 . S
C675 C677 1.390 . S
C675 C678 1.339 . S
C675 H695 0.930 . S
C676 C673 1.416 . S
C676 C678 1.416 . S
C676 C682 1.448 1_556 S
C677 N674 1.334 . S
C677 C675 1.390 . S
C677 H688 0.930 . S
C678 C675 1.339 . S
C678 C676 1.416 . S
C678 H699 0.930 . S
C679 C680 1.413 1_554 S
C679 C681 1.427 . S
C679 C685 1.416 . S
C680 C673 1.424 . S
C680 C679 1.413 1_556 S
C680 N684 1.361 . S
C681 C679 1.427 . S
C681 C682 1.328 . S
C681 H696 0.929 . S
C682 C676 1.448 1_554 S
C682 C681 1.328 . S
C682 H697 0.930 . S
Tb683 N674 2.617 . S
Tb683 N684 2.572 . S
Tb683 O718 2.349 . S
Tb683 O721 2.393 . S
Tb683 O722 2.465 1_556 S
Tb683 O723 2.387 . S
Tb683 O725 2.428 1_556 S
Tb683 O726 2.308 . S
Tb683 C747 2.802 1_556 S
N684 C680 1.361 . S
N684 Tb683 2.572 . S
N684 C686 1.340 . S
C685 C679 1.416 . S
C685 C687 1.332 . S
C685 H693 0.931 . S
C686 N684 1.340 . S
C686 C687 1.407 1_556 S
C686 H692 0.930 . S
C687 C685 1.332 . S
C687 C686 1.407 1_554 S
C687 H689 0.929 . S
H688 C677 0.930 . S
H689 C687 0.929 . S
H690 C705 0.930 . S
H691 C712 0.929 . S
H692 C686 0.930 . S
H693 C685 0.931 . S
H694 C708 0.930 . S
H695 C675 0.930 . S
H696 C681 0.929 . S
H697 C682 0.930 . S
H698 C703 0.930 . S
H699 C678 0.930 . S
H700 C711 0.931 . S
N701 Tb672 2.617 . S
N701 C702 1.379 . S
N701 C705 1.334 . S
C702 N701 1.379 . S
C702 C704 1.416 . S
C702 C710 1.424 . S
C703 H698 0.930 . S
C703 C705 1.390 . S
C703 C706 1.339 . S
C704 C702 1.416 . S
C704 C706 1.416 . S
C704 C737 1.448 . S
C705 H690 0.930 . S
C705 N701 1.334 . S
C705 C703 1.390 . S
C706 C703 1.339 . S
C706 C704 1.416 . S
C706 H713 0.930 . S
N707 Tb672 2.572 . S
N707 C708 1.340 . S
N707 C710 1.361 . S
C708 H694 0.930 . S
C708 N707 1.340 . S
C708 C712 1.407 . S
C709 C710 1.413 . S
C709 C711 1.416 . S
C709 C738 1.427 . S
C710 C702 1.424 . S
C710 N707 1.361 . S
C710 C709 1.413 . S
C711 H700 0.931 . S
C711 C709 1.416 . S
C711 C712 1.332 . S
C712 H691 0.929 . S
C712 C708 1.407 . S
C712 C711 1.332 . S
H713 C706 0.930 . S
H714 C737 0.930 . S
H715 C738 0.929 . S
O716 Tb672 2.465 . S
O716 C736 1.264 . S
O717 Tb672 2.387 . S
O717 C728 1.264 . S
O718 Tb683 2.349 . S
O718 C728 1.243 . S
O719 Tb672 2.428 . S
O719 C736 1.256 . S
O720 Tb672 2.308 . S
O720 C735 1.266 . S
O721 Tb683 2.393 . S
O721 C735 1.248 . S
O722 Tb683 2.465 1_554 S
O722 C747 1.264 . S
O723 Tb683 2.387 . S
O723 C739 1.264 . S
O724 Tb672 2.349 . S
O724 C739 1.243 . S
O725 Tb683 2.428 1_554 S
O725 C747 1.256 . S
O726 Tb683 2.308 . S
O726 C746 1.266 . S
O727 Tb672 2.393 . S
O727 C746 1.248 . S
C728 O717 1.264 . S
C728 O718 1.243 . S
C729 C732 1.399 . S
C729 C734 1.383 . S
C729 C736 1.496 . S
C730 C731 1.399 . S
C730 C734 1.389 . S
C731 C730 1.399 . S
C731 C733 1.380 . S
C731 H748 0.929 . S
C732 C729 1.399 . S
C732 C733 1.392 . S
C732 H749 0.929 . S
C733 C731 1.380 . S
C733 C732 1.392 . S
C733 H750 0.929 . S
C734 C729 1.383 . S
C734 C730 1.389 . S
C734 H751 0.931 . S
C735 O720 1.266 . S
C735 O721 1.248 . S
C736 Tb672 2.802 . S
C736 O716 1.264 . S
C736 O719 1.256 . S
C736 C729 1.496 . S
C737 C704 1.448 . S
C737 H714 0.930 . S
C737 C738 1.328 . S
C738 C709 1.427 . S
C738 H715 0.929 . S
C738 C737 1.328 . S
C739 O723 1.264 . S
C739 O724 1.243 . S
C740 C743 1.399 . S
C740 C744 1.383 . S
C740 C747 1.496 . S
C741 C742 1.399 . S
C741 C744 1.389 . S
C742 C741 1.399 . S
C742 C745 1.380 . S
C742 H752 0.929 . S
C743 C740 1.399 . S
C743 C745 1.392 . S
C743 H753 0.929 . S
C744 C740 1.383 . S
C744 C741 1.389 . S
C744 H754 0.931 . S
C745 C742 1.380 . S
C745 C743 1.392 . S
C745 H755 0.929 . S
C746 O726 1.266 . S
C746 O727 1.248 . S
C747 Tb683 2.802 1_554 S
C747 O722 1.264 . S
C747 O725 1.256 . S
C747 C740 1.496 . S
H748 C731 0.929 . S
H749 C732 0.929 . S
H750 C733 0.929 . S
H751 C734 0.931 . S
H752 C742 0.929 . S
H753 C743 0.929 . S
H754 C744 0.931 . S
H755 C745 0.929 . S
Tb756 N785 2.617 . S
Tb756 N791 2.572 . S
Tb756 O800 2.465 . S
Tb756 O801 2.387 . S
Tb756 O803 2.428 . S
Tb756 O804 2.308 . S
Tb756 O808 2.349 . S
Tb756 O811 2.393 . S
Tb756 C820 2.802 . S
C757 N758 1.379 . S
C757 C760 1.416 . S
C757 C764 1.424 . S
N758 C757 1.379 . S
N758 C761 1.334 . S
N758 Tb767 2.617 . S
C759 C761 1.390 . S
C759 C762 1.339 . S
C759 H779 0.930 . S
C760 C757 1.416 . S
C760 C762 1.416 . S
C760 C766 1.448 . S
C761 N758 1.334 . S
C761 C759 1.390 . S
C761 H772 0.930 . S
C762 C759 1.339 . S
C762 C760 1.416 . S
C762 H783 0.930 . S
C763 C764 1.413 . S
C763 C765 1.427 . S
C763 C769 1.416 . S
C764 C757 1.424 . S
C764 C763 1.413 . S
C764 N768 1.361 . S
C765 C763 1.427 . S
C765 C766 1.328 . S
C765 H780 0.929 . S
C766 C760 1.448 . S
C766 C765 1.328 . S
C766 H781 0.930 . S
Tb767 N758 2.617 . S
Tb767 N768 2.572 . S
Tb767 O802 2.349 . S
Tb767 O805 2.393 . S
Tb767 O806 2.465 . S
Tb767 O807 2.387 . S
Tb767 O809 2.428 . S
Tb767 O810 2.308 . S
Tb767 C831 2.802 . S
N768 C764 1.361 . S
N768 Tb767 2.572 . S
N768 C770 1.340 . S
C769 C763 1.416 . S
C769 C771 1.332 . S
C769 H777 0.931 . S
C770 N768 1.340 . S
C770 C771 1.407 . S
C770 H776 0.930 . S
C771 C769 1.332 . S
C771 C770 1.407 . S
C771 H773 0.929 . S
H772 C761 0.930 . S
H773 C771 0.929 . S
H774 C789 0.930 . S
H775 C796 0.929 . S
H776 C770 0.930 . S
H777 C769 0.931 . S
H778 C792 0.930 . S
H779 C759 0.930 . S
H780 C765 0.929 . S
H781 C766 0.930 . S
H782 C787 0.930 . S
H783 C762 0.930 . S
H784 C795 0.931 . S
N785 Tb756 2.617 . S
N785 C786 1.379 . S
N785 C789 1.334 . S
C786 N785 1.379 . S
C786 C788 1.416 . S
C786 C794 1.424 . S
C787 H782 0.930 . S
C787 C789 1.390 . S
C787 C790 1.339 . S
C788 C786 1.416 . S
C788 C790 1.416 . S
C788 C821 1.448 . S
C789 H774 0.930 . S
C789 N785 1.334 . S
C789 C787 1.390 . S
C790 C787 1.339 . S
C790 C788 1.416 . S
C790 H797 0.930 . S
N791 Tb756 2.572 . S
N791 C792 1.340 . S
N791 C794 1.361 . S
C792 H778 0.930 . S
C792 N791 1.340 . S
C792 C796 1.407 . S
C793 C794 1.413 . S
C793 C795 1.416 . S
C793 C822 1.427 . S
C794 C786 1.424 . S
C794 N791 1.361 . S
C794 C793 1.413 . S
C795 H784 0.931 . S
C795 C793 1.416 . S
C795 C796 1.332 . S
C796 H775 0.929 . S
C796 C792 1.407 . S
C796 C795 1.332 . S
H797 C790 0.930 . S
H798 C821 0.930 . S
H799 C822 0.929 . S
O800 Tb756 2.465 . S
O800 C820 1.264 . S
O801 Tb756 2.387 . S
O801 C812 1.264 . S
O802 Tb767 2.349 . S
O802 C812 1.243 . S
O803 Tb756 2.428 . S
O803 C820 1.256 . S
O804 Tb756 2.308 . S
O804 C819 1.266 . S
O805 Tb767 2.393 . S
O805 C819 1.248 . S
O806 Tb767 2.465 . S
O806 C831 1.264 . S
O807 Tb767 2.387 . S
O807 C823 1.264 . S
O808 Tb756 2.349 . S
O808 C823 1.243 . S
O809 Tb767 2.428 . S
O809 C831 1.256 . S
O810 Tb767 2.308 . S
O810 C830 1.266 . S
O811 Tb756 2.393 . S
O811 C830 1.248 . S
C812 O801 1.264 . S
C812 O802 1.243 . S
C813 C816 1.399 . S
C813 C818 1.383 . S
C813 C820 1.496 . S
C814 C815 1.399 . S
C814 C818 1.389 . S
C815 C814 1.399 . S
C815 C817 1.380 . S
C815 H832 0.929 . S
C816 C813 1.399 . S
C816 C817 1.392 . S
C816 H833 0.929 . S
C817 C815 1.380 . S
C817 C816 1.392 . S
C817 H834 0.929 . S
C818 C813 1.383 . S
C818 C814 1.389 . S
C818 H835 0.931 . S
C819 O804 1.266 . S
C819 O805 1.248 . S
C820 Tb756 2.802 . S
C820 O800 1.264 . S
C820 O803 1.256 . S
C820 C813 1.496 . S
C821 C788 1.448 . S
C821 H798 0.930 . S
C821 C822 1.328 . S
C822 C793 1.427 . S
C822 H799 0.929 . S
C822 C821 1.328 . S
C823 O807 1.264 . S
C823 O808 1.243 . S
C824 C827 1.399 . S
C824 C828 1.383 . S
C824 C831 1.496 . S
C825 C826 1.399 . S
C825 C828 1.389 . S
C826 C825 1.399 . S
C826 C829 1.380 . S
C826 H836 0.949 . S
C827 C824 1.399 . S
C827 C829 1.392 . S
C827 H837 0.929 . S
C828 C824 1.383 . S
C828 C825 1.389 . S
C828 H838 0.931 . S
C829 C826 1.380 . S
C829 C827 1.392 . S
C829 H839 0.929 . S
C830 O810 1.266 . S
C830 O811 1.248 . S
C831 Tb767 2.802 . S
C831 O806 1.264 . S
C831 O809 1.256 . S
C831 C824 1.496 . S
H832 C815 0.929 . S
H833 C816 0.929 . S
H834 C817 0.929 . S
H835 C818 0.931 . S
H836 C826 0.949 . S
H837 C827 0.929 . S
H838 C828 0.931 . S
H839 C829 0.929 . S
Tb840 N869 2.617 . S
Tb840 N875 2.572 . S
Tb840 O884 2.465 . S
Tb840 O885 2.387 . S
Tb840 O887 2.428 . S
Tb840 O888 2.308 . S
Tb840 O892 2.349 . S
Tb840 O895 2.393 . S
Tb840 C904 2.802 . S
C841 N842 1.379 . S
C841 C844 1.416 . S
C841 C848 1.424 . S
N842 C841 1.379 . S
N842 C845 1.334 . S
N842 Tb851 2.617 . S
C843 C845 1.390 . S
C843 C846 1.339 . S
C843 H863 0.930 . S
C844 C841 1.416 . S
C844 C846 1.416 . S
C844 C850 1.448 . S
C845 N842 1.334 . S
C845 C843 1.390 . S
C845 H856 0.930 . S
C846 C843 1.339 . S
C846 C844 1.416 . S
C846 H867 0.930 . S
C847 C848 1.413 . S
C847 C849 1.427 . S
C847 C853 1.416 . S
C848 C841 1.424 . S
C848 C847 1.413 . S
C848 N852 1.361 . S
C849 C847 1.427 . S
C849 C850 1.328 . S
C849 H864 0.929 . S
C850 C844 1.448 . S
C850 C849 1.328 . S
C850 H865 0.930 . S
Tb851 N842 2.617 . S
Tb851 N852 2.572 . S
Tb851 O886 2.349 . S
Tb851 O889 2.393 . S
Tb851 O890 2.465 . S
Tb851 O891 2.387 . S
Tb851 O893 2.428 . S
Tb851 O894 2.308 . S
Tb851 C915 2.802 . S
N852 C848 1.361 . S
N852 Tb851 2.572 . S
N852 C854 1.340 . S
C853 C847 1.416 . S
C853 C855 1.332 . S
C853 H861 0.931 . S
C854 N852 1.340 . S
C854 C855 1.407 . S
C854 H860 0.930 . S
C855 C853 1.332 . S
C855 C854 1.407 . S
C855 H857 0.929 . S
H856 C845 0.930 . S
H857 C855 0.929 . S
H858 C873 0.930 . S
H859 C880 0.929 . S
H860 C854 0.930 . S
H861 C853 0.931 . S
H862 C876 0.930 . S
H863 C843 0.930 . S
H864 C849 0.929 . S
H865 C850 0.930 . S
H866 C871 0.930 . S
H867 C846 0.930 . S
H868 C879 0.931 . S
N869 Tb840 2.617 . S
N869 C870 1.379 . S
N869 C873 1.334 . S
C870 N869 1.379 . S
C870 C872 1.416 . S
C870 C878 1.424 . S
C871 H866 0.930 . S
C871 C873 1.390 . S
C871 C874 1.339 . S
C872 C870 1.416 . S
C872 C874 1.416 . S
C872 C905 1.448 . S
C873 H858 0.930 . S
C873 N869 1.334 . S
C873 C871 1.390 . S
C874 C871 1.339 . S
C874 C872 1.416 . S
C874 H881 0.930 . S
N875 Tb840 2.572 . S
N875 C876 1.340 . S
N875 C878 1.361 . S
C876 H862 0.930 . S
C876 N875 1.340 . S
C876 C880 1.407 . S
C877 C878 1.413 . S
C877 C879 1.416 . S
C877 C906 1.427 . S
C878 C870 1.424 . S
C878 N875 1.361 . S
C878 C877 1.413 . S
C879 H868 0.931 . S
C879 C877 1.416 . S
C879 C880 1.332 . S
C880 H859 0.929 . S
C880 C876 1.407 . S
C880 C879 1.332 . S
H881 C874 0.930 . S
H882 C905 0.930 . S
H883 C906 0.929 . S
O884 Tb840 2.465 . S
O884 C904 1.264 . S
O885 Tb840 2.387 . S
O885 C896 1.264 . S
O886 Tb851 2.349 . S
O886 C896 1.243 . S
O887 Tb840 2.428 . S
O887 C904 1.256 . S
O888 Tb840 2.308 . S
O888 C903 1.266 . S
O889 Tb851 2.393 . S
O889 C903 1.248 . S
O890 Tb851 2.465 . S
O890 C915 1.264 . S
O891 Tb851 2.387 . S
O891 C907 1.264 . S
O892 Tb840 2.349 . S
O892 C907 1.243 . S
O893 Tb851 2.428 . S
O893 C915 1.256 . S
O894 Tb851 2.308 . S
O894 C914 1.266 . S
O895 Tb840 2.393 . S
O895 C914 1.248 . S
C896 O885 1.264 . S
C896 O886 1.243 . S
C897 C900 1.399 . S
C897 C902 1.383 . S
C897 C904 1.496 . S
C898 C899 1.399 . S
C898 C902 1.389 . S
C899 C898 1.399 . S
C899 C901 1.380 . S
C899 H916 0.946 . S
C900 C897 1.399 . S
C900 C901 1.392 . S
C900 H917 0.929 . S
C901 C899 1.380 . S
C901 C900 1.392 . S
C901 H918 0.929 . S
C902 C897 1.383 . S
C902 C898 1.389 . S
C902 H919 0.931 . S
C903 O888 1.266 . S
C903 O889 1.248 . S
C904 Tb840 2.802 . S
C904 O884 1.264 . S
C904 O887 1.256 . S
C904 C897 1.496 . S
C905 C872 1.448 . S
C905 H882 0.930 . S
C905 C906 1.328 . S
C906 C877 1.427 . S
C906 H883 0.929 . S
C906 C905 1.328 . S
C907 O891 1.264 . S
C907 O892 1.243 . S
C908 C911 1.399 . S
C908 C912 1.383 . S
C908 C915 1.496 . S
C909 C910 1.399 . S
C909 C912 1.389 . S
C910 C909 1.399 . S
C910 C913 1.380 . S
C910 H920 0.929 . S
C911 C908 1.399 . S
C911 C913 1.392 . S
C911 H921 0.929 . S
C912 C908 1.383 . S
C912 C909 1.389 . S
C912 H922 0.931 . S
C913 C910 1.380 . S
C913 C911 1.392 . S
C913 H923 0.929 . S
C914 O894 1.266 . S
C914 O895 1.248 . S
C915 Tb851 2.802 . S
C915 O890 1.264 . S
C915 O893 1.256 . S
C915 C908 1.496 . S
H916 C899 0.946 . S
H917 C900 0.929 . S
H918 C901 0.929 . S
H919 C902 0.931 . S
H920 C910 0.929 . S
H921 C911 0.929 . S
H922 C912 0.931 . S
H923 C913 0.929 . S
Tb924 N953 2.617 . S
Tb924 N959 2.572 . S
Tb924 O968 2.465 . S
Tb924 O969 2.387 . S
Tb924 O971 2.428 . S
Tb924 O972 2.308 . S
Tb924 O976 2.349 . S
Tb924 O979 2.393 . S
Tb924 C988 2.802 . S
C925 N926 1.379 . S
C925 C928 1.416 . S
C925 C932 1.422 1_554 S
N926 C925 1.379 . S
N926 C929 1.334 . S
N926 Tb935 2.617 . S
C927 C929 1.390 . S
C927 C930 1.339 . S
C927 H947 0.930 . S
C928 C925 1.416 . S
C928 C930 1.416 . S
C928 C934 1.448 1_554 S
C929 N926 1.334 . S
C929 C927 1.390 . S
C929 H940 0.930 . S
C930 C927 1.339 . S
C930 C928 1.416 . S
C930 H951 0.930 . S
C931 C932 1.415 . S
C931 C933 1.427 . S
C931 C937 1.416 . S
C932 C925 1.422 1_556 S
C932 C931 1.415 . S
C932 N936 1.360 1_556 S
C933 C931 1.427 . S
C933 C934 1.328 . S
C933 H948 0.929 . S
C934 C928 1.448 1_556 S
C934 C933 1.328 . S
C934 H949 0.930 . S
Tb935 N926 2.617 . S
Tb935 N936 2.572 . S
Tb935 O970 2.349 . S
Tb935 O973 2.393 . S
Tb935 O974 2.465 1_554 S
Tb935 O975 2.387 . S
Tb935 O977 2.428 1_554 S
Tb935 O978 2.308 . S
Tb935 C999 2.802 1_554 S
N936 C932 1.360 1_554 S
N936 Tb935 2.572 . S
N936 C938 1.340 1_554 S
C937 C931 1.416 . S
C937 C939 1.332 . S
C937 H945 0.931 . S
C938 N936 1.340 1_556 S
C938 C939 1.407 . S
C938 H944 0.929 1_556 S
C939 C937 1.332 . S
C939 C938 1.407 . S
C939 H941 0.929 . S
H940 C929 0.930 . S
H941 C939 0.929 . S
H942 C957 0.930 . S
H943 C964 0.929 . S
H944 C938 0.929 1_554 S
H945 C937 0.931 . S
H946 C960 0.930 . S
H947 C927 0.930 . S
H948 C933 0.929 . S
H949 C934 0.930 . S
H950 C955 0.930 . S
H951 C930 0.930 . S
H952 C963 0.931 . S
N953 Tb924 2.617 . S
N953 C954 1.379 . S
N953 C957 1.334 . S
C954 N953 1.379 . S
C954 C956 1.416 . S
C954 C962 1.424 . S
C955 H950 0.930 . S
C955 C957 1.390 . S
C955 C958 1.339 . S
C956 C954 1.416 . S
C956 C958 1.416 . S
C956 C989 1.448 . S
C957 H942 0.930 . S
C957 N953 1.334 . S
C957 C955 1.390 . S
C958 C955 1.339 . S
C958 C956 1.416 . S
C958 H965 0.930 . S
N959 Tb924 2.572 . S
N959 C960 1.340 . S
N959 C962 1.361 . S
C960 H946 0.930 . S
C960 N959 1.340 . S
C960 C964 1.407 . S
C961 C962 1.413 . S
C961 C963 1.416 . S
C961 C990 1.427 . S
C962 C954 1.424 . S
C962 N959 1.361 . S
C962 C961 1.413 . S
C963 H952 0.931 . S
C963 C961 1.416 . S
C963 C964 1.332 . S
C964 H943 0.929 . S
C964 C960 1.407 . S
C964 C963 1.332 . S
H965 C958 0.930 . S
H966 C989 0.930 . S
H967 C990 0.929 1_545 S
O968 Tb924 2.465 . S
O968 C988 1.264 . S
O969 Tb924 2.387 . S
O969 C980 1.264 . S
O970 Tb935 2.349 . S
O970 C980 1.243 . S
O971 Tb924 2.428 . S
O971 C988 1.256 . S
O972 Tb924 2.308 . S
O972 C987 1.266 . S
O973 Tb935 2.393 . S
O973 C987 1.248 . S
O974 Tb935 2.465 1_556 S
O974 C999 1.264 . S
O975 Tb935 2.387 . S
O975 C991 1.264 . S
O976 Tb924 2.349 . S
O976 C991 1.243 . S
O977 Tb935 2.428 1_556 S
O977 C999 1.256 . S
O978 Tb935 2.308 . S
O978 C998 1.266 . S
O979 Tb924 2.393 . S
O979 C998 1.248 . S
C980 O969 1.264 . S
C980 O970 1.243 . S
C981 C984 1.399 . S
C981 C986 1.383 . S
C981 C988 1.496 . S
C982 C983 1.399 . S
C982 C986 1.389 . S
C983 C982 1.399 . S
C983 C985 1.380 . S
C983 H1000 0.929 . S
C984 C981 1.399 . S
C984 C985 1.392 . S
C984 H1001 0.929 . S
C985 C983 1.380 . S
C985 C984 1.392 . S
C985 H1002 0.929 . S
C986 C981 1.383 . S
C986 C982 1.389 . S
C986 H1003 0.931 . S
C987 O972 1.266 . S
C987 O973 1.248 . S
C988 Tb924 2.802 . S
C988 O968 1.264 . S
C988 O971 1.256 . S
C988 C981 1.496 . S
C989 C956 1.448 . S
C989 H966 0.930 . S
C989 C990 1.328 . S
C990 C961 1.427 . S
C990 H967 0.929 1_565 S
C990 C989 1.328 . S
C991 O975 1.264 . S
C991 O976 1.243 . S
C992 C995 1.399 . S
C992 C996 1.383 . S
C992 C999 1.496 . S
C993 C994 1.399 . S
C993 C996 1.389 . S
C994 C993 1.399 . S
C994 C997 1.380 . S
C994 H1004 0.929 . S
C995 C992 1.399 . S
C995 C997 1.392 . S
C995 H1005 0.929 . S
C996 C992 1.383 . S
C996 C993 1.389 . S
C996 H1006 0.931 . S
C997 C994 1.380 . S
C997 C995 1.392 . S
C997 H1007 0.929 . S
C998 O978 1.266 . S
C998 O979 1.248 . S
C999 Tb935 2.802 1_556 S
C999 O974 1.264 . S
C999 O977 1.256 . S
C999 C992 1.496 . S
H1000 C983 0.929 . S
H1001 C984 0.929 . S
H1002 C985 0.929 . S
H1003 C986 0.931 . S
H1004 C994 0.929 . S
H1005 C995 0.929 . S
H1006 C996 0.931 . S
H1007 C997 0.929 . S
Tb1008 N1037 2.617 . S
Tb1008 N1043 2.572 . S
Tb1008 O1052 2.465 1_554 S
Tb1008 O1053 2.387 . S
Tb1008 O1055 2.428 1_554 S
Tb1008 O1056 2.308 . S
Tb1008 O1060 2.349 . S
Tb1008 O1063 2.393 . S
Tb1008 C1072 2.802 1_554 S
C1009 N1010 1.379 . S
C1009 C1012 1.416 . S
C1009 C1016 1.424 . S
N1010 C1009 1.379 . S
N1010 C1013 1.334 . S
N1010 Tb1019 2.617 . S
C1011 C1013 1.390 . S
C1011 C1014 1.339 . S
C1011 H1031 0.930 . S
C1012 C1009 1.416 . S
C1012 C1014 1.416 . S
C1012 C1018 1.448 . S
C1013 N1010 1.334 . S
C1013 C1011 1.390 . S
C1013 H1024 0.930 . S
C1014 C1011 1.339 . S
C1014 C1012 1.416 . S
C1014 H1035 0.930 . S
C1015 C1016 1.413 . S
C1015 C1017 1.427 . S
C1015 C1021 1.416 . S
C1016 C1009 1.424 . S
C1016 C1015 1.413 . S
C1016 N1020 1.361 . S
C1017 C1015 1.427 . S
C1017 C1018 1.328 . S
C1017 H1032 0.929 . S
C1018 C1012 1.448 . S
C1018 C1017 1.328 . S
C1018 H1033 0.930 . S
Tb1019 N1010 2.617 . S
Tb1019 N1020 2.572 . S
Tb1019 O1054 2.349 . S
Tb1019 O1057 2.393 . S
Tb1019 O1058 2.465 . S
Tb1019 O1059 2.387 . S
Tb1019 O1061 2.428 . S
Tb1019 O1062 2.308 . S
Tb1019 C1083 2.802 . S
N1020 C1016 1.361 . S
N1020 Tb1019 2.572 . S
N1020 C1022 1.340 . S
C1021 C1015 1.416 . S
C1021 C1023 1.332 . S
C1021 H1029 0.931 . S
C1022 N1020 1.340 . S
C1022 C1023 1.407 . S
C1022 H1028 0.930 . S
C1023 C1021 1.332 . S
C1023 C1022 1.407 . S
C1023 H1025 0.929 . S
H1024 C1013 0.930 . S
H1025 C1023 0.929 . S
H1026 C1041 0.930 . S
H1027 C1048 0.929 . S
H1028 C1022 0.930 . S
H1029 C1021 0.931 . S
H1030 C1044 0.930 . S
H1031 C1011 0.930 . S
H1032 C1017 0.929 . S
H1033 C1018 0.930 . S
H1034 C1039 0.930 . S
H1035 C1014 0.930 . S
H1036 C1047 0.931 . S
N1037 Tb1008 2.617 . S
N1037 C1038 1.379 . S
N1037 C1041 1.334 . S
C1038 N1037 1.379 . S
C1038 C1040 1.416 . S
C1038 C1046 1.424 . S
C1039 H1034 0.930 . S
C1039 C1041 1.390 . S
C1039 C1042 1.339 . S
C1040 C1038 1.416 . S
C1040 C1042 1.416 . S
C1040 C1073 1.448 1_554 S
C1041 H1026 0.930 . S
C1041 N1037 1.334 . S
C1041 C1039 1.390 . S
C1042 C1039 1.339 . S
C1042 C1040 1.416 . S
C1042 H1049 0.930 . S
N1043 Tb1008 2.572 . S
N1043 C1044 1.340 . S
N1043 C1046 1.361 . S
C1044 H1030 0.930 . S
C1044 N1043 1.340 . S
C1044 C1048 1.407 1_554 S
C1045 C1046 1.413 1_556 S
C1045 C1047 1.416 . S
C1045 C1074 1.427 . S
C1046 C1038 1.424 . S
C1046 N1043 1.361 . S
C1046 C1045 1.413 1_554 S
C1047 H1036 0.931 . S
C1047 C1045 1.416 . S
C1047 C1048 1.332 . S
C1048 H1027 0.929 . S
C1048 C1044 1.407 1_556 S
C1048 C1047 1.332 . S
H1049 C1042 0.930 . S
H1050 C1073 0.930 . S
H1051 C1074 0.929 . S
O1052 Tb1008 2.465 1_556 S
O1052 C1072 1.264 . S
O1053 Tb1008 2.387 . S
O1053 C1064 1.264 . S
O1054 Tb1019 2.349 . S
O1054 C1064 1.243 . S
O1055 Tb1008 2.428 1_556 S
O1055 C1072 1.256 . S
O1056 Tb1008 2.308 . S
O1056 C1071 1.266 . S
O1057 Tb1019 2.393 . S
O1057 C1071 1.248 . S
O1058 Tb1019 2.465 . S
O1058 C1083 1.264 . S
O1059 Tb1019 2.387 . S
O1059 C1075 1.264 . S
O1060 Tb1008 2.349 . S
O1060 C1075 1.243 . S
O1061 Tb1019 2.428 . S
O1061 C1083 1.256 . S
O1062 Tb1019 2.308 . S
O1062 C1082 1.266 . S
O1063 Tb1008 2.393 . S
O1063 C1082 1.248 . S
C1064 O1053 1.264 . S
C1064 O1054 1.243 . S
C1065 C1068 1.399 . S
C1065 C1070 1.383 . S
C1065 C1072 1.496 . S
C1066 C1067 1.399 . S
C1066 C1070 1.389 . S
C1067 C1066 1.399 . S
C1067 C1069 1.380 . S
C1067 H1084 0.929 . S
C1068 C1065 1.399 . S
C1068 C1069 1.392 . S
C1068 H1085 0.929 . S
C1069 C1067 1.380 . S
C1069 C1068 1.392 . S
C1069 H1086 0.929 . S
C1070 C1065 1.383 . S
C1070 C1066 1.389 . S
C1070 H1087 0.931 . S
C1071 O1056 1.266 . S
C1071 O1057 1.248 . S
C1072 Tb1008 2.802 1_556 S
C1072 O1052 1.264 . S
C1072 O1055 1.256 . S
C1072 C1065 1.496 . S
C1073 C1040 1.448 1_556 S
C1073 H1050 0.930 . S
C1073 C1074 1.328 . S
C1074 C1045 1.427 . S
C1074 H1051 0.929 . S
C1074 C1073 1.328 . S
C1075 O1059 1.264 . S
C1075 O1060 1.243 . S
C1076 C1079 1.399 . S
C1076 C1080 1.383 . S
C1076 C1083 1.496 . S
C1077 C1078 1.399 . S
C1077 C1080 1.389 . S
C1078 C1077 1.399 . S
C1078 C1081 1.380 . S
C1078 H1088 0.929 . S
C1079 C1076 1.399 . S
C1079 C1081 1.392 . S
C1079 H1089 0.929 . S
C1080 C1076 1.383 . S
C1080 C1077 1.389 . S
C1080 H1090 0.931 . S
C1081 C1078 1.380 . S
C1081 C1079 1.392 . S
C1081 H1091 0.929 . S
C1082 O1062 1.266 . S
C1082 O1063 1.248 . S
C1083 Tb1019 2.802 . S
C1083 O1058 1.264 . S
C1083 O1061 1.256 . S
C1083 C1076 1.496 . S
H1084 C1067 0.929 . S
H1085 C1068 0.929 . S
H1086 C1069 0.929 . S
H1087 C1070 0.931 . S
H1088 C1078 0.929 . S
H1089 C1079 0.929 . S
H1090 C1080 0.931 . S
H1091 C1081 0.929 . S
Tb1092 N1121 2.617 . S
Tb1092 N1127 2.572 . S
Tb1092 O1136 2.465 1_556 S
Tb1092 O1137 2.387 . S
Tb1092 O1139 2.428 1_556 S
Tb1092 O1140 2.308 . S
Tb1092 O1144 2.349 . S
Tb1092 O1147 2.393 . S
Tb1092 C1156 2.802 1_556 S
C1093 N1094 1.379 . S
C1093 C1096 1.416 . S
C1093 C1100 1.424 . S
N1094 C1093 1.379 . S
N1094 C1097 1.334 . S
N1094 Tb1103 2.617 . S
C1095 C1097 1.390 . S
C1095 C1098 1.339 . S
C1095 H1115 0.930 . S
C1096 C1093 1.416 . S
C1096 C1098 1.416 . S
C1096 C1102 1.448 . S
C1097 N1094 1.334 . S
C1097 C1095 1.390 . S
C1097 H1108 0.930 . S
C1098 C1095 1.339 . S
C1098 C1096 1.416 . S
C1098 H1119 0.930 . S
C1099 C1100 1.413 . S
C1099 C1101 1.427 . S
C1099 C1105 1.416 . S
C1100 C1093 1.424 . S
C1100 C1099 1.413 . S
C1100 N1104 1.361 . S
C1101 C1099 1.427 . S
C1101 C1102 1.328 . S
C1101 H1116 0.929 . S
C1102 C1096 1.448 . S
C1102 C1101 1.328 . S
C1102 H1117 0.930 . S
Tb1103 N1094 2.617 . S
Tb1103 N1104 2.572 . S
Tb1103 O1138 2.349 . S
Tb1103 O1141 2.393 . S
Tb1103 O1142 2.465 . S
Tb1103 O1143 2.387 . S
Tb1103 O1145 2.428 . S
Tb1103 O1146 2.308 . S
Tb1103 C1167 2.802 . S
N1104 C1100 1.361 . S
N1104 Tb1103 2.572 . S
N1104 C1106 1.340 . S
C1105 C1099 1.416 . S
C1105 C1107 1.332 . S
C1105 H1113 0.931 . S
C1106 N1104 1.340 . S
C1106 C1107 1.407 . S
C1106 H1112 0.930 . S
C1107 C1105 1.332 . S
C1107 C1106 1.407 . S
C1107 H1109 0.929 . S
H1108 C1097 0.930 . S
H1109 C1107 0.929 . S
H1110 C1125 0.930 . S
H1111 C1132 0.929 . S
H1112 C1106 0.930 . S
H1113 C1105 0.931 . S
H1114 C1128 0.930 . S
H1115 C1095 0.930 . S
H1116 C1101 0.929 . S
H1117 C1102 0.930 . S
H1118 C1123 0.930 . S
H1119 C1098 0.930 . S
H1120 C1131 0.931 . S
N1121 Tb1092 2.617 . S
N1121 C1122 1.379 . S
N1121 C1125 1.334 . S
C1122 N1121 1.379 . S
C1122 C1124 1.416 . S
C1122 C1130 1.424 . S
C1123 H1118 0.930 . S
C1123 C1125 1.390 . S
C1123 C1126 1.339 . S
C1124 C1122 1.416 . S
C1124 C1126 1.416 . S
C1124 C1157 1.448 1_556 S
C1125 H1110 0.930 . S
C1125 N1121 1.334 . S
C1125 C1123 1.390 . S
C1126 C1123 1.339 . S
C1126 C1124 1.416 . S
C1126 H1133 0.930 . S
N1127 Tb1092 2.572 . S
N1127 C1128 1.340 . S
N1127 C1130 1.361 . S
C1128 H1114 0.930 . S
C1128 N1127 1.340 . S
C1128 C1132 1.407 1_556 S
C1129 C1130 1.413 1_554 S
C1129 C1131 1.416 . S
C1129 C1158 1.427 . S
C1130 C1122 1.424 . S
C1130 N1127 1.361 . S
C1130 C1129 1.413 1_556 S
C1131 H1120 0.931 . S
C1131 C1129 1.416 . S
C1131 C1132 1.332 . S
C1132 H1111 0.929 . S
C1132 C1128 1.407 1_554 S
C1132 C1131 1.332 . S
H1133 C1126 0.930 . S
H1134 C1157 0.930 . S
H1135 C1158 0.929 . S
O1136 Tb1092 2.465 1_554 S
O1136 C1156 1.264 . S
O1137 Tb1092 2.387 . S
O1137 C1148 1.264 . S
O1138 Tb1103 2.349 . S
O1138 C1148 1.243 . S
O1139 Tb1092 2.428 1_554 S
O1139 C1156 1.256 . S
O1140 Tb1092 2.308 . S
O1140 C1155 1.266 . S
O1141 Tb1103 2.393 . S
O1141 C1155 1.248 . S
O1142 Tb1103 2.465 . S
O1142 C1167 1.264 . S
O1143 Tb1103 2.387 . S
O1143 C1159 1.264 . S
O1144 Tb1092 2.349 . S
O1144 C1159 1.243 . S
O1145 Tb1103 2.428 . S
O1145 C1167 1.256 . S
O1146 Tb1103 2.308 . S
O1146 C1166 1.266 . S
O1147 Tb1092 2.393 . S
O1147 C1166 1.248 . S
C1148 O1137 1.264 . S
C1148 O1138 1.243 . S
C1149 C1152 1.399 . S
C1149 C1154 1.383 . S
C1149 C1156 1.496 . S
C1150 C1151 1.399 . S
C1150 C1154 1.389 . S
C1151 C1150 1.399 . S
C1151 C1153 1.380 . S
C1151 H1168 0.929 . S
C1152 C1149 1.399 . S
C1152 C1153 1.392 . S
C1152 H1169 0.929 . S
C1153 C1151 1.380 . S
C1153 C1152 1.392 . S
C1153 H1170 0.929 . S
C1154 C1149 1.383 . S
C1154 C1150 1.389 . S
C1154 H1171 0.931 . S
C1155 O1140 1.266 . S
C1155 O1141 1.248 . S
C1156 Tb1092 2.802 1_554 S
C1156 O1136 1.264 . S
C1156 O1139 1.256 . S
C1156 C1149 1.496 . S
C1157 C1124 1.448 1_554 S
C1157 H1134 0.930 . S
C1157 C1158 1.328 . S
C1158 C1129 1.427 . S
C1158 H1135 0.929 . S
C1158 C1157 1.328 . S
C1159 O1143 1.264 . S
C1159 O1144 1.243 . S
C1160 C1163 1.399 . S
C1160 C1164 1.383 . S
C1160 C1167 1.496 . S
C1161 C1162 1.399 . S
C1161 C1164 1.389 . S
C1162 C1161 1.399 . S
C1162 C1165 1.380 . S
C1162 H1172 0.929 . S
C1163 C1160 1.399 . S
C1163 C1165 1.392 . S
C1163 H1173 0.929 . S
C1164 C1160 1.383 . S
C1164 C1161 1.389 . S
C1164 H1174 0.931 . S
C1165 C1162 1.380 . S
C1165 C1163 1.392 . S
C1165 H1175 0.929 . S
C1166 O1146 1.266 . S
C1166 O1147 1.248 . S
C1167 Tb1103 2.802 . S
C1167 O1142 1.264 . S
C1167 O1145 1.256 . S
C1167 C1160 1.496 . S
H1168 C1151 0.929 . S
H1169 C1152 0.929 . S
H1170 C1153 0.929 . S
H1171 C1154 0.931 . S
H1172 C1162 0.929 . S
H1173 C1163 0.929 . S
H1174 C1164 0.931 . S
H1175 C1165 0.929 . S
Tb1176 N1205 2.617 . S
Tb1176 N1211 2.572 . S
Tb1176 O1220 2.465 . S
Tb1176 O1221 2.387 . S
Tb1176 O1223 2.428 . S
Tb1176 O1224 2.308 . S
Tb1176 O1228 2.349 . S
Tb1176 O1231 2.393 . S
Tb1176 C1240 2.802 . S
C1177 N1178 1.379 . S
C1177 C1180 1.416 . S
C1177 C1184 1.424 . S
N1178 C1177 1.379 . S
N1178 C1181 1.334 . S
N1178 Tb1187 2.617 . S
C1179 C1181 1.390 . S
C1179 C1182 1.339 . S
C1179 H1199 0.930 . S
C1180 C1177 1.416 . S
C1180 C1182 1.416 . S
C1180 C1186 1.448 . S
C1181 N1178 1.334 . S
C1181 C1179 1.390 . S
C1181 H1192 0.930 . S
C1182 C1179 1.339 . S
C1182 C1180 1.416 . S
C1182 H1203 0.930 . S
C1183 C1184 1.413 . S
C1183 C1185 1.427 . S
C1183 C1189 1.416 . S
C1184 C1177 1.424 . S
C1184 C1183 1.413 . S
C1184 N1188 1.361 . S
C1185 C1183 1.427 . S
C1185 C1186 1.328 . S
C1185 H1200 0.929 . S
C1186 C1180 1.448 . S
C1186 C1185 1.328 . S
C1186 H1201 0.930 . S
Tb1187 N1178 2.617 . S
Tb1187 N1188 2.572 . S
Tb1187 O1222 2.349 . S
Tb1187 O1225 2.393 . S
Tb1187 O1226 2.465 . S
Tb1187 O1227 2.387 . S
Tb1187 O1229 2.428 . S
Tb1187 O1230 2.308 . S
Tb1187 C1251 2.802 . S
N1188 C1184 1.361 . S
N1188 Tb1187 2.572 . S
N1188 C1190 1.340 . S
C1189 C1183 1.416 . S
C1189 C1191 1.332 . S
C1189 H1197 0.931 . S
C1190 N1188 1.340 . S
C1190 C1191 1.407 . S
C1190 H1196 0.930 . S
C1191 C1189 1.332 . S
C1191 C1190 1.407 . S
C1191 H1193 0.929 . S
H1192 C1181 0.930 . S
H1193 C1191 0.929 . S
H1194 C1209 0.930 . S
H1195 C1216 0.929 . S
H1196 C1190 0.930 . S
H1197 C1189 0.931 . S
H1198 C1212 0.930 . S
H1199 C1179 0.930 . S
H1200 C1185 0.929 . S
H1201 C1186 0.930 . S
H1202 C1207 0.930 . S
H1203 C1182 0.930 . S
H1204 C1215 0.931 . S
N1205 Tb1176 2.617 . S
N1205 C1206 1.379 . S
N1205 C1209 1.334 . S
C1206 N1205 1.379 . S
C1206 C1208 1.416 . S
C1206 C1214 1.424 . S
C1207 H1202 0.930 . S
C1207 C1209 1.390 . S
C1207 C1210 1.339 . S
C1208 C1206 1.416 . S
C1208 C1210 1.416 . S
C1208 C1241 1.448 . S
C1209 H1194 0.930 . S
C1209 N1205 1.334 . S
C1209 C1207 1.390 . S
C1210 C1207 1.339 . S
C1210 C1208 1.416 . S
C1210 H1217 0.930 . S
N1211 Tb1176 2.572 . S
N1211 C1212 1.340 . S
N1211 C1214 1.361 . S
C1212 H1198 0.930 . S
C1212 N1211 1.340 . S
C1212 C1216 1.407 . S
C1213 C1214 1.413 . S
C1213 C1215 1.416 . S
C1213 C1242 1.427 . S
C1214 C1206 1.424 . S
C1214 N1211 1.361 . S
C1214 C1213 1.413 . S
C1215 H1204 0.931 . S
C1215 C1213 1.416 . S
C1215 C1216 1.332 . S
C1216 H1195 0.929 . S
C1216 C1212 1.407 . S
C1216 C1215 1.332 . S
H1217 C1210 0.930 . S
H1218 C1241 0.930 . S
H1219 C1242 0.929 . S
O1220 Tb1176 2.465 . S
O1220 C1240 1.264 . S
O1221 Tb1176 2.387 . S
O1221 C1232 1.264 . S
O1222 Tb1187 2.349 . S
O1222 C1232 1.243 . S
O1223 Tb1176 2.428 . S
O1223 C1240 1.256 . S
O1224 Tb1176 2.308 . S
O1224 C1239 1.266 . S
O1225 Tb1187 2.393 . S
O1225 C1239 1.248 . S
O1226 Tb1187 2.465 . S
O1226 C1251 1.264 . S
O1227 Tb1187 2.387 . S
O1227 C1243 1.264 . S
O1228 Tb1176 2.349 . S
O1228 C1243 1.243 . S
O1229 Tb1187 2.428 . S
O1229 C1251 1.256 . S
O1230 Tb1187 2.308 . S
O1230 C1250 1.266 . S
O1231 Tb1176 2.393 . S
O1231 C1250 1.248 . S
C1232 O1221 1.264 . S
C1232 O1222 1.243 . S
C1233 C1236 1.399 . S
C1233 C1238 1.383 . S
C1233 C1240 1.496 . S
C1234 C1235 1.399 . S
C1234 C1238 1.389 . S
C1235 C1234 1.399 . S
C1235 C1237 1.380 . S
C1235 H1252 0.929 1_556 S
C1236 C1233 1.399 . S
C1236 C1237 1.392 . S
C1236 H1253 0.929 . S
C1237 C1235 1.380 . S
C1237 C1236 1.392 . S
C1237 H1254 0.929 . S
C1238 C1233 1.383 . S
C1238 C1234 1.389 . S
C1238 H1255 0.931 . S
C1239 O1224 1.266 . S
C1239 O1225 1.248 . S
C1240 Tb1176 2.802 . S
C1240 O1220 1.264 . S
C1240 O1223 1.256 . S
C1240 C1233 1.496 . S
C1241 C1208 1.448 . S
C1241 H1218 0.930 . S
C1241 C1242 1.328 . S
C1242 C1213 1.427 . S
C1242 H1219 0.929 . S
C1242 C1241 1.328 . S
C1243 O1227 1.264 . S
C1243 O1228 1.243 . S
C1244 C1247 1.399 . S
C1244 C1248 1.383 . S
C1244 C1251 1.496 . S
C1245 C1246 1.399 . S
C1245 C1248 1.389 . S
C1246 C1245 1.399 . S
C1246 C1249 1.380 . S
C1246 H1256 0.929 . S
C1247 C1244 1.399 . S
C1247 C1249 1.392 . S
C1247 H1257 0.929 . S
C1248 C1244 1.383 . S
C1248 C1245 1.389 . S
C1248 H1258 0.931 . S
C1249 C1246 1.380 . S
C1249 C1247 1.392 . S
C1249 H1259 0.929 . S
C1250 O1230 1.266 . S
C1250 O1231 1.248 . S
C1251 Tb1187 2.802 . S
C1251 O1226 1.264 . S
C1251 O1229 1.256 . S
C1251 C1244 1.496 . S
H1252 C1235 0.929 1_554 S
H1253 C1236 0.929 . S
H1254 C1237 0.929 . S
H1255 C1238 0.931 . S
H1256 C1246 0.929 . S
H1257 C1247 0.929 . S
H1258 C1248 0.931 . S
H1259 C1249 0.929 . S
Tb1260 N1289 2.617 . S
Tb1260 N1295 2.572 . S
Tb1260 O1304 2.465 . S
Tb1260 O1305 2.387 . S
Tb1260 O1307 2.428 . S
Tb1260 O1308 2.308 . S
Tb1260 O1312 2.349 . S
Tb1260 O1315 2.393 . S
Tb1260 C1324 2.802 . S
C1261 N1262 1.379 . S
C1261 C1264 1.416 . S
C1261 C1268 1.424 . S
N1262 C1261 1.379 . S
N1262 C1265 1.334 . S
N1262 Tb1271 2.617 . S
C1263 C1265 1.390 . S
C1263 C1266 1.339 . S
C1263 H1283 0.930 . S
C1264 C1261 1.416 . S
C1264 C1266 1.416 . S
C1264 C1270 1.448 . S
C1265 N1262 1.334 . S
C1265 C1263 1.390 . S
C1265 H1276 0.930 . S
C1266 C1263 1.339 . S
C1266 C1264 1.416 . S
C1266 H1287 0.930 . S
C1267 C1268 1.413 . S
C1267 C1269 1.427 . S
C1267 C1273 1.416 . S
C1268 C1261 1.424 . S
C1268 C1267 1.413 . S
C1268 N1272 1.361 . S
C1269 C1267 1.427 . S
C1269 C1270 1.328 . S
C1269 H1284 0.929 . S
C1270 C1264 1.448 . S
C1270 C1269 1.328 . S
C1270 H1285 0.930 . S
Tb1271 N1262 2.617 . S
Tb1271 N1272 2.572 . S
Tb1271 O1306 2.349 . S
Tb1271 O1309 2.393 . S
Tb1271 O1310 2.465 . S
Tb1271 O1311 2.387 . S
Tb1271 O1313 2.428 . S
Tb1271 O1314 2.308 . S
Tb1271 C1335 2.802 . S
N1272 C1268 1.361 . S
N1272 Tb1271 2.572 . S
N1272 C1274 1.340 . S
C1273 C1267 1.416 . S
C1273 C1275 1.332 . S
C1273 H1281 0.931 . S
C1274 N1272 1.340 . S
C1274 C1275 1.407 . S
C1274 H1280 0.930 . S
C1275 C1273 1.332 . S
C1275 C1274 1.407 . S
C1275 H1277 0.929 . S
H1276 C1265 0.930 . S
H1277 C1275 0.929 . S
H1278 C1293 0.930 . S
H1279 C1300 0.929 . S
H1280 C1274 0.930 . S
H1281 C1273 0.931 . S
H1282 C1296 0.930 . S
H1283 C1263 0.930 . S
H1284 C1269 0.929 . S
H1285 C1270 0.930 . S
H1286 C1291 0.930 . S
H1287 C1266 0.930 . S
H1288 C1299 0.931 . S
N1289 Tb1260 2.617 . S
N1289 C1290 1.379 . S
N1289 C1293 1.334 . S
C1290 N1289 1.379 . S
C1290 C1292 1.416 . S
C1290 C1298 1.424 . S
C1291 H1286 0.930 . S
C1291 C1293 1.390 . S
C1291 C1294 1.339 . S
C1292 C1290 1.416 . S
C1292 C1294 1.416 . S
C1292 C1325 1.448 . S
C1293 H1278 0.930 . S
C1293 N1289 1.334 . S
C1293 C1291 1.390 . S
C1294 C1291 1.339 . S
C1294 C1292 1.416 . S
C1294 H1301 0.930 . S
N1295 Tb1260 2.572 . S
N1295 C1296 1.340 . S
N1295 C1298 1.361 . S
C1296 H1282 0.930 . S
C1296 N1295 1.340 . S
C1296 C1300 1.407 . S
C1297 C1298 1.413 . S
C1297 C1299 1.416 . S
C1297 C1326 1.427 . S
C1298 C1290 1.424 . S
C1298 N1295 1.361 . S
C1298 C1297 1.413 . S
C1299 H1288 0.931 . S
C1299 C1297 1.416 . S
C1299 C1300 1.332 . S
C1300 H1279 0.929 . S
C1300 C1296 1.407 . S
C1300 C1299 1.332 . S
H1301 C1294 0.930 . S
H1302 C1325 0.930 . S
H1303 C1326 0.929 . S
O1304 Tb1260 2.465 . S
O1304 C1324 1.264 . S
O1305 Tb1260 2.387 . S
O1305 C1316 1.264 . S
O1306 Tb1271 2.349 . S
O1306 C1316 1.243 . S
O1307 Tb1260 2.428 . S
O1307 C1324 1.256 . S
O1308 Tb1260 2.308 . S
O1308 C1323 1.266 . S
O1309 Tb1271 2.393 . S
O1309 C1323 1.248 . S
O1310 Tb1271 2.465 . S
O1310 C1335 1.264 . S
O1311 Tb1271 2.387 . S
O1311 C1327 1.264 . S
O1312 Tb1260 2.349 . S
O1312 C1327 1.243 . S
O1313 Tb1271 2.428 . S
O1313 C1335 1.256 . S
O1314 Tb1271 2.308 . S
O1314 C1334 1.266 . S
O1315 Tb1260 2.393 . S
O1315 C1334 1.248 . S
C1316 O1305 1.264 . S
C1316 O1306 1.243 . S
C1317 C1320 1.399 . S
C1317 C1322 1.383 . S
C1317 C1324 1.496 . S
C1318 C1319 1.399 . S
C1318 C1322 1.389 . S
C1319 C1318 1.399 . S
C1319 C1321 1.380 . S
C1319 H1336 0.929 . S
C1320 C1317 1.399 . S
C1320 C1321 1.392 . S
C1320 H1337 0.929 . S
C1321 C1319 1.380 . S
C1321 C1320 1.392 . S
C1321 H1338 0.929 . S
C1322 C1317 1.383 . S
C1322 C1318 1.389 . S
C1322 H1339 0.931 . S
C1323 O1308 1.266 . S
C1323 O1309 1.248 . S
C1324 Tb1260 2.802 . S
C1324 O1304 1.264 . S
C1324 O1307 1.256 . S
C1324 C1317 1.496 . S
C1325 C1292 1.448 . S
C1325 H1302 0.930 . S
C1325 C1326 1.328 . S
C1326 C1297 1.427 . S
C1326 H1303 0.929 . S
C1326 C1325 1.328 . S
C1327 O1311 1.264 . S
C1327 O1312 1.243 . S
C1328 C1331 1.399 . S
C1328 C1332 1.383 . S
C1328 C1335 1.496 . S
C1329 C1330 1.399 . S
C1329 C1332 1.389 . S
C1330 C1329 1.399 . S
C1330 C1333 1.380 . S
C1330 H1340 0.929 1_554 S
C1331 C1328 1.399 . S
C1331 C1333 1.392 . S
C1331 H1341 0.929 . S
C1332 C1328 1.383 . S
C1332 C1329 1.389 . S
C1332 H1342 0.931 . S
C1333 C1330 1.380 . S
C1333 C1331 1.392 . S
C1333 H1343 0.929 . S
C1334 O1314 1.266 . S
C1334 O1315 1.248 . S
C1335 Tb1271 2.802 . S
C1335 O1310 1.264 . S
C1335 O1313 1.256 . S
C1335 C1328 1.496 . S
H1336 C1319 0.929 . S
H1337 C1320 0.929 . S
H1338 C1321 0.929 . S
H1339 C1322 0.931 . S
H1340 C1330 0.929 1_556 S
H1341 C1331 0.929 . S
H1342 C1332 0.931 . S
H1343 C1333 0.929 . S
H1344 C1350 0.930 . S
H1345 C1354 0.930 . S
H1346 C1359 0.929 . S
H1347 C1357 0.929 . S
H1348 C1352 0.929 . S
H1349 C1358 0.929 . S
C1350 H1344 0.930 . S
C1350 C1351 1.367 . S
C1350 C1358 1.378 . S
C1351 C1350 1.367 . S
C1351 C1359 1.433 . S
C1352 H1348 0.929 . S
C1352 C1354 1.378 . S
C1352 C1356 1.350 . S
C1353 C1356 1.463 . S
C1353 C1358 1.350 . S
C1353 N1361 1.427 . S
C1354 H1345 0.930 . S
C1354 C1352 1.378 . S
C1354 C1355 1.367 . S
C1355 C1354 1.367 . S
C1355 C1357 1.433 . S
C1356 C1352 1.350 . S
C1356 C1353 1.463 . S
C1356 N1360 1.427 . S
C1357 H1347 0.929 . S
C1357 C1355 1.433 . S
C1357 N1360 1.384 . S
C1358 H1349 0.929 . S
C1358 C1350 1.378 . S
C1358 C1353 1.350 . S
C1359 H1346 0.929 . S
C1359 C1351 1.433 . S
C1359 N1361 1.384 . S
N1360 C1356 1.427 . S
N1360 C1357 1.384 . S
N1361 C1353 1.427 . S
N1361 C1359 1.384 . S
H1362 C1368 0.930 1_554 S
H1363 C1372 0.930 . S
H1364 C1377 0.929 . S
H1365 C1375 0.929 . S
H1366 C1370 0.929 . S
H1367 C1376 0.929 . S
C1368 H1362 0.930 1_556 S
C1368 C1369 1.367 1_556 S
C1368 C1376 1.378 . S
C1369 C1368 1.367 1_554 S
C1369 C1377 1.433 1_554 S
C1370 H1366 0.929 . S
C1370 C1372 1.378 . S
C1370 C1374 1.350 . S
C1371 C1374 1.463 . S
C1371 C1376 1.350 . S
C1371 N1379 1.427 . S
C1372 H1363 0.930 . S
C1372 C1370 1.378 . S
C1372 C1373 1.367 . S
C1373 C1372 1.367 . S
C1373 C1375 1.433 . S
C1374 C1370 1.350 . S
C1374 C1371 1.463 . S
C1374 N1378 1.427 . S
C1375 H1365 0.929 . S
C1375 C1373 1.433 . S
C1375 N1378 1.384 . S
C1376 H1367 0.929 . S
C1376 C1368 1.378 . S
C1376 C1371 1.350 . S
C1377 H1364 0.929 . S
C1377 C1369 1.433 1_556 S
C1377 N1379 1.384 . S
N1378 C1374 1.427 . S
N1378 C1375 1.384 . S
N1379 C1371 1.427 . S
N1379 C1377 1.384 . S
H1380 C1386 0.930 . S
H1381 C1390 0.930 . S
H1382 C1395 0.929 . S
H1383 C1393 0.929 1_556 S
H1384 C1388 0.929 . S
H1385 C1394 0.929 . S
C1386 H1380 0.930 . S
C1386 C1387 1.367 . S
C1386 C1394 1.378 . S
C1387 C1386 1.367 . S
C1387 C1395 1.433 . S
C1388 H1384 0.929 . S
C1388 C1390 1.378 . S
C1388 C1392 1.350 . S
C1389 C1392 1.463 . S
C1389 C1394 1.350 . S
C1389 N1397 1.427 . S
C1390 H1381 0.930 . S
C1390 C1388 1.378 . S
C1390 C1391 1.361 1_554 S
C1391 C1390 1.361 1_556 S
C1391 C1393 1.432 1_556 S
C1392 C1388 1.350 . S
C1392 C1389 1.463 . S
C1392 N1396 1.427 . S
C1393 H1383 0.929 1_554 S
C1393 C1391 1.432 1_554 S
C1393 N1396 1.384 . S
C1394 H1385 0.929 . S
C1394 C1386 1.378 . S
C1394 C1389 1.350 . S
C1395 H1382 0.929 . S
C1395 C1387 1.433 . S
C1395 N1397 1.384 . S
N1396 C1392 1.427 . S
N1396 C1393 1.384 . S
N1397 C1389 1.427 . S
N1397 C1395 1.384 . S
H1398 C1404 0.930 . S
H1399 C1408 0.930 . S
H1400 C1413 0.929 . S
H1401 C1411 0.929 . S
H1402 C1406 0.929 . S
H1403 C1412 0.929 . S
C1404 H1398 0.930 . S
C1404 C1405 1.367 . S
C1404 C1412 1.378 . S
C1405 C1404 1.367 . S
C1405 C1413 1.433 . S
C1406 H1402 0.929 . S
C1406 C1408 1.378 . S
C1406 C1410 1.350 . S
C1407 C1410 1.463 . S
C1407 C1412 1.350 . S
C1407 N1415 1.427 . S
C1408 H1399 0.930 . S
C1408 C1406 1.378 . S
C1408 C1409 1.367 . S
C1409 C1408 1.367 . S
C1409 C1411 1.433 . S
C1410 C1406 1.350 . S
C1410 C1407 1.463 . S
C1410 N1414 1.427 . S
C1411 H1401 0.929 . S
C1411 C1409 1.433 . S
C1411 N1414 1.384 . S
C1412 H1403 0.929 . S
C1412 C1404 1.378 . S
C1412 C1407 1.350 . S
C1413 H1400 0.929 . S
C1413 C1405 1.433 . S
C1413 N1415 1.384 . S
N1414 C1410 1.427 . S
N1414 C1411 1.384 . S
N1415 C1407 1.427 . S
N1415 C1413 1.384 . S
H1416 C1422 0.930 . S
H1417 C1426 0.930 . S
H1418 C1431 0.929 . S
H1419 C1429 0.929 . S
H1420 C1424 0.929 . S
H1421 C1430 0.929 . S
C1422 H1416 0.930 . S
C1422 C1423 1.367 . S
C1422 C1430 1.378 . S
C1423 C1422 1.367 . S
C1423 C1431 1.433 . S
C1424 H1420 0.929 . S
C1424 C1426 1.378 . S
C1424 C1428 1.350 . S
C1425 C1428 1.463 . S
C1425 C1430 1.350 . S
C1425 N1433 1.427 . S
C1426 H1417 0.930 . S
C1426 C1424 1.378 . S
C1426 C1427 1.367 . S
C1427 C1426 1.367 . S
C1427 C1429 1.433 . S
C1428 C1424 1.350 . S
C1428 C1425 1.463 . S
C1428 N1432 1.427 . S
C1429 H1419 0.929 . S
C1429 C1427 1.433 . S
C1429 N1432 1.384 . S
C1430 H1421 0.929 . S
C1430 C1422 1.378 . S
C1430 C1425 1.350 . S
C1431 H1418 0.929 . S
C1431 C1423 1.433 . S
C1431 N1433 1.384 . S
N1432 C1428 1.427 . S
N1432 C1429 1.384 . S
N1433 C1425 1.427 . S
N1433 C1431 1.384 . S
H1434 C1440 0.930 . S
H1435 C1444 0.930 . S
H1436 C1449 0.929 . S
H1437 C1447 0.929 . S
H1438 C1442 0.929 . S
H1439 C1448 0.929 . S
C1440 H1434 0.930 . S
C1440 C1441 1.367 . S
C1440 C1448 1.378 . S
C1441 C1440 1.367 . S
C1441 C1449 1.433 . S
C1442 H1438 0.929 . S
C1442 C1444 1.378 . S
C1442 C1446 1.350 . S
C1443 C1446 1.463 . S
C1443 C1448 1.350 . S
C1443 N1451 1.427 . S
C1444 H1435 0.930 . S
C1444 C1442 1.378 . S
C1444 C1445 1.367 . S
C1445 C1444 1.367 . S
C1445 C1447 1.433 . S
C1446 C1442 1.350 . S
C1446 C1443 1.463 . S
C1446 N1450 1.427 . S
C1447 H1437 0.929 . S
C1447 C1445 1.433 . S
C1447 N1450 1.384 . S
C1448 H1439 0.929 . S
C1448 C1440 1.378 . S
C1448 C1443 1.350 . S
C1449 H1436 0.929 . S
C1449 C1441 1.433 . S
C1449 N1451 1.384 . S
N1450 C1446 1.427 . S
N1450 C1447 1.384 . S
N1451 C1443 1.427 . S
N1451 C1449 1.384 . S
H1452 C1458 0.930 . S
H1453 C1462 0.930 . S
H1454 C1467 0.929 . S
H1455 C1465 0.929 1_554 S
H1456 C1460 0.929 . S
H1457 C1466 0.929 . S
C1458 H1452 0.930 . S
C1458 C1459 1.367 . S
C1458 C1466 1.378 . S
C1459 C1458 1.367 . S
C1459 C1467 1.433 . S
C1460 H1456 0.929 . S
C1460 C1462 1.378 . S
C1460 C1464 1.350 . S
C1461 C1464 1.463 . S
C1461 C1466 1.350 . S
C1461 N1469 1.427 . S
C1462 H1453 0.930 . S
C1462 C1460 1.378 . S
C1462 C1463 1.367 1_556 S
C1463 C1462 1.367 1_554 S
C1463 C1465 1.433 1_554 S
C1464 C1460 1.350 . S
C1464 C1461 1.463 . S
C1464 N1468 1.427 . S
C1465 H1455 0.929 1_556 S
C1465 C1463 1.433 1_556 S
C1465 N1468 1.384 . S
C1466 H1457 0.929 . S
C1466 C1458 1.378 . S
C1466 C1461 1.350 . S
C1467 H1454 0.929 . S
C1467 C1459 1.433 . S
C1467 N1469 1.384 . S
N1468 C1464 1.427 . S
N1468 C1465 1.384 . S
N1469 C1461 1.427 . S
N1469 C1467 1.384 . S
H1470 C1476 0.930 . S
H1471 C1480 0.930 . S
H1472 C1485 0.929 . S
H1473 C1483 0.929 . S
H1474 C1478 0.929 . S
H1475 C1484 0.929 . S
C1476 H1470 0.930 . S
C1476 C1477 1.371 . S
C1476 C1484 1.378 . S
C1477 C1476 1.371 . S
C1477 C1485 1.438 . S
C1478 H1474 0.929 . S
C1478 C1480 1.378 . S
C1478 C1482 1.350 . S
C1479 C1482 1.463 . S
C1479 C1484 1.350 . S
C1479 N1487 1.427 . S
C1480 H1471 0.930 . S
C1480 C1478 1.378 . S
C1480 C1481 1.367 . S
C1481 C1480 1.367 . S
C1481 C1483 1.433 . S
C1482 C1478 1.350 . S
C1482 C1479 1.463 . S
C1482 N1486 1.427 . S
C1483 H1473 0.929 . S
C1483 C1481 1.433 . S
C1483 N1486 1.384 . S
C1484 H1475 0.929 . S
C1484 C1476 1.378 . S
C1484 C1479 1.350 . S
C1485 H1472 0.929 . S
C1485 C1477 1.438 . S
C1485 N1487 1.384 . S
N1486 C1482 1.427 . S
N1486 C1483 1.384 . S
N1487 C1479 1.427 . S
N1487 C1485 1.384 . S
H1488 C1494 0.930 . S
H1489 C1498 0.930 . S
H1490 C1503 0.929 . S
H1491 C1501 0.929 . S
H1492 C1496 0.929 . S
H1493 C1502 0.929 . S
C1494 H1488 0.930 . S
C1494 C1495 1.367 . S
C1494 C1502 1.378 . S
C1495 C1494 1.367 . S
C1495 C1503 1.433 . S
C1496 H1492 0.929 . S
C1496 C1498 1.378 . S
C1496 C1500 1.350 . S
C1497 C1500 1.463 . S
C1497 C1502 1.350 . S
C1497 N1505 1.427 . S
C1498 H1489 0.930 . S
C1498 C1496 1.378 . S
C1498 C1499 1.367 . S
C1499 C1498 1.367 . S
C1499 C1501 1.433 . S
C1500 C1496 1.350 . S
C1500 C1497 1.463 . S
C1500 N1504 1.427 . S
C1501 H1491 0.929 . S
C1501 C1499 1.433 . S
C1501 N1504 1.384 . S
C1502 H1493 0.929 . S
C1502 C1494 1.378 . S
C1502 C1497 1.350 . S
C1503 H1490 0.929 . S
C1503 C1495 1.433 . S
C1503 N1505 1.384 . S
N1504 C1500 1.427 . S
N1504 C1501 1.384 . S
N1505 C1497 1.427 . S
N1505 C1503 1.384 . S
H1506 C1512 0.930 . S
H1507 C1516 0.930 . S
H1508 C1521 0.929 . S
H1509 C1519 0.929 1_556 S
H1510 C1514 0.929 . S
H1511 C1520 0.929 . S
C1512 H1506 0.930 . S
C1512 C1513 1.367 . S
C1512 C1520 1.378 . S
C1513 C1512 1.367 . S
C1513 C1521 1.433 . S
C1514 H1510 0.929 . S
C1514 C1516 1.378 . S
C1514 C1518 1.350 . S
C1515 C1518 1.463 . S
C1515 C1520 1.350 . S
C1515 N1523 1.427 . S
C1516 H1507 0.930 . S
C1516 C1514 1.378 . S
C1516 C1517 1.367 1_554 S
C1517 C1516 1.367 1_556 S
C1517 C1519 1.433 1_556 S
C1518 C1514 1.350 . S
C1518 C1515 1.463 . S
C1518 N1522 1.427 . S
C1519 H1509 0.929 1_554 S
C1519 C1517 1.433 1_554 S
C1519 N1522 1.384 . S
C1520 H1511 0.929 . S
C1520 C1512 1.378 . S
C1520 C1515 1.350 . S
C1521 H1508 0.929 . S
C1521 C1513 1.433 . S
C1521 N1523 1.384 . S
N1522 C1518 1.427 . S
N1522 C1519 1.384 . S
N1523 C1515 1.427 . S
N1523 C1521 1.384 . S
H1524 C1530 0.930 . S
H1525 C1534 0.930 . S
H1526 C1539 0.929 1_554 S
H1527 C1537 0.929 . S
H1528 C1532 0.929 . S
H1529 C1538 0.929 . S
C1530 H1524 0.930 . S
C1530 C1531 1.367 1_556 S
C1530 C1538 1.378 . S
C1531 C1530 1.367 1_554 S
C1531 C1539 1.433 1_554 S
C1532 H1528 0.929 . S
C1532 C1534 1.378 . S
C1532 C1536 1.350 . S
C1533 C1536 1.463 . S
C1533 C1538 1.350 . S
C1533 N1541 1.427 . S
C1534 H1525 0.930 . S
C1534 C1532 1.378 . S
C1534 C1535 1.367 . S
C1535 C1534 1.367 . S
C1535 C1537 1.433 . S
C1536 C1532 1.350 . S
C1536 C1533 1.463 . S
C1536 N1540 1.427 . S
C1537 H1527 0.929 . S
C1537 C1535 1.433 . S
C1537 N1540 1.384 . S
C1538 H1529 0.929 . S
C1538 C1530 1.378 . S
C1538 C1533 1.350 . S
C1539 H1526 0.929 1_556 S
C1539 C1531 1.433 1_556 S
C1539 N1541 1.384 . S
N1540 C1536 1.427 . S
N1540 C1537 1.384 . S
N1541 C1533 1.427 . S
N1541 C1539 1.384 . S
H1542 C1548 0.930 . S
H1543 C1552 0.930 . S
H1544 C1557 0.929 . S
H1545 C1555 0.929 . S
H1546 C1550 0.929 . S
H1547 C1556 0.929 . S
C1548 H1542 0.930 . S
C1548 C1549 1.367 . S
C1548 C1556 1.378 . S
C1549 C1548 1.367 . S
C1549 C1557 1.433 . S
C1550 H1546 0.929 . S
C1550 C1552 1.378 . S
C1550 C1554 1.350 . S
C1551 C1554 1.463 . S
C1551 C1556 1.350 . S
C1551 N1559 1.427 . S
C1552 H1543 0.930 . S
C1552 C1550 1.378 . S
C1552 C1553 1.367 . S
C1553 C1552 1.367 . S
C1553 C1555 1.433 . S
C1554 C1550 1.350 . S
C1554 C1551 1.463 . S
C1554 N1558 1.427 . S
C1555 H1545 0.929 . S
C1555 C1553 1.433 . S
C1555 N1558 1.384 . S
C1556 H1547 0.929 . S
C1556 C1548 1.378 . S
C1556 C1551 1.350 . S
C1557 H1544 0.929 . S
C1557 C1549 1.433 . S
C1557 N1559 1.384 . S
N1558 C1554 1.427 . S
N1558 C1555 1.384 . S
N1559 C1551 1.427 . S
N1559 C1557 1.384 . S
H1560 C1566 0.930 . S
H1561 C1570 0.930 . S
H1562 C1575 0.929 . S
H1563 C1573 0.929 . S
H1564 C1568 0.929 . S
H1565 C1574 0.929 . S
C1566 H1560 0.930 . S
C1566 C1567 1.367 . S
C1566 C1574 1.378 . S
C1567 C1566 1.367 . S
C1567 C1575 1.433 . S
C1568 H1564 0.929 . S
C1568 C1570 1.378 . S
C1568 C1572 1.350 . S
C1569 C1572 1.463 . S
C1569 C1574 1.350 . S
C1569 N1577 1.427 . S
C1570 H1561 0.930 . S
C1570 C1568 1.378 . S
C1570 C1571 1.367 . S
C1571 C1570 1.367 . S
C1571 C1573 1.433 . S
C1572 C1568 1.350 . S
C1572 C1569 1.463 . S
C1572 N1576 1.427 . S
C1573 H1563 0.929 . S
C1573 C1571 1.433 . S
C1573 N1576 1.384 . S
C1574 H1565 0.929 . S
C1574 C1566 1.378 . S
C1574 C1569 1.350 . S
C1575 H1562 0.929 . S
C1575 C1567 1.433 . S
C1575 N1577 1.384 . S
N1576 C1572 1.427 . S
N1576 C1573 1.384 . S
N1577 C1569 1.427 . S
N1577 C1575 1.384 . S
H1578 C1584 0.930 . S
H1579 C1588 0.930 . S
H1580 C1593 0.929 . S
H1581 C1591 0.929 . S
H1582 C1586 0.929 . S
H1583 C1592 0.929 . S
C1584 H1578 0.930 . S
C1584 C1585 1.367 . S
C1584 C1592 1.378 . S
C1585 C1584 1.367 . S
C1585 C1593 1.433 . S
C1586 H1582 0.929 . S
C1586 C1588 1.378 . S
C1586 C1590 1.350 . S
C1587 C1590 1.463 . S
C1587 C1592 1.350 . S
C1587 N1595 1.427 . S
C1588 H1579 0.930 . S
C1588 C1586 1.378 . S
C1588 C1589 1.367 . S
C1589 C1588 1.367 . S
C1589 C1591 1.433 . S
C1590 C1586 1.350 . S
C1590 C1587 1.463 . S
C1590 N1594 1.427 . S
C1591 H1581 0.929 . S
C1591 C1589 1.433 . S
C1591 N1594 1.384 . S
C1592 H1583 0.929 . S
C1592 C1584 1.378 . S
C1592 C1587 1.350 . S
C1593 H1580 0.929 . S
C1593 C1585 1.433 . S
C1593 N1595 1.384 . S
N1594 C1590 1.427 . S
N1594 C1591 1.384 . S
N1595 C1587 1.427 . S
N1595 C1593 1.384 . S
H1596 C1602 0.930 . S
H1597 C1606 0.930 . S
H1598 C1611 0.929 . S
H1599 C1609 0.929 . S
H1600 C1604 0.929 . S
H1601 C1610 0.929 . S
C1602 H1596 0.930 . S
C1602 C1603 1.367 . S
C1602 C1610 1.378 . S
C1603 C1602 1.367 . S
C1603 C1611 1.433 . S
C1604 H1600 0.929 . S
C1604 C1606 1.378 . S
C1604 C1608 1.350 . S
C1605 C1608 1.463 . S
C1605 C1610 1.350 . S
C1605 N1613 1.427 . S
C1606 H1597 0.930 . S
C1606 C1604 1.378 . S
C1606 C1607 1.367 . S
C1607 C1606 1.367 . S
C1607 C1609 1.433 . S
C1608 C1604 1.350 . S
C1608 C1605 1.463 . S
C1608 N1612 1.427 . S
C1609 H1599 0.929 . S
C1609 C1607 1.433 . S
C1609 N1612 1.384 . S
C1610 H1601 0.929 . S
C1610 C1602 1.378 . S
C1610 C1605 1.350 . S
C1611 H1598 0.929 . S
C1611 C1603 1.433 . S
C1611 N1613 1.384 . S
N1612 C1608 1.427 . S
N1612 C1609 1.384 . S
N1613 C1605 1.427 . S
N1613 C1611 1.384 . S
H1614 C1620 0.930 . S
H1615 C1624 0.930 . S
H1616 C1629 0.929 1_554 S
H1617 C1627 0.929 . S
H1618 C1622 0.929 . S
H1619 C1628 0.929 . S
C1620 H1614 0.930 . S
C1620 C1621 1.367 1_556 S
C1620 C1628 1.378 . S
C1621 C1620 1.367 1_554 S
C1621 C1629 1.434 1_554 S
C1622 H1618 0.929 . S
C1622 C1624 1.378 . S
C1622 C1626 1.350 . S
C1623 C1626 1.463 . S
C1623 C1628 1.350 . S
C1623 N1631 1.427 . S
C1624 H1615 0.930 . S
C1624 C1622 1.378 . S
C1624 C1625 1.367 . S
C1625 C1624 1.367 . S
C1625 C1627 1.433 . S
C1626 C1622 1.350 . S
C1626 C1623 1.463 . S
C1626 N1630 1.427 . S
C1627 H1617 0.929 . S
C1627 C1625 1.433 . S
C1627 N1630 1.384 . S
C1628 H1619 0.929 . S
C1628 C1620 1.378 . S
C1628 C1623 1.350 . S
C1629 H1616 0.929 1_556 S
C1629 C1621 1.434 1_556 S
C1629 N1631 1.384 . S
N1630 C1626 1.427 . S
N1630 C1627 1.384 . S
N1631 C1623 1.427 . S
N1631 C1629 1.384 . S
H1632 C1638 0.930 . S
H1633 C1642 0.930 . S
H1634 C1647 0.929 . S
H1635 C1645 0.929 . S
H1636 C1640 0.929 . S
H1637 C1646 0.929 . S
C1638 H1632 0.930 . S
C1638 C1639 1.367 . S
C1638 C1646 1.378 . S
C1639 C1638 1.367 . S
C1639 C1647 1.433 . S
C1640 H1636 0.929 . S
C1640 C1642 1.378 . S
C1640 C1644 1.350 . S
C1641 C1644 1.463 . S
C1641 C1646 1.350 . S
C1641 N1649 1.427 . S
C1642 H1633 0.930 . S
C1642 C1640 1.378 . S
C1642 C1643 1.367 . S
C1643 C1642 1.367 . S
C1643 C1645 1.433 . S
C1644 C1640 1.350 . S
C1644 C1641 1.463 . S
C1644 N1648 1.427 . S
C1645 H1635 0.929 . S
C1645 C1643 1.433 . S
C1645 N1648 1.384 . S
C1646 H1637 0.929 . S
C1646 C1638 1.378 . S
C1646 C1641 1.350 . S
C1647 H1634 0.929 . S
C1647 C1639 1.433 . S
C1647 N1649 1.384 . S
N1648 C1644 1.427 . S
N1648 C1645 1.384 . S
N1649 C1641 1.427 . S
N1649 C1647 1.384 . S
H1650 C1656 0.930 . S
H1651 C1660 0.930 . S
H1652 C1665 0.929 . S
H1653 C1663 0.929 . S
H1654 C1658 0.929 . S
H1655 C1664 0.929 . S
C1656 H1650 0.930 . S
C1656 C1657 1.367 . S
C1656 C1664 1.378 . S
C1657 C1656 1.367 . S
C1657 C1665 1.433 . S
C1658 H1654 0.929 . S
C1658 C1660 1.378 . S
C1658 C1662 1.350 . S
C1659 C1662 1.463 . S
C1659 C1664 1.350 . S
C1659 N1667 1.427 . S
C1660 H1651 0.930 . S
C1660 C1658 1.378 . S
C1660 C1661 1.367 . S
C1661 C1660 1.367 . S
C1661 C1663 1.433 . S
C1662 C1658 1.350 . S
C1662 C1659 1.463 . S
C1662 N1666 1.427 . S
C1663 H1653 0.929 . S
C1663 C1661 1.433 . S
C1663 N1666 1.384 . S
C1664 H1655 0.929 . S
C1664 C1656 1.378 . S
C1664 C1659 1.350 . S
C1665 H1652 0.929 . S
C1665 C1657 1.433 . S
C1665 N1667 1.384 . S
N1666 C1662 1.427 . S
N1666 C1663 1.384 . S
N1667 C1659 1.427 . S
N1667 C1665 1.384 . S
H1668 C1674 0.930 . S
H1669 C1678 0.930 . S
H1670 C1683 0.929 . S
H1671 C1681 0.929 . S
H1672 C1676 0.929 . S
H1673 C1682 0.929 . S
C1674 H1668 0.930 . S
C1674 C1675 1.367 . S
C1674 C1682 1.378 . S
C1675 C1674 1.367 . S
C1675 C1683 1.433 . S
C1676 H1672 0.929 . S
C1676 C1678 1.378 . S
C1676 C1680 1.350 . S
C1677 C1680 1.463 . S
C1677 C1682 1.350 . S
C1677 N1685 1.427 . S
C1678 H1669 0.930 . S
C1678 C1676 1.378 . S
C1678 C1679 1.367 . S
C1679 C1678 1.367 . S
C1679 C1681 1.433 . S
C1680 C1676 1.350 . S
C1680 C1677 1.463 . S
C1680 N1684 1.427 . S
C1681 H1671 0.929 . S
C1681 C1679 1.433 . S
C1681 N1684 1.384 . S
C1682 H1673 0.929 . S
C1682 C1674 1.378 . S
C1682 C1677 1.350 . S
C1683 H1670 0.929 . S
C1683 C1675 1.433 . S
C1683 N1685 1.384 . S
N1684 C1680 1.427 . S
N1684 C1681 1.384 . S
N1685 C1677 1.427 . S
N1685 C1683 1.384 . S
H1686 C1692 0.930 . S
H1687 C1696 0.930 . S
H1688 C1701 0.929 . S
H1689 C1699 0.929 . S
H1690 C1694 0.929 . S
H1691 C1700 0.929 . S
C1692 H1686 0.930 . S
C1692 C1693 1.367 . S
C1692 C1700 1.378 . S
C1693 C1692 1.367 . S
C1693 C1701 1.433 . S
C1694 H1690 0.929 . S
C1694 C1696 1.378 . S
C1694 C1698 1.350 . S
C1695 C1698 1.463 1_655 S
C1695 C1700 1.350 . S
C1695 N1703 1.427 . S
C1696 H1687 0.930 . S
C1696 C1694 1.378 . S
C1696 C1697 1.367 . S
C1697 C1696 1.367 . S
C1697 C1699 1.433 . S
C1698 C1694 1.350 . S
C1698 C1695 1.463 1_455 S
C1698 N1702 1.427 . S
C1699 H1689 0.929 . S
C1699 C1697 1.433 . S
C1699 N1702 1.384 . S
C1700 H1691 0.929 . S
C1700 C1692 1.378 . S
C1700 C1695 1.350 . S
C1701 H1688 0.929 . S
C1701 C1693 1.433 . S
C1701 N1703 1.384 . S
N1702 C1698 1.427 . S
N1702 C1699 1.384 . S
N1703 C1695 1.427 . S
N1703 C1701 1.384 . S
H1704 C1710 0.930 . S
H1705 C1714 0.930 . S
H1706 C1719 0.929 . S
H1707 C1717 0.929 . S
H1708 C1712 0.929 . S
H1709 C1718 0.929 . S
C1710 H1704 0.930 . S
C1710 C1711 1.367 . S
C1710 C1718 1.378 . S
C1711 C1710 1.367 . S
C1711 C1719 1.433 . S
C1712 H1708 0.929 . S
C1712 C1714 1.378 . S
C1712 C1716 1.350 . S
C1713 C1716 1.463 . S
C1713 C1718 1.350 . S
C1713 N1721 1.427 . S
C1714 H1705 0.930 . S
C1714 C1712 1.378 . S
C1714 C1715 1.367 . S
C1715 C1714 1.367 . S
C1715 C1717 1.433 . S
C1716 C1712 1.350 . S
C1716 C1713 1.463 . S
C1716 N1720 1.427 . S
C1717 H1707 0.929 . S
C1717 C1715 1.433 . S
C1717 N1720 1.384 . S
C1718 H1709 0.929 . S
C1718 C1710 1.378 . S
C1718 C1713 1.350 . S
C1719 H1706 0.929 . S
C1719 C1711 1.433 . S
C1719 N1721 1.384 . S
N1720 C1716 1.427 . S
N1720 C1717 1.384 . S
N1721 C1713 1.427 . S
N1721 C1719 1.384 . S
H1722 C1728 0.930 . S
H1723 C1732 0.930 . S
H1724 C1737 0.929 . S
H1725 C1735 0.929 . S
H1726 C1730 0.929 . S
H1727 C1736 0.929 . S
C1728 H1722 0.930 . S
C1728 C1729 1.367 . S
C1728 C1736 1.378 . S
C1729 C1728 1.367 . S
C1729 C1737 1.433 . S
C1730 H1726 0.929 . S
C1730 C1732 1.378 . S
C1730 C1734 1.350 . S
C1731 C1734 1.463 1_455 S
C1731 C1736 1.350 . S
C1731 N1739 1.427 . S
C1732 H1723 0.930 . S
C1732 C1730 1.378 . S
C1732 C1733 1.367 . S
C1733 C1732 1.367 . S
C1733 C1735 1.433 . S
C1734 C1730 1.350 . S
C1734 C1731 1.463 1_655 S
C1734 N1738 1.427 . S
C1735 H1725 0.929 . S
C1735 C1733 1.433 . S
C1735 N1738 1.384 . S
C1736 H1727 0.929 . S
C1736 C1728 1.378 . S
C1736 C1731 1.350 . S
C1737 H1724 0.929 . S
C1737 C1729 1.433 . S
C1737 N1739 1.384 . S
N1738 C1734 1.427 . S
N1738 C1735 1.384 . S
N1739 C1731 1.427 . S
N1739 C1737 1.384 . S
H1740 C1746 0.930 . S
H1741 C1750 0.930 . S
H1742 C1755 0.929 . S
H1743 C1753 0.929 . S
H1744 C1748 0.929 . S
H1745 C1754 0.929 . S
C1746 H1740 0.930 . S
C1746 C1747 1.367 . S
C1746 C1754 1.378 . S
C1747 C1746 1.367 . S
C1747 C1755 1.433 . S
C1748 H1744 0.929 . S
C1748 C1750 1.378 . S
C1748 C1752 1.350 . S
C1749 C1752 1.463 . S
C1749 C1754 1.350 . S
C1749 N1757 1.427 . S
C1750 H1741 0.930 . S
C1750 C1748 1.378 . S
C1750 C1751 1.367 . S
C1751 C1750 1.367 . S
C1751 C1753 1.433 . S
C1752 C1748 1.350 . S
C1752 C1749 1.463 . S
C1752 N1756 1.427 . S
C1753 H1743 0.929 . S
C1753 C1751 1.433 . S
C1753 N1756 1.384 . S
C1754 H1745 0.929 . S
C1754 C1746 1.378 . S
C1754 C1749 1.350 . S
C1755 H1742 0.929 . S
C1755 C1747 1.433 . S
C1755 N1757 1.384 . S
N1756 C1752 1.427 . S
N1756 C1753 1.384 . S
N1757 C1749 1.427 . S
N1757 C1755 1.384 . S
H1758 C1764 0.930 . S
H1759 C1768 0.930 . S
H1760 C1773 0.929 . S
H1761 C1771 0.929 . S
H1762 C1766 0.929 . S
H1763 C1772 0.929 . S
C1764 H1758 0.930 . S
C1764 C1765 1.367 . S
C1764 C1772 1.378 . S
C1765 C1764 1.367 . S
C1765 C1773 1.433 . S
C1766 H1762 0.929 . S
C1766 C1768 1.378 . S
C1766 C1770 1.350 . S
C1767 C1770 1.463 . S
C1767 C1772 1.350 . S
C1767 N1775 1.427 . S
C1768 H1759 0.930 . S
C1768 C1766 1.378 . S
C1768 C1769 1.367 . S
C1769 C1768 1.367 . S
C1769 C1771 1.433 . S
C1770 C1766 1.350 . S
C1770 C1767 1.463 . S
C1770 N1774 1.427 . S
C1771 H1761 0.929 . S
C1771 C1769 1.433 . S
C1771 N1774 1.384 . S
C1772 H1763 0.929 . S
C1772 C1764 1.378 . S
C1772 C1767 1.350 . S
C1773 H1760 0.929 . S
C1773 C1765 1.433 . S
C1773 N1775 1.384 . S
N1774 C1770 1.427 . S
N1774 C1771 1.384 . S
N1775 C1767 1.427 . S
N1775 C1773 1.384 . S
H1776 C1782 0.930 . S
H1777 C1786 0.930 . S
H1778 C1791 0.929 . S
H1779 C1789 0.929 . S
H1780 C1784 0.929 . S
H1781 C1790 0.929 . S
C1782 H1776 0.930 . S
C1782 C1783 1.367 . S
C1782 C1790 1.378 . S
C1783 C1782 1.367 . S
C1783 C1791 1.433 . S
C1784 H1780 0.929 . S
C1784 C1786 1.378 . S
C1784 C1788 1.350 . S
C1785 C1788 1.463 . S
C1785 C1790 1.350 . S
C1785 N1793 1.427 . S
C1786 H1777 0.930 . S
C1786 C1784 1.378 . S
C1786 C1787 1.367 . S
C1787 C1786 1.367 . S
C1787 C1789 1.433 . S
C1788 C1784 1.350 . S
C1788 C1785 1.463 . S
C1788 N1792 1.427 . S
C1789 H1779 0.929 . S
C1789 C1787 1.433 . S
C1789 N1792 1.384 . S
C1790 H1781 0.929 . S
C1790 C1782 1.378 . S
C1790 C1785 1.350 . S
C1791 H1778 0.929 . S
C1791 C1783 1.433 . S
C1791 N1793 1.384 . S
N1792 C1788 1.427 . S
N1792 C1789 1.384 . S
N1793 C1785 1.427 . S
N1793 C1791 1.384 . S
H1794 C1800 0.930 . S
H1795 C1804 0.930 . S
H1796 C1809 0.929 . S
H1797 C1807 0.929 . S
H1798 C1802 0.929 . S
H1799 C1808 0.929 . S
C1800 H1794 0.930 . S
C1800 C1801 1.367 . S
C1800 C1808 1.378 . S
C1801 C1800 1.367 . S
C1801 C1809 1.433 . S
C1802 H1798 0.929 . S
C1802 C1804 1.378 . S
C1802 C1806 1.350 . S
C1803 C1806 1.463 . S
C1803 C1808 1.350 . S
C1803 N1811 1.427 . S
C1804 H1795 0.930 . S
C1804 C1802 1.378 . S
C1804 C1805 1.367 . S
C1805 C1804 1.367 . S
C1805 C1807 1.433 . S
C1806 C1802 1.350 . S
C1806 C1803 1.463 . S
C1806 N1810 1.427 . S
C1807 H1797 0.929 . S
C1807 C1805 1.433 . S
C1807 N1810 1.384 . S
C1808 H1799 0.929 . S
C1808 C1800 1.378 . S
C1808 C1803 1.350 . S
C1809 H1796 0.929 . S
C1809 C1801 1.433 . S
C1809 N1811 1.384 . S
N1810 C1806 1.427 . S
N1810 C1807 1.384 . S
N1811 C1803 1.427 . S
N1811 C1809 1.384 . S
H1812 C1818 0.930 . S
H1813 C1822 0.930 . S
H1814 C1827 0.929 . S
H1815 C1825 0.929 . S
H1816 C1820 0.929 . S
H1817 C1826 0.929 . S
C1818 H1812 0.930 . S
C1818 C1819 1.367 . S
C1818 C1826 1.378 . S
C1819 C1818 1.367 . S
C1819 C1827 1.433 . S
C1820 H1816 0.929 . S
C1820 C1822 1.378 . S
C1820 C1824 1.350 . S
C1821 C1824 1.463 . S
C1821 C1826 1.350 . S
C1821 N1829 1.427 . S
C1822 H1813 0.930 . S
C1822 C1820 1.378 . S
C1822 C1823 1.367 . S
C1823 C1822 1.367 . S
C1823 C1825 1.433 . S
C1824 C1820 1.350 . S
C1824 C1821 1.463 . S
C1824 N1828 1.427 . S
C1825 H1815 0.929 . S
C1825 C1823 1.433 . S
C1825 N1828 1.384 . S
C1826 H1817 0.929 . S
C1826 C1818 1.378 . S
C1826 C1821 1.350 . S
C1827 H1814 0.929 . S
C1827 C1819 1.433 . S
C1827 N1829 1.384 . S
N1828 C1824 1.427 . S
N1828 C1825 1.384 . S
N1829 C1821 1.427 . S
N1829 C1827 1.384 . S
H1830 C1836 0.930 . S
H1831 C1840 0.930 . S
H1832 C1845 0.929 . S
H1833 C1843 0.929 . S
H1834 C1838 0.929 . S
H1835 C1844 0.929 . S
C1836 H1830 0.930 . S
C1836 C1837 1.367 . S
C1836 C1844 1.378 . S
C1837 C1836 1.367 . S
C1837 C1845 1.433 . S
C1838 H1834 0.929 . S
C1838 C1840 1.378 . S
C1838 C1842 1.350 . S
C1839 C1842 1.463 . S
C1839 C1844 1.350 . S
C1839 N1847 1.427 . S
C1840 H1831 0.930 . S
C1840 C1838 1.378 . S
C1840 C1841 1.367 . S
C1841 C1840 1.367 . S
C1841 C1843 1.433 . S
C1842 C1838 1.350 . S
C1842 C1839 1.463 . S
C1842 N1846 1.427 . S
C1843 H1833 0.929 . S
C1843 C1841 1.433 . S
C1843 N1846 1.384 . S
C1844 H1835 0.929 . S
C1844 C1836 1.378 . S
C1844 C1839 1.350 . S
C1845 H1832 0.929 . S
C1845 C1837 1.433 . S
C1845 N1847 1.384 . S
N1846 C1842 1.427 . S
N1846 C1843 1.384 . S
N1847 C1839 1.427 . S
N1847 C1845 1.384 . S
H1848 C1854 0.930 . S
H1849 C1858 0.930 . S
H1850 C1863 0.929 . S
H1851 C1861 0.929 . S
H1852 C1856 0.929 . S
H1853 C1862 0.929 . S
C1854 H1848 0.930 . S
C1854 C1855 1.367 . S
C1854 C1862 1.378 . S
C1855 C1854 1.367 . S
C1855 C1863 1.433 . S
C1856 H1852 0.929 . S
C1856 C1858 1.378 . S
C1856 C1860 1.350 . S
C1857 C1860 1.463 1_655 S
C1857 C1862 1.350 . S
C1857 N1865 1.427 . S
C1858 H1849 0.930 . S
C1858 C1856 1.378 . S
C1858 C1859 1.367 . S
C1859 C1858 1.367 . S
C1859 C1861 1.433 . S
C1860 C1856 1.350 . S
C1860 C1857 1.463 1_455 S
C1860 N1864 1.427 . S
C1861 H1851 0.929 . S
C1861 C1859 1.433 . S
C1861 N1864 1.384 . S
C1862 H1853 0.929 . S
C1862 C1854 1.378 . S
C1862 C1857 1.350 . S
C1863 H1850 0.929 . S
C1863 C1855 1.433 . S
C1863 N1865 1.384 . S
N1864 C1860 1.427 . S
N1864 C1861 1.384 . S
N1865 C1857 1.427 . S
N1865 C1863 1.384 . S
H1866 C1872 0.930 . S
H1867 C1876 0.930 . S
H1868 C1881 0.929 . S
H1869 C1879 0.929 . S
H1870 C1874 0.929 . S
H1871 C1880 0.929 . S
C1872 H1866 0.930 . S
C1872 C1873 1.367 . S
C1872 C1880 1.378 . S
C1873 C1872 1.367 . S
C1873 C1881 1.433 . S
C1874 H1870 0.929 . S
C1874 C1876 1.378 . S
C1874 C1878 1.350 . S
C1875 C1878 1.463 . S
C1875 C1880 1.350 . S
C1875 N1883 1.427 . S
C1876 H1867 0.930 . S
C1876 C1874 1.378 . S
C1876 C1877 1.367 . S
C1877 C1876 1.367 . S
C1877 C1879 1.433 . S
C1878 C1874 1.350 . S
C1878 C1875 1.463 . S
C1878 N1882 1.427 . S
C1879 H1869 0.929 . S
C1879 C1877 1.433 . S
C1879 N1882 1.384 . S
C1880 H1871 0.929 . S
C1880 C1872 1.378 . S
C1880 C1875 1.350 . S
C1881 H1868 0.929 . S
C1881 C1873 1.433 . S
C1881 N1883 1.384 . S
N1882 C1878 1.427 . S
N1882 C1879 1.384 . S
N1883 C1875 1.427 . S
N1883 C1881 1.384 . S
H1884 C1890 0.930 . S
H1885 C1894 0.930 . S
H1886 C1899 0.929 . S
H1887 C1897 0.929 . S
H1888 C1892 0.929 . S
H1889 C1898 0.929 . S
C1890 H1884 0.930 . S
C1890 C1891 1.367 . S
C1890 C1898 1.378 . S
C1891 C1890 1.367 . S
C1891 C1899 1.433 . S
C1892 H1888 0.929 . S
C1892 C1894 1.378 . S
C1892 C1896 1.350 . S
C1893 C1896 1.463 . S
C1893 C1898 1.350 . S
C1893 N1901 1.427 . S
C1894 H1885 0.930 . S
C1894 C1892 1.378 . S
C1894 C1895 1.367 . S
C1895 C1894 1.367 . S
C1895 C1897 1.433 . S
C1896 C1892 1.350 . S
C1896 C1893 1.463 . S
C1896 N1900 1.427 . S
C1897 H1887 0.929 . S
C1897 C1895 1.433 . S
C1897 N1900 1.384 . S
C1898 H1889 0.929 . S
C1898 C1890 1.378 . S
C1898 C1893 1.350 . S
C1899 H1886 0.929 . S
C1899 C1891 1.433 . S
C1899 N1901 1.384 . S
N1900 C1896 1.427 . S
N1900 C1897 1.384 . S
N1901 C1893 1.427 . S
N1901 C1899 1.384 . S
H1902 C1908 0.927 1_556 S
H1903 C1912 0.930 . S
H1904 C1917 0.929 . S
H1905 C1915 0.942 . S
H1906 C1910 0.929 . S
H1907 C1916 0.935 . S
C1908 H1902 0.927 1_554 S
C1908 C1909 1.367 . S
C1908 C1916 1.378 . S
C1909 C1908 1.367 . S
C1909 C1917 1.433 . S
C1910 H1906 0.929 . S
C1910 C1912 1.378 . S
C1910 C1914 1.350 . S
C1911 C1914 1.463 1_455 S
C1911 C1916 1.350 . S
C1911 N1919 1.427 . S
C1912 H1903 0.930 . S
C1912 C1910 1.378 . S
C1912 C1913 1.367 . S
C1913 C1912 1.367 . S
C1913 C1915 1.433 . S
C1914 C1910 1.350 . S
C1914 C1911 1.463 1_655 S
C1914 N1918 1.427 . S
C1915 H1905 0.942 . S
C1915 C1913 1.433 . S
C1915 N1918 1.384 . S
C1916 H1907 0.935 . S
C1916 C1908 1.378 . S
C1916 C1911 1.350 . S
C1917 H1904 0.929 . S
C1917 C1909 1.433 . S
C1917 N1919 1.384 . S
N1918 C1914 1.427 . S
N1918 C1915 1.384 . S
N1919 C1911 1.427 . S
N1919 C1917 1.384 . S
H1920 C1926 0.930 1_556 S
H1921 C1930 0.930 1_554 S
H1922 C1935 0.929 . S
H1923 C1933 0.929 . S
H1924 C1928 0.929 . S
H1925 C1934 0.929 . S
C1926 H1920 0.930 1_554 S
C1926 C1927 1.367 . S
C1926 C1934 1.378 1_554 S
C1927 C1926 1.367 . S
C1927 C1935 1.433 . S
C1928 H1924 0.929 . S
C1928 C1930 1.378 1_554 S
C1928 C1932 1.350 1_554 S
C1929 C1932 1.463 1_554 S
C1929 C1934 1.350 1_554 S
C1929 N1937 1.427 . S
C1930 H1921 0.930 1_556 S
C1930 C1928 1.378 1_556 S
C1930 C1931 1.367 . S
C1931 C1930 1.367 . S
C1931 C1933 1.433 . S
C1932 C1928 1.350 1_556 S
C1932 C1929 1.463 1_556 S
C1932 N1936 1.427 . S
C1933 H1923 0.929 . S
C1933 C1931 1.433 . S
C1933 N1936 1.384 . S
C1934 H1925 0.929 . S
C1934 C1926 1.378 1_556 S
C1934 C1929 1.350 1_556 S
C1935 H1922 0.929 . S
C1935 C1927 1.433 . S
C1935 N1937 1.384 . S
N1936 C1932 1.427 . S
N1936 C1933 1.384 . S
N1937 C1929 1.427 . S
N1937 C1935 1.384 . S
H1938 C1944 0.930 . S
H1939 C1948 0.930 . S
H1940 C1953 0.929 . S
H1941 C1951 0.929 . S
H1942 C1946 0.929 . S
H1943 C1952 0.929 . S
C1944 H1938 0.930 . S
C1944 C1945 1.367 . S
C1944 C1952 1.378 . S
C1945 C1944 1.367 . S
C1945 C1953 1.433 . S
C1946 H1942 0.929 . S
C1946 C1948 1.378 . S
C1946 C1950 1.350 . S
C1947 C1950 1.463 . S
C1947 C1952 1.350 . S
C1947 N1955 1.427 . S
C1948 H1939 0.930 . S
C1948 C1946 1.378 . S
C1948 C1949 1.367 . S
C1949 C1948 1.367 . S
C1949 C1951 1.433 . S
C1950 C1946 1.350 . S
C1950 C1947 1.463 . S
C1950 N1954 1.427 . S
C1951 H1941 0.929 . S
C1951 C1949 1.433 . S
C1951 N1954 1.384 . S
C1952 H1943 0.929 . S
C1952 C1944 1.378 . S
C1952 C1947 1.350 . S
C1953 H1940 0.929 . S
C1953 C1945 1.433 . S
C1953 N1955 1.384 . S
N1954 C1950 1.427 . S
N1954 C1951 1.384 . S
N1955 C1947 1.427 . S
N1955 C1953 1.384 . S
H1956 C1962 0.930 . S
H1957 C1966 0.930 . S
H1958 C1971 0.929 . S
H1959 C1969 0.929 . S
H1960 C1964 0.929 . S
H1961 C1970 0.929 . S
C1962 H1956 0.930 . S
C1962 C1963 1.367 . S
C1962 C1970 1.378 . S
C1963 C1962 1.367 . S
C1963 C1971 1.433 . S
C1964 H1960 0.929 . S
C1964 C1966 1.378 . S
C1964 C1968 1.350 . S
C1965 C1968 1.463 . S
C1965 C1970 1.350 . S
C1965 N1973 1.427 . S
C1966 H1957 0.930 . S
C1966 C1964 1.378 . S
C1966 C1967 1.367 . S
C1967 C1966 1.367 . S
C1967 C1969 1.433 . S
C1968 C1964 1.350 . S
C1968 C1965 1.463 . S
C1968 N1972 1.427 . S
C1969 H1959 0.929 . S
C1969 C1967 1.433 . S
C1969 N1972 1.384 . S
C1970 H1961 0.929 . S
C1970 C1962 1.378 . S
C1970 C1965 1.350 . S
C1971 H1958 0.929 . S
C1971 C1963 1.433 . S
C1971 N1973 1.384 . S
N1972 C1968 1.427 . S
N1972 C1969 1.384 . S
N1973 C1965 1.427 . S
N1973 C1971 1.384 . S
H1974 C1980 0.930 . S
H1975 C1984 0.930 . S
H1976 C1989 0.929 . S
H1977 C1987 0.929 . S
H1978 C1982 0.929 . S
H1979 C1988 0.929 . S
C1980 H1974 0.930 . S
C1980 C1981 1.367 . S
C1980 C1988 1.378 . S
C1981 C1980 1.367 . S
C1981 C1989 1.433 . S
C1982 H1978 0.929 . S
C1982 C1984 1.378 . S
C1982 C1986 1.350 . S
C1983 C1986 1.463 . S
C1983 C1988 1.350 . S
C1983 N1991 1.427 . S
C1984 H1975 0.930 . S
C1984 C1982 1.378 . S
C1984 C1985 1.367 . S
C1985 C1984 1.367 . S
C1985 C1987 1.433 . S
C1986 C1982 1.350 . S
C1986 C1983 1.463 . S
C1986 N1990 1.427 . S
C1987 H1977 0.929 . S
C1987 C1985 1.433 . S
C1987 N1990 1.384 . S
C1988 H1979 0.929 . S
C1988 C1980 1.378 . S
C1988 C1983 1.350 . S
C1989 H1976 0.929 . S
C1989 C1981 1.433 . S
C1989 N1991 1.384 . S
N1990 C1986 1.427 . S
N1990 C1987 1.384 . S
N1991 C1983 1.427 . S
N1991 C1989 1.384 . S
H1992 C1998 0.930 1_556 S
H1993 C2002 0.930 1_554 S
H1994 C2007 0.929 . S
H1995 C2005 0.929 . S
H1996 C2000 0.929 . S
H1997 C2006 0.929 . S
C1998 H1992 0.930 1_554 S
C1998 C1999 1.367 . S
C1998 C2006 1.378 1_554 S
C1999 C1998 1.367 . S
C1999 C2007 1.433 . S
C2000 H1996 0.929 . S
C2000 C2002 1.378 1_554 S
C2000 C2004 1.350 1_554 S
C2001 C2004 1.463 1_554 S
C2001 C2006 1.350 1_554 S
C2001 N2009 1.427 . S
C2002 H1993 0.930 1_556 S
C2002 C2000 1.378 1_556 S
C2002 C2003 1.367 . S
C2003 C2002 1.367 . S
C2003 C2005 1.433 . S
C2004 C2000 1.350 1_556 S
C2004 C2001 1.463 1_556 S
C2004 N2008 1.427 . S
C2005 H1995 0.929 . S
C2005 C2003 1.433 . S
C2005 N2008 1.384 . S
C2006 H1997 0.929 . S
C2006 C1998 1.378 1_556 S
C2006 C2001 1.350 1_556 S
C2007 H1994 0.929 . S
C2007 C1999 1.433 . S
C2007 N2009 1.384 . S
N2008 C2004 1.427 . S
N2008 C2005 1.384 . S
N2009 C2001 1.427 . S
N2009 C2007 1.384 . S
H2010 C2016 0.930 . S
H2011 C2020 0.930 . S
H2012 C2025 0.929 . S
H2013 C2023 0.929 . S
H2014 C2018 0.929 . S
H2015 C2024 0.929 . S
C2016 H2010 0.930 . S
C2016 C2017 1.367 . S
C2016 C2024 1.378 . S
C2017 C2016 1.367 . S
C2017 C2025 1.433 . S
C2018 H2014 0.929 . S
C2018 C2020 1.378 . S
C2018 C2022 1.350 . S
C2019 C2022 1.463 . S
C2019 C2024 1.350 . S
C2019 N2027 1.427 . S
C2020 H2011 0.930 . S
C2020 C2018 1.378 . S
C2020 C2021 1.367 . S
C2021 C2020 1.367 . S
C2021 C2023 1.433 . S
C2022 C2018 1.350 . S
C2022 C2019 1.463 . S
C2022 N2026 1.427 . S
C2023 H2013 0.929 . S
C2023 C2021 1.433 . S
C2023 N2026 1.384 . S
C2024 H2015 0.929 . S
C2024 C2016 1.378 . S
C2024 C2019 1.350 . S
C2025 H2012 0.929 . S
C2025 C2017 1.433 . S
C2025 N2027 1.384 . S
N2026 C2022 1.427 . S
N2026 C2023 1.384 . S
N2027 C2019 1.427 . S
N2027 C2025 1.384 . S
H2028 C2034 0.930 . S
H2029 C2038 0.930 . S
H2030 C2043 0.929 . S
H2031 C2041 0.929 . S
H2032 C2036 0.929 . S
H2033 C2042 0.929 . S
C2034 H2028 0.930 . S
C2034 C2035 1.367 . S
C2034 C2042 1.378 . S
C2035 C2034 1.367 . S
C2035 C2043 1.433 . S
C2036 H2032 0.929 . S
C2036 C2038 1.378 . S
C2036 C2040 1.350 . S
C2037 C2040 1.463 . S
C2037 C2042 1.350 . S
C2037 N2045 1.427 . S
C2038 H2029 0.930 . S
C2038 C2036 1.378 . S
C2038 C2039 1.367 . S
C2039 C2038 1.367 . S
C2039 C2041 1.433 . S
C2040 C2036 1.350 . S
C2040 C2037 1.463 . S
C2040 N2044 1.427 . S
C2041 H2031 0.929 . S
C2041 C2039 1.433 . S
C2041 N2044 1.384 . S
C2042 H2033 0.929 . S
C2042 C2034 1.378 . S
C2042 C2037 1.350 . S
C2043 H2030 0.929 . S
C2043 C2035 1.433 . S
C2043 N2045 1.384 . S
N2044 C2040 1.427 . S
N2044 C2041 1.384 . S
N2045 C2037 1.427 . S
N2045 C2043 1.384 . S
H2046 C2052 0.930 . S
H2047 C2056 0.930 . S
H2048 C2061 0.929 . S
H2049 C2059 0.929 . S
H2050 C2054 0.929 . S
H2051 C2060 0.929 . S
C2052 H2046 0.930 . S
C2052 C2053 1.367 . S
C2052 C2060 1.378 . S
C2053 C2052 1.367 . S
C2053 C2061 1.433 . S
C2054 H2050 0.929 . S
C2054 C2056 1.378 . S
C2054 C2058 1.350 . S
C2055 C2058 1.463 . S
C2055 C2060 1.350 . S
C2055 N2063 1.427 . S
C2056 H2047 0.930 . S
C2056 C2054 1.378 . S
C2056 C2057 1.367 . S
C2057 C2056 1.367 . S
C2057 C2059 1.433 . S
C2058 C2054 1.350 . S
C2058 C2055 1.463 . S
C2058 N2062 1.427 . S
C2059 H2049 0.929 . S
C2059 C2057 1.433 . S
C2059 N2062 1.384 . S
C2060 H2051 0.929 . S
C2060 C2052 1.378 . S
C2060 C2055 1.350 . S
C2061 H2048 0.929 . S
C2061 C2053 1.433 . S
C2061 N2063 1.384 . S
N2062 C2058 1.427 . S
N2062 C2059 1.384 . S
N2063 C2055 1.427 . S
N2063 C2061 1.384 . S
H2064 C2070 0.930 . S
H2065 C2074 0.930 . S
H2066 C2079 0.929 . S
H2067 C2077 0.929 . S
H2068 C2072 0.922 1_565 S
H2069 C2078 0.929 . S
C2070 H2064 0.930 . S
C2070 C2071 1.367 . S
C2070 C2078 1.378 . S
C2071 C2070 1.367 . S
C2071 C2079 1.433 . S
C2072 H2068 0.922 1_545 S
C2072 C2074 1.378 . S
C2072 C2076 1.350 . S
C2073 C2076 1.463 1_565 S
C2073 C2078 1.350 . S
C2073 N2081 1.427 . S
C2074 H2065 0.930 . S
C2074 C2072 1.378 . S
C2074 C2075 1.367 . S
C2075 C2074 1.367 . S
C2075 C2077 1.433 . S
C2076 C2072 1.350 . S
C2076 C2073 1.463 1_545 S
C2076 N2080 1.427 . S
C2077 H2067 0.929 . S
C2077 C2075 1.433 . S
C2077 N2080 1.384 . S
C2078 H2069 0.929 . S
C2078 C2070 1.378 . S
C2078 C2073 1.350 . S
C2079 H2066 0.929 . S
C2079 C2071 1.433 . S
C2079 N2081 1.384 . S
N2080 C2076 1.427 . S
N2080 C2077 1.384 . S
N2081 C2073 1.427 . S
N2081 C2079 1.384 . S
H2082 C2088 0.930 . S
H2083 C2092 0.930 . S
H2084 C2097 0.929 . S
H2085 C2095 0.929 . S
H2086 C2090 0.929 . S
H2087 C2096 0.929 . S
C2088 H2082 0.930 . S
C2088 C2089 1.367 . S
C2088 C2096 1.378 . S
C2089 C2088 1.367 . S
C2089 C2097 1.433 . S
C2090 H2086 0.929 . S
C2090 C2092 1.378 . S
C2090 C2094 1.350 . S
C2091 C2094 1.463 . S
C2091 C2096 1.350 . S
C2091 N2099 1.427 . S
C2092 H2083 0.930 . S
C2092 C2090 1.378 . S
C2092 C2093 1.367 . S
C2093 C2092 1.367 . S
C2093 C2095 1.433 . S
C2094 C2090 1.350 . S
C2094 C2091 1.463 . S
C2094 N2098 1.427 . S
C2095 H2085 0.929 . S
C2095 C2093 1.433 . S
C2095 N2098 1.384 . S
C2096 H2087 0.929 . S
C2096 C2088 1.378 . S
C2096 C2091 1.350 . S
C2097 H2084 0.929 . S
C2097 C2089 1.433 . S
C2097 N2099 1.384 . S
N2098 C2094 1.427 . S
N2098 C2095 1.384 . S
N2099 C2091 1.427 . S
N2099 C2097 1.384 . S
H2100 C2106 0.930 . S
H2101 C2110 0.930 . S
H2102 C2115 0.929 . S
H2103 C2113 0.929 . S
H2104 C2108 0.929 . S
H2105 C2114 0.929 . S
C2106 H2100 0.930 . S
C2106 C2107 1.367 . S
C2106 C2114 1.378 1_554 S
C2107 C2106 1.367 . S
C2107 C2115 1.433 . S
C2108 H2104 0.929 . S
C2108 C2110 1.378 1_554 S
C2108 C2112 1.350 1_554 S
C2109 C2112 1.463 1_564 S
C2109 C2114 1.350 1_554 S
C2109 N2117 1.427 . S
C2110 H2101 0.930 . S
C2110 C2108 1.378 1_556 S
C2110 C2111 1.367 . S
C2111 C2110 1.367 . S
C2111 C2113 1.433 . S
C2112 C2108 1.350 1_556 S
C2112 C2109 1.463 1_546 S
C2112 N2116 1.427 . S
C2113 H2103 0.929 . S
C2113 C2111 1.433 . S
C2113 N2116 1.384 . S
C2114 H2105 0.929 . S
C2114 C2106 1.378 1_556 S
C2114 C2109 1.350 1_556 S
C2115 H2102 0.929 . S
C2115 C2107 1.433 . S
C2115 N2117 1.384 . S
N2116 C2112 1.427 . S
N2116 C2113 1.384 . S
N2117 C2109 1.427 . S
N2117 C2115 1.384 . S
H2118 C2124 0.930 . S
H2119 C2128 0.930 . S
H2120 C2133 0.929 . S
H2121 C2131 0.929 . S
H2122 C2126 0.929 . S
H2123 C2132 0.929 . S
C2124 H2118 0.930 . S
C2124 C2125 1.367 . S
C2124 C2132 1.378 . S
C2125 C2124 1.367 . S
C2125 C2133 1.433 . S
C2126 H2122 0.929 . S
C2126 C2128 1.378 . S
C2126 C2130 1.350 . S
C2127 C2130 1.463 . S
C2127 C2132 1.350 . S
C2127 N2135 1.427 . S
C2128 H2119 0.930 . S
C2128 C2126 1.378 . S
C2128 C2129 1.367 . S
C2129 C2128 1.367 . S
C2129 C2131 1.433 . S
C2130 C2126 1.350 . S
C2130 C2127 1.463 . S
C2130 N2134 1.427 . S
C2131 H2121 0.929 . S
C2131 C2129 1.433 . S
C2131 N2134 1.384 . S
C2132 H2123 0.929 . S
C2132 C2124 1.378 . S
C2132 C2127 1.350 . S
C2133 H2120 0.929 . S
C2133 C2125 1.433 . S
C2133 N2135 1.384 . S
N2134 C2130 1.427 . S
N2134 C2131 1.384 . S
N2135 C2127 1.427 . S
N2135 C2133 1.384 . S
H2136 C2142 0.930 . S
H2137 C2146 0.930 . S
H2138 C2151 0.929 . S
H2139 C2149 0.929 . S
H2140 C2144 0.929 . S
H2141 C2150 0.929 . S
C2142 H2136 0.930 . S
C2142 C2143 1.367 . S
C2142 C2150 1.378 . S
C2143 C2142 1.367 . S
C2143 C2151 1.433 . S
C2144 H2140 0.929 . S
C2144 C2146 1.378 . S
C2144 C2148 1.350 . S
C2145 C2148 1.463 1_565 S
C2145 C2150 1.350 . S
C2145 N2153 1.427 . S
C2146 H2137 0.930 . S
C2146 C2144 1.378 . S
C2146 C2147 1.367 . S
C2147 C2146 1.367 . S
C2147 C2149 1.433 . S
C2148 C2144 1.350 . S
C2148 C2145 1.463 1_545 S
C2148 N2152 1.427 . S
C2149 H2139 0.929 . S
C2149 C2147 1.433 . S
C2149 N2152 1.384 . S
C2150 H2141 0.929 . S
C2150 C2142 1.378 . S
C2150 C2145 1.350 . S
C2151 H2138 0.929 . S
C2151 C2143 1.433 . S
C2151 N2153 1.384 . S
N2152 C2148 1.427 . S
N2152 C2149 1.384 . S
N2153 C2145 1.427 . S
N2153 C2151 1.384 . S
H2154 C2160 0.930 . S
H2155 C2164 0.930 . S
H2156 C2169 0.929 . S
H2157 C2167 0.929 . S
H2158 C2162 0.929 . S
H2159 C2168 0.929 . S
C2160 H2154 0.930 . S
C2160 C2161 1.367 . S
C2160 C2168 1.378 . S
C2161 C2160 1.367 . S
C2161 C2169 1.433 . S
C2162 H2158 0.929 . S
C2162 C2164 1.378 . S
C2162 C2166 1.350 . S
C2163 C2166 1.463 . S
C2163 C2168 1.350 . S
C2163 N2171 1.427 . S
C2164 H2155 0.930 . S
C2164 C2162 1.378 . S
C2164 C2165 1.367 . S
C2165 C2164 1.367 . S
C2165 C2167 1.433 . S
C2166 C2162 1.350 . S
C2166 C2163 1.463 . S
C2166 N2170 1.427 . S
C2167 H2157 0.929 . S
C2167 C2165 1.433 . S
C2167 N2170 1.384 . S
C2168 H2159 0.929 . S
C2168 C2160 1.378 . S
C2168 C2163 1.350 . S
C2169 H2156 0.929 . S
C2169 C2161 1.433 . S
C2169 N2171 1.384 . S
N2170 C2166 1.427 . S
N2170 C2167 1.384 . S
N2171 C2163 1.427 . S
N2171 C2169 1.384 . S
H2172 C2178 0.930 . S
H2173 C2182 0.930 . S
H2174 C2187 0.929 . S
H2175 C2185 0.929 . S
H2176 C2180 0.958 . S
H2177 C2186 0.929 . S
C2178 H2172 0.930 . S
C2178 C2179 1.367 . S
C2178 C2186 1.378 . S
C2179 C2178 1.367 . S
C2179 C2187 1.433 . S
C2180 H2176 0.958 . S
C2180 C2182 1.378 . S
C2180 C2184 1.350 . S
C2181 C2184 1.463 1_546 S
C2181 C2186 1.350 . S
C2181 N2189 1.427 1_556 S
C2182 H2173 0.930 . S
C2182 C2180 1.378 . S
C2182 C2183 1.367 . S
C2183 C2182 1.367 . S
C2183 C2185 1.433 . S
C2184 C2180 1.350 . S
C2184 C2181 1.463 1_564 S
C2184 N2188 1.427 1_554 S
C2185 H2175 0.929 . S
C2185 C2183 1.433 . S
C2185 N2188 1.384 1_554 S
C2186 H2177 0.929 . S
C2186 C2178 1.378 . S
C2186 C2181 1.350 . S
C2187 H2174 0.929 . S
C2187 C2179 1.433 . S
C2187 N2189 1.384 1_556 S
N2188 C2184 1.427 1_556 S
N2188 C2185 1.384 1_556 S
N2189 C2181 1.427 1_554 S
N2189 C2187 1.384 1_554 S
H2190 C2196 0.930 . S
H2191 C2200 0.930 . S
H2192 C2205 0.929 . S
H2193 C2203 0.929 . S
H2194 C2198 0.929 . S
H2195 C2204 0.929 . S
C2196 H2190 0.930 . S
C2196 C2197 1.367 . S
C2196 C2204 1.378 . S
C2197 C2196 1.367 . S
C2197 C2205 1.433 . S
C2198 H2194 0.929 . S
C2198 C2200 1.378 . S
C2198 C2202 1.350 . S
C2199 C2202 1.463 . S
C2199 C2204 1.350 . S
C2199 N2207 1.427 . S
C2200 H2191 0.930 . S
C2200 C2198 1.378 . S
C2200 C2201 1.367 . S
C2201 C2200 1.367 . S
C2201 C2203 1.433 . S
C2202 C2198 1.350 . S
C2202 C2199 1.463 . S
C2202 N2206 1.427 . S
C2203 H2193 0.929 . S
C2203 C2201 1.433 . S
C2203 N2206 1.384 . S
C2204 H2195 0.929 . S
C2204 C2196 1.378 . S
C2204 C2199 1.350 . S
C2205 H2192 0.929 . S
C2205 C2197 1.433 . S
C2205 N2207 1.384 . S
N2206 C2202 1.427 . S
N2206 C2203 1.384 . S
N2207 C2199 1.427 . S
N2207 C2205 1.384 . S
C1351 C69 1.544 . S
C1355 C58 1.544 . S
C1369 C142 1.536 . S
C1373 C153 1.536 . S
C1387 C226 1.543 . S
C1391 C237 1.550 . S
C1405 C321 1.546 . S
C1409 C310 1.546 . S
C1423 C405 1.551 . S
C1427 C394 1.551 . S
C1441 C489 1.537 . S
C1445 C478 1.537 . S
C1459 C562 1.544 . S
C1463 C573 1.544 . S
C1477 C657 1.543 1_554 S
C1481 C646 1.553 . S
C1495 C741 1.565 . S
C1499 C730 1.565 . S
C1513 C814 1.545 . S
C1517 C825 1.545 . S
C1531 C898 1.539 . S
C1535 C909 1.539 . S
C1549 C982 1.528 . S
C1553 C993 1.528 . S
C1567 C1066 1.535 . S
C1571 C1077 1.535 . S
C1585 C1161 1.536 . S
C1589 C1150 1.536 . S
C1603 C1245 1.540 . S
C1607 C1234 1.540 1_554 S
C1621 C1329 1.552 . S
C1625 C1318 1.553 . S
C1639 C63 1.714 . S
C1643 C991 1.767 . S
C1657 C140 1.746 . S
C1661 C1327 1.752 . S
C1675 C224 1.769 . S
C1679 C830 1.719 . S
C1693 C315 1.706 . S
C1697 C1159 1.765 . S
C1711 C399 1.731 . S
C1715 C1166 1.722 . S
C1729 C998 1.700 . S
C1733 C476 1.768 . S
C1747 C560 1.762 . S
C1751 C1334 1.712 . S
C1765 C651 1.705 . S
C1769 C823 1.760 . S
C1783 C308 1.763 . S
C1787 C739 1.760 . S
C1801 C147 1.689 . S
C1805 C907 1.755 . S
C1819 C1082 1.700 . S
C1823 C483 1.719 . S
C1837 C644 1.762 . S
C1841 C1243 1.761 . S
C1855 C746 1.727 . S
C1859 C392 1.776 . S
C1873 C567 1.718 . S
C1877 C914 1.707 . S
C1891 C231 1.707 . S
C1895 C1250 1.721 . S
C1909 C56 1.768 . S
C1913 C1075 1.763 . S
C1927 C74 1.668 . S
C1931 C410 1.668 . S
C1945 C151 1.631 . S
C1949 C487 1.626 . S
C1963 C235 1.652 . S
C1967 C571 1.654 . S
C1981 C326 1.644 . S
C1985 C662 1.646 . S
C1999 C1071 1.634 . S
C2003 C728 1.618 . S
C2017 C1148 1.634 . S
C2021 C812 1.633 . S
C2035 C896 1.645 . S
C2039 C1232 1.645 . S
C2053 C1316 1.628 . S
C2057 C987 1.644 . S
C2071 C158 1.624 . S
C2075 C655 1.616 . S
C2089 C403 1.668 . S
C2093 C242 1.685 . S
C2107 C494 1.664 . S
C2111 C319 1.646 . S
C2125 C67 1.636 . S
C2129 C578 1.647 . S
C2143 C1323 1.662 . S
C2147 C819 1.662 . S
C2161 C1064 1.664 . S
C2165 C903 1.681 . S
C2179 C1155 1.662 . S
C2183 C980 1.652 . S
C2197 C1239 1.649 . S
C2201 C735 1.648 . S
