# Generated by pormake.
# Topology unp, (4)-cn, num edge types: 1
# Building blocks:
#     Node 0, Type 0, BuildingBlock: GALJAG_clean_sbu_0, # of connection points: 4
#     Node 1, Type 0, BuildingBlock: GALJAG_clean_sbu_0, # of connection points: 4
#     Node 2, Type 0, BuildingBlock: GALJAG_clean_sbu_0, # of connection points: 4
#     Node 3, Type 0, BuildingBlock: GALJAG_clean_sbu_0, # of connection points: 4
#     Node 4, Type 0, BuildingBlock: GALJAG_clean_sbu_0, # of connection points: 4
#     Node 5, Type 0, BuildingBlock: GALJAG_clean_sbu_0, # of connection points: 4
#     Node 6, Type 0, BuildingBlock: GALJAG_clean_sbu_0, # of connection points: 4
#     Node 7, Type 0, BuildingBlock: GALJAG_clean_sbu_0, # of connection points: 4
#     Node 8, Type 0, BuildingBlock: GALJAG_clean_sbu_0, # of connection points: 4
#     Node 9, Type 0, BuildingBlock: GALJAG_clean_sbu_0, # of connection points: 4
#     Node 10, Type 0, BuildingBlock: GALJAG_clean_sbu_0, # of connection points: 4
#     Node 11, Type 0, BuildingBlock: GALJAG_clean_sbu_0, # of connection points: 4
#     Node 12, Type 0, BuildingBlock: GALJAG_clean_sbu_0, # of connection points: 4
#     Node 13, Type 0, BuildingBlock: GALJAG_clean_sbu_0, # of connection points: 4
#     Node 14, Type 0, BuildingBlock: GALJAG_clean_sbu_0, # of connection points: 4
#     Node 15, Type 0, BuildingBlock: GALJAG_clean_sbu_0, # of connection points: 4
#     Node 16, Type 0, BuildingBlock: GALJAG_clean_sbu_0, # of connection points: 4
#     Node 17, Type 0, BuildingBlock: GALJAG_clean_sbu_0, # of connection points: 4
#     Edge 18, Type (0, 0), BuildingBlock: KIFKEQ_clean_linker_1, # of connection points: 2
#     Edge 19, Type (0, 0), BuildingBlock: KIFKEQ_clean_linker_1, # of connection points: 2
#     Edge 20, Type (0, 0), BuildingBlock: KIFKEQ_clean_linker_1, # of connection points: 2
#     Edge 21, Type (0, 0), BuildingBlock: KIFKEQ_clean_linker_1, # of connection points: 2
#     Edge 22, Type (0, 0), BuildingBlock: KIFKEQ_clean_linker_1, # of connection points: 2
#     Edge 23, Type (0, 0), BuildingBlock: KIFKEQ_clean_linker_1, # of connection points: 2
#     Edge 24, Type (0, 0), BuildingBlock: KIFKEQ_clean_linker_1, # of connection points: 2
#     Edge 25, Type (0, 0), BuildingBlock: KIFKEQ_clean_linker_1, # of connection points: 2
#     Edge 26, Type (0, 0), BuildingBlock: KIFKEQ_clean_linker_1, # of connection points: 2
#     Edge 27, Type (0, 0), BuildingBlock: KIFKEQ_clean_linker_1, # of connection points: 2
#     Edge 28, Type (0, 0), BuildingBlock: KIFKEQ_clean_linker_1, # of connection points: 2
#     Edge 29, Type (0, 0), BuildingBlock: KIFKEQ_clean_linker_1, # of connection points: 2
#     Edge 30, Type (0, 0), BuildingBlock: KIFKEQ_clean_linker_1, # of connection points: 2
#     Edge 31, Type (0, 0), BuildingBlock: KIFKEQ_clean_linker_1, # of connection points: 2
#     Edge 32, Type (0, 0), BuildingBlock: KIFKEQ_clean_linker_1, # of connection points: 2
#     Edge 33, Type (0, 0), BuildingBlock: KIFKEQ_clean_linker_1, # of connection points: 2
#     Edge 34, Type (0, 0), BuildingBlock: KIFKEQ_clean_linker_1, # of connection points: 2
#     Edge 35, Type (0, 0), BuildingBlock: KIFKEQ_clean_linker_1, # of connection points: 2
#     Edge 36, Type (0, 0), BuildingBlock: KIFKEQ_clean_linker_1, # of connection points: 2
#     Edge 37, Type (0, 0), BuildingBlock: KIFKEQ_clean_linker_1, # of connection points: 2
#     Edge 38, Type (0, 0), BuildingBlock: KIFKEQ_clean_linker_1, # of connection points: 2
#     Edge 39, Type (0, 0), BuildingBlock: KIFKEQ_clean_linker_1, # of connection points: 2
#     Edge 40, Type (0, 0), BuildingBlock: KIFKEQ_clean_linker_1, # of connection points: 2
#     Edge 41, Type (0, 0), BuildingBlock: KIFKEQ_clean_linker_1, # of connection points: 2
#     Edge 42, Type (0, 0), BuildingBlock: KIFKEQ_clean_linker_1, # of connection points: 2
#     Edge 43, Type (0, 0), BuildingBlock: KIFKEQ_clean_linker_1, # of connection points: 2
#     Edge 44, Type (0, 0), BuildingBlock: KIFKEQ_clean_linker_1, # of connection points: 2
#     Edge 45, Type (0, 0), BuildingBlock: KIFKEQ_clean_linker_1, # of connection points: 2
#     Edge 46, Type (0, 0), BuildingBlock: KIFKEQ_clean_linker_1, # of connection points: 2
#     Edge 47, Type (0, 0), BuildingBlock: KIFKEQ_clean_linker_1, # of connection points: 2
#     Edge 48, Type (0, 0), BuildingBlock: KIFKEQ_clean_linker_1, # of connection points: 2
#     Edge 49, Type (0, 0), BuildingBlock: KIFKEQ_clean_linker_1, # of connection points: 2
#     Edge 50, Type (0, 0), BuildingBlock: KIFKEQ_clean_linker_1, # of connection points: 2
#     Edge 51, Type (0, 0), BuildingBlock: KIFKEQ_clean_linker_1, # of connection points: 2
#     Edge 52, Type (0, 0), BuildingBlock: KIFKEQ_clean_linker_1, # of connection points: 2
#     Edge 53, Type (0, 0), BuildingBlock: KIFKEQ_clean_linker_1, # of connection points: 2
# Relax obj value: 0.397
# Max RMSD: 0.139
# Mean RMSD: 0.139
data_MOF--net-unp--node1-GALJAG_clean_sbu_0--edge1-KIFKEQ_clean_linker_1
_symmetry_space_group_name_H-M    P1
_symmetry_Int_Tables_number       1
_symmetry_cell_setting            triclinic
loop_
_symmetry_equiv_pos_as_xyz
'x, y, z'
_cell_length_a     50.542257
_cell_length_b     50.516942
_cell_length_c     43.294047
_cell_angle_alpha  90.016258
_cell_angle_beta   89.959581
_cell_angle_gamma 119.96443
loop_
_atom_site_label
_atom_site_type_symbol
_atom_site_fract_x
_atom_site_fract_y
_atom_site_fract_z
_atom_type_partial_charge
In0 In 0.17056 0.15907 0.17996 0.0
O1 O 0.20633 0.20952 0.18664 0.0
O2 O 0.21853 0.17641 0.19852 0.0
C3 C 0.12325 0.16493 0.20045 0.0
C4 C 0.16717 0.15633 0.11774 0.0
C5 C 0.1615 0.10386 0.19731 0.0
O6 O 0.13936 0.15923 0.21848 0.0
O7 O 0.13196 0.16903 0.17274 0.0
O8 O 0.17678 0.11772 0.17368 0.0
O9 O 0.15145 0.11823 0.21267 0.0
C10 C 0.22712 0.20431 0.19515 0.0
O11 O 0.14892 0.13437 0.13462 0.0
O12 O 0.18685 0.17945 0.13224 0.0
In13 In 0.84257 0.01077 0.18089 0.0
O14 O 0.79272 -5e-05 0.1792 0.0
O15 O 0.82555 0.04175 0.19928 0.0
C16 C 0.83336 0.95864 0.20822 0.0
C17 C 0.84784 0.01323 0.11886 0.0
C18 C 0.90137 0.051 0.1944 0.0
O19 O 0.84627 0.98405 0.22192 0.0
O20 O 0.82344 0.95935 0.18176 0.0
O21 O 0.89289 0.0362 0.1695 0.0
O22 O 0.88014 0.04509 0.21341 0.0
C23 C 0.79827 0.02502 0.19093 0.0
O24 O 0.85082 0.03551 0.13476 0.0
O25 O 0.84183 0.98965 0.13423 0.0
In26 In 0.98062 0.83613 0.17681 0.0
O27 O 0.97464 0.86051 0.1351 0.0
O28 O 0.9685 0.81617 0.12837 0.0
C29 C 0.93802 0.84445 0.20601 0.0
C30 C 0.97608 0.78143 0.1882 0.0
C31 C 0.03716 0.88278 0.18924 0.0
O32 O 0.93156 0.82568 0.18418 0.0
O33 O 0.96579 0.85836 0.21369 0.0
O34 O 0.01946 0.86589 0.21029 0.0
O35 O 0.02679 0.87513 0.16226 0.0
C36 C 0.96868 0.83902 0.11649 0.0
O37 O 0.99772 0.80206 0.17281 0.0
O38 O 0.95814 0.7893 0.19975 0.0
In39 In 0.16059 0.16555 0.82384 0.0
O40 O 0.20787 0.20597 0.81039 0.0
O41 O 0.17198 0.21471 0.82052 0.0
C42 C 0.16679 0.11973 0.79855 0.0
C43 C 0.1616 0.15817 0.88536 0.0
C44 C 0.10484 0.15506 0.80746 0.0
O45 O 0.15487 0.13282 0.78418 0.0
O46 O 0.17715 0.13097 0.82469 0.0
O47 O 0.11315 0.15683 0.83525 0.0
O48 O 0.12477 0.15863 0.78766 0.0
C49 C 0.19972 0.22565 0.81396 0.0
O50 O 0.13771 0.14302 0.86947 0.0
O51 O 0.18486 0.17672 0.87017 0.0
In52 In 0.83876 0.99226 0.83115 0.0
O53 O 0.86 0.98755 0.87571 0.0
O54 O 0.85177 0.02479 0.87186 0.0
C55 C 0.83343 0.93901 0.81235 0.0
C56 C 0.78044 0.98009 0.83476 0.0
C57 C 0.88571 0.03705 0.79905 0.0
O58 O 0.8377 0.94763 0.84018 0.0
O59 O 0.83049 0.95677 0.79389 0.0
O60 O 0.88157 0.0105 0.8021 0.0
O61 O 0.86533 0.0411 0.81128 0.0
C62 C 0.8608 0.01039 0.88854 0.0
O63 O 0.79526 0.98917 0.80975 0.0
O64 O 0.79476 0.97672 0.85664 0.0
In65 In 0.00329 0.85054 0.83132 0.0
O66 O 0.00542 0.87602 0.87553 0.0
O67 O 0.96945 0.83008 0.87107 0.0
C68 C 0.0553 0.90123 0.81473 0.0
C69 C 0.02034 0.80763 0.83474 0.0
C70 C 0.95676 0.84805 0.79806 0.0
O71 O 0.04561 0.89548 0.84216 0.0
O72 O 0.03903 0.88084 0.79528 0.0
O73 O 0.98266 0.87163 0.80019 0.0
O74 O 0.95455 0.82487 0.81151 0.0
C75 C 0.9824 0.8537 0.88771 0.0
O76 O 0.0102 0.81234 0.80991 0.0
O77 O 0.02186 0.82445 0.85681 0.0
In78 In 0.83891 0.48965 0.50433 0.0
O79 O 0.8736 0.54089 0.50835 0.0
O80 O 0.88705 0.50928 0.52282 0.0
C81 C 0.7897 0.49453 0.5206 0.0
C82 C 0.8393 0.48519 0.44234 0.0
C83 C 0.83068 0.43606 0.52655 0.0
O84 O 0.80607 0.49105 0.5403 0.0
O85 O 0.79928 0.49738 0.4933 0.0
O86 O 0.8378 0.44426 0.49886 0.0
O87 O 0.82822 0.45517 0.54329 0.0
C88 C 0.89488 0.53681 0.51791 0.0
O89 O 0.81699 0.4664 0.45858 0.0
O90 O 0.86128 0.50582 0.45741 0.0
In91 In 0.51076 0.34523 0.50422 0.0
O92 O 0.46039 0.33149 0.51007 0.0
O93 O 0.49369 0.37548 0.52499 0.0
C94 C 0.50992 0.29293 0.51859 0.0
C95 C 0.50787 0.34476 0.44204 0.0
C96 C 0.5662 0.38858 0.52432 0.0
O97 O 0.5021 0.30641 0.5381 0.0
O98 O 0.51804 0.30595 0.49272 0.0
O99 O 0.55334 0.392 0.50091 0.0
O100 O 0.55077 0.36339 0.53823 0.0
C101 C 0.46583 0.35703 0.52029 0.0
O102 O 0.53067 0.36472 0.45676 0.0
O103 O 0.48664 0.32517 0.45865 0.0
In104 In 0.65374 0.16907 0.51012 0.0
O105 O 0.65678 0.12769 0.49442 0.0
O106 O 0.6397 0.12608 0.53937 0.0
C107 C 0.69976 0.2192 0.53684 0.0
C108 C 0.66308 0.18401 0.44965 0.0
C109 C 0.60211 0.16674 0.52982 0.0
O110 O 0.7012 0.19513 0.53332 0.0
O111 O 0.67557 0.2176 0.52715 0.0
O112 O 0.60452 0.15774 0.50326 0.0
O113 O 0.62526 0.17547 0.5469 0.0
C114 C 0.64576 0.11241 0.51864 0.0
O115 O 0.63777 0.1754 0.46276 0.0
O116 O 0.68373 0.18548 0.46711 0.0
In117 In 0.83502 0.50183 0.14864 0.0
O118 O 0.82467 0.4729 0.19243 0.0
O119 O 0.846 0.5211 0.19734 0.0
C120 C 0.7769 0.48822 0.13837 0.0
C121 C 0.87563 0.56112 0.1368 0.0
C122 C 0.84491 0.46036 0.11884 0.0
O123 O 0.78666 0.48617 0.16454 0.0
O124 O 0.79652 0.49716 0.11698 0.0
O125 O 0.82664 0.46857 0.10911 0.0
O126 O 0.85972 0.47459 0.14245 0.0
C127 C 0.83568 0.49555 0.21049 0.0
O128 O 0.88398 0.54216 0.14377 0.0
O129 O 0.84723 0.54959 0.13361 0.0
In130 In 0.50285 0.33448 0.14802 0.0
O131 O 0.50304 0.31494 0.19534 0.0
O132 O 0.50132 0.35616 0.19349 0.0
C133 C 0.51849 0.29338 0.12917 0.0
C134 C 0.44452 0.31868 0.13419 0.0
C135 C 0.55377 0.38632 0.13081 0.0
O136 O 0.51005 0.29423 0.15642 0.0
O137 O 0.51876 0.31317 0.11111 0.0
O138 O 0.53531 0.36794 0.11113 0.0
O139 O 0.54587 0.37903 0.15845 0.0
C140 C 0.50195 0.33595 0.21008 0.0
O141 O 0.4645 0.34579 0.14025 0.0
O142 O 0.45466 0.30054 0.13254 0.0
In143 In 0.69371 0.19665 0.15712 0.0
O144 O 0.71308 0.20986 0.20584 0.0
O145 O 0.66508 0.18963 0.2004 0.0
C146 C 0.74586 0.24505 0.13724 0.0
C147 C 0.69699 0.14515 0.14884 0.0
C148 C 0.65102 0.20579 0.12949 0.0
O149 O 0.73994 0.23849 0.16551 0.0
O150 O 0.72578 0.22645 0.11876 0.0
O151 O 0.64807 0.17949 0.13115 0.0
O152 O 0.67505 0.22672 0.14146 0.0
C153 C 0.68753 0.20064 0.21863 0.0
O154 O 0.67834 0.14651 0.16706 0.0
O155 O 0.71276 0.16918 0.13348 0.0
In156 In 0.5035 0.81685 0.84766 0.0
O157 O 0.5387 0.86713 0.8407 0.0
O158 O 0.5476 0.84319 0.87545 0.0
C159 C 0.45715 0.82539 0.86567 0.0
C160 C 0.49543 0.80165 0.78728 0.0
C161 C 0.49891 0.76483 0.87012 0.0
O162 O 0.46865 0.81382 0.88313 0.0
O163 O 0.47016 0.83417 0.83982 0.0
O164 O 0.51626 0.77937 0.84789 0.0
O165 O 0.48465 0.77705 0.88158 0.0
C166 C 0.55709 0.86774 0.86061 0.0
O167 O 0.4735 0.7914 0.80617 0.0
O168 O 0.52125 0.81917 0.79894 0.0
In169 In 0.17979 0.68282 0.83302 0.0
O170 O 0.12979 0.67059 0.83896 0.0
O171 O 0.16454 0.71486 0.85226 0.0
C172 C 0.17325 0.6295 0.85486 0.0
C173 C 0.18072 0.6812 0.77092 0.0
C174 C 0.23617 0.72866 0.84777 0.0
O175 O 0.18178 0.65269 0.87171 0.0
O176 O 0.16616 0.63266 0.82783 0.0
O177 O 0.22586 0.72373 0.82059 0.0
O178 O 0.21784 0.71074 0.8678 0.0
C179 C 0.13639 0.69664 0.84892 0.0
O180 O 0.1992 0.6775 0.78746 0.0
O181 O 0.16203 0.68605 0.78573 0.0
In182 In 0.32662 0.50453 0.83833 0.0
O183 O 0.33946 0.46738 0.83404 0.0
O184 O 0.30398 0.45968 0.86521 0.0
C185 C 0.38258 0.54714 0.8578 0.0
C186 C 0.32169 0.50832 0.77663 0.0
C187 C 0.28315 0.5168 0.85887 0.0
O188 O 0.36122 0.53119 0.87645 0.0
O189 O 0.37599 0.54036 0.82974 0.0
O190 O 0.27749 0.4956 0.84005 0.0
O191 O 0.3105 0.53135 0.86778 0.0
C192 C 0.31909 0.44909 0.85226 0.0
O193 O 0.33442 0.53171 0.79362 0.0
O194 O 0.31111 0.4833 0.79083 0.0
In195 In 0.48595 0.82684 0.50146 0.0
O196 O 0.5255 0.87054 0.47941 0.0
O197 O 0.51391 0.87202 0.52603 0.0
C198 C 0.48918 0.78189 0.47059 0.0
C199 C 0.47844 0.80313 0.55856 0.0
C200 C 0.43432 0.82519 0.48251 0.0
O201 O 0.47027 0.79029 0.46392 0.0
O202 O 0.50762 0.79726 0.49171 0.0
O203 O 0.43894 0.82062 0.51013 0.0
O204 O 0.45621 0.83142 0.46426 0.0
C205 C 0.53105 0.88611 0.50376 0.0
O206 O 0.45929 0.80907 0.54637 0.0
O207 O 0.50092 0.80848 0.54163 0.0
In208 In 0.16977 0.66019 0.47698 0.0
O209 O 0.19678 0.67621 0.52201 0.0
O210 O 0.14848 0.64866 0.52491 0.0
C211 C 0.17727 0.61174 0.46591 0.0
C212 C 0.11329 0.64981 0.46248 0.0
C213 C 0.21678 0.71102 0.45153 0.0
O214 O 0.17829 0.62227 0.49256 0.0
O215 O 0.17232 0.62563 0.44439 0.0
O216 O 0.20828 0.6845 0.4417 0.0
O217 O 0.20025 0.71201 0.47275 0.0
C218 C 0.17347 0.66345 0.53913 0.0
O219 O 0.13344 0.67464 0.47405 0.0
O220 O 0.12253 0.63151 0.45589 0.0
In221 In 0.3351 0.50457 0.48283 0.0
O222 O 0.3328 0.52855 0.52691 0.0
O223 O 0.33698 0.48899 0.53154 0.0
C224 C 0.37913 0.56032 0.46405 0.0
C225 C 0.349 0.46088 0.4684 0.0
C226 C 0.28073 0.49425 0.46094 0.0
O227 O 0.38311 0.54623 0.48599 0.0
O228 O 0.35324 0.54613 0.45142 0.0
O229 O 0.30338 0.50155 0.44353 0.0
O230 O 0.28499 0.49009 0.48877 0.0
C231 C 0.33465 0.50989 0.54488 0.0
O232 O 0.32342 0.45462 0.47937 0.0
O233 O 0.36624 0.48873 0.46221 0.0
H234 H 0.41609 0.34905 0.15603 0.0
H235 H 0.39851 0.26205 0.11973 0.0
H236 H 0.36303 0.32526 0.17401 0.0
H237 H 0.34592 0.23855 0.13761 0.0
H238 H 0.25254 0.26279 0.17309 0.0
H239 H 0.30549 0.29474 0.1559 0.0
H240 H 0.32798 0.22956 0.19422 0.0
H241 H 0.27539 0.19771 0.2113 0.0
C242 C 0.40068 0.32513 0.15102 0.0
C243 C 0.41147 0.30728 0.1368 0.0
C244 C 0.37045 0.31153 0.16151 0.0
C245 C 0.3508 0.27995 0.15799 0.0
C246 C 0.36091 0.2628 0.14136 0.0
C247 C 0.39091 0.27633 0.13082 0.0
C248 C 0.26905 0.25581 0.17871 0.0
C249 C 0.25979 0.22755 0.19317 0.0
C250 C 0.29926 0.27402 0.1687 0.0
C251 C 0.32045 0.26409 0.17297 0.0
C252 C 0.3118 0.23729 0.18995 0.0
C253 C 0.28178 0.21923 0.20001 0.0
H254 H 0.80828 0.08048 0.2098 0.0
H255 H 0.74002 0.99623 0.16758 0.0
H256 H 0.77795 0.10424 0.19696 0.0
H257 H 0.70935 0.02028 0.15523 0.0
H258 H 0.6675 0.0919 0.18181 0.0
H259 H 0.68697 0.05714 0.19327 0.0
H260 H 0.76272 0.10826 0.13152 0.0
H261 H 0.74331 0.14267 0.11959 0.0
C262 C 0.78644 0.06678 0.1985 0.0
C263 C 0.77664 0.03658 0.18946 0.0
C264 C 0.76922 0.08045 0.19106 0.0
C265 C 0.7417 0.06408 0.17483 0.0
C266 C 0.73062 0.03323 0.16771 0.0
C267 C 0.74809 0.01955 0.17488 0.0
C268 C 0.68778 0.09512 0.16995 0.0
C269 C 0.70408 0.12017 0.15003 0.0
C270 C 0.69883 0.07527 0.17655 0.0
C271 C 0.72638 0.08043 0.16346 0.0
C272 C 0.74145 0.10406 0.14191 0.0
C273 C 0.73027 0.12363 0.13505 0.0
H274 H 0.93607 0.59253 0.15363 0.0
H275 H 0.86074 0.60498 0.12636 0.0
H276 H 0.9653 0.64656 0.16882 0.0
H277 H 0.88967 0.65835 0.14182 0.0
H278 H 0.92656 0.7324 0.21329 0.0
H279 H 0.90623 0.67904 0.19903 0.0
H280 H 0.98656 0.70359 0.14421 0.0
H281 H 0.00705 0.75738 0.15825 0.0
C282 C 0.92607 0.60692 0.15017 0.0
C283 C 0.89602 0.5945 0.13906 0.0
C284 C 0.94272 0.6377 0.15902 0.0
C285 C 0.92933 0.65621 0.15715 0.0
C286 C 0.90018 0.64428 0.14408 0.0
C287 C 0.88375 0.6138 0.13498 0.0
C288 C 0.94032 0.72642 0.19887 0.0
C289 C 0.9682 0.74911 0.18656 0.0
C290 C 0.92856 0.69592 0.19054 0.0
C291 C 0.94459 0.68748 0.17001 0.0
C292 C 0.97376 0.70966 0.15994 0.0
C293 C 0.98546 0.74035 0.16806 0.0
H294 H 0.341 0.41902 0.81754 0.0
H295 H 0.27362 0.40471 0.88691 0.0
H296 H 0.31505 0.36404 0.80772 0.0
H297 H 0.24803 0.34989 0.87734 0.0
H298 H 0.18509 0.27026 0.81672 0.0
H299 H 0.2185 0.32371 0.82942 0.0
H300 H 0.29625 0.30999 0.82912 0.0
H301 H 0.26246 0.25585 0.81623 0.0
C302 C 0.32125 0.40406 0.83139 0.0
C303 C 0.30901 0.41617 0.85265 0.0
C304 C 0.3064 0.3726 0.82571 0.0
C305 C 0.27913 0.35288 0.8412 0.0
C306 C 0.26863 0.36474 0.86453 0.0
C307 C 0.28343 0.39609 0.87021 0.0
C308 C 0.20935 0.27863 0.81893 0.0
C309 C 0.22115 0.25884 0.81568 0.0
C310 C 0.22844 0.30919 0.82656 0.0
C311 C 0.25982 0.32076 0.8311 0.0
C312 C 0.27207 0.30152 0.82603 0.0
C313 C 0.25281 0.27067 0.81846 0.0
H314 H 0.73647 0.96575 0.79044 0.0
H315 H 0.75266 0.97789 0.8887 0.0
H316 H 0.6818 0.9453 0.79954 0.0
H317 H 0.69859 0.95847 0.89775 0.0
H318 H 0.60156 0.87281 0.89961 0.0
H319 H 0.65621 0.90698 0.8941 0.0
H320 H 0.64007 0.9529 0.81843 0.0
H321 H 0.58513 0.91823 0.82371 0.0
C322 C 0.72843 0.96476 0.81384 0.0
C323 C 0.74858 0.97279 0.83888 0.0
C324 C 0.6972 0.95321 0.8191 0.0
C325 C 0.68584 0.94984 0.84945 0.0
C326 C 0.70651 0.96013 0.87419 0.0
C327 C 0.73749 0.97131 0.86897 0.0
C328 C 0.60961 0.89069 0.88233 0.0
C329 C 0.58912 0.89269 0.86196 0.0
C330 C 0.64096 0.91037 0.87918 0.0
C331 C 0.6525 0.93249 0.85558 0.0
C332 C 0.63187 0.9358 0.83651 0.0
C333 C 0.60043 0.91613 0.83974 0.0
H334 H 0.07917 0.67067 0.82383 0.0
H335 H 0.14347 0.74649 0.87968 0.0
H336 H 0.04593 0.69311 0.82157 0.0
H337 H 0.11049 0.76872 0.87751 0.0
H338 H 0.03678 0.79157 0.88789 0.0
H339 H 0.05962 0.7595 0.89425 0.0
H340 H 0.05126 0.74129 0.79622 0.0
H341 H 0.0279 0.77344 0.78979 0.0
C342 C 0.08582 0.69172 0.8362 0.0
C343 C 0.11384 0.70687 0.85197 0.0
C344 C 0.06698 0.70467 0.83463 0.0
C345 C 0.07568 0.73268 0.84926 0.0
C346 C 0.10301 0.74696 0.86625 0.0
C347 C 0.12194 0.73427 0.86746 0.0
C348 C 0.03948 0.7805 0.86767 0.0
C349 C 0.03096 0.78536 0.83823 0.0
C350 C 0.05258 0.76214 0.87136 0.0
C351 C 0.05752 0.74819 0.84571 0.0
C352 C 0.04755 0.75167 0.81643 0.0
C353 C 0.03436 0.77016 0.8127 0.0
H354 H 0.9196 0.59451 0.49352 0.0
H355 H 0.94362 0.53211 0.53636 0.0
H356 H 0.97294 0.6271 0.47735 0.0
H357 H 0.99637 0.56434 0.51992 0.0
H358 H 0.06608 0.59547 0.44339 0.0
H359 H 0.01294 0.57296 0.45931 0.0
H360 H 0.03252 0.65791 0.50223 0.0
H361 H 0.08621 0.68068 0.48658 0.0
C362 C 0.93637 0.58826 0.50031 0.0
C363 C 0.9274 0.56058 0.51589 0.0
C364 C 0.96677 0.60679 0.49089 0.0
C365 C 0.98835 0.59769 0.49679 0.0
C366 C 0.97989 0.57145 0.51461 0.0
C367 C 0.94976 0.55316 0.52421 0.0
C368 C 0.059 0.60969 0.45546 0.0
C369 C 0.0804 0.63971 0.46408 0.0
C370 C 0.02864 0.59672 0.46476 0.0
C371 C 0.019 0.61358 0.48254 0.0
C372 C 0.03959 0.64448 0.48869 0.0
C373 C 0.0702 0.65747 0.4796 0.0
H374 H 0.40482 0.4713 0.45015 0.0
H375 H 0.32058 0.40282 0.49212 0.0
H376 H 0.42947 0.44251 0.46559 0.0
H377 H 0.34548 0.37385 0.5075 0.0
H378 H 0.47433 0.41282 0.536 0.0
H379 H 0.44229 0.43408 0.52115 0.0
H380 H 0.37425 0.34621 0.4858 0.0
H381 H 0.40646 0.32473 0.5006 0.0
C382 C 0.39133 0.4497 0.46197 0.0
C383 C 0.36086 0.43949 0.4702 0.0
C384 C 0.40555 0.4334 0.4711 0.0
C385 C 0.38955 0.40644 0.48844 0.0
C386 C 0.35834 0.39473 0.49437 0.0
C387 C 0.3441 0.41122 0.4854 0.0
C388 C 0.45222 0.39779 0.52579 0.0
C389 C 0.44307 0.3672 0.51916 0.0
C390 C 0.43404 0.41005 0.51698 0.0
C391 C 0.40623 0.39193 0.5016 0.0
C392 C 0.39573 0.36068 0.4974 0.0
C393 C 0.4141 0.3484 0.50603 0.0
H394 H 0.60855 0.07068 0.5612 0.0
H395 H 0.66174 0.08054 0.47947 0.0
H396 H 0.58574 0.0155 0.55826 0.0
H397 H 0.63985 0.02525 0.47711 0.0
H398 H 0.55825 0.92793 0.45734 0.0
H399 H 0.59164 0.98304 0.46315 0.0
H400 H 0.59115 0.97196 0.56225 0.0
H401 H 0.55677 0.91732 0.55636 0.0
C402 C 0.61602 0.06105 0.54313 0.0
C403 C 0.63668 0.07983 0.52043 0.0
C404 C 0.60303 0.02937 0.54144 0.0
C405 C 0.61072 0.01581 0.51722 0.0
C406 C 0.63292 0.03485 0.49566 0.0
C407 C 0.64566 0.06653 0.49718 0.0
C408 C 0.56569 0.93735 0.48026 0.0
C409 C 0.55464 0.91855 0.5064 0.0
C410 C 0.58495 0.96889 0.48365 0.0
C411 C 0.59382 0.98205 0.51326 0.0
C412 C 0.58419 0.96277 0.53919 0.0
C413 C 0.56463 0.93143 0.53581 0.0
H414 H 0.08753 0.1329 0.24945 0.0
H415 H 0.09049 0.18585 0.16991 0.0
H416 H 0.03228 0.11142 0.25276 0.0
H417 H 0.0355 0.16504 0.17368 0.0
H418 H 0.92929 0.0787 0.24907 0.0
H419 H 0.98391 0.11529 0.25696 0.0
H420 H -2e-05 0.11111 0.15952 0.0
H421 H 0.94628 0.07508 0.15178 0.0
C422 C 0.07658 0.14099 0.23356 0.0
C423 C 0.09308 0.1605 0.20901 0.0
C424 C 0.04493 0.12871 0.23547 0.0
C425 C 0.02954 0.13599 0.21298 0.0
C426 C 0.04673 0.15852 0.1909 0.0
C427 C 0.07821 0.17053 0.18882 0.0
C428 C 0.9446 0.08594 0.22942 0.0
C429 C 0.93366 0.07395 0.19986 0.0
C430 C 0.97574 0.10681 0.23392 0.0
C431 C 0.99612 0.11635 0.2088 0.0
C432 C 0.98481 0.10478 0.17925 0.0
C433 C 0.95404 0.0838 0.17486 0.0
H434 H 0.81655 0.90589 0.17707 0.0
H435 H 0.8574 0.95238 0.26257 0.0
H436 H 0.83551 0.8711 0.18588 0.0
H437 H 0.87523 0.91631 0.27245 0.0
H438 H 0.95013 0.89404 0.2408 0.0
H439 H 0.91628 0.91413 0.25051 0.0
H440 H 0.84141 0.83315 0.20967 0.0
H441 H 0.87608 0.8139 0.19844 0.0
C442 C 0.82856 0.9079 0.19844 0.0
C443 C 0.83615 0.93233 0.21875 0.0
C444 C 0.83937 0.88771 0.20366 0.0
C445 C 0.85768 0.89126 0.22957 0.0
C446 C 0.86204 0.91348 0.25176 0.0
C447 C 0.85156 0.93398 0.24629 0.0
C448 C 0.92628 0.88021 0.23453 0.0
C449 C 0.91588 0.85274 0.21829 0.0
C450 C 0.90667 0.89162 0.24034 0.0
C451 C 0.87605 0.87557 0.2304 0.0
C452 C 0.865 0.84656 0.21689 0.0
C453 C 0.8848 0.83541 0.21061 0.0
H454 H 0.18379 0.06996 0.17078 0.0
H455 H 0.11892 0.06535 0.23857 0.0
H456 H 0.16242 0.01481 0.17464 0.0
H457 H 0.09673 0.01025 0.24159 0.0
H458 H 0.05879 0.91099 0.24506 0.0
H459 H 0.09762 0.96446 0.25317 0.0
H460 H 0.11592 0.97463 0.15502 0.0
H461 H 0.07813 0.9214 0.14724 0.0
C462 C 0.16529 0.0572 0.18689 0.0
C463 C 0.15268 0.07184 0.204 0.0
C464 C 0.15294 0.02559 0.18901 0.0
C465 C 0.12746 0.00792 0.208 0.0
C466 C 0.11647 0.02302 0.2269 0.0
C467 C 0.12905 0.05466 0.22502 0.0
C468 C 0.07187 0.92447 0.22542 0.0
C469 C 0.06514 0.91219 0.19546 0.0
C470 C 0.09393 0.95517 0.23001 0.0
C471 C 0.10958 0.97408 0.20471 0.0
C472 C 0.1046 0.96087 0.17514 0.0
C473 C 0.08269 0.93028 0.1706 0.0
H474 H 0.09631 0.94437 0.85335 0.0
H475 H 0.07282 0.92611 0.75682 0.0
H476 H 0.13226 0.99724 0.84145 0.0
H477 H 0.1097 0.97946 0.74452 0.0
H478 H 0.12719 0.08044 0.75565 0.0
H479 H 0.10824 0.02578 0.75332 0.0
H480 H 0.17772 0.03616 0.81826 0.0
H481 H 0.19578 0.09076 0.82153 0.0
C482 C 0.09948 0.95153 0.8294 0.0
C483 C 0.08144 0.93123 0.80609 0.0
C484 C 0.1204 0.9819 0.82246 0.0
C485 C 0.12383 0.99281 0.79198 0.0
C486 C 0.10735 0.97191 0.76828 0.0
C487 C 0.08637 0.94133 0.77528 0.0
C488 C 0.13909 0.07121 0.7686 0.0
C489 C 0.16249 0.08969 0.78931 0.0
C490 C 0.12827 0.03979 0.76721 0.0
C491 C 0.14091 0.02638 0.78628 0.0
C492 C 0.16688 0.04562 0.80397 0.0
C493 C 0.1774 0.07694 0.80568 0.0
H494 H 0.06128 0.1533 0.84556 0.0
H495 H 0.07751 0.13902 0.75068 0.0
H496 H 0.00744 0.13276 0.83428 0.0
H497 H 0.0233 0.11853 0.73921 0.0
H498 H 0.91208 0.09805 0.81175 0.0
H499 H 0.96638 0.13565 0.80618 0.0
H500 H 0.97994 0.06931 0.75623 0.0
H501 H 0.92599 0.03211 0.76162 0.0
C502 C 0.05342 0.14636 0.8221 0.0
C503 C 0.07346 0.14726 0.79912 0.0
C504 C 0.02258 0.1349 0.81552 0.0
C505 C 0.01105 0.12391 0.78585 0.0
C506 C 0.0315 0.12665 0.76234 0.0
C507 C 0.0625 0.13837 0.76889 0.0
C508 C 0.92648 0.09199 0.79851 0.0
C509 C 0.91504 0.06208 0.78755 0.0
C510 C 0.95758 0.11342 0.79552 0.0
C511 C 0.97753 0.10526 0.78127 0.0
C512 C 0.96525 0.07641 0.76725 0.0
C513 C 0.93432 0.05499 0.77047 0.0
H514 H 0.95738 0.89186 0.7613 0.0
H515 H 0.89635 0.80888 0.81014 0.0
H516 H 0.91666 0.90384 0.75626 0.0
H517 H 0.85522 0.82078 0.80492 0.0
H518 H 0.83249 0.89414 0.84769 0.0
H519 H 0.85363 0.86182 0.83408 0.0
H520 H 0.86597 0.8943 0.73995 0.0
H521 H 0.84487 0.927 0.75378 0.0
C522 C 0.93488 0.87558 0.76992 0.0
C523 C 0.93016 0.84976 0.7866 0.0
C524 C 0.91141 0.88234 0.76687 0.0
C525 C 0.8828 0.8635 0.78066 0.0
C526 C 0.87715 0.83593 0.79442 0.0
C527 C 0.90065 0.82903 0.79725 0.0
C528 C 0.83874 0.89362 0.82384 0.0
C529 C 0.83756 0.91347 0.80193 0.0
C530 C 0.85068 0.87488 0.81594 0.0
C531 C 0.8619 0.8758 0.78599 0.0
C532 C 0.85784 0.89339 0.7633 0.0
C533 C 0.84563 0.912 0.77118 0.0
H534 H 0.75086 0.49967 0.48104 0.0
H535 H 0.75877 0.47749 0.57565 0.0
H536 H 0.69666 0.47988 0.48824 0.0
H537 H 0.70426 0.45843 0.58336 0.0
H538 H 0.60465 0.37996 0.56181 0.0
H539 H 0.65966 0.41311 0.56664 0.0
H540 H 0.65481 0.48128 0.5104 0.0
H541 H 0.59996 0.44743 0.50453 0.0
C542 C 0.74115 0.49143 0.50372 0.0
C543 C 0.759 0.48976 0.52764 0.0
C544 C 0.70997 0.48019 0.50796 0.0
C545 C 0.69585 0.46713 0.53632 0.0
C546 C 0.71425 0.46776 0.56104 0.0
C547 C 0.74555 0.47896 0.55673 0.0
C548 C 0.61528 0.40229 0.55102 0.0
C549 C 0.59815 0.41092 0.53237 0.0
C550 C 0.64686 0.42145 0.55393 0.0
C551 C 0.66187 0.44978 0.53852 0.0
C552 C 0.64417 0.45934 0.52197 0.0
C553 C 0.6127 0.44002 0.51872 0.0
H554 H 0.51034 0.26815 0.57508 0.0
H555 H 0.51392 0.25544 0.47687 0.0
H556 H 0.52204 0.2272 0.5847 0.0
H557 H 0.5261 0.21562 0.48615 0.0
H558 H 0.54729 0.14508 0.50067 0.0
H559 H 0.51349 0.16645 0.50414 0.0
H560 H 0.56839 0.22518 0.57864 0.0
H561 H 0.60111 0.20275 0.57608 0.0
C562 C 0.51298 0.25618 0.55563 0.0
C563 C 0.51167 0.26521 0.52525 0.0
C564 C 0.5198 0.23286 0.56108 0.0
C565 C 0.52518 0.21813 0.53623 0.0
C566 C 0.52169 0.22595 0.50594 0.0
C567 C 0.51504 0.24915 0.50056 0.0
C568 C 0.55141 0.16175 0.5185 0.0
C569 C 0.57717 0.17275 0.53764 0.0
C570 C 0.53219 0.17415 0.5204 0.0
C571 C 0.53877 0.19823 0.54101 0.0
C572 C 0.56256 0.20672 0.56246 0.0
C573 C 0.58148 0.19394 0.5609 0.0
H574 H 0.80732 0.41035 0.58273 0.0
H575 H 0.83411 0.39159 0.49432 0.0
H576 H 0.78274 0.35613 0.59581 0.0
H577 H 0.80925 0.33754 0.50713 0.0
H578 H 0.76119 0.24035 0.53256 0.0
H579 H 0.80184 0.29363 0.53926 0.0
H580 H 0.73511 0.31664 0.57231 0.0
H581 H 0.69505 0.26396 0.56563 0.0
C582 C 0.80864 0.39478 0.56644 0.0
C583 C 0.82203 0.40504 0.53725 0.0
C584 C 0.79456 0.36375 0.57392 0.0
C585 C 0.79368 0.3425 0.55234 0.0
C586 C 0.80967 0.35329 0.52437 0.0
C587 C 0.82368 0.38427 0.51688 0.0
C588 C 0.75557 0.25669 0.54229 0.0
C589 C 0.72507 0.24831 0.54823 0.0
C590 C 0.77873 0.28715 0.54596 0.0
C591 C 0.77164 0.3094 0.55603 0.0
C592 C 0.74147 0.30012 0.56478 0.0
C593 C 0.71843 0.26995 0.56073 0.0
H594 H 0.75954 0.26851 0.07862 0.0
H595 H 0.79016 0.28872 0.17324 0.0
H596 H 0.79472 0.32163 0.06451 0.0
H597 H 0.8243 0.34159 0.15961 0.0
H598 H 0.87994 0.43621 0.13801 0.0
H599 H 0.86611 0.38265 0.1342 0.0
H600 H 0.79064 0.36565 0.07455 0.0
H601 H 0.80526 0.41914 0.07737 0.0
C602 C 0.77431 0.28412 0.09624 0.0
C603 C 0.77171 0.27464 0.12715 0.0
C604 C 0.79436 0.3146 0.0882 0.0
C605 C 0.81202 0.33613 0.11096 0.0
C606 C 0.81135 0.32579 0.1413 0.0
C607 C 0.79148 0.2954 0.14926 0.0
C608 C 0.86115 0.42123 0.12311 0.0
C609 C 0.84321 0.43166 0.1086 0.0
C610 C 0.85305 0.39046 0.12112 0.0
C611 C 0.82667 0.36956 0.10489 0.0
C612 C 0.81108 0.38092 0.08732 0.0
C613 C 0.81939 0.41171 0.08904 0.0
H614 H 0.74811 0.48552 0.08369 0.0
H615 H 0.73311 0.47208 0.18206 0.0
H616 H 0.69386 0.46872 0.07624 0.0
H617 H 0.67945 0.45498 0.17473 0.0
H618 H 0.58809 0.4383 0.16316 0.0
H619 H 0.64341 0.47059 0.16051 0.0
H620 H 0.64532 0.42035 0.08055 0.0
H621 H 0.5897 0.38888 0.08256 0.0
C622 C 0.73329 0.47924 0.10369 0.0
C623 C 0.74478 0.47998 0.13344 0.0
C624 C 0.70228 0.46958 0.09943 0.0
C625 C 0.68233 0.46074 0.12489 0.0
C626 C 0.69419 0.46226 0.15463 0.0
C627 C 0.72497 0.47177 0.15884 0.0
C628 C 0.60028 0.43497 0.14434 0.0
C629 C 0.5848 0.41097 0.12327 0.0
C630 C 0.63196 0.45324 0.14297 0.0
C631 C 0.64885 0.44743 0.12089 0.0
C632 C 0.63302 0.42543 0.09786 0.0
C633 C 0.60115 0.40741 0.09895 0.0
H634 H 0.514 0.2453 0.1618 0.0
H635 H 0.54943 0.29531 0.07665 0.0
H636 H 0.54107 0.21755 0.15207 0.0
H637 H 0.57653 0.26736 0.06682 0.0
H638 H 0.65998 0.25891 0.10544 0.0
H639 H 0.62167 0.27371 0.0965 0.0
H640 H 0.55038 0.18208 0.11866 0.0
H641 H 0.58915 0.16716 0.12747 0.0
C642 C 0.52699 0.24982 0.14062 0.0
C643 C 0.53004 0.2728 0.12023 0.0
C644 C 0.54226 0.2337 0.13489 0.0
C645 C 0.56109 0.24044 0.10878 0.0
C646 C 0.56234 0.26187 0.08724 0.0
C647 C 0.54683 0.27783 0.09286 0.0
C648 C 0.63608 0.24169 0.10752 0.0
C649 C 0.62745 0.21202 0.11743 0.0
C650 C 0.6141 0.25009 0.10218 0.0
C651 C 0.58302 0.22909 0.10707 0.0
C652 C 0.57421 0.19874 0.11488 0.0
C653 C 0.59631 0.19018 0.11977 0.0
H654 H 0.26357 0.74554 0.90449 0.0
H655 H 0.28094 0.76354 0.80691 0.0
H656 H 0.31794 0.77866 0.91511 0.0
H657 H 0.335 0.79528 0.81712 0.0
H658 H 0.43096 0.85407 0.83583 0.0
H659 H 0.37707 0.83925 0.83686 0.0
H660 H 0.36146 0.7737 0.90891 0.0
H661 H 0.41542 0.78977 0.90892 0.0
C662 C 0.27897 0.75686 0.88537 0.0
C663 C 0.26811 0.75171 0.85486 0.0
C664 C 0.31015 0.77572 0.89141 0.0
C665 C 0.33107 0.78952 0.867 0.0
C666 C 0.31973 0.78557 0.83664 0.0
C667 C 0.28864 0.76704 0.83069 0.0
C668 C 0.41612 0.83725 0.85259 0.0
C669 C 0.42722 0.82271 0.87194 0.0
C670 C 0.38517 0.82851 0.85299 0.0
C671 C 0.36463 0.8046 0.87231 0.0
C672 C 0.37644 0.79222 0.89374 0.0
C673 C 0.40748 0.80137 0.8937 0.0
H674 H 0.29299 0.56682 0.89176 0.0
H675 H 0.2224 0.48782 0.8444 0.0
H676 H 0.25857 0.58695 0.89764 0.0
H677 H 0.18729 0.50736 0.85132 0.0
H678 H 0.16301 0.58097 0.81919 0.0
H679 H 0.18373 0.54738 0.82715 0.0
H680 H 0.21448 0.58571 0.91818 0.0
H681 H 0.19463 0.62034 0.90956 0.0
C682 C 0.2698 0.55335 0.88332 0.0
C683 C 0.26054 0.52601 0.86717 0.0
C684 C 0.24988 0.56477 0.88693 0.0
C685 C 0.22012 0.54896 0.87469 0.0
C686 C 0.21021 0.52045 0.8605 0.0
C687 C 0.23027 0.50916 0.85665 0.0
C688 C 0.17344 0.58168 0.84126 0.0
C689 C 0.17772 0.6037 0.86351 0.0
C690 C 0.18525 0.56223 0.84593 0.0
C691 C 0.2014 0.5642 0.8731 0.0
C692 C 0.20288 0.58412 0.89666 0.0
C693 C 0.19124 0.60377 0.89186 0.0
H694 H 0.52773 0.73435 0.85028 0.0
H695 H 0.45452 0.72511 0.90903 0.0
H696 H 0.50925 0.67976 0.85546 0.0
H697 H 0.43527 0.67064 0.91318 0.0
H698 H 0.39817 0.57284 0.9154 0.0
H699 H 0.43625 0.62578 0.92693 0.0
H700 H 0.46654 0.63858 0.83186 0.0
H701 H 0.42957 0.5858 0.82088 0.0
C702 C 0.50805 0.72074 0.8648 0.0
C703 C 0.49219 0.73382 0.87876 0.0
C704 C 0.49736 0.68944 0.86767 0.0
C705 C 0.47036 0.67056 0.88418 0.0
C706 C 0.45622 0.68431 0.90043 0.0
C707 C 0.46712 0.71562 0.89786 0.0
C708 C 0.41377 0.58673 0.89732 0.0
C709 C 0.41049 0.57542 0.86708 0.0
C710 C 0.43542 0.61715 0.90384 0.0
C711 C 0.45401 0.63677 0.88018 0.0
C712 C 0.45281 0.62432 0.85078 0.0
C713 C 0.43137 0.59396 0.84436 0.0
H714 H 0.46287 0.75184 0.41705 0.0
H715 H 0.5049 0.7449 0.50102 0.0
H716 H 0.44366 0.69784 0.40667 0.0
H717 H 0.4839 0.69073 0.4923 0.0
H718 H 0.36882 0.60055 0.43236 0.0
H719 H 0.40299 0.65487 0.42645 0.0
H720 H 0.47547 0.64617 0.46981 0.0
H721 H 0.44009 0.59177 0.47761 0.0
C722 C 0.4685 0.73882 0.43294 0.0
C723 C 0.485 0.75235 0.45999 0.0
C724 C 0.45715 0.70775 0.42729 0.0
C725 C 0.46119 0.68939 0.44914 0.0
C726 C 0.48024 0.7038 0.47474 0.0
C727 C 0.4923 0.73503 0.47989 0.0
C728 C 0.3922 0.61019 0.44021 0.0
C729 C 0.40169 0.5921 0.45589 0.0
C730 C 0.41206 0.64146 0.43654 0.0
C731 C 0.44219 0.65536 0.4479 0.0
C732 C 0.45228 0.63661 0.46149 0.0
C733 C 0.43211 0.60537 0.46581 0.0
H734 H 0.26039 0.7119 0.41371 0.0
H735 H 0.24241 0.76909 0.47424 0.0
H736 H 0.31469 0.74903 0.41521 0.0
H737 H 0.29681 0.80666 0.47522 0.0
H738 H 0.41287 0.81829 0.42325 0.0
H739 H 0.35989 0.79948 0.40748 0.0
H740 H 0.33499 0.8001 0.50289 0.0
H741 H 0.38756 0.81903 0.51839 0.0
C742 C 0.2679 0.73297 0.42636 0.0
C743 C 0.24724 0.73727 0.44441 0.0
C744 C 0.2991 0.75438 0.42714 0.0
C745 C 0.31016 0.78051 0.44592 0.0
C746 C 0.28903 0.78642 0.46108 0.0
C747 C 0.25785 0.76498 0.46036 0.0
C748 C 0.39616 0.81516 0.44067 0.0
C749 C 0.4042 0.81976 0.47208 0.0
C750 C 0.36583 0.80428 0.43167 0.0
C751 C 0.34315 0.7981 0.45391 0.0
C752 C 0.35184 0.80494 0.48505 0.0
C753 C 0.38199 0.81556 0.49402 0.0
H754 H 0.22575 0.47157 0.48979 0.0
H755 H 0.27801 0.52735 0.41267 0.0
H756 H 0.19112 0.49187 0.48557 0.0
H757 H 0.24443 0.54879 0.4093 0.0
H758 H 0.18208 0.58773 0.41064 0.0
H759 H 0.19752 0.5493 0.40286 0.0
H760 H 0.2022 0.54109 0.50187 0.0
H761 H 0.18615 0.57843 0.50941 0.0
C762 C 0.22927 0.48749 0.47134 0.0
C763 C 0.25482 0.49829 0.45191 0.0
C764 C 0.20964 0.49938 0.4691 0.0
C765 C 0.21558 0.52276 0.44779 0.0
C766 C 0.23911 0.5309 0.42604 0.0
C767 C 0.25846 0.51859 0.42796 0.0
C768 C 0.18589 0.5772 0.43064 0.0
C769 C 0.18322 0.58628 0.46062 0.0
C770 C 0.19481 0.55527 0.42621 0.0
C771 C 0.20113 0.54202 0.4517 0.0
C772 C 0.19699 0.55023 0.48163 0.0
C773 C 0.18811 0.572 0.486 0.0
H774 H 0.20057 0.20281 0.07791 0.0
H775 H 0.13074 0.10757 0.08085 0.0
H776 H 0.19872 0.20167 0.0218 0.0
H777 H 0.1295 0.10608 0.02441 0.0
H778 H 0.11322 0.12641 0.92421 0.0
H779 H 0.1142 0.12487 0.98056 0.0
H780 H 0.21256 0.18137 0.97891 0.0
H781 H 0.2114 0.18367 0.92281 0.0
C782 C 0.18495 0.18155 0.06651 0.0
C783 C 0.16582 0.15528 0.08372 0.0
C784 C 0.18403 0.18082 0.03433 0.0
C785 C 0.16412 0.15372 0.01857 0.0
C786 C 0.14488 0.1274 0.03583 0.0
C787 C 0.14568 0.1282 0.06813 0.0
C788 C 0.13502 0.13834 0.93596 0.0
C789 C 0.16221 0.15534 0.9192 0.0
C790 C 0.13562 0.13734 0.96821 0.0
C791 C 0.16345 0.1532 0.98427 0.0
C792 C 0.19068 0.16943 0.96732 0.0
C793 C 0.19005 0.1706 0.93516 0.0
H794 H 0.88266 0.98434 0.92876 0.0
H795 H 0.85167 0.0499 0.92349 0.0
H796 H 0.88383 0.98798 0.98497 0.0
H797 H 0.85165 0.05269 0.97956 0.0
H798 H 0.87002 0.06391 0.08234 0.0
H799 H 0.87944 0.06717 0.02681 0.0
H800 H 0.84544 0.96985 0.024 0.0
H801 H 0.83714 0.96691 0.07955 0.0
C802 C 0.87651 -0.00016 0.93962 0.0
C803 C 0.86685 0.01665 0.92181 0.0
C804 C 0.87687 0.00171 0.97182 0.0
C805 C 0.86728 0.02019 0.98683 0.0
C806 C 0.85937 0.03837 0.96884 0.0
C807 C 0.8593 0.03672 0.93665 0.0
C808 C 0.86461 0.04326 0.06979 0.0
C809 C 0.85275 0.01513 0.08519 0.0
C810 C 0.86997 0.04511 0.03798 0.0
C811 C 0.86334 0.01881 0.02091 0.0
C812 C 0.85145 0.99069 0.03647 0.0
C813 C 0.84635 0.98891 0.06827 0.0
H814 H 0.93446 0.80811 0.91901 0.0
H815 H 0.01111 0.89944 0.92989 0.0
H816 H 0.92522 0.80514 0.97455 0.0
H817 H 0.00235 0.89623 0.98544 0.0
H818 H 0.97214 0.88738 0.08459 0.0
H819 H 0.96942 0.89204 0.0286 0.0
H820 H 0.95332 0.80013 0.01736 0.0
H821 H 0.95545 0.79533 0.07303 0.0
C822 C 0.94903 0.82772 0.93322 0.0
C823 C 0.97371 0.85387 0.92021 0.0
C824 C 0.94385 0.82596 0.96503 0.0
C825 C 0.96331 0.85027 0.98445 0.0
C826 C 0.9868 0.87717 0.97113 0.0
C827 C 0.99193 0.87897 0.9393 0.0
C828 C 0.96759 0.86806 0.07011 0.0
C829 C 0.9642 0.84107 0.0831 0.0
C830 C 0.96615 0.87077 0.03808 0.0
C831 C 0.96121 0.84649 0.01852 0.0
C832 C 0.95669 0.81911 0.03174 0.0
C833 C 0.95816 0.81644 0.06367 0.0
H834 H 0.85903 0.54142 0.25275 0.0
H835 H 0.81356 0.44312 0.24458 0.0
H836 H 0.86 0.53712 0.30864 0.0
H837 H 0.81498 0.4388 0.30079 0.0
H838 H 0.79307 0.44624 0.4041 0.0
H839 H 0.79235 0.44744 0.34764 0.0
H840 H 0.88524 0.52275 0.3476 0.0
H841 H 0.88574 0.52192 0.40381 0.0
C842 C 0.84935 0.51888 0.26292 0.0
C843 C 0.83625 0.49261 0.24433 0.0
C844 C 0.85009 0.51642 0.29494 0.0
C845 C 0.83774 0.48763 0.30911 0.0
C846 C 0.82448 0.46128 0.29053 0.0
C847 C 0.8238 0.46376 0.25839 0.0
C848 C 0.81337 0.46287 0.39196 0.0
C849 C 0.83937 0.48414 0.40831 0.0
C850 C 0.81301 0.46348 0.35966 0.0
C851 C 0.83865 0.48537 0.34321 0.0
C852 C 0.86494 0.50598 0.35964 0.0
C853 C 0.86528 0.5054 0.39183 0.0
H854 H 0.49633 0.292 0.25037 0.0
H855 H 0.50792 0.38267 0.24637 0.0
H856 H 0.49728 0.29438 0.30676 0.0
H857 H 0.50895 0.38503 0.30277 0.0
H858 H 0.54652 0.38847 0.40168 0.0
H859 H 0.54448 0.38637 0.34525 0.0
H860 H 0.46402 0.29685 0.3495 0.0
H861 H 0.46595 0.29895 0.40587 0.0
C862 C 0.49902 0.31239 0.26156 0.0
C863 C 0.50205 0.33715 0.24406 0.0
C864 C 0.49943 0.31369 0.29377 0.0
C865 C 0.50321 0.3399 0.30902 0.0
C866 C 0.50627 0.36467 0.29152 0.0
C867 C 0.50553 0.36325 0.25931 0.0
C868 C 0.52838 0.3684 0.39053 0.0
C869 C 0.5064 0.34387 0.40807 0.0
C870 C 0.52714 0.36727 0.3583 0.0
C871 C 0.50412 0.34142 0.34312 0.0
C872 C 0.48214 0.31691 0.36069 0.0
C873 C 0.48317 0.3182 0.39288 0.0
H874 H 0.71142 0.19195 0.41494 0.0
H875 H 0.62501 0.18962 0.40889 0.0
H876 H 0.71738 0.19805 0.35921 0.0
H877 H 0.6315 0.19711 0.35315 0.0
H878 H 0.635 0.17146 0.25221 0.0
H879 H 0.62969 0.16981 0.30818 0.0
H880 H 0.72697 0.23117 0.31712 0.0
H881 H 0.73231 0.23158 0.26114 0.0
C882 C 0.69393 0.19325 0.4017 0.0
C883 C 0.66769 0.19018 0.4162 0.0
C884 C 0.69741 0.19695 0.36972 0.0
C885 C 0.6749 0.19804 0.35154 0.0
C886 C 0.64903 0.19582 0.36629 0.0
C887 C 0.64539 0.19175 0.39826 0.0
C888 C 0.65519 0.18471 0.26618 0.0
C889 C 0.68408 0.2015 0.25239 0.0
C890 C 0.65216 0.18395 0.29829 0.0
C891 C 0.67792 0.20029 0.3173 0.0
C892 C 0.70671 0.21782 0.3033 0.0
C893 C 0.70978 0.21824 0.27121 0.0
H894 H 0.51634 0.78835 0.58922 0.0
H895 H 0.43674 0.79796 0.60164 0.0
H896 H 0.51815 0.78122 0.64473 0.0
H897 H 0.43898 0.79165 0.65719 0.0
H898 H 0.44203 0.76608 0.75624 0.0
H899 H 0.43506 0.75912 0.70034 0.0
H900 H 0.53243 0.81652 0.68739 0.0
H901 H 0.53937 0.82283 0.74296 0.0
C902 C 0.49899 0.78852 0.60378 0.0
C903 C 0.47661 0.79406 0.5912 0.0
C904 C 0.50012 0.78461 0.63558 0.0
C905 C 0.47898 0.7863 0.65542 0.0
C906 C 0.45548 0.78999 0.64255 0.0
C907 C 0.45428 0.79378 0.61073 0.0
C908 C 0.46193 0.77684 0.74139 0.0
C909 C 0.49122 0.79514 0.75388 0.0
C910 C 0.45793 0.77296 0.70942 0.0
C911 C 0.48317 0.7873 0.68941 0.0
C912 C 0.51254 0.80474 0.70211 0.0
C913 C 0.51652 0.80858 0.73399 0.0
H914 H 0.2245 0.69338 0.57497 0.0
H915 H 0.12614 0.63875 0.57986 0.0
H916 H 0.22688 0.69829 0.63119 0.0
H917 H 0.12853 0.64325 0.63596 0.0
H918 H 0.1423 0.68707 0.73109 0.0
H919 H 0.14123 0.68307 0.67493 0.0
H920 H 0.2174 0.66681 0.67789 0.0
H921 H 0.21877 0.67129 0.73412 0.0
C922 C 0.20343 0.6823 0.58808 0.0
C923 C 0.17513 0.66574 0.57309 0.0
C924 C 0.20479 0.68499 0.62024 0.0
C925 C 0.17788 0.67125 0.63796 0.0
C926 C 0.14963 0.65448 0.6229 0.0
C927 C 0.14827 0.65174 0.5908 0.0
C928 C 0.15887 0.68274 0.71973 0.0
C929 C 0.18059 0.67946 0.73693 0.0
C930 C 0.15814 0.68026 0.68761 0.0
C931 C 0.17915 0.67449 0.67203 0.0
C932 C 0.20111 0.67156 0.68924 0.0
C933 C 0.2018 0.67397 0.72141 0.0
H934 H 0.33976 0.4728 0.58684 0.0
H935 H 0.32611 0.55044 0.57942 0.0
H936 H 0.33552 0.47368 0.64271 0.0
H937 H 0.32126 0.55098 0.63567 0.0
H938 H 0.3486 0.55921 0.73996 0.0
H939 H 0.35148 0.56083 0.68352 0.0
H940 H 0.29569 0.46244 0.68052 0.0
H941 H 0.29336 0.4608 0.73666 0.0
C942 C 0.33581 0.49005 0.59718 0.0
C943 C 0.33316 0.51149 0.57879 0.0
C944 C 0.33315 0.49042 0.62919 0.0
C945 C 0.32769 0.51218 0.64358 0.0
C946 C 0.32559 0.53403 0.62523 0.0
C947 C 0.32827 0.53366 0.59308 0.0
C948 C 0.33674 0.538 0.72715 0.0
C949 C 0.32098 0.50987 0.74266 0.0
C950 C 0.3383 0.53893 0.69488 0.0
C951 C 0.32413 0.51173 0.67761 0.0
C952 C 0.30739 0.48374 0.69319 0.0
C953 C 0.30589 0.48281 0.72535 0.0
loop_
_geom_bond_atom_site_label_1
_geom_bond_atom_site_label_2
_geom_bond_distance
_geom_bond_site_symmetry_2
_ccdc_geom_bond_type
In0 O1 2.294 . S
In0 O2 2.326 . S
In0 O6 2.266 . S
In0 O7 2.326 . S
In0 O8 2.266 . S
In0 O9 2.326 . S
In0 O11 2.294 . S
In0 O12 2.326 . S
O1 In0 2.294 . S
O1 C10 1.240 . S
O2 In0 2.326 . S
O2 C10 1.252 . S
C3 O6 1.252 . S
C3 O7 1.260 . S
C4 O11 1.240 . S
C4 O12 1.252 . S
C5 O8 1.252 . S
C5 O9 1.260 . S
O6 In0 2.266 . S
O6 C3 1.252 . S
O7 In0 2.326 . S
O7 C3 1.260 . S
O8 In0 2.266 . S
O8 C5 1.252 . S
O9 In0 2.326 . S
O9 C5 1.260 . S
C10 O1 1.240 . S
C10 O2 1.252 . S
O11 In0 2.294 . S
O11 C4 1.240 . S
O12 In0 2.326 . S
O12 C4 1.252 . S
In13 O14 2.294 . S
In13 O15 2.326 . S
In13 O19 2.266 1_545 S
In13 O20 2.326 1_545 S
In13 O21 2.266 . S
In13 O22 2.326 . S
In13 O24 2.294 . S
In13 O25 2.326 1_545 S
O14 In13 2.294 . S
O14 C23 1.240 . S
O15 In13 2.326 . S
O15 C23 1.252 . S
C16 O19 1.252 . S
C16 O20 1.260 . S
C17 O24 1.250 . S
C17 O25 1.244 1_545 S
C18 O21 1.252 . S
C18 O22 1.260 . S
O19 In13 2.266 1_565 S
O19 C16 1.252 . S
O20 In13 2.326 1_565 S
O20 C16 1.260 . S
O21 In13 2.266 . S
O21 C18 1.252 . S
O22 In13 2.326 . S
O22 C18 1.260 . S
C23 O14 1.240 . S
C23 O15 1.252 . S
O24 In13 2.294 . S
O24 C17 1.250 . S
O25 In13 2.326 1_565 S
O25 C17 1.244 1_565 S
In26 O27 2.294 . S
In26 O28 2.326 1_655 S
In26 O32 2.266 . S
In26 O33 2.326 . S
In26 O34 2.266 1_655 S
In26 O35 2.326 1_655 S
In26 O37 2.294 . S
In26 O38 2.326 . S
O27 In26 2.294 . S
O27 C36 1.240 1_655 S
O28 In26 2.326 1_455 S
O28 C36 1.252 . S
C29 O32 1.252 . S
C29 O33 1.260 . S
C30 O37 1.240 . S
C30 O38 1.252 . S
C31 O34 1.252 . S
C31 O35 1.260 . S
O32 In26 2.266 . S
O32 C29 1.252 . S
O33 In26 2.326 . S
O33 C29 1.260 . S
O34 In26 2.266 1_455 S
O34 C31 1.252 . S
O35 In26 2.326 1_455 S
O35 C31 1.260 . S
C36 O27 1.240 1_455 S
C36 O28 1.252 . S
O37 In26 2.294 . S
O37 C30 1.240 . S
O38 In26 2.326 . S
O38 C30 1.252 . S
In39 O40 2.294 . S
In39 O41 2.326 . S
In39 O45 2.266 . S
In39 O46 2.326 . S
In39 O47 2.266 . S
In39 O48 2.326 . S
In39 O50 2.294 . S
In39 O51 2.326 . S
O40 In39 2.294 . S
O40 C49 1.240 . S
O41 In39 2.326 . S
O41 C49 1.252 . S
C42 O45 1.252 . S
C42 O46 1.260 . S
C43 O50 1.240 . S
C43 O51 1.252 . S
C44 O47 1.252 . S
C44 O48 1.260 . S
O45 In39 2.266 . S
O45 C42 1.252 . S
O46 In39 2.326 . S
O46 C42 1.260 . S
O47 In39 2.266 . S
O47 C44 1.252 . S
O48 In39 2.326 . S
O48 C44 1.260 . S
C49 O40 1.240 . S
C49 O41 1.252 . S
O50 In39 2.294 . S
O50 C43 1.240 . S
O51 In39 2.326 . S
O51 C43 1.252 . S
In52 O53 2.294 . S
In52 O54 2.326 1_565 S
In52 O58 2.266 . S
In52 O59 2.326 . S
In52 O60 2.266 1_565 S
In52 O61 2.326 1_565 S
In52 O63 2.294 . S
In52 O64 2.326 . S
O53 In52 2.294 . S
O53 C62 1.240 1_565 S
O54 In52 2.326 1_545 S
O54 C62 1.252 . S
C55 O58 1.252 . S
C55 O59 1.260 . S
C56 O63 1.240 . S
C56 O64 1.252 . S
C57 O60 1.252 . S
C57 O61 1.260 . S
O58 In52 2.266 . S
O58 C55 1.252 . S
O59 In52 2.326 . S
O59 C55 1.260 . S
O60 In52 2.266 1_545 S
O60 C57 1.252 . S
O61 In52 2.326 1_545 S
O61 C57 1.260 . S
C62 O53 1.240 1_545 S
C62 O54 1.252 . S
O63 In52 2.294 . S
O63 C56 1.240 . S
O64 In52 2.326 . S
O64 C56 1.252 . S
In65 O66 2.294 . S
In65 O67 2.326 1_455 S
In65 O71 2.266 . S
In65 O72 2.326 . S
In65 O73 2.266 1_455 S
In65 O74 2.326 1_455 S
In65 O76 2.294 . S
In65 O77 2.326 . S
O66 In65 2.294 . S
O66 C75 1.248 . S
O67 In65 2.326 1_655 S
O67 C75 1.245 1_655 S
C68 O71 1.252 . S
C68 O72 1.260 . S
C69 O76 1.240 . S
C69 O77 1.252 . S
C70 O73 1.252 . S
C70 O74 1.260 . S
O71 In65 2.266 . S
O71 C68 1.252 . S
O72 In65 2.326 . S
O72 C68 1.260 . S
O73 In65 2.266 1_655 S
O73 C70 1.252 . S
O74 In65 2.326 1_655 S
O74 C70 1.260 . S
C75 O66 1.248 . S
C75 O67 1.245 1_455 S
O76 In65 2.294 . S
O76 C69 1.240 . S
O77 In65 2.326 . S
O77 C69 1.252 . S
In78 O79 2.294 . S
In78 O80 2.326 . S
In78 O84 2.266 . S
In78 O85 2.326 . S
In78 O86 2.266 . S
In78 O87 2.326 . S
In78 O89 2.294 . S
In78 O90 2.326 . S
O79 In78 2.294 . S
O79 C88 1.240 . S
O80 In78 2.326 . S
O80 C88 1.252 . S
C81 O84 1.252 . S
C81 O85 1.260 . S
C82 O89 1.240 . S
C82 O90 1.252 . S
C83 O86 1.252 . S
C83 O87 1.260 . S
O84 In78 2.266 . S
O84 C81 1.252 . S
O85 In78 2.326 . S
O85 C81 1.260 . S
O86 In78 2.266 . S
O86 C83 1.252 . S
O87 In78 2.326 . S
O87 C83 1.260 . S
C88 O79 1.240 . S
C88 O80 1.252 . S
O89 In78 2.294 . S
O89 C82 1.240 . S
O90 In78 2.326 . S
O90 C82 1.252 . S
In91 O92 2.294 . S
In91 O93 2.326 . S
In91 O97 2.266 . S
In91 O98 2.326 . S
In91 O99 2.266 . S
In91 O100 2.326 . S
In91 O102 2.294 . S
In91 O103 2.326 . S
O92 In91 2.294 . S
O92 C101 1.240 . S
O93 In91 2.326 . S
O93 C101 1.252 . S
C94 O97 1.252 . S
C94 O98 1.260 . S
C95 O102 1.240 . S
C95 O103 1.252 . S
C96 O99 1.252 . S
C96 O100 1.260 . S
O97 In91 2.266 . S
O97 C94 1.252 . S
O98 In91 2.326 . S
O98 C94 1.260 . S
O99 In91 2.266 . S
O99 C96 1.252 . S
O100 In91 2.326 . S
O100 C96 1.260 . S
C101 O92 1.240 . S
C101 O93 1.252 . S
O102 In91 2.294 . S
O102 C95 1.240 . S
O103 In91 2.326 . S
O103 C95 1.252 . S
In104 O105 2.294 . S
In104 O106 2.326 . S
In104 O110 2.266 . S
In104 O111 2.326 . S
In104 O112 2.266 . S
In104 O113 2.326 . S
In104 O115 2.294 . S
In104 O116 2.326 . S
O105 In104 2.294 . S
O105 C114 1.240 . S
O106 In104 2.326 . S
O106 C114 1.252 . S
C107 O110 1.252 . S
C107 O111 1.260 . S
C108 O115 1.240 . S
C108 O116 1.252 . S
C109 O112 1.252 . S
C109 O113 1.260 . S
O110 In104 2.266 . S
O110 C107 1.252 . S
O111 In104 2.326 . S
O111 C107 1.260 . S
O112 In104 2.266 . S
O112 C109 1.252 . S
O113 In104 2.326 . S
O113 C109 1.260 . S
C114 O105 1.240 . S
C114 O106 1.252 . S
O115 In104 2.294 . S
O115 C108 1.240 . S
O116 In104 2.326 . S
O116 C108 1.252 . S
In117 O118 2.294 . S
In117 O119 2.326 . S
In117 O123 2.266 . S
In117 O124 2.326 . S
In117 O125 2.266 . S
In117 O126 2.326 . S
In117 O128 2.294 . S
In117 O129 2.326 . S
O118 In117 2.294 . S
O118 C127 1.240 . S
O119 In117 2.326 . S
O119 C127 1.252 . S
C120 O123 1.252 . S
C120 O124 1.260 . S
C121 O128 1.240 . S
C121 O129 1.252 . S
C122 O125 1.252 . S
C122 O126 1.260 . S
O123 In117 2.266 . S
O123 C120 1.252 . S
O124 In117 2.326 . S
O124 C120 1.260 . S
O125 In117 2.266 . S
O125 C122 1.252 . S
O126 In117 2.326 . S
O126 C122 1.260 . S
C127 O118 1.240 . S
C127 O119 1.252 . S
O128 In117 2.294 . S
O128 C121 1.240 . S
O129 In117 2.326 . S
O129 C121 1.252 . S
In130 O131 2.294 . S
In130 O132 2.326 . S
In130 O136 2.266 . S
In130 O137 2.326 . S
In130 O138 2.266 . S
In130 O139 2.326 . S
In130 O141 2.294 . S
In130 O142 2.326 . S
O131 In130 2.294 . S
O131 C140 1.240 . S
O132 In130 2.326 . S
O132 C140 1.252 . S
C133 O136 1.252 . S
C133 O137 1.260 . S
C134 O141 1.240 . S
C134 O142 1.252 . S
C135 O138 1.252 . S
C135 O139 1.260 . S
O136 In130 2.266 . S
O136 C133 1.252 . S
O137 In130 2.326 . S
O137 C133 1.260 . S
O138 In130 2.266 . S
O138 C135 1.252 . S
O139 In130 2.326 . S
O139 C135 1.260 . S
C140 O131 1.240 . S
C140 O132 1.252 . S
O141 In130 2.294 . S
O141 C134 1.240 . S
O142 In130 2.326 . S
O142 C134 1.252 . S
In143 O144 2.294 . S
In143 O145 2.326 . S
In143 O149 2.266 . S
In143 O150 2.326 . S
In143 O151 2.266 . S
In143 O152 2.326 . S
In143 O154 2.294 . S
In143 O155 2.326 . S
O144 In143 2.294 . S
O144 C153 1.240 . S
O145 In143 2.326 . S
O145 C153 1.252 . S
C146 O149 1.252 . S
C146 O150 1.260 . S
C147 O154 1.240 . S
C147 O155 1.252 . S
C148 O151 1.252 . S
C148 O152 1.260 . S
O149 In143 2.266 . S
O149 C146 1.252 . S
O150 In143 2.326 . S
O150 C146 1.260 . S
O151 In143 2.266 . S
O151 C148 1.252 . S
O152 In143 2.326 . S
O152 C148 1.260 . S
C153 O144 1.240 . S
C153 O145 1.252 . S
O154 In143 2.294 . S
O154 C147 1.240 . S
O155 In143 2.326 . S
O155 C147 1.252 . S
In156 O157 2.294 . S
In156 O158 2.326 . S
In156 O162 2.266 . S
In156 O163 2.326 . S
In156 O164 2.266 . S
In156 O165 2.326 . S
In156 O167 2.294 . S
In156 O168 2.326 . S
O157 In156 2.294 . S
O157 C166 1.240 . S
O158 In156 2.326 . S
O158 C166 1.252 . S
C159 O162 1.252 . S
C159 O163 1.260 . S
C160 O167 1.240 . S
C160 O168 1.252 . S
C161 O164 1.252 . S
C161 O165 1.260 . S
O162 In156 2.266 . S
O162 C159 1.252 . S
O163 In156 2.326 . S
O163 C159 1.260 . S
O164 In156 2.266 . S
O164 C161 1.252 . S
O165 In156 2.326 . S
O165 C161 1.260 . S
C166 O157 1.240 . S
C166 O158 1.252 . S
O167 In156 2.294 . S
O167 C160 1.240 . S
O168 In156 2.326 . S
O168 C160 1.252 . S
In169 O170 2.294 . S
In169 O171 2.326 . S
In169 O175 2.266 . S
In169 O176 2.326 . S
In169 O177 2.266 . S
In169 O178 2.326 . S
In169 O180 2.294 . S
In169 O181 2.326 . S
O170 In169 2.294 . S
O170 C179 1.240 . S
O171 In169 2.326 . S
O171 C179 1.252 . S
C172 O175 1.252 . S
C172 O176 1.260 . S
C173 O180 1.240 . S
C173 O181 1.252 . S
C174 O177 1.252 . S
C174 O178 1.260 . S
O175 In169 2.266 . S
O175 C172 1.252 . S
O176 In169 2.326 . S
O176 C172 1.260 . S
O177 In169 2.266 . S
O177 C174 1.252 . S
O178 In169 2.326 . S
O178 C174 1.260 . S
C179 O170 1.240 . S
C179 O171 1.252 . S
O180 In169 2.294 . S
O180 C173 1.240 . S
O181 In169 2.326 . S
O181 C173 1.252 . S
In182 O183 2.294 . S
In182 O184 2.326 . S
In182 O188 2.266 . S
In182 O189 2.326 . S
In182 O190 2.266 . S
In182 O191 2.326 . S
In182 O193 2.294 . S
In182 O194 2.326 . S
O183 In182 2.294 . S
O183 C192 1.240 . S
O184 In182 2.326 . S
O184 C192 1.252 . S
C185 O188 1.252 . S
C185 O189 1.260 . S
C186 O193 1.240 . S
C186 O194 1.252 . S
C187 O190 1.252 . S
C187 O191 1.260 . S
O188 In182 2.266 . S
O188 C185 1.252 . S
O189 In182 2.326 . S
O189 C185 1.260 . S
O190 In182 2.266 . S
O190 C187 1.252 . S
O191 In182 2.326 . S
O191 C187 1.260 . S
C192 O183 1.240 . S
C192 O184 1.252 . S
O193 In182 2.294 . S
O193 C186 1.240 . S
O194 In182 2.326 . S
O194 C186 1.252 . S
In195 O196 2.294 . S
In195 O197 2.326 . S
In195 O201 2.266 . S
In195 O202 2.326 . S
In195 O203 2.266 . S
In195 O204 2.326 . S
In195 O206 2.294 . S
In195 O207 2.326 . S
O196 In195 2.294 . S
O196 C205 1.240 . S
O197 In195 2.326 . S
O197 C205 1.252 . S
C198 O201 1.252 . S
C198 O202 1.260 . S
C199 O206 1.240 . S
C199 O207 1.252 . S
C200 O203 1.252 . S
C200 O204 1.260 . S
O201 In195 2.266 . S
O201 C198 1.252 . S
O202 In195 2.326 . S
O202 C198 1.260 . S
O203 In195 2.266 . S
O203 C200 1.252 . S
O204 In195 2.326 . S
O204 C200 1.260 . S
C205 O196 1.240 . S
C205 O197 1.252 . S
O206 In195 2.294 . S
O206 C199 1.240 . S
O207 In195 2.326 . S
O207 C199 1.252 . S
In208 O209 2.294 . S
In208 O210 2.326 . S
In208 O214 2.266 . S
In208 O215 2.326 . S
In208 O216 2.266 . S
In208 O217 2.326 . S
In208 O219 2.294 . S
In208 O220 2.326 . S
O209 In208 2.294 . S
O209 C218 1.240 . S
O210 In208 2.326 . S
O210 C218 1.252 . S
C211 O214 1.252 . S
C211 O215 1.260 . S
C212 O219 1.240 . S
C212 O220 1.252 . S
C213 O216 1.252 . S
C213 O217 1.260 . S
O214 In208 2.266 . S
O214 C211 1.252 . S
O215 In208 2.326 . S
O215 C211 1.260 . S
O216 In208 2.266 . S
O216 C213 1.252 . S
O217 In208 2.326 . S
O217 C213 1.260 . S
C218 O209 1.240 . S
C218 O210 1.252 . S
O219 In208 2.294 . S
O219 C212 1.240 . S
O220 In208 2.326 . S
O220 C212 1.252 . S
In221 O222 2.294 . S
In221 O223 2.326 . S
In221 O227 2.266 . S
In221 O228 2.326 . S
In221 O229 2.266 . S
In221 O230 2.326 . S
In221 O232 2.294 . S
In221 O233 2.326 . S
O222 In221 2.294 . S
O222 C231 1.240 . S
O223 In221 2.326 . S
O223 C231 1.252 . S
C224 O227 1.252 . S
C224 O228 1.260 . S
C225 O232 1.240 . S
C225 O233 1.252 . S
C226 O229 1.252 . S
C226 O230 1.260 . S
O227 In221 2.266 . S
O227 C224 1.252 . S
O228 In221 2.326 . S
O228 C224 1.260 . S
O229 In221 2.266 . S
O229 C226 1.252 . S
O230 In221 2.326 . S
O230 C226 1.260 . S
C231 O222 1.240 . S
C231 O223 1.252 . S
O232 In221 2.294 . S
O232 C225 1.240 . S
O233 In221 2.326 . S
O233 C225 1.252 . S
H234 C242 0.950 . S
H235 C247 0.950 . S
H236 C244 0.950 . S
H237 C246 0.950 . S
H238 C248 0.950 . S
H239 C250 0.950 . S
H240 C252 0.950 . S
H241 C253 0.950 . S
C242 H234 0.950 . S
C242 C243 1.386 . S
C242 C244 1.391 . S
C243 C242 1.386 . S
C243 C247 1.393 . S
C244 H236 0.950 . S
C244 C242 1.391 . S
C244 C245 1.400 . S
C245 C244 1.400 . S
C245 C246 1.398 . S
C245 C251 1.491 . S
C246 H237 0.950 . S
C246 C245 1.398 . S
C246 C247 1.391 . S
C247 H235 0.950 . S
C247 C243 1.393 . S
C247 C246 1.391 . S
C248 H238 0.950 . S
C248 C249 1.386 . S
C248 C250 1.391 . S
C249 C248 1.386 . S
C249 C253 1.393 . S
C250 H239 0.950 . S
C250 C248 1.391 . S
C250 C251 1.400 . S
C251 C245 1.491 . S
C251 C250 1.400 . S
C251 C252 1.398 . S
C252 H240 0.950 . S
C252 C251 1.398 . S
C252 C253 1.391 . S
C253 H241 0.950 . S
C253 C249 1.393 . S
C253 C252 1.391 . S
H254 C262 0.950 . S
H255 C267 0.950 . S
H256 C264 0.950 . S
H257 C266 0.950 . S
H258 C268 0.950 . S
H259 C270 0.950 . S
H260 C272 0.950 . S
H261 C273 0.950 . S
C262 H254 0.950 . S
C262 C263 1.386 . S
C262 C264 1.391 . S
C263 C262 1.386 . S
C263 C267 1.393 . S
C264 H256 0.950 . S
C264 C262 1.391 . S
C264 C265 1.400 . S
C265 C264 1.400 . S
C265 C266 1.398 . S
C265 C271 1.491 . S
C266 H257 0.950 . S
C266 C265 1.398 . S
C266 C267 1.391 . S
C267 H255 0.950 . S
C267 C263 1.393 . S
C267 C266 1.391 . S
C268 H258 0.950 . S
C268 C269 1.386 . S
C268 C270 1.391 . S
C269 C268 1.386 . S
C269 C273 1.393 . S
C270 H259 0.950 . S
C270 C268 1.391 . S
C270 C271 1.400 . S
C271 C265 1.491 . S
C271 C270 1.400 . S
C271 C272 1.398 . S
C272 H260 0.950 . S
C272 C271 1.398 . S
C272 C273 1.391 . S
C273 H261 0.950 . S
C273 C269 1.393 . S
C273 C272 1.391 . S
H274 C282 0.950 . S
H275 C287 0.950 . S
H276 C284 0.950 . S
H277 C286 0.950 . S
H278 C288 0.950 . S
H279 C290 0.950 . S
H280 C292 0.950 . S
H281 C293 0.950 . S
C282 H274 0.950 . S
C282 C283 1.386 . S
C282 C284 1.391 . S
C283 C282 1.386 . S
C283 C287 1.393 . S
C284 H276 0.950 . S
C284 C282 1.391 . S
C284 C285 1.400 . S
C285 C284 1.400 . S
C285 C286 1.398 . S
C285 C291 1.491 . S
C286 H277 0.950 . S
C286 C285 1.398 . S
C286 C287 1.391 . S
C287 H275 0.950 . S
C287 C283 1.393 . S
C287 C286 1.391 . S
C288 H278 0.950 . S
C288 C289 1.386 . S
C288 C290 1.391 . S
C289 C288 1.386 . S
C289 C293 1.393 . S
C290 H279 0.950 . S
C290 C288 1.391 . S
C290 C291 1.400 . S
C291 C285 1.491 . S
C291 C290 1.400 . S
C291 C292 1.398 . S
C292 H280 0.950 . S
C292 C291 1.398 . S
C292 C293 1.391 . S
C293 H281 0.950 . S
C293 C289 1.393 . S
C293 C292 1.391 . S
H294 C302 0.950 . S
H295 C307 0.950 . S
H296 C304 0.950 . S
H297 C306 0.950 . S
H298 C308 0.950 . S
H299 C310 0.950 . S
H300 C312 0.950 . S
H301 C313 0.950 . S
C302 H294 0.950 . S
C302 C303 1.386 . S
C302 C304 1.391 . S
C303 C302 1.386 . S
C303 C307 1.393 . S
C304 H296 0.950 . S
C304 C302 1.391 . S
C304 C305 1.400 . S
C305 C304 1.400 . S
C305 C306 1.398 . S
C305 C311 1.491 . S
C306 H297 0.950 . S
C306 C305 1.398 . S
C306 C307 1.391 . S
C307 H295 0.950 . S
C307 C303 1.393 . S
C307 C306 1.391 . S
C308 H298 0.950 . S
C308 C309 1.386 . S
C308 C310 1.391 . S
C309 C308 1.386 . S
C309 C313 1.393 . S
C310 H299 0.950 . S
C310 C308 1.391 . S
C310 C311 1.400 . S
C311 C305 1.491 . S
C311 C310 1.400 . S
C311 C312 1.398 . S
C312 H300 0.950 . S
C312 C311 1.398 . S
C312 C313 1.391 . S
C313 H301 0.950 . S
C313 C309 1.393 . S
C313 C312 1.391 . S
H314 C322 0.950 . S
H315 C327 0.950 . S
H316 C324 0.950 . S
H317 C326 0.950 . S
H318 C328 0.950 . S
H319 C330 0.950 . S
H320 C332 0.950 . S
H321 C333 0.950 . S
C322 H314 0.950 . S
C322 C323 1.386 . S
C322 C324 1.391 . S
C323 C322 1.386 . S
C323 C327 1.393 . S
C324 H316 0.950 . S
C324 C322 1.391 . S
C324 C325 1.400 . S
C325 C324 1.400 . S
C325 C326 1.398 . S
C325 C331 1.491 . S
C326 H317 0.950 . S
C326 C325 1.398 . S
C326 C327 1.391 . S
C327 H315 0.950 . S
C327 C323 1.393 . S
C327 C326 1.391 . S
C328 H318 0.950 . S
C328 C329 1.386 . S
C328 C330 1.391 . S
C329 C328 1.386 . S
C329 C333 1.393 . S
C330 H319 0.950 . S
C330 C328 1.391 . S
C330 C331 1.400 . S
C331 C325 1.491 . S
C331 C330 1.400 . S
C331 C332 1.398 . S
C332 H320 0.950 . S
C332 C331 1.398 . S
C332 C333 1.391 . S
C333 H321 0.950 . S
C333 C329 1.393 . S
C333 C332 1.391 . S
H334 C342 0.950 . S
H335 C347 0.950 . S
H336 C344 0.950 . S
H337 C346 0.950 . S
H338 C348 0.950 . S
H339 C350 0.950 . S
H340 C352 0.950 . S
H341 C353 0.950 . S
C342 H334 0.950 . S
C342 C343 1.386 . S
C342 C344 1.391 . S
C343 C342 1.386 . S
C343 C347 1.393 . S
C344 H336 0.950 . S
C344 C342 1.391 . S
C344 C345 1.400 . S
C345 C344 1.400 . S
C345 C346 1.398 . S
C345 C351 1.491 . S
C346 H337 0.950 . S
C346 C345 1.398 . S
C346 C347 1.391 . S
C347 H335 0.950 . S
C347 C343 1.393 . S
C347 C346 1.391 . S
C348 H338 0.950 . S
C348 C349 1.386 . S
C348 C350 1.391 . S
C349 C348 1.386 . S
C349 C353 1.393 . S
C350 H339 0.950 . S
C350 C348 1.391 . S
C350 C351 1.400 . S
C351 C345 1.491 . S
C351 C350 1.400 . S
C351 C352 1.398 . S
C352 H340 0.950 . S
C352 C351 1.398 . S
C352 C353 1.391 . S
C353 H341 0.950 . S
C353 C349 1.393 . S
C353 C352 1.391 . S
H354 C362 0.950 . S
H355 C367 0.950 . S
H356 C364 0.950 . S
H357 C366 0.950 . S
H358 C368 0.950 . S
H359 C370 0.950 . S
H360 C372 0.950 . S
H361 C373 0.950 . S
C362 H354 0.950 . S
C362 C363 1.386 . S
C362 C364 1.391 . S
C363 C362 1.386 . S
C363 C367 1.393 . S
C364 H356 0.950 . S
C364 C362 1.391 . S
C364 C365 1.400 . S
C365 C364 1.400 . S
C365 C366 1.398 . S
C365 C371 1.491 1_655 S
C366 H357 0.950 . S
C366 C365 1.398 . S
C366 C367 1.391 . S
C367 H355 0.950 . S
C367 C363 1.393 . S
C367 C366 1.391 . S
C368 H358 0.950 . S
C368 C369 1.386 . S
C368 C370 1.391 . S
C369 C368 1.386 . S
C369 C373 1.393 . S
C370 H359 0.950 . S
C370 C368 1.391 . S
C370 C371 1.400 . S
C371 C365 1.491 1_455 S
C371 C370 1.400 . S
C371 C372 1.398 . S
C372 H360 0.950 . S
C372 C371 1.398 . S
C372 C373 1.391 . S
C373 H361 0.950 . S
C373 C369 1.393 . S
C373 C372 1.391 . S
H374 C382 0.950 . S
H375 C387 0.950 . S
H376 C384 0.950 . S
H377 C386 0.950 . S
H378 C388 0.950 . S
H379 C390 0.950 . S
H380 C392 0.950 . S
H381 C393 0.950 . S
C382 H374 0.950 . S
C382 C383 1.386 . S
C382 C384 1.391 . S
C383 C382 1.386 . S
C383 C387 1.393 . S
C384 H376 0.950 . S
C384 C382 1.391 . S
C384 C385 1.400 . S
C385 C384 1.400 . S
C385 C386 1.398 . S
C385 C391 1.491 . S
C386 H377 0.950 . S
C386 C385 1.398 . S
C386 C387 1.391 . S
C387 H375 0.950 . S
C387 C383 1.393 . S
C387 C386 1.391 . S
C388 H378 0.950 . S
C388 C389 1.386 . S
C388 C390 1.391 . S
C389 C388 1.386 . S
C389 C393 1.393 . S
C390 H379 0.950 . S
C390 C388 1.391 . S
C390 C391 1.400 . S
C391 C385 1.491 . S
C391 C390 1.400 . S
C391 C392 1.398 . S
C392 H380 0.950 . S
C392 C391 1.398 . S
C392 C393 1.391 . S
C393 H381 0.950 . S
C393 C389 1.393 . S
C393 C392 1.391 . S
H394 C402 0.950 . S
H395 C407 0.950 . S
H396 C404 0.950 . S
H397 C406 0.950 . S
H398 C408 0.950 . S
H399 C410 0.950 . S
H400 C412 0.950 . S
H401 C413 0.950 . S
C402 H394 0.950 . S
C402 C403 1.386 . S
C402 C404 1.391 . S
C403 C402 1.386 . S
C403 C407 1.393 . S
C404 H396 0.950 . S
C404 C402 1.391 . S
C404 C405 1.400 . S
C405 C404 1.400 . S
C405 C406 1.398 . S
C405 C411 1.491 1_545 S
C406 H397 0.950 . S
C406 C405 1.398 . S
C406 C407 1.391 . S
C407 H395 0.950 . S
C407 C403 1.393 . S
C407 C406 1.391 . S
C408 H398 0.950 . S
C408 C409 1.386 . S
C408 C410 1.391 . S
C409 C408 1.386 . S
C409 C413 1.393 . S
C410 H399 0.950 . S
C410 C408 1.391 . S
C410 C411 1.400 . S
C411 C405 1.491 1_565 S
C411 C410 1.400 . S
C411 C412 1.398 . S
C412 H400 0.950 . S
C412 C411 1.398 . S
C412 C413 1.391 . S
C413 H401 0.950 . S
C413 C409 1.393 . S
C413 C412 1.391 . S
H414 C422 0.950 . S
H415 C427 0.950 . S
H416 C424 0.950 . S
H417 C426 0.950 . S
H418 C428 0.950 . S
H419 C430 0.950 . S
H420 C432 0.950 . S
H421 C433 0.950 . S
C422 H414 0.950 . S
C422 C423 1.386 . S
C422 C424 1.391 . S
C423 C422 1.386 . S
C423 C427 1.393 . S
C424 H416 0.950 . S
C424 C422 1.391 . S
C424 C425 1.400 . S
C425 C424 1.400 . S
C425 C426 1.398 . S
C425 C431 1.491 1_455 S
C426 H417 0.950 . S
C426 C425 1.398 . S
C426 C427 1.391 . S
C427 H415 0.950 . S
C427 C423 1.393 . S
C427 C426 1.391 . S
C428 H418 0.950 . S
C428 C429 1.386 . S
C428 C430 1.391 . S
C429 C428 1.386 . S
C429 C433 1.393 . S
C430 H419 0.950 . S
C430 C428 1.391 . S
C430 C431 1.400 . S
C431 C425 1.491 1_655 S
C431 C430 1.400 . S
C431 C432 1.398 . S
C432 H420 0.950 . S
C432 C431 1.398 . S
C432 C433 1.391 . S
C433 H421 0.950 . S
C433 C429 1.393 . S
C433 C432 1.391 . S
H434 C442 0.950 . S
H435 C447 0.950 . S
H436 C444 0.950 . S
H437 C446 0.950 . S
H438 C448 0.950 . S
H439 C450 0.950 . S
H440 C452 0.950 . S
H441 C453 0.950 . S
C442 H434 0.950 . S
C442 C443 1.386 . S
C442 C444 1.391 . S
C443 C442 1.386 . S
C443 C447 1.393 . S
C444 H436 0.950 . S
C444 C442 1.391 . S
C444 C445 1.400 . S
C445 C444 1.400 . S
C445 C446 1.398 . S
C445 C451 1.491 . S
C446 H437 0.950 . S
C446 C445 1.398 . S
C446 C447 1.391 . S
C447 H435 0.950 . S
C447 C443 1.393 . S
C447 C446 1.391 . S
C448 H438 0.950 . S
C448 C449 1.386 . S
C448 C450 1.391 . S
C449 C448 1.386 . S
C449 C453 1.393 . S
C450 H439 0.950 . S
C450 C448 1.391 . S
C450 C451 1.400 . S
C451 C445 1.491 . S
C451 C450 1.400 . S
C451 C452 1.398 . S
C452 H440 0.950 . S
C452 C451 1.398 . S
C452 C453 1.391 . S
C453 H441 0.950 . S
C453 C449 1.393 . S
C453 C452 1.391 . S
H454 C462 0.950 . S
H455 C467 0.950 . S
H456 C464 0.950 . S
H457 C466 0.950 . S
H458 C468 0.950 . S
H459 C470 0.950 . S
H460 C472 0.950 . S
H461 C473 0.950 . S
C462 H454 0.950 . S
C462 C463 1.386 . S
C462 C464 1.391 . S
C463 C462 1.386 . S
C463 C467 1.393 . S
C464 H456 0.950 . S
C464 C462 1.391 . S
C464 C465 1.400 . S
C465 C464 1.400 . S
C465 C466 1.398 . S
C465 C471 1.491 1_545 S
C466 H457 0.950 . S
C466 C465 1.398 . S
C466 C467 1.391 . S
C467 H455 0.950 . S
C467 C463 1.393 . S
C467 C466 1.391 . S
C468 H458 0.950 . S
C468 C469 1.386 . S
C468 C470 1.391 . S
C469 C468 1.386 . S
C469 C473 1.393 . S
C470 H459 0.950 . S
C470 C468 1.391 . S
C470 C471 1.400 . S
C471 C465 1.491 1_565 S
C471 C470 1.400 . S
C471 C472 1.398 . S
C472 H460 0.950 . S
C472 C471 1.398 . S
C472 C473 1.391 . S
C473 H461 0.950 . S
C473 C469 1.393 . S
C473 C472 1.391 . S
H474 C482 0.950 . S
H475 C487 0.950 . S
H476 C484 0.950 . S
H477 C486 0.950 . S
H478 C488 0.950 . S
H479 C490 0.950 . S
H480 C492 0.950 . S
H481 C493 0.950 . S
C482 H474 0.950 . S
C482 C483 1.386 . S
C482 C484 1.391 . S
C483 C482 1.386 . S
C483 C487 1.393 . S
C484 H476 0.950 . S
C484 C482 1.391 . S
C484 C485 1.400 . S
C485 C484 1.400 . S
C485 C486 1.398 . S
C485 C491 1.491 1_565 S
C486 H477 0.950 . S
C486 C485 1.398 . S
C486 C487 1.391 . S
C487 H475 0.950 . S
C487 C483 1.393 . S
C487 C486 1.391 . S
C488 H478 0.950 . S
C488 C489 1.386 . S
C488 C490 1.391 . S
C489 C488 1.386 . S
C489 C493 1.393 . S
C490 H479 0.950 . S
C490 C488 1.391 . S
C490 C491 1.400 . S
C491 C485 1.491 1_545 S
C491 C490 1.400 . S
C491 C492 1.398 . S
C492 H480 0.950 . S
C492 C491 1.398 . S
C492 C493 1.391 . S
C493 H481 0.950 . S
C493 C489 1.393 . S
C493 C492 1.391 . S
H494 C502 0.950 . S
H495 C507 0.950 . S
H496 C504 0.950 . S
H497 C506 0.950 . S
H498 C508 0.950 . S
H499 C510 0.950 . S
H500 C512 0.950 . S
H501 C513 0.950 . S
C502 H494 0.950 . S
C502 C503 1.386 . S
C502 C504 1.391 . S
C503 C502 1.386 . S
C503 C507 1.393 . S
C504 H496 0.950 . S
C504 C502 1.391 . S
C504 C505 1.400 . S
C505 C504 1.400 . S
C505 C506 1.398 . S
C505 C511 1.491 1_455 S
C506 H497 0.950 . S
C506 C505 1.398 . S
C506 C507 1.391 . S
C507 H495 0.950 . S
C507 C503 1.393 . S
C507 C506 1.391 . S
C508 H498 0.950 . S
C508 C509 1.386 . S
C508 C510 1.391 . S
C509 C508 1.386 . S
C509 C513 1.393 . S
C510 H499 0.950 . S
C510 C508 1.391 . S
C510 C511 1.400 . S
C511 C505 1.491 1_655 S
C511 C510 1.400 . S
C511 C512 1.398 . S
C512 H500 0.950 . S
C512 C511 1.398 . S
C512 C513 1.391 . S
C513 H501 0.950 . S
C513 C509 1.393 . S
C513 C512 1.391 . S
H514 C522 0.950 . S
H515 C527 0.950 . S
H516 C524 0.950 . S
H517 C526 0.950 . S
H518 C528 0.950 . S
H519 C530 0.950 . S
H520 C532 0.950 . S
H521 C533 0.950 . S
C522 H514 0.950 . S
C522 C523 1.386 . S
C522 C524 1.391 . S
C523 C522 1.386 . S
C523 C527 1.393 . S
C524 H516 0.950 . S
C524 C522 1.391 . S
C524 C525 1.400 . S
C525 C524 1.400 . S
C525 C526 1.398 . S
C525 C531 1.491 . S
C526 H517 0.950 . S
C526 C525 1.398 . S
C526 C527 1.391 . S
C527 H515 0.950 . S
C527 C523 1.393 . S
C527 C526 1.391 . S
C528 H518 0.950 . S
C528 C529 1.386 . S
C528 C530 1.391 . S
C529 C528 1.386 . S
C529 C533 1.393 . S
C530 H519 0.950 . S
C530 C528 1.391 . S
C530 C531 1.400 . S
C531 C525 1.491 . S
C531 C530 1.400 . S
C531 C532 1.398 . S
C532 H520 0.950 . S
C532 C531 1.398 . S
C532 C533 1.391 . S
C533 H521 0.950 . S
C533 C529 1.393 . S
C533 C532 1.391 . S
H534 C542 0.950 . S
H535 C547 0.950 . S
H536 C544 0.950 . S
H537 C546 0.950 . S
H538 C548 0.950 . S
H539 C550 0.950 . S
H540 C552 0.950 . S
H541 C553 0.950 . S
C542 H534 0.950 . S
C542 C543 1.386 . S
C542 C544 1.391 . S
C543 C542 1.386 . S
C543 C547 1.393 . S
C544 H536 0.950 . S
C544 C542 1.391 . S
C544 C545 1.400 . S
C545 C544 1.400 . S
C545 C546 1.398 . S
C545 C551 1.491 . S
C546 H537 0.950 . S
C546 C545 1.398 . S
C546 C547 1.391 . S
C547 H535 0.950 . S
C547 C543 1.393 . S
C547 C546 1.391 . S
C548 H538 0.950 . S
C548 C549 1.386 . S
C548 C550 1.391 . S
C549 C548 1.386 . S
C549 C553 1.393 . S
C550 H539 0.950 . S
C550 C548 1.391 . S
C550 C551 1.400 . S
C551 C545 1.491 . S
C551 C550 1.400 . S
C551 C552 1.398 . S
C552 H540 0.950 . S
C552 C551 1.398 . S
C552 C553 1.391 . S
C553 H541 0.950 . S
C553 C549 1.393 . S
C553 C552 1.391 . S
H554 C562 0.950 . S
H555 C567 0.950 . S
H556 C564 0.950 . S
H557 C566 0.950 . S
H558 C568 0.950 . S
H559 C570 0.950 . S
H560 C572 0.950 . S
H561 C573 0.950 . S
C562 H554 0.950 . S
C562 C563 1.386 . S
C562 C564 1.391 . S
C563 C562 1.386 . S
C563 C567 1.393 . S
C564 H556 0.950 . S
C564 C562 1.391 . S
C564 C565 1.400 . S
C565 C564 1.400 . S
C565 C566 1.398 . S
C565 C571 1.491 . S
C566 H557 0.950 . S
C566 C565 1.398 . S
C566 C567 1.391 . S
C567 H555 0.950 . S
C567 C563 1.393 . S
C567 C566 1.391 . S
C568 H558 0.950 . S
C568 C569 1.386 . S
C568 C570 1.391 . S
C569 C568 1.386 . S
C569 C573 1.393 . S
C570 H559 0.950 . S
C570 C568 1.391 . S
C570 C571 1.400 . S
C571 C565 1.491 . S
C571 C570 1.400 . S
C571 C572 1.398 . S
C572 H560 0.950 . S
C572 C571 1.398 . S
C572 C573 1.391 . S
C573 H561 0.950 . S
C573 C569 1.393 . S
C573 C572 1.391 . S
H574 C582 0.950 . S
H575 C587 0.950 . S
H576 C584 0.950 . S
H577 C586 0.950 . S
H578 C588 0.950 . S
H579 C590 0.950 . S
H580 C592 0.950 . S
H581 C593 0.950 . S
C582 H574 0.950 . S
C582 C583 1.386 . S
C582 C584 1.391 . S
C583 C582 1.386 . S
C583 C587 1.393 . S
C584 H576 0.950 . S
C584 C582 1.391 . S
C584 C585 1.400 . S
C585 C584 1.400 . S
C585 C586 1.398 . S
C585 C591 1.491 . S
C586 H577 0.950 . S
C586 C585 1.398 . S
C586 C587 1.391 . S
C587 H575 0.950 . S
C587 C583 1.393 . S
C587 C586 1.391 . S
C588 H578 0.950 . S
C588 C589 1.386 . S
C588 C590 1.391 . S
C589 C588 1.386 . S
C589 C593 1.393 . S
C590 H579 0.950 . S
C590 C588 1.391 . S
C590 C591 1.400 . S
C591 C585 1.491 . S
C591 C590 1.400 . S
C591 C592 1.398 . S
C592 H580 0.950 . S
C592 C591 1.398 . S
C592 C593 1.391 . S
C593 H581 0.950 . S
C593 C589 1.393 . S
C593 C592 1.391 . S
H594 C602 0.950 . S
H595 C607 0.950 . S
H596 C604 0.950 . S
H597 C606 0.950 . S
H598 C608 0.950 . S
H599 C610 0.950 . S
H600 C612 0.950 . S
H601 C613 0.950 . S
C602 H594 0.950 . S
C602 C603 1.386 . S
C602 C604 1.391 . S
C603 C602 1.386 . S
C603 C607 1.393 . S
C604 H596 0.950 . S
C604 C602 1.391 . S
C604 C605 1.400 . S
C605 C604 1.400 . S
C605 C606 1.398 . S
C605 C611 1.491 . S
C606 H597 0.950 . S
C606 C605 1.398 . S
C606 C607 1.391 . S
C607 H595 0.950 . S
C607 C603 1.393 . S
C607 C606 1.391 . S
C608 H598 0.950 . S
C608 C609 1.386 . S
C608 C610 1.391 . S
C609 C608 1.386 . S
C609 C613 1.393 . S
C610 H599 0.950 . S
C610 C608 1.391 . S
C610 C611 1.400 . S
C611 C605 1.491 . S
C611 C610 1.400 . S
C611 C612 1.398 . S
C612 H600 0.950 . S
C612 C611 1.398 . S
C612 C613 1.391 . S
C613 H601 0.950 . S
C613 C609 1.393 . S
C613 C612 1.391 . S
H614 C622 0.950 . S
H615 C627 0.950 . S
H616 C624 0.950 . S
H617 C626 0.950 . S
H618 C628 0.950 . S
H619 C630 0.950 . S
H620 C632 0.950 . S
H621 C633 0.950 . S
C622 H614 0.950 . S
C622 C623 1.386 . S
C622 C624 1.391 . S
C623 C622 1.386 . S
C623 C627 1.393 . S
C624 H616 0.950 . S
C624 C622 1.391 . S
C624 C625 1.400 . S
C625 C624 1.400 . S
C625 C626 1.398 . S
C625 C631 1.491 . S
C626 H617 0.950 . S
C626 C625 1.398 . S
C626 C627 1.391 . S
C627 H615 0.950 . S
C627 C623 1.393 . S
C627 C626 1.391 . S
C628 H618 0.950 . S
C628 C629 1.386 . S
C628 C630 1.391 . S
C629 C628 1.386 . S
C629 C633 1.393 . S
C630 H619 0.950 . S
C630 C628 1.391 . S
C630 C631 1.400 . S
C631 C625 1.491 . S
C631 C630 1.400 . S
C631 C632 1.398 . S
C632 H620 0.950 . S
C632 C631 1.398 . S
C632 C633 1.391 . S
C633 H621 0.950 . S
C633 C629 1.393 . S
C633 C632 1.391 . S
H634 C642 0.950 . S
H635 C647 0.950 . S
H636 C644 0.950 . S
H637 C646 0.950 . S
H638 C648 0.950 . S
H639 C650 0.950 . S
H640 C652 0.950 . S
H641 C653 0.950 . S
C642 H634 0.950 . S
C642 C643 1.386 . S
C642 C644 1.391 . S
C643 C642 1.386 . S
C643 C647 1.393 . S
C644 H636 0.950 . S
C644 C642 1.391 . S
C644 C645 1.400 . S
C645 C644 1.400 . S
C645 C646 1.398 . S
C645 C651 1.491 . S
C646 H637 0.950 . S
C646 C645 1.398 . S
C646 C647 1.391 . S
C647 H635 0.950 . S
C647 C643 1.393 . S
C647 C646 1.391 . S
C648 H638 0.950 . S
C648 C649 1.386 . S
C648 C650 1.391 . S
C649 C648 1.386 . S
C649 C653 1.393 . S
C650 H639 0.950 . S
C650 C648 1.391 . S
C650 C651 1.400 . S
C651 C645 1.491 . S
C651 C650 1.400 . S
C651 C652 1.398 . S
C652 H640 0.950 . S
C652 C651 1.398 . S
C652 C653 1.391 . S
C653 H641 0.950 . S
C653 C649 1.393 . S
C653 C652 1.391 . S
H654 C662 0.950 . S
H655 C667 0.950 . S
H656 C664 0.950 . S
H657 C666 0.950 . S
H658 C668 0.950 . S
H659 C670 0.950 . S
H660 C672 0.950 . S
H661 C673 0.950 . S
C662 H654 0.950 . S
C662 C663 1.386 . S
C662 C664 1.391 . S
C663 C662 1.386 . S
C663 C667 1.393 . S
C664 H656 0.950 . S
C664 C662 1.391 . S
C664 C665 1.400 . S
C665 C664 1.400 . S
C665 C666 1.398 . S
C665 C671 1.491 . S
C666 H657 0.950 . S
C666 C665 1.398 . S
C666 C667 1.391 . S
C667 H655 0.950 . S
C667 C663 1.393 . S
C667 C666 1.391 . S
C668 H658 0.950 . S
C668 C669 1.386 . S
C668 C670 1.391 . S
C669 C668 1.386 . S
C669 C673 1.393 . S
C670 H659 0.950 . S
C670 C668 1.391 . S
C670 C671 1.400 . S
C671 C665 1.491 . S
C671 C670 1.400 . S
C671 C672 1.398 . S
C672 H660 0.950 . S
C672 C671 1.398 . S
C672 C673 1.391 . S
C673 H661 0.950 . S
C673 C669 1.393 . S
C673 C672 1.391 . S
H674 C682 0.950 . S
H675 C687 0.950 . S
H676 C684 0.950 . S
H677 C686 0.950 . S
H678 C688 0.950 . S
H679 C690 0.950 . S
H680 C692 0.950 . S
H681 C693 0.950 . S
C682 H674 0.950 . S
C682 C683 1.386 . S
C682 C684 1.391 . S
C683 C682 1.386 . S
C683 C687 1.393 . S
C684 H676 0.950 . S
C684 C682 1.391 . S
C684 C685 1.400 . S
C685 C684 1.400 . S
C685 C686 1.398 . S
C685 C691 1.491 . S
C686 H677 0.950 . S
C686 C685 1.398 . S
C686 C687 1.391 . S
C687 H675 0.950 . S
C687 C683 1.393 . S
C687 C686 1.391 . S
C688 H678 0.950 . S
C688 C689 1.386 . S
C688 C690 1.391 . S
C689 C688 1.386 . S
C689 C693 1.393 . S
C690 H679 0.950 . S
C690 C688 1.391 . S
C690 C691 1.400 . S
C691 C685 1.491 . S
C691 C690 1.400 . S
C691 C692 1.398 . S
C692 H680 0.950 . S
C692 C691 1.398 . S
C692 C693 1.391 . S
C693 H681 0.950 . S
C693 C689 1.393 . S
C693 C692 1.391 . S
H694 C702 0.950 . S
H695 C707 0.950 . S
H696 C704 0.950 . S
H697 C706 0.950 . S
H698 C708 0.950 . S
H699 C710 0.950 . S
H700 C712 0.950 . S
H701 C713 0.950 . S
C702 H694 0.950 . S
C702 C703 1.386 . S
C702 C704 1.391 . S
C703 C702 1.386 . S
C703 C707 1.393 . S
C704 H696 0.950 . S
C704 C702 1.391 . S
C704 C705 1.400 . S
C705 C704 1.400 . S
C705 C706 1.398 . S
C705 C711 1.491 . S
C706 H697 0.950 . S
C706 C705 1.398 . S
C706 C707 1.391 . S
C707 H695 0.950 . S
C707 C703 1.393 . S
C707 C706 1.391 . S
C708 H698 0.950 . S
C708 C709 1.386 . S
C708 C710 1.391 . S
C709 C708 1.386 . S
C709 C713 1.393 . S
C710 H699 0.950 . S
C710 C708 1.391 . S
C710 C711 1.400 . S
C711 C705 1.491 . S
C711 C710 1.400 . S
C711 C712 1.398 . S
C712 H700 0.950 . S
C712 C711 1.398 . S
C712 C713 1.391 . S
C713 H701 0.950 . S
C713 C709 1.393 . S
C713 C712 1.391 . S
H714 C722 0.950 . S
H715 C727 0.950 . S
H716 C724 0.950 . S
H717 C726 0.950 . S
H718 C728 0.950 . S
H719 C730 0.950 . S
H720 C732 0.950 . S
H721 C733 0.950 . S
C722 H714 0.950 . S
C722 C723 1.386 . S
C722 C724 1.391 . S
C723 C722 1.386 . S
C723 C727 1.393 . S
C724 H716 0.950 . S
C724 C722 1.391 . S
C724 C725 1.400 . S
C725 C724 1.400 . S
C725 C726 1.398 . S
C725 C731 1.491 . S
C726 H717 0.950 . S
C726 C725 1.398 . S
C726 C727 1.391 . S
C727 H715 0.950 . S
C727 C723 1.393 . S
C727 C726 1.391 . S
C728 H718 0.950 . S
C728 C729 1.386 . S
C728 C730 1.391 . S
C729 C728 1.386 . S
C729 C733 1.393 . S
C730 H719 0.950 . S
C730 C728 1.391 . S
C730 C731 1.400 . S
C731 C725 1.491 . S
C731 C730 1.400 . S
C731 C732 1.398 . S
C732 H720 0.950 . S
C732 C731 1.398 . S
C732 C733 1.391 . S
C733 H721 0.950 . S
C733 C729 1.393 . S
C733 C732 1.391 . S
H734 C742 0.950 . S
H735 C747 0.950 . S
H736 C744 0.950 . S
H737 C746 0.950 . S
H738 C748 0.950 . S
H739 C750 0.950 . S
H740 C752 0.950 . S
H741 C753 0.950 . S
C742 H734 0.950 . S
C742 C743 1.386 . S
C742 C744 1.391 . S
C743 C742 1.386 . S
C743 C747 1.393 . S
C744 H736 0.950 . S
C744 C742 1.391 . S
C744 C745 1.400 . S
C745 C744 1.400 . S
C745 C746 1.398 . S
C745 C751 1.491 . S
C746 H737 0.950 . S
C746 C745 1.398 . S
C746 C747 1.391 . S
C747 H735 0.950 . S
C747 C743 1.393 . S
C747 C746 1.391 . S
C748 H738 0.950 . S
C748 C749 1.386 . S
C748 C750 1.391 . S
C749 C748 1.386 . S
C749 C753 1.393 . S
C750 H739 0.950 . S
C750 C748 1.391 . S
C750 C751 1.400 . S
C751 C745 1.491 . S
C751 C750 1.400 . S
C751 C752 1.398 . S
C752 H740 0.950 . S
C752 C751 1.398 . S
C752 C753 1.391 . S
C753 H741 0.950 . S
C753 C749 1.393 . S
C753 C752 1.391 . S
H754 C762 0.950 . S
H755 C767 0.950 . S
H756 C764 0.950 . S
H757 C766 0.950 . S
H758 C768 0.950 . S
H759 C770 0.950 . S
H760 C772 0.950 . S
H761 C773 0.950 . S
C762 H754 0.950 . S
C762 C763 1.386 . S
C762 C764 1.391 . S
C763 C762 1.386 . S
C763 C767 1.393 . S
C764 H756 0.950 . S
C764 C762 1.391 . S
C764 C765 1.400 . S
C765 C764 1.400 . S
C765 C766 1.398 . S
C765 C771 1.491 . S
C766 H757 0.950 . S
C766 C765 1.398 . S
C766 C767 1.391 . S
C767 H755 0.950 . S
C767 C763 1.393 . S
C767 C766 1.391 . S
C768 H758 0.950 . S
C768 C769 1.386 . S
C768 C770 1.391 . S
C769 C768 1.386 . S
C769 C773 1.393 . S
C770 H759 0.950 . S
C770 C768 1.391 . S
C770 C771 1.400 . S
C771 C765 1.491 . S
C771 C770 1.400 . S
C771 C772 1.398 . S
C772 H760 0.950 . S
C772 C771 1.398 . S
C772 C773 1.391 . S
C773 H761 0.950 . S
C773 C769 1.393 . S
C773 C772 1.391 . S
H774 C782 0.950 . S
H775 C787 0.950 . S
H776 C784 0.950 . S
H777 C786 0.950 . S
H778 C788 0.950 . S
H779 C790 0.950 . S
H780 C792 0.950 . S
H781 C793 0.950 . S
C782 H774 0.950 . S
C782 C783 1.386 . S
C782 C784 1.391 . S
C783 C782 1.386 . S
C783 C787 1.393 . S
C784 H776 0.950 . S
C784 C782 1.391 . S
C784 C785 1.400 . S
C785 C784 1.400 . S
C785 C786 1.398 . S
C785 C791 1.491 1_554 S
C786 H777 0.950 . S
C786 C785 1.398 . S
C786 C787 1.391 . S
C787 H775 0.950 . S
C787 C783 1.393 . S
C787 C786 1.391 . S
C788 H778 0.950 . S
C788 C789 1.386 . S
C788 C790 1.391 . S
C789 C788 1.386 . S
C789 C793 1.393 . S
C790 H779 0.950 . S
C790 C788 1.391 . S
C790 C791 1.400 . S
C791 C785 1.491 1_556 S
C791 C790 1.400 . S
C791 C792 1.398 . S
C792 H780 0.950 . S
C792 C791 1.398 . S
C792 C793 1.391 . S
C793 H781 0.950 . S
C793 C789 1.393 . S
C793 C792 1.391 . S
H794 C802 0.950 . S
H795 C807 0.950 . S
H796 C804 0.950 . S
H797 C806 0.950 . S
H798 C808 0.950 . S
H799 C810 0.950 . S
H800 C812 0.950 . S
H801 C813 0.950 . S
C802 H794 0.950 . S
C802 C803 1.386 1_565 S
C802 C804 1.391 . S
C803 C802 1.386 1_545 S
C803 C807 1.393 . S
C804 H796 0.950 . S
C804 C802 1.391 . S
C804 C805 1.400 1_565 S
C805 C804 1.400 1_545 S
C805 C806 1.398 . S
C805 C811 1.491 1_556 S
C806 H797 0.950 . S
C806 C805 1.398 . S
C806 C807 1.391 . S
C807 H795 0.950 . S
C807 C803 1.393 . S
C807 C806 1.391 . S
C808 H798 0.950 . S
C808 C809 1.386 1_545 S
C808 C810 1.391 . S
C809 C808 1.386 1_565 S
C809 C813 1.393 . S
C810 H799 0.950 . S
C810 C808 1.391 . S
C810 C811 1.400 . S
C811 C805 1.491 1_554 S
C811 C810 1.400 . S
C811 C812 1.398 1_545 S
C812 H800 0.950 . S
C812 C811 1.398 1_565 S
C812 C813 1.391 . S
C813 H801 0.950 . S
C813 C809 1.393 . S
C813 C812 1.391 . S
H814 C822 0.950 . S
H815 C827 0.950 . S
H816 C824 0.950 . S
H817 C826 0.950 . S
H818 C828 0.950 . S
H819 C830 0.950 . S
H820 C832 0.950 . S
H821 C833 0.950 . S
C822 H814 0.950 . S
C822 C823 1.380 . S
C822 C824 1.391 . S
C823 C822 1.380 . S
C823 C827 1.397 1_655 S
C824 H816 0.950 . S
C824 C822 1.391 . S
C824 C825 1.400 1_655 S
C825 C824 1.400 1_455 S
C825 C826 1.398 . S
C825 C831 1.491 1_556 S
C826 H817 0.950 . S
C826 C825 1.398 . S
C826 C827 1.391 . S
C827 H815 0.950 . S
C827 C823 1.397 1_455 S
C827 C826 1.391 . S
C828 H818 0.950 . S
C828 C829 1.386 . S
C828 C830 1.391 . S
C829 C828 1.386 . S
C829 C833 1.393 1_455 S
C830 H819 0.950 . S
C830 C828 1.391 . S
C830 C831 1.400 . S
C831 C825 1.491 1_554 S
C831 C830 1.400 . S
C831 C832 1.398 1_455 S
C832 H820 0.950 . S
C832 C831 1.398 1_655 S
C832 C833 1.391 . S
C833 H821 0.950 . S
C833 C829 1.393 1_655 S
C833 C832 1.391 . S
H834 C842 0.950 . S
H835 C847 0.950 . S
H836 C844 0.950 . S
H837 C846 0.950 . S
H838 C848 0.950 . S
H839 C850 0.950 . S
H840 C852 0.950 . S
H841 C853 0.950 . S
C842 H834 0.950 . S
C842 C843 1.386 . S
C842 C844 1.391 . S
C843 C842 1.386 . S
C843 C847 1.393 . S
C844 H836 0.950 . S
C844 C842 1.391 . S
C844 C845 1.400 . S
C845 C844 1.400 . S
C845 C846 1.398 . S
C845 C851 1.491 . S
C846 H837 0.950 . S
C846 C845 1.398 . S
C846 C847 1.391 . S
C847 H835 0.950 . S
C847 C843 1.393 . S
C847 C846 1.391 . S
C848 H838 0.950 . S
C848 C849 1.386 . S
C848 C850 1.391 . S
C849 C848 1.386 . S
C849 C853 1.393 . S
C850 H839 0.950 . S
C850 C848 1.391 . S
C850 C851 1.400 . S
C851 C845 1.491 . S
C851 C850 1.400 . S
C851 C852 1.398 . S
C852 H840 0.950 . S
C852 C851 1.398 . S
C852 C853 1.391 . S
C853 H841 0.950 . S
C853 C849 1.393 . S
C853 C852 1.391 . S
H854 C862 0.950 . S
H855 C867 0.950 . S
H856 C864 0.950 . S
H857 C866 0.950 . S
H858 C868 0.950 . S
H859 C870 0.950 . S
H860 C872 0.950 . S
H861 C873 0.950 . S
C862 H854 0.950 . S
C862 C863 1.386 . S
C862 C864 1.391 . S
C863 C862 1.386 . S
C863 C867 1.393 . S
C864 H856 0.950 . S
C864 C862 1.391 . S
C864 C865 1.400 . S
C865 C864 1.400 . S
C865 C866 1.398 . S
C865 C871 1.491 . S
C866 H857 0.950 . S
C866 C865 1.398 . S
C866 C867 1.391 . S
C867 H855 0.950 . S
C867 C863 1.393 . S
C867 C866 1.391 . S
C868 H858 0.950 . S
C868 C869 1.386 . S
C868 C870 1.391 . S
C869 C868 1.386 . S
C869 C873 1.393 . S
C870 H859 0.950 . S
C870 C868 1.391 . S
C870 C871 1.400 . S
C871 C865 1.491 . S
C871 C870 1.400 . S
C871 C872 1.398 . S
C872 H860 0.950 . S
C872 C871 1.398 . S
C872 C873 1.391 . S
C873 H861 0.950 . S
C873 C869 1.393 . S
C873 C872 1.391 . S
H874 C882 0.950 . S
H875 C887 0.950 . S
H876 C884 0.950 . S
H877 C886 0.950 . S
H878 C888 0.950 . S
H879 C890 0.950 . S
H880 C892 0.950 . S
H881 C893 0.950 . S
C882 H874 0.950 . S
C882 C883 1.386 . S
C882 C884 1.391 . S
C883 C882 1.386 . S
C883 C887 1.393 . S
C884 H876 0.950 . S
C884 C882 1.391 . S
C884 C885 1.400 . S
C885 C884 1.400 . S
C885 C886 1.398 . S
C885 C891 1.491 . S
C886 H877 0.950 . S
C886 C885 1.398 . S
C886 C887 1.391 . S
C887 H875 0.950 . S
C887 C883 1.393 . S
C887 C886 1.391 . S
C888 H878 0.950 . S
C888 C889 1.386 . S
C888 C890 1.391 . S
C889 C888 1.386 . S
C889 C893 1.393 . S
C890 H879 0.950 . S
C890 C888 1.391 . S
C890 C891 1.400 . S
C891 C885 1.491 . S
C891 C890 1.400 . S
C891 C892 1.398 . S
C892 H880 0.950 . S
C892 C891 1.398 . S
C892 C893 1.391 . S
C893 H881 0.950 . S
C893 C889 1.393 . S
C893 C892 1.391 . S
H894 C902 0.950 . S
H895 C907 0.950 . S
H896 C904 0.950 . S
H897 C906 0.950 . S
H898 C908 0.950 . S
H899 C910 0.950 . S
H900 C912 0.950 . S
H901 C913 0.950 . S
C902 H894 0.950 . S
C902 C903 1.386 . S
C902 C904 1.391 . S
C903 C902 1.386 . S
C903 C907 1.393 . S
C904 H896 0.950 . S
C904 C902 1.391 . S
C904 C905 1.400 . S
C905 C904 1.400 . S
C905 C906 1.398 . S
C905 C911 1.491 . S
C906 H897 0.950 . S
C906 C905 1.398 . S
C906 C907 1.391 . S
C907 H895 0.950 . S
C907 C903 1.393 . S
C907 C906 1.391 . S
C908 H898 0.950 . S
C908 C909 1.386 . S
C908 C910 1.391 . S
C909 C908 1.386 . S
C909 C913 1.393 . S
C910 H899 0.950 . S
C910 C908 1.391 . S
C910 C911 1.400 . S
C911 C905 1.491 . S
C911 C910 1.400 . S
C911 C912 1.398 . S
C912 H900 0.950 . S
C912 C911 1.398 . S
C912 C913 1.391 . S
C913 H901 0.950 . S
C913 C909 1.393 . S
C913 C912 1.391 . S
H914 C922 0.950 . S
H915 C927 0.950 . S
H916 C924 0.950 . S
H917 C926 0.950 . S
H918 C928 0.950 . S
H919 C930 0.950 . S
H920 C932 0.950 . S
H921 C933 0.950 . S
C922 H914 0.950 . S
C922 C923 1.386 . S
C922 C924 1.391 . S
C923 C922 1.386 . S
C923 C927 1.393 . S
C924 H916 0.950 . S
C924 C922 1.391 . S
C924 C925 1.400 . S
C925 C924 1.400 . S
C925 C926 1.398 . S
C925 C931 1.491 . S
C926 H917 0.950 . S
C926 C925 1.398 . S
C926 C927 1.391 . S
C927 H915 0.950 . S
C927 C923 1.393 . S
C927 C926 1.391 . S
C928 H918 0.950 . S
C928 C929 1.386 . S
C928 C930 1.391 . S
C929 C928 1.386 . S
C929 C933 1.393 . S
C930 H919 0.950 . S
C930 C928 1.391 . S
C930 C931 1.400 . S
C931 C925 1.491 . S
C931 C930 1.400 . S
C931 C932 1.398 . S
C932 H920 0.950 . S
C932 C931 1.398 . S
C932 C933 1.391 . S
C933 H921 0.950 . S
C933 C929 1.393 . S
C933 C932 1.391 . S
H934 C942 0.950 . S
H935 C947 0.950 . S
H936 C944 0.950 . S
H937 C946 0.950 . S
H938 C948 0.950 . S
H939 C950 0.950 . S
H940 C952 0.950 . S
H941 C953 0.950 . S
C942 H934 0.950 . S
C942 C943 1.386 . S
C942 C944 1.391 . S
C943 C942 1.386 . S
C943 C947 1.393 . S
C944 H936 0.950 . S
C944 C942 1.391 . S
C944 C945 1.400 . S
C945 C944 1.400 . S
C945 C946 1.398 . S
C945 C951 1.491 . S
C946 H937 0.950 . S
C946 C945 1.398 . S
C946 C947 1.391 . S
C947 H935 0.950 . S
C947 C943 1.393 . S
C947 C946 1.391 . S
C948 H938 0.950 . S
C948 C949 1.386 . S
C948 C950 1.391 . S
C949 C948 1.386 . S
C949 C953 1.393 . S
C950 H939 0.950 . S
C950 C948 1.391 . S
C950 C951 1.400 . S
C951 C945 1.491 . S
C951 C950 1.400 . S
C951 C952 1.398 . S
C952 H940 0.950 . S
C952 C951 1.398 . S
C952 C953 1.391 . S
C953 H941 0.950 . S
C953 C949 1.393 . S
C953 C952 1.391 . S
C243 C134 1.306 . S
C249 C10 1.301 . S
C263 C23 1.279 . S
C269 C147 1.280 . S
C283 C121 1.310 . S
C289 C30 1.309 . S
C303 C192 1.309 . S
C309 C49 1.305 . S
C323 C56 1.296 . S
C329 C166 1.302 . S
C343 C179 1.306 . S
C349 C69 1.301 . S
C363 C88 1.309 . S
C369 C212 1.311 . S
C383 C225 1.291 . S
C389 C101 1.297 . S
C403 C114 1.282 . S
C409 C205 1.286 . S
C423 C3 1.253 . S
C429 C18 1.249 . S
C443 C16 1.232 . S
C449 C29 1.268 . S
C463 C5 1.273 . S
C469 C31 1.235 . S
C483 C68 1.264 . S
C489 C42 1.234 . S
C503 C44 1.255 . S
C509 C57 1.243 . S
C523 C70 1.249 . S
C529 C55 1.266 . S
C543 C81 1.234 . S
C549 C96 1.273 . S
C563 C94 1.262 . S
C569 C109 1.250 . S
C583 C83 1.248 . S
C589 C107 1.255 . S
C603 C146 1.247 . S
C609 C122 1.258 . S
C623 C120 1.259 . S
C629 C135 1.257 . S
C643 C133 1.269 . S
C649 C148 1.244 . S
C663 C174 1.256 . S
C669 C159 1.259 . S
C683 C187 1.250 . S
C689 C172 1.251 . S
C703 C161 1.272 . S
C709 C185 1.239 . S
C723 C198 1.245 . S
C729 C224 1.269 . S
C743 C213 1.248 . S
C749 C200 1.252 . S
C763 C226 1.236 . S
C769 C211 1.273 . S
C783 C4 1.721 . S
C789 C43 1.718 . S
C803 C62 1.725 . S
C809 C17 1.734 1_565 S
C823 C75 1.722 1_655 S
C829 C36 1.718 . S
C843 C127 1.721 . S
C849 C82 1.718 . S
C863 C140 1.724 . S
C869 C95 1.733 . S
C883 C108 1.731 . S
C889 C153 1.719 . S
C903 C199 1.721 . S
C909 C160 1.718 . S
C923 C218 1.732 . S
C929 C173 1.729 . S
C943 C231 1.720 . S
C949 C186 1.718 . S
