# Generated by pormake.
# Topology wkj, (6)-cn, num edge types: 1
# Building blocks:
#     Node 0, Type 0, BuildingBlock: VOLQOD_clean_sbu_1, # of connection points: 6
#     Node 1, Type 0, BuildingBlock: VOLQOD_clean_sbu_1, # of connection points: 6
#     Node 2, Type 0, BuildingBlock: VOLQOD_clean_sbu_1, # of connection points: 6
#     Node 3, Type 0, BuildingBlock: VOLQOD_clean_sbu_1, # of connection points: 6
#     Node 4, Type 0, BuildingBlock: VOLQOD_clean_sbu_1, # of connection points: 6
#     Node 5, Type 0, BuildingBlock: VOLQOD_clean_sbu_1, # of connection points: 6
#     Node 6, Type 0, BuildingBlock: VOLQOD_clean_sbu_1, # of connection points: 6
#     Node 7, Type 0, BuildingBlock: VOLQOD_clean_sbu_1, # of connection points: 6
#     Node 8, Type 0, BuildingBlock: VOLQOD_clean_sbu_1, # of connection points: 6
#     Node 9, Type 0, BuildingBlock: VOLQOD_clean_sbu_1, # of connection points: 6
#     Node 10, Type 0, BuildingBlock: VOLQOD_clean_sbu_1, # of connection points: 6
#     Node 11, Type 0, BuildingBlock: VOLQOD_clean_sbu_1, # of connection points: 6
#     Edge 12, Type (0, 0), BuildingBlock: XUDNAN_clean_linker_2, # of connection points: 2
#     Edge 13, Type (0, 0), BuildingBlock: XUDNAN_clean_linker_2, # of connection points: 2
#     Edge 14, Type (0, 0), BuildingBlock: XUDNAN_clean_linker_2, # of connection points: 2
#     Edge 15, Type (0, 0), BuildingBlock: XUDNAN_clean_linker_2, # of connection points: 2
#     Edge 16, Type (0, 0), BuildingBlock: XUDNAN_clean_linker_2, # of connection points: 2
#     Edge 17, Type (0, 0), BuildingBlock: XUDNAN_clean_linker_2, # of connection points: 2
#     Edge 18, Type (0, 0), BuildingBlock: XUDNAN_clean_linker_2, # of connection points: 2
#     Edge 19, Type (0, 0), BuildingBlock: XUDNAN_clean_linker_2, # of connection points: 2
#     Edge 20, Type (0, 0), BuildingBlock: XUDNAN_clean_linker_2, # of connection points: 2
#     Edge 21, Type (0, 0), BuildingBlock: XUDNAN_clean_linker_2, # of connection points: 2
#     Edge 22, Type (0, 0), BuildingBlock: XUDNAN_clean_linker_2, # of connection points: 2
#     Edge 23, Type (0, 0), BuildingBlock: XUDNAN_clean_linker_2, # of connection points: 2
#     Edge 24, Type (0, 0), BuildingBlock: XUDNAN_clean_linker_2, # of connection points: 2
#     Edge 25, Type (0, 0), BuildingBlock: XUDNAN_clean_linker_2, # of connection points: 2
#     Edge 26, Type (0, 0), BuildingBlock: XUDNAN_clean_linker_2, # of connection points: 2
#     Edge 27, Type (0, 0), BuildingBlock: XUDNAN_clean_linker_2, # of connection points: 2
#     Edge 28, Type (0, 0), BuildingBlock: XUDNAN_clean_linker_2, # of connection points: 2
#     Edge 29, Type (0, 0), BuildingBlock: XUDNAN_clean_linker_2, # of connection points: 2
#     Edge 30, Type (0, 0), BuildingBlock: XUDNAN_clean_linker_2, # of connection points: 2
#     Edge 31, Type (0, 0), BuildingBlock: XUDNAN_clean_linker_2, # of connection points: 2
#     Edge 32, Type (0, 0), BuildingBlock: XUDNAN_clean_linker_2, # of connection points: 2
#     Edge 33, Type (0, 0), BuildingBlock: XUDNAN_clean_linker_2, # of connection points: 2
#     Edge 34, Type (0, 0), BuildingBlock: XUDNAN_clean_linker_2, # of connection points: 2
#     Edge 35, Type (0, 0), BuildingBlock: XUDNAN_clean_linker_2, # of connection points: 2
#     Edge 36, Type (0, 0), BuildingBlock: XUDNAN_clean_linker_2, # of connection points: 2
#     Edge 37, Type (0, 0), BuildingBlock: XUDNAN_clean_linker_2, # of connection points: 2
#     Edge 38, Type (0, 0), BuildingBlock: XUDNAN_clean_linker_2, # of connection points: 2
#     Edge 39, Type (0, 0), BuildingBlock: XUDNAN_clean_linker_2, # of connection points: 2
#     Edge 40, Type (0, 0), BuildingBlock: XUDNAN_clean_linker_2, # of connection points: 2
#     Edge 41, Type (0, 0), BuildingBlock: XUDNAN_clean_linker_2, # of connection points: 2
#     Edge 42, Type (0, 0), BuildingBlock: XUDNAN_clean_linker_2, # of connection points: 2
#     Edge 43, Type (0, 0), BuildingBlock: XUDNAN_clean_linker_2, # of connection points: 2
#     Edge 44, Type (0, 0), BuildingBlock: XUDNAN_clean_linker_2, # of connection points: 2
#     Edge 45, Type (0, 0), BuildingBlock: XUDNAN_clean_linker_2, # of connection points: 2
#     Edge 46, Type (0, 0), BuildingBlock: XUDNAN_clean_linker_2, # of connection points: 2
#     Edge 47, Type (0, 0), BuildingBlock: XUDNAN_clean_linker_2, # of connection points: 2
# Relax obj value: 0.767
# Max RMSD: 0.281
# Mean RMSD: 0.281
data_MOF--net-wkj--node1-VOLQOD_clean_sbu_1--edge1-XUDNAN_clean_linker_2
_symmetry_space_group_name_H-M    P1
_symmetry_Int_Tables_number       1
_symmetry_cell_setting            triclinic
loop_
_symmetry_equiv_pos_as_xyz
'x, y, z'
_cell_length_a     56.798785
_cell_length_b     56.703387
_cell_length_c     24.350951
_cell_angle_alpha  90.146752
_cell_angle_beta   89.779401
_cell_angle_gamma 120.24554
loop_
_atom_site_label
_atom_site_type_symbol
_atom_site_fract_x
_atom_site_fract_y
_atom_site_fract_z
_atom_type_partial_charge
O0 O 0.41477 0.06275 0.38221 0.0
Zn1 Zn 0.44452 0.07447 0.32679 0.0
O2 O 0.45949 0.11208 0.30699 0.0
Zn3 Zn 0.49925 0.13282 0.31173 0.0
Zn4 Zn 0.44721 0.12931 0.36032 0.0
Zn5 Zn 0.44996 0.11364 0.23226 0.0
O6 O 0.51734 0.14009 0.23762 0.0
O7 O 0.48258 0.12834 0.18127 0.0
O8 O 0.47393 0.07171 0.36533 0.0
O9 O 0.51185 0.11208 0.35686 0.0
O10 O 0.51234 0.16755 0.35337 0.0
O11 O 0.47905 0.14981 0.41371 0.0
O12 O 0.43483 0.15212 0.317 0.0
O13 O 0.42825 0.04885 0.2613 0.0
O14 O 0.433 0.1369 0.23122 0.0
O15 O 0.42478 0.07644 0.20138 0.0
C16 C 0.40593 0.07512 0.41187 0.0
C17 C 0.50783 0.13729 0.18926 0.0
C18 C 0.50441 0.16468 0.403 0.0
C19 C 0.49898 0.08805 0.37633 0.0
C20 C 0.42885 0.1513 0.26601 0.0
C21 C 0.42003 0.05282 0.21539 0.0
O22 O 0.41605 0.10091 0.40804 0.0
O23 O 0.33338 0.41617 0.65399 0.0
Zn24 Zn 0.35157 0.43892 0.58747 0.0
O25 O 0.37011 0.47775 0.60453 0.0
Zn26 Zn 0.40772 0.49158 0.62516 0.0
Zn27 Zn 0.35034 0.48224 0.66371 0.0
Zn28 Zn 0.36961 0.49537 0.53894 0.0
O29 O 0.43403 0.51813 0.56836 0.0
O30 O 0.40648 0.52372 0.51253 0.0
O31 O 0.38101 0.43271 0.56691 0.0
O32 O 0.41368 0.45936 0.62453 0.0
O33 O 0.41591 0.51224 0.69762 0.0
O34 O 0.37701 0.51145 0.71583 0.0
O35 O 0.32391 0.49296 0.63003 0.0
O36 O 0.3312 0.42765 0.51544 0.0
O37 O 0.3448 0.50958 0.54955 0.0
O38 O 0.35583 0.46848 0.47757 0.0
C39 C 0.329 0.4232 0.70097 0.0
C40 C 0.43025 0.52918 0.52641 0.0
C41 C 0.402 0.51977 0.72652 0.0
C42 C 0.40475 0.44186 0.58563 0.0
C43 C 0.32659 0.50565 0.58483 0.0
C44 C 0.34027 0.44284 0.473 0.0
O45 O 0.33351 0.44738 0.70967 0.0
O46 O 0.9437 0.35365 0.01556 0.0
Zn47 Zn 0.92758 0.36157 0.9536 0.0
O48 O 0.89407 0.33151 0.93306 0.0
Zn49 Zn 0.87474 0.34999 0.91265 0.0
Zn50 Zn 0.87987 0.30839 0.99679 0.0
Zn51 Zn 0.89828 0.31482 0.86864 0.0
O52 O 0.85289 0.33476 0.8445 0.0
O53 O 0.87315 0.31358 0.80857 0.0
O54 O 0.92001 0.39051 0.97627 0.0
O55 O 0.90292 0.38909 0.89594 0.0
O56 O 0.85173 0.34798 0.97602 0.0
O57 O 0.85239 0.31751 0.03322 0.0
O58 O 0.86171 0.27018 0.96327 0.0
O59 O 0.95395 0.37383 0.89078 0.0
O60 O 0.88596 0.27595 0.88674 0.0
O61 O 0.93631 0.33721 0.83675 0.0
C62 C 0.93558 0.33557 0.0526 0.0
C63 C 0.85601 0.32174 0.80522 0.0
C64 C 0.8443 0.33422 0.02041 0.0
C65 C 0.91964 0.4029 0.93358 0.0
C66 C 0.86734 0.26051 0.92069 0.0
C67 C 0.95525 0.36138 0.8483 0.0
O68 O 0.91092 0.31565 0.05293 0.0
O69 O 0.53035 0.92189 0.34295 0.0
Zn70 Zn 0.51181 0.90955 0.27155 0.0
O71 O 0.47888 0.87514 0.27761 0.0
Zn72 Zn 0.44892 0.8817 0.28117 0.0
Zn73 Zn 0.4807 0.85693 0.34395 0.0
Zn74 Zn 0.47841 0.85872 0.20841 0.0
O75 O 0.42513 0.86754 0.21326 0.0
O76 O 0.44161 0.84347 0.17327 0.0
O77 O 0.50252 0.93716 0.24944 0.0
O78 O 0.46494 0.92133 0.29843 0.0
O79 O 0.42547 0.86226 0.34562 0.0
O80 O 0.44416 0.8409 0.38754 0.0
O81 O 0.4909 0.82905 0.31697 0.0
O82 O 0.53824 0.91107 0.21633 0.0
O83 O 0.48743 0.82989 0.22546 0.0
O84 O 0.50765 0.88573 0.15436 0.0
C85 C 0.52848 0.91012 0.38832 0.0
C86 C 0.42351 0.85042 0.17709 0.0
C87 C 0.42521 0.84684 0.38373 0.0
C88 C 0.48736 0.94127 0.28151 0.0
C89 C 0.49267 0.82082 0.26883 0.0
C90 C 0.53198 0.90394 0.16668 0.0
O91 O 0.5111 0.8848 0.39525 0.0
O92 O 0.63326 0.58753 0.63457 0.0
Zn93 Zn 0.63197 0.56577 0.56882 0.0
O94 O 0.64751 0.54324 0.58739 0.0
Zn95 Zn 0.62077 0.50502 0.58605 0.0
Zn96 Zn 0.66385 0.55149 0.6606 0.0
Zn97 Zn 0.67162 0.54755 0.52779 0.0
O98 O 0.62828 0.48195 0.53482 0.0
O99 O 0.65426 0.51483 0.4766 0.0
O100 O 0.59419 0.54289 0.53699 0.0
O101 O 0.58876 0.50189 0.55196 0.0
O102 O 0.60971 0.48824 0.66022 0.0
O103 O 0.64131 0.51962 0.71455 0.0
O104 O 0.70234 0.55683 0.65276 0.0
O105 O 0.65398 0.59357 0.51147 0.0
O106 O 0.70459 0.55186 0.56205 0.0
O107 O 0.68275 0.58088 0.4818 0.0
C108 C 0.64807 0.59531 0.67754 0.0
C109 C 0.63826 0.48964 0.48701 0.0
C110 C 0.61993 0.49628 0.70762 0.0
C111 C 0.58029 0.51699 0.53291 0.0
C112 C 0.715 0.55601 0.60977 0.0
C113 C 0.67349 0.59711 0.48027 0.0
O114 O 0.66286 0.58505 0.69088 0.0
O115 O 0.01536 0.60373 0.96602 0.0
Zn116 Zn 0.03959 0.60363 0.90562 0.0
O117 O 0.07268 0.63811 0.89948 0.0
Zn118 Zn 0.10359 0.63234 0.8901 0.0
Zn119 Zn 0.07735 0.65993 0.96456 0.0
Zn120 Zn 0.06938 0.65503 0.83441 0.0
O121 O 0.1241 0.64732 0.81961 0.0
O122 O 0.09694 0.6591 0.77802 0.0
O123 O 0.04938 0.57578 0.92424 0.0
O124 O 0.09062 0.59219 0.88762 0.0
O125 O 0.12774 0.64527 0.9557 0.0
O126 O 0.10588 0.65815 0.01347 0.0
O127 O 0.0875 0.69866 0.93987 0.0
O128 O 0.02002 0.59209 0.83216 0.0
O129 O 0.07465 0.6912 0.85219 0.0
O130 O 0.03492 0.6325 0.79359 0.0
C131 C 0.01927 0.62054 1.00462 0.0
C132 C 0.11734 0.65558 0.77725 0.0
C133 C 0.12457 0.65239 1.00352 0.0
C134 C 0.06934 0.57295 0.90978 0.0
C135 C 0.08318 0.7068 0.89392 0.0
C136 C 0.01988 0.60669 0.79261 0.0
O137 O 0.04186 0.643 0.00892 0.0
O138 O 0.90397 0.51282 0.31718 0.0
Zn139 Zn 0.89579 0.48052 0.36279 0.0
O140 O 0.85837 0.46107 0.38524 0.0
Zn141 Zn 0.84136 0.42283 0.36537 0.0
Zn142 Zn 0.83816 0.47602 0.34775 0.0
Zn143 Zn 0.856 0.46091 0.46335 0.0
O144 O 0.83951 0.39829 0.42697 0.0
O145 O 0.84091 0.42391 0.49697 0.0
O146 O 0.9011 0.45682 0.30964 0.0
O147 O 0.86108 0.41828 0.30085 0.0
O148 O 0.8032 0.41075 0.34421 0.0
O149 O 0.81241 0.44637 0.29341 0.0
O150 O 0.81985 0.48745 0.40721 0.0
O151 O 0.92194 0.49483 0.4274 0.0
O152 O 0.83312 0.47624 0.48422 0.0
O153 O 0.89264 0.48417 0.49653 0.0
C154 C 0.88965 0.52125 0.29382 0.0
C155 C 0.83727 0.40139 0.47808 0.0
C156 C 0.79939 0.42054 0.30065 0.0
C157 C 0.88553 0.43423 0.28548 0.0
C158 C 0.82032 0.48613 0.45975 0.0
C159 C 0.91693 0.49557 0.47832 0.0
O160 O 0.86384 0.50913 0.30016 0.0
O161 O 0.33692 0.94293 0.73444 0.0
Zn162 Zn 0.33934 0.91728 0.78824 0.0
O163 O 0.30752 0.88138 0.78388 0.0
Zn164 Zn 0.31574 0.85197 0.77456 0.0
Zn165 Zn 0.28593 0.87856 0.71958 0.0
Zn166 Zn 0.28907 0.87559 0.85281 0.0
O167 O 0.31124 0.83131 0.84396 0.0
O168 O 0.29176 0.84771 0.89885 0.0
O169 O 0.37072 0.91279 0.76832 0.0
O170 O 0.35471 0.86828 0.75507 0.0
O171 O 0.29654 0.82682 0.71191 0.0
O172 O 0.29368 0.85717 0.6603 0.0
O173 O 0.2459 0.86184 0.74525 0.0
O174 O 0.34602 0.93407 0.86459 0.0
O175 O 0.25102 0.86402 0.8364 0.0
O176 O 0.30571 0.90789 0.90334 0.0
C177 C 0.32021 0.93954 0.69629 0.0
C178 C 0.30179 0.83238 0.8907 0.0
C179 C 0.29661 0.83634 0.66469 0.0
C180 C 0.37402 0.89285 0.75541 0.0
C181 C 0.2361 0.85871 0.79404 0.0
C182 C 0.32976 0.92833 0.90505 0.0
O183 O 0.2996 0.91615 0.68599 0.0
O184 O 0.42142 0.39204 0.01196 0.0
Zn185 Zn 0.45269 0.40572 0.06453 0.0
O186 O 0.46071 0.37753 0.08091 0.0
Zn187 Zn 0.49831 0.38829 0.06833 0.0
Zn188 Zn 0.44233 0.34856 0.02673 0.0
Zn189 Zn 0.45406 0.3672 0.15676 0.0
O190 O 0.52039 0.39669 0.13617 0.0
O191 O 0.48937 0.38273 0.20215 0.0
O192 O 0.48518 0.43606 0.02451 0.0
O193 O 0.51469 0.42108 0.02188 0.0
O194 O 0.50095 0.36012 0.02504 0.0
O195 O 0.47085 0.35691 0.96591 0.0
O196 O 0.42945 0.31309 0.06853 0.0
O197 O 0.43884 0.41559 0.13324 0.0
O198 O 0.43533 0.32633 0.15672 0.0
O199 O 0.43086 0.38142 0.18976 0.0
C200 C 0.40624 0.36974 0.98684 0.0
C201 C 0.51421 0.39361 0.18683 0.0
C202 C 0.49465 0.36096 0.97552 0.0
C203 C 0.50752 0.43808 0.00785 0.0
C204 C 0.42747 0.30772 0.12003 0.0
C205 C 0.42844 0.40198 0.17738 0.0
O206 O 0.41059 0.34978 0.99025 0.0
O207 O 0.07841 0.42419 0.36903 0.0
Zn208 Zn 0.07104 0.451 0.4072 0.0
O209 O 0.10151 0.48737 0.39918 0.0
Zn210 Zn 0.08942 0.51277 0.38565 0.0
Zn211 Zn 0.12309 0.48669 0.3378 0.0
Zn212 Zn 0.11981 0.49669 0.46685 0.0
O213 O 0.09561 0.53762 0.45134 0.0
O214 O 0.13025 0.53488 0.48643 0.0
O215 O 0.04116 0.44924 0.36274 0.0
O216 O 0.05239 0.49258 0.35054 0.0
O217 O 0.11206 0.53806 0.3269 0.0
O218 O 0.13433 0.51987 0.28678 0.0
O219 O 0.15715 0.48845 0.3694 0.0
O220 O 0.0596 0.4403 0.48626 0.0
O221 O 0.15255 0.49339 0.4593 0.0
O222 O 0.09618 0.47286 0.52825 0.0
C223 C 0.08223 0.42705 0.31735 0.0
C224 C 0.11662 0.54702 0.48222 0.0
C225 C 0.12813 0.53862 0.28988 0.0
C226 C 0.03679 0.46712 0.34154 0.0
C227 C 0.1653 0.49063 0.41904 0.0
C228 C 0.07269 0.45151 0.53013 0.0
O229 O 0.0981 0.45075 0.29713 0.0
O230 O 0.64264 0.04421 0.7042 0.0
Zn231 Zn 0.61511 0.04466 0.75396 0.0
O232 O 0.62103 0.08086 0.76453 0.0
Zn233 Zn 0.58721 0.08056 0.76476 0.0
Zn234 Zn 0.64374 0.10083 0.702 0.0
Zn235 Zn 0.63739 0.09218 0.83513 0.0
O236 O 0.58122 0.09563 0.83625 0.0
O237 O 0.62131 0.11132 0.87698 0.0
O238 O 0.57959 0.02201 0.71823 0.0
O239 O 0.55748 0.04214 0.75153 0.0
O240 O 0.5871 0.10391 0.703 0.0
O241 O 0.62835 0.12301 0.66488 0.0
O242 O 0.6831 0.12381 0.73114 0.0
O243 O 0.61271 0.02561 0.82457 0.0
O244 O 0.67655 0.11693 0.82175 0.0
O245 O 0.63155 0.06025 0.88297 0.0
C246 C 0.64154 0.05074 0.65489 0.0
C247 C 0.59778 0.10892 0.87494 0.0
C248 C 0.6045 0.12012 0.66812 0.0
C249 C 0.55775 0.02222 0.72769 0.0
C250 C 0.6922 0.12776 0.78049 0.0
C251 C 0.62054 0.03481 0.87273 0.0
O252 O 0.63991 0.07202 0.64543 0.0
O253 O 0.64159 0.69641 0.01406 0.0
Zn254 Zn 0.62163 0.66753 0.07009 0.0
O255 O 0.588 0.66602 0.09292 0.0
Zn256 Zn 0.55763 0.62884 0.0955 0.0
Zn257 Zn 0.57971 0.68654 0.03988 0.0
Zn258 Zn 0.59495 0.68103 0.16554 0.0
O259 O 0.54578 0.61495 0.17353 0.0
O260 O 0.56956 0.6535 0.2205 0.0
O261 O 0.61277 0.63321 0.03094 0.0
O262 O 0.5688 0.60633 0.05139 0.0
O263 O 0.52491 0.62408 0.05431 0.0
O264 O 0.5429 0.66178 1.00384 0.0
O265 O 0.57879 0.71805 0.08032 0.0
O266 O 0.64646 0.67269 0.13306 0.0
O267 O 0.58958 0.71273 0.1657 0.0
O268 O 0.63184 0.69122 0.19448 0.0
C269 C 0.63018 0.69955 0.97215 0.0
C270 C 0.55212 0.62811 0.21876 0.0
C271 C 0.52314 0.63811 0.01561 0.0
C272 C 0.59049 0.61075 0.02672 0.0
C273 C 0.58313 0.72522 0.13093 0.0
C274 C 0.64872 0.68396 0.17948 0.0
O275 O 0.60639 0.69655 0.97588 0.0
H276 H 0.43551 0.19922 0.30841 0.0
H277 H 0.39859 0.14193 0.17383 0.0
H278 H 0.38736 0.17359 0.12802 0.0
H279 H 0.38805 0.22849 0.30191 0.0
H280 H 0.41574 0.26227 0.31732 0.0
H281 H 0.41554 0.23278 0.34547 0.0
H282 H 0.46331 0.24934 0.30332 0.0
H283 H 0.46357 0.27862 0.27471 0.0
H284 H 0.46833 0.2558 0.23052 0.0
H285 H 0.38831 0.21416 0.08838 0.0
H286 H 0.39951 0.26048 0.0601 0.0
H287 H 0.43477 0.29137 0.22064 0.0
C288 C 0.42412 0.19295 0.27041 0.0
C289 C 0.41791 0.16818 0.24471 0.0
C290 C 0.40363 0.16091 0.19418 0.0
C291 C 0.39699 0.17867 0.16795 0.0
C292 C 0.4045 0.20353 0.19298 0.0
C293 C 0.4174 0.21057 0.24348 0.0
C294 C 0.42614 0.23979 0.25819 0.0
C295 C 0.41042 0.24089 0.30872 0.0
C296 C 0.45717 0.25687 0.26717 0.0
C297 C 0.41759 0.24844 0.20676 0.0
C298 C 0.40471 0.22711 0.17004 0.0
C299 C 0.39769 0.2309 0.1173 0.0
C300 C 0.40428 0.25729 0.10146 0.0
C301 C 0.41778 0.27947 0.13827 0.0
C302 C 0.42391 0.27474 0.19192 0.0
H303 H 0.27193 0.47892 0.60933 0.0
H304 H 0.33495 0.5465 0.5159 0.0
H305 H 0.29994 0.54852 0.4604 0.0
H306 H 0.22918 0.44526 0.50239 0.0
H307 H 0.19741 0.43504 0.53722 0.0
H308 H 0.22679 0.44079 0.57589 0.0
H309 H 0.22356 0.47644 0.63735 0.0
H310 H 0.19343 0.46993 0.60046 0.0
H311 H 0.22188 0.50427 0.60574 0.0
H312 H 0.25922 0.53809 0.40487 0.0
H313 H 0.2134 0.52401 0.3681 0.0
H314 H 0.17662 0.46529 0.50023 0.0
C315 C 0.27827 0.49493 0.57896 0.0
C316 C 0.30607 0.51245 0.56663 0.0
C317 C 0.31368 0.53282 0.52576 0.0
C318 C 0.29399 0.53401 0.49372 0.0
C319 C 0.2668 0.51505 0.50387 0.0
C320 C 0.25879 0.4966 0.54678 0.0
C321 C 0.22813 0.47819 0.54787 0.0
C322 C 0.21992 0.44804 0.54039 0.0
C323 C 0.21604 0.48248 0.601 0.0
C324 C 0.22042 0.4888 0.49819 0.0
C325 C 0.24308 0.50976 0.47289 0.0
C326 C 0.24122 0.52201 0.42477 0.0
C327 C 0.21526 0.51362 0.40366 0.0
C328 C 0.1918 0.49356 0.43133 0.0
C329 C 0.19443 0.48058 0.47833 0.0
H330 H 0.81768 0.22519 0.96595 0.0
H331 H 0.87063 0.23408 0.82889 0.0
H332 H 0.83151 0.19754 0.77938 0.0
H333 H 0.76879 0.1487 0.94904 0.0
H334 H 0.74049 0.15298 0.96826 0.0
H335 H 0.77366 0.17482 0.99762 0.0
H336 H 0.77138 0.21699 0.96441 0.0
H337 H 0.7388 0.19548 0.93319 0.0
H338 H 0.76668 0.2206 0.89235 0.0
H339 H 0.78506 0.16792 0.73645 0.0
H340 H 0.73604 0.14155 0.71134 0.0
H341 H 0.71469 0.15265 0.87687 0.0
C342 C 0.8214 0.21857 0.92676 0.0
C343 C 0.84723 0.23274 0.90129 0.0
C344 C 0.85103 0.22362 0.84941 0.0
C345 C 0.82886 0.20291 0.8207 0.0
C346 C 0.80318 0.1911 0.84494 0.0
C347 C 0.79951 0.198 0.8976 0.0
C348 C 0.76964 0.18444 0.91238 0.0
C349 C 0.76274 0.16401 0.95961 0.0
C350 C 0.76116 0.20565 0.92637 0.0
C351 C 0.75712 0.16997 0.85904 0.0
C352 C 0.77662 0.17381 0.82055 0.0
C353 C 0.76957 0.16415 0.76676 0.0
C354 C 0.74178 0.14953 0.75261 0.0
C355 C 0.72159 0.14485 0.79223 0.0
C356 C 0.72958 0.15544 0.84582 0.0
H357 H 0.54736 0.74029 0.09082 0.0
H358 H 0.60383 0.75504 0.2239 0.0
H359 H 0.58514 0.77931 0.27551 0.0
H360 H 0.54913 0.80684 0.10462 0.0
H361 H 0.5135 0.79145 0.08792 0.0
H362 H 0.53341 0.77775 0.0593 0.0
H363 H 0.49852 0.73028 0.09868 0.0
H364 H 0.47902 0.74403 0.12904 0.0
H365 H 0.49147 0.72664 0.17139 0.0
H366 H 0.55684 0.79679 0.3177 0.0
H367 H 0.5268 0.8153 0.33985 0.0
H368 H 0.48935 0.79024 0.17908 0.0
C369 C 0.55644 0.7495 0.12987 0.0
C370 C 0.57698 0.74572 0.15339 0.0
C371 C 0.588 0.75763 0.20516 0.0
C372 C 0.57743 0.77131 0.235 0.0
C373 C 0.55605 0.77321 0.21227 0.0
C374 C 0.54617 0.76338 0.16029 0.0
C375 C 0.52277 0.76784 0.14605 0.0
C376 C 0.53015 0.78713 0.09655 0.0
C377 C 0.49639 0.74057 0.13569 0.0
C378 C 0.52083 0.78121 0.19849 0.0
C379 C 0.54004 0.78387 0.23634 0.0
C380 C 0.54188 0.79514 0.2882 0.0
C381 C 0.52449 0.80525 0.30071 0.0
C382 C 0.50576 0.80422 0.26124 0.0
C383 C 0.50347 0.79131 0.21013 0.0
H384 H 0.75521 0.57639 0.53482 0.0
H385 H 0.73075 0.53284 0.68939 0.0
H386 H 0.76214 0.51539 0.67235 0.0
H387 H 0.74838 0.52563 0.46301 0.0
H388 H 0.77645 0.54307 0.41571 0.0
H389 H 0.76164 0.5612 0.44727 0.0
H390 H 0.8082 0.59739 0.48712 0.0
H391 H 0.82372 0.58023 0.45341 0.0
H392 H 0.82802 0.58664 0.52626 0.0
H393 H 0.78509 0.49304 0.62782 0.0
H394 H 0.80298 0.47174 0.56492 0.0
H395 H 0.8093 0.52689 0.43492 0.0
C396 C 0.75777 0.56451 0.56656 0.0
C397 C 0.74077 0.55595 0.61343 0.0
C398 C 0.744 0.53998 0.65376 0.0
C399 C 0.76161 0.52979 0.64403 0.0
C400 C 0.77582 0.53612 0.59423 0.0
C401 C 0.77463 0.55373 0.55666 0.0
C402 C 0.78757 0.55341 0.50229 0.0
C403 C 0.76729 0.54534 0.45432 0.0
C404 C 0.81342 0.58106 0.49167 0.0
C405 C 0.79447 0.53144 0.51369 0.0
C406 C 0.78819 0.52226 0.56733 0.0
C407 C 0.79077 0.50058 0.58628 0.0
C408 C 0.80066 0.48844 0.54998 0.0
C409 C 0.80746 0.49768 0.49497 0.0
C410 C 0.80415 0.51936 0.47662 0.0
H411 H 0.21065 0.84455 0.89269 0.0
H412 H 0.19446 0.84249 0.71832 0.0
H413 H 0.14533 0.81242 0.737 0.0
H414 H 0.17689 0.78021 0.9095 0.0
H415 H 0.16376 0.77899 0.97767 0.0
H416 H 0.19413 0.80884 0.95565 0.0
H417 H 0.17228 0.83838 0.97746 0.0
H418 H 0.14153 0.80825 0.99973 0.0
H419 H 0.13999 0.82985 0.9474 0.0
H420 H 0.10165 0.77473 0.76965 0.0
H421 H 0.07174 0.72873 0.80557 0.0
H422 H 0.11768 0.75068 0.95723 0.0
C423 C 0.19673 0.83874 0.85843 0.0
C424 C 0.20642 0.84587 0.80394 0.0
C425 C 0.18752 0.83743 0.76041 0.0
C426 C 0.15952 0.82054 0.77086 0.0
C427 C 0.15086 0.81229 0.82493 0.0
C428 C 0.16908 0.82118 0.86808 0.0
C429 C 0.15658 0.80431 0.91941 0.0
C430 C 0.17384 0.79237 0.94171 0.0
C431 C 0.15234 0.82121 0.9636 0.0
C432 C 0.12958 0.78244 0.89671 0.0
C433 C 0.12587 0.78858 0.84345 0.0
C434 C 0.10417 0.76996 0.81145 0.0
C435 C 0.08732 0.74374 0.8323 0.0
C436 C 0.09293 0.73601 0.8838 0.0
C437 C 0.11292 0.75615 0.91798 0.0
H438 H 0.54586 0.09729 0.90252 0.0
H439 H 0.63065 0.14673 0.9507 0.0
H440 H 0.61686 0.16341 0.03107 0.0
H441 H 0.52354 0.1454 0.95022 0.0
H442 H 0.49116 0.11814 0.97437 0.0
H443 H 0.50778 0.11257 0.91673 0.0
H444 H 0.5055 0.07124 0.96683 0.0
H445 H 0.48903 0.07674 0.02461 0.0
H446 H 0.52 0.07586 0.03447 0.0
H447 H 0.59402 0.17084 0.11124 0.0
H448 H 0.56342 0.16844 0.18599 0.0
H449 H 0.49329 0.1149 0.08622 0.0
C450 C 0.56156 0.11212 0.92926 0.0
C451 C 0.58938 0.12078 0.92005 0.0
C452 C 0.60923 0.13977 0.95675 0.0
C453 C 0.60161 0.14948 1.00247 0.0
C454 C 0.57404 0.14012 0.01101 0.0
C455 C 0.55428 0.12196 0.97538 0.0
C456 C 0.52594 0.11354 0.99646 0.0
C457 C 0.51124 0.12299 0.9571 0.0
C458 C 0.50915 0.08251 0.00617 0.0
C459 C 0.5329 0.12924 0.05016 0.0
C460 C 0.56078 0.14464 0.05744 0.0
C461 C 0.57216 0.15925 0.10563 0.0
C462 C 0.55462 0.15774 0.14791 0.0
C463 C 0.52599 0.14178 0.14175 0.0
C464 C 0.51508 0.12781 0.09169 0.0
H465 H 0.49959 0.58647 0.23465 0.0
H466 H 0.57522 0.63875 0.32029 0.0
H467 H 0.55312 0.61756 0.40859 0.0
H468 H 0.45706 0.59178 0.33336 0.0
H469 H 0.4295 0.55707 0.3263 0.0
H470 H 0.452 0.57389 0.26924 0.0
H471 H 0.46318 0.53487 0.26292 0.0
H472 H 0.44048 0.51785 0.31972 0.0
H473 H 0.47544 0.52586 0.32294 0.0
H474 H 0.52222 0.59078 0.48821 0.0
H475 H 0.48413 0.56328 0.55269 0.0
H476 H 0.42823 0.53188 0.41529 0.0
C477 C 0.51157 0.59305 0.27191 0.0
C478 C 0.53915 0.61401 0.27072 0.0
C479 C 0.55405 0.62263 0.32042 0.0
C480 C 0.54172 0.61066 0.3707 0.0
C481 C 0.51433 0.59033 0.3707 0.0
C482 C 0.49939 0.58172 0.32261 0.0
C483 C 0.46979 0.56111 0.33425 0.0
C484 C 0.45099 0.5716 0.31463 0.0
C485 C 0.46176 0.53328 0.30842 0.0
C486 C 0.47031 0.55986 0.3963 0.0
C487 C 0.49627 0.57636 0.4166 0.0
C488 C 0.50176 0.57794 0.47278 0.0
C489 C 0.48008 0.56234 0.50908 0.0
C490 C 0.45324 0.546 0.48903 0.0
C491 C 0.44845 0.54475 0.43191 0.0
H492 H 0.82848 0.34769 0.77702 0.0
H493 H 0.85649 0.29485 0.71141 0.0
H494 H 0.84573 0.303 0.61774 0.0
H495 H 0.77498 0.33385 0.66792 0.0
H496 H 0.78407 0.36923 0.6692 0.0
H497 H 0.7863 0.35302 0.731 0.0
H498 H 0.83688 0.3909 0.74144 0.0
H499 H 0.835 0.40693 0.67955 0.0
H500 H 0.86041 0.39697 0.68601 0.0
H501 H 0.84119 0.32436 0.53125 0.0
H502 H 0.84339 0.35682 0.46095 0.0
H503 H 0.82017 0.39683 0.58404 0.0
C504 C 0.83121 0.3368 0.7433 0.0
C505 C 0.84322 0.32053 0.75165 0.0
C506 C 0.84714 0.30726 0.70611 0.0
C507 C 0.84102 0.31173 0.6527 0.0
C508 C 0.83081 0.32933 0.64562 0.0
C509 C 0.82561 0.34138 0.68991 0.0
C510 C 0.81896 0.36282 0.67155 0.0
C511 C 0.78931 0.3542 0.68575 0.0
C512 C 0.83902 0.39104 0.69607 0.0
C513 C 0.82283 0.36215 0.61029 0.0
C514 C 0.8289 0.34221 0.59578 0.0
C515 C 0.83583 0.3396 0.54196 0.0
C516 C 0.83709 0.35816 0.50233 0.0
C517 C 0.83198 0.37935 0.51712 0.0
C518 C 0.82406 0.38077 0.57145 0.0
H519 H 0.30894 0.85091 0.99583 0.0
H520 H 0.31365 0.79116 0.892 0.0
H521 H 0.33962 0.78368 0.964 0.0
H522 H 0.37337 0.88316 0.0328 0.0
H523 H 0.3694 0.89104 0.10278 0.0
H524 H 0.34419 0.88585 0.05258 0.0
H525 H 0.30624 0.84776 0.11173 0.0
H526 H 0.33121 0.85323 0.16328 0.0
H527 H 0.30991 0.81961 0.13493 0.0
H528 H 0.37333 0.79041 0.03572 0.0
H529 H 0.40998 0.80853 0.10458 0.0
H530 H 0.38488 0.86531 0.1608 0.0
C531 C 0.31407 0.83511 0.98946 0.0
C532 C 0.30897 0.82134 0.93859 0.0
C533 C 0.31705 0.80167 0.93093 0.0
C534 C 0.33185 0.79733 0.97162 0.0
C535 C 0.3383 0.81274 0.01972 0.0
C536 C 0.32928 0.83094 0.02926 0.0
C537 C 0.34251 0.84812 0.07994 0.0
C538 C 0.3583 0.87884 0.06614 0.0
C539 C 0.32119 0.84179 0.12516 0.0
C540 C 0.36159 0.83789 0.09546 0.0
C541 C 0.35841 0.81709 0.06096 0.0
C542 C 0.37553 0.80619 0.06385 0.0
C543 C 0.39645 0.81683 0.10287 0.0
C544 C 0.4003 0.83835 0.1383 0.0
C545 C 0.38228 0.84866 0.13493 0.0
H546 H 0.51131 0.39629 0.30009 0.0
H547 H 0.56851 0.41531 0.1655 0.0
H548 H 0.60672 0.43663 0.23033 0.0
H549 H 0.54986 0.45782 0.37025 0.0
H550 H 0.54105 0.44303 0.43782 0.0
H551 H 0.51804 0.42661 0.38162 0.0
H552 H 0.51857 0.38208 0.40286 0.0
H553 H 0.54189 0.39881 0.45876 0.0
H554 H 0.55064 0.38274 0.40477 0.0
H555 H 0.63899 0.4619 0.30686 0.0
H556 H 0.66245 0.48781 0.39072 0.0
H557 H 0.58505 0.45031 0.47693 0.0
C558 C 0.53182 0.40437 0.28441 0.0
C559 C 0.53675 0.40401 0.22753 0.0
C560 C 0.56403 0.41525 0.20878 0.0
C561 C 0.58598 0.42736 0.24536 0.0
C562 C 0.58049 0.42787 0.30092 0.0
C563 C 0.55409 0.41646 0.32053 0.0
C564 C 0.55393 0.42164 0.38156 0.0
C565 C 0.53988 0.43827 0.39342 0.0
C566 C 0.54046 0.3947 0.41389 0.0
C567 C 0.5843 0.43825 0.39284 0.0
C568 C 0.5993 0.44159 0.34576 0.0
C569 C 0.62756 0.4588 0.34443 0.0
C570 C 0.64074 0.47341 0.39216 0.0
C571 C 0.62572 0.4704 0.44068 0.0
C572 C 0.59724 0.45209 0.44114 0.0
H573 H 0.08986 0.64014 0.68135 0.0
H574 H 0.16793 0.66294 0.75447 0.0
H575 H 0.1799 0.64513 0.67289 0.0
H576 H 0.07642 0.57811 0.64443 0.0
H577 H 0.05824 0.57569 0.58216 0.0
H578 H 0.0598 0.5978 0.63656 0.0
H579 H 0.07995 0.63849 0.568 0.0
H580 H 0.07877 0.61619 0.51381 0.0
H581 H 0.11045 0.64667 0.53002 0.0
H582 H 0.17897 0.61592 0.59667 0.0
H583 H 0.16587 0.57818 0.5315 0.0
H584 H 0.08691 0.57151 0.50998 0.0
C585 C 0.11014 0.64288 0.67873 0.0
C586 C 0.12827 0.65348 0.72359 0.0
C587 C 0.15402 0.65539 0.72002 0.0
C588 C 0.16094 0.64529 0.67383 0.0
C589 C 0.14178 0.6332 0.6319 0.0
C590 C 0.11693 0.63213 0.63375 0.0
C591 C 0.09784 0.61346 0.58956 0.0
C592 C 0.07155 0.58988 0.61467 0.0
C593 C 0.09139 0.62969 0.54785 0.0
C594 C 0.11533 0.60316 0.56416 0.0
C595 C 0.1408 0.61528 0.58839 0.0
C596 C 0.15937 0.60681 0.57649 0.0
C597 C 0.1516 0.58514 0.5397 0.0
C598 C 0.12533 0.5719 0.51554 0.0
C599 C 0.10728 0.58156 0.52695 0.0
H600 H 0.36917 0.98225 0.92124 0.0
H601 H 0.31335 0.90777 0.00773 0.0
H602 H 0.3316 0.93085 0.09636 0.0
H603 H 0.426 0.0055 0.01393 0.0
H604 H 0.43558 0.04096 0.00936 0.0
H605 H 0.41888 0.01836 0.95237 0.0
H606 H 0.3812 0.0314 0.95404 0.0
H607 H 0.39792 0.05412 0.01084 0.0
H608 H 0.36271 0.02762 0.01685 0.0
H609 H 0.35727 0.96148 0.17586 0.0
H610 H 0.38473 -0.00078 0.24067 0.0
H611 H 0.42114 0.05469 0.10325 0.0
C612 C 0.36076 0.9709 0.95889 0.0
C613 C 0.33979 0.94325 0.95761 0.0
C614 C 0.3292 0.92907 0.00773 0.0
C615 C 0.33958 0.94193 0.05832 0.0
C616 C 0.36028 0.96916 0.05826 0.0
C617 C 0.37048 0.98364 0.00994 0.0
C618 C 0.39186 0.01307 0.02158 0.0
C619 C 0.41973 0.01986 0.9979 0.0
C620 C 0.38287 0.03271 0.99953 0.0
C621 C 0.39203 0.01282 0.08385 0.0
C622 C 0.37404 0.98717 0.10419 0.0
C623 C 0.37125 0.98173 0.16045 0.0
C624 C 0.38698 0.0032 0.19693 0.0
C625 C 0.40479 0.02984 0.17696 0.0
C626 C 0.40739 0.03457 0.11966 0.0
H627 H 0.41169 0.38523 0.28358 0.0
H628 H 0.40721 0.43471 0.15278 0.0
H629 H 0.3775 0.44464 0.2108 0.0
H630 H 0.34255 0.35675 0.33528 0.0
H631 H 0.35246 0.35913 0.40623 0.0
H632 H 0.37207 0.35444 0.35345 0.0
H633 H 0.41583 0.39768 0.38674 0.0
H634 H 0.39656 0.40243 0.43997 0.0
H635 H 0.41612 0.42953 0.39185 0.0
H636 H 0.35054 0.45143 0.28468 0.0
H637 H 0.33283 0.45862 0.37221 0.0
H638 H 0.35365 0.40392 0.45419 0.0
C639 C 0.40431 0.398 0.26693 0.0
C640 C 0.41171 0.40906 0.21337 0.0
C641 C 0.40193 0.42603 0.19362 0.0
C642 C 0.38481 0.43159 0.22612 0.0
C643 C 0.37764 0.42008 0.27837 0.0
C644 C 0.38736 0.40392 0.29894 0.0
C645 C 0.37834 0.3958 0.35796 0.0
C646 C 0.36028 0.36468 0.36352 0.0
C647 C 0.40318 0.40702 0.3964 0.0
C648 C 0.36204 0.40995 0.36744 0.0
C649 C 0.36172 0.42369 0.32085 0.0
C650 C 0.35015 0.44031 0.32105 0.0
C651 C 0.33983 0.44404 0.37074 0.0
C652 C 0.34093 0.43104 0.41939 0.0
C653 C 0.35127 0.41301 0.41707 0.0
H654 H 0.02467 0.4039 0.55259 0.0
H655 H 0.09232 0.4742 0.63091 0.0
H656 H 0.07088 0.45726 0.72128 0.0
H657 H 0.97266 0.40096 0.63837 0.0
H658 H 0.95294 0.36421 0.64047 0.0
H659 H 0.9742 0.38115 0.5819 0.0
H660 H -0.00102 0.35368 0.59487 0.0
H661 H 0.9778 0.33669 0.6536 0.0
H662 H 0.01438 0.35473 0.66012 0.0
H663 H 0.04068 0.4348 0.8023 0.0
H664 H 0.00436 0.40708 0.86904 0.0
H665 H 0.95717 0.35037 0.73918 0.0
C666 C 0.03511 0.41561 0.58875 0.0
C667 C 0.06022 0.44039 0.58448 0.0
C668 C 0.07314 0.45511 0.63295 0.0
C669 C 0.06113 0.44567 0.68458 0.0
C670 C 0.03631 0.42133 0.68728 0.0
C671 C 0.02351 0.40637 0.64077 0.0
C672 C -0.00339 0.38118 0.65507 0.0
C673 C 0.9727 0.38194 0.62731 0.0
C674 C -0.00302 0.35502 0.64002 0.0
C675 C -0.00382 0.38453 0.71674 0.0
C676 C 0.01925 0.40787 0.73444 0.0
C677 C 0.02273 0.41621 0.78913 0.0
C678 C 0.00199 0.40033 0.82672 0.0
C679 C 0.97814 0.37632 0.8095 0.0
C680 C 0.97544 0.36824 0.75385 0.0
H681 H 0.52394 0.90565 0.0551 0.0
H682 H 0.58588 0.94073 0.18181 0.0
H683 H 0.61739 0.97533 0.11658 0.0
H684 H 0.57336 0.92038 0.93688 0.0
H685 H 0.55308 0.92794 0.89136 0.0
H686 H 0.53687 0.90308 0.94527 0.0
H687 H 0.51414 0.92985 0.98059 0.0
H688 H 0.53105 0.95539 0.92841 0.0
H689 H 0.53517 0.96526 0.99965 0.0
H690 H 0.63873 0.01129 0.04465 0.0
H691 H 0.65046 0.04286 0.96593 0.0
H692 H 0.57672 0.98341 0.8829 0.0
C693 C 0.54446 0.91995 0.06852 0.0
C694 C 0.55231 0.9204 0.12375 0.0
C695 C 0.57925 0.93989 0.13984 0.0
C696 C 0.59741 0.95969 0.10302 0.0
C697 C 0.58863 0.95953 0.04972 0.0
C698 C 0.56305 0.9398 0.03195 0.0
C699 C 0.55811 0.9455 0.97358 0.0
C700 C 0.55519 0.92288 0.93445 0.0
C701 C 0.53312 0.94921 0.97048 0.0
C702 C 0.58429 0.97214 0.96251 0.0
C703 C 0.60167 0.97984 0.00693 0.0
C704 C 0.62569 0.00512 0.0089 0.0
C705 C 0.63213 0.02299 0.96425 0.0
C706 C 0.61478 0.01534 0.91807 0.0
C707 C 0.59077 0.98943 0.91705 0.0
H708 H 0.65987 0.63658 0.46857 0.0
H709 H 0.70858 0.60557 0.39483 0.0
H710 H 0.71739 0.63539 0.31468 0.0
H711 H 0.62555 0.63356 0.35715 0.0
H712 H 0.62392 0.6641 0.36891 0.0
H713 H 0.62791 0.64652 0.42585 0.0
H714 H 0.67175 0.69101 0.45482 0.0
H715 H 0.66783 0.70869 0.39727 0.0
H716 H 0.6992 0.70845 0.40618 0.0
H717 H 0.71108 0.65868 0.23471 0.0
H718 H 0.69031 0.67319 0.16341 0.0
H719 H 0.6473 0.69079 0.28974 0.0
C720 C 0.67325 0.63681 0.43654 0.0
C721 C 0.68348 0.61872 0.43794 0.0
C722 C 0.70061 0.61936 0.39484 0.0
C723 C 0.70584 0.63635 0.34919 0.0
C724 C 0.69425 0.65295 0.34776 0.0
C725 C 0.67865 0.65363 0.39084 0.0
C726 C 0.66506 0.66985 0.37616 0.0
C727 C 0.63379 0.65245 0.38233 0.0
C728 C 0.67667 0.69606 0.41066 0.0
C729 C 0.67363 0.6763 0.31666 0.0
C730 C 0.69106 0.66705 0.30134 0.0
C731 C 0.69819 0.66683 0.24652 0.0
C732 C 0.68624 0.67507 0.2062 0.0
C733 C 0.66729 0.68326 0.22101 0.0
C734 C 0.66218 0.68525 0.27713 0.0
H735 H 0.97706 0.55434 0.77441 0.0
H736 H 0.03402 0.62959 0.69114 0.0
H737 H 0.01728 0.60723 0.60179 0.0
H738 H 0.9799 0.50746 0.67738 0.0
H739 H 0.94392 0.48305 0.68099 0.0
H740 H 0.96112 0.50429 0.73944 0.0
H741 H 0.927 0.522 0.74116 0.0
H742 H 0.9094 0.50037 0.68354 0.0
H743 H 0.9219 0.53653 0.67972 0.0
H744 H -0.00405 0.57662 0.52119 0.0
H745 H 0.96426 0.54258 0.45448 0.0
H746 H 0.91878 0.48824 0.58877 0.0
C747 C 0.98583 0.56611 0.73735 0.0
C748 C 0.0068 0.59372 0.73994 0.0
C749 C 0.01769 0.6085 0.69044 0.0
C750 C 0.00857 0.5959 0.63931 0.0
C751 C -0.01163 0.56854 0.63813 0.0
C752 C 0.97659 0.55398 0.68569 0.0
C753 C 0.95364 0.52545 0.67254 0.0
C754 C 0.96004 0.50379 0.69386 0.0
C755 C 0.92637 0.52083 0.69559 0.0
C756 C 0.95423 0.52648 0.61028 0.0
C757 C 0.97497 0.55126 0.59133 0.0
C758 C 0.97954 0.55714 0.53542 0.0
C759 C 0.96161 0.53761 0.49782 0.0
C760 C 0.93913 0.51287 0.51654 0.0
C761 C 0.93588 0.507 0.5734 0.0
H762 H 0.47889 0.04758 0.45038 0.0
H763 H 0.55258 0.10323 0.36375 0.0
H764 H 0.56681 0.06915 0.36368 0.0
H765 H 0.50662 -0.00404 0.50305 0.0
H766 H 0.47291 0.96786 0.48949 0.0
H767 H 0.47733 -0.00135 0.5211 0.0
H768 H 0.44767 0.00228 0.44632 0.0
H769 H 0.44333 0.97229 0.41345 0.0
H770 H 0.45715 0.00365 0.37495 0.0
H771 H 0.5592 0.02826 0.32079 0.0
H772 H 0.53756 0.98647 0.26532 0.0
H773 H 0.46617 0.95322 0.37048 0.0
C774 C 0.49882 0.05278 0.43487 0.0
C775 C 0.51399 0.07691 0.40456 0.0
C776 C 0.54034 0.08435 0.386 0.0
C777 C 0.54853 0.06491 0.38578 0.0
C778 C 0.53002 0.03857 0.40411 0.0
C779 C 0.50617 0.03275 0.43176 0.0
C780 C 0.4861 0.00226 0.43299 0.0
C781 C 0.48576 0.99049 0.48999 0.0
C782 C 0.45693 -0.00523 0.41574 0.0
C783 C 0.49938 0.99298 0.39121 0.0
C784 C 0.52535 0.01371 0.3777 0.0
C785 C 0.53941 0.01157 0.33267 0.0
C786 C 0.52667 0.98798 0.30051 0.0
C787 C 0.49995 0.96684 0.31315 0.0
C788 C 0.48655 0.96919 0.35981 0.0
H789 H 0.43521 0.41735 0.58229 0.0
H790 H 0.41775 0.4734 0.49701 0.0
H791 H 0.45968 0.49047 0.44279 0.0
H792 H 0.49328 0.45162 0.61204 0.0
H793 H 0.50879 0.43143 0.59562 0.0
H794 H 0.47295 0.41491 0.6064 0.0
H795 H 0.46445 0.39236 0.51073 0.0
H796 H 0.50073 0.40893 0.49938 0.0
H797 H 0.47931 0.41305 0.4505 0.0
H798 H 0.50841 0.51532 0.4382 0.0
H799 H 0.55645 0.53891 0.46772 0.0
H800 H 0.54314 0.46388 0.54247 0.0
C801 C 0.43976 0.43197 0.54969 0.0
C802 C 0.42434 0.44473 0.5441 0.0
C803 C 0.43008 0.46393 0.50192 0.0
C804 C 0.45358 0.47339 0.47036 0.0
C805 C 0.47032 0.46251 0.4802 0.0
C806 C 0.46287 0.44093 0.51655 0.0
C807 C 0.48638 0.43629 0.52699 0.0
C808 C 0.49059 0.4335 0.58887 0.0
C809 C 0.4825 0.41119 0.49495 0.0
C810 C 0.50914 0.46225 0.50224 0.0
C811 C 0.49947 0.47644 0.47274 0.0
C812 C 0.51644 0.50388 0.45841 0.0
C813 C 0.54355 0.51734 0.4762 0.0
C814 C 0.55326 0.50316 0.50756 0.0
C815 C 0.53621 0.47509 0.51797 0.0
H816 H 0.95484 0.44079 1.0042 0.0
H817 H 0.94296 0.41914 0.83145 0.0
H818 H -0.0096 0.45517 0.81219 0.0
H819 H -0.00937 0.51024 0.98687 0.0
H820 H 0.01252 0.51653 0.04518 0.0
H821 H 0.97943 0.48658 0.04353 0.0
H822 H 0.00238 0.45752 0.05921 0.0
H823 H 0.03581 0.48756 0.05748 0.0
H824 H 0.02761 0.45963 0.01116 0.0
H825 H 0.03629 0.496 0.81022 0.0
H826 H 0.0703 0.54471 0.82115 0.0
H827 H 0.05367 0.53896 0.99535 0.0
C828 C 0.96227 0.44373 0.96228 0.0
C829 C 0.94537 0.42744 0.91932 0.0
C830 C 0.95554 0.4318 0.86488 0.0
C831 C 0.98264 0.45168 0.85383 0.0
C832 C -0.00085 0.46673 0.8977 0.0
C833 C -0.01089 0.46332 0.95066 0.0
C834 C 0.00945 0.48454 0.98931 0.0
C835 C -0.0027 0.50042 0.01776 0.0
C836 C 0.0194 0.47152 0.03177 0.0
C837 C 0.03178 0.50193 0.94886 0.0
C838 C 0.0261 0.49053 0.89669 0.0
C839 C 0.04138 0.50489 0.85089 0.0
C840 C 0.06096 0.53248 0.8575 0.0
C841 C 0.06427 0.5451 0.90915 0.0
C842 C 0.05166 0.5292 0.95595 0.0
H843 H -0.00731 0.41656 0.33054 0.0
H844 H 0.03306 0.49713 0.25798 0.0
H845 H -0.00404 0.48224 0.19125 0.0
H846 H 0.95007 0.37954 0.19031 0.0
H847 H 0.92184 0.35628 0.23285 0.0
H848 H 0.9563 0.36697 0.25321 0.0
H849 H 0.94851 0.38299 0.34649 0.0
H850 H 0.9143 0.37217 0.32772 0.0
H851 H 0.93659 0.40709 0.3491 0.0
H852 H 0.95138 0.46687 0.1592 0.0
H853 H 0.90868 0.4622 0.19253 0.0
H854 H 0.89168 0.39045 0.28402 0.0
C855 C -0.00613 0.43067 0.29933 0.0
C856 C 0.0152 0.45803 0.29999 0.0
C857 C 0.01645 0.47617 0.25899 0.0
C858 C -0.00424 0.46759 0.21991 0.0
C859 C 0.9738 0.44083 0.22234 0.0
C860 C 0.9729 0.42247 0.26103 0.0
C861 C 0.94457 0.39789 0.26546 0.0
C862 C 0.9431 0.37376 0.2335 0.0
C863 C 0.93549 0.38968 0.32576 0.0
C864 C 0.92868 0.40891 0.23572 0.0
C865 C 0.94617 0.43176 0.2045 0.0
C866 C 0.93763 0.44898 0.18285 0.0
C867 C 0.91319 0.44621 0.20187 0.0
C868 C 0.89777 0.42628 0.24162 0.0
C869 C 0.90354 0.40547 0.25301 0.0
H870 H 0.41348 0.91602 0.82803 0.0
H871 H 0.39591 0.88464 0.66222 0.0
H872 H 0.44542 0.90841 0.64142 0.0
H873 H 0.4544 0.97752 0.79279 0.0
H874 H 0.47842 0.98802 0.8485 0.0
H875 H 0.44426 0.96058 0.85846 0.0
H876 H 0.46106 0.92724 0.88648 0.0
H877 H 0.49528 0.9557 0.88048 0.0
H878 H 0.48554 0.92448 0.84362 0.0
H879 H 0.49464 0.94458 0.63281 0.0
H880 H 0.53863 0.98846 0.63811 0.0
H881 H 0.52117 -0.00172 0.80709 0.0
C882 C 0.42035 0.91302 0.78841 0.0
C883 C 0.40164 0.89868 0.74676 0.0
C884 C 0.41049 0.89538 0.69463 0.0
C885 C 0.43845 0.90877 0.68268 0.0
C886 C 0.45667 0.92489 0.72366 0.0
C887 C 0.44787 0.92661 0.77596 0.0
C888 C 0.46984 0.94957 0.80893 0.0
C889 C 0.46119 0.9701 0.82818 0.0
C890 C 0.47845 0.93854 0.85773 0.0
C891 C 0.49182 0.96177 0.76604 0.0
C892 C 0.48443 0.94689 0.7177 0.0
C893 C 0.50086 0.95603 0.67082 0.0
C894 C 0.52545 0.98097 0.67381 0.0
C895 C 0.5324 -0.00346 0.72259 0.0
C896 C 0.51573 0.98668 0.76917 0.0
H897 H 0.54961 0.58043 0.9583 0.0
H898 H 0.62764 0.59404 0.01332 0.0
H899 H 0.61861 0.55118 0.96912 0.0
H900 H 0.51261 0.52519 0.99643 0.0
H901 H 0.48917 0.50787 0.94081 0.0
H902 H 0.50696 0.54416 0.94372 0.0
H903 H 0.52724 0.54721 0.84597 0.0
H904 H 0.50771 0.5104 0.84336 0.0
H905 H 0.5439 0.52815 0.83067 0.0
H906 H 0.59526 0.50257 0.95858 0.0
H907 H 0.5617 0.45699 0.99145 0.0
H908 H 0.49629 0.47163 0.94868 0.0
C909 C 0.56513 0.57469 0.9584 0.0
C910 C 0.58889 0.58972 0.98959 0.0
C911 C 0.6092 0.58244 0.98956 0.0
C912 C 0.60431 0.5583 0.96381 0.0
C913 C 0.5792 0.54203 0.93798 0.0
C914 C 0.56019 0.55048 0.93334 0.0
C915 C 0.53247 0.52704 0.91743 0.0
C916 C 0.509 0.52601 0.95181 0.0
C917 C 0.52753 0.52826 0.85572 0.0
C918 C 0.53709 0.50354 0.92901 0.0
C919 C 0.56468 0.51251 0.93421 0.0
C920 C 0.57376 0.49532 0.95346 0.0
C921 C 0.5545 0.46952 0.97285 0.0
C922 C 0.52657 0.46153 0.97427 0.0
C923 C 0.51768 0.4778 0.94855 0.0
H924 H 0.32061 0.93997 0.58461 0.0
H925 H 0.3365 0.99189 0.7267 0.0
H926 H 0.35321 0.03219 0.66585 0.0
H927 H 0.38103 0.98413 0.5194 0.0
H928 H 0.36775 0.97647 0.45051 0.0
H929 H 0.35179 0.95135 0.50371 0.0
H930 H 0.30552 0.94813 0.4831 0.0
H931 H 0.32141 0.97336 0.42972 0.0
H932 H 0.3031 0.97863 0.48448 0.0
H933 H 0.37246 0.06731 0.59018 0.0
H934 H 0.39724 0.09457 0.50863 0.0
H935 H 0.37171 0.01987 0.41694 0.0
C936 C 0.32665 0.95971 0.60258 0.0
C937 C 0.3266 0.96286 0.66007 0.0
C938 C 0.33594 0.98911 0.68259 0.0
C939 C 0.34536 0.01204 0.64834 0.0
C940 C 0.34571 0.0084 0.5917 0.0
C941 C 0.33682 0.98288 0.56904 0.0
C942 C 0.34308 0.9849 0.50812 0.0
C943 C 0.36204 0.97355 0.49469 0.0
C944 C 0.3167 0.97039 0.47437 0.0
C945 C 0.35744 0.01556 0.50026 0.0
C946 C 0.35816 0.02874 0.54857 0.0
C947 C 0.37172 0.05718 0.55196 0.0
C948 C 0.38564 0.07253 0.50532 0.0
C949 C 0.38634 0.05939 0.45631 0.0
C950 C 0.37137 0.03054 0.45362 0.0
H951 H 0.39142 0.40836 0.97307 0.0
H952 H 0.3731 0.32842 0.91542 0.0
H953 H 0.34231 0.32962 0.84535 0.0
H954 H 0.32273 0.40053 0.94409 0.0
H955 H 0.3382 0.43565 0.92266 0.0
H956 H 0.35421 0.42604 0.97487 0.0
H957 H 0.39887 0.44756 0.9177 0.0
H958 H 0.38308 0.45733 0.86582 0.0
H959 H 0.39784 0.43669 0.84765 0.0
H960 H 0.32035 0.34318 0.77173 0.0
H961 H 0.31105 0.36828 0.70046 0.0
H962 H 0.34284 0.4389 0.80756 0.0
C963 C 0.38036 0.3907 0.94683 0.0
C964 C 0.38467 0.36823 0.95003 0.0
C965 C 0.37003 0.34578 0.91419 0.0
C966 C 0.35241 0.34625 0.87432 0.0
C967 C 0.34931 0.36915 0.87125 0.0
C968 C 0.36277 0.39087 0.90698 0.0
C969 C 0.35872 0.41444 0.89136 0.0
C970 C 0.34249 0.41944 0.9359 0.0
C971 C 0.38625 0.44051 0.87993 0.0
C972 C 0.3421 0.40323 0.83945 0.0
C973 C 0.33636 0.37685 0.82909 0.0
C974 C 0.32412 0.36355 0.78014 0.0
C975 C 0.31882 0.37796 0.73986 0.0
C976 C 0.32585 0.40548 0.74855 0.0
C977 C 0.33642 0.41767 0.80015 0.0
H978 H 0.9878 0.3773 0.05755 0.0
H979 H 0.92917 0.30557 0.14826 0.0
H980 H 0.96327 0.31809 0.22305 0.0
H981 H 0.04967 0.37874 0.09693 0.0
H982 H 0.06839 0.41547 0.10174 0.0
H983 H 0.04056 0.39878 0.05404 0.0
H984 H 0.01717 0.42356 0.0977 0.0
H985 H 0.04498 0.44056 0.14507 0.0
H986 H 0.01059 0.42069 0.17052 0.0
H987 H 0.00363 0.34203 0.2914 0.0
H988 H 0.04348 0.37455 0.34623 0.0
H989 H 0.07363 0.43015 0.20772 0.0
C990 C 0.98193 0.36368 0.09247 0.0
C991 C 0.95566 0.34018 0.09655 0.0
C992 C 0.94918 0.32348 0.14376 0.0
C993 C 0.96847 0.33047 0.18635 0.0
C994 C -0.006 0.35423 0.181 0.0
C995 C 0.00052 0.37049 0.13499 0.0
C996 C 0.02799 0.39621 0.14001 0.0
C997 C 0.04782 0.39735 0.09554 0.0
C998 C 0.025 0.42175 0.13825 0.0
C999 C 0.03632 0.39213 0.19628 0.0
C1000 C 0.0166 0.36783 0.21952 0.0
C1001 C 0.01925 0.36085 0.27308 0.0
C1002 C 0.04209 0.37947 0.30386 0.0
C1003 C 0.06201 0.40492 0.28122 0.0
C1004 C 0.05926 0.41074 0.2261 0.0
H1005 H 0.61833 0.04807 0.55432 0.0
H1006 H 0.64285 0.00322 0.66148 0.0
H1007 H 0.61752 0.96227 0.60364 0.0
H1008 H 0.55263 -0.00383 0.53607 0.0
H1009 H 0.54941 0.00239 0.4649 0.0
H1010 H 0.57263 0.03012 0.50815 0.0
H1011 H 0.61302 0.04118 0.44356 0.0
H1012 H 0.58981 0.01458 0.39797 0.0
H1013 H 0.61951 0.01437 0.42321 0.0
H1014 H 0.58375 0.92416 0.54172 0.0
H1015 H 0.5499 0.89417 0.4722 0.0
H1016 H 0.54879 0.96438 0.40507 0.0
C1017 C 0.61933 0.03001 0.5645 0.0
C1018 C 0.63275 0.02902 0.61249 0.0
C1019 C 0.63286 0.00462 0.62486 0.0
C1020 C 0.61839 0.98115 0.59237 0.0
C1021 C 0.60414 0.98239 0.54713 0.0
C1022 C 0.60505 0.0064 0.53242 0.0
C1023 C 0.5867 0.00194 0.48385 0.0
C1024 C 0.56403 0.00806 0.49926 0.0
C1025 C 0.60326 0.01903 0.4342 0.0
C1026 C 0.57519 0.97173 0.47386 0.0
C1027 C 0.58525 0.96067 0.511 0.0
C1028 C 0.57613 0.93271 0.51174 0.0
C1029 C 0.55674 0.91578 0.47254 0.0
C1030 C 0.54699 0.92698 0.43297 0.0
C1031 C 0.55625 0.95528 0.43423 0.0
H1032 H 0.66359 0.67908 0.95037 0.0
H1033 H 0.61573 0.70924 0.87057 0.0
H1034 H 0.62036 0.69023 0.7824 0.0
H1035 H 0.70841 0.68481 0.83073 0.0
H1036 H 0.70634 0.65301 0.84887 0.0
H1037 H 0.70502 0.67464 0.90174 0.0
H1038 H 0.65927 0.63411 0.93648 0.0
H1039 H 0.66019 0.61254 0.88333 0.0
H1040 H 0.63115 0.61719 0.88933 0.0
H1041 H 0.62317 0.66125 0.70791 0.0
H1042 H 0.62559 0.62657 0.65128 0.0
H1043 H 0.66987 0.61325 0.78103 0.0
C1044 C 0.65523 0.68299 0.91393 0.0
C1045 C 0.63968 0.69618 0.91736 0.0
C1046 C 0.62812 0.69969 0.86886 0.0
C1047 C 0.63055 0.68882 0.81864 0.0
C1048 C 0.64457 0.67446 0.8176 0.0
C1049 C 0.65698 0.67179 0.86391 0.0
C1050 C 0.66748 0.65225 0.85408 0.0
C1051 C 0.69867 0.66707 0.85914 0.0
C1052 C 0.6537 0.62758 0.89313 0.0
C1053 C 0.65851 0.6438 0.79535 0.0
C1054 C 0.64558 0.65708 0.77494 0.0
C1055 C 0.63369 0.65114 0.72315 0.0
C1056 C 0.63504 0.63119 0.69142 0.0
C1057 C 0.64803 0.61713 0.71151 0.0
C1058 C 0.66013 0.62382 0.7641 0.0
H1059 H 0.97316 0.57061 0.01884 0.0
H1060 H 0.0177 0.65179 0.08984 0.0
H1061 H 0.98472 0.63658 0.16676 0.0
H1062 H 0.90404 0.55442 0.06111 0.0
H1063 H 0.89366 0.51935 0.07568 0.0
H1064 H 0.91863 0.53759 0.02288 0.0
H1065 H 0.95251 0.52633 0.07078 0.0
H1066 H 0.9276 0.50797 0.12332 0.0
H1067 H 0.96095 0.53541 0.14193 0.0
H1068 H 0.95003 0.61082 0.24182 0.0
H1069 H 0.91751 0.57657 0.30808 0.0
H1070 H 0.89554 0.51288 0.18711 0.0
C1071 C 0.97567 0.58546 0.04974 0.0
C1072 C -0.00203 0.61254 0.04782 0.0
C1073 C 0.00073 0.63102 0.09004 0.0
C1074 C 0.98203 0.62257 0.13389 0.0
C1075 C 0.96058 0.59558 0.13496 0.0
C1076 C 0.95733 0.57734 0.09383 0.0
C1077 C 0.93413 0.54889 0.10675 0.0
C1078 C 0.91126 0.53952 0.06406 0.0
C1079 C 0.94442 0.52847 0.11096 0.0
C1080 C 0.92512 0.55379 0.16213 0.0
C1081 C 0.94044 0.5809 0.17763 0.0
C1082 C 0.93744 0.58972 0.22947 0.0
C1083 C 0.91883 0.57025 0.26672 0.0
C1084 C 0.90336 0.54244 0.25164 0.0
C1085 C 0.90627 0.53427 0.1985 0.0
H1086 H 0.49458 0.13918 0.50305 0.0
H1087 H 0.56006 0.19777 0.39898 0.0
H1088 H 0.59373 0.19587 0.46009 0.0
H1089 H 0.53093 0.16125 0.63662 0.0
H1090 H 0.51569 0.12651 0.66045 0.0
H1091 H 0.49739 0.136 0.61357 0.0
H1092 H 0.49201 0.09802 0.54602 0.0
H1093 H 0.51031 0.08861 0.5928 0.0
H1094 H 0.52202 0.09765 0.52302 0.0
H1095 H 0.6199 0.18246 0.5261 0.0
H1096 H 0.63586 0.16092 0.59355 0.0
H1097 H 0.55288 0.11117 0.65298 0.0
C1098 C 0.51602 0.15251 0.4942 0.0
C1099 C 0.5246 0.16898 0.44646 0.0
C1100 C 0.55293 0.18529 0.43563 0.0
C1101 C 0.57224 0.18423 0.47002 0.0
C1102 C 0.56298 0.1668 0.5153 0.0
C1103 C 0.53551 0.15149 0.52773 0.0
C1104 C 0.53052 0.13251 0.57563 0.0
C1105 C 0.51789 0.1395 0.62447 0.0
C1106 C 0.51266 0.10243 0.55831 0.0
C1107 C 0.5594 0.13931 0.58796 0.0
C1108 C 0.57792 0.15913 0.55287 0.0
C1109 C 0.60559 0.16727 0.55439 0.0
C1110 C 0.61448 0.15486 0.59275 0.0
C1111 C 0.59578 0.13452 0.62917 0.0
C1112 C 0.56792 0.12695 0.62658 0.0
H1113 H 0.45606 0.55817 0.73994 0.0
H1114 H 0.37733 0.52291 0.82074 0.0
H1115 H 0.39911 0.55225 0.90178 0.0
H1116 H 0.49472 0.56362 0.85734 0.0
H1117 H 0.52398 0.59577 0.83817 0.0
H1118 H 0.50204 0.57278 0.7859 0.0
H1119 H 0.49445 0.61089 0.74662 0.0
H1120 H 0.5164 0.63409 0.79874 0.0
H1121 H 0.48214 0.62779 0.79122 0.0
H1122 H 0.43057 0.58182 0.9781 0.0
H1123 H 0.46871 0.61153 0.04031 0.0
H1124 H 0.52591 0.63092 0.90636 0.0
C1125 C 0.44339 0.55676 0.77456 0.0
C1126 C 0.415 0.53819 0.77411 0.0
C1127 C 0.39909 0.53707 0.82009 0.0
C1128 C 0.41129 0.55365 0.86632 0.0
C1129 C 0.43935 0.5717 0.86552 0.0
C1130 C 0.45513 0.57363 0.82048 0.0
C1131 C 0.48488 0.59444 0.83019 0.0
C1132 C 0.50245 0.58085 0.82774 0.0
C1133 C 0.49506 0.61821 0.78925 0.0
C1134 C 0.4835 0.6036 0.88802 0.0
C1135 C 0.45709 0.59009 0.90797 0.0
C1136 C 0.4512 0.59308 0.96242 0.0
C1137 C 0.4729 0.61002 0.99742 0.0
C1138 C 0.49998 0.62421 0.97745 0.0
C1139 C 0.50521 0.62122 0.92189 0.0
H1140 H 0.84442 0.38187 0.03163 0.0
H1141 H 0.80788 0.30008 0.09862 0.0
H1142 H 0.78245 0.31165 0.16614 0.0
H1143 H 0.85791 0.41349 0.15572 0.0
H1144 H 0.85253 0.44093 0.13518 0.0
H1145 H 0.86258 0.42439 0.08511 0.0
H1146 H 0.82015 0.41304 0.02648 0.0
H1147 H 0.80974 0.42945 0.07665 0.0
H1148 H 0.78667 0.39456 0.05693 0.0
H1149 H 0.76542 0.33365 0.23224 0.0
H1150 H 0.76518 0.36542 0.30107 0.0
H1151 H 0.81477 0.43357 0.19325 0.0
C1152 C 0.83039 0.36608 0.05936 0.0
C1153 C 0.82767 0.33988 0.05929 0.0
C1154 C 0.81002 0.32017 0.09771 0.0
C1155 C 0.79532 0.32651 0.13573 0.0
C1156 C 0.79864 0.35267 0.13489 0.0
C1157 C 0.81605 0.37224 0.09801 0.0
C1158 C 0.81978 0.40004 0.1112 0.0
C1159 C 0.84998 0.42095 0.12248 0.0
C1160 C 0.8084 0.40984 0.06506 0.0
C1161 C 0.8026 0.3934 0.16271 0.0
C1162 C 0.78981 0.36579 0.1746 0.0
C1163 C 0.77501 0.3552 0.22292 0.0
C1164 C 0.77485 0.37343 0.2617 0.0
C1165 C 0.78993 0.40201 0.25256 0.0
C1166 C 0.80252 0.41186 0.20098 0.0
H1167 H 0.3949 0.87054 0.40789 0.0
H1168 H 0.4062 0.80332 0.45623 0.0
H1169 H 0.36977 0.78971 0.52648 0.0
H1170 H 0.3865 0.8886 0.54256 0.0
H1171 H 0.36211 0.89847 0.52286 0.0
H1172 H 0.38711 0.90092 0.47408 0.0
H1173 H 0.34838 0.87058 0.40626 0.0
H1174 H 0.32326 0.86775 0.45535 0.0
H1175 H 0.32162 0.83738 0.42803 0.0
H1176 H 0.33295 0.78482 0.59398 0.0
H1177 H 0.30358 0.7919 0.65882 0.0
H1178 H 0.31781 0.86341 0.56695 0.0
C1179 C 0.38949 0.85264 0.43254 0.0
C1180 C 0.4032 0.83771 0.42585 0.0
C1181 C 0.39591 0.81494 0.46025 0.0
C1182 C 0.37514 0.80702 0.50003 0.0
C1183 C 0.36202 0.82221 0.50524 0.0
C1184 C 0.36921 0.84475 0.4727 0.0
C1185 C 0.35379 0.85911 0.48909 0.0
C1186 C 0.37355 0.8885 0.5083 0.0
C1187 C 0.33569 0.85866 0.44186 0.0
C1188 C 0.33676 0.84124 0.53632 0.0
C1189 C 0.34151 0.81986 0.54459 0.0
C1190 C 0.32902 0.80141 0.58752 0.0
C1191 C 0.31219 0.80554 0.62407 0.0
C1192 C 0.30807 0.82812 0.61804 0.0
C1193 C 0.31995 0.84563 0.57235 0.0
H1194 H 0.56527 0.46217 0.72145 0.0
H1195 H 0.64307 0.48876 0.80001 0.0
H1196 H 0.61948 0.45479 0.87413 0.0
H1197 H 0.52835 0.4532 0.84907 0.0
H1198 H 0.49728 0.42427 0.82454 0.0
H1199 H 0.52012 0.4501 0.7771 0.0
H1200 H 0.5231 0.41362 0.71867 0.0
H1201 H 0.50022 0.38737 0.76531 0.0
H1202 H 0.53319 0.39142 0.75057 0.0
H1203 H 0.58734 0.4158 0.93623 0.0
H1204 H 0.54916 0.3804 0.99016 0.0
H1205 H 0.49182 0.38127 0.87384 0.0
C1206 C 0.57735 0.46086 0.75434 0.0
C1207 C 0.60605 0.47786 0.75478 0.0
C1208 C 0.62109 0.47593 0.79896 0.0
C1209 C 0.60787 0.45659 0.84095 0.0
C1210 C 0.57957 0.43973 0.8386 0.0
C1211 C 0.56444 0.44215 0.79708 0.0
C1212 C 0.53417 0.42262 0.80548 0.0
C1213 C 0.51908 0.43848 0.81461 0.0
C1214 C 0.52197 0.40257 0.75712 0.0
C1215 C 0.5346 0.40817 0.85743 0.0
C1216 C 0.561 0.41822 0.87562 0.0
C1217 C 0.5666 0.40796 0.92255 0.0
C1218 C 0.54468 0.38762 0.95271 0.0
C1219 C 0.51729 0.37784 0.93648 0.0
C1220 C 0.51239 0.38798 0.88734 0.0
H1221 H 0.10988 0.57434 0.27621 0.0
H1222 H 0.16702 0.55245 0.208 0.0
H1223 H 0.17935 0.58748 0.13551 0.0
H1224 H 0.08386 0.57923 0.15304 0.0
H1225 H 0.07876 0.60694 0.17335 0.0
H1226 H 0.07853 0.584 0.22429 0.0
H1227 H 0.1167 0.62511 0.27754 0.0
H1228 H 0.11725 0.64821 0.22613 0.0
H1229 H 0.14813 0.64823 0.24298 0.0
H1230 H 0.1813 0.62124 0.06492 0.0
H1231 H 0.16899 0.64558 0.99765 0.0
H1232 H 0.10949 0.64403 0.11199 0.0
C1233 C 0.12555 0.57726 0.247 0.0
C1234 C 0.13772 0.56075 0.24828 0.0
C1235 C 0.15757 0.56493 0.20818 0.0
C1236 C 0.1648 0.58492 0.16711 0.0
C1237 C 0.15204 0.60055 0.16683 0.0
C1238 C 0.13272 0.59676 0.20575 0.0
C1239 C 0.1193 0.61339 0.19296 0.0
C1240 C 0.0883 0.59478 0.18544 0.0
C1241 C 0.12574 0.63502 0.23756 0.0
C1242 C 0.13332 0.6265 0.13942 0.0
C1243 C 0.15264 0.61942 0.12569 0.0
C1244 C 0.1665 0.62716 0.07572 0.0
C1245 C 0.1594 0.64112 0.03777 0.0
C1246 C 0.13827 0.64685 0.04947 0.0
C1247 C 0.12611 0.64058 0.10212 0.0
loop_
_geom_bond_atom_site_label_1
_geom_bond_atom_site_label_2
_geom_bond_distance
_geom_bond_site_symmetry_2
_ccdc_geom_bond_type
O0 Zn1 1.953 . S
O0 C16 1.225 . S
Zn1 O0 1.953 . S
Zn1 O2 1.949 . S
Zn1 O8 1.919 . S
Zn1 O13 1.924 . S
O2 Zn1 1.949 . S
O2 Zn3 1.923 . S
O2 Zn4 1.950 . S
O2 Zn5 1.945 . S
Zn3 O2 1.923 . S
Zn3 O6 1.933 . S
Zn3 O9 1.941 . S
Zn3 O10 1.965 . S
Zn4 O2 1.950 . S
Zn4 O11 1.938 . S
Zn4 O12 1.906 . S
Zn4 O22 1.953 . S
Zn5 O2 1.945 . S
Zn5 O7 1.932 . S
Zn5 O14 1.977 . S
Zn5 O15 1.910 . S
O6 Zn3 1.933 . S
O6 C17 1.226 . S
O7 Zn5 1.932 . S
O7 C17 1.307 . S
O8 Zn1 1.919 . S
O8 C19 1.253 . S
O9 Zn3 1.941 . S
O9 C19 1.283 . S
O10 Zn3 1.965 . S
O10 C18 1.303 . S
O11 Zn4 1.938 . S
O11 C18 1.247 . S
O12 Zn4 1.906 . S
O12 C20 1.304 . S
O13 Zn1 1.924 . S
O13 C21 1.311 . S
O14 Zn5 1.977 . S
O14 C20 1.272 . S
O15 Zn5 1.910 . S
O15 C21 1.231 . S
C16 O0 1.225 . S
C16 O22 1.298 . S
C17 O6 1.226 . S
C17 O7 1.307 . S
C18 O10 1.303 . S
C18 O11 1.247 . S
C19 O8 1.253 . S
C19 O9 1.283 . S
C20 O12 1.304 . S
C20 O14 1.272 . S
C21 O13 1.311 . S
C21 O15 1.231 . S
O22 Zn4 1.953 . S
O22 C16 1.298 . S
O23 Zn24 1.953 . S
O23 C39 1.225 . S
Zn24 O23 1.953 . S
Zn24 O25 1.949 . S
Zn24 O31 1.919 . S
Zn24 O36 1.924 . S
O25 Zn24 1.949 . S
O25 Zn26 1.923 . S
O25 Zn27 1.950 . S
O25 Zn28 1.945 . S
Zn26 O25 1.923 . S
Zn26 O29 1.933 . S
Zn26 O32 1.941 . S
Zn26 O33 1.965 . S
Zn27 O25 1.950 . S
Zn27 O34 1.938 . S
Zn27 O35 1.906 . S
Zn27 O45 1.953 . S
Zn28 O25 1.945 . S
Zn28 O30 1.932 . S
Zn28 O37 1.977 . S
Zn28 O38 1.910 . S
O29 Zn26 1.933 . S
O29 C40 1.226 . S
O30 Zn28 1.932 . S
O30 C40 1.307 . S
O31 Zn24 1.919 . S
O31 C42 1.253 . S
O32 Zn26 1.941 . S
O32 C42 1.283 . S
O33 Zn26 1.965 . S
O33 C41 1.303 . S
O34 Zn27 1.938 . S
O34 C41 1.247 . S
O35 Zn27 1.906 . S
O35 C43 1.304 . S
O36 Zn24 1.924 . S
O36 C44 1.311 . S
O37 Zn28 1.977 . S
O37 C43 1.272 . S
O38 Zn28 1.910 . S
O38 C44 1.231 . S
C39 O23 1.225 . S
C39 O45 1.298 . S
C40 O29 1.226 . S
C40 O30 1.307 . S
C41 O33 1.303 . S
C41 O34 1.247 . S
C42 O31 1.253 . S
C42 O32 1.283 . S
C43 O35 1.304 . S
C43 O37 1.272 . S
C44 O36 1.311 . S
C44 O38 1.231 . S
O45 Zn27 1.953 . S
O45 C39 1.298 . S
O46 Zn47 1.953 . S
O46 C62 1.225 1_556 S
Zn47 O46 1.953 . S
Zn47 O48 1.949 . S
Zn47 O54 1.919 . S
Zn47 O59 1.924 . S
O48 Zn47 1.949 . S
O48 Zn49 1.923 . S
O48 Zn50 1.950 . S
O48 Zn51 1.945 . S
Zn49 O48 1.923 . S
Zn49 O52 1.933 . S
Zn49 O55 1.941 . S
Zn49 O56 1.965 . S
Zn50 O48 1.950 . S
Zn50 O57 1.938 1_556 S
Zn50 O58 1.906 . S
Zn50 O68 1.953 1_556 S
Zn51 O48 1.945 . S
Zn51 O53 1.932 . S
Zn51 O60 1.977 . S
Zn51 O61 1.910 . S
O52 Zn49 1.933 . S
O52 C63 1.226 . S
O53 Zn51 1.932 . S
O53 C63 1.307 . S
O54 Zn47 1.919 . S
O54 C65 1.253 . S
O55 Zn49 1.941 . S
O55 C65 1.283 . S
O56 Zn49 1.965 . S
O56 C64 1.303 1_556 S
O57 Zn50 1.938 1_554 S
O57 C64 1.247 . S
O58 Zn50 1.906 . S
O58 C66 1.304 . S
O59 Zn47 1.924 . S
O59 C67 1.311 . S
O60 Zn51 1.977 . S
O60 C66 1.272 . S
O61 Zn51 1.910 . S
O61 C67 1.231 . S
C62 O46 1.225 1_554 S
C62 O68 1.298 . S
C63 O52 1.226 . S
C63 O53 1.307 . S
C64 O56 1.303 1_554 S
C64 O57 1.247 . S
C65 O54 1.253 . S
C65 O55 1.283 . S
C66 O58 1.304 . S
C66 O60 1.272 . S
C67 O59 1.311 . S
C67 O61 1.231 . S
O68 Zn50 1.953 1_554 S
O68 C62 1.298 . S
O69 Zn70 1.953 . S
O69 C85 1.225 . S
Zn70 O69 1.953 . S
Zn70 O71 1.949 . S
Zn70 O77 1.919 . S
Zn70 O82 1.924 . S
O71 Zn70 1.949 . S
O71 Zn72 1.923 . S
O71 Zn73 1.950 . S
O71 Zn74 1.945 . S
Zn72 O71 1.923 . S
Zn72 O75 1.933 . S
Zn72 O78 1.941 . S
Zn72 O79 1.965 . S
Zn73 O71 1.950 . S
Zn73 O80 1.938 . S
Zn73 O81 1.906 . S
Zn73 O91 1.953 . S
Zn74 O71 1.945 . S
Zn74 O76 1.932 . S
Zn74 O83 1.977 . S
Zn74 O84 1.910 . S
O75 Zn72 1.933 . S
O75 C86 1.226 . S
O76 Zn74 1.932 . S
O76 C86 1.307 . S
O77 Zn70 1.919 . S
O77 C88 1.253 . S
O78 Zn72 1.941 . S
O78 C88 1.283 . S
O79 Zn72 1.965 . S
O79 C87 1.303 . S
O80 Zn73 1.938 . S
O80 C87 1.247 . S
O81 Zn73 1.906 . S
O81 C89 1.304 . S
O82 Zn70 1.924 . S
O82 C90 1.311 . S
O83 Zn74 1.977 . S
O83 C89 1.272 . S
O84 Zn74 1.910 . S
O84 C90 1.231 . S
C85 O69 1.225 . S
C85 O91 1.298 . S
C86 O75 1.226 . S
C86 O76 1.307 . S
C87 O79 1.303 . S
C87 O80 1.247 . S
C88 O77 1.253 . S
C88 O78 1.283 . S
C89 O81 1.304 . S
C89 O83 1.272 . S
C90 O82 1.311 . S
C90 O84 1.231 . S
O91 Zn73 1.953 . S
O91 C85 1.298 . S
O92 Zn93 1.953 . S
O92 C108 1.225 . S
Zn93 O92 1.953 . S
Zn93 O94 1.949 . S
Zn93 O100 1.919 . S
Zn93 O105 1.924 . S
O94 Zn93 1.949 . S
O94 Zn95 1.923 . S
O94 Zn96 1.950 . S
O94 Zn97 1.945 . S
Zn95 O94 1.923 . S
Zn95 O98 1.933 . S
Zn95 O101 1.941 . S
Zn95 O102 1.965 . S
Zn96 O94 1.950 . S
Zn96 O103 1.938 . S
Zn96 O104 1.906 . S
Zn96 O114 1.953 . S
Zn97 O94 1.945 . S
Zn97 O99 1.932 . S
Zn97 O106 1.977 . S
Zn97 O107 1.910 . S
O98 Zn95 1.933 . S
O98 C109 1.226 . S
O99 Zn97 1.932 . S
O99 C109 1.307 . S
O100 Zn93 1.919 . S
O100 C111 1.253 . S
O101 Zn95 1.941 . S
O101 C111 1.283 . S
O102 Zn95 1.965 . S
O102 C110 1.303 . S
O103 Zn96 1.938 . S
O103 C110 1.247 . S
O104 Zn96 1.906 . S
O104 C112 1.304 . S
O105 Zn93 1.924 . S
O105 C113 1.311 . S
O106 Zn97 1.977 . S
O106 C112 1.272 . S
O107 Zn97 1.910 . S
O107 C113 1.231 . S
C108 O92 1.225 . S
C108 O114 1.298 . S
C109 O98 1.226 . S
C109 O99 1.307 . S
C110 O102 1.303 . S
C110 O103 1.247 . S
C111 O100 1.253 . S
C111 O101 1.283 . S
C112 O104 1.304 . S
C112 O106 1.272 . S
C113 O105 1.311 . S
C113 O107 1.231 . S
O114 Zn96 1.953 . S
O114 C108 1.298 . S
O115 Zn116 1.953 . S
O115 C131 1.225 1_556 S
Zn116 O115 1.953 . S
Zn116 O117 1.949 . S
Zn116 O123 1.919 . S
Zn116 O128 1.924 . S
O117 Zn116 1.949 . S
O117 Zn118 1.923 . S
O117 Zn119 1.950 . S
O117 Zn120 1.945 . S
Zn118 O117 1.923 . S
Zn118 O121 1.933 . S
Zn118 O124 1.941 . S
Zn118 O125 1.965 . S
Zn119 O117 1.950 . S
Zn119 O126 1.938 1_556 S
Zn119 O127 1.906 . S
Zn119 O137 1.953 1_556 S
Zn120 O117 1.945 . S
Zn120 O122 1.932 . S
Zn120 O129 1.977 . S
Zn120 O130 1.910 . S
O121 Zn118 1.933 . S
O121 C132 1.226 . S
O122 Zn120 1.932 . S
O122 C132 1.307 . S
O123 Zn116 1.919 . S
O123 C134 1.253 . S
O124 Zn118 1.941 . S
O124 C134 1.283 . S
O125 Zn118 1.965 . S
O125 C133 1.303 1_556 S
O126 Zn119 1.938 1_554 S
O126 C133 1.247 . S
O127 Zn119 1.906 . S
O127 C135 1.304 . S
O128 Zn116 1.924 . S
O128 C136 1.311 . S
O129 Zn120 1.977 . S
O129 C135 1.272 . S
O130 Zn120 1.910 . S
O130 C136 1.231 . S
C131 O115 1.225 1_554 S
C131 O137 1.298 . S
C132 O121 1.226 . S
C132 O122 1.307 . S
C133 O125 1.303 1_554 S
C133 O126 1.247 . S
C134 O123 1.253 . S
C134 O124 1.283 . S
C135 O127 1.304 . S
C135 O129 1.272 . S
C136 O128 1.311 . S
C136 O130 1.231 . S
O137 Zn119 1.953 1_554 S
O137 C131 1.298 . S
O138 Zn139 1.953 . S
O138 C154 1.225 . S
Zn139 O138 1.953 . S
Zn139 O140 1.949 . S
Zn139 O146 1.919 . S
Zn139 O151 1.924 . S
O140 Zn139 1.949 . S
O140 Zn141 1.923 . S
O140 Zn142 1.950 . S
O140 Zn143 1.945 . S
Zn141 O140 1.923 . S
Zn141 O144 1.933 . S
Zn141 O147 1.941 . S
Zn141 O148 1.965 . S
Zn142 O140 1.950 . S
Zn142 O149 1.938 . S
Zn142 O150 1.906 . S
Zn142 O160 1.953 . S
Zn143 O140 1.945 . S
Zn143 O145 1.932 . S
Zn143 O152 1.977 . S
Zn143 O153 1.910 . S
O144 Zn141 1.933 . S
O144 C155 1.226 . S
O145 Zn143 1.932 . S
O145 C155 1.307 . S
O146 Zn139 1.919 . S
O146 C157 1.253 . S
O147 Zn141 1.941 . S
O147 C157 1.283 . S
O148 Zn141 1.965 . S
O148 C156 1.303 . S
O149 Zn142 1.938 . S
O149 C156 1.247 . S
O150 Zn142 1.906 . S
O150 C158 1.304 . S
O151 Zn139 1.924 . S
O151 C159 1.311 . S
O152 Zn143 1.977 . S
O152 C158 1.272 . S
O153 Zn143 1.910 . S
O153 C159 1.231 . S
C154 O138 1.225 . S
C154 O160 1.298 . S
C155 O144 1.226 . S
C155 O145 1.307 . S
C156 O148 1.303 . S
C156 O149 1.247 . S
C157 O146 1.253 . S
C157 O147 1.283 . S
C158 O150 1.304 . S
C158 O152 1.272 . S
C159 O151 1.311 . S
C159 O153 1.231 . S
O160 Zn142 1.953 . S
O160 C154 1.298 . S
O161 Zn162 1.953 . S
O161 C177 1.225 . S
Zn162 O161 1.953 . S
Zn162 O163 1.949 . S
Zn162 O169 1.919 . S
Zn162 O174 1.924 . S
O163 Zn162 1.949 . S
O163 Zn164 1.923 . S
O163 Zn165 1.950 . S
O163 Zn166 1.945 . S
Zn164 O163 1.923 . S
Zn164 O167 1.933 . S
Zn164 O170 1.941 . S
Zn164 O171 1.965 . S
Zn165 O163 1.950 . S
Zn165 O172 1.938 . S
Zn165 O173 1.906 . S
Zn165 O183 1.953 . S
Zn166 O163 1.945 . S
Zn166 O168 1.932 . S
Zn166 O175 1.977 . S
Zn166 O176 1.910 . S
O167 Zn164 1.933 . S
O167 C178 1.226 . S
O168 Zn166 1.932 . S
O168 C178 1.307 . S
O169 Zn162 1.919 . S
O169 C180 1.253 . S
O170 Zn164 1.941 . S
O170 C180 1.283 . S
O171 Zn164 1.965 . S
O171 C179 1.303 . S
O172 Zn165 1.938 . S
O172 C179 1.247 . S
O173 Zn165 1.906 . S
O173 C181 1.304 . S
O174 Zn162 1.924 . S
O174 C182 1.311 . S
O175 Zn166 1.977 . S
O175 C181 1.272 . S
O176 Zn166 1.910 . S
O176 C182 1.231 . S
C177 O161 1.225 . S
C177 O183 1.298 . S
C178 O167 1.226 . S
C178 O168 1.307 . S
C179 O171 1.303 . S
C179 O172 1.247 . S
C180 O169 1.253 . S
C180 O170 1.283 . S
C181 O173 1.304 . S
C181 O175 1.272 . S
C182 O174 1.311 . S
C182 O176 1.231 . S
O183 Zn165 1.953 . S
O183 C177 1.298 . S
O184 Zn185 1.953 . S
O184 C200 1.225 1_554 S
Zn185 O184 1.953 . S
Zn185 O186 1.949 . S
Zn185 O192 1.919 . S
Zn185 O197 1.924 . S
O186 Zn185 1.949 . S
O186 Zn187 1.923 . S
O186 Zn188 1.950 . S
O186 Zn189 1.945 . S
Zn187 O186 1.923 . S
Zn187 O190 1.933 . S
Zn187 O193 1.941 . S
Zn187 O194 1.965 . S
Zn188 O186 1.950 . S
Zn188 O195 1.938 1_554 S
Zn188 O196 1.906 . S
Zn188 O206 1.953 1_554 S
Zn189 O186 1.945 . S
Zn189 O191 1.932 . S
Zn189 O198 1.977 . S
Zn189 O199 1.910 . S
O190 Zn187 1.933 . S
O190 C201 1.226 . S
O191 Zn189 1.932 . S
O191 C201 1.307 . S
O192 Zn185 1.919 . S
O192 C203 1.253 . S
O193 Zn187 1.941 . S
O193 C203 1.283 . S
O194 Zn187 1.965 . S
O194 C202 1.303 1_554 S
O195 Zn188 1.938 1_556 S
O195 C202 1.247 . S
O196 Zn188 1.906 . S
O196 C204 1.304 . S
O197 Zn185 1.924 . S
O197 C205 1.311 . S
O198 Zn189 1.977 . S
O198 C204 1.272 . S
O199 Zn189 1.910 . S
O199 C205 1.231 . S
C200 O184 1.225 1_556 S
C200 O206 1.298 . S
C201 O190 1.226 . S
C201 O191 1.307 . S
C202 O194 1.303 1_556 S
C202 O195 1.247 . S
C203 O192 1.253 . S
C203 O193 1.283 . S
C204 O196 1.304 . S
C204 O198 1.272 . S
C205 O197 1.311 . S
C205 O199 1.231 . S
O206 Zn188 1.953 1_556 S
O206 C200 1.298 . S
O207 Zn208 1.953 . S
O207 C223 1.225 . S
Zn208 O207 1.953 . S
Zn208 O209 1.949 . S
Zn208 O215 1.919 . S
Zn208 O220 1.924 . S
O209 Zn208 1.949 . S
O209 Zn210 1.923 . S
O209 Zn211 1.950 . S
O209 Zn212 1.945 . S
Zn210 O209 1.923 . S
Zn210 O213 1.933 . S
Zn210 O216 1.941 . S
Zn210 O217 1.965 . S
Zn211 O209 1.950 . S
Zn211 O218 1.938 . S
Zn211 O219 1.906 . S
Zn211 O229 1.953 . S
Zn212 O209 1.945 . S
Zn212 O214 1.932 . S
Zn212 O221 1.977 . S
Zn212 O222 1.910 . S
O213 Zn210 1.933 . S
O213 C224 1.226 . S
O214 Zn212 1.932 . S
O214 C224 1.307 . S
O215 Zn208 1.919 . S
O215 C226 1.253 . S
O216 Zn210 1.941 . S
O216 C226 1.283 . S
O217 Zn210 1.965 . S
O217 C225 1.303 . S
O218 Zn211 1.938 . S
O218 C225 1.247 . S
O219 Zn211 1.906 . S
O219 C227 1.304 . S
O220 Zn208 1.924 . S
O220 C228 1.311 . S
O221 Zn212 1.977 . S
O221 C227 1.272 . S
O222 Zn212 1.910 . S
O222 C228 1.231 . S
C223 O207 1.225 . S
C223 O229 1.298 . S
C224 O213 1.226 . S
C224 O214 1.307 . S
C225 O217 1.303 . S
C225 O218 1.247 . S
C226 O215 1.253 . S
C226 O216 1.283 . S
C227 O219 1.304 . S
C227 O221 1.272 . S
C228 O220 1.311 . S
C228 O222 1.231 . S
O229 Zn211 1.953 . S
O229 C223 1.298 . S
O230 Zn231 1.953 . S
O230 C246 1.225 . S
Zn231 O230 1.953 . S
Zn231 O232 1.949 . S
Zn231 O238 1.919 . S
Zn231 O243 1.924 . S
O232 Zn231 1.949 . S
O232 Zn233 1.923 . S
O232 Zn234 1.950 . S
O232 Zn235 1.945 . S
Zn233 O232 1.923 . S
Zn233 O236 1.933 . S
Zn233 O239 1.941 . S
Zn233 O240 1.965 . S
Zn234 O232 1.950 . S
Zn234 O241 1.938 . S
Zn234 O242 1.906 . S
Zn234 O252 1.953 . S
Zn235 O232 1.945 . S
Zn235 O237 1.932 . S
Zn235 O244 1.977 . S
Zn235 O245 1.910 . S
O236 Zn233 1.933 . S
O236 C247 1.226 . S
O237 Zn235 1.932 . S
O237 C247 1.307 . S
O238 Zn231 1.919 . S
O238 C249 1.253 . S
O239 Zn233 1.941 . S
O239 C249 1.283 . S
O240 Zn233 1.965 . S
O240 C248 1.303 . S
O241 Zn234 1.938 . S
O241 C248 1.247 . S
O242 Zn234 1.906 . S
O242 C250 1.304 . S
O243 Zn231 1.924 . S
O243 C251 1.311 . S
O244 Zn235 1.977 . S
O244 C250 1.272 . S
O245 Zn235 1.910 . S
O245 C251 1.231 . S
C246 O230 1.225 . S
C246 O252 1.298 . S
C247 O236 1.226 . S
C247 O237 1.307 . S
C248 O240 1.303 . S
C248 O241 1.247 . S
C249 O238 1.253 . S
C249 O239 1.283 . S
C250 O242 1.304 . S
C250 O244 1.272 . S
C251 O243 1.311 . S
C251 O245 1.231 . S
O252 Zn234 1.953 . S
O252 C246 1.298 . S
O253 Zn254 1.953 . S
O253 C269 1.225 1_554 S
Zn254 O253 1.953 . S
Zn254 O255 1.949 . S
Zn254 O261 1.919 . S
Zn254 O266 1.924 . S
O255 Zn254 1.949 . S
O255 Zn256 1.923 . S
O255 Zn257 1.950 . S
O255 Zn258 1.945 . S
Zn256 O255 1.923 . S
Zn256 O259 1.933 . S
Zn256 O262 1.941 . S
Zn256 O263 1.965 . S
Zn257 O255 1.950 . S
Zn257 O264 1.938 1_554 S
Zn257 O265 1.906 . S
Zn257 O275 1.953 1_554 S
Zn258 O255 1.945 . S
Zn258 O260 1.932 . S
Zn258 O267 1.977 . S
Zn258 O268 1.910 . S
O259 Zn256 1.933 . S
O259 C270 1.226 . S
O260 Zn258 1.932 . S
O260 C270 1.307 . S
O261 Zn254 1.919 . S
O261 C272 1.253 . S
O262 Zn256 1.941 . S
O262 C272 1.283 . S
O263 Zn256 1.965 . S
O263 C271 1.303 1_554 S
O264 Zn257 1.938 1_556 S
O264 C271 1.247 . S
O265 Zn257 1.906 . S
O265 C273 1.304 . S
O266 Zn254 1.924 . S
O266 C274 1.311 . S
O267 Zn258 1.977 . S
O267 C273 1.272 . S
O268 Zn258 1.910 . S
O268 C274 1.231 . S
C269 O253 1.225 1_556 S
C269 O275 1.298 . S
C270 O259 1.226 . S
C270 O260 1.307 . S
C271 O263 1.303 1_556 S
C271 O264 1.247 . S
C272 O261 1.253 . S
C272 O262 1.283 . S
C273 O265 1.304 . S
C273 O267 1.272 . S
C274 O266 1.311 . S
C274 O268 1.231 . S
O275 Zn257 1.953 1_556 S
O275 C269 1.298 . S
H276 C288 0.930 . S
H277 C290 0.930 . S
H278 C291 0.930 . S
H279 C295 0.959 . S
H280 C295 0.959 . S
H281 C295 0.961 . S
H282 C296 0.960 . S
H283 C296 0.961 . S
H284 C296 0.959 . S
H285 C299 0.929 . S
H286 C300 0.931 . S
H287 C302 0.930 . S
C288 H276 0.930 . S
C288 C289 1.399 . S
C288 C293 1.399 . S
C289 C288 1.399 . S
C289 C290 1.376 . S
C290 H277 0.930 . S
C290 C289 1.376 . S
C290 C291 1.388 . S
C291 H278 0.930 . S
C291 C290 1.388 . S
C291 C292 1.390 . S
C292 C291 1.390 . S
C292 C293 1.394 . S
C292 C298 1.465 . S
C293 C288 1.399 . S
C293 C292 1.394 . S
C293 C294 1.516 . S
C294 C293 1.516 . S
C294 C295 1.502 . S
C294 C296 1.561 . S
C294 C297 1.526 . S
C295 H279 0.959 . S
C295 H280 0.959 . S
C295 H281 0.961 . S
C295 C294 1.502 . S
C296 H282 0.960 . S
C296 H283 0.961 . S
C296 H284 0.959 . S
C296 C294 1.561 . S
C297 C294 1.526 . S
C297 C298 1.396 . S
C297 C302 1.390 . S
C298 C292 1.465 . S
C298 C297 1.396 . S
C298 C299 1.399 . S
C299 H285 0.929 . S
C299 C298 1.399 . S
C299 C300 1.385 . S
C300 H286 0.931 . S
C300 C299 1.385 . S
C300 C301 1.389 . S
C301 C300 1.389 . S
C301 C302 1.387 . S
C302 H287 0.930 . S
C302 C297 1.390 . S
C302 C301 1.387 . S
H303 C315 0.930 . S
H304 C317 0.930 . S
H305 C318 0.930 . S
H306 C322 0.959 . S
H307 C322 0.959 . S
H308 C322 0.961 . S
H309 C323 0.960 . S
H310 C323 0.961 . S
H311 C323 0.959 . S
H312 C326 0.929 . S
H313 C327 0.931 . S
H314 C329 0.930 . S
C315 H303 0.930 . S
C315 C316 1.399 . S
C315 C320 1.399 . S
C316 C315 1.399 . S
C316 C317 1.376 . S
C317 H304 0.930 . S
C317 C316 1.376 . S
C317 C318 1.388 . S
C318 H305 0.930 . S
C318 C317 1.388 . S
C318 C319 1.390 . S
C319 C318 1.390 . S
C319 C320 1.394 . S
C319 C325 1.465 . S
C320 C315 1.399 . S
C320 C319 1.394 . S
C320 C321 1.516 . S
C321 C320 1.516 . S
C321 C322 1.502 . S
C321 C323 1.561 . S
C321 C324 1.526 . S
C322 H306 0.959 . S
C322 H307 0.959 . S
C322 H308 0.961 . S
C322 C321 1.502 . S
C323 H309 0.960 . S
C323 H310 0.961 . S
C323 H311 0.959 . S
C323 C321 1.561 . S
C324 C321 1.526 . S
C324 C325 1.396 . S
C324 C329 1.390 . S
C325 C319 1.465 . S
C325 C324 1.396 . S
C325 C326 1.399 . S
C326 H312 0.929 . S
C326 C325 1.399 . S
C326 C327 1.385 . S
C327 H313 0.931 . S
C327 C326 1.385 . S
C327 C328 1.389 . S
C328 C327 1.389 . S
C328 C329 1.387 . S
C329 H314 0.930 . S
C329 C324 1.390 . S
C329 C328 1.387 . S
H330 C342 0.930 . S
H331 C344 0.930 . S
H332 C345 0.930 . S
H333 C349 0.959 . S
H334 C349 0.959 . S
H335 C349 0.961 . S
H336 C350 0.960 . S
H337 C350 0.961 . S
H338 C350 0.959 . S
H339 C353 0.929 . S
H340 C354 0.931 . S
H341 C356 0.930 . S
C342 H330 0.930 . S
C342 C343 1.399 . S
C342 C347 1.399 . S
C343 C342 1.399 . S
C343 C344 1.376 . S
C344 H331 0.930 . S
C344 C343 1.376 . S
C344 C345 1.388 . S
C345 H332 0.930 . S
C345 C344 1.388 . S
C345 C346 1.390 . S
C346 C345 1.390 . S
C346 C347 1.394 . S
C346 C352 1.465 . S
C347 C342 1.399 . S
C347 C346 1.394 . S
C347 C348 1.516 . S
C348 C347 1.516 . S
C348 C349 1.502 . S
C348 C350 1.561 . S
C348 C351 1.526 . S
C349 H333 0.959 . S
C349 H334 0.959 . S
C349 H335 0.961 . S
C349 C348 1.502 . S
C350 H336 0.960 . S
C350 H337 0.961 . S
C350 H338 0.959 . S
C350 C348 1.561 . S
C351 C348 1.526 . S
C351 C352 1.396 . S
C351 C356 1.390 . S
C352 C346 1.465 . S
C352 C351 1.396 . S
C352 C353 1.399 . S
C353 H339 0.929 . S
C353 C352 1.399 . S
C353 C354 1.385 . S
C354 H340 0.931 . S
C354 C353 1.385 . S
C354 C355 1.389 . S
C355 C354 1.389 . S
C355 C356 1.387 . S
C356 H341 0.930 . S
C356 C351 1.390 . S
C356 C355 1.387 . S
H357 C369 0.930 . S
H358 C371 0.930 . S
H359 C372 0.930 . S
H360 C376 0.959 . S
H361 C376 0.959 . S
H362 C376 0.961 . S
H363 C377 0.960 . S
H364 C377 0.961 . S
H365 C377 0.959 . S
H366 C380 0.929 . S
H367 C381 0.931 . S
H368 C383 0.930 . S
C369 H357 0.930 . S
C369 C370 1.399 . S
C369 C374 1.399 . S
C370 C369 1.399 . S
C370 C371 1.376 . S
C371 H358 0.930 . S
C371 C370 1.376 . S
C371 C372 1.388 . S
C372 H359 0.930 . S
C372 C371 1.388 . S
C372 C373 1.390 . S
C373 C372 1.390 . S
C373 C374 1.394 . S
C373 C379 1.465 . S
C374 C369 1.399 . S
C374 C373 1.394 . S
C374 C375 1.516 . S
C375 C374 1.516 . S
C375 C376 1.502 . S
C375 C377 1.561 . S
C375 C378 1.526 . S
C376 H360 0.959 . S
C376 H361 0.959 . S
C376 H362 0.961 . S
C376 C375 1.502 . S
C377 H363 0.960 . S
C377 H364 0.961 . S
C377 H365 0.959 . S
C377 C375 1.561 . S
C378 C375 1.526 . S
C378 C379 1.396 . S
C378 C383 1.390 . S
C379 C373 1.465 . S
C379 C378 1.396 . S
C379 C380 1.399 . S
C380 H366 0.929 . S
C380 C379 1.399 . S
C380 C381 1.385 . S
C381 H367 0.931 . S
C381 C380 1.385 . S
C381 C382 1.389 . S
C382 C381 1.389 . S
C382 C383 1.387 . S
C383 H368 0.930 . S
C383 C378 1.390 . S
C383 C382 1.387 . S
H384 C396 0.930 . S
H385 C398 0.930 . S
H386 C399 0.930 . S
H387 C403 0.959 . S
H388 C403 0.959 . S
H389 C403 0.961 . S
H390 C404 0.960 . S
H391 C404 0.961 . S
H392 C404 0.959 . S
H393 C407 0.929 . S
H394 C408 0.931 . S
H395 C410 0.930 . S
C396 H384 0.930 . S
C396 C397 1.399 . S
C396 C401 1.399 . S
C397 C396 1.399 . S
C397 C398 1.376 . S
C398 H385 0.930 . S
C398 C397 1.376 . S
C398 C399 1.388 . S
C399 H386 0.930 . S
C399 C398 1.388 . S
C399 C400 1.390 . S
C400 C399 1.390 . S
C400 C401 1.394 . S
C400 C406 1.465 . S
C401 C396 1.399 . S
C401 C400 1.394 . S
C401 C402 1.516 . S
C402 C401 1.516 . S
C402 C403 1.502 . S
C402 C404 1.561 . S
C402 C405 1.526 . S
C403 H387 0.959 . S
C403 H388 0.959 . S
C403 H389 0.961 . S
C403 C402 1.502 . S
C404 H390 0.960 . S
C404 H391 0.961 . S
C404 H392 0.959 . S
C404 C402 1.561 . S
C405 C402 1.526 . S
C405 C406 1.396 . S
C405 C410 1.390 . S
C406 C400 1.465 . S
C406 C405 1.396 . S
C406 C407 1.399 . S
C407 H393 0.929 . S
C407 C406 1.399 . S
C407 C408 1.385 . S
C408 H394 0.931 . S
C408 C407 1.385 . S
C408 C409 1.389 . S
C409 C408 1.389 . S
C409 C410 1.387 . S
C410 H395 0.930 . S
C410 C405 1.390 . S
C410 C409 1.387 . S
H411 C423 0.930 . S
H412 C425 0.930 . S
H413 C426 0.930 . S
H414 C430 0.959 . S
H415 C430 0.959 . S
H416 C430 0.961 . S
H417 C431 0.960 . S
H418 C431 0.961 . S
H419 C431 0.959 . S
H420 C434 0.929 . S
H421 C435 0.931 . S
H422 C437 0.930 . S
C423 H411 0.930 . S
C423 C424 1.399 . S
C423 C428 1.399 . S
C424 C423 1.399 . S
C424 C425 1.376 . S
C425 H412 0.930 . S
C425 C424 1.376 . S
C425 C426 1.388 . S
C426 H413 0.930 . S
C426 C425 1.388 . S
C426 C427 1.390 . S
C427 C426 1.390 . S
C427 C428 1.394 . S
C427 C433 1.465 . S
C428 C423 1.399 . S
C428 C427 1.394 . S
C428 C429 1.516 . S
C429 C428 1.516 . S
C429 C430 1.502 . S
C429 C431 1.561 . S
C429 C432 1.526 . S
C430 H414 0.959 . S
C430 H415 0.959 . S
C430 H416 0.961 . S
C430 C429 1.502 . S
C431 H417 0.960 . S
C431 H418 0.961 . S
C431 H419 0.959 . S
C431 C429 1.561 . S
C432 C429 1.526 . S
C432 C433 1.396 . S
C432 C437 1.390 . S
C433 C427 1.465 . S
C433 C432 1.396 . S
C433 C434 1.399 . S
C434 H420 0.929 . S
C434 C433 1.399 . S
C434 C435 1.385 . S
C435 H421 0.931 . S
C435 C434 1.385 . S
C435 C436 1.389 . S
C436 C435 1.389 . S
C436 C437 1.387 . S
C437 H422 0.930 . S
C437 C432 1.390 . S
C437 C436 1.387 . S
H438 C450 0.930 . S
H439 C452 0.930 . S
H440 C453 0.930 . S
H441 C457 0.959 . S
H442 C457 0.959 . S
H443 C457 0.961 . S
H444 C458 0.960 1_556 S
H445 C458 0.961 . S
H446 C458 0.959 . S
H447 C461 0.929 . S
H448 C462 0.931 . S
H449 C464 0.930 . S
C450 H438 0.930 . S
C450 C451 1.399 . S
C450 C455 1.399 . S
C451 C450 1.399 . S
C451 C452 1.376 . S
C452 H439 0.930 . S
C452 C451 1.376 . S
C452 C453 1.388 . S
C453 H440 0.930 . S
C453 C452 1.388 . S
C453 C454 1.390 . S
C454 C453 1.390 . S
C454 C455 1.394 . S
C454 C460 1.465 1_556 S
C455 C450 1.399 . S
C455 C454 1.394 . S
C455 C456 1.516 . S
C456 C455 1.516 . S
C456 C457 1.502 . S
C456 C458 1.561 1_556 S
C456 C459 1.526 1_556 S
C457 H441 0.959 . S
C457 H442 0.959 . S
C457 H443 0.961 . S
C457 C456 1.502 . S
C458 H444 0.960 1_554 S
C458 H445 0.961 . S
C458 H446 0.959 . S
C458 C456 1.561 1_554 S
C459 C456 1.526 1_554 S
C459 C460 1.396 . S
C459 C464 1.390 . S
C460 C454 1.465 1_554 S
C460 C459 1.396 . S
C460 C461 1.399 . S
C461 H447 0.929 . S
C461 C460 1.399 . S
C461 C462 1.385 . S
C462 H448 0.931 . S
C462 C461 1.385 . S
C462 C463 1.389 . S
C463 C462 1.389 . S
C463 C464 1.387 . S
C464 H449 0.930 . S
C464 C459 1.390 . S
C464 C463 1.387 . S
H465 C477 0.930 . S
H466 C479 0.930 . S
H467 C480 0.930 . S
H468 C484 0.959 . S
H469 C484 0.959 . S
H470 C484 0.961 . S
H471 C485 0.960 . S
H472 C485 0.961 . S
H473 C485 0.959 . S
H474 C488 0.929 . S
H475 C489 0.931 . S
H476 C491 0.930 . S
C477 H465 0.930 . S
C477 C478 1.399 . S
C477 C482 1.399 . S
C478 C477 1.399 . S
C478 C479 1.376 . S
C479 H466 0.930 . S
C479 C478 1.376 . S
C479 C480 1.388 . S
C480 H467 0.930 . S
C480 C479 1.388 . S
C480 C481 1.390 . S
C481 C480 1.390 . S
C481 C482 1.394 . S
C481 C487 1.465 . S
C482 C477 1.399 . S
C482 C481 1.394 . S
C482 C483 1.516 . S
C483 C482 1.516 . S
C483 C484 1.502 . S
C483 C485 1.561 . S
C483 C486 1.526 . S
C484 H468 0.959 . S
C484 H469 0.959 . S
C484 H470 0.961 . S
C484 C483 1.502 . S
C485 H471 0.960 . S
C485 H472 0.961 . S
C485 H473 0.959 . S
C485 C483 1.561 . S
C486 C483 1.526 . S
C486 C487 1.396 . S
C486 C491 1.390 . S
C487 C481 1.465 . S
C487 C486 1.396 . S
C487 C488 1.399 . S
C488 H474 0.929 . S
C488 C487 1.399 . S
C488 C489 1.385 . S
C489 H475 0.931 . S
C489 C488 1.385 . S
C489 C490 1.389 . S
C490 C489 1.389 . S
C490 C491 1.387 . S
C491 H476 0.930 . S
C491 C486 1.390 . S
C491 C490 1.387 . S
H492 C504 0.930 . S
H493 C506 0.930 . S
H494 C507 0.930 . S
H495 C511 0.959 . S
H496 C511 0.959 . S
H497 C511 0.961 . S
H498 C512 0.960 . S
H499 C512 0.961 . S
H500 C512 0.959 . S
H501 C515 0.929 . S
H502 C516 0.931 . S
H503 C518 0.930 . S
C504 H492 0.930 . S
C504 C505 1.399 . S
C504 C509 1.399 . S
C505 C504 1.399 . S
C505 C506 1.376 . S
C506 H493 0.930 . S
C506 C505 1.376 . S
C506 C507 1.388 . S
C507 H494 0.930 . S
C507 C506 1.388 . S
C507 C508 1.390 . S
C508 C507 1.390 . S
C508 C509 1.394 . S
C508 C514 1.465 . S
C509 C504 1.399 . S
C509 C508 1.394 . S
C509 C510 1.516 . S
C510 C509 1.516 . S
C510 C511 1.502 . S
C510 C512 1.561 . S
C510 C513 1.526 . S
C511 H495 0.959 . S
C511 H496 0.959 . S
C511 H497 0.961 . S
C511 C510 1.502 . S
C512 H498 0.960 . S
C512 H499 0.961 . S
C512 H500 0.959 . S
C512 C510 1.561 . S
C513 C510 1.526 . S
C513 C514 1.396 . S
C513 C518 1.390 . S
C514 C508 1.465 . S
C514 C513 1.396 . S
C514 C515 1.399 . S
C515 H501 0.929 . S
C515 C514 1.399 . S
C515 C516 1.385 . S
C516 H502 0.931 . S
C516 C515 1.385 . S
C516 C517 1.389 . S
C517 C516 1.389 . S
C517 C518 1.387 . S
C518 H503 0.930 . S
C518 C513 1.390 . S
C518 C517 1.387 . S
H519 C531 0.930 . S
H520 C533 0.930 . S
H521 C534 0.930 . S
H522 C538 0.959 . S
H523 C538 0.959 . S
H524 C538 0.961 . S
H525 C539 0.960 1_556 S
H526 C539 0.961 . S
H527 C539 0.959 1_556 S
H528 C542 0.929 1_556 S
H529 C543 0.931 . S
H530 C545 0.930 . S
C531 H519 0.930 . S
C531 C532 1.399 . S
C531 C536 1.399 . S
C532 C531 1.399 . S
C532 C533 1.376 . S
C533 H520 0.930 . S
C533 C532 1.376 . S
C533 C534 1.388 . S
C534 H521 0.930 . S
C534 C533 1.388 . S
C534 C535 1.390 . S
C535 C534 1.390 . S
C535 C536 1.394 . S
C535 C541 1.465 1_556 S
C536 C531 1.399 . S
C536 C535 1.394 . S
C536 C537 1.516 1_556 S
C537 C536 1.516 1_554 S
C537 C538 1.502 . S
C537 C539 1.561 . S
C537 C540 1.526 . S
C538 H522 0.959 . S
C538 H523 0.959 . S
C538 H524 0.961 . S
C538 C537 1.502 . S
C539 H525 0.960 1_554 S
C539 H526 0.961 . S
C539 H527 0.959 1_554 S
C539 C537 1.561 . S
C540 C537 1.526 . S
C540 C541 1.396 . S
C540 C545 1.390 . S
C541 C535 1.465 1_554 S
C541 C540 1.396 . S
C541 C542 1.399 . S
C542 H528 0.929 1_554 S
C542 C541 1.399 . S
C542 C543 1.385 . S
C543 H529 0.931 . S
C543 C542 1.385 . S
C543 C544 1.389 . S
C544 C543 1.389 . S
C544 C545 1.387 . S
C545 H530 0.930 . S
C545 C540 1.390 . S
C545 C544 1.387 . S
H546 C558 0.930 . S
H547 C560 0.930 . S
H548 C561 0.930 . S
H549 C565 0.959 . S
H550 C565 0.959 . S
H551 C565 0.961 . S
H552 C566 0.960 . S
H553 C566 0.961 . S
H554 C566 0.959 . S
H555 C569 0.929 . S
H556 C570 0.931 . S
H557 C572 0.930 . S
C558 H546 0.930 . S
C558 C559 1.399 . S
C558 C563 1.399 . S
C559 C558 1.399 . S
C559 C560 1.376 . S
C560 H547 0.930 . S
C560 C559 1.376 . S
C560 C561 1.388 . S
C561 H548 0.930 . S
C561 C560 1.388 . S
C561 C562 1.390 . S
C562 C561 1.390 . S
C562 C563 1.394 . S
C562 C568 1.465 . S
C563 C558 1.399 . S
C563 C562 1.394 . S
C563 C564 1.516 . S
C564 C563 1.516 . S
C564 C565 1.502 . S
C564 C566 1.561 . S
C564 C567 1.526 . S
C565 H549 0.959 . S
C565 H550 0.959 . S
C565 H551 0.961 . S
C565 C564 1.502 . S
C566 H552 0.960 . S
C566 H553 0.961 . S
C566 H554 0.959 . S
C566 C564 1.561 . S
C567 C564 1.526 . S
C567 C568 1.396 . S
C567 C572 1.390 . S
C568 C562 1.465 . S
C568 C567 1.396 . S
C568 C569 1.399 . S
C569 H555 0.929 . S
C569 C568 1.399 . S
C569 C570 1.385 . S
C570 H556 0.931 . S
C570 C569 1.385 . S
C570 C571 1.389 . S
C571 C570 1.389 . S
C571 C572 1.387 . S
C572 H557 0.930 . S
C572 C567 1.390 . S
C572 C571 1.387 . S
H573 C585 0.930 . S
H574 C587 0.930 . S
H575 C588 0.930 . S
H576 C592 0.959 . S
H577 C592 0.959 . S
H578 C592 0.961 . S
H579 C593 0.960 . S
H580 C593 0.961 . S
H581 C593 0.959 . S
H582 C596 0.929 . S
H583 C597 0.931 . S
H584 C599 0.930 . S
C585 H573 0.930 . S
C585 C586 1.399 . S
C585 C590 1.399 . S
C586 C585 1.399 . S
C586 C587 1.376 . S
C587 H574 0.930 . S
C587 C586 1.376 . S
C587 C588 1.388 . S
C588 H575 0.930 . S
C588 C587 1.388 . S
C588 C589 1.390 . S
C589 C588 1.390 . S
C589 C590 1.394 . S
C589 C595 1.465 . S
C590 C585 1.399 . S
C590 C589 1.394 . S
C590 C591 1.516 . S
C591 C590 1.516 . S
C591 C592 1.502 . S
C591 C593 1.561 . S
C591 C594 1.526 . S
C592 H576 0.959 . S
C592 H577 0.959 . S
C592 H578 0.961 . S
C592 C591 1.502 . S
C593 H579 0.960 . S
C593 H580 0.961 . S
C593 H581 0.959 . S
C593 C591 1.561 . S
C594 C591 1.526 . S
C594 C595 1.396 . S
C594 C599 1.390 . S
C595 C589 1.465 . S
C595 C594 1.396 . S
C595 C596 1.399 . S
C596 H582 0.929 . S
C596 C595 1.399 . S
C596 C597 1.385 . S
C597 H583 0.931 . S
C597 C596 1.385 . S
C597 C598 1.389 . S
C598 C597 1.389 . S
C598 C599 1.387 . S
C599 H584 0.930 . S
C599 C594 1.390 . S
C599 C598 1.387 . S
H600 C612 0.936 . S
H601 C614 0.930 . S
H602 C615 0.930 1_554 S
H603 C619 0.959 . S
H604 C619 0.959 . S
H605 C619 0.961 . S
H606 C620 0.960 . S
H607 C620 0.961 . S
H608 C620 0.959 . S
H609 C623 0.929 . S
H610 C624 0.931 . S
H611 C626 0.930 . S
C612 H600 0.936 . S
C612 C613 1.399 . S
C612 C617 1.399 . S
C613 C612 1.399 . S
C613 C614 1.376 . S
C614 H601 0.930 . S
C614 C613 1.376 . S
C614 C615 1.388 . S
C615 H602 0.930 1_556 S
C615 C614 1.388 . S
C615 C616 1.390 . S
C616 C615 1.390 . S
C616 C617 1.394 . S
C616 C622 1.465 1_556 S
C617 C612 1.399 . S
C617 C616 1.394 . S
C617 C618 1.516 1_565 S
C618 C617 1.516 1_545 S
C618 C619 1.502 . S
C618 C620 1.561 . S
C618 C621 1.526 1_556 S
C619 H603 0.959 . S
C619 H604 0.959 . S
C619 H605 0.961 . S
C619 C618 1.502 . S
C620 H606 0.960 . S
C620 H607 0.961 . S
C620 H608 0.959 . S
C620 C618 1.561 . S
C621 C618 1.526 1_554 S
C621 C622 1.396 1_545 S
C621 C626 1.390 . S
C622 C616 1.465 1_554 S
C622 C621 1.396 1_565 S
C622 C623 1.399 . S
C623 H609 0.929 . S
C623 C622 1.399 . S
C623 C624 1.385 1_565 S
C624 H610 0.931 . S
C624 C623 1.385 1_545 S
C624 C625 1.389 . S
C625 C624 1.389 . S
C625 C626 1.387 . S
C626 H611 0.930 . S
C626 C621 1.390 . S
C626 C625 1.387 . S
H627 C639 0.930 . S
H628 C641 0.930 . S
H629 C642 0.930 . S
H630 C646 0.959 . S
H631 C646 0.959 . S
H632 C646 0.961 . S
H633 C647 0.960 . S
H634 C647 0.961 . S
H635 C647 0.959 . S
H636 C650 0.929 . S
H637 C651 0.931 . S
H638 C653 0.930 . S
C639 H627 0.930 . S
C639 C640 1.399 . S
C639 C644 1.399 . S
C640 C639 1.399 . S
C640 C641 1.376 . S
C641 H628 0.930 . S
C641 C640 1.376 . S
C641 C642 1.388 . S
C642 H629 0.930 . S
C642 C641 1.388 . S
C642 C643 1.390 . S
C643 C642 1.390 . S
C643 C644 1.394 . S
C643 C649 1.465 . S
C644 C639 1.399 . S
C644 C643 1.394 . S
C644 C645 1.516 . S
C645 C644 1.516 . S
C645 C646 1.502 . S
C645 C647 1.561 . S
C645 C648 1.526 . S
C646 H630 0.959 . S
C646 H631 0.959 . S
C646 H632 0.961 . S
C646 C645 1.502 . S
C647 H633 0.960 . S
C647 H634 0.961 . S
C647 H635 0.959 . S
C647 C645 1.561 . S
C648 C645 1.526 . S
C648 C649 1.396 . S
C648 C653 1.390 . S
C649 C643 1.465 . S
C649 C648 1.396 . S
C649 C650 1.399 . S
C650 H636 0.929 . S
C650 C649 1.399 . S
C650 C651 1.385 . S
C651 H637 0.931 . S
C651 C650 1.385 . S
C651 C652 1.389 . S
C652 C651 1.389 . S
C652 C653 1.387 . S
C653 H638 0.930 . S
C653 C648 1.390 . S
C653 C652 1.387 . S
H654 C666 0.930 . S
H655 C668 0.930 . S
H656 C669 0.930 . S
H657 C673 0.959 . S
H658 C673 0.959 . S
H659 C673 0.961 . S
H660 C674 0.960 . S
H661 C674 0.961 . S
H662 C674 0.959 . S
H663 C677 0.929 . S
H664 C678 0.931 . S
H665 C680 0.930 . S
C666 H654 0.930 . S
C666 C667 1.399 . S
C666 C671 1.399 . S
C667 C666 1.399 . S
C667 C668 1.376 . S
C668 H655 0.930 . S
C668 C667 1.376 . S
C668 C669 1.388 . S
C669 H656 0.930 . S
C669 C668 1.388 . S
C669 C670 1.390 . S
C670 C669 1.390 . S
C670 C671 1.394 . S
C670 C676 1.465 . S
C671 C666 1.399 . S
C671 C670 1.394 . S
C671 C672 1.516 1_455 S
C672 C671 1.516 1_655 S
C672 C673 1.502 . S
C672 C674 1.561 . S
C672 C675 1.526 . S
C673 H657 0.959 . S
C673 H658 0.959 . S
C673 H659 0.961 . S
C673 C672 1.502 . S
C674 H660 0.960 . S
C674 H661 0.961 . S
C674 H662 0.959 . S
C674 C672 1.561 . S
C675 C672 1.526 . S
C675 C676 1.396 1_655 S
C675 C680 1.390 . S
C676 C670 1.465 . S
C676 C675 1.396 1_455 S
C676 C677 1.399 . S
C677 H663 0.929 . S
C677 C676 1.399 . S
C677 C678 1.385 1_455 S
C678 H664 0.931 . S
C678 C677 1.385 1_655 S
C678 C679 1.389 . S
C679 C678 1.389 . S
C679 C680 1.387 . S
C680 H665 0.930 . S
C680 C675 1.390 . S
C680 C679 1.387 . S
H681 C693 0.930 . S
H682 C695 0.930 . S
H683 C696 0.930 . S
H684 C700 0.959 . S
H685 C700 0.959 . S
H686 C700 0.961 . S
H687 C701 0.960 . S
H688 C701 0.961 . S
H689 C701 0.959 . S
H690 C704 0.929 1_554 S
H691 C705 0.931 . S
H692 C707 0.930 . S
C693 H681 0.930 . S
C693 C694 1.399 . S
C693 C698 1.399 . S
C694 C693 1.399 . S
C694 C695 1.376 . S
C695 H682 0.930 . S
C695 C694 1.376 . S
C695 C696 1.388 1_565 S
C696 H683 0.930 . S
C696 C695 1.388 1_545 S
C696 C697 1.390 . S
C697 C696 1.390 . S
C697 C698 1.394 1_545 S
C697 C703 1.465 1_554 S
C698 C693 1.399 . S
C698 C697 1.394 1_565 S
C698 C699 1.516 1_554 S
C699 C698 1.516 1_556 S
C699 C700 1.502 . S
C699 C701 1.561 . S
C699 C702 1.526 1_565 S
C700 H684 0.959 . S
C700 H685 0.959 . S
C700 H686 0.961 . S
C700 C699 1.502 . S
C701 H687 0.960 . S
C701 H688 0.961 . S
C701 H689 0.959 . S
C701 C699 1.561 . S
C702 C699 1.526 1_545 S
C702 C703 1.396 . S
C702 C707 1.390 . S
C703 C697 1.465 1_556 S
C703 C702 1.396 . S
C703 C704 1.399 . S
C704 H690 0.929 1_556 S
C704 C703 1.399 . S
C704 C705 1.385 . S
C705 H691 0.931 . S
C705 C704 1.385 . S
C705 C706 1.389 . S
C706 C705 1.389 . S
C706 C707 1.387 . S
C707 H692 0.930 . S
C707 C702 1.390 . S
C707 C706 1.387 . S
H708 C720 0.930 . S
H709 C722 0.930 . S
H710 C723 0.930 . S
H711 C727 0.959 . S
H712 C727 0.959 . S
H713 C727 0.961 . S
H714 C728 0.960 . S
H715 C728 0.961 . S
H716 C728 0.959 . S
H717 C731 0.929 . S
H718 C732 0.931 . S
H719 C734 0.930 . S
C720 H708 0.930 . S
C720 C721 1.399 . S
C720 C725 1.399 . S
C721 C720 1.399 . S
C721 C722 1.376 . S
C722 H709 0.930 . S
C722 C721 1.376 . S
C722 C723 1.388 . S
C723 H710 0.930 . S
C723 C722 1.388 . S
C723 C724 1.390 . S
C724 C723 1.390 . S
C724 C725 1.394 . S
C724 C730 1.465 . S
C725 C720 1.399 . S
C725 C724 1.394 . S
C725 C726 1.516 . S
C726 C725 1.516 . S
C726 C727 1.502 . S
C726 C728 1.561 . S
C726 C729 1.526 . S
C727 H711 0.959 . S
C727 H712 0.959 . S
C727 H713 0.961 . S
C727 C726 1.502 . S
C728 H714 0.960 . S
C728 H715 0.961 . S
C728 H716 0.959 . S
C728 C726 1.561 . S
C729 C726 1.526 . S
C729 C730 1.396 . S
C729 C734 1.390 . S
C730 C724 1.465 . S
C730 C729 1.396 . S
C730 C731 1.399 . S
C731 H717 0.929 . S
C731 C730 1.399 . S
C731 C732 1.385 . S
C732 H718 0.931 . S
C732 C731 1.385 . S
C732 C733 1.389 . S
C733 C732 1.389 . S
C733 C734 1.387 . S
C734 H719 0.930 . S
C734 C729 1.390 . S
C734 C733 1.387 . S
H735 C747 0.930 . S
H736 C749 0.930 . S
H737 C750 0.930 . S
H738 C754 0.959 . S
H739 C754 0.959 . S
H740 C754 0.961 . S
H741 C755 0.960 . S
H742 C755 0.961 . S
H743 C755 0.959 1_455 S
H744 C758 0.929 . S
H745 C759 0.931 . S
H746 C761 0.930 . S
C747 H735 0.930 . S
C747 C748 1.399 . S
C747 C752 1.399 . S
C748 C747 1.399 . S
C748 C749 1.376 . S
C749 H736 0.930 . S
C749 C748 1.376 . S
C749 C750 1.388 . S
C750 H737 0.930 . S
C750 C749 1.388 . S
C750 C751 1.390 . S
C751 C750 1.390 . S
C751 C752 1.394 . S
C751 C757 1.465 . S
C752 C747 1.399 . S
C752 C751 1.394 . S
C752 C753 1.516 1_455 S
C753 C752 1.516 1_655 S
C753 C754 1.502 . S
C753 C755 1.561 . S
C753 C756 1.526 . S
C754 H738 0.959 . S
C754 H739 0.959 . S
C754 H740 0.961 . S
C754 C753 1.502 . S
C755 H741 0.960 . S
C755 H742 0.961 . S
C755 H743 0.959 1_655 S
C755 C753 1.561 . S
C756 C753 1.526 . S
C756 C757 1.396 1_655 S
C756 C761 1.390 . S
C757 C751 1.465 . S
C757 C756 1.396 1_455 S
C757 C758 1.399 . S
C758 H744 0.929 . S
C758 C757 1.399 . S
C758 C759 1.385 1_455 S
C759 H745 0.931 . S
C759 C758 1.385 1_655 S
C759 C760 1.389 . S
C760 C759 1.389 . S
C760 C761 1.387 . S
C761 H746 0.930 . S
C761 C756 1.390 . S
C761 C760 1.387 . S
H762 C774 0.930 . S
H763 C776 0.930 . S
H764 C777 0.930 . S
H765 C781 0.959 . S
H766 C781 0.959 1_565 S
H767 C781 0.961 . S
H768 C782 0.960 . S
H769 C782 0.961 . S
H770 C782 0.959 . S
H771 C785 0.929 . S
H772 C786 0.931 . S
H773 C788 0.930 . S
C774 H762 0.930 . S
C774 C775 1.399 . S
C774 C779 1.399 . S
C775 C774 1.399 . S
C775 C776 1.376 . S
C776 H763 0.930 . S
C776 C775 1.376 . S
C776 C777 1.388 . S
C777 H764 0.930 . S
C777 C776 1.388 . S
C777 C778 1.390 . S
C778 C777 1.390 . S
C778 C779 1.394 . S
C778 C784 1.465 1_545 S
C779 C774 1.399 . S
C779 C778 1.394 . S
C779 C780 1.516 1_545 S
C780 C779 1.516 1_565 S
C780 C781 1.502 1_565 S
C780 C782 1.561 . S
C780 C783 1.526 . S
C781 H765 0.959 . S
C781 H766 0.959 1_545 S
C781 H767 0.961 . S
C781 C780 1.502 1_545 S
C782 H768 0.960 . S
C782 H769 0.961 . S
C782 H770 0.959 . S
C782 C780 1.561 . S
C783 C780 1.526 . S
C783 C784 1.396 . S
C783 C788 1.390 . S
C784 C778 1.465 1_565 S
C784 C783 1.396 . S
C784 C785 1.399 . S
C785 H771 0.929 . S
C785 C784 1.399 . S
C785 C786 1.385 . S
C786 H772 0.931 . S
C786 C785 1.385 . S
C786 C787 1.389 . S
C787 C786 1.389 . S
C787 C788 1.387 . S
C788 H773 0.930 . S
C788 C783 1.390 . S
C788 C787 1.387 . S
H789 C801 0.930 . S
H790 C803 0.930 . S
H791 C804 0.930 . S
H792 C808 0.959 . S
H793 C808 0.959 . S
H794 C808 0.961 . S
H795 C809 0.960 . S
H796 C809 0.961 . S
H797 C809 0.959 . S
H798 C812 0.929 . S
H799 C813 0.931 . S
H800 C815 0.930 . S
C801 H789 0.930 . S
C801 C802 1.399 . S
C801 C806 1.399 . S
C802 C801 1.399 . S
C802 C803 1.376 . S
C803 H790 0.930 . S
C803 C802 1.376 . S
C803 C804 1.388 . S
C804 H791 0.930 . S
C804 C803 1.388 . S
C804 C805 1.390 . S
C805 C804 1.390 . S
C805 C806 1.394 . S
C805 C811 1.465 . S
C806 C801 1.399 . S
C806 C805 1.394 . S
C806 C807 1.516 . S
C807 C806 1.516 . S
C807 C808 1.502 . S
C807 C809 1.561 . S
C807 C810 1.526 . S
C808 H792 0.959 . S
C808 H793 0.959 . S
C808 H794 0.961 . S
C808 C807 1.502 . S
C809 H795 0.960 . S
C809 H796 0.961 . S
C809 H797 0.959 . S
C809 C807 1.561 . S
C810 C807 1.526 . S
C810 C811 1.396 . S
C810 C815 1.390 . S
C811 C805 1.465 . S
C811 C810 1.396 . S
C811 C812 1.399 . S
C812 H798 0.929 . S
C812 C811 1.399 . S
C812 C813 1.385 . S
C813 H799 0.931 . S
C813 C812 1.385 . S
C813 C814 1.389 . S
C814 C813 1.389 . S
C814 C815 1.387 . S
C815 H800 0.930 . S
C815 C810 1.390 . S
C815 C814 1.387 . S
H816 C828 0.930 . S
H817 C830 0.930 . S
H818 C831 0.930 . S
H819 C835 0.959 . S
H820 C835 0.959 1_554 S
H821 C835 0.961 1_554 S
H822 C836 0.960 1_655 S
H823 C836 0.961 . S
H824 C836 0.959 1_556 S
H825 C839 0.929 . S
H826 C840 0.931 . S
H827 C842 0.930 . S
C828 H816 0.930 . S
C828 C829 1.399 . S
C828 C833 1.399 . S
C829 C828 1.399 . S
C829 C830 1.376 . S
C830 H817 0.930 . S
C830 C829 1.376 . S
C830 C831 1.388 . S
C831 H818 0.930 . S
C831 C830 1.388 . S
C831 C832 1.390 . S
C832 C831 1.390 . S
C832 C833 1.394 . S
C832 C838 1.465 1_655 S
C833 C828 1.399 . S
C833 C832 1.394 . S
C833 C834 1.516 . S
C834 C833 1.516 . S
C834 C835 1.502 . S
C834 C836 1.561 1_656 S
C834 C837 1.526 1_655 S
C835 H819 0.959 . S
C835 H820 0.959 1_556 S
C835 H821 0.961 1_556 S
C835 C834 1.502 . S
C836 H822 0.960 1_455 S
C836 H823 0.961 . S
C836 H824 0.959 1_554 S
C836 C834 1.561 1_454 S
C837 C834 1.526 1_455 S
C837 C838 1.396 . S
C837 C842 1.390 . S
C838 C832 1.465 1_455 S
C838 C837 1.396 . S
C838 C839 1.399 . S
C839 H825 0.929 . S
C839 C838 1.399 . S
C839 C840 1.385 . S
C840 H826 0.931 . S
C840 C839 1.385 . S
C840 C841 1.389 . S
C841 C840 1.389 . S
C841 C842 1.387 . S
C842 H827 0.930 . S
C842 C837 1.390 . S
C842 C841 1.387 . S
H843 C855 0.930 . S
H844 C857 0.930 . S
H845 C858 0.930 . S
H846 C862 0.959 . S
H847 C862 0.959 . S
H848 C862 0.961 . S
H849 C863 0.960 . S
H850 C863 0.961 1_655 S
H851 C863 0.959 . S
H852 C866 0.929 . S
H853 C867 0.931 . S
H854 C869 0.930 . S
C855 H843 0.930 . S
C855 C856 1.399 . S
C855 C860 1.399 . S
C856 C855 1.399 . S
C856 C857 1.376 . S
C857 H844 0.930 . S
C857 C856 1.376 . S
C857 C858 1.388 . S
C858 H845 0.930 . S
C858 C857 1.388 . S
C858 C859 1.390 . S
C859 C858 1.390 . S
C859 C860 1.394 . S
C859 C865 1.465 1_455 S
C860 C855 1.399 . S
C860 C859 1.394 . S
C860 C861 1.516 1_455 S
C861 C860 1.516 1_655 S
C861 C862 1.502 . S
C861 C863 1.561 1_655 S
C861 C864 1.526 . S
C862 H846 0.959 . S
C862 H847 0.959 . S
C862 H848 0.961 . S
C862 C861 1.502 . S
C863 H849 0.960 . S
C863 H850 0.961 1_455 S
C863 H851 0.959 . S
C863 C861 1.561 1_455 S
C864 C861 1.526 . S
C864 C865 1.396 . S
C864 C869 1.390 . S
C865 C859 1.465 1_655 S
C865 C864 1.396 . S
C865 C866 1.399 . S
C866 H852 0.929 . S
C866 C865 1.399 . S
C866 C867 1.385 . S
C867 H853 0.931 . S
C867 C866 1.385 . S
C867 C868 1.389 . S
C868 C867 1.389 . S
C868 C869 1.387 . S
C869 H854 0.930 . S
C869 C864 1.390 . S
C869 C868 1.387 . S
H870 C882 0.930 . S
H871 C884 0.930 . S
H872 C885 0.930 . S
H873 C889 0.959 . S
H874 C889 0.959 . S
H875 C889 0.961 . S
H876 C890 0.960 . S
H877 C890 0.961 . S
H878 C890 0.959 . S
H879 C893 0.929 . S
H880 C894 0.931 . S
H881 C896 0.930 . S
C882 H870 0.930 . S
C882 C883 1.399 . S
C882 C887 1.399 . S
C883 C882 1.399 . S
C883 C884 1.376 . S
C884 H871 0.930 . S
C884 C883 1.376 . S
C884 C885 1.388 . S
C885 H872 0.930 . S
C885 C884 1.388 . S
C885 C886 1.390 . S
C886 C885 1.390 . S
C886 C887 1.394 . S
C886 C892 1.465 1_565 S
C887 C882 1.399 . S
C887 C886 1.394 . S
C887 C888 1.509 1_565 S
C888 C887 1.509 1_545 S
C888 C889 1.522 . S
C888 C890 1.541 1_545 S
C888 C891 1.531 . S
C889 H873 0.959 . S
C889 H874 0.959 . S
C889 H875 0.961 . S
C889 C888 1.522 . S
C890 H876 0.960 . S
C890 H877 0.961 . S
C890 H878 0.959 . S
C890 C888 1.541 1_565 S
C891 C888 1.531 . S
C891 C892 1.396 . S
C891 C896 1.390 . S
C892 C886 1.465 1_545 S
C892 C891 1.396 . S
C892 C893 1.399 . S
C893 H879 0.929 . S
C893 C892 1.399 . S
C893 C894 1.385 . S
C894 H880 0.931 . S
C894 C893 1.385 . S
C894 C895 1.389 . S
C895 C894 1.389 . S
C895 C896 1.387 . S
C896 H881 0.930 . S
C896 C891 1.390 . S
C896 C895 1.387 . S
H897 C909 0.930 . S
H898 C911 0.930 . S
H899 C912 0.930 1_556 S
H900 C916 0.959 . S
H901 C916 0.959 . S
H902 C916 0.961 . S
H903 C917 0.960 . S
H904 C917 0.961 . S
H905 C917 0.959 . S
H906 C920 0.929 1_556 S
H907 C921 0.931 . S
H908 C923 0.930 . S
C909 H897 0.930 . S
C909 C910 1.399 . S
C909 C914 1.399 . S
C910 C909 1.399 . S
C910 C911 1.376 . S
C911 H898 0.930 . S
C911 C910 1.376 . S
C911 C912 1.388 . S
C912 H899 0.930 1_554 S
C912 C911 1.388 . S
C912 C913 1.390 . S
C913 C912 1.390 . S
C913 C914 1.394 . S
C913 C919 1.465 . S
C914 C909 1.399 . S
C914 C913 1.394 . S
C914 C915 1.516 . S
C915 C914 1.516 . S
C915 C916 1.502 . S
C915 C917 1.561 . S
C915 C918 1.526 . S
C916 H900 0.959 . S
C916 H901 0.959 . S
C916 H902 0.961 . S
C916 C915 1.502 . S
C917 H903 0.960 . S
C917 H904 0.961 . S
C917 H905 0.959 . S
C917 C915 1.561 . S
C918 C915 1.526 . S
C918 C919 1.396 . S
C918 C923 1.390 . S
C919 C913 1.465 . S
C919 C918 1.396 . S
C919 C920 1.399 . S
C920 H906 0.929 1_554 S
C920 C919 1.399 . S
C920 C921 1.385 . S
C921 H907 0.931 . S
C921 C920 1.385 . S
C921 C922 1.389 . S
C922 C921 1.389 . S
C922 C923 1.387 . S
C923 H908 0.930 . S
C923 C918 1.390 . S
C923 C922 1.387 . S
H924 C936 0.930 . S
H925 C938 0.930 . S
H926 C939 0.930 . S
H927 C943 0.959 . S
H928 C943 0.959 . S
H929 C943 0.961 . S
H930 C944 0.960 . S
H931 C944 0.961 . S
H932 C944 0.959 . S
H933 C947 0.929 . S
H934 C948 0.931 . S
H935 C950 0.930 . S
C936 H924 0.930 . S
C936 C937 1.399 . S
C936 C941 1.399 . S
C937 C936 1.399 . S
C937 C938 1.376 . S
C938 H925 0.930 . S
C938 C937 1.376 . S
C938 C939 1.388 1_565 S
C939 H926 0.930 . S
C939 C938 1.388 1_545 S
C939 C940 1.390 1_545 S
C940 C939 1.390 1_565 S
C940 C941 1.394 . S
C940 C946 1.465 1_565 S
C941 C936 1.399 . S
C941 C940 1.394 . S
C941 C942 1.516 . S
C942 C941 1.516 . S
C942 C943 1.502 . S
C942 C944 1.561 . S
C942 C945 1.526 1_565 S
C943 H927 0.959 . S
C943 H928 0.959 . S
C943 H929 0.961 . S
C943 C942 1.502 . S
C944 H930 0.960 . S
C944 H931 0.961 . S
C944 H932 0.959 . S
C944 C942 1.561 . S
C945 C942 1.526 1_545 S
C945 C946 1.396 . S
C945 C950 1.390 . S
C946 C940 1.465 1_545 S
C946 C945 1.396 . S
C946 C947 1.399 . S
C947 H933 0.929 . S
C947 C946 1.399 . S
C947 C948 1.385 . S
C948 H934 0.931 . S
C948 C947 1.385 . S
C948 C949 1.389 . S
C949 C948 1.389 . S
C949 C950 1.387 . S
C950 H935 0.930 . S
C950 C945 1.390 . S
C950 C949 1.387 . S
H951 C963 0.930 . S
H952 C965 0.930 . S
H953 C966 0.930 . S
H954 C970 0.959 . S
H955 C970 0.959 . S
H956 C970 0.961 . S
H957 C971 0.960 . S
H958 C971 0.961 . S
H959 C971 0.959 . S
H960 C974 0.929 . S
H961 C975 0.931 . S
H962 C977 0.930 . S
C963 H951 0.930 . S
C963 C964 1.399 . S
C963 C968 1.399 . S
C964 C963 1.399 . S
C964 C965 1.376 . S
C965 H952 0.930 . S
C965 C964 1.376 . S
C965 C966 1.388 . S
C966 H953 0.930 . S
C966 C965 1.388 . S
C966 C967 1.390 . S
C967 C966 1.390 . S
C967 C968 1.394 . S
C967 C973 1.465 . S
C968 C963 1.399 . S
C968 C967 1.394 . S
C968 C969 1.516 . S
C969 C968 1.516 . S
C969 C970 1.502 . S
C969 C971 1.561 . S
C969 C972 1.526 . S
C970 H954 0.959 . S
C970 H955 0.959 . S
C970 H956 0.961 . S
C970 C969 1.502 . S
C971 H957 0.960 . S
C971 H958 0.961 . S
C971 H959 0.959 . S
C971 C969 1.561 . S
C972 C969 1.526 . S
C972 C973 1.396 . S
C972 C977 1.390 . S
C973 C967 1.465 . S
C973 C972 1.396 . S
C973 C974 1.399 . S
C974 H960 0.929 . S
C974 C973 1.399 . S
C974 C975 1.385 . S
C975 H961 0.931 . S
C975 C974 1.385 . S
C975 C976 1.389 . S
C976 C975 1.389 . S
C976 C977 1.387 . S
C977 H962 0.930 . S
C977 C972 1.390 . S
C977 C976 1.387 . S
H978 C990 0.930 . S
H979 C992 0.930 . S
H980 C993 0.930 . S
H981 C997 0.959 . S
H982 C997 0.959 . S
H983 C997 0.961 . S
H984 C998 0.960 . S
H985 C998 0.961 1_455 S
H986 C998 0.959 . S
H987 C1001 0.929 1_655 S
H988 C1002 0.931 . S
H989 C1004 0.930 . S
C990 H978 0.930 . S
C990 C991 1.399 . S
C990 C995 1.399 . S
C991 C990 1.399 . S
C991 C992 1.376 . S
C992 H979 0.930 . S
C992 C991 1.376 . S
C992 C993 1.388 . S
C993 H980 0.930 . S
C993 C992 1.388 . S
C993 C994 1.390 . S
C994 C993 1.390 . S
C994 C995 1.394 . S
C994 C1000 1.465 1_655 S
C995 C990 1.399 . S
C995 C994 1.394 . S
C995 C996 1.516 1_655 S
C996 C995 1.516 1_455 S
C996 C997 1.502 . S
C996 C998 1.561 1_455 S
C996 C999 1.526 . S
C997 H981 0.959 . S
C997 H982 0.959 . S
C997 H983 0.961 . S
C997 C996 1.502 . S
C998 H984 0.960 . S
C998 H985 0.961 1_655 S
C998 H986 0.959 . S
C998 C996 1.561 1_655 S
C999 C996 1.526 . S
C999 C1000 1.396 . S
C999 C1004 1.390 . S
C1000 C994 1.465 1_455 S
C1000 C999 1.396 . S
C1000 C1001 1.399 . S
C1001 H987 0.929 1_455 S
C1001 C1000 1.399 . S
C1001 C1002 1.385 . S
C1002 H988 0.931 . S
C1002 C1001 1.385 . S
C1002 C1003 1.389 . S
C1003 C1002 1.389 . S
C1003 C1004 1.387 . S
C1004 H989 0.930 . S
C1004 C999 1.390 . S
C1004 C1003 1.387 . S
H1005 C1017 0.930 . S
H1006 C1019 0.930 . S
H1007 C1020 0.930 1_565 S
H1008 C1024 0.959 . S
H1009 C1024 0.959 . S
H1010 C1024 0.961 . S
H1011 C1025 0.960 . S
H1012 C1025 0.961 . S
H1013 C1025 0.959 . S
H1014 C1028 0.929 . S
H1015 C1029 0.931 . S
H1016 C1031 0.930 . S
C1017 H1005 0.930 . S
C1017 C1018 1.399 . S
C1017 C1022 1.399 . S
C1018 C1017 1.399 . S
C1018 C1019 1.376 . S
C1019 H1006 0.930 . S
C1019 C1018 1.376 . S
C1019 C1020 1.389 . S
C1020 H1007 0.930 1_545 S
C1020 C1019 1.389 . S
C1020 C1021 1.390 . S
C1021 C1020 1.390 . S
C1021 C1022 1.394 . S
C1021 C1027 1.465 1_545 S
C1022 C1017 1.399 . S
C1022 C1021 1.394 . S
C1022 C1023 1.516 . S
C1023 C1022 1.516 . S
C1023 C1024 1.502 . S
C1023 C1025 1.561 . S
C1023 C1026 1.526 1_545 S
C1024 H1008 0.959 . S
C1024 H1009 0.959 . S
C1024 H1010 0.961 . S
C1024 C1023 1.502 . S
C1025 H1011 0.960 . S
C1025 H1012 0.961 . S
C1025 H1013 0.959 . S
C1025 C1023 1.561 . S
C1026 C1023 1.526 1_565 S
C1026 C1027 1.396 . S
C1026 C1031 1.390 . S
C1027 C1021 1.465 1_565 S
C1027 C1026 1.396 . S
C1027 C1028 1.399 . S
C1028 H1014 0.929 . S
C1028 C1027 1.399 . S
C1028 C1029 1.385 . S
C1029 H1015 0.931 . S
C1029 C1028 1.385 . S
C1029 C1030 1.389 . S
C1030 C1029 1.389 . S
C1030 C1031 1.387 . S
C1031 H1016 0.930 . S
C1031 C1026 1.390 . S
C1031 C1030 1.387 . S
H1032 C1044 0.930 . S
H1033 C1046 0.930 . S
H1034 C1047 0.930 . S
H1035 C1051 0.959 . S
H1036 C1051 0.959 . S
H1037 C1051 0.961 . S
H1038 C1052 0.960 . S
H1039 C1052 0.961 . S
H1040 C1052 0.959 . S
H1041 C1055 0.929 . S
H1042 C1056 0.931 . S
H1043 C1058 0.930 . S
C1044 H1032 0.930 . S
C1044 C1045 1.399 . S
C1044 C1049 1.399 . S
C1045 C1044 1.399 . S
C1045 C1046 1.376 . S
C1046 H1033 0.930 . S
C1046 C1045 1.376 . S
C1046 C1047 1.388 . S
C1047 H1034 0.930 . S
C1047 C1046 1.388 . S
C1047 C1048 1.390 . S
C1048 C1047 1.390 . S
C1048 C1049 1.394 . S
C1048 C1054 1.465 . S
C1049 C1044 1.399 . S
C1049 C1048 1.394 . S
C1049 C1050 1.516 . S
C1050 C1049 1.516 . S
C1050 C1051 1.502 . S
C1050 C1052 1.561 . S
C1050 C1053 1.526 . S
C1051 H1035 0.959 . S
C1051 H1036 0.959 . S
C1051 H1037 0.961 . S
C1051 C1050 1.502 . S
C1052 H1038 0.960 . S
C1052 H1039 0.961 . S
C1052 H1040 0.959 . S
C1052 C1050 1.561 . S
C1053 C1050 1.526 . S
C1053 C1054 1.396 . S
C1053 C1058 1.390 . S
C1054 C1048 1.465 . S
C1054 C1053 1.396 . S
C1054 C1055 1.399 . S
C1055 H1041 0.929 . S
C1055 C1054 1.399 . S
C1055 C1056 1.385 . S
C1056 H1042 0.931 . S
C1056 C1055 1.385 . S
C1056 C1057 1.389 . S
C1057 C1056 1.389 . S
C1057 C1058 1.387 . S
C1058 H1043 0.930 . S
C1058 C1053 1.390 . S
C1058 C1057 1.387 . S
H1059 C1071 0.930 . S
H1060 C1073 0.930 . S
H1061 C1074 0.930 . S
H1062 C1078 0.959 1_455 S
H1063 C1078 0.959 . S
H1064 C1078 0.961 . S
H1065 C1079 0.960 . S
H1066 C1079 0.961 . S
H1067 C1079 0.959 . S
H1068 C1082 0.889 1_455 S
H1069 C1083 0.931 . S
H1070 C1085 0.930 . S
C1071 H1059 0.930 . S
C1071 C1072 1.399 . S
C1071 C1076 1.399 . S
C1072 C1071 1.399 . S
C1072 C1073 1.376 . S
C1073 H1060 0.930 . S
C1073 C1072 1.376 . S
C1073 C1074 1.388 . S
C1074 H1061 0.930 . S
C1074 C1073 1.388 . S
C1074 C1075 1.390 . S
C1075 C1074 1.390 . S
C1075 C1076 1.394 . S
C1075 C1081 1.465 1_455 S
C1076 C1071 1.399 . S
C1076 C1075 1.394 . S
C1076 C1077 1.516 1_455 S
C1077 C1076 1.516 1_655 S
C1077 C1078 1.502 . S
C1077 C1079 1.561 . S
C1077 C1080 1.526 . S
C1078 H1062 0.959 1_655 S
C1078 H1063 0.959 . S
C1078 H1064 0.961 . S
C1078 C1077 1.502 . S
C1079 H1065 0.960 . S
C1079 H1066 0.961 . S
C1079 H1067 0.959 . S
C1079 C1077 1.561 . S
C1080 C1077 1.526 . S
C1080 C1081 1.396 . S
C1080 C1085 1.390 . S
C1081 C1075 1.465 1_655 S
C1081 C1080 1.396 . S
C1081 C1082 1.399 . S
C1082 H1068 0.889 1_655 S
C1082 C1081 1.399 . S
C1082 C1083 1.385 . S
C1083 H1069 0.931 . S
C1083 C1082 1.385 . S
C1083 C1084 1.389 . S
C1084 C1083 1.389 . S
C1084 C1085 1.387 . S
C1085 H1070 0.930 . S
C1085 C1080 1.390 . S
C1085 C1084 1.387 . S
H1086 C1098 0.930 . S
H1087 C1100 0.930 . S
H1088 C1101 0.930 . S
H1089 C1105 0.959 . S
H1090 C1105 0.959 . S
H1091 C1105 0.961 . S
H1092 C1106 0.960 . S
H1093 C1106 0.961 . S
H1094 C1106 0.959 . S
H1095 C1109 0.929 . S
H1096 C1110 0.931 . S
H1097 C1112 0.930 . S
C1098 H1086 0.930 . S
C1098 C1099 1.399 . S
C1098 C1103 1.399 . S
C1099 C1098 1.399 . S
C1099 C1100 1.376 . S
C1100 H1087 0.930 . S
C1100 C1099 1.376 . S
C1100 C1101 1.388 . S
C1101 H1088 0.930 . S
C1101 C1100 1.388 . S
C1101 C1102 1.390 . S
C1102 C1101 1.390 . S
C1102 C1103 1.394 . S
C1102 C1108 1.465 . S
C1103 C1098 1.399 . S
C1103 C1102 1.394 . S
C1103 C1104 1.516 . S
C1104 C1103 1.516 . S
C1104 C1105 1.502 . S
C1104 C1106 1.561 . S
C1104 C1107 1.526 . S
C1105 H1089 0.959 . S
C1105 H1090 0.959 . S
C1105 H1091 0.961 . S
C1105 C1104 1.502 . S
C1106 H1092 0.960 . S
C1106 H1093 0.961 . S
C1106 H1094 0.959 . S
C1106 C1104 1.561 . S
C1107 C1104 1.526 . S
C1107 C1108 1.396 . S
C1107 C1112 1.390 . S
C1108 C1102 1.465 . S
C1108 C1107 1.396 . S
C1108 C1109 1.399 . S
C1109 H1095 0.929 . S
C1109 C1108 1.399 . S
C1109 C1110 1.385 . S
C1110 H1096 0.931 . S
C1110 C1109 1.385 . S
C1110 C1111 1.389 . S
C1111 C1110 1.389 . S
C1111 C1112 1.387 . S
C1112 H1097 0.930 . S
C1112 C1107 1.390 . S
C1112 C1111 1.387 . S
H1113 C1125 0.930 . S
H1114 C1127 0.930 . S
H1115 C1128 0.930 . S
H1116 C1132 0.959 . S
H1117 C1132 0.959 . S
H1118 C1132 0.961 . S
H1119 C1133 0.960 . S
H1120 C1133 0.961 . S
H1121 C1133 0.959 . S
H1122 C1136 0.929 . S
H1123 C1137 0.931 . S
H1124 C1139 0.930 . S
C1125 H1113 0.930 . S
C1125 C1126 1.399 . S
C1125 C1130 1.399 . S
C1126 C1125 1.399 . S
C1126 C1127 1.376 . S
C1127 H1114 0.930 . S
C1127 C1126 1.376 . S
C1127 C1128 1.388 . S
C1128 H1115 0.930 . S
C1128 C1127 1.388 . S
C1128 C1129 1.390 . S
C1129 C1128 1.390 . S
C1129 C1130 1.394 . S
C1129 C1135 1.465 . S
C1130 C1125 1.399 . S
C1130 C1129 1.394 . S
C1130 C1131 1.516 . S
C1131 C1130 1.516 . S
C1131 C1132 1.502 . S
C1131 C1133 1.561 . S
C1131 C1134 1.526 . S
C1132 H1116 0.959 . S
C1132 H1117 0.959 . S
C1132 H1118 0.961 . S
C1132 C1131 1.502 . S
C1133 H1119 0.960 . S
C1133 H1120 0.961 . S
C1133 H1121 0.959 . S
C1133 C1131 1.561 . S
C1134 C1131 1.526 . S
C1134 C1135 1.396 . S
C1134 C1139 1.390 . S
C1135 C1129 1.465 . S
C1135 C1134 1.396 . S
C1135 C1136 1.399 . S
C1136 H1122 0.929 . S
C1136 C1135 1.399 . S
C1136 C1137 1.385 . S
C1137 H1123 0.931 . S
C1137 C1136 1.385 . S
C1137 C1138 1.389 . S
C1138 C1137 1.389 . S
C1138 C1139 1.387 . S
C1139 H1124 0.930 . S
C1139 C1134 1.390 . S
C1139 C1138 1.387 . S
H1140 C1152 0.930 . S
H1141 C1154 0.930 . S
H1142 C1155 0.930 . S
H1143 C1159 0.959 . S
H1144 C1159 0.959 . S
H1145 C1159 0.961 . S
H1146 C1160 0.960 . S
H1147 C1160 0.961 . S
H1148 C1160 0.959 . S
H1149 C1163 0.929 . S
H1150 C1164 0.931 . S
H1151 C1166 0.930 . S
C1152 H1140 0.930 . S
C1152 C1153 1.399 . S
C1152 C1157 1.399 . S
C1153 C1152 1.399 . S
C1153 C1154 1.376 . S
C1154 H1141 0.930 . S
C1154 C1153 1.376 . S
C1154 C1155 1.388 . S
C1155 H1142 0.930 . S
C1155 C1154 1.388 . S
C1155 C1156 1.390 . S
C1156 C1155 1.390 . S
C1156 C1157 1.394 . S
C1156 C1162 1.465 . S
C1157 C1152 1.399 . S
C1157 C1156 1.394 . S
C1157 C1158 1.516 . S
C1158 C1157 1.516 . S
C1158 C1159 1.502 . S
C1158 C1160 1.561 . S
C1158 C1161 1.526 . S
C1159 H1143 0.959 . S
C1159 H1144 0.959 . S
C1159 H1145 0.961 . S
C1159 C1158 1.502 . S
C1160 H1146 0.960 . S
C1160 H1147 0.961 . S
C1160 H1148 0.959 . S
C1160 C1158 1.561 . S
C1161 C1158 1.526 . S
C1161 C1162 1.396 . S
C1161 C1166 1.390 . S
C1162 C1156 1.465 . S
C1162 C1161 1.396 . S
C1162 C1163 1.399 . S
C1163 H1149 0.929 . S
C1163 C1162 1.399 . S
C1163 C1164 1.385 . S
C1164 H1150 0.931 . S
C1164 C1163 1.385 . S
C1164 C1165 1.389 . S
C1165 C1164 1.389 . S
C1165 C1166 1.387 . S
C1166 H1151 0.930 . S
C1166 C1161 1.390 . S
C1166 C1165 1.387 . S
H1167 C1179 0.930 . S
H1168 C1181 0.930 . S
H1169 C1182 0.930 . S
H1170 C1186 0.959 . S
H1171 C1186 0.959 . S
H1172 C1186 0.961 . S
H1173 C1187 0.960 . S
H1174 C1187 0.961 . S
H1175 C1187 0.959 . S
H1176 C1190 0.929 . S
H1177 C1191 0.931 . S
H1178 C1193 0.930 . S
C1179 H1167 0.930 . S
C1179 C1180 1.399 . S
C1179 C1184 1.399 . S
C1180 C1179 1.399 . S
C1180 C1181 1.376 . S
C1181 H1168 0.930 . S
C1181 C1180 1.376 . S
C1181 C1182 1.388 . S
C1182 H1169 0.930 . S
C1182 C1181 1.388 . S
C1182 C1183 1.390 . S
C1183 C1182 1.390 . S
C1183 C1184 1.394 . S
C1183 C1189 1.465 . S
C1184 C1179 1.399 . S
C1184 C1183 1.394 . S
C1184 C1185 1.516 . S
C1185 C1184 1.516 . S
C1185 C1186 1.502 . S
C1185 C1187 1.561 . S
C1185 C1188 1.526 . S
C1186 H1170 0.959 . S
C1186 H1171 0.959 . S
C1186 H1172 0.961 . S
C1186 C1185 1.502 . S
C1187 H1173 0.960 . S
C1187 H1174 0.961 . S
C1187 H1175 0.959 . S
C1187 C1185 1.561 . S
C1188 C1185 1.526 . S
C1188 C1189 1.396 . S
C1188 C1193 1.390 . S
C1189 C1183 1.465 . S
C1189 C1188 1.396 . S
C1189 C1190 1.399 . S
C1190 H1176 0.929 . S
C1190 C1189 1.399 . S
C1190 C1191 1.385 . S
C1191 H1177 0.931 . S
C1191 C1190 1.385 . S
C1191 C1192 1.389 . S
C1192 C1191 1.389 . S
C1192 C1193 1.387 . S
C1193 H1178 0.930 . S
C1193 C1188 1.390 . S
C1193 C1192 1.387 . S
H1194 C1206 0.930 . S
H1195 C1208 0.930 . S
H1196 C1209 0.930 . S
H1197 C1213 0.959 . S
H1198 C1213 0.959 . S
H1199 C1213 0.961 . S
H1200 C1214 0.960 . S
H1201 C1214 0.961 . S
H1202 C1214 0.959 . S
H1203 C1217 0.929 . S
H1204 C1218 0.931 . S
H1205 C1220 0.930 . S
C1206 H1194 0.930 . S
C1206 C1207 1.399 . S
C1206 C1211 1.399 . S
C1207 C1206 1.399 . S
C1207 C1208 1.376 . S
C1208 H1195 0.930 . S
C1208 C1207 1.376 . S
C1208 C1209 1.388 . S
C1209 H1196 0.930 . S
C1209 C1208 1.388 . S
C1209 C1210 1.390 . S
C1210 C1209 1.390 . S
C1210 C1211 1.394 . S
C1210 C1216 1.465 . S
C1211 C1206 1.399 . S
C1211 C1210 1.394 . S
C1211 C1212 1.516 . S
C1212 C1211 1.516 . S
C1212 C1213 1.502 . S
C1212 C1214 1.561 . S
C1212 C1215 1.526 . S
C1213 H1197 0.959 . S
C1213 H1198 0.959 . S
C1213 H1199 0.961 . S
C1213 C1212 1.502 . S
C1214 H1200 0.960 . S
C1214 H1201 0.961 . S
C1214 H1202 0.959 . S
C1214 C1212 1.561 . S
C1215 C1212 1.526 . S
C1215 C1216 1.396 . S
C1215 C1220 1.390 . S
C1216 C1210 1.465 . S
C1216 C1215 1.396 . S
C1216 C1217 1.399 . S
C1217 H1203 0.929 . S
C1217 C1216 1.399 . S
C1217 C1218 1.385 . S
C1218 H1204 0.931 . S
C1218 C1217 1.385 . S
C1218 C1219 1.389 . S
C1219 C1218 1.389 . S
C1219 C1220 1.387 . S
C1220 H1205 0.930 . S
C1220 C1215 1.390 . S
C1220 C1219 1.387 . S
H1221 C1233 0.930 . S
H1222 C1235 0.930 . S
H1223 C1236 0.930 . S
H1224 C1240 0.959 . S
H1225 C1240 0.959 . S
H1226 C1240 0.961 . S
H1227 C1241 0.960 . S
H1228 C1241 0.961 . S
H1229 C1241 0.959 . S
H1230 C1244 0.929 . S
H1231 C1245 0.931 . S
H1232 C1247 0.930 . S
C1233 H1221 0.930 . S
C1233 C1234 1.399 . S
C1233 C1238 1.399 . S
C1234 C1233 1.399 . S
C1234 C1235 1.376 . S
C1235 H1222 0.930 . S
C1235 C1234 1.376 . S
C1235 C1236 1.388 . S
C1236 H1223 0.930 . S
C1236 C1235 1.388 . S
C1236 C1237 1.390 . S
C1237 C1236 1.390 . S
C1237 C1238 1.394 . S
C1237 C1243 1.465 . S
C1238 C1233 1.399 . S
C1238 C1237 1.394 . S
C1238 C1239 1.516 . S
C1239 C1238 1.516 . S
C1239 C1240 1.502 . S
C1239 C1241 1.561 . S
C1239 C1242 1.526 . S
C1240 H1224 0.959 . S
C1240 H1225 0.959 . S
C1240 H1226 0.961 . S
C1240 C1239 1.502 . S
C1241 H1227 0.960 . S
C1241 H1228 0.961 . S
C1241 H1229 0.959 . S
C1241 C1239 1.561 . S
C1242 C1239 1.526 . S
C1242 C1243 1.396 . S
C1242 C1247 1.390 . S
C1243 C1237 1.465 . S
C1243 C1242 1.396 . S
C1243 C1244 1.399 . S
C1244 H1230 0.929 . S
C1244 C1243 1.399 . S
C1244 C1245 1.385 . S
C1245 H1231 0.931 . S
C1245 C1244 1.385 . S
C1245 C1246 1.389 . S
C1246 C1245 1.389 . S
C1246 C1247 1.387 . S
C1247 H1232 0.930 . S
C1247 C1242 1.390 . S
C1247 C1246 1.387 . S
C289 C20 0.785 . S
C301 C204 0.821 . S
C316 C43 0.844 . S
C328 C227 0.824 . S
C343 C66 0.809 . S
C355 C250 0.840 . S
C370 C273 0.804 . S
C382 C89 0.837 . S
C397 C112 0.843 . S
C409 C158 0.817 . S
C424 C181 0.828 . S
C436 C135 0.792 . S
C451 C247 1.098 . S
C463 C17 1.095 . S
C478 C270 1.096 . S
C490 C40 1.091 . S
C505 C63 1.078 . S
C517 C155 1.073 . S
C532 C178 1.046 . S
C544 C86 1.051 . S
C559 C201 1.085 . S
C571 C109 1.089 . S
C586 C132 1.079 . S
C598 C224 1.083 . S
C613 C182 1.345 . S
C625 C21 1.362 . S
C640 C205 1.285 . S
C652 C44 1.272 . S
C667 C228 1.301 . S
C679 C67 1.321 . S
C694 C90 1.307 . S
C706 C251 1.290 . S
C721 C113 1.321 . S
C733 C274 1.341 . S
C748 C136 1.288 . S
C760 C159 1.307 . S
C775 C19 0.472 . S
C787 C88 0.491 . S
C802 C42 0.498 . S
C814 C111 0.461 . S
C829 C65 0.440 . S
C841 C134 0.500 . S
C856 C226 0.382 . S
C868 C157 0.268 . S
C883 C180 0.343 . S
C895 C249 0.272 . S
C910 C272 0.345 . S
C922 C203 0.271 . S
C937 C177 1.502 . S
C949 C16 1.508 . S
C964 C200 1.498 . S
C976 C39 1.491 . S
C991 C62 1.509 . S
C1003 C223 1.503 . S
C1018 C246 1.506 . S
C1030 C85 1.511 . S
C1045 C269 1.436 . S
C1057 C108 1.441 . S
C1072 C131 1.433 . S
C1084 C154 1.433 . S
C1099 C18 1.539 . S
C1111 C248 1.569 . S
C1126 C41 1.578 . S
C1138 C271 1.532 . S
C1153 C64 1.580 . S
C1165 C156 1.531 . S
C1180 C87 1.580 . S
C1192 C179 1.531 . S
C1207 C110 1.579 . S
C1219 C202 1.533 . S
C1234 C225 1.570 . S
C1246 C133 1.538 . S
