# Generated by pormake.
# Topology unv, (4)-cn, num edge types: 1
# Building blocks:
#     Node 0, Type 0, BuildingBlock: KUFVIS_clean_sbu_0, # of connection points: 4
#     Node 1, Type 0, BuildingBlock: KUFVIS_clean_sbu_0, # of connection points: 4
#     Node 2, Type 0, BuildingBlock: KUFVIS_clean_sbu_0, # of connection points: 4
#     Node 3, Type 0, BuildingBlock: KUFVIS_clean_sbu_0, # of connection points: 4
#     Node 4, Type 0, BuildingBlock: KUFVIS_clean_sbu_0, # of connection points: 4
#     Node 5, Type 0, BuildingBlock: KUFVIS_clean_sbu_0, # of connection points: 4
#     Node 6, Type 0, BuildingBlock: KUFVIS_clean_sbu_0, # of connection points: 4
#     Node 7, Type 0, BuildingBlock: KUFVIS_clean_sbu_0, # of connection points: 4
#     Node 8, Type 0, BuildingBlock: KUFVIS_clean_sbu_0, # of connection points: 4
#     Node 9, Type 0, BuildingBlock: KUFVIS_clean_sbu_0, # of connection points: 4
#     Node 10, Type 0, BuildingBlock: KUFVIS_clean_sbu_0, # of connection points: 4
#     Node 11, Type 0, BuildingBlock: KUFVIS_clean_sbu_0, # of connection points: 4
#     Node 12, Type 0, BuildingBlock: KUFVIS_clean_sbu_0, # of connection points: 4
#     Node 13, Type 0, BuildingBlock: KUFVIS_clean_sbu_0, # of connection points: 4
#     Node 14, Type 0, BuildingBlock: KUFVIS_clean_sbu_0, # of connection points: 4
#     Node 15, Type 0, BuildingBlock: KUFVIS_clean_sbu_0, # of connection points: 4
#     Node 16, Type 0, BuildingBlock: KUFVIS_clean_sbu_0, # of connection points: 4
#     Node 17, Type 0, BuildingBlock: KUFVIS_clean_sbu_0, # of connection points: 4
#     Node 18, Type 0, BuildingBlock: KUFVIS_clean_sbu_0, # of connection points: 4
#     Node 19, Type 0, BuildingBlock: KUFVIS_clean_sbu_0, # of connection points: 4
#     Node 20, Type 0, BuildingBlock: KUFVIS_clean_sbu_0, # of connection points: 4
#     Node 21, Type 0, BuildingBlock: KUFVIS_clean_sbu_0, # of connection points: 4
#     Node 22, Type 0, BuildingBlock: KUFVIS_clean_sbu_0, # of connection points: 4
#     Node 23, Type 0, BuildingBlock: KUFVIS_clean_sbu_0, # of connection points: 4
#     Edge 24, Type (0, 0), BuildingBlock: XIVTED_clean_linker_0, # of connection points: 2
#     Edge 25, Type (0, 0), BuildingBlock: XIVTED_clean_linker_0, # of connection points: 2
#     Edge 26, Type (0, 0), BuildingBlock: XIVTED_clean_linker_0, # of connection points: 2
#     Edge 27, Type (0, 0), BuildingBlock: XIVTED_clean_linker_0, # of connection points: 2
#     Edge 28, Type (0, 0), BuildingBlock: XIVTED_clean_linker_0, # of connection points: 2
#     Edge 29, Type (0, 0), BuildingBlock: XIVTED_clean_linker_0, # of connection points: 2
#     Edge 30, Type (0, 0), BuildingBlock: XIVTED_clean_linker_0, # of connection points: 2
#     Edge 31, Type (0, 0), BuildingBlock: XIVTED_clean_linker_0, # of connection points: 2
#     Edge 32, Type (0, 0), BuildingBlock: XIVTED_clean_linker_0, # of connection points: 2
#     Edge 33, Type (0, 0), BuildingBlock: XIVTED_clean_linker_0, # of connection points: 2
#     Edge 34, Type (0, 0), BuildingBlock: XIVTED_clean_linker_0, # of connection points: 2
#     Edge 35, Type (0, 0), BuildingBlock: XIVTED_clean_linker_0, # of connection points: 2
#     Edge 36, Type (0, 0), BuildingBlock: XIVTED_clean_linker_0, # of connection points: 2
#     Edge 37, Type (0, 0), BuildingBlock: XIVTED_clean_linker_0, # of connection points: 2
#     Edge 38, Type (0, 0), BuildingBlock: XIVTED_clean_linker_0, # of connection points: 2
#     Edge 39, Type (0, 0), BuildingBlock: XIVTED_clean_linker_0, # of connection points: 2
#     Edge 40, Type (0, 0), BuildingBlock: XIVTED_clean_linker_0, # of connection points: 2
#     Edge 41, Type (0, 0), BuildingBlock: XIVTED_clean_linker_0, # of connection points: 2
#     Edge 42, Type (0, 0), BuildingBlock: XIVTED_clean_linker_0, # of connection points: 2
#     Edge 43, Type (0, 0), BuildingBlock: XIVTED_clean_linker_0, # of connection points: 2
#     Edge 44, Type (0, 0), BuildingBlock: XIVTED_clean_linker_0, # of connection points: 2
#     Edge 45, Type (0, 0), BuildingBlock: XIVTED_clean_linker_0, # of connection points: 2
#     Edge 46, Type (0, 0), BuildingBlock: XIVTED_clean_linker_0, # of connection points: 2
#     Edge 47, Type (0, 0), BuildingBlock: XIVTED_clean_linker_0, # of connection points: 2
#     Edge 48, Type (0, 0), BuildingBlock: XIVTED_clean_linker_0, # of connection points: 2
#     Edge 49, Type (0, 0), BuildingBlock: XIVTED_clean_linker_0, # of connection points: 2
#     Edge 50, Type (0, 0), BuildingBlock: XIVTED_clean_linker_0, # of connection points: 2
#     Edge 51, Type (0, 0), BuildingBlock: XIVTED_clean_linker_0, # of connection points: 2
#     Edge 52, Type (0, 0), BuildingBlock: XIVTED_clean_linker_0, # of connection points: 2
#     Edge 53, Type (0, 0), BuildingBlock: XIVTED_clean_linker_0, # of connection points: 2
#     Edge 54, Type (0, 0), BuildingBlock: XIVTED_clean_linker_0, # of connection points: 2
#     Edge 55, Type (0, 0), BuildingBlock: XIVTED_clean_linker_0, # of connection points: 2
#     Edge 56, Type (0, 0), BuildingBlock: XIVTED_clean_linker_0, # of connection points: 2
#     Edge 57, Type (0, 0), BuildingBlock: XIVTED_clean_linker_0, # of connection points: 2
#     Edge 58, Type (0, 0), BuildingBlock: XIVTED_clean_linker_0, # of connection points: 2
#     Edge 59, Type (0, 0), BuildingBlock: XIVTED_clean_linker_0, # of connection points: 2
#     Edge 60, Type (0, 0), BuildingBlock: XIVTED_clean_linker_0, # of connection points: 2
#     Edge 61, Type (0, 0), BuildingBlock: XIVTED_clean_linker_0, # of connection points: 2
#     Edge 62, Type (0, 0), BuildingBlock: XIVTED_clean_linker_0, # of connection points: 2
#     Edge 63, Type (0, 0), BuildingBlock: XIVTED_clean_linker_0, # of connection points: 2
#     Edge 64, Type (0, 0), BuildingBlock: XIVTED_clean_linker_0, # of connection points: 2
#     Edge 65, Type (0, 0), BuildingBlock: XIVTED_clean_linker_0, # of connection points: 2
#     Edge 66, Type (0, 0), BuildingBlock: XIVTED_clean_linker_0, # of connection points: 2
#     Edge 67, Type (0, 0), BuildingBlock: XIVTED_clean_linker_0, # of connection points: 2
#     Edge 68, Type (0, 0), BuildingBlock: XIVTED_clean_linker_0, # of connection points: 2
#     Edge 69, Type (0, 0), BuildingBlock: XIVTED_clean_linker_0, # of connection points: 2
#     Edge 70, Type (0, 0), BuildingBlock: XIVTED_clean_linker_0, # of connection points: 2
#     Edge 71, Type (0, 0), BuildingBlock: XIVTED_clean_linker_0, # of connection points: 2
# Relax obj value: 0.328
# Max RMSD: 0.271
# Mean RMSD: 0.240
data_MOF--net-unv--node1-KUFVIS_clean_sbu_0--edge1-XIVTED_clean_linker_0
_symmetry_space_group_name_H-M    P1
_symmetry_Int_Tables_number       1
_symmetry_cell_setting            triclinic
loop_
_symmetry_equiv_pos_as_xyz
'x, y, z'
_cell_length_a     48.455002
_cell_length_b     48.450197
_cell_length_c     48.430538
_cell_angle_alpha  90.000063
_cell_angle_beta   90.013789
_cell_angle_gamma 89.963439
loop_
_atom_site_label
_atom_site_type_symbol
_atom_site_fract_x
_atom_site_fract_y
_atom_site_fract_z
_atom_type_partial_charge
Mn0 Mn 0.01882 0.09574 0.37537 0.0
Mn1 Mn 0.08067 0.11661 0.3524 0.0
C2 C 0.05301 0.10714 0.40675 0.0
C3 C 0.99015 0.05926 0.38689 0.0
C4 C 0.02825 0.15107 0.34864 0.0
O5 O 0.01972 0.08301 0.33551 0.0
O6 O 0.06436 0.09085 0.32469 0.0
C7 C 0.11273 0.06453 0.35222 0.0
N8 N 0.10906 0.09077 0.36166 0.0
C9 C 0.14939 0.08739 0.39051 0.0
C10 C 0.15363 0.06039 0.38099 0.0
C11 C 0.13523 0.04893 0.36176 0.0
C12 C 0.12681 0.1021 0.37998 0.0
H13 H 0.09846 0.05545 0.33774 0.0
C14 C 0.04066 0.07997 0.3198 0.0
O15 O 0.97988 0.083 0.37975 0.0
O16 O 0.01679 0.05702 0.38757 0.0
N17 N 0.09799 0.14054 0.37871 0.0
C18 C 0.08992 0.16608 0.38733 0.0
C19 C 0.10556 0.17998 0.40738 0.0
C20 C 0.12925 0.16747 0.41845 0.0
C21 C 0.1371 0.14114 0.40936 0.0
C22 C 0.12085 0.12838 0.38914 0.0
H23 H 0.07161 0.17573 0.37914 0.0
O24 O 0.02723 0.10768 0.4141 0.0
O25 O 0.05739 0.10081 0.38111 0.0
O26 O 0.0131 0.13529 0.36313 0.0
O27 O 0.05318 0.1453 0.34219 0.0
C28 C 0.16011 0.12686 0.41998 0.0
C29 C 0.16627 0.10002 0.41054 0.0
H30 H 0.17078 0.04818 0.38854 0.0
H31 H 0.13826 0.02803 0.35445 0.0
H32 H 0.09927 0.20024 0.4144 0.0
H33 H 0.14112 0.17817 0.43409 0.0
H34 H 0.17303 0.13621 0.43565 0.0
H35 H 0.18382 0.08912 0.4191 0.0
Mn36 Mn 0.97209 0.39778 0.36262 0.0
Mn37 Mn 0.90835 0.37886 0.34288 0.0
C38 C 0.93927 0.38717 0.39563 0.0
C39 C 0.00286 0.43307 0.37221 0.0
C40 C 0.9591 0.34223 0.33756 0.0
O41 O 0.96964 0.41034 0.32273 0.0
O42 O 0.92436 0.40364 0.31421 0.0
C43 C 0.87878 0.43239 0.34374 0.0
N44 N 0.88146 0.40596 0.35298 0.0
C45 C 0.84209 0.41106 0.38285 0.0
C46 C 0.83881 0.43825 0.37349 0.0
C47 C 0.85725 0.44895 0.35386 0.0
C48 C 0.86369 0.39538 0.37172 0.0
H49 H 0.89307 0.44087 0.32892 0.0
C50 C 0.94799 0.41395 0.30812 0.0
O51 O 0.01169 0.40883 0.36488 0.0
O52 O 0.97641 0.43655 0.37426 0.0
N53 N 0.89105 0.35589 0.37006 0.0
C54 C 0.89843 0.33017 0.37875 0.0
C55 C 0.88285 0.31702 0.39933 0.0
C56 C 0.8599 0.33046 0.41086 0.0
C57 C 0.85273 0.35695 0.40168 0.0
C58 C 0.86886 0.36892 0.38088 0.0
H59 H 0.91619 0.31979 0.37022 0.0
O60 O 0.96534 0.38636 0.40185 0.0
O61 O 0.93362 0.39398 0.37036 0.0
O62 O 0.97561 0.35788 0.35066 0.0
O63 O 0.93416 0.34889 0.33205 0.0
C64 C 0.83062 0.3722 0.41284 0.0
C65 C 0.82528 0.39922 0.40341 0.0
H66 H 0.82245 0.45121 0.38151 0.0
H67 H 0.85499 0.46998 0.34668 0.0
H68 H 0.88862 0.29664 0.40643 0.0
H69 H 0.8481 0.32036 0.42694 0.0
H70 H 0.81784 0.36348 0.42898 0.0
H71 H 0.80849 0.41089 0.41247 0.0
Mn72 Mn 0.0094 0.90442 0.13778 0.0
Mn73 Mn 0.07279 0.88261 0.15544 0.0
C74 C 0.04101 0.89329 0.10372 0.0
C75 C 0.98027 0.9415 0.12936 0.0
C76 C 0.02073 0.84806 0.16183 0.0
O77 O 0.01338 0.91613 0.17779 0.0
O78 O 0.0586 0.9075 0.18498 0.0
C79 C 0.10452 0.93485 0.15462 0.0
N80 N 0.10041 0.90878 0.14492 0.0
C81 C 0.13874 0.91295 0.1136 0.0
C82 C 0.14347 0.93976 0.12339 0.0
C83 C 0.12628 0.95075 0.14399 0.0
C84 C 0.11699 0.89791 0.12527 0.0
H85 H 0.09117 0.94357 0.17017 0.0
C86 C 0.0355 0.91853 0.19193 0.0
O87 O 0.97031 0.91765 0.13655 0.0
O88 O 0.00681 0.94351 0.12683 0.0
N89 N 0.08827 0.85945 0.12733 0.0
C90 C 0.0796 0.83419 0.11851 0.0
C91 C 0.09387 0.82086 0.0971 0.0
C92 C 0.11682 0.83364 0.08489 0.0
C93 C 0.12531 0.85968 0.09422 0.0
C94 C 0.11046 0.87186 0.11584 0.0
H95 H 0.06183 0.82434 0.12757 0.0
O96 O 0.01478 0.89346 0.09818 0.0
O97 O 0.0474 0.89915 0.12902 0.0
O98 O 0.00444 0.86447 0.14932 0.0
O99 O 0.04608 0.85365 0.1666 0.0
C100 C 0.14753 0.87427 0.08247 0.0
C101 C 0.15427 0.90087 0.09217 0.0
H102 H 0.16002 0.95222 0.115 0.0
H103 H 0.12967 0.97151 0.15151 0.0
H104 H 0.08709 0.80083 0.0899 0.0
H105 H 0.1276 0.8234 0.06819 0.0
H106 H 0.15935 0.86538 0.06569 0.0
H107 H 0.17115 0.91205 0.0827 0.0
Mn108 Mn 0.97913 0.59899 0.13484 0.0
Mn109 Mn 0.91337 0.61544 0.14944 0.0
C110 C 0.9492 0.60997 0.09928 0.0
C111 C 0.01124 0.56425 0.1278 0.0
C112 C 0.96236 0.65323 0.16034 0.0
O113 O 0.97358 0.58557 0.17412 0.0
O114 O 0.92745 0.58976 0.17836 0.0
C115 C 0.88549 0.56135 0.14364 0.0
N116 N 0.88815 0.58826 0.13591 0.0
C117 C 0.85125 0.58381 0.10293 0.0
C118 C 0.84798 0.55614 0.11072 0.0
C119 C 0.8652 0.54487 0.13115 0.0
C120 C 0.87155 0.59938 0.11641 0.0
H121 H 0.89888 0.55245 0.15907 0.0
C122 C 0.95089 0.58035 0.1864 0.0
O123 O 0.01903 0.58855 0.13605 0.0
O124 O 0.98519 0.56054 0.12301 0.0
N125 N 0.8978 0.63924 0.1219 0.0
C126 C 0.90522 0.66547 0.11495 0.0
C127 C 0.89094 0.67924 0.09381 0.0
C128 C 0.86924 0.66592 0.07998 0.0
C129 C 0.862 0.63892 0.08742 0.0
C130 C 0.87678 0.62632 0.10885 0.0
H131 H 0.922 0.67579 0.12529 0.0
O132 O 0.9757 0.6112 0.09541 0.0
O133 O 0.94142 0.60219 0.1237 0.0
O134 O 0.98043 0.63874 0.14793 0.0
O135 O 0.93737 0.64542 0.16373 0.0
C136 C 0.84116 0.6238 0.07392 0.0
C137 C 0.83576 0.59628 0.08169 0.0
H138 H 0.83259 0.54325 0.10088 0.0
H139 H 0.86296 0.52346 0.13712 0.0
H140 H 0.89676 0.70003 0.08809 0.0
H141 H 0.85847 0.67652 0.06349 0.0
H142 H 0.82944 0.633 0.05724 0.0
H143 H 0.82 0.58472 0.07084 0.0
Mn144 Mn 0.37108 0.02232 0.09728 0.0
Mn145 Mn 0.34556 0.08346 0.11758 0.0
C146 C 0.40094 0.05724 0.11035 0.0
C147 C 0.38633 0.99418 0.06172 0.0
C148 C 0.34181 0.03089 0.15167 0.0
O149 O 0.33218 0.0223 0.08201 0.0
O150 O 0.31901 0.06608 0.09127 0.0
C151 C 0.34544 0.11523 0.06531 0.0
N152 N 0.35442 0.112 0.09178 0.0
C153 C 0.38188 0.15329 0.08886 0.0
C154 C 0.37284 0.15707 0.06162 0.0
C155 C 0.35453 0.13796 0.04981 0.0
C156 C 0.37184 0.13043 0.10344 0.0
H157 H 0.33166 0.10045 0.05598 0.0
C158 C 0.31552 0.04257 0.07943 0.0
O159 O 0.37757 0.98357 0.08476 0.0
O160 O 0.386 0.02083 0.05952 0.0
N161 N 0.37066 0.10181 0.14203 0.0
C162 C 0.37895 0.09417 0.16781 0.0
C163 C 0.39806 0.11058 0.18212 0.0
C164 C 0.40856 0.1346 0.16975 0.0
C165 C 0.39986 0.14196 0.14314 0.0
C166 C 0.38058 0.12493 0.12997 0.0
H167 H 0.37122 0.0756 0.17734 0.0
O168 O 0.40862 0.03158 0.11174 0.0
O169 O 0.37555 0.0611 0.1027 0.0
O170 O 0.35655 0.01595 0.13593 0.0
O171 O 0.33558 0.05593 0.14623 0.0
C172 C 0.40995 0.16528 0.129 0.0
C173 C 0.40095 0.17095 0.10189 0.0
H174 H 0.38004 0.17442 0.04949 0.0
H175 H 0.34759 0.14065 0.02874 0.0
H176 H 0.4048 0.10466 0.20258 0.0
H177 H 0.42346 0.14709 0.18078 0.0
H178 H 0.42487 0.17882 0.13867 0.0
H179 H 0.4091 0.18876 0.09111 0.0
Mn180 Mn 0.62394 0.49978 0.0864 0.0
Mn181 Mn 0.63851 0.43386 0.10191 0.0
C182 C 0.58852 0.46817 0.09162 0.0
C183 C 0.61869 0.53253 0.05197 0.0
C184 C 0.64414 0.48159 0.14237 0.0
O185 O 0.66461 0.49585 0.07709 0.0
O186 O 0.66973 0.44967 0.08053 0.0
C187 C 0.63972 0.4082 0.04641 0.0
N188 N 0.62866 0.40974 0.07223 0.0
C189 C 0.59628 0.37352 0.06194 0.0
C190 C 0.60741 0.37148 0.03529 0.0
C191 C 0.62923 0.38889 0.02752 0.0
C192 C 0.60782 0.39291 0.08002 0.0
H193 H 0.65628 0.42174 0.0402 0.0
C194 C 0.67813 0.47361 0.07288 0.0
O195 O 0.62422 0.54009 0.07713 0.0
O196 O 0.61602 0.50641 0.04713 0.0
N197 N 0.6087 0.41694 0.12164 0.0
C198 C 0.59891 0.4229 0.14734 0.0
C199 C 0.57637 0.40803 0.15782 0.0
C200 C 0.56408 0.38725 0.14178 0.0
C201 C 0.57448 0.38149 0.1154 0.0
C202 C 0.59718 0.39679 0.10614 0.0
H203 H 0.6081 0.43896 0.15972 0.0
O204 O 0.58347 0.4944 0.09386 0.0
O205 O 0.61403 0.46182 0.08694 0.0
O206 O 0.63273 0.50001 0.12743 0.0
O207 O 0.64874 0.45695 0.13407 0.0
C208 C 0.56278 0.36162 0.09768 0.0
C209 C 0.57369 0.35762 0.07098 0.0
H210 H 0.59916 0.35684 0.02054 0.0
H211 H 0.63782 0.38756 0.00693 0.0
H212 H 0.56838 0.41268 0.17816 0.0
H213 H 0.54651 0.37602 0.14984 0.0
H214 H 0.54516 0.34955 0.10424 0.0
H215 H 0.56426 0.34256 0.0574 0.0
Mn216 Mn 0.36467 0.96684 0.39475 0.0
Mn217 Mn 0.34157 0.90459 0.37497 0.0
C218 C 0.39605 0.93321 0.38182 0.0
C219 C 0.37694 0.99605 0.43061 0.0
C220 C 0.33628 0.95672 0.34031 0.0
O221 O 0.32542 0.96552 0.40907 0.0
O222 O 0.31484 0.92078 0.40182 0.0
C223 C 0.34353 0.87265 0.42712 0.0
N224 N 0.35178 0.87619 0.40046 0.0
C225 C 0.37988 0.83524 0.40236 0.0
C226 C 0.37156 0.83111 0.42978 0.0
C227 C 0.35331 0.84991 0.4422 0.0
C228 C 0.36915 0.85808 0.38822 0.0
H229 H 0.32978 0.88719 0.4369 0.0
C230 C 0.31018 0.94441 0.41293 0.0
O231 O 0.36875 0.00594 0.40704 0.0
O232 O 0.37836 0.96944 0.433 0.0
N233 N 0.36687 0.88718 0.35003 0.0
C234 C 0.37463 0.89527 0.32422 0.0
C235 C 0.3938 0.87935 0.30942 0.0
C236 C 0.40487 0.85534 0.3213 0.0
C237 C 0.39669 0.84747 0.34792 0.0
C238 C 0.37733 0.86403 0.36161 0.0
H239 H 0.36641 0.91379 0.31501 0.0
O240 O 0.40291 0.95913 0.38121 0.0
O241 O 0.37088 0.92819 0.38954 0.0
O242 O 0.35095 0.97216 0.35563 0.0
O243 O 0.33018 0.93182 0.34655 0.0
C244 C 0.4074 0.82414 0.3616 0.0
C245 C 0.39897 0.81801 0.38879 0.0
H246 H 0.3793 0.81377 0.44159 0.0
H247 H 0.34694 0.84697 0.46341 0.0
H248 H 0.40013 0.88565 0.28894 0.0
H249 H 0.41982 0.84323 0.30989 0.0
H250 H 0.42239 0.81097 0.35152 0.0
H251 H 0.40764 0.80024 0.39922 0.0
Mn252 Mn 0.61906 0.51262 0.39566 0.0
Mn253 Mn 0.63491 0.57809 0.37926 0.0
C254 C 0.58398 0.54357 0.38649 0.0
C255 C 0.61367 0.4803 0.4304 0.0
C256 C 0.6427 0.5291 0.34068 0.0
O257 O 0.65908 0.51686 0.40686 0.0
O258 O 0.66425 0.56295 0.40385 0.0
C259 C 0.6318 0.60559 0.43382 0.0
N260 N 0.62322 0.60355 0.40711 0.0
C261 C 0.59224 0.64199 0.41276 0.0
C262 C 0.60096 0.64465 0.44023 0.0
C263 C 0.6208 0.62633 0.45081 0.0
C264 C 0.60422 0.62114 0.39668 0.0
H265 H 0.6468 0.59139 0.44218 0.0
C266 C 0.67202 0.53909 0.41236 0.0
O267 O 0.62011 0.47265 0.40551 0.0
O268 O 0.6093 0.50637 0.43467 0.0
N269 N 0.60708 0.59477 0.35658 0.0
C270 C 0.59877 0.58768 0.33065 0.0
C271 C 0.57786 0.60297 0.31765 0.0
C272 C 0.56563 0.62534 0.33143 0.0
C273 C 0.5744 0.63221 0.35815 0.0
C274 C 0.59554 0.61639 0.36997 0.0
H275 H 0.60784 0.57037 0.32 0.0
O276 O 0.5792 0.5172 0.38554 0.0
O277 O 0.60888 0.55067 0.39328 0.0
O278 O 0.63004 0.51141 0.35538 0.0
O279 O 0.64735 0.55388 0.34856 0.0
C280 C 0.56248 0.65366 0.37375 0.0
C281 C 0.57143 0.65859 0.40102 0.0
H282 H 0.59226 0.6604 0.45351 0.0
H283 H 0.62745 0.62809 0.47207 0.0
H284 H 0.57106 0.59742 0.2971 0.0
H285 H 0.5493 0.6369 0.32144 0.0
H286 H 0.54607 0.66619 0.36516 0.0
H287 H 0.56173 0.6748 0.41299 0.0
Mn288 Mn 0.09813 0.37292 0.01912 0.0
Mn289 Mn 0.11668 0.35227 0.08259 0.0
C290 C 0.10889 0.4055 0.05242 0.0
C291 C 0.06265 0.38382 0.98898 0.0
C292 C 0.15278 0.34595 0.03156 0.0
O293 O 0.08479 0.33328 0.02123 0.0
O294 O 0.09108 0.32437 0.06656 0.0
C295 C 0.06365 0.35405 0.11296 0.0
N296 N 0.09009 0.36304 0.10973 0.0
C297 C 0.08584 0.3936 0.14868 0.0
C298 C 0.0586 0.38462 0.15243 0.0
C299 C 0.04747 0.36474 0.13451 0.0
C300 C 0.10111 0.38193 0.12707 0.0
H301 H 0.05486 0.33903 0.09907 0.0
C302 C 0.08082 0.31861 0.04278 0.0
O303 O 0.08658 0.37609 0.97962 0.0
O304 O 0.05964 0.38541 0.01551 0.0
N305 N 0.14044 0.3789 0.09962 0.0
C306 C 0.16637 0.38676 0.0921 0.0
C307 C 0.18004 0.40727 0.10734 0.0
C308 C 0.16692 0.41955 0.13008 0.0
C309 C 0.14022 0.41118 0.13741 0.0
C310 C 0.12769 0.39047 0.12161 0.0
H311 H 0.17652 0.37761 0.07452 0.0
O312 O 0.11028 0.41183 0.02639 0.0
O313 O 0.10209 0.38016 0.05759 0.0
O314 O 0.13775 0.36002 0.01523 0.0
O315 O 0.14598 0.34056 0.05649 0.0
C316 C 0.12534 0.42298 0.15945 0.0
C317 C 0.09819 0.41417 0.1651 0.0
H318 H 0.04594 0.39305 0.16884 0.0
H319 H 0.02641 0.35781 0.13718 0.0
H320 H 0.20061 0.4137 0.10148 0.0
H321 H 0.17745 0.43552 0.14164 0.0
H322 H 0.13449 0.43907 0.172 0.0
H323 H 0.08685 0.42363 0.1819 0.0
Mn324 Mn 0.08863 0.61935 0.49532 0.0
Mn325 Mn 0.10963 0.63936 0.43253 0.0
C326 C 0.09878 0.58643 0.46216 0.0
C327 C 0.05147 0.61049 0.52401 0.0
C328 C 0.14444 0.64414 0.48467 0.0
O329 O 0.07748 0.65967 0.493 0.0
O330 O 0.08438 0.668 0.44767 0.0
C331 C 0.05763 0.63908 0.40038 0.0
N332 N 0.08368 0.62931 0.40452 0.0
C333 C 0.07977 0.59863 0.36563 0.0
C334 C 0.05293 0.6084 0.36095 0.0
C335 C 0.04184 0.62874 0.37838 0.0
C336 C 0.09469 0.60998 0.38765 0.0
H337 H 0.04886 0.65448 0.4139 0.0
C338 C 0.07415 0.67429 0.47131 0.0
O339 O 0.07543 0.61669 0.53438 0.0
O340 O 0.04947 0.60904 0.49739 0.0
N341 N 0.13318 0.61197 0.41636 0.0
C342 C 0.15864 0.60341 0.42474 0.0
C343 C 0.1722 0.58242 0.41005 0.0
C344 C 0.15944 0.57039 0.38697 0.0
C345 C 0.13324 0.5795 0.37874 0.0
C346 C 0.12082 0.60068 0.39402 0.0
H347 H 0.16851 0.61239 0.44256 0.0
O348 O 0.0989 0.57979 0.48815 0.0
O349 O 0.09345 0.61211 0.45706 0.0
O350 O 0.12877 0.63014 0.50045 0.0
O351 O 0.13823 0.65018 0.45972 0.0
C352 C 0.11872 0.568 0.35632 0.0
C353 C 0.09203 0.57757 0.34975 0.0
H354 H 0.04056 0.60024 0.3442 0.0
H355 H 0.02109 0.63629 0.37499 0.0
H356 H 0.19238 0.57543 0.41659 0.0
H357 H 0.16987 0.55403 0.37584 0.0
H358 H 0.12778 0.55155 0.34417 0.0
H359 H 0.08094 0.56833 0.33266 0.0
Mn360 Mn 0.90427 0.86128 0.50085 0.0
Mn361 Mn 0.88761 0.84783 0.43494 0.0
C362 C 0.89841 0.89731 0.47002 0.0
C363 C 0.93931 0.8657 0.5331 0.0
C364 C 0.848 0.84149 0.4833 0.0
O365 O 0.91342 0.82072 0.4961 0.0
O366 O 0.90928 0.81628 0.4499 0.0
C367 C 0.94258 0.8468 0.40819 0.0
N368 N 0.91681 0.85788 0.41034 0.0
C369 C 0.9263 0.89037 0.37397 0.0
C370 C 0.95286 0.87918 0.37127 0.0
C371 C 0.96102 0.85731 0.38847 0.0
C372 C 0.90867 0.8788 0.39375 0.0
H373 H 0.94911 0.83023 0.42157 0.0
C374 C 0.91732 0.80753 0.47361 0.0
O375 O 0.91429 0.86012 0.54099 0.0
O376 O 0.94363 0.86905 0.50694 0.0
N377 N 0.86766 0.87795 0.41878 0.0
C378 C 0.84223 0.88792 0.42551 0.0
C379 C 0.83152 0.91067 0.41109 0.0
C380 C 0.84707 0.92299 0.38997 0.0
C381 C 0.87321 0.91244 0.38344 0.0
C382 C 0.88271 0.88954 0.39833 0.0
H383 H 0.83025 0.87873 0.44187 0.0
O384 O 0.89664 0.90179 0.4964 0.0
O385 O 0.90308 0.87194 0.46303 0.0
O386 O 0.86331 0.85246 0.50166 0.0
O387 O 0.85581 0.83737 0.45841 0.0
C388 C 0.89045 0.92414 0.36316 0.0
C389 C 0.91696 0.91309 0.3584 0.0
H390 H 0.96727 0.88746 0.35632 0.0
H391 H 0.98156 0.8487 0.38666 0.0
H392 H 0.81139 0.91878 0.41635 0.0
H393 H 0.83884 0.9407 0.37907 0.0
H394 H 0.88367 0.94189 0.35136 0.0
H395 H 0.93018 0.92252 0.34304 0.0
Mn396 Mn 0.39421 0.62941 0.49561 0.0
Mn397 Mn 0.38833 0.63271 0.5647 0.0
C398 C 0.39009 0.58931 0.52132 0.0
C399 C 0.42292 0.62787 0.45758 0.0
C400 C 0.34258 0.64876 0.5249 0.0
O401 O 0.40777 0.66794 0.50499 0.0
O402 O 0.40935 0.66537 0.5515 0.0
C403 C 0.44698 0.62669 0.58097 0.0
N404 N 0.42044 0.61745 0.58194 0.0
C405 C 0.43352 0.57904 0.61064 0.0
C406 C 0.46093 0.58824 0.61006 0.0
C407 C 0.46768 0.61216 0.59513 0.0
C408 C 0.41371 0.59447 0.59627 0.0
H409 H 0.45236 0.64491 0.56933 0.0
C410 C 0.41522 0.67722 0.52853 0.0
O411 O 0.39769 0.6366 0.45508 0.0
O412 O 0.4312 0.62005 0.48176 0.0
N413 N 0.36928 0.60126 0.57927 0.0
C414 C 0.34237 0.5938 0.57589 0.0
C415 C 0.3325 0.56978 0.58874 0.0
C416 C 0.35037 0.55363 0.60488 0.0
C417 C 0.378 0.56163 0.608 0.0
C418 C 0.38661 0.58593 0.59491 0.0
H419 H 0.32855 0.60598 0.56338 0.0
O420 O 0.38397 0.58911 0.49521 0.0
O421 O 0.39757 0.613 0.53104 0.0
O422 O 0.35465 0.64081 0.50293 0.0
O423 O 0.35384 0.64808 0.54879 0.0
C424 C 0.39747 0.54607 0.62299 0.0
C425 C 0.42521 0.55475 0.62429 0.0
H426 H 0.47701 0.57694 0.62073 0.0
H427 H 0.48883 0.61929 0.59443 0.0
H428 H 0.31119 0.56366 0.5861 0.0
H429 H 0.34274 0.53496 0.61453 0.0
H430 H 0.39143 0.52712 0.63321 0.0
H431 H 0.4401 0.54233 0.63545 0.0
Mn432 Mn 0.49945 0.59295 0.85193 0.0
Mn433 Mn 0.56484 0.61209 0.83898 0.0
C434 C 0.52876 0.60293 0.88826 0.0
C435 C 0.46847 0.55689 0.85702 0.0
C436 C 0.5149 0.64916 0.82999 0.0
O437 O 0.50569 0.58182 0.81203 0.0
O438 O 0.55164 0.58797 0.80843 0.0
C439 C 0.59383 0.55831 0.84181 0.0
N440 N 0.5906 0.58469 0.85103 0.0
C441 C 0.62747 0.5791 0.88388 0.0
C442 C 0.63134 0.55198 0.87454 0.0
C443 C 0.61442 0.54155 0.85344 0.0
C444 C 0.60687 0.59499 0.87124 0.0
H445 H 0.58069 0.55005 0.82584 0.0
C446 C 0.52865 0.5782 0.79965 0.0
O447 O 0.4599 0.5813 0.84991 0.0
O448 O 0.49462 0.55379 0.86168 0.0
N449 N 0.5797 0.63452 0.868 0.0
C450 C 0.57167 0.66013 0.87644 0.0
C451 C 0.58561 0.67297 0.89837 0.0
C452 C 0.60761 0.65936 0.91145 0.0
C453 C 0.61548 0.633 0.90248 0.0
C454 C 0.60102 0.62133 0.88032 0.0
H455 H 0.55465 0.67065 0.86669 0.0
O456 O 0.50223 0.6031 0.89202 0.0
O457 O 0.53694 0.59669 0.86355 0.0
O458 O 0.49705 0.63335 0.84103 0.0
O459 O 0.54015 0.64227 0.82646 0.0
C460 C 0.63664 0.61757 0.91515 0.0
C461 C 0.64265 0.59065 0.90583 0.0
H462 H 0.64697 0.53886 0.8837 0.0
H463 H 0.61713 0.52056 0.84628 0.0
H464 H 0.5793 0.69326 0.90528 0.0
H465 H 0.6181 0.66921 0.92856 0.0
H466 H 0.6481 0.62603 0.93238 0.0
H467 H 0.65863 0.57881 0.91607 0.0
Mn468 Mn 0.50421 0.90254 0.86477 0.0
Mn469 Mn 0.43586 0.89268 0.85904 0.0
C470 C 0.47721 0.89827 0.90406 0.0
C471 C 0.53993 0.93422 0.86673 0.0
C472 C 0.4789 0.84903 0.8453 0.0
O473 O 0.49551 0.91419 0.82539 0.0
O474 O 0.44893 0.91407 0.82665 0.0
C475 C 0.41539 0.95013 0.86348 0.0
N476 N 0.41604 0.92375 0.87323 0.0
C477 C 0.3854 0.93542 0.91057 0.0
C478 C 0.38431 0.96265 0.90084 0.0
C479 C 0.39939 0.97003 0.8772 0.0
C480 C 0.40153 0.91641 0.89591 0.0
H481 H 0.42712 0.95599 0.84546 0.0
C482 C 0.47196 0.92052 0.81529 0.0
O483 O 0.54474 0.90891 0.85924 0.0
O484 O 0.51487 0.94077 0.87321 0.0
N485 N 0.42153 0.87306 0.89026 0.0
C486 C 0.42637 0.8465 0.89816 0.0
C487 C 0.41359 0.83616 0.92203 0.0
C488 C 0.39602 0.85321 0.93756 0.0
C489 C 0.39136 0.88047 0.92906 0.0
C490 C 0.40446 0.88958 0.90495 0.0
H491 H 0.43994 0.83331 0.88642 0.0
O492 O 0.50359 0.89377 0.90548 0.0
O493 O 0.46808 0.90419 0.87971 0.0
O494 O 0.49988 0.86207 0.85443 0.0
O495 O 0.45456 0.85929 0.84461 0.0
C496 C 0.37473 0.89915 0.94393 0.0
C497 C 0.37176 0.9266 0.93469 0.0
H498 H 0.37223 0.97813 0.91153 0.0
H499 H 0.39881 0.99105 0.86967 0.0
H500 H 0.41738 0.81512 0.92852 0.0
H501 H 0.38641 0.84522 0.9561 0.0
H502 H 0.36446 0.89273 0.96272 0.0
H503 H 0.35928 0.94088 0.94654 0.0
Mn504 Mn 0.51655 0.39468 0.62109 0.0
Mn505 Mn 0.57823 0.37569 0.64632 0.0
C506 C 0.55127 0.3815 0.59108 0.0
C507 C 0.48795 0.43005 0.60634 0.0
C508 C 0.52638 0.34053 0.65032 0.0
O509 O 0.51649 0.41001 0.65996 0.0
O510 O 0.56059 0.40206 0.67267 0.0
C511 C 0.60893 0.42856 0.64548 0.0
N512 N 0.60625 0.40188 0.63698 0.0
C513 C 0.64759 0.40504 0.60962 0.0
C514 C 0.65085 0.43248 0.61821 0.0
C515 C 0.63143 0.44428 0.63621 0.0
C516 C 0.62495 0.39025 0.61982 0.0
H517 H 0.59391 0.43787 0.65901 0.0
C518 C 0.53688 0.4134 0.67628 0.0
O519 O 0.4776 0.40684 0.61494 0.0
O520 O 0.51458 0.4324 0.60627 0.0
N521 N 0.59695 0.35126 0.62146 0.0
C522 C 0.58975 0.32528 0.61345 0.0
C523 C 0.60646 0.31097 0.59459 0.0
C524 C 0.63033 0.32354 0.58404 0.0
C525 C 0.63725 0.35035 0.59242 0.0
C526 C 0.61993 0.36352 0.61146 0.0
H527 H 0.57129 0.31558 0.62122 0.0
O528 O 0.52557 0.38017 0.58354 0.0
O529 O 0.55537 0.38969 0.61627 0.0
O530 O 0.51097 0.35593 0.63566 0.0
O531 O 0.55124 0.34669 0.65663 0.0
C532 C 0.66038 0.3647 0.58221 0.0
C533 C 0.66557 0.39201 0.59083 0.0
H534 H 0.66802 0.44477 0.61088 0.0
H535 H 0.6337 0.46551 0.64278 0.0
H536 H 0.60087 0.29035 0.58808 0.0
H537 H 0.64306 0.31251 0.56932 0.0
H538 H 0.67415 0.35503 0.56748 0.0
H539 H 0.68323 0.40295 0.58258 0.0
Mn540 Mn 0.48795 0.09 0.62555 0.0
Mn541 Mn 0.42217 0.1044 0.64161 0.0
C542 C 0.45565 0.09496 0.5907 0.0
C543 C 0.52116 0.05618 0.61967 0.0
C544 C 0.46946 0.14541 0.64674 0.0
O545 O 0.48502 0.08042 0.66618 0.0
O546 O 0.43892 0.08285 0.67236 0.0
C547 C 0.39697 0.04874 0.64307 0.0
N548 N 0.39812 0.0746 0.63207 0.0
C549 C 0.36119 0.06426 0.60048 0.0
C550 C 0.35957 0.03757 0.61154 0.0
C551 C 0.37753 0.0298 0.63294 0.0
C552 C 0.38074 0.08239 0.61165 0.0
H553 H 0.41093 0.04252 0.65929 0.0
C554 C 0.46321 0.07558 0.68014 0.0
O555 O 0.52838 0.08142 0.62517 0.0
O556 O 0.49509 0.05094 0.61724 0.0
N557 N 0.40444 0.12418 0.61228 0.0
C558 C 0.41003 0.14993 0.60244 0.0
C559 C 0.39463 0.16039 0.58022 0.0
C560 C 0.37372 0.14428 0.56827 0.0
C561 C 0.36837 0.11782 0.57869 0.0
C562 C 0.38421 0.10858 0.60105 0.0
H563 H 0.4262 0.16236 0.61135 0.0
O564 O 0.48176 0.09777 0.58532 0.0
O565 O 0.44976 0.08996 0.6163 0.0
O566 O 0.48776 0.13086 0.63471 0.0
O567 O 0.44502 0.1368 0.65173 0.0
C568 C 0.34834 0.10005 0.56736 0.0
C569 C 0.34472 0.07331 0.57827 0.0
H570 H 0.34483 0.02279 0.60356 0.0
H571 H 0.37653 0.00917 0.64147 0.0
H572 H 0.39898 0.18079 0.57222 0.0
H573 H 0.36207 0.15233 0.55097 0.0
H574 H 0.33583 0.10663 0.55002 0.0
H575 H 0.32951 0.05971 0.56914 0.0
Mn576 Mn 0.84627 0.49863 0.5917 0.0
Mn577 Mn 0.83384 0.56428 0.61031 0.0
C578 C 0.88279 0.52822 0.59992 0.0
C579 C 0.85091 0.4671 0.55602 0.0
C580 C 0.82605 0.51489 0.64834 0.0
O581 O 0.80611 0.50466 0.58157 0.0
O582 O 0.80257 0.5507 0.58738 0.0
C583 C 0.83466 0.59262 0.5561 0.0
N584 N 0.8449 0.58965 0.58214 0.0
C585 C 0.87765 0.62626 0.57482 0.0
C586 C 0.86727 0.62985 0.54803 0.0
C587 C 0.84571 0.61293 0.53863 0.0
C588 C 0.86556 0.60593 0.59145 0.0
H589 H 0.81834 0.57946 0.54861 0.0
C590 C 0.79362 0.52759 0.57801 0.0
O591 O 0.84439 0.45886 0.5807 0.0
O592 O 0.85498 0.49326 0.55234 0.0
N593 N 0.86367 0.57937 0.63148 0.0
C594 C 0.87309 0.5716 0.65683 0.0
C595 C 0.89559 0.58553 0.66862 0.0
C596 C 0.90825 0.60724 0.65421 0.0
C597 C 0.8983 0.61482 0.62811 0.0
C598 C 0.87562 0.60037 0.61751 0.0
H599 H 0.86368 0.55477 0.66794 0.0
O600 O 0.88658 0.5017 0.60065 0.0
O601 O 0.85785 0.53619 0.59444 0.0
O602 O 0.83654 0.49679 0.63242 0.0
O603 O 0.82238 0.54007 0.64126 0.0
C604 C 0.91044 0.63571 0.61193 0.0
C605 C 0.90009 0.64145 0.58533 0.0
H606 H 0.87597 0.64526 0.53437 0.0
H607 H 0.83775 0.6154 0.5179 0.0
H608 H 0.90326 0.57944 0.6887 0.0
H609 H 0.92578 0.61775 0.66326 0.0
H610 H 0.92803 0.64719 0.61958 0.0
H611 H 0.9099 0.65724 0.5729 0.0
Mn612 Mn 0.14051 0.97816 0.59862 0.0
Mn613 Mn 0.15691 0.91338 0.61722 0.0
C614 C 0.10573 0.94698 0.60859 0.0
C615 C 0.13337 0.00949 0.56312 0.0
C616 C 0.1642 0.96355 0.65431 0.0
O617 O 0.18048 0.97383 0.58685 0.0
O618 O 0.18624 0.92799 0.59242 0.0
C619 C 0.15467 0.88386 0.56368 0.0
N620 N 0.14563 0.88693 0.59015 0.0
C621 C 0.11463 0.84843 0.58538 0.0
C622 C 0.12379 0.84473 0.55818 0.0
C623 C 0.14387 0.86255 0.54728 0.0
C624 C 0.12642 0.8698 0.6009 0.0
H625 H 0.16984 0.89768 0.55506 0.0
C626 C 0.19372 0.95144 0.58261 0.0
O627 O 0.14049 0.01789 0.58759 0.0
O628 O 0.12995 0.98319 0.55958 0.0
N629 N 0.12898 0.89735 0.6402 0.0
C630 C 0.12056 0.90516 0.66589 0.0
C631 C 0.0995 0.89034 0.67915 0.0
C632 C 0.08726 0.86768 0.66588 0.0
C633 C 0.09619 0.86004 0.63943 0.0
C634 C 0.11744 0.87544 0.62732 0.0
H635 H 0.12969 0.92265 0.67618 0.0
O636 O 0.10079 0.97333 0.60925 0.0
O637 O 0.13076 0.94007 0.60209 0.0
O638 O 0.15179 0.9808 0.63886 0.0
O639 O 0.16894 0.93858 0.6472 0.0
C640 C 0.08439 0.83814 0.62439 0.0
C641 C 0.09364 0.8323 0.5974 0.0
H642 H 0.11526 0.82853 0.54534 0.0
H643 H 0.15088 0.85998 0.52622 0.0
H644 H 0.09262 0.89646 0.69951 0.0
H645 H 0.07085 0.85645 0.67609 0.0
H646 H 0.06792 0.8259 0.63322 0.0
H647 H 0.0841 0.81569 0.58587 0.0
Mn648 Mn 0.86657 0.50135 0.90134 0.0
Mn649 Mn 0.85704 0.43351 0.89099 0.0
C650 C 0.90434 0.47252 0.89597 0.0
C651 C 0.87012 0.53651 0.93355 0.0
C652 C 0.84496 0.47771 0.84797 0.0
O653 O 0.82694 0.49463 0.91316 0.0
O654 O 0.82584 0.44807 0.91326 0.0
C655 C 0.86145 0.41191 0.94804 0.0
N656 N 0.87068 0.41242 0.92147 0.0
C657 C 0.9063 0.37934 0.93184 0.0
C658 C 0.89709 0.37841 0.95926 0.0
C659 C 0.87458 0.39477 0.96739 0.0
C660 C 0.89223 0.39662 0.91338 0.0
H661 H 0.84432 0.42463 0.95448 0.0
C662 C 0.81574 0.4717 0.91974 0.0
O663 O 0.86286 0.54199 0.90829 0.0
O664 O 0.87577 0.51113 0.93967 0.0
N665 N 0.88695 0.4177 0.8705 0.0
C666 C 0.89463 0.42255 0.84387 0.0
C667 C 0.9175 0.40858 0.83284 0.0
C668 C 0.93227 0.38979 0.84927 0.0
C669 C 0.92401 0.38513 0.87661 0.0
C670 C 0.90089 0.39946 0.88642 0.0
H671 H 0.88349 0.43705 0.83115 0.0
O672 O 0.90702 0.49889 0.89202 0.0
O673 O 0.87975 0.46444 0.90244 0.0
O674 O 0.85563 0.498 0.86092 0.0
O675 O 0.84296 0.45342 0.85815 0.0
C676 C 0.93822 0.36732 0.8947 0.0
C677 C 0.92937 0.36443 0.92229 0.0
H678 H 0.90736 0.36545 0.97433 0.0
H679 H 0.86745 0.39428 0.98856 0.0
H680 H 0.92382 0.41237 0.81175 0.0
H681 H 0.95006 0.37926 0.84076 0.0
H682 H 0.95623 0.35606 0.88773 0.0
H683 H 0.94074 0.35103 0.93613 0.0
Mn684 Mn 0.13197 0.00942 0.90595 0.0
Mn685 Mn 0.14761 0.07371 0.88528 0.0
C686 C 0.09695 0.04054 0.89642 0.0
C687 C 0.12529 0.97918 0.94241 0.0
C688 C 0.1546 0.02259 0.84943 0.0
O689 O 0.17218 0.01407 0.91675 0.0
O690 O 0.17793 0.0597 0.90926 0.0
C691 C 0.14694 0.10422 0.93828 0.0
N692 N 0.1369 0.10048 0.91227 0.0
C693 C 0.10473 0.13794 0.91789 0.0
C694 C 0.11486 0.14228 0.94466 0.0
C695 C 0.13606 0.12535 0.95488 0.0
C696 C 0.11666 0.11682 0.90213 0.0
H697 H 0.16297 0.09106 0.94641 0.0
C698 C 0.18575 0.03651 0.91949 0.0
O699 O 0.13197 0.97 0.9181 0.0
O700 O 0.1222 0.00559 0.94527 0.0
N701 N 0.1187 0.08899 0.86299 0.0
C702 C 0.10965 0.08068 0.83768 0.0
C703 C 0.08767 0.09473 0.82504 0.0
C704 C 0.07514 0.1171 0.83857 0.0
C705 C 0.08473 0.12524 0.86464 0.0
C706 C 0.10692 0.11065 0.8761 0.0
H707 H 0.11896 0.06336 0.82725 0.0
O708 O 0.09194 0.0142 0.89616 0.0
O709 O 0.12224 0.04731 0.90179 0.0
O710 O 0.14262 0.0057 0.8656 0.0
O711 O 0.15892 0.04791 0.85553 0.0
C712 C 0.0727 0.14683 0.87997 0.0
C713 C 0.08271 0.1532 0.90656 0.0
H714 H 0.10628 0.15833 0.95766 0.0
H715 H 0.14385 0.12844 0.9756 0.0
H716 H 0.08028 0.08822 0.80499 0.0
H717 H 0.058 0.1277 0.82888 0.0
H718 H 0.05547 0.15842 0.87166 0.0
H719 H 0.07301 0.16957 0.91831 0.0
Mn720 Mn 0.59324 0.8577 0.50266 0.0
Mn721 Mn 0.60676 0.84532 0.56956 0.0
C722 C 0.60044 0.89432 0.5324 0.0
C723 C 0.55953 0.86191 0.469 0.0
C724 C 0.64784 0.8359 0.52296 0.0
O725 O 0.5821 0.81775 0.50832 0.0
O726 O 0.58365 0.81478 0.55472 0.0
C727 C 0.5509 0.84858 0.59419 0.0
N728 N 0.57744 0.85776 0.59289 0.0
C729 C 0.56907 0.89102 0.62885 0.0
C730 C 0.54172 0.88178 0.63068 0.0
C731 C 0.5326 0.86048 0.61326 0.0
C732 C 0.58649 0.87813 0.60969 0.0
H733 H 0.54368 0.83241 0.58067 0.0
C734 C 0.5762 0.80569 0.53097 0.0
O735 O 0.58463 0.8552 0.46229 0.0
O736 O 0.55448 0.86689 0.49478 0.0
N737 N 0.62806 0.8744 0.58586 0.0
C738 C 0.6543 0.88257 0.5799 0.0
C739 C 0.66607 0.90459 0.59459 0.0
C740 C 0.65078 0.91802 0.61524 0.0
C741 C 0.62382 0.90929 0.62102 0.0
C742 C 0.61324 0.88704 0.60588 0.0
H743 H 0.66615 0.87251 0.56397 0.0
O744 O 0.60268 0.89792 0.50592 0.0
O745 O 0.59382 0.86961 0.5402 0.0
O746 O 0.6338 0.84715 0.50375 0.0
O747 O 0.6387 0.83237 0.54749 0.0
C748 C 0.60681 0.92223 0.64075 0.0
C749 C 0.57948 0.91308 0.64469 0.0
H750 H 0.52745 0.89113 0.64514 0.0
H751 H 0.51147 0.85337 0.61441 0.0
H752 H 0.68685 0.9113 0.58992 0.0
H753 H 0.65985 0.93518 0.62633 0.0
H754 H 0.61441 0.93953 0.65269 0.0
H755 H 0.56646 0.9235 0.65959 0.0
Mn756 Mn 0.59747 0.13348 0.98008 0.0
Mn757 Mn 0.61735 0.15076 0.91583 0.0
C758 C 0.60974 0.0992 0.94916 0.0
C759 C 0.56167 0.1252 0.01077 0.0
C760 C 0.65259 0.15941 0.96711 0.0
O761 O 0.58421 0.17292 0.97547 0.0
O762 O 0.59134 0.17939 0.92992 0.0
C763 C 0.56465 0.14701 0.88502 0.0
N764 N 0.59133 0.13886 0.88862 0.0
C765 C 0.58864 0.10827 0.84955 0.0
C766 C 0.56124 0.11655 0.84528 0.0
C767 C 0.54919 0.13597 0.86313 0.0
C768 C 0.60318 0.12028 0.87148 0.0
H769 H 0.55515 0.16165 0.89885 0.0
C770 C 0.58055 0.18636 0.95311 0.0
O771 O 0.58567 0.13332 0.01952 0.0
O772 O 0.55881 0.12128 0.98442 0.0
N773 N 0.64156 0.12364 0.90021 0.0
C774 C 0.66717 0.11576 0.90878 0.0
C775 C 0.68148 0.09528 0.89409 0.0
C776 C 0.66932 0.08305 0.8708 0.0
C777 C 0.64289 0.09136 0.86244 0.0
C778 C 0.6297 0.11205 0.87774 0.0
H779 H 0.67656 0.12483 0.92681 0.0
O780 O 0.60991 0.09426 0.97553 0.0
O781 O 0.60236 0.12395 0.94203 0.0
O782 O 0.637 0.14653 0.98384 0.0
O783 O 0.64635 0.16361 0.9418 0.0
C784 C 0.62885 0.07941 0.83994 0.0
C785 C 0.60177 0.0879 0.83347 0.0
H786 H 0.54913 0.10782 0.82863 0.0
H787 H 0.52797 0.14227 0.86013 0.0
H788 H 0.7018 0.08884 0.90079 0.0
H789 H 0.68032 0.06707 0.85968 0.0
H790 H 0.63854 0.06336 0.82775 0.0
H791 H 0.59101 0.07821 0.81642 0.0
Mn792 Mn 0.39762 0.36272 0.96727 0.0
Mn793 Mn 0.37565 0.33836 0.90615 0.0
C794 C 0.38434 0.39328 0.93307 0.0
C795 C 0.434 0.37564 0.99546 0.0
C796 C 0.34218 0.33547 0.95918 0.0
O797 O 0.41137 0.32328 0.96673 0.0
O798 O 0.40175 0.31109 0.9228 0.0
C799 C 0.42745 0.3376 0.87364 0.0
N800 N 0.40108 0.34676 0.87713 0.0
C801 C 0.40345 0.37354 0.83533 0.0
C802 C 0.43053 0.3642 0.8312 0.0
C803 C 0.44257 0.34617 0.85045 0.0
C804 C 0.38922 0.36397 0.85862 0.0
H805 H 0.43697 0.32405 0.88853 0.0
C806 C 0.41367 0.30699 0.94616 0.0
O807 O 0.4106 0.3679 0.00597 0.0
O808 O 0.43607 0.37603 0.96876 0.0
N809 N 0.3514 0.36401 0.88826 0.0
C810 C 0.32611 0.37312 0.89655 0.0
C811 C 0.3118 0.39235 0.88025 0.0
C812 C 0.32368 0.40214 0.85569 0.0
C813 C 0.34981 0.39265 0.84768 0.0
C814 C 0.36299 0.37327 0.86462 0.0
H815 H 0.31699 0.36599 0.91555 0.0
O816 O 0.38437 0.40088 0.9588 0.0
O817 O 0.39161 0.36788 0.92854 0.0
O818 O 0.35856 0.3497 0.97392 0.0
O819 O 0.34721 0.32892 0.93412 0.0
C820 C 0.36355 0.40216 0.82388 0.0
C821 C 0.39033 0.39258 0.81769 0.0
H822 H 0.44239 0.37103 0.81352 0.0
H823 H 0.46354 0.33906 0.84753 0.0
H824 H 0.29173 0.39975 0.8867 0.0
H825 H 0.31267 0.41717 0.84331 0.0
H826 H 0.35385 0.41714 0.81039 0.0
H827 H 0.40084 0.40036 0.79955 0.0
Mn828 Mn 0.90269 0.13876 0.01418 0.0
Mn829 Mn 0.88408 0.15709 0.07838 0.0
C830 C 0.8938 0.10497 0.04682 0.0
C831 C 0.93829 0.13045 0.98329 0.0
C832 C 0.84681 0.16239 0.02806 0.0
O833 O 0.91396 0.17902 0.01697 0.0
O834 O 0.90808 0.18644 0.0626 0.0
C835 C 0.93768 0.15711 0.10783 0.0
N836 N 0.91154 0.14716 0.10499 0.0
C837 C 0.91751 0.11676 0.14384 0.0
C838 C 0.94443 0.12679 0.14724 0.0
C839 C 0.95455 0.14704 0.12915 0.0
C840 C 0.90151 0.12783 0.12244 0.0
H841 H 0.94571 0.17243 0.0938 0.0
C842 C 0.91767 0.19328 0.03884 0.0
O843 O 0.91383 0.13703 0.97444 0.0
O844 O 0.94179 0.12845 0.00973 0.0
N845 N 0.86184 0.12912 0.09533 0.0
C846 C 0.83624 0.12007 0.08798 0.0
C847 C 0.82366 0.09892 0.10326 0.0
C848 C 0.83752 0.08723 0.12589 0.0
C849 C 0.86386 0.09682 0.13304 0.0
C850 C 0.87527 0.11813 0.1172 0.0
H851 H 0.82553 0.12879 0.07051 0.0
O852 O 0.89269 0.09909 0.02068 0.0
O853 O 0.89961 0.13044 0.05258 0.0
O854 O 0.86229 0.14954 0.01115 0.0
O855 O 0.85386 0.16777 0.05292 0.0
C856 C 0.87944 0.08566 0.15493 0.0
C857 C 0.90623 0.09565 0.16035 0.0
H858 H 0.95763 0.11884 0.16346 0.0
H859 H 0.97538 0.15475 0.13152 0.0
H860 H 0.80338 0.09155 0.09753 0.0
H861 H 0.82783 0.07075 0.13748 0.0
H862 H 0.87115 0.06915 0.16751 0.0
H863 H 0.91816 0.08664 0.17699 0.0
H864 H 0.14137 -0.00157 0.50911 0.0
H865 H 0.06295 0.13284 0.45645 0.0
H866 H 0.11682 0.06383 0.56429 0.0
H867 H 0.0872 0.06361 0.40619 0.0
H868 H 0.09006 0.11341 0.49496 0.0
H869 H 0.13005 0.0276 0.46993 0.0
C870 C 0.13366 0.01909 0.51291 0.0
C871 C 0.12948 0.02861 0.53986 0.0
C872 C 0.09013 0.10303 0.47516 0.0
C873 C 0.11587 0.06213 0.49504 0.0
C874 C 0.0748 0.11414 0.45325 0.0
C875 C 0.07365 0.10024 0.42789 0.0
C876 C 0.10385 0.07767 0.47157 0.0
C877 C 0.08854 0.07566 0.42494 0.0
C878 C 0.12725 0.03583 0.49054 0.0
C879 C 0.12004 0.05573 0.54371 0.0
N880 N 0.10287 0.06516 0.44647 0.0
N881 N 0.11299 0.07145 0.52147 0.0
H882 H 0.93012 0.35615 0.44237 0.0
H883 H 0.83503 0.47595 0.50349 0.0
H884 H 0.90486 0.4302 0.40009 0.0
H885 H 0.87468 0.41561 0.55553 0.0
H886 H 0.849 0.44973 0.46293 0.0
H887 H 0.90046 0.36937 0.48172 0.0
C888 C 0.91775 0.37474 0.44114 0.0
C889 C 0.91908 0.39172 0.41774 0.0
C890 C 0.85442 0.44193 0.48319 0.0
C891 C 0.88577 0.40699 0.46219 0.0
C892 C 0.84638 0.45686 0.5063 0.0
C893 C 0.85422 0.44808 0.53267 0.0
C894 C 0.87114 0.41846 0.48642 0.0
C895 C 0.86848 0.42304 0.53537 0.0
C896 C 0.90092 0.38225 0.46345 0.0
C897 C 0.90348 0.41599 0.41728 0.0
N898 N 0.87712 0.40931 0.51238 0.0
N899 N 0.8875 0.42286 0.4391 0.0
H900 H 0.04872 0.86494 0.05501 0.0
H901 H 0.13678 0.99061 0.99562 0.0
H902 H 0.0754 0.93637 0.10074 0.0
H903 H 0.10433 0.92644 0.94321 0.0
H904 H 0.12358 0.96396 0.03602 0.0
H905 H 0.07661 0.88077 0.01537 0.0
C906 C 0.06106 0.88348 0.0569 0.0
C907 C 0.06058 0.89898 0.08132 0.0
C908 C 0.11946 0.95545 0.01575 0.0
C909 C 0.09176 0.91735 0.03649 0.0
C910 C 0.12702 0.9707 0.9927 0.0
C911 C 0.12112 0.96086 0.96621 0.0
C912 C 0.10517 0.93046 0.01235 0.0
C913 C 0.10897 0.93474 0.96344 0.0
C914 C 0.07688 0.8925 0.0344 0.0
C915 C 0.07612 0.92325 0.08267 0.0
N916 N 0.1008 0.92058 0.98634 0.0
N917 N 0.091 0.93165 0.06063 0.0
H918 H 0.94426 0.64395 0.054 0.0
H919 H 0.84409 0.53475 0.98236 0.0
H920 H 0.91506 0.56772 0.08917 0.0
H921 H 0.90018 0.58447 0.93455 0.0
H922 H 0.85646 0.56096 0.02359 0.0
H923 H 0.91702 0.63412 0.01189 0.0
C924 C 0.93153 0.62561 0.05309 0.0
C925 C 0.93089 0.60708 0.07534 0.0
C926 C 0.86561 0.56661 0.00398 0.0
C927 C 0.90017 0.59586 0.02796 0.0
C928 C 0.85845 0.5518 0.9805 0.0
C929 C 0.87142 0.55742 0.95533 0.0
C930 C 0.88644 0.58665 0.00237 0.0
C931 C 0.88984 0.57965 0.95377 0.0
C932 C 0.91608 0.62006 0.02924 0.0
C933 C 0.91502 0.58313 0.07299 0.0
N934 N 0.8974 0.59317 0.97726 0.0
N935 N 0.9002 0.57829 0.04984 0.0
H936 H 0.39992 0.09247 0.06741 0.0
H937 H 0.56215 0.1173 0.06708 0.0
H938 H 0.45162 0.06535 0.13451 0.0
H939 H 0.50751 0.1251 0.99715 0.0
H940 H 0.52182 0.10862 0.09682 0.0
H941 H 0.43836 0.11736 0.04788 0.0
C942 C 0.41905 0.09294 0.07888 0.0
C943 C 0.42223 0.0777 0.10324 0.0
C944 C 0.51877 0.11253 0.07501 0.0
C945 C 0.46753 0.10392 0.07924 0.0
C946 C 0.54169 0.11742 0.05808 0.0
C947 C 0.5381 0.12144 0.02959 0.0
C948 C 0.49225 0.11218 0.0633 0.0
C949 C 0.51125 0.1216 0.01892 0.0
C950 C 0.44134 0.1066 0.06725 0.0
C951 C 0.44826 0.07732 0.11593 0.0
N952 N 0.48944 0.11695 0.03574 0.0
N953 N 0.47016 0.08988 0.10352 0.0
H954 H 0.53923 0.455 0.11683 0.0
H955 H 0.48776 0.37731 0.98053 0.0
H956 H 0.58739 0.44187 0.04322 0.0
H957 H 0.43369 0.39275 0.04961 0.0
H958 H 0.52629 0.39499 0.00719 0.0
H959 H 0.50163 0.42737 0.09624 0.0
C960 C 0.54196 0.4459 0.09659 0.0
C961 C 0.56652 0.4499 0.0819 0.0
C962 C 0.50607 0.3945 0.0167 0.0
C963 C 0.52406 0.41913 0.05823 0.0
C964 C 0.48404 0.38441 0.00142 0.0
C965 C 0.4575 0.38401 0.01277 0.0
C966 C 0.50152 0.40479 0.04344 0.0
C967 C 0.4539 0.39296 0.0401 0.0
C968 C 0.52065 0.43022 0.08488 0.0
C969 C 0.56906 0.43845 0.05553 0.0
N970 N 0.47568 0.4034 0.05448 0.0
N971 N 0.54815 0.42361 0.04458 0.0
H972 H 0.56006 0.8814 0.41551 0.0
H973 H 0.39851 0.89543 0.42231 0.0
H974 H 0.50747 0.84488 0.47726 0.0
H975 H 0.44503 0.92751 0.35375 0.0
H976 H 0.4376 0.86789 0.436 0.0
H977 H 0.51899 0.89059 0.38685 0.0
C978 C 0.53996 0.87476 0.42266 0.0
C979 C 0.53685 0.863 0.44892 0.0
C980 C 0.43936 0.88031 0.4175 0.0
C981 C 0.49027 0.87317 0.41662 0.0
C982 C 0.41662 0.89559 0.40927 0.0
C983 C 0.41804 0.91271 0.38608 0.0
C984 C 0.46456 0.88351 0.40359 0.0
C985 C 0.44299 0.914 0.37143 0.0
C986 C 0.51658 0.88001 0.40639 0.0
C987 C 0.51057 0.85462 0.45737 0.0
N988 N 0.46554 0.89994 0.38072 0.0
N989 N 0.48832 0.8601 0.44141 0.0
H990 H 0.46706 0.66038 0.44871 0.0
H991 H 0.57535 0.57855 0.42839 0.0
H992 H 0.42326 0.59037 0.41588 0.0
H993 H 0.53884 0.5497 0.35264 0.0
H994 H 0.53567 0.60818 0.43603 0.0
H995 H 0.50781 0.64684 0.42202 0.0
C996 C 0.46578 0.64277 0.43496 0.0
C997 C 0.4421 0.62631 0.43439 0.0
C998 C 0.53663 0.59621 0.41717 0.0
C999 C 0.48869 0.60984 0.40544 0.0
C1000 C 0.55929 0.57929 0.41284 0.0
C1001 C 0.56084 0.56285 0.38921 0.0
C1002 C 0.51472 0.59591 0.39823 0.0
C1003 C 0.53859 0.56288 0.37069 0.0
C1004 C 0.48903 0.63487 0.42007 0.0
C1005 C 0.44132 0.6035 0.41665 0.0
N1006 N 0.5161 0.57901 0.37576 0.0
N1007 N 0.46465 0.59546 0.40327 0.0
H1008 H 0.13516 0.45506 0.06174 0.0
H1009 H 0.00073 0.51077 0.13835 0.0
H1010 H 0.06418 0.40685 0.08487 0.0
H1011 H 0.06545 0.56518 0.11072 0.0
H1012 H 0.02994 0.47131 0.12825 0.0
H1013 H 0.11585 0.49448 0.08767 0.0
C1014 C 0.11607 0.45252 0.07308 0.0
C1015 C 0.10167 0.42745 0.07206 0.0
C1016 C 0.03801 0.49181 0.12448 0.0
C1017 C 0.07933 0.47209 0.10094 0.0
C1018 C 0.02126 0.51433 0.13021 0.0
C1019 C 0.03057 0.54109 0.12478 0.0
C1020 C 0.06407 0.49596 0.11248 0.0
C1021 C 0.05753 0.54471 0.11487 0.0
C1022 C 0.10504 0.47493 0.08774 0.0
C1023 C 0.07659 0.42534 0.08621 0.0
N1024 N 0.07325 0.52227 0.10844 0.0
N1025 N 0.06626 0.4473 0.09995 0.0
H1026 H 0.99213 0.4874 0.36629 0.0
H1027 H 0.12453 0.53692 0.45082 0.0
H1028 H 0.05627 0.43096 0.39136 0.0
H1029 H 0.05397 0.58691 0.43002 0.0
H1030 H 0.10546 0.49938 0.42204 0.0
H1031 H 0.02058 0.52587 0.38117 0.0
C1032 C 0.01236 0.48318 0.37486 0.0
C1033 C 0.02172 0.45607 0.37814 0.0
C1034 C 0.09462 0.51889 0.42325 0.0
C1035 C 0.05432 0.5 0.39587 0.0
C1036 C 0.10549 0.54019 0.43956 0.0
C1037 C 0.09118 0.56522 0.44194 0.0
C1038 C 0.06915 0.52278 0.40982 0.0
C1039 C 0.06621 0.56835 0.42779 0.0
C1040 C 0.02866 0.50514 0.38335 0.0
C1041 C 0.0483 0.45168 0.38878 0.0
N1042 N 0.05603 0.54745 0.41241 0.0
N1043 N 0.06358 0.47348 0.39782 0.0
H1044 H 0.94497 0.89876 0.44055 0.0
H1045 H 0.93527 0.0585 0.40194 0.0
H1046 H 0.87364 0.94775 0.46103 0.0
H1047 H 0.00562 0.00571 0.38776 0.0
H1048 H 0.90893 0.01796 0.41769 0.0
H1049 H 0.96371 0.93705 0.41456 0.0
C1050 C 0.9329 0.91751 0.43888 0.0
C1051 C 0.90734 0.9199 0.45201 0.0
C1052 C 0.93004 0.01534 0.41085 0.0
C1053 C 0.92951 0.96478 0.42374 0.0
C1054 C 0.94502 0.03838 0.40186 0.0
C1055 C 0.97275 0.03542 0.39399 0.0
C1056 C 0.94297 0.98938 0.41164 0.0
C1057 C 0.98445 0.00901 0.39411 0.0
C1058 C 0.94377 0.93957 0.42433 0.0
C1059 C 0.89322 0.94511 0.45059 0.0
N1060 N 0.96956 0.98712 0.40292 0.0
N1061 N 0.90459 0.96679 0.43673 0.0
H1062 H 0.36375 0.54044 0.53509 0.0
H1063 H 0.50338 0.48331 0.60222 0.0
H1064 H 0.44262 0.58153 0.53481 0.0
H1065 H 0.43363 0.42954 0.58902 0.0
H1066 H 0.47743 0.52129 0.58283 0.0
H1067 H 0.38564 0.50033 0.55815 0.0
C1068 C 0.38559 0.54088 0.53985 0.0
C1069 C 0.40142 0.56433 0.53392 0.0
C1070 C 0.46766 0.50123 0.584 0.0
C1071 C 0.42626 0.51931 0.55959 0.0
C1072 C 0.4825 0.47951 0.59518 0.0
C1073 C 0.47076 0.45319 0.59681 0.0
C1074 C 0.44087 0.49669 0.57395 0.0
C1075 C 0.44341 0.44959 0.58789 0.0
C1076 C 0.398 0.51819 0.55293 0.0
C1077 C 0.42963 0.56404 0.53983 0.0
N1078 N 0.42934 0.47115 0.5765 0.0
N1079 N 0.44107 0.54201 0.55245 0.0
H1080 H 0.63948 0.52822 0.00074 0.0
H1081 H 0.53406 0.63602 0.93419 0.0
H1082 H 0.58831 0.58037 0.05151 0.0
H1083 H 0.56312 0.56062 0.89706 0.0
H1084 H 0.56313 0.62622 0.97508 0.0
H1085 H 0.62331 0.55271 0.95983 0.0
C1086 C 0.62528 0.54534 0.00323 0.0
C1087 C 0.61482 0.55214 0.02927 0.0
C1088 C 0.56348 0.61225 0.95764 0.0
C1089 C 0.59545 0.57949 0.98267 0.0
C1090 C 0.54698 0.61776 0.9345 0.0
C1091 C 0.54715 0.59952 0.91204 0.0
C1092 C 0.57989 0.58831 0.95801 0.0
C1093 C 0.56336 0.57573 0.91353 0.0
C1094 C 0.61595 0.55919 0.97994 0.0
C1095 C 0.59668 0.57458 0.03161 0.0
N1096 N 0.57917 0.57089 0.93601 0.0
N1097 N 0.58695 0.58716 0.0084 0.0
H1098 H 0.40029 0.93889 0.06177 0.0
H1099 H 0.46061 0.95029 0.90866 0.0
H1100 H 0.39674 0.01107 0.00962 0.0
H1101 H 0.46322 0.8737 0.95382 0.0
H1102 H 0.43679 0.97192 0.94678 0.0
H1103 H 0.42188 0.91321 0.0235 0.0
C1104 C 0.40383 0.94922 0.04226 0.0
C1105 C 0.39702 0.97721 0.03889 0.0
C1106 C 0.44234 0.95035 0.94861 0.0
C1107 C 0.4216 0.94826 0.99552 0.0
C1108 C 0.4559 0.938 0.92675 0.0
C1109 C 0.46313 0.91011 0.92801 0.0
C1110 C 0.4361 0.93482 0.97224 0.0
C1111 C 0.45746 0.89522 0.95214 0.0
C1112 C 0.41619 0.93462 0.02054 0.0
C1113 C 0.40194 0.98965 0.01329 0.0
N1114 N 0.44399 0.90778 0.97346 0.0
N1115 N 0.41398 0.97514 0.99274 0.0
H1116 H 0.55909 0.3546 0.54184 0.0
H1117 H 0.62758 0.49099 0.48316 0.0
H1118 H 0.58693 0.42395 0.58997 0.0
H1119 H 0.59895 0.42542 0.43023 0.0
H1120 H 0.62277 0.46076 0.52284 0.0
H1121 H 0.58292 0.37403 0.50137 0.0
C1122 C 0.57128 0.37318 0.54418 0.0
C1123 C 0.57179 0.38726 0.56949 0.0
C1124 C 0.61765 0.45274 0.50261 0.0
C1125 C 0.59825 0.40989 0.52355 0.0
C1126 C 0.62026 0.4701 0.47997 0.0
C1127 C 0.61298 0.46081 0.45362 0.0
C1128 C 0.60691 0.42604 0.49906 0.0
C1129 C 0.60437 0.43336 0.45041 0.0
C1130 C 0.5847 0.38435 0.52112 0.0
C1131 C 0.58709 0.41168 0.57134 0.0
N1132 N 0.60097 0.41701 0.47304 0.0
N1133 N 0.59947 0.42227 0.5487 0.0
H1134 H 0.42762 0.04742 0.59068 0.0
H1135 H 0.38756 0.05195 0.43092 0.0
H1136 H 0.44502 0.11831 0.53993 0.0
H1137 H 0.3819 0.98067 0.48406 0.0
H1138 H 0.40176 0.07981 0.47102 0.0
H1139 H 0.40269 0.02653 0.55279 0.0
C1140 C 0.42538 0.05898 0.57168 0.0
C1141 C 0.43744 0.08501 0.56866 0.0
C1142 C 0.39718 0.05812 0.4738 0.0
C1143 C 0.41059 0.0603 0.52419 0.0
C1144 C 0.38911 0.04226 0.45101 0.0
C1145 C 0.38394 0.01392 0.45418 0.0
C1146 C 0.39974 0.04546 0.49978 0.0
C1147 C 0.38608 0.00234 0.48057 0.0
C1148 C 0.41152 0.04684 0.54982 0.0
C1149 C 0.43541 0.0984 0.54309 0.0
N1150 N 0.39387 0.01812 0.50225 0.0
N1151 N 0.42231 0.08578 0.52161 0.0
H1152 H 0.04856 0.58857 0.57648 0.0
H1153 H 0.88835 0.56132 0.55614 0.0
H1154 H -0.00126 0.62056 0.50996 0.0
H1155 H 0.93138 0.53371 0.62891 0.0
H1156 H 0.92826 0.58812 0.54278 0.0
H1157 H 0.0061 0.57338 0.60007 0.0
C1158 C 0.02868 0.59285 0.56718 0.0
C1159 C 0.02699 0.60527 0.54107 0.0
C1160 C 0.92911 0.57666 0.56195 0.0
C1161 C 0.97887 0.58818 0.56759 0.0
C1162 C 0.90612 0.56158 0.56972 0.0
C1163 C 0.90633 0.54626 0.59414 0.0
C1164 C 0.95314 0.57552 0.57811 0.0
C1165 C 0.9304 0.54588 0.61019 0.0
C1166 C 0.00455 0.58415 0.58054 0.0
C1167 C 0.00092 0.61049 0.52981 0.0
N1168 N 0.95308 0.56025 0.60179 0.0
N1169 N 0.97797 0.60173 0.54301 0.0
H1170 H 0.94039 0.89103 0.58395 0.0
H1171 H 0.10006 0.91163 0.5665 0.0
H1172 H 0.991 0.84724 0.52532 0.0
H1173 H 0.05802 0.94136 0.63896 0.0
H1174 H 0.06054 0.88338 0.55519 0.0
H1175 H 0.98246 0.90483 0.60902 0.0
C1176 C 0.9603 0.88366 0.57691 0.0
C1177 C 0.96252 0.8685 0.55236 0.0
C1178 C 0.0599 0.89552 0.57396 0.0
C1179 C 0.01022 0.88417 0.58043 0.0
C1180 C 0.08271 0.91142 0.58057 0.0
C1181 C 0.08269 0.92781 0.6043 0.0
C1182 C 0.03609 0.89706 0.59039 0.0
C1183 C 0.05892 0.92836 0.6208 0.0
C1184 C 0.98424 0.8916 0.59109 0.0
C1185 C 0.98858 0.85944 0.5439 0.0
N1186 N 0.03631 0.91336 0.61338 0.0
N1187 N 0.0114 0.86769 0.55771 0.0
H1188 H 0.00861 0.37848 0.00071 0.0
H1189 H 0.95244 0.45941 0.86811 0.0
H1190 H 0.06391 0.40502 0.93619 0.0
H1191 H 0.9106 0.45107 0.94617 0.0
H1192 H 0.99174 0.43281 0.88724 0.0
H1193 H 0.96982 0.39603 0.97424 0.0
C1194 C 0.01252 0.38793 0.98081 0.0
C1195 C 0.03942 0.39085 0.97079 0.0
C1196 C 0.97377 0.43669 0.89995 0.0
C1197 C 0.99517 0.41169 0.94062 0.0
C1198 C 0.95154 0.45178 0.88911 0.0
C1199 C 0.92816 0.45652 0.90545 0.0
C1200 C 0.9723 0.42678 0.92722 0.0
C1201 C 0.92795 0.44699 0.93268 0.0
C1202 C 0.99039 0.39802 0.96572 0.0
C1203 C 0.04336 0.40267 0.94463 0.0
N1204 N 0.94957 0.43249 0.94262 0.0
N1205 N 0.0214 0.41318 0.93051 0.0
H1206 H 0.04815 0.04921 0.86836 0.0
H1207 H 0.99188 0.14159 0.99294 0.0
H1208 H 0.09383 0.07313 0.94083 0.0
H1209 H 0.93754 0.10695 0.93156 0.0
H1210 H 0.03143 0.12603 0.96626 0.0
H1211 H 0.00908 0.07786 0.88446 0.0
C1212 C 0.0501 0.06099 0.88727 0.0
C1213 C 0.07439 0.05966 0.90293 0.0
C1214 C 0.01091 0.12193 0.95839 0.0
C1215 C 0.03029 0.09175 0.92148 0.0
C1216 C 0.98835 0.13086 0.97362 0.0
C1217 C 0.96156 0.12504 0.96461 0.0
C1218 C 0.00671 0.10639 0.93427 0.0
C1219 C 0.95801 0.11158 0.93921 0.0
C1220 C 0.02795 0.07725 0.89642 0.0
C1221 C 0.07583 0.07449 0.92765 0.0
N1222 N 0.98044 0.10214 0.92508 0.0
N1223 N 0.05417 0.0899 0.9361 0.0
H1224 H 0.5165 0.00437 0.6388 0.0
H1225 H 0.63248 0.94055 0.54073 0.0
H1226 H 0.57033 0.05694 0.59136 0.0
H1227 H 0.55499 0.9028 0.56241 0.0
H1228 H 0.61973 0.9812 0.56902 0.0
H1229 H 0.54252 0.96423 0.62326 0.0
C1230 C 0.53423 0.00742 0.62551 0.0
C1231 C 0.5411 0.03374 0.61587 0.0
C1232 C 0.6059 0.96369 0.56791 0.0
C1233 C 0.57035 0.98801 0.59734 0.0
C1234 C 0.6131 0.9407 0.55186 0.0
C1235 C 0.5951 0.91811 0.55026 0.0
C1236 C 0.5806 0.96374 0.58208 0.0
C1237 C 0.56987 0.91937 0.56413 0.0
C1238 C 0.54899 0.98456 0.61657 0.0
C1239 C 0.56442 0.0368 0.59901 0.0
N1240 N 0.56346 0.94169 0.57957 0.0
N1241 N 0.57798 0.01399 0.58965 0.0
H1242 H 0.56974 0.0917 0.91172 0.0
H1243 H 0.58739 0.93399 0.8974 0.0
H1244 H 0.64237 0.05282 0.9451 0.0
H1245 H 0.53957 0.98317 0.84081 0.0
H1246 H 0.61267 0.97576 0.91147 0.0
H1247 H 0.56192 0.05191 0.88256 0.0
C1248 C 0.58464 0.07505 0.91212 0.0
C1249 C 0.60743 0.07602 0.92976 0.0
C1250 C 0.59737 0.9772 0.89523 0.0
C1251 C 0.5975 0.0291 0.89792 0.0
C1252 C 0.58312 0.95338 0.88711 0.0
C1253 C 0.56134 0.95547 0.86819 0.0
C1254 C 0.58934 0.00292 0.88443 0.0
C1255 C 0.55613 0.98094 0.85568 0.0
C1256 C 0.58005 0.05211 0.89565 0.0
C1257 C 0.62495 0.05299 0.9311 0.0
N1258 N 0.5697 0.00377 0.86435 0.0
N1259 N 0.61944 0.03018 0.91556 0.0
H1260 H 0.41372 0.55593 0.8724 0.0
H1261 H 0.42411 0.39436 0.89441 0.0
H1262 H 0.48117 0.50372 0.84693 0.0
H1263 H 0.35633 0.44213 0.92644 0.0
H1264 H 0.43784 0.43295 0.86604 0.0
H1265 H 0.38633 0.51434 0.88278 0.0
C1266 C 0.4225 0.53574 0.86852 0.0
C1267 C 0.44986 0.53307 0.85942 0.0
C1268 C 0.41953 0.43504 0.87869 0.0
C1269 C 0.41891 0.48587 0.87085 0.0
C1270 C 0.41128 0.41263 0.89445 0.0
C1271 C 0.38838 0.41465 0.9119 0.0
C1272 C 0.40582 0.4604 0.88159 0.0
C1273 C 0.37384 0.43968 0.91278 0.0
C1274 C 0.40694 0.51209 0.87444 0.0
C1275 C 0.46035 0.50661 0.85453 0.0
N1276 N 0.3831 0.46186 0.89816 0.0
N1277 N 0.44496 0.48411 0.86051 0.0
H1278 H 0.93793 0.10329 0.08008 0.0
H1279 H 0.92551 0.94307 0.11393 0.0
H1280 H 0.86723 0.05546 0.05534 0.0
H1281 H 0.99529 0.99499 0.13282 0.0
H1282 H 0.89945 0.9844 0.0997 0.0
H1283 H 0.9542 0.06497 0.1076 0.0
C1284 C 0.92531 0.0849 0.08126 0.0
C1285 C 0.90068 0.08285 0.06637 0.0
C1286 C 0.92033 0.98667 0.10733 0.0
C1287 C 0.92039 0.03767 0.09613 0.0
C1288 C 0.93514 0.96317 0.11548 0.0
C1289 C 0.96269 0.9657 0.12405 0.0
C1290 C 0.93325 0.01264 0.10813 0.0
C1291 C 0.97427 0.99209 0.12581 0.0
C1292 C 0.93485 0.06275 0.09664 0.0
C1293 C 0.88607 0.0579 0.06712 0.0
N1294 N 0.95957 0.01443 0.11776 0.0
N1295 N 0.89629 0.03604 0.08161 0.0
H1296 H 0.97408 0.16682 0.34842 0.0
H1297 H 0.92845 0.29844 0.31862 0.0
H1298 H 0.05588 0.19662 0.32938 0.0
H1299 H 0.01165 0.32166 0.34072 0.0
H1300 H 0.94366 0.25063 0.3141 0.0
H1301 H 0.95566 0.21249 0.33889 0.0
C1302 C 0.98814 0.18289 0.3418 0.0
C1303 C 0.01662 0.17791 0.33994 0.0
C1304 C 0.95854 0.26616 0.32008 0.0
C1305 C 0.99553 0.23034 0.32839 0.0
C1306 C 0.94994 0.29356 0.32234 0.0
C1307 C 0.96865 0.31405 0.3307 0.0
C1308 C 0.98601 0.25924 0.32632 0.0
C1309 C 0.99635 0.3065 0.3348 0.0
C1310 C 0.97752 0.20896 0.336 0.0
C1311 C 0.03379 0.19952 0.33115 0.0
N1312 N 0.00412 0.27966 0.3328 0.0
N1313 N 0.02302 0.22493 0.32615 0.0
H1314 H 0.92869 0.69403 0.18081 0.0
H1315 H 0.9672 0.82994 0.16157 0.0
H1316 H 0.01366 0.67702 0.15976 0.0
H1317 H 0.05039 0.80292 0.1789 0.0
H1318 H 0.95111 0.78289 0.168 0.0
H1319 H 0.94086 0.74221 0.18872 0.0
C1320 C 0.94994 0.70035 0.17799 0.0
C1321 C 0.97006 0.6815 0.169 0.0
C1322 C 0.97275 0.78727 0.17123 0.0
C1323 C 0.98396 0.73686 0.17725 0.0
C1324 C 0.98204 0.8142 0.16724 0.0
C1325 C 0.01025 0.82041 0.16942 0.0
C1326 C 0.99184 0.76631 0.17736 0.0
C1327 C 0.02847 0.79912 0.1769 0.0
C1328 C 0.95681 0.72799 0.18221 0.0
C1329 C 0.99733 0.69087 0.16615 0.0
N1330 N 0.019 0.77294 0.18014 0.0
N1331 N 0.00341 0.71793 0.17003 0.0
H1332 H 0.33952 0.97638 0.16574 0.0
H1333 H 0.31345 0.9282 0.29694 0.0
H1334 H 0.32389 0.05794 0.19814 0.0
H1335 H 0.34014 0.00975 0.32118 0.0
H1336 H 0.30656 0.94506 0.24996 0.0
H1337 H 0.33055 0.95708 0.21116 0.0
C1338 C 0.33373 0.99021 0.18233 0.0
C1339 C 0.33277 0.01887 0.17819 0.0
C1340 C 0.31402 0.95922 0.26554 0.0
C1341 C 0.32192 0.99681 0.23034 0.0
C1342 C 0.31768 0.94969 0.29247 0.0
C1343 C 0.32805 0.96741 0.31293 0.0
C1344 C 0.32091 0.98663 0.25904 0.0
C1345 C 0.3327 0.99517 0.30597 0.0
C1346 C 0.32824 0.97911 0.20827 0.0
C1347 C 0.32498 0.03574 0.20042 0.0
N1348 N 0.32934 0.00385 0.27955 0.0
N1349 N 0.32036 0.02449 0.2257 0.0
H1350 H 0.66711 0.44794 0.18166 0.0
H1351 H 0.64562 0.47703 0.3193 0.0
H1352 H 0.63713 0.53103 0.16917 0.0
H1353 H 0.65702 0.56267 0.29734 0.0
H1354 H 0.65193 0.46431 0.27123 0.0
H1355 H 0.67412 0.45833 0.23032 0.0
C1356 C 0.66199 0.46839 0.1891 0.0
C1357 C 0.65096 0.48847 0.17133 0.0
C1358 C 0.65389 0.48581 0.27692 0.0
C1359 C 0.65826 0.50024 0.22729 0.0
C1360 C 0.64997 0.49314 0.30443 0.0
C1361 C 0.65054 0.52099 0.31235 0.0
C1362 C 0.65831 0.50651 0.25711 0.0
C1363 C 0.65634 0.54095 0.29215 0.0
C1364 C 0.66578 0.47422 0.21701 0.0
C1365 C 0.64525 0.51475 0.18215 0.0
N1366 N 0.65953 0.53334 0.26534 0.0
N1367 N 0.64878 0.51981 0.2095 0.0
H1368 H 0.328 0.33463 0.0137 0.0
H1369 H 0.19447 0.32164 0.06129 0.0
H1370 H 0.29466 0.32035 0.93224 0.0
H1371 H 0.17336 0.34873 0.97894 0.0
H1372 H 0.24091 0.31077 0.04519 0.0
H1373 H 0.28191 0.33034 0.03289 0.0
C1374 C 0.31102 0.33004 -0.00011 0.0
C1375 C 0.31516 0.3282 0.97126 0.0
C1376 C 0.22618 0.31926 0.0307 0.0
C1377 C 0.26216 0.32283 0.99321 0.0
C1378 C 0.19954 0.32525 0.03981 0.0
C1379 C 0.18011 0.3367 0.02159 0.0
C1380 C 0.23346 0.32491 0.0032 0.0
C1381 C 0.18779 0.34046 0.99388 0.0
C1382 C 0.28465 0.32728 0.01094 0.0
C1383 C 0.29241 0.32206 0.95441 0.0
N1384 N 0.21393 0.33477 0.98559 0.0
N1385 N 0.26676 0.32015 0.9656 0.0
H1386 H 0.16696 0.63438 0.53578 0.0
H1387 H 0.30476 0.65558 0.56669 0.0
H1388 H 0.18488 0.6723 0.45705 0.0
H1389 H 0.31355 0.66072 0.47808 0.0
H1390 H 0.25504 0.66181 0.56152 0.0
H1391 H 0.21439 0.64249 0.54995 0.0
C1392 C 0.18071 0.64491 0.52165 0.0
C1393 C 0.17196 0.65229 0.49501 0.0
C1394 C 0.2678 0.66144 0.5432 0.0
C1395 C 0.22636 0.66221 0.51133 0.0
C1396 C 0.29628 0.65822 0.54616 0.0
C1397 C 0.31328 0.65689 0.52272 0.0
C1398 C 0.25636 0.66326 0.5166 0.0
C1399 C 0.3012 0.66093 0.4967 0.0
C1400 C 0.20785 0.64982 0.5299 0.0
C1401 C 0.19072 0.66595 0.47767 0.0
N1402 N 0.27347 0.66366 0.49435 0.0
N1403 N 0.21712 0.67007 0.486 0.0
H1404 H 0.68633 0.81554 0.55921 0.0
H1405 H 0.82448 0.84092 0.53475 0.0
H1406 H 0.67616 0.84045 0.47412 0.0
H1407 H 0.80588 0.82633 0.44872 0.0
H1408 H 0.77611 0.83358 0.54592 0.0
H1409 H 0.7357 0.81052 0.5513 0.0
C1410 C 0.69441 0.81984 0.53881 0.0
C1411 C 0.67706 0.829 0.51744 0.0
C1412 C 0.78265 0.8312 0.5247 0.0
C1413 C 0.73378 0.82409 0.50851 0.0
C1414 C 0.81031 0.83574 0.51824 0.0
C1415 C 0.81928 0.83441 0.49073 0.0
C1416 C 0.76379 0.82536 0.50345 0.0
C1417 C 0.79993 0.8276 0.47023 0.0
C1418 C 0.72272 0.81728 0.53442 0.0
C1419 C 0.68875 0.83378 0.49135 0.0
N1420 N 0.77303 0.82371 0.47698 0.0
N1421 N 0.71642 0.83149 0.48769 0.0
H1422 H 0.4393 0.81298 0.82691 0.0
H1423 H 0.46334 0.67231 0.83311 0.0
H1424 H 0.52687 0.81904 0.84267 0.0
H1425 H 0.54807 0.69194 0.81348 0.0
H1426 H 0.45207 0.7211 0.83113 0.0
H1427 H 0.44523 0.76438 0.81563 0.0
C1428 C 0.45979 0.80412 0.82803 0.0
C1429 C 0.48255 0.82009 0.83628 0.0
C1430 C 0.47295 0.7148 0.82639 0.0
C1431 C 0.48936 0.76412 0.82407 0.0
C1432 C 0.47948 0.68681 0.82774 0.0
C1433 C 0.50678 0.67794 0.82379 0.0
C1434 C 0.49391 0.73411 0.82106 0.0
C1435 C 0.52676 0.69776 0.81687 0.0
C1436 C 0.46312 0.77622 0.82181 0.0
C1437 C 0.50865 0.8075 0.83685 0.0
N1438 N 0.52001 0.72495 0.8162 0.0
N1439 N 0.51129 0.78023 0.83102 0.0
H1440 H 0.47295 0.32247 0.64847 0.0
H1441 H 0.43482 0.18604 0.66568 0.0
H1442 H 0.55543 0.29585 0.66947 0.0
H1443 H 0.5202 0.17025 0.64532 0.0
H1444 H 0.44635 0.23426 0.67432 0.0
H1445 H 0.45689 0.27527 0.65377 0.0
C1446 C 0.4876 0.30679 0.65476 0.0
C1447 C 0.51566 0.3131 0.65818 0.0
C1448 C 0.46251 0.2203 0.66777 0.0
C1449 C 0.4973 0.2589 0.6647 0.0
C1450 C 0.456 0.19267 0.66305 0.0
C1451 C 0.47647 0.17414 0.65421 0.0
C1452 C 0.48966 0.22945 0.6635 0.0
C1453 C 0.50363 0.18387 0.65159 0.0
C1454 C 0.47833 0.27979 0.65806 0.0
C1455 C 0.53364 0.29193 0.66646 0.0
N1456 N 0.50939 0.2109 0.65606 0.0
N1457 N 0.52424 0.26565 0.66891 0.0
H1458 H 0.82329 0.43946 0.81229 0.0
H1459 H 0.82792 0.46331 0.67151 0.0
H1460 H 0.84479 0.52582 0.81805 0.0
H1461 H 0.81248 0.54883 0.69159 0.0
H1462 H 0.82692 0.45218 0.7204 0.0
H1463 H 0.81129 0.4462 0.76395 0.0
C1464 C 0.82553 0.45986 0.80342 0.0
C1465 C 0.83559 0.48201 0.81921 0.0
C1466 C 0.82289 0.47324 0.71419 0.0
C1467 C 0.82252 0.48968 0.76354 0.0
C1468 C 0.8237 0.47968 0.68615 0.0
C1469 C 0.82058 0.50711 0.67736 0.0
C1470 C 0.81899 0.49442 0.73362 0.0
C1471 C 0.81514 0.5274 0.69735 0.0
C1472 C 0.81889 0.46362 0.77567 0.0
C1473 C 0.83755 0.50804 0.80663 0.0
N1474 N 0.815 0.52071 0.72457 0.0
N1475 N 0.83124 0.5111 0.77949 0.0
H1476 H 0.18491 0.93165 0.69638 0.0
H1477 H 0.15685 0.96923 0.83099 0.0
H1478 H 0.15896 0.01489 0.67756 0.0
H1479 H 0.17042 0.05327 0.80452 0.0
H1480 H 0.16557 0.95356 0.78414 0.0
H1481 H 0.18939 0.94459 0.7448 0.0
C1482 C 0.1803 0.9527 0.70236 0.0
C1483 C 0.17096 0.97205 0.68288 0.0
C1484 C 0.16744 0.97535 0.78862 0.0
C1485 C 0.17522 0.98676 0.73851 0.0
C1486 C 0.1621 0.98438 0.81541 0.0
C1487 C 0.1627 0.01265 0.82171 0.0
C1488 C 0.17335 0.99474 0.76789 0.0
C1489 C 0.16968 0.03128 0.80063 0.0
C1490 C 0.18254 0.95998 0.73013 0.0
C1491 C 0.16574 -0.00088 0.69187 0.0
N1492 N 0.17433 0.02202 0.77457 0.0
N1493 N 0.16772 0.00559 0.71907 0.0
H1494 H 0.80547 0.18588 0.05887 0.0
H1495 H 0.67024 0.16341 0.02055 0.0
H1496 H 0.82353 0.15587 0.97681 0.0
H1497 H 0.69787 0.17428 0.93647 0.0
H1498 H 0.7172 0.17066 0.03649 0.0
H1499 H 0.7576 0.19289 0.04516 0.0
C1500 C 0.79944 0.18082 0.03794 0.0
C1501 C 0.81851 0.16969 0.01915 0.0
C1502 C 0.71298 0.17231 0.01462 0.0
C1503 C 0.76346 0.17699 0.00355 0.0
C1504 C 0.68611 0.16786 0.00545 0.0
C1505 C 0.68011 0.16796 0.97709 0.0
C1506 C 0.73412 0.17677 0.99529 0.0
C1507 C 0.70154 0.17393 0.95852 0.0
C1508 C 0.77197 0.18459 0.03021 0.0
C1509 C 0.80949 0.16402 0.99217 0.0
N1510 N 0.72771 0.1776 0.96793 0.0
N1511 N 0.78256 0.16753 0.98526 0.0
H1512 H 0.07981 0.93798 0.22141 0.0
H1513 H 0.9941 0.05396 0.30081 0.0
H1514 H 0.99139 0.94681 0.21354 0.0
H1515 H 0.0824 0.0574 0.28879 0.0
H1516 H 0.99229 0.01308 0.27146 0.0
H1517 H 0.08061 0.97866 0.25104 0.0
C1518 C 0.06048 0.94813 0.22623 0.0
C1519 C 0.03552 0.93904 0.21462 0.0
C1520 C 0.01201 0.02295 0.27508 0.0
C1521 C 0.03644 0.9859 0.24833 0.0
C1522 C 0.01307 0.04643 0.29169 0.0
C1523 C 0.0385 0.05909 0.29757 0.0
C1524 C 0.03656 0.01183 0.26447 0.0
C1525 C 0.06234 0.04832 0.28506 0.0
C1526 C 0.06103 0.97156 0.24293 0.0
C1527 C 0.01116 0.9531 0.22182 0.0
N1528 N 0.06082 0.02512 0.26938 0.0
N1529 N 0.01226 0.97592 0.23807 0.0
H1530 H 0.90534 0.43467 0.27701 0.0
H1531 H 0.99587 0.55471 0.20946 0.0
H1532 H 0.99326 0.44264 0.28972 0.0
H1533 H 0.90671 0.55513 0.21138 0.0
H1534 H 0.99574 0.51264 0.23707 0.0
H1535 H 0.9062 0.47636 0.24883 0.0
C1536 C 0.92493 0.44484 0.27353 0.0
C1537 C 0.94923 0.43517 0.28609 0.0
C1538 C 0.97622 0.52208 0.23164 0.0
C1539 C 0.9502 0.48326 0.25409 0.0
C1540 C 0.97625 0.54628 0.21603 0.0
C1541 C 0.95124 0.5585 0.20784 0.0
C1542 C 0.95102 0.50984 0.23897 0.0
C1543 C 0.92651 0.54647 0.21705 0.0
C1544 C 0.92532 0.46886 0.25765 0.0
C1545 C 0.97396 0.44932 0.28065 0.0
N1546 N 0.92704 0.52267 0.23186 0.0
N1547 N 0.97377 0.47275 0.26524 0.0
H1548 H 0.21471 0.08109 0.93896 0.0
H1549 H 0.29875 0.99594 0.052 0.0
H1550 H 0.2089 0.9924 0.94663 0.0
H1551 H 0.28284 0.08352 0.05783 0.0
H1552 H 0.26913 0.99388 0.01127 0.0
H1553 H 0.24519 0.08195 0.97898 0.0
C1554 C 0.22016 0.06172 0.9487 0.0
C1555 C 0.20887 0.03665 0.9395 0.0
C1556 C 0.27198 0.01348 0.02163 0.0
C1557 C 0.24358 0.03763 0.98562 0.0
C1558 C 0.28876 0.01468 0.045 0.0
C1559 C 0.29355 0.04001 0.05832 0.0
C1560 C 0.26015 0.0378 0.01129 0.0
C1561 C 0.27994 0.06356 0.04824 0.0
C1562 C 0.23736 0.0623 0.97177 0.0
C1563 C 0.2169 0.01225 0.95303 0.0
N1564 N 0.26413 0.06193 0.02515 0.0
N1565 N 0.23364 0.01338 0.97552 0.0
H1566 H 0.7003 0.51922 0.04749 0.0
H1567 H 0.78812 0.42782 0.94226 0.0
H1568 H 0.70995 0.43076 0.05415 0.0
H1569 H 0.79135 0.51697 0.94368 0.0
H1570 H 0.75656 0.42891 0.98131 0.0
H1571 H 0.73287 0.51925 0.00908 0.0
C1572 C 0.70961 0.49986 0.04128 0.0
C1573 C 0.70211 0.47489 0.05401 0.0
C1574 C 0.76406 0.44824 0.97298 0.0
C1575 C 0.73892 0.4748 0.00959 0.0
C1576 C 0.7819 0.44767 0.95045 0.0
C1577 C 0.7926 0.47234 0.93965 0.0
C1578 C 0.75673 0.47365 0.98482 0.0
C1579 C 0.78369 0.4974 0.95127 0.0
C1580 C 0.72804 0.4999 0.01916 0.0
C1581 C 0.7149 0.4505 0.04493 0.0
N1582 N 0.76639 0.49741 0.97333 0.0
N1583 N 0.73242 0.45105 0.0231 0.0
H1584 H 0.28003 0.90241 0.4362 0.0
H1585 H 0.21479 0.99615 0.55484 0.0
H1586 H 0.29326 0.99047 0.44124 0.0
H1587 H 0.22114 0.90731 0.55994 0.0
H1588 H 0.2416 0.995 0.51224 0.0
H1589 H 0.25388 0.90452 0.47918 0.0
C1590 C 0.2771 0.92227 0.44602 0.0
C1591 C 0.28922 0.94624 0.43514 0.0
C1592 C 0.23734 0.9758 0.52286 0.0
C1593 C 0.25953 0.94869 0.48462 0.0
C1594 C 0.22222 0.97643 0.54736 0.0
C1595 C 0.21535 0.95174 0.56097 0.0
C1596 C 0.24546 0.95032 0.51171 0.0
C1597 C 0.22565 0.92687 0.55015 0.0
C1598 C 0.2624 0.92339 0.47077 0.0
C1599 C 0.28451 0.97139 0.44888 0.0
N1600 N 0.23985 0.92677 0.52597 0.0
N1601 N 0.27018 0.97192 0.47297 0.0
H1602 H 0.77045 0.48402 0.55019 0.0
H1603 H 0.6988 0.58184 0.4383 0.0
H1604 H 0.76609 0.57281 0.5577 0.0
H1605 H 0.69375 0.4928 0.4366 0.0
H1606 H 0.72601 0.57884 0.48059 0.0
H1607 H 0.74226 0.48674 0.50864 0.0
C1608 C 0.76315 0.50407 0.54348 0.0
C1609 C 0.77103 0.52827 0.5574 0.0
C1610 C 0.71907 0.55997 0.47084 0.0
C1611 C 0.73924 0.53151 0.5093 0.0
C1612 C 0.70378 0.56164 0.44647 0.0
C1613 C 0.69368 0.53755 0.4339 0.0
C1614 C 0.72444 0.53405 0.48266 0.0
C1615 C 0.70091 0.51197 0.44556 0.0
C1616 C 0.74725 0.5056 0.51954 0.0
C1617 C 0.7608 0.5536 0.54761 0.0
N1618 N 0.71566 0.51092 0.46936 0.0
N1619 N 0.74575 0.55458 0.52396 0.0
H1620 H 0.05913 0.28795 0.08514 0.0
H1621 H 0.94474 0.21367 0.99334 0.0
H1622 H 0.05305 0.30007 0.99693 0.0
H1623 H 0.93862 0.22358 0.08182 0.0
H1624 H 0.98575 0.24294 0.99353 0.0
H1625 H 0.01774 0.25948 0.08348 0.0
C1626 C 0.04942 0.28432 0.06534 0.0
C1627 C 0.05954 0.29674 0.04118 0.0
C1628 C 0.97522 0.2389 0.01283 0.0
C1629 C 0.01184 0.26436 0.03926 0.0
C1630 C 0.95165 0.22236 0.01275 0.0
C1631 C 0.93827 0.21583 0.03766 0.0
C1632 C 0.98564 0.24874 0.038 0.0
C1633 C 0.94828 0.22778 0.06212 0.0
C1634 C 0.02557 0.26828 0.06448 0.0
C1635 C 0.04597 0.29109 0.01613 0.0
N1636 N 0.97157 0.24333 0.06171 0.0
N1637 N 0.02273 0.27542 0.01584 0.0
H1638 H 0.05466 0.70603 0.42866 0.0
H1639 H 0.94069 0.78295 0.51905 0.0
H1640 H 0.04592 0.69345 0.51658 0.0
H1641 H 0.9387 0.77853 0.42993 0.0
H1642 H 0.97998 0.75146 0.51915 0.0
H1643 H 0.01451 0.73628 0.42957 0.0
C1644 C 0.04462 0.70992 0.44825 0.0
C1645 C 0.05365 0.69691 0.47255 0.0
C1646 C 0.97073 0.75718 0.49961 0.0
C1647 C 0.00732 0.73129 0.47359 0.0
C1648 C 0.94813 0.775 0.49951 0.0
C1649 C 0.93648 0.78374 0.4744 0.0
C1650 C 0.98191 0.74819 0.47444 0.0
C1651 C 0.94706 0.77263 0.44979 0.0
C1652 C 0.02147 0.72698 0.44868 0.0
C1653 C 0.03971 0.70289 0.4973 0.0
N1654 N 0.96941 0.75573 0.45043 0.0
N1655 N 0.01715 0.71953 0.49715 0.0
H1656 H 0.55181 0.78275 0.48527 0.0
H1657 H 0.43848 0.702 0.57382 0.0
H1658 H 0.55253 0.77802 0.57439 0.0
H1659 H 0.44004 0.70302 0.4846 0.0
H1660 H 0.47909 0.7316 0.57433 0.0
H1661 H 0.51124 0.75311 0.48456 0.0
C1662 C 0.5438 0.77512 0.5047 0.0
C1663 C 0.55561 0.78313 0.52996 0.0
C1664 C 0.47042 0.72552 0.55464 0.0
C1665 C 0.50865 0.74959 0.52924 0.0
C1666 C 0.447 0.70882 0.55431 0.0
C1667 C 0.4358 0.6998 0.52912 0.0
C1668 C 0.48277 0.73332 0.52962 0.0
C1669 C 0.44789 0.70937 0.50454 0.0
C1670 C 0.52041 0.75837 0.50426 0.0
C1671 C 0.54415 0.77253 0.55441 0.0
N1672 N 0.47084 0.72542 0.50542 0.0
N1673 N 0.52117 0.75653 0.55343 0.0
H1674 H 0.57408 0.55717 0.7731 0.0
H1675 H 0.49002 0.4409 0.69227 0.0
H1676 H 0.48514 0.55091 0.77565 0.0
H1677 H 0.57766 0.43643 0.70824 0.0
H1678 H 0.48763 0.48277 0.72012 0.0
H1679 H 0.57558 0.51593 0.74431 0.0
C1680 C 0.55481 0.54749 0.76724 0.0
C1681 C 0.52944 0.55747 0.77716 0.0
C1682 C 0.50733 0.47248 0.71769 0.0
C1683 C 0.53115 0.50991 0.74446 0.0
C1684 C 0.50871 0.44843 0.70195 0.0
C1685 C 0.53415 0.43514 0.69763 0.0
C1686 C 0.53156 0.48352 0.72904 0.0
C1687 C 0.55761 0.44596 0.71079 0.0
C1688 C 0.55574 0.52372 0.75104 0.0
C1689 C 0.5052 0.54395 0.7687 0.0
N1690 N 0.5558 0.46969 0.72563 0.0
N1691 N 0.50667 0.52076 0.75301 0.0
H1692 H 0.42645 0.94045 0.7883 0.0
H1693 H 0.51032 0.05291 0.70203 0.0
H1694 H 0.5154 0.94696 0.7902 0.0
H1695 H 0.42161 0.05331 0.71141 0.0
H1696 H 0.51295 0.01385 0.73365 0.0
H1697 H 0.42473 0.97989 0.75725 0.0
C1698 C 0.44569 0.94983 0.78185 0.0
C1699 C 0.47112 0.94037 0.79208 0.0
C1700 C 0.49295 0.02268 0.72897 0.0
C1701 C 0.46918 0.986 0.75683 0.0
C1702 C 0.49141 0.04517 0.71108 0.0
C1703 C 0.46565 0.05635 0.70376 0.0
C1704 C 0.46858 0.01116 0.73952 0.0
C1705 C 0.44192 0.04535 0.71624 0.0
C1706 C 0.44464 0.97259 0.76432 0.0
C1707 C 0.49531 0.95347 0.78289 0.0
N1708 N 0.44395 0.02318 0.73325 0.0
N1709 N 0.49372 0.97574 0.76593 0.0
H1710 H 0.43483 0.27486 0.90444 0.0
H1711 H 0.55338 0.20847 0.99765 0.0
H1712 H 0.4421 0.28998 0.99208 0.0
H1713 H 0.55716 0.21258 0.90859 0.0
H1714 H 0.51119 0.23591 0.99653 0.0
H1715 H 0.47685 0.24713 0.90638 0.0
C1716 C 0.44492 0.27202 0.92419 0.0
C1717 C 0.43501 0.28516 0.94807 0.0
C1718 C 0.5214 0.231 0.97727 0.0
C1719 C 0.48336 0.25364 0.9503 0.0
C1720 C 0.54565 0.21549 0.97786 0.0
C1721 C 0.55882 0.20791 0.95314 0.0
C1722 C 0.51004 0.23879 0.95178 0.0
C1723 C 0.54772 0.21771 0.92818 0.0
C1724 C 0.46912 0.25641 0.9252 0.0
C1725 C 0.44903 0.28049 0.97307 0.0
N1726 N 0.5238 0.23234 0.92813 0.0
N1727 N 0.47257 0.26528 0.97349 0.0
loop_
_geom_bond_atom_site_label_1
_geom_bond_atom_site_label_2
_geom_bond_distance
_geom_bond_site_symmetry_2
_ccdc_geom_bond_type
Mn0 O5 2.095 . S
Mn0 O15 2.162 . S
Mn0 O16 2.297 . S
Mn0 O24 2.385 1_655 S
Mn0 O25 2.209 1_655 S
Mn0 O26 2.094 . S
Mn1 O6 2.121 . S
Mn1 N8 2.257 . S
Mn1 N17 2.282 . S
Mn1 O25 2.215 . S
Mn1 O27 2.117 . S
C2 O24 1.234 . S
C2 O25 1.283 . S
C3 O15 1.281 . S
C3 O16 1.236 . S
C4 O26 1.240 . S
C4 O27 1.264 1_655 S
O5 Mn0 2.095 . S
O5 C14 1.250 1_655 S
O6 Mn1 2.121 . S
O6 C14 1.258 . S
C7 N8 1.326 . S
C7 C11 1.460 . S
C7 H13 0.929 . S
N8 Mn1 2.257 . S
N8 C7 1.326 . S
N8 C12 1.362 . S
C9 C10 1.258 . S
C9 C12 1.431 . S
C9 C29 1.449 . S
C10 C9 1.258 . S
C10 C11 1.477 . S
C10 H30 0.931 . S
C11 C7 1.460 . S
C11 C10 1.477 . S
C11 H31 0.930 . S
C12 N8 1.362 . S
C12 C9 1.431 . S
C12 C22 1.476 . S
H13 C7 0.929 . S
C14 O5 1.250 1_455 S
C14 O6 1.258 . S
O15 Mn0 2.162 . S
O15 C3 1.281 . S
O16 Mn0 2.297 . S
O16 C3 1.236 . S
N17 Mn1 2.282 . S
N17 C18 1.328 . S
N17 C22 1.318 . S
C18 N17 1.328 . S
C18 C19 1.457 . S
C18 H23 0.929 . S
C19 C18 1.457 . S
C19 C20 1.291 . S
C19 H32 0.931 . S
C20 C19 1.291 . S
C20 C21 1.373 . S
C20 H33 0.929 . S
C21 C20 1.373 . S
C21 C22 1.396 . S
C21 C28 1.403 . S
C22 C12 1.476 . S
C22 N17 1.318 . S
C22 C21 1.396 . S
H23 C18 0.929 . S
O24 Mn0 2.385 1_455 S
O24 C2 1.234 . S
O25 Mn0 2.209 1_455 S
O25 Mn1 2.215 . S
O25 C2 1.283 . S
O26 Mn0 2.094 . S
O26 C4 1.240 . S
O27 Mn1 2.117 . S
O27 C4 1.264 1_455 S
C28 C21 1.403 . S
C28 C29 1.399 . S
C28 H34 0.929 . S
C29 C9 1.449 . S
C29 C28 1.399 . S
C29 H35 0.930 . S
H30 C10 0.931 . S
H31 C11 0.930 . S
H32 C19 0.931 . S
H33 C20 0.929 . S
H34 C28 0.929 . S
H35 C29 0.930 . S
Mn36 O41 2.095 . S
Mn36 O51 2.162 . S
Mn36 O52 2.297 . S
Mn36 O60 2.385 1_455 S
Mn36 O61 2.209 1_455 S
Mn36 O62 2.094 . S
Mn37 O42 2.121 . S
Mn37 N44 2.257 . S
Mn37 N53 2.282 . S
Mn37 O61 2.215 . S
Mn37 O63 2.117 . S
C38 O60 1.234 . S
C38 O61 1.283 . S
C39 O51 1.281 . S
C39 O52 1.236 . S
C40 O62 1.240 . S
C40 O63 1.264 1_455 S
O41 Mn36 2.095 . S
O41 C50 1.250 1_455 S
O42 Mn37 2.121 . S
O42 C50 1.258 . S
C43 N44 1.326 . S
C43 C47 1.460 . S
C43 H49 0.929 . S
N44 Mn37 2.257 . S
N44 C43 1.326 . S
N44 C48 1.362 . S
C45 C46 1.258 . S
C45 C48 1.431 . S
C45 C65 1.449 . S
C46 C45 1.258 . S
C46 C47 1.477 . S
C46 H66 0.931 . S
C47 C43 1.460 . S
C47 C46 1.477 . S
C47 H67 0.930 . S
C48 N44 1.362 . S
C48 C45 1.431 . S
C48 C58 1.476 . S
H49 C43 0.929 . S
C50 O41 1.250 1_655 S
C50 O42 1.258 . S
O51 Mn36 2.162 . S
O51 C39 1.281 . S
O52 Mn36 2.297 . S
O52 C39 1.236 . S
N53 Mn37 2.282 . S
N53 C54 1.328 . S
N53 C58 1.318 . S
C54 N53 1.328 . S
C54 C55 1.457 . S
C54 H59 0.929 . S
C55 C54 1.457 . S
C55 C56 1.291 . S
C55 H68 0.931 . S
C56 C55 1.291 . S
C56 C57 1.373 . S
C56 H69 0.929 . S
C57 C56 1.373 . S
C57 C58 1.396 . S
C57 C64 1.403 . S
C58 C48 1.476 . S
C58 N53 1.318 . S
C58 C57 1.396 . S
H59 C54 0.929 . S
O60 Mn36 2.385 1_655 S
O60 C38 1.234 . S
O61 Mn36 2.209 1_655 S
O61 Mn37 2.215 . S
O61 C38 1.283 . S
O62 Mn36 2.094 . S
O62 C40 1.240 . S
O63 Mn37 2.117 . S
O63 C40 1.264 1_655 S
C64 C57 1.403 . S
C64 C65 1.399 . S
C64 H70 0.929 . S
C65 C45 1.449 . S
C65 C64 1.399 . S
C65 H71 0.930 . S
H66 C46 0.931 . S
H67 C47 0.930 . S
H68 C55 0.931 . S
H69 C56 0.929 . S
H70 C64 0.929 . S
H71 C65 0.930 . S
Mn72 O77 2.095 . S
Mn72 O87 2.162 . S
Mn72 O88 2.297 . S
Mn72 O96 2.385 1_655 S
Mn72 O97 2.209 1_655 S
Mn72 O98 2.094 . S
Mn73 O78 2.121 . S
Mn73 N80 2.257 . S
Mn73 N89 2.282 . S
Mn73 O97 2.215 . S
Mn73 O99 2.117 . S
C74 O96 1.234 . S
C74 O97 1.283 . S
C75 O87 1.281 . S
C75 O88 1.236 . S
C76 O98 1.240 . S
C76 O99 1.264 1_655 S
O77 Mn72 2.095 . S
O77 C86 1.250 1_655 S
O78 Mn73 2.121 . S
O78 C86 1.258 . S
C79 N80 1.326 . S
C79 C83 1.460 . S
C79 H85 0.929 . S
N80 Mn73 2.257 . S
N80 C79 1.326 . S
N80 C84 1.362 . S
C81 C82 1.258 . S
C81 C84 1.431 . S
C81 C101 1.449 . S
C82 C81 1.258 . S
C82 C83 1.477 . S
C82 H102 0.931 . S
C83 C79 1.460 . S
C83 C82 1.477 . S
C83 H103 0.930 . S
C84 N80 1.362 . S
C84 C81 1.431 . S
C84 C94 1.476 . S
H85 C79 0.929 . S
C86 O77 1.250 1_455 S
C86 O78 1.258 . S
O87 Mn72 2.162 . S
O87 C75 1.281 . S
O88 Mn72 2.297 . S
O88 C75 1.236 . S
N89 Mn73 2.282 . S
N89 C90 1.328 . S
N89 C94 1.318 . S
C90 N89 1.328 . S
C90 C91 1.457 . S
C90 H95 0.929 . S
C91 C90 1.457 . S
C91 C92 1.291 . S
C91 H104 0.931 . S
C92 C91 1.291 . S
C92 C93 1.373 . S
C92 H105 0.929 . S
C93 C92 1.373 . S
C93 C94 1.396 . S
C93 C100 1.403 . S
C94 C84 1.476 . S
C94 N89 1.318 . S
C94 C93 1.396 . S
H95 C90 0.929 . S
O96 Mn72 2.385 1_455 S
O96 C74 1.234 . S
O97 Mn72 2.209 1_455 S
O97 Mn73 2.215 . S
O97 C74 1.283 . S
O98 Mn72 2.094 . S
O98 C76 1.240 . S
O99 Mn73 2.117 . S
O99 C76 1.264 1_455 S
C100 C93 1.403 . S
C100 C101 1.399 . S
C100 H106 0.929 . S
C101 C81 1.449 . S
C101 C100 1.399 . S
C101 H107 0.930 . S
H102 C82 0.931 . S
H103 C83 0.930 . S
H104 C91 0.931 . S
H105 C92 0.929 . S
H106 C100 0.929 . S
H107 C101 0.930 . S
Mn108 O113 2.095 . S
Mn108 O123 2.162 . S
Mn108 O124 2.297 . S
Mn108 O132 2.385 1_455 S
Mn108 O133 2.209 1_455 S
Mn108 O134 2.094 . S
Mn109 O114 2.121 . S
Mn109 N116 2.257 . S
Mn109 N125 2.282 . S
Mn109 O133 2.215 . S
Mn109 O135 2.117 . S
C110 O132 1.234 . S
C110 O133 1.283 . S
C111 O123 1.281 . S
C111 O124 1.236 . S
C112 O134 1.240 . S
C112 O135 1.264 1_455 S
O113 Mn108 2.095 . S
O113 C122 1.250 1_455 S
O114 Mn109 2.121 . S
O114 C122 1.258 . S
C115 N116 1.326 . S
C115 C119 1.460 . S
C115 H121 0.929 . S
N116 Mn109 2.257 . S
N116 C115 1.326 . S
N116 C120 1.362 . S
C117 C118 1.258 . S
C117 C120 1.431 . S
C117 C137 1.449 . S
C118 C117 1.258 . S
C118 C119 1.477 . S
C118 H138 0.931 . S
C119 C115 1.460 . S
C119 C118 1.477 . S
C119 H139 0.930 . S
C120 N116 1.362 . S
C120 C117 1.431 . S
C120 C130 1.476 . S
H121 C115 0.929 . S
C122 O113 1.250 1_655 S
C122 O114 1.258 . S
O123 Mn108 2.162 . S
O123 C111 1.281 . S
O124 Mn108 2.297 . S
O124 C111 1.236 . S
N125 Mn109 2.282 . S
N125 C126 1.328 . S
N125 C130 1.318 . S
C126 N125 1.328 . S
C126 C127 1.457 . S
C126 H131 0.929 . S
C127 C126 1.457 . S
C127 C128 1.291 . S
C127 H140 0.931 . S
C128 C127 1.291 . S
C128 C129 1.373 . S
C128 H141 0.929 . S
C129 C128 1.373 . S
C129 C130 1.396 . S
C129 C136 1.403 . S
C130 C120 1.476 . S
C130 N125 1.318 . S
C130 C129 1.396 . S
H131 C126 0.929 . S
O132 Mn108 2.385 1_655 S
O132 C110 1.234 . S
O133 Mn108 2.209 1_655 S
O133 Mn109 2.215 . S
O133 C110 1.283 . S
O134 Mn108 2.094 . S
O134 C112 1.240 . S
O135 Mn109 2.117 . S
O135 C112 1.264 1_655 S
C136 C129 1.403 . S
C136 C137 1.399 . S
C136 H142 0.929 . S
C137 C117 1.449 . S
C137 C136 1.399 . S
C137 H143 0.930 . S
H138 C118 0.931 . S
H139 C119 0.930 . S
H140 C127 0.931 . S
H141 C128 0.929 . S
H142 C136 0.929 . S
H143 C137 0.930 . S
Mn144 O149 2.095 . S
Mn144 O159 2.162 . S
Mn144 O160 2.297 . S
Mn144 O168 2.385 1_565 S
Mn144 O169 2.209 1_565 S
Mn144 O170 2.094 . S
Mn145 O150 2.121 . S
Mn145 N152 2.257 . S
Mn145 N161 2.282 . S
Mn145 O169 2.215 . S
Mn145 O171 2.117 . S
C146 O168 1.234 . S
C146 O169 1.283 . S
C147 O159 1.281 . S
C147 O160 1.236 . S
C148 O170 1.240 . S
C148 O171 1.264 1_565 S
O149 Mn144 2.095 . S
O149 C158 1.250 1_565 S
O150 Mn145 2.121 . S
O150 C158 1.258 . S
C151 N152 1.326 . S
C151 C155 1.460 . S
C151 H157 0.929 . S
N152 Mn145 2.257 . S
N152 C151 1.326 . S
N152 C156 1.362 . S
C153 C154 1.258 . S
C153 C156 1.431 . S
C153 C173 1.449 . S
C154 C153 1.258 . S
C154 C155 1.477 . S
C154 H174 0.931 . S
C155 C151 1.460 . S
C155 C154 1.477 . S
C155 H175 0.930 . S
C156 N152 1.362 . S
C156 C153 1.431 . S
C156 C166 1.476 . S
H157 C151 0.929 . S
C158 O149 1.250 1_545 S
C158 O150 1.258 . S
O159 Mn144 2.162 . S
O159 C147 1.281 . S
O160 Mn144 2.297 . S
O160 C147 1.236 . S
N161 Mn145 2.282 . S
N161 C162 1.328 . S
N161 C166 1.318 . S
C162 N161 1.328 . S
C162 C163 1.457 . S
C162 H167 0.929 . S
C163 C162 1.457 . S
C163 C164 1.291 . S
C163 H176 0.931 . S
C164 C163 1.291 . S
C164 C165 1.373 . S
C164 H177 0.929 . S
C165 C164 1.373 . S
C165 C166 1.396 . S
C165 C172 1.403 . S
C166 C156 1.476 . S
C166 N161 1.318 . S
C166 C165 1.396 . S
H167 C162 0.929 . S
O168 Mn144 2.385 1_545 S
O168 C146 1.234 . S
O169 Mn144 2.209 1_545 S
O169 Mn145 2.215 . S
O169 C146 1.283 . S
O170 Mn144 2.094 . S
O170 C148 1.240 . S
O171 Mn145 2.117 . S
O171 C148 1.264 1_545 S
C172 C165 1.403 . S
C172 C173 1.399 . S
C172 H178 0.929 . S
C173 C153 1.449 . S
C173 C172 1.399 . S
C173 H179 0.930 . S
H174 C154 0.931 . S
H175 C155 0.930 . S
H176 C163 0.931 . S
H177 C164 0.929 . S
H178 C172 0.929 . S
H179 C173 0.930 . S
Mn180 O185 2.095 . S
Mn180 O195 2.162 . S
Mn180 O196 2.297 . S
Mn180 O204 2.385 . S
Mn180 O205 2.209 . S
Mn180 O206 2.094 . S
Mn181 O186 2.121 . S
Mn181 N188 2.257 . S
Mn181 N197 2.282 . S
Mn181 O205 2.215 . S
Mn181 O207 2.117 . S
C182 O204 1.234 . S
C182 O205 1.283 . S
C183 O195 1.281 . S
C183 O196 1.236 . S
C184 O206 1.240 . S
C184 O207 1.264 . S
O185 Mn180 2.095 . S
O185 C194 1.250 . S
O186 Mn181 2.121 . S
O186 C194 1.258 . S
C187 N188 1.326 . S
C187 C191 1.460 . S
C187 H193 0.929 . S
N188 Mn181 2.257 . S
N188 C187 1.326 . S
N188 C192 1.362 . S
C189 C190 1.258 . S
C189 C192 1.431 . S
C189 C209 1.449 . S
C190 C189 1.258 . S
C190 C191 1.477 . S
C190 H210 0.931 . S
C191 C187 1.460 . S
C191 C190 1.477 . S
C191 H211 0.930 . S
C192 N188 1.362 . S
C192 C189 1.431 . S
C192 C202 1.476 . S
H193 C187 0.929 . S
C194 O185 1.250 . S
C194 O186 1.258 . S
O195 Mn180 2.162 . S
O195 C183 1.281 . S
O196 Mn180 2.297 . S
O196 C183 1.236 . S
N197 Mn181 2.282 . S
N197 C198 1.328 . S
N197 C202 1.318 . S
C198 N197 1.328 . S
C198 C199 1.457 . S
C198 H203 0.929 . S
C199 C198 1.457 . S
C199 C200 1.291 . S
C199 H212 0.931 . S
C200 C199 1.291 . S
C200 C201 1.373 . S
C200 H213 0.929 . S
C201 C200 1.373 . S
C201 C202 1.396 . S
C201 C208 1.403 . S
C202 C192 1.476 . S
C202 N197 1.318 . S
C202 C201 1.396 . S
H203 C198 0.929 . S
O204 Mn180 2.385 . S
O204 C182 1.234 . S
O205 Mn180 2.209 . S
O205 Mn181 2.215 . S
O205 C182 1.283 . S
O206 Mn180 2.094 . S
O206 C184 1.240 . S
O207 Mn181 2.117 . S
O207 C184 1.264 . S
C208 C201 1.403 . S
C208 C209 1.399 . S
C208 H214 0.929 . S
C209 C189 1.449 . S
C209 C208 1.399 . S
C209 H215 0.930 . S
H210 C190 0.931 . S
H211 C191 0.930 . S
H212 C199 0.931 . S
H213 C200 0.929 . S
H214 C208 0.929 . S
H215 C209 0.930 . S
Mn216 O221 2.095 . S
Mn216 O231 2.162 . S
Mn216 O232 2.297 . S
Mn216 O240 2.385 1_545 S
Mn216 O241 2.209 1_545 S
Mn216 O242 2.094 . S
Mn217 O222 2.121 . S
Mn217 N224 2.257 . S
Mn217 N233 2.282 . S
Mn217 O241 2.215 . S
Mn217 O243 2.117 . S
C218 O240 1.234 . S
C218 O241 1.283 . S
C219 O231 1.281 . S
C219 O232 1.236 . S
C220 O242 1.240 . S
C220 O243 1.264 1_545 S
O221 Mn216 2.095 . S
O221 C230 1.250 1_545 S
O222 Mn217 2.121 . S
O222 C230 1.258 . S
C223 N224 1.326 . S
C223 C227 1.460 . S
C223 H229 0.929 . S
N224 Mn217 2.257 . S
N224 C223 1.326 . S
N224 C228 1.362 . S
C225 C226 1.258 . S
C225 C228 1.431 . S
C225 C245 1.449 . S
C226 C225 1.258 . S
C226 C227 1.477 . S
C226 H246 0.931 . S
C227 C223 1.460 . S
C227 C226 1.477 . S
C227 H247 0.930 . S
C228 N224 1.362 . S
C228 C225 1.431 . S
C228 C238 1.476 . S
H229 C223 0.929 . S
C230 O221 1.250 1_565 S
C230 O222 1.258 . S
O231 Mn216 2.162 . S
O231 C219 1.281 . S
O232 Mn216 2.297 . S
O232 C219 1.236 . S
N233 Mn217 2.282 . S
N233 C234 1.328 . S
N233 C238 1.318 . S
C234 N233 1.328 . S
C234 C235 1.457 . S
C234 H239 0.929 . S
C235 C234 1.457 . S
C235 C236 1.291 . S
C235 H248 0.931 . S
C236 C235 1.291 . S
C236 C237 1.373 . S
C236 H249 0.929 . S
C237 C236 1.373 . S
C237 C238 1.396 . S
C237 C244 1.403 . S
C238 C228 1.476 . S
C238 N233 1.318 . S
C238 C237 1.396 . S
H239 C234 0.929 . S
O240 Mn216 2.385 1_565 S
O240 C218 1.234 . S
O241 Mn216 2.209 1_565 S
O241 Mn217 2.215 . S
O241 C218 1.283 . S
O242 Mn216 2.094 . S
O242 C220 1.240 . S
O243 Mn217 2.117 . S
O243 C220 1.264 1_565 S
C244 C237 1.403 . S
C244 C245 1.399 . S
C244 H250 0.929 . S
C245 C225 1.449 . S
C245 C244 1.399 . S
C245 H251 0.930 . S
H246 C226 0.931 . S
H247 C227 0.930 . S
H248 C235 0.931 . S
H249 C236 0.929 . S
H250 C244 0.929 . S
H251 C245 0.930 . S
Mn252 O257 2.095 . S
Mn252 O267 2.162 . S
Mn252 O268 2.297 . S
Mn252 O276 2.385 . S
Mn252 O277 2.209 . S
Mn252 O278 2.094 . S
Mn253 O258 2.121 . S
Mn253 N260 2.257 . S
Mn253 N269 2.282 . S
Mn253 O277 2.215 . S
Mn253 O279 2.117 . S
C254 O276 1.234 . S
C254 O277 1.283 . S
C255 O267 1.281 . S
C255 O268 1.236 . S
C256 O278 1.240 . S
C256 O279 1.264 . S
O257 Mn252 2.095 . S
O257 C266 1.250 . S
O258 Mn253 2.121 . S
O258 C266 1.258 . S
C259 N260 1.326 . S
C259 C263 1.460 . S
C259 H265 0.929 . S
N260 Mn253 2.257 . S
N260 C259 1.326 . S
N260 C264 1.362 . S
C261 C262 1.258 . S
C261 C264 1.431 . S
C261 C281 1.449 . S
C262 C261 1.258 . S
C262 C263 1.477 . S
C262 H282 0.931 . S
C263 C259 1.460 . S
C263 C262 1.477 . S
C263 H283 0.930 . S
C264 N260 1.362 . S
C264 C261 1.431 . S
C264 C274 1.476 . S
H265 C259 0.929 . S
C266 O257 1.250 . S
C266 O258 1.258 . S
O267 Mn252 2.162 . S
O267 C255 1.281 . S
O268 Mn252 2.297 . S
O268 C255 1.236 . S
N269 Mn253 2.282 . S
N269 C270 1.328 . S
N269 C274 1.318 . S
C270 N269 1.328 . S
C270 C271 1.457 . S
C270 H275 0.929 . S
C271 C270 1.457 . S
C271 C272 1.291 . S
C271 H284 0.931 . S
C272 C271 1.291 . S
C272 C273 1.373 . S
C272 H285 0.929 . S
C273 C272 1.373 . S
C273 C274 1.396 . S
C273 C280 1.403 . S
C274 C264 1.476 . S
C274 N269 1.318 . S
C274 C273 1.396 . S
H275 C270 0.929 . S
O276 Mn252 2.385 . S
O276 C254 1.234 . S
O277 Mn252 2.209 . S
O277 Mn253 2.215 . S
O277 C254 1.283 . S
O278 Mn252 2.094 . S
O278 C256 1.240 . S
O279 Mn253 2.117 . S
O279 C256 1.264 . S
C280 C273 1.403 . S
C280 C281 1.399 . S
C280 H286 0.929 . S
C281 C261 1.449 . S
C281 C280 1.399 . S
C281 H287 0.930 . S
H282 C262 0.931 . S
H283 C263 0.930 . S
H284 C271 0.931 . S
H285 C272 0.929 . S
H286 C280 0.929 . S
H287 C281 0.930 . S
Mn288 O293 2.095 . S
Mn288 O303 2.162 . S
Mn288 O304 2.297 . S
Mn288 O312 2.385 1_556 S
Mn288 O313 2.209 1_556 S
Mn288 O314 2.094 . S
Mn289 O294 2.121 . S
Mn289 N296 2.257 . S
Mn289 N305 2.282 . S
Mn289 O313 2.215 . S
Mn289 O315 2.117 . S
C290 O312 1.234 . S
C290 O313 1.283 . S
C291 O303 1.281 . S
C291 O304 1.236 . S
C292 O314 1.240 . S
C292 O315 1.264 1_556 S
O293 Mn288 2.095 . S
O293 C302 1.250 1_556 S
O294 Mn289 2.121 . S
O294 C302 1.258 . S
C295 N296 1.326 . S
C295 C299 1.460 . S
C295 H301 0.929 . S
N296 Mn289 2.257 . S
N296 C295 1.326 . S
N296 C300 1.362 . S
C297 C298 1.258 . S
C297 C300 1.431 . S
C297 C317 1.449 . S
C298 C297 1.258 . S
C298 C299 1.477 . S
C298 H318 0.931 . S
C299 C295 1.460 . S
C299 C298 1.477 . S
C299 H319 0.930 . S
C300 N296 1.362 . S
C300 C297 1.431 . S
C300 C310 1.476 . S
H301 C295 0.929 . S
C302 O293 1.250 1_554 S
C302 O294 1.258 . S
O303 Mn288 2.162 . S
O303 C291 1.281 . S
O304 Mn288 2.297 . S
O304 C291 1.236 . S
N305 Mn289 2.282 . S
N305 C306 1.328 . S
N305 C310 1.318 . S
C306 N305 1.328 . S
C306 C307 1.457 . S
C306 H311 0.929 . S
C307 C306 1.457 . S
C307 C308 1.291 . S
C307 H320 0.931 . S
C308 C307 1.291 . S
C308 C309 1.373 . S
C308 H321 0.929 . S
C309 C308 1.373 . S
C309 C310 1.396 . S
C309 C316 1.403 . S
C310 C300 1.476 . S
C310 N305 1.318 . S
C310 C309 1.396 . S
H311 C306 0.929 . S
O312 Mn288 2.385 1_554 S
O312 C290 1.234 . S
O313 Mn288 2.209 1_554 S
O313 Mn289 2.215 . S
O313 C290 1.283 . S
O314 Mn288 2.094 . S
O314 C292 1.240 . S
O315 Mn289 2.117 . S
O315 C292 1.264 1_554 S
C316 C309 1.403 . S
C316 C317 1.399 . S
C316 H322 0.929 . S
C317 C297 1.449 . S
C317 C316 1.399 . S
C317 H323 0.930 . S
H318 C298 0.931 . S
H319 C299 0.930 . S
H320 C307 0.931 . S
H321 C308 0.929 . S
H322 C316 0.929 . S
H323 C317 0.930 . S
Mn324 O329 2.095 . S
Mn324 O339 2.162 . S
Mn324 O340 2.297 . S
Mn324 O348 2.385 . S
Mn324 O349 2.209 . S
Mn324 O350 2.094 . S
Mn325 O330 2.121 . S
Mn325 N332 2.257 . S
Mn325 N341 2.282 . S
Mn325 O349 2.215 . S
Mn325 O351 2.117 . S
C326 O348 1.234 . S
C326 O349 1.283 . S
C327 O339 1.281 . S
C327 O340 1.236 . S
C328 O350 1.240 . S
C328 O351 1.264 . S
O329 Mn324 2.095 . S
O329 C338 1.250 . S
O330 Mn325 2.121 . S
O330 C338 1.258 . S
C331 N332 1.326 . S
C331 C335 1.460 . S
C331 H337 0.929 . S
N332 Mn325 2.257 . S
N332 C331 1.326 . S
N332 C336 1.362 . S
C333 C334 1.258 . S
C333 C336 1.431 . S
C333 C353 1.449 . S
C334 C333 1.258 . S
C334 C335 1.477 . S
C334 H354 0.931 . S
C335 C331 1.460 . S
C335 C334 1.477 . S
C335 H355 0.930 . S
C336 N332 1.362 . S
C336 C333 1.431 . S
C336 C346 1.476 . S
H337 C331 0.929 . S
C338 O329 1.250 . S
C338 O330 1.258 . S
O339 Mn324 2.162 . S
O339 C327 1.281 . S
O340 Mn324 2.297 . S
O340 C327 1.236 . S
N341 Mn325 2.282 . S
N341 C342 1.328 . S
N341 C346 1.318 . S
C342 N341 1.328 . S
C342 C343 1.457 . S
C342 H347 0.929 . S
C343 C342 1.457 . S
C343 C344 1.291 . S
C343 H356 0.931 . S
C344 C343 1.291 . S
C344 C345 1.373 . S
C344 H357 0.929 . S
C345 C344 1.373 . S
C345 C346 1.396 . S
C345 C352 1.403 . S
C346 C336 1.476 . S
C346 N341 1.318 . S
C346 C345 1.396 . S
H347 C342 0.929 . S
O348 Mn324 2.385 . S
O348 C326 1.234 . S
O349 Mn324 2.209 . S
O349 Mn325 2.215 . S
O349 C326 1.283 . S
O350 Mn324 2.094 . S
O350 C328 1.240 . S
O351 Mn325 2.117 . S
O351 C328 1.264 . S
C352 C345 1.403 . S
C352 C353 1.399 . S
C352 H358 0.929 . S
C353 C333 1.449 . S
C353 C352 1.399 . S
C353 H359 0.930 . S
H354 C334 0.931 . S
H355 C335 0.930 . S
H356 C343 0.931 . S
H357 C344 0.929 . S
H358 C352 0.929 . S
H359 C353 0.930 . S
Mn360 O365 2.095 . S
Mn360 O375 2.162 . S
Mn360 O376 2.297 . S
Mn360 O384 2.385 . S
Mn360 O385 2.209 . S
Mn360 O386 2.094 . S
Mn361 O366 2.121 . S
Mn361 N368 2.257 . S
Mn361 N377 2.282 . S
Mn361 O385 2.215 . S
Mn361 O387 2.117 . S
C362 O384 1.234 . S
C362 O385 1.283 . S
C363 O375 1.281 . S
C363 O376 1.236 . S
C364 O386 1.240 . S
C364 O387 1.264 . S
O365 Mn360 2.095 . S
O365 C374 1.250 . S
O366 Mn361 2.121 . S
O366 C374 1.258 . S
C367 N368 1.326 . S
C367 C371 1.460 . S
C367 H373 0.929 . S
N368 Mn361 2.257 . S
N368 C367 1.326 . S
N368 C372 1.362 . S
C369 C370 1.258 . S
C369 C372 1.431 . S
C369 C389 1.449 . S
C370 C369 1.258 . S
C370 C371 1.477 . S
C370 H390 0.931 . S
C371 C367 1.460 . S
C371 C370 1.477 . S
C371 H391 0.930 . S
C372 N368 1.362 . S
C372 C369 1.431 . S
C372 C382 1.476 . S
H373 C367 0.929 . S
C374 O365 1.250 . S
C374 O366 1.258 . S
O375 Mn360 2.162 . S
O375 C363 1.281 . S
O376 Mn360 2.297 . S
O376 C363 1.236 . S
N377 Mn361 2.282 . S
N377 C378 1.328 . S
N377 C382 1.318 . S
C378 N377 1.328 . S
C378 C379 1.457 . S
C378 H383 0.929 . S
C379 C378 1.457 . S
C379 C380 1.291 . S
C379 H392 0.931 . S
C380 C379 1.291 . S
C380 C381 1.373 . S
C380 H393 0.929 . S
C381 C380 1.373 . S
C381 C382 1.396 . S
C381 C388 1.403 . S
C382 C372 1.476 . S
C382 N377 1.318 . S
C382 C381 1.396 . S
H383 C378 0.929 . S
O384 Mn360 2.385 . S
O384 C362 1.234 . S
O385 Mn360 2.209 . S
O385 Mn361 2.215 . S
O385 C362 1.283 . S
O386 Mn360 2.094 . S
O386 C364 1.240 . S
O387 Mn361 2.117 . S
O387 C364 1.264 . S
C388 C381 1.403 . S
C388 C389 1.399 . S
C388 H394 0.929 . S
C389 C369 1.449 . S
C389 C388 1.399 . S
C389 H395 0.930 . S
H390 C370 0.931 . S
H391 C371 0.930 . S
H392 C379 0.931 . S
H393 C380 0.929 . S
H394 C388 0.929 . S
H395 C389 0.930 . S
Mn396 O401 2.095 . S
Mn396 O411 2.162 . S
Mn396 O412 2.297 . S
Mn396 O420 2.385 . S
Mn396 O421 2.209 . S
Mn396 O422 2.094 . S
Mn397 O402 2.121 . S
Mn397 N404 2.257 . S
Mn397 N413 2.282 . S
Mn397 O421 2.215 . S
Mn397 O423 2.117 . S
C398 O420 1.234 . S
C398 O421 1.283 . S
C399 O411 1.281 . S
C399 O412 1.236 . S
C400 O422 1.240 . S
C400 O423 1.264 . S
O401 Mn396 2.095 . S
O401 C410 1.250 . S
O402 Mn397 2.121 . S
O402 C410 1.258 . S
C403 N404 1.326 . S
C403 C407 1.460 . S
C403 H409 0.929 . S
N404 Mn397 2.257 . S
N404 C403 1.326 . S
N404 C408 1.362 . S
C405 C406 1.258 . S
C405 C408 1.431 . S
C405 C425 1.449 . S
C406 C405 1.258 . S
C406 C407 1.477 . S
C406 H426 0.931 . S
C407 C403 1.460 . S
C407 C406 1.477 . S
C407 H427 0.930 . S
C408 N404 1.362 . S
C408 C405 1.431 . S
C408 C418 1.476 . S
H409 C403 0.929 . S
C410 O401 1.250 . S
C410 O402 1.258 . S
O411 Mn396 2.162 . S
O411 C399 1.281 . S
O412 Mn396 2.297 . S
O412 C399 1.236 . S
N413 Mn397 2.282 . S
N413 C414 1.328 . S
N413 C418 1.318 . S
C414 N413 1.328 . S
C414 C415 1.457 . S
C414 H419 0.929 . S
C415 C414 1.457 . S
C415 C416 1.291 . S
C415 H428 0.931 . S
C416 C415 1.291 . S
C416 C417 1.373 . S
C416 H429 0.929 . S
C417 C416 1.373 . S
C417 C418 1.396 . S
C417 C424 1.403 . S
C418 C408 1.476 . S
C418 N413 1.318 . S
C418 C417 1.396 . S
H419 C414 0.929 . S
O420 Mn396 2.385 . S
O420 C398 1.234 . S
O421 Mn396 2.209 . S
O421 Mn397 2.215 . S
O421 C398 1.283 . S
O422 Mn396 2.094 . S
O422 C400 1.240 . S
O423 Mn397 2.117 . S
O423 C400 1.264 . S
C424 C417 1.403 . S
C424 C425 1.399 . S
C424 H430 0.929 . S
C425 C405 1.449 . S
C425 C424 1.399 . S
C425 H431 0.930 . S
H426 C406 0.931 . S
H427 C407 0.930 . S
H428 C415 0.931 . S
H429 C416 0.929 . S
H430 C424 0.929 . S
H431 C425 0.930 . S
Mn432 O437 2.095 . S
Mn432 O447 2.162 . S
Mn432 O448 2.297 . S
Mn432 O456 2.385 . S
Mn432 O457 2.209 . S
Mn432 O458 2.094 . S
Mn433 O438 2.121 . S
Mn433 N440 2.257 . S
Mn433 N449 2.282 . S
Mn433 O457 2.215 . S
Mn433 O459 2.117 . S
C434 O456 1.234 . S
C434 O457 1.283 . S
C435 O447 1.281 . S
C435 O448 1.236 . S
C436 O458 1.240 . S
C436 O459 1.264 . S
O437 Mn432 2.095 . S
O437 C446 1.250 . S
O438 Mn433 2.121 . S
O438 C446 1.258 . S
C439 N440 1.326 . S
C439 C443 1.460 . S
C439 H445 0.929 . S
N440 Mn433 2.257 . S
N440 C439 1.326 . S
N440 C444 1.362 . S
C441 C442 1.258 . S
C441 C444 1.431 . S
C441 C461 1.449 . S
C442 C441 1.258 . S
C442 C443 1.477 . S
C442 H462 0.931 . S
C443 C439 1.460 . S
C443 C442 1.477 . S
C443 H463 0.930 . S
C444 N440 1.362 . S
C444 C441 1.431 . S
C444 C454 1.476 . S
H445 C439 0.929 . S
C446 O437 1.250 . S
C446 O438 1.258 . S
O447 Mn432 2.162 . S
O447 C435 1.281 . S
O448 Mn432 2.297 . S
O448 C435 1.236 . S
N449 Mn433 2.282 . S
N449 C450 1.328 . S
N449 C454 1.318 . S
C450 N449 1.328 . S
C450 C451 1.457 . S
C450 H455 0.929 . S
C451 C450 1.457 . S
C451 C452 1.291 . S
C451 H464 0.931 . S
C452 C451 1.291 . S
C452 C453 1.373 . S
C452 H465 0.929 . S
C453 C452 1.373 . S
C453 C454 1.396 . S
C453 C460 1.403 . S
C454 C444 1.476 . S
C454 N449 1.318 . S
C454 C453 1.396 . S
H455 C450 0.929 . S
O456 Mn432 2.385 . S
O456 C434 1.234 . S
O457 Mn432 2.209 . S
O457 Mn433 2.215 . S
O457 C434 1.283 . S
O458 Mn432 2.094 . S
O458 C436 1.240 . S
O459 Mn433 2.117 . S
O459 C436 1.264 . S
C460 C453 1.403 . S
C460 C461 1.399 . S
C460 H466 0.929 . S
C461 C441 1.449 . S
C461 C460 1.399 . S
C461 H467 0.930 . S
H462 C442 0.931 . S
H463 C443 0.930 . S
H464 C451 0.931 . S
H465 C452 0.929 . S
H466 C460 0.929 . S
H467 C461 0.930 . S
Mn468 O473 2.095 . S
Mn468 O483 2.162 . S
Mn468 O484 2.297 . S
Mn468 O492 2.385 . S
Mn468 O493 2.209 . S
Mn468 O494 2.094 . S
Mn469 O474 2.121 . S
Mn469 N476 2.257 . S
Mn469 N485 2.282 . S
Mn469 O493 2.215 . S
Mn469 O495 2.117 . S
C470 O492 1.234 . S
C470 O493 1.283 . S
C471 O483 1.281 . S
C471 O484 1.236 . S
C472 O494 1.240 . S
C472 O495 1.264 . S
O473 Mn468 2.095 . S
O473 C482 1.250 . S
O474 Mn469 2.121 . S
O474 C482 1.258 . S
C475 N476 1.326 . S
C475 C479 1.460 . S
C475 H481 0.929 . S
N476 Mn469 2.257 . S
N476 C475 1.326 . S
N476 C480 1.362 . S
C477 C478 1.258 . S
C477 C480 1.431 . S
C477 C497 1.449 . S
C478 C477 1.258 . S
C478 C479 1.477 . S
C478 H498 0.931 . S
C479 C475 1.460 . S
C479 C478 1.477 . S
C479 H499 0.930 . S
C480 N476 1.362 . S
C480 C477 1.431 . S
C480 C490 1.476 . S
H481 C475 0.929 . S
C482 O473 1.250 . S
C482 O474 1.258 . S
O483 Mn468 2.162 . S
O483 C471 1.281 . S
O484 Mn468 2.297 . S
O484 C471 1.236 . S
N485 Mn469 2.282 . S
N485 C486 1.328 . S
N485 C490 1.318 . S
C486 N485 1.328 . S
C486 C487 1.457 . S
C486 H491 0.929 . S
C487 C486 1.457 . S
C487 C488 1.291 . S
C487 H500 0.931 . S
C488 C487 1.291 . S
C488 C489 1.373 . S
C488 H501 0.929 . S
C489 C488 1.373 . S
C489 C490 1.396 . S
C489 C496 1.403 . S
C490 C480 1.476 . S
C490 N485 1.318 . S
C490 C489 1.396 . S
H491 C486 0.929 . S
O492 Mn468 2.385 . S
O492 C470 1.234 . S
O493 Mn468 2.209 . S
O493 Mn469 2.215 . S
O493 C470 1.283 . S
O494 Mn468 2.094 . S
O494 C472 1.240 . S
O495 Mn469 2.117 . S
O495 C472 1.264 . S
C496 C489 1.403 . S
C496 C497 1.399 . S
C496 H502 0.929 . S
C497 C477 1.449 . S
C497 C496 1.399 . S
C497 H503 0.930 . S
H498 C478 0.931 . S
H499 C479 0.930 . S
H500 C487 0.931 . S
H501 C488 0.929 . S
H502 C496 0.929 . S
H503 C497 0.930 . S
Mn504 O509 2.095 . S
Mn504 O519 2.162 . S
Mn504 O520 2.297 . S
Mn504 O528 2.385 . S
Mn504 O529 2.209 . S
Mn504 O530 2.094 . S
Mn505 O510 2.121 . S
Mn505 N512 2.257 . S
Mn505 N521 2.282 . S
Mn505 O529 2.215 . S
Mn505 O531 2.117 . S
C506 O528 1.234 . S
C506 O529 1.283 . S
C507 O519 1.281 . S
C507 O520 1.236 . S
C508 O530 1.240 . S
C508 O531 1.264 . S
O509 Mn504 2.095 . S
O509 C518 1.250 . S
O510 Mn505 2.121 . S
O510 C518 1.258 . S
C511 N512 1.326 . S
C511 C515 1.460 . S
C511 H517 0.929 . S
N512 Mn505 2.257 . S
N512 C511 1.326 . S
N512 C516 1.362 . S
C513 C514 1.258 . S
C513 C516 1.431 . S
C513 C533 1.449 . S
C514 C513 1.258 . S
C514 C515 1.477 . S
C514 H534 0.931 . S
C515 C511 1.460 . S
C515 C514 1.477 . S
C515 H535 0.930 . S
C516 N512 1.362 . S
C516 C513 1.431 . S
C516 C526 1.476 . S
H517 C511 0.929 . S
C518 O509 1.250 . S
C518 O510 1.258 . S
O519 Mn504 2.162 . S
O519 C507 1.281 . S
O520 Mn504 2.297 . S
O520 C507 1.236 . S
N521 Mn505 2.282 . S
N521 C522 1.328 . S
N521 C526 1.318 . S
C522 N521 1.328 . S
C522 C523 1.457 . S
C522 H527 0.929 . S
C523 C522 1.457 . S
C523 C524 1.291 . S
C523 H536 0.931 . S
C524 C523 1.291 . S
C524 C525 1.373 . S
C524 H537 0.929 . S
C525 C524 1.373 . S
C525 C526 1.396 . S
C525 C532 1.403 . S
C526 C516 1.476 . S
C526 N521 1.318 . S
C526 C525 1.396 . S
H527 C522 0.929 . S
O528 Mn504 2.385 . S
O528 C506 1.234 . S
O529 Mn504 2.209 . S
O529 Mn505 2.215 . S
O529 C506 1.283 . S
O530 Mn504 2.094 . S
O530 C508 1.240 . S
O531 Mn505 2.117 . S
O531 C508 1.264 . S
C532 C525 1.403 . S
C532 C533 1.399 . S
C532 H538 0.929 . S
C533 C513 1.449 . S
C533 C532 1.399 . S
C533 H539 0.930 . S
H534 C514 0.931 . S
H535 C515 0.930 . S
H536 C523 0.931 . S
H537 C524 0.929 . S
H538 C532 0.929 . S
H539 C533 0.930 . S
Mn540 O545 2.095 . S
Mn540 O555 2.162 . S
Mn540 O556 2.297 . S
Mn540 O564 2.385 . S
Mn540 O565 2.209 . S
Mn540 O566 2.094 . S
Mn541 O546 2.121 . S
Mn541 N548 2.257 . S
Mn541 N557 2.282 . S
Mn541 O565 2.215 . S
Mn541 O567 2.117 . S
C542 O564 1.234 . S
C542 O565 1.283 . S
C543 O555 1.281 . S
C543 O556 1.236 . S
C544 O566 1.240 . S
C544 O567 1.264 . S
O545 Mn540 2.095 . S
O545 C554 1.250 . S
O546 Mn541 2.121 . S
O546 C554 1.258 . S
C547 N548 1.326 . S
C547 C551 1.460 . S
C547 H553 0.929 . S
N548 Mn541 2.257 . S
N548 C547 1.326 . S
N548 C552 1.362 . S
C549 C550 1.258 . S
C549 C552 1.431 . S
C549 C569 1.449 . S
C550 C549 1.258 . S
C550 C551 1.477 . S
C550 H570 0.931 . S
C551 C547 1.460 . S
C551 C550 1.477 . S
C551 H571 0.930 . S
C552 N548 1.362 . S
C552 C549 1.431 . S
C552 C562 1.476 . S
H553 C547 0.929 . S
C554 O545 1.250 . S
C554 O546 1.258 . S
O555 Mn540 2.162 . S
O555 C543 1.281 . S
O556 Mn540 2.297 . S
O556 C543 1.236 . S
N557 Mn541 2.282 . S
N557 C558 1.328 . S
N557 C562 1.318 . S
C558 N557 1.328 . S
C558 C559 1.457 . S
C558 H563 0.929 . S
C559 C558 1.457 . S
C559 C560 1.291 . S
C559 H572 0.931 . S
C560 C559 1.291 . S
C560 C561 1.373 . S
C560 H573 0.929 . S
C561 C560 1.373 . S
C561 C562 1.396 . S
C561 C568 1.403 . S
C562 C552 1.476 . S
C562 N557 1.318 . S
C562 C561 1.396 . S
H563 C558 0.929 . S
O564 Mn540 2.385 . S
O564 C542 1.234 . S
O565 Mn540 2.209 . S
O565 Mn541 2.215 . S
O565 C542 1.283 . S
O566 Mn540 2.094 . S
O566 C544 1.240 . S
O567 Mn541 2.117 . S
O567 C544 1.264 . S
C568 C561 1.403 . S
C568 C569 1.399 . S
C568 H574 0.929 . S
C569 C549 1.449 . S
C569 C568 1.399 . S
C569 H575 0.930 . S
H570 C550 0.931 . S
H571 C551 0.930 . S
H572 C559 0.931 . S
H573 C560 0.929 . S
H574 C568 0.929 . S
H575 C569 0.930 . S
Mn576 O581 2.095 . S
Mn576 O591 2.162 . S
Mn576 O592 2.297 . S
Mn576 O600 2.385 . S
Mn576 O601 2.209 . S
Mn576 O602 2.094 . S
Mn577 O582 2.121 . S
Mn577 N584 2.257 . S
Mn577 N593 2.282 . S
Mn577 O601 2.215 . S
Mn577 O603 2.117 . S
C578 O600 1.234 . S
C578 O601 1.283 . S
C579 O591 1.281 . S
C579 O592 1.236 . S
C580 O602 1.240 . S
C580 O603 1.264 . S
O581 Mn576 2.095 . S
O581 C590 1.250 . S
O582 Mn577 2.121 . S
O582 C590 1.258 . S
C583 N584 1.326 . S
C583 C587 1.460 . S
C583 H589 0.929 . S
N584 Mn577 2.257 . S
N584 C583 1.326 . S
N584 C588 1.362 . S
C585 C586 1.258 . S
C585 C588 1.431 . S
C585 C605 1.449 . S
C586 C585 1.258 . S
C586 C587 1.477 . S
C586 H606 0.931 . S
C587 C583 1.460 . S
C587 C586 1.477 . S
C587 H607 0.930 . S
C588 N584 1.362 . S
C588 C585 1.431 . S
C588 C598 1.476 . S
H589 C583 0.929 . S
C590 O581 1.250 . S
C590 O582 1.258 . S
O591 Mn576 2.162 . S
O591 C579 1.281 . S
O592 Mn576 2.297 . S
O592 C579 1.236 . S
N593 Mn577 2.282 . S
N593 C594 1.328 . S
N593 C598 1.318 . S
C594 N593 1.328 . S
C594 C595 1.457 . S
C594 H599 0.929 . S
C595 C594 1.457 . S
C595 C596 1.291 . S
C595 H608 0.931 . S
C596 C595 1.291 . S
C596 C597 1.373 . S
C596 H609 0.929 . S
C597 C596 1.373 . S
C597 C598 1.396 . S
C597 C604 1.403 . S
C598 C588 1.476 . S
C598 N593 1.318 . S
C598 C597 1.396 . S
H599 C594 0.929 . S
O600 Mn576 2.385 . S
O600 C578 1.234 . S
O601 Mn576 2.209 . S
O601 Mn577 2.215 . S
O601 C578 1.283 . S
O602 Mn576 2.094 . S
O602 C580 1.240 . S
O603 Mn577 2.117 . S
O603 C580 1.264 . S
C604 C597 1.403 . S
C604 C605 1.399 . S
C604 H610 0.929 . S
C605 C585 1.449 . S
C605 C604 1.399 . S
C605 H611 0.930 . S
H606 C586 0.931 . S
H607 C587 0.930 . S
H608 C595 0.931 . S
H609 C596 0.929 . S
H610 C604 0.929 . S
H611 C605 0.930 . S
Mn612 O617 2.095 . S
Mn612 O627 2.162 . S
Mn612 O628 2.297 . S
Mn612 O636 2.385 1_545 S
Mn612 O637 2.209 1_545 S
Mn612 O638 2.094 . S
Mn613 O618 2.121 . S
Mn613 N620 2.257 . S
Mn613 N629 2.282 . S
Mn613 O637 2.215 . S
Mn613 O639 2.117 . S
C614 O636 1.234 . S
C614 O637 1.283 . S
C615 O627 1.281 . S
C615 O628 1.236 . S
C616 O638 1.240 . S
C616 O639 1.264 1_545 S
O617 Mn612 2.095 . S
O617 C626 1.250 1_545 S
O618 Mn613 2.121 . S
O618 C626 1.258 . S
C619 N620 1.326 . S
C619 C623 1.460 . S
C619 H625 0.929 . S
N620 Mn613 2.257 . S
N620 C619 1.326 . S
N620 C624 1.362 . S
C621 C622 1.258 . S
C621 C624 1.431 . S
C621 C641 1.449 . S
C622 C621 1.258 . S
C622 C623 1.477 . S
C622 H642 0.931 . S
C623 C619 1.460 . S
C623 C622 1.477 . S
C623 H643 0.930 . S
C624 N620 1.362 . S
C624 C621 1.431 . S
C624 C634 1.476 . S
H625 C619 0.929 . S
C626 O617 1.250 1_565 S
C626 O618 1.258 . S
O627 Mn612 2.162 . S
O627 C615 1.281 . S
O628 Mn612 2.297 . S
O628 C615 1.236 . S
N629 Mn613 2.282 . S
N629 C630 1.328 . S
N629 C634 1.318 . S
C630 N629 1.328 . S
C630 C631 1.457 . S
C630 H635 0.929 . S
C631 C630 1.457 . S
C631 C632 1.291 . S
C631 H644 0.931 . S
C632 C631 1.291 . S
C632 C633 1.373 . S
C632 H645 0.929 . S
C633 C632 1.373 . S
C633 C634 1.396 . S
C633 C640 1.403 . S
C634 C624 1.476 . S
C634 N629 1.318 . S
C634 C633 1.396 . S
H635 C630 0.929 . S
O636 Mn612 2.385 1_565 S
O636 C614 1.234 . S
O637 Mn612 2.209 1_565 S
O637 Mn613 2.215 . S
O637 C614 1.283 . S
O638 Mn612 2.094 . S
O638 C616 1.240 . S
O639 Mn613 2.117 . S
O639 C616 1.264 1_565 S
C640 C633 1.403 . S
C640 C641 1.399 . S
C640 H646 0.929 . S
C641 C621 1.449 . S
C641 C640 1.399 . S
C641 H647 0.930 . S
H642 C622 0.931 . S
H643 C623 0.930 . S
H644 C631 0.931 . S
H645 C632 0.929 . S
H646 C640 0.929 . S
H647 C641 0.930 . S
Mn648 O653 2.095 . S
Mn648 O663 2.162 . S
Mn648 O664 2.297 . S
Mn648 O672 2.385 . S
Mn648 O673 2.209 . S
Mn648 O674 2.094 . S
Mn649 O654 2.121 . S
Mn649 N656 2.257 . S
Mn649 N665 2.282 . S
Mn649 O673 2.215 . S
Mn649 O675 2.117 . S
C650 O672 1.234 . S
C650 O673 1.283 . S
C651 O663 1.281 . S
C651 O664 1.236 . S
C652 O674 1.240 . S
C652 O675 1.264 . S
O653 Mn648 2.095 . S
O653 C662 1.250 . S
O654 Mn649 2.121 . S
O654 C662 1.258 . S
C655 N656 1.326 . S
C655 C659 1.460 . S
C655 H661 0.929 . S
N656 Mn649 2.257 . S
N656 C655 1.326 . S
N656 C660 1.362 . S
C657 C658 1.258 . S
C657 C660 1.431 . S
C657 C677 1.449 . S
C658 C657 1.258 . S
C658 C659 1.477 . S
C658 H678 0.931 . S
C659 C655 1.460 . S
C659 C658 1.477 . S
C659 H679 0.930 . S
C660 N656 1.362 . S
C660 C657 1.431 . S
C660 C670 1.476 . S
H661 C655 0.929 . S
C662 O653 1.250 . S
C662 O654 1.258 . S
O663 Mn648 2.162 . S
O663 C651 1.281 . S
O664 Mn648 2.297 . S
O664 C651 1.236 . S
N665 Mn649 2.282 . S
N665 C666 1.328 . S
N665 C670 1.318 . S
C666 N665 1.328 . S
C666 C667 1.457 . S
C666 H671 0.929 . S
C667 C666 1.457 . S
C667 C668 1.291 . S
C667 H680 0.931 . S
C668 C667 1.291 . S
C668 C669 1.373 . S
C668 H681 0.929 . S
C669 C668 1.373 . S
C669 C670 1.396 . S
C669 C676 1.403 . S
C670 C660 1.476 . S
C670 N665 1.318 . S
C670 C669 1.396 . S
H671 C666 0.929 . S
O672 Mn648 2.385 . S
O672 C650 1.234 . S
O673 Mn648 2.209 . S
O673 Mn649 2.215 . S
O673 C650 1.283 . S
O674 Mn648 2.094 . S
O674 C652 1.240 . S
O675 Mn649 2.117 . S
O675 C652 1.264 . S
C676 C669 1.403 . S
C676 C677 1.399 . S
C676 H682 0.929 . S
C677 C657 1.449 . S
C677 C676 1.399 . S
C677 H683 0.930 . S
H678 C658 0.931 . S
H679 C659 0.930 . S
H680 C667 0.931 . S
H681 C668 0.929 . S
H682 C676 0.929 . S
H683 C677 0.930 . S
Mn684 O689 2.095 . S
Mn684 O699 2.162 . S
Mn684 O700 2.297 . S
Mn684 O708 2.385 1_565 S
Mn684 O709 2.209 1_565 S
Mn684 O710 2.094 . S
Mn685 O690 2.121 . S
Mn685 N692 2.257 . S
Mn685 N701 2.282 . S
Mn685 O709 2.215 . S
Mn685 O711 2.117 . S
C686 O708 1.234 . S
C686 O709 1.283 . S
C687 O699 1.281 . S
C687 O700 1.236 . S
C688 O710 1.240 . S
C688 O711 1.264 1_565 S
O689 Mn684 2.095 . S
O689 C698 1.250 1_565 S
O690 Mn685 2.121 . S
O690 C698 1.258 . S
C691 N692 1.326 . S
C691 C695 1.460 . S
C691 H697 0.929 . S
N692 Mn685 2.257 . S
N692 C691 1.326 . S
N692 C696 1.362 . S
C693 C694 1.258 . S
C693 C696 1.431 . S
C693 C713 1.449 . S
C694 C693 1.258 . S
C694 C695 1.477 . S
C694 H714 0.931 . S
C695 C691 1.460 . S
C695 C694 1.477 . S
C695 H715 0.930 . S
C696 N692 1.362 . S
C696 C693 1.431 . S
C696 C706 1.476 . S
H697 C691 0.929 . S
C698 O689 1.250 1_545 S
C698 O690 1.258 . S
O699 Mn684 2.162 . S
O699 C687 1.281 . S
O700 Mn684 2.297 . S
O700 C687 1.236 . S
N701 Mn685 2.282 . S
N701 C702 1.328 . S
N701 C706 1.318 . S
C702 N701 1.328 . S
C702 C703 1.457 . S
C702 H707 0.929 . S
C703 C702 1.457 . S
C703 C704 1.291 . S
C703 H716 0.931 . S
C704 C703 1.291 . S
C704 C705 1.373 . S
C704 H717 0.929 . S
C705 C704 1.373 . S
C705 C706 1.396 . S
C705 C712 1.403 . S
C706 C696 1.476 . S
C706 N701 1.318 . S
C706 C705 1.396 . S
H707 C702 0.929 . S
O708 Mn684 2.385 1_545 S
O708 C686 1.234 . S
O709 Mn684 2.209 1_545 S
O709 Mn685 2.215 . S
O709 C686 1.283 . S
O710 Mn684 2.094 . S
O710 C688 1.240 . S
O711 Mn685 2.117 . S
O711 C688 1.264 1_545 S
C712 C705 1.403 . S
C712 C713 1.399 . S
C712 H718 0.929 . S
C713 C693 1.449 . S
C713 C712 1.399 . S
C713 H719 0.930 . S
H714 C694 0.931 . S
H715 C695 0.930 . S
H716 C703 0.931 . S
H717 C704 0.929 . S
H718 C712 0.929 . S
H719 C713 0.930 . S
Mn720 O725 2.095 . S
Mn720 O735 2.162 . S
Mn720 O736 2.297 . S
Mn720 O744 2.385 . S
Mn720 O745 2.209 . S
Mn720 O746 2.094 . S
Mn721 O726 2.121 . S
Mn721 N728 2.257 . S
Mn721 N737 2.282 . S
Mn721 O745 2.215 . S
Mn721 O747 2.117 . S
C722 O744 1.234 . S
C722 O745 1.283 . S
C723 O735 1.281 . S
C723 O736 1.236 . S
C724 O746 1.240 . S
C724 O747 1.264 . S
O725 Mn720 2.095 . S
O725 C734 1.250 . S
O726 Mn721 2.121 . S
O726 C734 1.258 . S
C727 N728 1.326 . S
C727 C731 1.460 . S
C727 H733 0.929 . S
N728 Mn721 2.257 . S
N728 C727 1.326 . S
N728 C732 1.362 . S
C729 C730 1.258 . S
C729 C732 1.431 . S
C729 C749 1.449 . S
C730 C729 1.258 . S
C730 C731 1.477 . S
C730 H750 0.931 . S
C731 C727 1.460 . S
C731 C730 1.477 . S
C731 H751 0.930 . S
C732 N728 1.362 . S
C732 C729 1.431 . S
C732 C742 1.476 . S
H733 C727 0.929 . S
C734 O725 1.250 . S
C734 O726 1.258 . S
O735 Mn720 2.162 . S
O735 C723 1.281 . S
O736 Mn720 2.297 . S
O736 C723 1.236 . S
N737 Mn721 2.282 . S
N737 C738 1.328 . S
N737 C742 1.318 . S
C738 N737 1.328 . S
C738 C739 1.457 . S
C738 H743 0.929 . S
C739 C738 1.457 . S
C739 C740 1.291 . S
C739 H752 0.931 . S
C740 C739 1.291 . S
C740 C741 1.373 . S
C740 H753 0.929 . S
C741 C740 1.373 . S
C741 C742 1.396 . S
C741 C748 1.403 . S
C742 C732 1.476 . S
C742 N737 1.318 . S
C742 C741 1.396 . S
H743 C738 0.929 . S
O744 Mn720 2.385 . S
O744 C722 1.234 . S
O745 Mn720 2.209 . S
O745 Mn721 2.215 . S
O745 C722 1.283 . S
O746 Mn720 2.094 . S
O746 C724 1.240 . S
O747 Mn721 2.117 . S
O747 C724 1.264 . S
C748 C741 1.403 . S
C748 C749 1.399 . S
C748 H754 0.929 . S
C749 C729 1.449 . S
C749 C748 1.399 . S
C749 H755 0.930 . S
H750 C730 0.931 . S
H751 C731 0.930 . S
H752 C739 0.931 . S
H753 C740 0.929 . S
H754 C748 0.929 . S
H755 C749 0.930 . S
Mn756 O761 2.095 . S
Mn756 O771 2.162 . S
Mn756 O772 2.297 . S
Mn756 O780 2.385 1_554 S
Mn756 O781 2.209 1_554 S
Mn756 O782 2.094 . S
Mn757 O762 2.121 . S
Mn757 N764 2.257 . S
Mn757 N773 2.282 . S
Mn757 O781 2.215 . S
Mn757 O783 2.117 . S
C758 O780 1.234 . S
C758 O781 1.283 . S
C759 O771 1.281 . S
C759 O772 1.236 . S
C760 O782 1.240 . S
C760 O783 1.264 1_554 S
O761 Mn756 2.095 . S
O761 C770 1.250 1_554 S
O762 Mn757 2.121 . S
O762 C770 1.258 . S
C763 N764 1.326 . S
C763 C767 1.460 . S
C763 H769 0.929 . S
N764 Mn757 2.257 . S
N764 C763 1.326 . S
N764 C768 1.362 . S
C765 C766 1.258 . S
C765 C768 1.431 . S
C765 C785 1.449 . S
C766 C765 1.258 . S
C766 C767 1.477 . S
C766 H786 0.931 . S
C767 C763 1.460 . S
C767 C766 1.477 . S
C767 H787 0.930 . S
C768 N764 1.362 . S
C768 C765 1.431 . S
C768 C778 1.476 . S
H769 C763 0.929 . S
C770 O761 1.250 1_556 S
C770 O762 1.258 . S
O771 Mn756 2.162 . S
O771 C759 1.281 . S
O772 Mn756 2.297 . S
O772 C759 1.236 . S
N773 Mn757 2.282 . S
N773 C774 1.328 . S
N773 C778 1.318 . S
C774 N773 1.328 . S
C774 C775 1.457 . S
C774 H779 0.929 . S
C775 C774 1.457 . S
C775 C776 1.291 . S
C775 H788 0.931 . S
C776 C775 1.291 . S
C776 C777 1.373 . S
C776 H789 0.929 . S
C777 C776 1.373 . S
C777 C778 1.396 . S
C777 C784 1.403 . S
C778 C768 1.476 . S
C778 N773 1.318 . S
C778 C777 1.396 . S
H779 C774 0.929 . S
O780 Mn756 2.385 1_556 S
O780 C758 1.234 . S
O781 Mn756 2.209 1_556 S
O781 Mn757 2.215 . S
O781 C758 1.283 . S
O782 Mn756 2.094 . S
O782 C760 1.240 . S
O783 Mn757 2.117 . S
O783 C760 1.264 1_556 S
C784 C777 1.403 . S
C784 C785 1.399 . S
C784 H790 0.929 . S
C785 C765 1.449 . S
C785 C784 1.399 . S
C785 H791 0.930 . S
H786 C766 0.931 . S
H787 C767 0.930 . S
H788 C775 0.931 . S
H789 C776 0.929 . S
H790 C784 0.929 . S
H791 C785 0.930 . S
Mn792 O797 2.095 . S
Mn792 O807 2.162 . S
Mn792 O808 2.297 . S
Mn792 O816 2.385 1_554 S
Mn792 O817 2.209 1_554 S
Mn792 O818 2.094 . S
Mn793 O798 2.121 . S
Mn793 N800 2.257 . S
Mn793 N809 2.282 . S
Mn793 O817 2.215 . S
Mn793 O819 2.117 . S
C794 O816 1.234 . S
C794 O817 1.283 . S
C795 O807 1.281 . S
C795 O808 1.236 . S
C796 O818 1.240 . S
C796 O819 1.264 1_554 S
O797 Mn792 2.095 . S
O797 C806 1.250 1_554 S
O798 Mn793 2.121 . S
O798 C806 1.258 . S
C799 N800 1.326 . S
C799 C803 1.460 . S
C799 H805 0.929 . S
N800 Mn793 2.257 . S
N800 C799 1.326 . S
N800 C804 1.362 . S
C801 C802 1.258 . S
C801 C804 1.431 . S
C801 C821 1.449 . S
C802 C801 1.258 . S
C802 C803 1.477 . S
C802 H822 0.931 . S
C803 C799 1.460 . S
C803 C802 1.477 . S
C803 H823 0.930 . S
C804 N800 1.362 . S
C804 C801 1.431 . S
C804 C814 1.476 . S
H805 C799 0.929 . S
C806 O797 1.250 1_556 S
C806 O798 1.258 . S
O807 Mn792 2.162 . S
O807 C795 1.281 . S
O808 Mn792 2.297 . S
O808 C795 1.236 . S
N809 Mn793 2.282 . S
N809 C810 1.328 . S
N809 C814 1.318 . S
C810 N809 1.328 . S
C810 C811 1.457 . S
C810 H815 0.929 . S
C811 C810 1.457 . S
C811 C812 1.291 . S
C811 H824 0.931 . S
C812 C811 1.291 . S
C812 C813 1.373 . S
C812 H825 0.929 . S
C813 C812 1.373 . S
C813 C814 1.396 . S
C813 C820 1.403 . S
C814 C804 1.476 . S
C814 N809 1.318 . S
C814 C813 1.396 . S
H815 C810 0.929 . S
O816 Mn792 2.385 1_556 S
O816 C794 1.234 . S
O817 Mn792 2.209 1_556 S
O817 Mn793 2.215 . S
O817 C794 1.283 . S
O818 Mn792 2.094 . S
O818 C796 1.240 . S
O819 Mn793 2.117 . S
O819 C796 1.264 1_556 S
C820 C813 1.403 . S
C820 C821 1.399 . S
C820 H826 0.929 . S
C821 C801 1.449 . S
C821 C820 1.399 . S
C821 H827 0.930 . S
H822 C802 0.931 . S
H823 C803 0.930 . S
H824 C811 0.931 . S
H825 C812 0.929 . S
H826 C820 0.929 . S
H827 C821 0.930 . S
Mn828 O833 2.095 . S
Mn828 O843 2.162 . S
Mn828 O844 2.297 . S
Mn828 O852 2.385 1_556 S
Mn828 O853 2.209 1_556 S
Mn828 O854 2.094 . S
Mn829 O834 2.121 . S
Mn829 N836 2.257 . S
Mn829 N845 2.282 . S
Mn829 O853 2.215 . S
Mn829 O855 2.117 . S
C830 O852 1.234 . S
C830 O853 1.283 . S
C831 O843 1.281 . S
C831 O844 1.236 . S
C832 O854 1.240 . S
C832 O855 1.264 1_556 S
O833 Mn828 2.095 . S
O833 C842 1.250 1_556 S
O834 Mn829 2.121 . S
O834 C842 1.258 . S
C835 N836 1.326 . S
C835 C839 1.460 . S
C835 H841 0.929 . S
N836 Mn829 2.257 . S
N836 C835 1.326 . S
N836 C840 1.362 . S
C837 C838 1.258 . S
C837 C840 1.431 . S
C837 C857 1.449 . S
C838 C837 1.258 . S
C838 C839 1.477 . S
C838 H858 0.931 . S
C839 C835 1.460 . S
C839 C838 1.477 . S
C839 H859 0.930 . S
C840 N836 1.362 . S
C840 C837 1.431 . S
C840 C850 1.476 . S
H841 C835 0.929 . S
C842 O833 1.250 1_554 S
C842 O834 1.258 . S
O843 Mn828 2.162 . S
O843 C831 1.281 . S
O844 Mn828 2.297 . S
O844 C831 1.236 . S
N845 Mn829 2.282 . S
N845 C846 1.328 . S
N845 C850 1.318 . S
C846 N845 1.328 . S
C846 C847 1.457 . S
C846 H851 0.929 . S
C847 C846 1.457 . S
C847 C848 1.291 . S
C847 H860 0.931 . S
C848 C847 1.291 . S
C848 C849 1.373 . S
C848 H861 0.929 . S
C849 C848 1.373 . S
C849 C850 1.396 . S
C849 C856 1.403 . S
C850 C840 1.476 . S
C850 N845 1.318 . S
C850 C849 1.396 . S
H851 C846 0.929 . S
O852 Mn828 2.385 1_554 S
O852 C830 1.234 . S
O853 Mn828 2.209 1_554 S
O853 Mn829 2.215 . S
O853 C830 1.283 . S
O854 Mn828 2.094 . S
O854 C832 1.240 . S
O855 Mn829 2.117 . S
O855 C832 1.264 1_554 S
C856 C849 1.403 . S
C856 C857 1.399 . S
C856 H862 0.929 . S
C857 C837 1.449 . S
C857 C856 1.399 . S
C857 H863 0.930 . S
H858 C838 0.931 . S
H859 C839 0.930 . S
H860 C847 0.931 . S
H861 C848 0.929 . S
H862 C856 0.929 . S
H863 C857 0.930 . S
H864 C870 0.930 . S
H865 C874 0.930 . S
H866 C879 0.929 . S
H867 C877 0.929 . S
H868 C872 0.929 . S
H869 C878 0.929 . S
C870 H864 0.930 . S
C870 C871 1.367 . S
C870 C878 1.378 . S
C871 C870 1.367 . S
C871 C879 1.433 . S
C872 H868 0.929 . S
C872 C874 1.378 . S
C872 C876 1.350 . S
C873 C876 1.463 . S
C873 C878 1.350 . S
C873 N881 1.427 . S
C874 H865 0.930 . S
C874 C872 1.378 . S
C874 C875 1.367 . S
C875 C874 1.367 . S
C875 C877 1.433 . S
C876 C872 1.350 . S
C876 C873 1.463 . S
C876 N880 1.427 . S
C877 H867 0.929 . S
C877 C875 1.433 . S
C877 N880 1.384 . S
C878 H869 0.929 . S
C878 C870 1.378 . S
C878 C873 1.350 . S
C879 H866 0.929 . S
C879 C871 1.433 . S
C879 N881 1.384 . S
N880 C876 1.427 . S
N880 C877 1.384 . S
N881 C873 1.427 . S
N881 C879 1.384 . S
H882 C888 0.930 . S
H883 C892 0.930 . S
H884 C897 0.929 . S
H885 C895 0.929 . S
H886 C890 0.929 . S
H887 C896 0.929 . S
C888 H882 0.930 . S
C888 C889 1.367 . S
C888 C896 1.378 . S
C889 C888 1.367 . S
C889 C897 1.433 . S
C890 H886 0.929 . S
C890 C892 1.378 . S
C890 C894 1.350 . S
C891 C894 1.463 . S
C891 C896 1.350 . S
C891 N899 1.427 . S
C892 H883 0.930 . S
C892 C890 1.378 . S
C892 C893 1.367 . S
C893 C892 1.367 . S
C893 C895 1.433 . S
C894 C890 1.350 . S
C894 C891 1.463 . S
C894 N898 1.427 . S
C895 H885 0.929 . S
C895 C893 1.433 . S
C895 N898 1.384 . S
C896 H887 0.929 . S
C896 C888 1.378 . S
C896 C891 1.350 . S
C897 H884 0.929 . S
C897 C889 1.433 . S
C897 N899 1.384 . S
N898 C894 1.427 . S
N898 C895 1.384 . S
N899 C891 1.427 . S
N899 C897 1.384 . S
H900 C906 0.930 . S
H901 C910 0.930 . S
H902 C915 0.929 . S
H903 C913 0.929 . S
H904 C908 0.929 . S
H905 C914 0.929 . S
C906 H900 0.930 . S
C906 C907 1.367 . S
C906 C914 1.378 . S
C907 C906 1.367 . S
C907 C915 1.433 . S
C908 H904 0.929 . S
C908 C910 1.378 1_554 S
C908 C912 1.350 . S
C909 C912 1.463 . S
C909 C914 1.350 . S
C909 N917 1.427 . S
C910 H901 0.930 . S
C910 C908 1.378 1_556 S
C910 C911 1.367 . S
C911 C910 1.367 . S
C911 C913 1.433 . S
C912 C908 1.350 . S
C912 C909 1.463 . S
C912 N916 1.427 1_554 S
C913 H903 0.929 . S
C913 C911 1.433 . S
C913 N916 1.384 . S
C914 H905 0.929 . S
C914 C906 1.378 . S
C914 C909 1.350 . S
C915 H902 0.929 . S
C915 C907 1.433 . S
C915 N917 1.384 . S
N916 C912 1.427 1_556 S
N916 C913 1.384 . S
N917 C909 1.427 . S
N917 C915 1.384 . S
H918 C924 0.930 . S
H919 C928 0.930 . S
H920 C933 0.929 . S
H921 C931 0.929 . S
H922 C926 0.929 . S
H923 C932 0.929 . S
C924 H918 0.930 . S
C924 C925 1.367 . S
C924 C932 1.378 . S
C925 C924 1.367 . S
C925 C933 1.433 . S
C926 H922 0.929 . S
C926 C928 1.378 1_554 S
C926 C930 1.350 . S
C927 C930 1.463 . S
C927 C932 1.350 . S
C927 N935 1.427 . S
C928 H919 0.930 . S
C928 C926 1.378 1_556 S
C928 C929 1.367 . S
C929 C928 1.367 . S
C929 C931 1.433 . S
C930 C926 1.350 . S
C930 C927 1.463 . S
C930 N934 1.427 1_554 S
C931 H921 0.929 . S
C931 C929 1.433 . S
C931 N934 1.384 . S
C932 H923 0.929 . S
C932 C924 1.378 . S
C932 C927 1.350 . S
C933 H920 0.929 . S
C933 C925 1.433 . S
C933 N935 1.384 . S
N934 C930 1.427 1_556 S
N934 C931 1.384 . S
N935 C927 1.427 . S
N935 C933 1.384 . S
H936 C942 0.930 . S
H937 C946 0.930 . S
H938 C951 0.929 . S
H939 C949 0.929 . S
H940 C944 0.929 . S
H941 C950 0.929 . S
C942 H936 0.930 . S
C942 C943 1.367 . S
C942 C950 1.378 . S
C943 C942 1.367 . S
C943 C951 1.433 . S
C944 H940 0.929 . S
C944 C946 1.378 . S
C944 C948 1.350 . S
C945 C948 1.463 . S
C945 C950 1.350 . S
C945 N953 1.427 . S
C946 H937 0.930 . S
C946 C944 1.378 . S
C946 C947 1.367 . S
C947 C946 1.367 . S
C947 C949 1.433 . S
C948 C944 1.350 . S
C948 C945 1.463 . S
C948 N952 1.427 . S
C949 H939 0.929 . S
C949 C947 1.433 . S
C949 N952 1.384 . S
C950 H941 0.929 . S
C950 C942 1.378 . S
C950 C945 1.350 . S
C951 H938 0.929 . S
C951 C943 1.433 . S
C951 N953 1.384 . S
N952 C948 1.427 . S
N952 C949 1.384 . S
N953 C945 1.427 . S
N953 C951 1.384 . S
H954 C960 0.930 . S
H955 C964 0.930 . S
H956 C969 0.929 . S
H957 C967 0.929 . S
H958 C962 0.929 . S
H959 C968 0.929 . S
C960 H954 0.930 . S
C960 C961 1.367 . S
C960 C968 1.378 . S
C961 C960 1.367 . S
C961 C969 1.433 . S
C962 H958 0.929 . S
C962 C964 1.378 . S
C962 C966 1.350 . S
C963 C966 1.463 . S
C963 C968 1.350 . S
C963 N971 1.427 . S
C964 H955 0.930 . S
C964 C962 1.378 . S
C964 C965 1.367 . S
C965 C964 1.367 . S
C965 C967 1.433 . S
C966 C962 1.350 . S
C966 C963 1.463 . S
C966 N970 1.427 . S
C967 H957 0.929 . S
C967 C965 1.433 . S
C967 N970 1.384 . S
C968 H959 0.929 . S
C968 C960 1.378 . S
C968 C963 1.350 . S
C969 H956 0.929 . S
C969 C961 1.433 . S
C969 N971 1.384 . S
N970 C966 1.427 . S
N970 C967 1.384 . S
N971 C963 1.427 . S
N971 C969 1.384 . S
H972 C978 0.930 . S
H973 C982 0.930 . S
H974 C987 0.929 . S
H975 C985 0.929 . S
H976 C980 0.929 . S
H977 C986 0.929 . S
C978 H972 0.930 . S
C978 C979 1.367 . S
C978 C986 1.378 . S
C979 C978 1.367 . S
C979 C987 1.433 . S
C980 H976 0.929 . S
C980 C982 1.378 . S
C980 C984 1.350 . S
C981 C984 1.463 . S
C981 C986 1.350 . S
C981 N989 1.427 . S
C982 H973 0.930 . S
C982 C980 1.378 . S
C982 C983 1.367 . S
C983 C982 1.367 . S
C983 C985 1.433 . S
C984 C980 1.350 . S
C984 C981 1.463 . S
C984 N988 1.427 . S
C985 H975 0.929 . S
C985 C983 1.433 . S
C985 N988 1.384 . S
C986 H977 0.929 . S
C986 C978 1.378 . S
C986 C981 1.350 . S
C987 H974 0.929 . S
C987 C979 1.433 . S
C987 N989 1.384 . S
N988 C984 1.427 . S
N988 C985 1.384 . S
N989 C981 1.427 . S
N989 C987 1.384 . S
H990 C996 0.930 . S
H991 C1000 0.930 . S
H992 C1005 0.929 . S
H993 C1003 0.929 . S
H994 C998 0.929 . S
H995 C1004 0.929 . S
C996 H990 0.930 . S
C996 C997 1.367 . S
C996 C1004 1.378 . S
C997 C996 1.367 . S
C997 C1005 1.433 . S
C998 H994 0.929 . S
C998 C1000 1.378 . S
C998 C1002 1.350 . S
C999 C1002 1.463 . S
C999 C1004 1.350 . S
C999 N1007 1.427 . S
C1000 H991 0.930 . S
C1000 C998 1.378 . S
C1000 C1001 1.367 . S
C1001 C1000 1.367 . S
C1001 C1003 1.433 . S
C1002 C998 1.350 . S
C1002 C999 1.463 . S
C1002 N1006 1.427 . S
C1003 H993 0.929 . S
C1003 C1001 1.433 . S
C1003 N1006 1.384 . S
C1004 H995 0.929 . S
C1004 C996 1.378 . S
C1004 C999 1.350 . S
C1005 H992 0.929 . S
C1005 C997 1.433 . S
C1005 N1007 1.384 . S
N1006 C1002 1.427 . S
N1006 C1003 1.384 . S
N1007 C999 1.427 . S
N1007 C1005 1.384 . S
H1008 C1014 0.930 . S
H1009 C1018 0.930 . S
H1010 C1023 0.929 . S
H1011 C1021 0.929 . S
H1012 C1016 0.929 . S
H1013 C1022 0.929 . S
C1014 H1008 0.930 . S
C1014 C1015 1.367 . S
C1014 C1022 1.378 . S
C1015 C1014 1.367 . S
C1015 C1023 1.433 . S
C1016 H1012 0.929 . S
C1016 C1018 1.378 . S
C1016 C1020 1.350 . S
C1017 C1020 1.463 . S
C1017 C1022 1.350 . S
C1017 N1025 1.427 . S
C1018 H1009 0.930 . S
C1018 C1016 1.378 . S
C1018 C1019 1.367 . S
C1019 C1018 1.367 . S
C1019 C1021 1.433 . S
C1020 C1016 1.350 . S
C1020 C1017 1.463 . S
C1020 N1024 1.427 . S
C1021 H1011 0.929 . S
C1021 C1019 1.433 . S
C1021 N1024 1.384 . S
C1022 H1013 0.929 . S
C1022 C1014 1.378 . S
C1022 C1017 1.350 . S
C1023 H1010 0.929 . S
C1023 C1015 1.433 . S
C1023 N1025 1.384 . S
N1024 C1020 1.427 . S
N1024 C1021 1.384 . S
N1025 C1017 1.427 . S
N1025 C1023 1.384 . S
H1026 C1032 0.930 . S
H1027 C1036 0.930 . S
H1028 C1041 0.929 . S
H1029 C1039 0.929 . S
H1030 C1034 0.929 . S
H1031 C1040 0.929 . S
C1032 H1026 0.930 . S
C1032 C1033 1.367 . S
C1032 C1040 1.378 . S
C1033 C1032 1.367 . S
C1033 C1041 1.433 . S
C1034 H1030 0.929 . S
C1034 C1036 1.378 . S
C1034 C1038 1.350 . S
C1035 C1038 1.463 . S
C1035 C1040 1.350 . S
C1035 N1043 1.427 . S
C1036 H1027 0.930 . S
C1036 C1034 1.378 . S
C1036 C1037 1.367 . S
C1037 C1036 1.367 . S
C1037 C1039 1.433 . S
C1038 C1034 1.350 . S
C1038 C1035 1.463 . S
C1038 N1042 1.427 . S
C1039 H1029 0.929 . S
C1039 C1037 1.433 . S
C1039 N1042 1.384 . S
C1040 H1031 0.929 . S
C1040 C1032 1.378 . S
C1040 C1035 1.350 . S
C1041 H1028 0.929 . S
C1041 C1033 1.433 . S
C1041 N1043 1.384 . S
N1042 C1038 1.427 . S
N1042 C1039 1.384 . S
N1043 C1035 1.427 . S
N1043 C1041 1.384 . S
H1044 C1050 0.930 . S
H1045 C1054 0.930 . S
H1046 C1059 0.929 . S
H1047 C1057 0.929 . S
H1048 C1052 0.929 . S
H1049 C1058 0.929 . S
C1050 H1044 0.930 . S
C1050 C1051 1.367 . S
C1050 C1058 1.378 . S
C1051 C1050 1.367 . S
C1051 C1059 1.433 . S
C1052 H1048 0.929 . S
C1052 C1054 1.378 . S
C1052 C1056 1.350 1_545 S
C1053 C1056 1.463 . S
C1053 C1058 1.350 . S
C1053 N1061 1.427 . S
C1054 H1045 0.930 . S
C1054 C1052 1.378 . S
C1054 C1055 1.367 . S
C1055 C1054 1.367 . S
C1055 C1057 1.433 . S
C1056 C1052 1.350 1_565 S
C1056 C1053 1.463 . S
C1056 N1060 1.427 . S
C1057 H1047 0.929 . S
C1057 C1055 1.433 . S
C1057 N1060 1.384 1_545 S
C1058 H1049 0.929 . S
C1058 C1050 1.378 . S
C1058 C1053 1.350 . S
C1059 H1046 0.929 . S
C1059 C1051 1.433 . S
C1059 N1061 1.384 . S
N1060 C1056 1.427 . S
N1060 C1057 1.384 1_565 S
N1061 C1053 1.427 . S
N1061 C1059 1.384 . S
H1062 C1068 0.930 . S
H1063 C1072 0.930 . S
H1064 C1077 0.929 . S
H1065 C1075 0.929 . S
H1066 C1070 0.929 . S
H1067 C1076 0.929 . S
C1068 H1062 0.930 . S
C1068 C1069 1.367 . S
C1068 C1076 1.378 . S
C1069 C1068 1.367 . S
C1069 C1077 1.433 . S
C1070 H1066 0.929 . S
C1070 C1072 1.378 . S
C1070 C1074 1.350 . S
C1071 C1074 1.463 . S
C1071 C1076 1.350 . S
C1071 N1079 1.427 . S
C1072 H1063 0.930 . S
C1072 C1070 1.378 . S
C1072 C1073 1.367 . S
C1073 C1072 1.367 . S
C1073 C1075 1.433 . S
C1074 C1070 1.350 . S
C1074 C1071 1.463 . S
C1074 N1078 1.427 . S
C1075 H1065 0.929 . S
C1075 C1073 1.433 . S
C1075 N1078 1.384 . S
C1076 H1067 0.929 . S
C1076 C1068 1.378 . S
C1076 C1071 1.350 . S
C1077 H1064 0.929 . S
C1077 C1069 1.433 . S
C1077 N1079 1.384 . S
N1078 C1074 1.427 . S
N1078 C1075 1.384 . S
N1079 C1071 1.427 . S
N1079 C1077 1.384 . S
H1080 C1086 0.930 . S
H1081 C1090 0.930 . S
H1082 C1095 0.929 . S
H1083 C1093 0.929 . S
H1084 C1088 0.929 . S
H1085 C1094 0.929 . S
C1086 H1080 0.930 . S
C1086 C1087 1.367 . S
C1086 C1094 1.378 1_554 S
C1087 C1086 1.367 . S
C1087 C1095 1.433 . S
C1088 H1084 0.929 . S
C1088 C1090 1.378 . S
C1088 C1092 1.350 . S
C1089 C1092 1.463 . S
C1089 C1094 1.350 . S
C1089 N1097 1.427 1_556 S
C1090 H1081 0.930 . S
C1090 C1088 1.378 . S
C1090 C1091 1.367 . S
C1091 C1090 1.367 . S
C1091 C1093 1.433 . S
C1092 C1088 1.350 . S
C1092 C1089 1.463 . S
C1092 N1096 1.427 . S
C1093 H1083 0.929 . S
C1093 C1091 1.433 . S
C1093 N1096 1.384 . S
C1094 H1085 0.929 . S
C1094 C1086 1.378 1_556 S
C1094 C1089 1.350 . S
C1095 H1082 0.929 . S
C1095 C1087 1.433 . S
C1095 N1097 1.384 . S
N1096 C1092 1.427 . S
N1096 C1093 1.384 . S
N1097 C1089 1.427 1_554 S
N1097 C1095 1.384 . S
H1098 C1104 0.930 . S
H1099 C1108 0.930 . S
H1100 C1113 0.929 . S
H1101 C1111 0.929 . S
H1102 C1106 0.929 . S
H1103 C1112 0.929 . S
C1104 H1098 0.930 . S
C1104 C1105 1.367 . S
C1104 C1112 1.378 1_554 S
C1105 C1104 1.367 . S
C1105 C1113 1.433 . S
C1106 H1102 0.929 . S
C1106 C1108 1.378 . S
C1106 C1110 1.350 . S
C1107 C1110 1.463 . S
C1107 C1112 1.350 . S
C1107 N1115 1.427 . S
C1108 H1099 0.930 . S
C1108 C1106 1.378 . S
C1108 C1109 1.367 . S
C1109 C1108 1.367 . S
C1109 C1111 1.433 . S
C1110 C1106 1.350 . S
C1110 C1107 1.463 . S
C1110 N1114 1.427 . S
C1111 H1101 0.929 . S
C1111 C1109 1.433 . S
C1111 N1114 1.384 . S
C1112 H1103 0.929 . S
C1112 C1104 1.378 1_556 S
C1112 C1107 1.350 . S
C1113 H1100 0.929 . S
C1113 C1105 1.433 . S
C1113 N1115 1.384 1_554 S
N1114 C1110 1.427 . S
N1114 C1111 1.384 . S
N1115 C1107 1.427 . S
N1115 C1113 1.384 1_556 S
H1116 C1122 0.930 . S
H1117 C1126 0.930 . S
H1118 C1131 0.929 . S
H1119 C1129 0.929 . S
H1120 C1124 0.929 . S
H1121 C1130 0.929 . S
C1122 H1116 0.930 . S
C1122 C1123 1.367 . S
C1122 C1130 1.378 . S
C1123 C1122 1.367 . S
C1123 C1131 1.433 . S
C1124 H1120 0.929 . S
C1124 C1126 1.378 . S
C1124 C1128 1.350 . S
C1125 C1128 1.463 . S
C1125 C1130 1.350 . S
C1125 N1133 1.427 . S
C1126 H1117 0.930 . S
C1126 C1124 1.378 . S
C1126 C1127 1.367 . S
C1127 C1126 1.367 . S
C1127 C1129 1.433 . S
C1128 C1124 1.350 . S
C1128 C1125 1.463 . S
C1128 N1132 1.427 . S
C1129 H1119 0.929 . S
C1129 C1127 1.433 . S
C1129 N1132 1.384 . S
C1130 H1121 0.929 . S
C1130 C1122 1.378 . S
C1130 C1125 1.350 . S
C1131 H1118 0.929 . S
C1131 C1123 1.433 . S
C1131 N1133 1.384 . S
N1132 C1128 1.427 . S
N1132 C1129 1.384 . S
N1133 C1125 1.427 . S
N1133 C1131 1.384 . S
H1134 C1140 0.930 . S
H1135 C1144 0.930 . S
H1136 C1149 0.929 . S
H1137 C1147 0.929 . S
H1138 C1142 0.929 . S
H1139 C1148 0.929 . S
C1140 H1134 0.930 . S
C1140 C1141 1.367 . S
C1140 C1148 1.378 . S
C1141 C1140 1.367 . S
C1141 C1149 1.433 . S
C1142 H1138 0.929 . S
C1142 C1144 1.378 . S
C1142 C1146 1.350 . S
C1143 C1146 1.463 . S
C1143 C1148 1.350 . S
C1143 N1151 1.427 . S
C1144 H1135 0.930 . S
C1144 C1142 1.378 . S
C1144 C1145 1.367 . S
C1145 C1144 1.367 . S
C1145 C1147 1.433 . S
C1146 C1142 1.350 . S
C1146 C1143 1.463 . S
C1146 N1150 1.427 . S
C1147 H1137 0.929 . S
C1147 C1145 1.433 . S
C1147 N1150 1.384 . S
C1148 H1139 0.929 . S
C1148 C1140 1.378 . S
C1148 C1143 1.350 . S
C1149 H1136 0.929 . S
C1149 C1141 1.433 . S
C1149 N1151 1.384 . S
N1150 C1146 1.427 . S
N1150 C1147 1.384 . S
N1151 C1143 1.427 . S
N1151 C1149 1.384 . S
H1152 C1158 0.930 . S
H1153 C1162 0.930 . S
H1154 C1167 0.929 . S
H1155 C1165 0.929 . S
H1156 C1160 0.929 . S
H1157 C1166 0.929 . S
C1158 H1152 0.930 . S
C1158 C1159 1.367 . S
C1158 C1166 1.378 1_455 S
C1159 C1158 1.367 . S
C1159 C1167 1.433 . S
C1160 H1156 0.929 . S
C1160 C1162 1.378 . S
C1160 C1164 1.350 . S
C1161 C1164 1.463 . S
C1161 C1166 1.350 . S
C1161 N1169 1.427 . S
C1162 H1153 0.930 . S
C1162 C1160 1.378 . S
C1162 C1163 1.367 . S
C1163 C1162 1.367 . S
C1163 C1165 1.433 . S
C1164 C1160 1.350 . S
C1164 C1161 1.463 . S
C1164 N1168 1.427 . S
C1165 H1155 0.929 . S
C1165 C1163 1.433 . S
C1165 N1168 1.384 . S
C1166 H1157 0.929 . S
C1166 C1158 1.378 1_655 S
C1166 C1161 1.350 . S
C1167 H1154 0.929 . S
C1167 C1159 1.433 . S
C1167 N1169 1.384 1_455 S
N1168 C1164 1.427 . S
N1168 C1165 1.384 . S
N1169 C1161 1.427 . S
N1169 C1167 1.384 1_655 S
H1170 C1176 0.930 . S
H1171 C1180 0.930 . S
H1172 C1185 0.929 . S
H1173 C1183 0.929 . S
H1174 C1178 0.929 . S
H1175 C1184 0.929 1_455 S
C1176 H1170 0.930 . S
C1176 C1177 1.367 . S
C1176 C1184 1.378 . S
C1177 C1176 1.367 . S
C1177 C1185 1.433 . S
C1178 H1174 0.929 . S
C1178 C1180 1.378 . S
C1178 C1182 1.350 . S
C1179 C1182 1.463 . S
C1179 C1184 1.350 1_455 S
C1179 N1187 1.427 . S
C1180 H1171 0.930 . S
C1180 C1178 1.378 . S
C1180 C1181 1.367 . S
C1181 C1180 1.367 . S
C1181 C1183 1.433 . S
C1182 C1178 1.350 . S
C1182 C1179 1.463 . S
C1182 N1186 1.427 . S
C1183 H1173 0.929 . S
C1183 C1181 1.433 . S
C1183 N1186 1.384 . S
C1184 H1175 0.929 1_655 S
C1184 C1176 1.378 . S
C1184 C1179 1.350 1_655 S
C1185 H1172 0.929 . S
C1185 C1177 1.433 . S
C1185 N1187 1.384 1_655 S
N1186 C1182 1.427 . S
N1186 C1183 1.384 . S
N1187 C1179 1.427 . S
N1187 C1185 1.384 1_455 S
H1188 C1194 0.930 . S
H1189 C1198 0.930 . S
H1190 C1203 0.929 . S
H1191 C1201 0.929 . S
H1192 C1196 0.929 . S
H1193 C1202 0.929 . S
C1194 H1188 0.930 . S
C1194 C1195 1.367 . S
C1194 C1202 1.378 1_455 S
C1195 C1194 1.367 . S
C1195 C1203 1.433 . S
C1196 H1192 0.929 . S
C1196 C1198 1.378 . S
C1196 C1200 1.350 . S
C1197 C1200 1.463 . S
C1197 C1202 1.350 . S
C1197 N1205 1.427 1_655 S
C1198 H1189 0.930 . S
C1198 C1196 1.378 . S
C1198 C1199 1.367 . S
C1199 C1198 1.367 . S
C1199 C1201 1.433 . S
C1200 C1196 1.350 . S
C1200 C1197 1.463 . S
C1200 N1204 1.427 . S
C1201 H1191 0.929 . S
C1201 C1199 1.433 . S
C1201 N1204 1.384 . S
C1202 H1193 0.929 . S
C1202 C1194 1.378 1_655 S
C1202 C1197 1.350 . S
C1203 H1190 0.929 . S
C1203 C1195 1.433 . S
C1203 N1205 1.384 . S
N1204 C1200 1.427 . S
N1204 C1201 1.384 . S
N1205 C1197 1.427 1_455 S
N1205 C1203 1.384 . S
H1206 C1212 0.930 . S
H1207 C1216 0.930 . S
H1208 C1221 0.929 . S
H1209 C1219 0.929 . S
H1210 C1214 0.929 . S
H1211 C1220 0.929 . S
C1212 H1206 0.930 . S
C1212 C1213 1.367 . S
C1212 C1220 1.378 . S
C1213 C1212 1.367 . S
C1213 C1221 1.433 . S
C1214 H1210 0.929 . S
C1214 C1216 1.378 1_455 S
C1214 C1218 1.350 . S
C1215 C1218 1.463 . S
C1215 C1220 1.350 . S
C1215 N1223 1.427 . S
C1216 H1207 0.930 . S
C1216 C1214 1.378 1_655 S
C1216 C1217 1.367 . S
C1217 C1216 1.367 . S
C1217 C1219 1.433 . S
C1218 C1214 1.350 . S
C1218 C1215 1.463 . S
C1218 N1222 1.427 1_455 S
C1219 H1209 0.929 . S
C1219 C1217 1.433 . S
C1219 N1222 1.384 . S
C1220 H1211 0.929 . S
C1220 C1212 1.378 . S
C1220 C1215 1.350 . S
C1221 H1208 0.929 . S
C1221 C1213 1.433 . S
C1221 N1223 1.384 . S
N1222 C1218 1.427 1_655 S
N1222 C1219 1.384 . S
N1223 C1215 1.427 . S
N1223 C1221 1.384 . S
H1224 C1230 0.930 . S
H1225 C1234 0.930 . S
H1226 C1239 0.929 . S
H1227 C1237 0.929 . S
H1228 C1232 0.929 . S
H1229 C1238 0.929 . S
C1230 H1224 0.930 . S
C1230 C1231 1.367 . S
C1230 C1238 1.378 1_545 S
C1231 C1230 1.367 . S
C1231 C1239 1.433 . S
C1232 H1228 0.929 . S
C1232 C1234 1.378 . S
C1232 C1236 1.350 . S
C1233 C1236 1.463 . S
C1233 C1238 1.350 . S
C1233 N1241 1.427 1_565 S
C1234 H1225 0.930 . S
C1234 C1232 1.378 . S
C1234 C1235 1.367 . S
C1235 C1234 1.367 . S
C1235 C1237 1.433 . S
C1236 C1232 1.350 . S
C1236 C1233 1.463 . S
C1236 N1240 1.427 . S
C1237 H1227 0.929 . S
C1237 C1235 1.433 . S
C1237 N1240 1.384 . S
C1238 H1229 0.929 . S
C1238 C1230 1.378 1_565 S
C1238 C1233 1.350 . S
C1239 H1226 0.929 . S
C1239 C1231 1.433 . S
C1239 N1241 1.384 . S
N1240 C1236 1.427 . S
N1240 C1237 1.384 . S
N1241 C1233 1.427 1_545 S
N1241 C1239 1.384 . S
H1242 C1248 0.930 . S
H1243 C1252 0.930 . S
H1244 C1257 0.929 . S
H1245 C1255 0.929 . S
H1246 C1250 0.929 . S
H1247 C1256 0.929 . S
C1248 H1242 0.930 . S
C1248 C1249 1.367 . S
C1248 C1256 1.378 . S
C1249 C1248 1.367 . S
C1249 C1257 1.433 . S
C1250 H1246 0.929 . S
C1250 C1252 1.378 . S
C1250 C1254 1.350 1_565 S
C1251 C1254 1.463 . S
C1251 C1256 1.350 . S
C1251 N1259 1.427 . S
C1252 H1243 0.930 . S
C1252 C1250 1.378 . S
C1252 C1253 1.367 . S
C1253 C1252 1.367 . S
C1253 C1255 1.433 . S
C1254 C1250 1.350 1_545 S
C1254 C1251 1.463 . S
C1254 N1258 1.427 . S
C1255 H1245 0.929 . S
C1255 C1253 1.433 . S
C1255 N1258 1.384 1_565 S
C1256 H1247 0.929 . S
C1256 C1248 1.378 . S
C1256 C1251 1.350 . S
C1257 H1244 0.929 . S
C1257 C1249 1.433 . S
C1257 N1259 1.384 . S
N1258 C1254 1.427 . S
N1258 C1255 1.384 1_545 S
N1259 C1251 1.427 . S
N1259 C1257 1.384 . S
H1260 C1266 0.930 . S
H1261 C1270 0.930 . S
H1262 C1275 0.929 . S
H1263 C1273 0.929 . S
H1264 C1268 0.929 . S
H1265 C1274 0.929 . S
C1266 H1260 0.930 . S
C1266 C1267 1.367 . S
C1266 C1274 1.378 . S
C1267 C1266 1.367 . S
C1267 C1275 1.433 . S
C1268 H1264 0.929 . S
C1268 C1270 1.378 . S
C1268 C1272 1.350 . S
C1269 C1272 1.463 . S
C1269 C1274 1.350 . S
C1269 N1277 1.427 . S
C1270 H1261 0.930 . S
C1270 C1268 1.378 . S
C1270 C1271 1.367 . S
C1271 C1270 1.367 . S
C1271 C1273 1.433 . S
C1272 C1268 1.350 . S
C1272 C1269 1.463 . S
C1272 N1276 1.427 . S
C1273 H1263 0.929 . S
C1273 C1271 1.433 . S
C1273 N1276 1.384 . S
C1274 H1265 0.929 . S
C1274 C1266 1.378 . S
C1274 C1269 1.350 . S
C1275 H1262 0.929 . S
C1275 C1267 1.433 . S
C1275 N1277 1.384 . S
N1276 C1272 1.427 . S
N1276 C1273 1.384 . S
N1277 C1269 1.427 . S
N1277 C1275 1.384 . S
H1278 C1284 0.930 . S
H1279 C1288 0.930 . S
H1280 C1293 0.929 . S
H1281 C1291 0.929 . S
H1282 C1286 0.929 . S
H1283 C1292 0.929 . S
C1284 H1278 0.930 . S
C1284 C1285 1.367 . S
C1284 C1292 1.378 . S
C1285 C1284 1.367 . S
C1285 C1293 1.433 . S
C1286 H1282 0.929 . S
C1286 C1288 1.378 . S
C1286 C1290 1.350 1_565 S
C1287 C1290 1.463 . S
C1287 C1292 1.350 . S
C1287 N1295 1.427 . S
C1288 H1279 0.930 . S
C1288 C1286 1.378 . S
C1288 C1289 1.367 . S
C1289 C1288 1.367 . S
C1289 C1291 1.433 . S
C1290 C1286 1.350 1_545 S
C1290 C1287 1.463 . S
C1290 N1294 1.427 . S
C1291 H1281 0.929 . S
C1291 C1289 1.433 . S
C1291 N1294 1.384 1_565 S
C1292 H1283 0.929 . S
C1292 C1284 1.378 . S
C1292 C1287 1.350 . S
C1293 H1280 0.929 . S
C1293 C1285 1.433 . S
C1293 N1295 1.384 . S
N1294 C1290 1.427 . S
N1294 C1291 1.384 1_545 S
N1295 C1287 1.427 . S
N1295 C1293 1.384 . S
H1296 C1302 0.930 . S
H1297 C1306 0.930 . S
H1298 C1311 0.929 . S
H1299 C1309 0.929 . S
H1300 C1304 0.929 . S
H1301 C1310 0.929 . S
C1302 H1296 0.930 . S
C1302 C1303 1.367 1_455 S
C1302 C1310 1.378 . S
C1303 C1302 1.367 1_655 S
C1303 C1311 1.433 . S
C1304 H1300 0.929 . S
C1304 C1306 1.378 . S
C1304 C1308 1.350 1_655 S
C1305 C1308 1.463 . S
C1305 C1310 1.353 . S
C1305 N1313 1.423 1_455 S
C1306 H1297 0.930 . S
C1306 C1304 1.378 . S
C1306 C1307 1.367 1_655 S
C1307 C1306 1.367 1_455 S
C1307 C1309 1.433 . S
C1308 C1304 1.350 1_455 S
C1308 C1305 1.463 . S
C1308 N1312 1.427 . S
C1309 H1299 0.929 . S
C1309 C1307 1.433 . S
C1309 N1312 1.384 . S
C1310 H1301 0.929 . S
C1310 C1302 1.378 . S
C1310 C1305 1.353 . S
C1311 H1298 0.929 . S
C1311 C1303 1.433 . S
C1311 N1313 1.384 . S
N1312 C1308 1.427 . S
N1312 C1309 1.384 . S
N1313 C1305 1.423 1_655 S
N1313 C1311 1.384 . S
H1314 C1320 0.930 . S
H1315 C1324 0.930 . S
H1316 C1329 0.929 . S
H1317 C1327 0.929 . S
H1318 C1322 0.929 . S
H1319 C1328 0.929 . S
C1320 H1314 0.930 . S
C1320 C1321 1.367 . S
C1320 C1328 1.378 . S
C1321 C1320 1.367 . S
C1321 C1329 1.433 1_455 S
C1322 H1318 0.929 . S
C1322 C1324 1.378 . S
C1322 C1326 1.363 . S
C1323 C1326 1.459 1_455 S
C1323 C1328 1.350 . S
C1323 N1331 1.427 1_455 S
C1324 H1315 0.930 . S
C1324 C1322 1.378 . S
C1324 C1325 1.367 . S
C1325 C1324 1.367 . S
C1325 C1327 1.433 1_655 S
C1326 C1322 1.363 . S
C1326 C1323 1.459 1_655 S
C1326 N1330 1.418 1_655 S
C1327 H1317 0.929 . S
C1327 C1325 1.433 1_455 S
C1327 N1330 1.384 . S
C1328 H1319 0.929 . S
C1328 C1320 1.378 . S
C1328 C1323 1.350 . S
C1329 H1316 0.929 . S
C1329 C1321 1.433 1_655 S
C1329 N1331 1.384 . S
N1330 C1326 1.418 1_455 S
N1330 C1327 1.384 . S
N1331 C1323 1.427 1_655 S
N1331 C1329 1.384 . S
H1332 C1338 0.930 . S
H1333 C1342 0.930 . S
H1334 C1347 0.929 . S
H1335 C1345 0.929 . S
H1336 C1340 0.929 . S
H1337 C1346 0.929 . S
C1338 H1332 0.930 . S
C1338 C1339 1.367 . S
C1338 C1346 1.378 . S
C1339 C1338 1.367 . S
C1339 C1347 1.433 . S
C1340 H1336 0.929 . S
C1340 C1342 1.378 . S
C1340 C1344 1.350 . S
C1341 C1344 1.462 1_565 S
C1341 C1346 1.350 . S
C1341 N1349 1.427 1_565 S
C1342 H1333 0.930 . S
C1342 C1340 1.378 . S
C1342 C1343 1.367 . S
C1343 C1342 1.367 . S
C1343 C1345 1.433 . S
C1344 C1340 1.350 . S
C1344 C1341 1.462 1_545 S
C1344 N1348 1.427 . S
C1345 H1335 0.929 . S
C1345 C1343 1.433 . S
C1345 N1348 1.384 . S
C1346 H1337 0.929 . S
C1346 C1338 1.378 . S
C1346 C1341 1.350 . S
C1347 H1334 0.929 . S
C1347 C1339 1.433 . S
C1347 N1349 1.382 1_565 S
N1348 C1344 1.427 . S
N1348 C1345 1.384 . S
N1349 C1341 1.427 1_545 S
N1349 C1347 1.382 1_545 S
H1350 C1356 0.930 . S
H1351 C1360 0.930 . S
H1352 C1365 0.929 . S
H1353 C1363 0.929 . S
H1354 C1358 0.929 . S
H1355 C1364 0.929 . S
C1356 H1350 0.930 . S
C1356 C1357 1.367 . S
C1356 C1364 1.378 . S
C1357 C1356 1.367 . S
C1357 C1365 1.433 . S
C1358 H1354 0.929 . S
C1358 C1360 1.378 . S
C1358 C1362 1.350 . S
C1359 C1362 1.463 . S
C1359 C1364 1.350 . S
C1359 N1367 1.427 . S
C1360 H1351 0.930 . S
C1360 C1358 1.378 . S
C1360 C1361 1.367 . S
C1361 C1360 1.367 . S
C1361 C1363 1.433 . S
C1362 C1358 1.350 . S
C1362 C1359 1.463 . S
C1362 N1366 1.427 . S
C1363 H1353 0.929 . S
C1363 C1361 1.433 . S
C1363 N1366 1.384 . S
C1364 H1355 0.929 . S
C1364 C1356 1.378 . S
C1364 C1359 1.350 . S
C1365 H1352 0.929 . S
C1365 C1357 1.433 . S
C1365 N1367 1.384 . S
N1366 C1362 1.427 . S
N1366 C1363 1.384 . S
N1367 C1359 1.427 . S
N1367 C1365 1.384 . S
H1368 C1374 0.930 . S
H1369 C1378 0.930 . S
H1370 C1383 0.929 . S
H1371 C1381 0.929 . S
H1372 C1376 0.929 . S
H1373 C1382 0.929 . S
C1374 H1368 0.930 . S
C1374 C1375 1.367 1_556 S
C1374 C1382 1.378 . S
C1375 C1374 1.367 1_554 S
C1375 C1383 1.433 . S
C1376 H1372 0.929 . S
C1376 C1378 1.378 . S
C1376 C1380 1.349 . S
C1377 C1380 1.462 . S
C1377 C1382 1.350 1_554 S
C1377 N1385 1.427 . S
C1378 H1369 0.930 . S
C1378 C1376 1.378 . S
C1378 C1379 1.367 1_554 S
C1379 C1378 1.367 1_556 S
C1379 C1381 1.433 . S
C1380 C1376 1.349 . S
C1380 C1377 1.462 . S
C1380 N1384 1.428 1_554 S
C1381 H1371 0.929 . S
C1381 C1379 1.433 . S
C1381 N1384 1.384 . S
C1382 H1373 0.929 . S
C1382 C1374 1.378 . S
C1382 C1377 1.350 1_556 S
C1383 H1370 0.929 . S
C1383 C1375 1.433 . S
C1383 N1385 1.384 . S
N1384 C1380 1.428 1_556 S
N1384 C1381 1.384 . S
N1385 C1377 1.427 . S
N1385 C1383 1.384 . S
H1386 C1392 0.930 . S
H1387 C1396 0.930 . S
H1388 C1401 0.929 . S
H1389 C1399 0.929 . S
H1390 C1394 0.929 . S
H1391 C1400 0.929 . S
C1392 H1386 0.930 . S
C1392 C1393 1.367 . S
C1392 C1400 1.378 . S
C1393 C1392 1.367 . S
C1393 C1401 1.433 . S
C1394 H1390 0.929 . S
C1394 C1396 1.378 . S
C1394 C1398 1.350 . S
C1395 C1398 1.463 . S
C1395 C1400 1.350 . S
C1395 N1403 1.427 . S
C1396 H1387 0.930 . S
C1396 C1394 1.378 . S
C1396 C1397 1.367 . S
C1397 C1396 1.367 . S
C1397 C1399 1.433 . S
C1398 C1394 1.350 . S
C1398 C1395 1.463 . S
C1398 N1402 1.427 . S
C1399 H1389 0.929 . S
C1399 C1397 1.433 . S
C1399 N1402 1.384 . S
C1400 H1391 0.929 . S
C1400 C1392 1.378 . S
C1400 C1395 1.350 . S
C1401 H1388 0.929 . S
C1401 C1393 1.433 . S
C1401 N1403 1.384 . S
N1402 C1398 1.427 . S
N1402 C1399 1.384 . S
N1403 C1395 1.427 . S
N1403 C1401 1.384 . S
H1404 C1410 0.930 . S
H1405 C1414 0.930 . S
H1406 C1419 0.929 . S
H1407 C1417 0.929 . S
H1408 C1412 0.929 . S
H1409 C1418 0.929 . S
C1410 H1404 0.930 . S
C1410 C1411 1.367 . S
C1410 C1418 1.378 . S
C1411 C1410 1.367 . S
C1411 C1419 1.433 . S
C1412 H1408 0.929 . S
C1412 C1414 1.378 . S
C1412 C1416 1.350 . S
C1413 C1416 1.463 . S
C1413 C1418 1.350 . S
C1413 N1421 1.427 . S
C1414 H1405 0.930 . S
C1414 C1412 1.378 . S
C1414 C1415 1.367 . S
C1415 C1414 1.367 . S
C1415 C1417 1.433 . S
C1416 C1412 1.350 . S
C1416 C1413 1.463 . S
C1416 N1420 1.427 . S
C1417 H1407 0.929 . S
C1417 C1415 1.433 . S
C1417 N1420 1.384 . S
C1418 H1409 0.929 . S
C1418 C1410 1.378 . S
C1418 C1413 1.350 . S
C1419 H1406 0.929 . S
C1419 C1411 1.433 . S
C1419 N1421 1.384 . S
N1420 C1416 1.427 . S
N1420 C1417 1.384 . S
N1421 C1413 1.427 . S
N1421 C1419 1.384 . S
H1422 C1428 0.930 . S
H1423 C1432 0.930 . S
H1424 C1437 0.929 . S
H1425 C1435 0.929 . S
H1426 C1430 0.929 . S
H1427 C1436 0.929 . S
C1428 H1422 0.930 . S
C1428 C1429 1.367 . S
C1428 C1436 1.378 . S
C1429 C1428 1.367 . S
C1429 C1437 1.433 . S
C1430 H1426 0.929 . S
C1430 C1432 1.378 . S
C1430 C1434 1.350 . S
C1431 C1434 1.463 . S
C1431 C1436 1.350 . S
C1431 N1439 1.427 . S
C1432 H1423 0.930 . S
C1432 C1430 1.378 . S
C1432 C1433 1.367 . S
C1433 C1432 1.367 . S
C1433 C1435 1.433 . S
C1434 C1430 1.350 . S
C1434 C1431 1.463 . S
C1434 N1438 1.427 . S
C1435 H1425 0.929 . S
C1435 C1433 1.433 . S
C1435 N1438 1.384 . S
C1436 H1427 0.929 . S
C1436 C1428 1.378 . S
C1436 C1431 1.350 . S
C1437 H1424 0.929 . S
C1437 C1429 1.433 . S
C1437 N1439 1.384 . S
N1438 C1434 1.427 . S
N1438 C1435 1.384 . S
N1439 C1431 1.427 . S
N1439 C1437 1.384 . S
H1440 C1446 0.930 . S
H1441 C1450 0.930 . S
H1442 C1455 0.929 . S
H1443 C1453 0.929 . S
H1444 C1448 0.929 . S
H1445 C1454 0.929 . S
C1446 H1440 0.930 . S
C1446 C1447 1.367 . S
C1446 C1454 1.378 . S
C1447 C1446 1.367 . S
C1447 C1455 1.433 . S
C1448 H1444 0.929 . S
C1448 C1450 1.378 . S
C1448 C1452 1.350 . S
C1449 C1452 1.463 . S
C1449 C1454 1.350 . S
C1449 N1457 1.427 . S
C1450 H1441 0.930 . S
C1450 C1448 1.378 . S
C1450 C1451 1.367 . S
C1451 C1450 1.367 . S
C1451 C1453 1.433 . S
C1452 C1448 1.350 . S
C1452 C1449 1.463 . S
C1452 N1456 1.427 . S
C1453 H1443 0.929 . S
C1453 C1451 1.433 . S
C1453 N1456 1.384 . S
C1454 H1445 0.929 . S
C1454 C1446 1.378 . S
C1454 C1449 1.350 . S
C1455 H1442 0.929 . S
C1455 C1447 1.433 . S
C1455 N1457 1.384 . S
N1456 C1452 1.427 . S
N1456 C1453 1.384 . S
N1457 C1449 1.427 . S
N1457 C1455 1.384 . S
H1458 C1464 0.930 . S
H1459 C1468 0.930 . S
H1460 C1473 0.929 . S
H1461 C1471 0.929 . S
H1462 C1466 0.929 . S
H1463 C1472 0.929 . S
C1464 H1458 0.930 . S
C1464 C1465 1.367 . S
C1464 C1472 1.378 . S
C1465 C1464 1.367 . S
C1465 C1473 1.433 . S
C1466 H1462 0.929 . S
C1466 C1468 1.378 . S
C1466 C1470 1.350 . S
C1467 C1470 1.463 . S
C1467 C1472 1.350 . S
C1467 N1475 1.427 . S
C1468 H1459 0.930 . S
C1468 C1466 1.378 . S
C1468 C1469 1.367 . S
C1469 C1468 1.367 . S
C1469 C1471 1.433 . S
C1470 C1466 1.350 . S
C1470 C1467 1.463 . S
C1470 N1474 1.427 . S
C1471 H1461 0.929 . S
C1471 C1469 1.433 . S
C1471 N1474 1.384 . S
C1472 H1463 0.929 . S
C1472 C1464 1.378 . S
C1472 C1467 1.350 . S
C1473 H1460 0.929 . S
C1473 C1465 1.433 . S
C1473 N1475 1.384 . S
N1474 C1470 1.427 . S
N1474 C1471 1.384 . S
N1475 C1467 1.427 . S
N1475 C1473 1.384 . S
H1476 C1482 0.930 . S
H1477 C1486 0.930 . S
H1478 C1491 0.929 . S
H1479 C1489 0.929 . S
H1480 C1484 0.929 . S
H1481 C1490 0.929 . S
C1482 H1476 0.930 . S
C1482 C1483 1.367 1_565 S
C1482 C1490 1.378 . S
C1483 C1482 1.367 1_545 S
C1483 C1491 1.433 . S
C1484 H1480 0.929 . S
C1484 C1486 1.378 . S
C1484 C1488 1.349 . S
C1485 C1488 1.462 . S
C1485 C1490 1.350 1_545 S
C1485 N1493 1.427 . S
C1486 H1477 0.930 . S
C1486 C1484 1.378 . S
C1486 C1487 1.367 1_545 S
C1487 C1486 1.367 1_565 S
C1487 C1489 1.433 . S
C1488 C1484 1.349 . S
C1488 C1485 1.462 . S
C1488 N1492 1.429 1_545 S
C1489 H1479 0.929 . S
C1489 C1487 1.433 . S
C1489 N1492 1.384 . S
C1490 H1481 0.929 . S
C1490 C1482 1.378 . S
C1490 C1485 1.350 1_565 S
C1491 H1478 0.929 . S
C1491 C1483 1.433 . S
C1491 N1493 1.384 . S
N1492 C1488 1.429 1_565 S
N1492 C1489 1.384 . S
N1493 C1485 1.427 . S
N1493 C1491 1.384 . S
H1494 C1500 0.930 . S
H1495 C1504 0.930 . S
H1496 C1509 0.929 . S
H1497 C1507 0.929 . S
H1498 C1502 0.929 . S
H1499 C1508 0.929 . S
C1500 H1494 0.930 . S
C1500 C1501 1.367 . S
C1500 C1508 1.378 . S
C1501 C1500 1.367 . S
C1501 C1509 1.433 1_556 S
C1502 H1498 0.929 . S
C1502 C1504 1.378 . S
C1502 C1506 1.350 . S
C1503 C1506 1.459 1_556 S
C1503 C1508 1.368 . S
C1503 N1511 1.413 1_556 S
C1504 H1495 0.930 . S
C1504 C1502 1.378 . S
C1504 C1505 1.367 . S
C1505 C1504 1.367 . S
C1505 C1507 1.433 1_554 S
C1506 C1502 1.350 . S
C1506 C1503 1.459 1_554 S
C1506 N1510 1.427 1_554 S
C1507 H1497 0.929 . S
C1507 C1505 1.433 1_556 S
C1507 N1510 1.384 . S
C1508 H1499 0.929 . S
C1508 C1500 1.378 . S
C1508 C1503 1.368 . S
C1509 H1496 0.929 . S
C1509 C1501 1.433 1_554 S
C1509 N1511 1.384 . S
N1510 C1506 1.427 1_556 S
N1510 C1507 1.384 . S
N1511 C1503 1.413 1_554 S
N1511 C1509 1.384 . S
H1512 C1518 0.930 . S
H1513 C1522 0.930 . S
H1514 C1527 0.929 . S
H1515 C1525 0.929 . S
H1516 C1520 0.929 . S
H1517 C1526 0.929 . S
C1518 H1512 0.930 . S
C1518 C1519 1.367 . S
C1518 C1526 1.378 . S
C1519 C1518 1.367 . S
C1519 C1527 1.433 1_455 S
C1520 H1516 0.929 . S
C1520 C1522 1.378 . S
C1520 C1524 1.350 1_655 S
C1521 C1524 1.463 1_565 S
C1521 C1526 1.350 . S
C1521 N1529 1.427 1_455 S
C1522 H1513 0.930 . S
C1522 C1520 1.378 . S
C1522 C1523 1.367 1_655 S
C1523 C1522 1.367 1_455 S
C1523 C1525 1.433 . S
C1524 C1520 1.350 1_455 S
C1524 C1521 1.463 1_545 S
C1524 N1528 1.427 . S
C1525 H1515 0.929 . S
C1525 C1523 1.433 . S
C1525 N1528 1.384 . S
C1526 H1517 0.929 . S
C1526 C1518 1.378 . S
C1526 C1521 1.350 . S
C1527 H1514 0.929 . S
C1527 C1519 1.433 1_655 S
C1527 N1529 1.384 . S
N1528 C1524 1.427 . S
N1528 C1525 1.384 . S
N1529 C1521 1.427 1_655 S
N1529 C1527 1.384 . S
H1530 C1536 0.930 . S
H1531 C1540 0.930 . S
H1532 C1545 0.929 . S
H1533 C1543 0.929 . S
H1534 C1538 0.929 . S
H1535 C1544 0.929 . S
C1536 H1530 0.930 . S
C1536 C1537 1.367 . S
C1536 C1544 1.378 . S
C1537 C1536 1.367 . S
C1537 C1545 1.433 1_655 S
C1538 H1534 0.929 . S
C1538 C1540 1.378 . S
C1538 C1542 1.350 1_455 S
C1539 C1542 1.463 . S
C1539 C1544 1.350 . S
C1539 N1547 1.427 1_655 S
C1540 H1531 0.930 . S
C1540 C1538 1.378 . S
C1540 C1541 1.367 1_455 S
C1541 C1540 1.367 1_655 S
C1541 C1543 1.433 . S
C1542 C1538 1.350 1_655 S
C1542 C1539 1.463 . S
C1542 N1546 1.427 . S
C1543 H1533 0.929 . S
C1543 C1541 1.433 . S
C1543 N1546 1.384 . S
C1544 H1535 0.929 . S
C1544 C1536 1.378 . S
C1544 C1539 1.350 . S
C1545 H1532 0.929 . S
C1545 C1537 1.433 1_455 S
C1545 N1547 1.384 . S
N1546 C1542 1.427 . S
N1546 C1543 1.384 . S
N1547 C1539 1.427 1_455 S
N1547 C1545 1.384 . S
H1548 C1554 0.930 . S
H1549 C1558 0.930 . S
H1550 C1563 0.929 . S
H1551 C1561 0.929 . S
H1552 C1556 0.929 . S
H1553 C1562 0.929 . S
C1554 H1548 0.930 . S
C1554 C1555 1.367 . S
C1554 C1562 1.378 . S
C1555 C1554 1.367 . S
C1555 C1563 1.433 1_545 S
C1556 H1552 0.929 . S
C1556 C1558 1.378 . S
C1556 C1560 1.350 1_565 S
C1557 C1560 1.463 1_556 S
C1557 C1562 1.350 . S
C1557 N1565 1.427 1_545 S
C1558 H1549 0.930 . S
C1558 C1556 1.378 . S
C1558 C1559 1.367 1_565 S
C1559 C1558 1.367 1_545 S
C1559 C1561 1.433 . S
C1560 C1556 1.350 1_545 S
C1560 C1557 1.463 1_554 S
C1560 N1564 1.427 . S
C1561 H1551 0.929 . S
C1561 C1559 1.433 . S
C1561 N1564 1.384 . S
C1562 H1553 0.929 . S
C1562 C1554 1.378 . S
C1562 C1557 1.350 . S
C1563 H1550 0.929 . S
C1563 C1555 1.433 1_565 S
C1563 N1565 1.384 . S
N1564 C1560 1.427 . S
N1564 C1561 1.384 . S
N1565 C1557 1.427 1_565 S
N1565 C1563 1.384 . S
H1566 C1572 0.930 . S
H1567 C1576 0.930 . S
H1568 C1581 0.929 . S
H1569 C1579 0.929 . S
H1570 C1574 0.929 . S
H1571 C1580 0.929 . S
C1572 H1566 0.930 . S
C1572 C1573 1.367 . S
C1572 C1580 1.378 . S
C1573 C1572 1.367 . S
C1573 C1581 1.433 . S
C1574 H1570 0.929 . S
C1574 C1576 1.378 . S
C1574 C1578 1.350 . S
C1575 C1578 1.463 1_554 S
C1575 C1580 1.350 . S
C1575 N1583 1.427 . S
C1576 H1567 0.930 . S
C1576 C1574 1.378 . S
C1576 C1577 1.367 . S
C1577 C1576 1.367 . S
C1577 C1579 1.433 . S
C1578 C1574 1.350 . S
C1578 C1575 1.463 1_556 S
C1578 N1582 1.427 . S
C1579 H1569 0.929 . S
C1579 C1577 1.433 . S
C1579 N1582 1.384 . S
C1580 H1571 0.929 . S
C1580 C1572 1.378 . S
C1580 C1575 1.350 . S
C1581 H1568 0.929 . S
C1581 C1573 1.433 . S
C1581 N1583 1.384 . S
N1582 C1578 1.427 . S
N1582 C1579 1.384 . S
N1583 C1575 1.427 . S
N1583 C1581 1.384 . S
H1584 C1590 0.930 . S
H1585 C1594 0.930 . S
H1586 C1599 0.929 . S
H1587 C1597 0.929 . S
H1588 C1592 0.929 . S
H1589 C1598 0.929 . S
C1590 H1584 0.930 . S
C1590 C1591 1.367 . S
C1590 C1598 1.378 . S
C1591 C1590 1.367 . S
C1591 C1599 1.433 1_565 S
C1592 H1588 0.929 . S
C1592 C1594 1.378 . S
C1592 C1596 1.350 1_545 S
C1593 C1596 1.463 . S
C1593 C1598 1.350 . S
C1593 N1601 1.427 1_565 S
C1594 H1585 0.930 . S
C1594 C1592 1.378 . S
C1594 C1595 1.367 1_545 S
C1595 C1594 1.367 1_565 S
C1595 C1597 1.433 . S
C1596 C1592 1.350 1_565 S
C1596 C1593 1.463 . S
C1596 N1600 1.427 . S
C1597 H1587 0.929 . S
C1597 C1595 1.433 . S
C1597 N1600 1.384 . S
C1598 H1589 0.929 . S
C1598 C1590 1.378 . S
C1598 C1593 1.350 . S
C1599 H1586 0.929 . S
C1599 C1591 1.433 1_545 S
C1599 N1601 1.384 . S
N1600 C1596 1.427 . S
N1600 C1597 1.384 . S
N1601 C1593 1.427 1_545 S
N1601 C1599 1.384 . S
H1602 C1608 0.930 . S
H1603 C1612 0.930 . S
H1604 C1617 0.929 . S
H1605 C1615 0.929 . S
H1606 C1610 0.929 . S
H1607 C1616 0.929 . S
C1608 H1602 0.930 . S
C1608 C1609 1.367 . S
C1608 C1616 1.378 . S
C1609 C1608 1.367 . S
C1609 C1617 1.433 . S
C1610 H1606 0.929 . S
C1610 C1612 1.378 . S
C1610 C1614 1.350 . S
C1611 C1614 1.463 . S
C1611 C1616 1.350 . S
C1611 N1619 1.427 . S
C1612 H1603 0.930 . S
C1612 C1610 1.378 . S
C1612 C1613 1.367 . S
C1613 C1612 1.367 . S
C1613 C1615 1.433 . S
C1614 C1610 1.350 . S
C1614 C1611 1.463 . S
C1614 N1618 1.427 . S
C1615 H1605 0.929 . S
C1615 C1613 1.433 . S
C1615 N1618 1.384 . S
C1616 H1607 0.929 . S
C1616 C1608 1.378 . S
C1616 C1611 1.350 . S
C1617 H1604 0.929 . S
C1617 C1609 1.433 . S
C1617 N1619 1.384 . S
N1618 C1614 1.427 . S
N1618 C1615 1.384 . S
N1619 C1611 1.427 . S
N1619 C1617 1.384 . S
H1620 C1626 0.930 . S
H1621 C1630 0.930 . S
H1622 C1635 0.929 . S
H1623 C1633 0.929 . S
H1624 C1628 0.929 . S
H1625 C1634 0.929 . S
C1626 H1620 0.930 . S
C1626 C1627 1.367 . S
C1626 C1634 1.378 . S
C1627 C1626 1.367 . S
C1627 C1635 1.433 1_554 S
C1628 H1624 0.929 . S
C1628 C1630 1.378 . S
C1628 C1632 1.350 1_556 S
C1629 C1632 1.463 1_455 S
C1629 C1634 1.350 . S
C1629 N1637 1.427 1_554 S
C1630 H1621 0.930 . S
C1630 C1628 1.378 . S
C1630 C1631 1.367 1_556 S
C1631 C1630 1.367 1_554 S
C1631 C1633 1.433 . S
C1632 C1628 1.350 1_554 S
C1632 C1629 1.463 1_655 S
C1632 N1636 1.427 . S
C1633 H1623 0.929 . S
C1633 C1631 1.433 . S
C1633 N1636 1.384 . S
C1634 H1625 0.929 . S
C1634 C1626 1.378 . S
C1634 C1629 1.350 . S
C1635 H1622 0.929 . S
C1635 C1627 1.433 1_556 S
C1635 N1637 1.384 . S
N1636 C1632 1.427 . S
N1636 C1633 1.384 . S
N1637 C1629 1.427 1_556 S
N1637 C1635 1.384 . S
H1638 C1644 0.930 . S
H1639 C1648 0.930 . S
H1640 C1653 0.929 . S
H1641 C1651 0.929 . S
H1642 C1646 0.929 . S
H1643 C1652 0.929 . S
C1644 H1638 0.930 . S
C1644 C1645 1.367 . S
C1644 C1652 1.378 . S
C1645 C1644 1.367 . S
C1645 C1653 1.433 . S
C1646 H1642 0.929 . S
C1646 C1648 1.378 . S
C1646 C1650 1.350 . S
C1647 C1650 1.463 1_455 S
C1647 C1652 1.350 . S
C1647 N1655 1.427 . S
C1648 H1639 0.930 . S
C1648 C1646 1.378 . S
C1648 C1649 1.367 . S
C1649 C1648 1.367 . S
C1649 C1651 1.433 . S
C1650 C1646 1.350 . S
C1650 C1647 1.463 1_655 S
C1650 N1654 1.427 . S
C1651 H1641 0.929 . S
C1651 C1649 1.433 . S
C1651 N1654 1.384 . S
C1652 H1643 0.929 . S
C1652 C1644 1.378 . S
C1652 C1647 1.350 . S
C1653 H1640 0.929 . S
C1653 C1645 1.433 . S
C1653 N1655 1.384 . S
N1654 C1650 1.427 . S
N1654 C1651 1.384 . S
N1655 C1647 1.427 . S
N1655 C1653 1.384 . S
H1656 C1662 0.930 . S
H1657 C1666 0.930 . S
H1658 C1671 0.929 . S
H1659 C1669 0.929 . S
H1660 C1664 0.929 . S
H1661 C1670 0.929 . S
C1662 H1656 0.930 . S
C1662 C1663 1.367 . S
C1662 C1670 1.378 . S
C1663 C1662 1.367 . S
C1663 C1671 1.433 . S
C1664 H1660 0.929 . S
C1664 C1666 1.378 . S
C1664 C1668 1.350 . S
C1665 C1668 1.463 . S
C1665 C1670 1.350 . S
C1665 N1673 1.427 . S
C1666 H1657 0.930 . S
C1666 C1664 1.378 . S
C1666 C1667 1.367 . S
C1667 C1666 1.367 . S
C1667 C1669 1.433 . S
C1668 C1664 1.350 . S
C1668 C1665 1.463 . S
C1668 N1672 1.427 . S
C1669 H1659 0.929 . S
C1669 C1667 1.433 . S
C1669 N1672 1.384 . S
C1670 H1661 0.929 . S
C1670 C1662 1.378 . S
C1670 C1665 1.350 . S
C1671 H1658 0.929 . S
C1671 C1663 1.433 . S
C1671 N1673 1.384 . S
N1672 C1668 1.427 . S
N1672 C1669 1.384 . S
N1673 C1665 1.427 . S
N1673 C1671 1.384 . S
H1674 C1680 0.930 . S
H1675 C1684 0.930 . S
H1676 C1689 0.929 . S
H1677 C1687 0.929 . S
H1678 C1682 0.929 . S
H1679 C1688 0.929 . S
C1680 H1674 0.930 . S
C1680 C1681 1.367 . S
C1680 C1688 1.378 . S
C1681 C1680 1.367 . S
C1681 C1689 1.433 . S
C1682 H1678 0.929 . S
C1682 C1684 1.378 . S
C1682 C1686 1.350 . S
C1683 C1686 1.463 . S
C1683 C1688 1.350 . S
C1683 N1691 1.427 . S
C1684 H1675 0.930 . S
C1684 C1682 1.378 . S
C1684 C1685 1.367 . S
C1685 C1684 1.367 . S
C1685 C1687 1.433 . S
C1686 C1682 1.350 . S
C1686 C1683 1.463 . S
C1686 N1690 1.427 . S
C1687 H1677 0.929 . S
C1687 C1685 1.433 . S
C1687 N1690 1.384 . S
C1688 H1679 0.929 . S
C1688 C1680 1.378 . S
C1688 C1683 1.350 . S
C1689 H1676 0.929 . S
C1689 C1681 1.433 . S
C1689 N1691 1.384 . S
N1690 C1686 1.427 . S
N1690 C1687 1.384 . S
N1691 C1683 1.427 . S
N1691 C1689 1.384 . S
H1692 C1698 0.930 . S
H1693 C1702 0.930 . S
H1694 C1707 0.929 . S
H1695 C1705 0.929 . S
H1696 C1700 0.929 1_565 S
H1697 C1706 0.929 1_545 S
C1698 H1692 0.930 . S
C1698 C1699 1.367 . S
C1698 C1706 1.378 . S
C1699 C1698 1.367 . S
C1699 C1707 1.433 . S
C1700 H1696 0.929 1_545 S
C1700 C1702 1.378 . S
C1700 C1704 1.350 . S
C1701 C1704 1.463 1_565 S
C1701 C1706 1.350 . S
C1701 N1709 1.427 . S
C1702 H1693 0.930 . S
C1702 C1700 1.378 . S
C1702 C1703 1.367 . S
C1703 C1702 1.367 . S
C1703 C1705 1.433 . S
C1704 C1700 1.350 . S
C1704 C1701 1.463 1_545 S
C1704 N1708 1.427 . S
C1705 H1695 0.929 . S
C1705 C1703 1.433 . S
C1705 N1708 1.384 . S
C1706 H1697 0.929 1_565 S
C1706 C1698 1.378 . S
C1706 C1701 1.350 . S
C1707 H1694 0.929 . S
C1707 C1699 1.433 . S
C1707 N1709 1.384 . S
N1708 C1704 1.427 . S
N1708 C1705 1.384 . S
N1709 C1701 1.427 . S
N1709 C1707 1.384 . S
H1710 C1716 0.930 . S
H1711 C1720 0.930 . S
H1712 C1725 0.929 . S
H1713 C1723 0.929 . S
H1714 C1718 0.929 . S
H1715 C1724 0.929 . S
C1716 H1710 0.930 . S
C1716 C1717 1.367 . S
C1716 C1724 1.378 . S
C1717 C1716 1.367 . S
C1717 C1725 1.433 1_556 S
C1718 H1714 0.929 . S
C1718 C1720 1.378 . S
C1718 C1722 1.350 1_554 S
C1719 C1722 1.463 . S
C1719 C1724 1.350 . S
C1719 N1727 1.427 1_556 S
C1720 H1711 0.930 . S
C1720 C1718 1.378 . S
C1720 C1721 1.367 1_554 S
C1721 C1720 1.367 1_556 S
C1721 C1723 1.433 . S
C1722 C1718 1.350 1_556 S
C1722 C1719 1.463 . S
C1722 N1726 1.427 . S
C1723 H1713 0.929 . S
C1723 C1721 1.433 . S
C1723 N1726 1.384 . S
C1724 H1715 0.929 . S
C1724 C1716 1.378 . S
C1724 C1719 1.350 . S
C1725 H1712 0.929 . S
C1725 C1717 1.433 1_554 S
C1725 N1727 1.384 . S
N1726 C1722 1.427 . S
N1726 C1723 1.384 . S
N1727 C1719 1.427 1_554 S
N1727 C1725 1.384 . S
C871 C615 0.544 . S
C875 C2 0.586 . S
C889 C38 0.661 . S
C893 C579 0.656 . S
C907 C74 0.721 . S
C911 C687 0.721 . S
C925 C110 0.812 . S
C929 C651 0.808 . S
C943 C146 0.580 . S
C947 C759 0.572 . S
C961 C182 0.699 . S
C965 C795 0.686 . S
C979 C723 0.683 . S
C983 C218 0.687 . S
C997 C399 0.793 . S
C1001 C254 0.782 . S
C1015 C290 0.563 . S
C1019 C111 0.559 . S
C1033 C39 0.698 . S
C1037 C326 0.686 . S
C1051 C362 0.880 . S
C1055 C3 0.884 . S
C1069 C398 0.780 . S
C1073 C507 0.764 . S
C1087 C183 0.937 . S
C1091 C434 0.940 . S
C1105 C147 0.882 . S
C1109 C470 0.867 . S
C1123 C506 0.767 . S
C1127 C255 0.767 . S
C1141 C542 0.704 . S
C1145 C219 0.710 . S
C1159 C327 0.951 . S
C1163 C578 0.952 . S
C1177 C363 0.839 . S
C1181 C614 0.830 . S
C1195 C291 0.876 . S
C1199 C650 0.860 . S
C1213 C686 0.717 . S
C1217 C831 0.733 . S
C1231 C543 0.938 . S
C1235 C722 0.940 . S
C1249 C758 0.836 . S
C1253 C471 0.814 . S
C1267 C435 0.683 . S
C1271 C794 0.687 . S
C1285 C830 0.746 . S
C1289 C75 0.739 . S
C1303 C4 1.717 . S
C1307 C40 1.709 . S
C1321 C112 1.617 . S
C1325 C76 1.625 . S
C1339 C148 1.719 . S
C1343 C220 1.712 . S
C1357 C184 1.902 . S
C1361 C256 1.884 . S
C1375 C796 1.705 . S
C1379 C292 1.719 . S
C1393 C328 1.905 . S
C1397 C400 1.891 . S
C1411 C724 1.820 . S
C1415 C364 1.833 . S
C1429 C472 1.838 . S
C1433 C436 1.821 . S
C1447 C508 1.893 . S
C1451 C544 1.911 . S
C1465 C652 1.828 . S
C1469 C580 1.810 . S
C1483 C616 1.611 . S
C1487 C688 1.619 . S
C1501 C832 1.626 . S
C1505 C760 1.615 . S
C1519 C86 1.194 . S
C1523 C14 1.199 . S
C1537 C50 1.433 . S
C1541 C122 1.443 . S
C1555 C698 1.197 . S
C1559 C158 1.198 . S
C1573 C194 1.365 . S
C1577 C662 1.361 . S
C1591 C230 1.433 . S
C1595 C626 1.444 . S
C1609 C590 1.610 . S
C1613 C266 1.598 . S
C1627 C302 1.188 . S
C1631 C842 1.202 . S
C1645 C338 1.353 . S
C1649 C374 1.370 . S
C1663 C734 1.613 . S
C1667 C410 1.600 . S
C1681 C446 1.609 . S
C1685 C518 1.606 . S
C1699 C482 1.362 . S
C1703 C554 1.360 . S
C1717 C806 1.433 . S
C1721 C770 1.445 . S
