# Generated by pormake.
# Topology rkf, (6)-cn, num edge types: 1
# Building blocks:
#     Node 0, Type 0, BuildingBlock: BETFAJ_clean_sbu_0, # of connection points: 6
#     Node 1, Type 0, BuildingBlock: BETFAJ_clean_sbu_0, # of connection points: 6
#     Node 2, Type 0, BuildingBlock: BETFAJ_clean_sbu_0, # of connection points: 6
#     Node 3, Type 0, BuildingBlock: BETFAJ_clean_sbu_0, # of connection points: 6
#     Node 4, Type 0, BuildingBlock: BETFAJ_clean_sbu_0, # of connection points: 6
#     Node 5, Type 0, BuildingBlock: BETFAJ_clean_sbu_0, # of connection points: 6
#     Edge 6, Type (0, 0), BuildingBlock: CIFDUS_clean_linker_0, # of connection points: 2
#     Edge 7, Type (0, 0), BuildingBlock: CIFDUS_clean_linker_0, # of connection points: 2
#     Edge 8, Type (0, 0), BuildingBlock: CIFDUS_clean_linker_0, # of connection points: 2
#     Edge 9, Type (0, 0), BuildingBlock: CIFDUS_clean_linker_0, # of connection points: 2
#     Edge 10, Type (0, 0), BuildingBlock: CIFDUS_clean_linker_0, # of connection points: 2
#     Edge 11, Type (0, 0), BuildingBlock: CIFDUS_clean_linker_0, # of connection points: 2
#     Edge 12, Type (0, 0), BuildingBlock: CIFDUS_clean_linker_0, # of connection points: 2
#     Edge 13, Type (0, 0), BuildingBlock: CIFDUS_clean_linker_0, # of connection points: 2
#     Edge 14, Type (0, 0), BuildingBlock: CIFDUS_clean_linker_0, # of connection points: 2
#     Edge 15, Type (0, 0), BuildingBlock: CIFDUS_clean_linker_0, # of connection points: 2
#     Edge 16, Type (0, 0), BuildingBlock: CIFDUS_clean_linker_0, # of connection points: 2
#     Edge 17, Type (0, 0), BuildingBlock: CIFDUS_clean_linker_0, # of connection points: 2
#     Edge 18, Type (0, 0), BuildingBlock: CIFDUS_clean_linker_0, # of connection points: 2
#     Edge 19, Type (0, 0), BuildingBlock: CIFDUS_clean_linker_0, # of connection points: 2
#     Edge 20, Type (0, 0), BuildingBlock: CIFDUS_clean_linker_0, # of connection points: 2
#     Edge 21, Type (0, 0), BuildingBlock: CIFDUS_clean_linker_0, # of connection points: 2
#     Edge 22, Type (0, 0), BuildingBlock: CIFDUS_clean_linker_0, # of connection points: 2
#     Edge 23, Type (0, 0), BuildingBlock: CIFDUS_clean_linker_0, # of connection points: 2
# Relax obj value: 0.836
# Max RMSD: 0.248
# Mean RMSD: 0.248
data_MOF--net-rkf--node1-BETFAJ_clean_sbu_0--edge1-CIFDUS_clean_linker_0
_symmetry_space_group_name_H-M    P1
_symmetry_Int_Tables_number       1
_symmetry_cell_setting            triclinic
loop_
_symmetry_equiv_pos_as_xyz
'x, y, z'
_cell_length_a     23.49815
_cell_length_b     23.211171
_cell_length_c     37.796858
_cell_angle_alpha  90.115813
_cell_angle_beta   89.825043
_cell_angle_gamma 120.87123
loop_
_atom_site_label
_atom_site_type_symbol
_atom_site_fract_x
_atom_site_fract_y
_atom_site_fract_z
_atom_type_partial_charge
Sm0 Sm 0.2623 -0.02278 0.20825 0.0
Sm1 Sm 0.30859 0.12536 1.19107 0.0
C2 C 0.26752 0.87421 0.23263 0.0
C3 C 0.29158 0.86831 0.2674 0.0
C4 C 0.34437 0.92551 0.28343 0.0
C5 C 0.35272 0.92787 0.32003 0.0
C6 C 0.30807 0.87334 0.3411 0.0
C7 C 0.26038 0.81348 0.32442 0.0
C8 C 0.25223 0.81107 0.28781 0.0
C9 C 0.16258 0.00209 1.19882 0.0
C10 C 0.29071 0.08639 0.27393 0.0
C11 C 0.33695 0.24749 1.17363 0.0
C12 C 0.31816 0.2943 1.15992 0.0
C13 C 0.35001 0.35914 1.17421 0.0
C14 C 0.33912 0.40798 1.16011 0.0
C15 C 0.29606 0.39275 1.13137 0.0
C16 C 0.26138 0.32653 1.11819 0.0
C17 C 0.2724 0.27744 1.13241 0.0
C18 C 0.40812 0.09869 1.20336 0.0
C19 C 0.23822 0.00813 1.12803 0.0
O20 O 0.31236 0.91833 0.21103 0.0
O21 O 0.2133 0.87714 0.23381 0.0
O22 O 0.21668 0.04 0.21413 0.0
O23 O 0.15538 0.94384 1.19129 0.0
O24 O 0.28479 0.02838 0.26434 0.0
O25 O 0.29236 0.12895 0.25038 0.0
O26 O 0.3135 0.22072 0.20453 0.0
O27 O 0.344 0.20785 1.15165 0.0
O28 O 0.35658 0.06247 1.18564 0.0
O29 O 0.41084 0.15344 0.21285 0.0
O30 O 0.25346 0.06848 1.13976 0.0
O31 O 0.24488 0.96514 1.14807 0.0
H32 H 0.37535 -0.02936 0.26823 0.0
H33 H 0.39026 -0.02561 0.33206 0.0
H34 H 0.22453 0.77076 0.33979 0.0
H35 H 0.21095 0.76684 0.27595 0.0
H36 H 0.38503 0.37264 1.19573 0.0
H37 H 0.36578 0.4582 1.17108 0.0
H38 H 0.22818 0.31347 1.09586 0.0
H39 H 0.24683 0.22725 1.12136 0.0
Sm40 Sm 0.36996 0.3057 0.54514 0.0
Sm41 Sm 0.23261 0.27273 0.52209 0.0
C42 C 0.49769 0.34878 0.55175 0.0
C43 C 0.53913 0.34924 0.58084 0.0
C44 C 0.5333 0.37039 0.61474 0.0
C45 C 0.55631 0.35227 0.64409 0.0
C46 C 0.58476 0.3121 0.64001 0.0
C47 C 0.59719 0.29748 0.60578 0.0
C48 C 0.57468 0.31622 0.57632 0.0
C49 C 0.27048 0.17805 0.56092 0.0
C50 C 0.27605 0.31206 0.6063 0.0
C51 C 0.10452 0.22671 0.51289 0.0
C52 C 0.05693 0.2496 0.51202 0.0
C53 C -0.0079 0.20468 0.50096 0.0
C54 C -0.04981 0.22821 0.49172 0.0
C55 C -0.02747 0.2973 0.49352 0.0
C56 C 0.03534 0.34098 0.5083 0.0
C57 C 0.07754 0.31737 0.51718 0.0
C58 C 0.33357 0.40509 0.51191 0.0
C59 C 0.31434 0.24631 0.46542 0.0
O60 O 0.47348 0.38844 0.55461 0.0
O61 O 0.45408 0.28881 0.54037 0.0
O62 O 0.27776 0.20955 0.53268 0.0
O63 O 0.31911 0.21347 0.58259 0.0
O64 O 0.33852 0.33281 0.59776 0.0
O65 O 0.22765 0.28237 0.58284 0.0
O66 O 0.14792 0.24851 0.48713 0.0
O67 O 0.12998 0.22639 0.54355 0.0
O68 O 0.32455 0.36909 0.53824 0.0
O69 O 0.28625 0.37259 0.48919 0.0
O70 O 0.25494 0.21684 0.47971 0.0
O71 O 0.36538 0.29461 0.48308 0.0
H72 H 0.50587 0.3957 0.61899 0.0
H73 H 0.54517 0.36355 0.67013 0.0
H74 H 0.61904 0.26662 0.60198 0.0
H75 H 0.57972 0.29958 0.55031 0.0
H76 H -0.02455 0.15208 0.49698 0.0
H77 H 0.90264 0.19287 0.48019 0.0
H78 H 0.05363 0.39417 0.51073 0.0
H79 H 0.12753 0.35261 0.52595 0.0
Sm80 Sm 0.12675 0.39084 0.87231 0.0
Sm81 Sm 0.00556 0.26026 0.85367 0.0
C82 C 0.21446 0.51972 0.87894 0.0
C83 C 0.23025 0.5627 0.91036 0.0
C84 C 0.17978 0.56595 0.92866 0.0
C85 C 0.18534 0.57832 0.965 0.0
C86 C 0.24041 0.58527 0.98349 0.0
C87 C 0.29548 0.59422 0.96377 0.0
C88 C 0.29056 0.58377 0.92739 0.0
C89 C 0.14098 0.28475 0.88642 0.0
C90 C 0.03095 0.30243 0.93706 0.0
C91 C 0.89725 0.14007 0.84942 0.0
C92 C 0.82736 0.11699 0.84339 0.0
C93 C 0.7848 0.05148 0.83163 0.0
C94 C 0.72167 0.03271 0.81944 0.0
C95 C 0.70015 0.07938 0.81881 0.0
C96 C 0.74131 0.14347 0.83343 0.0
C97 C 0.80471 0.16229 0.84542 0.0
C98 C -0.00465 0.37313 0.84462 0.0
C99 C 0.11457 0.3225 0.79244 0.0
O100 O 0.15608 0.4975 0.86468 0.0
O101 O 0.22955 0.47291 0.88203 0.0
O102 O 0.11301 0.29065 0.85946 0.0
O103 O 0.16557 0.33692 0.9071 0.0
O104 O 0.07197 0.36517 0.92671 0.0
O105 O 0.00944 0.25267 0.91418 0.0
O106 O 0.93637 0.17016 0.8225 0.0
O107 O 0.92191 0.17085 0.87936 0.0
O108 O 0.0199 0.35983 0.87031 0.0
O109 O -0.02703 0.32482 0.82178 0.0
O110 O 0.06718 0.26562 0.80592 0.0
O111 O 0.14077 0.37902 0.81118 0.0
H112 H 0.1331 0.55143 0.91599 0.0
H113 H 0.14321 0.57427 0.97905 0.0
H114 H 0.33932 0.60011 0.9765 0.0
H115 H 0.3305 0.58254 0.91364 0.0
H116 H 0.80183 0.01613 0.82981 0.0
H117 H 0.69222 -0.01664 0.80775 0.0
H118 H 0.72623 0.18041 0.83348 0.0
H119 H 0.83734 0.21331 0.85444 0.0
Sm120 Sm 0.83525 0.16082 0.20785 0.0
Sm121 Sm 0.81437 0.02133 1.18625 0.0
C122 C 0.81388 0.25521 0.2315 0.0
C123 C 0.78775 0.26346 0.26503 0.0
C124 C 0.75866 0.20979 0.28889 0.0
C125 C 0.74942 0.22077 0.32405 0.0
C126 C 0.77034 0.28603 0.33611 0.0
C127 C 0.79301 0.33844 0.31123 0.0
C128 C 0.802 0.32721 0.27584 0.0
C129 C -0.05108 0.16186 1.19443 0.0
C130 C 0.82553 0.0523 0.26988 0.0
C131 C 0.81139 0.91101 1.16735 0.0
C132 C 0.80797 0.84853 1.15648 0.0
C133 C 0.85295 0.83093 1.16962 0.0
C134 C 0.8464 0.7694 1.16039 0.0
C135 C 0.79433 0.72439 1.13828 0.0
C136 C 0.74928 0.74224 1.12559 0.0
C137 C 0.75613 0.80359 1.13455 0.0
C138 C 0.7008 0.02352 1.20103 0.0
C139 C 0.86312 0.14028 1.1252 0.0
O140 O 0.77169 0.2056 0.2114 0.0
O141 O 0.87115 0.25875 0.23417 0.0
O142 O 0.89811 0.11535 0.2094 0.0
O143 O -0.055 0.21525 1.18994 0.0
O144 O 0.81811 0.10443 0.26286 0.0
O145 O 0.83312 0.01825 0.24442 0.0
O146 O 0.8501 0.94937 1.19274 0.0
O147 O 0.77721 0.93319 1.15109 0.0
O148 O 0.7503 0.06764 1.1842 0.0
O149 O 0.70749 -0.02721 0.20797 0.0
O150 O 0.85732 0.08284 1.13515 0.0
O151 O 0.85025 0.17715 1.14703 0.0
H152 H 0.7486 0.16053 0.28125 0.0
H153 H 0.73292 0.17932 0.34236 0.0
H154 H 0.80918 0.38916 0.31971 0.0
H155 H 0.82482 0.36921 0.25766 0.0
H156 H 0.89291 0.86444 1.18704 0.0
H157 H 0.88212 0.75717 1.17035 0.0
H158 H 0.70969 0.70969 1.10772 0.0
H159 H 0.72032 0.81554 1.1244 0.0
Sm160 Sm 0.75077 0.89148 0.55426 0.0
Sm161 Sm 0.82001 0.82402 0.5229 0.0
C162 C 0.65976 0.92365 0.56747 0.0
C163 C 0.61335 0.91539 0.5955 0.0
C164 C 0.60596 0.87601 0.62505 0.0
C165 C 0.57051 0.87705 0.65437 0.0
C166 C 0.54206 0.91777 0.65462 0.0
C167 C 0.5447 0.95239 0.62356 0.0
C168 C 0.58055 0.95148 0.59422 0.0
C169 C 0.88613 -0.02942 0.55194 0.0
C170 C 0.81752 0.84149 0.60995 0.0
C171 C 0.89423 0.77205 0.50595 0.0
C172 C -0.0409 0.7777 0.51006 0.0
C173 C 0.01503 0.83713 0.52179 0.0
C174 C 0.07843 0.84626 0.51761 0.0
C175 C 0.08665 0.79632 0.50124 0.0
C176 C 0.0296 0.73431 0.49307 0.0
C177 C -0.03345 0.72526 0.49744 0.0
C178 C 0.68326 0.74466 0.52338 0.0
C179 C 0.78439 0.90872 0.46792 0.0
O180 O 0.64717 0.8688 0.5509 0.0
O181 O 0.72264 0.96287 0.57503 0.0
O182 O 0.84924 0.93094 0.52849 0.0
O183 O 0.85151 -0.02567 0.57786 0.0
O184 O 0.76508 0.84776 0.6056 0.0
O185 O 0.85309 0.84273 0.58228 0.0
O186 O 0.85379 0.75149 0.53297 0.0
O187 O 0.89293 0.81912 0.48772 0.0
O188 O 0.71844 0.78162 0.54848 0.0
O189 O 0.7205 0.74763 0.49732 0.0
O190 O 0.82145 0.88153 0.47265 0.0
O191 O 0.74924 0.91227 0.49428 0.0
H192 H 0.63103 0.84776 0.62626 0.0
H193 H 0.57076 0.85068 0.67792 0.0
H194 H 0.52311 -0.01611 0.62286 0.0
H195 H 0.58561 -0.01822 0.57131 0.0
H196 H 0.00997 0.87769 0.53227 0.0
H197 H 0.12109 0.89405 0.52501 0.0
H198 H 0.03331 0.69462 0.48023 0.0
H199 H 0.9238 0.67881 0.4885 0.0
Sm200 Sm -0.04622 0.7745 0.87929 0.0
Sm201 Sm 0.09511 0.87862 0.856 0.0
C202 C 0.84531 0.65645 0.88748 0.0
C203 C 0.82558 0.60494 0.91502 0.0
C204 C 0.86824 0.58217 0.92512 0.0
C205 C 0.86198 0.55384 0.95851 0.0
C206 C 0.8138 0.54926 0.98235 0.0
C207 C 0.76494 0.56215 0.96974 0.0
C208 C 0.77087 0.58975 0.93631 0.0
C209 C -0.01744 0.90212 0.88845 0.0
C210 C 0.06168 0.85233 0.94091 0.0
C211 C 0.21878 -0.02029 0.84928 0.0
C212 C 0.27855 0.00649 0.82731 0.0
C213 C 0.31488 0.07557 0.82089 0.0
C214 C 0.37117 0.1031 0.79957 0.0
C215 C 0.39259 0.06204 0.78432 0.0
C216 C 0.35676 -0.00726 0.79142 0.0
C217 C 0.29996 0.96508 0.81274 0.0
C218 C 0.06226 0.7464 0.85361 0.0
C219 C -0.01687 0.83053 0.79489 0.0
O220 O 0.89403 0.66604 0.86653 0.0
O221 O 0.85043 0.71263 0.89838 0.0
O222 O 0.00108 0.88094 0.86262 0.0
O223 O -0.0596 0.85341 0.90878 0.0
O224 O 0.00928 0.79314 0.93273 0.0
O225 O 0.09444 0.89757 0.91608 0.0
O226 O 0.16804 -0.01986 0.83555 0.0
O227 O 0.20213 0.9259 0.86789 0.0
O228 O 0.04872 0.77441 0.87782 0.0
O229 O 0.09629 0.789 0.82875 0.0
O230 O 0.04615 0.87214 0.80271 0.0
O231 O -0.05969 0.78863 0.81884 0.0
H232 H 0.91011 0.59194 0.90879 0.0
H233 H 0.89932 0.54275 0.96703 0.0
H234 H 0.72689 0.5595 0.98706 0.0
H235 H 0.73702 0.6063 0.92885 0.0
H236 H 0.29889 0.10819 0.83185 0.0
H237 H 0.3962 0.15632 0.79386 0.0
H238 H 0.37194 0.95986 0.77999 0.0
H239 H 0.2724 0.91144 0.81742 0.0
H240 H 0.93661 0.05415 1.16236 0.0
H241 H 0.08212 0.25179 1.19855 0.0
H242 H 0.16777 0.22109 1.19629 0.0
H243 H 0.19072 0.12941 1.19911 0.0
H244 H 0.0416 0.92923 1.16723 0.0
H245 H -0.03348 -0.03055 1.15233 0.0
C246 C -0.01278 0.09066 1.16917 0.0
C247 C 0.00308 0.15357 1.18219 0.0
C248 C 0.03433 0.07152 1.16943 0.0
C249 C 0.06913 0.20233 1.18925 0.0
C250 C 0.11759 0.18455 1.18831 0.0
C251 C 0.14212 0.0948 1.18852 0.0
C252 C 0.12032 0.02624 1.1855 0.0
C253 C 0.0992 0.11779 1.18103 0.0
C254 C 0.05825 -0.0181 1.17072 0.0
C255 C 0.01558 0.00478 1.16224 0.0
H256 H -0.02462 0.0351 0.6053 0.0
H257 H -0.04247 -0.03235 0.49711 0.0
H258 H 0.07597 0.01188 0.49405 0.0
H259 H 0.18527 0.0807 0.51913 0.0
H260 H 0.20816 0.15806 0.62505 0.0
H261 H 0.08728 0.09645 0.63282 0.0
C262 C -0.00227 0.03025 0.58119 0.0
C263 C -0.04185 -0.00092 0.55136 0.0
C264 C 0.06649 0.05642 0.57945 0.0
C265 C -0.01284 -0.0079 0.52033 0.0
C266 C 0.05484 0.01702 0.51855 0.0
C267 C 0.16359 0.08218 0.5443 0.0
C268 C 0.20457 0.12389 0.57132 0.0
C269 C 0.09494 0.05026 0.54765 0.0
C270 C 0.17695 0.12563 0.60398 0.0
C271 C 0.10796 0.09151 0.60813 0.0
H272 H 0.08052 0.00414 0.85303 0.0
H273 H -0.04456 0.95869 0.94477 0.0
H274 H 0.00869 0.0788 0.95841 0.0
H275 H 0.08068 0.19606 0.93889 0.0
H276 H 0.20184 0.23786 0.84575 0.0
H277 H 0.16539 0.11909 0.83984 0.0
C278 C 0.06638 0.02031 0.87658 0.0
C279 C 0.01439 -0.02672 0.89775 0.0
C280 C 0.09793 0.08844 0.88448 0.0
C281 C -0.00493 -0.00539 0.92785 0.0
C282 C 0.02584 0.06296 0.93582 0.0
C283 C 0.10087 0.17905 0.91827 0.0
C284 C 0.14318 0.22433 0.89262 0.0
C285 C 0.07625 0.11037 0.91375 0.0
C286 C 0.16927 0.20296 0.86574 0.0
C287 C 0.14753 0.13522 0.862 0.0
H288 H 0.18633 0.39042 1.10649 0.0
H289 H 0.39895 0.51702 1.11462 0.0
H290 H 0.39679 0.60061 1.07682 0.0
H291 H 0.3376 0.62823 1.03374 0.0
H292 H 0.12767 0.49213 1.01862 0.0
H293 H 0.12504 0.42537 1.0684 0.0
C294 C 0.23199 0.43675 1.10032 0.0
C295 C 0.29263 0.44717 1.11304 0.0
C296 C 0.2308 0.48369 1.07754 0.0
C297 C 0.35142 0.50792 1.1054 0.0
C298 C 0.35034 0.55573 1.08364 0.0
C299 C 0.29103 0.58445 1.04156 0.0
C300 C 0.23383 0.56394 1.02116 0.0
C301 C 0.29067 0.54283 1.06843 0.0
C302 C 0.17316 0.50917 1.03311 0.0
C303 C 0.17161 0.46989 1.06138 0.0
H304 H 0.83822 0.24321 0.48667 0.0
H305 H 0.02682 0.41137 0.45353 0.0
H306 H -0.02671 0.43462 0.40573 0.0
H307 H 0.88132 0.3887 0.36461 0.0
H308 H 0.69423 0.21429 0.39325 0.0
H309 H 0.73869 0.212 0.45125 0.0
C310 C 0.86736 0.28587 0.46947 0.0
C311 C 0.93682 0.32408 0.47327 0.0
C312 C 0.83675 0.297 0.4406 0.0
C313 C -0.02659 0.38064 0.45147 0.0
C314 C -0.0571 0.39366 0.42365 0.0
C315 C 0.84893 0.35213 0.38407 0.0
C316 C 0.78507 0.30072 0.3743 0.0
C317 C 0.87562 0.34951 0.41665 0.0
C318 C 0.7441 0.25364 0.39994 0.0
C319 C 0.76967 0.25205 0.43301 0.0
H320 H 0.58135 0.96214 0.81168 0.0
H321 H 0.6916 0.16611 0.7734 0.0
H322 H 0.62861 0.13258 0.71903 0.0
H323 H 0.57505 0.04214 0.67631 0.0
H324 H 0.47525 0.83613 0.71123 0.0
H325 H 0.50017 0.87333 0.77264 0.0
C326 C 0.5898 -0.00044 0.79191 0.0
C327 C 0.64328 0.06571 0.79591 0.0
C328 C 0.55638 -0.02089 0.75949 0.0
C329 C 0.65177 0.11442 0.77092 0.0
C330 C 0.61618 0.09511 0.73939 0.0
C331 C 0.55551 0.0051 0.69732 0.0
C332 C 0.52602 0.93649 0.68919 0.0
C333 C 0.5731 0.02687 0.73226 0.0
C334 C 0.5001 0.88939 0.71687 0.0
C335 C 0.51475 0.91068 0.75198 0.0
H336 H 0.89623 0.71145 1.11501 0.0
H337 H 0.68404 0.59989 1.12952 0.0
H338 H 0.67392 0.51534 1.08746 0.0
H339 H 0.72221 0.49312 1.03554 0.0
H340 H 0.93286 0.61577 1.01682 0.0
H341 H -0.05261 0.67133 1.07309 0.0
C342 C 0.84811 0.66704 1.11031 0.0
C343 C 0.79079 0.66295 1.12438 0.0
C344 C 0.84244 0.62006 1.08511 0.0
C345 C 0.72876 0.60496 1.11814 0.0
C346 C 0.72293 0.55657 1.0941 0.0
C347 C 0.77157 0.53029 1.04446 0.0
C348 C 0.82553 0.55257 1.0211 0.0
C349 C 0.77895 0.56644 1.07555 0.0
C350 C 0.88974 0.59828 1.03367 0.0
C351 C 0.89815 0.63133 1.06578 0.0
H352 H 0.17981 0.9145 0.47199 0.0
H353 H 0.13966 0.71456 0.49422 0.0
H354 H 0.22129 0.72818 0.44979 0.0
H355 H 0.28186 0.78607 0.39558 0.0
H356 H 0.31323 -0.01783 0.37179 0.0
H357 H 0.26087 -0.01768 0.4272 0.0
C358 C 0.19066 0.87474 0.46848 0.0
C359 C 0.15164 0.81265 0.48563 0.0
C360 C 0.23612 0.88211 0.44222 0.0
C361 C 0.16725 0.76215 0.48054 0.0
C362 C 0.21395 0.76984 0.45509 0.0
C363 C 0.27885 0.82957 0.40309 0.0
C364 C 0.29988 0.88309 0.37916 0.0
C365 C 0.24519 0.82786 0.43417 0.0
C366 C 0.29738 0.94003 0.38955 0.0
C367 C 0.26641 0.93982 0.42108 0.0
H368 H 0.50835 0.18227 0.78702 0.0
H369 H 0.39746 0.00733 0.72109 0.0
H370 H 0.46485 0.0689 0.67021 0.0
H371 H 0.53216 0.17841 0.64231 0.0
H372 H 0.63245 0.35677 0.70669 0.0
H373 H 0.59286 0.28827 0.76026 0.0
C374 C 0.49996 0.15729 0.76164 0.0
C375 C 0.4465 0.09116 0.75758 0.0
C376 C 0.53628 0.19415 0.73205 0.0
C377 C 0.43766 0.05848 0.72494 0.0
C378 C 0.47571 0.09396 0.69565 0.0
C379 C 0.54801 0.20211 0.66805 0.0
C380 C 0.58441 0.27252 0.67068 0.0
C381 C 0.52198 0.16283 0.6985 0.0
C382 C 0.60399 0.30261 0.70417 0.0
C383 C 0.58087 0.26349 0.73473 0.0
H384 H 0.42634 0.00143 1.17397 0.0
H385 H 0.51041 0.16603 0.24822 0.0
H386 H 0.60614 0.15325 0.25654 0.0
H387 H 0.67017 0.10143 0.23901 0.0
H388 H 0.58872 0.93754 1.16514 0.0
H389 H 0.48682 0.94221 1.16083 0.0
C390 C 0.46522 0.03373 1.19229 0.0
C391 C 0.4619 0.08515 0.2101 0.0
C392 C 0.52054 0.02631 1.19685 0.0
C393 C 0.51246 0.12672 0.23382 0.0
C394 C 0.56716 0.11943 0.23866 0.0
C395 C 0.63008 0.06706 0.22205 0.0
C396 C 0.63693 0.02048 1.20186 0.0
C397 C 0.57249 0.07059 0.21965 0.0
C398 C 0.58413 -0.02579 1.18071 0.0
C399 C 0.52622 -0.02289 1.17816 0.0
H400 H 0.40802 0.49056 0.56394 0.0
H401 H 0.39221 0.47082 0.45044 0.0
H402 H 0.49805 0.57687 0.44398 0.0
H403 H 0.59892 0.67056 0.4709 0.0
H404 H 0.6118 0.69324 0.58435 0.0
H405 H 0.50277 0.59121 0.59067 0.0
C406 C 0.42744 0.51002 0.53778 0.0
C407 C 0.39276 0.47287 0.50763 0.0
C408 C 0.48777 0.5713 0.53436 0.0
C409 C 0.41797 0.4987 0.47394 0.0
C410 C 0.47859 0.5591 0.4703 0.0
C411 C 0.57743 0.65351 0.49697 0.0
C412 C 0.61371 0.6888 0.52714 0.0
C413 C 0.51448 0.59516 0.50033 0.0
C414 C 0.58501 0.66678 0.56075 0.0
C415 C 0.5228 0.60828 0.56436 0.0
H416 H 0.00975 0.46058 0.89573 0.0
H417 H -0.00537 0.43345 0.78264 0.0
H418 H 0.01658 0.54812 0.77494 0.0
H419 H 0.04362 0.65789 0.80073 0.0
H420 H 0.05255 0.68072 0.91419 0.0
H421 H 0.02997 0.5665 0.92147 0.0
C422 C 0.0108 0.47969 0.86941 0.0
C423 C 0.00108 0.43905 0.83975 0.0
C424 C 0.02303 0.5452 0.8653 0.0
C425 C 0.00186 0.46394 0.80583 0.0
C426 C 0.01485 0.52959 0.80145 0.0
C427 C 0.04088 0.63766 0.82694 0.0
C428 C 0.05013 0.67761 0.85686 0.0
C429 C 0.02633 0.57104 0.83098 0.0
C430 C 0.04571 0.65086 0.89075 0.0
C431 C 0.03271 0.58552 0.89496 0.0
H432 H 0.36511 0.20854 0.30472 0.0
H433 H 0.21688 0.00336 0.32808 0.0
H434 H 0.21011 0.0347 0.38931 0.0
H435 H 0.24513 0.12153 0.43602 0.0
H436 H 0.4008 0.32449 0.41384 0.0
H437 H 0.4069 0.29303 0.35263 0.0
C438 C 0.33204 0.17053 0.3234 0.0
C439 C 0.29166 0.1036 0.31192 0.0
C440 C 0.33006 0.18862 0.35883 0.0
C441 C 0.24898 0.05494 0.33636 0.0
C442 C 0.24499 0.07298 0.37134 0.0
C443 C 0.28074 0.15873 0.41781 0.0
C444 C 0.32225 0.22554 0.42938 0.0
C445 C 0.28512 0.13974 0.38286 0.0
C446 C 0.36858 0.27287 0.40563 0.0
C447 C 0.37184 0.25489 0.37059 0.0
H448 H 0.15286 0.25616 0.63536 0.0
H449 H 0.35916 0.39153 0.65965 0.0
H450 H 0.32852 0.41082 0.7187 0.0
H451 H 0.24172 0.38796 0.76422 0.0
H452 H 0.03685 0.24827 0.73884 0.0
H453 H 0.06819 0.23266 0.67977 0.0
C454 C 0.1914 0.29011 0.65343 0.0
C455 C 0.2584 0.32254 0.64281 0.0
C456 C 0.17344 0.30062 0.68736 0.0
C457 C 0.30725 0.3657 0.667 0.0
C458 C 0.28966 0.37697 0.70081 0.0
C459 C 0.2041 0.35504 0.74548 0.0
C460 C 0.1368 0.32006 0.75584 0.0
C461 C 0.22276 0.34484 0.71136 0.0
C462 C 0.08884 0.27614 0.73154 0.0
C463 C 0.10672 0.26697 0.6977 0.0
H464 H -0.04155 0.17819 0.9662 0.0
H465 H 0.04572 0.38776 0.99197 0.0
H466 H -0.00034 0.35756 1.05213 0.0
H467 H 0.93392 0.26983 1.09792 0.0
H468 H 0.84891 0.06123 1.06957 0.0
H469 H 0.89427 0.09288 1.01029 0.0
C470 C -0.03217 0.21768 0.98485 0.0
C471 C 0.00616 0.28552 0.97439 0.0
C472 C -0.05907 0.19986 1.01916 0.0
C473 C 0.01725 0.33533 0.99929 0.0
C474 C -0.00954 0.31792 1.03368 0.0
C475 C 0.92457 0.23145 1.07856 0.0
C476 C 0.88726 0.16299 1.08835 0.0
C477 C -0.0481 0.25015 1.044 0.0
C478 C 0.87706 0.11414 1.063 0.0
C479 C 0.90319 0.13218 1.02894 0.0
H480 H 0.77 0.06517 0.33267 0.0
H481 H 0.88606 -0.01464 0.2895 0.0
H482 H 0.88287 0.93416 0.34563 0.0
H483 H 0.84595 0.90843 0.40682 0.0
H484 H 0.72912 -0.01485 0.45192 0.0
H485 H 0.73449 0.04076 0.39606 0.0
C486 C 0.79544 0.03756 0.33579 0.0
C487 C 0.8282 0.02961 0.30653 0.0
C488 C 0.7931 0.00687 0.36868 0.0
C489 C 0.86013 -0.0074 0.31121 0.0
C490 C 0.85844 0.96292 0.34347 0.0
C491 C 0.82145 0.93712 0.40451 0.0
C492 C 0.78663 0.94164 0.4336 0.0
C493 C 0.82461 -0.03099 0.37229 0.0
C494 C 0.7557 -0.02023 0.42993 0.0
C495 C 0.75895 0.01202 0.39792 0.0
H496 H -0.06084 0.8662 0.63242 0.0
H497 H 0.74267 0.80428 0.67035 0.0
H498 H 0.77458 0.79269 0.73024 0.0
H499 H 0.85892 0.80018 0.77254 0.0
H500 H 0.05703 0.86899 0.73477 0.0
H501 H 0.02405 0.87752 0.67479 0.0
C502 C 0.90313 0.84978 0.65372 0.0
C503 C 0.83816 0.83537 0.64656 0.0
C504 C 0.92222 0.84428 0.68844 0.0
C505 C 0.79285 0.81548 0.67485 0.0
C506 C 0.81109 0.80872 0.70924 0.0
C507 C 0.89466 0.81643 0.75111 0.0
C508 C -0.03964 0.8331 0.7583 0.0
C509 C 0.87563 0.82276 0.71644 0.0
C510 C 0.00618 0.85553 0.73018 0.0
C511 C -0.01268 0.86046 0.69573 0.0
H512 H 0.14738 -0.02374 0.96807 0.0
H513 H 0.03065 0.76774 0.99802 0.0
H514 H 0.07573 0.79638 1.05814 0.0
H515 H 0.15055 0.88145 1.10236 0.0
H516 H 0.26145 0.0901 1.07203 0.0
H517 H 0.21689 0.06065 1.01222 0.0
C518 C 0.13155 0.93684 0.98768 0.0
C519 C 0.08576 0.86964 0.97823 0.0
C520 C 0.1572 0.95382 1.02229 0.0
C521 C 0.06563 0.81978 1.00436 0.0
C522 C 0.0917 0.83619 1.0388 0.0
C523 C 0.16528 0.92033 1.08254 0.0
C524 C 0.21034 -0.01199 1.09164 0.0
C525 C 0.13799 0.90307 1.04807 0.0
C526 C 0.2274 0.03776 1.06582 0.0
C527 C 0.20182 0.02091 1.03153 0.0
loop_
_geom_bond_atom_site_label_1
_geom_bond_atom_site_label_2
_geom_bond_distance
_geom_bond_site_symmetry_2
_ccdc_geom_bond_type
Sm0 C2 2.846 . S
Sm0 O20 2.543 . S
Sm0 O21 2.450 . S
Sm0 O22 2.681 . S
Sm0 O23 2.464 . S
Sm0 O24 2.396 . S
Sm0 O28 2.386 . S
Sm0 O31 2.408 1_554 S
Sm1 C11 2.846 . S
Sm1 O22 2.386 1_556 S
Sm1 O25 2.408 1_556 S
Sm1 O26 2.543 . S
Sm1 O27 2.450 . S
Sm1 O28 2.681 1_556 S
Sm1 O29 2.464 . S
Sm1 O30 2.396 . S
C2 Sm0 2.846 . S
C2 C3 1.506 . S
C2 O20 1.261 . S
C2 O21 1.242 . S
C3 C2 1.506 . S
C3 C4 1.358 . S
C3 C8 1.382 . S
C4 C3 1.358 . S
C4 C5 1.385 . S
C4 H32 0.930 . S
C5 C4 1.385 . S
C5 C6 1.395 . S
C5 H33 0.929 . S
C6 C5 1.395 . S
C6 C7 1.335 1_545 S
C7 C6 1.335 1_565 S
C7 C8 1.398 1_565 S
C7 H34 0.930 . S
C8 C3 1.382 . S
C8 C7 1.398 1_545 S
C8 H35 0.929 1_545 S
C9 O22 1.271 . S
C9 O23 1.251 . S
C10 O24 1.252 . S
C10 O25 1.272 . S
C11 Sm1 2.846 . S
C11 C12 1.506 . S
C11 O26 1.261 . S
C11 O27 1.242 . S
C12 C11 1.506 . S
C12 C13 1.358 . S
C12 C17 1.382 . S
C13 C12 1.358 . S
C13 C14 1.385 . S
C13 H36 0.930 . S
C14 C13 1.385 . S
C14 C15 1.395 . S
C14 H37 0.929 . S
C15 C14 1.395 . S
C15 C16 1.335 . S
C16 C15 1.335 . S
C16 C17 1.398 . S
C16 H38 0.930 . S
C17 C12 1.382 . S
C17 C16 1.398 . S
C17 H39 0.929 . S
C18 O28 1.271 . S
C18 O29 1.251 1_554 S
C19 O30 1.252 . S
C19 O31 1.272 . S
O20 Sm0 2.543 . S
O20 C2 1.261 . S
O21 Sm0 2.450 . S
O21 C2 1.242 . S
O22 Sm0 2.681 . S
O22 Sm1 2.386 1_554 S
O22 C9 1.271 . S
O23 Sm0 2.464 . S
O23 C9 1.251 . S
O24 Sm0 2.396 . S
O24 C10 1.252 . S
O25 Sm1 2.408 1_554 S
O25 C10 1.272 . S
O26 Sm1 2.543 . S
O26 C11 1.261 . S
O27 Sm1 2.450 . S
O27 C11 1.242 . S
O28 Sm0 2.386 . S
O28 Sm1 2.681 1_554 S
O28 C18 1.271 . S
O29 Sm1 2.464 . S
O29 C18 1.251 1_556 S
O30 Sm1 2.396 . S
O30 C19 1.252 . S
O31 Sm0 2.408 1_556 S
O31 C19 1.272 . S
H32 C4 0.930 . S
H33 C5 0.929 . S
H34 C7 0.930 . S
H35 C8 0.929 1_565 S
H36 C13 0.930 . S
H37 C14 0.929 . S
H38 C16 0.930 . S
H39 C17 0.929 . S
Sm40 C42 2.846 . S
Sm40 O60 2.543 . S
Sm40 O61 2.450 . S
Sm40 O62 2.681 . S
Sm40 O63 2.464 . S
Sm40 O64 2.396 . S
Sm40 O68 2.386 . S
Sm40 O71 2.408 . S
Sm41 C51 2.846 . S
Sm41 O62 2.386 . S
Sm41 O65 2.408 . S
Sm41 O66 2.543 . S
Sm41 O67 2.450 . S
Sm41 O68 2.681 . S
Sm41 O69 2.464 . S
Sm41 O70 2.396 . S
C42 Sm40 2.846 . S
C42 C43 1.506 . S
C42 O60 1.261 . S
C42 O61 1.242 . S
C43 C42 1.506 . S
C43 C44 1.358 . S
C43 C48 1.382 . S
C44 C43 1.358 . S
C44 C45 1.385 . S
C44 H72 0.930 . S
C45 C44 1.385 . S
C45 C46 1.395 . S
C45 H73 0.929 . S
C46 C45 1.395 . S
C46 C47 1.335 . S
C47 C46 1.335 . S
C47 C48 1.398 . S
C47 H74 0.930 . S
C48 C43 1.382 . S
C48 C47 1.398 . S
C48 H75 0.929 . S
C49 O62 1.271 . S
C49 O63 1.251 . S
C50 O64 1.252 . S
C50 O65 1.272 . S
C51 Sm41 2.846 . S
C51 C52 1.506 . S
C51 O66 1.261 . S
C51 O67 1.242 . S
C52 C51 1.506 . S
C52 C53 1.358 . S
C52 C57 1.382 . S
C53 C52 1.358 . S
C53 C54 1.385 . S
C53 H76 0.930 . S
C54 C53 1.385 . S
C54 C55 1.395 . S
C54 H77 0.929 . S
C55 C54 1.395 . S
C55 C56 1.335 . S
C56 C55 1.335 . S
C56 C57 1.398 . S
C56 H78 0.930 . S
C57 C52 1.382 . S
C57 C56 1.398 . S
C57 H79 0.929 . S
C58 O68 1.271 . S
C58 O69 1.251 . S
C59 O70 1.252 . S
C59 O71 1.272 . S
O60 Sm40 2.543 . S
O60 C42 1.261 . S
O61 Sm40 2.450 . S
O61 C42 1.242 . S
O62 Sm40 2.681 . S
O62 Sm41 2.386 . S
O62 C49 1.271 . S
O63 Sm40 2.464 . S
O63 C49 1.251 . S
O64 Sm40 2.396 . S
O64 C50 1.252 . S
O65 Sm41 2.408 . S
O65 C50 1.272 . S
O66 Sm41 2.543 . S
O66 C51 1.261 . S
O67 Sm41 2.450 . S
O67 C51 1.242 . S
O68 Sm40 2.386 . S
O68 Sm41 2.681 . S
O68 C58 1.271 . S
O69 Sm41 2.464 . S
O69 C58 1.251 . S
O70 Sm41 2.396 . S
O70 C59 1.252 . S
O71 Sm40 2.408 . S
O71 C59 1.272 . S
H72 C44 0.930 . S
H73 C45 0.929 . S
H74 C47 0.930 . S
H75 C48 0.929 . S
H76 C53 0.930 . S
H77 C54 0.929 . S
H78 C56 0.930 . S
H79 C57 0.929 . S
Sm80 C82 2.846 . S
Sm80 O100 2.543 . S
Sm80 O101 2.450 . S
Sm80 O102 2.681 . S
Sm80 O103 2.464 . S
Sm80 O104 2.396 1_455 S
Sm80 O108 2.386 . S
Sm80 O111 2.408 . S
Sm81 C91 2.846 . S
Sm81 O102 2.386 1_655 S
Sm81 O105 2.408 . S
Sm81 O106 2.543 . S
Sm81 O107 2.450 . S
Sm81 O108 2.681 1_655 S
Sm81 O109 2.464 . S
Sm81 O110 2.396 1_655 S
C82 Sm80 2.846 . S
C82 C83 1.506 . S
C82 O100 1.261 . S
C82 O101 1.242 . S
C83 C82 1.506 . S
C83 C84 1.358 . S
C83 C88 1.382 . S
C84 C83 1.358 . S
C84 C85 1.385 . S
C84 H112 0.930 . S
C85 C84 1.385 . S
C85 C86 1.395 . S
C85 H113 0.929 . S
C86 C85 1.395 . S
C86 C87 1.335 . S
C87 C86 1.335 . S
C87 C88 1.398 . S
C87 H114 0.930 . S
C88 C83 1.382 . S
C88 C87 1.398 . S
C88 H115 0.929 . S
C89 O102 1.271 . S
C89 O103 1.251 . S
C90 O104 1.252 . S
C90 O105 1.272 . S
C91 Sm81 2.846 . S
C91 C92 1.506 . S
C91 O106 1.261 . S
C91 O107 1.242 . S
C92 C91 1.506 . S
C92 C93 1.358 . S
C92 C97 1.382 . S
C93 C92 1.358 . S
C93 C94 1.385 . S
C93 H116 0.930 . S
C94 C93 1.385 . S
C94 C95 1.395 . S
C94 H117 0.929 . S
C95 C94 1.395 . S
C95 C96 1.335 . S
C96 C95 1.335 . S
C96 C97 1.398 . S
C96 H118 0.930 . S
C97 C92 1.382 . S
C97 C96 1.398 . S
C97 H119 0.929 . S
C98 O108 1.271 1_655 S
C98 O109 1.251 . S
C99 O110 1.252 . S
C99 O111 1.272 . S
O100 Sm80 2.543 . S
O100 C82 1.261 . S
O101 Sm80 2.450 . S
O101 C82 1.242 . S
O102 Sm80 2.681 . S
O102 Sm81 2.386 1_455 S
O102 C89 1.271 . S
O103 Sm80 2.464 . S
O103 C89 1.251 . S
O104 Sm80 2.396 1_655 S
O104 C90 1.252 . S
O105 Sm81 2.408 . S
O105 C90 1.272 . S
O106 Sm81 2.543 . S
O106 C91 1.261 . S
O107 Sm81 2.450 . S
O107 C91 1.242 . S
O108 Sm80 2.386 . S
O108 Sm81 2.681 1_455 S
O108 C98 1.271 1_455 S
O109 Sm81 2.464 . S
O109 C98 1.251 . S
O110 Sm81 2.396 1_455 S
O110 C99 1.252 . S
O111 Sm80 2.408 . S
O111 C99 1.272 . S
H112 C84 0.930 . S
H113 C85 0.929 . S
H114 C87 0.930 . S
H115 C88 0.929 . S
H116 C93 0.930 . S
H117 C94 0.929 . S
H118 C96 0.930 . S
H119 C97 0.929 . S
Sm120 C122 2.846 . S
Sm120 O140 2.543 . S
Sm120 O141 2.450 . S
Sm120 O142 2.688 . S
Sm120 O143 2.464 . S
Sm120 O144 2.396 1_545 S
Sm120 O148 2.386 . S
Sm120 O151 2.408 1_554 S
Sm121 C131 2.846 . S
Sm121 O142 2.384 1_566 S
Sm121 O145 2.408 1_556 S
Sm121 O146 2.543 . S
Sm121 O147 2.450 . S
Sm121 O148 2.681 1_566 S
Sm121 O149 2.464 . S
Sm121 O150 2.396 1_565 S
C122 Sm120 2.846 . S
C122 C123 1.506 . S
C122 O140 1.261 . S
C122 O141 1.242 . S
C123 C122 1.506 . S
C123 C124 1.358 . S
C123 C128 1.382 . S
C124 C123 1.358 . S
C124 C125 1.385 . S
C124 H152 0.930 . S
C125 C124 1.385 . S
C125 C126 1.395 . S
C125 H153 0.929 . S
C126 C125 1.395 . S
C126 C127 1.335 . S
C127 C126 1.335 . S
C127 C128 1.398 . S
C127 H154 0.930 . S
C128 C123 1.382 . S
C128 C127 1.398 . S
C128 H155 0.929 . S
C129 O142 1.271 . S
C129 O143 1.251 . S
C130 O144 1.252 . S
C130 O145 1.272 . S
C131 Sm121 2.846 . S
C131 C132 1.506 . S
C131 O146 1.261 . S
C131 O147 1.242 . S
C132 C131 1.506 . S
C132 C133 1.358 . S
C132 C137 1.382 . S
C133 C132 1.358 . S
C133 C134 1.385 . S
C133 H156 0.930 . S
C134 C133 1.385 . S
C134 C135 1.395 . S
C134 H157 0.929 . S
C135 C134 1.395 . S
C135 C136 1.335 . S
C136 C135 1.335 . S
C136 C137 1.398 . S
C136 H158 0.930 . S
C137 C132 1.382 . S
C137 C136 1.398 . S
C137 H159 0.929 . S
C138 O148 1.271 1_565 S
C138 O149 1.251 1_554 S
C139 O150 1.252 . S
C139 O151 1.272 . S
O140 Sm120 2.543 . S
O140 C122 1.261 . S
O141 Sm120 2.450 . S
O141 C122 1.242 . S
O142 Sm120 2.688 . S
O142 Sm121 2.384 1_544 S
O142 C129 1.271 . S
O143 Sm120 2.464 . S
O143 C129 1.251 . S
O144 Sm120 2.396 1_565 S
O144 C130 1.252 . S
O145 Sm121 2.408 1_554 S
O145 C130 1.272 . S
O146 Sm121 2.543 . S
O146 C131 1.261 . S
O147 Sm121 2.450 . S
O147 C131 1.242 . S
O148 Sm120 2.386 . S
O148 Sm121 2.681 1_544 S
O148 C138 1.271 1_545 S
O149 Sm121 2.464 . S
O149 C138 1.251 1_556 S
O150 Sm121 2.396 1_545 S
O150 C139 1.252 . S
O151 Sm120 2.408 1_556 S
O151 C139 1.272 . S
H152 C124 0.930 . S
H153 C125 0.929 . S
H154 C127 0.930 . S
H155 C128 0.929 . S
H156 C133 0.930 . S
H157 C134 0.929 . S
H158 C136 0.930 . S
H159 C137 0.929 . S
Sm160 C162 2.846 . S
Sm160 O180 2.543 . S
Sm160 O181 2.450 . S
Sm160 O182 2.681 . S
Sm160 O183 2.464 . S
Sm160 O184 2.396 . S
Sm160 O188 2.386 . S
Sm160 O191 2.408 . S
Sm161 C171 2.846 1_655 S
Sm161 O182 2.386 . S
Sm161 O185 2.408 . S
Sm161 O186 2.543 1_655 S
Sm161 O187 2.450 . S
Sm161 O188 2.681 . S
Sm161 O189 2.464 . S
Sm161 O190 2.396 . S
C162 Sm160 2.846 . S
C162 C163 1.506 . S
C162 O180 1.261 . S
C162 O181 1.242 . S
C163 C162 1.506 . S
C163 C164 1.358 . S
C163 C168 1.382 . S
C164 C163 1.358 . S
C164 C165 1.385 . S
C164 H192 0.930 . S
C165 C164 1.385 . S
C165 C166 1.395 . S
C165 H193 0.929 . S
C166 C165 1.395 . S
C166 C167 1.335 . S
C167 C166 1.335 . S
C167 C168 1.398 . S
C167 H194 0.930 . S
C168 C163 1.382 . S
C168 C167 1.398 . S
C168 H195 0.929 . S
C169 O182 1.271 1_455 S
C169 O183 1.251 1_455 S
C170 O184 1.252 . S
C170 O185 1.272 . S
C171 Sm161 2.846 1_455 S
C171 C172 1.506 . S
C171 O186 1.261 . S
C171 O187 1.242 1_455 S
C172 C171 1.506 . S
C172 C173 1.358 . S
C172 C177 1.382 1_455 S
C173 C172 1.358 . S
C173 C174 1.385 . S
C173 H196 0.930 . S
C174 C173 1.385 . S
C174 C175 1.395 . S
C174 H197 0.929 . S
C175 C174 1.395 . S
C175 C176 1.335 . S
C176 C175 1.335 . S
C176 C177 1.398 1_455 S
C176 H198 0.931 1_455 S
C177 C172 1.382 1_655 S
C177 C176 1.398 1_655 S
C177 H199 0.929 . S
C178 O188 1.271 . S
C178 O189 1.251 . S
C179 O190 1.252 . S
C179 O191 1.272 . S
O180 Sm160 2.543 . S
O180 C162 1.261 . S
O181 Sm160 2.450 . S
O181 C162 1.242 . S
O182 Sm160 2.681 . S
O182 Sm161 2.386 . S
O182 C169 1.271 1_655 S
O183 Sm160 2.464 . S
O183 C169 1.251 1_655 S
O184 Sm160 2.396 . S
O184 C170 1.252 . S
O185 Sm161 2.408 . S
O185 C170 1.272 . S
O186 Sm161 2.543 1_455 S
O186 C171 1.261 . S
O187 Sm161 2.450 . S
O187 C171 1.242 1_655 S
O188 Sm160 2.386 . S
O188 Sm161 2.681 . S
O188 C178 1.271 . S
O189 Sm161 2.464 . S
O189 C178 1.251 . S
O190 Sm161 2.396 . S
O190 C179 1.252 . S
O191 Sm160 2.408 . S
O191 C179 1.272 . S
H192 C164 0.930 . S
H193 C165 0.929 . S
H194 C167 0.930 . S
H195 C168 0.929 . S
H196 C173 0.930 . S
H197 C174 0.929 . S
H198 C176 0.931 1_655 S
H199 C177 0.929 . S
Sm200 C202 2.846 . S
Sm200 O220 2.543 . S
Sm200 O221 2.450 . S
Sm200 O222 2.681 . S
Sm200 O223 2.464 . S
Sm200 O224 2.396 . S
Sm200 O228 2.386 . S
Sm200 O231 2.408 . S
Sm201 C211 2.846 1_565 S
Sm201 O222 2.386 . S
Sm201 O225 2.408 . S
Sm201 O226 2.543 1_565 S
Sm201 O227 2.450 . S
Sm201 O228 2.681 . S
Sm201 O229 2.464 . S
Sm201 O230 2.396 . S
C202 Sm200 2.846 . S
C202 C203 1.506 . S
C202 O220 1.261 . S
C202 O221 1.242 . S
C203 C202 1.506 . S
C203 C204 1.358 . S
C203 C208 1.382 . S
C204 C203 1.358 . S
C204 C205 1.385 . S
C204 H232 0.930 . S
C205 C204 1.385 . S
C205 C206 1.395 . S
C205 H233 0.929 . S
C206 C205 1.395 . S
C206 C207 1.335 1_455 S
C207 C206 1.335 1_655 S
C207 C208 1.398 1_655 S
C207 H234 0.930 . S
C208 C203 1.382 . S
C208 C207 1.398 1_455 S
C208 H235 0.929 1_455 S
C209 O222 1.271 1_545 S
C209 O223 1.251 1_545 S
C210 O224 1.252 . S
C210 O225 1.272 . S
C211 Sm201 2.846 1_545 S
C211 C212 1.506 . S
C211 O226 1.261 . S
C211 O227 1.242 1_545 S
C212 C211 1.506 . S
C212 C213 1.358 . S
C212 C217 1.382 1_545 S
C213 C212 1.358 . S
C213 C214 1.385 . S
C213 H236 0.930 . S
C214 C213 1.385 . S
C214 C215 1.395 . S
C214 H237 0.929 . S
C215 C214 1.395 . S
C215 C216 1.335 . S
C216 C215 1.335 . S
C216 C217 1.398 1_545 S
C216 H238 0.930 1_545 S
C217 C212 1.382 1_565 S
C217 C216 1.398 1_565 S
C217 H239 0.929 . S
C218 O228 1.271 . S
C218 O229 1.251 . S
C219 O230 1.252 . S
C219 O231 1.272 . S
O220 Sm200 2.543 . S
O220 C202 1.261 . S
O221 Sm200 2.450 . S
O221 C202 1.242 . S
O222 Sm200 2.681 . S
O222 Sm201 2.386 . S
O222 C209 1.271 1_565 S
O223 Sm200 2.464 . S
O223 C209 1.251 1_565 S
O224 Sm200 2.396 . S
O224 C210 1.252 . S
O225 Sm201 2.408 . S
O225 C210 1.272 . S
O226 Sm201 2.543 1_545 S
O226 C211 1.261 . S
O227 Sm201 2.450 . S
O227 C211 1.242 1_565 S
O228 Sm200 2.386 . S
O228 Sm201 2.681 . S
O228 C218 1.271 . S
O229 Sm201 2.464 . S
O229 C218 1.251 . S
O230 Sm201 2.396 . S
O230 C219 1.252 . S
O231 Sm200 2.408 . S
O231 C219 1.272 . S
H232 C204 0.930 . S
H233 C205 0.929 . S
H234 C207 0.930 . S
H235 C208 0.929 1_655 S
H236 C213 0.930 . S
H237 C214 0.929 . S
H238 C216 0.930 1_565 S
H239 C217 0.929 . S
H240 C246 0.930 1_655 S
H241 C249 0.930 1_665 S
H242 C250 0.930 . S
H243 C251 0.930 . S
H244 C254 0.930 . S
H245 C255 0.930 . S
C246 H240 0.930 1_455 S
C246 C247 1.355 1_456 S
C246 C248 1.415 . S
C247 C246 1.355 1_654 S
C247 C249 1.419 1_655 S
C248 C246 1.415 . S
C248 C253 1.425 1_556 S
C248 C255 1.409 . S
C249 H241 0.930 1_445 S
C249 C247 1.419 1_455 S
C249 C250 1.362 . S
C250 H242 0.930 . S
C250 C249 1.362 . S
C250 C253 1.409 . S
C251 H243 0.930 . S
C251 C252 1.355 . S
C251 C253 1.415 . S
C252 C251 1.355 . S
C252 C254 1.419 1_554 S
C253 C248 1.425 1_554 S
C253 C250 1.409 . S
C253 C251 1.415 . S
C254 H244 0.930 . S
C254 C252 1.419 1_556 S
C254 C255 1.362 . S
C255 H245 0.930 . S
C255 C248 1.409 . S
C255 C254 1.362 . S
H256 C262 0.930 . S
H257 C265 0.930 1_655 S
H258 C266 0.930 1_655 S
H259 C267 0.930 . S
H260 C270 0.930 . S
H261 C271 0.930 . S
C262 H256 0.930 . S
C262 C263 1.355 1_545 S
C262 C264 1.415 . S
C263 C262 1.355 1_565 S
C263 C265 1.419 . S
C264 C262 1.415 . S
C264 C269 1.425 . S
C264 C271 1.409 . S
C265 H257 0.930 1_455 S
C265 C263 1.419 . S
C265 C266 1.362 1_565 S
C266 H258 0.930 1_455 S
C266 C265 1.362 1_545 S
C266 C269 1.409 . S
C267 H259 0.930 . S
C267 C268 1.355 . S
C267 C269 1.415 . S
C268 C267 1.355 . S
C268 C270 1.419 . S
C269 C264 1.425 . S
C269 C266 1.409 . S
C269 C267 1.415 . S
C270 H260 0.930 . S
C270 C268 1.419 . S
C270 C271 1.362 . S
C271 H261 0.930 . S
C271 C264 1.409 . S
C271 C270 1.362 . S
H272 C278 0.930 1_565 S
H273 C281 0.930 . S
H274 C282 0.930 . S
H275 C283 0.930 . S
H276 C286 0.930 . S
H277 C287 0.930 1_665 S
C278 H272 0.930 1_545 S
C278 C279 1.355 . S
C278 C280 1.415 . S
C279 C278 1.355 . S
C279 C281 1.419 . S
C280 C278 1.415 . S
C280 C285 1.425 . S
C280 C287 1.409 . S
C281 H273 0.930 . S
C281 C279 1.419 . S
C281 C282 1.362 . S
C282 H274 0.930 . S
C282 C281 1.362 . S
C282 C285 1.409 . S
C283 H275 0.930 . S
C283 C284 1.355 . S
C283 C285 1.415 . S
C284 C283 1.355 . S
C284 C286 1.419 1_455 S
C285 C280 1.425 . S
C285 C282 1.409 . S
C285 C283 1.415 . S
C286 H276 0.930 . S
C286 C284 1.419 1_655 S
C286 C287 1.362 1_655 S
C287 H277 0.930 1_445 S
C287 C280 1.409 . S
C287 C286 1.362 1_455 S
H288 C294 0.930 . S
H289 C297 0.930 . S
H290 C298 0.930 . S
H291 C299 0.930 . S
H292 C302 0.930 . S
H293 C303 0.930 . S
C294 H288 0.930 . S
C294 C295 1.355 . S
C294 C296 1.415 . S
C295 C294 1.355 . S
C295 C297 1.419 . S
C296 C294 1.415 . S
C296 C301 1.425 . S
C296 C303 1.409 . S
C297 H289 0.930 . S
C297 C295 1.419 . S
C297 C298 1.362 . S
C298 H290 0.930 . S
C298 C297 1.362 . S
C298 C301 1.409 . S
C299 H291 0.930 . S
C299 C300 1.355 . S
C299 C301 1.415 . S
C300 C299 1.355 . S
C300 C302 1.419 . S
C301 C296 1.425 . S
C301 C298 1.409 . S
C301 C299 1.415 . S
C302 H292 0.930 . S
C302 C300 1.419 . S
C302 C303 1.362 . S
C303 H293 0.930 . S
C303 C296 1.409 . S
C303 C302 1.362 . S
H304 C310 0.930 . S
H305 C313 0.930 . S
H306 C314 0.930 . S
H307 C315 0.930 . S
H308 C318 0.930 . S
H309 C319 0.930 . S
C310 H304 0.930 . S
C310 C311 1.355 . S
C310 C312 1.415 . S
C311 C310 1.355 . S
C311 C313 1.419 . S
C312 C310 1.415 . S
C312 C317 1.425 . S
C312 C319 1.409 1_455 S
C313 H305 0.930 . S
C313 C311 1.419 . S
C313 C314 1.362 . S
C314 H306 0.930 . S
C314 C313 1.362 . S
C314 C317 1.409 . S
C315 H307 0.930 . S
C315 C316 1.355 . S
C315 C317 1.415 1_655 S
C316 C315 1.355 . S
C316 C318 1.419 . S
C317 C312 1.425 . S
C317 C314 1.409 . S
C317 C315 1.415 1_455 S
C318 H308 0.930 . S
C318 C316 1.419 . S
C318 C319 1.362 . S
C319 H309 0.930 . S
C319 C312 1.409 1_655 S
C319 C318 1.362 . S
H320 C326 0.930 . S
H321 C329 0.930 . S
H322 C330 0.930 . S
H323 C331 0.930 . S
H324 C334 0.930 . S
H325 C335 0.930 . S
C326 H320 0.930 . S
C326 C327 1.355 . S
C326 C328 1.415 . S
C327 C326 1.355 . S
C327 C329 1.419 . S
C328 C326 1.415 . S
C328 C333 1.425 . S
C328 C335 1.409 1_545 S
C329 H321 0.930 . S
C329 C327 1.419 . S
C329 C330 1.362 . S
C330 H322 0.930 . S
C330 C329 1.362 . S
C330 C333 1.409 . S
C331 H323 0.930 . S
C331 C332 1.355 . S
C331 C333 1.415 1_565 S
C332 C331 1.355 . S
C332 C334 1.419 . S
C333 C328 1.425 . S
C333 C330 1.409 . S
C333 C331 1.415 1_545 S
C334 H324 0.930 . S
C334 C332 1.419 . S
C334 C335 1.362 . S
C335 H325 0.930 . S
C335 C328 1.409 1_565 S
C335 C334 1.362 . S
H336 C342 0.930 . S
H337 C345 0.930 . S
H338 C346 0.930 . S
H339 C347 0.930 . S
H340 C350 0.930 1_455 S
H341 C351 0.930 . S
C342 H336 0.930 . S
C342 C343 1.355 . S
C342 C344 1.415 . S
C343 C342 1.355 . S
C343 C345 1.419 . S
C344 C342 1.415 . S
C344 C349 1.425 . S
C344 C351 1.409 . S
C345 H337 0.930 . S
C345 C343 1.419 . S
C345 C346 1.362 . S
C346 H338 0.930 . S
C346 C345 1.362 . S
C346 C349 1.409 . S
C347 H339 0.930 . S
C347 C348 1.355 . S
C347 C349 1.415 . S
C348 C347 1.355 . S
C348 C350 1.419 . S
C349 C344 1.425 . S
C349 C346 1.409 . S
C349 C347 1.415 . S
C350 H340 0.930 1_655 S
C350 C348 1.419 . S
C350 C351 1.362 . S
C351 H341 0.930 . S
C351 C344 1.409 . S
C351 C350 1.362 . S
H352 C358 0.930 . S
H353 C361 0.930 . S
H354 C362 0.930 . S
H355 C363 0.930 . S
H356 C366 0.930 1_545 S
H357 C367 0.930 . S
C358 H352 0.930 . S
C358 C359 1.355 . S
C358 C360 1.415 . S
C359 C358 1.355 . S
C359 C361 1.419 . S
C360 C358 1.415 . S
C360 C365 1.425 . S
C360 C367 1.409 . S
C361 H353 0.930 . S
C361 C359 1.419 . S
C361 C362 1.362 . S
C362 H354 0.930 . S
C362 C361 1.362 . S
C362 C365 1.409 . S
C363 H355 0.930 . S
C363 C364 1.355 . S
C363 C365 1.415 . S
C364 C363 1.355 . S
C364 C366 1.419 . S
C365 C360 1.425 . S
C365 C362 1.409 . S
C365 C363 1.415 . S
C366 H356 0.930 1_565 S
C366 C364 1.419 . S
C366 C367 1.362 . S
C367 H357 0.930 . S
C367 C360 1.409 . S
C367 C366 1.362 . S
H368 C374 0.930 . S
H369 C377 0.930 . S
H370 C378 0.930 . S
H371 C379 0.930 . S
H372 C382 0.930 . S
H373 C383 0.930 . S
C374 H368 0.930 . S
C374 C375 1.355 . S
C374 C376 1.415 . S
C375 C374 1.355 . S
C375 C377 1.419 . S
C376 C374 1.415 . S
C376 C381 1.425 . S
C376 C383 1.409 . S
C377 H369 0.930 . S
C377 C375 1.419 . S
C377 C378 1.362 . S
C378 H370 0.930 . S
C378 C377 1.362 . S
C378 C381 1.409 . S
C379 H371 0.930 . S
C379 C380 1.355 . S
C379 C381 1.415 . S
C380 C379 1.355 . S
C380 C382 1.419 . S
C381 C376 1.425 . S
C381 C378 1.409 . S
C381 C379 1.415 . S
C382 H372 0.930 . S
C382 C380 1.419 . S
C382 C383 1.362 . S
C383 H373 0.930 . S
C383 C376 1.409 . S
C383 C382 1.362 . S
H384 C390 0.930 . S
H385 C393 0.930 . S
H386 C394 0.930 . S
H387 C395 0.930 . S
H388 C398 0.930 . S
H389 C399 0.930 1_565 S
C390 H384 0.930 . S
C390 C391 1.355 . S
C390 C392 1.415 . S
C391 C390 1.355 . S
C391 C393 1.419 . S
C392 C390 1.415 . S
C392 C397 1.425 . S
C392 C399 1.409 . S
C393 H385 0.930 . S
C393 C391 1.419 . S
C393 C394 1.362 . S
C394 H386 0.930 . S
C394 C393 1.362 . S
C394 C397 1.409 . S
C395 H387 0.930 . S
C395 C396 1.355 . S
C395 C397 1.415 . S
C396 C395 1.355 . S
C396 C398 1.419 1_545 S
C397 C392 1.425 . S
C397 C394 1.409 . S
C397 C395 1.415 . S
C398 H388 0.930 . S
C398 C396 1.419 1_565 S
C398 C399 1.362 1_565 S
C399 H389 0.930 1_545 S
C399 C392 1.409 . S
C399 C398 1.362 1_545 S
H400 C406 0.930 . S
H401 C409 0.930 . S
H402 C410 0.930 . S
H403 C411 0.930 . S
H404 C414 0.930 . S
H405 C415 0.930 . S
C406 H400 0.930 . S
C406 C407 1.355 . S
C406 C408 1.415 . S
C407 C406 1.355 . S
C407 C409 1.419 . S
C408 C406 1.415 . S
C408 C413 1.425 . S
C408 C415 1.409 . S
C409 H401 0.930 . S
C409 C407 1.419 . S
C409 C410 1.362 . S
C410 H402 0.930 . S
C410 C409 1.362 . S
C410 C413 1.409 . S
C411 H403 0.930 . S
C411 C412 1.355 . S
C411 C413 1.415 . S
C412 C411 1.355 . S
C412 C414 1.419 . S
C413 C408 1.425 . S
C413 C410 1.409 . S
C413 C411 1.415 . S
C414 H404 0.930 . S
C414 C412 1.419 . S
C414 C415 1.362 . S
C415 H405 0.930 . S
C415 C408 1.409 . S
C415 C414 1.362 . S
H416 C422 0.930 1_655 S
H417 C425 0.930 . S
H418 C426 0.930 . S
H419 C427 0.930 . S
H420 C430 0.930 . S
H421 C431 0.930 . S
C422 H416 0.930 1_455 S
C422 C423 1.355 . S
C422 C424 1.415 . S
C423 C422 1.355 . S
C423 C425 1.419 . S
C424 C422 1.415 . S
C424 C429 1.425 . S
C424 C431 1.409 . S
C425 H417 0.930 . S
C425 C423 1.419 . S
C425 C426 1.362 . S
C426 H418 0.930 . S
C426 C425 1.362 . S
C426 C429 1.409 . S
C427 H419 0.930 . S
C427 C428 1.355 . S
C427 C429 1.415 . S
C428 C427 1.355 . S
C428 C430 1.419 . S
C429 C424 1.425 . S
C429 C426 1.409 . S
C429 C427 1.415 . S
C430 H420 0.930 . S
C430 C428 1.419 . S
C430 C431 1.362 . S
C431 H421 0.930 . S
C431 C424 1.409 . S
C431 C430 1.362 . S
H432 C438 0.930 . S
H433 C441 0.930 . S
H434 C442 0.930 . S
H435 C443 0.930 . S
H436 C446 0.930 . S
H437 C447 0.930 . S
C438 H432 0.930 . S
C438 C439 1.355 . S
C438 C440 1.415 . S
C439 C438 1.355 . S
C439 C441 1.419 . S
C440 C438 1.415 . S
C440 C445 1.425 . S
C440 C447 1.409 . S
C441 H433 0.930 . S
C441 C439 1.419 . S
C441 C442 1.362 . S
C442 H434 0.930 . S
C442 C441 1.362 . S
C442 C445 1.409 . S
C443 H435 0.930 . S
C443 C444 1.355 . S
C443 C445 1.415 . S
C444 C443 1.355 . S
C444 C446 1.419 . S
C445 C440 1.425 . S
C445 C442 1.409 . S
C445 C443 1.415 . S
C446 H436 0.930 . S
C446 C444 1.419 . S
C446 C447 1.362 . S
C447 H437 0.930 . S
C447 C440 1.409 . S
C447 C446 1.362 . S
H448 C454 0.930 . S
H449 C457 0.930 . S
H450 C458 0.930 . S
H451 C459 0.930 . S
H452 C462 0.930 . S
H453 C463 0.930 . S
C454 H448 0.930 . S
C454 C455 1.355 . S
C454 C456 1.415 . S
C455 C454 1.355 . S
C455 C457 1.419 . S
C456 C454 1.415 . S
C456 C461 1.425 . S
C456 C463 1.409 . S
C457 H449 0.930 . S
C457 C455 1.419 . S
C457 C458 1.362 . S
C458 H450 0.930 . S
C458 C457 1.362 . S
C458 C461 1.409 . S
C459 H451 0.930 . S
C459 C460 1.355 . S
C459 C461 1.415 . S
C460 C459 1.355 . S
C460 C462 1.419 . S
C461 C456 1.425 . S
C461 C458 1.409 . S
C461 C459 1.415 . S
C462 H452 0.930 . S
C462 C460 1.419 . S
C462 C463 1.362 . S
C463 H453 0.930 . S
C463 C456 1.409 . S
C463 C462 1.362 . S
H464 C470 0.930 . S
H465 C473 0.930 . S
H466 C474 0.930 1_455 S
H467 C475 0.930 . S
H468 C478 0.930 . S
H469 C479 0.930 . S
C470 H464 0.930 . S
C470 C471 1.355 . S
C470 C472 1.415 . S
C471 C470 1.355 . S
C471 C473 1.419 . S
C472 C470 1.415 . S
C472 C477 1.425 . S
C472 C479 1.409 . S
C473 H465 0.930 . S
C473 C471 1.419 . S
C473 C474 1.362 . S
C474 H466 0.930 1_655 S
C474 C473 1.362 . S
C474 C477 1.409 . S
C475 H467 0.930 . S
C475 C476 1.355 . S
C475 C477 1.415 . S
C476 C475 1.355 . S
C476 C478 1.419 . S
C477 C472 1.425 . S
C477 C474 1.409 . S
C477 C475 1.415 . S
C478 H468 0.930 . S
C478 C476 1.419 . S
C478 C479 1.362 . S
C479 H469 0.930 . S
C479 C472 1.409 . S
C479 C478 1.362 . S
H480 C486 0.930 . S
H481 C489 0.930 . S
H482 C490 0.930 . S
H483 C491 0.930 . S
H484 C494 0.930 . S
H485 C495 0.930 . S
C486 H480 0.930 . S
C486 C487 1.355 . S
C486 C488 1.415 . S
C487 C486 1.355 . S
C487 C489 1.419 . S
C488 C486 1.415 . S
C488 C493 1.425 . S
C488 C495 1.409 . S
C489 H481 0.930 . S
C489 C487 1.419 . S
C489 C490 1.362 . S
C490 H482 0.930 . S
C490 C489 1.362 . S
C490 C493 1.409 . S
C491 H483 0.930 . S
C491 C492 1.355 . S
C491 C493 1.415 . S
C492 C491 1.355 . S
C492 C494 1.419 . S
C493 C488 1.425 . S
C493 C490 1.409 . S
C493 C491 1.415 . S
C494 H484 0.930 . S
C494 C492 1.419 . S
C494 C495 1.362 . S
C495 H485 0.930 . S
C495 C488 1.409 . S
C495 C494 1.362 . S
H496 C502 0.930 . S
H497 C505 0.930 . S
H498 C506 0.930 . S
H499 C507 0.930 1_655 S
H500 C510 0.930 . S
H501 C511 0.930 . S
C502 H496 0.930 . S
C502 C503 1.355 . S
C502 C504 1.415 . S
C503 C502 1.355 . S
C503 C505 1.419 1_455 S
C504 C502 1.415 . S
C504 C509 1.425 . S
C504 C511 1.409 . S
C505 H497 0.930 . S
C505 C503 1.419 1_655 S
C505 C506 1.362 . S
C506 H498 0.930 . S
C506 C505 1.362 . S
C506 C509 1.409 1_655 S
C507 H499 0.930 1_455 S
C507 C508 1.355 . S
C507 C509 1.415 . S
C508 C507 1.355 . S
C508 C510 1.419 . S
C509 C504 1.425 . S
C509 C506 1.409 1_455 S
C509 C507 1.415 . S
C510 H500 0.930 . S
C510 C508 1.419 . S
C510 C511 1.362 . S
C511 H501 0.930 . S
C511 C504 1.409 . S
C511 C510 1.362 . S
H512 C518 0.930 . S
H513 C521 0.930 . S
H514 C522 0.930 . S
H515 C523 0.930 . S
H516 C526 0.930 . S
H517 C527 0.930 . S
C518 H512 0.930 . S
C518 C519 1.355 . S
C518 C520 1.415 . S
C519 C518 1.355 . S
C519 C521 1.419 1_545 S
C520 C518 1.415 . S
C520 C525 1.425 . S
C520 C527 1.409 . S
C521 H513 0.930 . S
C521 C519 1.419 1_565 S
C521 C522 1.362 . S
C522 H514 0.930 . S
C522 C521 1.362 . S
C522 C525 1.409 1_565 S
C523 H515 0.930 . S
C523 C524 1.355 . S
C523 C525 1.415 . S
C524 C523 1.355 . S
C524 C526 1.419 . S
C525 C520 1.425 . S
C525 C522 1.409 1_545 S
C525 C523 1.415 . S
C526 H516 0.930 . S
C526 C524 1.419 . S
C526 C527 1.362 . S
C527 H517 0.930 . S
C527 C520 1.409 . S
C527 C526 1.362 . S
C247 C129 0.896 . S
C252 C9 0.930 . S
C263 C169 0.730 . S
C268 C49 0.722 . S
C279 C209 0.931 . S
C284 C89 0.927 . S
C295 C15 0.880 . S
C300 C86 0.854 . S
C311 C55 0.837 . S
C316 C126 0.951 . S
C327 C95 0.809 . S
C332 C166 0.918 . S
C343 C135 0.886 . S
C348 C206 0.858 1_655 S
C359 C175 0.942 . S
C364 C6 0.902 1_565 S
C375 C215 0.805 . S
C380 C46 0.912 . S
C391 C18 1.419 . S
C396 C138 1.408 1_545 S
C407 C58 1.421 . S
C412 C178 1.402 . S
C423 C98 1.349 1_455 S
C428 C218 1.361 . S
C439 C10 4.112 . S
C444 C59 4.182 . S
C455 C50 4.135 . S
C460 C99 4.186 . S
C471 C90 4.115 . S
C476 C139 4.178 . S
C487 C130 4.112 . S
C492 C179 4.183 . S
C503 C170 4.135 1_455 S
C508 C219 4.186 . S
C519 C210 4.135 1_545 S
C524 C19 4.188 . S
