# Generated by pormake.
# Topology snp, (6)-cn, num edge types: 1
# Building blocks:
#     Node 0, Type 0, BuildingBlock: JUFBIX_clean_sbu_0, # of connection points: 6
#     Node 1, Type 0, BuildingBlock: JUFBIX_clean_sbu_0, # of connection points: 6
#     Node 2, Type 0, BuildingBlock: JUFBIX_clean_sbu_0, # of connection points: 6
#     Node 3, Type 0, BuildingBlock: JUFBIX_clean_sbu_0, # of connection points: 6
#     Edge 4, Type (0, 0), BuildingBlock: UVAHIK_clean_linker_0, # of connection points: 2
#     Edge 5, Type (0, 0), BuildingBlock: UVAHIK_clean_linker_0, # of connection points: 2
#     Edge 6, Type (0, 0), BuildingBlock: UVAHIK_clean_linker_0, # of connection points: 2
#     Edge 7, Type (0, 0), BuildingBlock: UVAHIK_clean_linker_0, # of connection points: 2
#     Edge 8, Type (0, 0), BuildingBlock: UVAHIK_clean_linker_0, # of connection points: 2
#     Edge 9, Type (0, 0), BuildingBlock: UVAHIK_clean_linker_0, # of connection points: 2
#     Edge 10, Type (0, 0), BuildingBlock: UVAHIK_clean_linker_0, # of connection points: 2
#     Edge 11, Type (0, 0), BuildingBlock: UVAHIK_clean_linker_0, # of connection points: 2
#     Edge 12, Type (0, 0), BuildingBlock: UVAHIK_clean_linker_0, # of connection points: 2
#     Edge 13, Type (0, 0), BuildingBlock: UVAHIK_clean_linker_0, # of connection points: 2
#     Edge 14, Type (0, 0), BuildingBlock: UVAHIK_clean_linker_0, # of connection points: 2
#     Edge 15, Type (0, 0), BuildingBlock: UVAHIK_clean_linker_0, # of connection points: 2
# Relax obj value: 0.703
# Max RMSD: 0.263
# Mean RMSD: 0.261
data_MOF--net-snp--node1-JUFBIX_clean_sbu_0--edge1-UVAHIK_clean_linker_0
_symmetry_space_group_name_H-M    P1
_symmetry_Int_Tables_number       1
_symmetry_cell_setting            triclinic
loop_
_symmetry_equiv_pos_as_xyz
'x, y, z'
_cell_length_a     34.009968
_cell_length_b     33.681665
_cell_length_c     34.666202
_cell_angle_alpha  89.401038
_cell_angle_beta   96.332181
_cell_angle_gamma 96.317658
loop_
_atom_site_label
_atom_site_type_symbol
_atom_site_fract_x
_atom_site_fract_y
_atom_site_fract_z
_atom_type_partial_charge
Co0 Co 0.24565 0.08713 0.05946 0.0
C1 C 0.30875 0.04672 0.04656 0.0
Co2 Co 0.23 0.03964 0.01507 0.0
C3 C 0.23813 0.1329 0.12747 0.0
C4 C 0.28934 0.15515 0.09985 0.0
N5 N 0.25804 0.12668 0.09689 0.0
N6 N 0.2558 0.16402 0.14962 0.0
C7 C 0.28806 0.17812 0.13218 0.0
H8 H 0.21161 0.11427 0.13376 0.0
H9 H 0.31178 0.15879 0.0799 0.0
C10 C 0.16654 0.07818 0.03057 0.0
N11 N 0.21801 -0.00023 0.97735 0.0
C12 C 0.19858 0.001 0.94116 0.0
C13 C 0.23011 0.96295 0.98036 0.0
N14 N 0.1986 0.96652 0.92142 0.0
C15 C 0.21836 0.94257 0.94614 0.0
C16 C 0.21668 0.01426 0.0896 0.0
O17 O 0.19302 0.09959 0.05219 0.0
O18 O 0.17708 0.05188 0.00893 0.0
O19 O 0.21554 0.00189 0.05484 0.0
O20 O 0.23072 0.05003 0.09781 0.0
O21 O 0.28323 0.02759 0.02215 0.0
H22 H 0.24702 0.95185 0.00568 0.0
H23 H 0.18571 0.02706 0.92916 0.0
O24 O 0.29826 0.07409 0.06679 0.0
O25 O 0.25965 0.12396 0.0212 0.0
O26 O 0.24372 0.07791 0.97624 0.0
C27 C 0.25658 0.11379 0.98582 0.0
H28 H 0.30923 0.20332 0.14192 0.0
H29 H 0.22382 0.91233 0.93999 0.0
Co30 Co 0.04225 0.23861 0.64966 0.0
C31 C 0.03967 0.30873 0.60781 0.0
Co32 Co 0.09131 0.25106 0.61284 0.0
C33 C 0.00334 0.20964 0.71659 0.0
C34 C 0.96515 0.2407 0.67652 0.0
N35 N 0.00205 0.22902 0.68215 0.0
N36 N 0.96888 0.2091 0.73269 0.0
C37 C 0.94483 0.22873 0.70761 0.0
H38 H 0.02925 0.19668 0.72995 0.0
H39 H 0.95366 0.25686 0.65138 0.0
C40 C 0.0943 0.18098 0.65443 0.0
N41 N 0.13148 0.25972 0.58064 0.0
C42 C 0.12725 0.26119 0.5415 0.0
C43 C 0.17098 0.26049 0.59074 0.0
N44 N 0.1624 0.26203 0.52662 0.0
C45 C 0.19005 0.26196 0.55765 0.0
C46 C 0.11066 0.28249 0.68575 0.0
O47 O 0.06229 0.19038 0.66576 0.0
O48 O 0.11227 0.20406 0.63132 0.0
O49 O 0.1231 0.28041 0.65273 0.0
O50 O 0.07599 0.26615 0.6907 0.0
O51 O 0.07021 0.29801 0.59448 0.0
H52 H 0.18485 0.25798 0.62016 0.0
H53 H 0.09867 0.26026 0.52421 0.0
O54 O 0.02302 0.28715 0.63295 0.0
O55 O 0.00874 0.21066 0.60784 0.0
O56 O 0.05901 0.22106 0.57322 0.0
C57 C 0.02365 0.20596 0.57629 0.0
H58 H 0.91447 0.23348 0.7112 0.0
H59 H 0.22156 0.26062 0.55658 0.0
Co60 Co 0.78547 0.9787 0.12482 0.0
C61 C 0.84336 0.92661 0.13214 0.0
Co62 Co 0.77515 0.9291 0.0822 0.0
C63 C 0.81262 0.02051 0.19758 0.0
C64 C 0.78737 0.05842 0.15386 0.0
N65 N 0.79528 0.02047 0.16052 0.0
N66 N 0.81607 0.05708 0.21424 0.0
C67 C 0.79995 0.08087 0.18668 0.0
H68 H 0.82345 -0.00563 0.21164 0.0
H69 H 0.77373 0.06923 0.12667 0.0
C70 C 0.71646 0.98037 0.07611 0.0
N71 N 0.76481 0.88753 0.04656 0.0
C72 C 0.78608 0.87915 0.01759 0.0
C73 C 0.73197 0.86091 0.04215 0.0
N74 N 0.76761 0.8487 0.995 0.0
C75 C 0.73364 0.83702 0.01062 0.0
C76 C 0.74294 0.91125 0.15121 0.0
O77 O 0.7381 -0.00179 0.10421 0.0
O78 O 0.72726 0.94927 0.06183 0.0
O79 O 0.74746 0.89796 0.11807 0.0
O80 O 0.75721 0.94679 0.16052 0.0
O81 O 0.82301 0.909 0.10303 0.0
H82 H 0.70765 0.85976 0.05991 0.0
H83 H 0.81371 0.89631 0.0121 0.0
O84 O 0.83244 0.9582 0.14529 0.0
O85 O 0.81402 0.01052 0.0884 0.0
O86 O 0.80339 0.96092 0.04673 0.0
C87 C 0.81834 -0.00366 0.05541 0.0
H88 H 0.79735 0.11237 0.1898 0.0
H89 H 0.7111 0.81344 0.99966 0.0
Co90 Co 0.92205 0.77813 0.5238 0.0
C91 C 0.93596 0.85099 0.4884 0.0
Co92 Co 0.97099 0.78108 0.48649 0.0
C93 C 0.88582 0.77083 0.595 0.0
C94 C 0.84429 0.78442 0.54705 0.0
N95 N 0.88218 0.77643 0.55624 0.0
N96 N 0.85194 0.77553 0.61053 0.0
C97 C 0.8256 0.78381 0.58034 0.0
H98 H 0.91319 0.76435 0.61165 0.0
H99 H 0.83155 0.79183 0.51824 0.0
C100 C 0.958 0.70866 0.52323 0.0
N101 N 0.01083 0.78376 0.4533 0.0
C102 C 0.01251 0.80503 0.42008 0.0
C103 C 0.04408 0.76496 0.45681 0.0
N104 N 0.04536 0.80026 0.40274 0.0
C105 C 0.06525 0.77491 0.42572 0.0
C106 C -0.00389 0.80771 0.5615 0.0
O107 O 0.93164 0.72554 0.53815 0.0
O108 O 0.97881 0.72783 0.49946 0.0
O109 O 0.00947 0.80052 0.52961 0.0
O110 O 0.95934 0.79916 0.56449 0.0
O111 O 0.96268 0.83403 0.47434 0.0
H112 H 0.05257 0.74549 0.48057 0.0
H113 H -0.01016 0.82348 0.40859 0.0
O114 O 0.91292 0.83086 0.50959 0.0
O115 O 0.88514 0.75777 0.48297 0.0
O116 O 0.9323 0.76247 0.44432 0.0
C117 C 0.8959 0.75354 0.44956 0.0
H118 H 0.79563 0.79093 0.58235 0.0
H119 H 0.09355 0.76503 0.42092 0.0
C120 C 0.9053 0.89745 0.12203 0.0
C121 C 0.88251 0.91493 0.14709 0.0
C122 C 0.94668 0.90239 0.12931 0.0
C123 C 0.00261 0.99234 0.16058 0.0
H124 H 0.07891 0.95025 0.10145 0.0
C125 C 0.11999 0.08815 0.07874 0.0
C126 C 0.12628 0.07179 0.04297 0.0
C127 C 0.09464 0.06696 0.10254 0.0
C128 C 0.0578 0.96232 0.1181 0.0
H129 H 0.88343 0.94206 0.20368 0.0
H130 H 0.9557 0.95032 0.21649 0.0
H131 H 0.0335 0.9042 0.13501 0.0
H132 H 0.10396 0.02584 1.00022 0.0
H133 H 0.05836 0.98994 0.04107 0.0
H134 H 0.02486 0.05015 0.14141 0.0
C135 C 0.94206 0.93413 0.19071 0.0
C136 C 0.03236 0.93605 0.13777 0.0
C137 C 0.90071 0.92967 0.18323 0.0
C138 C 0.1007 0.03857 0.02812 0.0
C139 C 0.07533 0.01746 0.05186 0.0
C140 C 0.02799 0.0185 0.14093 0.0
C141 C 0.96522 0.925 0.16157 0.0
C142 C 0.00253 0.95069 0.15677 0.0
C143 C 0.07449 0.02994 0.09025 0.0
C144 C 0.05384 0.00345 0.11747 0.0
H145 H 0.8918 0.88502 0.09437 0.0
H146 H 0.96363 0.89411 0.10655 0.0
H147 H 0.98003 0.00485 0.17488 0.0
H148 H 0.13852 0.11433 0.0907 0.0
H149 H 0.09354 0.07781 0.13166 0.0
C150 C 0.9729 0.91585 0.47417 0.0
C151 C 0.94166 0.89478 0.49188 0.0
C152 C -0.0048 0.94863 0.493 0.0
C153 C 0.03802 0.01873 0.54182 0.0
H154 H 0.05672 0.98648 0.64968 0.0
C155 C 0.07845 0.11183 0.67749 0.0
C156 C 0.10435 0.13972 0.65956 0.0
C157 C 0.07293 0.07228 0.66491 0.0
C158 C 0.05222 -0.00453 0.61955 0.0
H159 H 0.9026 0.89748 0.53706 0.0
H160 H 0.9409 0.95531 0.56923 0.0
H161 H 0.00814 0.94616 0.60496 0.0
H162 H 0.15297 0.14647 0.62353 0.0
H163 H 0.14334 0.07739 0.60177 0.0
H164 H 0.0807 0.06884 0.5564 0.0
C165 C 0.94967 0.94506 0.54225 0.0
C166 C 0.024 0.97288 0.59415 0.0
C167 C 0.92737 0.91233 0.52341 0.0
C168 C 0.13152 0.12583 0.63655 0.0
C169 C 0.12605 0.08621 0.62405 0.0
C170 C 0.06613 0.04138 0.56719 0.0
C171 C 0.98566 0.96096 0.52903 0.0
C172 C 0.01586 0.98501 0.55539 0.0
C173 C 0.09346 0.06073 0.63457 0.0
C174 C 0.07271 0.03062 0.60659 0.0
H175 H 0.98385 0.90362 0.44912 0.0
H176 H 0.02235 0.96107 0.48168 0.0
H177 H 0.03253 0.02845 0.51201 0.0
H178 H 0.05819 0.12149 0.69661 0.0
H179 H 0.04826 0.05297 0.67447 0.0
C180 C 0.66632 0.02844 0.07867 0.0
C181 C 0.67727 -0.00662 0.06326 0.0
C182 C 0.62714 0.0373 0.0723 0.0
C183 C 0.53015 0.01246 0.015 0.0
H184 H 0.48903 0.03429 0.11177 0.0
C185 C 0.36242 0.00832 0.02782 0.0
C186 C 0.35074 0.03923 0.04937 0.0
C187 C 0.40259 0.00324 0.02824 0.0
C188 C 0.50014 0.02873 0.08444 0.0
H189 H 0.65672 0.94177 0.02656 0.0
H190 H 0.58795 0.95726 0.01563 0.0
H191 H 0.55947 0.02766 0.11157 0.0
H192 H 0.37174 0.08872 0.08865 0.0
H193 H 0.44179 0.08013 0.08901 0.0
H194 H 0.47062 0.01351 0.9879 0.0
C195 C 0.60975 0.97781 0.03257 0.0
C196 C 0.54044 0.02503 0.0843 0.0
C197 C 0.64904 0.96892 0.03893 0.0
C198 C 0.37983 0.06447 0.07192 0.0
C199 C 0.41995 0.0595 0.0722 0.0
C200 C 0.48974 0.01638 0.01509 0.0
C201 C 0.59825 0.01128 0.05043 0.0
C202 C 0.55581 0.0169 0.04961 0.0
C203 C 0.43174 0.02905 0.05013 0.0
C204 C 0.47439 0.02451 0.04985 0.0
H205 H 0.68759 0.04816 0.0971 0.0
H206 H 0.61908 0.06372 0.08572 0.0
H207 H 0.54139 0.00628 0.98789 0.0
H208 H 0.3406 0.98832 0.01026 0.0
H209 H 0.41083 0.97911 0.01147 0.0
C210 C 0.04331 0.37083 0.56795 0.0
C211 C 0.02462 0.34669 0.59536 0.0
C212 C 0.03083 0.408 0.55808 0.0
C213 C 0.98254 0.48736 0.59797 0.0
H214 H 0.97895 0.52839 0.49284 0.0
C215 C 0.93919 0.6446 0.55701 0.0
C216 C 0.96324 0.66659 0.53207 0.0
C217 C 0.94306 0.60426 0.56393 0.0
C218 C 0.98006 0.51735 0.52236 0.0
H219 H 0.97726 0.34182 0.6329 0.0
H220 H 0.95537 0.40683 0.61545 0.0
H221 H -0.00926 0.45901 0.50523 0.0
H222 H 0.01056 0.66383 0.49527 0.0
H223 H 0.0176 0.59362 0.50778 0.0
H224 H 0.97261 0.54589 0.61522 0.0
C225 C 0.97997 0.39712 0.602 0.0
C226 C 0.98673 0.47771 0.52942 0.0
C227 C -0.00759 0.35989 0.61185 0.0
C228 C -0.00849 0.64765 0.51454 0.0
C229 C -0.00468 0.60737 0.52144 0.0
C230 C 0.97587 0.52702 0.59091 0.0
C231 C -0.00057 0.42174 0.57544 0.0
C232 C 0.98865 0.46253 0.56737 0.0
C233 C 0.97098 0.58524 0.54599 0.0
C234 C 0.97522 0.54254 0.55313 0.0
H235 H 0.06817 0.36143 0.55469 0.0
H236 H 0.04667 0.42655 0.53784 0.0
H237 H 0.98439 0.47658 0.6276 0.0
H238 H 0.91706 0.65838 0.57086 0.0
H239 H 0.92376 0.58781 0.58282 0.0
C240 C 0.13811 0.23961 0.45953 0.0
C241 C 0.16861 0.2579 0.48639 0.0
C242 C 0.14505 0.2329 0.42128 0.0
C243 C 0.21473 0.26178 0.34804 0.0
H244 H 0.17375 0.15835 0.30339 0.0
C245 C 0.27163 0.1991 0.21275 0.0
C246 C 0.24374 0.17799 0.18528 0.0
C247 C 0.26032 0.21145 0.24785 0.0
C248 C 0.18493 0.18759 0.31519 0.0
H249 H 0.22991 0.28472 0.49346 0.0
H250 H 0.24229 0.27222 0.42702 0.0
H251 H 0.15787 0.17558 0.36751 0.0
H252 H 0.18162 0.1545 0.17297 0.0
H253 H 0.16202 0.17579 0.23436 0.0
H254 H 0.24241 0.27339 0.29589 0.0
C255 C 0.21286 0.26342 0.43545 0.0
C256 C 0.17581 0.19751 0.35196 0.0
C257 C 0.2059 0.27019 0.47371 0.0
C258 C 0.20408 0.17004 0.19364 0.0
C259 C 0.1928 0.18231 0.22883 0.0
C260 C 0.22394 0.25181 0.31128 0.0
C261 C 0.18266 0.24421 0.40891 0.0
C262 C 0.19084 0.2346 0.36897 0.0
C263 C 0.22085 0.20294 0.25644 0.0
C264 C 0.20942 0.21446 0.29458 0.0
H265 H 0.10914 0.22929 0.4682 0.0
H266 H 0.12097 0.2185 0.40147 0.0
H267 H 0.22627 0.29084 0.36002 0.0
H268 H 0.30251 0.20527 0.20766 0.0
H269 H 0.28279 0.22675 0.26874 0.0
C270 C 0.93566 0.20919 0.79246 0.0
C271 C 0.95912 0.19075 0.76865 0.0
C272 C 0.92449 0.19067 0.82649 0.0
C273 C 0.94442 0.10532 0.89406 0.0
H274 H 0.84032 0.12112 0.92308 0.0
C275 C 0.85616 0.00191 0.99728 0.0
C276 C 0.8397 0.02068 0.0268 0.0
C277 C 0.87448 0.02452 0.96884 0.0
C278 C 0.86964 0.11677 0.91555 0.0
H279 H -0.01055 0.13855 0.76172 0.0
H280 H 0.96858 0.10512 0.82005 0.0
H281 H 0.8644 0.1562 0.86716 0.0
H282 H 0.82995 0.07789 0.04992 0.0
H283 H 0.86095 0.11746 0.99926 0.0
H284 H 0.94821 0.06401 0.9416 0.0
C285 C 0.95977 0.13455 0.81343 0.0
C286 C 0.88368 0.13706 0.88354 0.0
C287 C 0.97164 0.15356 0.77979 0.0
C288 C 0.84245 0.06262 0.02759 0.0
C289 C 0.86002 0.08522 0.99858 0.0
C290 C 0.92995 0.0844 0.92563 0.0
C291 C 0.9357 0.15268 0.83719 0.0
C292 C 0.9213 0.13167 0.87218 0.0
C293 C 0.87601 0.06635 0.96881 0.0
C294 C 0.8924 0.08991 0.93664 0.0
H295 H 0.92613 0.23815 0.7848 0.0
H296 H 0.907 0.20631 0.84433 0.0
H297 H 0.97381 0.10082 0.88695 0.0
H298 H 0.85466 0.96965 0.996 0.0
H299 H 0.88634 0.00922 0.9461 0.0
C300 C 0.87438 0.74832 0.37836 0.0
C301 C 0.86526 0.74303 0.41668 0.0
C302 C 0.84388 0.74732 0.34784 0.0
C303 C 0.77436 0.74292 0.28572 0.0
H304 H 0.70462 0.81906 0.31375 0.0
C305 C 0.71328 0.84367 0.16986 0.0
C306 C 0.72729 0.88337 0.18037 0.0
C307 C 0.70951 0.81428 0.1983 0.0
C308 C 0.72326 0.79721 0.30544 0.0
H309 H 0.81747 0.72772 0.45272 0.0
H310 H 0.76434 0.72585 0.39935 0.0
H311 H 0.74192 0.78379 0.36444 0.0
H312 H 0.74295 0.92443 0.22876 0.0
H313 H 0.73706 0.87336 0.27821 0.0
H314 H 0.75888 0.75936 0.22693 0.0
C315 C 0.79492 0.73155 0.39297 0.0
C316 C 0.74444 0.77666 0.33448 0.0
C317 C 0.8254 0.73264 0.4235 0.0
C318 C 0.73254 0.89403 0.21975 0.0
C319 C 0.72885 0.86464 0.24817 0.0
C320 C 0.75329 0.76355 0.25669 0.0
C321 C 0.80374 0.74086 0.35511 0.0
C322 C 0.77219 0.75132 0.32494 0.0
C323 C 0.71974 0.82413 0.23764 0.0
C324 C 0.72961 0.79289 0.26644 0.0
H325 H 0.90481 0.75613 0.37218 0.0
H326 H 0.85178 0.75494 0.31904 0.0
H327 H 0.7949 0.72292 0.27752 0.0
H328 H 0.7082 0.83467 0.13965 0.0
H329 H 0.70163 0.78345 0.18936 0.0
C330 C 0.00305 0.85364 0.61796 0.0
C331 C 0.02109 0.82905 0.59426 0.0
C332 C 0.02449 0.87246 0.65056 0.0
C333 C 0.12669 0.89812 0.70162 0.0
H334 H 0.06756 0.90436 0.7905 0.0
C335 C 0.19949 0.93088 0.85952 0.0
C336 C 0.18164 0.95677 0.88216 0.0
C337 C 0.18188 0.91913 0.82242 0.0
C338 C 0.08441 0.90334 0.76584 0.0
H339 H 0.07635 0.80608 0.58536 0.0
H340 H 0.11395 0.83787 0.64366 0.0
H341 H 0.03402 0.87559 0.73015 0.0
H342 H 0.13172 0.99129 0.88316 0.0
H343 H 0.10052 0.97035 0.81836 0.0
H344 H 0.17754 0.92463 0.73847 0.0
C345 C 0.08317 0.84317 0.63654 0.0
C346 C 0.06515 0.8869 0.73101 0.0
C347 C 0.06168 0.82475 0.60322 0.0
C348 C 0.14622 0.97144 0.86639 0.0
C349 C 0.12827 0.95923 0.82943 0.0
C350 C 0.14613 0.91415 0.73678 0.0
C351 C 0.06458 0.86672 0.66108 0.0
C352 C 0.08587 0.88418 0.69824 0.0
C353 C 0.14569 0.93258 0.80719 0.0
C354 C 0.12514 0.91703 0.76926 0.0
H355 H 0.97203 0.85841 0.61131 0.0
H356 H 0.00935 0.89145 0.66764 0.0
H357 H 0.14361 0.89706 0.67704 0.0
H358 H 0.22705 0.91947 0.87065 0.0
H359 H 0.19594 0.89843 0.80617 0.0
C360 C 0.81946 0.83986 0.95193 0.0
C361 C 0.77933 0.83494 0.95915 0.0
C362 C 0.83036 0.82882 0.91615 0.0
C363 C 0.79403 0.76907 0.82748 0.0
H364 H 0.86755 0.84447 0.7785 0.0
C365 C 0.80833 0.76794 0.66324 0.0
C366 C 0.84645 0.77642 0.65113 0.0
C367 C 0.80263 0.77119 0.70233 0.0
C368 C 0.84746 0.82277 0.79199 0.0
H369 H 0.71928 0.81424 0.93424 0.0
H370 H 0.73823 0.79509 0.87219 0.0
H371 H 0.85358 0.8568 0.84448 0.0
H372 H 0.90856 0.7947 0.67083 0.0
H373 H 0.89869 0.79972 0.73902 0.0
H374 H 0.78732 0.73549 0.77461 0.0
C375 C 0.7614 0.80687 0.89436 0.0
C376 C 0.83948 0.82983 0.82984 0.0
C377 C 0.75052 0.81788 0.93005 0.0
C378 C 0.87887 0.78747 0.67914 0.0
C379 C 0.87316 0.79082 0.71821 0.0
C380 C 0.80197 0.76204 0.78961 0.0
C381 C 0.80137 0.81259 0.88682 0.0
C382 C 0.81227 0.80333 0.84783 0.0
C383 C 0.83492 0.78311 0.73019 0.0
C384 C 0.8284 0.78908 0.77127 0.0
H385 H 0.84247 0.85232 0.97389 0.0
H386 H 0.8615 0.83309 0.91142 0.0
H387 H 0.7734 0.74776 0.84076 0.0
H388 H 0.78284 0.75903 0.64244 0.0
H389 H 0.77272 0.76541 0.71056 0.0
C390 C 0.1796 0.00962 0.14773 0.0
C391 C 0.19667 0.99002 0.1192 0.0
C392 C 0.15956 0.988 0.17554 0.0
C393 C 0.11599 0.88567 0.20176 0.0
H394 H 0.12826 0.93271 0.30465 0.0
C395 C 0.07939 0.80028 0.34313 0.0
C396 C 0.05773 0.81974 0.36808 0.0
C397 C 0.09287 0.81983 0.31039 0.0
C398 C 0.12423 0.91934 0.276 0.0
H399 H 0.20489 0.93221 0.09666 0.0
H400 H 0.17168 0.89403 0.14681 0.0
H401 H 0.15906 0.96837 0.25255 0.0
H402 H 0.03308 0.87486 0.37808 0.0
H403 H 0.05728 0.90929 0.32135 0.0
H404 H 0.0824 0.83574 0.22636 0.0
C405 C 0.17306 0.92629 0.14718 0.0
C406 C 0.14174 0.93986 0.24591 0.0
C407 C 0.19248 0.94809 0.11863 0.0
C408 C 0.04942 0.859 0.35928 0.0
C409 C 0.06348 0.87877 0.32696 0.0
C410 C 0.09898 0.86478 0.23218 0.0
C411 C 0.15671 0.94603 0.17634 0.0
C412 C 0.1378 0.92351 0.20824 0.0
C413 C 0.08559 0.8595 0.30231 0.0
C414 C 0.10284 0.88151 0.26958 0.0
H415 H 0.18107 0.04191 0.14822 0.0
H416 H 0.14615 0.00442 0.19637 0.0
H417 H 0.11168 0.87229 0.17314 0.0
H418 H 0.08595 0.76993 0.34899 0.0
H419 H 0.11004 0.80433 0.29205 0.0
C420 C 0.17915 0.30787 0.71474 0.0
C421 C 0.13881 0.29698 0.71939 0.0
C422 C 0.20798 0.3092 0.74679 0.0
C423 C 0.25212 0.25913 0.80553 0.0
H424 H 0.23298 0.27293 0.91242 0.0
C425 C 0.25625 0.13558 0.91661 0.0
C426 C 0.26497 0.14447 0.95627 0.0
C427 C 0.25813 0.16614 0.88916 0.0
C428 C 0.23974 0.26956 0.88289 0.0
H429 H 0.09645 0.28506 0.76158 0.0
H430 H 0.14644 0.2869 0.81719 0.0
H431 H 0.20284 0.31452 0.86214 0.0
H432 H 0.28612 0.19177 0.9981 0.0
H433 H 0.28916 0.24502 0.95007 0.0
H434 H 0.28695 0.21246 0.82598 0.0
C435 C 0.15613 0.29432 0.78902 0.0
C436 C 0.22222 0.29327 0.85407 0.0
C437 C 0.12734 0.29293 0.75701 0.0
C438 C 0.27859 0.18402 0.96773 0.0
C439 C 0.28041 0.21457 0.94029 0.0
C440 C 0.26965 0.23547 0.83434 0.0
C441 C 0.19685 0.29978 0.78391 0.0
C442 C 0.22611 0.28643 0.81485 0.0
C443 C 0.2688 0.20613 0.90088 0.0
C444 C 0.26151 0.23874 0.87291 0.0
H445 H 0.18889 0.31192 0.68611 0.0
H446 H 0.2391 0.31427 0.74211 0.0
H447 H 0.2558 0.25301 0.77561 0.0
H448 H 0.2459 0.10539 0.90689 0.0
H449 H 0.24856 0.15868 0.85903 0.0
C450 C 0.84962 0.10924 0.26011 0.0
C451 C 0.83495 0.06907 0.25244 0.0
C452 C 0.86851 0.12105 0.29663 0.0
C453 C 0.88226 0.09142 0.40005 0.0
H454 H 0.97541 0.16913 0.40178 0.0
C455 C 0.95917 0.17551 0.5398 0.0
C456 C 0.00081 0.18386 0.54276 0.0
C457 C 0.93816 0.15775 0.50604 0.0
C458 C 0.9497 0.14711 0.40197 0.0
H459 H 0.82825 0.00996 0.27799 0.0
H460 H 0.86207 0.03056 0.34171 0.0
H461 H 0.9409 0.14522 0.34005 0.0
H462 H 0.0532 0.17773 0.51367 0.0
H463 H 0.01694 0.14637 0.45577 0.0
H464 H 0.89175 0.09309 0.46234 0.0
C465 C 0.85849 0.05294 0.31932 0.0
C466 C 0.92954 0.13377 0.36644 0.0
C467 C 0.83948 0.04106 0.28262 0.0
C468 C 0.02106 0.17239 0.51215 0.0
C469 C 0.00022 0.15451 0.47877 0.0
C470 C 0.90253 0.10487 0.4358 0.0
C471 C 0.87356 0.09307 0.32664 0.0
C472 C 0.8954 0.10597 0.36492 0.0
C473 C 0.95845 0.14788 0.47476 0.0
C474 C 0.93654 0.13291 0.43716 0.0
H475 H 0.84721 0.1317 0.23772 0.0
H476 H 0.87918 0.15231 0.30132 0.0
H477 H 0.85592 0.07017 0.39993 0.0
H478 H 0.94275 0.1839 0.56293 0.0
H479 H 0.90597 0.15317 0.50388 0.0
loop_
_geom_bond_atom_site_label_1
_geom_bond_atom_site_label_2
_geom_bond_distance
_geom_bond_site_symmetry_2
_ccdc_geom_bond_type
Co0 N5 2.057 . S
Co0 O17 2.021 . S
Co0 O20 2.062 . S
Co0 O24 2.117 . S
Co0 O25 2.020 . S
C1 O21 1.259 . S
C1 O24 1.258 . S
Co2 N11 2.058 1_544 S
Co2 O18 2.116 . S
Co2 O19 2.021 1_545 S
Co2 O21 2.021 . S
Co2 O26 2.060 1_554 S
C3 N5 1.316 . S
C3 N6 1.347 . S
C3 H8 0.931 . S
C4 N5 1.375 . S
C4 C7 1.350 . S
C4 H9 0.930 . S
N5 Co0 2.057 . S
N5 C3 1.316 . S
N5 C4 1.375 . S
N6 C3 1.347 . S
N6 C7 1.373 . S
C7 C4 1.350 . S
C7 N6 1.373 . S
C7 H28 0.931 . S
H8 C3 0.931 . S
H9 C4 0.930 . S
C10 O17 1.259 . S
C10 O18 1.258 . S
N11 Co2 2.058 1_566 S
N11 C12 1.316 . S
N11 C13 1.375 . S
C12 N11 1.316 . S
C12 N14 1.347 . S
C12 H23 0.931 . S
C13 N11 1.375 . S
C13 C15 1.350 . S
C13 H22 0.930 . S
N14 C12 1.347 . S
N14 C15 1.373 . S
C15 C13 1.350 . S
C15 N14 1.373 . S
C15 H29 0.931 . S
C16 O19 1.256 . S
C16 O20 1.255 1_565 S
O17 Co0 2.021 . S
O17 C10 1.259 . S
O18 Co2 2.116 . S
O18 C10 1.258 . S
O19 Co2 2.021 1_565 S
O19 C16 1.256 . S
O20 Co0 2.062 . S
O20 C16 1.255 1_545 S
O21 C1 1.259 . S
O21 Co2 2.021 . S
H22 C13 0.930 . S
H23 C12 0.931 . S
O24 Co0 2.117 . S
O24 C1 1.258 . S
O25 Co0 2.020 . S
O25 C27 1.256 1_554 S
O26 Co2 2.060 1_556 S
O26 C27 1.255 . S
C27 O25 1.256 1_556 S
C27 O26 1.255 . S
H28 C7 0.931 . S
H29 C15 0.931 . S
Co30 N35 2.057 1_455 S
Co30 O47 2.021 . S
Co30 O50 2.062 . S
Co30 O54 2.117 . S
Co30 O55 2.020 1_455 S
C31 O51 1.259 . S
C31 O54 1.258 . S
Co32 N41 2.057 . S
Co32 O48 2.117 . S
Co32 O49 2.020 . S
Co32 O51 2.021 . S
Co32 O56 2.062 . S
C33 N35 1.316 . S
C33 N36 1.347 . S
C33 H38 0.931 . S
C34 N35 1.375 . S
C34 C37 1.350 . S
C34 H39 0.930 . S
N35 Co30 2.057 1_655 S
N35 C33 1.316 . S
N35 C34 1.375 . S
N36 C33 1.347 . S
N36 C37 1.373 . S
C37 C34 1.350 . S
C37 N36 1.373 . S
C37 H58 0.931 . S
H38 C33 0.931 . S
H39 C34 0.930 . S
C40 O47 1.259 . S
C40 O48 1.258 . S
N41 Co32 2.057 . S
N41 C42 1.316 . S
N41 C43 1.375 . S
C42 N41 1.316 . S
C42 N44 1.347 . S
C42 H53 0.931 . S
C43 N41 1.375 . S
C43 C45 1.350 . S
C43 H52 0.930 . S
N44 C42 1.347 . S
N44 C45 1.373 . S
C45 C43 1.350 . S
C45 N44 1.373 . S
C45 H59 0.931 . S
C46 O49 1.256 . S
C46 O50 1.255 . S
O47 Co30 2.021 . S
O47 C40 1.259 . S
O48 Co32 2.117 . S
O48 C40 1.258 . S
O49 Co32 2.020 . S
O49 C46 1.256 . S
O50 Co30 2.062 . S
O50 C46 1.255 . S
O51 C31 1.259 . S
O51 Co32 2.021 . S
H52 C43 0.930 . S
H53 C42 0.931 . S
O54 Co30 2.117 . S
O54 C31 1.258 . S
O55 Co30 2.020 1_655 S
O55 C57 1.256 . S
O56 Co32 2.062 . S
O56 C57 1.255 1_455 S
C57 O55 1.256 . S
C57 O56 1.255 1_655 S
H58 C37 0.931 . S
H59 C45 0.931 . S
Co60 N65 2.057 . S
Co60 O77 2.021 . S
Co60 O80 2.062 1_545 S
Co60 O84 2.117 . S
Co60 O85 2.020 . S
C61 O81 1.259 . S
C61 O84 1.258 1_565 S
Co62 N71 2.057 . S
Co62 O78 2.117 . S
Co62 O79 2.020 . S
Co62 O81 2.021 . S
Co62 O86 2.062 1_565 S
C63 N65 1.316 . S
C63 N66 1.347 . S
C63 H68 0.931 . S
C64 N65 1.375 . S
C64 C67 1.350 . S
C64 H69 0.930 . S
N65 Co60 2.057 . S
N65 C63 1.316 . S
N65 C64 1.375 . S
N66 C63 1.347 . S
N66 C67 1.373 . S
C67 C64 1.350 . S
C67 N66 1.373 . S
C67 H88 0.931 . S
H68 C63 0.931 . S
H69 C64 0.930 . S
C70 O77 1.259 . S
C70 O78 1.258 1_545 S
N71 Co62 2.057 . S
N71 C72 1.316 1_554 S
N71 C73 1.374 . S
C72 N71 1.316 1_556 S
C72 N74 1.347 . S
C72 H83 0.931 . S
C73 N71 1.374 . S
C73 C75 1.351 1_554 S
C73 H82 0.929 . S
N74 C72 1.347 . S
N74 C75 1.373 . S
C75 C73 1.351 1_556 S
C75 N74 1.373 . S
C75 H89 0.931 . S
C76 O79 1.256 . S
C76 O80 1.255 . S
O77 Co60 2.021 . S
O77 C70 1.259 . S
O78 Co62 2.117 . S
O78 C70 1.258 1_565 S
O79 Co62 2.020 . S
O79 C76 1.256 . S
O80 Co60 2.062 1_565 S
O80 C76 1.255 . S
O81 C61 1.259 . S
O81 Co62 2.021 . S
H82 C73 0.929 . S
H83 C72 0.931 . S
O84 Co60 2.117 . S
O84 C61 1.258 1_545 S
O85 Co60 2.020 . S
O85 C87 1.256 . S
O86 Co62 2.062 1_545 S
O86 C87 1.255 . S
C87 O85 1.256 . S
C87 O86 1.255 . S
H88 C67 0.931 . S
H89 C75 0.931 . S
Co90 N95 2.057 . S
Co90 O107 2.021 . S
Co90 O110 2.062 1_655 S
Co90 O114 2.117 . S
Co90 O115 2.020 . S
C91 O111 1.259 . S
C91 O114 1.258 1_455 S
Co92 N101 2.057 . S
Co92 O108 2.117 . S
Co92 O109 2.020 . S
Co92 O111 2.021 . S
Co92 O116 2.062 1_455 S
C93 N95 1.316 . S
C93 N96 1.347 . S
C93 H98 0.931 . S
C94 N95 1.375 . S
C94 C97 1.350 . S
C94 H99 0.930 . S
N95 Co90 2.057 . S
N95 C93 1.316 . S
N95 C94 1.375 . S
N96 C93 1.347 . S
N96 C97 1.373 . S
C97 C94 1.350 . S
C97 N96 1.373 . S
C97 H118 0.931 . S
H98 C93 0.931 . S
H99 C94 0.930 . S
C100 O107 1.259 . S
C100 O108 1.258 1_655 S
N101 Co92 2.057 . S
N101 C102 1.316 . S
N101 C103 1.375 . S
C102 N101 1.316 . S
C102 N104 1.347 . S
C102 H113 0.931 . S
C103 N101 1.375 . S
C103 C105 1.350 . S
C103 H112 0.930 . S
N104 C102 1.347 . S
N104 C105 1.373 . S
C105 C103 1.350 . S
C105 N104 1.373 . S
C105 H119 0.931 . S
C106 O109 1.256 . S
C106 O110 1.255 . S
O107 Co90 2.021 . S
O107 C100 1.259 . S
O108 Co92 2.117 . S
O108 C100 1.258 1_455 S
O109 Co92 2.020 . S
O109 C106 1.256 . S
O110 Co90 2.062 1_455 S
O110 C106 1.255 . S
O111 C91 1.259 . S
O111 Co92 2.021 . S
H112 C103 0.930 . S
H113 C102 0.931 . S
O114 Co90 2.117 . S
O114 C91 1.258 1_655 S
O115 Co90 2.020 . S
O115 C117 1.256 . S
O116 Co92 2.062 1_655 S
O116 C117 1.255 . S
C117 O115 1.256 . S
C117 O116 1.255 . S
H118 C97 0.931 . S
H119 C105 0.931 . S
C120 C121 1.349 . S
C120 C122 1.327 . S
C120 H145 0.950 . S
C121 C120 1.349 . S
C121 C137 1.349 1_565 S
C122 C120 1.327 . S
C122 C141 1.429 1_565 S
C122 H146 0.950 . S
C123 C140 1.574 . S
C123 C142 1.368 1_455 S
C123 H147 0.949 1_455 S
H124 C128 0.949 1_565 S
C125 C126 1.349 . S
C125 C127 1.327 . S
C125 H148 0.950 . S
C126 C125 1.349 . S
C126 C138 1.349 . S
C127 C125 1.327 . S
C127 C143 1.429 . S
C127 H149 0.950 . S
C128 H124 0.949 1_545 S
C128 C136 1.574 1_445 S
C128 C144 1.368 . S
H129 C137 0.950 . S
H130 C135 0.950 . S
H131 C136 0.949 . S
H132 C138 0.950 1_556 S
H133 C139 0.950 1_565 S
H134 C140 0.949 . S
C135 H130 0.950 . S
C135 C137 1.327 . S
C135 C141 1.429 . S
C136 C128 1.574 1_665 S
C136 H131 0.949 . S
C136 C142 1.368 1_565 S
C137 C121 1.349 1_545 S
C137 H129 0.950 . S
C137 C135 1.327 . S
C138 C126 1.349 . S
C138 H132 0.950 1_554 S
C138 C139 1.327 . S
C139 H133 0.950 1_545 S
C139 C138 1.327 . S
C139 C143 1.429 . S
C140 C123 1.574 . S
C140 H134 0.949 . S
C140 C144 1.368 . S
C141 C122 1.429 1_545 S
C141 C135 1.429 . S
C141 C142 1.523 . S
C142 C123 1.368 1_655 S
C142 C136 1.368 1_545 S
C142 C141 1.523 . S
C143 C127 1.429 . S
C143 C139 1.429 . S
C143 C144 1.523 . S
C144 C128 1.368 . S
C144 C140 1.368 . S
C144 C143 1.523 . S
H145 C120 0.950 . S
H146 C122 0.950 . S
H147 C123 0.949 1_655 S
H148 C125 0.950 . S
H149 C127 0.950 . S
C150 C151 1.349 1_455 S
C150 C152 1.327 . S
C150 H175 0.950 . S
C151 C150 1.349 1_655 S
C151 C167 1.349 . S
C152 C150 1.327 . S
C152 C171 1.429 . S
C152 H176 0.950 . S
C153 C170 1.574 . S
C153 C172 1.368 1_645 S
C153 H177 0.949 1_545 S
H154 C158 0.949 . S
C155 C156 1.349 . S
C155 C157 1.327 . S
C155 H178 0.950 1_455 S
C156 C155 1.349 . S
C156 C168 1.349 . S
C157 C155 1.327 . S
C157 C173 1.429 . S
C157 H179 0.950 1_455 S
C158 H154 0.949 . S
C158 C166 1.574 1_545 S
C158 C174 1.368 . S
H159 C167 0.950 . S
H160 C165 0.950 . S
H161 C166 0.949 . S
H162 C168 0.950 . S
H163 C169 0.950 . S
H164 C170 0.949 . S
C165 H160 0.950 . S
C165 C167 1.327 . S
C165 C171 1.429 1_655 S
C166 C158 1.574 1_565 S
C166 H161 0.949 . S
C166 C172 1.368 . S
C167 C151 1.349 . S
C167 H159 0.950 . S
C167 C165 1.327 . S
C168 C156 1.349 . S
C168 H162 0.950 . S
C168 C169 1.327 . S
C169 H163 0.950 . S
C169 C168 1.327 . S
C169 C173 1.429 . S
C170 C153 1.574 . S
C170 H164 0.949 . S
C170 C174 1.368 1_655 S
C171 C152 1.429 . S
C171 C165 1.429 1_455 S
C171 C172 1.523 . S
C172 C153 1.368 1_465 S
C172 C166 1.368 . S
C172 C171 1.523 . S
C173 C157 1.429 . S
C173 C169 1.429 . S
C173 C174 1.523 . S
C174 C158 1.368 . S
C174 C170 1.368 1_455 S
C174 C173 1.523 . S
H175 C150 0.950 . S
H176 C152 0.950 . S
H177 C153 0.949 1_565 S
H178 C155 0.950 1_655 S
H179 C157 0.950 1_655 S
C180 C181 1.349 1_545 S
C180 C182 1.327 . S
C180 H205 0.950 . S
C181 C180 1.349 1_565 S
C181 C197 1.349 . S
C182 C180 1.327 . S
C182 C201 1.429 . S
C182 H206 0.950 . S
C183 C200 1.574 . S
C183 C202 1.368 1_565 S
C183 H207 0.949 . S
H184 C188 0.949 . S
C185 C186 1.349 1_565 S
C185 C187 1.327 . S
C185 H208 0.950 . S
C186 C185 1.349 1_545 S
C186 C198 1.349 . S
C187 C185 1.327 . S
C187 C203 1.429 1_565 S
C187 H209 0.950 . S
C188 H184 0.949 . S
C188 C196 1.574 . S
C188 C204 1.368 . S
H189 C197 0.950 . S
H190 C195 0.950 . S
H191 C196 0.949 . S
H192 C198 0.950 . S
H193 C199 0.950 . S
H194 C200 0.949 . S
C195 H190 0.950 . S
C195 C197 1.327 . S
C195 C201 1.429 1_565 S
C196 C188 1.574 . S
C196 H191 0.949 . S
C196 C202 1.368 . S
C197 C181 1.349 . S
C197 H189 0.950 . S
C197 C195 1.327 . S
C198 C186 1.349 . S
C198 H192 0.950 . S
C198 C199 1.327 . S
C199 H193 0.950 . S
C199 C198 1.327 . S
C199 C203 1.429 . S
C200 C183 1.574 . S
C200 H194 0.949 . S
C200 C204 1.368 1_565 S
C201 C182 1.429 . S
C201 C195 1.429 1_545 S
C201 C202 1.523 . S
C202 C183 1.368 1_545 S
C202 C196 1.368 . S
C202 C201 1.523 . S
C203 C187 1.429 1_545 S
C203 C199 1.429 . S
C203 C204 1.523 . S
C204 C188 1.368 . S
C204 C200 1.368 1_545 S
C204 C203 1.523 . S
H205 C180 0.950 . S
H206 C182 0.950 . S
H207 C183 0.949 . S
H208 C185 0.950 . S
H209 C187 0.950 . S
C210 C211 1.349 . S
C210 C212 1.327 . S
C210 H235 0.950 . S
C211 C210 1.349 . S
C211 C227 1.349 . S
C212 C210 1.327 . S
C212 C231 1.429 . S
C212 H236 0.950 . S
C213 C230 1.574 . S
C213 C232 1.368 1_655 S
C213 H237 0.949 . S
H214 C218 0.949 . S
C215 C216 1.349 . S
C215 C217 1.327 . S
C215 H238 0.950 . S
C216 C215 1.349 . S
C216 C228 1.349 1_655 S
C217 C215 1.327 . S
C217 C233 1.429 1_655 S
C217 H239 0.950 . S
C218 H214 0.949 . S
C218 C226 1.574 . S
C218 C234 1.368 . S
H219 C227 0.950 1_655 S
H220 C225 0.948 . S
H221 C226 0.949 . S
H222 C228 0.950 . S
H223 C229 0.950 . S
H224 C230 0.949 . S
C225 H220 0.948 . S
C225 C227 1.328 1_655 S
C225 C231 1.430 1_655 S
C226 C218 1.574 . S
C226 H221 0.949 . S
C226 C232 1.368 . S
C227 C211 1.349 . S
C227 H219 0.950 1_455 S
C227 C225 1.328 1_455 S
C228 C216 1.349 1_455 S
C228 H222 0.950 . S
C228 C229 1.327 . S
C229 H223 0.950 . S
C229 C228 1.327 . S
C229 C233 1.429 . S
C230 C213 1.574 . S
C230 H224 0.949 . S
C230 C234 1.368 1_655 S
C231 C212 1.429 . S
C231 C225 1.430 1_455 S
C231 C232 1.523 . S
C232 C213 1.368 1_455 S
C232 C226 1.368 . S
C232 C231 1.523 . S
C233 C217 1.429 1_455 S
C233 C229 1.429 . S
C233 C234 1.523 . S
C234 C218 1.368 . S
C234 C230 1.368 1_455 S
C234 C233 1.523 . S
H235 C210 0.950 . S
H236 C212 0.950 . S
H237 C213 0.949 . S
H238 C215 0.950 . S
H239 C217 0.950 . S
C240 C241 1.349 . S
C240 C242 1.327 . S
C240 H265 0.950 . S
C241 C240 1.349 . S
C241 C257 1.349 . S
C242 C240 1.327 . S
C242 C261 1.429 . S
C242 H266 0.950 . S
C243 C260 1.574 . S
C243 C262 1.368 . S
C243 H267 0.949 . S
H244 C248 0.949 . S
C245 C246 1.349 . S
C245 C247 1.327 . S
C245 H268 0.950 . S
C246 C245 1.349 . S
C246 C258 1.349 . S
C247 C245 1.327 . S
C247 C263 1.429 . S
C247 H269 0.950 . S
C248 H244 0.949 . S
C248 C256 1.574 . S
C248 C264 1.368 . S
H249 C257 0.950 . S
H250 C255 0.950 . S
H251 C256 0.949 . S
H252 C258 0.950 . S
H253 C259 0.950 . S
H254 C260 0.949 . S
C255 H250 0.950 . S
C255 C257 1.327 . S
C255 C261 1.429 . S
C256 C248 1.574 . S
C256 H251 0.949 . S
C256 C262 1.368 . S
C257 C241 1.349 . S
C257 H249 0.950 . S
C257 C255 1.327 . S
C258 C246 1.349 . S
C258 H252 0.950 . S
C258 C259 1.327 . S
C259 H253 0.950 . S
C259 C258 1.327 . S
C259 C263 1.429 . S
C260 C243 1.574 . S
C260 H254 0.949 . S
C260 C264 1.368 . S
C261 C242 1.429 . S
C261 C255 1.429 . S
C261 C262 1.523 . S
C262 C243 1.368 . S
C262 C256 1.368 . S
C262 C261 1.523 . S
C263 C247 1.429 . S
C263 C259 1.429 . S
C263 C264 1.523 . S
C264 C248 1.368 . S
C264 C260 1.368 . S
C264 C263 1.523 . S
H265 C240 0.950 . S
H266 C242 0.950 . S
H267 C243 0.949 . S
H268 C245 0.950 . S
H269 C247 0.950 . S
C270 C271 1.349 . S
C270 C272 1.327 . S
C270 H295 0.950 . S
C271 C270 1.349 . S
C271 C287 1.349 . S
C272 C270 1.327 . S
C272 C291 1.429 . S
C272 H296 0.950 . S
C273 C290 1.574 . S
C273 C292 1.368 . S
C273 H297 0.949 . S
H274 C278 0.949 . S
C275 C276 1.349 . S
C275 C277 1.327 . S
C275 H298 0.950 . S
C276 C275 1.349 . S
C276 C288 1.349 . S
C277 C275 1.327 . S
C277 C293 1.429 . S
C277 H299 0.950 . S
C278 H274 0.949 . S
C278 C286 1.574 . S
C278 C294 1.368 . S
H279 C287 0.950 . S
H280 C285 0.950 . S
H281 C286 0.949 . S
H282 C288 0.950 . S
H283 C289 0.950 . S
H284 C290 0.949 . S
C285 H280 0.950 . S
C285 C287 1.327 . S
C285 C291 1.429 . S
C286 C278 1.574 . S
C286 H281 0.949 . S
C286 C292 1.368 . S
C287 C271 1.349 . S
C287 H279 0.950 . S
C287 C285 1.327 . S
C288 C276 1.349 . S
C288 H282 0.950 . S
C288 C289 1.327 . S
C289 H283 0.950 . S
C289 C288 1.327 . S
C289 C293 1.429 . S
C290 C273 1.574 . S
C290 H284 0.949 . S
C290 C294 1.368 . S
C291 C272 1.429 . S
C291 C285 1.429 . S
C291 C292 1.523 . S
C292 C273 1.368 . S
C292 C286 1.368 . S
C292 C291 1.523 . S
C293 C277 1.429 . S
C293 C289 1.429 . S
C293 C294 1.523 . S
C294 C278 1.368 . S
C294 C290 1.368 . S
C294 C293 1.523 . S
H295 C270 0.950 . S
H296 C272 0.950 . S
H297 C273 0.949 . S
H298 C275 0.950 . S
H299 C277 0.950 . S
C300 C301 1.349 . S
C300 C302 1.327 . S
C300 H325 0.950 . S
C301 C300 1.349 . S
C301 C317 1.349 . S
C302 C300 1.327 . S
C302 C321 1.429 . S
C302 H326 0.950 . S
C303 C320 1.574 . S
C303 C322 1.368 . S
C303 H327 0.949 . S
H304 C308 0.949 . S
C305 C306 1.349 . S
C305 C307 1.327 . S
C305 H328 0.950 . S
C306 C305 1.349 . S
C306 C318 1.349 . S
C307 C305 1.327 . S
C307 C323 1.429 . S
C307 H329 0.950 . S
C308 H304 0.949 . S
C308 C316 1.574 . S
C308 C324 1.368 . S
H309 C317 0.950 . S
H310 C315 0.950 . S
H311 C316 0.949 . S
H312 C318 0.950 . S
H313 C319 0.950 . S
H314 C320 0.949 . S
C315 H310 0.950 . S
C315 C317 1.327 . S
C315 C321 1.429 . S
C316 C308 1.574 . S
C316 H311 0.949 . S
C316 C322 1.368 . S
C317 C301 1.349 . S
C317 H309 0.950 . S
C317 C315 1.327 . S
C318 C306 1.349 . S
C318 H312 0.950 . S
C318 C319 1.327 . S
C319 H313 0.950 . S
C319 C318 1.327 . S
C319 C323 1.429 . S
C320 C303 1.574 . S
C320 H314 0.949 . S
C320 C324 1.368 . S
C321 C302 1.429 . S
C321 C315 1.429 . S
C321 C322 1.523 . S
C322 C303 1.368 . S
C322 C316 1.368 . S
C322 C321 1.523 . S
C323 C307 1.429 . S
C323 C319 1.429 . S
C323 C324 1.523 . S
C324 C308 1.368 . S
C324 C320 1.368 . S
C324 C323 1.523 . S
H325 C300 0.950 . S
H326 C302 0.950 . S
H327 C303 0.949 . S
H328 C305 0.950 . S
H329 C307 0.950 . S
C330 C331 1.349 . S
C330 C332 1.327 . S
C330 H355 0.950 . S
C331 C330 1.349 . S
C331 C347 1.349 . S
C332 C330 1.327 . S
C332 C351 1.429 . S
C332 H356 0.950 . S
C333 C350 1.574 . S
C333 C352 1.368 . S
C333 H357 0.949 . S
H334 C338 0.949 . S
C335 C336 1.349 . S
C335 C337 1.327 . S
C335 H358 0.950 . S
C336 C335 1.349 . S
C336 C348 1.349 . S
C337 C335 1.327 . S
C337 C353 1.429 . S
C337 H359 0.950 . S
C338 H334 0.949 . S
C338 C346 1.574 . S
C338 C354 1.368 . S
H339 C347 0.950 . S
H340 C345 0.950 . S
H341 C346 0.949 . S
H342 C348 0.950 . S
H343 C349 0.950 . S
H344 C350 0.949 . S
C345 H340 0.950 . S
C345 C347 1.327 . S
C345 C351 1.429 . S
C346 C338 1.574 . S
C346 H341 0.949 . S
C346 C352 1.368 . S
C347 C331 1.349 . S
C347 H339 0.950 . S
C347 C345 1.327 . S
C348 C336 1.349 . S
C348 H342 0.950 . S
C348 C349 1.327 . S
C349 H343 0.950 . S
C349 C348 1.327 . S
C349 C353 1.429 . S
C350 C333 1.574 . S
C350 H344 0.949 . S
C350 C354 1.368 . S
C351 C332 1.429 . S
C351 C345 1.429 . S
C351 C352 1.523 . S
C352 C333 1.368 . S
C352 C346 1.368 . S
C352 C351 1.523 . S
C353 C337 1.429 . S
C353 C349 1.429 . S
C353 C354 1.523 . S
C354 C338 1.368 . S
C354 C350 1.368 . S
C354 C353 1.523 . S
H355 C330 0.950 . S
H356 C332 0.950 . S
H357 C333 0.949 . S
H358 C335 0.950 . S
H359 C337 0.950 . S
C360 C361 1.349 . S
C360 C362 1.327 . S
C360 H385 0.950 . S
C361 C360 1.349 . S
C361 C377 1.349 . S
C362 C360 1.327 . S
C362 C381 1.429 . S
C362 H386 0.950 . S
C363 C380 1.574 . S
C363 C382 1.368 . S
C363 H387 0.949 . S
H364 C368 0.949 . S
C365 C366 1.349 . S
C365 C367 1.327 . S
C365 H388 0.950 . S
C366 C365 1.349 . S
C366 C378 1.349 . S
C367 C365 1.327 . S
C367 C383 1.429 . S
C367 H389 0.950 . S
C368 H364 0.949 . S
C368 C376 1.574 . S
C368 C384 1.368 . S
H369 C377 0.950 . S
H370 C375 0.950 . S
H371 C376 0.949 . S
H372 C378 0.950 . S
H373 C379 0.950 . S
H374 C380 0.949 . S
C375 H370 0.950 . S
C375 C377 1.327 . S
C375 C381 1.429 . S
C376 C368 1.574 . S
C376 H371 0.949 . S
C376 C382 1.368 . S
C377 C361 1.349 . S
C377 H369 0.950 . S
C377 C375 1.327 . S
C378 C366 1.349 . S
C378 H372 0.950 . S
C378 C379 1.327 . S
C379 H373 0.950 . S
C379 C378 1.327 . S
C379 C383 1.429 . S
C380 C363 1.574 . S
C380 H374 0.949 . S
C380 C384 1.368 . S
C381 C362 1.429 . S
C381 C375 1.429 . S
C381 C382 1.523 . S
C382 C363 1.368 . S
C382 C376 1.368 . S
C382 C381 1.523 . S
C383 C367 1.429 . S
C383 C379 1.429 . S
C383 C384 1.523 . S
C384 C368 1.368 . S
C384 C380 1.368 . S
C384 C383 1.523 . S
H385 C360 0.950 . S
H386 C362 0.950 . S
H387 C363 0.949 . S
H388 C365 0.950 . S
H389 C367 0.950 . S
C390 C391 1.349 . S
C390 C392 1.327 . S
C390 H415 0.950 . S
C391 C390 1.349 . S
C391 C407 1.349 . S
C392 C390 1.327 . S
C392 C411 1.429 . S
C392 H416 0.950 . S
C393 C410 1.574 . S
C393 C412 1.368 . S
C393 H417 0.949 . S
H394 C398 0.949 . S
C395 C396 1.349 . S
C395 C397 1.327 . S
C395 H418 0.950 . S
C396 C395 1.349 . S
C396 C408 1.349 . S
C397 C395 1.327 . S
C397 C413 1.429 . S
C397 H419 0.950 . S
C398 H394 0.949 . S
C398 C406 1.574 . S
C398 C414 1.368 . S
H399 C407 0.950 . S
H400 C405 0.950 . S
H401 C406 0.949 . S
H402 C408 0.950 . S
H403 C409 0.950 . S
H404 C410 0.949 . S
C405 H400 0.950 . S
C405 C407 1.327 . S
C405 C411 1.429 . S
C406 C398 1.574 . S
C406 H401 0.949 . S
C406 C412 1.368 . S
C407 C391 1.349 . S
C407 H399 0.950 . S
C407 C405 1.327 . S
C408 C396 1.349 . S
C408 H402 0.950 . S
C408 C409 1.327 . S
C409 H403 0.950 . S
C409 C408 1.327 . S
C409 C413 1.429 . S
C410 C393 1.574 . S
C410 H404 0.949 . S
C410 C414 1.368 . S
C411 C392 1.429 . S
C411 C405 1.429 . S
C411 C412 1.523 . S
C412 C393 1.368 . S
C412 C406 1.368 . S
C412 C411 1.523 . S
C413 C397 1.429 . S
C413 C409 1.429 . S
C413 C414 1.523 . S
C414 C398 1.368 . S
C414 C410 1.368 . S
C414 C413 1.523 . S
H415 C390 0.950 . S
H416 C392 0.950 . S
H417 C393 0.949 . S
H418 C395 0.950 . S
H419 C397 0.950 . S
C420 C421 1.349 . S
C420 C422 1.327 . S
C420 H445 0.950 . S
C421 C420 1.349 . S
C421 C437 1.349 . S
C422 C420 1.327 . S
C422 C441 1.429 . S
C422 H446 0.950 . S
C423 C440 1.574 . S
C423 C442 1.368 . S
C423 H447 0.949 . S
H424 C428 0.949 . S
C425 C426 1.349 . S
C425 C427 1.327 . S
C425 H448 0.950 . S
C426 C425 1.349 . S
C426 C438 1.349 . S
C427 C425 1.327 . S
C427 C443 1.429 . S
C427 H449 0.950 . S
C428 H424 0.949 . S
C428 C436 1.574 . S
C428 C444 1.368 . S
H429 C437 0.950 . S
H430 C435 0.950 . S
H431 C436 0.949 . S
H432 C438 0.950 . S
H433 C439 0.950 . S
H434 C440 0.949 . S
C435 H430 0.950 . S
C435 C437 1.327 . S
C435 C441 1.429 . S
C436 C428 1.574 . S
C436 H431 0.949 . S
C436 C442 1.368 . S
C437 C421 1.349 . S
C437 H429 0.950 . S
C437 C435 1.327 . S
C438 C426 1.349 . S
C438 H432 0.950 . S
C438 C439 1.327 . S
C439 H433 0.950 . S
C439 C438 1.327 . S
C439 C443 1.429 . S
C440 C423 1.574 . S
C440 H434 0.949 . S
C440 C444 1.368 . S
C441 C422 1.429 . S
C441 C435 1.429 . S
C441 C442 1.523 . S
C442 C423 1.368 . S
C442 C436 1.368 . S
C442 C441 1.523 . S
C443 C427 1.429 . S
C443 C439 1.429 . S
C443 C444 1.523 . S
C444 C428 1.368 . S
C444 C440 1.368 . S
C444 C443 1.523 . S
H445 C420 0.950 . S
H446 C422 0.950 . S
H447 C423 0.949 . S
H448 C425 0.950 . S
H449 C427 0.950 . S
C450 C451 1.349 . S
C450 C452 1.327 . S
C450 H475 0.950 . S
C451 C450 1.349 . S
C451 C467 1.349 . S
C452 C450 1.327 . S
C452 C471 1.429 . S
C452 H476 0.950 . S
C453 C470 1.574 . S
C453 C472 1.368 . S
C453 H477 0.949 . S
H454 C458 0.949 . S
C455 C456 1.349 . S
C455 C457 1.327 . S
C455 H478 0.950 . S
C456 C455 1.349 . S
C456 C468 1.349 . S
C457 C455 1.327 . S
C457 C473 1.429 . S
C457 H479 0.950 . S
C458 H454 0.949 . S
C458 C466 1.574 . S
C458 C474 1.368 . S
H459 C467 0.950 . S
H460 C465 0.950 . S
H461 C466 0.949 . S
H462 C468 0.950 . S
H463 C469 0.950 . S
H464 C470 0.949 . S
C465 H460 0.950 . S
C465 C467 1.327 . S
C465 C471 1.429 . S
C466 C458 1.574 . S
C466 H461 0.949 . S
C466 C472 1.368 . S
C467 C451 1.349 . S
C467 H459 0.950 . S
C467 C465 1.327 . S
C468 C456 1.349 . S
C468 H462 0.950 . S
C468 C469 1.327 . S
C469 H463 0.950 . S
C469 C468 1.327 . S
C469 C473 1.429 . S
C470 C453 1.574 . S
C470 H464 0.949 . S
C470 C474 1.368 . S
C471 C452 1.429 . S
C471 C465 1.429 . S
C471 C472 1.523 . S
C472 C453 1.368 . S
C472 C466 1.368 . S
C472 C471 1.523 . S
C473 C457 1.429 . S
C473 C469 1.429 . S
C473 C474 1.523 . S
C474 C458 1.368 . S
C474 C470 1.368 . S
C474 C473 1.523 . S
H475 C450 0.950 . S
H476 C452 0.950 . S
H477 C453 0.949 . S
H478 C455 0.950 . S
H479 C457 0.950 . S
C121 C61 0.196 . S
C126 C10 0.196 . S
C151 C91 0.265 1_655 S
C156 C40 0.265 . S
C181 C70 0.471 1_565 S
C186 C1 0.471 . S
C211 C31 0.520 . S
C216 C100 0.520 . S
C241 N44 0.979 . S
C246 N6 1.041 . S
C271 N36 1.401 . S
C276 C87 1.370 1_556 S
C301 C117 1.414 . S
C306 C76 1.423 . S
C331 C106 1.179 . S
C336 N14 1.109 . S
C361 N74 1.041 . S
C366 N96 0.980 . S
C391 C16 1.370 . S
C396 N104 1.401 . S
C421 C46 1.414 . S
C426 C27 1.423 . S
C451 N66 1.109 . S
C456 C57 1.179 . S
