# Generated by pormake.
# Topology wiu, (6)-cn, num edge types: 1
# Building blocks:
#     Node 0, Type 0, BuildingBlock: IZENUY_clean_sbu_0, # of connection points: 6
#     Node 1, Type 0, BuildingBlock: IZENUY_clean_sbu_0, # of connection points: 6
#     Node 2, Type 0, BuildingBlock: IZENUY_clean_sbu_0, # of connection points: 6
#     Node 3, Type 0, BuildingBlock: IZENUY_clean_sbu_0, # of connection points: 6
#     Node 4, Type 0, BuildingBlock: IZENUY_clean_sbu_0, # of connection points: 6
#     Node 5, Type 0, BuildingBlock: IZENUY_clean_sbu_0, # of connection points: 6
#     Node 6, Type 0, BuildingBlock: IZENUY_clean_sbu_0, # of connection points: 6
#     Node 7, Type 0, BuildingBlock: IZENUY_clean_sbu_0, # of connection points: 6
#     Node 8, Type 0, BuildingBlock: IZENUY_clean_sbu_0, # of connection points: 6
#     Node 9, Type 0, BuildingBlock: IZENUY_clean_sbu_0, # of connection points: 6
#     Node 10, Type 0, BuildingBlock: IZENUY_clean_sbu_0, # of connection points: 6
#     Node 11, Type 0, BuildingBlock: IZENUY_clean_sbu_0, # of connection points: 6
#     Node 12, Type 0, BuildingBlock: IZENUY_clean_sbu_0, # of connection points: 6
#     Node 13, Type 0, BuildingBlock: IZENUY_clean_sbu_0, # of connection points: 6
#     Node 14, Type 0, BuildingBlock: IZENUY_clean_sbu_0, # of connection points: 6
#     Node 15, Type 0, BuildingBlock: IZENUY_clean_sbu_0, # of connection points: 6
#     Edge 16, Type (0, 0), BuildingBlock: ZUJKAS_clean_linker_0, # of connection points: 2
#     Edge 17, Type (0, 0), BuildingBlock: ZUJKAS_clean_linker_0, # of connection points: 2
#     Edge 18, Type (0, 0), BuildingBlock: ZUJKAS_clean_linker_0, # of connection points: 2
#     Edge 19, Type (0, 0), BuildingBlock: ZUJKAS_clean_linker_0, # of connection points: 2
#     Edge 20, Type (0, 0), BuildingBlock: ZUJKAS_clean_linker_0, # of connection points: 2
#     Edge 21, Type (0, 0), BuildingBlock: ZUJKAS_clean_linker_0, # of connection points: 2
#     Edge 22, Type (0, 0), BuildingBlock: ZUJKAS_clean_linker_0, # of connection points: 2
#     Edge 23, Type (0, 0), BuildingBlock: ZUJKAS_clean_linker_0, # of connection points: 2
#     Edge 24, Type (0, 0), BuildingBlock: ZUJKAS_clean_linker_0, # of connection points: 2
#     Edge 25, Type (0, 0), BuildingBlock: ZUJKAS_clean_linker_0, # of connection points: 2
#     Edge 26, Type (0, 0), BuildingBlock: ZUJKAS_clean_linker_0, # of connection points: 2
#     Edge 27, Type (0, 0), BuildingBlock: ZUJKAS_clean_linker_0, # of connection points: 2
#     Edge 28, Type (0, 0), BuildingBlock: ZUJKAS_clean_linker_0, # of connection points: 2
#     Edge 29, Type (0, 0), BuildingBlock: ZUJKAS_clean_linker_0, # of connection points: 2
#     Edge 30, Type (0, 0), BuildingBlock: ZUJKAS_clean_linker_0, # of connection points: 2
#     Edge 31, Type (0, 0), BuildingBlock: ZUJKAS_clean_linker_0, # of connection points: 2
#     Edge 32, Type (0, 0), BuildingBlock: ZUJKAS_clean_linker_0, # of connection points: 2
#     Edge 33, Type (0, 0), BuildingBlock: ZUJKAS_clean_linker_0, # of connection points: 2
#     Edge 34, Type (0, 0), BuildingBlock: ZUJKAS_clean_linker_0, # of connection points: 2
#     Edge 35, Type (0, 0), BuildingBlock: ZUJKAS_clean_linker_0, # of connection points: 2
#     Edge 36, Type (0, 0), BuildingBlock: ZUJKAS_clean_linker_0, # of connection points: 2
#     Edge 37, Type (0, 0), BuildingBlock: ZUJKAS_clean_linker_0, # of connection points: 2
#     Edge 38, Type (0, 0), BuildingBlock: ZUJKAS_clean_linker_0, # of connection points: 2
#     Edge 39, Type (0, 0), BuildingBlock: ZUJKAS_clean_linker_0, # of connection points: 2
#     Edge 40, Type (0, 0), BuildingBlock: ZUJKAS_clean_linker_0, # of connection points: 2
#     Edge 41, Type (0, 0), BuildingBlock: ZUJKAS_clean_linker_0, # of connection points: 2
#     Edge 42, Type (0, 0), BuildingBlock: ZUJKAS_clean_linker_0, # of connection points: 2
#     Edge 43, Type (0, 0), BuildingBlock: ZUJKAS_clean_linker_0, # of connection points: 2
#     Edge 44, Type (0, 0), BuildingBlock: ZUJKAS_clean_linker_0, # of connection points: 2
#     Edge 45, Type (0, 0), BuildingBlock: ZUJKAS_clean_linker_0, # of connection points: 2
#     Edge 46, Type (0, 0), BuildingBlock: ZUJKAS_clean_linker_0, # of connection points: 2
#     Edge 47, Type (0, 0), BuildingBlock: ZUJKAS_clean_linker_0, # of connection points: 2
#     Edge 48, Type (0, 0), BuildingBlock: ZUJKAS_clean_linker_0, # of connection points: 2
#     Edge 49, Type (0, 0), BuildingBlock: ZUJKAS_clean_linker_0, # of connection points: 2
#     Edge 50, Type (0, 0), BuildingBlock: ZUJKAS_clean_linker_0, # of connection points: 2
#     Edge 51, Type (0, 0), BuildingBlock: ZUJKAS_clean_linker_0, # of connection points: 2
#     Edge 52, Type (0, 0), BuildingBlock: ZUJKAS_clean_linker_0, # of connection points: 2
#     Edge 53, Type (0, 0), BuildingBlock: ZUJKAS_clean_linker_0, # of connection points: 2
#     Edge 54, Type (0, 0), BuildingBlock: ZUJKAS_clean_linker_0, # of connection points: 2
#     Edge 55, Type (0, 0), BuildingBlock: ZUJKAS_clean_linker_0, # of connection points: 2
#     Edge 56, Type (0, 0), BuildingBlock: ZUJKAS_clean_linker_0, # of connection points: 2
#     Edge 57, Type (0, 0), BuildingBlock: ZUJKAS_clean_linker_0, # of connection points: 2
#     Edge 58, Type (0, 0), BuildingBlock: ZUJKAS_clean_linker_0, # of connection points: 2
#     Edge 59, Type (0, 0), BuildingBlock: ZUJKAS_clean_linker_0, # of connection points: 2
#     Edge 60, Type (0, 0), BuildingBlock: ZUJKAS_clean_linker_0, # of connection points: 2
#     Edge 61, Type (0, 0), BuildingBlock: ZUJKAS_clean_linker_0, # of connection points: 2
#     Edge 62, Type (0, 0), BuildingBlock: ZUJKAS_clean_linker_0, # of connection points: 2
#     Edge 63, Type (0, 0), BuildingBlock: ZUJKAS_clean_linker_0, # of connection points: 2
# Relax obj value: 0.193
# Max RMSD: 0.208
# Mean RMSD: 0.207
data_MOF--net-wiu--node1-IZENUY_clean_sbu_0--edge1-ZUJKAS_clean_linker_0
_symmetry_space_group_name_H-M    P1
_symmetry_Int_Tables_number       1
_symmetry_cell_setting            triclinic
loop_
_symmetry_equiv_pos_as_xyz
'x, y, z'
_cell_length_a     39.849813
_cell_length_b     39.92903
_cell_length_c     68.772426
_cell_angle_alpha  89.88
_cell_angle_beta   89.937449
_cell_angle_gamma 89.999387
loop_
_atom_site_label
_atom_site_type_symbol
_atom_site_fract_x
_atom_site_fract_y
_atom_site_fract_z
_atom_type_partial_charge
Fe0 Fe 0.33741 0.10162 0.06007 0.0
Fe1 Fe 0.37413 0.1694 0.05905 0.0
O2 O 0.35109 0.13867 0.07181 0.0
Fe3 Fe 0.34237 0.14477 0.09674 0.0
O4 O 0.36711 0.10859 0.10278 0.0
O5 O 0.34294 0.07482 0.08171 0.0
O6 O 0.37992 0.09006 0.05339 0.0
C7 C 0.40025 0.10803 0.04394 0.0
C8 C 0.28301 0.11326 0.08317 0.0
O9 O 0.39602 0.13951 0.04283 0.0
C10 C 0.3295 0.20717 0.08314 0.0
O11 O 0.33054 0.12217 0.03644 0.0
O12 O 0.34071 0.1755 0.04192 0.0
O13 O 0.30318 0.12047 0.09675 0.0
O14 O 0.29364 0.11018 0.06597 0.0
C15 C 0.40777 0.17148 0.09318 0.0
O16 O 0.3561 0.20497 0.07293 0.0
O17 O 0.31757 0.18166 0.09155 0.0
C18 C 0.32911 0.15269 0.03131 0.0
O19 O 0.40939 0.1651 0.07532 0.0
O20 O 0.37982 0.17028 0.10187 0.0
C21 C 0.36254 0.07972 0.09592 0.0
Fe22 Fe 0.71026 0.59359 0.30723 0.0
Fe23 Fe 0.66307 0.59299 0.34233 0.0
O24 O 0.67036 0.60223 0.31755 0.0
Fe25 Fe 0.63806 0.6206 0.30351 0.0
O26 O 0.63888 0.58659 0.2863 0.0
O27 O 0.6937 0.58407 0.28301 0.0
O28 O 0.70678 0.54914 0.31302 0.0
C29 C 0.70294 0.53815 0.33011 0.0
C30 C 0.69735 0.65473 0.29037 0.0
O31 O 0.69221 0.55735 0.34336 0.0
C32 C 0.62822 0.6539 0.33757 0.0
O33 O 0.7338 0.6025 0.32968 0.0
O34 O 0.69507 0.62238 0.34929 0.0
O35 O 0.66669 0.64653 0.28832 0.0
O36 O 0.71674 0.63714 0.30069 0.0
C37 C 0.60395 0.57187 0.32719 0.0
O38 O 0.63262 0.62654 0.34642 0.0
O39 O 0.63489 0.65625 0.31972 0.0
C40 C 0.725 0.62156 0.34346 0.0
O41 O 0.63012 0.56367 0.33638 0.0
O42 O 0.60381 0.59767 0.31622 0.0
C43 C 0.66443 0.57796 0.27678 0.0
Fe44 Fe 0.22939 0.92016 0.59182 0.0
Fe45 Fe 0.23333 0.96558 0.55595 0.0
O46 O 0.22115 0.92724 0.56691 0.0
Fe47 Fe 0.2001 0.89621 0.55337 0.0
O48 O 0.16405 0.89776 0.56935 0.0
O49 O 0.19305 0.89294 0.59615 0.0
O50 O 0.20294 0.95495 0.59827 0.0
C51 C 0.20682 0.98443 0.59215 0.0
C52 C 0.24521 0.85883 0.57769 0.0
O53 O 0.22628 0.99083 0.57803 0.0
C54 C 0.24541 0.91679 0.52642 0.0
O55 O 0.26751 0.94599 0.59251 0.0
O56 O 0.27731 0.95859 0.56199 0.0
O57 O 0.21933 0.86061 0.56685 0.0
O58 O 0.25584 0.88453 0.58641 0.0
C59 C 0.17129 0.95724 0.53917 0.0
O60 O 0.24167 0.94686 0.53198 0.0
O61 O 0.23452 0.89281 0.5365 0.0
C62 C 0.28768 0.95469 0.57919 0.0
O63 O 0.19042 0.97555 0.54918 0.0
O64 O 0.17726 0.9261 0.53745 0.0
C65 C 0.16548 0.89103 0.5872 0.0
Fe66 Fe 0.85837 0.47523 0.8053 0.0
Fe67 Fe 0.92551 0.43811 0.80873 0.0
O68 O 0.89346 0.46267 0.81937 0.0
Fe69 Fe 0.89606 0.47463 0.84416 0.0
O70 O 0.85066 0.47372 0.84812 0.0
O71 O 0.83006 0.45234 0.82122 0.0
O72 O 0.85822 0.43824 0.78951 0.0
C73 C 0.86996 0.40911 0.792 0.0
C74 C 0.87093 0.53234 0.82903 0.0
O75 O 0.89597 0.40484 0.80222 0.0
C76 C 0.96327 0.48093 0.83119 0.0
O77 O 0.88492 0.49817 0.78845 0.0
O78 O 0.92186 0.45762 0.78483 0.0
O79 O 0.89513 0.51876 0.83783 0.0
O80 O 0.85161 0.51488 0.81847 0.0
C81 C 0.91723 0.40957 0.84603 0.0
O82 O 0.95755 0.46938 0.81441 0.0
O83 O 0.94186 0.4776 0.84465 0.0
C84 C 0.90896 0.48494 0.77922 0.0
O85 O 0.93438 0.41441 0.83081 0.0
O86 O 0.89714 0.43136 0.85236 0.0
C87 C 0.82818 0.4575 0.83924 0.0
Fe88 Fe 0.71847 0.95342 0.9124 0.0
Fe89 Fe 0.68628 0.88316 0.91419 0.0
O90 O 0.70747 0.915 0.90118 0.0
Fe91 Fe 0.71722 0.90873 0.87639 0.0
O92 O 0.68969 0.94266 0.86978 0.0
O93 O 0.71168 0.9787 0.89032 0.0
O94 O 0.67519 0.96241 0.91863 0.0
C95 C 0.6556 0.94356 0.92805 0.0
C96 C 0.77394 0.94445 0.88979 0.0
O97 O 0.6613 0.91229 0.92939 0.0
C98 C 0.73502 0.84825 0.89121 0.0
O99 O 0.72589 0.9348 0.93642 0.0
O100 O 0.71911 0.88067 0.93209 0.0
O101 O 0.75424 0.936 0.87626 0.0
O102 O 0.76296 0.94745 0.90694 0.0
C103 C 0.65432 0.87689 0.87948 0.0
O104 O 0.7081 0.84858 0.90127 0.0
O105 O 0.74471 0.8742 0.88227 0.0
C106 C 0.72852 0.90488 0.94239 0.0
O107 O 0.65137 0.88328 0.8973 0.0
O108 O 0.68242 0.88013 0.87123 0.0
C109 C 0.6922 0.97202 0.8763 0.0
Fe110 Fe 0.41894 0.44873 0.67259 0.0
Fe111 Fe 0.39804 0.47761 0.63343 0.0
O112 O 0.38858 0.46895 0.65801 0.0
Fe113 Fe 0.34883 0.48004 0.66765 0.0
O114 O 0.33956 0.43703 0.67443 0.0
O115 O 0.38826 0.42542 0.68776 0.0
O116 O 0.41977 0.41262 0.65673 0.0
C117 C 0.42776 0.41421 0.63904 0.0
C118 C 0.39476 0.49383 0.69853 0.0
O119 O 0.42645 0.44186 0.63009 0.0
C120 C 0.3601 0.53464 0.64448 0.0
O121 O 0.45528 0.46847 0.66012 0.0
O122 O 0.43226 0.50496 0.64018 0.0
O123 O 0.36522 0.48934 0.6921 0.0
O124 O 0.41992 0.48333 0.68929 0.0
C125 C 0.33453 0.45294 0.63079 0.0
O126 O 0.37125 0.51487 0.63166 0.0
O127 O 0.35474 0.52419 0.66155 0.0
C128 C 0.45737 0.49472 0.64964 0.0
O129 O 0.3648 0.45047 0.62573 0.0
O130 O 0.3259 0.47166 0.64484 0.0
C131 C 0.35741 0.41868 0.6852 0.0
Fe132 Fe 0.84775 0.1538 0.37433 0.0
Fe133 Fe 0.84561 0.10822 0.41016 0.0
O134 O 0.85668 0.14695 0.39921 0.0
Fe135 Fe 0.87723 0.17855 0.41268 0.0
O136 O 0.91289 0.17878 0.39629 0.0
O137 O 0.88308 0.18214 0.36972 0.0
O138 O 0.87525 0.11984 0.36776 0.0
C139 C 0.87265 0.09033 0.37409 0.0
C140 C 0.83013 0.21446 0.38891 0.0
O141 O 0.85324 0.08334 0.3881 0.0
C142 C 0.83263 0.15626 0.43978 0.0
O143 O 0.81039 0.1267 0.37373 0.0
O144 O 0.80136 0.11394 0.40427 0.0
O145 O 0.85626 0.21345 0.39958 0.0
O146 O 0.82033 0.18863 0.37995 0.0
C147 C 0.9078 0.1181 0.42663 0.0
O148 O 0.83685 0.12641 0.43406 0.0
O149 O 0.84342 0.18069 0.43004 0.0
C150 C 0.79068 0.11715 0.38708 0.0
O151 O 0.88877 0.09936 0.41684 0.0
O152 O 0.90153 0.14921 0.4282 0.0
C153 C 0.91074 0.18546 0.37844 0.0
Fe154 Fe 0.21825 0.5845 0.16878 0.0
Fe155 Fe 0.1484 0.61686 0.17184 0.0
O156 O 0.17921 0.59547 0.1582 0.0
Fe157 Fe 0.17108 0.58584 0.13359 0.0
O158 O 0.2054 0.61195 0.12601 0.0
O159 O 0.24271 0.59102 0.14628 0.0
O160 O 0.2277 0.62777 0.17473 0.0
C161 C 0.2096 0.64667 0.18501 0.0
C162 C 0.20704 0.52885 0.14672 0.0
O163 O 0.17858 0.6403 0.18724 0.0
C164 C 0.11023 0.57078 0.14869 0.0
O165 O 0.20025 0.57692 0.19308 0.0
O166 O 0.14576 0.58306 0.18917 0.0
O167 O 0.19701 0.5479 0.1332 0.0
O168 O 0.21207 0.54026 0.16357 0.0
C169 C 0.1433 0.65005 0.13748 0.0
O170 O 0.11228 0.59724 0.15897 0.0
O171 O 0.13586 0.55961 0.1401 0.0
C172 C 0.17034 0.57306 0.19912 0.0
O173 O 0.14963 0.65221 0.15535 0.0
O174 O 0.14367 0.62197 0.12907 0.0
C175 C 0.23519 0.60933 0.13185 0.0
Fe176 Fe 0.83825 0.64347 0.59417 0.0
Fe177 Fe 0.8335 0.59769 0.55842 0.0
O178 O 0.84691 0.63559 0.56938 0.0
Fe179 Fe 0.86978 0.66566 0.55596 0.0
O180 O 0.90538 0.6618 0.57214 0.0
O181 O 0.87572 0.66911 0.59854 0.0
O182 O 0.86299 0.60779 0.60108 0.0
C183 C 0.85926 0.57846 0.59474 0.0
C184 C 0.82555 0.70499 0.57935 0.0
O185 O 0.84022 0.57215 0.58045 0.0
C186 C 0.82298 0.64764 0.52926 0.0
O187 O 0.79923 0.61928 0.5949 0.0
O188 O 0.78974 0.60554 0.56456 0.0
O189 O 0.85232 0.70201 0.56938 0.0
O190 O 0.81336 0.67999 0.58814 0.0
C191 C 0.89569 0.60395 0.54136 0.0
O192 O 0.82529 0.61725 0.53463 0.0
O193 O 0.83586 0.67092 0.53906 0.0
C194 C 0.77922 0.61054 0.58161 0.0
O195 O 0.87595 0.58629 0.5514 0.0
O196 O 0.89116 0.63529 0.53991 0.0
C197 C 0.90377 0.66835 0.58999 0.0
Fe198 Fe 0.1543 0.09073 0.84645 0.0
Fe199 Fe 0.13337 0.12042 0.80734 0.0
O200 O 0.16435 0.10162 0.8222 0.0
Fe201 Fe 0.20537 0.09414 0.8132 0.0
O202 O 0.20244 0.04934 0.81828 0.0
O203 O 0.18364 0.05538 0.84799 0.0
O204 O 0.12246 0.06153 0.83855 0.0
C205 C 0.09706 0.07047 0.8289 0.0
C206 C 0.21574 0.11957 0.8509 0.0
O207 O 0.09796 0.097 0.81858 0.0
C208 C 0.19335 0.1556 0.79655 0.0
O209 O 0.12319 0.12402 0.84997 0.0
O210 O 0.12852 0.15528 0.82398 0.0
O211 O 0.2263 0.10275 0.83652 0.0
O212 O 0.18511 0.11961 0.85541 0.0
C213 C 0.16287 0.07897 0.78104 0.0
O214 O 0.1631 0.14706 0.79338 0.0
O215 O 0.21177 0.13804 0.80744 0.0
C216 C 0.11994 0.15195 0.84152 0.0
O217 O 0.13623 0.08712 0.78971 0.0
O218 O 0.19139 0.08516 0.78835 0.0
C219 C 0.19706 0.03741 0.83501 0.0
Fe220 Fe 0.72866 0.42152 0.08971 0.0
Fe221 Fe 0.73507 0.46786 0.05436 0.0
O222 O 0.72185 0.42935 0.06474 0.0
Fe223 Fe 0.70124 0.39887 0.05051 0.0
O224 O 0.66425 0.40004 0.06581 0.0
O225 O 0.69171 0.39475 0.09314 0.0
O226 O 0.70221 0.45642 0.09597 0.0
C227 C 0.70646 0.48598 0.09006 0.0
C228 C 0.7447 0.36055 0.07508 0.0
O229 O 0.72694 0.4926 0.07648 0.0
C230 C 0.74819 0.41976 0.0246 0.0
O231 O 0.76695 0.44693 0.09138 0.0
O232 O 0.77873 0.46043 0.06122 0.0
O233 O 0.71925 0.36287 0.06399 0.0
O234 O 0.75507 0.38572 0.08441 0.0
C235 C 0.67377 0.46047 0.03649 0.0
O236 O 0.74454 0.44971 0.03038 0.0
O237 O 0.73661 0.39564 0.0343 0.0
C238 C 0.78798 0.45611 0.07863 0.0
O239 O 0.69264 0.47836 0.0469 0.0
O240 O 0.6796 0.42937 0.03449 0.0
C241 C 0.6646 0.39319 0.08368 0.0
Fe242 Fe 0.39924 0.9753 0.34738 0.0
Fe243 Fe 0.36002 0.97726 0.30895 0.0
O244 O 0.39585 0.96461 0.3224 0.0
Fe245 Fe 0.42784 0.94117 0.31088 0.0
O246 O 0.43807 0.91651 0.33235 0.0
O247 O 0.40168 0.93166 0.35479 0.0
O248 O 0.354 0.97298 0.35193 0.0
C249 C 0.33136 0.95719 0.3429 0.0
C250 C 0.4661 0.98312 0.33361 0.0
O251 O 0.33268 0.95315 0.32477 0.0
C252 C 0.4094 0.98924 0.28248 0.0
O253 O 0.39695 1.01977 0.34196 0.0
O254 O 0.353 1.01606 0.32291 0.0
O255 O 0.45965 0.97257 0.31669 0.0
O256 O 0.4451 0.97934 0.34727 0.0
C257 C 0.37216 0.91202 0.2943 0.0
O258 O 0.38551 1.00156 0.29222 0.0
O259 O 0.42292 0.96185 0.28741 0.0
C260 C 0.37214 0.03329 0.3337 0.0
O261 O 0.35985 0.94107 0.29247 0.0
O262 O 0.39856 0.90773 0.30418 0.0
C263 C 0.42186 0.91061 0.34777 0.0
Fe264 Fe 0.22758 0.4174 0.37872 0.0
Fe265 Fe 0.22773 0.45593 0.41739 0.0
O266 O 0.21506 0.42083 0.40341 0.0
Fe267 Fe 0.18973 0.38937 0.41406 0.0
O268 O 0.16712 0.37962 0.3918 0.0
O269 O 0.18439 0.41648 0.3702 0.0
O270 O 0.2273 0.46255 0.37422 0.0
C271 C 0.21193 0.48578 0.38294 0.0
C272 C 0.23329 0.35081 0.39263 0.0
O273 O 0.20634 0.48439 0.40094 0.0
C274 C 0.23435 0.40685 0.44455 0.0
O275 O 0.2716 0.41811 0.38522 0.0
O276 O 0.26837 0.46149 0.40471 0.0
O277 O 0.22125 0.35716 0.40925 0.0
O278 O 0.2302 0.37161 0.37884 0.0
C279 C 0.16044 0.44539 0.42986 0.0
O280 O 0.24922 0.42951 0.43498 0.0
O281 O 0.20764 0.39379 0.43823 0.0
C282 C 0.2855 0.44217 0.39391 0.0
O283 O 0.1896 0.4572 0.43249 0.0
O284 O 0.15637 0.41934 0.41968 0.0
C285 C 0.16249 0.39639 0.37645 0.0
Fe286 Fe 0.84625 0.97712 0.15771 0.0
Fe287 Fe 0.91657 0.94636 0.16174 0.0
O288 O 0.88591 0.96695 0.1476 0.0
Fe289 Fe 0.89497 0.9767 0.12306 0.0
O290 O 0.86142 0.95008 0.11511 0.0
O291 O 0.8229 0.96962 0.13503 0.0
O292 O 0.83748 0.93375 0.16391 0.0
C293 C 0.85563 0.91543 0.17452 0.0
C294 C 0.85752 0.03304 0.13555 0.0
O295 O 0.8864 0.92254 0.17698 0.0
C296 C 0.9548 0.99304 0.13908 0.0
O297 O 0.86313 0.98563 0.18211 0.0
O298 O 0.91785 0.98046 0.17872 0.0
O299 O 0.86844 1.01421 0.12219 0.0
O300 O 0.8516 1.02143 0.15228 0.0
C301 C 0.92458 0.91307 0.12777 0.0
O302 O 0.95276 0.96648 0.14929 0.0
O303 O 0.9295 1.00361 0.12992 0.0
C304 C 0.8928 0.99068 0.18816 0.0
O305 O 0.91679 0.91089 0.14546 0.0
O306 O 0.92325 0.94099 0.1191 0.0
C307 C 0.8313 0.95179 0.12058 0.0
Fe308 Fe 0.33635 0.60906 0.91748 0.0
Fe309 Fe 0.37258 0.67671 0.9146 0.0
O310 O 0.34854 0.64462 0.90364 0.0
Fe311 Fe 0.33679 0.64766 0.8788 0.0
O312 O 0.33862 0.60247 0.87449 0.0
O313 O 0.35957 0.58141 0.90147 0.0
O314 O 0.37349 0.60892 0.93333 0.0
C315 C 0.4025 0.62121 0.93093 0.0
C316 C 0.27917 0.62103 0.89336 0.0
O317 O 0.40629 0.64757 0.92095 0.0
C318 C 0.32989 0.71465 0.89213 0.0
O319 O 0.31296 0.63478 0.93446 0.0
O320 O 0.35297 0.67213 0.93846 0.0
O321 O 0.29249 0.6457 0.88484 0.0
O322 O 0.29673 0.6021 0.90416 0.0
C323 C 0.40155 0.67017 0.87726 0.0
O324 O 0.34091 0.70844 0.90901 0.0
O325 O 0.33303 0.69339 0.87863 0.0
C326 C 0.32591 0.6585 0.944 0.0
O327 O 0.39639 0.68657 0.89268 0.0
O328 O 0.38018 0.64979 0.87079 0.0
C329 C 0.35458 0.57982 0.88344 0.0
Fe330 Fe 0.71976 0.08565 0.66236 0.0
Fe331 Fe 0.64969 0.11725 0.66577 0.0
O332 O 0.68101 0.0975 0.65172 0.0
Fe333 Fe 0.67377 0.09024 0.62676 0.0
O334 O 0.7083 0.11721 0.6205 0.0
O335 O 0.74479 0.09393 0.64033 0.0
O336 O 0.72888 0.12833 0.66954 0.0
C337 C 0.71037 0.14634 0.68009 0.0
C338 C 0.70922 1.03201 0.63865 0.0
O339 O 0.67939 0.13951 0.68203 0.0
C340 C 0.61267 0.07308 0.641 0.0
O341 O 0.70134 0.07599 0.68626 0.0
O342 O 0.64702 0.08178 0.68185 0.0
O343 O 0.69985 0.05226 0.62551 0.0
O344 O 0.7136 0.042 0.65586 0.0
C345 C 0.6441 0.15372 0.6326 0.0
O346 O 0.61419 0.0985 0.65212 0.0
O347 O 0.6384 0.06331 0.63193 0.0
C348 C 0.6713 0.07087 0.69165 0.0
O349 O 0.65053 0.15411 0.6505 0.0
O350 O 0.64631 0.12672 0.62309 0.0
C351 C 0.73787 0.11396 0.62662 0.0
H352 H 0.40937 0.20514 0.12794 0.0
H353 H 0.45349 0.24338 0.13896 0.0
H354 H 0.51467 0.21519 0.08986 0.0
H355 H 0.4714 0.17654 0.07907 0.0
H356 H 0.55193 0.22738 0.12316 0.0
H357 H 0.4611 0.3304 0.10779 0.0
H358 H 0.44971 0.30005 0.12597 0.0
H359 H 0.45265 0.28768 0.10094 0.0
C360 C 0.43261 0.20643 0.1198 0.0
C361 C 0.43662 0.18842 0.10237 0.0
C362 C 0.45767 0.22844 0.12606 0.0
C363 C 0.48689 0.23271 0.11493 0.0
C364 C 0.49216 0.21244 0.09858 0.0
H365 H 0.60593 0.37527 0.06601 0.0
H366 H 0.56156 0.34019 0.07947 0.0
C367 C 0.46731 0.19044 0.09237 0.0
C368 C 0.51034 0.26072 0.11848 0.0
H369 H 0.51751 0.34489 0.11081 0.0
C370 C 0.54444 0.25324 0.121 0.0
C371 C 0.50029 0.29436 0.11553 0.0
C372 C 0.46402 0.30382 0.1123 0.0
C373 C 0.56909 0.27808 0.11904 0.0
C374 C 0.55913 0.31137 0.1149 0.0
C375 C 0.5249 0.31932 0.114 0.0
C376 C 0.5836 0.3367 0.10817 0.0
C377 C 0.60558 0.26796 0.11977 0.0
C378 C 0.60999 0.34742 0.12008 0.0
C379 C 0.63564 0.36728 0.11236 0.0
C380 C 0.63509 0.37689 0.09265 0.0
C381 C 0.60731 0.36809 0.08119 0.0
C382 C 0.58186 0.3481 0.08888 0.0
H383 H 0.60884 0.24034 0.12034 0.0
H384 H 0.61922 0.27771 0.10686 0.0
H385 H 0.6174 0.27879 0.13294 0.0
H386 H 0.61137 0.33945 0.13512 0.0
H387 H 0.65648 0.37405 0.12165 0.0
H388 H 0.60803 0.65613 0.37559 0.0
H389 H 0.57231 0.69831 0.39097 0.0
H390 H 0.57123 0.75518 0.3376 0.0
H391 H 0.60718 0.7135 0.32214 0.0
H392 H 0.5786 0.79416 0.37238 0.0
H393 H 0.47175 0.7041 0.37611 0.0
H394 H 0.51086 0.69263 0.38734 0.0
H395 H 0.50831 0.69593 0.36137 0.0
C396 C 0.6005 0.67782 0.36717 0.0
C397 C 0.61005 0.68124 0.34752 0.0
C398 C 0.58004 0.7018 0.376 0.0
C399 C 0.56878 0.72949 0.36532 0.0
C400 C 0.57965 0.73386 0.34606 0.0
H401 H 0.42459 0.84864 0.33311 0.0
H402 H 0.4561 0.80178 0.34651 0.0
C403 C 0.60012 0.70997 0.33722 0.0
C404 C 0.54386 0.75304 0.37341 0.0
H405 H 0.45944 0.76085 0.38023 0.0
C406 C 0.55266 0.78693 0.37472 0.0
C407 C 0.51017 0.74323 0.37657 0.0
C408 C 0.49943 0.70706 0.37524 0.0
C409 C 0.52812 0.81172 0.37717 0.0
C410 C 0.49399 0.80212 0.37856 0.0
C411 C 0.48565 0.768 0.37927 0.0
C412 C 0.46713 0.82631 0.37383 0.0
C413 C 0.53857 0.84804 0.37618 0.0
C414 C 0.461 0.85476 0.38529 0.0
C415 C 0.44267 0.88167 0.3776 0.0
C416 C 0.43061 0.88008 0.35845 0.0
C417 C 0.43377 0.85027 0.34791 0.0
C418 C 0.45171 0.82351 0.35559 0.0
H419 H 0.56602 0.85104 0.37392 0.0
H420 H 0.52527 0.86091 0.36411 0.0
H421 H 0.53169 0.86076 0.38994 0.0
H422 H 0.47243 0.85717 0.39949 0.0
H423 H 0.44064 0.90463 0.38588 0.0
H424 H 0.16801 0.84654 0.61731 0.0
H425 H 0.12449 0.80611 0.62616 0.0
H426 H 0.05595 0.85377 0.58627 0.0
H427 H 0.09963 0.89368 0.57688 0.0
H428 H 0.05582 0.80471 0.63867 0.0
H429 H 0.0743 0.76026 0.5631 0.0
H430 H 0.10199 0.79011 0.57443 0.0
H431 H 0.0626 0.80361 0.56429 0.0
C432 C 0.14337 0.84901 0.61083 0.0
C433 C 0.13731 0.87272 0.59608 0.0
C434 C 0.11856 0.82592 0.61594 0.0
C435 C 0.08744 0.82661 0.60651 0.0
C436 C 0.08015 0.85257 0.5934 0.0
H437 H 0.90454 0.72185 0.61415 0.0
H438 H 0.95342 0.75522 0.62285 0.0
C439 C 0.10505 0.8753 0.58806 0.0
C440 C 0.06458 0.79772 0.60803 0.0
H441 H 1.02741 0.73824 0.58009 0.0
C442 C 0.04971 0.78986 0.62596 0.0
C443 C 0.0578 0.77769 0.59159 0.0
C444 C 0.07528 0.78306 0.57232 0.0
C445 C 1.02657 0.76345 0.62758 0.0
C446 C 1.01773 0.74519 0.61072 0.0
C447 C 0.03402 0.75217 0.59306 0.0
C448 C 0.98957 0.72103 0.61017 0.0
C449 C 1.01191 0.7555 0.64728 0.0
C450 C 0.9935 0.69037 0.60041 0.0
C451 C 0.96544 0.67195 0.59476 0.0
C452 C 0.93316 0.68348 0.59928 0.0
C453 C 0.9293 0.71236 0.61067 0.0
C454 C 0.9573 0.73129 0.61582 0.0
H455 H 1.03012 0.7613 0.65902 0.0
H456 H 0.9894 0.77131 0.6497 0.0
H457 H 1.0045 0.72877 0.64848 0.0
H458 H 1.01815 0.68193 0.59592 0.0
H459 H 0.96887 0.6496 0.58608 0.0
H460 H 0.1065 0.21488 0.82779 0.0
H461 H 0.07048 0.2571 0.84262 0.0
H462 H 0.05469 0.19281 0.89227 0.0
H463 H 0.09054 0.15017 0.87748 0.0
H464 H 0.9959 0.21508 0.87645 0.0
H465 H 0.08103 0.32206 0.88768 0.0
H466 H 0.08581 0.30576 0.86357 0.0
H467 H 0.09626 0.27984 0.88418 0.0
C468 C 0.09584 0.20988 0.842 0.0
C469 C 0.10122 0.17906 0.85137 0.0
C470 C 0.07549 0.23418 0.85056 0.0
C471 C 0.06033 0.22827 0.86869 0.0
C472 C 0.06641 0.19796 0.87836 0.0
H473 H 0.93667 0.40541 0.88401 0.0
H474 H 0.96584 0.35732 0.89873 0.0
C475 C 0.08687 0.17363 0.86984 0.0
C476 C 0.03518 0.25226 0.87618 0.0
H477 H 1.02244 0.33618 0.8806 0.0
C478 C 1.00178 0.24147 0.87799 0.0
C479 C 0.04288 0.28649 0.87879 0.0
C480 C 0.07855 0.29912 0.87868 0.0
C481 C 0.97553 0.2646 0.87994 0.0
C482 C 0.98297 0.2992 0.87978 0.0
C483 C 1.01661 0.30964 0.88045 0.0
C484 C 0.95749 0.32441 0.87422 0.0
C485 C 0.93994 0.25189 0.88083 0.0
C486 C 0.94216 0.32139 0.85595 0.0
C487 C 0.926 0.34869 0.84756 0.0
C488 C 0.92462 0.37937 0.85735 0.0
C489 C 0.9371 0.38171 0.87637 0.0
C490 C 0.95381 0.35437 0.88472 0.0
H491 H 0.93872 0.22769 0.8888 0.0
H492 H 0.92299 0.27017 0.88801 0.0
H493 H 0.93075 0.24736 0.86583 0.0
H494 H 0.94535 0.29892 0.84734 0.0
H495 H 0.91675 0.34656 0.83279 0.0
H496 H 0.65581 0.84959 0.84302 0.0
H497 H 0.61314 0.81411 0.82797 0.0
H498 H 0.54852 0.82895 0.87757 0.0
H499 H 0.59075 0.86455 0.89264 0.0
H500 H 0.59249 0.7553 0.84407 0.0
H501 H 0.48266 0.83677 0.8328 0.0
H502 H 0.5245 0.85333 0.83605 0.0
H503 H 0.49903 0.84252 0.85682 0.0
C504 C 0.6322 0.84592 0.85055 0.0
C505 C 0.62678 0.85966 0.86914 0.0
C506 C 0.60785 0.82567 0.84188 0.0
C507 C 0.57752 0.81924 0.85152 0.0
C508 C 0.57143 0.83421 0.86965 0.0
H509 H 0.46484 0.67383 0.89025 0.0
H510 H 0.51091 0.70404 0.87498 0.0
C511 C 0.59576 0.85433 0.87835 0.0
C512 C 0.55409 0.7934 0.84426 0.0
H513 H 0.4703 0.77804 0.84093 0.0
C514 C 0.56584 0.76036 0.84271 0.0
C515 C 0.5195 0.79999 0.84191 0.0
C516 C 0.50579 0.83518 0.84176 0.0
C517 C 0.54341 0.73342 0.84136 0.0
C518 C 0.50855 0.73983 0.84186 0.0
C519 C 0.49705 0.77303 0.84084 0.0
C520 C 0.48434 0.71386 0.84809 0.0
C521 C 0.55716 0.69827 0.84085 0.0
C522 C 0.45432 0.70844 0.83785 0.0
C523 C 0.42792 0.69079 0.8466 0.0
C524 C 0.43121 0.67911 0.86577 0.0
C525 C 0.46199 0.68244 0.87538 0.0
C526 C 0.48838 0.69951 0.86659 0.0
H527 H 0.58128 0.69747 0.83274 0.0
H528 H 0.56224 0.68971 0.85593 0.0
H529 H 0.5392 0.68061 0.834 0.0
H530 H 0.45058 0.71971 0.82368 0.0
H531 H 0.40411 0.68888 0.83909 0.0
H532 H 0.61121 0.15736 0.59769 0.0
H533 H 0.5757 0.2033 0.58615 0.0
H534 H 0.60314 0.2617 0.63639 0.0
H535 H 0.63884 0.21639 0.64785 0.0
H536 H 0.52156 0.22394 0.60657 0.0
H537 H 0.60462 0.33214 0.59421 0.0
H538 H 0.6203 0.28969 0.59516 0.0
H539 H 0.61402 0.31322 0.61722 0.0
C540 C 0.61039 0.18037 0.60599 0.0
C541 C 0.62753 0.18314 0.6238 0.0
C542 C 0.5901 0.20656 0.59937 0.0
C543 C 0.58707 0.23602 0.61029 0.0
C544 C 0.60569 0.23951 0.62748 0.0
H545 H 0.43795 0.35197 0.65449 0.0
H546 H 0.47254 0.30729 0.64116 0.0
C547 C 0.62584 0.2134 0.63413 0.0
C548 C 0.56091 0.26103 0.60569 0.0
H549 H 0.54795 0.34531 0.60605 0.0
C550 C 0.5273 0.25048 0.60584 0.0
C551 C 0.56833 0.29555 0.60431 0.0
C552 C 0.60384 0.30823 0.60249 0.0
C553 C 0.50101 0.27372 0.60673 0.0
C554 C 0.5087 0.3082 0.60784 0.0
C555 C 0.54208 0.31879 0.60557 0.0
C556 C 0.48359 0.33315 0.61418 0.0
C557 C 0.46538 0.26106 0.60742 0.0
C558 C 0.47832 0.36256 0.60345 0.0
C559 C 0.45875 0.38837 0.61114 0.0
C560 C 0.44449 0.3853 0.62979 0.0
C561 C 0.44862 0.35519 0.64011 0.0
C562 C 0.46814 0.32945 0.63241 0.0
H563 H 0.46285 0.23724 0.59923 0.0
H564 H 0.45832 0.25591 0.62275 0.0
H565 H 0.44754 0.27968 0.60133 0.0
H566 H 0.49025 0.36597 0.58942 0.0
H567 H 0.45595 0.41122 0.60278 0.0
H568 H 0.09929 0.39159 0.38938 0.0
H569 H 0.05435 0.35968 0.37429 0.0
H570 H 0.11432 0.34792 0.32245 0.0
H571 H 0.15991 0.37998 0.33781 0.0
H572 H 1.01587 0.35711 0.3402 0.0
H573 H 0.10884 0.25284 0.34518 0.0
H574 H 0.11715 0.29303 0.35603 0.0
H575 H 0.11841 0.28839 0.33007 0.0
C576 C 0.10235 0.38332 0.37448 0.0
C577 C 0.13296 0.38781 0.36478 0.0
C578 C 0.07667 0.36513 0.36584 0.0
C579 C 0.0813 0.35081 0.34742 0.0
C580 C 0.1105 0.35838 0.3368 0.0
H581 H 0.91325 0.20775 0.34075 0.0
H582 H 0.95555 0.24454 0.32619 0.0
C583 C 0.13634 0.37691 0.34547 0.0
C584 C 0.0581 0.3237 0.34159 0.0
H585 H 0.05221 0.23863 0.34524 0.0
C586 C 1.02373 0.33111 0.34056 0.0
C587 C 0.06859 0.28981 0.34218 0.0
C588 C 0.1052 0.28028 0.34348 0.0
C589 C 0.99947 0.30577 0.34223 0.0
C590 C 1.01007 0.27218 0.34458 0.0
C591 C 0.04433 0.26447 0.34351 0.0
C592 C 0.98686 0.24606 0.35183 0.0
C593 C 0.96291 0.31548 0.34339 0.0
C594 C 0.99136 0.23346 0.37072 0.0
C595 C 0.96747 0.21231 0.37905 0.0
C596 C 0.93851 0.20342 0.36864 0.0
C597 C 0.9351 0.21443 0.34926 0.0
C598 C 0.95914 0.23556 0.34091 0.0
H599 H 0.9593 0.34308 0.34342 0.0
H600 H 0.94934 0.30506 0.33069 0.0
H601 H 0.95132 0.30495 0.35676 0.0
H602 H 1.01269 0.24122 0.37938 0.0
H603 H 0.97104 0.20413 0.39393 0.0
H604 H 0.09201 0.65032 0.11156 0.0
H605 H 0.06047 0.69911 0.10052 0.0
H606 H 0.13121 0.76411 0.12939 0.0
H607 H 0.16157 0.71507 0.14149 0.0
H608 H 0.07274 0.77518 0.14222 0.0
H609 H 0.06163 0.77351 0.06234 0.0
H610 H 0.04952 0.73368 0.07209 0.0
H611 H 0.09207 0.74817 0.07509 0.0
C612 C 0.1013 0.67509 0.11507 0.0
C613 C 0.12882 0.67916 0.12755 0.0
C614 C 0.08349 0.70301 0.10855 0.0
C615 C 0.0936 0.73537 0.11396 0.0
C616 C 0.12294 0.73938 0.12504 0.0
H617 H 0.97396 0.91671 0.10035 0.0
H618 H 1.01483 0.87277 0.09291 0.0
C619 C 0.14017 0.71146 0.13201 0.0
C620 C 0.07023 0.76388 0.11157 0.0
H621 H 1.01606 0.80155 0.07984 0.0
C622 C 0.061 0.78133 0.12844 0.0
C623 C 0.05482 0.7721 0.09363 0.0
C624 C 0.06536 0.75606 0.07476 0.0
C625 C 0.03589 0.80564 0.12808 0.0
C626 C 1.01865 0.8119 0.11051 0.0
C627 C 1.02883 0.79589 0.09337 0.0
C628 C 0.98985 0.83496 0.11021 0.0
C629 C 1.02767 0.82407 0.14666 0.0
C630 C 0.96144 0.82745 0.12146 0.0
C631 C 0.93847 0.85252 0.12601 0.0
C632 C 0.94335 0.88521 0.11904 0.0
C633 C 0.96969 0.89168 0.10593 0.0
C634 C 0.99301 0.86665 0.10163 0.0
H635 H 0.04867 0.8228 0.15725 0.0
H636 H 1.0219 0.85081 0.14371 0.0
H637 H 1.00531 0.81244 0.15354 0.0
H638 H 0.95853 0.8029 0.128 0.0
H639 H 0.9181 0.84685 0.13593 0.0
H640 H 0.41756 0.04154 0.04382 0.0
H641 H 0.46086 1.01382 0.0245 0.0
H642 H 0.48769 0.10848 -0.00145 0.0
H643 H 0.44468 0.13659 0.01806 0.0
H644 H 0.46711 1.00917 0.98494 0.0
H645 H 0.57862 0.07325 0.01545 0.0
H646 H 0.53782 0.07535 0.02681 0.0
H647 H 0.54737 0.10143 0.00618 0.0
C648 C 0.43278 0.05662 0.03412 0.0
C649 C 0.42757 0.09144 0.03261 0.0
C650 C 0.45756 0.04064 0.02302 0.0
C651 C 0.47795 0.05901 0.0102 0.0
C652 C 0.47285 0.09377 0.00862 0.0
H653 H 0.63573 1.00926 0.92783 0.0
H654 H 0.59212 0.0358 0.94741 0.0
C655 C 0.44807 0.10983 0.01975 0.0
C656 C 0.50378 0.04155 -0.00189 0.0
H657 H 0.58767 0.03956 -0.01248 0.0
C658 C 0.4935 1.01571 0.98559 0.0
C659 C 0.53828 0.04998 -0.00109 0.0
C660 C 0.55132 0.07629 0.01268 0.0
C661 C 0.51653 0.99865 0.97361 0.0
C662 C 0.55099 1.00722 0.97433 0.0
C663 C 0.56129 0.03297 -0.0131 0.0
C664 C 0.57675 0.99027 0.96197 0.0
C665 C 0.50361 0.9722 0.95989 0.0
C666 C 0.58282 0.95566 0.96356 0.0
C667 C 0.60785 0.94025 0.95229 0.0
C668 C 0.62754 0.95915 0.93926 0.0
C669 C 0.62117 0.99377 0.93766 0.0
C670 C 0.59621 1.0091 0.9489 0.0
H671 H 0.47614 0.97453 0.95749 0.0
H672 H 0.51654 0.97371 0.9456 0.0
H673 H 0.50853 0.94708 0.9662 0.0
H674 H 0.56863 0.94062 0.97379 0.0
H675 H 0.61216 0.91363 0.95406 0.0
H676 H 0.76162 0.67911 0.29176 0.0
H677 H 0.78683 0.7234 0.27207 0.0
H678 H 0.6924 0.73899 0.24294 0.0
H679 H 0.66673 0.69476 0.26279 0.0
H680 H 0.7943 0.72652 0.23238 0.0
H681 H 0.71816 0.83422 0.25782 0.0
H682 H 0.7188 0.79455 0.27045 0.0
H683 H 0.69394 0.79963 0.24884 0.0
C684 C 0.74599 0.69206 0.2813 0.0
C685 C 0.71196 0.68323 0.27898 0.0
C686 C 0.76056 0.71744 0.26998 0.0
C687 C 0.74157 0.73495 0.25609 0.0
C688 C 0.70753 0.72641 0.25379 0.0
H689 H 0.7904 0.89343 0.17277 0.0
H690 H 0.76359 0.8493 0.19196 0.0
C691 C 0.69287 0.70095 0.26513 0.0
C692 C 0.75789 0.76123 0.24368 0.0
H693 H 0.75486 0.84428 0.23131 0.0
C694 C 0.78571 0.75229 0.2322 0.0
C695 C 0.74676 0.79493 0.24335 0.0
C696 C 0.71798 0.80659 0.25589 0.0
C697 C 0.80231 0.77583 0.22028 0.0
C698 C 0.79132 0.80959 0.22003 0.0
C699 C 0.76339 0.81849 0.23144 0.0
C700 C 0.8083 0.83601 0.20802 0.0
C701 C 0.831 0.76406 0.2077 0.0
C702 C 0.8425 0.8436 0.2106 0.0
C703 C 0.85804 0.86888 0.19955 0.0
C704 C 0.8397 0.88745 0.18573 0.0
C705 C 0.80545 0.87975 0.18321 0.0
C706 C 0.78998 0.85448 0.19424 0.0
H707 H 0.83016 0.73654 0.20536 0.0
H708 H 0.83073 0.77673 0.19332 0.0
H709 H 0.85508 0.77006 0.21499 0.0
H710 H 0.85712 0.83033 0.22141 0.0
H711 H 0.88433 0.87418 0.20205 0.0
H712 H 0.15147 1.02309 0.5396 0.0
H713 H 0.10687 0.04979 0.52078 0.0
H714 H 0.08333 0.95511 0.49409 0.0
H715 H 0.1277 0.928 0.5131 0.0
H716 H 0.09941 0.05588 0.48136 0.0
H717 H 0.99128 0.98591 0.51188 0.0
H718 H 1.03233 0.98503 0.52292 0.0
H719 H 1.02352 0.95953 0.50202 0.0
C720 C 0.13673 1.00777 0.52983 0.0
C721 C 0.14329 0.97321 0.528 0.0
C722 C 0.11118 1.02318 0.51902 0.0
C723 C 0.09126 1.00453 0.50614 0.0
C724 C 0.09775 0.97004 0.50421 0.0
H725 H 0.92849 0.05256 0.42621 0.0
H726 H 0.97324 1.02638 0.44511 0.0
C727 C 0.12333 0.95455 0.51505 0.0
C728 C 0.06443 1.02144 0.49442 0.0
H729 H 0.9802 1.02072 0.48463 0.0
C730 C 0.07332 0.04826 0.48216 0.0
C731 C 1.03028 1.01165 0.49538 0.0
C732 C 1.01863 0.98417 0.50889 0.0
C733 C 0.04932 0.06499 0.47061 0.0
C734 C 1.01518 0.05514 0.47155 0.0
C735 C 1.00629 1.02836 0.48383 0.0
C736 C 0.98837 0.07184 0.45971 0.0
C737 C 0.06094 0.09248 0.45712 0.0
C738 C 0.9816 0.1063 0.46156 0.0
C739 C 0.9559 0.12151 0.45067 0.0
C740 C 0.93614 0.10258 0.43775 0.0
C741 C 0.94306 0.06809 0.43596 0.0
C742 C 0.9687 0.05296 0.44682 0.0
H743 H 0.08834 0.09094 0.45423 0.0
H744 H 0.04741 0.09146 0.44303 0.0
H745 H 0.05577 0.11712 0.46393 0.0
H746 H 0.99584 0.1214 0.47167 0.0
H747 H 0.95124 0.14801 0.45259 0.0
H748 H 0.81433 0.41105 0.76888 0.0
H749 H 0.78788 0.36549 0.75113 0.0
H750 H 0.8624 0.29672 0.77285 0.0
H751 H 0.88903 0.34245 0.79106 0.0
H752 H 0.81375 0.3268 0.72223 0.0
H753 H 0.77514 0.24687 0.7845 0.0
H754 H 0.78867 0.28969 0.78752 0.0
H755 H 0.81904 0.25703 0.78386 0.0
C756 C 0.82519 0.38626 0.77003 0.0
C757 C 0.85397 0.38058 0.78147 0.0
C758 C 0.80993 0.36015 0.7598 0.0
C759 C 0.82281 0.32748 0.76074 0.0
C760 C 0.85154 0.32155 0.77214 0.0
H761 H 0.77495 0.1695 0.67783 0.0
H762 H 0.80172 0.21287 0.69738 0.0
C763 C 0.8669 0.34779 0.78246 0.0
C764 C 0.80654 0.30026 0.7492 0.0
H765 H 0.7664 0.22469 0.75293 0.0
C766 C 0.80345 0.30447 0.72898 0.0
C767 C 0.7926 0.27127 0.75796 0.0
C768 C 0.79368 0.26593 0.77966 0.0
C769 C 0.78719 0.28054 0.71731 0.0
C770 C 0.77394 0.25118 0.72599 0.0
C771 C 0.77669 0.24706 0.74624 0.0
C772 C 0.75739 0.22446 0.71424 0.0
C773 C 0.78372 0.28725 0.69581 0.0
C774 C 0.72357 0.21595 0.71736 0.0
C775 C 0.70804 0.19098 0.70615 0.0
C776 C 0.72613 0.17372 0.6917 0.0
C777 C 0.76009 0.18223 0.68874 0.0
C778 C 0.77549 0.2072 0.69988 0.0
H779 H 0.78715 0.31421 0.69231 0.0
H780 H 0.80321 0.27291 0.68784 0.0
H781 H 0.75875 0.27915 0.69042 0.0
H782 H 0.70908 0.22882 0.72839 0.0
H783 H 0.68196 0.18503 0.70893 0.0
H784 H 0.2921 0.39713 0.68297 0.0
H785 H 0.26449 0.35341 0.70208 0.0
H786 H 0.35752 0.33277 0.73166 0.0
H787 H 0.38536 0.37687 0.71276 0.0
H788 H 0.27691 0.28562 0.70509 0.0
H789 H 0.29314 0.34599 0.77703 0.0
H790 H 0.30016 0.36808 0.75447 0.0
H791 H 0.33157 0.34006 0.76384 0.0
C792 C 0.30682 0.38338 0.69355 0.0
C793 C 0.34105 0.39086 0.69635 0.0
C794 C 0.2909 0.35827 0.70448 0.0
C795 C 0.30864 0.34004 0.71862 0.0
C796 C 0.34299 0.34691 0.72119 0.0
H797 H 0.25766 0.17962 0.79941 0.0
H798 H 0.2843 0.22399 0.78041 0.0
C799 C 0.35899 0.37204 0.71023 0.0
C800 C 0.29118 0.3137 0.73044 0.0
H801 H 0.27141 0.29071 0.77706 0.0
C802 C 0.27559 0.28683 0.72082 0.0
C803 C 0.28934 0.31514 0.751 0.0
C804 C 0.30415 0.344 0.76223 0.0
C805 C 0.25898 0.26115 0.73115 0.0
C806 C 0.25714 0.26258 0.75172 0.0
C807 C 0.27267 0.2895 0.76133 0.0
C808 C 0.24008 0.23601 0.76358 0.0
C809 C 0.24438 0.23221 0.7199 0.0
C810 C 0.20596 0.22817 0.76086 0.0
C811 C 0.19052 0.20259 0.77175 0.0
C812 C 0.20878 0.18432 0.78573 0.0
C813 C 0.2427 0.19291 0.78876 0.0
C814 C 0.25806 0.2184 0.77788 0.0
H815 H 0.25555 0.23021 0.70514 0.0
H816 H 0.2484 0.20815 0.72769 0.0
H817 H 0.21697 0.23604 0.71819 0.0
H818 H 0.19119 0.24185 0.75029 0.0
H819 H 0.16437 0.19691 0.76904 0.0
H820 H 0.38978 0.84494 0.29418 0.0
H821 H 0.36326 0.79927 0.27583 0.0
H822 H 0.29189 0.86906 0.25183 0.0
H823 H 0.31815 0.91456 0.26982 0.0
H824 H 0.29652 0.7751 0.2763 0.0
H825 H 0.32951 0.82376 0.20322 0.0
H826 H 0.34902 0.83907 0.22515 0.0
H827 H 0.30808 0.85372 0.21818 0.0
C828 C 0.36853 0.85059 0.28494 0.0
C829 C 0.35641 0.88365 0.28342 0.0
C830 C 0.35332 0.82441 0.27447 0.0
C831 C 0.32584 0.8307 0.26214 0.0
C832 C 0.31344 0.86354 0.26088 0.0
H833 H 0.18183 0.68778 0.21295 0.0
H834 H 0.20976 0.73173 0.23181 0.0
C835 C 0.32849 0.8896 0.27131 0.0
C836 C 0.3098 0.80316 0.25068 0.0
H837 H 0.28968 0.77942 0.20433 0.0
C838 C 0.29517 0.77597 0.26056 0.0
C839 C 0.30823 0.80398 0.2301 0.0
C840 C 0.32481 0.83151 0.21849 0.0
C841 C 0.27847 0.75011 0.25049 0.0
C842 C 0.27591 0.75155 0.22994 0.0
C843 C 0.29119 0.77838 0.22006 0.0
C844 C 0.25842 0.72505 0.21834 0.0
C845 C 0.26421 0.72115 0.26195 0.0
C846 C 0.27599 0.70717 0.204 0.0
C847 C 0.26004 0.68217 0.1931 0.0
C848 C 0.2259 0.67445 0.19611 0.0
C849 C 0.20812 0.69287 0.21022 0.0
C850 C 0.22418 0.71787 0.22117 0.0
H851 H 0.27562 0.71931 0.27665 0.0
H852 H 0.23679 0.72483 0.2638 0.0
H853 H 0.26824 0.69709 0.25422 0.0
H854 H 0.30232 0.71228 0.20139 0.0
H855 H 0.27463 0.66874 0.18235 0.0
H856 H 0.16273 0.49495 0.45721 0.0
H857 H 0.11644 0.51985 0.47533 0.0
H858 H 0.04627 0.45646 0.44517 0.0
H859 H 0.09275 0.43108 0.42681 0.0
H860 H 1.02745 0.52775 0.44821 0.0
H861 H 0.06239 0.47174 0.5193 0.0
H862 H 0.09608 0.49228 0.5066 0.0
H863 H 0.07734 0.45538 0.4964 0.0
C864 C 0.13751 0.48615 0.45434 0.0
C865 C 0.13164 0.46075 0.44054 0.0
C866 C 0.11102 0.50041 0.46483 0.0
C867 C 0.07788 0.4898 0.46182 0.0
C868 C 0.07167 0.46494 0.44782 0.0
H869 H 0.91001 0.53678 0.53906 0.0
H870 H 0.95285 0.50921 0.5193 0.0
C871 C 0.09829 0.4504 0.43736 0.0
C872 C 0.04997 0.5049 0.47336 0.0
H873 H 1.02094 0.51438 0.51985 0.0
C874 C 1.02588 0.52469 0.46385 0.0
C875 C 0.04772 0.50071 0.49376 0.0
C876 C 0.07205 0.47866 0.50467 0.0
C877 C 1.00011 0.54098 0.47426 0.0
C878 C 0.99855 0.53775 0.49478 0.0
C879 C 1.02221 0.51724 0.50418 0.0
C880 C 0.97239 0.55497 0.50677 0.0
C881 C 0.97455 0.56119 0.46311 0.0
C882 C 0.96925 0.59005 0.50665 0.0
C883 C 0.94464 0.60599 0.51795 0.0
C884 C 0.92267 0.58724 0.52979 0.0
C885 C 0.92632 0.55214 0.53013 0.0
C886 C 0.95088 0.53626 0.51881 0.0
H887 H 0.97362 0.55377 0.44755 0.0
H888 H 0.9491 0.55827 0.46948 0.0
H889 H 0.98148 0.58808 0.46374 0.0
H890 H 0.98602 0.60521 0.4979 0.0
H891 H 0.94282 0.63304 0.51738 0.0
H892 H 0.65008 0.52462 0.04018 0.0
H893 H 0.60515 0.55187 0.02188 0.0
H894 H 0.58926 0.46125 -0.01076 0.0
H895 H 0.63441 0.43367 0.00748 0.0
H896 H 0.59139 0.52088 0.9659 0.0
H897 H 0.50368 0.53392 0.02817 0.0
H898 H 0.54508 0.55014 0.03243 0.0
H899 H 0.5393 0.50599 0.02869 0.0
C900 C 0.63706 0.51035 0.02914 0.0
C901 C 0.64593 0.4768 0.02541 0.0
C902 C 0.6112 0.526 0.01872 0.0
C903 C 0.59348 0.50857 0.00429 0.0
C904 C 0.60245 0.47521 0.00035 0.0
H905 H 0.40234 0.56438 0.95322 0.0
H906 H 0.44918 0.53792 0.97006 0.0
C907 C 0.62823 0.45943 0.01086 0.0
C908 C 0.56572 0.52526 -0.00668 0.0
H909 H 0.48867 0.56176 -0.00099 0.0
C910 C 0.5689 0.52979 0.97312 0.0
C911 C 0.53619 0.53665 0.00268 0.0
C912 C 0.53056 0.53123 0.02415 0.0
C913 C 0.5436 0.54569 0.96212 0.0
C914 C 0.51438 0.55778 0.97156 0.0
C915 C 0.51112 0.55288 -0.00827 0.0
C916 C 0.48619 0.57421 0.96077 0.0
C917 C 0.54809 0.54869 0.9404 0.0
C918 C 0.49107 0.60375 0.94991 0.0
C919 C 0.46412 0.61906 0.94012 0.0
C920 C 0.4316 0.60533 0.94111 0.0
C921 C 0.42689 0.57584 0.95208 0.0
C922 C 0.45375 0.56059 0.96178 0.0
H923 H 0.56737 0.53099 0.93487 0.0
H924 H 0.52411 0.54388 0.93269 0.0
H925 H 0.5564 0.57448 0.93679 0.0
H926 H 0.51565 0.61523 0.94917 0.0
H927 H 0.46875 0.64176 0.9319 0.0
H928 H 0.26714 0.22129 0.09746 0.0
H929 H 0.2452 0.27561 0.10777 0.0
H930 H 0.33874 0.32242 0.09156 0.0
H931 H 0.36036 0.26836 0.08056 0.0
H932 H 0.26553 0.31559 0.13574 0.0
H933 H 0.27412 0.38501 0.06616 0.0
H934 H 0.27957 0.34024 0.06758 0.0
H935 H 0.31375 0.36792 0.07348 0.0
C936 C 0.28288 0.24324 0.09583 0.0
C937 C 0.31542 0.24052 0.08804 0.0
C938 C 0.27034 0.27429 0.1018 0.0
C939 C 0.29008 0.30333 0.10024 0.0
C940 C 0.32261 0.30066 0.09245 0.0
H941 H 0.25162 0.48765 0.16569 0.0
H942 H 0.27153 0.43254 0.15512 0.0
C943 C 0.33501 0.26966 0.08621 0.0
C944 C 0.27703 0.336 0.10749 0.0
H945 H 0.2637 0.41754 0.09451 0.0
C946 C 0.26496 0.33784 0.12668 0.0
C947 C 0.27585 0.36502 0.09564 0.0
C948 C 0.28619 0.36444 0.07452 0.0
C949 C 0.25202 0.3678 0.13436 0.0
C950 C 0.25205 0.39713 0.12275 0.0
C951 C 0.26393 0.39521 0.10352 0.0
C952 C 0.23907 0.42989 0.12992 0.0
C953 C 0.23764 0.3674 0.15467 0.0
C954 C 0.21459 0.44715 0.11917 0.0
C955 C 0.20369 0.47886 0.12498 0.0
C956 C 0.21682 0.49404 0.14176 0.0
C957 C 0.24073 0.47647 0.15282 0.0
C958 C 0.25203 0.44486 0.14682 0.0
H959 H 0.23016 0.34171 0.15917 0.0
H960 H 0.25698 0.37629 0.16504 0.0
H961 H 0.2154 0.38403 0.15583 0.0
H962 H 0.20413 0.43622 0.10611 0.0
H963 H 0.18515 0.49165 0.11617 0.0
H964 H 0.59262 0.52675 0.35646 0.0
H965 H 0.53939 0.50287 0.36687 0.0
H966 H 0.4889 0.5535 0.31981 0.0
H967 H 0.54223 0.57876 0.30968 0.0
H968 H 0.45458 0.56096 0.35204 0.0
H969 H 0.48644 0.42678 0.34606 0.0
H970 H 0.51548 0.44816 0.36155 0.0
H971 H 0.51301 0.45917 0.33616 0.0
C972 C 0.57034 0.53255 0.34809 0.0
C973 C 0.57187 0.55466 0.33213 0.0
C974 C 0.53981 0.51861 0.35404 0.0
C975 C 0.51003 0.52574 0.34395 0.0
C976 C 0.5115 0.54742 0.32781 0.0
H977 H 0.32297 0.41778 0.36369 0.0
H978 H 0.37684 0.43832 0.35181 0.0
C979 C 0.54205 0.56177 0.32198 0.0
C980 C 0.47726 0.51205 0.35093 0.0
H981 H 0.43784 0.43994 0.36512 0.0
C982 C 0.45086 0.53444 0.35473 0.0
C983 C 0.47203 0.47738 0.35424 0.0
C984 C 0.49814 0.45149 0.34908 0.0
C985 C 0.41979 0.52332 0.36203 0.0
C986 C 0.41521 0.48888 0.36635 0.0
C987 C 0.44139 0.4664 0.36219 0.0
C988 C 0.38308 0.47543 0.37442 0.0
C989 C 0.39197 0.54861 0.36456 0.0
C990 C 0.36884 0.48861 0.3915 0.0
C991 C 0.33764 0.47715 0.39824 0.0
C992 C 0.32031 0.45172 0.38828 0.0
C993 C 0.3355 0.43737 0.37178 0.0
C994 C 0.36639 0.44917 0.36491 0.0
H995 H 0.39595 0.57101 0.35523 0.0
H996 H 0.36715 0.53761 0.36099 0.0
H997 H 0.39147 0.55715 0.3799 0.0
H998 H 0.38165 0.50807 0.39953 0.0
H999 H 0.32687 0.48856 0.41108 0.0
H1000 H 0.29778 0.84577 0.60222 0.0
H1001 H 0.31802 0.79144 0.61345 0.0
H1002 H 0.24572 0.74183 0.57688 0.0
H1003 H 0.22471 0.7963 0.5658 0.0
H1004 H 0.24637 0.71585 0.61373 0.0
H1005 H 0.37654 0.72398 0.58577 0.0
H1006 H 0.3652 0.75876 0.60088 0.0
H1007 H 0.34395 0.75245 0.5781 0.0
C1008 C 0.28634 0.82337 0.59634 0.0
C1009 C 0.2596 0.82557 0.58301 0.0
C1010 C 0.29811 0.79221 0.60275 0.0
C1011 C 0.28375 0.76241 0.59585 0.0
C1012 C 0.25731 0.76445 0.58238 0.0
H1013 H 0.36521 0.56268 0.60835 0.0
H1014 H 0.34624 0.61759 0.59757 0.0
C1015 C 0.24543 0.79565 0.57598 0.0
C1016 C 0.2955 0.72926 0.60326 0.0
H1017 H 0.36504 0.67976 0.60803 0.0
C1018 C 0.2723 0.70791 0.61242 0.0
C1019 C 0.32929 0.71869 0.60144 0.0
C1020 C 0.35513 0.7395 0.59085 0.0
C1021 C 0.28196 0.67653 0.61994 0.0
C1022 C 0.31596 0.66638 0.61862 0.0
C1023 C 0.33908 0.68764 0.6093 0.0
C1024 C 0.32776 0.63305 0.62574 0.0
C1025 C 0.25547 0.65418 0.62878 0.0
C1026 C 0.32423 0.62337 0.64532 0.0
C1027 C 0.33499 0.59162 0.65161 0.0
C1028 C 0.34974 0.56902 0.63844 0.0
C1029 C 0.35388 0.57922 0.61895 0.0
C1030 C 0.34305 0.61076 0.61272 0.0
H1031 H 0.2298 0.66178 0.62429 0.0
H1032 H 0.25946 0.62765 0.62456 0.0
H1033 H 0.25688 0.65584 0.64486 0.0
H1034 H 0.31321 0.64037 0.65578 0.0
H1035 H 0.33159 0.58476 0.66672 0.0
H1036 H 1.018 0.49192 0.80724 0.0
H1037 H 0.07167 0.51813 0.81603 0.0
H1038 H 0.03631 0.53169 0.87475 0.0
H1039 H 0.98292 0.50626 0.86616 0.0
H1040 H 0.06688 0.58816 0.86035 0.0
H1041 H 0.1467 0.47588 0.84847 0.0
H1042 H 0.12191 0.48867 0.82794 0.0
H1043 H 0.10151 0.47359 0.84956 0.0
C1044 C 1.0217 0.50044 0.82202 0.0
C1045 C 0.99609 0.49673 0.83599 0.0
C1046 C 0.05246 0.51528 0.82706 0.0
C1047 C 0.05821 0.52653 0.84614 0.0
C1048 C 1.03255 0.52318 0.85996 0.0
H1049 H 0.24344 0.56714 0.9069 0.0
H1050 H 0.18956 0.54617 0.89512 0.0
C1051 C 1.00197 0.50848 0.85499 0.0
C1052 C 0.0907 0.54198 0.85199 0.0
H1053 H 0.17426 0.52554 0.85792 0.0
C1054 C 0.09041 0.57454 0.85972 0.0
C1055 C 0.12133 0.52405 0.85141 0.0
C1056 C 0.12305 0.48851 0.84406 0.0
C1057 C 0.11975 0.58953 0.86701 0.0
C1058 C 0.15042 0.57171 0.86628 0.0
C1059 C 0.15078 0.53925 0.85842 0.0
C1060 C 0.18229 0.58584 0.87407 0.0
C1061 C 0.11739 0.6239 0.876 0.0
C1062 C 0.19609 0.61537 0.86632 0.0
C1063 C 0.22686 0.6276 0.87313 0.0
C1064 C 0.24471 0.61039 0.88773 0.0
C1065 C 0.23046 0.58115 0.8957 0.0
C1066 C 0.19968 0.56899 0.88891 0.0
H1067 H 0.09113 0.63041 0.87993 0.0
H1068 H 0.13318 0.6256 0.88926 0.0
H1069 H 0.1265 0.64281 0.8654 0.0
H1070 H 0.18348 0.62853 0.85465 0.0
H1071 H 0.23711 0.65003 0.86652 0.0
H1072 H 0.81549 0.56706 0.8169 0.0
H1073 H 0.79627 0.62186 0.8279 0.0
H1074 H 0.88457 0.63172 0.86361 0.0
H1075 H 0.90381 0.5765 0.85294 0.0
H1076 H 0.82706 0.64658 0.8836 0.0
H1077 H 0.82845 0.71483 0.81342 0.0
H1078 H 0.80463 0.67674 0.81245 0.0
H1079 H 0.84915 0.67501 0.8167 0.0
C1080 C 0.83114 0.58101 0.82688 0.0
C1081 C 0.86126 0.56726 0.83401 0.0
C1082 C 0.82013 0.61248 0.83311 0.0
C1083 C 0.83913 0.63113 0.84642 0.0
C1084 C 0.86952 0.61782 0.85329 0.0
H1085 H 0.79597 0.83949 0.8737 0.0
H1086 H 0.82272 0.78693 0.86437 0.0
C1087 C 0.88054 0.58627 0.84711 0.0
C1088 C 0.82642 0.6637 0.85389 0.0
H1089 H 0.79871 0.74078 0.83949 0.0
C1090 C 0.8211 0.66728 0.87398 0.0
C1091 C 0.81898 0.69087 0.84137 0.0
C1092 C 0.8259 0.68937 0.81981 0.0
C1093 C 0.80783 0.69698 0.88182 0.0
C1094 C 0.79905 0.72361 0.8692 0.0
C1095 C 0.8051 0.72027 0.84916 0.0
C1096 C 0.78376 0.75528 0.87636 0.0
C1097 C 0.80377 0.69966 0.90358 0.0
C1098 C 0.75302 0.75509 0.88641 0.0
C1099 C 0.73769 0.78522 0.89192 0.0
C1100 C 0.75259 0.81615 0.88724 0.0
C1101 C 0.78368 0.81617 0.87749 0.0
C1102 C 0.79903 0.78611 0.87211 0.0
H1103 H 0.8203 0.6817 0.91137 0.0
H1104 H 0.80951 0.72538 0.90872 0.0
H1105 H 0.77742 0.69375 0.90754 0.0
H1106 H 0.74036 0.73169 0.88951 0.0
H1107 H 0.71365 0.78425 0.89926 0.0
H1108 H 0.51919 0.4656 0.65367 0.0
H1109 H 0.5731 0.48725 0.64227 0.0
H1110 H 0.52498 0.5788 0.62395 0.0
H1111 H 0.47076 0.55671 0.63462 0.0
H1112 H 0.56467 0.55725 0.59633 0.0
H1113 H 0.63595 0.55361 0.66527 0.0
H1114 H 0.61914 0.51336 0.65917 0.0
H1115 H 0.59113 0.54758 0.66446 0.0
C1116 C 0.52017 0.49059 0.64754 0.0
C1117 C 0.49067 0.50949 0.64515 0.0
C1118 C 0.5511 0.50302 0.64106 0.0
C1119 C 0.55335 0.53493 0.63247 0.0
C1120 C 0.524 0.55414 0.63052 0.0
H1121 H 0.74349 0.6354 0.612 0.0
H1122 H 0.68773 0.6187 0.62308 0.0
C1123 C 0.49301 0.54154 0.63671 0.0
C1124 C 0.58586 0.54762 0.62461 0.0
H1125 H 0.66805 0.56102 0.63627 0.0
C1126 C 0.58722 0.55831 0.60513 0.0
C1127 C 0.61529 0.54944 0.63608 0.0
C1128 C 0.61528 0.54072 0.65745 0.0
C1129 C 0.61711 0.57039 0.59677 0.0
C1130 C 0.64687 0.57082 0.60801 0.0
C1131 C 0.64541 0.56043 0.62754 0.0
C1132 C 0.67968 0.58262 0.60009 0.0
C1133 C 0.61617 0.58331 0.57615 0.0
C1134 C 0.69377 0.56833 0.58326 0.0
C1135 C 0.72553 0.57838 0.57666 0.0
C1136 C 0.74415 0.60231 0.58704 0.0
C1137 C 0.72984 0.61681 0.60372 0.0
C1138 C 0.69796 0.6072 0.6101 0.0
H1139 H 0.59042 0.59104 0.57188 0.0
H1140 H 0.63326 0.60502 0.57417 0.0
H1141 H 0.62418 0.56309 0.56612 0.0
H1142 H 0.68067 0.54871 0.57553 0.0
H1143 H 0.73606 0.56645 0.5639 0.0
H1144 H 0.84785 0.27687 0.40216 0.0
H1145 H 0.82438 0.33102 0.39242 0.0
H1146 H 0.75394 0.28088 0.35489 0.0
H1147 H 0.77677 0.22671 0.36475 0.0
H1148 H 0.82247 0.35875 0.3558 0.0
H1149 H 0.69324 0.34448 0.38459 0.0
H1150 H 0.72711 0.31699 0.3916 0.0
H1151 H 0.70589 0.31102 0.3688 0.0
C1152 C 0.82705 0.27728 0.39203 0.0
C1153 C 0.8142 0.24728 0.38431 0.0
C1154 C 0.81374 0.30831 0.38641 0.0
C1155 C 0.78714 0.31009 0.37306 0.0
C1156 C 0.774 0.28021 0.36549 0.0
H1157 H 0.73114 0.48982 0.30658 0.0
H1158 H 0.75129 0.43416 0.31623 0.0
C1159 C 0.78724 0.24918 0.37111 0.0
C1160 C 0.77409 0.34319 0.36644 0.0
H1161 H 0.70303 0.39093 0.36367 0.0
C1162 C 0.79636 0.36582 0.35756 0.0
C1163 C 0.74008 0.35257 0.36887 0.0
C1164 C 0.71523 0.33015 0.37915 0.0
C1165 C 0.78555 0.39739 0.35092 0.0
C1166 C 0.75136 0.40642 0.35289 0.0
C1167 C 0.72914 0.38388 0.36192 0.0
C1168 C 0.73843 0.43979 0.34665 0.0
C1169 C 0.81105 0.42109 0.34229 0.0
C1170 C 0.72358 0.46113 0.36036 0.0
C1171 C 0.71183 0.49275 0.35487 0.0
C1172 C 0.71455 0.5039 0.33549 0.0
C1173 C 0.72886 0.48222 0.32165 0.0
C1174 C 0.74059 0.45044 0.32718 0.0
H1175 H 0.83712 0.41384 0.34619 0.0
H1176 H 0.80893 0.42066 0.32621 0.0
H1177 H 0.80656 0.44715 0.34727 0.0
H1178 H 0.72147 0.45348 0.37543 0.0
H1179 H 0.70085 0.50859 0.36595 0.0
H1180 H 0.84025 0.48183 0.05673 0.0
H1181 H 0.89582 0.49941 0.06834 0.0
H1182 H 0.86844 0.47111 0.12676 0.0
H1183 H 0.8136 0.45301 0.11538 0.0
H1184 H 0.91284 0.54769 0.09509 0.0
H1185 H 0.95758 0.42404 0.1207 0.0
H1186 H 0.9212 0.42867 0.10532 0.0
H1187 H 0.91791 0.43537 0.13113 0.0
C1188 C 0.8462 0.47904 0.07201 0.0
C1189 C 0.82237 0.4658 0.08506 0.0
C1190 C 0.87795 0.4892 0.07864 0.0
C1191 C 0.8866 0.48612 0.0984 0.0
C1192 C 0.86279 0.47304 0.1114 0.0
H1193 H 0.0473 0.59333 0.15904 0.0
H1194 H 0.99299 0.57283 0.1473 0.0
C1195 C 0.83124 0.46285 0.10482 0.0
C1196 C 0.91999 0.49744 0.10569 0.0
H1197 H 0.98858 0.47162 0.13153 0.0
C1198 C 0.9295 0.531 0.10295 0.0
C1199 C 0.94198 0.47564 0.11579 0.0
C1200 C 0.93435 0.43885 0.11825 0.0
C1201 C 0.95998 0.54348 0.11034 0.0
C1202 C 0.98131 0.52201 0.12116 0.0
C1203 C 0.97208 0.48828 0.12354 0.0
C1204 C 1.014 0.53356 0.12936 0.0
C1205 C 0.96931 0.5794 0.10615 0.0
C1206 C 0.04387 0.51741 0.12397 0.0
C1207 C 0.07487 0.52875 0.13087 0.0
C1208 C 0.07687 0.55658 0.14338 0.0
C1209 C 0.0468 0.57196 0.14937 0.0
C1210 C 1.0157 0.56048 0.14249 0.0
H1211 H 0.95515 0.58957 0.09354 0.0
H1212 H 0.96321 0.595 0.11901 0.0
H1213 H 0.99657 0.58185 0.10312 0.0
H1214 H 0.04331 0.49644 0.11401 0.0
H1215 H 0.09737 0.51609 0.12596 0.0
H1216 H 0.85786 0.76533 0.57658 0.0
H1217 H 0.8372 0.8202 0.58685 0.0
H1218 H 0.74164 0.77624 0.60174 0.0
H1219 H 0.76269 0.72107 0.59229 0.0
H1220 H 0.78917 0.85978 0.57541 0.0
H1221 H 0.76159 0.82309 0.65138 0.0
H1222 H 0.78396 0.79605 0.63489 0.0
H1223 H 0.7388 0.7981 0.63427 0.0
C1224 C 0.83239 0.76736 0.58197 0.0
C1225 C 0.812 0.73877 0.58377 0.0
C1226 C 0.8206 0.79878 0.58789 0.0
C1227 C 0.78809 0.80238 0.59557 0.0
C1228 C 0.76719 0.77406 0.59653 0.0
H1229 H 0.68954 0.99693 0.60661 0.0
H1230 H 0.70772 0.9412 0.59644 0.0
C1231 C 0.77915 0.74254 0.59093 0.0
C1232 C 0.77614 0.83576 0.60244 0.0
H1233 H 0.74084 0.87623 0.64118 0.0
C1234 C 0.77874 0.86336 0.58983 0.0
C1235 C 0.76309 0.84076 0.62141 0.0
C1236 C 0.76202 0.813 0.63633 0.0
C1237 C 0.76837 0.89556 0.5955 0.0
C1238 C 0.75375 0.90021 0.61411 0.0
C1239 C 0.75156 0.8727 0.62682 0.0
C1240 C 0.74121 0.93347 0.62082 0.0
C1241 C 0.77414 0.92435 0.58164 0.0
C1242 C 0.75247 0.94714 0.63848 0.0
C1243 C 0.74142 0.97873 0.64459 0.0
C1244 C 0.71909 0.99747 0.63307 0.0
C1245 C 0.70716 0.98337 0.61567 0.0
C1246 C 0.71777 0.95158 0.60975 0.0
H1247 H 0.79469 0.91878 0.5712 0.0
H1248 H 0.75097 0.92878 0.57308 0.0
H1249 H 0.78053 0.94771 0.58955 0.0
H1250 H 0.77034 0.93363 0.64739 0.0
H1251 H 0.75109 0.98884 0.65807 0.0
H1252 H 0.82325 0.97111 0.91345 0.0
H1253 H 0.8793 0.9905 0.90364 0.0
H1254 H 0.85875 0.96165 0.84445 0.0
H1255 H 0.8035 0.94174 0.85408 0.0
H1256 H 0.92111 0.94267 0.85552 0.0
H1257 H 0.89997 0.07638 0.8739 0.0
H1258 H 0.89374 0.04778 0.89377 0.0
H1259 H 0.86629 0.04622 0.87307 0.0
C1260 C 0.83074 0.9688 0.89837 0.0
C1261 C 0.80865 0.95506 0.88457 0.0
C1262 C 0.86271 0.98013 0.89274 0.0
C1263 C 0.87308 0.9781 0.87321 0.0
C1264 C 0.85135 0.96367 0.85957 0.0
H1265 H 0.03419 0.08809 0.81596 0.0
H1266 H 0.98023 0.0643 0.82606 0.0
C1267 C 0.81961 0.95233 0.86515 0.0
C1268 C 0.90645 0.99082 0.86671 0.0
H1269 H 0.95432 0.06163 0.86301 0.0
C1270 C 0.9284 0.96867 0.8572 0.0
C1271 C 0.91576 1.02489 0.86858 0.0
C1272 C 0.89264 0.05033 0.87771 0.0
C1273 C 0.95934 0.97955 0.84962 0.0
C1274 C 0.969 1.01344 0.8519 0.0
C1275 C 0.94701 0.03563 0.86132 0.0
C1276 C 1.00188 1.02637 0.84474 0.0
C1277 C 0.98098 0.95478 0.83881 0.0
C1278 C 1.03207 1.01281 0.8517 0.0
C1279 C 0.06294 1.02618 0.84585 0.0
C1280 C 0.0644 0.05372 0.83303 0.0
C1281 C 0.03411 0.06682 0.82575 0.0
C1282 C 1.00319 0.05336 0.83161 0.0
H1283 H 0.9661 0.93314 0.83346 0.0
H1284 H 0.99367 0.96679 0.82621 0.0
H1285 H 1.00055 0.94495 0.84877 0.0
H1286 H 1.03179 0.99244 0.86212 0.0
H1287 H 0.08565 1.01548 0.85187 0.0
H1288 H 0.88261 0.07105 0.10604 0.0
H1289 H 0.86627 0.12766 0.09651 0.0
H1290 H 0.79461 0.13047 0.14356 0.0
H1291 H 0.81199 0.07423 0.15368 0.0
H1292 H 0.80959 0.14962 0.08345 0.0
H1293 H 0.83751 0.21945 0.15092 0.0
H1294 H 0.85116 0.17687 0.14725 0.0
H1295 H 0.80893 0.18554 0.15515 0.0
C1296 C 0.86363 0.08387 0.11451 0.0
C1297 C 0.84865 0.06815 0.13065 0.0
C1298 C 0.85427 0.11627 0.10902 0.0
C1299 C 0.82945 0.13371 0.11941 0.0
C1300 C 0.81446 0.11807 0.13559 0.0
H1301 H 0.71535 0.29932 0.06971 0.0
H1302 H 0.73625 0.2447 0.08013 0.0
C1303 C 0.82427 0.08578 0.14131 0.0
C1304 C 0.81824 0.16741 0.11258 0.0
H1305 H 0.80452 0.24804 0.12716 0.0
C1306 C 0.80872 0.17117 0.09301 0.0
C1307 C 0.81752 0.1958 0.1249 0.0
C1308 C 0.82967 0.19435 0.14566 0.0
C1309 C 0.79824 0.20221 0.0855 0.0
C1310 C 0.79595 0.23021 0.09804 0.0
C1311 C 0.80588 0.22659 0.11755 0.0
C1312 C 0.78345 0.26347 0.09127 0.0
C1313 C 0.79054 0.2047 0.06406 0.0
C1314 C 0.80247 0.29258 0.09449 0.0
C1315 C 0.79023 0.32403 0.08888 0.0
C1316 C 0.75877 0.32706 0.07979 0.0
C1317 C 0.73992 0.29787 0.07637 0.0
C1318 C 0.75194 0.26651 0.08227 0.0
H1319 H 0.80392 0.18506 0.05565 0.0
H1320 H 0.76323 0.20097 0.06179 0.0
H1321 H 0.79766 0.22957 0.05809 0.0
H1322 H 0.8268 0.29101 0.10145 0.0
H1323 H 0.80535 0.34601 0.09177 0.0
H1324 H 0.76337 0.11238 0.35071 0.0
H1325 H 0.70818 0.09105 0.34158 0.0
H1326 H 0.68469 0.07358 0.40194 0.0
H1327 H 0.7401 0.09495 0.4113 0.0
H1328 H 0.68142 1.02581 0.34995 0.0
H1329 H 0.60307 0.12763 0.38105 0.0
H1330 H 0.64747 0.13249 0.37654 0.0
H1331 H 0.63318 0.10926 0.39734 0.0
C1332 C 0.74648 0.10425 0.36213 0.0
C1333 C 0.75632 0.10549 0.3818 0.0
C1334 C 0.71489 0.09196 0.35684 0.0
C1335 C 0.69214 0.08095 0.37105 0.0
C1336 C 0.70165 0.08236 0.39072 0.0
H1337 H 0.49095 0.99908 0.36943 0.0
H1338 H 0.54571 1.02221 0.37755 0.0
C1339 C 0.73341 0.09448 0.39604 0.0
C1340 C 0.65892 0.06715 0.36516 0.0
H1341 H 0.57441 0.08066 0.36838 0.0
C1342 C 0.65799 0.03784 0.35391 0.0
C1343 C 0.62838 0.08284 0.37034 0.0
C1344 C 0.62785 0.11495 0.38185 0.0
C1345 C 0.62739 1.02335 0.3481 0.0
C1346 C 0.59676 0.03909 0.35323 0.0
C1347 C 0.59778 0.06856 0.36439 0.0
C1348 C 0.56336 1.02484 0.34783 0.0
C1349 C 0.62822 0.99072 0.33708 0.0
C1350 C 0.5546 1.01879 0.32833 0.0
C1351 C 0.52314 1.00518 0.32358 0.0
C1352 C 0.49959 0.99776 0.33824 0.0
C1353 C 0.50832 1.0044 0.3577 0.0
C1354 C 0.53973 1.01772 0.36241 0.0
H1355 H 0.65251 0.97747 0.33901 0.0
H1356 H 0.60765 0.97383 0.34184 0.0
H1357 H 0.62502 0.9959 0.32133 0.0
H1358 H 0.57199 1.02481 0.31673 0.0
H1359 H 0.51722 1.0007 0.30845 0.0
H1360 H 0.25998 0.32998 0.3582 0.0
H1361 H 0.28545 0.27627 0.35052 0.0
H1362 H 0.26935 0.24298 0.40947 0.0
H1363 H 0.24311 0.29698 0.41734 0.0
H1364 H 0.34129 0.24564 0.36602 0.0
H1365 H 0.22729 0.16767 0.37726 0.0
H1366 H 0.22558 0.21275 0.3756 0.0
H1367 H 0.23955 0.19296 0.39763 0.0
C1368 C 0.26166 0.31133 0.36962 0.0
C1369 C 0.24918 0.31786 0.38841 0.0
C1370 C 0.27639 0.28057 0.36516 0.0
C1371 C 0.27903 0.25539 0.37931 0.0
C1372 C 0.26707 0.26182 0.3982 0.0
H1373 H 0.40089 0.07451 0.361 0.0
H1374 H 0.37983 0.12838 0.37272 0.0
C1375 C 0.25221 0.29276 0.4027 0.0
C1376 C 0.29437 0.22265 0.374 0.0
H1377 H 0.27698 0.1394 0.36847 0.0
C1378 C 0.32731 0.22235 0.36667 0.0
C1379 C 0.27597 0.19235 0.37461 0.0
C1380 C 0.24004 0.19127 0.38154 0.0
C1381 C 0.34222 0.19273 0.35977 0.0
C1382 C 0.32389 0.16239 0.36049 0.0
C1383 C 0.29107 0.16262 0.36799 0.0
C1384 C 0.33774 0.13033 0.35289 0.0
C1385 C 0.37702 0.19443 0.35116 0.0
C1386 C 0.32106 0.1133 0.33791 0.0
C1387 C 0.33293 0.08241 0.33122 0.0
C1388 C 0.36173 0.0677 0.33944 0.0
C1389 C 0.37879 0.08514 0.35421 0.0
C1390 C 0.36682 0.11604 0.36092 0.0
H1391 H 0.38421 0.22049 0.34728 0.0
H1392 H 0.39539 0.18498 0.36198 0.0
H1393 H 0.37893 0.17861 0.33795 0.0
H1394 H 0.29859 0.12382 0.33147 0.0
H1395 H 0.31908 0.06977 0.31985 0.0
H1396 H 0.96852 0.04801 0.11649 0.0
H1397 H 1.0234 0.06964 0.10684 0.0
H1398 H 0.07177 0.99487 0.14239 0.0
H1399 H 1.01689 0.97257 0.15188 0.0
H1400 H 0.07574 0.09575 0.12744 0.0
H1401 H 0.1158 0.97981 0.0897 0.0
H1402 H 0.07308 0.98673 0.09744 0.0
H1403 H 0.10426 0.97333 0.11466 0.0
C1404 C 0.99078 0.03616 0.12236 0.0
C1405 C 0.98816 1.00827 0.13486 0.0
C1406 C 1.0222 0.04862 0.1168 0.0
C1407 C 0.05179 0.03348 0.12354 0.0
C1408 C 0.04933 1.00647 0.1366 0.0
H1409 H 0.25317 0.11514 0.11896 0.0
H1410 H 0.19682 0.09707 0.12792 0.0
C1411 C 1.01787 0.99393 0.14217 0.0
C1412 C 0.08509 0.04597 0.11677 0.0
H1413 H 0.15714 1.02218 0.09351 0.0
C1414 C 0.0935 0.07967 0.11999 0.0
C1415 C 0.10807 1.0252 0.10669 0.0
C1416 C 0.0998 0.98935 0.10172 0.0
C1417 C 0.12444 0.09294 0.11382 0.0
C1418 C 0.14797 0.07183 0.10444 0.0
C1419 C 0.13927 0.03832 0.10083 0.0
C1420 C 0.18201 0.08377 0.09868 0.0
C1421 C 0.13144 0.12962 0.11717 0.0
C1422 C 0.19289 0.0818 0.07926 0.0
C1423 C 0.2254 0.09197 0.07404 0.0
C1424 C 0.2478 0.10408 0.0882 0.0
C1425 C 0.23667 0.10613 0.10761 0.0
C1426 C 0.20428 0.09596 0.11278 0.0
H1427 H 0.10786 0.14412 0.11904 0.0
H1428 H 0.14645 0.13246 0.13064 0.0
H1429 H 0.14589 0.14061 0.1049 0.0
H1430 H 0.17622 0.0723 0.06813 0.0
H1431 H 0.23308 0.08993 0.05898 0.0
H1432 H 0.19905 1.00943 0.87127 0.0
H1433 H 0.22204 0.9554 0.88094 0.0
H1434 H 0.24651 0.93391 0.82116 0.0
H1435 H 0.22435 0.98871 0.81136 0.0
H1436 H 0.20476 0.89305 0.87225 0.0
H1437 H 0.33498 0.91468 0.84674 0.0
H1438 H 0.30431 0.94784 0.84794 0.0
H1439 H 0.3044 0.91912 0.82779 0.0
C1440 C 0.20937 0.99334 0.8601 0.0
C1441 C 0.21003 1.00368 0.8405 0.0
C1442 C 0.22253 0.96233 0.8657 0.0
C1443 C 0.23665 0.94067 0.85189 0.0
C1444 C 0.23663 0.95048 0.83221 0.0
H1445 H 0.31485 0.73903 0.85607 0.0
H1446 H 0.2923 0.79378 0.84741 0.0
C1447 C 0.22369 0.98176 0.82659 0.0
C1448 C 0.25083 0.90777 0.85821 0.0
H1449 H 0.32171 0.8594 0.85718 0.0
C1450 C 0.23041 0.88584 0.86904 0.0
C1451 C 0.2844 0.89829 0.85418 0.0
C1452 C 0.30842 0.92133 0.8437 0.0
C1453 C 0.24235 0.8546 0.87556 0.0
C1454 C 0.27567 0.84499 0.87124 0.0
C1455 C 0.29616 0.86685 0.86049 0.0
C1456 C 0.28927 0.8117 0.87698 0.0
C1457 C 0.21907 0.8317 0.88665 0.0
C1458 C 0.2953 0.80354 0.89657 0.0
C1459 C 0.30849 0.77208 0.90166 0.0
C1460 C 0.31571 0.74817 0.88723 0.0
C1461 C 0.30952 0.75662 0.86764 0.0
C1462 C 0.29667 0.78802 0.8626 0.0
H1463 H 0.19263 0.84048 0.88617 0.0
H1464 H 0.22027 0.8059 0.88069 0.0
H1465 H 0.22707 0.83056 0.90209 0.0
H1466 H 0.29006 0.8216 0.9079 0.0
H1467 H 0.31296 0.76648 0.91685 0.0
H1468 H 0.60018 1.02064 0.61644 0.0
H1469 H 0.54584 0.99964 0.60557 0.0
H1470 H 0.49565 0.07013 0.64306 0.0
H1471 H 0.55003 0.09183 0.65381 0.0
H1472 H 0.4934 0.97096 0.62498 0.0
H1473 H 0.45293 0.08999 0.59051 0.0
H1474 H 0.49554 0.08279 0.59835 0.0
H1475 H 0.46376 0.09411 0.61573 0.0
C1476 C 0.57764 1.03169 0.62247 0.0
C1477 C 0.57958 0.05821 0.6359 0.0
C1478 C 0.54653 1.0196 0.61621 0.0
C1479 C 0.51662 0.03375 0.62316 0.0
C1480 C 0.51839 0.05936 0.63711 0.0
H1481 H 0.31673 0.95071 0.61506 0.0
H1482 H 0.3726 0.96882 0.62474 0.0
C1483 C 0.54954 0.07155 0.64338 0.0
C1484 C 0.4837 1.0216 0.61575 0.0
H1485 H 0.41201 0.04682 0.59269 0.0
C1486 C 0.47565 0.98754 0.61787 0.0
C1487 C 0.46077 0.04307 0.60613 0.0
C1488 C 0.46873 0.07945 0.60234 0.0
C1489 C 0.44505 0.97455 0.61107 0.0
C1490 C 0.42154 0.9963 0.60217 0.0
C1491 C 0.4299 1.0302 0.59963 0.0
C1492 C 0.38776 0.98459 0.59594 0.0
C1493 C 0.43839 0.93753 0.61326 0.0
C1494 C 0.37725 0.988 0.57652 0.0
C1495 C 0.34499 0.9778 0.57089 0.0
C1496 C 0.32253 0.96426 0.58462 0.0
C1497 C 0.33329 0.96087 0.60403 0.0
C1498 C 0.3654 0.97105 0.60962 0.0
H1499 H 0.46209 0.92312 0.61485 0.0
H1500 H 0.4231 0.93323 0.62653 0.0
H1501 H 0.42435 0.92759 0.60059 0.0
H1502 H 0.39402 0.99857 0.56573 0.0
H1503 H 0.33756 0.98088 0.55585 0.0
H1504 H 0.35452 0.20484 0.0105 0.0
H1505 H 0.35287 0.21212 0.97533 0.0
H1506 H 0.28758 0.12628 0.97055 0.0
H1507 H 0.29055 0.11778 0.00573 0.0
H1508 H 0.34067 0.12286 0.94607 0.0
H1509 H 0.28145 0.24896 0.94041 0.0
H1510 H 0.31955 0.24601 0.95423 0.0
H1511 H 0.28214 0.22582 0.96294 0.0
C1512 C 0.33916 0.18794 0.00201 0.0
C1513 C 0.32245 0.16076 0.01082 0.0
C1514 C 0.33832 0.19218 0.9819 0.0
C1515 C 0.32003 0.16987 0.97037 0.0
C1516 C 0.30206 0.14366 0.97924 0.0
H1517 H 0.20048 0.15286 0.88402 0.0
H1518 H 0.2387 0.17347 0.90836 0.0
C1519 C 0.30349 0.13895 -0.0007 0.0
C1520 C 0.32028 0.17248 0.94898 0.0
H1521 H 0.28827 0.21866 0.91171 0.0
C1522 C 0.32973 0.14399 0.93842 0.0
C1523 C 0.30718 0.20064 0.9391 0.0
C1524 C 0.2968 0.23207 0.94969 0.0
C1525 C 0.32202 0.14096 0.91867 0.0
C1526 C 0.30539 0.16774 0.90923 0.0
C1527 C 0.3007 0.19812 0.91913 0.0
C1528 C 0.28382 0.16129 0.89222 0.0
C1529 C 0.32826 0.10777 0.9088 0.0
C1530 C 0.29641 0.14854 0.87465 0.0
C1531 C 0.27431 0.13573 0.86071 0.0
C1532 C 0.23949 0.1361 0.86416 0.0
C1533 C 0.22714 0.15153 0.88103 0.0
C1534 C 0.24905 0.16377 0.89492 0.0
H1535 H 0.3397 0.08902 0.91875 0.0
H1536 H 0.30434 0.09731 0.9032 0.0
H1537 H 0.34553 0.11141 0.89632 0.0
H1538 H 0.32318 0.14714 0.8721 0.0
H1539 H 0.28447 0.12464 0.84761 0.0
H1540 H 0.6409 0.49534 0.09747 0.0
H1541 H 0.61806 0.52574 0.12533 0.0
H1542 H 0.7172 0.56311 0.13839 0.0
H1543 H 0.73952 0.53409 0.10998 0.0
H1544 H 0.63873 0.5026 0.15833 0.0
H1545 H 0.66235 0.63841 0.15904 0.0
H1546 H 0.66305 0.61444 0.13678 0.0
H1547 H 0.69989 0.61704 0.15194 0.0
C1548 C 0.6573 0.51163 0.10573 0.0
C1549 C 0.69181 0.51259 0.10181 0.0
C1550 C 0.64431 0.52891 0.12162 0.0
C1551 C 0.66589 0.54663 0.134 0.0
C1552 C 0.69987 0.55028 0.12885 0.0
H1553 H 0.71358 0.56476 0.25025 0.0
H1554 H 0.70679 0.5583 0.21521 0.0
C1555 C 0.71273 0.53356 0.11267 0.0
C1556 C 0.65535 0.55363 0.1542 0.0
H1557 H 0.66543 0.60996 0.19089 0.0
C1558 C 0.64347 0.52647 0.16531 0.0
C1559 C 0.66164 0.58464 0.16334 0.0
C1560 C 0.6721 0.61531 0.15204 0.0
C1561 C 0.64038 0.52872 0.18552 0.0
C1562 C 0.64939 0.55884 0.19475 0.0
C1563 C 0.65895 0.58675 0.18362 0.0
C1564 C 0.6526 0.56065 0.21598 0.0
C1565 C 0.62985 0.49828 0.19705 0.0
C1566 C 0.62419 0.56298 0.22788 0.0
C1567 C 0.6279 0.56649 0.24795 0.0
C1568 C 0.66013 0.56786 0.25631 0.0
C1569 C 0.68843 0.56387 0.24431 0.0
C1570 C 0.68465 0.56045 0.22429 0.0
H1571 H 0.62495 0.47625 0.18762 0.0
H1572 H 0.64971 0.49162 0.20769 0.0
H1573 H 0.60669 0.504 0.20537 0.0
H1574 H 0.59927 0.56298 0.22159 0.0
H1575 H 0.60559 0.56949 0.25679 0.0
H1576 H 0.24955 0.85586 0.50831 0.0
H1577 H 0.2531 0.84583 0.4733 0.0
H1578 H 0.26493 0.95178 0.46326 0.0
H1579 H 0.26117 0.96227 0.49813 0.0
H1580 H 0.20823 0.9147 0.44254 0.0
H1581 H 0.33563 0.8582 0.43458 0.0
H1582 H 0.3079 0.84433 0.45371 0.0
H1583 H 0.32602 0.88534 0.45481 0.0
C1584 C 0.25359 0.87702 0.4987 0.0
C1585 C 0.25476 0.90997 0.50601 0.0
C1586 C 0.2555 0.87117 0.47872 0.0
C1587 C 0.25887 0.89811 0.46584 0.0
C1588 C 0.26201 0.93074 0.4731 0.0
H1589 H 0.29276 0.99035 0.36849 0.0
H1590 H 0.26152 0.96499 0.39511 0.0
C1591 C 0.26011 0.93665 0.49303 0.0
C1592 C 0.25764 0.89306 0.44466 0.0
H1593 H 0.30867 0.87654 0.40623 0.0
C1594 C 0.22979 0.90553 0.43451 0.0
C1595 C 0.28542 0.8803 0.43436 0.0
C1596 C 0.31557 0.86623 0.4448 0.0
C1597 C 0.23042 0.9086 0.41423 0.0
C1598 C 0.25983 0.89953 0.40408 0.0
C1599 C 0.28611 0.88354 0.41407 0.0
C1600 C 0.26774 0.91405 0.38487 0.0
C1601 C 0.20057 0.92368 0.404 0.0
C1602 C 0.28037 0.89397 0.3698 0.0
C1603 C 0.29802 0.90865 0.35439 0.0
C1604 C 0.30365 0.94334 0.35427 0.0
C1605 C 0.28837 0.96356 0.36832 0.0
C1606 C 0.27033 0.94904 0.38345 0.0
H1607 H 0.17686 0.91644 0.41141 0.0
H1608 H 0.20245 0.95139 0.40451 0.0
H1609 H 0.19935 0.91574 0.38855 0.0
H1610 H 0.27898 0.86693 0.37079 0.0
H1611 H 0.31013 0.89268 0.34377 0.0
H1612 H 0.92518 0.56846 0.59956 0.0
H1613 H 0.95051 0.54002 0.62742 0.0
H1614 H 0.85289 0.50339 0.64449 0.0
H1615 H 0.8278 0.53105 0.61627 0.0
H1616 H 0.92913 0.56652 0.66096 0.0
H1617 H 0.91339 0.42916 0.66432 0.0
H1618 H 0.91192 0.45221 0.64168 0.0
H1619 H 0.87531 0.4495 0.65698 0.0
C1620 C 0.90958 0.55264 0.60868 0.0
C1621 C 0.87474 0.55165 0.60598 0.0
C1622 C 0.92401 0.53652 0.62457 0.0
C1623 C 0.90359 0.51972 0.63803 0.0
C1624 C 0.86921 0.51566 0.63408 0.0
H1625 H 0.87648 0.53246 0.75741 0.0
H1626 H 0.88393 0.54265 0.72263 0.0
C1627 C 0.85483 0.53148 0.618 0.0
C1628 C 0.91592 0.51431 0.658 0.0
H1629 H 0.91428 0.45838 0.69542 0.0
C1630 C 0.92679 0.54262 0.66837 0.0
C1631 C 0.91293 0.48322 0.66762 0.0
C1632 C 0.90307 0.45174 0.65699 0.0
C1633 C 0.93244 0.54114 0.68841 0.0
C1634 C 0.92672 0.51072 0.69827 0.0
C1635 C 0.91826 0.48182 0.68775 0.0
C1636 C 0.92619 0.50895 0.71964 0.0
C1637 C 0.94325 0.5724 0.69897 0.0
C1638 C 0.94804 0.48733 0.72942 0.0
C1639 C 0.94391 0.48153 0.74925 0.0
C1640 C 0.91751 0.4969 0.75953 0.0
C1641 C 0.89701 0.52025 0.74992 0.0
C1642 C 0.90127 0.52612 0.73006 0.0
H1643 H 0.95579 0.59041 0.68899 0.0
H1644 H 0.9208 0.58491 0.70517 0.0
H1645 H 0.96061 0.56631 0.71109 0.0
H1646 H 0.96741 0.47395 0.72155 0.0
H1647 H 0.96038 0.46364 0.75628 0.0
H1648 H 0.76252 0.95897 0.12175 0.0
H1649 H 0.7221 0.93537 0.09859 0.0
H1650 H 0.80307 0.88387 0.06943 0.0
H1651 H 0.84255 0.90583 0.09255 0.0
H1652 H 0.72111 0.9514 0.06303 0.0
H1653 H 0.73372 0.81591 0.06154 0.0
H1654 H 0.74756 0.83974 0.08236 0.0
H1655 H 0.77596 0.8308 0.06247 0.0
C1656 C 0.77136 0.94184 0.11068 0.0
C1657 C 0.80576 0.93484 0.10867 0.0
C1658 C 0.74826 0.92823 0.09755 0.0
C1659 C 0.75934 0.90733 0.08241 0.0
C1660 C 0.79345 0.89888 0.08129 0.0
H1661 H 0.76321 0.94346 0.96804 0.0
H1662 H 0.76074 0.93998 0.00348 0.0
C1663 C 0.81629 0.91219 0.09433 0.0
C1664 C 0.73794 0.90011 0.06537 0.0
H1665 H 0.73827 0.84423 0.02809 0.0
C1666 C 0.72358 0.92753 0.05567 0.0
C1667 C 0.73942 0.86876 0.05587 0.0
C1668 C 0.74967 0.83716 0.06633 0.0
C1669 C 0.71615 0.92579 0.03583 0.0
C1670 C 0.72457 0.89638 0.02548 0.0
C1671 C 0.7335 0.86741 0.03582 0.0
C1672 C 0.72806 0.89654 0.00408 0.0
C1673 C 0.7012 0.95614 0.02601 0.0
C1674 C 0.71306 0.87157 -0.00725 0.0
C1675 C 0.71564 0.87276 0.97253 0.0
C1676 C 0.73295 0.89917 0.96336 0.0
C1677 C 0.74957 0.923 0.97476 0.0
C1678 C 0.74758 0.92136 -0.00503 0.0
H1679 H 0.68377 0.96935 0.03601 0.0
H1680 H 0.72154 0.97396 0.02218 0.0
H1681 H 0.68734 0.94931 0.01259 0.0
H1682 H 0.69841 0.85185 -0.00051 0.0
H1683 H 0.7023 0.85415 0.9641 0.0
H1684 H 0.31952 0.54122 0.85879 0.0
H1685 H 0.34313 0.51011 0.83168 0.0
H1686 H 0.44289 0.52691 0.85404 0.0
H1687 H 0.41892 0.55798 0.88154 0.0
H1688 H 0.43101 0.55752 0.81917 0.0
H1689 H 0.39058 0.42612 0.81372 0.0
H1690 H 0.35598 0.45163 0.82127 0.0
H1691 H 0.39237 0.448 0.8367 0.0
C1692 C 0.34633 0.53667 0.85845 0.0
C1693 C 0.36753 0.55183 0.87205 0.0
C1694 C 0.35986 0.5187 0.84303 0.0
C1695 C 0.39479 0.51605 0.84089 0.0
C1696 C 0.41587 0.52837 0.85558 0.0
H1697 H 0.45425 0.50244 0.7177 0.0
H1698 H 0.46223 0.50621 0.75284 0.0
C1699 C 0.40221 0.54598 0.87126 0.0
C1700 C 0.40812 0.50871 0.82133 0.0
H1701 H 0.39186 0.45786 0.7828 0.0
C1702 C 0.42368 0.53518 0.81129 0.0
C1703 C 0.39853 0.47962 0.81113 0.0
C1704 C 0.38376 0.44963 0.82137 0.0
C1705 C 0.42631 0.5349 0.79098 0.0
C1706 C 0.41344 0.50724 0.78066 0.0
C1707 C 0.40107 0.47934 0.79083 0.0
C1708 C 0.40921 0.50815 0.7594 0.0
C1709 C 0.44009 0.56527 0.78059 0.0
C1710 C 0.37674 0.50892 0.75156 0.0
C1711 C 0.372 0.50679 0.73152 0.0
C1712 C 0.39972 0.5036 0.71903 0.0
C1713 C 0.43232 0.50479 0.72692 0.0
C1714 C 0.43701 0.50688 0.74699 0.0
H1715 H 0.44587 0.58608 0.79075 0.0
H1716 H 0.4635 0.55836 0.77283 0.0
H1717 H 0.42184 0.57434 0.76958 0.0
H1718 H 0.35502 0.51019 0.76102 0.0
H1719 H 0.34659 0.50594 0.72596 0.0
H1720 H 0.74549 0.17968 0.61947 0.0
H1721 H 0.77327 0.20299 0.59073 0.0
H1722 H 0.81426 0.10561 0.57763 0.0
H1723 H 0.78736 0.08252 0.60676 0.0
H1724 H 0.8531 0.16343 0.56289 0.0
H1725 H 0.71651 0.16437 0.54506 0.0
H1726 H 0.72945 0.18921 0.56547 0.0
H1727 H 0.73261 0.14437 0.56663 0.0
C1728 C 0.76202 0.1638 0.61101 0.0
C1729 C 0.76427 0.12942 0.615 0.0
C1730 C 0.77776 0.17708 0.59464 0.0
C1731 C 0.79499 0.15576 0.58193 0.0
C1732 C 0.80095 0.12235 0.58733 0.0
H1733 H 0.8034 0.11136 0.46442 0.0
H1734 H 0.79397 0.11828 0.49928 0.0
C1735 C 0.78566 0.10918 0.60393 0.0
C1736 C 0.79921 0.16538 0.56141 0.0
H1737 H 0.75398 0.17402 0.51959 0.0
C1738 C 0.83156 0.16654 0.55344 0.0
C1739 C 0.7708 0.16883 0.54918 0.0
C1740 C 0.73534 0.16644 0.5569 0.0
C1741 C 0.83621 0.16995 0.53331 0.0
C1742 C 0.80777 0.17223 0.52113 0.0
C1743 C 0.77556 0.17251 0.52916 0.0
C1744 C 0.81077 0.16978 0.49992 0.0
C1745 C 0.87125 0.16915 0.52502 0.0
C1746 C 0.82207 0.19696 0.48885 0.0
C1747 C 0.82719 0.19323 0.4689 0.0
C1748 C 0.82132 0.16213 0.45989 0.0
C1749 C 0.80833 0.13553 0.47096 0.0
C1750 C 0.80302 0.13939 0.49084 0.0
H1751 H 0.89065 0.16583 0.53645 0.0
H1752 H 0.87351 0.14839 0.51437 0.0
H1753 H 0.87633 0.1929 0.51713 0.0
H1754 H 0.82776 0.22068 0.49573 0.0
H1755 H 0.83723 0.21423 0.46077 0.0
H1756 H 0.1499 0.51437 0.38402 0.0
H1757 H 0.12447 0.54619 0.35715 0.0
H1758 H 0.22066 0.54999 0.32832 0.0
H1759 H 0.24581 0.51845 0.35488 0.0
H1760 H 0.17806 0.60721 0.32117 0.0
H1761 H 0.11546 0.48372 0.30919 0.0
H1762 H 0.10804 0.50611 0.33147 0.0
H1763 H 0.1485 0.488 0.32689 0.0
C1764 C 0.16576 0.52346 0.37234 0.0
C1765 C 0.19959 0.5138 0.37123 0.0
C1766 C 0.15122 0.54137 0.35699 0.0
C1767 C 0.17062 0.54976 0.34064 0.0
C1768 C 0.20527 0.54366 0.3408 0.0
H1769 H 0.21735 0.5633 0.2274 0.0
H1770 H 0.20779 0.56192 0.2624 0.0
C1771 C 0.21962 0.52559 0.35593 0.0
C1772 C 0.15515 0.55839 0.32183 0.0
H1773 H 0.12457 0.51764 0.28204 0.0
C1774 C 0.1652 0.58821 0.31274 0.0
C1775 C 0.13828 0.5335 0.3109 0.0
C1776 C 0.12691 0.50094 0.31998 0.0
C1777 C 0.16201 0.59228 0.2926 0.0
C1778 C 0.14878 0.56572 0.28144 0.0
C1779 C 0.13513 0.53765 0.29075 0.0
C1780 C 0.15368 0.56443 0.26022 0.0
C1781 C 0.17492 0.62398 0.28326 0.0
C1782 C 0.12626 0.56421 0.24752 0.0
C1783 C 0.1316 0.56472 0.22744 0.0
C1784 C 0.16447 0.56523 0.21984 0.0
C1785 C 0.19175 0.56311 0.23271 0.0
C1786 C 0.18637 0.56276 0.25272 0.0
H1787 H 0.1742 0.64531 0.29359 0.0
H1788 H 0.20141 0.62021 0.27876 0.0
H1789 H 0.16006 0.63057 0.27014 0.0
H1790 H 0.10086 0.56481 0.25313 0.0
H1791 H 0.11001 0.56613 0.21792 0.0
H1792 H 0.7237 0.68619 0.35413 0.0
H1793 H 0.75213 0.70959 0.38246 0.0
H1794 H 0.80799 0.61763 0.38908 0.0
H1795 H 0.78046 0.5948 0.36027 0.0
H1796 H 0.73454 0.67576 0.41418 0.0
H1797 H 0.87283 0.68451 0.41215 0.0
H1798 H 0.84761 0.68424 0.3903 0.0
H1799 H 0.85863 0.64554 0.4022 0.0
C1800 C 0.74341 0.6718 0.36108 0.0
C1801 C 0.74988 0.63874 0.35536 0.0
C1802 C 0.75965 0.68516 0.37718 0.0
C1803 C 0.78198 0.66529 0.38793 0.0
C1804 C 0.7913 0.63364 0.38082 0.0
H1805 H 0.79303 0.60546 0.50328 0.0
H1806 H 0.78183 0.61678 0.46891 0.0
C1807 C 0.77546 0.62048 0.36443 0.0
C1808 C 0.78784 0.67319 0.40857 0.0
H1809 H 0.8478 0.67186 0.44385 0.0
C1810 C 0.7594 0.67593 0.42058 0.0
C1811 C 0.82019 0.67327 0.41692 0.0
C1812 C 0.85153 0.67207 0.40466 0.0
C1813 C 0.76238 0.67634 0.4408 0.0
C1814 C 0.79452 0.67378 0.44913 0.0
C1815 C 0.82314 0.67344 0.43724 0.0
C1816 C 0.79859 0.66827 0.47007 0.0
C1817 C 0.73116 0.67789 0.45319 0.0
C1818 C 0.81088 0.69384 0.48192 0.0
C1819 C 0.81691 0.68764 0.50155 0.0
C1820 C 0.81123 0.65555 0.50947 0.0
C1821 C 0.7977 0.63036 0.49761 0.0
C1822 C 0.79139 0.63673 0.47802 0.0
H1823 H 0.70897 0.68634 0.44473 0.0
H1824 H 0.72577 0.65258 0.45914 0.0
H1825 H 0.7349 0.6951 0.46567 0.0
H1826 H 0.8164 0.71833 0.4759 0.0
H1827 H 0.82734 0.70764 0.51027 0.0
H1828 H 0.1421 0.99505 0.60131 0.0
H1829 H 0.12218 1.02499 0.63007 0.0
H1830 H 0.22301 0.05989 0.64086 0.0
H1831 H 0.24244 1.03129 0.61158 0.0
H1832 H 0.1452 1.00085 0.66257 0.0
H1833 H 0.17092 0.13653 0.66269 0.0
H1834 H 0.16971 0.11245 0.64049 0.0
H1835 H 0.2074 0.11397 0.65494 0.0
C1836 C 0.15949 1.01075 0.60928 0.0
C1837 C 0.19365 1.01115 0.60442 0.0
C1838 C 0.14818 1.02771 0.6257 0.0
C1839 C 0.17108 0.04461 0.63767 0.0
C1840 C 0.2047 0.0477 0.63167 0.0
H1841 H 0.21487 0.06836 0.75593 0.0
H1842 H 0.21151 0.06094 0.72078 0.0
C1843 C 0.21588 1.03126 0.61497 0.0
C1844 C 0.16205 0.05169 0.65811 0.0
H1845 H 0.17245 0.10869 0.69445 0.0
C1846 C 0.15024 1.02477 0.66942 0.0
C1847 C 0.16885 0.08275 0.66708 0.0
C1848 C 0.17959 0.11311 0.65557 0.0
C1849 C 0.14708 1.02745 0.68961 0.0
C1850 C 0.1559 0.05782 0.69865 0.0
C1851 C 0.16603 0.08532 0.68735 0.0
C1852 C 0.15728 0.06063 0.71995 0.0
C1853 C 0.13624 0.99728 0.7013 0.0
C1854 C 0.12778 0.06196 0.731 0.0
C1855 C 0.12954 0.06604 0.75113 0.0
C1856 C 0.16087 0.06894 0.76042 0.0
C1857 C 0.19035 0.06621 0.74927 0.0
C1858 C 0.18852 0.06225 0.72918 0.0
H1859 H 0.13342 0.97454 0.69216 0.0
H1860 H 0.1548 0.99199 0.71295 0.0
H1861 H 0.1118 1.00256 0.70841 0.0
H1862 H 0.10347 0.06067 0.72401 0.0
H1863 H 0.10636 0.06808 0.75928 0.0
H1864 H 0.79074 0.49027 0.86556 0.0
H1865 H 0.76301 0.46426 0.89328 0.0
H1866 H 0.77848 0.36667 0.86794 0.0
H1867 H 0.80649 0.39297 0.83994 0.0
H1868 H 0.71271 0.41622 0.90341 0.0
H1869 H 0.84389 0.37054 0.91457 0.0
H1870 H 0.83426 0.40056 0.89578 0.0
H1871 H 0.8214 0.35772 0.89319 0.0
C1872 C 0.78672 0.46341 0.86547 0.0
C1873 C 0.80086 0.44348 0.85087 0.0
C1874 C 0.77091 0.44853 0.88129 0.0
C1875 C 0.76946 0.41353 0.88282 0.0
C1876 C 0.77978 0.39372 0.86706 0.0
H1877 H 0.75878 0.3591 0.00707 0.0
H1878 H 0.76195 0.34841 0.97206 0.0
C1879 C 0.79544 0.40874 0.85104 0.0
C1880 C 0.76392 0.39914 0.90233 0.0
H1881 H 0.81012 0.37659 0.94205 0.0
C1882 C 0.73358 0.40636 0.91177 0.0
C1883 C 0.79132 0.38634 0.91319 0.0
C1884 C 0.82466 0.37835 0.90379 0.0
C1885 C 0.73096 0.40422 0.93204 0.0
C1886 C 0.75944 0.39484 0.94298 0.0
C1887 C 0.78857 0.38414 0.93347 0.0
C1888 C 0.76088 0.40076 0.96407 0.0
C1889 C 0.69852 0.41423 0.94174 0.0
C1890 C 0.76111 0.43376 0.971 0.0
C1891 C 0.75969 0.44004 -0.0091 0.0
C1892 C 0.75781 0.41333 0.0042 0.0
C1893 C 0.75995 0.38024 -0.0028 0.0
C1894 C 0.76157 0.37401 0.97724 0.0
H1895 H 0.6769 0.41194 0.93164 0.0
H1896 H 0.69369 0.39861 0.95483 0.0
H1897 H 0.70027 0.44076 0.94642 0.0
H1898 H 0.76129 0.45468 0.96094 0.0
H1899 H 0.75818 0.46578 -0.00424 0.0
H1900 H 0.37171 0.03255 0.26064 0.0
H1901 H 0.37695 0.04178 0.22562 0.0
H1902 H 0.46794 0.98334 0.22469 0.0
H1903 H 0.46301 0.9739 0.25968 0.0
H1904 H 0.43084 0.06634 0.20068 0.0
H1905 H 0.39906 0.93177 0.18962 0.0
H1906 H 0.39232 0.95276 0.21252 0.0
H1907 H 0.43398 0.94121 0.20525 0.0
C1908 C 0.39331 1.02243 0.25311 0.0
C1909 C 0.41657 1.00195 0.2628 0.0
C1910 C 0.3962 1.0276 0.23311 0.0
C1911 C 0.42236 1.01246 0.22267 0.0
C1912 C 0.44724 0.99457 0.23255 0.0
H1913 H 0.42746 0.06371 0.10059 0.0
H1914 H 0.44997 0.03634 0.12966 0.0
C1915 C 0.44439 0.98936 0.25251 0.0
C1916 C 0.42185 1.01331 0.20131 0.0
H1917 H 0.403 0.96554 0.16168 0.0
C1918 C 0.42539 0.04429 0.19205 0.0
C1919 C 0.41441 0.98432 0.19032 0.0
C1920 C 0.40948 0.95059 0.19985 0.0
C1921 C 0.42036 0.04745 0.17201 0.0
C1922 C 0.41217 1.01859 0.16102 0.0
C1923 C 0.4098 0.98735 0.17019 0.0
C1924 C 0.40124 1.02183 0.14068 0.0
C1925 C 0.42179 0.08198 0.163 0.0
C1926 C 0.36685 1.01951 0.13651 0.0
C1927 C 0.35406 0.03452 0.11975 0.0
C1928 C 0.37572 0.0519 0.10727 0.0
C1929 C 0.41052 0.05012 0.11009 0.0
C1930 C 0.42332 0.03472 0.12668 0.0
H1931 H 0.42323 0.10207 0.17413 0.0
H1932 H 0.44435 0.08393 0.15359 0.0
H1933 H 0.39936 0.08656 0.15381 0.0
H1934 H 0.34951 1.00955 0.14721 0.0
H1935 H 0.32711 0.03611 0.11786 0.0
H1936 H 0.26877 0.47135 0.62493 0.0
H1937 H 0.23301 0.45264 0.598 0.0
H1938 H 0.30965 0.38213 0.58077 0.0
H1939 H 0.34415 0.3994 0.60775 0.0
H1940 H 0.25063 0.46507 0.56324 0.0
H1941 H 0.2313 0.32967 0.56514 0.0
H1942 H 0.24385 0.35235 0.58663 0.0
H1943 H 0.2749 0.33605 0.56994 0.0
C1944 C 0.27719 0.45091 0.61582 0.0
C1945 C 0.30944 0.43731 0.61807 0.0
C1946 C 0.25681 0.44024 0.60046 0.0
C1947 C 0.2685 0.41582 0.58737 0.0
C1948 C 0.29948 0.4003 0.59085 0.0
H1949 H 0.28464 0.43568 0.4662 0.0
H1950 H 0.28886 0.43552 0.5017 0.0
C1951 C 0.31957 0.4107 0.60613 0.0
C1952 C 0.25297 0.41165 0.56801 0.0
H1953 H 0.24577 0.35314 0.53228 0.0
C1954 C 0.24848 0.44052 0.55663 0.0
C1955 C 0.24932 0.37977 0.55933 0.0
C1956 C 0.24974 0.34783 0.57107 0.0
C1957 C 0.2439 0.43837 0.53651 0.0
C1958 C 0.24528 0.40658 0.5275 0.0
C1959 C 0.24624 0.37761 0.53909 0.0
C1960 C 0.24592 0.40303 0.50612 0.0
C1961 C 0.23831 0.47028 0.52515 0.0
C1962 C 0.2224 0.38249 0.49691 0.0
C1963 C 0.22069 0.38164 0.47672 0.0
C1964 C 0.24215 0.40177 0.46533 0.0
C1965 C 0.26746 0.42029 0.47455 0.0
C1966 C 0.26955 0.42061 0.49482 0.0
H1967 H 0.22628 0.48975 0.53434 0.0
H1968 H 0.26287 0.4803 0.52023 0.0
H1969 H 0.22226 0.46594 0.51221 0.0
H1970 H 0.20432 0.36826 0.50532 0.0
H1971 H 0.20113 0.36665 0.47012 0.0
H1972 H 0.84046 0.0379 0.35769 0.0
H1973 H 0.86038 1.0075 0.32922 0.0
H1974 H 0.95805 0.05311 0.33551 0.0
H1975 H 0.93737 0.08494 0.36338 0.0
H1976 H 0.92969 0.07259 0.30376 0.0
H1977 H 0.91695 0.93544 0.30646 0.0
H1978 H 0.87925 0.95416 0.31553 0.0
H1979 H 0.91828 0.96054 0.32828 0.0
C1980 C 0.8666 0.04007 0.35351 0.0
C1981 C 0.8874 0.06381 0.36234 0.0
C1982 C 0.87813 1.02249 0.33733 0.0
C1983 C 0.91075 1.02809 0.3302 0.0
C1984 C 0.93282 0.04849 0.34076 0.0
H1985 H 0.95241 1.00655 0.20533 0.0
H1986 H 0.96271 1.01448 0.24004 0.0
C1987 C 0.92104 0.06666 0.35661 0.0
C1988 C 0.91809 1.02068 0.30962 0.0
H1989 H 0.90549 0.96179 0.2746 0.0
C1990 C 0.92552 0.04806 0.29746 0.0
C1991 C 0.91244 0.98881 0.30137 0.0
C1992 C 0.90664 0.95808 0.31369 0.0
C1993 C 0.92477 0.04501 0.27724 0.0
C1994 C 0.91651 1.01379 0.26906 0.0
C1995 C 0.91134 0.98583 0.28109 0.0
C1996 C 0.91044 1.01042 0.24813 0.0
C1997 C 0.93055 0.07561 0.26474 0.0
C1998 C 0.87754 1.00638 0.24138 0.0
C1999 C 0.87146 1.00207 0.22161 0.0
C2000 C 0.89832 1.00143 0.20837 0.0
C2001 C 0.93118 1.00685 0.21518 0.0
C2002 C 0.93719 1.01123 0.23496 0.0
H2003 H 0.93364 0.09874 0.27351 0.0
H2004 H 0.95353 0.07202 0.25585 0.0
H2005 H 0.90918 0.07918 0.25459 0.0
H2006 H 0.85664 1.00604 0.25148 0.0
H2007 H 0.84591 0.99782 0.21684 0.0
H2008 H 0.28256 0.57714 0.11067 0.0
H2009 H 0.30835 0.6 0.08119 0.0
H2010 H 0.26947 0.69792 0.09524 0.0
H2011 H 0.24287 0.67476 0.12435 0.0
H2012 H 0.24325 0.67318 0.06241 0.0
H2013 H 0.38133 0.66035 0.05953 0.0
H2014 H 0.36147 0.62254 0.06772 0.0
H2015 H 0.35822 0.65995 0.08217 0.0
C2016 C 0.28122 0.60385 0.10796 0.0
C2017 C 0.26099 0.62436 0.11958 0.0
C2018 C 0.29593 0.61695 0.09114 0.0
C2019 C 0.29077 0.65068 0.08604 0.0
C2020 C 0.27379 0.67189 0.09896 0.0
H2021 H 0.34696 0.70855 0.96792 0.0
H2022 H 0.33649 0.71352 0.00275 0.0
C2023 C 0.25877 0.65872 0.11558 0.0
C2024 C 0.29585 0.66146 0.06571 0.0
H2025 H 0.35233 0.66048 0.02851 0.0
C2026 C 0.26731 0.67118 0.0551 0.0
C2027 C 0.32715 0.6589 0.05621 0.0
C2028 C 0.35883 0.65019 0.06706 0.0
C2029 C 0.26888 0.67655 0.03502 0.0
C2030 C 0.29966 0.67163 0.02533 0.0
C2031 C 0.32864 0.66388 0.03604 0.0
C2032 C 0.30191 0.67187 0.00395 0.0
C2033 C 0.23744 0.68657 0.02428 0.0
C2034 C 0.28508 0.64735 -0.00691 0.0
C2035 C 0.29098 0.64435 0.97316 0.0
C2036 C 0.31406 0.66567 0.96389 0.0
C2037 C 0.32924 0.69152 0.97466 0.0
C2038 C 0.32337 0.69443 -0.00545 0.0
H2039 H 0.21893 0.69858 0.03415 0.0
H2040 H 0.24325 0.7041 0.01218 0.0
H2041 H 0.22557 0.66387 0.01803 0.0
H2042 H 0.2687 0.62946 0.0002 0.0
H2043 H 0.27895 0.62417 0.96531 0.0
H2044 H 0.72386 1.02405 0.85898 0.0
H2045 H 0.70228 0.05467 0.83095 0.0
H2046 H 0.60459 1.01027 0.83984 0.0
H2047 H 0.62689 0.97822 0.86726 0.0
H2048 H 0.62994 0.99053 0.80747 0.0
H2049 H 0.64541 0.12727 0.8092 0.0
H2050 H 0.68344 0.10827 0.81757 0.0
H2051 H 0.64512 0.1024 0.83118 0.0
C2052 C 0.69741 1.02221 0.85547 0.0
C2053 C 0.67697 0.99876 0.86489 0.0
C2054 C 0.68493 0.03992 0.83955 0.0
C2055 C 0.65176 0.03473 0.83326 0.0
C2056 C 0.63023 1.0146 0.84444 0.0
H2057 H 0.61033 0.0574 0.70811 0.0
H2058 H 0.59844 0.04977 0.74272 0.0
C2059 C 0.64293 0.99631 0.86003 0.0
C2060 C 0.6431 0.0422 0.81284 0.0
H2061 H 0.6561 0.1003 0.77728 0.0
C2062 C 0.63445 1.01489 0.80096 0.0
C2063 C 0.64906 0.07385 0.80431 0.0
C2064 C 0.65592 0.10461 0.81634 0.0
C2065 C 0.6347 1.01767 0.78071 0.0
C2066 C 0.64373 0.0485 0.77224 0.0
C2067 C 0.64971 0.07652 0.784 0.0
C2068 C 0.65056 0.05114 0.75134 0.0
C2069 C 0.62785 0.98709 0.76847 0.0
C2070 C 0.68385 0.05338 0.74491 0.0
C2071 C 0.69083 0.05749 0.72521 0.0
C2072 C 0.6645 0.05973 0.7117 0.0
C2073 C 0.63117 0.05586 0.71817 0.0
C2074 C 0.62426 0.05168 0.7379 0.0
H2075 H 0.62296 0.96443 0.77744 0.0
H2076 H 0.60566 0.99171 0.7591 0.0
H2077 H 0.64957 0.98206 0.75877 0.0
H2078 H 0.70439 0.05261 0.75522 0.0
H2079 H 0.71673 0.06044 0.72072 0.0
loop_
_geom_bond_atom_site_label_1
_geom_bond_atom_site_label_2
_geom_bond_distance
_geom_bond_site_symmetry_2
_ccdc_geom_bond_type
Fe0 O2 1.918 . S
Fe0 O5 1.997 . S
Fe0 O6 2.002 . S
Fe0 O11 1.976 . S
Fe0 O14 1.996 . S
Fe1 O2 1.918 . S
Fe1 O9 1.997 . S
Fe1 O12 1.996 . S
Fe1 O16 1.976 . S
Fe1 O19 2.002 . S
O2 Fe0 1.918 . S
O2 Fe1 1.918 . S
O2 Fe3 1.918 . S
Fe3 O2 1.918 . S
Fe3 O4 2.002 . S
Fe3 O13 1.976 . S
Fe3 O17 1.996 . S
Fe3 O20 1.997 . S
O4 Fe3 2.002 . S
O4 C21 1.295 . S
O5 Fe0 1.997 . S
O5 C21 1.235 . S
O6 Fe0 2.002 . S
O6 C7 1.295 . S
C7 O6 1.295 . S
C7 O9 1.235 . S
C8 O13 1.287 . S
C8 O14 1.255 . S
O9 Fe1 1.997 . S
O9 C7 1.235 . S
C10 O16 1.287 . S
C10 O17 1.255 . S
O11 Fe0 1.976 . S
O11 C18 1.287 . S
O12 Fe1 1.996 . S
O12 C18 1.255 . S
O13 Fe3 1.976 . S
O13 C8 1.287 . S
O14 Fe0 1.996 . S
O14 C8 1.255 . S
C15 O19 1.295 . S
C15 O20 1.235 . S
O16 Fe1 1.976 . S
O16 C10 1.287 . S
O17 Fe3 1.996 . S
O17 C10 1.255 . S
C18 O11 1.287 . S
C18 O12 1.255 . S
O19 Fe1 2.002 . S
O19 C15 1.295 . S
O20 Fe3 1.997 . S
O20 C15 1.235 . S
C21 O4 1.295 . S
C21 O5 1.235 . S
Fe22 O24 1.918 . S
Fe22 O27 1.997 . S
Fe22 O28 2.002 . S
Fe22 O33 1.976 . S
Fe22 O36 1.996 . S
Fe23 O24 1.918 . S
Fe23 O31 1.997 . S
Fe23 O34 1.996 . S
Fe23 O38 1.976 . S
Fe23 O41 2.002 . S
O24 Fe22 1.918 . S
O24 Fe23 1.918 . S
O24 Fe25 1.918 . S
Fe25 O24 1.918 . S
Fe25 O26 2.002 . S
Fe25 O35 1.976 . S
Fe25 O39 1.996 . S
Fe25 O42 1.997 . S
O26 Fe25 2.002 . S
O26 C43 1.295 . S
O27 Fe22 1.997 . S
O27 C43 1.235 . S
O28 Fe22 2.002 . S
O28 C29 1.295 . S
C29 O28 1.295 . S
C29 O31 1.235 . S
C30 O35 1.287 . S
C30 O36 1.255 . S
O31 Fe23 1.997 . S
O31 C29 1.235 . S
C32 O38 1.287 . S
C32 O39 1.255 . S
O33 Fe22 1.976 . S
O33 C40 1.287 . S
O34 Fe23 1.996 . S
O34 C40 1.255 . S
O35 Fe25 1.976 . S
O35 C30 1.287 . S
O36 Fe22 1.996 . S
O36 C30 1.255 . S
C37 O41 1.295 . S
C37 O42 1.235 . S
O38 Fe23 1.976 . S
O38 C32 1.287 . S
O39 Fe25 1.996 . S
O39 C32 1.255 . S
C40 O33 1.287 . S
C40 O34 1.255 . S
O41 Fe23 2.002 . S
O41 C37 1.295 . S
O42 Fe25 1.997 . S
O42 C37 1.235 . S
C43 O26 1.295 . S
C43 O27 1.235 . S
Fe44 O46 1.918 . S
Fe44 O49 1.997 . S
Fe44 O50 2.002 . S
Fe44 O55 1.976 . S
Fe44 O58 1.996 . S
Fe45 O46 1.918 . S
Fe45 O53 1.997 . S
Fe45 O56 1.996 . S
Fe45 O60 1.976 . S
Fe45 O63 2.002 . S
O46 Fe44 1.918 . S
O46 Fe45 1.918 . S
O46 Fe47 1.918 . S
Fe47 O46 1.918 . S
Fe47 O48 2.002 . S
Fe47 O57 1.976 . S
Fe47 O61 1.996 . S
Fe47 O64 1.997 . S
O48 Fe47 2.002 . S
O48 C65 1.295 . S
O49 Fe44 1.997 . S
O49 C65 1.235 . S
O50 Fe44 2.002 . S
O50 C51 1.295 . S
C51 O50 1.295 . S
C51 O53 1.235 . S
C52 O57 1.287 . S
C52 O58 1.255 . S
O53 Fe45 1.997 . S
O53 C51 1.235 . S
C54 O60 1.287 . S
C54 O61 1.255 . S
O55 Fe44 1.976 . S
O55 C62 1.287 . S
O56 Fe45 1.996 . S
O56 C62 1.255 . S
O57 Fe47 1.976 . S
O57 C52 1.287 . S
O58 Fe44 1.996 . S
O58 C52 1.255 . S
C59 O63 1.295 . S
C59 O64 1.235 . S
O60 Fe45 1.976 . S
O60 C54 1.287 . S
O61 Fe47 1.996 . S
O61 C54 1.255 . S
C62 O55 1.287 . S
C62 O56 1.255 . S
O63 Fe45 2.002 . S
O63 C59 1.295 . S
O64 Fe47 1.997 . S
O64 C59 1.235 . S
C65 O48 1.295 . S
C65 O49 1.235 . S
Fe66 O68 1.918 . S
Fe66 O71 1.997 . S
Fe66 O72 2.002 . S
Fe66 O77 1.976 . S
Fe66 O80 1.996 . S
Fe67 O68 1.918 . S
Fe67 O75 1.997 . S
Fe67 O78 1.996 . S
Fe67 O82 1.976 . S
Fe67 O85 2.002 . S
O68 Fe66 1.918 . S
O68 Fe67 1.918 . S
O68 Fe69 1.918 . S
Fe69 O68 1.918 . S
Fe69 O70 2.002 . S
Fe69 O79 1.976 . S
Fe69 O83 1.996 . S
Fe69 O86 1.997 . S
O70 Fe69 2.002 . S
O70 C87 1.295 . S
O71 Fe66 1.997 . S
O71 C87 1.235 . S
O72 Fe66 2.002 . S
O72 C73 1.295 . S
C73 O72 1.295 . S
C73 O75 1.235 . S
C74 O79 1.287 . S
C74 O80 1.255 . S
O75 Fe67 1.997 . S
O75 C73 1.235 . S
C76 O82 1.287 . S
C76 O83 1.255 . S
O77 Fe66 1.976 . S
O77 C84 1.287 . S
O78 Fe67 1.996 . S
O78 C84 1.255 . S
O79 Fe69 1.976 . S
O79 C74 1.287 . S
O80 Fe66 1.996 . S
O80 C74 1.255 . S
C81 O85 1.295 . S
C81 O86 1.235 . S
O82 Fe67 1.976 . S
O82 C76 1.287 . S
O83 Fe69 1.996 . S
O83 C76 1.255 . S
C84 O77 1.287 . S
C84 O78 1.255 . S
O85 Fe67 2.002 . S
O85 C81 1.295 . S
O86 Fe69 1.997 . S
O86 C81 1.235 . S
C87 O70 1.295 . S
C87 O71 1.235 . S
Fe88 O90 1.918 . S
Fe88 O93 1.997 . S
Fe88 O94 2.002 . S
Fe88 O99 1.976 . S
Fe88 O102 1.996 . S
Fe89 O90 1.918 . S
Fe89 O97 1.997 . S
Fe89 O100 1.996 . S
Fe89 O104 1.976 . S
Fe89 O107 2.002 . S
O90 Fe88 1.918 . S
O90 Fe89 1.918 . S
O90 Fe91 1.918 . S
Fe91 O90 1.918 . S
Fe91 O92 2.002 . S
Fe91 O101 1.976 . S
Fe91 O105 1.996 . S
Fe91 O108 1.997 . S
O92 Fe91 2.002 . S
O92 C109 1.295 . S
O93 Fe88 1.997 . S
O93 C109 1.235 . S
O94 Fe88 2.002 . S
O94 C95 1.295 . S
C95 O94 1.295 . S
C95 O97 1.235 . S
C96 O101 1.287 . S
C96 O102 1.255 . S
O97 Fe89 1.997 . S
O97 C95 1.235 . S
C98 O104 1.287 . S
C98 O105 1.255 . S
O99 Fe88 1.976 . S
O99 C106 1.287 . S
O100 Fe89 1.996 . S
O100 C106 1.255 . S
O101 Fe91 1.976 . S
O101 C96 1.287 . S
O102 Fe88 1.996 . S
O102 C96 1.255 . S
C103 O107 1.295 . S
C103 O108 1.235 . S
O104 Fe89 1.976 . S
O104 C98 1.287 . S
O105 Fe91 1.996 . S
O105 C98 1.255 . S
C106 O99 1.287 . S
C106 O100 1.255 . S
O107 Fe89 2.002 . S
O107 C103 1.295 . S
O108 Fe91 1.997 . S
O108 C103 1.235 . S
C109 O92 1.295 . S
C109 O93 1.235 . S
Fe110 O112 1.918 . S
Fe110 O115 1.997 . S
Fe110 O116 2.002 . S
Fe110 O121 1.976 . S
Fe110 O124 1.996 . S
Fe111 O112 1.918 . S
Fe111 O119 1.997 . S
Fe111 O122 1.996 . S
Fe111 O126 1.976 . S
Fe111 O129 2.002 . S
O112 Fe110 1.918 . S
O112 Fe111 1.918 . S
O112 Fe113 1.918 . S
Fe113 O112 1.918 . S
Fe113 O114 2.002 . S
Fe113 O123 1.976 . S
Fe113 O127 1.996 . S
Fe113 O130 1.997 . S
O114 Fe113 2.002 . S
O114 C131 1.295 . S
O115 Fe110 1.997 . S
O115 C131 1.235 . S
O116 Fe110 2.002 . S
O116 C117 1.295 . S
C117 O116 1.295 . S
C117 O119 1.235 . S
C118 O123 1.287 . S
C118 O124 1.255 . S
O119 Fe111 1.997 . S
O119 C117 1.235 . S
C120 O126 1.287 . S
C120 O127 1.255 . S
O121 Fe110 1.976 . S
O121 C128 1.287 . S
O122 Fe111 1.996 . S
O122 C128 1.255 . S
O123 Fe113 1.976 . S
O123 C118 1.287 . S
O124 Fe110 1.996 . S
O124 C118 1.255 . S
C125 O129 1.295 . S
C125 O130 1.235 . S
O126 Fe111 1.976 . S
O126 C120 1.287 . S
O127 Fe113 1.996 . S
O127 C120 1.255 . S
C128 O121 1.287 . S
C128 O122 1.255 . S
O129 Fe111 2.002 . S
O129 C125 1.295 . S
O130 Fe113 1.997 . S
O130 C125 1.235 . S
C131 O114 1.295 . S
C131 O115 1.235 . S
Fe132 O134 1.918 . S
Fe132 O137 1.997 . S
Fe132 O138 2.002 . S
Fe132 O143 1.976 . S
Fe132 O146 1.996 . S
Fe133 O134 1.918 . S
Fe133 O141 1.997 . S
Fe133 O144 1.996 . S
Fe133 O148 1.976 . S
Fe133 O151 2.002 . S
O134 Fe132 1.918 . S
O134 Fe133 1.918 . S
O134 Fe135 1.918 . S
Fe135 O134 1.918 . S
Fe135 O136 2.002 . S
Fe135 O145 1.976 . S
Fe135 O149 1.996 . S
Fe135 O152 1.997 . S
O136 Fe135 2.002 . S
O136 C153 1.295 . S
O137 Fe132 1.997 . S
O137 C153 1.235 . S
O138 Fe132 2.002 . S
O138 C139 1.295 . S
C139 O138 1.295 . S
C139 O141 1.235 . S
C140 O145 1.287 . S
C140 O146 1.255 . S
O141 Fe133 1.997 . S
O141 C139 1.235 . S
C142 O148 1.287 . S
C142 O149 1.255 . S
O143 Fe132 1.976 . S
O143 C150 1.287 . S
O144 Fe133 1.996 . S
O144 C150 1.255 . S
O145 Fe135 1.976 . S
O145 C140 1.287 . S
O146 Fe132 1.996 . S
O146 C140 1.255 . S
C147 O151 1.295 . S
C147 O152 1.235 . S
O148 Fe133 1.976 . S
O148 C142 1.287 . S
O149 Fe135 1.996 . S
O149 C142 1.255 . S
C150 O143 1.287 . S
C150 O144 1.255 . S
O151 Fe133 2.002 . S
O151 C147 1.295 . S
O152 Fe135 1.997 . S
O152 C147 1.235 . S
C153 O136 1.295 . S
C153 O137 1.235 . S
Fe154 O156 1.918 . S
Fe154 O159 1.997 . S
Fe154 O160 2.002 . S
Fe154 O165 1.976 . S
Fe154 O168 1.996 . S
Fe155 O156 1.918 . S
Fe155 O163 1.997 . S
Fe155 O166 1.996 . S
Fe155 O170 1.976 . S
Fe155 O173 2.002 . S
O156 Fe154 1.918 . S
O156 Fe155 1.918 . S
O156 Fe157 1.918 . S
Fe157 O156 1.918 . S
Fe157 O158 2.002 . S
Fe157 O167 1.976 . S
Fe157 O171 1.996 . S
Fe157 O174 1.997 . S
O158 Fe157 2.002 . S
O158 C175 1.295 . S
O159 Fe154 1.997 . S
O159 C175 1.235 . S
O160 Fe154 2.002 . S
O160 C161 1.295 . S
C161 O160 1.295 . S
C161 O163 1.235 . S
C162 O167 1.287 . S
C162 O168 1.255 . S
O163 Fe155 1.997 . S
O163 C161 1.235 . S
C164 O170 1.287 . S
C164 O171 1.255 . S
O165 Fe154 1.976 . S
O165 C172 1.287 . S
O166 Fe155 1.996 . S
O166 C172 1.255 . S
O167 Fe157 1.976 . S
O167 C162 1.287 . S
O168 Fe154 1.996 . S
O168 C162 1.255 . S
C169 O173 1.295 . S
C169 O174 1.235 . S
O170 Fe155 1.976 . S
O170 C164 1.287 . S
O171 Fe157 1.996 . S
O171 C164 1.255 . S
C172 O165 1.287 . S
C172 O166 1.255 . S
O173 Fe155 2.002 . S
O173 C169 1.295 . S
O174 Fe157 1.997 . S
O174 C169 1.235 . S
C175 O158 1.295 . S
C175 O159 1.235 . S
Fe176 O178 1.918 . S
Fe176 O181 1.997 . S
Fe176 O182 2.002 . S
Fe176 O187 1.976 . S
Fe176 O190 1.996 . S
Fe177 O178 1.918 . S
Fe177 O185 1.997 . S
Fe177 O188 1.996 . S
Fe177 O192 1.976 . S
Fe177 O195 2.002 . S
O178 Fe176 1.918 . S
O178 Fe177 1.918 . S
O178 Fe179 1.918 . S
Fe179 O178 1.918 . S
Fe179 O180 2.002 . S
Fe179 O189 1.976 . S
Fe179 O193 1.996 . S
Fe179 O196 1.997 . S
O180 Fe179 2.002 . S
O180 C197 1.295 . S
O181 Fe176 1.997 . S
O181 C197 1.235 . S
O182 Fe176 2.002 . S
O182 C183 1.295 . S
C183 O182 1.295 . S
C183 O185 1.235 . S
C184 O189 1.287 . S
C184 O190 1.255 . S
O185 Fe177 1.997 . S
O185 C183 1.235 . S
C186 O192 1.287 . S
C186 O193 1.255 . S
O187 Fe176 1.976 . S
O187 C194 1.287 . S
O188 Fe177 1.996 . S
O188 C194 1.255 . S
O189 Fe179 1.976 . S
O189 C184 1.287 . S
O190 Fe176 1.996 . S
O190 C184 1.255 . S
C191 O195 1.295 . S
C191 O196 1.235 . S
O192 Fe177 1.976 . S
O192 C186 1.287 . S
O193 Fe179 1.996 . S
O193 C186 1.255 . S
C194 O187 1.287 . S
C194 O188 1.255 . S
O195 Fe177 2.002 . S
O195 C191 1.295 . S
O196 Fe179 1.997 . S
O196 C191 1.235 . S
C197 O180 1.295 . S
C197 O181 1.235 . S
Fe198 O200 1.918 . S
Fe198 O203 1.997 . S
Fe198 O204 2.002 . S
Fe198 O209 1.976 . S
Fe198 O212 1.996 . S
Fe199 O200 1.918 . S
Fe199 O207 1.997 . S
Fe199 O210 1.996 . S
Fe199 O214 1.976 . S
Fe199 O217 2.002 . S
O200 Fe198 1.918 . S
O200 Fe199 1.918 . S
O200 Fe201 1.918 . S
Fe201 O200 1.918 . S
Fe201 O202 2.002 . S
Fe201 O211 1.976 . S
Fe201 O215 1.996 . S
Fe201 O218 1.997 . S
O202 Fe201 2.002 . S
O202 C219 1.295 . S
O203 Fe198 1.997 . S
O203 C219 1.235 . S
O204 Fe198 2.002 . S
O204 C205 1.295 . S
C205 O204 1.295 . S
C205 O207 1.235 . S
C206 O211 1.287 . S
C206 O212 1.255 . S
O207 Fe199 1.997 . S
O207 C205 1.235 . S
C208 O214 1.287 . S
C208 O215 1.255 . S
O209 Fe198 1.976 . S
O209 C216 1.287 . S
O210 Fe199 1.996 . S
O210 C216 1.255 . S
O211 Fe201 1.976 . S
O211 C206 1.287 . S
O212 Fe198 1.996 . S
O212 C206 1.255 . S
C213 O217 1.295 . S
C213 O218 1.235 . S
O214 Fe199 1.976 . S
O214 C208 1.287 . S
O215 Fe201 1.996 . S
O215 C208 1.255 . S
C216 O209 1.287 . S
C216 O210 1.255 . S
O217 Fe199 2.002 . S
O217 C213 1.295 . S
O218 Fe201 1.997 . S
O218 C213 1.235 . S
C219 O202 1.295 . S
C219 O203 1.235 . S
Fe220 O222 1.918 . S
Fe220 O225 1.997 . S
Fe220 O226 2.002 . S
Fe220 O231 1.976 . S
Fe220 O234 1.996 . S
Fe221 O222 1.918 . S
Fe221 O229 1.997 . S
Fe221 O232 1.996 . S
Fe221 O236 1.976 . S
Fe221 O239 2.002 . S
O222 Fe220 1.918 . S
O222 Fe221 1.918 . S
O222 Fe223 1.918 . S
Fe223 O222 1.918 . S
Fe223 O224 2.002 . S
Fe223 O233 1.976 . S
Fe223 O237 1.996 . S
Fe223 O240 1.997 . S
O224 Fe223 2.002 . S
O224 C241 1.295 . S
O225 Fe220 1.997 . S
O225 C241 1.235 . S
O226 Fe220 2.002 . S
O226 C227 1.295 . S
C227 O226 1.295 . S
C227 O229 1.235 . S
C228 O233 1.287 . S
C228 O234 1.255 . S
O229 Fe221 1.997 . S
O229 C227 1.235 . S
C230 O236 1.287 . S
C230 O237 1.255 . S
O231 Fe220 1.976 . S
O231 C238 1.287 . S
O232 Fe221 1.996 . S
O232 C238 1.255 . S
O233 Fe223 1.976 . S
O233 C228 1.287 . S
O234 Fe220 1.996 . S
O234 C228 1.255 . S
C235 O239 1.295 . S
C235 O240 1.235 . S
O236 Fe221 1.976 . S
O236 C230 1.287 . S
O237 Fe223 1.996 . S
O237 C230 1.255 . S
C238 O231 1.287 . S
C238 O232 1.255 . S
O239 Fe221 2.002 . S
O239 C235 1.295 . S
O240 Fe223 1.997 . S
O240 C235 1.235 . S
C241 O224 1.295 . S
C241 O225 1.235 . S
Fe242 O244 1.918 . S
Fe242 O247 1.997 . S
Fe242 O248 2.002 . S
Fe242 O253 1.976 . S
Fe242 O256 1.996 . S
Fe243 O244 1.918 . S
Fe243 O251 1.997 . S
Fe243 O254 1.996 . S
Fe243 O258 1.976 . S
Fe243 O261 2.002 . S
O244 Fe242 1.918 . S
O244 Fe243 1.918 . S
O244 Fe245 1.918 . S
Fe245 O244 1.918 . S
Fe245 O246 2.002 . S
Fe245 O255 1.976 . S
Fe245 O259 1.996 . S
Fe245 O262 1.997 . S
O246 Fe245 2.002 . S
O246 C263 1.295 . S
O247 Fe242 1.997 . S
O247 C263 1.235 . S
O248 Fe242 2.002 . S
O248 C249 1.295 . S
C249 O248 1.295 . S
C249 O251 1.235 . S
C250 O255 1.287 . S
C250 O256 1.255 . S
O251 Fe243 1.997 . S
O251 C249 1.235 . S
C252 O258 1.287 . S
C252 O259 1.255 . S
O253 Fe242 1.976 . S
O253 C260 1.287 . S
O254 Fe243 1.996 . S
O254 C260 1.255 . S
O255 Fe245 1.976 . S
O255 C250 1.287 . S
O256 Fe242 1.996 . S
O256 C250 1.255 . S
C257 O261 1.295 . S
C257 O262 1.235 . S
O258 Fe243 1.976 . S
O258 C252 1.287 . S
O259 Fe245 1.996 . S
O259 C252 1.255 . S
C260 O253 1.287 . S
C260 O254 1.255 . S
O261 Fe243 2.002 . S
O261 C257 1.295 . S
O262 Fe245 1.997 . S
O262 C257 1.235 . S
C263 O246 1.295 . S
C263 O247 1.235 . S
Fe264 O266 1.918 . S
Fe264 O269 1.997 . S
Fe264 O270 2.002 . S
Fe264 O275 1.976 . S
Fe264 O278 1.996 . S
Fe265 O266 1.918 . S
Fe265 O273 1.997 . S
Fe265 O276 1.996 . S
Fe265 O280 1.976 . S
Fe265 O283 2.002 . S
O266 Fe264 1.918 . S
O266 Fe265 1.918 . S
O266 Fe267 1.918 . S
Fe267 O266 1.918 . S
Fe267 O268 2.002 . S
Fe267 O277 1.976 . S
Fe267 O281 1.996 . S
Fe267 O284 1.997 . S
O268 Fe267 2.002 . S
O268 C285 1.295 . S
O269 Fe264 1.997 . S
O269 C285 1.235 . S
O270 Fe264 2.002 . S
O270 C271 1.295 . S
C271 O270 1.295 . S
C271 O273 1.235 . S
C272 O277 1.287 . S
C272 O278 1.255 . S
O273 Fe265 1.997 . S
O273 C271 1.235 . S
C274 O280 1.287 . S
C274 O281 1.255 . S
O275 Fe264 1.976 . S
O275 C282 1.287 . S
O276 Fe265 1.996 . S
O276 C282 1.255 . S
O277 Fe267 1.976 . S
O277 C272 1.287 . S
O278 Fe264 1.996 . S
O278 C272 1.255 . S
C279 O283 1.295 . S
C279 O284 1.235 . S
O280 Fe265 1.976 . S
O280 C274 1.287 . S
O281 Fe267 1.996 . S
O281 C274 1.255 . S
C282 O275 1.287 . S
C282 O276 1.255 . S
O283 Fe265 2.002 . S
O283 C279 1.295 . S
O284 Fe267 1.997 . S
O284 C279 1.235 . S
C285 O268 1.295 . S
C285 O269 1.235 . S
Fe286 O288 1.918 . S
Fe286 O291 1.997 . S
Fe286 O292 2.002 . S
Fe286 O297 1.976 . S
Fe286 O300 1.996 . S
Fe287 O288 1.918 . S
Fe287 O295 1.997 . S
Fe287 O298 1.996 . S
Fe287 O302 1.976 . S
Fe287 O305 2.002 . S
O288 Fe286 1.918 . S
O288 Fe287 1.918 . S
O288 Fe289 1.918 . S
Fe289 O288 1.918 . S
Fe289 O290 2.002 . S
Fe289 O299 1.976 . S
Fe289 O303 1.996 . S
Fe289 O306 1.997 . S
O290 Fe289 2.002 . S
O290 C307 1.295 . S
O291 Fe286 1.997 . S
O291 C307 1.235 . S
O292 Fe286 2.002 . S
O292 C293 1.295 . S
C293 O292 1.295 . S
C293 O295 1.235 . S
C294 O299 1.287 . S
C294 O300 1.255 . S
O295 Fe287 1.997 . S
O295 C293 1.235 . S
C296 O302 1.287 . S
C296 O303 1.255 . S
O297 Fe286 1.976 . S
O297 C304 1.287 . S
O298 Fe287 1.996 . S
O298 C304 1.255 . S
O299 Fe289 1.976 . S
O299 C294 1.287 . S
O300 Fe286 1.996 . S
O300 C294 1.255 . S
C301 O305 1.295 . S
C301 O306 1.235 . S
O302 Fe287 1.976 . S
O302 C296 1.287 . S
O303 Fe289 1.996 . S
O303 C296 1.255 . S
C304 O297 1.287 . S
C304 O298 1.255 . S
O305 Fe287 2.002 . S
O305 C301 1.295 . S
O306 Fe289 1.997 . S
O306 C301 1.235 . S
C307 O290 1.295 . S
C307 O291 1.235 . S
Fe308 O310 1.918 . S
Fe308 O313 1.997 . S
Fe308 O314 2.002 . S
Fe308 O319 1.976 . S
Fe308 O322 1.996 . S
Fe309 O310 1.918 . S
Fe309 O317 1.997 . S
Fe309 O320 1.996 . S
Fe309 O324 1.976 . S
Fe309 O327 2.002 . S
O310 Fe308 1.918 . S
O310 Fe309 1.918 . S
O310 Fe311 1.918 . S
Fe311 O310 1.918 . S
Fe311 O312 2.002 . S
Fe311 O321 1.976 . S
Fe311 O325 1.996 . S
Fe311 O328 1.997 . S
O312 Fe311 2.002 . S
O312 C329 1.295 . S
O313 Fe308 1.997 . S
O313 C329 1.235 . S
O314 Fe308 2.002 . S
O314 C315 1.295 . S
C315 O314 1.295 . S
C315 O317 1.235 . S
C316 O321 1.287 . S
C316 O322 1.255 . S
O317 Fe309 1.997 . S
O317 C315 1.235 . S
C318 O324 1.287 . S
C318 O325 1.255 . S
O319 Fe308 1.976 . S
O319 C326 1.287 . S
O320 Fe309 1.996 . S
O320 C326 1.255 . S
O321 Fe311 1.976 . S
O321 C316 1.287 . S
O322 Fe308 1.996 . S
O322 C316 1.255 . S
C323 O327 1.295 . S
C323 O328 1.235 . S
O324 Fe309 1.976 . S
O324 C318 1.287 . S
O325 Fe311 1.996 . S
O325 C318 1.255 . S
C326 O319 1.287 . S
C326 O320 1.255 . S
O327 Fe309 2.002 . S
O327 C323 1.295 . S
O328 Fe311 1.997 . S
O328 C323 1.235 . S
C329 O312 1.295 . S
C329 O313 1.235 . S
Fe330 O332 1.918 . S
Fe330 O335 1.997 . S
Fe330 O336 2.002 . S
Fe330 O341 1.976 . S
Fe330 O344 1.996 . S
Fe331 O332 1.918 . S
Fe331 O339 1.997 . S
Fe331 O342 1.996 . S
Fe331 O346 1.976 . S
Fe331 O349 2.002 . S
O332 Fe330 1.918 . S
O332 Fe331 1.918 . S
O332 Fe333 1.918 . S
Fe333 O332 1.918 . S
Fe333 O334 2.002 . S
Fe333 O343 1.976 . S
Fe333 O347 1.996 . S
Fe333 O350 1.997 . S
O334 Fe333 2.002 . S
O334 C351 1.295 . S
O335 Fe330 1.997 . S
O335 C351 1.235 . S
O336 Fe330 2.002 . S
O336 C337 1.295 . S
C337 O336 1.295 . S
C337 O339 1.235 . S
C338 O343 1.287 . S
C338 O344 1.255 . S
O339 Fe331 1.997 . S
O339 C337 1.235 . S
C340 O346 1.287 . S
C340 O347 1.255 . S
O341 Fe330 1.976 . S
O341 C348 1.287 . S
O342 Fe331 1.996 . S
O342 C348 1.255 . S
O343 Fe333 1.976 . S
O343 C338 1.287 . S
O344 Fe330 1.996 . S
O344 C338 1.255 . S
C345 O349 1.295 . S
C345 O350 1.235 . S
O346 Fe331 1.976 . S
O346 C340 1.287 . S
O347 Fe333 1.996 . S
O347 C340 1.255 . S
C348 O341 1.287 . S
C348 O342 1.255 . S
O349 Fe331 2.002 . S
O349 C345 1.295 . S
O350 Fe333 1.997 . S
O350 C345 1.235 . S
C351 O334 1.295 . S
C351 O335 1.235 . S
H352 C360 0.929 . S
H353 C362 0.930 . S
H354 C364 0.930 . S
H355 C367 0.929 . S
H356 C370 0.930 . S
H357 C372 0.960 . S
H358 C372 0.960 . S
H359 C372 0.960 . S
C360 H352 0.929 . S
C360 C361 1.377 . S
C360 C362 1.384 . S
C361 C360 1.377 . S
C361 C367 1.390 . S
C362 H353 0.930 . S
C362 C360 1.384 . S
C362 C363 1.372 . S
C363 C362 1.372 . S
C363 C364 1.400 . S
C363 C368 1.490 . S
C364 H354 0.930 . S
C364 C363 1.400 . S
C364 C367 1.386 . S
H365 C381 0.930 . S
H366 C382 0.931 . S
C367 H355 0.929 . S
C367 C361 1.390 . S
C367 C364 1.386 . S
C368 C363 1.490 . S
C368 C370 1.395 . S
C368 C371 1.403 . S
H369 C375 0.930 . S
C370 H356 0.930 . S
C370 C368 1.395 . S
C370 C373 1.403 . S
C371 C368 1.403 . S
C371 C372 1.524 . S
C371 C375 1.400 . S
C372 H357 0.960 . S
C372 H358 0.960 . S
C372 H359 0.960 . S
C372 C371 1.524 . S
C373 C370 1.403 . S
C373 C374 1.392 . S
C373 C377 1.495 . S
C374 C373 1.392 . S
C374 C375 1.385 . S
C374 C376 1.478 . S
C375 H369 0.930 . S
C375 C371 1.400 . S
C375 C374 1.385 . S
C376 C374 1.478 . S
C376 C378 1.381 . S
C376 C382 1.383 . S
C377 C373 1.495 . S
C377 H383 0.959 . S
C377 H384 0.961 . S
C377 H385 0.960 . S
C378 C376 1.381 . S
C378 C379 1.394 . S
C378 H386 0.930 . S
C379 C378 1.394 . S
C379 C380 1.383 . S
C379 H387 0.929 . S
C380 C379 1.383 . S
C380 C381 1.377 . S
C381 H365 0.930 . S
C381 C380 1.377 . S
C381 C382 1.379 . S
C382 H366 0.931 . S
C382 C376 1.383 . S
C382 C381 1.379 . S
H383 C377 0.959 . S
H384 C377 0.961 . S
H385 C377 0.960 . S
H386 C378 0.930 . S
H387 C379 0.929 . S
H388 C396 0.929 . S
H389 C398 0.930 . S
H390 C400 0.930 . S
H391 C403 0.929 . S
H392 C406 0.930 . S
H393 C408 0.960 . S
H394 C408 0.960 . S
H395 C408 0.960 . S
C396 H388 0.929 . S
C396 C397 1.377 . S
C396 C398 1.384 . S
C397 C396 1.377 . S
C397 C403 1.390 . S
C398 H389 0.930 . S
C398 C396 1.384 . S
C398 C399 1.372 . S
C399 C398 1.372 . S
C399 C400 1.400 . S
C399 C404 1.490 . S
C400 H390 0.930 . S
C400 C399 1.400 . S
C400 C403 1.386 . S
H401 C417 0.930 . S
H402 C418 0.931 . S
C403 H391 0.929 . S
C403 C397 1.390 . S
C403 C400 1.386 . S
C404 C399 1.490 . S
C404 C406 1.395 . S
C404 C407 1.403 . S
H405 C411 0.930 . S
C406 H392 0.930 . S
C406 C404 1.395 . S
C406 C409 1.403 . S
C407 C404 1.403 . S
C407 C408 1.524 . S
C407 C411 1.400 . S
C408 H393 0.960 . S
C408 H394 0.960 . S
C408 H395 0.960 . S
C408 C407 1.524 . S
C409 C406 1.403 . S
C409 C410 1.392 . S
C409 C413 1.495 . S
C410 C409 1.392 . S
C410 C411 1.385 . S
C410 C412 1.478 . S
C411 H405 0.930 . S
C411 C407 1.400 . S
C411 C410 1.385 . S
C412 C410 1.478 . S
C412 C414 1.381 . S
C412 C418 1.383 . S
C413 C409 1.495 . S
C413 H419 0.959 . S
C413 H420 0.961 . S
C413 H421 0.960 . S
C414 C412 1.381 . S
C414 C415 1.394 . S
C414 H422 0.930 . S
C415 C414 1.394 . S
C415 C416 1.383 . S
C415 H423 0.929 . S
C416 C415 1.383 . S
C416 C417 1.377 . S
C417 H401 0.930 . S
C417 C416 1.377 . S
C417 C418 1.379 . S
C418 H402 0.931 . S
C418 C412 1.383 . S
C418 C417 1.379 . S
H419 C413 0.959 . S
H420 C413 0.961 . S
H421 C413 0.960 . S
H422 C414 0.930 . S
H423 C415 0.929 . S
H424 C432 0.929 . S
H425 C434 0.930 . S
H426 C436 0.930 . S
H427 C439 0.929 . S
H428 C442 0.930 . S
H429 C444 0.960 . S
H430 C444 0.960 . S
H431 C444 0.960 . S
C432 H424 0.929 . S
C432 C433 1.377 . S
C432 C434 1.384 . S
C433 C432 1.377 . S
C433 C439 1.390 . S
C434 H425 0.930 . S
C434 C432 1.384 . S
C434 C435 1.372 . S
C435 C434 1.372 . S
C435 C436 1.400 . S
C435 C440 1.490 . S
C436 H426 0.930 . S
C436 C435 1.400 . S
C436 C439 1.386 . S
H437 C453 0.930 . S
H438 C454 0.931 . S
C439 H427 0.929 . S
C439 C433 1.390 . S
C439 C436 1.386 . S
C440 C435 1.490 . S
C440 C442 1.395 . S
C440 C443 1.403 . S
H441 C447 0.930 . S
C442 H428 0.930 . S
C442 C440 1.395 . S
C442 C445 1.403 1_455 S
C443 C440 1.403 . S
C443 C444 1.524 . S
C443 C447 1.400 1_455 S
C444 H429 0.960 . S
C444 H430 0.960 . S
C444 H431 0.960 . S
C444 C443 1.524 . S
C445 C442 1.403 1_655 S
C445 C446 1.392 . S
C445 C449 1.495 . S
C446 C445 1.392 . S
C446 C447 1.385 . S
C446 C448 1.478 . S
C447 H441 0.930 . S
C447 C443 1.400 1_655 S
C447 C446 1.385 . S
C448 C446 1.478 . S
C448 C450 1.381 . S
C448 C454 1.383 . S
C449 C445 1.495 . S
C449 H455 0.959 . S
C449 H456 0.961 . S
C449 H457 0.960 . S
C450 C448 1.381 . S
C450 C451 1.394 . S
C450 H458 0.930 . S
C451 C450 1.394 . S
C451 C452 1.383 . S
C451 H459 0.929 . S
C452 C451 1.383 . S
C452 C453 1.377 . S
C453 H437 0.930 . S
C453 C452 1.377 . S
C453 C454 1.379 . S
C454 H438 0.931 . S
C454 C448 1.383 . S
C454 C453 1.379 . S
H455 C449 0.959 . S
H456 C449 0.961 . S
H457 C449 0.960 . S
H458 C450 0.930 . S
H459 C451 0.929 . S
H460 C468 0.929 . S
H461 C470 0.930 . S
H462 C472 0.930 . S
H463 C475 0.929 . S
H464 C478 0.930 . S
H465 C480 0.960 . S
H466 C480 0.960 . S
H467 C480 0.960 . S
C468 H460 0.929 . S
C468 C469 1.377 . S
C468 C470 1.384 . S
C469 C468 1.377 . S
C469 C475 1.390 . S
C470 H461 0.930 . S
C470 C468 1.384 . S
C470 C471 1.372 . S
C471 C470 1.372 . S
C471 C472 1.400 . S
C471 C476 1.490 . S
C472 H462 0.930 . S
C472 C471 1.400 . S
C472 C475 1.386 . S
H473 C489 0.930 . S
H474 C490 0.931 . S
C475 H463 0.929 . S
C475 C469 1.390 . S
C475 C472 1.386 . S
C476 C471 1.490 . S
C476 C478 1.395 1_455 S
C476 C479 1.403 . S
H477 C483 0.930 . S
C478 H464 0.930 . S
C478 C476 1.395 1_655 S
C478 C481 1.403 . S
C479 C476 1.403 . S
C479 C480 1.524 . S
C479 C483 1.400 . S
C480 H465 0.960 . S
C480 H466 0.960 . S
C480 H467 0.960 . S
C480 C479 1.524 . S
C481 C478 1.403 . S
C481 C482 1.392 . S
C481 C485 1.495 . S
C482 C481 1.392 . S
C482 C483 1.385 1_655 S
C482 C484 1.478 . S
C483 H477 0.930 . S
C483 C479 1.400 . S
C483 C482 1.385 1_455 S
C484 C482 1.478 . S
C484 C486 1.381 . S
C484 C490 1.383 . S
C485 C481 1.495 . S
C485 H491 0.959 . S
C485 H492 0.961 . S
C485 H493 0.960 . S
C486 C484 1.381 . S
C486 C487 1.394 . S
C486 H494 0.930 . S
C487 C486 1.394 . S
C487 C488 1.383 . S
C487 H495 0.929 . S
C488 C487 1.383 . S
C488 C489 1.377 . S
C489 H473 0.930 . S
C489 C488 1.377 . S
C489 C490 1.379 . S
C490 H474 0.931 . S
C490 C484 1.383 . S
C490 C489 1.379 . S
H491 C485 0.959 . S
H492 C485 0.961 . S
H493 C485 0.960 . S
H494 C486 0.930 . S
H495 C487 0.929 . S
H496 C504 0.929 . S
H497 C506 0.930 . S
H498 C508 0.930 . S
H499 C511 0.929 . S
H500 C514 0.930 . S
H501 C516 0.960 . S
H502 C516 0.960 . S
H503 C516 0.960 . S
C504 H496 0.929 . S
C504 C505 1.377 . S
C504 C506 1.384 . S
C505 C504 1.377 . S
C505 C511 1.390 . S
C506 H497 0.930 . S
C506 C504 1.384 . S
C506 C507 1.372 . S
C507 C506 1.372 . S
C507 C508 1.400 . S
C507 C512 1.490 . S
C508 H498 0.930 . S
C508 C507 1.400 . S
C508 C511 1.386 . S
H509 C525 0.930 . S
H510 C526 0.931 . S
C511 H499 0.929 . S
C511 C505 1.390 . S
C511 C508 1.386 . S
C512 C507 1.490 . S
C512 C514 1.395 . S
C512 C515 1.403 . S
H513 C519 0.930 . S
C514 H500 0.930 . S
C514 C512 1.395 . S
C514 C517 1.403 . S
C515 C512 1.403 . S
C515 C516 1.524 . S
C515 C519 1.400 . S
C516 H501 0.960 . S
C516 H502 0.960 . S
C516 H503 0.960 . S
C516 C515 1.524 . S
C517 C514 1.403 . S
C517 C518 1.392 . S
C517 C521 1.495 . S
C518 C517 1.392 . S
C518 C519 1.385 . S
C518 C520 1.478 . S
C519 H513 0.930 . S
C519 C515 1.400 . S
C519 C518 1.385 . S
C520 C518 1.478 . S
C520 C522 1.381 . S
C520 C526 1.383 . S
C521 C517 1.495 . S
C521 H527 0.959 . S
C521 H528 0.961 . S
C521 H529 0.960 . S
C522 C520 1.381 . S
C522 C523 1.394 . S
C522 H530 0.930 . S
C523 C522 1.394 . S
C523 C524 1.383 . S
C523 H531 0.929 . S
C524 C523 1.383 . S
C524 C525 1.377 . S
C525 H509 0.930 . S
C525 C524 1.377 . S
C525 C526 1.379 . S
C526 H510 0.931 . S
C526 C520 1.383 . S
C526 C525 1.379 . S
H527 C521 0.959 . S
H528 C521 0.961 . S
H529 C521 0.960 . S
H530 C522 0.930 . S
H531 C523 0.929 . S
H532 C540 0.929 . S
H533 C542 0.930 . S
H534 C544 0.930 . S
H535 C547 0.929 . S
H536 C550 0.930 . S
H537 C552 0.960 . S
H538 C552 0.960 . S
H539 C552 0.960 . S
C540 H532 0.929 . S
C540 C541 1.377 . S
C540 C542 1.384 . S
C541 C540 1.377 . S
C541 C547 1.390 . S
C542 H533 0.930 . S
C542 C540 1.384 . S
C542 C543 1.372 . S
C543 C542 1.372 . S
C543 C544 1.400 . S
C543 C548 1.490 . S
C544 H534 0.930 . S
C544 C543 1.400 . S
C544 C547 1.386 . S
H545 C561 0.930 . S
H546 C562 0.931 . S
C547 H535 0.929 . S
C547 C541 1.390 . S
C547 C544 1.386 . S
C548 C543 1.490 . S
C548 C550 1.395 . S
C548 C551 1.403 . S
H549 C555 0.930 . S
C550 H536 0.930 . S
C550 C548 1.395 . S
C550 C553 1.403 . S
C551 C548 1.403 . S
C551 C552 1.524 . S
C551 C555 1.400 . S
C552 H537 0.960 . S
C552 H538 0.960 . S
C552 H539 0.960 . S
C552 C551 1.524 . S
C553 C550 1.403 . S
C553 C554 1.392 . S
C553 C557 1.495 . S
C554 C553 1.392 . S
C554 C555 1.385 . S
C554 C556 1.478 . S
C555 H549 0.930 . S
C555 C551 1.400 . S
C555 C554 1.385 . S
C556 C554 1.478 . S
C556 C558 1.381 . S
C556 C562 1.383 . S
C557 C553 1.495 . S
C557 H563 0.959 . S
C557 H564 0.961 . S
C557 H565 0.960 . S
C558 C556 1.381 . S
C558 C559 1.394 . S
C558 H566 0.930 . S
C559 C558 1.394 . S
C559 C560 1.383 . S
C559 H567 0.929 . S
C560 C559 1.383 . S
C560 C561 1.377 . S
C561 H545 0.930 . S
C561 C560 1.377 . S
C561 C562 1.379 . S
C562 H546 0.931 . S
C562 C556 1.383 . S
C562 C561 1.379 . S
H563 C557 0.959 . S
H564 C557 0.961 . S
H565 C557 0.960 . S
H566 C558 0.930 . S
H567 C559 0.929 . S
H568 C576 0.929 . S
H569 C578 0.930 . S
H570 C580 0.930 . S
H571 C583 0.929 . S
H572 C586 0.930 . S
H573 C588 0.960 . S
H574 C588 0.960 . S
H575 C588 0.960 . S
C576 H568 0.929 . S
C576 C577 1.377 . S
C576 C578 1.384 . S
C577 C576 1.377 . S
C577 C583 1.390 . S
C578 H569 0.930 . S
C578 C576 1.384 . S
C578 C579 1.372 . S
C579 C578 1.372 . S
C579 C580 1.400 . S
C579 C584 1.490 . S
C580 H570 0.930 . S
C580 C579 1.400 . S
C580 C583 1.386 . S
H581 C597 0.930 . S
H582 C598 0.931 . S
C583 H571 0.929 . S
C583 C577 1.390 . S
C583 C580 1.386 . S
C584 C579 1.490 . S
C584 C586 1.395 1_455 S
C584 C587 1.403 . S
H585 C591 0.930 . S
C586 H572 0.930 . S
C586 C584 1.395 1_655 S
C586 C589 1.403 . S
C587 C584 1.403 . S
C587 C588 1.524 . S
C587 C591 1.400 1_455 S
C588 H573 0.960 . S
C588 H574 0.960 . S
C588 H575 0.960 . S
C588 C587 1.524 . S
C589 C586 1.403 . S
C589 C590 1.392 . S
C589 C593 1.495 . S
C590 C589 1.392 . S
C590 C591 1.385 . S
C590 C592 1.478 . S
C591 H585 0.930 . S
C591 C587 1.400 1_655 S
C591 C590 1.385 . S
C592 C590 1.478 . S
C592 C594 1.381 . S
C592 C598 1.383 . S
C593 C589 1.495 . S
C593 H599 0.959 . S
C593 H600 0.961 . S
C593 H601 0.960 . S
C594 C592 1.381 . S
C594 C595 1.394 . S
C594 H602 0.930 . S
C595 C594 1.394 . S
C595 C596 1.383 . S
C595 H603 0.929 . S
C596 C595 1.383 . S
C596 C597 1.377 . S
C597 H581 0.930 . S
C597 C596 1.377 . S
C597 C598 1.379 . S
C598 H582 0.931 . S
C598 C592 1.383 . S
C598 C597 1.379 . S
H599 C593 0.959 . S
H600 C593 0.961 . S
H601 C593 0.960 . S
H602 C594 0.930 . S
H603 C595 0.929 . S
H604 C612 0.929 . S
H605 C614 0.912 1_655 S
H606 C616 0.930 . S
H607 C619 0.929 . S
H608 C622 0.930 . S
H609 C624 0.960 . S
H610 C624 0.960 . S
H611 C624 0.960 . S
C612 H604 0.929 . S
C612 C613 1.377 . S
C612 C614 1.384 . S
C613 C612 1.377 . S
C613 C619 1.390 . S
C614 H605 0.912 1_455 S
C614 C612 1.384 . S
C614 C615 1.372 . S
C615 C614 1.372 . S
C615 C616 1.400 . S
C615 C620 1.490 . S
C616 H606 0.930 . S
C616 C615 1.400 . S
C616 C619 1.386 . S
H617 C633 0.930 . S
H618 C634 0.925 1_455 S
C619 H607 0.929 . S
C619 C613 1.390 . S
C619 C616 1.386 . S
C620 C615 1.490 . S
C620 C622 1.395 . S
C620 C623 1.403 . S
H621 C627 0.930 . S
C622 H608 0.930 . S
C622 C620 1.395 . S
C622 C625 1.403 1_455 S
C623 C620 1.403 . S
C623 C624 1.524 . S
C623 C627 1.400 1_455 S
C624 H609 0.960 . S
C624 H610 0.960 . S
C624 H611 0.960 . S
C624 C623 1.524 . S
C625 C622 1.403 1_655 S
C625 C626 1.392 . S
C625 C629 1.495 . S
C626 C625 1.392 . S
C626 C627 1.385 . S
C626 C628 1.478 . S
C627 H621 0.930 . S
C627 C623 1.400 1_655 S
C627 C626 1.385 . S
C628 C626 1.478 . S
C628 C630 1.381 . S
C628 C634 1.383 . S
C629 C625 1.495 . S
C629 H635 0.959 . S
C629 H636 0.961 . S
C629 H637 0.960 . S
C630 C628 1.381 . S
C630 C631 1.394 . S
C630 H638 0.930 . S
C631 C630 1.394 . S
C631 C632 1.383 . S
C631 H639 0.929 . S
C632 C631 1.383 . S
C632 C633 1.377 . S
C633 H617 0.930 . S
C633 C632 1.377 . S
C633 C634 1.379 . S
C634 H618 0.925 1_655 S
C634 C628 1.383 . S
C634 C633 1.379 . S
H635 C629 0.959 . S
H636 C629 0.961 . S
H637 C629 0.960 . S
H638 C630 0.930 . S
H639 C631 0.929 . S
H640 C648 0.929 . S
H641 C650 0.930 1_565 S
H642 C652 0.930 . S
H643 C655 0.929 . S
H644 C658 0.930 1_545 S
H645 C660 0.960 . S
H646 C660 0.960 . S
H647 C660 0.960 . S
C648 H640 0.929 . S
C648 C649 1.377 . S
C648 C650 1.384 . S
C649 C648 1.377 . S
C649 C655 1.390 . S
C650 H641 0.930 1_545 S
C650 C648 1.384 . S
C650 C651 1.372 . S
C651 C650 1.372 . S
C651 C652 1.400 . S
C651 C656 1.490 . S
C652 H642 0.930 . S
C652 C651 1.400 . S
C652 C655 1.386 . S
H653 C669 0.930 . S
H654 C670 0.931 1_545 S
C655 H643 0.929 . S
C655 C649 1.390 . S
C655 C652 1.386 . S
C656 C651 1.490 . S
C656 C658 1.395 1_544 S
C656 C659 1.403 . S
H657 C663 0.930 . S
C658 H644 0.930 1_565 S
C658 C656 1.395 1_566 S
C658 C661 1.403 . S
C659 C656 1.403 . S
C659 C660 1.524 . S
C659 C663 1.400 1_545 S
C660 H645 0.960 . S
C660 H646 0.960 . S
C660 H647 0.960 . S
C660 C659 1.524 . S
C661 C658 1.403 . S
C661 C662 1.392 . S
C661 C665 1.495 . S
C662 C661 1.392 . S
C662 C663 1.385 1_556 S
C662 C664 1.478 . S
C663 H657 0.930 . S
C663 C659 1.400 1_565 S
C663 C662 1.385 1_554 S
C664 C662 1.478 . S
C664 C666 1.381 . S
C664 C670 1.383 . S
C665 C661 1.495 . S
C665 H671 0.959 . S
C665 H672 0.961 . S
C665 H673 0.960 . S
C666 C664 1.381 . S
C666 C667 1.394 . S
C666 H674 0.930 . S
C667 C666 1.394 . S
C667 C668 1.383 . S
C667 H675 0.929 . S
C668 C667 1.383 . S
C668 C669 1.377 . S
C669 H653 0.930 . S
C669 C668 1.377 . S
C669 C670 1.379 . S
C670 H654 0.931 1_565 S
C670 C664 1.383 . S
C670 C669 1.379 . S
H671 C665 0.959 . S
H672 C665 0.961 . S
H673 C665 0.960 . S
H674 C666 0.930 . S
H675 C667 0.929 . S
H676 C684 0.929 . S
H677 C686 0.930 . S
H678 C688 0.930 . S
H679 C691 0.929 . S
H680 C694 0.930 . S
H681 C696 0.960 . S
H682 C696 0.960 . S
H683 C696 0.960 . S
C684 H676 0.929 . S
C684 C685 1.377 . S
C684 C686 1.384 . S
C685 C684 1.377 . S
C685 C691 1.390 . S
C686 H677 0.930 . S
C686 C684 1.384 . S
C686 C687 1.372 . S
C687 C686 1.372 . S
C687 C688 1.400 . S
C687 C692 1.490 . S
C688 H678 0.930 . S
C688 C687 1.400 . S
C688 C691 1.386 . S
H689 C705 0.930 . S
H690 C706 0.931 . S
C691 H679 0.929 . S
C691 C685 1.390 . S
C691 C688 1.386 . S
C692 C687 1.490 . S
C692 C694 1.395 . S
C692 C695 1.403 . S
H693 C699 0.930 . S
C694 H680 0.930 . S
C694 C692 1.395 . S
C694 C697 1.403 . S
C695 C692 1.403 . S
C695 C696 1.524 . S
C695 C699 1.400 . S
C696 H681 0.960 . S
C696 H682 0.960 . S
C696 H683 0.960 . S
C696 C695 1.524 . S
C697 C694 1.403 . S
C697 C698 1.392 . S
C697 C701 1.495 . S
C698 C697 1.392 . S
C698 C699 1.385 . S
C698 C700 1.478 . S
C699 H693 0.930 . S
C699 C695 1.400 . S
C699 C698 1.385 . S
C700 C698 1.478 . S
C700 C702 1.381 . S
C700 C706 1.383 . S
C701 C697 1.495 . S
C701 H707 0.959 . S
C701 H708 0.961 . S
C701 H709 0.960 . S
C702 C700 1.381 . S
C702 C703 1.394 . S
C702 H710 0.930 . S
C703 C702 1.394 . S
C703 C704 1.383 . S
C703 H711 0.929 . S
C704 C703 1.383 . S
C704 C705 1.377 . S
C705 H689 0.930 . S
C705 C704 1.377 . S
C705 C706 1.379 . S
C706 H690 0.931 . S
C706 C700 1.383 . S
C706 C705 1.379 . S
H707 C701 0.959 . S
H708 C701 0.961 . S
H709 C701 0.960 . S
H710 C702 0.930 . S
H711 C703 0.929 . S
H712 C720 0.929 . S
H713 C722 0.930 . S
H714 C724 0.930 . S
H715 C727 0.929 . S
H716 C730 0.930 . S
H717 C732 0.960 . S
H718 C732 0.960 . S
H719 C732 0.960 1_455 S
C720 H712 0.929 . S
C720 C721 1.377 . S
C720 C722 1.384 . S
C721 C720 1.377 . S
C721 C727 1.390 . S
C722 H713 0.930 . S
C722 C720 1.384 . S
C722 C723 1.372 . S
C723 C722 1.372 . S
C723 C724 1.400 . S
C723 C728 1.490 . S
C724 H714 0.930 . S
C724 C723 1.400 . S
C724 C727 1.386 . S
H725 C741 0.930 . S
H726 C742 0.931 . S
C727 H715 0.929 . S
C727 C721 1.390 . S
C727 C724 1.386 . S
C728 C723 1.490 . S
C728 C730 1.395 1_565 S
C728 C731 1.403 1_455 S
H729 C735 0.930 . S
C730 H716 0.930 . S
C730 C728 1.395 1_545 S
C730 C733 1.403 . S
C731 C728 1.403 1_655 S
C731 C732 1.524 . S
C731 C735 1.400 . S
C732 H717 0.960 . S
C732 H718 0.960 . S
C732 H719 0.960 1_655 S
C732 C731 1.524 . S
C733 C730 1.403 . S
C733 C734 1.392 1_455 S
C733 C737 1.495 . S
C734 C733 1.392 1_655 S
C734 C735 1.385 1_545 S
C734 C736 1.478 . S
C735 H729 0.930 . S
C735 C731 1.400 . S
C735 C734 1.385 1_565 S
C736 C734 1.478 . S
C736 C738 1.381 . S
C736 C742 1.383 . S
C737 C733 1.495 . S
C737 H743 0.959 . S
C737 H744 0.961 . S
C737 H745 0.960 1_455 S
C738 C736 1.381 . S
C738 C739 1.394 . S
C738 H746 0.930 . S
C739 C738 1.394 . S
C739 C740 1.383 . S
C739 H747 0.929 . S
C740 C739 1.383 . S
C740 C741 1.377 . S
C741 H725 0.930 . S
C741 C740 1.377 . S
C741 C742 1.379 . S
C742 H726 0.931 . S
C742 C736 1.383 . S
C742 C741 1.379 . S
H743 C737 0.959 . S
H744 C737 0.961 . S
H745 C737 0.960 1_655 S
H746 C738 0.930 . S
H747 C739 0.929 . S
H748 C756 0.929 . S
H749 C758 0.930 . S
H750 C760 0.930 . S
H751 C763 0.929 . S
H752 C766 0.930 . S
H753 C768 0.960 . S
H754 C768 0.960 . S
H755 C768 0.960 . S
C756 H748 0.929 . S
C756 C757 1.377 . S
C756 C758 1.384 . S
C757 C756 1.377 . S
C757 C763 1.390 . S
C758 H749 0.930 . S
C758 C756 1.384 . S
C758 C759 1.372 . S
C759 C758 1.372 . S
C759 C760 1.400 . S
C759 C764 1.490 . S
C760 H750 0.930 . S
C760 C759 1.400 . S
C760 C763 1.386 . S
H761 C777 0.930 . S
H762 C778 0.931 . S
C763 H751 0.929 . S
C763 C757 1.390 . S
C763 C760 1.386 . S
C764 C759 1.490 . S
C764 C766 1.395 . S
C764 C767 1.403 . S
H765 C771 0.930 . S
C766 H752 0.930 . S
C766 C764 1.395 . S
C766 C769 1.403 . S
C767 C764 1.403 . S
C767 C768 1.524 . S
C767 C771 1.400 . S
C768 H753 0.960 . S
C768 H754 0.960 . S
C768 H755 0.960 . S
C768 C767 1.524 . S
C769 C766 1.403 . S
C769 C770 1.392 . S
C769 C773 1.495 . S
C770 C769 1.392 . S
C770 C771 1.385 . S
C770 C772 1.478 . S
C771 H765 0.930 . S
C771 C767 1.400 . S
C771 C770 1.385 . S
C772 C770 1.478 . S
C772 C774 1.381 . S
C772 C778 1.383 . S
C773 C769 1.495 . S
C773 H779 0.959 . S
C773 H780 0.961 . S
C773 H781 0.960 . S
C774 C772 1.381 . S
C774 C775 1.394 . S
C774 H782 0.930 . S
C775 C774 1.394 . S
C775 C776 1.383 . S
C775 H783 0.929 . S
C776 C775 1.383 . S
C776 C777 1.377 . S
C777 H761 0.930 . S
C777 C776 1.377 . S
C777 C778 1.379 . S
C778 H762 0.931 . S
C778 C772 1.383 . S
C778 C777 1.379 . S
H779 C773 0.959 . S
H780 C773 0.961 . S
H781 C773 0.960 . S
H782 C774 0.930 . S
H783 C775 0.929 . S
H784 C792 0.929 . S
H785 C794 0.930 . S
H786 C796 0.930 . S
H787 C799 0.929 . S
H788 C802 0.930 . S
H789 C804 0.960 . S
H790 C804 0.960 . S
H791 C804 0.960 . S
C792 H784 0.929 . S
C792 C793 1.377 . S
C792 C794 1.384 . S
C793 C792 1.377 . S
C793 C799 1.390 . S
C794 H785 0.930 . S
C794 C792 1.384 . S
C794 C795 1.372 . S
C795 C794 1.372 . S
C795 C796 1.400 . S
C795 C800 1.490 . S
C796 H786 0.930 . S
C796 C795 1.400 . S
C796 C799 1.386 . S
H797 C813 0.930 . S
H798 C814 0.931 . S
C799 H787 0.929 . S
C799 C793 1.390 . S
C799 C796 1.386 . S
C800 C795 1.490 . S
C800 C802 1.395 . S
C800 C803 1.403 . S
H801 C807 0.930 . S
C802 H788 0.930 . S
C802 C800 1.395 . S
C802 C805 1.403 . S
C803 C800 1.403 . S
C803 C804 1.524 . S
C803 C807 1.400 . S
C804 H789 0.960 . S
C804 H790 0.960 . S
C804 H791 0.960 . S
C804 C803 1.524 . S
C805 C802 1.403 . S
C805 C806 1.392 . S
C805 C809 1.495 . S
C806 C805 1.392 . S
C806 C807 1.385 . S
C806 C808 1.478 . S
C807 H801 0.930 . S
C807 C803 1.400 . S
C807 C806 1.385 . S
C808 C806 1.478 . S
C808 C810 1.381 . S
C808 C814 1.383 . S
C809 C805 1.495 . S
C809 H815 0.959 . S
C809 H816 0.961 . S
C809 H817 0.960 . S
C810 C808 1.381 . S
C810 C811 1.394 . S
C810 H818 0.930 . S
C811 C810 1.394 . S
C811 C812 1.383 . S
C811 H819 0.929 . S
C812 C811 1.383 . S
C812 C813 1.377 . S
C813 H797 0.930 . S
C813 C812 1.377 . S
C813 C814 1.379 . S
C814 H798 0.931 . S
C814 C808 1.383 . S
C814 C813 1.379 . S
H815 C809 0.959 . S
H816 C809 0.961 . S
H817 C809 0.960 . S
H818 C810 0.930 . S
H819 C811 0.929 . S
H820 C828 0.929 . S
H821 C830 0.930 . S
H822 C832 0.930 . S
H823 C835 0.929 . S
H824 C838 0.930 . S
H825 C840 0.960 . S
H826 C840 0.960 . S
H827 C840 0.960 . S
C828 H820 0.929 . S
C828 C829 1.377 . S
C828 C830 1.384 . S
C829 C828 1.377 . S
C829 C835 1.390 . S
C830 H821 0.930 . S
C830 C828 1.384 . S
C830 C831 1.372 . S
C831 C830 1.372 . S
C831 C832 1.400 . S
C831 C836 1.490 . S
C832 H822 0.930 . S
C832 C831 1.400 . S
C832 C835 1.386 . S
H833 C849 0.930 . S
H834 C850 0.931 . S
C835 H823 0.929 . S
C835 C829 1.390 . S
C835 C832 1.386 . S
C836 C831 1.490 . S
C836 C838 1.395 . S
C836 C839 1.403 . S
H837 C843 0.930 . S
C838 H824 0.930 . S
C838 C836 1.395 . S
C838 C841 1.403 . S
C839 C836 1.403 . S
C839 C840 1.524 . S
C839 C843 1.400 . S
C840 H825 0.960 . S
C840 H826 0.960 . S
C840 H827 0.960 . S
C840 C839 1.524 . S
C841 C838 1.403 . S
C841 C842 1.392 . S
C841 C845 1.495 . S
C842 C841 1.392 . S
C842 C843 1.385 . S
C842 C844 1.478 . S
C843 H837 0.930 . S
C843 C839 1.400 . S
C843 C842 1.385 . S
C844 C842 1.478 . S
C844 C846 1.381 . S
C844 C850 1.383 . S
C845 C841 1.495 . S
C845 H851 0.959 . S
C845 H852 0.961 . S
C845 H853 0.960 . S
C846 C844 1.381 . S
C846 C847 1.394 . S
C846 H854 0.930 . S
C847 C846 1.394 . S
C847 C848 1.383 . S
C847 H855 0.929 . S
C848 C847 1.383 . S
C848 C849 1.377 . S
C849 H833 0.930 . S
C849 C848 1.377 . S
C849 C850 1.379 . S
C850 H834 0.931 . S
C850 C844 1.383 . S
C850 C849 1.379 . S
H851 C845 0.959 . S
H852 C845 0.961 . S
H853 C845 0.960 . S
H854 C846 0.930 . S
H855 C847 0.929 . S
H856 C864 0.929 . S
H857 C866 0.930 . S
H858 C868 0.930 . S
H859 C871 0.929 . S
H860 C874 0.930 . S
H861 C876 0.950 1_655 S
H862 C876 0.971 . S
H863 C876 0.958 1_655 S
C864 H856 0.929 . S
C864 C865 1.377 . S
C864 C866 1.384 . S
C865 C864 1.377 . S
C865 C871 1.390 . S
C866 H857 0.930 . S
C866 C864 1.384 . S
C866 C867 1.372 . S
C867 C866 1.372 . S
C867 C868 1.400 . S
C867 C872 1.490 . S
C868 H858 0.930 . S
C868 C867 1.400 . S
C868 C871 1.386 . S
H869 C885 0.930 . S
H870 C886 0.931 . S
C871 H859 0.929 . S
C871 C865 1.390 . S
C871 C868 1.386 . S
C872 C867 1.490 . S
C872 C874 1.395 . S
C872 C875 1.403 . S
H873 C879 0.930 . S
C874 H860 0.930 . S
C874 C872 1.395 . S
C874 C877 1.403 . S
C875 C872 1.403 . S
C875 C876 1.524 . S
C875 C879 1.400 1_455 S
C876 H861 0.950 1_455 S
C876 H862 0.971 . S
C876 H863 0.958 1_455 S
C876 C875 1.524 . S
C877 C874 1.403 . S
C877 C878 1.392 1_455 S
C877 C881 1.495 . S
C878 C877 1.392 1_655 S
C878 C879 1.385 . S
C878 C880 1.478 . S
C879 H873 0.930 . S
C879 C875 1.400 1_655 S
C879 C878 1.385 . S
C880 C878 1.478 . S
C880 C882 1.381 . S
C880 C886 1.383 . S
C881 C877 1.495 . S
C881 H887 0.959 . S
C881 H888 0.961 1_455 S
C881 H889 0.960 . S
C882 C880 1.381 . S
C882 C883 1.394 . S
C882 H890 0.930 . S
C883 C882 1.394 . S
C883 C884 1.383 . S
C883 H891 0.929 . S
C884 C883 1.383 . S
C884 C885 1.377 . S
C885 H869 0.930 . S
C885 C884 1.377 . S
C885 C886 1.379 . S
C886 H870 0.931 . S
C886 C880 1.383 . S
C886 C885 1.379 . S
H887 C881 0.959 . S
H888 C881 0.961 1_655 S
H889 C881 0.960 . S
H890 C882 0.930 . S
H891 C883 0.929 . S
H892 C900 0.929 . S
H893 C902 0.930 . S
H894 C904 0.930 . S
H895 C907 0.929 . S
H896 C910 0.930 . S
H897 C912 0.960 . S
H898 C912 0.960 . S
H899 C912 0.960 . S
C900 H892 0.929 . S
C900 C901 1.377 . S
C900 C902 1.384 . S
C901 C900 1.377 . S
C901 C907 1.390 . S
C902 H893 0.930 . S
C902 C900 1.384 . S
C902 C903 1.372 . S
C903 C902 1.372 . S
C903 C904 1.400 . S
C903 C908 1.490 . S
C904 H894 0.930 . S
C904 C903 1.400 . S
C904 C907 1.386 . S
H905 C921 0.930 . S
H906 C922 0.931 . S
C907 H895 0.929 . S
C907 C901 1.390 . S
C907 C904 1.386 . S
C908 C903 1.490 . S
C908 C910 1.395 1_554 S
C908 C911 1.403 . S
H909 C915 0.930 . S
C910 H896 0.930 . S
C910 C908 1.395 1_556 S
C910 C913 1.403 . S
C911 C908 1.403 . S
C911 C912 1.524 . S
C911 C915 1.400 . S
C912 H897 0.960 . S
C912 H898 0.960 . S
C912 H899 0.960 . S
C912 C911 1.524 . S
C913 C910 1.403 . S
C913 C914 1.392 . S
C913 C917 1.495 . S
C914 C913 1.392 . S
C914 C915 1.385 1_556 S
C914 C916 1.478 . S
C915 H909 0.930 . S
C915 C911 1.400 . S
C915 C914 1.385 1_554 S
C916 C914 1.478 . S
C916 C918 1.381 . S
C916 C922 1.383 . S
C917 C913 1.495 . S
C917 H923 0.959 . S
C917 H924 0.961 . S
C917 H925 0.960 . S
C918 C916 1.381 . S
C918 C919 1.394 . S
C918 H926 0.930 . S
C919 C918 1.394 . S
C919 C920 1.383 . S
C919 H927 0.929 . S
C920 C919 1.383 . S
C920 C921 1.377 . S
C921 H905 0.930 . S
C921 C920 1.377 . S
C921 C922 1.379 . S
C922 H906 0.931 . S
C922 C916 1.383 . S
C922 C921 1.379 . S
H923 C917 0.959 . S
H924 C917 0.961 . S
H925 C917 0.960 . S
H926 C918 0.930 . S
H927 C919 0.929 . S
H928 C936 0.929 . S
H929 C938 0.930 . S
H930 C940 0.930 . S
H931 C943 0.929 . S
H932 C946 0.930 . S
H933 C948 0.960 . S
H934 C948 0.960 . S
H935 C948 0.960 . S
C936 H928 0.929 . S
C936 C937 1.377 . S
C936 C938 1.384 . S
C937 C936 1.377 . S
C937 C943 1.390 . S
C938 H929 0.930 . S
C938 C936 1.384 . S
C938 C939 1.372 . S
C939 C938 1.372 . S
C939 C940 1.400 . S
C939 C944 1.490 . S
C940 H930 0.930 . S
C940 C939 1.400 . S
C940 C943 1.386 . S
H941 C957 0.930 . S
H942 C958 0.931 . S
C943 H931 0.929 . S
C943 C937 1.390 . S
C943 C940 1.386 . S
C944 C939 1.490 . S
C944 C946 1.395 . S
C944 C947 1.403 . S
H945 C951 0.930 . S
C946 H932 0.930 . S
C946 C944 1.395 . S
C946 C949 1.403 . S
C947 C944 1.403 . S
C947 C948 1.524 . S
C947 C951 1.400 . S
C948 H933 0.960 . S
C948 H934 0.960 . S
C948 H935 0.960 . S
C948 C947 1.524 . S
C949 C946 1.403 . S
C949 C950 1.392 . S
C949 C953 1.495 . S
C950 C949 1.392 . S
C950 C951 1.385 . S
C950 C952 1.478 . S
C951 H945 0.930 . S
C951 C947 1.400 . S
C951 C950 1.385 . S
C952 C950 1.478 . S
C952 C954 1.381 . S
C952 C958 1.383 . S
C953 C949 1.495 . S
C953 H959 0.959 . S
C953 H960 0.961 . S
C953 H961 0.960 . S
C954 C952 1.381 . S
C954 C955 1.394 . S
C954 H962 0.930 . S
C955 C954 1.394 . S
C955 C956 1.383 . S
C955 H963 0.929 . S
C956 C955 1.383 . S
C956 C957 1.377 . S
C957 H941 0.930 . S
C957 C956 1.377 . S
C957 C958 1.379 . S
C958 H942 0.931 . S
C958 C952 1.383 . S
C958 C957 1.379 . S
H959 C953 0.959 . S
H960 C953 0.961 . S
H961 C953 0.960 . S
H962 C954 0.930 . S
H963 C955 0.929 . S
H964 C972 0.929 . S
H965 C974 0.930 . S
H966 C976 0.930 . S
H967 C979 0.929 . S
H968 C982 0.930 . S
H969 C984 0.960 . S
H970 C984 0.960 . S
H971 C984 0.960 . S
C972 H964 0.929 . S
C972 C973 1.377 . S
C972 C974 1.384 . S
C973 C972 1.377 . S
C973 C979 1.390 . S
C974 H965 0.930 . S
C974 C972 1.384 . S
C974 C975 1.372 . S
C975 C974 1.372 . S
C975 C976 1.400 . S
C975 C980 1.490 . S
C976 H966 0.930 . S
C976 C975 1.400 . S
C976 C979 1.386 . S
H977 C993 0.930 . S
H978 C994 0.931 . S
C979 H967 0.929 . S
C979 C973 1.390 . S
C979 C976 1.386 . S
C980 C975 1.490 . S
C980 C982 1.395 . S
C980 C983 1.403 . S
H981 C987 0.930 . S
C982 H968 0.930 . S
C982 C980 1.395 . S
C982 C985 1.403 . S
C983 C980 1.403 . S
C983 C984 1.524 . S
C983 C987 1.400 . S
C984 H969 0.960 . S
C984 H970 0.960 . S
C984 H971 0.960 . S
C984 C983 1.524 . S
C985 C982 1.403 . S
C985 C986 1.392 . S
C985 C989 1.495 . S
C986 C985 1.392 . S
C986 C987 1.385 . S
C986 C988 1.478 . S
C987 H981 0.930 . S
C987 C983 1.400 . S
C987 C986 1.385 . S
C988 C986 1.478 . S
C988 C990 1.381 . S
C988 C994 1.383 . S
C989 C985 1.495 . S
C989 H995 0.959 . S
C989 H996 0.961 . S
C989 H997 0.960 . S
C990 C988 1.381 . S
C990 C991 1.394 . S
C990 H998 0.930 . S
C991 C990 1.394 . S
C991 C992 1.383 . S
C991 H999 0.929 . S
C992 C991 1.383 . S
C992 C993 1.377 . S
C993 H977 0.930 . S
C993 C992 1.377 . S
C993 C994 1.379 . S
C994 H978 0.931 . S
C994 C988 1.383 . S
C994 C993 1.379 . S
H995 C989 0.959 . S
H996 C989 0.961 . S
H997 C989 0.960 . S
H998 C990 0.930 . S
H999 C991 0.929 . S
H1000 C1008 0.929 . S
H1001 C1010 0.930 . S
H1002 C1012 0.930 . S
H1003 C1015 0.929 . S
H1004 C1018 0.930 . S
H1005 C1020 0.960 . S
H1006 C1020 0.960 . S
H1007 C1020 0.960 . S
C1008 H1000 0.929 . S
C1008 C1009 1.377 . S
C1008 C1010 1.384 . S
C1009 C1008 1.377 . S
C1009 C1015 1.390 . S
C1010 H1001 0.930 . S
C1010 C1008 1.384 . S
C1010 C1011 1.372 . S
C1011 C1010 1.372 . S
C1011 C1012 1.400 . S
C1011 C1016 1.490 . S
C1012 H1002 0.930 . S
C1012 C1011 1.400 . S
C1012 C1015 1.386 . S
H1013 C1029 0.930 . S
H1014 C1030 0.931 . S
C1015 H1003 0.929 . S
C1015 C1009 1.390 . S
C1015 C1012 1.386 . S
C1016 C1011 1.490 . S
C1016 C1018 1.395 . S
C1016 C1019 1.403 . S
H1017 C1023 0.930 . S
C1018 H1004 0.930 . S
C1018 C1016 1.395 . S
C1018 C1021 1.403 . S
C1019 C1016 1.403 . S
C1019 C1020 1.524 . S
C1019 C1023 1.400 . S
C1020 H1005 0.960 . S
C1020 H1006 0.960 . S
C1020 H1007 0.960 . S
C1020 C1019 1.524 . S
C1021 C1018 1.403 . S
C1021 C1022 1.392 . S
C1021 C1025 1.495 . S
C1022 C1021 1.392 . S
C1022 C1023 1.385 . S
C1022 C1024 1.478 . S
C1023 H1017 0.930 . S
C1023 C1019 1.400 . S
C1023 C1022 1.385 . S
C1024 C1022 1.478 . S
C1024 C1026 1.381 . S
C1024 C1030 1.383 . S
C1025 C1021 1.495 . S
C1025 H1031 0.959 . S
C1025 H1032 0.961 . S
C1025 H1033 0.960 . S
C1026 C1024 1.381 . S
C1026 C1027 1.394 . S
C1026 H1034 0.930 . S
C1027 C1026 1.394 . S
C1027 C1028 1.383 . S
C1027 H1035 0.929 . S
C1028 C1027 1.383 . S
C1028 C1029 1.377 . S
C1029 H1013 0.930 . S
C1029 C1028 1.377 . S
C1029 C1030 1.379 . S
C1030 H1014 0.931 . S
C1030 C1024 1.383 . S
C1030 C1029 1.379 . S
H1031 C1025 0.959 . S
H1032 C1025 0.961 . S
H1033 C1025 0.960 . S
H1034 C1026 0.930 . S
H1035 C1027 0.929 . S
H1036 C1044 0.929 . S
H1037 C1046 0.930 . S
H1038 C1048 0.930 . S
H1039 C1051 0.929 . S
H1040 C1054 0.930 . S
H1041 C1056 0.960 . S
H1042 C1056 0.960 . S
H1043 C1056 0.960 . S
C1044 H1036 0.929 . S
C1044 C1045 1.377 1_455 S
C1044 C1046 1.384 . S
C1045 C1044 1.377 1_655 S
C1045 C1051 1.390 . S
C1046 H1037 0.930 . S
C1046 C1044 1.384 . S
C1046 C1047 1.372 . S
C1047 C1046 1.372 . S
C1047 C1048 1.400 . S
C1047 C1052 1.490 . S
C1048 H1038 0.930 . S
C1048 C1047 1.400 . S
C1048 C1051 1.386 1_455 S
H1049 C1065 0.930 . S
H1050 C1066 0.931 . S
C1051 H1039 0.929 . S
C1051 C1045 1.390 . S
C1051 C1048 1.386 1_655 S
C1052 C1047 1.490 . S
C1052 C1054 1.395 . S
C1052 C1055 1.403 . S
H1053 C1059 0.930 . S
C1054 H1040 0.930 . S
C1054 C1052 1.395 . S
C1054 C1057 1.403 . S
C1055 C1052 1.403 . S
C1055 C1056 1.524 . S
C1055 C1059 1.400 . S
C1056 H1041 0.960 . S
C1056 H1042 0.960 . S
C1056 H1043 0.960 . S
C1056 C1055 1.524 . S
C1057 C1054 1.403 . S
C1057 C1058 1.392 . S
C1057 C1061 1.495 . S
C1058 C1057 1.392 . S
C1058 C1059 1.385 . S
C1058 C1060 1.478 . S
C1059 H1053 0.930 . S
C1059 C1055 1.400 . S
C1059 C1058 1.385 . S
C1060 C1058 1.478 . S
C1060 C1062 1.381 . S
C1060 C1066 1.383 . S
C1061 C1057 1.495 . S
C1061 H1067 0.959 . S
C1061 H1068 0.961 . S
C1061 H1069 0.960 . S
C1062 C1060 1.381 . S
C1062 C1063 1.394 . S
C1062 H1070 0.930 . S
C1063 C1062 1.394 . S
C1063 C1064 1.383 . S
C1063 H1071 0.929 . S
C1064 C1063 1.383 . S
C1064 C1065 1.377 . S
C1065 H1049 0.930 . S
C1065 C1064 1.377 . S
C1065 C1066 1.379 . S
C1066 H1050 0.931 . S
C1066 C1060 1.383 . S
C1066 C1065 1.379 . S
H1067 C1061 0.959 . S
H1068 C1061 0.961 . S
H1069 C1061 0.960 . S
H1070 C1062 0.930 . S
H1071 C1063 0.929 . S
H1072 C1080 0.929 . S
H1073 C1082 0.930 . S
H1074 C1084 0.930 . S
H1075 C1087 0.929 . S
H1076 C1090 0.930 . S
H1077 C1092 0.960 . S
H1078 C1092 0.960 . S
H1079 C1092 0.960 . S
C1080 H1072 0.929 . S
C1080 C1081 1.377 . S
C1080 C1082 1.384 . S
C1081 C1080 1.377 . S
C1081 C1087 1.390 . S
C1082 H1073 0.930 . S
C1082 C1080 1.384 . S
C1082 C1083 1.372 . S
C1083 C1082 1.372 . S
C1083 C1084 1.400 . S
C1083 C1088 1.490 . S
C1084 H1074 0.930 . S
C1084 C1083 1.400 . S
C1084 C1087 1.386 . S
H1085 C1101 0.930 . S
H1086 C1102 0.931 . S
C1087 H1075 0.929 . S
C1087 C1081 1.390 . S
C1087 C1084 1.386 . S
C1088 C1083 1.490 . S
C1088 C1090 1.395 . S
C1088 C1091 1.403 . S
H1089 C1095 0.930 . S
C1090 H1076 0.930 . S
C1090 C1088 1.395 . S
C1090 C1093 1.403 . S
C1091 C1088 1.403 . S
C1091 C1092 1.524 . S
C1091 C1095 1.400 . S
C1092 H1077 0.960 . S
C1092 H1078 0.960 . S
C1092 H1079 0.960 . S
C1092 C1091 1.524 . S
C1093 C1090 1.403 . S
C1093 C1094 1.392 . S
C1093 C1097 1.495 . S
C1094 C1093 1.392 . S
C1094 C1095 1.385 . S
C1094 C1096 1.478 . S
C1095 H1089 0.930 . S
C1095 C1091 1.400 . S
C1095 C1094 1.385 . S
C1096 C1094 1.478 . S
C1096 C1098 1.381 . S
C1096 C1102 1.383 . S
C1097 C1093 1.495 . S
C1097 H1103 0.959 . S
C1097 H1104 0.961 . S
C1097 H1105 0.960 . S
C1098 C1096 1.381 . S
C1098 C1099 1.394 . S
C1098 H1106 0.930 . S
C1099 C1098 1.394 . S
C1099 C1100 1.383 . S
C1099 H1107 0.929 . S
C1100 C1099 1.383 . S
C1100 C1101 1.377 . S
C1101 H1085 0.930 . S
C1101 C1100 1.377 . S
C1101 C1102 1.379 . S
C1102 H1086 0.931 . S
C1102 C1096 1.383 . S
C1102 C1101 1.379 . S
H1103 C1097 0.959 . S
H1104 C1097 0.961 . S
H1105 C1097 0.960 . S
H1106 C1098 0.930 . S
H1107 C1099 0.929 . S
H1108 C1116 0.929 . S
H1109 C1118 0.930 . S
H1110 C1120 0.930 . S
H1111 C1123 0.929 . S
H1112 C1126 0.930 . S
H1113 C1128 0.960 . S
H1114 C1128 0.960 . S
H1115 C1128 0.960 . S
C1116 H1108 0.929 . S
C1116 C1117 1.377 . S
C1116 C1118 1.384 . S
C1117 C1116 1.377 . S
C1117 C1123 1.390 . S
C1118 H1109 0.930 . S
C1118 C1116 1.384 . S
C1118 C1119 1.372 . S
C1119 C1118 1.372 . S
C1119 C1120 1.400 . S
C1119 C1124 1.490 . S
C1120 H1110 0.930 . S
C1120 C1119 1.400 . S
C1120 C1123 1.386 . S
H1121 C1137 0.930 . S
H1122 C1138 0.931 . S
C1123 H1111 0.929 . S
C1123 C1117 1.390 . S
C1123 C1120 1.386 . S
C1124 C1119 1.490 . S
C1124 C1126 1.395 . S
C1124 C1127 1.403 . S
H1125 C1131 0.930 . S
C1126 H1112 0.930 . S
C1126 C1124 1.395 . S
C1126 C1129 1.403 . S
C1127 C1124 1.403 . S
C1127 C1128 1.524 . S
C1127 C1131 1.400 . S
C1128 H1113 0.960 . S
C1128 H1114 0.960 . S
C1128 H1115 0.960 . S
C1128 C1127 1.524 . S
C1129 C1126 1.403 . S
C1129 C1130 1.392 . S
C1129 C1133 1.495 . S
C1130 C1129 1.392 . S
C1130 C1131 1.385 . S
C1130 C1132 1.478 . S
C1131 H1125 0.930 . S
C1131 C1127 1.400 . S
C1131 C1130 1.385 . S
C1132 C1130 1.478 . S
C1132 C1134 1.381 . S
C1132 C1138 1.383 . S
C1133 C1129 1.495 . S
C1133 H1139 0.959 . S
C1133 H1140 0.961 . S
C1133 H1141 0.960 . S
C1134 C1132 1.381 . S
C1134 C1135 1.394 . S
C1134 H1142 0.930 . S
C1135 C1134 1.394 . S
C1135 C1136 1.383 . S
C1135 H1143 0.929 . S
C1136 C1135 1.383 . S
C1136 C1137 1.377 . S
C1137 H1121 0.930 . S
C1137 C1136 1.377 . S
C1137 C1138 1.379 . S
C1138 H1122 0.931 . S
C1138 C1132 1.383 . S
C1138 C1137 1.379 . S
H1139 C1133 0.959 . S
H1140 C1133 0.961 . S
H1141 C1133 0.960 . S
H1142 C1134 0.930 . S
H1143 C1135 0.929 . S
H1144 C1152 0.929 . S
H1145 C1154 0.930 . S
H1146 C1156 0.930 . S
H1147 C1159 0.929 . S
H1148 C1162 0.930 . S
H1149 C1164 0.960 . S
H1150 C1164 0.960 . S
H1151 C1164 0.960 . S
C1152 H1144 0.929 . S
C1152 C1153 1.377 . S
C1152 C1154 1.384 . S
C1153 C1152 1.377 . S
C1153 C1159 1.390 . S
C1154 H1145 0.930 . S
C1154 C1152 1.384 . S
C1154 C1155 1.372 . S
C1155 C1154 1.372 . S
C1155 C1156 1.400 . S
C1155 C1160 1.490 . S
C1156 H1146 0.930 . S
C1156 C1155 1.400 . S
C1156 C1159 1.386 . S
H1157 C1173 0.930 . S
H1158 C1174 0.931 . S
C1159 H1147 0.929 . S
C1159 C1153 1.390 . S
C1159 C1156 1.386 . S
C1160 C1155 1.490 . S
C1160 C1162 1.395 . S
C1160 C1163 1.403 . S
H1161 C1167 0.930 . S
C1162 H1148 0.930 . S
C1162 C1160 1.395 . S
C1162 C1165 1.403 . S
C1163 C1160 1.403 . S
C1163 C1164 1.524 . S
C1163 C1167 1.400 . S
C1164 H1149 0.960 . S
C1164 H1150 0.960 . S
C1164 H1151 0.960 . S
C1164 C1163 1.524 . S
C1165 C1162 1.403 . S
C1165 C1166 1.392 . S
C1165 C1169 1.495 . S
C1166 C1165 1.392 . S
C1166 C1167 1.385 . S
C1166 C1168 1.478 . S
C1167 H1161 0.930 . S
C1167 C1163 1.400 . S
C1167 C1166 1.385 . S
C1168 C1166 1.478 . S
C1168 C1170 1.381 . S
C1168 C1174 1.383 . S
C1169 C1165 1.495 . S
C1169 H1175 0.959 . S
C1169 H1176 0.961 . S
C1169 H1177 0.960 . S
C1170 C1168 1.381 . S
C1170 C1171 1.394 . S
C1170 H1178 0.930 . S
C1171 C1170 1.394 . S
C1171 C1172 1.383 . S
C1171 H1179 0.929 . S
C1172 C1171 1.383 . S
C1172 C1173 1.377 . S
C1173 H1157 0.930 . S
C1173 C1172 1.377 . S
C1173 C1174 1.379 . S
C1174 H1158 0.931 . S
C1174 C1168 1.383 . S
C1174 C1173 1.379 . S
H1175 C1169 0.959 . S
H1176 C1169 0.961 . S
H1177 C1169 0.960 . S
H1178 C1170 0.930 . S
H1179 C1171 0.929 . S
H1180 C1188 0.929 . S
H1181 C1190 0.930 . S
H1182 C1192 0.930 . S
H1183 C1195 0.929 . S
H1184 C1198 0.930 . S
H1185 C1200 0.960 . S
H1186 C1200 0.960 . S
H1187 C1200 0.960 . S
C1188 H1180 0.929 . S
C1188 C1189 1.377 . S
C1188 C1190 1.384 . S
C1189 C1188 1.377 . S
C1189 C1195 1.390 . S
C1190 H1181 0.930 . S
C1190 C1188 1.384 . S
C1190 C1191 1.372 . S
C1191 C1190 1.372 . S
C1191 C1192 1.400 . S
C1191 C1196 1.490 . S
C1192 H1182 0.930 . S
C1192 C1191 1.400 . S
C1192 C1195 1.386 . S
H1193 C1209 0.918 1_455 S
H1194 C1210 0.931 . S
C1195 H1183 0.929 . S
C1195 C1189 1.390 . S
C1195 C1192 1.386 . S
C1196 C1191 1.490 . S
C1196 C1198 1.395 . S
C1196 C1199 1.403 . S
H1197 C1203 0.930 . S
C1198 H1184 0.930 . S
C1198 C1196 1.395 . S
C1198 C1201 1.403 . S
C1199 C1196 1.403 . S
C1199 C1200 1.524 . S
C1199 C1203 1.400 . S
C1200 H1185 0.960 . S
C1200 H1186 0.960 . S
C1200 H1187 0.960 . S
C1200 C1199 1.524 . S
C1201 C1198 1.403 . S
C1201 C1202 1.392 . S
C1201 C1205 1.495 . S
C1202 C1201 1.392 . S
C1202 C1203 1.385 . S
C1202 C1204 1.478 . S
C1203 H1197 0.930 . S
C1203 C1199 1.400 . S
C1203 C1202 1.385 . S
C1204 C1202 1.478 . S
C1204 C1206 1.381 . S
C1204 C1210 1.383 . S
C1205 C1201 1.495 . S
C1205 H1211 0.959 . S
C1205 H1212 0.961 . S
C1205 H1213 0.960 . S
C1206 C1204 1.381 . S
C1206 C1207 1.394 . S
C1206 H1214 0.930 . S
C1207 C1206 1.394 . S
C1207 C1208 1.383 1_655 S
C1207 H1215 0.929 1_655 S
C1208 C1207 1.383 1_455 S
C1208 C1209 1.377 1_455 S
C1209 H1193 0.918 1_655 S
C1209 C1208 1.377 1_655 S
C1209 C1210 1.379 . S
C1210 H1194 0.931 . S
C1210 C1204 1.383 . S
C1210 C1209 1.379 . S
H1211 C1205 0.959 . S
H1212 C1205 0.961 . S
H1213 C1205 0.960 . S
H1214 C1206 0.930 . S
H1215 C1207 0.929 1_455 S
H1216 C1224 0.929 . S
H1217 C1226 0.930 . S
H1218 C1228 0.930 . S
H1219 C1231 0.929 . S
H1220 C1234 0.930 . S
H1221 C1236 0.960 . S
H1222 C1236 0.960 . S
H1223 C1236 0.960 . S
C1224 H1216 0.929 . S
C1224 C1225 1.377 . S
C1224 C1226 1.384 . S
C1225 C1224 1.377 . S
C1225 C1231 1.390 . S
C1226 H1217 0.930 . S
C1226 C1224 1.384 . S
C1226 C1227 1.372 . S
C1227 C1226 1.372 . S
C1227 C1228 1.400 . S
C1227 C1232 1.490 . S
C1228 H1218 0.930 . S
C1228 C1227 1.400 . S
C1228 C1231 1.386 . S
H1229 C1245 0.930 . S
H1230 C1246 0.931 . S
C1231 H1219 0.929 . S
C1231 C1225 1.390 . S
C1231 C1228 1.386 . S
C1232 C1227 1.490 . S
C1232 C1234 1.395 . S
C1232 C1235 1.403 . S
H1233 C1239 0.930 . S
C1234 H1220 0.930 . S
C1234 C1232 1.395 . S
C1234 C1237 1.403 . S
C1235 C1232 1.403 . S
C1235 C1236 1.524 . S
C1235 C1239 1.400 . S
C1236 H1221 0.960 . S
C1236 H1222 0.960 . S
C1236 H1223 0.960 . S
C1236 C1235 1.524 . S
C1237 C1234 1.403 . S
C1237 C1238 1.392 . S
C1237 C1241 1.495 . S
C1238 C1237 1.392 . S
C1238 C1239 1.385 . S
C1238 C1240 1.478 . S
C1239 H1233 0.930 . S
C1239 C1235 1.400 . S
C1239 C1238 1.385 . S
C1240 C1238 1.478 . S
C1240 C1242 1.381 . S
C1240 C1246 1.383 . S
C1241 C1237 1.495 . S
C1241 H1247 0.959 . S
C1241 H1248 0.961 . S
C1241 H1249 0.960 . S
C1242 C1240 1.381 . S
C1242 C1243 1.394 . S
C1242 H1250 0.930 . S
C1243 C1242 1.394 . S
C1243 C1244 1.383 . S
C1243 H1251 0.929 . S
C1244 C1243 1.383 . S
C1244 C1245 1.377 . S
C1245 H1229 0.930 . S
C1245 C1244 1.377 . S
C1245 C1246 1.379 . S
C1246 H1230 0.931 . S
C1246 C1240 1.383 . S
C1246 C1245 1.379 . S
H1247 C1241 0.959 . S
H1248 C1241 0.961 . S
H1249 C1241 0.960 . S
H1250 C1242 0.930 . S
H1251 C1243 0.929 . S
H1252 C1260 0.929 . S
H1253 C1262 0.930 . S
H1254 C1264 0.930 . S
H1255 C1267 0.929 . S
H1256 C1270 0.930 . S
H1257 C1272 0.960 . S
H1258 C1272 0.960 . S
H1259 C1272 0.960 1_565 S
C1260 H1252 0.929 . S
C1260 C1261 1.377 . S
C1260 C1262 1.384 . S
C1261 C1260 1.377 . S
C1261 C1267 1.390 . S
C1262 H1253 0.930 . S
C1262 C1260 1.384 . S
C1262 C1263 1.372 . S
C1263 C1262 1.372 . S
C1263 C1264 1.400 . S
C1263 C1268 1.490 . S
C1264 H1254 0.930 . S
C1264 C1263 1.400 . S
C1264 C1267 1.386 . S
H1265 C1281 0.930 . S
H1266 C1282 0.928 1_565 S
C1267 H1255 0.929 . S
C1267 C1261 1.390 . S
C1267 C1264 1.386 . S
C1268 C1263 1.490 . S
C1268 C1270 1.395 . S
C1268 C1271 1.403 . S
H1269 C1275 0.930 1_545 S
C1270 H1256 0.930 . S
C1270 C1268 1.395 . S
C1270 C1273 1.403 . S
C1271 C1268 1.403 . S
C1271 C1272 1.524 1_565 S
C1271 C1275 1.400 . S
C1272 H1257 0.960 . S
C1272 H1258 0.960 . S
C1272 H1259 0.960 1_545 S
C1272 C1271 1.524 1_545 S
C1273 C1270 1.403 . S
C1273 C1274 1.392 . S
C1273 C1277 1.495 . S
C1274 C1273 1.392 . S
C1274 C1275 1.385 . S
C1274 C1276 1.478 . S
C1275 H1269 0.930 1_565 S
C1275 C1271 1.400 . S
C1275 C1274 1.385 . S
C1276 C1274 1.478 . S
C1276 C1278 1.381 . S
C1276 C1282 1.383 1_565 S
C1277 C1273 1.495 . S
C1277 H1283 0.959 . S
C1277 H1284 0.961 . S
C1277 H1285 0.960 . S
C1278 C1276 1.381 . S
C1278 C1279 1.394 1_665 S
C1278 H1286 0.930 . S
C1279 C1278 1.394 1_445 S
C1279 C1280 1.383 . S
C1279 H1287 0.929 . S
C1280 C1279 1.383 . S
C1280 C1281 1.377 1_455 S
C1281 H1265 0.930 . S
C1281 C1280 1.377 1_655 S
C1281 C1282 1.379 . S
C1282 H1266 0.928 1_545 S
C1282 C1276 1.383 1_545 S
C1282 C1281 1.379 . S
H1283 C1277 0.959 . S
H1284 C1277 0.961 . S
H1285 C1277 0.960 . S
H1286 C1278 0.930 . S
H1287 C1279 0.929 . S
H1288 C1296 0.929 . S
H1289 C1298 0.930 . S
H1290 C1300 0.930 . S
H1291 C1303 0.929 . S
H1292 C1306 0.930 . S
H1293 C1308 0.960 . S
H1294 C1308 0.960 . S
H1295 C1308 0.960 . S
C1296 H1288 0.929 . S
C1296 C1297 1.377 . S
C1296 C1298 1.384 . S
C1297 C1296 1.377 . S
C1297 C1303 1.390 . S
C1298 H1289 0.930 . S
C1298 C1296 1.384 . S
C1298 C1299 1.372 . S
C1299 C1298 1.372 . S
C1299 C1300 1.400 . S
C1299 C1304 1.490 . S
C1300 H1290 0.930 . S
C1300 C1299 1.400 . S
C1300 C1303 1.386 . S
H1301 C1317 0.930 . S
H1302 C1318 0.931 . S
C1303 H1291 0.929 . S
C1303 C1297 1.390 . S
C1303 C1300 1.386 . S
C1304 C1299 1.490 . S
C1304 C1306 1.395 . S
C1304 C1307 1.403 . S
H1305 C1311 0.930 . S
C1306 H1292 0.930 . S
C1306 C1304 1.395 . S
C1306 C1309 1.403 . S
C1307 C1304 1.403 . S
C1307 C1308 1.524 . S
C1307 C1311 1.400 . S
C1308 H1293 0.960 . S
C1308 H1294 0.960 . S
C1308 H1295 0.960 . S
C1308 C1307 1.524 . S
C1309 C1306 1.403 . S
C1309 C1310 1.392 . S
C1309 C1313 1.495 . S
C1310 C1309 1.392 . S
C1310 C1311 1.385 . S
C1310 C1312 1.478 . S
C1311 H1305 0.930 . S
C1311 C1307 1.400 . S
C1311 C1310 1.385 . S
C1312 C1310 1.478 . S
C1312 C1314 1.381 . S
C1312 C1318 1.383 . S
C1313 C1309 1.495 . S
C1313 H1319 0.959 . S
C1313 H1320 0.961 . S
C1313 H1321 0.960 . S
C1314 C1312 1.381 . S
C1314 C1315 1.394 . S
C1314 H1322 0.930 . S
C1315 C1314 1.394 . S
C1315 C1316 1.383 . S
C1315 H1323 0.929 . S
C1316 C1315 1.383 . S
C1316 C1317 1.377 . S
C1317 H1301 0.930 . S
C1317 C1316 1.377 . S
C1317 C1318 1.379 . S
C1318 H1302 0.931 . S
C1318 C1312 1.383 . S
C1318 C1317 1.379 . S
H1319 C1313 0.959 . S
H1320 C1313 0.961 . S
H1321 C1313 0.960 . S
H1322 C1314 0.930 . S
H1323 C1315 0.929 . S
H1324 C1332 0.929 . S
H1325 C1334 0.930 . S
H1326 C1336 0.930 . S
H1327 C1339 0.929 . S
H1328 C1342 0.930 . S
H1329 C1344 0.960 . S
H1330 C1344 0.960 . S
H1331 C1344 0.960 . S
C1332 H1324 0.929 . S
C1332 C1333 1.377 . S
C1332 C1334 1.384 . S
C1333 C1332 1.377 . S
C1333 C1339 1.390 . S
C1334 H1325 0.930 . S
C1334 C1332 1.384 . S
C1334 C1335 1.372 . S
C1335 C1334 1.372 . S
C1335 C1336 1.400 . S
C1335 C1340 1.490 . S
C1336 H1326 0.930 . S
C1336 C1335 1.400 . S
C1336 C1339 1.386 . S
H1337 C1353 0.930 . S
H1338 C1354 0.931 . S
C1339 H1327 0.929 . S
C1339 C1333 1.390 . S
C1339 C1336 1.386 . S
C1340 C1335 1.490 . S
C1340 C1342 1.395 . S
C1340 C1343 1.403 . S
H1341 C1347 0.930 . S
C1342 H1328 0.930 . S
C1342 C1340 1.395 . S
C1342 C1345 1.403 . S
C1343 C1340 1.403 . S
C1343 C1344 1.524 . S
C1343 C1347 1.400 . S
C1344 H1329 0.960 . S
C1344 H1330 0.960 . S
C1344 H1331 0.960 . S
C1344 C1343 1.524 . S
C1345 C1342 1.403 . S
C1345 C1346 1.392 . S
C1345 C1349 1.495 . S
C1346 C1345 1.392 . S
C1346 C1347 1.385 . S
C1346 C1348 1.494 . S
C1347 H1341 0.930 . S
C1347 C1343 1.400 . S
C1347 C1346 1.385 . S
C1348 C1346 1.494 . S
C1348 C1350 1.397 . S
C1348 C1354 1.351 1_545 S
C1349 C1345 1.495 . S
C1349 H1355 0.959 . S
C1349 H1356 0.961 1_545 S
C1349 H1357 0.960 . S
C1350 C1348 1.397 . S
C1350 C1351 1.404 . S
C1350 H1358 0.930 . S
C1351 C1350 1.404 . S
C1351 C1352 1.364 1_545 S
C1351 H1359 0.939 . S
C1352 C1351 1.364 1_565 S
C1352 C1353 1.377 . S
C1353 H1337 0.930 . S
C1353 C1352 1.377 . S
C1353 C1354 1.379 . S
C1354 H1338 0.931 . S
C1354 C1348 1.351 1_565 S
C1354 C1353 1.379 . S
H1355 C1349 0.959 . S
H1356 C1349 0.961 1_565 S
H1357 C1349 0.960 . S
H1358 C1350 0.930 . S
H1359 C1351 0.939 . S
H1360 C1368 0.929 . S
H1361 C1370 0.930 . S
H1362 C1372 0.930 . S
H1363 C1375 0.929 . S
H1364 C1378 0.930 . S
H1365 C1380 0.960 . S
H1366 C1380 0.960 . S
H1367 C1380 0.960 . S
C1368 H1360 0.929 . S
C1368 C1369 1.377 . S
C1368 C1370 1.384 . S
C1369 C1368 1.377 . S
C1369 C1375 1.390 . S
C1370 H1361 0.930 . S
C1370 C1368 1.384 . S
C1370 C1371 1.372 . S
C1371 C1370 1.372 . S
C1371 C1372 1.400 . S
C1371 C1376 1.490 . S
C1372 H1362 0.930 . S
C1372 C1371 1.400 . S
C1372 C1375 1.386 . S
H1373 C1389 0.930 . S
H1374 C1390 0.931 . S
C1375 H1363 0.929 . S
C1375 C1369 1.390 . S
C1375 C1372 1.386 . S
C1376 C1371 1.490 . S
C1376 C1378 1.395 . S
C1376 C1379 1.403 . S
H1377 C1383 0.930 . S
C1378 H1364 0.930 . S
C1378 C1376 1.395 . S
C1378 C1381 1.403 . S
C1379 C1376 1.403 . S
C1379 C1380 1.524 . S
C1379 C1383 1.400 . S
C1380 H1365 0.960 . S
C1380 H1366 0.960 . S
C1380 H1367 0.960 . S
C1380 C1379 1.524 . S
C1381 C1378 1.403 . S
C1381 C1382 1.392 . S
C1381 C1385 1.495 . S
C1382 C1381 1.392 . S
C1382 C1383 1.385 . S
C1382 C1384 1.478 . S
C1383 H1377 0.930 . S
C1383 C1379 1.400 . S
C1383 C1382 1.385 . S
C1384 C1382 1.478 . S
C1384 C1386 1.381 . S
C1384 C1390 1.383 . S
C1385 C1381 1.495 . S
C1385 H1391 0.959 . S
C1385 H1392 0.961 . S
C1385 H1393 0.960 . S
C1386 C1384 1.381 . S
C1386 C1387 1.394 . S
C1386 H1394 0.930 . S
C1387 C1386 1.394 . S
C1387 C1388 1.383 . S
C1387 H1395 0.929 . S
C1388 C1387 1.383 . S
C1388 C1389 1.377 . S
C1389 H1373 0.930 . S
C1389 C1388 1.377 . S
C1389 C1390 1.379 . S
C1390 H1374 0.931 . S
C1390 C1384 1.383 . S
C1390 C1389 1.379 . S
H1391 C1385 0.959 . S
H1392 C1385 0.961 . S
H1393 C1385 0.960 . S
H1394 C1386 0.930 . S
H1395 C1387 0.929 . S
H1396 C1404 0.917 1_545 S
H1397 C1406 0.930 . S
H1398 C1408 0.930 . S
H1399 C1411 0.929 . S
H1400 C1414 0.930 . S
H1401 C1416 0.960 . S
H1402 C1416 0.960 . S
H1403 C1416 0.960 . S
C1404 H1396 0.917 1_565 S
C1404 C1405 1.406 . S
C1404 C1406 1.368 1_665 S
C1405 C1404 1.406 . S
C1405 C1411 1.390 1_655 S
C1406 H1397 0.930 . S
C1406 C1404 1.368 1_445 S
C1406 C1407 1.372 . S
C1407 C1406 1.372 . S
C1407 C1408 1.400 1_545 S
C1407 C1412 1.490 . S
C1408 H1398 0.930 . S
C1408 C1407 1.400 1_565 S
C1408 C1411 1.386 . S
H1409 C1425 0.930 . S
H1410 C1426 0.931 . S
C1411 H1399 0.929 . S
C1411 C1405 1.390 1_455 S
C1411 C1408 1.386 . S
C1412 C1407 1.490 . S
C1412 C1414 1.395 . S
C1412 C1415 1.403 . S
H1413 C1419 0.930 . S
C1414 H1400 0.930 . S
C1414 C1412 1.395 . S
C1414 C1417 1.403 . S
C1415 C1412 1.403 . S
C1415 C1416 1.524 1_545 S
C1415 C1419 1.400 . S
C1416 H1401 0.960 . S
C1416 H1402 0.960 . S
C1416 H1403 0.960 . S
C1416 C1415 1.524 1_565 S
C1417 C1414 1.403 . S
C1417 C1418 1.392 . S
C1417 C1421 1.495 . S
C1418 C1417 1.392 . S
C1418 C1419 1.385 . S
C1418 C1420 1.478 . S
C1419 H1413 0.930 . S
C1419 C1415 1.400 . S
C1419 C1418 1.385 . S
C1420 C1418 1.478 . S
C1420 C1422 1.381 . S
C1420 C1426 1.383 . S
C1421 C1417 1.495 . S
C1421 H1427 0.959 . S
C1421 H1428 0.961 . S
C1421 H1429 0.960 . S
C1422 C1420 1.381 . S
C1422 C1423 1.394 . S
C1422 H1430 0.930 . S
C1423 C1422 1.394 . S
C1423 C1424 1.383 . S
C1423 H1431 0.929 . S
C1424 C1423 1.383 . S
C1424 C1425 1.377 . S
C1425 H1409 0.930 . S
C1425 C1424 1.377 . S
C1425 C1426 1.379 . S
C1426 H1410 0.931 . S
C1426 C1420 1.383 . S
C1426 C1425 1.379 . S
H1427 C1421 0.959 . S
H1428 C1421 0.961 . S
H1429 C1421 0.960 . S
H1430 C1422 0.930 . S
H1431 C1423 0.929 . S
H1432 C1440 0.929 . S
H1433 C1442 0.930 . S
H1434 C1444 0.930 . S
H1435 C1447 0.929 . S
H1436 C1450 0.930 . S
H1437 C1452 0.960 . S
H1438 C1452 0.960 . S
H1439 C1452 0.960 . S
C1440 H1432 0.929 . S
C1440 C1441 1.377 . S
C1440 C1442 1.384 . S
C1441 C1440 1.377 . S
C1441 C1447 1.390 . S
C1442 H1433 0.930 . S
C1442 C1440 1.384 . S
C1442 C1443 1.372 . S
C1443 C1442 1.372 . S
C1443 C1444 1.400 . S
C1443 C1448 1.490 . S
C1444 H1434 0.930 . S
C1444 C1443 1.400 . S
C1444 C1447 1.386 . S
H1445 C1461 0.930 . S
H1446 C1462 0.931 . S
C1447 H1435 0.929 . S
C1447 C1441 1.390 . S
C1447 C1444 1.386 . S
C1448 C1443 1.490 . S
C1448 C1450 1.395 . S
C1448 C1451 1.403 . S
H1449 C1455 0.930 . S
C1450 H1436 0.930 . S
C1450 C1448 1.395 . S
C1450 C1453 1.403 . S
C1451 C1448 1.403 . S
C1451 C1452 1.524 . S
C1451 C1455 1.400 . S
C1452 H1437 0.960 . S
C1452 H1438 0.960 . S
C1452 H1439 0.960 . S
C1452 C1451 1.524 . S
C1453 C1450 1.403 . S
C1453 C1454 1.392 . S
C1453 C1457 1.495 . S
C1454 C1453 1.392 . S
C1454 C1455 1.385 . S
C1454 C1456 1.478 . S
C1455 H1449 0.930 . S
C1455 C1451 1.400 . S
C1455 C1454 1.385 . S
C1456 C1454 1.478 . S
C1456 C1458 1.381 . S
C1456 C1462 1.383 . S
C1457 C1453 1.495 . S
C1457 H1463 0.959 . S
C1457 H1464 0.961 . S
C1457 H1465 0.960 . S
C1458 C1456 1.381 . S
C1458 C1459 1.394 . S
C1458 H1466 0.930 . S
C1459 C1458 1.394 . S
C1459 C1460 1.383 . S
C1459 H1467 0.929 . S
C1460 C1459 1.383 . S
C1460 C1461 1.377 . S
C1461 H1445 0.930 . S
C1461 C1460 1.377 . S
C1461 C1462 1.379 . S
C1462 H1446 0.931 . S
C1462 C1456 1.383 . S
C1462 C1461 1.379 . S
H1463 C1457 0.959 . S
H1464 C1457 0.961 . S
H1465 C1457 0.960 . S
H1466 C1458 0.930 . S
H1467 C1459 0.929 . S
H1468 C1476 0.929 1_565 S
H1469 C1478 0.930 . S
H1470 C1480 0.930 . S
H1471 C1483 0.929 . S
H1472 C1486 0.930 . S
H1473 C1488 0.960 . S
H1474 C1488 0.960 . S
H1475 C1488 0.960 . S
C1476 H1468 0.929 1_545 S
C1476 C1477 1.377 . S
C1476 C1478 1.384 1_545 S
C1477 C1476 1.377 . S
C1477 C1483 1.390 . S
C1478 H1469 0.930 . S
C1478 C1476 1.384 1_565 S
C1478 C1479 1.372 . S
C1479 C1478 1.372 . S
C1479 C1480 1.400 1_565 S
C1479 C1484 1.490 . S
C1480 H1470 0.930 . S
C1480 C1479 1.400 1_545 S
C1480 C1483 1.386 . S
H1481 C1497 0.930 . S
H1482 C1498 0.931 . S
C1483 H1471 0.929 . S
C1483 C1477 1.390 . S
C1483 C1480 1.386 . S
C1484 C1479 1.490 . S
C1484 C1486 1.395 . S
C1484 C1487 1.403 . S
H1485 C1491 0.930 . S
C1486 H1472 0.930 . S
C1486 C1484 1.395 . S
C1486 C1489 1.403 . S
C1487 C1484 1.403 . S
C1487 C1488 1.524 1_565 S
C1487 C1491 1.400 . S
C1488 H1473 0.960 . S
C1488 H1474 0.960 . S
C1488 H1475 0.960 . S
C1488 C1487 1.524 1_545 S
C1489 C1486 1.403 . S
C1489 C1490 1.392 . S
C1489 C1493 1.495 . S
C1490 C1489 1.392 . S
C1490 C1491 1.385 . S
C1490 C1492 1.478 . S
C1491 H1485 0.930 . S
C1491 C1487 1.400 . S
C1491 C1490 1.385 . S
C1492 C1490 1.478 . S
C1492 C1494 1.381 . S
C1492 C1498 1.383 . S
C1493 C1489 1.495 . S
C1493 H1499 0.959 . S
C1493 H1500 0.961 . S
C1493 H1501 0.960 . S
C1494 C1492 1.381 . S
C1494 C1495 1.394 . S
C1494 H1502 0.930 . S
C1495 C1494 1.394 . S
C1495 C1496 1.383 . S
C1495 H1503 0.929 . S
C1496 C1495 1.383 . S
C1496 C1497 1.377 . S
C1497 H1481 0.930 . S
C1497 C1496 1.377 . S
C1497 C1498 1.379 . S
C1498 H1482 0.931 . S
C1498 C1492 1.383 . S
C1498 C1497 1.379 . S
H1499 C1493 0.959 . S
H1500 C1493 0.961 . S
H1501 C1493 0.960 . S
H1502 C1494 0.930 . S
H1503 C1495 0.929 . S
H1504 C1512 0.929 . S
H1505 C1514 0.930 1_556 S
H1506 C1516 0.930 . S
H1507 C1519 0.929 . S
H1508 C1522 0.930 . S
H1509 C1524 0.960 . S
H1510 C1524 0.960 . S
H1511 C1524 0.960 . S
C1512 H1504 0.929 . S
C1512 C1513 1.377 . S
C1512 C1514 1.384 . S
C1513 C1512 1.377 . S
C1513 C1519 1.390 . S
C1514 H1505 0.930 1_554 S
C1514 C1512 1.384 . S
C1514 C1515 1.372 . S
C1515 C1514 1.372 . S
C1515 C1516 1.400 . S
C1515 C1520 1.490 1_554 S
C1516 H1506 0.930 . S
C1516 C1515 1.400 . S
C1516 C1519 1.386 . S
H1517 C1533 0.930 . S
H1518 C1534 0.931 . S
C1519 H1507 0.929 . S
C1519 C1513 1.390 . S
C1519 C1516 1.386 . S
C1520 C1515 1.490 1_556 S
C1520 C1522 1.395 . S
C1520 C1523 1.403 . S
H1521 C1527 0.930 . S
C1522 H1508 0.930 . S
C1522 C1520 1.395 . S
C1522 C1525 1.403 . S
C1523 C1520 1.403 . S
C1523 C1524 1.524 . S
C1523 C1527 1.400 . S
C1524 H1509 0.960 . S
C1524 H1510 0.960 . S
C1524 H1511 0.960 . S
C1524 C1523 1.524 . S
C1525 C1522 1.403 . S
C1525 C1526 1.392 . S
C1525 C1529 1.495 . S
C1526 C1525 1.392 . S
C1526 C1527 1.385 . S
C1526 C1528 1.478 . S
C1527 H1521 0.930 . S
C1527 C1523 1.400 . S
C1527 C1526 1.385 . S
C1528 C1526 1.478 . S
C1528 C1530 1.381 . S
C1528 C1534 1.383 . S
C1529 C1525 1.495 . S
C1529 H1535 0.959 . S
C1529 H1536 0.961 . S
C1529 H1537 0.960 . S
C1530 C1528 1.381 . S
C1530 C1531 1.394 . S
C1530 H1538 0.930 . S
C1531 C1530 1.394 . S
C1531 C1532 1.383 . S
C1531 H1539 0.929 . S
C1532 C1531 1.383 . S
C1532 C1533 1.377 . S
C1533 H1517 0.930 . S
C1533 C1532 1.377 . S
C1533 C1534 1.379 . S
C1534 H1518 0.931 . S
C1534 C1528 1.383 . S
C1534 C1533 1.379 . S
H1535 C1529 0.959 . S
H1536 C1529 0.961 . S
H1537 C1529 0.960 . S
H1538 C1530 0.930 . S
H1539 C1531 0.929 . S
H1540 C1548 0.929 . S
H1541 C1550 0.930 . S
H1542 C1552 0.930 . S
H1543 C1555 0.929 . S
H1544 C1558 0.930 . S
H1545 C1560 0.960 . S
H1546 C1560 0.960 . S
H1547 C1560 0.960 . S
C1548 H1540 0.929 . S
C1548 C1549 1.377 . S
C1548 C1550 1.384 . S
C1549 C1548 1.377 . S
C1549 C1555 1.390 . S
C1550 H1541 0.930 . S
C1550 C1548 1.384 . S
C1550 C1551 1.372 . S
C1551 C1550 1.372 . S
C1551 C1552 1.400 . S
C1551 C1556 1.490 . S
C1552 H1542 0.930 . S
C1552 C1551 1.400 . S
C1552 C1555 1.386 . S
H1553 C1569 0.930 . S
H1554 C1570 0.931 . S
C1555 H1543 0.929 . S
C1555 C1549 1.390 . S
C1555 C1552 1.386 . S
C1556 C1551 1.490 . S
C1556 C1558 1.395 . S
C1556 C1559 1.403 . S
H1557 C1563 0.930 . S
C1558 H1544 0.930 . S
C1558 C1556 1.395 . S
C1558 C1561 1.403 . S
C1559 C1556 1.403 . S
C1559 C1560 1.524 . S
C1559 C1563 1.400 . S
C1560 H1545 0.960 . S
C1560 H1546 0.960 . S
C1560 H1547 0.960 . S
C1560 C1559 1.524 . S
C1561 C1558 1.403 . S
C1561 C1562 1.392 . S
C1561 C1565 1.495 . S
C1562 C1561 1.392 . S
C1562 C1563 1.385 . S
C1562 C1564 1.478 . S
C1563 H1557 0.930 . S
C1563 C1559 1.400 . S
C1563 C1562 1.385 . S
C1564 C1562 1.478 . S
C1564 C1566 1.381 . S
C1564 C1570 1.383 . S
C1565 C1561 1.495 . S
C1565 H1571 0.959 . S
C1565 H1572 0.961 . S
C1565 H1573 0.960 . S
C1566 C1564 1.381 . S
C1566 C1567 1.394 . S
C1566 H1574 0.930 . S
C1567 C1566 1.394 . S
C1567 C1568 1.383 . S
C1567 H1575 0.929 . S
C1568 C1567 1.383 . S
C1568 C1569 1.377 . S
C1569 H1553 0.930 . S
C1569 C1568 1.377 . S
C1569 C1570 1.379 . S
C1570 H1554 0.931 . S
C1570 C1564 1.383 . S
C1570 C1569 1.379 . S
H1571 C1565 0.959 . S
H1572 C1565 0.961 . S
H1573 C1565 0.960 . S
H1574 C1566 0.930 . S
H1575 C1567 0.929 . S
H1576 C1584 0.929 . S
H1577 C1586 0.930 . S
H1578 C1588 0.930 . S
H1579 C1591 0.929 . S
H1580 C1594 0.930 . S
H1581 C1596 0.960 . S
H1582 C1596 0.960 . S
H1583 C1596 0.960 . S
C1584 H1576 0.929 . S
C1584 C1585 1.377 . S
C1584 C1586 1.384 . S
C1585 C1584 1.377 . S
C1585 C1591 1.390 . S
C1586 H1577 0.930 . S
C1586 C1584 1.384 . S
C1586 C1587 1.372 . S
C1587 C1586 1.372 . S
C1587 C1588 1.400 . S
C1587 C1592 1.490 . S
C1588 H1578 0.930 . S
C1588 C1587 1.400 . S
C1588 C1591 1.386 . S
H1589 C1605 0.930 . S
H1590 C1606 0.931 . S
C1591 H1579 0.929 . S
C1591 C1585 1.390 . S
C1591 C1588 1.386 . S
C1592 C1587 1.490 . S
C1592 C1594 1.395 . S
C1592 C1595 1.403 . S
H1593 C1599 0.930 . S
C1594 H1580 0.930 . S
C1594 C1592 1.395 . S
C1594 C1597 1.403 . S
C1595 C1592 1.403 . S
C1595 C1596 1.524 . S
C1595 C1599 1.400 . S
C1596 H1581 0.960 . S
C1596 H1582 0.960 . S
C1596 H1583 0.960 . S
C1596 C1595 1.524 . S
C1597 C1594 1.403 . S
C1597 C1598 1.392 . S
C1597 C1601 1.495 . S
C1598 C1597 1.392 . S
C1598 C1599 1.385 . S
C1598 C1600 1.478 . S
C1599 H1593 0.930 . S
C1599 C1595 1.400 . S
C1599 C1598 1.385 . S
C1600 C1598 1.478 . S
C1600 C1602 1.381 . S
C1600 C1606 1.383 . S
C1601 C1597 1.495 . S
C1601 H1607 0.959 . S
C1601 H1608 0.961 . S
C1601 H1609 0.960 . S
C1602 C1600 1.381 . S
C1602 C1603 1.394 . S
C1602 H1610 0.930 . S
C1603 C1602 1.394 . S
C1603 C1604 1.383 . S
C1603 H1611 0.929 . S
C1604 C1603 1.383 . S
C1604 C1605 1.377 . S
C1605 H1589 0.930 . S
C1605 C1604 1.377 . S
C1605 C1606 1.379 . S
C1606 H1590 0.931 . S
C1606 C1600 1.383 . S
C1606 C1605 1.379 . S
H1607 C1601 0.959 . S
H1608 C1601 0.961 . S
H1609 C1601 0.960 . S
H1610 C1602 0.930 . S
H1611 C1603 0.929 . S
H1612 C1620 0.929 . S
H1613 C1622 0.930 . S
H1614 C1624 0.930 . S
H1615 C1627 0.929 . S
H1616 C1630 0.930 . S
H1617 C1632 0.960 . S
H1618 C1632 0.960 . S
H1619 C1632 0.960 . S
C1620 H1612 0.929 . S
C1620 C1621 1.377 . S
C1620 C1622 1.384 . S
C1621 C1620 1.377 . S
C1621 C1627 1.390 . S
C1622 H1613 0.930 . S
C1622 C1620 1.384 . S
C1622 C1623 1.372 . S
C1623 C1622 1.372 . S
C1623 C1624 1.400 . S
C1623 C1628 1.490 . S
C1624 H1614 0.930 . S
C1624 C1623 1.400 . S
C1624 C1627 1.386 . S
H1625 C1641 0.930 . S
H1626 C1642 0.931 . S
C1627 H1615 0.929 . S
C1627 C1621 1.390 . S
C1627 C1624 1.386 . S
C1628 C1623 1.490 . S
C1628 C1630 1.395 . S
C1628 C1631 1.403 . S
H1629 C1635 0.930 . S
C1630 H1616 0.930 . S
C1630 C1628 1.395 . S
C1630 C1633 1.403 . S
C1631 C1628 1.403 . S
C1631 C1632 1.524 . S
C1631 C1635 1.400 . S
C1632 H1617 0.960 . S
C1632 H1618 0.960 . S
C1632 H1619 0.960 . S
C1632 C1631 1.524 . S
C1633 C1630 1.403 . S
C1633 C1634 1.392 . S
C1633 C1637 1.495 . S
C1634 C1633 1.392 . S
C1634 C1635 1.385 . S
C1634 C1636 1.478 . S
C1635 H1629 0.930 . S
C1635 C1631 1.400 . S
C1635 C1634 1.385 . S
C1636 C1634 1.478 . S
C1636 C1638 1.381 . S
C1636 C1642 1.383 . S
C1637 C1633 1.495 . S
C1637 H1643 0.959 . S
C1637 H1644 0.961 . S
C1637 H1645 0.960 . S
C1638 C1636 1.381 . S
C1638 C1639 1.394 . S
C1638 H1646 0.930 . S
C1639 C1638 1.394 . S
C1639 C1640 1.383 . S
C1639 H1647 0.929 . S
C1640 C1639 1.383 . S
C1640 C1641 1.377 . S
C1641 H1625 0.930 . S
C1641 C1640 1.377 . S
C1641 C1642 1.379 . S
C1642 H1626 0.931 . S
C1642 C1636 1.383 . S
C1642 C1641 1.379 . S
H1643 C1637 0.959 . S
H1644 C1637 0.961 . S
H1645 C1637 0.960 . S
H1646 C1638 0.930 . S
H1647 C1639 0.929 . S
H1648 C1656 0.929 . S
H1649 C1658 0.930 . S
H1650 C1660 0.930 . S
H1651 C1663 0.929 . S
H1652 C1666 0.930 . S
H1653 C1668 0.960 . S
H1654 C1668 0.960 . S
H1655 C1668 0.960 . S
C1656 H1648 0.929 . S
C1656 C1657 1.377 . S
C1656 C1658 1.384 . S
C1657 C1656 1.377 . S
C1657 C1663 1.390 . S
C1658 H1649 0.930 . S
C1658 C1656 1.384 . S
C1658 C1659 1.372 . S
C1659 C1658 1.372 . S
C1659 C1660 1.400 . S
C1659 C1664 1.490 . S
C1660 H1650 0.930 . S
C1660 C1659 1.400 . S
C1660 C1663 1.386 . S
H1661 C1677 0.930 . S
H1662 C1678 0.931 . S
C1663 H1651 0.929 . S
C1663 C1657 1.390 . S
C1663 C1660 1.386 . S
C1664 C1659 1.490 . S
C1664 C1666 1.395 . S
C1664 C1667 1.403 . S
H1665 C1671 0.930 . S
C1666 H1652 0.930 . S
C1666 C1664 1.395 . S
C1666 C1669 1.403 . S
C1667 C1664 1.403 . S
C1667 C1668 1.524 . S
C1667 C1671 1.400 . S
C1668 H1653 0.960 . S
C1668 H1654 0.960 . S
C1668 H1655 0.960 . S
C1668 C1667 1.524 . S
C1669 C1666 1.403 . S
C1669 C1670 1.392 . S
C1669 C1673 1.495 . S
C1670 C1669 1.392 . S
C1670 C1671 1.385 . S
C1670 C1672 1.496 . S
C1671 H1665 0.930 . S
C1671 C1667 1.400 . S
C1671 C1670 1.385 . S
C1672 C1670 1.496 . S
C1672 C1674 1.376 1_554 S
C1672 C1678 1.368 1_554 S
C1673 C1669 1.495 . S
C1673 H1679 0.959 . S
C1673 H1680 0.961 . S
C1673 H1681 0.960 . S
C1674 C1672 1.376 1_556 S
C1674 C1675 1.394 . S
C1674 H1682 0.930 1_556 S
C1675 C1674 1.394 . S
C1675 C1676 1.383 . S
C1675 H1683 0.929 . S
C1676 C1675 1.383 . S
C1676 C1677 1.377 . S
C1677 H1661 0.930 . S
C1677 C1676 1.377 . S
C1677 C1678 1.379 . S
C1678 H1662 0.931 . S
C1678 C1672 1.368 1_556 S
C1678 C1677 1.379 . S
H1679 C1673 0.959 . S
H1680 C1673 0.961 . S
H1681 C1673 0.960 . S
H1682 C1674 0.930 1_554 S
H1683 C1675 0.929 . S
H1684 C1692 0.929 . S
H1685 C1694 0.930 . S
H1686 C1696 0.930 . S
H1687 C1699 0.929 . S
H1688 C1702 0.930 . S
H1689 C1704 0.960 . S
H1690 C1704 0.960 . S
H1691 C1704 0.960 . S
C1692 H1684 0.929 . S
C1692 C1693 1.377 . S
C1692 C1694 1.384 . S
C1693 C1692 1.377 . S
C1693 C1699 1.390 . S
C1694 H1685 0.930 . S
C1694 C1692 1.384 . S
C1694 C1695 1.372 . S
C1695 C1694 1.372 . S
C1695 C1696 1.400 . S
C1695 C1700 1.490 . S
C1696 H1686 0.930 . S
C1696 C1695 1.400 . S
C1696 C1699 1.386 . S
H1697 C1713 0.930 . S
H1698 C1714 0.931 . S
C1699 H1687 0.929 . S
C1699 C1693 1.390 . S
C1699 C1696 1.386 . S
C1700 C1695 1.490 . S
C1700 C1702 1.395 . S
C1700 C1703 1.403 . S
H1701 C1707 0.930 . S
C1702 H1688 0.930 . S
C1702 C1700 1.395 . S
C1702 C1705 1.403 . S
C1703 C1700 1.403 . S
C1703 C1704 1.524 . S
C1703 C1707 1.400 . S
C1704 H1689 0.960 . S
C1704 H1690 0.960 . S
C1704 H1691 0.960 . S
C1704 C1703 1.524 . S
C1705 C1702 1.403 . S
C1705 C1706 1.392 . S
C1705 C1709 1.495 . S
C1706 C1705 1.392 . S
C1706 C1707 1.385 . S
C1706 C1708 1.478 . S
C1707 H1701 0.930 . S
C1707 C1703 1.400 . S
C1707 C1706 1.385 . S
C1708 C1706 1.478 . S
C1708 C1710 1.381 . S
C1708 C1714 1.383 . S
C1709 C1705 1.495 . S
C1709 H1715 0.959 . S
C1709 H1716 0.961 . S
C1709 H1717 0.960 . S
C1710 C1708 1.381 . S
C1710 C1711 1.394 . S
C1710 H1718 0.930 . S
C1711 C1710 1.394 . S
C1711 C1712 1.383 . S
C1711 H1719 0.929 . S
C1712 C1711 1.383 . S
C1712 C1713 1.377 . S
C1713 H1697 0.930 . S
C1713 C1712 1.377 . S
C1713 C1714 1.379 . S
C1714 H1698 0.931 . S
C1714 C1708 1.383 . S
C1714 C1713 1.379 . S
H1715 C1709 0.959 . S
H1716 C1709 0.961 . S
H1717 C1709 0.960 . S
H1718 C1710 0.930 . S
H1719 C1711 0.929 . S
H1720 C1728 0.929 . S
H1721 C1730 0.930 . S
H1722 C1732 0.930 . S
H1723 C1735 0.929 . S
H1724 C1738 0.930 . S
H1725 C1740 0.960 . S
H1726 C1740 0.960 . S
H1727 C1740 0.960 . S
C1728 H1720 0.929 . S
C1728 C1729 1.377 . S
C1728 C1730 1.384 . S
C1729 C1728 1.377 . S
C1729 C1735 1.390 . S
C1730 H1721 0.930 . S
C1730 C1728 1.384 . S
C1730 C1731 1.372 . S
C1731 C1730 1.372 . S
C1731 C1732 1.400 . S
C1731 C1736 1.490 . S
C1732 H1722 0.930 . S
C1732 C1731 1.400 . S
C1732 C1735 1.386 . S
H1733 C1749 0.930 . S
H1734 C1750 0.931 . S
C1735 H1723 0.929 . S
C1735 C1729 1.390 . S
C1735 C1732 1.386 . S
C1736 C1731 1.490 . S
C1736 C1738 1.395 . S
C1736 C1739 1.403 . S
H1737 C1743 0.930 . S
C1738 H1724 0.930 . S
C1738 C1736 1.395 . S
C1738 C1741 1.403 . S
C1739 C1736 1.403 . S
C1739 C1740 1.524 . S
C1739 C1743 1.400 . S
C1740 H1725 0.960 . S
C1740 H1726 0.960 . S
C1740 H1727 0.960 . S
C1740 C1739 1.524 . S
C1741 C1738 1.403 . S
C1741 C1742 1.392 . S
C1741 C1745 1.495 . S
C1742 C1741 1.392 . S
C1742 C1743 1.385 . S
C1742 C1744 1.478 . S
C1743 H1737 0.930 . S
C1743 C1739 1.400 . S
C1743 C1742 1.385 . S
C1744 C1742 1.478 . S
C1744 C1746 1.381 . S
C1744 C1750 1.383 . S
C1745 C1741 1.495 . S
C1745 H1751 0.959 . S
C1745 H1752 0.961 . S
C1745 H1753 0.960 . S
C1746 C1744 1.381 . S
C1746 C1747 1.394 . S
C1746 H1754 0.930 . S
C1747 C1746 1.394 . S
C1747 C1748 1.383 . S
C1747 H1755 0.929 . S
C1748 C1747 1.383 . S
C1748 C1749 1.377 . S
C1749 H1733 0.930 . S
C1749 C1748 1.377 . S
C1749 C1750 1.379 . S
C1750 H1734 0.931 . S
C1750 C1744 1.383 . S
C1750 C1749 1.379 . S
H1751 C1745 0.959 . S
H1752 C1745 0.961 . S
H1753 C1745 0.960 . S
H1754 C1746 0.930 . S
H1755 C1747 0.929 . S
H1756 C1764 0.929 . S
H1757 C1766 0.930 . S
H1758 C1768 0.930 . S
H1759 C1771 0.929 . S
H1760 C1774 0.930 . S
H1761 C1776 0.960 . S
H1762 C1776 0.960 . S
H1763 C1776 0.960 . S
C1764 H1756 0.929 . S
C1764 C1765 1.377 . S
C1764 C1766 1.384 . S
C1765 C1764 1.377 . S
C1765 C1771 1.390 . S
C1766 H1757 0.930 . S
C1766 C1764 1.384 . S
C1766 C1767 1.372 . S
C1767 C1766 1.372 . S
C1767 C1768 1.400 . S
C1767 C1772 1.490 . S
C1768 H1758 0.930 . S
C1768 C1767 1.400 . S
C1768 C1771 1.386 . S
H1769 C1785 0.930 . S
H1770 C1786 0.931 . S
C1771 H1759 0.929 . S
C1771 C1765 1.390 . S
C1771 C1768 1.386 . S
C1772 C1767 1.490 . S
C1772 C1774 1.395 . S
C1772 C1775 1.403 . S
H1773 C1779 0.930 . S
C1774 H1760 0.930 . S
C1774 C1772 1.395 . S
C1774 C1777 1.403 . S
C1775 C1772 1.403 . S
C1775 C1776 1.524 . S
C1775 C1779 1.400 . S
C1776 H1761 0.960 . S
C1776 H1762 0.960 . S
C1776 H1763 0.960 . S
C1776 C1775 1.524 . S
C1777 C1774 1.403 . S
C1777 C1778 1.392 . S
C1777 C1781 1.495 . S
C1778 C1777 1.392 . S
C1778 C1779 1.385 . S
C1778 C1780 1.478 . S
C1779 H1773 0.930 . S
C1779 C1775 1.400 . S
C1779 C1778 1.385 . S
C1780 C1778 1.478 . S
C1780 C1782 1.381 . S
C1780 C1786 1.383 . S
C1781 C1777 1.495 . S
C1781 H1787 0.959 . S
C1781 H1788 0.961 . S
C1781 H1789 0.960 . S
C1782 C1780 1.381 . S
C1782 C1783 1.394 . S
C1782 H1790 0.930 . S
C1783 C1782 1.394 . S
C1783 C1784 1.383 . S
C1783 H1791 0.929 . S
C1784 C1783 1.383 . S
C1784 C1785 1.377 . S
C1785 H1769 0.930 . S
C1785 C1784 1.377 . S
C1785 C1786 1.379 . S
C1786 H1770 0.931 . S
C1786 C1780 1.383 . S
C1786 C1785 1.379 . S
H1787 C1781 0.959 . S
H1788 C1781 0.961 . S
H1789 C1781 0.960 . S
H1790 C1782 0.930 . S
H1791 C1783 0.929 . S
H1792 C1800 0.929 . S
H1793 C1802 0.930 . S
H1794 C1804 0.930 . S
H1795 C1807 0.929 . S
H1796 C1810 0.930 . S
H1797 C1812 0.960 . S
H1798 C1812 0.960 . S
H1799 C1812 0.960 . S
C1800 H1792 0.929 . S
C1800 C1801 1.377 . S
C1800 C1802 1.384 . S
C1801 C1800 1.377 . S
C1801 C1807 1.390 . S
C1802 H1793 0.930 . S
C1802 C1800 1.384 . S
C1802 C1803 1.372 . S
C1803 C1802 1.372 . S
C1803 C1804 1.400 . S
C1803 C1808 1.490 . S
C1804 H1794 0.930 . S
C1804 C1803 1.400 . S
C1804 C1807 1.386 . S
H1805 C1821 0.930 . S
H1806 C1822 0.931 . S
C1807 H1795 0.929 . S
C1807 C1801 1.390 . S
C1807 C1804 1.386 . S
C1808 C1803 1.490 . S
C1808 C1810 1.395 . S
C1808 C1811 1.403 . S
H1809 C1815 0.930 . S
C1810 H1796 0.930 . S
C1810 C1808 1.395 . S
C1810 C1813 1.403 . S
C1811 C1808 1.403 . S
C1811 C1812 1.524 . S
C1811 C1815 1.400 . S
C1812 H1797 0.960 . S
C1812 H1798 0.960 . S
C1812 H1799 0.960 . S
C1812 C1811 1.524 . S
C1813 C1810 1.403 . S
C1813 C1814 1.392 . S
C1813 C1817 1.495 . S
C1814 C1813 1.392 . S
C1814 C1815 1.385 . S
C1814 C1816 1.478 . S
C1815 H1809 0.930 . S
C1815 C1811 1.400 . S
C1815 C1814 1.385 . S
C1816 C1814 1.478 . S
C1816 C1818 1.381 . S
C1816 C1822 1.383 . S
C1817 C1813 1.495 . S
C1817 H1823 0.959 . S
C1817 H1824 0.961 . S
C1817 H1825 0.960 . S
C1818 C1816 1.381 . S
C1818 C1819 1.394 . S
C1818 H1826 0.930 . S
C1819 C1818 1.394 . S
C1819 C1820 1.383 . S
C1819 H1827 0.929 . S
C1820 C1819 1.383 . S
C1820 C1821 1.377 . S
C1821 H1805 0.930 . S
C1821 C1820 1.377 . S
C1821 C1822 1.379 . S
C1822 H1806 0.931 . S
C1822 C1816 1.383 . S
C1822 C1821 1.379 . S
H1823 C1817 0.959 . S
H1824 C1817 0.961 . S
H1825 C1817 0.960 . S
H1826 C1818 0.930 . S
H1827 C1819 0.929 . S
H1828 C1836 0.929 . S
H1829 C1838 0.930 . S
H1830 C1840 0.930 . S
H1831 C1843 0.929 . S
H1832 C1846 0.930 . S
H1833 C1848 0.960 1_545 S
H1834 C1848 0.960 1_545 S
H1835 C1848 0.960 . S
C1836 H1828 0.929 . S
C1836 C1837 1.377 . S
C1836 C1838 1.384 . S
C1837 C1836 1.377 . S
C1837 C1843 1.390 . S
C1838 H1829 0.930 . S
C1838 C1836 1.384 . S
C1838 C1839 1.372 . S
C1839 C1838 1.372 . S
C1839 C1840 1.400 . S
C1839 C1844 1.490 . S
C1840 H1830 0.930 . S
C1840 C1839 1.400 . S
C1840 C1843 1.386 . S
H1841 C1857 0.930 . S
H1842 C1858 0.931 . S
C1843 H1831 0.929 . S
C1843 C1837 1.390 . S
C1843 C1840 1.386 . S
C1844 C1839 1.490 . S
C1844 C1846 1.395 . S
C1844 C1847 1.403 . S
H1845 C1851 0.930 1_545 S
C1846 H1832 0.930 . S
C1846 C1844 1.395 . S
C1846 C1849 1.403 . S
C1847 C1844 1.403 . S
C1847 C1848 1.524 . S
C1847 C1851 1.400 . S
C1848 H1833 0.960 1_565 S
C1848 H1834 0.960 1_565 S
C1848 H1835 0.960 . S
C1848 C1847 1.524 . S
C1849 C1846 1.403 . S
C1849 C1850 1.392 . S
C1849 C1853 1.495 . S
C1850 C1849 1.392 . S
C1850 C1851 1.385 . S
C1850 C1852 1.478 1_565 S
C1851 H1845 0.930 1_565 S
C1851 C1847 1.400 . S
C1851 C1850 1.385 . S
C1852 C1850 1.478 1_545 S
C1852 C1854 1.381 . S
C1852 C1858 1.383 1_545 S
C1853 C1849 1.495 . S
C1853 H1859 0.959 . S
C1853 H1860 0.961 . S
C1853 H1861 0.960 . S
C1854 C1852 1.381 . S
C1854 C1855 1.394 . S
C1854 H1862 0.930 . S
C1855 C1854 1.394 . S
C1855 C1856 1.383 . S
C1855 H1863 0.929 . S
C1856 C1855 1.383 . S
C1856 C1857 1.377 . S
C1857 H1841 0.930 . S
C1857 C1856 1.377 . S
C1857 C1858 1.379 1_545 S
C1858 H1842 0.931 . S
C1858 C1852 1.383 1_565 S
C1858 C1857 1.379 1_565 S
H1859 C1853 0.959 . S
H1860 C1853 0.961 . S
H1861 C1853 0.960 . S
H1862 C1854 0.930 . S
H1863 C1855 0.929 . S
H1864 C1872 0.929 . S
H1865 C1874 0.930 . S
H1866 C1876 0.930 . S
H1867 C1879 0.929 . S
H1868 C1882 0.930 . S
H1869 C1884 0.960 . S
H1870 C1884 0.960 . S
H1871 C1884 0.960 . S
C1872 H1864 0.929 . S
C1872 C1873 1.377 . S
C1872 C1874 1.384 . S
C1873 C1872 1.377 . S
C1873 C1879 1.390 . S
C1874 H1865 0.930 . S
C1874 C1872 1.384 . S
C1874 C1875 1.372 . S
C1875 C1874 1.372 . S
C1875 C1876 1.400 . S
C1875 C1880 1.490 . S
C1876 H1866 0.930 . S
C1876 C1875 1.400 . S
C1876 C1879 1.386 . S
H1877 C1893 0.930 . S
H1878 C1894 0.931 . S
C1879 H1867 0.929 . S
C1879 C1873 1.390 . S
C1879 C1876 1.386 . S
C1880 C1875 1.490 . S
C1880 C1882 1.395 . S
C1880 C1883 1.403 . S
H1881 C1887 0.930 . S
C1882 H1868 0.930 . S
C1882 C1880 1.395 . S
C1882 C1885 1.403 . S
C1883 C1880 1.403 . S
C1883 C1884 1.524 . S
C1883 C1887 1.400 . S
C1884 H1869 0.960 . S
C1884 H1870 0.960 . S
C1884 H1871 0.960 . S
C1884 C1883 1.524 . S
C1885 C1882 1.403 . S
C1885 C1886 1.392 . S
C1885 C1889 1.495 . S
C1886 C1885 1.392 . S
C1886 C1887 1.385 . S
C1886 C1888 1.512 . S
C1887 H1881 0.930 . S
C1887 C1883 1.400 . S
C1887 C1886 1.385 . S
C1888 C1886 1.512 . S
C1888 C1890 1.367 1_556 S
C1888 C1894 1.362 1_556 S
C1889 C1885 1.495 . S
C1889 H1895 0.959 . S
C1889 H1896 0.961 . S
C1889 H1897 0.960 . S
C1890 C1888 1.367 1_554 S
C1890 C1891 1.394 . S
C1890 H1898 0.918 1_554 S
C1891 C1890 1.394 . S
C1891 C1892 1.383 . S
C1891 H1899 0.929 . S
C1892 C1891 1.383 . S
C1892 C1893 1.377 . S
C1893 H1877 0.930 . S
C1893 C1892 1.377 . S
C1893 C1894 1.379 . S
C1894 H1878 0.931 . S
C1894 C1888 1.362 1_554 S
C1894 C1893 1.379 . S
H1895 C1889 0.959 . S
H1896 C1889 0.961 . S
H1897 C1889 0.960 . S
H1898 C1890 0.918 1_556 S
H1899 C1891 0.929 . S
H1900 C1908 0.929 . S
H1901 C1910 0.930 . S
H1902 C1912 0.930 . S
H1903 C1915 0.929 . S
H1904 C1918 0.930 . S
H1905 C1920 0.960 . S
H1906 C1920 0.960 . S
H1907 C1920 0.960 . S
C1908 H1900 0.929 . S
C1908 C1909 1.377 . S
C1908 C1910 1.384 . S
C1909 C1908 1.377 . S
C1909 C1915 1.390 . S
C1910 H1901 0.930 . S
C1910 C1908 1.384 . S
C1910 C1911 1.372 . S
C1911 C1910 1.372 . S
C1911 C1912 1.400 . S
C1911 C1916 1.490 1_565 S
C1912 H1902 0.930 . S
C1912 C1911 1.400 . S
C1912 C1915 1.386 . S
H1913 C1929 0.930 . S
H1914 C1930 0.931 . S
C1915 H1903 0.929 . S
C1915 C1909 1.390 . S
C1915 C1912 1.386 . S
C1916 C1911 1.490 1_545 S
C1916 C1918 1.395 . S
C1916 C1919 1.403 1_545 S
H1917 C1923 0.931 1_565 S
C1918 H1904 0.930 . S
C1918 C1916 1.395 . S
C1918 C1921 1.403 . S
C1919 C1916 1.403 1_565 S
C1919 C1920 1.524 . S
C1919 C1923 1.400 1_565 S
C1920 H1905 0.960 . S
C1920 H1906 0.960 . S
C1920 H1907 0.960 . S
C1920 C1919 1.524 . S
C1921 C1918 1.403 . S
C1921 C1922 1.392 . S
C1921 C1925 1.495 . S
C1922 C1921 1.392 . S
C1922 C1923 1.385 . S
C1922 C1924 1.478 . S
C1923 H1917 0.931 1_545 S
C1923 C1919 1.400 1_545 S
C1923 C1922 1.385 . S
C1924 C1922 1.478 . S
C1924 C1926 1.381 . S
C1924 C1930 1.383 . S
C1925 C1921 1.495 . S
C1925 H1931 0.959 . S
C1925 H1932 0.961 . S
C1925 H1933 0.960 . S
C1926 C1924 1.381 . S
C1926 C1927 1.394 . S
C1926 H1934 0.930 . S
C1927 C1926 1.394 . S
C1927 C1928 1.383 . S
C1927 H1935 0.929 . S
C1928 C1927 1.383 . S
C1928 C1929 1.377 . S
C1929 H1913 0.930 . S
C1929 C1928 1.377 . S
C1929 C1930 1.379 . S
C1930 H1914 0.931 . S
C1930 C1924 1.383 . S
C1930 C1929 1.379 . S
H1931 C1925 0.959 . S
H1932 C1925 0.961 . S
H1933 C1925 0.960 . S
H1934 C1926 0.930 . S
H1935 C1927 0.929 . S
H1936 C1944 0.929 . S
H1937 C1946 0.930 . S
H1938 C1948 0.930 . S
H1939 C1951 0.929 . S
H1940 C1954 0.930 . S
H1941 C1956 0.960 . S
H1942 C1956 0.960 . S
H1943 C1956 0.960 . S
C1944 H1936 0.929 . S
C1944 C1945 1.377 . S
C1944 C1946 1.384 . S
C1945 C1944 1.377 . S
C1945 C1951 1.390 . S
C1946 H1937 0.930 . S
C1946 C1944 1.384 . S
C1946 C1947 1.372 . S
C1947 C1946 1.372 . S
C1947 C1948 1.400 . S
C1947 C1952 1.490 . S
C1948 H1938 0.930 . S
C1948 C1947 1.400 . S
C1948 C1951 1.386 . S
H1949 C1965 0.930 . S
H1950 C1966 0.931 . S
C1951 H1939 0.929 . S
C1951 C1945 1.390 . S
C1951 C1948 1.386 . S
C1952 C1947 1.490 . S
C1952 C1954 1.395 . S
C1952 C1955 1.403 . S
H1953 C1959 0.930 . S
C1954 H1940 0.930 . S
C1954 C1952 1.395 . S
C1954 C1957 1.403 . S
C1955 C1952 1.403 . S
C1955 C1956 1.524 . S
C1955 C1959 1.400 . S
C1956 H1941 0.960 . S
C1956 H1942 0.960 . S
C1956 H1943 0.960 . S
C1956 C1955 1.524 . S
C1957 C1954 1.403 . S
C1957 C1958 1.392 . S
C1957 C1961 1.495 . S
C1958 C1957 1.392 . S
C1958 C1959 1.385 . S
C1958 C1960 1.478 . S
C1959 H1953 0.930 . S
C1959 C1955 1.400 . S
C1959 C1958 1.385 . S
C1960 C1958 1.478 . S
C1960 C1962 1.381 . S
C1960 C1966 1.383 . S
C1961 C1957 1.495 . S
C1961 H1967 0.959 . S
C1961 H1968 0.961 . S
C1961 H1969 0.960 . S
C1962 C1960 1.381 . S
C1962 C1963 1.394 . S
C1962 H1970 0.930 . S
C1963 C1962 1.394 . S
C1963 C1964 1.383 . S
C1963 H1971 0.929 . S
C1964 C1963 1.383 . S
C1964 C1965 1.377 . S
C1965 H1949 0.930 . S
C1965 C1964 1.377 . S
C1965 C1966 1.379 . S
C1966 H1950 0.931 . S
C1966 C1960 1.383 . S
C1966 C1965 1.379 . S
H1967 C1961 0.959 . S
H1968 C1961 0.961 . S
H1969 C1961 0.960 . S
H1970 C1962 0.930 . S
H1971 C1963 0.929 . S
H1972 C1980 0.929 . S
H1973 C1982 0.930 . S
H1974 C1984 0.930 . S
H1975 C1987 0.929 . S
H1976 C1990 0.930 . S
H1977 C1992 0.960 . S
H1978 C1992 0.960 . S
H1979 C1992 0.960 . S
C1980 H1972 0.929 . S
C1980 C1981 1.377 . S
C1980 C1982 1.384 . S
C1981 C1980 1.377 . S
C1981 C1987 1.390 . S
C1982 H1973 0.930 . S
C1982 C1980 1.384 . S
C1982 C1983 1.372 . S
C1983 C1982 1.372 . S
C1983 C1984 1.400 . S
C1983 C1988 1.490 . S
C1984 H1974 0.930 . S
C1984 C1983 1.400 . S
C1984 C1987 1.386 . S
H1985 C2001 0.930 . S
H1986 C2002 0.931 . S
C1987 H1975 0.929 . S
C1987 C1981 1.390 . S
C1987 C1984 1.386 . S
C1988 C1983 1.490 . S
C1988 C1990 1.395 . S
C1988 C1991 1.403 . S
H1989 C1995 0.930 . S
C1990 H1976 0.930 . S
C1990 C1988 1.395 . S
C1990 C1993 1.403 . S
C1991 C1988 1.403 . S
C1991 C1992 1.524 1_545 S
C1991 C1995 1.400 1_545 S
C1992 H1977 0.960 . S
C1992 H1978 0.960 . S
C1992 H1979 0.960 . S
C1992 C1991 1.524 1_565 S
C1993 C1990 1.403 . S
C1993 C1994 1.392 . S
C1993 C1997 1.495 . S
C1994 C1993 1.392 . S
C1994 C1995 1.385 1_545 S
C1994 C1996 1.478 1_545 S
C1995 H1989 0.930 . S
C1995 C1991 1.400 1_565 S
C1995 C1994 1.385 1_565 S
C1996 C1994 1.478 1_565 S
C1996 C1998 1.381 . S
C1996 C2002 1.383 . S
C1997 C1993 1.495 . S
C1997 H2003 0.959 . S
C1997 H2004 0.961 . S
C1997 H2005 0.960 . S
C1998 C1996 1.381 . S
C1998 C1999 1.394 . S
C1998 H2006 0.930 1_565 S
C1999 C1998 1.394 . S
C1999 C2000 1.383 . S
C1999 H2007 0.929 . S
C2000 C1999 1.383 . S
C2000 C2001 1.377 . S
C2001 H1985 0.930 . S
C2001 C2000 1.377 . S
C2001 C2002 1.379 . S
C2002 H1986 0.931 . S
C2002 C1996 1.383 . S
C2002 C2001 1.379 . S
H2003 C1997 0.959 . S
H2004 C1997 0.961 . S
H2005 C1997 0.960 . S
H2006 C1998 0.930 1_545 S
H2007 C1999 0.929 . S
H2008 C2016 0.929 . S
H2009 C2018 0.930 . S
H2010 C2020 0.930 . S
H2011 C2023 0.929 . S
H2012 C2026 0.930 . S
H2013 C2028 0.960 . S
H2014 C2028 0.960 . S
H2015 C2028 0.960 . S
C2016 H2008 0.929 . S
C2016 C2017 1.377 . S
C2016 C2018 1.384 . S
C2017 C2016 1.377 . S
C2017 C2023 1.390 . S
C2018 H2009 0.930 . S
C2018 C2016 1.384 . S
C2018 C2019 1.372 . S
C2019 C2018 1.372 . S
C2019 C2020 1.400 . S
C2019 C2024 1.490 . S
C2020 H2010 0.930 . S
C2020 C2019 1.400 . S
C2020 C2023 1.386 . S
H2021 C2037 0.930 . S
H2022 C2038 0.931 1_554 S
C2023 H2011 0.929 . S
C2023 C2017 1.390 . S
C2023 C2020 1.386 . S
C2024 C2019 1.490 . S
C2024 C2026 1.395 . S
C2024 C2027 1.403 . S
H2025 C2031 0.930 . S
C2026 H2012 0.930 . S
C2026 C2024 1.395 . S
C2026 C2029 1.403 . S
C2027 C2024 1.403 . S
C2027 C2028 1.524 . S
C2027 C2031 1.400 . S
C2028 H2013 0.960 . S
C2028 H2014 0.960 . S
C2028 H2015 0.960 . S
C2028 C2027 1.524 . S
C2029 C2026 1.403 . S
C2029 C2030 1.392 . S
C2029 C2033 1.495 . S
C2030 C2029 1.392 . S
C2030 C2031 1.385 . S
C2030 C2032 1.478 1_554 S
C2031 H2025 0.930 . S
C2031 C2027 1.400 . S
C2031 C2030 1.385 . S
C2032 C2030 1.478 1_556 S
C2032 C2034 1.381 . S
C2032 C2038 1.383 . S
C2033 C2029 1.495 . S
C2033 H2039 0.959 . S
C2033 H2040 0.939 1_554 S
C2033 H2041 0.960 1_554 S
C2034 C2032 1.381 . S
C2034 C2035 1.394 . S
C2034 H2042 0.930 . S
C2035 C2034 1.394 . S
C2035 C2036 1.383 . S
C2035 H2043 0.929 . S
C2036 C2035 1.383 . S
C2036 C2037 1.377 . S
C2037 H2021 0.930 . S
C2037 C2036 1.377 . S
C2037 C2038 1.379 . S
C2038 H2022 0.931 1_556 S
C2038 C2032 1.383 . S
C2038 C2037 1.379 . S
H2039 C2033 0.959 . S
H2040 C2033 0.939 1_556 S
H2041 C2033 0.960 1_556 S
H2042 C2034 0.930 . S
H2043 C2035 0.929 . S
H2044 C2052 0.929 . S
H2045 C2054 0.930 . S
H2046 C2056 0.930 . S
H2047 C2059 0.929 . S
H2048 C2062 0.930 . S
H2049 C2064 0.960 . S
H2050 C2064 0.960 . S
H2051 C2064 0.960 . S
C2052 H2044 0.929 . S
C2052 C2053 1.377 . S
C2052 C2054 1.384 . S
C2053 C2052 1.377 . S
C2053 C2059 1.390 . S
C2054 H2045 0.930 . S
C2054 C2052 1.384 . S
C2054 C2055 1.372 . S
C2055 C2054 1.372 . S
C2055 C2056 1.400 . S
C2055 C2060 1.490 . S
C2056 H2046 0.930 . S
C2056 C2055 1.400 . S
C2056 C2059 1.386 . S
H2057 C2073 0.930 . S
H2058 C2074 0.931 . S
C2059 H2047 0.929 . S
C2059 C2053 1.390 . S
C2059 C2056 1.386 . S
C2060 C2055 1.490 . S
C2060 C2062 1.395 . S
C2060 C2063 1.403 . S
H2061 C2067 0.930 . S
C2062 H2048 0.930 . S
C2062 C2060 1.395 . S
C2062 C2065 1.403 . S
C2063 C2060 1.403 . S
C2063 C2064 1.524 1_565 S
C2063 C2067 1.400 1_565 S
C2064 H2049 0.960 . S
C2064 H2050 0.960 . S
C2064 H2051 0.960 . S
C2064 C2063 1.524 1_545 S
C2065 C2062 1.403 . S
C2065 C2066 1.392 . S
C2065 C2069 1.495 . S
C2066 C2065 1.392 . S
C2066 C2067 1.385 1_565 S
C2066 C2068 1.478 1_565 S
C2067 H2061 0.930 . S
C2067 C2063 1.400 1_545 S
C2067 C2066 1.385 1_545 S
C2068 C2066 1.478 1_545 S
C2068 C2070 1.381 1_545 S
C2068 C2074 1.383 . S
C2069 C2065 1.495 . S
C2069 H2075 0.959 . S
C2069 H2076 0.961 . S
C2069 H2077 0.960 . S
C2070 C2068 1.381 1_565 S
C2070 C2071 1.394 1_565 S
C2070 H2078 0.930 . S
C2071 C2070 1.394 1_545 S
C2071 C2072 1.383 . S
C2071 H2079 0.929 1_545 S
C2072 C2071 1.383 . S
C2072 C2073 1.377 . S
C2073 H2057 0.930 . S
C2073 C2072 1.377 . S
C2073 C2074 1.379 . S
C2074 H2058 0.931 . S
C2074 C2068 1.383 . S
C2074 C2073 1.379 . S
H2075 C2069 0.959 . S
H2076 C2069 0.961 . S
H2077 C2069 0.960 . S
H2078 C2070 0.930 . S
H2079 C2071 0.929 1_565 S
C361 C15 0.414 . S
C380 C241 0.408 . S
C397 C32 0.383 . S
C416 C263 0.330 . S
C433 C65 0.406 . S
C452 C197 0.443 . S
C469 C216 0.354 . S
C488 C81 0.435 . S
C505 C103 0.440 . S
C524 C323 0.492 . S
C541 C345 0.425 . S
C560 C117 0.414 . S
C577 C285 0.418 . S
C596 C153 0.417 . S
C613 C169 0.416 . S
C632 C301 0.359 . S
C649 C7 2.275 . S
C668 C95 2.279 . S
C685 C30 2.229 . S
C704 C293 2.220 . S
C721 C59 2.291 . S
C740 C147 2.290 . S
C757 C73 2.265 . S
C776 C337 2.264 . S
C793 C131 2.216 . S
C812 C208 2.221 . S
C829 C257 2.263 . S
C848 C161 2.251 . S
C865 C279 2.273 . S
C884 C191 2.271 . S
C901 C235 2.290 . S
C920 C315 2.294 . S
C937 C10 1.825 . S
C956 C162 1.823 . S
C973 C37 1.858 . S
C992 C282 1.856 . S
C1009 C52 1.818 . S
C1028 C120 1.805 . S
C1045 C76 1.823 . S
C1064 C316 1.830 . S
C1081 C74 1.790 . S
C1100 C98 1.799 . S
C1117 C128 1.804 . S
C1136 C194 1.797 . S
C1153 C140 1.874 . S
C1172 C29 1.846 . S
C1189 C238 1.819 . S
C1208 C164 1.815 . S
C1225 C184 1.820 . S
C1244 C338 1.820 1_565 S
C1261 C96 1.869 . S
C1280 C205 1.860 . S
C1297 C294 1.820 1_545 S
C1316 C228 1.828 . S
C1333 C150 1.824 . S
C1352 C250 1.830 . S
C1369 C272 1.790 . S
C1388 C260 1.796 1_545 S
C1405 C296 1.801 . S
C1424 C8 1.812 . S
C1441 C219 1.863 1_565 S
C1460 C318 1.870 . S
C1477 C340 1.816 . S
C1496 C62 1.828 . S
C1513 C18 0.655 . S
C1532 C206 0.646 . S
C1549 C227 0.771 . S
C1568 C43 0.789 . S
C1585 C54 0.719 . S
C1604 C249 0.742 . S
C1621 C183 0.713 . S
C1640 C84 0.705 . S
C1657 C307 0.720 . S
C1676 C106 0.693 . S
C1693 C329 0.724 . S
C1712 C118 0.735 . S
C1729 C351 0.710 . S
C1748 C142 0.705 . S
C1765 C271 0.709 . S
C1784 C172 0.693 . S
C1801 C40 0.676 . S
C1820 C186 0.672 . S
C1837 C51 0.767 . S
C1856 C213 0.777 . S
C1873 C87 0.713 . S
C1892 C230 0.703 . S
C1909 C252 0.693 . S
C1928 C21 0.658 . S
C1945 C125 0.722 . S
C1964 C274 0.696 . S
C1981 C139 0.717 . S
C2000 C304 0.734 . S
C2017 C175 0.710 . S
C2036 C326 0.727 . S
C2053 C109 0.704 . S
C2072 C348 0.718 . S
