# Generated by pormake.
# Topology smk, (6)-cn, num edge types: 1
# Building blocks:
#     Node 0, Type 0, BuildingBlock: FUNLAD_clean_sbu_0, # of connection points: 6
#     Node 1, Type 0, BuildingBlock: FUNLAD_clean_sbu_0, # of connection points: 6
#     Node 2, Type 0, BuildingBlock: FUNLAD_clean_sbu_0, # of connection points: 6
#     Node 3, Type 0, BuildingBlock: FUNLAD_clean_sbu_0, # of connection points: 6
#     Node 4, Type 0, BuildingBlock: FUNLAD_clean_sbu_0, # of connection points: 6
#     Node 5, Type 0, BuildingBlock: FUNLAD_clean_sbu_0, # of connection points: 6
#     Edge 6, Type (0, 0), BuildingBlock: AJUNOK_clean_linker_0, # of connection points: 2
#     Edge 7, Type (0, 0), BuildingBlock: AJUNOK_clean_linker_0, # of connection points: 2
#     Edge 8, Type (0, 0), BuildingBlock: AJUNOK_clean_linker_0, # of connection points: 2
#     Edge 9, Type (0, 0), BuildingBlock: AJUNOK_clean_linker_0, # of connection points: 2
#     Edge 10, Type (0, 0), BuildingBlock: AJUNOK_clean_linker_0, # of connection points: 2
#     Edge 11, Type (0, 0), BuildingBlock: AJUNOK_clean_linker_0, # of connection points: 2
#     Edge 12, Type (0, 0), BuildingBlock: AJUNOK_clean_linker_0, # of connection points: 2
#     Edge 13, Type (0, 0), BuildingBlock: AJUNOK_clean_linker_0, # of connection points: 2
#     Edge 14, Type (0, 0), BuildingBlock: AJUNOK_clean_linker_0, # of connection points: 2
#     Edge 15, Type (0, 0), BuildingBlock: AJUNOK_clean_linker_0, # of connection points: 2
#     Edge 16, Type (0, 0), BuildingBlock: AJUNOK_clean_linker_0, # of connection points: 2
#     Edge 17, Type (0, 0), BuildingBlock: AJUNOK_clean_linker_0, # of connection points: 2
#     Edge 18, Type (0, 0), BuildingBlock: AJUNOK_clean_linker_0, # of connection points: 2
#     Edge 19, Type (0, 0), BuildingBlock: AJUNOK_clean_linker_0, # of connection points: 2
#     Edge 20, Type (0, 0), BuildingBlock: AJUNOK_clean_linker_0, # of connection points: 2
#     Edge 21, Type (0, 0), BuildingBlock: AJUNOK_clean_linker_0, # of connection points: 2
#     Edge 22, Type (0, 0), BuildingBlock: AJUNOK_clean_linker_0, # of connection points: 2
#     Edge 23, Type (0, 0), BuildingBlock: AJUNOK_clean_linker_0, # of connection points: 2
# Relax obj value: 0.454
# Max RMSD: 0.251
# Mean RMSD: 0.251
data_MOF--net-smk--node1-FUNLAD_clean_sbu_0--edge1-AJUNOK_clean_linker_0
_symmetry_space_group_name_H-M    P1
_symmetry_Int_Tables_number       1
_symmetry_cell_setting            triclinic
loop_
_symmetry_equiv_pos_as_xyz
'x, y, z'
_cell_length_a     37.580607
_cell_length_b     37.672996
_cell_length_c     11.30224
_cell_angle_alpha  89.990368
_cell_angle_beta   90.304376
_cell_angle_gamma 120.00986
loop_
_atom_site_label
_atom_site_type_symbol
_atom_site_fract_x
_atom_site_fract_y
_atom_site_fract_z
_atom_type_partial_charge
C0 C 0.48044 0.29218 0.34658 0.0
N1 N 0.5588 0.38243 0.57709 0.0
C2 C 0.55741 0.40851 0.49576 0.0
C3 C 0.59367 0.44113 0.45057 0.0
C4 C 0.63167 0.44668 0.48846 0.0
C5 C 0.63234 0.42185 0.58023 0.0
C6 C 0.59535 0.38988 0.62411 0.0
Zn7 Zn 0.50731 0.32433 0.58846 0.0
C8 C 0.42939 0.32811 0.58931 0.0
N9 N 0.40146 0.20273 0.57684 0.0
C10 C 0.40853 0.17864 0.50187 0.0
C11 C 0.3638 0.18847 0.62679 0.0
C12 C 0.33161 0.14859 0.60087 0.0
C13 C 0.33837 0.1236 0.52204 0.0
C14 C 0.37754 0.13921 0.47325 0.0
Zn15 Zn 0.45094 0.26192 0.59101 0.0
O16 O 0.50812 0.32295 0.40175 0.0
C17 C 0.5305 0.26051 0.61553 0.0
O18 O 0.45331 0.26241 0.40524 0.0
H19 H 0.35849 0.20812 0.68503 0.0
H20 H 0.52831 0.40189 0.45737 0.0
H21 H 0.43831 0.19024 0.46155 0.0
O22 O 0.54522 0.29864 0.59958 0.0
O23 O 0.49179 0.23684 0.60846 0.0
H24 H 0.59609 0.36906 0.68851 0.0
O25 O 0.44948 0.26298 0.77456 0.0
O26 O 0.50528 0.32418 0.77667 0.0
O27 O 0.41168 0.28902 0.5858 0.0
O28 O 0.46835 0.34887 0.58504 0.0
C29 C 0.47699 0.29357 0.83218 0.0
H30 H 0.59196 0.4596 0.37971 0.0
H31 H 0.66121 0.42553 0.6124 0.0
H32 H 0.30174 0.1377 0.64031 0.0
H33 H 0.38437 0.12089 0.41372 0.0
C34 C 0.3019 0.46609 0.90795 0.0
N35 N 0.39157 0.54484 0.67937 0.0
C36 C 0.4176 0.54546 0.76498 0.0
C37 C 0.44882 0.58271 0.81076 0.0
C38 C 0.45299 0.6196 0.76887 0.0
C39 C 0.42844 0.61823 0.67279 0.0
C40 C 0.39791 0.58031 0.62859 0.0
Zn41 Zn 0.33418 0.49241 0.66716 0.0
C42 C 0.33943 0.4156 0.6715 0.0
N43 N 0.21329 0.3858 0.67615 0.0
C44 C 0.18902 0.39278 0.75057 0.0
C45 C 0.19971 0.34785 0.62868 0.0
C46 C 0.1605 0.31517 0.6577 0.0
C47 C 0.13586 0.32172 0.73805 0.0
C48 C 0.15041 0.36128 0.78267 0.0
Zn49 Zn 0.27201 0.4358 0.66234 0.0
O50 O 0.33275 0.49374 0.85394 0.0
C51 C 0.26911 0.51406 0.6364 0.0
O52 O 0.27229 0.43887 0.84811 0.0
H53 H 0.21947 0.3427 0.57053 0.0
H54 H 0.41185 0.51716 0.80601 0.0
H55 H 0.20003 0.42281 0.78863 0.0
O56 O 0.30731 0.52912 0.6545 0.0
O57 O 0.24572 0.47541 0.64221 0.0
H58 H 0.37715 0.57943 0.56063 0.0
O59 O 0.27316 0.4336 0.47891 0.0
O60 O 0.33403 0.48987 0.47886 0.0
O61 O 0.30023 0.39774 0.67115 0.0
O62 O 0.36006 0.45455 0.67309 0.0
C63 C 0.30359 0.46136 0.42228 0.0
H64 H 0.46723 0.58255 0.8846 0.0
H65 H 0.43125 0.64618 0.63688 0.0
H66 H 0.14994 0.28506 0.62007 0.0
H67 H 0.13195 0.36792 0.84218 0.0
C68 C 0.80054 0.21212 0.67367 0.0
N69 N 0.71171 0.2068 0.89318 0.0
C70 C 0.71773 0.23792 0.81927 0.0
C71 C 0.68531 0.24249 0.78026 0.0
C72 C 0.64531 0.21519 0.81711 0.0
C73 C 0.63903 0.18284 0.89292 0.0
C74 C 0.67302 0.17908 0.92996 0.0
Zn75 Zn 0.76658 0.20606 0.91555 0.0
C76 C 0.75824 0.12368 0.90699 0.0
N77 N 0.88707 0.21815 0.91032 0.0
C78 C 0.91166 0.24868 0.83443 0.0
C79 C 0.90102 0.19514 -0.0349 0.0
C80 C 0.94111 0.20263 0.94293 0.0
C81 C 0.96627 0.23348 0.8623 0.0
C82 C 0.951 0.25661 0.80874 0.0
Zn83 Zn 0.82887 0.21142 0.91913 0.0
O84 O 0.77017 0.20952 0.72866 0.0
C85 C 0.83473 0.29287 0.9522 0.0
O86 O 0.83012 0.21411 0.73268 0.0
H87 H 0.88115 0.17093 0.02491 0.0
H88 H 0.74789 0.25906 0.78587 0.0
H89 H 0.90067 0.26702 0.79153 0.0
O90 O 0.79647 0.26967 0.93786 0.0
O91 O 0.85812 0.27784 0.93973 0.0
H92 H 0.66835 0.15386 -0.01392 0.0
O93 O 0.82596 0.20783 0.10247 0.0
O94 O 0.76441 0.20199 0.10364 0.0
O95 O 0.79754 0.14462 0.91061 0.0
O96 O 0.73777 0.14228 0.90359 0.0
C97 C 0.79519 0.20424 0.15957 0.0
H98 H 0.69164 0.26732 0.71999 0.0
H99 H 0.60851 0.16106 0.92361 0.0
H100 H 0.95209 0.18435 -0.0132 0.0
H101 H 0.96964 0.2812 0.74808 0.0
C102 C 0.61132 0.86256 0.24864 0.0
N103 N 0.53408 0.8751 0.01687 0.0
C104 C 0.53598 0.9029 0.09773 0.0
C105 C 0.49996 0.89974 0.14357 0.0
C106 C 0.46176 0.86754 0.10633 0.0
C107 C 0.4606 0.84178 0.01469 0.0
C108 C 0.49734 0.8463 -0.02971 0.0
Zn109 Zn 0.58451 0.86678 0.00618 0.0
C110 C 0.66417 0.9472 -0.00218 0.0
N111 N 0.68812 0.84684 0.01887 0.0
C112 C 0.68051 0.81649 0.09768 0.0
C113 C 0.7253 0.86771 -0.03562 0.0
C114 C 0.75644 0.85834 -0.01007 0.0
C115 C 0.74931 0.82784 0.07378 0.0
C116 C 0.71053 0.80656 0.12624 0.0
Zn117 Zn 0.63985 0.85877 0.00471 0.0
O118 O 0.58462 0.86632 0.19036 0.0
C119 C 0.55868 0.77865 -0.0102 0.0
O120 O 0.63833 0.85857 0.19314 0.0
H121 H 0.73101 0.89188 0.90246 0.0
H122 H 0.56527 0.92515 0.13551 0.0
H123 H 0.65104 0.80006 0.14078 0.0
O124 O 0.54473 0.8029 0.00153 0.0
O125 O 0.5974 0.79336 -0.00626 0.0
H126 H 0.49624 0.82445 0.90625 0.0
O127 O 0.64007 0.85971 0.81804 0.0
O128 O 0.58531 0.867 0.82096 0.0
O129 O 0.68069 0.92473 0.00441 0.0
O130 O 0.62525 0.93043 0.00355 0.0
C131 C 0.61248 0.86364 0.76297 0.0
H132 H 0.502 0.92003 0.21449 0.0
H133 H 0.43156 0.81671 -0.01666 0.0
H134 H 0.78588 0.8751 0.9463 0.0
H135 H 0.70322 0.78202 0.18853 0.0
C136 C 0.87053 0.60572 -0.00635 0.0
N137 N 0.87946 0.52448 0.21618 0.0
C138 C 0.84971 0.498 0.14009 0.0
C139 C 0.84768 0.46183 0.10512 0.0
C140 C 0.87644 0.45173 0.14763 0.0
C141 C 0.90757 0.47938 0.22483 0.0
C142 C 0.90855 0.51603 0.25823 0.0
Zn143 Zn 0.8762 0.5779 0.23599 0.0
C144 C 0.95766 0.65492 0.2355 0.0
N145 N 0.85851 0.68296 0.22834 0.0
C146 C 0.82799 0.67594 0.14986 0.0
C147 C 0.87927 0.71954 0.28658 0.0
C148 C 0.86934 0.75052 0.26585 0.0
C149 C 0.83821 0.74373 0.18354 0.0
C150 C 0.81758 0.70578 0.12589 0.0
Zn151 Zn 0.86865 0.6335 0.23844 0.0
O152 O 0.87407 0.57852 0.04909 0.0
C153 C 0.78778 0.55479 0.2599 0.0
O154 O 0.86726 0.63253 0.0521 0.0
H155 H 0.90351 0.72479 0.34842 0.0
H156 H 0.82755 0.50511 0.1027 0.0
H157 H 0.81143 0.64691 0.10418 0.0
O158 O 0.81209 0.54092 0.25001 0.0
O159 O 0.80242 0.59329 0.25207 0.0
H160 H 0.93267 0.53772 0.31614 0.0
O161 O 0.87095 0.6337 0.42188 0.0
O162 O 0.87878 0.5793 0.42427 0.0
O163 O 0.93547 0.67193 0.23612 0.0
O164 O 0.9402 0.61596 0.2309 0.0
C165 C 0.87535 0.60708 0.47959 0.0
H166 H 0.82355 0.44175 0.04424 0.0
H167 H 0.93035 0.47253 0.25968 0.0
H168 H 0.886 0.77947 0.31244 0.0
H169 H 0.79291 0.69886 0.06359 0.0
C170 C 0.21967 0.78301 0.59113 0.0
N171 N 0.21646 0.69593 0.36987 0.0
C172 C 0.24536 0.70045 0.45132 0.0
C173 C 0.24914 0.6675 0.48794 0.0
C174 C 0.22343 0.62859 0.44058 0.0
C175 C 0.19327 0.62376 0.35726 0.0
C176 C 0.19023 0.65824 0.32288 0.0
Zn177 Zn 0.21714 0.7513 0.34843 0.0
C178 C 0.13463 0.74404 0.33831 0.0
N179 N 0.23102 0.8724 0.3565 0.0
C180 C 0.2607 0.89584 0.43713 0.0
C181 C 0.21007 0.88789 0.29734 0.0
C182 C 0.21878 0.92832 0.31993 0.0
C183 C 0.24857 0.95223 0.40571 0.0
C184 C 0.26978 0.9355 0.46317 0.0
Zn185 Zn 0.22286 0.81361 0.34655 0.0
O186 O 0.21681 0.75322 0.53263 0.0
C187 C 0.30511 0.81844 0.33152 0.0
O188 O 0.22309 0.81373 0.5357 0.0
H189 H 0.18663 0.86902 0.23341 0.0
H190 H 0.26557 0.72983 0.49142 0.0
H191 H 0.27757 0.88376 0.48321 0.0
O192 O 0.2815 0.7802 0.34079 0.0
O193 O 0.28947 0.8415 0.33673 0.0
H194 H 0.16695 0.6548 0.25983 0.0
O195 O 0.22177 0.81156 0.16041 0.0
O196 O 0.21651 0.75039 0.16294 0.0
O197 O 0.1557 0.78325 0.34389 0.0
O198 O 0.15302 0.72344 0.34614 0.0
C199 C 0.21884 0.78062 0.10521 0.0
H200 H 0.27239 0.67258 0.55355 0.0
H201 H 0.17287 0.59405 0.31834 0.0
H202 H 0.20222 0.94055 0.27231 0.0
H203 H 0.2938 0.95323 0.52719 0.0
C204 C 0.51047 0.32383 0.15118 0.0
C205 C 0.47896 0.29157 0.2157 0.0
C206 C 0.5094 0.32443 0.02739 0.0
C207 C 0.47674 0.29282 -0.03681 0.0
H208 H 0.5363 0.34891 0.19644 0.0
H209 H 0.53457 0.34981 -0.0181 0.0
S210 S 0.38593 0.20164 0.09024 0.0
N211 N 0.41376 0.22738 0.20607 0.0
N212 N 0.4116 0.22854 -0.02605 0.0
C213 C 0.44484 0.26044 0.0267 0.0
C214 C 0.44599 0.25979 0.15271 0.0
C215 C 0.33502 0.49345 0.22833 0.0
C216 C 0.30269 0.4614 0.29123 0.0
C217 C 0.33431 0.49493 0.10462 0.0
C218 C 0.3012 0.46447 0.03881 0.0
H219 H 0.36111 0.51779 0.2748 0.0
H220 H 0.36003 0.52019 0.06044 0.0
S221 S 0.20876 0.37371 0.16052 0.0
N222 N 0.23655 0.3982 0.2778 0.0
N223 N 0.23517 0.40113 0.04586 0.0
C224 C 0.2686 0.43221 0.10048 0.0
C225 C 0.26937 0.43062 0.22642 0.0
C226 C 0.76644 0.20828 0.35505 0.0
C227 C 0.79654 0.20494 0.29059 0.0
C228 C 0.76827 0.21106 0.47871 0.0
C229 C 0.80029 0.21065 0.54282 0.0
H230 H 0.74142 0.20919 0.30983 0.0
H231 H 0.74433 0.2136 0.52422 0.0
S232 S 0.88625 0.20118 0.41663 0.0
N233 N 0.859 0.20043 0.30077 0.0
N234 N 0.86246 0.20588 0.53261 0.0
C235 C 0.83052 0.20711 0.4796 0.0
C236 C 0.8286 0.20414 0.35375 0.0
C237 C 0.63816 0.85487 0.44403 0.0
C238 C 0.61106 0.86317 0.37948 0.0
C239 C 0.63851 0.85525 0.56787 0.0
C240 C 0.61177 0.86395 0.63204 0.0
H241 H 0.65923 0.84781 0.39878 0.0
H242 H 0.65981 0.84842 0.61341 0.0
S243 S 0.53554 0.88902 0.50491 0.0
N244 N 0.55723 0.88117 0.38904 0.0
N245 N 0.55792 0.88196 0.62134 0.0
C246 C 0.58465 0.8726 0.56854 0.0
C247 C 0.58429 0.87219 0.44246 0.0
C248 C 0.87371 0.57543 0.67554 0.0
C249 C 0.87506 0.6079 0.61053 0.0
C250 C 0.87198 0.57487 0.79927 0.0
C251 C 0.87151 0.60677 0.86286 0.0
H252 H 0.87364 0.54997 0.63073 0.0
H253 H 0.87089 0.54911 0.84521 0.0
S254 S 0.87583 0.69969 0.73507 0.0
N255 N 0.87675 0.67342 0.61957 0.0
N256 N 0.87333 0.6722 0.8516 0.0
C257 C 0.8731 0.6396 0.79909 0.0
C258 C 0.87495 0.64023 0.67316 0.0
C259 C 0.22639 0.81564 0.91151 0.0
C260 C 0.21845 0.78015 -0.02567 0.0
C261 C 0.22662 0.81631 0.78771 0.0
C262 C 0.21892 0.78151 0.72187 0.0
H263 H 0.23276 0.84336 -0.04191 0.0
H264 H 0.23313 0.84443 0.74351 0.0
S265 S 0.19499 0.68023 0.84347 0.0
N266 N 0.2017 0.70891 -0.03898 0.0
N267 N 0.20216 0.71009 0.72873 0.0
C268 C 0.2106 0.74564 0.7835 0.0
C269 C 0.21035 0.74497 0.90955 0.0
C270 C 0.30026 0.06729 0.37337 0.0
C271 C 0.30617 0.08076 0.49216 0.0
C272 C 0.27777 0.0254 0.34424 0.0
C273 C 0.26054 0.99546 0.43294 0.0
H274 H 0.31519 0.0892 0.30278 0.0
H275 H 0.27665 1.01633 0.25272 0.0
S276 S 0.26199 1.01455 0.75546 0.0
N277 N 0.28908 0.06075 0.69754 0.0
N278 N 0.24655 0.98219 0.64284 0.0
C279 C 0.26317 1.00866 0.55092 0.0
C280 C 0.286 0.05127 0.58056 0.0
C281 C 0.3629 0.32986 0.6022 0.0
C282 C 0.40611 0.35005 0.61078 0.0
C283 C 0.34114 0.35064 0.62553 0.0
C284 C 0.36174 0.3923 0.65942 0.0
H285 H 0.34577 0.29791 0.57611 0.0
H286 H 0.30805 0.33413 0.61462 0.0
S287 S 0.47445 0.45834 0.70547 0.0
N288 N 0.46834 0.41385 0.6623 0.0
N289 N 0.42782 0.45208 0.70752 0.0
C290 C 0.40482 0.41235 0.67188 0.0
C291 C 0.42686 0.3915 0.64714 0.0
C292 C 1.02167 0.24794 0.71638 0.0
C293 C 1.00921 0.24431 0.83542 0.0
C294 C 0.06339 0.26974 0.68538 0.0
C295 C 0.09405 0.28892 0.77239 0.0
H296 H 0.99884 0.23639 0.64619 0.0
H297 H 0.0714 0.27448 0.59251 0.0
S298 S 0.0781 0.28317 0.09709 0.0
N299 N 1.03118 0.25753 0.04088 0.0
N300 N 0.10958 0.29825 -0.01702 0.0
C301 C 0.08219 0.28222 0.89206 0.0
C302 C 0.03975 0.25991 0.92355 0.0
C303 C 0.73142 1.01481 -0.00648 0.0
C304 C 0.68882 0.99193 -0.02919 0.0
C305 C 0.75432 0.05714 -0.03175 0.0
C306 C 0.73554 0.07808 0.91828 0.0
H307 H 0.74702 1.00014 0.03335 0.0
H308 H 0.78666 0.07377 -0.00864 0.0
S309 S 0.62604 0.03113 0.82651 0.0
N310 N 0.62976 0.993 0.88497 0.0
N311 N 0.67247 0.07156 0.83703 0.0
C312 C 0.69339 0.05504 0.89023 0.0
C313 C 0.67016 1.01232 0.91661 0.0
C314 C 0.81896 0.78251 0.04079 0.0
C315 C 0.82487 0.77426 0.15887 0.0
C316 C 0.79734 0.80301 0.01364 0.0
C317 C 0.78054 0.8158 0.10357 0.0
H318 H 0.8292 0.77099 -0.03149 0.0
H319 H 0.7913 0.80628 0.92163 0.0
S320 S 0.79226 0.80693 0.42683 0.0
N321 N 0.81574 0.78435 0.36626 0.0
N322 N 0.77558 0.82325 0.31558 0.0
C323 C 0.78907 0.81067 0.22198 0.0
C324 C 0.81118 0.78991 0.24957 0.0
C325 C 1.02294 0.71934 0.29831 0.0
C326 C 1.00332 0.67922 0.2512 0.0
C327 C 0.06532 0.74038 0.32646 0.0
C328 C 0.08965 0.72197 0.3097 0.0
H329 H 1.00526 0.73424 0.31651 0.0
H330 H 0.07893 0.77098 0.36345 0.0
S331 S 0.05419 0.61921 0.1762 0.0
N332 N 1.01263 0.62348 0.18004 0.0
N333 N 0.09119 0.66228 0.23337 0.0
C334 C 0.07053 0.68239 0.25897 0.0
C335 C 1.02776 0.66127 0.22963 0.0
C336 C 0.68465 0.51644 0.41299 0.0
C337 C 0.66976 0.47405 0.42186 0.0
C338 C 0.72174 0.54239 0.35402 0.0
C339 C 0.74492 0.52672 0.30054 0.0
H340 H 0.66824 0.52977 0.45521 0.0
H341 H 0.73311 0.57508 0.35467 0.0
S342 S 0.71521 0.41669 0.28378 0.0
N343 N 0.67845 0.41701 0.36223 0.0
N344 N 0.74727 0.46504 0.25011 0.0
C345 C 0.72869 0.4839 0.30289 0.0
C346 C 0.69141 0.45779 0.36392 0.0
C347 C 0.28335 0.57682 0.52662 0.0
C348 C 0.25458 0.54104 0.58574 0.0
C349 C 0.27193 0.60296 0.47279 0.0
C350 C 0.23128 0.59516 0.47693 0.0
H351 H 0.31527 0.58488 0.52082 0.0
H352 H 0.29561 0.63043 0.43041 0.0
S353 S 0.14333 0.50487 0.61527 0.0
N354 N 0.1828 0.49782 0.63925 0.0
N355 N 0.16155 0.54837 0.54139 0.0
C356 C 0.20166 0.55893 0.53224 0.0
C357 C 0.21327 0.53163 0.58605 0.0
C358 C 0.61933 0.26345 0.78308 0.0
C359 C 0.61205 0.22307 0.77672 0.0
C360 C 0.59319 0.27481 0.72824 0.0
C361 C 0.55781 0.24622 0.66598 0.0
H362 H 0.6463 0.28698 0.82875 0.0
H363 H 0.60082 0.30649 0.73622 0.0
S364 S 0.52283 0.13567 0.62924 0.0
N365 N 0.56602 0.15379 0.70621 0.0
N366 N 0.51544 0.17489 0.60679 0.0
C367 C 0.54887 0.20518 0.66312 0.0
C368 C 0.5762 0.19365 0.71784 0.0
C369 C 0.5468 0.71137 0.90729 0.0
C370 C 0.53062 0.73551 0.95065 0.0
C371 C 0.52158 0.67357 0.85038 0.0
C372 C 0.47935 0.65874 0.83325 0.0
H373 H 0.57946 0.72238 0.91336 0.0
H374 H 0.53543 0.65645 0.81625 0.0
S375 S 0.42045 0.70678 0.94332 0.0
N376 N 0.46841 0.73909 -0.01736 0.0
N377 N 0.42165 0.66877 0.87436 0.0
C378 C 0.46242 0.68145 0.88094 0.0
C379 C 0.48785 0.71956 0.94004 0.0
C380 C 0.83177 0.37649 0.12903 0.0
C381 C 0.87079 0.4111 0.11324 0.0
C382 C 0.82115 0.33898 0.07635 0.0
C383 C 0.84917 0.33387 0.00627 0.0
H384 H 0.80853 0.37888 0.17909 0.0
H385 H 0.79029 0.3137 0.09054 0.0
S386 S 0.95676 0.41394 0.94572 0.0
N387 N 0.93861 0.43762 0.02767 0.0
N388 N 0.91896 0.36603 0.93127 0.0
C389 C 0.88923 0.3675 -0.00489 0.0
C390 C 0.89997 0.40633 0.04803 0.0
C391 C 0.40816 0.8839 0.17934 0.0
C392 C 0.42393 0.85704 0.17389 0.0
C393 C 0.37086 0.87251 0.23757 0.0
C394 C 0.34839 0.83406 0.29352 0.0
H395 H 0.42394 0.9132 0.13465 0.0
H396 H 0.35869 0.89318 0.23394 0.0
S397 S 0.38069 0.75577 0.31973 0.0
N398 N 0.41695 0.79258 0.23949 0.0
N399 N 0.34778 0.77135 0.35041 0.0
C400 C 0.36563 0.80829 0.295 0.0
C401 C 0.4031 0.8197 0.23474 0.0
loop_
_geom_bond_atom_site_label_1
_geom_bond_atom_site_label_2
_geom_bond_distance
_geom_bond_site_symmetry_2
_ccdc_geom_bond_type
C0 O16 1.251 . S
C0 O18 1.254 . S
N1 C2 1.333 . S
N1 C6 1.307 . S
N1 Zn7 2.020 . S
C2 N1 1.333 . S
C2 C3 1.379 . S
C2 H20 0.952 . S
C3 C2 1.379 . S
C3 C4 1.390 . S
C3 H30 0.949 . S
C4 C3 1.390 . S
C4 C5 1.357 . S
C5 C4 1.357 . S
C5 C6 1.370 . S
C5 H31 0.950 . S
C6 N1 1.307 . S
C6 C5 1.370 . S
C6 H24 0.948 . S
Zn7 N1 2.020 . S
Zn7 O16 2.039 . S
Zn7 O22 2.034 . S
Zn7 O26 2.025 . S
Zn7 O28 2.024 . S
C8 O27 1.246 . S
C8 O28 1.249 . S
N9 C10 1.307 . S
N9 C11 1.333 . S
N9 Zn15 2.020 . S
C10 N9 1.307 . S
C10 C14 1.370 . S
C10 H21 0.948 . S
C11 N9 1.333 . S
C11 C12 1.379 . S
C11 H19 0.952 . S
C12 C11 1.379 . S
C12 C13 1.390 . S
C12 H32 0.949 . S
C13 C12 1.390 . S
C13 C14 1.357 . S
C14 C10 1.370 . S
C14 C13 1.357 . S
C14 H33 0.950 . S
Zn15 N9 2.020 . S
Zn15 O18 2.025 . S
Zn15 O23 2.024 . S
Zn15 O25 2.039 . S
Zn15 O27 2.034 . S
O16 C0 1.251 . S
O16 Zn7 2.039 . S
C17 O22 1.246 . S
C17 O23 1.249 . S
O18 C0 1.254 . S
O18 Zn15 2.025 . S
H19 C11 0.952 . S
H20 C2 0.952 . S
H21 C10 0.948 . S
O22 Zn7 2.034 . S
O22 C17 1.246 . S
O23 Zn15 2.024 . S
O23 C17 1.249 . S
H24 C6 0.948 . S
O25 Zn15 2.039 . S
O25 C29 1.251 . S
O26 Zn7 2.025 . S
O26 C29 1.254 . S
O27 C8 1.246 . S
O27 Zn15 2.034 . S
O28 Zn7 2.024 . S
O28 C8 1.249 . S
C29 O25 1.251 . S
C29 O26 1.254 . S
H30 C3 0.949 . S
H31 C5 0.950 . S
H32 C12 0.949 . S
H33 C14 0.950 . S
C34 O50 1.251 . S
C34 O52 1.254 . S
N35 C36 1.333 . S
N35 C40 1.307 . S
N35 Zn41 2.020 . S
C36 N35 1.333 . S
C36 C37 1.379 . S
C36 H54 0.952 . S
C37 C36 1.379 . S
C37 C38 1.390 . S
C37 H64 0.949 . S
C38 C37 1.390 . S
C38 C39 1.357 . S
C39 C38 1.357 . S
C39 C40 1.370 . S
C39 H65 0.950 . S
C40 N35 1.307 . S
C40 C39 1.370 . S
C40 H58 0.948 . S
Zn41 N35 2.020 . S
Zn41 O50 2.039 . S
Zn41 O56 2.034 . S
Zn41 O60 2.025 . S
Zn41 O62 2.024 . S
C42 O61 1.246 . S
C42 O62 1.249 . S
N43 C44 1.307 . S
N43 C45 1.333 . S
N43 Zn49 2.020 . S
C44 N43 1.307 . S
C44 C48 1.370 . S
C44 H55 0.948 . S
C45 N43 1.333 . S
C45 C46 1.379 . S
C45 H53 0.952 . S
C46 C45 1.379 . S
C46 C47 1.390 . S
C46 H66 0.949 . S
C47 C46 1.390 . S
C47 C48 1.357 . S
C48 C44 1.370 . S
C48 C47 1.357 . S
C48 H67 0.950 . S
Zn49 N43 2.020 . S
Zn49 O52 2.025 . S
Zn49 O57 2.024 . S
Zn49 O59 2.039 . S
Zn49 O61 2.034 . S
O50 C34 1.251 . S
O50 Zn41 2.039 . S
C51 O56 1.246 . S
C51 O57 1.249 . S
O52 C34 1.254 . S
O52 Zn49 2.025 . S
H53 C45 0.952 . S
H54 C36 0.952 . S
H55 C44 0.948 . S
O56 Zn41 2.034 . S
O56 C51 1.246 . S
O57 Zn49 2.024 . S
O57 C51 1.249 . S
H58 C40 0.948 . S
O59 Zn49 2.039 . S
O59 C63 1.251 . S
O60 Zn41 2.025 . S
O60 C63 1.254 . S
O61 C42 1.246 . S
O61 Zn49 2.034 . S
O62 Zn41 2.024 . S
O62 C42 1.249 . S
C63 O59 1.251 . S
C63 O60 1.254 . S
H64 C37 0.949 . S
H65 C39 0.950 . S
H66 C46 0.949 . S
H67 C48 0.950 . S
C68 O84 1.251 . S
C68 O86 1.254 . S
N69 C70 1.333 . S
N69 C74 1.307 1_556 S
N69 Zn75 2.020 . S
C70 N69 1.333 . S
C70 C71 1.379 . S
C70 H88 0.952 . S
C71 C70 1.379 . S
C71 C72 1.390 . S
C71 H98 0.949 . S
C72 C71 1.390 . S
C72 C73 1.357 1_556 S
C73 C72 1.357 1_554 S
C73 C74 1.370 . S
C73 H99 0.950 . S
C74 N69 1.307 1_554 S
C74 C73 1.370 . S
C74 H92 0.948 . S
Zn75 N69 2.020 . S
Zn75 O84 2.039 . S
Zn75 O90 2.034 . S
Zn75 O94 2.025 1_556 S
Zn75 O96 2.024 . S
C76 O95 1.246 . S
C76 O96 1.249 . S
N77 C78 1.307 . S
N77 C79 1.333 1_556 S
N77 Zn83 2.020 . S
C78 N77 1.307 . S
C78 C82 1.370 . S
C78 H89 0.948 . S
C79 N77 1.333 1_554 S
C79 C80 1.379 . S
C79 H87 0.952 . S
C80 C79 1.379 . S
C80 C81 1.390 1_554 S
C80 H100 0.949 . S
C81 C80 1.390 1_556 S
C81 C82 1.357 . S
C82 C78 1.370 . S
C82 C81 1.357 . S
C82 H101 0.950 . S
Zn83 N77 2.020 . S
Zn83 O86 2.025 . S
Zn83 O91 2.024 . S
Zn83 O93 2.039 1_556 S
Zn83 O95 2.034 . S
O84 C68 1.251 . S
O84 Zn75 2.039 . S
C85 O90 1.246 . S
C85 O91 1.249 . S
O86 C68 1.254 . S
O86 Zn83 2.025 . S
H87 C79 0.952 . S
H88 C70 0.952 . S
H89 C78 0.948 . S
O90 Zn75 2.034 . S
O90 C85 1.246 . S
O91 Zn83 2.024 . S
O91 C85 1.249 . S
H92 C74 0.948 . S
O93 Zn83 2.039 1_554 S
O93 C97 1.251 . S
O94 Zn75 2.025 1_554 S
O94 C97 1.254 . S
O95 C76 1.246 . S
O95 Zn83 2.034 . S
O96 Zn75 2.024 . S
O96 C76 1.249 . S
C97 O93 1.251 . S
C97 O94 1.254 . S
H98 C71 0.949 . S
H99 C73 0.950 . S
H100 C80 0.949 . S
H101 C82 0.950 . S
C102 O118 1.251 . S
C102 O120 1.254 . S
N103 C104 1.333 . S
N103 C108 1.307 1_554 S
N103 Zn109 2.020 . S
C104 N103 1.333 . S
C104 C105 1.379 . S
C104 H122 0.952 . S
C105 C104 1.379 . S
C105 C106 1.390 . S
C105 H132 0.949 . S
C106 C105 1.390 . S
C106 C107 1.357 1_554 S
C107 C106 1.357 1_556 S
C107 C108 1.370 . S
C107 H133 0.950 . S
C108 N103 1.307 1_556 S
C108 C107 1.370 . S
C108 H126 0.948 . S
Zn109 N103 2.020 . S
Zn109 O118 2.039 . S
Zn109 O124 2.034 . S
Zn109 O128 2.025 1_554 S
Zn109 O130 2.024 . S
C110 O129 1.246 . S
C110 O130 1.249 . S
N111 C112 1.307 . S
N111 C113 1.333 1_554 S
N111 Zn117 2.020 . S
C112 N111 1.307 . S
C112 C116 1.370 . S
C112 H123 0.948 . S
C113 N111 1.333 1_556 S
C113 C114 1.379 . S
C113 H121 0.952 . S
C114 C113 1.379 . S
C114 C115 1.390 1_556 S
C114 H134 0.949 . S
C115 C114 1.390 1_554 S
C115 C116 1.357 . S
C116 C112 1.370 . S
C116 C115 1.357 . S
C116 H135 0.950 . S
Zn117 N111 2.020 . S
Zn117 O120 2.025 . S
Zn117 O125 2.024 . S
Zn117 O127 2.039 1_554 S
Zn117 O129 2.034 . S
O118 C102 1.251 . S
O118 Zn109 2.039 . S
C119 O124 1.246 . S
C119 O125 1.249 . S
O120 C102 1.254 . S
O120 Zn117 2.025 . S
H121 C113 0.952 . S
H122 C104 0.952 . S
H123 C112 0.948 . S
O124 Zn109 2.034 . S
O124 C119 1.246 . S
O125 Zn117 2.024 . S
O125 C119 1.249 . S
H126 C108 0.948 . S
O127 Zn117 2.039 1_556 S
O127 C131 1.251 . S
O128 Zn109 2.025 1_556 S
O128 C131 1.254 . S
O129 C110 1.246 . S
O129 Zn117 2.034 . S
O130 Zn109 2.024 . S
O130 C110 1.249 . S
C131 O127 1.251 . S
C131 O128 1.254 . S
H132 C105 0.949 . S
H133 C107 0.950 . S
H134 C114 0.949 . S
H135 C116 0.950 . S
C136 O152 1.251 . S
C136 O154 1.254 . S
N137 C138 1.333 . S
N137 C142 1.307 . S
N137 Zn143 2.020 . S
C138 N137 1.333 . S
C138 C139 1.379 . S
C138 H156 0.952 . S
C139 C138 1.379 . S
C139 C140 1.390 . S
C139 H166 0.949 . S
C140 C139 1.390 . S
C140 C141 1.357 . S
C141 C140 1.357 . S
C141 C142 1.370 . S
C141 H167 0.950 . S
C142 N137 1.307 . S
C142 C141 1.370 . S
C142 H160 0.948 . S
Zn143 N137 2.020 . S
Zn143 O152 2.039 . S
Zn143 O158 2.034 . S
Zn143 O162 2.025 . S
Zn143 O164 2.024 . S
C144 O163 1.246 . S
C144 O164 1.249 . S
N145 C146 1.307 . S
N145 C147 1.333 . S
N145 Zn151 2.020 . S
C146 N145 1.307 . S
C146 C150 1.370 . S
C146 H157 0.948 . S
C147 N145 1.333 . S
C147 C148 1.379 . S
C147 H155 0.952 . S
C148 C147 1.379 . S
C148 C149 1.390 . S
C148 H168 0.949 . S
C149 C148 1.390 . S
C149 C150 1.357 . S
C150 C146 1.370 . S
C150 C149 1.357 . S
C150 H169 0.950 . S
Zn151 N145 2.020 . S
Zn151 O154 2.025 . S
Zn151 O159 2.024 . S
Zn151 O161 2.039 . S
Zn151 O163 2.034 . S
O152 C136 1.251 . S
O152 Zn143 2.039 . S
C153 O158 1.246 . S
C153 O159 1.249 . S
O154 C136 1.254 . S
O154 Zn151 2.025 . S
H155 C147 0.952 . S
H156 C138 0.952 . S
H157 C146 0.948 . S
O158 Zn143 2.034 . S
O158 C153 1.246 . S
O159 Zn151 2.024 . S
O159 C153 1.249 . S
H160 C142 0.948 . S
O161 Zn151 2.039 . S
O161 C165 1.251 . S
O162 Zn143 2.025 . S
O162 C165 1.254 . S
O163 C144 1.246 . S
O163 Zn151 2.034 . S
O164 Zn143 2.024 . S
O164 C144 1.249 . S
C165 O161 1.251 . S
C165 O162 1.254 . S
H166 C139 0.949 . S
H167 C141 0.950 . S
H168 C148 0.949 . S
H169 C150 0.950 . S
C170 O186 1.251 . S
C170 O188 1.254 . S
N171 C172 1.333 . S
N171 C176 1.307 . S
N171 Zn177 2.020 . S
C172 N171 1.333 . S
C172 C173 1.379 . S
C172 H190 0.952 . S
C173 C172 1.379 . S
C173 C174 1.390 . S
C173 H200 0.949 . S
C174 C173 1.390 . S
C174 C175 1.357 . S
C175 C174 1.357 . S
C175 C176 1.370 . S
C175 H201 0.950 . S
C176 N171 1.307 . S
C176 C175 1.370 . S
C176 H194 0.948 . S
Zn177 N171 2.020 . S
Zn177 O186 2.039 . S
Zn177 O192 2.034 . S
Zn177 O196 2.025 . S
Zn177 O198 2.024 . S
C178 O197 1.246 . S
C178 O198 1.249 . S
N179 C180 1.307 . S
N179 C181 1.333 . S
N179 Zn185 2.020 . S
C180 N179 1.307 . S
C180 C184 1.370 . S
C180 H191 0.948 . S
C181 N179 1.333 . S
C181 C182 1.379 . S
C181 H189 0.952 . S
C182 C181 1.379 . S
C182 C183 1.390 . S
C182 H202 0.949 . S
C183 C182 1.390 . S
C183 C184 1.357 . S
C184 C180 1.370 . S
C184 C183 1.357 . S
C184 H203 0.950 . S
Zn185 N179 2.020 . S
Zn185 O188 2.025 . S
Zn185 O193 2.024 . S
Zn185 O195 2.039 . S
Zn185 O197 2.034 . S
O186 C170 1.251 . S
O186 Zn177 2.039 . S
C187 O192 1.246 . S
C187 O193 1.249 . S
O188 C170 1.254 . S
O188 Zn185 2.025 . S
H189 C181 0.952 . S
H190 C172 0.952 . S
H191 C180 0.948 . S
O192 Zn177 2.034 . S
O192 C187 1.246 . S
O193 Zn185 2.024 . S
O193 C187 1.249 . S
H194 C176 0.948 . S
O195 Zn185 2.039 . S
O195 C199 1.251 . S
O196 Zn177 2.025 . S
O196 C199 1.254 . S
O197 C178 1.246 . S
O197 Zn185 2.034 . S
O198 Zn177 2.024 . S
O198 C178 1.249 . S
C199 O195 1.251 . S
C199 O196 1.254 . S
H200 C173 0.949 . S
H201 C175 0.950 . S
H202 C182 0.949 . S
H203 C184 0.950 . S
C204 C205 1.369 . S
C204 C206 1.419 . S
C204 H208 0.930 . S
C205 C204 1.369 . S
C205 C214 1.429 . S
C206 C204 1.419 . S
C206 C207 1.363 1_554 S
C206 H209 0.929 . S
C207 C206 1.363 1_556 S
C207 C213 1.428 1_556 S
H208 C204 0.930 . S
H209 C206 0.929 . S
S210 N211 1.613 . S
S210 N212 1.604 1_554 S
N211 S210 1.613 . S
N211 C214 1.350 . S
N212 S210 1.604 1_556 S
N212 C213 1.348 1_556 S
C213 C207 1.428 1_554 S
C213 N212 1.348 1_554 S
C213 C214 1.434 . S
C214 C205 1.429 . S
C214 N211 1.350 . S
C214 C213 1.434 . S
C215 C216 1.369 . S
C215 C217 1.419 . S
C215 H219 0.930 . S
C216 C215 1.369 . S
C216 C225 1.429 . S
C217 C215 1.419 . S
C217 C218 1.363 . S
C217 H220 0.929 . S
C218 C217 1.363 . S
C218 C224 1.428 . S
H219 C215 0.930 . S
H220 C217 0.929 . S
S221 N222 1.613 . S
S221 N223 1.610 . S
N222 S221 1.613 . S
N222 C225 1.350 . S
N223 S221 1.610 . S
N223 C224 1.351 . S
C224 C218 1.428 . S
C224 N223 1.351 . S
C224 C225 1.434 . S
C225 C216 1.429 . S
C225 N222 1.350 . S
C225 C224 1.434 . S
C226 C227 1.369 . S
C226 C228 1.419 . S
C226 H230 0.930 . S
C227 C226 1.369 . S
C227 C236 1.429 . S
C228 C226 1.419 . S
C228 C229 1.363 . S
C228 H231 0.929 . S
C229 C228 1.363 . S
C229 C235 1.428 . S
H230 C226 0.930 . S
H231 C228 0.929 . S
S232 N233 1.613 . S
S232 N234 1.610 . S
N233 S232 1.613 . S
N233 C236 1.350 . S
N234 S232 1.610 . S
N234 C235 1.351 . S
C235 C229 1.428 . S
C235 N234 1.351 . S
C235 C236 1.434 . S
C236 C227 1.429 . S
C236 N233 1.350 . S
C236 C235 1.434 . S
C237 C238 1.369 . S
C237 C239 1.419 . S
C237 H241 0.930 . S
C238 C237 1.369 . S
C238 C247 1.429 . S
C239 C237 1.419 . S
C239 C240 1.363 . S
C239 H242 0.929 . S
C240 C239 1.363 . S
C240 C246 1.428 . S
H241 C237 0.930 . S
H242 C239 0.929 . S
S243 N244 1.613 . S
S243 N245 1.610 . S
N244 S243 1.613 . S
N244 C247 1.350 . S
N245 S243 1.610 . S
N245 C246 1.351 . S
C246 C240 1.428 . S
C246 N245 1.351 . S
C246 C247 1.434 . S
C247 C238 1.429 . S
C247 N244 1.350 . S
C247 C246 1.434 . S
C248 C249 1.369 . S
C248 C250 1.419 . S
C248 H252 0.930 . S
C249 C248 1.369 . S
C249 C258 1.429 . S
C250 C248 1.419 . S
C250 C251 1.363 . S
C250 H253 0.929 . S
C251 C250 1.363 . S
C251 C257 1.428 . S
H252 C248 0.930 . S
H253 C250 0.929 . S
S254 N255 1.613 . S
S254 N256 1.610 . S
N255 S254 1.613 . S
N255 C258 1.350 . S
N256 S254 1.610 . S
N256 C257 1.351 . S
C257 C251 1.428 . S
C257 N256 1.351 . S
C257 C258 1.434 . S
C258 C249 1.429 . S
C258 N255 1.350 . S
C258 C257 1.434 . S
C259 C260 1.369 1_556 S
C259 C261 1.419 . S
C259 H263 0.930 1_556 S
C260 C259 1.369 1_554 S
C260 C269 1.429 1_554 S
C261 C259 1.419 . S
C261 C262 1.363 . S
C261 H264 0.929 . S
C262 C261 1.363 . S
C262 C268 1.428 . S
H263 C259 0.930 1_554 S
H264 C261 0.929 . S
S265 N266 1.613 1_556 S
S265 N267 1.610 . S
N266 S265 1.613 1_554 S
N266 C269 1.350 1_554 S
N267 S265 1.610 . S
N267 C268 1.351 . S
C268 C262 1.428 . S
C268 N267 1.351 . S
C268 C269 1.434 . S
C269 C260 1.429 1_556 S
C269 N266 1.350 1_556 S
C269 C268 1.434 . S
C270 C271 1.369 . S
C270 C272 1.419 . S
C270 H274 0.930 . S
C271 C270 1.369 . S
C271 C280 1.429 . S
C272 C270 1.419 . S
C272 C273 1.363 1_545 S
C272 H275 0.929 . S
C273 C272 1.363 1_565 S
C273 C279 1.428 . S
H274 C270 0.930 . S
H275 C272 0.929 . S
S276 N277 1.613 1_565 S
S276 N278 1.610 . S
N277 S276 1.613 1_545 S
N277 C280 1.350 . S
N278 S276 1.610 . S
N278 C279 1.351 . S
C279 C273 1.428 . S
C279 N278 1.351 . S
C279 C280 1.434 1_565 S
C280 C271 1.429 . S
C280 N277 1.350 . S
C280 C279 1.434 1_545 S
C281 C282 1.369 . S
C281 C283 1.419 . S
C281 H285 0.930 . S
C282 C281 1.369 . S
C282 C291 1.429 . S
C283 C281 1.419 . S
C283 C284 1.363 . S
C283 H286 0.929 . S
C284 C283 1.363 . S
C284 C290 1.428 . S
H285 C281 0.930 . S
H286 C283 0.929 . S
S287 N288 1.613 . S
S287 N289 1.610 . S
N288 S287 1.613 . S
N288 C291 1.350 . S
N289 S287 1.610 . S
N289 C290 1.351 . S
C290 C284 1.428 . S
C290 N289 1.351 . S
C290 C291 1.434 . S
C291 C282 1.429 . S
C291 N288 1.350 . S
C291 C290 1.434 . S
C292 C293 1.369 . S
C292 C294 1.419 1_655 S
C292 H296 0.930 . S
C293 C292 1.369 . S
C293 C302 1.429 1_655 S
C294 C292 1.419 1_455 S
C294 C295 1.363 . S
C294 H297 0.929 . S
C295 C294 1.363 . S
C295 C301 1.428 . S
H296 C292 0.930 . S
H297 C294 0.929 . S
S298 N299 1.613 . S
S298 N300 1.610 1_554 S
N299 S298 1.613 . S
N299 C302 1.350 1_554 S
N300 S298 1.610 1_556 S
N300 C301 1.351 . S
C301 C295 1.428 . S
C301 N300 1.351 . S
C301 C302 1.434 . S
C302 C293 1.429 1_455 S
C302 N299 1.350 1_556 S
C302 C301 1.434 . S
C303 C304 1.369 1_545 S
C303 C305 1.419 . S
C303 H307 0.921 1_545 S
C304 C303 1.369 1_565 S
C304 C313 1.429 1_554 S
C305 C303 1.419 . S
C305 C306 1.363 1_554 S
C305 H308 0.929 . S
C306 C305 1.363 1_556 S
C306 C312 1.428 . S
H307 C303 0.921 1_565 S
H308 C305 0.929 . S
S309 N310 1.613 . S
S309 N311 1.610 1_565 S
N310 S309 1.613 . S
N310 C313 1.350 . S
N311 S309 1.610 1_545 S
N311 C312 1.351 . S
C312 C306 1.428 . S
C312 N311 1.351 . S
C312 C313 1.434 1_545 S
C313 C304 1.429 1_556 S
C313 N310 1.350 . S
C313 C312 1.434 1_565 S
C314 C315 1.369 . S
C314 C316 1.419 . S
C314 H318 0.930 . S
C315 C314 1.369 . S
C315 C324 1.429 . S
C316 C314 1.419 . S
C316 C317 1.363 . S
C316 H319 0.929 1_554 S
C317 C316 1.363 . S
C317 C323 1.428 . S
H318 C314 0.930 . S
H319 C316 0.929 1_556 S
S320 N321 1.613 . S
S320 N322 1.610 . S
N321 S320 1.613 . S
N321 C324 1.350 . S
N322 S320 1.610 . S
N322 C323 1.351 . S
C323 C317 1.428 . S
C323 N322 1.351 . S
C323 C324 1.434 . S
C324 C315 1.429 . S
C324 N321 1.350 . S
C324 C323 1.434 . S
C325 C326 1.369 . S
C325 C327 1.419 1_655 S
C325 H329 0.930 . S
C326 C325 1.369 . S
C326 C335 1.429 1_655 S
C327 C325 1.419 1_455 S
C327 C328 1.363 . S
C327 H330 0.929 . S
C328 C327 1.363 . S
C328 C334 1.428 . S
H329 C325 0.930 . S
H330 C327 0.929 . S
S331 N332 1.614 1_455 S
S331 N333 1.610 . S
N332 S331 1.614 1_655 S
N332 C335 1.350 1_655 S
N333 S331 1.610 . S
N333 C334 1.351 . S
C334 C328 1.428 . S
C334 N333 1.351 . S
C334 C335 1.434 . S
C335 C326 1.429 1_455 S
C335 N332 1.350 1_455 S
C335 C334 1.434 . S
C336 C337 1.369 . S
C336 C338 1.419 . S
C336 H340 0.930 . S
C337 C336 1.369 . S
C337 C346 1.429 . S
C338 C336 1.419 . S
C338 C339 1.363 . S
C338 H341 0.929 . S
C339 C338 1.363 . S
C339 C345 1.428 . S
H340 C336 0.930 . S
H341 C338 0.929 . S
S342 N343 1.613 . S
S342 N344 1.610 . S
N343 S342 1.613 . S
N343 C346 1.350 . S
N344 S342 1.610 . S
N344 C345 1.351 . S
C345 C339 1.428 . S
C345 N344 1.351 . S
C345 C346 1.434 . S
C346 C337 1.429 . S
C346 N343 1.350 . S
C346 C345 1.434 . S
C347 C348 1.369 . S
C347 C349 1.419 . S
C347 H351 0.930 . S
C348 C347 1.369 . S
C348 C357 1.429 . S
C349 C347 1.419 . S
C349 C350 1.363 . S
C349 H352 0.929 . S
C350 C349 1.363 . S
C350 C356 1.428 . S
H351 C347 0.930 . S
H352 C349 0.929 . S
S353 N354 1.613 . S
S353 N355 1.610 . S
N354 S353 1.613 . S
N354 C357 1.350 . S
N355 S353 1.610 . S
N355 C356 1.351 . S
C356 C350 1.428 . S
C356 N355 1.351 . S
C356 C357 1.434 . S
C357 C348 1.429 . S
C357 N354 1.350 . S
C357 C356 1.434 . S
C358 C359 1.369 . S
C358 C360 1.419 . S
C358 H362 0.930 . S
C359 C358 1.369 . S
C359 C368 1.429 . S
C360 C358 1.419 . S
C360 C361 1.363 . S
C360 H363 0.929 . S
C361 C360 1.363 . S
C361 C367 1.428 . S
H362 C358 0.930 . S
H363 C360 0.929 . S
S364 N365 1.613 . S
S364 N366 1.610 . S
N365 S364 1.613 . S
N365 C368 1.350 . S
N366 S364 1.610 . S
N366 C367 1.351 . S
C367 C361 1.428 . S
C367 N366 1.351 . S
C367 C368 1.434 . S
C368 C359 1.429 . S
C368 N365 1.350 . S
C368 C367 1.434 . S
C369 C370 1.369 . S
C369 C371 1.419 . S
C369 H373 0.930 . S
C370 C369 1.369 . S
C370 C379 1.429 . S
C371 C369 1.419 . S
C371 C372 1.363 . S
C371 H374 0.929 . S
C372 C371 1.363 . S
C372 C378 1.428 . S
H373 C369 0.930 . S
H374 C371 0.929 . S
S375 N376 1.613 . S
S375 N377 1.610 1_554 S
N376 S375 1.613 . S
N376 C379 1.350 1_554 S
N377 S375 1.610 1_556 S
N377 C378 1.351 . S
C378 C372 1.428 . S
C378 N377 1.351 . S
C378 C379 1.434 . S
C379 C370 1.429 . S
C379 N376 1.350 1_556 S
C379 C378 1.434 . S
C380 C381 1.369 . S
C380 C382 1.419 . S
C380 H384 0.930 . S
C381 C380 1.369 . S
C381 C390 1.429 . S
C382 C380 1.419 . S
C382 C383 1.363 . S
C382 H385 0.929 . S
C383 C382 1.363 . S
C383 C389 1.428 1_554 S
H384 C380 0.930 . S
H385 C382 0.929 . S
S386 N387 1.613 . S
S386 N388 1.610 . S
N387 S386 1.613 . S
N387 C390 1.350 1_556 S
N388 S386 1.610 . S
N388 C389 1.351 . S
C389 C383 1.428 1_556 S
C389 N388 1.351 . S
C389 C390 1.434 1_556 S
C390 C381 1.429 . S
C390 N387 1.350 1_554 S
C390 C389 1.434 1_554 S
C391 C392 1.369 . S
C391 C393 1.419 . S
C391 H395 0.930 . S
C392 C391 1.369 . S
C392 C401 1.429 . S
C393 C391 1.419 . S
C393 C394 1.363 . S
C393 H396 0.929 . S
C394 C393 1.363 . S
C394 C400 1.428 . S
H395 C391 0.930 . S
H396 C393 0.929 . S
S397 N398 1.613 . S
S397 N399 1.610 . S
N398 S397 1.613 . S
N398 C401 1.350 . S
N399 S397 1.610 . S
N399 C400 1.351 . S
C400 C394 1.428 . S
C400 N399 1.351 . S
C400 C401 1.434 . S
C401 C392 1.429 . S
C401 N398 1.350 . S
C401 C400 1.434 . S
C205 C0 1.120 . S
C207 C29 1.120 . S
C216 C63 1.120 . S
C218 C34 1.120 1_554 S
C227 C97 1.120 . S
C229 C68 1.120 . S
C238 C102 1.120 . S
C240 C131 1.120 . S
C249 C165 1.120 . S
C251 C136 1.120 1_556 S
C260 C199 1.120 . S
C262 C170 1.120 . S
C271 C13 1.847 . S
C273 C183 1.839 . S
C282 C8 1.857 . S
C284 C42 1.859 . S
C293 C81 1.845 . S
C295 C47 1.838 . S
C304 C110 1.855 . S
C306 C76 1.862 . S
C315 C149 1.843 . S
C317 C115 1.839 . S
C326 C144 1.860 . S
C328 C178 1.857 . S
C337 C4 2.029 . S
C339 C153 2.155 . S
C348 C51 2.153 . S
C350 C174 2.035 . S
C359 C72 2.035 . S
C361 C17 2.153 . S
C370 C119 2.155 1_556 S
C372 C38 2.031 . S
C381 C140 2.031 . S
C383 C85 2.155 1_554 S
C392 C106 2.029 . S
C394 C187 2.155 . S
