# Generated by pormake.
# Topology wga, (5)-cn, num edge types: 1
# Building blocks:
#     Node 0, Type 0, BuildingBlock: BEQFEK_clean_sbu_0, # of connection points: 5
#     Node 1, Type 0, BuildingBlock: BEQFEK_clean_sbu_0, # of connection points: 5
#     Node 2, Type 0, BuildingBlock: BEQFEK_clean_sbu_0, # of connection points: 5
#     Node 3, Type 0, BuildingBlock: BEQFEK_clean_sbu_0, # of connection points: 5
#     Node 4, Type 0, BuildingBlock: BEQFEK_clean_sbu_0, # of connection points: 5
#     Node 5, Type 0, BuildingBlock: BEQFEK_clean_sbu_0, # of connection points: 5
#     Node 6, Type 0, BuildingBlock: BEQFEK_clean_sbu_0, # of connection points: 5
#     Node 7, Type 0, BuildingBlock: BEQFEK_clean_sbu_0, # of connection points: 5
#     Node 8, Type 0, BuildingBlock: BEQFEK_clean_sbu_0, # of connection points: 5
#     Node 9, Type 0, BuildingBlock: BEQFEK_clean_sbu_0, # of connection points: 5
#     Node 10, Type 0, BuildingBlock: BEQFEK_clean_sbu_0, # of connection points: 5
#     Node 11, Type 0, BuildingBlock: BEQFEK_clean_sbu_0, # of connection points: 5
#     Node 12, Type 0, BuildingBlock: BEQFEK_clean_sbu_0, # of connection points: 5
#     Node 13, Type 0, BuildingBlock: BEQFEK_clean_sbu_0, # of connection points: 5
#     Node 14, Type 0, BuildingBlock: BEQFEK_clean_sbu_0, # of connection points: 5
#     Node 15, Type 0, BuildingBlock: BEQFEK_clean_sbu_0, # of connection points: 5
#     Node 16, Type 0, BuildingBlock: BEQFEK_clean_sbu_0, # of connection points: 5
#     Node 17, Type 0, BuildingBlock: BEQFEK_clean_sbu_0, # of connection points: 5
#     Node 18, Type 0, BuildingBlock: BEQFEK_clean_sbu_0, # of connection points: 5
#     Node 19, Type 0, BuildingBlock: BEQFEK_clean_sbu_0, # of connection points: 5
#     Node 20, Type 0, BuildingBlock: BEQFEK_clean_sbu_0, # of connection points: 5
#     Node 21, Type 0, BuildingBlock: BEQFEK_clean_sbu_0, # of connection points: 5
#     Node 22, Type 0, BuildingBlock: BEQFEK_clean_sbu_0, # of connection points: 5
#     Node 23, Type 0, BuildingBlock: BEQFEK_clean_sbu_0, # of connection points: 5
#     Node 24, Type 0, BuildingBlock: BEQFEK_clean_sbu_0, # of connection points: 5
#     Node 25, Type 0, BuildingBlock: BEQFEK_clean_sbu_0, # of connection points: 5
#     Node 26, Type 0, BuildingBlock: BEQFEK_clean_sbu_0, # of connection points: 5
#     Node 27, Type 0, BuildingBlock: BEQFEK_clean_sbu_0, # of connection points: 5
#     Node 28, Type 0, BuildingBlock: BEQFEK_clean_sbu_0, # of connection points: 5
#     Node 29, Type 0, BuildingBlock: BEQFEK_clean_sbu_0, # of connection points: 5
#     Node 30, Type 0, BuildingBlock: BEQFEK_clean_sbu_0, # of connection points: 5
#     Node 31, Type 0, BuildingBlock: BEQFEK_clean_sbu_0, # of connection points: 5
#     Edge 32, Type (0, 0), BuildingBlock: EZIPEK_clean_linker_0, # of connection points: 2
#     Edge 33, Type (0, 0), BuildingBlock: EZIPEK_clean_linker_0, # of connection points: 2
#     Edge 34, Type (0, 0), BuildingBlock: EZIPEK_clean_linker_0, # of connection points: 2
#     Edge 35, Type (0, 0), BuildingBlock: EZIPEK_clean_linker_0, # of connection points: 2
#     Edge 36, Type (0, 0), BuildingBlock: EZIPEK_clean_linker_0, # of connection points: 2
#     Edge 37, Type (0, 0), BuildingBlock: EZIPEK_clean_linker_0, # of connection points: 2
#     Edge 38, Type (0, 0), BuildingBlock: EZIPEK_clean_linker_0, # of connection points: 2
#     Edge 39, Type (0, 0), BuildingBlock: EZIPEK_clean_linker_0, # of connection points: 2
#     Edge 40, Type (0, 0), BuildingBlock: EZIPEK_clean_linker_0, # of connection points: 2
#     Edge 41, Type (0, 0), BuildingBlock: EZIPEK_clean_linker_0, # of connection points: 2
#     Edge 42, Type (0, 0), BuildingBlock: EZIPEK_clean_linker_0, # of connection points: 2
#     Edge 43, Type (0, 0), BuildingBlock: EZIPEK_clean_linker_0, # of connection points: 2
#     Edge 44, Type (0, 0), BuildingBlock: EZIPEK_clean_linker_0, # of connection points: 2
#     Edge 45, Type (0, 0), BuildingBlock: EZIPEK_clean_linker_0, # of connection points: 2
#     Edge 46, Type (0, 0), BuildingBlock: EZIPEK_clean_linker_0, # of connection points: 2
#     Edge 47, Type (0, 0), BuildingBlock: EZIPEK_clean_linker_0, # of connection points: 2
#     Edge 48, Type (0, 0), BuildingBlock: EZIPEK_clean_linker_0, # of connection points: 2
#     Edge 49, Type (0, 0), BuildingBlock: EZIPEK_clean_linker_0, # of connection points: 2
#     Edge 50, Type (0, 0), BuildingBlock: EZIPEK_clean_linker_0, # of connection points: 2
#     Edge 51, Type (0, 0), BuildingBlock: EZIPEK_clean_linker_0, # of connection points: 2
#     Edge 52, Type (0, 0), BuildingBlock: EZIPEK_clean_linker_0, # of connection points: 2
#     Edge 53, Type (0, 0), BuildingBlock: EZIPEK_clean_linker_0, # of connection points: 2
#     Edge 54, Type (0, 0), BuildingBlock: EZIPEK_clean_linker_0, # of connection points: 2
#     Edge 55, Type (0, 0), BuildingBlock: EZIPEK_clean_linker_0, # of connection points: 2
#     Edge 56, Type (0, 0), BuildingBlock: EZIPEK_clean_linker_0, # of connection points: 2
#     Edge 57, Type (0, 0), BuildingBlock: EZIPEK_clean_linker_0, # of connection points: 2
#     Edge 58, Type (0, 0), BuildingBlock: EZIPEK_clean_linker_0, # of connection points: 2
#     Edge 59, Type (0, 0), BuildingBlock: EZIPEK_clean_linker_0, # of connection points: 2
#     Edge 60, Type (0, 0), BuildingBlock: EZIPEK_clean_linker_0, # of connection points: 2
#     Edge 61, Type (0, 0), BuildingBlock: EZIPEK_clean_linker_0, # of connection points: 2
#     Edge 62, Type (0, 0), BuildingBlock: EZIPEK_clean_linker_0, # of connection points: 2
#     Edge 63, Type (0, 0), BuildingBlock: EZIPEK_clean_linker_0, # of connection points: 2
#     Edge 64, Type (0, 0), BuildingBlock: EZIPEK_clean_linker_0, # of connection points: 2
#     Edge 65, Type (0, 0), BuildingBlock: EZIPEK_clean_linker_0, # of connection points: 2
#     Edge 66, Type (0, 0), BuildingBlock: EZIPEK_clean_linker_0, # of connection points: 2
#     Edge 67, Type (0, 0), BuildingBlock: EZIPEK_clean_linker_0, # of connection points: 2
#     Edge 68, Type (0, 0), BuildingBlock: EZIPEK_clean_linker_0, # of connection points: 2
#     Edge 69, Type (0, 0), BuildingBlock: EZIPEK_clean_linker_0, # of connection points: 2
#     Edge 70, Type (0, 0), BuildingBlock: EZIPEK_clean_linker_0, # of connection points: 2
#     Edge 71, Type (0, 0), BuildingBlock: EZIPEK_clean_linker_0, # of connection points: 2
#     Edge 72, Type (0, 0), BuildingBlock: EZIPEK_clean_linker_0, # of connection points: 2
#     Edge 73, Type (0, 0), BuildingBlock: EZIPEK_clean_linker_0, # of connection points: 2
#     Edge 74, Type (0, 0), BuildingBlock: EZIPEK_clean_linker_0, # of connection points: 2
#     Edge 75, Type (0, 0), BuildingBlock: EZIPEK_clean_linker_0, # of connection points: 2
#     Edge 76, Type (0, 0), BuildingBlock: EZIPEK_clean_linker_0, # of connection points: 2
#     Edge 77, Type (0, 0), BuildingBlock: EZIPEK_clean_linker_0, # of connection points: 2
#     Edge 78, Type (0, 0), BuildingBlock: EZIPEK_clean_linker_0, # of connection points: 2
#     Edge 79, Type (0, 0), BuildingBlock: EZIPEK_clean_linker_0, # of connection points: 2
#     Edge 80, Type (0, 0), BuildingBlock: EZIPEK_clean_linker_0, # of connection points: 2
#     Edge 81, Type (0, 0), BuildingBlock: EZIPEK_clean_linker_0, # of connection points: 2
#     Edge 82, Type (0, 0), BuildingBlock: EZIPEK_clean_linker_0, # of connection points: 2
#     Edge 83, Type (0, 0), BuildingBlock: EZIPEK_clean_linker_0, # of connection points: 2
#     Edge 84, Type (0, 0), BuildingBlock: EZIPEK_clean_linker_0, # of connection points: 2
#     Edge 85, Type (0, 0), BuildingBlock: EZIPEK_clean_linker_0, # of connection points: 2
#     Edge 86, Type (0, 0), BuildingBlock: EZIPEK_clean_linker_0, # of connection points: 2
#     Edge 87, Type (0, 0), BuildingBlock: EZIPEK_clean_linker_0, # of connection points: 2
#     Edge 88, Type (0, 0), BuildingBlock: EZIPEK_clean_linker_0, # of connection points: 2
#     Edge 89, Type (0, 0), BuildingBlock: EZIPEK_clean_linker_0, # of connection points: 2
#     Edge 90, Type (0, 0), BuildingBlock: EZIPEK_clean_linker_0, # of connection points: 2
#     Edge 91, Type (0, 0), BuildingBlock: EZIPEK_clean_linker_0, # of connection points: 2
#     Edge 92, Type (0, 0), BuildingBlock: EZIPEK_clean_linker_0, # of connection points: 2
#     Edge 93, Type (0, 0), BuildingBlock: EZIPEK_clean_linker_0, # of connection points: 2
#     Edge 94, Type (0, 0), BuildingBlock: EZIPEK_clean_linker_0, # of connection points: 2
#     Edge 95, Type (0, 0), BuildingBlock: EZIPEK_clean_linker_0, # of connection points: 2
#     Edge 96, Type (0, 0), BuildingBlock: EZIPEK_clean_linker_0, # of connection points: 2
#     Edge 97, Type (0, 0), BuildingBlock: EZIPEK_clean_linker_0, # of connection points: 2
#     Edge 98, Type (0, 0), BuildingBlock: EZIPEK_clean_linker_0, # of connection points: 2
#     Edge 99, Type (0, 0), BuildingBlock: EZIPEK_clean_linker_0, # of connection points: 2
#     Edge 100, Type (0, 0), BuildingBlock: EZIPEK_clean_linker_0, # of connection points: 2
#     Edge 101, Type (0, 0), BuildingBlock: EZIPEK_clean_linker_0, # of connection points: 2
#     Edge 102, Type (0, 0), BuildingBlock: EZIPEK_clean_linker_0, # of connection points: 2
#     Edge 103, Type (0, 0), BuildingBlock: EZIPEK_clean_linker_0, # of connection points: 2
#     Edge 104, Type (0, 0), BuildingBlock: EZIPEK_clean_linker_0, # of connection points: 2
#     Edge 105, Type (0, 0), BuildingBlock: EZIPEK_clean_linker_0, # of connection points: 2
#     Edge 106, Type (0, 0), BuildingBlock: EZIPEK_clean_linker_0, # of connection points: 2
#     Edge 107, Type (0, 0), BuildingBlock: EZIPEK_clean_linker_0, # of connection points: 2
#     Edge 108, Type (0, 0), BuildingBlock: EZIPEK_clean_linker_0, # of connection points: 2
#     Edge 109, Type (0, 0), BuildingBlock: EZIPEK_clean_linker_0, # of connection points: 2
#     Edge 110, Type (0, 0), BuildingBlock: EZIPEK_clean_linker_0, # of connection points: 2
#     Edge 111, Type (0, 0), BuildingBlock: EZIPEK_clean_linker_0, # of connection points: 2
# Relax obj value: 0.053
# Max RMSD: 0.134
# Mean RMSD: 0.134
data_MOF--net-wga--node1-BEQFEK_clean_sbu_0--edge1-EZIPEK_clean_linker_0
_symmetry_space_group_name_H-M    P1
_symmetry_Int_Tables_number       1
_symmetry_cell_setting            triclinic
loop_
_symmetry_equiv_pos_as_xyz
'x, y, z'
_cell_length_a     79.982899
_cell_length_b     79.984932
_cell_length_c     15.458519
_cell_angle_alpha  89.973973
_cell_angle_beta   90.006386
_cell_angle_gamma 89.994075
loop_
_atom_site_label
_atom_site_type_symbol
_atom_site_fract_x
_atom_site_fract_y
_atom_site_fract_z
_atom_type_partial_charge
Co0 Co 0.06694 0.56773 0.97159 0.0
Co1 Co 0.0695 0.56378 0.1711 0.0
C2 C 0.03698 0.57133 0.08714 0.0
O3 O 0.04381 0.57221 0.01281 0.0
O4 O 0.04531 0.5678 0.15499 0.0
C5 C 0.06771 0.58217 0.79367 0.0
O6 O 0.06748 0.59746 0.82443 0.0
C7 C 0.06657 0.56718 0.36023 0.0
C8 C 0.09284 0.56269 0.39862 0.0
C9 C 0.0773 0.56713 0.4307 0.0
N10 N 0.07552 0.5634 0.2894 0.0
N11 N 0.0911 0.56039 0.31305 0.0
C12 C 0.0482 0.57071 0.35957 0.0
H13 H 0.04161 0.56063 0.32395 0.0
H14 H 0.04589 0.58262 0.32464 0.0
H15 H 0.04308 0.57161 0.42613 0.0
C16 C 0.09483 0.59252 0.00767 0.0
N17 N 0.08306 0.58121 0.03085 0.0
N18 N 0.08223 0.58081 0.11595 0.0
C19 C 0.0924 0.59267 0.14871 0.0
C20 C 0.10085 0.6002 0.08158 0.0
C21 C 0.10112 0.59543 0.91802 0.0
H22 H 0.09815 0.58469 0.87591 0.0
H23 H 0.09541 0.60701 0.89184 0.0
H24 H 0.11487 0.59737 0.91903 0.0
O25 O 0.07139 0.54382 0.98717 0.0
O26 O 0.07502 0.54095 0.12824 0.0
H27 H 0.1037 0.59006 0.2732 0.0
H28 H 0.09704 0.61086 0.24856 0.0
C29 C 0.09366 0.59746 0.24201 0.0
H30 H 0.08161 0.59526 0.27536 0.0
H31 H 0.10069 0.55732 0.27009 0.0
O32 O 0.06722 0.56986 0.84519 0.0
C33 C 0.07451 0.53478 0.05254 0.0
Co34 Co 0.68327 0.81616 0.2166 0.0
Co35 Co 0.68676 0.81828 0.41658 0.0
C36 C 0.6794 0.786 0.33237 0.0
O37 O 0.67906 0.793 0.25827 0.0
O38 O 0.68233 0.79418 0.40134 0.0
C39 C 0.66863 0.81715 0.03926 0.0
O40 O 0.65338 0.81736 0.07065 0.0
C41 C 0.68322 0.8156 0.60563 0.0
C42 C 0.68815 0.84182 0.64339 0.0
C43 C 0.68345 0.82639 0.67582 0.0
N44 N 0.68718 0.82442 0.53462 0.0
N45 N 0.69043 0.83998 0.55786 0.0
C46 C 0.67934 0.7973 0.60539 0.0
H47 H 0.68934 0.79049 0.5703 0.0
H48 H 0.66744 0.79518 0.57012 0.0
H49 H 0.67827 0.79226 0.67205 0.0
C50 C 0.65878 0.84431 0.25271 0.0
N51 N 0.66982 0.83229 0.27593 0.0
N52 N 0.66999 0.83127 0.36099 0.0
C53 C 0.65823 0.84158 0.39357 0.0
C54 C 0.65102 0.85031 0.32647 0.0
C55 C 0.65628 0.85093 0.16335 0.0
H56 H 0.64455 0.84574 0.13621 0.0
H57 H 0.65485 0.86474 0.16522 0.0
H58 H 0.66699 0.84768 0.12157 0.0
O59 O 0.70713 0.82058 0.23173 0.0
O60 O 0.70976 0.82322 0.3736 0.0
H61 H 0.63992 0.84629 0.49269 0.0
H62 H 0.65531 0.83065 0.51976 0.0
C63 C 0.65329 0.84277 0.48669 0.0
H64 H 0.66075 0.85269 0.51853 0.0
H65 H 0.69367 0.84947 0.51467 0.0
O66 O 0.681 0.81635 0.09027 0.0
C67 C 0.71607 0.82312 0.29806 0.0
Co68 Co 0.43277 0.43245 0.48207 0.0
Co69 Co 0.43169 0.43938 0.68367 0.0
C70 C 0.46338 0.42985 0.59111 0.0
O71 O 0.4561 0.42833 0.51825 0.0
O72 O 0.45554 0.43409 0.65942 0.0
C73 C 0.44136 0.42201 0.30744 0.0
O74 O 0.45516 0.41607 0.34173 0.0
C75 C 0.43616 0.43235 0.86961 0.0
C76 C 0.41768 0.44941 0.92872 0.0
C77 C 0.42953 0.43739 0.94817 0.0
N78 N 0.42846 0.4409 0.80612 0.0
N79 N 0.41747 0.45112 0.84202 0.0
C80 C 0.44953 0.4196 0.85499 0.0
H81 H 0.4617 0.4261 0.84743 0.0
H82 H 0.44699 0.41258 0.79449 0.0
H83 H 0.45042 0.41086 0.91058 0.0
C84 C 0.4065 0.40804 0.53254 0.0
N85 N 0.41757 0.42019 0.5516 0.0
N86 N 0.41728 0.42296 0.63563 0.0
C87 C 0.40604 0.41262 0.67242 0.0
C88 C 0.39891 0.40286 0.60853 0.0
C89 C 0.40373 0.40118 0.44388 0.0
H90 H 0.40149 0.4116 0.39794 0.0
H91 H 0.4152 0.39452 0.42293 0.0
H92 H 0.39299 0.39238 0.44245 0.0
O93 O 0.42908 0.45672 0.49296 0.0
O94 O 0.42697 0.46181 0.63387 0.0
H95 H 0.39858 0.42426 0.79075 0.0
H96 H 0.39235 0.40262 0.7818 0.0
C97 C 0.40241 0.41175 0.76716 0.0
H98 H 0.41392 0.40794 0.80179 0.0
H99 H 0.40975 0.45921 0.8072 0.0
O100 O 0.43008 0.42816 0.35585 0.0
C101 C 0.42698 0.46678 0.55558 0.0
Co102 Co 0.81757 0.18379 0.7075 0.0
Co103 Co 0.8132 0.18172 0.90728 0.0
C104 C 0.82059 0.21404 0.8226 0.0
O105 O 0.82168 0.20695 0.74893 0.0
O106 O 0.81719 0.20589 0.89115 0.0
C107 C 0.83231 0.18284 0.52949 0.0
O108 O 0.84763 0.18281 0.55994 0.0
C109 C 0.81661 0.18461 0.09651 0.0
C110 C 0.81158 0.15843 0.13483 0.0
C111 C 0.81641 0.17385 0.16695 0.0
N112 N 0.81254 0.17577 0.02571 0.0
N113 N 0.80922 0.16024 0.04934 0.0
C114 C 0.82066 0.20287 0.09574 0.0
H115 H 0.81072 0.20974 0.0605 0.0
H116 H 0.83257 0.20485 0.06034 0.0
H117 H 0.82179 0.20795 0.16226 0.0
C118 C 0.84216 0.15596 0.74627 0.0
N119 N 0.83088 0.16783 0.76835 0.0
N120 N 0.83032 0.16882 0.85339 0.0
C121 C 0.84205 0.15861 0.88719 0.0
C122 C 0.84966 0.15 0.82082 0.0
C123 C 0.84519 0.14953 0.65703 0.0
H124 H 0.83455 0.15255 0.6142 0.0
H125 H 0.85687 0.15509 0.63131 0.0
H126 H 0.84699 0.13576 0.65864 0.0
O127 O 0.79368 0.17923 0.72104 0.0
O128 O 0.79041 0.17652 0.86258 0.0
H129 H 0.83896 0.14753 0.0119 0.0
H130 H 0.85993 0.15381 0.98839 0.0
C131 C 0.8466 0.1574 0.98081 0.0
H132 H 0.84451 0.16953 0.01344 0.0
H133 H 0.80594 0.15073 0.00637 0.0
O134 O 0.82004 0.18349 0.5812 0.0
C135 C 0.78448 0.17654 0.78624 0.0
Co136 Co 0.06727 0.42982 0.01643 0.0
Co137 Co 0.06783 0.43966 0.8184 0.0
C138 C 0.03633 0.42835 0.91005 0.0
O139 O 0.04407 0.42503 0.97999 0.0
O140 O 0.04387 0.43417 0.84377 0.0
C141 C 0.05802 0.42547 0.19224 0.0
O142 O 0.04293 0.42688 0.15968 0.0
C143 C 0.06408 0.43397 0.63011 0.0
C144 C 0.08061 0.45353 0.57652 0.0
C145 C 0.07018 0.44049 0.5532 0.0
N146 N 0.07076 0.44265 0.6962 0.0
N147 N 0.08061 0.45433 0.66355 0.0
C148 C 0.05195 0.41992 0.64082 0.0
H149 H 0.0392 0.42518 0.64864 0.0
H150 H 0.05501 0.4127 0.70005 0.0
H151 H 0.05202 0.41159 0.58344 0.0
C152 C 0.09343 0.4063 0.95734 0.0
N153 N 0.0824 0.41871 0.94283 0.0
N154 N 0.08262 0.42269 0.86008 0.0
C155 C 0.09395 0.41295 0.81964 0.0
C156 C 0.10107 0.40227 0.87966 0.0
C157 C 0.09618 0.39827 0.04349 0.0
H158 H 0.10109 0.40774 0.08934 0.0
H159 H 0.08403 0.3938 0.0694 0.0
H160 H 0.10509 0.38767 0.03903 0.0
O161 O 0.07091 0.45426 0.01241 0.0
O162 O 0.07278 0.46154 0.87414 0.0
H163 H 0.10014 0.42659 0.70484 0.0
H164 H 0.10876 0.40572 0.70856 0.0
C165 C 0.09773 0.41352 0.72503 0.0
H166 H 0.08677 0.40873 0.68898 0.0
H167 H 0.0874 0.46284 0.70078 0.0
O168 O 0.07052 0.42461 0.14149 0.0
C169 C 0.07314 0.46526 0.95417 0.0
Co170 Co 0.82067 0.81418 0.29159 0.0
Co171 Co 0.81425 0.81691 0.09232 0.0
C172 C 0.82292 0.78435 0.17347 0.0
O173 O 0.82424 0.79097 0.24819 0.0
O174 O 0.8192 0.79291 0.1067 0.0
C175 C 0.83547 0.81494 0.47225 0.0
O176 O 0.85101 0.81463 0.44492 0.0
C177 C 0.8171 0.81375 0.90287 0.0
C178 C 0.81129 0.83965 0.86291 0.0
C179 C 0.81671 0.82434 0.83167 0.0
N180 N 0.81269 0.82261 0.97317 0.0
N181 N 0.8088 0.83793 0.94842 0.0
C182 C 0.82171 0.79562 0.90477 0.0
H183 H 0.81197 0.78853 0.94029 0.0
H184 H 0.83367 0.79407 0.94028 0.0
H185 H 0.823 0.79043 0.83856 0.0
C186 C 0.84509 0.84185 0.24908 0.0
N187 N 0.83342 0.83027 0.22842 0.0
N188 N 0.83155 0.83014 0.14362 0.0
C189 C 0.84269 0.84082 0.10819 0.0
C190 C 0.85137 0.84866 0.17354 0.0
C191 C 0.84971 0.84711 0.33854 0.0
H192 H 0.83934 0.84458 0.38392 0.0
H193 H 0.86108 0.84022 0.35895 0.0
H194 H 0.85275 0.86065 0.33989 0.0
O195 O 0.79682 0.81917 0.28292 0.0
O196 O 0.79164 0.82134 0.14263 0.0
H197 H 0.83734 0.85262 0.98744 0.0
H198 H 0.85891 0.84733 0.00192 0.0
C199 C 0.84592 0.84298 0.01359 0.0
H200 H 0.84405 0.831 0.97938 0.0
H201 H 0.80522 0.84745 0.99073 0.0
O202 O 0.82358 0.81453 0.41811 0.0
C203 C 0.78674 0.82159 0.22093 0.0
Co204 Co 0.43269 0.5715 0.52181 0.0
Co205 Co 0.43035 0.56322 0.32296 0.0
C206 C 0.46227 0.5749 0.4039 0.0
O207 O 0.45559 0.57647 0.47837 0.0
O208 O 0.45389 0.57027 0.33803 0.0
C209 C 0.43154 0.58628 0.70518 0.0
O210 O 0.43339 0.60191 0.6812 0.0
C211 C 0.43322 0.56592 0.13305 0.0
C212 C 0.4077 0.55853 0.09388 0.0
C213 C 0.42258 0.56493 0.06199 0.0
N214 N 0.42477 0.5609 0.20362 0.0
N215 N 0.4097 0.55604 0.17927 0.0
C216 C 0.45106 0.57157 0.13463 0.0
H217 H 0.45866 0.56246 0.17185 0.0
H218 H 0.45189 0.58379 0.16833 0.0
H219 H 0.45625 0.57277 0.06836 0.0
C220 C 0.40208 0.59159 0.47532 0.0
N221 N 0.41522 0.5817 0.45601 0.0
N222 N 0.41514 0.57878 0.37255 0.0
C223 C 0.40243 0.58718 0.33559 0.0
C224 C 0.39231 0.59392 0.40065 0.0
C225 C 0.40174 0.60202 0.55564 0.0
H226 H 0.41424 0.60768 0.56401 0.0
H227 H 0.39275 0.61252 0.55136 0.0
H228 H 0.39904 0.59405 0.61272 0.0
O229 O 0.42984 0.54718 0.51591 0.0
O230 O 0.42773 0.54068 0.37677 0.0
H231 H 0.39734 0.58554 0.1984 0.0
H232 H 0.39829 0.60652 0.23975 0.0
C233 C 0.40378 0.59381 0.24481 0.0
H234 H 0.41712 0.59452 0.22553 0.0
H235 H 0.40045 0.55194 0.22188 0.0
O236 O 0.43132 0.57477 0.64866 0.0
C237 C 0.42801 0.53646 0.45621 0.0
Co238 Co 0.67971 0.18333 0.77579 0.0
Co239 Co 0.68688 0.18146 0.57444 0.0
C240 C 0.67761 0.21362 0.66335 0.0
O241 O 0.67643 0.20681 0.73767 0.0
O242 O 0.6811 0.20522 0.59568 0.0
C243 C 0.67 0.1924 0.9513 0.0
O244 O 0.66501 0.20667 0.91803 0.0
C245 C 0.68001 0.18567 0.38836 0.0
C246 C 0.69703 0.16711 0.3297 0.0
C247 C 0.68509 0.17904 0.30991 0.0
N248 N 0.68845 0.17793 0.45211 0.0
N249 N 0.69863 0.16687 0.41648 0.0
C250 C 0.66739 0.19917 0.40259 0.0
H251 H 0.65997 0.19645 0.46162 0.0
H252 H 0.65897 0.20046 0.34585 0.0
H253 H 0.67402 0.2112 0.41273 0.0
C254 C 0.65482 0.15744 0.72653 0.0
N255 N 0.66723 0.16819 0.70696 0.0
N256 N 0.67044 0.16722 0.62348 0.0
C257 C 0.6602 0.15578 0.58763 0.0
C258 C 0.64999 0.14927 0.65152 0.0
C259 C 0.64762 0.15529 0.81496 0.0
H260 H 0.6578 0.15248 0.86149 0.0
H261 H 0.64169 0.16721 0.83508 0.0
H262 H 0.63817 0.14512 0.81658 0.0
O263 O 0.70377 0.17869 0.7664 0.0
O264 O 0.70939 0.1773 0.62574 0.0
H265 H 0.67241 0.14752 0.4723 0.0
H266 H 0.65073 0.14132 0.47967 0.0
C267 C 0.65978 0.15148 0.49355 0.0
H268 H 0.65615 0.16273 0.45624 0.0
H269 H 0.70667 0.15913 0.4515 0.0
O270 O 0.67526 0.18083 0.90199 0.0
C271 C 0.71404 0.17674 0.70453 0.0
Co272 Co 0.93347 0.42884 0.01095 0.0
Co273 Co 0.93223 0.43772 0.81217 0.0
C274 C 0.964 0.42709 0.90094 0.0
O275 O 0.95662 0.4247 0.97291 0.0
O276 O 0.95621 0.43217 0.8339 0.0
C277 C 0.94286 0.42751 0.18515 0.0
O278 O 0.95708 0.43237 0.15089 0.0
C279 C 0.93617 0.43291 0.624 0.0
C280 C 0.91741 0.45062 0.57259 0.0
C281 C 0.92926 0.43895 0.54787 0.0
N282 N 0.9286 0.44055 0.69089 0.0
N283 N 0.91742 0.45113 0.65962 0.0
C284 C 0.94994 0.42041 0.63342 0.0
H285 H 0.96171 0.42709 0.64919 0.0
H286 H 0.94711 0.41182 0.68787 0.0
H287 H 0.95179 0.41319 0.57289 0.0
C288 C 0.9073 0.40487 0.95601 0.0
N289 N 0.91823 0.41727 0.93949 0.0
N290 N 0.91772 0.42094 0.85645 0.0
C291 C 0.90631 0.41106 0.81777 0.0
C292 C 0.8994 0.40058 0.87936 0.0
C293 C 0.90471 0.39724 0.04326 0.0
H294 H 0.91695 0.39325 0.07011 0.0
H295 H 0.89609 0.38639 0.04019 0.0
H296 H 0.89948 0.40683 0.08753 0.0
O297 O 0.92985 0.45321 0.00675 0.0
O298 O 0.9277 0.45967 0.86746 0.0
H299 H 0.89213 0.40243 0.707 0.0
H300 H 0.91364 0.40793 0.68631 0.0
C301 C 0.90228 0.41133 0.72334 0.0
H302 H 0.89841 0.42411 0.70416 0.0
H303 H 0.90978 0.4587 0.69783 0.0
O304 O 0.93078 0.42357 0.13568 0.0
C305 C 0.92769 0.46387 0.94689 0.0
Co306 Co 0.3176 0.18468 0.78409 0.0
Co307 Co 0.31308 0.18218 0.58469 0.0
C308 C 0.32139 0.21458 0.66839 0.0
O309 O 0.32239 0.20774 0.74266 0.0
O310 O 0.3175 0.20632 0.60088 0.0
C311 C 0.33216 0.18352 0.96241 0.0
O312 O 0.3475 0.18342 0.93221 0.0
C313 C 0.31645 0.18513 0.39537 0.0
C314 C 0.31116 0.15902 0.35681 0.0
C315 C 0.31611 0.17441 0.3248 0.0
N316 N 0.31235 0.17628 0.46615 0.0
N317 N 0.30885 0.16081 0.44236 0.0
C318 C 0.3206 0.20336 0.39622 0.0
H319 H 0.31072 0.21028 0.43165 0.0
H320 H 0.33254 0.20526 0.43146 0.0
H321 H 0.32172 0.20846 0.32972 0.0
C322 C 0.34182 0.15637 0.74612 0.0
N323 N 0.33067 0.16835 0.72374 0.0
N324 N 0.33004 0.16917 0.63865 0.0
C325 C 0.34158 0.15874 0.60506 0.0
C326 C 0.34915 0.15016 0.67163 0.0
C327 C 0.34492 0.15009 0.83563 0.0
H328 H 0.35663 0.15571 0.86078 0.0
H329 H 0.34673 0.13633 0.83474 0.0
H330 H 0.33433 0.1532 0.87851 0.0
O331 O 0.29356 0.18061 0.77014 0.0
O332 O 0.29033 0.17688 0.62935 0.0
H333 H 0.33823 0.1475 0.48096 0.0
H334 H 0.35931 0.15353 0.50364 0.0
C335 C 0.34603 0.15732 0.51138 0.0
H336 H 0.34409 0.16942 0.47818 0.0
H337 H 0.30549 0.1513 0.48524 0.0
O338 O 0.31993 0.18428 0.91048 0.0
C339 C 0.28434 0.17751 0.70546 0.0
Co340 Co 0.5648 0.57114 0.51953 0.0
Co341 Co 0.56656 0.56336 0.31884 0.0
C342 C 0.53455 0.57352 0.40694 0.0
O343 O 0.54137 0.57483 0.48119 0.0
O344 O 0.5429 0.5696 0.33974 0.0
C345 C 0.5557 0.5801 0.69549 0.0
O346 O 0.54113 0.58433 0.66295 0.0
C347 C 0.56248 0.56996 0.13238 0.0
C348 C 0.5808 0.55258 0.07456 0.0
C349 C 0.56908 0.56469 0.05417 0.0
N350 N 0.57006 0.56148 0.19653 0.0
N351 N 0.58098 0.55108 0.1614 0.0
C352 C 0.54916 0.5828 0.14603 0.0
H353 H 0.53706 0.57636 0.15709 0.0
H354 H 0.55205 0.59034 0.20442 0.0
H355 H 0.54792 0.59108 0.08872 0.0
C356 C 0.5913 0.59527 0.46869 0.0
N357 N 0.58023 0.58311 0.44991 0.0
N358 N 0.58105 0.57973 0.36657 0.0
C359 C 0.59264 0.58969 0.32992 0.0
C360 C 0.59946 0.59982 0.39317 0.0
C361 C 0.59367 0.60258 0.55675 0.0
H362 H 0.59676 0.59245 0.60317 0.0
H363 H 0.58176 0.60836 0.57809 0.0
H364 H 0.60374 0.61213 0.55719 0.0
O365 O 0.56904 0.54701 0.51187 0.0
O366 O 0.57051 0.54089 0.37184 0.0
H367 H 0.60059 0.57707 0.2152 0.0
H368 H 0.60731 0.5986 0.2214 0.0
C369 C 0.59693 0.58982 0.23582 0.0
H370 H 0.58575 0.59366 0.19848 0.0
H371 H 0.58858 0.54298 0.1968 0.0
O372 O 0.5675 0.57568 0.64544 0.0
C373 C 0.57096 0.53651 0.4511 0.0
Co374 Co 0.18236 0.81747 0.28369 0.0
Co375 Co 0.18966 0.8191 0.08256 0.0
C376 C 0.17911 0.78731 0.17316 0.0
O377 O 0.17738 0.7943 0.24664 0.0
O378 O 0.18405 0.79531 0.10659 0.0
C379 C 0.17175 0.80919 0.45907 0.0
O380 O 0.16538 0.79554 0.4253 0.0
C381 C 0.18241 0.81469 0.89673 0.0
C382 C 0.19974 0.83283 0.83685 0.0
C383 C 0.18751 0.82117 0.8179 0.0
N384 N 0.19114 0.82228 0.9599 0.0
N385 N 0.20151 0.83308 0.92353 0.0
C386 C 0.16945 0.80155 0.91185 0.0
H387 H 0.16267 0.8041 0.97309 0.0
H388 H 0.16051 0.80096 0.85698 0.0
H389 H 0.17572 0.78924 0.91806 0.0
C390 C 0.15814 0.84401 0.23372 0.0
N391 N 0.17042 0.83307 0.21469 0.0
N392 N 0.17336 0.83359 0.13083 0.0
C393 C 0.16303 0.84486 0.09416 0.0
C394 C 0.15307 0.85176 0.15791 0.0
C395 C 0.15093 0.84636 0.32197 0.0
H396 H 0.16116 0.84879 0.36879 0.0
H397 H 0.14456 0.83465 0.34175 0.0
H398 H 0.14184 0.85684 0.32337 0.0
O399 O 0.20683 0.82057 0.27268 0.0
O400 O 0.21211 0.82361 0.13243 0.0
H401 H 0.17481 0.8522 0.97591 0.0
H402 H 0.15329 0.85883 0.98508 0.0
C403 C 0.16223 0.84859 -0.00052 0.0
H404 H 0.1582 0.83719 0.9646 0.0
H405 H 0.20976 0.84068 0.95799 0.0
O406 O 0.1782 0.82023 0.41018 0.0
C407 C 0.21701 0.82299 0.21076 0.0
Co408 Co 0.93447 0.5678 0.97896 0.0
Co409 Co 0.93287 0.56044 0.18014 0.0
C410 C 0.96484 0.57011 0.0912 0.0
O411 O 0.95789 0.57142 0.01727 0.0
O412 O 0.9566 0.56632 0.15899 0.0
C413 C 0.94366 0.57702 0.80334 0.0
O414 O 0.95811 0.5815 0.83634 0.0
C415 C 0.93709 0.56701 0.36649 0.0
C416 C 0.9182 0.55023 0.4243 0.0
C417 C 0.93028 0.56198 0.44465 0.0
N418 N 0.92929 0.55874 0.30237 0.0
N419 N 0.91804 0.5487 0.33749 0.0
C420 C 0.95077 0.57946 0.35288 0.0
H421 H 0.96268 0.57267 0.34184 0.0
H422 H 0.94811 0.5871 0.2945 0.0
H423 H 0.95225 0.58769 0.4102 0.0
C424 C 0.90809 0.59208 0.02832 0.0
N425 N 0.91914 0.57995 0.04788 0.0
N426 N 0.91851 0.57692 0.13163 0.0
C427 C 0.90713 0.58718 0.1679 0.0
C428 C 0.90018 0.59707 0.10381 0.0
C429 C 0.90548 0.59896 0.93948 0.0
H430 H 0.90303 0.58855 0.89375 0.0
H431 H 0.9171 0.60534 0.91835 0.0
H432 H 0.89493 0.60797 0.93774 0.0
O433 O 0.93018 0.54372 0.98784 0.0
O434 O 0.92885 0.5379 0.12827 0.0
H435 H 0.89898 0.57536 0.28451 0.0
H436 H 0.89335 0.59718 0.27695 0.0
C437 C 0.90321 0.58784 0.26238 0.0
H438 H 0.9147 0.59121 0.29836 0.0
H439 H 0.9102 0.54083 0.30209 0.0
O440 O 0.93191 0.57226 0.85293 0.0
C441 C 0.92834 0.53336 0.04931 0.0
Co442 Co 0.18011 0.18342 0.71735 0.0
Co443 Co 0.18605 0.18166 0.917 0.0
C444 C 0.17723 0.21371 0.83304 0.0
O445 O 0.17645 0.2067 0.75909 0.0
O446 O 0.18055 0.20553 0.90163 0.0
C447 C 0.16518 0.18231 0.53753 0.0
O448 O 0.14969 0.18237 0.56558 0.0
C449 C 0.18323 0.18467 0.10661 0.0
C450 C 0.18921 0.15874 0.14548 0.0
C451 C 0.18372 0.17397 0.17736 0.0
N452 N 0.18767 0.17594 0.03595 0.0
N453 N 0.19165 0.1606 0.06003 0.0
C454 C 0.17847 0.20276 0.10538 0.0
H455 H 0.18805 0.20996 0.06926 0.0
H456 H 0.16641 0.20423 0.0707 0.0
H457 H 0.1773 0.20789 0.17179 0.0
C458 C 0.15604 0.15555 0.76121 0.0
N459 N 0.16748 0.16738 0.78122 0.0
N460 N 0.16905 0.168 0.86608 0.0
C461 C 0.15786 0.15746 0.90208 0.0
C462 C 0.14953 0.14913 0.83716 0.0
C463 C 0.15166 0.14987 0.67211 0.0
H464 H 0.16199 0.15255 0.62673 0.0
H465 H 0.14011 0.15634 0.65084 0.0
H466 H 0.14902 0.13624 0.67196 0.0
O467 O 0.20393 0.17871 0.72673 0.0
O468 O 0.20889 0.17774 0.86756 0.0
H469 H 0.16265 0.14633 0.02513 0.0
H470 H 0.1412 0.1517 0.0077 0.0
C471 C 0.15426 0.15588 0.99663 0.0
H472 H 0.15612 0.16804 0.02909 0.0
H473 H 0.19525 0.15117 0.01729 0.0
O474 O 0.17716 0.18289 0.59107 0.0
C475 C 0.21394 0.17702 0.78959 0.0
Co476 Co 0.56575 0.43289 0.47418 0.0
Co477 Co 0.56768 0.43884 0.67352 0.0
C478 C 0.53554 0.43014 0.58871 0.0
O479 O 0.54267 0.42852 0.51541 0.0
O480 O 0.54359 0.43429 0.65646 0.0
C481 C 0.56685 0.41801 0.29473 0.0
O482 O 0.56665 0.40255 0.32323 0.0
C483 C 0.56447 0.43577 0.86314 0.0
C484 C 0.59045 0.44148 0.90235 0.0
C485 C 0.57515 0.43614 0.93402 0.0
N486 N 0.57328 0.44016 0.79264 0.0
N487 N 0.58865 0.44395 0.81692 0.0
C488 C 0.54635 0.43113 0.86154 0.0
H489 H 0.53923 0.44081 0.82566 0.0
H490 H 0.54482 0.41913 0.82639 0.0
H491 H 0.54118 0.4299 0.92785 0.0
C492 C 0.59356 0.40868 0.51788 0.0
N493 N 0.58185 0.42027 0.5378 0.0
N494 N 0.58104 0.42164 0.62268 0.0
C495 C 0.59133 0.41021 0.65874 0.0
C496 C 0.5997 0.40191 0.59388 0.0
C497 C 0.59928 0.40431 0.42886 0.0
H498 H 0.59668 0.41467 0.38348 0.0
H499 H 0.59278 0.39279 0.40738 0.0
H500 H 0.6129 0.40161 0.42901 0.0
O501 O 0.56975 0.45695 0.48457 0.0
O502 O 0.57252 0.46145 0.62517 0.0
H503 H 0.60218 0.41454 0.78289 0.0
H504 H 0.59651 0.39323 0.7638 0.0
C505 C 0.59258 0.40638 0.75318 0.0
H506 H 0.58035 0.40837 0.78486 0.0
H507 H 0.59814 0.44747 0.77432 0.0
O508 O 0.56637 0.43005 0.34793 0.0
C509 C 0.5723 0.46674 0.54756 0.0
Co510 Co 0.32102 0.81358 0.23842 0.0
Co511 Co 0.31432 0.81671 0.43738 0.0
C512 C 0.32368 0.78407 0.35821 0.0
O513 O 0.32501 0.79048 0.28293 0.0
O514 O 0.31972 0.7928 0.42396 0.0
C515 C 0.33568 0.81451 0.05723 0.0
O516 O 0.35125 0.81441 0.08415 0.0
C517 C 0.31721 0.81358 0.6268 0.0
C518 C 0.31102 0.83937 0.66702 0.0
C519 C 0.31666 0.82413 0.6981 0.0
N520 N 0.31267 0.82241 0.55656 0.0
N521 N 0.30855 0.83766 0.58146 0.0
C522 C 0.32206 0.79552 0.62481 0.0
H523 H 0.3124 0.7883 0.58935 0.0
H524 H 0.33403 0.79414 0.58925 0.0
H525 H 0.32342 0.79032 0.69098 0.0
C526 C 0.34484 0.84184 0.27985 0.0
N527 N 0.33337 0.8301 0.301 0.0
N528 N 0.33143 0.83014 0.38576 0.0
C529 C 0.3424 0.84105 0.42076 0.0
C530 C 0.35097 0.8489 0.35507 0.0
C531 C 0.34959 0.84687 0.1902 0.0
H532 H 0.361 0.83995 0.17084 0.0
H533 H 0.35259 0.86041 0.18786 0.0
H534 H 0.33929 0.84419 0.14461 0.0
O535 O 0.29708 0.81814 0.24674 0.0
O536 O 0.29162 0.82077 0.3865 0.0
H537 H 0.33664 0.85302 0.54046 0.0
H538 H 0.35833 0.84819 0.52711 0.0
C539 C 0.34547 0.84352 0.51529 0.0
H540 H 0.34382 0.83158 0.55032 0.0
H541 H 0.30482 0.84715 0.53926 0.0
O542 O 0.32386 0.81392 0.1117 0.0
C543 C 0.28686 0.82068 0.30794 0.0
Co544 Co 0.56504 0.06996 0.46973 0.0
Co545 Co 0.56714 0.06183 0.66899 0.0
C546 C 0.53488 0.0716 0.58216 0.0
O547 O 0.54182 0.07369 0.5088 0.0
O548 O 0.54308 0.06696 0.64869 0.0
C549 C 0.55529 0.07169 0.29494 0.0
O550 O 0.54089 0.0672 0.32853 0.0
C551 C 0.5632 0.06701 0.85658 0.0
C552 C 0.58226 0.04978 0.90922 0.0
C553 C 0.57011 0.0612 0.93307 0.0
N554 N 0.57103 0.05948 0.79021 0.0
N555 N 0.58242 0.04922 0.82219 0.0
C556 C 0.54909 0.07912 0.84646 0.0
H557 H 0.55143 0.08737 0.78998 0.0
H558 H 0.54739 0.08674 0.90579 0.0
H559 H 0.5374 0.07205 0.83393 0.0
C560 C 0.591 0.09455 0.52034 0.0
N561 N 0.58026 0.08211 0.53907 0.0
N562 N 0.5811 0.07875 0.62239 0.0
C563 C 0.59249 0.08893 0.65913 0.0
C564 C 0.59909 0.09923 0.59584 0.0
C565 C 0.59337 0.10174 0.43193 0.0
H566 H 0.58111 0.10591 0.40615 0.0
H567 H 0.60224 0.11242 0.4327 0.0
H568 H 0.59818 0.09186 0.38813 0.0
O569 O 0.56928 0.04569 0.4756 0.0
O570 O 0.57205 0.03981 0.61529 0.0
H571 H 0.60664 0.09839 0.7682 0.0
H572 H 0.58548 0.09196 0.79132 0.0
C573 C 0.59683 0.08902 0.75322 0.0
H574 H 0.60132 0.07645 0.77255 0.0
H575 H 0.59025 0.04174 0.78449 0.0
O576 O 0.56746 0.0751 0.34481 0.0
C577 C 0.5719 0.03532 0.5363 0.0
Co578 Co 0.18134 0.3156 0.70657 0.0
Co579 Co 0.18549 0.3183 0.90598 0.0
C580 C 0.17738 0.2858 0.82302 0.0
O581 O 0.17651 0.29256 0.74846 0.0
O582 O 0.18114 0.29416 0.89039 0.0
C583 C 0.16689 0.31672 0.52848 0.0
O584 O 0.15158 0.31695 0.55909 0.0
C585 C 0.182 0.31544 0.09513 0.0
C586 C 0.18721 0.34156 0.1337 0.0
C587 C 0.18233 0.32614 0.16569 0.0
N588 N 0.18604 0.3243 0.02435 0.0
N589 N 0.18948 0.33979 0.04811 0.0
C590 C 0.17797 0.29717 0.09436 0.0
H591 H 0.18793 0.29031 0.05923 0.0
H592 H 0.16607 0.29519 0.05889 0.0
H593 H 0.17682 0.29208 0.16088 0.0
C594 C 0.15718 0.34409 0.74261 0.0
N595 N 0.16819 0.33203 0.76581 0.0
N596 N 0.16861 0.33125 0.85094 0.0
C597 C 0.15706 0.34177 0.8837 0.0
C598 C 0.14971 0.35037 0.81656 0.0
C599 C 0.15444 0.35046 0.65296 0.0
H600 H 0.14271 0.34507 0.62682 0.0
H601 H 0.15288 0.36425 0.65391 0.0
H602 H 0.1651 0.34719 0.61083 0.0
O603 O 0.20536 0.3197 0.72137 0.0
O604 O 0.2083 0.32357 0.86225 0.0
H605 H 0.1602 0.35317 0.00757 0.0
H606 H 0.13917 0.3471 0.9841 0.0
C607 C 0.15246 0.34331 0.97714 0.0
H608 H 0.15435 0.33125 0.01091 0.0
H609 H 0.19281 0.3493 0.00522 0.0
O610 O 0.17915 0.31586 0.58011 0.0
C611 C 0.21444 0.32287 0.7865 0.0
Co612 Co 0.93441 0.9297 0.98498 0.0
Co613 Co 0.93118 0.93886 0.18156 0.0
C614 C 0.96416 0.92948 0.09511 0.0
O615 O 0.95737 0.92566 0.02336 0.0
O616 O 0.95571 0.9352 0.15873 0.0
C617 C 0.94359 0.9289 0.80891 0.0
O618 O 0.95795 0.93367 0.842 0.0
C619 C 0.93542 0.93382 0.3699 0.0
C620 C 0.91656 0.95124 0.4226 0.0
C621 C 0.92863 0.93974 0.44657 0.0
N622 N 0.92759 0.94137 0.30344 0.0
N623 N 0.91633 0.95175 0.33554 0.0
C624 C 0.94936 0.92155 0.35962 0.0
H625 H 0.96095 0.92839 0.34212 0.0
H626 H 0.94642 0.91281 0.30598 0.0
H627 H 0.95158 0.91446 0.42029 0.0
C628 C 0.90901 0.90447 0.03729 0.0
N629 N 0.91926 0.91739 0.0548 0.0
N630 N 0.91818 0.92103 0.1377 0.0
C631 C 0.90704 0.9107 0.17521 0.0
C632 C 0.90093 0.89987 0.11307 0.0
C633 C 0.90708 0.89676 0.94983 0.0
H634 H 0.9196 0.89364 0.92338 0.0
H635 H 0.89921 0.88533 0.95243 0.0
H636 H 0.90125 0.90599 0.90552 0.0
O637 O 0.93073 0.95416 0.99158 0.0
O638 O 0.9238 0.96 0.126 0.0
H639 H 0.89219 0.90207 0.28366 0.0
H640 H 0.91343 0.90802 0.30835 0.0
C641 C 0.90231 0.91113 0.26875 0.0
H642 H 0.8981 0.92388 0.28627 0.0
H643 H 0.90852 0.95927 0.29791 0.0
O644 O 0.93169 0.92489 0.85942 0.0
C645 C 0.92584 0.96461 0.04805 0.0
Co646 Co 0.31763 0.68258 0.24862 0.0
Co647 Co 0.31154 0.67966 0.44784 0.0
C648 C 0.32248 0.71185 0.36618 0.0
O649 O 0.3231 0.70533 0.29103 0.0
O650 O 0.31868 0.70329 0.43293 0.0
C651 C 0.33188 0.68287 0.06727 0.0
O652 O 0.34703 0.68651 0.09379 0.0
C653 C 0.31412 0.68251 0.63731 0.0
C654 C 0.30867 0.65645 0.67578 0.0
C655 C 0.31374 0.67179 0.70807 0.0
N656 N 0.31003 0.67371 0.56644 0.0
N657 N 0.3063 0.65829 0.59026 0.0
C658 C 0.3181 0.7008 0.63644 0.0
H659 H 0.30866 0.70753 0.59699 0.0
H660 H 0.33047 0.70274 0.60555 0.0
H661 H 0.31827 0.70608 0.7028 0.0
C662 C 0.33881 0.65211 0.28815 0.0
N663 N 0.32871 0.66494 0.31037 0.0
N664 N 0.32668 0.66472 0.3945 0.0
C665 C 0.33579 0.65225 0.4289 0.0
C666 C 0.34213 0.64235 0.36195 0.0
C667 C 0.34881 0.65239 0.20633 0.0
H668 H 0.35381 0.66513 0.19745 0.0
H669 H 0.35979 0.64396 0.20893 0.0
H670 H 0.34073 0.64932 0.15028 0.0
O671 O 0.29326 0.68003 0.25993 0.0
O672 O 0.28863 0.67659 0.40008 0.0
H673 H 0.33572 0.64657 0.56591 0.0
H674 H 0.35617 0.64871 0.51932 0.0
C675 C 0.34318 0.65361 0.51815 0.0
H676 H 0.34343 0.66689 0.53896 0.0
H677 H 0.30295 0.6488 0.54734 0.0
O678 O 0.32016 0.68135 0.12197 0.0
C679 C 0.28333 0.67761 0.32267 0.0
Co680 Co 0.56767 0.93122 0.50721 0.0
Co681 Co 0.56883 0.93856 0.30592 0.0
C682 C 0.53708 0.92881 0.3966 0.0
O683 O 0.54417 0.92775 0.47025 0.0
O684 O 0.54522 0.93231 0.32803 0.0
C685 C 0.55874 0.92158 0.68243 0.0
O686 O 0.54446 0.91666 0.64908 0.0
C687 C 0.56469 0.93185 0.11957 0.0
C688 C 0.58299 0.94925 0.06155 0.0
C689 C 0.57131 0.9371 0.04134 0.0
N690 N 0.57223 0.94039 0.18359 0.0
N691 N 0.58313 0.9508 0.14835 0.0
C692 C 0.55142 0.91897 0.13335 0.0
H693 H 0.53926 0.92537 0.14327 0.0
H694 H 0.55423 0.91158 0.1924 0.0
H695 H 0.55035 0.91056 0.07651 0.0
C696 C 0.59385 0.90683 0.4559 0.0
N697 N 0.58287 0.91909 0.43728 0.0
N698 N 0.58348 0.92229 0.35369 0.0
C699 C 0.59485 0.91211 0.31673 0.0
C700 C 0.60174 0.90203 0.38005 0.0
C701 C 0.59629 0.89957 0.54403 0.0
H702 H 0.59927 0.90972 0.59042 0.0
H703 H 0.58443 0.89366 0.56529 0.0
H704 H 0.60644 0.8901 0.54457 0.0
O705 O 0.57184 0.95531 0.49831 0.0
O706 O 0.57252 0.96115 0.35776 0.0
H707 H 0.60234 0.92429 0.19983 0.0
H708 H 0.60906 0.90277 0.20763 0.0
C709 C 0.59875 0.91163 0.22222 0.0
H710 H 0.58742 0.90765 0.18654 0.0
H711 H 0.59071 0.95893 0.18366 0.0
O712 O 0.57038 0.92672 0.63312 0.0
C713 C 0.57327 0.9657 0.43665 0.0
Co714 Co 0.31872 0.31676 0.78093 0.0
Co715 Co 0.31316 0.31889 0.58101 0.0
C716 C 0.32181 0.28669 0.66388 0.0
O717 O 0.32244 0.29353 0.73833 0.0
O718 O 0.31865 0.29503 0.5956 0.0
C719 C 0.33351 0.31771 0.9603 0.0
O720 O 0.34893 0.31734 0.93125 0.0
C721 C 0.31677 0.31646 0.39149 0.0
C722 C 0.30954 0.34212 0.3536 0.0
C723 C 0.31596 0.32729 0.32125 0.0
N724 N 0.31172 0.32481 0.4623 0.0
N725 N 0.30703 0.33998 0.4388 0.0
C726 C 0.32207 0.29852 0.39204 0.0
H727 H 0.3127 0.29097 0.42776 0.0
H728 H 0.33416 0.29735 0.42678 0.0
H729 H 0.32338 0.2935 0.32549 0.0
C730 C 0.3429 0.34473 0.73934 0.0
N731 N 0.3315 0.3329 0.71832 0.0
N732 N 0.33002 0.33249 0.63338 0.0
C733 C 0.34119 0.34318 0.59833 0.0
C734 C 0.34944 0.35137 0.66401 0.0
C735 C 0.34718 0.35026 0.82881 0.0
H736 H 0.3587 0.34375 0.85019 0.0
H737 H 0.34983 0.36389 0.82967 0.0
H738 H 0.33681 0.34752 0.87372 0.0
O739 O 0.29492 0.3215 0.7704 0.0
O740 O 0.29025 0.32273 0.62937 0.0
H741 H 0.33586 0.35435 0.47595 0.0
H742 H 0.35756 0.34995 0.49306 0.0
C743 C 0.3447 0.34515 0.5039 0.0
H744 H 0.34339 0.33299 0.4707 0.0
H745 H 0.30282 0.34911 0.48176 0.0
O746 O 0.32141 0.31722 0.90748 0.0
C747 C 0.28504 0.32332 0.70706 0.0
Co748 Co 0.93321 0.06897 0.00104 0.0
Co749 Co 0.93025 0.06038 0.80374 0.0
C750 C 0.96303 0.06983 0.89026 0.0
O751 O 0.95615 0.07306 0.96255 0.0
O752 O 0.95472 0.06436 0.82565 0.0
C753 C 0.94257 0.06973 0.17668 0.0
O754 O 0.95687 0.06486 0.14327 0.0
C755 C 0.93454 0.06538 0.61573 0.0
C756 C 0.9152 0.04848 0.56303 0.0
C757 C 0.92759 0.05965 0.53914 0.0
N758 N 0.92651 0.05804 0.68214 0.0
N759 N 0.91496 0.04798 0.65008 0.0
C760 C 0.94885 0.07722 0.62596 0.0
H761 H 0.96037 0.06997 0.63982 0.0
H762 H 0.94652 0.08564 0.68175 0.0
H763 H 0.95084 0.08468 0.56627 0.0
C764 C 0.90738 0.09387 0.95069 0.0
N765 N 0.91792 0.08124 0.93206 0.0
N766 N 0.91709 0.07799 0.84867 0.0
C767 C 0.90598 0.08844 0.81168 0.0
C768 C 0.8995 0.0988 0.87494 0.0
C769 C 0.90512 0.1011 0.03905 0.0
H770 H 0.90005 0.09133 0.08275 0.0
H771 H 0.91746 0.10496 0.06508 0.0
H772 H 0.89651 0.11199 0.0381 0.0
O773 O 0.9297 0.04458 0.99364 0.0
O774 O 0.92326 0.03893 0.85832 0.0
H775 H 0.89685 0.076 0.69881 0.0
H776 H 0.89194 0.09805 0.70253 0.0
C777 C 0.90158 0.0885 0.71767 0.0
H778 H 0.91297 0.09118 0.6793 0.0
H779 H 0.90696 0.04067 0.68774 0.0
O780 O 0.93062 0.07372 0.12651 0.0
C781 C 0.92513 0.03418 0.93619 0.0
Co782 Co 0.17894 0.68484 0.27405 0.0
Co783 Co 0.18867 0.68335 0.07569 0.0
C784 C 0.178 0.71528 0.16172 0.0
O785 O 0.17573 0.70823 0.23472 0.0
O786 O 0.18276 0.70718 0.09513 0.0
C787 C 0.17806 0.69401 0.44857 0.0
O788 O 0.18342 0.70807 0.41446 0.0
C789 C 0.18417 0.687 0.88695 0.0
C790 C 0.20209 0.66836 0.83659 0.0
C791 C 0.19032 0.68008 0.8111 0.0
N792 N 0.19183 0.67959 0.95437 0.0
N793 N 0.20253 0.66848 0.92369 0.0
C794 C 0.17152 0.70066 0.89557 0.0
H795 H 0.16314 0.69803 0.95118 0.0
H796 H 0.16407 0.7021 0.83545 0.0
H797 H 0.17811 0.71259 0.90886 0.0
C798 C 0.15515 0.65869 0.21735 0.0
N799 N 0.16755 0.66966 0.20162 0.0
N800 N 0.17162 0.66897 0.11909 0.0
C801 C 0.16186 0.65752 0.07984 0.0
C802 C 0.15116 0.65067 0.14061 0.0
C803 C 0.14727 0.65613 0.30401 0.0
H804 H 0.15678 0.65111 0.34942 0.0
H805 H 0.14302 0.66835 0.32989 0.0
H806 H 0.13655 0.64734 0.30036 0.0
O807 O 0.203 0.68033 0.27251 0.0
O808 O 0.21057 0.67931 0.13441 0.0
H809 H 0.17533 0.64948 0.96792 0.0
H810 H 0.15364 0.64316 0.96888 0.0
C811 C 0.16248 0.65335 0.98567 0.0
H812 H 0.15918 0.66464 0.94789 0.0
H813 H 0.21014 0.66095 0.96232 0.0
O814 O 0.17343 0.68223 0.39877 0.0
C815 C 0.21414 0.67867 0.21469 0.0
Co816 Co 0.43531 0.93086 0.52614 0.0
Co817 Co 0.43219 0.93755 0.32705 0.0
C818 C 0.46487 0.92856 0.40666 0.0
O819 O 0.45844 0.92713 0.4818 0.0
O820 O 0.45615 0.93241 0.34068 0.0
C821 C 0.43463 0.91614 0.70733 0.0
O822 O 0.43508 0.90057 0.68052 0.0
C823 C 0.43538 0.93478 0.13761 0.0
C824 C 0.40947 0.94046 0.09736 0.0
C825 C 0.42482 0.93511 0.06629 0.0
N826 N 0.42647 0.93915 0.20783 0.0
N827 N 0.41114 0.94297 0.1829 0.0
C828 C 0.45354 0.93027 0.13963 0.0
H829 H 0.46057 0.94003 0.17535 0.0
H830 H 0.45514 0.91829 0.17496 0.0
H831 H 0.45877 0.92906 0.07347 0.0
C832 C 0.40749 0.90658 0.48411 0.0
N833 N 0.41898 0.91832 0.46325 0.0
N834 N 0.41895 0.92027 0.37849 0.0
C835 C 0.40832 0.90908 0.34323 0.0
C836 C 0.40062 0.90031 0.40873 0.0
C837 C 0.40264 0.90157 0.57364 0.0
H838 H 0.40505 0.91188 0.61953 0.0
H839 H 0.40988 0.89033 0.59257 0.0
H840 H 0.38918 0.89819 0.57597 0.0
O841 O 0.43059 0.95475 0.5179 0.0
O842 O 0.42791 0.96017 0.37807 0.0
H843 H 0.39642 0.91449 0.22284 0.0
H844 H 0.40171 0.89292 0.23682 0.0
C845 C 0.40607 0.9059 0.24864 0.0
H846 H 0.41802 0.9078 0.21416 0.0
H847 H 0.40159 0.94651 0.22509 0.0
O848 O 0.43497 0.92797 0.65279 0.0
C849 C 0.42798 0.96493 0.45661 0.0
Co850 Co 0.82057 0.68191 0.28468 0.0
Co851 Co 0.8126 0.68002 0.08507 0.0
C852 C 0.82243 0.71215 0.17087 0.0
O853 O 0.82391 0.70529 0.24493 0.0
O854 O 0.81859 0.7038 0.10355 0.0
C855 C 0.82246 0.69169 0.4595 0.0
O856 O 0.81809 0.70615 0.42609 0.0
C857 C 0.81755 0.68366 0.89718 0.0
C858 C 0.80011 0.66468 0.84573 0.0
C859 C 0.81159 0.67673 0.82112 0.0
N860 N 0.81005 0.67596 0.96407 0.0
N861 N 0.79966 0.66461 0.93281 0.0
C862 C 0.82977 0.69769 0.90633 0.0
H863 H 0.83815 0.6953 0.96224 0.0
H864 H 0.83726 0.69932 0.84649 0.0
H865 H 0.82281 0.70943 0.91923 0.0
C866 C 0.84483 0.65562 0.23437 0.0
N867 N 0.83256 0.66656 0.2154 0.0
N868 N 0.8293 0.66581 0.13198 0.0
C869 C 0.83951 0.65446 0.09518 0.0
C870 C 0.84963 0.64763 0.15872 0.0
C871 C 0.85185 0.65308 0.32303 0.0
H872 H 0.84172 0.6489 0.36708 0.0
H873 H 0.85663 0.66517 0.34799 0.0
H874 H 0.86206 0.64368 0.32299 0.0
O875 O 0.79646 0.67744 0.27986 0.0
O876 O 0.79034 0.67614 0.13986 0.0
H877 H 0.82734 0.64585 0.98044 0.0
H878 H 0.84932 0.64071 0.98555 0.0
C879 C 0.83983 0.65039 0.00078 0.0
H880 H 0.84275 0.66188 0.96366 0.0
H881 H 0.79217 0.65689 0.97102 0.0
O882 O 0.8258 0.67953 0.40948 0.0
C883 C 0.78596 0.67562 0.21901 0.0
Co884 Co 0.06525 0.0682 0.02023 0.0
Co885 Co 0.06778 0.06085 0.82193 0.0
C886 C 0.03519 0.06962 0.90588 0.0
O887 O 0.0422 0.07247 0.97844 0.0
O888 O 0.04348 0.06478 0.84004 0.0
C889 C 0.06627 0.08296 0.2014 0.0
O890 O 0.06588 0.09854 0.17474 0.0
C891 C 0.06419 0.06383 0.63201 0.0
C892 C 0.09 0.05781 0.59148 0.0
C893 C 0.07474 0.06341 0.56055 0.0
N894 N 0.07306 0.05926 0.70211 0.0
N895 N 0.08832 0.05525 0.67693 0.0
C896 C 0.04614 0.0687 0.63444 0.0
H897 H 0.03897 0.05927 0.67174 0.0
H898 H 0.04487 0.08086 0.66834 0.0
H899 H 0.04082 0.06976 0.56836 0.0
C900 C 0.09284 0.09235 0.97491 0.0
N901 N 0.08129 0.08059 0.95561 0.0
N902 N 0.0809 0.07856 0.87095 0.0
C903 C 0.09144 0.08969 0.83422 0.0
C904 C 0.09942 0.09853 0.89859 0.0
C905 C 0.09803 0.09741 0.06385 0.0
H906 H 0.09574 0.08713 0.11024 0.0
H907 H 0.09086 0.10867 0.08323 0.0
H908 H 0.1115 0.10077 0.06484 0.0
O909 O 0.06965 0.04416 0.01144 0.0
O910 O 0.07344 0.03858 0.87252 0.0
H911 H 0.10301 0.08388 0.71358 0.0
H912 H 0.09791 0.10552 0.72625 0.0
C913 C 0.09349 0.09261 0.73933 0.0
H914 H 0.08144 0.09071 0.70587 0.0
H915 H 0.09784 0.05156 0.71898 0.0
O916 O 0.06592 0.07115 0.14676 0.0
C917 C 0.07308 0.03398 0.95124 0.0
Co918 Co 0.67925 0.31597 0.77649 0.0
Co919 Co 0.68573 0.31815 0.57715 0.0
C920 C 0.67688 0.28586 0.65997 0.0
O921 O 0.67562 0.29271 0.73416 0.0
O922 O 0.68057 0.29421 0.59244 0.0
C923 C 0.66432 0.31707 0.95694 0.0
O924 O 0.64878 0.31704 0.9296 0.0
C925 C 0.68291 0.31496 0.38757 0.0
C926 C 0.68908 0.34078 0.34778 0.0
C927 C 0.68344 0.32557 0.31643 0.0
N928 N 0.68745 0.32373 0.45792 0.0
N929 N 0.69156 0.339 0.43326 0.0
C930 C 0.67801 0.2969 0.38945 0.0
H931 H 0.68763 0.28965 0.42507 0.0
H932 H 0.66603 0.29555 0.42494 0.0
H933 H 0.67665 0.29173 0.32323 0.0
C934 C 0.65522 0.34388 0.73211 0.0
N935 N 0.66671 0.33206 0.71227 0.0
N936 N 0.66853 0.33165 0.62749 0.0
C937 C 0.65748 0.34233 0.59129 0.0
C938 C 0.64897 0.35052 0.65607 0.0
C939 C 0.65061 0.34936 0.82122 0.0
H940 H 0.63912 0.34269 0.84164 0.0
H941 H 0.64779 0.36295 0.82191 0.0
H942 H 0.66091 0.34672 0.86697 0.0
O943 O 0.70312 0.32076 0.76822 0.0
O944 O 0.70837 0.3224 0.62781 0.0
H945 H 0.66298 0.3538 0.46991 0.0
H946 H 0.64137 0.34875 0.48438 0.0
C947 C 0.65431 0.34431 0.49655 0.0
H948 H 0.65609 0.33223 0.46318 0.0
H949 H 0.69526 0.34846 0.47563 0.0
O950 O 0.67621 0.31647 0.90285 0.0
C951 C 0.71324 0.32285 0.70615 0.0
Co952 Co 0.43185 0.06938 0.48113 0.0
Co953 Co 0.43114 0.06172 0.6823 0.0
C954 C 0.46271 0.07146 0.5884 0.0
O955 O 0.4552 0.07358 0.51652 0.0
O956 O 0.45501 0.06683 0.65656 0.0
C957 C 0.44025 0.07988 0.30641 0.0
O958 O 0.454 0.08594 0.34062 0.0
C959 C 0.43565 0.06878 0.86847 0.0
C960 C 0.41774 0.05117 0.92802 0.0
C961 C 0.4292 0.06358 0.94722 0.0
N962 N 0.42821 0.05996 0.80514 0.0
N963 N 0.41757 0.04941 0.84133 0.0
C964 C 0.44853 0.082 0.85347 0.0
H965 H 0.46092 0.07596 0.84553 0.0
H966 H 0.44565 0.08892 0.79302 0.0
H967 H 0.44916 0.09078 0.909 0.0
C968 C 0.40575 0.09367 0.53474 0.0
N969 N 0.41679 0.08141 0.55226 0.0
N970 N 0.41663 0.07833 0.63604 0.0
C971 C 0.40544 0.08855 0.67414 0.0
C972 C 0.39826 0.09856 0.61148 0.0
C973 C 0.40288 0.10084 0.44678 0.0
H974 H 0.4 0.09061 0.40069 0.0
H975 H 0.41454 0.10702 0.42459 0.0
H976 H 0.39252 0.11008 0.44702 0.0
O977 O 0.42819 0.04506 0.49072 0.0
O978 O 0.42626 0.03944 0.63122 0.0
H979 H 0.3986 0.07635 0.79209 0.0
H980 H 0.39146 0.09772 0.78438 0.0
C981 C 0.40187 0.08905 0.76898 0.0
H982 H 0.41325 0.0933 0.80338 0.0
H983 H 0.41008 0.04109 0.80673 0.0
O984 O 0.42896 0.07379 0.35505 0.0
C985 C 0.4261 0.03478 0.55243 0.0
Co986 Co 0.68255 0.68342 0.22242 0.0
Co987 Co 0.68679 0.68164 0.42226 0.0
C988 C 0.67946 0.71384 0.33648 0.0
O989 O 0.67847 0.70662 0.26311 0.0
O990 O 0.6828 0.70581 0.40553 0.0
C991 C 0.66777 0.68247 0.04461 0.0
O992 O 0.65246 0.68256 0.07526 0.0
C993 C 0.68341 0.68452 0.61158 0.0
C994 C 0.68829 0.65829 0.64951 0.0
C995 C 0.68356 0.67372 0.68186 0.0
N996 N 0.68742 0.67569 0.54065 0.0
N997 N 0.69066 0.66014 0.56405 0.0
C998 C 0.67945 0.7028 0.61102 0.0
H999 H 0.68939 0.70963 0.57554 0.0
H1000 H 0.66752 0.70485 0.57594 0.0
H1001 H 0.67841 0.70786 0.67761 0.0
C1002 C 0.6578 0.65578 0.26187 0.0
N1003 N 0.66916 0.66759 0.28359 0.0
N1004 N 0.66967 0.66872 0.36858 0.0
C1005 C 0.65784 0.65867 0.40266 0.0
C1006 C 0.65021 0.65001 0.33658 0.0
C1007 C 0.6547 0.64928 0.1728 0.0
H1008 H 0.64305 0.6549 0.14698 0.0
H1009 H 0.6528 0.63553 0.1748 0.0
H1010 H 0.66535 0.65219 0.12985 0.0
O1011 O 0.70643 0.6788 0.23631 0.0
O1012 O 0.70959 0.67634 0.37802 0.0
H1013 H 0.66065 0.64786 0.52819 0.0
H1014 H 0.63978 0.65433 0.50357 0.0
C1015 C 0.65316 0.65774 0.4962 0.0
H1016 H 0.65536 0.66992 0.5281 0.0
H1017 H 0.69387 0.65063 0.52094 0.0
O1018 O 0.68007 0.68302 0.09616 0.0
C1019 C 0.71558 0.67622 0.30183 0.0
Co1020 Co 0.06704 0.93162 0.97862 0.0
Co1021 Co 0.06849 0.93696 0.18123 0.0
C1022 C 0.03638 0.92937 0.09165 0.0
O1023 O 0.04359 0.92816 0.0182 0.0
O1024 O 0.04443 0.93269 0.16074 0.0
C1025 C 0.06519 0.91685 0.80073 0.0
O1026 O 0.05936 0.90287 0.83368 0.0
C1027 C 0.06647 0.93039 0.37044 0.0
C1028 C 0.09111 0.93994 0.40983 0.0
C1029 C 0.07784 0.93036 0.44013 0.0
N1030 N 0.07381 0.93782 0.30197 0.0
N1031 N 0.08826 0.94402 0.3271 0.0
C1032 C 0.04842 0.92536 0.36897 0.0
H1033 H 0.04128 0.93417 0.32767 0.0
H1034 H 0.04714 0.91277 0.33966 0.0
H1035 H 0.04285 0.92558 0.43457 0.0
C1036 C 0.09399 0.90651 0.02393 0.0
N1037 N 0.08241 0.91824 0.04399 0.0
N1038 N 0.08182 0.91976 0.12901 0.0
C1039 C 0.09236 0.90851 0.16477 0.0
C1040 C 0.10052 0.90005 0.09973 0.0
C1041 C 0.09972 0.90209 0.93491 0.0
H1042 H 0.08906 0.90168 0.88999 0.0
H1043 H 0.10618 0.88981 0.93425 0.0
H1044 H 0.10869 0.91173 0.91258 0.0
O1045 O 0.072 0.95539 0.99264 0.0
O1046 O 0.07375 0.95964 0.13413 0.0
H1047 H 0.10237 0.91535 0.28771 0.0
H1048 H 0.10085 0.89323 0.27149 0.0
C1049 C 0.09451 0.90535 0.25944 0.0
H1050 H 0.08215 0.9051 0.29146 0.0
H1051 H 0.09658 0.95026 0.28634 0.0
O1052 O 0.06855 0.92898 0.85076 0.0
C1053 C 0.07438 0.96499 0.05664 0.0
Co1054 Co 0.81683 0.31636 0.70733 0.0
Co1055 Co 0.81267 0.3185 0.90721 0.0
C1056 C 0.82029 0.2862 0.82272 0.0
O1057 O 0.82089 0.29321 0.74871 0.0
O1058 O 0.81712 0.29436 0.89147 0.0
C1059 C 0.83151 0.3171 0.52939 0.0
O1060 O 0.84683 0.31683 0.55993 0.0
C1061 C 0.816 0.31563 0.09642 0.0
C1062 C 0.81097 0.34181 0.13461 0.0
C1063 C 0.81577 0.32638 0.16682 0.0
N1064 N 0.81198 0.32448 0.02554 0.0
N1065 N 0.80864 0.34 0.04909 0.0
C1066 C 0.81998 0.29735 0.09577 0.0
H1067 H 0.81005 0.29052 0.06026 0.0
H1068 H 0.83192 0.29532 0.06073 0.0
H1069 H 0.82102 0.29226 0.16233 0.0
C1070 C 0.84164 0.34407 0.74544 0.0
N1071 N 0.83024 0.33234 0.76785 0.0
N1072 N 0.82958 0.33154 0.85295 0.0
C1073 C 0.84126 0.34182 0.88653 0.0
C1074 C 0.84902 0.3502 0.8199 0.0
C1075 C 0.84493 0.35023 0.65589 0.0
H1076 H 0.83429 0.34733 0.61289 0.0
H1077 H 0.85652 0.34434 0.63102 0.0
H1078 H 0.84703 0.36395 0.65659 0.0
O1079 O 0.79294 0.32087 0.72124 0.0
O1080 O 0.78983 0.32357 0.86282 0.0
H1081 H 0.83819 0.35297 0.01104 0.0
H1082 H 0.85916 0.34668 0.98764 0.0
C1083 C 0.84584 0.34309 0.98013 0.0
H1084 H 0.84377 0.33097 0.01306 0.0
H1085 H 0.80538 0.34952 0.00607 0.0
O1086 O 0.81923 0.31666 0.58105 0.0
C1087 C 0.78379 0.32349 0.78672 0.0
C1088 C 0.07978 0.56474 0.67346 0.0
C1089 C 0.07011 0.57881 0.69987 0.0
C1090 C 0.06655 0.58641 0.54765 0.0
C1091 C 0.07372 0.57092 0.52257 0.0
N1092 N 0.08284 0.54332 0.56511 0.0
N1093 N 0.05056 0.60054 0.65787 0.0
C1094 C 0.07895 0.55942 0.58656 0.0
C1095 C 0.06239 0.58899 0.63588 0.0
N1096 N 0.09053 0.55695 0.72913 0.0
N1097 N 0.06435 0.59895 0.48877 0.0
H1098 H 0.04612 0.60204 0.72072 0.0
H1099 H 0.04373 0.60718 0.61179 0.0
H1100 H 0.06806 0.59794 0.42438 0.0
H1101 H 0.0605 0.61093 0.50638 0.0
H1102 H 0.09865 0.54749 0.70934 0.0
H1103 H 0.09307 0.56127 0.79121 0.0
H1104 H 0.08538 0.53419 0.61149 0.0
H1105 H 0.08159 0.53865 0.50245 0.0
C1106 C 0.66406 0.81607 0.79339 0.0
C1107 C 0.67967 0.82292 0.76781 0.0
C1108 C 0.68616 0.82884 0.91844 0.0
C1109 C 0.67191 0.81949 0.94535 0.0
N1110 N 0.64969 0.80045 0.90425 0.0
N1111 N 0.70751 0.83146 0.80938 0.0
C1112 C 0.66149 0.812 0.88175 0.0
C1113 C 0.69135 0.8279 0.83138 0.0
N1114 N 0.65144 0.81409 0.73483 0.0
N1115 N 0.69425 0.83942 0.97381 0.0
H1116 H 0.71208 0.83011 0.74656 0.0
H1117 H 0.71675 0.8338 0.85542 0.0
H1118 H 0.69007 0.84203 0.03608 0.0
H1119 H 0.70385 0.84735 0.95369 0.0
H1120 H 0.6394 0.81051 0.75278 0.0
H1121 H 0.65248 0.81772 0.67032 0.0
H1122 H 0.64284 0.79376 0.85847 0.0
H1123 H 0.64814 0.79608 0.96721 0.0
C1124 C 0.42586 0.41816 0.075 0.0
C1125 C 0.43427 0.4319 0.03651 0.0
C1126 C 0.44966 0.43697 0.17142 0.0
C1127 C 0.44001 0.4243 0.21244 0.0
N1128 N 0.41895 0.40285 0.20605 0.0
N1129 N 0.45382 0.45472 0.04553 0.0
C1130 C 0.42818 0.41482 0.16475 0.0
C1131 C 0.44623 0.44127 0.08378 0.0
N1132 N 0.41583 0.40822 0.02515 0.0
N1133 N 0.46202 0.44496 0.21657 0.0
H1134 H 0.45223 0.45773 0.98039 0.0
H1135 H 0.46108 0.46341 0.07849 0.0
H1136 H 0.46423 0.44304 0.28225 0.0
H1137 H 0.47079 0.45288 0.18846 0.0
H1138 H 0.41055 0.39706 0.04624 0.0
H1139 H 0.4136 0.41057 0.95983 0.0
H1140 H 0.4087 0.39682 0.17879 0.0
H1141 H 0.4212 0.3993 0.26988 0.0
C1142 C 0.83615 0.18414 0.28321 0.0
C1143 C 0.82048 0.17726 0.25874 0.0
C1144 C 0.81459 0.17106 0.40978 0.0
C1145 C 0.82883 0.18051 0.43575 0.0
N1146 N 0.85077 0.19976 0.39314 0.0
N1147 N 0.79285 0.16847 0.30274 0.0
C1148 C 0.83898 0.18815 0.37143 0.0
C1149 C 0.80907 0.1721 0.32327 0.0
N1150 N 0.8486 0.18618 0.22378 0.0
N1151 N 0.80681 0.16031 0.46552 0.0
H1152 H 0.78804 0.16991 0.24046 0.0
H1153 H 0.78381 0.16597 0.34961 0.0
H1154 H 0.81129 0.15762 0.52718 0.0
H1155 H 0.7972 0.15234 0.44605 0.0
H1156 H 0.86068 0.1898 0.24091 0.0
H1157 H 0.84741 0.18252 0.15942 0.0
H1158 H 0.85741 0.20654 0.34688 0.0
H1159 H 0.8525 0.20408 0.45604 0.0
C1160 C 0.07319 0.42113 0.42535 0.0
C1161 C 0.06599 0.43563 0.46306 0.0
C1162 C 0.05483 0.44397 0.32208 0.0
C1163 C 0.0607 0.42873 0.28574 0.0
N1164 N 0.07322 0.40158 0.30516 0.0
N1165 N 0.04703 0.45895 0.45197 0.0
C1166 C 0.06925 0.41693 0.33811 0.0
C1167 C 0.05588 0.44644 0.4128 0.0
N1168 N 0.08429 0.41173 0.47174 0.0
N1169 N 0.04922 0.45655 0.26959 0.0
H1170 H 0.04741 0.4611 0.51851 0.0
H1171 H 0.03809 0.46611 0.41982 0.0
H1172 H 0.04901 0.45572 0.2023 0.0
H1173 H 0.04647 0.46852 0.29208 0.0
H1174 H 0.09135 0.40209 0.44499 0.0
H1175 H 0.08741 0.4144 0.53568 0.0
H1176 H 0.0779 0.39182 0.34261 0.0
H1177 H 0.07054 0.39813 0.24158 0.0
C1178 C 0.83744 0.81413 0.71938 0.0
C1179 C 0.82157 0.82102 0.74055 0.0
C1180 C 0.81701 0.82714 0.58802 0.0
C1181 C 0.83132 0.81748 0.56527 0.0
N1182 N 0.85276 0.79815 0.61349 0.0
N1183 N 0.7944 0.82993 0.68989 0.0
C1184 C 0.8409 0.8099 0.63204 0.0
C1185 C 0.81075 0.8262 0.67329 0.0
N1186 N 0.84954 0.81238 0.78096 0.0
N1187 N 0.80988 0.83799 0.53053 0.0
H1188 H 0.78901 0.8285 0.7509 0.0
H1189 H 0.78581 0.83249 0.64085 0.0
H1190 H 0.81502 0.84066 0.4702 0.0
H1191 H 0.80019 0.84606 0.54771 0.0
H1192 H 0.86172 0.8087 0.76615 0.0
H1193 H 0.84799 0.8164 0.84449 0.0
H1194 H 0.85899 0.79145 0.66157 0.0
H1195 H 0.85493 0.79366 0.55128 0.0
C1196 C 0.41882 0.56745 0.818 0.0
C1197 C 0.42882 0.58164 0.79766 0.0
C1198 C 0.43203 0.58666 0.95281 0.0
C1199 C 0.42529 0.57062 0.97127 0.0
N1200 N 0.41599 0.54398 0.91457 0.0
N1201 N 0.44862 0.60226 0.85094 0.0
C1202 C 0.41984 0.56043 0.9018 0.0
C1203 C 0.43652 0.5906 0.86641 0.0
N1204 N 0.40764 0.56114 0.75973 0.0
N1205 N 0.43336 0.59851 0.01588 0.0
H1206 H 0.45356 0.60456 0.7898 0.0
H1207 H 0.45521 0.60806 0.90083 0.0
H1208 H 0.42876 0.59673 0.07823 0.0
H1209 H 0.4371 0.61075 0.00283 0.0
H1210 H 0.39942 0.55146 0.7752 0.0
H1211 H 0.40488 0.56701 0.70124 0.0
H1212 H 0.41314 0.53593 0.86357 0.0
H1213 H 0.41763 0.53798 0.97385 0.0
C1214 C 0.66234 0.17923 0.09345 0.0
C1215 C 0.67237 0.19067 0.04613 0.0
C1216 C 0.68983 0.19562 0.17454 0.0
C1217 C 0.67989 0.18407 0.22145 0.0
N1218 N 0.65533 0.16679 0.23238 0.0
N1219 N 0.69431 0.2114 0.04232 0.0
C1220 C 0.66569 0.17647 0.18289 0.0
C1221 C 0.68564 0.19946 0.08719 0.0
N1222 N 0.64981 0.17079 0.05206 0.0
N1223 N 0.70366 0.20246 0.21293 0.0
H1224 H 0.6925 0.21381 0.97675 0.0
H1225 H 0.70276 0.21965 0.07049 0.0
H1226 H 0.70662 0.20062 0.27797 0.0
H1227 H 0.7127 0.20934 0.18024 0.0
H1228 H 0.64327 0.16081 0.07881 0.0
H1229 H 0.64628 0.17342 0.98858 0.0
H1230 H 0.64388 0.16215 0.21141 0.0
H1231 H 0.65768 0.16419 0.29733 0.0
C1232 C 0.9428 0.44591 0.3163 0.0
C1233 C 0.93992 0.42993 0.27905 0.0
C1234 C 0.92966 0.41964 0.41888 0.0
C1235 C 0.93406 0.43516 0.45729 0.0
N1236 N 0.94838 0.4616 0.44686 0.0
N1237 N 0.93321 0.40075 0.29743 0.0
C1238 C 0.94177 0.44783 0.40727 0.0
C1239 C 0.93409 0.41652 0.3311 0.0
N1240 N 0.94548 0.45955 0.26467 0.0
N1241 N 0.9207 0.40816 0.46507 0.0
H1242 H 0.93642 0.39801 0.23358 0.0
H1243 H 0.9307 0.39018 0.33459 0.0
H1244 H 0.91732 0.40997 0.52949 0.0
H1245 H 0.91553 0.39744 0.43777 0.0
H1246 H 0.94593 0.47173 0.28841 0.0
H1247 H 0.94537 0.45903 0.19729 0.0
H1248 H 0.95565 0.47041 0.41436 0.0
H1249 H 0.94809 0.46334 0.51373 0.0
C1250 C 0.33881 0.18868 0.12059 0.0
C1251 C 0.32861 0.18117 0.05609 0.0
C1252 C 0.30877 0.17281 0.16836 0.0
C1253 C 0.32022 0.17783 0.23303 0.0
N1254 N 0.34841 0.18649 0.2682 0.0
N1255 N 0.30643 0.16117 0.02585 0.0
C1256 C 0.33594 0.18461 0.20872 0.0
C1257 C 0.31429 0.17181 0.08182 0.0
N1258 N 0.35068 0.20023 0.09915 0.0
N1259 N 0.29253 0.16928 0.18878 0.0
H1260 H 0.31089 0.15851 0.96415 0.0
H1261 H 0.29675 0.15327 0.04512 0.0
H1262 H 0.28772 0.1707 0.25107 0.0
H1263 H 0.28348 0.16689 0.14184 0.0
H1264 H 0.35737 0.20692 0.14558 0.0
H1265 H 0.35244 0.2046 0.03635 0.0
H1266 H 0.36052 0.19004 0.25115 0.0
H1267 H 0.3472 0.18277 0.33247 0.0
C1268 C 0.54913 0.56386 0.83031 0.0
C1269 C 0.55762 0.57744 0.79005 0.0
C1270 C 0.57159 0.58419 0.92731 0.0
C1271 C 0.56417 0.56984 0.96541 0.0
N1272 N 0.5462 0.54577 0.95591 0.0
N1273 N 0.5771 0.60033 0.79708 0.0
C1274 C 0.55288 0.55971 0.91784 0.0
C1275 C 0.56884 0.58761 0.83792 0.0
N1276 N 0.53761 0.55483 0.78442 0.0
N1277 N 0.58112 0.59461 0.97718 0.0
H1278 H 0.57453 0.60387 0.73353 0.0
H1279 H 0.58693 0.60703 0.82428 0.0
H1280 H 0.58379 0.59217 0.04195 0.0
H1281 H 0.58559 0.60616 0.95672 0.0
H1282 H 0.52953 0.54613 0.81179 0.0
H1283 H 0.53547 0.55645 0.71849 0.0
H1284 H 0.53952 0.53661 0.92302 0.0
H1285 H 0.5479 0.54286 0.0211 0.0
C1286 C 0.16838 0.82518 0.6909 0.0
C1287 C 0.18187 0.81644 0.72975 0.0
C1288 C 0.18642 0.80064 0.59561 0.0
C1289 C 0.17406 0.81061 0.55409 0.0
N1290 N 0.15319 0.83226 0.55967 0.0
N1291 N 0.20408 0.79619 0.72158 0.0
C1292 C 0.16494 0.82279 0.60129 0.0
C1293 C 0.19086 0.80411 0.68305 0.0
N1294 N 0.15875 0.83559 0.74032 0.0
N1295 N 0.19401 0.78794 0.55113 0.0
H1296 H 0.20718 0.79782 0.78658 0.0
H1297 H 0.21254 0.78859 0.68894 0.0
H1298 H 0.19199 0.78565 0.48562 0.0
H1299 H 0.20164 0.77898 0.57972 0.0
H1300 H 0.14775 0.84117 0.71903 0.0
H1301 H 0.16116 0.83784 0.80554 0.0
H1302 H 0.14746 0.84272 0.5864 0.0
H1303 H 0.14952 0.82994 0.4961 0.0
C1304 C 0.93067 0.58478 0.66092 0.0
C1305 C 0.94184 0.57453 0.70867 0.0
C1306 C 0.9465 0.55685 0.58078 0.0
C1307 C 0.93526 0.56706 0.53333 0.0
N1308 N 0.91854 0.59199 0.52158 0.0
N1309 N 0.96194 0.55199 0.71369 0.0
C1310 C 0.92794 0.58145 0.57146 0.0
C1311 C 0.95033 0.56099 0.66819 0.0
N1312 N 0.92245 0.5975 0.70192 0.0
N1313 N 0.95304 0.54284 0.54282 0.0
H1314 H 0.96423 0.5537 0.77942 0.0
H1315 H 0.97 0.54331 0.68599 0.0
H1316 H 0.95123 0.5399 0.47774 0.0
H1317 H 0.95964 0.53363 0.57584 0.0
H1318 H 0.91264 0.60424 0.67475 0.0
H1319 H 0.92503 0.60098 0.76552 0.0
H1320 H 0.91416 0.60357 0.54221 0.0
H1321 H 0.91593 0.58965 0.45665 0.0
C1322 C 0.18362 0.17059 0.42063 0.0
C1323 C 0.16922 0.18001 0.44428 0.0
C1324 C 0.16298 0.18376 0.29058 0.0
C1325 C 0.1789 0.17709 0.26869 0.0
N1326 N 0.2062 0.16834 0.31822 0.0
N1327 N 0.14753 0.19924 0.39796 0.0
C1328 C 0.18982 0.17184 0.33537 0.0
C1329 C 0.15951 0.18769 0.37829 0.0
N1330 N 0.19092 0.15969 0.47729 0.0
N1331 N 0.15083 0.18559 0.22929 0.0
H1332 H 0.14532 0.20349 0.46058 0.0
H1333 H 0.1412 0.20603 0.35054 0.0
H1334 H 0.15239 0.18178 0.16543 0.0
H1335 H 0.13862 0.18909 0.24453 0.0
H1336 H 0.20069 0.15177 0.4594 0.0
H1337 H 0.18587 0.15684 0.53759 0.0
H1338 H 0.21485 0.16573 0.36693 0.0
H1339 H 0.21153 0.17 0.25725 0.0
C1340 C 0.57729 0.4424 0.09173 0.0
C1341 C 0.57194 0.43145 0.02544 0.0
C1342 C 0.5613 0.41223 0.13577 0.0
C1343 C 0.5691 0.42194 0.20132 0.0
N1344 N 0.58956 0.44357 0.23333 0.0
N1345 N 0.5632 0.40342 0.9869 0.0
C1346 C 0.57858 0.43627 0.1771 0.0
C1347 C 0.56518 0.4156 0.04786 0.0
N1348 N 0.58085 0.45875 0.07406 0.0
N1349 N 0.54968 0.40035 0.15601 0.0
H1350 H 0.56694 0.40491 0.92287 0.0
H1351 H 0.55963 0.39125 0.0025 0.0
H1352 H 0.54545 0.39824 0.21877 0.0
H1353 H 0.54281 0.39404 0.10892 0.0
H1354 H 0.58354 0.46743 0.12247 0.0
H1355 H 0.57916 0.46404 0.01297 0.0
H1356 H 0.5975 0.45328 0.21503 0.0
H1357 H 0.59244 0.43855 0.29368 0.0
C1358 C 0.31697 0.82658 0.94197 0.0
C1359 C 0.33142 0.81709 0.96431 0.0
C1360 C 0.33757 0.81411 0.81004 0.0
C1361 C 0.3216 0.82079 0.78917 0.0
N1362 N 0.29431 0.82924 0.84019 0.0
N1363 N 0.35312 0.79816 0.91523 0.0
C1364 C 0.31071 0.82571 0.85664 0.0
C1365 C 0.3411 0.80976 0.8972 0.0
N1366 N 0.30968 0.83723 -0.0001 0.0
N1367 N 0.34968 0.81263 0.74836 0.0
H1368 H 0.35536 0.79359 0.97725 0.0
H1369 H 0.35945 0.79163 0.86687 0.0
H1370 H 0.34807 0.81674 0.685 0.0
H1371 H 0.36191 0.8091 0.76299 0.0
H1372 H 0.29988 0.84519 0.98302 0.0
H1373 H 0.31478 0.83989 0.06032 0.0
H1374 H 0.28569 0.83158 0.88934 0.0
H1375 H 0.28894 0.82786 0.77911 0.0
C1376 C 0.56926 0.08016 0.06313 0.0
C1377 C 0.56487 0.0648 0.02313 0.0
C1378 C 0.5552 0.05378 0.16192 0.0
C1379 C 0.55826 0.06958 0.2009 0.0
N1380 N 0.56556 0.09869 0.18598 0.0
N1381 N 0.55011 0.03855 0.02933 0.0
C1382 C 0.56453 0.08305 0.1507 0.0
C1383 C 0.55669 0.05211 0.07098 0.0
N1384 N 0.57844 0.0917 0.01853 0.0
N1385 N 0.55194 0.04006 0.212 0.0
H1386 H 0.55082 0.03698 0.96243 0.0
H1387 H 0.54251 0.02978 0.05992 0.0
H1388 H 0.55164 0.04038 0.27939 0.0
H1389 H 0.55135 0.02796 0.18725 0.0
H1390 H 0.58363 0.10229 0.04707 0.0
H1391 H 0.58192 0.0901 0.95406 0.0
H1392 H 0.56842 0.10934 0.15021 0.0
H1393 H 0.56211 0.10126 0.24969 0.0
C1394 C 0.19001 0.32751 0.3217 0.0
C1395 C 0.1784 0.32263 0.25752 0.0
C1396 C 0.15999 0.31171 0.37052 0.0
C1397 C 0.17035 0.3191 0.43473 0.0
N1398 N 0.19274 0.3389 0.46453 0.0
N1399 N 0.15015 0.31404 0.22336 0.0
C1400 C 0.18468 0.32841 0.4086 0.0
C1401 C 0.16271 0.31586 0.28238 0.0
N1402 N 0.20622 0.331 0.30045 0.0
N1403 N 0.14811 0.3002 0.39224 0.0
H1404 H 0.15128 0.31778 0.15905 0.0
H1405 H 0.13806 0.31052 0.24082 0.0
H1406 H 0.14645 0.29576 0.45502 0.0
H1407 H 0.1413 0.29359 0.346 0.0
H1408 H 0.21539 0.33326 0.34694 0.0
H1409 H 0.21088 0.32968 0.2378 0.0
H1410 H 0.20241 0.34679 0.44497 0.0
H1411 H 0.18846 0.3415 0.52665 0.0
C1412 C 0.94188 0.94877 0.58527 0.0
C1413 C 0.93382 0.93609 0.53689 0.0
C1414 C 0.93422 0.9177 0.66421 0.0
C1415 C 0.94039 0.93115 0.71494 0.0
N1416 N 0.94651 0.96069 0.72672 0.0
N1417 N 0.92033 0.90915 0.53188 0.0
C1418 C 0.94334 0.94701 0.67628 0.0
C1419 C 0.92948 0.92068 0.57666 0.0
N1420 N 0.94839 0.96242 0.54404 0.0
N1421 N 0.93336 0.902 0.69884 0.0
H1422 H 0.9168 0.91082 0.46754 0.0
H1423 H 0.91518 0.89852 0.56024 0.0
H1424 H 0.93685 0.89935 0.7624 0.0
H1425 H 0.9306 0.89138 0.6626 0.0
H1426 H 0.95593 0.97121 0.5749 0.0
H1427 H 0.94772 0.96407 0.47717 0.0
H1428 H 0.94719 0.9728 0.70216 0.0
H1429 H 0.94666 0.96033 0.79412 0.0
C1430 C 0.33389 0.68308 0.81998 0.0
C1431 C 0.31859 0.67502 0.79932 0.0
C1432 C 0.31494 0.66848 0.95197 0.0
C1433 C 0.32812 0.67966 0.97425 0.0
N1434 N 0.34729 0.70113 0.92337 0.0
N1435 N 0.29239 0.66376 0.85182 0.0
C1436 C 0.33686 0.68801 0.9067 0.0
C1437 C 0.30841 0.66887 0.86714 0.0
N1438 N 0.34597 0.68533 0.75873 0.0
N1439 N 0.3092 0.65682 0.00936 0.0
H1440 H 0.28664 0.6649 0.79155 0.0
H1441 H 0.28427 0.66034 0.90159 0.0
H1442 H 0.3149 0.65453 0.06878 0.0
H1443 H 0.30032 0.64785 0.99245 0.0
H1444 H 0.35776 0.69011 0.7736 0.0
H1445 H 0.34495 0.68056 0.69623 0.0
H1446 H 0.35285 0.70809 0.87406 0.0
H1447 H 0.34866 0.70644 0.9844 0.0
C1448 C 0.57435 0.91767 0.91474 0.0
C1449 C 0.56653 0.93181 0.95267 0.0
C1450 C 0.55143 0.9374 0.81735 0.0
C1451 C 0.56038 0.92414 0.77714 0.0
N1452 N 0.58048 0.90179 0.78448 0.0
N1453 N 0.54798 0.95544 0.94272 0.0
C1454 C 0.57182 0.91425 0.82522 0.0
C1455 C 0.55502 0.94165 0.9049 0.0
N1456 N 0.58406 0.90745 0.96487 0.0
N1457 N 0.53961 0.94604 0.77146 0.0
H1458 H 0.5496 0.95841 0.00787 0.0
H1459 H 0.5411 0.96442 0.90955 0.0
H1460 H 0.53746 0.94427 0.70563 0.0
H1461 H 0.53125 0.95447 0.79886 0.0
H1462 H 0.58883 0.89602 0.94441 0.0
H1463 H 0.58655 0.90989 0.02981 0.0
H1464 H 0.59046 0.89535 0.81195 0.0
H1465 H 0.57808 0.89823 0.7208 0.0
C1466 C 0.31014 0.33019 0.16407 0.0
C1467 C 0.32098 0.32458 0.22971 0.0
C1468 C 0.33961 0.31297 0.11957 0.0
C1469 C 0.32978 0.32051 0.05355 0.0
N1470 N 0.30864 0.3414 0.01986 0.0
N1471 N 0.34891 0.31557 0.26754 0.0
C1472 C 0.31579 0.33056 0.07739 0.0
C1473 C 0.33661 0.3174 0.20712 0.0
N1474 N 0.29436 0.33492 0.18626 0.0
N1475 N 0.35125 0.30106 0.10018 0.0
H1476 H 0.34765 0.31989 0.33076 0.0
H1477 H 0.36096 0.31163 0.25184 0.0
H1478 H 0.35309 0.29643 0.03794 0.0
H1479 H 0.35765 0.29439 0.14778 0.0
H1480 H 0.28507 0.33803 0.14163 0.0
H1481 H 0.28507 0.33803 0.14163 0.0
H1482 H 0.29953 0.35005 0.03768 0.0
H1483 H 0.31329 0.3435 0.95796 0.0
C1484 C 0.94083 0.05027 0.4012 0.0
C1485 C 0.9329 0.06312 0.44894 0.0
C1486 C 0.9335 0.0813 0.32093 0.0
C1487 C 0.93949 0.06769 0.27081 0.0
N1488 N 0.94538 0.03807 0.26032 0.0
N1489 N 0.91981 0.09027 0.45309 0.0
C1490 C 0.94232 0.05187 0.31015 0.0
C1491 C 0.92876 0.07853 0.40863 0.0
N1492 N 0.94717 0.03661 0.44309 0.0
N1493 N 0.93281 0.09695 0.28556 0.0
H1494 H 0.91633 0.08876 0.51762 0.0
H1495 H 0.91478 0.10092 0.42437 0.0
H1496 H 0.93631 0.09945 0.22185 0.0
H1497 H 0.93017 0.10766 0.32128 0.0
H1498 H 0.95462 0.02769 0.41272 0.0
H1499 H 0.94644 0.03508 0.51001 0.0
H1500 H 0.94594 0.026 0.28541 0.0
H1501 H 0.94555 0.03833 0.19291 0.0
C1502 C 0.19689 0.69337 0.57837 0.0
C1503 C 0.18075 0.69076 0.54219 0.0
C1504 C 0.17083 0.68035 0.68251 0.0
C1505 C 0.18644 0.68469 0.72016 0.0
N1506 N 0.21297 0.69882 0.70779 0.0
N1507 N 0.15157 0.68428 0.56287 0.0
C1508 C 0.19904 0.6923 0.66923 0.0
C1509 C 0.16747 0.68495 0.59515 0.0
N1510 N 0.21043 0.69581 0.52581 0.0
N1511 N 0.15947 0.67129 0.72895 0.0
H1512 H 0.14864 0.68766 0.49948 0.0
H1513 H 0.14112 0.68179 0.60092 0.0
H1514 H 0.16151 0.66768 0.79287 0.0
H1515 H 0.14868 0.66619 0.70206 0.0
H1516 H 0.22268 0.69613 0.54873 0.0
H1517 H 0.20973 0.69557 0.4585 0.0
H1518 H 0.22173 0.70601 0.67456 0.0
H1519 H 0.21489 0.69852 0.77453 0.0
C1520 C 0.42303 0.94094 0.90768 0.0
C1521 C 0.42822 0.9302 0.97527 0.0
C1522 C 0.43958 0.91088 0.86738 0.0
C1523 C 0.432 0.92037 0.80023 0.0
N1524 N 0.41138 0.94165 0.7646 0.0
N1525 N 0.43698 0.9023 0.01636 0.0
C1526 C 0.42223 0.93463 0.82248 0.0
C1527 C 0.43522 0.91436 0.95454 0.0
N1528 N 0.41917 0.95728 0.92389 0.0
N1529 N 0.45142 0.89909 0.84938 0.0
H1530 H 0.43286 0.90386 0.07973 0.0
H1531 H 0.44075 0.89014 0.00186 0.0
H1532 H 0.45601 0.89692 0.78733 0.0
H1533 H 0.45812 0.89293 0.89775 0.0
H1534 H 0.41661 0.96582 0.87462 0.0
H1535 H 0.42049 0.96271 0.98484 0.0
H1536 H 0.40323 0.95129 0.78143 0.0
H1537 H 0.4088 0.93646 0.70431 0.0
C1538 C 0.83053 0.67729 0.69098 0.0
C1539 C 0.8152 0.68184 0.73085 0.0
C1540 C 0.80442 0.69182 0.59212 0.0
C1541 C 0.82022 0.68863 0.5534 0.0
N1542 N 0.84922 0.68093 0.56869 0.0
N1543 N 0.78913 0.6969 0.72455 0.0
C1544 C 0.83357 0.6821 0.60365 0.0
C1545 C 0.80265 0.69021 0.68299 0.0
N1546 N 0.84192 0.66788 0.73547 0.0
N1547 N 0.79078 0.6953 0.54184 0.0
H1548 H 0.78746 0.6961 0.79136 0.0
H1549 H 0.78048 0.70465 0.69401 0.0
H1550 H 0.79115 0.69568 0.47447 0.0
H1551 H 0.77866 0.69601 0.56634 0.0
H1552 H 0.85245 0.66258 0.70697 0.0
H1553 H 0.8402 0.66431 0.79974 0.0
H1554 H 0.8598 0.67786 0.60458 0.0
H1555 H 0.8519 0.68444 0.50519 0.0
C1556 C 0.06469 0.08439 0.44861 0.0
C1557 C 0.07151 0.06846 0.46947 0.0
C1558 C 0.07813 0.06429 0.31718 0.0
C1559 C 0.06855 0.07865 0.29444 0.0
N1560 N 0.04901 0.09992 0.3423 0.0
N1561 N 0.08052 0.0414 0.41771 0.0
C1562 C 0.06072 0.08804 0.36111 0.0
C1563 C 0.07688 0.05781 0.40192 0.0
N1564 N 0.06281 0.09638 0.51057 0.0
N1565 N 0.08917 0.05733 0.26021 0.0
H1566 H 0.07883 0.03585 0.47815 0.0
H1567 H 0.08325 0.03295 0.36831 0.0
H1568 H 0.09205 0.06266 0.20055 0.0
H1569 H 0.09718 0.04758 0.27744 0.0
H1570 H 0.05918 0.10859 0.49604 0.0
H1571 H 0.06673 0.09474 0.57419 0.0
H1572 H 0.04214 0.10601 0.39021 0.0
H1573 H 0.0447 0.10223 0.27986 0.0
C1574 C 0.68298 0.32879 0.07301 0.0
C1575 C 0.66852 0.31939 0.05003 0.0
C1576 C 0.66249 0.31576 0.20404 0.0
C1577 C 0.67847 0.32239 0.22527 0.0
N1578 N 0.70572 0.33103 0.17449 0.0
N1579 N 0.64686 0.30024 0.09751 0.0
C1580 C 0.6893 0.32757 0.15806 0.0
C1581 C 0.6589 0.31177 0.11652 0.0
N1582 N 0.6902 0.33966 0.01594 0.0
N1583 N 0.65041 0.31404 0.26573 0.0
H1584 H 0.64456 0.29595 0.03505 0.0
H1585 H 0.64059 0.2935 0.1453 0.0
H1586 H 0.65206 0.31791 0.32943 0.0
H1587 H 0.63818 0.31056 0.25095 0.0
H1588 H 0.70002 0.34755 0.03334 0.0
H1589 H 0.68505 0.34251 0.95587 0.0
H1590 H 0.7143 0.33358 0.12539 0.0
H1591 H 0.71115 0.32937 0.23526 0.0
C1592 C 0.42675 0.08625 0.16337 0.0
C1593 C 0.43899 0.07736 0.21145 0.0
C1594 C 0.44602 0.06058 0.08316 0.0
C1595 C 0.43367 0.06936 0.03553 0.0
N1596 N 0.4141 0.09212 0.02359 0.0
N1597 N 0.46177 0.05753 0.21653 0.0
C1598 C 0.42461 0.08272 0.0737 0.0
C1599 C 0.44918 0.06506 0.17086 0.0
N1600 N 0.41699 0.09785 0.20423 0.0
N1601 N 0.45424 0.04748 0.04521 0.0
H1602 H 0.46373 0.05941 0.28243 0.0
H1603 H 0.47091 0.05001 0.18878 0.0
H1604 H 0.45283 0.04437 0.98009 0.0
H1605 H 0.46189 0.03914 0.07832 0.0
H1606 H 0.40649 0.10339 0.17673 0.0
H1607 H 0.41904 0.10156 0.26798 0.0
H1608 H 0.40831 0.10304 0.04427 0.0
H1609 H 0.41196 0.08957 0.95843 0.0
C1610 C 0.66109 0.68796 0.8867 0.0
C1611 C 0.67119 0.68018 0.9508 0.0
C1612 C 0.6909 0.67177 0.83811 0.0
C1613 C 0.67952 0.67708 0.77372 0.0
N1614 N 0.65145 0.68621 0.739 0.0
N1615 N 0.69306 0.65979 0.98001 0.0
C1616 C 0.6639 0.68403 0.79837 0.0
C1617 C 0.68536 0.67066 0.92457 0.0
N1618 N 0.64937 0.69963 0.90873 0.0
N1619 N 0.70709 0.66805 0.81752 0.0
H1620 H 0.68855 0.65708 0.04157 0.0
H1621 H 0.70262 0.65178 0.96033 0.0
H1622 H 0.71192 0.66954 0.75531 0.0
H1623 H 0.71611 0.66543 0.86434 0.0
H1624 H 0.64278 0.7065 0.86265 0.0
H1625 H 0.64766 0.70389 0.97175 0.0
H1626 H 0.63939 0.68989 0.75623 0.0
H1627 H 0.65261 0.6826 0.67455 0.0
C1628 C 0.06398 0.91176 0.55463 0.0
C1629 C 0.07701 0.92259 0.52947 0.0
C1630 C 0.08544 0.925 0.68146 0.0
C1631 C 0.06976 0.91795 0.70713 0.0
N1632 N 0.04333 0.90562 0.66306 0.0
N1633 N 0.10585 0.92738 0.56711 0.0
C1634 C 0.0589 0.91137 0.64248 0.0
C1635 C 0.08952 0.92596 0.59213 0.0
N1636 N 0.05824 0.90007 0.49797 0.0
N1637 N 0.09665 0.93064 0.74141 0.0
H1638 H 0.10981 0.92422 0.50503 0.0
H1639 H 0.11579 0.92858 0.61014 0.0
H1640 H 0.09589 0.92808 0.80709 0.0
H1641 H 0.10665 0.93841 0.72557 0.0
H1642 H 0.04968 0.89083 0.51538 0.0
H1643 H 0.06398 0.89835 0.43795 0.0
H1644 H 0.03472 0.90204 0.61588 0.0
H1645 H 0.03838 0.90609 0.72531 0.0
C1646 C 0.81395 0.32914 0.40967 0.0
C1647 C 0.82808 0.31953 0.43564 0.0
C1648 C 0.83542 0.31595 0.28314 0.0
C1649 C 0.81981 0.32295 0.25863 0.0
N1650 N 0.79224 0.33194 0.30263 0.0
N1651 N 0.84985 0.30008 0.39286 0.0
C1652 C 0.80843 0.32818 0.32315 0.0
C1653 C 0.83819 0.31183 0.3713 0.0
N1654 N 0.80628 0.33996 0.46538 0.0
N1655 N 0.84789 0.31388 0.22383 0.0
H1656 H 0.8515 0.29567 0.45567 0.0
H1657 H 0.85645 0.29329 0.34651 0.0
H1658 H 0.84677 0.31764 0.15956 0.0
H1659 H 0.85993 0.31014 0.24103 0.0
H1660 H 0.79675 0.34803 0.44586 0.0
H1661 H 0.81079 0.34261 0.527 0.0
H1662 H 0.78322 0.3345 0.34953 0.0
H1663 H 0.78741 0.33054 0.24037 0.0
C1664 C 0.12177 0.64262 0.1034 0.0
C1665 C 0.13828 0.63771 0.12533 0.0
C1666 C 0.13044 0.60816 0.11484 0.0
C1667 C 0.11409 0.61307 0.08964 0.0
N1668 N 0.09448 0.63451 0.04868 0.0
N1669 N 0.15923 0.61627 0.14138 0.0
C1670 C 0.10986 0.63019 0.08034 0.0
C1671 C 0.14288 0.62059 0.12804 0.0
N1672 N 0.11744 0.65915 0.10669 0.0
N1673 N 0.13393 0.5916 0.12788 0.0
H1674 H 0.16857 0.625 0.15473 0.0
H1675 H 0.16383 0.60419 0.13412 0.0
H1676 H 0.12547 0.58206 0.11382 0.0
H1677 H 0.14486 0.58728 0.1567 0.0
H1678 H 0.10523 0.6635 0.10073 0.0
H1679 H 0.12595 0.66862 0.12118 0.0
H1680 H 0.09113 0.64663 0.03157 0.0
H1681 H 0.08529 0.62574 0.03358 0.0
C1682 C 0.63162 0.89289 0.37083 0.0
C1683 C 0.6144 0.88874 0.36744 0.0
C1684 C 0.62126 0.86003 0.32468 0.0
C1685 C 0.63847 0.86386 0.33438 0.0
N1686 N 0.66035 0.88318 0.37325 0.0
N1687 N 0.59247 0.86837 0.35007 0.0
C1688 C 0.64375 0.8801 0.35919 0.0
C1689 C 0.60911 0.8723 0.34667 0.0
N1690 N 0.63633 0.90916 0.38305 0.0
N1691 N 0.6166 0.84473 0.2935 0.0
H1692 H 0.58321 0.87713 0.3642 0.0
H1693 H 0.58785 0.85625 0.34484 0.0
H1694 H 0.62516 0.8353 0.27904 0.0
H1695 H 0.60441 0.84168 0.27608 0.0
H1696 H 0.64855 0.91342 0.37613 0.0
H1697 H 0.62782 0.91877 0.395 0.0
H1698 H 0.66488 0.89405 0.40178 0.0
H1699 H 0.6697 0.87442 0.36055 0.0
C1700 C 0.37935 0.36056 0.65679 0.0
C1701 C 0.36212 0.36474 0.6541 0.0
C1702 C 0.36903 0.39402 0.62347 0.0
C1703 C 0.38619 0.38961 0.62059 0.0
N1704 N 0.40794 0.36878 0.62517 0.0
N1705 N 0.34016 0.38474 0.62747 0.0
C1706 C 0.39143 0.37289 0.63471 0.0
C1707 C 0.35684 0.38129 0.63541 0.0
N1708 N 0.38411 0.34484 0.68152 0.0
N1709 N 0.36445 0.41045 0.61684 0.0
H1710 H 0.33082 0.37598 0.6405 0.0
H1711 H 0.33548 0.39596 0.60351 0.0
H1712 H 0.37295 0.42004 0.60439 0.0
H1713 H 0.3524 0.4148 0.62867 0.0
H1714 H 0.39642 0.34141 0.694 0.0
H1715 H 0.37558 0.33534 0.69542 0.0
H1716 H 0.41242 0.35658 0.62524 0.0
H1717 H 0.41718 0.37758 0.61119 0.0
C1718 C 0.89183 0.12852 0.84305 0.0
C1719 C 0.8867 0.11199 0.86295 0.0
C1720 C 0.85726 0.12031 0.85411 0.0
C1721 C 0.86238 0.13664 0.82986 0.0
N1722 N 0.88409 0.15611 0.79093 0.0
N1723 N 0.86497 0.09132 0.87782 0.0
C1724 C 0.87956 0.14069 0.82114 0.0
C1725 C 0.86952 0.10765 0.86588 0.0
N1726 N 0.90842 0.13263 0.84707 0.0
N1727 N 0.84067 0.11703 0.86743 0.0
H1728 H 0.87357 0.08181 0.89019 0.0
H1729 H 0.85281 0.08693 0.87041 0.0
H1730 H 0.83124 0.12568 0.85457 0.0
H1731 H 0.83623 0.10607 0.89556 0.0
H1732 H 0.91292 0.14479 0.84245 0.0
H1733 H 0.91776 0.12393 0.86111 0.0
H1734 H 0.89627 0.15934 0.77416 0.0
H1735 H 0.87545 0.16549 0.77678 0.0
C1736 C 0.14282 0.38024 0.84948 0.0
C1737 C 0.13732 0.36407 0.82475 0.0
C1738 C 0.10808 0.3727 0.84064 0.0
C1739 C 0.11357 0.38902 0.86246 0.0
N1740 N 0.1357 0.40928 0.87655 0.0
N1741 N 0.11516 0.3452 0.78493 0.0
C1742 C 0.13083 0.39307 0.86368 0.0
C1743 C 0.12005 0.3604 0.81653 0.0
N1744 N 0.15952 0.3832 0.86118 0.0
N1745 N 0.09142 0.36889 0.84515 0.0
H1746 H 0.1236 0.33575 0.76894 0.0
H1747 H 0.10289 0.34225 0.76866 0.0
H1748 H 0.08226 0.37769 0.86039 0.0
H1749 H 0.08667 0.35683 0.83942 0.0
H1750 H 0.16427 0.39399 0.88961 0.0
H1751 H 0.16874 0.37444 0.84632 0.0
H1752 H 0.1479 0.41349 0.86839 0.0
H1753 H 0.1273 0.41889 0.89032 0.0
C1754 C 0.8712 0.89015 0.11289 0.0
C1755 C 0.88835 0.88652 0.12627 0.0
C1756 C 0.88135 0.85795 0.1709 0.0
C1757 C 0.86414 0.86194 0.16295 0.0
N1758 N 0.84237 0.8823 0.14002 0.0
N1759 N 0.90994 0.86799 0.17789 0.0
C1760 C 0.85897 0.87819 0.13765 0.0
C1761 C 0.89349 0.8707 0.15827 0.0
N1762 N 0.86664 0.90496 0.07538 0.0
N1763 N 0.88608 0.84182 0.1872 0.0
H1764 H 0.9193 0.87676 0.16578 0.0
H1765 H 0.91421 0.8575 0.21106 0.0
H1766 H 0.87754 0.8322 0.19836 0.0
H1767 H 0.8984 0.83767 0.18387 0.0
H1768 H 0.85453 0.90761 0.05493 0.0
H1769 H 0.87522 0.91422 0.05862 0.0
H1770 H 0.83788 0.89438 0.13107 0.0
H1771 H 0.83308 0.87386 0.1583 0.0
C1772 C 0.35454 0.61515 0.29764 0.0
C1773 C 0.35015 0.62518 0.36991 0.0
C1774 C 0.36454 0.60518 0.46327 0.0
C1775 C 0.37487 0.6013 0.39135 0.0
N1776 N 0.36754 0.58901 0.25491 0.0
N1777 N 0.33792 0.61723 0.50568 0.0
C1778 C 0.36662 0.60226 0.31013 0.0
C1779 C 0.35125 0.6168 0.45072 0.0
N1780 N 0.34543 0.61608 0.22336 0.0
N1781 N 0.36577 0.5961 0.53754 0.0
H1782 H 0.32669 0.62289 0.48761 0.0
H1783 H 0.33726 0.61064 0.5636 0.0
H1784 H 0.37252 0.58494 0.53984 0.0
H1785 H 0.35995 0.59945 0.59522 0.0
H1786 H 0.34907 0.6105 0.16548 0.0
H1787 H 0.33396 0.62228 0.22136 0.0
H1788 H 0.36117 0.58826 0.19637 0.0
H1789 H 0.37331 0.57786 0.27352 0.0
C1790 C 0.60729 0.12906 0.62153 0.0
C1791 C 0.61209 0.11221 0.60758 0.0
C1792 C 0.64144 0.11941 0.63313 0.0
C1793 C 0.6368 0.13646 0.64046 0.0
N1794 N 0.61589 0.1581 0.63081 0.0
N1795 N 0.63358 0.09144 0.58815 0.0
C1796 C 0.61987 0.14147 0.63182 0.0
C1797 C 0.62914 0.1074 0.60999 0.0
N1798 N 0.59072 0.13311 0.62717 0.0
N1799 N 0.65753 0.11469 0.65047 0.0
H1800 H 0.62487 0.08226 0.57187 0.0
H1801 H 0.6459 0.08759 0.5795 0.0
H1802 H 0.66689 0.12319 0.66704 0.0
H1803 H 0.66135 0.10228 0.65532 0.0
H1804 H 0.5864 0.14477 0.64712 0.0
H1805 H 0.58116 0.12444 0.61756 0.0
H1806 H 0.6041 0.16264 0.61484 0.0
H1807 H 0.62472 0.16752 0.64012 0.0
C1808 C 0.87903 0.35923 0.81802 0.0
C1809 C 0.86192 0.36337 0.82874 0.0
C1810 C 0.8695 0.39136 0.87991 0.0
C1811 C 0.88656 0.38754 0.86475 0.0
N1812 N 0.90775 0.3689 0.80992 0.0
N1813 N 0.84046 0.3838 0.85645 0.0
C1814 C 0.89138 0.37177 0.83085 0.0
C1815 C 0.85704 0.37958 0.85596 0.0
N1816 N 0.88348 0.34314 0.79889 0.0
N1817 N 0.86525 0.40616 0.91839 0.0
H1818 H 0.83101 0.37546 0.83915 0.0
H1819 H 0.83608 0.39588 0.867 0.0
H1820 H 0.87399 0.41535 0.93415 0.0
H1821 H 0.85327 0.40894 0.94028 0.0
H1822 H 0.89574 0.33879 0.80023 0.0
H1823 H 0.87477 0.33372 0.78689 0.0
H1824 H 0.91179 0.35849 0.7754 0.0
H1825 H 0.91728 0.37745 0.82251 0.0
C1826 C 0.36842 0.1076 0.6256 0.0
C1827 C 0.38563 0.11183 0.62549 0.0
C1828 C 0.37894 0.14056 0.66872 0.0
C1829 C 0.36169 0.13664 0.66257 0.0
N1830 N 0.33964 0.11717 0.62863 0.0
N1831 N 0.40756 0.13233 0.638 0.0
C1832 C 0.35632 0.12034 0.63931 0.0
C1833 C 0.39098 0.12832 0.64473 0.0
N1834 N 0.36369 0.09129 0.61467 0.0
N1835 N 0.38375 0.15593 0.69842 0.0
H1836 H 0.41676 0.12359 0.62229 0.0
H1837 H 0.41217 0.14446 0.64201 0.0
H1838 H 0.37525 0.16533 0.71434 0.0
H1839 H 0.39604 0.15908 0.7132 0.0
H1840 H 0.35156 0.08699 0.62414 0.0
H1841 H 0.37216 0.08173 0.60109 0.0
H1842 H 0.33496 0.10624 0.60129 0.0
H1843 H 0.33034 0.12589 0.64299 0.0
C1844 C 0.62959 0.6081 0.38379 0.0
C1845 C 0.6125 0.61276 0.38086 0.0
C1846 C 0.62015 0.64124 0.33738 0.0
C1847 C 0.63725 0.63689 0.34609 0.0
N1848 N 0.65861 0.61695 0.38457 0.0
N1849 N 0.59117 0.63378 0.36419 0.0
C1850 C 0.64208 0.62051 0.37119 0.0
C1851 C 0.60767 0.62935 0.36014 0.0
N1852 N 0.63384 0.59172 0.39649 0.0
N1853 N 0.61588 0.65668 0.30635 0.0
H1854 H 0.58167 0.6253 0.37886 0.0
H1855 H 0.58689 0.64602 0.35899 0.0
H1856 H 0.62469 0.66586 0.2915 0.0
H1857 H 0.60376 0.6601 0.28956 0.0
H1858 H 0.64592 0.58708 0.38917 0.0
H1859 H 0.62507 0.5824 0.40946 0.0
H1860 H 0.66286 0.60597 0.41321 0.0
H1861 H 0.6682 0.62541 0.3712 0.0
C1862 C 0.12288 0.85858 0.13276 0.0
C1863 C 0.13952 0.86418 0.14553 0.0
C1864 C 0.13063 0.89331 0.12781 0.0
C1865 C 0.11414 0.88765 0.11059 0.0
N1866 N 0.09461 0.86521 0.08659 0.0
N1867 N 0.15995 0.88632 0.1463 0.0
C1868 C 0.11028 0.87035 0.11011 0.0
C1869 C 0.1436 0.88141 0.14064 0.0
N1870 N 0.11911 0.84203 0.14384 0.0
N1871 N 0.13378 0.91008 0.13358 0.0
H1872 H 0.1697 0.87806 0.15964 0.0
H1873 H 0.16406 0.89839 0.13292 0.0
H1874 H 0.12483 0.9192 0.11982 0.0
H1875 H 0.14495 0.91507 0.15642 0.0
H1876 H 0.10699 0.83731 0.14485 0.0
H1877 H 0.12811 0.83298 0.15786 0.0
H1878 H 0.09136 0.8528 0.07582 0.0
H1879 H 0.08496 0.87352 0.07189 0.0
C1880 C 0.89194 0.62716 0.11996 0.0
C1881 C 0.88716 0.6101 0.11501 0.0
C1882 C 0.85777 0.61767 0.1378 0.0
C1883 C 0.86265 0.63463 0.14698 0.0
N1884 N 0.8841 0.65573 0.15467 0.0
N1885 N 0.86616 0.58859 0.1258 0.0
C1886 C 0.87968 0.63944 0.14027 0.0
C1887 C 0.87023 0.60521 0.12566 0.0
N1888 N 0.90817 0.63158 0.10397 0.0
N1889 N 0.84116 0.61356 0.13909 0.0
H1890 H 0.87476 0.57915 0.11211 0.0
H1891 H 0.85451 0.58397 0.1437 0.0
H1892 H 0.83174 0.62217 0.15279 0.0
H1893 H 0.83653 0.60185 0.12233 0.0
H1894 H 0.91224 0.64386 0.09692 0.0
H1895 H 0.91762 0.62288 0.09252 0.0
H1896 H 0.89638 0.65985 0.1604 0.0
H1897 H 0.8754 0.66518 0.16615 0.0
C1898 C 0.11956 0.14063 0.85296 0.0
C1899 C 0.13665 0.136 0.84855 0.0
C1900 C 0.12933 0.10672 0.87636 0.0
C1901 C 0.11238 0.11155 0.8865 0.0
N1902 N 0.09131 0.133 0.89502 0.0
N1903 N 0.15834 0.11532 0.86492 0.0
C1904 C 0.10748 0.12851 0.87786 0.0
C1905 C 0.14169 0.11921 0.86267 0.0
N1906 N 0.1149 0.15658 0.83195 0.0
N1907 N 0.13353 0.09014 0.87786 0.0
H1908 H 0.16774 0.12397 0.85118 0.0
H1909 H 0.16296 0.1038 0.88525 0.0
H1910 H 0.12494 0.08069 0.89155 0.0
H1911 H 0.14525 0.0856 0.86058 0.0
H1912 H 0.10253 0.16039 0.82491 0.0
H1913 H 0.12347 0.16587 0.81523 0.0
H1914 H 0.08724 0.14534 0.89893 0.0
H1915 H 0.08207 0.12438 0.91171 0.0
C1916 C 0.62937 0.39333 0.62054 0.0
C1917 C 0.6125 0.3887 0.60548 0.0
C1918 C 0.61923 0.35935 0.63505 0.0
C1919 C 0.63628 0.36383 0.64441 0.0
N1920 N 0.65821 0.38444 0.63682 0.0
N1921 N 0.59143 0.36747 0.58768 0.0
C1922 C 0.64154 0.38066 0.63465 0.0
C1923 C 0.60744 0.37173 0.60956 0.0
N1924 N 0.63366 0.40988 0.62329 0.0
N1925 N 0.6143 0.34331 0.65209 0.0
H1926 H 0.5824 0.37627 0.5704 0.0
H1927 H 0.58734 0.3552 0.58042 0.0
H1928 H 0.62266 0.33388 0.66947 0.0
H1929 H 0.60187 0.33954 0.65534 0.0
H1930 H 0.64525 0.4142 0.64429 0.0
H1931 H 0.62526 0.41949 0.60932 0.0
H1932 H 0.66305 0.39606 0.61982 0.0
H1933 H 0.66743 0.37562 0.65079 0.0
C1934 C 0.39283 0.87013 0.39318 0.0
C1935 C 0.38778 0.88709 0.39852 0.0
C1936 C 0.35854 0.87903 0.37558 0.0
C1937 C 0.36374 0.8622 0.36492 0.0
N1938 N 0.38565 0.84166 0.35306 0.0
N1939 N 0.36646 0.90825 0.38572 0.0
C1940 C 0.38086 0.85773 0.37064 0.0
C1941 C 0.37079 0.89171 0.3872 0.0
N1942 N 0.40904 0.86589 0.41108 0.0
N1943 N 0.34186 0.8828 0.37645 0.0
H1944 H 0.37495 0.91786 0.39807 0.0
H1945 H 0.35471 0.91258 0.36738 0.0
H1946 H 0.33255 0.87399 0.36403 0.0
H1947 H 0.33712 0.89442 0.3943 0.0
H1948 H 0.41321 0.85364 0.41752 0.0
H1949 H 0.41823 0.87471 0.42566 0.0
H1950 H 0.39804 0.8379 0.34693 0.0
H1951 H 0.37716 0.83218 0.33836 0.0
C1952 C 0.08863 0.49272 0.96257 0.0
C1953 C 0.07422 0.48302 0.98116 0.0
C1954 C 0.06263 0.50603 0.06687 0.0
C1955 C 0.07592 0.51649 0.03917 0.0
N1956 N 0.10123 0.52032 0.95683 0.0
N1957 N 0.04585 0.4818 0.03346 0.0
C1958 C 0.08884 0.50997 0.98581 0.0
C1959 C 0.06082 0.49 0.02916 0.0
N1960 N 0.10225 0.48533 0.92533 0.0
N1961 N 0.05156 0.51138 0.12823 0.0
H1962 H 0.04365 0.47065 0.00071 0.0
H1963 H 0.03508 0.48699 0.06017 0.0
H1964 H 0.0521 0.52313 0.15696 0.0
H1965 H 0.04276 0.50354 0.15692 0.0
H1966 H 0.11374 0.49128 0.91809 0.0
H1967 H 0.10247 0.47276 0.90756 0.0
H1968 H 0.10982 0.51693 0.90936 0.0
H1969 H 0.10245 0.53267 0.97766 0.0
C1970 C 0.74171 0.83714 0.23822 0.0
C1971 C 0.73443 0.82386 0.28638 0.0
C1972 C 0.76107 0.80874 0.28454 0.0
C1973 C 0.76866 0.82247 0.24136 0.0
N1974 N 0.76711 0.85073 0.1882 0.0
N1975 N 0.73767 0.79811 0.36688 0.0
C1976 C 0.75922 0.83695 0.22094 0.0
C1977 C 0.7443 0.81008 0.31368 0.0
N1978 N 0.73183 0.84986 0.20847 0.0
N1979 N 0.76958 0.79398 0.29322 0.0
H1980 H 0.72519 0.79783 0.38585 0.0
H1981 H 0.74485 0.78904 0.39781 0.0
H1982 H 0.78184 0.79227 0.27226 0.0
H1983 H 0.76405 0.78288 0.3138 0.0
H1984 H 0.73586 0.8588 0.16416 0.0
H1985 H 0.71924 0.85102 0.22499 0.0
H1986 H 0.76134 0.8623 0.18035 0.0
H1987 H 0.77989 0.851 0.17476 0.0
C1988 C 0.44137 0.51158 0.5255 0.0
C1989 C 0.42749 0.51858 0.48103 0.0
C1990 C 0.41296 0.49157 0.48689 0.0
C1991 C 0.42642 0.48489 0.53598 0.0
N1992 N 0.45257 0.48895 0.61177 0.0
N1993 N 0.39906 0.5163 0.43064 0.0
C1994 C 0.4403 0.49506 0.55872 0.0
C1995 C 0.41301 0.50884 0.46437 0.0
N1996 N 0.45596 0.52044 0.53204 0.0
N1997 N 0.40016 0.48135 0.46152 0.0
H1998 H 0.39864 0.52891 0.41356 0.0
H1999 H 0.38751 0.51039 0.42557 0.0
H2000 H 0.39906 0.46897 0.48206 0.0
H2001 H 0.39108 0.48482 0.41677 0.0
H2002 H 0.46719 0.51532 0.55341 0.0
H2003 H 0.45734 0.53261 0.50921 0.0
H2004 H 0.46175 0.4964 0.63985 0.0
H2005 H 0.45307 0.4766 0.63305 0.0
C2006 C 0.75622 0.18968 0.79473 0.0
C2007 C 0.7662 0.17565 0.77236 0.0
C2008 C 0.74168 0.16171 0.70932 0.0
C2009 C 0.73207 0.17626 0.72575 0.0
N2010 N 0.73067 0.20519 0.76982 0.0
N2011 N 0.76921 0.14895 0.7018 0.0
C2012 C 0.73944 0.19051 0.76514 0.0
C2013 C 0.75915 0.16184 0.7276 0.0
N2014 N 0.7628 0.20233 0.84367 0.0
N2015 N 0.73398 0.14761 0.6791 0.0
H2016 H 0.78181 0.14815 0.71871 0.0
H2017 H 0.76535 0.1395 0.6601 0.0
H2018 H 0.72125 0.14718 0.66443 0.0
H2019 H 0.73984 0.13604 0.67426 0.0
H2020 H 0.7556 0.21177 0.87127 0.0
H2021 H 0.7753 0.2029 0.86224 0.0
H2022 H 0.73595 0.21655 0.78796 0.0
H2023 H 0.7184 0.20647 0.74803 0.0
C2024 C 0.94144 0.49189 0.95188 0.0
C2025 C 0.92731 0.48178 0.97076 0.0
C2026 C 0.91355 0.50559 0.04187 0.0
C2027 C 0.92805 0.51536 0.02697 0.0
N2028 N 0.95696 0.51718 0.98303 0.0
N2029 N 0.90071 0.47806 0.04165 0.0
C2030 C 0.9423 0.50835 0.98586 0.0
C2031 C 0.91361 0.48834 0.01849 0.0
N2032 N 0.95412 0.48578 0.90152 0.0
N2033 N 0.89952 0.51296 0.07502 0.0
H2034 H 0.89982 0.46567 0.02105 0.0
H2035 H 0.89134 0.48146 0.0849 0.0
H2036 H 0.89915 0.52549 0.09364 0.0
H2037 H 0.88795 0.50707 0.07883 0.0
H2038 H 0.96361 0.4932 0.87601 0.0
H2039 H 0.95473 0.47345 0.88006 0.0
H2040 H 0.96833 0.51209 0.96371 0.0
H2041 H 0.95819 0.52927 0.00736 0.0
C2042 C 0.24215 0.16288 0.79284 0.0
C2043 C 0.23207 0.17676 0.76985 0.0
C2044 C 0.25546 0.18917 0.68989 0.0
C2045 C 0.26606 0.17615 0.7198 0.0
N2046 N 0.27009 0.15121 0.80517 0.0
N2047 N 0.23002 0.20484 0.71313 0.0
C2048 C 0.25957 0.16319 0.77316 0.0
C2049 C 0.23895 0.19035 0.72264 0.0
N2050 N 0.23497 0.14916 0.83033 0.0
N2051 N 0.26108 0.20049 0.63031 0.0
H2052 H 0.21802 0.20649 0.73804 0.0
H2053 H 0.2351 0.21584 0.68851 0.0
H2054 H 0.27321 0.20059 0.60597 0.0
H2055 H 0.25327 0.20897 0.59895 0.0
H2056 H 0.24124 0.13792 0.84034 0.0
H2057 H 0.22229 0.14858 0.84587 0.0
H2058 H 0.26664 0.14268 0.85281 0.0
H2059 H 0.28261 0.15028 0.78691 0.0
C2060 C 0.55863 0.49481 0.5493 0.0
C2061 C 0.57285 0.4849 0.5293 0.0
C2062 C 0.58631 0.50907 0.46 0.0
C2063 C 0.57161 0.51857 0.47454 0.0
N2064 N 0.5427 0.51989 0.51888 0.0
N2065 N 0.59952 0.48172 0.45858 0.0
C2066 C 0.5575 0.51131 0.51584 0.0
C2067 C 0.58649 0.49178 0.48241 0.0
N2068 N 0.5461 0.48843 0.59975 0.0
N2069 N 0.60027 0.51673 0.42779 0.0
H2070 H 0.60057 0.4693 0.47848 0.0
H2071 H 0.60884 0.48537 0.41557 0.0
H2072 H 0.60049 0.52931 0.40997 0.0
H2073 H 0.61194 0.51102 0.42427 0.0
H2074 H 0.53651 0.49566 0.62562 0.0
H2075 H 0.54577 0.47608 0.62121 0.0
H2076 H 0.53144 0.51462 0.53867 0.0
H2077 H 0.54123 0.53193 0.49415 0.0
C2078 C 0.26154 0.80785 0.24076 0.0
C2079 C 0.26882 0.82149 0.28596 0.0
C2080 C 0.24195 0.83633 0.28232 0.0
C2081 C 0.23514 0.82327 0.23084 0.0
N2082 N 0.2392 0.79775 0.14948 0.0
N2083 N 0.26687 0.84969 0.33981 0.0
C2084 C 0.24519 0.80944 0.20611 0.0
C2085 C 0.25925 0.83599 0.30453 0.0
N2086 N 0.26994 0.79298 0.23482 0.0
N2087 N 0.23185 0.84904 0.30999 0.0
H2088 H 0.27949 0.84986 0.35687 0.0
H2089 H 0.26108 0.86127 0.34635 0.0
H2090 H 0.21946 0.85035 0.28998 0.0
H2091 H 0.23546 0.85781 0.35611 0.0
H2092 H 0.26451 0.78199 0.21224 0.0
H2093 H 0.28185 0.79111 0.26031 0.0
H2094 H 0.24669 0.78864 0.12091 0.0
H2095 H 0.22706 0.7978 0.12519 0.0
C2096 C 0.55879 0.99027 0.50129 0.0
C2097 C 0.57309 0.98369 0.45883 0.0
C2098 C 0.58663 0.01119 0.465 0.0
C2099 C 0.57291 0.01734 0.51403 0.0
N2100 N 0.54671 0.01237 0.58787 0.0
N2101 N 0.60133 0.98699 0.40778 0.0
C2102 C 0.55927 0.00674 0.53528 0.0
C2103 C 0.5872 0.99393 0.44219 0.0
N2104 N 0.54439 0.98103 0.50522 0.0
N2105 N 0.59907 0.02189 0.44008 0.0
H2106 H 0.60206 0.97446 0.38954 0.0
H2107 H 0.61268 0.99327 0.40255 0.0
H2108 H 0.59964 0.03431 0.46035 0.0
H2109 H 0.60836 0.01875 0.39585 0.0
H2110 H 0.53296 0.9858 0.52589 0.0
H2111 H 0.54338 0.96898 0.48016 0.0
H2112 H 0.53766 0.00458 0.61467 0.0
H2113 H 0.54587 0.02462 0.61015 0.0
C2114 C 0.23939 0.33718 0.7205 0.0
C2115 C 0.23275 0.3242 0.77323 0.0
C2116 C 0.25985 0.30998 0.77217 0.0
C2117 C 0.26687 0.32359 0.72571 0.0
N2118 N 0.26415 0.35123 0.66551 0.0
N2119 N 0.23746 0.29981 0.86276 0.0
C2120 C 0.25686 0.33749 0.70219 0.0
C2121 C 0.24325 0.31116 0.80374 0.0
N2122 N 0.22896 0.34917 0.68777 0.0
N2123 N 0.26873 0.29547 0.78201 0.0
H2124 H 0.22527 0.29972 0.8862 0.0
H2125 H 0.24518 0.29131 0.89456 0.0
H2126 H 0.28078 0.2938 0.75784 0.0
H2127 H 0.26356 0.28446 0.80609 0.0
H2128 H 0.23256 0.35772 0.64051 0.0
H2129 H 0.21638 0.35007 0.70497 0.0
H2130 H 0.25791 0.36248 0.65518 0.0
H2131 H 0.27688 0.35183 0.65104 0.0
C2132 C 0.92043 0.9863 0.93222 0.0
C2133 C 0.923 0.98245 0.02121 0.0
C2134 C 0.91982 0.0123 0.05079 0.0
C2135 C 0.92255 0.01625 0.96208 0.0
N2136 N 0.92934 0.00489 0.81953 0.0
N2137 N 0.92914 0.99406 0.16401 0.0
C2138 C 0.92388 0.00271 0.90247 0.0
C2139 C 0.92376 0.99603 0.0808 0.0
N2140 N 0.91428 0.97464 0.87614 0.0
N2141 N 0.91314 0.02375 0.10638 0.0
H2142 H 0.93454 0.98318 0.18787 0.0
H2143 H 0.93046 0.00417 0.20601 0.0
H2144 H 0.90823 0.03514 0.08544 0.0
H2145 H 0.91029 0.02083 0.17051 0.0
H2146 H 0.91153 0.97747 0.8118 0.0
H2147 H 0.90967 0.96311 0.89664 0.0
H2148 H 0.93116 0.99483 0.7777 0.0
H2149 H 0.93427 0.01598 0.79567 0.0
C2150 C 0.25431 0.68936 0.33329 0.0
C2151 C 0.26517 0.67655 0.30359 0.0
C2152 C 0.242 0.664 0.22132 0.0
C2153 C 0.23182 0.67788 0.24316 0.0
N2154 N 0.22922 0.70538 0.30662 0.0
N2155 N 0.26983 0.65195 0.21637 0.0
C2156 C 0.23819 0.69094 0.29601 0.0
C2157 C 0.25914 0.66396 0.24651 0.0
N2158 N 0.25932 0.70011 0.39694 0.0
N2159 N 0.23512 0.65057 0.17982 0.0
H2160 H 0.28202 0.65056 0.23928 0.0
H2161 H 0.26689 0.64382 0.16608 0.0
H2162 H 0.22261 0.65014 0.16092 0.0
H2163 H 0.24138 0.63931 0.17008 0.0
H2164 H 0.2512 0.7083 0.42822 0.0
H2165 H 0.27117 0.6999 0.42453 0.0
H2166 H 0.23407 0.7161 0.33543 0.0
H2167 H 0.21747 0.70734 0.27941 0.0
C2168 C 0.44035 0.00702 0.55015 0.0
C2169 C 0.42594 0.01673 0.53141 0.0
C2170 C 0.4125 0.99235 0.46393 0.0
C2171 C 0.4273 0.98297 0.47821 0.0
N2172 N 0.45632 0.98194 0.52098 0.0
N2173 N 0.39902 0.01958 0.4628 0.0
C2174 C 0.44147 0.99044 0.51794 0.0
C2175 C 0.41223 0.00967 0.48573 0.0
N2176 N 0.45307 0.01365 0.59851 0.0
N2177 N 0.39853 0.98454 0.43298 0.0
H2178 H 0.39794 0.03203 0.48224 0.0
H2179 H 0.38958 0.01581 0.42082 0.0
H2180 H 0.39835 0.97192 0.41585 0.0
H2181 H 0.38681 0.99015 0.42977 0.0
H2182 H 0.46278 0.00655 0.62431 0.0
H2183 H 0.45353 0.02611 0.61798 0.0
H2184 H 0.46764 0.98736 0.53879 0.0
H2185 H 0.45775 0.96975 0.49857 0.0
C2186 C 0.74406 0.68889 0.31176 0.0
C2187 C 0.73386 0.67508 0.28836 0.0
C2188 C 0.75819 0.66089 0.22468 0.0
C2189 C 0.768 0.67529 0.24173 0.0
N2190 N 0.76985 0.70407 0.28794 0.0
N2191 N 0.7305 0.64852 0.2168 0.0
C2192 C 0.76086 0.68953 0.28228 0.0
C2193 C 0.74073 0.66123 0.24304 0.0
N2194 N 0.73766 0.70154 0.36134 0.0
N2195 N 0.76569 0.64674 0.19379 0.0
H2196 H 0.7179 0.64782 0.23397 0.0
H2197 H 0.73422 0.63909 0.1746 0.0
H2198 H 0.77842 0.64614 0.17924 0.0
H2199 H 0.75967 0.63526 0.18837 0.0
H2200 H 0.74501 0.71077 0.38983 0.0
H2201 H 0.72515 0.70231 0.37947 0.0
H2202 H 0.76475 0.71545 0.30706 0.0
H2203 H 0.78212 0.70525 0.26605 0.0
C2204 C 0.08976 0.99044 0.00403 0.0
C2205 C 0.07506 0.98312 0.03898 0.0
C2206 C 0.05901 0.00807 0.00116 0.0
C2207 C 0.07392 0.01604 0.9738 0.0
N2208 N 0.10384 0.01584 0.95726 0.0
N2209 N 0.04643 0.98604 0.08614 0.0
C2210 C 0.08944 0.00751 0.97733 0.0
C2211 C 0.05994 0.99232 0.04273 0.0
N2212 N 0.1039 0.98099 0.99535 0.0
N2213 N 0.04387 0.01522 0.98337 0.0
H2214 H 0.04655 0.97448 0.11728 0.0
H2215 H 0.03564 0.99294 0.09819 0.0
H2216 H 0.04276 0.02632 0.94841 0.0
H2217 H 0.03247 0.0093 0.9943 0.0
H2218 H 0.11446 0.98495 0.96173 0.0
H2219 H 0.10473 0.96875 0.01835 0.0
H2220 H 0.11574 0.01091 0.96717 0.0
H2221 H 0.1039 0.02818 0.93532 0.0
C2222 C 0.74099 0.33778 0.70637 0.0
C2223 C 0.73132 0.32345 0.72675 0.0
C2224 C 0.75539 0.31074 0.80021 0.0
C2225 C 0.76548 0.3244 0.77338 0.0
N2226 N 0.76857 0.35031 0.69521 0.0
N2227 N 0.7299 0.29501 0.77903 0.0
C2228 C 0.75847 0.33774 0.72459 0.0
C2229 C 0.73865 0.30963 0.77041 0.0
N2230 N 0.73335 0.35162 0.67276 0.0
N2231 N 0.76178 0.29869 0.85367 0.0
H2232 H 0.71763 0.29349 0.75774 0.0
H2233 H 0.73522 0.28384 0.79999 0.0
H2234 H 0.77424 0.29822 0.873 0.0
H2235 H 0.75444 0.28972 0.88436 0.0
H2236 H 0.73929 0.3631 0.66489 0.0
H2237 H 0.72061 0.35203 0.65847 0.0
H2238 H 0.76475 0.35928 0.65056 0.0
H2239 H 0.78115 0.35133 0.71239 0.0
C2240 C 0.00956 0.58667 0.08508 0.0
C2241 C 0.01854 0.57146 0.09222 0.0
C2242 C 0.99241 0.55592 0.11102 0.0
C2243 C 0.98329 0.57091 0.09633 0.0
N2244 N 0.98275 0.60037 0.06337 0.0
N2245 N 0.01874 0.54131 0.0962 0.0
C2246 C 0.99176 0.58626 0.08149 0.0
C2247 C 0.01004 0.55601 0.10152 0.0
N2248 N 0.01809 0.60149 0.08398 0.0
N2249 N 0.98426 0.54153 0.13366 0.0
H2250 H 0.03166 0.5408 0.08773 0.0
H2251 H 0.0131 0.52961 0.09204 0.0
H2252 H 0.9713 0.54044 0.13639 0.0
H2253 H 0.99037 0.53087 0.15595 0.0
H2254 H 0.01236 0.61315 0.08748 0.0
H2255 H 0.03112 0.60211 0.08564 0.0
H2256 H 0.98809 0.61152 0.04235 0.0
H2257 H 0.96972 0.60071 0.0652 0.0
C2258 C 0.66599 0.7411 0.37799 0.0
C2259 C 0.67942 0.73231 0.33883 0.0
C2260 C 0.69346 0.75876 0.30473 0.0
C2261 C 0.67931 0.76755 0.33632 0.0
N2262 N 0.6517 0.76768 0.39817 0.0
N2263 N 0.70574 0.73236 0.26193 0.0
C2264 C 0.66549 0.75889 0.37233 0.0
C2265 C 0.69309 0.74104 0.30122 0.0
N2266 N 0.6538 0.73242 0.42075 0.0
N2267 N 0.70759 0.76737 0.28187 0.0
H2268 H 0.70686 0.71938 0.26452 0.0
H2269 H 0.71478 0.7379 0.2229 0.0
H2270 H 0.70839 0.78037 0.28274 0.0
H2271 H 0.71902 0.76172 0.26856 0.0
H2272 H 0.6446 0.73802 0.45851 0.0
H2273 H 0.65342 0.71939 0.42282 0.0
H2274 H 0.64049 0.76216 0.41689 0.0
H2275 H 0.65108 0.7807 0.3958 0.0
C2276 C 0.49065 0.41641 0.63231 0.0
C2277 C 0.48184 0.42977 0.5928 0.0
C2278 C 0.50817 0.44313 0.5506 0.0
C2279 C 0.51707 0.42996 0.59181 0.0
N2280 N 0.51734 0.40528 0.68124 0.0
N2281 N 0.48172 0.45726 0.52836 0.0
C2282 C 0.50846 0.41697 0.63586 0.0
C2283 C 0.49047 0.44349 0.55548 0.0
N2284 N 0.48198 0.40298 0.66367 0.0
N2285 N 0.51668 0.45533 0.50671 0.0
H2286 H 0.46871 0.45801 0.52976 0.0
H2287 H 0.48726 0.46852 0.51061 0.0
H2288 H 0.52965 0.45657 0.50807 0.0
H2289 H 0.51099 0.46386 0.46523 0.0
H2290 H 0.48757 0.39203 0.68563 0.0
H2291 H 0.46895 0.40235 0.6629 0.0
H2292 H 0.51192 0.39651 0.7223 0.0
H2293 H 0.53037 0.40491 0.68177 0.0
C2294 C 0.80638 0.25896 0.79344 0.0
C2295 C 0.82041 0.26775 0.82638 0.0
C2296 C 0.83385 0.24127 0.86658 0.0
C2297 C 0.82055 0.23251 0.82595 0.0
N2298 N 0.79437 0.23262 0.74773 0.0
N2299 N 0.84789 0.26788 0.88979 0.0
C2300 C 0.80689 0.24126 0.78841 0.0
C2301 C 0.83422 0.25907 0.86245 0.0
N2302 N 0.79223 0.26755 0.77061 0.0
N2303 N 0.84602 0.23254 0.90926 0.0
H2304 H 0.8484 0.28091 0.88872 0.0
H2305 H 0.85911 0.26238 0.90861 0.0
H2306 H 0.8465 0.21951 0.91013 0.0
H2307 H 0.85509 0.23808 0.94803 0.0
H2308 H 0.78086 0.26187 0.75623 0.0
H2309 H 0.79135 0.28055 0.77262 0.0
H2310 H 0.78536 0.23823 0.7088 0.0
H2311 H 0.79335 0.21963 0.74898 0.0
C2312 C 0.99168 0.41556 0.85035 0.0
C2313 C 0.98249 0.42716 0.9008 0.0
C2314 C 0.00837 0.43795 0.96416 0.0
C2315 C 0.01779 0.42725 0.90911 0.0
N2316 N 0.01873 0.40654 0.79587 0.0
N2317 N 0.98206 0.45195 0.98985 0.0
C2318 C 0.00952 0.41631 0.85055 0.0
C2319 C 0.99082 0.43902 0.95349 0.0
N2320 N 0.98335 0.40346 0.80509 0.0
N2321 N 0.01607 0.44711 0.02736 0.0
H2322 H 0.96919 0.45348 0.98281 0.0
H2323 H 0.98773 0.46215 0.01976 0.0
H2324 H 0.02893 0.44758 0.03597 0.0
H2325 H 0.00957 0.45326 0.07631 0.0
H2326 H 0.98922 0.39356 0.77373 0.0
H2327 H 0.97034 0.40268 0.80357 0.0
H2328 H 0.01364 0.39983 0.74459 0.0
H2329 H 0.03171 0.40566 0.79962 0.0
C2330 C 0.83842 0.75708 0.17984 0.0
C2331 C 0.82328 0.76592 0.16629 0.0
C2332 C 0.80817 0.73953 0.14506 0.0
C2333 C 0.82306 0.73062 0.16521 0.0
N2334 N 0.85215 0.73044 0.2061 0.0
N2335 N 0.79336 0.76595 0.14519 0.0
C2336 C 0.83815 0.73928 0.18392 0.0
C2337 C 0.80809 0.75726 0.15029 0.0
N2338 N 0.85311 0.76576 0.18585 0.0
N2339 N 0.79399 0.73107 0.12178 0.0
H2340 H 0.79266 0.77895 0.14621 0.0
H2341 H 0.78161 0.76036 0.14599 0.0
H2342 H 0.79272 0.71813 0.12569 0.0
H2343 H 0.78359 0.73678 0.09406 0.0
H2344 H 0.86485 0.76018 0.18741 0.0
H2345 H 0.85367 0.77879 0.18291 0.0
H2346 H 0.86299 0.73588 0.23033 0.0
H2347 H 0.85271 0.71742 0.20399 0.0
C2348 C 0.48975 0.59013 0.41264 0.0
C2349 C 0.48075 0.57513 0.39767 0.0
C2350 C 0.50703 0.55969 0.37885 0.0
C2351 C 0.51608 0.57441 0.40054 0.0
N2352 N 0.51646 0.60341 0.44279 0.0
N2353 N 0.48055 0.54513 0.37817 0.0
C2354 C 0.50754 0.58958 0.41893 0.0
C2355 C 0.48931 0.55982 0.38282 0.0
N2356 N 0.48125 0.60493 0.41799 0.0
N2357 N 0.51536 0.54544 0.35532 0.0
H2358 H 0.46755 0.54444 0.37908 0.0
H2359 H 0.48609 0.53336 0.38017 0.0
H2360 H 0.52825 0.54395 0.36034 0.0
H2361 H 0.50957 0.53525 0.32607 0.0
H2362 H 0.48699 0.61658 0.42067 0.0
H2363 H 0.46825 0.60565 0.41326 0.0
H2364 H 0.51106 0.6143 0.46669 0.0
H2365 H 0.5295 0.60377 0.44254 0.0
C2366 C 0.66194 0.24077 0.67744 0.0
C2367 C 0.67693 0.23209 0.65711 0.0
C2368 C 0.6917 0.25872 0.63743 0.0
C2369 C 0.67656 0.2674 0.6545 0.0
N2370 N 0.64684 0.26718 0.67841 0.0
N2371 N 0.70571 0.23251 0.60864 0.0
C2372 C 0.66154 0.25855 0.67132 0.0
C2373 C 0.69165 0.24099 0.6337 0.0
N2374 N 0.64812 0.23198 0.70295 0.0
N2375 N 0.70639 0.26741 0.62999 0.0
H2376 H 0.70705 0.21959 0.6133 0.0
H2377 H 0.71588 0.23818 0.5786 0.0
H2378 H 0.70709 0.28042 0.63016 0.0
H2379 H 0.71814 0.26183 0.62993 0.0
H2380 H 0.63742 0.23749 0.72849 0.0
H2381 H 0.64759 0.21895 0.70245 0.0
H2382 H 0.63515 0.26155 0.6823 0.0
H2383 H 0.6462 0.28019 0.67388 0.0
C2384 C 0.33742 0.25943 0.6714 0.0
C2385 C 0.32221 0.26825 0.65869 0.0
C2386 C 0.30664 0.24189 0.65601 0.0
C2387 C 0.32193 0.23301 0.66313 0.0
N2388 N 0.352 0.23275 0.66683 0.0
N2389 N 0.29264 0.26804 0.62559 0.0
C2390 C 0.33739 0.24162 0.66784 0.0
C2391 C 0.30693 0.25951 0.6463 0.0
N2392 N 0.35179 0.26811 0.68781 0.0
N2393 N 0.29177 0.23354 0.66353 0.0
H2394 H 0.29193 0.28103 0.62245 0.0
H2395 H 0.28169 0.26221 0.60524 0.0
H2396 H 0.29101 0.22065 0.67245 0.0
H2397 H 0.28023 0.23947 0.66908 0.0
H2398 H 0.36294 0.26251 0.70701 0.0
H2399 H 0.35237 0.28114 0.68662 0.0
H2400 H 0.36376 0.23821 0.66154 0.0
H2401 H 0.35231 0.21971 0.66518 0.0
C2402 C 0.19347 0.74229 0.16324 0.0
C2403 C 0.17795 0.73374 0.15839 0.0
C2404 C 0.163 0.76053 0.15567 0.0
C2405 C 0.17843 0.7689 0.16857 0.0
N2406 N 0.20794 0.76786 0.20041 0.0
N2407 N 0.14784 0.73417 0.15706 0.0
C2408 C 0.19356 0.75981 0.17651 0.0
C2409 C 0.16265 0.74271 0.15666 0.0
N2410 N 0.20817 0.73369 0.15448 0.0
N2411 N 0.14883 0.76964 0.14082 0.0
H2412 H 0.14722 0.72115 0.15401 0.0
H2413 H 0.13624 0.73986 0.16509 0.0
H2414 H 0.14871 0.78269 0.14142 0.0
H2415 H 0.13747 0.76439 0.1224 0.0
H2416 H 0.21974 0.73949 0.14753 0.0
H2417 H 0.20878 0.72076 0.1468 0.0
H2418 H 0.21895 0.76169 0.21681 0.0
H2419 H 0.20849 0.7807 0.21182 0.0
C2420 C 0.19225 0.25858 0.83585 0.0
C2421 C 0.17692 0.26738 0.82902 0.0
C2422 C 0.1615 0.24088 0.82446 0.0
C2423 C 0.17677 0.23216 0.83699 0.0
N2424 N 0.20641 0.23259 0.86806 0.0
N2425 N 0.14684 0.26753 0.82739 0.0
C2426 C 0.19204 0.24099 0.8474 0.0
C2427 C 0.16147 0.25871 0.82626 0.0
N2428 N 0.20707 0.26694 0.82644 0.0
N2429 N 0.14711 0.2321 0.80988 0.0
H2430 H 0.14649 0.28058 0.82757 0.0
H2431 H 0.13511 0.26206 0.83412 0.0
H2432 H 0.14658 0.21908 0.81243 0.0
H2433 H 0.1359 0.2376 0.79087 0.0
H2434 H 0.21861 0.26103 0.82071 0.0
H2435 H 0.20776 0.2798 0.81612 0.0
H2436 H 0.2174 0.23854 0.88692 0.0
H2437 H 0.20715 0.21962 0.87279 0.0
C2438 C 0.30903 0.73951 0.39674 0.0
C2439 C 0.32358 0.73033 0.37337 0.0
C2440 C 0.33898 0.75661 0.3516 0.0
C2441 C 0.32402 0.76565 0.36718 0.0
N2442 N 0.29423 0.76587 0.39307 0.0
N2443 N 0.3522 0.72974 0.32471 0.0
C2444 C 0.30895 0.75717 0.3878 0.0
C2445 C 0.33852 0.73879 0.34968 0.0
N2446 N 0.2951 0.7314 0.42629 0.0
N2447 N 0.35368 0.76512 0.34141 0.0
H2448 H 0.35268 0.71673 0.32835 0.0
H2449 H 0.36282 0.735 0.29685 0.0
H2450 H 0.35436 0.77815 0.34273 0.0
H2451 H 0.36534 0.7594 0.33811 0.0
H2452 H 0.28518 0.73745 0.45668 0.0
H2453 H 0.29366 0.71849 0.42539 0.0
H2454 H 0.28251 0.76024 0.39552 0.0
H2455 H 0.29343 0.77883 0.38793 0.0
C2456 C 0.50783 0.08489 0.62823 0.0
C2457 C 0.51643 0.07169 0.58619 0.0
C2458 C 0.48987 0.05869 0.54477 0.0
C2459 C 0.48119 0.07164 0.58889 0.0
N2460 N 0.48137 0.09598 0.68058 0.0
N2461 N 0.51618 0.04461 0.51752 0.0
C2462 C 0.49003 0.0844 0.63339 0.0
C2463 C 0.50759 0.05823 0.54774 0.0
N2464 N 0.51669 0.09813 0.66043 0.0
N2465 N 0.48115 0.0468 0.49972 0.0
H2466 H 0.52919 0.04383 0.51718 0.0
H2467 H 0.51052 0.03347 0.49876 0.0
H2468 H 0.46817 0.04565 0.50182 0.0
H2469 H 0.48665 0.0385 0.45644 0.0
H2470 H 0.51124 0.10899 0.68434 0.0
H2471 H 0.52971 0.09869 0.65856 0.0
H2472 H 0.48696 0.10455 0.72208 0.0
H2473 H 0.46834 0.09648 0.68182 0.0
C2474 C 0.00921 0.91679 0.14166 0.0
C2475 C 0.01789 0.92933 0.09469 0.0
C2476 C 0.99134 0.94201 0.05012 0.0
C2477 C 0.98263 0.92975 0.09902 0.0
N2478 N 0.98277 0.90678 0.1997 0.0
N2479 N 0.01762 0.95571 0.01847 0.0
C2480 C 0.99144 0.91757 0.14779 0.0
C2481 C 0.00906 0.94241 0.05252 0.0
N2482 N 0.01795 0.90378 0.17717 0.0
N2483 N 0.98263 0.95325 0.00075 0.0
H2484 H 0.03062 0.95653 0.01803 0.0
H2485 H 0.01191 0.96663 0.99679 0.0
H2486 H 0.96965 0.95448 0.00284 0.0
H2487 H 0.98815 0.96084 0.95409 0.0
H2488 H 0.01239 0.89333 0.20502 0.0
H2489 H 0.03095 0.90285 0.17371 0.0
H2490 H 0.98838 0.89877 0.24414 0.0
H2491 H 0.96975 0.9065 0.20207 0.0
C2492 C 0.50962 0.94289 0.36989 0.0
C2493 C 0.51859 0.92817 0.39266 0.0
C2494 C 0.49215 0.91304 0.41372 0.0
C2495 C 0.48329 0.92809 0.39787 0.0
N2496 N 0.48332 0.95785 0.37085 0.0
N2497 N 0.51884 0.89949 0.44065 0.0
C2498 C 0.49194 0.9431 0.37756 0.0
C2499 C 0.50997 0.9133 0.41597 0.0
N2500 N 0.51798 0.9568 0.34177 0.0
N2501 N 0.48348 0.89842 0.42349 0.0
H2502 H 0.53185 0.89883 0.43717 0.0
H2503 H 0.51346 0.88892 0.46832 0.0
H2504 H 0.47045 0.89786 0.4217 0.0
H2505 H 0.48907 0.8867 0.4268 0.0
H2506 H 0.51213 0.9669 0.3119 0.0
H2507 H 0.53092 0.95811 0.3436 0.0
H2508 H 0.489 0.96955 0.3688 0.0
H2509 H 0.47034 0.95868 0.37365 0.0
C2510 C 0.00846 0.08144 0.84466 0.0
C2511 C 0.01668 0.06997 0.90076 0.0
C2512 C 0.98979 0.057 0.93682 0.0
C2513 C 0.98148 0.06944 0.88773 0.0
N2514 N 0.98224 0.09419 0.79941 0.0
N2515 N 0.01503 0.04807 0.00881 0.0
C2516 C 0.99063 0.08179 0.84213 0.0
C2517 C 0.0073 0.05815 0.94952 0.0
N2518 N 0.01772 0.09206 0.79458 0.0
N2519 N 0.98098 0.04365 0.96842 0.0
H2520 H 0.02791 0.04764 0.01786 0.0
H2521 H 0.00857 0.04089 0.05401 0.0
H2522 H 0.96813 0.04221 0.95971 0.0
H2523 H 0.98657 0.03315 0.99591 0.0
H2524 H 0.01272 0.09933 0.74508 0.0
H2525 H 0.03068 0.09309 0.79988 0.0
H2526 H 0.988 0.1046 0.77223 0.0
H2527 H 0.96922 0.09457 0.7954 0.0
loop_
_geom_bond_atom_site_label_1
_geom_bond_atom_site_label_2
_geom_bond_distance
_geom_bond_site_symmetry_2
_ccdc_geom_bond_type
Co0 O3 1.970 1_556 S
Co0 N17 1.989 1_556 S
Co0 O25 1.967 . S
Co0 O32 1.920 . S
Co1 O4 1.966 . S
Co1 N10 2.022 . S
Co1 N18 1.993 . S
Co1 O26 1.941 . S
C2 O3 1.258 . S
C2 O4 1.263 . S
O3 Co0 1.970 1_554 S
O3 C2 1.258 . S
O4 Co1 1.966 . S
O4 C2 1.263 . S
C5 O6 1.235 . S
C5 O32 1.289 . S
O6 C5 1.235 . S
C7 C9 1.400 . S
C7 N10 1.351 . S
C7 C12 1.501 . S
C8 C9 1.387 . S
C8 N11 1.341 . S
C9 C7 1.400 . S
C9 C8 1.387 . S
N10 Co1 2.022 . S
N10 C7 1.351 . S
N10 N11 1.365 . S
N11 C8 1.341 . S
N11 N10 1.365 . S
N11 H31 0.862 . S
C12 C7 1.501 . S
C12 H13 0.961 . S
C12 H14 0.961 . S
C12 H15 0.960 . S
H13 C12 0.961 . S
H14 C12 0.961 . S
H15 C12 0.960 . S
C16 N17 1.342 . S
C16 C20 1.401 . S
C16 C21 1.499 1_554 S
N17 Co0 1.989 1_554 S
N17 C16 1.342 . S
N17 N18 1.388 . S
N18 Co1 1.993 . S
N18 N17 1.388 . S
N18 C19 1.346 . S
C19 N18 1.346 . S
C19 C20 1.396 . S
C19 C29 1.510 . S
C20 C16 1.401 . S
C20 C19 1.396 . S
C21 C16 1.499 1_556 S
C21 H22 0.959 . S
C21 H23 0.960 . S
C21 H24 0.961 . S
H22 C21 0.959 . S
H23 C21 0.960 . S
H24 C21 0.961 . S
O25 Co0 1.967 . S
O25 C33 1.258 1_556 S
O26 Co1 1.941 . S
O26 C33 1.266 . S
H27 C29 0.959 . S
H28 C29 0.961 . S
C29 C19 1.510 . S
C29 H27 0.959 . S
C29 H28 0.961 . S
C29 H30 0.960 . S
H30 C29 0.960 . S
H31 N11 0.862 . S
O32 Co0 1.920 . S
O32 C5 1.289 . S
C33 O25 1.258 1_554 S
C33 O26 1.266 . S
Co34 O37 1.970 . S
Co34 N51 1.989 . S
Co34 O59 1.967 . S
Co34 O66 1.920 . S
Co35 O38 1.966 . S
Co35 N44 2.022 . S
Co35 N52 1.993 . S
Co35 O60 1.941 . S
C36 O37 1.258 . S
C36 O38 1.263 . S
O37 Co34 1.970 . S
O37 C36 1.258 . S
O38 Co35 1.966 . S
O38 C36 1.263 . S
C39 O40 1.235 . S
C39 O66 1.289 . S
O40 C39 1.235 . S
C41 C43 1.400 . S
C41 N44 1.351 . S
C41 C46 1.501 . S
C42 C43 1.387 . S
C42 N45 1.341 . S
C43 C41 1.400 . S
C43 C42 1.387 . S
N44 Co35 2.022 . S
N44 C41 1.351 . S
N44 N45 1.365 . S
N45 C42 1.341 . S
N45 N44 1.365 . S
N45 H65 0.862 . S
C46 C41 1.501 . S
C46 H47 0.961 . S
C46 H48 0.961 . S
C46 H49 0.960 . S
H47 C46 0.961 . S
H48 C46 0.961 . S
H49 C46 0.960 . S
C50 N51 1.342 . S
C50 C54 1.401 . S
C50 C55 1.499 . S
N51 Co34 1.989 . S
N51 C50 1.342 . S
N51 N52 1.388 . S
N52 Co35 1.993 . S
N52 N51 1.388 . S
N52 C53 1.346 . S
C53 N52 1.346 . S
C53 C54 1.396 . S
C53 C63 1.510 . S
C54 C50 1.401 . S
C54 C53 1.396 . S
C55 C50 1.499 . S
C55 H56 0.959 . S
C55 H57 0.960 . S
C55 H58 0.961 . S
H56 C55 0.959 . S
H57 C55 0.960 . S
H58 C55 0.961 . S
O59 Co34 1.967 . S
O59 C67 1.258 . S
O60 Co35 1.941 . S
O60 C67 1.266 . S
H61 C63 0.959 . S
H62 C63 0.961 . S
C63 C53 1.510 . S
C63 H61 0.959 . S
C63 H62 0.961 . S
C63 H64 0.960 . S
H64 C63 0.960 . S
H65 N45 0.862 . S
O66 Co34 1.920 . S
O66 C39 1.289 . S
C67 O59 1.258 . S
C67 O60 1.266 . S
Co68 O71 1.970 . S
Co68 N85 1.989 . S
Co68 O93 1.967 . S
Co68 O100 1.920 . S
Co69 O72 1.966 . S
Co69 N78 2.022 . S
Co69 N86 1.993 . S
Co69 O94 1.941 . S
C70 O71 1.258 . S
C70 O72 1.263 . S
O71 Co68 1.970 . S
O71 C70 1.258 . S
O72 Co69 1.966 . S
O72 C70 1.263 . S
C73 O74 1.235 . S
C73 O100 1.289 . S
O74 C73 1.235 . S
C75 C77 1.400 . S
C75 N78 1.351 . S
C75 C80 1.501 . S
C76 C77 1.387 . S
C76 N79 1.341 . S
C77 C75 1.400 . S
C77 C76 1.387 . S
N78 Co69 2.022 . S
N78 C75 1.351 . S
N78 N79 1.365 . S
N79 C76 1.341 . S
N79 N78 1.365 . S
N79 H99 0.862 . S
C80 C75 1.501 . S
C80 H81 0.961 . S
C80 H82 0.961 . S
C80 H83 0.960 . S
H81 C80 0.961 . S
H82 C80 0.961 . S
H83 C80 0.960 . S
C84 N85 1.342 . S
C84 C88 1.401 . S
C84 C89 1.499 . S
N85 Co68 1.989 . S
N85 C84 1.342 . S
N85 N86 1.388 . S
N86 Co69 1.993 . S
N86 N85 1.388 . S
N86 C87 1.346 . S
C87 N86 1.346 . S
C87 C88 1.396 . S
C87 C97 1.510 . S
C88 C84 1.401 . S
C88 C87 1.396 . S
C89 C84 1.499 . S
C89 H90 0.959 . S
C89 H91 0.960 . S
C89 H92 0.961 . S
H90 C89 0.959 . S
H91 C89 0.960 . S
H92 C89 0.961 . S
O93 Co68 1.967 . S
O93 C101 1.258 . S
O94 Co69 1.941 . S
O94 C101 1.266 . S
H95 C97 0.959 . S
H96 C97 0.961 . S
C97 C87 1.510 . S
C97 H95 0.959 . S
C97 H96 0.961 . S
C97 H98 0.960 . S
H98 C97 0.960 . S
H99 N79 0.862 . S
O100 Co68 1.920 . S
O100 C73 1.289 . S
C101 O93 1.258 . S
C101 O94 1.266 . S
Co102 O105 1.970 . S
Co102 N119 1.989 . S
Co102 O127 1.967 . S
Co102 O134 1.920 . S
Co103 O106 1.966 . S
Co103 N112 2.022 1_556 S
Co103 N120 1.993 . S
Co103 O128 1.941 . S
C104 O105 1.258 . S
C104 O106 1.263 . S
O105 Co102 1.970 . S
O105 C104 1.258 . S
O106 Co103 1.966 . S
O106 C104 1.263 . S
C107 O108 1.235 . S
C107 O134 1.289 . S
O108 C107 1.235 . S
C109 C111 1.400 . S
C109 N112 1.351 . S
C109 C114 1.501 . S
C110 C111 1.387 . S
C110 N113 1.341 . S
C111 C109 1.400 . S
C111 C110 1.387 . S
N112 Co103 2.022 1_554 S
N112 C109 1.351 . S
N112 N113 1.365 . S
N113 C110 1.341 . S
N113 N112 1.365 . S
N113 H133 0.862 . S
C114 C109 1.501 . S
C114 H115 0.961 . S
C114 H116 0.961 . S
C114 H117 0.960 . S
H115 C114 0.961 . S
H116 C114 0.961 . S
H117 C114 0.960 . S
C118 N119 1.342 . S
C118 C122 1.401 . S
C118 C123 1.499 . S
N119 Co102 1.989 . S
N119 C118 1.342 . S
N119 N120 1.388 . S
N120 Co103 1.993 . S
N120 N119 1.388 . S
N120 C121 1.346 . S
C121 N120 1.346 . S
C121 C122 1.396 . S
C121 C131 1.510 1_556 S
C122 C118 1.401 . S
C122 C121 1.396 . S
C123 C118 1.499 . S
C123 H124 0.959 . S
C123 H125 0.960 . S
C123 H126 0.961 . S
H124 C123 0.959 . S
H125 C123 0.960 . S
H126 C123 0.961 . S
O127 Co102 1.967 . S
O127 C135 1.258 . S
O128 Co103 1.941 . S
O128 C135 1.266 . S
H129 C131 0.959 . S
H130 C131 0.961 . S
C131 C121 1.510 1_554 S
C131 H129 0.959 . S
C131 H130 0.961 . S
C131 H132 0.960 . S
H132 C131 0.960 . S
H133 N113 0.862 . S
O134 Co102 1.920 . S
O134 C107 1.289 . S
C135 O127 1.258 . S
C135 O128 1.266 . S
Co136 O139 1.970 1_554 S
Co136 N153 1.989 1_554 S
Co136 O161 1.967 . S
Co136 O168 1.920 . S
Co137 O140 1.966 . S
Co137 N146 2.022 . S
Co137 N154 1.993 . S
Co137 O162 1.941 . S
C138 O139 1.258 . S
C138 O140 1.263 . S
O139 Co136 1.970 1_556 S
O139 C138 1.258 . S
O140 Co137 1.966 . S
O140 C138 1.263 . S
C141 O142 1.235 . S
C141 O168 1.289 . S
O142 C141 1.235 . S
C143 C145 1.400 . S
C143 N146 1.351 . S
C143 C148 1.501 . S
C144 C145 1.387 . S
C144 N147 1.341 . S
C145 C143 1.400 . S
C145 C144 1.387 . S
N146 Co137 2.022 . S
N146 C143 1.351 . S
N146 N147 1.365 . S
N147 C144 1.341 . S
N147 N146 1.365 . S
N147 H167 0.862 . S
C148 C143 1.501 . S
C148 H149 0.961 . S
C148 H150 0.961 . S
C148 H151 0.960 . S
H149 C148 0.961 . S
H150 C148 0.961 . S
H151 C148 0.960 . S
C152 N153 1.342 . S
C152 C156 1.401 . S
C152 C157 1.499 1_556 S
N153 Co136 1.989 1_556 S
N153 C152 1.342 . S
N153 N154 1.388 . S
N154 Co137 1.993 . S
N154 N153 1.388 . S
N154 C155 1.346 . S
C155 N154 1.346 . S
C155 C156 1.396 . S
C155 C165 1.510 . S
C156 C152 1.401 . S
C156 C155 1.396 . S
C157 C152 1.499 1_554 S
C157 H158 0.959 . S
C157 H159 0.960 . S
C157 H160 0.961 . S
H158 C157 0.959 . S
H159 C157 0.960 . S
H160 C157 0.961 . S
O161 Co136 1.967 . S
O161 C169 1.258 1_554 S
O162 Co137 1.941 . S
O162 C169 1.266 . S
H163 C165 0.959 . S
H164 C165 0.961 . S
C165 C155 1.510 . S
C165 H163 0.959 . S
C165 H164 0.961 . S
C165 H166 0.960 . S
H166 C165 0.960 . S
H167 N147 0.862 . S
O168 Co136 1.920 . S
O168 C141 1.289 . S
C169 O161 1.258 1_556 S
C169 O162 1.266 . S
Co170 O173 1.970 . S
Co170 N187 1.989 . S
Co170 O195 1.967 . S
Co170 O202 1.920 . S
Co171 O174 1.966 . S
Co171 N180 2.022 1_554 S
Co171 N188 1.993 . S
Co171 O196 1.941 . S
C172 O173 1.258 . S
C172 O174 1.263 . S
O173 Co170 1.970 . S
O173 C172 1.258 . S
O174 Co171 1.966 . S
O174 C172 1.263 . S
C175 O176 1.235 . S
C175 O202 1.289 . S
O176 C175 1.235 . S
C177 C179 1.400 . S
C177 N180 1.351 . S
C177 C182 1.501 . S
C178 C179 1.387 . S
C178 N181 1.341 . S
C179 C177 1.400 . S
C179 C178 1.387 . S
N180 Co171 2.022 1_556 S
N180 C177 1.351 . S
N180 N181 1.365 . S
N181 C178 1.341 . S
N181 N180 1.365 . S
N181 H201 0.862 . S
C182 C177 1.501 . S
C182 H183 0.961 . S
C182 H184 0.961 . S
C182 H185 0.960 . S
H183 C182 0.961 . S
H184 C182 0.961 . S
H185 C182 0.960 . S
C186 N187 1.342 . S
C186 C190 1.401 . S
C186 C191 1.499 . S
N187 Co170 1.989 . S
N187 C186 1.342 . S
N187 N188 1.388 . S
N188 Co171 1.993 . S
N188 N187 1.388 . S
N188 C189 1.346 . S
C189 N188 1.346 . S
C189 C190 1.396 . S
C189 C199 1.510 1_554 S
C190 C186 1.401 . S
C190 C189 1.396 . S
C191 C186 1.499 . S
C191 H192 0.959 . S
C191 H193 0.960 . S
C191 H194 0.961 . S
H192 C191 0.959 . S
H193 C191 0.960 . S
H194 C191 0.961 . S
O195 Co170 1.967 . S
O195 C203 1.258 . S
O196 Co171 1.941 . S
O196 C203 1.266 . S
H197 C199 0.959 . S
H198 C199 0.961 . S
C199 C189 1.510 1_556 S
C199 H197 0.959 . S
C199 H198 0.961 . S
C199 H200 0.960 . S
H200 C199 0.960 . S
H201 N181 0.862 . S
O202 Co170 1.920 . S
O202 C175 1.289 . S
C203 O195 1.258 . S
C203 O196 1.266 . S
Co204 O207 1.970 . S
Co204 N221 1.989 . S
Co204 O229 1.967 . S
Co204 O236 1.920 . S
Co205 O208 1.966 . S
Co205 N214 2.022 . S
Co205 N222 1.993 . S
Co205 O230 1.941 . S
C206 O207 1.258 . S
C206 O208 1.263 . S
O207 Co204 1.970 . S
O207 C206 1.258 . S
O208 Co205 1.966 . S
O208 C206 1.263 . S
C209 O210 1.235 . S
C209 O236 1.289 . S
O210 C209 1.235 . S
C211 C213 1.400 . S
C211 N214 1.351 . S
C211 C216 1.501 . S
C212 C213 1.387 . S
C212 N215 1.341 . S
C213 C211 1.400 . S
C213 C212 1.387 . S
N214 Co205 2.022 . S
N214 C211 1.351 . S
N214 N215 1.365 . S
N215 C212 1.341 . S
N215 N214 1.365 . S
N215 H235 0.862 . S
C216 C211 1.501 . S
C216 H217 0.961 . S
C216 H218 0.961 . S
C216 H219 0.960 . S
H217 C216 0.961 . S
H218 C216 0.961 . S
H219 C216 0.960 . S
C220 N221 1.342 . S
C220 C224 1.401 . S
C220 C225 1.499 . S
N221 Co204 1.989 . S
N221 C220 1.342 . S
N221 N222 1.388 . S
N222 Co205 1.993 . S
N222 N221 1.388 . S
N222 C223 1.346 . S
C223 N222 1.346 . S
C223 C224 1.396 . S
C223 C233 1.510 . S
C224 C220 1.401 . S
C224 C223 1.396 . S
C225 C220 1.499 . S
C225 H226 0.959 . S
C225 H227 0.960 . S
C225 H228 0.961 . S
H226 C225 0.959 . S
H227 C225 0.960 . S
H228 C225 0.961 . S
O229 Co204 1.967 . S
O229 C237 1.258 . S
O230 Co205 1.941 . S
O230 C237 1.266 . S
H231 C233 0.959 . S
H232 C233 0.961 . S
C233 C223 1.510 . S
C233 H231 0.959 . S
C233 H232 0.961 . S
C233 H234 0.960 . S
H234 C233 0.960 . S
H235 N215 0.862 . S
O236 Co204 1.920 . S
O236 C209 1.289 . S
C237 O229 1.258 . S
C237 O230 1.266 . S
Co238 O241 1.970 . S
Co238 N255 1.989 . S
Co238 O263 1.967 . S
Co238 O270 1.920 . S
Co239 O242 1.966 . S
Co239 N248 2.022 . S
Co239 N256 1.993 . S
Co239 O264 1.941 . S
C240 O241 1.258 . S
C240 O242 1.263 . S
O241 Co238 1.970 . S
O241 C240 1.258 . S
O242 Co239 1.966 . S
O242 C240 1.263 . S
C243 O244 1.235 . S
C243 O270 1.289 . S
O244 C243 1.235 . S
C245 C247 1.400 . S
C245 N248 1.351 . S
C245 C250 1.501 . S
C246 C247 1.387 . S
C246 N249 1.341 . S
C247 C245 1.400 . S
C247 C246 1.387 . S
N248 Co239 2.022 . S
N248 C245 1.351 . S
N248 N249 1.365 . S
N249 C246 1.341 . S
N249 N248 1.365 . S
N249 H269 0.862 . S
C250 C245 1.501 . S
C250 H251 0.961 . S
C250 H252 0.961 . S
C250 H253 0.960 . S
H251 C250 0.961 . S
H252 C250 0.961 . S
H253 C250 0.960 . S
C254 N255 1.342 . S
C254 C258 1.401 . S
C254 C259 1.499 . S
N255 Co238 1.989 . S
N255 C254 1.342 . S
N255 N256 1.388 . S
N256 Co239 1.993 . S
N256 N255 1.388 . S
N256 C257 1.346 . S
C257 N256 1.346 . S
C257 C258 1.396 . S
C257 C267 1.510 . S
C258 C254 1.401 . S
C258 C257 1.396 . S
C259 C254 1.499 . S
C259 H260 0.959 . S
C259 H261 0.960 . S
C259 H262 0.961 . S
H260 C259 0.959 . S
H261 C259 0.960 . S
H262 C259 0.961 . S
O263 Co238 1.967 . S
O263 C271 1.258 . S
O264 Co239 1.941 . S
O264 C271 1.266 . S
H265 C267 0.959 . S
H266 C267 0.961 . S
C267 C257 1.510 . S
C267 H265 0.959 . S
C267 H266 0.961 . S
C267 H268 0.960 . S
H268 C267 0.960 . S
H269 N249 0.862 . S
O270 Co238 1.920 . S
O270 C243 1.289 . S
C271 O263 1.258 . S
C271 O264 1.266 . S
Co272 O275 1.970 1_554 S
Co272 N289 1.989 1_554 S
Co272 O297 1.967 . S
Co272 O304 1.920 . S
Co273 O276 1.966 . S
Co273 N282 2.022 . S
Co273 N290 1.993 . S
Co273 O298 1.941 . S
C274 O275 1.258 . S
C274 O276 1.263 . S
O275 Co272 1.970 1_556 S
O275 C274 1.258 . S
O276 Co273 1.966 . S
O276 C274 1.263 . S
C277 O278 1.235 . S
C277 O304 1.289 . S
O278 C277 1.235 . S
C279 C281 1.400 . S
C279 N282 1.351 . S
C279 C284 1.501 . S
C280 C281 1.387 . S
C280 N283 1.341 . S
C281 C279 1.400 . S
C281 C280 1.387 . S
N282 Co273 2.022 . S
N282 C279 1.351 . S
N282 N283 1.365 . S
N283 C280 1.341 . S
N283 N282 1.365 . S
N283 H303 0.862 . S
C284 C279 1.501 . S
C284 H285 0.961 . S
C284 H286 0.961 . S
C284 H287 0.960 . S
H285 C284 0.961 . S
H286 C284 0.961 . S
H287 C284 0.960 . S
C288 N289 1.342 . S
C288 C292 1.401 . S
C288 C293 1.499 1_556 S
N289 Co272 1.989 1_556 S
N289 C288 1.342 . S
N289 N290 1.388 . S
N290 Co273 1.993 . S
N290 N289 1.388 . S
N290 C291 1.346 . S
C291 N290 1.346 . S
C291 C292 1.396 . S
C291 C301 1.510 . S
C292 C288 1.401 . S
C292 C291 1.396 . S
C293 C288 1.499 1_554 S
C293 H294 0.959 . S
C293 H295 0.960 . S
C293 H296 0.961 . S
H294 C293 0.959 . S
H295 C293 0.960 . S
H296 C293 0.961 . S
O297 Co272 1.967 . S
O297 C305 1.258 1_554 S
O298 Co273 1.941 . S
O298 C305 1.266 . S
H299 C301 0.959 . S
H300 C301 0.961 . S
C301 C291 1.510 . S
C301 H299 0.959 . S
C301 H300 0.961 . S
C301 H302 0.960 . S
H302 C301 0.960 . S
H303 N283 0.862 . S
O304 Co272 1.920 . S
O304 C277 1.289 . S
C305 O297 1.258 1_556 S
C305 O298 1.266 . S
Co306 O309 1.970 . S
Co306 N323 1.989 . S
Co306 O331 1.967 . S
Co306 O338 1.920 . S
Co307 O310 1.966 . S
Co307 N316 2.022 . S
Co307 N324 1.993 . S
Co307 O332 1.941 . S
C308 O309 1.258 . S
C308 O310 1.263 . S
O309 Co306 1.970 . S
O309 C308 1.258 . S
O310 Co307 1.966 . S
O310 C308 1.263 . S
C311 O312 1.235 . S
C311 O338 1.289 . S
O312 C311 1.235 . S
C313 C315 1.400 . S
C313 N316 1.351 . S
C313 C318 1.501 . S
C314 C315 1.387 . S
C314 N317 1.341 . S
C315 C313 1.400 . S
C315 C314 1.387 . S
N316 Co307 2.022 . S
N316 C313 1.351 . S
N316 N317 1.365 . S
N317 C314 1.341 . S
N317 N316 1.365 . S
N317 H337 0.862 . S
C318 C313 1.501 . S
C318 H319 0.961 . S
C318 H320 0.961 . S
C318 H321 0.960 . S
H319 C318 0.961 . S
H320 C318 0.961 . S
H321 C318 0.960 . S
C322 N323 1.342 . S
C322 C326 1.401 . S
C322 C327 1.499 . S
N323 Co306 1.989 . S
N323 C322 1.342 . S
N323 N324 1.388 . S
N324 Co307 1.993 . S
N324 N323 1.388 . S
N324 C325 1.346 . S
C325 N324 1.346 . S
C325 C326 1.396 . S
C325 C335 1.510 . S
C326 C322 1.401 . S
C326 C325 1.396 . S
C327 C322 1.499 . S
C327 H328 0.959 . S
C327 H329 0.960 . S
C327 H330 0.961 . S
H328 C327 0.959 . S
H329 C327 0.960 . S
H330 C327 0.961 . S
O331 Co306 1.967 . S
O331 C339 1.258 . S
O332 Co307 1.941 . S
O332 C339 1.266 . S
H333 C335 0.959 . S
H334 C335 0.961 . S
C335 C325 1.510 . S
C335 H333 0.959 . S
C335 H334 0.961 . S
C335 H336 0.960 . S
H336 C335 0.960 . S
H337 N317 0.862 . S
O338 Co306 1.920 . S
O338 C311 1.289 . S
C339 O331 1.258 . S
C339 O332 1.266 . S
Co340 O343 1.970 . S
Co340 N357 1.989 . S
Co340 O365 1.967 . S
Co340 O372 1.920 . S
Co341 O344 1.966 . S
Co341 N350 2.022 . S
Co341 N358 1.993 . S
Co341 O366 1.941 . S
C342 O343 1.258 . S
C342 O344 1.263 . S
O343 Co340 1.970 . S
O343 C342 1.258 . S
O344 Co341 1.966 . S
O344 C342 1.263 . S
C345 O346 1.235 . S
C345 O372 1.289 . S
O346 C345 1.235 . S
C347 C349 1.400 . S
C347 N350 1.351 . S
C347 C352 1.501 . S
C348 C349 1.387 . S
C348 N351 1.341 . S
C349 C347 1.400 . S
C349 C348 1.387 . S
N350 Co341 2.022 . S
N350 C347 1.351 . S
N350 N351 1.365 . S
N351 C348 1.341 . S
N351 N350 1.365 . S
N351 H371 0.862 . S
C352 C347 1.501 . S
C352 H353 0.961 . S
C352 H354 0.961 . S
C352 H355 0.960 . S
H353 C352 0.961 . S
H354 C352 0.961 . S
H355 C352 0.960 . S
C356 N357 1.342 . S
C356 C360 1.401 . S
C356 C361 1.499 . S
N357 Co340 1.989 . S
N357 C356 1.342 . S
N357 N358 1.388 . S
N358 Co341 1.993 . S
N358 N357 1.388 . S
N358 C359 1.346 . S
C359 N358 1.346 . S
C359 C360 1.396 . S
C359 C369 1.510 . S
C360 C356 1.401 . S
C360 C359 1.396 . S
C361 C356 1.499 . S
C361 H362 0.959 . S
C361 H363 0.960 . S
C361 H364 0.961 . S
H362 C361 0.959 . S
H363 C361 0.960 . S
H364 C361 0.961 . S
O365 Co340 1.967 . S
O365 C373 1.258 . S
O366 Co341 1.941 . S
O366 C373 1.266 . S
H367 C369 0.959 . S
H368 C369 0.961 . S
C369 C359 1.510 . S
C369 H367 0.959 . S
C369 H368 0.961 . S
C369 H370 0.960 . S
H370 C369 0.960 . S
H371 N351 0.862 . S
O372 Co340 1.920 . S
O372 C345 1.289 . S
C373 O365 1.258 . S
C373 O366 1.266 . S
Co374 O377 1.970 . S
Co374 N391 1.989 . S
Co374 O399 1.967 . S
Co374 O406 1.920 . S
Co375 O378 1.966 . S
Co375 N384 2.022 1_554 S
Co375 N392 1.993 . S
Co375 O400 1.941 . S
C376 O377 1.258 . S
C376 O378 1.263 . S
O377 Co374 1.970 . S
O377 C376 1.258 . S
O378 Co375 1.966 . S
O378 C376 1.263 . S
C379 O380 1.235 . S
C379 O406 1.289 . S
O380 C379 1.235 . S
C381 C383 1.400 . S
C381 N384 1.351 . S
C381 C386 1.501 . S
C382 C383 1.387 . S
C382 N385 1.341 . S
C383 C381 1.400 . S
C383 C382 1.387 . S
N384 Co375 2.022 1_556 S
N384 C381 1.351 . S
N384 N385 1.365 . S
N385 C382 1.341 . S
N385 N384 1.365 . S
N385 H405 0.862 . S
C386 C381 1.501 . S
C386 H387 0.961 . S
C386 H388 0.961 . S
C386 H389 0.960 . S
H387 C386 0.961 . S
H388 C386 0.961 . S
H389 C386 0.960 . S
C390 N391 1.342 . S
C390 C394 1.401 . S
C390 C395 1.499 . S
N391 Co374 1.989 . S
N391 C390 1.342 . S
N391 N392 1.388 . S
N392 Co375 1.993 . S
N392 N391 1.388 . S
N392 C393 1.346 . S
C393 N392 1.346 . S
C393 C394 1.396 . S
C393 C403 1.510 1_554 S
C394 C390 1.401 . S
C394 C393 1.396 . S
C395 C390 1.499 . S
C395 H396 0.959 . S
C395 H397 0.960 . S
C395 H398 0.961 . S
H396 C395 0.959 . S
H397 C395 0.960 . S
H398 C395 0.961 . S
O399 Co374 1.967 . S
O399 C407 1.258 . S
O400 Co375 1.941 . S
O400 C407 1.266 . S
H401 C403 0.959 . S
H402 C403 0.961 . S
C403 C393 1.510 1_556 S
C403 H401 0.959 . S
C403 H402 0.961 . S
C403 H404 0.960 . S
H404 C403 0.960 . S
H405 N385 0.862 . S
O406 Co374 1.920 . S
O406 C379 1.289 . S
C407 O399 1.258 . S
C407 O400 1.266 . S
Co408 O411 1.970 1_556 S
Co408 N425 1.989 1_556 S
Co408 O433 1.967 . S
Co408 O440 1.920 . S
Co409 O412 1.966 . S
Co409 N418 2.022 . S
Co409 N426 1.993 . S
Co409 O434 1.941 . S
C410 O411 1.258 . S
C410 O412 1.263 . S
O411 Co408 1.970 1_554 S
O411 C410 1.258 . S
O412 Co409 1.966 . S
O412 C410 1.263 . S
C413 O414 1.235 . S
C413 O440 1.289 . S
O414 C413 1.235 . S
C415 C417 1.400 . S
C415 N418 1.351 . S
C415 C420 1.501 . S
C416 C417 1.387 . S
C416 N419 1.341 . S
C417 C415 1.400 . S
C417 C416 1.387 . S
N418 Co409 2.022 . S
N418 C415 1.351 . S
N418 N419 1.365 . S
N419 C416 1.341 . S
N419 N418 1.365 . S
N419 H439 0.862 . S
C420 C415 1.501 . S
C420 H421 0.961 . S
C420 H422 0.961 . S
C420 H423 0.960 . S
H421 C420 0.961 . S
H422 C420 0.961 . S
H423 C420 0.960 . S
C424 N425 1.342 . S
C424 C428 1.401 . S
C424 C429 1.499 1_554 S
N425 Co408 1.989 1_554 S
N425 C424 1.342 . S
N425 N426 1.388 . S
N426 Co409 1.993 . S
N426 N425 1.388 . S
N426 C427 1.346 . S
C427 N426 1.346 . S
C427 C428 1.396 . S
C427 C437 1.510 . S
C428 C424 1.401 . S
C428 C427 1.396 . S
C429 C424 1.499 1_556 S
C429 H430 0.959 . S
C429 H431 0.960 . S
C429 H432 0.961 . S
H430 C429 0.959 . S
H431 C429 0.960 . S
H432 C429 0.961 . S
O433 Co408 1.967 . S
O433 C441 1.258 1_556 S
O434 Co409 1.941 . S
O434 C441 1.266 . S
H435 C437 0.959 . S
H436 C437 0.961 . S
C437 C427 1.510 . S
C437 H435 0.959 . S
C437 H436 0.961 . S
C437 H438 0.960 . S
H438 C437 0.960 . S
H439 N419 0.862 . S
O440 Co408 1.920 . S
O440 C413 1.289 . S
C441 O433 1.258 1_554 S
C441 O434 1.266 . S
Co442 O445 1.970 . S
Co442 N459 1.989 . S
Co442 O467 1.967 . S
Co442 O474 1.920 . S
Co443 O446 1.966 . S
Co443 N452 2.022 1_556 S
Co443 N460 1.993 . S
Co443 O468 1.941 . S
C444 O445 1.258 . S
C444 O446 1.263 . S
O445 Co442 1.970 . S
O445 C444 1.258 . S
O446 Co443 1.966 . S
O446 C444 1.263 . S
C447 O448 1.235 . S
C447 O474 1.289 . S
O448 C447 1.235 . S
C449 C451 1.400 . S
C449 N452 1.351 . S
C449 C454 1.501 . S
C450 C451 1.387 . S
C450 N453 1.341 . S
C451 C449 1.400 . S
C451 C450 1.387 . S
N452 Co443 2.022 1_554 S
N452 C449 1.351 . S
N452 N453 1.365 . S
N453 C450 1.341 . S
N453 N452 1.365 . S
N453 H473 0.862 . S
C454 C449 1.501 . S
C454 H455 0.961 . S
C454 H456 0.961 . S
C454 H457 0.960 . S
H455 C454 0.961 . S
H456 C454 0.961 . S
H457 C454 0.960 . S
C458 N459 1.342 . S
C458 C462 1.401 . S
C458 C463 1.499 . S
N459 Co442 1.989 . S
N459 C458 1.342 . S
N459 N460 1.388 . S
N460 Co443 1.993 . S
N460 N459 1.388 . S
N460 C461 1.346 . S
C461 N460 1.346 . S
C461 C462 1.396 . S
C461 C471 1.510 1_556 S
C462 C458 1.401 . S
C462 C461 1.396 . S
C463 C458 1.499 . S
C463 H464 0.959 . S
C463 H465 0.960 . S
C463 H466 0.961 . S
H464 C463 0.959 . S
H465 C463 0.960 . S
H466 C463 0.961 . S
O467 Co442 1.967 . S
O467 C475 1.258 . S
O468 Co443 1.941 . S
O468 C475 1.266 . S
H469 C471 0.959 . S
H470 C471 0.961 . S
C471 C461 1.510 1_554 S
C471 H469 0.959 . S
C471 H470 0.961 . S
C471 H472 0.960 . S
H472 C471 0.960 . S
H473 N453 0.862 . S
O474 Co442 1.920 . S
O474 C447 1.289 . S
C475 O467 1.258 . S
C475 O468 1.266 . S
Co476 O479 1.970 . S
Co476 N493 1.989 . S
Co476 O501 1.967 . S
Co476 O508 1.920 . S
Co477 O480 1.966 . S
Co477 N486 2.022 . S
Co477 N494 1.993 . S
Co477 O502 1.941 . S
C478 O479 1.258 . S
C478 O480 1.263 . S
O479 Co476 1.970 . S
O479 C478 1.258 . S
O480 Co477 1.966 . S
O480 C478 1.263 . S
C481 O482 1.235 . S
C481 O508 1.289 . S
O482 C481 1.235 . S
C483 C485 1.400 . S
C483 N486 1.351 . S
C483 C488 1.501 . S
C484 C485 1.387 . S
C484 N487 1.341 . S
C485 C483 1.400 . S
C485 C484 1.387 . S
N486 Co477 2.022 . S
N486 C483 1.351 . S
N486 N487 1.365 . S
N487 C484 1.341 . S
N487 N486 1.365 . S
N487 H507 0.862 . S
C488 C483 1.501 . S
C488 H489 0.961 . S
C488 H490 0.961 . S
C488 H491 0.960 . S
H489 C488 0.961 . S
H490 C488 0.961 . S
H491 C488 0.960 . S
C492 N493 1.342 . S
C492 C496 1.401 . S
C492 C497 1.499 . S
N493 Co476 1.989 . S
N493 C492 1.342 . S
N493 N494 1.388 . S
N494 Co477 1.993 . S
N494 N493 1.388 . S
N494 C495 1.346 . S
C495 N494 1.346 . S
C495 C496 1.396 . S
C495 C505 1.510 . S
C496 C492 1.401 . S
C496 C495 1.396 . S
C497 C492 1.499 . S
C497 H498 0.959 . S
C497 H499 0.960 . S
C497 H500 0.961 . S
H498 C497 0.959 . S
H499 C497 0.960 . S
H500 C497 0.961 . S
O501 Co476 1.967 . S
O501 C509 1.258 . S
O502 Co477 1.941 . S
O502 C509 1.266 . S
H503 C505 0.959 . S
H504 C505 0.961 . S
C505 C495 1.510 . S
C505 H503 0.959 . S
C505 H504 0.961 . S
C505 H506 0.960 . S
H506 C505 0.960 . S
H507 N487 0.862 . S
O508 Co476 1.920 . S
O508 C481 1.289 . S
C509 O501 1.258 . S
C509 O502 1.266 . S
Co510 O513 1.970 . S
Co510 N527 1.989 . S
Co510 O535 1.967 . S
Co510 O542 1.920 . S
Co511 O514 1.966 . S
Co511 N520 2.022 . S
Co511 N528 1.993 . S
Co511 O536 1.941 . S
C512 O513 1.258 . S
C512 O514 1.263 . S
O513 Co510 1.970 . S
O513 C512 1.258 . S
O514 Co511 1.966 . S
O514 C512 1.263 . S
C515 O516 1.235 . S
C515 O542 1.289 . S
O516 C515 1.235 . S
C517 C519 1.400 . S
C517 N520 1.351 . S
C517 C522 1.501 . S
C518 C519 1.387 . S
C518 N521 1.341 . S
C519 C517 1.400 . S
C519 C518 1.387 . S
N520 Co511 2.022 . S
N520 C517 1.351 . S
N520 N521 1.365 . S
N521 C518 1.341 . S
N521 N520 1.365 . S
N521 H541 0.862 . S
C522 C517 1.501 . S
C522 H523 0.961 . S
C522 H524 0.961 . S
C522 H525 0.960 . S
H523 C522 0.961 . S
H524 C522 0.961 . S
H525 C522 0.960 . S
C526 N527 1.342 . S
C526 C530 1.401 . S
C526 C531 1.499 . S
N527 Co510 1.989 . S
N527 C526 1.342 . S
N527 N528 1.388 . S
N528 Co511 1.993 . S
N528 N527 1.388 . S
N528 C529 1.346 . S
C529 N528 1.346 . S
C529 C530 1.396 . S
C529 C539 1.510 . S
C530 C526 1.401 . S
C530 C529 1.396 . S
C531 C526 1.499 . S
C531 H532 0.959 . S
C531 H533 0.960 . S
C531 H534 0.961 . S
H532 C531 0.959 . S
H533 C531 0.960 . S
H534 C531 0.961 . S
O535 Co510 1.967 . S
O535 C543 1.258 . S
O536 Co511 1.941 . S
O536 C543 1.266 . S
H537 C539 0.959 . S
H538 C539 0.961 . S
C539 C529 1.510 . S
C539 H537 0.959 . S
C539 H538 0.961 . S
C539 H540 0.960 . S
H540 C539 0.960 . S
H541 N521 0.862 . S
O542 Co510 1.920 . S
O542 C515 1.289 . S
C543 O535 1.258 . S
C543 O536 1.266 . S
Co544 O547 1.970 . S
Co544 N561 1.989 . S
Co544 O569 1.967 . S
Co544 O576 1.920 . S
Co545 O548 1.966 . S
Co545 N554 2.022 . S
Co545 N562 1.993 . S
Co545 O570 1.941 . S
C546 O547 1.258 . S
C546 O548 1.263 . S
O547 Co544 1.970 . S
O547 C546 1.258 . S
O548 Co545 1.966 . S
O548 C546 1.263 . S
C549 O550 1.235 . S
C549 O576 1.289 . S
O550 C549 1.235 . S
C551 C553 1.400 . S
C551 N554 1.351 . S
C551 C556 1.501 . S
C552 C553 1.387 . S
C552 N555 1.341 . S
C553 C551 1.400 . S
C553 C552 1.387 . S
N554 Co545 2.022 . S
N554 C551 1.351 . S
N554 N555 1.365 . S
N555 C552 1.341 . S
N555 N554 1.365 . S
N555 H575 0.862 . S
C556 C551 1.501 . S
C556 H557 0.961 . S
C556 H558 0.961 . S
C556 H559 0.960 . S
H557 C556 0.961 . S
H558 C556 0.961 . S
H559 C556 0.960 . S
C560 N561 1.342 . S
C560 C564 1.401 . S
C560 C565 1.499 . S
N561 Co544 1.989 . S
N561 C560 1.342 . S
N561 N562 1.388 . S
N562 Co545 1.993 . S
N562 N561 1.388 . S
N562 C563 1.346 . S
C563 N562 1.346 . S
C563 C564 1.396 . S
C563 C573 1.510 . S
C564 C560 1.401 . S
C564 C563 1.396 . S
C565 C560 1.499 . S
C565 H566 0.959 . S
C565 H567 0.960 . S
C565 H568 0.961 . S
H566 C565 0.959 . S
H567 C565 0.960 . S
H568 C565 0.961 . S
O569 Co544 1.967 . S
O569 C577 1.258 . S
O570 Co545 1.941 . S
O570 C577 1.266 . S
H571 C573 0.959 . S
H572 C573 0.961 . S
C573 C563 1.510 . S
C573 H571 0.959 . S
C573 H572 0.961 . S
C573 H574 0.960 . S
H574 C573 0.960 . S
H575 N555 0.862 . S
O576 Co544 1.920 . S
O576 C549 1.289 . S
C577 O569 1.258 . S
C577 O570 1.266 . S
Co578 O581 1.970 . S
Co578 N595 1.989 . S
Co578 O603 1.967 . S
Co578 O610 1.920 . S
Co579 O582 1.966 . S
Co579 N588 2.022 1_556 S
Co579 N596 1.993 . S
Co579 O604 1.941 . S
C580 O581 1.258 . S
C580 O582 1.263 . S
O581 Co578 1.970 . S
O581 C580 1.258 . S
O582 Co579 1.966 . S
O582 C580 1.263 . S
C583 O584 1.235 . S
C583 O610 1.289 . S
O584 C583 1.235 . S
C585 C587 1.400 . S
C585 N588 1.351 . S
C585 C590 1.501 . S
C586 C587 1.387 . S
C586 N589 1.341 . S
C587 C585 1.400 . S
C587 C586 1.387 . S
N588 Co579 2.022 1_554 S
N588 C585 1.351 . S
N588 N589 1.365 . S
N589 C586 1.341 . S
N589 N588 1.365 . S
N589 H609 0.862 . S
C590 C585 1.501 . S
C590 H591 0.961 . S
C590 H592 0.961 . S
C590 H593 0.960 . S
H591 C590 0.961 . S
H592 C590 0.961 . S
H593 C590 0.960 . S
C594 N595 1.342 . S
C594 C598 1.401 . S
C594 C599 1.499 . S
N595 Co578 1.989 . S
N595 C594 1.342 . S
N595 N596 1.388 . S
N596 Co579 1.993 . S
N596 N595 1.388 . S
N596 C597 1.346 . S
C597 N596 1.346 . S
C597 C598 1.396 . S
C597 C607 1.510 1_556 S
C598 C594 1.401 . S
C598 C597 1.396 . S
C599 C594 1.499 . S
C599 H600 0.959 . S
C599 H601 0.960 . S
C599 H602 0.961 . S
H600 C599 0.959 . S
H601 C599 0.960 . S
H602 C599 0.961 . S
O603 Co578 1.967 . S
O603 C611 1.258 . S
O604 Co579 1.941 . S
O604 C611 1.266 . S
H605 C607 0.959 . S
H606 C607 0.961 . S
C607 C597 1.510 1_554 S
C607 H605 0.959 . S
C607 H606 0.961 . S
C607 H608 0.960 . S
H608 C607 0.960 . S
H609 N589 0.862 . S
O610 Co578 1.920 . S
O610 C583 1.289 . S
C611 O603 1.258 . S
C611 O604 1.266 . S
Co612 O615 1.970 1_556 S
Co612 N629 1.989 1_556 S
Co612 O637 1.967 . S
Co612 O644 1.920 . S
Co613 O616 1.966 . S
Co613 N622 2.022 . S
Co613 N630 1.993 . S
Co613 O638 1.941 . S
C614 O615 1.258 . S
C614 O616 1.263 . S
O615 Co612 1.970 1_554 S
O615 C614 1.258 . S
O616 Co613 1.966 . S
O616 C614 1.263 . S
C617 O618 1.235 . S
C617 O644 1.289 . S
O618 C617 1.235 . S
C619 C621 1.400 . S
C619 N622 1.351 . S
C619 C624 1.501 . S
C620 C621 1.387 . S
C620 N623 1.341 . S
C621 C619 1.400 . S
C621 C620 1.387 . S
N622 Co613 2.022 . S
N622 C619 1.351 . S
N622 N623 1.365 . S
N623 C620 1.341 . S
N623 N622 1.365 . S
N623 H643 0.862 . S
C624 C619 1.501 . S
C624 H625 0.961 . S
C624 H626 0.961 . S
C624 H627 0.960 . S
H625 C624 0.961 . S
H626 C624 0.961 . S
H627 C624 0.960 . S
C628 N629 1.342 . S
C628 C632 1.401 . S
C628 C633 1.499 1_554 S
N629 Co612 1.989 1_554 S
N629 C628 1.342 . S
N629 N630 1.388 . S
N630 Co613 1.993 . S
N630 N629 1.388 . S
N630 C631 1.346 . S
C631 N630 1.346 . S
C631 C632 1.396 . S
C631 C641 1.510 . S
C632 C628 1.401 . S
C632 C631 1.396 . S
C633 C628 1.499 1_556 S
C633 H634 0.959 . S
C633 H635 0.960 . S
C633 H636 0.961 . S
H634 C633 0.959 . S
H635 C633 0.960 . S
H636 C633 0.961 . S
O637 Co612 1.967 . S
O637 C645 1.258 1_556 S
O638 Co613 1.941 . S
O638 C645 1.266 . S
H639 C641 0.959 . S
H640 C641 0.961 . S
C641 C631 1.510 . S
C641 H639 0.959 . S
C641 H640 0.961 . S
C641 H642 0.960 . S
H642 C641 0.960 . S
H643 N623 0.862 . S
O644 Co612 1.920 . S
O644 C617 1.289 . S
C645 O637 1.258 1_554 S
C645 O638 1.266 . S
Co646 O649 1.970 . S
Co646 N663 1.989 . S
Co646 O671 1.967 . S
Co646 O678 1.920 . S
Co647 O650 1.966 . S
Co647 N656 2.022 . S
Co647 N664 1.993 . S
Co647 O672 1.941 . S
C648 O649 1.258 . S
C648 O650 1.263 . S
O649 Co646 1.970 . S
O649 C648 1.258 . S
O650 Co647 1.966 . S
O650 C648 1.263 . S
C651 O652 1.235 . S
C651 O678 1.289 . S
O652 C651 1.235 . S
C653 C655 1.400 . S
C653 N656 1.351 . S
C653 C658 1.501 . S
C654 C655 1.387 . S
C654 N657 1.341 . S
C655 C653 1.400 . S
C655 C654 1.387 . S
N656 Co647 2.022 . S
N656 C653 1.351 . S
N656 N657 1.365 . S
N657 C654 1.341 . S
N657 N656 1.365 . S
N657 H677 0.862 . S
C658 C653 1.501 . S
C658 H659 0.961 . S
C658 H660 0.961 . S
C658 H661 0.960 . S
H659 C658 0.961 . S
H660 C658 0.961 . S
H661 C658 0.960 . S
C662 N663 1.342 . S
C662 C666 1.401 . S
C662 C667 1.499 . S
N663 Co646 1.989 . S
N663 C662 1.342 . S
N663 N664 1.388 . S
N664 Co647 1.993 . S
N664 N663 1.388 . S
N664 C665 1.346 . S
C665 N664 1.346 . S
C665 C666 1.396 . S
C665 C675 1.510 . S
C666 C662 1.401 . S
C666 C665 1.396 . S
C667 C662 1.499 . S
C667 H668 0.959 . S
C667 H669 0.960 . S
C667 H670 0.961 . S
H668 C667 0.959 . S
H669 C667 0.960 . S
H670 C667 0.961 . S
O671 Co646 1.967 . S
O671 C679 1.258 . S
O672 Co647 1.941 . S
O672 C679 1.266 . S
H673 C675 0.959 . S
H674 C675 0.961 . S
C675 C665 1.510 . S
C675 H673 0.959 . S
C675 H674 0.961 . S
C675 H676 0.960 . S
H676 C675 0.960 . S
H677 N657 0.862 . S
O678 Co646 1.920 . S
O678 C651 1.289 . S
C679 O671 1.258 . S
C679 O672 1.266 . S
Co680 O683 1.970 . S
Co680 N697 1.989 . S
Co680 O705 1.967 . S
Co680 O712 1.920 . S
Co681 O684 1.966 . S
Co681 N690 2.022 . S
Co681 N698 1.993 . S
Co681 O706 1.941 . S
C682 O683 1.258 . S
C682 O684 1.263 . S
O683 Co680 1.970 . S
O683 C682 1.258 . S
O684 Co681 1.966 . S
O684 C682 1.263 . S
C685 O686 1.235 . S
C685 O712 1.289 . S
O686 C685 1.235 . S
C687 C689 1.400 . S
C687 N690 1.351 . S
C687 C692 1.501 . S
C688 C689 1.387 . S
C688 N691 1.341 . S
C689 C687 1.400 . S
C689 C688 1.387 . S
N690 Co681 2.022 . S
N690 C687 1.351 . S
N690 N691 1.365 . S
N691 C688 1.341 . S
N691 N690 1.365 . S
N691 H711 0.862 . S
C692 C687 1.501 . S
C692 H693 0.961 . S
C692 H694 0.961 . S
C692 H695 0.960 . S
H693 C692 0.961 . S
H694 C692 0.961 . S
H695 C692 0.960 . S
C696 N697 1.342 . S
C696 C700 1.401 . S
C696 C701 1.499 . S
N697 Co680 1.989 . S
N697 C696 1.342 . S
N697 N698 1.388 . S
N698 Co681 1.993 . S
N698 N697 1.388 . S
N698 C699 1.346 . S
C699 N698 1.346 . S
C699 C700 1.396 . S
C699 C709 1.510 . S
C700 C696 1.401 . S
C700 C699 1.396 . S
C701 C696 1.499 . S
C701 H702 0.959 . S
C701 H703 0.960 . S
C701 H704 0.961 . S
H702 C701 0.959 . S
H703 C701 0.960 . S
H704 C701 0.961 . S
O705 Co680 1.967 . S
O705 C713 1.258 . S
O706 Co681 1.941 . S
O706 C713 1.266 . S
H707 C709 0.959 . S
H708 C709 0.961 . S
C709 C699 1.510 . S
C709 H707 0.959 . S
C709 H708 0.961 . S
C709 H710 0.960 . S
H710 C709 0.960 . S
H711 N691 0.862 . S
O712 Co680 1.920 . S
O712 C685 1.289 . S
C713 O705 1.258 . S
C713 O706 1.266 . S
Co714 O717 1.970 . S
Co714 N731 1.989 . S
Co714 O739 1.967 . S
Co714 O746 1.920 . S
Co715 O718 1.966 . S
Co715 N724 2.022 . S
Co715 N732 1.993 . S
Co715 O740 1.941 . S
C716 O717 1.258 . S
C716 O718 1.263 . S
O717 Co714 1.970 . S
O717 C716 1.258 . S
O718 Co715 1.966 . S
O718 C716 1.263 . S
C719 O720 1.235 . S
C719 O746 1.289 . S
O720 C719 1.235 . S
C721 C723 1.400 . S
C721 N724 1.351 . S
C721 C726 1.501 . S
C722 C723 1.387 . S
C722 N725 1.341 . S
C723 C721 1.400 . S
C723 C722 1.387 . S
N724 Co715 2.022 . S
N724 C721 1.351 . S
N724 N725 1.365 . S
N725 C722 1.341 . S
N725 N724 1.365 . S
N725 H745 0.862 . S
C726 C721 1.501 . S
C726 H727 0.961 . S
C726 H728 0.961 . S
C726 H729 0.960 . S
H727 C726 0.961 . S
H728 C726 0.961 . S
H729 C726 0.960 . S
C730 N731 1.342 . S
C730 C734 1.401 . S
C730 C735 1.499 . S
N731 Co714 1.989 . S
N731 C730 1.342 . S
N731 N732 1.388 . S
N732 Co715 1.993 . S
N732 N731 1.388 . S
N732 C733 1.346 . S
C733 N732 1.346 . S
C733 C734 1.396 . S
C733 C743 1.510 . S
C734 C730 1.401 . S
C734 C733 1.396 . S
C735 C730 1.499 . S
C735 H736 0.959 . S
C735 H737 0.960 . S
C735 H738 0.961 . S
H736 C735 0.959 . S
H737 C735 0.960 . S
H738 C735 0.961 . S
O739 Co714 1.967 . S
O739 C747 1.258 . S
O740 Co715 1.941 . S
O740 C747 1.266 . S
H741 C743 0.959 . S
H742 C743 0.961 . S
C743 C733 1.510 . S
C743 H741 0.959 . S
C743 H742 0.961 . S
C743 H744 0.960 . S
H744 C743 0.960 . S
H745 N725 0.862 . S
O746 Co714 1.920 . S
O746 C719 1.289 . S
C747 O739 1.258 . S
C747 O740 1.266 . S
Co748 O751 1.970 1_554 S
Co748 N765 1.989 1_554 S
Co748 O773 1.967 . S
Co748 O780 1.920 . S
Co749 O752 1.966 . S
Co749 N758 2.022 . S
Co749 N766 1.993 . S
Co749 O774 1.941 . S
C750 O751 1.258 . S
C750 O752 1.263 . S
O751 Co748 1.970 1_556 S
O751 C750 1.258 . S
O752 Co749 1.966 . S
O752 C750 1.263 . S
C753 O754 1.235 . S
C753 O780 1.289 . S
O754 C753 1.235 . S
C755 C757 1.400 . S
C755 N758 1.351 . S
C755 C760 1.501 . S
C756 C757 1.387 . S
C756 N759 1.341 . S
C757 C755 1.400 . S
C757 C756 1.387 . S
N758 Co749 2.022 . S
N758 C755 1.351 . S
N758 N759 1.365 . S
N759 C756 1.341 . S
N759 N758 1.365 . S
N759 H779 0.862 . S
C760 C755 1.501 . S
C760 H761 0.961 . S
C760 H762 0.961 . S
C760 H763 0.960 . S
H761 C760 0.961 . S
H762 C760 0.961 . S
H763 C760 0.960 . S
C764 N765 1.342 . S
C764 C768 1.401 . S
C764 C769 1.499 1_556 S
N765 Co748 1.989 1_556 S
N765 C764 1.342 . S
N765 N766 1.388 . S
N766 Co749 1.993 . S
N766 N765 1.388 . S
N766 C767 1.346 . S
C767 N766 1.346 . S
C767 C768 1.396 . S
C767 C777 1.510 . S
C768 C764 1.401 . S
C768 C767 1.396 . S
C769 C764 1.499 1_554 S
C769 H770 0.959 . S
C769 H771 0.960 . S
C769 H772 0.961 . S
H770 C769 0.959 . S
H771 C769 0.960 . S
H772 C769 0.961 . S
O773 Co748 1.967 . S
O773 C781 1.258 1_554 S
O774 Co749 1.941 . S
O774 C781 1.266 . S
H775 C777 0.959 . S
H776 C777 0.961 . S
C777 C767 1.510 . S
C777 H775 0.959 . S
C777 H776 0.961 . S
C777 H778 0.960 . S
H778 C777 0.960 . S
H779 N759 0.862 . S
O780 Co748 1.920 . S
O780 C753 1.289 . S
C781 O773 1.258 1_556 S
C781 O774 1.266 . S
Co782 O785 1.970 . S
Co782 N799 1.989 . S
Co782 O807 1.967 . S
Co782 O814 1.920 . S
Co783 O786 1.966 . S
Co783 N792 2.022 1_554 S
Co783 N800 1.993 . S
Co783 O808 1.941 . S
C784 O785 1.258 . S
C784 O786 1.263 . S
O785 Co782 1.970 . S
O785 C784 1.258 . S
O786 Co783 1.966 . S
O786 C784 1.263 . S
C787 O788 1.235 . S
C787 O814 1.289 . S
O788 C787 1.235 . S
C789 C791 1.400 . S
C789 N792 1.351 . S
C789 C794 1.501 . S
C790 C791 1.387 . S
C790 N793 1.341 . S
C791 C789 1.400 . S
C791 C790 1.387 . S
N792 Co783 2.022 1_556 S
N792 C789 1.351 . S
N792 N793 1.365 . S
N793 C790 1.341 . S
N793 N792 1.365 . S
N793 H813 0.862 . S
C794 C789 1.501 . S
C794 H795 0.961 . S
C794 H796 0.961 . S
C794 H797 0.960 . S
H795 C794 0.961 . S
H796 C794 0.961 . S
H797 C794 0.960 . S
C798 N799 1.342 . S
C798 C802 1.401 . S
C798 C803 1.499 . S
N799 Co782 1.989 . S
N799 C798 1.342 . S
N799 N800 1.388 . S
N800 Co783 1.993 . S
N800 N799 1.388 . S
N800 C801 1.346 . S
C801 N800 1.346 . S
C801 C802 1.396 . S
C801 C811 1.510 1_554 S
C802 C798 1.401 . S
C802 C801 1.396 . S
C803 C798 1.499 . S
C803 H804 0.959 . S
C803 H805 0.960 . S
C803 H806 0.961 . S
H804 C803 0.959 . S
H805 C803 0.960 . S
H806 C803 0.961 . S
O807 Co782 1.967 . S
O807 C815 1.258 . S
O808 Co783 1.941 . S
O808 C815 1.266 . S
H809 C811 0.959 . S
H810 C811 0.961 . S
C811 C801 1.510 1_556 S
C811 H809 0.959 . S
C811 H810 0.961 . S
C811 H812 0.960 . S
H812 C811 0.960 . S
H813 N793 0.862 . S
O814 Co782 1.920 . S
O814 C787 1.289 . S
C815 O807 1.258 . S
C815 O808 1.266 . S
Co816 O819 1.970 . S
Co816 N833 1.989 . S
Co816 O841 1.967 . S
Co816 O848 1.920 . S
Co817 O820 1.966 . S
Co817 N826 2.022 . S
Co817 N834 1.993 . S
Co817 O842 1.941 . S
C818 O819 1.258 . S
C818 O820 1.263 . S
O819 Co816 1.970 . S
O819 C818 1.258 . S
O820 Co817 1.966 . S
O820 C818 1.263 . S
C821 O822 1.235 . S
C821 O848 1.289 . S
O822 C821 1.235 . S
C823 C825 1.400 . S
C823 N826 1.351 . S
C823 C828 1.501 . S
C824 C825 1.387 . S
C824 N827 1.341 . S
C825 C823 1.400 . S
C825 C824 1.387 . S
N826 Co817 2.022 . S
N826 C823 1.351 . S
N826 N827 1.365 . S
N827 C824 1.341 . S
N827 N826 1.365 . S
N827 H847 0.862 . S
C828 C823 1.501 . S
C828 H829 0.961 . S
C828 H830 0.961 . S
C828 H831 0.960 . S
H829 C828 0.961 . S
H830 C828 0.961 . S
H831 C828 0.960 . S
C832 N833 1.342 . S
C832 C836 1.401 . S
C832 C837 1.499 . S
N833 Co816 1.989 . S
N833 C832 1.342 . S
N833 N834 1.388 . S
N834 Co817 1.993 . S
N834 N833 1.388 . S
N834 C835 1.346 . S
C835 N834 1.346 . S
C835 C836 1.396 . S
C835 C845 1.510 . S
C836 C832 1.401 . S
C836 C835 1.396 . S
C837 C832 1.499 . S
C837 H838 0.959 . S
C837 H839 0.960 . S
C837 H840 0.961 . S
H838 C837 0.959 . S
H839 C837 0.960 . S
H840 C837 0.961 . S
O841 Co816 1.967 . S
O841 C849 1.258 . S
O842 Co817 1.941 . S
O842 C849 1.266 . S
H843 C845 0.959 . S
H844 C845 0.961 . S
C845 C835 1.510 . S
C845 H843 0.959 . S
C845 H844 0.961 . S
C845 H846 0.960 . S
H846 C845 0.960 . S
H847 N827 0.862 . S
O848 Co816 1.920 . S
O848 C821 1.289 . S
C849 O841 1.258 . S
C849 O842 1.266 . S
Co850 O853 1.970 . S
Co850 N867 1.989 . S
Co850 O875 1.967 . S
Co850 O882 1.920 . S
Co851 O854 1.966 . S
Co851 N860 2.022 1_554 S
Co851 N868 1.993 . S
Co851 O876 1.941 . S
C852 O853 1.258 . S
C852 O854 1.263 . S
O853 Co850 1.970 . S
O853 C852 1.258 . S
O854 Co851 1.966 . S
O854 C852 1.263 . S
C855 O856 1.235 . S
C855 O882 1.289 . S
O856 C855 1.235 . S
C857 C859 1.400 . S
C857 N860 1.351 . S
C857 C862 1.501 . S
C858 C859 1.387 . S
C858 N861 1.341 . S
C859 C857 1.400 . S
C859 C858 1.387 . S
N860 Co851 2.022 1_556 S
N860 C857 1.351 . S
N860 N861 1.365 . S
N861 C858 1.341 . S
N861 N860 1.365 . S
N861 H881 0.862 . S
C862 C857 1.501 . S
C862 H863 0.961 . S
C862 H864 0.961 . S
C862 H865 0.960 . S
H863 C862 0.961 . S
H864 C862 0.961 . S
H865 C862 0.960 . S
C866 N867 1.342 . S
C866 C870 1.401 . S
C866 C871 1.499 . S
N867 Co850 1.989 . S
N867 C866 1.342 . S
N867 N868 1.388 . S
N868 Co851 1.993 . S
N868 N867 1.388 . S
N868 C869 1.346 . S
C869 N868 1.346 . S
C869 C870 1.396 . S
C869 C879 1.510 1_554 S
C870 C866 1.401 . S
C870 C869 1.396 . S
C871 C866 1.499 . S
C871 H872 0.959 . S
C871 H873 0.960 . S
C871 H874 0.961 . S
H872 C871 0.959 . S
H873 C871 0.960 . S
H874 C871 0.961 . S
O875 Co850 1.967 . S
O875 C883 1.258 . S
O876 Co851 1.941 . S
O876 C883 1.266 . S
H877 C879 0.959 . S
H878 C879 0.961 . S
C879 C869 1.510 1_556 S
C879 H877 0.959 . S
C879 H878 0.961 . S
C879 H880 0.960 . S
H880 C879 0.960 . S
H881 N861 0.862 . S
O882 Co850 1.920 . S
O882 C855 1.289 . S
C883 O875 1.258 . S
C883 O876 1.266 . S
Co884 O887 1.970 1_554 S
Co884 N901 1.989 1_554 S
Co884 O909 1.967 . S
Co884 O916 1.920 . S
Co885 O888 1.966 . S
Co885 N894 2.022 . S
Co885 N902 1.993 . S
Co885 O910 1.941 . S
C886 O887 1.258 . S
C886 O888 1.263 . S
O887 Co884 1.970 1_556 S
O887 C886 1.258 . S
O888 Co885 1.966 . S
O888 C886 1.263 . S
C889 O890 1.235 . S
C889 O916 1.289 . S
O890 C889 1.235 . S
C891 C893 1.400 . S
C891 N894 1.351 . S
C891 C896 1.501 . S
C892 C893 1.387 . S
C892 N895 1.341 . S
C893 C891 1.400 . S
C893 C892 1.387 . S
N894 Co885 2.022 . S
N894 C891 1.351 . S
N894 N895 1.365 . S
N895 C892 1.341 . S
N895 N894 1.365 . S
N895 H915 0.862 . S
C896 C891 1.501 . S
C896 H897 0.961 . S
C896 H898 0.961 . S
C896 H899 0.960 . S
H897 C896 0.961 . S
H898 C896 0.961 . S
H899 C896 0.960 . S
C900 N901 1.342 . S
C900 C904 1.401 . S
C900 C905 1.499 1_556 S
N901 Co884 1.989 1_556 S
N901 C900 1.342 . S
N901 N902 1.388 . S
N902 Co885 1.993 . S
N902 N901 1.388 . S
N902 C903 1.346 . S
C903 N902 1.346 . S
C903 C904 1.396 . S
C903 C913 1.510 . S
C904 C900 1.401 . S
C904 C903 1.396 . S
C905 C900 1.499 1_554 S
C905 H906 0.959 . S
C905 H907 0.960 . S
C905 H908 0.961 . S
H906 C905 0.959 . S
H907 C905 0.960 . S
H908 C905 0.961 . S
O909 Co884 1.967 . S
O909 C917 1.258 1_554 S
O910 Co885 1.941 . S
O910 C917 1.266 . S
H911 C913 0.959 . S
H912 C913 0.961 . S
C913 C903 1.510 . S
C913 H911 0.959 . S
C913 H912 0.961 . S
C913 H914 0.960 . S
H914 C913 0.960 . S
H915 N895 0.862 . S
O916 Co884 1.920 . S
O916 C889 1.289 . S
C917 O909 1.258 1_556 S
C917 O910 1.266 . S
Co918 O921 1.970 . S
Co918 N935 1.989 . S
Co918 O943 1.967 . S
Co918 O950 1.920 . S
Co919 O922 1.966 . S
Co919 N928 2.022 . S
Co919 N936 1.993 . S
Co919 O944 1.941 . S
C920 O921 1.258 . S
C920 O922 1.263 . S
O921 Co918 1.970 . S
O921 C920 1.258 . S
O922 Co919 1.966 . S
O922 C920 1.263 . S
C923 O924 1.235 . S
C923 O950 1.289 . S
O924 C923 1.235 . S
C925 C927 1.400 . S
C925 N928 1.351 . S
C925 C930 1.501 . S
C926 C927 1.387 . S
C926 N929 1.341 . S
C927 C925 1.400 . S
C927 C926 1.387 . S
N928 Co919 2.022 . S
N928 C925 1.351 . S
N928 N929 1.365 . S
N929 C926 1.341 . S
N929 N928 1.365 . S
N929 H949 0.862 . S
C930 C925 1.501 . S
C930 H931 0.961 . S
C930 H932 0.961 . S
C930 H933 0.960 . S
H931 C930 0.961 . S
H932 C930 0.961 . S
H933 C930 0.960 . S
C934 N935 1.342 . S
C934 C938 1.401 . S
C934 C939 1.499 . S
N935 Co918 1.989 . S
N935 C934 1.342 . S
N935 N936 1.388 . S
N936 Co919 1.993 . S
N936 N935 1.388 . S
N936 C937 1.346 . S
C937 N936 1.346 . S
C937 C938 1.396 . S
C937 C947 1.510 . S
C938 C934 1.401 . S
C938 C937 1.396 . S
C939 C934 1.499 . S
C939 H940 0.959 . S
C939 H941 0.960 . S
C939 H942 0.961 . S
H940 C939 0.959 . S
H941 C939 0.960 . S
H942 C939 0.961 . S
O943 Co918 1.967 . S
O943 C951 1.258 . S
O944 Co919 1.941 . S
O944 C951 1.266 . S
H945 C947 0.959 . S
H946 C947 0.961 . S
C947 C937 1.510 . S
C947 H945 0.959 . S
C947 H946 0.961 . S
C947 H948 0.960 . S
H948 C947 0.960 . S
H949 N929 0.862 . S
O950 Co918 1.920 . S
O950 C923 1.289 . S
C951 O943 1.258 . S
C951 O944 1.266 . S
Co952 O955 1.970 . S
Co952 N969 1.989 . S
Co952 O977 1.967 . S
Co952 O984 1.920 . S
Co953 O956 1.966 . S
Co953 N962 2.022 . S
Co953 N970 1.993 . S
Co953 O978 1.941 . S
C954 O955 1.258 . S
C954 O956 1.263 . S
O955 Co952 1.970 . S
O955 C954 1.258 . S
O956 Co953 1.966 . S
O956 C954 1.263 . S
C957 O958 1.235 . S
C957 O984 1.289 . S
O958 C957 1.235 . S
C959 C961 1.400 . S
C959 N962 1.351 . S
C959 C964 1.501 . S
C960 C961 1.387 . S
C960 N963 1.341 . S
C961 C959 1.400 . S
C961 C960 1.387 . S
N962 Co953 2.022 . S
N962 C959 1.351 . S
N962 N963 1.365 . S
N963 C960 1.341 . S
N963 N962 1.365 . S
N963 H983 0.862 . S
C964 C959 1.501 . S
C964 H965 0.961 . S
C964 H966 0.961 . S
C964 H967 0.960 . S
H965 C964 0.961 . S
H966 C964 0.961 . S
H967 C964 0.960 . S
C968 N969 1.342 . S
C968 C972 1.401 . S
C968 C973 1.499 . S
N969 Co952 1.989 . S
N969 C968 1.342 . S
N969 N970 1.388 . S
N970 Co953 1.993 . S
N970 N969 1.388 . S
N970 C971 1.346 . S
C971 N970 1.346 . S
C971 C972 1.396 . S
C971 C981 1.510 . S
C972 C968 1.401 . S
C972 C971 1.396 . S
C973 C968 1.499 . S
C973 H974 0.959 . S
C973 H975 0.960 . S
C973 H976 0.961 . S
H974 C973 0.959 . S
H975 C973 0.960 . S
H976 C973 0.961 . S
O977 Co952 1.967 . S
O977 C985 1.258 . S
O978 Co953 1.941 . S
O978 C985 1.266 . S
H979 C981 0.959 . S
H980 C981 0.961 . S
C981 C971 1.510 . S
C981 H979 0.959 . S
C981 H980 0.961 . S
C981 H982 0.960 . S
H982 C981 0.960 . S
H983 N963 0.862 . S
O984 Co952 1.920 . S
O984 C957 1.289 . S
C985 O977 1.258 . S
C985 O978 1.266 . S
Co986 O989 1.970 . S
Co986 N1003 1.989 . S
Co986 O1011 1.967 . S
Co986 O1018 1.920 . S
Co987 O990 1.966 . S
Co987 N996 2.022 . S
Co987 N1004 1.993 . S
Co987 O1012 1.941 . S
C988 O989 1.258 . S
C988 O990 1.263 . S
O989 Co986 1.970 . S
O989 C988 1.258 . S
O990 Co987 1.966 . S
O990 C988 1.263 . S
C991 O992 1.235 . S
C991 O1018 1.289 . S
O992 C991 1.235 . S
C993 C995 1.400 . S
C993 N996 1.351 . S
C993 C998 1.501 . S
C994 C995 1.387 . S
C994 N997 1.341 . S
C995 C993 1.400 . S
C995 C994 1.387 . S
N996 Co987 2.022 . S
N996 C993 1.351 . S
N996 N997 1.365 . S
N997 C994 1.341 . S
N997 N996 1.365 . S
N997 H1017 0.862 . S
C998 C993 1.501 . S
C998 H999 0.961 . S
C998 H1000 0.961 . S
C998 H1001 0.960 . S
H999 C998 0.961 . S
H1000 C998 0.961 . S
H1001 C998 0.960 . S
C1002 N1003 1.342 . S
C1002 C1006 1.401 . S
C1002 C1007 1.499 . S
N1003 Co986 1.989 . S
N1003 C1002 1.342 . S
N1003 N1004 1.388 . S
N1004 Co987 1.993 . S
N1004 N1003 1.388 . S
N1004 C1005 1.346 . S
C1005 N1004 1.346 . S
C1005 C1006 1.396 . S
C1005 C1015 1.510 . S
C1006 C1002 1.401 . S
C1006 C1005 1.396 . S
C1007 C1002 1.499 . S
C1007 H1008 0.959 . S
C1007 H1009 0.960 . S
C1007 H1010 0.961 . S
H1008 C1007 0.959 . S
H1009 C1007 0.960 . S
H1010 C1007 0.961 . S
O1011 Co986 1.967 . S
O1011 C1019 1.258 . S
O1012 Co987 1.941 . S
O1012 C1019 1.266 . S
H1013 C1015 0.959 . S
H1014 C1015 0.961 . S
C1015 C1005 1.510 . S
C1015 H1013 0.959 . S
C1015 H1014 0.961 . S
C1015 H1016 0.960 . S
H1016 C1015 0.960 . S
H1017 N997 0.862 . S
O1018 Co986 1.920 . S
O1018 C991 1.289 . S
C1019 O1011 1.258 . S
C1019 O1012 1.266 . S
Co1020 O1023 1.970 1_556 S
Co1020 N1037 1.989 1_556 S
Co1020 O1045 1.967 . S
Co1020 O1052 1.920 . S
Co1021 O1024 1.966 . S
Co1021 N1030 2.022 . S
Co1021 N1038 1.993 . S
Co1021 O1046 1.941 . S
C1022 O1023 1.258 . S
C1022 O1024 1.263 . S
O1023 Co1020 1.970 1_554 S
O1023 C1022 1.258 . S
O1024 Co1021 1.966 . S
O1024 C1022 1.263 . S
C1025 O1026 1.235 . S
C1025 O1052 1.289 . S
O1026 C1025 1.235 . S
C1027 C1029 1.400 . S
C1027 N1030 1.351 . S
C1027 C1032 1.501 . S
C1028 C1029 1.387 . S
C1028 N1031 1.341 . S
C1029 C1027 1.400 . S
C1029 C1028 1.387 . S
N1030 Co1021 2.022 . S
N1030 C1027 1.351 . S
N1030 N1031 1.365 . S
N1031 C1028 1.341 . S
N1031 N1030 1.365 . S
N1031 H1051 0.862 . S
C1032 C1027 1.501 . S
C1032 H1033 0.961 . S
C1032 H1034 0.961 . S
C1032 H1035 0.960 . S
H1033 C1032 0.961 . S
H1034 C1032 0.961 . S
H1035 C1032 0.960 . S
C1036 N1037 1.342 . S
C1036 C1040 1.401 . S
C1036 C1041 1.499 1_554 S
N1037 Co1020 1.989 1_554 S
N1037 C1036 1.342 . S
N1037 N1038 1.388 . S
N1038 Co1021 1.993 . S
N1038 N1037 1.388 . S
N1038 C1039 1.346 . S
C1039 N1038 1.346 . S
C1039 C1040 1.396 . S
C1039 C1049 1.510 . S
C1040 C1036 1.401 . S
C1040 C1039 1.396 . S
C1041 C1036 1.499 1_556 S
C1041 H1042 0.959 . S
C1041 H1043 0.960 . S
C1041 H1044 0.961 . S
H1042 C1041 0.959 . S
H1043 C1041 0.960 . S
H1044 C1041 0.961 . S
O1045 Co1020 1.967 . S
O1045 C1053 1.258 1_556 S
O1046 Co1021 1.941 . S
O1046 C1053 1.266 . S
H1047 C1049 0.959 . S
H1048 C1049 0.961 . S
C1049 C1039 1.510 . S
C1049 H1047 0.959 . S
C1049 H1048 0.961 . S
C1049 H1050 0.960 . S
H1050 C1049 0.960 . S
H1051 N1031 0.862 . S
O1052 Co1020 1.920 . S
O1052 C1025 1.289 . S
C1053 O1045 1.258 1_554 S
C1053 O1046 1.266 . S
Co1054 O1057 1.970 . S
Co1054 N1071 1.989 . S
Co1054 O1079 1.967 . S
Co1054 O1086 1.920 . S
Co1055 O1058 1.966 . S
Co1055 N1064 2.022 1_556 S
Co1055 N1072 1.993 . S
Co1055 O1080 1.941 . S
C1056 O1057 1.258 . S
C1056 O1058 1.263 . S
O1057 Co1054 1.970 . S
O1057 C1056 1.258 . S
O1058 Co1055 1.966 . S
O1058 C1056 1.263 . S
C1059 O1060 1.235 . S
C1059 O1086 1.289 . S
O1060 C1059 1.235 . S
C1061 C1063 1.400 . S
C1061 N1064 1.351 . S
C1061 C1066 1.501 . S
C1062 C1063 1.387 . S
C1062 N1065 1.341 . S
C1063 C1061 1.400 . S
C1063 C1062 1.387 . S
N1064 Co1055 2.022 1_554 S
N1064 C1061 1.351 . S
N1064 N1065 1.365 . S
N1065 C1062 1.341 . S
N1065 N1064 1.365 . S
N1065 H1085 0.862 . S
C1066 C1061 1.501 . S
C1066 H1067 0.961 . S
C1066 H1068 0.961 . S
C1066 H1069 0.960 . S
H1067 C1066 0.961 . S
H1068 C1066 0.961 . S
H1069 C1066 0.960 . S
C1070 N1071 1.342 . S
C1070 C1074 1.401 . S
C1070 C1075 1.499 . S
N1071 Co1054 1.989 . S
N1071 C1070 1.342 . S
N1071 N1072 1.388 . S
N1072 Co1055 1.993 . S
N1072 N1071 1.388 . S
N1072 C1073 1.346 . S
C1073 N1072 1.346 . S
C1073 C1074 1.396 . S
C1073 C1083 1.510 1_556 S
C1074 C1070 1.401 . S
C1074 C1073 1.396 . S
C1075 C1070 1.499 . S
C1075 H1076 0.959 . S
C1075 H1077 0.960 . S
C1075 H1078 0.961 . S
H1076 C1075 0.959 . S
H1077 C1075 0.960 . S
H1078 C1075 0.961 . S
O1079 Co1054 1.967 . S
O1079 C1087 1.258 . S
O1080 Co1055 1.941 . S
O1080 C1087 1.266 . S
H1081 C1083 0.959 . S
H1082 C1083 0.961 . S
C1083 C1073 1.510 1_554 S
C1083 H1081 0.959 . S
C1083 H1082 0.961 . S
C1083 H1084 0.960 . S
H1084 C1083 0.960 . S
H1085 N1065 0.862 . S
O1086 Co1054 1.920 . S
O1086 C1059 1.289 . S
C1087 O1079 1.258 . S
C1087 O1080 1.266 . S
C1088 C1089 1.363 . S
C1088 C1094 1.379 . S
C1088 N1096 1.356 . S
C1089 C1088 1.363 . S
C1089 C1095 1.363 . S
C1090 C1091 1.363 . S
C1090 C1095 1.379 . S
C1090 N1097 1.356 . S
C1091 C1090 1.363 . S
C1091 C1094 1.363 . S
N1092 C1094 1.356 . S
N1092 H1104 0.984 . S
N1092 H1105 0.985 . S
N1093 C1095 1.356 . S
N1093 H1098 0.984 . S
N1093 H1099 0.985 . S
C1094 C1088 1.379 . S
C1094 C1091 1.363 . S
C1094 N1092 1.356 . S
C1095 C1089 1.363 . S
C1095 C1090 1.379 . S
C1095 N1093 1.356 . S
N1096 C1088 1.356 . S
N1096 H1102 0.984 . S
N1096 H1103 0.984 . S
N1097 C1090 1.356 . S
N1097 H1100 0.984 . S
N1097 H1101 0.985 . S
H1098 N1093 0.984 . S
H1099 N1093 0.985 . S
H1100 N1097 0.984 . S
H1101 N1097 0.985 . S
H1102 N1096 0.984 . S
H1103 N1096 0.984 . S
H1104 N1092 0.984 . S
H1105 N1092 0.985 . S
C1106 C1107 1.363 . S
C1106 C1112 1.379 . S
C1106 N1114 1.356 . S
C1107 C1106 1.363 . S
C1107 C1113 1.363 . S
C1108 C1109 1.363 . S
C1108 C1113 1.379 . S
C1108 N1115 1.356 . S
C1109 C1108 1.363 . S
C1109 C1112 1.363 . S
N1110 C1112 1.356 . S
N1110 H1122 0.984 . S
N1110 H1123 0.985 1_556 S
N1111 C1113 1.356 . S
N1111 H1116 0.984 . S
N1111 H1117 0.985 . S
C1112 C1106 1.379 . S
C1112 C1109 1.363 . S
C1112 N1110 1.356 . S
C1113 C1107 1.363 . S
C1113 C1108 1.379 . S
C1113 N1111 1.356 . S
N1114 C1106 1.356 . S
N1114 H1120 0.984 . S
N1114 H1121 0.984 . S
N1115 C1108 1.356 . S
N1115 H1118 0.984 1_556 S
N1115 H1119 0.985 . S
H1116 N1111 0.984 . S
H1117 N1111 0.985 . S
H1118 N1115 0.984 1_554 S
H1119 N1115 0.985 . S
H1120 N1114 0.984 . S
H1121 N1114 0.984 . S
H1122 N1110 0.984 . S
H1123 N1110 0.985 1_554 S
C1124 C1125 1.363 . S
C1124 C1130 1.379 . S
C1124 N1132 1.356 . S
C1125 C1124 1.363 . S
C1125 C1131 1.363 . S
C1126 C1127 1.363 . S
C1126 C1131 1.379 . S
C1126 N1133 1.356 . S
C1127 C1126 1.363 . S
C1127 C1130 1.363 . S
N1128 C1130 1.356 . S
N1128 H1140 0.984 . S
N1128 H1141 0.985 . S
N1129 C1131 1.356 . S
N1129 H1134 0.984 1_554 S
N1129 H1135 0.985 . S
C1130 C1124 1.379 . S
C1130 C1127 1.363 . S
C1130 N1128 1.356 . S
C1131 C1125 1.363 . S
C1131 C1126 1.379 . S
C1131 N1129 1.356 . S
N1132 C1124 1.356 . S
N1132 H1138 0.984 . S
N1132 H1139 0.984 1_554 S
N1133 C1126 1.356 . S
N1133 H1136 0.984 . S
N1133 H1137 0.985 . S
H1134 N1129 0.984 1_556 S
H1135 N1129 0.985 . S
H1136 N1133 0.984 . S
H1137 N1133 0.985 . S
H1138 N1132 0.984 . S
H1139 N1132 0.984 1_556 S
H1140 N1128 0.984 . S
H1141 N1128 0.985 . S
C1142 C1143 1.363 . S
C1142 C1148 1.379 . S
C1142 N1150 1.356 . S
C1143 C1142 1.363 . S
C1143 C1149 1.363 . S
C1144 C1145 1.363 . S
C1144 C1149 1.379 . S
C1144 N1151 1.356 . S
C1145 C1144 1.363 . S
C1145 C1148 1.363 . S
N1146 C1148 1.356 . S
N1146 H1158 0.984 . S
N1146 H1159 0.985 . S
N1147 C1149 1.356 . S
N1147 H1152 0.984 . S
N1147 H1153 0.985 . S
C1148 C1142 1.379 . S
C1148 C1145 1.363 . S
C1148 N1146 1.356 . S
C1149 C1143 1.363 . S
C1149 C1144 1.379 . S
C1149 N1147 1.356 . S
N1150 C1142 1.356 . S
N1150 H1156 0.984 . S
N1150 H1157 0.984 . S
N1151 C1144 1.356 . S
N1151 H1154 0.984 . S
N1151 H1155 0.985 . S
H1152 N1147 0.984 . S
H1153 N1147 0.985 . S
H1154 N1151 0.984 . S
H1155 N1151 0.985 . S
H1156 N1150 0.984 . S
H1157 N1150 0.984 . S
H1158 N1146 0.984 . S
H1159 N1146 0.985 . S
C1160 C1161 1.363 . S
C1160 C1166 1.379 . S
C1160 N1168 1.356 . S
C1161 C1160 1.363 . S
C1161 C1167 1.363 . S
C1162 C1163 1.363 . S
C1162 C1167 1.379 . S
C1162 N1169 1.356 . S
C1163 C1162 1.363 . S
C1163 C1166 1.363 . S
N1164 C1166 1.356 . S
N1164 H1176 0.984 . S
N1164 H1177 0.985 . S
N1165 C1167 1.356 . S
N1165 H1170 0.984 . S
N1165 H1171 0.985 . S
C1166 C1160 1.379 . S
C1166 C1163 1.363 . S
C1166 N1164 1.356 . S
C1167 C1161 1.363 . S
C1167 C1162 1.379 . S
C1167 N1165 1.356 . S
N1168 C1160 1.356 . S
N1168 H1174 0.984 . S
N1168 H1175 0.984 . S
N1169 C1162 1.356 . S
N1169 H1172 0.984 . S
N1169 H1173 0.985 . S
H1170 N1165 0.984 . S
H1171 N1165 0.985 . S
H1172 N1169 0.984 . S
H1173 N1169 0.985 . S
H1174 N1168 0.984 . S
H1175 N1168 0.984 . S
H1176 N1164 0.984 . S
H1177 N1164 0.985 . S
C1178 C1179 1.363 . S
C1178 C1184 1.379 . S
C1178 N1186 1.356 . S
C1179 C1178 1.363 . S
C1179 C1185 1.363 . S
C1180 C1181 1.363 . S
C1180 C1185 1.379 . S
C1180 N1187 1.356 . S
C1181 C1180 1.363 . S
C1181 C1184 1.363 . S
N1182 C1184 1.356 . S
N1182 H1194 0.984 . S
N1182 H1195 0.985 . S
N1183 C1185 1.356 . S
N1183 H1188 0.984 . S
N1183 H1189 0.985 . S
C1184 C1178 1.379 . S
C1184 C1181 1.363 . S
C1184 N1182 1.356 . S
C1185 C1179 1.363 . S
C1185 C1180 1.379 . S
C1185 N1183 1.356 . S
N1186 C1178 1.356 . S
N1186 H1192 0.984 . S
N1186 H1193 0.984 . S
N1187 C1180 1.356 . S
N1187 H1190 0.984 . S
N1187 H1191 0.985 . S
H1188 N1183 0.984 . S
H1189 N1183 0.985 . S
H1190 N1187 0.984 . S
H1191 N1187 0.985 . S
H1192 N1186 0.984 . S
H1193 N1186 0.984 . S
H1194 N1182 0.984 . S
H1195 N1182 0.985 . S
C1196 C1197 1.363 . S
C1196 C1202 1.379 . S
C1196 N1204 1.356 . S
C1197 C1196 1.363 . S
C1197 C1203 1.363 . S
C1198 C1199 1.363 . S
C1198 C1203 1.379 . S
C1198 N1205 1.353 1_556 S
C1199 C1198 1.363 . S
C1199 C1202 1.363 . S
N1200 C1202 1.356 . S
N1200 H1212 0.984 . S
N1200 H1213 0.985 1_556 S
N1201 C1203 1.356 . S
N1201 H1206 0.984 . S
N1201 H1207 0.985 . S
C1202 C1196 1.379 . S
C1202 C1199 1.363 . S
C1202 N1200 1.356 . S
C1203 C1197 1.363 . S
C1203 C1198 1.379 . S
C1203 N1201 1.356 . S
N1204 C1196 1.356 . S
N1204 H1210 0.984 . S
N1204 H1211 0.984 . S
N1205 C1198 1.353 1_554 S
N1205 H1208 0.988 . S
N1205 H1209 0.984 1_554 S
H1206 N1201 0.984 . S
H1207 N1201 0.985 . S
H1208 N1205 0.988 . S
H1209 N1205 0.984 1_556 S
H1210 N1204 0.984 . S
H1211 N1204 0.984 . S
H1212 N1200 0.984 . S
H1213 N1200 0.985 1_554 S
C1214 C1215 1.363 . S
C1214 C1220 1.379 . S
C1214 N1222 1.356 . S
C1215 C1214 1.363 . S
C1215 C1221 1.363 . S
C1216 C1217 1.363 . S
C1216 C1221 1.379 . S
C1216 N1223 1.356 . S
C1217 C1216 1.363 . S
C1217 C1220 1.363 . S
N1218 C1220 1.356 . S
N1218 H1230 0.984 . S
N1218 H1231 0.985 . S
N1219 C1221 1.356 . S
N1219 H1224 0.984 1_554 S
N1219 H1225 0.985 . S
C1220 C1214 1.379 . S
C1220 C1217 1.363 . S
C1220 N1218 1.356 . S
C1221 C1215 1.363 . S
C1221 C1216 1.379 . S
C1221 N1219 1.356 . S
N1222 C1214 1.356 . S
N1222 H1228 0.984 . S
N1222 H1229 0.984 1_554 S
N1223 C1216 1.356 . S
N1223 H1226 0.984 . S
N1223 H1227 0.985 . S
H1224 N1219 0.984 1_556 S
H1225 N1219 0.985 . S
H1226 N1223 0.984 . S
H1227 N1223 0.985 . S
H1228 N1222 0.984 . S
H1229 N1222 0.984 1_556 S
H1230 N1218 0.984 . S
H1231 N1218 0.985 . S
C1232 C1233 1.363 . S
C1232 C1238 1.379 . S
C1232 N1240 1.356 . S
C1233 C1232 1.363 . S
C1233 C1239 1.363 . S
C1234 C1235 1.363 . S
C1234 C1239 1.379 . S
C1234 N1241 1.356 . S
C1235 C1234 1.363 . S
C1235 C1238 1.363 . S
N1236 C1238 1.356 . S
N1236 H1248 0.984 . S
N1236 H1249 0.985 . S
N1237 C1239 1.356 . S
N1237 H1242 0.984 . S
N1237 H1243 0.985 . S
C1238 C1232 1.379 . S
C1238 C1235 1.363 . S
C1238 N1236 1.356 . S
C1239 C1233 1.363 . S
C1239 C1234 1.379 . S
C1239 N1237 1.356 . S
N1240 C1232 1.356 . S
N1240 H1246 0.984 . S
N1240 H1247 0.984 . S
N1241 C1234 1.356 . S
N1241 H1244 0.984 . S
N1241 H1245 0.985 . S
H1242 N1237 0.984 . S
H1243 N1237 0.985 . S
H1244 N1241 0.984 . S
H1245 N1241 0.985 . S
H1246 N1240 0.984 . S
H1247 N1240 0.984 . S
H1248 N1236 0.984 . S
H1249 N1236 0.985 . S
C1250 C1251 1.363 . S
C1250 C1256 1.379 . S
C1250 N1258 1.356 . S
C1251 C1250 1.363 . S
C1251 C1257 1.363 . S
C1252 C1253 1.363 . S
C1252 C1257 1.379 . S
C1252 N1259 1.356 . S
C1253 C1252 1.363 . S
C1253 C1256 1.363 . S
N1254 C1256 1.356 . S
N1254 H1266 0.984 . S
N1254 H1267 0.985 . S
N1255 C1257 1.356 . S
N1255 H1260 0.984 1_554 S
N1255 H1261 0.985 . S
C1256 C1250 1.379 . S
C1256 C1253 1.363 . S
C1256 N1254 1.356 . S
C1257 C1251 1.363 . S
C1257 C1252 1.379 . S
C1257 N1255 1.356 . S
N1258 C1250 1.356 . S
N1258 H1264 0.984 . S
N1258 H1265 0.984 1_554 S
N1259 C1252 1.356 . S
N1259 H1262 0.984 . S
N1259 H1263 0.985 . S
H1260 N1255 0.984 1_556 S
H1261 N1255 0.985 . S
H1262 N1259 0.984 . S
H1263 N1259 0.985 . S
H1264 N1258 0.984 . S
H1265 N1258 0.984 1_556 S
H1266 N1254 0.984 . S
H1267 N1254 0.985 . S
C1268 C1269 1.363 . S
C1268 C1274 1.379 . S
C1268 N1276 1.356 . S
C1269 C1268 1.363 . S
C1269 C1275 1.363 . S
C1270 C1271 1.363 . S
C1270 C1275 1.379 . S
C1270 N1277 1.356 . S
C1271 C1270 1.363 . S
C1271 C1274 1.363 . S
N1272 C1274 1.356 . S
N1272 H1284 0.984 . S
N1272 H1285 0.985 1_556 S
N1273 C1275 1.356 . S
N1273 H1278 0.984 . S
N1273 H1279 0.985 . S
C1274 C1268 1.379 . S
C1274 C1271 1.363 . S
C1274 N1272 1.356 . S
C1275 C1269 1.363 . S
C1275 C1270 1.379 . S
C1275 N1273 1.356 . S
N1276 C1268 1.356 . S
N1276 H1282 0.984 . S
N1276 H1283 0.984 . S
N1277 C1270 1.356 . S
N1277 H1280 0.984 1_556 S
N1277 H1281 0.985 . S
H1278 N1273 0.984 . S
H1279 N1273 0.985 . S
H1280 N1277 0.984 1_554 S
H1281 N1277 0.985 . S
H1282 N1276 0.984 . S
H1283 N1276 0.984 . S
H1284 N1272 0.984 . S
H1285 N1272 0.985 1_554 S
C1286 C1287 1.363 . S
C1286 C1292 1.379 . S
C1286 N1294 1.356 . S
C1287 C1286 1.363 . S
C1287 C1293 1.363 . S
C1288 C1289 1.363 . S
C1288 C1293 1.379 . S
C1288 N1295 1.356 . S
C1289 C1288 1.363 . S
C1289 C1292 1.363 . S
N1290 C1292 1.356 . S
N1290 H1302 0.984 . S
N1290 H1303 0.985 . S
N1291 C1293 1.356 . S
N1291 H1296 0.984 . S
N1291 H1297 0.985 . S
C1292 C1286 1.379 . S
C1292 C1289 1.363 . S
C1292 N1290 1.356 . S
C1293 C1287 1.363 . S
C1293 C1288 1.379 . S
C1293 N1291 1.356 . S
N1294 C1286 1.356 . S
N1294 H1300 0.984 . S
N1294 H1301 0.984 . S
N1295 C1288 1.356 . S
N1295 H1298 0.984 . S
N1295 H1299 0.985 . S
H1296 N1291 0.984 . S
H1297 N1291 0.985 . S
H1298 N1295 0.984 . S
H1299 N1295 0.985 . S
H1300 N1294 0.984 . S
H1301 N1294 0.984 . S
H1302 N1290 0.984 . S
H1303 N1290 0.985 . S
C1304 C1305 1.363 . S
C1304 C1310 1.379 . S
C1304 N1312 1.356 . S
C1305 C1304 1.363 . S
C1305 C1311 1.363 . S
C1306 C1307 1.363 . S
C1306 C1311 1.379 . S
C1306 N1313 1.356 . S
C1307 C1306 1.363 . S
C1307 C1310 1.363 . S
N1308 C1310 1.356 . S
N1308 H1320 0.984 . S
N1308 H1321 0.985 . S
N1309 C1311 1.356 . S
N1309 H1314 0.984 . S
N1309 H1315 0.985 . S
C1310 C1304 1.379 . S
C1310 C1307 1.363 . S
C1310 N1308 1.356 . S
C1311 C1305 1.363 . S
C1311 C1306 1.379 . S
C1311 N1309 1.356 . S
N1312 C1304 1.356 . S
N1312 H1318 0.984 . S
N1312 H1319 0.984 . S
N1313 C1306 1.356 . S
N1313 H1316 0.984 . S
N1313 H1317 0.985 . S
H1314 N1309 0.984 . S
H1315 N1309 0.985 . S
H1316 N1313 0.984 . S
H1317 N1313 0.985 . S
H1318 N1312 0.984 . S
H1319 N1312 0.984 . S
H1320 N1308 0.984 . S
H1321 N1308 0.985 . S
C1322 C1323 1.363 . S
C1322 C1328 1.379 . S
C1322 N1330 1.356 . S
C1323 C1322 1.363 . S
C1323 C1329 1.363 . S
C1324 C1325 1.363 . S
C1324 C1329 1.379 . S
C1324 N1331 1.356 . S
C1325 C1324 1.363 . S
C1325 C1328 1.363 . S
N1326 C1328 1.356 . S
N1326 H1338 0.984 . S
N1326 H1339 0.985 . S
N1327 C1329 1.356 . S
N1327 H1332 0.984 . S
N1327 H1333 0.985 . S
C1328 C1322 1.379 . S
C1328 C1325 1.363 . S
C1328 N1326 1.356 . S
C1329 C1323 1.363 . S
C1329 C1324 1.379 . S
C1329 N1327 1.356 . S
N1330 C1322 1.356 . S
N1330 H1336 0.984 . S
N1330 H1337 0.984 . S
N1331 C1324 1.356 . S
N1331 H1334 0.984 . S
N1331 H1335 0.985 . S
H1332 N1327 0.984 . S
H1333 N1327 0.985 . S
H1334 N1331 0.984 . S
H1335 N1331 0.985 . S
H1336 N1330 0.984 . S
H1337 N1330 0.984 . S
H1338 N1326 0.984 . S
H1339 N1326 0.985 . S
C1340 C1341 1.363 . S
C1340 C1346 1.379 . S
C1340 N1348 1.356 . S
C1341 C1340 1.363 . S
C1341 C1347 1.363 . S
C1342 C1343 1.363 . S
C1342 C1347 1.379 . S
C1342 N1349 1.356 . S
C1343 C1342 1.363 . S
C1343 C1346 1.363 . S
N1344 C1346 1.356 . S
N1344 H1356 0.984 . S
N1344 H1357 0.985 . S
N1345 C1347 1.354 1_556 S
N1345 H1350 0.987 . S
N1345 H1351 0.984 1_556 S
C1346 C1340 1.379 . S
C1346 C1343 1.363 . S
C1346 N1344 1.356 . S
C1347 C1341 1.363 . S
C1347 C1342 1.379 . S
C1347 N1345 1.354 1_554 S
N1348 C1340 1.356 . S
N1348 H1354 0.984 . S
N1348 H1355 0.984 1_554 S
N1349 C1342 1.356 . S
N1349 H1352 0.984 . S
N1349 H1353 0.985 . S
H1350 N1345 0.987 . S
H1351 N1345 0.984 1_554 S
H1352 N1349 0.984 . S
H1353 N1349 0.985 . S
H1354 N1348 0.984 . S
H1355 N1348 0.984 1_556 S
H1356 N1344 0.984 . S
H1357 N1344 0.985 . S
C1358 C1359 1.363 . S
C1358 C1364 1.379 . S
C1358 N1366 1.356 . S
C1359 C1358 1.363 . S
C1359 C1365 1.363 . S
C1360 C1361 1.363 . S
C1360 C1365 1.379 . S
C1360 N1367 1.356 . S
C1361 C1360 1.363 . S
C1361 C1364 1.363 . S
N1362 C1364 1.356 . S
N1362 H1374 0.984 . S
N1362 H1375 0.985 . S
N1363 C1365 1.356 . S
N1363 H1368 0.984 1_556 S
N1363 H1369 0.985 . S
C1364 C1358 1.379 . S
C1364 C1361 1.363 . S
C1364 N1362 1.356 . S
C1365 C1359 1.363 . S
C1365 C1360 1.379 . S
C1365 N1363 1.356 . S
N1366 C1358 1.356 . S
N1366 H1372 0.984 . S
N1366 H1373 0.984 1_556 S
N1367 C1360 1.356 . S
N1367 H1370 0.984 . S
N1367 H1371 0.985 . S
H1368 N1363 0.984 1_554 S
H1369 N1363 0.985 . S
H1370 N1367 0.984 . S
H1371 N1367 0.985 . S
H1372 N1366 0.984 . S
H1373 N1366 0.984 1_554 S
H1374 N1362 0.984 . S
H1375 N1362 0.985 . S
C1376 C1377 1.363 . S
C1376 C1382 1.379 . S
C1376 N1384 1.356 . S
C1377 C1376 1.363 . S
C1377 C1383 1.363 . S
C1378 C1379 1.363 . S
C1378 C1383 1.379 . S
C1378 N1385 1.356 . S
C1379 C1378 1.363 . S
C1379 C1382 1.363 . S
N1380 C1382 1.356 . S
N1380 H1392 0.984 . S
N1380 H1393 0.985 . S
N1381 C1383 1.356 . S
N1381 H1386 0.984 1_554 S
N1381 H1387 0.985 . S
C1382 C1376 1.379 . S
C1382 C1379 1.363 . S
C1382 N1380 1.356 . S
C1383 C1377 1.363 . S
C1383 C1378 1.379 . S
C1383 N1381 1.356 . S
N1384 C1376 1.356 . S
N1384 H1390 0.984 . S
N1384 H1391 0.984 1_554 S
N1385 C1378 1.356 . S
N1385 H1388 0.984 . S
N1385 H1389 0.985 . S
H1386 N1381 0.984 1_556 S
H1387 N1381 0.985 . S
H1388 N1385 0.984 . S
H1389 N1385 0.985 . S
H1390 N1384 0.984 . S
H1391 N1384 0.984 1_556 S
H1392 N1380 0.984 . S
H1393 N1380 0.985 . S
C1394 C1395 1.363 . S
C1394 C1400 1.379 . S
C1394 N1402 1.356 . S
C1395 C1394 1.363 . S
C1395 C1401 1.363 . S
C1396 C1397 1.363 . S
C1396 C1401 1.379 . S
C1396 N1403 1.356 . S
C1397 C1396 1.363 . S
C1397 C1400 1.363 . S
N1398 C1400 1.356 . S
N1398 H1410 0.984 . S
N1398 H1411 0.985 . S
N1399 C1401 1.356 . S
N1399 H1404 0.984 . S
N1399 H1405 0.985 . S
C1400 C1394 1.379 . S
C1400 C1397 1.363 . S
C1400 N1398 1.356 . S
C1401 C1395 1.363 . S
C1401 C1396 1.379 . S
C1401 N1399 1.356 . S
N1402 C1394 1.356 . S
N1402 H1408 0.984 . S
N1402 H1409 0.984 . S
N1403 C1396 1.356 . S
N1403 H1406 0.984 . S
N1403 H1407 0.985 . S
H1404 N1399 0.984 . S
H1405 N1399 0.985 . S
H1406 N1403 0.984 . S
H1407 N1403 0.985 . S
H1408 N1402 0.984 . S
H1409 N1402 0.984 . S
H1410 N1398 0.984 . S
H1411 N1398 0.985 . S
C1412 C1413 1.363 . S
C1412 C1418 1.379 . S
C1412 N1420 1.356 . S
C1413 C1412 1.363 . S
C1413 C1419 1.363 . S
C1414 C1415 1.363 . S
C1414 C1419 1.379 . S
C1414 N1421 1.356 . S
C1415 C1414 1.363 . S
C1415 C1418 1.363 . S
N1416 C1418 1.356 . S
N1416 H1428 0.984 . S
N1416 H1429 0.985 . S
N1417 C1419 1.356 . S
N1417 H1422 0.984 . S
N1417 H1423 0.985 . S
C1418 C1412 1.379 . S
C1418 C1415 1.363 . S
C1418 N1416 1.356 . S
C1419 C1413 1.363 . S
C1419 C1414 1.379 . S
C1419 N1417 1.356 . S
N1420 C1412 1.356 . S
N1420 H1426 0.984 . S
N1420 H1427 0.984 . S
N1421 C1414 1.356 . S
N1421 H1424 0.984 . S
N1421 H1425 0.985 . S
H1422 N1417 0.984 . S
H1423 N1417 0.985 . S
H1424 N1421 0.984 . S
H1425 N1421 0.985 . S
H1426 N1420 0.984 . S
H1427 N1420 0.984 . S
H1428 N1416 0.984 . S
H1429 N1416 0.985 . S
C1430 C1431 1.363 . S
C1430 C1436 1.379 . S
C1430 N1438 1.356 . S
C1431 C1430 1.363 . S
C1431 C1437 1.363 . S
C1432 C1433 1.363 . S
C1432 C1437 1.379 . S
C1432 N1439 1.356 . S
C1433 C1432 1.363 . S
C1433 C1436 1.363 . S
N1434 C1436 1.356 . S
N1434 H1446 0.984 . S
N1434 H1447 0.985 1_556 S
N1435 C1437 1.356 . S
N1435 H1440 0.984 . S
N1435 H1441 0.985 . S
C1436 C1430 1.379 . S
C1436 C1433 1.363 . S
C1436 N1434 1.356 . S
C1437 C1431 1.363 . S
C1437 C1432 1.379 . S
C1437 N1435 1.356 . S
N1438 C1430 1.356 . S
N1438 H1444 0.984 . S
N1438 H1445 0.984 . S
N1439 C1432 1.356 . S
N1439 H1442 0.984 1_556 S
N1439 H1443 0.985 . S
H1440 N1435 0.984 . S
H1441 N1435 0.985 . S
H1442 N1439 0.984 1_554 S
H1443 N1439 0.985 . S
H1444 N1438 0.984 . S
H1445 N1438 0.984 . S
H1446 N1434 0.984 . S
H1447 N1434 0.985 1_554 S
C1448 C1449 1.363 . S
C1448 C1454 1.379 . S
C1448 N1456 1.356 . S
C1449 C1448 1.363 . S
C1449 C1455 1.363 . S
C1450 C1451 1.363 . S
C1450 C1455 1.379 . S
C1450 N1457 1.356 . S
C1451 C1450 1.363 . S
C1451 C1454 1.363 . S
N1452 C1454 1.356 . S
N1452 H1464 0.984 . S
N1452 H1465 0.985 . S
N1453 C1455 1.356 . S
N1453 H1458 0.984 1_556 S
N1453 H1459 0.985 . S
C1454 C1448 1.379 . S
C1454 C1451 1.363 . S
C1454 N1452 1.356 . S
C1455 C1449 1.363 . S
C1455 C1450 1.379 . S
C1455 N1453 1.356 . S
N1456 C1448 1.356 . S
N1456 H1462 0.984 . S
N1456 H1463 0.984 1_556 S
N1457 C1450 1.356 . S
N1457 H1460 0.984 . S
N1457 H1461 0.985 . S
H1458 N1453 0.984 1_554 S
H1459 N1453 0.985 . S
H1460 N1457 0.984 . S
H1461 N1457 0.985 . S
H1462 N1456 0.984 . S
H1463 N1456 0.984 1_554 S
H1464 N1452 0.984 . S
H1465 N1452 0.985 . S
C1466 C1467 1.363 . S
C1466 C1472 1.379 . S
C1466 N1474 1.356 . S
C1467 C1466 1.363 . S
C1467 C1473 1.363 . S
C1468 C1469 1.363 . S
C1468 C1473 1.379 . S
C1468 N1475 1.356 . S
C1469 C1468 1.363 . S
C1469 C1472 1.363 . S
N1470 C1472 1.356 . S
N1470 H1482 0.984 . S
N1470 H1483 0.985 1_554 S
N1471 C1473 1.356 . S
N1471 H1476 0.984 . S
N1471 H1477 0.985 . S
C1472 C1466 1.379 . S
C1472 C1469 1.363 . S
C1472 N1470 1.356 . S
C1473 C1467 1.363 . S
C1473 C1468 1.379 . S
C1473 N1471 1.356 . S
N1474 C1466 1.356 . S
N1474 H1480 0.984 . S
N1474 H1481 0.984 . S
N1475 C1468 1.356 . S
N1475 H1478 0.984 1_554 S
N1475 H1479 0.985 . S
H1476 N1471 0.984 . S
H1477 N1471 0.985 . S
H1478 N1475 0.984 1_556 S
H1479 N1475 0.985 . S
H1480 N1474 0.984 . S
H1481 N1474 0.984 . S
H1482 N1470 0.984 . S
H1483 N1470 0.985 1_556 S
C1484 C1485 1.363 . S
C1484 C1490 1.379 . S
C1484 N1492 1.356 . S
C1485 C1484 1.363 . S
C1485 C1491 1.363 . S
C1486 C1487 1.363 . S
C1486 C1491 1.379 . S
C1486 N1493 1.356 . S
C1487 C1486 1.363 . S
C1487 C1490 1.363 . S
N1488 C1490 1.356 . S
N1488 H1500 0.984 . S
N1488 H1501 0.985 . S
N1489 C1491 1.356 . S
N1489 H1494 0.984 . S
N1489 H1495 0.985 . S
C1490 C1484 1.379 . S
C1490 C1487 1.363 . S
C1490 N1488 1.356 . S
C1491 C1485 1.363 . S
C1491 C1486 1.379 . S
C1491 N1489 1.356 . S
N1492 C1484 1.356 . S
N1492 H1498 0.984 . S
N1492 H1499 0.984 . S
N1493 C1486 1.356 . S
N1493 H1496 0.984 . S
N1493 H1497 0.985 . S
H1494 N1489 0.984 . S
H1495 N1489 0.985 . S
H1496 N1493 0.984 . S
H1497 N1493 0.985 . S
H1498 N1492 0.984 . S
H1499 N1492 0.984 . S
H1500 N1488 0.984 . S
H1501 N1488 0.985 . S
C1502 C1503 1.363 . S
C1502 C1508 1.379 . S
C1502 N1510 1.356 . S
C1503 C1502 1.363 . S
C1503 C1509 1.363 . S
C1504 C1505 1.363 . S
C1504 C1509 1.379 . S
C1504 N1511 1.356 . S
C1505 C1504 1.363 . S
C1505 C1508 1.363 . S
N1506 C1508 1.356 . S
N1506 H1518 0.984 . S
N1506 H1519 0.985 . S
N1507 C1509 1.356 . S
N1507 H1512 0.984 . S
N1507 H1513 0.985 . S
C1508 C1502 1.379 . S
C1508 C1505 1.363 . S
C1508 N1506 1.356 . S
C1509 C1503 1.363 . S
C1509 C1504 1.379 . S
C1509 N1507 1.356 . S
N1510 C1502 1.356 . S
N1510 H1516 0.984 . S
N1510 H1517 0.984 . S
N1511 C1504 1.356 . S
N1511 H1514 0.984 . S
N1511 H1515 0.985 . S
H1512 N1507 0.984 . S
H1513 N1507 0.985 . S
H1514 N1511 0.984 . S
H1515 N1511 0.985 . S
H1516 N1510 0.984 . S
H1517 N1510 0.984 . S
H1518 N1506 0.984 . S
H1519 N1506 0.985 . S
C1520 C1521 1.363 . S
C1520 C1526 1.379 . S
C1520 N1528 1.356 . S
C1521 C1520 1.363 . S
C1521 C1527 1.363 . S
C1522 C1523 1.363 . S
C1522 C1527 1.379 . S
C1522 N1529 1.356 . S
C1523 C1522 1.363 . S
C1523 C1526 1.363 . S
N1524 C1526 1.356 . S
N1524 H1536 0.984 . S
N1524 H1537 0.985 . S
N1525 C1527 1.357 1_554 S
N1525 H1530 0.984 . S
N1525 H1531 0.985 1_554 S
C1526 C1520 1.379 . S
C1526 C1523 1.363 . S
C1526 N1524 1.356 . S
C1527 C1521 1.363 . S
C1527 C1522 1.379 . S
C1527 N1525 1.357 1_556 S
N1528 C1520 1.356 . S
N1528 H1534 0.984 . S
N1528 H1535 0.984 1_556 S
N1529 C1522 1.356 . S
N1529 H1532 0.984 . S
N1529 H1533 0.985 . S
H1530 N1525 0.984 . S
H1531 N1525 0.985 1_556 S
H1532 N1529 0.984 . S
H1533 N1529 0.985 . S
H1534 N1528 0.984 . S
H1535 N1528 0.984 1_554 S
H1536 N1524 0.984 . S
H1537 N1524 0.985 . S
C1538 C1539 1.363 . S
C1538 C1544 1.379 . S
C1538 N1546 1.356 . S
C1539 C1538 1.363 . S
C1539 C1545 1.363 . S
C1540 C1541 1.363 . S
C1540 C1545 1.379 . S
C1540 N1547 1.356 . S
C1541 C1540 1.363 . S
C1541 C1544 1.363 . S
N1542 C1544 1.356 . S
N1542 H1554 0.984 . S
N1542 H1555 0.985 . S
N1543 C1545 1.356 . S
N1543 H1548 0.984 . S
N1543 H1549 0.985 . S
C1544 C1538 1.379 . S
C1544 C1541 1.363 . S
C1544 N1542 1.356 . S
C1545 C1539 1.363 . S
C1545 C1540 1.379 . S
C1545 N1543 1.356 . S
N1546 C1538 1.356 . S
N1546 H1552 0.984 . S
N1546 H1553 0.984 . S
N1547 C1540 1.356 . S
N1547 H1550 0.984 . S
N1547 H1551 0.985 . S
H1548 N1543 0.984 . S
H1549 N1543 0.985 . S
H1550 N1547 0.984 . S
H1551 N1547 0.985 . S
H1552 N1546 0.984 . S
H1553 N1546 0.984 . S
H1554 N1542 0.984 . S
H1555 N1542 0.985 . S
C1556 C1557 1.363 . S
C1556 C1562 1.379 . S
C1556 N1564 1.356 . S
C1557 C1556 1.363 . S
C1557 C1563 1.363 . S
C1558 C1559 1.363 . S
C1558 C1563 1.379 . S
C1558 N1565 1.356 . S
C1559 C1558 1.363 . S
C1559 C1562 1.363 . S
N1560 C1562 1.356 . S
N1560 H1572 0.984 . S
N1560 H1573 0.985 . S
N1561 C1563 1.356 . S
N1561 H1566 0.984 . S
N1561 H1567 0.985 . S
C1562 C1556 1.379 . S
C1562 C1559 1.363 . S
C1562 N1560 1.356 . S
C1563 C1557 1.363 . S
C1563 C1558 1.379 . S
C1563 N1561 1.356 . S
N1564 C1556 1.356 . S
N1564 H1570 0.984 . S
N1564 H1571 0.984 . S
N1565 C1558 1.356 . S
N1565 H1568 0.984 . S
N1565 H1569 0.985 . S
H1566 N1561 0.984 . S
H1567 N1561 0.985 . S
H1568 N1565 0.984 . S
H1569 N1565 0.985 . S
H1570 N1564 0.984 . S
H1571 N1564 0.984 . S
H1572 N1560 0.984 . S
H1573 N1560 0.985 . S
C1574 C1575 1.363 . S
C1574 C1580 1.379 . S
C1574 N1582 1.356 . S
C1575 C1574 1.363 . S
C1575 C1581 1.363 . S
C1576 C1577 1.363 . S
C1576 C1581 1.379 . S
C1576 N1583 1.356 . S
C1577 C1576 1.363 . S
C1577 C1580 1.363 . S
N1578 C1580 1.356 . S
N1578 H1590 0.984 . S
N1578 H1591 0.985 . S
N1579 C1581 1.356 . S
N1579 H1584 0.984 1_554 S
N1579 H1585 0.985 . S
C1580 C1574 1.379 . S
C1580 C1577 1.363 . S
C1580 N1578 1.356 . S
C1581 C1575 1.363 . S
C1581 C1576 1.379 . S
C1581 N1579 1.356 . S
N1582 C1574 1.356 . S
N1582 H1588 0.984 . S
N1582 H1589 0.984 1_554 S
N1583 C1576 1.356 . S
N1583 H1586 0.984 . S
N1583 H1587 0.985 . S
H1584 N1579 0.984 1_556 S
H1585 N1579 0.985 . S
H1586 N1583 0.984 . S
H1587 N1583 0.985 . S
H1588 N1582 0.984 . S
H1589 N1582 0.984 1_556 S
H1590 N1578 0.984 . S
H1591 N1578 0.985 . S
C1592 C1593 1.363 . S
C1592 C1598 1.379 . S
C1592 N1600 1.356 . S
C1593 C1592 1.363 . S
C1593 C1599 1.363 . S
C1594 C1595 1.363 . S
C1594 C1599 1.379 . S
C1594 N1601 1.356 . S
C1595 C1594 1.363 . S
C1595 C1598 1.363 . S
N1596 C1598 1.356 . S
N1596 H1608 0.984 . S
N1596 H1609 0.985 1_554 S
N1597 C1599 1.356 . S
N1597 H1602 0.984 . S
N1597 H1603 0.985 . S
C1598 C1592 1.379 . S
C1598 C1595 1.363 . S
C1598 N1596 1.356 . S
C1599 C1593 1.363 . S
C1599 C1594 1.379 . S
C1599 N1597 1.356 . S
N1600 C1592 1.356 . S
N1600 H1606 0.984 . S
N1600 H1607 0.984 . S
N1601 C1594 1.356 . S
N1601 H1604 0.984 1_554 S
N1601 H1605 0.985 . S
H1602 N1597 0.984 . S
H1603 N1597 0.985 . S
H1604 N1601 0.984 1_556 S
H1605 N1601 0.985 . S
H1606 N1600 0.984 . S
H1607 N1600 0.984 . S
H1608 N1596 0.984 . S
H1609 N1596 0.985 1_556 S
C1610 C1611 1.363 . S
C1610 C1616 1.379 . S
C1610 N1618 1.356 . S
C1611 C1610 1.363 . S
C1611 C1617 1.363 . S
C1612 C1613 1.363 . S
C1612 C1617 1.379 . S
C1612 N1619 1.356 . S
C1613 C1612 1.363 . S
C1613 C1616 1.363 . S
N1614 C1616 1.356 . S
N1614 H1626 0.984 . S
N1614 H1627 0.985 . S
N1615 C1617 1.356 . S
N1615 H1620 0.984 1_556 S
N1615 H1621 0.985 . S
C1616 C1610 1.379 . S
C1616 C1613 1.363 . S
C1616 N1614 1.356 . S
C1617 C1611 1.363 . S
C1617 C1612 1.379 . S
C1617 N1615 1.356 . S
N1618 C1610 1.356 . S
N1618 H1624 0.984 . S
N1618 H1625 0.984 1_556 S
N1619 C1612 1.356 . S
N1619 H1622 0.984 . S
N1619 H1623 0.985 . S
H1620 N1615 0.984 1_554 S
H1621 N1615 0.985 . S
H1622 N1619 0.984 . S
H1623 N1619 0.985 . S
H1624 N1618 0.984 . S
H1625 N1618 0.984 1_554 S
H1626 N1614 0.984 . S
H1627 N1614 0.985 . S
C1628 C1629 1.363 . S
C1628 C1634 1.379 . S
C1628 N1636 1.356 . S
C1629 C1628 1.363 . S
C1629 C1635 1.363 . S
C1630 C1631 1.363 . S
C1630 C1635 1.379 . S
C1630 N1637 1.356 . S
C1631 C1630 1.363 . S
C1631 C1634 1.363 . S
N1632 C1634 1.356 . S
N1632 H1644 0.984 . S
N1632 H1645 0.985 . S
N1633 C1635 1.356 . S
N1633 H1638 0.984 . S
N1633 H1639 0.985 . S
C1634 C1628 1.379 . S
C1634 C1631 1.363 . S
C1634 N1632 1.356 . S
C1635 C1629 1.363 . S
C1635 C1630 1.379 . S
C1635 N1633 1.356 . S
N1636 C1628 1.356 . S
N1636 H1642 0.984 . S
N1636 H1643 0.984 . S
N1637 C1630 1.356 . S
N1637 H1640 0.984 . S
N1637 H1641 0.985 . S
H1638 N1633 0.984 . S
H1639 N1633 0.985 . S
H1640 N1637 0.984 . S
H1641 N1637 0.985 . S
H1642 N1636 0.984 . S
H1643 N1636 0.984 . S
H1644 N1632 0.984 . S
H1645 N1632 0.985 . S
C1646 C1647 1.363 . S
C1646 C1652 1.379 . S
C1646 N1654 1.356 . S
C1647 C1646 1.363 . S
C1647 C1653 1.363 . S
C1648 C1649 1.363 . S
C1648 C1653 1.379 . S
C1648 N1655 1.356 . S
C1649 C1648 1.363 . S
C1649 C1652 1.363 . S
N1650 C1652 1.356 . S
N1650 H1662 0.984 . S
N1650 H1663 0.985 . S
N1651 C1653 1.356 . S
N1651 H1656 0.984 . S
N1651 H1657 0.985 . S
C1652 C1646 1.379 . S
C1652 C1649 1.363 . S
C1652 N1650 1.356 . S
C1653 C1647 1.363 . S
C1653 C1648 1.379 . S
C1653 N1651 1.356 . S
N1654 C1646 1.356 . S
N1654 H1660 0.984 . S
N1654 H1661 0.984 . S
N1655 C1648 1.356 . S
N1655 H1658 0.984 . S
N1655 H1659 0.985 . S
H1656 N1651 0.984 . S
H1657 N1651 0.985 . S
H1658 N1655 0.984 . S
H1659 N1655 0.985 . S
H1660 N1654 0.984 . S
H1661 N1654 0.984 . S
H1662 N1650 0.984 . S
H1663 N1650 0.985 . S
C1664 C1665 1.363 . S
C1664 C1670 1.379 . S
C1664 N1672 1.356 . S
C1665 C1664 1.363 . S
C1665 C1671 1.363 . S
C1666 C1667 1.363 . S
C1666 C1671 1.379 . S
C1666 N1673 1.356 . S
C1667 C1666 1.363 . S
C1667 C1670 1.363 . S
N1668 C1670 1.356 . S
N1668 H1680 0.984 . S
N1668 H1681 0.985 . S
N1669 C1671 1.356 . S
N1669 H1674 0.984 . S
N1669 H1675 0.985 . S
C1670 C1664 1.379 . S
C1670 C1667 1.363 . S
C1670 N1668 1.356 . S
C1671 C1665 1.363 . S
C1671 C1666 1.379 . S
C1671 N1669 1.356 . S
N1672 C1664 1.356 . S
N1672 H1678 0.984 . S
N1672 H1679 0.984 . S
N1673 C1666 1.356 . S
N1673 H1676 0.984 . S
N1673 H1677 0.985 . S
H1674 N1669 0.984 . S
H1675 N1669 0.985 . S
H1676 N1673 0.984 . S
H1677 N1673 0.985 . S
H1678 N1672 0.984 . S
H1679 N1672 0.984 . S
H1680 N1668 0.984 . S
H1681 N1668 0.985 . S
C1682 C1683 1.363 . S
C1682 C1688 1.379 . S
C1682 N1690 1.356 . S
C1683 C1682 1.363 . S
C1683 C1689 1.363 . S
C1684 C1685 1.363 . S
C1684 C1689 1.379 . S
C1684 N1691 1.356 . S
C1685 C1684 1.363 . S
C1685 C1688 1.363 . S
N1686 C1688 1.356 . S
N1686 H1698 0.984 . S
N1686 H1699 0.985 . S
N1687 C1689 1.356 . S
N1687 H1692 0.984 . S
N1687 H1693 0.985 . S
C1688 C1682 1.379 . S
C1688 C1685 1.363 . S
C1688 N1686 1.356 . S
C1689 C1683 1.363 . S
C1689 C1684 1.379 . S
C1689 N1687 1.356 . S
N1690 C1682 1.356 . S
N1690 H1696 0.984 . S
N1690 H1697 0.984 . S
N1691 C1684 1.356 . S
N1691 H1694 0.984 . S
N1691 H1695 0.985 . S
H1692 N1687 0.984 . S
H1693 N1687 0.985 . S
H1694 N1691 0.984 . S
H1695 N1691 0.985 . S
H1696 N1690 0.984 . S
H1697 N1690 0.984 . S
H1698 N1686 0.984 . S
H1699 N1686 0.985 . S
C1700 C1701 1.363 . S
C1700 C1706 1.379 . S
C1700 N1708 1.356 . S
C1701 C1700 1.363 . S
C1701 C1707 1.363 . S
C1702 C1703 1.363 . S
C1702 C1707 1.379 . S
C1702 N1709 1.356 . S
C1703 C1702 1.363 . S
C1703 C1706 1.363 . S
N1704 C1706 1.356 . S
N1704 H1716 0.984 . S
N1704 H1717 0.985 . S
N1705 C1707 1.356 . S
N1705 H1710 0.984 . S
N1705 H1711 0.985 . S
C1706 C1700 1.379 . S
C1706 C1703 1.363 . S
C1706 N1704 1.356 . S
C1707 C1701 1.363 . S
C1707 C1702 1.379 . S
C1707 N1705 1.356 . S
N1708 C1700 1.356 . S
N1708 H1714 0.984 . S
N1708 H1715 0.984 . S
N1709 C1702 1.356 . S
N1709 H1712 0.984 . S
N1709 H1713 0.985 . S
H1710 N1705 0.984 . S
H1711 N1705 0.985 . S
H1712 N1709 0.984 . S
H1713 N1709 0.985 . S
H1714 N1708 0.984 . S
H1715 N1708 0.984 . S
H1716 N1704 0.984 . S
H1717 N1704 0.985 . S
C1718 C1719 1.363 . S
C1718 C1724 1.379 . S
C1718 N1726 1.356 . S
C1719 C1718 1.363 . S
C1719 C1725 1.363 . S
C1720 C1721 1.363 . S
C1720 C1725 1.379 . S
C1720 N1727 1.356 . S
C1721 C1720 1.363 . S
C1721 C1724 1.363 . S
N1722 C1724 1.356 . S
N1722 H1734 0.984 . S
N1722 H1735 0.985 . S
N1723 C1725 1.356 . S
N1723 H1728 0.984 . S
N1723 H1729 0.985 1_556 S
C1724 C1718 1.379 . S
C1724 C1721 1.363 . S
C1724 N1722 1.356 . S
C1725 C1719 1.363 . S
C1725 C1720 1.379 . S
C1725 N1723 1.356 . S
N1726 C1718 1.356 . S
N1726 H1732 0.984 . S
N1726 H1733 0.984 . S
N1727 C1720 1.356 . S
N1727 H1730 0.984 . S
N1727 H1731 0.985 . S
H1728 N1723 0.984 . S
H1729 N1723 0.985 1_554 S
H1730 N1727 0.984 . S
H1731 N1727 0.985 . S
H1732 N1726 0.984 . S
H1733 N1726 0.984 . S
H1734 N1722 0.984 . S
H1735 N1722 0.985 . S
C1736 C1737 1.363 . S
C1736 C1742 1.379 . S
C1736 N1744 1.356 . S
C1737 C1736 1.363 . S
C1737 C1743 1.363 . S
C1738 C1739 1.363 . S
C1738 C1743 1.379 . S
C1738 N1745 1.356 . S
C1739 C1738 1.363 . S
C1739 C1742 1.363 . S
N1740 C1742 1.356 . S
N1740 H1752 0.984 . S
N1740 H1753 0.985 . S
N1741 C1743 1.356 . S
N1741 H1746 0.984 . S
N1741 H1747 0.985 1_556 S
C1742 C1736 1.379 . S
C1742 C1739 1.363 . S
C1742 N1740 1.356 . S
C1743 C1737 1.363 . S
C1743 C1738 1.379 . S
C1743 N1741 1.356 . S
N1744 C1736 1.356 . S
N1744 H1750 0.984 . S
N1744 H1751 0.984 . S
N1745 C1738 1.356 . S
N1745 H1748 0.984 . S
N1745 H1749 0.985 1_556 S
H1746 N1741 0.984 . S
H1747 N1741 0.985 1_554 S
H1748 N1745 0.984 . S
H1749 N1745 0.985 1_554 S
H1750 N1744 0.984 . S
H1751 N1744 0.984 . S
H1752 N1740 0.984 . S
H1753 N1740 0.985 . S
C1754 C1755 1.363 . S
C1754 C1760 1.379 . S
C1754 N1762 1.356 1_554 S
C1755 C1754 1.363 . S
C1755 C1761 1.363 . S
C1756 C1757 1.363 . S
C1756 C1761 1.379 . S
C1756 N1763 1.356 . S
C1757 C1756 1.363 . S
C1757 C1760 1.363 . S
N1758 C1760 1.356 . S
N1758 H1770 0.984 1_554 S
N1758 H1771 0.985 . S
N1759 C1761 1.356 . S
N1759 H1764 0.984 . S
N1759 H1765 0.985 . S
C1760 C1754 1.379 . S
C1760 C1757 1.363 . S
C1760 N1758 1.356 . S
C1761 C1755 1.363 . S
C1761 C1756 1.379 . S
C1761 N1759 1.356 . S
N1762 C1754 1.356 1_556 S
N1762 H1768 0.984 . S
N1762 H1769 0.984 . S
N1763 C1756 1.356 . S
N1763 H1766 0.984 . S
N1763 H1767 0.985 . S
H1764 N1759 0.984 . S
H1765 N1759 0.985 . S
H1766 N1763 0.984 . S
H1767 N1763 0.985 . S
H1768 N1762 0.984 . S
H1769 N1762 0.984 . S
H1770 N1758 0.984 1_556 S
H1771 N1758 0.985 . S
C1772 C1773 1.363 . S
C1772 C1778 1.379 . S
C1772 N1780 1.356 . S
C1773 C1772 1.363 . S
C1773 C1779 1.363 . S
C1774 C1775 1.363 . S
C1774 C1779 1.379 . S
C1774 N1781 1.356 . S
C1775 C1774 1.363 . S
C1775 C1778 1.363 . S
N1776 C1778 1.356 . S
N1776 H1788 0.984 . S
N1776 H1789 0.985 . S
N1777 C1779 1.356 . S
N1777 H1782 0.984 . S
N1777 H1783 0.985 . S
C1778 C1772 1.379 . S
C1778 C1775 1.363 . S
C1778 N1776 1.356 . S
C1779 C1773 1.363 . S
C1779 C1774 1.379 . S
C1779 N1777 1.356 . S
N1780 C1772 1.356 . S
N1780 H1786 0.984 . S
N1780 H1787 0.984 . S
N1781 C1774 1.356 . S
N1781 H1784 0.984 . S
N1781 H1785 0.985 . S
H1782 N1777 0.984 . S
H1783 N1777 0.985 . S
H1784 N1781 0.984 . S
H1785 N1781 0.985 . S
H1786 N1780 0.984 . S
H1787 N1780 0.984 . S
H1788 N1776 0.984 . S
H1789 N1776 0.985 . S
C1790 C1791 1.363 . S
C1790 C1796 1.379 . S
C1790 N1798 1.356 . S
C1791 C1790 1.363 . S
C1791 C1797 1.363 . S
C1792 C1793 1.363 . S
C1792 C1797 1.379 . S
C1792 N1799 1.356 . S
C1793 C1792 1.363 . S
C1793 C1796 1.363 . S
N1794 C1796 1.356 . S
N1794 H1806 0.984 . S
N1794 H1807 0.985 . S
N1795 C1797 1.356 . S
N1795 H1800 0.984 . S
N1795 H1801 0.985 . S
C1796 C1790 1.379 . S
C1796 C1793 1.363 . S
C1796 N1794 1.356 . S
C1797 C1791 1.363 . S
C1797 C1792 1.379 . S
C1797 N1795 1.356 . S
N1798 C1790 1.356 . S
N1798 H1804 0.984 . S
N1798 H1805 0.984 . S
N1799 C1792 1.356 . S
N1799 H1802 0.984 . S
N1799 H1803 0.985 . S
H1800 N1795 0.984 . S
H1801 N1795 0.985 . S
H1802 N1799 0.984 . S
H1803 N1799 0.985 . S
H1804 N1798 0.984 . S
H1805 N1798 0.984 . S
H1806 N1794 0.984 . S
H1807 N1794 0.985 . S
C1808 C1809 1.363 . S
C1808 C1814 1.379 . S
C1808 N1816 1.356 . S
C1809 C1808 1.363 . S
C1809 C1815 1.363 . S
C1810 C1811 1.363 . S
C1810 C1815 1.379 . S
C1810 N1817 1.356 1_556 S
C1811 C1810 1.363 . S
C1811 C1814 1.363 . S
N1812 C1814 1.356 . S
N1812 H1824 0.984 . S
N1812 H1825 0.985 . S
N1813 C1815 1.356 . S
N1813 H1818 0.984 . S
N1813 H1819 0.985 1_556 S
C1814 C1808 1.379 . S
C1814 C1811 1.363 . S
C1814 N1812 1.356 . S
C1815 C1809 1.363 . S
C1815 C1810 1.379 . S
C1815 N1813 1.356 . S
N1816 C1808 1.356 . S
N1816 H1822 0.984 . S
N1816 H1823 0.984 . S
N1817 C1810 1.356 1_554 S
N1817 H1820 0.984 . S
N1817 H1821 0.985 . S
H1818 N1813 0.984 . S
H1819 N1813 0.985 1_554 S
H1820 N1817 0.984 . S
H1821 N1817 0.985 . S
H1822 N1816 0.984 . S
H1823 N1816 0.984 . S
H1824 N1812 0.984 . S
H1825 N1812 0.985 . S
C1826 C1827 1.363 . S
C1826 C1832 1.379 . S
C1826 N1834 1.356 . S
C1827 C1826 1.363 . S
C1827 C1833 1.363 . S
C1828 C1829 1.363 . S
C1828 C1833 1.379 . S
C1828 N1835 1.356 . S
C1829 C1828 1.363 . S
C1829 C1832 1.363 . S
N1830 C1832 1.356 . S
N1830 H1842 0.984 . S
N1830 H1843 0.985 . S
N1831 C1833 1.356 . S
N1831 H1836 0.984 . S
N1831 H1837 0.985 . S
C1832 C1826 1.379 . S
C1832 C1829 1.363 . S
C1832 N1830 1.356 . S
C1833 C1827 1.363 . S
C1833 C1828 1.379 . S
C1833 N1831 1.356 . S
N1834 C1826 1.356 . S
N1834 H1840 0.984 . S
N1834 H1841 0.984 . S
N1835 C1828 1.356 . S
N1835 H1838 0.984 . S
N1835 H1839 0.985 . S
H1836 N1831 0.984 . S
H1837 N1831 0.985 . S
H1838 N1835 0.984 . S
H1839 N1835 0.985 . S
H1840 N1834 0.984 . S
H1841 N1834 0.984 . S
H1842 N1830 0.984 . S
H1843 N1830 0.985 . S
C1844 C1845 1.363 . S
C1844 C1850 1.379 . S
C1844 N1852 1.356 . S
C1845 C1844 1.363 . S
C1845 C1851 1.363 . S
C1846 C1847 1.363 . S
C1846 C1851 1.379 . S
C1846 N1853 1.356 . S
C1847 C1846 1.363 . S
C1847 C1850 1.363 . S
N1848 C1850 1.356 . S
N1848 H1860 0.984 . S
N1848 H1861 0.985 . S
N1849 C1851 1.356 . S
N1849 H1854 0.984 . S
N1849 H1855 0.985 . S
C1850 C1844 1.379 . S
C1850 C1847 1.363 . S
C1850 N1848 1.356 . S
C1851 C1845 1.363 . S
C1851 C1846 1.379 . S
C1851 N1849 1.356 . S
N1852 C1844 1.356 . S
N1852 H1858 0.984 . S
N1852 H1859 0.984 . S
N1853 C1846 1.356 . S
N1853 H1856 0.984 . S
N1853 H1857 0.985 . S
H1854 N1849 0.984 . S
H1855 N1849 0.985 . S
H1856 N1853 0.984 . S
H1857 N1853 0.985 . S
H1858 N1852 0.984 . S
H1859 N1852 0.984 . S
H1860 N1848 0.984 . S
H1861 N1848 0.985 . S
C1862 C1863 1.363 . S
C1862 C1868 1.379 . S
C1862 N1870 1.356 . S
C1863 C1862 1.363 . S
C1863 C1869 1.363 . S
C1864 C1865 1.363 . S
C1864 C1869 1.379 . S
C1864 N1871 1.356 . S
C1865 C1864 1.363 . S
C1865 C1868 1.363 . S
N1866 C1868 1.356 . S
N1866 H1878 0.984 . S
N1866 H1879 0.985 . S
N1867 C1869 1.356 . S
N1867 H1872 0.984 . S
N1867 H1873 0.985 . S
C1868 C1862 1.379 . S
C1868 C1865 1.363 . S
C1868 N1866 1.356 . S
C1869 C1863 1.363 . S
C1869 C1864 1.379 . S
C1869 N1867 1.356 . S
N1870 C1862 1.356 . S
N1870 H1876 0.984 . S
N1870 H1877 0.984 . S
N1871 C1864 1.356 . S
N1871 H1874 0.984 . S
N1871 H1875 0.985 . S
H1872 N1867 0.984 . S
H1873 N1867 0.985 . S
H1874 N1871 0.984 . S
H1875 N1871 0.985 . S
H1876 N1870 0.984 . S
H1877 N1870 0.984 . S
H1878 N1866 0.984 . S
H1879 N1866 0.985 . S
C1880 C1881 1.363 . S
C1880 C1886 1.379 . S
C1880 N1888 1.356 . S
C1881 C1880 1.363 . S
C1881 C1887 1.363 . S
C1882 C1883 1.363 . S
C1882 C1887 1.379 . S
C1882 N1889 1.356 . S
C1883 C1882 1.363 . S
C1883 C1886 1.363 . S
N1884 C1886 1.356 . S
N1884 H1896 0.984 . S
N1884 H1897 0.985 . S
N1885 C1887 1.356 . S
N1885 H1890 0.984 . S
N1885 H1891 0.985 . S
C1886 C1880 1.379 . S
C1886 C1883 1.363 . S
C1886 N1884 1.356 . S
C1887 C1881 1.363 . S
C1887 C1882 1.379 . S
C1887 N1885 1.356 . S
N1888 C1880 1.356 . S
N1888 H1894 0.984 1_554 S
N1888 H1895 0.984 . S
N1889 C1882 1.356 . S
N1889 H1892 0.984 . S
N1889 H1893 0.985 . S
H1890 N1885 0.984 . S
H1891 N1885 0.985 . S
H1892 N1889 0.984 . S
H1893 N1889 0.985 . S
H1894 N1888 0.984 1_556 S
H1895 N1888 0.984 . S
H1896 N1884 0.984 . S
H1897 N1884 0.985 . S
C1898 C1899 1.363 . S
C1898 C1904 1.379 . S
C1898 N1906 1.356 . S
C1899 C1898 1.363 . S
C1899 C1905 1.363 . S
C1900 C1901 1.363 . S
C1900 C1905 1.379 . S
C1900 N1907 1.356 . S
C1901 C1900 1.363 . S
C1901 C1904 1.363 . S
N1902 C1904 1.356 . S
N1902 H1914 0.984 . S
N1902 H1915 0.985 . S
N1903 C1905 1.356 . S
N1903 H1908 0.984 . S
N1903 H1909 0.985 1_556 S
C1904 C1898 1.379 . S
C1904 C1901 1.363 . S
C1904 N1902 1.356 . S
C1905 C1899 1.363 . S
C1905 C1900 1.379 . S
C1905 N1903 1.356 . S
N1906 C1898 1.356 . S
N1906 H1912 0.984 . S
N1906 H1913 0.984 . S
N1907 C1900 1.356 . S
N1907 H1910 0.984 . S
N1907 H1911 0.985 1_556 S
H1908 N1903 0.984 . S
H1909 N1903 0.985 1_554 S
H1910 N1907 0.984 . S
H1911 N1907 0.985 1_554 S
H1912 N1906 0.984 . S
H1913 N1906 0.984 . S
H1914 N1902 0.984 . S
H1915 N1902 0.985 . S
C1916 C1917 1.363 . S
C1916 C1922 1.379 . S
C1916 N1924 1.356 . S
C1917 C1916 1.363 . S
C1917 C1923 1.363 . S
C1918 C1919 1.363 . S
C1918 C1923 1.379 . S
C1918 N1925 1.356 . S
C1919 C1918 1.363 . S
C1919 C1922 1.363 . S
N1920 C1922 1.356 . S
N1920 H1932 0.984 . S
N1920 H1933 0.985 . S
N1921 C1923 1.356 . S
N1921 H1926 0.984 . S
N1921 H1927 0.985 . S
C1922 C1916 1.379 . S
C1922 C1919 1.363 . S
C1922 N1920 1.356 . S
C1923 C1917 1.363 . S
C1923 C1918 1.379 . S
C1923 N1921 1.356 . S
N1924 C1916 1.356 . S
N1924 H1930 0.984 . S
N1924 H1931 0.984 . S
N1925 C1918 1.356 . S
N1925 H1928 0.984 . S
N1925 H1929 0.985 . S
H1926 N1921 0.984 . S
H1927 N1921 0.985 . S
H1928 N1925 0.984 . S
H1929 N1925 0.985 . S
H1930 N1924 0.984 . S
H1931 N1924 0.984 . S
H1932 N1920 0.984 . S
H1933 N1920 0.985 . S
C1934 C1935 1.363 . S
C1934 C1940 1.379 . S
C1934 N1942 1.356 . S
C1935 C1934 1.363 . S
C1935 C1941 1.363 . S
C1936 C1937 1.363 . S
C1936 C1941 1.379 . S
C1936 N1943 1.356 . S
C1937 C1936 1.363 . S
C1937 C1940 1.363 . S
N1938 C1940 1.356 . S
N1938 H1950 0.984 . S
N1938 H1951 0.985 . S
N1939 C1941 1.356 . S
N1939 H1944 0.984 . S
N1939 H1945 0.985 . S
C1940 C1934 1.379 . S
C1940 C1937 1.363 . S
C1940 N1938 1.356 . S
C1941 C1935 1.363 . S
C1941 C1936 1.379 . S
C1941 N1939 1.356 . S
N1942 C1934 1.356 . S
N1942 H1948 0.984 . S
N1942 H1949 0.984 . S
N1943 C1936 1.356 . S
N1943 H1946 0.984 . S
N1943 H1947 0.985 . S
H1944 N1939 0.984 . S
H1945 N1939 0.985 . S
H1946 N1943 0.984 . S
H1947 N1943 0.985 . S
H1948 N1942 0.984 . S
H1949 N1942 0.984 . S
H1950 N1938 0.984 . S
H1951 N1938 0.985 . S
C1952 C1953 1.363 . S
C1952 C1958 1.379 . S
C1952 N1960 1.356 . S
C1953 C1952 1.363 . S
C1953 C1959 1.363 1_556 S
C1954 C1955 1.363 . S
C1954 C1959 1.379 . S
C1954 N1961 1.356 . S
C1955 C1954 1.363 . S
C1955 C1958 1.363 1_554 S
N1956 C1958 1.356 . S
N1956 H1968 0.984 . S
N1956 H1969 0.983 1_556 S
N1957 C1959 1.356 . S
N1957 H1962 0.983 1_554 S
N1957 H1963 0.985 . S
C1958 C1952 1.379 . S
C1958 C1955 1.363 1_556 S
C1958 N1956 1.356 . S
C1959 C1953 1.363 1_554 S
C1959 C1954 1.379 . S
C1959 N1957 1.356 . S
N1960 C1952 1.356 . S
N1960 H1966 0.984 . S
N1960 H1967 0.984 . S
N1961 C1954 1.356 . S
N1961 H1964 0.984 . S
N1961 H1965 0.985 . S
H1962 N1957 0.983 1_556 S
H1963 N1957 0.985 . S
H1964 N1961 0.984 . S
H1965 N1961 0.985 . S
H1966 N1960 0.984 . S
H1967 N1960 0.984 . S
H1968 N1956 0.984 . S
H1969 N1956 0.983 1_554 S
C1970 C1971 1.363 . S
C1970 C1976 1.379 . S
C1970 N1978 1.356 . S
C1971 C1970 1.363 . S
C1971 C1977 1.363 . S
C1972 C1973 1.363 . S
C1972 C1977 1.379 . S
C1972 N1979 1.356 . S
C1973 C1972 1.363 . S
C1973 C1976 1.363 . S
N1974 C1976 1.356 . S
N1974 H1986 0.984 . S
N1974 H1987 0.985 . S
N1975 C1977 1.356 . S
N1975 H1980 0.984 . S
N1975 H1981 0.985 . S
C1976 C1970 1.379 . S
C1976 C1973 1.363 . S
C1976 N1974 1.356 . S
C1977 C1971 1.363 . S
C1977 C1972 1.379 . S
C1977 N1975 1.356 . S
N1978 C1970 1.356 . S
N1978 H1984 0.984 . S
N1978 H1985 0.984 . S
N1979 C1972 1.356 . S
N1979 H1982 0.984 . S
N1979 H1983 0.985 . S
H1980 N1975 0.984 . S
H1981 N1975 0.985 . S
H1982 N1979 0.984 . S
H1983 N1979 0.985 . S
H1984 N1978 0.984 . S
H1985 N1978 0.984 . S
H1986 N1974 0.984 . S
H1987 N1974 0.985 . S
C1988 C1989 1.363 . S
C1988 C1994 1.379 . S
C1988 N1996 1.356 . S
C1989 C1988 1.363 . S
C1989 C1995 1.363 . S
C1990 C1991 1.363 . S
C1990 C1995 1.379 . S
C1990 N1997 1.356 . S
C1991 C1990 1.363 . S
C1991 C1994 1.363 . S
N1992 C1994 1.356 . S
N1992 H2004 0.984 . S
N1992 H2005 0.985 . S
N1993 C1995 1.356 . S
N1993 H1998 0.984 . S
N1993 H1999 0.985 . S
C1994 C1988 1.379 . S
C1994 C1991 1.363 . S
C1994 N1992 1.356 . S
C1995 C1989 1.363 . S
C1995 C1990 1.379 . S
C1995 N1993 1.356 . S
N1996 C1988 1.356 . S
N1996 H2002 0.984 . S
N1996 H2003 0.984 . S
N1997 C1990 1.356 . S
N1997 H2000 0.984 . S
N1997 H2001 0.985 . S
H1998 N1993 0.984 . S
H1999 N1993 0.985 . S
H2000 N1997 0.984 . S
H2001 N1997 0.985 . S
H2002 N1996 0.984 . S
H2003 N1996 0.984 . S
H2004 N1992 0.984 . S
H2005 N1992 0.985 . S
C2006 C2007 1.363 . S
C2006 C2012 1.379 . S
C2006 N2014 1.356 . S
C2007 C2006 1.363 . S
C2007 C2013 1.363 . S
C2008 C2009 1.363 . S
C2008 C2013 1.379 . S
C2008 N2015 1.356 . S
C2009 C2008 1.363 . S
C2009 C2012 1.363 . S
N2010 C2012 1.356 . S
N2010 H2022 0.984 . S
N2010 H2023 0.985 . S
N2011 C2013 1.356 . S
N2011 H2016 0.984 . S
N2011 H2017 0.985 . S
C2012 C2006 1.379 . S
C2012 C2009 1.363 . S
C2012 N2010 1.356 . S
C2013 C2007 1.363 . S
C2013 C2008 1.379 . S
C2013 N2011 1.356 . S
N2014 C2006 1.356 . S
N2014 H2020 0.984 . S
N2014 H2021 0.984 . S
N2015 C2008 1.356 . S
N2015 H2018 0.984 . S
N2015 H2019 0.985 . S
H2016 N2011 0.984 . S
H2017 N2011 0.985 . S
H2018 N2015 0.984 . S
H2019 N2015 0.985 . S
H2020 N2014 0.984 . S
H2021 N2014 0.984 . S
H2022 N2010 0.984 . S
H2023 N2010 0.985 . S
C2024 C2025 1.363 . S
C2024 C2030 1.379 1_556 S
C2024 N2032 1.356 . S
C2025 C2024 1.363 . S
C2025 C2031 1.363 . S
C2026 C2027 1.363 . S
C2026 C2031 1.379 1_554 S
C2026 N2033 1.356 . S
C2027 C2026 1.363 . S
C2027 C2030 1.363 . S
N2028 C2030 1.356 . S
N2028 H2040 0.984 . S
N2028 H2041 0.985 . S
N2029 C2031 1.356 . S
N2029 H2034 0.984 . S
N2029 H2035 0.985 . S
C2030 C2024 1.379 1_554 S
C2030 C2027 1.363 . S
C2030 N2028 1.356 . S
C2031 C2025 1.363 . S
C2031 C2026 1.379 1_556 S
C2031 N2029 1.356 . S
N2032 C2024 1.356 . S
N2032 H2038 0.984 . S
N2032 H2039 0.984 . S
N2033 C2026 1.356 . S
N2033 H2036 0.984 . S
N2033 H2037 0.985 . S
H2034 N2029 0.984 . S
H2035 N2029 0.985 . S
H2036 N2033 0.984 . S
H2037 N2033 0.985 . S
H2038 N2032 0.984 . S
H2039 N2032 0.984 . S
H2040 N2028 0.984 . S
H2041 N2028 0.985 . S
C2042 C2043 1.363 . S
C2042 C2048 1.379 . S
C2042 N2050 1.356 . S
C2043 C2042 1.363 . S
C2043 C2049 1.363 . S
C2044 C2045 1.363 . S
C2044 C2049 1.379 . S
C2044 N2051 1.356 . S
C2045 C2044 1.363 . S
C2045 C2048 1.363 . S
N2046 C2048 1.356 . S
N2046 H2058 0.984 . S
N2046 H2059 0.985 . S
N2047 C2049 1.356 . S
N2047 H2052 0.984 . S
N2047 H2053 0.985 . S
C2048 C2042 1.379 . S
C2048 C2045 1.363 . S
C2048 N2046 1.356 . S
C2049 C2043 1.363 . S
C2049 C2044 1.379 . S
C2049 N2047 1.356 . S
N2050 C2042 1.356 . S
N2050 H2056 0.984 . S
N2050 H2057 0.984 . S
N2051 C2044 1.356 . S
N2051 H2054 0.984 . S
N2051 H2055 0.985 . S
H2052 N2047 0.984 . S
H2053 N2047 0.985 . S
H2054 N2051 0.984 . S
H2055 N2051 0.985 . S
H2056 N2050 0.984 . S
H2057 N2050 0.984 . S
H2058 N2046 0.984 . S
H2059 N2046 0.985 . S
C2060 C2061 1.363 . S
C2060 C2066 1.379 . S
C2060 N2068 1.356 . S
C2061 C2060 1.363 . S
C2061 C2067 1.363 . S
C2062 C2063 1.363 . S
C2062 C2067 1.379 . S
C2062 N2069 1.356 . S
C2063 C2062 1.363 . S
C2063 C2066 1.363 . S
N2064 C2066 1.356 . S
N2064 H2076 0.984 . S
N2064 H2077 0.985 . S
N2065 C2067 1.356 . S
N2065 H2070 0.984 . S
N2065 H2071 0.985 . S
C2066 C2060 1.379 . S
C2066 C2063 1.363 . S
C2066 N2064 1.356 . S
C2067 C2061 1.363 . S
C2067 C2062 1.379 . S
C2067 N2065 1.356 . S
N2068 C2060 1.356 . S
N2068 H2074 0.984 . S
N2068 H2075 0.984 . S
N2069 C2062 1.356 . S
N2069 H2072 0.984 . S
N2069 H2073 0.985 . S
H2070 N2065 0.984 . S
H2071 N2065 0.985 . S
H2072 N2069 0.984 . S
H2073 N2069 0.985 . S
H2074 N2068 0.984 . S
H2075 N2068 0.984 . S
H2076 N2064 0.984 . S
H2077 N2064 0.985 . S
C2078 C2079 1.363 . S
C2078 C2084 1.379 . S
C2078 N2086 1.356 . S
C2079 C2078 1.363 . S
C2079 C2085 1.363 . S
C2080 C2081 1.363 . S
C2080 C2085 1.379 . S
C2080 N2087 1.356 . S
C2081 C2080 1.363 . S
C2081 C2084 1.363 . S
N2082 C2084 1.356 . S
N2082 H2094 0.984 . S
N2082 H2095 0.985 . S
N2083 C2085 1.356 . S
N2083 H2088 0.984 . S
N2083 H2089 0.985 . S
C2084 C2078 1.379 . S
C2084 C2081 1.363 . S
C2084 N2082 1.356 . S
C2085 C2079 1.363 . S
C2085 C2080 1.379 . S
C2085 N2083 1.356 . S
N2086 C2078 1.356 . S
N2086 H2092 0.984 . S
N2086 H2093 0.984 . S
N2087 C2080 1.356 . S
N2087 H2090 0.984 . S
N2087 H2091 0.985 . S
H2088 N2083 0.984 . S
H2089 N2083 0.985 . S
H2090 N2087 0.984 . S
H2091 N2087 0.985 . S
H2092 N2086 0.984 . S
H2093 N2086 0.984 . S
H2094 N2082 0.984 . S
H2095 N2082 0.985 . S
C2096 C2097 1.363 . S
C2096 C2102 1.379 1_565 S
C2096 N2104 1.356 . S
C2097 C2096 1.363 . S
C2097 C2103 1.363 . S
C2098 C2099 1.363 . S
C2098 C2103 1.379 1_545 S
C2098 N2105 1.356 . S
C2099 C2098 1.363 . S
C2099 C2102 1.363 . S
N2100 C2102 1.356 . S
N2100 H2112 0.984 . S
N2100 H2113 0.985 . S
N2101 C2103 1.356 . S
N2101 H2106 0.984 . S
N2101 H2107 0.985 . S
C2102 C2096 1.379 1_545 S
C2102 C2099 1.363 . S
C2102 N2100 1.356 . S
C2103 C2097 1.363 . S
C2103 C2098 1.379 1_565 S
C2103 N2101 1.356 . S
N2104 C2096 1.356 . S
N2104 H2110 0.984 . S
N2104 H2111 0.984 . S
N2105 C2098 1.356 . S
N2105 H2108 0.984 . S
N2105 H2109 0.985 . S
H2106 N2101 0.984 . S
H2107 N2101 0.985 . S
H2108 N2105 0.984 . S
H2109 N2105 0.985 . S
H2110 N2104 0.984 . S
H2111 N2104 0.984 . S
H2112 N2100 0.984 . S
H2113 N2100 0.985 . S
C2114 C2115 1.363 . S
C2114 C2120 1.379 . S
C2114 N2122 1.356 . S
C2115 C2114 1.363 . S
C2115 C2121 1.363 . S
C2116 C2117 1.363 . S
C2116 C2121 1.379 . S
C2116 N2123 1.356 . S
C2117 C2116 1.363 . S
C2117 C2120 1.363 . S
N2118 C2120 1.356 . S
N2118 H2130 0.984 . S
N2118 H2131 0.985 . S
N2119 C2121 1.356 . S
N2119 H2124 0.984 . S
N2119 H2125 0.985 . S
C2120 C2114 1.379 . S
C2120 C2117 1.363 . S
C2120 N2118 1.356 . S
C2121 C2115 1.363 . S
C2121 C2116 1.379 . S
C2121 N2119 1.356 . S
N2122 C2114 1.356 . S
N2122 H2128 0.984 . S
N2122 H2129 0.984 . S
N2123 C2116 1.356 . S
N2123 H2126 0.984 . S
N2123 H2127 0.985 . S
H2124 N2119 0.984 . S
H2125 N2119 0.985 . S
H2126 N2123 0.984 . S
H2127 N2123 0.985 . S
H2128 N2122 0.984 . S
H2129 N2122 0.984 . S
H2130 N2118 0.984 . S
H2131 N2118 0.985 . S
C2132 C2133 1.363 1_556 S
C2132 C2138 1.379 1_565 S
C2132 N2140 1.356 . S
C2133 C2132 1.363 1_554 S
C2133 C2139 1.363 . S
C2134 C2135 1.363 1_554 S
C2134 C2139 1.379 1_545 S
C2134 N2141 1.356 . S
C2135 C2134 1.363 1_556 S
C2135 C2138 1.363 . S
N2136 C2138 1.356 . S
N2136 H2148 0.984 . S
N2136 H2149 0.985 . S
N2137 C2139 1.356 . S
N2137 H2142 0.984 . S
N2137 H2143 0.985 . S
C2138 C2132 1.379 1_545 S
C2138 C2135 1.363 . S
C2138 N2136 1.356 . S
C2139 C2133 1.363 . S
C2139 C2134 1.379 1_565 S
C2139 N2137 1.356 . S
N2140 C2132 1.356 . S
N2140 H2146 0.984 . S
N2140 H2147 0.984 . S
N2141 C2134 1.356 . S
N2141 H2144 0.984 . S
N2141 H2145 0.985 . S
H2142 N2137 0.984 . S
H2143 N2137 0.985 . S
H2144 N2141 0.984 . S
H2145 N2141 0.985 . S
H2146 N2140 0.984 . S
H2147 N2140 0.984 . S
H2148 N2136 0.984 . S
H2149 N2136 0.985 . S
C2150 C2151 1.363 . S
C2150 C2156 1.379 . S
C2150 N2158 1.356 . S
C2151 C2150 1.363 . S
C2151 C2157 1.363 . S
C2152 C2153 1.363 . S
C2152 C2157 1.379 . S
C2152 N2159 1.356 . S
C2153 C2152 1.363 . S
C2153 C2156 1.363 . S
N2154 C2156 1.356 . S
N2154 H2166 0.984 . S
N2154 H2167 0.985 . S
N2155 C2157 1.356 . S
N2155 H2160 0.984 . S
N2155 H2161 0.985 . S
C2156 C2150 1.379 . S
C2156 C2153 1.363 . S
C2156 N2154 1.356 . S
C2157 C2151 1.363 . S
C2157 C2152 1.379 . S
C2157 N2155 1.356 . S
N2158 C2150 1.356 . S
N2158 H2164 0.984 . S
N2158 H2165 0.984 . S
N2159 C2152 1.356 . S
N2159 H2162 0.984 . S
N2159 H2163 0.985 . S
H2160 N2155 0.984 . S
H2161 N2155 0.985 . S
H2162 N2159 0.984 . S
H2163 N2159 0.985 . S
H2164 N2158 0.984 . S
H2165 N2158 0.984 . S
H2166 N2154 0.984 . S
H2167 N2154 0.985 . S
C2168 C2169 1.363 . S
C2168 C2174 1.379 1_545 S
C2168 N2176 1.356 . S
C2169 C2168 1.363 . S
C2169 C2175 1.363 . S
C2170 C2171 1.363 . S
C2170 C2175 1.379 1_565 S
C2170 N2177 1.356 . S
C2171 C2170 1.363 . S
C2171 C2174 1.363 . S
N2172 C2174 1.356 . S
N2172 H2184 0.984 . S
N2172 H2185 0.985 . S
N2173 C2175 1.356 . S
N2173 H2178 0.984 . S
N2173 H2179 0.985 . S
C2174 C2168 1.379 1_565 S
C2174 C2171 1.363 . S
C2174 N2172 1.356 . S
C2175 C2169 1.363 . S
C2175 C2170 1.379 1_545 S
C2175 N2173 1.356 . S
N2176 C2168 1.356 . S
N2176 H2182 0.984 . S
N2176 H2183 0.984 . S
N2177 C2170 1.356 . S
N2177 H2180 0.984 . S
N2177 H2181 0.985 . S
H2178 N2173 0.984 . S
H2179 N2173 0.985 . S
H2180 N2177 0.984 . S
H2181 N2177 0.985 . S
H2182 N2176 0.984 . S
H2183 N2176 0.984 . S
H2184 N2172 0.984 . S
H2185 N2172 0.985 . S
C2186 C2187 1.363 . S
C2186 C2192 1.379 . S
C2186 N2194 1.356 . S
C2187 C2186 1.363 . S
C2187 C2193 1.363 . S
C2188 C2189 1.363 . S
C2188 C2193 1.379 . S
C2188 N2195 1.356 . S
C2189 C2188 1.363 . S
C2189 C2192 1.363 . S
N2190 C2192 1.356 . S
N2190 H2202 0.984 . S
N2190 H2203 0.985 . S
N2191 C2193 1.356 . S
N2191 H2196 0.984 . S
N2191 H2197 0.985 . S
C2192 C2186 1.379 . S
C2192 C2189 1.363 . S
C2192 N2190 1.356 . S
C2193 C2187 1.363 . S
C2193 C2188 1.379 . S
C2193 N2191 1.356 . S
N2194 C2186 1.356 . S
N2194 H2200 0.984 . S
N2194 H2201 0.984 . S
N2195 C2188 1.356 . S
N2195 H2198 0.984 . S
N2195 H2199 0.985 . S
H2196 N2191 0.984 . S
H2197 N2191 0.985 . S
H2198 N2195 0.984 . S
H2199 N2195 0.985 . S
H2200 N2194 0.984 . S
H2201 N2194 0.984 . S
H2202 N2190 0.984 . S
H2203 N2190 0.985 . S
C2204 C2205 1.363 1_556 S
C2204 C2210 1.379 1_565 S
C2204 N2212 1.356 . S
C2205 C2204 1.363 1_554 S
C2205 C2211 1.363 . S
C2206 C2207 1.363 1_554 S
C2206 C2211 1.379 1_545 S
C2206 N2213 1.356 . S
C2207 C2206 1.363 1_556 S
C2207 C2210 1.363 . S
N2208 C2210 1.356 . S
N2208 H2220 0.984 . S
N2208 H2221 0.985 . S
N2209 C2211 1.356 . S
N2209 H2214 0.984 . S
N2209 H2215 0.985 . S
C2210 C2204 1.379 1_545 S
C2210 C2207 1.363 . S
C2210 N2208 1.356 . S
C2211 C2205 1.363 . S
C2211 C2206 1.379 1_565 S
C2211 N2209 1.356 . S
N2212 C2204 1.356 . S
N2212 H2218 0.984 . S
N2212 H2219 0.984 . S
N2213 C2206 1.356 . S
N2213 H2216 0.984 . S
N2213 H2217 0.985 . S
H2214 N2209 0.984 . S
H2215 N2209 0.985 . S
H2216 N2213 0.984 . S
H2217 N2213 0.985 . S
H2218 N2212 0.984 . S
H2219 N2212 0.984 . S
H2220 N2208 0.984 . S
H2221 N2208 0.985 . S
C2222 C2223 1.363 . S
C2222 C2228 1.379 . S
C2222 N2230 1.356 . S
C2223 C2222 1.363 . S
C2223 C2229 1.363 . S
C2224 C2225 1.363 . S
C2224 C2229 1.379 . S
C2224 N2231 1.356 . S
C2225 C2224 1.363 . S
C2225 C2228 1.363 . S
N2226 C2228 1.356 . S
N2226 H2238 0.984 . S
N2226 H2239 0.985 . S
N2227 C2229 1.356 . S
N2227 H2232 0.984 . S
N2227 H2233 0.985 . S
C2228 C2222 1.379 . S
C2228 C2225 1.363 . S
C2228 N2226 1.356 . S
C2229 C2223 1.363 . S
C2229 C2224 1.379 . S
C2229 N2227 1.356 . S
N2230 C2222 1.356 . S
N2230 H2236 0.984 . S
N2230 H2237 0.984 . S
N2231 C2224 1.356 . S
N2231 H2234 0.984 . S
N2231 H2235 0.985 . S
H2232 N2227 0.984 . S
H2233 N2227 0.985 . S
H2234 N2231 0.984 . S
H2235 N2231 0.985 . S
H2236 N2230 0.984 . S
H2237 N2230 0.984 . S
H2238 N2226 0.984 . S
H2239 N2226 0.985 . S
C2240 C2241 1.363 . S
C2240 C2246 1.379 1_455 S
C2240 N2248 1.356 1_554 S
C2241 C2240 1.363 . S
C2241 C2247 1.363 . S
C2242 C2243 1.363 . S
C2242 C2247 1.379 1_655 S
C2242 N2249 1.356 . S
C2243 C2242 1.363 . S
C2243 C2246 1.363 . S
N2244 C2246 1.356 1_556 S
N2244 H2256 0.984 . S
N2244 H2257 0.985 . S
N2245 C2247 1.356 . S
N2245 H2250 0.984 . S
N2245 H2251 0.985 . S
C2246 C2240 1.379 1_655 S
C2246 C2243 1.363 . S
C2246 N2244 1.356 1_554 S
C2247 C2241 1.363 . S
C2247 C2242 1.379 1_455 S
C2247 N2245 1.356 . S
N2248 C2240 1.356 1_556 S
N2248 H2254 0.984 . S
N2248 H2255 0.984 . S
N2249 C2242 1.356 . S
N2249 H2252 0.984 . S
N2249 H2253 0.985 . S
H2250 N2245 0.984 . S
H2251 N2245 0.985 . S
H2252 N2249 0.984 . S
H2253 N2249 0.985 . S
H2254 N2248 0.984 . S
H2255 N2248 0.984 . S
H2256 N2244 0.984 . S
H2257 N2244 0.985 . S
C2258 C2259 1.363 . S
C2258 C2264 1.379 . S
C2258 N2266 1.356 . S
C2259 C2258 1.363 . S
C2259 C2265 1.363 . S
C2260 C2261 1.363 . S
C2260 C2265 1.379 . S
C2260 N2267 1.356 . S
C2261 C2260 1.363 . S
C2261 C2264 1.363 . S
N2262 C2264 1.356 . S
N2262 H2274 0.984 . S
N2262 H2275 0.985 . S
N2263 C2265 1.356 . S
N2263 H2268 0.984 . S
N2263 H2269 0.985 . S
C2264 C2258 1.379 . S
C2264 C2261 1.363 . S
C2264 N2262 1.356 . S
C2265 C2259 1.363 . S
C2265 C2260 1.379 . S
C2265 N2263 1.356 . S
N2266 C2258 1.356 . S
N2266 H2272 0.984 . S
N2266 H2273 0.984 . S
N2267 C2260 1.356 . S
N2267 H2270 0.984 . S
N2267 H2271 0.985 . S
H2268 N2263 0.984 . S
H2269 N2263 0.985 . S
H2270 N2267 0.984 . S
H2271 N2267 0.985 . S
H2272 N2266 0.984 . S
H2273 N2266 0.984 . S
H2274 N2262 0.984 . S
H2275 N2262 0.985 . S
C2276 C2277 1.363 . S
C2276 C2282 1.379 . S
C2276 N2284 1.356 . S
C2277 C2276 1.363 . S
C2277 C2283 1.363 . S
C2278 C2279 1.363 . S
C2278 C2283 1.379 . S
C2278 N2285 1.356 . S
C2279 C2278 1.363 . S
C2279 C2282 1.363 . S
N2280 C2282 1.356 . S
N2280 H2292 0.984 . S
N2280 H2293 0.985 . S
N2281 C2283 1.356 . S
N2281 H2286 0.984 . S
N2281 H2287 0.985 . S
C2282 C2276 1.379 . S
C2282 C2279 1.363 . S
C2282 N2280 1.356 . S
C2283 C2277 1.363 . S
C2283 C2278 1.379 . S
C2283 N2281 1.356 . S
N2284 C2276 1.356 . S
N2284 H2290 0.984 . S
N2284 H2291 0.984 . S
N2285 C2278 1.356 . S
N2285 H2288 0.984 . S
N2285 H2289 0.985 . S
H2286 N2281 0.984 . S
H2287 N2281 0.985 . S
H2288 N2285 0.984 . S
H2289 N2285 0.985 . S
H2290 N2284 0.984 . S
H2291 N2284 0.984 . S
H2292 N2280 0.984 . S
H2293 N2280 0.985 . S
C2294 C2295 1.363 . S
C2294 C2300 1.379 . S
C2294 N2302 1.356 . S
C2295 C2294 1.363 . S
C2295 C2301 1.363 . S
C2296 C2297 1.363 . S
C2296 C2301 1.379 . S
C2296 N2303 1.356 . S
C2297 C2296 1.363 . S
C2297 C2300 1.363 . S
N2298 C2300 1.356 . S
N2298 H2310 0.984 . S
N2298 H2311 0.985 . S
N2299 C2301 1.356 . S
N2299 H2304 0.984 . S
N2299 H2305 0.985 . S
C2300 C2294 1.379 . S
C2300 C2297 1.363 . S
C2300 N2298 1.356 . S
C2301 C2295 1.363 . S
C2301 C2296 1.379 . S
C2301 N2299 1.356 . S
N2302 C2294 1.356 . S
N2302 H2308 0.984 . S
N2302 H2309 0.984 . S
N2303 C2296 1.356 . S
N2303 H2306 0.984 . S
N2303 H2307 0.985 . S
H2304 N2299 0.984 . S
H2305 N2299 0.985 . S
H2306 N2303 0.984 . S
H2307 N2303 0.985 . S
H2308 N2302 0.984 . S
H2309 N2302 0.984 . S
H2310 N2298 0.984 . S
H2311 N2298 0.985 . S
C2312 C2313 1.363 . S
C2312 C2318 1.379 1_655 S
C2312 N2320 1.356 . S
C2313 C2312 1.363 . S
C2313 C2319 1.363 . S
C2314 C2315 1.363 . S
C2314 C2319 1.379 1_455 S
C2314 N2321 1.356 1_556 S
C2315 C2314 1.363 . S
C2315 C2318 1.363 . S
N2316 C2318 1.356 . S
N2316 H2328 0.984 . S
N2316 H2329 0.985 . S
N2317 C2319 1.356 1_554 S
N2317 H2322 0.984 . S
N2317 H2323 0.985 . S
C2318 C2312 1.379 1_455 S
C2318 C2315 1.363 . S
C2318 N2316 1.356 . S
C2319 C2313 1.363 . S
C2319 C2314 1.379 1_655 S
C2319 N2317 1.356 1_556 S
N2320 C2312 1.356 . S
N2320 H2326 0.984 . S
N2320 H2327 0.984 . S
N2321 C2314 1.356 1_554 S
N2321 H2324 0.984 . S
N2321 H2325 0.985 . S
H2322 N2317 0.984 . S
H2323 N2317 0.985 . S
H2324 N2321 0.984 . S
H2325 N2321 0.985 . S
H2326 N2320 0.984 . S
H2327 N2320 0.984 . S
H2328 N2316 0.984 . S
H2329 N2316 0.985 . S
C2330 C2331 1.363 . S
C2330 C2336 1.379 . S
C2330 N2338 1.356 . S
C2331 C2330 1.363 . S
C2331 C2337 1.363 . S
C2332 C2333 1.363 . S
C2332 C2337 1.379 . S
C2332 N2339 1.356 . S
C2333 C2332 1.363 . S
C2333 C2336 1.363 . S
N2334 C2336 1.356 . S
N2334 H2346 0.984 . S
N2334 H2347 0.985 . S
N2335 C2337 1.356 . S
N2335 H2340 0.984 . S
N2335 H2341 0.985 . S
C2336 C2330 1.379 . S
C2336 C2333 1.363 . S
C2336 N2334 1.356 . S
C2337 C2331 1.363 . S
C2337 C2332 1.379 . S
C2337 N2335 1.356 . S
N2338 C2330 1.356 . S
N2338 H2344 0.984 . S
N2338 H2345 0.984 . S
N2339 C2332 1.356 . S
N2339 H2342 0.984 . S
N2339 H2343 0.985 . S
H2340 N2335 0.984 . S
H2341 N2335 0.985 . S
H2342 N2339 0.984 . S
H2343 N2339 0.985 . S
H2344 N2338 0.984 . S
H2345 N2338 0.984 . S
H2346 N2334 0.984 . S
H2347 N2334 0.985 . S
C2348 C2349 1.363 . S
C2348 C2354 1.379 . S
C2348 N2356 1.356 . S
C2349 C2348 1.363 . S
C2349 C2355 1.363 . S
C2350 C2351 1.363 . S
C2350 C2355 1.379 . S
C2350 N2357 1.356 . S
C2351 C2350 1.363 . S
C2351 C2354 1.363 . S
N2352 C2354 1.356 . S
N2352 H2364 0.984 . S
N2352 H2365 0.985 . S
N2353 C2355 1.356 . S
N2353 H2358 0.984 . S
N2353 H2359 0.985 . S
C2354 C2348 1.379 . S
C2354 C2351 1.363 . S
C2354 N2352 1.356 . S
C2355 C2349 1.363 . S
C2355 C2350 1.379 . S
C2355 N2353 1.356 . S
N2356 C2348 1.356 . S
N2356 H2362 0.984 . S
N2356 H2363 0.984 . S
N2357 C2350 1.356 . S
N2357 H2360 0.984 . S
N2357 H2361 0.985 . S
H2358 N2353 0.984 . S
H2359 N2353 0.985 . S
H2360 N2357 0.984 . S
H2361 N2357 0.985 . S
H2362 N2356 0.984 . S
H2363 N2356 0.984 . S
H2364 N2352 0.984 . S
H2365 N2352 0.985 . S
C2366 C2367 1.363 . S
C2366 C2372 1.379 . S
C2366 N2374 1.356 . S
C2367 C2366 1.363 . S
C2367 C2373 1.363 . S
C2368 C2369 1.363 . S
C2368 C2373 1.379 . S
C2368 N2375 1.356 . S
C2369 C2368 1.363 . S
C2369 C2372 1.363 . S
N2370 C2372 1.356 . S
N2370 H2382 0.984 . S
N2370 H2383 0.985 . S
N2371 C2373 1.356 . S
N2371 H2376 0.984 . S
N2371 H2377 0.985 . S
C2372 C2366 1.379 . S
C2372 C2369 1.363 . S
C2372 N2370 1.356 . S
C2373 C2367 1.363 . S
C2373 C2368 1.379 . S
C2373 N2371 1.356 . S
N2374 C2366 1.356 . S
N2374 H2380 0.984 . S
N2374 H2381 0.984 . S
N2375 C2368 1.356 . S
N2375 H2378 0.984 . S
N2375 H2379 0.985 . S
H2376 N2371 0.984 . S
H2377 N2371 0.985 . S
H2378 N2375 0.984 . S
H2379 N2375 0.985 . S
H2380 N2374 0.984 . S
H2381 N2374 0.984 . S
H2382 N2370 0.984 . S
H2383 N2370 0.985 . S
C2384 C2385 1.363 . S
C2384 C2390 1.379 . S
C2384 N2392 1.356 . S
C2385 C2384 1.363 . S
C2385 C2391 1.363 . S
C2386 C2387 1.363 . S
C2386 C2391 1.379 . S
C2386 N2393 1.356 . S
C2387 C2386 1.363 . S
C2387 C2390 1.363 . S
N2388 C2390 1.356 . S
N2388 H2400 0.984 . S
N2388 H2401 0.985 . S
N2389 C2391 1.356 . S
N2389 H2394 0.984 . S
N2389 H2395 0.985 . S
C2390 C2384 1.379 . S
C2390 C2387 1.363 . S
C2390 N2388 1.356 . S
C2391 C2385 1.363 . S
C2391 C2386 1.379 . S
C2391 N2389 1.356 . S
N2392 C2384 1.356 . S
N2392 H2398 0.984 . S
N2392 H2399 0.984 . S
N2393 C2386 1.356 . S
N2393 H2396 0.984 . S
N2393 H2397 0.985 . S
H2394 N2389 0.984 . S
H2395 N2389 0.985 . S
H2396 N2393 0.984 . S
H2397 N2393 0.985 . S
H2398 N2392 0.984 . S
H2399 N2392 0.984 . S
H2400 N2388 0.984 . S
H2401 N2388 0.985 . S
C2402 C2403 1.363 . S
C2402 C2408 1.379 . S
C2402 N2410 1.356 . S
C2403 C2402 1.363 . S
C2403 C2409 1.363 . S
C2404 C2405 1.363 . S
C2404 C2409 1.379 . S
C2404 N2411 1.356 . S
C2405 C2404 1.363 . S
C2405 C2408 1.363 . S
N2406 C2408 1.356 . S
N2406 H2418 0.984 . S
N2406 H2419 0.985 . S
N2407 C2409 1.356 . S
N2407 H2412 0.984 . S
N2407 H2413 0.985 . S
C2408 C2402 1.379 . S
C2408 C2405 1.363 . S
C2408 N2406 1.356 . S
C2409 C2403 1.363 . S
C2409 C2404 1.379 . S
C2409 N2407 1.356 . S
N2410 C2402 1.356 . S
N2410 H2416 0.984 . S
N2410 H2417 0.984 . S
N2411 C2404 1.356 . S
N2411 H2414 0.984 . S
N2411 H2415 0.985 . S
H2412 N2407 0.984 . S
H2413 N2407 0.985 . S
H2414 N2411 0.984 . S
H2415 N2411 0.985 . S
H2416 N2410 0.984 . S
H2417 N2410 0.984 . S
H2418 N2406 0.984 . S
H2419 N2406 0.985 . S
C2420 C2421 1.363 . S
C2420 C2426 1.379 . S
C2420 N2428 1.356 . S
C2421 C2420 1.363 . S
C2421 C2427 1.363 . S
C2422 C2423 1.363 . S
C2422 C2427 1.379 . S
C2422 N2429 1.356 . S
C2423 C2422 1.363 . S
C2423 C2426 1.363 . S
N2424 C2426 1.356 . S
N2424 H2436 0.984 . S
N2424 H2437 0.985 . S
N2425 C2427 1.356 . S
N2425 H2430 0.984 . S
N2425 H2431 0.985 . S
C2426 C2420 1.379 . S
C2426 C2423 1.363 . S
C2426 N2424 1.356 . S
C2427 C2421 1.363 . S
C2427 C2422 1.379 . S
C2427 N2425 1.356 . S
N2428 C2420 1.356 . S
N2428 H2434 0.984 . S
N2428 H2435 0.984 . S
N2429 C2422 1.356 . S
N2429 H2432 0.984 . S
N2429 H2433 0.985 . S
H2430 N2425 0.984 . S
H2431 N2425 0.985 . S
H2432 N2429 0.984 . S
H2433 N2429 0.985 . S
H2434 N2428 0.984 . S
H2435 N2428 0.984 . S
H2436 N2424 0.984 . S
H2437 N2424 0.985 . S
C2438 C2439 1.363 . S
C2438 C2444 1.379 . S
C2438 N2446 1.356 . S
C2439 C2438 1.363 . S
C2439 C2445 1.363 . S
C2440 C2441 1.363 . S
C2440 C2445 1.379 . S
C2440 N2447 1.356 . S
C2441 C2440 1.363 . S
C2441 C2444 1.363 . S
N2442 C2444 1.356 . S
N2442 H2454 0.984 . S
N2442 H2455 0.985 . S
N2443 C2445 1.356 . S
N2443 H2448 0.984 . S
N2443 H2449 0.985 . S
C2444 C2438 1.379 . S
C2444 C2441 1.363 . S
C2444 N2442 1.356 . S
C2445 C2439 1.363 . S
C2445 C2440 1.379 . S
C2445 N2443 1.356 . S
N2446 C2438 1.356 . S
N2446 H2452 0.984 . S
N2446 H2453 0.984 . S
N2447 C2440 1.356 . S
N2447 H2450 0.984 . S
N2447 H2451 0.985 . S
H2448 N2443 0.984 . S
H2449 N2443 0.985 . S
H2450 N2447 0.984 . S
H2451 N2447 0.985 . S
H2452 N2446 0.984 . S
H2453 N2446 0.984 . S
H2454 N2442 0.984 . S
H2455 N2442 0.985 . S
C2456 C2457 1.363 . S
C2456 C2462 1.379 . S
C2456 N2464 1.356 . S
C2457 C2456 1.363 . S
C2457 C2463 1.363 . S
C2458 C2459 1.363 . S
C2458 C2463 1.379 . S
C2458 N2465 1.356 . S
C2459 C2458 1.363 . S
C2459 C2462 1.363 . S
N2460 C2462 1.356 . S
N2460 H2472 0.984 . S
N2460 H2473 0.985 . S
N2461 C2463 1.356 . S
N2461 H2466 0.984 . S
N2461 H2467 0.985 . S
C2462 C2456 1.379 . S
C2462 C2459 1.363 . S
C2462 N2460 1.356 . S
C2463 C2457 1.363 . S
C2463 C2458 1.379 . S
C2463 N2461 1.356 . S
N2464 C2456 1.356 . S
N2464 H2470 0.984 . S
N2464 H2471 0.984 . S
N2465 C2458 1.356 . S
N2465 H2468 0.984 . S
N2465 H2469 0.985 . S
H2466 N2461 0.984 . S
H2467 N2461 0.985 . S
H2468 N2465 0.984 . S
H2469 N2465 0.985 . S
H2470 N2464 0.984 . S
H2471 N2464 0.984 . S
H2472 N2460 0.984 . S
H2473 N2460 0.985 . S
C2474 C2475 1.363 . S
C2474 C2480 1.379 1_455 S
C2474 N2482 1.356 . S
C2475 C2474 1.363 . S
C2475 C2481 1.363 . S
C2476 C2477 1.363 . S
C2476 C2481 1.379 1_655 S
C2476 N2483 1.356 1_554 S
C2477 C2476 1.363 . S
C2477 C2480 1.363 . S
N2478 C2480 1.356 . S
N2478 H2490 0.984 . S
N2478 H2491 0.985 . S
N2479 C2481 1.356 1_556 S
N2479 H2484 0.984 . S
N2479 H2485 0.985 . S
C2480 C2474 1.379 1_655 S
C2480 C2477 1.363 . S
C2480 N2478 1.356 . S
C2481 C2475 1.363 . S
C2481 C2476 1.379 1_455 S
C2481 N2479 1.356 1_554 S
N2482 C2474 1.356 . S
N2482 H2488 0.984 . S
N2482 H2489 0.984 . S
N2483 C2476 1.356 1_556 S
N2483 H2486 0.984 . S
N2483 H2487 0.985 . S
H2484 N2479 0.984 . S
H2485 N2479 0.985 . S
H2486 N2483 0.984 . S
H2487 N2483 0.985 . S
H2488 N2482 0.984 . S
H2489 N2482 0.984 . S
H2490 N2478 0.984 . S
H2491 N2478 0.985 . S
C2492 C2493 1.363 . S
C2492 C2498 1.379 . S
C2492 N2500 1.356 . S
C2493 C2492 1.363 . S
C2493 C2499 1.363 . S
C2494 C2495 1.363 . S
C2494 C2499 1.379 . S
C2494 N2501 1.356 . S
C2495 C2494 1.363 . S
C2495 C2498 1.363 . S
N2496 C2498 1.356 . S
N2496 H2508 0.984 . S
N2496 H2509 0.985 . S
N2497 C2499 1.356 . S
N2497 H2502 0.984 . S
N2497 H2503 0.985 . S
C2498 C2492 1.379 . S
C2498 C2495 1.363 . S
C2498 N2496 1.356 . S
C2499 C2493 1.363 . S
C2499 C2494 1.379 . S
C2499 N2497 1.356 . S
N2500 C2492 1.356 . S
N2500 H2506 0.984 . S
N2500 H2507 0.984 . S
N2501 C2494 1.356 . S
N2501 H2504 0.984 . S
N2501 H2505 0.985 . S
H2502 N2497 0.984 . S
H2503 N2497 0.985 . S
H2504 N2501 0.984 . S
H2505 N2501 0.985 . S
H2506 N2500 0.984 . S
H2507 N2500 0.984 . S
H2508 N2496 0.984 . S
H2509 N2496 0.985 . S
C2510 C2511 1.363 . S
C2510 C2516 1.379 1_455 S
C2510 N2518 1.356 . S
C2511 C2510 1.363 . S
C2511 C2517 1.363 . S
C2512 C2513 1.363 . S
C2512 C2517 1.379 1_655 S
C2512 N2519 1.356 1_556 S
C2513 C2512 1.363 . S
C2513 C2516 1.363 . S
N2514 C2516 1.356 . S
N2514 H2526 0.984 . S
N2514 H2527 0.985 . S
N2515 C2517 1.356 1_554 S
N2515 H2520 0.984 . S
N2515 H2521 0.985 . S
C2516 C2510 1.379 1_655 S
C2516 C2513 1.363 . S
C2516 N2514 1.356 . S
C2517 C2511 1.363 . S
C2517 C2512 1.379 1_455 S
C2517 N2515 1.356 1_556 S
N2518 C2510 1.356 . S
N2518 H2524 0.984 . S
N2518 H2525 0.984 . S
N2519 C2512 1.356 1_554 S
N2519 H2522 0.984 . S
N2519 H2523 0.985 . S
H2520 N2515 0.984 . S
H2521 N2515 0.985 . S
H2522 N2519 0.984 . S
H2523 N2519 0.985 . S
H2524 N2518 0.984 . S
H2525 N2518 0.984 . S
H2526 N2514 0.984 . S
H2527 N2514 0.985 . S
C1089 C5 1.471 . S
C1091 C9 1.421 . S
C1107 C43 1.421 . S
C1109 C39 1.471 1_556 S
C1125 C77 1.421 1_554 S
C1127 C73 1.471 . S
C1143 C111 1.421 . S
C1145 C107 1.471 . S
C1161 C145 1.421 . S
C1163 C141 1.471 . S
C1179 C179 1.421 . S
C1181 C175 1.471 . S
C1197 C209 1.471 . S
C1199 C213 1.421 1_556 S
C1215 C243 1.471 1_554 S
C1217 C247 1.421 . S
C1233 C277 1.471 . S
C1235 C281 1.421 . S
C1251 C311 1.471 1_554 S
C1253 C315 1.421 . S
C1269 C345 1.471 . S
C1271 C349 1.421 1_556 S
C1287 C383 1.421 . S
C1289 C379 1.471 . S
C1305 C413 1.471 . S
C1307 C417 1.421 . S
C1323 C447 1.471 . S
C1325 C451 1.421 . S
C1341 C485 1.421 1_554 S
C1343 C481 1.471 . S
C1359 C515 1.471 1_556 S
C1361 C519 1.421 . S
C1377 C553 1.421 1_554 S
C1379 C549 1.471 . S
C1395 C587 1.421 . S
C1397 C583 1.471 . S
C1413 C621 1.421 . S
C1415 C617 1.471 . S
C1431 C655 1.421 . S
C1433 C651 1.471 1_556 S
C1449 C689 1.421 1_556 S
C1451 C685 1.471 . S
C1467 C723 1.421 . S
C1469 C719 1.471 1_554 S
C1485 C757 1.421 . S
C1487 C753 1.471 . S
C1503 C787 1.471 . S
C1505 C791 1.421 . S
C1521 C825 1.421 1_556 S
C1523 C821 1.471 . S
C1539 C859 1.421 . S
C1541 C855 1.471 . S
C1557 C893 1.421 . S
C1559 C889 1.471 . S
C1575 C923 1.471 1_554 S
C1577 C927 1.421 . S
C1593 C957 1.471 . S
C1595 C961 1.421 1_554 S
C1611 C991 1.471 1_556 S
C1613 C995 1.421 . S
C1629 C1029 1.421 . S
C1631 C1025 1.471 . S
C1647 C1059 1.471 . S
C1649 C1063 1.421 . S
C1665 C802 1.518 . S
C1667 C20 1.518 . S
C1683 C700 1.518 . S
C1685 C54 1.518 . S
C1701 C734 1.518 . S
C1703 C88 1.518 . S
C1719 C768 1.518 . S
C1721 C122 1.518 . S
C1737 C598 1.518 . S
C1739 C156 1.518 . S
C1755 C632 1.518 . S
C1757 C190 1.518 . S
C1773 C666 1.518 . S
C1775 C224 1.518 . S
C1791 C564 1.518 . S
C1793 C258 1.518 . S
C1809 C1074 1.518 . S
C1811 C292 1.518 . S
C1827 C972 1.518 . S
C1829 C326 1.518 . S
C1845 C360 1.518 . S
C1847 C1006 1.518 . S
C1863 C394 1.518 . S
C1865 C1040 1.518 . S
C1881 C428 1.518 . S
C1883 C870 1.518 . S
C1899 C462 1.518 . S
C1901 C904 1.518 . S
C1917 C496 1.518 . S
C1919 C938 1.518 . S
C1935 C836 1.518 . S
C1937 C530 1.518 . S
C1953 C169 1.294 . S
C1955 C33 1.294 . S
C1971 C67 1.294 . S
C1973 C203 1.294 . S
C1989 C237 1.294 . S
C1991 C101 1.294 . S
C2007 C135 1.294 . S
C2009 C271 1.294 . S
C2025 C305 1.294 . S
C2027 C441 1.294 . S
C2043 C475 1.294 . S
C2045 C339 1.294 . S
C2061 C509 1.294 . S
C2063 C373 1.294 . S
C2079 C543 1.294 . S
C2081 C407 1.294 . S
C2097 C713 1.294 . S
C2099 C577 1.294 . S
C2115 C611 1.294 . S
C2117 C747 1.294 . S
C2133 C645 1.294 . S
C2135 C781 1.294 . S
C2151 C679 1.294 . S
C2153 C815 1.294 . S
C2169 C985 1.294 . S
C2171 C849 1.294 . S
C2187 C1019 1.294 . S
C2189 C883 1.294 . S
C2205 C1053 1.294 . S
C2207 C917 1.294 . S
C2223 C951 1.294 . S
C2225 C1087 1.294 . S
C2241 C2 1.663 . S
C2243 C410 1.663 . S
C2259 C988 1.663 . S
C2261 C36 1.663 . S
C2277 C70 1.663 . S
C2279 C478 1.663 . S
C2295 C1056 1.663 . S
C2297 C104 1.663 . S
C2313 C274 1.663 . S
C2315 C138 1.663 . S
C2331 C172 1.663 . S
C2333 C852 1.663 . S
C2349 C206 1.663 . S
C2351 C342 1.663 . S
C2367 C240 1.663 . S
C2369 C920 1.663 . S
C2385 C716 1.663 . S
C2387 C308 1.663 . S
C2403 C784 1.663 . S
C2405 C376 1.663 . S
C2421 C580 1.663 . S
C2423 C444 1.663 . S
C2439 C648 1.663 . S
C2441 C512 1.663 . S
C2457 C546 1.663 . S
C2459 C954 1.663 . S
C2475 C1022 1.663 . S
C2477 C614 1.663 . S
C2493 C682 1.663 . S
C2495 C818 1.663 . S
C2511 C886 1.663 . S
C2513 C750 1.663 . S
