# Generated by pormake.
# Topology neb, (4)-cn, num edge types: 1
# Building blocks:
#     Node 0, Type 0, BuildingBlock: AZAVOO_clean_sbu_0, # of connection points: 4
#     Node 1, Type 0, BuildingBlock: AZAVOO_clean_sbu_0, # of connection points: 4
#     Node 2, Type 0, BuildingBlock: AZAVOO_clean_sbu_0, # of connection points: 4
#     Node 3, Type 0, BuildingBlock: AZAVOO_clean_sbu_0, # of connection points: 4
#     Node 4, Type 0, BuildingBlock: AZAVOO_clean_sbu_0, # of connection points: 4
#     Node 5, Type 0, BuildingBlock: AZAVOO_clean_sbu_0, # of connection points: 4
#     Node 6, Type 0, BuildingBlock: AZAVOO_clean_sbu_0, # of connection points: 4
#     Node 7, Type 0, BuildingBlock: AZAVOO_clean_sbu_0, # of connection points: 4
#     Node 8, Type 0, BuildingBlock: AZAVOO_clean_sbu_0, # of connection points: 4
#     Node 9, Type 0, BuildingBlock: AZAVOO_clean_sbu_0, # of connection points: 4
#     Node 10, Type 0, BuildingBlock: AZAVOO_clean_sbu_0, # of connection points: 4
#     Node 11, Type 0, BuildingBlock: AZAVOO_clean_sbu_0, # of connection points: 4
#     Node 12, Type 0, BuildingBlock: AZAVOO_clean_sbu_0, # of connection points: 4
#     Node 13, Type 0, BuildingBlock: AZAVOO_clean_sbu_0, # of connection points: 4
#     Node 14, Type 0, BuildingBlock: AZAVOO_clean_sbu_0, # of connection points: 4
#     Node 15, Type 0, BuildingBlock: AZAVOO_clean_sbu_0, # of connection points: 4
#     Edge 16, Type (0, 0), BuildingBlock: AJUNOK_clean_linker_0, # of connection points: 2
#     Edge 17, Type (0, 0), BuildingBlock: AJUNOK_clean_linker_0, # of connection points: 2
#     Edge 18, Type (0, 0), BuildingBlock: AJUNOK_clean_linker_0, # of connection points: 2
#     Edge 19, Type (0, 0), BuildingBlock: AJUNOK_clean_linker_0, # of connection points: 2
#     Edge 20, Type (0, 0), BuildingBlock: AJUNOK_clean_linker_0, # of connection points: 2
#     Edge 21, Type (0, 0), BuildingBlock: AJUNOK_clean_linker_0, # of connection points: 2
#     Edge 22, Type (0, 0), BuildingBlock: AJUNOK_clean_linker_0, # of connection points: 2
#     Edge 23, Type (0, 0), BuildingBlock: AJUNOK_clean_linker_0, # of connection points: 2
#     Edge 24, Type (0, 0), BuildingBlock: AJUNOK_clean_linker_0, # of connection points: 2
#     Edge 25, Type (0, 0), BuildingBlock: AJUNOK_clean_linker_0, # of connection points: 2
#     Edge 26, Type (0, 0), BuildingBlock: AJUNOK_clean_linker_0, # of connection points: 2
#     Edge 27, Type (0, 0), BuildingBlock: AJUNOK_clean_linker_0, # of connection points: 2
#     Edge 28, Type (0, 0), BuildingBlock: AJUNOK_clean_linker_0, # of connection points: 2
#     Edge 29, Type (0, 0), BuildingBlock: AJUNOK_clean_linker_0, # of connection points: 2
#     Edge 30, Type (0, 0), BuildingBlock: AJUNOK_clean_linker_0, # of connection points: 2
#     Edge 31, Type (0, 0), BuildingBlock: AJUNOK_clean_linker_0, # of connection points: 2
#     Edge 32, Type (0, 0), BuildingBlock: AJUNOK_clean_linker_0, # of connection points: 2
#     Edge 33, Type (0, 0), BuildingBlock: AJUNOK_clean_linker_0, # of connection points: 2
#     Edge 34, Type (0, 0), BuildingBlock: AJUNOK_clean_linker_0, # of connection points: 2
#     Edge 35, Type (0, 0), BuildingBlock: AJUNOK_clean_linker_0, # of connection points: 2
#     Edge 36, Type (0, 0), BuildingBlock: AJUNOK_clean_linker_0, # of connection points: 2
#     Edge 37, Type (0, 0), BuildingBlock: AJUNOK_clean_linker_0, # of connection points: 2
#     Edge 38, Type (0, 0), BuildingBlock: AJUNOK_clean_linker_0, # of connection points: 2
#     Edge 39, Type (0, 0), BuildingBlock: AJUNOK_clean_linker_0, # of connection points: 2
#     Edge 40, Type (0, 0), BuildingBlock: AJUNOK_clean_linker_0, # of connection points: 2
#     Edge 41, Type (0, 0), BuildingBlock: AJUNOK_clean_linker_0, # of connection points: 2
#     Edge 42, Type (0, 0), BuildingBlock: AJUNOK_clean_linker_0, # of connection points: 2
#     Edge 43, Type (0, 0), BuildingBlock: AJUNOK_clean_linker_0, # of connection points: 2
#     Edge 44, Type (0, 0), BuildingBlock: AJUNOK_clean_linker_0, # of connection points: 2
#     Edge 45, Type (0, 0), BuildingBlock: AJUNOK_clean_linker_0, # of connection points: 2
#     Edge 46, Type (0, 0), BuildingBlock: AJUNOK_clean_linker_0, # of connection points: 2
#     Edge 47, Type (0, 0), BuildingBlock: AJUNOK_clean_linker_0, # of connection points: 2
# Relax obj value: 0.091
# Max RMSD: 0.142
# Mean RMSD: 0.142
data_MOF--net-neb--node1-AZAVOO_clean_sbu_0--edge1-AJUNOK_clean_linker_0
_symmetry_space_group_name_H-M    P1
_symmetry_Int_Tables_number       1
_symmetry_cell_setting            triclinic
loop_
_symmetry_equiv_pos_as_xyz
'x, y, z'
_cell_length_a     36.412564
_cell_length_b     14.71317
_cell_length_c     55.832591
_cell_angle_alpha  102.41511
_cell_angle_beta   90.53174
_cell_angle_gamma 90.031611
loop_
_atom_site_label
_atom_site_type_symbol
_atom_site_fract_x
_atom_site_fract_y
_atom_site_fract_z
_atom_type_partial_charge
Mg0 Mg 0.10546 0.20934 0.43087 0.0
O1 O 0.12024 0.07248 0.40423 0.0
O2 O 0.16614 0.10051 0.38042 0.0
Mg3 Mg 0.17518 0.25886 0.38846 0.0
C4 C 0.14368 0.04491 0.38736 0.0
C5 C 0.04222 0.14022 0.45948 0.0
O6 O 0.02552 0.20523 0.45066 0.0
O7 O 0.16031 0.21041 0.45167 0.0
O8 O 0.20005 0.25324 0.42589 0.0
O9 O 0.06186 0.23707 0.40467 0.0
O10 O 0.11991 0.28165 0.40444 0.0
C11 C 0.19269 0.23389 0.44655 0.0
C12 C 0.08776 0.27513 0.39447 0.0
O13 O 0.07622 0.12613 0.45517 0.0
Mg14 Mg 0.11355 0.01734 0.77415 0.0
O15 O 0.12818 0.13954 0.80561 0.0
O16 O 0.17145 0.09611 0.82943 0.0
Mg17 Mg 0.18233 0.9407 0.81386 0.0
C18 C 0.14985 0.15733 0.82411 0.0
C19 C 0.04905 0.11418 0.75354 0.0
O20 O 0.03227 0.05042 0.76266 0.0
O21 O 0.16847 0.03058 0.75536 0.0
O22 O 0.2079 0.97425 0.77943 0.0
O23 O 0.07077 0.97176 0.79777 0.0
O24 O 0.12838 0.92371 0.79524 0.0
C25 C 0.20092 0.00604 0.76031 0.0
C26 C 0.09652 0.92269 0.80487 0.0
O27 O 0.08394 0.11848 0.75478 0.0
Mg28 Mg 0.90046 0.79715 0.53306 0.0
O29 O 0.88431 0.92449 0.56234 0.0
O30 O 0.84526 0.88243 0.5886 0.0
Mg31 Mg 0.83467 0.7256 0.57488 0.0
C32 C 0.86422 0.94415 0.58133 0.0
C33 C 0.96224 0.89055 0.50888 0.0
O34 O 0.98074 0.82666 0.51707 0.0
O35 O 0.84476 0.79956 0.51367 0.0
O36 O 0.80728 0.74869 0.53949 0.0
O37 O 0.94457 0.76068 0.55815 0.0
O38 O 0.88754 0.7088 0.55587 0.0
C39 C 0.81286 0.77478 0.51943 0.0
C40 C 0.91949 0.71178 0.56585 0.0
O41 O 0.92768 0.8952 0.51193 0.0
Mg42 Mg 0.90809 0.97189 0.17947 0.0
O43 O 0.89041 0.8454 0.14998 0.0
O44 O 0.85312 0.89159 0.12296 0.0
Mg45 Mg 0.84392 0.04877 0.13694 0.0
C46 C 0.87087 0.82805 0.13045 0.0
C47 C 0.96802 0.8783 0.20602 0.0
O48 O 0.98705 0.94478 0.1995 0.0
O49 O 0.85234 0.97295 0.19814 0.0
O50 O 0.81559 0.02488 0.17172 0.0
O51 O 0.95271 0.002 0.15471 0.0
O52 O 0.8969 0.06235 0.1565 0.0
C53 C 0.8207 -0.00153 0.19186 0.0
C54 C 0.92878 0.0537 0.14673 0.0
O55 O 0.93384 0.87194 0.20099 0.0
Mg56 Mg 0.10973 0.69563 0.92622 0.0
O57 O 0.12627 0.56054 0.89965 0.0
O58 O 0.17344 0.59016 0.87708 0.0
Mg59 Mg 0.18157 0.74897 0.88575 0.0
C60 C 0.1506 0.53389 0.88334 0.0
C61 C 0.04525 0.61323 0.9515 0.0
O62 O 0.02702 0.67302 0.94156 0.0
O63 O 0.16338 0.6986 0.94833 0.0
O64 O 0.20436 0.74378 0.92371 0.0
O65 O 0.06752 0.72234 0.8991 0.0
O66 O 0.12542 0.76965 0.90047 0.0
C67 C 0.1959 0.72379 0.94411 0.0
C68 C 0.09386 0.76179 0.88967 0.0
O69 O 0.07997 0.6088 0.94928 0.0
Mg70 Mg 0.10777 0.52687 0.27871 0.0
O71 O 0.12153 0.64955 0.31038 0.0
O72 O 0.1632 0.60489 0.33513 0.0
Mg73 Mg 0.17362 0.44897 0.32021 0.0
C74 C 0.14244 0.6667 0.32928 0.0
C75 C 0.04562 0.61539 0.25328 0.0
O76 O 0.02883 0.54494 0.25946 0.0
O77 O 0.16405 0.53791 0.26097 0.0
O78 O 0.20108 0.48107 0.28636 0.0
O79 O 0.06346 0.48234 0.30169 0.0
O80 O 0.12091 0.43354 0.30023 0.0
C81 C 0.19589 0.51265 0.26702 0.0
C82 C 0.08867 0.43292 0.30925 0.0
O83 O 0.07967 0.62749 0.25832 0.0
Mg84 Mg 0.90278 0.28837 0.02816 0.0
O85 O 0.88808 0.42075 0.0565 0.0
O86 O 0.85073 0.38301 0.08436 0.0
Mg87 Mg 0.83974 0.22566 0.0728 0.0
C88 C 0.86894 0.44316 0.0759 0.0
C89 C 0.96319 0.36425 2e-05 0.0
O90 O 0.97924 0.29555 0.00762 0.0
O91 O 0.84622 0.28911 0.00995 0.0
O92 O 0.81021 0.24379 0.03743 0.0
O93 O 0.94876 0.25805 0.05229 0.0
O94 O 0.89197 0.20524 0.05305 0.0
C95 C 0.81466 0.26647 0.01679 0.0
C96 C 0.92483 0.2116 0.06179 0.0
O97 O 0.92937 0.37951 0.00477 0.0
Mg98 Mg 0.90512 0.47375 0.68546 0.0
O99 O 0.88732 0.34379 0.65675 0.0
O100 O 0.84565 0.38662 0.63163 0.0
Mg101 Mg 0.83582 0.54336 0.64478 0.0
C102 C 0.86556 0.32483 0.63826 0.0
C103 C 0.96839 0.37924 0.70893 0.0
O104 O 0.98714 0.43749 0.69891 0.0
O105 O 0.85088 0.47116 0.7057 0.0
O106 O 0.81097 0.52044 0.68067 0.0
O107 O 0.94831 0.50684 0.65999 0.0
O108 O 0.89102 0.55741 0.6614 0.0
C109 C 0.81839 0.4947 0.70062 0.0
C110 C 0.92261 0.55091 0.6511 0.0
O111 O 0.93354 0.37911 0.70725 0.0
Mg112 Mg 0.60576 0.20315 0.93077 0.0
O113 O 0.62496 0.07278 0.90314 0.0
O114 O 0.66587 0.11615 0.87823 0.0
Mg115 Mg 0.67271 0.27477 0.88986 0.0
C116 C 0.64704 0.05331 0.88513 0.0
C117 C 0.5447 0.11675 0.95714 0.0
O118 O 0.52638 0.18109 0.94902 0.0
O119 O 0.66037 0.20907 0.95166 0.0
O120 O 0.69892 0.26021 0.92655 0.0
O121 O 0.56161 0.22779 0.9046 0.0
O122 O 0.61778 0.28665 0.90629 0.0
C123 C 0.69231 0.23595 0.94675 0.0
C124 C 0.58591 0.27607 0.89598 0.0
O125 O 0.57901 0.10913 0.95318 0.0
Mg126 Mg 0.61305 0.022 0.2757 0.0
O127 O 0.62915 0.1408 0.3078 0.0
O128 O 0.67317 0.09194 0.33015 0.0
Mg129 Mg 0.68218 0.93655 0.31354 0.0
C130 C 0.65186 0.15539 0.32575 0.0
C131 C 0.54945 0.12337 0.25482 0.0
O132 O 0.5315 0.05618 0.26179 0.0
O133 O 0.66766 0.03479 0.25641 0.0
O134 O 0.70712 0.97259 0.27926 0.0
O135 O 0.57044 0.97491 0.29924 0.0
O136 O 0.62771 0.92472 0.29567 0.0
C137 C 0.69999 0.00742 0.26066 0.0
C138 C 0.59609 0.92366 0.30559 0.0
O139 O 0.58416 0.12761 0.25757 0.0
Mg140 Mg 0.40098 0.78456 0.03115 0.0
O141 O 0.38538 0.91278 0.06054 0.0
O142 O 0.34624 0.87072 0.08679 0.0
Mg143 Mg 0.33494 0.71435 0.07302 0.0
C144 C 0.36536 0.93234 0.07959 0.0
C145 C 0.46358 0.86663 0.00583 0.0
O146 O 0.47969 0.79835 0.0136 0.0
O147 O 0.34535 0.78907 0.01187 0.0
O148 O 0.30768 0.73898 0.03774 0.0
O149 O 0.44501 0.74679 0.05601 0.0
O150 O 0.3877 0.69676 0.05398 0.0
C151 C 0.31335 0.76528 0.01771 0.0
C152 C 0.41975 0.69865 0.06379 0.0
O153 O 0.42942 0.8797 0.00971 0.0
Mg154 Mg 0.40992 0.9652 0.6793 0.0
O155 O 0.39334 0.83076 0.65181 0.0
O156 O 0.35343 0.86751 0.62473 0.0
Mg157 Mg 0.34379 0.02511 0.63503 0.0
C158 C 0.37244 0.80781 0.63296 0.0
C159 C 0.47188 0.88698 0.70738 0.0
O160 O 0.48941 0.95004 0.69841 0.0
O161 O 0.35415 0.96731 0.69832 0.0
O162 O 0.31679 0.01134 0.67096 0.0
O163 O 0.45472 -0.00687 0.65411 0.0
O164 O 0.39749 0.04266 0.65348 0.0
C165 C 0.3223 0.99037 0.69173 0.0
C166 C 0.42962 0.03493 0.644 0.0
O167 O 0.43748 0.87707 0.70341 0.0
Mg168 Mg 0.61037 0.69443 0.4267 0.0
O169 O 0.62784 0.55805 0.4008 0.0
O170 O 0.67489 0.58943 0.37836 0.0
Mg171 Mg 0.68239 0.74826 0.38641 0.0
C172 C 0.65264 0.53208 0.38475 0.0
C173 C 0.54584 0.62374 0.45379 0.0
O174 O 0.52956 0.68815 0.44449 0.0
O175 O 0.66375 0.70031 0.44925 0.0
O176 O 0.70472 0.74587 0.42467 0.0
O177 O 0.5683 0.71875 0.39916 0.0
O178 O 0.62605 0.76694 0.40063 0.0
C179 C 0.69618 0.72656 0.44515 0.0
C180 C 0.5946 0.75823 0.38971 0.0
O181 O 0.58007 0.6105 0.45032 0.0
Mg182 Mg 0.60928 0.52961 0.78085 0.0
O183 O 0.6273 0.65316 0.81094 0.0
O184 O 0.6641 0.60508 0.83796 0.0
Mg185 Mg 0.67295 0.44831 0.82293 0.0
C186 C 0.64676 0.66922 0.83049 0.0
C187 C 0.54904 0.62995 0.7567 0.0
O188 O 0.52973 0.56687 0.76453 0.0
O189 O 0.66523 0.53107 0.76254 0.0
O190 O 0.7017 0.47718 0.78877 0.0
O191 O 0.56433 0.49612 0.80502 0.0
O192 O 0.62023 0.43652 0.80305 0.0
C193 C 0.69687 0.50594 0.76894 0.0
C194 C 0.58811 0.44278 0.81249 0.0
O195 O 0.58365 0.63212 0.7601 0.0
Mg196 Mg 0.40357 0.28213 0.52741 0.0
O197 O 0.38902 0.40739 0.55789 0.0
O198 O 0.35231 0.3616 0.58491 0.0
Mg199 Mg 0.34078 0.20578 0.57018 0.0
C200 C 0.37055 0.42455 0.57764 0.0
C201 C 0.46403 0.37456 0.50238 0.0
O202 O 0.48212 0.30817 0.50975 0.0
O203 O 0.34669 0.28777 0.50975 0.0
O204 O 0.31096 0.23491 0.53617 0.0
O205 O 0.44932 0.2434 0.55086 0.0
O206 O 0.39245 0.19069 0.54978 0.0
C207 C 0.31517 0.26349 0.51631 0.0
C208 C 0.42501 0.19337 0.55889 0.0
O209 O 0.4297 0.3819 0.5063 0.0
Mg210 Mg 0.40411 0.46443 0.18367 0.0
O211 O 0.3867 0.33267 0.15534 0.0
O212 O 0.34548 0.3744 0.12977 0.0
Mg213 Mg 0.33567 0.53147 0.14198 0.0
C214 C 0.36521 0.31297 0.13672 0.0
C215 C 0.46683 0.3869 0.21084 0.0
O216 O 0.483 0.45543 0.20333 0.0
O217 O 0.3495 0.46484 0.20369 0.0
O218 O 0.31024 0.51339 0.17811 0.0
O219 O 0.4478 0.49507 0.15825 0.0
O220 O 0.39054 0.54577 0.15901 0.0
C221 C 0.31727 0.48949 0.19835 0.0
C222 C 0.42229 0.53838 0.14894 0.0
O223 O 0.43275 0.37295 0.2063 0.0
C224 C 0.28798 0.27378 0.47557 0.0
C225 C 0.28291 0.26095 0.49955 0.0
C226 C 0.25875 0.26441 0.45873 0.0
C227 C 0.22295 0.24192 0.46506 0.0
H228 H 0.31494 0.28963 0.46948 0.0
H229 H 0.26453 0.27447 0.44049 0.0
S230 S 0.19429 0.20576 0.526 0.0
N231 N 0.23871 0.22787 0.52913 0.0
N232 N 0.18391 0.21019 0.49745 0.0
C233 C 0.21726 0.23044 0.48913 0.0
C234 C 0.24711 0.24007 0.50635 0.0
C235 C 0.01882 0.9405 0.49005 0.0
C236 C 0.98176 0.95638 0.49659 0.0
C237 C 0.03817 0.00091 0.47842 0.0
C238 C 0.02133 0.08 0.47283 0.0
H239 H 0.0331 0.88031 0.49372 0.0
H240 H 0.06649 0.98457 0.47354 0.0
S241 S 0.92531 0.15654 0.48742 0.0
N242 N 0.9293 0.05945 0.4975 0.0
N243 N 0.96558 0.17297 0.47566 0.0
C244 C 0.9844 0.09771 0.47962 0.0
C245 C 0.96465 0.03598 0.49147 0.0
C246 C 0.29618 0.97716 0.73227 0.0
C247 C 0.29082 -0.00384 0.70887 0.0
C248 C 0.26719 0.98292 0.74885 0.0
C249 C 0.23142 0.00793 0.74282 0.0
H250 H 0.323 0.95731 0.73794 0.0
H251 H 0.27302 0.96657 0.76651 0.0
S252 S 0.20259 0.06695 0.68404 0.0
N253 N 0.24673 0.04293 0.68063 0.0
N254 N 0.19246 0.05354 0.7118 0.0
C255 C 0.22568 0.02845 0.7196 0.0
C256 C 0.25524 0.02248 0.70265 0.0
C257 C 0.04597 0.25021 0.73319 0.0
C258 C 0.02765 0.181 0.74244 0.0
C259 C 0.02654 0.31427 0.72267 0.0
C260 C 0.98792 0.31207 0.72095 0.0
H261 H 0.07566 0.25512 0.734 0.0
H262 H 0.0421 0.36573 0.71575 0.0
S263 S 0.92656 0.14524 0.74262 0.0
N264 N 0.96836 0.11461 0.74932 0.0
N265 N 0.93197 0.2349 0.72961 0.0
C266 C 0.96916 0.24361 0.73027 0.0
C267 C 0.98897 0.17819 0.74097 0.0
C268 C 0.78879 0.77766 0.4774 0.0
C269 C 0.78195 0.76777 0.50146 0.0
C270 C 0.76099 0.76348 0.45948 0.0
C271 C 0.72496 0.73887 0.46473 0.0
H272 H 0.81604 0.79489 0.47213 0.0
H273 H 0.76809 0.77153 0.44125 0.0
S274 S 0.69187 0.7087 0.52527 0.0
N275 N 0.7358 0.73502 0.52986 0.0
N276 N 0.68371 0.7083 0.49613 0.0
C277 C 0.71749 0.73019 0.48882 0.0
C278 C 0.74585 0.74478 0.50716 0.0
C279 C 0.76579 0.98184 0.24836 0.0
C280 C 0.73019 0.0102 0.24302 0.0
C281 C 0.79456 0.97763 0.23171 0.0
C282 C 0.7892 0.00167 0.20888 0.0
H283 H 0.77167 0.96181 0.26556 0.0
H284 H 0.82125 0.95525 0.23689 0.0
S285 S 0.70137 0.0821 0.18587 0.0
N286 N 0.69134 0.06389 0.21321 0.0
N287 N 0.74529 0.05624 0.18187 0.0
C288 C 0.75379 0.03102 0.2033 0.0
C289 C 0.72441 0.03537 0.22035 0.0
C290 C 0.02399 0.82332 0.22515 0.0
C291 C 0.98669 0.81054 0.21833 0.0
C292 C 0.04273 0.75996 0.23633 0.0
C293 C 0.02503 0.68085 0.24117 0.0
H294 H 0.03903 0.8829 0.22186 0.0
H295 H 0.07137 0.77348 0.24123 0.0
S296 S 0.92755 0.61398 0.22661 0.0
N297 N 0.93275 0.71185 0.21709 0.0
N298 N 0.96784 0.59289 0.23803 0.0
C299 C 0.98769 0.66702 0.23443 0.0
C300 C 0.96857 0.73173 0.22306 0.0
C301 C 0.28924 0.76786 0.97569 0.0
C302 C 0.28234 0.75984 -0.00012 0.0
C303 C 0.26123 0.75523 0.95793 0.0
C304 C 0.22491 0.73412 0.96349 0.0
H305 H 0.3167 0.78238 0.97018 0.0
H306 H 0.26836 0.7617 0.93958 0.0
S307 S 0.19161 0.7102 0.02451 0.0
N308 N 0.23587 0.73275 0.02877 0.0
N309 N 0.18336 0.70893 -0.00466 0.0
C310 C 0.2174 0.72728 -0.01228 0.0
C311 C 0.24599 0.74029 0.00589 0.0
C312 C 0.98773 0.56369 0.9695 0.0
C313 C 0.02525 0.54916 0.9641 0.0
C314 C 0.96787 0.50335 -0.01909 0.0
C315 C 0.98464 0.42561 -0.01268 0.0
H316 H 0.97347 0.62246 0.96498 0.0
H317 H 0.93915 0.51824 -0.01518 0.0
S318 S 0.08211 0.35451 0.97649 0.0
N319 N 0.07828 0.44996 0.96566 0.0
N320 N 0.0411 0.33655 -0.01305 0.0
C321 C 0.02214 0.40983 -0.01814 0.0
C322 C 0.04239 0.47155 0.97033 0.0
C323 C 0.25066 0.51016 0.20924 0.0
C324 C 0.28705 0.49524 0.21639 0.0
C325 C 0.22159 0.51863 0.22586 0.0
C326 C 0.22757 0.51247 0.25036 0.0
H327 H 0.24435 0.51473 0.19054 0.0
H328 H 0.19411 0.52812 0.21922 0.0
S329 S 0.31799 0.48031 0.27899 0.0
N330 N 0.32757 0.4789 0.25009 0.0
N331 N 0.27316 0.49513 0.28132 0.0
C332 C 0.26395 0.49949 0.25793 0.0
C333 C 0.29356 0.49064 0.24097 0.0
C334 C 0.75812 0.26968 0.95928 0.0
C335 C 0.72273 0.24258 0.96512 0.0
C336 C 0.7873 0.27868 0.97617 0.0
C337 C 0.78256 0.26105 -0.00026 0.0
H338 H 0.76358 0.28409 0.94143 0.0
H339 H 0.81391 0.29897 0.97052 0.0
S340 S 0.69515 0.18976 0.02458 0.0
N341 N 0.68452 0.19933 -0.00355 0.0
N342 N 0.73917 0.21627 0.02819 0.0
C343 C 0.7472 0.23453 0.00596 0.0
C344 C 0.71743 0.22521 -0.01132 0.0
C345 C 0.72308 0.52173 0.72865 0.0
C346 C 0.72868 0.50519 0.75231 0.0
C347 C 0.75212 0.51716 0.71216 0.0
C348 C 0.7882 0.49597 0.71852 0.0
H349 H 0.69592 0.53748 0.72261 0.0
H350 H 0.746 0.53037 0.6942 0.0
S351 S 0.81812 0.44951 0.77854 0.0
N352 N 0.77358 0.46858 0.78149 0.0
N353 N 0.82799 0.45994 0.75047 0.0
C354 C 0.79435 0.47986 0.74219 0.0
C355 C 0.76472 0.48458 0.75905 0.0
C356 C 0.48735 0.06488 0.97477 0.0
C357 C 0.52511 0.05244 0.9699 0.0
C358 C 0.46777 0.00447 -0.01372 0.0
C359 C 0.48506 0.92883 -0.00659 0.0
H360 H 0.47259 0.12182 0.96965 0.0
H361 H 0.43879 0.01753 -0.01038 0.0
S362 S 0.58357 0.86481 -0.01522 0.0
N363 N 0.57911 0.9582 0.97311 0.0
N364 N 0.54242 0.84472 -0.00533 0.0
C365 C 0.52287 0.91546 -0.01132 0.0
C366 C 0.54284 0.97717 0.97697 0.0
C367 C 0.47149 0.24411 0.22836 0.0
C368 C 0.48841 0.32319 0.22291 0.0
C369 C 0.49144 0.18045 0.2387 0.0
C370 C 0.52922 0.19293 0.24404 0.0
H371 H 0.44259 0.23037 0.22437 0.0
H372 H 0.47704 0.12047 0.24233 0.0
S373 S 0.58643 0.39089 0.23441 0.0
N374 N 0.54517 0.41205 0.22444 0.0
N375 N 0.58258 0.2924 0.24381 0.0
C376 C 0.54645 0.27241 0.23903 0.0
C377 C 0.52609 0.33747 0.22851 0.0
C378 C 0.47381 0.75003 0.72741 0.0
C379 C 0.49218 0.82467 0.72062 0.0
C380 C 0.49246 0.68792 0.73904 0.0
C381 C 0.53032 0.69754 0.74438 0.0
H382 H 0.44477 0.73862 0.72353 0.0
H383 H 0.47693 0.63146 0.74371 0.0
S384 S 0.59114 0.88349 0.73136 0.0
N385 N 0.55047 0.90619 0.72077 0.0
N386 N 0.5854 0.78949 0.74257 0.0
C387 C 0.54903 0.7725 0.73797 0.0
C388 C 0.53001 0.83597 0.72612 0.0
C389 C 0.52139 0.42579 0.48471 0.0
C390 C 0.48387 0.44013 0.49015 0.0
C391 C 0.54117 0.48609 0.4733 0.0
C392 C 0.52433 0.56348 0.46678 0.0
H393 H 0.53577 0.36709 0.48918 0.0
H394 H 0.56987 0.47106 0.46937 0.0
S395 S 0.42696 0.63476 0.47781 0.0
N396 N 0.43081 0.53938 0.4887 0.0
N397 N 0.46792 0.6527 0.46725 0.0
C398 C 0.48688 0.57945 0.47234 0.0
C399 C 0.4667 0.51786 0.48399 0.0
C400 C 0.17542 0.80568 0.3539 0.0
C401 C 0.14225 0.7614 0.34501 0.0
C402 C 0.17576 0.8975 0.36778 0.0
C403 C 0.14287 0.94674 0.37392 0.0
H404 H 0.20133 0.77009 0.34952 0.0
H405 H 0.20191 0.93016 0.37377 0.0
S406 S 0.04875 0.86061 0.35585 0.0
N407 N 0.07574 0.77315 0.34353 0.0
N408 N 0.07629 0.9441 0.37037 0.0
C409 C 0.10951 0.90228 0.36568 0.0
C410 C 0.10922 0.81 0.35101 0.0
C411 C 0.06037 0.38235 0.3702 0.0
C412 C 0.08192 0.30394 0.37117 0.0
C413 C 0.06061 0.42149 0.34933 0.0
C414 C 0.08261 0.38321 0.3291 0.0
H415 H 0.04496 0.4165 0.3861 0.0
H416 H 0.04532 0.48486 0.34963 0.0
S417 S 0.13845 0.16826 0.32131 0.0
N418 N 0.12147 0.18246 0.34917 0.0
N419 N 0.1225 0.25591 0.31017 0.0
C420 C 0.10207 0.301 0.32935 0.0
C421 C 0.10161 0.26134 0.35039 0.0
C422 C 0.18232 0.29382 0.85049 0.0
C423 C 0.14949 0.25195 0.83999 0.0
C424 C 0.18261 0.38523 0.86464 0.0
C425 C 0.14991 0.43644 0.86944 0.0
H426 H 0.20808 0.25663 0.84721 0.0
H427 H 0.20852 0.41594 0.87194 0.0
S428 S 0.05669 0.35801 0.84676 0.0
N429 N 0.08349 0.26884 0.83551 0.0
N430 N 0.08395 0.43896 0.86276 0.0
C431 C 0.11687 0.39471 0.85951 0.0
C432 C 0.11669 0.30287 0.84461 0.0
C433 C 0.06675 0.86783 0.86505 0.0
C434 C 0.08919 0.79142 0.86641 0.0
C435 C 0.06763 0.90797 0.84439 0.0
C436 C 0.09119 0.87282 0.82476 0.0
H437 H 0.04997 0.89959 0.88052 0.0
H438 H 0.05133 0.96953 0.84437 0.0
S439 S 0.15003 0.6633 0.81797 0.0
N440 N 0.13142 0.67467 0.8453 0.0
N441 N 0.13367 0.75015 0.80668 0.0
C442 C 0.11175 0.79259 0.82535 0.0
C443 C 0.11063 0.75184 0.84619 0.0
C444 C 0.86298 0.15261 0.63506 0.0
C445 C 0.86431 0.22854 0.6235 0.0
C446 C 0.86197 0.06069 0.62128 0.0
C447 C 0.86343 0.0416 0.59549 0.0
H448 H 0.86236 0.16438 0.65489 0.0
H449 H 0.86091 0.00417 0.63089 0.0
S450 S 0.86806 0.21623 0.55653 0.0
N451 N 0.86701 0.27888 0.58486 0.0
N452 N 0.86649 0.10643 0.55899 0.0
C453 C 0.86512 0.11707 0.58376 0.0
C454 C 0.86517 0.21048 0.59776 0.0
C455 C 0.90133 0.55389 0.60926 0.0
C456 C 0.92714 0.58265 0.62811 0.0
C457 C 0.90047 0.59366 0.58877 0.0
C458 C 0.9253 0.66436 0.58635 0.0
H459 H 0.88103 0.50157 0.61055 0.0
H460 H 0.87939 0.57023 0.57499 0.0
S461 S 1.00044 0.75863 0.62993 0.0
N462 N 0.9799 0.68075 0.64263 0.0
N463 N 0.97832 0.75687 0.60384 0.0
C464 C 0.95275 0.6902 0.60444 0.0
C465 C 0.95365 0.64895 0.62543 0.0
C466 C 0.86749 0.56372 0.11508 0.0
C467 C 0.86841 0.54183 0.08929 0.0
C468 C 0.86839 0.65649 0.12823 0.0
C469 C 0.86915 0.73092 0.11607 0.0
H470 H 0.8669 0.50869 0.12523 0.0
H471 H 0.86823 0.67006 0.14809 0.0
S472 S 0.87105 0.71121 0.04874 0.0
N473 N 0.8701 0.60235 0.05207 0.0
N474 N 0.87053 0.7766 0.07677 0.0
C475 C 0.8694 0.7101 0.09029 0.0
C476 C 0.8694 0.61562 0.07691 0.0
C477 C 0.92821 0.19042 0.12759 0.0
C478 C 0.93556 0.09526 0.12555 0.0
C479 C 0.92736 0.22952 0.10683 0.0
C480 C 0.93334 0.17414 0.08344 0.0
H481 H 0.92166 0.23408 0.14526 0.0
H482 H 0.92012 0.30223 0.10893 0.0
S483 S 0.9528 0.92131 0.06826 0.0
N484 N 0.94912 0.94692 0.09845 0.0
N485 N 0.94673 0.02017 0.05922 0.0
C486 C 0.94155 0.07951 0.08118 0.0
C487 C 0.94294 0.03999 0.10236 0.0
C488 C 0.64063 0.7885 0.8696 0.0
C489 C 0.64951 0.76607 0.8446 0.0
C490 C 0.64022 0.88154 0.88264 0.0
C491 C 0.6497 0.95512 0.8713 0.0
H492 H 0.6328 0.73411 0.87891 0.0
H493 H 0.63229 0.89587 0.90174 0.0
S494 S 0.67784 0.93054 0.80641 0.0
N495 N 0.66913 0.82308 0.80911 0.0
N496 N 0.67027 -0.00281 0.83372 0.0
C497 C 0.6601 0.93253 0.84648 0.0
C498 C 0.65946 0.83822 0.8331 0.0
C499 C 0.56591 0.40166 0.8753 0.0
C500 C 0.57914 0.31077 0.87364 0.0
C501 C 0.56625 0.44287 0.8548 0.0
C502 C 0.58051 0.39453 0.83238 0.0
H503 H 0.55693 0.4425 0.89277 0.0
H504 H 0.55756 0.51456 0.85693 0.0
S505 S 0.6143 0.15163 0.81815 0.0
N506 N 0.60338 0.17103 0.84746 0.0
N507 N 0.60494 0.24888 0.80912 0.0
C508 C 0.59196 0.30209 0.83029 0.0
C509 C 0.59109 0.26001 0.85095 0.0
C510 C 0.62004 0.29681 0.34901 0.0
C511 C 0.65301 0.24902 0.34204 0.0
C512 C 0.62023 0.38699 0.36374 0.0
C513 C 0.65341 0.4337 0.3714 0.0
H514 H 0.59388 0.26419 0.34304 0.0
H515 H 0.5942 0.42161 0.36843 0.0
S516 S 0.74716 0.33894 0.35824 0.0
N517 N 0.71966 0.25395 0.34443 0.0
N518 N 0.72005 0.42512 0.37128 0.0
C519 C 0.68655 0.38659 0.36466 0.0
C520 C 0.68634 0.29374 0.35022 0.0
C521 C 0.56625 0.8626 0.36508 0.0
C522 C 0.58983 0.78835 0.36651 0.0
C523 C 0.56682 0.90386 0.34461 0.0
C524 C 0.59112 0.8719 0.32518 0.0
H525 H 0.54879 0.89205 0.3804 0.0
H526 H 0.54964 0.96393 0.34461 0.0
S527 S 0.65309 0.668 0.31853 0.0
N528 N 0.63408 0.6766 0.34564 0.0
N529 N 0.63552 0.75363 0.30728 0.0
C530 C 0.6128 0.79336 0.32578 0.0
C531 C 0.61209 0.7517 0.34648 0.0
C532 C 0.36413 0.14041 0.13347 0.0
C533 C 0.36443 0.21655 0.12195 0.0
C534 C 0.36359 0.04851 0.11963 0.0
C535 C 0.36452 0.02967 0.09383 0.0
H536 H 0.36393 0.15197 0.1533 0.0
H537 H 0.36324 -0.00817 0.12921 0.0
S538 S 0.36635 0.20476 0.05494 0.0
N539 N 0.36558 0.26718 0.0833 0.0
N540 N 0.36591 0.09485 0.05737 0.0
C541 C 0.3652 0.10529 0.08215 0.0
C542 C 0.36478 0.19863 0.09619 0.0
C543 C 0.40165 0.53986 0.10691 0.0
C544 C 0.42729 0.56896 0.12586 0.0
C545 C 0.40084 0.57978 0.08645 0.0
C546 C 0.42559 0.65077 0.08417 0.0
H547 H 0.38137 0.48744 0.10816 0.0
H548 H 0.37983 0.55637 0.07262 0.0
S549 S 0.50043 0.74548 0.12794 0.0
N550 N 0.47988 0.66739 0.14056 0.0
N551 N 0.47846 0.74359 0.10179 0.0
C552 C 0.45296 0.67666 0.1023 0.0
C553 C 0.45379 0.63538 0.12326 0.0
C554 C 0.36825 0.6884 0.59377 0.0
C555 C 0.37125 0.70937 0.61951 0.0
C556 C 0.36826 0.59604 0.58041 0.0
C557 C 0.37017 0.52111 0.59233 0.0
H558 H 0.36667 0.74387 0.58379 0.0
H559 H 0.3664 0.58319 0.56058 0.0
S560 S 0.37775 0.53828 0.65943 0.0
N561 N 0.3763 0.64752 0.65644 0.0
N562 N 0.37498 0.47374 0.63133 0.0
C563 C 0.37257 0.54091 0.61807 0.0
C564 C 0.37352 0.63508 0.63166 0.0
C565 C 0.40988 0.06893 0.58065 0.0
C566 C 0.43238 0.14497 0.57898 0.0
C567 C 0.41136 0.02909 0.60114 0.0
C568 C 0.43539 0.06356 0.62072 0.0
H569 H 0.3899 0.04189 0.56639 0.0
H570 H 0.3925 0.97313 0.60204 0.0
S571 S 0.50245 0.25555 0.62462 0.0
N572 N 0.48154 0.24877 0.59788 0.0
N573 N 0.48413 0.17311 0.63672 0.0
C574 C 0.45983 0.13531 0.61873 0.0
C575 C 0.45837 0.17629 0.59772 0.0
loop_
_geom_bond_atom_site_label_1
_geom_bond_atom_site_label_2
_geom_bond_distance
_geom_bond_site_symmetry_2
_ccdc_geom_bond_type
Mg0 O1 2.028 . S
Mg0 O7 1.986 . S
Mg0 O9 2.114 . S
Mg0 O10 2.251 . S
Mg0 O13 2.010 . S
O1 Mg0 2.028 . S
O1 C4 1.250 . S
O2 Mg3 2.028 . S
O2 C4 1.248 . S
Mg3 O2 2.028 . S
Mg3 O8 2.032 . S
Mg3 O10 2.079 . S
C4 O1 1.250 . S
C4 O2 1.248 . S
C5 O6 1.264 . S
C5 O13 1.249 . S
O6 C5 1.264 . S
O7 Mg0 1.986 . S
O7 C11 1.246 . S
O8 Mg3 2.032 . S
O8 C11 1.259 . S
O9 Mg0 2.114 . S
O9 C12 1.252 . S
O10 Mg0 2.251 . S
O10 Mg3 2.079 . S
O10 C12 1.273 . S
C11 O7 1.246 . S
C11 O8 1.259 . S
C12 O9 1.252 . S
C12 O10 1.273 . S
O13 Mg0 2.010 . S
O13 C5 1.249 . S
Mg14 O15 2.028 . S
Mg14 O21 1.986 . S
Mg14 O23 2.114 . S
Mg14 O24 2.251 . S
Mg14 O27 2.010 . S
O15 Mg14 2.028 . S
O15 C18 1.250 . S
O16 Mg17 2.028 . S
O16 C18 1.248 . S
Mg17 O16 2.028 . S
Mg17 O22 2.032 . S
Mg17 O24 2.079 . S
C18 O15 1.250 . S
C18 O16 1.248 . S
C19 O20 1.264 . S
C19 O27 1.249 . S
O20 C19 1.264 . S
O21 Mg14 1.986 . S
O21 C25 1.246 . S
O22 Mg17 2.032 . S
O22 C25 1.259 . S
O23 Mg14 2.114 . S
O23 C26 1.252 1_545 S
O24 Mg14 2.251 . S
O24 Mg17 2.079 . S
O24 C26 1.273 1_545 S
C25 O21 1.246 . S
C25 O22 1.259 . S
C26 O23 1.252 1_565 S
C26 O24 1.273 1_565 S
O27 Mg14 2.010 . S
O27 C19 1.249 . S
Mg28 O29 2.028 . S
Mg28 O35 1.986 . S
Mg28 O37 2.114 . S
Mg28 O38 2.251 . S
Mg28 O41 2.010 . S
O29 Mg28 2.028 . S
O29 C32 1.250 . S
O30 Mg31 2.028 . S
O30 C32 1.248 . S
Mg31 O30 2.028 . S
Mg31 O36 2.032 . S
Mg31 O38 2.079 . S
C32 O29 1.250 . S
C32 O30 1.248 . S
C33 O34 1.264 . S
C33 O41 1.249 . S
O34 C33 1.264 . S
O35 Mg28 1.986 . S
O35 C39 1.246 . S
O36 Mg31 2.032 . S
O36 C39 1.259 . S
O37 Mg28 2.114 . S
O37 C40 1.252 . S
O38 Mg28 2.251 . S
O38 Mg31 2.079 . S
O38 C40 1.273 . S
C39 O35 1.246 . S
C39 O36 1.259 . S
C40 O37 1.252 . S
C40 O38 1.273 . S
O41 Mg28 2.010 . S
O41 C33 1.249 . S
Mg42 O43 2.028 . S
Mg42 O49 1.986 . S
Mg42 O51 2.114 . S
Mg42 O52 2.251 . S
Mg42 O55 2.010 . S
O43 Mg42 2.028 . S
O43 C46 1.250 . S
O44 Mg45 2.028 . S
O44 C46 1.248 . S
Mg45 O44 2.028 . S
Mg45 O50 2.032 . S
Mg45 O52 2.079 . S
C46 O43 1.250 . S
C46 O44 1.248 . S
C47 O48 1.264 . S
C47 O55 1.249 . S
O48 C47 1.264 . S
O49 Mg42 1.986 . S
O49 C53 1.246 . S
O50 Mg45 2.032 . S
O50 C53 1.259 . S
O51 Mg42 2.114 . S
O51 C54 1.252 1_565 S
O52 Mg42 2.251 . S
O52 Mg45 2.079 . S
O52 C54 1.273 1_565 S
C53 O49 1.246 . S
C53 O50 1.259 . S
C54 O51 1.252 1_545 S
C54 O52 1.273 1_545 S
O55 Mg42 2.010 . S
O55 C47 1.249 . S
Mg56 O57 2.028 . S
Mg56 O63 1.986 . S
Mg56 O65 2.114 . S
Mg56 O66 2.251 . S
Mg56 O69 2.010 . S
O57 Mg56 2.028 . S
O57 C60 1.250 . S
O58 Mg59 2.028 . S
O58 C60 1.248 . S
Mg59 O58 2.028 . S
Mg59 O64 2.032 . S
Mg59 O66 2.079 . S
C60 O57 1.250 . S
C60 O58 1.248 . S
C61 O62 1.264 . S
C61 O69 1.249 . S
O62 C61 1.264 . S
O63 Mg56 1.986 . S
O63 C67 1.246 . S
O64 Mg59 2.032 . S
O64 C67 1.259 . S
O65 Mg56 2.114 . S
O65 C68 1.252 . S
O66 Mg56 2.251 . S
O66 Mg59 2.079 . S
O66 C68 1.273 . S
C67 O63 1.246 . S
C67 O64 1.259 . S
C68 O65 1.252 . S
C68 O66 1.273 . S
O69 Mg56 2.010 . S
O69 C61 1.249 . S
Mg70 O71 2.028 . S
Mg70 O77 1.986 . S
Mg70 O79 2.114 . S
Mg70 O80 2.251 . S
Mg70 O83 2.010 . S
O71 Mg70 2.028 . S
O71 C74 1.250 . S
O72 Mg73 2.028 . S
O72 C74 1.248 . S
Mg73 O72 2.028 . S
Mg73 O78 2.032 . S
Mg73 O80 2.079 . S
C74 O71 1.250 . S
C74 O72 1.248 . S
C75 O76 1.264 . S
C75 O83 1.249 . S
O76 C75 1.264 . S
O77 Mg70 1.986 . S
O77 C81 1.246 . S
O78 Mg73 2.032 . S
O78 C81 1.259 . S
O79 Mg70 2.114 . S
O79 C82 1.252 . S
O80 Mg70 2.251 . S
O80 Mg73 2.079 . S
O80 C82 1.273 . S
C81 O77 1.246 . S
C81 O78 1.259 . S
C82 O79 1.252 . S
C82 O80 1.273 . S
O83 Mg70 2.010 . S
O83 C75 1.249 . S
Mg84 O85 2.028 . S
Mg84 O91 1.986 . S
Mg84 O93 2.114 . S
Mg84 O94 2.251 . S
Mg84 O97 2.010 . S
O85 Mg84 2.028 . S
O85 C88 1.250 . S
O86 Mg87 2.028 . S
O86 C88 1.248 . S
Mg87 O86 2.028 . S
Mg87 O92 2.032 . S
Mg87 O94 2.079 . S
C88 O85 1.250 . S
C88 O86 1.248 . S
C89 O90 1.264 . S
C89 O97 1.249 . S
O90 C89 1.264 . S
O91 Mg84 1.986 . S
O91 C95 1.246 . S
O92 Mg87 2.032 . S
O92 C95 1.259 . S
O93 Mg84 2.114 . S
O93 C96 1.252 . S
O94 Mg84 2.251 . S
O94 Mg87 2.079 . S
O94 C96 1.273 . S
C95 O91 1.246 . S
C95 O92 1.259 . S
C96 O93 1.252 . S
C96 O94 1.273 . S
O97 Mg84 2.010 . S
O97 C89 1.249 . S
Mg98 O99 2.028 . S
Mg98 O105 1.986 . S
Mg98 O107 2.114 . S
Mg98 O108 2.251 . S
Mg98 O111 2.010 . S
O99 Mg98 2.028 . S
O99 C102 1.250 . S
O100 Mg101 2.028 . S
O100 C102 1.248 . S
Mg101 O100 2.028 . S
Mg101 O106 2.032 . S
Mg101 O108 2.079 . S
C102 O99 1.250 . S
C102 O100 1.248 . S
C103 O104 1.264 . S
C103 O111 1.249 . S
O104 C103 1.264 . S
O105 Mg98 1.986 . S
O105 C109 1.246 . S
O106 Mg101 2.032 . S
O106 C109 1.259 . S
O107 Mg98 2.114 . S
O107 C110 1.252 . S
O108 Mg98 2.251 . S
O108 Mg101 2.079 . S
O108 C110 1.273 . S
C109 O105 1.246 . S
C109 O106 1.259 . S
C110 O107 1.252 . S
C110 O108 1.273 . S
O111 Mg98 2.010 . S
O111 C103 1.249 . S
Mg112 O113 2.028 . S
Mg112 O119 1.986 . S
Mg112 O121 2.114 . S
Mg112 O122 2.251 . S
Mg112 O125 2.010 . S
O113 Mg112 2.028 . S
O113 C116 1.250 . S
O114 Mg115 2.028 . S
O114 C116 1.248 . S
Mg115 O114 2.028 . S
Mg115 O120 2.032 . S
Mg115 O122 2.079 . S
C116 O113 1.250 . S
C116 O114 1.248 . S
C117 O118 1.264 . S
C117 O125 1.249 . S
O118 C117 1.264 . S
O119 Mg112 1.986 . S
O119 C123 1.246 . S
O120 Mg115 2.032 . S
O120 C123 1.259 . S
O121 Mg112 2.114 . S
O121 C124 1.252 . S
O122 Mg112 2.251 . S
O122 Mg115 2.079 . S
O122 C124 1.273 . S
C123 O119 1.246 . S
C123 O120 1.259 . S
C124 O121 1.252 . S
C124 O122 1.273 . S
O125 Mg112 2.010 . S
O125 C117 1.249 . S
Mg126 O127 2.028 . S
Mg126 O133 1.986 . S
Mg126 O135 2.114 . S
Mg126 O136 2.251 . S
Mg126 O139 2.010 . S
O127 Mg126 2.028 . S
O127 C130 1.250 . S
O128 Mg129 2.028 . S
O128 C130 1.248 . S
Mg129 O128 2.028 . S
Mg129 O134 2.032 . S
Mg129 O136 2.079 . S
C130 O127 1.250 . S
C130 O128 1.248 . S
C131 O132 1.264 . S
C131 O139 1.249 . S
O132 C131 1.264 . S
O133 Mg126 1.986 . S
O133 C137 1.246 . S
O134 Mg129 2.032 . S
O134 C137 1.259 . S
O135 Mg126 2.114 . S
O135 C138 1.252 1_545 S
O136 Mg126 2.251 . S
O136 Mg129 2.079 . S
O136 C138 1.273 1_545 S
C137 O133 1.246 . S
C137 O134 1.259 . S
C138 O135 1.252 1_565 S
C138 O136 1.273 1_565 S
O139 Mg126 2.010 . S
O139 C131 1.249 . S
Mg140 O141 2.028 . S
Mg140 O147 1.986 . S
Mg140 O149 2.114 . S
Mg140 O150 2.251 . S
Mg140 O153 2.010 . S
O141 Mg140 2.028 . S
O141 C144 1.250 . S
O142 Mg143 2.028 . S
O142 C144 1.248 . S
Mg143 O142 2.028 . S
Mg143 O148 2.032 . S
Mg143 O150 2.079 . S
C144 O141 1.250 . S
C144 O142 1.248 . S
C145 O146 1.264 . S
C145 O153 1.249 . S
O146 C145 1.264 . S
O147 Mg140 1.986 . S
O147 C151 1.246 . S
O148 Mg143 2.032 . S
O148 C151 1.259 . S
O149 Mg140 2.114 . S
O149 C152 1.252 . S
O150 Mg140 2.251 . S
O150 Mg143 2.079 . S
O150 C152 1.273 . S
C151 O147 1.246 . S
C151 O148 1.259 . S
C152 O149 1.252 . S
C152 O150 1.273 . S
O153 Mg140 2.010 . S
O153 C145 1.249 . S
Mg154 O155 2.028 . S
Mg154 O161 1.986 . S
Mg154 O163 2.114 . S
Mg154 O164 2.251 . S
Mg154 O167 2.010 . S
O155 Mg154 2.028 . S
O155 C158 1.250 . S
O156 Mg157 2.028 . S
O156 C158 1.248 . S
Mg157 O156 2.028 . S
Mg157 O162 2.032 . S
Mg157 O164 2.079 . S
C158 O155 1.250 . S
C158 O156 1.248 . S
C159 O160 1.264 . S
C159 O167 1.249 . S
O160 C159 1.264 . S
O161 Mg154 1.986 . S
O161 C165 1.246 . S
O162 Mg157 2.032 . S
O162 C165 1.259 . S
O163 Mg154 2.114 . S
O163 C166 1.252 1_565 S
O164 Mg154 2.251 . S
O164 Mg157 2.079 . S
O164 C166 1.273 1_565 S
C165 O161 1.246 . S
C165 O162 1.259 . S
C166 O163 1.252 1_545 S
C166 O164 1.273 1_545 S
O167 Mg154 2.010 . S
O167 C159 1.249 . S
Mg168 O169 2.028 . S
Mg168 O175 1.986 . S
Mg168 O177 2.114 . S
Mg168 O178 2.251 . S
Mg168 O181 2.010 . S
O169 Mg168 2.028 . S
O169 C172 1.250 . S
O170 Mg171 2.028 . S
O170 C172 1.248 . S
Mg171 O170 2.028 . S
Mg171 O176 2.032 . S
Mg171 O178 2.079 . S
C172 O169 1.250 . S
C172 O170 1.248 . S
C173 O174 1.264 . S
C173 O181 1.249 . S
O174 C173 1.264 . S
O175 Mg168 1.986 . S
O175 C179 1.246 . S
O176 Mg171 2.032 . S
O176 C179 1.259 . S
O177 Mg168 2.114 . S
O177 C180 1.252 . S
O178 Mg168 2.251 . S
O178 Mg171 2.079 . S
O178 C180 1.273 . S
C179 O175 1.246 . S
C179 O176 1.259 . S
C180 O177 1.252 . S
C180 O178 1.273 . S
O181 Mg168 2.010 . S
O181 C173 1.249 . S
Mg182 O183 2.028 . S
Mg182 O189 1.986 . S
Mg182 O191 2.114 . S
Mg182 O192 2.251 . S
Mg182 O195 2.010 . S
O183 Mg182 2.028 . S
O183 C186 1.250 . S
O184 Mg185 2.028 . S
O184 C186 1.248 . S
Mg185 O184 2.028 . S
Mg185 O190 2.032 . S
Mg185 O192 2.079 . S
C186 O183 1.250 . S
C186 O184 1.248 . S
C187 O188 1.264 . S
C187 O195 1.249 . S
O188 C187 1.264 . S
O189 Mg182 1.986 . S
O189 C193 1.246 . S
O190 Mg185 2.032 . S
O190 C193 1.259 . S
O191 Mg182 2.114 . S
O191 C194 1.252 . S
O192 Mg182 2.251 . S
O192 Mg185 2.079 . S
O192 C194 1.273 . S
C193 O189 1.246 . S
C193 O190 1.259 . S
C194 O191 1.252 . S
C194 O192 1.273 . S
O195 Mg182 2.010 . S
O195 C187 1.249 . S
Mg196 O197 2.028 . S
Mg196 O203 1.986 . S
Mg196 O205 2.114 . S
Mg196 O206 2.251 . S
Mg196 O209 2.010 . S
O197 Mg196 2.028 . S
O197 C200 1.250 . S
O198 Mg199 2.028 . S
O198 C200 1.248 . S
Mg199 O198 2.028 . S
Mg199 O204 2.032 . S
Mg199 O206 2.079 . S
C200 O197 1.250 . S
C200 O198 1.248 . S
C201 O202 1.264 . S
C201 O209 1.249 . S
O202 C201 1.264 . S
O203 Mg196 1.986 . S
O203 C207 1.246 . S
O204 Mg199 2.032 . S
O204 C207 1.259 . S
O205 Mg196 2.114 . S
O205 C208 1.252 . S
O206 Mg196 2.251 . S
O206 Mg199 2.079 . S
O206 C208 1.273 . S
C207 O203 1.246 . S
C207 O204 1.259 . S
C208 O205 1.252 . S
C208 O206 1.273 . S
O209 Mg196 2.010 . S
O209 C201 1.249 . S
Mg210 O211 2.028 . S
Mg210 O217 1.986 . S
Mg210 O219 2.114 . S
Mg210 O220 2.251 . S
Mg210 O223 2.010 . S
O211 Mg210 2.028 . S
O211 C214 1.250 . S
O212 Mg213 2.028 . S
O212 C214 1.248 . S
Mg213 O212 2.028 . S
Mg213 O218 2.032 . S
Mg213 O220 2.079 . S
C214 O211 1.250 . S
C214 O212 1.248 . S
C215 O216 1.264 . S
C215 O223 1.249 . S
O216 C215 1.264 . S
O217 Mg210 1.986 . S
O217 C221 1.246 . S
O218 Mg213 2.032 . S
O218 C221 1.259 . S
O219 Mg210 2.114 . S
O219 C222 1.252 . S
O220 Mg210 2.251 . S
O220 Mg213 2.079 . S
O220 C222 1.273 . S
C221 O217 1.246 . S
C221 O218 1.259 . S
C222 O219 1.252 . S
C222 O220 1.273 . S
O223 Mg210 2.010 . S
O223 C215 1.249 . S
C224 C225 1.369 . S
C224 C226 1.419 . S
C224 H228 0.930 . S
C225 C224 1.369 . S
C225 C234 1.429 . S
C226 C224 1.419 . S
C226 C227 1.363 . S
C226 H229 0.929 . S
C227 C226 1.363 . S
C227 C233 1.428 . S
H228 C224 0.930 . S
H229 C226 0.929 . S
S230 N231 1.613 . S
S230 N232 1.610 . S
N231 S230 1.613 . S
N231 C234 1.350 . S
N232 S230 1.610 . S
N232 C233 1.351 . S
C233 C227 1.428 . S
C233 N232 1.351 . S
C233 C234 1.434 . S
C234 C225 1.429 . S
C234 N231 1.350 . S
C234 C233 1.434 . S
C235 C236 1.369 . S
C235 C237 1.419 1_655 S
C235 H239 0.930 . S
C236 C235 1.369 . S
C236 C245 1.429 1_565 S
C237 C235 1.419 1_455 S
C237 C238 1.363 1_565 S
C237 H240 0.929 . S
C238 C237 1.363 1_545 S
C238 C244 1.428 . S
H239 C235 0.930 . S
H240 C237 0.929 . S
S241 N242 1.613 1_455 S
S241 N243 1.610 . S
N242 S241 1.613 1_655 S
N242 C245 1.350 . S
N243 S241 1.610 . S
N243 C244 1.351 . S
C244 C238 1.428 . S
C244 N243 1.351 . S
C244 C245 1.434 1_455 S
C245 C236 1.429 1_545 S
C245 N242 1.350 . S
C245 C244 1.434 1_655 S
C246 C247 1.369 1_545 S
C246 C248 1.419 . S
C246 H250 0.930 . S
C247 C246 1.369 1_565 S
C247 C256 1.429 . S
C248 C246 1.419 . S
C248 C249 1.363 . S
C248 H251 0.929 . S
C249 C248 1.363 . S
C249 C255 1.428 1_545 S
H250 C246 0.930 . S
H251 C248 0.929 . S
S252 N253 1.613 . S
S252 N254 1.610 . S
N253 S252 1.613 . S
N253 C256 1.350 . S
N254 S252 1.610 . S
N254 C255 1.351 . S
C255 C249 1.428 1_565 S
C255 N254 1.351 . S
C255 C256 1.434 . S
C256 C247 1.429 . S
C256 N253 1.350 . S
C256 C255 1.434 . S
C257 C258 1.369 . S
C257 C259 1.419 . S
C257 H261 0.930 . S
C258 C257 1.369 . S
C258 C267 1.429 1_455 S
C259 C257 1.419 . S
C259 C260 1.363 1_455 S
C259 H262 0.929 . S
C260 C259 1.363 1_655 S
C260 C266 1.428 . S
H261 C257 0.930 . S
H262 C259 0.929 . S
S263 N264 1.613 . S
S263 N265 1.610 . S
N264 S263 1.613 . S
N264 C267 1.350 . S
N265 S263 1.610 . S
N265 C266 1.351 . S
C266 C260 1.428 . S
C266 N265 1.351 . S
C266 C267 1.434 . S
C267 C258 1.429 1_655 S
C267 N264 1.350 . S
C267 C266 1.434 . S
C268 C269 1.369 . S
C268 C270 1.419 . S
C268 H272 0.930 . S
C269 C268 1.369 . S
C269 C278 1.429 . S
C270 C268 1.419 . S
C270 C271 1.363 . S
C270 H273 0.929 . S
C271 C270 1.363 . S
C271 C277 1.428 . S
H272 C268 0.930 . S
H273 C270 0.929 . S
S274 N275 1.613 . S
S274 N276 1.610 . S
N275 S274 1.613 . S
N275 C278 1.350 . S
N276 S274 1.610 . S
N276 C277 1.351 . S
C277 C271 1.428 . S
C277 N276 1.351 . S
C277 C278 1.434 . S
C278 C269 1.429 . S
C278 N275 1.350 . S
C278 C277 1.434 . S
C279 C280 1.369 . S
C279 C281 1.419 . S
C279 H283 0.930 . S
C280 C279 1.369 . S
C280 C289 1.429 1_545 S
C281 C279 1.419 . S
C281 C282 1.363 1_545 S
C281 H284 0.929 . S
C282 C281 1.363 1_565 S
C282 C288 1.428 . S
H283 C279 0.930 . S
H284 C281 0.929 . S
S285 N286 1.613 . S
S285 N287 1.610 . S
N286 S285 1.613 . S
N286 C289 1.350 . S
N287 S285 1.610 . S
N287 C288 1.351 . S
C288 C282 1.428 . S
C288 N287 1.351 . S
C288 C289 1.434 . S
C289 C280 1.429 1_565 S
C289 N286 1.350 . S
C289 C288 1.434 . S
C290 C291 1.369 1_455 S
C290 C292 1.419 . S
C290 H294 0.930 . S
C291 C290 1.369 1_655 S
C291 C300 1.429 . S
C292 C290 1.419 . S
C292 C293 1.363 . S
C292 H295 0.929 . S
C293 C292 1.363 . S
C293 C299 1.428 1_455 S
H294 C290 0.930 . S
H295 C292 0.929 . S
S296 N297 1.613 . S
S296 N298 1.610 . S
N297 S296 1.613 . S
N297 C300 1.350 . S
N298 S296 1.610 . S
N298 C299 1.351 . S
C299 C293 1.428 1_655 S
C299 N298 1.351 . S
C299 C300 1.434 . S
C300 C291 1.429 . S
C300 N297 1.350 . S
C300 C299 1.434 . S
C301 C302 1.369 . S
C301 C303 1.419 1_554 S
C301 H305 0.930 . S
C302 C301 1.369 . S
C302 C311 1.429 . S
C303 C301 1.419 1_556 S
C303 C304 1.363 . S
C303 H306 0.929 . S
C304 C303 1.363 . S
C304 C310 1.428 . S
H305 C301 0.930 . S
H306 C303 0.929 . S
S307 N308 1.613 . S
S307 N309 1.610 1_554 S
N308 S307 1.613 . S
N308 C311 1.350 . S
N309 S307 1.610 1_556 S
N309 C310 1.351 . S
C310 C304 1.428 . S
C310 N309 1.351 . S
C310 C311 1.434 1_556 S
C311 C302 1.429 . S
C311 N308 1.350 . S
C311 C310 1.434 1_554 S
C312 C313 1.369 1_554 S
C312 C314 1.419 1_455 S
C312 H316 0.930 . S
C313 C312 1.369 1_556 S
C313 C322 1.429 . S
C314 C312 1.419 1_655 S
C314 C315 1.363 . S
C314 H317 0.929 . S
C315 C314 1.363 . S
C315 C321 1.428 1_554 S
H316 C312 0.930 . S
H317 C314 0.929 . S
S318 N319 1.613 1_655 S
S318 N320 1.610 . S
N319 S318 1.613 1_455 S
N319 C322 1.350 . S
N320 S318 1.610 . S
N320 C321 1.351 . S
C321 C315 1.428 1_556 S
C321 N320 1.351 . S
C321 C322 1.434 1_655 S
C322 C313 1.429 . S
C322 N319 1.350 . S
C322 C321 1.434 1_455 S
C323 C324 1.369 . S
C323 C325 1.419 . S
C323 H327 0.930 . S
C324 C323 1.369 . S
C324 C333 1.429 . S
C325 C323 1.419 . S
C325 C326 1.363 . S
C325 H328 0.929 . S
C326 C325 1.363 . S
C326 C332 1.428 . S
H327 C323 0.930 . S
H328 C325 0.929 . S
S329 N330 1.613 . S
S329 N331 1.610 . S
N330 S329 1.613 . S
N330 C333 1.350 . S
N331 S329 1.610 . S
N331 C332 1.351 . S
C332 C326 1.428 . S
C332 N331 1.351 . S
C332 C333 1.434 . S
C333 C324 1.429 . S
C333 N330 1.350 . S
C333 C332 1.434 . S
C334 C335 1.369 . S
C334 C336 1.421 . S
C334 H338 0.930 . S
C335 C334 1.369 . S
C335 C344 1.426 1_556 S
C336 C334 1.421 . S
C336 C337 1.361 1_556 S
C336 H339 0.929 . S
C337 C336 1.361 1_554 S
C337 C343 1.428 . S
H338 C334 0.930 . S
H339 C336 0.929 . S
S340 N341 1.613 . S
S340 N342 1.610 . S
N341 S340 1.613 . S
N341 C344 1.350 . S
N342 S340 1.610 . S
N342 C343 1.351 . S
C343 C337 1.428 . S
C343 N342 1.351 . S
C343 C344 1.437 . S
C344 C335 1.426 1_554 S
C344 N341 1.350 . S
C344 C343 1.437 . S
C345 C346 1.369 . S
C345 C347 1.419 . S
C345 H349 0.930 . S
C346 C345 1.369 . S
C346 C355 1.429 . S
C347 C345 1.419 . S
C347 C348 1.363 . S
C347 H350 0.929 . S
C348 C347 1.363 . S
C348 C354 1.428 . S
H349 C345 0.930 . S
H350 C347 0.929 . S
S351 N352 1.613 . S
S351 N353 1.610 . S
N352 S351 1.613 . S
N352 C355 1.350 . S
N353 S351 1.610 . S
N353 C354 1.351 . S
C354 C348 1.428 . S
C354 N353 1.351 . S
C354 C355 1.434 . S
C355 C346 1.429 . S
C355 N352 1.350 . S
C355 C354 1.434 . S
C356 C357 1.369 . S
C356 C358 1.419 1_545 S
C356 H360 0.930 . S
C357 C356 1.369 . S
C357 C366 1.429 1_556 S
C358 C356 1.419 1_565 S
C358 C359 1.363 1_556 S
C358 H361 0.929 . S
C359 C358 1.363 1_554 S
C359 C365 1.428 . S
H360 C356 0.930 . S
H361 C358 0.929 . S
S362 N363 1.613 1_565 S
S362 N364 1.610 . S
N363 S362 1.613 1_545 S
N363 C366 1.350 . S
N364 S362 1.610 . S
N364 C365 1.351 . S
C365 C359 1.428 . S
C365 N364 1.351 . S
C365 C366 1.434 1_565 S
C366 C357 1.429 1_554 S
C366 N363 1.350 . S
C366 C365 1.434 1_545 S
C367 C368 1.369 . S
C367 C369 1.419 . S
C367 H371 0.930 . S
C368 C367 1.369 . S
C368 C377 1.429 . S
C369 C367 1.419 . S
C369 C370 1.363 . S
C369 H372 0.929 . S
C370 C369 1.363 . S
C370 C376 1.428 . S
H371 C367 0.930 . S
H372 C369 0.929 . S
S373 N374 1.613 . S
S373 N375 1.610 . S
N374 S373 1.613 . S
N374 C377 1.350 . S
N375 S373 1.610 . S
N375 C376 1.351 . S
C376 C370 1.428 . S
C376 N375 1.351 . S
C376 C377 1.434 . S
C377 C368 1.429 . S
C377 N374 1.350 . S
C377 C376 1.434 . S
C378 C379 1.369 . S
C378 C380 1.419 . S
C378 H382 0.930 . S
C379 C378 1.369 . S
C379 C388 1.429 . S
C380 C378 1.419 . S
C380 C381 1.363 . S
C380 H383 0.929 . S
C381 C380 1.363 . S
C381 C387 1.428 . S
H382 C378 0.930 . S
H383 C380 0.929 . S
S384 N385 1.613 . S
S384 N386 1.610 . S
N385 S384 1.613 . S
N385 C388 1.350 . S
N386 S384 1.610 . S
N386 C387 1.351 . S
C387 C381 1.428 . S
C387 N386 1.351 . S
C387 C388 1.434 . S
C388 C379 1.429 . S
C388 N385 1.350 . S
C388 C387 1.434 . S
C389 C390 1.369 . S
C389 C391 1.419 . S
C389 H393 0.930 . S
C390 C389 1.369 . S
C390 C399 1.429 . S
C391 C389 1.419 . S
C391 C392 1.363 . S
C391 H394 0.929 . S
C392 C391 1.363 . S
C392 C398 1.428 . S
H393 C389 0.930 . S
H394 C391 0.929 . S
S395 N396 1.613 . S
S395 N397 1.610 . S
N396 S395 1.613 . S
N396 C399 1.350 . S
N397 S395 1.610 . S
N397 C398 1.351 . S
C398 C392 1.428 . S
C398 N397 1.351 . S
C398 C399 1.434 . S
C399 C390 1.429 . S
C399 N396 1.350 . S
C399 C398 1.434 . S
C400 C401 1.369 . S
C400 C402 1.419 . S
C400 H404 0.930 . S
C401 C400 1.369 . S
C401 C410 1.429 . S
C402 C400 1.419 . S
C402 C403 1.363 . S
C402 H405 0.929 . S
C403 C402 1.363 . S
C403 C409 1.428 . S
H404 C400 0.930 . S
H405 C402 0.929 . S
S406 N407 1.613 1_545 S
S406 N408 1.610 . S
N407 S406 1.613 1_565 S
N407 C410 1.350 . S
N408 S406 1.610 . S
N408 C409 1.351 1_545 S
C409 C403 1.428 . S
C409 N408 1.351 1_565 S
C409 C410 1.434 . S
C410 C401 1.429 . S
C410 N407 1.350 . S
C410 C409 1.434 . S
C411 C412 1.369 . S
C411 C413 1.419 . S
C411 H415 0.930 . S
C412 C411 1.369 . S
C412 C421 1.429 . S
C413 C411 1.419 . S
C413 C414 1.363 . S
C413 H416 0.929 . S
C414 C413 1.363 . S
C414 C420 1.428 . S
H415 C411 0.930 . S
H416 C413 0.929 . S
S417 N418 1.613 . S
S417 N419 1.610 . S
N418 S417 1.613 . S
N418 C421 1.350 . S
N419 S417 1.610 . S
N419 C420 1.351 . S
C420 C414 1.428 . S
C420 N419 1.351 . S
C420 C421 1.434 . S
C421 C412 1.429 . S
C421 N418 1.350 . S
C421 C420 1.434 . S
C422 C423 1.369 . S
C422 C424 1.419 . S
C422 H426 0.930 . S
C423 C422 1.369 . S
C423 C432 1.429 . S
C424 C422 1.419 . S
C424 C425 1.363 . S
C424 H427 0.929 . S
C425 C424 1.363 . S
C425 C431 1.428 . S
H426 C422 0.930 . S
H427 C424 0.929 . S
S428 N429 1.613 . S
S428 N430 1.610 . S
N429 S428 1.613 . S
N429 C432 1.350 . S
N430 S428 1.610 . S
N430 C431 1.351 . S
C431 C425 1.428 . S
C431 N430 1.351 . S
C431 C432 1.434 . S
C432 C423 1.429 . S
C432 N429 1.350 . S
C432 C431 1.434 . S
C433 C434 1.369 . S
C433 C435 1.419 . S
C433 H437 0.930 . S
C434 C433 1.369 . S
C434 C443 1.429 . S
C435 C433 1.419 . S
C435 C436 1.363 . S
C435 H438 0.929 . S
C436 C435 1.363 . S
C436 C442 1.428 . S
H437 C433 0.930 . S
H438 C435 0.929 . S
S439 N440 1.613 . S
S439 N441 1.610 . S
N440 S439 1.613 . S
N440 C443 1.350 . S
N441 S439 1.610 . S
N441 C442 1.351 . S
C442 C436 1.428 . S
C442 N441 1.351 . S
C442 C443 1.434 . S
C443 C434 1.429 . S
C443 N440 1.350 . S
C443 C442 1.434 . S
C444 C445 1.369 . S
C444 C446 1.419 . S
C444 H448 0.930 . S
C445 C444 1.369 . S
C445 C454 1.429 . S
C446 C444 1.419 . S
C446 C447 1.363 . S
C446 H449 0.929 1_545 S
C447 C446 1.363 . S
C447 C453 1.428 . S
H448 C444 0.930 . S
H449 C446 0.929 1_565 S
S450 N451 1.613 . S
S450 N452 1.610 . S
N451 S450 1.613 . S
N451 C454 1.350 . S
N452 S450 1.610 . S
N452 C453 1.351 . S
C453 C447 1.428 . S
C453 N452 1.351 . S
C453 C454 1.434 . S
C454 C445 1.429 . S
C454 N451 1.350 . S
C454 C453 1.434 . S
C455 C456 1.369 . S
C455 C457 1.419 . S
C455 H459 0.930 . S
C456 C455 1.369 . S
C456 C465 1.429 . S
C457 C455 1.419 . S
C457 C458 1.363 . S
C457 H460 0.929 . S
C458 C457 1.363 . S
C458 C464 1.428 . S
H459 C455 0.930 . S
H460 C457 0.929 . S
S461 N462 1.613 . S
S461 N463 1.610 . S
N462 S461 1.613 . S
N462 C465 1.350 . S
N463 S461 1.610 . S
N463 C464 1.351 . S
C464 C458 1.428 . S
C464 N463 1.351 . S
C464 C465 1.434 . S
C465 C456 1.429 . S
C465 N462 1.350 . S
C465 C464 1.434 . S
C466 C467 1.369 . S
C466 C468 1.419 . S
C466 H470 0.930 . S
C467 C466 1.369 . S
C467 C476 1.429 . S
C468 C466 1.419 . S
C468 C469 1.363 . S
C468 H471 0.929 . S
C469 C468 1.363 . S
C469 C475 1.428 . S
H470 C466 0.930 . S
H471 C468 0.929 . S
S472 N473 1.613 . S
S472 N474 1.610 . S
N473 S472 1.613 . S
N473 C476 1.350 . S
N474 S472 1.610 . S
N474 C475 1.351 . S
C475 C469 1.428 . S
C475 N474 1.351 . S
C475 C476 1.434 . S
C476 C467 1.429 . S
C476 N473 1.350 . S
C476 C475 1.434 . S
C477 C478 1.369 . S
C477 C479 1.419 . S
C477 H481 0.930 . S
C478 C477 1.369 . S
C478 C487 1.429 . S
C479 C477 1.419 . S
C479 C480 1.363 . S
C479 H482 0.929 . S
C480 C479 1.363 . S
C480 C486 1.428 . S
H481 C477 0.930 . S
H482 C479 0.929 . S
S483 N484 1.613 . S
S483 N485 1.610 1_565 S
N484 S483 1.613 . S
N484 C487 1.350 1_565 S
N485 S483 1.610 1_545 S
N485 C486 1.351 . S
C486 C480 1.428 . S
C486 N485 1.351 . S
C486 C487 1.434 . S
C487 C478 1.429 . S
C487 N484 1.350 1_545 S
C487 C486 1.434 . S
C488 C489 1.369 . S
C488 C490 1.419 . S
C488 H492 0.930 . S
C489 C488 1.369 . S
C489 C498 1.429 . S
C490 C488 1.419 . S
C490 C491 1.363 . S
C490 H493 0.929 . S
C491 C490 1.363 . S
C491 C497 1.428 . S
H492 C488 0.930 . S
H493 C490 0.929 . S
S494 N495 1.613 1_545 S
S494 N496 1.610 . S
N495 S494 1.613 1_565 S
N495 C498 1.350 . S
N496 S494 1.610 . S
N496 C497 1.351 1_545 S
C497 C491 1.428 . S
C497 N496 1.351 1_565 S
C497 C498 1.434 . S
C498 C489 1.429 . S
C498 N495 1.350 . S
C498 C497 1.434 . S
C499 C500 1.369 . S
C499 C501 1.419 . S
C499 H503 0.930 . S
C500 C499 1.369 . S
C500 C509 1.429 . S
C501 C499 1.419 . S
C501 C502 1.363 . S
C501 H504 0.929 . S
C502 C501 1.363 . S
C502 C508 1.428 . S
H503 C499 0.930 . S
H504 C501 0.929 . S
S505 N506 1.613 . S
S505 N507 1.610 . S
N506 S505 1.613 . S
N506 C509 1.350 . S
N507 S505 1.610 . S
N507 C508 1.351 . S
C508 C502 1.428 . S
C508 N507 1.351 . S
C508 C509 1.434 . S
C509 C500 1.429 . S
C509 N506 1.350 . S
C509 C508 1.434 . S
C510 C511 1.369 . S
C510 C512 1.419 . S
C510 H514 0.930 . S
C511 C510 1.369 . S
C511 C520 1.429 . S
C512 C510 1.419 . S
C512 C513 1.363 . S
C512 H515 0.929 . S
C513 C512 1.363 . S
C513 C519 1.428 . S
H514 C510 0.930 . S
H515 C512 0.929 . S
S516 N517 1.613 . S
S516 N518 1.610 . S
N517 S516 1.613 . S
N517 C520 1.350 . S
N518 S516 1.610 . S
N518 C519 1.351 . S
C519 C513 1.428 . S
C519 N518 1.351 . S
C519 C520 1.434 . S
C520 C511 1.429 . S
C520 N517 1.350 . S
C520 C519 1.434 . S
C521 C522 1.369 . S
C521 C523 1.419 . S
C521 H525 0.930 . S
C522 C521 1.369 . S
C522 C531 1.429 . S
C523 C521 1.419 . S
C523 C524 1.363 . S
C523 H526 0.929 . S
C524 C523 1.363 . S
C524 C530 1.428 . S
H525 C521 0.930 . S
H526 C523 0.929 . S
S527 N528 1.613 . S
S527 N529 1.610 . S
N528 S527 1.613 . S
N528 C531 1.350 . S
N529 S527 1.610 . S
N529 C530 1.351 . S
C530 C524 1.428 . S
C530 N529 1.351 . S
C530 C531 1.434 . S
C531 C522 1.429 . S
C531 N528 1.350 . S
C531 C530 1.434 . S
C532 C533 1.369 . S
C532 C534 1.419 . S
C532 H536 0.930 . S
C533 C532 1.369 . S
C533 C542 1.429 . S
C534 C532 1.419 . S
C534 C535 1.363 . S
C534 H537 0.929 1_545 S
C535 C534 1.363 . S
C535 C541 1.428 . S
H536 C532 0.930 . S
H537 C534 0.929 1_565 S
S538 N539 1.613 . S
S538 N540 1.610 . S
N539 S538 1.613 . S
N539 C542 1.350 . S
N540 S538 1.610 . S
N540 C541 1.351 . S
C541 C535 1.428 . S
C541 N540 1.351 . S
C541 C542 1.434 . S
C542 C533 1.429 . S
C542 N539 1.350 . S
C542 C541 1.434 . S
C543 C544 1.369 . S
C543 C545 1.419 . S
C543 H547 0.930 . S
C544 C543 1.369 . S
C544 C553 1.429 . S
C545 C543 1.419 . S
C545 C546 1.363 . S
C545 H548 0.929 . S
C546 C545 1.363 . S
C546 C552 1.428 . S
H547 C543 0.930 . S
H548 C545 0.929 . S
S549 N550 1.613 . S
S549 N551 1.610 . S
N550 S549 1.613 . S
N550 C553 1.350 . S
N551 S549 1.610 . S
N551 C552 1.351 . S
C552 C546 1.428 . S
C552 N551 1.351 . S
C552 C553 1.434 . S
C553 C544 1.429 . S
C553 N550 1.350 . S
C553 C552 1.434 . S
C554 C555 1.369 . S
C554 C556 1.419 . S
C554 H558 0.930 . S
C555 C554 1.369 . S
C555 C564 1.429 . S
C556 C554 1.419 . S
C556 C557 1.363 . S
C556 H559 0.929 . S
C557 C556 1.363 . S
C557 C563 1.428 . S
H558 C554 0.930 . S
H559 C556 0.929 . S
S560 N561 1.613 . S
S560 N562 1.610 . S
N561 S560 1.613 . S
N561 C564 1.350 . S
N562 S560 1.610 . S
N562 C563 1.351 . S
C563 C557 1.428 . S
C563 N562 1.351 . S
C563 C564 1.434 . S
C564 C555 1.429 . S
C564 N561 1.350 . S
C564 C563 1.434 . S
C565 C566 1.369 . S
C565 C567 1.419 . S
C565 H569 0.930 . S
C566 C565 1.369 . S
C566 C575 1.429 . S
C567 C565 1.419 . S
C567 C568 1.363 . S
C567 H570 0.929 1_545 S
C568 C567 1.363 . S
C568 C574 1.428 . S
H569 C565 0.930 . S
H570 C567 0.929 1_565 S
S571 N572 1.613 . S
S571 N573 1.610 . S
N572 S571 1.613 . S
N572 C575 1.350 . S
N573 S571 1.610 . S
N573 C574 1.351 . S
C574 C568 1.428 . S
C574 N573 1.351 . S
C574 C575 1.434 . S
C575 C566 1.429 . S
C575 N572 1.350 . S
C575 C574 1.434 . S
C225 C207 1.507 . S
C227 C11 1.512 . S
C236 C33 1.444 . S
C238 C5 1.432 . S
C247 C165 1.507 . S
C249 C25 1.512 . S
C258 C19 1.439 . S
C260 C103 1.435 . S
C269 C39 1.508 . S
C271 C179 1.512 . S
C280 C137 1.509 . S
C282 C53 1.510 . S
C291 C47 1.438 . S
C293 C75 1.436 . S
C302 C151 1.510 . S
C304 C67 1.509 . S
C313 C61 1.441 . S
C315 C89 1.434 . S
C324 C221 1.514 . S
C326 C81 1.507 . S
C335 C123 1.507 . S
C337 C95 1.511 . S
C346 C193 1.508 . S
C348 C109 1.511 . S
C357 C117 1.437 . S
C359 C145 1.438 . S
C368 C215 1.443 . S
C370 C131 1.432 . S
C379 C159 1.444 . S
C381 C187 1.432 . S
C390 C201 1.443 . S
C392 C173 1.432 . S
C401 C74 1.212 . S
C403 C4 1.203 1_565 S
C412 C12 1.277 . S
C414 C82 1.281 . S
C423 C18 1.211 . S
C425 C60 1.202 . S
C434 C68 1.278 . S
C436 C26 1.278 . S
C445 C102 1.201 . S
C447 C32 1.210 1_545 S
C456 C110 1.282 . S
C458 C40 1.278 . S
C467 C88 1.212 . S
C469 C46 1.203 . S
C478 C54 1.277 . S
C480 C96 1.281 . S
C489 C186 1.208 . S
C491 C116 1.202 1_565 S
C500 C124 1.279 . S
C502 C194 1.278 . S
C511 C130 1.202 . S
C513 C172 1.206 . S
C522 C180 1.278 . S
C524 C138 1.278 . S
C533 C214 1.201 . S
C535 C144 1.210 1_545 S
C544 C222 1.282 . S
C546 C152 1.278 . S
C555 C158 1.210 . S
C557 C200 1.207 . S
C566 C208 1.278 . S
C568 C166 1.281 . S
