# Generated by pormake.
# Topology wiv, (6)-cn, num edge types: 1
# Building blocks:
#     Node 0, Type 0, BuildingBlock: BETDEL_clean_sbu_0, # of connection points: 6
#     Node 1, Type 0, BuildingBlock: BETDEL_clean_sbu_0, # of connection points: 6
#     Node 2, Type 0, BuildingBlock: BETDEL_clean_sbu_0, # of connection points: 6
#     Node 3, Type 0, BuildingBlock: BETDEL_clean_sbu_0, # of connection points: 6
#     Node 4, Type 0, BuildingBlock: BETDEL_clean_sbu_0, # of connection points: 6
#     Node 5, Type 0, BuildingBlock: BETDEL_clean_sbu_0, # of connection points: 6
#     Node 6, Type 0, BuildingBlock: BETDEL_clean_sbu_0, # of connection points: 6
#     Node 7, Type 0, BuildingBlock: BETDEL_clean_sbu_0, # of connection points: 6
#     Node 8, Type 0, BuildingBlock: BETDEL_clean_sbu_0, # of connection points: 6
#     Node 9, Type 0, BuildingBlock: BETDEL_clean_sbu_0, # of connection points: 6
#     Node 10, Type 0, BuildingBlock: BETDEL_clean_sbu_0, # of connection points: 6
#     Node 11, Type 0, BuildingBlock: BETDEL_clean_sbu_0, # of connection points: 6
#     Node 12, Type 0, BuildingBlock: BETDEL_clean_sbu_0, # of connection points: 6
#     Node 13, Type 0, BuildingBlock: BETDEL_clean_sbu_0, # of connection points: 6
#     Node 14, Type 0, BuildingBlock: BETDEL_clean_sbu_0, # of connection points: 6
#     Node 15, Type 0, BuildingBlock: BETDEL_clean_sbu_0, # of connection points: 6
#     Edge 16, Type (0, 0), BuildingBlock: OJICUG_clean_linker_0, # of connection points: 2
#     Edge 17, Type (0, 0), BuildingBlock: OJICUG_clean_linker_0, # of connection points: 2
#     Edge 18, Type (0, 0), BuildingBlock: OJICUG_clean_linker_0, # of connection points: 2
#     Edge 19, Type (0, 0), BuildingBlock: OJICUG_clean_linker_0, # of connection points: 2
#     Edge 20, Type (0, 0), BuildingBlock: OJICUG_clean_linker_0, # of connection points: 2
#     Edge 21, Type (0, 0), BuildingBlock: OJICUG_clean_linker_0, # of connection points: 2
#     Edge 22, Type (0, 0), BuildingBlock: OJICUG_clean_linker_0, # of connection points: 2
#     Edge 23, Type (0, 0), BuildingBlock: OJICUG_clean_linker_0, # of connection points: 2
#     Edge 24, Type (0, 0), BuildingBlock: OJICUG_clean_linker_0, # of connection points: 2
#     Edge 25, Type (0, 0), BuildingBlock: OJICUG_clean_linker_0, # of connection points: 2
#     Edge 26, Type (0, 0), BuildingBlock: OJICUG_clean_linker_0, # of connection points: 2
#     Edge 27, Type (0, 0), BuildingBlock: OJICUG_clean_linker_0, # of connection points: 2
#     Edge 28, Type (0, 0), BuildingBlock: OJICUG_clean_linker_0, # of connection points: 2
#     Edge 29, Type (0, 0), BuildingBlock: OJICUG_clean_linker_0, # of connection points: 2
#     Edge 30, Type (0, 0), BuildingBlock: OJICUG_clean_linker_0, # of connection points: 2
#     Edge 31, Type (0, 0), BuildingBlock: OJICUG_clean_linker_0, # of connection points: 2
#     Edge 32, Type (0, 0), BuildingBlock: OJICUG_clean_linker_0, # of connection points: 2
#     Edge 33, Type (0, 0), BuildingBlock: OJICUG_clean_linker_0, # of connection points: 2
#     Edge 34, Type (0, 0), BuildingBlock: OJICUG_clean_linker_0, # of connection points: 2
#     Edge 35, Type (0, 0), BuildingBlock: OJICUG_clean_linker_0, # of connection points: 2
#     Edge 36, Type (0, 0), BuildingBlock: OJICUG_clean_linker_0, # of connection points: 2
#     Edge 37, Type (0, 0), BuildingBlock: OJICUG_clean_linker_0, # of connection points: 2
#     Edge 38, Type (0, 0), BuildingBlock: OJICUG_clean_linker_0, # of connection points: 2
#     Edge 39, Type (0, 0), BuildingBlock: OJICUG_clean_linker_0, # of connection points: 2
#     Edge 40, Type (0, 0), BuildingBlock: OJICUG_clean_linker_0, # of connection points: 2
#     Edge 41, Type (0, 0), BuildingBlock: OJICUG_clean_linker_0, # of connection points: 2
#     Edge 42, Type (0, 0), BuildingBlock: OJICUG_clean_linker_0, # of connection points: 2
#     Edge 43, Type (0, 0), BuildingBlock: OJICUG_clean_linker_0, # of connection points: 2
#     Edge 44, Type (0, 0), BuildingBlock: OJICUG_clean_linker_0, # of connection points: 2
#     Edge 45, Type (0, 0), BuildingBlock: OJICUG_clean_linker_0, # of connection points: 2
#     Edge 46, Type (0, 0), BuildingBlock: OJICUG_clean_linker_0, # of connection points: 2
#     Edge 47, Type (0, 0), BuildingBlock: OJICUG_clean_linker_0, # of connection points: 2
#     Edge 48, Type (0, 0), BuildingBlock: OJICUG_clean_linker_0, # of connection points: 2
#     Edge 49, Type (0, 0), BuildingBlock: OJICUG_clean_linker_0, # of connection points: 2
#     Edge 50, Type (0, 0), BuildingBlock: OJICUG_clean_linker_0, # of connection points: 2
#     Edge 51, Type (0, 0), BuildingBlock: OJICUG_clean_linker_0, # of connection points: 2
#     Edge 52, Type (0, 0), BuildingBlock: OJICUG_clean_linker_0, # of connection points: 2
#     Edge 53, Type (0, 0), BuildingBlock: OJICUG_clean_linker_0, # of connection points: 2
#     Edge 54, Type (0, 0), BuildingBlock: OJICUG_clean_linker_0, # of connection points: 2
#     Edge 55, Type (0, 0), BuildingBlock: OJICUG_clean_linker_0, # of connection points: 2
#     Edge 56, Type (0, 0), BuildingBlock: OJICUG_clean_linker_0, # of connection points: 2
#     Edge 57, Type (0, 0), BuildingBlock: OJICUG_clean_linker_0, # of connection points: 2
#     Edge 58, Type (0, 0), BuildingBlock: OJICUG_clean_linker_0, # of connection points: 2
#     Edge 59, Type (0, 0), BuildingBlock: OJICUG_clean_linker_0, # of connection points: 2
#     Edge 60, Type (0, 0), BuildingBlock: OJICUG_clean_linker_0, # of connection points: 2
#     Edge 61, Type (0, 0), BuildingBlock: OJICUG_clean_linker_0, # of connection points: 2
#     Edge 62, Type (0, 0), BuildingBlock: OJICUG_clean_linker_0, # of connection points: 2
#     Edge 63, Type (0, 0), BuildingBlock: OJICUG_clean_linker_0, # of connection points: 2
# Relax obj value: 0.078
# Max RMSD: 0.137
# Mean RMSD: 0.137
data_MOF--net-wiv--node1-BETDEL_clean_sbu_0--edge1-OJICUG_clean_linker_0
_symmetry_space_group_name_H-M    P1
_symmetry_Int_Tables_number       1
_symmetry_cell_setting            triclinic
loop_
_symmetry_equiv_pos_as_xyz
'x, y, z'
_cell_length_a     39.880558
_cell_length_b     39.946199
_cell_length_c     13.62565
_cell_angle_alpha  89.962785
_cell_angle_beta   90.076483
_cell_angle_gamma 90.012779
loop_
_atom_site_label
_atom_site_type_symbol
_atom_site_fract_x
_atom_site_fract_y
_atom_site_fract_z
_atom_type_partial_charge
Dy0 Dy 0.35801 0.11877 0.22617 0.0
C1 C 0.39961 0.12257 0.82033 0.0
C2 C 0.35328 0.10272 0.42101 0.0
Dy3 Dy 0.39464 0.11857 1.0209 0.0
O4 O 0.33316 0.12312 0.37462 0.0
O5 O 0.37304 0.08851 0.35791 0.0
O6 O 0.35656 0.17342 0.25747 0.0
O7 O 0.37961 0.15637 0.12901 0.0
C8 C 0.37348 0.18207 0.18065 0.0
C9 C 0.38853 0.05948 0.11459 0.0
O10 O 0.43864 0.13448 0.10978 0.0
O11 O 0.41377 0.11286 0.25088 0.0
O12 O 0.4111 0.09824 0.87412 0.0
O13 O 0.38889 0.1463 0.87754 0.0
O14 O 0.41365 0.06699 0.05807 0.0
O15 O 0.36715 0.08265 0.11198 0.0
O16 O 0.3122 0.11172 0.12628 0.0
O17 O 0.34099 0.12135 0.98019 0.0
C18 C 0.4403 0.12435 0.20243 0.0
C19 C 0.31294 0.11583 0.0284 0.0
Dy20 Dy 0.11889 0.61215 0.03035 0.0
C21 C 0.10354 0.65335 0.63035 0.0
C22 C 0.12297 0.60718 0.231 0.0
Dy23 Dy 0.1195 0.64857 0.82538 0.0
O24 O 0.09857 0.59575 0.17731 0.0
O25 O 0.14673 0.61786 0.17367 0.0
O26 O 0.0673 0.59314 0.99338 0.0
O27 O 0.08289 0.63963 0.93872 0.0
C28 C 0.05974 0.61815 0.93653 0.0
C29 C 0.18288 0.63321 0.87172 0.0
O30 O 0.11275 0.6945 0.92464 0.0
O31 O 0.12145 0.66575 0.07131 0.0
O32 O 0.12405 0.67335 0.67674 0.0
O33 O 0.0892 0.63367 0.69349 0.0
O34 O 0.17427 0.64994 0.79444 0.0
O35 O 0.15708 0.62702 0.92309 0.0
O36 O 0.13472 0.56805 0.94185 0.0
O37 O 0.11346 0.59294 0.80028 0.0
C38 C 0.1165 0.69381 1.02268 0.0
C39 C 0.12479 0.5664 0.84896 0.0
Dy40 Dy 0.64926 0.88724 0.21707 0.0
C41 C 0.60729 0.88485 0.81002 0.0
C42 C 0.65445 0.90295 0.41174 0.0
Dy43 Dy 0.61245 0.88842 1.01035 0.0
O44 O 0.67387 0.88189 0.36562 0.0
O45 O 0.63513 0.91784 0.34859 0.0
O46 O 0.65021 0.83212 0.2447 0.0
O47 O 0.62765 0.85072 0.11747 0.0
C48 C 0.6337 0.82443 0.16613 0.0
C49 C 0.61912 0.94694 0.10596 0.0
O50 O 0.56829 0.87295 0.09995 0.0
O51 O 0.5936 0.89335 0.24229 0.0
O52 O 0.59727 0.90978 0.86373 0.0
O53 O 0.61667 0.86046 0.86712 0.0
O54 O 0.59395 0.94 0.04879 0.0
O55 O 0.64025 0.92356 0.10298 0.0
O56 O 0.69505 0.89442 0.11816 0.0
O57 O 0.66637 0.88505 0.97138 0.0
C58 C 0.5669 0.88249 0.19327 0.0
C59 C 0.69444 0.89023 1.02035 0.0
Dy60 Dy 0.88721 0.38722 1.02143 0.0
C61 C 0.90799 0.35307 0.63046 0.0
C62 C 0.89581 0.38231 0.2187 0.0
Dy63 Dy 0.88634 0.35553 0.81891 0.0
O64 O 0.90922 0.36318 0.15338 0.0
O65 O 0.87763 0.40562 0.17666 0.0
O66 O 0.93754 0.4089 0.98197 0.0
O67 O 0.92409 0.36169 0.92898 0.0
C68 C 0.94631 0.38396 0.92697 0.0
C69 C 0.82263 0.36889 0.8581 0.0
O70 O 0.89229 0.31023 0.91969 0.0
O71 O 0.86364 0.33732 0.04184 0.0
O72 O 0.89095 0.32914 0.67298 0.0
O73 O 0.91526 0.37617 0.69355 0.0
O74 O 0.83255 0.353 0.78056 0.0
O75 O 0.84711 0.37506 0.91542 0.0
O76 O 0.87258 0.43435 0.94508 0.0
O77 O 0.89076 0.41155 0.79783 0.0
C78 C 0.87773 0.30988 1.00797 0.0
C79 C 0.88069 0.43745 0.85119 0.0
Dy80 Dy 0.35686 0.38585 0.06947 0.0
C81 C 0.39857 0.38227 0.47613 0.0
C82 C 0.35162 0.40196 0.87473 0.0
Dy83 Dy 0.39356 0.38533 0.27518 0.0
O84 O 0.33186 0.38126 0.92118 0.0
O85 O 0.37123 0.41651 0.93785 0.0
O86 O 0.35578 0.33123 0.03659 0.0
O87 O 0.37877 0.34806 0.16534 0.0
C88 C 0.37286 0.32245 0.11308 0.0
C89 C 0.38672 0.44484 0.18429 0.0
O90 O 0.43764 0.37026 0.18574 0.0
O91 O 0.41256 0.39259 0.04562 0.0
O92 O 0.40878 0.40692 0.42162 0.0
O93 O 0.38911 0.35779 0.41954 0.0
O94 O 0.41197 0.43722 0.24025 0.0
O95 O 0.36556 0.42145 0.18555 0.0
O96 O 0.31129 0.39275 0.16995 0.0
O97 O 0.34 0.37967 0.31388 0.0
C98 C 0.43917 0.38093 0.09356 0.0
C99 C 0.31198 0.38665 0.26694 0.0
Dy100 Dy 0.38745 0.61382 0.78184 0.0
C101 C 0.40333 0.65477 0.18121 0.0
C102 C 0.38335 0.60907 0.58111 0.0
Dy103 Dy 0.38725 0.65047 0.98608 0.0
O104 O 0.40755 0.59718 0.63485 0.0
O105 O 0.35977 0.6201 0.63843 0.0
O106 O 0.43846 0.5936 0.82035 0.0
O107 O 0.42391 0.64054 0.87383 0.0
C108 C 0.4465 0.61849 0.87707 0.0
C109 C 0.32366 0.63602 0.94022 0.0
O110 O 0.39509 0.69617 0.88609 0.0
O111 O 0.38612 0.66733 0.73991 0.0
O112 O 0.38329 0.67526 0.13485 0.0
O113 O 0.41717 0.6348 0.11802 0.0
O114 O 0.33256 0.65302 1.01668 0.0
O115 O 0.34931 0.62941 0.88856 0.0
O116 O 0.37052 0.57003 0.86957 0.0
O117 O 0.39176 0.59461 1.01156 0.0
C118 C 0.39156 0.69538 0.78797 0.0
C119 C 0.38018 0.56821 0.96263 0.0
Dy120 Dy 0.65112 0.62061 0.07527 0.0
C121 C 0.62573 0.61354 0.46663 0.0
C122 C 0.65353 0.60516 0.88046 0.0
Dy123 Dy 0.62197 0.61944 0.26761 0.0
O124 O 0.63121 0.59499 0.94206 0.0
O125 O 0.6765 0.62229 0.92653 0.0
O126 O 0.66837 0.67286 0.07891 0.0
O127 O 0.62377 0.6603 0.15526 0.0
C128 C 0.64443 0.68364 0.13486 0.0
C129 C 0.62581 0.55909 0.17936 0.0
O130 O 0.57227 0.62958 0.1986 0.0
O131 O 0.59528 0.61521 0.04901 0.0
O132 O 0.64534 0.59954 0.40376 0.0
O133 O 0.60248 0.63073 0.4211 0.0
O134 O 0.6007 0.56858 0.23269 0.0
O135 O 0.64825 0.58116 0.18019 0.0
O136 O 0.69609 0.61022 0.1755 0.0
O137 O 0.67143 0.64347 0.28868 0.0
C138 C 0.56892 0.62226 0.10439 0.0
C139 C 0.69807 0.62713 0.25961 0.0
Dy140 Dy 0.61863 0.39229 0.76607 0.0
C141 C 0.6025 0.35075 0.16672 0.0
C142 C 0.62265 0.39714 0.56555 0.0
Dy143 Dy 0.61862 0.35543 0.97204 0.0
O144 O 0.59832 0.40874 0.61908 0.0
O145 O 0.6464 0.38637 0.62297 0.0
O146 O 0.56717 0.41157 0.8031 0.0
O147 O 0.58265 0.36499 0.85731 0.0
C148 C 0.5596 0.38647 0.85961 0.0
C149 C 0.68195 0.37013 0.92488 0.0
O150 O 0.61147 0.30979 0.87245 0.0
O151 O 0.62084 0.33859 0.726 0.0
O152 O 0.62293 0.33064 0.12064 0.0
O153 O 0.58828 0.37048 0.10338 0.0
O154 O 0.67346 0.35344 1.00235 0.0
O155 O 0.65606 0.37656 0.87423 0.0
O156 O 0.63518 0.43592 0.85561 0.0
O157 O 0.61378 0.41118 0.99724 0.0
C158 C 0.61548 0.31056 0.77457 0.0
C159 C 0.62551 0.43758 0.94872 0.0
Dy160 Dy 0.85457 0.62254 0.7309 0.0
C161 C 0.89428 0.6255 0.33505 0.0
C162 C 0.84894 0.61593 0.93135 0.0
Dy163 Dy 0.88814 0.62003 0.53519 0.0
O164 O 0.83912 0.64157 0.88035 0.0
O165 O 0.85875 0.59269 0.87144 0.0
O166 O 0.83578 0.67358 0.7032 0.0
O167 O 0.8831 0.66016 0.64658 0.0
C168 C 0.86159 0.68355 0.65334 0.0
C169 C 0.88285 0.5607 0.62732 0.0
O170 O 0.93508 0.63277 0.61607 0.0
O171 O 0.91011 0.61623 0.76163 0.0
O172 O 0.9031 0.59967 0.38702 0.0
O173 O 0.88537 0.64949 0.39393 0.0
O174 O 0.90786 0.56886 0.57125 0.0
O175 O 0.86072 0.58326 0.6246 0.0
O176 O 0.80783 0.61174 0.63895 0.0
O177 O 0.83457 0.62556 0.49396 0.0
C178 C 0.93712 0.62438 0.71 0.0
C179 C 0.80722 0.61772 0.54237 0.0
Dy180 Dy 0.62119 0.11227 0.52422 0.0
C181 C 0.60451 0.15396 0.12325 0.0
C182 C 0.62494 0.10725 0.7249 0.0
Dy183 Dy 0.62052 0.14896 0.31806 0.0
O184 O 0.60045 0.09623 0.67086 0.0
O185 O 0.64899 0.11755 0.6679 0.0
O186 O 0.56928 0.09366 0.48945 0.0
O187 O 0.58503 0.13996 0.43417 0.0
C188 C 0.56168 0.11877 0.43309 0.0
C189 C 0.68396 0.13327 0.36263 0.0
O190 O 0.61325 0.1945 0.41811 0.0
O191 O 0.62529 0.16596 0.56319 0.0
O192 O 0.62504 0.17389 0.16979 0.0
O193 O 0.59006 0.13429 0.18628 0.0
O194 O 0.67527 0.15025 0.28591 0.0
O195 O 0.65826 0.12729 0.41436 0.0
O196 O 0.63638 0.06832 0.43427 0.0
O197 O 0.61398 0.09333 0.29413 0.0
C198 C 0.61864 0.19388 0.51548 0.0
C199 C 0.62567 0.06677 0.34206 0.0
Dy200 Dy 0.15068 0.38673 0.72558 0.0
C201 C 0.10932 0.38299 0.31933 0.0
C202 C 0.15546 0.40286 0.92028 0.0
Dy203 Dy 0.11422 0.38705 0.51984 0.0
O204 O 0.17559 0.38247 0.87414 0.0
O205 O 0.13562 0.41699 0.85702 0.0
O206 O 0.15217 0.3321 0.757 0.0
O207 O 0.12922 0.34917 0.62803 0.0
C208 C 0.13538 0.32346 0.67983 0.0
C209 C 0.1201 0.44602 0.61405 0.0
O210 O 0.07028 0.37081 0.60792 0.0
O211 O 0.09487 0.39235 0.74965 0.0
O212 O 0.09761 0.40724 0.37285 0.0
O213 O 0.12024 0.35936 0.37674 0.0
O214 O 0.09501 0.4385 0.55721 0.0
O215 O 0.14155 0.42293 0.61147 0.0
O216 O 0.19658 0.39363 0.62642 0.0
O217 O 0.16786 0.38479 0.47954 0.0
C218 C 0.06846 0.3808 0.70059 0.0
C219 C 0.19587 0.38994 0.52842 0.0
Dy220 Dy 0.38919 0.89314 0.52977 0.0
C221 C 0.40467 0.85134 0.13011 0.0
C222 C 0.38594 0.89825 0.73062 0.0
Dy223 Dy 0.38872 0.85605 0.32509 0.0
O224 O 0.41073 0.90839 0.67641 0.0
O225 O 0.36147 0.88883 0.67371 0.0
O226 O 0.44071 0.91205 0.49129 0.0
O227 O 0.42499 0.86537 0.4389 0.0
C228 C 0.44818 0.88674 0.43557 0.0
C229 C 0.32545 0.8717 0.37039 0.0
O230 O 0.39586 0.81055 0.42635 0.0
O231 O 0.38526 0.83966 0.57109 0.0
O232 O 0.38407 0.83141 0.1763 0.0
O233 O 0.41913 0.87087 0.19347 0.0
O234 O 0.33397 0.85451 0.29403 0.0
O235 O 0.35124 0.87792 0.42192 0.0
O236 O 0.37338 0.93707 0.44049 0.0
O237 O 0.39445 0.9118 0.29931 0.0
C238 C 0.39115 0.81149 0.52405 0.0
C239 C 0.3832 0.93848 0.34751 0.0
Dy240 Dy 0.85862 0.88761 0.57156 0.0
C241 C 0.89973 0.88525 0.97803 0.0
C242 C 0.85354 0.90347 0.37693 0.0
Dy243 Dy 0.89473 0.88909 0.77773 0.0
O244 O 0.83389 0.88261 0.42309 0.0
O245 O 0.87313 0.91804 0.43996 0.0
O246 O 0.85723 0.83256 0.54386 0.0
O247 O 0.87969 0.85082 0.67188 0.0
C248 C 0.87342 0.82462 0.62281 0.0
C249 C 0.88899 0.94763 0.68105 0.0
O250 O 0.93902 0.87288 0.69036 0.0
O251 O 0.91439 0.89306 0.54689 0.0
O252 O 0.91048 0.90994 0.92446 0.0
O253 O 0.88964 0.86121 0.92084 0.0
O254 O 0.91393 0.94038 0.73874 0.0
O255 O 0.86748 0.92454 0.6841 0.0
O256 O 0.81248 0.89478 0.66915 0.0
O257 O 0.84087 0.88673 0.81697 0.0
C258 C 0.94085 0.88214 0.59693 0.0
C259 C 0.8129 0.89135 0.7672 0.0
Dy260 Dy 0.88774 0.11641 0.27248 0.0
C261 C 0.90308 0.15752 0.67324 0.0
C262 C 0.88309 0.11153 0.07224 0.0
Dy263 Dy 0.88703 0.15198 0.47866 0.0
O264 O 0.90726 0.09935 0.12547 0.0
O265 O 0.85977 0.12295 0.12985 0.0
O266 O 0.93948 0.09786 0.30726 0.0
O267 O 0.92357 0.14397 0.36432 0.0
C268 C 0.94689 0.12266 0.36498 0.0
C269 C 0.82401 0.13506 0.43363 0.0
O270 O 0.89137 0.19866 0.38134 0.0
O271 O 0.88562 0.1702 0.23273 0.0
O272 O 0.88211 0.17694 0.6266 0.0
O273 O 0.91782 0.13803 0.61045 0.0
O274 O 0.83237 0.15164 0.51136 0.0
O275 O 0.84978 0.12987 0.38142 0.0
O276 O 0.87265 0.07182 0.36056 0.0
O277 O 0.89399 0.09632 0.50256 0.0
C278 C 0.88868 0.19819 0.28311 0.0
C279 C 0.88285 0.06984 0.45319 0.0
Dy280 Dy 0.15138 0.11963 0.56919 0.0
C281 C 0.10985 0.12314 0.97515 0.0
C282 C 0.15624 0.10335 0.3746 0.0
Dy283 Dy 0.11476 0.11993 0.77433 0.0
O284 O 0.17634 0.12377 0.42089 0.0
O285 O 0.1364 0.0892 0.43774 0.0
O286 O 0.15334 0.17421 0.53704 0.0
O287 O 0.13003 0.15749 0.66562 0.0
C288 C 0.13632 0.18307 0.61344 0.0
C289 C 0.12075 0.06067 0.68156 0.0
O290 O 0.07086 0.13629 0.68584 0.0
O291 O 0.09545 0.11443 0.5447 0.0
O292 O 0.09905 0.09869 0.9208 0.0
O293 O 0.11986 0.14737 0.91846 0.0
O294 O 0.09552 0.06843 0.73727 0.0
O295 O 0.14223 0.08375 0.68406 0.0
O296 O 0.19703 0.11229 0.6696 0.0
O297 O 0.16838 0.12406 0.81435 0.0
C298 C 0.06906 0.12629 0.59313 0.0
C299 C 0.19637 0.11752 0.76701 0.0
Dy300 Dy 0.12167 0.8924 0.27434 0.0
C301 C 0.10528 0.85111 0.67442 0.0
C302 C 0.1253 0.89739 0.0736 0.0
Dy303 Dy 0.12142 0.85601 0.47971 0.0
O304 O 0.10084 0.90842 0.12755 0.0
O305 O 0.14935 0.8871 0.13071 0.0
O306 O 0.07006 0.91149 0.3101 0.0
O307 O 0.08541 0.86496 0.36475 0.0
C308 C 0.06229 0.88641 0.36636 0.0
C309 C 0.18492 0.87144 0.43591 0.0
O310 O 0.11419 0.81025 0.37985 0.0
O311 O 0.1253 0.83878 0.23437 0.0
O312 O 0.12572 0.83107 0.62813 0.0
O313 O 0.09103 0.87088 0.61123 0.0
O314 O 0.17607 0.85446 0.51241 0.0
O315 O 0.15932 0.87753 0.38342 0.0
O316 O 0.13736 0.93649 0.36305 0.0
O317 O 0.11546 0.91179 0.50402 0.0
C318 C 0.1191 0.81081 0.28226 0.0
C319 C 0.12706 0.93827 0.45551 0.0
C320 C 0.41135 0.97636 0.22874 0.0
C321 C 0.38483 0.97082 0.29469 0.0
H322 H 0.43338 0.00874 0.12175 0.0
C323 C 0.35949 0.99507 0.30282 0.0
H324 H 0.43129 0.95812 0.22103 0.0
C325 C 0.36026 0.02388 0.24349 0.0
C326 C 0.38689 0.02927 0.17752 0.0
H327 H 0.3386 0.9912 0.35224 0.0
H328 H 0.34001 0.04183 0.24892 0.0
C329 C 0.41252 0.00533 0.17163 0.0
C330 C 0.99465 0.64695 0.74944 0.0
C331 C 0.96983 0.62232 0.76094 0.0
H332 H 0.04222 0.66585 0.79945 0.0
C333 C 0.97515 0.59634 0.82877 0.0
H334 H 0.99093 0.66747 0.69858 0.0
C335 C 0.00455 0.59495 0.88428 0.0
C336 C 0.0291 0.61992 0.87507 0.0
H337 H 0.9564 0.57702 0.83916 0.0
H338 H 0.00781 0.5745 0.93568 0.0
C339 C 0.02386 0.64605 0.80733 0.0
C340 C 0.59493 1.00024 0.16788 0.0
C341 C 0.62093 0.97666 0.17051 0.0
H342 H 0.57614 0.04693 0.22078 0.0
C343 C 0.64817 0.98197 0.23456 0.0
H344 H 0.57359 0.99685 0.11962 0.0
C345 C 0.64926 0.01048 0.29489 0.0
C346 C 0.62357 0.03445 0.28974 0.0
H347 H 0.66869 0.96424 0.23749 0.0
H348 H 0.67069 0.01441 0.34244 0.0
C349 C 0.59636 0.02888 0.22613 0.0
C350 C 1.00082 0.40852 0.87559 0.0
C351 C 0.97687 0.38306 0.86591 0.0
H352 H 0.04842 0.42759 0.83055 0.0
C353 C 0.98247 0.35719 0.79772 0.0
H354 H 0.99716 0.42879 0.92725 0.0
C355 C 0.01163 0.35691 0.74011 0.0
C356 C 0.03594 0.382 0.7521 0.0
H357 H 0.96438 0.33718 0.78909 0.0
H358 H 0.01567 0.33659 0.68887 0.0
C359 C 0.03014 0.40782 0.82005 0.0
C360 C 0.35827 0.48125 0.05743 0.0
C361 C 0.38451 0.4758 0.12484 0.0
H362 H 0.33667 0.5146 0.95017 0.0
C363 C 0.4093 0.50041 0.13567 0.0
H364 H 0.33864 0.46277 0.04829 0.0
C365 C 0.40777 0.53002 0.0817 0.0
C366 C 0.38174 0.5356 1.01399 0.0
H367 H 0.42983 0.49698 0.18688 0.0
H368 H 0.42717 0.54864 0.09292 0.0
C369 C 0.35716 0.51077 1.00119 0.0
C370 C 0.51184 0.64598 0.06539 0.0
C371 C 0.53568 0.6203 0.05648 0.0
H372 H 0.46527 0.66636 1.01228 0.0
C373 C 0.52946 0.59392 0.99076 0.0
H374 H 0.51637 0.66689 0.11422 0.0
C375 C 0.50022 0.59325 0.93433 0.0
C376 C 0.47676 0.61933 0.94045 0.0
H377 H 0.54756 0.57391 0.98202 0.0
H378 H 0.49635 0.57254 0.88426 0.0
C379 C 0.48279 0.64575 1.00666 0.0
C380 C 0.60144 0.50403 0.13267 0.0
C381 C 0.62617 0.52846 0.11844 0.0
H382 H 0.58195 0.45642 0.09004 0.0
C383 C 0.65033 0.52358 0.0445 0.0
H384 H 0.58241 0.50716 0.1886 0.0
C385 C 0.64966 0.49463 0.98593 0.0
C386 C 0.6253 0.46985 1.00219 0.0
H387 H 0.66963 0.54217 0.03176 0.0
H388 H 0.66868 0.49121 0.93014 0.0
C389 C 0.60118 0.47498 0.07595 0.0
C390 C 0.47716 0.40968 0.97666 0.0
C391 C 0.47152 0.38281 0.04123 0.0
H392 H 0.50949 0.43198 0.87 0.0
C393 C 0.49549 0.35718 0.04766 0.0
H394 H 0.45908 0.42983 0.97028 0.0
C395 C 0.52414 0.35801 0.98784 0.0
C396 C 0.5296 0.38496 0.92309 0.0
H397 H 0.49149 0.336 0.09594 0.0
H398 H 0.54188 0.33753 0.99184 0.0
C399 C 0.50598 0.41089 0.91896 0.0
C400 C 0.9076 0.4771 0.7352 0.0
C401 C 0.88169 0.47059 0.80237 0.0
H402 H 0.9283 0.51054 0.62885 0.0
C403 C 0.85601 0.49438 0.81355 0.0
H404 H 0.92773 0.45922 0.72486 0.0
C405 C 0.85588 0.52368 0.75598 0.0
C406 C 0.88188 0.52995 0.68845 0.0
H407 H 0.83549 0.48973 0.86373 0.0
H408 H 0.83538 0.54124 0.7637 0.0
C409 C 0.90786 0.50648 0.67978 0.0
C410 C 0.50742 0.09485 0.37702 0.0
C411 C 0.53139 0.12042 0.37065 0.0
H412 H 0.46007 0.07618 0.32828 0.0
C413 C 0.52599 0.14703 0.30467 0.0
H414 H 0.51089 0.07401 0.42693 0.0
C415 C 0.49705 0.14788 0.24582 0.0
C416 C 0.47276 0.12262 0.25446 0.0
H417 H 0.54402 0.16722 0.29891 0.0
H418 H 0.49312 0.16878 0.19642 0.0
C419 C 0.47835 0.09608 0.32028 0.0
C420 C 0.14891 0.51012 0.80343 0.0
C421 C 0.12319 0.53402 0.79656 0.0
H422 H 0.16884 0.46382 0.7478 0.0
C423 C 0.09646 0.52829 0.73134 0.0
H424 H 0.16998 0.51416 0.85221 0.0
C425 C 0.09547 0.49951 0.67348 0.0
C426 C 0.12149 0.47597 0.67796 0.0
H427 H 0.07624 0.54628 0.72455 0.0
H428 H 0.07446 0.49598 0.62406 0.0
C429 C 0.14829 0.48149 0.74342 0.0
C430 C 0.5288 0.91131 0.30946 0.0
C431 C 0.53463 0.88412 0.2463 0.0
H432 H 0.49692 0.93349 0.4174 0.0
C433 C 0.5113 0.8578 0.24361 0.0
H434 H 0.54642 0.93194 0.31315 0.0
C435 C 0.48319 0.85829 0.30581 0.0
C436 C 0.4776 0.88552 0.3694 0.0
H437 H 0.51551 0.83634 0.19665 0.0
H438 H 0.46599 0.83731 0.30465 0.0
C439 C 0.50053 0.91214 0.36958 0.0
C440 C 0.8606 0.98357 0.55272 0.0
C441 C 0.88721 0.97806 0.61888 0.0
H442 H 0.83872 0.01668 0.44526 0.0
C443 C 0.91265 1.00219 0.62612 0.0
H444 H 0.84048 0.96549 0.54624 0.0
C445 C 0.91127 0.03146 0.57034 0.0
C446 C 0.88475 0.03717 0.50435 0.0
H447 H 0.9335 0.99871 0.67615 0.0
H448 H 0.93106 0.04982 0.57922 0.0
C449 C 0.85963 0.01272 0.49474 0.0
C450 C 0.03076 0.09937 0.47323 0.0
C451 C 0.03655 0.12523 0.54101 0.0
H452 H 0.9979 0.07824 0.36601 0.0
C453 C 0.01225 0.1504 0.5522 0.0
H454 H 0.049 0.07955 0.46318 0.0
C455 C 0.98308 0.15006 0.49418 0.0
C456 C 0.97746 0.12405 0.42645 0.0
H457 H 0.01631 0.1708 0.60319 0.0
H458 H 0.96504 0.17014 0.50203 0.0
C459 C 1.00149 0.09863 0.41735 0.0
C460 C 0.09877 0.97651 0.57295 0.0
C461 C 0.12527 0.97083 0.50705 0.0
H462 H 0.07649 0.00936 0.67809 0.0
C463 C 0.15033 0.99531 0.4972 0.0
H464 H 0.07902 0.95812 0.58196 0.0
C465 C 0.14929 0.02452 0.55469 0.0
C466 C 0.12266 0.03005 0.62052 0.0
H467 H 0.1712 0.99138 0.44774 0.0
H468 H 0.16933 0.04267 0.54791 0.0
C469 C 0.09733 0.00585 0.62822 0.0
C470 C 0.00836 0.91093 0.42289 0.0
C471 C 0.03203 0.88508 0.42906 0.0
H472 H 0.96125 0.93014 0.47164 0.0
C473 C 0.02634 0.85853 0.49508 0.0
H474 H 0.01202 0.93174 0.37301 0.0
C475 C 0.99743 0.85802 0.55401 0.0
C476 C 0.97343 0.88358 0.54545 0.0
H477 H 0.04412 0.83812 0.50077 0.0
H478 H 0.99326 0.83715 0.6033 0.0
C479 C 0.97932 0.91004 0.47966 0.0
C480 C 0.38359 0.2397 0.24163 0.0
C481 C 0.38198 0.21738 0.16144 0.0
H482 H 0.38276 0.29098 0.28974 0.0
C483 C 0.38317 0.23016 0.06609 0.0
H484 H 0.38292 0.23032 0.31624 0.0
C485 C 0.38269 0.26484 0.05141 0.0
C486 C 0.38156 0.28715 0.13171 0.0
H487 H 0.38186 0.21356 1.00337 0.0
H488 H 0.38134 0.27422 0.97686 0.0
C489 C 0.38366 0.27438 0.22694 0.0
C490 C 0.2658 0.62723 1.00243 0.0
C491 C 0.28822 0.62729 0.92223 0.0
H492 H 0.2144 0.62815 0.05 0.0
C493 C 0.2755 0.62344 0.82735 0.0
H494 H 0.27509 0.6299 0.07678 0.0
C495 C 0.24075 0.62275 0.81246 0.0
C496 C 0.21831 0.62529 0.89219 0.0
H497 H 0.29216 0.62341 0.76461 0.0
H498 H 0.23137 0.62205 0.73781 0.0
C499 C 0.23108 0.62597 0.98764 0.0
C500 C 0.64269 0.77492 0.06011 0.0
C501 C 0.6267 0.78944 0.14078 0.0
H502 H 0.66132 0.72975 0.99609 0.0
C503 C 0.6128 0.76862 0.21356 0.0
H504 H 0.65432 0.7905 1.00463 0.0
C505 C 0.61664 0.73382 0.20899 0.0
C506 C 0.63532 0.71949 0.13297 0.0
H507 H 0.60096 0.77948 0.27761 0.0
H508 H 0.60707 0.71842 0.26817 0.0
C509 C 0.64721 0.74021 0.05664 0.0
C510 C 0.77422 0.38065 0.96922 0.0
C511 C 0.78695 0.37649 0.87456 0.0
H512 H 0.73017 0.38216 0.05843 0.0
C513 C 0.76462 0.37597 0.7941 0.0
H514 H 0.79086 0.38123 0.03211 0.0
C515 C 0.72991 0.37705 0.80867 0.0
C516 C 0.7172 0.37813 0.90409 0.0
H517 H 0.77396 0.37313 0.71994 0.0
H518 H 0.7132 0.3745 0.74636 0.0
C519 C 0.73955 0.38117 0.98387 0.0
C520 C 0.89016 0.73373 0.58065 0.0
C521 C 0.87075 0.71945 0.65525 0.0
H522 H 0.90669 0.77939 0.51328 0.0
C523 C 0.85826 0.74023 0.73053 0.0
H524 H 0.9002 0.7183 0.52233 0.0
C525 C 0.86301 0.77494 0.72745 0.0
C526 C 0.87985 0.78945 0.6482 0.0
H527 H 0.84359 0.72981 0.79003 0.0
H528 H 0.85097 0.79053 0.78209 0.0
C529 C 0.89421 0.76856 0.57637 0.0
C530 C 0.77647 0.12408 0.31825 0.0
C531 C 0.78892 0.12586 0.41392 0.0
H532 H 0.73261 0.12485 0.22779 0.0
C533 C 0.7664 0.124 0.4936 0.0
H534 H 0.79327 0.1255 0.25596 0.0
C535 C 0.73175 0.12327 0.47796 0.0
C536 C 0.71926 0.12492 0.38231 0.0
H537 H 0.77557 0.12505 0.56844 0.0
H538 H 0.71492 0.1241 0.54026 0.0
C539 C 0.74181 0.12387 0.30261 0.0
C540 C 0.125 0.26588 0.74089 0.0
C541 C 0.12693 0.28816 0.66058 0.0
H542 H 0.12569 0.21464 0.78946 0.0
C543 C 0.12621 0.27534 0.5653 0.0
H544 H 0.12531 0.27531 0.81544 0.0
C545 C 0.12683 0.24066 0.55094 0.0
C546 C 0.12765 0.2184 0.63147 0.0
H547 H 0.12779 0.29191 0.50251 0.0
H548 H 0.12852 0.23126 0.47653 0.0
C549 C 0.12508 0.2312 0.72649 0.0
C550 C 0.27729 0.88159 0.48434 0.0
C551 C 0.29016 0.88044 0.38916 0.0
H552 H 0.23308 0.87976 0.57292 0.0
C553 C 0.2679 0.88221 0.30865 0.0
H554 H 0.29386 0.88016 0.54727 0.0
C555 C 0.23316 0.88232 0.32284 0.0
C556 C 0.22029 0.88012 0.41787 0.0
H557 H 0.27738 0.88158 0.23417 0.0
H558 H 0.21659 0.88151 0.25979 0.0
C559 C 0.24254 0.88117 0.49851 0.0
C560 C 0.25917 0.11198 0.79569 0.0
C561 C 0.22663 0.11526 0.83235 0.0
H562 H 0.31138 0.10908 0.82814 0.0
C563 C 0.22251 0.11678 0.93599 0.0
H564 H 0.26349 0.11045 0.71736 0.0
C565 C 0.24998 0.11605 1.00052 0.0
C566 C 0.28256 0.11383 0.9637 0.0
H567 H 0.19783 0.11888 0.96838 0.0
H568 H 0.24569 0.11798 0.07879 0.0
C569 C 0.28666 0.11129 0.86026 0.0
C570 C 0.11238 0.72044 0.19052 0.0
C571 C 0.11488 0.72431 0.08696 0.0
H572 H 0.11173 0.74382 0.33299 0.0
C573 C 0.11742 0.75679 0.04963 0.0
H574 H 0.10999 0.69583 0.22313 0.0
C575 C 0.1184 0.78435 0.11366 0.0
C576 C 0.1168 0.78045 0.2174 0.0
H577 H 0.11937 0.76095 0.97128 0.0
H578 H 0.12072 0.80891 0.08079 0.0
C579 C 0.11331 0.74801 0.25459 0.0
C580 C 0.75744 0.89442 0.99612 0.0
C581 C 0.72512 0.89205 0.95696 0.0
H582 H 0.80993 0.89644 0.96781 0.0
C583 C 0.72173 0.89099 0.85309 0.0
H584 H 0.7612 0.89548 0.07479 0.0
C585 C 0.74973 0.89152 0.79068 0.0
C586 C 0.78208 0.89304 0.82996 0.0
H587 H 0.69725 0.88947 0.81893 0.0
H588 H 0.746 0.89011 0.71203 0.0
C589 C 0.78544 0.89489 0.93372 0.0
C590 C 0.89882 0.25214 0.05473 0.0
C591 C 0.88067 0.28105 0.07829 0.0
H592 H 0.91635 0.20414 0.10197 0.0
C593 C 0.8674 0.28367 0.17459 0.0
H594 H 0.90981 0.24925 0.98259 0.0
C595 C 0.8718 0.25804 0.24457 0.0
C596 C 0.88926 0.22884 0.21991 0.0
H597 H 0.85351 0.3057 0.19656 0.0
H598 H 0.86041 0.26054 0.31631 0.0
C599 C 0.9029 0.22645 0.12418 0.0
C600 C 0.28587 0.38474 0.43563 0.0
C601 C 0.28185 0.38882 0.3325 0.0
H602 H 0.26272 0.38225 0.57812 0.0
C603 C 0.24963 0.3953 0.29677 0.0
H604 H 0.3103 0.38002 0.46741 0.0
C605 C 0.22231 0.39675 0.36161 0.0
C606 C 0.22628 0.3918 0.46433 0.0
H607 H 0.24542 0.39894 0.21894 0.0
H608 H 0.19777 0.40145 0.33033 0.0
C609 C 0.25859 0.38629 0.50042 0.0
C610 C 0.39637 0.72137 0.61927 0.0
C611 C 0.39393 0.72566 0.72272 0.0
H612 H 0.3974 0.74417 0.47589 0.0
C613 C 0.39212 0.75833 0.75884 0.0
H614 H 0.39826 0.6966 0.58751 0.0
C615 C 0.39171 0.78566 0.69373 0.0
C616 C 0.39313 0.78134 0.59008 0.0
H617 H 0.39027 0.76283 0.83703 0.0
H618 H 0.38992 0.81039 0.72569 0.0
C619 C 0.39598 0.7487 0.55414 0.0
C620 C 0.75394 0.60294 0.31549 0.0
C621 C 0.72615 0.62362 0.33249 0.0
H622 H 0.80083 0.58427 0.3704 0.0
C623 C 0.72379 0.63964 0.42512 0.0
H624 H 0.75661 0.58997 0.24618 0.0
C625 C 0.74852 0.63544 0.49785 0.0
C626 C 0.77664 0.61546 0.47971 0.0
H627 H 0.70269 0.65568 0.44201 0.0
H628 H 0.74644 0.64915 0.56614 0.0
C629 C 0.77894 0.59922 0.38769 0.0
C630 C 0.61815 0.22022 0.68394 0.0
C631 C 0.61617 0.22414 0.5803 0.0
H632 H 0.61924 0.24363 0.82621 0.0
C633 C 0.612 0.25648 0.54306 0.0
H634 H 0.62097 0.1957 0.71676 0.0
C635 C 0.61083 0.28401 0.60707 0.0
C636 C 0.61377 0.28014 0.71048 0.0
H637 H 0.61009 0.26063 0.46469 0.0
H638 H 0.60795 0.3086 0.57459 0.0
C639 C 0.61692 0.24773 0.7479 0.0
C640 C 0.38709 0.08474 0.56705 0.0
C641 C 0.3623 0.1057 0.52653 0.0
H642 H 0.41872 0.07394 0.6908 0.0
C643 C 0.35066 0.13283 0.58266 0.0
H644 H 0.39698 0.06394 0.52512 0.0
C645 C 0.3639 0.13915 0.67636 0.0
C646 C 0.38885 0.11831 0.71657 0.0
H647 H 0.33203 0.1498 0.55306 0.0
H648 H 0.35418 0.1601 0.71796 0.0
C649 C 0.4 0.09081 0.66123 0.0
C650 C 0.08525 0.61981 0.48433 0.0
C651 C 0.10645 0.64438 0.52484 0.0
H652 H 0.07415 0.58838 0.36059 0.0
C653 C 0.13368 0.65584 0.46868 0.0
H654 H 0.06435 0.61006 0.52627 0.0
C655 C 0.13988 0.64265 0.37496 0.0
C656 C 0.11881 0.61791 0.33476 0.0
H657 H 0.15083 0.6743 0.49828 0.0
H658 H 0.16093 0.65222 0.33335 0.0
C659 C 0.0912 0.60693 0.39014 0.0
C660 C 0.65556 0.87244 0.57277 0.0
C661 C 0.64536 0.90027 0.51705 0.0
H662 H 0.65058 0.84507 0.70757 0.0
C663 C 0.62171 0.92241 0.5576 0.0
H664 H 0.67326 0.85458 0.54302 0.0
C665 C 0.60849 0.91682 0.65151 0.0
C666 C 0.61819 0.88865 0.70645 0.0
H667 H 0.61294 0.9438 0.51589 0.0
H668 H 0.59069 0.9346 0.6812 0.0
C669 C 0.64199 0.8666 0.6662 0.0
C670 C 0.89601 0.40078 0.39417 0.0
C671 C 0.89916 0.37539 0.3243 0.0
H672 H 0.89777 0.41347 0.54657 0.0
C673 C 0.90656 0.34253 0.35536 0.0
H674 H 0.89058 0.42625 0.37193 0.0
C675 C 0.90968 0.3349 0.45504 0.0
C676 C 0.90696 0.36035 0.52478 0.0
H677 H 0.90945 0.32253 0.30251 0.0
H678 H 0.9144 0.3093 0.47745 0.0
C679 C 0.90046 0.39341 0.49364 0.0
C680 C 0.36388 0.36464 0.62111 0.0
C681 C 0.38771 0.38647 0.5798 0.0
H682 H 0.33264 0.35318 0.74491 0.0
C683 C 0.39755 0.41479 0.63387 0.0
H684 H 0.3552 0.34298 0.58058 0.0
C685 C 0.38446 0.42075 0.72782 0.0
C686 C 0.36073 0.39886 0.76932 0.0
H687 H 0.41539 0.43241 0.60347 0.0
H688 H 0.39336 0.44223 0.76876 0.0
C689 C 0.35039 0.37087 0.71448 0.0
C690 C 0.42099 0.62078 0.32717 0.0
C691 C 0.40038 0.64589 0.28685 0.0
H692 H 0.43148 0.58907 0.45088 0.0
C693 C 0.37358 0.65809 0.34345 0.0
H694 H 0.44153 0.61048 0.28493 0.0
C695 C 0.36721 0.64505 0.43733 0.0
C696 C 0.38768 0.61976 0.47731 0.0
H697 H 0.35689 0.677 0.31407 0.0
H698 H 0.34651 0.65519 0.47926 0.0
C699 C 0.41488 0.60808 0.42154 0.0
C700 C 0.67237 0.60278 0.70592 0.0
C701 C 0.64675 0.60687 0.7746 0.0
H702 H 0.68506 0.6002 0.55396 0.0
C703 C 0.61389 0.61366 0.742 0.0
H704 H 0.6978 0.59758 0.7295 0.0
C705 C 0.60681 0.6168 0.6418 0.0
C706 C 0.6323 0.61195 0.57292 0.0
H707 H 0.59373 0.6172 0.79427 0.0
H708 H 0.58145 0.62231 0.61829 0.0
C709 C 0.66501 0.60452 0.6058 0.0
C710 C 0.63903 0.36127 0.42215 0.0
C711 C 0.61832 0.38635 0.46192 0.0
H712 H 0.64949 0.3293 0.29931 0.0
C713 C 0.59084 0.39761 0.4063 0.0
H714 H 0.65995 0.35146 0.464 0.0
C715 C 0.58468 0.38469 0.31225 0.0
C716 C 0.60552 0.35979 0.27215 0.0
H717 H 0.57406 0.41644 0.43554 0.0
H718 H 0.56391 0.39467 0.27007 0.0
C719 C 0.63261 0.34803 0.32858 0.0
C720 C 0.85416 0.64726 0.09024 0.0
C721 C 0.85848 0.61749 0.03669 0.0
H722 H 0.86285 0.67346 0.22538 0.0
C723 C 0.87599 0.59087 0.08084 0.0
H724 H 0.84124 0.66841 0.05783 0.0
C725 C 0.88883 0.59395 0.17637 0.0
C726 C 0.88459 0.62377 0.2298 0.0
H727 H 0.88019 0.56779 0.04103 0.0
H728 H 0.90173 0.5728 0.20884 0.0
C729 C 0.86705 0.65036 0.18565 0.0
C730 C 0.59264 0.10747 0.883 0.0
C731 C 0.62063 0.11804 0.82855 0.0
H732 H 0.56522 0.11106 1.01807 0.0
C733 C 0.64187 0.14249 0.8694 0.0
H734 H 0.57546 0.08912 0.85294 0.0
C735 C 0.6354 0.15587 0.96274 0.0
C736 C 0.60774 0.14484 1.01793 0.0
H737 H 0.66323 0.15174 0.82852 0.0
H738 H 0.65267 0.17412 0.99285 0.0
C739 C 0.58643 0.1205 0.97685 0.0
C740 C 0.10877 0.4147 0.16008 0.0
C741 C 0.12008 0.38729 0.21569 0.0
H742 H 0.11163 0.44152 1.02377 0.0
C743 C 0.14515 0.36657 0.17586 0.0
H744 H 0.08995 0.43149 0.18937 0.0
C745 C 0.15833 0.37291 0.0822 0.0
C746 C 0.14652 0.39993 0.02576 0.0
H747 H 0.15499 0.3457 0.2177 0.0
H748 H 0.17704 0.35602 0.05285 0.0
C749 C 0.12164 0.42079 0.06595 0.0
C750 C 0.37398 0.85009 0.96891 0.0
C751 C 0.4018 0.86048 0.0246 0.0
H752 H 0.34646 0.8548 0.83405 0.0
C753 C 0.42378 0.88425 0.98365 0.0
H754 H 0.35621 0.8323 0.99887 0.0
C755 C 0.41808 0.89732 0.88943 0.0
C756 C 0.38991 0.88741 0.83449 0.0
H757 H 0.44515 0.8932 0.02524 0.0
H758 H 0.43576 0.91519 0.85951 0.0
C759 C 0.368 0.86354 0.87525 0.0
C760 C 0.85139 0.87348 0.21536 0.0
C761 C 0.86239 0.90088 0.27149 0.0
H762 H 0.85549 0.84638 0.08 0.0
C763 C 0.88651 0.92257 0.23109 0.0
H764 H 0.83329 0.85598 0.24497 0.0
C765 C 0.89947 0.91691 0.13694 0.0
C766 C 0.889 0.88913 0.08163 0.0
H767 H 0.89587 0.94362 0.27311 0.0
H768 H 0.91769 0.93431 0.10739 0.0
C769 C 0.86468 0.86758 0.12168 0.0
C770 C 0.91489 0.11093 0.91333 0.0
C771 C 0.8874 0.12222 0.96858 0.0
H772 H 0.94185 0.11382 0.77736 0.0
C773 C 0.86667 0.14725 0.92845 0.0
H774 H 0.9317 0.09215 0.94291 0.0
C775 C 0.87304 0.16038 0.83478 0.0
C776 C 0.90015 0.14861 0.77872 0.0
H777 H 0.84573 0.15706 0.97001 0.0
H778 H 0.85612 0.17905 0.80515 0.0
C779 C 0.92105 0.1238 0.81925 0.0
C780 C 0.14493 0.14025 0.11995 0.0
C781 C 0.12062 0.11886 0.07894 0.0
H782 H 0.17637 0.15134 0.2438 0.0
C783 C 0.11014 0.09088 0.13355 0.0
H784 H 0.15411 0.1616 0.07897 0.0
C785 C 0.12308 0.08488 0.22779 0.0
C786 C 0.14725 0.10636 0.26903 0.0
H787 H 0.09193 0.07359 0.10337 0.0
H788 H 0.11369 0.06369 0.26917 0.0
C789 C 0.15824 0.13396 0.21361 0.0
C790 C 0.08703 0.88442 0.82082 0.0
C791 C 0.10836 0.8601 0.77992 0.0
H792 H 0.07593 0.91567 0.94484 0.0
C793 C 0.1359 0.84895 0.83558 0.0
H794 H 0.0659 0.89393 0.77925 0.0
C795 C 0.14226 0.86221 0.92918 0.0
C796 C 0.12101 0.88666 0.96984 0.0
H797 H 0.15317 0.8307 0.80565 0.0
H798 H 0.16354 0.85289 0.97039 0.0
C799 C 0.09312 0.89733 0.91495 0.0
loop_
_geom_bond_atom_site_label_1
_geom_bond_atom_site_label_2
_geom_bond_distance
_geom_bond_site_symmetry_2
_ccdc_geom_bond_type
Dy0 O4 2.398 . S
Dy0 O5 2.491 . S
Dy0 O6 2.403 . S
Dy0 O7 2.664 . S
Dy0 O11 2.326 . S
Dy0 O15 2.310 . S
Dy0 O16 2.351 . S
C1 O12 1.185 . S
C1 O13 1.355 . S
C2 O4 1.185 . S
C2 O5 1.355 . S
Dy3 O7 2.310 . S
Dy3 O10 2.351 . S
Dy3 O12 2.398 1_554 S
Dy3 O13 2.491 1_554 S
Dy3 O14 2.403 . S
Dy3 O15 2.664 . S
Dy3 O17 2.326 1_554 S
O4 Dy0 2.398 . S
O4 C2 1.185 . S
O5 Dy0 2.491 . S
O5 C2 1.355 . S
O6 Dy0 2.403 . S
O6 C8 1.254 . S
O7 Dy0 2.664 . S
O7 Dy3 2.310 . S
O7 C8 1.268 . S
C8 O6 1.254 . S
C8 O7 1.268 . S
C9 O14 1.254 . S
C9 O15 1.268 . S
O10 Dy3 2.351 . S
O10 C18 1.249 . S
O11 Dy0 2.326 . S
O11 C18 1.267 . S
O12 C1 1.185 . S
O12 Dy3 2.398 1_556 S
O13 C1 1.355 . S
O13 Dy3 2.491 1_556 S
O14 Dy3 2.403 . S
O14 C9 1.254 . S
O15 Dy0 2.310 . S
O15 Dy3 2.664 . S
O15 C9 1.268 . S
O16 Dy0 2.351 . S
O16 C19 1.249 . S
O17 Dy3 2.326 1_556 S
O17 C19 1.264 1_556 S
C18 O10 1.249 . S
C18 O11 1.267 . S
C19 O16 1.249 . S
C19 O17 1.264 1_554 S
Dy20 O24 2.398 1_556 S
Dy20 O25 2.491 1_556 S
Dy20 O26 2.403 . S
Dy20 O27 2.664 . S
Dy20 O31 2.326 1_556 S
Dy20 O35 2.310 . S
Dy20 O36 2.351 . S
C21 O32 1.185 . S
C21 O33 1.355 . S
C22 O24 1.185 . S
C22 O25 1.355 . S
Dy23 O27 2.310 . S
Dy23 O30 2.351 . S
Dy23 O32 2.398 . S
Dy23 O33 2.491 . S
Dy23 O34 2.403 . S
Dy23 O35 2.664 . S
Dy23 O37 2.326 . S
O24 Dy20 2.398 1_554 S
O24 C22 1.185 . S
O25 Dy20 2.491 1_554 S
O25 C22 1.355 . S
O26 Dy20 2.403 . S
O26 C28 1.254 . S
O27 Dy20 2.664 . S
O27 Dy23 2.310 . S
O27 C28 1.268 . S
C28 O26 1.254 . S
C28 O27 1.268 . S
C29 O34 1.254 . S
C29 O35 1.268 . S
O30 Dy23 2.351 . S
O30 C38 1.249 . S
O31 Dy20 2.326 1_554 S
O31 C38 1.264 1_554 S
O32 C21 1.185 . S
O32 Dy23 2.398 . S
O33 C21 1.355 . S
O33 Dy23 2.491 . S
O34 Dy23 2.403 . S
O34 C29 1.254 . S
O35 Dy20 2.310 . S
O35 Dy23 2.664 . S
O35 C29 1.268 . S
O36 Dy20 2.351 . S
O36 C39 1.249 . S
O37 Dy23 2.326 . S
O37 C39 1.267 . S
C38 O30 1.249 . S
C38 O31 1.264 1_556 S
C39 O36 1.249 . S
C39 O37 1.267 . S
Dy40 O44 2.398 . S
Dy40 O45 2.491 . S
Dy40 O46 2.403 . S
Dy40 O47 2.664 . S
Dy40 O51 2.326 . S
Dy40 O55 2.310 . S
Dy40 O56 2.351 . S
C41 O52 1.185 . S
C41 O53 1.355 . S
C42 O44 1.185 . S
C42 O45 1.355 . S
Dy43 O47 2.310 . S
Dy43 O50 2.351 . S
Dy43 O52 2.398 1_554 S
Dy43 O53 2.491 1_554 S
Dy43 O54 2.403 . S
Dy43 O55 2.664 . S
Dy43 O57 2.326 1_554 S
O44 Dy40 2.398 . S
O44 C42 1.185 . S
O45 Dy40 2.491 . S
O45 C42 1.355 . S
O46 Dy40 2.403 . S
O46 C48 1.254 . S
O47 Dy40 2.664 . S
O47 Dy43 2.310 . S
O47 C48 1.268 . S
C48 O46 1.254 . S
C48 O47 1.268 . S
C49 O54 1.254 . S
C49 O55 1.268 . S
O50 Dy43 2.351 . S
O50 C58 1.249 . S
O51 Dy40 2.326 . S
O51 C58 1.267 . S
O52 C41 1.185 . S
O52 Dy43 2.398 1_556 S
O53 C41 1.355 . S
O53 Dy43 2.491 1_556 S
O54 Dy43 2.403 . S
O54 C49 1.254 . S
O55 Dy40 2.310 . S
O55 Dy43 2.664 . S
O55 C49 1.268 . S
O56 Dy40 2.351 . S
O56 C59 1.249 . S
O57 Dy43 2.326 1_556 S
O57 C59 1.264 1_556 S
C58 O50 1.249 . S
C58 O51 1.267 . S
C59 O56 1.249 . S
C59 O57 1.264 1_554 S
Dy60 O64 2.398 1_556 S
Dy60 O65 2.491 1_556 S
Dy60 O66 2.403 . S
Dy60 O67 2.664 . S
Dy60 O71 2.326 1_556 S
Dy60 O75 2.310 . S
Dy60 O76 2.351 . S
C61 O72 1.185 . S
C61 O73 1.355 . S
C62 O64 1.185 . S
C62 O65 1.355 . S
Dy63 O67 2.310 . S
Dy63 O70 2.351 . S
Dy63 O72 2.398 . S
Dy63 O73 2.491 . S
Dy63 O74 2.403 . S
Dy63 O75 2.664 . S
Dy63 O77 2.326 . S
O64 Dy60 2.398 1_554 S
O64 C62 1.185 . S
O65 Dy60 2.491 1_554 S
O65 C62 1.355 . S
O66 Dy60 2.403 . S
O66 C68 1.254 . S
O67 Dy60 2.664 . S
O67 Dy63 2.310 . S
O67 C68 1.268 . S
C68 O66 1.254 . S
C68 O67 1.268 . S
C69 O74 1.254 . S
C69 O75 1.268 . S
O70 Dy63 2.351 . S
O70 C78 1.249 . S
O71 Dy60 2.326 1_554 S
O71 C78 1.264 1_554 S
O72 C61 1.185 . S
O72 Dy63 2.398 . S
O73 C61 1.355 . S
O73 Dy63 2.491 . S
O74 Dy63 2.403 . S
O74 C69 1.254 . S
O75 Dy60 2.310 . S
O75 Dy63 2.664 . S
O75 C69 1.268 . S
O76 Dy60 2.351 . S
O76 C79 1.249 . S
O77 Dy63 2.326 . S
O77 C79 1.267 . S
C78 O70 1.249 . S
C78 O71 1.264 1_556 S
C79 O76 1.249 . S
C79 O77 1.267 . S
Dy80 O84 2.398 1_554 S
Dy80 O85 2.491 1_554 S
Dy80 O86 2.403 . S
Dy80 O87 2.664 . S
Dy80 O91 2.326 1_554 S
Dy80 O95 2.310 . S
Dy80 O96 2.351 . S
C81 O92 1.185 . S
C81 O93 1.355 . S
C82 O84 1.185 . S
C82 O85 1.355 . S
Dy83 O87 2.310 . S
Dy83 O90 2.351 . S
Dy83 O92 2.398 . S
Dy83 O93 2.491 . S
Dy83 O94 2.403 . S
Dy83 O95 2.664 . S
Dy83 O97 2.326 . S
O84 Dy80 2.398 1_556 S
O84 C82 1.185 . S
O85 Dy80 2.491 1_556 S
O85 C82 1.355 . S
O86 Dy80 2.403 . S
O86 C88 1.254 . S
O87 Dy80 2.664 . S
O87 Dy83 2.310 . S
O87 C88 1.268 . S
C88 O86 1.254 . S
C88 O87 1.268 . S
C89 O94 1.254 . S
C89 O95 1.268 . S
O90 Dy83 2.351 . S
O90 C98 1.249 . S
O91 Dy80 2.326 1_556 S
O91 C98 1.267 1_556 S
O92 C81 1.185 . S
O92 Dy83 2.398 . S
O93 C81 1.355 . S
O93 Dy83 2.491 . S
O94 Dy83 2.403 . S
O94 C89 1.254 . S
O95 Dy80 2.310 . S
O95 Dy83 2.664 . S
O95 C89 1.268 . S
O96 Dy80 2.351 . S
O96 C99 1.249 . S
O97 Dy83 2.326 . S
O97 C99 1.267 . S
C98 O90 1.249 . S
C98 O91 1.267 1_554 S
C99 O96 1.249 . S
C99 O97 1.267 . S
Dy100 O104 2.398 . S
Dy100 O105 2.491 . S
Dy100 O106 2.403 . S
Dy100 O107 2.664 . S
Dy100 O111 2.326 . S
Dy100 O115 2.310 . S
Dy100 O116 2.351 . S
C101 O112 1.185 . S
C101 O113 1.355 . S
C102 O104 1.185 . S
C102 O105 1.355 . S
Dy103 O107 2.310 . S
Dy103 O110 2.351 . S
Dy103 O112 2.398 1_556 S
Dy103 O113 2.491 1_556 S
Dy103 O114 2.403 . S
Dy103 O115 2.664 . S
Dy103 O117 2.326 1_556 S
O104 Dy100 2.398 . S
O104 C102 1.185 . S
O105 Dy100 2.491 . S
O105 C102 1.355 . S
O106 Dy100 2.403 . S
O106 C108 1.254 . S
O107 Dy100 2.664 . S
O107 Dy103 2.310 . S
O107 C108 1.268 . S
C108 O106 1.254 . S
C108 O107 1.268 . S
C109 O114 1.254 . S
C109 O115 1.268 . S
O110 Dy103 2.351 . S
O110 C118 1.249 . S
O111 Dy100 2.326 . S
O111 C118 1.267 . S
O112 C101 1.185 . S
O112 Dy103 2.398 1_554 S
O113 C101 1.355 . S
O113 Dy103 2.491 1_554 S
O114 Dy103 2.403 . S
O114 C109 1.254 . S
O115 Dy100 2.310 . S
O115 Dy103 2.664 . S
O115 C109 1.268 . S
O116 Dy100 2.351 . S
O116 C119 1.249 . S
O117 Dy103 2.326 1_554 S
O117 C119 1.267 1_554 S
C118 O110 1.249 . S
C118 O111 1.267 . S
C119 O116 1.249 . S
C119 O117 1.267 1_556 S
Dy120 O124 2.398 1_554 S
Dy120 O125 2.491 1_554 S
Dy120 O126 2.403 . S
Dy120 O127 2.664 . S
Dy120 O131 2.326 1_554 S
Dy120 O135 2.310 . S
Dy120 O136 2.351 . S
C121 O132 1.185 . S
C121 O133 1.355 . S
C122 O124 1.185 . S
C122 O125 1.355 . S
Dy123 O127 2.310 . S
Dy123 O130 2.351 . S
Dy123 O132 2.398 . S
Dy123 O133 2.491 . S
Dy123 O134 2.403 . S
Dy123 O135 2.664 . S
Dy123 O137 2.326 . S
O124 Dy120 2.398 1_556 S
O124 C122 1.185 . S
O125 Dy120 2.491 1_556 S
O125 C122 1.355 . S
O126 Dy120 2.403 . S
O126 C128 1.254 . S
O127 Dy120 2.664 . S
O127 Dy123 2.310 . S
O127 C128 1.268 . S
C128 O126 1.254 . S
C128 O127 1.268 . S
C129 O134 1.254 . S
C129 O135 1.268 . S
O130 Dy123 2.351 . S
O130 C138 1.249 . S
O131 Dy120 2.326 1_556 S
O131 C138 1.267 1_556 S
O132 C121 1.185 . S
O132 Dy123 2.398 . S
O133 C121 1.355 . S
O133 Dy123 2.491 . S
O134 Dy123 2.403 . S
O134 C129 1.254 . S
O135 Dy120 2.310 . S
O135 Dy123 2.664 . S
O135 C129 1.268 . S
O136 Dy120 2.351 . S
O136 C139 1.249 . S
O137 Dy123 2.326 . S
O137 C139 1.267 . S
C138 O130 1.249 . S
C138 O131 1.267 1_554 S
C139 O136 1.249 . S
C139 O137 1.267 . S
Dy140 O144 2.398 . S
Dy140 O145 2.491 . S
Dy140 O146 2.403 . S
Dy140 O147 2.664 . S
Dy140 O151 2.326 . S
Dy140 O155 2.310 . S
Dy140 O156 2.351 . S
C141 O152 1.185 . S
C141 O153 1.355 . S
C142 O144 1.185 . S
C142 O145 1.355 . S
Dy143 O147 2.310 . S
Dy143 O150 2.351 . S
Dy143 O152 2.398 1_556 S
Dy143 O153 2.491 1_556 S
Dy143 O154 2.403 . S
Dy143 O155 2.664 . S
Dy143 O157 2.326 1_556 S
O144 Dy140 2.398 . S
O144 C142 1.185 . S
O145 Dy140 2.491 . S
O145 C142 1.355 . S
O146 Dy140 2.403 . S
O146 C148 1.254 . S
O147 Dy140 2.664 . S
O147 Dy143 2.310 . S
O147 C148 1.268 . S
C148 O146 1.254 . S
C148 O147 1.268 . S
C149 O154 1.254 . S
C149 O155 1.268 . S
O150 Dy143 2.351 . S
O150 C158 1.249 . S
O151 Dy140 2.326 . S
O151 C158 1.267 . S
O152 C141 1.185 . S
O152 Dy143 2.398 1_554 S
O153 C141 1.355 . S
O153 Dy143 2.491 1_554 S
O154 Dy143 2.403 . S
O154 C149 1.254 . S
O155 Dy140 2.310 . S
O155 Dy143 2.664 . S
O155 C149 1.268 . S
O156 Dy140 2.351 . S
O156 C159 1.249 . S
O157 Dy143 2.326 1_554 S
O157 C159 1.267 1_554 S
C158 O150 1.249 . S
C158 O151 1.267 . S
C159 O156 1.249 . S
C159 O157 1.267 1_556 S
Dy160 O164 2.398 . S
Dy160 O165 2.491 . S
Dy160 O166 2.403 . S
Dy160 O167 2.664 . S
Dy160 O171 2.326 . S
Dy160 O175 2.310 . S
Dy160 O176 2.351 . S
C161 O172 1.185 . S
C161 O173 1.355 . S
C162 O164 1.185 . S
C162 O165 1.355 . S
Dy163 O167 2.310 . S
Dy163 O170 2.351 . S
Dy163 O172 2.398 . S
Dy163 O173 2.491 . S
Dy163 O174 2.403 . S
Dy163 O175 2.664 . S
Dy163 O177 2.326 . S
O164 Dy160 2.398 . S
O164 C162 1.185 . S
O165 Dy160 2.491 . S
O165 C162 1.355 . S
O166 Dy160 2.403 . S
O166 C168 1.254 . S
O167 Dy160 2.664 . S
O167 Dy163 2.310 . S
O167 C168 1.268 . S
C168 O166 1.254 . S
C168 O167 1.268 . S
C169 O174 1.254 . S
C169 O175 1.268 . S
O170 Dy163 2.351 . S
O170 C178 1.249 . S
O171 Dy160 2.326 . S
O171 C178 1.267 . S
O172 C161 1.185 . S
O172 Dy163 2.398 . S
O173 C161 1.355 . S
O173 Dy163 2.491 . S
O174 Dy163 2.403 . S
O174 C169 1.254 . S
O175 Dy160 2.310 . S
O175 Dy163 2.664 . S
O175 C169 1.268 . S
O176 Dy160 2.351 . S
O176 C179 1.249 . S
O177 Dy163 2.326 . S
O177 C179 1.267 . S
C178 O170 1.249 . S
C178 O171 1.267 . S
C179 O176 1.249 . S
C179 O177 1.267 . S
Dy180 O184 2.398 . S
Dy180 O185 2.491 . S
Dy180 O186 2.403 . S
Dy180 O187 2.664 . S
Dy180 O191 2.326 . S
Dy180 O195 2.310 . S
Dy180 O196 2.351 . S
C181 O192 1.185 . S
C181 O193 1.355 . S
C182 O184 1.185 . S
C182 O185 1.355 . S
Dy183 O187 2.310 . S
Dy183 O190 2.351 . S
Dy183 O192 2.398 . S
Dy183 O193 2.491 . S
Dy183 O194 2.403 . S
Dy183 O195 2.664 . S
Dy183 O197 2.326 . S
O184 Dy180 2.398 . S
O184 C182 1.185 . S
O185 Dy180 2.491 . S
O185 C182 1.355 . S
O186 Dy180 2.403 . S
O186 C188 1.254 . S
O187 Dy180 2.664 . S
O187 Dy183 2.310 . S
O187 C188 1.268 . S
C188 O186 1.254 . S
C188 O187 1.268 . S
C189 O194 1.254 . S
C189 O195 1.268 . S
O190 Dy183 2.351 . S
O190 C198 1.249 . S
O191 Dy180 2.326 . S
O191 C198 1.267 . S
O192 C181 1.185 . S
O192 Dy183 2.398 . S
O193 C181 1.355 . S
O193 Dy183 2.491 . S
O194 Dy183 2.403 . S
O194 C189 1.254 . S
O195 Dy180 2.310 . S
O195 Dy183 2.664 . S
O195 C189 1.268 . S
O196 Dy180 2.351 . S
O196 C199 1.249 . S
O197 Dy183 2.326 . S
O197 C199 1.267 . S
C198 O190 1.249 . S
C198 O191 1.267 . S
C199 O196 1.249 . S
C199 O197 1.267 . S
Dy200 O204 2.398 . S
Dy200 O205 2.491 . S
Dy200 O206 2.403 . S
Dy200 O207 2.664 . S
Dy200 O211 2.326 . S
Dy200 O215 2.310 . S
Dy200 O216 2.351 . S
C201 O212 1.185 . S
C201 O213 1.355 . S
C202 O204 1.185 . S
C202 O205 1.355 . S
Dy203 O207 2.310 . S
Dy203 O210 2.351 . S
Dy203 O212 2.398 . S
Dy203 O213 2.491 . S
Dy203 O214 2.403 . S
Dy203 O215 2.664 . S
Dy203 O217 2.326 . S
O204 Dy200 2.398 . S
O204 C202 1.185 . S
O205 Dy200 2.491 . S
O205 C202 1.355 . S
O206 Dy200 2.403 . S
O206 C208 1.254 . S
O207 Dy200 2.664 . S
O207 Dy203 2.310 . S
O207 C208 1.268 . S
C208 O206 1.254 . S
C208 O207 1.268 . S
C209 O214 1.254 . S
C209 O215 1.268 . S
O210 Dy203 2.351 . S
O210 C218 1.249 . S
O211 Dy200 2.326 . S
O211 C218 1.267 . S
O212 C201 1.185 . S
O212 Dy203 2.398 . S
O213 C201 1.355 . S
O213 Dy203 2.491 . S
O214 Dy203 2.403 . S
O214 C209 1.254 . S
O215 Dy200 2.310 . S
O215 Dy203 2.664 . S
O215 C209 1.268 . S
O216 Dy200 2.351 . S
O216 C219 1.249 . S
O217 Dy203 2.326 . S
O217 C219 1.267 . S
C218 O210 1.249 . S
C218 O211 1.267 . S
C219 O216 1.249 . S
C219 O217 1.267 . S
Dy220 O224 2.398 . S
Dy220 O225 2.491 . S
Dy220 O226 2.403 . S
Dy220 O227 2.664 . S
Dy220 O231 2.326 . S
Dy220 O235 2.310 . S
Dy220 O236 2.351 . S
C221 O232 1.185 . S
C221 O233 1.355 . S
C222 O224 1.185 . S
C222 O225 1.355 . S
Dy223 O227 2.310 . S
Dy223 O230 2.351 . S
Dy223 O232 2.398 . S
Dy223 O233 2.491 . S
Dy223 O234 2.403 . S
Dy223 O235 2.664 . S
Dy223 O237 2.326 . S
O224 Dy220 2.398 . S
O224 C222 1.185 . S
O225 Dy220 2.491 . S
O225 C222 1.355 . S
O226 Dy220 2.403 . S
O226 C228 1.254 . S
O227 Dy220 2.664 . S
O227 Dy223 2.310 . S
O227 C228 1.268 . S
C228 O226 1.254 . S
C228 O227 1.268 . S
C229 O234 1.254 . S
C229 O235 1.268 . S
O230 Dy223 2.351 . S
O230 C238 1.249 . S
O231 Dy220 2.326 . S
O231 C238 1.267 . S
O232 C221 1.185 . S
O232 Dy223 2.398 . S
O233 C221 1.355 . S
O233 Dy223 2.491 . S
O234 Dy223 2.403 . S
O234 C229 1.254 . S
O235 Dy220 2.310 . S
O235 Dy223 2.664 . S
O235 C229 1.268 . S
O236 Dy220 2.351 . S
O236 C239 1.249 . S
O237 Dy223 2.326 . S
O237 C239 1.267 . S
C238 O230 1.249 . S
C238 O231 1.267 . S
C239 O236 1.249 . S
C239 O237 1.267 . S
Dy240 O244 2.398 . S
Dy240 O245 2.491 . S
Dy240 O246 2.403 . S
Dy240 O247 2.664 . S
Dy240 O251 2.326 . S
Dy240 O255 2.310 . S
Dy240 O256 2.351 . S
C241 O252 1.185 . S
C241 O253 1.355 . S
C242 O244 1.185 . S
C242 O245 1.355 . S
Dy243 O247 2.310 . S
Dy243 O250 2.351 . S
Dy243 O252 2.398 . S
Dy243 O253 2.491 . S
Dy243 O254 2.403 . S
Dy243 O255 2.664 . S
Dy243 O257 2.326 . S
O244 Dy240 2.398 . S
O244 C242 1.185 . S
O245 Dy240 2.491 . S
O245 C242 1.355 . S
O246 Dy240 2.403 . S
O246 C248 1.254 . S
O247 Dy240 2.664 . S
O247 Dy243 2.310 . S
O247 C248 1.268 . S
C248 O246 1.254 . S
C248 O247 1.268 . S
C249 O254 1.254 . S
C249 O255 1.268 . S
O250 Dy243 2.351 . S
O250 C258 1.249 . S
O251 Dy240 2.326 . S
O251 C258 1.267 . S
O252 C241 1.185 . S
O252 Dy243 2.398 . S
O253 C241 1.355 . S
O253 Dy243 2.491 . S
O254 Dy243 2.403 . S
O254 C249 1.254 . S
O255 Dy240 2.310 . S
O255 Dy243 2.664 . S
O255 C249 1.268 . S
O256 Dy240 2.351 . S
O256 C259 1.249 . S
O257 Dy243 2.326 . S
O257 C259 1.267 . S
C258 O250 1.249 . S
C258 O251 1.267 . S
C259 O256 1.249 . S
C259 O257 1.267 . S
Dy260 O264 2.398 . S
Dy260 O265 2.491 . S
Dy260 O266 2.403 . S
Dy260 O267 2.664 . S
Dy260 O271 2.326 . S
Dy260 O275 2.310 . S
Dy260 O276 2.351 . S
C261 O272 1.185 . S
C261 O273 1.355 . S
C262 O264 1.185 . S
C262 O265 1.355 . S
Dy263 O267 2.310 . S
Dy263 O270 2.351 . S
Dy263 O272 2.398 . S
Dy263 O273 2.491 . S
Dy263 O274 2.403 . S
Dy263 O275 2.664 . S
Dy263 O277 2.326 . S
O264 Dy260 2.398 . S
O264 C262 1.185 . S
O265 Dy260 2.491 . S
O265 C262 1.355 . S
O266 Dy260 2.403 . S
O266 C268 1.254 . S
O267 Dy260 2.664 . S
O267 Dy263 2.310 . S
O267 C268 1.268 . S
C268 O266 1.254 . S
C268 O267 1.268 . S
C269 O274 1.254 . S
C269 O275 1.268 . S
O270 Dy263 2.351 . S
O270 C278 1.249 . S
O271 Dy260 2.326 . S
O271 C278 1.267 . S
O272 C261 1.185 . S
O272 Dy263 2.398 . S
O273 C261 1.355 . S
O273 Dy263 2.491 . S
O274 Dy263 2.403 . S
O274 C269 1.254 . S
O275 Dy260 2.310 . S
O275 Dy263 2.664 . S
O275 C269 1.268 . S
O276 Dy260 2.351 . S
O276 C279 1.249 . S
O277 Dy263 2.326 . S
O277 C279 1.267 . S
C278 O270 1.249 . S
C278 O271 1.267 . S
C279 O276 1.249 . S
C279 O277 1.267 . S
Dy280 O284 2.398 . S
Dy280 O285 2.491 . S
Dy280 O286 2.403 . S
Dy280 O287 2.664 . S
Dy280 O291 2.326 . S
Dy280 O295 2.310 . S
Dy280 O296 2.351 . S
C281 O292 1.185 . S
C281 O293 1.355 . S
C282 O284 1.185 . S
C282 O285 1.355 . S
Dy283 O287 2.310 . S
Dy283 O290 2.351 . S
Dy283 O292 2.398 . S
Dy283 O293 2.491 . S
Dy283 O294 2.403 . S
Dy283 O295 2.664 . S
Dy283 O297 2.326 . S
O284 Dy280 2.398 . S
O284 C282 1.185 . S
O285 Dy280 2.491 . S
O285 C282 1.355 . S
O286 Dy280 2.403 . S
O286 C288 1.254 . S
O287 Dy280 2.664 . S
O287 Dy283 2.310 . S
O287 C288 1.268 . S
C288 O286 1.254 . S
C288 O287 1.268 . S
C289 O294 1.254 . S
C289 O295 1.268 . S
O290 Dy283 2.351 . S
O290 C298 1.249 . S
O291 Dy280 2.326 . S
O291 C298 1.267 . S
O292 C281 1.185 . S
O292 Dy283 2.398 . S
O293 C281 1.355 . S
O293 Dy283 2.491 . S
O294 Dy283 2.403 . S
O294 C289 1.254 . S
O295 Dy280 2.310 . S
O295 Dy283 2.664 . S
O295 C289 1.268 . S
O296 Dy280 2.351 . S
O296 C299 1.249 . S
O297 Dy283 2.326 . S
O297 C299 1.267 . S
C298 O290 1.249 . S
C298 O291 1.267 . S
C299 O296 1.249 . S
C299 O297 1.267 . S
Dy300 O304 2.398 . S
Dy300 O305 2.491 . S
Dy300 O306 2.403 . S
Dy300 O307 2.664 . S
Dy300 O311 2.326 . S
Dy300 O315 2.310 . S
Dy300 O316 2.351 . S
C301 O312 1.185 . S
C301 O313 1.355 . S
C302 O304 1.185 . S
C302 O305 1.355 . S
Dy303 O307 2.310 . S
Dy303 O310 2.351 . S
Dy303 O312 2.398 . S
Dy303 O313 2.491 . S
Dy303 O314 2.403 . S
Dy303 O315 2.664 . S
Dy303 O317 2.326 . S
O304 Dy300 2.398 . S
O304 C302 1.185 . S
O305 Dy300 2.491 . S
O305 C302 1.355 . S
O306 Dy300 2.403 . S
O306 C308 1.254 . S
O307 Dy300 2.664 . S
O307 Dy303 2.310 . S
O307 C308 1.268 . S
C308 O306 1.254 . S
C308 O307 1.268 . S
C309 O314 1.254 . S
C309 O315 1.268 . S
O310 Dy303 2.351 . S
O310 C318 1.249 . S
O311 Dy300 2.326 . S
O311 C318 1.267 . S
O312 C301 1.185 . S
O312 Dy303 2.398 . S
O313 C301 1.355 . S
O313 Dy303 2.491 . S
O314 Dy303 2.403 . S
O314 C309 1.254 . S
O315 Dy300 2.310 . S
O315 Dy303 2.664 . S
O315 C309 1.268 . S
O316 Dy300 2.351 . S
O316 C319 1.249 . S
O317 Dy303 2.326 . S
O317 C319 1.267 . S
C318 O310 1.249 . S
C318 O311 1.267 . S
C319 O316 1.249 . S
C319 O317 1.267 . S
C320 C321 1.387 . S
C320 H324 0.950 . S
C320 C329 1.390 1_565 S
C321 C320 1.387 . S
C321 C323 1.387 . S
H322 C329 0.950 . S
C323 C321 1.387 . S
C323 C325 1.390 1_565 S
C323 H327 0.950 . S
H324 C320 0.950 . S
C325 C323 1.390 1_545 S
C325 C326 1.387 . S
C325 H328 0.950 . S
C326 C325 1.387 . S
C326 C329 1.387 . S
H327 C323 0.950 . S
H328 C325 0.950 . S
C329 C320 1.390 1_545 S
C329 H322 0.950 . S
C329 C326 1.387 . S
C330 C331 1.387 . S
C330 H334 0.950 . S
C330 C339 1.390 1_655 S
C331 C330 1.387 . S
C331 C333 1.387 . S
H332 C339 0.950 . S
C333 C331 1.387 . S
C333 C335 1.390 1_655 S
C333 H337 0.950 . S
H334 C330 0.950 . S
C335 C333 1.390 1_455 S
C335 C336 1.387 . S
C335 H338 0.950 . S
C336 C335 1.387 . S
C336 C339 1.387 . S
H337 C333 0.950 . S
H338 C335 0.950 . S
C339 C330 1.390 1_455 S
C339 H332 0.950 . S
C339 C336 1.387 . S
C340 C341 1.387 . S
C340 H344 0.950 . S
C340 C349 1.390 1_565 S
C341 C340 1.387 . S
C341 C343 1.387 . S
H342 C349 0.950 . S
C343 C341 1.387 . S
C343 C345 1.390 1_565 S
C343 H347 0.950 . S
H344 C340 0.950 . S
C345 C343 1.390 1_545 S
C345 C346 1.387 . S
C345 H348 0.950 . S
C346 C345 1.387 . S
C346 C349 1.387 . S
H347 C343 0.950 . S
H348 C345 0.950 . S
C349 C340 1.390 1_545 S
C349 H342 0.950 . S
C349 C346 1.387 . S
C350 C351 1.387 . S
C350 H354 0.950 . S
C350 C359 1.390 1_655 S
C351 C350 1.387 . S
C351 C353 1.387 . S
H352 C359 0.950 . S
C353 C351 1.387 . S
C353 C355 1.390 1_655 S
C353 H357 0.950 . S
H354 C350 0.950 . S
C355 C353 1.390 1_455 S
C355 C356 1.387 . S
C355 H358 0.950 . S
C356 C355 1.387 . S
C356 C359 1.387 . S
H357 C353 0.950 . S
H358 C355 0.950 . S
C359 C350 1.390 1_455 S
C359 H352 0.950 . S
C359 C356 1.387 . S
C360 C361 1.387 . S
C360 H364 0.950 1_554 S
C360 C369 1.390 1_554 S
C361 C360 1.387 . S
C361 C363 1.387 . S
H362 C369 0.950 . S
C363 C361 1.387 . S
C363 C365 1.390 . S
C363 H367 0.950 . S
H364 C360 0.950 1_556 S
C365 C363 1.390 . S
C365 C366 1.387 . S
C365 H368 0.950 . S
C366 C365 1.387 . S
C366 C369 1.387 1_554 S
H367 C363 0.950 . S
H368 C365 0.950 . S
C369 C360 1.390 1_556 S
C369 H362 0.950 . S
C369 C366 1.387 1_556 S
C370 C371 1.387 1_554 S
C370 H374 0.950 . S
C370 C379 1.390 1_554 S
C371 C370 1.387 1_556 S
C371 C373 1.387 . S
H372 C379 0.950 . S
C373 C371 1.387 . S
C373 C375 1.390 . S
C373 H377 0.950 . S
H374 C370 0.950 . S
C375 C373 1.390 . S
C375 C376 1.387 . S
C375 H378 0.950 . S
C376 C375 1.387 . S
C376 C379 1.387 . S
H377 C373 0.950 . S
H378 C375 0.950 . S
C379 C370 1.390 1_556 S
C379 H372 0.950 . S
C379 C376 1.387 . S
C380 C381 1.387 . S
C380 H384 0.950 . S
C380 C389 1.390 . S
C381 C380 1.387 . S
C381 C383 1.387 1_554 S
H382 C389 0.950 . S
C383 C381 1.387 1_556 S
C383 C385 1.390 . S
C383 H387 0.950 . S
H384 C380 0.950 . S
C385 C383 1.390 . S
C385 C386 1.387 1_556 S
C385 H388 0.950 . S
C386 C385 1.387 1_554 S
C386 C389 1.387 . S
H387 C383 0.950 . S
H388 C385 0.950 . S
C389 C380 1.390 . S
C389 H382 0.950 . S
C389 C386 1.387 . S
C390 C391 1.387 . S
C390 H394 0.950 . S
C390 C399 1.390 . S
C391 C390 1.387 . S
C391 C393 1.387 . S
H392 C399 0.950 . S
C393 C391 1.387 . S
C393 C395 1.390 . S
C393 H397 0.950 1_556 S
H394 C390 0.950 . S
C395 C393 1.390 . S
C395 C396 1.387 . S
C395 H398 0.950 . S
C396 C395 1.387 . S
C396 C399 1.387 . S
H397 C393 0.950 1_554 S
H398 C395 0.950 . S
C399 C390 1.390 . S
C399 H392 0.950 . S
C399 C396 1.387 . S
C400 C401 1.387 . S
C400 H404 0.950 . S
C400 C409 1.390 . S
C401 C400 1.387 . S
C401 C403 1.387 . S
H402 C409 0.950 . S
C403 C401 1.387 . S
C403 C405 1.390 . S
C403 H407 0.950 . S
H404 C400 0.950 . S
C405 C403 1.390 . S
C405 C406 1.387 . S
C405 H408 0.950 . S
C406 C405 1.387 . S
C406 C409 1.387 . S
H407 C403 0.950 . S
H408 C405 0.950 . S
C409 C400 1.390 . S
C409 H402 0.950 . S
C409 C406 1.387 . S
C410 C411 1.387 . S
C410 H414 0.950 . S
C410 C419 1.390 . S
C411 C410 1.387 . S
C411 C413 1.387 . S
H412 C419 0.950 . S
C413 C411 1.387 . S
C413 C415 1.390 . S
C413 H417 0.950 . S
H414 C410 0.950 . S
C415 C413 1.390 . S
C415 C416 1.387 . S
C415 H418 0.950 . S
C416 C415 1.387 . S
C416 C419 1.387 . S
H417 C413 0.950 . S
H418 C415 0.950 . S
C419 C410 1.390 . S
C419 H412 0.950 . S
C419 C416 1.387 . S
C420 C421 1.387 . S
C420 H424 0.950 . S
C420 C429 1.390 . S
C421 C420 1.387 . S
C421 C423 1.387 . S
H422 C429 0.950 . S
C423 C421 1.387 . S
C423 C425 1.390 . S
C423 H427 0.950 . S
H424 C420 0.950 . S
C425 C423 1.390 . S
C425 C426 1.387 . S
C425 H428 0.950 . S
C426 C425 1.387 . S
C426 C429 1.387 . S
H427 C423 0.950 . S
H428 C425 0.950 . S
C429 C420 1.390 . S
C429 H422 0.950 . S
C429 C426 1.387 . S
C430 C431 1.387 . S
C430 H434 0.950 . S
C430 C439 1.390 . S
C431 C430 1.387 . S
C431 C433 1.387 . S
H432 C439 0.950 . S
C433 C431 1.387 . S
C433 C435 1.390 . S
C433 H437 0.950 . S
H434 C430 0.950 . S
C435 C433 1.390 . S
C435 C436 1.387 . S
C435 H438 0.950 . S
C436 C435 1.387 . S
C436 C439 1.387 . S
H437 C433 0.950 . S
H438 C435 0.950 . S
C439 C430 1.390 . S
C439 H432 0.950 . S
C439 C436 1.387 . S
C440 C441 1.385 . S
C440 H444 0.949 . S
C440 C449 1.393 1_565 S
C441 C440 1.385 . S
C441 C443 1.387 . S
H442 C449 0.950 . S
C443 C441 1.387 . S
C443 C445 1.390 1_565 S
C443 H447 0.950 . S
H444 C440 0.949 . S
C445 C443 1.390 1_545 S
C445 C446 1.387 . S
C445 H448 0.950 . S
C446 C445 1.387 . S
C446 C449 1.387 . S
H447 C443 0.950 . S
H448 C445 0.950 . S
C449 C440 1.393 1_545 S
C449 H442 0.950 . S
C449 C446 1.387 . S
C450 C451 1.387 . S
C450 H454 0.950 . S
C450 C459 1.390 1_455 S
C451 C450 1.387 . S
C451 C453 1.387 . S
H452 C459 0.950 . S
C453 C451 1.387 . S
C453 C455 1.390 1_455 S
C453 H457 0.950 . S
H454 C450 0.950 . S
C455 C453 1.390 1_655 S
C455 C456 1.387 . S
C455 H458 0.950 . S
C456 C455 1.387 . S
C456 C459 1.387 . S
H457 C453 0.950 . S
H458 C455 0.950 . S
C459 C450 1.390 1_655 S
C459 H452 0.950 . S
C459 C456 1.387 . S
C460 C461 1.387 . S
C460 H464 0.950 . S
C460 C469 1.391 1_565 S
C461 C460 1.387 . S
C461 C463 1.387 . S
H462 C469 0.949 . S
C463 C461 1.387 . S
C463 C465 1.390 1_565 S
C463 H467 0.950 . S
H464 C460 0.950 . S
C465 C463 1.390 1_545 S
C465 C466 1.387 . S
C465 H468 0.950 . S
C466 C465 1.387 . S
C466 C469 1.387 . S
H467 C463 0.950 . S
H468 C465 0.950 . S
C469 C460 1.391 1_545 S
C469 H462 0.949 . S
C469 C466 1.387 . S
C470 C471 1.387 . S
C470 H474 0.950 . S
C470 C479 1.390 1_455 S
C471 C470 1.387 . S
C471 C473 1.387 . S
H472 C479 0.950 . S
C473 C471 1.387 . S
C473 C475 1.390 1_455 S
C473 H477 0.950 . S
H474 C470 0.950 . S
C475 C473 1.390 1_655 S
C475 C476 1.387 . S
C475 H478 0.950 . S
C476 C475 1.387 . S
C476 C479 1.387 . S
H477 C473 0.950 . S
H478 C475 0.950 . S
C479 C470 1.390 1_655 S
C479 H472 0.950 . S
C479 C476 1.387 . S
C480 C481 1.387 . S
C480 H484 0.950 . S
C480 C489 1.390 . S
C481 C480 1.387 . S
C481 C483 1.387 . S
H482 C489 0.950 . S
C483 C481 1.387 . S
C483 C485 1.390 . S
C483 H487 0.950 . S
H484 C480 0.950 . S
C485 C483 1.390 . S
C485 C486 1.387 . S
C485 H488 0.950 . S
C486 C485 1.387 . S
C486 C489 1.387 . S
H487 C483 0.950 . S
H488 C485 0.950 . S
C489 C480 1.390 . S
C489 H482 0.950 . S
C489 C486 1.387 . S
C490 C491 1.387 . S
C490 H494 0.950 . S
C490 C499 1.390 . S
C491 C490 1.387 . S
C491 C493 1.387 . S
H492 C499 0.950 . S
C493 C491 1.387 . S
C493 C495 1.390 . S
C493 H497 0.950 . S
H494 C490 0.950 . S
C495 C493 1.390 . S
C495 C496 1.387 . S
C495 H498 0.950 . S
C496 C495 1.387 . S
C496 C499 1.387 . S
H497 C493 0.950 . S
H498 C495 0.950 . S
C499 C490 1.390 . S
C499 H492 0.950 . S
C499 C496 1.387 . S
C500 C501 1.387 . S
C500 H504 0.950 . S
C500 C509 1.390 . S
C501 C500 1.387 . S
C501 C503 1.387 . S
H502 C509 0.950 . S
C503 C501 1.387 . S
C503 C505 1.390 . S
C503 H507 0.950 . S
H504 C500 0.950 . S
C505 C503 1.390 . S
C505 C506 1.387 . S
C505 H508 0.950 . S
C506 C505 1.387 . S
C506 C509 1.387 . S
H507 C503 0.950 . S
H508 C505 0.950 . S
C509 C500 1.390 . S
C509 H502 0.950 . S
C509 C506 1.387 . S
C510 C511 1.387 . S
C510 H514 0.950 . S
C510 C519 1.390 . S
C511 C510 1.387 . S
C511 C513 1.387 . S
H512 C519 0.950 . S
C513 C511 1.387 . S
C513 C515 1.390 . S
C513 H517 0.950 . S
H514 C510 0.950 . S
C515 C513 1.390 . S
C515 C516 1.387 . S
C515 H518 0.950 . S
C516 C515 1.387 . S
C516 C519 1.387 . S
H517 C513 0.950 . S
H518 C515 0.950 . S
C519 C510 1.390 . S
C519 H512 0.950 . S
C519 C516 1.387 . S
C520 C521 1.387 . S
C520 H524 0.950 . S
C520 C529 1.390 . S
C521 C520 1.387 . S
C521 C523 1.387 . S
H522 C529 0.950 . S
C523 C521 1.387 . S
C523 C525 1.390 . S
C523 H527 0.950 . S
H524 C520 0.950 . S
C525 C523 1.390 . S
C525 C526 1.387 . S
C525 H528 0.950 . S
C526 C525 1.387 . S
C526 C529 1.387 . S
H527 C523 0.950 . S
H528 C525 0.950 . S
C529 C520 1.390 . S
C529 H522 0.950 . S
C529 C526 1.387 . S
C530 C531 1.387 . S
C530 H534 0.950 . S
C530 C539 1.390 . S
C531 C530 1.387 . S
C531 C533 1.387 . S
H532 C539 0.950 . S
C533 C531 1.387 . S
C533 C535 1.390 . S
C533 H537 0.950 . S
H534 C530 0.950 . S
C535 C533 1.390 . S
C535 C536 1.387 . S
C535 H538 0.950 . S
C536 C535 1.387 . S
C536 C539 1.387 . S
H537 C533 0.950 . S
H538 C535 0.950 . S
C539 C530 1.390 . S
C539 H532 0.950 . S
C539 C536 1.387 . S
C540 C541 1.387 . S
C540 H544 0.950 . S
C540 C549 1.390 . S
C541 C540 1.387 . S
C541 C543 1.387 . S
H542 C549 0.950 . S
C543 C541 1.387 . S
C543 C545 1.390 . S
C543 H547 0.950 . S
H544 C540 0.950 . S
C545 C543 1.390 . S
C545 C546 1.387 . S
C545 H548 0.950 . S
C546 C545 1.387 . S
C546 C549 1.387 . S
H547 C543 0.950 . S
H548 C545 0.950 . S
C549 C540 1.390 . S
C549 H542 0.950 . S
C549 C546 1.387 . S
C550 C551 1.387 . S
C550 H554 0.950 . S
C550 C559 1.390 . S
C551 C550 1.387 . S
C551 C553 1.387 . S
H552 C559 0.950 . S
C553 C551 1.387 . S
C553 C555 1.390 . S
C553 H557 0.950 . S
H554 C550 0.950 . S
C555 C553 1.390 . S
C555 C556 1.387 . S
C555 H558 0.950 . S
C556 C555 1.387 . S
C556 C559 1.387 . S
H557 C553 0.950 . S
H558 C555 0.950 . S
C559 C550 1.390 . S
C559 H552 0.950 . S
C559 C556 1.387 . S
C560 C561 1.387 . S
C560 H564 0.950 . S
C560 C569 1.390 . S
C561 C560 1.387 . S
C561 C563 1.387 . S
H562 C569 0.950 . S
C563 C561 1.387 . S
C563 C565 1.390 . S
C563 H567 0.950 . S
H564 C560 0.950 . S
C565 C563 1.390 . S
C565 C566 1.387 . S
C565 H568 0.950 . S
C566 C565 1.387 . S
C566 C569 1.387 . S
H567 C563 0.950 . S
H568 C565 0.950 . S
C569 C560 1.390 . S
C569 H562 0.950 . S
C569 C566 1.387 . S
C570 C571 1.387 . S
C570 H574 0.950 . S
C570 C579 1.390 . S
C571 C570 1.387 . S
C571 C573 1.387 . S
H572 C579 0.950 . S
C573 C571 1.387 . S
C573 C575 1.390 . S
C573 H577 0.950 . S
H574 C570 0.950 . S
C575 C573 1.390 . S
C575 C576 1.387 . S
C575 H578 0.950 . S
C576 C575 1.387 . S
C576 C579 1.387 . S
H577 C573 0.950 . S
H578 C575 0.950 . S
C579 C570 1.390 . S
C579 H572 0.950 . S
C579 C576 1.387 . S
C580 C581 1.387 . S
C580 H584 0.950 . S
C580 C589 1.390 . S
C581 C580 1.387 . S
C581 C583 1.387 . S
H582 C589 0.950 . S
C583 C581 1.387 . S
C583 C585 1.390 . S
C583 H587 0.950 . S
H584 C580 0.950 . S
C585 C583 1.390 . S
C585 C586 1.387 . S
C585 H588 0.950 . S
C586 C585 1.387 . S
C586 C589 1.387 . S
H587 C583 0.950 . S
H588 C585 0.950 . S
C589 C580 1.390 . S
C589 H582 0.950 . S
C589 C586 1.387 . S
C590 C591 1.387 . S
C590 H594 0.950 . S
C590 C599 1.390 . S
C591 C590 1.387 . S
C591 C593 1.387 . S
H592 C599 0.950 . S
C593 C591 1.387 . S
C593 C595 1.390 . S
C593 H597 0.950 . S
H594 C590 0.950 . S
C595 C593 1.390 . S
C595 C596 1.387 . S
C595 H598 0.950 . S
C596 C595 1.387 . S
C596 C599 1.387 . S
H597 C593 0.950 . S
H598 C595 0.950 . S
C599 C590 1.390 . S
C599 H592 0.950 . S
C599 C596 1.387 . S
C600 C601 1.387 . S
C600 H604 0.950 . S
C600 C609 1.390 . S
C601 C600 1.387 . S
C601 C603 1.387 . S
H602 C609 0.950 . S
C603 C601 1.387 . S
C603 C605 1.390 . S
C603 H607 0.950 . S
H604 C600 0.950 . S
C605 C603 1.390 . S
C605 C606 1.387 . S
C605 H608 0.950 . S
C606 C605 1.387 . S
C606 C609 1.387 . S
H607 C603 0.950 . S
H608 C605 0.950 . S
C609 C600 1.390 . S
C609 H602 0.950 . S
C609 C606 1.387 . S
C610 C611 1.387 . S
C610 H614 0.950 . S
C610 C619 1.390 . S
C611 C610 1.387 . S
C611 C613 1.387 . S
H612 C619 0.950 . S
C613 C611 1.387 . S
C613 C615 1.390 . S
C613 H617 0.950 . S
H614 C610 0.950 . S
C615 C613 1.390 . S
C615 C616 1.387 . S
C615 H618 0.950 . S
C616 C615 1.387 . S
C616 C619 1.387 . S
H617 C613 0.950 . S
H618 C615 0.950 . S
C619 C610 1.390 . S
C619 H612 0.950 . S
C619 C616 1.387 . S
C620 C621 1.387 . S
C620 H624 0.950 . S
C620 C629 1.390 . S
C621 C620 1.387 . S
C621 C623 1.387 . S
H622 C629 0.950 . S
C623 C621 1.387 . S
C623 C625 1.390 . S
C623 H627 0.950 . S
H624 C620 0.950 . S
C625 C623 1.390 . S
C625 C626 1.387 . S
C625 H628 0.950 . S
C626 C625 1.387 . S
C626 C629 1.387 . S
H627 C623 0.950 . S
H628 C625 0.950 . S
C629 C620 1.390 . S
C629 H622 0.950 . S
C629 C626 1.387 . S
C630 C631 1.387 . S
C630 H634 0.950 . S
C630 C639 1.390 . S
C631 C630 1.387 . S
C631 C633 1.387 . S
H632 C639 0.950 . S
C633 C631 1.387 . S
C633 C635 1.390 . S
C633 H637 0.950 . S
H634 C630 0.950 . S
C635 C633 1.390 . S
C635 C636 1.387 . S
C635 H638 0.950 . S
C636 C635 1.387 . S
C636 C639 1.387 . S
H637 C633 0.950 . S
H638 C635 0.950 . S
C639 C630 1.390 . S
C639 H632 0.950 . S
C639 C636 1.387 . S
C640 C641 1.387 . S
C640 H644 0.950 . S
C640 C649 1.390 . S
C641 C640 1.387 . S
C641 C643 1.387 . S
H642 C649 0.950 . S
C643 C641 1.387 . S
C643 C645 1.390 . S
C643 H647 0.950 . S
H644 C640 0.950 . S
C645 C643 1.390 . S
C645 C646 1.387 . S
C645 H648 0.950 . S
C646 C645 1.387 . S
C646 C649 1.387 . S
H647 C643 0.950 . S
H648 C645 0.950 . S
C649 C640 1.390 . S
C649 H642 0.950 . S
C649 C646 1.387 . S
C650 C651 1.387 . S
C650 H654 0.950 . S
C650 C659 1.390 . S
C651 C650 1.387 . S
C651 C653 1.387 . S
H652 C659 0.950 . S
C653 C651 1.387 . S
C653 C655 1.390 . S
C653 H657 0.950 . S
H654 C650 0.950 . S
C655 C653 1.390 . S
C655 C656 1.387 . S
C655 H658 0.950 . S
C656 C655 1.387 . S
C656 C659 1.387 . S
H657 C653 0.950 . S
H658 C655 0.950 . S
C659 C650 1.390 . S
C659 H652 0.950 . S
C659 C656 1.387 . S
C660 C661 1.387 . S
C660 H664 0.950 . S
C660 C669 1.390 . S
C661 C660 1.387 . S
C661 C663 1.387 . S
H662 C669 0.950 . S
C663 C661 1.387 . S
C663 C665 1.390 . S
C663 H667 0.950 . S
H664 C660 0.950 . S
C665 C663 1.390 . S
C665 C666 1.387 . S
C665 H668 0.950 . S
C666 C665 1.387 . S
C666 C669 1.387 . S
H667 C663 0.950 . S
H668 C665 0.950 . S
C669 C660 1.390 . S
C669 H662 0.950 . S
C669 C666 1.387 . S
C670 C671 1.387 . S
C670 H674 0.950 . S
C670 C679 1.390 . S
C671 C670 1.387 . S
C671 C673 1.387 . S
H672 C679 0.950 . S
C673 C671 1.387 . S
C673 C675 1.390 . S
C673 H677 0.950 . S
H674 C670 0.950 . S
C675 C673 1.390 . S
C675 C676 1.387 . S
C675 H678 0.950 . S
C676 C675 1.387 . S
C676 C679 1.387 . S
H677 C673 0.950 . S
H678 C675 0.950 . S
C679 C670 1.390 . S
C679 H672 0.950 . S
C679 C676 1.387 . S
C680 C681 1.387 . S
C680 H684 0.950 . S
C680 C689 1.390 . S
C681 C680 1.387 . S
C681 C683 1.387 . S
H682 C689 0.950 . S
C683 C681 1.387 . S
C683 C685 1.390 . S
C683 H687 0.950 . S
H684 C680 0.950 . S
C685 C683 1.390 . S
C685 C686 1.387 . S
C685 H688 0.950 . S
C686 C685 1.387 . S
C686 C689 1.387 . S
H687 C683 0.950 . S
H688 C685 0.950 . S
C689 C680 1.390 . S
C689 H682 0.950 . S
C689 C686 1.387 . S
C690 C691 1.387 . S
C690 H694 0.950 . S
C690 C699 1.390 . S
C691 C690 1.387 . S
C691 C693 1.387 . S
H692 C699 0.950 . S
C693 C691 1.387 . S
C693 C695 1.390 . S
C693 H697 0.950 . S
H694 C690 0.950 . S
C695 C693 1.390 . S
C695 C696 1.387 . S
C695 H698 0.950 . S
C696 C695 1.387 . S
C696 C699 1.387 . S
H697 C693 0.950 . S
H698 C695 0.950 . S
C699 C690 1.390 . S
C699 H692 0.950 . S
C699 C696 1.387 . S
C700 C701 1.387 . S
C700 H704 0.950 . S
C700 C709 1.390 . S
C701 C700 1.387 . S
C701 C703 1.387 . S
H702 C709 0.950 . S
C703 C701 1.387 . S
C703 C705 1.390 . S
C703 H707 0.950 . S
H704 C700 0.950 . S
C705 C703 1.390 . S
C705 C706 1.387 . S
C705 H708 0.950 . S
C706 C705 1.387 . S
C706 C709 1.387 . S
H707 C703 0.950 . S
H708 C705 0.950 . S
C709 C700 1.390 . S
C709 H702 0.950 . S
C709 C706 1.387 . S
C710 C711 1.387 . S
C710 H714 0.950 . S
C710 C719 1.390 . S
C711 C710 1.387 . S
C711 C713 1.387 . S
H712 C719 0.950 . S
C713 C711 1.387 . S
C713 C715 1.390 . S
C713 H717 0.950 . S
H714 C710 0.950 . S
C715 C713 1.390 . S
C715 C716 1.387 . S
C715 H718 0.950 . S
C716 C715 1.387 . S
C716 C719 1.387 . S
H717 C713 0.950 . S
H718 C715 0.950 . S
C719 C710 1.390 . S
C719 H712 0.950 . S
C719 C716 1.387 . S
C720 C721 1.387 . S
C720 H724 0.950 . S
C720 C729 1.390 . S
C721 C720 1.387 . S
C721 C723 1.387 . S
H722 C729 0.950 . S
C723 C721 1.387 . S
C723 C725 1.390 . S
C723 H727 0.950 . S
H724 C720 0.950 . S
C725 C723 1.390 . S
C725 C726 1.387 . S
C725 H728 0.950 . S
C726 C725 1.387 . S
C726 C729 1.387 . S
H727 C723 0.950 . S
H728 C725 0.950 . S
C729 C720 1.390 . S
C729 H722 0.950 . S
C729 C726 1.387 . S
C730 C731 1.387 . S
C730 H734 0.950 . S
C730 C739 1.390 . S
C731 C730 1.387 . S
C731 C733 1.387 . S
H732 C739 0.950 . S
C733 C731 1.387 . S
C733 C735 1.390 . S
C733 H737 0.950 . S
H734 C730 0.950 . S
C735 C733 1.390 . S
C735 C736 1.387 . S
C735 H738 0.950 . S
C736 C735 1.387 . S
C736 C739 1.387 . S
H737 C733 0.950 . S
H738 C735 0.950 . S
C739 C730 1.390 . S
C739 H732 0.950 . S
C739 C736 1.387 . S
C740 C741 1.387 . S
C740 H744 0.950 . S
C740 C749 1.390 . S
C741 C740 1.387 . S
C741 C743 1.387 . S
H742 C749 0.950 . S
C743 C741 1.387 . S
C743 C745 1.390 . S
C743 H747 0.950 . S
H744 C740 0.950 . S
C745 C743 1.390 . S
C745 C746 1.387 . S
C745 H748 0.950 . S
C746 C745 1.387 . S
C746 C749 1.387 . S
H747 C743 0.950 . S
H748 C745 0.950 . S
C749 C740 1.390 . S
C749 H742 0.950 . S
C749 C746 1.387 . S
C750 C751 1.387 . S
C750 H754 0.950 . S
C750 C759 1.390 . S
C751 C750 1.387 . S
C751 C753 1.387 . S
H752 C759 0.950 . S
C753 C751 1.387 . S
C753 C755 1.390 . S
C753 H757 0.950 . S
H754 C750 0.950 . S
C755 C753 1.390 . S
C755 C756 1.387 . S
C755 H758 0.950 . S
C756 C755 1.387 . S
C756 C759 1.387 . S
H757 C753 0.950 . S
H758 C755 0.950 . S
C759 C750 1.390 . S
C759 H752 0.950 . S
C759 C756 1.387 . S
C760 C761 1.387 . S
C760 H764 0.950 . S
C760 C769 1.390 . S
C761 C760 1.387 . S
C761 C763 1.387 . S
H762 C769 0.950 . S
C763 C761 1.387 . S
C763 C765 1.390 . S
C763 H767 0.950 . S
H764 C760 0.950 . S
C765 C763 1.390 . S
C765 C766 1.387 . S
C765 H768 0.950 . S
C766 C765 1.387 . S
C766 C769 1.387 . S
H767 C763 0.950 . S
H768 C765 0.950 . S
C769 C760 1.390 . S
C769 H762 0.950 . S
C769 C766 1.387 . S
C770 C771 1.387 . S
C770 H774 0.950 . S
C770 C779 1.390 . S
C771 C770 1.387 . S
C771 C773 1.387 . S
H772 C779 0.950 . S
C773 C771 1.387 . S
C773 C775 1.390 . S
C773 H777 0.950 . S
H774 C770 0.950 . S
C775 C773 1.390 . S
C775 C776 1.387 . S
C775 H778 0.950 . S
C776 C775 1.387 . S
C776 C779 1.387 . S
H777 C773 0.950 . S
H778 C775 0.950 . S
C779 C770 1.390 . S
C779 H772 0.950 . S
C779 C776 1.387 . S
C780 C781 1.387 . S
C780 H784 0.950 . S
C780 C789 1.390 . S
C781 C780 1.387 . S
C781 C783 1.387 . S
H782 C789 0.950 . S
C783 C781 1.387 . S
C783 C785 1.390 . S
C783 H787 0.950 . S
H784 C780 0.950 . S
C785 C783 1.390 . S
C785 C786 1.387 . S
C785 H788 0.950 . S
C786 C785 1.387 . S
C786 C789 1.387 . S
H787 C783 0.950 . S
H788 C785 0.950 . S
C789 C780 1.390 . S
C789 H782 0.950 . S
C789 C786 1.387 . S
C790 C791 1.387 . S
C790 H794 0.950 . S
C790 C799 1.390 . S
C791 C790 1.387 . S
C791 C793 1.387 . S
H792 C799 0.950 . S
C793 C791 1.387 . S
C793 C795 1.390 . S
C793 H797 0.950 . S
H794 C790 0.950 . S
C795 C793 1.390 . S
C795 C796 1.387 . S
C795 H798 0.950 . S
C796 C795 1.387 . S
C796 C799 1.387 . S
H797 C793 0.950 . S
H798 C795 0.950 . S
C799 C790 1.390 . S
C799 H792 0.950 . S
C799 C796 1.387 . S
C321 C239 1.589 . S
C326 C9 1.589 . S
C331 C178 1.589 . S
C336 C28 1.589 . S
C341 C49 1.589 . S
C346 C199 1.589 . S
C351 C68 1.590 . S
C356 C218 1.590 . S
C361 C89 1.589 . S
C366 C119 1.589 1_554 S
C371 C138 1.589 1_556 S
C376 C108 1.589 . S
C381 C129 1.590 . S
C386 C159 1.590 1_554 S
C391 C98 1.590 1_556 S
C396 C148 1.590 . S
C401 C79 1.590 . S
C406 C169 1.590 . S
C411 C188 1.590 . S
C416 C18 1.590 . S
C421 C39 1.589 . S
C426 C209 1.589 . S
C431 C58 1.590 . S
C436 C228 1.590 . S
C441 C249 1.590 . S
C446 C279 1.590 . S
C451 C298 1.590 . S
C456 C268 1.590 . S
C461 C319 1.589 . S
C466 C289 1.590 . S
C471 C308 1.589 . S
C476 C258 1.589 . S
C481 C8 1.327 . S
C486 C88 1.327 . S
C491 C109 1.327 . S
C496 C29 1.327 . S
C501 C48 1.331 . S
C506 C128 1.331 . S
C511 C69 1.331 . S
C516 C149 1.331 . S
C521 C168 1.327 . S
C526 C248 1.327 . S
C531 C269 1.327 . S
C536 C189 1.327 . S
C541 C208 1.327 . S
C546 C288 1.327 . S
C551 C229 1.327 . S
C556 C309 1.327 . S
C561 C299 1.817 . S
C566 C19 1.817 1_556 S
C571 C38 1.819 1_554 S
C576 C318 1.819 . S
C581 C59 1.817 1_556 S
C586 C259 1.817 . S
C591 C78 1.819 1_554 S
C596 C278 1.819 . S
C601 C99 1.819 . S
C606 C219 1.819 . S
C611 C118 1.819 . S
C616 C238 1.819 . S
C621 C139 1.817 . S
C626 C179 1.817 . S
C631 C198 1.817 . S
C636 C158 1.817 . S
C641 C2 1.314 . S
C646 C1 1.314 . S
C651 C21 1.315 . S
C656 C22 1.315 . S
C661 C42 1.316 . S
C666 C41 1.316 . S
C671 C62 1.315 . S
C676 C61 1.315 . S
C681 C81 1.316 . S
C686 C82 1.316 . S
C691 C101 1.315 . S
C696 C102 1.315 . S
C701 C122 1.314 . S
C706 C121 1.314 . S
C711 C142 1.314 . S
C716 C141 1.314 . S
C721 C162 1.315 1_554 S
C726 C161 1.315 . S
C731 C182 1.315 . S
C736 C181 1.315 1_556 S
C741 C201 1.314 . S
C746 C202 1.314 1_554 S
C751 C221 1.314 1_556 S
C756 C222 1.314 . S
C761 C242 1.316 . S
C766 C241 1.316 1_554 S
C771 C262 1.315 1_556 S
C776 C261 1.315 . S
C781 C281 1.316 1_554 S
C786 C282 1.316 . S
C791 C301 1.315 . S
C796 C302 1.315 1_556 S
