# Generated by pormake.
# Topology dei, (4)-cn, num edge types: 1
# Building blocks:
#     Node 0, Type 0, BuildingBlock: GALJAG_clean_sbu_0, # of connection points: 4
#     Node 1, Type 0, BuildingBlock: GALJAG_clean_sbu_0, # of connection points: 4
#     Node 2, Type 0, BuildingBlock: GALJAG_clean_sbu_0, # of connection points: 4
#     Node 3, Type 0, BuildingBlock: GALJAG_clean_sbu_0, # of connection points: 4
#     Node 4, Type 0, BuildingBlock: GALJAG_clean_sbu_0, # of connection points: 4
#     Node 5, Type 0, BuildingBlock: GALJAG_clean_sbu_0, # of connection points: 4
#     Node 6, Type 0, BuildingBlock: GALJAG_clean_sbu_0, # of connection points: 4
#     Node 7, Type 0, BuildingBlock: GALJAG_clean_sbu_0, # of connection points: 4
#     Node 8, Type 0, BuildingBlock: GALJAG_clean_sbu_0, # of connection points: 4
#     Node 9, Type 0, BuildingBlock: GALJAG_clean_sbu_0, # of connection points: 4
#     Node 10, Type 0, BuildingBlock: GALJAG_clean_sbu_0, # of connection points: 4
#     Node 11, Type 0, BuildingBlock: GALJAG_clean_sbu_0, # of connection points: 4
#     Node 12, Type 0, BuildingBlock: GALJAG_clean_sbu_0, # of connection points: 4
#     Node 13, Type 0, BuildingBlock: GALJAG_clean_sbu_0, # of connection points: 4
#     Node 14, Type 0, BuildingBlock: GALJAG_clean_sbu_0, # of connection points: 4
#     Node 15, Type 0, BuildingBlock: GALJAG_clean_sbu_0, # of connection points: 4
#     Node 16, Type 0, BuildingBlock: GALJAG_clean_sbu_0, # of connection points: 4
#     Node 17, Type 0, BuildingBlock: GALJAG_clean_sbu_0, # of connection points: 4
#     Node 18, Type 0, BuildingBlock: GALJAG_clean_sbu_0, # of connection points: 4
#     Node 19, Type 0, BuildingBlock: GALJAG_clean_sbu_0, # of connection points: 4
#     Node 20, Type 0, BuildingBlock: GALJAG_clean_sbu_0, # of connection points: 4
#     Node 21, Type 0, BuildingBlock: GALJAG_clean_sbu_0, # of connection points: 4
#     Node 22, Type 0, BuildingBlock: GALJAG_clean_sbu_0, # of connection points: 4
#     Node 23, Type 0, BuildingBlock: GALJAG_clean_sbu_0, # of connection points: 4
#     Node 24, Type 0, BuildingBlock: GALJAG_clean_sbu_0, # of connection points: 4
#     Node 25, Type 0, BuildingBlock: GALJAG_clean_sbu_0, # of connection points: 4
#     Node 26, Type 0, BuildingBlock: GALJAG_clean_sbu_0, # of connection points: 4
#     Node 27, Type 0, BuildingBlock: GALJAG_clean_sbu_0, # of connection points: 4
#     Node 28, Type 0, BuildingBlock: GALJAG_clean_sbu_0, # of connection points: 4
#     Node 29, Type 0, BuildingBlock: GALJAG_clean_sbu_0, # of connection points: 4
#     Node 30, Type 0, BuildingBlock: GALJAG_clean_sbu_0, # of connection points: 4
#     Node 31, Type 0, BuildingBlock: GALJAG_clean_sbu_0, # of connection points: 4
#     Edge 32, Type (0, 0), BuildingBlock: MIFKUJ_clean_linker_0, # of connection points: 2
#     Edge 33, Type (0, 0), BuildingBlock: MIFKUJ_clean_linker_0, # of connection points: 2
#     Edge 34, Type (0, 0), BuildingBlock: MIFKUJ_clean_linker_0, # of connection points: 2
#     Edge 35, Type (0, 0), BuildingBlock: MIFKUJ_clean_linker_0, # of connection points: 2
#     Edge 36, Type (0, 0), BuildingBlock: MIFKUJ_clean_linker_0, # of connection points: 2
#     Edge 37, Type (0, 0), BuildingBlock: MIFKUJ_clean_linker_0, # of connection points: 2
#     Edge 38, Type (0, 0), BuildingBlock: MIFKUJ_clean_linker_0, # of connection points: 2
#     Edge 39, Type (0, 0), BuildingBlock: MIFKUJ_clean_linker_0, # of connection points: 2
#     Edge 40, Type (0, 0), BuildingBlock: MIFKUJ_clean_linker_0, # of connection points: 2
#     Edge 41, Type (0, 0), BuildingBlock: MIFKUJ_clean_linker_0, # of connection points: 2
#     Edge 42, Type (0, 0), BuildingBlock: MIFKUJ_clean_linker_0, # of connection points: 2
#     Edge 43, Type (0, 0), BuildingBlock: MIFKUJ_clean_linker_0, # of connection points: 2
#     Edge 44, Type (0, 0), BuildingBlock: MIFKUJ_clean_linker_0, # of connection points: 2
#     Edge 45, Type (0, 0), BuildingBlock: MIFKUJ_clean_linker_0, # of connection points: 2
#     Edge 46, Type (0, 0), BuildingBlock: MIFKUJ_clean_linker_0, # of connection points: 2
#     Edge 47, Type (0, 0), BuildingBlock: MIFKUJ_clean_linker_0, # of connection points: 2
#     Edge 48, Type (0, 0), BuildingBlock: MIFKUJ_clean_linker_0, # of connection points: 2
#     Edge 49, Type (0, 0), BuildingBlock: MIFKUJ_clean_linker_0, # of connection points: 2
#     Edge 50, Type (0, 0), BuildingBlock: MIFKUJ_clean_linker_0, # of connection points: 2
#     Edge 51, Type (0, 0), BuildingBlock: MIFKUJ_clean_linker_0, # of connection points: 2
#     Edge 52, Type (0, 0), BuildingBlock: MIFKUJ_clean_linker_0, # of connection points: 2
#     Edge 53, Type (0, 0), BuildingBlock: MIFKUJ_clean_linker_0, # of connection points: 2
#     Edge 54, Type (0, 0), BuildingBlock: MIFKUJ_clean_linker_0, # of connection points: 2
#     Edge 55, Type (0, 0), BuildingBlock: MIFKUJ_clean_linker_0, # of connection points: 2
#     Edge 56, Type (0, 0), BuildingBlock: MIFKUJ_clean_linker_0, # of connection points: 2
#     Edge 57, Type (0, 0), BuildingBlock: MIFKUJ_clean_linker_0, # of connection points: 2
#     Edge 58, Type (0, 0), BuildingBlock: MIFKUJ_clean_linker_0, # of connection points: 2
#     Edge 59, Type (0, 0), BuildingBlock: MIFKUJ_clean_linker_0, # of connection points: 2
#     Edge 60, Type (0, 0), BuildingBlock: MIFKUJ_clean_linker_0, # of connection points: 2
#     Edge 61, Type (0, 0), BuildingBlock: MIFKUJ_clean_linker_0, # of connection points: 2
#     Edge 62, Type (0, 0), BuildingBlock: MIFKUJ_clean_linker_0, # of connection points: 2
#     Edge 63, Type (0, 0), BuildingBlock: MIFKUJ_clean_linker_0, # of connection points: 2
#     Edge 64, Type (0, 0), BuildingBlock: MIFKUJ_clean_linker_0, # of connection points: 2
#     Edge 65, Type (0, 0), BuildingBlock: MIFKUJ_clean_linker_0, # of connection points: 2
#     Edge 66, Type (0, 0), BuildingBlock: MIFKUJ_clean_linker_0, # of connection points: 2
#     Edge 67, Type (0, 0), BuildingBlock: MIFKUJ_clean_linker_0, # of connection points: 2
#     Edge 68, Type (0, 0), BuildingBlock: MIFKUJ_clean_linker_0, # of connection points: 2
#     Edge 69, Type (0, 0), BuildingBlock: MIFKUJ_clean_linker_0, # of connection points: 2
#     Edge 70, Type (0, 0), BuildingBlock: MIFKUJ_clean_linker_0, # of connection points: 2
#     Edge 71, Type (0, 0), BuildingBlock: MIFKUJ_clean_linker_0, # of connection points: 2
#     Edge 72, Type (0, 0), BuildingBlock: MIFKUJ_clean_linker_0, # of connection points: 2
#     Edge 73, Type (0, 0), BuildingBlock: MIFKUJ_clean_linker_0, # of connection points: 2
#     Edge 74, Type (0, 0), BuildingBlock: MIFKUJ_clean_linker_0, # of connection points: 2
#     Edge 75, Type (0, 0), BuildingBlock: MIFKUJ_clean_linker_0, # of connection points: 2
#     Edge 76, Type (0, 0), BuildingBlock: MIFKUJ_clean_linker_0, # of connection points: 2
#     Edge 77, Type (0, 0), BuildingBlock: MIFKUJ_clean_linker_0, # of connection points: 2
#     Edge 78, Type (0, 0), BuildingBlock: MIFKUJ_clean_linker_0, # of connection points: 2
#     Edge 79, Type (0, 0), BuildingBlock: MIFKUJ_clean_linker_0, # of connection points: 2
#     Edge 80, Type (0, 0), BuildingBlock: MIFKUJ_clean_linker_0, # of connection points: 2
#     Edge 81, Type (0, 0), BuildingBlock: MIFKUJ_clean_linker_0, # of connection points: 2
#     Edge 82, Type (0, 0), BuildingBlock: MIFKUJ_clean_linker_0, # of connection points: 2
#     Edge 83, Type (0, 0), BuildingBlock: MIFKUJ_clean_linker_0, # of connection points: 2
#     Edge 84, Type (0, 0), BuildingBlock: MIFKUJ_clean_linker_0, # of connection points: 2
#     Edge 85, Type (0, 0), BuildingBlock: MIFKUJ_clean_linker_0, # of connection points: 2
#     Edge 86, Type (0, 0), BuildingBlock: MIFKUJ_clean_linker_0, # of connection points: 2
#     Edge 87, Type (0, 0), BuildingBlock: MIFKUJ_clean_linker_0, # of connection points: 2
#     Edge 88, Type (0, 0), BuildingBlock: MIFKUJ_clean_linker_0, # of connection points: 2
#     Edge 89, Type (0, 0), BuildingBlock: MIFKUJ_clean_linker_0, # of connection points: 2
#     Edge 90, Type (0, 0), BuildingBlock: MIFKUJ_clean_linker_0, # of connection points: 2
#     Edge 91, Type (0, 0), BuildingBlock: MIFKUJ_clean_linker_0, # of connection points: 2
#     Edge 92, Type (0, 0), BuildingBlock: MIFKUJ_clean_linker_0, # of connection points: 2
#     Edge 93, Type (0, 0), BuildingBlock: MIFKUJ_clean_linker_0, # of connection points: 2
#     Edge 94, Type (0, 0), BuildingBlock: MIFKUJ_clean_linker_0, # of connection points: 2
#     Edge 95, Type (0, 0), BuildingBlock: MIFKUJ_clean_linker_0, # of connection points: 2
# Relax obj value: 0.293
# Max RMSD: 0.107
# Mean RMSD: 0.107
data_MOF--net-dei--node1-GALJAG_clean_sbu_0--edge1-MIFKUJ_clean_linker_0
_symmetry_space_group_name_H-M    P1
_symmetry_Int_Tables_number       1
_symmetry_cell_setting            triclinic
loop_
_symmetry_equiv_pos_as_xyz
'x, y, z'
_cell_length_a     74.551509
_cell_length_b     74.576066
_cell_length_c     105.91535
_cell_angle_alpha  90.009473
_cell_angle_beta   90.023712
_cell_angle_gamma 90.008315
loop_
_atom_site_label
_atom_site_type_symbol
_atom_site_fract_x
_atom_site_fract_y
_atom_site_fract_z
_atom_type_partial_charge
In0 In 0.13203 0.62221 0.03399 0.0
O1 O 0.1475 0.60433 0.01964 0.0
O2 O 0.13679 0.59228 0.03604 0.0
C3 C 0.14235 0.65571 0.02649 0.0
C4 C 0.09722 0.61777 0.0279 0.0
C5 C 0.13596 0.62443 0.05928 0.0
O6 O 0.15291 0.6451 0.03205 0.0
O7 O 0.12714 0.64913 0.02426 0.0
O8 O 0.12115 0.62663 0.05374 0.0
O9 O 0.1491 0.62149 0.05203 0.0
C10 C 0.145 0.59004 0.02581 0.0
O11 O 0.10274 0.61904 0.03913 0.0
O12 O 0.10931 0.6189 0.01958 0.0
In13 In 0.63289 0.88889 0.28013 0.0
O14 O 0.64818 0.88886 0.29874 0.0
O15 O 0.62023 0.89437 0.29946 0.0
C16 C 0.63784 0.85315 0.27738 0.0
C17 C 0.59894 0.89801 0.27304 0.0
C18 C 0.66085 0.90591 0.26859 0.0
O19 O 0.63915 0.86108 0.28782 0.0
O20 O 0.63414 0.86323 0.26818 0.0
O21 O 0.65182 0.8938 0.26327 0.0
O22 O 0.65489 0.91044 0.27924 0.0
C23 C 0.63471 0.89238 0.30551 0.0
O24 O 0.61038 0.90971 0.27619 0.0
O25 O 0.60485 0.88221 0.2731 0.0
In26 In 0.37453 0.38279 0.53157 0.0
O27 O 0.40204 0.39554 0.53362 0.0
O28 O 0.39921 0.37515 0.51977 0.0
C29 C 0.37289 0.3883 0.55669 0.0
C30 C 0.35903 0.41142 0.51987 0.0
C31 C 0.36276 0.34832 0.52846 0.0
O32 O 0.38715 0.38406 0.551 0.0
O33 O 0.35921 0.3898 0.54968 0.0
O34 O 0.35917 0.36045 0.52055 0.0
O35 O 0.37172 0.3537 0.53776 0.0
C36 C 0.40946 0.38624 0.52518 0.0
O37 O 0.37098 0.40192 0.51477 0.0
O38 O 0.35401 0.40581 0.53053 0.0
In39 In 0.87621 0.121 0.78388 0.0
O40 O 0.87849 0.13413 0.80323 0.0
O41 O 0.87142 0.10649 0.80259 0.0
C42 C 0.87436 0.1567 0.77948 0.0
C43 C 0.9087 0.10638 0.77787 0.0
C44 C 0.84691 0.10613 0.77246 0.0
O45 O 0.86103 0.14759 0.78301 0.0
O46 O 0.88863 0.14783 0.77816 0.0
O47 O 0.85925 0.11374 0.76634 0.0
O48 O 0.84991 0.10506 0.78412 0.0
C49 C 0.8744 0.12017 0.80932 0.0
O50 O 0.89907 0.1144 0.76988 0.0
O51 O 0.90144 0.10473 0.78852 0.0
In52 In 0.13221 0.38233 0.96466 0.0
O53 O 0.1052 0.39516 0.96055 0.0
O54 O 0.10672 0.37748 0.97624 0.0
C55 C 0.13833 0.38605 0.93971 0.0
C56 C 0.14639 0.4107 0.97747 0.0
C57 C 0.14068 0.34705 0.9681 0.0
O58 O 0.12283 0.38542 0.94446 0.0
O59 O 0.15104 0.38485 0.94758 0.0
O60 O 0.14965 0.35939 0.97332 0.0
O61 O 0.12789 0.35261 0.96144 0.0
C62 C 0.09704 0.38755 0.96949 0.0
O63 O 0.14981 0.40749 0.96605 0.0
O64 O 0.13677 0.39895 0.98271 0.0
In65 In 0.87096 0.88448 0.21753 0.0
O66 O 0.89369 0.9018 0.22654 0.0
O67 O 0.90062 0.88112 0.21375 0.0
C68 C 0.8426 0.90259 0.22747 0.0
C69 C 0.86874 0.88589 0.19216 0.0
C70 C 0.86462 0.85081 0.22594 0.0
O71 O 0.85443 0.89538 0.23435 0.0
O72 O 0.84588 0.90176 0.21583 0.0
O73 O 0.85499 0.85843 0.21778 0.0
O74 O 0.87735 0.86026 0.23008 0.0
C75 C 0.90609 0.89341 0.2209 0.0
O76 O 0.86906 0.87135 0.19826 0.0
O77 O 0.86962 0.89991 0.19887 0.0
In78 In 0.37156 0.62262 0.46895 0.0
O79 O 0.37058 0.60292 0.48553 0.0
O80 O 0.34938 0.60151 0.47237 0.0
C81 C 0.36174 0.65755 0.4719 0.0
C82 C 0.40732 0.62283 0.47327 0.0
C83 C 0.36636 0.6144 0.44442 0.0
O84 O 0.35797 0.64577 0.48006 0.0
O85 O 0.37003 0.65165 0.46243 0.0
O86 O 0.3794 0.60845 0.45078 0.0
O87 O 0.35563 0.62429 0.45051 0.0
C88 C 0.35665 0.59481 0.48202 0.0
O89 O 0.40023 0.61517 0.46392 0.0
O90 O 0.39638 0.63066 0.48049 0.0
In91 In 0.63488 0.12156 0.71659 0.0
O92 O 0.61278 0.10044 0.72091 0.0
O93 O 0.60735 0.12775 0.72468 0.0
C94 C 0.6669 0.10858 0.72495 0.0
C95 C 0.63104 0.11621 0.69152 0.0
C96 C 0.64068 0.15633 0.72218 0.0
O97 O 0.65279 0.10735 0.73151 0.0
O98 O 0.66455 0.11556 0.71427 0.0
O99 O 0.64116 0.15025 0.71107 0.0
O100 O 0.63735 0.14481 0.7306 0.0
C101 C 0.60146 0.11195 0.72453 0.0
O102 O 0.62727 0.13082 0.69689 0.0
O103 O 0.6365 0.104 0.69885 0.0
In104 In 0.86915 0.38147 0.96688 0.0
O105 O 0.87611 0.37013 0.94755 0.0
O106 O 0.85203 0.38528 0.94919 0.0
C107 C 0.9049 0.38567 0.96991 0.0
C108 C 0.85754 0.34917 0.97573 0.0
C109 C 0.85705 0.41347 0.97606 0.0
O110 O 0.897 0.38843 0.95957 0.0
O111 O 0.89478 0.38081 0.97881 0.0
O112 O 0.85573 0.39913 0.98234 0.0
O113 O 0.8638 0.41142 0.96529 0.0
C114 C 0.86255 0.37665 0.94207 0.0
O115 O 0.84767 0.35931 0.96918 0.0
O116 O 0.87264 0.35575 0.97834 0.0
In117 In 0.37545 0.12047 0.71569 0.0
O118 O 0.36128 0.1244 0.6969 0.0
O119 O 0.38306 0.10598 0.69738 0.0
C120 C 0.3719 0.15637 0.71801 0.0
C121 C 0.41003 0.11285 0.72221 0.0
C122 C 0.34708 0.10577 0.72826 0.0
O123 O 0.37502 0.14875 0.70761 0.0
O124 O 0.37051 0.14588 0.72731 0.0
O125 O 0.35843 0.11583 0.73351 0.0
O126 O 0.35078 0.10201 0.71697 0.0
C127 C 0.37108 0.11361 0.69085 0.0
O128 O 0.39815 0.10077 0.72169 0.0
O129 O 0.40431 0.12831 0.71978 0.0
In130 In 0.63274 0.62163 0.46864 0.0
O131 O 0.62043 0.62372 0.44909 0.0
O132 O 0.6489 0.62353 0.45026 0.0
C133 C 0.5979 0.61756 0.47477 0.0
C134 C 0.64388 0.65527 0.47497 0.0
C135 C 0.64664 0.59053 0.47817 0.0
O136 O 0.6043 0.61276 0.46427 0.0
O137 O 0.60917 0.6242 0.48235 0.0
O138 O 0.64366 0.60406 0.485 0.0
O139 O 0.64349 0.59305 0.46666 0.0
C140 C 0.63517 0.62405 0.44326 0.0
O141 O 0.65471 0.64329 0.47138 0.0
O142 O 0.62786 0.6501 0.4757 0.0
In143 In 0.13253 0.8813 0.21739 0.0
O144 O 0.14771 0.8765 0.19915 0.0
O145 O 0.1287 0.89778 0.19936 0.0
C146 C 0.13476 0.84536 0.22003 0.0
C147 C 0.09733 0.88894 0.2222 0.0
C148 C 0.16077 0.89573 0.23019 0.0
O149 O 0.13386 0.85307 0.20946 0.0
O150 O 0.1346 0.85579 0.22942 0.0
O151 O 0.15506 0.90208 0.21992 0.0
O152 O 0.15148 0.88297 0.23444 0.0
C153 C 0.13995 0.88879 0.19305 0.0
O154 O 0.10985 0.89816 0.22698 0.0
O155 O 0.10268 0.87632 0.21532 0.0
In156 In 0.873 0.62394 0.03131 0.0
O157 O 0.85292 0.64681 0.02654 0.0
O158 O 0.8807 0.65264 0.02641 0.0
C159 C 0.85683 0.59421 0.0214 0.0
C160 C 0.8692 0.62263 0.05665 0.0
C161 C 0.90804 0.61932 0.02583 0.0
O162 O 0.86286 0.60667 0.01457 0.0
O163 O 0.85787 0.59735 0.03303 0.0
O164 O 0.90222 0.62129 0.03692 0.0
O165 O 0.89616 0.61979 0.01734 0.0
C166 C 0.865 0.65851 0.02503 0.0
O167 O 0.88146 0.61449 0.05077 0.0
O168 O 0.85861 0.63152 0.04972 0.0
In169 In 0.13344 0.12525 0.78224 0.0
O170 O 0.11086 0.11502 0.76896 0.0
O171 O 0.10659 0.1141 0.78871 0.0
C172 C 0.16578 0.1163 0.77214 0.0
C173 C 0.14118 0.11722 0.80638 0.0
C174 C 0.12647 0.16012 0.77727 0.0
O175 O 0.15188 0.1071 0.76987 0.0
O176 O 0.16307 0.12972 0.77906 0.0
O177 O 0.12624 0.15358 0.78823 0.0
O178 O 0.13009 0.14902 0.76865 0.0
C179 C 0.10017 0.11148 0.77788 0.0
O180 O 0.14132 0.13304 0.80212 0.0
O181 O 0.13717 0.10523 0.7984 0.0
In182 In 0.63464 0.37771 0.53244 0.0
O183 O 0.62445 0.36855 0.55161 0.0
O184 O 0.6499 0.3815 0.55095 0.0
C185 C 0.59965 0.38227 0.52675 0.0
C186 C 0.64686 0.34496 0.52485 0.0
C187 C 0.64765 0.40964 0.52385 0.0
O188 O 0.60581 0.38415 0.53775 0.0
O189 O 0.61114 0.37807 0.51852 0.0
O190 O 0.64892 0.39545 0.51741 0.0
O191 O 0.64064 0.40743 0.53452 0.0
C192 C 0.63778 0.37447 0.55768 0.0
O193 O 0.65643 0.35558 0.53125 0.0
O194 O 0.63176 0.3512 0.52188 0.0
In195 In 0.37568 0.88207 0.28031 0.0
O196 O 0.39729 0.90414 0.27776 0.0
O197 O 0.40218 0.87864 0.26978 0.0
C198 C 0.34275 0.89271 0.27204 0.0
C199 C 0.37785 0.88769 0.30547 0.0
C200 C 0.37288 0.84681 0.27518 0.0
O201 O 0.35698 0.89822 0.26682 0.0
O202 O 0.34536 0.88247 0.28129 0.0
O203 O 0.37394 0.85296 0.28625 0.0
O204 O 0.37343 0.85848 0.26654 0.0
C205 C 0.40815 0.89411 0.27195 0.0
O206 O 0.38474 0.8743 0.30006 0.0
O207 O 0.37022 0.89865 0.29813 0.0
In208 In 0.63493 0.12255 0.53081 0.0
O209 O 0.60738 0.11068 0.53515 0.0
O210 O 0.60835 0.13462 0.52432 0.0
C211 C 0.63731 0.12051 0.55624 0.0
C212 C 0.646 0.09314 0.51761 0.0
C213 C 0.65046 0.15388 0.5232 0.0
O214 O 0.62852 0.13255 0.55062 0.0
O215 O 0.64524 0.1096 0.54904 0.0
O216 O 0.65529 0.14567 0.53302 0.0
O217 O 0.63892 0.14562 0.51676 0.0
C218 C 0.59874 0.12271 0.52939 0.0
O219 O 0.65537 0.10011 0.52623 0.0
O220 O 0.63183 0.10163 0.51518 0.0
In221 In 0.13084 0.38532 0.78059 0.0
O222 O 0.14097 0.37413 0.79918 0.0
O223 O 0.13662 0.40232 0.79814 0.0
C224 C 0.12451 0.35019 0.7763 0.0
C225 C 0.09743 0.39955 0.77694 0.0
C226 C 0.16161 0.39539 0.76852 0.0
O227 O 0.12748 0.35655 0.78714 0.0
O228 O 0.12466 0.36159 0.76749 0.0
O229 O 0.15362 0.38083 0.76644 0.0
O230 O 0.15367 0.40547 0.77626 0.0
C231 C 0.14124 0.38904 0.80483 0.0
O232 O 0.10904 0.39926 0.76828 0.0
O233 O 0.10292 0.39341 0.78728 0.0
In234 In 0.87213 0.88158 0.03196 0.0
O235 O 0.85435 0.90033 0.01958 0.0
O236 O 0.87512 0.91171 0.03064 0.0
C237 C 0.85966 0.84996 0.02244 0.0
C238 C 0.90808 0.88164 0.02905 0.0
C239 C 0.86464 0.88081 0.05691 0.0
O240 O 0.85079 0.8592 0.03022 0.0
O241 O 0.87393 0.85735 0.01879 0.0
O242 O 0.87579 0.87038 0.05179 0.0
O243 O 0.85689 0.89143 0.0494 0.0
C244 C 0.86253 0.91441 0.02297 0.0
O245 O 0.90055 0.87987 0.03964 0.0
O246 O 0.89746 0.8833 0.01983 0.0
In247 In 0.3687 0.62284 0.28458 0.0
O248 O 0.39181 0.60351 0.27885 0.0
O249 O 0.39757 0.63116 0.28096 0.0
C250 C 0.33753 0.60853 0.27554 0.0
C251 C 0.36846 0.61628 0.30965 0.0
C252 C 0.36459 0.65752 0.27807 0.0
O253 O 0.35176 0.60858 0.26904 0.0
O254 O 0.33941 0.61492 0.28643 0.0
O255 O 0.36555 0.65221 0.28935 0.0
O256 O 0.36569 0.64525 0.26986 0.0
C257 C 0.40355 0.61576 0.27853 0.0
O258 O 0.3642 0.63116 0.30488 0.0
O259 O 0.37315 0.60446 0.30175 0.0
In260 In 0.63362 0.87748 0.46627 0.0
O261 O 0.6053 0.86813 0.46214 0.0
O262 O 0.61 0.88069 0.47988 0.0
C263 C 0.63639 0.87923 0.44088 0.0
C264 C 0.64318 0.91084 0.47442 0.0
C265 C 0.6482 0.84566 0.47386 0.0
O266 O 0.62172 0.87693 0.44658 0.0
O267 O 0.64995 0.88053 0.448 0.0
O268 O 0.65432 0.85454 0.4647 0.0
O269 O 0.63567 0.85339 0.47967 0.0
C270 C 0.59883 0.87346 0.47249 0.0
O271 O 0.65071 0.89688 0.47865 0.0
O272 O 0.63142 0.9078 0.4662 0.0
In273 In 0.37694 0.3843 0.71618 0.0
O274 O 0.39903 0.40575 0.71889 0.0
O275 O 0.40206 0.38104 0.7284 0.0
C276 C 0.34406 0.39382 0.72513 0.0
C277 C 0.37844 0.39306 0.69147 0.0
C278 C 0.37523 0.34832 0.71857 0.0
O279 O 0.35834 0.39947 0.73024 0.0
O280 O 0.34659 0.38393 0.71568 0.0
O281 O 0.37778 0.35605 0.70814 0.0
O282 O 0.37371 0.35873 0.72791 0.0
C283 C 0.40889 0.396 0.72572 0.0
O284 O 0.38732 0.38032 0.69619 0.0
O285 O 0.36906 0.40177 0.69928 0.0
In286 In 0.86827 0.12627 0.97027 0.0
O287 O 0.89559 0.11604 0.9637 0.0
O288 O 0.89515 0.13485 0.97874 0.0
C289 C 0.86524 0.12547 0.94485 0.0
C290 C 0.85614 0.09677 0.98295 0.0
C291 C 0.85387 0.15803 0.97817 0.0
O292 O 0.87273 0.13819 0.9507 0.0
O293 O 0.8591 0.11319 0.95184 0.0
O294 O 0.84756 0.14926 0.96901 0.0
O295 O 0.86646 0.15018 0.98383 0.0
C296 C 0.90449 0.12516 0.97153 0.0
O297 O 0.84673 0.10479 0.97482 0.0
O298 O 0.87094 0.10421 0.98514 0.0
In299 In 0.12864 0.61714 0.21968 0.0
O300 O 0.10562 0.59655 0.22272 0.0
O301 O 0.10168 0.62322 0.22885 0.0
C302 C 0.1569 0.60076 0.23133 0.0
C303 C 0.13279 0.61323 0.19451 0.0
C304 C 0.1316 0.65319 0.22148 0.0
O305 O 0.14636 0.6112 0.23702 0.0
O306 O 0.15234 0.59746 0.22012 0.0
O307 O 0.12495 0.64542 0.21201 0.0
O308 O 0.13676 0.64279 0.23014 0.0
C309 C 0.09498 0.60787 0.22748 0.0
O310 O 0.1446 0.62022 0.20149 0.0
O311 O 0.11892 0.60791 0.20025 0.0
In312 In 0.3739 0.8811 0.46604 0.0
O313 O 0.38332 0.87507 0.44615 0.0
O314 O 0.35937 0.89036 0.44807 0.0
C315 C 0.40897 0.87774 0.47203 0.0
C316 C 0.35847 0.84931 0.47285 0.0
C317 C 0.36399 0.9142 0.47433 0.0
O318 O 0.40286 0.87506 0.4611 0.0
O319 O 0.39735 0.88214 0.48012 0.0
O320 O 0.35526 0.90027 0.4773 0.0
O321 O 0.37736 0.91126 0.46738 0.0
C322 C 0.3707 0.88328 0.44071 0.0
O323 O 0.36892 0.85784 0.48001 0.0
O324 O 0.3547 0.85747 0.4628 0.0
In325 In 0.87028 0.62573 0.21795 0.0
O326 O 0.86384 0.6368 0.1985 0.0
O327 O 0.87605 0.6111 0.19927 0.0
C328 C 0.86933 0.66077 0.2242 0.0
C329 C 0.90331 0.6145 0.22583 0.0
C330 C 0.8387 0.61134 0.2262 0.0
O331 O 0.87755 0.65487 0.21465 0.0
O332 O 0.86166 0.64891 0.2308 0.0
O333 O 0.85273 0.611 0.23291 0.0
O334 O 0.84098 0.61806 0.21544 0.0
C335 C 0.86969 0.62348 0.19246 0.0
O336 O 0.89247 0.60409 0.2203 0.0
O337 O 0.89707 0.62989 0.22792 0.0
In338 In 0.1326 0.12049 0.9651 0.0
O339 O 0.14962 0.14356 0.97383 0.0
O340 O 0.12808 0.15012 0.96163 0.0
C341 C 0.14764 0.09263 0.97802 0.0
C342 C 0.13969 0.11412 0.94056 0.0
C343 C 0.09681 0.11854 0.96889 0.0
O344 O 0.13589 0.10272 0.98278 0.0
O345 O 0.15272 0.09739 0.96721 0.0
O346 O 0.10435 0.11309 0.95896 0.0
O347 O 0.10737 0.12481 0.9771 0.0
C348 C 0.14066 0.1558 0.96847 0.0
O349 O 0.12701 0.10663 0.94643 0.0
O350 O 0.14904 0.12479 0.9471 0.0
In351 In 0.63213 0.38129 0.71799 0.0
O352 O 0.62122 0.37332 0.69873 0.0
O353 O 0.6375 0.39669 0.69968 0.0
C354 C 0.63664 0.34609 0.72296 0.0
C355 C 0.59965 0.39309 0.72642 0.0
C356 C 0.66439 0.39386 0.72627 0.0
O357 O 0.6362 0.35241 0.71193 0.0
O358 O 0.63466 0.35755 0.73163 0.0
O359 O 0.64993 0.3976 0.73194 0.0
O360 O 0.66232 0.38441 0.71656 0.0
C361 C 0.62868 0.38598 0.69283 0.0
O362 O 0.61021 0.40303 0.72026 0.0
O363 O 0.60592 0.37781 0.72888 0.0
In364 In 0.3704 0.12252 0.53104 0.0
O365 O 0.38016 0.11215 0.54991 0.0
O366 O 0.35331 0.1217 0.54908 0.0
C367 C 0.40625 0.12189 0.52731 0.0
C368 C 0.36019 0.15734 0.528 0.0
C369 C 0.35597 0.09517 0.51727 0.0
O370 O 0.398 0.1102 0.53362 0.0
O371 O 0.39639 0.13391 0.52261 0.0
O372 O 0.36899 0.1045 0.51351 0.0
O373 O 0.34927 0.10049 0.52754 0.0
C374 C 0.36574 0.11511 0.55575 0.0
O375 O 0.35691 0.14555 0.51972 0.0
O376 O 0.36809 0.15142 0.53764 0.0
In377 In 0.62994 0.6253 0.28263 0.0
O378 O 0.60712 0.60551 0.27706 0.0
O379 O 0.60087 0.63304 0.27914 0.0
C380 C 0.65774 0.60899 0.27034 0.0
C381 C 0.63348 0.62015 0.30776 0.0
C382 C 0.63428 0.66101 0.27957 0.0
O383 O 0.64784 0.62056 0.26519 0.0
O384 O 0.65275 0.60462 0.28127 0.0
O385 O 0.63557 0.65332 0.29011 0.0
O386 O 0.63084 0.65069 0.27043 0.0
C387 C 0.59514 0.61752 0.2768 0.0
O388 O 0.64508 0.62817 0.30118 0.0
O389 O 0.6201 0.61443 0.30164 0.0
In390 In 0.13569 0.88076 0.03271 0.0
O391 O 0.15617 0.85743 0.03212 0.0
O392 O 0.13234 0.85482 0.02145 0.0
C393 C 0.14964 0.91205 0.02354 0.0
C394 C 0.13974 0.88285 0.05796 0.0
C395 C 0.09995 0.88053 0.02876 0.0
O396 O 0.14904 0.898 0.0169 0.0
O397 O 0.14406 0.90991 0.03461 0.0
O398 O 0.10721 0.87383 0.03843 0.0
O399 O 0.11076 0.88723 0.02089 0.0
C400 C 0.14666 0.84756 0.02512 0.0
O401 O 0.12605 0.88852 0.05221 0.0
O402 O 0.15154 0.87578 0.05098 0.0
In403 In 0.87431 0.38427 0.78176 0.0
O404 O 0.89669 0.39436 0.76829 0.0
O405 O 0.90025 0.39822 0.78785 0.0
C406 C 0.84541 0.39913 0.76993 0.0
C407 C 0.86991 0.38333 0.80706 0.0
C408 C 0.87284 0.34875 0.77678 0.0
O409 O 0.85527 0.38748 0.76482 0.0
O410 O 0.85083 0.40421 0.78062 0.0
O411 O 0.85992 0.35735 0.78149 0.0
O412 O 0.88655 0.3581 0.77442 0.0
C413 C 0.90691 0.3997 0.777 0.0
O414 O 0.87754 0.37095 0.80096 0.0
O415 O 0.86463 0.39638 0.80041 0.0
H416 H 0.16311 0.61842 0.18059 0.0
H417 H 0.16575 0.61931 0.15759 0.0
H418 H 0.10912 0.60826 0.15414 0.0
H419 H 0.10659 0.60664 0.17713 0.0
H420 H 0.12612 0.59051 0.13696 0.0
H421 H 0.12755 0.65163 0.15118 0.0
H422 H 0.13857 0.67727 0.16369 0.0
H423 H 0.19046 0.67233 0.14646 0.0
H424 H 0.17982 0.64648 0.13397 0.0
H425 H 0.10856 0.62489 0.07619 0.0
H426 H 0.11039 0.62232 0.09914 0.0
H427 H 0.16812 0.62079 0.09694 0.0
H428 H 0.16641 0.62315 0.07382 0.0
H429 H 0.15299 0.64409 0.1166 0.0
H430 H 0.1494 0.58342 0.10125 0.0
H431 H 0.13653 0.55889 0.08853 0.0
H432 H 0.08624 0.56462 0.10786 0.0
H433 H 0.09873 0.58938 0.12057 0.0
C434 C 0.15126 0.61603 0.17491 0.0
C435 C 0.13462 0.61254 0.18064 0.0
C436 C 0.15276 0.61666 0.16177 0.0
C437 C 0.13757 0.61423 0.15411 0.0
C438 C 0.12104 0.61023 0.15983 0.0
C439 C 0.11959 0.60932 0.17297 0.0
C440 C 0.13876 0.61611 0.14015 0.0
C441 C 0.13186 0.60231 0.13255 0.0
C442 C 0.14655 0.63136 0.13432 0.0
C443 C 0.15294 0.647 0.14174 0.0
C444 C 0.14135 0.65593 0.15012 0.0
C445 C 0.14752 0.67051 0.1572 0.0
C446 C 0.16522 0.6764 0.15589 0.0
C447 C 0.17676 0.66774 0.14748 0.0
C448 C 0.17067 0.65313 0.14039 0.0
C449 C 0.12167 0.62414 0.08057 0.0
C450 C 0.13735 0.62416 0.0732 0.0
C451 C 0.12268 0.62262 0.09368 0.0
C452 C 0.13937 0.62122 0.09969 0.0
C453 C 0.15511 0.62183 0.09244 0.0
C454 C 0.15411 0.62314 0.07926 0.0
C455 C 0.14018 0.61861 0.11354 0.0
C456 C 0.14742 0.63226 0.12108 0.0
C457 C 0.13245 0.60337 0.11933 0.0
C458 C 0.12496 0.58836 0.11179 0.0
C459 C 0.13555 0.57954 0.10272 0.0
C460 C 0.12833 0.56558 0.09552 0.0
C461 C 0.11056 0.56022 0.09736 0.0
C462 C 0.09999 0.56879 0.10643 0.0
C463 C 0.10714 0.58278 0.11365 0.0
H464 H 0.105 0.54941 0.09178 0.0
H465 H 0.16997 0.68769 0.16138 0.0
H466 H 0.66631 0.88195 0.42595 0.0
H467 H 0.66734 0.88435 0.40286 0.0
H468 H 0.60952 0.88235 0.40147 0.0
H469 H 0.60845 0.87952 0.4244 0.0
H470 H 0.623 0.86169 0.38379 0.0
H471 H 0.63336 0.92216 0.39809 0.0
H472 H 0.64883 0.94596 0.41006 0.0
H473 H 0.69791 0.93436 0.39048 0.0
H474 H 0.68278 0.91033 0.37851 0.0
H475 H 0.60691 0.89457 0.32223 0.0
H476 H 0.6085 0.89275 0.34529 0.0
H477 H 0.66617 0.8891 0.34329 0.0
H478 H 0.66469 0.89089 0.32023 0.0
H479 H 0.65433 0.91193 0.36242 0.0
H480 H 0.6434 0.85215 0.34756 0.0
H481 H 0.62759 0.82879 0.33539 0.0
H482 H 0.57916 0.8395 0.35598 0.0
H483 H 0.59461 0.86312 0.36815 0.0
C484 C 0.65385 0.882 0.42069 0.0
C485 C 0.63731 0.88058 0.42697 0.0
C486 C 0.65443 0.88345 0.40752 0.0
C487 C 0.63848 0.88373 0.40043 0.0
C488 C 0.62199 0.88215 0.40672 0.0
C489 C 0.62141 0.88058 0.41983 0.0
C490 C 0.6388 0.8856 0.38646 0.0
C491 C 0.62969 0.8728 0.37915 0.0
C492 C 0.64789 0.89985 0.38035 0.0
C493 C 0.65699 0.91432 0.38751 0.0
C494 C 0.64749 0.9246 0.39641 0.0
C495 C 0.65619 0.93814 0.40318 0.0
C496 C 0.67435 0.94163 0.40106 0.0
C497 C 0.68384 0.93162 0.39213 0.0
C498 C 0.67521 0.91804 0.38535 0.0
C499 C 0.61993 0.89355 0.32671 0.0
C500 C 0.63567 0.89278 0.31944 0.0
C501 C 0.62082 0.89244 0.33987 0.0
C502 C 0.63745 0.89059 0.34597 0.0
C503 C 0.65321 0.89049 0.33875 0.0
C504 C 0.65233 0.89147 0.32559 0.0
C505 C 0.63832 0.88819 0.35984 0.0
C506 C 0.64769 0.90083 0.3671 0.0
C507 C 0.62943 0.87383 0.36592 0.0
C508 C 0.62013 0.85952 0.35869 0.0
C509 C 0.62934 0.84962 0.34943 0.0
C510 C 0.62045 0.83632 0.34254 0.0
C511 C 0.60238 0.83269 0.34489 0.0
C512 C 0.59316 0.84233 0.35416 0.0
C513 C 0.60198 0.85567 0.36106 0.0
H514 H 0.59552 0.82238 0.33955 0.0
H515 H 0.68106 0.95213 0.40631 0.0
H516 H 0.40145 0.38018 0.67372 0.0
H517 H 0.39947 0.3837 0.65081 0.0
H518 H 0.3524 0.41672 0.65521 0.0
H519 H 0.35443 0.41343 0.67823 0.0
H520 H 0.34855 0.38808 0.63761 0.0
H521 H 0.38866 0.43666 0.64627 0.0
H522 H 0.41527 0.4511 0.65564 0.0
H523 H 0.44967 0.41539 0.63503 0.0
H524 H 0.42325 0.40055 0.62567 0.0
H525 H 0.3459 0.40293 0.57093 0.0
H526 H 0.34576 0.40771 0.59384 0.0
H527 H 0.39857 0.38427 0.59642 0.0
H528 H 0.39903 0.38011 0.57359 0.0
H529 H 0.39743 0.41219 0.61076 0.0
H530 H 0.35878 0.36111 0.60437 0.0
H531 H 0.33297 0.34472 0.59548 0.0
H532 H 0.29682 0.38279 0.61214 0.0
H533 H 0.32246 0.39954 0.62101 0.0
C534 C 0.39081 0.38838 0.66982 0.0
C535 C 0.37811 0.39655 0.67775 0.0
C536 C 0.38972 0.3904 0.65674 0.0
C537 C 0.37582 0.40052 0.65134 0.0
C538 C 0.36323 0.40889 0.65922 0.0
C539 C 0.36446 0.40707 0.67235 0.0
C540 C 0.37409 0.40153 0.63742 0.0
C541 C 0.35904 0.39368 0.63171 0.0
C542 C 0.38801 0.40844 0.62979 0.0
C543 C 0.40395 0.41741 0.63534 0.0
C544 C 0.40189 0.43179 0.64381 0.0
C545 C 0.41694 0.44007 0.6491 0.0
C546 C 0.43415 0.43415 0.64595 0.0
C547 C 0.43633 0.41996 0.63747 0.0
C548 C 0.42132 0.41163 0.63215 0.0
C549 C 0.35746 0.39882 0.57641 0.0
C550 C 0.37245 0.39111 0.57049 0.0
C551 C 0.35735 0.4015 0.5895 0.0
C552 C 0.37208 0.39617 0.5969 0.0
C553 C 0.38707 0.38855 0.59094 0.0
C554 C 0.38728 0.38611 0.57788 0.0
C555 C 0.37204 0.39834 0.61087 0.0
C556 C 0.38678 0.4068 0.61662 0.0
C557 C 0.35795 0.39173 0.61854 0.0
C558 C 0.34254 0.38169 0.61322 0.0
C559 C 0.34533 0.36606 0.60605 0.0
C560 C 0.33074 0.35669 0.60103 0.0
C561 C 0.31327 0.36274 0.60321 0.0
C562 C 0.31036 0.37814 0.61044 0.0
C563 C 0.32492 0.38757 0.61547 0.0
H564 H 0.30198 0.35547 0.59931 0.0
H565 H 0.44579 0.44057 0.65006 0.0
H566 H 0.87571 0.15121 0.92812 0.0
H567 H 0.8756 0.14947 0.90507 0.0
H568 H 0.85317 0.09622 0.907 0.0
H569 H 0.85327 0.09786 0.93011 0.0
H570 H 0.88161 0.09833 0.89053 0.0
H571 H 0.82704 0.13029 0.8983 0.0
H572 H 0.8081 0.15404 0.90749 0.0
H573 H 0.83912 0.19416 0.8883 0.0
H574 H 0.85842 0.17065 0.87914 0.0
H575 H 0.8636 0.09256 0.82453 0.0
H576 H 0.86068 0.09273 0.84755 0.0
H577 H 0.87923 0.14753 0.84856 0.0
H578 H 0.88181 0.14755 0.82555 0.0
H579 H 0.85118 0.1435 0.86363 0.0
H580 H 0.90666 0.11213 0.85678 0.0
H581 H 0.92618 0.08872 0.84776 0.0
H582 H 0.89413 0.04791 0.86533 0.0
H583 H 0.87426 0.07109 0.87432 0.0
C584 C 0.87065 0.13917 0.92364 0.0
C585 C 0.86446 0.12468 0.93092 0.0
C586 C 0.87055 0.13822 0.91047 0.0
C587 C 0.86425 0.12277 0.90432 0.0
C588 C 0.85806 0.10827 0.91156 0.0
C589 C 0.85806 0.10926 0.92475 0.0
C590 C 0.86457 0.12164 0.89034 0.0
C591 C 0.87471 0.10802 0.88463 0.0
C592 C 0.8559 0.13453 0.88267 0.0
C593 C 0.84427 0.14871 0.88812 0.0
C594 C 0.82991 0.14418 0.89612 0.0
C595 C 0.8191 0.1576 0.90131 0.0
C596 C 0.82243 0.1756 0.8985 0.0
C597 C 0.83657 0.18021 0.89048 0.0
C598 C 0.84744 0.16684 0.88527 0.0
C599 C 0.8671 0.10462 0.82967 0.0
C600 C 0.87299 0.12002 0.82325 0.0
C601 C 0.86547 0.10469 0.84283 0.0
C602 C 0.8699 0.1201 0.84981 0.0
C603 C 0.87572 0.1355 0.84338 0.0
C604 C 0.87726 0.13546 0.83024 0.0
C605 C 0.86838 0.12029 0.86379 0.0
C606 C 0.858 0.13373 0.86951 0.0
C607 C 0.87691 0.10728 0.87147 0.0
C608 C 0.88886 0.09333 0.86611 0.0
C609 C 0.90369 0.09816 0.85864 0.0
C610 C 0.91483 0.08493 0.85354 0.0
C611 C 0.91137 0.06683 0.85594 0.0
C612 C 0.89678 0.06193 0.86346 0.0
C613 C 0.88558 0.0751 0.86857 0.0
H614 H 0.92001 0.05661 0.85199 0.0
H615 H 0.81404 0.18597 0.90253 0.0
H616 H 0.11321 0.38275 0.92133 0.0
H617 H 0.11728 0.38534 0.89859 0.0
H618 H 0.17347 0.3969 0.90415 0.0
H619 H 0.16955 0.39363 0.92704 0.0
H620 H 0.1259 0.41114 0.88392 0.0
H621 H 0.19723 0.38215 0.87853 0.0
H622 H 0.21757 0.36099 0.88931 0.0
H623 H 0.17231 0.33271 0.90454 0.0
H624 H 0.15172 0.35355 0.89373 0.0
H625 H 0.1461 0.4195 0.8189 0.0
H626 H 0.14994 0.42148 0.84185 0.0
H627 H 0.14831 0.36373 0.84441 0.0
H628 H 0.14522 0.3617 0.82155 0.0
H629 H 0.17116 0.3753 0.86068 0.0
H630 H 0.11046 0.39111 0.84949 0.0
H631 H 0.08697 0.4085 0.83858 0.0
H632 H 0.10557 0.45674 0.85645 0.0
H633 H 0.12933 0.43964 0.86735 0.0
C634 C 0.12646 0.38581 0.91772 0.0
C635 C 0.14109 0.38791 0.92595 0.0
C636 C 0.12875 0.38738 0.90471 0.0
C637 C 0.1457 0.39123 0.8996 0.0
C638 C 0.16032 0.39364 0.90783 0.0
C639 C 0.15807 0.39182 0.9209 0.0
C640 C 0.14782 0.39245 0.88566 0.0
C641 C 0.1359 0.40339 0.87886 0.0
C642 C 0.16073 0.38224 0.87899 0.0
C643 C 0.17297 0.36955 0.88546 0.0
C644 C 0.19164 0.37139 0.88416 0.0
C645 C 0.2032 0.35946 0.89028 0.0
C646 C 0.19624 0.34556 0.89765 0.0
C647 C 0.17769 0.34352 0.89888 0.0
C648 C 0.16607 0.3554 0.89277 0.0
C649 C 0.14682 0.40725 0.82437 0.0
C650 C 0.14522 0.39046 0.81846 0.0
C651 C 0.14894 0.40838 0.83748 0.0
C652 C 0.1491 0.39276 0.84492 0.0
C653 C 0.14824 0.37599 0.83892 0.0
C654 C 0.1464 0.37485 0.82583 0.0
C655 C 0.149 0.39369 0.85895 0.0
C656 C 0.16136 0.38326 0.86576 0.0
C657 C 0.13606 0.40385 0.86563 0.0
C658 C 0.12179 0.41414 0.85911 0.0
C659 C 0.10961 0.40545 0.85102 0.0
C660 C 0.09624 0.41524 0.84485 0.0
C661 C 0.09482 0.43372 0.84679 0.0
C662 C 0.10672 0.44243 0.85493 0.0
C663 C 0.12014 0.4327 0.86111 0.0
H664 H 0.08446 0.44129 0.842 0.0
H665 H 0.20522 0.33635 0.90238 0.0
H666 H 0.87476 0.8557 0.07416 0.0
H667 H 0.87251 0.85763 0.09718 0.0
H668 H 0.84687 0.90924 0.0939 0.0
H669 H 0.84881 0.90729 0.07081 0.0
H670 H 0.87691 0.90787 0.11098 0.0
H671 H 0.82185 0.8767 0.10251 0.0
H672 H 0.80312 0.85293 0.09311 0.0
H673 H 0.83306 0.8129 0.11324 0.0
H674 H 0.85215 0.83642 0.12262 0.0
H675 H 0.86053 0.91453 0.17709 0.0
H676 H 0.8573 0.9147 0.15407 0.0
H677 H 0.8709 0.85845 0.15292 0.0
H678 H 0.8734 0.85808 0.1759 0.0
H679 H 0.84459 0.86391 0.13776 0.0
H680 H 0.90119 0.89311 0.1447 0.0
H681 H 0.92179 0.91564 0.15366 0.0
H682 H 0.89151 0.9578 0.1361 0.0
H683 H 0.87057 0.93551 0.12717 0.0
C684 C 0.86845 0.86737 0.07834 0.0
C685 C 0.86194 0.88134 0.07071 0.0
C686 C 0.86716 0.86843 0.09147 0.0
C687 C 0.8595 0.88356 0.09721 0.0
C688 C 0.85281 0.89746 0.08962 0.0
C689 C 0.85385 0.89628 0.07646 0.0
C690 C 0.8592 0.88509 0.11114 0.0
C691 C 0.86959 0.89849 0.11687 0.0
C692 C 0.85006 0.8725 0.11875 0.0
C693 C 0.83853 0.85833 0.11318 0.0
C694 C 0.82454 0.86282 0.10485 0.0
C695 C 0.81384 0.84939 0.09954 0.0
C696 C 0.81692 0.83142 0.10255 0.0
C697 C 0.83069 0.82683 0.11091 0.0
C698 C 0.84145 0.84021 0.11623 0.0
C699 C 0.86286 0.90223 0.17189 0.0
C700 C 0.86726 0.88631 0.17826 0.0
C701 C 0.86108 0.90234 0.15874 0.0
C702 C 0.86407 0.88663 0.15171 0.0
C703 C 0.86847 0.87074 0.15811 0.0
C704 C 0.86998 0.87056 0.17124 0.0
C705 C 0.86255 0.88658 0.1377 0.0
C706 C 0.85181 0.87344 0.13193 0.0
C707 C 0.87164 0.89924 0.13004 0.0
C708 C 0.8842 0.91266 0.13539 0.0
C709 C 0.89884 0.90719 0.14283 0.0
C710 C 0.91059 0.91992 0.14789 0.0
C711 C 0.90793 0.93815 0.14548 0.0
C712 C 0.89353 0.94368 0.13798 0.0
C713 C 0.88173 0.93101 0.13291 0.0
H714 H 0.91704 0.94798 0.1494 0.0
H715 H 0.80863 0.82104 0.09844 0.0
H716 H 0.34516 0.63207 0.42751 0.0
H717 H 0.34458 0.62835 0.4046 0.0
H718 H 0.38282 0.58507 0.40754 0.0
H719 H 0.384 0.5893 0.43043 0.0
H720 H 0.39274 0.60562 0.3896 0.0
H721 H 0.33708 0.57821 0.39975 0.0
H722 H 0.30731 0.57509 0.40963 0.0
H723 H 0.28848 0.62119 0.38928 0.0
H724 H 0.31821 0.62475 0.3794 0.0
H725 H 0.38178 0.58775 0.32309 0.0
H726 H 0.38046 0.5833 0.34607 0.0
H727 H 0.35157 0.63308 0.35004 0.0
H728 H 0.35297 0.63768 0.32725 0.0
H729 H 0.33684 0.60454 0.36418 0.0
H730 H 0.39468 0.63268 0.35599 0.0
H731 H 0.42434 0.63409 0.34573 0.0
H732 H 0.43865 0.58353 0.3623 0.0
H733 H 0.40896 0.58171 0.37253 0.0
C734 C 0.35327 0.62162 0.42328 0.0
C735 C 0.3646 0.61097 0.43074 0.0
C736 C 0.35287 0.61942 0.41017 0.0
C737 C 0.36348 0.60624 0.4043 0.0
C738 C 0.37451 0.59533 0.41181 0.0
C739 C 0.37512 0.59771 0.4249 0.0
C740 C 0.36381 0.60459 0.39029 0.0
C741 C 0.38048 0.605 0.38409 0.0
C742 C 0.34788 0.60392 0.383 0.0
C743 C 0.32994 0.60182 0.3889 0.0
C744 C 0.32663 0.58776 0.39744 0.0
C745 C 0.30975 0.5859 0.40304 0.0
C746 C 0.29602 0.59795 0.40011 0.0
C747 C 0.29913 0.61187 0.39155 0.0
C748 C 0.31599 0.6138 0.38594 0.0
C749 C 0.37512 0.59769 0.32889 0.0
C750 C 0.36756 0.6131 0.3234 0.0
C751 C 0.37438 0.59514 0.34198 0.0
C752 C 0.36593 0.60789 0.34973 0.0
C753 C 0.35809 0.62307 0.34422 0.0
C754 C 0.359 0.62572 0.33121 0.0
C755 C 0.36565 0.6059 0.36365 0.0
C756 C 0.34902 0.60484 0.36979 0.0
C757 C 0.3816 0.6057 0.37087 0.0
C758 C 0.39954 0.60696 0.3649 0.0
C759 C 0.40411 0.6218 0.35737 0.0
C760 C 0.42093 0.62269 0.35157 0.0
C761 C 0.43335 0.60888 0.35332 0.0
C762 C 0.429 0.5942 0.36093 0.0
C763 C 0.41219 0.59324 0.36674 0.0
H764 H 0.44635 0.60957 0.34881 0.0
H765 H 0.28296 0.59649 0.40445 0.0
H766 H 0.643 0.08805 0.67721 0.0
H767 H 0.64355 0.08602 0.65409 0.0
H768 H 0.61784 0.13771 0.65152 0.0
H769 H 0.61718 0.13978 0.67453 0.0
H770 H 0.60376 0.11369 0.63471 0.0
H771 H 0.66247 0.1341 0.64791 0.0
H772 H 0.69087 0.13197 0.65975 0.0
H773 H 0.70289 0.08206 0.64139 0.0
H774 H 0.67441 0.08378 0.62956 0.0
H775 H 0.62269 0.1435 0.57335 0.0
H776 H 0.62143 0.14013 0.59626 0.0
H777 H 0.6505 0.09026 0.59353 0.0
H778 H 0.65214 0.09376 0.57054 0.0
H779 H 0.66254 0.10979 0.61291 0.0
H780 H 0.60517 0.09048 0.59831 0.0
H781 H 0.57685 0.09249 0.58637 0.0
H782 H 0.56207 0.13956 0.60728 0.0
H783 H 0.59044 0.13799 0.61922 0.0
C784 C 0.63731 0.09888 0.6717 0.0
C785 C 0.63013 0.11411 0.67766 0.0
C786 C 0.6377 0.09774 0.65851 0.0
C787 C 0.6309 0.11181 0.65109 0.0
C788 C 0.62316 0.12672 0.65706 0.0
C789 C 0.62285 0.1279 0.67021 0.0
C790 C 0.63234 0.11142 0.63713 0.0
C791 C 0.61661 0.11296 0.62993 0.0
C792 C 0.64907 0.10997 0.6309 0.0
C793 C 0.66622 0.10897 0.63797 0.0
C794 C 0.6711 0.1226 0.64648 0.0
C795 C 0.68722 0.12148 0.65317 0.0
C796 C 0.69866 0.10686 0.65136 0.0
C797 C 0.69401 0.09336 0.64281 0.0
C798 C 0.67788 0.0944 0.6361 0.0
C799 C 0.62889 0.13185 0.57762 0.0
C800 C 0.63744 0.11885 0.57015 0.0
C801 C 0.62807 0.12988 0.59072 0.0
C802 C 0.63556 0.11476 0.5966 0.0
C803 C 0.64454 0.10198 0.58918 0.0
C804 C 0.64546 0.104 0.57606 0.0
C805 C 0.63397 0.11238 0.61047 0.0
C806 C 0.64966 0.11031 0.61766 0.0
C807 C 0.61717 0.11327 0.61669 0.0
C808 C 0.60001 0.11419 0.6096 0.0
C809 C 0.59594 0.10133 0.60031 0.0
C810 C 0.57987 0.10238 0.59355 0.0
C811 C 0.56768 0.11616 0.59605 0.0
C812 C 0.57153 0.1289 0.60534 0.0
C813 C 0.58759 0.12792 0.61212 0.0
H814 H 0.55525 0.11696 0.5908 0.0
H815 H 0.71114 0.10602 0.65655 0.0
H816 H 0.8833 0.35838 0.82329 0.0
H817 H 0.87911 0.35674 0.84612 0.0
H818 H 0.84605 0.40422 0.84487 0.0
H819 H 0.85067 0.40622 0.82201 0.0
H820 H 0.86812 0.40644 0.86386 0.0
H821 H 0.82787 0.36157 0.84912 0.0
H822 H 0.81808 0.33504 0.83704 0.0
H823 H 0.85601 0.30232 0.85703 0.0
H824 H 0.86622 0.32871 0.86912 0.0
H825 H 0.83907 0.39556 0.92743 0.0
H826 H 0.83736 0.39591 0.90432 0.0
H827 H 0.87869 0.35555 0.90244 0.0
H828 H 0.88061 0.35526 0.92552 0.0
H829 H 0.8496 0.35012 0.88514 0.0
H830 H 0.89082 0.39659 0.89865 0.0
H831 H 0.89938 0.42344 0.91084 0.0
H832 H 0.85737 0.45354 0.89295 0.0
H833 H 0.84839 0.42677 0.88079 0.0
C834 C 0.87512 0.36846 0.82788 0.0
C835 C 0.86729 0.38242 0.82087 0.0
C836 C 0.87262 0.36744 0.84092 0.0
C837 C 0.862 0.38017 0.84721 0.0
C838 C 0.85425 0.3942 0.84023 0.0
C839 C 0.85688 0.39532 0.82717 0.0
C840 C 0.85948 0.37912 0.86111 0.0
C841 C 0.86374 0.39421 0.86846 0.0
C842 C 0.854 0.3631 0.86719 0.0
C843 C 0.8479 0.34716 0.85996 0.0
C844 C 0.83422 0.34874 0.85088 0.0
C845 C 0.82858 0.33373 0.84404 0.0
C846 C 0.83642 0.31701 0.84626 0.0
C847 C 0.84994 0.31528 0.85533 0.0
C848 C 0.85564 0.33026 0.86218 0.0
C849 C 0.84761 0.38659 0.92209 0.0
C850 C 0.86004 0.37545 0.92826 0.0
C851 C 0.84665 0.38684 0.90891 0.0
C852 C 0.85799 0.37585 0.9017 0.0
C853 C 0.86982 0.36412 0.90785 0.0
C854 C 0.87094 0.36402 0.92102 0.0
C855 C 0.85837 0.37735 0.88776 0.0
C856 C 0.85377 0.36236 0.88045 0.0
C857 C 0.86332 0.39351 0.88169 0.0
C858 C 0.8688 0.40963 0.88892 0.0
C859 C 0.88331 0.40889 0.8974 0.0
C860 C 0.88826 0.4241 0.90429 0.0
C861 C 0.87889 0.44017 0.9027 0.0
C862 C 0.86459 0.44108 0.89419 0.0
C863 C 0.85957 0.42589 0.88729 0.0
H864 H 0.88274 0.45194 0.90804 0.0
H865 H 0.83202 0.3054 0.84097 0.0
H866 H 0.34466 0.12648 0.67558 0.0
H867 H 0.34249 0.12392 0.65262 0.0
H868 H 0.39102 0.09245 0.65201 0.0
H869 H 0.3933 0.09497 0.67504 0.0
H870 H 0.39151 0.12011 0.63485 0.0
H871 H 0.35156 0.07254 0.64661 0.0
H872 H 0.32606 0.05884 0.65785 0.0
H873 H 0.28983 0.09542 0.63969 0.0
H874 H 0.31516 0.10952 0.62847 0.0
H875 H 0.38919 0.09722 0.57079 0.0
H876 H 0.3885 0.09442 0.59372 0.0
H877 H 0.33855 0.1236 0.59483 0.0
H878 H 0.33897 0.12609 0.57172 0.0
H879 H 0.3386 0.0964 0.61179 0.0
H880 H 0.37776 0.1449 0.6009 0.0
H881 H 0.40277 0.15945 0.58963 0.0
H882 H 0.43993 0.12238 0.6063 0.0
H883 H 0.41508 0.10744 0.61756 0.0
C884 C 0.35478 0.11886 0.67057 0.0
C885 C 0.36916 0.11093 0.6771 0.0
C886 C 0.35348 0.11736 0.65746 0.0
C887 C 0.36653 0.1079 0.65062 0.0
C888 C 0.3808 0.09978 0.65713 0.0
C889 C 0.38205 0.10118 0.67027 0.0
C890 C 0.36574 0.1073 0.63664 0.0
C891 C 0.38008 0.11464 0.6298 0.0
C892 C 0.35056 0.10069 0.63008 0.0
C893 C 0.33529 0.0922 0.63679 0.0
C894 C 0.33818 0.07777 0.64509 0.0
C895 C 0.32375 0.0699 0.65144 0.0
C896 C 0.30634 0.07628 0.64951 0.0
C897 C 0.30332 0.09051 0.64119 0.0
C898 C 0.31771 0.09843 0.63482 0.0
C899 C 0.37795 0.10289 0.57589 0.0
C900 C 0.36421 0.11202 0.56948 0.0
C901 C 0.37761 0.10132 0.58901 0.0
C902 C 0.36366 0.10911 0.59601 0.0
C903 C 0.34948 0.11756 0.5896 0.0
C904 C 0.34974 0.119 0.57642 0.0
C905 C 0.36441 0.10912 0.61001 0.0
C906 C 0.35007 0.10177 0.61684 0.0
C907 C 0.37952 0.11587 0.6166 0.0
C908 C 0.39454 0.12495 0.60998 0.0
C909 C 0.39125 0.13978 0.6021 0.0
C910 C 0.40539 0.1481 0.59572 0.0
C911 C 0.42292 0.14182 0.59723 0.0
C912 C 0.42634 0.12722 0.60514 0.0
C913 C 0.41224 0.11883 0.61153 0.0
H914 H 0.43385 0.14829 0.59228 0.0
H915 H 0.29518 0.07017 0.65443 0.0
H916 H 0.66485 0.62819 0.42829 0.0
H917 H 0.66613 0.62691 0.40515 0.0
H918 H 0.60897 0.61824 0.40376 0.0
H919 H 0.60755 0.61964 0.42679 0.0
H920 H 0.62865 0.5942 0.38876 0.0
H921 H 0.62453 0.658 0.39659 0.0
H922 H 0.63413 0.68667 0.40601 0.0
H923 H 0.68542 0.68188 0.38789 0.0
H924 H 0.6762 0.65303 0.37849 0.0
H925 H 0.60777 0.60944 0.3245 0.0
H926 H 0.60977 0.60918 0.34753 0.0
H927 H 0.66481 0.62689 0.34534 0.0
H928 H 0.66266 0.62775 0.32231 0.0
H929 H 0.64837 0.64549 0.36238 0.0
H930 H 0.65307 0.58297 0.3537 0.0
H931 H 0.6447 0.55385 0.34437 0.0
H932 H 0.59445 0.55515 0.36414 0.0
H933 H 0.60241 0.5844 0.37347 0.0
C934 C 0.65256 0.62611 0.42303 0.0
C935 C 0.6361 0.62405 0.42933 0.0
C936 C 0.65331 0.6254 0.40984 0.0
C937 C 0.63763 0.62249 0.40277 0.0
C938 C 0.62121 0.62044 0.40905 0.0
C939 C 0.62043 0.62134 0.4222 0.0
C940 C 0.63824 0.62142 0.38881 0.0
C941 C 0.6328 0.60545 0.38296 0.0
C942 C 0.64421 0.63592 0.38131 0.0
C943 C 0.64975 0.65326 0.38695 0.0
C944 C 0.63792 0.66298 0.39471 0.0
C945 C 0.64328 0.67928 0.40002 0.0
C946 C 0.6604 0.68607 0.39758 0.0
C947 C 0.67218 0.67659 0.38979 0.0
C948 C 0.66689 0.66027 0.38446 0.0
C949 C 0.62034 0.6131 0.32893 0.0
C950 C 0.63506 0.61859 0.32162 0.0
C951 C 0.62151 0.61289 0.34211 0.0
C952 C 0.63752 0.61782 0.3482 0.0
C953 C 0.65232 0.62304 0.34087 0.0
C954 C 0.65109 0.62346 0.32771 0.0
C955 C 0.63859 0.61827 0.36222 0.0
C956 C 0.64435 0.63414 0.36812 0.0
C957 C 0.63312 0.60357 0.36977 0.0
C958 C 0.62828 0.58596 0.3642 0.0
C959 C 0.64018 0.57711 0.35599 0.0
C960 C 0.63551 0.56057 0.35071 0.0
C961 C 0.61903 0.55268 0.35364 0.0
C962 C 0.6072 0.56129 0.36187 0.0
C963 C 0.61179 0.57784 0.36717 0.0
H964 H 0.61545 0.53987 0.34954 0.0
H965 H 0.66453 0.6987 0.40168 0.0
H966 H 0.16358 0.87105 0.17794 0.0
H967 H 0.16563 0.87229 0.15494 0.0
H968 H 0.12454 0.913 0.15413 0.0
H969 H 0.12227 0.91169 0.17719 0.0
H970 H 0.1172 0.88559 0.13825 0.0
H971 H 0.16806 0.92314 0.14712 0.0
H972 H 0.19687 0.93088 0.15719 0.0
H973 H 0.22193 0.88564 0.13937 0.0
H974 H 0.1932 0.87748 0.12933 0.0
H975 H 0.11991 0.90392 0.07347 0.0
H976 H 0.12218 0.90678 0.09634 0.0
H977 H 0.16569 0.86862 0.09668 0.0
H978 H 0.1639 0.86622 0.07358 0.0
H979 H 0.17234 0.89491 0.11287 0.0
H980 H 0.12228 0.85639 0.10473 0.0
H981 H 0.09368 0.84735 0.09491 0.0
H982 H 0.06736 0.89264 0.11172 0.0
H983 H 0.09587 0.9021 0.12151 0.0
C984 C 0.15517 0.88047 0.17288 0.0
C985 C 0.14272 0.89124 0.17935 0.0
C986 C 0.15641 0.88121 0.15974 0.0
C987 C 0.1453 0.8928 0.15282 0.0
C988 C 0.13324 0.90397 0.1593 0.0
C989 C 0.13201 0.90326 0.17246 0.0
C990 C 0.14529 0.89224 0.13883 0.0
C991 C 0.12919 0.88795 0.13268 0.0
C992 C 0.1611 0.89464 0.13162 0.0
C993 C 0.17843 0.89961 0.13756 0.0
C994 C 0.17968 0.91476 0.14542 0.0
C995 C 0.196 0.91924 0.15111 0.0
C996 C 0.21121 0.90873 0.14894 0.0
C997 C 0.21014 0.89376 0.14105 0.0
C998 C 0.19384 0.88922 0.13534 0.0
C999 C 0.13 0.89616 0.0784 0.0
C1000 C 0.14162 0.8847 0.07177 0.0
C1001 C 0.13124 0.89776 0.09149 0.0
C1002 C 0.14385 0.88763 0.09827 0.0
C1003 C 0.1558 0.87651 0.09164 0.0
C1004 C 0.15474 0.87509 0.07848 0.0
C1005 C 0.14419 0.88843 0.11228 0.0
C1006 C 0.16034 0.89265 0.11843 0.0
C1007 C 0.12846 0.88578 0.11955 0.0
C1008 C 0.11125 0.88003 0.11376 0.0
C1009 C 0.11042 0.86448 0.10627 0.0
C1010 C 0.09422 0.85928 0.10071 0.0
C1011 C 0.07872 0.86944 0.10266 0.0
C1012 C 0.07938 0.8848 0.11021 0.0
C1013 C 0.09555 0.89008 0.11577 0.0
H1014 H 0.06619 0.86539 0.09835 0.0
H1015 H 0.22383 0.91221 0.15336 0.0
H1016 H 0.84686 0.64202 0.07199 0.0
H1017 H 0.84571 0.64151 0.09514 0.0
H1018 H 0.88717 0.60118 0.09577 0.0
H1019 H 0.88839 0.60162 0.07272 0.0
H1020 H 0.85959 0.59372 0.11243 0.0
H1021 H 0.89787 0.6436 0.10152 0.0
H1022 H 0.90525 0.672 0.09079 0.0
H1023 H 0.86152 0.69813 0.10968 0.0
H1024 H 0.85372 0.6698 0.1204 0.0
H1025 H 0.88634 0.59949 0.17677 0.0
H1026 H 0.88529 0.59876 0.15365 0.0
H1027 H 0.84968 0.6444 0.15372 0.0
H1028 H 0.85125 0.64558 0.17672 0.0
H1029 H 0.87347 0.64908 0.1365 0.0
H1030 H 0.83508 0.60009 0.14778 0.0
H1031 H 0.82672 0.57185 0.15837 0.0
H1032 H 0.86892 0.54421 0.13883 0.0
H1033 H 0.87769 0.57234 0.12823 0.0
C1034 C 0.85565 0.63299 0.07707 0.0
C1035 C 0.86777 0.62193 0.07056 0.0
C1036 C 0.85501 0.63274 0.09028 0.0
C1037 C 0.86646 0.6214 0.09716 0.0
C1038 C 0.87822 0.61002 0.09065 0.0
C1039 C 0.87895 0.61035 0.07748 0.0
C1040 C 0.86658 0.62166 0.11117 0.0
C1041 C 0.86278 0.60576 0.11772 0.0
C1042 C 0.87035 0.63749 0.11803 0.0
C1043 C 0.8751 0.65454 0.11166 0.0
C1044 C 0.88974 0.65537 0.10331 0.0
C1045 C 0.89402 0.67146 0.09724 0.0
C1046 C 0.88383 0.68685 0.09952 0.0
C1047 C 0.86938 0.68619 0.10791 0.0
C1048 C 0.86503 0.67013 0.11399 0.0
C1049 C 0.87827 0.60932 0.17183 0.0
C1050 C 0.86888 0.62258 0.17853 0.0
C1051 C 0.87759 0.60884 0.15862 0.0
C1052 C 0.8672 0.62138 0.15191 0.0
C1053 C 0.8578 0.63459 0.15865 0.0
C1054 C 0.85868 0.63522 0.17181 0.0
C1055 C 0.86641 0.6211 0.13787 0.0
C1056 C 0.87015 0.63701 0.13127 0.0
C1057 C 0.86242 0.60531 0.13098 0.0
C1058 C 0.85714 0.58836 0.13731 0.0
C1059 C 0.84266 0.58802 0.14581 0.0
C1060 C 0.83784 0.57203 0.1518 0.0
C1061 C 0.84731 0.55626 0.1493 0.0
C1062 C 0.86161 0.55644 0.14077 0.0
C1063 C 0.8665 0.5724 0.13476 0.0
H1064 H 0.84356 0.54389 0.15395 0.0
H1065 H 0.88716 0.69929 0.09482 0.0
H1066 H 0.13204 0.08714 0.81965 0.0
H1067 H 0.13458 0.08261 0.84255 0.0
H1068 H 0.16033 0.13413 0.84625 0.0
H1069 H 0.15757 0.13887 0.82348 0.0
H1070 H 0.17593 0.10573 0.86146 0.0
H1071 H 0.11852 0.13323 0.85143 0.0
H1072 H 0.08946 0.13465 0.84033 0.0
H1073 H 0.0743 0.08399 0.85637 0.0
H1074 H 0.10341 0.08215 0.86741 0.0
H1075 H 0.16155 0.13303 0.92471 0.0
H1076 H 0.16444 0.12955 0.90184 0.0
H1077 H 0.12777 0.08477 0.90287 0.0
H1078 H 0.1244 0.0886 0.92565 0.0
H1079 H 0.11837 0.10607 0.88497 0.0
H1080 H 0.17375 0.07951 0.897 0.0
H1081 H 0.20284 0.07696 0.90793 0.0
H1082 H 0.22216 0.12348 0.88831 0.0
H1083 H 0.19309 0.12647 0.87738 0.0
C1084 C 0.13848 0.09736 0.82534 0.0
C1085 C 0.14449 0.11341 0.81984 0.0
C1086 C 0.13991 0.09476 0.83839 0.0
C1087 C 0.14758 0.10808 0.84605 0.0
C1088 C 0.15442 0.12369 0.84048 0.0
C1089 C 0.15274 0.12641 0.82749 0.0
C1090 C 0.14716 0.10654 0.85997 0.0
C1091 C 0.16339 0.10587 0.86665 0.0
C1092 C 0.13076 0.10627 0.86666 0.0
C1093 C 0.11321 0.10745 0.86011 0.0
C1094 C 0.10905 0.12232 0.8525 0.0
C1095 C 0.09256 0.12322 0.84623 0.0
C1096 C 0.08007 0.10939 0.84761 0.0
C1097 C 0.08401 0.09467 0.85529 0.0
C1098 C 0.1005 0.09369 0.86155 0.0
C1099 C 0.15428 0.12233 0.92006 0.0
C1100 C 0.14272 0.11112 0.92694 0.0
C1101 C 0.156 0.12027 0.907 0.0
C1102 C 0.14646 0.10676 0.90062 0.0
C1103 C 0.13526 0.09529 0.90756 0.0
C1104 C 0.13337 0.09747 0.92059 0.0
C1105 C 0.14721 0.10538 0.88662 0.0
C1106 C 0.13099 0.10561 0.87987 0.0
C1107 C 0.16364 0.10503 0.87991 0.0
C1108 C 0.18117 0.1033 0.88644 0.0
C1109 C 0.18415 0.08928 0.89508 0.0
C1110 C 0.20065 0.08774 0.90127 0.0
C1111 C 0.21432 0.10007 0.89884 0.0
C1112 C 0.21154 0.11395 0.89019 0.0
C1113 C 0.19507 0.11556 0.88399 0.0
H1114 H 0.22709 0.09886 0.90363 0.0
H1115 H 0.06731 0.11011 0.84276 0.0
H1116 H 0.61452 0.3582 0.57388 0.0
H1117 H 0.61346 0.36102 0.59685 0.0
H1118 H 0.66057 0.39462 0.59597 0.0
H1119 H 0.66196 0.39144 0.57298 0.0
H1120 H 0.66219 0.3725 0.61547 0.0
H1121 H 0.61832 0.4127 0.59881 0.0
H1122 H 0.59238 0.42182 0.58587 0.0
H1123 H 0.55868 0.38504 0.60612 0.0
H1124 H 0.58449 0.3755 0.61905 0.0
H1125 H 0.64958 0.40694 0.67762 0.0
H1126 H 0.65129 0.40616 0.65451 0.0
H1127 H 0.60905 0.36667 0.65354 0.0
H1128 H 0.60734 0.36729 0.67661 0.0
H1129 H 0.60545 0.39349 0.63502 0.0
H1130 H 0.65046 0.35288 0.65114 0.0
H1131 H 0.67669 0.34471 0.66411 0.0
H1132 H 0.70858 0.38404 0.64481 0.0
H1133 H 0.68244 0.39263 0.63185 0.0
C1134 C 0.62477 0.36602 0.57859 0.0
C1135 C 0.63827 0.37468 0.57163 0.0
C1136 C 0.62408 0.36773 0.59172 0.0
C1137 C 0.63671 0.37836 0.59812 0.0
C1138 C 0.65063 0.38644 0.59123 0.0
C1139 C 0.65141 0.38461 0.5781 0.0
C1140 C 0.63513 0.38134 0.61195 0.0
C1141 C 0.64986 0.37734 0.61971 0.0
C1142 C 0.61898 0.38748 0.61753 0.0
C1143 C 0.60339 0.39326 0.60982 0.0
C1144 C 0.60541 0.40646 0.60044 0.0
C1145 C 0.59072 0.41172 0.59312 0.0
C1146 C 0.5739 0.40398 0.59515 0.0
C1147 C 0.57172 0.39101 0.60454 0.0
C1148 C 0.58638 0.38567 0.61188 0.0
C1149 C 0.6405 0.39828 0.67246 0.0
C1150 C 0.62837 0.38712 0.6789 0.0
C1151 C 0.64155 0.39779 0.65928 0.0
C1152 C 0.63042 0.38622 0.65234 0.0
C1153 C 0.61777 0.37566 0.65873 0.0
C1154 C 0.61684 0.37601 0.6719 0.0
C1155 C 0.63243 0.38451 0.63847 0.0
C1156 C 0.61778 0.38875 0.63073 0.0
C1157 C 0.6487 0.37876 0.6329 0.0
C1158 C 0.66444 0.37353 0.64063 0.0
C1159 C 0.66302 0.35989 0.64974 0.0
C1160 C 0.67788 0.35516 0.65707 0.0
C1161 C 0.69428 0.36389 0.65531 0.0
C1162 C 0.69586 0.37732 0.64618 0.0
C1163 C 0.68103 0.38211 0.63883 0.0
H1164 H 0.70577 0.36021 0.66099 0.0
H1165 H 0.56254 0.40807 0.58947 0.0
H1166 H 0.36015 0.9128 0.31964 0.0
H1167 H 0.35751 0.91379 0.34269 0.0
H1168 H 0.39219 0.86766 0.34566 0.0
H1169 H 0.3946 0.86641 0.32269 0.0
H1170 H 0.36327 0.86328 0.35979 0.0
H1171 H 0.40655 0.91023 0.35334 0.0
H1172 H 0.41822 0.93835 0.34427 0.0
H1173 H 0.3743 0.96752 0.36058 0.0
H1174 H 0.36223 0.9395 0.36961 0.0
H1175 H 0.39014 0.8645 0.42354 0.0
H1176 H 0.38922 0.86696 0.40056 0.0
H1177 H 0.34836 0.90769 0.40338 0.0
H1178 H 0.34909 0.90517 0.42652 0.0
H1179 H 0.37717 0.91621 0.38646 0.0
H1180 H 0.33537 0.86883 0.39422 0.0
H1181 H 0.32478 0.84047 0.40358 0.0
H1182 H 0.3671 0.81186 0.38489 0.0
H1183 H 0.37812 0.8401 0.37556 0.0
C1184 C 0.36737 0.90301 0.32523 0.0
C1185 C 0.37757 0.88952 0.31937 0.0
C1186 C 0.36587 0.9036 0.3384 0.0
C1187 C 0.37469 0.89082 0.34591 0.0
C1188 C 0.3852 0.87761 0.34005 0.0
C1189 C 0.38663 0.87696 0.32692 0.0
C1190 C 0.3725 0.89067 0.35985 0.0
C1191 C 0.36649 0.87482 0.36562 0.0
C1192 C 0.37615 0.90588 0.36744 0.0
C1193 C 0.38338 0.92273 0.36203 0.0
C1194 C 0.3993 0.92261 0.3549 0.0
C1195 C 0.406 0.93854 0.34979 0.0
C1196 C 0.39697 0.9547 0.35181 0.0
C1197 C 0.38125 0.95498 0.35899 0.0
C1198 C 0.37448 0.93908 0.36412 0.0
C1199 C 0.3809 0.87394 0.41928 0.0
C1200 C 0.36964 0.88461 0.42681 0.0
C1201 C 0.38037 0.87531 0.40616 0.0
C1202 C 0.36866 0.88743 0.40029 0.0
C1203 C 0.35747 0.89824 0.40776 0.0
C1204 C 0.35784 0.89673 0.42094 0.0
C1205 C 0.36832 0.88873 0.38633 0.0
C1206 C 0.37381 0.90476 0.38058 0.0
C1207 C 0.3643 0.87366 0.37874 0.0
C1208 C 0.35766 0.85661 0.38428 0.0
C1209 C 0.34251 0.85651 0.39219 0.0
C1210 C 0.33641 0.84046 0.39747 0.0
C1211 C 0.34528 0.82438 0.39485 0.0
C1212 C 0.36025 0.82433 0.38692 0.0
C1213 C 0.36642 0.84035 0.38162 0.0
H1214 H 0.34054 0.81196 0.39895 0.0
H1215 H 0.40218 0.96702 0.34785 0.0
H1216 H 0.0809 0.61888 0.00469 0.0
H1217 H 0.04869 0.61588 0.0002 0.0
H1218 H 0.03831 0.60812 0.0399 0.0
H1219 H 0.07024 0.61109 0.04442 0.0
H1220 H 0.01939 0.58446 0.02506 0.0
H1221 H 0.03245 0.64844 0.0267 0.0
H1222 H 0.04784 0.67601 0.01976 0.0
H1223 H 0.02729 0.66874 0.98222 0.0
H1224 H 0.01196 0.64097 0.98892 0.0
H1225 H 0.93447 0.61315 0.04288 0.0
H1226 H 0.96645 0.60949 0.03888 0.0
H1227 H 0.95739 0.61619 0.99893 0.0
H1228 H 0.92508 0.61983 0.00288 0.0
H1229 H 0.98596 0.63695 0.00844 0.0
H1230 H 0.96751 0.57618 0.00846 0.0
H1231 H 0.95132 0.54947 0.01607 0.0
H1232 H 0.98154 0.55063 0.05057 0.0
H1233 H 0.9977 0.57756 0.04328 0.0
C1234 C 0.07172 0.61643 0.01243 0.0
C1235 C 0.07804 0.61532 0.02491 0.0
C1236 C 0.05337 0.61474 0.00986 0.0
C1237 C 0.04114 0.61183 0.01973 0.0
C1238 C 0.04753 0.61028 0.03214 0.0
C1239 C 0.06577 0.61209 0.03471 0.0
C1240 C 0.02155 0.61114 0.01743 0.0
C1241 C 0.01205 0.5959 0.0214 0.0
C1242 C 0.01208 0.62586 0.01227 0.0
C1243 C 0.02128 0.64252 0.00826 0.0
C1244 C 0.03135 0.65264 0.01694 0.0
C1245 C 0.04004 0.66831 0.01306 0.0
C1246 C 0.0386 0.67408 0.00055 0.0
C1247 C 0.02843 0.66422 0.9919 0.0
C1248 C 0.01974 0.64852 0.99573 0.0
C1249 C 0.93923 0.61378 0.03322 0.0
C1250 C 0.9273 0.61676 0.02318 0.0
C1251 C 0.9575 0.61159 0.03095 0.0
C1252 C 0.96423 0.61237 0.0186 0.0
C1253 C 0.9524 0.61545 0.00852 0.0
C1254 C 0.934 0.61749 0.01078 0.0
C1255 C 0.98377 0.61053 0.01651 0.0
C1256 C 0.99327 0.62528 0.01174 0.0
C1257 C 0.99326 0.59536 0.02094 0.0
C1258 C 0.98377 0.57897 0.02533 0.0
C1259 C 0.97064 0.57082 0.0177 0.0
C1260 C 0.96146 0.55563 0.02196 0.0
C1261 C 0.96539 0.54837 0.0338 0.0
C1262 C 0.97852 0.55627 0.0414 0.0
C1263 C 0.98771 0.57149 0.0372 0.0
H1264 H 0.95826 0.53662 0.03708 0.0
H1265 H 0.04533 0.68623 0.99756 0.0
H1266 H 0.62778 0.68147 0.2586 0.0
H1267 H 0.62936 0.71421 0.25693 0.0
H1268 H 0.64674 0.71738 0.29574 0.0
H1269 H 0.64476 0.68482 0.29754 0.0
H1270 H 0.62113 0.74079 0.2915 0.0
H1271 H 0.67587 0.72383 0.27053 0.0
H1272 H 0.69423 0.70793 0.25474 0.0
H1273 H 0.66543 0.734 0.22481 0.0
H1274 H 0.64672 0.74989 0.24044 0.0
H1275 H 0.64945 0.82991 0.29536 0.0
H1276 H 0.65014 0.79723 0.29426 0.0
H1277 H 0.63045 0.79922 0.25597 0.0
H1278 H 0.63015 0.8321 0.25691 0.0
H1279 H 0.656 0.7734 0.25887 0.0
H1280 H 0.60176 0.79086 0.28008 0.0
H1281 H 0.58412 0.80727 0.29603 0.0
H1282 H 0.61259 0.78027 0.32571 0.0
H1283 H 0.63054 0.76384 0.30992 0.0
C1284 C 0.63204 0.68917 0.26674 0.0
C1285 C 0.63612 0.68062 0.27821 0.0
C1286 C 0.63301 0.70786 0.26576 0.0
C1287 C 0.63829 0.71825 0.27619 0.0
C1288 C 0.64259 0.70965 0.28759 0.0
C1289 C 0.6415 0.69104 0.28859 0.0
C1290 C 0.63875 0.73811 0.27548 0.0
C1291 C 0.62893 0.74789 0.28444 0.0
C1292 C 0.64851 0.74741 0.26606 0.0
C1293 C 0.65977 0.7379 0.25665 0.0
C1294 C 0.67335 0.72607 0.26058 0.0
C1295 C 0.68384 0.71707 0.25166 0.0
C1296 C 0.68097 0.71991 0.23878 0.0
C1297 C 0.66762 0.73179 0.23479 0.0
C1298 C 0.65708 0.74081 0.24368 0.0
C1299 C 0.64541 0.82341 0.28666 0.0
C1300 C 0.63958 0.83351 0.27625 0.0
C1301 C 0.64577 0.80474 0.28606 0.0
C1302 C 0.64 0.7958 0.27512 0.0
C1303 C 0.63487 0.80587 0.26452 0.0
C1304 C 0.63466 0.82461 0.26508 0.0
C1305 C 0.63865 0.77597 0.27502 0.0
C1306 C 0.64818 0.76624 0.26588 0.0
C1307 C 0.62866 0.76667 0.2843 0.0
C1308 C 0.61758 0.77621 0.29381 0.0
C1309 C 0.6043 0.78848 0.29001 0.0
C1310 C 0.59425 0.79778 0.29902 0.0
C1311 C 0.59726 0.79484 0.31188 0.0
C1312 C 0.61028 0.78253 0.31575 0.0
C1313 C 0.62037 0.7732 0.30677 0.0
H1314 H 0.58948 0.80207 0.31884 0.0
H1315 H 0.6891 0.71294 0.23189 0.0
H1316 H 0.42804 0.3712 0.50554 0.0
H1317 H 0.46047 0.37254 0.50181 0.0
H1318 H 0.46682 0.40533 0.53511 0.0
H1319 H 0.43451 0.4046 0.53856 0.0
H1320 H 0.48831 0.41704 0.51771 0.0
H1321 H 0.47396 0.35848 0.53483 0.0
H1322 H 0.45852 0.32922 0.53511 0.0
H1323 H 0.48142 0.3161 0.49908 0.0
H1324 H 0.49682 0.3454 0.49852 0.0
H1325 H 0.57403 0.3968 0.54186 0.0
H1326 H 0.54192 0.39933 0.5376 0.0
H1327 H 0.54954 0.37487 0.50109 0.0
H1328 H 0.58186 0.37245 0.50524 0.0
H1329 H 0.52162 0.3595 0.51579 0.0
H1330 H 0.54051 0.41707 0.50136 0.0
H1331 H 0.55675 0.44581 0.50271 0.0
H1332 H 0.5259 0.4605 0.53532 0.0
H1333 H 0.50968 0.43171 0.53431 0.0
C1334 C 0.43638 0.37881 0.51198 0.0
C1335 C 0.42879 0.38769 0.52239 0.0
C1336 C 0.45489 0.37953 0.50987 0.0
C1337 C 0.46614 0.38881 0.5183 0.0
C1338 C 0.45845 0.3981 0.52847 0.0
C1339 C 0.43997 0.39761 0.53046 0.0
C1340 C 0.48598 0.38824 0.51701 0.0
C1341 C 0.49558 0.40445 0.51732 0.0
C1342 C 0.49551 0.37184 0.51619 0.0
C1343 C 0.48635 0.3542 0.51656 0.0
C1344 C 0.4756 0.3494 0.52693 0.0
C1345 C 0.46687 0.33281 0.52714 0.0
C1346 C 0.46894 0.32084 0.5171 0.0
C1347 C 0.47979 0.32541 0.50684 0.0
C1348 C 0.48853 0.342 0.50657 0.0
C1349 C 0.5689 0.39208 0.53288 0.0
C1350 C 0.58041 0.38443 0.52388 0.0
C1351 C 0.55058 0.3936 0.53044 0.0
C1352 C 0.54343 0.38741 0.51899 0.0
C1353 C 0.55487 0.37978 0.50995 0.0
C1354 C 0.57328 0.37846 0.51233 0.0
C1355 C 0.52384 0.38824 0.51684 0.0
C1356 C 0.51431 0.37209 0.5159 0.0
C1357 C 0.51441 0.40467 0.51726 0.0
C1358 C 0.52394 0.42215 0.51779 0.0
C1359 C 0.53727 0.42637 0.50887 0.0
C1360 C 0.54646 0.44268 0.50957 0.0
C1361 C 0.54237 0.45496 0.5191 0.0
C1362 C 0.52905 0.45097 0.52794 0.0
C1363 C 0.51983 0.43467 0.5273 0.0
H1364 H 0.5495 0.46759 0.51962 0.0
H1365 H 0.46217 0.308 0.51728 0.0
H1366 H 0.84529 0.32614 0.78232 0.0
H1367 H 0.84525 0.29342 0.78124 0.0
H1368 H 0.89918 0.29418 0.7665 0.0
H1369 H 0.89928 0.32703 0.76747 0.0
H1370 H 0.87786 0.26911 0.75452 0.0
H1371 H 0.89342 0.28568 0.79667 0.0
H1372 H 0.89009 0.30163 0.81693 0.0
H1373 H 0.83943 0.27573 0.82314 0.0
H1374 H 0.84233 0.25979 0.80281 0.0
H1375 H 0.9007 0.17873 0.77055 0.0
H1376 H 0.89973 0.21142 0.76854 0.0
H1377 H 0.84536 0.21163 0.78246 0.0
H1378 H 0.84621 0.17894 0.78447 0.0
H1379 H 0.8672 0.23622 0.79456 0.0
H1380 H 0.85268 0.21894 0.75205 0.0
H1381 H 0.8572 0.20298 0.73191 0.0
H1382 H 0.90747 0.23007 0.72663 0.0
H1383 H 0.90337 0.24601 0.74683 0.0
C1384 C 0.85708 0.31936 0.77873 0.0
C1385 C 0.87234 0.32912 0.77506 0.0
C1386 C 0.85705 0.30067 0.77815 0.0
C1387 C 0.8723 0.29139 0.77395 0.0
C1388 C 0.8873 0.30111 0.76979 0.0
C1389 C 0.88735 0.31984 0.77038 0.0
C1390 C 0.8728 0.27156 0.77446 0.0
C1391 C 0.87574 0.26189 0.76329 0.0
C1392 C 0.86981 0.2622 0.78589 0.0
C1393 C 0.86801 0.27167 0.79816 0.0
C1394 C 0.8815 0.28349 0.80231 0.0
C1395 C 0.8797 0.29251 0.81381 0.0
C1396 C 0.86455 0.28972 0.8213 0.0
C1397 C 0.85115 0.27788 0.81732 0.0
C1398 C 0.85287 0.26884 0.80581 0.0
C1399 C 0.8885 0.18574 0.77309 0.0
C1400 C 0.87353 0.17631 0.77767 0.0
C1401 C 0.88795 0.20439 0.77191 0.0
C1402 C 0.87244 0.21391 0.7753 0.0
C1403 C 0.85745 0.20451 0.77979 0.0
C1404 C 0.85794 0.18585 0.7809 0.0
C1405 C 0.87208 0.23373 0.7746 0.0
C1406 C 0.86925 0.24341 0.78577 0.0
C1407 C 0.87533 0.24307 0.76319 0.0
C1408 C 0.8778 0.23354 0.75102 0.0
C1409 C 0.86478 0.22138 0.74665 0.0
C1410 C 0.86725 0.21236 0.73521 0.0
C1411 C 0.88264 0.21547 0.72801 0.0
C1412 C 0.89557 0.22765 0.73222 0.0
C1413 C 0.89317 0.2367 0.74366 0.0
H1414 H 0.88452 0.20847 0.71916 0.0
H1415 H 0.86323 0.29668 0.83021 0.0
H1416 H 0.92808 0.40149 0.95353 0.0
H1417 H 0.96071 0.40302 0.95508 0.0
H1418 H 0.95878 0.37484 0.99064 0.0
H1419 H 0.92596 0.37385 0.98934 0.0
H1420 H 0.98344 0.40031 0.99162 0.0
H1421 H 0.96935 0.35298 0.96288 0.0
H1422 H 0.9548 0.33883 0.94449 0.0
H1423 H 0.98143 0.37577 0.91969 0.0
H1424 H 0.99596 0.39031 0.93796 0.0
H1425 H 0.07624 0.37281 0.9881 0.0
H1426 H 0.04344 0.37382 0.98977 0.0
H1427 H 0.041 0.40711 0.95651 0.0
H1428 H 0.07366 0.40617 0.95478 0.0
H1429 H 0.0187 0.37774 0.95522 0.0
H1430 H 0.03278 0.42492 0.98479 0.0
H1431 H 0.04749 0.43789 0.00355 0.0
H1432 H 0.02129 0.39921 0.02724 0.0
H1433 H 0.00661 0.38585 0.00859 0.0
C1434 C 0.9346 0.39572 0.96172 0.0
C1435 C 0.92452 0.38741 0.97126 0.0
C1436 C 0.95326 0.39653 0.96257 0.0
C1437 C 0.96223 0.3887 0.97284 0.0
C1438 C 0.95215 0.3809 0.9826 0.0
C1439 C 0.93342 0.3803 0.98184 0.0
C1440 C 0.98214 0.38823 0.97316 0.0
C1441 C 0.99116 0.39514 0.98374 0.0
C1442 C 0.99223 0.38163 0.96282 0.0
C1443 C 0.98362 0.37283 0.9518 0.0
C1444 C 0.97201 0.35816 0.95351 0.0
C1445 C 0.96378 0.35006 0.94311 0.0
C1446 C 0.96715 0.35642 0.93094 0.0
C1447 C 0.97881 0.37087 0.92913 0.0
C1448 C 0.98706 0.37903 0.9395 0.0
C1449 C 0.06871 0.38051 0.98124 0.0
C1450 C 0.07749 0.38936 0.97129 0.0
C1451 C 0.05 0.38112 0.98223 0.0
C1452 C 0.03983 0.39056 0.97327 0.0
C1453 C 0.04862 0.39972 0.9635 0.0
C1454 C 0.06728 0.39921 0.96255 0.0
C1455 C 0.01997 0.3901 0.97356 0.0
C1456 C 0.01097 0.38288 0.9631 0.0
C1457 C 0.00997 0.39621 0.98406 0.0
C1458 C 0.01875 0.40427 0.99528 0.0
C1459 C 0.03028 0.41908 0.99399 0.0
C1460 C 0.03858 0.42653 0.0046 0.0
C1461 C 0.03536 0.41935 0.01657 0.0
C1462 C 0.02379 0.40474 0.01796 0.0
C1463 C 0.01546 0.39724 0.00737 0.0
H1464 H 0.0418 0.42513 0.02478 0.0
H1465 H 0.96076 0.35014 0.9229 0.0
H1466 H 0.83552 0.82983 0.2212 0.0
H1467 H 0.83281 0.7975 0.22445 0.0
H1468 H 0.88568 0.79646 0.24109 0.0
H1469 H 0.88816 0.82889 0.23825 0.0
H1470 H 0.85135 0.77341 0.21347 0.0
H1471 H 0.89112 0.76044 0.25999 0.0
H1472 H 0.89561 0.77479 0.28074 0.0
H1473 H 0.84501 0.8018 0.27713 0.0
H1474 H 0.84009 0.78743 0.25645 0.0
H1475 H 0.88741 0.6877 0.21254 0.0
H1476 H 0.88407 0.71989 0.21586 0.0
H1477 H 0.8453 0.70996 0.24527 0.0
H1478 H 0.84885 0.67753 0.24215 0.0
H1479 H 0.86748 0.7378 0.25138 0.0
H1480 H 0.83065 0.72092 0.21659 0.0
H1481 H 0.82352 0.70627 0.19632 0.0
H1482 H 0.86263 0.73904 0.17754 0.0
H1483 H 0.87019 0.7537 0.19773 0.0
C1484 C 0.84641 0.82274 0.22579 0.0
C1485 C 0.86208 0.83182 0.22942 0.0
C1486 C 0.84486 0.80427 0.22762 0.0
C1487 C 0.85902 0.7945 0.23304 0.0
C1488 C 0.87443 0.8037 0.2371 0.0
C1489 C 0.87588 0.82223 0.23542 0.0
C1490 C 0.85843 0.77459 0.2332 0.0
C1491 C 0.85475 0.76568 0.22181 0.0
C1492 C 0.86257 0.7644 0.2441 0.0
C1493 C 0.86532 0.77295 0.25661 0.0
C1494 C 0.88091 0.76937 0.26365 0.0
C1495 C 0.88353 0.77753 0.27539 0.0
C1496 C 0.87062 0.78924 0.28023 0.0
C1497 C 0.85503 0.79278 0.27335 0.0
C1498 C 0.85233 0.78465 0.26161 0.0
C1499 C 0.87828 0.69234 0.21979 0.0
C1500 C 0.86825 0.68012 0.227 0.0
C1501 C 0.87636 0.71074 0.22166 0.0
C1502 C 0.8642 0.71731 0.23066 0.0
C1503 C 0.85471 0.70515 0.23825 0.0
C1504 C 0.85671 0.68666 0.23643 0.0
C1505 C 0.8609 0.73686 0.23159 0.0
C1506 C 0.86389 0.74563 0.24313 0.0
C1507 C 0.8557 0.74697 0.2209 0.0
C1508 C 0.85107 0.73832 0.2087 0.0
C1509 C 0.83781 0.72493 0.20815 0.0
C1510 C 0.83368 0.71663 0.19668 0.0
C1511 C 0.84264 0.7217 0.18566 0.0
C1512 C 0.85571 0.73512 0.18608 0.0
C1513 C 0.85991 0.74344 0.19754 0.0
H1514 H 0.83943 0.71526 0.17678 0.0
H1515 H 0.87269 0.79555 0.28932 0.0
H1516 H 0.42612 0.63834 0.49263 0.0
H1517 H 0.45858 0.63688 0.49634 0.0
H1518 H 0.4648 0.60461 0.46281 0.0
H1519 H 0.43253 0.60585 0.45914 0.0
H1520 H 0.48392 0.59116 0.4823 0.0
H1521 H 0.4744 0.64911 0.46268 0.0
H1522 H 0.46095 0.67924 0.46108 0.0
H1523 H 0.48356 0.69349 0.497 0.0
H1524 H 0.49693 0.66333 0.49889 0.0
H1525 H 0.57221 0.60115 0.4607 0.0
H1526 H 0.53987 0.60128 0.4642 0.0
H1527 H 0.54728 0.63189 0.49838 0.0
H1528 H 0.57984 0.63184 0.4949 0.0
H1529 H 0.52131 0.64621 0.4829 0.0
H1530 H 0.53466 0.58927 0.50078 0.0
H1531 H 0.54829 0.5592 0.50192 0.0
H1532 H 0.51869 0.54294 0.46907 0.0
H1533 H 0.50508 0.573 0.46762 0.0
C1534 C 0.43444 0.63095 0.48607 0.0
C1535 C 0.42683 0.62226 0.47558 0.0
C1536 C 0.45296 0.63014 0.48819 0.0
C1537 C 0.4641 0.62069 0.47982 0.0
C1538 C 0.45645 0.61191 0.46941 0.0
C1539 C 0.43801 0.61272 0.4673 0.0
C1540 C 0.48379 0.62003 0.48165 0.0
C1541 C 0.49212 0.60319 0.48239 0.0
C1542 C 0.4944 0.63575 0.48218 0.0
C1543 C 0.48647 0.6539 0.481 0.0
C1544 C 0.47638 0.65862 0.47028 0.0
C1545 C 0.46879 0.67571 0.46931 0.0
C1546 C 0.47135 0.68825 0.47895 0.0
C1547 C 0.48155 0.68375 0.48956 0.0
C1548 C 0.48914 0.66666 0.49058 0.0
C1549 C 0.56699 0.60774 0.46904 0.0
C1550 C 0.57853 0.61647 0.47753 0.0
C1551 C 0.54851 0.60775 0.47106 0.0
C1552 C 0.5412 0.61647 0.48161 0.0
C1553 C 0.55269 0.62504 0.49021 0.0
C1554 C 0.57125 0.62494 0.48823 0.0
C1555 C 0.52147 0.61731 0.48316 0.0
C1556 C 0.51312 0.63418 0.48307 0.0
C1557 C 0.51082 0.60161 0.48319 0.0
C1558 C 0.51892 0.58345 0.48405 0.0
C1559 C 0.53115 0.57933 0.49374 0.0
C1560 C 0.53886 0.56228 0.49446 0.0
C1561 C 0.53438 0.54918 0.48557 0.0
C1562 C 0.52215 0.5531 0.47596 0.0
C1563 C 0.51441 0.57014 0.47519 0.0
H1564 H 0.54036 0.53598 0.48613 0.0
H1565 H 0.46546 0.70147 0.47818 0.0
H1566 H 0.65016 0.18253 0.70566 0.0
H1567 H 0.6526 0.21461 0.70969 0.0
H1568 H 0.63913 0.20596 0.74883 0.0
H1569 H 0.63653 0.17363 0.74482 0.0
H1570 H 0.61965 0.23307 0.7385 0.0
H1571 H 0.68119 0.21785 0.74141 0.0
H1572 H 0.70969 0.20356 0.73525 0.0
H1573 H 0.71038 0.23408 0.70089 0.0
H1574 H 0.68174 0.24837 0.70674 0.0
H1575 H 0.63396 0.32818 0.74548 0.0
H1576 H 0.63749 0.29582 0.74903 0.0
H1577 H 0.64874 0.2883 0.70943 0.0
H1578 H 0.64522 0.32042 0.70583 0.0
H1579 H 0.67196 0.26934 0.72482 0.0
H1580 H 0.60784 0.27998 0.72058 0.0
H1581 H 0.5791 0.29395 0.72659 0.0
H1582 H 0.58369 0.27175 0.76385 0.0
H1583 H 0.61261 0.25783 0.7581 0.0
C1584 C 0.64787 0.1874 0.71516 0.0
C1585 C 0.64316 0.17558 0.72493 0.0
C1586 C 0.64937 0.20574 0.71747 0.0
C1587 C 0.64626 0.21265 0.7296 0.0
C1588 C 0.64167 0.20087 0.73942 0.0
C1589 C 0.64024 0.18244 0.73712 0.0
C1590 C 0.64687 0.23229 0.73167 0.0
C1591 C 0.63125 0.24099 0.73582 0.0
C1592 C 0.66194 0.24262 0.72806 0.0
C1593 C 0.67924 0.23412 0.72449 0.0
C1594 C 0.68734 0.22143 0.73249 0.0
C1595 C 0.70354 0.21334 0.72907 0.0
C1596 C 0.71183 0.21789 0.71768 0.0
C1597 C 0.70395 0.23057 0.70971 0.0
C1598 C 0.68774 0.23869 0.71309 0.0
C1599 C 0.63726 0.3196 0.73757 0.0
C1600 C 0.63923 0.32678 0.72537 0.0
C1601 C 0.63926 0.30116 0.7396 0.0
C1602 C 0.64332 0.2897 0.72948 0.0
C1603 C 0.64566 0.29693 0.71737 0.0
C1604 C 0.64355 0.31527 0.71532 0.0
C1605 C 0.64457 0.27004 0.73123 0.0
C1606 C 0.66054 0.26137 0.7278 0.0
C1607 C 0.62985 0.25975 0.73553 0.0
C1608 C 0.61248 0.26807 0.73897 0.0
C1609 C 0.60279 0.27821 0.73009 0.0
C1610 C 0.58646 0.28609 0.73344 0.0
C1611 C 0.5796 0.28379 0.74561 0.0
C1612 C 0.58904 0.27356 0.75444 0.0
C1613 C 0.6054 0.26567 0.75114 0.0
H1614 H 0.56695 0.2899 0.74818 0.0
H1615 H 0.72437 0.21161 0.71505 0.0
H1616 H 0.36949 0.32838 0.73989 0.0
H1617 H 0.3669 0.29568 0.74141 0.0
H1618 H 0.37535 0.29124 0.70123 0.0
H1619 H 0.37775 0.32381 0.69963 0.0
H1620 H 0.34785 0.27036 0.70898 0.0
H1621 H 0.40889 0.28228 0.72206 0.0
H1622 H 0.43228 0.29639 0.7352 0.0
H1623 H 0.4096 0.27232 0.76838 0.0
H1624 H 0.38592 0.25825 0.75544 0.0
H1625 H 0.37428 0.18106 0.69918 0.0
H1626 H 0.37258 0.21363 0.70101 0.0
H1627 H 0.3644 0.20883 0.74119 0.0
H1628 H 0.3663 0.17608 0.73944 0.0
H1629 H 0.38901 0.23434 0.73567 0.0
H1630 H 0.32969 0.22 0.72235 0.0
H1631 H 0.30643 0.2057 0.70921 0.0
H1632 H 0.32552 0.23422 0.67667 0.0
H1633 H 0.34908 0.2485 0.68957 0.0
C1634 C 0.37082 0.32041 0.7314 0.0
C1635 C 0.37388 0.32863 0.71965 0.0
C1636 C 0.36937 0.30175 0.73228 0.0
C1637 C 0.37104 0.29103 0.72143 0.0
C1638 C 0.37398 0.29926 0.7097 0.0
C1639 C 0.37543 0.31786 0.70882 0.0
C1640 C 0.36979 0.27123 0.7222 0.0
C1641 C 0.35694 0.26247 0.71474 0.0
C1642 C 0.38126 0.26099 0.73004 0.0
C1643 C 0.39552 0.26939 0.73781 0.0
C1644 C 0.4088 0.28012 0.73217 0.0
C1645 C 0.42213 0.28809 0.73958 0.0
C1646 C 0.42239 0.2853 0.75262 0.0
C1647 C 0.40935 0.2745 0.75828 0.0
C1648 C 0.39599 0.26652 0.75092 0.0
C1649 C 0.37204 0.18691 0.7084 0.0
C1650 C 0.37038 0.17604 0.71917 0.0
C1651 C 0.37099 0.20553 0.70943 0.0
C1652 C 0.36814 0.21364 0.72122 0.0
C1653 C 0.36654 0.20282 0.73201 0.0
C1654 C 0.36759 0.18415 0.73098 0.0
C1655 C 0.36734 0.23345 0.72222 0.0
C1656 C 0.37978 0.24223 0.73003 0.0
C1657 C 0.35546 0.24372 0.71472 0.0
C1658 C 0.34125 0.23522 0.70692 0.0
C1659 C 0.32902 0.22313 0.71237 0.0
C1660 C 0.31576 0.21504 0.70497 0.0
C1661 C 0.31452 0.21902 0.69211 0.0
C1662 C 0.32651 0.23114 0.68663 0.0
C1663 C 0.3398 0.23925 0.69399 0.0
H1664 H 0.30425 0.21274 0.68639 0.0
H1665 H 0.43272 0.29148 0.75834 0.0
H1666 H 0.12298 0.67754 0.20336 0.0
H1667 H 0.12549 0.71014 0.20451 0.0
H1668 H 0.14615 0.70605 0.24245 0.0
H1669 H 0.14358 0.67327 0.2414 0.0
H1670 H 0.11982 0.73235 0.23978 0.0
H1671 H 0.17461 0.71503 0.21922 0.0
H1672 H 0.19248 0.6989 0.20325 0.0
H1673 H 0.16526 0.72727 0.17363 0.0
H1674 H 0.14707 0.74343 0.18942 0.0
H1675 H 0.14224 0.82541 0.24109 0.0
H1676 H 0.14383 0.79265 0.24262 0.0
H1677 H 0.13039 0.78828 0.20309 0.0
H1678 H 0.12944 0.82087 0.20143 0.0
H1679 H 0.15574 0.76583 0.20818 0.0
H1680 H 0.09926 0.78087 0.22754 0.0
H1681 H 0.07931 0.79611 0.24269 0.0
H1682 H 0.10742 0.77156 0.27358 0.0
H1683 H 0.12769 0.75635 0.25859 0.0
C1684 C 0.12807 0.68356 0.21195 0.0
C1685 C 0.13314 0.67288 0.22228 0.0
C1686 C 0.12955 0.70218 0.21258 0.0
C1687 C 0.13619 0.71047 0.22352 0.0
C1688 C 0.14105 0.69987 0.23392 0.0
C1689 C 0.13962 0.68119 0.23328 0.0
C1690 C 0.13792 0.73023 0.22402 0.0
C1691 C 0.12793 0.73971 0.23304 0.0
C1692 C 0.14818 0.73975 0.21502 0.0
C1693 C 0.15941 0.73037 0.20551 0.0
C1694 C 0.17238 0.71778 0.2093 0.0
C1695 C 0.18257 0.70864 0.20028 0.0
C1696 C 0.17999 0.71204 0.18744 0.0
C1697 C 0.16725 0.72466 0.18359 0.0
C1698 C 0.15702 0.73384 0.19257 0.0
C1699 C 0.13965 0.81742 0.23275 0.0
C1700 C 0.13568 0.82566 0.22115 0.0
C1701 C 0.14049 0.79872 0.23364 0.0
C1702 C 0.13703 0.78797 0.223 0.0
C1703 C 0.13316 0.79626 0.21142 0.0
C1704 C 0.13256 0.8149 0.21049 0.0
C1705 C 0.13736 0.76809 0.22381 0.0
C1706 C 0.14777 0.75854 0.21504 0.0
C1707 C 0.12728 0.75852 0.23294 0.0
C1708 C 0.11512 0.76765 0.24195 0.0
C1709 C 0.10127 0.77884 0.23756 0.0
C1710 C 0.08989 0.78745 0.24612 0.0
C1711 C 0.09213 0.78485 0.25909 0.0
C1712 C 0.10573 0.77359 0.26353 0.0
C1713 C 0.11716 0.76497 0.25501 0.0
H1714 H 0.0833 0.79152 0.2657 0.0
H1715 H 0.18787 0.70493 0.18047 0.0
H1716 H 0.12023 0.18602 0.79473 0.0
H1717 H 0.11626 0.21804 0.79122 0.0
H1718 H 0.12141 0.20999 0.75103 0.0
H1719 H 0.12581 0.17774 0.75454 0.0
H1720 H 0.14108 0.23787 0.75854 0.0
H1721 H 0.08051 0.22013 0.76399 0.0
H1722 H 0.05486 0.20474 0.77391 0.0
H1723 H 0.06239 0.23554 0.80775 0.0
H1724 H 0.08825 0.25095 0.79811 0.0
H1725 H 0.12167 0.33229 0.75377 0.0
H1726 H 0.11839 0.29982 0.75066 0.0
H1727 H 0.11771 0.29213 0.79103 0.0
H1728 H 0.12093 0.32436 0.79418 0.0
H1729 H 0.09197 0.27208 0.77902 0.0
H1730 H 0.15562 0.28554 0.77433 0.0
H1731 H 0.18144 0.30063 0.76438 0.0
H1732 H 0.16736 0.27762 0.72855 0.0
H1733 H 0.14131 0.26257 0.73828 0.0
C1734 C 0.12039 0.19101 0.78513 0.0
C1735 C 0.12328 0.17937 0.77491 0.0
C1736 C 0.11801 0.20932 0.78312 0.0
C1737 C 0.11822 0.21639 0.77084 0.0
C1738 C 0.12109 0.2048 0.76058 0.0
C1739 C 0.12356 0.18641 0.7626 0.0
C1740 C 0.1163 0.23602 0.76894 0.0
C1741 C 0.1301 0.24532 0.76275 0.0
C1742 C 0.10205 0.24577 0.77451 0.0
C1743 C 0.08639 0.23664 0.78033 0.0
C1744 C 0.07677 0.22355 0.77358 0.0
C1745 C 0.06218 0.21483 0.77915 0.0
C1746 C 0.05702 0.21914 0.79146 0.0
C1747 C 0.06641 0.23222 0.79821 0.0
C1748 C 0.08101 0.24098 0.79269 0.0
C1749 C 0.1207 0.32365 0.76196 0.0
C1750 C 0.12163 0.33083 0.77422 0.0
C1751 C 0.11886 0.30514 0.76017 0.0
C1752 C 0.11791 0.29358 0.77062 0.0
C1753 C 0.11838 0.30081 0.78284 0.0
C1754 C 0.1203 0.31923 0.78463 0.0
C1755 C 0.11704 0.27386 0.76903 0.0
C1756 C 0.1027 0.26457 0.77456 0.0
C1757 C 0.13073 0.26413 0.76281 0.0
C1758 C 0.1464 0.27313 0.75699 0.0
C1759 C 0.15795 0.28383 0.76431 0.0
C1760 C 0.17264 0.29235 0.75871 0.0
C1761 C 0.176 0.29014 0.74583 0.0
C1762 C 0.16471 0.27936 0.73852 0.0
C1763 C 0.14999 0.27083 0.74407 0.0
H1764 H 0.18738 0.29674 0.74152 0.0
H1765 H 0.04572 0.21237 0.79576 0.0
H1766 H 0.36707 0.6735 0.25478 0.0
H1767 H 0.36584 0.70578 0.25013 0.0
H1768 H 0.35722 0.71687 0.28964 0.0
H1769 H 0.35837 0.68491 0.29431 0.0
H1770 H 0.33526 0.73681 0.27465 0.0
H1771 H 0.39844 0.72045 0.27674 0.0
H1772 H 0.42525 0.70362 0.26997 0.0
H1773 H 0.41965 0.72462 0.23243 0.0
H1774 H 0.39264 0.74139 0.23895 0.0
H1775 H 0.36715 0.82055 0.29244 0.0
H1776 H 0.36308 0.78858 0.28863 0.0
H1777 H 0.36976 0.79704 0.24862 0.0
H1778 H 0.37379 0.82934 0.25238 0.0
H1779 H 0.38962 0.76754 0.25843 0.0
H1780 H 0.32955 0.7887 0.25797 0.0
H1781 H 0.30342 0.80598 0.26539 0.0
H1782 H 0.30323 0.77624 0.3001 0.0
H1783 H 0.32956 0.75896 0.29298 0.0
C1784 C 0.36477 0.68286 0.26243 0.0
C1785 C 0.36289 0.67672 0.27491 0.0
C1786 C 0.36412 0.70125 0.25977 0.0
C1787 C 0.36152 0.7137 0.26956 0.0
C1788 C 0.35917 0.7075 0.28195 0.0
C1789 C 0.35992 0.68922 0.2846 0.0
C1790 C 0.3619 0.73328 0.26722 0.0
C1791 C 0.34712 0.74354 0.27107 0.0
C1792 C 0.37717 0.742 0.26218 0.0
C1793 C 0.3934 0.73197 0.25828 0.0
C1794 C 0.40284 0.72135 0.26701 0.0
C1795 C 0.41808 0.71185 0.26323 0.0
C1796 C 0.42411 0.713 0.25076 0.0
C1797 C 0.41493 0.7237 0.24207 0.0
C1798 C 0.39966 0.73321 0.2458 0.0
C1799 C 0.36776 0.81566 0.28282 0.0
C1800 C 0.37074 0.82744 0.2727 0.0
C1801 C 0.36535 0.79739 0.28065 0.0
C1802 C 0.36591 0.7905 0.26834 0.0
C1803 C 0.3692 0.80215 0.25819 0.0
C1804 C 0.37146 0.82055 0.26035 0.0
C1805 C 0.36323 0.77104 0.26632 0.0
C1806 C 0.37756 0.76081 0.26166 0.0
C1807 C 0.34755 0.76233 0.27065 0.0
C1808 C 0.3316 0.77258 0.27496 0.0
C1809 C 0.32402 0.78592 0.26722 0.0
C1810 C 0.30916 0.7957 0.27137 0.0
C1811 C 0.30168 0.79222 0.28321 0.0
C1812 C 0.30904 0.77892 0.29092 0.0
C1813 C 0.32391 0.7691 0.28683 0.0
H1814 H 0.29017 0.79982 0.28641 0.0
H1815 H 0.43592 0.70564 0.24785 0.0
H1816 H 0.42949 0.09746 0.53704 0.0
H1817 H 0.46221 0.09839 0.53665 0.0
H1818 H 0.46045 0.14737 0.51502 0.0
H1819 H 0.42754 0.14643 0.51527 0.0
H1820 H 0.48603 0.12375 0.50625 0.0
H1821 H 0.46845 0.14926 0.54596 0.0
H1822 H 0.45238 0.15019 0.5663 0.0
H1823 H 0.48006 0.10276 0.57846 0.0
H1824 H 0.49609 0.10136 0.55811 0.0
H1825 H 0.57744 0.14691 0.51721 0.0
H1826 H 0.54465 0.1473 0.51623 0.0
H1827 H 0.54266 0.09932 0.53895 0.0
H1828 H 0.57544 0.09898 0.54009 0.0
H1829 H 0.51885 0.12391 0.54704 0.0
H1830 H 0.53541 0.09744 0.5074 0.0
H1831 H 0.55122 0.09563 0.487 0.0
H1832 H 0.52545 0.14408 0.47473 0.0
H1833 H 0.50966 0.14631 0.49514 0.0
C1834 C 0.43605 0.10837 0.53212 0.0
C1835 C 0.42598 0.12194 0.52624 0.0
C1836 C 0.45474 0.10892 0.53195 0.0
C1837 C 0.46372 0.1231 0.52598 0.0
C1838 C 0.45373 0.13636 0.51973 0.0
C1839 C 0.43498 0.13582 0.51989 0.0
C1840 C 0.48354 0.12416 0.52651 0.0
C1841 C 0.49323 0.12408 0.51516 0.0
C1842 C 0.49287 0.1242 0.53815 0.0
C1843 C 0.48336 0.12512 0.55045 0.0
C1844 C 0.47102 0.13895 0.55293 0.0
C1845 C 0.46193 0.13957 0.56447 0.0
C1846 C 0.46517 0.12652 0.57365 0.0
C1847 C 0.47755 0.11285 0.57133 0.0
C1848 C 0.48665 0.11214 0.5598 0.0
C1849 C 0.57001 0.13644 0.52198 0.0
C1850 C 0.57898 0.12289 0.5287 0.0
C1851 C 0.55129 0.13664 0.52137 0.0
C1852 C 0.54123 0.12324 0.52742 0.0
C1853 C 0.55017 0.10978 0.53421 0.0
C1854 C 0.56888 0.10957 0.53482 0.0
C1855 C 0.52138 0.12333 0.52678 0.0
C1856 C 0.51167 0.12367 0.53812 0.0
C1857 C 0.51204 0.12346 0.51514 0.0
C1858 C 0.5215 0.12215 0.50285 0.0
C1859 C 0.53323 0.10779 0.5004 0.0
C1860 C 0.54217 0.10667 0.48882 0.0
C1861 C 0.53939 0.11976 0.47959 0.0
C1862 C 0.52762 0.13397 0.4819 0.0
C1863 C 0.51866 0.13516 0.49347 0.0
H1864 H 0.54631 0.11886 0.47063 0.0
H1865 H 0.45813 0.12702 0.58258 0.0
H1866 H 0.92761 0.88602 0.00739 0.0
H1867 H 0.96035 0.88707 0.00537 0.0
H1868 H 0.96563 0.87898 0.04554 0.0
H1869 H 0.93303 0.87816 0.04764 0.0
H1870 H 0.98735 0.90519 0.0376 0.0
H1871 H 0.9728 0.84493 0.02463 0.0
H1872 H 0.95751 0.82193 0.01181 0.0
H1873 H 0.98141 0.84344 0.97818 0.0
H1874 H 0.99666 0.86673 0.9908 0.0
H1875 H 0.0747 0.87247 0.04633 0.0
H1876 H 0.04215 0.87421 0.04413 0.0
H1877 H 0.04806 0.89108 0.00541 0.0
H1878 H 0.08087 0.88961 0.00759 0.0
H1879 H 0.02107 0.86308 0.01016 0.0
H1880 H 0.03786 0.92182 0.02389 0.0
H1881 H 0.05371 0.9438 0.03724 0.0
H1882 H 0.0258 0.92428 0.06993 0.0
H1883 H 0.00999 0.90198 0.0568 0.0
C1884 C 0.93577 0.88444 0.01577 0.0
C1885 C 0.92778 0.88198 0.02767 0.0
C1886 C 0.95446 0.88499 0.01461 0.0
C1887 C 0.96542 0.88299 0.0253 0.0
C1888 C 0.95742 0.88059 0.03717 0.0
C1889 C 0.93879 0.88006 0.03835 0.0
C1890 C 0.98525 0.88348 0.02425 0.0
C1891 C 0.99471 0.89591 0.03165 0.0
C1892 C 0.99484 0.87169 0.01623 0.0
C1893 C 0.98569 0.8577 0.00864 0.0
C1894 C 0.97467 0.84485 0.01449 0.0
C1895 C 0.96604 0.83175 0.00726 0.0
C1896 C 0.96844 0.83126 0.99418 0.0
C1897 C 0.97953 0.84386 0.98831 0.0
C1898 C 0.98818 0.85701 0.99549 0.0
C1899 C 0.0691 0.87649 0.03732 0.0
C1900 C 0.0803 0.88096 0.02713 0.0
C1901 C 0.05052 0.87751 0.03609 0.0
C1902 C 0.04277 0.88287 0.02464 0.0
C1903 C 0.05385 0.88693 0.01432 0.0
C1904 C 0.07253 0.88613 0.01559 0.0
C1905 C 0.02306 0.88452 0.02369 0.0
C1906 C 0.01365 0.87252 0.01594 0.0
C1907 C 0.01349 0.89663 0.03144 0.0
C1908 C 0.02284 0.91013 0.03937 0.0
C1909 C 0.03521 0.92212 0.03394 0.0
C1910 C 0.04417 0.93465 0.04147 0.0
C1911 C 0.04079 0.93541 0.05443 0.0
C1912 C 0.02841 0.92367 0.05989 0.0
C1913 C 0.01943 0.91109 0.0524 0.0
H1914 H 0.04774 0.94512 0.06025 0.0
H1915 H 0.96175 0.82111 0.98861 0.0
H1916 H 0.43521 0.86651 0.45616 0.0
H1917 H 0.4672 0.86395 0.46047 0.0
H1918 H 0.4586 0.88233 0.49861 0.0
H1919 H 0.4263 0.88505 0.49431 0.0
H1920 H 0.48722 0.8993 0.4868 0.0
H1921 H 0.46799 0.83932 0.49419 0.0
H1922 H 0.45179 0.81121 0.48968 0.0
H1923 H 0.48254 0.80409 0.45578 0.0
H1924 H 0.49875 0.83229 0.45998 0.0
H1925 H 0.58143 0.88293 0.49429 0.0
H1926 H 0.54907 0.88162 0.49839 0.0
H1927 H 0.54048 0.85971 0.46115 0.0
H1928 H 0.57264 0.86057 0.45715 0.0
H1929 H 0.52012 0.8429 0.47777 0.0
H1930 H 0.53461 0.90504 0.46811 0.0
H1931 H 0.55039 0.9337 0.47162 0.0
H1932 H 0.52834 0.93696 0.50899 0.0
H1933 H 0.51259 0.90819 0.50575 0.0
C1934 C 0.44007 0.86994 0.46549 0.0
C1935 C 0.42825 0.87593 0.47492 0.0
C1936 C 0.45836 0.86839 0.46796 0.0
C1937 C 0.46523 0.87271 0.47991 0.0
C1938 C 0.45351 0.87883 0.48935 0.0
C1939 C 0.43511 0.88034 0.48689 0.0
C1940 C 0.48477 0.87126 0.48222 0.0
C1941 C 0.49442 0.88687 0.48514 0.0
C1942 C 0.49412 0.85509 0.47989 0.0
C1943 C 0.48454 0.83798 0.47739 0.0
C1944 C 0.47123 0.83182 0.48574 0.0
C1945 C 0.46205 0.81586 0.48323 0.0
C1946 C 0.46612 0.80588 0.47244 0.0
C1947 C 0.47941 0.81183 0.46414 0.0
C1948 C 0.48862 0.82779 0.46659 0.0
C1949 C 0.57262 0.8777 0.48704 0.0
C1950 C 0.57953 0.87193 0.47538 0.0
C1951 C 0.55415 0.87702 0.48937 0.0
C1952 C 0.54234 0.87074 0.48003 0.0
C1953 C 0.54933 0.86456 0.46852 0.0
C1954 C 0.56772 0.86513 0.46622 0.0
C1955 C 0.52261 0.87108 0.48186 0.0
C1956 C 0.51292 0.85523 0.47974 0.0
C1957 C 0.51325 0.88705 0.48483 0.0
C1958 C 0.52261 0.90438 0.48674 0.0
C1959 C 0.53323 0.91181 0.47711 0.0
C1960 C 0.54215 0.92808 0.47904 0.0
C1961 C 0.54041 0.93711 0.49053 0.0
C1962 C 0.5297 0.92992 0.50011 0.0
C1963 C 0.52077 0.91365 0.49822 0.0
H1964 H 0.5473 0.94972 0.492 0.0
H1965 H 0.45899 0.79354 0.47052 0.0
H1966 H 0.07698 0.13242 0.98832 0.0
H1967 H 0.04421 0.13372 0.98991 0.0
H1968 H 0.03957 0.10551 0.95448 0.0
H1969 H 0.0722 0.10445 0.95274 0.0
H1970 H 0.01822 0.13396 0.95479 0.0
H1971 H 0.03095 0.08487 0.98288 0.0
H1972 H 0.04542 0.06992 0.00098 0.0
H1973 H 0.02186 0.10823 0.02629 0.0
H1974 H 0.00744 0.12357 0.00831 0.0
H1975 H 0.92722 0.10806 0.9554 0.0
H1976 H 0.96 0.1075 0.95615 0.0
H1977 H 0.95923 0.14029 0.98969 0.0
H1978 H 0.92636 0.14095 0.989 0.0
H1979 H 0.98315 0.11132 0.99126 0.0
H1980 H 0.96948 0.15961 0.9631 0.0
H1981 H 0.95468 0.1741 0.94495 0.0
H1982 H 0.98001 0.13684 0.9197 0.0
H1983 H 0.99475 0.12194 0.93773 0.0
C1984 C 0.06895 0.12637 0.98094 0.0
C1985 C 0.07713 0.11835 0.9704 0.0
C1986 C 0.05024 0.12708 0.98187 0.0
C1987 C 0.03944 0.11963 0.97234 0.0
C1988 C 0.04763 0.11139 0.96192 0.0
C1989 C 0.06628 0.11074 0.96097 0.0
C1990 C 0.0196 0.12092 0.97292 0.0
C1991 C 0.01056 0.12881 0.96271 0.0
C1992 C 0.00962 0.11469 0.98342 0.0
C1993 C 0.01828 0.10549 0.99423 0.0
C1994 C 0.02898 0.0902 0.99229 0.0
C1995 C 0.03715 0.08164 0.00253 0.0
C1996 C 0.03461 0.08815 0.01477 0.0
C1997 C 0.02385 0.10322 0.0168 0.0
C1998 C 0.01566 0.11185 0.00659 0.0
C1999 C 0.93402 0.11513 0.96295 0.0
C2000 C 0.92426 0.12461 0.97212 0.0
C2001 C 0.95273 0.11483 0.96335 0.0
C2002 C 0.96201 0.12397 0.97292 0.0
C2003 C 0.9523 0.13317 0.98223 0.0
C2004 C 0.93355 0.13358 0.98179 0.0
C2005 C 0.98186 0.12406 0.97304 0.0
C2006 C 0.99087 0.11651 0.98339 0.0
C2007 C 0.99184 0.13056 0.96266 0.0
C2008 C 0.98309 0.13956 0.95178 0.0
C2009 C 0.97178 0.15441 0.95368 0.0
C2010 C 0.96342 0.16272 0.94342 0.0
C2011 C 0.96637 0.15637 0.93118 0.0
C2012 C 0.97772 0.14173 0.92918 0.0
C2013 C 0.98609 0.13336 0.93942 0.0
H2014 H 0.95989 0.16282 0.92324 0.0
H2015 H 0.04094 0.0815 0.02268 0.0
H2016 H 0.16603 0.43833 0.96761 0.0
H2017 H 0.16935 0.46862 0.97618 0.0
H2018 H 0.13989 0.45291 0.00943 0.0
H2019 H 0.1364 0.42263 0.00085 0.0
H2020 H 0.12636 0.48293 0.99949 0.0
H2021 H 0.18498 0.46198 0.01063 0.0
H2022 H 0.21464 0.44832 0.00702 0.0
H2023 H 0.22757 0.48982 0.98044 0.0
H2024 H 0.19786 0.50361 0.98376 0.0
H2025 H 0.13887 0.55837 0.03768 0.0
H2026 H 0.14259 0.52816 0.02934 0.0
H2027 H 0.16477 0.54976 0.99498 0.0
H2028 H 0.16093 0.58037 0.00329 0.0
H2029 H 0.18274 0.51758 0.00457 0.0
H2030 H 0.12401 0.53848 0.99363 0.0
H2031 H 0.09452 0.55229 0.99767 0.0
H2032 H 0.08194 0.51051 0.02412 0.0
H2033 H 0.11151 0.49662 0.0204 0.0
C2034 C 0.16057 0.44122 0.97686 0.0
C2035 C 0.15094 0.42806 0.98355 0.0
C2036 C 0.1625 0.45857 0.98177 0.0
C2037 C 0.15489 0.4631 0.99348 0.0
C2038 C 0.14585 0.44977 0.00037 0.0
C2039 C 0.14395 0.43242 0.99549 0.0
C2040 C 0.15518 0.482 0.99811 0.0
C2041 C 0.13873 0.49037 0.00076 0.0
C2042 C 0.17126 0.49199 0.99939 0.0
C2043 C 0.18911 0.48372 0.99735 0.0
C2044 C 0.19407 0.46811 0.00393 0.0
C2045 C 0.21092 0.46036 0.00195 0.0
C2046 C 0.22296 0.46817 0.99348 0.0
C2047 C 0.21821 0.48377 0.98699 0.0
C2048 C 0.20138 0.49156 0.98892 0.0
C2049 C 0.14476 0.55678 0.0284 0.0
C2050 C 0.1495 0.57182 0.02111 0.0
C2051 C 0.14685 0.53945 0.02364 0.0
C2052 C 0.15378 0.53669 0.01149 0.0
C2053 C 0.15938 0.5516 0.00438 0.0
C2054 C 0.15716 0.56906 0.00913 0.0
C2055 C 0.15397 0.51828 0.00607 0.0
C2056 C 0.17042 0.51006 0.00325 0.0
C2057 C 0.13791 0.50836 0.00462 0.0
C2058 C 0.12005 0.5166 0.00682 0.0
C2059 C 0.11502 0.53232 0.00039 0.0
C2060 C 0.09828 0.54015 0.00261 0.0
C2061 C 0.08638 0.53231 0.01117 0.0
C2062 C 0.09119 0.51659 0.0175 0.0
C2063 C 0.10793 0.50872 0.01533 0.0
H2064 H 0.07343 0.53839 0.01287 0.0
H2065 H 0.236 0.46215 0.99197 0.0
H2066 H 0.83221 0.90798 0.2521 0.0
H2067 H 0.80177 0.9139 0.2598 0.0
H2068 H 0.7825 0.91552 0.22138 0.0
H2069 H 0.81288 0.91065 0.21371 0.0
H2070 H 0.7642 0.93797 0.23357 0.0
H2071 H 0.78009 0.87671 0.24141 0.0
H2072 H 0.79821 0.8518 0.2499 0.0
H2073 H 0.78903 0.87069 0.28765 0.0
H2074 H 0.77105 0.89587 0.27936 0.0
H2075 H 0.67488 0.90177 0.24486 0.0
H2076 H 0.70614 0.90661 0.23838 0.0
H2077 H 0.71875 0.92649 0.27554 0.0
H2078 H 0.68748 0.92222 0.28198 0.0
H2079 H 0.74029 0.89527 0.26528 0.0
H2080 H 0.72076 0.95545 0.25551 0.0
H2081 H 0.70118 0.9778 0.2453 0.0
H2082 H 0.71551 0.95718 0.20882 0.0
H2083 H 0.73498 0.93452 0.21883 0.0
C2084 C 0.82152 0.90998 0.24532 0.0
C2085 C 0.82496 0.90875 0.2323 0.0
C2086 C 0.80407 0.91319 0.24972 0.0
C2087 C 0.78962 0.91469 0.2412 0.0
C2088 C 0.79328 0.91437 0.22819 0.0
C2089 C 0.81073 0.91154 0.2238 0.0
C2090 C 0.77061 0.91563 0.2457 0.0
C2091 C 0.75902 0.92853 0.24045 0.0
C2092 C 0.76366 0.90343 0.25474 0.0
C2093 C 0.77442 0.88829 0.25976 0.0
C2094 C 0.78205 0.87562 0.25152 0.0
C2095 C 0.79228 0.86145 0.25629 0.0
C2096 C 0.79482 0.8597 0.26931 0.0
C2097 C 0.78709 0.87209 0.27757 0.0
C2098 C 0.77688 0.88631 0.27284 0.0
C2099 C 0.68421 0.90761 0.25154 0.0
C2100 C 0.67869 0.91167 0.26391 0.0
C2101 C 0.70206 0.91032 0.24784 0.0
C2102 C 0.71475 0.91684 0.2565 0.0
C2103 C 0.70915 0.92145 0.26872 0.0
C2104 C 0.69125 0.91911 0.27235 0.0
C2105 C 0.73408 0.9175 0.25311 0.0
C2106 C 0.74564 0.90481 0.25852 0.0
C2107 C 0.74084 0.92952 0.24397 0.0
C2108 C 0.72919 0.94318 0.23793 0.0
C2109 C 0.71961 0.95557 0.24532 0.0
C2110 C 0.70856 0.96832 0.23957 0.0
C2111 C 0.70707 0.96888 0.22642 0.0
C2112 C 0.71666 0.95672 0.219 0.0
C2113 C 0.72772 0.94393 0.22471 0.0
H2114 H 0.69851 0.97877 0.22198 0.0
H2115 H 0.80273 0.84871 0.27298 0.0
H2116 H 0.33855 0.43721 0.53128 0.0
H2117 H 0.33396 0.46812 0.52426 0.0
H2118 H 0.36269 0.45663 0.48984 0.0
H2119 H 0.36769 0.42585 0.49697 0.0
H2120 H 0.37555 0.4855 0.49973 0.0
H2121 H 0.31636 0.46502 0.49049 0.0
H2122 H 0.28724 0.4505 0.49467 0.0
H2123 H 0.27627 0.48881 0.52393 0.0
H2124 H 0.30545 0.50342 0.52005 0.0
H2125 H 0.33194 0.57091 0.47283 0.0
H2126 H 0.3282 0.53951 0.47919 0.0
H2127 H 0.36599 0.5474 0.50952 0.0
H2128 H 0.37001 0.57861 0.5031 0.0
H2129 H 0.31865 0.52001 0.49998 0.0
H2130 H 0.39444 0.51224 0.51035 0.0
H2131 H 0.42309 0.52631 0.5042 0.0
H2132 H 0.39998 0.54291 0.46894 0.0
H2133 H 0.37129 0.5287 0.4748 0.0
C2134 C 0.34356 0.44116 0.5221 0.0
C2135 C 0.35351 0.42907 0.51469 0.0
C2136 C 0.3409 0.45887 0.51807 0.0
C2137 C 0.34794 0.46479 0.50648 0.0
C2138 C 0.35718 0.45246 0.49884 0.0
C2139 C 0.35995 0.43481 0.50289 0.0
C2140 C 0.347 0.4841 0.5028 0.0
C2141 C 0.36306 0.49297 0.49978 0.0
C2142 C 0.33073 0.49395 0.50269 0.0
C2143 C 0.31317 0.48521 0.50505 0.0
C2144 C 0.3078 0.47026 0.49788 0.0
C2145 C 0.29128 0.46203 0.50019 0.0
C2146 C 0.27993 0.46871 0.50958 0.0
C2147 C 0.28508 0.48365 0.51666 0.0
C2148 C 0.3016 0.49192 0.51441 0.0
C2149 C 0.33913 0.56606 0.48104 0.0
C2150 C 0.3514 0.5772 0.48739 0.0
C2151 C 0.33698 0.5481 0.48466 0.0
C2152 C 0.34708 0.54098 0.49468 0.0
C2153 C 0.35829 0.55249 0.50162 0.0
C2154 C 0.36051 0.57037 0.49797 0.0
C2155 C 0.34721 0.52131 0.49717 0.0
C2156 C 0.33107 0.51244 0.49996 0.0
C2157 C 0.36335 0.51131 0.49681 0.0
C2158 C 0.38067 0.51956 0.49308 0.0
C2159 C 0.39551 0.51881 0.50126 0.0
C2160 C 0.41175 0.52682 0.49783 0.0
C2161 C 0.41334 0.53555 0.4862 0.0
C2162 C 0.39872 0.5362 0.47796 0.0
C2163 C 0.38246 0.52818 0.48134 0.0
H2164 H 0.42591 0.54177 0.48358 0.0
H2165 H 0.26714 0.46232 0.51134 0.0
H2166 H 0.83632 0.10915 0.74778 0.0
H2167 H 0.8059 0.1058 0.73937 0.0
H2168 H 0.78702 0.08988 0.7762 0.0
H2169 H 0.81745 0.0928 0.78457 0.0
H2170 H 0.76972 0.07131 0.75839 0.0
H2171 H 0.78301 0.13318 0.76606 0.0
H2172 H 0.80042 0.1612 0.76438 0.0
H2173 H 0.79268 0.16145 0.7242 0.0
H2174 H 0.77545 0.13327 0.72563 0.0
H2175 H 0.67704 0.0969 0.74859 0.0
H2176 H 0.70779 0.09286 0.75648 0.0
H2177 H 0.72859 0.10624 0.71967 0.0
H2178 H 0.69814 0.11033 0.71181 0.0
H2179 H 0.74466 0.12563 0.73791 0.0
H2180 H 0.73032 0.06347 0.73079 0.0
H2181 H 0.71251 0.03582 0.7332 0.0
H2182 H 0.72134 0.03683 0.77326 0.0
H2183 H 0.73901 0.06465 0.77111 0.0
C2184 C 0.82576 0.10459 0.75402 0.0
C2185 C 0.82929 0.10137 0.76686 0.0
C2186 C 0.80833 0.10279 0.74923 0.0
C2187 C 0.79404 0.09795 0.75721 0.0
C2188 C 0.79776 0.0937 0.76985 0.0
C2189 C 0.81519 0.09541 0.77464 0.0
C2190 C 0.77513 0.09847 0.7526 0.0
C2191 C 0.7642 0.08325 0.75402 0.0
C2192 C 0.76786 0.11399 0.74682 0.0
C2193 C 0.7781 0.13102 0.74594 0.0
C2194 C 0.78513 0.13914 0.75686 0.0
C2195 C 0.79496 0.15506 0.75595 0.0
C2196 C 0.7977 0.16308 0.74419 0.0
C2197 C 0.79057 0.15521 0.73331 0.0
C2198 C 0.78077 0.13927 0.73416 0.0
C2199 C 0.68818 0.09869 0.74215 0.0
C2200 C 0.68513 0.10397 0.72958 0.0
C2201 C 0.70575 0.09637 0.74666 0.0
C2202 C 0.72055 0.09926 0.73867 0.0
C2203 C 0.71744 0.10401 0.72604 0.0
C2204 C 0.69997 0.10628 0.72154 0.0
C2205 C 0.73931 0.09839 0.74351 0.0
C2206 C 0.7502 0.11365 0.74222 0.0
C2207 C 0.74642 0.08297 0.7495 0.0
C2208 C 0.73583 0.06624 0.7508 0.0
C2209 C 0.72834 0.05788 0.74013 0.0
C2210 C 0.71829 0.04216 0.74145 0.0
C2211 C 0.71576 0.0346 0.75338 0.0
C2212 C 0.7233 0.04272 0.76402 0.0
C2213 C 0.73334 0.05845 0.76276 0.0
H2214 H 0.70798 0.02243 0.75438 0.0
H2215 H 0.8053 0.1754 0.74351 0.0
H2216 H 0.84574 0.56516 0.03492 0.0
H2217 H 0.84191 0.53441 0.02742 0.0
H2218 H 0.85285 0.55164 0.98933 0.0
H2219 H 0.8567 0.58257 0.9968 0.0
H2220 H 0.82578 0.52594 0.99039 0.0
H2221 H 0.8857 0.53365 0.00594 0.0
H2222 H 0.90891 0.5421 0.02143 0.0
H2223 H 0.888 0.50353 0.04768 0.0
H2224 H 0.8645 0.49501 0.03239 0.0
H2225 H 0.85626 0.44479 0.96295 0.0
H2226 H 0.85204 0.47505 0.97111 0.0
H2227 H 0.84374 0.45372 0.0085 0.0
H2228 H 0.84814 0.42317 0.00034 0.0
H2229 H 0.86762 0.48113 0.00864 0.0
H2230 H 0.80886 0.47181 0.99178 0.0
H2231 H 0.78651 0.46341 0.97567 0.0
H2232 H 0.80595 0.50502 0.95123 0.0
H2233 H 0.82861 0.51352 0.96712 0.0
C2234 C 0.84702 0.5625 0.0249 0.0
C2235 C 0.85161 0.57632 0.01646 0.0
C2236 C 0.84491 0.54487 0.02064 0.0
C2237 C 0.84737 0.54065 0.00784 0.0
C2238 C 0.85094 0.55457 0.99926 0.0
C2239 C 0.85312 0.57225 0.00353 0.0
C2240 C 0.84729 0.5216 0.00359 0.0
C2241 C 0.83502 0.51617 0.99429 0.0
C2242 C 0.85911 0.50874 0.00886 0.0
C2243 C 0.87322 0.51383 0.01808 0.0
C2244 C 0.88595 0.52708 0.01506 0.0
C2245 C 0.89918 0.53186 0.02379 0.0
C2246 C 0.89989 0.5234 0.03555 0.0
C2247 C 0.88741 0.5101 0.03858 0.0
C2248 C 0.87414 0.50528 0.02988 0.0
C2249 C 0.8533 0.44647 0.97289 0.0
C2250 C 0.85251 0.43154 0.981 0.0
C2251 C 0.85081 0.46383 0.97754 0.0
C2252 C 0.8474 0.46673 0.99041 0.0
C2253 C 0.8463 0.45183 0.99853 0.0
C2254 C 0.84872 0.43437 0.99385 0.0
C2255 C 0.84609 0.48539 0.99541 0.0
C2256 C 0.8582 0.49081 0.00483 0.0
C2257 C 0.8342 0.49823 0.99018 0.0
C2258 C 0.82053 0.49321 0.98061 0.0
C2259 C 0.80847 0.47909 0.98293 0.0
C2260 C 0.79572 0.47432 0.97385 0.0
C2261 C 0.79483 0.48365 0.96242 0.0
C2262 C 0.80666 0.4978 0.96008 0.0
C2263 C 0.81944 0.50261 0.96913 0.0
H2264 H 0.78496 0.47994 0.9554 0.0
H2265 H 0.91015 0.52712 0.0423 0.0
H2266 H 0.19709 0.12984 0.78082 0.0
H2267 H 0.22729 0.12438 0.77313 0.0
H2268 H 0.20653 0.08791 0.74508 0.0
H2269 H 0.17591 0.09295 0.75314 0.0
H2270 H 0.23767 0.0754 0.75466 0.0
H2271 H 0.21861 0.13082 0.73699 0.0
H2272 H 0.20555 0.16119 0.73678 0.0
H2273 H 0.24713 0.17973 0.76163 0.0
H2274 H 0.2603 0.1494 0.76213 0.0
H2275 H 0.32011 0.08503 0.71847 0.0
H2276 H 0.2891 0.08301 0.72602 0.0
H2277 H 0.3028 0.1157 0.75819 0.0
H2278 H 0.33378 0.11771 0.75075 0.0
H2279 H 0.27425 0.12906 0.74445 0.0
H2280 H 0.29262 0.0723 0.76211 0.0
H2281 H 0.30538 0.04182 0.76134 0.0
H2282 H 0.26489 0.02587 0.73477 0.0
H2283 H 0.25202 0.05635 0.73524 0.0
C2284 C 0.19887 0.12061 0.77303 0.0
C2285 C 0.18405 0.11199 0.76748 0.0
C2286 C 0.21621 0.11753 0.7686 0.0
C2287 C 0.21923 0.10607 0.75831 0.0
C2288 C 0.20454 0.09693 0.75298 0.0
C2289 C 0.18706 0.09984 0.75755 0.0
C2290 C 0.23774 0.1042 0.75311 0.0
C2291 C 0.24558 0.08711 0.75222 0.0
C2292 C 0.24818 0.11947 0.75 0.0
C2293 C 0.24037 0.13779 0.74967 0.0
C2294 C 0.2249 0.14134 0.74247 0.0
C2295 C 0.21749 0.15855 0.7423 0.0
C2296 C 0.22549 0.17237 0.7492 0.0
C2297 C 0.24094 0.16901 0.75628 0.0
C2298 C 0.2484 0.15181 0.75651 0.0
C2299 C 0.31662 0.09141 0.72732 0.0
C2300 C 0.32941 0.10156 0.73399 0.0
C2301 C 0.29887 0.09025 0.73162 0.0
C2302 C 0.29359 0.09926 0.74265 0.0
C2303 C 0.30655 0.10868 0.74964 0.0
C2304 C 0.3243 0.10973 0.7454 0.0
C2305 C 0.27434 0.10033 0.74633 0.0
C2306 C 0.26633 0.11733 0.74684 0.0
C2307 C 0.26376 0.08498 0.74888 0.0
C2308 C 0.27148 0.06666 0.74861 0.0
C2309 C 0.28653 0.06234 0.75601 0.0
C2310 C 0.29377 0.04505 0.75565 0.0
C2311 C 0.28599 0.03193 0.74798 0.0
C2312 C 0.27092 0.03606 0.74069 0.0
C2313 C 0.26364 0.05333 0.74101 0.0
H2314 H 0.2916 0.01855 0.74772 0.0
H2315 H 0.21972 0.18569 0.74905 0.0
H2316 H 0.64907 0.44051 0.5374 0.0
H2317 H 0.6522 0.47106 0.52952 0.0
H2318 H 0.65882 0.45084 0.49166 0.0
H2319 H 0.65592 0.41997 0.49958 0.0
H2320 H 0.68091 0.4796 0.49621 0.0
H2321 H 0.61859 0.46623 0.50084 0.0
H2322 H 0.59137 0.45568 0.51179 0.0
H2323 H 0.59789 0.49673 0.53984 0.0
H2324 H 0.62529 0.50739 0.52915 0.0
H2325 H 0.65505 0.56049 0.46477 0.0
H2326 H 0.65869 0.52996 0.4727 0.0
H2327 H 0.65191 0.54906 0.51084 0.0
H2328 H 0.64812 0.57974 0.50292 0.0
H2329 H 0.63036 0.52066 0.50587 0.0
H2330 H 0.69279 0.53444 0.5002 0.0
H2331 H 0.71944 0.54471 0.48846 0.0
H2332 H 0.71185 0.50266 0.46128 0.0
H2333 H 0.685 0.49228 0.47276 0.0
C2334 C 0.65144 0.4425 0.52741 0.0
C2335 C 0.65212 0.42781 0.5191 0.0
C2336 C 0.65315 0.46001 0.52291 0.0
C2337 C 0.65537 0.4633 0.50996 0.0
C2338 C 0.65701 0.44864 0.50168 0.0
C2339 C 0.65538 0.43101 0.50622 0.0
C2340 C 0.65508 0.48206 0.50511 0.0
C2341 C 0.66977 0.48853 0.49818 0.0
C2342 C 0.64065 0.49381 0.50783 0.0
C2343 C 0.62411 0.4875 0.51426 0.0
C2344 C 0.6143 0.47293 0.5094 0.0
C2345 C 0.59882 0.46694 0.51554 0.0
C2346 C 0.59294 0.47549 0.52652 0.0
C2347 C 0.60248 0.4901 0.53135 0.0
C2348 C 0.61798 0.49613 0.52524 0.0
C2349 C 0.65464 0.55826 0.47487 0.0
C2350 C 0.65131 0.57256 0.48322 0.0
C2351 C 0.65677 0.54077 0.4794 0.0
C2352 C 0.65567 0.53717 0.49239 0.0
C2353 C 0.65283 0.5515 0.50078 0.0
C2354 C 0.65077 0.56905 0.49625 0.0
C2355 C 0.6563 0.51833 0.49709 0.0
C2356 C 0.64157 0.5118 0.50395 0.0
C2357 C 0.6706 0.50651 0.49417 0.0
C2358 C 0.68679 0.51269 0.48728 0.0
C2359 C 0.69672 0.52747 0.49166 0.0
C2360 C 0.71188 0.53329 0.48507 0.0
C2361 C 0.71731 0.52437 0.47411 0.0
C2362 C 0.70762 0.50957 0.46976 0.0
C2363 C 0.69244 0.5037 0.47631 0.0
H2364 H 0.72905 0.5289 0.46902 0.0
H2365 H 0.58097 0.47082 0.53128 0.0
H2366 H 0.18501 0.92015 0.22113 0.0
H2367 H 0.21589 0.92488 0.22834 0.0
H2368 H 0.2075 0.88696 0.25852 0.0
H2369 H 0.17661 0.88237 0.25146 0.0
H2370 H 0.22755 0.91494 0.26646 0.0
H2371 H 0.22736 0.87458 0.23056 0.0
H2372 H 0.22062 0.86616 0.20854 0.0
H2373 H 0.25223 0.91038 0.19515 0.0
H2374 H 0.25895 0.91921 0.21711 0.0
H2375 H 0.31157 0.87983 0.28158 0.0
H2376 H 0.28114 0.88544 0.27441 0.0
H2377 H 0.30117 0.92095 0.24553 0.0
H2378 H 0.33209 0.91495 0.25255 0.0
H2379 H 0.27584 0.89949 0.23611 0.0
H2380 H 0.27938 0.93744 0.27213 0.0
H2381 H 0.28619 0.94565 0.29417 0.0
H2382 H 0.24843 0.90646 0.30741 0.0
H2383 H 0.24156 0.89783 0.28545 0.0
C2384 C 0.18964 0.91309 0.22945 0.0
C2385 C 0.17837 0.90082 0.2357 0.0
C2386 C 0.20734 0.91571 0.23351 0.0
C2387 C 0.21416 0.90604 0.24385 0.0
C2388 C 0.2026 0.89454 0.2505 0.0
C2389 C 0.18492 0.89192 0.24645 0.0
C2390 C 0.23351 0.90705 0.24738 0.0
C2391 C 0.2381 0.91149 0.25984 0.0
C2392 C 0.24738 0.90308 0.23866 0.0
C2393 C 0.24349 0.89767 0.22547 0.0
C2394 C 0.23277 0.88258 0.22291 0.0
C2395 C 0.22896 0.87772 0.21045 0.0
C2396 C 0.23594 0.88776 0.20045 0.0
C2397 C 0.2468 0.90264 0.2029 0.0
C2398 C 0.25062 0.90757 0.21536 0.0
C2399 C 0.30959 0.88895 0.27375 0.0
C2400 C 0.3243 0.89703 0.26769 0.0
C2401 C 0.29209 0.89223 0.26969 0.0
C2402 C 0.28873 0.90391 0.25958 0.0
C2403 C 0.30339 0.91198 0.25342 0.0
C2404 C 0.32104 0.9086 0.25745 0.0
C2405 C 0.26989 0.90699 0.2553 0.0
C2406 C 0.26536 0.90328 0.2427 0.0
C2407 C 0.25607 0.91167 0.2639 0.0
C2408 C 0.26003 0.91693 0.27713 0.0
C2409 C 0.2726 0.9305 0.27974 0.0
C2410 C 0.27647 0.93523 0.29222 0.0
C2411 C 0.26777 0.92656 0.30218 0.0
C2412 C 0.25516 0.91317 0.29968 0.0
C2413 C 0.25125 0.90837 0.28722 0.0
H2414 H 0.27079 0.93024 0.31184 0.0
H2415 H 0.23298 0.88398 0.19081 0.0
H2416 H 0.67253 0.06923 0.52403 0.0
H2417 H 0.67539 0.03799 0.51702 0.0
H2418 H 0.63044 0.04526 0.49188 0.0
H2419 H 0.62741 0.07628 0.49892 0.0
H2420 H 0.62594 0.0161 0.50597 0.0
H2421 H 0.67381 0.04094 0.48094 0.0
H2422 H 0.70198 0.05746 0.47726 0.0
H2423 H 0.73038 0.02033 0.50093 0.0
H2424 H 0.70231 0.00371 0.50489 0.0
H2425 H 0.62708 0.94144 0.46653 0.0
H2426 H 0.63105 0.97177 0.47454 0.0
H2427 H 0.67131 0.95295 0.50059 0.0
H2428 H 0.66736 0.92217 0.49254 0.0
H2429 H 0.68003 0.9865 0.48836 0.0
H2430 H 0.63231 0.9606 0.51225 0.0
H2431 H 0.60418 0.94379 0.51537 0.0
H2432 H 0.57548 0.98301 0.49364 0.0
H2433 H 0.6035 0.99994 0.49023 0.0
C2434 C 0.66349 0.06425 0.51683 0.0
C2435 C 0.64973 0.07524 0.51204 0.0
C2436 C 0.66513 0.04638 0.51283 0.0
C2437 C 0.6531 0.0392 0.50392 0.0
C2438 C 0.63982 0.05041 0.49881 0.0
C2439 C 0.63817 0.06821 0.5028 0.0
C2440 C 0.6535 0.01982 0.50043 0.0
C2441 C 0.63775 0.00972 0.50201 0.0
C2442 C 0.66906 0.01122 0.49568 0.0
C2443 C 0.68592 0.02121 0.49333 0.0
C2444 C 0.68603 0.03639 0.48546 0.0
C2445 C 0.70199 0.04575 0.4833 0.0
C2446 C 0.71795 0.03998 0.48889 0.0
C2447 C 0.718 0.0248 0.49663 0.0
C2448 C 0.70208 0.0154 0.49882 0.0
C2449 C 0.63689 0.94368 0.47391 0.0
C2450 C 0.64683 0.92933 0.47896 0.0
C2451 C 0.63912 0.96107 0.4785 0.0
C2452 C 0.65132 0.96462 0.48826 0.0
C2453 C 0.66178 0.95049 0.49306 0.0
C2454 C 0.65949 0.93293 0.48849 0.0
C2455 C 0.65237 0.98304 0.49363 0.0
C2456 C 0.66833 0.9929 0.49244 0.0
C2457 C 0.637 0.99148 0.49876 0.0
C2458 C 0.62005 0.98148 0.50091 0.0
C2459 C 0.62003 0.96558 0.50806 0.0
C2460 C 0.6041 0.95604 0.5099 0.0
C2461 C 0.58806 0.96231 0.50469 0.0
C2462 C 0.58792 0.97817 0.49766 0.0
C2463 C 0.60382 0.98776 0.49579 0.0
H2464 H 0.57575 0.9549 0.50612 0.0
H2465 H 0.73029 0.04724 0.48721 0.0
H2466 H 0.18659 0.41934 0.77726 0.0
H2467 H 0.21796 0.42205 0.77062 0.0
H2468 H 0.20882 0.38265 0.74146 0.0
H2469 H 0.17778 0.37939 0.74843 0.0
H2470 H 0.23743 0.37421 0.75318 0.0
H2471 H 0.21555 0.4299 0.73594 0.0
H2472 H 0.20078 0.45948 0.73657 0.0
H2473 H 0.23943 0.47792 0.7637 0.0
H2474 H 0.2543 0.44837 0.76334 0.0
H2475 H 0.31271 0.38286 0.7147 0.0
H2476 H 0.28244 0.38634 0.72294 0.0
H2477 H 0.30302 0.41625 0.75462 0.0
H2478 H 0.33373 0.41281 0.74634 0.0
H2479 H 0.27024 0.43057 0.7439 0.0
H2480 H 0.29309 0.37475 0.75965 0.0
H2481 H 0.30797 0.34532 0.75794 0.0
H2482 H 0.26692 0.32722 0.73251 0.0
H2483 H 0.25195 0.35665 0.7339 0.0
C2484 C 0.19122 0.41151 0.76929 0.0
C2485 C 0.17972 0.39916 0.76336 0.0
C2486 C 0.20918 0.41308 0.76548 0.0
C2487 C 0.21588 0.40262 0.75547 0.0
C2488 C 0.20411 0.39081 0.74925 0.0
C2489 C 0.1863 0.38902 0.75319 0.0
C2490 C 0.23529 0.40299 0.75191 0.0
C2491 C 0.24447 0.38658 0.75101 0.0
C2492 C 0.24483 0.4191 0.7495 0.0
C2493 C 0.23591 0.43686 0.74971 0.0
C2494 C 0.22081 0.44022 0.74211 0.0
C2495 C 0.21244 0.45699 0.74241 0.0
C2496 C 0.21913 0.47055 0.7502 0.0
C2497 C 0.23424 0.46739 0.75768 0.0
C2498 C 0.24266 0.45064 0.75743 0.0
C2499 C 0.31088 0.39032 0.72338 0.0
C2500 C 0.32569 0.39745 0.72992 0.0
C2501 C 0.29352 0.39227 0.72809 0.0
C2502 C 0.29046 0.40136 0.73947 0.0
C2503 C 0.30509 0.40915 0.74582 0.0
C2504 C 0.32261 0.40714 0.74111 0.0
C2505 C 0.27201 0.40181 0.74485 0.0
C2506 C 0.26312 0.41829 0.74615 0.0
C2507 C 0.26262 0.38577 0.74754 0.0
C2508 C 0.27147 0.36796 0.74682 0.0
C2509 C 0.2873 0.36454 0.75363 0.0
C2510 C 0.29575 0.34785 0.75272 0.0
C2511 C 0.28842 0.33442 0.7451 0.0
C2512 C 0.27259 0.33764 0.7384 0.0
C2513 C 0.26411 0.35431 0.73926 0.0
H2514 H 0.29498 0.32151 0.74441 0.0
H2515 H 0.21263 0.48353 0.75041 0.0
H2516 H 0.83585 0.92528 0.00651 0.0
H2517 H 0.82915 0.95616 -0.00026 0.0
H2518 H 0.87271 0.9757 0.02277 0.0
H2519 H 0.87922 0.94528 0.02961 0.0
H2520 H 0.84418 0.99631 0.02583 0.0
H2521 H 0.8762 0.97064 0.99024 0.0
H2522 H 0.88084 0.94888 0.97301 0.0
H2523 H 0.83021 0.96366 0.95671 0.0
H2524 H 0.82518 0.98536 0.97395 0.0
H2525 H 0.87368 0.07879 0.00159 0.0
H2526 H 0.86899 0.04797 0.0085 0.0
H2527 H 0.82391 0.04315 0.98318 0.0
H2528 H 0.82867 0.07418 0.9761 0.0
H2529 H 0.84647 0.0148 0.98089 0.0
H2530 H 0.81711 0.04417 0.01498 0.0
H2531 H 0.8133 0.06629 0.03206 0.0
H2532 H 0.85927 0.04481 0.05125 0.0
H2533 H 0.86351 0.02271 0.03419 0.0
C2534 C 0.84395 0.9362 0.01011 0.0
C2535 C 0.85807 0.9328 0.01859 0.0
C2536 C 0.84015 0.95383 0.00622 0.0
C2537 C 0.85047 0.96832 0.01071 0.0
C2538 C 0.86448 0.96484 0.01921 0.0
C2539 C 0.86824 0.94736 0.02308 0.0
C2540 C 0.84707 0.98718 0.00665 0.0
C2541 C 0.84473 1.00035 0.016 0.0
C2542 C 0.84719 0.99247 0.99381 0.0
C2543 C 0.85021 0.97944 0.98346 0.0
C2544 C 0.86599 0.96913 0.98304 0.0
C2545 C 0.86871 0.95684 0.97326 0.0
C2546 C 0.8558 0.95484 0.9638 0.0
C2547 C 0.84017 0.96518 0.96407 0.0
C2548 C 0.83739 0.97749 0.97384 0.0
C2549 C 0.86256 0.07131 0.99763 0.0
C2550 C 0.8515 0.07898 0.98833 0.0
C2551 C 0.85986 0.05366 0.00162 0.0
C2552 C 0.846 0.04321 0.99644 0.0
C2553 C 0.83466 0.05094 0.98734 0.0
C2554 C 0.83732 0.06871 0.98337 0.0
C2555 C 0.8442 0.02398 0.00011 0.0
C2556 C 0.84555 0.01075 0.9907 0.0
C2557 C 0.84323 0.01862 0.01292 0.0
C2558 C 0.84068 0.03183 0.02325 0.0
C2559 C 0.82648 0.04423 0.0228 0.0
C2560 C 0.82423 0.05676 0.03249 0.0
C2561 C 0.83605 0.05697 0.04273 0.0
C2562 C 0.85012 0.04463 0.04331 0.0
C2563 C 0.85244 0.03208 0.03364 0.0
H2564 H 0.83429 0.06669 0.05022 0.0
H2565 H 0.85793 0.94532 0.95623 0.0
H2566 H 0.30584 0.60986 0.28811 0.0
H2567 H 0.27592 0.60372 0.2801 0.0
H2568 H 0.29828 0.58849 0.24409 0.0
H2569 H 0.32855 0.59526 0.25203 0.0
H2570 H 0.27061 0.60939 0.24045 0.0
H2571 H 0.27953 0.55696 0.26521 0.0
H2572 H 0.28777 0.53926 0.284 0.0
H2573 H 0.24608 0.56493 0.30533 0.0
H2574 H 0.23773 0.58297 0.28672 0.0
H2575 H 0.18414 0.58344 0.21911 0.0
H2576 H 0.21515 0.57987 0.22628 0.0
H2577 H 0.20122 0.6033 0.26218 0.0
H2578 H 0.17015 0.60697 0.25505 0.0
H2579 H 0.2253 0.57458 0.26447 0.0
H2580 H 0.21898 0.62903 0.24005 0.0
H2581 H 0.21072 0.64646 0.22113 0.0
H2582 H 0.2479 0.61588 0.19888 0.0
H2583 H 0.25618 0.59809 0.21765 0.0
C2584 C 0.30449 0.605 0.27851 0.0
C2585 C 0.31964 0.60299 0.27072 0.0
C2586 C 0.28729 0.60137 0.27395 0.0
C2587 C 0.28473 0.59532 0.26153 0.0
C2588 C 0.29986 0.59306 0.25374 0.0
C2589 C 0.31717 0.59684 0.25829 0.0
C2590 C 0.26615 0.59242 0.25661 0.0
C2591 C 0.26085 0.60143 0.24557 0.0
C2592 C 0.25318 0.58231 0.26337 0.0
C2593 C 0.25808 0.57141 0.27458 0.0
C2594 C 0.27219 0.55892 0.27393 0.0
C2595 C 0.27687 0.54881 0.28455 0.0
C2596 C 0.26748 0.55099 0.29585 0.0
C2597 C 0.25335 0.56325 0.29656 0.0
C2598 C 0.24862 0.57341 0.28597 0.0
C2599 C 0.18757 0.58748 0.22863 0.0
C2600 C 0.17467 0.59556 0.2365 0.0
C2601 C 0.20534 0.58552 0.23269 0.0
C2602 C 0.21059 0.59155 0.24471 0.0
C2603 C 0.1975 0.59859 0.25286 0.0
C2604 C 0.17974 0.60067 0.24878 0.0
C2605 C 0.22986 0.59171 0.24846 0.0
C2606 C 0.23521 0.58227 0.25928 0.0
C2607 C 0.24291 0.60131 0.24147 0.0
C2608 C 0.23805 0.6121 0.23021 0.0
C2609 C 0.22529 0.62593 0.2311 0.0
C2610 C 0.22062 0.63589 0.22041 0.0
C2611 C 0.22874 0.63224 0.2088 0.0
C2612 C 0.24159 0.61867 0.20787 0.0
C2613 C 0.24628 0.60864 0.21853 0.0
H2614 H 0.22511 0.63997 0.20054 0.0
H2615 H 0.27113 0.54315 0.30406 0.0
H2616 H 0.3704 0.08017 0.49609 0.0
H2617 H 0.36632 0.04961 0.48838 0.0
H2618 H 0.32684 0.03997 0.51737 0.0
H2619 H 0.33115 0.07056 0.52529 0.0
H2620 H 0.35043 0.01363 0.51707 0.0
H2621 H 0.31506 0.04226 0.48563 0.0
H2622 H 0.30762 0.06451 0.46923 0.0
H2623 H 0.35173 0.0461 0.44663 0.0
H2624 H 0.35959 0.02389 0.46297 0.0
H2625 H 0.33812 0.92484 0.49138 0.0
H2626 H 0.3315 0.95562 0.49835 0.0
H2627 H 0.37275 0.97577 0.47358 0.0
H2628 H 0.37933 0.94534 0.46663 0.0
H2629 H 0.34284 0.99623 0.47219 0.0
H2630 H 0.38024 0.97071 0.50504 0.0
H2631 H 0.38793 0.94867 0.52153 0.0
H2632 H 0.33945 0.96147 0.54148 0.0
H2633 H 0.33137 0.98343 0.525 0.0
C2634 C 0.36056 0.07169 0.50067 0.0
C2635 C 0.35108 0.07783 0.5113 0.0
C2636 C 0.3582 0.05418 0.49623 0.0
C2637 C 0.34617 0.04242 0.50222 0.0
C2638 C 0.3362 0.04874 0.51257 0.0
C2639 C 0.33858 0.06629 0.51704 0.0
C2640 C 0.34511 0.02324 0.49825 0.0
C2641 C 0.34835 0.00983 0.50729 0.0
C2642 C 0.34269 0.01817 0.48546 0.0
C2643 C 0.33798 0.03148 0.47558 0.0
C2644 C 0.32325 0.04303 0.4772 0.0
C2645 C 0.31895 0.05563 0.46791 0.0
C2646 C 0.32921 0.05674 0.4569 0.0
C2647 C 0.34379 0.04523 0.45516 0.0
C2648 C 0.34816 0.03261 0.46443 0.0
C2649 C 0.3457 0.93587 0.48741 0.0
C2650 C 0.35929 0.93263 0.47849 0.0
C2651 C 0.34194 0.95344 0.49141 0.0
C2652 C 0.35169 0.96805 0.48653 0.0
C2653 C 0.365 0.96478 0.47746 0.0
C2654 C 0.36881 0.94732 0.47354 0.0
C2655 C 0.34854 0.98676 0.49097 0.0
C2656 C 0.34456 1.00006 0.482 0.0
C2657 C 0.35024 0.99172 0.50382 0.0
C2658 C 0.35509 0.97853 0.51371 0.0
C2659 C 0.37115 0.96871 0.51289 0.0
C2660 C 0.37559 0.95625 0.52224 0.0
C2661 C 0.36415 0.95362 0.53253 0.0
C2662 C 0.34828 0.96349 0.53349 0.0
C2663 C 0.34376 0.97594 0.52415 0.0
H2664 H 0.36762 0.94398 0.53976 0.0
H2665 H 0.32586 0.0665 0.44972 0.0
H2666 H 0.67144 0.6166 0.24696 0.0
H2667 H 0.70223 0.61182 0.23964 0.0
H2668 H 0.71496 0.58499 0.27457 0.0
H2669 H 0.68417 0.58964 0.28192 0.0
H2670 H 0.73898 0.61188 0.26888 0.0
H2671 H 0.71315 0.56125 0.24774 0.0
H2672 H 0.69145 0.54559 0.23406 0.0
H2673 H 0.70731 0.57833 0.20264 0.0
H2674 H 0.72894 0.59437 0.21618 0.0
H2675 H 0.82907 0.59654 0.24909 0.0
H2676 H 0.79853 0.5909 0.25685 0.0
H2677 H 0.77692 0.6099 0.22149 0.0
H2678 H 0.80716 0.61482 0.2136 0.0
H2679 H 0.75766 0.58345 0.22866 0.0
H2680 H 0.77986 0.63656 0.24938 0.0
H2681 H 0.80076 0.65419 0.26251 0.0
H2682 H 0.79086 0.61924 0.29396 0.0
H2683 H 0.77006 0.60126 0.28096 0.0
C2684 C 0.68068 0.60933 0.25297 0.0
C2685 C 0.67532 0.60347 0.26501 0.0
C2686 C 0.6983 0.6066 0.24877 0.0
C2687 C 0.71095 0.59803 0.25655 0.0
C2688 C 0.70546 0.59165 0.26841 0.0
C2689 C 0.68781 0.59422 0.27256 0.0
C2690 C 0.73015 0.59688 0.25267 0.0
C2691 C 0.74313 0.60535 0.26021 0.0
C2692 C 0.73552 0.58879 0.24119 0.0
C2693 C 0.72257 0.57911 0.23301 0.0
C2694 C 0.71192 0.56521 0.23794 0.0
C2695 C 0.69965 0.55625 0.2302 0.0
C2696 C 0.69798 0.56099 0.21749 0.0
C2697 C 0.70861 0.57468 0.21249 0.0
C2698 C 0.72089 0.5837 0.22019 0.0
C2699 C 0.81778 0.59926 0.24294 0.0
C2700 C 0.82056 0.6062 0.23075 0.0
C2701 C 0.80031 0.59617 0.2474 0.0
C2702 C 0.78528 0.60027 0.23986 0.0
C2703 C 0.78817 0.6066 0.22754 0.0
C2704 C 0.80554 0.60947 0.22304 0.0
C2705 C 0.76653 0.59872 0.24477 0.0
C2706 C 0.7536 0.58978 0.23742 0.0
C2707 C 0.76113 0.60666 0.25633 0.0
C2708 C 0.77359 0.61745 0.26416 0.0
C2709 C 0.78225 0.63256 0.25907 0.0
C2710 C 0.79405 0.64263 0.26649 0.0
C2711 C 0.79718 0.6378 0.27905 0.0
C2712 C 0.78846 0.62293 0.28422 0.0
C2713 C 0.77666 0.6128 0.27684 0.0
H2714 H 0.80632 0.64561 0.28478 0.0
H2715 H 0.68847 0.55403 0.21152 0.0
H2716 H 0.15037 0.94315 0.03681 0.0
H2717 H 0.15362 0.97356 0.02873 0.0
H2718 H 0.16255 0.95278 0.99128 0.0
H2719 H 0.15908 0.92198 0.99933 0.0
H2720 H 0.18564 0.98383 0.99936 0.0
H2721 H 0.12365 0.96575 0.9961 0.0
H2722 H 0.0955 0.95286 0.00429 0.0
H2723 H 0.09328 0.99366 0.03286 0.0
H2724 H 0.12159 0.00662 0.02496 0.0
H2725 H 0.1658 0.06524 0.96673 0.0
H2726 H 0.16956 0.03467 0.97448 0.0
H2727 H 0.14472 0.04964 0.00975 0.0
H2728 H 0.14023 0.08011 0.00176 0.0
H2729 H 0.13031 0.0206 0.00217 0.0
H2730 H 0.19149 0.03905 0.00622 0.0
H2731 H 0.2204 0.05183 0.99938 0.0
H2732 H 0.22515 0.01111 0.97091 0.0
H2733 H 0.19614 0.99821 0.97748 0.0
C2734 C 0.15329 0.94495 0.02687 0.0
C2735 C 0.15434 0.93011 0.01868 0.0
C2736 C 0.15513 0.96238 0.02227 0.0
C2737 C 0.15816 0.96544 0.0094 0.0
C2738 C 0.16022 0.95068 0.00126 0.0
C2739 C 0.15822 0.93312 0.00586 0.0
C2740 C 0.15773 0.98409 0.00446 0.0
C2741 C 0.17351 0.99185 -0.00023 0.0
C2742 C 0.14202 0.99465 0.00537 0.0
C2743 C 0.12483 0.98705 0.01001 0.0
C2744 C 0.11724 0.97189 0.00419 0.0
C2745 C 0.10124 0.96459 0.00877 0.0
C2746 C 0.09263 0.97241 0.01911 0.0
C2747 C 0.09997 0.9876 0.02486 0.0
C2748 C 0.11599 0.99494 0.02033 0.0
C2749 C 0.16146 0.06212 0.97623 0.0
C2750 C 0.15273 0.07512 0.98364 0.0
C2751 C 0.16367 0.04459 0.98069 0.0
C2752 C 0.15757 0.03973 0.99278 0.0
C2753 C 0.14952 0.05295 0.00038 0.0
C2754 C 0.14706 0.07043 0.99585 0.0
C2755 C 0.15833 0.02067 0.99711 0.0
C2756 C 0.14253 0.01273 0.0017 0.0
C2757 C 0.1741 0.01006 0.99623 0.0
C2758 C 0.19155 0.01777 0.99227 0.0
C2759 C 0.19863 0.0329 0.99844 0.0
C2760 C 0.21505 0.04015 0.99462 0.0
C2761 C 0.22458 0.03232 0.9847 0.0
C2762 C 0.21774 0.01718 0.97859 0.0
C2763 C 0.20132 0.00988 0.98236 0.0
H2764 H 0.23729 0.03795 0.98175 0.0
H2765 H 0.08025 0.96673 0.02265 0.0
H2766 H 0.8311 0.39008 0.74702 0.0
H2767 H 0.80021 0.39453 0.73988 0.0
H2768 H 0.78828 0.42348 0.77411 0.0
H2769 H 0.8192 0.41905 0.78132 0.0
H2770 H 0.76371 0.39731 0.76955 0.0
H2771 H 0.78978 0.44546 0.7462 0.0
H2772 H 0.81148 0.45996 0.73191 0.0
H2773 H 0.79547 0.42481 0.70184 0.0
H2774 H 0.77385 0.40992 0.71599 0.0
H2775 H 0.67378 0.41196 0.74802 0.0
H2776 H 0.70427 0.41811 0.75577 0.0
H2777 H 0.72633 0.39288 0.72257 0.0
H2778 H 0.69618 0.3871 0.71474 0.0
H2779 H 0.74523 0.4215 0.72792 0.0
H2780 H 0.72271 0.37086 0.75151 0.0
H2781 H 0.7016 0.35502 0.76555 0.0
H2782 H 0.71153 0.3936 0.79484 0.0
H2783 H 0.73254 0.40979 0.7809 0.0
C2784 C 0.82201 0.39771 0.75292 0.0
C2785 C 0.82763 0.40424 0.76473 0.0
C2786 C 0.80433 0.40027 0.74882 0.0
C2787 C 0.79188 0.40939 0.75643 0.0
C2788 C 0.79762 0.4164 0.76807 0.0
C2789 C 0.81534 0.41395 0.77214 0.0
C2790 C 0.77266 0.41052 0.7526 0.0
C2791 C 0.75962 0.40296 0.76056 0.0
C2792 C 0.76732 0.41752 0.74076 0.0
C2793 C 0.78028 0.42648 0.73219 0.0
C2794 C 0.79098 0.44073 0.73657 0.0
C2795 C 0.80325 0.44904 0.72848 0.0
C2796 C 0.80488 0.44329 0.71598 0.0
C2797 C 0.79421 0.42924 0.71153 0.0
C2798 C 0.78192 0.42088 0.71957 0.0
C2799 C 0.68516 0.40792 0.74234 0.0
C2800 C 0.68254 0.39898 0.7308 0.0
C2801 C 0.70258 0.41135 0.7468 0.0
C2802 C 0.71768 0.40577 0.73983 0.0
C2803 C 0.71499 0.39735 0.72814 0.0
C2804 C 0.69768 0.39399 0.72369 0.0
C2805 C 0.73632 0.40799 0.74476 0.0
C2806 C 0.74927 0.41614 0.737 0.0
C2807 C 0.74162 0.40137 0.75673 0.0
C2808 C 0.72901 0.39166 0.76511 0.0
C2809 C 0.72028 0.37604 0.76091 0.0
C2810 C 0.70835 0.36699 0.76885 0.0
C2811 C 0.70518 0.37333 0.78106 0.0
C2812 C 0.71397 0.38872 0.78537 0.0
C2813 C 0.72589 0.39784 0.77745 0.0
H2814 H 0.69595 0.3663 0.7872 0.0
H2815 H 0.81439 0.44974 0.70974 0.0
H2816 H 0.12839 0.82476 0.00968 0.0
H2817 H 0.1312 0.7922 0.00841 0.0
H2818 H 0.17576 0.79383 0.03435 0.0
H2819 H 0.17314 0.82662 0.03556 0.0
H2820 H 0.18038 0.7679 0.01553 0.0
H2821 H 0.1353 0.78488 0.04552 0.0
H2822 H 0.10837 0.80096 0.05289 0.0
H2823 H 0.07661 0.77456 0.02462 0.0
H2824 H 0.10343 0.75852 0.01696 0.0
H2825 H 0.17082 0.67562 0.03516 0.0
H2826 H 0.17486 0.70817 0.03344 0.0
H2827 H 0.12707 0.71161 0.01058 0.0
H2828 H 0.12278 0.67929 0.01253 0.0
H2829 H 0.12546 0.73525 0.02861 0.0
H2830 H 0.17063 0.71815 0.99851 0.0
H2831 H 0.19765 0.7023 0.99105 0.0
H2832 H 0.22927 0.72859 0.01945 0.0
H2833 H 0.20238 0.74442 0.02719 0.0
C2834 C 0.13902 0.81826 0.01494 0.0
C2835 C 0.15046 0.82829 0.02279 0.0
C2836 C 0.14057 0.79961 0.01424 0.0
C2837 C 0.15347 0.7905 0.02146 0.0
C2838 C 0.16566 0.80054 0.02872 0.0
C2839 C 0.16414 0.81929 0.0294 0.0
C2840 C 0.15322 0.77053 0.02214 0.0
C2841 C 0.16846 0.76073 0.01853 0.0
C2842 C 0.1376 0.76114 0.02591 0.0
C2843 C 0.12141 0.77062 0.03059 0.0
C2844 C 0.1226 0.78259 0.04082 0.0
C2845 C 0.10735 0.79169 0.04506 0.0
C2846 C 0.0908 0.78882 0.03921 0.0
C2847 C 0.08945 0.77679 0.02913 0.0
C2848 C 0.10466 0.76768 0.02484 0.0
C2849 C 0.16138 0.6833 0.02958 0.0
C2850 C 0.14647 0.67487 0.024 0.0
C2851 C 0.16371 0.70193 0.02858 0.0
C2852 C 0.15129 0.71245 0.02185 0.0
C2853 C 0.1368 0.70388 0.01588 0.0
C2854 C 0.1344 0.68535 0.01695 0.0
C2855 C 0.15251 0.73245 0.02171 0.0
C2856 C 0.13742 0.74232 0.02555 0.0
C2857 C 0.16827 0.74182 0.01816 0.0
C2858 C 0.18445 0.73233 0.01351 0.0
C2859 C 0.18331 0.72044 0.00324 0.0
C2860 C 0.19861 0.71148 0.99894 0.0
C2861 C 0.21516 0.7144 0.0048 0.0
C2862 C 0.21645 0.72632 0.01494 0.0
C2863 C 0.20118 0.7353 0.01927 0.0
H2864 H 0.22699 0.70745 0.00146 0.0
H2865 H 0.07901 0.79587 0.0425 0.0
H2866 H 0.57415 0.87532 0.26311 0.0
H2867 H 0.54195 0.88002 0.26086 0.0
H2868 H 0.54762 0.93385 0.27521 0.0
H2869 H 0.58013 0.92916 0.27753 0.0
H2870 H 0.52026 0.91542 0.2869 0.0
H2871 H 0.53769 0.92751 0.24443 0.0
H2872 H 0.55329 0.92209 0.22427 0.0
H2873 H 0.52416 0.8729 0.21939 0.0
H2874 H 0.50856 0.87789 0.23961 0.0
H2875 H 0.42588 0.92539 0.27787 0.0
H2876 H 0.45814 0.93135 0.27591 0.0
H2877 H 0.46559 0.87943 0.25873 0.0
H2878 H 0.4335 0.87364 0.26037 0.0
H2879 H 0.48655 0.90263 0.24752 0.0
H2880 H 0.47315 0.88767 0.29096 0.0
H2881 H 0.45794 0.89155 0.31145 0.0
H2882 H 0.47986 0.94459 0.31478 0.0
H2883 H 0.49502 0.94111 0.2942 0.0
C2884 C 0.56863 0.88827 0.26564 0.0
C2885 C 0.57973 0.90189 0.27047 0.0
C2886 C 0.55018 0.89096 0.2643 0.0
C2887 C 0.54231 0.90734 0.26776 0.0
C2888 C 0.55338 0.92111 0.27243 0.0
C2889 C 0.57196 0.91846 0.27368 0.0
C2890 C 0.52243 0.90951 0.26706 0.0
C2891 C 0.5129 0.91305 0.27822 0.0
C2892 C 0.51275 0.90603 0.25581 0.0
C2893 C 0.52202 0.90303 0.24359 0.0
C2894 C 0.53469 0.91547 0.2391 0.0
C2895 C 0.54352 0.91249 0.22765 0.0
C2896 C 0.53974 0.89715 0.22056 0.0
C2897 C 0.52708 0.88478 0.22489 0.0
C2898 C 0.51821 0.88769 0.23634 0.0
C2899 C 0.43437 0.9154 0.27347 0.0
C2900 C 0.42711 0.89901 0.26932 0.0
C2901 C 0.45284 0.91876 0.27244 0.0
C2902 C 0.46444 0.90572 0.26737 0.0
C2903 C 0.45702 0.88972 0.2627 0.0
C2904 C 0.43862 0.88641 0.26366 0.0
C2905 C 0.48435 0.90812 0.26742 0.0
C2906 C 0.4939 0.90537 0.25615 0.0
C2907 C 0.49405 0.91214 0.2786 0.0
C2908 C 0.48503 0.91422 0.29098 0.0
C2909 C 0.47462 0.90021 0.29602 0.0
C2910 C 0.46602 0.90233 0.30765 0.0
C2911 C 0.46788 0.91833 0.31439 0.0
C2912 C 0.47839 0.93222 0.30953 0.0
C2913 C 0.48699 0.93018 0.29789 0.0
H2914 H 0.46121 0.91995 0.3234 0.0
H2915 H 0.5466 0.89486 0.2117 0.0
H2916 H 0.36318 0.18328 0.54586 0.0
H2917 H 0.35868 0.21545 0.54352 0.0
H2918 H 0.34383 0.2079 0.50453 0.0
H2919 H 0.34844 0.17536 0.50681 0.0
H2920 H 0.36791 0.23561 0.50752 0.0
H2921 H 0.31196 0.21904 0.52563 0.0
H2922 H 0.29163 0.20399 0.54061 0.0
H2923 H 0.31465 0.2338 0.57129 0.0
H2924 H 0.33532 0.24885 0.55652 0.0
H2925 H 0.35017 0.33084 0.50728 0.0
H2926 H 0.34495 0.29842 0.50483 0.0
H2927 H 0.35962 0.2902 0.5438 0.0
H2928 H 0.36479 0.32227 0.54627 0.0
H2929 H 0.33057 0.27037 0.53758 0.0
H2930 H 0.38942 0.28274 0.52015 0.0
H2931 H 0.41061 0.29743 0.50556 0.0
H2932 H 0.38231 0.27533 0.47385 0.0
H2933 H 0.36081 0.26069 0.48826 0.0
C2934 C 0.35879 0.18838 0.53679 0.0
C2935 C 0.35611 0.17673 0.52653 0.0
C2936 C 0.35616 0.20683 0.53549 0.0
C2937 C 0.35072 0.21415 0.52389 0.0
C2938 C 0.34795 0.20257 0.51358 0.0
C2939 C 0.35051 0.18398 0.51491 0.0
C2940 C 0.34864 0.23397 0.52262 0.0
C2941 C 0.3594 0.24319 0.51388 0.0
C2942 C 0.33775 0.24394 0.53104 0.0
C2943 C 0.32526 0.23501 0.53996 0.0
C2944 C 0.31278 0.22231 0.53558 0.0
C2945 C 0.30117 0.21378 0.54404 0.0
C2946 C 0.30186 0.21792 0.55689 0.0
C2947 C 0.31413 0.23061 0.56132 0.0
C2948 C 0.32577 0.23916 0.55291 0.0
C2949 C 0.35206 0.32211 0.51534 0.0
C2950 C 0.35794 0.32912 0.52695 0.0
C2951 C 0.34917 0.30359 0.51392 0.0
C2952 C 0.35202 0.29182 0.52411 0.0
C2953 C 0.3573 0.29895 0.5358 0.0
C2954 C 0.3603 0.31733 0.53718 0.0
C2955 C 0.35021 0.27199 0.52273 0.0
C2956 C 0.33874 0.26277 0.53101 0.0
C2957 C 0.36047 0.26204 0.51392 0.0
C2958 C 0.37338 0.27082 0.50527 0.0
C2959 C 0.38763 0.28115 0.51006 0.0
C2960 C 0.39971 0.28944 0.50183 0.0
C2961 C 0.39777 0.28737 0.48879 0.0
C2962 C 0.38377 0.27696 0.48395 0.0
C2963 C 0.37164 0.26866 0.49215 0.0
H2964 H 0.40714 0.29379 0.48243 0.0
H2965 H 0.29287 0.2113 0.56342 0.0
H2966 H 0.93252 0.09265 0.79481 0.0
H2967 H 0.96506 0.09049 0.79259 0.0
H2968 H 0.96114 0.10828 0.75397 0.0
H2969 H 0.9284 0.11063 0.75614 0.0
H2970 H 0.98807 0.08033 0.75847 0.0
H2971 H 0.97053 0.13838 0.77361 0.0
H2972 H 0.95428 0.15942 0.78745 0.0
H2973 H 0.9815 0.13797 0.81983 0.0
H2974 H 0.99771 0.11657 0.8062 0.0
H2975 H 0.08046 0.111 0.75586 0.0
H2976 H 0.04787 0.10698 0.75385 0.0
H2977 H 0.04412 0.09721 0.7939 0.0
H2978 H 0.07642 0.10138 0.79597 0.0
H2979 H 0.02067 0.12195 0.78694 0.0
H2980 H 0.03801 0.06361 0.772 0.0
H2981 H 0.05393 0.0421 0.75833 0.0
H2982 H 0.02742 0.06379 0.72574 0.0
H2983 H 0.0115 0.08561 0.7392 0.0
C2984 C 0.93849 0.09575 0.78575 0.0
C2985 C 0.92786 0.10193 0.77567 0.0
C2986 C 0.95712 0.09454 0.78451 0.0
C2987 C 0.96555 0.09941 0.77316 0.0
C2988 C 0.95491 0.10445 0.76281 0.0
C2989 C 0.93621 0.1058 0.76407 0.0
C2990 C 0.98545 0.10086 0.77263 0.0
C2991 C 0.99524 0.08959 0.76455 0.0
C2992 C 0.99479 0.11279 0.78068 0.0
C2993 C 0.9852 0.12575 0.7889 0.0
C2994 C 0.97294 0.13804 0.7837 0.0
C2995 C 0.96375 0.15005 0.7915 0.0
C2996 C 0.96682 0.15 0.80451 0.0
C2997 C 0.97912 0.13797 0.80975 0.0
C2998 C 0.98832 0.12591 0.80199 0.0
C2999 C 0.07271 0.10767 0.76418 0.0
C3000 C 0.08103 0.10657 0.77608 0.0
C3001 C 0.05407 0.10537 0.76302 0.0
C3002 C 0.04347 0.10182 0.77373 0.0
C3003 C 0.05194 0.10004 0.78551 0.0
C3004 C 0.07045 0.10237 0.78667 0.0
C3005 C 0.02349 0.10112 0.77298 0.0
C3006 C 0.01361 0.11268 0.78081 0.0
C3007 C 0.01416 0.08945 0.7647 0.0
C3008 C 0.02373 0.07638 0.75659 0.0
C3009 C 0.0357 0.06391 0.7619 0.0
C3010 C 0.04469 0.05163 0.75419 0.0
C3011 C 0.04173 0.05161 0.74117 0.0
C3012 C 0.02972 0.06384 0.73583 0.0
C3013 C 0.0207 0.07615 0.74349 0.0
H3014 H 0.0487 0.0421 0.73522 0.0
H3015 H 0.95969 0.15931 0.81054 0.0
H3016 H 0.12313 0.18297 0.95678 0.0
H3017 H 0.12864 0.21502 0.95831 0.0
H3018 H 0.17179 0.2054 0.98457 0.0
H3019 H 0.16623 0.17286 0.98311 0.0
H3020 H 0.14944 0.23424 0.99178 0.0
H3021 H 0.18261 0.21669 0.95548 0.0
H3022 H 0.18797 0.20121 0.93526 0.0
H3023 H 0.14577 0.23166 0.91789 0.0
H3024 H 0.13996 0.24714 0.93806 0.0
H3025 H 0.16577 0.33001 0.98318 0.0
H3026 H 0.17113 0.29747 0.98484 0.0
H3027 H 0.12934 0.28787 0.95749 0.0
H3028 H 0.12403 0.31992 0.95578 0.0
H3029 H 0.15874 0.26844 0.95214 0.0
H3030 H 0.12251 0.28181 0.98917 0.0
H3031 H 0.11624 0.29683 0.00944 0.0
H3032 H 0.16417 0.27421 0.02534 0.0
H3033 H 0.17083 0.25923 0.00509 0.0
C3034 C 0.13383 0.18757 0.9629 0.0
C3035 C 0.14432 0.1753 0.96977 0.0
C3036 C 0.13699 0.20596 0.96373 0.0
C3037 C 0.15079 0.21266 0.97141 0.0
C3038 C 0.16112 0.20053 0.97853 0.0
C3039 C 0.15798 0.18196 0.97766 0.0
C3040 C 0.15416 0.23236 0.97176 0.0
C3041 C 0.15192 0.24172 0.98317 0.0
C3042 C 0.15724 0.24216 0.96052 0.0
C3043 C 0.16081 0.23303 0.94831 0.0
C3044 C 0.1744 0.22002 0.94737 0.0
C3045 C 0.17753 0.21125 0.93591 0.0
C3046 C 0.16721 0.21543 0.9253 0.0
C3047 C 0.15376 0.22843 0.92612 0.0
C3048 C 0.15057 0.23723 0.93756 0.0
C3049 C 0.15778 0.32091 0.97754 0.0
C3050 C 0.14447 0.32757 0.96936 0.0
C3051 C 0.16081 0.30233 0.97851 0.0
C3052 C 0.15061 0.29017 0.9713 0.0
C3053 C 0.13744 0.29691 0.96311 0.0
C3054 C 0.13438 0.31531 0.96219 0.0
C3055 C 0.15331 0.27038 0.97206 0.0
C3056 C 0.15672 0.26098 0.96082 0.0
C3057 C 0.15129 0.2606 0.98344 0.0
C3058 C 0.14729 0.26961 0.99558 0.0
C3059 C 0.13179 0.28017 0.99696 0.0
C3060 C 0.12815 0.28865 0.00845 0.0
C3061 C 0.13984 0.28653 0.01866 0.0
C3062 C 0.15515 0.27588 0.01741 0.0
C3063 C 0.15887 0.26739 0.00593 0.0
H3064 H 0.13699 0.2931 0.02755 0.0
H3065 H 0.16964 0.20862 0.91644 0.0
H3066 H 0.93333 0.8779 0.20802 0.0
H3067 H 0.96542 0.88088 0.21152 0.0
H3068 H 0.95567 0.91917 0.24124 0.0
H3069 H 0.92307 0.91629 0.23771 0.0
H3070 H 0.9855 0.9282 0.22485 0.0
H3071 H 0.96584 0.87907 0.25015 0.0
H3072 H 0.94923 0.85121 0.25467 0.0
H3073 H 0.97934 0.82356 0.22612 0.0
H3074 H 0.99594 0.85132 0.2213 0.0
H3075 H 0.08078 0.91407 0.23755 0.0
H3076 H 0.04829 0.91834 0.24061 0.0
H3077 H 0.03775 0.87568 0.21411 0.0
H3078 H 0.06974 0.8712 0.21124 0.0
H3079 H 0.01766 0.87152 0.23426 0.0
H3080 H 0.03337 0.92138 0.20667 0.0
H3081 H 0.04945 0.94925 0.20126 0.0
H3082 H 0.02684 0.97533 0.23372 0.0
H3083 H 0.0108 0.94752 0.23939 0.0
C3084 C 0.93791 0.88707 0.21527 0.0
C3085 C 0.92559 0.89674 0.22267 0.0
C3086 C 0.95632 0.88874 0.21727 0.0
C3087 C 0.96298 0.90003 0.22676 0.0
C3088 C 0.95082 0.91031 0.23388 0.0
C3089 C 0.93222 0.90864 0.23188 0.0
C3090 C 0.98263 0.9002 0.22936 0.0
C3091 C 0.99255 0.91592 0.2272 0.0
C3092 C 0.99185 0.88415 0.23233 0.0
C3093 C 0.98209 0.86732 0.23533 0.0
C3094 C 0.96885 0.86708 0.24479 0.0
C3095 C 0.95944 0.85129 0.24741 0.0
C3096 C 0.96321 0.83563 0.24068 0.0
C3097 C 0.97644 0.8357 0.23133 0.0
C3098 C 0.98587 0.85145 0.22867 0.0
C3099 C 0.07148 0.90565 0.2324 0.0
C3100 C 0.07787 0.89226 0.22418 0.0
C3101 C 0.05292 0.90813 0.23412 0.0
C3102 C 0.04049 0.89734 0.22758 0.0
C3103 C 0.04698 0.88411 0.21935 0.0
C3104 C 0.06535 0.8816 0.21768 0.0
C3105 C 0.02068 0.89932 0.2292 0.0
C3106 C 0.01068 0.88394 0.2322 0.0
C3107 C 0.01146 0.91565 0.22696 0.0
C3108 C 0.02108 0.93233 0.22354 0.0
C3109 C 0.03195 0.93302 0.2127 0.0
C3110 C 0.04103 0.94881 0.20958 0.0
C3111 C 0.03922 0.96404 0.21717 0.0
C3112 C 0.02827 0.96352 0.22787 0.0
C3113 C 0.01918 0.94775 0.23104 0.0
H3114 H 0.04626 0.97625 0.21473 0.0
H3115 H 0.9559 0.82343 0.24271 0.0
H3116 H 0.35866 0.68221 0.45323 0.0
H3117 H 0.35512 0.71458 0.45525 0.0
H3118 H 0.35327 0.70942 0.49581 0.0
H3119 H 0.35596 0.67667 0.49374 0.0
H3120 H 0.33154 0.73511 0.48922 0.0
H3121 H 0.39238 0.72254 0.47985 0.0
H3122 H 0.41809 0.70914 0.46865 0.0
H3123 H 0.40316 0.73698 0.43475 0.0
H3124 H 0.37721 0.75036 0.4457 0.0
H3125 H 0.36333 0.82895 0.4942 0.0
H3126 H 0.36054 0.79619 0.49599 0.0
H3127 H 0.34162 0.79352 0.45759 0.0
H3128 H 0.34389 0.82614 0.45582 0.0
H3129 H 0.37496 0.7722 0.46517 0.0
H3130 H 0.31286 0.7843 0.47648 0.0
H3131 H 0.28931 0.79821 0.48956 0.0
H3132 H 0.31024 0.7719 0.52248 0.0
H3133 H 0.3341 0.75803 0.50961 0.0
C3134 C 0.3573 0.68794 0.46258 0.0
C3135 C 0.35775 0.67692 0.47334 0.0
C3136 C 0.3554 0.70649 0.46374 0.0
C3137 C 0.35446 0.71461 0.4757 0.0
C3138 C 0.35411 0.70355 0.48647 0.0
C3139 C 0.35565 0.68484 0.48529 0.0
C3140 C 0.35448 0.73461 0.47682 0.0
C3141 C 0.3412 0.74317 0.48408 0.0
C3142 C 0.36712 0.7453 0.47022 0.0
C3143 C 0.38275 0.73734 0.46358 0.0
C3144 C 0.3945 0.72571 0.46999 0.0
C3145 C 0.40913 0.71813 0.46368 0.0
C3146 C 0.41223 0.72218 0.45099 0.0
C3147 C 0.40073 0.73384 0.44458 0.0
C3148 C 0.38607 0.74145 0.45084 0.0
C3149 C 0.35813 0.82142 0.48625 0.0
C3150 C 0.35382 0.83016 0.47487 0.0
C3151 C 0.35658 0.80272 0.48729 0.0
C3152 C 0.35093 0.79245 0.4769 0.0
C3153 C 0.34598 0.80121 0.46571 0.0
C3154 C 0.34721 0.81987 0.46475 0.0
C3155 C 0.35177 0.77255 0.47722 0.0
C3156 C 0.36535 0.76405 0.4703 0.0
C3157 C 0.33975 0.76201 0.4844 0.0
C3158 C 0.32539 0.77031 0.49211 0.0
C3159 C 0.31256 0.78163 0.48653 0.0
C3160 C 0.29913 0.78947 0.4939 0.0
C3161 C 0.29832 0.78599 0.50685 0.0
C3162 C 0.31091 0.77461 0.51245 0.0
C3163 C 0.32438 0.76675 0.50512 0.0
H3164 H 0.2879 0.79206 0.51254 0.0
H3165 H 0.42356 0.71629 0.44613 0.0
H3166 H 0.42804 0.08052 0.72328 0.0
H3167 H 0.46068 0.07604 0.72487 0.0
H3168 H 0.46814 0.13324 0.72796 0.0
H3169 H 0.4359 0.13775 0.72621 0.0
H3170 H 0.48974 0.12003 0.71061 0.0
H3171 H 0.47344 0.10438 0.75335 0.0
H3172 H 0.45753 0.08716 0.76977 0.0
H3173 H 0.48181 0.03851 0.75644 0.0
H3174 H 0.4977 0.05542 0.73983 0.0
H3175 H 0.57594 0.13532 0.73248 0.0
H3176 H 0.5436 0.13076 0.73324 0.0
H3177 H 0.55061 0.07541 0.72261 0.0
H3178 H 0.58333 0.07993 0.72173 0.0
H3179 H 0.52219 0.08301 0.74214 0.0
H3180 H 0.54029 0.09973 0.70029 0.0
H3181 H 0.55677 0.11775 0.6846 0.0
H3182 H 0.52891 0.16509 0.69674 0.0
H3183 H 0.51248 0.1474 0.71266 0.0
C3184 C 0.43667 0.09208 0.72447 0.0
C3185 C 0.42938 0.10949 0.72456 0.0
C3186 C 0.45531 0.08952 0.72539 0.0
C3187 C 0.46694 0.10432 0.7265 0.0
C3188 C 0.45953 0.12161 0.727 0.0
C3189 C 0.44104 0.12416 0.72604 0.0
C3190 C 0.48685 0.10222 0.7265 0.0
C3191 C 0.49677 0.11199 0.71757 0.0
C3192 C 0.49614 0.0913 0.7353 0.0
C3193 C 0.48658 0.08113 0.74525 0.0
C3194 C 0.47526 0.08999 0.75385 0.0
C3195 C 0.46627 0.08029 0.76321 0.0
C3196 C 0.46861 0.06175 0.76412 0.0
C3197 C 0.47998 0.05287 0.7557 0.0
C3198 C 0.48899 0.0625 0.74632 0.0
C3199 C 0.57071 0.12206 0.73051 0.0
C3200 C 0.58223 0.10802 0.72694 0.0
C3201 C 0.55218 0.11949 0.73095 0.0
C3202 C 0.54468 0.10281 0.72786 0.0
C3203 C 0.55614 0.08839 0.72504 0.0
C3204 C 0.57481 0.091 0.72453 0.0
C3205 C 0.52488 0.10123 0.7265 0.0
C3206 C 0.51506 0.09081 0.7351 0.0
C3207 C 0.51558 0.11159 0.71742 0.0
C3208 C 0.52525 0.12225 0.70774 0.0
C3209 C 0.53777 0.114 0.69968 0.0
C3210 C 0.54709 0.12416 0.69073 0.0
C3211 C 0.54391 0.14256 0.68969 0.0
C3212 C 0.53137 0.15084 0.69757 0.0
C3213 C 0.52203 0.14075 0.70655 0.0
H3214 H 0.55114 0.1504 0.68276 0.0
H3215 H 0.46165 0.05426 0.77137 0.0
H3216 H 0.83014 0.32872 0.96612 0.0
H3217 H 0.82598 0.2963 0.96849 0.0
H3218 H 0.8707 0.2944 0.99433 0.0
H3219 H 0.87518 0.32662 0.99171 0.0
H3220 H 0.87481 0.26985 0.97736 0.0
H3221 H 0.82565 0.28767 0.00369 0.0
H3222 H 0.79774 0.30363 0.00912 0.0
H3223 H 0.77005 0.27649 0.97914 0.0
H3224 H 0.79788 0.26053 0.97341 0.0
H3225 H 0.86816 0.18011 0.99607 0.0
H3226 H 0.86496 0.21265 0.99759 0.0
H3227 H 0.82645 0.21189 0.96722 0.0
H3228 H 0.82958 0.17921 0.96564 0.0
H3229 H 0.81816 0.23743 0.98647 0.0
H3230 H 0.86772 0.22041 0.95997 0.0
H3231 H 0.89556 0.2041 0.95489 0.0
H3232 H 0.9225 0.23007 0.98572 0.0
H3233 H 0.8947 0.24632 0.99112 0.0
C3234 C 0.83884 0.32143 0.9725 0.0
C3235 C 0.85301 0.33025 0.97871 0.0
C3236 C 0.83644 0.30287 0.97387 0.0
C3237 C 0.84799 0.29279 0.98163 0.0
C3238 C 0.86165 0.30178 0.98825 0.0
C3239 C 0.86415 0.32025 0.98679 0.0
C3240 C 0.84685 0.27279 0.98213 0.0
C3241 C 0.86245 0.26285 0.97957 0.0
C3242 C 0.83064 0.26347 0.98463 0.0
C3243 C 0.8139 0.27304 0.98805 0.0
C3244 C 0.81365 0.28522 0.99819 0.0
C3245 C 0.79784 0.29424 0.00133 0.0
C3246 C 0.78215 0.29112 0.99446 0.0
C3247 C 0.78223 0.27892 0.98444 0.0
C3248 C 0.79801 0.26987 0.98125 0.0
C3249 C 0.85869 0.18678 0.9899 0.0
C3250 C 0.84922 0.17706 0.98067 0.0
C3251 C 0.85693 0.20542 0.99075 0.0
C3252 C 0.84566 0.21476 0.98239 0.0
C3253 C 0.83524 0.20498 0.97375 0.0
C3254 C 0.83705 0.18629 0.97286 0.0
C3255 C 0.84615 0.23472 0.98192 0.0
C3256 C 0.83048 0.24456 0.98436 0.0
C3257 C 0.86229 0.24403 0.97935 0.0
C3258 C 0.87908 0.23444 0.97603 0.0
C3259 C 0.87954 0.22254 0.96573 0.0
C3260 C 0.89532 0.21332 0.96278 0.0
C3261 C 0.91078 0.21601 0.97 0.0
C3262 C 0.9105 0.22797 0.98015 0.0
C3263 C 0.89474 0.2372 0.98316 0.0
H3264 H 0.92298 0.20886 0.9677 0.0
H3265 H 0.76992 0.29811 0.99691 0.0
H3266 H 0.63273 0.82263 0.49061 0.0
H3267 H 0.63731 0.79038 0.49232 0.0
H3268 H 0.67935 0.79323 0.4644 0.0
H3269 H 0.67434 0.82559 0.46234 0.0
H3270 H 0.6582 0.76723 0.45856 0.0
H3271 H 0.68759 0.78333 0.49673 0.0
H3272 H 0.69174 0.79838 0.51725 0.0
H3273 H 0.64599 0.77057 0.53218 0.0
H3274 H 0.64141 0.75553 0.51169 0.0
H3275 H 0.6739 0.67304 0.4667 0.0
H3276 H 0.67988 0.70541 0.46807 0.0
H3277 H 0.63115 0.71262 0.48938 0.0
H3278 H 0.62498 0.68048 0.48787 0.0
H3279 H 0.66065 0.73305 0.49871 0.0
H3280 H 0.62968 0.7204 0.45942 0.0
H3281 H 0.62595 0.70521 0.4389 0.0
H3282 H 0.67629 0.72668 0.42628 0.0
H3283 H 0.68044 0.7418 0.44682 0.0
C3284 C 0.64321 0.81648 0.48501 0.0
C3285 C 0.6532 0.82671 0.47636 0.0
C3286 C 0.64588 0.79797 0.48603 0.0
C3287 C 0.65884 0.78925 0.47859 0.0
C3288 C 0.66928 0.79958 0.47026 0.0
C3289 C 0.66649 0.81811 0.46914 0.0
C3290 C 0.66039 0.76926 0.47882 0.0
C3291 C 0.65918 0.75983 0.46735 0.0
C3292 C 0.66137 0.75941 0.49026 0.0
C3293 C 0.66409 0.76839 0.50263 0.0
C3294 C 0.67834 0.78051 0.50436 0.0
C3295 C 0.68078 0.78903 0.51599 0.0
C3296 C 0.66911 0.78546 0.526 0.0
C3297 C 0.65501 0.77333 0.52441 0.0
C3298 C 0.6525 0.76478 0.51279 0.0
C3299 C 0.66464 0.68151 0.47186 0.0
C3300 C 0.64895 0.67425 0.47715 0.0
C3301 C 0.66804 0.69999 0.47259 0.0
C3302 C 0.65591 0.71145 0.47878 0.0
C3303 C 0.64071 0.70405 0.48459 0.0
C3304 C 0.63717 0.68568 0.48369 0.0
C3305 C 0.65825 0.73126 0.47851 0.0
C3306 C 0.66008 0.74058 0.48995 0.0
C3307 C 0.65799 0.74103 0.46706 0.0
C3308 C 0.65547 0.73203 0.4547 0.0
C3309 C 0.64003 0.72175 0.45231 0.0
C3310 C 0.63783 0.71318 0.44067 0.0
C3311 C 0.6509 0.71494 0.43131 0.0
C3312 C 0.66619 0.7253 0.43355 0.0
C3313 C 0.66848 0.73388 0.44519 0.0
H3314 H 0.64916 0.70832 0.42231 0.0
H3315 H 0.67103 0.79207 0.535 0.0
H3316 H 0.83319 0.67701 0.02733 0.0
H3317 H 0.82873 0.70955 0.02549 0.0
H3318 H 0.88443 0.71594 0.01537 0.0
H3319 H 0.889 0.68374 0.01756 0.0
H3320 H 0.87671 0.73915 0.03239 0.0
H3321 H 0.84847 0.72067 0.99374 0.0
H3322 H 0.82707 0.7039 0.98047 0.0
H3323 H 0.78295 0.72833 3e-05 0.0
H3324 H 0.8041 0.74508 0.01354 0.0
H3325 H 0.87997 0.8266 0.00881 0.0
H3326 H 0.8769 0.79403 0.0078 0.0
H3327 H 0.8276 0.79711 0.02891 0.0
H3328 H 0.83072 0.82988 0.03016 0.0
H3329 H 0.82952 0.76968 0.00729 0.0
H3330 H 0.85913 0.78854 0.04569 0.0
H3331 H 0.88141 0.80605 0.05771 0.0
H3332 H 0.9241 0.78075 0.03715 0.0
H3333 H 0.90203 0.76331 0.02485 0.0
C3334 C 0.84439 0.68537 0.02456 0.0
C3335 C 0.86145 0.6778 0.02263 0.0
C3336 C 0.84184 0.70398 0.02347 0.0
C3337 C 0.85624 0.71532 0.02025 0.0
C3338 C 0.87311 0.7076 0.01795 0.0
C3339 C 0.8757 0.68913 0.01916 0.0
C3340 C 0.85422 0.73526 0.01987 0.0
C3341 C 0.86646 0.74572 0.02678 0.0
C3342 C 0.8406 0.74404 0.01283 0.0
C3343 C 0.82787 0.73397 0.00475 0.0
C3344 C 0.8342 0.72235 0.99529 0.0
C3345 C 0.82212 0.71287 0.98771 0.0
C3346 C 0.80366 0.71501 0.98943 0.0
C3347 C 0.79725 0.72667 0.99872 0.0
C3348 C 0.80928 0.73616 0.00634 0.0
C3349 C 0.86823 0.82045 0.01299 0.0
C3350 C 0.85564 0.83086 0.01963 0.0
C3351 C 0.86651 0.8018 0.01241 0.0
C3352 C 0.8521 0.79314 0.01835 0.0
C3353 C 0.8388 0.80354 0.02423 0.0
C3354 C 0.84061 0.82226 0.02494 0.0
C3355 C 0.8522 0.77327 0.01959 0.0
C3356 C 0.83964 0.76294 0.01292 0.0
C3357 C 0.86561 0.76452 0.02674 0.0
C3358 C 0.87892 0.77475 0.03427 0.0
C3359 C 0.87326 0.78682 0.04366 0.0
C3360 C 0.88585 0.79672 0.05054 0.0
C3361 C 0.90416 0.79454 0.04817 0.0
C3362 C 0.90991 0.78243 0.03896 0.0
C3363 C 0.89737 0.77253 0.03204 0.0
H3364 H 0.91389 0.80222 0.0535 0.0
H3365 H 0.79433 0.70767 0.98355 0.0
H3366 H 0.63074 0.32211 0.50836 0.0
H3367 H 0.63536 0.28985 0.50632 0.0
H3368 H 0.6779 0.29228 0.53388 0.0
H3369 H 0.67363 0.32485 0.5357 0.0
H3370 H 0.68569 0.26769 0.51598 0.0
H3371 H 0.63569 0.28026 0.54262 0.0
H3372 H 0.60697 0.29415 0.54875 0.0
H3373 H 0.58059 0.26788 0.51781 0.0
H3374 H 0.60922 0.25404 0.51138 0.0
H3375 H 0.67457 0.17504 0.53594 0.0
H3376 H 0.67801 0.20767 0.53423 0.0
H3377 H 0.6399 0.20849 0.50362 0.0
H3378 H 0.63655 0.17596 0.50516 0.0
H3379 H 0.63099 0.23134 0.52353 0.0
H3380 H 0.68221 0.21793 0.49761 0.0
H3381 H 0.71127 0.20382 0.49264 0.0
H3382 H 0.73567 0.23105 0.52397 0.0
H3383 H 0.70668 0.24513 0.52925 0.0
C3384 C 0.6413 0.31585 0.51383 0.0
C3385 C 0.65172 0.32602 0.52227 0.0
C3386 C 0.64388 0.29736 0.5127 0.0
C3387 C 0.65669 0.2885 0.52017 0.0
C3388 C 0.66786 0.29877 0.52807 0.0
C3389 C 0.66541 0.31738 0.5291 0.0
C3390 C 0.65747 0.2685 0.52031 0.0
C3391 C 0.67378 0.25974 0.51777 0.0
C3392 C 0.64192 0.25803 0.52258 0.0
C3393 C 0.62464 0.26625 0.52645 0.0
C3394 C 0.62379 0.27755 0.53707 0.0
C3395 C 0.60753 0.2854 0.5406 0.0
C3396 C 0.59197 0.28194 0.53365 0.0
C3397 C 0.59265 0.27057 0.52317 0.0
C3398 C 0.60889 0.26271 0.51958 0.0
C3399 C 0.66728 0.18212 0.52863 0.0
C3400 C 0.65526 0.17289 0.5207 0.0
C3401 C 0.66925 0.20078 0.52767 0.0
C3402 C 0.65916 0.21055 0.51882 0.0
C3403 C 0.64779 0.20124 0.51053 0.0
C3404 C 0.64596 0.18261 0.51138 0.0
C3405 C 0.65911 0.23053 0.51896 0.0
C3406 C 0.6429 0.23928 0.52168 0.0
C3407 C 0.67479 0.24089 0.51705 0.0
C3408 C 0.69222 0.23243 0.51391 0.0
C3409 C 0.69373 0.22077 0.50352 0.0
C3410 C 0.7102 0.21281 0.50063 0.0
C3411 C 0.7253 0.2165 0.50801 0.0
C3412 C 0.72396 0.22819 0.51827 0.0
C3413 C 0.70751 0.23617 0.52121 0.0
H3414 H 0.73804 0.21033 0.50575 0.0
H3415 H 0.57939 0.28802 0.5364 0.0
H3416 H 0.93151 0.40847 0.79495 0.0
H3417 H 0.96359 0.41315 0.79228 0.0
H3418 H 0.95779 0.40752 0.75194 0.0
H3419 H 0.9255 0.40222 0.75464 0.0
H3420 H 0.98492 0.38834 0.75944 0.0
H3421 H 0.96813 0.449 0.76649 0.0
H3422 H 0.95314 0.47436 0.77705 0.0
H3423 H 0.9831 0.46403 0.81091 0.0
H3424 H 0.9981 0.43844 0.80061 0.0
H3425 H 0.07936 0.40545 0.75465 0.0
H3426 H 0.04697 0.41037 0.75198 0.0
H3427 H 0.04023 0.41006 0.79242 0.0
H3428 H 0.07237 0.40523 0.79512 0.0
H3429 H 0.01954 0.43579 0.78144 0.0
H3430 H 0.03254 0.37261 0.775 0.0
H3431 H 0.04745 0.34719 0.76443 0.0
H3432 H 0.02439 0.36302 0.72898 0.0
H3433 H 0.00953 0.38869 0.73933 0.0
C3434 C 0.93696 0.40852 0.78548 0.0
C3435 C 0.9259 0.40502 0.775 0.0
C3436 C 0.95538 0.4113 0.78395 0.0
C3437 C 0.96322 0.41096 0.77188 0.0
C3438 C 0.95211 0.40792 0.76135 0.0
C3439 C 0.93363 0.40499 0.76289 0.0
C3440 C 0.98312 0.41255 0.77048 0.0
C3441 C 0.99242 0.39899 0.764 0.0
C3442 C 0.99308 0.42627 0.77656 0.0
C3443 C 0.98417 0.44172 0.78279 0.0
C3444 C 0.97145 0.45206 0.77621 0.0
C3445 C 0.96296 0.46649 0.78215 0.0
C3446 C 0.96714 0.47078 0.79465 0.0
C3447 C 0.97986 0.46068 0.80123 0.0
C3448 C 0.98839 0.44623 0.79534 0.0
C3449 C 0.07099 0.40675 0.76296 0.0
C3450 C 0.07842 0.40488 0.7751 0.0
C3451 C 0.05247 0.40945 0.76142 0.0
C3452 C 0.0411 0.4104 0.772 0.0
C3453 C 0.04868 0.40938 0.78411 0.0
C3454 C 0.06708 0.40657 0.78564 0.0
C3455 C 0.02121 0.41141 0.77065 0.0
C3456 C 0.01194 0.42541 0.77665 0.0
C3457 C 0.01128 0.39816 0.76409 0.0
C3458 C 0.02012 0.38268 0.7579 0.0
C3459 C 0.03077 0.37075 0.76493 0.0
C3460 C 0.03919 0.35628 0.75899 0.0
C3461 C 0.03691 0.35352 0.74603 0.0
C3462 C 0.02617 0.36519 0.73901 0.0
C3463 C 0.01774 0.3797 0.7449 0.0
H3464 H 0.04344 0.34231 0.74145 0.0
H3465 H 0.96055 0.48196 0.79923 0.0
H3466 H 0.42202 0.58372 0.27762 0.0
H3467 H 0.4546 0.5796 0.27522 0.0
H3468 H 0.4613 0.63685 0.27188 0.0
H3469 H 0.42905 0.641 0.27422 0.0
H3470 H 0.48164 0.61953 0.25479 0.0
H3471 H 0.46957 0.61527 0.29957 0.0
H3472 H 0.45526 0.60254 0.31855 0.0
H3473 H 0.47839 0.55111 0.31033 0.0
H3474 H 0.49267 0.56352 0.2912 0.0
H3475 H 0.56889 0.64224 0.27326 0.0
H3476 H 0.53671 0.63737 0.27134 0.0
H3477 H 0.5448 0.58023 0.27389 0.0
H3478 H 0.57737 0.58507 0.2759 0.0
H3479 H 0.51717 0.59191 0.2893 0.0
H3480 H 0.53311 0.59826 0.24598 0.0
H3481 H 0.54777 0.61205 0.22752 0.0
H3482 H 0.51748 0.66034 0.2332 0.0
H3483 H 0.50282 0.64694 0.25181 0.0
C3484 C 0.43046 0.59538 0.27625 0.0
C3485 C 0.42294 0.61268 0.27614 0.0
C3486 C 0.44908 0.59303 0.27494 0.0
C3487 C 0.46047 0.60794 0.27346 0.0
C3488 C 0.45285 0.62513 0.27299 0.0
C3489 C 0.43437 0.62748 0.27437 0.0
C3490 C 0.48038 0.60599 0.27271 0.0
C3491 C 0.4894 0.61351 0.26235 0.0
C3492 C 0.49055 0.59772 0.28239 0.0
C3493 C 0.48199 0.59026 0.29387 0.0
C3494 C 0.47147 0.60121 0.30175 0.0
C3495 C 0.46339 0.59407 0.31255 0.0
C3496 C 0.46586 0.57601 0.31562 0.0
C3497 C 0.47645 0.56508 0.30792 0.0
C3498 C 0.48455 0.57216 0.2971 0.0
C3499 C 0.56391 0.62859 0.2733 0.0
C3500 C 0.57574 0.61403 0.27469 0.0
C3501 C 0.54545 0.62582 0.27215 0.0
C3502 C 0.53827 0.60842 0.27233 0.0
C3503 C 0.55002 0.59378 0.27368 0.0
C3504 C 0.56862 0.59655 0.27475 0.0
C3505 C 0.51843 0.60588 0.27152 0.0
C3506 C 0.50942 0.59756 0.28159 0.0
C3507 C 0.50823 0.61352 0.26159 0.0
C3508 C 0.51693 0.62161 0.25034 0.0
C3509 C 0.52966 0.61186 0.24335 0.0
C3510 C 0.53796 0.6196 0.23284 0.0
C3511 C 0.53358 0.63707 0.2292 0.0
C3512 C 0.52086 0.64681 0.23603 0.0
C3513 C 0.51252 0.63914 0.24655 0.0
H3514 H 0.54002 0.64304 0.22107 0.0
H3515 H 0.4596 0.57051 0.32398 0.0
H3516 H 0.43234 0.37626 0.73976 0.0
H3517 H 0.4646 0.3807 0.742 0.0
H3518 H 0.46097 0.42976 0.72058 0.0
H3519 H 0.42857 0.42518 0.71811 0.0
H3520 H 0.48714 0.40941 0.71166 0.0
H3521 H 0.47084 0.4298 0.75275 0.0
H3522 H 0.45577 0.4287 0.77345 0.0
H3523 H 0.48442 0.38054 0.78277 0.0
H3524 H 0.49949 0.38121 0.76205 0.0
H3525 H 0.58102 0.42311 0.71905 0.0
H3526 H 0.54869 0.42851 0.72112 0.0
H3527 H 0.54302 0.37886 0.74161 0.0
H3528 H 0.57522 0.37354 0.73973 0.0
H3529 H 0.52159 0.40399 0.75156 0.0
H3530 H 0.53459 0.38149 0.70977 0.0
H3531 H 0.54947 0.38178 0.68898 0.0
H3532 H 0.52663 0.43341 0.681 0.0
H3533 H 0.51182 0.43354 0.70185 0.0
C3534 C 0.43832 0.3882 0.73573 0.0
C3535 C 0.42785 0.40038 0.72878 0.0
C3536 C 0.45682 0.39076 0.73706 0.0
C3537 C 0.46531 0.40566 0.73155 0.0
C3538 C 0.45478 0.41817 0.72494 0.0
C3539 C 0.43622 0.4156 0.7236 0.0
C3540 C 0.48528 0.40732 0.73191 0.0
C3541 C 0.49464 0.40865 0.72043 0.0
C3542 C 0.49519 0.40591 0.74329 0.0
C3543 C 0.48621 0.4055 0.7558 0.0
C3544 C 0.47384 0.41891 0.75918 0.0
C3545 C 0.46531 0.41837 0.77092 0.0
C3546 C 0.46911 0.40454 0.77941 0.0
C3547 C 0.48149 0.39124 0.77618 0.0
C3548 C 0.49005 0.39171 0.76444 0.0
C3549 C 0.57293 0.41352 0.7242 0.0
C3550 C 0.58069 0.39785 0.72917 0.0
C3551 C 0.55442 0.41656 0.72531 0.0
C3552 C 0.54331 0.40395 0.73135 0.0
C3553 C 0.55123 0.38878 0.73688 0.0
C3554 C 0.56969 0.38574 0.73578 0.0
C3555 C 0.52337 0.40586 0.73132 0.0
C3556 C 0.51405 0.4051 0.74283 0.0
C3557 C 0.51347 0.40773 0.71997 0.0
C3558 C 0.52228 0.40762 0.70742 0.0
C3559 C 0.53286 0.39297 0.70362 0.0
C3560 C 0.54126 0.39304 0.69183 0.0
C3561 C 0.53904 0.40763 0.68369 0.0
C3562 C 0.52837 0.42214 0.68733 0.0
C3563 C 0.51997 0.42214 0.69913 0.0
H3564 H 0.54555 0.40766 0.67456 0.0
H3565 H 0.46249 0.40415 0.7885 0.0
H3566 H 0.92154 0.58313 0.22071 0.0
H3567 H 0.95407 0.57805 0.22231 0.0
H3568 H 0.96085 0.6312 0.23761 0.0
H3569 H 0.92861 0.63628 0.23614 0.0
H3570 H 0.9829 0.62477 0.2173 0.0
H3571 H 0.9661 0.59561 0.25615 0.0
H3572 H 0.9499 0.57361 0.26926 0.0
H3573 H 0.97414 0.53044 0.24856 0.0
H3574 H 0.99031 0.55221 0.23521 0.0
H3575 H 0.07088 0.63059 0.23817 0.0
H3576 H 0.03834 0.62755 0.23894 0.0
H3577 H 0.04222 0.57481 0.2225 0.0
H3578 H 0.07509 0.57778 0.22169 0.0
H3579 H 0.01492 0.57788 0.24175 0.0
H3580 H 0.03269 0.60669 0.20352 0.0
H3581 H 0.04917 0.6285 0.19044 0.0
H3582 H 0.02279 0.67193 0.2095 0.0
H3583 H 0.00636 0.65037 0.22285 0.0
C3584 C 0.92995 0.59358 0.22463 0.0
C3585 C 0.92246 0.61012 0.22827 0.0
C3586 C 0.94854 0.59067 0.22554 0.0
C3587 C 0.95994 0.60428 0.23004 0.0
C3588 C 0.95237 0.62053 0.23405 0.0
C3589 C 0.93388 0.62339 0.23325 0.0
C3590 C 0.97985 0.60227 0.22986 0.0
C3591 C 0.98986 0.61459 0.22274 0.0
C3592 C 0.98898 0.58863 0.23659 0.0
C3593 C 0.97923 0.57554 0.24457 0.0
C3594 C 0.96783 0.58143 0.25431 0.0
C3595 C 0.95869 0.569 0.2618 0.0
C3596 C 0.96094 0.55064 0.25972 0.0
C3597 C 0.97238 0.54466 0.25015 0.0
C3598 C 0.98154 0.55704 0.24262 0.0
C3599 C 0.0649 0.61819 0.23491 0.0
C3600 C 0.07561 0.60448 0.22978 0.0
C3601 C 0.04625 0.61649 0.23534 0.0
C3602 C 0.0378 0.60106 0.23062 0.0
C3603 C 0.04846 0.58685 0.22618 0.0
C3604 C 0.06723 0.58856 0.22572 0.0
C3605 C 0.01787 0.60067 0.22945 0.0
C3606 C 0.00789 0.58792 0.23623 0.0
C3607 C 0.00867 0.61387 0.22234 0.0
C3608 C 0.0184 0.6269 0.21426 0.0
C3609 C 0.0305 0.62089 0.20499 0.0
C3610 C 0.03983 0.63321 0.19752 0.0
C3611 C 0.03706 0.65159 0.19916 0.0
C3612 C 0.02493 0.65769 0.20825 0.0
C3613 C 0.0156 0.64542 0.21577 0.0
H3614 H 0.04429 0.66111 0.19336 0.0
H3615 H 0.95386 0.54103 0.26553 0.0
loop_
_geom_bond_atom_site_label_1
_geom_bond_atom_site_label_2
_geom_bond_distance
_geom_bond_site_symmetry_2
_ccdc_geom_bond_type
In0 O1 2.294 . S
In0 O2 2.326 . S
In0 O6 2.266 . S
In0 O7 2.326 . S
In0 O8 2.266 . S
In0 O9 2.326 . S
In0 O11 2.294 . S
In0 O12 2.326 . S
O1 In0 2.294 . S
O1 C10 1.240 . S
O2 In0 2.326 . S
O2 C10 1.252 . S
C3 O6 1.252 . S
C3 O7 1.260 . S
C4 O11 1.240 . S
C4 O12 1.252 . S
C5 O8 1.252 . S
C5 O9 1.260 . S
O6 In0 2.266 . S
O6 C3 1.252 . S
O7 In0 2.326 . S
O7 C3 1.260 . S
O8 In0 2.266 . S
O8 C5 1.252 . S
O9 In0 2.326 . S
O9 C5 1.260 . S
C10 O1 1.240 . S
C10 O2 1.252 . S
O11 In0 2.294 . S
O11 C4 1.240 . S
O12 In0 2.326 . S
O12 C4 1.252 . S
In13 O14 2.294 . S
In13 O15 2.326 . S
In13 O19 2.266 . S
In13 O20 2.326 . S
In13 O21 2.266 . S
In13 O22 2.326 . S
In13 O24 2.294 . S
In13 O25 2.326 . S
O14 In13 2.294 . S
O14 C23 1.240 . S
O15 In13 2.326 . S
O15 C23 1.252 . S
C16 O19 1.252 . S
C16 O20 1.260 . S
C17 O24 1.240 . S
C17 O25 1.252 . S
C18 O21 1.252 . S
C18 O22 1.260 . S
O19 In13 2.266 . S
O19 C16 1.252 . S
O20 In13 2.326 . S
O20 C16 1.260 . S
O21 In13 2.266 . S
O21 C18 1.252 . S
O22 In13 2.326 . S
O22 C18 1.260 . S
C23 O14 1.240 . S
C23 O15 1.252 . S
O24 In13 2.294 . S
O24 C17 1.240 . S
O25 In13 2.326 . S
O25 C17 1.252 . S
In26 O27 2.294 . S
In26 O28 2.326 . S
In26 O32 2.266 . S
In26 O33 2.326 . S
In26 O34 2.266 . S
In26 O35 2.326 . S
In26 O37 2.294 . S
In26 O38 2.326 . S
O27 In26 2.294 . S
O27 C36 1.240 . S
O28 In26 2.326 . S
O28 C36 1.252 . S
C29 O32 1.252 . S
C29 O33 1.260 . S
C30 O37 1.240 . S
C30 O38 1.252 . S
C31 O34 1.252 . S
C31 O35 1.260 . S
O32 In26 2.266 . S
O32 C29 1.252 . S
O33 In26 2.326 . S
O33 C29 1.260 . S
O34 In26 2.266 . S
O34 C31 1.252 . S
O35 In26 2.326 . S
O35 C31 1.260 . S
C36 O27 1.240 . S
C36 O28 1.252 . S
O37 In26 2.294 . S
O37 C30 1.240 . S
O38 In26 2.326 . S
O38 C30 1.252 . S
In39 O40 2.294 . S
In39 O41 2.326 . S
In39 O45 2.266 . S
In39 O46 2.326 . S
In39 O47 2.266 . S
In39 O48 2.326 . S
In39 O50 2.294 . S
In39 O51 2.326 . S
O40 In39 2.294 . S
O40 C49 1.240 . S
O41 In39 2.326 . S
O41 C49 1.252 . S
C42 O45 1.252 . S
C42 O46 1.260 . S
C43 O50 1.240 . S
C43 O51 1.252 . S
C44 O47 1.252 . S
C44 O48 1.260 . S
O45 In39 2.266 . S
O45 C42 1.252 . S
O46 In39 2.326 . S
O46 C42 1.260 . S
O47 In39 2.266 . S
O47 C44 1.252 . S
O48 In39 2.326 . S
O48 C44 1.260 . S
C49 O40 1.240 . S
C49 O41 1.252 . S
O50 In39 2.294 . S
O50 C43 1.240 . S
O51 In39 2.326 . S
O51 C43 1.252 . S
In52 O53 2.294 . S
In52 O54 2.326 . S
In52 O58 2.266 . S
In52 O59 2.326 . S
In52 O60 2.266 . S
In52 O61 2.326 . S
In52 O63 2.294 . S
In52 O64 2.326 . S
O53 In52 2.294 . S
O53 C62 1.240 . S
O54 In52 2.326 . S
O54 C62 1.252 . S
C55 O58 1.252 . S
C55 O59 1.260 . S
C56 O63 1.240 . S
C56 O64 1.252 . S
C57 O60 1.252 . S
C57 O61 1.260 . S
O58 In52 2.266 . S
O58 C55 1.252 . S
O59 In52 2.326 . S
O59 C55 1.260 . S
O60 In52 2.266 . S
O60 C57 1.252 . S
O61 In52 2.326 . S
O61 C57 1.260 . S
C62 O53 1.240 . S
C62 O54 1.252 . S
O63 In52 2.294 . S
O63 C56 1.240 . S
O64 In52 2.326 . S
O64 C56 1.252 . S
In65 O66 2.294 . S
In65 O67 2.326 . S
In65 O71 2.266 . S
In65 O72 2.326 . S
In65 O73 2.266 . S
In65 O74 2.326 . S
In65 O76 2.294 . S
In65 O77 2.326 . S
O66 In65 2.294 . S
O66 C75 1.240 . S
O67 In65 2.326 . S
O67 C75 1.252 . S
C68 O71 1.252 . S
C68 O72 1.260 . S
C69 O76 1.240 . S
C69 O77 1.252 . S
C70 O73 1.252 . S
C70 O74 1.260 . S
O71 In65 2.266 . S
O71 C68 1.252 . S
O72 In65 2.326 . S
O72 C68 1.260 . S
O73 In65 2.266 . S
O73 C70 1.252 . S
O74 In65 2.326 . S
O74 C70 1.260 . S
C75 O66 1.240 . S
C75 O67 1.252 . S
O76 In65 2.294 . S
O76 C69 1.240 . S
O77 In65 2.326 . S
O77 C69 1.252 . S
In78 O79 2.294 . S
In78 O80 2.326 . S
In78 O84 2.266 . S
In78 O85 2.326 . S
In78 O86 2.266 . S
In78 O87 2.326 . S
In78 O89 2.294 . S
In78 O90 2.326 . S
O79 In78 2.294 . S
O79 C88 1.240 . S
O80 In78 2.326 . S
O80 C88 1.252 . S
C81 O84 1.252 . S
C81 O85 1.260 . S
C82 O89 1.240 . S
C82 O90 1.252 . S
C83 O86 1.252 . S
C83 O87 1.260 . S
O84 In78 2.266 . S
O84 C81 1.252 . S
O85 In78 2.326 . S
O85 C81 1.260 . S
O86 In78 2.266 . S
O86 C83 1.252 . S
O87 In78 2.326 . S
O87 C83 1.260 . S
C88 O79 1.240 . S
C88 O80 1.252 . S
O89 In78 2.294 . S
O89 C82 1.240 . S
O90 In78 2.326 . S
O90 C82 1.252 . S
In91 O92 2.294 . S
In91 O93 2.326 . S
In91 O97 2.266 . S
In91 O98 2.326 . S
In91 O99 2.266 . S
In91 O100 2.326 . S
In91 O102 2.294 . S
In91 O103 2.326 . S
O92 In91 2.294 . S
O92 C101 1.240 . S
O93 In91 2.326 . S
O93 C101 1.252 . S
C94 O97 1.252 . S
C94 O98 1.260 . S
C95 O102 1.240 . S
C95 O103 1.252 . S
C96 O99 1.252 . S
C96 O100 1.260 . S
O97 In91 2.266 . S
O97 C94 1.252 . S
O98 In91 2.326 . S
O98 C94 1.260 . S
O99 In91 2.266 . S
O99 C96 1.252 . S
O100 In91 2.326 . S
O100 C96 1.260 . S
C101 O92 1.240 . S
C101 O93 1.252 . S
O102 In91 2.294 . S
O102 C95 1.240 . S
O103 In91 2.326 . S
O103 C95 1.252 . S
In104 O105 2.294 . S
In104 O106 2.326 . S
In104 O110 2.266 . S
In104 O111 2.326 . S
In104 O112 2.266 . S
In104 O113 2.326 . S
In104 O115 2.294 . S
In104 O116 2.326 . S
O105 In104 2.294 . S
O105 C114 1.240 . S
O106 In104 2.326 . S
O106 C114 1.252 . S
C107 O110 1.252 . S
C107 O111 1.260 . S
C108 O115 1.240 . S
C108 O116 1.252 . S
C109 O112 1.252 . S
C109 O113 1.260 . S
O110 In104 2.266 . S
O110 C107 1.252 . S
O111 In104 2.326 . S
O111 C107 1.260 . S
O112 In104 2.266 . S
O112 C109 1.252 . S
O113 In104 2.326 . S
O113 C109 1.260 . S
C114 O105 1.240 . S
C114 O106 1.252 . S
O115 In104 2.294 . S
O115 C108 1.240 . S
O116 In104 2.326 . S
O116 C108 1.252 . S
In117 O118 2.294 . S
In117 O119 2.326 . S
In117 O123 2.266 . S
In117 O124 2.326 . S
In117 O125 2.266 . S
In117 O126 2.326 . S
In117 O128 2.294 . S
In117 O129 2.326 . S
O118 In117 2.294 . S
O118 C127 1.240 . S
O119 In117 2.326 . S
O119 C127 1.252 . S
C120 O123 1.252 . S
C120 O124 1.260 . S
C121 O128 1.240 . S
C121 O129 1.252 . S
C122 O125 1.252 . S
C122 O126 1.260 . S
O123 In117 2.266 . S
O123 C120 1.252 . S
O124 In117 2.326 . S
O124 C120 1.260 . S
O125 In117 2.266 . S
O125 C122 1.252 . S
O126 In117 2.326 . S
O126 C122 1.260 . S
C127 O118 1.240 . S
C127 O119 1.252 . S
O128 In117 2.294 . S
O128 C121 1.240 . S
O129 In117 2.326 . S
O129 C121 1.252 . S
In130 O131 2.294 . S
In130 O132 2.326 . S
In130 O136 2.266 . S
In130 O137 2.326 . S
In130 O138 2.266 . S
In130 O139 2.326 . S
In130 O141 2.294 . S
In130 O142 2.326 . S
O131 In130 2.294 . S
O131 C140 1.240 . S
O132 In130 2.326 . S
O132 C140 1.252 . S
C133 O136 1.252 . S
C133 O137 1.260 . S
C134 O141 1.240 . S
C134 O142 1.252 . S
C135 O138 1.252 . S
C135 O139 1.260 . S
O136 In130 2.266 . S
O136 C133 1.252 . S
O137 In130 2.326 . S
O137 C133 1.260 . S
O138 In130 2.266 . S
O138 C135 1.252 . S
O139 In130 2.326 . S
O139 C135 1.260 . S
C140 O131 1.240 . S
C140 O132 1.252 . S
O141 In130 2.294 . S
O141 C134 1.240 . S
O142 In130 2.326 . S
O142 C134 1.252 . S
In143 O144 2.294 . S
In143 O145 2.326 . S
In143 O149 2.266 . S
In143 O150 2.326 . S
In143 O151 2.266 . S
In143 O152 2.326 . S
In143 O154 2.294 . S
In143 O155 2.326 . S
O144 In143 2.294 . S
O144 C153 1.240 . S
O145 In143 2.326 . S
O145 C153 1.252 . S
C146 O149 1.252 . S
C146 O150 1.260 . S
C147 O154 1.240 . S
C147 O155 1.252 . S
C148 O151 1.252 . S
C148 O152 1.260 . S
O149 In143 2.266 . S
O149 C146 1.252 . S
O150 In143 2.326 . S
O150 C146 1.260 . S
O151 In143 2.266 . S
O151 C148 1.252 . S
O152 In143 2.326 . S
O152 C148 1.260 . S
C153 O144 1.240 . S
C153 O145 1.252 . S
O154 In143 2.294 . S
O154 C147 1.240 . S
O155 In143 2.326 . S
O155 C147 1.252 . S
In156 O157 2.294 . S
In156 O158 2.326 . S
In156 O162 2.266 . S
In156 O163 2.326 . S
In156 O164 2.266 . S
In156 O165 2.326 . S
In156 O167 2.294 . S
In156 O168 2.326 . S
O157 In156 2.294 . S
O157 C166 1.240 . S
O158 In156 2.326 . S
O158 C166 1.252 . S
C159 O162 1.252 . S
C159 O163 1.260 . S
C160 O167 1.240 . S
C160 O168 1.252 . S
C161 O164 1.252 . S
C161 O165 1.260 . S
O162 In156 2.266 . S
O162 C159 1.252 . S
O163 In156 2.326 . S
O163 C159 1.260 . S
O164 In156 2.266 . S
O164 C161 1.252 . S
O165 In156 2.326 . S
O165 C161 1.260 . S
C166 O157 1.240 . S
C166 O158 1.252 . S
O167 In156 2.294 . S
O167 C160 1.240 . S
O168 In156 2.326 . S
O168 C160 1.252 . S
In169 O170 2.294 . S
In169 O171 2.326 . S
In169 O175 2.266 . S
In169 O176 2.326 . S
In169 O177 2.266 . S
In169 O178 2.326 . S
In169 O180 2.294 . S
In169 O181 2.326 . S
O170 In169 2.294 . S
O170 C179 1.240 . S
O171 In169 2.326 . S
O171 C179 1.252 . S
C172 O175 1.252 . S
C172 O176 1.260 . S
C173 O180 1.240 . S
C173 O181 1.252 . S
C174 O177 1.252 . S
C174 O178 1.260 . S
O175 In169 2.266 . S
O175 C172 1.252 . S
O176 In169 2.326 . S
O176 C172 1.260 . S
O177 In169 2.266 . S
O177 C174 1.252 . S
O178 In169 2.326 . S
O178 C174 1.260 . S
C179 O170 1.240 . S
C179 O171 1.252 . S
O180 In169 2.294 . S
O180 C173 1.240 . S
O181 In169 2.326 . S
O181 C173 1.252 . S
In182 O183 2.294 . S
In182 O184 2.326 . S
In182 O188 2.266 . S
In182 O189 2.326 . S
In182 O190 2.266 . S
In182 O191 2.326 . S
In182 O193 2.294 . S
In182 O194 2.326 . S
O183 In182 2.294 . S
O183 C192 1.240 . S
O184 In182 2.326 . S
O184 C192 1.252 . S
C185 O188 1.252 . S
C185 O189 1.260 . S
C186 O193 1.240 . S
C186 O194 1.252 . S
C187 O190 1.252 . S
C187 O191 1.260 . S
O188 In182 2.266 . S
O188 C185 1.252 . S
O189 In182 2.326 . S
O189 C185 1.260 . S
O190 In182 2.266 . S
O190 C187 1.252 . S
O191 In182 2.326 . S
O191 C187 1.260 . S
C192 O183 1.240 . S
C192 O184 1.252 . S
O193 In182 2.294 . S
O193 C186 1.240 . S
O194 In182 2.326 . S
O194 C186 1.252 . S
In195 O196 2.294 . S
In195 O197 2.326 . S
In195 O201 2.266 . S
In195 O202 2.326 . S
In195 O203 2.266 . S
In195 O204 2.326 . S
In195 O206 2.294 . S
In195 O207 2.326 . S
O196 In195 2.294 . S
O196 C205 1.240 . S
O197 In195 2.326 . S
O197 C205 1.252 . S
C198 O201 1.252 . S
C198 O202 1.260 . S
C199 O206 1.240 . S
C199 O207 1.252 . S
C200 O203 1.252 . S
C200 O204 1.260 . S
O201 In195 2.266 . S
O201 C198 1.252 . S
O202 In195 2.326 . S
O202 C198 1.260 . S
O203 In195 2.266 . S
O203 C200 1.252 . S
O204 In195 2.326 . S
O204 C200 1.260 . S
C205 O196 1.240 . S
C205 O197 1.252 . S
O206 In195 2.294 . S
O206 C199 1.240 . S
O207 In195 2.326 . S
O207 C199 1.252 . S
In208 O209 2.294 . S
In208 O210 2.326 . S
In208 O214 2.266 . S
In208 O215 2.326 . S
In208 O216 2.266 . S
In208 O217 2.326 . S
In208 O219 2.294 . S
In208 O220 2.326 . S
O209 In208 2.294 . S
O209 C218 1.240 . S
O210 In208 2.326 . S
O210 C218 1.252 . S
C211 O214 1.252 . S
C211 O215 1.260 . S
C212 O219 1.240 . S
C212 O220 1.252 . S
C213 O216 1.252 . S
C213 O217 1.260 . S
O214 In208 2.266 . S
O214 C211 1.252 . S
O215 In208 2.326 . S
O215 C211 1.260 . S
O216 In208 2.266 . S
O216 C213 1.252 . S
O217 In208 2.326 . S
O217 C213 1.260 . S
C218 O209 1.240 . S
C218 O210 1.252 . S
O219 In208 2.294 . S
O219 C212 1.240 . S
O220 In208 2.326 . S
O220 C212 1.252 . S
In221 O222 2.294 . S
In221 O223 2.326 . S
In221 O227 2.266 . S
In221 O228 2.326 . S
In221 O229 2.266 . S
In221 O230 2.326 . S
In221 O232 2.294 . S
In221 O233 2.326 . S
O222 In221 2.294 . S
O222 C231 1.240 . S
O223 In221 2.326 . S
O223 C231 1.252 . S
C224 O227 1.252 . S
C224 O228 1.260 . S
C225 O232 1.240 . S
C225 O233 1.252 . S
C226 O229 1.252 . S
C226 O230 1.260 . S
O227 In221 2.266 . S
O227 C224 1.252 . S
O228 In221 2.326 . S
O228 C224 1.260 . S
O229 In221 2.266 . S
O229 C226 1.252 . S
O230 In221 2.326 . S
O230 C226 1.260 . S
C231 O222 1.240 . S
C231 O223 1.252 . S
O232 In221 2.294 . S
O232 C225 1.240 . S
O233 In221 2.326 . S
O233 C225 1.252 . S
In234 O235 2.294 . S
In234 O236 2.326 . S
In234 O240 2.266 . S
In234 O241 2.326 . S
In234 O242 2.266 . S
In234 O243 2.326 . S
In234 O245 2.294 . S
In234 O246 2.326 . S
O235 In234 2.294 . S
O235 C244 1.240 . S
O236 In234 2.326 . S
O236 C244 1.252 . S
C237 O240 1.252 . S
C237 O241 1.260 . S
C238 O245 1.240 . S
C238 O246 1.252 . S
C239 O242 1.252 . S
C239 O243 1.260 . S
O240 In234 2.266 . S
O240 C237 1.252 . S
O241 In234 2.326 . S
O241 C237 1.260 . S
O242 In234 2.266 . S
O242 C239 1.252 . S
O243 In234 2.326 . S
O243 C239 1.260 . S
C244 O235 1.240 . S
C244 O236 1.252 . S
O245 In234 2.294 . S
O245 C238 1.240 . S
O246 In234 2.326 . S
O246 C238 1.252 . S
In247 O248 2.294 . S
In247 O249 2.326 . S
In247 O253 2.266 . S
In247 O254 2.326 . S
In247 O255 2.266 . S
In247 O256 2.326 . S
In247 O258 2.294 . S
In247 O259 2.326 . S
O248 In247 2.294 . S
O248 C257 1.240 . S
O249 In247 2.326 . S
O249 C257 1.252 . S
C250 O253 1.252 . S
C250 O254 1.260 . S
C251 O258 1.240 . S
C251 O259 1.252 . S
C252 O255 1.252 . S
C252 O256 1.260 . S
O253 In247 2.266 . S
O253 C250 1.252 . S
O254 In247 2.326 . S
O254 C250 1.260 . S
O255 In247 2.266 . S
O255 C252 1.252 . S
O256 In247 2.326 . S
O256 C252 1.260 . S
C257 O248 1.240 . S
C257 O249 1.252 . S
O258 In247 2.294 . S
O258 C251 1.240 . S
O259 In247 2.326 . S
O259 C251 1.252 . S
In260 O261 2.294 . S
In260 O262 2.326 . S
In260 O266 2.266 . S
In260 O267 2.326 . S
In260 O268 2.266 . S
In260 O269 2.326 . S
In260 O271 2.294 . S
In260 O272 2.326 . S
O261 In260 2.294 . S
O261 C270 1.240 . S
O262 In260 2.326 . S
O262 C270 1.252 . S
C263 O266 1.252 . S
C263 O267 1.260 . S
C264 O271 1.240 . S
C264 O272 1.252 . S
C265 O268 1.252 . S
C265 O269 1.260 . S
O266 In260 2.266 . S
O266 C263 1.252 . S
O267 In260 2.326 . S
O267 C263 1.260 . S
O268 In260 2.266 . S
O268 C265 1.252 . S
O269 In260 2.326 . S
O269 C265 1.260 . S
C270 O261 1.240 . S
C270 O262 1.252 . S
O271 In260 2.294 . S
O271 C264 1.240 . S
O272 In260 2.326 . S
O272 C264 1.252 . S
In273 O274 2.294 . S
In273 O275 2.326 . S
In273 O279 2.266 . S
In273 O280 2.326 . S
In273 O281 2.266 . S
In273 O282 2.326 . S
In273 O284 2.294 . S
In273 O285 2.326 . S
O274 In273 2.294 . S
O274 C283 1.240 . S
O275 In273 2.326 . S
O275 C283 1.252 . S
C276 O279 1.252 . S
C276 O280 1.260 . S
C277 O284 1.240 . S
C277 O285 1.252 . S
C278 O281 1.252 . S
C278 O282 1.260 . S
O279 In273 2.266 . S
O279 C276 1.252 . S
O280 In273 2.326 . S
O280 C276 1.260 . S
O281 In273 2.266 . S
O281 C278 1.252 . S
O282 In273 2.326 . S
O282 C278 1.260 . S
C283 O274 1.240 . S
C283 O275 1.252 . S
O284 In273 2.294 . S
O284 C277 1.240 . S
O285 In273 2.326 . S
O285 C277 1.252 . S
In286 O287 2.294 . S
In286 O288 2.326 . S
In286 O292 2.266 . S
In286 O293 2.326 . S
In286 O294 2.266 . S
In286 O295 2.326 . S
In286 O297 2.294 . S
In286 O298 2.326 . S
O287 In286 2.294 . S
O287 C296 1.240 . S
O288 In286 2.326 . S
O288 C296 1.252 . S
C289 O292 1.252 . S
C289 O293 1.260 . S
C290 O297 1.240 . S
C290 O298 1.252 . S
C291 O294 1.252 . S
C291 O295 1.260 . S
O292 In286 2.266 . S
O292 C289 1.252 . S
O293 In286 2.326 . S
O293 C289 1.260 . S
O294 In286 2.266 . S
O294 C291 1.252 . S
O295 In286 2.326 . S
O295 C291 1.260 . S
C296 O287 1.240 . S
C296 O288 1.252 . S
O297 In286 2.294 . S
O297 C290 1.240 . S
O298 In286 2.326 . S
O298 C290 1.252 . S
In299 O300 2.294 . S
In299 O301 2.326 . S
In299 O305 2.266 . S
In299 O306 2.326 . S
In299 O307 2.266 . S
In299 O308 2.326 . S
In299 O310 2.294 . S
In299 O311 2.326 . S
O300 In299 2.294 . S
O300 C309 1.240 . S
O301 In299 2.326 . S
O301 C309 1.252 . S
C302 O305 1.252 . S
C302 O306 1.260 . S
C303 O310 1.240 . S
C303 O311 1.252 . S
C304 O307 1.252 . S
C304 O308 1.260 . S
O305 In299 2.266 . S
O305 C302 1.252 . S
O306 In299 2.326 . S
O306 C302 1.260 . S
O307 In299 2.266 . S
O307 C304 1.252 . S
O308 In299 2.326 . S
O308 C304 1.260 . S
C309 O300 1.240 . S
C309 O301 1.252 . S
O310 In299 2.294 . S
O310 C303 1.240 . S
O311 In299 2.326 . S
O311 C303 1.252 . S
In312 O313 2.294 . S
In312 O314 2.326 . S
In312 O318 2.266 . S
In312 O319 2.326 . S
In312 O320 2.266 . S
In312 O321 2.326 . S
In312 O323 2.294 . S
In312 O324 2.326 . S
O313 In312 2.294 . S
O313 C322 1.240 . S
O314 In312 2.326 . S
O314 C322 1.252 . S
C315 O318 1.252 . S
C315 O319 1.260 . S
C316 O323 1.240 . S
C316 O324 1.252 . S
C317 O320 1.252 . S
C317 O321 1.260 . S
O318 In312 2.266 . S
O318 C315 1.252 . S
O319 In312 2.326 . S
O319 C315 1.260 . S
O320 In312 2.266 . S
O320 C317 1.252 . S
O321 In312 2.326 . S
O321 C317 1.260 . S
C322 O313 1.240 . S
C322 O314 1.252 . S
O323 In312 2.294 . S
O323 C316 1.240 . S
O324 In312 2.326 . S
O324 C316 1.252 . S
In325 O326 2.294 . S
In325 O327 2.326 . S
In325 O331 2.266 . S
In325 O332 2.326 . S
In325 O333 2.266 . S
In325 O334 2.326 . S
In325 O336 2.294 . S
In325 O337 2.326 . S
O326 In325 2.294 . S
O326 C335 1.240 . S
O327 In325 2.326 . S
O327 C335 1.252 . S
C328 O331 1.252 . S
C328 O332 1.260 . S
C329 O336 1.240 . S
C329 O337 1.252 . S
C330 O333 1.252 . S
C330 O334 1.260 . S
O331 In325 2.266 . S
O331 C328 1.252 . S
O332 In325 2.326 . S
O332 C328 1.260 . S
O333 In325 2.266 . S
O333 C330 1.252 . S
O334 In325 2.326 . S
O334 C330 1.260 . S
C335 O326 1.240 . S
C335 O327 1.252 . S
O336 In325 2.294 . S
O336 C329 1.240 . S
O337 In325 2.326 . S
O337 C329 1.252 . S
In338 O339 2.294 . S
In338 O340 2.326 . S
In338 O344 2.266 . S
In338 O345 2.326 . S
In338 O346 2.266 . S
In338 O347 2.326 . S
In338 O349 2.294 . S
In338 O350 2.326 . S
O339 In338 2.294 . S
O339 C348 1.240 . S
O340 In338 2.326 . S
O340 C348 1.252 . S
C341 O344 1.252 . S
C341 O345 1.260 . S
C342 O349 1.240 . S
C342 O350 1.252 . S
C343 O346 1.252 . S
C343 O347 1.260 . S
O344 In338 2.266 . S
O344 C341 1.252 . S
O345 In338 2.326 . S
O345 C341 1.260 . S
O346 In338 2.266 . S
O346 C343 1.252 . S
O347 In338 2.326 . S
O347 C343 1.260 . S
C348 O339 1.240 . S
C348 O340 1.252 . S
O349 In338 2.294 . S
O349 C342 1.240 . S
O350 In338 2.326 . S
O350 C342 1.252 . S
In351 O352 2.294 . S
In351 O353 2.326 . S
In351 O357 2.266 . S
In351 O358 2.326 . S
In351 O359 2.266 . S
In351 O360 2.326 . S
In351 O362 2.294 . S
In351 O363 2.326 . S
O352 In351 2.294 . S
O352 C361 1.240 . S
O353 In351 2.326 . S
O353 C361 1.252 . S
C354 O357 1.252 . S
C354 O358 1.260 . S
C355 O362 1.240 . S
C355 O363 1.252 . S
C356 O359 1.252 . S
C356 O360 1.260 . S
O357 In351 2.266 . S
O357 C354 1.252 . S
O358 In351 2.326 . S
O358 C354 1.260 . S
O359 In351 2.266 . S
O359 C356 1.252 . S
O360 In351 2.326 . S
O360 C356 1.260 . S
C361 O352 1.240 . S
C361 O353 1.252 . S
O362 In351 2.294 . S
O362 C355 1.240 . S
O363 In351 2.326 . S
O363 C355 1.252 . S
In364 O365 2.294 . S
In364 O366 2.326 . S
In364 O370 2.266 . S
In364 O371 2.326 . S
In364 O372 2.266 . S
In364 O373 2.326 . S
In364 O375 2.294 . S
In364 O376 2.326 . S
O365 In364 2.294 . S
O365 C374 1.240 . S
O366 In364 2.326 . S
O366 C374 1.252 . S
C367 O370 1.252 . S
C367 O371 1.260 . S
C368 O375 1.240 . S
C368 O376 1.252 . S
C369 O372 1.252 . S
C369 O373 1.260 . S
O370 In364 2.266 . S
O370 C367 1.252 . S
O371 In364 2.326 . S
O371 C367 1.260 . S
O372 In364 2.266 . S
O372 C369 1.252 . S
O373 In364 2.326 . S
O373 C369 1.260 . S
C374 O365 1.240 . S
C374 O366 1.252 . S
O375 In364 2.294 . S
O375 C368 1.240 . S
O376 In364 2.326 . S
O376 C368 1.252 . S
In377 O378 2.294 . S
In377 O379 2.326 . S
In377 O383 2.266 . S
In377 O384 2.326 . S
In377 O385 2.266 . S
In377 O386 2.326 . S
In377 O388 2.294 . S
In377 O389 2.326 . S
O378 In377 2.294 . S
O378 C387 1.240 . S
O379 In377 2.326 . S
O379 C387 1.252 . S
C380 O383 1.252 . S
C380 O384 1.260 . S
C381 O388 1.240 . S
C381 O389 1.252 . S
C382 O385 1.252 . S
C382 O386 1.260 . S
O383 In377 2.266 . S
O383 C380 1.252 . S
O384 In377 2.326 . S
O384 C380 1.260 . S
O385 In377 2.266 . S
O385 C382 1.252 . S
O386 In377 2.326 . S
O386 C382 1.260 . S
C387 O378 1.240 . S
C387 O379 1.252 . S
O388 In377 2.294 . S
O388 C381 1.240 . S
O389 In377 2.326 . S
O389 C381 1.252 . S
In390 O391 2.294 . S
In390 O392 2.326 . S
In390 O396 2.266 . S
In390 O397 2.326 . S
In390 O398 2.266 . S
In390 O399 2.326 . S
In390 O401 2.294 . S
In390 O402 2.326 . S
O391 In390 2.294 . S
O391 C400 1.240 . S
O392 In390 2.326 . S
O392 C400 1.252 . S
C393 O396 1.252 . S
C393 O397 1.260 . S
C394 O401 1.240 . S
C394 O402 1.252 . S
C395 O398 1.252 . S
C395 O399 1.260 . S
O396 In390 2.266 . S
O396 C393 1.252 . S
O397 In390 2.326 . S
O397 C393 1.260 . S
O398 In390 2.266 . S
O398 C395 1.252 . S
O399 In390 2.326 . S
O399 C395 1.260 . S
C400 O391 1.240 . S
C400 O392 1.252 . S
O401 In390 2.294 . S
O401 C394 1.240 . S
O402 In390 2.326 . S
O402 C394 1.252 . S
In403 O404 2.294 . S
In403 O405 2.326 . S
In403 O409 2.266 . S
In403 O410 2.326 . S
In403 O411 2.266 . S
In403 O412 2.326 . S
In403 O414 2.294 . S
In403 O415 2.326 . S
O404 In403 2.294 . S
O404 C413 1.240 . S
O405 In403 2.326 . S
O405 C413 1.252 . S
C406 O409 1.252 . S
C406 O410 1.260 . S
C407 O414 1.240 . S
C407 O415 1.252 . S
C408 O411 1.252 . S
C408 O412 1.260 . S
O409 In403 2.266 . S
O409 C406 1.252 . S
O410 In403 2.326 . S
O410 C406 1.260 . S
O411 In403 2.266 . S
O411 C408 1.252 . S
O412 In403 2.326 . S
O412 C408 1.260 . S
C413 O404 1.240 . S
C413 O405 1.252 . S
O414 In403 2.294 . S
O414 C407 1.240 . S
O415 In403 2.326 . S
O415 C407 1.252 . S
H416 C434 0.951 . S
H417 C436 0.951 . S
H418 C438 0.950 . S
H419 C439 0.950 . S
H420 C441 0.950 . S
H421 C444 0.950 . S
H422 C445 0.950 . S
H423 C447 0.950 . S
H424 C448 0.950 . S
H425 C449 0.951 . S
H426 C451 0.951 . S
H427 C453 0.950 . S
H428 C454 0.950 . S
H429 C456 0.950 . S
H430 C459 0.950 . S
H431 C460 0.950 . S
H432 C462 0.950 . S
H433 C463 0.950 . S
C434 H416 0.951 . S
C434 C435 1.366 . S
C434 C436 1.388 . S
C435 C434 1.366 . S
C435 C439 1.385 . S
C436 H417 0.951 . S
C436 C434 1.388 . S
C436 C437 1.366 . S
C437 C436 1.366 . S
C437 C438 1.414 . S
C437 C440 1.499 . S
C438 H418 0.950 . S
C438 C437 1.414 . S
C438 C439 1.374 . S
C439 H419 0.950 . S
C439 C435 1.385 . S
C439 C438 1.374 . S
C440 C437 1.499 . S
C440 C441 1.373 . S
C440 C442 1.389 . S
C441 H420 0.950 . S
C441 C440 1.373 . S
C441 C457 1.377 . S
C442 C440 1.389 . S
C442 C443 1.524 . S
C442 C456 1.377 . S
C443 C442 1.524 . S
C443 C444 1.397 . S
C443 C448 1.363 . S
C444 H421 0.950 . S
C444 C443 1.397 . S
C444 C445 1.334 . S
C445 H422 0.950 . S
C445 C444 1.334 . S
C445 C446 1.287 . S
C446 C445 1.287 . S
C446 C447 1.524 . S
C446 H465 0.913 . S
C447 H423 0.950 . S
C447 C446 1.524 . S
C447 C448 1.415 . S
C448 H424 0.950 . S
C448 C443 1.363 . S
C448 C447 1.415 . S
C449 H425 0.951 . S
C449 C450 1.366 . S
C449 C451 1.388 . S
C450 C449 1.366 . S
C450 C454 1.385 . S
C451 H426 0.951 . S
C451 C449 1.388 . S
C451 C452 1.366 . S
C452 C451 1.366 . S
C452 C453 1.414 . S
C452 C455 1.499 . S
C453 H427 0.950 . S
C453 C452 1.414 . S
C453 C454 1.374 . S
C454 H428 0.950 . S
C454 C450 1.385 . S
C454 C453 1.374 . S
C455 C452 1.499 . S
C455 C456 1.373 . S
C455 C457 1.389 . S
C456 H429 0.950 . S
C456 C442 1.377 . S
C456 C455 1.373 . S
C457 C441 1.377 . S
C457 C455 1.389 . S
C457 C458 1.524 . S
C458 C457 1.524 . S
C458 C459 1.397 . S
C458 C463 1.363 . S
C459 H430 0.950 . S
C459 C458 1.397 . S
C459 C460 1.334 . S
C460 H431 0.950 . S
C460 C459 1.334 . S
C460 C461 1.287 . S
C461 C460 1.287 . S
C461 C462 1.524 . S
C461 H464 0.999 . S
C462 H432 0.950 . S
C462 C461 1.524 . S
C462 C463 1.415 . S
C463 H433 0.950 . S
C463 C458 1.363 . S
C463 C462 1.415 . S
H464 C461 0.999 . S
H465 C446 0.913 . S
H466 C484 0.951 . S
H467 C486 0.951 . S
H468 C488 0.950 . S
H469 C489 0.950 . S
H470 C491 0.950 . S
H471 C494 0.950 . S
H472 C495 0.950 . S
H473 C497 0.950 . S
H474 C498 0.950 . S
H475 C499 0.951 . S
H476 C501 0.951 . S
H477 C503 0.950 . S
H478 C504 0.950 . S
H479 C506 0.950 . S
H480 C509 0.950 . S
H481 C510 0.950 . S
H482 C512 0.950 . S
H483 C513 0.950 . S
C484 H466 0.951 . S
C484 C485 1.366 . S
C484 C486 1.388 . S
C485 C484 1.366 . S
C485 C489 1.385 . S
C486 H467 0.951 . S
C486 C484 1.388 . S
C486 C487 1.366 . S
C487 C486 1.366 . S
C487 C488 1.414 . S
C487 C490 1.499 . S
C488 H468 0.950 . S
C488 C487 1.414 . S
C488 C489 1.374 . S
C489 H469 0.950 . S
C489 C485 1.385 . S
C489 C488 1.374 . S
C490 C487 1.499 . S
C490 C491 1.373 . S
C490 C492 1.389 . S
C491 H470 0.950 . S
C491 C490 1.373 . S
C491 C507 1.377 . S
C492 C490 1.389 . S
C492 C493 1.524 . S
C492 C506 1.377 . S
C493 C492 1.524 . S
C493 C494 1.397 . S
C493 C498 1.363 . S
C494 H471 0.950 . S
C494 C493 1.397 . S
C494 C495 1.334 . S
C495 H472 0.950 . S
C495 C494 1.334 . S
C495 C496 1.287 . S
C496 C495 1.287 . S
C496 C497 1.524 . S
C496 H515 0.913 . S
C497 H473 0.950 . S
C497 C496 1.524 . S
C497 C498 1.415 . S
C498 H474 0.950 . S
C498 C493 1.363 . S
C498 C497 1.415 . S
C499 H475 0.951 . S
C499 C500 1.366 . S
C499 C501 1.388 . S
C500 C499 1.366 . S
C500 C504 1.385 . S
C501 H476 0.951 . S
C501 C499 1.388 . S
C501 C502 1.366 . S
C502 C501 1.366 . S
C502 C503 1.414 . S
C502 C505 1.499 . S
C503 H477 0.950 . S
C503 C502 1.414 . S
C503 C504 1.374 . S
C504 H478 0.950 . S
C504 C500 1.385 . S
C504 C503 1.374 . S
C505 C502 1.499 . S
C505 C506 1.373 . S
C505 C507 1.389 . S
C506 H479 0.950 . S
C506 C492 1.377 . S
C506 C505 1.373 . S
C507 C491 1.377 . S
C507 C505 1.389 . S
C507 C508 1.524 . S
C508 C507 1.524 . S
C508 C509 1.397 . S
C508 C513 1.363 . S
C509 H480 0.950 . S
C509 C508 1.397 . S
C509 C510 1.334 . S
C510 H481 0.950 . S
C510 C509 1.334 . S
C510 C511 1.287 . S
C511 C510 1.287 . S
C511 C512 1.524 . S
C511 H514 0.999 . S
C512 H482 0.950 . S
C512 C511 1.524 . S
C512 C513 1.415 . S
C513 H483 0.950 . S
C513 C508 1.363 . S
C513 C512 1.415 . S
H514 C511 0.999 . S
H515 C496 0.913 . S
H516 C534 0.951 . S
H517 C536 0.951 . S
H518 C538 0.950 . S
H519 C539 0.950 . S
H520 C541 0.950 . S
H521 C544 0.950 . S
H522 C545 0.950 . S
H523 C547 0.950 . S
H524 C548 0.950 . S
H525 C549 0.951 . S
H526 C551 0.951 . S
H527 C553 0.950 . S
H528 C554 0.950 . S
H529 C556 0.950 . S
H530 C559 0.950 . S
H531 C560 0.950 . S
H532 C562 0.950 . S
H533 C563 0.950 . S
C534 H516 0.951 . S
C534 C535 1.366 . S
C534 C536 1.388 . S
C535 C534 1.366 . S
C535 C539 1.385 . S
C536 H517 0.951 . S
C536 C534 1.388 . S
C536 C537 1.366 . S
C537 C536 1.366 . S
C537 C538 1.414 . S
C537 C540 1.499 . S
C538 H518 0.950 . S
C538 C537 1.414 . S
C538 C539 1.374 . S
C539 H519 0.950 . S
C539 C535 1.385 . S
C539 C538 1.374 . S
C540 C537 1.499 . S
C540 C541 1.373 . S
C540 C542 1.389 . S
C541 H520 0.950 . S
C541 C540 1.373 . S
C541 C557 1.377 . S
C542 C540 1.389 . S
C542 C543 1.524 . S
C542 C556 1.377 . S
C543 C542 1.524 . S
C543 C544 1.397 . S
C543 C548 1.363 . S
C544 H521 0.950 . S
C544 C543 1.397 . S
C544 C545 1.334 . S
C545 H522 0.950 . S
C545 C544 1.334 . S
C545 C546 1.287 . S
C546 C545 1.287 . S
C546 C547 1.524 . S
C546 H565 0.913 . S
C547 H523 0.950 . S
C547 C546 1.524 . S
C547 C548 1.415 . S
C548 H524 0.950 . S
C548 C543 1.363 . S
C548 C547 1.415 . S
C549 H525 0.951 . S
C549 C550 1.366 . S
C549 C551 1.388 . S
C550 C549 1.366 . S
C550 C554 1.385 . S
C551 H526 0.951 . S
C551 C549 1.388 . S
C551 C552 1.366 . S
C552 C551 1.366 . S
C552 C553 1.414 . S
C552 C555 1.499 . S
C553 H527 0.950 . S
C553 C552 1.414 . S
C553 C554 1.374 . S
C554 H528 0.950 . S
C554 C550 1.385 . S
C554 C553 1.374 . S
C555 C552 1.499 . S
C555 C556 1.373 . S
C555 C557 1.389 . S
C556 H529 0.950 . S
C556 C542 1.377 . S
C556 C555 1.373 . S
C557 C541 1.377 . S
C557 C555 1.389 . S
C557 C558 1.524 . S
C558 C557 1.524 . S
C558 C559 1.397 . S
C558 C563 1.363 . S
C559 H530 0.950 . S
C559 C558 1.397 . S
C559 C560 1.334 . S
C560 H531 0.950 . S
C560 C559 1.334 . S
C560 C561 1.287 . S
C561 C560 1.287 . S
C561 C562 1.524 . S
C561 H564 0.999 . S
C562 H532 0.950 . S
C562 C561 1.524 . S
C562 C563 1.415 . S
C563 H533 0.950 . S
C563 C558 1.363 . S
C563 C562 1.415 . S
H564 C561 0.999 . S
H565 C546 0.913 . S
H566 C584 0.951 . S
H567 C586 0.951 . S
H568 C588 0.950 . S
H569 C589 0.950 . S
H570 C591 0.950 . S
H571 C594 0.950 . S
H572 C595 0.950 . S
H573 C597 0.950 . S
H574 C598 0.950 . S
H575 C599 0.951 . S
H576 C601 0.951 . S
H577 C603 0.950 . S
H578 C604 0.950 . S
H579 C606 0.950 . S
H580 C609 0.950 . S
H581 C610 0.950 . S
H582 C612 0.950 . S
H583 C613 0.950 . S
C584 H566 0.951 . S
C584 C585 1.366 . S
C584 C586 1.388 . S
C585 C584 1.366 . S
C585 C589 1.385 . S
C586 H567 0.951 . S
C586 C584 1.388 . S
C586 C587 1.366 . S
C587 C586 1.366 . S
C587 C588 1.414 . S
C587 C590 1.499 . S
C588 H568 0.950 . S
C588 C587 1.414 . S
C588 C589 1.374 . S
C589 H569 0.950 . S
C589 C585 1.385 . S
C589 C588 1.374 . S
C590 C587 1.499 . S
C590 C591 1.373 . S
C590 C592 1.389 . S
C591 H570 0.950 . S
C591 C590 1.373 . S
C591 C607 1.377 . S
C592 C590 1.389 . S
C592 C593 1.524 . S
C592 C606 1.377 . S
C593 C592 1.524 . S
C593 C594 1.397 . S
C593 C598 1.363 . S
C594 H571 0.950 . S
C594 C593 1.397 . S
C594 C595 1.334 . S
C595 H572 0.950 . S
C595 C594 1.334 . S
C595 C596 1.287 . S
C596 C595 1.287 . S
C596 C597 1.524 . S
C596 H615 0.913 . S
C597 H573 0.950 . S
C597 C596 1.524 . S
C597 C598 1.415 . S
C598 H574 0.950 . S
C598 C593 1.363 . S
C598 C597 1.415 . S
C599 H575 0.951 . S
C599 C600 1.366 . S
C599 C601 1.388 . S
C600 C599 1.366 . S
C600 C604 1.385 . S
C601 H576 0.951 . S
C601 C599 1.388 . S
C601 C602 1.366 . S
C602 C601 1.366 . S
C602 C603 1.414 . S
C602 C605 1.499 . S
C603 H577 0.950 . S
C603 C602 1.414 . S
C603 C604 1.374 . S
C604 H578 0.950 . S
C604 C600 1.385 . S
C604 C603 1.374 . S
C605 C602 1.499 . S
C605 C606 1.373 . S
C605 C607 1.389 . S
C606 H579 0.950 . S
C606 C592 1.377 . S
C606 C605 1.373 . S
C607 C591 1.377 . S
C607 C605 1.389 . S
C607 C608 1.524 . S
C608 C607 1.524 . S
C608 C609 1.397 . S
C608 C613 1.363 . S
C609 H580 0.950 . S
C609 C608 1.397 . S
C609 C610 1.334 . S
C610 H581 0.950 . S
C610 C609 1.334 . S
C610 C611 1.287 . S
C611 C610 1.287 . S
C611 C612 1.524 . S
C611 H614 0.999 . S
C612 H582 0.950 . S
C612 C611 1.524 . S
C612 C613 1.415 . S
C613 H583 0.950 . S
C613 C608 1.363 . S
C613 C612 1.415 . S
H614 C611 0.999 . S
H615 C596 0.913 . S
H616 C634 0.951 . S
H617 C636 0.951 . S
H618 C638 0.950 . S
H619 C639 0.950 . S
H620 C641 0.950 . S
H621 C644 0.950 . S
H622 C645 0.950 . S
H623 C647 0.950 . S
H624 C648 0.950 . S
H625 C649 0.951 . S
H626 C651 0.951 . S
H627 C653 0.950 . S
H628 C654 0.950 . S
H629 C656 0.950 . S
H630 C659 0.950 . S
H631 C660 0.950 . S
H632 C662 0.950 . S
H633 C663 0.950 . S
C634 H616 0.951 . S
C634 C635 1.366 . S
C634 C636 1.388 . S
C635 C634 1.366 . S
C635 C639 1.385 . S
C636 H617 0.951 . S
C636 C634 1.388 . S
C636 C637 1.366 . S
C637 C636 1.366 . S
C637 C638 1.414 . S
C637 C640 1.499 . S
C638 H618 0.950 . S
C638 C637 1.414 . S
C638 C639 1.374 . S
C639 H619 0.950 . S
C639 C635 1.385 . S
C639 C638 1.374 . S
C640 C637 1.499 . S
C640 C641 1.373 . S
C640 C642 1.389 . S
C641 H620 0.950 . S
C641 C640 1.373 . S
C641 C657 1.377 . S
C642 C640 1.389 . S
C642 C643 1.524 . S
C642 C656 1.377 . S
C643 C642 1.524 . S
C643 C644 1.397 . S
C643 C648 1.363 . S
C644 H621 0.950 . S
C644 C643 1.397 . S
C644 C645 1.334 . S
C645 H622 0.950 . S
C645 C644 1.334 . S
C645 C646 1.287 . S
C646 C645 1.287 . S
C646 C647 1.524 . S
C646 H665 0.913 . S
C647 H623 0.950 . S
C647 C646 1.524 . S
C647 C648 1.415 . S
C648 H624 0.950 . S
C648 C643 1.363 . S
C648 C647 1.415 . S
C649 H625 0.951 . S
C649 C650 1.366 . S
C649 C651 1.388 . S
C650 C649 1.366 . S
C650 C654 1.385 . S
C651 H626 0.951 . S
C651 C649 1.388 . S
C651 C652 1.366 . S
C652 C651 1.366 . S
C652 C653 1.414 . S
C652 C655 1.499 . S
C653 H627 0.950 . S
C653 C652 1.414 . S
C653 C654 1.374 . S
C654 H628 0.950 . S
C654 C650 1.385 . S
C654 C653 1.374 . S
C655 C652 1.499 . S
C655 C656 1.373 . S
C655 C657 1.389 . S
C656 H629 0.950 . S
C656 C642 1.377 . S
C656 C655 1.373 . S
C657 C641 1.377 . S
C657 C655 1.389 . S
C657 C658 1.524 . S
C658 C657 1.524 . S
C658 C659 1.397 . S
C658 C663 1.363 . S
C659 H630 0.950 . S
C659 C658 1.397 . S
C659 C660 1.334 . S
C660 H631 0.950 . S
C660 C659 1.334 . S
C660 C661 1.287 . S
C661 C660 1.287 . S
C661 C662 1.524 . S
C661 H664 0.999 . S
C662 H632 0.950 . S
C662 C661 1.524 . S
C662 C663 1.415 . S
C663 H633 0.950 . S
C663 C658 1.363 . S
C663 C662 1.415 . S
H664 C661 0.999 . S
H665 C646 0.913 . S
H666 C684 0.951 . S
H667 C686 0.951 . S
H668 C688 0.950 . S
H669 C689 0.950 . S
H670 C691 0.950 . S
H671 C694 0.950 . S
H672 C695 0.950 . S
H673 C697 0.950 . S
H674 C698 0.950 . S
H675 C699 0.951 . S
H676 C701 0.951 . S
H677 C703 0.950 . S
H678 C704 0.950 . S
H679 C706 0.950 . S
H680 C709 0.950 . S
H681 C710 0.950 . S
H682 C712 0.950 . S
H683 C713 0.950 . S
C684 H666 0.951 . S
C684 C685 1.366 . S
C684 C686 1.388 . S
C685 C684 1.366 . S
C685 C689 1.385 . S
C686 H667 0.951 . S
C686 C684 1.388 . S
C686 C687 1.366 . S
C687 C686 1.366 . S
C687 C688 1.414 . S
C687 C690 1.499 . S
C688 H668 0.950 . S
C688 C687 1.414 . S
C688 C689 1.374 . S
C689 H669 0.950 . S
C689 C685 1.385 . S
C689 C688 1.374 . S
C690 C687 1.499 . S
C690 C691 1.373 . S
C690 C692 1.389 . S
C691 H670 0.950 . S
C691 C690 1.373 . S
C691 C707 1.377 . S
C692 C690 1.389 . S
C692 C693 1.524 . S
C692 C706 1.377 . S
C693 C692 1.524 . S
C693 C694 1.397 . S
C693 C698 1.363 . S
C694 H671 0.950 . S
C694 C693 1.397 . S
C694 C695 1.334 . S
C695 H672 0.950 . S
C695 C694 1.334 . S
C695 C696 1.287 . S
C696 C695 1.287 . S
C696 C697 1.524 . S
C696 H715 0.913 . S
C697 H673 0.950 . S
C697 C696 1.524 . S
C697 C698 1.415 . S
C698 H674 0.950 . S
C698 C693 1.363 . S
C698 C697 1.415 . S
C699 H675 0.951 . S
C699 C700 1.366 . S
C699 C701 1.388 . S
C700 C699 1.366 . S
C700 C704 1.385 . S
C701 H676 0.951 . S
C701 C699 1.388 . S
C701 C702 1.366 . S
C702 C701 1.366 . S
C702 C703 1.414 . S
C702 C705 1.499 . S
C703 H677 0.950 . S
C703 C702 1.414 . S
C703 C704 1.374 . S
C704 H678 0.950 . S
C704 C700 1.385 . S
C704 C703 1.374 . S
C705 C702 1.499 . S
C705 C706 1.373 . S
C705 C707 1.389 . S
C706 H679 0.950 . S
C706 C692 1.377 . S
C706 C705 1.373 . S
C707 C691 1.377 . S
C707 C705 1.389 . S
C707 C708 1.524 . S
C708 C707 1.524 . S
C708 C709 1.397 . S
C708 C713 1.363 . S
C709 H680 0.950 . S
C709 C708 1.397 . S
C709 C710 1.334 . S
C710 H681 0.950 . S
C710 C709 1.334 . S
C710 C711 1.287 . S
C711 C710 1.287 . S
C711 C712 1.524 . S
C711 H714 0.999 . S
C712 H682 0.950 . S
C712 C711 1.524 . S
C712 C713 1.415 . S
C713 H683 0.950 . S
C713 C708 1.363 . S
C713 C712 1.415 . S
H714 C711 0.999 . S
H715 C696 0.913 . S
H716 C734 0.951 . S
H717 C736 0.951 . S
H718 C738 0.950 . S
H719 C739 0.950 . S
H720 C741 0.950 . S
H721 C744 0.950 . S
H722 C745 0.950 . S
H723 C747 0.950 . S
H724 C748 0.950 . S
H725 C749 0.951 . S
H726 C751 0.951 . S
H727 C753 0.950 . S
H728 C754 0.950 . S
H729 C756 0.950 . S
H730 C759 0.950 . S
H731 C760 0.950 . S
H732 C762 0.950 . S
H733 C763 0.950 . S
C734 H716 0.951 . S
C734 C735 1.366 . S
C734 C736 1.388 . S
C735 C734 1.366 . S
C735 C739 1.385 . S
C736 H717 0.951 . S
C736 C734 1.388 . S
C736 C737 1.366 . S
C737 C736 1.366 . S
C737 C738 1.414 . S
C737 C740 1.499 . S
C738 H718 0.950 . S
C738 C737 1.414 . S
C738 C739 1.374 . S
C739 H719 0.950 . S
C739 C735 1.385 . S
C739 C738 1.374 . S
C740 C737 1.499 . S
C740 C741 1.373 . S
C740 C742 1.389 . S
C741 H720 0.950 . S
C741 C740 1.373 . S
C741 C757 1.377 . S
C742 C740 1.389 . S
C742 C743 1.524 . S
C742 C756 1.377 . S
C743 C742 1.524 . S
C743 C744 1.397 . S
C743 C748 1.363 . S
C744 H721 0.950 . S
C744 C743 1.397 . S
C744 C745 1.334 . S
C745 H722 0.950 . S
C745 C744 1.334 . S
C745 C746 1.287 . S
C746 C745 1.287 . S
C746 C747 1.524 . S
C746 H765 0.913 . S
C747 H723 0.950 . S
C747 C746 1.524 . S
C747 C748 1.415 . S
C748 H724 0.950 . S
C748 C743 1.363 . S
C748 C747 1.415 . S
C749 H725 0.951 . S
C749 C750 1.366 . S
C749 C751 1.388 . S
C750 C749 1.366 . S
C750 C754 1.385 . S
C751 H726 0.951 . S
C751 C749 1.388 . S
C751 C752 1.366 . S
C752 C751 1.366 . S
C752 C753 1.414 . S
C752 C755 1.499 . S
C753 H727 0.950 . S
C753 C752 1.414 . S
C753 C754 1.374 . S
C754 H728 0.950 . S
C754 C750 1.385 . S
C754 C753 1.374 . S
C755 C752 1.499 . S
C755 C756 1.373 . S
C755 C757 1.389 . S
C756 H729 0.950 . S
C756 C742 1.377 . S
C756 C755 1.373 . S
C757 C741 1.377 . S
C757 C755 1.389 . S
C757 C758 1.524 . S
C758 C757 1.524 . S
C758 C759 1.397 . S
C758 C763 1.363 . S
C759 H730 0.950 . S
C759 C758 1.397 . S
C759 C760 1.334 . S
C760 H731 0.950 . S
C760 C759 1.334 . S
C760 C761 1.287 . S
C761 C760 1.287 . S
C761 C762 1.524 . S
C761 H764 0.999 . S
C762 H732 0.950 . S
C762 C761 1.524 . S
C762 C763 1.415 . S
C763 H733 0.950 . S
C763 C758 1.363 . S
C763 C762 1.415 . S
H764 C761 0.999 . S
H765 C746 0.913 . S
H766 C784 0.951 . S
H767 C786 0.951 . S
H768 C788 0.950 . S
H769 C789 0.950 . S
H770 C791 0.950 . S
H771 C794 0.950 . S
H772 C795 0.950 . S
H773 C797 0.950 . S
H774 C798 0.950 . S
H775 C799 0.951 . S
H776 C801 0.951 . S
H777 C803 0.950 . S
H778 C804 0.950 . S
H779 C806 0.950 . S
H780 C809 0.950 . S
H781 C810 0.950 . S
H782 C812 0.950 . S
H783 C813 0.950 . S
C784 H766 0.951 . S
C784 C785 1.366 . S
C784 C786 1.388 . S
C785 C784 1.366 . S
C785 C789 1.385 . S
C786 H767 0.951 . S
C786 C784 1.388 . S
C786 C787 1.366 . S
C787 C786 1.366 . S
C787 C788 1.414 . S
C787 C790 1.499 . S
C788 H768 0.950 . S
C788 C787 1.414 . S
C788 C789 1.374 . S
C789 H769 0.950 . S
C789 C785 1.385 . S
C789 C788 1.374 . S
C790 C787 1.499 . S
C790 C791 1.373 . S
C790 C792 1.389 . S
C791 H770 0.950 . S
C791 C790 1.373 . S
C791 C807 1.377 . S
C792 C790 1.389 . S
C792 C793 1.524 . S
C792 C806 1.377 . S
C793 C792 1.524 . S
C793 C794 1.397 . S
C793 C798 1.363 . S
C794 H771 0.950 . S
C794 C793 1.397 . S
C794 C795 1.334 . S
C795 H772 0.950 . S
C795 C794 1.334 . S
C795 C796 1.287 . S
C796 C795 1.287 . S
C796 C797 1.524 . S
C796 H815 0.913 . S
C797 H773 0.950 . S
C797 C796 1.524 . S
C797 C798 1.415 . S
C798 H774 0.950 . S
C798 C793 1.363 . S
C798 C797 1.415 . S
C799 H775 0.951 . S
C799 C800 1.366 . S
C799 C801 1.388 . S
C800 C799 1.366 . S
C800 C804 1.385 . S
C801 H776 0.951 . S
C801 C799 1.388 . S
C801 C802 1.366 . S
C802 C801 1.366 . S
C802 C803 1.414 . S
C802 C805 1.499 . S
C803 H777 0.950 . S
C803 C802 1.414 . S
C803 C804 1.374 . S
C804 H778 0.950 . S
C804 C800 1.385 . S
C804 C803 1.374 . S
C805 C802 1.499 . S
C805 C806 1.373 . S
C805 C807 1.389 . S
C806 H779 0.950 . S
C806 C792 1.377 . S
C806 C805 1.373 . S
C807 C791 1.377 . S
C807 C805 1.389 . S
C807 C808 1.524 . S
C808 C807 1.524 . S
C808 C809 1.397 . S
C808 C813 1.363 . S
C809 H780 0.950 . S
C809 C808 1.397 . S
C809 C810 1.334 . S
C810 H781 0.950 . S
C810 C809 1.334 . S
C810 C811 1.287 . S
C811 C810 1.287 . S
C811 C812 1.524 . S
C811 H814 0.999 . S
C812 H782 0.950 . S
C812 C811 1.524 . S
C812 C813 1.415 . S
C813 H783 0.950 . S
C813 C808 1.363 . S
C813 C812 1.415 . S
H814 C811 0.999 . S
H815 C796 0.913 . S
H816 C834 0.951 . S
H817 C836 0.951 . S
H818 C838 0.950 . S
H819 C839 0.950 . S
H820 C841 0.950 . S
H821 C844 0.950 . S
H822 C845 0.950 . S
H823 C847 0.950 . S
H824 C848 0.950 . S
H825 C849 0.951 . S
H826 C851 0.951 . S
H827 C853 0.950 . S
H828 C854 0.950 . S
H829 C856 0.950 . S
H830 C859 0.950 . S
H831 C860 0.950 . S
H832 C862 0.950 . S
H833 C863 0.950 . S
C834 H816 0.951 . S
C834 C835 1.366 . S
C834 C836 1.388 . S
C835 C834 1.366 . S
C835 C839 1.385 . S
C836 H817 0.951 . S
C836 C834 1.388 . S
C836 C837 1.366 . S
C837 C836 1.366 . S
C837 C838 1.414 . S
C837 C840 1.499 . S
C838 H818 0.950 . S
C838 C837 1.414 . S
C838 C839 1.374 . S
C839 H819 0.950 . S
C839 C835 1.385 . S
C839 C838 1.374 . S
C840 C837 1.499 . S
C840 C841 1.373 . S
C840 C842 1.389 . S
C841 H820 0.950 . S
C841 C840 1.373 . S
C841 C857 1.377 . S
C842 C840 1.389 . S
C842 C843 1.524 . S
C842 C856 1.377 . S
C843 C842 1.524 . S
C843 C844 1.397 . S
C843 C848 1.363 . S
C844 H821 0.950 . S
C844 C843 1.397 . S
C844 C845 1.334 . S
C845 H822 0.950 . S
C845 C844 1.334 . S
C845 C846 1.287 . S
C846 C845 1.287 . S
C846 C847 1.524 . S
C846 H865 0.913 . S
C847 H823 0.950 . S
C847 C846 1.524 . S
C847 C848 1.415 . S
C848 H824 0.950 . S
C848 C843 1.363 . S
C848 C847 1.415 . S
C849 H825 0.951 . S
C849 C850 1.366 . S
C849 C851 1.388 . S
C850 C849 1.366 . S
C850 C854 1.385 . S
C851 H826 0.951 . S
C851 C849 1.388 . S
C851 C852 1.366 . S
C852 C851 1.366 . S
C852 C853 1.414 . S
C852 C855 1.499 . S
C853 H827 0.950 . S
C853 C852 1.414 . S
C853 C854 1.374 . S
C854 H828 0.950 . S
C854 C850 1.385 . S
C854 C853 1.374 . S
C855 C852 1.499 . S
C855 C856 1.373 . S
C855 C857 1.389 . S
C856 H829 0.950 . S
C856 C842 1.377 . S
C856 C855 1.373 . S
C857 C841 1.377 . S
C857 C855 1.389 . S
C857 C858 1.524 . S
C858 C857 1.524 . S
C858 C859 1.397 . S
C858 C863 1.363 . S
C859 H830 0.950 . S
C859 C858 1.397 . S
C859 C860 1.334 . S
C860 H831 0.950 . S
C860 C859 1.334 . S
C860 C861 1.287 . S
C861 C860 1.287 . S
C861 C862 1.524 . S
C861 H864 0.999 . S
C862 H832 0.950 . S
C862 C861 1.524 . S
C862 C863 1.415 . S
C863 H833 0.950 . S
C863 C858 1.363 . S
C863 C862 1.415 . S
H864 C861 0.999 . S
H865 C846 0.913 . S
H866 C884 0.951 . S
H867 C886 0.951 . S
H868 C888 0.950 . S
H869 C889 0.950 . S
H870 C891 0.950 . S
H871 C894 0.950 . S
H872 C895 0.950 . S
H873 C897 0.950 . S
H874 C898 0.950 . S
H875 C899 0.951 . S
H876 C901 0.951 . S
H877 C903 0.950 . S
H878 C904 0.950 . S
H879 C906 0.950 . S
H880 C909 0.950 . S
H881 C910 0.950 . S
H882 C912 0.950 . S
H883 C913 0.950 . S
C884 H866 0.951 . S
C884 C885 1.366 . S
C884 C886 1.388 . S
C885 C884 1.366 . S
C885 C889 1.385 . S
C886 H867 0.951 . S
C886 C884 1.388 . S
C886 C887 1.366 . S
C887 C886 1.366 . S
C887 C888 1.414 . S
C887 C890 1.499 . S
C888 H868 0.950 . S
C888 C887 1.414 . S
C888 C889 1.374 . S
C889 H869 0.950 . S
C889 C885 1.385 . S
C889 C888 1.374 . S
C890 C887 1.499 . S
C890 C891 1.373 . S
C890 C892 1.389 . S
C891 H870 0.950 . S
C891 C890 1.373 . S
C891 C907 1.377 . S
C892 C890 1.389 . S
C892 C893 1.524 . S
C892 C906 1.377 . S
C893 C892 1.524 . S
C893 C894 1.397 . S
C893 C898 1.363 . S
C894 H871 0.950 . S
C894 C893 1.397 . S
C894 C895 1.334 . S
C895 H872 0.950 . S
C895 C894 1.334 . S
C895 C896 1.287 . S
C896 C895 1.287 . S
C896 C897 1.524 . S
C896 H915 0.913 . S
C897 H873 0.950 . S
C897 C896 1.524 . S
C897 C898 1.415 . S
C898 H874 0.950 . S
C898 C893 1.363 . S
C898 C897 1.415 . S
C899 H875 0.951 . S
C899 C900 1.366 . S
C899 C901 1.388 . S
C900 C899 1.366 . S
C900 C904 1.385 . S
C901 H876 0.951 . S
C901 C899 1.388 . S
C901 C902 1.366 . S
C902 C901 1.366 . S
C902 C903 1.414 . S
C902 C905 1.499 . S
C903 H877 0.950 . S
C903 C902 1.414 . S
C903 C904 1.374 . S
C904 H878 0.950 . S
C904 C900 1.385 . S
C904 C903 1.374 . S
C905 C902 1.499 . S
C905 C906 1.373 . S
C905 C907 1.389 . S
C906 H879 0.950 . S
C906 C892 1.377 . S
C906 C905 1.373 . S
C907 C891 1.377 . S
C907 C905 1.389 . S
C907 C908 1.524 . S
C908 C907 1.524 . S
C908 C909 1.397 . S
C908 C913 1.363 . S
C909 H880 0.950 . S
C909 C908 1.397 . S
C909 C910 1.334 . S
C910 H881 0.950 . S
C910 C909 1.334 . S
C910 C911 1.287 . S
C911 C910 1.287 . S
C911 C912 1.524 . S
C911 H914 0.999 . S
C912 H882 0.950 . S
C912 C911 1.524 . S
C912 C913 1.415 . S
C913 H883 0.950 . S
C913 C908 1.363 . S
C913 C912 1.415 . S
H914 C911 0.999 . S
H915 C896 0.913 . S
H916 C934 0.951 . S
H917 C936 0.951 . S
H918 C938 0.950 . S
H919 C939 0.950 . S
H920 C941 0.950 . S
H921 C944 0.950 . S
H922 C945 0.950 . S
H923 C947 0.950 . S
H924 C948 0.950 . S
H925 C949 0.951 . S
H926 C951 0.951 . S
H927 C953 0.950 . S
H928 C954 0.950 . S
H929 C956 0.950 . S
H930 C959 0.950 . S
H931 C960 0.950 . S
H932 C962 0.950 . S
H933 C963 0.950 . S
C934 H916 0.951 . S
C934 C935 1.366 . S
C934 C936 1.388 . S
C935 C934 1.366 . S
C935 C939 1.385 . S
C936 H917 0.951 . S
C936 C934 1.388 . S
C936 C937 1.366 . S
C937 C936 1.366 . S
C937 C938 1.414 . S
C937 C940 1.499 . S
C938 H918 0.950 . S
C938 C937 1.414 . S
C938 C939 1.374 . S
C939 H919 0.950 . S
C939 C935 1.385 . S
C939 C938 1.374 . S
C940 C937 1.499 . S
C940 C941 1.373 . S
C940 C942 1.389 . S
C941 H920 0.950 . S
C941 C940 1.373 . S
C941 C957 1.377 . S
C942 C940 1.389 . S
C942 C943 1.524 . S
C942 C956 1.377 . S
C943 C942 1.524 . S
C943 C944 1.397 . S
C943 C948 1.363 . S
C944 H921 0.950 . S
C944 C943 1.397 . S
C944 C945 1.334 . S
C945 H922 0.950 . S
C945 C944 1.334 . S
C945 C946 1.287 . S
C946 C945 1.287 . S
C946 C947 1.524 . S
C946 H965 0.913 . S
C947 H923 0.950 . S
C947 C946 1.524 . S
C947 C948 1.415 . S
C948 H924 0.950 . S
C948 C943 1.363 . S
C948 C947 1.415 . S
C949 H925 0.951 . S
C949 C950 1.366 . S
C949 C951 1.388 . S
C950 C949 1.366 . S
C950 C954 1.385 . S
C951 H926 0.951 . S
C951 C949 1.388 . S
C951 C952 1.366 . S
C952 C951 1.366 . S
C952 C953 1.414 . S
C952 C955 1.499 . S
C953 H927 0.950 . S
C953 C952 1.414 . S
C953 C954 1.374 . S
C954 H928 0.950 . S
C954 C950 1.385 . S
C954 C953 1.374 . S
C955 C952 1.499 . S
C955 C956 1.373 . S
C955 C957 1.389 . S
C956 H929 0.950 . S
C956 C942 1.377 . S
C956 C955 1.373 . S
C957 C941 1.377 . S
C957 C955 1.389 . S
C957 C958 1.524 . S
C958 C957 1.524 . S
C958 C959 1.397 . S
C958 C963 1.363 . S
C959 H930 0.950 . S
C959 C958 1.397 . S
C959 C960 1.334 . S
C960 H931 0.950 . S
C960 C959 1.334 . S
C960 C961 1.287 . S
C961 C960 1.287 . S
C961 C962 1.524 . S
C961 H964 0.999 . S
C962 H932 0.950 . S
C962 C961 1.524 . S
C962 C963 1.415 . S
C963 H933 0.950 . S
C963 C958 1.363 . S
C963 C962 1.415 . S
H964 C961 0.999 . S
H965 C946 0.913 . S
H966 C984 0.951 . S
H967 C986 0.951 . S
H968 C988 0.950 . S
H969 C989 0.950 . S
H970 C991 0.950 . S
H971 C994 0.950 . S
H972 C995 0.950 . S
H973 C997 0.950 . S
H974 C998 0.950 . S
H975 C999 0.951 . S
H976 C1001 0.951 . S
H977 C1003 0.950 . S
H978 C1004 0.950 . S
H979 C1006 0.950 . S
H980 C1009 0.950 . S
H981 C1010 0.950 . S
H982 C1012 0.950 . S
H983 C1013 0.950 . S
C984 H966 0.951 . S
C984 C985 1.366 . S
C984 C986 1.388 . S
C985 C984 1.366 . S
C985 C989 1.385 . S
C986 H967 0.951 . S
C986 C984 1.388 . S
C986 C987 1.366 . S
C987 C986 1.366 . S
C987 C988 1.414 . S
C987 C990 1.499 . S
C988 H968 0.950 . S
C988 C987 1.414 . S
C988 C989 1.374 . S
C989 H969 0.950 . S
C989 C985 1.385 . S
C989 C988 1.374 . S
C990 C987 1.499 . S
C990 C991 1.373 . S
C990 C992 1.389 . S
C991 H970 0.950 . S
C991 C990 1.373 . S
C991 C1007 1.377 . S
C992 C990 1.389 . S
C992 C993 1.524 . S
C992 C1006 1.377 . S
C993 C992 1.524 . S
C993 C994 1.397 . S
C993 C998 1.363 . S
C994 H971 0.950 . S
C994 C993 1.397 . S
C994 C995 1.334 . S
C995 H972 0.950 . S
C995 C994 1.334 . S
C995 C996 1.287 . S
C996 C995 1.287 . S
C996 C997 1.524 . S
C996 H1015 0.913 . S
C997 H973 0.950 . S
C997 C996 1.524 . S
C997 C998 1.415 . S
C998 H974 0.950 . S
C998 C993 1.363 . S
C998 C997 1.415 . S
C999 H975 0.951 . S
C999 C1000 1.366 . S
C999 C1001 1.388 . S
C1000 C999 1.366 . S
C1000 C1004 1.385 . S
C1001 H976 0.951 . S
C1001 C999 1.388 . S
C1001 C1002 1.366 . S
C1002 C1001 1.366 . S
C1002 C1003 1.414 . S
C1002 C1005 1.499 . S
C1003 H977 0.950 . S
C1003 C1002 1.414 . S
C1003 C1004 1.374 . S
C1004 H978 0.950 . S
C1004 C1000 1.385 . S
C1004 C1003 1.374 . S
C1005 C1002 1.499 . S
C1005 C1006 1.373 . S
C1005 C1007 1.389 . S
C1006 H979 0.950 . S
C1006 C992 1.377 . S
C1006 C1005 1.373 . S
C1007 C991 1.377 . S
C1007 C1005 1.389 . S
C1007 C1008 1.524 . S
C1008 C1007 1.524 . S
C1008 C1009 1.397 . S
C1008 C1013 1.363 . S
C1009 H980 0.950 . S
C1009 C1008 1.397 . S
C1009 C1010 1.334 . S
C1010 H981 0.950 . S
C1010 C1009 1.334 . S
C1010 C1011 1.287 . S
C1011 C1010 1.287 . S
C1011 C1012 1.524 . S
C1011 H1014 0.999 . S
C1012 H982 0.950 . S
C1012 C1011 1.524 . S
C1012 C1013 1.415 . S
C1013 H983 0.950 . S
C1013 C1008 1.363 . S
C1013 C1012 1.415 . S
H1014 C1011 0.999 . S
H1015 C996 0.913 . S
H1016 C1034 0.951 . S
H1017 C1036 0.951 . S
H1018 C1038 0.950 . S
H1019 C1039 0.950 . S
H1020 C1041 0.950 . S
H1021 C1044 0.950 . S
H1022 C1045 0.950 . S
H1023 C1047 0.950 . S
H1024 C1048 0.950 . S
H1025 C1049 0.951 . S
H1026 C1051 0.951 . S
H1027 C1053 0.950 . S
H1028 C1054 0.950 . S
H1029 C1056 0.950 . S
H1030 C1059 0.950 . S
H1031 C1060 0.950 . S
H1032 C1062 0.950 . S
H1033 C1063 0.950 . S
C1034 H1016 0.951 . S
C1034 C1035 1.366 . S
C1034 C1036 1.388 . S
C1035 C1034 1.366 . S
C1035 C1039 1.385 . S
C1036 H1017 0.951 . S
C1036 C1034 1.388 . S
C1036 C1037 1.366 . S
C1037 C1036 1.366 . S
C1037 C1038 1.414 . S
C1037 C1040 1.499 . S
C1038 H1018 0.950 . S
C1038 C1037 1.414 . S
C1038 C1039 1.374 . S
C1039 H1019 0.950 . S
C1039 C1035 1.385 . S
C1039 C1038 1.374 . S
C1040 C1037 1.499 . S
C1040 C1041 1.373 . S
C1040 C1042 1.389 . S
C1041 H1020 0.950 . S
C1041 C1040 1.373 . S
C1041 C1057 1.377 . S
C1042 C1040 1.389 . S
C1042 C1043 1.524 . S
C1042 C1056 1.377 . S
C1043 C1042 1.524 . S
C1043 C1044 1.397 . S
C1043 C1048 1.363 . S
C1044 H1021 0.950 . S
C1044 C1043 1.397 . S
C1044 C1045 1.334 . S
C1045 H1022 0.950 . S
C1045 C1044 1.334 . S
C1045 C1046 1.287 . S
C1046 C1045 1.287 . S
C1046 C1047 1.524 . S
C1046 H1065 0.913 . S
C1047 H1023 0.950 . S
C1047 C1046 1.524 . S
C1047 C1048 1.415 . S
C1048 H1024 0.950 . S
C1048 C1043 1.363 . S
C1048 C1047 1.415 . S
C1049 H1025 0.951 . S
C1049 C1050 1.366 . S
C1049 C1051 1.388 . S
C1050 C1049 1.366 . S
C1050 C1054 1.385 . S
C1051 H1026 0.951 . S
C1051 C1049 1.388 . S
C1051 C1052 1.366 . S
C1052 C1051 1.366 . S
C1052 C1053 1.414 . S
C1052 C1055 1.499 . S
C1053 H1027 0.950 . S
C1053 C1052 1.414 . S
C1053 C1054 1.374 . S
C1054 H1028 0.950 . S
C1054 C1050 1.385 . S
C1054 C1053 1.374 . S
C1055 C1052 1.499 . S
C1055 C1056 1.373 . S
C1055 C1057 1.389 . S
C1056 H1029 0.950 . S
C1056 C1042 1.377 . S
C1056 C1055 1.373 . S
C1057 C1041 1.377 . S
C1057 C1055 1.389 . S
C1057 C1058 1.524 . S
C1058 C1057 1.524 . S
C1058 C1059 1.397 . S
C1058 C1063 1.363 . S
C1059 H1030 0.950 . S
C1059 C1058 1.397 . S
C1059 C1060 1.334 . S
C1060 H1031 0.950 . S
C1060 C1059 1.334 . S
C1060 C1061 1.287 . S
C1061 C1060 1.287 . S
C1061 C1062 1.524 . S
C1061 H1064 0.999 . S
C1062 H1032 0.950 . S
C1062 C1061 1.524 . S
C1062 C1063 1.415 . S
C1063 H1033 0.950 . S
C1063 C1058 1.363 . S
C1063 C1062 1.415 . S
H1064 C1061 0.999 . S
H1065 C1046 0.913 . S
H1066 C1084 0.951 . S
H1067 C1086 0.951 . S
H1068 C1088 0.950 . S
H1069 C1089 0.950 . S
H1070 C1091 0.950 . S
H1071 C1094 0.950 . S
H1072 C1095 0.950 . S
H1073 C1097 0.950 . S
H1074 C1098 0.950 . S
H1075 C1099 0.951 . S
H1076 C1101 0.951 . S
H1077 C1103 0.950 . S
H1078 C1104 0.950 . S
H1079 C1106 0.950 . S
H1080 C1109 0.950 . S
H1081 C1110 0.950 . S
H1082 C1112 0.950 . S
H1083 C1113 0.950 . S
C1084 H1066 0.951 . S
C1084 C1085 1.366 . S
C1084 C1086 1.388 . S
C1085 C1084 1.366 . S
C1085 C1089 1.385 . S
C1086 H1067 0.951 . S
C1086 C1084 1.388 . S
C1086 C1087 1.366 . S
C1087 C1086 1.366 . S
C1087 C1088 1.414 . S
C1087 C1090 1.499 . S
C1088 H1068 0.950 . S
C1088 C1087 1.414 . S
C1088 C1089 1.374 . S
C1089 H1069 0.950 . S
C1089 C1085 1.385 . S
C1089 C1088 1.374 . S
C1090 C1087 1.499 . S
C1090 C1091 1.373 . S
C1090 C1092 1.389 . S
C1091 H1070 0.950 . S
C1091 C1090 1.373 . S
C1091 C1107 1.377 . S
C1092 C1090 1.389 . S
C1092 C1093 1.524 . S
C1092 C1106 1.377 . S
C1093 C1092 1.524 . S
C1093 C1094 1.397 . S
C1093 C1098 1.363 . S
C1094 H1071 0.950 . S
C1094 C1093 1.397 . S
C1094 C1095 1.334 . S
C1095 H1072 0.950 . S
C1095 C1094 1.334 . S
C1095 C1096 1.287 . S
C1096 C1095 1.287 . S
C1096 C1097 1.524 . S
C1096 H1115 0.913 . S
C1097 H1073 0.950 . S
C1097 C1096 1.524 . S
C1097 C1098 1.415 . S
C1098 H1074 0.950 . S
C1098 C1093 1.363 . S
C1098 C1097 1.415 . S
C1099 H1075 0.951 . S
C1099 C1100 1.366 . S
C1099 C1101 1.388 . S
C1100 C1099 1.366 . S
C1100 C1104 1.385 . S
C1101 H1076 0.951 . S
C1101 C1099 1.388 . S
C1101 C1102 1.366 . S
C1102 C1101 1.366 . S
C1102 C1103 1.414 . S
C1102 C1105 1.499 . S
C1103 H1077 0.950 . S
C1103 C1102 1.414 . S
C1103 C1104 1.374 . S
C1104 H1078 0.950 . S
C1104 C1100 1.385 . S
C1104 C1103 1.374 . S
C1105 C1102 1.499 . S
C1105 C1106 1.373 . S
C1105 C1107 1.389 . S
C1106 H1079 0.950 . S
C1106 C1092 1.377 . S
C1106 C1105 1.373 . S
C1107 C1091 1.377 . S
C1107 C1105 1.389 . S
C1107 C1108 1.524 . S
C1108 C1107 1.524 . S
C1108 C1109 1.397 . S
C1108 C1113 1.363 . S
C1109 H1080 0.950 . S
C1109 C1108 1.397 . S
C1109 C1110 1.334 . S
C1110 H1081 0.950 . S
C1110 C1109 1.334 . S
C1110 C1111 1.287 . S
C1111 C1110 1.287 . S
C1111 C1112 1.524 . S
C1111 H1114 0.999 . S
C1112 H1082 0.950 . S
C1112 C1111 1.524 . S
C1112 C1113 1.415 . S
C1113 H1083 0.950 . S
C1113 C1108 1.363 . S
C1113 C1112 1.415 . S
H1114 C1111 0.999 . S
H1115 C1096 0.913 . S
H1116 C1134 0.951 . S
H1117 C1136 0.951 . S
H1118 C1138 0.950 . S
H1119 C1139 0.950 . S
H1120 C1141 0.950 . S
H1121 C1144 0.950 . S
H1122 C1145 0.950 . S
H1123 C1147 0.950 . S
H1124 C1148 0.950 . S
H1125 C1149 0.951 . S
H1126 C1151 0.951 . S
H1127 C1153 0.950 . S
H1128 C1154 0.950 . S
H1129 C1156 0.950 . S
H1130 C1159 0.950 . S
H1131 C1160 0.950 . S
H1132 C1162 0.950 . S
H1133 C1163 0.950 . S
C1134 H1116 0.951 . S
C1134 C1135 1.366 . S
C1134 C1136 1.388 . S
C1135 C1134 1.366 . S
C1135 C1139 1.385 . S
C1136 H1117 0.951 . S
C1136 C1134 1.388 . S
C1136 C1137 1.366 . S
C1137 C1136 1.366 . S
C1137 C1138 1.414 . S
C1137 C1140 1.499 . S
C1138 H1118 0.950 . S
C1138 C1137 1.414 . S
C1138 C1139 1.374 . S
C1139 H1119 0.950 . S
C1139 C1135 1.385 . S
C1139 C1138 1.374 . S
C1140 C1137 1.499 . S
C1140 C1141 1.373 . S
C1140 C1142 1.389 . S
C1141 H1120 0.950 . S
C1141 C1140 1.373 . S
C1141 C1157 1.377 . S
C1142 C1140 1.389 . S
C1142 C1143 1.524 . S
C1142 C1156 1.377 . S
C1143 C1142 1.524 . S
C1143 C1144 1.397 . S
C1143 C1148 1.363 . S
C1144 H1121 0.950 . S
C1144 C1143 1.397 . S
C1144 C1145 1.334 . S
C1145 H1122 0.950 . S
C1145 C1144 1.334 . S
C1145 C1146 1.287 . S
C1146 C1145 1.287 . S
C1146 C1147 1.524 . S
C1146 H1165 0.913 . S
C1147 H1123 0.950 . S
C1147 C1146 1.524 . S
C1147 C1148 1.415 . S
C1148 H1124 0.950 . S
C1148 C1143 1.363 . S
C1148 C1147 1.415 . S
C1149 H1125 0.951 . S
C1149 C1150 1.366 . S
C1149 C1151 1.388 . S
C1150 C1149 1.366 . S
C1150 C1154 1.385 . S
C1151 H1126 0.951 . S
C1151 C1149 1.388 . S
C1151 C1152 1.366 . S
C1152 C1151 1.366 . S
C1152 C1153 1.414 . S
C1152 C1155 1.499 . S
C1153 H1127 0.950 . S
C1153 C1152 1.414 . S
C1153 C1154 1.374 . S
C1154 H1128 0.950 . S
C1154 C1150 1.385 . S
C1154 C1153 1.374 . S
C1155 C1152 1.499 . S
C1155 C1156 1.373 . S
C1155 C1157 1.389 . S
C1156 H1129 0.950 . S
C1156 C1142 1.377 . S
C1156 C1155 1.373 . S
C1157 C1141 1.377 . S
C1157 C1155 1.389 . S
C1157 C1158 1.524 . S
C1158 C1157 1.524 . S
C1158 C1159 1.397 . S
C1158 C1163 1.363 . S
C1159 H1130 0.950 . S
C1159 C1158 1.397 . S
C1159 C1160 1.334 . S
C1160 H1131 0.950 . S
C1160 C1159 1.334 . S
C1160 C1161 1.287 . S
C1161 C1160 1.287 . S
C1161 C1162 1.524 . S
C1161 H1164 0.999 . S
C1162 H1132 0.950 . S
C1162 C1161 1.524 . S
C1162 C1163 1.415 . S
C1163 H1133 0.950 . S
C1163 C1158 1.363 . S
C1163 C1162 1.415 . S
H1164 C1161 0.999 . S
H1165 C1146 0.913 . S
H1166 C1184 0.951 . S
H1167 C1186 0.951 . S
H1168 C1188 0.950 . S
H1169 C1189 0.950 . S
H1170 C1191 0.950 . S
H1171 C1194 0.950 . S
H1172 C1195 0.950 . S
H1173 C1197 0.950 . S
H1174 C1198 0.950 . S
H1175 C1199 0.951 . S
H1176 C1201 0.951 . S
H1177 C1203 0.950 . S
H1178 C1204 0.950 . S
H1179 C1206 0.950 . S
H1180 C1209 0.950 . S
H1181 C1210 0.950 . S
H1182 C1212 0.950 . S
H1183 C1213 0.950 . S
C1184 H1166 0.951 . S
C1184 C1185 1.366 . S
C1184 C1186 1.388 . S
C1185 C1184 1.366 . S
C1185 C1189 1.385 . S
C1186 H1167 0.951 . S
C1186 C1184 1.388 . S
C1186 C1187 1.366 . S
C1187 C1186 1.366 . S
C1187 C1188 1.414 . S
C1187 C1190 1.499 . S
C1188 H1168 0.950 . S
C1188 C1187 1.414 . S
C1188 C1189 1.374 . S
C1189 H1169 0.950 . S
C1189 C1185 1.385 . S
C1189 C1188 1.374 . S
C1190 C1187 1.499 . S
C1190 C1191 1.373 . S
C1190 C1192 1.389 . S
C1191 H1170 0.950 . S
C1191 C1190 1.373 . S
C1191 C1207 1.377 . S
C1192 C1190 1.389 . S
C1192 C1193 1.524 . S
C1192 C1206 1.377 . S
C1193 C1192 1.524 . S
C1193 C1194 1.397 . S
C1193 C1198 1.363 . S
C1194 H1171 0.950 . S
C1194 C1193 1.397 . S
C1194 C1195 1.334 . S
C1195 H1172 0.950 . S
C1195 C1194 1.334 . S
C1195 C1196 1.287 . S
C1196 C1195 1.287 . S
C1196 C1197 1.524 . S
C1196 H1215 0.913 . S
C1197 H1173 0.950 . S
C1197 C1196 1.524 . S
C1197 C1198 1.415 . S
C1198 H1174 0.950 . S
C1198 C1193 1.363 . S
C1198 C1197 1.415 . S
C1199 H1175 0.951 . S
C1199 C1200 1.366 . S
C1199 C1201 1.388 . S
C1200 C1199 1.366 . S
C1200 C1204 1.385 . S
C1201 H1176 0.951 . S
C1201 C1199 1.388 . S
C1201 C1202 1.366 . S
C1202 C1201 1.366 . S
C1202 C1203 1.414 . S
C1202 C1205 1.499 . S
C1203 H1177 0.950 . S
C1203 C1202 1.414 . S
C1203 C1204 1.374 . S
C1204 H1178 0.950 . S
C1204 C1200 1.385 . S
C1204 C1203 1.374 . S
C1205 C1202 1.499 . S
C1205 C1206 1.373 . S
C1205 C1207 1.389 . S
C1206 H1179 0.950 . S
C1206 C1192 1.377 . S
C1206 C1205 1.373 . S
C1207 C1191 1.377 . S
C1207 C1205 1.389 . S
C1207 C1208 1.524 . S
C1208 C1207 1.524 . S
C1208 C1209 1.397 . S
C1208 C1213 1.363 . S
C1209 H1180 0.950 . S
C1209 C1208 1.397 . S
C1209 C1210 1.334 . S
C1210 H1181 0.950 . S
C1210 C1209 1.334 . S
C1210 C1211 1.287 . S
C1211 C1210 1.287 . S
C1211 C1212 1.524 . S
C1211 H1214 0.999 . S
C1212 H1182 0.950 . S
C1212 C1211 1.524 . S
C1212 C1213 1.415 . S
C1213 H1183 0.950 . S
C1213 C1208 1.363 . S
C1213 C1212 1.415 . S
H1214 C1211 0.999 . S
H1215 C1196 0.913 . S
H1216 C1234 0.951 . S
H1217 C1236 0.951 . S
H1218 C1238 0.950 . S
H1219 C1239 0.950 . S
H1220 C1241 0.950 . S
H1221 C1244 0.950 . S
H1222 C1245 0.950 . S
H1223 C1247 0.950 . S
H1224 C1248 0.950 . S
H1225 C1249 0.951 . S
H1226 C1251 0.951 . S
H1227 C1253 0.950 . S
H1228 C1254 0.950 . S
H1229 C1256 0.950 . S
H1230 C1259 0.950 . S
H1231 C1260 0.950 1_556 S
H1232 C1262 0.950 . S
H1233 C1263 0.950 . S
C1234 H1216 0.951 . S
C1234 C1235 1.366 . S
C1234 C1236 1.388 . S
C1235 C1234 1.366 . S
C1235 C1239 1.385 . S
C1236 H1217 0.951 . S
C1236 C1234 1.388 . S
C1236 C1237 1.366 . S
C1237 C1236 1.366 . S
C1237 C1238 1.414 . S
C1237 C1240 1.499 . S
C1238 H1218 0.950 . S
C1238 C1237 1.414 . S
C1238 C1239 1.374 . S
C1239 H1219 0.950 . S
C1239 C1235 1.385 . S
C1239 C1238 1.374 . S
C1240 C1237 1.499 . S
C1240 C1241 1.373 . S
C1240 C1242 1.389 . S
C1241 H1220 0.950 . S
C1241 C1240 1.373 . S
C1241 C1257 1.377 1_455 S
C1242 C1240 1.389 . S
C1242 C1243 1.524 . S
C1242 C1256 1.377 1_455 S
C1243 C1242 1.524 . S
C1243 C1244 1.397 . S
C1243 C1248 1.363 . S
C1244 H1221 0.950 . S
C1244 C1243 1.397 . S
C1244 C1245 1.334 . S
C1245 H1222 0.950 . S
C1245 C1244 1.334 . S
C1245 C1246 1.287 . S
C1246 C1245 1.287 . S
C1246 C1247 1.524 . S
C1246 H1265 0.913 . S
C1247 H1223 0.950 . S
C1247 C1246 1.524 . S
C1247 C1248 1.415 . S
C1248 H1224 0.950 . S
C1248 C1243 1.363 . S
C1248 C1247 1.415 . S
C1249 H1225 0.951 . S
C1249 C1250 1.366 . S
C1249 C1251 1.388 . S
C1250 C1249 1.366 . S
C1250 C1254 1.385 . S
C1251 H1226 0.951 . S
C1251 C1249 1.388 . S
C1251 C1252 1.366 . S
C1252 C1251 1.366 . S
C1252 C1253 1.414 . S
C1252 C1255 1.499 . S
C1253 H1227 0.950 . S
C1253 C1252 1.414 . S
C1253 C1254 1.374 . S
C1254 H1228 0.950 . S
C1254 C1250 1.385 . S
C1254 C1253 1.374 . S
C1255 C1252 1.499 . S
C1255 C1256 1.373 . S
C1255 C1257 1.389 . S
C1256 H1229 0.950 . S
C1256 C1242 1.377 1_655 S
C1256 C1255 1.373 . S
C1257 C1241 1.377 1_655 S
C1257 C1255 1.389 . S
C1257 C1258 1.524 . S
C1258 C1257 1.524 . S
C1258 C1259 1.397 . S
C1258 C1263 1.363 . S
C1259 H1230 0.950 . S
C1259 C1258 1.397 . S
C1259 C1260 1.334 . S
C1260 H1231 0.950 1_554 S
C1260 C1259 1.334 . S
C1260 C1261 1.287 . S
C1261 C1260 1.287 . S
C1261 C1262 1.524 . S
C1261 H1264 0.999 . S
C1262 H1232 0.950 . S
C1262 C1261 1.524 . S
C1262 C1263 1.415 . S
C1263 H1233 0.950 . S
C1263 C1258 1.363 . S
C1263 C1262 1.415 . S
H1264 C1261 0.999 . S
H1265 C1246 0.913 . S
H1266 C1284 0.951 . S
H1267 C1286 0.951 . S
H1268 C1288 0.950 . S
H1269 C1289 0.950 . S
H1270 C1291 0.950 . S
H1271 C1294 0.950 . S
H1272 C1295 0.950 . S
H1273 C1297 0.950 . S
H1274 C1298 0.950 . S
H1275 C1299 0.951 . S
H1276 C1301 0.951 . S
H1277 C1303 0.950 . S
H1278 C1304 0.950 . S
H1279 C1306 0.950 . S
H1280 C1309 0.950 . S
H1281 C1310 0.950 . S
H1282 C1312 0.950 . S
H1283 C1313 0.950 . S
C1284 H1266 0.951 . S
C1284 C1285 1.366 . S
C1284 C1286 1.388 . S
C1285 C1284 1.366 . S
C1285 C1289 1.385 . S
C1286 H1267 0.951 . S
C1286 C1284 1.388 . S
C1286 C1287 1.366 . S
C1287 C1286 1.366 . S
C1287 C1288 1.414 . S
C1287 C1290 1.499 . S
C1288 H1268 0.950 . S
C1288 C1287 1.414 . S
C1288 C1289 1.374 . S
C1289 H1269 0.950 . S
C1289 C1285 1.385 . S
C1289 C1288 1.374 . S
C1290 C1287 1.499 . S
C1290 C1291 1.373 . S
C1290 C1292 1.389 . S
C1291 H1270 0.950 . S
C1291 C1290 1.373 . S
C1291 C1307 1.377 . S
C1292 C1290 1.389 . S
C1292 C1293 1.524 . S
C1292 C1306 1.377 . S
C1293 C1292 1.524 . S
C1293 C1294 1.397 . S
C1293 C1298 1.363 . S
C1294 H1271 0.950 . S
C1294 C1293 1.397 . S
C1294 C1295 1.334 . S
C1295 H1272 0.950 . S
C1295 C1294 1.334 . S
C1295 C1296 1.287 . S
C1296 C1295 1.287 . S
C1296 C1297 1.524 . S
C1296 H1315 0.913 . S
C1297 H1273 0.950 . S
C1297 C1296 1.524 . S
C1297 C1298 1.415 . S
C1298 H1274 0.950 . S
C1298 C1293 1.363 . S
C1298 C1297 1.415 . S
C1299 H1275 0.951 . S
C1299 C1300 1.366 . S
C1299 C1301 1.388 . S
C1300 C1299 1.366 . S
C1300 C1304 1.385 . S
C1301 H1276 0.951 . S
C1301 C1299 1.388 . S
C1301 C1302 1.366 . S
C1302 C1301 1.366 . S
C1302 C1303 1.414 . S
C1302 C1305 1.499 . S
C1303 H1277 0.950 . S
C1303 C1302 1.414 . S
C1303 C1304 1.374 . S
C1304 H1278 0.950 . S
C1304 C1300 1.385 . S
C1304 C1303 1.374 . S
C1305 C1302 1.499 . S
C1305 C1306 1.373 . S
C1305 C1307 1.389 . S
C1306 H1279 0.950 . S
C1306 C1292 1.377 . S
C1306 C1305 1.373 . S
C1307 C1291 1.377 . S
C1307 C1305 1.389 . S
C1307 C1308 1.524 . S
C1308 C1307 1.524 . S
C1308 C1309 1.397 . S
C1308 C1313 1.363 . S
C1309 H1280 0.950 . S
C1309 C1308 1.397 . S
C1309 C1310 1.334 . S
C1310 H1281 0.950 . S
C1310 C1309 1.334 . S
C1310 C1311 1.287 . S
C1311 C1310 1.287 . S
C1311 C1312 1.524 . S
C1311 H1314 0.999 . S
C1312 H1282 0.950 . S
C1312 C1311 1.524 . S
C1312 C1313 1.415 . S
C1313 H1283 0.950 . S
C1313 C1308 1.363 . S
C1313 C1312 1.415 . S
H1314 C1311 0.999 . S
H1315 C1296 0.913 . S
H1316 C1334 0.951 . S
H1317 C1336 0.951 . S
H1318 C1338 0.950 . S
H1319 C1339 0.950 . S
H1320 C1341 0.950 . S
H1321 C1344 0.950 . S
H1322 C1345 0.950 . S
H1323 C1347 0.950 . S
H1324 C1348 0.950 . S
H1325 C1349 0.951 . S
H1326 C1351 0.951 . S
H1327 C1353 0.950 . S
H1328 C1354 0.950 . S
H1329 C1356 0.950 . S
H1330 C1359 0.950 . S
H1331 C1360 0.950 . S
H1332 C1362 0.950 . S
H1333 C1363 0.950 . S
C1334 H1316 0.951 . S
C1334 C1335 1.366 . S
C1334 C1336 1.388 . S
C1335 C1334 1.366 . S
C1335 C1339 1.385 . S
C1336 H1317 0.951 . S
C1336 C1334 1.388 . S
C1336 C1337 1.366 . S
C1337 C1336 1.366 . S
C1337 C1338 1.414 . S
C1337 C1340 1.499 . S
C1338 H1318 0.950 . S
C1338 C1337 1.414 . S
C1338 C1339 1.374 . S
C1339 H1319 0.950 . S
C1339 C1335 1.385 . S
C1339 C1338 1.374 . S
C1340 C1337 1.499 . S
C1340 C1341 1.373 . S
C1340 C1342 1.389 . S
C1341 H1320 0.950 . S
C1341 C1340 1.373 . S
C1341 C1357 1.377 . S
C1342 C1340 1.389 . S
C1342 C1343 1.524 . S
C1342 C1356 1.377 . S
C1343 C1342 1.524 . S
C1343 C1344 1.397 . S
C1343 C1348 1.363 . S
C1344 H1321 0.950 . S
C1344 C1343 1.397 . S
C1344 C1345 1.334 . S
C1345 H1322 0.950 . S
C1345 C1344 1.334 . S
C1345 C1346 1.287 . S
C1346 C1345 1.287 . S
C1346 C1347 1.524 . S
C1346 H1365 0.913 . S
C1347 H1323 0.950 . S
C1347 C1346 1.524 . S
C1347 C1348 1.415 . S
C1348 H1324 0.950 . S
C1348 C1343 1.363 . S
C1348 C1347 1.415 . S
C1349 H1325 0.951 . S
C1349 C1350 1.366 . S
C1349 C1351 1.388 . S
C1350 C1349 1.366 . S
C1350 C1354 1.385 . S
C1351 H1326 0.951 . S
C1351 C1349 1.388 . S
C1351 C1352 1.366 . S
C1352 C1351 1.366 . S
C1352 C1353 1.414 . S
C1352 C1355 1.499 . S
C1353 H1327 0.950 . S
C1353 C1352 1.414 . S
C1353 C1354 1.374 . S
C1354 H1328 0.950 . S
C1354 C1350 1.385 . S
C1354 C1353 1.374 . S
C1355 C1352 1.499 . S
C1355 C1356 1.373 . S
C1355 C1357 1.389 . S
C1356 H1329 0.950 . S
C1356 C1342 1.377 . S
C1356 C1355 1.373 . S
C1357 C1341 1.377 . S
C1357 C1355 1.389 . S
C1357 C1358 1.524 . S
C1358 C1357 1.524 . S
C1358 C1359 1.397 . S
C1358 C1363 1.363 . S
C1359 H1330 0.950 . S
C1359 C1358 1.397 . S
C1359 C1360 1.334 . S
C1360 H1331 0.950 . S
C1360 C1359 1.334 . S
C1360 C1361 1.287 . S
C1361 C1360 1.287 . S
C1361 C1362 1.524 . S
C1361 H1364 0.999 . S
C1362 H1332 0.950 . S
C1362 C1361 1.524 . S
C1362 C1363 1.415 . S
C1363 H1333 0.950 . S
C1363 C1358 1.363 . S
C1363 C1362 1.415 . S
H1364 C1361 0.999 . S
H1365 C1346 0.913 . S
H1366 C1384 0.951 . S
H1367 C1386 0.951 . S
H1368 C1388 0.950 . S
H1369 C1389 0.950 . S
H1370 C1391 0.950 . S
H1371 C1394 0.950 . S
H1372 C1395 0.950 . S
H1373 C1397 0.950 . S
H1374 C1398 0.950 . S
H1375 C1399 0.951 . S
H1376 C1401 0.951 . S
H1377 C1403 0.950 . S
H1378 C1404 0.950 . S
H1379 C1406 0.950 . S
H1380 C1409 0.950 . S
H1381 C1410 0.950 . S
H1382 C1412 0.950 . S
H1383 C1413 0.950 . S
C1384 H1366 0.951 . S
C1384 C1385 1.366 . S
C1384 C1386 1.388 . S
C1385 C1384 1.366 . S
C1385 C1389 1.385 . S
C1386 H1367 0.951 . S
C1386 C1384 1.388 . S
C1386 C1387 1.366 . S
C1387 C1386 1.366 . S
C1387 C1388 1.414 . S
C1387 C1390 1.499 . S
C1388 H1368 0.950 . S
C1388 C1387 1.414 . S
C1388 C1389 1.374 . S
C1389 H1369 0.950 . S
C1389 C1385 1.385 . S
C1389 C1388 1.374 . S
C1390 C1387 1.499 . S
C1390 C1391 1.373 . S
C1390 C1392 1.389 . S
C1391 H1370 0.950 . S
C1391 C1390 1.373 . S
C1391 C1407 1.377 . S
C1392 C1390 1.389 . S
C1392 C1393 1.524 . S
C1392 C1406 1.377 . S
C1393 C1392 1.524 . S
C1393 C1394 1.397 . S
C1393 C1398 1.363 . S
C1394 H1371 0.950 . S
C1394 C1393 1.397 . S
C1394 C1395 1.334 . S
C1395 H1372 0.950 . S
C1395 C1394 1.334 . S
C1395 C1396 1.287 . S
C1396 C1395 1.287 . S
C1396 C1397 1.524 . S
C1396 H1415 0.913 . S
C1397 H1373 0.950 . S
C1397 C1396 1.524 . S
C1397 C1398 1.415 . S
C1398 H1374 0.950 . S
C1398 C1393 1.363 . S
C1398 C1397 1.415 . S
C1399 H1375 0.951 . S
C1399 C1400 1.366 . S
C1399 C1401 1.388 . S
C1400 C1399 1.366 . S
C1400 C1404 1.385 . S
C1401 H1376 0.951 . S
C1401 C1399 1.388 . S
C1401 C1402 1.366 . S
C1402 C1401 1.366 . S
C1402 C1403 1.414 . S
C1402 C1405 1.499 . S
C1403 H1377 0.950 . S
C1403 C1402 1.414 . S
C1403 C1404 1.374 . S
C1404 H1378 0.950 . S
C1404 C1400 1.385 . S
C1404 C1403 1.374 . S
C1405 C1402 1.499 . S
C1405 C1406 1.373 . S
C1405 C1407 1.389 . S
C1406 H1379 0.950 . S
C1406 C1392 1.377 . S
C1406 C1405 1.373 . S
C1407 C1391 1.377 . S
C1407 C1405 1.389 . S
C1407 C1408 1.524 . S
C1408 C1407 1.524 . S
C1408 C1409 1.397 . S
C1408 C1413 1.363 . S
C1409 H1380 0.950 . S
C1409 C1408 1.397 . S
C1409 C1410 1.334 . S
C1410 H1381 0.950 . S
C1410 C1409 1.334 . S
C1410 C1411 1.287 . S
C1411 C1410 1.287 . S
C1411 C1412 1.524 . S
C1411 H1414 0.999 . S
C1412 H1382 0.950 . S
C1412 C1411 1.524 . S
C1412 C1413 1.415 . S
C1413 H1383 0.950 . S
C1413 C1408 1.363 . S
C1413 C1412 1.415 . S
H1414 C1411 0.999 . S
H1415 C1396 0.913 . S
H1416 C1434 0.951 . S
H1417 C1436 0.951 . S
H1418 C1438 0.950 . S
H1419 C1439 0.950 . S
H1420 C1441 0.950 . S
H1421 C1444 0.950 . S
H1422 C1445 0.950 . S
H1423 C1447 0.950 . S
H1424 C1448 0.950 . S
H1425 C1449 0.951 . S
H1426 C1451 0.951 . S
H1427 C1453 0.950 . S
H1428 C1454 0.950 . S
H1429 C1456 0.950 . S
H1430 C1459 0.950 . S
H1431 C1460 0.950 . S
H1432 C1462 0.950 . S
H1433 C1463 0.946 1_556 S
C1434 H1416 0.951 . S
C1434 C1435 1.366 . S
C1434 C1436 1.388 . S
C1435 C1434 1.366 . S
C1435 C1439 1.385 . S
C1436 H1417 0.951 . S
C1436 C1434 1.388 . S
C1436 C1437 1.366 . S
C1437 C1436 1.366 . S
C1437 C1438 1.414 . S
C1437 C1440 1.499 . S
C1438 H1418 0.950 . S
C1438 C1437 1.414 . S
C1438 C1439 1.374 . S
C1439 H1419 0.950 . S
C1439 C1435 1.385 . S
C1439 C1438 1.374 . S
C1440 C1437 1.499 . S
C1440 C1441 1.373 . S
C1440 C1442 1.389 . S
C1441 H1420 0.950 . S
C1441 C1440 1.373 . S
C1441 C1457 1.377 1_655 S
C1442 C1440 1.389 . S
C1442 C1443 1.524 . S
C1442 C1456 1.377 1_655 S
C1443 C1442 1.524 . S
C1443 C1444 1.397 . S
C1443 C1448 1.363 . S
C1444 H1421 0.950 . S
C1444 C1443 1.397 . S
C1444 C1445 1.334 . S
C1445 H1422 0.950 . S
C1445 C1444 1.334 . S
C1445 C1446 1.287 . S
C1446 C1445 1.287 . S
C1446 C1447 1.524 . S
C1446 H1465 0.913 . S
C1447 H1423 0.950 . S
C1447 C1446 1.524 . S
C1447 C1448 1.415 . S
C1448 H1424 0.950 . S
C1448 C1443 1.363 . S
C1448 C1447 1.415 . S
C1449 H1425 0.951 . S
C1449 C1450 1.366 . S
C1449 C1451 1.388 . S
C1450 C1449 1.366 . S
C1450 C1454 1.385 . S
C1451 H1426 0.951 . S
C1451 C1449 1.388 . S
C1451 C1452 1.366 . S
C1452 C1451 1.366 . S
C1452 C1453 1.414 . S
C1452 C1455 1.499 . S
C1453 H1427 0.950 . S
C1453 C1452 1.414 . S
C1453 C1454 1.374 . S
C1454 H1428 0.950 . S
C1454 C1450 1.385 . S
C1454 C1453 1.374 . S
C1455 C1452 1.499 . S
C1455 C1456 1.373 . S
C1455 C1457 1.389 . S
C1456 H1429 0.950 . S
C1456 C1442 1.377 1_455 S
C1456 C1455 1.373 . S
C1457 C1441 1.377 1_455 S
C1457 C1455 1.389 . S
C1457 C1458 1.521 1_556 S
C1458 C1457 1.521 1_554 S
C1458 C1459 1.399 . S
C1458 C1463 1.364 . S
C1459 H1430 0.950 . S
C1459 C1458 1.399 . S
C1459 C1460 1.334 . S
C1460 H1431 0.950 . S
C1460 C1459 1.334 . S
C1460 C1461 1.287 . S
C1461 C1460 1.287 . S
C1461 C1462 1.524 . S
C1461 H1464 0.999 . S
C1462 H1432 0.950 . S
C1462 C1461 1.524 . S
C1462 C1463 1.415 . S
C1463 H1433 0.946 1_554 S
C1463 C1458 1.364 . S
C1463 C1462 1.415 . S
H1464 C1461 0.999 . S
H1465 C1446 0.913 . S
H1466 C1484 0.951 . S
H1467 C1486 0.951 . S
H1468 C1488 0.950 . S
H1469 C1489 0.950 . S
H1470 C1491 0.950 . S
H1471 C1494 0.950 . S
H1472 C1495 0.950 . S
H1473 C1497 0.950 . S
H1474 C1498 0.950 . S
H1475 C1499 0.951 . S
H1476 C1501 0.951 . S
H1477 C1503 0.950 . S
H1478 C1504 0.950 . S
H1479 C1506 0.950 . S
H1480 C1509 0.950 . S
H1481 C1510 0.950 . S
H1482 C1512 0.950 . S
H1483 C1513 0.950 . S
C1484 H1466 0.951 . S
C1484 C1485 1.366 . S
C1484 C1486 1.388 . S
C1485 C1484 1.366 . S
C1485 C1489 1.385 . S
C1486 H1467 0.951 . S
C1486 C1484 1.388 . S
C1486 C1487 1.366 . S
C1487 C1486 1.366 . S
C1487 C1488 1.414 . S
C1487 C1490 1.499 . S
C1488 H1468 0.950 . S
C1488 C1487 1.414 . S
C1488 C1489 1.374 . S
C1489 H1469 0.950 . S
C1489 C1485 1.385 . S
C1489 C1488 1.374 . S
C1490 C1487 1.499 . S
C1490 C1491 1.373 . S
C1490 C1492 1.389 . S
C1491 H1470 0.950 . S
C1491 C1490 1.373 . S
C1491 C1507 1.377 . S
C1492 C1490 1.389 . S
C1492 C1493 1.524 . S
C1492 C1506 1.377 . S
C1493 C1492 1.524 . S
C1493 C1494 1.397 . S
C1493 C1498 1.363 . S
C1494 H1471 0.950 . S
C1494 C1493 1.397 . S
C1494 C1495 1.334 . S
C1495 H1472 0.950 . S
C1495 C1494 1.334 . S
C1495 C1496 1.287 . S
C1496 C1495 1.287 . S
C1496 C1497 1.524 . S
C1496 H1515 0.913 . S
C1497 H1473 0.950 . S
C1497 C1496 1.524 . S
C1497 C1498 1.415 . S
C1498 H1474 0.950 . S
C1498 C1493 1.363 . S
C1498 C1497 1.415 . S
C1499 H1475 0.951 . S
C1499 C1500 1.366 . S
C1499 C1501 1.388 . S
C1500 C1499 1.366 . S
C1500 C1504 1.385 . S
C1501 H1476 0.951 . S
C1501 C1499 1.388 . S
C1501 C1502 1.366 . S
C1502 C1501 1.366 . S
C1502 C1503 1.414 . S
C1502 C1505 1.499 . S
C1503 H1477 0.950 . S
C1503 C1502 1.414 . S
C1503 C1504 1.374 . S
C1504 H1478 0.950 . S
C1504 C1500 1.385 . S
C1504 C1503 1.374 . S
C1505 C1502 1.499 . S
C1505 C1506 1.373 . S
C1505 C1507 1.389 . S
C1506 H1479 0.950 . S
C1506 C1492 1.377 . S
C1506 C1505 1.373 . S
C1507 C1491 1.377 . S
C1507 C1505 1.389 . S
C1507 C1508 1.524 . S
C1508 C1507 1.524 . S
C1508 C1509 1.397 . S
C1508 C1513 1.363 . S
C1509 H1480 0.950 . S
C1509 C1508 1.397 . S
C1509 C1510 1.334 . S
C1510 H1481 0.950 . S
C1510 C1509 1.334 . S
C1510 C1511 1.287 . S
C1511 C1510 1.287 . S
C1511 C1512 1.524 . S
C1511 H1514 0.999 . S
C1512 H1482 0.950 . S
C1512 C1511 1.524 . S
C1512 C1513 1.415 . S
C1513 H1483 0.950 . S
C1513 C1508 1.363 . S
C1513 C1512 1.415 . S
H1514 C1511 0.999 . S
H1515 C1496 0.913 . S
H1516 C1534 0.951 . S
H1517 C1536 0.951 . S
H1518 C1538 0.950 . S
H1519 C1539 0.950 . S
H1520 C1541 0.950 . S
H1521 C1544 0.950 . S
H1522 C1545 0.950 . S
H1523 C1547 0.950 . S
H1524 C1548 0.950 . S
H1525 C1549 0.951 . S
H1526 C1551 0.951 . S
H1527 C1553 0.950 . S
H1528 C1554 0.950 . S
H1529 C1556 0.950 . S
H1530 C1559 0.950 . S
H1531 C1560 0.950 . S
H1532 C1562 0.950 . S
H1533 C1563 0.950 . S
C1534 H1516 0.951 . S
C1534 C1535 1.366 . S
C1534 C1536 1.388 . S
C1535 C1534 1.366 . S
C1535 C1539 1.385 . S
C1536 H1517 0.951 . S
C1536 C1534 1.388 . S
C1536 C1537 1.366 . S
C1537 C1536 1.366 . S
C1537 C1538 1.414 . S
C1537 C1540 1.499 . S
C1538 H1518 0.950 . S
C1538 C1537 1.414 . S
C1538 C1539 1.374 . S
C1539 H1519 0.950 . S
C1539 C1535 1.385 . S
C1539 C1538 1.374 . S
C1540 C1537 1.499 . S
C1540 C1541 1.373 . S
C1540 C1542 1.389 . S
C1541 H1520 0.950 . S
C1541 C1540 1.373 . S
C1541 C1557 1.377 . S
C1542 C1540 1.389 . S
C1542 C1543 1.524 . S
C1542 C1556 1.377 . S
C1543 C1542 1.524 . S
C1543 C1544 1.397 . S
C1543 C1548 1.363 . S
C1544 H1521 0.950 . S
C1544 C1543 1.397 . S
C1544 C1545 1.334 . S
C1545 H1522 0.950 . S
C1545 C1544 1.334 . S
C1545 C1546 1.287 . S
C1546 C1545 1.287 . S
C1546 C1547 1.524 . S
C1546 H1565 0.913 . S
C1547 H1523 0.950 . S
C1547 C1546 1.524 . S
C1547 C1548 1.415 . S
C1548 H1524 0.950 . S
C1548 C1543 1.363 . S
C1548 C1547 1.415 . S
C1549 H1525 0.951 . S
C1549 C1550 1.366 . S
C1549 C1551 1.388 . S
C1550 C1549 1.366 . S
C1550 C1554 1.385 . S
C1551 H1526 0.951 . S
C1551 C1549 1.388 . S
C1551 C1552 1.366 . S
C1552 C1551 1.366 . S
C1552 C1553 1.414 . S
C1552 C1555 1.499 . S
C1553 H1527 0.950 . S
C1553 C1552 1.414 . S
C1553 C1554 1.374 . S
C1554 H1528 0.950 . S
C1554 C1550 1.385 . S
C1554 C1553 1.374 . S
C1555 C1552 1.499 . S
C1555 C1556 1.373 . S
C1555 C1557 1.389 . S
C1556 H1529 0.950 . S
C1556 C1542 1.377 . S
C1556 C1555 1.373 . S
C1557 C1541 1.377 . S
C1557 C1555 1.389 . S
C1557 C1558 1.524 . S
C1558 C1557 1.524 . S
C1558 C1559 1.397 . S
C1558 C1563 1.363 . S
C1559 H1530 0.950 . S
C1559 C1558 1.397 . S
C1559 C1560 1.334 . S
C1560 H1531 0.950 . S
C1560 C1559 1.334 . S
C1560 C1561 1.287 . S
C1561 C1560 1.287 . S
C1561 C1562 1.524 . S
C1561 H1564 0.999 . S
C1562 H1532 0.950 . S
C1562 C1561 1.524 . S
C1562 C1563 1.415 . S
C1563 H1533 0.950 . S
C1563 C1558 1.363 . S
C1563 C1562 1.415 . S
H1564 C1561 0.999 . S
H1565 C1546 0.913 . S
H1566 C1584 0.951 . S
H1567 C1586 0.951 . S
H1568 C1588 0.950 . S
H1569 C1589 0.950 . S
H1570 C1591 0.950 . S
H1571 C1594 0.950 . S
H1572 C1595 0.950 . S
H1573 C1597 0.950 . S
H1574 C1598 0.950 . S
H1575 C1599 0.951 . S
H1576 C1601 0.951 . S
H1577 C1603 0.950 . S
H1578 C1604 0.950 . S
H1579 C1606 0.950 . S
H1580 C1609 0.950 . S
H1581 C1610 0.950 . S
H1582 C1612 0.950 . S
H1583 C1613 0.950 . S
C1584 H1566 0.951 . S
C1584 C1585 1.366 . S
C1584 C1586 1.388 . S
C1585 C1584 1.366 . S
C1585 C1589 1.385 . S
C1586 H1567 0.951 . S
C1586 C1584 1.388 . S
C1586 C1587 1.366 . S
C1587 C1586 1.366 . S
C1587 C1588 1.414 . S
C1587 C1590 1.499 . S
C1588 H1568 0.950 . S
C1588 C1587 1.414 . S
C1588 C1589 1.374 . S
C1589 H1569 0.950 . S
C1589 C1585 1.385 . S
C1589 C1588 1.374 . S
C1590 C1587 1.499 . S
C1590 C1591 1.373 . S
C1590 C1592 1.389 . S
C1591 H1570 0.950 . S
C1591 C1590 1.373 . S
C1591 C1607 1.377 . S
C1592 C1590 1.389 . S
C1592 C1593 1.524 . S
C1592 C1606 1.377 . S
C1593 C1592 1.524 . S
C1593 C1594 1.397 . S
C1593 C1598 1.363 . S
C1594 H1571 0.950 . S
C1594 C1593 1.397 . S
C1594 C1595 1.334 . S
C1595 H1572 0.950 . S
C1595 C1594 1.334 . S
C1595 C1596 1.287 . S
C1596 C1595 1.287 . S
C1596 C1597 1.524 . S
C1596 H1615 0.913 . S
C1597 H1573 0.950 . S
C1597 C1596 1.524 . S
C1597 C1598 1.415 . S
C1598 H1574 0.950 . S
C1598 C1593 1.363 . S
C1598 C1597 1.415 . S
C1599 H1575 0.951 . S
C1599 C1600 1.366 . S
C1599 C1601 1.388 . S
C1600 C1599 1.366 . S
C1600 C1604 1.385 . S
C1601 H1576 0.951 . S
C1601 C1599 1.388 . S
C1601 C1602 1.366 . S
C1602 C1601 1.366 . S
C1602 C1603 1.414 . S
C1602 C1605 1.499 . S
C1603 H1577 0.950 . S
C1603 C1602 1.414 . S
C1603 C1604 1.374 . S
C1604 H1578 0.950 . S
C1604 C1600 1.385 . S
C1604 C1603 1.374 . S
C1605 C1602 1.499 . S
C1605 C1606 1.373 . S
C1605 C1607 1.389 . S
C1606 H1579 0.950 . S
C1606 C1592 1.377 . S
C1606 C1605 1.373 . S
C1607 C1591 1.377 . S
C1607 C1605 1.389 . S
C1607 C1608 1.524 . S
C1608 C1607 1.524 . S
C1608 C1609 1.397 . S
C1608 C1613 1.363 . S
C1609 H1580 0.950 . S
C1609 C1608 1.397 . S
C1609 C1610 1.334 . S
C1610 H1581 0.950 . S
C1610 C1609 1.334 . S
C1610 C1611 1.287 . S
C1611 C1610 1.287 . S
C1611 C1612 1.524 . S
C1611 H1614 0.999 . S
C1612 H1582 0.950 . S
C1612 C1611 1.524 . S
C1612 C1613 1.415 . S
C1613 H1583 0.950 . S
C1613 C1608 1.363 . S
C1613 C1612 1.415 . S
H1614 C1611 0.999 . S
H1615 C1596 0.913 . S
H1616 C1634 0.951 . S
H1617 C1636 0.951 . S
H1618 C1638 0.950 . S
H1619 C1639 0.950 . S
H1620 C1641 0.950 . S
H1621 C1644 0.950 . S
H1622 C1645 0.950 . S
H1623 C1647 0.950 . S
H1624 C1648 0.950 . S
H1625 C1649 0.951 . S
H1626 C1651 0.951 . S
H1627 C1653 0.950 . S
H1628 C1654 0.950 . S
H1629 C1656 0.950 . S
H1630 C1659 0.950 . S
H1631 C1660 0.950 . S
H1632 C1662 0.950 . S
H1633 C1663 0.950 . S
C1634 H1616 0.951 . S
C1634 C1635 1.366 . S
C1634 C1636 1.388 . S
C1635 C1634 1.366 . S
C1635 C1639 1.385 . S
C1636 H1617 0.951 . S
C1636 C1634 1.388 . S
C1636 C1637 1.366 . S
C1637 C1636 1.366 . S
C1637 C1638 1.414 . S
C1637 C1640 1.499 . S
C1638 H1618 0.950 . S
C1638 C1637 1.414 . S
C1638 C1639 1.374 . S
C1639 H1619 0.950 . S
C1639 C1635 1.385 . S
C1639 C1638 1.374 . S
C1640 C1637 1.499 . S
C1640 C1641 1.373 . S
C1640 C1642 1.389 . S
C1641 H1620 0.950 . S
C1641 C1640 1.373 . S
C1641 C1657 1.377 . S
C1642 C1640 1.389 . S
C1642 C1643 1.524 . S
C1642 C1656 1.377 . S
C1643 C1642 1.524 . S
C1643 C1644 1.397 . S
C1643 C1648 1.363 . S
C1644 H1621 0.950 . S
C1644 C1643 1.397 . S
C1644 C1645 1.334 . S
C1645 H1622 0.950 . S
C1645 C1644 1.334 . S
C1645 C1646 1.287 . S
C1646 C1645 1.287 . S
C1646 C1647 1.524 . S
C1646 H1665 0.913 . S
C1647 H1623 0.950 . S
C1647 C1646 1.524 . S
C1647 C1648 1.415 . S
C1648 H1624 0.950 . S
C1648 C1643 1.363 . S
C1648 C1647 1.415 . S
C1649 H1625 0.951 . S
C1649 C1650 1.366 . S
C1649 C1651 1.388 . S
C1650 C1649 1.366 . S
C1650 C1654 1.385 . S
C1651 H1626 0.951 . S
C1651 C1649 1.388 . S
C1651 C1652 1.366 . S
C1652 C1651 1.366 . S
C1652 C1653 1.414 . S
C1652 C1655 1.499 . S
C1653 H1627 0.950 . S
C1653 C1652 1.414 . S
C1653 C1654 1.374 . S
C1654 H1628 0.950 . S
C1654 C1650 1.385 . S
C1654 C1653 1.374 . S
C1655 C1652 1.499 . S
C1655 C1656 1.373 . S
C1655 C1657 1.389 . S
C1656 H1629 0.950 . S
C1656 C1642 1.377 . S
C1656 C1655 1.373 . S
C1657 C1641 1.377 . S
C1657 C1655 1.389 . S
C1657 C1658 1.524 . S
C1658 C1657 1.524 . S
C1658 C1659 1.397 . S
C1658 C1663 1.363 . S
C1659 H1630 0.950 . S
C1659 C1658 1.397 . S
C1659 C1660 1.334 . S
C1660 H1631 0.950 . S
C1660 C1659 1.334 . S
C1660 C1661 1.287 . S
C1661 C1660 1.287 . S
C1661 C1662 1.524 . S
C1661 H1664 0.999 . S
C1662 H1632 0.950 . S
C1662 C1661 1.524 . S
C1662 C1663 1.415 . S
C1663 H1633 0.950 . S
C1663 C1658 1.363 . S
C1663 C1662 1.415 . S
H1664 C1661 0.999 . S
H1665 C1646 0.913 . S
H1666 C1684 0.951 . S
H1667 C1686 0.951 . S
H1668 C1688 0.950 . S
H1669 C1689 0.950 . S
H1670 C1691 0.950 . S
H1671 C1694 0.950 . S
H1672 C1695 0.950 . S
H1673 C1697 0.950 . S
H1674 C1698 0.950 . S
H1675 C1699 0.951 . S
H1676 C1701 0.951 . S
H1677 C1703 0.950 . S
H1678 C1704 0.950 . S
H1679 C1706 0.950 . S
H1680 C1709 0.950 . S
H1681 C1710 0.950 . S
H1682 C1712 0.950 . S
H1683 C1713 0.950 . S
C1684 H1666 0.951 . S
C1684 C1685 1.366 . S
C1684 C1686 1.388 . S
C1685 C1684 1.366 . S
C1685 C1689 1.385 . S
C1686 H1667 0.951 . S
C1686 C1684 1.388 . S
C1686 C1687 1.366 . S
C1687 C1686 1.366 . S
C1687 C1688 1.414 . S
C1687 C1690 1.499 . S
C1688 H1668 0.950 . S
C1688 C1687 1.414 . S
C1688 C1689 1.374 . S
C1689 H1669 0.950 . S
C1689 C1685 1.385 . S
C1689 C1688 1.374 . S
C1690 C1687 1.499 . S
C1690 C1691 1.373 . S
C1690 C1692 1.389 . S
C1691 H1670 0.950 . S
C1691 C1690 1.373 . S
C1691 C1707 1.377 . S
C1692 C1690 1.389 . S
C1692 C1693 1.524 . S
C1692 C1706 1.377 . S
C1693 C1692 1.524 . S
C1693 C1694 1.397 . S
C1693 C1698 1.363 . S
C1694 H1671 0.950 . S
C1694 C1693 1.397 . S
C1694 C1695 1.334 . S
C1695 H1672 0.950 . S
C1695 C1694 1.334 . S
C1695 C1696 1.287 . S
C1696 C1695 1.287 . S
C1696 C1697 1.524 . S
C1696 H1715 0.913 . S
C1697 H1673 0.950 . S
C1697 C1696 1.524 . S
C1697 C1698 1.415 . S
C1698 H1674 0.950 . S
C1698 C1693 1.363 . S
C1698 C1697 1.415 . S
C1699 H1675 0.951 . S
C1699 C1700 1.366 . S
C1699 C1701 1.388 . S
C1700 C1699 1.366 . S
C1700 C1704 1.385 . S
C1701 H1676 0.951 . S
C1701 C1699 1.388 . S
C1701 C1702 1.366 . S
C1702 C1701 1.366 . S
C1702 C1703 1.414 . S
C1702 C1705 1.499 . S
C1703 H1677 0.950 . S
C1703 C1702 1.414 . S
C1703 C1704 1.374 . S
C1704 H1678 0.950 . S
C1704 C1700 1.385 . S
C1704 C1703 1.374 . S
C1705 C1702 1.499 . S
C1705 C1706 1.373 . S
C1705 C1707 1.389 . S
C1706 H1679 0.950 . S
C1706 C1692 1.377 . S
C1706 C1705 1.373 . S
C1707 C1691 1.377 . S
C1707 C1705 1.389 . S
C1707 C1708 1.524 . S
C1708 C1707 1.524 . S
C1708 C1709 1.397 . S
C1708 C1713 1.363 . S
C1709 H1680 0.950 . S
C1709 C1708 1.397 . S
C1709 C1710 1.334 . S
C1710 H1681 0.950 . S
C1710 C1709 1.334 . S
C1710 C1711 1.287 . S
C1711 C1710 1.287 . S
C1711 C1712 1.524 . S
C1711 H1714 0.999 . S
C1712 H1682 0.950 . S
C1712 C1711 1.524 . S
C1712 C1713 1.415 . S
C1713 H1683 0.950 . S
C1713 C1708 1.363 . S
C1713 C1712 1.415 . S
H1714 C1711 0.999 . S
H1715 C1696 0.913 . S
H1716 C1734 0.951 . S
H1717 C1736 0.951 . S
H1718 C1738 0.950 . S
H1719 C1739 0.950 . S
H1720 C1741 0.950 . S
H1721 C1744 0.950 . S
H1722 C1745 0.950 . S
H1723 C1747 0.950 . S
H1724 C1748 0.950 . S
H1725 C1749 0.951 . S
H1726 C1751 0.951 . S
H1727 C1753 0.950 . S
H1728 C1754 0.950 . S
H1729 C1756 0.950 . S
H1730 C1759 0.950 . S
H1731 C1760 0.950 . S
H1732 C1762 0.950 . S
H1733 C1763 0.950 . S
C1734 H1716 0.951 . S
C1734 C1735 1.366 . S
C1734 C1736 1.388 . S
C1735 C1734 1.366 . S
C1735 C1739 1.385 . S
C1736 H1717 0.951 . S
C1736 C1734 1.388 . S
C1736 C1737 1.366 . S
C1737 C1736 1.366 . S
C1737 C1738 1.414 . S
C1737 C1740 1.499 . S
C1738 H1718 0.950 . S
C1738 C1737 1.414 . S
C1738 C1739 1.374 . S
C1739 H1719 0.950 . S
C1739 C1735 1.385 . S
C1739 C1738 1.374 . S
C1740 C1737 1.499 . S
C1740 C1741 1.373 . S
C1740 C1742 1.389 . S
C1741 H1720 0.950 . S
C1741 C1740 1.373 . S
C1741 C1757 1.377 . S
C1742 C1740 1.389 . S
C1742 C1743 1.524 . S
C1742 C1756 1.377 . S
C1743 C1742 1.524 . S
C1743 C1744 1.397 . S
C1743 C1748 1.363 . S
C1744 H1721 0.950 . S
C1744 C1743 1.397 . S
C1744 C1745 1.334 . S
C1745 H1722 0.950 . S
C1745 C1744 1.334 . S
C1745 C1746 1.287 . S
C1746 C1745 1.287 . S
C1746 C1747 1.524 . S
C1746 H1765 0.913 . S
C1747 H1723 0.950 . S
C1747 C1746 1.524 . S
C1747 C1748 1.415 . S
C1748 H1724 0.950 . S
C1748 C1743 1.363 . S
C1748 C1747 1.415 . S
C1749 H1725 0.951 . S
C1749 C1750 1.366 . S
C1749 C1751 1.388 . S
C1750 C1749 1.366 . S
C1750 C1754 1.385 . S
C1751 H1726 0.951 . S
C1751 C1749 1.388 . S
C1751 C1752 1.366 . S
C1752 C1751 1.366 . S
C1752 C1753 1.414 . S
C1752 C1755 1.499 . S
C1753 H1727 0.950 . S
C1753 C1752 1.414 . S
C1753 C1754 1.374 . S
C1754 H1728 0.950 . S
C1754 C1750 1.385 . S
C1754 C1753 1.374 . S
C1755 C1752 1.499 . S
C1755 C1756 1.373 . S
C1755 C1757 1.389 . S
C1756 H1729 0.950 . S
C1756 C1742 1.377 . S
C1756 C1755 1.373 . S
C1757 C1741 1.377 . S
C1757 C1755 1.389 . S
C1757 C1758 1.524 . S
C1758 C1757 1.524 . S
C1758 C1759 1.397 . S
C1758 C1763 1.363 . S
C1759 H1730 0.950 . S
C1759 C1758 1.397 . S
C1759 C1760 1.334 . S
C1760 H1731 0.950 . S
C1760 C1759 1.334 . S
C1760 C1761 1.287 . S
C1761 C1760 1.287 . S
C1761 C1762 1.524 . S
C1761 H1764 0.999 . S
C1762 H1732 0.950 . S
C1762 C1761 1.524 . S
C1762 C1763 1.415 . S
C1763 H1733 0.950 . S
C1763 C1758 1.363 . S
C1763 C1762 1.415 . S
H1764 C1761 0.999 . S
H1765 C1746 0.913 . S
H1766 C1784 0.951 . S
H1767 C1786 0.951 . S
H1768 C1788 0.950 . S
H1769 C1789 0.950 . S
H1770 C1791 0.950 . S
H1771 C1794 0.950 . S
H1772 C1795 0.950 . S
H1773 C1797 0.950 . S
H1774 C1798 0.950 . S
H1775 C1799 0.951 . S
H1776 C1801 0.951 . S
H1777 C1803 0.950 . S
H1778 C1804 0.950 . S
H1779 C1806 0.950 . S
H1780 C1809 0.950 . S
H1781 C1810 0.950 . S
H1782 C1812 0.950 . S
H1783 C1813 0.950 . S
C1784 H1766 0.951 . S
C1784 C1785 1.366 . S
C1784 C1786 1.388 . S
C1785 C1784 1.366 . S
C1785 C1789 1.385 . S
C1786 H1767 0.951 . S
C1786 C1784 1.388 . S
C1786 C1787 1.366 . S
C1787 C1786 1.366 . S
C1787 C1788 1.414 . S
C1787 C1790 1.499 . S
C1788 H1768 0.950 . S
C1788 C1787 1.414 . S
C1788 C1789 1.374 . S
C1789 H1769 0.950 . S
C1789 C1785 1.385 . S
C1789 C1788 1.374 . S
C1790 C1787 1.499 . S
C1790 C1791 1.373 . S
C1790 C1792 1.389 . S
C1791 H1770 0.950 . S
C1791 C1790 1.373 . S
C1791 C1807 1.377 . S
C1792 C1790 1.389 . S
C1792 C1793 1.524 . S
C1792 C1806 1.377 . S
C1793 C1792 1.524 . S
C1793 C1794 1.397 . S
C1793 C1798 1.363 . S
C1794 H1771 0.950 . S
C1794 C1793 1.397 . S
C1794 C1795 1.334 . S
C1795 H1772 0.950 . S
C1795 C1794 1.334 . S
C1795 C1796 1.287 . S
C1796 C1795 1.287 . S
C1796 C1797 1.524 . S
C1796 H1815 0.913 . S
C1797 H1773 0.950 . S
C1797 C1796 1.524 . S
C1797 C1798 1.415 . S
C1798 H1774 0.950 . S
C1798 C1793 1.363 . S
C1798 C1797 1.415 . S
C1799 H1775 0.951 . S
C1799 C1800 1.366 . S
C1799 C1801 1.388 . S
C1800 C1799 1.366 . S
C1800 C1804 1.385 . S
C1801 H1776 0.951 . S
C1801 C1799 1.388 . S
C1801 C1802 1.366 . S
C1802 C1801 1.366 . S
C1802 C1803 1.414 . S
C1802 C1805 1.499 . S
C1803 H1777 0.950 . S
C1803 C1802 1.414 . S
C1803 C1804 1.374 . S
C1804 H1778 0.950 . S
C1804 C1800 1.385 . S
C1804 C1803 1.374 . S
C1805 C1802 1.499 . S
C1805 C1806 1.373 . S
C1805 C1807 1.389 . S
C1806 H1779 0.950 . S
C1806 C1792 1.377 . S
C1806 C1805 1.373 . S
C1807 C1791 1.377 . S
C1807 C1805 1.389 . S
C1807 C1808 1.524 . S
C1808 C1807 1.524 . S
C1808 C1809 1.397 . S
C1808 C1813 1.363 . S
C1809 H1780 0.950 . S
C1809 C1808 1.397 . S
C1809 C1810 1.334 . S
C1810 H1781 0.950 . S
C1810 C1809 1.334 . S
C1810 C1811 1.287 . S
C1811 C1810 1.287 . S
C1811 C1812 1.524 . S
C1811 H1814 0.999 . S
C1812 H1782 0.950 . S
C1812 C1811 1.524 . S
C1812 C1813 1.415 . S
C1813 H1783 0.950 . S
C1813 C1808 1.363 . S
C1813 C1812 1.415 . S
H1814 C1811 0.999 . S
H1815 C1796 0.913 . S
H1816 C1834 0.951 . S
H1817 C1836 0.951 . S
H1818 C1838 0.950 . S
H1819 C1839 0.950 . S
H1820 C1841 0.950 . S
H1821 C1844 0.950 . S
H1822 C1845 0.950 . S
H1823 C1847 0.950 . S
H1824 C1848 0.950 . S
H1825 C1849 0.951 . S
H1826 C1851 0.951 . S
H1827 C1853 0.950 . S
H1828 C1854 0.950 . S
H1829 C1856 0.950 . S
H1830 C1859 0.950 . S
H1831 C1860 0.950 . S
H1832 C1862 0.950 . S
H1833 C1863 0.950 . S
C1834 H1816 0.951 . S
C1834 C1835 1.366 . S
C1834 C1836 1.388 . S
C1835 C1834 1.366 . S
C1835 C1839 1.385 . S
C1836 H1817 0.951 . S
C1836 C1834 1.388 . S
C1836 C1837 1.366 . S
C1837 C1836 1.366 . S
C1837 C1838 1.414 . S
C1837 C1840 1.499 . S
C1838 H1818 0.950 . S
C1838 C1837 1.414 . S
C1838 C1839 1.374 . S
C1839 H1819 0.950 . S
C1839 C1835 1.385 . S
C1839 C1838 1.374 . S
C1840 C1837 1.499 . S
C1840 C1841 1.373 . S
C1840 C1842 1.389 . S
C1841 H1820 0.950 . S
C1841 C1840 1.373 . S
C1841 C1857 1.377 . S
C1842 C1840 1.389 . S
C1842 C1843 1.524 . S
C1842 C1856 1.377 . S
C1843 C1842 1.524 . S
C1843 C1844 1.397 . S
C1843 C1848 1.363 . S
C1844 H1821 0.950 . S
C1844 C1843 1.397 . S
C1844 C1845 1.334 . S
C1845 H1822 0.950 . S
C1845 C1844 1.334 . S
C1845 C1846 1.287 . S
C1846 C1845 1.287 . S
C1846 C1847 1.524 . S
C1846 H1865 0.913 . S
C1847 H1823 0.950 . S
C1847 C1846 1.524 . S
C1847 C1848 1.415 . S
C1848 H1824 0.950 . S
C1848 C1843 1.363 . S
C1848 C1847 1.415 . S
C1849 H1825 0.951 . S
C1849 C1850 1.366 . S
C1849 C1851 1.388 . S
C1850 C1849 1.366 . S
C1850 C1854 1.385 . S
C1851 H1826 0.951 . S
C1851 C1849 1.388 . S
C1851 C1852 1.366 . S
C1852 C1851 1.366 . S
C1852 C1853 1.414 . S
C1852 C1855 1.499 . S
C1853 H1827 0.950 . S
C1853 C1852 1.414 . S
C1853 C1854 1.374 . S
C1854 H1828 0.950 . S
C1854 C1850 1.385 . S
C1854 C1853 1.374 . S
C1855 C1852 1.499 . S
C1855 C1856 1.373 . S
C1855 C1857 1.389 . S
C1856 H1829 0.950 . S
C1856 C1842 1.377 . S
C1856 C1855 1.373 . S
C1857 C1841 1.377 . S
C1857 C1855 1.389 . S
C1857 C1858 1.524 . S
C1858 C1857 1.524 . S
C1858 C1859 1.397 . S
C1858 C1863 1.363 . S
C1859 H1830 0.950 . S
C1859 C1858 1.397 . S
C1859 C1860 1.334 . S
C1860 H1831 0.950 . S
C1860 C1859 1.334 . S
C1860 C1861 1.287 . S
C1861 C1860 1.287 . S
C1861 C1862 1.524 . S
C1861 H1864 0.999 . S
C1862 H1832 0.950 . S
C1862 C1861 1.524 . S
C1862 C1863 1.415 . S
C1863 H1833 0.950 . S
C1863 C1858 1.363 . S
C1863 C1862 1.415 . S
H1864 C1861 0.999 . S
H1865 C1846 0.913 . S
H1866 C1884 0.951 . S
H1867 C1886 0.951 . S
H1868 C1888 0.950 . S
H1869 C1889 0.950 . S
H1870 C1891 0.950 . S
H1871 C1894 0.950 . S
H1872 C1895 0.950 . S
H1873 C1897 0.950 . S
H1874 C1898 0.908 1_556 S
H1875 C1899 0.951 . S
H1876 C1901 0.951 . S
H1877 C1903 0.950 . S
H1878 C1904 0.950 . S
H1879 C1906 0.950 . S
H1880 C1909 0.950 . S
H1881 C1910 0.950 . S
H1882 C1912 0.950 . S
H1883 C1913 0.950 . S
C1884 H1866 0.951 . S
C1884 C1885 1.366 . S
C1884 C1886 1.388 . S
C1885 C1884 1.366 . S
C1885 C1889 1.385 . S
C1886 H1867 0.951 . S
C1886 C1884 1.388 . S
C1886 C1887 1.366 . S
C1887 C1886 1.366 . S
C1887 C1888 1.414 . S
C1887 C1890 1.499 . S
C1888 H1868 0.950 . S
C1888 C1887 1.414 . S
C1888 C1889 1.374 . S
C1889 H1869 0.950 . S
C1889 C1885 1.385 . S
C1889 C1888 1.374 . S
C1890 C1887 1.499 . S
C1890 C1891 1.373 . S
C1890 C1892 1.389 . S
C1891 H1870 0.950 . S
C1891 C1890 1.373 . S
C1891 C1907 1.377 1_655 S
C1892 C1890 1.389 . S
C1892 C1893 1.524 . S
C1892 C1906 1.377 1_655 S
C1893 C1892 1.524 . S
C1893 C1894 1.397 . S
C1893 C1898 1.432 . S
C1894 H1871 0.950 . S
C1894 C1893 1.397 . S
C1894 C1895 1.334 . S
C1895 H1872 0.950 . S
C1895 C1894 1.334 . S
C1895 C1896 1.287 . S
C1896 C1895 1.287 . S
C1896 C1897 1.524 1_554 S
C1896 H1915 0.913 . S
C1897 H1873 0.950 . S
C1897 C1896 1.524 1_556 S
C1897 C1898 1.393 1_556 S
C1898 H1874 0.908 1_554 S
C1898 C1893 1.432 . S
C1898 C1897 1.393 1_554 S
C1899 H1875 0.951 . S
C1899 C1900 1.366 . S
C1899 C1901 1.388 . S
C1900 C1899 1.366 . S
C1900 C1904 1.385 . S
C1901 H1876 0.951 . S
C1901 C1899 1.388 . S
C1901 C1902 1.366 . S
C1902 C1901 1.366 . S
C1902 C1903 1.414 . S
C1902 C1905 1.499 . S
C1903 H1877 0.950 . S
C1903 C1902 1.414 . S
C1903 C1904 1.374 . S
C1904 H1878 0.950 . S
C1904 C1900 1.385 . S
C1904 C1903 1.374 . S
C1905 C1902 1.499 . S
C1905 C1906 1.373 . S
C1905 C1907 1.389 . S
C1906 H1879 0.950 . S
C1906 C1892 1.377 1_455 S
C1906 C1905 1.373 . S
C1907 C1891 1.377 1_455 S
C1907 C1905 1.389 . S
C1907 C1908 1.524 . S
C1908 C1907 1.524 . S
C1908 C1909 1.397 . S
C1908 C1913 1.363 . S
C1909 H1880 0.950 . S
C1909 C1908 1.397 . S
C1909 C1910 1.334 . S
C1910 H1881 0.950 . S
C1910 C1909 1.334 . S
C1910 C1911 1.287 . S
C1911 C1910 1.287 . S
C1911 C1912 1.524 . S
C1911 H1914 0.999 . S
C1912 H1882 0.950 . S
C1912 C1911 1.524 . S
C1912 C1913 1.415 . S
C1913 H1883 0.950 . S
C1913 C1908 1.363 . S
C1913 C1912 1.415 . S
H1914 C1911 0.999 . S
H1915 C1896 0.913 . S
H1916 C1934 0.951 . S
H1917 C1936 0.951 . S
H1918 C1938 0.950 . S
H1919 C1939 0.950 . S
H1920 C1941 0.950 . S
H1921 C1944 0.950 . S
H1922 C1945 0.950 . S
H1923 C1947 0.950 . S
H1924 C1948 0.950 . S
H1925 C1949 0.951 . S
H1926 C1951 0.951 . S
H1927 C1953 0.950 . S
H1928 C1954 0.950 . S
H1929 C1956 0.950 . S
H1930 C1959 0.950 . S
H1931 C1960 0.950 . S
H1932 C1962 0.950 . S
H1933 C1963 0.950 . S
C1934 H1916 0.951 . S
C1934 C1935 1.366 . S
C1934 C1936 1.388 . S
C1935 C1934 1.366 . S
C1935 C1939 1.385 . S
C1936 H1917 0.951 . S
C1936 C1934 1.388 . S
C1936 C1937 1.366 . S
C1937 C1936 1.366 . S
C1937 C1938 1.414 . S
C1937 C1940 1.499 . S
C1938 H1918 0.950 . S
C1938 C1937 1.414 . S
C1938 C1939 1.374 . S
C1939 H1919 0.950 . S
C1939 C1935 1.385 . S
C1939 C1938 1.374 . S
C1940 C1937 1.499 . S
C1940 C1941 1.373 . S
C1940 C1942 1.389 . S
C1941 H1920 0.950 . S
C1941 C1940 1.373 . S
C1941 C1957 1.377 . S
C1942 C1940 1.389 . S
C1942 C1943 1.524 . S
C1942 C1956 1.377 . S
C1943 C1942 1.524 . S
C1943 C1944 1.397 . S
C1943 C1948 1.363 . S
C1944 H1921 0.950 . S
C1944 C1943 1.397 . S
C1944 C1945 1.334 . S
C1945 H1922 0.950 . S
C1945 C1944 1.334 . S
C1945 C1946 1.287 . S
C1946 C1945 1.287 . S
C1946 C1947 1.524 . S
C1946 H1965 0.913 . S
C1947 H1923 0.950 . S
C1947 C1946 1.524 . S
C1947 C1948 1.415 . S
C1948 H1924 0.950 . S
C1948 C1943 1.363 . S
C1948 C1947 1.415 . S
C1949 H1925 0.951 . S
C1949 C1950 1.366 . S
C1949 C1951 1.388 . S
C1950 C1949 1.366 . S
C1950 C1954 1.385 . S
C1951 H1926 0.951 . S
C1951 C1949 1.388 . S
C1951 C1952 1.366 . S
C1952 C1951 1.366 . S
C1952 C1953 1.414 . S
C1952 C1955 1.499 . S
C1953 H1927 0.950 . S
C1953 C1952 1.414 . S
C1953 C1954 1.374 . S
C1954 H1928 0.950 . S
C1954 C1950 1.385 . S
C1954 C1953 1.374 . S
C1955 C1952 1.499 . S
C1955 C1956 1.373 . S
C1955 C1957 1.389 . S
C1956 H1929 0.950 . S
C1956 C1942 1.377 . S
C1956 C1955 1.373 . S
C1957 C1941 1.377 . S
C1957 C1955 1.389 . S
C1957 C1958 1.524 . S
C1958 C1957 1.524 . S
C1958 C1959 1.397 . S
C1958 C1963 1.363 . S
C1959 H1930 0.950 . S
C1959 C1958 1.397 . S
C1959 C1960 1.334 . S
C1960 H1931 0.950 . S
C1960 C1959 1.334 . S
C1960 C1961 1.287 . S
C1961 C1960 1.287 . S
C1961 C1962 1.524 . S
C1961 H1964 0.999 . S
C1962 H1932 0.950 . S
C1962 C1961 1.524 . S
C1962 C1963 1.415 . S
C1963 H1933 0.950 . S
C1963 C1958 1.363 . S
C1963 C1962 1.415 . S
H1964 C1961 0.999 . S
H1965 C1946 0.913 . S
H1966 C1984 0.951 . S
H1967 C1986 0.951 . S
H1968 C1988 0.950 . S
H1969 C1989 0.950 . S
H1970 C1991 0.950 . S
H1971 C1994 0.950 . S
H1972 C1995 0.950 . S
H1973 C1997 0.950 . S
H1974 C1998 0.950 . S
H1975 C1999 0.951 . S
H1976 C2001 0.951 . S
H1977 C2003 0.950 . S
H1978 C2004 0.950 . S
H1979 C2006 0.950 . S
H1980 C2009 0.950 . S
H1981 C2010 0.950 . S
H1982 C2012 0.950 . S
H1983 C2013 0.950 . S
C1984 H1966 0.951 . S
C1984 C1985 1.366 . S
C1984 C1986 1.388 . S
C1985 C1984 1.366 . S
C1985 C1989 1.385 . S
C1986 H1967 0.951 . S
C1986 C1984 1.388 . S
C1986 C1987 1.366 . S
C1987 C1986 1.366 . S
C1987 C1988 1.414 . S
C1987 C1990 1.499 . S
C1988 H1968 0.950 . S
C1988 C1987 1.414 . S
C1988 C1989 1.374 . S
C1989 H1969 0.950 . S
C1989 C1985 1.385 . S
C1989 C1988 1.374 . S
C1990 C1987 1.499 . S
C1990 C1991 1.373 . S
C1990 C1992 1.389 . S
C1991 H1970 0.950 . S
C1991 C1990 1.373 . S
C1991 C2007 1.377 1_455 S
C1992 C1990 1.389 . S
C1992 C1993 1.586 . S
C1992 C2006 1.377 1_455 S
C1993 C1992 1.586 . S
C1993 C1994 1.416 . S
C1993 C1998 1.289 1_556 S
C1994 H1971 0.950 . S
C1994 C1993 1.416 . S
C1994 C1995 1.334 1_556 S
C1995 H1972 0.950 . S
C1995 C1994 1.334 1_554 S
C1995 C1996 1.287 . S
C1996 C1995 1.287 . S
C1996 C1997 1.524 . S
C1996 H2015 0.913 . S
C1997 H1973 0.950 . S
C1997 C1996 1.524 . S
C1997 C1998 1.415 . S
C1998 H1974 0.950 . S
C1998 C1993 1.289 1_554 S
C1998 C1997 1.415 . S
C1999 H1975 0.951 . S
C1999 C2000 1.366 . S
C1999 C2001 1.388 . S
C2000 C1999 1.366 . S
C2000 C2004 1.385 . S
C2001 H1976 0.951 . S
C2001 C1999 1.388 . S
C2001 C2002 1.366 . S
C2002 C2001 1.366 . S
C2002 C2003 1.414 . S
C2002 C2005 1.499 . S
C2003 H1977 0.950 . S
C2003 C2002 1.414 . S
C2003 C2004 1.374 . S
C2004 H1978 0.950 . S
C2004 C2000 1.385 . S
C2004 C2003 1.374 . S
C2005 C2002 1.499 . S
C2005 C2006 1.373 . S
C2005 C2007 1.389 . S
C2006 H1979 0.950 . S
C2006 C1992 1.377 1_655 S
C2006 C2005 1.373 . S
C2007 C1991 1.377 1_655 S
C2007 C2005 1.389 . S
C2007 C2008 1.524 . S
C2008 C2007 1.524 . S
C2008 C2009 1.397 . S
C2008 C2013 1.363 . S
C2009 H1980 0.950 . S
C2009 C2008 1.397 . S
C2009 C2010 1.334 . S
C2010 H1981 0.950 . S
C2010 C2009 1.334 . S
C2010 C2011 1.287 . S
C2011 C2010 1.287 . S
C2011 C2012 1.524 . S
C2011 H2014 0.999 . S
C2012 H1982 0.950 . S
C2012 C2011 1.524 . S
C2012 C2013 1.415 . S
C2013 H1983 0.950 . S
C2013 C2008 1.363 . S
C2013 C2012 1.415 . S
H2014 C2011 0.999 . S
H2015 C1996 0.913 . S
H2016 C2034 0.951 . S
H2017 C2036 0.951 . S
H2018 C2038 0.950 . S
H2019 C2039 0.950 . S
H2020 C2041 0.950 . S
H2021 C2044 0.950 . S
H2022 C2045 0.950 . S
H2023 C2047 0.950 . S
H2024 C2048 0.950 . S
H2025 C2049 0.951 . S
H2026 C2051 0.951 . S
H2027 C2053 0.950 . S
H2028 C2054 0.950 . S
H2029 C2056 0.950 . S
H2030 C2059 0.950 . S
H2031 C2060 0.950 . S
H2032 C2062 0.950 . S
H2033 C2063 0.950 . S
C2034 H2016 0.951 . S
C2034 C2035 1.366 . S
C2034 C2036 1.388 . S
C2035 C2034 1.366 . S
C2035 C2039 1.385 . S
C2036 H2017 0.951 . S
C2036 C2034 1.388 . S
C2036 C2037 1.366 . S
C2037 C2036 1.366 . S
C2037 C2038 1.414 . S
C2037 C2040 1.499 . S
C2038 H2018 0.950 . S
C2038 C2037 1.414 . S
C2038 C2039 1.374 . S
C2039 H2019 0.950 . S
C2039 C2035 1.385 . S
C2039 C2038 1.374 . S
C2040 C2037 1.499 . S
C2040 C2041 1.373 . S
C2040 C2042 1.389 1_556 S
C2041 H2020 0.950 . S
C2041 C2040 1.373 . S
C2041 C2057 1.377 . S
C2042 C2040 1.389 1_554 S
C2042 C2043 1.524 . S
C2042 C2056 1.377 . S
C2043 C2042 1.524 . S
C2043 C2044 1.397 . S
C2043 C2048 1.363 . S
C2044 H2021 0.950 . S
C2044 C2043 1.397 . S
C2044 C2045 1.334 . S
C2045 H2022 0.950 . S
C2045 C2044 1.334 . S
C2045 C2046 1.287 . S
C2046 C2045 1.287 . S
C2046 C2047 1.524 . S
C2046 H2065 0.913 . S
C2047 H2023 0.950 . S
C2047 C2046 1.524 . S
C2047 C2048 1.415 . S
C2048 H2024 0.950 . S
C2048 C2043 1.363 . S
C2048 C2047 1.415 . S
C2049 H2025 0.951 . S
C2049 C2050 1.366 . S
C2049 C2051 1.388 . S
C2050 C2049 1.366 . S
C2050 C2054 1.385 . S
C2051 H2026 0.951 . S
C2051 C2049 1.388 . S
C2051 C2052 1.366 . S
C2052 C2051 1.366 . S
C2052 C2053 1.414 . S
C2052 C2055 1.499 . S
C2053 H2027 0.950 . S
C2053 C2052 1.414 . S
C2053 C2054 1.374 . S
C2054 H2028 0.950 . S
C2054 C2050 1.385 . S
C2054 C2053 1.374 . S
C2055 C2052 1.499 . S
C2055 C2056 1.373 . S
C2055 C2057 1.389 1_554 S
C2056 H2029 0.950 . S
C2056 C2042 1.377 . S
C2056 C2055 1.373 . S
C2057 C2041 1.377 . S
C2057 C2055 1.389 1_556 S
C2057 C2058 1.524 . S
C2058 C2057 1.524 . S
C2058 C2059 1.397 . S
C2058 C2063 1.363 . S
C2059 H2030 0.950 . S
C2059 C2058 1.397 . S
C2059 C2060 1.334 . S
C2060 H2031 0.950 . S
C2060 C2059 1.334 . S
C2060 C2061 1.287 . S
C2061 C2060 1.287 . S
C2061 C2062 1.524 . S
C2061 H2064 0.999 . S
C2062 H2032 0.950 . S
C2062 C2061 1.524 . S
C2062 C2063 1.415 . S
C2063 H2033 0.950 . S
C2063 C2058 1.363 . S
C2063 C2062 1.415 . S
H2064 C2061 0.999 . S
H2065 C2046 0.913 . S
H2066 C2084 0.951 . S
H2067 C2086 0.951 . S
H2068 C2088 0.950 . S
H2069 C2089 0.950 . S
H2070 C2091 0.950 . S
H2071 C2094 0.950 . S
H2072 C2095 0.950 . S
H2073 C2097 0.950 . S
H2074 C2098 0.950 . S
H2075 C2099 0.951 . S
H2076 C2101 0.951 . S
H2077 C2103 0.950 . S
H2078 C2104 0.950 . S
H2079 C2106 0.950 . S
H2080 C2109 0.950 . S
H2081 C2110 0.950 . S
H2082 C2112 0.950 . S
H2083 C2113 0.950 . S
C2084 H2066 0.951 . S
C2084 C2085 1.366 . S
C2084 C2086 1.388 . S
C2085 C2084 1.366 . S
C2085 C2089 1.385 . S
C2086 H2067 0.951 . S
C2086 C2084 1.388 . S
C2086 C2087 1.366 . S
C2087 C2086 1.366 . S
C2087 C2088 1.414 . S
C2087 C2090 1.499 . S
C2088 H2068 0.950 . S
C2088 C2087 1.414 . S
C2088 C2089 1.374 . S
C2089 H2069 0.950 . S
C2089 C2085 1.385 . S
C2089 C2088 1.374 . S
C2090 C2087 1.499 . S
C2090 C2091 1.373 . S
C2090 C2092 1.389 . S
C2091 H2070 0.950 . S
C2091 C2090 1.373 . S
C2091 C2107 1.377 . S
C2092 C2090 1.389 . S
C2092 C2093 1.524 . S
C2092 C2106 1.377 . S
C2093 C2092 1.524 . S
C2093 C2094 1.397 . S
C2093 C2098 1.363 . S
C2094 H2071 0.950 . S
C2094 C2093 1.397 . S
C2094 C2095 1.334 . S
C2095 H2072 0.950 . S
C2095 C2094 1.334 . S
C2095 C2096 1.287 . S
C2096 C2095 1.287 . S
C2096 C2097 1.524 . S
C2096 H2115 0.913 . S
C2097 H2073 0.950 . S
C2097 C2096 1.524 . S
C2097 C2098 1.415 . S
C2098 H2074 0.950 . S
C2098 C2093 1.363 . S
C2098 C2097 1.415 . S
C2099 H2075 0.951 . S
C2099 C2100 1.366 . S
C2099 C2101 1.388 . S
C2100 C2099 1.366 . S
C2100 C2104 1.385 . S
C2101 H2076 0.951 . S
C2101 C2099 1.388 . S
C2101 C2102 1.366 . S
C2102 C2101 1.366 . S
C2102 C2103 1.414 . S
C2102 C2105 1.499 . S
C2103 H2077 0.950 . S
C2103 C2102 1.414 . S
C2103 C2104 1.374 . S
C2104 H2078 0.950 . S
C2104 C2100 1.385 . S
C2104 C2103 1.374 . S
C2105 C2102 1.499 . S
C2105 C2106 1.373 . S
C2105 C2107 1.389 . S
C2106 H2079 0.950 . S
C2106 C2092 1.377 . S
C2106 C2105 1.373 . S
C2107 C2091 1.377 . S
C2107 C2105 1.389 . S
C2107 C2108 1.524 . S
C2108 C2107 1.524 . S
C2108 C2109 1.397 . S
C2108 C2113 1.363 . S
C2109 H2080 0.950 . S
C2109 C2108 1.397 . S
C2109 C2110 1.334 . S
C2110 H2081 0.950 . S
C2110 C2109 1.334 . S
C2110 C2111 1.287 . S
C2111 C2110 1.287 . S
C2111 C2112 1.524 . S
C2111 H2114 0.999 . S
C2112 H2082 0.950 . S
C2112 C2111 1.524 . S
C2112 C2113 1.415 . S
C2113 H2083 0.950 . S
C2113 C2108 1.363 . S
C2113 C2112 1.415 . S
H2114 C2111 0.999 . S
H2115 C2096 0.913 . S
H2116 C2134 0.951 . S
H2117 C2136 0.951 . S
H2118 C2138 0.950 . S
H2119 C2139 0.950 . S
H2120 C2141 0.950 . S
H2121 C2144 0.950 . S
H2122 C2145 0.950 . S
H2123 C2147 0.950 . S
H2124 C2148 0.950 . S
H2125 C2149 0.951 . S
H2126 C2151 0.951 . S
H2127 C2153 0.950 . S
H2128 C2154 0.950 . S
H2129 C2156 0.950 . S
H2130 C2159 0.950 . S
H2131 C2160 0.950 . S
H2132 C2162 0.950 . S
H2133 C2163 0.950 . S
C2134 H2116 0.951 . S
C2134 C2135 1.366 . S
C2134 C2136 1.388 . S
C2135 C2134 1.366 . S
C2135 C2139 1.385 . S
C2136 H2117 0.951 . S
C2136 C2134 1.388 . S
C2136 C2137 1.366 . S
C2137 C2136 1.366 . S
C2137 C2138 1.414 . S
C2137 C2140 1.499 . S
C2138 H2118 0.950 . S
C2138 C2137 1.414 . S
C2138 C2139 1.374 . S
C2139 H2119 0.950 . S
C2139 C2135 1.385 . S
C2139 C2138 1.374 . S
C2140 C2137 1.499 . S
C2140 C2141 1.373 . S
C2140 C2142 1.389 . S
C2141 H2120 0.950 . S
C2141 C2140 1.373 . S
C2141 C2157 1.377 . S
C2142 C2140 1.389 . S
C2142 C2143 1.524 . S
C2142 C2156 1.377 . S
C2143 C2142 1.524 . S
C2143 C2144 1.397 . S
C2143 C2148 1.363 . S
C2144 H2121 0.950 . S
C2144 C2143 1.397 . S
C2144 C2145 1.334 . S
C2145 H2122 0.950 . S
C2145 C2144 1.334 . S
C2145 C2146 1.287 . S
C2146 C2145 1.287 . S
C2146 C2147 1.524 . S
C2146 H2165 0.913 . S
C2147 H2123 0.950 . S
C2147 C2146 1.524 . S
C2147 C2148 1.415 . S
C2148 H2124 0.950 . S
C2148 C2143 1.363 . S
C2148 C2147 1.415 . S
C2149 H2125 0.951 . S
C2149 C2150 1.366 . S
C2149 C2151 1.388 . S
C2150 C2149 1.366 . S
C2150 C2154 1.385 . S
C2151 H2126 0.951 . S
C2151 C2149 1.388 . S
C2151 C2152 1.366 . S
C2152 C2151 1.366 . S
C2152 C2153 1.414 . S
C2152 C2155 1.499 . S
C2153 H2127 0.950 . S
C2153 C2152 1.414 . S
C2153 C2154 1.374 . S
C2154 H2128 0.950 . S
C2154 C2150 1.385 . S
C2154 C2153 1.374 . S
C2155 C2152 1.499 . S
C2155 C2156 1.373 . S
C2155 C2157 1.389 . S
C2156 H2129 0.950 . S
C2156 C2142 1.377 . S
C2156 C2155 1.373 . S
C2157 C2141 1.377 . S
C2157 C2155 1.389 . S
C2157 C2158 1.524 . S
C2158 C2157 1.524 . S
C2158 C2159 1.397 . S
C2158 C2163 1.363 . S
C2159 H2130 0.950 . S
C2159 C2158 1.397 . S
C2159 C2160 1.334 . S
C2160 H2131 0.950 . S
C2160 C2159 1.334 . S
C2160 C2161 1.287 . S
C2161 C2160 1.287 . S
C2161 C2162 1.524 . S
C2161 H2164 0.999 . S
C2162 H2132 0.950 . S
C2162 C2161 1.524 . S
C2162 C2163 1.415 . S
C2163 H2133 0.950 . S
C2163 C2158 1.363 . S
C2163 C2162 1.415 . S
H2164 C2161 0.999 . S
H2165 C2146 0.913 . S
H2166 C2184 0.951 . S
H2167 C2186 0.951 . S
H2168 C2188 0.950 . S
H2169 C2189 0.950 . S
H2170 C2191 0.950 . S
H2171 C2194 0.950 . S
H2172 C2195 0.950 . S
H2173 C2197 0.950 . S
H2174 C2198 0.950 . S
H2175 C2199 0.951 . S
H2176 C2201 0.951 . S
H2177 C2203 0.950 . S
H2178 C2204 0.950 . S
H2179 C2206 0.950 . S
H2180 C2209 0.950 . S
H2181 C2210 0.950 . S
H2182 C2212 0.950 . S
H2183 C2213 0.950 . S
C2184 H2166 0.951 . S
C2184 C2185 1.366 . S
C2184 C2186 1.388 . S
C2185 C2184 1.366 . S
C2185 C2189 1.385 . S
C2186 H2167 0.951 . S
C2186 C2184 1.388 . S
C2186 C2187 1.366 . S
C2187 C2186 1.366 . S
C2187 C2188 1.414 . S
C2187 C2190 1.499 . S
C2188 H2168 0.950 . S
C2188 C2187 1.414 . S
C2188 C2189 1.374 . S
C2189 H2169 0.950 . S
C2189 C2185 1.385 . S
C2189 C2188 1.374 . S
C2190 C2187 1.499 . S
C2190 C2191 1.373 . S
C2190 C2192 1.389 . S
C2191 H2170 0.950 . S
C2191 C2190 1.373 . S
C2191 C2207 1.377 . S
C2192 C2190 1.389 . S
C2192 C2193 1.524 . S
C2192 C2206 1.377 . S
C2193 C2192 1.524 . S
C2193 C2194 1.397 . S
C2193 C2198 1.363 . S
C2194 H2171 0.950 . S
C2194 C2193 1.397 . S
C2194 C2195 1.334 . S
C2195 H2172 0.950 . S
C2195 C2194 1.334 . S
C2195 C2196 1.287 . S
C2196 C2195 1.287 . S
C2196 C2197 1.524 . S
C2196 H2215 0.913 . S
C2197 H2173 0.950 . S
C2197 C2196 1.524 . S
C2197 C2198 1.415 . S
C2198 H2174 0.950 . S
C2198 C2193 1.363 . S
C2198 C2197 1.415 . S
C2199 H2175 0.951 . S
C2199 C2200 1.366 . S
C2199 C2201 1.388 . S
C2200 C2199 1.366 . S
C2200 C2204 1.385 . S
C2201 H2176 0.951 . S
C2201 C2199 1.388 . S
C2201 C2202 1.366 . S
C2202 C2201 1.366 . S
C2202 C2203 1.414 . S
C2202 C2205 1.499 . S
C2203 H2177 0.950 . S
C2203 C2202 1.414 . S
C2203 C2204 1.374 . S
C2204 H2178 0.950 . S
C2204 C2200 1.385 . S
C2204 C2203 1.374 . S
C2205 C2202 1.499 . S
C2205 C2206 1.373 . S
C2205 C2207 1.389 . S
C2206 H2179 0.950 . S
C2206 C2192 1.377 . S
C2206 C2205 1.373 . S
C2207 C2191 1.377 . S
C2207 C2205 1.389 . S
C2207 C2208 1.524 . S
C2208 C2207 1.524 . S
C2208 C2209 1.397 . S
C2208 C2213 1.363 . S
C2209 H2180 0.950 . S
C2209 C2208 1.397 . S
C2209 C2210 1.334 . S
C2210 H2181 0.950 . S
C2210 C2209 1.334 . S
C2210 C2211 1.287 . S
C2211 C2210 1.287 . S
C2211 C2212 1.524 . S
C2211 H2214 0.999 . S
C2212 H2182 0.950 . S
C2212 C2211 1.524 . S
C2212 C2213 1.415 . S
C2213 H2183 0.950 . S
C2213 C2208 1.363 . S
C2213 C2212 1.415 . S
H2214 C2211 0.999 . S
H2215 C2196 0.913 . S
H2216 C2234 0.951 . S
H2217 C2236 0.951 . S
H2218 C2238 0.916 1_556 S
H2219 C2239 0.892 1_556 S
H2220 C2241 0.950 . S
H2221 C2244 0.950 . S
H2222 C2245 0.950 . S
H2223 C2247 0.950 . S
H2224 C2248 0.950 . S
H2225 C2249 0.951 . S
H2226 C2251 0.951 . S
H2227 C2253 0.916 1_554 S
H2228 C2254 0.892 1_554 S
H2229 C2256 0.950 . S
H2230 C2259 0.950 . S
H2231 C2260 0.950 . S
H2232 C2262 0.950 . S
H2233 C2263 0.950 . S
C2234 H2216 0.951 . S
C2234 C2235 1.366 . S
C2234 C2236 1.388 . S
C2235 C2234 1.366 . S
C2235 C2239 1.385 . S
C2236 H2217 0.951 . S
C2236 C2234 1.388 . S
C2236 C2237 1.366 . S
C2237 C2236 1.366 . S
C2237 C2238 1.437 . S
C2237 C2240 1.499 . S
C2238 H2218 0.916 1_554 S
C2238 C2237 1.437 . S
C2238 C2239 1.386 . S
C2239 H2219 0.892 1_554 S
C2239 C2235 1.385 . S
C2239 C2238 1.386 . S
C2240 C2237 1.499 . S
C2240 C2241 1.373 1_554 S
C2240 C2242 1.389 . S
C2241 H2220 0.950 . S
C2241 C2240 1.373 1_556 S
C2241 C2257 1.377 . S
C2242 C2240 1.389 . S
C2242 C2243 1.524 . S
C2242 C2256 1.377 . S
C2243 C2242 1.524 . S
C2243 C2244 1.397 . S
C2243 C2248 1.363 . S
C2244 H2221 0.950 . S
C2244 C2243 1.397 . S
C2244 C2245 1.334 . S
C2245 H2222 0.950 . S
C2245 C2244 1.334 . S
C2245 C2246 1.287 . S
C2246 C2245 1.287 . S
C2246 C2247 1.524 . S
C2246 H2265 0.913 . S
C2247 H2223 0.950 . S
C2247 C2246 1.524 . S
C2247 C2248 1.415 . S
C2248 H2224 0.950 . S
C2248 C2243 1.363 . S
C2248 C2247 1.415 . S
C2249 H2225 0.951 . S
C2249 C2250 1.366 . S
C2249 C2251 1.388 . S
C2250 C2249 1.366 . S
C2250 C2254 1.385 . S
C2251 H2226 0.951 . S
C2251 C2249 1.388 . S
C2251 C2252 1.366 . S
C2252 C2251 1.366 . S
C2252 C2253 1.437 . S
C2252 C2255 1.499 . S
C2253 H2227 0.916 1_556 S
C2253 C2252 1.437 . S
C2253 C2254 1.386 . S
C2254 H2228 0.892 1_556 S
C2254 C2250 1.385 . S
C2254 C2253 1.386 . S
C2255 C2252 1.499 . S
C2255 C2256 1.373 1_556 S
C2255 C2257 1.389 . S
C2256 H2229 0.950 . S
C2256 C2242 1.377 . S
C2256 C2255 1.373 1_554 S
C2257 C2241 1.377 . S
C2257 C2255 1.389 . S
C2257 C2258 1.524 . S
C2258 C2257 1.524 . S
C2258 C2259 1.397 . S
C2258 C2263 1.363 . S
C2259 H2230 0.950 . S
C2259 C2258 1.397 . S
C2259 C2260 1.334 . S
C2260 H2231 0.950 . S
C2260 C2259 1.334 . S
C2260 C2261 1.287 . S
C2261 C2260 1.287 . S
C2261 C2262 1.524 . S
C2261 H2264 0.999 . S
C2262 H2232 0.950 . S
C2262 C2261 1.524 . S
C2262 C2263 1.415 . S
C2263 H2233 0.950 . S
C2263 C2258 1.363 . S
C2263 C2262 1.415 . S
H2264 C2261 0.999 . S
H2265 C2246 0.913 . S
H2266 C2284 0.951 . S
H2267 C2286 0.951 . S
H2268 C2288 0.950 . S
H2269 C2289 0.950 . S
H2270 C2291 0.950 . S
H2271 C2294 0.950 . S
H2272 C2295 0.950 . S
H2273 C2297 0.950 . S
H2274 C2298 0.950 . S
H2275 C2299 0.951 . S
H2276 C2301 0.951 . S
H2277 C2303 0.950 . S
H2278 C2304 0.950 . S
H2279 C2306 0.950 . S
H2280 C2309 0.950 . S
H2281 C2310 0.950 . S
H2282 C2312 0.950 . S
H2283 C2313 0.950 . S
C2284 H2266 0.951 . S
C2284 C2285 1.366 . S
C2284 C2286 1.388 . S
C2285 C2284 1.366 . S
C2285 C2289 1.385 . S
C2286 H2267 0.951 . S
C2286 C2284 1.388 . S
C2286 C2287 1.366 . S
C2287 C2286 1.366 . S
C2287 C2288 1.414 . S
C2287 C2290 1.499 . S
C2288 H2268 0.950 . S
C2288 C2287 1.414 . S
C2288 C2289 1.374 . S
C2289 H2269 0.950 . S
C2289 C2285 1.385 . S
C2289 C2288 1.374 . S
C2290 C2287 1.499 . S
C2290 C2291 1.373 . S
C2290 C2292 1.389 . S
C2291 H2270 0.950 . S
C2291 C2290 1.373 . S
C2291 C2307 1.377 . S
C2292 C2290 1.389 . S
C2292 C2293 1.524 . S
C2292 C2306 1.377 . S
C2293 C2292 1.524 . S
C2293 C2294 1.397 . S
C2293 C2298 1.363 . S
C2294 H2271 0.950 . S
C2294 C2293 1.397 . S
C2294 C2295 1.334 . S
C2295 H2272 0.950 . S
C2295 C2294 1.334 . S
C2295 C2296 1.287 . S
C2296 C2295 1.287 . S
C2296 C2297 1.524 . S
C2296 H2315 0.913 . S
C2297 H2273 0.950 . S
C2297 C2296 1.524 . S
C2297 C2298 1.415 . S
C2298 H2274 0.950 . S
C2298 C2293 1.363 . S
C2298 C2297 1.415 . S
C2299 H2275 0.951 . S
C2299 C2300 1.366 . S
C2299 C2301 1.388 . S
C2300 C2299 1.366 . S
C2300 C2304 1.385 . S
C2301 H2276 0.951 . S
C2301 C2299 1.388 . S
C2301 C2302 1.366 . S
C2302 C2301 1.366 . S
C2302 C2303 1.414 . S
C2302 C2305 1.499 . S
C2303 H2277 0.950 . S
C2303 C2302 1.414 . S
C2303 C2304 1.374 . S
C2304 H2278 0.950 . S
C2304 C2300 1.385 . S
C2304 C2303 1.374 . S
C2305 C2302 1.499 . S
C2305 C2306 1.373 . S
C2305 C2307 1.389 . S
C2306 H2279 0.950 . S
C2306 C2292 1.377 . S
C2306 C2305 1.373 . S
C2307 C2291 1.377 . S
C2307 C2305 1.389 . S
C2307 C2308 1.524 . S
C2308 C2307 1.524 . S
C2308 C2309 1.397 . S
C2308 C2313 1.363 . S
C2309 H2280 0.950 . S
C2309 C2308 1.397 . S
C2309 C2310 1.334 . S
C2310 H2281 0.950 . S
C2310 C2309 1.334 . S
C2310 C2311 1.287 . S
C2311 C2310 1.287 . S
C2311 C2312 1.524 . S
C2311 H2314 0.999 . S
C2312 H2282 0.950 . S
C2312 C2311 1.524 . S
C2312 C2313 1.415 . S
C2313 H2283 0.950 . S
C2313 C2308 1.363 . S
C2313 C2312 1.415 . S
H2314 C2311 0.999 . S
H2315 C2296 0.913 . S
H2316 C2334 0.951 . S
H2317 C2336 0.951 . S
H2318 C2338 0.950 . S
H2319 C2339 0.950 . S
H2320 C2341 0.950 . S
H2321 C2344 0.950 . S
H2322 C2345 0.950 . S
H2323 C2347 0.950 . S
H2324 C2348 0.950 . S
H2325 C2349 0.951 . S
H2326 C2351 0.951 . S
H2327 C2353 0.950 . S
H2328 C2354 0.950 . S
H2329 C2356 0.950 . S
H2330 C2359 0.950 . S
H2331 C2360 0.950 . S
H2332 C2362 0.950 . S
H2333 C2363 0.950 . S
C2334 H2316 0.951 . S
C2334 C2335 1.366 . S
C2334 C2336 1.388 . S
C2335 C2334 1.366 . S
C2335 C2339 1.385 . S
C2336 H2317 0.951 . S
C2336 C2334 1.388 . S
C2336 C2337 1.366 . S
C2337 C2336 1.366 . S
C2337 C2338 1.414 . S
C2337 C2340 1.499 . S
C2338 H2318 0.950 . S
C2338 C2337 1.414 . S
C2338 C2339 1.374 . S
C2339 H2319 0.950 . S
C2339 C2335 1.385 . S
C2339 C2338 1.374 . S
C2340 C2337 1.499 . S
C2340 C2341 1.373 . S
C2340 C2342 1.389 . S
C2341 H2320 0.950 . S
C2341 C2340 1.373 . S
C2341 C2357 1.377 . S
C2342 C2340 1.389 . S
C2342 C2343 1.524 . S
C2342 C2356 1.377 . S
C2343 C2342 1.524 . S
C2343 C2344 1.397 . S
C2343 C2348 1.363 . S
C2344 H2321 0.950 . S
C2344 C2343 1.397 . S
C2344 C2345 1.334 . S
C2345 H2322 0.950 . S
C2345 C2344 1.334 . S
C2345 C2346 1.287 . S
C2346 C2345 1.287 . S
C2346 C2347 1.524 . S
C2346 H2365 0.913 . S
C2347 H2323 0.950 . S
C2347 C2346 1.524 . S
C2347 C2348 1.415 . S
C2348 H2324 0.950 . S
C2348 C2343 1.363 . S
C2348 C2347 1.415 . S
C2349 H2325 0.951 . S
C2349 C2350 1.366 . S
C2349 C2351 1.388 . S
C2350 C2349 1.366 . S
C2350 C2354 1.385 . S
C2351 H2326 0.951 . S
C2351 C2349 1.388 . S
C2351 C2352 1.366 . S
C2352 C2351 1.366 . S
C2352 C2353 1.414 . S
C2352 C2355 1.499 . S
C2353 H2327 0.950 . S
C2353 C2352 1.414 . S
C2353 C2354 1.374 . S
C2354 H2328 0.950 . S
C2354 C2350 1.385 . S
C2354 C2353 1.374 . S
C2355 C2352 1.499 . S
C2355 C2356 1.373 . S
C2355 C2357 1.389 . S
C2356 H2329 0.950 . S
C2356 C2342 1.377 . S
C2356 C2355 1.373 . S
C2357 C2341 1.377 . S
C2357 C2355 1.389 . S
C2357 C2358 1.524 . S
C2358 C2357 1.524 . S
C2358 C2359 1.397 . S
C2358 C2363 1.363 . S
C2359 H2330 0.950 . S
C2359 C2358 1.397 . S
C2359 C2360 1.334 . S
C2360 H2331 0.950 . S
C2360 C2359 1.334 . S
C2360 C2361 1.287 . S
C2361 C2360 1.287 . S
C2361 C2362 1.524 . S
C2361 H2364 0.999 . S
C2362 H2332 0.950 . S
C2362 C2361 1.524 . S
C2362 C2363 1.415 . S
C2363 H2333 0.950 . S
C2363 C2358 1.363 . S
C2363 C2362 1.415 . S
H2364 C2361 0.999 . S
H2365 C2346 0.913 . S
H2366 C2384 0.951 . S
H2367 C2386 0.951 . S
H2368 C2388 0.950 . S
H2369 C2389 0.950 . S
H2370 C2391 0.950 . S
H2371 C2394 0.950 . S
H2372 C2395 0.950 . S
H2373 C2397 0.950 . S
H2374 C2398 0.950 . S
H2375 C2399 0.951 . S
H2376 C2401 0.951 . S
H2377 C2403 0.950 . S
H2378 C2404 0.950 . S
H2379 C2406 0.950 . S
H2380 C2409 0.950 . S
H2381 C2410 0.950 . S
H2382 C2412 0.950 . S
H2383 C2413 0.950 . S
C2384 H2366 0.951 . S
C2384 C2385 1.366 . S
C2384 C2386 1.388 . S
C2385 C2384 1.366 . S
C2385 C2389 1.385 . S
C2386 H2367 0.951 . S
C2386 C2384 1.388 . S
C2386 C2387 1.366 . S
C2387 C2386 1.366 . S
C2387 C2388 1.414 . S
C2387 C2390 1.499 . S
C2388 H2368 0.950 . S
C2388 C2387 1.414 . S
C2388 C2389 1.374 . S
C2389 H2369 0.950 . S
C2389 C2385 1.385 . S
C2389 C2388 1.374 . S
C2390 C2387 1.499 . S
C2390 C2391 1.373 . S
C2390 C2392 1.389 . S
C2391 H2370 0.950 . S
C2391 C2390 1.373 . S
C2391 C2407 1.377 . S
C2392 C2390 1.389 . S
C2392 C2393 1.524 . S
C2392 C2406 1.377 . S
C2393 C2392 1.524 . S
C2393 C2394 1.397 . S
C2393 C2398 1.363 . S
C2394 H2371 0.950 . S
C2394 C2393 1.397 . S
C2394 C2395 1.334 . S
C2395 H2372 0.950 . S
C2395 C2394 1.334 . S
C2395 C2396 1.287 . S
C2396 C2395 1.287 . S
C2396 C2397 1.524 . S
C2396 H2415 0.913 . S
C2397 H2373 0.950 . S
C2397 C2396 1.524 . S
C2397 C2398 1.415 . S
C2398 H2374 0.950 . S
C2398 C2393 1.363 . S
C2398 C2397 1.415 . S
C2399 H2375 0.951 . S
C2399 C2400 1.366 . S
C2399 C2401 1.388 . S
C2400 C2399 1.366 . S
C2400 C2404 1.385 . S
C2401 H2376 0.951 . S
C2401 C2399 1.388 . S
C2401 C2402 1.366 . S
C2402 C2401 1.366 . S
C2402 C2403 1.414 . S
C2402 C2405 1.499 . S
C2403 H2377 0.950 . S
C2403 C2402 1.414 . S
C2403 C2404 1.374 . S
C2404 H2378 0.950 . S
C2404 C2400 1.385 . S
C2404 C2403 1.374 . S
C2405 C2402 1.499 . S
C2405 C2406 1.373 . S
C2405 C2407 1.389 . S
C2406 H2379 0.950 . S
C2406 C2392 1.377 . S
C2406 C2405 1.373 . S
C2407 C2391 1.377 . S
C2407 C2405 1.389 . S
C2407 C2408 1.524 . S
C2408 C2407 1.524 . S
C2408 C2409 1.397 . S
C2408 C2413 1.363 . S
C2409 H2380 0.950 . S
C2409 C2408 1.397 . S
C2409 C2410 1.334 . S
C2410 H2381 0.950 . S
C2410 C2409 1.334 . S
C2410 C2411 1.287 . S
C2411 C2410 1.287 . S
C2411 C2412 1.524 . S
C2411 H2414 0.999 . S
C2412 H2382 0.950 . S
C2412 C2411 1.524 . S
C2412 C2413 1.415 . S
C2413 H2383 0.950 . S
C2413 C2408 1.363 . S
C2413 C2412 1.415 . S
H2414 C2411 0.999 . S
H2415 C2396 0.913 . S
H2416 C2434 0.951 . S
H2417 C2436 0.951 . S
H2418 C2438 0.950 . S
H2419 C2439 0.950 . S
H2420 C2441 0.950 . S
H2421 C2444 0.950 . S
H2422 C2445 0.950 . S
H2423 C2447 0.950 . S
H2424 C2448 0.950 . S
H2425 C2449 0.951 . S
H2426 C2451 0.951 . S
H2427 C2453 0.950 . S
H2428 C2454 0.950 . S
H2429 C2456 0.950 . S
H2430 C2459 0.950 . S
H2431 C2460 0.950 . S
H2432 C2462 0.950 . S
H2433 C2463 0.950 . S
C2434 H2416 0.951 . S
C2434 C2435 1.366 . S
C2434 C2436 1.388 . S
C2435 C2434 1.366 . S
C2435 C2439 1.385 . S
C2436 H2417 0.951 . S
C2436 C2434 1.388 . S
C2436 C2437 1.366 . S
C2437 C2436 1.366 . S
C2437 C2438 1.414 . S
C2437 C2440 1.499 . S
C2438 H2418 0.950 . S
C2438 C2437 1.414 . S
C2438 C2439 1.374 . S
C2439 H2419 0.950 . S
C2439 C2435 1.385 . S
C2439 C2438 1.374 . S
C2440 C2437 1.499 . S
C2440 C2441 1.373 . S
C2440 C2442 1.389 . S
C2441 H2420 0.950 . S
C2441 C2440 1.373 . S
C2441 C2457 1.377 1_545 S
C2442 C2440 1.389 . S
C2442 C2443 1.524 . S
C2442 C2456 1.377 1_545 S
C2443 C2442 1.524 . S
C2443 C2444 1.397 . S
C2443 C2448 1.363 . S
C2444 H2421 0.950 . S
C2444 C2443 1.397 . S
C2444 C2445 1.334 . S
C2445 H2422 0.950 . S
C2445 C2444 1.334 . S
C2445 C2446 1.287 . S
C2446 C2445 1.287 . S
C2446 C2447 1.524 . S
C2446 H2465 0.913 . S
C2447 H2423 0.950 . S
C2447 C2446 1.524 . S
C2447 C2448 1.415 . S
C2448 H2424 0.950 . S
C2448 C2443 1.363 . S
C2448 C2447 1.415 . S
C2449 H2425 0.951 . S
C2449 C2450 1.366 . S
C2449 C2451 1.388 . S
C2450 C2449 1.366 . S
C2450 C2454 1.385 . S
C2451 H2426 0.951 . S
C2451 C2449 1.388 . S
C2451 C2452 1.366 . S
C2452 C2451 1.366 . S
C2452 C2453 1.414 . S
C2452 C2455 1.499 . S
C2453 H2427 0.950 . S
C2453 C2452 1.414 . S
C2453 C2454 1.374 . S
C2454 H2428 0.950 . S
C2454 C2450 1.385 . S
C2454 C2453 1.374 . S
C2455 C2452 1.499 . S
C2455 C2456 1.373 . S
C2455 C2457 1.389 . S
C2456 H2429 0.950 . S
C2456 C2442 1.377 1_565 S
C2456 C2455 1.373 . S
C2457 C2441 1.377 1_565 S
C2457 C2455 1.389 . S
C2457 C2458 1.524 . S
C2458 C2457 1.524 . S
C2458 C2459 1.397 . S
C2458 C2463 1.363 . S
C2459 H2430 0.950 . S
C2459 C2458 1.397 . S
C2459 C2460 1.334 . S
C2460 H2431 0.950 . S
C2460 C2459 1.334 . S
C2460 C2461 1.287 . S
C2461 C2460 1.287 . S
C2461 C2462 1.524 . S
C2461 H2464 0.999 . S
C2462 H2432 0.950 . S
C2462 C2461 1.524 . S
C2462 C2463 1.415 . S
C2463 H2433 0.950 . S
C2463 C2458 1.363 . S
C2463 C2462 1.415 . S
H2464 C2461 0.999 . S
H2465 C2446 0.913 . S
H2466 C2484 0.951 . S
H2467 C2486 0.951 . S
H2468 C2488 0.950 . S
H2469 C2489 0.950 . S
H2470 C2491 0.950 . S
H2471 C2494 0.950 . S
H2472 C2495 0.950 . S
H2473 C2497 0.950 . S
H2474 C2498 0.950 . S
H2475 C2499 0.951 . S
H2476 C2501 0.951 . S
H2477 C2503 0.950 . S
H2478 C2504 0.950 . S
H2479 C2506 0.950 . S
H2480 C2509 0.950 . S
H2481 C2510 0.950 . S
H2482 C2512 0.950 . S
H2483 C2513 0.950 . S
C2484 H2466 0.951 . S
C2484 C2485 1.366 . S
C2484 C2486 1.388 . S
C2485 C2484 1.366 . S
C2485 C2489 1.385 . S
C2486 H2467 0.951 . S
C2486 C2484 1.388 . S
C2486 C2487 1.366 . S
C2487 C2486 1.366 . S
C2487 C2488 1.414 . S
C2487 C2490 1.499 . S
C2488 H2468 0.950 . S
C2488 C2487 1.414 . S
C2488 C2489 1.374 . S
C2489 H2469 0.950 . S
C2489 C2485 1.385 . S
C2489 C2488 1.374 . S
C2490 C2487 1.499 . S
C2490 C2491 1.373 . S
C2490 C2492 1.389 . S
C2491 H2470 0.950 . S
C2491 C2490 1.373 . S
C2491 C2507 1.377 . S
C2492 C2490 1.389 . S
C2492 C2493 1.524 . S
C2492 C2506 1.377 . S
C2493 C2492 1.524 . S
C2493 C2494 1.397 . S
C2493 C2498 1.363 . S
C2494 H2471 0.950 . S
C2494 C2493 1.397 . S
C2494 C2495 1.334 . S
C2495 H2472 0.950 . S
C2495 C2494 1.334 . S
C2495 C2496 1.287 . S
C2496 C2495 1.287 . S
C2496 C2497 1.524 . S
C2496 H2515 0.913 . S
C2497 H2473 0.950 . S
C2497 C2496 1.524 . S
C2497 C2498 1.415 . S
C2498 H2474 0.950 . S
C2498 C2493 1.363 . S
C2498 C2497 1.415 . S
C2499 H2475 0.951 . S
C2499 C2500 1.366 . S
C2499 C2501 1.388 . S
C2500 C2499 1.366 . S
C2500 C2504 1.385 . S
C2501 H2476 0.951 . S
C2501 C2499 1.388 . S
C2501 C2502 1.366 . S
C2502 C2501 1.366 . S
C2502 C2503 1.414 . S
C2502 C2505 1.499 . S
C2503 H2477 0.950 . S
C2503 C2502 1.414 . S
C2503 C2504 1.374 . S
C2504 H2478 0.950 . S
C2504 C2500 1.385 . S
C2504 C2503 1.374 . S
C2505 C2502 1.499 . S
C2505 C2506 1.373 . S
C2505 C2507 1.389 . S
C2506 H2479 0.950 . S
C2506 C2492 1.377 . S
C2506 C2505 1.373 . S
C2507 C2491 1.377 . S
C2507 C2505 1.389 . S
C2507 C2508 1.524 . S
C2508 C2507 1.524 . S
C2508 C2509 1.397 . S
C2508 C2513 1.363 . S
C2509 H2480 0.950 . S
C2509 C2508 1.397 . S
C2509 C2510 1.334 . S
C2510 H2481 0.950 . S
C2510 C2509 1.334 . S
C2510 C2511 1.287 . S
C2511 C2510 1.287 . S
C2511 C2512 1.524 . S
C2511 H2514 0.999 . S
C2512 H2482 0.950 . S
C2512 C2511 1.524 . S
C2512 C2513 1.415 . S
C2513 H2483 0.950 . S
C2513 C2508 1.363 . S
C2513 C2512 1.415 . S
H2514 C2511 0.999 . S
H2515 C2496 0.913 . S
H2516 C2534 0.951 . S
H2517 C2536 0.951 . S
H2518 C2538 0.950 . S
H2519 C2539 0.950 . S
H2520 C2541 0.950 . S
H2521 C2544 0.950 . S
H2522 C2545 0.950 . S
H2523 C2547 0.950 . S
H2524 C2548 0.950 . S
H2525 C2549 0.951 . S
H2526 C2551 0.951 . S
H2527 C2553 0.950 . S
H2528 C2554 0.950 . S
H2529 C2556 0.950 . S
H2530 C2559 0.950 . S
H2531 C2560 0.950 . S
H2532 C2562 0.950 . S
H2533 C2563 0.950 . S
C2534 H2516 0.951 . S
C2534 C2535 1.366 . S
C2534 C2536 1.388 . S
C2535 C2534 1.366 . S
C2535 C2539 1.385 . S
C2536 H2517 0.951 . S
C2536 C2534 1.388 . S
C2536 C2537 1.366 . S
C2537 C2536 1.366 . S
C2537 C2538 1.414 . S
C2537 C2540 1.499 . S
C2538 H2518 0.950 . S
C2538 C2537 1.414 . S
C2538 C2539 1.374 . S
C2539 H2519 0.950 . S
C2539 C2535 1.385 . S
C2539 C2538 1.374 . S
C2540 C2537 1.499 . S
C2540 C2541 1.373 . S
C2540 C2542 1.389 1_554 S
C2541 H2520 0.950 . S
C2541 C2540 1.373 . S
C2541 C2557 1.377 1_565 S
C2542 C2540 1.389 1_556 S
C2542 C2543 1.524 . S
C2542 C2556 1.377 1_565 S
C2543 C2542 1.524 . S
C2543 C2544 1.397 . S
C2543 C2548 1.363 . S
C2544 H2521 0.950 . S
C2544 C2543 1.397 . S
C2544 C2545 1.334 . S
C2545 H2522 0.950 . S
C2545 C2544 1.334 . S
C2545 C2546 1.287 . S
C2546 C2545 1.287 . S
C2546 C2547 1.524 . S
C2546 H2565 0.913 . S
C2547 H2523 0.950 . S
C2547 C2546 1.524 . S
C2547 C2548 1.415 . S
C2548 H2524 0.950 . S
C2548 C2543 1.363 . S
C2548 C2547 1.415 . S
C2549 H2525 0.951 . S
C2549 C2550 1.366 . S
C2549 C2551 1.388 . S
C2550 C2549 1.366 . S
C2550 C2554 1.385 . S
C2551 H2526 0.951 . S
C2551 C2549 1.388 . S
C2551 C2552 1.366 . S
C2552 C2551 1.366 . S
C2552 C2553 1.414 . S
C2552 C2555 1.499 . S
C2553 H2527 0.950 . S
C2553 C2552 1.414 . S
C2553 C2554 1.374 . S
C2554 H2528 0.950 . S
C2554 C2550 1.385 . S
C2554 C2553 1.374 . S
C2555 C2552 1.499 . S
C2555 C2556 1.373 . S
C2555 C2557 1.389 1_556 S
C2556 H2529 0.950 . S
C2556 C2542 1.377 1_545 S
C2556 C2555 1.373 . S
C2557 C2541 1.377 1_545 S
C2557 C2555 1.389 1_554 S
C2557 C2558 1.524 . S
C2558 C2557 1.524 . S
C2558 C2559 1.397 . S
C2558 C2563 1.363 . S
C2559 H2530 0.950 . S
C2559 C2558 1.397 . S
C2559 C2560 1.334 . S
C2560 H2531 0.950 . S
C2560 C2559 1.334 . S
C2560 C2561 1.287 . S
C2561 C2560 1.287 . S
C2561 C2562 1.524 . S
C2561 H2564 0.999 . S
C2562 H2532 0.950 . S
C2562 C2561 1.524 . S
C2562 C2563 1.415 . S
C2563 H2533 0.950 . S
C2563 C2558 1.363 . S
C2563 C2562 1.415 . S
H2564 C2561 0.999 . S
H2565 C2546 0.913 . S
H2566 C2584 0.951 . S
H2567 C2586 0.951 . S
H2568 C2588 0.950 . S
H2569 C2589 0.950 . S
H2570 C2591 0.950 . S
H2571 C2594 0.950 . S
H2572 C2595 0.950 . S
H2573 C2597 0.950 . S
H2574 C2598 0.950 . S
H2575 C2599 0.951 . S
H2576 C2601 0.951 . S
H2577 C2603 0.950 . S
H2578 C2604 0.950 . S
H2579 C2606 0.950 . S
H2580 C2609 0.950 . S
H2581 C2610 0.950 . S
H2582 C2612 0.950 . S
H2583 C2613 0.950 . S
C2584 H2566 0.951 . S
C2584 C2585 1.366 . S
C2584 C2586 1.388 . S
C2585 C2584 1.366 . S
C2585 C2589 1.385 . S
C2586 H2567 0.951 . S
C2586 C2584 1.388 . S
C2586 C2587 1.366 . S
C2587 C2586 1.366 . S
C2587 C2588 1.414 . S
C2587 C2590 1.499 . S
C2588 H2568 0.950 . S
C2588 C2587 1.414 . S
C2588 C2589 1.374 . S
C2589 H2569 0.950 . S
C2589 C2585 1.385 . S
C2589 C2588 1.374 . S
C2590 C2587 1.499 . S
C2590 C2591 1.373 . S
C2590 C2592 1.389 . S
C2591 H2570 0.950 . S
C2591 C2590 1.373 . S
C2591 C2607 1.377 . S
C2592 C2590 1.389 . S
C2592 C2593 1.524 . S
C2592 C2606 1.377 . S
C2593 C2592 1.524 . S
C2593 C2594 1.397 . S
C2593 C2598 1.363 . S
C2594 H2571 0.950 . S
C2594 C2593 1.397 . S
C2594 C2595 1.334 . S
C2595 H2572 0.950 . S
C2595 C2594 1.334 . S
C2595 C2596 1.287 . S
C2596 C2595 1.287 . S
C2596 C2597 1.524 . S
C2596 H2615 0.913 . S
C2597 H2573 0.950 . S
C2597 C2596 1.524 . S
C2597 C2598 1.415 . S
C2598 H2574 0.950 . S
C2598 C2593 1.363 . S
C2598 C2597 1.415 . S
C2599 H2575 0.951 . S
C2599 C2600 1.366 . S
C2599 C2601 1.388 . S
C2600 C2599 1.366 . S
C2600 C2604 1.385 . S
C2601 H2576 0.951 . S
C2601 C2599 1.388 . S
C2601 C2602 1.366 . S
C2602 C2601 1.366 . S
C2602 C2603 1.414 . S
C2602 C2605 1.499 . S
C2603 H2577 0.950 . S
C2603 C2602 1.414 . S
C2603 C2604 1.374 . S
C2604 H2578 0.950 . S
C2604 C2600 1.385 . S
C2604 C2603 1.374 . S
C2605 C2602 1.499 . S
C2605 C2606 1.373 . S
C2605 C2607 1.389 . S
C2606 H2579 0.950 . S
C2606 C2592 1.377 . S
C2606 C2605 1.373 . S
C2607 C2591 1.377 . S
C2607 C2605 1.389 . S
C2607 C2608 1.524 . S
C2608 C2607 1.524 . S
C2608 C2609 1.397 . S
C2608 C2613 1.363 . S
C2609 H2580 0.950 . S
C2609 C2608 1.397 . S
C2609 C2610 1.334 . S
C2610 H2581 0.950 . S
C2610 C2609 1.334 . S
C2610 C2611 1.287 . S
C2611 C2610 1.287 . S
C2611 C2612 1.524 . S
C2611 H2614 0.999 . S
C2612 H2582 0.950 . S
C2612 C2611 1.524 . S
C2612 C2613 1.415 . S
C2613 H2583 0.950 . S
C2613 C2608 1.363 . S
C2613 C2612 1.415 . S
H2614 C2611 0.999 . S
H2615 C2596 0.913 . S
H2616 C2634 0.951 . S
H2617 C2636 0.951 . S
H2618 C2638 0.950 . S
H2619 C2639 0.950 . S
H2620 C2641 0.950 . S
H2621 C2644 0.950 . S
H2622 C2645 0.950 . S
H2623 C2647 0.950 . S
H2624 C2648 0.950 . S
H2625 C2649 0.951 . S
H2626 C2651 0.951 . S
H2627 C2653 0.950 . S
H2628 C2654 0.950 . S
H2629 C2656 0.950 . S
H2630 C2659 0.950 . S
H2631 C2660 0.950 . S
H2632 C2662 0.950 . S
H2633 C2663 0.950 . S
C2634 H2616 0.951 . S
C2634 C2635 1.366 . S
C2634 C2636 1.388 . S
C2635 C2634 1.366 . S
C2635 C2639 1.385 . S
C2636 H2617 0.951 . S
C2636 C2634 1.388 . S
C2636 C2637 1.366 . S
C2637 C2636 1.366 . S
C2637 C2638 1.414 . S
C2637 C2640 1.499 . S
C2638 H2618 0.950 . S
C2638 C2637 1.414 . S
C2638 C2639 1.374 . S
C2639 H2619 0.950 . S
C2639 C2635 1.385 . S
C2639 C2638 1.374 . S
C2640 C2637 1.499 . S
C2640 C2641 1.373 . S
C2640 C2642 1.389 . S
C2641 H2620 0.950 . S
C2641 C2640 1.373 . S
C2641 C2657 1.377 1_545 S
C2642 C2640 1.389 . S
C2642 C2643 1.524 . S
C2642 C2656 1.377 1_545 S
C2643 C2642 1.524 . S
C2643 C2644 1.397 . S
C2643 C2648 1.363 . S
C2644 H2621 0.950 . S
C2644 C2643 1.397 . S
C2644 C2645 1.334 . S
C2645 H2622 0.950 . S
C2645 C2644 1.334 . S
C2645 C2646 1.287 . S
C2646 C2645 1.287 . S
C2646 C2647 1.524 . S
C2646 H2665 0.913 . S
C2647 H2623 0.950 . S
C2647 C2646 1.524 . S
C2647 C2648 1.415 . S
C2648 H2624 0.950 . S
C2648 C2643 1.363 . S
C2648 C2647 1.415 . S
C2649 H2625 0.951 . S
C2649 C2650 1.366 . S
C2649 C2651 1.388 . S
C2650 C2649 1.366 . S
C2650 C2654 1.385 . S
C2651 H2626 0.951 . S
C2651 C2649 1.388 . S
C2651 C2652 1.366 . S
C2652 C2651 1.366 . S
C2652 C2653 1.414 . S
C2652 C2655 1.499 . S
C2653 H2627 0.950 . S
C2653 C2652 1.414 . S
C2653 C2654 1.374 . S
C2654 H2628 0.950 . S
C2654 C2650 1.385 . S
C2654 C2653 1.374 . S
C2655 C2652 1.499 . S
C2655 C2656 1.373 . S
C2655 C2657 1.389 . S
C2656 H2629 0.950 . S
C2656 C2642 1.377 1_565 S
C2656 C2655 1.373 . S
C2657 C2641 1.377 1_565 S
C2657 C2655 1.389 . S
C2657 C2658 1.524 . S
C2658 C2657 1.524 . S
C2658 C2659 1.397 . S
C2658 C2663 1.363 . S
C2659 H2630 0.950 . S
C2659 C2658 1.397 . S
C2659 C2660 1.334 . S
C2660 H2631 0.950 . S
C2660 C2659 1.334 . S
C2660 C2661 1.287 . S
C2661 C2660 1.287 . S
C2661 C2662 1.524 . S
C2661 H2664 0.999 . S
C2662 H2632 0.950 . S
C2662 C2661 1.524 . S
C2662 C2663 1.415 . S
C2663 H2633 0.950 . S
C2663 C2658 1.363 . S
C2663 C2662 1.415 . S
H2664 C2661 0.999 . S
H2665 C2646 0.913 . S
H2666 C2684 0.951 . S
H2667 C2686 0.951 . S
H2668 C2688 0.950 . S
H2669 C2689 0.950 . S
H2670 C2691 0.950 . S
H2671 C2694 0.950 . S
H2672 C2695 0.950 . S
H2673 C2697 0.950 . S
H2674 C2698 0.950 . S
H2675 C2699 0.951 . S
H2676 C2701 0.951 . S
H2677 C2703 0.950 . S
H2678 C2704 0.950 . S
H2679 C2706 0.950 . S
H2680 C2709 0.950 . S
H2681 C2710 0.950 . S
H2682 C2712 0.950 . S
H2683 C2713 0.950 . S
C2684 H2666 0.951 . S
C2684 C2685 1.366 . S
C2684 C2686 1.388 . S
C2685 C2684 1.366 . S
C2685 C2689 1.385 . S
C2686 H2667 0.951 . S
C2686 C2684 1.388 . S
C2686 C2687 1.366 . S
C2687 C2686 1.366 . S
C2687 C2688 1.414 . S
C2687 C2690 1.499 . S
C2688 H2668 0.950 . S
C2688 C2687 1.414 . S
C2688 C2689 1.374 . S
C2689 H2669 0.950 . S
C2689 C2685 1.385 . S
C2689 C2688 1.374 . S
C2690 C2687 1.499 . S
C2690 C2691 1.373 . S
C2690 C2692 1.389 . S
C2691 H2670 0.950 . S
C2691 C2690 1.373 . S
C2691 C2707 1.377 . S
C2692 C2690 1.389 . S
C2692 C2693 1.524 . S
C2692 C2706 1.377 . S
C2693 C2692 1.524 . S
C2693 C2694 1.397 . S
C2693 C2698 1.363 . S
C2694 H2671 0.950 . S
C2694 C2693 1.397 . S
C2694 C2695 1.334 . S
C2695 H2672 0.950 . S
C2695 C2694 1.334 . S
C2695 C2696 1.287 . S
C2696 C2695 1.287 . S
C2696 C2697 1.524 . S
C2696 H2715 0.913 . S
C2697 H2673 0.950 . S
C2697 C2696 1.524 . S
C2697 C2698 1.415 . S
C2698 H2674 0.950 . S
C2698 C2693 1.363 . S
C2698 C2697 1.415 . S
C2699 H2675 0.951 . S
C2699 C2700 1.366 . S
C2699 C2701 1.388 . S
C2700 C2699 1.366 . S
C2700 C2704 1.385 . S
C2701 H2676 0.951 . S
C2701 C2699 1.388 . S
C2701 C2702 1.366 . S
C2702 C2701 1.366 . S
C2702 C2703 1.414 . S
C2702 C2705 1.499 . S
C2703 H2677 0.950 . S
C2703 C2702 1.414 . S
C2703 C2704 1.374 . S
C2704 H2678 0.950 . S
C2704 C2700 1.385 . S
C2704 C2703 1.374 . S
C2705 C2702 1.499 . S
C2705 C2706 1.373 . S
C2705 C2707 1.389 . S
C2706 H2679 0.950 . S
C2706 C2692 1.377 . S
C2706 C2705 1.373 . S
C2707 C2691 1.377 . S
C2707 C2705 1.389 . S
C2707 C2708 1.524 . S
C2708 C2707 1.524 . S
C2708 C2709 1.397 . S
C2708 C2713 1.363 . S
C2709 H2680 0.950 . S
C2709 C2708 1.397 . S
C2709 C2710 1.334 . S
C2710 H2681 0.950 . S
C2710 C2709 1.334 . S
C2710 C2711 1.287 . S
C2711 C2710 1.287 . S
C2711 C2712 1.524 . S
C2711 H2714 0.999 . S
C2712 H2682 0.950 . S
C2712 C2711 1.524 . S
C2712 C2713 1.415 . S
C2713 H2683 0.950 . S
C2713 C2708 1.363 . S
C2713 C2712 1.415 . S
H2714 C2711 0.999 . S
H2715 C2696 0.913 . S
H2716 C2734 0.951 . S
H2717 C2736 0.951 . S
H2718 C2738 0.950 1_556 S
H2719 C2739 0.950 . S
H2720 C2741 0.950 . S
H2721 C2744 0.950 . S
H2722 C2745 0.950 . S
H2723 C2747 0.950 . S
H2724 C2748 0.950 1_545 S
H2725 C2749 0.951 . S
H2726 C2751 0.951 . S
H2727 C2753 0.950 1_554 S
H2728 C2754 0.950 . S
H2729 C2756 0.950 . S
H2730 C2759 0.950 . S
H2731 C2760 0.950 . S
H2732 C2762 0.950 . S
H2733 C2763 0.950 1_565 S
C2734 H2716 0.951 . S
C2734 C2735 1.366 . S
C2734 C2736 1.388 . S
C2735 C2734 1.366 . S
C2735 C2739 1.385 . S
C2736 H2717 0.951 . S
C2736 C2734 1.388 . S
C2736 C2737 1.366 . S
C2737 C2736 1.366 . S
C2737 C2738 1.414 . S
C2737 C2740 1.499 . S
C2738 H2718 0.950 1_554 S
C2738 C2737 1.414 . S
C2738 C2739 1.374 . S
C2739 H2719 0.950 . S
C2739 C2735 1.385 . S
C2739 C2738 1.374 . S
C2740 C2737 1.499 . S
C2740 C2741 1.373 . S
C2740 C2742 1.389 . S
C2741 H2720 0.950 . S
C2741 C2740 1.373 . S
C2741 C2757 1.377 1_564 S
C2742 C2740 1.389 . S
C2742 C2743 1.524 . S
C2742 C2756 1.377 1_564 S
C2743 C2742 1.524 . S
C2743 C2744 1.397 1_554 S
C2743 C2748 1.363 . S
C2744 H2721 0.950 . S
C2744 C2743 1.397 1_556 S
C2744 C2745 1.334 . S
C2745 H2722 0.950 . S
C2745 C2744 1.334 . S
C2745 C2746 1.270 1_556 S
C2746 C2745 1.270 1_554 S
C2746 C2747 1.544 . S
C2746 H2765 0.913 . S
C2747 H2723 0.950 . S
C2747 C2746 1.544 . S
C2747 C2748 1.415 . S
C2748 H2724 0.950 1_565 S
C2748 C2743 1.363 . S
C2748 C2747 1.415 . S
C2749 H2725 0.951 . S
C2749 C2750 1.366 . S
C2749 C2751 1.388 . S
C2750 C2749 1.366 . S
C2750 C2754 1.385 . S
C2751 H2726 0.951 . S
C2751 C2749 1.388 . S
C2751 C2752 1.366 . S
C2752 C2751 1.366 . S
C2752 C2753 1.414 . S
C2752 C2755 1.499 . S
C2753 H2727 0.950 1_556 S
C2753 C2752 1.414 . S
C2753 C2754 1.374 . S
C2754 H2728 0.950 . S
C2754 C2750 1.385 . S
C2754 C2753 1.374 . S
C2755 C2752 1.499 . S
C2755 C2756 1.373 . S
C2755 C2757 1.389 . S
C2756 H2729 0.950 . S
C2756 C2742 1.377 1_546 S
C2756 C2755 1.373 . S
C2757 C2741 1.377 1_546 S
C2757 C2755 1.389 . S
C2757 C2758 1.524 . S
C2758 C2757 1.524 . S
C2758 C2759 1.397 1_556 S
C2758 C2763 1.363 . S
C2759 H2730 0.950 . S
C2759 C2758 1.397 1_554 S
C2759 C2760 1.334 . S
C2760 H2731 0.950 . S
C2760 C2759 1.334 . S
C2760 C2761 1.270 1_554 S
C2761 C2760 1.270 1_556 S
C2761 C2762 1.544 . S
C2761 H2764 0.999 . S
C2762 H2732 0.950 . S
C2762 C2761 1.544 . S
C2762 C2763 1.415 . S
C2763 H2733 0.950 1_545 S
C2763 C2758 1.363 . S
C2763 C2762 1.415 . S
H2764 C2761 0.999 . S
H2765 C2746 0.913 . S
H2766 C2784 0.951 . S
H2767 C2786 0.951 . S
H2768 C2788 0.950 . S
H2769 C2789 0.950 . S
H2770 C2791 0.950 . S
H2771 C2794 0.950 . S
H2772 C2795 0.950 . S
H2773 C2797 0.950 . S
H2774 C2798 0.950 . S
H2775 C2799 0.951 . S
H2776 C2801 0.951 . S
H2777 C2803 0.950 . S
H2778 C2804 0.950 . S
H2779 C2806 0.950 . S
H2780 C2809 0.950 . S
H2781 C2810 0.950 . S
H2782 C2812 0.950 . S
H2783 C2813 0.950 . S
C2784 H2766 0.951 . S
C2784 C2785 1.366 . S
C2784 C2786 1.388 . S
C2785 C2784 1.366 . S
C2785 C2789 1.385 . S
C2786 H2767 0.951 . S
C2786 C2784 1.388 . S
C2786 C2787 1.366 . S
C2787 C2786 1.366 . S
C2787 C2788 1.414 . S
C2787 C2790 1.499 . S
C2788 H2768 0.950 . S
C2788 C2787 1.414 . S
C2788 C2789 1.374 . S
C2789 H2769 0.950 . S
C2789 C2785 1.385 . S
C2789 C2788 1.374 . S
C2790 C2787 1.499 . S
C2790 C2791 1.373 . S
C2790 C2792 1.389 . S
C2791 H2770 0.950 . S
C2791 C2790 1.373 . S
C2791 C2807 1.377 . S
C2792 C2790 1.389 . S
C2792 C2793 1.524 . S
C2792 C2806 1.377 . S
C2793 C2792 1.524 . S
C2793 C2794 1.397 . S
C2793 C2798 1.363 . S
C2794 H2771 0.950 . S
C2794 C2793 1.397 . S
C2794 C2795 1.334 . S
C2795 H2772 0.950 . S
C2795 C2794 1.334 . S
C2795 C2796 1.287 . S
C2796 C2795 1.287 . S
C2796 C2797 1.524 . S
C2796 H2815 0.913 . S
C2797 H2773 0.950 . S
C2797 C2796 1.524 . S
C2797 C2798 1.415 . S
C2798 H2774 0.950 . S
C2798 C2793 1.363 . S
C2798 C2797 1.415 . S
C2799 H2775 0.951 . S
C2799 C2800 1.366 . S
C2799 C2801 1.388 . S
C2800 C2799 1.366 . S
C2800 C2804 1.385 . S
C2801 H2776 0.951 . S
C2801 C2799 1.388 . S
C2801 C2802 1.366 . S
C2802 C2801 1.366 . S
C2802 C2803 1.414 . S
C2802 C2805 1.499 . S
C2803 H2777 0.950 . S
C2803 C2802 1.414 . S
C2803 C2804 1.374 . S
C2804 H2778 0.950 . S
C2804 C2800 1.385 . S
C2804 C2803 1.374 . S
C2805 C2802 1.499 . S
C2805 C2806 1.373 . S
C2805 C2807 1.389 . S
C2806 H2779 0.950 . S
C2806 C2792 1.377 . S
C2806 C2805 1.373 . S
C2807 C2791 1.377 . S
C2807 C2805 1.389 . S
C2807 C2808 1.524 . S
C2808 C2807 1.524 . S
C2808 C2809 1.397 . S
C2808 C2813 1.363 . S
C2809 H2780 0.950 . S
C2809 C2808 1.397 . S
C2809 C2810 1.334 . S
C2810 H2781 0.950 . S
C2810 C2809 1.334 . S
C2810 C2811 1.287 . S
C2811 C2810 1.287 . S
C2811 C2812 1.524 . S
C2811 H2814 0.999 . S
C2812 H2782 0.950 . S
C2812 C2811 1.524 . S
C2812 C2813 1.415 . S
C2813 H2783 0.950 . S
C2813 C2808 1.363 . S
C2813 C2812 1.415 . S
H2814 C2811 0.999 . S
H2815 C2796 0.913 . S
H2816 C2834 0.951 . S
H2817 C2836 0.951 . S
H2818 C2838 0.950 . S
H2819 C2839 0.950 . S
H2820 C2841 0.950 . S
H2821 C2844 0.950 . S
H2822 C2845 0.950 . S
H2823 C2847 0.950 . S
H2824 C2848 0.950 . S
H2825 C2849 0.951 . S
H2826 C2851 0.951 . S
H2827 C2853 0.950 . S
H2828 C2854 0.950 . S
H2829 C2856 0.950 . S
H2830 C2859 0.950 . S
H2831 C2860 0.950 . S
H2832 C2862 0.950 . S
H2833 C2863 0.950 . S
C2834 H2816 0.951 . S
C2834 C2835 1.366 . S
C2834 C2836 1.388 . S
C2835 C2834 1.366 . S
C2835 C2839 1.385 . S
C2836 H2817 0.951 . S
C2836 C2834 1.388 . S
C2836 C2837 1.366 . S
C2837 C2836 1.366 . S
C2837 C2838 1.414 . S
C2837 C2840 1.499 . S
C2838 H2818 0.950 . S
C2838 C2837 1.414 . S
C2838 C2839 1.374 . S
C2839 H2819 0.950 . S
C2839 C2835 1.385 . S
C2839 C2838 1.374 . S
C2840 C2837 1.499 . S
C2840 C2841 1.373 . S
C2840 C2842 1.389 . S
C2841 H2820 0.950 . S
C2841 C2840 1.373 . S
C2841 C2857 1.377 . S
C2842 C2840 1.389 . S
C2842 C2843 1.524 . S
C2842 C2856 1.377 . S
C2843 C2842 1.524 . S
C2843 C2844 1.397 . S
C2843 C2848 1.363 . S
C2844 H2821 0.950 . S
C2844 C2843 1.397 . S
C2844 C2845 1.334 . S
C2845 H2822 0.950 . S
C2845 C2844 1.334 . S
C2845 C2846 1.287 . S
C2846 C2845 1.287 . S
C2846 C2847 1.524 . S
C2846 H2865 0.913 . S
C2847 H2823 0.950 . S
C2847 C2846 1.524 . S
C2847 C2848 1.415 . S
C2848 H2824 0.950 . S
C2848 C2843 1.363 . S
C2848 C2847 1.415 . S
C2849 H2825 0.951 . S
C2849 C2850 1.366 . S
C2849 C2851 1.388 . S
C2850 C2849 1.366 . S
C2850 C2854 1.385 . S
C2851 H2826 0.951 . S
C2851 C2849 1.388 . S
C2851 C2852 1.366 . S
C2852 C2851 1.366 . S
C2852 C2853 1.414 . S
C2852 C2855 1.499 . S
C2853 H2827 0.950 . S
C2853 C2852 1.414 . S
C2853 C2854 1.374 . S
C2854 H2828 0.950 . S
C2854 C2850 1.385 . S
C2854 C2853 1.374 . S
C2855 C2852 1.499 . S
C2855 C2856 1.373 . S
C2855 C2857 1.389 . S
C2856 H2829 0.950 . S
C2856 C2842 1.377 . S
C2856 C2855 1.373 . S
C2857 C2841 1.377 . S
C2857 C2855 1.389 . S
C2857 C2858 1.524 . S
C2858 C2857 1.524 . S
C2858 C2859 1.397 . S
C2858 C2863 1.363 . S
C2859 H2830 0.950 . S
C2859 C2858 1.397 . S
C2859 C2860 1.334 . S
C2860 H2831 0.950 . S
C2860 C2859 1.334 . S
C2860 C2861 1.287 . S
C2861 C2860 1.287 . S
C2861 C2862 1.524 . S
C2861 H2864 0.999 . S
C2862 H2832 0.950 . S
C2862 C2861 1.524 . S
C2862 C2863 1.415 . S
C2863 H2833 0.950 . S
C2863 C2858 1.363 . S
C2863 C2862 1.415 . S
H2864 C2861 0.999 . S
H2865 C2846 0.913 . S
H2866 C2884 0.951 . S
H2867 C2886 0.951 . S
H2868 C2888 0.950 . S
H2869 C2889 0.950 . S
H2870 C2891 0.950 . S
H2871 C2894 0.950 . S
H2872 C2895 0.950 . S
H2873 C2897 0.950 . S
H2874 C2898 0.950 . S
H2875 C2899 0.951 . S
H2876 C2901 0.951 . S
H2877 C2903 0.950 . S
H2878 C2904 0.950 . S
H2879 C2906 0.950 . S
H2880 C2909 0.950 . S
H2881 C2910 0.950 . S
H2882 C2912 0.950 . S
H2883 C2913 0.950 . S
C2884 H2866 0.951 . S
C2884 C2885 1.366 . S
C2884 C2886 1.388 . S
C2885 C2884 1.366 . S
C2885 C2889 1.385 . S
C2886 H2867 0.951 . S
C2886 C2884 1.388 . S
C2886 C2887 1.366 . S
C2887 C2886 1.366 . S
C2887 C2888 1.414 . S
C2887 C2890 1.499 . S
C2888 H2868 0.950 . S
C2888 C2887 1.414 . S
C2888 C2889 1.374 . S
C2889 H2869 0.950 . S
C2889 C2885 1.385 . S
C2889 C2888 1.374 . S
C2890 C2887 1.499 . S
C2890 C2891 1.373 . S
C2890 C2892 1.389 . S
C2891 H2870 0.950 . S
C2891 C2890 1.373 . S
C2891 C2907 1.377 . S
C2892 C2890 1.389 . S
C2892 C2893 1.524 . S
C2892 C2906 1.377 . S
C2893 C2892 1.524 . S
C2893 C2894 1.397 . S
C2893 C2898 1.363 . S
C2894 H2871 0.950 . S
C2894 C2893 1.397 . S
C2894 C2895 1.334 . S
C2895 H2872 0.950 . S
C2895 C2894 1.334 . S
C2895 C2896 1.287 . S
C2896 C2895 1.287 . S
C2896 C2897 1.524 . S
C2896 H2915 0.913 . S
C2897 H2873 0.950 . S
C2897 C2896 1.524 . S
C2897 C2898 1.415 . S
C2898 H2874 0.950 . S
C2898 C2893 1.363 . S
C2898 C2897 1.415 . S
C2899 H2875 0.951 . S
C2899 C2900 1.366 . S
C2899 C2901 1.388 . S
C2900 C2899 1.366 . S
C2900 C2904 1.385 . S
C2901 H2876 0.951 . S
C2901 C2899 1.388 . S
C2901 C2902 1.366 . S
C2902 C2901 1.366 . S
C2902 C2903 1.414 . S
C2902 C2905 1.499 . S
C2903 H2877 0.950 . S
C2903 C2902 1.414 . S
C2903 C2904 1.374 . S
C2904 H2878 0.950 . S
C2904 C2900 1.385 . S
C2904 C2903 1.374 . S
C2905 C2902 1.499 . S
C2905 C2906 1.373 . S
C2905 C2907 1.389 . S
C2906 H2879 0.950 . S
C2906 C2892 1.377 . S
C2906 C2905 1.373 . S
C2907 C2891 1.377 . S
C2907 C2905 1.389 . S
C2907 C2908 1.524 . S
C2908 C2907 1.524 . S
C2908 C2909 1.397 . S
C2908 C2913 1.363 . S
C2909 H2880 0.950 . S
C2909 C2908 1.397 . S
C2909 C2910 1.334 . S
C2910 H2881 0.950 . S
C2910 C2909 1.334 . S
C2910 C2911 1.287 . S
C2911 C2910 1.287 . S
C2911 C2912 1.524 . S
C2911 H2914 0.999 . S
C2912 H2882 0.950 . S
C2912 C2911 1.524 . S
C2912 C2913 1.415 . S
C2913 H2883 0.950 . S
C2913 C2908 1.363 . S
C2913 C2912 1.415 . S
H2914 C2911 0.999 . S
H2915 C2896 0.913 . S
H2916 C2934 0.951 . S
H2917 C2936 0.951 . S
H2918 C2938 0.950 . S
H2919 C2939 0.950 . S
H2920 C2941 0.950 . S
H2921 C2944 0.950 . S
H2922 C2945 0.950 . S
H2923 C2947 0.950 . S
H2924 C2948 0.950 . S
H2925 C2949 0.951 . S
H2926 C2951 0.951 . S
H2927 C2953 0.950 . S
H2928 C2954 0.950 . S
H2929 C2956 0.950 . S
H2930 C2959 0.950 . S
H2931 C2960 0.950 . S
H2932 C2962 0.950 . S
H2933 C2963 0.950 . S
C2934 H2916 0.951 . S
C2934 C2935 1.366 . S
C2934 C2936 1.388 . S
C2935 C2934 1.366 . S
C2935 C2939 1.385 . S
C2936 H2917 0.951 . S
C2936 C2934 1.388 . S
C2936 C2937 1.366 . S
C2937 C2936 1.366 . S
C2937 C2938 1.414 . S
C2937 C2940 1.499 . S
C2938 H2918 0.950 . S
C2938 C2937 1.414 . S
C2938 C2939 1.374 . S
C2939 H2919 0.950 . S
C2939 C2935 1.385 . S
C2939 C2938 1.374 . S
C2940 C2937 1.499 . S
C2940 C2941 1.373 . S
C2940 C2942 1.389 . S
C2941 H2920 0.950 . S
C2941 C2940 1.373 . S
C2941 C2957 1.377 . S
C2942 C2940 1.389 . S
C2942 C2943 1.524 . S
C2942 C2956 1.377 . S
C2943 C2942 1.524 . S
C2943 C2944 1.397 . S
C2943 C2948 1.363 . S
C2944 H2921 0.950 . S
C2944 C2943 1.397 . S
C2944 C2945 1.334 . S
C2945 H2922 0.950 . S
C2945 C2944 1.334 . S
C2945 C2946 1.287 . S
C2946 C2945 1.287 . S
C2946 C2947 1.524 . S
C2946 H2965 0.913 . S
C2947 H2923 0.950 . S
C2947 C2946 1.524 . S
C2947 C2948 1.415 . S
C2948 H2924 0.950 . S
C2948 C2943 1.363 . S
C2948 C2947 1.415 . S
C2949 H2925 0.951 . S
C2949 C2950 1.366 . S
C2949 C2951 1.388 . S
C2950 C2949 1.366 . S
C2950 C2954 1.385 . S
C2951 H2926 0.951 . S
C2951 C2949 1.388 . S
C2951 C2952 1.366 . S
C2952 C2951 1.366 . S
C2952 C2953 1.414 . S
C2952 C2955 1.499 . S
C2953 H2927 0.950 . S
C2953 C2952 1.414 . S
C2953 C2954 1.374 . S
C2954 H2928 0.950 . S
C2954 C2950 1.385 . S
C2954 C2953 1.374 . S
C2955 C2952 1.499 . S
C2955 C2956 1.373 . S
C2955 C2957 1.389 . S
C2956 H2929 0.950 . S
C2956 C2942 1.377 . S
C2956 C2955 1.373 . S
C2957 C2941 1.377 . S
C2957 C2955 1.389 . S
C2957 C2958 1.524 . S
C2958 C2957 1.524 . S
C2958 C2959 1.397 . S
C2958 C2963 1.363 . S
C2959 H2930 0.950 . S
C2959 C2958 1.397 . S
C2959 C2960 1.334 . S
C2960 H2931 0.950 . S
C2960 C2959 1.334 . S
C2960 C2961 1.287 . S
C2961 C2960 1.287 . S
C2961 C2962 1.524 . S
C2961 H2964 0.999 . S
C2962 H2932 0.950 . S
C2962 C2961 1.524 . S
C2962 C2963 1.415 . S
C2963 H2933 0.950 . S
C2963 C2958 1.363 . S
C2963 C2962 1.415 . S
H2964 C2961 0.999 . S
H2965 C2946 0.913 . S
H2966 C2984 0.951 . S
H2967 C2986 0.951 . S
H2968 C2988 0.950 . S
H2969 C2989 0.950 . S
H2970 C2991 0.950 . S
H2971 C2994 0.950 . S
H2972 C2995 0.950 . S
H2973 C2997 0.950 . S
H2974 C2998 0.950 . S
H2975 C2999 0.951 . S
H2976 C3001 0.951 . S
H2977 C3003 0.950 . S
H2978 C3004 0.950 . S
H2979 C3006 0.950 . S
H2980 C3009 0.950 . S
H2981 C3010 0.950 . S
H2982 C3012 0.950 . S
H2983 C3013 0.950 . S
C2984 H2966 0.951 . S
C2984 C2985 1.366 . S
C2984 C2986 1.388 . S
C2985 C2984 1.366 . S
C2985 C2989 1.385 . S
C2986 H2967 0.951 . S
C2986 C2984 1.388 . S
C2986 C2987 1.366 . S
C2987 C2986 1.366 . S
C2987 C2988 1.414 . S
C2987 C2990 1.499 . S
C2988 H2968 0.950 . S
C2988 C2987 1.414 . S
C2988 C2989 1.374 . S
C2989 H2969 0.950 . S
C2989 C2985 1.385 . S
C2989 C2988 1.374 . S
C2990 C2987 1.499 . S
C2990 C2991 1.373 . S
C2990 C2992 1.389 . S
C2991 H2970 0.950 . S
C2991 C2990 1.373 . S
C2991 C3007 1.377 1_655 S
C2992 C2990 1.389 . S
C2992 C2993 1.524 . S
C2992 C3006 1.377 1_655 S
C2993 C2992 1.524 . S
C2993 C2994 1.397 . S
C2993 C2998 1.363 . S
C2994 H2971 0.950 . S
C2994 C2993 1.397 . S
C2994 C2995 1.334 . S
C2995 H2972 0.950 . S
C2995 C2994 1.334 . S
C2995 C2996 1.287 . S
C2996 C2995 1.287 . S
C2996 C2997 1.524 . S
C2996 H3015 0.913 . S
C2997 H2973 0.950 . S
C2997 C2996 1.524 . S
C2997 C2998 1.415 . S
C2998 H2974 0.950 . S
C2998 C2993 1.363 . S
C2998 C2997 1.415 . S
C2999 H2975 0.951 . S
C2999 C3000 1.366 . S
C2999 C3001 1.388 . S
C3000 C2999 1.366 . S
C3000 C3004 1.385 . S
C3001 H2976 0.951 . S
C3001 C2999 1.388 . S
C3001 C3002 1.366 . S
C3002 C3001 1.366 . S
C3002 C3003 1.414 . S
C3002 C3005 1.499 . S
C3003 H2977 0.950 . S
C3003 C3002 1.414 . S
C3003 C3004 1.374 . S
C3004 H2978 0.950 . S
C3004 C3000 1.385 . S
C3004 C3003 1.374 . S
C3005 C3002 1.499 . S
C3005 C3006 1.373 . S
C3005 C3007 1.389 . S
C3006 H2979 0.950 . S
C3006 C2992 1.377 1_455 S
C3006 C3005 1.373 . S
C3007 C2991 1.377 1_455 S
C3007 C3005 1.389 . S
C3007 C3008 1.524 . S
C3008 C3007 1.524 . S
C3008 C3009 1.397 . S
C3008 C3013 1.363 . S
C3009 H2980 0.950 . S
C3009 C3008 1.397 . S
C3009 C3010 1.334 . S
C3010 H2981 0.950 . S
C3010 C3009 1.334 . S
C3010 C3011 1.287 . S
C3011 C3010 1.287 . S
C3011 C3012 1.524 . S
C3011 H3014 0.999 . S
C3012 H2982 0.950 . S
C3012 C3011 1.524 . S
C3012 C3013 1.415 . S
C3013 H2983 0.950 . S
C3013 C3008 1.363 . S
C3013 C3012 1.415 . S
H3014 C3011 0.999 . S
H3015 C2996 0.913 . S
H3016 C3034 0.951 . S
H3017 C3036 0.951 . S
H3018 C3038 0.950 . S
H3019 C3039 0.950 . S
H3020 C3041 0.950 . S
H3021 C3044 0.950 . S
H3022 C3045 0.950 . S
H3023 C3047 0.950 . S
H3024 C3048 0.950 . S
H3025 C3049 0.951 . S
H3026 C3051 0.951 . S
H3027 C3053 0.950 . S
H3028 C3054 0.950 . S
H3029 C3056 0.950 . S
H3030 C3059 0.954 . S
H3031 C3060 0.950 . S
H3032 C3062 0.950 . S
H3033 C3063 0.986 . S
C3034 H3016 0.951 . S
C3034 C3035 1.366 . S
C3034 C3036 1.388 . S
C3035 C3034 1.366 . S
C3035 C3039 1.385 . S
C3036 H3017 0.951 . S
C3036 C3034 1.388 . S
C3036 C3037 1.366 . S
C3037 C3036 1.366 . S
C3037 C3038 1.414 . S
C3037 C3040 1.499 . S
C3038 H3018 0.950 . S
C3038 C3037 1.414 . S
C3038 C3039 1.374 . S
C3039 H3019 0.950 . S
C3039 C3035 1.385 . S
C3039 C3038 1.374 . S
C3040 C3037 1.499 . S
C3040 C3041 1.373 . S
C3040 C3042 1.389 . S
C3041 H3020 0.950 . S
C3041 C3040 1.373 . S
C3041 C3057 1.377 . S
C3042 C3040 1.389 . S
C3042 C3043 1.524 . S
C3042 C3056 1.377 . S
C3043 C3042 1.524 . S
C3043 C3044 1.397 . S
C3043 C3048 1.363 . S
C3044 H3021 0.950 . S
C3044 C3043 1.397 . S
C3044 C3045 1.334 . S
C3045 H3022 0.950 . S
C3045 C3044 1.334 . S
C3045 C3046 1.287 . S
C3046 C3045 1.287 . S
C3046 C3047 1.524 . S
C3046 H3065 0.913 . S
C3047 H3023 0.950 . S
C3047 C3046 1.524 . S
C3047 C3048 1.415 . S
C3048 H3024 0.950 . S
C3048 C3043 1.363 . S
C3048 C3047 1.415 . S
C3049 H3025 0.951 . S
C3049 C3050 1.366 . S
C3049 C3051 1.388 . S
C3050 C3049 1.366 . S
C3050 C3054 1.385 . S
C3051 H3026 0.951 . S
C3051 C3049 1.388 . S
C3051 C3052 1.366 . S
C3052 C3051 1.366 . S
C3052 C3053 1.414 . S
C3052 C3055 1.499 . S
C3053 H3027 0.950 . S
C3053 C3052 1.414 . S
C3053 C3054 1.374 . S
C3054 H3028 0.950 . S
C3054 C3050 1.385 . S
C3054 C3053 1.374 . S
C3055 C3052 1.499 . S
C3055 C3056 1.373 . S
C3055 C3057 1.389 . S
C3056 H3029 0.950 . S
C3056 C3042 1.377 . S
C3056 C3055 1.373 . S
C3057 C3041 1.377 . S
C3057 C3055 1.389 . S
C3057 C3058 1.524 . S
C3058 C3057 1.524 . S
C3058 C3059 1.401 . S
C3058 C3063 1.394 . S
C3059 H3030 0.954 . S
C3059 C3058 1.401 . S
C3059 C3060 1.325 1_556 S
C3060 H3031 0.950 . S
C3060 C3059 1.325 1_554 S
C3060 C3061 1.287 . S
C3061 C3060 1.287 . S
C3061 C3062 1.524 . S
C3061 H3064 0.999 . S
C3062 H3032 0.950 . S
C3062 C3061 1.524 . S
C3062 C3063 1.352 1_554 S
C3063 H3033 0.986 . S
C3063 C3058 1.394 . S
C3063 C3062 1.352 1_556 S
H3064 C3061 0.999 . S
H3065 C3046 0.913 . S
H3066 C3084 0.951 . S
H3067 C3086 0.951 . S
H3068 C3088 0.950 . S
H3069 C3089 0.950 . S
H3070 C3091 0.950 . S
H3071 C3094 0.950 . S
H3072 C3095 0.950 . S
H3073 C3097 0.950 . S
H3074 C3098 0.950 . S
H3075 C3099 0.951 . S
H3076 C3101 0.951 . S
H3077 C3103 0.950 . S
H3078 C3104 0.950 . S
H3079 C3106 0.950 . S
H3080 C3109 0.950 . S
H3081 C3110 0.950 . S
H3082 C3112 0.950 . S
H3083 C3113 0.950 . S
C3084 H3066 0.951 . S
C3084 C3085 1.366 . S
C3084 C3086 1.388 . S
C3085 C3084 1.366 . S
C3085 C3089 1.385 . S
C3086 H3067 0.951 . S
C3086 C3084 1.388 . S
C3086 C3087 1.366 . S
C3087 C3086 1.366 . S
C3087 C3088 1.414 . S
C3087 C3090 1.499 . S
C3088 H3068 0.950 . S
C3088 C3087 1.414 . S
C3088 C3089 1.374 . S
C3089 H3069 0.950 . S
C3089 C3085 1.385 . S
C3089 C3088 1.374 . S
C3090 C3087 1.499 . S
C3090 C3091 1.373 . S
C3090 C3092 1.389 . S
C3091 H3070 0.950 . S
C3091 C3090 1.373 . S
C3091 C3107 1.377 1_655 S
C3092 C3090 1.389 . S
C3092 C3093 1.524 . S
C3092 C3106 1.377 1_655 S
C3093 C3092 1.524 . S
C3093 C3094 1.397 . S
C3093 C3098 1.363 . S
C3094 H3071 0.950 . S
C3094 C3093 1.397 . S
C3094 C3095 1.334 . S
C3095 H3072 0.950 . S
C3095 C3094 1.334 . S
C3095 C3096 1.287 . S
C3096 C3095 1.287 . S
C3096 C3097 1.524 . S
C3096 H3115 0.913 . S
C3097 H3073 0.950 . S
C3097 C3096 1.524 . S
C3097 C3098 1.415 . S
C3098 H3074 0.950 . S
C3098 C3093 1.363 . S
C3098 C3097 1.415 . S
C3099 H3075 0.951 . S
C3099 C3100 1.366 . S
C3099 C3101 1.388 . S
C3100 C3099 1.366 . S
C3100 C3104 1.385 . S
C3101 H3076 0.951 . S
C3101 C3099 1.388 . S
C3101 C3102 1.366 . S
C3102 C3101 1.366 . S
C3102 C3103 1.414 . S
C3102 C3105 1.499 . S
C3103 H3077 0.950 . S
C3103 C3102 1.414 . S
C3103 C3104 1.374 . S
C3104 H3078 0.950 . S
C3104 C3100 1.385 . S
C3104 C3103 1.374 . S
C3105 C3102 1.499 . S
C3105 C3106 1.373 . S
C3105 C3107 1.389 . S
C3106 H3079 0.950 . S
C3106 C3092 1.377 1_455 S
C3106 C3105 1.373 . S
C3107 C3091 1.377 1_455 S
C3107 C3105 1.389 . S
C3107 C3108 1.524 . S
C3108 C3107 1.524 . S
C3108 C3109 1.397 . S
C3108 C3113 1.363 . S
C3109 H3080 0.950 . S
C3109 C3108 1.397 . S
C3109 C3110 1.334 . S
C3110 H3081 0.950 . S
C3110 C3109 1.334 . S
C3110 C3111 1.287 . S
C3111 C3110 1.287 . S
C3111 C3112 1.524 . S
C3111 H3114 0.999 . S
C3112 H3082 0.950 . S
C3112 C3111 1.524 . S
C3112 C3113 1.415 . S
C3113 H3083 0.950 . S
C3113 C3108 1.363 . S
C3113 C3112 1.415 . S
H3114 C3111 0.999 . S
H3115 C3096 0.913 . S
H3116 C3134 0.951 . S
H3117 C3136 0.951 . S
H3118 C3138 0.950 . S
H3119 C3139 0.950 . S
H3120 C3141 0.950 . S
H3121 C3144 0.950 . S
H3122 C3145 0.950 . S
H3123 C3147 0.950 . S
H3124 C3148 0.950 . S
H3125 C3149 0.951 . S
H3126 C3151 0.951 . S
H3127 C3153 0.950 . S
H3128 C3154 0.950 . S
H3129 C3156 0.950 . S
H3130 C3159 0.950 . S
H3131 C3160 0.950 . S
H3132 C3162 0.950 . S
H3133 C3163 0.950 . S
C3134 H3116 0.951 . S
C3134 C3135 1.366 . S
C3134 C3136 1.388 . S
C3135 C3134 1.366 . S
C3135 C3139 1.385 . S
C3136 H3117 0.951 . S
C3136 C3134 1.388 . S
C3136 C3137 1.366 . S
C3137 C3136 1.366 . S
C3137 C3138 1.414 . S
C3137 C3140 1.499 . S
C3138 H3118 0.950 . S
C3138 C3137 1.414 . S
C3138 C3139 1.374 . S
C3139 H3119 0.950 . S
C3139 C3135 1.385 . S
C3139 C3138 1.374 . S
C3140 C3137 1.499 . S
C3140 C3141 1.373 . S
C3140 C3142 1.389 . S
C3141 H3120 0.950 . S
C3141 C3140 1.373 . S
C3141 C3157 1.377 . S
C3142 C3140 1.389 . S
C3142 C3143 1.524 . S
C3142 C3156 1.377 . S
C3143 C3142 1.524 . S
C3143 C3144 1.397 . S
C3143 C3148 1.363 . S
C3144 H3121 0.950 . S
C3144 C3143 1.397 . S
C3144 C3145 1.334 . S
C3145 H3122 0.950 . S
C3145 C3144 1.334 . S
C3145 C3146 1.287 . S
C3146 C3145 1.287 . S
C3146 C3147 1.524 . S
C3146 H3165 0.913 . S
C3147 H3123 0.950 . S
C3147 C3146 1.524 . S
C3147 C3148 1.415 . S
C3148 H3124 0.950 . S
C3148 C3143 1.363 . S
C3148 C3147 1.415 . S
C3149 H3125 0.951 . S
C3149 C3150 1.366 . S
C3149 C3151 1.388 . S
C3150 C3149 1.366 . S
C3150 C3154 1.385 . S
C3151 H3126 0.951 . S
C3151 C3149 1.388 . S
C3151 C3152 1.366 . S
C3152 C3151 1.366 . S
C3152 C3153 1.414 . S
C3152 C3155 1.499 . S
C3153 H3127 0.950 . S
C3153 C3152 1.414 . S
C3153 C3154 1.374 . S
C3154 H3128 0.950 . S
C3154 C3150 1.385 . S
C3154 C3153 1.374 . S
C3155 C3152 1.499 . S
C3155 C3156 1.373 . S
C3155 C3157 1.389 . S
C3156 H3129 0.950 . S
C3156 C3142 1.377 . S
C3156 C3155 1.373 . S
C3157 C3141 1.377 . S
C3157 C3155 1.389 . S
C3157 C3158 1.524 . S
C3158 C3157 1.524 . S
C3158 C3159 1.397 . S
C3158 C3163 1.363 . S
C3159 H3130 0.950 . S
C3159 C3158 1.397 . S
C3159 C3160 1.334 . S
C3160 H3131 0.950 . S
C3160 C3159 1.334 . S
C3160 C3161 1.287 . S
C3161 C3160 1.287 . S
C3161 C3162 1.524 . S
C3161 H3164 0.999 . S
C3162 H3132 0.950 . S
C3162 C3161 1.524 . S
C3162 C3163 1.415 . S
C3163 H3133 0.950 . S
C3163 C3158 1.363 . S
C3163 C3162 1.415 . S
H3164 C3161 0.999 . S
H3165 C3146 0.913 . S
H3166 C3184 0.951 . S
H3167 C3186 0.951 . S
H3168 C3188 0.950 . S
H3169 C3189 0.950 . S
H3170 C3191 0.950 . S
H3171 C3194 0.950 . S
H3172 C3195 0.950 . S
H3173 C3197 0.950 . S
H3174 C3198 0.950 . S
H3175 C3199 0.951 . S
H3176 C3201 0.951 . S
H3177 C3203 0.950 . S
H3178 C3204 0.950 . S
H3179 C3206 0.950 . S
H3180 C3209 0.950 . S
H3181 C3210 0.950 . S
H3182 C3212 0.950 . S
H3183 C3213 0.950 . S
C3184 H3166 0.951 . S
C3184 C3185 1.366 . S
C3184 C3186 1.388 . S
C3185 C3184 1.366 . S
C3185 C3189 1.385 . S
C3186 H3167 0.951 . S
C3186 C3184 1.388 . S
C3186 C3187 1.366 . S
C3187 C3186 1.366 . S
C3187 C3188 1.414 . S
C3187 C3190 1.499 . S
C3188 H3168 0.950 . S
C3188 C3187 1.414 . S
C3188 C3189 1.374 . S
C3189 H3169 0.950 . S
C3189 C3185 1.385 . S
C3189 C3188 1.374 . S
C3190 C3187 1.499 . S
C3190 C3191 1.373 . S
C3190 C3192 1.389 . S
C3191 H3170 0.950 . S
C3191 C3190 1.373 . S
C3191 C3207 1.377 . S
C3192 C3190 1.389 . S
C3192 C3193 1.524 . S
C3192 C3206 1.377 . S
C3193 C3192 1.524 . S
C3193 C3194 1.397 . S
C3193 C3198 1.363 . S
C3194 H3171 0.950 . S
C3194 C3193 1.397 . S
C3194 C3195 1.334 . S
C3195 H3172 0.950 . S
C3195 C3194 1.334 . S
C3195 C3196 1.287 . S
C3196 C3195 1.287 . S
C3196 C3197 1.524 . S
C3196 H3215 0.913 . S
C3197 H3173 0.950 . S
C3197 C3196 1.524 . S
C3197 C3198 1.415 . S
C3198 H3174 0.950 . S
C3198 C3193 1.363 . S
C3198 C3197 1.415 . S
C3199 H3175 0.951 . S
C3199 C3200 1.366 . S
C3199 C3201 1.388 . S
C3200 C3199 1.366 . S
C3200 C3204 1.385 . S
C3201 H3176 0.951 . S
C3201 C3199 1.388 . S
C3201 C3202 1.366 . S
C3202 C3201 1.366 . S
C3202 C3203 1.414 . S
C3202 C3205 1.499 . S
C3203 H3177 0.950 . S
C3203 C3202 1.414 . S
C3203 C3204 1.374 . S
C3204 H3178 0.950 . S
C3204 C3200 1.385 . S
C3204 C3203 1.374 . S
C3205 C3202 1.499 . S
C3205 C3206 1.373 . S
C3205 C3207 1.389 . S
C3206 H3179 0.950 . S
C3206 C3192 1.377 . S
C3206 C3205 1.373 . S
C3207 C3191 1.377 . S
C3207 C3205 1.389 . S
C3207 C3208 1.524 . S
C3208 C3207 1.524 . S
C3208 C3209 1.397 . S
C3208 C3213 1.363 . S
C3209 H3180 0.950 . S
C3209 C3208 1.397 . S
C3209 C3210 1.334 . S
C3210 H3181 0.950 . S
C3210 C3209 1.334 . S
C3210 C3211 1.287 . S
C3211 C3210 1.287 . S
C3211 C3212 1.524 . S
C3211 H3214 0.999 . S
C3212 H3182 0.950 . S
C3212 C3211 1.524 . S
C3212 C3213 1.415 . S
C3213 H3183 0.950 . S
C3213 C3208 1.363 . S
C3213 C3212 1.415 . S
H3214 C3211 0.999 . S
H3215 C3196 0.913 . S
H3216 C3234 0.951 . S
H3217 C3236 0.951 . S
H3218 C3238 0.950 . S
H3219 C3239 0.950 . S
H3220 C3241 0.950 . S
H3221 C3244 0.950 . S
H3222 C3245 0.950 1_554 S
H3223 C3247 0.950 . S
H3224 C3248 0.950 . S
H3225 C3249 0.951 . S
H3226 C3251 0.951 . S
H3227 C3253 0.950 . S
H3228 C3254 0.950 . S
H3229 C3256 0.950 . S
H3230 C3259 0.950 . S
H3231 C3260 0.950 . S
H3232 C3262 0.950 . S
H3233 C3263 0.950 . S
C3234 H3216 0.951 . S
C3234 C3235 1.366 . S
C3234 C3236 1.388 . S
C3235 C3234 1.366 . S
C3235 C3239 1.385 . S
C3236 H3217 0.951 . S
C3236 C3234 1.388 . S
C3236 C3237 1.366 . S
C3237 C3236 1.366 . S
C3237 C3238 1.414 . S
C3237 C3240 1.499 . S
C3238 H3218 0.950 . S
C3238 C3237 1.414 . S
C3238 C3239 1.374 . S
C3239 H3219 0.950 . S
C3239 C3235 1.385 . S
C3239 C3238 1.374 . S
C3240 C3237 1.499 . S
C3240 C3241 1.373 . S
C3240 C3242 1.389 . S
C3241 H3220 0.950 . S
C3241 C3240 1.373 . S
C3241 C3257 1.377 . S
C3242 C3240 1.389 . S
C3242 C3243 1.524 . S
C3242 C3256 1.377 . S
C3243 C3242 1.524 . S
C3243 C3244 1.397 . S
C3243 C3248 1.363 . S
C3244 H3221 0.950 . S
C3244 C3243 1.397 . S
C3244 C3245 1.334 . S
C3245 H3222 0.950 1_556 S
C3245 C3244 1.334 . S
C3245 C3246 1.287 . S
C3246 C3245 1.287 . S
C3246 C3247 1.524 . S
C3246 H3265 0.913 . S
C3247 H3223 0.950 . S
C3247 C3246 1.524 . S
C3247 C3248 1.415 . S
C3248 H3224 0.950 . S
C3248 C3243 1.363 . S
C3248 C3247 1.415 . S
C3249 H3225 0.951 . S
C3249 C3250 1.366 . S
C3249 C3251 1.388 . S
C3250 C3249 1.366 . S
C3250 C3254 1.385 . S
C3251 H3226 0.951 . S
C3251 C3249 1.388 . S
C3251 C3252 1.366 . S
C3252 C3251 1.366 . S
C3252 C3253 1.414 . S
C3252 C3255 1.499 . S
C3253 H3227 0.950 . S
C3253 C3252 1.414 . S
C3253 C3254 1.374 . S
C3254 H3228 0.950 . S
C3254 C3250 1.385 . S
C3254 C3253 1.374 . S
C3255 C3252 1.499 . S
C3255 C3256 1.373 . S
C3255 C3257 1.389 . S
C3256 H3229 0.950 . S
C3256 C3242 1.377 . S
C3256 C3255 1.373 . S
C3257 C3241 1.377 . S
C3257 C3255 1.389 . S
C3257 C3258 1.524 . S
C3258 C3257 1.524 . S
C3258 C3259 1.397 . S
C3258 C3263 1.363 . S
C3259 H3230 0.950 . S
C3259 C3258 1.397 . S
C3259 C3260 1.334 . S
C3260 H3231 0.950 . S
C3260 C3259 1.334 . S
C3260 C3261 1.287 . S
C3261 C3260 1.287 . S
C3261 C3262 1.524 . S
C3261 H3264 0.999 . S
C3262 H3232 0.950 . S
C3262 C3261 1.524 . S
C3262 C3263 1.415 . S
C3263 H3233 0.950 . S
C3263 C3258 1.363 . S
C3263 C3262 1.415 . S
H3264 C3261 0.999 . S
H3265 C3246 0.913 . S
H3266 C3284 0.951 . S
H3267 C3286 0.951 . S
H3268 C3288 0.950 . S
H3269 C3289 0.950 . S
H3270 C3291 0.950 . S
H3271 C3294 0.950 . S
H3272 C3295 0.950 . S
H3273 C3297 0.950 . S
H3274 C3298 0.950 . S
H3275 C3299 0.951 . S
H3276 C3301 0.951 . S
H3277 C3303 0.950 . S
H3278 C3304 0.950 . S
H3279 C3306 0.950 . S
H3280 C3309 0.950 . S
H3281 C3310 0.950 . S
H3282 C3312 0.950 . S
H3283 C3313 0.950 . S
C3284 H3266 0.951 . S
C3284 C3285 1.366 . S
C3284 C3286 1.388 . S
C3285 C3284 1.366 . S
C3285 C3289 1.385 . S
C3286 H3267 0.951 . S
C3286 C3284 1.388 . S
C3286 C3287 1.366 . S
C3287 C3286 1.366 . S
C3287 C3288 1.414 . S
C3287 C3290 1.499 . S
C3288 H3268 0.950 . S
C3288 C3287 1.414 . S
C3288 C3289 1.374 . S
C3289 H3269 0.950 . S
C3289 C3285 1.385 . S
C3289 C3288 1.374 . S
C3290 C3287 1.499 . S
C3290 C3291 1.373 . S
C3290 C3292 1.389 . S
C3291 H3270 0.950 . S
C3291 C3290 1.373 . S
C3291 C3307 1.377 . S
C3292 C3290 1.389 . S
C3292 C3293 1.524 . S
C3292 C3306 1.377 . S
C3293 C3292 1.524 . S
C3293 C3294 1.397 . S
C3293 C3298 1.363 . S
C3294 H3271 0.950 . S
C3294 C3293 1.397 . S
C3294 C3295 1.334 . S
C3295 H3272 0.950 . S
C3295 C3294 1.334 . S
C3295 C3296 1.287 . S
C3296 C3295 1.287 . S
C3296 C3297 1.524 . S
C3296 H3315 0.913 . S
C3297 H3273 0.950 . S
C3297 C3296 1.524 . S
C3297 C3298 1.415 . S
C3298 H3274 0.950 . S
C3298 C3293 1.363 . S
C3298 C3297 1.415 . S
C3299 H3275 0.951 . S
C3299 C3300 1.366 . S
C3299 C3301 1.388 . S
C3300 C3299 1.366 . S
C3300 C3304 1.385 . S
C3301 H3276 0.951 . S
C3301 C3299 1.388 . S
C3301 C3302 1.366 . S
C3302 C3301 1.366 . S
C3302 C3303 1.414 . S
C3302 C3305 1.499 . S
C3303 H3277 0.950 . S
C3303 C3302 1.414 . S
C3303 C3304 1.374 . S
C3304 H3278 0.950 . S
C3304 C3300 1.385 . S
C3304 C3303 1.374 . S
C3305 C3302 1.499 . S
C3305 C3306 1.373 . S
C3305 C3307 1.389 . S
C3306 H3279 0.950 . S
C3306 C3292 1.377 . S
C3306 C3305 1.373 . S
C3307 C3291 1.377 . S
C3307 C3305 1.389 . S
C3307 C3308 1.524 . S
C3308 C3307 1.524 . S
C3308 C3309 1.397 . S
C3308 C3313 1.363 . S
C3309 H3280 0.950 . S
C3309 C3308 1.397 . S
C3309 C3310 1.334 . S
C3310 H3281 0.950 . S
C3310 C3309 1.334 . S
C3310 C3311 1.287 . S
C3311 C3310 1.287 . S
C3311 C3312 1.524 . S
C3311 H3314 0.999 . S
C3312 H3282 0.950 . S
C3312 C3311 1.524 . S
C3312 C3313 1.415 . S
C3313 H3283 0.950 . S
C3313 C3308 1.363 . S
C3313 C3312 1.415 . S
H3314 C3311 0.999 . S
H3315 C3296 0.913 . S
H3316 C3334 0.951 . S
H3317 C3336 0.951 . S
H3318 C3338 0.950 . S
H3319 C3339 0.950 . S
H3320 C3341 0.950 . S
H3321 C3344 0.950 . S
H3322 C3345 0.950 . S
H3323 C3347 0.950 . S
H3324 C3348 0.950 . S
H3325 C3349 0.951 . S
H3326 C3351 0.951 . S
H3327 C3353 0.950 . S
H3328 C3354 0.950 . S
H3329 C3356 0.950 . S
H3330 C3359 0.950 . S
H3331 C3360 0.950 . S
H3332 C3362 0.950 . S
H3333 C3363 0.950 . S
C3334 H3316 0.951 . S
C3334 C3335 1.366 . S
C3334 C3336 1.388 . S
C3335 C3334 1.366 . S
C3335 C3339 1.385 . S
C3336 H3317 0.951 . S
C3336 C3334 1.388 . S
C3336 C3337 1.366 . S
C3337 C3336 1.366 . S
C3337 C3338 1.414 . S
C3337 C3340 1.499 . S
C3338 H3318 0.950 . S
C3338 C3337 1.414 . S
C3338 C3339 1.374 . S
C3339 H3319 0.950 . S
C3339 C3335 1.385 . S
C3339 C3338 1.374 . S
C3340 C3337 1.499 . S
C3340 C3341 1.373 . S
C3340 C3342 1.389 . S
C3341 H3320 0.950 . S
C3341 C3340 1.373 . S
C3341 C3357 1.377 . S
C3342 C3340 1.389 . S
C3342 C3343 1.524 . S
C3342 C3356 1.377 . S
C3343 C3342 1.524 . S
C3343 C3344 1.397 . S
C3343 C3348 1.363 . S
C3344 H3321 0.950 . S
C3344 C3343 1.397 . S
C3344 C3345 1.334 1_554 S
C3345 H3322 0.950 . S
C3345 C3344 1.334 1_556 S
C3345 C3346 1.287 . S
C3346 C3345 1.287 . S
C3346 C3347 1.524 . S
C3346 H3365 0.913 . S
C3347 H3323 0.950 . S
C3347 C3346 1.524 . S
C3347 C3348 1.415 1_556 S
C3348 H3324 0.950 . S
C3348 C3343 1.363 . S
C3348 C3347 1.415 1_554 S
C3349 H3325 0.951 . S
C3349 C3350 1.366 . S
C3349 C3351 1.388 . S
C3350 C3349 1.366 . S
C3350 C3354 1.385 . S
C3351 H3326 0.951 . S
C3351 C3349 1.388 . S
C3351 C3352 1.366 . S
C3352 C3351 1.366 . S
C3352 C3353 1.414 . S
C3352 C3355 1.499 . S
C3353 H3327 0.950 . S
C3353 C3352 1.414 . S
C3353 C3354 1.374 . S
C3354 H3328 0.950 . S
C3354 C3350 1.385 . S
C3354 C3353 1.374 . S
C3355 C3352 1.499 . S
C3355 C3356 1.373 . S
C3355 C3357 1.389 . S
C3356 H3329 0.950 . S
C3356 C3342 1.377 . S
C3356 C3355 1.373 . S
C3357 C3341 1.377 . S
C3357 C3355 1.389 . S
C3357 C3358 1.524 . S
C3358 C3357 1.524 . S
C3358 C3359 1.397 . S
C3358 C3363 1.363 . S
C3359 H3330 0.950 . S
C3359 C3358 1.397 . S
C3359 C3360 1.334 . S
C3360 H3331 0.950 . S
C3360 C3359 1.334 . S
C3360 C3361 1.287 . S
C3361 C3360 1.287 . S
C3361 C3362 1.524 . S
C3361 H3364 0.999 . S
C3362 H3332 0.950 . S
C3362 C3361 1.524 . S
C3362 C3363 1.415 . S
C3363 H3333 0.950 . S
C3363 C3358 1.363 . S
C3363 C3362 1.415 . S
H3364 C3361 0.999 . S
H3365 C3346 0.913 . S
H3366 C3384 0.951 . S
H3367 C3386 0.951 . S
H3368 C3388 0.950 . S
H3369 C3389 0.950 . S
H3370 C3391 0.950 . S
H3371 C3394 0.950 . S
H3372 C3395 0.950 . S
H3373 C3397 0.950 . S
H3374 C3398 0.950 . S
H3375 C3399 0.951 . S
H3376 C3401 0.951 . S
H3377 C3403 0.950 . S
H3378 C3404 0.950 . S
H3379 C3406 0.950 . S
H3380 C3409 0.950 . S
H3381 C3410 0.950 . S
H3382 C3412 0.950 . S
H3383 C3413 0.950 . S
C3384 H3366 0.951 . S
C3384 C3385 1.366 . S
C3384 C3386 1.388 . S
C3385 C3384 1.366 . S
C3385 C3389 1.385 . S
C3386 H3367 0.951 . S
C3386 C3384 1.388 . S
C3386 C3387 1.366 . S
C3387 C3386 1.366 . S
C3387 C3388 1.414 . S
C3387 C3390 1.499 . S
C3388 H3368 0.950 . S
C3388 C3387 1.414 . S
C3388 C3389 1.374 . S
C3389 H3369 0.950 . S
C3389 C3385 1.385 . S
C3389 C3388 1.374 . S
C3390 C3387 1.499 . S
C3390 C3391 1.373 . S
C3390 C3392 1.389 . S
C3391 H3370 0.950 . S
C3391 C3390 1.373 . S
C3391 C3407 1.377 . S
C3392 C3390 1.389 . S
C3392 C3393 1.524 . S
C3392 C3406 1.377 . S
C3393 C3392 1.524 . S
C3393 C3394 1.397 . S
C3393 C3398 1.363 . S
C3394 H3371 0.950 . S
C3394 C3393 1.397 . S
C3394 C3395 1.334 . S
C3395 H3372 0.950 . S
C3395 C3394 1.334 . S
C3395 C3396 1.287 . S
C3396 C3395 1.287 . S
C3396 C3397 1.524 . S
C3396 H3415 0.913 . S
C3397 H3373 0.950 . S
C3397 C3396 1.524 . S
C3397 C3398 1.415 . S
C3398 H3374 0.950 . S
C3398 C3393 1.363 . S
C3398 C3397 1.415 . S
C3399 H3375 0.951 . S
C3399 C3400 1.366 . S
C3399 C3401 1.388 . S
C3400 C3399 1.366 . S
C3400 C3404 1.385 . S
C3401 H3376 0.951 . S
C3401 C3399 1.388 . S
C3401 C3402 1.366 . S
C3402 C3401 1.366 . S
C3402 C3403 1.414 . S
C3402 C3405 1.499 . S
C3403 H3377 0.950 . S
C3403 C3402 1.414 . S
C3403 C3404 1.374 . S
C3404 H3378 0.950 . S
C3404 C3400 1.385 . S
C3404 C3403 1.374 . S
C3405 C3402 1.499 . S
C3405 C3406 1.373 . S
C3405 C3407 1.389 . S
C3406 H3379 0.950 . S
C3406 C3392 1.377 . S
C3406 C3405 1.373 . S
C3407 C3391 1.377 . S
C3407 C3405 1.389 . S
C3407 C3408 1.524 . S
C3408 C3407 1.524 . S
C3408 C3409 1.397 . S
C3408 C3413 1.363 . S
C3409 H3380 0.950 . S
C3409 C3408 1.397 . S
C3409 C3410 1.334 . S
C3410 H3381 0.950 . S
C3410 C3409 1.334 . S
C3410 C3411 1.287 . S
C3411 C3410 1.287 . S
C3411 C3412 1.524 . S
C3411 H3414 0.999 . S
C3412 H3382 0.950 . S
C3412 C3411 1.524 . S
C3412 C3413 1.415 . S
C3413 H3383 0.950 . S
C3413 C3408 1.363 . S
C3413 C3412 1.415 . S
H3414 C3411 0.999 . S
H3415 C3396 0.913 . S
H3416 C3434 0.951 . S
H3417 C3436 0.951 . S
H3418 C3438 0.950 . S
H3419 C3439 0.950 . S
H3420 C3441 0.950 . S
H3421 C3444 0.950 . S
H3422 C3445 0.950 . S
H3423 C3447 0.950 . S
H3424 C3448 0.950 . S
H3425 C3449 0.951 . S
H3426 C3451 0.951 . S
H3427 C3453 0.950 . S
H3428 C3454 0.950 . S
H3429 C3456 0.950 . S
H3430 C3459 0.950 . S
H3431 C3460 0.950 . S
H3432 C3462 0.950 . S
H3433 C3463 0.950 . S
C3434 H3416 0.951 . S
C3434 C3435 1.366 . S
C3434 C3436 1.388 . S
C3435 C3434 1.366 . S
C3435 C3439 1.385 . S
C3436 H3417 0.951 . S
C3436 C3434 1.388 . S
C3436 C3437 1.366 . S
C3437 C3436 1.366 . S
C3437 C3438 1.414 . S
C3437 C3440 1.499 . S
C3438 H3418 0.950 . S
C3438 C3437 1.414 . S
C3438 C3439 1.374 . S
C3439 H3419 0.950 . S
C3439 C3435 1.385 . S
C3439 C3438 1.374 . S
C3440 C3437 1.499 . S
C3440 C3441 1.373 . S
C3440 C3442 1.389 . S
C3441 H3420 0.950 . S
C3441 C3440 1.373 . S
C3441 C3457 1.377 1_655 S
C3442 C3440 1.389 . S
C3442 C3443 1.524 . S
C3442 C3456 1.377 1_655 S
C3443 C3442 1.524 . S
C3443 C3444 1.397 . S
C3443 C3448 1.363 . S
C3444 H3421 0.950 . S
C3444 C3443 1.397 . S
C3444 C3445 1.334 . S
C3445 H3422 0.950 . S
C3445 C3444 1.334 . S
C3445 C3446 1.287 . S
C3446 C3445 1.287 . S
C3446 C3447 1.524 . S
C3446 H3465 0.913 . S
C3447 H3423 0.950 . S
C3447 C3446 1.524 . S
C3447 C3448 1.415 . S
C3448 H3424 0.950 . S
C3448 C3443 1.363 . S
C3448 C3447 1.415 . S
C3449 H3425 0.951 . S
C3449 C3450 1.366 . S
C3449 C3451 1.388 . S
C3450 C3449 1.366 . S
C3450 C3454 1.385 . S
C3451 H3426 0.951 . S
C3451 C3449 1.388 . S
C3451 C3452 1.366 . S
C3452 C3451 1.366 . S
C3452 C3453 1.414 . S
C3452 C3455 1.499 . S
C3453 H3427 0.950 . S
C3453 C3452 1.414 . S
C3453 C3454 1.374 . S
C3454 H3428 0.950 . S
C3454 C3450 1.385 . S
C3454 C3453 1.374 . S
C3455 C3452 1.499 . S
C3455 C3456 1.373 . S
C3455 C3457 1.389 . S
C3456 H3429 0.950 . S
C3456 C3442 1.377 1_455 S
C3456 C3455 1.373 . S
C3457 C3441 1.377 1_455 S
C3457 C3455 1.389 . S
C3457 C3458 1.524 . S
C3458 C3457 1.524 . S
C3458 C3459 1.397 . S
C3458 C3463 1.363 . S
C3459 H3430 0.950 . S
C3459 C3458 1.397 . S
C3459 C3460 1.334 . S
C3460 H3431 0.950 . S
C3460 C3459 1.334 . S
C3460 C3461 1.287 . S
C3461 C3460 1.287 . S
C3461 C3462 1.524 . S
C3461 H3464 0.999 . S
C3462 H3432 0.950 . S
C3462 C3461 1.524 . S
C3462 C3463 1.415 . S
C3463 H3433 0.950 . S
C3463 C3458 1.363 . S
C3463 C3462 1.415 . S
H3464 C3461 0.999 . S
H3465 C3446 0.913 . S
H3466 C3484 0.951 . S
H3467 C3486 0.951 . S
H3468 C3488 0.950 . S
H3469 C3489 0.950 . S
H3470 C3491 0.950 . S
H3471 C3494 0.950 . S
H3472 C3495 0.950 . S
H3473 C3497 0.950 . S
H3474 C3498 0.950 . S
H3475 C3499 0.951 . S
H3476 C3501 0.951 . S
H3477 C3503 0.950 . S
H3478 C3504 0.950 . S
H3479 C3506 0.950 . S
H3480 C3509 0.950 . S
H3481 C3510 0.950 . S
H3482 C3512 0.950 . S
H3483 C3513 0.950 . S
C3484 H3466 0.951 . S
C3484 C3485 1.366 . S
C3484 C3486 1.388 . S
C3485 C3484 1.366 . S
C3485 C3489 1.385 . S
C3486 H3467 0.951 . S
C3486 C3484 1.388 . S
C3486 C3487 1.366 . S
C3487 C3486 1.366 . S
C3487 C3488 1.414 . S
C3487 C3490 1.499 . S
C3488 H3468 0.950 . S
C3488 C3487 1.414 . S
C3488 C3489 1.374 . S
C3489 H3469 0.950 . S
C3489 C3485 1.385 . S
C3489 C3488 1.374 . S
C3490 C3487 1.499 . S
C3490 C3491 1.373 . S
C3490 C3492 1.389 . S
C3491 H3470 0.950 . S
C3491 C3490 1.373 . S
C3491 C3507 1.377 . S
C3492 C3490 1.389 . S
C3492 C3493 1.524 . S
C3492 C3506 1.377 . S
C3493 C3492 1.524 . S
C3493 C3494 1.397 . S
C3493 C3498 1.363 . S
C3494 H3471 0.950 . S
C3494 C3493 1.397 . S
C3494 C3495 1.334 . S
C3495 H3472 0.950 . S
C3495 C3494 1.334 . S
C3495 C3496 1.287 . S
C3496 C3495 1.287 . S
C3496 C3497 1.524 . S
C3496 H3515 0.913 . S
C3497 H3473 0.950 . S
C3497 C3496 1.524 . S
C3497 C3498 1.415 . S
C3498 H3474 0.950 . S
C3498 C3493 1.363 . S
C3498 C3497 1.415 . S
C3499 H3475 0.951 . S
C3499 C3500 1.366 . S
C3499 C3501 1.388 . S
C3500 C3499 1.366 . S
C3500 C3504 1.385 . S
C3501 H3476 0.951 . S
C3501 C3499 1.388 . S
C3501 C3502 1.366 . S
C3502 C3501 1.366 . S
C3502 C3503 1.414 . S
C3502 C3505 1.499 . S
C3503 H3477 0.950 . S
C3503 C3502 1.414 . S
C3503 C3504 1.374 . S
C3504 H3478 0.950 . S
C3504 C3500 1.385 . S
C3504 C3503 1.374 . S
C3505 C3502 1.499 . S
C3505 C3506 1.373 . S
C3505 C3507 1.389 . S
C3506 H3479 0.950 . S
C3506 C3492 1.377 . S
C3506 C3505 1.373 . S
C3507 C3491 1.377 . S
C3507 C3505 1.389 . S
C3507 C3508 1.524 . S
C3508 C3507 1.524 . S
C3508 C3509 1.397 . S
C3508 C3513 1.363 . S
C3509 H3480 0.950 . S
C3509 C3508 1.397 . S
C3509 C3510 1.334 . S
C3510 H3481 0.950 . S
C3510 C3509 1.334 . S
C3510 C3511 1.287 . S
C3511 C3510 1.287 . S
C3511 C3512 1.524 . S
C3511 H3514 0.999 . S
C3512 H3482 0.950 . S
C3512 C3511 1.524 . S
C3512 C3513 1.415 . S
C3513 H3483 0.950 . S
C3513 C3508 1.363 . S
C3513 C3512 1.415 . S
H3514 C3511 0.999 . S
H3515 C3496 0.913 . S
H3516 C3534 0.951 . S
H3517 C3536 0.951 . S
H3518 C3538 0.950 . S
H3519 C3539 0.950 . S
H3520 C3541 0.950 . S
H3521 C3544 0.950 . S
H3522 C3545 0.950 . S
H3523 C3547 0.950 . S
H3524 C3548 0.950 . S
H3525 C3549 0.951 . S
H3526 C3551 0.951 . S
H3527 C3553 0.950 . S
H3528 C3554 0.950 . S
H3529 C3556 0.950 . S
H3530 C3559 0.950 . S
H3531 C3560 0.950 . S
H3532 C3562 0.950 . S
H3533 C3563 0.950 . S
C3534 H3516 0.951 . S
C3534 C3535 1.366 . S
C3534 C3536 1.388 . S
C3535 C3534 1.366 . S
C3535 C3539 1.385 . S
C3536 H3517 0.951 . S
C3536 C3534 1.388 . S
C3536 C3537 1.366 . S
C3537 C3536 1.366 . S
C3537 C3538 1.414 . S
C3537 C3540 1.499 . S
C3538 H3518 0.950 . S
C3538 C3537 1.414 . S
C3538 C3539 1.374 . S
C3539 H3519 0.950 . S
C3539 C3535 1.385 . S
C3539 C3538 1.374 . S
C3540 C3537 1.499 . S
C3540 C3541 1.373 . S
C3540 C3542 1.389 . S
C3541 H3520 0.950 . S
C3541 C3540 1.373 . S
C3541 C3557 1.377 . S
C3542 C3540 1.389 . S
C3542 C3543 1.524 . S
C3542 C3556 1.377 . S
C3543 C3542 1.524 . S
C3543 C3544 1.397 . S
C3543 C3548 1.363 . S
C3544 H3521 0.950 . S
C3544 C3543 1.397 . S
C3544 C3545 1.334 . S
C3545 H3522 0.950 . S
C3545 C3544 1.334 . S
C3545 C3546 1.287 . S
C3546 C3545 1.287 . S
C3546 C3547 1.524 . S
C3546 H3565 0.913 . S
C3547 H3523 0.950 . S
C3547 C3546 1.524 . S
C3547 C3548 1.415 . S
C3548 H3524 0.950 . S
C3548 C3543 1.363 . S
C3548 C3547 1.415 . S
C3549 H3525 0.951 . S
C3549 C3550 1.366 . S
C3549 C3551 1.388 . S
C3550 C3549 1.366 . S
C3550 C3554 1.385 . S
C3551 H3526 0.951 . S
C3551 C3549 1.388 . S
C3551 C3552 1.366 . S
C3552 C3551 1.366 . S
C3552 C3553 1.414 . S
C3552 C3555 1.499 . S
C3553 H3527 0.950 . S
C3553 C3552 1.414 . S
C3553 C3554 1.374 . S
C3554 H3528 0.950 . S
C3554 C3550 1.385 . S
C3554 C3553 1.374 . S
C3555 C3552 1.499 . S
C3555 C3556 1.373 . S
C3555 C3557 1.389 . S
C3556 H3529 0.950 . S
C3556 C3542 1.377 . S
C3556 C3555 1.373 . S
C3557 C3541 1.377 . S
C3557 C3555 1.389 . S
C3557 C3558 1.524 . S
C3558 C3557 1.524 . S
C3558 C3559 1.397 . S
C3558 C3563 1.363 . S
C3559 H3530 0.950 . S
C3559 C3558 1.397 . S
C3559 C3560 1.334 . S
C3560 H3531 0.950 . S
C3560 C3559 1.334 . S
C3560 C3561 1.287 . S
C3561 C3560 1.287 . S
C3561 C3562 1.524 . S
C3561 H3564 0.999 . S
C3562 H3532 0.950 . S
C3562 C3561 1.524 . S
C3562 C3563 1.415 . S
C3563 H3533 0.950 . S
C3563 C3558 1.363 . S
C3563 C3562 1.415 . S
H3564 C3561 0.999 . S
H3565 C3546 0.913 . S
H3566 C3584 0.951 . S
H3567 C3586 0.951 . S
H3568 C3588 0.950 . S
H3569 C3589 0.950 . S
H3570 C3591 0.950 . S
H3571 C3594 0.950 . S
H3572 C3595 0.950 . S
H3573 C3597 0.950 . S
H3574 C3598 0.950 . S
H3575 C3599 0.951 . S
H3576 C3601 0.951 . S
H3577 C3603 0.950 . S
H3578 C3604 0.950 . S
H3579 C3606 0.950 . S
H3580 C3609 0.950 . S
H3581 C3610 0.950 . S
H3582 C3612 0.950 . S
H3583 C3613 0.950 . S
C3584 H3566 0.951 . S
C3584 C3585 1.366 . S
C3584 C3586 1.388 . S
C3585 C3584 1.366 . S
C3585 C3589 1.385 . S
C3586 H3567 0.951 . S
C3586 C3584 1.388 . S
C3586 C3587 1.366 . S
C3587 C3586 1.366 . S
C3587 C3588 1.414 . S
C3587 C3590 1.499 . S
C3588 H3568 0.950 . S
C3588 C3587 1.414 . S
C3588 C3589 1.374 . S
C3589 H3569 0.950 . S
C3589 C3585 1.385 . S
C3589 C3588 1.374 . S
C3590 C3587 1.499 . S
C3590 C3591 1.373 . S
C3590 C3592 1.389 . S
C3591 H3570 0.950 . S
C3591 C3590 1.373 . S
C3591 C3607 1.377 1_655 S
C3592 C3590 1.389 . S
C3592 C3593 1.524 . S
C3592 C3606 1.377 1_655 S
C3593 C3592 1.524 . S
C3593 C3594 1.397 . S
C3593 C3598 1.363 . S
C3594 H3571 0.950 . S
C3594 C3593 1.397 . S
C3594 C3595 1.334 . S
C3595 H3572 0.950 . S
C3595 C3594 1.334 . S
C3595 C3596 1.287 . S
C3596 C3595 1.287 . S
C3596 C3597 1.524 . S
C3596 H3615 0.913 . S
C3597 H3573 0.950 . S
C3597 C3596 1.524 . S
C3597 C3598 1.415 . S
C3598 H3574 0.950 . S
C3598 C3593 1.363 . S
C3598 C3597 1.415 . S
C3599 H3575 0.951 . S
C3599 C3600 1.366 . S
C3599 C3601 1.388 . S
C3600 C3599 1.366 . S
C3600 C3604 1.385 . S
C3601 H3576 0.951 . S
C3601 C3599 1.388 . S
C3601 C3602 1.366 . S
C3602 C3601 1.366 . S
C3602 C3603 1.414 . S
C3602 C3605 1.499 . S
C3603 H3577 0.950 . S
C3603 C3602 1.414 . S
C3603 C3604 1.374 . S
C3604 H3578 0.950 . S
C3604 C3600 1.385 . S
C3604 C3603 1.374 . S
C3605 C3602 1.499 . S
C3605 C3606 1.373 . S
C3605 C3607 1.389 . S
C3606 H3579 0.950 . S
C3606 C3592 1.377 1_455 S
C3606 C3605 1.373 . S
C3607 C3591 1.377 1_455 S
C3607 C3605 1.389 . S
C3607 C3608 1.524 . S
C3608 C3607 1.524 . S
C3608 C3609 1.397 . S
C3608 C3613 1.363 . S
C3609 H3580 0.950 . S
C3609 C3608 1.397 . S
C3609 C3610 1.334 . S
C3610 H3581 0.950 . S
C3610 C3609 1.334 . S
C3610 C3611 1.287 . S
C3611 C3610 1.287 . S
C3611 C3612 1.524 . S
C3611 H3614 0.999 . S
C3612 H3582 0.950 . S
C3612 C3611 1.524 . S
C3612 C3613 1.415 . S
C3613 H3583 0.950 . S
C3613 C3608 1.363 . S
C3613 C3612 1.415 . S
H3614 C3611 0.999 . S
H3615 C3596 0.913 . S
C435 C303 1.740 . S
C450 C5 1.744 . S
C485 C263 1.744 . S
C500 C23 1.740 . S
C535 C277 1.740 . S
C550 C29 1.744 . S
C585 C289 1.744 . S
C600 C49 1.740 . S
C635 C55 1.744 . S
C650 C231 1.740 . S
C685 C239 1.744 . S
C700 C69 1.740 . S
C735 C83 1.744 . S
C750 C251 1.740 . S
C785 C95 1.740 . S
C800 C211 1.745 . S
C835 C407 1.726 . S
C850 C114 1.726 . S
C885 C127 1.726 . S
C900 C374 1.726 . S
C935 C140 1.726 . S
C950 C381 1.726 . S
C985 C153 1.726 . S
C1000 C394 1.727 . S
C1035 C160 1.726 . S
C1050 C335 1.725 . S
C1085 C173 1.726 . S
C1100 C342 1.726 . S
C1135 C192 1.726 . S
C1150 C361 1.726 . S
C1185 C199 1.726 . S
C1200 C322 1.726 . S
C1235 C4 1.048 . S
C1250 C161 1.047 . S
C1285 C382 1.043 . S
C1300 C16 1.044 . S
C1335 C36 1.047 . S
C1350 C185 1.048 . S
C1385 C408 1.044 . S
C1400 C42 1.043 . S
C1435 C107 1.048 . S
C1450 C62 1.047 . S
C1485 C70 1.043 . S
C1500 C328 1.044 . S
C1535 C82 1.048 . S
C1550 C133 1.047 . S
C1585 C96 1.043 . S
C1600 C354 1.044 . S
C1635 C278 1.043 . S
C1650 C120 1.044 . S
C1685 C304 1.044 . S
C1700 C146 1.043 . S
C1735 C174 1.044 . S
C1750 C224 1.043 . S
C1785 C252 1.044 . S
C1800 C200 1.043 . S
C1835 C367 1.048 . S
C1850 C218 1.047 . S
C1885 C238 1.047 . S
C1900 C395 1.047 . S
C1935 C315 1.048 . S
C1950 C270 1.047 . S
C1985 C343 1.047 . S
C2000 C296 1.048 . S
C2035 C56 1.037 . S
C2050 C10 1.038 . S
C2085 C68 1.046 . S
C2100 C18 1.045 . S
C2135 C30 1.037 . S
C2150 C88 1.038 . S
C2185 C44 1.046 . S
C2200 C94 1.046 . S
C2235 C159 1.062 . S
C2250 C109 1.061 . S
C2285 C172 1.050 . S
C2300 C122 1.049 . S
C2335 C187 1.062 . S
C2350 C135 1.061 . S
C2385 C148 1.050 . S
C2400 C198 1.050 . S
C2435 C212 1.037 . S
C2450 C264 1.038 . S
C2485 C226 1.046 . S
C2500 C276 1.046 . S
C2535 C244 1.037 . S
C2550 C290 1.037 . S
C2585 C250 1.046 . S
C2600 C302 1.046 . S
C2635 C369 1.061 . S
C2650 C317 1.061 . S
C2685 C380 1.049 . S
C2700 C330 1.049 . S
C2735 C393 1.061 . S
C2750 C341 1.061 . S
C2785 C406 1.049 . S
C2800 C356 1.050 . S
C2835 C400 1.905 . S
C2850 C3 1.900 . S
C2885 C17 1.902 . S
C2900 C205 1.902 . S
C2935 C368 1.905 . S
C2950 C31 1.901 . S
C2985 C43 1.903 . S
C3000 C179 1.902 . S
C3035 C348 1.905 . S
C3050 C57 1.901 . S
C3085 C75 1.902 . S
C3100 C147 1.902 . S
C3135 C81 1.901 . S
C3150 C316 1.905 . S
C3185 C121 1.902 . S
C3200 C101 1.902 . S
C3235 C108 1.905 . S
C3250 C291 1.901 . S
C3285 C265 1.900 . S
C3300 C134 1.905 . S
C3335 C166 1.905 . S
C3350 C237 1.901 . S
C3385 C186 1.905 . S
C3400 C213 1.901 . S
C3435 C413 1.902 . S
C3450 C225 1.902 . S
C3485 C257 1.902 . S
C3500 C387 1.902 . S
C3535 C283 1.902 . S
C3550 C355 1.902 . S
C3585 C329 1.902 . S
C3600 C309 1.902 . S
