# Generated by pormake.
# Topology lcy-e, (6)-cn, num edge types: 1
# Building blocks:
#     Node 0, Type 0, BuildingBlock: BETDIP_clean_sbu_0, # of connection points: 6
#     Node 1, Type 0, BuildingBlock: BETDIP_clean_sbu_0, # of connection points: 6
#     Node 2, Type 0, BuildingBlock: BETDIP_clean_sbu_0, # of connection points: 6
#     Node 3, Type 0, BuildingBlock: BETDIP_clean_sbu_0, # of connection points: 6
#     Node 4, Type 0, BuildingBlock: BETDIP_clean_sbu_0, # of connection points: 6
#     Node 5, Type 0, BuildingBlock: BETDIP_clean_sbu_0, # of connection points: 6
#     Node 6, Type 0, BuildingBlock: BETDIP_clean_sbu_0, # of connection points: 6
#     Node 7, Type 0, BuildingBlock: BETDIP_clean_sbu_0, # of connection points: 6
#     Node 8, Type 0, BuildingBlock: BETDIP_clean_sbu_0, # of connection points: 6
#     Node 9, Type 0, BuildingBlock: BETDIP_clean_sbu_0, # of connection points: 6
#     Node 10, Type 0, BuildingBlock: BETDIP_clean_sbu_0, # of connection points: 6
#     Node 11, Type 0, BuildingBlock: BETDIP_clean_sbu_0, # of connection points: 6
#     Edge 12, Type (0, 0), BuildingBlock: CIFDUS_clean_linker_0, # of connection points: 2
#     Edge 13, Type (0, 0), BuildingBlock: CIFDUS_clean_linker_0, # of connection points: 2
#     Edge 14, Type (0, 0), BuildingBlock: CIFDUS_clean_linker_0, # of connection points: 2
#     Edge 15, Type (0, 0), BuildingBlock: CIFDUS_clean_linker_0, # of connection points: 2
#     Edge 16, Type (0, 0), BuildingBlock: CIFDUS_clean_linker_0, # of connection points: 2
#     Edge 17, Type (0, 0), BuildingBlock: CIFDUS_clean_linker_0, # of connection points: 2
#     Edge 18, Type (0, 0), BuildingBlock: CIFDUS_clean_linker_0, # of connection points: 2
#     Edge 19, Type (0, 0), BuildingBlock: CIFDUS_clean_linker_0, # of connection points: 2
#     Edge 20, Type (0, 0), BuildingBlock: CIFDUS_clean_linker_0, # of connection points: 2
#     Edge 21, Type (0, 0), BuildingBlock: CIFDUS_clean_linker_0, # of connection points: 2
#     Edge 22, Type (0, 0), BuildingBlock: CIFDUS_clean_linker_0, # of connection points: 2
#     Edge 23, Type (0, 0), BuildingBlock: CIFDUS_clean_linker_0, # of connection points: 2
#     Edge 24, Type (0, 0), BuildingBlock: CIFDUS_clean_linker_0, # of connection points: 2
#     Edge 25, Type (0, 0), BuildingBlock: CIFDUS_clean_linker_0, # of connection points: 2
#     Edge 26, Type (0, 0), BuildingBlock: CIFDUS_clean_linker_0, # of connection points: 2
#     Edge 27, Type (0, 0), BuildingBlock: CIFDUS_clean_linker_0, # of connection points: 2
#     Edge 28, Type (0, 0), BuildingBlock: CIFDUS_clean_linker_0, # of connection points: 2
#     Edge 29, Type (0, 0), BuildingBlock: CIFDUS_clean_linker_0, # of connection points: 2
#     Edge 30, Type (0, 0), BuildingBlock: CIFDUS_clean_linker_0, # of connection points: 2
#     Edge 31, Type (0, 0), BuildingBlock: CIFDUS_clean_linker_0, # of connection points: 2
#     Edge 32, Type (0, 0), BuildingBlock: CIFDUS_clean_linker_0, # of connection points: 2
#     Edge 33, Type (0, 0), BuildingBlock: CIFDUS_clean_linker_0, # of connection points: 2
#     Edge 34, Type (0, 0), BuildingBlock: CIFDUS_clean_linker_0, # of connection points: 2
#     Edge 35, Type (0, 0), BuildingBlock: CIFDUS_clean_linker_0, # of connection points: 2
#     Edge 36, Type (0, 0), BuildingBlock: CIFDUS_clean_linker_0, # of connection points: 2
#     Edge 37, Type (0, 0), BuildingBlock: CIFDUS_clean_linker_0, # of connection points: 2
#     Edge 38, Type (0, 0), BuildingBlock: CIFDUS_clean_linker_0, # of connection points: 2
#     Edge 39, Type (0, 0), BuildingBlock: CIFDUS_clean_linker_0, # of connection points: 2
#     Edge 40, Type (0, 0), BuildingBlock: CIFDUS_clean_linker_0, # of connection points: 2
#     Edge 41, Type (0, 0), BuildingBlock: CIFDUS_clean_linker_0, # of connection points: 2
#     Edge 42, Type (0, 0), BuildingBlock: CIFDUS_clean_linker_0, # of connection points: 2
#     Edge 43, Type (0, 0), BuildingBlock: CIFDUS_clean_linker_0, # of connection points: 2
#     Edge 44, Type (0, 0), BuildingBlock: CIFDUS_clean_linker_0, # of connection points: 2
#     Edge 45, Type (0, 0), BuildingBlock: CIFDUS_clean_linker_0, # of connection points: 2
#     Edge 46, Type (0, 0), BuildingBlock: CIFDUS_clean_linker_0, # of connection points: 2
#     Edge 47, Type (0, 0), BuildingBlock: CIFDUS_clean_linker_0, # of connection points: 2
# Relax obj value: 0.207
# Max RMSD: 0.302
# Mean RMSD: 0.282
data_MOF--net-lcy-e--node1-BETDIP_clean_sbu_0--edge1-CIFDUS_clean_linker_0
_symmetry_space_group_name_H-M    P1
_symmetry_Int_Tables_number       1
_symmetry_cell_setting            triclinic
loop_
_symmetry_equiv_pos_as_xyz
'x, y, z'
_cell_length_a     37.288916
_cell_length_b     40.237523
_cell_length_c     40.068924
_cell_angle_alpha  91.426369
_cell_angle_beta   90.466343
_cell_angle_gamma 88.302429
loop_
_atom_site_label
_atom_site_type_symbol
_atom_site_fract_x
_atom_site_fract_y
_atom_site_fract_z
_atom_type_partial_charge
Tb0 Tb 0.14654 0.26756 0.568 0.0
Tb1 Tb 0.11609 0.31257 0.51773 0.0
C2 C 0.15581 0.22644 0.61347 0.0
C3 C 0.13681 0.19654 0.62357 0.0
C4 C 0.10521 0.19889 0.64252 0.0
C5 C 0.08773 0.1701 0.65143 0.0
C6 C 0.10151 0.13846 0.64156 0.0
C7 C 0.1328 0.13631 0.62222 0.0
C8 C 0.15038 0.16492 0.61362 0.0
C9 C 0.1885 0.27312 0.51585 0.0
C10 C 0.07955 0.24395 0.52413 0.0
C11 C 0.09834 0.33806 0.46291 0.0
C12 C 0.11426 0.35988 0.43847 0.0
C13 C 0.15135 0.3651 0.43805 0.0
C14 C 0.16621 0.3839 0.41289 0.0
C15 C 0.14418 0.39785 0.38787 0.0
C16 C 0.10701 0.39268 0.38874 0.0
C17 C 0.09226 0.3739 0.41378 0.0
C18 C 0.09136 0.32282 0.57928 0.0
C19 C 0.17567 0.33981 0.56319 0.0
O20 O 0.1396 0.25556 0.6183 0.0
O21 O 0.17155 0.22385 0.58443 0.0
O22 O 0.15458 0.27154 0.51526 0.0
O23 O 0.19953 0.27121 0.54646 0.0
O24 O 0.10706 0.23498 0.54346 0.0
O25 O 0.0757 0.27474 0.51373 0.0
O26 O 0.11405 0.30882 0.46564 0.0
O27 O 0.08974 0.35136 0.49196 0.0
O28 O 0.09783 0.29542 0.56456 0.0
O29 O 0.09751 0.3465 0.55887 0.0
O30 O 0.16386 0.33885 0.53204 0.0
O31 O 0.16805 0.31587 0.58411 0.0
H32 H 0.09407 0.22288 0.65064 0.0
H33 H 0.06393 0.17263 0.6667 0.0
H34 H 0.14387 0.11242 0.61371 0.0
H35 H 0.17467 0.16223 0.59903 0.0
H36 H 0.16881 0.3543 0.45688 0.0
H37 H 0.19485 0.38766 0.41314 0.0
H38 H 0.08932 0.40258 0.36961 0.0
H39 H 0.06366 0.36983 0.4135 0.0
Tb40 Tb 0.99096 0.91723 0.74338 0.0
Tb41 Tb 0.05286 0.92949 0.79155 0.0
C42 C 0.9317 0.91163 0.71329 0.0
C43 C 0.91399 0.92441 0.68297 0.0
C44 C 0.87732 0.91933 0.6783 0.0
C45 C 0.85938 0.93166 0.65028 0.0
C46 C 0.87768 0.9495 0.62623 0.0
C47 C 0.91474 0.95402 0.63059 0.0
C48 C 0.93275 0.94168 0.65887 0.0
C49 C 0.05046 0.88179 0.73227 0.0
C50 C 0.04634 0.9696 0.72357 0.0
C51 C 0.11425 0.93146 0.81801 0.0
C52 C 0.13651 0.91174 0.8417 0.0
C53 C 0.16394 0.88991 0.82975 0.0
C54 C 0.18618 0.87234 0.85193 0.0
C55 C 0.18157 0.87626 0.8866 0.0
C56 C 0.15414 0.89815 0.8985 0.0
C57 C 0.13194 0.91569 0.87636 0.0
C58 C 0.99297 0.96415 0.8038 0.0
C59 C 0.99681 0.88071 0.81427 0.0
O60 O 0.93728 0.93337 0.73745 0.0
O61 O 0.95919 0.89113 0.70879 0.0
O62 O 0.03695 0.88924 0.76019 0.0
O63 O 0.02934 0.89286 0.70893 0.0
O64 O 0.01314 0.95962 0.71867 0.0
O65 O 0.0666 0.95891 0.74861 0.0
O66 O 0.10786 0.91746 0.78879 0.0
O67 O 0.08605 0.94787 0.82988 0.0
O68 O 1.00614 0.95682 0.7757 0.0
O69 O 0.01536 0.95425 0.82671 0.0
O70 O 0.03104 0.88798 0.81626 0.0
O71 O 0.97577 0.89131 0.7894 0.0
H72 H 0.86242 0.90593 0.69649 0.0
H73 H 0.831 0.92721 0.64746 0.0
H74 H 0.92956 0.96775 0.61263 0.0
H75 H 0.96115 0.94584 0.66208 0.0
H76 H 0.16839 0.88655 0.80317 0.0
H77 H 0.20682 0.85551 0.8419 0.0
H78 H 0.15021 0.90227 0.92505 0.0
H79 H 0.11146 0.93262 0.88651 0.0
Tb80 Tb 0.37246 0.80158 0.06383 0.0
Tb81 Tb 0.39841 0.75827 1.00604 0.0
C82 C 0.36863 0.83784 0.11574 0.0
C83 C 0.3795 0.87174 0.12598 0.0
C84 C 0.41503 0.87809 0.13575 0.0
C85 C 0.4244 0.90982 0.14721 0.0
C86 C 0.39845 0.93586 0.14927 0.0
C87 C 0.36316 0.92963 0.13871 0.0
C88 C 0.35377 0.89793 0.1274 0.0
C89 C 0.33235 0.80528 1.00993 0.0
C90 C 0.43831 0.82427 1.01894 0.0
C91 C 0.40408 0.72864 0.95024 0.0
C92 C 0.38343 0.71074 0.92447 0.0
C93 C 0.39404 0.71298 0.89116 0.0
C94 C 0.37614 0.69564 0.8658 0.0
C95 C 0.34714 0.67563 0.87324 0.0
C96 C 0.33588 0.67415 0.90668 0.0
C97 C 0.35386 0.69165 0.93213 0.0
C98 C 0.43577 0.75271 0.06215 0.0
C99 C 0.33881 0.73172 0.054 0.0
O100 O 0.39432 0.81553 0.11025 0.0
O101 O 0.34276 0.83583 0.09356 0.0
O102 O 0.36628 0.80319 1.01058 0.0
O103 O 0.32036 0.80769 0.04016 0.0
O104 O 0.41673 0.83079 0.04459 0.0
O105 O 0.43506 0.79773 0.99943 0.0
O106 O 0.3961 0.76038 0.95397 0.0
O107 O 0.4102 0.71409 0.97876 0.0
O108 O 0.40258 0.75679 0.05882 0.0
O109 O 0.44962 0.74807 0.03269 0.0
O110 O 0.35219 0.73085 1.02338 0.0
O111 O 0.34694 0.75543 0.07615 0.0
H112 H 0.43551 0.85844 0.13519 0.0
H113 H 0.4517 0.91362 0.15556 0.0
H114 H 0.3426 0.94921 0.13954 0.0
H115 H 0.32616 0.89382 0.12018 0.0
H116 H 0.41674 0.72774 0.8848 0.0
H117 H 0.38594 0.69694 0.84051 0.0
H118 H 0.31344 0.65918 0.9132 0.0
H119 H 0.345 0.68993 0.95769 0.0
Tb120 Tb 0.53255 0.15839 0.25248 0.0
Tb121 Tb 0.47207 0.14062 0.29789 0.0
C122 C 0.58224 0.16138 0.21066 0.0
C123 C 0.59806 0.14073 0.18315 0.0
C124 C 0.63518 0.13428 0.18305 0.0
C125 C 0.65139 0.11695 0.15628 0.0
C126 C 0.63086 0.10571 0.12882 0.0
C127 C 0.59355 0.11183 0.12905 0.0
C128 C 0.57725 0.12904 0.15604 0.0
C129 C 0.47977 0.20262 0.25677 0.0
C130 C 0.47881 0.1008 0.23134 0.0
C131 C 0.41542 0.14154 0.33224 0.0
C132 C 0.39156 0.16315 0.35334 0.0
C133 C 0.40361 0.19174 0.37023 0.0
C134 C 0.38017 0.21077 0.39091 0.0
C135 C 0.34421 0.20162 0.39508 0.0
C136 C 0.33231 0.1733 0.37744 0.0
C137 C 0.35568 0.15437 0.35687 0.0
C138 C 0.52956 0.09912 0.29903 0.0
C139 C 0.53041 0.19065 0.32387 0.0
O140 O 0.58721 0.15085 0.24106 0.0
O141 O 0.54977 0.17367 0.2059 0.0
O142 O 0.47621 0.17146 0.25524 0.0
O143 O 0.51319 0.20951 0.25411 0.0
O144 O 0.51095 0.11348 0.22815 0.0
O145 O 0.45669 0.11098 0.25514 0.0
O146 O 0.41616 0.14802 0.30044 0.0
O147 O 0.44725 0.13332 0.34401 0.0
O148 O 0.52862 0.13001 0.29578 0.0
O149 O 0.49704 0.09076 0.3058 0.0
O150 O 0.49658 0.18177 0.32518 0.0
O151 O 0.55187 0.18134 0.29885 0.0
H152 H 0.65182 0.14322 0.20347 0.0
H153 H 0.68026 0.1131 0.15671 0.0
H154 H 0.57699 0.10327 0.10842 0.0
H155 H 0.54847 0.13354 0.15544 0.0
H156 H 0.43113 0.19916 0.3677 0.0
H157 H 0.39028 0.23262 0.40373 0.0
H158 H 0.30515 0.16504 0.3803 0.0
H159 H 0.34581 0.13241 0.34404 0.0
Tb160 Tb 0.64508 0.25344 0.56754 0.0
Tb161 Tb 0.65172 0.31081 0.5192 0.0
C162 C 0.65341 0.20461 0.60493 0.0
C163 C 0.67603 0.19039 0.63176 0.0
C164 C 0.68265 0.15594 0.63143 0.0
C165 C 0.69566 0.14028 0.66 0.0
C166 C 0.70214 0.15878 0.6896 0.0
C167 C 0.69859 0.19365 0.689 0.0
C168 C 0.68557 0.20936 0.6603 0.0
C169 C 0.59304 0.29882 0.56953 0.0
C170 C 0.70175 0.30952 0.58293 0.0
C171 C 0.64922 0.36813 0.49517 0.0
C172 C 0.62765 0.38999 0.4729 0.0
C173 C 0.59377 0.40302 0.48272 0.0
C174 C 0.57618 0.42782 0.46437 0.0
C175 C 0.59223 0.44053 0.43596 0.0
C176 C 0.62543 0.42657 0.42538 0.0
C177 C 0.64295 0.40164 0.44368 0.0
C178 C 0.68687 0.25476 0.50319 0.0
C179 C 0.60005 0.25503 0.50062 0.0
O180 O 0.66612 0.20475 0.57446 0.0
O181 O 0.63444 0.23155 0.61274 0.0
O182 O 0.62581 0.30365 0.56539 0.0
O183 O 0.58888 0.26779 0.57574 0.0
O184 O 0.68523 0.28322 0.59399 0.0
O185 O 0.69484 0.32227 0.55343 0.0
O186 O 0.63443 0.36042 0.52334 0.0
O187 O 0.66806 0.34322 0.48188 0.0
O188 O 0.68282 0.26768 0.53182 0.0
O189 O 0.672 0.27435 0.48138 0.0
O190 O 0.60404 0.28756 0.50038 0.0
O191 O 0.61706 0.23561 0.52242 0.0
H192 H 0.67555 0.14081 0.60975 0.0
H193 H 0.6988 0.11342 0.6595 0.0
H194 H 0.70337 0.20858 0.71137 0.0
H195 H 0.68084 0.23606 0.6612 0.0
H196 H 0.58147 0.39516 0.50543 0.0
H197 H 0.55084 0.43821 0.47342 0.0
H198 H 0.63831 0.43549 0.40332 0.0
H199 H 0.66915 0.39239 0.43567 0.0
Tb200 Tb 1.0007 0.39836 0.78051 0.0
Tb201 Tb 0.05208 0.38366 0.83571 0.0
C202 C 0.96823 0.40804 0.72635 0.0
C203 C 0.93493 0.39448 0.71312 0.0
C204 C 0.92681 0.39668 0.67912 0.0
C205 C 0.89591 0.38227 0.66618 0.0
C206 C 0.87281 0.36537 0.68711 0.0
C207 C 0.88124 0.36307 0.7212 0.0
C208 C 0.91207 0.37758 0.73412 0.0
C209 C 0.98481 0.42884 0.83835 0.0
C210 C 0.98309 0.33848 0.82437 0.0
C211 C 0.07996 0.37513 0.8924 0.0
C212 C 0.09729 0.39391 0.91988 0.0
C213 C 0.08508 0.42598 0.92992 0.0
C214 C 0.1003 0.442 0.95783 0.0
C215 C 0.12785 0.42616 0.97629 0.0
C216 C 0.14048 0.39439 0.96559 0.0
C217 C 0.12532 0.37847 0.93772 0.0
C218 C 0.07005 0.35591 0.77705 0.0
C219 C 0.07076 0.44043 0.79106 0.0
O220 O 0.99443 0.38615 0.72976 0.0
O221 O 0.96488 0.42787 0.75254 0.0
O222 O 0.01545 0.42394 0.82592 0.0
O223 O 0.96147 0.4167 0.81762 0.0
O224 O 0.97568 0.35326 0.79599 0.0
O225 O 1.01012 0.34772 0.84376 0.0
O226 O 0.04569 0.38135 0.88739 0.0
O227 O 0.09779 0.37131 0.86449 0.0
O228 O 0.03895 0.35932 0.7891 0.0
O229 O 0.09273 0.3657 0.79964 0.0
O230 O 0.07129 0.43174 0.82254 0.0
O231 O 0.0484 0.4268 0.76921 0.0
H232 H 0.9445 0.40924 0.66257 0.0
H233 H 0.89031 0.384 0.6397 0.0
H234 H 0.86378 0.35044 0.7379 0.0
H235 H 0.91814 0.37553 0.76047 0.0
H236 H 0.06335 0.43835 0.91666 0.0
H237 H 0.08984 0.46638 0.96548 0.0
H238 H 0.16212 0.38173 0.9788 0.0
H239 H 0.13514 0.35375 0.93041 0.0
Tb240 Tb 0.90181 0.80699 0.05641 0.0
Tb241 Tb 0.88479 0.74625 1.01121 0.0
C242 C 0.89716 0.85967 0.09182 0.0
C243 C 0.88548 0.87178 0.12513 0.0
C244 C 0.88642 0.90593 0.13251 0.0
C245 C 0.87624 0.91851 0.16393 0.0
C246 C 0.8648 0.89719 0.18879 0.0
C247 C 0.86311 0.86291 0.18111 0.0
C248 C 0.87354 0.85026 0.14951 0.0
C249 C 0.94469 0.75491 0.06301 0.0
C250 C 0.84215 0.75502 0.07737 0.0
C251 C 0.89383 0.69135 0.98135 0.0
C252 C 0.90035 0.65843 0.96466 0.0
C253 C 0.92723 0.63655 0.97678 0.0
C254 C 0.93343 0.60525 0.96153 0.0
C255 C 0.91309 0.59502 0.93356 0.0
C256 C 0.88612 0.61703 0.9215 0.0
C257 C 0.87975 0.6483 0.93696 0.0
C258 C 0.84351 0.80002 1.00362 0.0
C259 C 0.93785 0.80166 0.98508 0.0
O260 O 0.87197 0.84979 0.07129 0.0
O261 O 0.92579 0.84007 0.0906 0.0
O262 O 0.91125 0.75444 0.05811 0.0
O263 O 0.95445 0.78534 0.06748 0.0
O264 O 0.85679 0.78449 0.08211 0.0
O265 O 0.85247 0.73395 0.05326 0.0
O266 O 0.91789 0.70437 1.00138 0.0
O267 O 0.8645 0.70979 0.97745 0.0
O268 O 0.87622 0.7981 1.01043 0.0
O269 O 0.83261 0.77014 0.99666 0.0
O270 O 0.92483 0.77137 0.98129 0.0
O271 O 0.92964 0.82142 1.01121 0.0
H272 H 0.89524 0.92296 0.11393 0.0
H273 H 0.87724 0.94508 0.16874 0.0
H274 H 0.85455 0.84583 0.19972 0.0
H275 H 0.8726 0.82378 0.14422 0.0
H276 H 0.94332 0.64348 0.99834 0.0
H277 H 0.95394 0.58891 0.97201 0.0
H278 H 0.87022 0.61036 0.89975 0.0
H279 H 0.85889 0.66465 0.92703 0.0
Tb280 Tb 0.48718 0.66242 0.31428 0.0
Tb281 Tb 0.54597 0.6385 0.26827 0.0
C282 C 0.43042 0.67438 0.34605 0.0
C283 C 0.42109 0.66771 0.38077 0.0
C284 C 0.38558 0.67192 0.39156 0.0
C285 C 0.37579 0.66119 0.4231 0.0
C286 C 0.40135 0.6458 0.44419 0.0
C287 C 0.43719 0.64267 0.4336 0.0
C288 C 0.44695 0.65354 0.40219 0.0
C289 C 0.5508 0.68795 0.32805 0.0
C290 C 0.53936 0.60468 0.33612 0.0
C291 C 0.60046 0.63038 0.23232 0.0
C292 C 0.62482 0.64979 0.21192 0.0
C293 C 0.65571 0.66357 0.22634 0.0
C294 C 0.6813 0.67794 0.2064 0.0
C295 C 0.67669 0.67864 0.1716 0.0
C296 C 0.6451 0.66612 0.15734 0.0
C297 C 0.6195 0.65174 0.17726 0.0
C298 C 0.48597 0.60395 0.26664 0.0
C299 C 0.49468 0.69633 0.24362 0.0
O300 O 0.43616 0.64748 0.32753 0.0
O301 O 0.4548 0.6967 0.34171 0.0
O302 O 0.53757 0.68211 0.29952 0.0
O303 O 0.52772 0.67939 0.34998 0.0
O304 O 0.50549 0.61543 0.3366 0.0
O305 O 0.56216 0.61619 0.31469 0.0
O306 O 0.60182 0.63559 0.26474 0.0
O307 O 0.56763 0.6265 0.2212 0.0
O308 O 0.48964 0.63449 0.26949 0.0
O309 O 0.51765 0.59041 0.26266 0.0
O310 O 0.52618 0.68073 0.24015 0.0
O311 O 0.47404 0.69194 0.27 0.0
H312 H 0.36521 0.68244 0.37518 0.0
H313 H 0.34791 0.66363 0.43038 0.0
H314 H 0.45757 0.63128 0.44937 0.0
H315 H 0.47449 0.64988 0.39416 0.0
H316 H 0.66086 0.66218 0.25292 0.0
H317 H 0.70551 0.68704 0.21811 0.0
H318 H 0.64056 0.66671 0.13062 0.0
H319 H 0.59611 0.64119 0.16535 0.0
Tb320 Tb 0.29045 0.49618 0.17437 0.0
Tb321 Tb 0.22617 0.54075 0.18439 0.0
C322 C 0.34921 0.46461 0.16859 0.0
C323 C 0.36283 0.43407 0.18477 0.0
C324 C 0.36332 0.43168 0.21974 0.0
C325 C 0.37513 0.40229 0.23469 0.0
C326 C 0.38632 0.37455 0.21503 0.0
C327 C 0.38522 0.37674 0.18007 0.0
C328 C 0.37372 0.40629 0.1651 0.0
C329 C 0.23141 0.47706 0.14366 0.0
C330 C 0.24004 0.47969 0.23305 0.0
C331 C 0.16248 0.56301 0.18684 0.0
C332 C 0.13929 0.58482 0.16667 0.0
C333 C 0.10331 0.59007 0.17557 0.0
C334 C 0.08108 0.61159 0.1573 0.0
C335 C 0.09456 0.62824 0.12983 0.0
C336 C 0.13056 0.62226 0.12057 0.0
C337 C 0.15276 0.60069 0.13885 0.0
C338 C 0.28461 0.56173 0.21454 0.0
C339 C 0.27937 0.56215 0.13146 0.0
O340 O 0.34473 0.49112 0.18783 0.0
O341 O 0.32234 0.46072 0.14788 0.0
O342 O 0.24255 0.50627 0.14589 0.0
O343 O 0.25375 0.45743 0.15895 0.0
O344 O 0.27264 0.47488 0.22076 0.0
O345 O 0.2174 0.50224 0.22077 0.0
O346 O 0.17187 0.5344 0.17278 0.0
O347 O 0.18933 0.57721 0.20216 0.0
O348 O 0.27513 0.53193 0.21171 0.0
O349 O 0.25927 0.5811 0.20293 0.0
O350 O 0.24531 0.56351 0.14013 0.0
O351 O 0.30229 0.53945 0.14358 0.0
H352 H 0.35454 0.45247 0.23565 0.0
H353 H 0.37552 0.40123 0.26168 0.0
H354 H 0.39414 0.35588 0.16433 0.0
H355 H 0.37329 0.40744 0.13811 0.0
H356 H 0.09254 0.57793 0.19698 0.0
H357 H 0.05367 0.61601 0.16538 0.0
H358 H 0.14164 0.63446 0.09934 0.0
H359 H 0.18047 0.59671 0.13153 0.0
Tb360 Tb 0.79822 0.05438 0.92895 0.0
Tb361 Tb 0.73449 1.01549 0.90432 0.0
C362 C 0.85561 0.0854 0.93452 0.0
C363 C 0.87162 0.11468 0.91996 0.0
C364 C 0.90892 0.11756 0.92104 0.0
C365 C 0.92473 0.14623 0.90982 0.0
C366 C 0.90348 0.17271 0.89735 0.0
C367 C 0.86608 0.16922 0.89514 0.0
C368 C 0.85026 0.14044 0.90642 0.0
C369 C 0.74159 0.06053 0.96655 0.0
C370 C 0.75083 0.07926 0.8662 0.0
C371 C 0.6753 0.98723 0.89931 0.0
C372 C 0.65221 0.96401 0.91655 0.0
C373 C 0.64379 0.96783 0.95063 0.0
C374 C 0.61942 0.9467 0.96527 0.0
C375 C 0.60329 0.92134 0.94611 0.0
C376 C 0.61215 0.91759 0.91212 0.0
C377 C 0.63628 0.93866 0.89758 0.0
C378 C 0.79606 1.00468 0.87209 0.0
C379 C 0.78504 0.98527 0.96089 0.0
O380 O 0.85184 0.05941 0.91459 0.0
O381 O 0.82756 0.09128 0.95344 0.0
O382 O 0.74102 0.05953 0.93487 0.0
O383 O 0.77431 0.06062 0.97753 0.0
O384 O 0.78065 0.08167 0.88428 0.0
O385 O 0.72659 0.05705 0.87218 0.0
O386 O 0.67921 1.01677 0.91313 0.0
O387 O 0.70512 0.9749 0.88639 0.0
O388 O 0.79088 1.00969 0.90247 0.0
O389 O 0.76481 1.00266 0.85768 0.0
O390 O 0.75225 0.9869 0.94781 0.0
O391 O 0.80943 1.00739 0.95359 0.0
H392 H 0.92584 0.09785 0.93119 0.0
H393 H 0.95365 0.14783 0.91127 0.0
H394 H 0.84896 0.18918 0.88582 0.0
H395 H 0.82135 0.13865 0.90535 0.0
H396 H 0.65568 0.98729 0.96584 0.0
H397 H 0.61336 0.95006 0.99154 0.0
H398 H 0.59981 0.89873 0.89647 0.0
H399 H 0.64202 0.93552 0.8712 0.0
Tb400 Tb 0.72125 0.99489 0.41336 0.0
Tb401 Tb 0.78317 0.03973 0.40051 0.0
C402 C 0.66729 0.95862 0.4083 0.0
C403 C 0.65864 0.9232 0.40299 0.0
C404 C 0.67868 0.90183 0.38145 0.0
C405 C 0.66858 0.8688 0.3758 0.0
C406 C 0.63842 0.85644 0.39181 0.0
C407 C 0.61876 0.87795 0.4136 0.0
C408 C 0.62875 0.91088 0.41906 0.0
C409 C 0.77297 0.99126 0.45801 0.0
C410 C 0.78101 0.97377 0.35824 0.0
C411 C 0.83915 0.07356 0.40437 0.0
C412 C 0.86292 0.09416 0.42593 0.0
C413 C 0.89915 0.08416 0.42959 0.0
C414 C 0.92393 0.10529 0.44491 0.0
C415 C 0.91318 0.13718 0.45689 0.0
C416 C 0.87648 0.14656 0.45462 0.0
C417 C 0.85166 0.12537 0.43925 0.0
C418 C 0.72665 0.04531 0.3592 0.0
C419 C 0.7224 0.06511 0.44882 0.0
O420 O 0.68135 0.97371 0.38318 0.0
O421 O 0.68242 0.96679 0.43679 0.0
O422 O 0.77743 0.99425 0.42693 0.0
O423 O 0.73943 0.98699 0.46398 0.0
O424 O 0.75035 0.96732 0.37308 0.0
O425 O 0.79991 0.99989 0.36667 0.0
O426 O 0.83864 0.04162 0.40982 0.0
O427 O 0.80757 0.08579 0.3956 0.0
O428 O 0.72711 0.04019 0.38973 0.0
O429 O 0.75936 0.05113 0.35064 0.0
O430 O 0.75759 0.06263 0.4449 0.0
O431 O 0.70131 0.04334 0.4334 0.0
H432 H 0.70196 0.91071 0.36885 0.0
H433 H 0.68451 0.85289 0.3591 0.0
H434 H 0.59507 0.86955 0.42595 0.0
H435 H 0.61277 0.92693 0.43562 0.0
H436 H 0.90872 0.06042 0.41923 0.0
H437 H 0.95187 0.09721 0.44578 0.0
H438 H 0.867 0.17067 0.46406 0.0
H439 H 0.82397 0.13392 0.43686 0.0
Tb440 Tb 0.30544 0.52561 0.66119 0.0
Tb441 Tb 0.24462 0.57455 0.6543 0.0
C442 C 0.35461 0.48222 0.65337 0.0
C443 C 0.38616 0.47308 0.63279 0.0
C444 C 0.38237 0.45681 0.60152 0.0
C445 C 0.41219 0.44168 0.58584 0.0
C446 C 0.44608 0.44238 0.60132 0.0
C447 C 0.45026 0.46093 0.63117 0.0
C448 C 0.42056 0.47603 0.64682 0.0
C449 C 0.30274 0.57224 0.70791 0.0
C450 C 0.31035 0.5855 0.61126 0.0
C451 C 0.19527 0.61746 0.66488 0.0
C452 C 0.18813 0.65339 0.67052 0.0
C453 C 0.19791 0.6772 0.64745 0.0
C454 C 0.18679 0.71058 0.65205 0.0
C455 C 0.16579 0.72065 0.67977 0.0
C456 C 0.15727 0.69682 0.70331 0.0
C457 C 0.1683 0.66363 0.69869 0.0
C458 C 0.24267 0.52129 0.61284 0.0
C459 C 0.23815 0.51466 0.70424 0.0
O460 O 0.32281 0.48018 0.63946 0.0
O461 O 0.35715 0.50812 0.67358 0.0
O462 O 0.29651 0.57681 0.67723 0.0
O463 O 0.31274 0.54165 0.71256 0.0
O464 O 0.31944 0.5541 0.61719 0.0
O465 O 0.28502 0.6013 0.6287 0.0
O466 O 0.20492 0.60693 0.63501 0.0
O467 O 0.21267 0.60191 0.68857 0.0
O468 O 0.25273 0.52301 0.6425 0.0
O469 O 0.22957 0.55045 0.60581 0.0
O470 O 0.22751 0.54512 0.69638 0.0
O471 O 0.26622 0.4997 0.68981 0.0
H472 H 0.35617 0.454 0.59012 0.0
H473 H 0.40824 0.42735 0.56292 0.0
H474 H 0.47623 0.46208 0.64342 0.0
H475 H 0.42428 0.48827 0.67093 0.0
H476 H 0.21331 0.66996 0.62551 0.0
H477 H 0.19408 0.72838 0.63363 0.0
H478 H 0.14061 0.70345 0.72461 0.0
H479 H 0.16022 0.64566 0.71667 0.0
H480 H 0.17789 0.39949 0.53285 0.0
H481 H 0.21419 0.34869 0.62114 0.0
H482 H 0.24088 0.39991 0.64253 0.0
H483 H 0.25147 0.45945 0.63725 0.0
H484 H 0.21049 0.5116 0.55168 0.0
H485 H 0.18872 0.45919 0.52759 0.0
C486 C 0.19202 0.39941 0.55661 0.0
C487 C 0.19424 0.37008 0.57527 0.0
C488 C 0.20644 0.42919 0.56915 0.0
C489 C 0.21218 0.37076 0.60622 0.0
C490 C 0.22741 0.40007 0.61846 0.0
C491 C 0.23778 0.45943 0.61333 0.0
C492 C 0.23234 0.48949 0.5964 0.0
C493 C 0.22431 0.42949 0.60033 0.0
C494 C 0.21494 0.48886 0.56522 0.0
C495 C 0.2024 0.45892 0.55155 0.0
H496 H 0.83081 1.01617 0.81322 0.0
H497 H 0.83937 0.96198 0.90464 0.0
H498 H 0.90076 0.94477 0.89161 0.0
H499 H 0.9535 0.94766 0.8564 0.0
H500 H 0.94711 1.00074 0.76446 0.0
H501 H 0.88385 1.01592 0.77536 0.0
C502 C 0.846 1.00004 0.82977 0.0
C503 C 0.8306 0.99038 0.85983 0.0
C504 C 0.88194 0.9905 0.82234 0.0
C505 C 0.85068 0.96987 0.88141 0.0
C506 C 0.88589 0.96008 0.87408 0.0
C507 C 0.93827 0.96265 0.83881 0.0
C508 C 0.95488 0.97341 0.80991 0.0
C509 C 0.90206 0.97084 0.84506 0.0
C510 C 0.93476 0.99233 0.787 0.0
C511 C 0.89862 1.00092 0.7932 0.0
H512 H 0.35886 0.66698 0.0456 0.0
H513 H 0.27765 0.73178 0.0903 0.0
H514 H 0.25002 0.68399 0.11549 0.0
H515 H 0.25175 0.62473 0.12815 0.0
H516 H 0.33716 0.56063 0.08939 0.0
H517 H 0.36056 0.60711 0.05846 0.0
C518 C 0.3347 0.67041 0.06035 0.0
C519 C 0.3198 0.70264 0.06572 0.0
C520 C 0.32009 0.64302 0.07604 0.0
C521 C 0.28922 0.7071 0.08564 0.0
C522 C 0.27359 0.67983 0.1001 0.0
C523 C 0.2752 0.62076 0.11253 0.0
C524 C 0.29252 0.58918 0.11074 0.0
C525 C 0.28917 0.6478 0.09596 0.0
C526 C 0.32333 0.58467 0.09105 0.0
C527 C 0.33668 0.61123 0.07341 0.0
H528 H 0.59619 0.09957 0.27199 0.0
H529 H 0.53696 0.05833 0.35207 0.0
H530 H 0.59295 0.03683 0.37686 0.0
H531 H 0.65873 0.03475 0.3786 0.0
H532 H 0.71881 0.07457 0.29809 0.0
H533 H 0.66249 0.09246 0.27075 0.0
C534 C 0.59561 0.08585 0.29476 0.0
C535 C 0.56252 0.08103 0.31041 0.0
C536 C 0.62803 0.07372 0.3089 0.0
C537 C 0.56201 0.06228 0.33946 0.0
C538 C 0.59407 0.05025 0.35378 0.0
C539 C 0.65964 0.0467 0.35473 0.0
C540 C 0.69305 0.05327 0.3404 0.0
C541 C 0.62725 0.05652 0.33914 0.0
C542 C 0.69354 0.06918 0.30962 0.0
C543 C 0.66132 0.07944 0.29406 0.0
H544 H 0.65486 0.20987 0.46179 0.0
H545 H 0.74181 0.22069 0.53228 0.0
H546 H 0.75941 0.16193 0.52374 0.0
H547 H 0.75121 0.10799 0.49441 0.0
H548 H 0.66038 0.09598 0.4283 0.0
H549 H 0.64225 0.15427 0.43785 0.0
C550 C 0.67762 0.19928 0.47522 0.0
C551 C 0.69753 0.21954 0.49711 0.0
C552 C 0.68643 0.16515 0.47142 0.0
C553 C 0.72651 0.20551 0.51495 0.0
C554 C 0.73639 0.17193 0.51023 0.0
C555 C 0.72703 0.11799 0.48269 0.0
C556 C 0.70721 0.09766 0.46072 0.0
C557 C 0.71664 0.15153 0.48841 0.0
C558 C 0.67591 0.11093 0.44566 0.0
C559 C 0.66577 0.14442 0.45075 0.0
H560 H 0.11269 0.42427 0.73994 0.0
H561 H 0.09474 0.49954 0.81649 0.0
H562 H 0.14722 0.52937 0.79739 0.0
H563 H 0.19761 0.53352 0.75764 0.0
H564 H 0.22026 0.45179 0.68852 0.0
H565 H 0.16742 0.42359 0.70709 0.0
C566 C 0.12056 0.44697 0.75257 0.0
C567 C 0.10005 0.46009 0.77904 0.0
C568 C 0.15191 0.46218 0.74326 0.0
C569 C 0.11018 0.48948 0.7956 0.0
C570 C 0.14022 0.50623 0.78491 0.0
C571 C 0.19131 0.50916 0.74736 0.0
C572 C 0.21244 0.49473 0.7217 0.0
C573 C 0.16136 0.49267 0.75878 0.0
C574 C 0.20442 0.4632 0.70845 0.0
C575 C 0.174 0.44726 0.71874 0.0
H576 H 0.7494 0.92693 0.96523 0.0
H577 H 0.84869 0.9737 0.99257 0.0
H578 H 0.87456 0.92025 1.0087 0.0
H579 H 0.87159 0.86035 1.00896 0.0
H580 H 0.7731 0.81174 0.98412 0.0
H581 H 0.74438 0.86607 0.97201 0.0
C582 C 0.77642 0.92557 0.97541 0.0
C583 C 0.79721 0.95435 0.97734 0.0
C584 C 0.79146 0.89448 0.98428 0.0
C585 C 0.83216 0.95204 0.99058 0.0
C586 C 0.84709 0.92142 0.99963 0.0
C587 C 0.84353 0.86148 1.00178 0.0
C588 C 0.82438 0.83208 0.99778 0.0
C589 C 0.82736 0.89248 0.99561 0.0
C590 C 0.78836 0.83408 0.98744 0.0
C591 C 0.772 0.86511 0.98063 0.0
H592 H 0.4262 0.63703 0.24811 0.0
H593 H 0.46673 0.53805 0.26815 0.0
H594 H 0.40684 0.51596 0.25614 0.0
H595 H 0.34243 0.52575 0.24011 0.0
H596 H 0.30624 0.62494 0.21497 0.0
H597 H 0.36464 0.64625 0.23007 0.0
C598 C 0.42207 0.61055 0.24993 0.0
C599 C 0.4508 0.58917 0.2591 0.0
C600 C 0.38818 0.59822 0.24236 0.0
C601 C 0.44501 0.55496 0.26104 0.0
C602 C 0.41078 0.54242 0.25428 0.0
C603 C 0.34767 0.55182 0.23723 0.0
C604 C 0.32015 0.57356 0.22569 0.0
C605 C 0.38211 0.56387 0.2448 0.0
C606 C 0.32688 0.6076 0.22357 0.0
C607 C 0.36036 0.61985 0.23209 0.0
H608 H 0.51998 0.17441 0.38739 0.0
H609 H 0.57477 0.24326 0.32635 0.0
H610 H 0.5992 0.27067 0.37666 0.0
H611 H 0.60542 0.27413 0.4375 0.0
H612 H 0.55659 0.20135 0.4984 0.0
H613 H 0.52903 0.17598 0.44838 0.0
C614 C 0.53711 0.19559 0.38525 0.0
C615 C 0.54533 0.20734 0.35354 0.0
C616 C 0.55191 0.21026 0.41406 0.0
C617 C 0.56814 0.23411 0.35068 0.0
C618 C 0.58197 0.24969 0.37933 0.0
C619 C 0.58833 0.25295 0.43984 0.0
C620 C 0.58216 0.23994 0.47146 0.0
C621 C 0.57401 0.23792 0.41107 0.0
C622 C 0.56117 0.21187 0.47423 0.0
C623 C 0.54557 0.19743 0.44572 0.0
H624 H 0.13075 0.35059 0.62965 0.0
H625 H 0.03075 0.30306 0.60929 0.0
H626 H 0.01452 0.30884 0.66851 0.0
H627 H 0.02917 0.3276 0.72664 0.0
H628 H 0.13318 0.36771 0.74715 0.0
H629 H 0.14793 0.3637 0.68796 0.0
C630 C 0.10546 0.34147 0.63821 0.0
C631 C 0.08169 0.3269 0.61508 0.0
C632 C 0.09716 0.34336 0.67254 0.0
C633 C 0.04926 0.3147 0.62663 0.0
C634 C 0.04007 0.31789 0.66051 0.0
C635 C 0.05494 0.33563 0.71806 0.0
C636 C 0.07937 0.3494 0.74124 0.0
C637 C 0.06381 0.33222 0.6838 0.0
C638 C 0.11336 0.35803 0.72985 0.0
C639 C 0.12188 0.35576 0.69591 0.0
H640 H 0.02041 0.8812 0.87796 0.0
H641 H 0.93932 0.83948 0.81342 0.0
H642 H 0.91572 0.80913 0.86051 0.0
H643 H 0.91768 0.79555 0.92036 0.0
H644 H 0.9952 0.84192 0.98538 0.0
H645 H 0.02116 0.86924 0.93758 0.0
C646 C 0.99774 0.86522 0.87407 0.0
C647 C 0.9819 0.86216 0.84214 0.0
C648 C 0.9839 0.84868 0.90132 0.0
C649 C 0.95202 0.84209 0.83772 0.0
C650 C 0.93862 0.82473 0.86461 0.0
C651 C 0.9406 0.81127 0.92389 0.0
C652 C 0.95511 0.8163 0.95613 0.0
C653 C 0.95435 0.82788 0.89652 0.0
C654 C 0.98399 0.83749 0.9607 0.0
C655 C 0.99868 0.85314 0.93343 0.0
H656 H 0.52962 0.71018 0.18634 0.0
H657 H 0.42688 0.72293 0.23483 0.0
H658 H 0.40024 0.74321 0.18304 0.0
H659 H 0.40466 0.75154 0.12282 0.0
H660 H 0.50684 0.73834 0.07387 0.0
H661 H 0.53515 0.72338 0.12711 0.0
C662 C 0.5015 0.71789 0.18585 0.0
C663 C 0.48025 0.71477 0.21455 0.0
C664 C 0.48616 0.72885 0.15577 0.0
C665 C 0.44394 0.72507 0.21328 0.0
C666 C 0.42859 0.73642 0.18355 0.0
C667 C 0.43327 0.746 0.12387 0.0
C668 C 0.45369 0.74603 0.09446 0.0
C669 C 0.44922 0.73752 0.15446 0.0
C670 C 0.49059 0.73838 0.09616 0.0
C671 C 0.50673 0.72988 0.12658 0.0
H672 H 0.20599 0.38516 0.35239 0.0
H673 H 0.11674 0.45547 0.36247 0.0
H674 H 0.13862 0.48648 0.31577 0.0
H675 H 0.18178 0.49314 0.27143 0.0
H676 H 0.27234 0.42446 0.26101 0.0
H677 H 0.25146 0.39355 0.30877 0.0
C678 C 0.1916 0.4075 0.34462 0.0
C679 C 0.15948 0.41771 0.36078 0.0
C680 C 0.20446 0.42545 0.31764 0.0
C681 C 0.14108 0.44661 0.35016 0.0
C682 C 0.15367 0.46449 0.32352 0.0
C683 C 0.19707 0.47138 0.27946 0.0
C684 C 0.22846 0.46101 0.26239 0.0
C685 C 0.18505 0.45395 0.30688 0.0
C686 C 0.24804 0.43298 0.27359 0.0
C687 C 0.23608 0.41528 0.3009 0.0
H688 H 0.89599 0.94941 0.55956 0.0
H689 H 0.81349 0.98282 0.62867 0.0
H690 H 0.7757 1.00122 0.58256 0.0
H691 H 0.76353 1.00345 0.52297 0.0
H692 H 0.84436 0.97111 0.45219 0.0
H693 H 0.88573 0.95735 0.49845 0.0
C694 C 0.86997 0.96118 0.56447 0.0
C695 C 0.85729 0.96402 0.5976 0.0
C696 C 0.84807 0.9718 0.53756 0.0
C697 C 0.82355 0.97948 0.60348 0.0
C698 C 0.80195 0.9902 0.57712 0.0
C699 C 0.79039 0.99373 0.51762 0.0
C700 C 0.8008 0.98787 0.48434 0.0
C701 C 0.81353 0.98571 0.54412 0.0
C702 C 0.83579 0.97578 0.47768 0.0
C703 C 0.85927 0.96773 0.50414 0.0
H704 H 0.30221 0.56122 0.77335 0.0
H705 H 0.30557 0.64027 0.70292 0.0
H706 H 0.31627 0.6805 0.7489 0.0
H707 H 0.3306 0.6916 0.80863 0.0
H708 H 0.32849 0.611 0.87773 0.0
H709 H 0.31062 0.57305 0.8328 0.0
C710 C 0.30494 0.58735 0.76807 0.0
C711 C 0.30376 0.59781 0.73488 0.0
C712 C 0.31135 0.60996 0.79441 0.0
C713 C 0.30664 0.63171 0.72834 0.0
C714 C 0.3129 0.6546 0.75459 0.0
C715 C 0.32598 0.66577 0.81386 0.0
C716 C 0.33119 0.65416 0.84656 0.0
C717 C 0.31629 0.64379 0.78765 0.0
C718 C 0.32441 0.62076 0.853 0.0
C719 C 0.31449 0.59891 0.82722 0.0
H720 H 0.61962 0.11523 0.06184 0.0
H721 H 0.68282 0.05702 0.13116 0.0
H722 H 0.71948 0.0344 0.08549 0.0
H723 H 0.73837 0.03648 0.02756 0.0
H724 H 0.67697 0.09435 0.9571 0.0
H725 H 0.63405 0.11107 1.00124 0.0
C726 C 0.64092 0.09705 0.0668 0.0
C727 C 0.64896 0.08837 0.10003 0.0
C728 C 0.66222 0.0842 0.04026 0.0
C729 C 0.67664 0.06475 0.106 0.0
C730 C 0.69753 0.05168 0.07988 0.0
C731 C 0.71513 0.05224 1.02173 0.0
C732 C 0.7109 0.06455 0.98941 0.0
C733 C 0.69132 0.06208 0.04718 0.0
C734 C 0.68062 0.08457 0.98188 0.0
C735 C 0.65637 0.09435 1.0072 0.0
H736 H 0.75086 0.17184 0.74001 0.0
H737 H 0.66485 0.10713 0.71167 0.0
H738 H 0.67133 0.07844 0.76413 0.0
H739 H 0.70128 0.07092 0.81736 0.0
H740 H 0.78888 0.13327 0.84675 0.0
H741 H 0.78157 0.16394 0.79485 0.0
C742 C 0.73361 0.15146 0.74542 0.0
C743 C 0.70773 0.14138 0.72167 0.0
C744 C 0.73754 0.13479 0.77589 0.0
C745 C 0.68552 0.11494 0.72907 0.0
C746 C 0.68897 0.09867 0.75923 0.0
C747 C 0.71869 0.09141 0.81277 0.0
C748 C 0.74543 0.09987 0.83619 0.0
C749 C 0.71488 0.1083 0.78273 0.0
C750 C 0.76792 0.12628 0.82931 0.0
C751 C 0.76383 0.14376 0.79955 0.0
H752 H 0.20355 0.5108 0.09066 0.0
H753 H 0.20419 0.41564 0.13795 0.0
H754 H 0.17013 0.39207 0.09123 0.0
H755 H 0.14421 0.39724 0.03525 0.0
H756 H 0.14573 0.49139 0.98618 0.0
H757 H 0.17442 0.51671 0.03533 0.0
C758 C 0.19573 0.48506 0.09088 0.0
C759 C 0.20651 0.46488 0.11757 0.0
C760 C 0.17682 0.47141 0.06349 0.0
C761 C 0.19632 0.43157 0.11758 0.0
C762 C 0.17697 0.41805 0.09083 0.0
C763 C 0.15093 0.42328 0.03522 0.0
C764 C 0.14323 0.44225 1.00687 0.0
C765 C 0.16786 0.4375 0.06331 0.0
C766 C 0.15127 0.4762 1.00766 0.0
C767 C 0.16785 0.49066 0.03571 0.0
H768 H 0.84319 0.97869 0.324 0.0
H769 H 0.74748 0.92115 0.32718 0.0
H770 H 0.76593 0.8907 0.27625 0.0
H771 H 0.80735 0.88339 0.22821 0.0
H772 H 0.90204 0.94238 0.22561 0.0
H773 H 0.88568 0.96933 0.27864 0.0
C774 C 0.82637 0.9593 0.31386 0.0
C775 C 0.79383 0.95242 0.32956 0.0
C776 C 0.83682 0.94232 0.28429 0.0
C777 C 0.77268 0.92703 0.31584 0.0
C778 C 0.78315 0.90968 0.28654 0.0
C779 C 0.82461 0.90181 0.23951 0.0
C780 C 0.85568 0.91111 0.22264 0.0
C781 C 0.81489 0.91752 0.27017 0.0
C782 C 0.87765 0.93517 0.23763 0.0
C783 C 0.8684 0.95052 0.26809 0.0
H784 H 0.36192 0.56097 0.56863 0.0
H785 H 0.29621 0.64883 0.59076 0.0
H786 H 0.31949 0.67564 0.5419 0.0
H787 H 0.35632 0.67331 0.49123 0.0
H788 H 0.4214 0.5853 0.46871 0.0
H789 H 0.40088 0.55967 0.51945 0.0
C790 C 0.35289 0.58609 0.56297 0.0
C791 C 0.32717 0.6027 0.58333 0.0
C792 C 0.36623 0.60139 0.53463 0.0
C793 C 0.31591 0.63532 0.57556 0.0
C794 C 0.32915 0.65071 0.54752 0.0
C795 C 0.36598 0.64853 0.49745 0.0
C796 C 0.39029 0.63126 0.47615 0.0
C797 C 0.35389 0.63381 0.52659 0.0
C798 C 0.40297 0.59932 0.48482 0.0
C799 C 0.39108 0.58453 0.51375 0.0
H800 H 0.26096 0.26947 0.51718 0.0
H801 H 0.17055 0.25652 0.45089 0.0
H802 H 0.21099 0.23516 0.40679 0.0
H803 H 0.27187 0.2165 0.38856 0.0
H804 H 0.36139 0.22805 0.45652 0.0
H805 H 0.32159 0.25396 0.49812 0.0
C806 C 0.25007 0.26229 0.49296 0.0
C807 C 0.21271 0.26434 0.48745 0.0
C808 C 0.27341 0.24962 0.468 0.0
C809 C 0.19915 0.25515 0.45584 0.0
C810 C 0.2223 0.24279 0.43067 0.0
C811 C 0.28273 0.22467 0.41246 0.0
C812 C 0.31982 0.22008 0.41921 0.0
C813 C 0.25944 0.23923 0.43671 0.0
C814 C 0.33325 0.2315 0.45022 0.0
C815 C 0.31039 0.24613 0.47425 0.0
H816 H 0.13538 0.08228 0.66267 0.0
H817 H 0.02966 0.12544 0.64593 0.0
H818 H 1.00269 0.07533 0.66687 0.0
H819 H 1.00958 1.02029 0.69304 0.0
H820 H 0.11603 0.97866 0.70971 0.0
H821 H 0.14223 0.02666 0.68452 0.0
C822 C 0.10641 0.08057 0.6629 0.0
C823 C 0.08463 0.10763 0.65272 0.0
C824 C 0.0912 0.05181 0.6748 0.0
C825 C 0.04711 0.10516 0.65402 0.0
C826 C 0.03166 0.07642 0.66578 0.0
C827 C 0.03844 1.02151 0.69047 0.0
C828 C 0.06087 0.99607 0.70328 0.0
C829 C 0.05348 0.0497 0.67662 0.0
C830 C 0.09825 0.99806 0.7002 0.0
C831 C 0.11327 0.02553 0.68591 0.0
H832 H 0.25438 0.86453 0.88326 0.0
H833 H 0.16199 0.84652 0.94381 0.0
H834 H 0.20057 0.82089 0.98585 0.0
H835 H 0.26046 0.80687 1.00725 0.0
H836 H 0.35352 0.82413 0.94771 0.0
H837 H 0.31472 0.84593 0.90298 0.0
C838 C 0.24263 0.85452 0.90539 0.0
C839 C 0.20528 0.85798 0.91053 0.0
C840 C 0.26508 0.83966 0.92962 0.0
C841 C 0.19063 0.84496 0.93951 0.0
C842 C 0.21266 0.83009 0.96351 0.0
C843 C 0.27226 0.81512 0.98433 0.0
C844 C 0.30975 0.81424 0.98085 0.0
C845 C 0.24991 0.82789 0.95913 0.0
C846 C 0.3247 0.82462 0.95094 0.0
C847 C 0.30252 0.83724 0.92549 0.0
H848 H 0.41542 0.06972 0.23181 0.0
H849 H 0.51814 0.06722 0.18266 0.0
H850 H 0.50178 1.0166 0.15165 0.0
H851 H 0.45924 0.97141 0.14084 0.0
H852 H 0.35795 0.97399 0.19252 0.0
H853 H 0.37283 0.02644 0.21991 0.0
C854 C 0.43429 0.05836 0.21418 0.0
C855 C 0.4681 0.07221 0.20981 0.0
C856 C 0.42497 0.02916 0.19689 0.0
C857 C 0.49195 0.05709 0.18662 0.0
C858 C 0.48266 0.02807 0.16896 0.0
C859 C 0.44048 0.98345 0.15813 0.0
C860 C 0.40745 0.96871 0.16447 0.0
C861 C 0.44944 1.01356 0.17432 0.0
C862 C 0.38327 0.98491 0.18667 0.0
C863 C 0.39186 1.01484 0.20258 0.0
H864 H 0.82522 0.39409 0.64506 0.0
H865 H 0.84628 0.30393 0.6987 0.0
H866 H 0.79306 0.27914 0.67327 0.0
H867 H 0.7427 0.28212 0.63271 0.0
H868 H 0.72411 0.37248 0.57835 0.0
H869 H 0.77423 0.39805 0.60706 0.0
C870 C 0.81825 0.36895 0.65106 0.0
C871 C 0.83978 0.35071 0.67331 0.0
C872 C 0.7881 0.35485 0.63615 0.0
C873 C 0.82999 0.31847 0.68159 0.0
C874 C 0.7997 0.30425 0.66697 0.0
C875 C 0.74946 0.3075 0.6275 0.0
C876 C 0.73002 0.32521 0.60319 0.0
C877 C 0.77881 0.32207 0.64383 0.0
C878 C 0.739 0.3581 0.59662 0.0
C879 C 0.76763 0.37283 0.61304 0.0
H880 H 0.91895 0.45606 0.85452 0.0
H881 H 0.03221 0.467 0.87255 0.0
H882 H 0.02009 0.51845 0.90447 0.0
H883 H 0.97786 0.56258 0.92364 0.0
H884 H 0.86434 0.55213 0.90592 0.0
H885 H 0.87612 0.49891 0.8769 0.0
C886 C 0.94091 0.46948 0.86586 0.0
C887 C 0.97646 0.45753 0.86128 0.0
C888 C 0.93376 0.49958 0.88369 0.0
C889 C 1.0046 0.47537 0.87597 0.0
C890 C 0.9977 0.50501 0.89401 0.0
C891 C 0.95554 0.54851 0.91397 0.0
C892 C 0.92022 0.56175 0.91692 0.0
C893 C 0.96245 0.51768 0.89753 0.0
C894 C 0.89187 0.5431 0.90357 0.0
C895 C 0.89855 0.51243 0.88715 0.0
H896 H 0.79964 0.70209 0.0688 0.0
H897 H 0.81787 0.78638 0.13493 0.0
H898 H 0.76781 0.77061 0.16971 0.0
H899 H 0.71855 0.73281 0.18103 0.0
H900 H 0.70115 0.64896 0.11412 0.0
H901 H 0.75091 0.66506 0.07964 0.0
C902 C 0.79293 0.717 0.09092 0.0
C903 C 0.81273 0.74525 0.09934 0.0
C904 C 0.76397 0.70806 0.11048 0.0
C905 C 0.80322 0.76441 0.12791 0.0
C906 C 0.77453 0.75545 0.14778 0.0
C907 C 0.72574 0.71806 0.15893 0.0
C908 C 0.70599 0.68983 0.15008 0.0
C909 C 0.75467 0.72733 0.13926 0.0
C910 C 0.71543 0.67113 0.1212 0.0
C911 C 0.74411 0.68014 0.10161 0.0
H912 H 0.62588 0.49472 0.41455 0.0
H913 H 0.52124 0.45241 0.41971 0.0
H914 H 0.49464 0.50092 0.39195 0.0
H915 H 0.50183 0.55459 0.36366 0.0
H916 H 0.60747 0.59502 0.35798 0.0
H917 H 0.63279 0.54823 0.38848 0.0
C918 C 0.59729 0.49589 0.40931 0.0
C919 C 0.57571 0.46973 0.41882 0.0
C920 C 0.58227 0.52372 0.39335 0.0
C921 C 0.53852 0.47219 0.41265 0.0
C922 C 0.52329 0.49992 0.39673 0.0
C923 C 0.53026 0.55333 0.36961 0.0
C924 C 0.55273 0.57823 0.35848 0.0
C925 C 0.54495 0.52581 0.38675 0.0
C926 C 0.5896 0.5761 0.36606 0.0
C927 C 0.60417 0.5493 0.38345 0.0
H928 H 0.37116 0.30946 0.2012 0.0
H929 H 0.43624 0.37216 0.26449 0.0
H930 H 0.46706 0.32328 0.28696 0.0
H931 H 0.48065 0.2636 0.28356 0.0
H932 H 0.41691 0.19978 0.22065 0.0
H933 H 0.37977 0.24804 0.20352 0.0
C934 C 0.39186 0.31228 0.22014 0.0
C935 C 0.40169 0.34437 0.23094 0.0
C936 C 0.4096 0.28393 0.23299 0.0
C937 C 0.42813 0.34776 0.25586 0.0
C938 C 0.44587 0.31983 0.26863 0.0
C939 C 0.458 0.26022 0.26673 0.0
C940 C 0.45148 0.2285 0.25313 0.0
C941 C 0.43747 0.28795 0.25673 0.0
C942 C 0.42214 0.22409 0.23153 0.0
C943 C 0.40127 0.25171 0.22147 0.0
H944 H 0.99302 0.30151 0.87954 0.0
H945 H 0.92713 0.30921 0.7908 0.0
H946 H 0.89601 0.25904 0.80578 0.0
H947 H 0.88908 0.21168 0.84333 0.0
H948 H 0.95563 0.20512 0.93174 0.0
H949 H 0.98508 0.25595 0.91735 0.0
C950 C 0.97177 0.29241 0.86342 0.0
C951 C 0.9626 0.30915 0.83399 0.0
C952 C 0.95425 0.2635 0.872 0.0
C953 C 0.93486 0.29686 0.81359 0.0
C954 C 0.91707 0.2681 0.82211 0.0
C955 C 0.90983 0.22155 0.85955 0.0
C956 C 0.92038 0.20431 0.88839 0.0
C957 C 0.92675 0.25103 0.85115 0.0
C958 C 0.94747 0.2174 0.90904 0.0
C959 C 0.96419 0.24664 0.90096 0.0
H960 H 0.02413 0.62404 0.11115 0.0
H961 H 0.11392 0.68933 0.10993 0.0
H962 H 0.07579 0.73313 0.08634 0.0
H963 H 0.01625 0.75451 0.07048 0.0
H964 H 0.92555 0.69061 0.07274 0.0
H965 H 0.9647 0.64454 0.09144 0.0
C966 C 0.03532 0.64784 0.10562 0.0
C967 C 0.0718 0.65343 0.11247 0.0
C968 C 0.01307 0.67318 0.09244 0.0
C969 C 0.08607 0.68421 0.10463 0.0
C970 C 0.06422 0.70939 0.09137 0.0
C971 C 1.0051 0.7304 0.07482 0.0
C972 C 0.96814 0.72594 0.07063 0.0
C973 C 0.02761 0.70436 0.08581 0.0
C974 C 0.954 0.69457 0.07594 0.0
C975 C 0.97634 0.66833 0.08673 0.0
H976 H 0.63585 0.82113 0.33237 0.0
H977 H 0.61474 0.81306 0.43756 0.0
H978 H 0.58928 0.75858 0.42746 0.0
H979 H 0.56816 0.71537 0.38838 0.0
H980 H 0.58826 0.72315 0.28308 0.0
H981 H 0.61981 0.77494 0.29369 0.0
C982 C 0.62629 0.8072 0.35317 0.0
C983 C 0.62676 0.82156 0.38565 0.0
C984 C 0.61144 0.77574 0.34716 0.0
C985 C 0.61402 0.80308 0.41222 0.0
C986 C 0.5996 0.77177 0.4065 0.0
C987 C 0.57996 0.7281 0.36779 0.0
C988 C 0.57553 0.71558 0.33496 0.0
C989 C 0.5974 0.75819 0.37401 0.0
C990 C 0.59114 0.73232 0.30859 0.0
C991 C 0.60902 0.76206 0.31463 0.0
H992 H 0.55961 0.34456 0.53102 0.0
H993 H 0.5693 0.31058 0.63187 0.0
H994 H 0.52627 0.35391 0.65092 0.0
H995 H 0.48471 0.39981 0.63858 0.0
H996 H 0.47162 0.43287 0.53758 0.0
H997 H 0.51698 0.39139 0.51853 0.0
C998 C 0.55237 0.3471 0.55714 0.0
C999 C 0.56744 0.325 0.58023 0.0
C1000 C 0.52716 0.3717 0.56771 0.0
C1001 C 0.55775 0.3276 0.6139 0.0
C1002 C 0.53332 0.3523 0.62473 0.0
C1003 C 0.49236 0.39842 0.6125 0.0
C1004 C 0.47541 0.41962 0.58956 0.0
C1005 C 0.5178 0.37435 0.60184 0.0
C1006 C 0.48462 0.41687 0.55566 0.0
C1007 C 0.51053 0.39323 0.54483 0.0
H1008 H 0.15859 0.7592 0.73639 0.0
H1009 H 0.13687 0.75911 0.63042 0.0
H1010 H 0.10258 0.81144 0.63687 0.0
H1011 H 0.07275 0.85363 0.67348 0.0
H1012 H 0.0913 0.85143 0.77983 0.0
H1013 H 0.13268 0.80372 0.77241 0.0
C1014 C 0.14652 0.77072 0.71466 0.0
C1015 C 0.15001 0.75498 0.68303 0.0
C1016 C 0.12592 0.80029 0.71868 0.0
C1017 C 0.13488 0.77069 0.65505 0.0
C1018 C 0.11492 0.8005 0.65875 0.0
C1019 C 0.08625 0.84294 0.69494 0.0
C1020 C 0.07881 0.85583 0.72715 0.0
C1021 C 0.10938 0.81498 0.69057 0.0
C1022 C 0.09653 0.84188 0.75477 0.0
C1023 C 0.1201 0.81451 0.75057 0.0
H1024 H 0.49791 0.80896 0.9835 0.0
H1025 H 0.44534 0.89016 0.03792 0.0
H1026 H 0.49302 0.92732 1.02185 0.0
H1027 H 0.54798 0.93714 0.98916 0.0
H1028 H 0.59992 0.8544 0.93634 0.0
H1029 H 0.554 0.81748 0.95494 0.0
C1030 C 0.49672 0.83481 0.99189 0.0
C1031 C 0.46774 0.8469 1.01142 0.0
C1032 C 0.5241 0.85579 0.98271 0.0
C1033 C 0.46721 0.88027 1.02267 0.0
C1034 C 0.49445 0.90151 1.01343 0.0
C1035 C 0.54951 0.91093 0.98217 0.0
C1036 C 0.57713 0.89871 0.96089 0.0
C1037 C 0.52284 0.88962 0.99306 0.0
C1038 C 0.5786 0.86466 0.95204 0.0
C1039 C 0.55241 0.84347 0.96277 0.0
H1040 H 0.9737 0.12535 0.4954 0.0
H1041 H 0.91483 0.20378 0.44525 0.0
H1042 H 0.96033 0.24317 0.46191 0.0
H1043 H 0.01766 0.25544 0.48902 0.0
H1044 H 0.07752 0.17762 0.53905 0.0
H1045 H 0.03117 0.13807 0.52374 0.0
C1046 C 0.97081 0.15103 0.48803 0.0
C1047 C 0.9405 0.16138 0.46912 0.0
C1048 C 0.99749 0.17375 0.49745 0.0
C1049 C 0.93728 0.19499 0.46026 0.0
C1050 C 0.96357 0.21759 0.46952 0.0
C1051 C 0.02073 0.22984 0.49664 0.0
C1052 C 0.05136 0.21964 0.51504 0.0
C1053 C 0.99389 0.20724 0.48789 0.0
C1054 C 0.05446 0.18629 0.52476 0.0
C1055 C 0.02787 0.1636 0.51603 0.0
loop_
_geom_bond_atom_site_label_1
_geom_bond_atom_site_label_2
_geom_bond_distance
_geom_bond_site_symmetry_2
_ccdc_geom_bond_type
Tb0 C2 2.809 . S
Tb0 O20 2.484 . S
Tb0 O21 2.440 . S
Tb0 O22 2.658 . S
Tb0 O23 2.409 . S
Tb0 O24 2.378 . S
Tb0 O28 2.325 . S
Tb0 O31 2.341 . S
Tb1 C11 2.809 . S
Tb1 O22 2.325 . S
Tb1 O25 2.341 . S
Tb1 O26 2.484 . S
Tb1 O27 2.440 . S
Tb1 O28 2.658 . S
Tb1 O29 2.409 . S
Tb1 O30 2.378 . S
C2 Tb0 2.809 . S
C2 C3 1.514 . S
C2 O20 1.248 . S
C2 O21 1.266 . S
C3 C2 1.514 . S
C3 C4 1.359 . S
C3 C8 1.348 . S
C4 C3 1.359 . S
C4 C5 1.380 . S
C4 H32 0.929 . S
C5 C4 1.380 . S
C5 C6 1.347 . S
C5 H33 0.931 . S
C6 C5 1.347 . S
C6 C7 1.369 . S
C7 C6 1.369 . S
C7 C8 1.408 . S
C7 H34 0.930 . S
C8 C3 1.348 . S
C8 C7 1.408 . S
C8 H35 0.930 . S
C9 O22 1.281 . S
C9 O23 1.254 . S
C10 O24 1.236 . S
C10 O25 1.266 . S
C11 Tb1 2.809 . S
C11 C12 1.514 . S
C11 O26 1.248 . S
C11 O27 1.266 . S
C12 C11 1.514 . S
C12 C13 1.359 . S
C12 C17 1.348 . S
C13 C12 1.359 . S
C13 C14 1.380 . S
C13 H36 0.929 . S
C14 C13 1.380 . S
C14 C15 1.347 . S
C14 H37 0.931 . S
C15 C14 1.347 . S
C15 C16 1.369 . S
C16 C15 1.369 . S
C16 C17 1.408 . S
C16 H38 0.930 . S
C17 C12 1.348 . S
C17 C16 1.408 . S
C17 H39 0.930 . S
C18 O28 1.281 . S
C18 O29 1.254 . S
C19 O30 1.236 . S
C19 O31 1.266 . S
O20 Tb0 2.484 . S
O20 C2 1.248 . S
O21 Tb0 2.440 . S
O21 C2 1.266 . S
O22 Tb0 2.658 . S
O22 Tb1 2.325 . S
O22 C9 1.281 . S
O23 Tb0 2.409 . S
O23 C9 1.254 . S
O24 Tb0 2.378 . S
O24 C10 1.236 . S
O25 Tb1 2.341 . S
O25 C10 1.266 . S
O26 Tb1 2.484 . S
O26 C11 1.248 . S
O27 Tb1 2.440 . S
O27 C11 1.266 . S
O28 Tb0 2.325 . S
O28 Tb1 2.658 . S
O28 C18 1.281 . S
O29 Tb1 2.409 . S
O29 C18 1.254 . S
O30 Tb1 2.378 . S
O30 C19 1.236 . S
O31 Tb0 2.341 . S
O31 C19 1.266 . S
H32 C4 0.929 . S
H33 C5 0.931 . S
H34 C7 0.930 . S
H35 C8 0.930 . S
H36 C13 0.929 . S
H37 C14 0.931 . S
H38 C16 0.930 . S
H39 C17 0.930 . S
Tb40 C42 2.809 . S
Tb40 O60 2.484 . S
Tb40 O61 2.440 . S
Tb40 O62 2.658 1_655 S
Tb40 O63 2.409 1_655 S
Tb40 O64 2.378 1_655 S
Tb40 O68 2.325 . S
Tb40 O71 2.341 . S
Tb41 C51 2.809 . S
Tb41 O62 2.325 . S
Tb41 O65 2.341 . S
Tb41 O66 2.484 . S
Tb41 O67 2.440 . S
Tb41 O68 2.658 1_455 S
Tb41 O69 2.409 1_455 S
Tb41 O70 2.378 1_455 S
C42 Tb40 2.809 . S
C42 C43 1.514 . S
C42 O60 1.248 . S
C42 O61 1.266 . S
C43 C42 1.514 . S
C43 C44 1.359 . S
C43 C48 1.348 . S
C44 C43 1.359 . S
C44 C45 1.380 . S
C44 H72 0.929 . S
C45 C44 1.380 . S
C45 C46 1.347 . S
C45 H73 0.931 . S
C46 C45 1.347 . S
C46 C47 1.369 . S
C47 C46 1.369 . S
C47 C48 1.408 . S
C47 H74 0.930 . S
C48 C43 1.348 . S
C48 C47 1.408 . S
C48 H75 0.930 . S
C49 O62 1.281 . S
C49 O63 1.254 . S
C50 O64 1.236 . S
C50 O65 1.266 . S
C51 Tb41 2.809 . S
C51 C52 1.514 . S
C51 O66 1.248 . S
C51 O67 1.266 . S
C52 C51 1.514 . S
C52 C53 1.359 . S
C52 C57 1.348 . S
C53 C52 1.359 . S
C53 C54 1.380 . S
C53 H76 0.929 . S
C54 C53 1.380 . S
C54 C55 1.347 . S
C54 H77 0.931 . S
C55 C54 1.347 . S
C55 C56 1.369 . S
C56 C55 1.369 . S
C56 C57 1.408 . S
C56 H78 0.930 . S
C57 C52 1.348 . S
C57 C56 1.408 . S
C57 H79 0.930 . S
C58 O68 1.281 . S
C58 O69 1.254 . S
C59 O70 1.236 . S
C59 O71 1.266 . S
O60 Tb40 2.484 . S
O60 C42 1.248 . S
O61 Tb40 2.440 . S
O61 C42 1.266 . S
O62 Tb40 2.658 1_455 S
O62 Tb41 2.325 . S
O62 C49 1.281 . S
O63 Tb40 2.409 1_455 S
O63 C49 1.254 . S
O64 Tb40 2.378 1_455 S
O64 C50 1.236 . S
O65 Tb41 2.341 . S
O65 C50 1.266 . S
O66 Tb41 2.484 . S
O66 C51 1.248 . S
O67 Tb41 2.440 . S
O67 C51 1.266 . S
O68 Tb40 2.325 . S
O68 Tb41 2.658 1_655 S
O68 C58 1.281 . S
O69 Tb41 2.409 1_655 S
O69 C58 1.254 . S
O70 Tb41 2.378 1_655 S
O70 C59 1.236 . S
O71 Tb40 2.341 . S
O71 C59 1.266 . S
H72 C44 0.929 . S
H73 C45 0.931 . S
H74 C47 0.930 . S
H75 C48 0.930 . S
H76 C53 0.929 . S
H77 C54 0.931 . S
H78 C56 0.930 . S
H79 C57 0.930 . S
Tb80 C82 2.809 . S
Tb80 O100 2.484 . S
Tb80 O101 2.440 . S
Tb80 O102 2.658 1_554 S
Tb80 O103 2.409 1_554 S
Tb80 O104 2.378 1_554 S
Tb80 O108 2.325 . S
Tb80 O111 2.341 . S
Tb81 C91 2.809 . S
Tb81 O102 2.325 . S
Tb81 O105 2.341 . S
Tb81 O106 2.484 . S
Tb81 O107 2.440 . S
Tb81 O108 2.658 1_556 S
Tb81 O109 2.409 1_556 S
Tb81 O110 2.378 . S
C82 Tb80 2.809 . S
C82 C83 1.514 . S
C82 O100 1.248 . S
C82 O101 1.266 . S
C83 C82 1.514 . S
C83 C84 1.359 . S
C83 C88 1.348 . S
C84 C83 1.359 . S
C84 C85 1.380 . S
C84 H112 0.929 . S
C85 C84 1.380 . S
C85 C86 1.347 . S
C85 H113 0.931 . S
C86 C85 1.347 . S
C86 C87 1.369 . S
C87 C86 1.369 . S
C87 C88 1.408 . S
C87 H114 0.930 . S
C88 C83 1.348 . S
C88 C87 1.408 . S
C88 H115 0.930 . S
C89 O102 1.281 . S
C89 O103 1.254 . S
C90 O104 1.236 . S
C90 O105 1.266 . S
C91 Tb81 2.809 . S
C91 C92 1.514 . S
C91 O106 1.248 . S
C91 O107 1.266 . S
C92 C91 1.514 . S
C92 C93 1.359 . S
C92 C97 1.348 . S
C93 C92 1.359 . S
C93 C94 1.380 . S
C93 H116 0.929 . S
C94 C93 1.380 . S
C94 C95 1.347 . S
C94 H117 0.931 . S
C95 C94 1.347 . S
C95 C96 1.369 . S
C96 C95 1.369 . S
C96 C97 1.408 . S
C96 H118 0.930 . S
C97 C92 1.348 . S
C97 C96 1.408 . S
C97 H119 0.930 . S
C98 O108 1.281 . S
C98 O109 1.254 . S
C99 O110 1.236 1_554 S
C99 O111 1.266 . S
O100 Tb80 2.484 . S
O100 C82 1.248 . S
O101 Tb80 2.440 . S
O101 C82 1.266 . S
O102 Tb80 2.658 1_556 S
O102 Tb81 2.325 . S
O102 C89 1.281 . S
O103 Tb80 2.409 1_556 S
O103 C89 1.254 . S
O104 Tb80 2.378 1_556 S
O104 C90 1.236 . S
O105 Tb81 2.341 . S
O105 C90 1.266 . S
O106 Tb81 2.484 . S
O106 C91 1.248 . S
O107 Tb81 2.440 . S
O107 C91 1.266 . S
O108 Tb80 2.325 . S
O108 Tb81 2.658 1_554 S
O108 C98 1.281 . S
O109 Tb81 2.409 1_554 S
O109 C98 1.254 . S
O110 Tb81 2.378 . S
O110 C99 1.236 1_556 S
O111 Tb80 2.341 . S
O111 C99 1.266 . S
H112 C84 0.929 . S
H113 C85 0.931 . S
H114 C87 0.930 . S
H115 C88 0.930 . S
H116 C93 0.929 . S
H117 C94 0.931 . S
H118 C96 0.930 . S
H119 C97 0.930 . S
Tb120 C122 2.809 . S
Tb120 O140 2.484 . S
Tb120 O141 2.440 . S
Tb120 O142 2.658 . S
Tb120 O143 2.409 . S
Tb120 O144 2.378 . S
Tb120 O148 2.325 . S
Tb120 O151 2.341 . S
Tb121 C131 2.809 . S
Tb121 O142 2.325 . S
Tb121 O145 2.341 . S
Tb121 O146 2.484 . S
Tb121 O147 2.440 . S
Tb121 O148 2.658 . S
Tb121 O149 2.409 . S
Tb121 O150 2.378 . S
C122 Tb120 2.809 . S
C122 C123 1.514 . S
C122 O140 1.248 . S
C122 O141 1.266 . S
C123 C122 1.514 . S
C123 C124 1.359 . S
C123 C128 1.348 . S
C124 C123 1.359 . S
C124 C125 1.380 . S
C124 H152 0.929 . S
C125 C124 1.380 . S
C125 C126 1.347 . S
C125 H153 0.931 . S
C126 C125 1.347 . S
C126 C127 1.369 . S
C127 C126 1.369 . S
C127 C128 1.408 . S
C127 H154 0.930 . S
C128 C123 1.348 . S
C128 C127 1.408 . S
C128 H155 0.930 . S
C129 O142 1.281 . S
C129 O143 1.254 . S
C130 O144 1.236 . S
C130 O145 1.266 . S
C131 Tb121 2.809 . S
C131 C132 1.514 . S
C131 O146 1.248 . S
C131 O147 1.266 . S
C132 C131 1.514 . S
C132 C133 1.359 . S
C132 C137 1.348 . S
C133 C132 1.359 . S
C133 C134 1.380 . S
C133 H156 0.929 . S
C134 C133 1.380 . S
C134 C135 1.347 . S
C134 H157 0.931 . S
C135 C134 1.347 . S
C135 C136 1.369 . S
C136 C135 1.369 . S
C136 C137 1.408 . S
C136 H158 0.930 . S
C137 C132 1.348 . S
C137 C136 1.408 . S
C137 H159 0.930 . S
C138 O148 1.281 . S
C138 O149 1.254 . S
C139 O150 1.236 . S
C139 O151 1.266 . S
O140 Tb120 2.484 . S
O140 C122 1.248 . S
O141 Tb120 2.440 . S
O141 C122 1.266 . S
O142 Tb120 2.658 . S
O142 Tb121 2.325 . S
O142 C129 1.281 . S
O143 Tb120 2.409 . S
O143 C129 1.254 . S
O144 Tb120 2.378 . S
O144 C130 1.236 . S
O145 Tb121 2.341 . S
O145 C130 1.266 . S
O146 Tb121 2.484 . S
O146 C131 1.248 . S
O147 Tb121 2.440 . S
O147 C131 1.266 . S
O148 Tb120 2.325 . S
O148 Tb121 2.658 . S
O148 C138 1.281 . S
O149 Tb121 2.409 . S
O149 C138 1.254 . S
O150 Tb121 2.378 . S
O150 C139 1.236 . S
O151 Tb120 2.341 . S
O151 C139 1.266 . S
H152 C124 0.929 . S
H153 C125 0.931 . S
H154 C127 0.930 . S
H155 C128 0.930 . S
H156 C133 0.929 . S
H157 C134 0.931 . S
H158 C136 0.930 . S
H159 C137 0.930 . S
Tb160 C162 2.809 . S
Tb160 O180 2.484 . S
Tb160 O181 2.440 . S
Tb160 O182 2.658 . S
Tb160 O183 2.409 . S
Tb160 O184 2.378 . S
Tb160 O188 2.325 . S
Tb160 O191 2.341 . S
Tb161 C171 2.809 . S
Tb161 O182 2.325 . S
Tb161 O185 2.341 . S
Tb161 O186 2.484 . S
Tb161 O187 2.440 . S
Tb161 O188 2.658 . S
Tb161 O189 2.409 . S
Tb161 O190 2.378 . S
C162 Tb160 2.809 . S
C162 C163 1.514 . S
C162 O180 1.248 . S
C162 O181 1.266 . S
C163 C162 1.514 . S
C163 C164 1.359 . S
C163 C168 1.348 . S
C164 C163 1.359 . S
C164 C165 1.380 . S
C164 H192 0.929 . S
C165 C164 1.380 . S
C165 C166 1.347 . S
C165 H193 0.931 . S
C166 C165 1.347 . S
C166 C167 1.369 . S
C167 C166 1.369 . S
C167 C168 1.408 . S
C167 H194 0.930 . S
C168 C163 1.348 . S
C168 C167 1.408 . S
C168 H195 0.930 . S
C169 O182 1.281 . S
C169 O183 1.254 . S
C170 O184 1.236 . S
C170 O185 1.266 . S
C171 Tb161 2.809 . S
C171 C172 1.514 . S
C171 O186 1.248 . S
C171 O187 1.266 . S
C172 C171 1.514 . S
C172 C173 1.359 . S
C172 C177 1.348 . S
C173 C172 1.359 . S
C173 C174 1.380 . S
C173 H196 0.929 . S
C174 C173 1.380 . S
C174 C175 1.347 . S
C174 H197 0.931 . S
C175 C174 1.347 . S
C175 C176 1.369 . S
C176 C175 1.369 . S
C176 C177 1.408 . S
C176 H198 0.930 . S
C177 C172 1.348 . S
C177 C176 1.408 . S
C177 H199 0.930 . S
C178 O188 1.281 . S
C178 O189 1.254 . S
C179 O190 1.236 . S
C179 O191 1.266 . S
O180 Tb160 2.484 . S
O180 C162 1.248 . S
O181 Tb160 2.440 . S
O181 C162 1.266 . S
O182 Tb160 2.658 . S
O182 Tb161 2.325 . S
O182 C169 1.281 . S
O183 Tb160 2.409 . S
O183 C169 1.254 . S
O184 Tb160 2.378 . S
O184 C170 1.236 . S
O185 Tb161 2.341 . S
O185 C170 1.266 . S
O186 Tb161 2.484 . S
O186 C171 1.248 . S
O187 Tb161 2.440 . S
O187 C171 1.266 . S
O188 Tb160 2.325 . S
O188 Tb161 2.658 . S
O188 C178 1.281 . S
O189 Tb161 2.409 . S
O189 C178 1.254 . S
O190 Tb161 2.378 . S
O190 C179 1.236 . S
O191 Tb160 2.341 . S
O191 C179 1.266 . S
H192 C164 0.929 . S
H193 C165 0.931 . S
H194 C167 0.930 . S
H195 C168 0.930 . S
H196 C173 0.929 . S
H197 C174 0.931 . S
H198 C176 0.930 . S
H199 C177 0.930 . S
Tb200 C202 2.809 . S
Tb200 O220 2.484 . S
Tb200 O221 2.440 . S
Tb200 O222 2.658 . S
Tb200 O223 2.409 . S
Tb200 O224 2.378 . S
Tb200 O228 2.325 1_655 S
Tb200 O231 2.341 1_655 S
Tb201 C211 2.809 . S
Tb201 O222 2.325 1_455 S
Tb201 O225 2.341 1_455 S
Tb201 O226 2.484 . S
Tb201 O227 2.440 . S
Tb201 O228 2.658 . S
Tb201 O229 2.409 . S
Tb201 O230 2.378 . S
C202 Tb200 2.809 . S
C202 C203 1.514 . S
C202 O220 1.248 . S
C202 O221 1.266 . S
C203 C202 1.514 . S
C203 C204 1.359 . S
C203 C208 1.348 . S
C204 C203 1.359 . S
C204 C205 1.380 . S
C204 H232 0.929 . S
C205 C204 1.380 . S
C205 C206 1.347 . S
C205 H233 0.931 . S
C206 C205 1.347 . S
C206 C207 1.369 . S
C207 C206 1.369 . S
C207 C208 1.408 . S
C207 H234 0.930 . S
C208 C203 1.348 . S
C208 C207 1.408 . S
C208 H235 0.930 . S
C209 O222 1.281 . S
C209 O223 1.254 . S
C210 O224 1.236 . S
C210 O225 1.266 . S
C211 Tb201 2.809 . S
C211 C212 1.514 . S
C211 O226 1.248 . S
C211 O227 1.266 . S
C212 C211 1.514 . S
C212 C213 1.359 . S
C212 C217 1.348 . S
C213 C212 1.359 . S
C213 C214 1.380 . S
C213 H236 0.929 . S
C214 C213 1.380 . S
C214 C215 1.347 . S
C214 H237 0.931 . S
C215 C214 1.347 . S
C215 C216 1.369 . S
C216 C215 1.369 . S
C216 C217 1.408 . S
C216 H238 0.930 . S
C217 C212 1.348 . S
C217 C216 1.408 . S
C217 H239 0.930 . S
C218 O228 1.281 . S
C218 O229 1.254 . S
C219 O230 1.236 . S
C219 O231 1.266 . S
O220 Tb200 2.484 . S
O220 C202 1.248 . S
O221 Tb200 2.440 . S
O221 C202 1.266 . S
O222 Tb200 2.658 . S
O222 Tb201 2.325 1_655 S
O222 C209 1.281 . S
O223 Tb200 2.409 . S
O223 C209 1.254 . S
O224 Tb200 2.378 . S
O224 C210 1.236 . S
O225 Tb201 2.341 1_655 S
O225 C210 1.266 . S
O226 Tb201 2.484 . S
O226 C211 1.248 . S
O227 Tb201 2.440 . S
O227 C211 1.266 . S
O228 Tb200 2.325 1_455 S
O228 Tb201 2.658 . S
O228 C218 1.281 . S
O229 Tb201 2.409 . S
O229 C218 1.254 . S
O230 Tb201 2.378 . S
O230 C219 1.236 . S
O231 Tb200 2.341 1_455 S
O231 C219 1.266 . S
H232 C204 0.929 . S
H233 C205 0.931 . S
H234 C207 0.930 . S
H235 C208 0.930 . S
H236 C213 0.929 . S
H237 C214 0.931 . S
H238 C216 0.930 . S
H239 C217 0.930 . S
Tb240 C242 2.809 . S
Tb240 O260 2.484 . S
Tb240 O261 2.440 . S
Tb240 O262 2.658 . S
Tb240 O263 2.409 . S
Tb240 O264 2.378 . S
Tb240 O268 2.324 1_554 S
Tb240 O271 2.341 1_554 S
Tb241 C251 2.809 . S
Tb241 O262 2.325 1_556 S
Tb241 O265 2.341 1_556 S
Tb241 O266 2.484 . S
Tb241 O267 2.440 . S
Tb241 O268 2.659 . S
Tb241 O269 2.409 . S
Tb241 O270 2.378 . S
C242 Tb240 2.809 . S
C242 C243 1.514 . S
C242 O260 1.248 . S
C242 O261 1.266 . S
C243 C242 1.514 . S
C243 C244 1.359 . S
C243 C248 1.348 . S
C244 C243 1.359 . S
C244 C245 1.380 . S
C244 H272 0.929 . S
C245 C244 1.380 . S
C245 C246 1.347 . S
C245 H273 0.931 . S
C246 C245 1.347 . S
C246 C247 1.369 . S
C247 C246 1.369 . S
C247 C248 1.408 . S
C247 H274 0.930 . S
C248 C243 1.348 . S
C248 C247 1.408 . S
C248 H275 0.930 . S
C249 O262 1.281 . S
C249 O263 1.254 . S
C250 O264 1.236 . S
C250 O265 1.266 . S
C251 Tb241 2.809 . S
C251 C252 1.514 . S
C251 O266 1.248 . S
C251 O267 1.266 . S
C252 C251 1.514 . S
C252 C253 1.359 . S
C252 C257 1.348 . S
C253 C252 1.359 . S
C253 C254 1.380 . S
C253 H276 0.929 . S
C254 C253 1.380 . S
C254 C255 1.347 . S
C254 H277 0.931 . S
C255 C254 1.347 . S
C255 C256 1.369 . S
C256 C255 1.369 . S
C256 C257 1.408 . S
C256 H278 0.930 . S
C257 C252 1.348 . S
C257 C256 1.408 . S
C257 H279 0.930 . S
C258 O268 1.282 . S
C258 O269 1.254 . S
C259 O270 1.236 . S
C259 O271 1.266 . S
O260 Tb240 2.484 . S
O260 C242 1.248 . S
O261 Tb240 2.440 . S
O261 C242 1.266 . S
O262 Tb240 2.658 . S
O262 Tb241 2.325 1_554 S
O262 C249 1.281 . S
O263 Tb240 2.409 . S
O263 C249 1.254 . S
O264 Tb240 2.378 . S
O264 C250 1.236 . S
O265 Tb241 2.341 1_554 S
O265 C250 1.266 . S
O266 Tb241 2.484 . S
O266 C251 1.248 . S
O267 Tb241 2.440 . S
O267 C251 1.266 . S
O268 Tb240 2.324 1_556 S
O268 Tb241 2.659 . S
O268 C258 1.282 . S
O269 Tb241 2.409 . S
O269 C258 1.254 . S
O270 Tb241 2.378 . S
O270 C259 1.236 . S
O271 Tb240 2.341 1_556 S
O271 C259 1.266 . S
H272 C244 0.929 . S
H273 C245 0.931 . S
H274 C247 0.930 . S
H275 C248 0.930 . S
H276 C253 0.929 . S
H277 C254 0.931 . S
H278 C256 0.930 . S
H279 C257 0.930 . S
Tb280 C282 2.809 . S
Tb280 O300 2.484 . S
Tb280 O301 2.440 . S
Tb280 O302 2.658 . S
Tb280 O303 2.409 . S
Tb280 O304 2.378 . S
Tb280 O308 2.325 . S
Tb280 O311 2.341 . S
Tb281 C291 2.809 . S
Tb281 O302 2.325 . S
Tb281 O305 2.341 . S
Tb281 O306 2.484 . S
Tb281 O307 2.440 . S
Tb281 O308 2.658 . S
Tb281 O309 2.409 . S
Tb281 O310 2.378 . S
C282 Tb280 2.809 . S
C282 C283 1.514 . S
C282 O300 1.248 . S
C282 O301 1.266 . S
C283 C282 1.514 . S
C283 C284 1.359 . S
C283 C288 1.348 . S
C284 C283 1.359 . S
C284 C285 1.380 . S
C284 H312 0.929 . S
C285 C284 1.380 . S
C285 C286 1.347 . S
C285 H313 0.931 . S
C286 C285 1.347 . S
C286 C287 1.369 . S
C287 C286 1.369 . S
C287 C288 1.408 . S
C287 H314 0.930 . S
C288 C283 1.348 . S
C288 C287 1.408 . S
C288 H315 0.930 . S
C289 O302 1.281 . S
C289 O303 1.254 . S
C290 O304 1.236 . S
C290 O305 1.266 . S
C291 Tb281 2.809 . S
C291 C292 1.514 . S
C291 O306 1.248 . S
C291 O307 1.266 . S
C292 C291 1.514 . S
C292 C293 1.359 . S
C292 C297 1.348 . S
C293 C292 1.359 . S
C293 C294 1.380 . S
C293 H316 0.929 . S
C294 C293 1.380 . S
C294 C295 1.347 . S
C294 H317 0.931 . S
C295 C294 1.347 . S
C295 C296 1.369 . S
C296 C295 1.369 . S
C296 C297 1.408 . S
C296 H318 0.930 . S
C297 C292 1.348 . S
C297 C296 1.408 . S
C297 H319 0.930 . S
C298 O308 1.281 . S
C298 O309 1.254 . S
C299 O310 1.236 . S
C299 O311 1.266 . S
O300 Tb280 2.484 . S
O300 C282 1.248 . S
O301 Tb280 2.440 . S
O301 C282 1.266 . S
O302 Tb280 2.658 . S
O302 Tb281 2.325 . S
O302 C289 1.281 . S
O303 Tb280 2.409 . S
O303 C289 1.254 . S
O304 Tb280 2.378 . S
O304 C290 1.236 . S
O305 Tb281 2.341 . S
O305 C290 1.266 . S
O306 Tb281 2.484 . S
O306 C291 1.248 . S
O307 Tb281 2.440 . S
O307 C291 1.266 . S
O308 Tb280 2.325 . S
O308 Tb281 2.658 . S
O308 C298 1.281 . S
O309 Tb281 2.409 . S
O309 C298 1.254 . S
O310 Tb281 2.378 . S
O310 C299 1.236 . S
O311 Tb280 2.341 . S
O311 C299 1.266 . S
H312 C284 0.929 . S
H313 C285 0.931 . S
H314 C287 0.930 . S
H315 C288 0.930 . S
H316 C293 0.929 . S
H317 C294 0.931 . S
H318 C296 0.930 . S
H319 C297 0.930 . S
Tb320 C322 2.809 . S
Tb320 O340 2.484 . S
Tb320 O341 2.440 . S
Tb320 O342 2.658 . S
Tb320 O343 2.409 . S
Tb320 O344 2.378 . S
Tb320 O348 2.325 . S
Tb320 O351 2.341 . S
Tb321 C331 2.809 . S
Tb321 O342 2.325 . S
Tb321 O345 2.341 . S
Tb321 O346 2.484 . S
Tb321 O347 2.440 . S
Tb321 O348 2.658 . S
Tb321 O349 2.409 . S
Tb321 O350 2.378 . S
C322 Tb320 2.809 . S
C322 C323 1.514 . S
C322 O340 1.248 . S
C322 O341 1.266 . S
C323 C322 1.514 . S
C323 C324 1.359 . S
C323 C328 1.348 . S
C324 C323 1.359 . S
C324 C325 1.380 . S
C324 H352 0.929 . S
C325 C324 1.380 . S
C325 C326 1.347 . S
C325 H353 0.931 . S
C326 C325 1.347 . S
C326 C327 1.369 . S
C327 C326 1.369 . S
C327 C328 1.408 . S
C327 H354 0.930 . S
C328 C323 1.348 . S
C328 C327 1.408 . S
C328 H355 0.930 . S
C329 O342 1.281 . S
C329 O343 1.254 . S
C330 O344 1.236 . S
C330 O345 1.266 . S
C331 Tb321 2.809 . S
C331 C332 1.514 . S
C331 O346 1.248 . S
C331 O347 1.266 . S
C332 C331 1.514 . S
C332 C333 1.359 . S
C332 C337 1.348 . S
C333 C332 1.359 . S
C333 C334 1.380 . S
C333 H356 0.929 . S
C334 C333 1.380 . S
C334 C335 1.347 . S
C334 H357 0.931 . S
C335 C334 1.347 . S
C335 C336 1.369 . S
C336 C335 1.369 . S
C336 C337 1.408 . S
C336 H358 0.930 . S
C337 C332 1.348 . S
C337 C336 1.408 . S
C337 H359 0.930 . S
C338 O348 1.281 . S
C338 O349 1.254 . S
C339 O350 1.236 . S
C339 O351 1.266 . S
O340 Tb320 2.484 . S
O340 C322 1.248 . S
O341 Tb320 2.440 . S
O341 C322 1.266 . S
O342 Tb320 2.658 . S
O342 Tb321 2.325 . S
O342 C329 1.281 . S
O343 Tb320 2.409 . S
O343 C329 1.254 . S
O344 Tb320 2.378 . S
O344 C330 1.236 . S
O345 Tb321 2.341 . S
O345 C330 1.266 . S
O346 Tb321 2.484 . S
O346 C331 1.248 . S
O347 Tb321 2.440 . S
O347 C331 1.266 . S
O348 Tb320 2.325 . S
O348 Tb321 2.658 . S
O348 C338 1.281 . S
O349 Tb321 2.409 . S
O349 C338 1.254 . S
O350 Tb321 2.378 . S
O350 C339 1.236 . S
O351 Tb320 2.341 . S
O351 C339 1.266 . S
H352 C324 0.929 . S
H353 C325 0.931 . S
H354 C327 0.930 . S
H355 C328 0.930 . S
H356 C333 0.929 . S
H357 C334 0.931 . S
H358 C336 0.930 . S
H359 C337 0.930 . S
Tb360 C362 2.809 . S
Tb360 O380 2.484 . S
Tb360 O381 2.440 . S
Tb360 O382 2.658 . S
Tb360 O383 2.409 . S
Tb360 O384 2.378 . S
Tb360 O388 2.325 . S
Tb360 O391 2.341 1_545 S
Tb361 C371 2.809 . S
Tb361 O382 2.325 1_565 S
Tb361 O385 2.341 1_565 S
Tb361 O386 2.484 . S
Tb361 O387 2.440 . S
Tb361 O388 2.658 1_565 S
Tb361 O389 2.409 . S
Tb361 O390 2.378 . S
C362 Tb360 2.809 . S
C362 C363 1.514 . S
C362 O380 1.248 . S
C362 O381 1.266 . S
C363 C362 1.514 . S
C363 C364 1.359 . S
C363 C368 1.348 . S
C364 C363 1.359 . S
C364 C365 1.380 . S
C364 H392 0.929 . S
C365 C364 1.380 . S
C365 C366 1.347 . S
C365 H393 0.931 . S
C366 C365 1.347 . S
C366 C367 1.369 . S
C367 C366 1.369 . S
C367 C368 1.408 . S
C367 H394 0.930 . S
C368 C363 1.348 . S
C368 C367 1.408 . S
C368 H395 0.930 . S
C369 O382 1.281 . S
C369 O383 1.254 . S
C370 O384 1.236 . S
C370 O385 1.266 . S
C371 Tb361 2.809 . S
C371 C372 1.514 . S
C371 O386 1.248 . S
C371 O387 1.266 . S
C372 C371 1.514 . S
C372 C373 1.359 . S
C372 C377 1.348 . S
C373 C372 1.359 . S
C373 C374 1.380 . S
C373 H396 0.929 . S
C374 C373 1.380 . S
C374 C375 1.347 . S
C374 H397 0.931 . S
C375 C374 1.347 . S
C375 C376 1.369 . S
C376 C375 1.369 . S
C376 C377 1.408 . S
C376 H398 0.930 . S
C377 C372 1.348 . S
C377 C376 1.408 . S
C377 H399 0.930 . S
C378 O388 1.281 1_565 S
C378 O389 1.254 . S
C379 O390 1.236 . S
C379 O391 1.266 . S
O380 Tb360 2.484 . S
O380 C362 1.248 . S
O381 Tb360 2.440 . S
O381 C362 1.266 . S
O382 Tb360 2.658 . S
O382 Tb361 2.325 1_545 S
O382 C369 1.281 . S
O383 Tb360 2.409 . S
O383 C369 1.254 . S
O384 Tb360 2.378 . S
O384 C370 1.236 . S
O385 Tb361 2.341 1_545 S
O385 C370 1.266 . S
O386 Tb361 2.484 . S
O386 C371 1.248 . S
O387 Tb361 2.440 . S
O387 C371 1.266 . S
O388 Tb360 2.325 . S
O388 Tb361 2.658 1_545 S
O388 C378 1.281 1_545 S
O389 Tb361 2.409 . S
O389 C378 1.254 . S
O390 Tb361 2.378 . S
O390 C379 1.236 . S
O391 Tb360 2.341 1_565 S
O391 C379 1.266 . S
H392 C364 0.929 . S
H393 C365 0.931 . S
H394 C367 0.930 . S
H395 C368 0.930 . S
H396 C373 0.929 . S
H397 C374 0.931 . S
H398 C376 0.930 . S
H399 C377 0.930 . S
Tb400 C402 2.809 . S
Tb400 O420 2.484 . S
Tb400 O421 2.440 . S
Tb400 O422 2.658 . S
Tb400 O423 2.409 . S
Tb400 O424 2.378 . S
Tb400 O428 2.325 1_565 S
Tb400 O431 2.341 1_565 S
Tb401 C411 2.809 . S
Tb401 O422 2.325 1_545 S
Tb401 O425 2.341 1_545 S
Tb401 O426 2.484 . S
Tb401 O427 2.440 . S
Tb401 O428 2.658 . S
Tb401 O429 2.409 . S
Tb401 O430 2.378 . S
C402 Tb400 2.809 . S
C402 C403 1.514 . S
C402 O420 1.248 . S
C402 O421 1.266 . S
C403 C402 1.514 . S
C403 C404 1.359 . S
C403 C408 1.348 . S
C404 C403 1.359 . S
C404 C405 1.380 . S
C404 H432 0.929 . S
C405 C404 1.380 . S
C405 C406 1.347 . S
C405 H433 0.931 . S
C406 C405 1.347 . S
C406 C407 1.369 . S
C407 C406 1.369 . S
C407 C408 1.408 . S
C407 H434 0.930 . S
C408 C403 1.348 . S
C408 C407 1.408 . S
C408 H435 0.930 . S
C409 O422 1.281 . S
C409 O423 1.254 . S
C410 O424 1.236 . S
C410 O425 1.266 . S
C411 Tb401 2.809 . S
C411 C412 1.514 . S
C411 O426 1.248 . S
C411 O427 1.266 . S
C412 C411 1.514 . S
C412 C413 1.359 . S
C412 C417 1.348 . S
C413 C412 1.359 . S
C413 C414 1.380 . S
C413 H436 0.929 . S
C414 C413 1.380 . S
C414 C415 1.347 . S
C414 H437 0.931 . S
C415 C414 1.347 . S
C415 C416 1.369 . S
C416 C415 1.369 . S
C416 C417 1.408 . S
C416 H438 0.930 . S
C417 C412 1.348 . S
C417 C416 1.408 . S
C417 H439 0.930 . S
C418 O428 1.281 . S
C418 O429 1.254 . S
C419 O430 1.236 . S
C419 O431 1.266 . S
O420 Tb400 2.484 . S
O420 C402 1.248 . S
O421 Tb400 2.440 . S
O421 C402 1.266 . S
O422 Tb400 2.658 . S
O422 Tb401 2.325 1_565 S
O422 C409 1.281 . S
O423 Tb400 2.409 . S
O423 C409 1.254 . S
O424 Tb400 2.378 . S
O424 C410 1.236 . S
O425 Tb401 2.341 1_565 S
O425 C410 1.266 . S
O426 Tb401 2.484 . S
O426 C411 1.248 . S
O427 Tb401 2.440 . S
O427 C411 1.266 . S
O428 Tb400 2.325 1_545 S
O428 Tb401 2.658 . S
O428 C418 1.281 . S
O429 Tb401 2.409 . S
O429 C418 1.254 . S
O430 Tb401 2.378 . S
O430 C419 1.236 . S
O431 Tb400 2.341 1_545 S
O431 C419 1.266 . S
H432 C404 0.929 . S
H433 C405 0.931 . S
H434 C407 0.930 . S
H435 C408 0.930 . S
H436 C413 0.929 . S
H437 C414 0.931 . S
H438 C416 0.930 . S
H439 C417 0.930 . S
Tb440 C442 2.809 . S
Tb440 O460 2.484 . S
Tb440 O461 2.440 . S
Tb440 O462 2.658 . S
Tb440 O463 2.409 . S
Tb440 O464 2.378 . S
Tb440 O468 2.325 . S
Tb440 O471 2.341 . S
Tb441 C451 2.809 . S
Tb441 O462 2.325 . S
Tb441 O465 2.341 . S
Tb441 O466 2.484 . S
Tb441 O467 2.440 . S
Tb441 O468 2.658 . S
Tb441 O469 2.409 . S
Tb441 O470 2.378 . S
C442 Tb440 2.809 . S
C442 C443 1.514 . S
C442 O460 1.248 . S
C442 O461 1.266 . S
C443 C442 1.514 . S
C443 C444 1.359 . S
C443 C448 1.348 . S
C444 C443 1.359 . S
C444 C445 1.380 . S
C444 H472 0.929 . S
C445 C444 1.380 . S
C445 C446 1.347 . S
C445 H473 0.931 . S
C446 C445 1.347 . S
C446 C447 1.369 . S
C447 C446 1.369 . S
C447 C448 1.408 . S
C447 H474 0.930 . S
C448 C443 1.348 . S
C448 C447 1.408 . S
C448 H475 0.930 . S
C449 O462 1.281 . S
C449 O463 1.254 . S
C450 O464 1.236 . S
C450 O465 1.266 . S
C451 Tb441 2.809 . S
C451 C452 1.514 . S
C451 O466 1.248 . S
C451 O467 1.266 . S
C452 C451 1.514 . S
C452 C453 1.359 . S
C452 C457 1.348 . S
C453 C452 1.359 . S
C453 C454 1.380 . S
C453 H476 0.929 . S
C454 C453 1.380 . S
C454 C455 1.347 . S
C454 H477 0.931 . S
C455 C454 1.347 . S
C455 C456 1.369 . S
C456 C455 1.369 . S
C456 C457 1.408 . S
C456 H478 0.930 . S
C457 C452 1.348 . S
C457 C456 1.408 . S
C457 H479 0.930 . S
C458 O468 1.281 . S
C458 O469 1.254 . S
C459 O470 1.236 . S
C459 O471 1.266 . S
O460 Tb440 2.484 . S
O460 C442 1.248 . S
O461 Tb440 2.440 . S
O461 C442 1.266 . S
O462 Tb440 2.658 . S
O462 Tb441 2.325 . S
O462 C449 1.281 . S
O463 Tb440 2.409 . S
O463 C449 1.254 . S
O464 Tb440 2.378 . S
O464 C450 1.236 . S
O465 Tb441 2.341 . S
O465 C450 1.266 . S
O466 Tb441 2.484 . S
O466 C451 1.248 . S
O467 Tb441 2.440 . S
O467 C451 1.266 . S
O468 Tb440 2.325 . S
O468 Tb441 2.658 . S
O468 C458 1.281 . S
O469 Tb441 2.409 . S
O469 C458 1.254 . S
O470 Tb441 2.378 . S
O470 C459 1.236 . S
O471 Tb440 2.341 . S
O471 C459 1.266 . S
H472 C444 0.929 . S
H473 C445 0.931 . S
H474 C447 0.930 . S
H475 C448 0.930 . S
H476 C453 0.929 . S
H477 C454 0.931 . S
H478 C456 0.930 . S
H479 C457 0.930 . S
H480 C486 0.930 . S
H481 C489 0.930 . S
H482 C490 0.930 . S
H483 C491 0.930 . S
H484 C494 0.930 . S
H485 C495 0.930 . S
C486 H480 0.930 . S
C486 C487 1.355 . S
C486 C488 1.415 . S
C487 C486 1.355 . S
C487 C489 1.419 . S
C488 C486 1.415 . S
C488 C493 1.425 . S
C488 C495 1.409 . S
C489 H481 0.930 . S
C489 C487 1.419 . S
C489 C490 1.362 . S
C490 H482 0.930 . S
C490 C489 1.362 . S
C490 C493 1.409 . S
C491 H483 0.930 . S
C491 C492 1.355 . S
C491 C493 1.415 . S
C492 C491 1.355 . S
C492 C494 1.419 . S
C493 C488 1.425 . S
C493 C490 1.409 . S
C493 C491 1.415 . S
C494 H484 0.930 . S
C494 C492 1.419 . S
C494 C495 1.362 . S
C495 H485 0.930 . S
C495 C488 1.409 . S
C495 C494 1.362 . S
H496 C502 0.930 . S
H497 C505 0.930 . S
H498 C506 0.930 . S
H499 C507 0.930 . S
H500 C510 0.930 . S
H501 C511 0.930 . S
C502 H496 0.930 . S
C502 C503 1.355 . S
C502 C504 1.415 . S
C503 C502 1.355 . S
C503 C505 1.419 . S
C504 C502 1.415 . S
C504 C509 1.425 . S
C504 C511 1.409 . S
C505 H497 0.930 . S
C505 C503 1.419 . S
C505 C506 1.362 . S
C506 H498 0.930 . S
C506 C505 1.362 . S
C506 C509 1.409 . S
C507 H499 0.930 . S
C507 C508 1.355 . S
C507 C509 1.415 . S
C508 C507 1.355 . S
C508 C510 1.419 . S
C509 C504 1.425 . S
C509 C506 1.409 . S
C509 C507 1.415 . S
C510 H500 0.930 . S
C510 C508 1.419 . S
C510 C511 1.362 . S
C511 H501 0.930 . S
C511 C504 1.409 . S
C511 C510 1.362 . S
H512 C518 0.930 . S
H513 C521 0.924 1_556 S
H514 C522 0.930 . S
H515 C523 0.930 . S
H516 C526 0.930 . S
H517 C527 0.930 . S
C518 H512 0.930 . S
C518 C519 1.355 . S
C518 C520 1.415 . S
C519 C518 1.355 . S
C519 C521 1.419 . S
C520 C518 1.415 . S
C520 C525 1.425 . S
C520 C527 1.409 . S
C521 H513 0.924 1_554 S
C521 C519 1.419 . S
C521 C522 1.362 . S
C522 H514 0.930 . S
C522 C521 1.362 . S
C522 C525 1.409 . S
C523 H515 0.930 . S
C523 C524 1.355 . S
C523 C525 1.415 . S
C524 C523 1.355 . S
C524 C526 1.419 . S
C525 C520 1.425 . S
C525 C522 1.409 . S
C525 C523 1.415 . S
C526 H516 0.930 . S
C526 C524 1.419 . S
C526 C527 1.362 . S
C527 H517 0.930 . S
C527 C520 1.409 . S
C527 C526 1.362 . S
H528 C534 0.930 . S
H529 C537 0.930 . S
H530 C538 0.930 . S
H531 C539 0.930 . S
H532 C542 0.930 1_565 S
H533 C543 0.930 . S
C534 H528 0.930 . S
C534 C535 1.355 . S
C534 C536 1.415 . S
C535 C534 1.355 . S
C535 C537 1.419 . S
C536 C534 1.415 . S
C536 C541 1.425 . S
C536 C543 1.409 . S
C537 H529 0.930 . S
C537 C535 1.419 . S
C537 C538 1.362 . S
C538 H530 0.930 . S
C538 C537 1.362 . S
C538 C541 1.409 . S
C539 H531 0.930 . S
C539 C540 1.355 . S
C539 C541 1.415 . S
C540 C539 1.355 . S
C540 C542 1.419 . S
C541 C536 1.425 . S
C541 C538 1.409 . S
C541 C539 1.415 . S
C542 H532 0.930 1_545 S
C542 C540 1.419 . S
C542 C543 1.362 . S
C543 H533 0.930 . S
C543 C536 1.409 . S
C543 C542 1.362 . S
H544 C550 0.930 . S
H545 C553 0.930 . S
H546 C554 0.930 . S
H547 C555 0.930 . S
H548 C558 0.930 . S
H549 C559 0.930 . S
C550 H544 0.930 . S
C550 C551 1.355 . S
C550 C552 1.415 . S
C551 C550 1.355 . S
C551 C553 1.419 . S
C552 C550 1.415 . S
C552 C557 1.425 . S
C552 C559 1.409 . S
C553 H545 0.930 . S
C553 C551 1.419 . S
C553 C554 1.362 . S
C554 H546 0.930 . S
C554 C553 1.362 . S
C554 C557 1.409 . S
C555 H547 0.930 . S
C555 C556 1.355 . S
C555 C557 1.415 . S
C556 C555 1.355 . S
C556 C558 1.419 . S
C557 C552 1.425 . S
C557 C554 1.409 . S
C557 C555 1.415 . S
C558 H548 0.930 . S
C558 C556 1.419 . S
C558 C559 1.362 . S
C559 H549 0.930 . S
C559 C552 1.409 . S
C559 C558 1.362 . S
H560 C566 0.930 . S
H561 C569 0.930 . S
H562 C570 0.930 . S
H563 C571 0.930 . S
H564 C574 0.930 . S
H565 C575 0.930 . S
C566 H560 0.930 . S
C566 C567 1.355 . S
C566 C568 1.415 . S
C567 C566 1.355 . S
C567 C569 1.419 . S
C568 C566 1.415 . S
C568 C573 1.425 . S
C568 C575 1.409 . S
C569 H561 0.930 . S
C569 C567 1.419 . S
C569 C570 1.362 . S
C570 H562 0.930 . S
C570 C569 1.362 . S
C570 C573 1.409 . S
C571 H563 0.930 . S
C571 C572 1.355 . S
C571 C573 1.415 . S
C572 C571 1.355 . S
C572 C574 1.419 . S
C573 C568 1.425 . S
C573 C570 1.409 . S
C573 C571 1.415 . S
C574 H564 0.930 . S
C574 C572 1.419 . S
C574 C575 1.362 . S
C575 H565 0.930 . S
C575 C568 1.409 . S
C575 C574 1.362 . S
H576 C582 0.930 . S
H577 C585 0.930 . S
H578 C586 0.930 . S
H579 C587 0.930 . S
H580 C590 0.930 . S
H581 C591 0.930 . S
C582 H576 0.930 . S
C582 C583 1.355 . S
C582 C584 1.415 . S
C583 C582 1.355 . S
C583 C585 1.419 . S
C584 C582 1.415 . S
C584 C589 1.425 . S
C584 C591 1.409 . S
C585 H577 0.930 . S
C585 C583 1.419 . S
C585 C586 1.362 . S
C586 H578 0.930 . S
C586 C585 1.362 . S
C586 C589 1.409 . S
C587 H579 0.930 . S
C587 C588 1.355 . S
C587 C589 1.415 . S
C588 C587 1.355 . S
C588 C590 1.419 . S
C589 C584 1.425 . S
C589 C586 1.409 . S
C589 C587 1.415 . S
C590 H580 0.930 . S
C590 C588 1.419 . S
C590 C591 1.362 . S
C591 H581 0.930 . S
C591 C584 1.409 . S
C591 C590 1.362 . S
H592 C598 0.930 . S
H593 C601 0.930 . S
H594 C602 0.930 . S
H595 C603 0.930 . S
H596 C606 0.930 . S
H597 C607 0.930 . S
C598 H592 0.930 . S
C598 C599 1.355 . S
C598 C600 1.415 . S
C599 C598 1.355 . S
C599 C601 1.419 . S
C600 C598 1.415 . S
C600 C605 1.425 . S
C600 C607 1.409 . S
C601 H593 0.930 . S
C601 C599 1.419 . S
C601 C602 1.362 . S
C602 H594 0.930 . S
C602 C601 1.362 . S
C602 C605 1.409 . S
C603 H595 0.930 . S
C603 C604 1.355 . S
C603 C605 1.415 . S
C604 C603 1.355 . S
C604 C606 1.419 . S
C605 C600 1.425 . S
C605 C602 1.409 . S
C605 C603 1.415 . S
C606 H596 0.930 . S
C606 C604 1.419 . S
C606 C607 1.362 . S
C607 H597 0.930 . S
C607 C600 1.409 . S
C607 C606 1.362 . S
H608 C614 0.930 . S
H609 C617 0.930 . S
H610 C618 0.930 . S
H611 C619 0.930 . S
H612 C622 0.930 . S
H613 C623 0.930 . S
C614 H608 0.930 . S
C614 C615 1.355 . S
C614 C616 1.415 . S
C615 C614 1.355 . S
C615 C617 1.419 . S
C616 C614 1.415 . S
C616 C621 1.425 . S
C616 C623 1.409 . S
C617 H609 0.930 . S
C617 C615 1.419 . S
C617 C618 1.362 . S
C618 H610 0.930 . S
C618 C617 1.362 . S
C618 C621 1.409 . S
C619 H611 0.930 . S
C619 C620 1.355 . S
C619 C621 1.415 . S
C620 C619 1.355 . S
C620 C622 1.419 . S
C621 C616 1.425 . S
C621 C618 1.409 . S
C621 C619 1.415 . S
C622 H612 0.930 . S
C622 C620 1.419 . S
C622 C623 1.362 . S
C623 H613 0.930 . S
C623 C616 1.409 . S
C623 C622 1.362 . S
H624 C630 0.930 . S
H625 C633 0.930 . S
H626 C634 0.930 . S
H627 C635 0.930 . S
H628 C638 0.930 . S
H629 C639 0.930 . S
C630 H624 0.930 . S
C630 C631 1.355 . S
C630 C632 1.415 . S
C631 C630 1.355 . S
C631 C633 1.419 . S
C632 C630 1.415 . S
C632 C637 1.425 . S
C632 C639 1.409 . S
C633 H625 0.930 . S
C633 C631 1.419 . S
C633 C634 1.362 . S
C634 H626 0.930 . S
C634 C633 1.362 . S
C634 C637 1.409 . S
C635 H627 0.930 . S
C635 C636 1.355 . S
C635 C637 1.415 . S
C636 C635 1.355 . S
C636 C638 1.419 . S
C637 C632 1.425 . S
C637 C634 1.409 . S
C637 C635 1.415 . S
C638 H628 0.930 . S
C638 C636 1.419 . S
C638 C639 1.362 . S
C639 H629 0.930 . S
C639 C632 1.409 . S
C639 C638 1.362 . S
H640 C646 0.930 . S
H641 C649 0.930 . S
H642 C650 0.930 . S
H643 C651 0.930 . S
H644 C654 0.930 . S
H645 C655 0.930 . S
C646 H640 0.930 . S
C646 C647 1.355 . S
C646 C648 1.415 . S
C647 C646 1.355 . S
C647 C649 1.419 . S
C648 C646 1.415 . S
C648 C653 1.425 . S
C648 C655 1.409 . S
C649 H641 0.930 . S
C649 C647 1.419 . S
C649 C650 1.362 . S
C650 H642 0.930 . S
C650 C649 1.362 . S
C650 C653 1.409 . S
C651 H643 0.930 . S
C651 C652 1.355 . S
C651 C653 1.415 . S
C652 C651 1.355 . S
C652 C654 1.419 . S
C653 C648 1.425 . S
C653 C650 1.409 . S
C653 C651 1.415 . S
C654 H644 0.930 . S
C654 C652 1.419 . S
C654 C655 1.362 . S
C655 H645 0.930 . S
C655 C648 1.409 . S
C655 C654 1.362 . S
H656 C662 0.930 . S
H657 C665 0.930 . S
H658 C666 0.930 . S
H659 C667 0.930 . S
H660 C670 0.930 . S
H661 C671 0.930 . S
C662 H656 0.930 . S
C662 C663 1.355 . S
C662 C664 1.415 . S
C663 C662 1.355 . S
C663 C665 1.419 . S
C664 C662 1.415 . S
C664 C669 1.425 . S
C664 C671 1.409 . S
C665 H657 0.930 . S
C665 C663 1.419 . S
C665 C666 1.362 . S
C666 H658 0.930 . S
C666 C665 1.362 . S
C666 C669 1.409 . S
C667 H659 0.930 . S
C667 C668 1.355 . S
C667 C669 1.415 . S
C668 C667 1.355 . S
C668 C670 1.419 . S
C669 C664 1.425 . S
C669 C666 1.409 . S
C669 C667 1.415 . S
C670 H660 0.930 . S
C670 C668 1.419 . S
C670 C671 1.362 . S
C671 H661 0.930 . S
C671 C664 1.409 . S
C671 C670 1.362 . S
H672 C678 0.930 . S
H673 C681 0.930 . S
H674 C682 0.930 . S
H675 C683 0.930 . S
H676 C686 0.930 . S
H677 C687 0.930 . S
C678 H672 0.930 . S
C678 C679 1.355 . S
C678 C680 1.415 . S
C679 C678 1.355 . S
C679 C681 1.419 . S
C680 C678 1.415 . S
C680 C685 1.425 . S
C680 C687 1.409 . S
C681 H673 0.930 . S
C681 C679 1.419 . S
C681 C682 1.362 . S
C682 H674 0.930 . S
C682 C681 1.362 . S
C682 C685 1.409 . S
C683 H675 0.930 . S
C683 C684 1.355 . S
C683 C685 1.415 . S
C684 C683 1.355 . S
C684 C686 1.419 . S
C685 C680 1.425 . S
C685 C682 1.409 . S
C685 C683 1.415 . S
C686 H676 0.930 . S
C686 C684 1.419 . S
C686 C687 1.362 . S
C687 H677 0.930 . S
C687 C680 1.409 . S
C687 C686 1.362 . S
H688 C694 0.930 . S
H689 C697 0.930 . S
H690 C698 0.930 . S
H691 C699 0.930 . S
H692 C702 0.930 . S
H693 C703 0.930 . S
C694 H688 0.930 . S
C694 C695 1.355 . S
C694 C696 1.415 . S
C695 C694 1.355 . S
C695 C697 1.419 . S
C696 C694 1.415 . S
C696 C701 1.425 . S
C696 C703 1.409 . S
C697 H689 0.930 . S
C697 C695 1.419 . S
C697 C698 1.362 . S
C698 H690 0.930 . S
C698 C697 1.362 . S
C698 C701 1.409 . S
C699 H691 0.930 . S
C699 C700 1.355 . S
C699 C701 1.415 . S
C700 C699 1.355 . S
C700 C702 1.419 . S
C701 C696 1.425 . S
C701 C698 1.409 . S
C701 C699 1.415 . S
C702 H692 0.930 . S
C702 C700 1.419 . S
C702 C703 1.362 . S
C703 H693 0.930 . S
C703 C696 1.409 . S
C703 C702 1.362 . S
H704 C710 0.930 . S
H705 C713 0.930 . S
H706 C714 0.930 . S
H707 C715 0.930 . S
H708 C718 0.930 . S
H709 C719 0.930 . S
C710 H704 0.930 . S
C710 C711 1.355 . S
C710 C712 1.415 . S
C711 C710 1.355 . S
C711 C713 1.419 . S
C712 C710 1.415 . S
C712 C717 1.425 . S
C712 C719 1.409 . S
C713 H705 0.930 . S
C713 C711 1.419 . S
C713 C714 1.362 . S
C714 H706 0.930 . S
C714 C713 1.362 . S
C714 C717 1.409 . S
C715 H707 0.930 . S
C715 C716 1.355 . S
C715 C717 1.415 . S
C716 C715 1.355 . S
C716 C718 1.419 . S
C717 C712 1.425 . S
C717 C714 1.409 . S
C717 C715 1.415 . S
C718 H708 0.930 . S
C718 C716 1.419 . S
C718 C719 1.362 . S
C719 H709 0.930 . S
C719 C712 1.409 . S
C719 C718 1.362 . S
H720 C726 0.930 . S
H721 C729 0.930 . S
H722 C730 0.930 . S
H723 C731 0.930 . S
H724 C734 0.930 . S
H725 C735 0.930 . S
C726 H720 0.930 . S
C726 C727 1.355 . S
C726 C728 1.415 . S
C727 C726 1.355 . S
C727 C729 1.419 . S
C728 C726 1.415 . S
C728 C733 1.425 . S
C728 C735 1.409 1_554 S
C729 H721 0.930 . S
C729 C727 1.419 . S
C729 C730 1.362 . S
C730 H722 0.930 . S
C730 C729 1.362 . S
C730 C733 1.409 . S
C731 H723 0.930 . S
C731 C732 1.355 . S
C731 C733 1.415 1_556 S
C732 C731 1.355 . S
C732 C734 1.419 . S
C733 C728 1.425 . S
C733 C730 1.409 . S
C733 C731 1.415 1_554 S
C734 H724 0.930 . S
C734 C732 1.419 . S
C734 C735 1.362 . S
C735 H725 0.930 . S
C735 C728 1.409 1_556 S
C735 C734 1.362 . S
H736 C742 0.930 . S
H737 C745 0.930 . S
H738 C746 0.930 . S
H739 C747 0.930 . S
H740 C750 0.930 . S
H741 C751 0.930 . S
C742 H736 0.930 . S
C742 C743 1.355 . S
C742 C744 1.415 . S
C743 C742 1.355 . S
C743 C745 1.419 . S
C744 C742 1.415 . S
C744 C749 1.425 . S
C744 C751 1.409 . S
C745 H737 0.930 . S
C745 C743 1.419 . S
C745 C746 1.362 . S
C746 H738 0.930 . S
C746 C745 1.362 . S
C746 C749 1.409 . S
C747 H739 0.930 . S
C747 C748 1.355 . S
C747 C749 1.415 . S
C748 C747 1.355 . S
C748 C750 1.419 . S
C749 C744 1.425 . S
C749 C746 1.409 . S
C749 C747 1.415 . S
C750 H740 0.930 . S
C750 C748 1.419 . S
C750 C751 1.362 . S
C751 H741 0.930 . S
C751 C744 1.409 . S
C751 C750 1.362 . S
H752 C758 0.930 . S
H753 C761 0.930 . S
H754 C762 0.930 . S
H755 C763 0.930 . S
H756 C766 0.930 . S
H757 C767 0.930 . S
C758 H752 0.930 . S
C758 C759 1.355 . S
C758 C760 1.415 1_554 S
C759 C758 1.355 . S
C759 C761 1.419 . S
C760 C758 1.415 1_556 S
C760 C765 1.425 . S
C760 C767 1.409 . S
C761 H753 0.930 . S
C761 C759 1.419 . S
C761 C762 1.362 . S
C762 H754 0.930 . S
C762 C761 1.362 . S
C762 C765 1.409 1_554 S
C763 H755 0.930 . S
C763 C764 1.355 . S
C763 C765 1.415 . S
C764 C763 1.355 . S
C764 C766 1.419 . S
C765 C760 1.425 . S
C765 C762 1.409 1_556 S
C765 C763 1.415 . S
C766 H756 0.930 . S
C766 C764 1.419 . S
C766 C767 1.362 . S
C767 H757 0.930 . S
C767 C760 1.409 . S
C767 C766 1.362 . S
H768 C774 0.930 . S
H769 C777 0.930 . S
H770 C778 0.930 . S
H771 C779 0.930 . S
H772 C782 0.930 . S
H773 C783 0.930 . S
C774 H768 0.930 . S
C774 C775 1.355 . S
C774 C776 1.415 . S
C775 C774 1.355 . S
C775 C777 1.419 . S
C776 C774 1.415 . S
C776 C781 1.425 . S
C776 C783 1.409 . S
C777 H769 0.930 . S
C777 C775 1.419 . S
C777 C778 1.362 . S
C778 H770 0.930 . S
C778 C777 1.362 . S
C778 C781 1.409 . S
C779 H771 0.930 . S
C779 C780 1.355 . S
C779 C781 1.415 . S
C780 C779 1.355 . S
C780 C782 1.419 . S
C781 C776 1.425 . S
C781 C778 1.409 . S
C781 C779 1.415 . S
C782 H772 0.930 . S
C782 C780 1.419 . S
C782 C783 1.362 . S
C783 H773 0.930 . S
C783 C776 1.409 . S
C783 C782 1.362 . S
H784 C790 0.930 . S
H785 C793 0.930 . S
H786 C794 0.930 . S
H787 C795 0.930 . S
H788 C798 0.930 . S
H789 C799 0.930 . S
C790 H784 0.930 . S
C790 C791 1.355 . S
C790 C792 1.415 . S
C791 C790 1.355 . S
C791 C793 1.419 . S
C792 C790 1.415 . S
C792 C797 1.425 . S
C792 C799 1.409 . S
C793 H785 0.930 . S
C793 C791 1.419 . S
C793 C794 1.362 . S
C794 H786 0.930 . S
C794 C793 1.362 . S
C794 C797 1.409 . S
C795 H787 0.930 . S
C795 C796 1.355 . S
C795 C797 1.415 . S
C796 C795 1.355 . S
C796 C798 1.419 . S
C797 C792 1.425 . S
C797 C794 1.409 . S
C797 C795 1.415 . S
C798 H788 0.930 . S
C798 C796 1.419 . S
C798 C799 1.362 . S
C799 H789 0.930 . S
C799 C792 1.409 . S
C799 C798 1.362 . S
H800 C806 0.930 . S
H801 C809 0.930 . S
H802 C810 0.930 . S
H803 C811 0.930 . S
H804 C814 0.930 . S
H805 C815 0.930 . S
C806 H800 0.930 . S
C806 C807 1.355 . S
C806 C808 1.415 . S
C807 C806 1.355 . S
C807 C809 1.419 . S
C808 C806 1.415 . S
C808 C813 1.425 . S
C808 C815 1.409 . S
C809 H801 0.930 . S
C809 C807 1.419 . S
C809 C810 1.362 . S
C810 H802 0.930 . S
C810 C809 1.362 . S
C810 C813 1.409 . S
C811 H803 0.930 . S
C811 C812 1.355 . S
C811 C813 1.415 . S
C812 C811 1.355 . S
C812 C814 1.419 . S
C813 C808 1.425 . S
C813 C810 1.409 . S
C813 C811 1.415 . S
C814 H804 0.930 . S
C814 C812 1.419 . S
C814 C815 1.362 . S
C815 H805 0.930 . S
C815 C808 1.409 . S
C815 C814 1.362 . S
H816 C822 0.930 . S
H817 C825 0.930 . S
H818 C826 0.930 1_655 S
H819 C827 0.930 1_655 S
H820 C830 0.930 . S
H821 C831 0.930 . S
C822 H816 0.930 . S
C822 C823 1.355 . S
C822 C824 1.415 . S
C823 C822 1.355 . S
C823 C825 1.419 . S
C824 C822 1.415 . S
C824 C829 1.425 . S
C824 C831 1.409 1_545 S
C825 H817 0.930 . S
C825 C823 1.419 . S
C825 C826 1.362 . S
C826 H818 0.930 1_455 S
C826 C825 1.362 . S
C826 C829 1.409 . S
C827 H819 0.930 1_455 S
C827 C828 1.355 . S
C827 C829 1.415 1_565 S
C828 C827 1.355 . S
C828 C830 1.419 . S
C829 C824 1.425 . S
C829 C826 1.409 . S
C829 C827 1.415 1_545 S
C830 H820 0.930 . S
C830 C828 1.419 . S
C830 C831 1.362 . S
C831 H821 0.930 . S
C831 C824 1.409 1_565 S
C831 C830 1.362 . S
H832 C838 0.930 . S
H833 C841 0.930 . S
H834 C842 0.930 . S
H835 C843 0.930 . S
H836 C846 0.930 . S
H837 C847 0.930 . S
C838 H832 0.930 . S
C838 C839 1.355 . S
C838 C840 1.415 . S
C839 C838 1.355 . S
C839 C841 1.419 . S
C840 C838 1.415 . S
C840 C845 1.425 . S
C840 C847 1.409 . S
C841 H833 0.930 . S
C841 C839 1.419 . S
C841 C842 1.362 . S
C842 H834 0.930 . S
C842 C841 1.362 . S
C842 C845 1.409 . S
C843 H835 0.930 . S
C843 C844 1.355 . S
C843 C845 1.415 . S
C844 C843 1.355 . S
C844 C846 1.419 . S
C845 C840 1.425 . S
C845 C842 1.409 . S
C845 C843 1.415 . S
C846 H836 0.930 . S
C846 C844 1.419 . S
C846 C847 1.362 . S
C847 H837 0.930 . S
C847 C840 1.409 . S
C847 C846 1.362 . S
H848 C854 0.930 . S
H849 C857 0.930 . S
H850 C858 0.930 . S
H851 C859 0.930 . S
H852 C862 0.930 . S
H853 C863 0.930 1_545 S
C854 H848 0.930 . S
C854 C855 1.355 . S
C854 C856 1.415 . S
C855 C854 1.355 . S
C855 C857 1.419 . S
C856 C854 1.415 . S
C856 C861 1.425 . S
C856 C863 1.409 1_545 S
C857 H849 0.930 . S
C857 C855 1.419 . S
C857 C858 1.362 . S
C858 H850 0.930 . S
C858 C857 1.362 . S
C858 C861 1.409 . S
C859 H851 0.930 . S
C859 C860 1.355 . S
C859 C861 1.415 1_565 S
C860 C859 1.355 . S
C860 C862 1.419 . S
C861 C856 1.425 . S
C861 C858 1.409 . S
C861 C859 1.415 1_545 S
C862 H852 0.930 . S
C862 C860 1.419 . S
C862 C863 1.362 . S
C863 H853 0.930 1_565 S
C863 C856 1.409 1_565 S
C863 C862 1.362 . S
H864 C870 0.930 . S
H865 C873 0.930 . S
H866 C874 0.930 . S
H867 C875 0.930 . S
H868 C878 0.930 . S
H869 C879 0.930 . S
C870 H864 0.930 . S
C870 C871 1.355 . S
C870 C872 1.415 . S
C871 C870 1.355 . S
C871 C873 1.419 . S
C872 C870 1.415 . S
C872 C877 1.425 . S
C872 C879 1.409 . S
C873 H865 0.930 . S
C873 C871 1.419 . S
C873 C874 1.362 . S
C874 H866 0.930 . S
C874 C873 1.362 . S
C874 C877 1.409 . S
C875 H867 0.930 . S
C875 C876 1.355 . S
C875 C877 1.415 . S
C876 C875 1.355 . S
C876 C878 1.419 . S
C877 C872 1.425 . S
C877 C874 1.409 . S
C877 C875 1.415 . S
C878 H868 0.930 . S
C878 C876 1.419 . S
C878 C879 1.362 . S
C879 H869 0.930 . S
C879 C872 1.409 . S
C879 C878 1.362 . S
H880 C886 0.930 . S
H881 C889 0.930 . S
H882 C890 0.930 . S
H883 C891 0.930 . S
H884 C894 0.930 . S
H885 C895 0.930 . S
C886 H880 0.930 . S
C886 C887 1.355 . S
C886 C888 1.415 . S
C887 C886 1.355 . S
C887 C889 1.419 . S
C888 C886 1.415 . S
C888 C893 1.425 . S
C888 C895 1.409 . S
C889 H881 0.930 . S
C889 C887 1.419 . S
C889 C890 1.362 . S
C890 H882 0.930 . S
C890 C889 1.362 . S
C890 C893 1.409 . S
C891 H883 0.930 . S
C891 C892 1.355 . S
C891 C893 1.415 . S
C892 C891 1.355 . S
C892 C894 1.419 . S
C893 C888 1.425 . S
C893 C890 1.409 . S
C893 C891 1.415 . S
C894 H884 0.930 . S
C894 C892 1.419 . S
C894 C895 1.362 . S
C895 H885 0.930 . S
C895 C888 1.409 . S
C895 C894 1.362 . S
H896 C902 0.930 . S
H897 C905 0.930 . S
H898 C906 0.930 . S
H899 C907 0.930 . S
H900 C910 0.930 . S
H901 C911 0.930 . S
C902 H896 0.930 . S
C902 C903 1.355 . S
C902 C904 1.415 . S
C903 C902 1.355 . S
C903 C905 1.419 . S
C904 C902 1.415 . S
C904 C909 1.425 . S
C904 C911 1.409 . S
C905 H897 0.930 . S
C905 C903 1.419 . S
C905 C906 1.362 . S
C906 H898 0.930 . S
C906 C905 1.362 . S
C906 C909 1.409 . S
C907 H899 0.930 . S
C907 C908 1.355 . S
C907 C909 1.415 . S
C908 C907 1.355 . S
C908 C910 1.419 . S
C909 C904 1.425 . S
C909 C906 1.409 . S
C909 C907 1.415 . S
C910 H900 0.930 . S
C910 C908 1.419 . S
C910 C911 1.362 . S
C911 H901 0.930 . S
C911 C904 1.409 . S
C911 C910 1.362 . S
H912 C918 0.930 . S
H913 C921 0.930 . S
H914 C922 0.930 . S
H915 C923 0.930 . S
H916 C926 0.930 . S
H917 C927 0.930 . S
C918 H912 0.930 . S
C918 C919 1.355 . S
C918 C920 1.415 . S
C919 C918 1.355 . S
C919 C921 1.419 . S
C920 C918 1.415 . S
C920 C925 1.425 . S
C920 C927 1.409 . S
C921 H913 0.930 . S
C921 C919 1.419 . S
C921 C922 1.362 . S
C922 H914 0.930 . S
C922 C921 1.362 . S
C922 C925 1.409 . S
C923 H915 0.930 . S
C923 C924 1.355 . S
C923 C925 1.415 . S
C924 C923 1.355 . S
C924 C926 1.419 . S
C925 C920 1.425 . S
C925 C922 1.409 . S
C925 C923 1.415 . S
C926 H916 0.930 . S
C926 C924 1.419 . S
C926 C927 1.362 . S
C927 H917 0.930 . S
C927 C920 1.409 . S
C927 C926 1.362 . S
H928 C934 0.930 . S
H929 C937 0.930 . S
H930 C938 0.930 . S
H931 C939 0.930 . S
H932 C942 0.930 . S
H933 C943 0.930 . S
C934 H928 0.930 . S
C934 C935 1.355 . S
C934 C936 1.415 . S
C935 C934 1.355 . S
C935 C937 1.419 . S
C936 C934 1.415 . S
C936 C941 1.425 . S
C936 C943 1.409 . S
C937 H929 0.930 . S
C937 C935 1.419 . S
C937 C938 1.362 . S
C938 H930 0.930 . S
C938 C937 1.362 . S
C938 C941 1.409 . S
C939 H931 0.930 . S
C939 C940 1.355 . S
C939 C941 1.415 . S
C940 C939 1.355 . S
C940 C942 1.419 . S
C941 C936 1.425 . S
C941 C938 1.409 . S
C941 C939 1.415 . S
C942 H932 0.930 . S
C942 C940 1.419 . S
C942 C943 1.362 . S
C943 H933 0.930 . S
C943 C936 1.409 . S
C943 C942 1.362 . S
H944 C950 0.930 . S
H945 C953 0.930 . S
H946 C954 0.930 . S
H947 C955 0.930 . S
H948 C958 0.930 . S
H949 C959 0.930 . S
C950 H944 0.930 . S
C950 C951 1.355 . S
C950 C952 1.415 . S
C951 C950 1.355 . S
C951 C953 1.419 . S
C952 C950 1.415 . S
C952 C957 1.425 . S
C952 C959 1.409 . S
C953 H945 0.930 . S
C953 C951 1.419 . S
C953 C954 1.362 . S
C954 H946 0.930 . S
C954 C953 1.362 . S
C954 C957 1.409 . S
C955 H947 0.930 . S
C955 C956 1.355 . S
C955 C957 1.415 . S
C956 C955 1.355 . S
C956 C958 1.419 . S
C957 C952 1.425 . S
C957 C954 1.409 . S
C957 C955 1.415 . S
C958 H948 0.930 . S
C958 C956 1.419 . S
C958 C959 1.362 . S
C959 H949 0.930 . S
C959 C952 1.409 . S
C959 C958 1.362 . S
H960 C966 0.930 . S
H961 C969 0.930 . S
H962 C970 0.930 . S
H963 C971 0.930 . S
H964 C974 0.930 1_556 S
H965 C975 0.930 1_556 S
C966 H960 0.930 . S
C966 C967 1.355 . S
C966 C968 1.415 . S
C967 C966 1.355 . S
C967 C969 1.419 . S
C968 C966 1.415 . S
C968 C973 1.425 . S
C968 C975 1.409 . S
C969 H961 0.930 . S
C969 C967 1.419 . S
C969 C970 1.362 . S
C970 H962 0.930 . S
C970 C969 1.362 . S
C970 C973 1.409 . S
C971 H963 0.930 . S
C971 C972 1.355 . S
C971 C973 1.415 1_655 S
C972 C971 1.355 . S
C972 C974 1.419 . S
C973 C968 1.425 . S
C973 C970 1.409 . S
C973 C971 1.415 1_455 S
C974 H964 0.930 1_554 S
C974 C972 1.419 . S
C974 C975 1.362 1_655 S
C975 H965 0.930 1_554 S
C975 C968 1.409 . S
C975 C974 1.362 1_455 S
H976 C982 0.930 . S
H977 C985 0.930 . S
H978 C986 0.930 . S
H979 C987 0.930 . S
H980 C990 0.930 . S
H981 C991 0.930 . S
C982 H976 0.930 . S
C982 C983 1.355 . S
C982 C984 1.415 . S
C983 C982 1.355 . S
C983 C985 1.419 . S
C984 C982 1.415 . S
C984 C989 1.425 . S
C984 C991 1.409 . S
C985 H977 0.930 . S
C985 C983 1.419 . S
C985 C986 1.362 . S
C986 H978 0.930 . S
C986 C985 1.362 . S
C986 C989 1.409 . S
C987 H979 0.930 . S
C987 C988 1.355 . S
C987 C989 1.415 . S
C988 C987 1.355 . S
C988 C990 1.419 . S
C989 C984 1.425 . S
C989 C986 1.409 . S
C989 C987 1.415 . S
C990 H980 0.930 . S
C990 C988 1.419 . S
C990 C991 1.362 . S
C991 H981 0.930 . S
C991 C984 1.409 . S
C991 C990 1.362 . S
H992 C998 0.930 . S
H993 C1001 0.930 . S
H994 C1002 0.930 . S
H995 C1003 0.930 . S
H996 C1006 0.930 . S
H997 C1007 0.930 . S
C998 H992 0.930 . S
C998 C999 1.355 . S
C998 C1000 1.415 . S
C999 C998 1.355 . S
C999 C1001 1.419 . S
C1000 C998 1.415 . S
C1000 C1005 1.425 . S
C1000 C1007 1.409 . S
C1001 H993 0.930 . S
C1001 C999 1.419 . S
C1001 C1002 1.362 . S
C1002 H994 0.930 . S
C1002 C1001 1.362 . S
C1002 C1005 1.409 . S
C1003 H995 0.930 . S
C1003 C1004 1.355 . S
C1003 C1005 1.415 . S
C1004 C1003 1.355 . S
C1004 C1006 1.419 . S
C1005 C1000 1.425 . S
C1005 C1002 1.409 . S
C1005 C1003 1.415 . S
C1006 H996 0.930 . S
C1006 C1004 1.419 . S
C1006 C1007 1.362 . S
C1007 H997 0.930 . S
C1007 C1000 1.409 . S
C1007 C1006 1.362 . S
H1008 C1014 0.930 . S
H1009 C1017 0.930 . S
H1010 C1018 0.930 . S
H1011 C1019 0.930 . S
H1012 C1022 0.930 1_655 S
H1013 C1023 0.930 1_655 S
C1014 H1008 0.930 . S
C1014 C1015 1.355 . S
C1014 C1016 1.415 . S
C1015 C1014 1.355 . S
C1015 C1017 1.419 . S
C1016 C1014 1.415 . S
C1016 C1021 1.425 . S
C1016 C1023 1.409 . S
C1017 H1009 0.930 . S
C1017 C1015 1.419 . S
C1017 C1018 1.362 . S
C1018 H1010 0.930 . S
C1018 C1017 1.362 . S
C1018 C1021 1.409 . S
C1019 H1011 0.930 . S
C1019 C1020 1.355 . S
C1019 C1021 1.415 . S
C1020 C1019 1.355 . S
C1020 C1022 1.419 . S
C1021 C1016 1.425 . S
C1021 C1018 1.409 . S
C1021 C1019 1.415 . S
C1022 H1012 0.930 1_455 S
C1022 C1020 1.419 . S
C1022 C1023 1.362 . S
C1023 H1013 0.930 1_455 S
C1023 C1016 1.409 . S
C1023 C1022 1.362 . S
H1024 C1030 0.930 . S
H1025 C1033 0.930 . S
H1026 C1034 0.930 . S
H1027 C1035 0.930 . S
H1028 C1038 0.930 . S
H1029 C1039 0.930 . S
C1030 H1024 0.930 . S
C1030 C1031 1.355 . S
C1030 C1032 1.415 . S
C1031 C1030 1.355 . S
C1031 C1033 1.419 . S
C1032 C1030 1.415 . S
C1032 C1037 1.425 . S
C1032 C1039 1.409 . S
C1033 H1025 0.930 . S
C1033 C1031 1.419 . S
C1033 C1034 1.362 . S
C1034 H1026 0.930 . S
C1034 C1033 1.362 . S
C1034 C1037 1.409 . S
C1035 H1027 0.930 . S
C1035 C1036 1.355 . S
C1035 C1037 1.415 . S
C1036 C1035 1.355 . S
C1036 C1038 1.419 . S
C1037 C1032 1.425 . S
C1037 C1034 1.409 . S
C1037 C1035 1.415 . S
C1038 H1028 0.930 . S
C1038 C1036 1.419 . S
C1038 C1039 1.362 . S
C1039 H1029 0.930 . S
C1039 C1032 1.409 . S
C1039 C1038 1.362 . S
H1040 C1046 0.930 . S
H1041 C1049 0.930 . S
H1042 C1050 0.930 . S
H1043 C1051 0.930 . S
H1044 C1054 0.930 . S
H1045 C1055 0.930 . S
C1046 H1040 0.930 . S
C1046 C1047 1.355 . S
C1046 C1048 1.415 . S
C1047 C1046 1.355 . S
C1047 C1049 1.419 . S
C1048 C1046 1.415 . S
C1048 C1053 1.425 . S
C1048 C1055 1.409 . S
C1049 H1041 0.930 . S
C1049 C1047 1.419 . S
C1049 C1050 1.362 . S
C1050 H1042 0.930 . S
C1050 C1049 1.362 . S
C1050 C1053 1.409 . S
C1051 H1043 0.930 . S
C1051 C1052 1.355 . S
C1051 C1053 1.415 1_455 S
C1052 C1051 1.355 . S
C1052 C1054 1.419 . S
C1053 C1048 1.425 . S
C1053 C1050 1.409 . S
C1053 C1051 1.415 1_655 S
C1054 H1044 0.930 . S
C1054 C1052 1.419 . S
C1054 C1055 1.362 1_455 S
C1055 H1045 0.930 . S
C1055 C1048 1.409 . S
C1055 C1054 1.362 1_655 S
C487 C19 1.658 . S
C492 C458 1.712 . S
C503 C378 1.751 . S
C508 C58 1.778 . S
C519 C99 1.391 . S
C524 C339 1.439 . S
C535 C138 1.682 . S
C540 C418 1.702 . S
C551 C178 2.083 . S
C556 C419 1.946 . S
C567 C219 1.395 . S
C572 C459 1.404 . S
C583 C379 1.805 . S
C588 C258 1.901 . S
C599 C298 1.495 . S
C604 C338 1.480 . S
C615 C139 1.852 . S
C620 C179 1.868 . S
C631 C18 1.897 . S
C636 C218 1.889 . S
C647 C59 1.543 . S
C652 C259 1.493 . S
C663 C299 1.746 . S
C668 C98 1.774 . S
C679 C15 2.702 . S
C684 C330 2.829 . S
C695 C46 1.176 . S
C700 C409 1.076 . S
C711 C449 1.744 . S
C716 C95 1.817 . S
C727 C126 1.435 . S
C732 C369 1.331 . S
C743 C166 1.509 . S
C748 C370 1.500 . S
C759 C329 1.800 . S
C764 C215 1.877 . S
C775 C410 1.942 . S
C780 C246 1.956 . S
C791 C450 1.767 . S
C796 C286 1.789 . S
C807 C9 1.592 . S
C812 C135 1.669 . S
C823 C6 2.141 . S
C828 C50 2.101 . S
C839 C55 2.041 . S
C844 C89 1.969 . S
C855 C130 1.901 . S
C860 C86 1.902 . S
C871 C206 1.073 . S
C876 C170 1.060 . S
C887 C209 1.762 . S
C892 C255 1.840 . S
C903 C250 1.499 . S
C908 C295 1.429 . S
C919 C175 1.799 . S
C924 C290 1.884 . S
C935 C326 1.303 . S
C940 C129 1.255 . S
C951 C210 1.659 . S
C956 C366 1.671 . S
C967 C335 2.062 . S
C972 C249 1.998 . S
C983 C406 1.626 . S
C988 C289 1.480 . S
C999 C169 0.767 . S
C1004 C446 0.805 . S
C1015 C455 1.615 . S
C1020 C49 1.556 . S
C1031 C90 1.497 . S
C1036 C375 1.454 . S
C1047 C415 1.904 . S
C1052 C10 1.989 . S
