# Generated by pormake.
# Topology lcy-e, (6)-cn, num edge types: 1
# Building blocks:
#     Node 0, Type 0, BuildingBlock: BETDAH_clean_sbu_0, # of connection points: 6
#     Node 1, Type 0, BuildingBlock: BETDAH_clean_sbu_0, # of connection points: 6
#     Node 2, Type 0, BuildingBlock: BETDAH_clean_sbu_0, # of connection points: 6
#     Node 3, Type 0, BuildingBlock: BETDAH_clean_sbu_0, # of connection points: 6
#     Node 4, Type 0, BuildingBlock: BETDAH_clean_sbu_0, # of connection points: 6
#     Node 5, Type 0, BuildingBlock: BETDAH_clean_sbu_0, # of connection points: 6
#     Node 6, Type 0, BuildingBlock: BETDAH_clean_sbu_0, # of connection points: 6
#     Node 7, Type 0, BuildingBlock: BETDAH_clean_sbu_0, # of connection points: 6
#     Node 8, Type 0, BuildingBlock: BETDAH_clean_sbu_0, # of connection points: 6
#     Node 9, Type 0, BuildingBlock: BETDAH_clean_sbu_0, # of connection points: 6
#     Node 10, Type 0, BuildingBlock: BETDAH_clean_sbu_0, # of connection points: 6
#     Node 11, Type 0, BuildingBlock: BETDAH_clean_sbu_0, # of connection points: 6
#     Edge 12, Type (0, 0), None
#     Edge 13, Type (0, 0), None
#     Edge 14, Type (0, 0), None
#     Edge 15, Type (0, 0), None
#     Edge 16, Type (0, 0), None
#     Edge 17, Type (0, 0), None
#     Edge 18, Type (0, 0), None
#     Edge 19, Type (0, 0), None
#     Edge 20, Type (0, 0), None
#     Edge 21, Type (0, 0), None
#     Edge 22, Type (0, 0), None
#     Edge 23, Type (0, 0), None
#     Edge 24, Type (0, 0), None
#     Edge 25, Type (0, 0), None
#     Edge 26, Type (0, 0), None
#     Edge 27, Type (0, 0), None
#     Edge 28, Type (0, 0), None
#     Edge 29, Type (0, 0), None
#     Edge 30, Type (0, 0), None
#     Edge 31, Type (0, 0), None
#     Edge 32, Type (0, 0), None
#     Edge 33, Type (0, 0), None
#     Edge 34, Type (0, 0), None
#     Edge 35, Type (0, 0), None
#     Edge 36, Type (0, 0), None
#     Edge 37, Type (0, 0), None
#     Edge 38, Type (0, 0), None
#     Edge 39, Type (0, 0), None
#     Edge 40, Type (0, 0), None
#     Edge 41, Type (0, 0), None
#     Edge 42, Type (0, 0), None
#     Edge 43, Type (0, 0), None
#     Edge 44, Type (0, 0), None
#     Edge 45, Type (0, 0), None
#     Edge 46, Type (0, 0), None
#     Edge 47, Type (0, 0), None
# Relax obj value: 0.208
# Max RMSD: 0.346
# Mean RMSD: 0.316
data_MOF--net-lcy-e--node1-BETDAH_clean_sbu_0--edge1-none
_symmetry_space_group_name_H-M    P1
_symmetry_Int_Tables_number       1
_symmetry_cell_setting            triclinic
loop_
_symmetry_equiv_pos_as_xyz
'x, y, z'
_cell_length_a     24.615812
_cell_length_b     23.200149
_cell_length_c     24.77726
_cell_angle_alpha  88.747597
_cell_angle_beta   91.780934
_cell_angle_gamma 85.940983
loop_
_atom_site_label
_atom_site_type_symbol
_atom_site_fract_x
_atom_site_fract_y
_atom_site_fract_z
_atom_type_partial_charge
Ho0 Ho 0.13506 0.32729 0.50066 0.0
Ho1 Ho 0.16518 0.24362 0.5826 0.0
C2 C 0.2376 0.22727 0.48497 0.0
C3 C 0.1354 0.4094 0.42738 0.0
C4 C 0.16319 0.41706 0.37514 0.0
C5 C 0.21911 0.42648 0.37385 0.0
C6 C 0.24408 0.43642 0.32466 0.0
C7 C 0.21392 0.43734 0.27542 0.0
C8 C 0.1584 0.42683 0.27654 0.0
C9 C 0.13335 0.41699 0.32577 0.0
C10 C 0.06048 0.24846 0.49955 0.0
C11 C 0.08182 0.32362 0.62229 0.0
C12 C 0.17477 0.16613 0.65934 0.0
C13 C 0.13986 0.12688 0.68682 0.0
C14 C 0.09781 0.10011 0.65934 0.0
C15 C 0.07058 0.05676 0.68535 0.0
C16 C 0.08486 0.04055 0.73909 0.0
C17 C 0.1246 0.07033 0.76702 0.0
C18 C 0.1519 0.11277 0.74105 0.0
C19 C 0.21849 0.34724 0.58175 0.0
O20 O 0.21419 0.27876 0.46897 0.0
O21 O 0.21802 0.19989 0.52541 0.0
O22 O 0.09804 0.37219 0.42906 0.0
O23 O 0.16598 0.40697 0.47142 0.0
O24 O 0.05016 0.30404 0.49662 0.0
O25 O 0.11224 0.23587 0.50579 0.0
O26 O 0.08315 0.26963 0.60999 0.0
O27 O 0.10373 0.3581 0.58546 0.0
O28 O 0.16586 0.22116 0.6681 0.0
O29 O 0.18466 0.15534 0.60901 0.0
O30 O 0.24142 0.29688 0.59609 0.0
O31 O 0.17023 0.33879 0.57633 0.0
H32 H 0.24358 0.42723 0.41089 0.0
H33 H 0.28681 0.44498 0.32533 0.0
H34 H 0.13382 0.42802 0.23946 0.0
H35 H 0.09022 0.41037 0.32526 0.0
H36 H 0.08733 0.11136 0.61746 0.0
H37 H 0.03942 0.03531 0.66334 0.0
H38 H 0.1364 0.05944 0.80869 0.0
H39 H 0.18388 0.1332 0.76293 0.0
Ho40 Ho 0.99427 0.87319 0.78293 0.0
Ho41 Ho 0.04675 0.90109 0.83999 0.0
C42 C 0.06148 0.99181 0.76716 0.0
C43 C 0.91411 0.8909 0.71146 0.0
C44 C 0.90208 0.91285 0.65481 0.0
C45 C 0.88322 0.97137 0.64524 0.0
C46 C 0.86114 0.9907 0.59454 0.0
C47 C 0.85709 0.95197 0.55227 0.0
C48 C 0.8798 0.89483 0.56053 0.0
C49 C 0.9021 0.87545 0.61111 0.0
C50 C 0.07097 0.79962 0.75528 0.0
C51 C 1.01084 0.83912 0.92213 0.0
C52 C 0.13627 0.86686 0.891 0.0
C53 C 0.18818 0.84821 0.92104 0.0
C54 C 0.21495 0.79273 0.91561 0.0
C55 C 0.26555 0.77753 0.94266 0.0
C56 C 0.28989 0.81763 0.97567 0.0
C57 C 0.26275 0.8728 0.98056 0.0
C58 C 0.21293 0.88775 0.95389 0.0
C59 C 0.93573 0.94139 0.85156 0.0
O60 O 1.03406 0.95194 0.74315 0.0
O61 O 0.07242 0.98395 0.81763 0.0
O62 O 0.93909 0.83978 0.72149 0.0
O63 O 0.93053 0.92926 0.74429 0.0
O64 O 1.02169 0.78524 0.76209 0.0
O65 O 0.07764 0.8527 0.7653 0.0
O66 O 1.03157 0.88791 0.92379 0.0
O67 O 0.99174 0.82408 0.87202 0.0
O68 O 0.11649 0.92129 0.88915 0.0
O69 O 0.10614 0.83039 0.86589 0.0
O70 O 0.97598 0.97325 0.84097 0.0
O71 O 0.95424 0.89067 0.85222 0.0
H72 H 0.88185 1.00153 0.67803 0.0
H73 H 0.84211 0.0342 0.59026 0.0
H74 H 0.87573 0.86355 0.52907 0.0
H75 H 0.91589 0.8303 0.61682 0.0
H76 H 0.19682 0.76109 0.89063 0.0
H77 H 0.28471 0.7344 0.93885 0.0
H78 H 0.27964 0.90486 1.00608 0.0
H79 H 0.19372 0.93061 0.95929 0.0
Ho80 Ho 0.41114 0.77784 0.09313 0.0
Ho81 Ho 0.43247 0.68102 1.01194 0.0
C82 C 0.5062 0.79087 1.00659 0.0
C83 C 0.42491 0.83663 0.17937 0.0
C84 C 0.45316 0.88963 0.1904 0.0
C85 C 0.51063 0.88851 0.19539 0.0
C86 C 0.53645 0.93815 0.20994 0.0
C87 C 0.50516 0.98936 0.21993 0.0
C88 C 0.44819 0.9911 0.21204 0.0
C89 C 0.42249 0.94182 0.19768 0.0
C90 C 0.33886 0.80341 1.01166 0.0
C91 C 0.34205 0.66153 0.08011 0.0
C92 C 0.4469 0.61783 0.92721 0.0
C93 C 0.4174 0.59726 0.87865 0.0
C94 C 0.37272 0.62948 0.853 0.0
C95 C 0.34771 0.6096 0.80549 0.0
C96 C 0.36689 0.55723 0.78287 0.0
C97 C 0.41168 0.52558 0.8086 0.0
C98 C 0.4368 0.5455 0.85547 0.0
C99 C 0.47325 0.66673 0.11875 0.0
O100 O 0.47845 0.81572 0.04599 0.0
O101 O 0.49618 0.73966 0.98838 0.0
O102 O 0.38015 0.84204 0.1493 0.0
O103 O 0.45601 0.7915 0.1673 0.0
O104 O 0.34747 0.83552 0.05258 0.0
O105 O 0.37325 0.75913 1.01234 0.0
O106 O 0.34812 0.66902 1.0286 0.0
O107 O 0.36259 0.69865 0.11485 0.0
O108 O 0.43607 0.59642 0.97475 0.0
O109 O 0.45397 0.67306 0.92846 0.0
O110 O 0.45494 0.62567 0.08985 0.0
O111 O 0.47242 0.70924 0.08673 0.0
H112 H 0.53564 0.84886 0.19001 0.0
H113 H 0.58024 0.93536 0.21693 0.0
H114 H 0.42308 0.03009 0.21995 0.0
H115 H 0.3784 0.94414 0.19409 0.0
H116 H 0.35682 0.66962 0.86998 0.0
H117 H 0.31214 0.63383 0.78783 0.0
H118 H 0.42656 0.4843 0.79305 0.0
H119 H 0.47132 0.52002 0.87397 0.0
Ho120 Ho 0.60624 0.13807 0.27614 0.0
Ho121 Ho 0.52328 0.11114 0.35625 0.0
C122 C 0.52805 0.03639 0.25022 0.0
C123 C 0.68801 0.14802 0.21465 0.0
C124 C 0.69945 0.12064 0.16189 0.0
C125 C 0.69909 0.06023 0.15567 0.0
C126 C 0.71082 0.03496 0.1059 0.0
C127 C 0.72331 0.06948 0.06134 0.0
C128 C 0.72182 0.12988 0.06722 0.0
C129 C 0.70992 0.15509 0.11675 0.0
C130 C 0.50778 0.19035 0.25107 0.0
C131 C 0.58545 0.19958 0.39635 0.0
C132 C 0.4321 0.10032 0.40434 0.0
C133 C 0.38584 0.13795 0.42549 0.0
C134 C 0.36335 0.18921 0.39871 0.0
C135 C 0.31563 0.21958 0.4173 0.0
C136 C 0.28906 0.19883 0.46262 0.0
C137 C 0.31312 0.14838 0.48955 0.0
C138 C 0.36031 0.1188 0.47141 0.0
C139 C 0.63241 0.06502 0.37147 0.0
O140 O 0.5762 0.05591 0.24054 0.0
O141 O 0.49869 0.05564 0.28996 0.0
O142 O 0.64693 0.18697 0.21525 0.0
O143 O 0.68974 0.11333 0.25692 0.0
O144 O 0.53854 0.16273 0.21749 0.0
O145 O 0.52947 0.18579 0.29827 0.0
O146 O 0.53432 0.19499 0.38637 0.0
O147 O 0.62213 0.18337 0.35914 0.0
O148 O 0.47952 0.09761 0.43039 0.0
O149 O 0.43686 0.10028 0.35198 0.0
O150 O 0.60029 0.08156 0.40993 0.0
O151 O 0.60184 0.06751 0.33023 0.0
H152 H 0.69064 0.03224 0.18948 0.0
H153 H 0.71249 0.98835 0.10302 0.0
H154 H 0.73125 0.15777 1.03366 0.0
H155 H 0.70979 0.20159 0.11999 0.0
H156 H 0.38204 0.20521 0.36291 0.0
H157 H 0.29925 0.25844 0.39584 0.0
H158 H 0.29531 0.1307 0.52515 0.0
H159 H 0.37619 0.07967 0.49285 0.0
Ho160 Ho 0.6461 0.19154 0.58367 0.0
Ho161 Ho 0.67479 0.28371 0.51068 0.0
C162 C 0.73531 0.27829 0.62383 0.0
C163 C 0.63767 0.10185 0.64521 0.0
C164 C 0.66425 0.08989 0.69992 0.0
C165 C 0.72045 0.07325 0.70622 0.0
C166 C 0.74542 0.06426 0.75785 0.0
C167 C 0.7149 0.07151 0.80464 0.0
C168 C 0.65918 0.08957 0.79829 0.0
C169 C 0.63424 0.09853 0.74678 0.0
C170 C 0.58829 0.29196 0.60019 0.0
C171 C 0.6005 0.21496 0.4521 0.0
C172 C 0.68169 0.38415 0.46644 0.0
C173 C 0.64982 0.41773 0.42293 0.0
C174 C 0.60864 0.46105 0.43464 0.0
C175 C 0.5837 0.49722 0.39321 0.0
C176 C 0.59982 0.49027 0.33989 0.0
C177 C 0.63708 0.44369 0.32814 0.0
C178 C 0.66198 0.40828 0.36898 0.0
C179 C 0.72405 0.17185 0.5011 0.0
O180 O 0.72027 0.22467 0.62902 0.0
O181 O 0.71662 0.31164 0.58371 0.0
O182 O 0.59986 0.1444 0.64122 0.0
O183 O 0.66977 0.10167 0.60422 0.0
O184 O 0.61362 0.26022 0.63785 0.0
O185 O 0.59848 0.27051 0.5546 0.0
O186 O 0.60869 0.26862 0.45704 0.0
O187 O 0.61106 0.17656 0.4942 0.0
O188 O 0.71245 0.33835 0.45284 0.0
O189 O 0.65595 0.37587 0.51098 0.0
O190 O 0.71129 0.20735 0.46045 0.0
O191 O 0.71778 0.20084 0.54255 0.0
H192 H 0.74529 0.06665 0.67125 0.0
H193 H 0.78819 0.04959 0.76097 0.0
H194 H 0.63427 0.09514 0.83334 0.0
H195 H 0.59117 0.1119 0.74367 0.0
H196 H 0.59743 0.46862 0.47594 0.0
H197 H 0.55485 0.53248 0.40322 0.0
H198 H 0.64966 0.4364 0.28717 0.0
H199 H 0.69247 0.37492 0.35818 0.0
Ho200 Ho 0.9982 0.40297 0.72385 0.0
Ho201 Ho 0.09603 0.37694 0.78532 0.0
C202 C 0.99781 0.29927 0.80966 0.0
C203 C 0.91547 0.41122 0.65811 0.0
C204 C 0.86953 0.3729 0.65883 0.0
C205 C 0.87788 0.3128 0.65104 0.0
C206 C 0.83365 0.27775 0.64877 0.0
C207 C 0.78043 0.30209 0.6546 0.0
C208 C 0.77308 0.3607 0.66835 0.0
C209 C 0.81697 0.3958 0.66988 0.0
C210 C 0.99357 0.45691 0.81997 0.0
C211 C 0.10902 0.47387 0.71379 0.0
C212 C 0.17308 0.35761 0.85858 0.0
C213 C 0.1939 0.38995 0.90468 0.0
C214 C 0.16913 0.44368 0.91967 0.0
C215 C 0.18623 0.47001 0.96747 0.0
C216 C 0.2278 0.44247 1.00105 0.0
C217 C 0.25338 0.38979 0.98446 0.0
C218 C 0.23671 0.36402 0.93695 0.0
C219 C 0.09129 0.33347 0.68168 0.0
O220 O 0.97714 0.318 0.76219 0.0
O221 O 0.04013 0.32302 0.83061 0.0
O222 O 0.9196 0.44544 0.69893 0.0
O223 O 0.96271 0.38755 0.64482 0.0
O224 O 0.95775 0.4241 0.80074 0.0
O225 O 1.03448 0.45328 0.78991 0.0
O226 O 0.11187 0.46536 0.76566 0.0
O227 O 0.06708 0.45362 0.68614 0.0
O228 O 0.1815 0.37747 0.81008 0.0
O229 O 0.12398 0.34076 0.86317 0.0
O230 O 0.13414 0.35306 0.70412 0.0
O231 O 0.05657 0.33138 0.71729 0.0
H232 H 0.91823 0.29317 0.64414 0.0
H233 H 0.84055 0.23321 0.63695 0.0
H234 H 0.73233 0.3809 0.67207 0.0
H235 H 0.80939 0.44146 0.67739 0.0
H236 H 0.13583 0.46444 0.89514 0.0
H237 H 0.1661 0.51079 0.97881 0.0
H238 H 0.28621 0.36767 1.00866 0.0
H239 H 0.25644 0.32281 0.92618 0.0
Ho240 Ho 0.92117 0.82047 0.08075 0.0
Ho241 Ho 0.90242 0.74408 0.98078 0.0
C242 C 0.82536 0.73259 0.08234 0.0
C243 C 0.9077 0.90452 0.14637 0.0
C244 C 0.88361 0.90844 0.20043 0.0
C245 C 0.82678 0.90864 0.2066 0.0
C246 C 0.80419 0.91714 0.25726 0.0
C247 C 0.83795 0.92598 0.30249 0.0
C248 C 0.89474 0.92267 0.29687 0.0
C249 C 0.91736 0.91386 0.24644 0.0
C250 C 0.98542 0.72327 0.0978 0.0
C251 C 0.99621 0.81288 0.97349 0.0
C252 C 0.89073 0.662 0.91283 0.0
C253 C 0.92225 0.61401 0.8869 0.0
C254 C 0.97266 0.58943 0.90824 0.0
C255 C 0.99777 0.53935 0.8856 0.0
C256 C 0.97229 0.51299 0.84196 0.0
C257 C 0.92303 0.53938 0.81978 0.0
C258 C 0.8985 0.58915 0.84187 0.0
C259 C 0.86414 0.85991 0.97579 0.0
O260 O 0.85278 0.76959 0.11038 0.0
O261 O 0.83536 0.7192 1.0321 0.0
O262 O 0.95416 0.87384 0.14297 0.0
O263 O 0.87402 0.89646 0.10592 0.0
O264 O 0.97923 0.76439 0.13188 0.0
O265 O 0.95393 0.73356 0.0563 0.0
O266 O 0.98757 0.75832 0.97306 0.0
O267 O 0.97405 0.84748 1.01079 0.0
O268 O 0.89936 0.71497 0.89795 0.0
O269 O 0.88408 0.65635 0.96475 0.0
O270 O 0.88335 0.83125 0.93527 0.0
O271 O 0.86329 0.82373 1.01397 0.0
H272 H 0.79942 0.90462 0.17201 0.0
H273 H 0.76025 0.92146 0.26015 0.0
H274 H 0.92152 0.93063 0.33104 0.0
H275 H 0.96115 0.91372 0.24308 0.0
H276 H 0.99176 0.608 0.94313 0.0
H277 H 1.03577 0.52018 0.90333 0.0
H278 H 0.90262 0.52082 0.78565 0.0
H279 H 0.85982 0.60724 0.82467 0.0
Ho280 Ho 0.57298 0.60881 0.21243 0.0
Ho281 Ho 0.47632 0.63652 0.28767 0.0
C282 C 0.58023 0.71432 0.29879 0.0
C283 C 0.63667 0.61475 0.13209 0.0
C284 C 0.68594 0.64619 0.12418 0.0
C285 C 0.68425 0.70705 0.1249 0.0
C286 C 0.7313 0.73584 0.11589 0.0
C287 C 0.78039 0.70415 0.10608 0.0
C288 C 0.78254 0.64357 0.10725 0.0
C289 C 0.73576 0.61479 0.11646 0.0
C290 C 0.58759 0.53446 0.2966 0.0
C291 C 0.45922 0.53975 0.21445 0.0
C292 C 0.4174 0.64948 0.37209 0.0
C293 C 0.39148 0.61606 0.41497 0.0
C294 C 0.41671 0.56513 0.43971 0.0
C295 C 0.39431 0.53974 0.48554 0.0
C296 C 0.34625 0.56479 0.50711 0.0
C297 C 0.32066 0.6146 0.48096 0.0
C298 C 0.34298 0.63982 0.43583 0.0
C299 C 0.46763 0.67284 0.17972 0.0
O300 O 0.60679 0.68117 0.26327 0.0
O301 O 0.52924 0.70721 0.31074 0.0
O302 O 0.64138 0.57279 0.1682 0.0
O303 O 0.59059 0.64584 0.1346 0.0
O304 O 0.61972 0.53737 0.25663 0.0
O305 O 0.54802 0.57284 0.29081 0.0
O306 O 0.45761 0.54976 0.26592 0.0
O307 O 0.49993 0.55739 0.18463 0.0
O308 O 0.39635 0.65043 0.32274 0.0
O309 O 0.47064 0.64694 0.37348 0.0
O310 O 0.42675 0.65811 0.20793 0.0
O311 O 0.5073 0.67369 0.21279 0.0
H312 H 0.64644 0.73251 0.13105 0.0
H313 H 0.72864 0.78266 0.1135 0.0
H314 H 0.82004 0.61854 0.09873 0.0
H315 H 0.73821 0.56798 0.11618 0.0
H316 H 0.45424 0.54571 0.42435 0.0
H317 H 0.41448 0.50089 0.50402 0.0
H318 H 0.28347 0.63523 0.49603 0.0
H319 H 0.32296 0.67916 0.41807 0.0
Ho320 Ho 0.26527 0.53976 0.15651 0.0
Ho321 Ho 0.32363 0.4872 0.14192 0.0
C322 C 0.24567 0.46592 0.05368 0.0
C323 C 0.19214 0.62488 0.16932 0.0
C324 C 0.13579 0.63718 0.14608 0.0
C325 C 0.12675 0.65633 0.0917 0.0
C326 C 0.0746 0.67666 0.07223 0.0
C327 C 1.03052 0.67846 0.10673 0.0
C328 C 0.03865 0.65456 0.15934 0.0
C329 C 0.09065 0.63415 0.17884 0.0
C330 C 0.23877 0.456 0.22443 0.0
C331 C 0.40739 0.52648 0.1874 0.0
C332 C 0.3827 0.39633 0.17274 0.0
C333 C 0.41572 0.34447 0.19305 0.0
C334 C 0.41548 0.32792 0.24812 0.0
C335 C 0.44458 0.27722 0.26721 0.0
C336 C 0.4738 0.24193 0.23145 0.0
C337 C 0.47411 0.25874 0.17644 0.0
C338 C 0.44564 0.30967 0.15753 0.0
C339 C 0.33526 0.60143 0.09883 0.0
O340 O 0.23661 0.51882 0.06946 0.0
O341 O 0.27774 0.43485 0.08578 0.0
O342 O 0.20155 0.58275 0.20459 0.0
O343 O 0.2304 0.62552 0.13494 0.0
O344 O 0.21182 0.46744 0.17932 0.0
O345 O 0.2819 0.48178 0.2234 0.0
O346 O 0.40884 0.50306 0.14109 0.0
O347 O 0.35602 0.5449 0.20361 0.0
O348 O 0.3791 0.41382 0.12169 0.0
O349 O 0.35459 0.42859 0.20622 0.0
O350 O 0.33152 0.55455 0.07098 0.0
O351 O 0.33086 0.58764 0.14662 0.0
H352 H 0.16046 0.65909 0.0649 0.0
H353 H 0.07009 0.69642 1.03218 0.0
H354 H 1.00552 0.65664 0.18719 0.0
H355 H 0.096 0.61938 0.22057 0.0
H356 H 0.39264 0.35401 0.27654 0.0
H357 H 0.44439 0.26578 0.30982 0.0
H358 H 0.49715 0.23304 0.14788 0.0
H359 H 0.44676 0.32149 0.11505 0.0
Ho360 Ho 0.76256 0.95222 0.91694 0.0
Ho361 Ho 0.84625 0.03501 0.93353 0.0
C362 C 0.74586 0.04354 1.01165 0.0
C363 C 0.70063 0.86645 0.9092 0.0
C364 C 0.64922 0.8521 0.93485 0.0
C365 C 0.64256 0.85556 0.9911 0.0
C366 C 0.59448 0.83915 1.01454 0.0
C367 C 0.55243 0.8186 0.98225 0.0
C368 C 0.5587 0.81654 0.92606 0.0
C369 C 0.60629 0.8335 0.90263 0.0
C370 C 0.73774 0.05114 0.85889 0.0
C371 C 0.87639 0.95883 0.84988 0.0
C372 C 0.90706 0.12157 0.94122 0.0
C373 C 0.9307 0.16421 0.90501 0.0
C374 C 0.90865 0.17855 0.85287 0.0
C375 C 0.93025 0.22214 0.8212 0.0
C376 C 0.97429 0.25192 0.84117 0.0
C377 C 0.99658 0.23625 0.89297 0.0
C378 C 0.97505 0.19313 0.92435 0.0
C379 C 0.86502 0.92459 0.98249 0.0
O380 O 0.73471 0.99124 0.99592 0.0
O381 O 0.78232 0.07226 0.98701 0.0
O382 O 0.69746 0.91038 0.8752 0.0
O383 O 0.74433 0.86534 0.94045 0.0
O384 O 0.70508 0.02705 0.89106 0.0
O385 O 0.78498 0.02552 0.86503 0.0
O386 O 0.86405 1.01389 0.85111 0.0
O387 O 0.84158 0.92368 0.8716 0.0
O388 O 0.92672 0.06781 0.93928 0.0
O389 O 0.85409 0.12613 0.94517 0.0
O390 O 0.90187 0.95501 0.96214 0.0
O391 O 0.82258 0.95783 0.98029 0.0
H392 H 0.6749 0.86977 1.01713 0.0
H393 H 0.59131 0.83987 0.05805 0.0
H394 H 0.52708 0.80046 0.90026 0.0
H395 H 0.6101 0.83073 0.85929 0.0
H396 H 0.87441 0.15661 0.83699 0.0
H397 H 0.91228 0.23273 0.78144 0.0
H398 H 1.03056 0.25781 0.90992 0.0
H399 H 0.99269 0.18291 0.96433 0.0
Ho400 Ho 0.72399 0.9766 0.44375 0.0
Ho401 Ho 0.80168 0.07249 0.41223 0.0
C402 C 0.81506 0.95525 0.34963 0.0
C403 C 0.64972 0.90156 0.43418 0.0
C404 C 0.63744 0.85283 0.39721 0.0
C405 C 0.63944 0.85682 0.3402 0.0
C406 C 0.62468 0.81047 0.30747 0.0
C407 C 0.60745 0.75916 0.33094 0.0
C408 C 0.60703 0.75504 0.38773 0.0
C409 C 0.62212 0.8007 0.42015 0.0
C410 C 0.81265 0.96194 0.51091 0.0
C411 C 0.73567 0.10624 0.50033 0.0
C412 C 0.88078 0.13889 0.39475 0.0
C413 C 0.92833 0.16358 0.42262 0.0
C414 C 0.95401 0.13922 0.47047 0.0
C415 C 0.9997 0.16391 0.49446 0.0
C416 C 1.02064 0.21307 0.47077 0.0
C417 C 0.99525 0.23615 0.42245 0.0
C418 C 0.95004 0.21185 0.39884 0.0
C419 C 0.69373 0.07329 0.36934 0.0
O420 O 0.77137 0.93749 0.37357 0.0
O421 O 0.8356 1.00445 0.36022 0.0
O422 O 0.69322 0.89374 0.46558 0.0
O423 O 0.64287 0.95485 0.41588 0.0
O424 O 0.77046 0.93215 0.51295 0.0
O425 O 0.80525 1.00086 0.47381 0.0
O426 O 0.78696 0.09116 0.49595 0.0
O427 O 0.69956 0.06855 0.48208 0.0
O428 O 0.83153 0.15874 0.40673 0.0
O429 O 0.88406 0.08313 0.38765 0.0
O430 O 0.71847 0.11896 0.38282 0.0
O431 O 0.72954 0.03281 0.37594 0.0
H432 H 0.6512 0.89615 0.32085 0.0
H433 H 0.62431 0.81584 0.26393 0.0
H434 H 0.59332 0.71669 0.40729 0.0
H435 H 0.62033 0.79573 0.46362 0.0
H436 H 0.93829 0.10175 0.48968 0.0
H437 H 1.01717 0.14603 0.53239 0.0
H438 H 1.00956 0.27451 0.40342 0.0
H439 H 0.9316 0.23133 0.36192 0.0
Ho440 Ho 0.30087 0.46115 0.6658 0.0
Ho441 Ho 0.24997 0.51691 0.63915 0.0
C442 C 0.31995 0.54036 0.55519 0.0
C443 C 0.37164 0.37278 0.65741 0.0
C444 C 0.42911 0.36055 0.64202 0.0
C445 C 0.44068 0.34784 0.58789 0.0
C446 C 0.49347 0.32991 0.57318 0.0
C447 C 0.53586 0.32343 0.61237 0.0
C448 C 0.525 0.33869 0.66592 0.0
C449 C 0.47214 0.35696 0.68065 0.0
C450 C 0.33445 0.52781 0.7414 0.0
C451 C 0.16145 0.48192 0.68763 0.0
C452 C 0.19863 0.60833 0.67255 0.0
C453 C 0.16901 0.66096 0.69169 0.0
C454 C 0.18493 0.68586 0.74043 0.0
C455 C 0.1559 0.73517 0.75902 0.0
C456 C 0.11015 0.75947 0.72956 0.0
C457 C 0.09474 0.73509 0.68055 0.0
C458 C 0.12435 0.68668 0.66138 0.0
C459 C 0.23309 0.40453 0.59979 0.0
O460 O 0.34304 0.50269 0.5913 0.0
O461 O 0.27078 0.55737 0.5642 0.0
O462 O 0.3605 0.39658 0.70351 0.0
O463 O 0.33971 0.39435 0.61849 0.0
O464 O 0.32188 0.47553 0.75099 0.0
O465 O 0.32493 0.5432 0.69152 0.0
O466 O 0.16243 0.50733 0.64146 0.0
O467 O 0.21125 0.45906 0.70669 0.0
O468 O 0.19876 0.5949 0.62114 0.0
O469 O 0.22584 0.57125 0.70618 0.0
O470 O 0.24434 0.44962 0.57079 0.0
O471 O 0.23304 0.41891 0.64751 0.0
H472 H 0.40846 0.34958 0.55696 0.0
H473 H 0.50034 0.31792 0.53179 0.0
H474 H 0.55698 0.33389 0.69707 0.0
H475 H 0.46469 0.36623 0.72254 0.0
H476 H 0.21911 0.66664 0.76464 0.0
H477 H 0.1672 0.75219 0.79776 0.0
H478 H 0.05845 0.75224 0.6581 0.0
H479 H 0.1111 0.66813 0.62387 0.0
loop_
_geom_bond_atom_site_label_1
_geom_bond_atom_site_label_2
_geom_bond_distance
_geom_bond_site_symmetry_2
_ccdc_geom_bond_type
Ho0 C3 2.811 . S
Ho0 O20 2.322 . S
Ho0 O22 2.378 . S
Ho0 O23 2.524 . S
Ho0 O24 2.381 . S
Ho0 O25 2.669 . S
Ho0 O27 2.346 . S
Ho0 O31 2.305 . S
Ho1 C12 2.811 . S
Ho1 O21 2.346 . S
Ho1 O25 2.305 . S
Ho1 O26 2.322 . S
Ho1 O28 2.378 . S
Ho1 O29 2.524 . S
Ho1 O30 2.381 . S
Ho1 O31 2.669 . S
C2 O20 1.259 . S
C2 O21 1.268 . S
C3 Ho0 2.811 . S
C3 C4 1.488 . S
C3 O22 1.215 . S
C3 O23 1.289 . S
C4 C3 1.488 . S
C4 C5 1.348 . S
C4 C9 1.413 . S
C5 C4 1.348 . S
C5 C6 1.442 . S
C5 H32 0.930 . S
C6 C5 1.442 . S
C6 C7 1.381 . S
C6 H33 0.931 . S
C7 C6 1.381 . S
C7 C8 1.321 . S
C8 C7 1.321 . S
C8 C9 1.403 . S
C8 H34 0.934 . S
C9 C4 1.413 . S
C9 C8 1.403 . S
C9 H35 0.930 . S
C10 O24 1.275 . S
C10 O25 1.256 . S
C11 O26 1.259 . S
C11 O27 1.268 . S
C12 Ho1 2.811 . S
C12 C13 1.488 . S
C12 O28 1.215 . S
C12 O29 1.289 . S
C13 C12 1.488 . S
C13 C14 1.348 . S
C13 C18 1.413 . S
C14 C13 1.348 . S
C14 C15 1.435 1_455 S
C14 H36 0.930 1_455 S
C15 C14 1.435 1_655 S
C15 C16 1.371 1_655 S
C15 H37 0.946 . S
C16 C15 1.371 1_455 S
C16 C17 1.321 . S
C17 C16 1.321 . S
C17 C18 1.403 . S
C17 H38 0.934 . S
C18 C13 1.413 . S
C18 C17 1.403 . S
C18 H39 0.930 . S
C19 O30 1.275 . S
C19 O31 1.256 . S
O20 Ho0 2.322 . S
O20 C2 1.259 . S
O21 Ho1 2.346 . S
O21 C2 1.268 . S
O22 Ho0 2.378 . S
O22 C3 1.215 . S
O23 Ho0 2.524 . S
O23 C3 1.289 . S
O24 Ho0 2.381 . S
O24 C10 1.275 . S
O25 Ho0 2.669 . S
O25 Ho1 2.305 . S
O25 C10 1.256 . S
O26 Ho1 2.322 . S
O26 C11 1.259 . S
O27 Ho0 2.346 . S
O27 C11 1.268 . S
O28 Ho1 2.378 . S
O28 C12 1.215 . S
O29 Ho1 2.524 . S
O29 C12 1.289 . S
O30 Ho1 2.381 . S
O30 C19 1.275 . S
O31 Ho0 2.305 . S
O31 Ho1 2.669 . S
O31 C19 1.256 . S
H32 C5 0.930 . S
H33 C6 0.931 . S
H34 C8 0.934 . S
H35 C9 0.930 . S
H36 C14 0.930 1_655 S
H37 C15 0.946 . S
H38 C17 0.934 . S
H39 C18 0.930 . S
Ho40 C43 2.811 . S
Ho40 O60 2.322 . S
Ho40 O62 2.378 . S
Ho40 O63 2.524 . S
Ho40 O64 2.381 1_655 S
Ho40 O65 2.669 1_655 S
Ho40 O67 2.346 . S
Ho40 O71 2.305 . S
Ho41 C52 2.811 . S
Ho41 O61 2.346 . S
Ho41 O65 2.305 . S
Ho41 O66 2.322 . S
Ho41 O68 2.378 . S
Ho41 O69 2.524 . S
Ho41 O70 2.381 1_455 S
Ho41 O71 2.669 1_455 S
C42 O60 1.259 1_455 S
C42 O61 1.268 . S
C43 Ho40 2.811 . S
C43 C44 1.488 . S
C43 O62 1.215 . S
C43 O63 1.289 . S
C44 C43 1.488 . S
C44 C45 1.348 . S
C44 C49 1.413 . S
C45 C44 1.348 . S
C45 C46 1.442 . S
C45 H72 0.930 . S
C46 C45 1.442 . S
C46 C47 1.381 . S
C46 H73 0.931 1_565 S
C47 C46 1.381 . S
C47 C48 1.321 . S
C48 C47 1.321 . S
C48 C49 1.403 . S
C48 H74 0.934 . S
C49 C44 1.413 . S
C49 C48 1.403 . S
C49 H75 0.930 . S
C50 O64 1.275 . S
C50 O65 1.256 . S
C51 O66 1.259 1_655 S
C51 O67 1.268 . S
C52 Ho41 2.811 . S
C52 C53 1.488 . S
C52 O68 1.215 . S
C52 O69 1.289 . S
C53 C52 1.488 . S
C53 C54 1.348 . S
C53 C58 1.413 1_556 S
C54 C53 1.348 . S
C54 C55 1.442 1_556 S
C54 H76 0.930 . S
C55 C54 1.442 1_554 S
C55 C56 1.381 . S
C55 H77 0.931 . S
C56 C55 1.381 . S
C56 C57 1.321 . S
C57 C56 1.321 . S
C57 C58 1.403 . S
C57 H78 0.934 . S
C58 C53 1.413 1_554 S
C58 C57 1.403 . S
C58 H79 0.930 . S
C59 O70 1.275 . S
C59 O71 1.256 . S
O60 Ho40 2.322 . S
O60 C42 1.259 1_655 S
O61 Ho41 2.346 . S
O61 C42 1.268 . S
O62 Ho40 2.378 . S
O62 C43 1.215 . S
O63 Ho40 2.524 . S
O63 C43 1.289 . S
O64 Ho40 2.381 1_455 S
O64 C50 1.275 . S
O65 Ho40 2.669 1_455 S
O65 Ho41 2.305 . S
O65 C50 1.256 . S
O66 Ho41 2.322 . S
O66 C51 1.259 1_455 S
O67 Ho40 2.346 . S
O67 C51 1.268 . S
O68 Ho41 2.378 . S
O68 C52 1.215 . S
O69 Ho41 2.524 . S
O69 C52 1.289 . S
O70 Ho41 2.381 1_655 S
O70 C59 1.275 . S
O71 Ho40 2.305 . S
O71 Ho41 2.669 1_655 S
O71 C59 1.256 . S
H72 C45 0.930 . S
H73 C46 0.931 1_545 S
H74 C48 0.934 . S
H75 C49 0.930 . S
H76 C54 0.930 . S
H77 C55 0.931 . S
H78 C57 0.934 . S
H79 C58 0.930 . S
Ho80 C83 2.811 . S
Ho80 O100 2.335 . S
Ho80 O102 2.378 . S
Ho80 O103 2.524 . S
Ho80 O104 2.381 1_554 S
Ho80 O105 2.669 1_554 S
Ho80 O107 2.346 . S
Ho80 O111 2.305 . S
Ho81 C92 2.811 . S
Ho81 O101 2.346 . S
Ho81 O105 2.305 . S
Ho81 O106 2.322 . S
Ho81 O108 2.378 . S
Ho81 O109 2.524 . S
Ho81 O110 2.381 1_556 S
Ho81 O111 2.669 1_556 S
C82 O100 1.247 1_556 S
C82 O101 1.268 . S
C83 Ho80 2.811 . S
C83 C84 1.488 . S
C83 O102 1.215 . S
C83 O103 1.289 . S
C84 C83 1.488 . S
C84 C85 1.348 . S
C84 C89 1.413 . S
C85 C84 1.348 . S
C85 C86 1.442 . S
C85 H112 0.930 . S
C86 C85 1.442 . S
C86 C87 1.381 . S
C86 H113 0.931 . S
C87 C86 1.381 . S
C87 C88 1.321 . S
C88 C87 1.321 . S
C88 C89 1.403 . S
C88 H114 0.934 1_565 S
C89 C84 1.413 . S
C89 C88 1.403 . S
C89 H115 0.930 . S
C90 O104 1.275 . S
C90 O105 1.256 . S
C91 O106 1.259 1_554 S
C91 O107 1.268 . S
C92 Ho81 2.811 . S
C92 C93 1.488 . S
C92 O108 1.215 . S
C92 O109 1.289 . S
C93 C92 1.488 . S
C93 C94 1.348 . S
C93 C98 1.413 . S
C94 C93 1.348 . S
C94 C95 1.442 . S
C94 H116 0.930 . S
C95 C94 1.442 . S
C95 C96 1.381 . S
C95 H117 0.931 . S
C96 C95 1.381 . S
C96 C97 1.321 . S
C97 C96 1.321 . S
C97 C98 1.403 . S
C97 H118 0.934 . S
C98 C93 1.413 . S
C98 C97 1.403 . S
C98 H119 0.930 . S
C99 O110 1.275 . S
C99 O111 1.256 . S
O100 Ho80 2.335 . S
O100 C82 1.247 1_554 S
O101 Ho81 2.346 . S
O101 C82 1.268 . S
O102 Ho80 2.378 . S
O102 C83 1.215 . S
O103 Ho80 2.524 . S
O103 C83 1.289 . S
O104 Ho80 2.381 1_556 S
O104 C90 1.275 . S
O105 Ho80 2.669 1_556 S
O105 Ho81 2.305 . S
O105 C90 1.256 . S
O106 Ho81 2.322 . S
O106 C91 1.259 1_556 S
O107 Ho80 2.346 . S
O107 C91 1.268 . S
O108 Ho81 2.378 . S
O108 C92 1.215 . S
O109 Ho81 2.524 . S
O109 C92 1.289 . S
O110 Ho81 2.381 1_554 S
O110 C99 1.275 . S
O111 Ho80 2.305 . S
O111 Ho81 2.669 1_554 S
O111 C99 1.256 . S
H112 C85 0.930 . S
H113 C86 0.931 . S
H114 C88 0.934 1_545 S
H115 C89 0.930 . S
H116 C94 0.930 . S
H117 C95 0.931 . S
H118 C97 0.934 . S
H119 C98 0.930 . S
Ho120 C123 2.811 . S
Ho120 O140 2.322 . S
Ho120 O142 2.378 . S
Ho120 O143 2.524 . S
Ho120 O144 2.381 . S
Ho120 O145 2.669 . S
Ho120 O147 2.346 . S
Ho120 O151 2.305 . S
Ho121 C132 2.811 . S
Ho121 O141 2.346 . S
Ho121 O145 2.305 . S
Ho121 O146 2.322 . S
Ho121 O148 2.378 . S
Ho121 O149 2.524 . S
Ho121 O150 2.381 . S
Ho121 O151 2.669 . S
C122 O140 1.259 . S
C122 O141 1.268 . S
C123 Ho120 2.811 . S
C123 C124 1.488 . S
C123 O142 1.215 . S
C123 O143 1.289 . S
C124 C123 1.488 . S
C124 C125 1.348 . S
C124 C129 1.413 . S
C125 C124 1.348 . S
C125 C126 1.442 . S
C125 H152 0.930 . S
C126 C125 1.442 . S
C126 C127 1.381 . S
C126 H153 0.931 1_545 S
C127 C126 1.381 . S
C127 C128 1.321 . S
C128 C127 1.321 . S
C128 C129 1.403 . S
C128 H154 0.934 1_554 S
C129 C124 1.413 . S
C129 C128 1.403 . S
C129 H155 0.930 . S
C130 O144 1.275 . S
C130 O145 1.256 . S
C131 O146 1.259 . S
C131 O147 1.268 . S
C132 Ho121 2.811 . S
C132 C133 1.488 . S
C132 O148 1.215 . S
C132 O149 1.289 . S
C133 C132 1.488 . S
C133 C134 1.348 . S
C133 C138 1.413 . S
C134 C133 1.348 . S
C134 C135 1.442 . S
C134 H156 0.930 . S
C135 C134 1.442 . S
C135 C136 1.381 . S
C135 H157 0.931 . S
C136 C135 1.381 . S
C136 C137 1.321 . S
C137 C136 1.321 . S
C137 C138 1.403 . S
C137 H158 0.934 . S
C138 C133 1.413 . S
C138 C137 1.403 . S
C138 H159 0.930 . S
C139 O150 1.275 . S
C139 O151 1.256 . S
O140 Ho120 2.322 . S
O140 C122 1.259 . S
O141 Ho121 2.346 . S
O141 C122 1.268 . S
O142 Ho120 2.378 . S
O142 C123 1.215 . S
O143 Ho120 2.524 . S
O143 C123 1.289 . S
O144 Ho120 2.381 . S
O144 C130 1.275 . S
O145 Ho120 2.669 . S
O145 Ho121 2.305 . S
O145 C130 1.256 . S
O146 Ho121 2.322 . S
O146 C131 1.259 . S
O147 Ho120 2.346 . S
O147 C131 1.268 . S
O148 Ho121 2.378 . S
O148 C132 1.215 . S
O149 Ho121 2.524 . S
O149 C132 1.289 . S
O150 Ho121 2.381 . S
O150 C139 1.275 . S
O151 Ho120 2.305 . S
O151 Ho121 2.669 . S
O151 C139 1.256 . S
H152 C125 0.930 . S
H153 C126 0.931 1_565 S
H154 C128 0.934 1_556 S
H155 C129 0.930 . S
H156 C134 0.930 . S
H157 C135 0.931 . S
H158 C137 0.934 . S
H159 C138 0.930 . S
Ho160 C163 2.811 . S
Ho160 O180 2.322 . S
Ho160 O182 2.378 . S
Ho160 O183 2.524 . S
Ho160 O184 2.381 . S
Ho160 O185 2.669 . S
Ho160 O187 2.346 . S
Ho160 O191 2.305 . S
Ho161 C172 2.811 . S
Ho161 O181 2.346 . S
Ho161 O185 2.305 . S
Ho161 O186 2.322 . S
Ho161 O188 2.378 . S
Ho161 O189 2.524 . S
Ho161 O190 2.381 . S
Ho161 O191 2.669 . S
C162 O180 1.259 . S
C162 O181 1.268 . S
C163 Ho160 2.811 . S
C163 C164 1.488 . S
C163 O182 1.215 . S
C163 O183 1.289 . S
C164 C163 1.488 . S
C164 C165 1.348 . S
C164 C169 1.413 . S
C165 C164 1.348 . S
C165 C166 1.442 . S
C165 H192 0.930 . S
C166 C165 1.442 . S
C166 C167 1.381 . S
C166 H193 0.931 . S
C167 C166 1.381 . S
C167 C168 1.321 . S
C168 C167 1.321 . S
C168 C169 1.403 . S
C168 H194 0.934 . S
C169 C164 1.413 . S
C169 C168 1.403 . S
C169 H195 0.930 . S
C170 O184 1.275 . S
C170 O185 1.256 . S
C171 O186 1.259 . S
C171 O187 1.268 . S
C172 Ho161 2.811 . S
C172 C173 1.488 . S
C172 O188 1.215 . S
C172 O189 1.289 . S
C173 C172 1.488 . S
C173 C174 1.348 . S
C173 C178 1.413 . S
C174 C173 1.348 . S
C174 C175 1.442 . S
C174 H196 0.930 . S
C175 C174 1.442 . S
C175 C176 1.381 . S
C175 H197 0.931 . S
C176 C175 1.381 . S
C176 C177 1.321 . S
C177 C176 1.321 . S
C177 C178 1.403 . S
C177 H198 0.934 . S
C178 C173 1.413 . S
C178 C177 1.403 . S
C178 H199 0.930 . S
C179 O190 1.275 . S
C179 O191 1.256 . S
O180 Ho160 2.322 . S
O180 C162 1.259 . S
O181 Ho161 2.346 . S
O181 C162 1.268 . S
O182 Ho160 2.378 . S
O182 C163 1.215 . S
O183 Ho160 2.524 . S
O183 C163 1.289 . S
O184 Ho160 2.381 . S
O184 C170 1.275 . S
O185 Ho160 2.669 . S
O185 Ho161 2.305 . S
O185 C170 1.256 . S
O186 Ho161 2.322 . S
O186 C171 1.259 . S
O187 Ho160 2.346 . S
O187 C171 1.268 . S
O188 Ho161 2.378 . S
O188 C172 1.215 . S
O189 Ho161 2.524 . S
O189 C172 1.289 . S
O190 Ho161 2.381 . S
O190 C179 1.275 . S
O191 Ho160 2.305 . S
O191 Ho161 2.669 . S
O191 C179 1.256 . S
H192 C165 0.930 . S
H193 C166 0.931 . S
H194 C168 0.934 . S
H195 C169 0.930 . S
H196 C174 0.930 . S
H197 C175 0.931 . S
H198 C177 0.934 . S
H199 C178 0.930 . S
Ho200 C203 2.811 . S
Ho200 O220 2.322 . S
Ho200 O222 2.378 . S
Ho200 O223 2.524 . S
Ho200 O224 2.381 . S
Ho200 O225 2.669 . S
Ho200 O227 2.346 1_655 S
Ho200 O231 2.305 1_655 S
Ho201 C212 2.811 . S
Ho201 O221 2.346 1_455 S
Ho201 O225 2.305 1_455 S
Ho201 O226 2.322 . S
Ho201 O228 2.378 . S
Ho201 O229 2.524 . S
Ho201 O230 2.381 . S
Ho201 O231 2.669 . S
C202 O220 1.259 . S
C202 O221 1.268 . S
C203 Ho200 2.811 . S
C203 C204 1.488 . S
C203 O222 1.215 . S
C203 O223 1.289 . S
C204 C203 1.488 . S
C204 C205 1.348 . S
C204 C209 1.413 . S
C205 C204 1.348 . S
C205 C206 1.442 . S
C205 H232 0.930 . S
C206 C205 1.442 . S
C206 C207 1.381 . S
C206 H233 0.931 . S
C207 C206 1.381 . S
C207 C208 1.321 . S
C208 C207 1.321 . S
C208 C209 1.403 . S
C208 H234 0.934 . S
C209 C204 1.413 . S
C209 C208 1.403 . S
C209 H235 0.930 . S
C210 O224 1.275 . S
C210 O225 1.256 . S
C211 O226 1.259 . S
C211 O227 1.268 . S
C212 Ho201 2.811 . S
C212 C213 1.488 . S
C212 O228 1.215 . S
C212 O229 1.289 . S
C213 C212 1.488 . S
C213 C214 1.348 . S
C213 C218 1.413 . S
C214 C213 1.348 . S
C214 C215 1.442 . S
C214 H236 0.930 . S
C215 C214 1.442 . S
C215 C216 1.381 . S
C215 H237 0.931 . S
C216 C215 1.381 . S
C216 C217 1.321 . S
C217 C216 1.321 . S
C217 C218 1.403 . S
C217 H238 0.934 . S
C218 C213 1.413 . S
C218 C217 1.403 . S
C218 H239 0.930 . S
C219 O230 1.275 . S
C219 O231 1.256 . S
O220 Ho200 2.322 . S
O220 C202 1.259 . S
O221 Ho201 2.346 1_655 S
O221 C202 1.268 . S
O222 Ho200 2.378 . S
O222 C203 1.215 . S
O223 Ho200 2.524 . S
O223 C203 1.289 . S
O224 Ho200 2.381 . S
O224 C210 1.275 . S
O225 Ho200 2.669 . S
O225 Ho201 2.305 1_655 S
O225 C210 1.256 . S
O226 Ho201 2.322 . S
O226 C211 1.259 . S
O227 Ho200 2.346 1_455 S
O227 C211 1.268 . S
O228 Ho201 2.378 . S
O228 C212 1.215 . S
O229 Ho201 2.524 . S
O229 C212 1.289 . S
O230 Ho201 2.381 . S
O230 C219 1.275 . S
O231 Ho200 2.305 1_455 S
O231 Ho201 2.669 . S
O231 C219 1.256 . S
H232 C205 0.930 . S
H233 C206 0.931 . S
H234 C208 0.934 . S
H235 C209 0.930 . S
H236 C214 0.930 . S
H237 C215 0.931 . S
H238 C217 0.934 . S
H239 C218 0.930 . S
Ho240 C243 2.811 . S
Ho240 O260 2.322 . S
Ho240 O262 2.378 . S
Ho240 O263 2.524 . S
Ho240 O264 2.381 . S
Ho240 O265 2.669 . S
Ho240 O267 2.346 1_554 S
Ho240 O271 2.305 1_554 S
Ho241 C252 2.811 . S
Ho241 O261 2.346 1_556 S
Ho241 O265 2.305 1_556 S
Ho241 O266 2.322 . S
Ho241 O268 2.378 . S
Ho241 O269 2.524 . S
Ho241 O270 2.381 . S
Ho241 O271 2.669 . S
C242 O260 1.259 . S
C242 O261 1.268 . S
C243 Ho240 2.811 . S
C243 C244 1.488 . S
C243 O262 1.215 . S
C243 O263 1.289 . S
C244 C243 1.488 . S
C244 C245 1.348 . S
C244 C249 1.413 . S
C245 C244 1.348 . S
C245 C246 1.442 . S
C245 H272 0.930 . S
C246 C245 1.442 . S
C246 C247 1.381 . S
C246 H273 0.931 . S
C247 C246 1.381 . S
C247 C248 1.321 . S
C248 C247 1.321 . S
C248 C249 1.403 . S
C248 H274 0.934 . S
C249 C244 1.413 . S
C249 C248 1.403 . S
C249 H275 0.930 . S
C250 O264 1.275 . S
C250 O265 1.256 . S
C251 O266 1.259 . S
C251 O267 1.268 . S
C252 Ho241 2.811 . S
C252 C253 1.488 . S
C252 O268 1.215 . S
C252 O269 1.289 . S
C253 C252 1.488 . S
C253 C254 1.348 . S
C253 C258 1.413 . S
C254 C253 1.348 . S
C254 C255 1.442 . S
C254 H276 0.930 . S
C255 C254 1.442 . S
C255 C256 1.381 . S
C255 H277 0.931 1_655 S
C256 C255 1.381 . S
C256 C257 1.321 . S
C257 C256 1.321 . S
C257 C258 1.403 . S
C257 H278 0.934 . S
C258 C253 1.413 . S
C258 C257 1.403 . S
C258 H279 0.930 . S
C259 O270 1.275 . S
C259 O271 1.256 . S
O260 Ho240 2.322 . S
O260 C242 1.259 . S
O261 Ho241 2.346 1_554 S
O261 C242 1.268 . S
O262 Ho240 2.378 . S
O262 C243 1.215 . S
O263 Ho240 2.524 . S
O263 C243 1.289 . S
O264 Ho240 2.381 . S
O264 C250 1.275 . S
O265 Ho240 2.669 . S
O265 Ho241 2.305 1_554 S
O265 C250 1.256 . S
O266 Ho241 2.322 . S
O266 C251 1.259 . S
O267 Ho240 2.346 1_556 S
O267 C251 1.268 . S
O268 Ho241 2.378 . S
O268 C252 1.215 . S
O269 Ho241 2.524 . S
O269 C252 1.289 . S
O270 Ho241 2.381 . S
O270 C259 1.275 . S
O271 Ho240 2.305 1_556 S
O271 Ho241 2.669 . S
O271 C259 1.256 . S
H272 C245 0.930 . S
H273 C246 0.931 . S
H274 C248 0.934 . S
H275 C249 0.930 . S
H276 C254 0.930 . S
H277 C255 0.931 1_455 S
H278 C257 0.934 . S
H279 C258 0.930 . S
Ho280 C283 2.811 . S
Ho280 O300 2.322 . S
Ho280 O302 2.378 . S
Ho280 O303 2.524 . S
Ho280 O304 2.381 . S
Ho280 O305 2.669 . S
Ho280 O307 2.346 . S
Ho280 O311 2.305 . S
Ho281 C292 2.811 . S
Ho281 O301 2.346 . S
Ho281 O305 2.305 . S
Ho281 O306 2.322 . S
Ho281 O308 2.378 . S
Ho281 O309 2.524 . S
Ho281 O310 2.381 . S
Ho281 O311 2.669 . S
C282 O300 1.259 . S
C282 O301 1.268 . S
C283 Ho280 2.811 . S
C283 C284 1.488 . S
C283 O302 1.215 . S
C283 O303 1.289 . S
C284 C283 1.488 . S
C284 C285 1.348 . S
C284 C289 1.413 . S
C285 C284 1.348 . S
C285 C286 1.442 . S
C285 H312 0.930 . S
C286 C285 1.442 . S
C286 C287 1.381 . S
C286 H313 0.931 . S
C287 C286 1.381 . S
C287 C288 1.321 . S
C288 C287 1.321 . S
C288 C289 1.403 . S
C288 H314 0.934 . S
C289 C284 1.413 . S
C289 C288 1.403 . S
C289 H315 0.930 . S
C290 O304 1.275 . S
C290 O305 1.256 . S
C291 O306 1.259 . S
C291 O307 1.268 . S
C292 Ho281 2.811 . S
C292 C293 1.488 . S
C292 O308 1.215 . S
C292 O309 1.289 . S
C293 C292 1.488 . S
C293 C294 1.348 . S
C293 C298 1.413 . S
C294 C293 1.348 . S
C294 C295 1.442 . S
C294 H316 0.930 . S
C295 C294 1.442 . S
C295 C296 1.381 . S
C295 H317 0.931 . S
C296 C295 1.381 . S
C296 C297 1.321 . S
C297 C296 1.321 . S
C297 C298 1.403 . S
C297 H318 0.934 . S
C298 C293 1.413 . S
C298 C297 1.403 . S
C298 H319 0.930 . S
C299 O310 1.275 . S
C299 O311 1.256 . S
O300 Ho280 2.322 . S
O300 C282 1.259 . S
O301 Ho281 2.346 . S
O301 C282 1.268 . S
O302 Ho280 2.378 . S
O302 C283 1.215 . S
O303 Ho280 2.524 . S
O303 C283 1.289 . S
O304 Ho280 2.381 . S
O304 C290 1.275 . S
O305 Ho280 2.669 . S
O305 Ho281 2.305 . S
O305 C290 1.256 . S
O306 Ho281 2.322 . S
O306 C291 1.259 . S
O307 Ho280 2.346 . S
O307 C291 1.268 . S
O308 Ho281 2.378 . S
O308 C292 1.215 . S
O309 Ho281 2.524 . S
O309 C292 1.289 . S
O310 Ho281 2.381 . S
O310 C299 1.275 . S
O311 Ho280 2.305 . S
O311 Ho281 2.669 . S
O311 C299 1.256 . S
H312 C285 0.930 . S
H313 C286 0.931 . S
H314 C288 0.934 . S
H315 C289 0.930 . S
H316 C294 0.930 . S
H317 C295 0.931 . S
H318 C297 0.934 . S
H319 C298 0.930 . S
Ho320 C323 2.811 . S
Ho320 O340 2.322 . S
Ho320 O342 2.378 . S
Ho320 O343 2.524 . S
Ho320 O344 2.381 . S
Ho320 O345 2.669 . S
Ho320 O347 2.346 . S
Ho320 O351 2.305 . S
Ho321 C332 2.811 . S
Ho321 O341 2.346 . S
Ho321 O345 2.305 . S
Ho321 O346 2.322 . S
Ho321 O348 2.378 . S
Ho321 O349 2.524 . S
Ho321 O350 2.381 . S
Ho321 O351 2.669 . S
C322 O340 1.259 . S
C322 O341 1.268 . S
C323 Ho320 2.811 . S
C323 C324 1.488 . S
C323 O342 1.215 . S
C323 O343 1.289 . S
C324 C323 1.488 . S
C324 C325 1.348 . S
C324 C329 1.413 . S
C325 C324 1.348 . S
C325 C326 1.442 1_554 S
C325 H352 0.930 1_554 S
C326 C325 1.442 1_556 S
C326 C327 1.381 1_556 S
C326 H353 0.931 . S
C327 C326 1.381 1_554 S
C327 C328 1.321 . S
C328 C327 1.321 . S
C328 C329 1.403 . S
C328 H354 0.934 1_455 S
C329 C324 1.413 . S
C329 C328 1.403 . S
C329 H355 0.930 . S
C330 O344 1.275 . S
C330 O345 1.256 . S
C331 O346 1.259 . S
C331 O347 1.268 . S
C332 Ho321 2.811 . S
C332 C333 1.488 . S
C332 O348 1.215 . S
C332 O349 1.289 . S
C333 C332 1.488 . S
C333 C334 1.348 . S
C333 C338 1.413 . S
C334 C333 1.348 . S
C334 C335 1.442 . S
C334 H356 0.930 . S
C335 C334 1.442 . S
C335 C336 1.381 . S
C335 H357 0.931 . S
C336 C335 1.381 . S
C336 C337 1.321 . S
C337 C336 1.321 . S
C337 C338 1.403 . S
C337 H358 0.934 . S
C338 C333 1.413 . S
C338 C337 1.403 . S
C338 H359 0.930 . S
C339 O350 1.275 . S
C339 O351 1.256 . S
O340 Ho320 2.322 . S
O340 C322 1.259 . S
O341 Ho321 2.346 . S
O341 C322 1.268 . S
O342 Ho320 2.378 . S
O342 C323 1.215 . S
O343 Ho320 2.524 . S
O343 C323 1.289 . S
O344 Ho320 2.381 . S
O344 C330 1.275 . S
O345 Ho320 2.669 . S
O345 Ho321 2.305 . S
O345 C330 1.256 . S
O346 Ho321 2.322 . S
O346 C331 1.259 . S
O347 Ho320 2.346 . S
O347 C331 1.268 . S
O348 Ho321 2.378 . S
O348 C332 1.215 . S
O349 Ho321 2.524 . S
O349 C332 1.289 . S
O350 Ho321 2.381 . S
O350 C339 1.275 . S
O351 Ho320 2.305 . S
O351 Ho321 2.669 . S
O351 C339 1.256 . S
H352 C325 0.930 1_556 S
H353 C326 0.931 . S
H354 C328 0.934 1_655 S
H355 C329 0.930 . S
H356 C334 0.930 . S
H357 C335 0.931 . S
H358 C337 0.934 . S
H359 C338 0.930 . S
Ho360 C363 2.811 . S
Ho360 O380 2.325 . S
Ho360 O382 2.378 . S
Ho360 O383 2.524 . S
Ho360 O384 2.381 1_565 S
Ho360 O385 2.669 1_565 S
Ho360 O387 2.346 . S
Ho360 O391 2.305 . S
Ho361 C372 2.811 . S
Ho361 O381 2.346 . S
Ho361 O385 2.305 . S
Ho361 O386 2.328 . S
Ho361 O388 2.378 . S
Ho361 O389 2.524 . S
Ho361 O390 2.381 1_545 S
Ho361 O391 2.669 1_545 S
C362 O380 1.256 1_545 S
C362 O381 1.268 . S
C363 Ho360 2.811 . S
C363 C364 1.488 . S
C363 O382 1.215 . S
C363 O383 1.289 . S
C364 C363 1.488 . S
C364 C365 1.348 . S
C364 C369 1.413 . S
C365 C364 1.348 . S
C365 C366 1.442 . S
C365 H392 0.930 . S
C366 C365 1.442 . S
C366 C367 1.381 . S
C366 H393 0.931 1_556 S
C367 C366 1.381 . S
C367 C368 1.321 . S
C368 C367 1.321 . S
C368 C369 1.403 . S
C368 H394 0.934 . S
C369 C364 1.413 . S
C369 C368 1.403 . S
C369 H395 0.930 . S
C370 O384 1.275 . S
C370 O385 1.256 . S
C371 O386 1.253 1_565 S
C371 O387 1.268 . S
C372 Ho361 2.811 . S
C372 C373 1.488 . S
C372 O388 1.215 . S
C372 O389 1.289 . S
C373 C372 1.488 . S
C373 C374 1.348 . S
C373 C378 1.413 . S
C374 C373 1.348 . S
C374 C375 1.442 . S
C374 H396 0.930 . S
C375 C374 1.442 . S
C375 C376 1.381 1_655 S
C375 H397 0.931 . S
C376 C375 1.381 1_455 S
C376 C377 1.321 . S
C377 C376 1.321 . S
C377 C378 1.403 1_455 S
C377 H398 0.934 . S
C378 C373 1.413 . S
C378 C377 1.403 1_655 S
C378 H399 0.930 . S
C379 O390 1.275 . S
C379 O391 1.256 . S
O380 Ho360 2.325 . S
O380 C362 1.256 1_565 S
O381 Ho361 2.346 . S
O381 C362 1.268 . S
O382 Ho360 2.378 . S
O382 C363 1.215 . S
O383 Ho360 2.524 . S
O383 C363 1.289 . S
O384 Ho360 2.381 1_545 S
O384 C370 1.275 . S
O385 Ho360 2.669 1_545 S
O385 Ho361 2.305 . S
O385 C370 1.256 . S
O386 Ho361 2.328 . S
O386 C371 1.253 1_545 S
O387 Ho360 2.346 . S
O387 C371 1.268 . S
O388 Ho361 2.378 . S
O388 C372 1.215 . S
O389 Ho361 2.524 . S
O389 C372 1.289 . S
O390 Ho361 2.381 1_565 S
O390 C379 1.275 . S
O391 Ho360 2.305 . S
O391 Ho361 2.669 1_565 S
O391 C379 1.256 . S
H392 C365 0.930 . S
H393 C366 0.931 1_554 S
H394 C368 0.934 . S
H395 C369 0.930 . S
H396 C374 0.930 . S
H397 C375 0.931 . S
H398 C377 0.934 . S
H399 C378 0.930 . S
Ho400 C403 2.811 . S
Ho400 O420 2.322 . S
Ho400 O422 2.378 . S
Ho400 O423 2.524 . S
Ho400 O424 2.381 . S
Ho400 O425 2.669 . S
Ho400 O427 2.346 1_565 S
Ho400 O431 2.305 1_565 S
Ho401 C412 2.811 . S
Ho401 O421 2.346 1_545 S
Ho401 O425 2.305 1_545 S
Ho401 O426 2.322 . S
Ho401 O428 2.378 . S
Ho401 O429 2.524 . S
Ho401 O430 2.381 . S
Ho401 O431 2.669 . S
C402 O420 1.259 . S
C402 O421 1.268 . S
C403 Ho400 2.811 . S
C403 C404 1.488 . S
C403 O422 1.215 . S
C403 O423 1.289 . S
C404 C403 1.488 . S
C404 C405 1.348 . S
C404 C409 1.413 . S
C405 C404 1.348 . S
C405 C406 1.442 . S
C405 H432 0.930 . S
C406 C405 1.442 . S
C406 C407 1.381 . S
C406 H433 0.931 . S
C407 C406 1.381 . S
C407 C408 1.321 . S
C408 C407 1.321 . S
C408 C409 1.403 . S
C408 H434 0.934 . S
C409 C404 1.413 . S
C409 C408 1.403 . S
C409 H435 0.930 . S
C410 O424 1.275 . S
C410 O425 1.256 . S
C411 O426 1.259 . S
C411 O427 1.268 . S
C412 Ho401 2.811 . S
C412 C413 1.488 . S
C412 O428 1.215 . S
C412 O429 1.289 . S
C413 C412 1.488 . S
C413 C414 1.348 . S
C413 C418 1.413 . S
C414 C413 1.348 . S
C414 C415 1.442 . S
C414 H436 0.930 . S
C415 C414 1.442 . S
C415 C416 1.381 . S
C415 H437 0.931 . S
C416 C415 1.381 . S
C416 C417 1.321 . S
C417 C416 1.321 . S
C417 C418 1.403 . S
C417 H438 0.934 . S
C418 C413 1.413 . S
C418 C417 1.403 . S
C418 H439 0.930 . S
C419 O430 1.275 . S
C419 O431 1.256 . S
O420 Ho400 2.322 . S
O420 C402 1.259 . S
O421 Ho401 2.346 1_565 S
O421 C402 1.268 . S
O422 Ho400 2.378 . S
O422 C403 1.215 . S
O423 Ho400 2.524 . S
O423 C403 1.289 . S
O424 Ho400 2.381 . S
O424 C410 1.275 . S
O425 Ho400 2.669 . S
O425 Ho401 2.305 1_565 S
O425 C410 1.256 . S
O426 Ho401 2.322 . S
O426 C411 1.259 . S
O427 Ho400 2.346 1_545 S
O427 C411 1.268 . S
O428 Ho401 2.378 . S
O428 C412 1.215 . S
O429 Ho401 2.524 . S
O429 C412 1.289 . S
O430 Ho401 2.381 . S
O430 C419 1.275 . S
O431 Ho400 2.305 1_545 S
O431 Ho401 2.669 . S
O431 C419 1.256 . S
H432 C405 0.930 . S
H433 C406 0.931 . S
H434 C408 0.934 . S
H435 C409 0.930 . S
H436 C414 0.930 . S
H437 C415 0.931 . S
H438 C417 0.934 . S
H439 C418 0.930 . S
Ho440 C443 2.811 . S
Ho440 O460 2.322 . S
Ho440 O462 2.378 . S
Ho440 O463 2.524 . S
Ho440 O464 2.381 . S
Ho440 O465 2.669 . S
Ho440 O467 2.346 . S
Ho440 O471 2.305 . S
Ho441 C452 2.811 . S
Ho441 O461 2.346 . S
Ho441 O465 2.305 . S
Ho441 O466 2.322 . S
Ho441 O468 2.378 . S
Ho441 O469 2.524 . S
Ho441 O470 2.381 . S
Ho441 O471 2.669 . S
C442 O460 1.259 . S
C442 O461 1.268 . S
C443 Ho440 2.811 . S
C443 C444 1.488 . S
C443 O462 1.215 . S
C443 O463 1.289 . S
C444 C443 1.488 . S
C444 C445 1.348 . S
C444 C449 1.413 . S
C445 C444 1.348 . S
C445 C446 1.442 . S
C445 H472 0.930 . S
C446 C445 1.442 . S
C446 C447 1.381 . S
C446 H473 0.931 . S
C447 C446 1.381 . S
C447 C448 1.321 . S
C448 C447 1.321 . S
C448 C449 1.403 . S
C448 H474 0.934 . S
C449 C444 1.413 . S
C449 C448 1.403 . S
C449 H475 0.930 . S
C450 O464 1.275 . S
C450 O465 1.256 . S
C451 O466 1.259 . S
C451 O467 1.268 . S
C452 Ho441 2.811 . S
C452 C453 1.488 . S
C452 O468 1.215 . S
C452 O469 1.289 . S
C453 C452 1.488 . S
C453 C454 1.348 . S
C453 C458 1.413 . S
C454 C453 1.348 . S
C454 C455 1.442 . S
C454 H476 0.930 . S
C455 C454 1.442 . S
C455 C456 1.381 1_455 S
C455 H477 0.931 . S
C456 C455 1.381 1_655 S
C456 C457 1.321 . S
C457 C456 1.321 . S
C457 C458 1.403 1_655 S
C457 H478 0.934 . S
C458 C453 1.413 . S
C458 C457 1.403 1_455 S
C458 H479 0.930 . S
C459 O470 1.275 . S
C459 O471 1.256 . S
O460 Ho440 2.322 . S
O460 C442 1.259 . S
O461 Ho441 2.346 . S
O461 C442 1.268 . S
O462 Ho440 2.378 . S
O462 C443 1.215 . S
O463 Ho440 2.524 . S
O463 C443 1.289 . S
O464 Ho440 2.381 . S
O464 C450 1.275 . S
O465 Ho440 2.669 . S
O465 Ho441 2.305 . S
O465 C450 1.256 . S
O466 Ho441 2.322 . S
O466 C451 1.259 . S
O467 Ho440 2.346 . S
O467 C451 1.268 . S
O468 Ho441 2.378 . S
O468 C452 1.215 . S
O469 Ho441 2.524 . S
O469 C452 1.289 . S
O470 Ho441 2.381 . S
O470 C459 1.275 . S
O471 Ho440 2.305 . S
O471 Ho441 2.669 . S
O471 C459 1.256 . S
H472 C445 0.930 . S
H473 C446 0.931 . S
H474 C448 0.934 . S
H475 C449 0.930 . S
H476 C454 0.930 . S
H477 C455 0.931 . S
H478 C457 0.934 . S
H479 C458 0.930 . S
C19 C459 2.151 . S
C371 C59 3.191 . S
C91 C339 2.219 . S
C139 C419 3.777 . S
C179 C411 2.587 . S
C211 C451 2.227 . S
C379 C259 3.883 . S
C291 C331 2.065 . S
C131 C171 2.217 . S
C11 C219 2.832 . S
C51 C251 2.266 . S
C299 C99 3.807 . S
C7 C330 2.169 . S
C47 C410 2.125 . S
C450 C96 3.890 . S
C127 C362 1.656 1_554 S
C167 C370 1.395 . S
C322 C216 4.228 1_554 S
C402 C247 1.164 . S
C442 C296 4.738 . S
C2 C136 4.810 . S
C16 C42 4.106 1_545 S
C56 C90 4.426 1_554 S
C122 C87 1.972 1_545 S
C207 C162 1.853 . S
C210 C256 3.012 . S
C242 C287 1.988 . S
C176 C290 2.769 . S
C336 C130 2.638 . S
C202 C376 3.700 1_655 S
C327 C250 1.910 1_455 S
C407 C282 1.797 . S
C170 C447 1.964 . S
C456 C50 3.657 1_655 S
C82 C367 1.654 . S
C416 C10 3.517 1_655 S
