# Generated by pormake.
# Topology wnr, (7)-cn, num edge types: 1
# Building blocks:
#     Node 0, Type 0, BuildingBlock: NUHQUE_clean_sbu_2, # of connection points: 7
#     Node 1, Type 0, BuildingBlock: NUHQUE_clean_sbu_2, # of connection points: 7
#     Node 2, Type 0, BuildingBlock: NUHQUE_clean_sbu_2, # of connection points: 7
#     Node 3, Type 0, BuildingBlock: NUHQUE_clean_sbu_2, # of connection points: 7
#     Node 4, Type 0, BuildingBlock: NUHQUE_clean_sbu_2, # of connection points: 7
#     Node 5, Type 0, BuildingBlock: NUHQUE_clean_sbu_2, # of connection points: 7
#     Edge 6, Type (0, 0), BuildingBlock: UVAHIK_clean_linker_0, # of connection points: 2
#     Edge 7, Type (0, 0), BuildingBlock: UVAHIK_clean_linker_0, # of connection points: 2
#     Edge 8, Type (0, 0), BuildingBlock: UVAHIK_clean_linker_0, # of connection points: 2
#     Edge 9, Type (0, 0), BuildingBlock: UVAHIK_clean_linker_0, # of connection points: 2
#     Edge 10, Type (0, 0), BuildingBlock: UVAHIK_clean_linker_0, # of connection points: 2
#     Edge 11, Type (0, 0), BuildingBlock: UVAHIK_clean_linker_0, # of connection points: 2
#     Edge 12, Type (0, 0), BuildingBlock: UVAHIK_clean_linker_0, # of connection points: 2
#     Edge 13, Type (0, 0), BuildingBlock: UVAHIK_clean_linker_0, # of connection points: 2
#     Edge 14, Type (0, 0), BuildingBlock: UVAHIK_clean_linker_0, # of connection points: 2
#     Edge 15, Type (0, 0), BuildingBlock: UVAHIK_clean_linker_0, # of connection points: 2
#     Edge 16, Type (0, 0), BuildingBlock: UVAHIK_clean_linker_0, # of connection points: 2
#     Edge 17, Type (0, 0), BuildingBlock: UVAHIK_clean_linker_0, # of connection points: 2
#     Edge 18, Type (0, 0), BuildingBlock: UVAHIK_clean_linker_0, # of connection points: 2
#     Edge 19, Type (0, 0), BuildingBlock: UVAHIK_clean_linker_0, # of connection points: 2
#     Edge 20, Type (0, 0), BuildingBlock: UVAHIK_clean_linker_0, # of connection points: 2
#     Edge 21, Type (0, 0), BuildingBlock: UVAHIK_clean_linker_0, # of connection points: 2
#     Edge 22, Type (0, 0), BuildingBlock: UVAHIK_clean_linker_0, # of connection points: 2
#     Edge 23, Type (0, 0), BuildingBlock: UVAHIK_clean_linker_0, # of connection points: 2
#     Edge 24, Type (0, 0), BuildingBlock: UVAHIK_clean_linker_0, # of connection points: 2
#     Edge 25, Type (0, 0), BuildingBlock: UVAHIK_clean_linker_0, # of connection points: 2
#     Edge 26, Type (0, 0), BuildingBlock: UVAHIK_clean_linker_0, # of connection points: 2
# Relax obj value: 0.183
# Max RMSD: 0.216
# Mean RMSD: 0.216
data_MOF--net-wnr--node1-NUHQUE_clean_sbu_2--edge1-UVAHIK_clean_linker_0
_symmetry_space_group_name_H-M    P1
_symmetry_Int_Tables_number       1
_symmetry_cell_setting            triclinic
loop_
_symmetry_equiv_pos_as_xyz
'x, y, z'
_cell_length_a     57.950733
_cell_length_b     57.886227
_cell_length_c     22.300504
_cell_angle_alpha  90.253397
_cell_angle_beta   89.813911
_cell_angle_gamma 120.11461
loop_
_atom_site_label
_atom_site_type_symbol
_atom_site_fract_x
_atom_site_fract_y
_atom_site_fract_z
_atom_type_partial_charge
O0 O 0.25166 0.45739 0.929 0.0
Tb1 Tb 0.27579 0.46906 0.00957 0.0
Eu2 Eu 0.24991 0.43422 0.13942 0.0
C3 C 0.23894 0.43278 0.90833 0.0
O4 O 0.2384 0.41345 0.94006 0.0
C5 C 0.29123 0.42693 0.05981 0.0
O6 O 0.24225 0.42485 0.23774 0.0
C7 C 0.20556 0.40423 0.08267 0.0
C8 C 0.25584 0.44318 0.27839 0.0
O9 O 0.27494 0.46681 0.26127 0.0
C10 C 0.25313 0.48923 0.1129 0.0
C11 C 0.17785 0.39925 0.083 0.0
C12 C 0.16526 0.39763 0.02794 0.0
C13 C 0.13901 0.39283 0.02693 0.0
C14 C 0.12537 0.38964 0.0808 0.0
C15 C 0.13702 0.39 0.13579 0.0
C16 C 0.16338 0.3949 0.13705 0.0
O17 O 0.28334 0.43551 0.01387 0.0
O18 O 0.28473 0.42918 0.11511 0.0
O19 O 0.30274 0.49751 0.94355 0.0
O20 O 0.3145 0.50362 0.03503 0.0
C21 C 0.32137 0.51303 0.98077 0.0
O22 O 0.25811 0.47602 0.15348 0.0
O23 O 0.25138 0.48277 0.05574 0.0
O24 O 0.21317 0.39625 0.12987 0.0
O25 O 0.22417 0.42747 0.06208 0.0
H26 H 0.17569 0.3997 0.98607 0.0
H27 H 0.10474 0.38496 0.07963 0.0
H28 H 0.17235 0.39505 0.17971 0.0
O29 O 0.56254 0.80725 0.60511 0.0
Tb30 Tb 0.54361 0.81274 0.68497 0.0
Eu31 Eu 0.59592 0.81271 0.78315 0.0
C32 C 0.56987 0.82574 0.56324 0.0
O33 O 0.56825 0.84707 0.57606 0.0
C34 C 0.59647 0.86672 0.7256 0.0
O35 O 0.59032 0.81593 0.88345 0.0
C36 C 0.63523 0.80408 0.76446 0.0
C37 C 0.58453 0.79577 0.91981 0.0
O38 O 0.58104 0.77333 0.89667 0.0
C39 C 0.53462 0.76781 0.77522 0.0
C40 C 0.64005 0.7812 0.76462 0.0
C41 C 0.6426 0.77046 0.7097 0.0
C42 C 0.64708 0.7488 0.70916 0.0
C43 C 0.6492 0.73797 0.7632 0.0
C44 C 0.64798 0.74904 0.81799 0.0
C45 C 0.64343 0.77069 0.81893 0.0
O46 O 0.57202 0.8543 0.7038 0.0
O47 O 0.60804 0.85475 0.75224 0.0
O48 O 0.50899 0.79506 0.62526 0.0
O49 O 0.5155 0.8276 0.68079 0.0
C50 C 0.49995 0.81075 0.6404 0.0
O51 O 0.55907 0.77248 0.76839 0.0
O52 O 0.52834 0.78598 0.76163 0.0
O53 O 0.63071 0.81185 0.81646 0.0
O54 O 0.62016 0.80466 0.72109 0.0
H55 H 0.64139 0.77904 0.66754 0.0
H56 H 0.65346 0.72171 0.76252 0.0
H57 H 0.6428 0.77934 0.86165 0.0
O58 O 0.20085 0.76385 0.2542 0.0
Tb59 Tb 0.20884 0.74804 0.33506 0.0
Eu60 Eu 0.20425 0.79211 0.45097 0.0
C61 C 0.17969 0.74796 0.22193 0.0
O62 O 0.16276 0.72426 0.24335 0.0
C63 C 0.15486 0.73937 0.39073 0.0
O64 O 0.19845 0.79207 0.55121 0.0
C65 C 0.22508 0.84084 0.41268 0.0
C66 C 0.17937 0.77126 0.57924 0.0
O67 O 0.16257 0.75026 0.54777 0.0
C68 C 0.25243 0.78205 0.42748 0.0
C69 C 0.24766 0.86822 0.42246 0.0
C70 C 0.2576 0.88559 0.37294 0.0
C71 C 0.27682 0.91257 0.38127 0.0
C72 C 0.28713 0.92172 0.43852 0.0
C73 C 0.27716 0.9051 0.48845 0.0
C74 C 0.25724 0.87823 0.48069 0.0
O75 O 0.17026 0.72906 0.38049 0.0
O76 O 0.16441 0.76433 0.40805 0.0
O77 O 0.21491 0.72447 0.26627 0.0
O78 O 0.21518 0.71471 0.35752 0.0
C79 C 0.21739 0.70839 0.30261 0.0
O80 O 0.23532 0.78051 0.46822 0.0
O81 O 0.24652 0.7798 0.37014 0.0
O82 O 0.20695 0.83078 0.45524 0.0
O83 O 0.2302 0.82323 0.38766 0.0
H84 H 0.24926 0.87851 0.32869 0.0
H85 H 0.30188 0.94266 0.44494 0.0
H86 H 0.2488 0.86552 0.51958 0.0
O87 O 0.46367 0.24401 0.07542 0.0
Tb88 Tb 0.47532 0.26848 0.99547 0.0
Eu89 Eu 0.44141 0.24486 0.86359 0.0
C90 C 0.43904 0.23101 0.09568 0.0
O91 O 0.41972 0.23042 0.06387 0.0
C92 C 0.43498 0.28575 0.9453 0.0
O93 O 0.4322 0.2371 0.76519 0.0
C94 C 0.40941 0.20108 0.92008 0.0
C95 C 0.45081 0.24978 0.72462 0.0
O96 O 0.47477 0.26821 0.74175 0.0
C97 C 0.49545 0.24597 0.89147 0.0
C98 C 0.40081 0.17235 0.91751 0.0
C99 C 0.39328 0.15754 0.97113 0.0
C100 C 0.38296 0.12985 0.96952 0.0
C101 C 0.38112 0.1172 0.91488 0.0
C102 C 0.38829 0.13141 0.8612 0.0
C103 C 0.3981 0.1591 0.86221 0.0
O104 O 0.4416 0.27569 0.99057 0.0
O105 O 0.43881 0.28097 0.88966 0.0
O106 O 0.50354 0.29525 0.06222 0.0
O107 O 0.50997 0.30727 0.97096 0.0
C108 C 0.51921 0.31396 0.02543 0.0
O109 O 0.48267 0.2515 0.85081 0.0
O110 O 0.48893 0.24413 0.9486 0.0
O111 O 0.40188 0.21049 0.87538 0.0
O112 O 0.4339 0.21754 0.93817 0.0
H113 H 0.39439 0.16732 0.01349 0.0
H114 H 0.37288 0.0957 0.91383 0.0
H115 H 0.40308 0.17007 0.82043 0.0
O116 O 0.7735 0.19943 0.75253 0.0
Tb117 Tb 0.75689 0.20626 0.67153 0.0
Eu118 Eu 0.80105 0.20286 0.55699 0.0
C119 C 0.7578 0.17876 0.78622 0.0
O120 O 0.73381 0.16177 0.7662 0.0
C121 C 0.75017 0.15229 0.6191 0.0
O122 O 0.80244 0.19652 0.45734 0.0
C123 C 0.84945 0.22691 0.59842 0.0
C124 C 0.78094 0.17975 0.42726 0.0
O125 O 0.75844 0.16544 0.4565 0.0
C126 C 0.78776 0.24902 0.57577 0.0
C127 C 0.87593 0.25123 0.59132 0.0
C128 C 0.89037 0.26434 0.64331 0.0
C129 C 0.91621 0.28647 0.63889 0.0
C130 C 0.92747 0.29565 0.58232 0.0
C131 C 0.91406 0.2822 0.53013 0.0
C132 C 0.88815 0.25995 0.53452 0.0
O133 O 0.73894 0.1669 0.62925 0.0
O134 O 0.77497 0.16266 0.60012 0.0
O135 O 0.73365 0.21309 0.73978 0.0
O136 O 0.72161 0.20927 0.64902 0.0
C137 C 0.71613 0.21303 0.70355 0.0
O138 O 0.78657 0.23151 0.5365 0.0
O139 O 0.78692 0.24418 0.63348 0.0
O140 O 0.84124 0.20923 0.55472 0.0
O141 O 0.83022 0.22967 0.62279 0.0
H142 H 0.88187 0.25682 0.68721 0.0
H143 H 0.94791 0.31202 0.57914 0.0
H144 H 0.87794 0.2492 0.49422 0.0
O145 O 0.81614 0.56485 0.41108 0.0
Tb146 Tb 0.8153 0.54191 0.33269 0.0
Eu147 Eu 0.82078 0.58786 0.21869 0.0
C148 C 0.83759 0.57639 0.44502 0.0
O149 O 0.85918 0.57641 0.42684 0.0
C150 C 0.87152 0.58796 0.28075 0.0
O151 O 0.82672 0.59704 0.1197 0.0
C152 C 0.79838 0.61237 0.26783 0.0
C153 C 0.83133 0.58164 0.084 0.0
O154 O 0.83364 0.56215 0.10765 0.0
C155 C 0.77309 0.52875 0.23249 0.0
C156 C 0.77419 0.61472 0.26411 0.0
C157 C 0.76258 0.6171 0.31757 0.0
C158 C 0.74081 0.62138 0.31572 0.0
C159 C 0.7305 0.62292 0.26023 0.0
C160 C 0.74253 0.62186 0.2066 0.0
C161 C 0.76431 0.61754 0.20849 0.0
O162 O 0.85656 0.56332 0.3005 0.0
O163 O 0.86176 0.60166 0.25517 0.0
O164 O 0.81021 0.51392 0.40423 0.0
O165 O 0.81102 0.50271 0.31398 0.0
C166 C 0.80885 0.49518 0.36958 0.0
O167 O 0.7913 0.54519 0.19485 0.0
O168 O 0.77735 0.53167 0.29061 0.0
O169 O 0.81523 0.62212 0.22273 0.0
O170 O 0.7957 0.59 0.28944 0.0
H171 H 0.77108 0.61661 0.36048 0.0
H172 H 0.71458 0.62763 0.25887 0.0
H173 H 0.77398 0.61728 0.16702 0.0
C174 C 0.11299 0.40353 0.95513 0.0
C175 C 0.12365 0.38734 0.97095 0.0
C176 C 0.09165 0.39416 0.91498 0.0
C177 C 0.03304 0.33188 0.87876 0.0
H178 H 0.0242 0.3685 0.74356 0.0
C179 C 0.94136 0.28155 0.72306 0.0
C180 C 0.93379 0.29762 0.69167 0.0
C181 C 0.96358 0.29315 0.76084 0.0
C182 C 0.02606 0.35821 0.78201 0.0
H183 H 0.12153 0.3494 0.95558 0.0
H184 H 0.084 0.33283 0.88552 0.0
H185 H 0.06706 0.38831 0.79508 0.0
H186 H 0.942 0.33803 0.67813 0.0
H187 H 0.97983 0.35829 0.74698 0.0
H188 H 0.992 0.30229 0.86776 0.0
C189 C 0.09229 0.35282 0.90372 0.0
C190 C 0.05076 0.36947 0.81095 0.0
C191 C 0.11392 0.3624 0.94304 0.0
C192 C 0.94745 0.32525 0.70224 0.0
C193 C 0.96939 0.33684 0.74083 0.0
C194 C 1.00822 0.32085 0.85062 0.0
C195 C 0.08035 0.36823 0.89117 0.0
C196 C 0.05454 0.35624 0.85913 0.0
C197 C 0.97849 0.32108 0.76859 0.0
C198 C 1.0044 0.33372 0.80146 0.0
H199 H 0.1199 0.42261 0.97716 0.0
H200 H 0.08272 0.40636 0.90616 0.0
H201 H 0.03531 0.32157 0.91674 0.0
H202 H 0.93143 0.26024 0.71465 0.0
H203 H 0.96998 0.28028 0.78075 0.0
C204 C 0.74911 0.65258 0.40062 0.0
C205 C 0.7314 0.62913 0.36968 0.0
C206 C 0.73933 0.66474 0.43935 0.0
C207 C 0.6811 0.65584 0.52453 0.0
H208 H 0.70655 0.72977 0.48259 0.0
C209 C 0.63463 0.71258 0.63431 0.0
C210 C 0.65259 0.73862 0.6536 0.0
C211 C 0.64286 0.69957 0.59405 0.0
C212 C 0.69941 0.70925 0.49542 0.0
H213 H 0.68994 0.59889 0.358 0.0
H214 H 0.67284 0.61967 0.42734 0.0
H215 H 0.72515 0.70526 0.43236 0.0
H216 H 0.69271 0.772 0.64493 0.0
H217 H 0.70742 0.74936 0.5755 0.0
H218 H 0.65589 0.65985 0.5887 0.0
C219 C 0.69421 0.62878 0.42129 0.0
C220 C 0.71012 0.69524 0.46669 0.0
C221 C 0.70395 0.61683 0.38189 0.0
C222 C 0.67839 0.75211 0.6294 0.0
C223 C 0.68678 0.73901 0.58981 0.0
C224 C 0.67063 0.66995 0.5539 0.0
C225 C 0.71173 0.65343 0.44832 0.0
C226 C 0.70109 0.66842 0.48102 0.0
C227 C 0.66942 0.71219 0.57344 0.0
C228 C 0.67962 0.69685 0.5397 0.0
H229 H 0.77031 0.66263 0.39124 0.0
H230 H 0.75326 0.68359 0.46025 0.0
H231 H 0.67385 0.6352 0.53646 0.0
H232 H 0.61474 0.70174 0.65326 0.0
H233 H 0.62873 0.6792 0.58126 0.0
C234 C 0.29609 0.93116 0.27965 0.0
C235 C 0.28418 0.93264 0.33332 0.0
C236 C 0.30685 0.95277 0.23975 0.0
C237 C 0.33468 0.02547 0.24045 0.0
H238 H 0.3222 0.01848 0.06904 0.0
C239 C 0.38806 0.11219 0.06775 0.0
C240 C 0.37153 0.11278 0.0227 0.0
C241 C 0.37786 0.09114 0.10902 0.0
C242 C 0.3258 0.02071 0.11693 0.0
H243 H 0.27234 0.95665 0.38557 0.0
H244 H 0.29092 0.99408 0.31629 0.0
H245 H 0.30304 0.97844 0.13149 0.0
H246 H 0.33139 0.09324 0.98712 0.0
H247 H 0.31349 0.05681 0.05946 0.0
H248 H 0.35721 0.06776 0.22597 0.0
C249 C 0.29259 0.97671 0.30546 0.0
C250 C 0.31506 0.9978 0.15244 0.0
C251 C 0.28181 0.95524 0.34482 0.0
C252 C 0.34441 0.09316 0.0218 0.0
C253 C 0.3343 0.07218 0.06258 0.0
C254 C 0.34564 0.04837 0.20485 0.0
C255 C 0.30585 0.97605 0.25337 0.0
C256 C 0.31899 1.0 0.21468 0.0
C257 C 0.35111 0.07042 0.10518 0.0
C258 C 0.34088 0.04623 0.14291 0.0
H259 H 0.29817 0.91394 0.27004 0.0
H260 H 0.31688 0.95175 0.19961 0.0
H261 H 0.33829 0.02769 0.28833 0.0
H262 H 0.40912 0.12696 0.06855 0.0
H263 H 0.39121 0.09025 0.14159 0.0
C264 C 0.24461 0.52682 0.08999 0.0
C265 C 0.24845 0.51114 0.13233 0.0
C266 C 0.24098 0.54794 0.10849 0.0
C267 C 0.22179 0.57421 0.23973 0.0
H268 H 0.25793 0.64117 0.15321 0.0
C269 C 0.22409 0.66987 0.32665 0.0
C270 C 0.22137 0.68608 0.28392 0.0
C271 C 0.22746 0.64854 0.30851 0.0
C272 C 0.24743 0.62253 0.17751 0.0
H273 H 0.25124 0.50533 0.22758 0.0
H274 H 0.24503 0.54212 0.25962 0.0
H275 H 0.26309 0.60379 0.12049 0.0
H276 H 0.21998 0.69274 0.18881 0.0
H277 H 0.22551 0.65542 0.15707 0.0
H278 H 0.20604 0.59291 0.29664 0.0
C279 C 0.24459 0.53797 0.2121 0.0
C280 C 0.25039 0.60106 0.15869 0.0
C281 C 0.24831 0.51693 0.19364 0.0
C282 C 0.22215 0.68063 0.22276 0.0
C283 C 0.22547 0.65932 0.2046 0.0
C284 C 0.21877 0.59567 0.25849 0.0
C285 C 0.24101 0.55384 0.16979 0.0
C286 C 0.23762 0.57662 0.18955 0.0
C287 C 0.22816 0.64295 0.2472 0.0
C288 C 0.23155 0.62013 0.22761 0.0
H289 H 0.24458 0.52294 0.04243 0.0
H290 H 0.23795 0.55954 0.0747 0.0
H291 H 0.21136 0.55557 0.26407 0.0
H292 H 0.22362 0.67367 0.37412 0.0
H293 H 0.2298 0.6366 0.34257 0.0
C294 C 0.36303 0.55627 0.00616 0.0
C295 C 0.34538 0.53833 0.96322 0.0
C296 C 0.38457 0.581 0.98841 0.0
C297 C 0.4361 0.62698 0.93412 0.0
H298 H 0.42204 0.66351 0.80646 0.0
C299 C 0.51971 0.72193 0.81641 0.0
C300 C 0.51379 0.74188 0.80048 0.0
C301 C 0.49981 0.69737 0.8392 0.0
C302 C 0.42632 0.65376 0.84252 0.0
H303 H 0.33689 0.53175 0.86812 0.0
H304 H 0.37441 0.57439 0.83722 0.0
H305 H 0.38652 0.62056 0.84147 0.0
H306 H 0.48225 0.7517 0.79739 0.0
H307 H 0.44783 0.70923 0.83749 0.0
H308 H 0.4759 0.6606 0.93563 0.0
C309 C 0.37148 0.5698 0.88463 0.0
C310 C 0.40599 0.62889 0.86213 0.0
C311 C 0.35005 0.54524 0.90232 0.0
C312 C 0.48757 0.73679 0.80872 0.0
C313 C 0.46773 0.71231 0.83148 0.0
C314 C 0.45653 0.65194 0.91438 0.0
C315 C 0.38881 0.58823 0.92739 0.0
C316 C 0.4106 0.61506 0.90794 0.0
C317 C 0.47349 0.69216 0.84655 0.0
C318 C 0.45189 0.66565 0.86825 0.0
H319 H 0.35985 0.55146 0.05344 0.0
H320 H 0.39743 0.59476 0.02258 0.0
H321 H 0.44041 0.61684 0.96923 0.0
H322 H 0.53969 0.72514 0.8108 0.0
H323 H 0.50493 0.68225 0.84978 0.0
C324 C 0.46433 0.82306 0.64395 0.0
C325 C 0.47562 0.80929 0.61603 0.0
C326 C 0.44079 0.82096 0.62177 0.0
C327 C 0.38308 0.77852 0.52188 0.0
H328 H 0.37077 0.83833 0.53422 0.0
C329 C 0.29397 0.77993 0.40858 0.0
C330 C 0.2789 0.78677 0.44652 0.0
C331 C 0.31849 0.78338 0.42759 0.0
C332 C 0.37394 0.82145 0.53071 0.0
H333 H 0.47172 0.78311 0.54231 0.0
H334 H 0.43133 0.78024 0.50199 0.0
H335 H 0.41287 0.84331 0.56928 0.0
H336 H 0.27796 0.80315 0.53357 0.0
H337 H 0.3211 0.8097 0.56617 0.0
H338 H 0.34429 0.75698 0.48186 0.0
C339 C 0.43999 0.79198 0.54217 0.0
C340 C 0.398 0.82421 0.55111 0.0
C341 C 0.46328 0.79376 0.56496 0.0
C342 C 0.28908 0.79761 0.50339 0.0
C343 C 0.31381 0.8015 0.52195 0.0
C344 C 0.35922 0.77593 0.50065 0.0
C345 C 0.42824 0.80535 0.57056 0.0
C346 C 0.40286 0.80271 0.5474 0.0
C347 C 0.32864 0.79418 0.48446 0.0
C348 C 0.35434 0.7973 0.50523 0.0
H349 H 0.47342 0.83506 0.68362 0.0
H350 H 0.43221 0.83119 0.64559 0.0
H351 H 0.38573 0.76132 0.51928 0.0
H352 H 0.28659 0.77141 0.36462 0.0
H353 H 0.3296 0.7777 0.39771 0.0
C354 C 0.53336 0.23802 0.91451 0.0
C355 C 0.51715 0.24101 0.87213 0.0
C356 C 0.55444 0.23437 0.89599 0.0
C357 C 0.59821 0.24435 0.76484 0.0
H358 H 0.61498 0.19675 0.85163 0.0
C359 C 0.67598 0.21685 0.67913 0.0
C360 C 0.69332 0.21617 0.722 0.0
C361 C 0.65428 0.2196 0.69699 0.0
C362 C 0.61071 0.21031 0.82722 0.0
H363 H 0.51016 0.24199 0.77684 0.0
H364 H 0.54647 0.23516 0.74474 0.0
H365 H 0.57737 0.20164 0.8836 0.0
H366 H 0.70165 0.21785 0.81705 0.0
H367 H 0.66387 0.22271 0.8483 0.0
H368 H 0.6315 0.25288 0.70829 0.0
C369 C 0.5433 0.23617 0.79233 0.0
C370 C 0.58915 0.21316 0.84562 0.0
C371 C 0.52231 0.23992 0.81081 0.0
C372 C 0.68857 0.21828 0.78302 0.0
C373 C 0.66683 0.22089 0.80092 0.0
C374 C 0.6197 0.24142 0.74632 0.0
C375 C 0.55979 0.23354 0.83463 0.0
C376 C 0.58262 0.23026 0.81476 0.0
C377 C 0.6494 0.22158 0.75815 0.0
C378 C 0.62627 0.22442 0.77737 0.0
H379 H 0.53007 0.2389 0.96209 0.0
H380 H 0.5669 0.23277 0.9299 0.0
H381 H 0.59412 0.25806 0.74057 0.0
H382 H 0.67915 0.2152 0.63177 0.0
H383 H 0.64111 0.21979 0.66292 0.0
C384 C 0.79209 0.28032 0.49314 0.0
C385 C 0.79045 0.27458 0.55475 0.0
C386 C 0.79407 0.30413 0.47318 0.0
C387 C 0.8124 0.37236 0.5232 0.0
H388 H 0.77225 0.37108 0.38321 0.0
C389 C 0.80446 0.46406 0.45195 0.0
C390 C 0.80606 0.46969 0.39041 0.0
C391 C 0.80236 0.4402 0.47196 0.0
C392 C 0.78384 0.37187 0.42197 0.0
H393 H 0.78963 0.28951 0.64367 0.0
H394 H 0.79291 0.33093 0.60883 0.0
H395 H 0.7692 0.32979 0.41819 0.0
H396 H 0.80663 0.45484 0.30145 0.0
H397 H 0.80319 0.41323 0.33623 0.0
H398 H 0.82706 0.41444 0.52697 0.0
C399 C 0.79299 0.31715 0.57593 0.0
C400 C 0.78209 0.34816 0.44205 0.0
C401 C 0.79098 0.29331 0.59591 0.0
C402 C 0.80535 0.45095 0.34917 0.0
C403 C 0.80324 0.42706 0.36914 0.0
C404 C 0.81415 0.39606 0.50312 0.0
C405 C 0.79448 0.32284 0.51429 0.0
C406 C 0.79635 0.3481 0.49293 0.0
C407 C 0.80181 0.42141 0.43083 0.0
C408 C 0.7999 0.39613 0.45223 0.0
H409 H 0.79181 0.2664 0.46013 0.0
H410 H 0.79556 0.308 0.42545 0.0
H411 H 0.82398 0.37314 0.56197 0.0
H412 H 0.80488 0.47813 0.48475 0.0
H413 H 0.80091 0.43636 0.5197 0.0
C414 C 0.55148 0.34212 0.1045 0.0
C415 C 0.54455 0.33782 0.04354 0.0
C416 C 0.57606 0.36342 0.12265 0.0
C417 C 0.63288 0.42847 0.07474 0.0
H418 H 0.66982 0.41435 0.2014 0.0
C419 C 0.74134 0.50503 0.1474 0.0
C420 C 0.74693 0.50748 0.20923 0.0
C421 C 0.71677 0.4848 0.12553 0.0
C422 C 0.65967 0.41876 0.16646 0.0
H423 H 0.55769 0.35276 0.9537 0.0
H424 H 0.60099 0.39013 0.98536 0.0
H425 H 0.62698 0.37863 0.16577 0.0
H426 H 0.73082 0.49054 0.2965 0.0
H427 H 0.68803 0.4555 0.25849 0.0
H428 H 0.66574 0.4687 0.07559 0.0
C429 C 0.58725 0.37708 0.01923 0.0
C430 C 0.63506 0.39824 0.14597 0.0
C431 C 0.56251 0.35567 1.00102 0.0
C432 C 0.72728 0.48926 0.24862 0.0
C433 C 0.70276 0.46902 0.22675 0.0
C434 C 0.65759 0.44906 0.09527 0.0
C435 C 0.59447 0.38099 0.08029 0.0
C436 C 0.62118 0.40284 0.10023 0.0
C437 C 0.6972 0.46645 0.1649 0.0
C438 C 0.67119 0.44451 0.14177 0.0
H439 H 0.53799 0.32879 0.13839 0.0
H440 H 0.58065 0.3661 0.17009 0.0
H441 H 0.62267 0.43281 0.03985 0.0
H442 H 0.756 0.51868 0.11568 0.0
H443 H 0.7133 0.48327 0.07761 0.0
C444 C 0.94171 0.31629 0.45359 0.0
C445 C 0.92963 0.28977 0.47365 0.0
C446 C 0.96297 0.32614 0.41296 0.0
C447 C 1.01834 0.31576 0.37351 0.0
H448 H 0.03094 0.36574 0.24539 0.0
C449 C 0.11008 0.35669 0.21425 0.0
C450 C 0.11972 0.38216 0.18956 0.0
C451 C 0.08762 0.3456 0.25177 0.0
C452 C 0.02801 0.35218 0.28172 0.0
H453 H 0.92931 0.25238 0.46492 0.0
H454 H 0.96643 0.26951 0.39334 0.0
H455 H 0.98831 0.34457 0.29792 0.0
H456 H 0.1147 0.41672 0.18733 0.0
H457 H 0.07648 0.39813 0.25526 0.0
H458 H 0.0582 0.32376 0.35845 0.0
C459 C 0.95949 0.2827 0.40914 0.0
C460 C 1.00341 0.33986 0.31144 0.0
C461 C 0.93798 0.27276 0.44927 0.0
C462 C 0.10778 0.39714 0.20642 0.0
C463 C 0.08556 0.38623 0.24441 0.0
C464 C 0.04306 0.32827 0.34415 0.0
C465 C 0.97284 0.30976 0.39225 0.0
C466 C 0.99828 0.32153 0.35776 0.0
C467 C 0.07445 0.35986 0.26552 0.0
C468 C 0.04831 0.34678 0.29798 0.0
H469 H 0.93592 0.32989 0.47262 0.0
H470 H 0.97286 0.34709 0.40112 0.0
H471 H 1.01521 0.3021 0.40978 0.0
H472 H 0.11859 0.34453 0.20077 0.0
H473 H 0.07964 0.32522 0.26673 0.0
C474 C 0.70768 0.61742 0.1346 0.0
C475 C 0.73468 0.63006 0.15114 0.0
C476 C 0.69869 0.62971 0.09462 0.0
C477 C 0.71463 0.69683 0.05356 0.0
H478 H 0.6615 0.6616 0.92942 0.0
C479 C 0.68032 0.75304 0.89574 0.0
C480 C 0.65439 0.73901 0.87239 0.0
C481 C 0.68963 0.74024 0.93348 0.0
C482 C 0.67596 0.67165 0.96473 0.0
H483 H 0.77372 0.66461 0.1365 0.0
H484 H 0.75804 0.68614 0.06621 0.0
H485 H 0.67994 0.63729 0.98024 0.0
H486 H 0.61727 0.70137 0.8725 0.0
H487 H 0.63286 0.67932 0.94109 0.0
H488 H 0.71028 0.73099 0.03935 0.0
C489 C 0.74383 0.66676 0.08429 0.0
C490 C 0.68672 0.65775 0.99336 0.0
C491 C 0.75287 0.65428 0.12371 0.0
C492 C 0.63724 0.71265 0.89078 0.0
C493 C 0.64639 0.69993 0.92907 0.0
C494 C 0.70368 0.71067 0.02539 0.0
C495 C 0.71651 0.65506 0.07114 0.0
C496 C 0.70619 0.67019 0.03802 0.0
C497 C 0.67308 0.71317 0.94872 0.0
C498 C 0.68415 0.69826 0.98062 0.0
H499 H 0.69326 0.5989 0.15582 0.0
H500 H 0.67752 0.62024 0.08549 0.0
H501 H 0.72925 0.70679 0.08868 0.0
H502 H 0.69405 0.7732 0.88089 0.0
H503 H 0.71032 0.75108 0.94724 0.0
C504 C 0.39756 0.10365 0.79094 0.0
C505 C 0.38226 0.11551 0.80553 0.0
C506 C 0.38694 0.08079 0.75466 0.0
C507 C 0.32189 0.02238 0.72386 0.0
H508 H 0.35897 1.00568 0.60167 0.0
C509 C 0.26991 0.92817 0.57363 0.0
C510 C 0.2854 0.91839 0.54752 0.0
C511 C 0.28163 0.95036 0.61196 0.0
C512 C 0.34847 1.00973 0.63664 0.0
H513 H 0.3445 0.11374 0.79159 0.0
H514 H 0.32598 0.074 0.72739 0.0
H515 H 0.38041 0.0502 0.64614 0.0
H516 H 0.32456 0.92247 0.54485 0.0
H517 H 0.34473 0.96009 0.61477 0.0
H518 H 0.29015 0.98191 0.71549 0.0
C519 C 0.34616 0.08231 0.74397 0.0
C520 C 0.36073 0.03542 0.66162 0.0
C521 C 0.35692 0.10533 0.7797 0.0
C522 C 0.31209 0.92936 0.56532 0.0
C523 C 0.32376 0.95134 0.60421 0.0
C524 C 0.30974 0.99661 0.6994 0.0
C525 C 0.36063 0.06914 0.73322 0.0
C526 C 0.34748 0.04211 0.70513 0.0
C527 C 0.30908 0.96311 0.62526 0.0
C528 C 0.32277 0.98992 0.65512 0.0
H529 H 0.41684 0.11071 0.81176 0.0
H530 H 0.39855 0.07108 0.74739 0.0
H531 H 0.31139 0.02673 0.75833 0.0
H532 H 0.24949 0.92053 0.5593 0.0
H533 H 0.2696 0.95878 0.62684 0.0
C534 C 0.3146 0.40278 0.09613 0.0
C535 C 0.30645 0.41285 0.0484 0.0
C536 C 0.32877 0.38941 0.08531 0.0
C537 C 0.36989 0.38 0.96973 0.0
H538 H 0.35409 0.31763 0.06395 0.0
C539 C 0.41292 0.31131 0.90994 0.0
C540 C 0.42091 0.30094 0.95735 0.0
C541 C 0.39936 0.32525 0.92129 0.0
C542 C 0.35902 0.3352 0.03765 0.0
H543 H 0.30702 0.41666 0.95157 0.0
H544 H 0.33143 0.3932 0.93277 0.0
H545 H 0.32982 0.3412 0.08314 0.0
H546 H 0.42096 0.29743 0.05418 0.0
H547 H 0.39757 0.32185 0.07388 0.0
H548 H 0.39905 0.37394 0.92414 0.0
C549 C 0.32716 0.39591 0.97874 0.0
C550 C 0.34507 0.34876 0.04869 0.0
C551 C 0.31297 0.40926 0.98955 0.0
C552 C 0.41508 0.30502 0.01645 0.0
C553 C 0.40147 0.31892 0.02778 0.0
C554 C 0.38384 0.36643 0.95867 0.0
C555 C 0.33525 0.38575 0.02645 0.0
C556 C 0.35027 0.37136 0.01486 0.0
C557 C 0.39336 0.32919 0.98037 0.0
C558 C 0.3786 0.34381 0.99243 0.0
H559 H 0.31007 0.40522 0.14208 0.0
H560 H 0.33495 0.38223 0.12328 0.0
H561 H 0.3748 0.39755 0.94338 0.0
H562 H 0.41699 0.30856 0.86384 0.0
H563 H 0.39317 0.33255 0.88356 0.0
C564 C 0.60351 0.90889 0.67716 0.0
C565 C 0.61219 0.89626 0.71766 0.0
C566 C 0.61845 0.93645 0.66762 0.0
C567 C 0.68644 0.99562 0.68851 0.0
H568 H 0.64954 0.03431 0.6537 0.0
C569 C 0.70946 0.11167 0.65909 0.0
C570 C 0.73402 0.1229 0.62862 0.0
C571 C 0.6948 0.08423 0.67077 0.0
C572 C 0.66028 0.02399 0.66399 0.0
H573 H 0.64353 0.90312 0.78041 0.0
H574 H 0.66923 0.95135 0.76515 0.0
H575 H 0.62398 0.98697 0.67601 0.0
H576 H 0.76207 0.11371 0.58551 0.0
H577 H 0.73615 0.06583 0.60397 0.0
H578 H 0.72276 0.03294 0.67874 0.0
C579 C 0.65109 0.9398 0.73962 0.0
C580 C 0.64553 0.99659 0.67595 0.0
C581 C 0.63623 0.91209 0.74874 0.0
C582 C 0.74332 0.10584 0.60935 0.0
C583 C 0.7285 0.07832 0.62045 0.0
C584 C 0.70121 0.02312 0.67709 0.0
C585 C 0.64246 0.95239 0.69874 0.0
C586 C 0.65835 0.9819 0.68799 0.0
C587 C 0.70408 0.06709 0.65169 0.0
C588 C 0.68836 0.03773 0.66435 0.0
H589 H 0.5853 0.89743 0.65173 0.0
H590 H 0.61133 0.94514 0.63481 0.0
H591 H 0.69713 0.98509 0.69687 0.0
H592 H 0.70169 0.12414 0.67503 0.0
H593 H 0.67638 0.07658 0.69583 0.0
C594 C 0.91819 0.62415 0.25581 0.0
C595 C 0.90091 0.60121 0.2889 0.0
C596 C 0.94573 0.63766 0.26629 0.0
C597 C 0.99472 0.65151 0.38333 0.0
H598 H 0.04592 0.67197 0.25342 0.0
C599 C 0.10776 0.72968 0.40616 0.0
C600 C 0.12555 0.72204 0.3829 0.0
C601 C 0.08025 0.71385 0.39633 0.0
C602 C 0.03184 0.66632 0.29014 0.0
H603 H 0.89926 0.57436 0.35858 0.0
H604 H 0.94727 0.5984 0.3778 0.0
H605 H 0.99805 0.6461 0.23167 0.0
H606 H 0.12815 0.69146 0.33163 0.0
H607 H 0.08027 0.66434 0.31315 0.0
H608 H 0.02851 0.67227 0.44162 0.0
C609 C 0.93941 0.60576 0.3435 0.0
C610 C 1.00449 0.65166 0.27766 0.0
C611 C 0.91193 0.59193 0.33221 0.0
C612 C 0.1151 0.69805 0.35007 0.0
C613 C 0.08768 0.68252 0.33925 0.0
C614 C 0.02207 0.66663 0.39567 0.0
C615 C 0.95658 0.62884 0.31086 0.0
C616 C 0.98564 0.64405 0.32414 0.0
C617 C 0.06996 0.69029 0.36208 0.0
C618 C 0.04092 0.67413 0.34921 0.0
H619 H 0.91044 0.63183 0.22202 0.0
H620 H 0.95848 0.65545 0.24062 0.0
H621 H 0.98063 0.64607 0.41997 0.0
H622 H 0.11506 0.74796 0.43183 0.0
H623 H 0.06705 0.72036 0.41429 0.0
C624 C 0.23304 0.41152 0.36341 0.0
C625 C 0.24864 0.43783 0.34242 0.0
C626 C 0.22591 0.40667 0.42399 0.0
C627 C 0.21562 0.43711 0.55746 0.0
H628 H 0.23562 0.39317 0.64929 0.0
C629 C 0.23299 0.44961 0.81019 0.0
C630 C 0.22947 0.42805 0.84552 0.0
C631 C 0.22852 0.44655 0.74854 0.0
C632 C 0.22922 0.40495 0.62428 0.0
H633 H 0.26871 0.47964 0.36807 0.0
H634 H 0.25585 0.47114 0.47345 0.0
H635 H 0.24123 0.39579 0.54061 0.0
H636 H 0.21649 0.38579 0.84453 0.0
H637 H 0.20806 0.38026 0.73669 0.0
H638 H 0.20373 0.44648 0.64062 0.0
C639 C 0.24926 0.45432 0.44312 0.0
C640 C 0.2326 0.40653 0.56204 0.0
C641 C 0.25679 0.45916 0.38295 0.0
C642 C 0.2196 0.40286 0.81845 0.0
C643 C 0.21497 0.39974 0.75657 0.0
C644 C 0.21186 0.43523 0.61949 0.0
C645 C 0.23378 0.42806 0.46418 0.0
C646 C 0.22663 0.4233 0.52844 0.0
C647 C 0.22017 0.42177 0.72061 0.0
C648 C 0.2195 0.41987 0.65398 0.0
H649 H 0.22649 0.39469 0.33314 0.0
H650 H 0.21399 0.38625 0.43931 0.0
H651 H 0.21048 0.44985 0.53225 0.0
H652 H 0.24048 0.46929 0.82954 0.0
H653 H 0.23309 0.46408 0.72248 0.0
C654 C 0.58642 0.84363 0.46045 0.0
C655 C 0.57581 0.82178 0.50002 0.0
C656 C 0.58837 0.84013 0.39892 0.0
C657 C 0.58742 0.7937 0.28188 0.0
H658 H 0.56632 0.83377 0.17905 0.0
C659 C 0.57539 0.77619 0.02378 0.0
C660 C 0.58299 0.79838 0.98624 0.0
C661 C 0.57461 0.77853 0.08632 0.0
C662 C 0.57267 0.82268 0.20678 0.0
H663 H 0.55997 0.7791 0.50554 0.0
H664 H 0.56349 0.7729 0.39745 0.0
H665 H 0.5656 0.83843 0.28734 0.0
H666 H 0.59576 0.84054 0.9858 0.0
H667 H 0.59479 0.84478 0.09464 0.0
H668 H 0.59466 0.77808 0.20111 0.0
C669 C 0.57035 0.79285 0.41446 0.0
C670 C 0.57221 0.82532 0.26923 0.0
C671 C 0.56838 0.79639 0.47651 0.0
C672 C 0.58966 0.82298 0.01311 0.0
C673 C 0.58897 0.82535 0.07577 0.0
C674 C 0.588 0.79113 0.21921 0.0
C675 C 0.57973 0.81463 0.37459 0.0
C676 C 0.57973 0.81103 0.30783 0.0
C677 C 0.58147 0.80317 0.11348 0.0
C678 C 0.58073 0.80568 0.18058 0.0
H679 H 0.59262 0.86355 0.47679 0.0
H680 H 0.59635 0.85749 0.37016 0.0
H681 H 0.59356 0.78254 0.30996 0.0
H682 H 0.57 0.75686 0.00488 0.0
H683 H 0.56828 0.76085 0.11331 0.0
C684 C 0.19765 0.79186 0.68007 0.0
C685 C 0.17769 0.77097 0.64577 0.0
C686 C 0.19677 0.79093 0.74285 0.0
C687 C 0.16686 0.74278 0.86834 0.0
H688 H 0.19042 0.80656 0.9651 0.0
C689 C 0.1549 0.73635 0.12459 0.0
C690 C 0.17719 0.75432 0.15864 0.0
C691 C 0.15393 0.73998 0.06293 0.0
C692 C 0.18394 0.78861 0.93869 0.0
H693 H 0.14072 0.73306 0.65085 0.0
H694 H 0.13888 0.73166 0.75998 0.0
H695 H 0.19049 0.80963 0.85579 0.0
H696 H 0.21539 0.79101 0.15479 0.0
H697 H 0.21366 0.7974 0.04685 0.0
H698 H 0.16031 0.72175 0.95098 0.0
C699 C 0.15558 0.74853 0.73851 0.0
C700 C 0.18402 0.79035 0.87597 0.0
C701 C 0.15654 0.74941 0.67579 0.0
C702 C 0.19791 0.7768 0.12995 0.0
C703 C 0.1969 0.78048 0.06806 0.0
C704 C 0.16666 0.74103 0.93086 0.0
C705 C 0.17584 0.76912 0.77299 0.0
C706 C 0.17547 0.76744 0.8399 0.0
C707 C 0.17518 0.76172 0.03356 0.0
C708 C 0.17517 0.76389 0.96691 0.0
H709 H 0.21429 0.80875 0.65847 0.0
H710 H 0.21289 0.807 0.7677 0.0
H711 H 0.16071 0.72479 0.84228 0.0
H712 H 0.13846 0.71892 0.1452 0.0
H713 H 0.13665 0.72546 0.03801 0.0
C714 C 0.46651 0.24955 0.62038 0.0
C715 C 0.44532 0.24223 0.66074 0.0
C716 C 0.46147 0.24167 0.56038 0.0
C717 C 0.41353 0.2253 0.44147 0.0
H718 H 0.45261 0.19539 0.36333 0.0
C719 C 0.40916 0.21155 0.18539 0.0
C720 C 0.43429 0.22134 0.1583 0.0
C721 C 0.4061 0.2069 0.24724 0.0
C722 C 0.44158 0.20379 0.38436 0.0
H723 H 0.40223 0.22117 0.66991 0.0
H724 H 0.39347 0.20803 0.56412 0.0
H725 H 0.4563 0.20257 0.4716 0.0
H726 H 0.47543 0.23206 0.17414 0.0
H727 H 0.4703 0.22463 0.28116 0.0
H728 H 0.40005 0.22812 0.3542 0.0
C729 C 0.41393 0.21959 0.57939 0.0
C730 C 0.44366 0.20781 0.44633 0.0
C731 C 0.41896 0.22709 0.63977 0.0
C732 C 0.4558 0.22466 0.19353 0.0
C733 C 0.45279 0.22017 0.25514 0.0
C734 C 0.41173 0.22163 0.3793 0.0
C735 C 0.43516 0.22666 0.53933 0.0
C736 C 0.43019 0.21922 0.47518 0.0
C737 C 0.42811 0.212 0.28314 0.0
C738 C 0.42634 0.21153 0.34976 0.0
H739 H 0.48702 0.26109 0.63524 0.0
H740 H 0.47819 0.24766 0.53016 0.0
H741 H 0.40304 0.23424 0.46272 0.0
H742 H 0.39213 0.20857 0.15937 0.0
H743 H 0.38668 0.20012 0.26718 0.0
C744 C 0.75945 0.15879 0.32888 0.0
C745 C 0.78173 0.17814 0.36082 0.0
C746 C 0.75975 0.15802 0.26614 0.0
C747 C 0.79179 0.20057 0.13472 0.0
H748 H 0.76119 0.13323 0.04886 0.0
C749 C 0.78878 0.19668 0.87501 0.0
C750 C 0.76489 0.17675 0.8492 0.0
C751 C 0.79368 0.19614 0.93642 0.0
C752 C 0.76962 0.15222 0.07203 0.0
H753 H 0.82196 0.21171 0.3516 0.0
H754 H 0.82239 0.21042 0.24211 0.0
H755 H 0.76384 0.13367 0.15799 0.0
H756 H 0.72785 0.14008 0.86751 0.0
H757 H 0.73609 0.13939 0.97383 0.0
H758 H 0.79685 0.21912 0.04913 0.0
C759 C 0.80465 0.19589 0.26568 0.0
C760 C 0.77117 0.15245 0.13468 0.0
C761 C 0.80444 0.19652 0.32848 0.0
C762 C 0.7465 0.15578 0.88573 0.0
C763 C 0.75133 0.15529 0.94694 0.0
C764 C 0.79007 0.20034 0.07206 0.0
C765 C 0.78226 0.17671 0.23372 0.0
C766 C 0.782 0.1766 0.16686 0.0
C767 C 0.77477 0.17568 0.97347 0.0
C768 C 0.77865 0.17613 0.03983 0.0
H769 H 0.74162 0.14434 0.3523 0.0
H770 H 0.74206 0.14316 0.24293 0.0
H771 H 0.79999 0.2195 0.15814 0.0
H772 H 0.80341 0.2131 0.84816 0.0
H773 H 0.81217 0.21196 0.95498 0.0
C774 C 0.8594 0.59791 0.54235 0.0
C775 C 0.83614 0.58457 0.5074 0.0
C776 C 0.85782 0.60177 0.60386 0.0
C777 C 0.81247 0.56947 0.72916 0.0
H778 H 0.86292 0.63196 0.8195 0.0
C779 C 0.83145 0.56494 0.98043 0.0
C780 C 0.83212 0.58484 0.01794 0.0
C781 C 0.83097 0.56706 0.91814 0.0
C782 C 0.84855 0.61446 0.79483 0.0
H783 H 0.79305 0.5662 0.50911 0.0
H784 H 0.7903 0.57284 0.61663 0.0
H785 H 0.86344 0.63331 0.70962 0.0
H786 H 0.83333 0.6229 0.01926 0.0
H787 H 0.83297 0.62681 0.90984 0.0
H788 H 0.798 0.5504 0.81405 0.0
C789 C 0.80975 0.58014 0.59639 0.0
C790 C 0.84895 0.61518 0.732 0.0
C791 C 0.81135 0.5765 0.53472 0.0
C792 C 0.83279 0.60721 0.99159 0.0
C793 C 0.83266 0.6095 0.92902 0.0
C794 C 0.81229 0.56867 0.79178 0.0
C795 C 0.83292 0.59219 0.63192 0.0
C796 C 0.83108 0.59258 0.69847 0.0
C797 C 0.83145 0.58927 0.89169 0.0
C798 C 0.83055 0.59101 0.82532 0.0
H799 H 0.87883 0.60446 0.52267 0.0
H800 H 0.87603 0.61099 0.62997 0.0
H801 H 0.79863 0.55163 0.70474 0.0
H802 H 0.8309 0.54743 0.99913 0.0
H803 H 0.8304 0.55133 0.89056 0.0
loop_
_geom_bond_atom_site_label_1
_geom_bond_atom_site_label_2
_geom_bond_distance
_geom_bond_site_symmetry_2
_ccdc_geom_bond_type
O0 Tb1 2.292 . S
O0 C3 1.255 . S
Tb1 O0 2.292 . S
Tb1 O17 2.326 1_556 S
Tb1 O19 2.500 . S
Tb1 O20 2.473 1_556 S
Tb1 O23 2.324 1_556 S
Eu2 O6 2.292 . S
Eu2 C7 2.852 . S
Eu2 O18 2.324 . S
Eu2 O22 2.326 . S
Eu2 O24 2.500 . S
Eu2 O25 2.473 . S
C3 O0 1.255 . S
C3 O4 1.247 . S
O4 C3 1.247 . S
C5 O17 1.242 . S
C5 O18 1.258 . S
O6 Eu2 2.292 . S
O6 C8 1.255 . S
C7 Eu2 2.852 . S
C7 C11 1.503 . S
C7 O24 1.273 . S
C7 O25 1.257 . S
C8 O6 1.255 . S
C8 O9 1.247 . S
O9 C8 1.247 . S
C10 O22 1.242 . S
C10 O23 1.258 . S
C11 C7 1.503 . S
C11 C12 1.379 . S
C11 C16 1.392 . S
C12 C11 1.379 . S
C12 C13 1.404 . S
C12 H26 0.929 . S
C13 C12 1.404 . S
C13 C14 1.389 . S
C14 C13 1.389 . S
C14 C15 1.399 . S
C14 H27 0.931 . S
C15 C14 1.399 . S
C15 C16 1.390 . S
C16 C11 1.392 . S
C16 C15 1.390 . S
C16 H28 0.929 . S
O17 Tb1 2.326 1_554 S
O17 C5 1.242 . S
O18 Eu2 2.324 . S
O18 C5 1.258 . S
O19 Tb1 2.500 . S
O19 C21 1.273 1_556 S
O20 Tb1 2.473 1_554 S
O20 C21 1.257 . S
C21 O19 1.273 1_554 S
C21 O20 1.257 . S
O22 Eu2 2.326 . S
O22 C10 1.242 . S
O23 Tb1 2.324 1_554 S
O23 C10 1.258 . S
O24 Eu2 2.500 . S
O24 C7 1.273 . S
O25 Eu2 2.473 . S
O25 C7 1.257 . S
H26 C12 0.929 . S
H27 C14 0.931 . S
H28 C16 0.929 . S
O29 Tb30 2.292 . S
O29 C32 1.255 . S
Tb30 O29 2.292 . S
Tb30 O46 2.326 . S
Tb30 O48 2.500 . S
Tb30 O49 2.473 . S
Tb30 O52 2.324 . S
Eu31 O35 2.292 . S
Eu31 C36 2.852 . S
Eu31 O47 2.324 . S
Eu31 O51 2.326 . S
Eu31 O53 2.500 . S
Eu31 O54 2.473 . S
C32 O29 1.255 . S
C32 O33 1.247 . S
O33 C32 1.247 . S
C34 O46 1.242 . S
C34 O47 1.258 . S
O35 Eu31 2.292 . S
O35 C37 1.255 . S
C36 Eu31 2.852 . S
C36 C40 1.503 . S
C36 O53 1.273 . S
C36 O54 1.257 . S
C37 O35 1.255 . S
C37 O38 1.247 . S
O38 C37 1.247 . S
C39 O51 1.242 . S
C39 O52 1.258 . S
C40 C36 1.503 . S
C40 C41 1.379 . S
C40 C45 1.392 . S
C41 C40 1.379 . S
C41 C42 1.404 . S
C41 H55 0.929 . S
C42 C41 1.404 . S
C42 C43 1.389 . S
C43 C42 1.389 . S
C43 C44 1.399 . S
C43 H56 0.931 . S
C44 C43 1.399 . S
C44 C45 1.390 . S
C45 C40 1.392 . S
C45 C44 1.390 . S
C45 H57 0.929 . S
O46 Tb30 2.326 . S
O46 C34 1.242 . S
O47 Eu31 2.324 . S
O47 C34 1.258 . S
O48 Tb30 2.500 . S
O48 C50 1.273 . S
O49 Tb30 2.473 . S
O49 C50 1.257 . S
C50 O48 1.273 . S
C50 O49 1.257 . S
O51 Eu31 2.326 . S
O51 C39 1.242 . S
O52 Tb30 2.324 . S
O52 C39 1.258 . S
O53 Eu31 2.500 . S
O53 C36 1.273 . S
O54 Eu31 2.473 . S
O54 C36 1.257 . S
H55 C41 0.929 . S
H56 C43 0.931 . S
H57 C45 0.929 . S
O58 Tb59 2.292 . S
O58 C61 1.255 . S
Tb59 O58 2.292 . S
Tb59 O75 2.326 . S
Tb59 O77 2.500 . S
Tb59 O78 2.473 . S
Tb59 O81 2.324 . S
Eu60 O64 2.292 . S
Eu60 C65 2.852 . S
Eu60 O76 2.324 . S
Eu60 O80 2.326 . S
Eu60 O82 2.500 . S
Eu60 O83 2.473 . S
C61 O58 1.255 . S
C61 O62 1.247 . S
O62 C61 1.247 . S
C63 O75 1.242 . S
C63 O76 1.258 . S
O64 Eu60 2.292 . S
O64 C66 1.255 . S
C65 Eu60 2.852 . S
C65 C69 1.503 . S
C65 O82 1.273 . S
C65 O83 1.257 . S
C66 O64 1.255 . S
C66 O67 1.247 . S
O67 C66 1.247 . S
C68 O80 1.242 . S
C68 O81 1.258 . S
C69 C65 1.503 . S
C69 C70 1.379 . S
C69 C74 1.392 . S
C70 C69 1.379 . S
C70 C71 1.404 . S
C70 H84 0.929 . S
C71 C70 1.404 . S
C71 C72 1.389 . S
C72 C71 1.389 . S
C72 C73 1.399 . S
C72 H85 0.931 . S
C73 C72 1.399 . S
C73 C74 1.390 . S
C74 C69 1.392 . S
C74 C73 1.390 . S
C74 H86 0.929 . S
O75 Tb59 2.326 . S
O75 C63 1.242 . S
O76 Eu60 2.324 . S
O76 C63 1.258 . S
O77 Tb59 2.500 . S
O77 C79 1.273 . S
O78 Tb59 2.473 . S
O78 C79 1.257 . S
C79 O77 1.273 . S
C79 O78 1.257 . S
O80 Eu60 2.326 . S
O80 C68 1.242 . S
O81 Tb59 2.324 . S
O81 C68 1.258 . S
O82 Eu60 2.500 . S
O82 C65 1.273 . S
O83 Eu60 2.473 . S
O83 C65 1.257 . S
H84 C70 0.929 . S
H85 C72 0.931 . S
H86 C74 0.929 . S
O87 Tb88 2.292 . S
O87 C90 1.255 . S
Tb88 O87 2.292 . S
Tb88 O104 2.326 1_554 S
Tb88 O106 2.500 . S
Tb88 O107 2.473 1_554 S
Tb88 O110 2.324 1_554 S
Eu89 O93 2.292 . S
Eu89 C94 2.852 . S
Eu89 O105 2.324 . S
Eu89 O109 2.326 . S
Eu89 O111 2.500 . S
Eu89 O112 2.473 . S
C90 O87 1.255 . S
C90 O91 1.247 . S
O91 C90 1.247 . S
C92 O104 1.242 . S
C92 O105 1.258 . S
O93 Eu89 2.292 . S
O93 C95 1.255 . S
C94 Eu89 2.852 . S
C94 C98 1.503 . S
C94 O111 1.273 . S
C94 O112 1.257 . S
C95 O93 1.255 . S
C95 O96 1.247 . S
O96 C95 1.247 . S
C97 O109 1.242 . S
C97 O110 1.258 . S
C98 C94 1.503 . S
C98 C99 1.379 . S
C98 C103 1.392 . S
C99 C98 1.379 . S
C99 C100 1.404 . S
C99 H113 0.929 . S
C100 C99 1.404 . S
C100 C101 1.389 . S
C101 C100 1.389 . S
C101 C102 1.399 . S
C101 H114 0.931 . S
C102 C101 1.399 . S
C102 C103 1.390 . S
C103 C98 1.392 . S
C103 C102 1.390 . S
C103 H115 0.929 . S
O104 Tb88 2.326 1_556 S
O104 C92 1.242 . S
O105 Eu89 2.324 . S
O105 C92 1.258 . S
O106 Tb88 2.500 . S
O106 C108 1.273 1_554 S
O107 Tb88 2.473 1_556 S
O107 C108 1.257 . S
C108 O106 1.273 1_556 S
C108 O107 1.257 . S
O109 Eu89 2.326 . S
O109 C97 1.242 . S
O110 Tb88 2.324 1_556 S
O110 C97 1.258 . S
O111 Eu89 2.500 . S
O111 C94 1.273 . S
O112 Eu89 2.473 . S
O112 C94 1.257 . S
H113 C99 0.929 . S
H114 C101 0.931 . S
H115 C103 0.929 . S
O116 Tb117 2.292 . S
O116 C119 1.255 . S
Tb117 O116 2.292 . S
Tb117 O133 2.326 . S
Tb117 O135 2.500 . S
Tb117 O136 2.473 . S
Tb117 O139 2.324 . S
Eu118 O122 2.292 . S
Eu118 C123 2.852 . S
Eu118 O134 2.324 . S
Eu118 O138 2.326 . S
Eu118 O140 2.500 . S
Eu118 O141 2.473 . S
C119 O116 1.255 . S
C119 O120 1.247 . S
O120 C119 1.247 . S
C121 O133 1.242 . S
C121 O134 1.258 . S
O122 Eu118 2.292 . S
O122 C124 1.255 . S
C123 Eu118 2.852 . S
C123 C127 1.503 . S
C123 O140 1.273 . S
C123 O141 1.257 . S
C124 O122 1.255 . S
C124 O125 1.247 . S
O125 C124 1.247 . S
C126 O138 1.242 . S
C126 O139 1.258 . S
C127 C123 1.503 . S
C127 C128 1.379 . S
C127 C132 1.392 . S
C128 C127 1.379 . S
C128 C129 1.404 . S
C128 H142 0.929 . S
C129 C128 1.404 . S
C129 C130 1.389 . S
C130 C129 1.389 . S
C130 C131 1.399 . S
C130 H143 0.931 . S
C131 C130 1.399 . S
C131 C132 1.390 . S
C132 C127 1.392 . S
C132 C131 1.390 . S
C132 H144 0.929 . S
O133 Tb117 2.326 . S
O133 C121 1.242 . S
O134 Eu118 2.324 . S
O134 C121 1.258 . S
O135 Tb117 2.500 . S
O135 C137 1.273 . S
O136 Tb117 2.473 . S
O136 C137 1.257 . S
C137 O135 1.273 . S
C137 O136 1.257 . S
O138 Eu118 2.326 . S
O138 C126 1.242 . S
O139 Tb117 2.324 . S
O139 C126 1.258 . S
O140 Eu118 2.500 . S
O140 C123 1.273 . S
O141 Eu118 2.473 . S
O141 C123 1.257 . S
H142 C128 0.929 . S
H143 C130 0.931 . S
H144 C132 0.929 . S
O145 Tb146 2.292 . S
O145 C148 1.255 . S
Tb146 O145 2.292 . S
Tb146 O162 2.326 . S
Tb146 O164 2.500 . S
Tb146 O165 2.473 . S
Tb146 O168 2.324 . S
Eu147 O151 2.292 . S
Eu147 C152 2.852 . S
Eu147 O163 2.324 . S
Eu147 O167 2.326 . S
Eu147 O169 2.500 . S
Eu147 O170 2.473 . S
C148 O145 1.255 . S
C148 O149 1.247 . S
O149 C148 1.247 . S
C150 O162 1.242 . S
C150 O163 1.258 . S
O151 Eu147 2.292 . S
O151 C153 1.255 . S
C152 Eu147 2.852 . S
C152 C156 1.503 . S
C152 O169 1.273 . S
C152 O170 1.257 . S
C153 O151 1.255 . S
C153 O154 1.247 . S
O154 C153 1.247 . S
C155 O167 1.242 . S
C155 O168 1.258 . S
C156 C152 1.503 . S
C156 C157 1.379 . S
C156 C161 1.392 . S
C157 C156 1.379 . S
C157 C158 1.404 . S
C157 H171 0.929 . S
C158 C157 1.404 . S
C158 C159 1.389 . S
C159 C158 1.389 . S
C159 C160 1.399 . S
C159 H172 0.931 . S
C160 C159 1.399 . S
C160 C161 1.390 . S
C161 C156 1.392 . S
C161 C160 1.390 . S
C161 H173 0.929 . S
O162 Tb146 2.326 . S
O162 C150 1.242 . S
O163 Eu147 2.324 . S
O163 C150 1.258 . S
O164 Tb146 2.500 . S
O164 C166 1.273 . S
O165 Tb146 2.473 . S
O165 C166 1.257 . S
C166 O164 1.273 . S
C166 O165 1.257 . S
O167 Eu147 2.326 . S
O167 C155 1.242 . S
O168 Tb146 2.324 . S
O168 C155 1.258 . S
O169 Eu147 2.500 . S
O169 C152 1.273 . S
O170 Eu147 2.473 . S
O170 C152 1.257 . S
H171 C157 0.929 . S
H172 C159 0.931 . S
H173 C161 0.929 . S
C174 C175 1.349 . S
C174 C176 1.327 . S
C174 H199 0.950 . S
C175 C174 1.349 . S
C175 C191 1.349 . S
C176 C174 1.327 . S
C176 C195 1.429 . S
C176 H200 0.950 . S
C177 C194 1.574 . S
C177 C196 1.368 1_655 S
C177 H201 0.950 1_655 S
H178 C182 0.949 . S
C179 C180 1.349 . S
C179 C181 1.327 . S
C179 H202 0.950 . S
C180 C179 1.349 . S
C180 C192 1.349 . S
C181 C179 1.327 . S
C181 C197 1.429 . S
C181 H203 0.950 . S
C182 H178 0.949 . S
C182 C190 1.574 1_655 S
C182 C198 1.368 . S
H183 C191 0.950 1_554 S
H184 C189 0.950 . S
H185 C190 0.949 . S
H186 C192 0.950 . S
H187 C193 0.950 . S
H188 C194 0.949 . S
C189 H184 0.950 . S
C189 C191 1.327 . S
C189 C195 1.429 . S
C190 C182 1.574 1_455 S
C190 H185 0.949 . S
C190 C196 1.368 . S
C191 C175 1.349 . S
C191 H183 0.950 1_556 S
C191 C189 1.327 . S
C192 C180 1.349 . S
C192 H186 0.950 . S
C192 C193 1.327 . S
C193 H187 0.950 . S
C193 C192 1.327 . S
C193 C197 1.429 . S
C194 C177 1.574 . S
C194 H188 0.949 . S
C194 C198 1.368 . S
C195 C176 1.429 . S
C195 C189 1.429 . S
C195 C196 1.523 . S
C196 C177 1.368 1_455 S
C196 C190 1.368 . S
C196 C195 1.523 . S
C197 C181 1.429 . S
C197 C193 1.429 . S
C197 C198 1.523 . S
C198 C182 1.368 . S
C198 C194 1.368 . S
C198 C197 1.523 . S
H199 C174 0.950 . S
H200 C176 0.950 . S
H201 C177 0.950 1_455 S
H202 C179 0.950 . S
H203 C181 0.950 . S
C204 C205 1.349 . S
C204 C206 1.327 . S
C204 H229 0.950 . S
C205 C204 1.349 . S
C205 C221 1.349 . S
C206 C204 1.327 . S
C206 C225 1.429 . S
C206 H230 0.950 . S
C207 C224 1.574 . S
C207 C226 1.368 . S
C207 H231 0.949 . S
H208 C212 0.949 . S
C209 C210 1.349 . S
C209 C211 1.327 . S
C209 H232 0.950 . S
C210 C209 1.349 . S
C210 C222 1.349 . S
C211 C209 1.327 . S
C211 C227 1.429 . S
C211 H233 0.950 . S
C212 H208 0.949 . S
C212 C220 1.574 . S
C212 C228 1.368 . S
H213 C221 0.950 . S
H214 C219 0.950 . S
H215 C220 0.949 . S
H216 C222 0.950 . S
H217 C223 0.950 . S
H218 C224 0.949 . S
C219 H214 0.950 . S
C219 C221 1.327 . S
C219 C225 1.429 . S
C220 C212 1.574 . S
C220 H215 0.949 . S
C220 C226 1.368 . S
C221 C205 1.349 . S
C221 H213 0.950 . S
C221 C219 1.327 . S
C222 C210 1.349 . S
C222 H216 0.950 . S
C222 C223 1.327 . S
C223 H217 0.950 . S
C223 C222 1.327 . S
C223 C227 1.429 . S
C224 C207 1.574 . S
C224 H218 0.949 . S
C224 C228 1.368 . S
C225 C206 1.429 . S
C225 C219 1.429 . S
C225 C226 1.523 . S
C226 C207 1.368 . S
C226 C220 1.368 . S
C226 C225 1.523 . S
C227 C211 1.429 . S
C227 C223 1.429 . S
C227 C228 1.523 . S
C228 C212 1.368 . S
C228 C224 1.368 . S
C228 C227 1.523 . S
H229 C204 0.950 . S
H230 C206 0.950 . S
H231 C207 0.949 . S
H232 C209 0.950 . S
H233 C211 0.950 . S
C234 C235 1.349 . S
C234 C236 1.327 . S
C234 H259 0.950 . S
C235 C234 1.349 . S
C235 C251 1.349 . S
C236 C234 1.327 . S
C236 C255 1.429 . S
C236 H260 0.950 . S
C237 C254 1.574 1_565 S
C237 C256 1.368 . S
C237 H261 0.949 . S
H238 C242 0.949 . S
C239 C240 1.349 . S
C239 C241 1.327 . S
C239 H262 0.950 . S
C240 C239 1.349 . S
C240 C252 1.349 1_554 S
C241 C239 1.327 . S
C241 C257 1.429 . S
C241 H263 0.950 . S
C242 H238 0.949 . S
C242 C250 1.574 . S
C242 C258 1.368 1_565 S
H243 C251 0.950 . S
H244 C249 0.950 . S
H245 C250 0.949 . S
H246 C252 0.950 . S
H247 C253 0.950 . S
H248 C254 0.949 . S
C249 H244 0.950 . S
C249 C251 1.327 . S
C249 C255 1.429 . S
C250 C242 1.574 . S
C250 H245 0.949 . S
C250 C256 1.368 . S
C251 C235 1.349 . S
C251 H243 0.950 . S
C251 C249 1.327 . S
C252 C240 1.349 1_556 S
C252 H246 0.950 . S
C252 C253 1.327 1_556 S
C253 H247 0.950 . S
C253 C252 1.327 1_554 S
C253 C257 1.429 . S
C254 C237 1.574 1_545 S
C254 H248 0.949 . S
C254 C258 1.368 . S
C255 C236 1.429 . S
C255 C249 1.429 . S
C255 C256 1.523 . S
C256 C237 1.368 . S
C256 C250 1.368 . S
C256 C255 1.523 . S
C257 C241 1.429 . S
C257 C253 1.429 . S
C257 C258 1.523 . S
C258 C242 1.368 1_545 S
C258 C254 1.368 . S
C258 C257 1.523 . S
H259 C234 0.950 . S
H260 C236 0.950 . S
H261 C237 0.949 . S
H262 C239 0.950 . S
H263 C241 0.950 . S
C264 C265 1.349 . S
C264 C266 1.327 . S
C264 H289 0.950 . S
C265 C264 1.349 . S
C265 C281 1.349 . S
C266 C264 1.327 . S
C266 C285 1.429 . S
C266 H290 0.950 . S
C267 C284 1.574 . S
C267 C286 1.368 . S
C267 H291 0.949 . S
H268 C272 0.949 . S
C269 C270 1.349 . S
C269 C271 1.327 . S
C269 H292 0.950 . S
C270 C269 1.349 . S
C270 C282 1.349 . S
C271 C269 1.327 . S
C271 C287 1.429 . S
C271 H293 0.950 . S
C272 H268 0.949 . S
C272 C280 1.574 . S
C272 C288 1.368 . S
H273 C281 0.950 . S
H274 C279 0.950 . S
H275 C280 0.949 . S
H276 C282 0.950 . S
H277 C283 0.950 . S
H278 C284 0.949 . S
C279 H274 0.950 . S
C279 C281 1.327 . S
C279 C285 1.429 . S
C280 C272 1.574 . S
C280 H275 0.949 . S
C280 C286 1.368 . S
C281 C265 1.349 . S
C281 H273 0.950 . S
C281 C279 1.327 . S
C282 C270 1.349 . S
C282 H276 0.950 . S
C282 C283 1.327 . S
C283 H277 0.950 . S
C283 C282 1.327 . S
C283 C287 1.429 . S
C284 C267 1.574 . S
C284 H278 0.949 . S
C284 C288 1.368 . S
C285 C266 1.429 . S
C285 C279 1.429 . S
C285 C286 1.523 . S
C286 C267 1.368 . S
C286 C280 1.368 . S
C286 C285 1.523 . S
C287 C271 1.429 . S
C287 C283 1.429 . S
C287 C288 1.523 . S
C288 C272 1.368 . S
C288 C284 1.368 . S
C288 C287 1.523 . S
H289 C264 0.950 . S
H290 C266 0.950 . S
H291 C267 0.949 . S
H292 C269 0.950 . S
H293 C271 0.950 . S
C294 C295 1.349 1_556 S
C294 C296 1.327 . S
C294 H319 0.950 . S
C295 C294 1.349 1_554 S
C295 C311 1.349 . S
C296 C294 1.327 . S
C296 C315 1.429 . S
C296 H320 0.950 . S
C297 C314 1.574 . S
C297 C316 1.368 . S
C297 H321 0.949 . S
H298 C302 0.949 . S
C299 C300 1.349 . S
C299 C301 1.327 . S
C299 H322 0.950 . S
C300 C299 1.349 . S
C300 C312 1.349 . S
C301 C299 1.327 . S
C301 C317 1.429 . S
C301 H323 0.950 . S
C302 H298 0.949 . S
C302 C310 1.574 . S
C302 C318 1.368 . S
H303 C311 0.950 . S
H304 C309 0.950 . S
H305 C310 0.949 . S
H306 C312 0.950 . S
H307 C313 0.950 . S
H308 C314 0.949 . S
C309 H304 0.950 . S
C309 C311 1.327 1_556 S
C309 C315 1.429 . S
C310 C302 1.574 . S
C310 H305 0.949 . S
C310 C316 1.368 . S
C311 C295 1.349 . S
C311 H303 0.950 . S
C311 C309 1.327 1_554 S
C312 C300 1.349 . S
C312 H306 0.950 . S
C312 C313 1.327 . S
C313 H307 0.950 . S
C313 C312 1.327 . S
C313 C317 1.429 . S
C314 C297 1.574 . S
C314 H308 0.949 . S
C314 C318 1.368 . S
C315 C296 1.429 . S
C315 C309 1.429 . S
C315 C316 1.523 . S
C316 C297 1.368 . S
C316 C310 1.368 . S
C316 C315 1.523 . S
C317 C301 1.429 . S
C317 C313 1.429 . S
C317 C318 1.523 . S
C318 C302 1.368 . S
C318 C314 1.368 . S
C318 C317 1.523 . S
H319 C294 0.950 . S
H320 C296 0.950 . S
H321 C297 0.949 . S
H322 C299 0.950 . S
H323 C301 0.950 . S
C324 C325 1.349 . S
C324 C326 1.327 . S
C324 H349 0.950 . S
C325 C324 1.349 . S
C325 C341 1.349 . S
C326 C324 1.327 . S
C326 C345 1.429 . S
C326 H350 0.950 . S
C327 C344 1.574 . S
C327 C346 1.368 . S
C327 H351 0.949 . S
H328 C332 0.949 . S
C329 C330 1.349 . S
C329 C331 1.327 . S
C329 H352 0.950 . S
C330 C329 1.349 . S
C330 C342 1.349 . S
C331 C329 1.327 . S
C331 C347 1.429 . S
C331 H353 0.950 . S
C332 H328 0.949 . S
C332 C340 1.574 . S
C332 C348 1.368 . S
H333 C341 0.950 . S
H334 C339 0.950 . S
H335 C340 0.949 . S
H336 C342 0.950 . S
H337 C343 0.950 . S
H338 C344 0.949 . S
C339 H334 0.950 . S
C339 C341 1.327 . S
C339 C345 1.429 . S
C340 C332 1.574 . S
C340 H335 0.949 . S
C340 C346 1.368 . S
C341 C325 1.349 . S
C341 H333 0.950 . S
C341 C339 1.327 . S
C342 C330 1.349 . S
C342 H336 0.950 . S
C342 C343 1.327 . S
C343 H337 0.950 . S
C343 C342 1.327 . S
C343 C347 1.429 . S
C344 C327 1.574 . S
C344 H338 0.949 . S
C344 C348 1.368 . S
C345 C326 1.429 . S
C345 C339 1.429 . S
C345 C346 1.523 . S
C346 C327 1.368 . S
C346 C340 1.368 . S
C346 C345 1.523 . S
C347 C331 1.429 . S
C347 C343 1.429 . S
C347 C348 1.523 . S
C348 C332 1.368 . S
C348 C344 1.368 . S
C348 C347 1.523 . S
H349 C324 0.950 . S
H350 C326 0.950 . S
H351 C327 0.949 . S
H352 C329 0.950 . S
H353 C331 0.950 . S
C354 C355 1.349 . S
C354 C356 1.327 . S
C354 H379 0.950 . S
C355 C354 1.349 . S
C355 C371 1.349 . S
C356 C354 1.327 . S
C356 C375 1.429 . S
C356 H380 0.950 . S
C357 C374 1.574 . S
C357 C376 1.368 . S
C357 H381 0.949 . S
H358 C362 0.949 . S
C359 C360 1.349 . S
C359 C361 1.327 . S
C359 H382 0.950 . S
C360 C359 1.349 . S
C360 C372 1.349 . S
C361 C359 1.327 . S
C361 C377 1.429 . S
C361 H383 0.950 . S
C362 H358 0.949 . S
C362 C370 1.574 . S
C362 C378 1.368 . S
H363 C371 0.950 . S
H364 C369 0.950 . S
H365 C370 0.949 . S
H366 C372 0.950 . S
H367 C373 0.950 . S
H368 C374 0.949 . S
C369 H364 0.950 . S
C369 C371 1.327 . S
C369 C375 1.429 . S
C370 C362 1.574 . S
C370 H365 0.949 . S
C370 C376 1.368 . S
C371 C355 1.349 . S
C371 H363 0.950 . S
C371 C369 1.327 . S
C372 C360 1.349 . S
C372 H366 0.950 . S
C372 C373 1.327 . S
C373 H367 0.950 . S
C373 C372 1.327 . S
C373 C377 1.429 . S
C374 C357 1.574 . S
C374 H368 0.949 . S
C374 C378 1.368 . S
C375 C356 1.429 . S
C375 C369 1.429 . S
C375 C376 1.523 . S
C376 C357 1.368 . S
C376 C370 1.368 . S
C376 C375 1.523 . S
C377 C361 1.429 . S
C377 C373 1.429 . S
C377 C378 1.523 . S
C378 C362 1.368 . S
C378 C374 1.368 . S
C378 C377 1.523 . S
H379 C354 0.950 . S
H380 C356 0.950 . S
H381 C357 0.949 . S
H382 C359 0.950 . S
H383 C361 0.950 . S
C384 C385 1.349 . S
C384 C386 1.327 . S
C384 H409 0.950 . S
C385 C384 1.349 . S
C385 C401 1.349 . S
C386 C384 1.327 . S
C386 C405 1.429 . S
C386 H410 0.950 . S
C387 C404 1.574 . S
C387 C406 1.368 . S
C387 H411 0.949 . S
H388 C392 0.949 . S
C389 C390 1.349 . S
C389 C391 1.327 . S
C389 H412 0.950 . S
C390 C389 1.349 . S
C390 C402 1.349 . S
C391 C389 1.327 . S
C391 C407 1.429 . S
C391 H413 0.950 . S
C392 H388 0.949 . S
C392 C400 1.574 . S
C392 C408 1.368 . S
H393 C401 0.950 . S
H394 C399 0.950 . S
H395 C400 0.949 . S
H396 C402 0.950 . S
H397 C403 0.950 . S
H398 C404 0.949 . S
C399 H394 0.950 . S
C399 C401 1.327 . S
C399 C405 1.429 . S
C400 C392 1.574 . S
C400 H395 0.949 . S
C400 C406 1.368 . S
C401 C385 1.349 . S
C401 H393 0.950 . S
C401 C399 1.327 . S
C402 C390 1.349 . S
C402 H396 0.950 . S
C402 C403 1.327 . S
C403 H397 0.950 . S
C403 C402 1.327 . S
C403 C407 1.429 . S
C404 C387 1.574 . S
C404 H398 0.949 . S
C404 C408 1.368 . S
C405 C386 1.429 . S
C405 C399 1.429 . S
C405 C406 1.523 . S
C406 C387 1.368 . S
C406 C400 1.368 . S
C406 C405 1.523 . S
C407 C391 1.429 . S
C407 C403 1.429 . S
C407 C408 1.523 . S
C408 C392 1.368 . S
C408 C404 1.368 . S
C408 C407 1.523 . S
H409 C384 0.950 . S
H410 C386 0.950 . S
H411 C387 0.949 . S
H412 C389 0.950 . S
H413 C391 0.950 . S
C414 C415 1.349 1_554 S
C414 C416 1.327 . S
C414 H439 0.950 . S
C415 C414 1.349 1_556 S
C415 C431 1.349 . S
C416 C414 1.327 . S
C416 C435 1.429 . S
C416 H440 0.950 . S
C417 C434 1.574 . S
C417 C436 1.368 . S
C417 H441 0.949 1_554 S
H418 C422 0.949 . S
C419 C420 1.349 . S
C419 C421 1.327 . S
C419 H442 0.950 . S
C420 C419 1.349 . S
C420 C432 1.349 . S
C421 C419 1.327 . S
C421 C437 1.429 . S
C421 H443 0.950 . S
C422 H418 0.949 . S
C422 C430 1.574 . S
C422 C438 1.368 . S
H423 C431 0.950 . S
H424 C429 0.950 . S
H425 C430 0.949 . S
H426 C432 0.950 . S
H427 C433 0.950 . S
H428 C434 0.949 . S
C429 H424 0.950 . S
C429 C431 1.327 . S
C429 C435 1.429 1_556 S
C430 C422 1.574 . S
C430 H425 0.949 . S
C430 C436 1.368 . S
C431 C415 1.349 . S
C431 H423 0.950 . S
C431 C429 1.327 . S
C432 C420 1.349 . S
C432 H426 0.950 . S
C432 C433 1.327 . S
C433 H427 0.950 . S
C433 C432 1.327 . S
C433 C437 1.429 . S
C434 C417 1.574 . S
C434 H428 0.949 . S
C434 C438 1.368 . S
C435 C416 1.429 . S
C435 C429 1.429 1_554 S
C435 C436 1.523 . S
C436 C417 1.368 . S
C436 C430 1.368 . S
C436 C435 1.523 . S
C437 C421 1.429 . S
C437 C433 1.429 . S
C437 C438 1.523 . S
C438 C422 1.368 . S
C438 C434 1.368 . S
C438 C437 1.523 . S
H439 C414 0.950 . S
H440 C416 0.950 . S
H441 C417 0.949 1_556 S
H442 C419 0.950 . S
H443 C421 0.950 . S
C444 C445 1.349 . S
C444 C446 1.327 . S
C444 H469 0.950 . S
C445 C444 1.349 . S
C445 C461 1.349 . S
C446 C444 1.327 . S
C446 C465 1.429 . S
C446 H470 0.950 . S
C447 C464 1.574 1_655 S
C447 C466 1.368 . S
C447 H471 0.949 . S
H448 C452 0.949 1_455 S
C449 C450 1.349 . S
C449 C451 1.327 . S
C449 H472 0.950 . S
C450 C449 1.349 . S
C450 C462 1.349 . S
C451 C449 1.327 . S
C451 C467 1.429 . S
C451 H473 0.950 . S
C452 H448 0.949 1_655 S
C452 C460 1.574 . S
C452 C468 1.368 1_655 S
H453 C461 0.950 . S
H454 C459 0.950 . S
H455 C460 0.949 . S
H456 C462 0.950 . S
H457 C463 0.950 . S
H458 C464 0.949 . S
C459 H454 0.950 . S
C459 C461 1.327 . S
C459 C465 1.429 . S
C460 C452 1.574 . S
C460 H455 0.949 . S
C460 C466 1.368 . S
C461 C445 1.349 . S
C461 H453 0.950 . S
C461 C459 1.327 . S
C462 C450 1.349 . S
C462 H456 0.950 . S
C462 C463 1.327 . S
C463 H457 0.950 . S
C463 C462 1.327 . S
C463 C467 1.429 . S
C464 C447 1.574 1_455 S
C464 H458 0.949 . S
C464 C468 1.368 . S
C465 C446 1.429 . S
C465 C459 1.429 . S
C465 C466 1.523 . S
C466 C447 1.368 . S
C466 C460 1.368 . S
C466 C465 1.523 . S
C467 C451 1.429 . S
C467 C463 1.429 . S
C467 C468 1.523 . S
C468 C452 1.368 1_455 S
C468 C464 1.368 . S
C468 C467 1.523 . S
H469 C444 0.950 . S
H470 C446 0.950 . S
H471 C447 0.949 . S
H472 C449 0.950 . S
H473 C451 0.950 . S
C474 C475 1.349 . S
C474 C476 1.327 . S
C474 H499 0.950 . S
C475 C474 1.349 . S
C475 C491 1.349 . S
C476 C474 1.327 . S
C476 C495 1.429 . S
C476 H500 0.950 . S
C477 C494 1.574 1_554 S
C477 C496 1.368 . S
C477 H501 0.949 . S
H478 C482 0.949 . S
C479 C480 1.349 . S
C479 C481 1.327 . S
C479 H502 0.950 . S
C480 C479 1.349 . S
C480 C492 1.349 . S
C481 C479 1.327 . S
C481 C497 1.429 . S
C481 H503 0.950 . S
C482 H478 0.949 . S
C482 C490 1.574 1_556 S
C482 C498 1.368 . S
H483 C491 0.950 . S
H484 C489 0.950 . S
H485 C490 0.949 . S
H486 C492 0.950 . S
H487 C493 0.950 . S
H488 C494 0.949 . S
C489 H484 0.950 . S
C489 C491 1.327 . S
C489 C495 1.429 . S
C490 C482 1.574 1_554 S
C490 H485 0.949 . S
C490 C496 1.368 . S
C491 C475 1.349 . S
C491 H483 0.950 . S
C491 C489 1.327 . S
C492 C480 1.349 . S
C492 H486 0.950 . S
C492 C493 1.327 . S
C493 H487 0.950 . S
C493 C492 1.327 . S
C493 C497 1.429 . S
C494 C477 1.574 1_556 S
C494 H488 0.949 . S
C494 C498 1.368 . S
C495 C476 1.429 . S
C495 C489 1.429 . S
C495 C496 1.523 . S
C496 C477 1.368 . S
C496 C490 1.368 . S
C496 C495 1.523 . S
C497 C481 1.429 . S
C497 C493 1.429 . S
C497 C498 1.523 . S
C498 C482 1.368 . S
C498 C494 1.368 . S
C498 C497 1.523 . S
H499 C474 0.950 . S
H500 C476 0.950 . S
H501 C477 0.949 . S
H502 C479 0.950 . S
H503 C481 0.950 . S
C504 C505 1.349 . S
C504 C506 1.327 . S
C504 H529 0.950 . S
C505 C504 1.349 . S
C505 C521 1.349 . S
C506 C504 1.327 . S
C506 C525 1.429 . S
C506 H530 0.950 . S
C507 C524 1.574 . S
C507 C526 1.368 1_565 S
C507 H531 0.949 . S
H508 C512 0.949 . S
C509 C510 1.349 . S
C509 C511 1.327 . S
C509 H532 0.950 . S
C510 C509 1.349 . S
C510 C522 1.349 . S
C511 C509 1.327 . S
C511 C527 1.429 . S
C511 H533 0.950 . S
C512 H508 0.949 . S
C512 C520 1.574 1_565 S
C512 C528 1.368 . S
H513 C521 0.950 . S
H514 C519 0.950 . S
H515 C520 0.949 . S
H516 C522 0.950 . S
H517 C523 0.950 . S
H518 C524 0.949 . S
C519 H514 0.950 . S
C519 C521 1.327 . S
C519 C525 1.429 . S
C520 C512 1.574 1_545 S
C520 H515 0.949 . S
C520 C526 1.368 . S
C521 C505 1.349 . S
C521 H513 0.950 . S
C521 C519 1.327 . S
C522 C510 1.349 . S
C522 H516 0.950 . S
C522 C523 1.327 . S
C523 H517 0.950 . S
C523 C522 1.327 . S
C523 C527 1.429 . S
C524 C507 1.574 . S
C524 H518 0.949 . S
C524 C528 1.368 . S
C525 C506 1.429 . S
C525 C519 1.429 . S
C525 C526 1.523 . S
C526 C507 1.368 1_545 S
C526 C520 1.368 . S
C526 C525 1.523 . S
C527 C511 1.429 . S
C527 C523 1.429 . S
C527 C528 1.523 . S
C528 C512 1.368 . S
C528 C524 1.368 . S
C528 C527 1.523 . S
H529 C504 0.950 . S
H530 C506 0.950 . S
H531 C507 0.949 . S
H532 C509 0.950 . S
H533 C511 0.950 . S
C534 C535 1.349 . S
C534 C536 1.327 . S
C534 H559 0.950 . S
C535 C534 1.349 . S
C535 C551 1.349 1_554 S
C536 C534 1.327 . S
C536 C555 1.429 . S
C536 H560 0.950 . S
C537 C554 1.574 . S
C537 C556 1.368 1_556 S
C537 H561 0.949 . S
H538 C542 0.949 . S
C539 C540 1.349 . S
C539 C541 1.327 . S
C539 H562 0.950 . S
C540 C539 1.349 . S
C540 C552 1.349 1_556 S
C541 C539 1.327 . S
C541 C557 1.429 . S
C541 H563 0.950 . S
C542 H538 0.949 . S
C542 C550 1.574 . S
C542 C558 1.368 1_554 S
H543 C551 0.950 . S
H544 C549 0.950 . S
H545 C550 0.949 . S
H546 C552 0.950 . S
H547 C553 0.950 . S
H548 C554 0.949 . S
C549 H544 0.950 . S
C549 C551 1.327 . S
C549 C555 1.429 1_556 S
C550 C542 1.574 . S
C550 H545 0.949 . S
C550 C556 1.368 . S
C551 C535 1.349 1_556 S
C551 H543 0.950 . S
C551 C549 1.327 . S
C552 C540 1.349 1_554 S
C552 H546 0.950 . S
C552 C553 1.327 . S
C553 H547 0.950 . S
C553 C552 1.327 . S
C553 C557 1.429 1_554 S
C554 C537 1.574 . S
C554 H548 0.949 . S
C554 C558 1.368 . S
C555 C536 1.429 . S
C555 C549 1.429 1_554 S
C555 C556 1.523 . S
C556 C537 1.368 1_554 S
C556 C550 1.368 . S
C556 C555 1.523 . S
C557 C541 1.429 . S
C557 C553 1.429 1_556 S
C557 C558 1.523 . S
C558 C542 1.368 1_556 S
C558 C554 1.368 . S
C558 C557 1.523 . S
H559 C534 0.950 . S
H560 C536 0.950 . S
H561 C537 0.949 . S
H562 C539 0.950 . S
H563 C541 0.950 . S
C564 C565 1.349 . S
C564 C566 1.327 . S
C564 H589 0.950 . S
C565 C564 1.349 . S
C565 C581 1.349 . S
C566 C564 1.327 . S
C566 C585 1.429 . S
C566 H590 0.950 . S
C567 C584 1.574 1_565 S
C567 C586 1.368 . S
C567 H591 0.949 . S
H568 C572 0.949 . S
C569 C570 1.349 . S
C569 C571 1.327 . S
C569 H592 0.950 . S
C570 C569 1.349 . S
C570 C582 1.349 . S
C571 C569 1.327 . S
C571 C587 1.429 . S
C571 H593 0.950 . S
C572 H568 0.949 . S
C572 C580 1.574 1_545 S
C572 C588 1.368 . S
H573 C581 0.950 . S
H574 C579 0.950 . S
H575 C580 0.949 . S
H576 C582 0.950 . S
H577 C583 0.950 . S
H578 C584 0.949 . S
C579 H574 0.950 . S
C579 C581 1.327 . S
C579 C585 1.429 . S
C580 C572 1.574 1_565 S
C580 H575 0.949 . S
C580 C586 1.368 . S
C581 C565 1.349 . S
C581 H573 0.950 . S
C581 C579 1.327 . S
C582 C570 1.349 . S
C582 H576 0.950 . S
C582 C583 1.327 . S
C583 H577 0.950 . S
C583 C582 1.327 . S
C583 C587 1.429 . S
C584 C567 1.574 1_545 S
C584 H578 0.949 . S
C584 C588 1.368 . S
C585 C566 1.429 . S
C585 C579 1.429 . S
C585 C586 1.523 . S
C586 C567 1.368 . S
C586 C580 1.368 . S
C586 C585 1.523 . S
C587 C571 1.429 . S
C587 C583 1.429 . S
C587 C588 1.523 . S
C588 C572 1.368 . S
C588 C584 1.368 . S
C588 C587 1.523 . S
H589 C564 0.950 . S
H590 C566 0.950 . S
H591 C567 0.949 . S
H592 C569 0.950 . S
H593 C571 0.950 . S
C594 C595 1.349 . S
C594 C596 1.327 . S
C594 H619 0.950 . S
C595 C594 1.349 . S
C595 C611 1.349 . S
C596 C594 1.327 . S
C596 C615 1.429 . S
C596 H620 0.950 . S
C597 C614 1.574 1_655 S
C597 C616 1.368 . S
C597 H621 0.949 . S
H598 C602 0.949 . S
C599 C600 1.349 . S
C599 C601 1.327 . S
C599 H622 0.950 . S
C600 C599 1.349 . S
C600 C612 1.349 . S
C601 C599 1.327 . S
C601 C617 1.429 . S
C601 H623 0.950 . S
C602 H598 0.949 . S
C602 C610 1.574 1_455 S
C602 C618 1.368 . S
H603 C611 0.950 . S
H604 C609 0.950 . S
H605 C610 0.949 . S
H606 C612 0.950 . S
H607 C613 0.950 . S
H608 C614 0.949 . S
C609 H604 0.950 . S
C609 C611 1.327 . S
C609 C615 1.429 . S
C610 C602 1.574 1_655 S
C610 H605 0.949 . S
C610 C616 1.368 . S
C611 C595 1.349 . S
C611 H603 0.950 . S
C611 C609 1.327 . S
C612 C600 1.349 . S
C612 H606 0.950 . S
C612 C613 1.327 . S
C613 H607 0.950 . S
C613 C612 1.327 . S
C613 C617 1.429 . S
C614 C597 1.574 1_455 S
C614 H608 0.949 . S
C614 C618 1.368 . S
C615 C596 1.429 . S
C615 C609 1.429 . S
C615 C616 1.523 . S
C616 C597 1.368 . S
C616 C610 1.368 . S
C616 C615 1.523 . S
C617 C601 1.429 . S
C617 C613 1.429 . S
C617 C618 1.523 . S
C618 C602 1.368 . S
C618 C614 1.368 . S
C618 C617 1.523 . S
H619 C594 0.950 . S
H620 C596 0.950 . S
H621 C597 0.949 . S
H622 C599 0.950 . S
H623 C601 0.950 . S
C624 C625 1.349 . S
C624 C626 1.327 . S
C624 H649 0.950 . S
C625 C624 1.349 . S
C625 C641 1.349 . S
C626 C624 1.327 . S
C626 C645 1.429 . S
C626 H650 0.950 . S
C627 C644 1.574 . S
C627 C646 1.368 . S
C627 H651 0.949 . S
H628 C632 0.949 . S
C629 C630 1.349 . S
C629 C631 1.327 . S
C629 H652 0.950 . S
C630 C629 1.349 . S
C630 C642 1.349 . S
C631 C629 1.327 . S
C631 C647 1.429 . S
C631 H653 0.950 . S
C632 H628 0.949 . S
C632 C640 1.574 . S
C632 C648 1.368 . S
H633 C641 0.950 . S
H634 C639 0.950 . S
H635 C640 0.949 . S
H636 C642 0.950 . S
H637 C643 0.950 . S
H638 C644 0.949 . S
C639 H634 0.950 . S
C639 C641 1.327 . S
C639 C645 1.429 . S
C640 C632 1.574 . S
C640 H635 0.949 . S
C640 C646 1.368 . S
C641 C625 1.349 . S
C641 H633 0.950 . S
C641 C639 1.327 . S
C642 C630 1.349 . S
C642 H636 0.950 . S
C642 C643 1.327 . S
C643 H637 0.950 . S
C643 C642 1.327 . S
C643 C647 1.429 . S
C644 C627 1.574 . S
C644 H638 0.949 . S
C644 C648 1.368 . S
C645 C626 1.429 . S
C645 C639 1.429 . S
C645 C646 1.523 . S
C646 C627 1.368 . S
C646 C640 1.368 . S
C646 C645 1.523 . S
C647 C631 1.429 . S
C647 C643 1.429 . S
C647 C648 1.523 . S
C648 C632 1.368 . S
C648 C644 1.368 . S
C648 C647 1.523 . S
H649 C624 0.950 . S
H650 C626 0.950 . S
H651 C627 0.949 . S
H652 C629 0.950 . S
H653 C631 0.950 . S
C654 C655 1.349 . S
C654 C656 1.327 . S
C654 H679 0.950 . S
C655 C654 1.349 . S
C655 C671 1.349 . S
C656 C654 1.327 . S
C656 C675 1.429 . S
C656 H680 0.950 . S
C657 C674 1.574 . S
C657 C676 1.368 . S
C657 H681 0.949 . S
H658 C662 0.949 . S
C659 C660 1.349 . S
C659 C661 1.327 . S
C659 H682 0.950 . S
C660 C659 1.349 . S
C660 C672 1.349 . S
C661 C659 1.327 . S
C661 C677 1.429 . S
C661 H683 0.950 . S
C662 H658 0.949 . S
C662 C670 1.574 . S
C662 C678 1.368 . S
H663 C671 0.950 . S
H664 C669 0.950 . S
H665 C670 0.949 . S
H666 C672 0.950 . S
H667 C673 0.950 . S
H668 C674 0.949 . S
C669 H664 0.950 . S
C669 C671 1.327 . S
C669 C675 1.429 . S
C670 C662 1.574 . S
C670 H665 0.949 . S
C670 C676 1.368 . S
C671 C655 1.349 . S
C671 H663 0.950 . S
C671 C669 1.327 . S
C672 C660 1.349 . S
C672 H666 0.950 . S
C672 C673 1.327 . S
C673 H667 0.950 . S
C673 C672 1.327 . S
C673 C677 1.429 . S
C674 C657 1.574 . S
C674 H668 0.949 . S
C674 C678 1.368 . S
C675 C656 1.429 . S
C675 C669 1.429 . S
C675 C676 1.523 . S
C676 C657 1.368 . S
C676 C670 1.368 . S
C676 C675 1.523 . S
C677 C661 1.429 . S
C677 C673 1.429 . S
C677 C678 1.523 . S
C678 C662 1.368 . S
C678 C674 1.368 . S
C678 C677 1.523 . S
H679 C654 0.950 . S
H680 C656 0.950 . S
H681 C657 0.949 . S
H682 C659 0.950 . S
H683 C661 0.950 . S
C684 C685 1.349 . S
C684 C686 1.327 . S
C684 H709 0.950 . S
C685 C684 1.349 . S
C685 C701 1.349 . S
C686 C684 1.327 . S
C686 C705 1.429 . S
C686 H710 0.950 . S
C687 C704 1.574 . S
C687 C706 1.368 . S
C687 H711 0.949 . S
H688 C692 0.949 . S
C689 C690 1.349 . S
C689 C691 1.327 . S
C689 H712 0.950 . S
C690 C689 1.349 . S
C690 C702 1.349 . S
C691 C689 1.327 . S
C691 C707 1.429 . S
C691 H713 0.950 . S
C692 H688 0.949 . S
C692 C700 1.574 . S
C692 C708 1.368 . S
H693 C701 0.950 . S
H694 C699 0.950 . S
H695 C700 0.949 . S
H696 C702 0.950 . S
H697 C703 0.950 . S
H698 C704 0.949 . S
C699 H694 0.950 . S
C699 C701 1.327 . S
C699 C705 1.429 . S
C700 C692 1.574 . S
C700 H695 0.949 . S
C700 C706 1.368 . S
C701 C685 1.349 . S
C701 H693 0.950 . S
C701 C699 1.327 . S
C702 C690 1.349 . S
C702 H696 0.950 . S
C702 C703 1.327 . S
C703 H697 0.950 . S
C703 C702 1.327 . S
C703 C707 1.429 . S
C704 C687 1.574 . S
C704 H698 0.949 . S
C704 C708 1.368 . S
C705 C686 1.429 . S
C705 C699 1.429 . S
C705 C706 1.523 . S
C706 C687 1.368 . S
C706 C700 1.368 . S
C706 C705 1.523 . S
C707 C691 1.429 . S
C707 C703 1.429 . S
C707 C708 1.523 1_554 S
C708 C692 1.368 . S
C708 C704 1.368 . S
C708 C707 1.523 1_556 S
H709 C684 0.950 . S
H710 C686 0.950 . S
H711 C687 0.949 . S
H712 C689 0.950 . S
H713 C691 0.950 . S
C714 C715 1.349 . S
C714 C716 1.327 . S
C714 H739 0.950 . S
C715 C714 1.349 . S
C715 C731 1.349 . S
C716 C714 1.327 . S
C716 C735 1.429 . S
C716 H740 0.950 . S
C717 C734 1.574 . S
C717 C736 1.368 . S
C717 H741 0.949 . S
H718 C722 0.949 . S
C719 C720 1.349 . S
C719 C721 1.327 . S
C719 H742 0.950 . S
C720 C719 1.349 . S
C720 C732 1.349 . S
C721 C719 1.327 . S
C721 C737 1.429 . S
C721 H743 0.950 . S
C722 H718 0.949 . S
C722 C730 1.574 . S
C722 C738 1.368 . S
H723 C731 0.950 . S
H724 C729 0.950 . S
H725 C730 0.949 . S
H726 C732 0.950 . S
H727 C733 0.950 . S
H728 C734 0.949 . S
C729 H724 0.950 . S
C729 C731 1.327 . S
C729 C735 1.429 . S
C730 C722 1.574 . S
C730 H725 0.949 . S
C730 C736 1.368 . S
C731 C715 1.349 . S
C731 H723 0.950 . S
C731 C729 1.327 . S
C732 C720 1.349 . S
C732 H726 0.950 . S
C732 C733 1.327 . S
C733 H727 0.950 . S
C733 C732 1.327 . S
C733 C737 1.429 . S
C734 C717 1.574 . S
C734 H728 0.949 . S
C734 C738 1.368 . S
C735 C716 1.429 . S
C735 C729 1.429 . S
C735 C736 1.523 . S
C736 C717 1.368 . S
C736 C730 1.368 . S
C736 C735 1.523 . S
C737 C721 1.429 . S
C737 C733 1.429 . S
C737 C738 1.523 . S
C738 C722 1.368 . S
C738 C734 1.368 . S
C738 C737 1.523 . S
H739 C714 0.950 . S
H740 C716 0.950 . S
H741 C717 0.949 . S
H742 C719 0.950 . S
H743 C721 0.950 . S
C744 C745 1.349 . S
C744 C746 1.327 . S
C744 H769 0.950 . S
C745 C744 1.349 . S
C745 C761 1.349 . S
C746 C744 1.327 . S
C746 C765 1.429 . S
C746 H770 0.950 . S
C747 C764 1.574 . S
C747 C766 1.368 . S
C747 H771 0.949 . S
H748 C752 0.949 . S
C749 C750 1.349 . S
C749 C751 1.327 . S
C749 H772 0.950 . S
C750 C749 1.349 . S
C750 C762 1.349 . S
C751 C749 1.327 . S
C751 C767 1.429 . S
C751 H773 0.950 . S
C752 H748 0.949 . S
C752 C760 1.574 . S
C752 C768 1.368 . S
H753 C761 0.950 . S
H754 C759 0.950 . S
H755 C760 0.949 . S
H756 C762 0.950 . S
H757 C763 0.950 . S
H758 C764 0.949 . S
C759 H754 0.950 . S
C759 C761 1.327 . S
C759 C765 1.429 . S
C760 C752 1.574 . S
C760 H755 0.949 . S
C760 C766 1.368 . S
C761 C745 1.349 . S
C761 H753 0.950 . S
C761 C759 1.327 . S
C762 C750 1.349 . S
C762 H756 0.950 . S
C762 C763 1.327 . S
C763 H757 0.950 . S
C763 C762 1.327 . S
C763 C767 1.429 . S
C764 C747 1.574 . S
C764 H758 0.949 . S
C764 C768 1.368 . S
C765 C746 1.429 . S
C765 C759 1.429 . S
C765 C766 1.523 . S
C766 C747 1.368 . S
C766 C760 1.368 . S
C766 C765 1.523 . S
C767 C751 1.429 . S
C767 C763 1.429 . S
C767 C768 1.523 1_556 S
C768 C752 1.368 . S
C768 C764 1.368 . S
C768 C767 1.523 1_554 S
H769 C744 0.950 . S
H770 C746 0.950 . S
H771 C747 0.949 . S
H772 C749 0.950 . S
H773 C751 0.950 . S
C774 C775 1.349 . S
C774 C776 1.327 . S
C774 H799 0.950 . S
C775 C774 1.349 . S
C775 C791 1.349 . S
C776 C774 1.327 . S
C776 C795 1.429 . S
C776 H800 0.950 . S
C777 C794 1.574 . S
C777 C796 1.368 . S
C777 H801 0.949 . S
H778 C782 0.949 . S
C779 C780 1.349 . S
C779 C781 1.327 . S
C779 H802 0.950 . S
C780 C779 1.349 . S
C780 C792 1.349 . S
C781 C779 1.327 . S
C781 C797 1.429 . S
C781 H803 0.950 . S
C782 H778 0.949 . S
C782 C790 1.574 . S
C782 C798 1.368 . S
H783 C791 0.950 . S
H784 C789 0.950 . S
H785 C790 0.949 . S
H786 C792 0.950 . S
H787 C793 0.950 . S
H788 C794 0.949 . S
C789 H784 0.950 . S
C789 C791 1.327 . S
C789 C795 1.429 . S
C790 C782 1.574 . S
C790 H785 0.949 . S
C790 C796 1.368 . S
C791 C775 1.349 . S
C791 H783 0.950 . S
C791 C789 1.327 . S
C792 C780 1.349 . S
C792 H786 0.950 . S
C792 C793 1.327 . S
C793 H787 0.950 . S
C793 C792 1.327 . S
C793 C797 1.429 . S
C794 C777 1.574 . S
C794 H788 0.949 . S
C794 C798 1.368 . S
C795 C776 1.429 . S
C795 C789 1.429 . S
C795 C796 1.523 . S
C796 C777 1.368 . S
C796 C790 1.368 . S
C796 C795 1.523 . S
C797 C781 1.429 . S
C797 C793 1.429 . S
C797 C798 1.523 . S
C798 C782 1.368 . S
C798 C794 1.368 . S
C798 C797 1.523 . S
H799 C774 0.950 . S
H800 C776 0.950 . S
H801 C777 0.949 . S
H802 C779 0.950 . S
H803 C781 0.950 . S
C175 C13 2.472 1_556 S
C180 C129 2.472 . S
C205 C158 2.472 . S
C210 C42 2.472 . S
C235 C71 2.472 . S
C240 C100 2.472 1_554 S
C265 C10 1.803 . S
C270 C79 1.585 . S
C295 C21 1.584 . S
C300 C39 1.803 . S
C325 C50 1.584 . S
C330 C68 1.803 . S
C355 C97 1.803 . S
C360 C137 1.585 . S
C385 C126 1.803 . S
C390 C166 1.584 . S
C415 C108 1.584 . S
C420 C155 1.803 . S
C445 C131 1.404 . S
C450 C15 1.404 . S
C475 C160 1.404 . S
C480 C44 1.404 . S
C505 C102 1.404 . S
C510 C73 1.404 . S
C535 C5 2.873 . S
C540 C92 2.873 . S
C565 C34 2.873 . S
C570 C121 2.873 . S
C595 C150 2.873 . S
C600 C63 2.873 . S
C625 C8 0.970 . S
C630 C3 0.970 . S
C655 C32 0.970 . S
C660 C37 0.970 1_554 S
C685 C66 0.970 . S
C690 C61 0.970 . S
C715 C95 0.970 . S
C720 C90 0.970 . S
C745 C124 0.970 . S
C750 C119 0.970 . S
C775 C148 0.970 . S
C780 C153 0.970 1_556 S
