# Generated by pormake.
# Topology gsi, (4)-cn, num edge types: 1
# Building blocks:
#     Node 0, Type 0, BuildingBlock: ICAMEG_clean_sbu_1, # of connection points: 4
#     Node 1, Type 0, BuildingBlock: ICAMEG_clean_sbu_1, # of connection points: 4
#     Node 2, Type 0, BuildingBlock: ICAMEG_clean_sbu_1, # of connection points: 4
#     Node 3, Type 0, BuildingBlock: ICAMEG_clean_sbu_1, # of connection points: 4
#     Node 4, Type 0, BuildingBlock: ICAMEG_clean_sbu_1, # of connection points: 4
#     Node 5, Type 0, BuildingBlock: ICAMEG_clean_sbu_1, # of connection points: 4
#     Node 6, Type 0, BuildingBlock: ICAMEG_clean_sbu_1, # of connection points: 4
#     Node 7, Type 0, BuildingBlock: ICAMEG_clean_sbu_1, # of connection points: 4
#     Node 8, Type 0, BuildingBlock: ICAMEG_clean_sbu_1, # of connection points: 4
#     Node 9, Type 0, BuildingBlock: ICAMEG_clean_sbu_1, # of connection points: 4
#     Node 10, Type 0, BuildingBlock: ICAMEG_clean_sbu_1, # of connection points: 4
#     Node 11, Type 0, BuildingBlock: ICAMEG_clean_sbu_1, # of connection points: 4
#     Node 12, Type 0, BuildingBlock: ICAMEG_clean_sbu_1, # of connection points: 4
#     Node 13, Type 0, BuildingBlock: ICAMEG_clean_sbu_1, # of connection points: 4
#     Node 14, Type 0, BuildingBlock: ICAMEG_clean_sbu_1, # of connection points: 4
#     Node 15, Type 0, BuildingBlock: ICAMEG_clean_sbu_1, # of connection points: 4
#     Edge 16, Type (0, 0), BuildingBlock: ZUJKAS_clean_linker_0, # of connection points: 2
#     Edge 17, Type (0, 0), BuildingBlock: ZUJKAS_clean_linker_0, # of connection points: 2
#     Edge 18, Type (0, 0), BuildingBlock: ZUJKAS_clean_linker_0, # of connection points: 2
#     Edge 19, Type (0, 0), BuildingBlock: ZUJKAS_clean_linker_0, # of connection points: 2
#     Edge 20, Type (0, 0), BuildingBlock: ZUJKAS_clean_linker_0, # of connection points: 2
#     Edge 21, Type (0, 0), BuildingBlock: ZUJKAS_clean_linker_0, # of connection points: 2
#     Edge 22, Type (0, 0), BuildingBlock: ZUJKAS_clean_linker_0, # of connection points: 2
#     Edge 23, Type (0, 0), BuildingBlock: ZUJKAS_clean_linker_0, # of connection points: 2
#     Edge 24, Type (0, 0), BuildingBlock: ZUJKAS_clean_linker_0, # of connection points: 2
#     Edge 25, Type (0, 0), BuildingBlock: ZUJKAS_clean_linker_0, # of connection points: 2
#     Edge 26, Type (0, 0), BuildingBlock: ZUJKAS_clean_linker_0, # of connection points: 2
#     Edge 27, Type (0, 0), BuildingBlock: ZUJKAS_clean_linker_0, # of connection points: 2
#     Edge 28, Type (0, 0), BuildingBlock: ZUJKAS_clean_linker_0, # of connection points: 2
#     Edge 29, Type (0, 0), BuildingBlock: ZUJKAS_clean_linker_0, # of connection points: 2
#     Edge 30, Type (0, 0), BuildingBlock: ZUJKAS_clean_linker_0, # of connection points: 2
#     Edge 31, Type (0, 0), BuildingBlock: ZUJKAS_clean_linker_0, # of connection points: 2
#     Edge 32, Type (0, 0), BuildingBlock: ZUJKAS_clean_linker_0, # of connection points: 2
#     Edge 33, Type (0, 0), BuildingBlock: ZUJKAS_clean_linker_0, # of connection points: 2
#     Edge 34, Type (0, 0), BuildingBlock: ZUJKAS_clean_linker_0, # of connection points: 2
#     Edge 35, Type (0, 0), BuildingBlock: ZUJKAS_clean_linker_0, # of connection points: 2
#     Edge 36, Type (0, 0), BuildingBlock: ZUJKAS_clean_linker_0, # of connection points: 2
#     Edge 37, Type (0, 0), BuildingBlock: ZUJKAS_clean_linker_0, # of connection points: 2
#     Edge 38, Type (0, 0), BuildingBlock: ZUJKAS_clean_linker_0, # of connection points: 2
#     Edge 39, Type (0, 0), BuildingBlock: ZUJKAS_clean_linker_0, # of connection points: 2
#     Edge 40, Type (0, 0), BuildingBlock: ZUJKAS_clean_linker_0, # of connection points: 2
#     Edge 41, Type (0, 0), BuildingBlock: ZUJKAS_clean_linker_0, # of connection points: 2
#     Edge 42, Type (0, 0), BuildingBlock: ZUJKAS_clean_linker_0, # of connection points: 2
#     Edge 43, Type (0, 0), BuildingBlock: ZUJKAS_clean_linker_0, # of connection points: 2
#     Edge 44, Type (0, 0), BuildingBlock: ZUJKAS_clean_linker_0, # of connection points: 2
#     Edge 45, Type (0, 0), BuildingBlock: ZUJKAS_clean_linker_0, # of connection points: 2
#     Edge 46, Type (0, 0), BuildingBlock: ZUJKAS_clean_linker_0, # of connection points: 2
#     Edge 47, Type (0, 0), BuildingBlock: ZUJKAS_clean_linker_0, # of connection points: 2
# Relax obj value: 0.184
# Max RMSD: 0.228
# Mean RMSD: 0.182
data_MOF--net-gsi--node1-ICAMEG_clean_sbu_1--edge1-ZUJKAS_clean_linker_0
_symmetry_space_group_name_H-M    P1
_symmetry_Int_Tables_number       1
_symmetry_cell_setting            triclinic
loop_
_symmetry_equiv_pos_as_xyz
'x, y, z'
_cell_length_a     46.651567
_cell_length_b     60.959592
_cell_length_c     60.965939
_cell_angle_alpha  90.056706
_cell_angle_beta   90.051855
_cell_angle_gamma 99.340027
loop_
_atom_site_label
_atom_site_type_symbol
_atom_site_fract_x
_atom_site_fract_y
_atom_site_fract_z
_atom_type_partial_charge
Co0 Co 0.13605 0.15461 0.16908 0.0
Co1 Co 0.17873 0.18111 0.12788 0.0
O2 O 0.16169 0.15382 0.14352 0.0
C3 C 0.17807 0.12554 0.18449 0.0
O4 O 0.19922 0.13824 0.1742 0.0
C5 C 0.16559 0.14581 0.0922 0.0
O6 O 0.15225 0.13099 0.1059 0.0
O7 O 0.13929 0.18912 0.12343 0.0
O8 O 0.11836 0.17942 0.15581 0.0
H9 H 0.19057 0.2628 0.11128 0.0
H10 H 0.13652 0.11141 0.14698 0.0
O11 O 0.1522 0.12967 0.18354 0.0
H12 H 0.03545 0.12504 0.14117 0.0
H13 H 0.06884 0.1211 0.22917 0.0
H14 H 0.11848 0.19073 0.19594 0.0
H15 H 0.07252 0.15188 0.16009 0.0
H16 H 0.10026 0.12016 0.19679 0.0
O17 O 0.17555 0.16546 0.09868 0.0
H18 H 0.17055 0.22824 0.1307 0.0
H19 H 0.22188 0.19186 0.09162 0.0
H20 H 0.08706 0.19243 0.22821 0.0
H21 H 0.10004 0.08394 0.12815 0.0
H22 H 0.06198 0.15743 0.24504 0.0
H23 H 0.0491 0.09072 0.12509 0.0
O24 O 0.1662 0.17635 0.18403 0.0
H25 H 0.25272 0.12937 0.12895 0.0
H26 H 0.23597 0.20596 0.14253 0.0
H27 H 0.28463 0.19646 0.1488 0.0
H28 H 0.29335 0.15793 0.14186 0.0
H29 H 0.20434 0.13946 0.12337 0.0
H30 H 0.24221 0.22599 0.07166 0.0
H31 H 0.22666 0.26182 0.08152 0.0
O32 O 0.18354 0.19831 0.15603 0.0
C33 C 0.11904 0.18949 0.13742 0.0
C34 C 0.19758 0.24731 0.10688 0.0
C35 C 0.22653 0.22664 0.08461 0.0
N36 N 0.19515 0.20806 0.11241 0.0
C37 C 0.18637 0.22769 0.11785 0.0
C38 C 0.21486 0.20735 0.09594 0.0
C39 C 0.21781 0.24674 0.09017 0.0
C40 C 0.11437 0.11441 0.14581 0.0
N41 N 0.10673 0.13328 0.15453 0.0
C42 C 0.09382 0.09883 0.13509 0.0
C43 C 0.06525 0.10266 0.13335 0.0
C44 C 0.05759 0.12192 0.14234 0.0
C45 C 0.07873 0.13713 0.15294 0.0
C46 C 0.0796 0.13646 0.22195 0.0
C47 C 0.10751 0.17543 0.2031 0.0
C48 C 0.09747 0.13604 0.20364 0.0
N49 N 0.11102 0.15539 0.19438 0.0
C50 C 0.08981 0.1765 0.2214 0.0
C51 C 0.07576 0.15685 0.23085 0.0
C52 C 0.18125 0.19405 0.17649 0.0
C53 C 0.24926 0.14625 0.13188 0.0
C54 C 0.23946 0.18914 0.13958 0.0
C55 C 0.26713 0.18387 0.14309 0.0
C56 C 0.27202 0.16227 0.13918 0.0
N57 N 0.21722 0.17339 0.13228 0.0
C58 C 0.22187 0.15214 0.12854 0.0
Co59 Co 0.87146 0.35366 0.16439 0.0
Co60 Co 0.82623 0.32226 0.1283 0.0
O61 O 0.84283 0.35126 0.14063 0.0
C62 C 0.82972 0.38204 0.18154 0.0
O63 O 0.80812 0.36596 0.17721 0.0
C64 C 0.83954 0.34974 0.08727 0.0
O65 O 0.86617 0.35707 0.09389 0.0
O66 O 0.86604 0.31625 0.12106 0.0
O67 O 0.88882 0.32808 0.15231 0.0
H68 H 0.82025 0.24006 0.1164 0.0
H69 H 0.86566 0.39313 0.13755 0.0
O70 O 0.85572 0.37968 0.17708 0.0
H71 H 0.96757 0.38251 0.12868 0.0
H72 H 0.94412 0.3948 0.21726 0.0
H73 H 0.89403 0.32121 0.19317 0.0
H74 H 0.93419 0.35741 0.15231 0.0
H75 H 0.90885 0.39152 0.18681 0.0
O76 O 0.82247 0.33614 0.09896 0.0
H77 H 0.83996 0.27662 0.13228 0.0
H78 H 0.77787 0.3065 0.097 0.0
H79 H 0.92935 0.32371 0.22357 0.0
H80 H 0.89839 0.41878 0.11391 0.0
H81 H 0.95466 0.36072 0.2358 0.0
H82 H 0.94974 0.41351 0.10932 0.0
O83 O 0.84395 0.33284 0.18273 0.0
H84 H 0.7478 0.36966 0.13265 0.0
H85 H 0.77365 0.29628 0.1496 0.0
H86 H 0.72533 0.30424 0.15993 0.0
H87 H 0.71208 0.34116 0.1514 0.0
H88 H 0.79605 0.36108 0.12288 0.0
H89 H 0.75765 0.2703 0.08061 0.0
H90 H 0.77878 0.23673 0.09036 0.0
O91 O 0.82805 0.30724 0.15731 0.0
C92 C 0.88744 0.31717 0.13432 0.0
C93 C 0.81081 0.25456 0.11205 0.0
C94 C 0.77571 0.27153 0.09194 0.0
N95 N 0.81003 0.29368 0.11566 0.0
C96 C 0.82185 0.2753 0.12102 0.0
C97 C 0.78732 0.29201 0.10123 0.0
C98 C 0.78757 0.2527 0.09743 0.0
C99 C 0.88803 0.39083 0.13575 0.0
N100 N 0.89801 0.37382 0.14634 0.0
C101 C 0.90644 0.40536 0.12229 0.0
C102 C 0.93523 0.40238 0.1197 0.0
C103 C 0.94525 0.38498 0.13055 0.0
C104 C 0.92621 0.37077 0.14385 0.0
C105 C 0.93325 0.37858 0.21207 0.0
C106 C 0.90506 0.33736 0.19834 0.0
C107 C 0.91319 0.37662 0.19488 0.0
N108 N 0.8995 0.35618 0.18815 0.0
C109 C 0.92499 0.33868 0.21559 0.0
C110 C 0.93917 0.35945 0.22246 0.0
C111 C 0.83063 0.31366 0.17723 0.0
C112 C 0.75329 0.35351 0.13645 0.0
C113 C 0.76818 0.31243 0.14601 0.0
C114 C 0.74071 0.31681 0.1518 0.0
C115 C 0.73328 0.33752 0.14699 0.0
N116 N 0.78773 0.3282 0.13571 0.0
C117 C 0.78056 0.34852 0.1309 0.0
Co118 Co 0.14193 0.88245 0.31471 0.0
Co119 Co 0.18526 0.84991 0.33964 0.0
O120 O 0.17532 0.87958 0.3336 0.0
C121 C 0.1866 0.92352 0.30397 0.0
O122 O 0.20582 0.91847 0.31801 0.0
C123 C 0.19098 0.8707 0.38447 0.0
O124 O 0.16629 0.87809 0.38177 0.0
O125 O 0.14599 0.84016 0.35234 0.0
O126 O 0.11998 0.85356 0.32615 0.0
H127 H 0.16664 0.76633 0.34057 0.0
H128 H 0.16501 0.91872 0.34598 0.0
O129 O 0.16184 0.91133 0.30185 0.0
H130 H 0.06159 0.89749 0.36483 0.0
H131 H 0.06931 0.92281 0.27744 0.0
H132 H 0.10337 0.85087 0.2864 0.0
H133 H 0.08302 0.87869 0.33466 0.0
H134 H 0.11051 0.91949 0.30192 0.0
O135 O 0.2011 0.85996 0.36919 0.0
H136 H 0.1551 0.80361 0.33291 0.0
H137 H 0.23608 0.83346 0.35992 0.0
H138 H 0.06189 0.85339 0.26194 0.0
H139 H 0.14443 0.93812 0.37606 0.0
H140 H 0.04461 0.88957 0.25733 0.0
H141 H 0.09232 0.92753 0.38572 0.0
O142 O 0.15936 0.8668 0.29075 0.0
H143 H 0.27873 0.9026 0.32868 0.0
H144 H 0.22167 0.83065 0.30669 0.0
H145 H 0.26935 0.84319 0.28963 0.0
H146 H 0.2983 0.8794 0.30065 0.0
H147 H 0.23068 0.88953 0.34512 0.0
H148 H 0.24836 0.79648 0.36807 0.0
H149 H 0.21357 0.76257 0.35827 0.0
O150 O 0.17045 0.83834 0.3103 0.0
C151 C 0.12209 0.8405 0.34225 0.0
C152 C 0.18199 0.78098 0.3449 0.0
C153 C 0.22783 0.7979 0.36036 0.0
N154 N 0.19489 0.82074 0.34594 0.0
C155 C 0.17559 0.80215 0.34058 0.0
C156 C 0.2207 0.8188 0.35579 0.0
C157 C 0.20831 0.77888 0.35484 0.0
C158 C 0.14228 0.91424 0.34975 0.0
N159 N 0.12521 0.89787 0.3382 0.0
C160 C 0.13075 0.92518 0.36696 0.0
C161 C 0.10153 0.9192 0.37241 0.0
C162 C 0.08429 0.90236 0.3607 0.0
C163 C 0.09658 0.89177 0.34361 0.0
C164 C 0.0766 0.90694 0.27935 0.0
C165 C 0.09586 0.86663 0.28459 0.0
C166 C 0.09996 0.90497 0.29314 0.0
N167 N 0.10919 0.88495 0.29572 0.0
C168 C 0.07241 0.86798 0.27067 0.0
C169 C 0.06275 0.88828 0.26808 0.0
C170 C 0.16643 0.84758 0.29211 0.0
C171 C 0.26633 0.8868 0.32374 0.0
C172 C 0.23399 0.84651 0.31147 0.0
C173 C 0.26106 0.85348 0.30181 0.0
C174 C 0.27729 0.87378 0.308 0.0
N175 N 0.22332 0.85942 0.32682 0.0
C176 C 0.23914 0.8793 0.33302 0.0
Co177 Co 0.8518 0.62833 0.3094 0.0
Co178 Co 0.81052 0.66167 0.33571 0.0
O179 O 0.81881 0.63198 0.32823 0.0
C180 C 0.82406 0.59569 0.27663 0.0
O181 O 0.83205 0.61115 0.26189 0.0
C182 C 0.80595 0.63962 0.37986 0.0
O183 O 0.8303 0.632 0.37628 0.0
O184 O 0.85041 0.67003 0.34787 0.0
O185 O 0.87577 0.65619 0.32148 0.0
H186 H 0.83324 0.74501 0.3404 0.0
H187 H 0.82548 0.59091 0.33757 0.0
O188 O 0.82883 0.6 0.29697 0.0
H189 H 0.92785 0.60824 0.36104 0.0
H190 H 0.92183 0.58507 0.27274 0.0
H191 H 0.89213 0.65864 0.28127 0.0
H192 H 0.90951 0.62936 0.33111 0.0
H193 H 0.88093 0.5899 0.29689 0.0
O194 O 0.79546 0.65089 0.36521 0.0
H195 H 0.84245 0.70758 0.33043 0.0
H196 H 0.76142 0.67871 0.35785 0.0
H197 H 0.93325 0.65458 0.25704 0.0
H198 H 0.84299 0.5692 0.36743 0.0
H199 H 0.94834 0.61758 0.25264 0.0
H200 H 0.89451 0.57786 0.37938 0.0
O201 O 0.83642 0.64623 0.28607 0.0
H202 H 0.71531 0.6111 0.32466 0.0
H203 H 0.77381 0.68308 0.30468 0.0
H204 H 0.72515 0.67224 0.28846 0.0
H205 H 0.69547 0.63605 0.29852 0.0
H206 H 0.7643 0.62248 0.34028 0.0
H207 H 0.75143 0.71582 0.36827 0.0
H208 H 0.78745 0.74932 0.35946 0.0
O209 O 0.82453 0.67386 0.30648 0.0
C210 C 0.87417 0.66911 0.33782 0.0
C211 C 0.81735 0.73055 0.34429 0.0
C212 C 0.77146 0.71417 0.35996 0.0
N213 N 0.80247 0.69095 0.34349 0.0
C214 C 0.82243 0.7093 0.33866 0.0
C215 C 0.77728 0.69318 0.35408 0.0
C216 C 0.79167 0.73295 0.355 0.0
C217 C 0.84799 0.59463 0.34255 0.0
N218 N 0.86647 0.61128 0.33251 0.0
C219 C 0.85775 0.58235 0.35952 0.0
C220 C 0.88665 0.58724 0.36624 0.0
C221 C 0.90536 0.60429 0.35597 0.0
C222 C 0.89483 0.61624 0.33906 0.0
C223 C 0.91549 0.60129 0.27454 0.0
C224 C 0.89862 0.6425 0.2795 0.0
C225 C 0.89234 0.60412 0.28819 0.0
N226 N 0.88422 0.62456 0.29055 0.0
C227 C 0.9219 0.6403 0.26573 0.0
C228 C 0.93035 0.61953 0.26327 0.0
C229 C 0.82951 0.66551 0.28798 0.0
C230 C 0.728 0.62693 0.3202 0.0
C231 C 0.76112 0.66724 0.30904 0.0
C232 C 0.73353 0.66123 0.29986 0.0
C233 C 0.71689 0.64093 0.30551 0.0
N234 N 0.77184 0.65344 0.32348 0.0
C235 C 0.75571 0.63348 0.32904 0.0
Co236 Co 0.37021 0.85394 0.664 0.0
Co237 Co 0.32583 0.82044 0.62911 0.0
O238 O 0.34132 0.85028 0.64033 0.0
C239 C 0.32835 0.88235 0.68101 0.0
O240 O 0.30688 0.86584 0.67787 0.0
C241 C 0.33426 0.84926 0.58866 0.0
O242 O 0.35734 0.86141 0.59726 0.0
O243 O 0.36598 0.81566 0.62159 0.0
O244 O 0.38797 0.82804 0.65294 0.0
H245 H 0.32435 0.73831 0.62003 0.0
H246 H 0.36425 0.89287 0.63642 0.0
O247 O 0.35419 0.88026 0.67573 0.0
H248 H 0.46602 0.88194 0.62744 0.0
H249 H 0.44283 0.89748 0.71538 0.0
H250 H 0.39319 0.82283 0.69409 0.0
H251 H 0.43279 0.85727 0.65153 0.0
H252 H 0.40739 0.89282 0.68502 0.0
O253 O 0.32059 0.83275 0.59912 0.0
H254 H 0.3425 0.77581 0.6344 0.0
H255 H 0.27714 0.80198 0.59911 0.0
H256 H 0.42869 0.82671 0.72442 0.0
H257 H 0.39687 0.91816 0.61239 0.0
H258 H 0.45378 0.86426 0.73525 0.0
H259 H 0.44814 0.91271 0.60771 0.0
O260 O 0.34281 0.83383 0.68294 0.0
H261 H 0.24407 0.86475 0.63328 0.0
H262 H 0.27541 0.79367 0.65222 0.0
H263 H 0.22669 0.80022 0.66319 0.0
H264 H 0.21067 0.83596 0.65366 0.0
H265 H 0.29281 0.85761 0.6229 0.0
H266 H 0.25843 0.76478 0.58422 0.0
H267 H 0.282 0.73261 0.59474 0.0
O268 O 0.32934 0.80665 0.65865 0.0
C269 C 0.38723 0.81702 0.63503 0.0
C270 C 0.31385 0.75219 0.61535 0.0
C271 C 0.27689 0.76706 0.59523 0.0
N272 N 0.31086 0.79108 0.61767 0.0
C273 C 0.32401 0.77347 0.62346 0.0
C274 C 0.28765 0.7881 0.60366 0.0
C275 C 0.29011 0.74901 0.60115 0.0
C276 C 0.3866 0.89052 0.63461 0.0
N277 N 0.39657 0.87359 0.64534 0.0
C278 C 0.40494 0.90484 0.62092 0.0
C279 C 0.43368 0.90175 0.61827 0.0
C280 C 0.44372 0.88447 0.62931 0.0
C281 C 0.42475 0.87047 0.64286 0.0
C282 C 0.43206 0.88103 0.71081 0.0
C283 C 0.40411 0.83921 0.69865 0.0
C284 C 0.4119 0.8783 0.69367 0.0
N285 N 0.39833 0.85756 0.68772 0.0
C286 C 0.42415 0.84131 0.71586 0.0
C287 C 0.4382 0.86238 0.72194 0.0
C288 C 0.33038 0.81422 0.67818 0.0
C289 C 0.25076 0.84908 0.63748 0.0
C290 C 0.26869 0.8093 0.64809 0.0
C291 C 0.24102 0.81289 0.65429 0.0
C292 C 0.23205 0.83294 0.64893 0.0
N293 N 0.28695 0.82523 0.63686 0.0
C294 C 0.2783 0.84492 0.63156 0.0
Co295 Co 0.89073 0.87465 0.84985 0.0
Co296 Co 0.82302 0.87388 0.87165 0.0
O297 O 0.864 0.87049 0.87482 0.0
C298 C 0.9024 0.83079 0.86632 0.0
O299 O 0.87443 0.82316 0.8654 0.0
C300 C 0.8423 0.89713 0.914 0.0
O301 O 0.86809 0.90406 0.90567 0.0
O302 O 0.83477 0.90457 0.85988 0.0
O303 O 0.87089 0.89883 0.83747 0.0
H304 H 0.73726 0.89561 0.83223 0.0
H305 H 0.91542 0.87609 0.89467 0.0
O306 O 0.91193 0.85096 0.86141 0.0
H307 H 0.95341 0.9491 0.86226 0.0
H308 H 0.98824 0.88043 0.81297 0.0
H309 H 0.88354 0.88069 0.80205 0.0
H310 H 0.92129 0.92079 0.84087 0.0
H311 H 0.95464 0.87615 0.84444 0.0
O312 O 0.82253 0.88577 0.90239 0.0
H313 H 0.78834 0.89051 0.83642 0.0
H314 H 0.77098 0.8653 0.90082 0.0
H315 H 0.91643 0.88522 0.77013 0.0
H316 H 0.94788 0.9038 0.91654 0.0
H317 H 0.96919 0.8851 0.7755 0.0
H318 H 0.96699 0.94066 0.90037 0.0
O319 O 0.86431 0.85182 0.83289 0.0
H320 H 0.82914 0.81082 0.92355 0.0
H321 H 0.78037 0.83424 0.85785 0.0
H322 H 0.76714 0.79586 0.87139 0.0
H323 H 0.79155 0.78393 0.90451 0.0
H324 H 0.84194 0.849 0.90931 0.0
H325 H 0.71976 0.87029 0.89738 0.0
H326 H 0.70257 0.88546 0.86285 0.0
O327 O 0.82124 0.86143 0.84108 0.0
C328 C 0.85219 0.91054 0.84403 0.0
C329 C 0.74447 0.88893 0.84733 0.0
C330 C 0.73466 0.87475 0.88391 0.0
N331 N 0.78262 0.87751 0.86879 0.0
C332 C 0.77336 0.88597 0.84979 0.0
C333 C 0.76371 0.87202 0.88578 0.0
C334 C 0.72502 0.88325 0.86453 0.0
C335 C 0.92388 0.89202 0.88745 0.0
N336 N 0.91639 0.89683 0.86654 0.0
C337 C 0.94215 0.90767 0.89995 0.0
C338 C 0.95282 0.92836 0.89087 0.0
C339 C 0.94517 0.93312 0.86951 0.0
C340 C 0.92683 0.91706 0.85751 0.0
C341 C 0.9653 0.88055 0.81043 0.0
C342 C 0.9065 0.88075 0.80453 0.0
C343 C 0.94615 0.87808 0.82818 0.0
N344 N 0.91718 0.87833 0.8251 0.0
C345 C 0.925 0.88326 0.78639 0.0
C346 C 0.9546 0.88318 0.78941 0.0
C347 C 0.83703 0.85039 0.82983 0.0
C348 C 0.81829 0.81584 0.90914 0.0
C349 C 0.79117 0.82918 0.87223 0.0
C350 C 0.78353 0.80743 0.87985 0.0
C351 C 0.79722 0.80075 0.89844 0.0
N352 N 0.81182 0.84391 0.88284 0.0
C353 C 0.82537 0.83746 0.90105 0.0
Co354 Co 0.11829 0.63588 0.85148 0.0
Co355 Co 0.1887 0.63781 0.86847 0.0
O356 O 0.14826 0.64124 0.87422 0.0
C357 C 0.10968 0.68084 0.86684 0.0
O358 O 0.13759 0.68781 0.86406 0.0
C359 C 0.17488 0.61483 0.91158 0.0
O360 O 0.14934 0.60577 0.90402 0.0
O361 O 0.17604 0.60671 0.85802 0.0
O362 O 0.13609 0.61073 0.83888 0.0
H363 H 0.27009 0.61539 0.82421 0.0
H364 H 0.10102 0.63731 0.89805 0.0
O365 O 0.09906 0.66053 0.86339 0.0
H366 H 0.05634 0.5631 0.87169 0.0
H367 H 0.01633 0.62886 0.82191 0.0
H368 H 0.11884 0.62671 0.80377 0.0
H369 H 0.08516 0.58981 0.84671 0.0
H370 H 0.05405 0.63476 0.85065 0.0
O371 O 0.19269 0.62722 0.89929 0.0
H372 H 0.21953 0.6203 0.83144 0.0
H373 H 0.24384 0.64762 0.89415 0.0
H374 H 0.08177 0.6205 0.77456 0.0
H375 H 0.07201 0.61125 0.92357 0.0
H376 H 0.0301 0.62156 0.78356 0.0
H377 H 0.04954 0.57379 0.91044 0.0
O378 O 0.14244 0.65751 0.83175 0.0
H379 H 0.18843 0.70278 0.91924 0.0
H380 H 0.22891 0.67705 0.85097 0.0
H381 H 0.2432 0.71601 0.86265 0.0
H382 H 0.22298 0.72909 0.89706 0.0
H383 H 0.17439 0.66401 0.90679 0.0
H384 H 0.29463 0.64284 0.88766 0.0
H385 H 0.30805 0.6267 0.85244 0.0
O386 O 0.18668 0.64891 0.83773 0.0
C387 C 0.15632 0.5998 0.84393 0.0
C388 C 0.26452 0.62247 0.83961 0.0
C389 C 0.27828 0.63785 0.87523 0.0
N390 N 0.22872 0.63427 0.86318 0.0
C391 C 0.23593 0.62532 0.84379 0.0
C392 C 0.24946 0.64044 0.87884 0.0
C393 C 0.2858 0.6288 0.85546 0.0
C394 C 0.09113 0.6211 0.89219 0.0
N395 N 0.09491 0.61504 0.87094 0.0
C396 C 0.07481 0.60639 0.90673 0.0
C397 C 0.06224 0.58537 0.89936 0.0
C398 C 0.06609 0.57934 0.87763 0.0
C399 C 0.08259 0.59448 0.86358 0.0
C400 C 0.03877 0.62832 0.81779 0.0
C401 C 0.09637 0.62707 0.80784 0.0
C402 C 0.06024 0.63171 0.83398 0.0
N403 N 0.08859 0.63093 0.82891 0.0
C404 C 0.07549 0.6236 0.79122 0.0
C405 C 0.04651 0.62422 0.79628 0.0
C406 C 0.16932 0.65907 0.82706 0.0
C407 C 0.19745 0.69726 0.90425 0.0
C408 C 0.2199 0.68262 0.86592 0.0
C409 C 0.22815 0.70469 0.87248 0.0
C410 C 0.21681 0.71202 0.89179 0.0
N411 N 0.2009 0.66822 0.87823 0.0
C412 C 0.18967 0.6753 0.89717 0.0
Co413 Co 0.82534 0.16224 0.6511 0.0
Co414 Co 0.81621 0.14721 0.70495 0.0
O415 O 0.81575 0.13949 0.67375 0.0
C416 C 0.76922 0.13891 0.63225 0.0
O417 O 0.75583 0.14304 0.65036 0.0
C418 C 0.84992 0.11494 0.72472 0.0
O419 O 0.86796 0.13222 0.73201 0.0
O420 O 0.85754 0.16227 0.70233 0.0
O421 O 0.85461 0.18041 0.67062 0.0
H422 H 0.83914 0.19794 0.76985 0.0
H423 H 0.82732 0.11509 0.64043 0.0
O424 O 0.79663 0.14472 0.63053 0.0
H425 H 0.92617 0.15495 0.62595 0.0
H426 H 0.84525 0.1893 0.57372 0.0
H427 H 0.83532 0.21158 0.65075 0.0
H428 H 0.8878 0.17519 0.63903 0.0
H429 H 0.83426 0.16098 0.60267 0.0
O430 O 0.82893 0.1179 0.71217 0.0
H431 H 0.83789 0.18783 0.73066 0.0
H432 H 0.79574 0.12254 0.74593 0.0
H433 H 0.84658 0.24044 0.62235 0.0
H434 H 0.86498 0.0942 0.62713 0.0
H435 H 0.85161 0.22937 0.5835 0.0
H436 H 0.91482 0.11416 0.61983 0.0
O437 O 0.795 0.1788 0.66248 0.0
H438 H 0.73248 0.08568 0.69139 0.0
H439 H 0.76211 0.16009 0.72373 0.0
H440 H 0.71072 0.14247 0.72534 0.0
H441 H 0.69562 0.10496 0.70916 0.0
H442 H 0.78362 0.104 0.68994 0.0
H443 H 0.79664 0.13193 0.7853 0.0
H444 H 0.81843 0.16989 0.79749 0.0
O445 O 0.80288 0.17624 0.69859 0.0
C446 C 0.86731 0.17752 0.68868 0.0
C447 C 0.82958 0.18135 0.76475 0.0
C448 C 0.80572 0.14431 0.77342 0.0
N449 N 0.81674 0.15463 0.73598 0.0
C450 C 0.8288 0.17553 0.74257 0.0
C451 C 0.80529 0.13909 0.7511 0.0
C452 C 0.81796 0.1656 0.78025 0.0
C453 C 0.84892 0.12389 0.63715 0.0
N454 N 0.85531 0.14633 0.64039 0.0
C455 C 0.87017 0.11198 0.62969 0.0
C456 C 0.89814 0.12319 0.62561 0.0
C457 C 0.90452 0.14607 0.62905 0.0
C458 C 0.88272 0.15743 0.63652 0.0
C459 C 0.84316 0.19434 0.59059 0.0
C460 C 0.83766 0.20661 0.63392 0.0
C461 C 0.83688 0.17837 0.60706 0.0
N462 N 0.83437 0.18461 0.62842 0.0
C463 C 0.84395 0.22304 0.61789 0.0
C464 C 0.84674 0.21681 0.59609 0.0
C465 C 0.79224 0.18519 0.68219 0.0
C466 C 0.73881 0.10199 0.69858 0.0
C467 C 0.75572 0.1438 0.71658 0.0
C468 C 0.72659 0.13388 0.71759 0.0
C469 C 0.71813 0.11283 0.70852 0.0
N470 N 0.77592 0.13301 0.70689 0.0
C471 C 0.76776 0.11241 0.69788 0.0
Co472 Co 0.18388 0.34806 0.65599 0.0
Co473 Co 0.18416 0.35957 0.71122 0.0
O474 O 0.19137 0.36912 0.68058 0.0
C475 C 0.23902 0.35717 0.63117 0.0
O476 O 0.24189 0.33656 0.63557 0.0
C477 C 0.16879 0.40625 0.70906 0.0
O478 O 0.17363 0.40767 0.68788 0.0
O479 O 0.14324 0.34663 0.70379 0.0
O480 O 0.14996 0.33037 0.67163 0.0
H481 H 0.14616 0.30487 0.7701 0.0
H482 H 0.18926 0.3961 0.64586 0.0
O483 O 0.21775 0.36529 0.63932 0.0
H484 H 0.09039 0.3633 0.62237 0.0
H485 H 0.1736 0.32612 0.57625 0.0
H486 H 0.17099 0.29892 0.65249 0.0
H487 H 0.12327 0.33977 0.63835 0.0
H488 H 0.18202 0.3525 0.60716 0.0
O489 O 0.17127 0.38854 0.71952 0.0
H490 H 0.15655 0.31748 0.73211 0.0
H491 H 0.19515 0.3813 0.7551 0.0
H492 H 0.16233 0.27197 0.62207 0.0
H493 H 0.1572 0.4202 0.62968 0.0
H494 H 0.16362 0.28553 0.58362 0.0
H495 H 0.10734 0.40382 0.61787 0.0
O496 O 0.20978 0.32908 0.66969 0.0
H497 H 0.27508 0.41696 0.70897 0.0
H498 H 0.23093 0.34334 0.73682 0.0
H499 H 0.28193 0.35802 0.74571 0.0
H500 H 0.30432 0.39518 0.73189 0.0
H501 H 0.22438 0.40155 0.70021 0.0
H502 H 0.18492 0.36942 0.79333 0.0
H503 H 0.16037 0.33093 0.80104 0.0
O504 O 0.19688 0.33033 0.70495 0.0
C505 C 0.13475 0.33259 0.68865 0.0
C506 C 0.15694 0.32167 0.76696 0.0
C507 C 0.17865 0.35791 0.77999 0.0
N508 N 0.1766 0.35006 0.74136 0.0
C509 C 0.16294 0.3289 0.74547 0.0
C510 C 0.1843 0.36455 0.75829 0.0
C511 C 0.16489 0.3363 0.78431 0.0
C512 C 0.16766 0.38883 0.64064 0.0
N513 N 0.15817 0.36657 0.6431 0.0
C514 C 0.14957 0.40257 0.63154 0.0
C515 C 0.12158 0.39337 0.62494 0.0
C516 C 0.11205 0.37064 0.62749 0.0
C517 C 0.13073 0.35742 0.63667 0.0
C518 C 0.17292 0.32001 0.59294 0.0
C519 C 0.17147 0.30497 0.63581 0.0
C520 C 0.17766 0.33487 0.61051 0.0
N521 N 0.17684 0.32727 0.63164 0.0
C522 C 0.16659 0.28962 0.61865 0.0
C523 C 0.16733 0.29724 0.59708 0.0
C524 C 0.2094 0.32178 0.68926 0.0
C525 C 0.26548 0.40085 0.71528 0.0
C526 C 0.24041 0.35954 0.73075 0.0
C527 C 0.26935 0.36777 0.73585 0.0
C528 C 0.2819 0.3886 0.72809 0.0
N529 N 0.22426 0.37177 0.71841 0.0
C530 C 0.2366 0.39208 0.7105 0.0
Co531 Co 0.61841 0.13489 0.34926 0.0
Co532 Co 0.68531 0.13535 0.37236 0.0
O533 O 0.64447 0.13911 0.37463 0.0
C534 C 0.60762 0.17912 0.36522 0.0
O535 O 0.63579 0.18606 0.36509 0.0
C536 C 0.66582 0.11146 0.41445 0.0
O537 O 0.642 0.10118 0.4051 0.0
O538 O 0.67353 0.10447 0.36075 0.0
O539 O 0.63793 0.11022 0.33776 0.0
H540 H 0.77183 0.11226 0.33524 0.0
H541 H 0.59389 0.13429 0.39403 0.0
O542 O 0.59753 0.15912 0.36001 0.0
H543 H 0.55377 0.0614 0.36208 0.0
H544 H 0.52192 0.12964 0.31081 0.0
H545 H 0.62654 0.12784 0.30172 0.0
H546 H 0.58638 0.08913 0.34049 0.0
H547 H 0.55479 0.13408 0.34278 0.0
O548 O 0.68454 0.12434 0.40332 0.0
H549 H 0.72081 0.11786 0.33821 0.0
H550 H 0.73649 0.14398 0.40252 0.0
H551 H 0.5944 0.12314 0.26933 0.0
H552 H 0.56106 0.10715 0.41616 0.0
H553 H 0.54167 0.12402 0.27378 0.0
H554 H 0.54084 0.07037 0.4002 0.0
O555 O 0.64573 0.15711 0.33224 0.0
H556 H 0.67791 0.19935 0.42292 0.0
H557 H 0.72949 0.17441 0.3594 0.0
H558 H 0.74267 0.21293 0.37261 0.0
H559 H 0.71685 0.22563 0.40465 0.0
H560 H 0.66514 0.16104 0.40894 0.0
H561 H 0.78761 0.13849 0.4003 0.0
H562 H 0.80563 0.1226 0.36643 0.0
O563 O 0.68822 0.14723 0.3417 0.0
C564 C 0.65638 0.09848 0.34468 0.0
C565 C 0.76426 0.11923 0.35006 0.0
C566 C 0.7731 0.13392 0.38659 0.0
N567 N 0.72567 0.13132 0.37048 0.0
C568 C 0.7354 0.12248 0.35183 0.0
C569 C 0.74409 0.13692 0.38778 0.0
C570 C 0.7832 0.12502 0.36758 0.0
C571 C 0.58499 0.11838 0.38693 0.0
N572 N 0.59205 0.1133 0.366 0.0
C573 C 0.5665 0.10305 0.39956 0.0
C574 C 0.55519 0.08241 0.39061 0.0
C575 C 0.56246 0.07736 0.36923 0.0
C576 C 0.58104 0.09309 0.3571 0.0
C577 C 0.54484 0.12919 0.30867 0.0
C578 C 0.6036 0.12813 0.3038 0.0
C579 C 0.56358 0.13175 0.32671 0.0
N580 N 0.59253 0.13108 0.32414 0.0
C581 C 0.58552 0.12551 0.28539 0.0
C582 C 0.55594 0.12603 0.2879 0.0
C583 C 0.67306 0.15815 0.32976 0.0
C584 C 0.68933 0.19402 0.40895 0.0
C585 C 0.71797 0.17983 0.3732 0.0
C586 C 0.72563 0.20166 0.38069 0.0
C587 C 0.71116 0.20876 0.39868 0.0
N588 N 0.69651 0.16546 0.38332 0.0
C589 C 0.68226 0.17232 0.40099 0.0
Co590 Co 0.64011 0.65397 0.66361 0.0
Co591 Co 0.68366 0.68846 0.62913 0.0
O592 O 0.66902 0.65848 0.64009 0.0
C593 C 0.68326 0.62675 0.68088 0.0
O594 O 0.70376 0.64421 0.67949 0.0
C595 C 0.67401 0.66049 0.58833 0.0
O596 O 0.6501 0.64932 0.59668 0.0
O597 O 0.64326 0.69271 0.62181 0.0
O598 O 0.62119 0.67941 0.6528 0.0
H599 H 0.68314 0.77039 0.6207 0.0
H600 H 0.64787 0.61576 0.63545 0.0
O601 O 0.65741 0.62802 0.67487 0.0
H602 H 0.54512 0.62412 0.6266 0.0
H603 H 0.56931 0.60819 0.71452 0.0
H604 H 0.61524 0.68397 0.69387 0.0
H605 H 0.57743 0.6492 0.65106 0.0
H606 H 0.60484 0.6141 0.68431 0.0
O607 O 0.68885 0.67632 0.59907 0.0
H608 H 0.66596 0.7327 0.63488 0.0
H609 H 0.73171 0.70765 0.59902 0.0
H610 H 0.57963 0.67883 0.72406 0.0
H611 H 0.61621 0.59009 0.61105 0.0
H612 H 0.55639 0.64071 0.73456 0.0
H613 H 0.56445 0.59425 0.60643 0.0
O614 O 0.6666 0.67459 0.68289 0.0
H615 H 0.76675 0.64545 0.63237 0.0
H616 H 0.73368 0.71562 0.65246 0.0
H617 H 0.78284 0.7097 0.66306 0.0
H618 H 0.79971 0.67442 0.65296 0.0
H619 H 0.71761 0.65196 0.62229 0.0
H620 H 0.74946 0.74505 0.58432 0.0
H621 H 0.72519 0.77677 0.59522 0.0
O622 O 0.68005 0.70197 0.65881 0.0
C623 C 0.62184 0.69074 0.6351 0.0
C624 C 0.69394 0.75672 0.61586 0.0
C625 C 0.73113 0.74249 0.59542 0.0
N626 N 0.69788 0.71799 0.61787 0.0
C627 C 0.68434 0.73534 0.62387 0.0
C628 C 0.72092 0.72133 0.60375 0.0
C629 C 0.71751 0.76028 0.60155 0.0
C630 C 0.62531 0.61754 0.63368 0.0
N631 N 0.61453 0.63396 0.64467 0.0
C632 C 0.60751 0.60302 0.61977 0.0
C633 C 0.57849 0.60538 0.61717 0.0
C634 C 0.56764 0.62215 0.62845 0.0
C635 C 0.58608 0.63637 0.64221 0.0
C636 C 0.57925 0.62488 0.71007 0.0
C637 C 0.60512 0.66734 0.69827 0.0
C638 C 0.59944 0.62833 0.69302 0.0
N639 N 0.61196 0.64937 0.68724 0.0
C640 C 0.58502 0.66453 0.71541 0.0
C641 C 0.57201 0.64314 0.72131 0.0
C642 C 0.67846 0.69441 0.67834 0.0
C643 C 0.75969 0.66091 0.63681 0.0
C644 C 0.7408 0.70019 0.64805 0.0
C645 C 0.7687 0.69696 0.65406 0.0
C646 C 0.77815 0.67716 0.64838 0.0
N647 N 0.72281 0.68418 0.63668 0.0
C648 C 0.73192 0.66472 0.63108 0.0
Co649 Co 0.64315 0.38263 0.80894 0.0
Co650 Co 0.68951 0.35647 0.839 0.0
O651 O 0.67504 0.3835 0.83001 0.0
C652 C 0.68602 0.41866 0.78821 0.0
O653 O 0.70484 0.40488 0.78666 0.0
C654 C 0.69056 0.36046 0.88733 0.0
O655 O 0.67197 0.34181 0.88755 0.0
O656 O 0.64957 0.34292 0.84836 0.0
O657 O 0.62345 0.35314 0.82043 0.0
H658 H 0.68576 0.27384 0.84529 0.0
H659 H 0.65887 0.42194 0.83771 0.0
O660 O 0.66132 0.41238 0.79705 0.0
H661 H 0.55601 0.3935 0.85391 0.0
H662 H 0.56918 0.4158 0.76519 0.0
H663 H 0.61081 0.34794 0.78006 0.0
H664 H 0.58251 0.37501 0.82633 0.0
H665 H 0.60861 0.41627 0.79223 0.0
O666 O 0.69852 0.36972 0.86906 0.0
H667 H 0.6685 0.30817 0.83369 0.0
H668 H 0.74129 0.34729 0.86426 0.0
H669 H 0.57123 0.34669 0.75303 0.0
H670 H 0.6331 0.44109 0.86528 0.0
H671 H 0.55014 0.3808 0.74544 0.0
H672 H 0.5813 0.42685 0.87355 0.0
O673 O 0.66461 0.36702 0.7871 0.0
H674 H 0.77468 0.41819 0.83282 0.0
H675 H 0.73508 0.34133 0.81094 0.0
H676 H 0.78337 0.35859 0.79762 0.0
H677 H 0.80353 0.39727 0.80863 0.0
H678 H 0.72632 0.40037 0.84558 0.0
H679 H 0.75929 0.31337 0.87625 0.0
H680 H 0.73147 0.27631 0.86674 0.0
O681 O 0.6815 0.34274 0.80934 0.0
C682 C 0.62625 0.34096 0.83707 0.0
C683 C 0.6981 0.28989 0.8495 0.0
C684 C 0.73937 0.31208 0.86688 0.0
N685 N 0.7039 0.32973 0.84821 0.0
C686 C 0.68845 0.3094 0.84296 0.0
C687 C 0.72906 0.33123 0.86005 0.0
C688 C 0.72374 0.29129 0.86154 0.0
C689 C 0.63628 0.41573 0.84114 0.0
N690 N 0.62219 0.39745 0.83036 0.0
C691 C 0.62183 0.4266 0.8568 0.0
C692 C 0.59277 0.41859 0.86145 0.0
C693 C 0.57857 0.39988 0.85044 0.0
C694 C 0.59372 0.38944 0.83489 0.0
C695 C 0.57816 0.40082 0.76838 0.0
C696 C 0.60166 0.36283 0.77693 0.0
C697 C 0.60055 0.401 0.78363 0.0
N698 N 0.61189 0.38211 0.78783 0.0
C699 C 0.57929 0.36203 0.76157 0.0
C700 C 0.56748 0.38117 0.75731 0.0
C701 C 0.67537 0.34934 0.79032 0.0
C702 C 0.76618 0.4013 0.82798 0.0
C703 C 0.74364 0.3582 0.81575 0.0
C704 C 0.77104 0.36786 0.80819 0.0
C705 C 0.78234 0.38956 0.81438 0.0
N706 N 0.72797 0.36978 0.82917 0.0
C707 C 0.73886 0.39109 0.83522 0.0
Co708 Co 0.35869 0.12373 0.81748 0.0
Co709 Co 0.32055 0.15655 0.84772 0.0
O710 O 0.32782 0.12691 0.83865 0.0
C711 C 0.32752 0.09201 0.7853 0.0
O712 O 0.33388 0.10792 0.77077 0.0
C713 C 0.31029 0.12846 0.88923 0.0
O714 O 0.32275 0.11244 0.88112 0.0
O715 O 0.36156 0.1644 0.85759 0.0
O716 O 0.38387 0.15135 0.82901 0.0
H717 H 0.34479 0.23979 0.85341 0.0
H718 H 0.33592 0.08488 0.84513 0.0
O719 O 0.33447 0.09571 0.80544 0.0
H720 H 0.44025 0.10257 0.86293 0.0
H721 H 0.42454 0.08167 0.77453 0.0
H722 H 0.39585 0.15488 0.78803 0.0
H723 H 0.41848 0.1247 0.83559 0.0
H724 H 0.38639 0.08573 0.80151 0.0
O725 O 0.30862 0.14582 0.87801 0.0
H726 H 0.35238 0.20244 0.84177 0.0
H727 H 0.27427 0.17359 0.8735 0.0
H728 H 0.43421 0.15159 0.76099 0.0
H729 H 0.35689 0.0621 0.87237 0.0
H730 H 0.44878 0.11477 0.75408 0.0
H731 H 0.40941 0.07095 0.88148 0.0
O732 O 0.34081 0.1421 0.79598 0.0
H733 H 0.22411 0.10655 0.84005 0.0
H734 H 0.28106 0.17916 0.82025 0.0
H735 H 0.23089 0.16914 0.80665 0.0
H736 H 0.20197 0.13265 0.81665 0.0
H737 H 0.27453 0.11709 0.853 0.0
H738 H 0.26596 0.21064 0.8856 0.0
H739 H 0.30132 0.24408 0.87549 0.0
O740 O 0.33158 0.16927 0.81814 0.0
C741 C 0.38408 0.1639 0.84585 0.0
C742 C 0.32919 0.22535 0.85788 0.0
C743 C 0.28498 0.20899 0.87597 0.0
N744 N 0.31375 0.18582 0.85686 0.0
C745 C 0.33335 0.20414 0.85131 0.0
C746 C 0.28985 0.18804 0.86911 0.0
C747 C 0.30481 0.22774 0.87028 0.0
C748 C 0.35883 0.08872 0.84888 0.0
N749 N 0.37592 0.10609 0.83877 0.0
C750 C 0.37056 0.07582 0.86438 0.0
C751 C 0.40002 0.08081 0.8695 0.0
C752 C 0.41733 0.09857 0.85913 0.0
C753 C 0.40484 0.11111 0.84373 0.0
C754 C 0.41841 0.09781 0.77741 0.0
C755 C 0.40212 0.13881 0.78516 0.0
C756 C 0.39681 0.10021 0.79266 0.0
N757 N 0.38895 0.12055 0.79639 0.0
C758 C 0.42384 0.13705 0.76981 0.0
C759 C 0.432 0.11638 0.76594 0.0
C760 C 0.33436 0.16135 0.79909 0.0
C761 C 0.23643 0.12255 0.83568 0.0
C762 C 0.26869 0.16322 0.82464 0.0
C763 C 0.24024 0.15766 0.81691 0.0
C764 C 0.22403 0.13719 0.82253 0.0
N765 N 0.28066 0.14882 0.83766 0.0
C766 C 0.26497 0.12866 0.84308 0.0
Co767 Co 0.39045 0.37433 0.35148 0.0
Co768 Co 0.32112 0.37203 0.37158 0.0
O769 O 0.36213 0.36914 0.3754 0.0
C770 C 0.40014 0.32925 0.36591 0.0
O771 O 0.37221 0.32199 0.36369 0.0
C772 C 0.33833 0.39647 0.41368 0.0
O773 O 0.36381 0.40465 0.40545 0.0
O774 O 0.33209 0.40272 0.35951 0.0
O775 O 0.37197 0.39948 0.33994 0.0
H776 H 0.23528 0.39155 0.33052 0.0
H777 H 0.41095 0.37269 0.39731 0.0
O778 O 0.4103 0.34961 0.36238 0.0
H779 H 0.45421 0.44685 0.37016 0.0
H780 H 0.49023 0.38097 0.3181 0.0
H781 H 0.38677 0.38371 0.30397 0.0
H782 H 0.42348 0.4203 0.34603 0.0
H783 H 0.4545 0.37514 0.34818 0.0
O784 O 0.31959 0.38406 0.40209 0.0
H785 H 0.28659 0.38747 0.33555 0.0
H786 H 0.26846 0.36283 0.40005 0.0
H787 H 0.42182 0.38986 0.27346 0.0
H788 H 0.44192 0.39858 0.42195 0.0
H789 H 0.47397 0.38849 0.28044 0.0
H790 H 0.46368 0.43601 0.40842 0.0
O791 O 0.36492 0.35292 0.33219 0.0
H792 H 0.32776 0.30991 0.42451 0.0
H793 H 0.2799 0.33163 0.35766 0.0
H794 H 0.26743 0.29331 0.37153 0.0
H795 H 0.29138 0.28224 0.40525 0.0
H796 H 0.33984 0.348 0.40991 0.0
H797 H 0.217 0.36681 0.39578 0.0
H798 H 0.20007 0.38119 0.36078 0.0
O799 O 0.32057 0.35948 0.34133 0.0
C800 C 0.35132 0.4099 0.34518 0.0
C801 C 0.24237 0.38524 0.34584 0.0
C802 C 0.23212 0.37139 0.38248 0.0
N803 N 0.28053 0.3749 0.36806 0.0
C804 C 0.2714 0.38287 0.34878 0.0
C805 C 0.26133 0.36925 0.38483 0.0
C806 C 0.22264 0.37944 0.36283 0.0
C807 C 0.42052 0.38889 0.39126 0.0
N808 N 0.41525 0.39503 0.37028 0.0
C809 C 0.43796 0.4035 0.40531 0.0
C810 C 0.45012 0.42451 0.39772 0.0
C811 C 0.44477 0.43062 0.37627 0.0
C812 C 0.42719 0.41558 0.36271 0.0
C813 C 0.46757 0.38164 0.31486 0.0
C814 C 0.40945 0.38323 0.30716 0.0
C815 C 0.44722 0.37829 0.33181 0.0
N816 N 0.4186 0.37923 0.32786 0.0
C817 C 0.42919 0.38666 0.28981 0.0
C818 C 0.45844 0.38587 0.29373 0.0
C819 C 0.33754 0.35055 0.32906 0.0
C820 C 0.31713 0.31455 0.40984 0.0
C821 C 0.29053 0.32693 0.37226 0.0
C822 C 0.28331 0.30522 0.38009 0.0
C823 C 0.29674 0.29902 0.39901 0.0
N824 N 0.31052 0.34209 0.38299 0.0
C825 C 0.32381 0.33611 0.40153 0.0
Co826 Co 0.33068 0.66179 0.15618 0.0
Co827 Co 0.32742 0.65054 0.21138 0.0
O828 O 0.32104 0.64092 0.18064 0.0
C829 C 0.27679 0.65425 0.12968 0.0
O830 O 0.27498 0.67512 0.13377 0.0
C831 C 0.33994 0.60301 0.21005 0.0
O832 O 0.33623 0.60169 0.18873 0.0
O833 O 0.36903 0.66194 0.20502 0.0
O834 O 0.36454 0.67862 0.17276 0.0
H835 H 0.3661 0.70447 0.27091 0.0
H836 H 0.32354 0.61364 0.14617 0.0
O837 O 0.29702 0.64541 0.13855 0.0
H838 H 0.42432 0.6438 0.12528 0.0
H839 H 0.34585 0.68356 0.07674 0.0
H840 H 0.34639 0.71078 0.15296 0.0
H841 H 0.39206 0.66841 0.1402 0.0
H842 H 0.33454 0.65727 0.10743 0.0
O843 O 0.33786 0.62093 0.22031 0.0
H844 H 0.35669 0.69198 0.23274 0.0
H845 H 0.31298 0.6294 0.25508 0.0
H846 H 0.35796 0.73763 0.12277 0.0
H847 H 0.35496 0.58846 0.13104 0.0
H848 H 0.35771 0.72406 0.08433 0.0
H849 H 0.40578 0.60351 0.12054 0.0
O850 O 0.30502 0.68149 0.16904 0.0
H851 H 0.2338 0.59616 0.20727 0.0
H852 H 0.28097 0.66908 0.23515 0.0
H853 H 0.22908 0.65636 0.24266 0.0
H854 H 0.20516 0.61958 0.22881 0.0
H855 H 0.28544 0.60963 0.19987 0.0
H856 H 0.32215 0.64118 0.29349 0.0
H857 H 0.34878 0.67899 0.30161 0.0
O858 O 0.31723 0.68049 0.2045 0.0
C859 C 0.37884 0.67587 0.19015 0.0
C860 C 0.3544 0.68798 0.26758 0.0
C861 C 0.32977 0.65245 0.28025 0.0
N862 N 0.33415 0.66003 0.24164 0.0
C863 C 0.34894 0.68082 0.24599 0.0
C864 C 0.32472 0.64585 0.25846 0.0
C865 C 0.3447 0.67367 0.2848 0.0
C866 C 0.34558 0.62033 0.14153 0.0
N867 N 0.35594 0.64245 0.14413 0.0
C868 C 0.36329 0.60599 0.13302 0.0
C869 C 0.39181 0.61444 0.12716 0.0
C870 C 0.40223 0.63703 0.12984 0.0
C871 C 0.3839 0.65087 0.13841 0.0
C872 C 0.34606 0.68968 0.09342 0.0
C873 C 0.34631 0.70473 0.13629 0.0
C874 C 0.33967 0.67487 0.11087 0.0
N875 N 0.33989 0.68247 0.132 0.0
C876 C 0.35285 0.72002 0.11926 0.0
C877 C 0.35271 0.7124 0.09769 0.0
C878 C 0.30541 0.68908 0.1885 0.0
C879 C 0.24404 0.61213 0.21358 0.0
C880 C 0.27081 0.65302 0.22909 0.0
C881 C 0.24138 0.64592 0.2334 0.0
C882 C 0.22797 0.62529 0.22562 0.0
N883 N 0.2866 0.63989 0.21751 0.0
C884 C 0.27344 0.61978 0.20958 0.0
Co885 Co 0.68034 0.85245 0.15238 0.0
Co886 Co 0.69286 0.86068 0.20735 0.0
O887 O 0.6936 0.87216 0.17716 0.0
C888 C 0.73765 0.87277 0.13289 0.0
O889 O 0.75132 0.86597 0.14979 0.0
C890 C 0.66849 0.90331 0.21279 0.0
O891 O 0.65428 0.89984 0.19419 0.0
O892 O 0.65043 0.84887 0.20479 0.0
O893 O 0.64984 0.83446 0.17096 0.0
H894 H 0.66588 0.8033 0.26613 0.0
H895 H 0.68489 0.90109 0.14659 0.0
O896 O 0.70998 0.86981 0.13246 0.0
H897 H 0.58201 0.87062 0.13248 0.0
H898 H 0.65373 0.8348 0.07347 0.0
H899 H 0.66402 0.80363 0.14713 0.0
H900 H 0.61696 0.84575 0.14174 0.0
H901 H 0.66933 0.85946 0.10482 0.0
O902 O 0.68428 0.88953 0.21957 0.0
H903 H 0.66771 0.81804 0.22843 0.0
H904 H 0.716 0.87924 0.25041 0.0
H905 H 0.6481 0.77839 0.11628 0.0
H906 H 0.65072 0.92657 0.13712 0.0
H907 H 0.64288 0.79394 0.07912 0.0
H908 H 0.59885 0.91135 0.13005 0.0
O909 O 0.70827 0.83221 0.16052 0.0
H910 H 0.78233 0.91804 0.19823 0.0
H911 H 0.74462 0.84171 0.22263 0.0
H912 H 0.79724 0.85554 0.22451 0.0
H913 H 0.81641 0.89399 0.21231 0.0
H914 H 0.72985 0.90345 0.19644 0.0
H915 H 0.71447 0.86522 0.28837 0.0
H916 H 0.68937 0.82696 0.29643 0.0
O917 O 0.70207 0.83152 0.19692 0.0
C918 C 0.63833 0.83593 0.18977 0.0
C919 C 0.67693 0.81999 0.26283 0.0
C920 C 0.70417 0.85474 0.27531 0.0
N921 N 0.69205 0.84945 0.23717 0.0
C922 C 0.67809 0.82841 0.2415 0.0
C923 C 0.70489 0.86261 0.25378 0.0
C924 C 0.6901 0.83327 0.27982 0.0
C925 C 0.66239 0.89435 0.14336 0.0
N926 N 0.65295 0.87198 0.14468 0.0
C927 C 0.64313 0.90885 0.13808 0.0
C928 C 0.61402 0.9003 0.13415 0.0
C929 C 0.60455 0.87746 0.13554 0.0
C930 C 0.62443 0.86346 0.14087 0.0
C931 C 0.65591 0.82782 0.08959 0.0
C932 C 0.66169 0.81055 0.13103 0.0
C933 C 0.66482 0.8417 0.10739 0.0
N934 N 0.6675 0.83301 0.12782 0.0
C935 C 0.65271 0.79616 0.11362 0.0
C936 C 0.64981 0.8049 0.09277 0.0
C937 C 0.71108 0.82365 0.17931 0.0
C938 C 0.77423 0.90128 0.20365 0.0
C939 C 0.75278 0.85844 0.21723 0.0
C940 C 0.78261 0.86619 0.21837 0.0
C941 C 0.79334 0.88777 0.21153 0.0
N942 N 0.73416 0.87182 0.20955 0.0
C943 C 0.74454 0.89296 0.20275 0.0
H944 H 0.18144 0.19316 0.22166 0.0
H945 H 0.20917 0.22027 0.24657 0.0
H946 H 0.24636 0.25854 0.19111 0.0
H947 H 0.21799 0.23236 0.16628 0.0
H948 H 0.26686 0.23319 0.25176 0.0
H949 H 0.21729 0.30576 0.22635 0.0
H950 H 0.20258 0.27777 0.21814 0.0
H951 H 0.23299 0.29321 0.20368 0.0
C952 C 0.19533 0.20745 0.21477 0.0
C953 C 0.19738 0.2105 0.19191 0.0
C954 C 0.21126 0.22289 0.22904 0.0
C955 C 0.22953 0.24165 0.22073 0.0
C956 C 0.23189 0.24454 0.19796 0.0
H957 H 0.36346 0.3251 0.2999 0.0
H958 H 0.33914 0.29891 0.27251 0.0
C959 C 0.21577 0.22934 0.18374 0.0
C960 C 0.24643 0.25811 0.23579 0.0
H961 H 0.25981 0.31342 0.2484 0.0
C962 C 0.26525 0.25073 0.25111 0.0
C963 C 0.24414 0.28098 0.23507 0.0
C964 C 0.22294 0.28988 0.22008 0.0
C965 C 0.28187 0.26558 0.26568 0.0
C966 C 0.28023 0.28854 0.26448 0.0
C967 C 0.26142 0.29588 0.24913 0.0
C968 C 0.2958 0.30505 0.28016 0.0
C969 C 0.30027 0.25639 0.28266 0.0
C970 C 0.27977 0.31792 0.29285 0.0
C971 C 0.29357 0.33314 0.30807 0.0
C972 C 0.32386 0.33581 0.31121 0.0
C973 C 0.34011 0.32337 0.29804 0.0
C974 C 0.32619 0.30821 0.28254 0.0
H975 H 0.29351 0.23821 0.28497 0.0
H976 H 0.32326 0.25927 0.27723 0.0
H977 H 0.29902 0.26477 0.29873 0.0
H978 H 0.25635 0.31592 0.29126 0.0
H979 H 0.28022 0.34251 0.31768 0.0
H980 H 0.83013 0.31908 0.22224 0.0
H981 H 0.80529 0.29287 0.24939 0.0
H982 H 0.7738 0.24722 0.19738 0.0
H983 H 0.79956 0.27229 0.17064 0.0
H984 H 0.7494 0.27665 0.25541 0.0
H985 H 0.80633 0.2062 0.23724 0.0
H986 H 0.81853 0.23366 0.22649 0.0
H987 H 0.79011 0.21498 0.21282 0.0
C988 C 0.81825 0.30331 0.21667 0.0
C989 C 0.81694 0.29788 0.19421 0.0
C990 C 0.80395 0.28839 0.23218 0.0
C991 C 0.78808 0.26785 0.22548 0.0
C992 C 0.78655 0.26261 0.20309 0.0
H993 H 0.65078 0.18549 0.30042 0.0
H994 H 0.6781 0.21224 0.27505 0.0
C995 C 0.80113 0.27721 0.18772 0.0
C996 C 0.77232 0.25197 0.24159 0.0
H997 H 0.76072 0.19717 0.256 0.0
C998 C 0.75211 0.25932 0.25576 0.0
C999 C 0.77611 0.2294 0.24231 0.0
C1000 C 0.79919 0.22068 0.22906 0.0
C1001 C 0.73513 0.24462 0.27022 0.0
C1002 C 0.73765 0.22175 0.26992 0.0
C1003 C 0.75831 0.21457 0.25604 0.0
C1004 C 0.72038 0.20509 0.28461 0.0
C1005 C 0.71522 0.25391 0.28597 0.0
C1006 C 0.73475 0.19126 0.29756 0.0
C1007 C 0.71918 0.1755 0.31142 0.0
C1008 C 0.68875 0.17338 0.31312 0.0
C1009 C 0.6742 0.18682 0.29973 0.0
C1010 C 0.68986 0.20236 0.28543 0.0
H1011 H 0.72232 0.27199 0.28877 0.0
H1012 H 0.69298 0.25166 0.27895 0.0
H1013 H 0.71429 0.24529 0.30205 0.0
H1014 H 0.75822 0.19281 0.29716 0.0
H1015 H 0.73125 0.16525 0.32113 0.0
H1016 H 0.25806 0.70158 0.16838 0.0
H1017 H 0.2318 0.73138 0.17984 0.0
H1018 H 0.29582 0.75078 0.23035 0.0
H1019 H 0.32125 0.72055 0.21961 0.0
H1020 H 0.24415 0.74534 0.24701 0.0
H1021 H 0.24361 0.79759 0.17272 0.0
H1022 H 0.22879 0.76894 0.16795 0.0
H1023 H 0.26649 0.77652 0.17523 0.0
C1024 C 0.26676 0.7125 0.18165 0.0
C1025 C 0.29158 0.7087 0.19319 0.0
C1026 C 0.25184 0.72962 0.18811 0.0
C1027 C 0.26195 0.74351 0.20585 0.0
C1028 C 0.28753 0.74028 0.21666 0.0
H1029 H 0.20763 0.86039 0.26136 0.0
H1030 H 0.22829 0.83515 0.23675 0.0
C1031 C 0.30205 0.72298 0.21052 0.0
C1032 C 0.2446 0.75988 0.21479 0.0
H1033 H 0.21254 0.80489 0.20208 0.0
C1034 C 0.23737 0.75839 0.23714 0.0
C1035 C 0.23588 0.77703 0.20199 0.0
C1036 C 0.24433 0.7803 0.1782 0.0
C1037 C 0.22193 0.77356 0.24711 0.0
C1038 C 0.21225 0.7902 0.23418 0.0
C1039 C 0.2195 0.79184 0.21183 0.0
C1040 C 0.19583 0.80653 0.24418 0.0
C1041 C 0.21699 0.77198 0.27161 0.0
C1042 C 0.16978 0.79913 0.25538 0.0
C1043 C 0.15834 0.81338 0.26965 0.0
C1044 C 0.1722 0.83542 0.27228 0.0
C1045 C 0.19633 0.84354 0.25922 0.0
C1046 C 0.2082 0.82911 0.24528 0.0
H1047 H 0.23223 0.76233 0.27977 0.0
H1048 H 0.21963 0.78875 0.27923 0.0
H1049 H 0.19456 0.76339 0.27487 0.0
H1050 H 0.1596 0.78187 0.25442 0.0
H1051 H 0.13984 0.80679 0.27976 0.0
H1052 H 0.82914 0.70999 0.28626 0.0
H1053 H 0.81536 0.73144 0.25558 0.0
H1054 H 0.80762 0.67349 0.21401 0.0
H1055 H 0.82114 0.65155 0.24504 0.0
H1056 H 0.83661 0.74071 0.2125 0.0
H1057 H 0.72544 0.69049 0.21382 0.0
H1058 H 0.75099 0.68897 0.23576 0.0
H1059 H 0.75592 0.67626 0.20976 0.0
C1060 C 0.8249 0.70176 0.27056 0.0
C1061 C 0.82583 0.67892 0.26821 0.0
C1062 C 0.81718 0.71413 0.25296 0.0
C1063 C 0.8101 0.70402 0.23258 0.0
C1064 C 0.81267 0.68154 0.22969 0.0
H1065 H 0.74397 0.80486 0.14893 0.0
H1066 H 0.76923 0.7728 0.15473 0.0
C1067 C 0.82054 0.66907 0.2474 0.0
C1068 C 0.79739 0.7169 0.21552 0.0
H1069 H 0.73131 0.72458 0.19565 0.0
C1070 C 0.81379 0.73691 0.20815 0.0
C1071 C 0.76757 0.71188 0.20998 0.0
C1072 C 0.74876 0.69082 0.21774 0.0
C1073 C 0.80064 0.75288 0.19706 0.0
C1074 C 0.77039 0.74857 0.19308 0.0
C1075 C 0.75454 0.72774 0.19866 0.0
C1076 C 0.75397 0.76683 0.18805 0.0
C1077 C 0.81859 0.77504 0.19148 0.0
C1078 C 0.7367 0.77373 0.20464 0.0
C1079 C 0.72246 0.79181 0.20144 0.0
C1080 C 0.725 0.80353 0.18147 0.0
C1081 C 0.74162 0.79622 0.1645 0.0
C1082 C 0.75612 0.77799 0.16781 0.0
H1083 H 0.84168 0.77604 0.19646 0.0
H1084 H 0.81778 0.77787 0.17353 0.0
H1085 H 0.80948 0.78862 0.19973 0.0
H1086 H 0.73477 0.7654 0.2204 0.0
H1087 H 0.70972 0.79675 0.21487 0.0
H1088 H 0.31246 0.76945 0.67586 0.0
H1089 H 0.28276 0.74575 0.70209 0.0
H1090 H 0.28383 0.80158 0.74573 0.0
H1091 H 0.31405 0.82563 0.71947 0.0
H1092 H 0.29175 0.76273 0.76725 0.0
H1093 H 0.19645 0.74659 0.71201 0.0
H1094 H 0.22884 0.74023 0.69936 0.0
H1095 H 0.22678 0.76846 0.707 0.0
C1096 C 0.3066 0.77676 0.69108 0.0
C1097 C 0.31548 0.79953 0.69548 0.0
C1098 C 0.28939 0.76318 0.70599 0.0
C1099 C 0.2804 0.77202 0.72557 0.0
C1100 C 0.29025 0.79449 0.73056 0.0
H1101 H 0.14679 0.69375 0.8086 0.0
H1102 H 0.17213 0.72272 0.78436 0.0
C1103 C 0.30764 0.80817 0.71561 0.0
C1104 C 0.26089 0.75755 0.74073 0.0
H1105 H 0.19649 0.7217 0.74254 0.0
C1106 C 0.27077 0.75397 0.76195 0.0
C1107 C 0.23323 0.74645 0.73397 0.0
C1108 C 0.22054 0.75079 0.71192 0.0
C1109 C 0.25443 0.73869 0.77618 0.0
C1110 C 0.22776 0.72639 0.76881 0.0
C1111 C 0.21715 0.73086 0.74803 0.0
C1112 C 0.21137 0.70816 0.7821 0.0
C1113 C 0.26597 0.73576 0.79894 0.0
C1114 C 0.22453 0.68994 0.78804 0.0
C1115 C 0.21017 0.67342 0.80176 0.0
C1116 C 0.18216 0.67464 0.80971 0.0
C1117 C 0.16829 0.69227 0.80272 0.0
C1118 C 0.18281 0.7089 0.78899 0.0
H1119 H 0.28132 0.75069 0.80428 0.0
H1120 H 0.24806 0.73242 0.81108 0.0
H1121 H 0.27791 0.72142 0.79895 0.0
H1122 H 0.24622 0.6887 0.7824 0.0
H1123 H 0.22142 0.65998 0.80661 0.0
H1124 H 0.69526 0.68356 0.71969 0.0
H1125 H 0.72278 0.70858 0.74661 0.0
H1126 H 0.71967 0.76423 0.70355 0.0
H1127 H 0.69287 0.73949 0.67657 0.0
H1128 H 0.77419 0.76327 0.71818 0.0
H1129 H 0.69691 0.75372 0.78808 0.0
H1130 H 0.70646 0.72814 0.7781 0.0
H1131 H 0.68641 0.7441 0.76078 0.0
C1132 C 0.70001 0.70118 0.71615 0.0
C1133 C 0.69183 0.7095 0.69597 0.0
C1134 C 0.71573 0.71548 0.73156 0.0
C1135 C 0.72316 0.73834 0.72717 0.0
C1136 C 0.71429 0.74668 0.7073 0.0
H1137 H 0.78187 0.84788 0.8138 0.0
H1138 H 0.75613 0.82019 0.78884 0.0
C1139 C 0.69885 0.73246 0.69189 0.0
C1140 C 0.74126 0.75365 0.74263 0.0
H1141 H 0.74296 0.7755 0.79431 0.0
C1142 C 0.7674 0.76591 0.73486 0.0
C1143 C 0.73229 0.7572 0.76432 0.0
C1144 C 0.70387 0.74527 0.77332 0.0
C1145 C 0.78459 0.78183 0.74803 0.0
C1146 C 0.77575 0.78525 0.76979 0.0
C1147 C 0.7498 0.77279 0.77767 0.0
C1148 C 0.79227 0.80244 0.78434 0.0
C1149 C 0.81148 0.79537 0.73824 0.0
C1150 C 0.82133 0.80184 0.79004 0.0
C1151 C 0.83633 0.81787 0.8042 0.0
C1152 C 0.82239 0.83464 0.81315 0.0
C1153 C 0.79335 0.83525 0.80723 0.0
C1154 C 0.77851 0.81935 0.79301 0.0
H1155 H 0.81112 0.79475 0.72002 0.0
H1156 H 0.81384 0.81302 0.74349 0.0
H1157 H 0.83088 0.7886 0.74391 0.0
H1158 H 0.83226 0.78871 0.78391 0.0
H1159 H 0.85853 0.81673 0.80862 0.0
H1160 H 0.68993 0.36177 0.74782 0.0
H1161 H 0.70444 0.33786 0.71855 0.0
H1162 H 0.68761 0.28127 0.76176 0.0
H1163 H 0.67349 0.30478 0.79074 0.0
H1164 H 0.75154 0.3129 0.72392 0.0
H1165 H 0.64906 0.25749 0.70349 0.0
H1166 H 0.64991 0.28441 0.7162 0.0
H1167 H 0.65444 0.26064 0.73256 0.0
C1168 C 0.68881 0.34414 0.75082 0.0
C1169 C 0.68073 0.33515 0.77157 0.0
C1170 C 0.6971 0.33054 0.73415 0.0
C1171 C 0.69668 0.30774 0.7379 0.0
C1172 C 0.68756 0.29871 0.75834 0.0
H1173 H 0.78995 0.20714 0.72094 0.0
H1174 H 0.76673 0.23923 0.72856 0.0
C1175 C 0.67975 0.31224 0.77498 0.0
C1176 C 0.70874 0.29347 0.72178 0.0
H1177 H 0.69351 0.24199 0.69831 0.0
C1178 C 0.73871 0.29773 0.71768 0.0
C1179 C 0.69199 0.27374 0.71353 0.0
C1180 C 0.65949 0.26889 0.71648 0.0
C1181 C 0.75274 0.28182 0.70736 0.0
C1182 C 0.73636 0.26119 0.70108 0.0
C1183 C 0.70605 0.25777 0.70331 0.0
C1184 C 0.75073 0.24195 0.69555 0.0
C1185 C 0.78524 0.2866 0.70442 0.0
C1186 C 0.74901 0.23259 0.67446 0.0
C1187 C 0.7625 0.21412 0.66991 0.0
C1188 C 0.77747 0.20457 0.68653 0.0
C1189 C 0.77867 0.21395 0.70769 0.0
C1190 C 0.76552 0.23242 0.7121 0.0
H1191 H 0.79346 0.30476 0.70441 0.0
H1192 H 0.79578 0.27905 0.71819 0.0
H1193 H 0.79176 0.27929 0.68887 0.0
H1194 H 0.73743 0.23965 0.66153 0.0
H1195 H 0.76112 0.2073 0.65346 0.0
H1196 H 0.21146 0.30101 0.72873 0.0
H1197 H 0.23584 0.26982 0.73765 0.0
H1198 H 0.26397 0.26669 0.67055 0.0
H1199 H 0.23957 0.29823 0.66129 0.0
H1200 H 0.22727 0.22594 0.71836 0.0
H1201 H 0.33985 0.27212 0.70831 0.0
H1202 H 0.30902 0.28635 0.71131 0.0
H1203 H 0.3145 0.27248 0.68607 0.0
C1204 C 0.22278 0.2938 0.71576 0.0
C1205 C 0.22373 0.30235 0.69429 0.0
C1206 C 0.23664 0.27587 0.72092 0.0
C1207 C 0.25186 0.26607 0.70481 0.0
C1208 C 0.25258 0.27421 0.68326 0.0
H1209 H 0.31777 0.1481 0.75714 0.0
H1210 H 0.30076 0.17117 0.72838 0.0
C1211 C 0.23859 0.29222 0.67802 0.0
C1212 C 0.26727 0.24764 0.71117 0.0
H1213 H 0.33466 0.23688 0.72462 0.0
C1214 C 0.25078 0.22802 0.71925 0.0
C1215 C 0.29792 0.25055 0.71234 0.0
C1216 C 0.31654 0.27151 0.70417 0.0
C1217 C 0.26405 0.21181 0.72977 0.0
C1218 C 0.29464 0.21526 0.73199 0.0
C1219 C 0.31123 0.23424 0.72269 0.0
C1220 C 0.30905 0.20162 0.74727 0.0
C1221 C 0.24515 0.19196 0.73991 0.0
C1222 C 0.32041 0.2113 0.76693 0.0
C1223 C 0.33006 0.19829 0.78324 0.0
C1224 C 0.32871 0.17527 0.78022 0.0
C1225 C 0.31909 0.16578 0.75994 0.0
C1226 C 0.30922 0.17889 0.74356 0.0
H1227 H 0.22165 0.19299 0.73864 0.0
H1228 H 0.24902 0.17658 0.73147 0.0
H1229 H 0.25076 0.19048 0.7575 0.0
H1230 H 0.3205 0.22881 0.77011 0.0
H1231 H 0.33761 0.20618 0.79858 0.0
H1232 H 0.21657 0.96419 0.31639 0.0
H1233 H 0.21911 0.99951 0.29646 0.0
H1234 H 0.17311 0.96457 0.24209 0.0
H1235 H 0.16904 0.92973 0.26242 0.0
H1236 H 0.24044 0.01731 0.25934 0.0
H1237 H 0.12086 0.0082 0.25421 0.0
H1238 H 0.13877 0.98968 0.2703 0.0
H1239 H 0.13366 0.9853 0.2412 0.0
C1240 C 0.20725 0.96411 0.30011 0.0
C1241 C 0.19226 0.94432 0.29106 0.0
C1242 C 0.20866 0.98428 0.28873 0.0
C1243 C 0.19547 0.98488 0.268 0.0
C1244 C 0.18244 0.96477 0.25837 0.0
H1245 H 0.21925 0.09877 0.17777 0.0
H1246 H 0.22523 0.0652 0.1983 0.0
C1247 C 0.18036 0.94481 0.26992 0.0
C1248 C 0.19428 0.00645 0.25673 0.0
H1249 H 0.14749 0.03609 0.23158 0.0
C1250 C 0.22009 0.02152 0.25341 0.0
C1251 C 0.16767 0.01228 0.24939 0.0
C1252 C 0.13868 0.99812 0.25418 0.0
C1253 C 0.22008 0.04197 0.24262 0.0
C1254 C 0.19365 0.04717 0.23418 0.0
C1255 C 0.16787 0.03216 0.23777 0.0
C1256 C 0.19165 0.06825 0.22216 0.0
C1257 C 0.2483 0.05795 0.24099 0.0
C1258 C 0.17036 0.081 0.22822 0.0
C1259 C 0.16628 0.09965 0.21605 0.0
C1260 C 0.18378 0.10636 0.19775 0.0
C1261 C 0.20567 0.09409 0.19195 0.0
C1262 C 0.20925 0.075 0.20383 0.0
H1263 H 0.2637 0.05494 0.25415 0.0
H1264 H 0.25872 0.05553 0.22502 0.0
H1265 H 0.24471 0.07548 0.24212 0.0
H1266 H 0.1565 0.07632 0.24226 0.0
H1267 H 0.14935 0.10885 0.22101 0.0
H1268 H 0.77743 0.39605 0.18967 0.0
H1269 H 0.76977 0.4315 0.20605 0.0
H1270 H 0.86232 0.45064 0.21383 0.0
H1271 H 0.87018 0.4158 0.1972 0.0
H1272 H 0.78458 0.45087 0.24661 0.0
H1273 H 0.84082 0.503 0.18044 0.0
H1274 H 0.83047 0.47329 0.17773 0.0
H1275 H 0.86326 0.48474 0.19208 0.0
C1276 C 0.79613 0.40785 0.19483 0.0
C1277 C 0.82443 0.40313 0.19187 0.0
C1278 C 0.79172 0.42808 0.20423 0.0
C1279 C 0.81551 0.44395 0.21079 0.0
C1280 C 0.84365 0.43895 0.2084 0.0
H1281 H 0.82935 0.55711 0.29823 0.0
H1282 H 0.82298 0.51961 0.28268 0.0
C1283 C 0.84809 0.41891 0.19893 0.0
C1284 C 0.81128 0.46581 0.22008 0.0
H1285 H 0.83309 0.52167 0.21386 0.0
C1286 C 0.7949 0.46639 0.23934 0.0
C1287 C 0.82429 0.4861 0.21041 0.0
C1288 C 0.84043 0.48681 0.1889 0.0
C1289 C 0.79212 0.48666 0.24961 0.0
C1290 C 0.80662 0.50688 0.24063 0.0
C1291 C 0.82214 0.50625 0.22095 0.0
C1292 C 0.80669 0.52894 0.25132 0.0
C1293 C 0.77347 0.48615 0.26986 0.0
C1294 C 0.79968 0.54682 0.23902 0.0
C1295 C 0.80385 0.56833 0.24774 0.0
C1296 C 0.81487 0.57247 0.26907 0.0
C1297 C 0.82044 0.55443 0.28185 0.0
C1298 C 0.81668 0.53291 0.27298 0.0
H1299 H 0.75663 0.47101 0.27025 0.0
H1300 H 0.78734 0.48586 0.28462 0.0
H1301 H 0.76255 0.50101 0.27081 0.0
H1302 H 0.79193 0.54427 0.2223 0.0
H1303 H 0.79933 0.58187 0.23748 0.0
H1304 H 0.29669 0.09091 0.91494 0.0
H1305 H 0.26787 0.08724 0.94894 0.0
H1306 H 0.26161 0.15696 0.94615 0.0
H1307 H 0.28994 0.16077 0.91254 0.0
H1308 H 0.27687 0.11 0.99005 0.0
H1309 H 0.17644 0.12689 0.94972 0.0
H1310 H 0.20672 0.11956 0.9345 0.0
H1311 H 0.20722 0.1477 0.94366 0.0
C1312 C 0.28932 0.10546 0.92168 0.0
C1313 C 0.29534 0.12606 0.91082 0.0
C1314 C 0.27278 0.10332 0.94105 0.0
C1315 C 0.26196 0.12171 0.94976 0.0
C1316 C 0.26902 0.14241 0.93942 0.0
H1317 H 0.18381 0.17306 0.0579 0.0
H1318 H 0.20426 0.16314 0.02315 0.0
C1319 C 0.28539 0.14456 0.92019 0.0
C1320 C 0.2434 0.11975 0.9697 0.0
H1321 H 0.17905 0.13207 0.98887 0.0
C1322 C 0.25522 0.11433 0.98978 0.0
C1323 C 0.21508 0.12529 0.96929 0.0
C1324 C 0.20048 0.12996 0.94809 0.0
C1325 C 0.24024 0.11579 0.00963 0.0
C1326 C 0.21265 0.12263 0.00929 0.0
C1327 C 0.20023 0.12691 0.9891 0.0
C1328 C 0.19787 0.12784 0.02976 0.0
C1329 C 0.25466 0.11128 0.03094 0.0
C1330 C 0.18665 0.11117 0.04477 0.0
C1331 C 0.17465 0.11679 0.06471 0.0
C1332 C 0.17391 0.13918 0.06997 0.0
C1333 C 0.18415 0.15567 0.05444 0.0
C1334 C 0.19586 0.15004 0.03455 0.0
H1335 H 0.27749 0.10871 0.02855 0.0
H1336 H 0.25444 0.12533 0.04253 0.0
H1337 H 0.24238 0.09613 0.03863 0.0
H1338 H 0.18768 0.0939 0.04125 0.0
H1339 H 0.16707 0.10371 0.07633 0.0
H1340 H 0.78418 0.34005 0.07193 0.0
H1341 H 0.76483 0.35032 0.03719 0.0
H1342 H 0.84876 0.38676 0.01968 0.0
H1343 H 0.8688 0.37608 0.05475 0.0
H1344 H 0.7617 0.39202 0.01995 0.0
H1345 H 0.82798 0.34506 0.96697 0.0
H1346 H 0.82516 0.34072 0.99621 0.0
H1347 H 0.84729 0.3652 0.98552 0.0
C1348 C 0.79877 0.35018 0.06077 0.0
C1349 C 0.82824 0.35702 0.06613 0.0
C1350 C 0.78752 0.35615 0.04088 0.0
C1351 C 0.80533 0.36912 0.0257 0.0
C1352 C 0.83469 0.37644 0.03102 0.0
H1353 H 0.74282 0.38827 0.89143 0.0
H1354 H 0.77263 0.39532 0.92465 0.0
C1355 C 0.84608 0.37041 0.0511 0.0
C1356 C 0.79257 0.37437 1.00434 0.0
H1357 H 0.79125 0.36093 0.94986 0.0
C1358 C 0.76847 0.38553 0.00456 0.0
C1359 C 0.80144 0.36598 0.98423 0.0
C1360 C 0.82675 0.35344 0.98306 0.0
C1361 C 0.75226 0.38763 0.98547 0.0
C1362 C 0.76013 0.37813 0.96565 0.0
C1363 C 0.78523 0.36816 0.9651 0.0
C1364 C 0.74099 0.37622 0.94601 0.0
C1365 C 0.72637 0.39952 0.98679 0.0
C1366 C 0.71319 0.36336 0.94703 0.0
C1367 C 0.69619 0.35922 0.92812 0.0
C1368 C 0.7066 0.36789 0.90775 0.0
C1369 C 0.73401 0.38153 0.9069 0.0
C1370 C 0.75116 0.38548 0.92583 0.0
H1371 H 0.72841 0.41146 1.0007 0.0
H1372 H 0.72363 0.40864 0.97136 0.0
H1373 H 0.70646 0.38714 0.98943 0.0
H1374 H 0.70509 0.35573 0.96232 0.0
H1375 H 0.67527 0.34859 0.92935 0.0
H1376 H 0.34757 0.88835 0.56536 0.0
H1377 H 0.32413 0.89861 0.53159 0.0
H1378 H 0.27085 0.83383 0.52992 0.0
H1379 H 0.29351 0.8237 0.56356 0.0
H1380 H 0.32041 0.88164 0.49055 0.0
H1381 H 0.2099 0.87333 0.52501 0.0
H1382 H 0.24163 0.87369 0.54204 0.0
H1383 H 0.22471 0.84829 0.52905 0.0
C1384 C 0.3309 0.8763 0.55774 0.0
C1385 C 0.32222 0.85529 0.56733 0.0
C1386 C 0.31745 0.88221 0.53849 0.0
C1387 C 0.29509 0.86723 0.52853 0.0
C1388 C 0.28729 0.84598 0.53766 0.0
H1389 H 0.2362 0.85053 0.3973 0.0
H1390 H 0.26174 0.85365 0.43211 0.0
C1391 C 0.3005 0.84014 0.55686 0.0
C1392 C 0.28024 0.87327 0.5083 0.0
H1393 H 0.21289 0.87116 0.48551 0.0
C1394 C 0.29692 0.8797 0.48954 0.0
C1395 C 0.2496 0.87138 0.50701 0.0
C1396 C 0.23047 0.86655 0.52694 0.0
C1397 C 0.28374 0.88283 0.46927 0.0
C1398 C 0.25301 0.87882 0.46754 0.0
C1399 C 0.2364 0.87386 0.48662 0.0
C1400 C 0.23776 0.8779 0.44596 0.0
C1401 C 0.30299 0.89026 0.44991 0.0
C1402 C 0.2148 0.88985 0.44221 0.0
C1403 C 0.19956 0.88775 0.42223 0.0
C1404 C 0.20704 0.87367 0.40563 0.0
C1405 C 0.23001 0.86177 0.40951 0.0
C1406 C 0.24493 0.8637 0.42944 0.0
H1407 H 0.3237 0.9005 0.4553 0.0
H1408 H 0.30852 0.87542 0.44135 0.0
H1409 H 0.29213 0.90007 0.43808 0.0
H1410 H 0.20861 0.90074 0.45478 0.0
H1411 H 0.18196 0.8971 0.41981 0.0
H1412 H 0.65767 0.62216 0.5643 0.0
H1413 H 0.67917 0.61169 0.52981 0.0
H1414 H 0.73645 0.67478 0.52902 0.0
H1415 H 0.7158 0.68503 0.56342 0.0
H1416 H 0.68231 0.62922 0.48955 0.0
H1417 H 0.79399 0.6333 0.52075 0.0
H1418 H 0.76343 0.63382 0.53876 0.0
H1419 H 0.78122 0.659 0.52588 0.0
C1420 C 0.67485 0.63377 0.55674 0.0
C1421 C 0.6852 0.65433 0.56676 0.0
C1422 C 0.68718 0.62775 0.53707 0.0
C1423 C 0.71006 0.64218 0.5271 0.0
C1424 C 0.71961 0.663 0.53673 0.0
H1425 H 0.76233 0.66045 0.39471 0.0
H1426 H 0.73862 0.65702 0.4302 0.0
C1427 C 0.70754 0.66893 0.55637 0.0
C1428 C 0.7235 0.63609 0.50626 0.0
H1429 H 0.78928 0.63685 0.48141 0.0
C1430 C 0.70567 0.63053 0.48786 0.0
C1431 C 0.75393 0.63712 0.50406 0.0
C1432 C 0.77418 0.64088 0.52351 0.0
C1433 C 0.71756 0.62747 0.46711 0.0
C1434 C 0.74817 0.63072 0.46451 0.0
C1435 C 0.76586 0.63477 0.4832 0.0
C1436 C 0.76223 0.63182 0.44249 0.0
C1437 C 0.69709 0.62093 0.44818 0.0
C1438 C 0.78441 0.61942 0.43764 0.0
C1439 C 0.79862 0.6217 0.41726 0.0
C1440 C 0.79088 0.6364 0.40137 0.0
C1441 C 0.76868 0.64872 0.40635 0.0
C1442 C 0.7548 0.64663 0.42668 0.0
H1443 H 0.67639 0.61098 0.45394 0.0
H1444 H 0.69171 0.63616 0.44031 0.0
H1445 H 0.70684 0.61113 0.43568 0.0
H1446 H 0.7908 0.60805 0.44965 0.0
H1447 H 0.81566 0.61201 0.41399 0.0
H1448 H 0.93705 0.31699 0.15812 0.0
H1449 H 0.97583 0.29561 0.15174 0.0
H1450 H 0.93192 0.26657 0.09387 0.0
H1451 H 0.89238 0.28805 0.10019 0.0
H1452 H 0.95111 0.23532 0.12125 0.0
H1453 H 0.04062 0.30496 0.10637 0.0
H1454 H 0.0214 0.30869 0.13121 0.0
H1455 H 1.00287 0.30828 0.10526 0.0
C1456 C 0.93556 0.30629 0.14383 0.0
C1457 C 0.91149 0.30446 0.12956 0.0
C1458 C 0.958 0.29412 0.14015 0.0
C1459 C 0.95719 0.2798 0.12208 0.0
C1460 C 0.93319 0.27772 0.1078 0.0
H1461 H 0.11148 0.21483 0.10093 0.0
H1462 H 0.07166 0.23576 0.09376 0.0
C1463 C 0.91062 0.29004 0.11142 0.0
C1464 C 0.98078 0.26622 0.11912 0.0
H1465 H 0.05474 0.27029 0.11755 0.0
C1466 C 0.97373 0.24296 0.12006 0.0
C1467 C 0.01033 0.27609 0.11722 0.0
C1468 C 0.01926 0.30087 0.11472 0.0
C1469 C 0.99548 0.22943 0.12049 0.0
C1470 C 0.0251 0.23943 0.12031 0.0
C1471 C 0.03209 0.26259 0.118 0.0
C1472 C 0.049 0.22632 0.12412 0.0
C1473 C 0.98648 0.20454 0.12146 0.0
C1474 C 0.04984 0.21438 0.1437 0.0
C1475 C 0.07248 0.2025 0.14787 0.0
C1476 C 0.09508 0.20228 0.13259 0.0
C1477 C 0.0944 0.21447 0.11302 0.0
C1478 C 0.07165 0.22645 0.10889 0.0
H1479 H 0.96446 0.19936 0.11438 0.0
H1480 H 1.00209 0.19584 0.11253 0.0
H1481 H 0.9858 0.19911 0.13885 0.0
H1482 H 0.03311 0.21448 0.15599 0.0
H1483 H 0.07224 0.19359 0.16324 0.0
H1484 H 0.88294 0.69695 0.37369 0.0
H1485 H 0.92552 0.72504 0.38161 0.0
H1486 H 0.96704 0.7063 0.32286 0.0
H1487 H 0.92544 0.67771 0.31539 0.0
H1488 H 0.00543 0.71408 0.35458 0.0
H1489 H 0.94244 0.7839 0.35169 0.0
H1490 H 0.93066 0.76369 0.37252 0.0
H1491 H 0.92684 0.75595 0.34404 0.0
C1492 C 0.90125 0.69869 0.36256 0.0
C1493 C 0.90057 0.68513 0.3438 0.0
C1494 C 0.92552 0.7149 0.36702 0.0
C1495 C 0.94931 0.71821 0.35256 0.0
C1496 C 0.94899 0.70419 0.33425 0.0
H1497 H 0.07012 0.83304 0.32069 0.0
H1498 H 0.02938 0.80347 0.32663 0.0
C1499 C 0.92504 0.68782 0.32997 0.0
C1500 C 0.97431 0.73654 0.35586 0.0
H1501 H 0.99248 0.79308 0.35877 0.0
C1502 C 1.0026 0.73136 0.35564 0.0
C1503 C 0.97067 0.75914 0.35709 0.0
C1504 C 0.94106 0.76609 0.35615 0.0
C1505 C 0.02725 0.74806 0.35577 0.0
C1506 C 0.02359 0.77066 0.35693 0.0
C1507 C 0.99532 0.77579 0.35802 0.0
C1508 C 0.04842 0.78928 0.35456 0.0
C1509 C 0.05684 0.74132 0.3534 0.0
C1510 C 0.07275 0.79159 0.36854 0.0
C1511 C 0.09658 0.80847 0.36495 0.0
C1512 C 0.09629 0.82359 0.34754 0.0
C1513 C 0.07134 0.82173 0.33422 0.0
C1514 C 0.04784 0.80478 0.33763 0.0
H1515 H 0.05537 0.72394 0.34744 0.0
H1516 H 0.07062 0.75246 0.34183 0.0
H1517 H 0.06779 0.74244 0.36962 0.0
H1518 H 0.07346 0.78024 0.3821 0.0
H1519 H 0.11531 0.80948 0.37563 0.0
H1520 H 0.61438 0.71839 0.60041 0.0
H1521 H 0.5744 0.73941 0.59468 0.0
H1522 H 0.53409 0.71238 0.65454 0.0
H1523 H 0.57331 0.69109 0.66018 0.0
H1524 H 0.49444 0.7123 0.62161 0.0
H1525 H 0.56379 0.79529 0.62799 0.0
H1526 H 0.57419 0.77745 0.607 0.0
H1527 H 0.57676 0.76997 0.63536 0.0
C1528 C 0.59694 0.71683 0.61231 0.0
C1529 C 0.59727 0.70305 0.63081 0.0
C1530 C 0.57416 0.72899 0.60908 0.0
C1531 C 0.55138 0.72776 0.62435 0.0
C1532 C 0.55138 0.71367 0.64253 0.0
H1533 H 0.43526 0.81577 0.6604 0.0
H1534 H 0.47411 0.79419 0.65475 0.0
C1535 C 0.57399 0.70151 0.64574 0.0
C1536 C 0.52762 0.74129 0.62189 0.0
H1537 H 0.51386 0.79471 0.6219 0.0
C1538 C 0.49868 0.73033 0.62146 0.0
C1539 C 0.53312 0.76483 0.62189 0.0
C1540 C 0.5636 0.77766 0.62327 0.0
C1541 C 0.47517 0.74218 0.6216 0.0
C1542 C 0.48068 0.76572 0.62176 0.0
C1543 C 0.50962 0.77668 0.62161 0.0
C1544 C 0.45696 0.77926 0.62428 0.0
C1545 C 0.44467 0.72938 0.62264 0.0
C1546 C 0.43432 0.77836 0.60887 0.0
C1547 C 0.41173 0.79073 0.6121 0.0
C1548 C 0.41146 0.80436 0.63074 0.0
C1549 C 0.43454 0.8055 0.64584 0.0
C1550 C 0.45694 0.79316 0.64263 0.0
H1551 H 0.44439 0.71167 0.62709 0.0
H1552 H 0.43145 0.73692 0.6348 0.0
H1553 H 0.4342 0.72986 0.60634 0.0
H1554 H 0.43409 0.76808 0.59436 0.0
H1555 H 0.39442 0.78947 0.60009 0.0
H1556 H 0.80904 0.07723 0.72106 0.0
H1557 H 0.80735 0.04225 0.74109 0.0
H1558 H 0.89031 0.0671 0.77059 0.0
H1559 H 0.89194 0.10224 0.75099 0.0
H1560 H 0.84216 0.01061 0.74213 0.0
H1561 H 0.8407 0.04944 0.82418 0.0
H1562 H 0.83543 0.06417 0.79922 0.0
H1563 H 0.87147 0.06137 0.80807 0.0
C1564 C 0.8271 0.0752 0.73164 0.0
C1565 C 0.85056 0.09266 0.7345 0.0
C1566 C 0.82603 0.05519 0.74316 0.0
C1567 C 0.84834 0.0522 0.75781 0.0
C1568 C 0.87241 0.06921 0.7599 0.0
H1569 H 0.8875 0.92929 0.81095 0.0
H1570 H 0.88466 0.96309 0.79051 0.0
C1571 C 0.87344 0.08925 0.74849 0.0
C1572 C 0.84645 0.03136 0.77092 0.0
H1573 H 0.84873 0.01177 0.82337 0.0
C1574 C 0.84343 0.01087 0.7599 0.0
C1575 C 0.84746 0.03156 0.79417 0.0
C1576 C 0.84863 0.05279 0.80714 0.0
C1577 C 0.8424 0.99075 0.77138 0.0
C1578 C 0.84504 0.99108 0.79455 0.0
C1579 C 0.84706 0.01148 0.80562 0.0
C1580 C 0.84669 0.97056 0.80747 0.0
C1581 C 0.83819 0.96928 0.75854 0.0
C1582 C 0.82691 0.96377 0.8245 0.0
C1583 C 0.82867 0.94441 0.83657 0.0
C1584 C 0.85038 0.93151 0.83192 0.0
C1585 C 0.87038 0.93864 0.81505 0.0
C1586 C 0.86866 0.95794 0.80313 0.0
H1587 H 0.8275 0.97111 0.7425 0.0
H1588 H 0.85971 0.96448 0.75519 0.0
H1589 H 0.8249 0.95562 0.76783 0.0
H1590 H 0.80988 0.97332 0.82829 0.0
H1591 H 0.81289 0.93948 0.84939 0.0
H1592 H 0.11294 0.57523 0.81999 0.0
H1593 H 0.11479 0.54191 0.79853 0.0
H1594 H 0.2047 0.5443 0.81658 0.0
H1595 H 0.20237 0.57697 0.83946 0.0
H1596 H 0.14295 0.53602 0.76407 0.0
H1597 H 0.17745 0.48046 0.82708 0.0
H1598 H 0.16658 0.50665 0.83402 0.0
H1599 H 0.20289 0.5057 0.8244 0.0
C1600 C 0.13298 0.56845 0.8199 0.0
C1601 C 0.15739 0.57872 0.83181 0.0
C1602 C 0.13407 0.54939 0.80739 0.0
C1603 C 0.15975 0.54021 0.80605 0.0
C1604 C 0.18431 0.55051 0.8178 0.0
H1605 H 0.18618 0.44997 0.69831 0.0
H1606 H 0.18432 0.48256 0.72135 0.0
C1607 C 0.18302 0.56935 0.83079 0.0
C1608 C 0.16084 0.52056 0.79154 0.0
H1609 H 0.17912 0.4685 0.79 0.0
C1610 C 0.1507 0.52121 0.76985 0.0
C1611 C 0.17057 0.50101 0.79899 0.0
C1612 C 0.17969 0.49828 0.82245 0.0
C1613 C 0.14991 0.50303 0.75551 0.0
C1614 C 0.16081 0.48385 0.76265 0.0
C1615 C 0.17097 0.48319 0.78434 0.0
C1616 C 0.16139 0.46411 0.74817 0.0
C1617 C 0.13643 0.50441 0.73314 0.0
C1618 C 0.1499 0.44267 0.75563 0.0
C1619 C 0.15166 0.42395 0.74269 0.0
C1620 C 0.16456 0.42624 0.7218 0.0
C1621 C 0.17558 0.44768 0.71413 0.0
C1622 C 0.1744 0.46638 0.7273 0.0
H1623 H 0.12079 0.51635 0.73304 0.0
H1624 H 0.15375 0.51041 0.7211 0.0
H1625 H 0.12486 0.48796 0.72764 0.0
H1626 H 0.13978 0.44035 0.77163 0.0
H1627 H 0.14311 0.40764 0.74912 0.0
H1628 H 0.71514 0.88583 0.09459 0.0
H1629 H 0.74008 0.89483 0.05996 0.0
H1630 H 0.82183 0.8887 0.0905 0.0
H1631 H 0.79669 0.87877 0.1253 0.0
H1632 H 0.78185 0.92706 0.04613 0.0
H1633 H 0.82118 0.84589 0.0402 0.0
H1634 H 0.79534 0.85128 0.06067 0.0
H1635 H 0.83332 0.86202 0.06407 0.0
C1636 C 0.73845 0.88644 0.09409 0.0
C1637 C 0.75381 0.88122 0.11276 0.0
C1638 C 0.75274 0.89168 0.07419 0.0
C1639 C 0.78279 0.89198 0.07238 0.0
C1640 C 0.79851 0.88798 0.09127 0.0
H1641 H 0.88146 0.90701 0.94775 0.0
H1642 H 0.87062 0.90858 0.98715 0.0
C1643 C 0.78414 0.88251 0.11124 0.0
C1644 C 0.79699 0.89578 0.05048 0.0
H1645 H 0.83258 0.87081 0.0109 0.0
C1646 C 0.79319 0.91484 0.03855 0.0
C1647 C 0.8118 0.87984 0.04046 0.0
C1648 C 0.8155 0.85851 0.05188 0.0
C1649 C 0.803 0.91805 0.01681 0.0
C1650 C 0.81701 0.90184 0.00667 0.0
C1651 C 0.82195 0.88327 0.0188 0.0
C1652 C 0.82397 0.90268 0.98288 0.0
C1653 C 0.79778 0.93855 0.00461 0.0
C1654 C 0.80136 0.89891 0.96747 0.0
C1655 C 0.80744 0.89779 0.9451 0.0
C1656 C 0.83632 0.90057 0.93757 0.0
C1657 C 0.859 0.90498 0.95299 0.0
C1658 C 0.85286 0.9058 0.97549 0.0
H1659 H 0.79285 0.95172 0.01595 0.0
H1660 H 0.81699 0.94534 0.99452 0.0
H1661 H 0.77899 0.93408 0.99338 0.0
H1662 H 0.77893 0.89622 0.97283 0.0
H1663 H 0.78944 0.89438 0.93369 0.0
H1664 H 0.13906 0.59924 0.94603 0.0
H1665 H 0.15153 0.60074 0.98527 0.0
H1666 H 0.24037 0.62733 0.96933 0.0
H1667 H 0.22823 0.62607 0.93042 0.0
H1668 H 0.19597 0.58311 0.01136 0.0
H1669 H 0.21227 0.67526 0.00865 0.0
H1670 H 0.19355 0.65811 0.98723 0.0
H1671 H 0.23258 0.66297 0.98832 0.0
C1672 C 0.16133 0.60509 0.95089 0.0
C1673 C 0.18255 0.61279 0.93507 0.0
C1674 C 0.16841 0.60594 0.97331 0.0
C1675 C 0.19677 0.61449 0.98022 0.0
C1676 C 0.21825 0.62102 0.96439 0.0
H1677 H 0.28918 0.62021 0.10367 0.0
H1678 H 0.26609 0.60789 0.06871 0.0
C1679 C 0.21123 0.62026 0.94211 0.0
C1680 C 0.20387 0.61806 1.00386 0.0
H1681 H 0.22888 0.65899 0.0406 0.0
C1682 C 0.20292 0.59968 0.01787 0.0
C1683 C 0.21253 0.63971 0.01239 0.0
C1684 C 0.21257 0.66018 0.99845 0.0
C1685 C 0.21136 0.6024 0.04005 0.0
C1686 C 0.22133 0.62404 0.04829 0.0
C1687 C 0.2214 0.64238 0.03435 0.0
C1688 C 0.23238 0.62837 0.0711 0.0
C1689 C 0.20933 0.58211 0.05445 0.0
C1690 C 0.22102 0.64378 0.08432 0.0
C1691 C 0.23441 0.65105 0.10413 0.0
C1692 C 0.25942 0.64302 0.11128 0.0
C1693 C 0.26974 0.62653 0.09876 0.0
C1694 C 0.25648 0.61942 0.07876 0.0
H1695 H 0.19334 0.56813 0.04791 0.0
H1696 H 0.23084 0.57658 0.05502 0.0
H1697 H 0.20304 0.58579 0.07145 0.0
H1698 H 0.20247 0.65094 0.07882 0.0
H1699 H 0.22588 0.66372 0.1134 0.0
H1700 H 0.63406 0.08391 0.44491 0.0
H1701 H 0.64272 0.08293 0.48479 0.0
H1702 H 0.71711 0.1345 0.47788 0.0
H1703 H 0.70895 0.13558 0.43858 0.0
H1704 H 0.69948 0.07696 0.50784 0.0
H1705 H 0.66212 0.15705 0.52533 0.0
H1706 H 0.65097 0.14061 0.50118 0.0
H1707 H 0.68615 0.1577 0.50222 0.0
C1708 C 0.6523 0.09497 0.45192 0.0
C1709 C 0.67078 0.1098 0.43846 0.0
C1710 C 0.6572 0.09438 0.47467 0.0
C1711 C 0.68038 0.10883 0.48427 0.0
C1712 C 0.69893 0.12338 0.47085 0.0
H1713 H 0.79066 0.12461 0.5941 0.0
H1714 H 0.76436 0.11366 0.56025 0.0
C1715 C 0.69425 0.12387 0.44828 0.0
C1716 C 0.68586 0.10903 0.50827 0.0
H1717 H 0.69257 0.14408 0.55237 0.0
C1718 C 0.69742 0.09141 0.51775 0.0
C1719 C 0.68292 0.1278 0.52123 0.0
C1720 C 0.66962 0.14682 0.51208 0.0
C1721 C 0.70781 0.0927 0.53948 0.0
C1722 C 0.70687 0.11221 0.55191 0.0
C1723 C 0.69352 0.12918 0.54285 0.0
C1724 C 0.722 0.11638 0.57339 0.0
C1725 C 0.72031 0.07336 0.54875 0.0
C1726 C 0.70704 0.12171 0.59216 0.0
C1727 C 0.72212 0.12808 0.61167 0.0
C1728 C 0.75251 0.12956 0.61266 0.0
C1729 C 0.76726 0.12365 0.59398 0.0
C1730 C 0.7522 0.11719 0.5746 0.0
H1731 H 0.71094 0.05753 0.54054 0.0
H1732 H 0.74413 0.07611 0.54595 0.0
H1733 H 0.71632 0.07162 0.56667 0.0
H1734 H 0.68377 0.1214 0.59156 0.0
H1735 H 0.71009 0.13262 0.62569 0.0
H1736 H 0.29086 0.34877 0.61563 0.0
H1737 H 0.31468 0.36205 0.5814 0.0
H1738 H 0.24977 0.40384 0.57055 0.0
H1739 H 0.22619 0.391 0.60512 0.0
H1740 H 0.28857 0.35357 0.54284 0.0
H1741 H 0.32225 0.44461 0.55055 0.0
H1742 H 0.31281 0.42683 0.57401 0.0
H1743 H 0.2848 0.43568 0.55751 0.0
C1744 C 0.2821 0.36127 0.60628 0.0
C1745 C 0.25657 0.36877 0.61308 0.0
C1746 C 0.29575 0.36884 0.58668 0.0
C1747 C 0.28416 0.38402 0.57336 0.0
C1748 C 0.25954 0.39249 0.5807 0.0
H1749 H 0.2854 0.38801 0.43343 0.0
H1750 H 0.27471 0.38727 0.47255 0.0
C1751 C 0.246 0.38507 0.60048 0.0
C1752 C 0.29543 0.38851 0.55066 0.0
H1753 H 0.31989 0.42971 0.51389 0.0
C1754 C 0.29576 0.37024 0.53667 0.0
C1755 C 0.30497 0.41023 0.54252 0.0
C1756 C 0.30649 0.43046 0.557 0.0
C1757 C 0.30447 0.37306 0.51471 0.0
C1758 C 0.31269 0.39477 0.50629 0.0
C1759 C 0.31334 0.41309 0.52036 0.0
C1760 C 0.31914 0.3984 0.4826 0.0
C1761 C 0.3045 0.35273 0.50055 0.0
C1762 C 0.34759 0.40574 0.47521 0.0
C1763 C 0.35387 0.40622 0.45266 0.0
C1764 C 0.33175 0.39932 0.43725 0.0
C1765 C 0.30306 0.39317 0.4448 0.0
C1766 C 0.29686 0.39276 0.46719 0.0
H1767 H 0.30439 0.33749 0.51055 0.0
H1768 H 0.28476 0.35023 0.49008 0.0
H1769 H 0.32378 0.35484 0.48961 0.0
H1770 H 0.36509 0.41019 0.48688 0.0
H1771 H 0.37617 0.41103 0.44739 0.0
H1772 H 0.12245 0.72636 0.87008 0.0
H1773 H 0.08812 0.75252 0.87449 0.0
H1774 H 0.0172 0.69767 0.87822 0.0
H1775 H 0.05119 0.67151 0.87419 0.0
H1776 H 0.04326 0.75676 0.84614 0.0
H1777 H 0.99926 0.73604 0.9293 0.0
H1778 H 0.03216 0.72732 0.9195 0.0
H1779 H 0.99725 0.71226 0.91165 0.0
C1780 C 0.09961 0.71985 0.87224 0.0
C1781 C 0.08963 0.69681 0.87177 0.0
C1782 C 0.08 0.73484 0.87471 0.0
C1783 C 0.05009 0.72708 0.87697 0.0
C1784 C 0.04019 0.70408 0.877 0.0
H1785 H 0.89203 0.78534 0.87133 0.0
H1786 H 0.92821 0.7605 0.87506 0.0
C1787 C 0.05972 0.68912 0.87453 0.0
C1788 C 0.02896 0.74292 0.87749 0.0
H1789 H 0.97285 0.75803 0.9069 0.0
C1790 C 0.02809 0.7572 0.85954 0.0
C1791 C 0.00897 0.74336 0.8949 0.0
C1792 C 0.00956 0.72908 0.91503 0.0
C1793 C 0.0074 0.77152 0.85826 0.0
C1794 C 0.98729 0.77188 0.87559 0.0
C1795 C 0.98823 0.7577 0.89362 0.0
C1796 C 0.96524 0.78695 0.87517 0.0
C1797 C 0.00671 0.7857 0.83803 0.0
C1798 C 0.97399 0.81007 0.87471 0.0
C1799 C 0.95346 0.82426 0.87256 0.0
C1800 C 0.92363 0.81567 0.87096 0.0
C1801 C 0.9148 0.79252 0.87245 0.0
C1802 C 0.93544 0.7783 0.87457 0.0
H1803 H 0.01845 0.77946 0.82409 0.0
H1804 H 0.98401 0.78627 0.83287 0.0
H1805 H 0.01738 0.80292 0.84173 0.0
H1806 H 0.99682 0.81714 0.87562 0.0
H1807 H 0.96109 0.842 0.87171 0.0
H1808 H 0.08967 0.3351 0.71739 0.0
H1809 H 0.04407 0.30887 0.72084 0.0
H1810 H 0.07237 0.26797 0.67003 0.0
H1811 H 0.11694 0.29434 0.66584 0.0
H1812 H 0.01959 0.27269 0.66251 0.0
H1813 H 0.02662 0.24949 0.74995 0.0
H1814 H 0.02802 0.27881 0.74606 0.0
H1815 H 0.05676 0.26538 0.73548 0.0
C1816 C 0.08612 0.3205 0.70698 0.0
C1817 C 0.10697 0.31696 0.69125 0.0
C1818 C 0.06016 0.30536 0.70913 0.0
C1819 C 0.05486 0.28615 0.69596 0.0
C1820 C 0.07582 0.28259 0.68042 0.0
H1821 H 0.91752 0.16997 0.70908 0.0
H1822 H 0.9633 0.1964 0.7123 0.0
C1823 C 0.10139 0.2978 0.67802 0.0
C1824 C 0.02701 0.27021 0.69723 0.0
H1825 H 0.98157 0.23678 0.73188 0.0
C1826 C 0.01143 0.26481 0.67771 0.0
C1827 C 0.01641 0.25956 0.71696 0.0
C1828 C 0.03296 0.26341 0.73826 0.0
C1829 C 0.98571 0.24928 0.67731 0.0
C1830 C 0.97436 0.23941 0.69717 0.0
C1831 C 0.99003 0.24454 0.71671 0.0
C1832 C 0.94613 0.22397 0.69774 0.0
C1833 C 0.97139 0.24324 0.6554 0.0
C1834 C 0.92103 0.23089 0.68939 0.0
C1835 C 0.8953 0.21583 0.68718 0.0
C1836 C 0.89376 0.1936 0.69386 0.0
C1837 C 0.91818 0.18699 0.70376 0.0
C1838 C 0.94428 0.20207 0.70558 0.0
H1839 H 0.98719 0.24653 0.6417 0.0
H1840 H 0.96133 0.22545 0.65483 0.0
H1841 H 0.95418 0.25353 0.65261 0.0
H1842 H 0.92157 0.24786 0.68393 0.0
H1843 H 0.87663 0.22151 0.67988 0.0
H1844 H 0.54834 0.16976 0.3667 0.0
H1845 H 0.51408 0.19583 0.37035 0.0
H1846 H 0.58536 0.25002 0.37745 0.0
H1847 H 0.62 0.22403 0.37345 0.0
H1848 H 0.50478 0.22569 0.40331 0.0
H1849 H 0.53976 0.26962 0.32565 0.0
H1850 H 0.55032 0.24338 0.33293 0.0
H1851 H 0.56838 0.26873 0.34519 0.0
C1852 C 0.55684 0.18721 0.36914 0.0
C1853 C 0.58701 0.19482 0.36953 0.0
C1854 C 0.53716 0.20209 0.37127 0.0
C1855 C 0.54712 0.22492 0.37379 0.0
C1856 C 0.57718 0.23251 0.37507 0.0
H1857 H 0.4584 0.33956 0.37381 0.0
H1858 H 0.4934 0.31414 0.37776 0.0
C1859 C 0.59696 0.21761 0.37291 0.0
C1860 C 0.52594 0.24071 0.37438 0.0
H1861 H 0.50459 0.28399 0.34664 0.0
C1862 C 0.50474 0.23847 0.39094 0.0
C1863 C 0.52579 0.25729 0.35816 0.0
C1864 C 0.54708 0.25986 0.33934 0.0
C1865 C 0.48366 0.25255 0.39189 0.0
C1866 C 0.48349 0.26907 0.37562 0.0
C1867 C 0.50477 0.27136 0.35914 0.0
C1868 C 0.46151 0.28424 0.37523 0.0
C1869 C 0.46207 0.24985 0.41048 0.0
C1870 C 0.43177 0.27592 0.3727 0.0
C1871 C 0.41155 0.29047 0.37047 0.0
C1872 C 0.42075 0.31363 0.37053 0.0
C1873 C 0.45048 0.32184 0.37361 0.0
C1874 C 0.47059 0.30732 0.37587 0.0
H1875 H 0.46973 0.24069 0.42449 0.0
H1876 H 0.45785 0.26627 0.4164 0.0
H1877 H 0.44122 0.24025 0.4046 0.0
H1878 H 0.42429 0.25818 0.37175 0.0
H1879 H 0.38888 0.28358 0.36801 0.0
H1880 H 0.73298 0.61865 0.70159 0.0
H1881 H 0.74125 0.58392 0.71906 0.0
H1882 H 0.65552 0.55242 0.69961 0.0
H1883 H 0.64712 0.58676 0.68213 0.0
H1884 H 0.70847 0.5609 0.75336 0.0
H1885 H 0.7071 0.50764 0.67961 0.0
H1886 H 0.71209 0.53762 0.67812 0.0
H1887 H 0.67628 0.52179 0.68122 0.0
C1888 C 0.71602 0.60425 0.70082 0.0
C1889 C 0.6894 0.60554 0.69041 0.0
C1890 C 0.72076 0.58443 0.71086 0.0
C1891 C 0.69916 0.56546 0.7104 0.0
C1892 C 0.67273 0.56667 0.69983 0.0
H1893 H 0.65444 0.45239 0.79268 0.0
H1894 H 0.66207 0.48849 0.77455 0.0
C1895 C 0.66791 0.58643 0.68994 0.0
C1896 C 0.70333 0.54467 0.7219 0.0
H1897 H 0.70001 0.48876 0.71417 0.0
C1898 C 0.70704 0.54518 0.74476 0.0
C1899 C 0.70184 0.52417 0.71067 0.0
C1900 C 0.6994 0.52273 0.68602 0.0
C1901 C 0.70781 0.5256 0.75679 0.0
C1902 C 0.70449 0.50492 0.7457 0.0
C1903 C 0.70229 0.50456 0.72272 0.0
C1904 C 0.70125 0.4834 0.7577 0.0
C1905 C 0.71181 0.52718 0.78132 0.0
C1906 C 0.72059 0.46832 0.75413 0.0
C1907 C 0.71628 0.44751 0.76453 0.0
C1908 C 0.69229 0.44129 0.77845 0.0
C1909 C 0.67318 0.45658 0.78212 0.0
C1910 C 0.6776 0.47734 0.77185 0.0
H1911 H 0.72256 0.54404 0.78639 0.0
H1912 H 0.69022 0.52384 0.78937 0.0
H1913 H 0.72494 0.51477 0.78735 0.0
H1914 H 0.73888 0.47259 0.74314 0.0
H1915 H 0.73133 0.43613 0.76124 0.0
H1916 H 0.29778 0.07936 0.74776 0.0
H1917 H 0.28921 0.04239 0.73113 0.0
H1918 H 0.32884 0.01605 0.78714 0.0
H1919 H 0.33637 0.05288 0.80422 0.0
H1920 H 0.32949 0.02106 0.71794 0.0
H1921 H 0.26255 0.96684 0.77744 0.0
H1922 H 0.2677 0.99677 0.77932 0.0
H1923 H 0.29471 0.98162 0.79006 0.0
C1924 C 0.30393 0.06555 0.7568 0.0
C1925 C 0.31769 0.06904 0.77732 0.0
C1926 C 0.2991 0.04441 0.74725 0.0
C1927 C 0.30818 0.02626 0.75786 0.0
C1928 C 0.32092 0.02955 0.77879 0.0
H1929 H 0.36907 0.91752 0.69336 0.0
H1930 H 0.36165 0.9517 0.71148 0.0
C1931 C 0.32534 0.05068 0.78854 0.0
C1932 C 0.3073 0.00474 0.74595 0.0
H1933 H 0.28825 0.94833 0.75065 0.0
C1934 C 0.32009 0.00521 0.72505 0.0
C1935 C 0.29476 0.98396 0.75495 0.0
C1936 C 0.27889 0.98226 0.77657 0.0
C1937 C 0.32154 0.98562 0.71328 0.0
C1938 C 0.3107 0.96479 0.72287 0.0
C1939 C 0.29693 0.96426 0.7434 0.0
C1940 C 0.31476 0.9435 0.71223 0.0
C1941 C 0.33466 0.98751 0.6906 0.0
C1942 C 0.29091 0.92702 0.70719 0.0
C1943 C 0.29511 0.90714 0.69694 0.0
C1944 C 0.32327 0.90338 0.6916 0.0
C1945 C 0.34704 0.91985 0.69696 0.0
C1946 C 0.34284 0.93954 0.70727 0.0
H1947 H 0.33294 1.00379 0.68298 0.0
H1948 H 0.35808 0.98624 0.69175 0.0
H1949 H 0.32393 0.97406 0.67965 0.0
H1950 H 0.26904 0.92962 0.711 0.0
H1951 H 0.27634 0.89478 0.69316 0.0
H1952 H 0.39471 0.19394 0.87986 0.0
H1953 H 0.43698 0.22312 0.88463 0.0
H1954 H 0.47553 0.20071 0.82617 0.0
H1955 H 0.43414 0.17114 0.82174 0.0
H1956 H 0.51586 0.21195 0.85692 0.0
H1957 H 0.44919 0.2792 0.84898 0.0
H1958 H 0.43904 0.26062 0.87148 0.0
H1959 H 0.43462 0.25044 0.84378 0.0
C1960 C 0.41234 0.19505 0.86816 0.0
C1961 C 0.41079 0.18025 0.8503 0.0
C1962 C 0.43641 0.21189 0.87081 0.0
C1963 C 0.45919 0.2145 0.85546 0.0
C1964 C 0.45821 0.19917 0.83818 0.0
H1965 H 0.57565 0.32922 0.81425 0.0
H1966 H 0.53639 0.29872 0.82149 0.0
C1967 C 0.43439 0.18223 0.83565 0.0
C1968 C 0.48363 0.23353 0.8567 0.0
H1969 H 0.49935 0.29024 0.8546 0.0
C1970 C 0.51227 0.22909 0.85657 0.0
C1971 C 0.47895 0.25591 0.856 0.0
C1972 C 0.44883 0.26191 0.85486 0.0
C1973 C 0.53627 0.24629 0.85517 0.0
C1974 C 0.53158 0.26866 0.85449 0.0
C1975 C 0.50297 0.27312 0.85526 0.0
C1976 C 0.55568 0.28758 0.8509 0.0
C1977 C 0.56629 0.24023 0.85331 0.0
C1978 C 0.57964 0.2918 0.86518 0.0
C1979 C 0.60254 0.30923 0.86092 0.0
C1980 C 0.60169 0.32299 0.84247 0.0
C1981 C 0.57723 0.31903 0.8286 0.0
C1982 C 0.55461 0.30156 0.83275 0.0
H1983 H 0.56553 0.22249 0.84877 0.0
H1984 H 0.57943 0.25071 0.84089 0.0
H1985 H 0.57749 0.24299 0.86938 0.0
H1986 H 0.58069 0.28161 0.8796 0.0
H1987 H 0.62091 0.31183 0.87202 0.0
H1988 H 0.32144 0.55949 0.19884 0.0
H1989 H 0.32062 0.52667 0.22208 0.0
H1990 H 0.36417 0.56801 0.27352 0.0
H1991 H 0.36352 0.60094 0.25081 0.0
H1992 H 0.35871 0.50635 0.23908 0.0
H1993 H 0.29941 0.53611 0.30843 0.0
H1994 H 0.30396 0.55072 0.28266 0.0
H1995 H 0.33227 0.55498 0.30314 0.0
C1996 C 0.33093 0.56155 0.21508 0.0
C1997 C 0.3424 0.58283 0.22303 0.0
C1998 C 0.33037 0.54277 0.22842 0.0
C1999 C 0.34156 0.54481 0.2499 0.0
C2000 C 0.35431 0.56597 0.25741 0.0
H2001 H 0.39386 0.43555 0.32152 0.0
H2002 H 0.39018 0.46801 0.29935 0.0
C2003 C 0.35429 0.58479 0.24428 0.0
C2004 C 0.3405 0.52479 0.26421 0.0
H2005 H 0.32344 0.50496 0.31586 0.0
C2006 C 0.35073 0.50603 0.2558 0.0
C2007 C 0.32941 0.52394 0.28592 0.0
C2008 C 0.31534 0.54243 0.29546 0.0
C2009 C 0.35101 0.48688 0.26857 0.0
C2010 C 0.34202 0.48671 0.2908 0.0
C2011 C 0.33089 0.50515 0.29901 0.0
C2012 C 0.34451 0.46775 0.30582 0.0
C2013 C 0.36041 0.46688 0.25781 0.0
C2014 C 0.32059 0.45749 0.31819 0.0
C2015 C 0.32293 0.4392 0.3317 0.0
C2016 C 0.34918 0.43068 0.33292 0.0
C2017 C 0.37324 0.44147 0.32101 0.0
C2018 C 0.37106 0.45995 0.30797 0.0
H2019 H 0.35631 0.46672 0.23985 0.0
H2020 H 0.38411 0.46758 0.26024 0.0
H2021 H 0.34888 0.4511 0.26485 0.0
H2022 H 0.29989 0.4633 0.31705 0.0
H2023 H 0.30394 0.43133 0.34059 0.0
H2024 H 0.61951 0.07869 0.31294 0.0
H2025 H 0.62255 0.04515 0.29204 0.0
H2026 H 0.70057 0.03703 0.32679 0.0
H2027 H 0.69759 0.07076 0.34833 0.0
H2028 H 0.6997 0.03447 0.2759 0.0
H2029 H 0.6099 0.97907 0.31789 0.0
H2030 H 0.60316 0.00635 0.31047 0.0
H2031 H 0.63 1.00349 0.33089 0.0
C2032 C 0.63724 0.06977 0.31646 0.0
C2033 C 0.65818 0.07745 0.3326 0.0
C2034 C 0.63891 0.05054 0.30438 0.0
C2035 C 0.66164 0.03852 0.30794 0.0
C2036 C 0.68276 0.04606 0.32387 0.0
H2037 H 0.68403 0.91003 0.25571 0.0
H2038 H 0.68256 0.94295 0.27824 0.0
C2039 C 0.68096 0.06528 0.33622 0.0
C2040 C 0.66324 0.01831 0.29462 0.0
H2041 H 0.62864 0.9652 0.28553 0.0
C2042 C 0.68429 0.01928 0.27806 0.0
C2043 C 0.64304 0.99855 0.29744 0.0
C2044 C 0.6203 0.99658 0.31521 0.0
C2045 C 0.68534 1.00108 0.264 0.0
C2046 C 0.66485 0.98145 0.26661 0.0
C2047 C 0.64414 0.98035 0.28342 0.0
C2048 C 0.66535 0.96154 0.2526 0.0
C2049 C 0.70843 1.00279 0.24652 0.0
C2050 C 0.6558 0.96094 0.2307 0.0
C2051 C 0.65633 0.94195 0.21772 0.0
C2052 C 0.66671 0.92334 0.22639 0.0
C2053 C 0.67609 0.92407 0.24839 0.0
C2054 C 0.67523 0.94288 0.26136 0.0
H2055 H 0.72476 0.01813 0.24823 0.0
H2056 H 0.71975 0.98811 0.24722 0.0
H2057 H 0.69809 1.00288 0.23013 0.0
H2058 H 0.6479 0.97515 0.22368 0.0
H2059 H 0.64901 0.94197 0.20085 0.0
H2060 H 0.60601 0.83057 0.22808 0.0
H2061 H 0.56212 0.80308 0.23506 0.0
H2062 H 0.56514 0.77874 0.16887 0.0
H2063 H 0.60815 0.80589 0.16161 0.0
H2064 H 0.50602 0.79592 0.20757 0.0
H2065 H 0.5634 0.72306 0.21126 0.0
H2066 H 0.58137 0.75115 0.21649 0.0
H2067 H 0.5739 0.74176 0.18882 0.0
C2068 C 0.59719 0.81947 0.21498 0.0
C2069 C 0.6108 0.8205 0.1943 0.0
C2070 C 0.57219 0.80374 0.21902 0.0
C2071 C 0.56071 0.78868 0.20256 0.0
C2072 C 0.57391 0.78998 0.18189 0.0
H2073 H 0.40539 0.70845 0.16278 0.0
H2074 H 0.44892 0.73547 0.16962 0.0
C2075 C 0.59854 0.80567 0.17779 0.0
C2076 C 0.53466 0.77162 0.20636 0.0
H2077 H 0.51211 0.71541 0.20485 0.0
C2078 C 0.50733 0.77832 0.20745 0.0
C2079 C 0.53644 0.74866 0.20628 0.0
C2080 C 0.56536 0.74063 0.20584 0.0
C2081 C 0.48165 0.76263 0.20715 0.0
C2082 C 0.48342 0.73971 0.20559 0.0
C2083 C 0.51078 0.73298 0.20588 0.0
C2084 C 0.45723 0.72275 0.20169 0.0
C2085 C 0.45278 0.7707 0.20789 0.0
C2086 C 0.44788 0.70611 0.21721 0.0
C2087 C 0.42278 0.69048 0.21337 0.0
C2088 C 0.4068 0.69108 0.19381 0.0
C2089 C 0.41691 0.70742 0.17808 0.0
C2090 C 0.44177 0.72304 0.182 0.0
H2091 H 0.45488 0.78772 0.21491 0.0
H2092 H 0.44413 0.77118 0.19096 0.0
H2093 H 0.43678 0.75931 0.21775 0.0
H2094 H 0.45969 0.70548 0.23243 0.0
H2095 H 0.41567 0.67818 0.22586 0.0
loop_
_geom_bond_atom_site_label_1
_geom_bond_atom_site_label_2
_geom_bond_distance
_geom_bond_site_symmetry_2
_ccdc_geom_bond_type
Co0 O2 2.143 . S
Co0 O8 2.074 . S
Co0 O11 2.093 . S
Co0 O24 2.097 . S
Co0 N41 2.151 . S
Co0 N49 2.214 . S
Co1 O2 2.160 . S
Co1 O7 2.058 . S
Co1 O17 2.057 . S
Co1 O32 2.037 . S
Co1 N36 2.145 . S
Co1 N57 2.257 . S
O2 Co0 2.143 . S
O2 Co1 2.160 . S
C3 O4 1.278 . S
C3 O11 1.224 . S
O4 C3 1.278 . S
C5 O6 1.245 . S
C5 O17 1.232 . S
O6 C5 1.245 . S
O7 Co1 2.058 . S
O7 C33 1.269 . S
O8 Co0 2.074 . S
O8 C33 1.257 . S
H9 C34 0.930 . S
H10 C40 0.930 . S
O11 Co0 2.093 . S
O11 C3 1.224 . S
H12 C44 0.929 . S
H13 C46 0.930 . S
H14 C47 0.930 . S
H15 C45 0.929 . S
H16 C48 0.928 . S
O17 Co1 2.057 . S
O17 C5 1.232 . S
H18 C37 0.929 . S
H19 C38 0.929 . S
H20 C50 0.931 . S
H21 C42 0.929 . S
H22 C51 0.930 . S
H23 C43 0.931 . S
O24 Co0 2.097 . S
O24 C52 1.214 . S
H25 C53 0.929 . S
H26 C54 0.929 . S
H27 C55 0.930 . S
H28 C56 0.929 . S
H29 C58 0.930 . S
H30 C35 0.930 . S
H31 C39 0.930 . S
O32 Co1 2.037 . S
O32 C52 1.234 . S
C33 O7 1.269 . S
C33 O8 1.257 . S
C34 H9 0.930 . S
C34 C37 1.388 . S
C34 C39 1.418 . S
C35 H30 0.930 . S
C35 C38 1.404 . S
C35 C39 1.353 . S
N36 Co1 2.145 . S
N36 C37 1.397 . S
N36 C38 1.334 . S
C37 H18 0.929 . S
C37 C34 1.388 . S
C37 N36 1.397 . S
C38 H19 0.929 . S
C38 C35 1.404 . S
C38 N36 1.334 . S
C39 H31 0.930 . S
C39 C34 1.418 . S
C39 C35 1.353 . S
C40 H10 0.930 . S
C40 N41 1.330 . S
C40 C42 1.446 . S
N41 Co0 2.151 . S
N41 C40 1.330 . S
N41 C45 1.418 . S
C42 H21 0.929 . S
C42 C40 1.446 . S
C42 C43 1.332 . S
C43 H23 0.931 . S
C43 C42 1.332 . S
C43 C44 1.267 . S
C44 H12 0.929 . S
C44 C43 1.267 . S
C44 C45 1.251 . S
C45 H15 0.929 . S
C45 N41 1.418 . S
C45 C44 1.251 . S
C46 H13 0.930 . S
C46 C48 1.406 . S
C46 C51 1.261 . S
C47 H14 0.930 . S
C47 N49 1.325 . S
C47 C50 1.357 . S
C48 H16 0.928 . S
C48 C46 1.406 . S
C48 N49 1.261 . S
N49 Co0 2.214 . S
N49 C47 1.325 . S
N49 C48 1.261 . S
C50 H20 0.931 . S
C50 C47 1.357 . S
C50 C51 1.312 . S
C51 H22 0.930 . S
C51 C46 1.261 . S
C51 C50 1.312 . S
C52 O24 1.214 . S
C52 O32 1.234 . S
C53 H25 0.929 . S
C53 C56 1.391 . S
C53 C58 1.391 . S
C54 H26 0.929 . S
C54 C55 1.390 . S
C54 N57 1.391 . S
C55 H27 0.930 . S
C55 C54 1.390 . S
C55 C56 1.392 . S
C56 H28 0.929 . S
C56 C53 1.391 . S
C56 C55 1.392 . S
N57 Co1 2.257 . S
N57 C54 1.391 . S
N57 C58 1.388 . S
C58 H29 0.930 . S
C58 C53 1.391 . S
C58 N57 1.388 . S
Co59 O61 2.143 . S
Co59 O67 2.074 . S
Co59 O70 2.093 . S
Co59 O83 2.097 . S
Co59 N100 2.151 . S
Co59 N108 2.214 . S
Co60 O61 2.160 . S
Co60 O66 2.058 . S
Co60 O76 2.057 . S
Co60 O91 2.037 . S
Co60 N95 2.145 . S
Co60 N116 2.257 . S
O61 Co59 2.143 . S
O61 Co60 2.160 . S
C62 O63 1.278 . S
C62 O70 1.224 . S
O63 C62 1.278 . S
C64 O65 1.245 . S
C64 O76 1.232 . S
O65 C64 1.245 . S
O66 Co60 2.058 . S
O66 C92 1.269 . S
O67 Co59 2.074 . S
O67 C92 1.257 . S
H68 C93 0.930 . S
H69 C99 0.930 . S
O70 Co59 2.093 . S
O70 C62 1.224 . S
H71 C103 0.929 . S
H72 C105 0.930 . S
H73 C106 0.930 . S
H74 C104 0.929 . S
H75 C107 0.928 . S
O76 Co60 2.057 . S
O76 C64 1.232 . S
H77 C96 0.929 . S
H78 C97 0.929 . S
H79 C109 0.931 . S
H80 C101 0.929 . S
H81 C110 0.930 . S
H82 C102 0.931 . S
O83 Co59 2.097 . S
O83 C111 1.214 . S
H84 C112 0.929 . S
H85 C113 0.929 . S
H86 C114 0.930 . S
H87 C115 0.929 . S
H88 C117 0.930 . S
H89 C94 0.930 . S
H90 C98 0.930 . S
O91 Co60 2.037 . S
O91 C111 1.234 . S
C92 O66 1.269 . S
C92 O67 1.257 . S
C93 H68 0.930 . S
C93 C96 1.388 . S
C93 C98 1.418 . S
C94 H89 0.930 . S
C94 C97 1.404 . S
C94 C98 1.353 . S
N95 Co60 2.145 . S
N95 C96 1.397 . S
N95 C97 1.334 . S
C96 H77 0.929 . S
C96 C93 1.388 . S
C96 N95 1.397 . S
C97 H78 0.929 . S
C97 C94 1.404 . S
C97 N95 1.334 . S
C98 H90 0.930 . S
C98 C93 1.418 . S
C98 C94 1.353 . S
C99 H69 0.930 . S
C99 N100 1.330 . S
C99 C101 1.446 . S
N100 Co59 2.151 . S
N100 C99 1.330 . S
N100 C104 1.418 . S
C101 H80 0.929 . S
C101 C99 1.446 . S
C101 C102 1.332 . S
C102 H82 0.931 . S
C102 C101 1.332 . S
C102 C103 1.267 . S
C103 H71 0.929 . S
C103 C102 1.267 . S
C103 C104 1.251 . S
C104 H74 0.929 . S
C104 N100 1.418 . S
C104 C103 1.251 . S
C105 H72 0.930 . S
C105 C107 1.406 . S
C105 C110 1.261 . S
C106 H73 0.930 . S
C106 N108 1.325 . S
C106 C109 1.357 . S
C107 H75 0.928 . S
C107 C105 1.406 . S
C107 N108 1.261 . S
N108 Co59 2.214 . S
N108 C106 1.325 . S
N108 C107 1.261 . S
C109 H79 0.931 . S
C109 C106 1.357 . S
C109 C110 1.312 . S
C110 H81 0.930 . S
C110 C105 1.261 . S
C110 C109 1.312 . S
C111 O83 1.214 . S
C111 O91 1.234 . S
C112 H84 0.929 . S
C112 C115 1.391 . S
C112 C117 1.391 . S
C113 H85 0.929 . S
C113 C114 1.390 . S
C113 N116 1.391 . S
C114 H86 0.930 . S
C114 C113 1.390 . S
C114 C115 1.392 . S
C115 H87 0.929 . S
C115 C112 1.391 . S
C115 C114 1.392 . S
N116 Co60 2.257 . S
N116 C113 1.391 . S
N116 C117 1.388 . S
C117 H88 0.930 . S
C117 C112 1.391 . S
C117 N116 1.388 . S
Co118 O120 2.143 . S
Co118 O126 2.074 . S
Co118 O129 2.093 . S
Co118 O142 2.097 . S
Co118 N159 2.151 . S
Co118 N167 2.214 . S
Co119 O120 2.160 . S
Co119 O125 2.058 . S
Co119 O135 2.057 . S
Co119 O150 2.037 . S
Co119 N154 2.145 . S
Co119 N175 2.257 . S
O120 Co118 2.143 . S
O120 Co119 2.160 . S
C121 O122 1.278 . S
C121 O129 1.224 . S
O122 C121 1.278 . S
C123 O124 1.245 . S
C123 O135 1.232 . S
O124 C123 1.245 . S
O125 Co119 2.058 . S
O125 C151 1.269 . S
O126 Co118 2.074 . S
O126 C151 1.257 . S
H127 C152 0.930 . S
H128 C158 0.930 . S
O129 Co118 2.093 . S
O129 C121 1.224 . S
H130 C162 0.929 . S
H131 C164 0.930 . S
H132 C165 0.930 . S
H133 C163 0.929 . S
H134 C166 0.928 . S
O135 Co119 2.057 . S
O135 C123 1.232 . S
H136 C155 0.929 . S
H137 C156 0.929 . S
H138 C168 0.931 . S
H139 C160 0.929 . S
H140 C169 0.930 . S
H141 C161 0.931 . S
O142 Co118 2.097 . S
O142 C170 1.214 . S
H143 C171 0.929 . S
H144 C172 0.929 . S
H145 C173 0.930 . S
H146 C174 0.929 . S
H147 C176 0.930 . S
H148 C153 0.930 . S
H149 C157 0.930 . S
O150 Co119 2.037 . S
O150 C170 1.234 . S
C151 O125 1.269 . S
C151 O126 1.257 . S
C152 H127 0.930 . S
C152 C155 1.388 . S
C152 C157 1.418 . S
C153 H148 0.930 . S
C153 C156 1.404 . S
C153 C157 1.353 . S
N154 Co119 2.145 . S
N154 C155 1.397 . S
N154 C156 1.334 . S
C155 H136 0.929 . S
C155 C152 1.388 . S
C155 N154 1.397 . S
C156 H137 0.929 . S
C156 C153 1.404 . S
C156 N154 1.334 . S
C157 H149 0.930 . S
C157 C152 1.418 . S
C157 C153 1.353 . S
C158 H128 0.930 . S
C158 N159 1.330 . S
C158 C160 1.446 . S
N159 Co118 2.151 . S
N159 C158 1.330 . S
N159 C163 1.418 . S
C160 H139 0.929 . S
C160 C158 1.446 . S
C160 C161 1.332 . S
C161 H141 0.931 . S
C161 C160 1.332 . S
C161 C162 1.267 . S
C162 H130 0.929 . S
C162 C161 1.267 . S
C162 C163 1.251 . S
C163 H133 0.929 . S
C163 N159 1.418 . S
C163 C162 1.251 . S
C164 H131 0.930 . S
C164 C166 1.406 . S
C164 C169 1.261 . S
C165 H132 0.930 . S
C165 N167 1.325 . S
C165 C168 1.357 . S
C166 H134 0.928 . S
C166 C164 1.406 . S
C166 N167 1.261 . S
N167 Co118 2.214 . S
N167 C165 1.325 . S
N167 C166 1.261 . S
C168 H138 0.931 . S
C168 C165 1.357 . S
C168 C169 1.312 . S
C169 H140 0.930 . S
C169 C164 1.261 . S
C169 C168 1.312 . S
C170 O142 1.214 . S
C170 O150 1.234 . S
C171 H143 0.929 . S
C171 C174 1.391 . S
C171 C176 1.391 . S
C172 H144 0.929 . S
C172 C173 1.390 . S
C172 N175 1.391 . S
C173 H145 0.930 . S
C173 C172 1.390 . S
C173 C174 1.392 . S
C174 H146 0.929 . S
C174 C171 1.391 . S
C174 C173 1.392 . S
N175 Co119 2.257 . S
N175 C172 1.391 . S
N175 C176 1.388 . S
C176 H147 0.930 . S
C176 C171 1.391 . S
C176 N175 1.388 . S
Co177 O179 2.143 . S
Co177 O185 2.074 . S
Co177 O188 2.093 . S
Co177 O201 2.097 . S
Co177 N218 2.151 . S
Co177 N226 2.214 . S
Co178 O179 2.160 . S
Co178 O184 2.058 . S
Co178 O194 2.057 . S
Co178 O209 2.037 . S
Co178 N213 2.145 . S
Co178 N234 2.257 . S
O179 Co177 2.143 . S
O179 Co178 2.160 . S
C180 O181 1.278 . S
C180 O188 1.224 . S
O181 C180 1.278 . S
C182 O183 1.245 . S
C182 O194 1.232 . S
O183 C182 1.245 . S
O184 Co178 2.058 . S
O184 C210 1.269 . S
O185 Co177 2.074 . S
O185 C210 1.257 . S
H186 C211 0.930 . S
H187 C217 0.930 . S
O188 Co177 2.093 . S
O188 C180 1.224 . S
H189 C221 0.929 . S
H190 C223 0.930 . S
H191 C224 0.930 . S
H192 C222 0.929 . S
H193 C225 0.928 . S
O194 Co178 2.057 . S
O194 C182 1.232 . S
H195 C214 0.929 . S
H196 C215 0.929 . S
H197 C227 0.931 . S
H198 C219 0.929 . S
H199 C228 0.930 . S
H200 C220 0.931 . S
O201 Co177 2.097 . S
O201 C229 1.214 . S
H202 C230 0.929 . S
H203 C231 0.929 . S
H204 C232 0.930 . S
H205 C233 0.929 . S
H206 C235 0.930 . S
H207 C212 0.930 . S
H208 C216 0.930 . S
O209 Co178 2.037 . S
O209 C229 1.234 . S
C210 O184 1.269 . S
C210 O185 1.257 . S
C211 H186 0.930 . S
C211 C214 1.388 . S
C211 C216 1.418 . S
C212 H207 0.930 . S
C212 C215 1.404 . S
C212 C216 1.353 . S
N213 Co178 2.145 . S
N213 C214 1.397 . S
N213 C215 1.334 . S
C214 H195 0.929 . S
C214 C211 1.388 . S
C214 N213 1.397 . S
C215 H196 0.929 . S
C215 C212 1.404 . S
C215 N213 1.334 . S
C216 H208 0.930 . S
C216 C211 1.418 . S
C216 C212 1.353 . S
C217 H187 0.930 . S
C217 N218 1.330 . S
C217 C219 1.446 . S
N218 Co177 2.151 . S
N218 C217 1.330 . S
N218 C222 1.418 . S
C219 H198 0.929 . S
C219 C217 1.446 . S
C219 C220 1.332 . S
C220 H200 0.931 . S
C220 C219 1.332 . S
C220 C221 1.267 . S
C221 H189 0.929 . S
C221 C220 1.267 . S
C221 C222 1.251 . S
C222 H192 0.929 . S
C222 N218 1.418 . S
C222 C221 1.251 . S
C223 H190 0.930 . S
C223 C225 1.406 . S
C223 C228 1.261 . S
C224 H191 0.930 . S
C224 N226 1.325 . S
C224 C227 1.357 . S
C225 H193 0.928 . S
C225 C223 1.406 . S
C225 N226 1.261 . S
N226 Co177 2.214 . S
N226 C224 1.325 . S
N226 C225 1.261 . S
C227 H197 0.931 . S
C227 C224 1.357 . S
C227 C228 1.312 . S
C228 H199 0.930 . S
C228 C223 1.261 . S
C228 C227 1.312 . S
C229 O201 1.214 . S
C229 O209 1.234 . S
C230 H202 0.929 . S
C230 C233 1.391 . S
C230 C235 1.391 . S
C231 H203 0.929 . S
C231 C232 1.390 . S
C231 N234 1.391 . S
C232 H204 0.930 . S
C232 C231 1.390 . S
C232 C233 1.392 . S
C233 H205 0.929 . S
C233 C230 1.391 . S
C233 C232 1.392 . S
N234 Co178 2.257 . S
N234 C231 1.391 . S
N234 C235 1.388 . S
C235 H206 0.930 . S
C235 C230 1.391 . S
C235 N234 1.388 . S
Co236 O238 2.143 . S
Co236 O244 2.074 . S
Co236 O247 2.093 . S
Co236 O260 2.097 . S
Co236 N277 2.151 . S
Co236 N285 2.214 . S
Co237 O238 2.160 . S
Co237 O243 2.058 . S
Co237 O253 2.057 . S
Co237 O268 2.037 . S
Co237 N272 2.145 . S
Co237 N293 2.257 . S
O238 Co236 2.143 . S
O238 Co237 2.160 . S
C239 O240 1.278 . S
C239 O247 1.224 . S
O240 C239 1.278 . S
C241 O242 1.245 . S
C241 O253 1.232 . S
O242 C241 1.245 . S
O243 Co237 2.058 . S
O243 C269 1.269 . S
O244 Co236 2.074 . S
O244 C269 1.257 . S
H245 C270 0.930 . S
H246 C276 0.930 . S
O247 Co236 2.093 . S
O247 C239 1.224 . S
H248 C280 0.929 . S
H249 C282 0.930 . S
H250 C283 0.930 . S
H251 C281 0.929 . S
H252 C284 0.928 . S
O253 Co237 2.057 . S
O253 C241 1.232 . S
H254 C273 0.929 . S
H255 C274 0.929 . S
H256 C286 0.931 . S
H257 C278 0.929 . S
H258 C287 0.930 . S
H259 C279 0.931 . S
O260 Co236 2.097 . S
O260 C288 1.214 . S
H261 C289 0.929 . S
H262 C290 0.929 . S
H263 C291 0.930 . S
H264 C292 0.929 . S
H265 C294 0.930 . S
H266 C271 0.930 . S
H267 C275 0.930 . S
O268 Co237 2.037 . S
O268 C288 1.234 . S
C269 O243 1.269 . S
C269 O244 1.257 . S
C270 H245 0.930 . S
C270 C273 1.388 . S
C270 C275 1.418 . S
C271 H266 0.930 . S
C271 C274 1.404 . S
C271 C275 1.353 . S
N272 Co237 2.145 . S
N272 C273 1.397 . S
N272 C274 1.334 . S
C273 H254 0.929 . S
C273 C270 1.388 . S
C273 N272 1.397 . S
C274 H255 0.929 . S
C274 C271 1.404 . S
C274 N272 1.334 . S
C275 H267 0.930 . S
C275 C270 1.418 . S
C275 C271 1.353 . S
C276 H246 0.930 . S
C276 N277 1.330 . S
C276 C278 1.446 . S
N277 Co236 2.151 . S
N277 C276 1.330 . S
N277 C281 1.418 . S
C278 H257 0.929 . S
C278 C276 1.446 . S
C278 C279 1.332 . S
C279 H259 0.931 . S
C279 C278 1.332 . S
C279 C280 1.267 . S
C280 H248 0.929 . S
C280 C279 1.267 . S
C280 C281 1.251 . S
C281 H251 0.929 . S
C281 N277 1.418 . S
C281 C280 1.251 . S
C282 H249 0.930 . S
C282 C284 1.406 . S
C282 C287 1.261 . S
C283 H250 0.930 . S
C283 N285 1.325 . S
C283 C286 1.357 . S
C284 H252 0.928 . S
C284 C282 1.406 . S
C284 N285 1.261 . S
N285 Co236 2.214 . S
N285 C283 1.325 . S
N285 C284 1.261 . S
C286 H256 0.931 . S
C286 C283 1.357 . S
C286 C287 1.312 . S
C287 H258 0.930 . S
C287 C282 1.261 . S
C287 C286 1.312 . S
C288 O260 1.214 . S
C288 O268 1.234 . S
C289 H261 0.929 . S
C289 C292 1.391 . S
C289 C294 1.391 . S
C290 H262 0.929 . S
C290 C291 1.390 . S
C290 N293 1.391 . S
C291 H263 0.930 . S
C291 C290 1.390 . S
C291 C292 1.392 . S
C292 H264 0.929 . S
C292 C289 1.391 . S
C292 C291 1.392 . S
N293 Co237 2.257 . S
N293 C290 1.391 . S
N293 C294 1.388 . S
C294 H265 0.930 . S
C294 C289 1.391 . S
C294 N293 1.388 . S
Co295 O297 2.143 . S
Co295 O303 2.074 . S
Co295 O306 2.093 . S
Co295 O319 2.097 . S
Co295 N336 2.151 . S
Co295 N344 2.214 . S
Co296 O297 2.160 . S
Co296 O302 2.058 . S
Co296 O312 2.057 . S
Co296 O327 2.037 . S
Co296 N331 2.145 . S
Co296 N352 2.257 . S
O297 Co295 2.143 . S
O297 Co296 2.160 . S
C298 O299 1.278 . S
C298 O306 1.224 . S
O299 C298 1.278 . S
C300 O301 1.245 . S
C300 O312 1.232 . S
O301 C300 1.245 . S
O302 Co296 2.058 . S
O302 C328 1.269 . S
O303 Co295 2.074 . S
O303 C328 1.257 . S
H304 C329 0.930 . S
H305 C335 0.930 . S
O306 Co295 2.093 . S
O306 C298 1.224 . S
H307 C339 0.929 . S
H308 C341 0.930 . S
H309 C342 0.930 . S
H310 C340 0.929 . S
H311 C343 0.928 . S
O312 Co296 2.057 . S
O312 C300 1.232 . S
H313 C332 0.929 . S
H314 C333 0.929 . S
H315 C345 0.931 . S
H316 C337 0.929 . S
H317 C346 0.930 . S
H318 C338 0.931 . S
O319 Co295 2.097 . S
O319 C347 1.214 . S
H320 C348 0.929 . S
H321 C349 0.929 . S
H322 C350 0.930 . S
H323 C351 0.929 . S
H324 C353 0.930 . S
H325 C330 0.930 . S
H326 C334 0.930 . S
O327 Co296 2.037 . S
O327 C347 1.234 . S
C328 O302 1.269 . S
C328 O303 1.257 . S
C329 H304 0.930 . S
C329 C332 1.388 . S
C329 C334 1.418 . S
C330 H325 0.930 . S
C330 C333 1.404 . S
C330 C334 1.353 . S
N331 Co296 2.145 . S
N331 C332 1.397 . S
N331 C333 1.334 . S
C332 H313 0.929 . S
C332 C329 1.388 . S
C332 N331 1.397 . S
C333 H314 0.929 . S
C333 C330 1.404 . S
C333 N331 1.334 . S
C334 H326 0.930 . S
C334 C329 1.418 . S
C334 C330 1.353 . S
C335 H305 0.930 . S
C335 N336 1.330 . S
C335 C337 1.446 . S
N336 Co295 2.151 . S
N336 C335 1.330 . S
N336 C340 1.418 . S
C337 H316 0.929 . S
C337 C335 1.446 . S
C337 C338 1.332 . S
C338 H318 0.931 . S
C338 C337 1.332 . S
C338 C339 1.267 . S
C339 H307 0.929 . S
C339 C338 1.267 . S
C339 C340 1.251 . S
C340 H310 0.929 . S
C340 N336 1.418 . S
C340 C339 1.251 . S
C341 H308 0.930 . S
C341 C343 1.406 . S
C341 C346 1.261 . S
C342 H309 0.930 . S
C342 N344 1.325 . S
C342 C345 1.357 . S
C343 H311 0.928 . S
C343 C341 1.406 . S
C343 N344 1.261 . S
N344 Co295 2.214 . S
N344 C342 1.325 . S
N344 C343 1.261 . S
C345 H315 0.931 . S
C345 C342 1.357 . S
C345 C346 1.312 . S
C346 H317 0.930 . S
C346 C341 1.261 . S
C346 C345 1.312 . S
C347 O319 1.214 . S
C347 O327 1.234 . S
C348 H320 0.929 . S
C348 C351 1.391 . S
C348 C353 1.391 . S
C349 H321 0.929 . S
C349 C350 1.390 . S
C349 N352 1.391 . S
C350 H322 0.930 . S
C350 C349 1.390 . S
C350 C351 1.392 . S
C351 H323 0.929 . S
C351 C348 1.391 . S
C351 C350 1.392 . S
N352 Co296 2.257 . S
N352 C349 1.391 . S
N352 C353 1.388 . S
C353 H324 0.930 . S
C353 C348 1.391 . S
C353 N352 1.388 . S
Co354 O356 2.143 . S
Co354 O362 2.074 . S
Co354 O365 2.093 . S
Co354 O378 2.097 . S
Co354 N395 2.151 . S
Co354 N403 2.214 . S
Co355 O356 2.160 . S
Co355 O361 2.058 . S
Co355 O371 2.057 . S
Co355 O386 2.037 . S
Co355 N390 2.145 . S
Co355 N411 2.257 . S
O356 Co354 2.143 . S
O356 Co355 2.160 . S
C357 O358 1.278 . S
C357 O365 1.224 . S
O358 C357 1.278 . S
C359 O360 1.245 . S
C359 O371 1.232 . S
O360 C359 1.245 . S
O361 Co355 2.058 . S
O361 C387 1.269 . S
O362 Co354 2.074 . S
O362 C387 1.257 . S
H363 C388 0.930 . S
H364 C394 0.930 . S
O365 Co354 2.093 . S
O365 C357 1.224 . S
H366 C398 0.929 . S
H367 C400 0.930 . S
H368 C401 0.930 . S
H369 C399 0.929 . S
H370 C402 0.928 . S
O371 Co355 2.057 . S
O371 C359 1.232 . S
H372 C391 0.929 . S
H373 C392 0.929 . S
H374 C404 0.931 . S
H375 C396 0.929 . S
H376 C405 0.930 . S
H377 C397 0.931 . S
O378 Co354 2.097 . S
O378 C406 1.214 . S
H379 C407 0.929 . S
H380 C408 0.929 . S
H381 C409 0.930 . S
H382 C410 0.929 . S
H383 C412 0.930 . S
H384 C389 0.930 . S
H385 C393 0.930 . S
O386 Co355 2.037 . S
O386 C406 1.234 . S
C387 O361 1.269 . S
C387 O362 1.257 . S
C388 H363 0.930 . S
C388 C391 1.388 . S
C388 C393 1.418 . S
C389 H384 0.930 . S
C389 C392 1.404 . S
C389 C393 1.353 . S
N390 Co355 2.145 . S
N390 C391 1.397 . S
N390 C392 1.334 . S
C391 H372 0.929 . S
C391 C388 1.388 . S
C391 N390 1.397 . S
C392 H373 0.929 . S
C392 C389 1.404 . S
C392 N390 1.334 . S
C393 H385 0.930 . S
C393 C388 1.418 . S
C393 C389 1.353 . S
C394 H364 0.930 . S
C394 N395 1.330 . S
C394 C396 1.446 . S
N395 Co354 2.151 . S
N395 C394 1.330 . S
N395 C399 1.418 . S
C396 H375 0.929 . S
C396 C394 1.446 . S
C396 C397 1.332 . S
C397 H377 0.931 . S
C397 C396 1.332 . S
C397 C398 1.267 . S
C398 H366 0.929 . S
C398 C397 1.267 . S
C398 C399 1.251 . S
C399 H369 0.929 . S
C399 N395 1.418 . S
C399 C398 1.251 . S
C400 H367 0.930 . S
C400 C402 1.406 . S
C400 C405 1.261 . S
C401 H368 0.930 . S
C401 N403 1.325 . S
C401 C404 1.357 . S
C402 H370 0.928 . S
C402 C400 1.406 . S
C402 N403 1.261 . S
N403 Co354 2.214 . S
N403 C401 1.325 . S
N403 C402 1.261 . S
C404 H374 0.931 . S
C404 C401 1.357 . S
C404 C405 1.312 . S
C405 H376 0.930 . S
C405 C400 1.261 . S
C405 C404 1.312 . S
C406 O378 1.214 . S
C406 O386 1.234 . S
C407 H379 0.929 . S
C407 C410 1.391 . S
C407 C412 1.391 . S
C408 H380 0.929 . S
C408 C409 1.390 . S
C408 N411 1.391 . S
C409 H381 0.930 . S
C409 C408 1.390 . S
C409 C410 1.392 . S
C410 H382 0.929 . S
C410 C407 1.391 . S
C410 C409 1.392 . S
N411 Co355 2.257 . S
N411 C408 1.391 . S
N411 C412 1.388 . S
C412 H383 0.930 . S
C412 C407 1.391 . S
C412 N411 1.388 . S
Co413 O415 2.143 . S
Co413 O421 2.074 . S
Co413 O424 2.093 . S
Co413 O437 2.097 . S
Co413 N454 2.151 . S
Co413 N462 2.214 . S
Co414 O415 2.160 . S
Co414 O420 2.058 . S
Co414 O430 2.057 . S
Co414 O445 2.037 . S
Co414 N449 2.145 . S
Co414 N470 2.257 . S
O415 Co413 2.143 . S
O415 Co414 2.160 . S
C416 O417 1.278 . S
C416 O424 1.224 . S
O417 C416 1.278 . S
C418 O419 1.245 . S
C418 O430 1.232 . S
O419 C418 1.245 . S
O420 Co414 2.058 . S
O420 C446 1.269 . S
O421 Co413 2.074 . S
O421 C446 1.257 . S
H422 C447 0.930 . S
H423 C453 0.930 . S
O424 Co413 2.093 . S
O424 C416 1.224 . S
H425 C457 0.929 . S
H426 C459 0.930 . S
H427 C460 0.930 . S
H428 C458 0.929 . S
H429 C461 0.928 . S
O430 Co414 2.057 . S
O430 C418 1.232 . S
H431 C450 0.929 . S
H432 C451 0.929 . S
H433 C463 0.931 . S
H434 C455 0.929 . S
H435 C464 0.930 . S
H436 C456 0.931 . S
O437 Co413 2.097 . S
O437 C465 1.214 . S
H438 C466 0.929 . S
H439 C467 0.929 . S
H440 C468 0.930 . S
H441 C469 0.929 . S
H442 C471 0.930 . S
H443 C448 0.930 . S
H444 C452 0.930 . S
O445 Co414 2.037 . S
O445 C465 1.234 . S
C446 O420 1.269 . S
C446 O421 1.257 . S
C447 H422 0.930 . S
C447 C450 1.388 . S
C447 C452 1.418 . S
C448 H443 0.930 . S
C448 C451 1.404 . S
C448 C452 1.353 . S
N449 Co414 2.145 . S
N449 C450 1.397 . S
N449 C451 1.334 . S
C450 H431 0.929 . S
C450 C447 1.388 . S
C450 N449 1.397 . S
C451 H432 0.929 . S
C451 C448 1.404 . S
C451 N449 1.334 . S
C452 H444 0.930 . S
C452 C447 1.418 . S
C452 C448 1.353 . S
C453 H423 0.930 . S
C453 N454 1.330 . S
C453 C455 1.446 . S
N454 Co413 2.151 . S
N454 C453 1.330 . S
N454 C458 1.418 . S
C455 H434 0.929 . S
C455 C453 1.446 . S
C455 C456 1.332 . S
C456 H436 0.931 . S
C456 C455 1.332 . S
C456 C457 1.267 . S
C457 H425 0.929 . S
C457 C456 1.267 . S
C457 C458 1.251 . S
C458 H428 0.929 . S
C458 N454 1.418 . S
C458 C457 1.251 . S
C459 H426 0.930 . S
C459 C461 1.406 . S
C459 C464 1.261 . S
C460 H427 0.930 . S
C460 N462 1.325 . S
C460 C463 1.357 . S
C461 H429 0.928 . S
C461 C459 1.406 . S
C461 N462 1.261 . S
N462 Co413 2.214 . S
N462 C460 1.325 . S
N462 C461 1.261 . S
C463 H433 0.931 . S
C463 C460 1.357 . S
C463 C464 1.312 . S
C464 H435 0.930 . S
C464 C459 1.261 . S
C464 C463 1.312 . S
C465 O437 1.214 . S
C465 O445 1.234 . S
C466 H438 0.929 . S
C466 C469 1.391 . S
C466 C471 1.391 . S
C467 H439 0.929 . S
C467 C468 1.390 . S
C467 N470 1.391 . S
C468 H440 0.930 . S
C468 C467 1.390 . S
C468 C469 1.392 . S
C469 H441 0.929 . S
C469 C466 1.391 . S
C469 C468 1.392 . S
N470 Co414 2.257 . S
N470 C467 1.391 . S
N470 C471 1.388 . S
C471 H442 0.930 . S
C471 C466 1.391 . S
C471 N470 1.388 . S
Co472 O474 2.143 . S
Co472 O480 2.074 . S
Co472 O483 2.093 . S
Co472 O496 2.097 . S
Co472 N513 2.151 . S
Co472 N521 2.214 . S
Co473 O474 2.160 . S
Co473 O479 2.058 . S
Co473 O489 2.057 . S
Co473 O504 2.037 . S
Co473 N508 2.145 . S
Co473 N529 2.257 . S
O474 Co472 2.143 . S
O474 Co473 2.160 . S
C475 O476 1.278 . S
C475 O483 1.224 . S
O476 C475 1.278 . S
C477 O478 1.245 . S
C477 O489 1.232 . S
O478 C477 1.245 . S
O479 Co473 2.058 . S
O479 C505 1.269 . S
O480 Co472 2.074 . S
O480 C505 1.257 . S
H481 C506 0.930 . S
H482 C512 0.930 . S
O483 Co472 2.093 . S
O483 C475 1.224 . S
H484 C516 0.929 . S
H485 C518 0.930 . S
H486 C519 0.930 . S
H487 C517 0.929 . S
H488 C520 0.928 . S
O489 Co473 2.057 . S
O489 C477 1.232 . S
H490 C509 0.929 . S
H491 C510 0.929 . S
H492 C522 0.931 . S
H493 C514 0.929 . S
H494 C523 0.930 . S
H495 C515 0.931 . S
O496 Co472 2.097 . S
O496 C524 1.214 . S
H497 C525 0.929 . S
H498 C526 0.929 . S
H499 C527 0.930 . S
H500 C528 0.929 . S
H501 C530 0.930 . S
H502 C507 0.930 . S
H503 C511 0.930 . S
O504 Co473 2.037 . S
O504 C524 1.234 . S
C505 O479 1.269 . S
C505 O480 1.257 . S
C506 H481 0.930 . S
C506 C509 1.388 . S
C506 C511 1.418 . S
C507 H502 0.930 . S
C507 C510 1.404 . S
C507 C511 1.353 . S
N508 Co473 2.145 . S
N508 C509 1.397 . S
N508 C510 1.334 . S
C509 H490 0.929 . S
C509 C506 1.388 . S
C509 N508 1.397 . S
C510 H491 0.929 . S
C510 C507 1.404 . S
C510 N508 1.334 . S
C511 H503 0.930 . S
C511 C506 1.418 . S
C511 C507 1.353 . S
C512 H482 0.930 . S
C512 N513 1.330 . S
C512 C514 1.446 . S
N513 Co472 2.151 . S
N513 C512 1.330 . S
N513 C517 1.418 . S
C514 H493 0.929 . S
C514 C512 1.446 . S
C514 C515 1.332 . S
C515 H495 0.931 . S
C515 C514 1.332 . S
C515 C516 1.267 . S
C516 H484 0.929 . S
C516 C515 1.267 . S
C516 C517 1.251 . S
C517 H487 0.929 . S
C517 N513 1.418 . S
C517 C516 1.251 . S
C518 H485 0.930 . S
C518 C520 1.406 . S
C518 C523 1.261 . S
C519 H486 0.930 . S
C519 N521 1.325 . S
C519 C522 1.357 . S
C520 H488 0.928 . S
C520 C518 1.406 . S
C520 N521 1.261 . S
N521 Co472 2.214 . S
N521 C519 1.325 . S
N521 C520 1.261 . S
C522 H492 0.931 . S
C522 C519 1.357 . S
C522 C523 1.312 . S
C523 H494 0.930 . S
C523 C518 1.261 . S
C523 C522 1.312 . S
C524 O496 1.214 . S
C524 O504 1.234 . S
C525 H497 0.929 . S
C525 C528 1.391 . S
C525 C530 1.391 . S
C526 H498 0.929 . S
C526 C527 1.390 . S
C526 N529 1.391 . S
C527 H499 0.930 . S
C527 C526 1.390 . S
C527 C528 1.392 . S
C528 H500 0.929 . S
C528 C525 1.391 . S
C528 C527 1.392 . S
N529 Co473 2.257 . S
N529 C526 1.391 . S
N529 C530 1.388 . S
C530 H501 0.930 . S
C530 C525 1.391 . S
C530 N529 1.388 . S
Co531 O533 2.143 . S
Co531 O539 2.074 . S
Co531 O542 2.093 . S
Co531 O555 2.097 . S
Co531 N572 2.151 . S
Co531 N580 2.214 . S
Co532 O533 2.160 . S
Co532 O538 2.058 . S
Co532 O548 2.057 . S
Co532 O563 2.037 . S
Co532 N567 2.145 . S
Co532 N588 2.257 . S
O533 Co531 2.143 . S
O533 Co532 2.160 . S
C534 O535 1.278 . S
C534 O542 1.224 . S
O535 C534 1.278 . S
C536 O537 1.245 . S
C536 O548 1.232 . S
O537 C536 1.245 . S
O538 Co532 2.058 . S
O538 C564 1.269 . S
O539 Co531 2.074 . S
O539 C564 1.257 . S
H540 C565 0.930 . S
H541 C571 0.930 . S
O542 Co531 2.093 . S
O542 C534 1.224 . S
H543 C575 0.929 . S
H544 C577 0.930 . S
H545 C578 0.930 . S
H546 C576 0.929 . S
H547 C579 0.928 . S
O548 Co532 2.057 . S
O548 C536 1.232 . S
H549 C568 0.929 . S
H550 C569 0.929 . S
H551 C581 0.931 . S
H552 C573 0.929 . S
H553 C582 0.930 . S
H554 C574 0.931 . S
O555 Co531 2.097 . S
O555 C583 1.214 . S
H556 C584 0.929 . S
H557 C585 0.929 . S
H558 C586 0.930 . S
H559 C587 0.929 . S
H560 C589 0.930 . S
H561 C566 0.930 . S
H562 C570 0.930 . S
O563 Co532 2.037 . S
O563 C583 1.234 . S
C564 O538 1.269 . S
C564 O539 1.257 . S
C565 H540 0.930 . S
C565 C568 1.388 . S
C565 C570 1.418 . S
C566 H561 0.930 . S
C566 C569 1.404 . S
C566 C570 1.353 . S
N567 Co532 2.145 . S
N567 C568 1.397 . S
N567 C569 1.334 . S
C568 H549 0.929 . S
C568 C565 1.388 . S
C568 N567 1.397 . S
C569 H550 0.929 . S
C569 C566 1.404 . S
C569 N567 1.334 . S
C570 H562 0.930 . S
C570 C565 1.418 . S
C570 C566 1.353 . S
C571 H541 0.930 . S
C571 N572 1.330 . S
C571 C573 1.446 . S
N572 Co531 2.151 . S
N572 C571 1.330 . S
N572 C576 1.418 . S
C573 H552 0.929 . S
C573 C571 1.446 . S
C573 C574 1.332 . S
C574 H554 0.931 . S
C574 C573 1.332 . S
C574 C575 1.267 . S
C575 H543 0.929 . S
C575 C574 1.267 . S
C575 C576 1.251 . S
C576 H546 0.929 . S
C576 N572 1.418 . S
C576 C575 1.251 . S
C577 H544 0.930 . S
C577 C579 1.406 . S
C577 C582 1.261 . S
C578 H545 0.930 . S
C578 N580 1.325 . S
C578 C581 1.357 . S
C579 H547 0.928 . S
C579 C577 1.406 . S
C579 N580 1.261 . S
N580 Co531 2.214 . S
N580 C578 1.325 . S
N580 C579 1.261 . S
C581 H551 0.931 . S
C581 C578 1.357 . S
C581 C582 1.312 . S
C582 H553 0.930 . S
C582 C577 1.261 . S
C582 C581 1.312 . S
C583 O555 1.214 . S
C583 O563 1.234 . S
C584 H556 0.929 . S
C584 C587 1.391 . S
C584 C589 1.391 . S
C585 H557 0.929 . S
C585 C586 1.390 . S
C585 N588 1.391 . S
C586 H558 0.930 . S
C586 C585 1.390 . S
C586 C587 1.392 . S
C587 H559 0.929 . S
C587 C584 1.391 . S
C587 C586 1.392 . S
N588 Co532 2.257 . S
N588 C585 1.391 . S
N588 C589 1.388 . S
C589 H560 0.930 . S
C589 C584 1.391 . S
C589 N588 1.388 . S
Co590 O592 2.143 . S
Co590 O598 2.074 . S
Co590 O601 2.093 . S
Co590 O614 2.097 . S
Co590 N631 2.151 . S
Co590 N639 2.214 . S
Co591 O592 2.160 . S
Co591 O597 2.058 . S
Co591 O607 2.057 . S
Co591 O622 2.037 . S
Co591 N626 2.145 . S
Co591 N647 2.257 . S
O592 Co590 2.143 . S
O592 Co591 2.160 . S
C593 O594 1.278 . S
C593 O601 1.224 . S
O594 C593 1.278 . S
C595 O596 1.245 . S
C595 O607 1.232 . S
O596 C595 1.245 . S
O597 Co591 2.058 . S
O597 C623 1.269 . S
O598 Co590 2.074 . S
O598 C623 1.257 . S
H599 C624 0.930 . S
H600 C630 0.930 . S
O601 Co590 2.093 . S
O601 C593 1.224 . S
H602 C634 0.929 . S
H603 C636 0.930 . S
H604 C637 0.930 . S
H605 C635 0.929 . S
H606 C638 0.928 . S
O607 Co591 2.057 . S
O607 C595 1.232 . S
H608 C627 0.929 . S
H609 C628 0.929 . S
H610 C640 0.931 . S
H611 C632 0.929 . S
H612 C641 0.930 . S
H613 C633 0.931 . S
O614 Co590 2.097 . S
O614 C642 1.214 . S
H615 C643 0.929 . S
H616 C644 0.929 . S
H617 C645 0.930 . S
H618 C646 0.929 . S
H619 C648 0.930 . S
H620 C625 0.930 . S
H621 C629 0.930 . S
O622 Co591 2.037 . S
O622 C642 1.234 . S
C623 O597 1.269 . S
C623 O598 1.257 . S
C624 H599 0.930 . S
C624 C627 1.388 . S
C624 C629 1.418 . S
C625 H620 0.930 . S
C625 C628 1.404 . S
C625 C629 1.353 . S
N626 Co591 2.145 . S
N626 C627 1.397 . S
N626 C628 1.334 . S
C627 H608 0.929 . S
C627 C624 1.388 . S
C627 N626 1.397 . S
C628 H609 0.929 . S
C628 C625 1.404 . S
C628 N626 1.334 . S
C629 H621 0.930 . S
C629 C624 1.418 . S
C629 C625 1.353 . S
C630 H600 0.930 . S
C630 N631 1.330 . S
C630 C632 1.446 . S
N631 Co590 2.151 . S
N631 C630 1.330 . S
N631 C635 1.418 . S
C632 H611 0.929 . S
C632 C630 1.446 . S
C632 C633 1.332 . S
C633 H613 0.931 . S
C633 C632 1.332 . S
C633 C634 1.267 . S
C634 H602 0.929 . S
C634 C633 1.267 . S
C634 C635 1.251 . S
C635 H605 0.929 . S
C635 N631 1.418 . S
C635 C634 1.251 . S
C636 H603 0.930 . S
C636 C638 1.406 . S
C636 C641 1.261 . S
C637 H604 0.930 . S
C637 N639 1.325 . S
C637 C640 1.357 . S
C638 H606 0.928 . S
C638 C636 1.406 . S
C638 N639 1.261 . S
N639 Co590 2.214 . S
N639 C637 1.325 . S
N639 C638 1.261 . S
C640 H610 0.931 . S
C640 C637 1.357 . S
C640 C641 1.312 . S
C641 H612 0.930 . S
C641 C636 1.261 . S
C641 C640 1.312 . S
C642 O614 1.214 . S
C642 O622 1.234 . S
C643 H615 0.929 . S
C643 C646 1.391 . S
C643 C648 1.391 . S
C644 H616 0.929 . S
C644 C645 1.390 . S
C644 N647 1.391 . S
C645 H617 0.930 . S
C645 C644 1.390 . S
C645 C646 1.392 . S
C646 H618 0.929 . S
C646 C643 1.391 . S
C646 C645 1.392 . S
N647 Co591 2.257 . S
N647 C644 1.391 . S
N647 C648 1.388 . S
C648 H619 0.930 . S
C648 C643 1.391 . S
C648 N647 1.388 . S
Co649 O651 2.143 . S
Co649 O657 2.074 . S
Co649 O660 2.093 . S
Co649 O673 2.097 . S
Co649 N690 2.151 . S
Co649 N698 2.214 . S
Co650 O651 2.160 . S
Co650 O656 2.058 . S
Co650 O666 2.057 . S
Co650 O681 2.037 . S
Co650 N685 2.145 . S
Co650 N706 2.257 . S
O651 Co649 2.143 . S
O651 Co650 2.160 . S
C652 O653 1.278 . S
C652 O660 1.224 . S
O653 C652 1.278 . S
C654 O655 1.245 . S
C654 O666 1.232 . S
O655 C654 1.245 . S
O656 Co650 2.058 . S
O656 C682 1.269 . S
O657 Co649 2.074 . S
O657 C682 1.257 . S
H658 C683 0.930 . S
H659 C689 0.930 . S
O660 Co649 2.093 . S
O660 C652 1.224 . S
H661 C693 0.929 . S
H662 C695 0.930 . S
H663 C696 0.930 . S
H664 C694 0.929 . S
H665 C697 0.928 . S
O666 Co650 2.057 . S
O666 C654 1.232 . S
H667 C686 0.929 . S
H668 C687 0.929 . S
H669 C699 0.931 . S
H670 C691 0.929 . S
H671 C700 0.930 . S
H672 C692 0.931 . S
O673 Co649 2.097 . S
O673 C701 1.214 . S
H674 C702 0.929 . S
H675 C703 0.929 . S
H676 C704 0.930 . S
H677 C705 0.929 . S
H678 C707 0.930 . S
H679 C684 0.930 . S
H680 C688 0.930 . S
O681 Co650 2.037 . S
O681 C701 1.234 . S
C682 O656 1.269 . S
C682 O657 1.257 . S
C683 H658 0.930 . S
C683 C686 1.388 . S
C683 C688 1.418 . S
C684 H679 0.930 . S
C684 C687 1.404 . S
C684 C688 1.353 . S
N685 Co650 2.145 . S
N685 C686 1.397 . S
N685 C687 1.334 . S
C686 H667 0.929 . S
C686 C683 1.388 . S
C686 N685 1.397 . S
C687 H668 0.929 . S
C687 C684 1.404 . S
C687 N685 1.334 . S
C688 H680 0.930 . S
C688 C683 1.418 . S
C688 C684 1.353 . S
C689 H659 0.930 . S
C689 N690 1.330 . S
C689 C691 1.446 . S
N690 Co649 2.151 . S
N690 C689 1.330 . S
N690 C694 1.418 . S
C691 H670 0.929 . S
C691 C689 1.446 . S
C691 C692 1.332 . S
C692 H672 0.931 . S
C692 C691 1.332 . S
C692 C693 1.267 . S
C693 H661 0.929 . S
C693 C692 1.267 . S
C693 C694 1.251 . S
C694 H664 0.929 . S
C694 N690 1.418 . S
C694 C693 1.251 . S
C695 H662 0.930 . S
C695 C697 1.406 . S
C695 C700 1.261 . S
C696 H663 0.930 . S
C696 N698 1.325 . S
C696 C699 1.357 . S
C697 H665 0.928 . S
C697 C695 1.406 . S
C697 N698 1.261 . S
N698 Co649 2.214 . S
N698 C696 1.325 . S
N698 C697 1.261 . S
C699 H669 0.931 . S
C699 C696 1.357 . S
C699 C700 1.312 . S
C700 H671 0.930 . S
C700 C695 1.261 . S
C700 C699 1.312 . S
C701 O673 1.214 . S
C701 O681 1.234 . S
C702 H674 0.929 . S
C702 C705 1.391 . S
C702 C707 1.391 . S
C703 H675 0.929 . S
C703 C704 1.390 . S
C703 N706 1.391 . S
C704 H676 0.930 . S
C704 C703 1.390 . S
C704 C705 1.392 . S
C705 H677 0.929 . S
C705 C702 1.391 . S
C705 C704 1.392 . S
N706 Co650 2.257 . S
N706 C703 1.391 . S
N706 C707 1.388 . S
C707 H678 0.930 . S
C707 C702 1.391 . S
C707 N706 1.388 . S
Co708 O710 2.143 . S
Co708 O716 2.074 . S
Co708 O719 2.093 . S
Co708 O732 2.097 . S
Co708 N749 2.151 . S
Co708 N757 2.214 . S
Co709 O710 2.160 . S
Co709 O715 2.058 . S
Co709 O725 2.057 . S
Co709 O740 2.037 . S
Co709 N744 2.145 . S
Co709 N765 2.257 . S
O710 Co708 2.143 . S
O710 Co709 2.160 . S
C711 O712 1.278 . S
C711 O719 1.224 . S
O712 C711 1.278 . S
C713 O714 1.245 . S
C713 O725 1.232 . S
O714 C713 1.245 . S
O715 Co709 2.058 . S
O715 C741 1.269 . S
O716 Co708 2.074 . S
O716 C741 1.257 . S
H717 C742 0.930 . S
H718 C748 0.930 . S
O719 Co708 2.093 . S
O719 C711 1.224 . S
H720 C752 0.929 . S
H721 C754 0.930 . S
H722 C755 0.930 . S
H723 C753 0.929 . S
H724 C756 0.928 . S
O725 Co709 2.057 . S
O725 C713 1.232 . S
H726 C745 0.929 . S
H727 C746 0.929 . S
H728 C758 0.931 . S
H729 C750 0.929 . S
H730 C759 0.930 . S
H731 C751 0.931 . S
O732 Co708 2.097 . S
O732 C760 1.214 . S
H733 C761 0.929 . S
H734 C762 0.929 . S
H735 C763 0.930 . S
H736 C764 0.929 . S
H737 C766 0.930 . S
H738 C743 0.930 . S
H739 C747 0.930 . S
O740 Co709 2.037 . S
O740 C760 1.234 . S
C741 O715 1.269 . S
C741 O716 1.257 . S
C742 H717 0.930 . S
C742 C745 1.388 . S
C742 C747 1.418 . S
C743 H738 0.930 . S
C743 C746 1.404 . S
C743 C747 1.353 . S
N744 Co709 2.145 . S
N744 C745 1.397 . S
N744 C746 1.334 . S
C745 H726 0.929 . S
C745 C742 1.388 . S
C745 N744 1.397 . S
C746 H727 0.929 . S
C746 C743 1.404 . S
C746 N744 1.334 . S
C747 H739 0.930 . S
C747 C742 1.418 . S
C747 C743 1.353 . S
C748 H718 0.930 . S
C748 N749 1.330 . S
C748 C750 1.446 . S
N749 Co708 2.151 . S
N749 C748 1.330 . S
N749 C753 1.418 . S
C750 H729 0.929 . S
C750 C748 1.446 . S
C750 C751 1.332 . S
C751 H731 0.931 . S
C751 C750 1.332 . S
C751 C752 1.267 . S
C752 H720 0.929 . S
C752 C751 1.267 . S
C752 C753 1.251 . S
C753 H723 0.929 . S
C753 N749 1.418 . S
C753 C752 1.251 . S
C754 H721 0.930 . S
C754 C756 1.406 . S
C754 C759 1.261 . S
C755 H722 0.930 . S
C755 N757 1.325 . S
C755 C758 1.357 . S
C756 H724 0.928 . S
C756 C754 1.406 . S
C756 N757 1.261 . S
N757 Co708 2.214 . S
N757 C755 1.325 . S
N757 C756 1.261 . S
C758 H728 0.931 . S
C758 C755 1.357 . S
C758 C759 1.312 . S
C759 H730 0.930 . S
C759 C754 1.261 . S
C759 C758 1.312 . S
C760 O732 1.214 . S
C760 O740 1.234 . S
C761 H733 0.929 . S
C761 C764 1.391 . S
C761 C766 1.391 . S
C762 H734 0.929 . S
C762 C763 1.390 . S
C762 N765 1.391 . S
C763 H735 0.930 . S
C763 C762 1.390 . S
C763 C764 1.392 . S
C764 H736 0.929 . S
C764 C761 1.391 . S
C764 C763 1.392 . S
N765 Co709 2.257 . S
N765 C762 1.391 . S
N765 C766 1.388 . S
C766 H737 0.930 . S
C766 C761 1.391 . S
C766 N765 1.388 . S
Co767 O769 2.143 . S
Co767 O775 2.074 . S
Co767 O778 2.093 . S
Co767 O791 2.097 . S
Co767 N808 2.151 . S
Co767 N816 2.214 . S
Co768 O769 2.160 . S
Co768 O774 2.058 . S
Co768 O784 2.057 . S
Co768 O799 2.037 . S
Co768 N803 2.145 . S
Co768 N824 2.257 . S
O769 Co767 2.143 . S
O769 Co768 2.160 . S
C770 O771 1.278 . S
C770 O778 1.224 . S
O771 C770 1.278 . S
C772 O773 1.245 . S
C772 O784 1.232 . S
O773 C772 1.245 . S
O774 Co768 2.058 . S
O774 C800 1.269 . S
O775 Co767 2.074 . S
O775 C800 1.257 . S
H776 C801 0.930 . S
H777 C807 0.930 . S
O778 Co767 2.093 . S
O778 C770 1.224 . S
H779 C811 0.929 . S
H780 C813 0.930 . S
H781 C814 0.930 . S
H782 C812 0.929 . S
H783 C815 0.928 . S
O784 Co768 2.057 . S
O784 C772 1.232 . S
H785 C804 0.929 . S
H786 C805 0.929 . S
H787 C817 0.931 . S
H788 C809 0.929 . S
H789 C818 0.930 . S
H790 C810 0.931 . S
O791 Co767 2.097 . S
O791 C819 1.214 . S
H792 C820 0.929 . S
H793 C821 0.929 . S
H794 C822 0.930 . S
H795 C823 0.929 . S
H796 C825 0.930 . S
H797 C802 0.930 . S
H798 C806 0.930 . S
O799 Co768 2.037 . S
O799 C819 1.234 . S
C800 O774 1.269 . S
C800 O775 1.257 . S
C801 H776 0.930 . S
C801 C804 1.388 . S
C801 C806 1.418 . S
C802 H797 0.930 . S
C802 C805 1.404 . S
C802 C806 1.353 . S
N803 Co768 2.145 . S
N803 C804 1.397 . S
N803 C805 1.334 . S
C804 H785 0.929 . S
C804 C801 1.388 . S
C804 N803 1.397 . S
C805 H786 0.929 . S
C805 C802 1.404 . S
C805 N803 1.334 . S
C806 H798 0.930 . S
C806 C801 1.418 . S
C806 C802 1.353 . S
C807 H777 0.930 . S
C807 N808 1.330 . S
C807 C809 1.446 . S
N808 Co767 2.151 . S
N808 C807 1.330 . S
N808 C812 1.418 . S
C809 H788 0.929 . S
C809 C807 1.446 . S
C809 C810 1.332 . S
C810 H790 0.931 . S
C810 C809 1.332 . S
C810 C811 1.267 . S
C811 H779 0.929 . S
C811 C810 1.267 . S
C811 C812 1.251 . S
C812 H782 0.929 . S
C812 N808 1.418 . S
C812 C811 1.251 . S
C813 H780 0.930 . S
C813 C815 1.406 . S
C813 C818 1.261 . S
C814 H781 0.930 . S
C814 N816 1.325 . S
C814 C817 1.357 . S
C815 H783 0.928 . S
C815 C813 1.406 . S
C815 N816 1.261 . S
N816 Co767 2.214 . S
N816 C814 1.325 . S
N816 C815 1.261 . S
C817 H787 0.931 . S
C817 C814 1.357 . S
C817 C818 1.312 . S
C818 H789 0.930 . S
C818 C813 1.261 . S
C818 C817 1.312 . S
C819 O791 1.214 . S
C819 O799 1.234 . S
C820 H792 0.929 . S
C820 C823 1.391 . S
C820 C825 1.391 . S
C821 H793 0.929 . S
C821 C822 1.390 . S
C821 N824 1.391 . S
C822 H794 0.930 . S
C822 C821 1.390 . S
C822 C823 1.392 . S
C823 H795 0.929 . S
C823 C820 1.391 . S
C823 C822 1.392 . S
N824 Co768 2.257 . S
N824 C821 1.391 . S
N824 C825 1.388 . S
C825 H796 0.930 . S
C825 C820 1.391 . S
C825 N824 1.388 . S
Co826 O828 2.143 . S
Co826 O834 2.074 . S
Co826 O837 2.093 . S
Co826 O850 2.097 . S
Co826 N867 2.151 . S
Co826 N875 2.214 . S
Co827 O828 2.160 . S
Co827 O833 2.058 . S
Co827 O843 2.057 . S
Co827 O858 2.037 . S
Co827 N862 2.145 . S
Co827 N883 2.257 . S
O828 Co826 2.143 . S
O828 Co827 2.160 . S
C829 O830 1.278 . S
C829 O837 1.224 . S
O830 C829 1.278 . S
C831 O832 1.245 . S
C831 O843 1.232 . S
O832 C831 1.245 . S
O833 Co827 2.058 . S
O833 C859 1.269 . S
O834 Co826 2.074 . S
O834 C859 1.257 . S
H835 C860 0.930 . S
H836 C866 0.930 . S
O837 Co826 2.093 . S
O837 C829 1.224 . S
H838 C870 0.929 . S
H839 C872 0.930 . S
H840 C873 0.930 . S
H841 C871 0.929 . S
H842 C874 0.928 . S
O843 Co827 2.057 . S
O843 C831 1.232 . S
H844 C863 0.929 . S
H845 C864 0.929 . S
H846 C876 0.931 . S
H847 C868 0.929 . S
H848 C877 0.930 . S
H849 C869 0.931 . S
O850 Co826 2.097 . S
O850 C878 1.214 . S
H851 C879 0.929 . S
H852 C880 0.929 . S
H853 C881 0.930 . S
H854 C882 0.929 . S
H855 C884 0.930 . S
H856 C861 0.930 . S
H857 C865 0.930 . S
O858 Co827 2.037 . S
O858 C878 1.234 . S
C859 O833 1.269 . S
C859 O834 1.257 . S
C860 H835 0.930 . S
C860 C863 1.388 . S
C860 C865 1.418 . S
C861 H856 0.930 . S
C861 C864 1.404 . S
C861 C865 1.353 . S
N862 Co827 2.145 . S
N862 C863 1.397 . S
N862 C864 1.334 . S
C863 H844 0.929 . S
C863 C860 1.388 . S
C863 N862 1.397 . S
C864 H845 0.929 . S
C864 C861 1.404 . S
C864 N862 1.334 . S
C865 H857 0.930 . S
C865 C860 1.418 . S
C865 C861 1.353 . S
C866 H836 0.930 . S
C866 N867 1.330 . S
C866 C868 1.446 . S
N867 Co826 2.151 . S
N867 C866 1.330 . S
N867 C871 1.418 . S
C868 H847 0.929 . S
C868 C866 1.446 . S
C868 C869 1.332 . S
C869 H849 0.931 . S
C869 C868 1.332 . S
C869 C870 1.267 . S
C870 H838 0.929 . S
C870 C869 1.267 . S
C870 C871 1.251 . S
C871 H841 0.929 . S
C871 N867 1.418 . S
C871 C870 1.251 . S
C872 H839 0.930 . S
C872 C874 1.406 . S
C872 C877 1.261 . S
C873 H840 0.930 . S
C873 N875 1.325 . S
C873 C876 1.357 . S
C874 H842 0.928 . S
C874 C872 1.406 . S
C874 N875 1.261 . S
N875 Co826 2.214 . S
N875 C873 1.325 . S
N875 C874 1.261 . S
C876 H846 0.931 . S
C876 C873 1.357 . S
C876 C877 1.312 . S
C877 H848 0.930 . S
C877 C872 1.261 . S
C877 C876 1.312 . S
C878 O850 1.214 . S
C878 O858 1.234 . S
C879 H851 0.929 . S
C879 C882 1.391 . S
C879 C884 1.391 . S
C880 H852 0.929 . S
C880 C881 1.390 . S
C880 N883 1.391 . S
C881 H853 0.930 . S
C881 C880 1.390 . S
C881 C882 1.392 . S
C882 H854 0.929 . S
C882 C879 1.391 . S
C882 C881 1.392 . S
N883 Co827 2.257 . S
N883 C880 1.391 . S
N883 C884 1.388 . S
C884 H855 0.930 . S
C884 C879 1.391 . S
C884 N883 1.388 . S
Co885 O887 2.143 . S
Co885 O893 2.074 . S
Co885 O896 2.093 . S
Co885 O909 2.097 . S
Co885 N926 2.151 . S
Co885 N934 2.214 . S
Co886 O887 2.160 . S
Co886 O892 2.058 . S
Co886 O902 2.057 . S
Co886 O917 2.037 . S
Co886 N921 2.145 . S
Co886 N942 2.257 . S
O887 Co885 2.143 . S
O887 Co886 2.160 . S
C888 O889 1.278 . S
C888 O896 1.224 . S
O889 C888 1.278 . S
C890 O891 1.245 . S
C890 O902 1.232 . S
O891 C890 1.245 . S
O892 Co886 2.058 . S
O892 C918 1.269 . S
O893 Co885 2.074 . S
O893 C918 1.257 . S
H894 C919 0.930 . S
H895 C925 0.930 . S
O896 Co885 2.093 . S
O896 C888 1.224 . S
H897 C929 0.929 . S
H898 C931 0.930 . S
H899 C932 0.930 . S
H900 C930 0.929 . S
H901 C933 0.928 . S
O902 Co886 2.057 . S
O902 C890 1.232 . S
H903 C922 0.929 . S
H904 C923 0.929 . S
H905 C935 0.931 . S
H906 C927 0.929 . S
H907 C936 0.930 . S
H908 C928 0.931 . S
O909 Co885 2.097 . S
O909 C937 1.214 . S
H910 C938 0.929 . S
H911 C939 0.929 . S
H912 C940 0.930 . S
H913 C941 0.929 . S
H914 C943 0.930 . S
H915 C920 0.930 . S
H916 C924 0.930 . S
O917 Co886 2.037 . S
O917 C937 1.234 . S
C918 O892 1.269 . S
C918 O893 1.257 . S
C919 H894 0.930 . S
C919 C922 1.388 . S
C919 C924 1.418 . S
C920 H915 0.930 . S
C920 C923 1.404 . S
C920 C924 1.353 . S
N921 Co886 2.145 . S
N921 C922 1.397 . S
N921 C923 1.334 . S
C922 H903 0.929 . S
C922 C919 1.388 . S
C922 N921 1.397 . S
C923 H904 0.929 . S
C923 C920 1.404 . S
C923 N921 1.334 . S
C924 H916 0.930 . S
C924 C919 1.418 . S
C924 C920 1.353 . S
C925 H895 0.930 . S
C925 N926 1.330 . S
C925 C927 1.446 . S
N926 Co885 2.151 . S
N926 C925 1.330 . S
N926 C930 1.418 . S
C927 H906 0.929 . S
C927 C925 1.446 . S
C927 C928 1.332 . S
C928 H908 0.931 . S
C928 C927 1.332 . S
C928 C929 1.267 . S
C929 H897 0.929 . S
C929 C928 1.267 . S
C929 C930 1.251 . S
C930 H900 0.929 . S
C930 N926 1.418 . S
C930 C929 1.251 . S
C931 H898 0.930 . S
C931 C933 1.406 . S
C931 C936 1.261 . S
C932 H899 0.930 . S
C932 N934 1.325 . S
C932 C935 1.357 . S
C933 H901 0.928 . S
C933 C931 1.406 . S
C933 N934 1.261 . S
N934 Co885 2.214 . S
N934 C932 1.325 . S
N934 C933 1.261 . S
C935 H905 0.931 . S
C935 C932 1.357 . S
C935 C936 1.312 . S
C936 H907 0.930 . S
C936 C931 1.261 . S
C936 C935 1.312 . S
C937 O909 1.214 . S
C937 O917 1.234 . S
C938 H910 0.929 . S
C938 C941 1.391 . S
C938 C943 1.391 . S
C939 H911 0.929 . S
C939 C940 1.390 . S
C939 N942 1.391 . S
C940 H912 0.930 . S
C940 C939 1.390 . S
C940 C941 1.392 . S
C941 H913 0.929 . S
C941 C938 1.391 . S
C941 C940 1.392 . S
N942 Co886 2.257 . S
N942 C939 1.391 . S
N942 C943 1.388 . S
C943 H914 0.930 . S
C943 C938 1.391 . S
C943 N942 1.388 . S
H944 C952 0.929 . S
H945 C954 0.930 . S
H946 C956 0.930 . S
H947 C959 0.929 . S
H948 C962 0.930 . S
H949 C964 0.960 . S
H950 C964 0.960 . S
H951 C964 0.960 . S
C952 H944 0.929 . S
C952 C953 1.377 . S
C952 C954 1.384 . S
C953 C952 1.377 . S
C953 C959 1.390 . S
C954 H945 0.930 . S
C954 C952 1.384 . S
C954 C955 1.372 . S
C955 C954 1.372 . S
C955 C956 1.400 . S
C955 C960 1.490 . S
C956 H946 0.930 . S
C956 C955 1.400 . S
C956 C959 1.386 . S
H957 C973 0.930 . S
H958 C974 0.931 . S
C959 H947 0.929 . S
C959 C953 1.390 . S
C959 C956 1.386 . S
C960 C955 1.490 . S
C960 C962 1.395 . S
C960 C963 1.403 . S
H961 C967 0.930 . S
C962 H948 0.930 . S
C962 C960 1.395 . S
C962 C965 1.403 . S
C963 C960 1.403 . S
C963 C964 1.524 . S
C963 C967 1.400 . S
C964 H949 0.960 . S
C964 H950 0.960 . S
C964 H951 0.960 . S
C964 C963 1.524 . S
C965 C962 1.403 . S
C965 C966 1.392 . S
C965 C969 1.495 . S
C966 C965 1.392 . S
C966 C967 1.385 . S
C966 C968 1.478 . S
C967 H961 0.930 . S
C967 C963 1.400 . S
C967 C966 1.385 . S
C968 C966 1.478 . S
C968 C970 1.381 . S
C968 C974 1.383 . S
C969 C965 1.495 . S
C969 H975 0.959 . S
C969 H976 0.961 . S
C969 H977 0.960 . S
C970 C968 1.381 . S
C970 C971 1.394 . S
C970 H978 0.930 . S
C971 C970 1.394 . S
C971 C972 1.383 . S
C971 H979 0.929 . S
C972 C971 1.383 . S
C972 C973 1.377 . S
C973 H957 0.930 . S
C973 C972 1.377 . S
C973 C974 1.379 . S
C974 H958 0.931 . S
C974 C968 1.383 . S
C974 C973 1.379 . S
H975 C969 0.959 . S
H976 C969 0.961 . S
H977 C969 0.960 . S
H978 C970 0.930 . S
H979 C971 0.929 . S
H980 C988 0.929 . S
H981 C990 0.930 . S
H982 C992 0.930 . S
H983 C995 0.929 . S
H984 C998 0.930 . S
H985 C1000 0.960 . S
H986 C1000 0.960 . S
H987 C1000 0.960 . S
C988 H980 0.929 . S
C988 C989 1.377 . S
C988 C990 1.384 . S
C989 C988 1.377 . S
C989 C995 1.390 . S
C990 H981 0.930 . S
C990 C988 1.384 . S
C990 C991 1.372 . S
C991 C990 1.372 . S
C991 C992 1.400 . S
C991 C996 1.490 . S
C992 H982 0.930 . S
C992 C991 1.400 . S
C992 C995 1.386 . S
H993 C1009 0.930 . S
H994 C1010 0.931 . S
C995 H983 0.929 . S
C995 C989 1.390 . S
C995 C992 1.386 . S
C996 C991 1.490 . S
C996 C998 1.395 . S
C996 C999 1.403 . S
H997 C1003 0.930 . S
C998 H984 0.930 . S
C998 C996 1.395 . S
C998 C1001 1.403 . S
C999 C996 1.403 . S
C999 C1000 1.524 . S
C999 C1003 1.400 . S
C1000 H985 0.960 . S
C1000 H986 0.960 . S
C1000 H987 0.960 . S
C1000 C999 1.524 . S
C1001 C998 1.403 . S
C1001 C1002 1.392 . S
C1001 C1005 1.495 . S
C1002 C1001 1.392 . S
C1002 C1003 1.385 . S
C1002 C1004 1.478 . S
C1003 H997 0.930 . S
C1003 C999 1.400 . S
C1003 C1002 1.385 . S
C1004 C1002 1.478 . S
C1004 C1006 1.381 . S
C1004 C1010 1.383 . S
C1005 C1001 1.495 . S
C1005 H1011 0.959 . S
C1005 H1012 0.961 . S
C1005 H1013 0.960 . S
C1006 C1004 1.381 . S
C1006 C1007 1.394 . S
C1006 H1014 0.930 . S
C1007 C1006 1.394 . S
C1007 C1008 1.383 . S
C1007 H1015 0.929 . S
C1008 C1007 1.383 . S
C1008 C1009 1.377 . S
C1009 H993 0.930 . S
C1009 C1008 1.377 . S
C1009 C1010 1.379 . S
C1010 H994 0.931 . S
C1010 C1004 1.383 . S
C1010 C1009 1.379 . S
H1011 C1005 0.959 . S
H1012 C1005 0.961 . S
H1013 C1005 0.960 . S
H1014 C1006 0.930 . S
H1015 C1007 0.929 . S
H1016 C1024 0.929 . S
H1017 C1026 0.930 . S
H1018 C1028 0.930 . S
H1019 C1031 0.929 . S
H1020 C1034 0.930 . S
H1021 C1036 0.960 . S
H1022 C1036 0.960 . S
H1023 C1036 0.960 . S
C1024 H1016 0.929 . S
C1024 C1025 1.377 . S
C1024 C1026 1.384 . S
C1025 C1024 1.377 . S
C1025 C1031 1.390 . S
C1026 H1017 0.930 . S
C1026 C1024 1.384 . S
C1026 C1027 1.372 . S
C1027 C1026 1.372 . S
C1027 C1028 1.400 . S
C1027 C1032 1.490 . S
C1028 H1018 0.930 . S
C1028 C1027 1.400 . S
C1028 C1031 1.386 . S
H1029 C1045 0.930 . S
H1030 C1046 0.931 . S
C1031 H1019 0.929 . S
C1031 C1025 1.390 . S
C1031 C1028 1.386 . S
C1032 C1027 1.490 . S
C1032 C1034 1.395 . S
C1032 C1035 1.403 . S
H1033 C1039 0.930 . S
C1034 H1020 0.930 . S
C1034 C1032 1.395 . S
C1034 C1037 1.403 . S
C1035 C1032 1.403 . S
C1035 C1036 1.524 . S
C1035 C1039 1.400 . S
C1036 H1021 0.960 . S
C1036 H1022 0.960 . S
C1036 H1023 0.960 . S
C1036 C1035 1.524 . S
C1037 C1034 1.403 . S
C1037 C1038 1.392 . S
C1037 C1041 1.495 . S
C1038 C1037 1.392 . S
C1038 C1039 1.385 . S
C1038 C1040 1.478 . S
C1039 H1033 0.930 . S
C1039 C1035 1.400 . S
C1039 C1038 1.385 . S
C1040 C1038 1.478 . S
C1040 C1042 1.381 . S
C1040 C1046 1.383 . S
C1041 C1037 1.495 . S
C1041 H1047 0.959 . S
C1041 H1048 0.961 . S
C1041 H1049 0.960 . S
C1042 C1040 1.381 . S
C1042 C1043 1.394 . S
C1042 H1050 0.930 . S
C1043 C1042 1.394 . S
C1043 C1044 1.383 . S
C1043 H1051 0.929 . S
C1044 C1043 1.383 . S
C1044 C1045 1.377 . S
C1045 H1029 0.930 . S
C1045 C1044 1.377 . S
C1045 C1046 1.379 . S
C1046 H1030 0.931 . S
C1046 C1040 1.383 . S
C1046 C1045 1.379 . S
H1047 C1041 0.959 . S
H1048 C1041 0.961 . S
H1049 C1041 0.960 . S
H1050 C1042 0.930 . S
H1051 C1043 0.929 . S
H1052 C1060 0.929 . S
H1053 C1062 0.930 . S
H1054 C1064 0.930 . S
H1055 C1067 0.929 . S
H1056 C1070 0.930 . S
H1057 C1072 0.960 . S
H1058 C1072 0.960 . S
H1059 C1072 0.960 . S
C1060 H1052 0.929 . S
C1060 C1061 1.377 . S
C1060 C1062 1.384 . S
C1061 C1060 1.377 . S
C1061 C1067 1.390 . S
C1062 H1053 0.930 . S
C1062 C1060 1.384 . S
C1062 C1063 1.372 . S
C1063 C1062 1.372 . S
C1063 C1064 1.400 . S
C1063 C1068 1.490 . S
C1064 H1054 0.930 . S
C1064 C1063 1.400 . S
C1064 C1067 1.386 . S
H1065 C1081 0.930 . S
H1066 C1082 0.931 . S
C1067 H1055 0.929 . S
C1067 C1061 1.390 . S
C1067 C1064 1.386 . S
C1068 C1063 1.490 . S
C1068 C1070 1.395 . S
C1068 C1071 1.403 . S
H1069 C1075 0.930 . S
C1070 H1056 0.930 . S
C1070 C1068 1.395 . S
C1070 C1073 1.403 . S
C1071 C1068 1.403 . S
C1071 C1072 1.524 . S
C1071 C1075 1.400 . S
C1072 H1057 0.960 . S
C1072 H1058 0.960 . S
C1072 H1059 0.960 . S
C1072 C1071 1.524 . S
C1073 C1070 1.403 . S
C1073 C1074 1.392 . S
C1073 C1077 1.495 . S
C1074 C1073 1.392 . S
C1074 C1075 1.385 . S
C1074 C1076 1.478 . S
C1075 H1069 0.930 . S
C1075 C1071 1.400 . S
C1075 C1074 1.385 . S
C1076 C1074 1.478 . S
C1076 C1078 1.381 . S
C1076 C1082 1.383 . S
C1077 C1073 1.495 . S
C1077 H1083 0.959 . S
C1077 H1084 0.961 . S
C1077 H1085 0.960 . S
C1078 C1076 1.381 . S
C1078 C1079 1.394 . S
C1078 H1086 0.930 . S
C1079 C1078 1.394 . S
C1079 C1080 1.383 . S
C1079 H1087 0.929 . S
C1080 C1079 1.383 . S
C1080 C1081 1.377 . S
C1081 H1065 0.930 . S
C1081 C1080 1.377 . S
C1081 C1082 1.379 . S
C1082 H1066 0.931 . S
C1082 C1076 1.383 . S
C1082 C1081 1.379 . S
H1083 C1077 0.959 . S
H1084 C1077 0.961 . S
H1085 C1077 0.960 . S
H1086 C1078 0.930 . S
H1087 C1079 0.929 . S
H1088 C1096 0.929 . S
H1089 C1098 0.930 . S
H1090 C1100 0.930 . S
H1091 C1103 0.929 . S
H1092 C1106 0.930 . S
H1093 C1108 0.960 . S
H1094 C1108 0.960 . S
H1095 C1108 0.960 . S
C1096 H1088 0.929 . S
C1096 C1097 1.377 . S
C1096 C1098 1.384 . S
C1097 C1096 1.377 . S
C1097 C1103 1.390 . S
C1098 H1089 0.930 . S
C1098 C1096 1.384 . S
C1098 C1099 1.372 . S
C1099 C1098 1.372 . S
C1099 C1100 1.400 . S
C1099 C1104 1.490 . S
C1100 H1090 0.930 . S
C1100 C1099 1.400 . S
C1100 C1103 1.386 . S
H1101 C1117 0.930 . S
H1102 C1118 0.931 . S
C1103 H1091 0.929 . S
C1103 C1097 1.390 . S
C1103 C1100 1.386 . S
C1104 C1099 1.490 . S
C1104 C1106 1.395 . S
C1104 C1107 1.403 . S
H1105 C1111 0.930 . S
C1106 H1092 0.930 . S
C1106 C1104 1.395 . S
C1106 C1109 1.403 . S
C1107 C1104 1.403 . S
C1107 C1108 1.524 . S
C1107 C1111 1.400 . S
C1108 H1093 0.960 . S
C1108 H1094 0.960 . S
C1108 H1095 0.960 . S
C1108 C1107 1.524 . S
C1109 C1106 1.403 . S
C1109 C1110 1.392 . S
C1109 C1113 1.495 . S
C1110 C1109 1.392 . S
C1110 C1111 1.385 . S
C1110 C1112 1.478 . S
C1111 H1105 0.930 . S
C1111 C1107 1.400 . S
C1111 C1110 1.385 . S
C1112 C1110 1.478 . S
C1112 C1114 1.381 . S
C1112 C1118 1.383 . S
C1113 C1109 1.495 . S
C1113 H1119 0.959 . S
C1113 H1120 0.961 . S
C1113 H1121 0.960 . S
C1114 C1112 1.381 . S
C1114 C1115 1.394 . S
C1114 H1122 0.930 . S
C1115 C1114 1.394 . S
C1115 C1116 1.383 . S
C1115 H1123 0.929 . S
C1116 C1115 1.383 . S
C1116 C1117 1.377 . S
C1117 H1101 0.930 . S
C1117 C1116 1.377 . S
C1117 C1118 1.379 . S
C1118 H1102 0.931 . S
C1118 C1112 1.383 . S
C1118 C1117 1.379 . S
H1119 C1113 0.959 . S
H1120 C1113 0.961 . S
H1121 C1113 0.960 . S
H1122 C1114 0.930 . S
H1123 C1115 0.929 . S
H1124 C1132 0.929 . S
H1125 C1134 0.930 . S
H1126 C1136 0.930 . S
H1127 C1139 0.929 . S
H1128 C1142 0.930 . S
H1129 C1144 0.960 . S
H1130 C1144 0.960 . S
H1131 C1144 0.960 . S
C1132 H1124 0.929 . S
C1132 C1133 1.377 . S
C1132 C1134 1.384 . S
C1133 C1132 1.377 . S
C1133 C1139 1.390 . S
C1134 H1125 0.930 . S
C1134 C1132 1.384 . S
C1134 C1135 1.372 . S
C1135 C1134 1.372 . S
C1135 C1136 1.400 . S
C1135 C1140 1.490 . S
C1136 H1126 0.930 . S
C1136 C1135 1.400 . S
C1136 C1139 1.386 . S
H1137 C1153 0.930 . S
H1138 C1154 0.931 . S
C1139 H1127 0.929 . S
C1139 C1133 1.390 . S
C1139 C1136 1.386 . S
C1140 C1135 1.490 . S
C1140 C1142 1.395 . S
C1140 C1143 1.403 . S
H1141 C1147 0.930 . S
C1142 H1128 0.930 . S
C1142 C1140 1.395 . S
C1142 C1145 1.403 . S
C1143 C1140 1.403 . S
C1143 C1144 1.524 . S
C1143 C1147 1.400 . S
C1144 H1129 0.960 . S
C1144 H1130 0.960 . S
C1144 H1131 0.960 . S
C1144 C1143 1.524 . S
C1145 C1142 1.403 . S
C1145 C1146 1.392 . S
C1145 C1149 1.495 . S
C1146 C1145 1.392 . S
C1146 C1147 1.385 . S
C1146 C1148 1.478 . S
C1147 H1141 0.930 . S
C1147 C1143 1.400 . S
C1147 C1146 1.385 . S
C1148 C1146 1.478 . S
C1148 C1150 1.381 . S
C1148 C1154 1.383 . S
C1149 C1145 1.495 . S
C1149 H1155 0.959 . S
C1149 H1156 0.961 . S
C1149 H1157 0.960 . S
C1150 C1148 1.381 . S
C1150 C1151 1.394 . S
C1150 H1158 0.930 . S
C1151 C1150 1.394 . S
C1151 C1152 1.383 . S
C1151 H1159 0.929 . S
C1152 C1151 1.383 . S
C1152 C1153 1.377 . S
C1153 H1137 0.930 . S
C1153 C1152 1.377 . S
C1153 C1154 1.379 . S
C1154 H1138 0.931 . S
C1154 C1148 1.383 . S
C1154 C1153 1.379 . S
H1155 C1149 0.959 . S
H1156 C1149 0.961 . S
H1157 C1149 0.960 . S
H1158 C1150 0.930 . S
H1159 C1151 0.929 . S
H1160 C1168 0.929 . S
H1161 C1170 0.930 . S
H1162 C1172 0.930 . S
H1163 C1175 0.929 . S
H1164 C1178 0.930 . S
H1165 C1180 0.960 . S
H1166 C1180 0.960 . S
H1167 C1180 0.960 . S
C1168 H1160 0.929 . S
C1168 C1169 1.377 . S
C1168 C1170 1.384 . S
C1169 C1168 1.377 . S
C1169 C1175 1.390 . S
C1170 H1161 0.930 . S
C1170 C1168 1.384 . S
C1170 C1171 1.372 . S
C1171 C1170 1.372 . S
C1171 C1172 1.400 . S
C1171 C1176 1.490 . S
C1172 H1162 0.930 . S
C1172 C1171 1.400 . S
C1172 C1175 1.386 . S
H1173 C1189 0.930 . S
H1174 C1190 0.931 . S
C1175 H1163 0.929 . S
C1175 C1169 1.390 . S
C1175 C1172 1.386 . S
C1176 C1171 1.490 . S
C1176 C1178 1.395 . S
C1176 C1179 1.403 . S
H1177 C1183 0.930 . S
C1178 H1164 0.930 . S
C1178 C1176 1.395 . S
C1178 C1181 1.403 . S
C1179 C1176 1.403 . S
C1179 C1180 1.524 . S
C1179 C1183 1.400 . S
C1180 H1165 0.960 . S
C1180 H1166 0.960 . S
C1180 H1167 0.960 . S
C1180 C1179 1.524 . S
C1181 C1178 1.403 . S
C1181 C1182 1.392 . S
C1181 C1185 1.495 . S
C1182 C1181 1.392 . S
C1182 C1183 1.385 . S
C1182 C1184 1.478 . S
C1183 H1177 0.930 . S
C1183 C1179 1.400 . S
C1183 C1182 1.385 . S
C1184 C1182 1.478 . S
C1184 C1186 1.381 . S
C1184 C1190 1.383 . S
C1185 C1181 1.495 . S
C1185 H1191 0.959 . S
C1185 H1192 0.961 . S
C1185 H1193 0.960 . S
C1186 C1184 1.381 . S
C1186 C1187 1.394 . S
C1186 H1194 0.930 . S
C1187 C1186 1.394 . S
C1187 C1188 1.383 . S
C1187 H1195 0.929 . S
C1188 C1187 1.383 . S
C1188 C1189 1.377 . S
C1189 H1173 0.930 . S
C1189 C1188 1.377 . S
C1189 C1190 1.379 . S
C1190 H1174 0.931 . S
C1190 C1184 1.383 . S
C1190 C1189 1.379 . S
H1191 C1185 0.959 . S
H1192 C1185 0.961 . S
H1193 C1185 0.960 . S
H1194 C1186 0.930 . S
H1195 C1187 0.929 . S
H1196 C1204 0.929 . S
H1197 C1206 0.930 . S
H1198 C1208 0.930 . S
H1199 C1211 0.929 . S
H1200 C1214 0.930 . S
H1201 C1216 0.960 . S
H1202 C1216 0.960 . S
H1203 C1216 0.960 . S
C1204 H1196 0.929 . S
C1204 C1205 1.377 . S
C1204 C1206 1.384 . S
C1205 C1204 1.377 . S
C1205 C1211 1.390 . S
C1206 H1197 0.930 . S
C1206 C1204 1.384 . S
C1206 C1207 1.372 . S
C1207 C1206 1.372 . S
C1207 C1208 1.400 . S
C1207 C1212 1.490 . S
C1208 H1198 0.930 . S
C1208 C1207 1.400 . S
C1208 C1211 1.386 . S
H1209 C1225 0.930 . S
H1210 C1226 0.931 . S
C1211 H1199 0.929 . S
C1211 C1205 1.390 . S
C1211 C1208 1.386 . S
C1212 C1207 1.490 . S
C1212 C1214 1.395 . S
C1212 C1215 1.403 . S
H1213 C1219 0.930 . S
C1214 H1200 0.930 . S
C1214 C1212 1.395 . S
C1214 C1217 1.403 . S
C1215 C1212 1.403 . S
C1215 C1216 1.524 . S
C1215 C1219 1.400 . S
C1216 H1201 0.960 . S
C1216 H1202 0.960 . S
C1216 H1203 0.960 . S
C1216 C1215 1.524 . S
C1217 C1214 1.403 . S
C1217 C1218 1.392 . S
C1217 C1221 1.495 . S
C1218 C1217 1.392 . S
C1218 C1219 1.385 . S
C1218 C1220 1.478 . S
C1219 H1213 0.930 . S
C1219 C1215 1.400 . S
C1219 C1218 1.385 . S
C1220 C1218 1.478 . S
C1220 C1222 1.381 . S
C1220 C1226 1.383 . S
C1221 C1217 1.495 . S
C1221 H1227 0.959 . S
C1221 H1228 0.961 . S
C1221 H1229 0.960 . S
C1222 C1220 1.381 . S
C1222 C1223 1.394 . S
C1222 H1230 0.930 . S
C1223 C1222 1.394 . S
C1223 C1224 1.383 . S
C1223 H1231 0.929 . S
C1224 C1223 1.383 . S
C1224 C1225 1.377 . S
C1225 H1209 0.930 . S
C1225 C1224 1.377 . S
C1225 C1226 1.379 . S
C1226 H1210 0.931 . S
C1226 C1220 1.383 . S
C1226 C1225 1.379 . S
H1227 C1221 0.959 . S
H1228 C1221 0.961 . S
H1229 C1221 0.960 . S
H1230 C1222 0.930 . S
H1231 C1223 0.929 . S
H1232 C1240 0.929 . S
H1233 C1242 0.930 . S
H1234 C1244 0.930 . S
H1235 C1247 0.929 . S
H1236 C1250 0.930 . S
H1237 C1252 0.960 . S
H1238 C1252 0.960 . S
H1239 C1252 0.960 . S
C1240 H1232 0.929 . S
C1240 C1241 1.377 . S
C1240 C1242 1.384 . S
C1241 C1240 1.377 . S
C1241 C1247 1.390 . S
C1242 H1233 0.930 . S
C1242 C1240 1.384 . S
C1242 C1243 1.372 . S
C1243 C1242 1.372 . S
C1243 C1244 1.400 . S
C1243 C1248 1.490 . S
C1244 H1234 0.930 . S
C1244 C1243 1.400 . S
C1244 C1247 1.386 . S
H1245 C1261 0.930 . S
H1246 C1262 0.931 . S
C1247 H1235 0.929 . S
C1247 C1241 1.390 . S
C1247 C1244 1.386 . S
C1248 C1243 1.490 . S
C1248 C1250 1.395 1_565 S
C1248 C1251 1.403 . S
H1249 C1255 0.930 . S
C1250 H1236 0.930 . S
C1250 C1248 1.395 1_545 S
C1250 C1253 1.403 . S
C1251 C1248 1.403 . S
C1251 C1252 1.524 . S
C1251 C1255 1.400 1_565 S
C1252 H1237 0.960 . S
C1252 H1238 0.960 . S
C1252 H1239 0.960 . S
C1252 C1251 1.524 . S
C1253 C1250 1.403 . S
C1253 C1254 1.392 . S
C1253 C1257 1.495 . S
C1254 C1253 1.392 . S
C1254 C1255 1.385 . S
C1254 C1256 1.478 . S
C1255 H1249 0.930 . S
C1255 C1251 1.400 1_545 S
C1255 C1254 1.385 . S
C1256 C1254 1.478 . S
C1256 C1258 1.381 . S
C1256 C1262 1.383 . S
C1257 C1253 1.495 . S
C1257 H1263 0.959 . S
C1257 H1264 0.961 . S
C1257 H1265 0.960 . S
C1258 C1256 1.381 . S
C1258 C1259 1.394 . S
C1258 H1266 0.930 . S
C1259 C1258 1.394 . S
C1259 C1260 1.383 . S
C1259 H1267 0.929 . S
C1260 C1259 1.383 . S
C1260 C1261 1.377 . S
C1261 H1245 0.930 . S
C1261 C1260 1.377 . S
C1261 C1262 1.379 . S
C1262 H1246 0.931 . S
C1262 C1256 1.383 . S
C1262 C1261 1.379 . S
H1263 C1257 0.959 . S
H1264 C1257 0.961 . S
H1265 C1257 0.960 . S
H1266 C1258 0.930 . S
H1267 C1259 0.929 . S
H1268 C1276 0.929 . S
H1269 C1278 0.930 . S
H1270 C1280 0.930 . S
H1271 C1283 0.929 . S
H1272 C1286 0.930 . S
H1273 C1288 0.960 . S
H1274 C1288 0.960 . S
H1275 C1288 0.960 . S
C1276 H1268 0.929 . S
C1276 C1277 1.377 . S
C1276 C1278 1.384 . S
C1277 C1276 1.377 . S
C1277 C1283 1.390 . S
C1278 H1269 0.930 . S
C1278 C1276 1.384 . S
C1278 C1279 1.372 . S
C1279 C1278 1.372 . S
C1279 C1280 1.400 . S
C1279 C1284 1.490 . S
C1280 H1270 0.930 . S
C1280 C1279 1.400 . S
C1280 C1283 1.386 . S
H1281 C1297 0.930 . S
H1282 C1298 0.931 . S
C1283 H1271 0.929 . S
C1283 C1277 1.390 . S
C1283 C1280 1.386 . S
C1284 C1279 1.490 . S
C1284 C1286 1.395 . S
C1284 C1287 1.403 . S
H1285 C1291 0.930 . S
C1286 H1272 0.930 . S
C1286 C1284 1.395 . S
C1286 C1289 1.403 . S
C1287 C1284 1.403 . S
C1287 C1288 1.524 . S
C1287 C1291 1.400 . S
C1288 H1273 0.960 . S
C1288 H1274 0.960 . S
C1288 H1275 0.960 . S
C1288 C1287 1.524 . S
C1289 C1286 1.403 . S
C1289 C1290 1.392 . S
C1289 C1293 1.495 . S
C1290 C1289 1.392 . S
C1290 C1291 1.385 . S
C1290 C1292 1.478 . S
C1291 H1285 0.930 . S
C1291 C1287 1.400 . S
C1291 C1290 1.385 . S
C1292 C1290 1.478 . S
C1292 C1294 1.381 . S
C1292 C1298 1.383 . S
C1293 C1289 1.495 . S
C1293 H1299 0.959 . S
C1293 H1300 0.961 . S
C1293 H1301 0.960 . S
C1294 C1292 1.381 . S
C1294 C1295 1.394 . S
C1294 H1302 0.930 . S
C1295 C1294 1.394 . S
C1295 C1296 1.383 . S
C1295 H1303 0.929 . S
C1296 C1295 1.383 . S
C1296 C1297 1.377 . S
C1297 H1281 0.930 . S
C1297 C1296 1.377 . S
C1297 C1298 1.379 . S
C1298 H1282 0.931 . S
C1298 C1292 1.383 . S
C1298 C1297 1.379 . S
H1299 C1293 0.959 . S
H1300 C1293 0.961 . S
H1301 C1293 0.960 . S
H1302 C1294 0.930 . S
H1303 C1295 0.929 . S
H1304 C1312 0.929 . S
H1305 C1314 0.930 . S
H1306 C1316 0.930 . S
H1307 C1319 0.929 . S
H1308 C1322 0.930 . S
H1309 C1324 0.960 . S
H1310 C1324 0.960 . S
H1311 C1324 0.960 . S
C1312 H1304 0.929 . S
C1312 C1313 1.377 . S
C1312 C1314 1.384 . S
C1313 C1312 1.377 . S
C1313 C1319 1.390 . S
C1314 H1305 0.930 . S
C1314 C1312 1.384 . S
C1314 C1315 1.372 . S
C1315 C1314 1.372 . S
C1315 C1316 1.400 . S
C1315 C1320 1.490 . S
C1316 H1306 0.930 . S
C1316 C1315 1.400 . S
C1316 C1319 1.386 . S
H1317 C1333 0.930 . S
H1318 C1334 0.931 . S
C1319 H1307 0.929 . S
C1319 C1313 1.390 . S
C1319 C1316 1.386 . S
C1320 C1315 1.490 . S
C1320 C1322 1.395 . S
C1320 C1323 1.403 . S
H1321 C1327 0.930 . S
C1322 H1308 0.930 . S
C1322 C1320 1.395 . S
C1322 C1325 1.403 . S
C1323 C1320 1.403 . S
C1323 C1324 1.524 . S
C1323 C1327 1.400 . S
C1324 H1309 0.960 . S
C1324 H1310 0.960 . S
C1324 H1311 0.960 . S
C1324 C1323 1.524 . S
C1325 C1322 1.403 . S
C1325 C1326 1.392 1_556 S
C1325 C1329 1.495 1_556 S
C1326 C1325 1.392 1_554 S
C1326 C1327 1.385 1_554 S
C1326 C1328 1.478 . S
C1327 H1321 0.930 . S
C1327 C1323 1.400 . S
C1327 C1326 1.385 1_556 S
C1328 C1326 1.478 . S
C1328 C1330 1.381 . S
C1328 C1334 1.383 . S
C1329 C1325 1.495 1_554 S
C1329 H1335 0.959 . S
C1329 H1336 0.961 . S
C1329 H1337 0.960 . S
C1330 C1328 1.381 . S
C1330 C1331 1.394 . S
C1330 H1338 0.930 . S
C1331 C1330 1.394 . S
C1331 C1332 1.383 . S
C1331 H1339 0.929 . S
C1332 C1331 1.383 . S
C1332 C1333 1.377 . S
C1333 H1317 0.930 . S
C1333 C1332 1.377 . S
C1333 C1334 1.379 . S
C1334 H1318 0.931 . S
C1334 C1328 1.383 . S
C1334 C1333 1.379 . S
H1335 C1329 0.959 . S
H1336 C1329 0.961 . S
H1337 C1329 0.960 . S
H1338 C1330 0.930 . S
H1339 C1331 0.929 . S
H1340 C1348 0.929 . S
H1341 C1350 0.930 . S
H1342 C1352 0.930 . S
H1343 C1355 0.929 . S
H1344 C1358 0.948 . S
H1345 C1360 0.960 . S
H1346 C1360 0.960 . S
H1347 C1360 0.960 . S
C1348 H1340 0.929 . S
C1348 C1349 1.377 . S
C1348 C1350 1.384 . S
C1349 C1348 1.377 . S
C1349 C1355 1.390 . S
C1350 H1341 0.930 . S
C1350 C1348 1.384 . S
C1350 C1351 1.372 . S
C1351 C1350 1.372 . S
C1351 C1352 1.400 . S
C1351 C1356 1.490 . S
C1352 H1342 0.930 . S
C1352 C1351 1.400 . S
C1352 C1355 1.386 . S
H1353 C1369 0.930 . S
H1354 C1370 0.931 . S
C1355 H1343 0.929 . S
C1355 C1349 1.390 . S
C1355 C1352 1.386 . S
C1356 C1351 1.490 . S
C1356 C1358 1.397 . S
C1356 C1359 1.403 1_554 S
H1357 C1363 0.930 . S
C1358 H1344 0.948 . S
C1358 C1356 1.397 . S
C1358 C1361 1.384 1_554 S
C1359 C1356 1.403 1_556 S
C1359 C1360 1.524 . S
C1359 C1363 1.400 . S
C1360 H1345 0.960 . S
C1360 H1346 0.960 . S
C1360 H1347 0.960 . S
C1360 C1359 1.524 . S
C1361 C1358 1.384 1_556 S
C1361 C1362 1.392 . S
C1361 C1365 1.495 . S
C1362 C1361 1.392 . S
C1362 C1363 1.385 . S
C1362 C1364 1.478 . S
C1363 H1357 0.930 . S
C1363 C1359 1.400 . S
C1363 C1362 1.385 . S
C1364 C1362 1.478 . S
C1364 C1366 1.381 . S
C1364 C1370 1.383 . S
C1365 C1361 1.495 . S
C1365 H1371 0.959 . S
C1365 H1372 0.961 . S
C1365 H1373 0.960 . S
C1366 C1364 1.381 . S
C1366 C1367 1.394 . S
C1366 H1374 0.930 . S
C1367 C1366 1.394 . S
C1367 C1368 1.383 . S
C1367 H1375 0.929 . S
C1368 C1367 1.383 . S
C1368 C1369 1.377 . S
C1369 H1353 0.930 . S
C1369 C1368 1.377 . S
C1369 C1370 1.379 . S
C1370 H1354 0.931 . S
C1370 C1364 1.383 . S
C1370 C1369 1.379 . S
H1371 C1365 0.959 . S
H1372 C1365 0.961 . S
H1373 C1365 0.960 . S
H1374 C1366 0.930 . S
H1375 C1367 0.929 . S
H1376 C1384 0.929 . S
H1377 C1386 0.930 . S
H1378 C1388 0.930 . S
H1379 C1391 0.929 . S
H1380 C1394 0.930 . S
H1381 C1396 0.960 . S
H1382 C1396 0.960 . S
H1383 C1396 0.960 . S
C1384 H1376 0.929 . S
C1384 C1385 1.377 . S
C1384 C1386 1.384 . S
C1385 C1384 1.377 . S
C1385 C1391 1.390 . S
C1386 H1377 0.930 . S
C1386 C1384 1.384 . S
C1386 C1387 1.372 . S
C1387 C1386 1.372 . S
C1387 C1388 1.400 . S
C1387 C1392 1.490 . S
C1388 H1378 0.930 . S
C1388 C1387 1.400 . S
C1388 C1391 1.386 . S
H1389 C1405 0.930 . S
H1390 C1406 0.931 . S
C1391 H1379 0.929 . S
C1391 C1385 1.390 . S
C1391 C1388 1.386 . S
C1392 C1387 1.490 . S
C1392 C1394 1.395 . S
C1392 C1395 1.403 . S
H1393 C1399 0.930 . S
C1394 H1380 0.930 . S
C1394 C1392 1.395 . S
C1394 C1397 1.403 . S
C1395 C1392 1.403 . S
C1395 C1396 1.524 . S
C1395 C1399 1.400 . S
C1396 H1381 0.960 . S
C1396 H1382 0.960 . S
C1396 H1383 0.960 . S
C1396 C1395 1.524 . S
C1397 C1394 1.403 . S
C1397 C1398 1.392 . S
C1397 C1401 1.495 . S
C1398 C1397 1.392 . S
C1398 C1399 1.385 . S
C1398 C1400 1.478 . S
C1399 H1393 0.930 . S
C1399 C1395 1.400 . S
C1399 C1398 1.385 . S
C1400 C1398 1.478 . S
C1400 C1402 1.381 . S
C1400 C1406 1.383 . S
C1401 C1397 1.495 . S
C1401 H1407 0.959 . S
C1401 H1408 0.961 . S
C1401 H1409 0.960 . S
C1402 C1400 1.381 . S
C1402 C1403 1.394 . S
C1402 H1410 0.930 . S
C1403 C1402 1.394 . S
C1403 C1404 1.383 . S
C1403 H1411 0.929 . S
C1404 C1403 1.383 . S
C1404 C1405 1.377 . S
C1405 H1389 0.930 . S
C1405 C1404 1.377 . S
C1405 C1406 1.379 . S
C1406 H1390 0.931 . S
C1406 C1400 1.383 . S
C1406 C1405 1.379 . S
H1407 C1401 0.959 . S
H1408 C1401 0.961 . S
H1409 C1401 0.960 . S
H1410 C1402 0.930 . S
H1411 C1403 0.929 . S
H1412 C1420 0.929 . S
H1413 C1422 0.930 . S
H1414 C1424 0.930 . S
H1415 C1427 0.929 . S
H1416 C1430 0.930 . S
H1417 C1432 0.960 . S
H1418 C1432 0.960 . S
H1419 C1432 0.960 . S
C1420 H1412 0.929 . S
C1420 C1421 1.377 . S
C1420 C1422 1.384 . S
C1421 C1420 1.377 . S
C1421 C1427 1.390 . S
C1422 H1413 0.930 . S
C1422 C1420 1.384 . S
C1422 C1423 1.372 . S
C1423 C1422 1.372 . S
C1423 C1424 1.400 . S
C1423 C1428 1.490 . S
C1424 H1414 0.930 . S
C1424 C1423 1.400 . S
C1424 C1427 1.386 . S
H1425 C1441 0.930 . S
H1426 C1442 0.931 . S
C1427 H1415 0.929 . S
C1427 C1421 1.390 . S
C1427 C1424 1.386 . S
C1428 C1423 1.490 . S
C1428 C1430 1.395 . S
C1428 C1431 1.403 . S
H1429 C1435 0.930 . S
C1430 H1416 0.930 . S
C1430 C1428 1.395 . S
C1430 C1433 1.403 . S
C1431 C1428 1.403 . S
C1431 C1432 1.524 . S
C1431 C1435 1.400 . S
C1432 H1417 0.960 . S
C1432 H1418 0.960 . S
C1432 H1419 0.960 . S
C1432 C1431 1.524 . S
C1433 C1430 1.403 . S
C1433 C1434 1.392 . S
C1433 C1437 1.495 . S
C1434 C1433 1.392 . S
C1434 C1435 1.385 . S
C1434 C1436 1.478 . S
C1435 H1429 0.930 . S
C1435 C1431 1.400 . S
C1435 C1434 1.385 . S
C1436 C1434 1.478 . S
C1436 C1438 1.381 . S
C1436 C1442 1.383 . S
C1437 C1433 1.495 . S
C1437 H1443 0.959 . S
C1437 H1444 0.961 . S
C1437 H1445 0.960 . S
C1438 C1436 1.381 . S
C1438 C1439 1.394 . S
C1438 H1446 0.930 . S
C1439 C1438 1.394 . S
C1439 C1440 1.383 . S
C1439 H1447 0.929 . S
C1440 C1439 1.383 . S
C1440 C1441 1.377 . S
C1441 H1425 0.930 . S
C1441 C1440 1.377 . S
C1441 C1442 1.379 . S
C1442 H1426 0.931 . S
C1442 C1436 1.383 . S
C1442 C1441 1.379 . S
H1443 C1437 0.959 . S
H1444 C1437 0.961 . S
H1445 C1437 0.960 . S
H1446 C1438 0.930 . S
H1447 C1439 0.929 . S
H1448 C1456 0.929 . S
H1449 C1458 0.930 . S
H1450 C1460 0.930 . S
H1451 C1463 0.929 . S
H1452 C1466 0.930 . S
H1453 C1468 0.960 . S
H1454 C1468 0.960 . S
H1455 C1468 0.960 . S
C1456 H1448 0.929 . S
C1456 C1457 1.377 . S
C1456 C1458 1.384 . S
C1457 C1456 1.377 . S
C1457 C1463 1.390 . S
C1458 H1449 0.930 . S
C1458 C1456 1.384 . S
C1458 C1459 1.372 . S
C1459 C1458 1.372 . S
C1459 C1460 1.400 . S
C1459 C1464 1.490 . S
C1460 H1450 0.930 . S
C1460 C1459 1.400 . S
C1460 C1463 1.386 . S
H1461 C1477 0.930 . S
H1462 C1478 0.931 . S
C1463 H1451 0.929 . S
C1463 C1457 1.390 . S
C1463 C1460 1.386 . S
C1464 C1459 1.490 . S
C1464 C1466 1.395 . S
C1464 C1467 1.403 1_655 S
H1465 C1471 0.930 . S
C1466 H1452 0.930 . S
C1466 C1464 1.395 . S
C1466 C1469 1.403 . S
C1467 C1464 1.403 1_455 S
C1467 C1468 1.524 . S
C1467 C1471 1.400 . S
C1468 H1453 0.960 . S
C1468 H1454 0.960 . S
C1468 H1455 0.960 . S
C1468 C1467 1.524 . S
C1469 C1466 1.403 . S
C1469 C1470 1.392 1_655 S
C1469 C1473 1.495 . S
C1470 C1469 1.392 1_455 S
C1470 C1471 1.385 . S
C1470 C1472 1.478 . S
C1471 H1465 0.930 . S
C1471 C1467 1.400 . S
C1471 C1470 1.385 . S
C1472 C1470 1.478 . S
C1472 C1474 1.381 . S
C1472 C1478 1.383 . S
C1473 C1469 1.495 . S
C1473 H1479 0.959 . S
C1473 H1480 0.961 . S
C1473 H1481 0.960 . S
C1474 C1472 1.381 . S
C1474 C1475 1.394 . S
C1474 H1482 0.930 . S
C1475 C1474 1.394 . S
C1475 C1476 1.383 . S
C1475 H1483 0.929 . S
C1476 C1475 1.383 . S
C1476 C1477 1.377 . S
C1477 H1461 0.930 . S
C1477 C1476 1.377 . S
C1477 C1478 1.379 . S
C1478 H1462 0.931 . S
C1478 C1472 1.383 . S
C1478 C1477 1.379 . S
H1479 C1473 0.959 . S
H1480 C1473 0.961 . S
H1481 C1473 0.960 . S
H1482 C1474 0.930 . S
H1483 C1475 0.929 . S
H1484 C1492 0.929 . S
H1485 C1494 0.930 . S
H1486 C1496 0.930 . S
H1487 C1499 0.929 . S
H1488 C1502 0.930 . S
H1489 C1504 0.960 . S
H1490 C1504 0.960 . S
H1491 C1504 0.960 . S
C1492 H1484 0.929 . S
C1492 C1493 1.377 . S
C1492 C1494 1.384 . S
C1493 C1492 1.377 . S
C1493 C1499 1.390 . S
C1494 H1485 0.930 . S
C1494 C1492 1.384 . S
C1494 C1495 1.372 . S
C1495 C1494 1.372 . S
C1495 C1496 1.400 . S
C1495 C1500 1.490 . S
C1496 H1486 0.930 . S
C1496 C1495 1.400 . S
C1496 C1499 1.386 . S
H1497 C1513 0.930 . S
H1498 C1514 0.931 . S
C1499 H1487 0.929 . S
C1499 C1493 1.390 . S
C1499 C1496 1.386 . S
C1500 C1495 1.490 . S
C1500 C1502 1.395 . S
C1500 C1503 1.403 . S
H1501 C1507 0.930 . S
C1502 H1488 0.930 . S
C1502 C1500 1.395 . S
C1502 C1505 1.403 1_655 S
C1503 C1500 1.403 . S
C1503 C1504 1.524 . S
C1503 C1507 1.400 1_655 S
C1504 H1489 0.960 . S
C1504 H1490 0.960 . S
C1504 H1491 0.960 . S
C1504 C1503 1.524 . S
C1505 C1502 1.403 1_455 S
C1505 C1506 1.392 . S
C1505 C1509 1.495 . S
C1506 C1505 1.392 . S
C1506 C1507 1.385 . S
C1506 C1508 1.478 . S
C1507 H1501 0.930 . S
C1507 C1503 1.400 1_455 S
C1507 C1506 1.385 . S
C1508 C1506 1.478 . S
C1508 C1510 1.381 . S
C1508 C1514 1.383 . S
C1509 C1505 1.495 . S
C1509 H1515 0.959 . S
C1509 H1516 0.961 . S
C1509 H1517 0.960 . S
C1510 C1508 1.381 . S
C1510 C1511 1.394 . S
C1510 H1518 0.930 . S
C1511 C1510 1.394 . S
C1511 C1512 1.383 . S
C1511 H1519 0.929 . S
C1512 C1511 1.383 . S
C1512 C1513 1.377 . S
C1513 H1497 0.930 . S
C1513 C1512 1.377 . S
C1513 C1514 1.379 . S
C1514 H1498 0.931 . S
C1514 C1508 1.383 . S
C1514 C1513 1.379 . S
H1515 C1509 0.959 . S
H1516 C1509 0.961 . S
H1517 C1509 0.960 . S
H1518 C1510 0.930 . S
H1519 C1511 0.929 . S
H1520 C1528 0.929 . S
H1521 C1530 0.930 . S
H1522 C1532 0.930 . S
H1523 C1535 0.929 . S
H1524 C1538 0.930 . S
H1525 C1540 0.960 . S
H1526 C1540 0.960 . S
H1527 C1540 0.960 . S
C1528 H1520 0.929 . S
C1528 C1529 1.377 . S
C1528 C1530 1.384 . S
C1529 C1528 1.377 . S
C1529 C1535 1.390 . S
C1530 H1521 0.930 . S
C1530 C1528 1.384 . S
C1530 C1531 1.372 . S
C1531 C1530 1.372 . S
C1531 C1532 1.400 . S
C1531 C1536 1.490 . S
C1532 H1522 0.930 . S
C1532 C1531 1.400 . S
C1532 C1535 1.386 . S
H1533 C1549 0.930 . S
H1534 C1550 0.931 . S
C1535 H1523 0.929 . S
C1535 C1529 1.390 . S
C1535 C1532 1.386 . S
C1536 C1531 1.490 . S
C1536 C1538 1.395 . S
C1536 C1539 1.403 . S
H1537 C1543 0.930 . S
C1538 H1524 0.930 . S
C1538 C1536 1.395 . S
C1538 C1541 1.403 . S
C1539 C1536 1.403 . S
C1539 C1540 1.524 . S
C1539 C1543 1.400 . S
C1540 H1525 0.960 . S
C1540 H1526 0.960 . S
C1540 H1527 0.960 . S
C1540 C1539 1.524 . S
C1541 C1538 1.403 . S
C1541 C1542 1.392 . S
C1541 C1545 1.495 . S
C1542 C1541 1.392 . S
C1542 C1543 1.385 . S
C1542 C1544 1.478 . S
C1543 H1537 0.930 . S
C1543 C1539 1.400 . S
C1543 C1542 1.385 . S
C1544 C1542 1.478 . S
C1544 C1546 1.381 . S
C1544 C1550 1.383 . S
C1545 C1541 1.495 . S
C1545 H1551 0.959 . S
C1545 H1552 0.961 . S
C1545 H1553 0.960 . S
C1546 C1544 1.381 . S
C1546 C1547 1.394 . S
C1546 H1554 0.930 . S
C1547 C1546 1.394 . S
C1547 C1548 1.383 . S
C1547 H1555 0.929 . S
C1548 C1547 1.383 . S
C1548 C1549 1.377 . S
C1549 H1533 0.930 . S
C1549 C1548 1.377 . S
C1549 C1550 1.379 . S
C1550 H1534 0.931 . S
C1550 C1544 1.383 . S
C1550 C1549 1.379 . S
H1551 C1545 0.959 . S
H1552 C1545 0.961 . S
H1553 C1545 0.960 . S
H1554 C1546 0.930 . S
H1555 C1547 0.929 . S
H1556 C1564 0.929 . S
H1557 C1566 0.930 . S
H1558 C1568 0.930 . S
H1559 C1571 0.929 . S
H1560 C1574 0.930 . S
H1561 C1576 0.960 . S
H1562 C1576 0.960 . S
H1563 C1576 0.960 . S
C1564 H1556 0.929 . S
C1564 C1565 1.377 . S
C1564 C1566 1.384 . S
C1565 C1564 1.377 . S
C1565 C1571 1.390 . S
C1566 H1557 0.930 . S
C1566 C1564 1.384 . S
C1566 C1567 1.372 . S
C1567 C1566 1.372 . S
C1567 C1568 1.400 . S
C1567 C1572 1.490 . S
C1568 H1558 0.930 . S
C1568 C1567 1.400 . S
C1568 C1571 1.386 . S
H1569 C1585 0.930 . S
H1570 C1586 0.931 . S
C1571 H1559 0.929 . S
C1571 C1565 1.390 . S
C1571 C1568 1.386 . S
C1572 C1567 1.490 . S
C1572 C1574 1.395 1_545 S
C1572 C1575 1.403 . S
H1573 C1579 0.930 . S
C1574 H1560 0.930 . S
C1574 C1572 1.395 1_565 S
C1574 C1577 1.403 . S
C1575 C1572 1.403 . S
C1575 C1576 1.524 . S
C1575 C1579 1.400 1_545 S
C1576 H1561 0.960 . S
C1576 H1562 0.960 . S
C1576 H1563 0.960 . S
C1576 C1575 1.524 . S
C1577 C1574 1.403 . S
C1577 C1578 1.392 . S
C1577 C1581 1.495 . S
C1578 C1577 1.392 . S
C1578 C1579 1.385 . S
C1578 C1580 1.478 . S
C1579 H1573 0.930 . S
C1579 C1575 1.400 1_565 S
C1579 C1578 1.385 . S
C1580 C1578 1.478 . S
C1580 C1582 1.381 . S
C1580 C1586 1.383 . S
C1581 C1577 1.495 . S
C1581 H1587 0.959 . S
C1581 H1588 0.961 . S
C1581 H1589 0.960 . S
C1582 C1580 1.381 . S
C1582 C1583 1.394 . S
C1582 H1590 0.930 . S
C1583 C1582 1.394 . S
C1583 C1584 1.383 . S
C1583 H1591 0.929 . S
C1584 C1583 1.383 . S
C1584 C1585 1.377 . S
C1585 H1569 0.930 . S
C1585 C1584 1.377 . S
C1585 C1586 1.379 . S
C1586 H1570 0.931 . S
C1586 C1580 1.383 . S
C1586 C1585 1.379 . S
H1587 C1581 0.959 . S
H1588 C1581 0.961 . S
H1589 C1581 0.960 . S
H1590 C1582 0.930 . S
H1591 C1583 0.929 . S
H1592 C1600 0.929 . S
H1593 C1602 0.930 . S
H1594 C1604 0.930 . S
H1595 C1607 0.929 . S
H1596 C1610 0.930 . S
H1597 C1612 0.960 . S
H1598 C1612 0.960 . S
H1599 C1612 0.960 . S
C1600 H1592 0.929 . S
C1600 C1601 1.377 . S
C1600 C1602 1.384 . S
C1601 C1600 1.377 . S
C1601 C1607 1.390 . S
C1602 H1593 0.930 . S
C1602 C1600 1.384 . S
C1602 C1603 1.372 . S
C1603 C1602 1.372 . S
C1603 C1604 1.400 . S
C1603 C1608 1.490 . S
C1604 H1594 0.930 . S
C1604 C1603 1.400 . S
C1604 C1607 1.386 . S
H1605 C1621 0.930 . S
H1606 C1622 0.931 . S
C1607 H1595 0.929 . S
C1607 C1601 1.390 . S
C1607 C1604 1.386 . S
C1608 C1603 1.490 . S
C1608 C1610 1.395 . S
C1608 C1611 1.403 . S
H1609 C1615 0.930 . S
C1610 H1596 0.930 . S
C1610 C1608 1.395 . S
C1610 C1613 1.403 . S
C1611 C1608 1.403 . S
C1611 C1612 1.524 . S
C1611 C1615 1.400 . S
C1612 H1597 0.960 . S
C1612 H1598 0.960 . S
C1612 H1599 0.960 . S
C1612 C1611 1.524 . S
C1613 C1610 1.403 . S
C1613 C1614 1.392 . S
C1613 C1617 1.495 . S
C1614 C1613 1.392 . S
C1614 C1615 1.385 . S
C1614 C1616 1.478 . S
C1615 H1609 0.930 . S
C1615 C1611 1.400 . S
C1615 C1614 1.385 . S
C1616 C1614 1.478 . S
C1616 C1618 1.381 . S
C1616 C1622 1.383 . S
C1617 C1613 1.495 . S
C1617 H1623 0.959 . S
C1617 H1624 0.961 . S
C1617 H1625 0.960 . S
C1618 C1616 1.381 . S
C1618 C1619 1.394 . S
C1618 H1626 0.930 . S
C1619 C1618 1.394 . S
C1619 C1620 1.383 . S
C1619 H1627 0.929 . S
C1620 C1619 1.383 . S
C1620 C1621 1.377 . S
C1621 H1605 0.930 . S
C1621 C1620 1.377 . S
C1621 C1622 1.379 . S
C1622 H1606 0.931 . S
C1622 C1616 1.383 . S
C1622 C1621 1.379 . S
H1623 C1617 0.959 . S
H1624 C1617 0.961 . S
H1625 C1617 0.960 . S
H1626 C1618 0.930 . S
H1627 C1619 0.929 . S
H1628 C1636 0.929 . S
H1629 C1638 0.930 . S
H1630 C1640 0.930 . S
H1631 C1643 0.929 . S
H1632 C1646 0.930 . S
H1633 C1648 0.960 . S
H1634 C1648 0.960 . S
H1635 C1648 0.960 . S
C1636 H1628 0.929 . S
C1636 C1637 1.377 . S
C1636 C1638 1.384 . S
C1637 C1636 1.377 . S
C1637 C1643 1.390 . S
C1638 H1629 0.930 . S
C1638 C1636 1.384 . S
C1638 C1639 1.372 . S
C1639 C1638 1.372 . S
C1639 C1640 1.400 . S
C1639 C1644 1.490 . S
C1640 H1630 0.930 . S
C1640 C1639 1.400 . S
C1640 C1643 1.386 . S
H1641 C1657 0.930 . S
H1642 C1658 0.931 . S
C1643 H1631 0.929 . S
C1643 C1637 1.390 . S
C1643 C1640 1.386 . S
C1644 C1639 1.490 . S
C1644 C1646 1.395 . S
C1644 C1647 1.403 . S
H1645 C1651 0.930 . S
C1646 H1632 0.930 . S
C1646 C1644 1.395 . S
C1646 C1649 1.403 . S
C1647 C1644 1.403 . S
C1647 C1648 1.524 . S
C1647 C1651 1.400 . S
C1648 H1633 0.960 . S
C1648 H1634 0.960 . S
C1648 H1635 0.960 . S
C1648 C1647 1.524 . S
C1649 C1646 1.403 . S
C1649 C1650 1.393 . S
C1649 C1653 1.495 1_554 S
C1650 C1649 1.393 . S
C1650 C1651 1.388 . S
C1650 C1652 1.474 1_554 S
C1651 H1645 0.930 . S
C1651 C1647 1.400 . S
C1651 C1650 1.388 . S
C1652 C1650 1.474 1_556 S
C1652 C1654 1.381 . S
C1652 C1658 1.383 . S
C1653 C1649 1.495 1_556 S
C1653 H1659 0.959 . S
C1653 H1660 0.961 . S
C1653 H1661 0.960 . S
C1654 C1652 1.381 . S
C1654 C1655 1.394 . S
C1654 H1662 0.930 . S
C1655 C1654 1.394 . S
C1655 C1656 1.383 . S
C1655 H1663 0.929 . S
C1656 C1655 1.383 . S
C1656 C1657 1.377 . S
C1657 H1641 0.930 . S
C1657 C1656 1.377 . S
C1657 C1658 1.379 . S
C1658 H1642 0.931 . S
C1658 C1652 1.383 . S
C1658 C1657 1.379 . S
H1659 C1653 0.959 . S
H1660 C1653 0.961 . S
H1661 C1653 0.960 . S
H1662 C1654 0.930 . S
H1663 C1655 0.929 . S
H1664 C1672 0.929 . S
H1665 C1674 0.930 . S
H1666 C1676 0.930 . S
H1667 C1679 0.929 . S
H1668 C1682 0.930 . S
H1669 C1684 0.954 1_554 S
H1670 C1684 0.962 . S
H1671 C1684 0.969 . S
C1672 H1664 0.929 . S
C1672 C1673 1.377 . S
C1672 C1674 1.384 . S
C1673 C1672 1.377 . S
C1673 C1679 1.390 . S
C1674 H1665 0.930 . S
C1674 C1672 1.384 . S
C1674 C1675 1.372 . S
C1675 C1674 1.372 . S
C1675 C1676 1.400 . S
C1675 C1680 1.490 1_556 S
C1676 H1666 0.930 . S
C1676 C1675 1.400 . S
C1676 C1679 1.386 . S
H1677 C1693 0.930 . S
H1678 C1694 0.931 . S
C1679 H1667 0.929 . S
C1679 C1673 1.390 . S
C1679 C1676 1.386 . S
C1680 C1675 1.490 1_554 S
C1680 C1682 1.395 . S
C1680 C1683 1.403 . S
H1681 C1687 0.930 . S
C1682 H1668 0.930 . S
C1682 C1680 1.395 . S
C1682 C1685 1.403 . S
C1683 C1680 1.403 . S
C1683 C1684 1.519 1_554 S
C1683 C1687 1.400 . S
C1684 H1669 0.954 1_556 S
C1684 H1670 0.962 . S
C1684 H1671 0.969 . S
C1684 C1683 1.519 1_556 S
C1685 C1682 1.403 . S
C1685 C1686 1.392 . S
C1685 C1689 1.495 . S
C1686 C1685 1.392 . S
C1686 C1687 1.385 . S
C1686 C1688 1.478 . S
C1687 H1681 0.930 . S
C1687 C1683 1.400 . S
C1687 C1686 1.385 . S
C1688 C1686 1.478 . S
C1688 C1690 1.381 . S
C1688 C1694 1.383 . S
C1689 C1685 1.495 . S
C1689 H1695 0.959 . S
C1689 H1696 0.961 . S
C1689 H1697 0.960 . S
C1690 C1688 1.381 . S
C1690 C1691 1.394 . S
C1690 H1698 0.930 . S
C1691 C1690 1.394 . S
C1691 C1692 1.383 . S
C1691 H1699 0.929 . S
C1692 C1691 1.383 . S
C1692 C1693 1.377 . S
C1693 H1677 0.930 . S
C1693 C1692 1.377 . S
C1693 C1694 1.379 . S
C1694 H1678 0.931 . S
C1694 C1688 1.383 . S
C1694 C1693 1.379 . S
H1695 C1689 0.959 . S
H1696 C1689 0.961 . S
H1697 C1689 0.960 . S
H1698 C1690 0.930 . S
H1699 C1691 0.929 . S
H1700 C1708 0.929 . S
H1701 C1710 0.930 . S
H1702 C1712 0.930 . S
H1703 C1715 0.929 . S
H1704 C1718 0.930 . S
H1705 C1720 0.960 . S
H1706 C1720 0.960 . S
H1707 C1720 0.960 . S
C1708 H1700 0.929 . S
C1708 C1709 1.377 . S
C1708 C1710 1.384 . S
C1709 C1708 1.377 . S
C1709 C1715 1.390 . S
C1710 H1701 0.930 . S
C1710 C1708 1.384 . S
C1710 C1711 1.372 . S
C1711 C1710 1.372 . S
C1711 C1712 1.400 . S
C1711 C1716 1.490 . S
C1712 H1702 0.930 . S
C1712 C1711 1.400 . S
C1712 C1715 1.386 . S
H1713 C1729 0.930 . S
H1714 C1730 0.931 . S
C1715 H1703 0.929 . S
C1715 C1709 1.390 . S
C1715 C1712 1.386 . S
C1716 C1711 1.490 . S
C1716 C1718 1.395 . S
C1716 C1719 1.403 . S
H1717 C1723 0.930 . S
C1718 H1704 0.930 . S
C1718 C1716 1.395 . S
C1718 C1721 1.403 . S
C1719 C1716 1.403 . S
C1719 C1720 1.524 . S
C1719 C1723 1.400 . S
C1720 H1705 0.960 . S
C1720 H1706 0.960 . S
C1720 H1707 0.960 . S
C1720 C1719 1.524 . S
C1721 C1718 1.403 . S
C1721 C1722 1.392 . S
C1721 C1725 1.495 . S
C1722 C1721 1.392 . S
C1722 C1723 1.385 . S
C1722 C1724 1.478 . S
C1723 H1717 0.930 . S
C1723 C1719 1.400 . S
C1723 C1722 1.385 . S
C1724 C1722 1.478 . S
C1724 C1726 1.381 . S
C1724 C1730 1.383 . S
C1725 C1721 1.495 . S
C1725 H1731 0.959 . S
C1725 H1732 0.961 . S
C1725 H1733 0.960 . S
C1726 C1724 1.381 . S
C1726 C1727 1.394 . S
C1726 H1734 0.930 . S
C1727 C1726 1.394 . S
C1727 C1728 1.383 . S
C1727 H1735 0.929 . S
C1728 C1727 1.383 . S
C1728 C1729 1.377 . S
C1729 H1713 0.930 . S
C1729 C1728 1.377 . S
C1729 C1730 1.379 . S
C1730 H1714 0.931 . S
C1730 C1724 1.383 . S
C1730 C1729 1.379 . S
H1731 C1725 0.959 . S
H1732 C1725 0.961 . S
H1733 C1725 0.960 . S
H1734 C1726 0.930 . S
H1735 C1727 0.929 . S
H1736 C1744 0.929 . S
H1737 C1746 0.930 . S
H1738 C1748 0.930 . S
H1739 C1751 0.929 . S
H1740 C1754 0.930 . S
H1741 C1756 0.960 . S
H1742 C1756 0.960 . S
H1743 C1756 0.960 . S
C1744 H1736 0.929 . S
C1744 C1745 1.377 . S
C1744 C1746 1.384 . S
C1745 C1744 1.377 . S
C1745 C1751 1.390 . S
C1746 H1737 0.930 . S
C1746 C1744 1.384 . S
C1746 C1747 1.372 . S
C1747 C1746 1.372 . S
C1747 C1748 1.400 . S
C1747 C1752 1.490 . S
C1748 H1738 0.930 . S
C1748 C1747 1.400 . S
C1748 C1751 1.386 . S
H1749 C1765 0.930 . S
H1750 C1766 0.931 . S
C1751 H1739 0.929 . S
C1751 C1745 1.390 . S
C1751 C1748 1.386 . S
C1752 C1747 1.490 . S
C1752 C1754 1.395 . S
C1752 C1755 1.403 . S
H1753 C1759 0.930 . S
C1754 H1740 0.930 . S
C1754 C1752 1.395 . S
C1754 C1757 1.403 . S
C1755 C1752 1.403 . S
C1755 C1756 1.524 . S
C1755 C1759 1.400 . S
C1756 H1741 0.960 . S
C1756 H1742 0.960 . S
C1756 H1743 0.960 . S
C1756 C1755 1.524 . S
C1757 C1754 1.403 . S
C1757 C1758 1.392 . S
C1757 C1761 1.495 . S
C1758 C1757 1.392 . S
C1758 C1759 1.385 . S
C1758 C1760 1.478 . S
C1759 H1753 0.930 . S
C1759 C1755 1.400 . S
C1759 C1758 1.385 . S
C1760 C1758 1.478 . S
C1760 C1762 1.381 . S
C1760 C1766 1.383 . S
C1761 C1757 1.495 . S
C1761 H1767 0.959 . S
C1761 H1768 0.961 . S
C1761 H1769 0.960 . S
C1762 C1760 1.381 . S
C1762 C1763 1.394 . S
C1762 H1770 0.930 . S
C1763 C1762 1.394 . S
C1763 C1764 1.383 . S
C1763 H1771 0.929 . S
C1764 C1763 1.383 . S
C1764 C1765 1.377 . S
C1765 H1749 0.930 . S
C1765 C1764 1.377 . S
C1765 C1766 1.379 . S
C1766 H1750 0.931 . S
C1766 C1760 1.383 . S
C1766 C1765 1.379 . S
H1767 C1761 0.959 . S
H1768 C1761 0.961 . S
H1769 C1761 0.960 . S
H1770 C1762 0.930 . S
H1771 C1763 0.929 . S
H1772 C1780 0.929 . S
H1773 C1782 0.930 . S
H1774 C1784 0.936 . S
H1775 C1787 0.929 . S
H1776 C1790 0.930 . S
H1777 C1792 0.960 1_655 S
H1778 C1792 0.960 . S
H1779 C1792 0.960 1_655 S
C1780 H1772 0.929 . S
C1780 C1781 1.377 . S
C1780 C1782 1.384 . S
C1781 C1780 1.377 . S
C1781 C1787 1.390 . S
C1782 H1773 0.930 . S
C1782 C1780 1.384 . S
C1782 C1783 1.372 . S
C1783 C1782 1.372 . S
C1783 C1784 1.400 . S
C1783 C1788 1.490 . S
C1784 H1774 0.936 . S
C1784 C1783 1.400 . S
C1784 C1787 1.386 . S
H1785 C1801 0.930 . S
H1786 C1802 0.931 . S
C1787 H1775 0.929 . S
C1787 C1781 1.390 . S
C1787 C1784 1.386 . S
C1788 C1783 1.490 . S
C1788 C1790 1.395 . S
C1788 C1791 1.403 . S
H1789 C1795 0.930 . S
C1790 H1776 0.930 . S
C1790 C1788 1.395 . S
C1790 C1793 1.412 . S
C1791 C1788 1.403 . S
C1791 C1792 1.524 . S
C1791 C1795 1.400 1_455 S
C1792 H1777 0.960 1_455 S
C1792 H1778 0.960 . S
C1792 H1779 0.960 1_455 S
C1792 C1791 1.524 . S
C1793 C1790 1.412 . S
C1793 C1794 1.385 1_455 S
C1793 C1797 1.492 1_455 S
C1794 C1793 1.385 1_655 S
C1794 C1795 1.385 . S
C1794 C1796 1.478 . S
C1795 H1789 0.930 . S
C1795 C1791 1.400 1_655 S
C1795 C1794 1.385 . S
C1796 C1794 1.478 . S
C1796 C1798 1.381 . S
C1796 C1802 1.383 . S
C1797 C1793 1.492 1_655 S
C1797 H1803 0.945 1_655 S
C1797 H1804 0.984 . S
C1797 H1805 0.955 1_655 S
C1798 C1796 1.381 . S
C1798 C1799 1.394 . S
C1798 H1806 0.930 1_655 S
C1799 C1798 1.394 . S
C1799 C1800 1.383 . S
C1799 H1807 0.929 . S
C1800 C1799 1.383 . S
C1800 C1801 1.377 . S
C1801 H1785 0.930 . S
C1801 C1800 1.377 . S
C1801 C1802 1.379 . S
C1802 H1786 0.931 . S
C1802 C1796 1.383 . S
C1802 C1801 1.379 . S
H1803 C1797 0.945 1_455 S
H1804 C1797 0.984 . S
H1805 C1797 0.955 1_455 S
H1806 C1798 0.930 1_455 S
H1807 C1799 0.929 . S
H1808 C1816 0.929 . S
H1809 C1818 0.930 . S
H1810 C1820 0.930 . S
H1811 C1823 0.929 . S
H1812 C1826 0.930 . S
H1813 C1828 0.960 . S
H1814 C1828 0.960 . S
H1815 C1828 0.960 . S
C1816 H1808 0.929 . S
C1816 C1817 1.377 . S
C1816 C1818 1.384 . S
C1817 C1816 1.377 . S
C1817 C1823 1.390 . S
C1818 H1809 0.930 . S
C1818 C1816 1.384 . S
C1818 C1819 1.372 . S
C1819 C1818 1.372 . S
C1819 C1820 1.400 . S
C1819 C1824 1.490 . S
C1820 H1810 0.930 . S
C1820 C1819 1.400 . S
C1820 C1823 1.386 . S
H1821 C1837 0.930 . S
H1822 C1838 0.931 . S
C1823 H1811 0.929 . S
C1823 C1817 1.390 . S
C1823 C1820 1.386 . S
C1824 C1819 1.490 . S
C1824 C1826 1.395 . S
C1824 C1827 1.403 . S
H1825 C1831 0.930 . S
C1826 H1812 0.930 . S
C1826 C1824 1.395 . S
C1826 C1829 1.403 1_455 S
C1827 C1824 1.403 . S
C1827 C1828 1.524 . S
C1827 C1831 1.400 1_455 S
C1828 H1813 0.960 . S
C1828 H1814 0.960 . S
C1828 H1815 0.960 . S
C1828 C1827 1.524 . S
C1829 C1826 1.403 1_655 S
C1829 C1830 1.392 . S
C1829 C1833 1.495 . S
C1830 C1829 1.392 . S
C1830 C1831 1.385 . S
C1830 C1832 1.478 . S
C1831 H1825 0.930 . S
C1831 C1827 1.400 1_655 S
C1831 C1830 1.385 . S
C1832 C1830 1.478 . S
C1832 C1834 1.381 . S
C1832 C1838 1.383 . S
C1833 C1829 1.495 . S
C1833 H1839 0.959 . S
C1833 H1840 0.961 . S
C1833 H1841 0.960 . S
C1834 C1832 1.381 . S
C1834 C1835 1.394 . S
C1834 H1842 0.930 . S
C1835 C1834 1.394 . S
C1835 C1836 1.383 . S
C1835 H1843 0.929 . S
C1836 C1835 1.383 . S
C1836 C1837 1.377 . S
C1837 H1821 0.930 . S
C1837 C1836 1.377 . S
C1837 C1838 1.379 . S
C1838 H1822 0.931 . S
C1838 C1832 1.383 . S
C1838 C1837 1.379 . S
H1839 C1833 0.959 . S
H1840 C1833 0.961 . S
H1841 C1833 0.960 . S
H1842 C1834 0.930 . S
H1843 C1835 0.929 . S
H1844 C1852 0.929 . S
H1845 C1854 0.930 . S
H1846 C1856 0.930 . S
H1847 C1859 0.929 . S
H1848 C1862 0.930 . S
H1849 C1864 0.960 . S
H1850 C1864 0.960 . S
H1851 C1864 0.960 . S
C1852 H1844 0.929 . S
C1852 C1853 1.377 . S
C1852 C1854 1.384 . S
C1853 C1852 1.377 . S
C1853 C1859 1.390 . S
C1854 H1845 0.930 . S
C1854 C1852 1.384 . S
C1854 C1855 1.372 . S
C1855 C1854 1.372 . S
C1855 C1856 1.400 . S
C1855 C1860 1.490 . S
C1856 H1846 0.930 . S
C1856 C1855 1.400 . S
C1856 C1859 1.386 . S
H1857 C1873 0.930 . S
H1858 C1874 0.931 . S
C1859 H1847 0.929 . S
C1859 C1853 1.390 . S
C1859 C1856 1.386 . S
C1860 C1855 1.490 . S
C1860 C1862 1.395 . S
C1860 C1863 1.403 . S
H1861 C1867 0.930 . S
C1862 H1848 0.930 . S
C1862 C1860 1.395 . S
C1862 C1865 1.403 . S
C1863 C1860 1.403 . S
C1863 C1864 1.524 . S
C1863 C1867 1.400 . S
C1864 H1849 0.960 . S
C1864 H1850 0.960 . S
C1864 H1851 0.960 . S
C1864 C1863 1.524 . S
C1865 C1862 1.403 . S
C1865 C1866 1.392 . S
C1865 C1869 1.495 . S
C1866 C1865 1.392 . S
C1866 C1867 1.385 . S
C1866 C1868 1.478 . S
C1867 H1861 0.930 . S
C1867 C1863 1.400 . S
C1867 C1866 1.385 . S
C1868 C1866 1.478 . S
C1868 C1870 1.381 . S
C1868 C1874 1.383 . S
C1869 C1865 1.495 . S
C1869 H1875 0.959 . S
C1869 H1876 0.961 . S
C1869 H1877 0.960 . S
C1870 C1868 1.381 . S
C1870 C1871 1.394 . S
C1870 H1878 0.930 . S
C1871 C1870 1.394 . S
C1871 C1872 1.383 . S
C1871 H1879 0.929 . S
C1872 C1871 1.383 . S
C1872 C1873 1.377 . S
C1873 H1857 0.930 . S
C1873 C1872 1.377 . S
C1873 C1874 1.379 . S
C1874 H1858 0.931 . S
C1874 C1868 1.383 . S
C1874 C1873 1.379 . S
H1875 C1869 0.959 . S
H1876 C1869 0.961 . S
H1877 C1869 0.960 . S
H1878 C1870 0.930 . S
H1879 C1871 0.929 . S
H1880 C1888 0.929 . S
H1881 C1890 0.930 . S
H1882 C1892 0.930 . S
H1883 C1895 0.929 . S
H1884 C1898 0.930 . S
H1885 C1900 0.960 . S
H1886 C1900 0.960 . S
H1887 C1900 0.960 . S
C1888 H1880 0.929 . S
C1888 C1889 1.377 . S
C1888 C1890 1.384 . S
C1889 C1888 1.377 . S
C1889 C1895 1.390 . S
C1890 H1881 0.930 . S
C1890 C1888 1.384 . S
C1890 C1891 1.372 . S
C1891 C1890 1.372 . S
C1891 C1892 1.400 . S
C1891 C1896 1.490 . S
C1892 H1882 0.930 . S
C1892 C1891 1.400 . S
C1892 C1895 1.386 . S
H1893 C1909 0.930 . S
H1894 C1910 0.931 . S
C1895 H1883 0.929 . S
C1895 C1889 1.390 . S
C1895 C1892 1.386 . S
C1896 C1891 1.490 . S
C1896 C1898 1.395 . S
C1896 C1899 1.403 . S
H1897 C1903 0.930 . S
C1898 H1884 0.930 . S
C1898 C1896 1.395 . S
C1898 C1901 1.403 . S
C1899 C1896 1.403 . S
C1899 C1900 1.524 . S
C1899 C1903 1.400 . S
C1900 H1885 0.960 . S
C1900 H1886 0.960 . S
C1900 H1887 0.960 . S
C1900 C1899 1.524 . S
C1901 C1898 1.403 . S
C1901 C1902 1.392 . S
C1901 C1905 1.495 . S
C1902 C1901 1.392 . S
C1902 C1903 1.385 . S
C1902 C1904 1.478 . S
C1903 H1897 0.930 . S
C1903 C1899 1.400 . S
C1903 C1902 1.385 . S
C1904 C1902 1.478 . S
C1904 C1906 1.381 . S
C1904 C1910 1.383 . S
C1905 C1901 1.495 . S
C1905 H1911 0.959 . S
C1905 H1912 0.961 . S
C1905 H1913 0.960 . S
C1906 C1904 1.381 . S
C1906 C1907 1.394 . S
C1906 H1914 0.930 . S
C1907 C1906 1.394 . S
C1907 C1908 1.383 . S
C1907 H1915 0.929 . S
C1908 C1907 1.383 . S
C1908 C1909 1.377 . S
C1909 H1893 0.930 . S
C1909 C1908 1.377 . S
C1909 C1910 1.379 . S
C1910 H1894 0.931 . S
C1910 C1904 1.383 . S
C1910 C1909 1.379 . S
H1911 C1905 0.959 . S
H1912 C1905 0.961 . S
H1913 C1905 0.960 . S
H1914 C1906 0.930 . S
H1915 C1907 0.929 . S
H1916 C1924 0.929 . S
H1917 C1926 0.930 . S
H1918 C1928 0.930 . S
H1919 C1931 0.929 . S
H1920 C1934 0.930 . S
H1921 C1936 0.960 . S
H1922 C1936 0.960 . S
H1923 C1936 0.960 . S
C1924 H1916 0.929 . S
C1924 C1925 1.377 . S
C1924 C1926 1.384 . S
C1925 C1924 1.377 . S
C1925 C1931 1.390 . S
C1926 H1917 0.930 . S
C1926 C1924 1.384 . S
C1926 C1927 1.372 . S
C1927 C1926 1.372 . S
C1927 C1928 1.400 . S
C1927 C1932 1.490 . S
C1928 H1918 0.930 . S
C1928 C1927 1.400 . S
C1928 C1931 1.386 . S
H1929 C1945 0.930 . S
H1930 C1946 0.931 . S
C1931 H1919 0.929 . S
C1931 C1925 1.390 . S
C1931 C1928 1.386 . S
C1932 C1927 1.490 . S
C1932 C1934 1.395 . S
C1932 C1935 1.403 1_545 S
H1933 C1939 0.930 . S
C1934 H1920 0.930 . S
C1934 C1932 1.395 . S
C1934 C1937 1.403 1_545 S
C1935 C1932 1.403 1_565 S
C1935 C1936 1.524 . S
C1935 C1939 1.400 . S
C1936 H1921 0.960 . S
C1936 H1922 0.960 . S
C1936 H1923 0.960 . S
C1936 C1935 1.524 . S
C1937 C1934 1.403 1_565 S
C1937 C1938 1.392 . S
C1937 C1941 1.495 . S
C1938 C1937 1.392 . S
C1938 C1939 1.385 . S
C1938 C1940 1.478 . S
C1939 H1933 0.930 . S
C1939 C1935 1.400 . S
C1939 C1938 1.385 . S
C1940 C1938 1.478 . S
C1940 C1942 1.381 . S
C1940 C1946 1.383 . S
C1941 C1937 1.495 . S
C1941 H1947 0.959 1_565 S
C1941 H1948 0.961 . S
C1941 H1949 0.960 . S
C1942 C1940 1.381 . S
C1942 C1943 1.394 . S
C1942 H1950 0.930 . S
C1943 C1942 1.394 . S
C1943 C1944 1.383 . S
C1943 H1951 0.929 . S
C1944 C1943 1.383 . S
C1944 C1945 1.377 . S
C1945 H1929 0.930 . S
C1945 C1944 1.377 . S
C1945 C1946 1.379 . S
C1946 H1930 0.931 . S
C1946 C1940 1.383 . S
C1946 C1945 1.379 . S
H1947 C1941 0.959 1_545 S
H1948 C1941 0.961 . S
H1949 C1941 0.960 . S
H1950 C1942 0.930 . S
H1951 C1943 0.929 . S
H1952 C1960 0.929 . S
H1953 C1962 0.930 . S
H1954 C1964 0.930 . S
H1955 C1967 0.929 . S
H1956 C1970 0.930 . S
H1957 C1972 0.960 . S
H1958 C1972 0.960 . S
H1959 C1972 0.960 . S
C1960 H1952 0.929 . S
C1960 C1961 1.377 . S
C1960 C1962 1.384 . S
C1961 C1960 1.377 . S
C1961 C1967 1.390 . S
C1962 H1953 0.930 . S
C1962 C1960 1.384 . S
C1962 C1963 1.372 . S
C1963 C1962 1.372 . S
C1963 C1964 1.400 . S
C1963 C1968 1.490 . S
C1964 H1954 0.930 . S
C1964 C1963 1.400 . S
C1964 C1967 1.386 . S
H1965 C1981 0.930 . S
H1966 C1982 0.931 . S
C1967 H1955 0.929 . S
C1967 C1961 1.390 . S
C1967 C1964 1.386 . S
C1968 C1963 1.490 . S
C1968 C1970 1.395 . S
C1968 C1971 1.403 . S
H1969 C1975 0.930 . S
C1970 H1956 0.930 . S
C1970 C1968 1.395 . S
C1970 C1973 1.403 . S
C1971 C1968 1.403 . S
C1971 C1972 1.524 . S
C1971 C1975 1.400 . S
C1972 H1957 0.960 . S
C1972 H1958 0.960 . S
C1972 H1959 0.960 . S
C1972 C1971 1.524 . S
C1973 C1970 1.403 . S
C1973 C1974 1.392 . S
C1973 C1977 1.495 . S
C1974 C1973 1.392 . S
C1974 C1975 1.385 . S
C1974 C1976 1.478 . S
C1975 H1969 0.930 . S
C1975 C1971 1.400 . S
C1975 C1974 1.385 . S
C1976 C1974 1.478 . S
C1976 C1978 1.381 . S
C1976 C1982 1.383 . S
C1977 C1973 1.495 . S
C1977 H1983 0.959 . S
C1977 H1984 0.961 . S
C1977 H1985 0.960 . S
C1978 C1976 1.381 . S
C1978 C1979 1.394 . S
C1978 H1986 0.930 . S
C1979 C1978 1.394 . S
C1979 C1980 1.383 . S
C1979 H1987 0.929 . S
C1980 C1979 1.383 . S
C1980 C1981 1.377 . S
C1981 H1965 0.930 . S
C1981 C1980 1.377 . S
C1981 C1982 1.379 . S
C1982 H1966 0.931 . S
C1982 C1976 1.383 . S
C1982 C1981 1.379 . S
H1983 C1977 0.959 . S
H1984 C1977 0.961 . S
H1985 C1977 0.960 . S
H1986 C1978 0.930 . S
H1987 C1979 0.929 . S
H1988 C1996 0.929 . S
H1989 C1998 0.930 . S
H1990 C2000 0.930 . S
H1991 C2003 0.929 . S
H1992 C2006 0.930 . S
H1993 C2008 0.960 . S
H1994 C2008 0.960 . S
H1995 C2008 0.960 . S
C1996 H1988 0.929 . S
C1996 C1997 1.377 . S
C1996 C1998 1.384 . S
C1997 C1996 1.377 . S
C1997 C2003 1.390 . S
C1998 H1989 0.930 . S
C1998 C1996 1.384 . S
C1998 C1999 1.372 . S
C1999 C1998 1.372 . S
C1999 C2000 1.400 . S
C1999 C2004 1.490 . S
C2000 H1990 0.930 . S
C2000 C1999 1.400 . S
C2000 C2003 1.386 . S
H2001 C2017 0.930 . S
H2002 C2018 0.931 . S
C2003 H1991 0.929 . S
C2003 C1997 1.390 . S
C2003 C2000 1.386 . S
C2004 C1999 1.490 . S
C2004 C2006 1.395 . S
C2004 C2007 1.403 . S
H2005 C2011 0.930 . S
C2006 H1992 0.930 . S
C2006 C2004 1.395 . S
C2006 C2009 1.403 . S
C2007 C2004 1.403 . S
C2007 C2008 1.524 . S
C2007 C2011 1.400 . S
C2008 H1993 0.960 . S
C2008 H1994 0.960 . S
C2008 H1995 0.960 . S
C2008 C2007 1.524 . S
C2009 C2006 1.403 . S
C2009 C2010 1.392 . S
C2009 C2013 1.495 . S
C2010 C2009 1.392 . S
C2010 C2011 1.385 . S
C2010 C2012 1.478 . S
C2011 H2005 0.930 . S
C2011 C2007 1.400 . S
C2011 C2010 1.385 . S
C2012 C2010 1.478 . S
C2012 C2014 1.381 . S
C2012 C2018 1.383 . S
C2013 C2009 1.495 . S
C2013 H2019 0.959 . S
C2013 H2020 0.961 . S
C2013 H2021 0.960 . S
C2014 C2012 1.381 . S
C2014 C2015 1.394 . S
C2014 H2022 0.930 . S
C2015 C2014 1.394 . S
C2015 C2016 1.383 . S
C2015 H2023 0.929 . S
C2016 C2015 1.383 . S
C2016 C2017 1.377 . S
C2017 H2001 0.930 . S
C2017 C2016 1.377 . S
C2017 C2018 1.379 . S
C2018 H2002 0.931 . S
C2018 C2012 1.383 . S
C2018 C2017 1.379 . S
H2019 C2013 0.959 . S
H2020 C2013 0.961 . S
H2021 C2013 0.960 . S
H2022 C2014 0.930 . S
H2023 C2015 0.929 . S
H2024 C2032 0.929 . S
H2025 C2034 0.930 . S
H2026 C2036 0.930 . S
H2027 C2039 0.929 . S
H2028 C2042 0.930 . S
H2029 C2044 0.978 . S
H2030 C2044 0.960 . S
H2031 C2044 0.960 . S
C2032 H2024 0.929 . S
C2032 C2033 1.377 . S
C2032 C2034 1.384 . S
C2033 C2032 1.377 . S
C2033 C2039 1.390 . S
C2034 H2025 0.930 . S
C2034 C2032 1.384 . S
C2034 C2035 1.372 . S
C2035 C2034 1.372 . S
C2035 C2036 1.400 . S
C2035 C2040 1.490 . S
C2036 H2026 0.930 . S
C2036 C2035 1.400 . S
C2036 C2039 1.386 . S
H2037 C2053 0.930 . S
H2038 C2054 0.931 . S
C2039 H2027 0.929 . S
C2039 C2033 1.390 . S
C2039 C2036 1.386 . S
C2040 C2035 1.490 . S
C2040 C2042 1.395 . S
C2040 C2043 1.403 . S
H2041 C2047 0.930 . S
C2042 H2028 0.930 . S
C2042 C2040 1.395 . S
C2042 C2045 1.365 1_545 S
C2043 C2040 1.403 . S
C2043 C2044 1.524 . S
C2043 C2047 1.400 1_545 S
C2044 H2029 0.978 . S
C2044 H2030 0.960 . S
C2044 H2031 0.960 . S
C2044 C2043 1.524 . S
C2045 C2042 1.365 1_565 S
C2045 C2046 1.416 . S
C2045 C2049 1.512 . S
C2046 C2045 1.416 . S
C2046 C2047 1.385 . S
C2046 C2048 1.478 . S
C2047 H2041 0.930 . S
C2047 C2043 1.400 1_565 S
C2047 C2046 1.385 . S
C2048 C2046 1.478 . S
C2048 C2050 1.381 . S
C2048 C2054 1.383 . S
C2049 C2045 1.512 . S
C2049 H2055 0.959 1_565 S
C2049 H2056 0.961 . S
C2049 H2057 0.960 . S
C2050 C2048 1.381 . S
C2050 C2051 1.394 . S
C2050 H2058 0.930 . S
C2051 C2050 1.394 . S
C2051 C2052 1.383 . S
C2051 H2059 0.929 . S
C2052 C2051 1.383 . S
C2052 C2053 1.377 . S
C2053 H2037 0.930 . S
C2053 C2052 1.377 . S
C2053 C2054 1.379 . S
C2054 H2038 0.931 . S
C2054 C2048 1.383 . S
C2054 C2053 1.379 . S
H2055 C2049 0.959 1_545 S
H2056 C2049 0.961 . S
H2057 C2049 0.960 . S
H2058 C2050 0.930 . S
H2059 C2051 0.929 . S
H2060 C2068 0.929 . S
H2061 C2070 0.930 . S
H2062 C2072 0.930 . S
H2063 C2075 0.929 . S
H2064 C2078 0.930 . S
H2065 C2080 0.960 . S
H2066 C2080 0.960 . S
H2067 C2080 0.960 . S
C2068 H2060 0.929 . S
C2068 C2069 1.377 . S
C2068 C2070 1.384 . S
C2069 C2068 1.377 . S
C2069 C2075 1.390 . S
C2070 H2061 0.930 . S
C2070 C2068 1.384 . S
C2070 C2071 1.372 . S
C2071 C2070 1.372 . S
C2071 C2072 1.400 . S
C2071 C2076 1.490 . S
C2072 H2062 0.930 . S
C2072 C2071 1.400 . S
C2072 C2075 1.386 . S
H2073 C2089 0.930 . S
H2074 C2090 0.931 . S
C2075 H2063 0.929 . S
C2075 C2069 1.390 . S
C2075 C2072 1.386 . S
C2076 C2071 1.490 . S
C2076 C2078 1.395 . S
C2076 C2079 1.403 . S
H2077 C2083 0.930 . S
C2078 H2064 0.930 . S
C2078 C2076 1.395 . S
C2078 C2081 1.403 . S
C2079 C2076 1.403 . S
C2079 C2080 1.524 . S
C2079 C2083 1.400 . S
C2080 H2065 0.960 . S
C2080 H2066 0.960 . S
C2080 H2067 0.960 . S
C2080 C2079 1.524 . S
C2081 C2078 1.403 . S
C2081 C2082 1.392 . S
C2081 C2085 1.495 . S
C2082 C2081 1.392 . S
C2082 C2083 1.385 . S
C2082 C2084 1.478 . S
C2083 H2077 0.930 . S
C2083 C2079 1.400 . S
C2083 C2082 1.385 . S
C2084 C2082 1.478 . S
C2084 C2086 1.381 . S
C2084 C2090 1.383 . S
C2085 C2081 1.495 . S
C2085 H2091 0.959 . S
C2085 H2092 0.961 . S
C2085 H2093 0.960 . S
C2086 C2084 1.381 . S
C2086 C2087 1.394 . S
C2086 H2094 0.930 . S
C2087 C2086 1.394 . S
C2087 C2088 1.383 . S
C2087 H2095 0.929 . S
C2088 C2087 1.383 . S
C2088 C2089 1.377 . S
C2089 H2073 0.930 . S
C2089 C2088 1.377 . S
C2089 C2090 1.379 . S
C2090 H2074 0.931 . S
C2090 C2084 1.383 . S
C2090 C2089 1.379 . S
H2091 C2085 0.959 . S
H2092 C2085 0.961 . S
H2093 C2085 0.960 . S
H2094 C2086 0.930 . S
H2095 C2087 0.929 . S
C953 C52 1.510 . S
C972 C819 1.472 . S
C989 C111 1.511 . S
C1008 C583 1.472 . S
C1025 C878 0.835 . S
C1044 C170 0.802 . S
C1061 C229 0.827 . S
C1080 C937 0.827 . S
C1097 C288 1.508 . S
C1116 C406 1.489 . S
C1133 C642 1.511 . S
C1152 C347 1.489 . S
C1169 C701 0.836 . S
C1188 C465 0.828 . S
C1205 C524 0.832 . S
C1224 C760 0.824 . S
C1241 C121 1.480 . S
C1260 C3 1.474 . S
C1277 C62 1.490 . S
C1296 C180 1.489 . S
C1313 C713 1.508 . S
C1332 C5 1.537 . S
C1349 C64 1.540 . S
C1368 C654 1.528 . S
C1385 C241 1.543 . S
C1404 C123 1.485 . S
C1421 C595 1.543 . S
C1440 C182 1.485 . S
C1457 C92 2.357 . S
C1476 C33 2.352 . S
C1493 C210 1.598 . S
C1512 C151 1.601 . S
C1529 C623 2.359 . S
C1548 C269 2.353 . S
C1565 C418 1.908 . S
C1584 C328 1.914 . S
C1601 C387 1.928 . S
C1620 C477 1.915 . S
C1637 C888 1.633 . S
C1656 C300 1.664 . S
C1673 C359 1.667 . S
C1692 C829 1.653 . S
C1709 C536 1.669 . S
C1728 C416 1.637 . S
C1745 C475 1.639 . S
C1764 C772 1.656 . S
C1781 C357 1.045 . S
C1800 C298 1.025 . S
C1817 C505 1.922 . S
C1836 C446 1.908 . S
C1853 C534 1.047 . S
C1872 C770 1.064 . S
C1889 C593 1.489 . S
C1908 C652 1.497 . S
C1925 C711 1.483 . S
C1944 C239 1.502 . S
C1961 C741 1.599 . S
C1980 C682 1.593 . S
C1997 C831 1.909 . S
C2016 C800 1.913 . S
C2033 C564 1.924 . S
C2052 C890 1.905 . S
C2069 C918 1.920 . S
C2088 C859 1.914 . S
