# Generated by pormake.
# Topology ukb, (4)-cn, num edge types: 1
# Building blocks:
#     Node 0, Type 0, BuildingBlock: KUFVIS_clean_sbu_0, # of connection points: 4
#     Node 1, Type 0, BuildingBlock: KUFVIS_clean_sbu_0, # of connection points: 4
#     Node 2, Type 0, BuildingBlock: KUFVIS_clean_sbu_0, # of connection points: 4
#     Node 3, Type 0, BuildingBlock: KUFVIS_clean_sbu_0, # of connection points: 4
#     Node 4, Type 0, BuildingBlock: KUFVIS_clean_sbu_0, # of connection points: 4
#     Node 5, Type 0, BuildingBlock: KUFVIS_clean_sbu_0, # of connection points: 4
#     Node 6, Type 0, BuildingBlock: KUFVIS_clean_sbu_0, # of connection points: 4
#     Node 7, Type 0, BuildingBlock: KUFVIS_clean_sbu_0, # of connection points: 4
#     Node 8, Type 0, BuildingBlock: KUFVIS_clean_sbu_0, # of connection points: 4
#     Node 9, Type 0, BuildingBlock: KUFVIS_clean_sbu_0, # of connection points: 4
#     Node 10, Type 0, BuildingBlock: KUFVIS_clean_sbu_0, # of connection points: 4
#     Node 11, Type 0, BuildingBlock: KUFVIS_clean_sbu_0, # of connection points: 4
#     Node 12, Type 0, BuildingBlock: KUFVIS_clean_sbu_0, # of connection points: 4
#     Node 13, Type 0, BuildingBlock: KUFVIS_clean_sbu_0, # of connection points: 4
#     Node 14, Type 0, BuildingBlock: KUFVIS_clean_sbu_0, # of connection points: 4
#     Node 15, Type 0, BuildingBlock: KUFVIS_clean_sbu_0, # of connection points: 4
#     Edge 16, Type (0, 0), BuildingBlock: OJICUG_clean_linker_0, # of connection points: 2
#     Edge 17, Type (0, 0), BuildingBlock: OJICUG_clean_linker_0, # of connection points: 2
#     Edge 18, Type (0, 0), BuildingBlock: OJICUG_clean_linker_0, # of connection points: 2
#     Edge 19, Type (0, 0), BuildingBlock: OJICUG_clean_linker_0, # of connection points: 2
#     Edge 20, Type (0, 0), BuildingBlock: OJICUG_clean_linker_0, # of connection points: 2
#     Edge 21, Type (0, 0), BuildingBlock: OJICUG_clean_linker_0, # of connection points: 2
#     Edge 22, Type (0, 0), BuildingBlock: OJICUG_clean_linker_0, # of connection points: 2
#     Edge 23, Type (0, 0), BuildingBlock: OJICUG_clean_linker_0, # of connection points: 2
#     Edge 24, Type (0, 0), BuildingBlock: OJICUG_clean_linker_0, # of connection points: 2
#     Edge 25, Type (0, 0), BuildingBlock: OJICUG_clean_linker_0, # of connection points: 2
#     Edge 26, Type (0, 0), BuildingBlock: OJICUG_clean_linker_0, # of connection points: 2
#     Edge 27, Type (0, 0), BuildingBlock: OJICUG_clean_linker_0, # of connection points: 2
#     Edge 28, Type (0, 0), BuildingBlock: OJICUG_clean_linker_0, # of connection points: 2
#     Edge 29, Type (0, 0), BuildingBlock: OJICUG_clean_linker_0, # of connection points: 2
#     Edge 30, Type (0, 0), BuildingBlock: OJICUG_clean_linker_0, # of connection points: 2
#     Edge 31, Type (0, 0), BuildingBlock: OJICUG_clean_linker_0, # of connection points: 2
#     Edge 32, Type (0, 0), BuildingBlock: OJICUG_clean_linker_0, # of connection points: 2
#     Edge 33, Type (0, 0), BuildingBlock: OJICUG_clean_linker_0, # of connection points: 2
#     Edge 34, Type (0, 0), BuildingBlock: OJICUG_clean_linker_0, # of connection points: 2
#     Edge 35, Type (0, 0), BuildingBlock: OJICUG_clean_linker_0, # of connection points: 2
#     Edge 36, Type (0, 0), BuildingBlock: OJICUG_clean_linker_0, # of connection points: 2
#     Edge 37, Type (0, 0), BuildingBlock: OJICUG_clean_linker_0, # of connection points: 2
#     Edge 38, Type (0, 0), BuildingBlock: OJICUG_clean_linker_0, # of connection points: 2
#     Edge 39, Type (0, 0), BuildingBlock: OJICUG_clean_linker_0, # of connection points: 2
#     Edge 40, Type (0, 0), BuildingBlock: OJICUG_clean_linker_0, # of connection points: 2
#     Edge 41, Type (0, 0), BuildingBlock: OJICUG_clean_linker_0, # of connection points: 2
#     Edge 42, Type (0, 0), BuildingBlock: OJICUG_clean_linker_0, # of connection points: 2
#     Edge 43, Type (0, 0), BuildingBlock: OJICUG_clean_linker_0, # of connection points: 2
#     Edge 44, Type (0, 0), BuildingBlock: OJICUG_clean_linker_0, # of connection points: 2
#     Edge 45, Type (0, 0), BuildingBlock: OJICUG_clean_linker_0, # of connection points: 2
#     Edge 46, Type (0, 0), BuildingBlock: OJICUG_clean_linker_0, # of connection points: 2
#     Edge 47, Type (0, 0), BuildingBlock: OJICUG_clean_linker_0, # of connection points: 2
# Relax obj value: 0.089
# Max RMSD: 0.070
# Mean RMSD: 0.070
data_MOF--net-ukb--node1-KUFVIS_clean_sbu_0--edge1-OJICUG_clean_linker_0
_symmetry_space_group_name_H-M    P1
_symmetry_Int_Tables_number       1
_symmetry_cell_setting            triclinic
loop_
_symmetry_equiv_pos_as_xyz
'x, y, z'
_cell_length_a     31.970301
_cell_length_b     31.989897
_cell_length_c     27.327017
_cell_angle_alpha  90.001061
_cell_angle_beta   89.989662
_cell_angle_gamma 89.865117
loop_
_atom_site_label
_atom_site_type_symbol
_atom_site_fract_x
_atom_site_fract_y
_atom_site_fract_z
_atom_type_partial_charge
Mn0 Mn 0.52165 0.18637 0.20295 0.0
Mn1 Mn 0.6079 0.18904 0.13194 0.0
C2 C 0.58043 0.14833 0.2278 0.0
C3 C 0.45684 0.15778 0.22038 0.0
C4 C 0.58388 0.25873 0.20316 0.0
O5 O 0.50007 0.21282 0.13932 0.0
O6 O 0.55806 0.20538 0.09389 0.0
C7 C 0.58506 0.11972 0.06516 0.0
N8 N 0.61285 0.13778 0.09641 0.0
C9 C 0.66346 0.08345 0.08182 0.0
C10 C 0.63559 0.06446 0.04908 0.0
C11 C 0.59612 0.08259 0.0409 0.0
C12 C 0.65058 0.12032 0.10499 0.0
H13 H 0.55472 0.13356 0.05881 0.0
C14 C 0.5196 0.21498 0.09879 0.0
O15 O 0.46656 0.19502 0.2353 0.0
O16 O 0.48402 0.13784 0.19393 0.0
N17 N 0.65961 0.17407 0.16138 0.0
C18 C 0.6829 0.19681 0.19329 0.0
C19 C 0.72328 0.18328 0.20494 0.0
C20 C 0.73918 0.14655 0.18415 0.0
C21 C 0.71543 0.12454 0.14983 0.0
C22 C 0.67567 0.14002 0.1387 0.0
H23 H 0.67102 0.22538 0.20903 0.0
O24 O 0.55016 0.1569 0.25764 0.0
O25 O 0.57453 0.16044 0.18249 0.0
O26 O 0.55171 0.24092 0.22139 0.0
O27 O 0.60553 0.24282 0.1683 0.0
C28 C 0.72944 0.08775 0.12662 0.0
C29 C 0.70338 0.06712 0.0927 0.0
H30 H 0.64405 0.03586 0.03027 0.0
H31 H 0.57432 0.06802 0.0159 0.0
H32 H 0.74233 0.20145 0.22918 0.0
H33 H 0.76952 0.13562 0.19488 0.0
H34 H 0.76006 0.07496 0.13479 0.0
H35 H 0.7143 0.0387 0.07528 0.0
Mn36 Mn 0.31046 0.5222 0.70509 0.0
Mn37 Mn 0.30505 0.60856 0.63445 0.0
C38 C 0.34646 0.58199 0.73025 0.0
C39 C 0.34195 0.45842 0.72255 0.0
C40 C 0.23547 0.58186 0.70465 0.0
O41 O 0.28538 0.49997 0.64106 0.0
O42 O 0.29088 0.55834 0.59593 0.0
C43 C 0.37554 0.58878 0.56779 0.0
N44 N 0.35618 0.61568 0.59914 0.0
C45 C 0.40793 0.66869 0.58445 0.0
C46 C 0.42822 0.64175 0.5516 0.0
C47 C 0.41205 0.60153 0.54343 0.0
C48 C 0.37174 0.65416 0.60767 0.0
H49 H 0.3632 0.55789 0.56144 0.0
C50 C 0.28273 0.51956 0.60058 0.0
O51 O 0.30421 0.46662 0.73728 0.0
O52 O 0.36071 0.48646 0.69634 0.0
N53 N 0.31794 0.66053 0.66452 0.0
C54 C 0.29477 0.6823 0.69754 0.0
C55 C 0.30677 0.72295 0.71002 0.0
C56 C 0.34214 0.74081 0.68841 0.0
C57 C 0.36481 0.71843 0.65329 0.0
C58 C 0.35104 0.6782 0.64172 0.0
H59 H 0.26709 0.66888 0.71352 0.0
O60 O 0.33843 0.55164 0.76011 0.0
O61 O 0.33469 0.57583 0.68489 0.0
O62 O 0.25434 0.55025 0.72302 0.0
O63 O 0.25112 0.6042 0.67031 0.0
C64 C 0.40074 0.73414 0.62983 0.0
C65 C 0.42239 0.7092 0.59552 0.0
H66 H 0.45636 0.65148 0.53274 0.0
H67 H 0.42764 0.58045 0.51835 0.0
H68 H 0.28862 0.74079 0.73568 0.0
H69 H 0.35141 0.77163 0.69923 0.0
H70 H 0.41219 0.76516 0.63827 0.0
H71 H 0.45023 0.72139 0.57805 0.0
Mn72 Mn 0.97613 0.31116 0.2014 0.0
Mn73 Mn 0.88988 0.30842 0.13047 0.0
C74 C 0.91718 0.34895 0.22657 0.0
C75 C 0.04065 0.34024 0.21929 0.0
C76 C 0.91427 0.2383 0.20103 0.0
O77 O 0.99795 0.28516 0.13769 0.0
O78 O 0.9397 0.29168 0.09257 0.0
C79 C 0.91302 0.37729 0.0632 0.0
N80 N 0.8852 0.35958 0.0947 0.0
C81 C 0.83482 0.41405 0.07974 0.0
C82 C 0.86274 0.4327 0.04677 0.0
C83 C 0.90211 0.41433 0.03865 0.0
C84 C 0.84756 0.37726 0.10319 0.0
H85 H 0.94326 0.36324 0.05684 0.0
C86 C 0.97824 0.28241 0.09735 0.0
O87 O 0.03126 0.3028 0.23383 0.0
O88 O 0.01337 0.36005 0.19287 0.0
N89 N 0.83824 0.32375 0.15979 0.0
C90 C 0.81491 0.30129 0.19191 0.0
C91 C 0.77465 0.31514 0.20371 0.0
C92 C 0.75891 0.35186 0.18267 0.0
C93 C 0.78273 0.37359 0.14816 0.0
C94 C 0.82238 0.35783 0.13703 0.0
H95 H 0.82673 0.27273 0.20765 0.0
O96 O 0.94744 0.3401 0.25628 0.0
O97 O 0.92309 0.33707 0.18114 0.0
O98 O 0.94649 0.25611 0.21915 0.0
O99 O 0.89209 0.25464 0.16689 0.0
C100 C 0.76888 0.41031 0.12469 0.0
C101 C 0.79499 0.43062 0.09055 0.0
H102 H 0.85438 0.46122 0.02772 0.0
H103 H 0.92392 0.42861 0.01343 0.0
H104 H 0.7556 0.29722 0.22823 0.0
H105 H 0.72861 0.36301 0.19325 0.0
H106 H 0.73832 0.42328 0.13281 0.0
H107 H 0.78417 0.45898 0.07291 0.0
Mn108 Mn 0.18658 0.97285 0.70528 0.0
Mn109 Mn 0.19151 0.88686 0.63406 0.0
C110 C 0.15096 0.9129 0.73069 0.0
C111 C 0.15509 0.03657 0.72295 0.0
C112 C 0.26175 0.91358 0.70337 0.0
O113 O 0.2112 0.99532 0.64118 0.0
O114 O 0.20496 0.93734 0.59555 0.0
C115 C 0.12019 0.90647 0.56859 0.0
N116 N 0.14006 0.87957 0.59949 0.0
C117 C 0.08883 0.82608 0.58477 0.0
C118 C 0.06801 0.85302 0.55238 0.0
C119 C 0.08366 0.89349 0.54447 0.0
C120 C 0.12498 0.84087 0.60782 0.0
H121 H 0.13218 0.93753 0.56239 0.0
C122 C 0.21328 0.97605 0.60047 0.0
O123 O 0.19291 0.02844 0.73745 0.0
O124 O 0.13621 0.00845 0.697 0.0
N125 N 0.17927 0.83469 0.66404 0.0
C126 C 0.20287 0.81296 0.69667 0.0
C127 C 0.19146 0.77204 0.7088 0.0
C128 C 0.15629 0.75387 0.68713 0.0
C129 C 0.13302 0.77632 0.65263 0.0
C130 C 0.14619 0.81683 0.64143 0.0
H131 H 0.2305 0.82659 0.71253 0.0
O132 O 0.15909 0.94326 0.76049 0.0
O133 O 0.16231 0.9192 0.68519 0.0
O134 O 0.2429 0.9449 0.72242 0.0
O135 O 0.24582 0.89141 0.66905 0.0
C136 C 0.09716 0.76033 0.62929 0.0
C137 C 0.07496 0.78529 0.59548 0.0
H138 H 0.03987 0.84309 0.53367 0.0
H139 H 0.06767 0.91456 0.51973 0.0
H140 H 0.20996 0.7542 0.73413 0.0
H141 H 0.14774 0.72267 0.69724 0.0
H142 H 0.0862 0.72907 0.6374 0.0
H143 H 0.04719 0.77288 0.57809 0.0
Mn144 Mn 0.52461 0.30914 0.81073 0.0
Mn145 Mn 0.61104 0.30349 0.88127 0.0
C146 C 0.58468 0.34456 0.78522 0.0
C147 C 0.46092 0.34092 0.79329 0.0
C148 C 0.58329 0.23351 0.81213 0.0
O149 O 0.50232 0.28477 0.87512 0.0
O150 O 0.5607 0.29053 0.92029 0.0
C151 C 0.59287 0.37481 0.94728 0.0
N152 N 0.6192 0.35481 0.91583 0.0
C153 C 0.67311 0.40592 0.92916 0.0
C154 C 0.64675 0.42685 0.96211 0.0
C155 C 0.60637 0.41132 0.97103 0.0
C156 C 0.65788 0.3697 0.90667 0.0
H157 H 0.56184 0.36297 0.95419 0.0
C158 C 0.52184 0.28259 0.91569 0.0
O159 O 0.46885 0.30308 0.77882 0.0
O160 O 0.48923 0.35968 0.81912 0.0
N161 N 0.66297 0.31535 0.85047 0.0
C162 C 0.68388 0.2919 0.81701 0.0
C163 C 0.72432 0.30362 0.80314 0.0
C164 C 0.74291 0.33886 0.82411 0.0
C165 C 0.72146 0.36176 0.85984 0.0
C166 C 0.6813 0.34841 0.87253 0.0
H167 H 0.66984 0.26434 0.80157 0.0
O168 O 0.5543 0.3365 0.75539 0.0
O169 O 0.57843 0.33308 0.83066 0.0
O170 O 0.55207 0.25269 0.79331 0.0
O171 O 0.60575 0.2492 0.84634 0.0
C172 C 0.73788 0.39769 0.88259 0.0
C173 C 0.71365 0.41982 0.91719 0.0
H174 H 0.65704 0.45503 0.98045 0.0
H175 H 0.58573 0.42741 0.99619 0.0
H176 H 0.74137 0.28549 0.77671 0.0
H177 H 0.77348 0.34795 0.81207 0.0
H178 H 0.76885 0.40883 0.87331 0.0
H179 H 0.72636 0.44767 0.93408 0.0
Mn180 Mn 0.18491 0.52135 0.31405 0.0
Mn181 Mn 0.18678 0.60706 0.38587 0.0
C182 C 0.1468 0.58011 0.28937 0.0
C183 C 0.1564 0.45669 0.29576 0.0
C184 C 0.25705 0.58389 0.31495 0.0
O185 O 0.21113 0.49944 0.37767 0.0
O186 O 0.20319 0.55705 0.42357 0.0
C187 C 0.11712 0.58331 0.45179 0.0
N188 N 0.13526 0.61145 0.42104 0.0
C189 C 0.0805 0.6616 0.43569 0.0
C190 C 0.06144 0.63337 0.46794 0.0
C191 C 0.07974 0.59396 0.47583 0.0
C192 C 0.11763 0.64913 0.41271 0.0
H193 H 0.13107 0.55301 0.45788 0.0
C194 C 0.21301 0.51869 0.4184 0.0
O195 O 0.19375 0.4665 0.28121 0.0
O196 O 0.13635 0.48363 0.3224 0.0
N197 N 0.1717 0.6589 0.35686 0.0
C198 C 0.19449 0.68255 0.32534 0.0
C199 C 0.18077 0.72289 0.31396 0.0
C200 C 0.14378 0.73841 0.33464 0.0
C201 C 0.12173 0.7143 0.36857 0.0
C202 C 0.13741 0.67458 0.37943 0.0
H203 H 0.22322 0.67096 0.30966 0.0
O204 O 0.15565 0.55007 0.25938 0.0
O205 O 0.15865 0.57398 0.33473 0.0
O206 O 0.23954 0.55173 0.29632 0.0
O207 O 0.24077 0.60523 0.34984 0.0
C208 C 0.08469 0.72789 0.39161 0.0
C209 C 0.06399 0.70147 0.42508 0.0
H210 H 0.03264 0.6415 0.48658 0.0
H211 H 0.06512 0.57188 0.50045 0.0
H212 H 0.19898 0.74218 0.29 0.0
H213 H 0.13261 0.7687 0.3241 0.0
H214 H 0.07175 0.75847 0.38363 0.0
H215 H 0.03537 0.71208 0.44235 0.0
Mn216 Mn 0.97261 0.18587 0.81051 0.0
Mn217 Mn 0.88626 0.19066 0.8812 0.0
C218 C 0.91267 0.15045 0.78457 0.0
C219 C 0.03643 0.15443 0.79305 0.0
C220 C 0.91392 0.26135 0.81299 0.0
O221 O 0.99472 0.21011 0.87499 0.0
O222 O 0.93659 0.20333 0.92041 0.0
C223 C 0.9045 0.11872 0.94622 0.0
N224 N 0.87816 0.13899 0.91502 0.0
C225 C 0.82432 0.08767 0.92759 0.0
C226 C 0.85069 0.06644 0.96026 0.0
C227 C 0.89104 0.08195 0.96943 0.0
C228 C 0.83951 0.12414 0.90563 0.0
H229 H 0.93549 0.13056 0.95334 0.0
C230 C 0.97533 0.21178 0.91568 0.0
O231 O 0.0284 0.19231 0.77878 0.0
O232 O 0.00812 0.13542 0.81863 0.0
N233 N 0.83436 0.17907 0.85023 0.0
C234 C 0.81344 0.20282 0.81706 0.0
C235 C 0.77303 0.1912 0.803 0.0
C236 C 0.75445 0.15574 0.82352 0.0
C237 C 0.77592 0.13249 0.85891 0.0
C238 C 0.81606 0.14576 0.87179 0.0
H239 H 0.82746 0.23056 0.80202 0.0
O240 O 0.94311 0.15872 0.7549 0.0
O241 O 0.91885 0.16165 0.83013 0.0
O242 O 0.94499 0.24233 0.79363 0.0
O243 O 0.89155 0.24531 0.84708 0.0
C244 C 0.75955 0.09631 0.88115 0.0
C245 C 0.78379 0.07384 0.91543 0.0
H246 H 0.84043 0.03806 0.97819 0.0
H247 H 0.91168 0.06563 0.99439 0.0
H248 H 0.75598 0.20955 0.77677 0.0
H249 H 0.72387 0.14676 0.81142 0.0
H250 H 0.72859 0.08524 0.87172 0.0
H251 H 0.77112 0.04581 0.93191 0.0
Mn252 Mn 0.311 0.97801 0.31397 0.0
Mn253 Mn 0.30988 0.89178 0.38493 0.0
C254 C 0.34893 0.91942 0.28811 0.0
C255 C 0.33954 0.04264 0.2958 0.0
C256 C 0.2387 0.91543 0.31535 0.0
O257 O 0.28557 -0.00037 0.37811 0.0
O258 O 0.29286 0.94138 0.42298 0.0
C259 C 0.37935 0.91624 0.45075 0.0
N260 N 0.36162 0.88801 0.41978 0.0
C261 C 0.41782 0.83914 0.43279 0.0
C262 C 0.43648 0.86747 0.46525 0.0
C263 C 0.41723 0.90628 0.47409 0.0
C264 C 0.38011 0.8509 0.41062 0.0
H265 H 0.36474 0.94612 0.45751 0.0
C266 C 0.28329 0.97984 0.41843 0.0
O267 O 0.30198 0.03311 0.28174 0.0
O268 O 0.35977 0.01543 0.32185 0.0
N269 N 0.32565 0.84033 0.35557 0.0
C270 C 0.30288 0.81632 0.3245 0.0
C271 C 0.31753 0.7765 0.31213 0.0
C272 C 0.35546 0.76194 0.3314 0.0
C273 C 0.37725 0.78619 0.36542 0.0
C274 C 0.36062 0.82532 0.37729 0.0
H275 H 0.27349 0.82728 0.31004 0.0
O276 O 0.3395 0.94958 0.25853 0.0
O277 O 0.33752 0.92523 0.33372 0.0
O278 O 0.25596 0.94793 0.29718 0.0
O279 O 0.25563 0.89328 0.34917 0.0
C280 C 0.41497 0.77336 0.38753 0.0
C281 C 0.43531 0.7999 0.42117 0.0
H282 H 0.46569 0.85988 0.4833 0.0
H283 H 0.43153 0.92843 0.49886 0.0
H284 H 0.2993 0.75691 0.28853 0.0
H285 H 0.36764 0.73234 0.31967 0.0
H286 H 0.42867 0.74328 0.37874 0.0
H287 H 0.46443 0.78988 0.43775 0.0
Mn288 Mn 0.47471 0.80919 0.81085 0.0
Mn289 Mn 0.388 0.80548 0.88118 0.0
C290 C 0.41534 0.84604 0.78529 0.0
C291 C 0.53896 0.83949 0.7933 0.0
C292 C 0.4141 0.7353 0.81153 0.0
O293 O 0.49643 0.7838 0.87507 0.0
O294 O 0.43784 0.79018 0.91978 0.0
C295 C 0.40882 0.87551 0.94784 0.0
N296 N 0.38172 0.8568 0.91629 0.0
C297 C 0.32979 0.91005 0.9301 0.0
C298 C 0.35698 0.92973 0.96308 0.0
C299 C 0.39675 0.91247 0.97181 0.0
C300 C 0.34365 0.87338 0.90728 0.0
H301 H 0.43937 0.86229 0.95465 0.0
C302 C 0.47649 0.78122 0.91534 0.0
O303 O 0.5303 0.80185 0.77883 0.0
O304 O 0.51114 0.8588 0.81942 0.0
N305 N 0.33632 0.81936 0.85096 0.0
C306 C 0.31402 0.79628 0.81845 0.0
C307 C 0.27362 0.80912 0.8058 0.0
C308 C 0.25662 0.8454 0.82649 0.0
C309 C 0.2794 0.8678 0.86138 0.0
C310 C 0.3193 0.85308 0.8733 0.0
H311 H 0.32679 0.76802 0.80296 0.0
O312 O 0.44571 0.83749 0.7556 0.0
O313 O 0.42127 0.83433 0.83073 0.0
O314 O 0.44601 0.75354 0.79318 0.0
O315 O 0.39169 0.75148 0.84554 0.0
C316 C 0.2644 0.90434 0.88431 0.0
C317 C 0.28966 0.92554 0.91858 0.0
H318 H 0.34775 0.95822 0.98165 0.0
H319 H 0.418 0.92756 0.99704 0.0
H320 H 0.25538 0.79087 0.78077 0.0
H321 H 0.22619 0.85564 0.81511 0.0
H322 H 0.23366 0.91654 0.87556 0.0
H323 H 0.278 0.95379 0.93571 0.0
Mn324 Mn 0.68635 0.47058 0.31518 0.0
Mn325 Mn 0.69702 0.38333 0.38324 0.0
C326 C 0.65432 0.40922 0.28822 0.0
C327 C 0.64786 0.53111 0.29939 0.0
C328 C 0.76462 0.41497 0.31321 0.0
O329 O 0.70939 0.49339 0.3798 0.0
O330 O 0.70987 0.43355 0.42269 0.0
C331 C 0.62713 0.39879 0.45227 0.0
N332 N 0.64689 0.37341 0.41957 0.0
C333 C 0.59756 0.31806 0.43389 0.0
C334 C 0.5769 0.34343 0.46811 0.0
C335 C 0.59165 0.38405 0.47716 0.0
C336 C 0.63274 0.3345 0.41029 0.0
H337 H 0.63839 0.42999 0.45931 0.0
C338 C 0.71488 0.47298 0.41927 0.0
O339 O 0.68658 0.52809 0.28518 0.0
O340 O 0.63312 0.5005 0.32497 0.0
N341 N 0.6857 0.33148 0.35206 0.0
C342 C 0.70845 0.31179 0.31694 0.0
C343 C 0.69718 0.27138 0.30255 0.0
C344 C 0.66334 0.25143 0.32497 0.0
C345 C 0.64097 0.27178 0.36202 0.0
C346 C 0.65368 0.31206 0.37496 0.0
H347 H 0.73506 0.32686 0.30048 0.0
O348 O 0.66093 0.44039 0.25909 0.0
O349 O 0.66558 0.4152 0.33378 0.0
O350 O 0.74477 0.44688 0.29672 0.0
O351 O 0.74973 0.39073 0.34621 0.0
C352 C 0.60614 0.25415 0.38589 0.0
C353 C 0.58438 0.27733 0.42176 0.0
H354 H 0.54952 0.33217 0.48734 0.0
H355 H 0.57576 0.40392 0.50332 0.0
H356 H 0.71451 0.25538 0.27451 0.0
H357 H 0.65495 0.22067 0.31305 0.0
H358 H 0.59553 0.22304 0.37653 0.0
H359 H 0.55736 0.26369 0.43951 0.0
Mn360 Mn 0.02346 0.68609 0.81499 0.0
Mn361 Mn 0.11068 0.69057 0.88423 0.0
C362 C 0.08264 0.64909 0.78913 0.0
C363 C 0.95904 0.65558 0.79879 0.0
C364 C 0.08385 0.76005 0.814 0.0
O365 O 0.00234 0.71211 0.87915 0.0
O366 O 0.0611 0.70567 0.92353 0.0
C367 C 0.09117 0.62078 0.95178 0.0
N368 N 0.11774 0.63949 0.91961 0.0
C369 C 0.17033 0.58686 0.93319 0.0
C370 C 0.1437 0.56718 0.9668 0.0
C371 C 0.10386 0.58413 0.97595 0.0
C372 C 0.15586 0.62321 0.91017 0.0
H373 H 0.06058 0.63378 0.95895 0.0
C374 C 0.02242 0.71468 0.91932 0.0
O375 O 0.96755 0.69308 0.78368 0.0
O376 O 0.98715 0.63656 0.8248 0.0
N377 N 0.16212 0.67691 0.85324 0.0
C378 C 0.18379 0.69985 0.81998 0.0
C379 C 0.22416 0.68726 0.80688 0.0
C380 C 0.24176 0.65139 0.8278 0.0
C381 C 0.21957 0.62904 0.86327 0.0
C382 C 0.17966 0.64348 0.87563 0.0
H383 H 0.17059 0.7278 0.80417 0.0
O384 O 0.05193 0.65721 0.75976 0.0
O385 O 0.0771 0.66122 0.83448 0.0
O386 O 0.05196 0.74152 0.79603 0.0
O387 O 0.10631 0.74433 0.84824 0.0
C388 C 0.23518 0.59285 0.88638 0.0
C389 C 0.21049 0.57168 0.92126 0.0
H390 H 0.15341 0.53895 0.98555 0.0
H391 H 0.08304 0.56904 1.00167 0.0
H392 H 0.24191 0.70538 0.78128 0.0
H393 H 0.27221 0.64145 0.81618 0.0
H394 H 0.26595 0.58089 0.87732 0.0
H395 H 0.22262 0.5437 0.93854 0.0
Mn396 Mn 0.81097 0.02572 0.30993 0.0
Mn397 Mn 0.80489 0.11273 0.37947 0.0
C398 C 0.84607 0.08571 0.28372 0.0
C399 C 0.8432 0.96216 0.29291 0.0
C400 C 0.73504 0.08412 0.31065 0.0
O401 O 0.78665 0.00385 0.37455 0.0
O402 O 0.79173 0.06268 0.41903 0.0
C403 C 0.87606 0.09514 0.44591 0.0
N404 N 0.85612 0.12121 0.41413 0.0
C405 C 0.90724 0.17518 0.42702 0.0
C406 C 0.92812 0.14908 0.46028 0.0
C407 C 0.91256 0.1088 0.46959 0.0
C408 C 0.87103 0.15981 0.40462 0.0
H409 H 0.86419 0.06419 0.45311 0.0
C410 C 0.78395 0.02375 0.41484 0.0
O411 O 0.80525 0.96972 0.27852 0.0
O412 O 0.86179 0.9907 0.31854 0.0
N413 N 0.81683 0.16443 0.34816 0.0
C414 C 0.79366 0.18495 0.31409 0.0
C415 C 0.80559 0.22516 0.29955 0.0
C416 C 0.84062 0.24405 0.32073 0.0
C417 C 0.86326 0.22297 0.357 0.0
C418 C 0.84981 0.18296 0.37016 0.0
H419 H 0.76622 0.17068 0.2986 0.0
O420 O 0.83813 0.05507 0.25424 0.0
O421 O 0.83466 0.0798 0.32926 0.0
O422 O 0.75428 0.05273 0.29232 0.0
O423 O 0.75073 0.10707 0.3444 0.0
C424 C 0.89916 0.23953 0.37969 0.0
C425 C 0.9212 0.2156 0.41464 0.0
H426 H 0.9563 0.1595 0.47855 0.0
H427 H 0.92862 0.08837 0.49499 0.0
H428 H 0.78786 0.24179 0.27232 0.0
H429 H 0.84986 0.2745 0.30835 0.0
H430 H 0.9104 0.27037 0.37006 0.0
H431 H 0.94906 0.2284 0.43144 0.0
Mn432 Mn 0.46896 0.68756 0.20351 0.0
Mn433 Mn 0.38193 0.69718 0.13468 0.0
C434 C 0.40725 0.65633 0.23092 0.0
C435 C 0.52934 0.64972 0.22156 0.0
C436 C 0.41377 0.76613 0.20264 0.0
O437 O 0.49222 0.70875 0.13822 0.0
O438 O 0.43238 0.70922 0.0952 0.0
C439 C 0.39736 0.62615 0.0673 0.0
N440 N 0.37199 0.64645 0.09957 0.0
C441 C 0.31673 0.59669 0.08678 0.0
C442 C 0.34209 0.57548 0.053 0.0
C443 C 0.38266 0.59019 0.04339 0.0
C444 C 0.33308 0.63239 0.1093 0.0
H445 H 0.42853 0.63734 0.05986 0.0
C446 C 0.47188 0.71387 0.0986 0.0
O447 O 0.52622 0.68884 0.23398 0.0
O448 O 0.49894 0.63401 0.19638 0.0
N449 N 0.33 0.68645 0.16603 0.0
C450 C 0.31043 0.70967 0.20077 0.0
C451 C 0.27034 0.69819 0.21623 0.0
C452 C 0.25047 0.66379 0.19493 0.0
C453 C 0.27057 0.6411 0.15793 0.0
C454 C 0.31065 0.65391 0.14416 0.0
H455 H 0.32546 0.73671 0.21618 0.0
O456 O 0.43814 0.66378 0.26021 0.0
O457 O 0.41361 0.66649 0.18507 0.0
O458 O 0.44559 0.74647 0.2196 0.0
O459 O 0.38929 0.75061 0.1703 0.0
C460 C 0.25304 0.60573 0.13514 0.0
C461 C 0.27613 0.5835 0.09957 0.0
H462 H 0.33089 0.54769 0.03458 0.0
H463 H 0.40253 0.57388 0.01759 0.0
H464 H 0.2546 0.71567 0.2444 0.0
H465 H 0.22006 0.65511 0.20784 0.0
H466 H 0.2221 0.595 0.14513 0.0
H467 H 0.26257 0.55606 0.08269 0.0
Mn468 Mn 0.81105 0.47519 0.7066 0.0
Mn469 Mn 0.80859 0.38904 0.63539 0.0
C470 C 0.84802 0.4159 0.73209 0.0
C471 C 0.84086 0.53937 0.72522 0.0
C472 C 0.73769 0.41387 0.70472 0.0
O473 O 0.78603 0.49725 0.64233 0.0
O474 O 0.79284 0.43896 0.5973 0.0
C475 C 0.87885 0.41158 0.56975 0.0
N476 N 0.86026 0.38385 0.60064 0.0
C477 C 0.91456 0.33301 0.58687 0.0
C478 C 0.93411 0.36083 0.55453 0.0
C479 C 0.91626 0.40037 0.54611 0.0
C480 C 0.87741 0.34601 0.60938 0.0
H481 H 0.86523 0.44197 0.56323 0.0
C482 C 0.78366 0.47752 0.60193 0.0
O483 O 0.80311 0.53045 0.73912 0.0
O484 O 0.86056 0.51188 0.69902 0.0
N485 N 0.82298 0.33725 0.66493 0.0
C486 C 0.79988 0.3142 0.69669 0.0
C487 C 0.81324 0.27391 0.70888 0.0
C488 C 0.85013 0.25779 0.68863 0.0
C489 C 0.87248 0.28127 0.65433 0.0
C490 C 0.8572 0.32102 0.64277 0.0
H491 H 0.77121 0.3263 0.71193 0.0
O492 O 0.83902 0.446 0.76195 0.0
O493 O 0.83673 0.42209 0.68655 0.0
O494 O 0.75543 0.44595 0.72328 0.0
O495 O 0.75435 0.39172 0.67077 0.0
C496 C 0.90952 0.26714 0.63174 0.0
C497 C 0.93064 0.29307 0.59809 0.0
H498 H 0.96295 0.35229 0.53623 0.0
H499 H 0.93125 0.42212 0.5214 0.0
H500 H 0.79492 0.25513 0.73324 0.0
H501 H 0.86096 0.22756 0.69991 0.0
H502 H 0.92217 0.23655 0.64026 0.0
H503 H 0.95928 0.28208 0.5812 0.0
Mn504 Mn 0.02594 0.81142 0.20712 0.0
Mn505 Mn 0.11325 0.80483 0.1381 0.0
C506 C 0.08603 0.84639 0.23346 0.0
C507 C 0.96234 0.84387 0.2236 0.0
C508 C 0.08385 0.73522 0.20676 0.0
O509 O 0.00432 0.78701 0.14241 0.0
O510 O 0.06336 0.79198 0.09818 0.0
C511 C 0.09675 0.87588 0.07116 0.0
N512 N 0.12237 0.85592 0.10344 0.0
C513 C 0.17673 0.90675 0.09131 0.0
C514 C 0.15111 0.92767 0.05756 0.0
C515 C 0.11087 0.91224 0.0476 0.0
C516 C 0.16096 0.87064 0.11349 0.0
H517 H 0.06584 0.8641 0.06344 0.0
C518 C 0.02439 0.78426 0.10221 0.0
O519 O 0.96975 0.80596 0.2382 0.0
O520 O 0.99109 0.86229 0.19809 0.0
N521 N 0.16474 0.81646 0.17 0.0
C522 C 0.18459 0.79342 0.20469 0.0
C523 C 0.22449 0.80543 0.22027 0.0
C524 C 0.24382 0.84033 0.19936 0.0
C525 C 0.22346 0.86279 0.16234 0.0
C526 C 0.18365 0.84936 0.14833 0.0
H527 H 0.16995 0.76615 0.22006 0.0
O528 O 0.05527 0.83864 0.26288 0.0
O529 O 0.08019 0.83484 0.18797 0.0
O530 O 0.0526 0.7547 0.22509 0.0
O531 O 0.10699 0.75075 0.17308 0.0
C532 C 0.24041 0.89862 0.13991 0.0
C533 C 0.21703 0.92062 0.10441 0.0
H534 H 0.16186 0.95577 0.03942 0.0
H535 H 0.09082 0.92832 0.0218 0.0
H536 H 0.24044 0.78796 0.24827 0.0
H537 H 0.27391 0.84973 0.21276 0.0
H538 H 0.27109 0.90989 0.15018 0.0
H539 H 0.23014 0.94841 0.08782 0.0
Mn540 Mn 0.68644 0.02089 0.7023 0.0
Mn541 Mn 0.6896 0.10777 0.6324 0.0
C542 C 0.64945 0.08 0.7284 0.0
C543 C 0.65634 0.95654 0.71966 0.0
C544 C 0.75996 0.08206 0.70204 0.0
O545 O 0.71184 -0.00053 0.6379 0.0
O546 O 0.70544 0.05822 0.59362 0.0
C547 C 0.61978 0.08628 0.56567 0.0
N548 N 0.63819 0.11353 0.59726 0.0
C549 C 0.58424 0.16478 0.58371 0.0
C550 C 0.56487 0.13745 0.55065 0.0
C551 C 0.58264 0.09794 0.54177 0.0
C552 C 0.62113 0.15133 0.60644 0.0
H553 H 0.63335 0.05592 0.55876 0.0
C554 C 0.71448 0.01959 0.59777 0.0
O555 O 0.69402 0.96524 0.73405 0.0
O556 O 0.63691 0.98436 0.69368 0.0
N557 N 0.67516 0.15923 0.66266 0.0
C558 C 0.69805 0.18176 0.69513 0.0
C559 C 0.68472 0.22193 0.70788 0.0
C560 C 0.6481 0.23847 0.68745 0.0
C561 C 0.62595 0.21551 0.65251 0.0
C562 C 0.64117 0.17585 0.64045 0.0
H563 H 0.72652 0.16936 0.71056 0.0
O564 O 0.65814 0.04952 0.75784 0.0
O565 O 0.66101 0.07428 0.68285 0.0
O566 O 0.74202 0.04982 0.72 0.0
O567 O 0.74359 0.10453 0.66821 0.0
C568 C 0.58917 0.23008 0.62972 0.0
C569 C 0.56825 0.20465 0.59538 0.0
H570 H 0.53624 0.14635 0.53215 0.0
H571 H 0.56778 0.07657 0.5165 0.0
H572 H 0.70288 0.24029 0.73281 0.0
H573 H 0.63733 0.26863 0.69908 0.0
H574 H 0.57658 0.26063 0.63859 0.0
H575 H 0.53982 0.21599 0.57833 0.0
C576 C 0.4126 0.13407 0.28932 0.0
C577 C 0.41964 0.13612 0.23869 0.0
H578 H 0.38154 0.10154 0.34759 0.0
C579 C 0.39541 0.11168 0.20698 0.0
H580 H 0.43151 0.15226 0.31437 0.0
C581 C 0.36577 0.08401 0.22588 0.0
C582 C 0.36135 0.07937 0.27667 0.0
H583 H 0.40078 0.11259 0.16785 0.0
H584 H 0.34888 0.0638 0.20097 0.0
C585 C 0.3842 0.10516 0.30829 0.0
C586 C 0.38765 0.39657 0.70787 0.0
C587 C 0.36524 0.42196 0.74054 0.0
H588 H 0.43461 0.34905 0.69973 0.0
C589 C 0.37072 0.41663 0.7911 0.0
H590 H 0.38417 0.40067 0.66872 0.0
C591 C 0.40061 0.38843 0.80872 0.0
C592 C 0.42408 0.36408 0.776 0.0
H593 H 0.3542 0.43648 0.81682 0.0
H594 H 0.40654 0.3868 0.84771 0.0
C595 C 0.4163 0.36713 0.72557 0.0
C596 C 0.08334 0.36514 0.28894 0.0
C597 C 0.0774 0.36228 0.23817 0.0
H598 H 0.11311 0.39858 0.34742 0.0
C599 C 0.10214 0.38642 0.20668 0.0
H600 H 0.06399 0.34723 0.3138 0.0
C601 C 0.13129 0.41447 0.22585 0.0
C602 C 0.13466 0.41987 0.27666 0.0
H603 H 0.09758 0.38493 0.16743 0.0
H604 H 0.14865 0.43435 0.20102 0.0
C605 C 0.11123 0.39444 0.30813 0.0
C606 C 0.12742 0.07974 0.79101 0.0
C607 C 0.13197 0.07329 0.7405 0.0
H608 H 0.09232 0.11052 0.84757 0.0
C609 C 0.10878 0.09778 0.70765 0.0
H610 H 0.14457 0.0606 0.8169 0.0
C611 C 0.0802 0.12735 0.72516 0.0
C612 C 0.07331 0.13146 0.77565 0.0
H613 H 0.11156 0.09283 0.66856 0.0
H614 H 0.06123 0.14466 0.69925 0.0
C615 C 0.0976 0.10808 0.80851 0.0
C616 C 0.58203 0.86564 0.72437 0.0
C617 C 0.5757 0.86211 0.77503 0.0
H618 H 0.61256 0.89954 0.66675 0.0
C619 C 0.60028 0.88583 0.80713 0.0
H620 H 0.56283 0.84808 0.69902 0.0
C621 C 0.62978 0.91395 0.78873 0.0
C622 C 0.63374 0.91986 0.73804 0.0
H623 H 0.59543 0.88386 0.84631 0.0
H624 H 0.64711 0.93339 0.81406 0.0
C625 C 0.61029 0.89501 0.70595 0.0
C626 C 0.5482 0.58184 0.25746 0.0
C627 C 0.56126 0.62153 0.24222 0.0
H628 H 0.56502 0.5232 0.28827 0.0
C629 C 0.60355 0.63271 0.24743 0.0
H630 H 0.51571 0.57257 0.25443 0.0
C631 C 0.63256 0.60358 0.26614 0.0
C632 C 0.61903 0.56382 0.28141 0.0
H633 H 0.61421 0.6633 0.23599 0.0
H634 H 0.66524 0.6121 0.26884 0.0
C635 C 0.5765 0.55364 0.27732 0.0
C636 C 0.91234 0.6324 0.73145 0.0
C637 C 0.92196 0.63285 0.78159 0.0
H638 H 0.87909 0.6012 0.67376 0.0
C639 C 0.90025 0.60626 0.81349 0.0
H640 H 0.92924 0.65223 0.70614 0.0
C641 C 0.87052 0.57835 0.79521 0.0
C642 C 0.86337 0.57564 0.74466 0.0
H643 H 0.90755 0.60586 0.8522 0.0
H644 H 0.85554 0.5567 0.82013 0.0
C645 C 0.88383 0.6033 0.71294 0.0
C646 C 0.88904 0.9005 0.30824 0.0
C647 C 0.86678 0.92572 0.27528 0.0
H648 H 0.93582 0.85288 0.31698 0.0
C649 C 0.87249 0.92012 0.22478 0.0
H650 H 0.88539 0.9048 0.34734 0.0
C651 C 0.90237 0.89173 0.20753 0.0
C652 C 0.92562 0.86745 0.24054 0.0
H653 H 0.85607 0.93983 0.19883 0.0
H654 H 0.90843 0.88982 0.16858 0.0
C655 C 0.91768 0.87088 0.29091 0.0
C656 C 0.6272 0.32364 0.19851 0.0
C657 C 0.59841 0.29905 0.22441 0.0
H658 H 0.66374 0.37924 0.19722 0.0
C659 C 0.58508 0.31303 0.27085 0.0
H660 H 0.63681 0.3152 0.16179 0.0
C661 C 0.60263 0.3491 0.29205 0.0
C662 C 0.63436 0.37112 0.26773 0.0
H663 H 0.56192 0.29563 0.29132 0.0
H664 H 0.59138 0.35975 0.32724 0.0
C665 C 0.64378 0.35975 0.21937 0.0
C666 C 0.17868 0.57924 0.76982 0.0
C667 C 0.1942 0.59512 0.72519 0.0
H668 H 0.13051 0.58313 0.82501 0.0
C669 C 0.17031 0.62551 0.70064 0.0
H670 H 0.19541 0.55483 0.78912 0.0
C671 C 0.13365 0.64132 0.72138 0.0
C672 C 0.12088 0.62931 0.76839 0.0
H673 H 0.17992 0.63733 0.66524 0.0
H674 H 0.1151 0.6633 0.70054 0.0
C675 C 0.14204 0.59597 0.79098 0.0
C676 C 0.855 0.13662 0.21591 0.0
C677 C 0.86606 0.12387 0.2633 0.0
H678 H 0.8598 0.18299 0.16001 0.0
C679 C 0.89885 0.14499 0.28677 0.0
H680 H 0.83412 0.11785 0.19407 0.0
C681 C 0.91576 0.18164 0.26616 0.0
C682 C 0.90053 0.19725 0.22125 0.0
H683 H 0.91121 0.13336 0.32102 0.0
H684 H 0.93979 0.1983 0.28607 0.0
C685 C 0.87082 0.1734 0.19578 0.0
C686 C 0.31955 0.91641 0.76725 0.0
C687 C 0.30334 0.90041 0.72303 0.0
H688 H 0.36843 0.91249 0.82153 0.0
C689 C 0.32686 0.86998 0.69805 0.0
H690 H 0.30316 0.94092 0.78677 0.0
C691 C 0.36376 0.85413 0.71813 0.0
C692 C 0.37709 0.86609 0.76495 0.0
H693 H 0.31677 0.85813 0.66286 0.0
H694 H 0.38198 0.83212 0.69693 0.0
C695 C 0.3564 0.8996 0.78776 0.0
C696 C 0.62676 0.16823 0.81648 0.0
C697 C 0.59605 0.19189 0.79216 0.0
H698 H 0.66467 0.11313 0.81658 0.0
C699 C 0.57943 0.17584 0.74816 0.0
H700 H 0.63914 0.17822 0.85146 0.0
C701 C 0.59591 0.13904 0.72716 0.0
C702 C 0.62969 0.11822 0.74926 0.0
H703 H 0.55469 0.19233 0.72914 0.0
H704 H 0.58259 0.12719 0.69353 0.0
C705 C 0.64227 0.13137 0.79594 0.0
C706 C 0.35713 0.64559 0.29934 0.0
C707 C 0.36929 0.63588 0.2513 0.0
H708 H 0.31208 0.63831 0.35633 0.0
C709 C 0.34818 0.60341 0.22719 0.0
H710 H 0.37587 0.66614 0.32156 0.0
C711 C 0.31222 0.58535 0.24811 0.0
C712 C 0.2974 0.5989 0.2941 0.0
H713 H 0.35945 0.59201 0.19233 0.0
H714 H 0.29554 0.56161 0.22774 0.0
C715 C 0.32113 0.62846 0.3199 0.0
C716 C 0.85504 0.36372 0.79875 0.0
C717 C 0.86783 0.37756 0.75243 0.0
H718 H 0.85789 0.31599 0.85323 0.0
C719 C 0.9018 0.35718 0.73015 0.0
H720 H 0.83252 0.38161 0.81962 0.0
C721 C 0.9182 0.32008 0.75046 0.0
C722 C 0.90127 0.30328 0.7939 0.0
H723 H 0.91529 0.36958 0.69688 0.0
H724 H 0.94308 0.30393 0.73128 0.0
C725 C 0.87046 0.32655 0.81857 0.0
C726 C 0.14491 0.89956 0.23035 0.0
C727 C 0.12419 0.86649 0.25376 0.0
H728 H 0.19783 0.941 0.23095 0.0
C729 C 0.13742 0.8552 0.30091 0.0
H730 H 0.13303 0.91192 0.19621 0.0
C731 C 0.17423 0.87123 0.32084 0.0
C732 C 0.1976 0.90136 0.29546 0.0
H733 H 0.11899 0.83403 0.32271 0.0
H734 H 0.1842 0.86006 0.35641 0.0
C735 C 0.18152 0.91671 0.25082 0.0
C736 C 0.35546 0.63318 0.79761 0.0
C737 C 0.36645 0.62027 0.75026 0.0
H738 H 0.36023 0.67979 0.85318 0.0
C739 C 0.39912 0.6414 0.72653 0.0
H740 H 0.33436 0.61459 0.81949 0.0
C741 C 0.41591 0.67825 0.7468 0.0
C742 C 0.40077 0.69396 0.7917 0.0
H743 H 0.41146 0.62963 0.69234 0.0
H744 H 0.43976 0.69497 0.72665 0.0
C745 C 0.37126 0.67007 0.81746 0.0
C746 C 0.8664 0.35631 0.29442 0.0
C747 C 0.87888 0.36868 0.24743 0.0
H748 H 0.82097 0.36006 0.35124 0.0
C749 C 0.85763 0.40238 0.22555 0.0
H750 H 0.88469 0.33371 0.31473 0.0
C751 C 0.82112 0.41904 0.24733 0.0
C752 C 0.80606 0.40288 0.29203 0.0
H753 H 0.86898 0.41556 0.19161 0.0
H754 H 0.80412 0.44353 0.22849 0.0
C755 C 0.83019 0.37226 0.31588 0.0
C756 C 0.1266 0.82536 0.81884 0.0
C757 C 0.09717 0.80112 0.79342 0.0
H758 H 0.16336 0.88089 0.82016 0.0
C759 C 0.08217 0.81622 0.74817 0.0
H760 H 0.13759 0.81608 0.85473 0.0
C761 C 0.0988 0.85297 0.72744 0.0
C762 C 0.13131 0.87452 0.75096 0.0
H763 H 0.05843 0.79918 0.72821 0.0
H764 H 0.08637 0.86441 0.69316 0.0
C765 C 0.14235 0.86205 0.79846 0.0
C766 C 0.63248 0.14231 0.29452 0.0
C767 C 0.61899 0.12905 0.24828 0.0
H768 H 0.67975 0.14008 0.34957 0.0
C769 C 0.63987 0.09522 0.22638 0.0
H770 H 0.61441 0.1651 0.3148 0.0
C771 C 0.67698 0.07922 0.24721 0.0
C772 C 0.69323 0.0964 0.29081 0.0
H773 H 0.62786 0.08152 0.19303 0.0
H774 H 0.69353 0.05443 0.22835 0.0
C775 C 0.66956 0.12721 0.31492 0.0
C776 C 0.41963 0.82414 0.26631 0.0
C777 C 0.40213 0.80801 0.22284 0.0
H778 H 0.41721 0.87276 0.32113 0.0
C779 C 0.37071 0.83152 0.19954 0.0
H780 H 0.44486 0.80773 0.28454 0.0
C781 C 0.35516 0.86803 0.22071 0.0
C782 C 0.36863 0.88125 0.26699 0.0
H783 H 0.35753 0.82151 0.16497 0.0
H784 H 0.33187 0.88583 0.20091 0.0
C785 C 0.40323 0.8608 0.28793 0.0
C786 C 0.68033 0.41493 0.76912 0.0
C787 C 0.69642 0.40001 0.7243 0.0
H788 H 0.63156 0.40988 0.82335 0.0
C789 C 0.67297 0.37023 0.69841 0.0
H790 H 0.69669 0.43896 0.78936 0.0
C791 C 0.63615 0.35402 0.71806 0.0
C792 C 0.62289 0.36485 0.76534 0.0
H793 H 0.68296 0.35937 0.66272 0.0
H794 H 0.6178 0.33294 0.69596 0.0
C795 C 0.64359 0.39771 0.7892 0.0
C796 C 0.14146 0.63243 0.22293 0.0
C797 C 0.12775 0.61877 0.26893 0.0
H798 H 0.13993 0.67992 0.16818 0.0
C799 C 0.09373 0.63963 0.29053 0.0
H800 H 0.16443 0.61444 0.20283 0.0
C801 C 0.07806 0.67687 0.26975 0.0
C802 C 0.09574 0.69329 0.22649 0.0
H803 H 0.07967 0.62749 0.3236 0.0
H804 H 0.05312 0.6934 0.28838 0.0
C805 C 0.12667 0.66962 0.20259 0.0
C806 C 0.85357 0.09737 0.78755 0.0
C807 C 0.87443 0.13046 0.76429 0.0
H808 H 0.80043 0.05615 0.78675 0.0
C809 C 0.86139 0.14179 0.71709 0.0
H810 H 0.86543 0.08482 0.82158 0.0
C811 C 0.82469 0.12578 0.69695 0.0
C812 C 0.8011 0.09572 0.72221 0.0
H813 H 0.87984 0.16309 0.69539 0.0
H814 H 0.81491 0.13701 0.66134 0.0
C815 C 0.81691 0.08038 0.76697 0.0
C816 C 0.49561 0.20653 0.0133 0.0
C817 C 0.49949 0.23226 0.05476 0.0
H818 H 0.49797 0.20318 0.93493 0.0
C819 C 0.49873 0.27578 0.04869 0.0
H820 H 0.49695 0.17285 0.01708 0.0
C821 C 0.49975 0.2931 1.00165 0.0
C822 C 0.501 0.26713 0.96018 0.0
H823 H 0.50273 0.29619 0.07998 0.0
H824 H 0.50418 0.32651 0.99788 0.0
C825 C 0.4961 0.22389 0.96625 0.0
C826 C 0.27398 0.49666 0.46769 0.0
C827 C 0.23039 0.49842 0.4623 0.0
H828 H 0.32542 0.50092 0.51772 0.0
C829 C 0.20505 0.4951 0.50417 0.0
H830 H 0.29414 0.5002 0.43608 0.0
C831 C 0.22295 0.49511 0.55095 0.0
C832 C 0.26639 0.49899 0.55636 0.0
H833 H 0.17134 0.49717 0.50094 0.0
H834 H 0.20263 0.49741 0.58258 0.0
C835 C 0.29187 0.49722 0.51447 0.0
C836 C 0.00227 0.2892 0.01164 0.0
C837 C 0.99811 0.26423 0.05368 0.0
H838 H 5e-05 0.29121 0.9332 0.0
C839 C 0.99822 0.22061 0.04863 0.0
H840 H 0.00135 0.32296 0.01464 0.0
C841 C 0.99687 0.20249 1.00203 0.0
C842 C 0.99605 0.22776 0.95997 0.0
H843 H 0.99396 0.2008 0.0804 0.0
H844 H 0.99192 0.1691 0.99905 0.0
C845 C 0.00158 0.27103 0.96501 0.0
C846 C 0.22179 -6e-05 0.46771 0.0
C847 C 0.26542 -0.0005 0.46241 0.0
H848 H 0.1704 0.99372 0.51751 0.0
C849 C 0.29059 0.00312 0.50437 0.0
H850 H 0.20181 0.9961 0.436 0.0
C851 C 0.2726 0.00217 0.5511 0.0
C852 C 0.22928 0.99698 0.55631 0.0
H853 H 0.32435 0.002 0.50119 0.0
H854 H 0.2929 0.00022 0.58277 0.0
C855 C 0.20384 0.99838 0.5144 0.0
C856 C 0.49992 0.78944 1.00098 0.0
C857 C 0.49621 0.76375 0.9595 0.0
H858 H 0.49665 0.79287 0.0793 0.0
C859 C 0.49609 0.72021 0.96565 0.0
H860 H 0.49907 0.82314 0.99716 0.0
C861 C 0.49415 0.70292 0.01269 0.0
C862 C 0.49293 0.72895 0.05407 0.0
H863 H 0.49208 0.69985 0.93431 0.0
H864 H 0.48911 0.6696 0.01643 0.0
C865 C 0.49853 0.77211 0.04802 0.0
C866 C 0.72246 0.49753 0.55211 0.0
C867 C 0.76608 0.49727 0.55784 0.0
H868 H 0.67139 0.49081 0.50188 0.0
C869 C 0.79151 0.50053 0.51606 0.0
H870 H 0.70228 0.49387 0.58368 0.0
C871 C 0.77382 0.49906 0.4692 0.0
C872 C 0.73054 0.49387 0.46362 0.0
H873 H 0.82524 0.49941 0.51953 0.0
H874 H 0.79434 0.49687 0.43773 0.0
C875 C 0.70481 0.49553 0.50526 0.0
C876 C 0.00264 0.7936 0.01588 0.0
C877 C 0.00413 0.76807 0.0577 0.0
H878 H 0.00525 0.79593 0.93748 0.0
C879 C -0.00014 0.72469 0.0522 0.0
H880 H 0.00675 0.82708 0.0192 0.0
C881 C -0.0005 0.70684 1.00538 0.0
C882 C 0.00276 0.73219 0.96354 0.0
H883 H 0.00201 0.70433 0.0838 0.0
H884 H 0.00129 0.67314 1.00205 0.0
C885 C 0.00163 0.77578 0.96907 0.0
C886 C 0.70692 0.99678 0.51167 0.0
C887 C 0.73224 0.00017 0.55353 0.0
H888 H 0.70429 -2e-05 0.43327 0.0
C889 C 0.77586 -2e-05 0.54792 0.0
H890 H 0.67317 0.99787 0.51505 0.0
C891 C 0.79362 0.00182 0.50112 0.0
C892 C 0.76803 0.0032 0.45934 0.0
H893 H 0.79597 0.00374 0.57953 0.0
H894 H 0.82704 0.00656 0.49783 0.0
C895 C 0.72473 0.99798 0.46482 0.0
loop_
_geom_bond_atom_site_label_1
_geom_bond_atom_site_label_2
_geom_bond_distance
_geom_bond_site_symmetry_2
_ccdc_geom_bond_type
Mn0 O5 2.095 . S
Mn0 O15 2.162 . S
Mn0 O16 2.297 . S
Mn0 O24 2.385 . S
Mn0 O25 2.209 . S
Mn0 O26 2.094 . S
Mn1 O6 2.121 . S
Mn1 N8 2.257 . S
Mn1 N17 2.282 . S
Mn1 O25 2.215 . S
Mn1 O27 2.117 . S
C2 O24 1.234 . S
C2 O25 1.283 . S
C3 O15 1.281 . S
C3 O16 1.236 . S
C4 O26 1.240 . S
C4 O27 1.264 . S
O5 Mn0 2.095 . S
O5 C14 1.250 . S
O6 Mn1 2.121 . S
O6 C14 1.258 . S
C7 N8 1.326 . S
C7 C11 1.460 . S
C7 H13 0.929 . S
N8 Mn1 2.257 . S
N8 C7 1.326 . S
N8 C12 1.362 . S
C9 C10 1.258 . S
C9 C12 1.431 . S
C9 C29 1.449 . S
C10 C9 1.258 . S
C10 C11 1.477 . S
C10 H30 0.931 . S
C11 C7 1.460 . S
C11 C10 1.477 . S
C11 H31 0.930 . S
C12 N8 1.362 . S
C12 C9 1.431 . S
C12 C22 1.476 . S
H13 C7 0.929 . S
C14 O5 1.250 . S
C14 O6 1.258 . S
O15 Mn0 2.162 . S
O15 C3 1.281 . S
O16 Mn0 2.297 . S
O16 C3 1.236 . S
N17 Mn1 2.282 . S
N17 C18 1.328 . S
N17 C22 1.318 . S
C18 N17 1.328 . S
C18 C19 1.457 . S
C18 H23 0.929 . S
C19 C18 1.457 . S
C19 C20 1.291 . S
C19 H32 0.931 . S
C20 C19 1.291 . S
C20 C21 1.373 . S
C20 H33 0.929 . S
C21 C20 1.373 . S
C21 C22 1.396 . S
C21 C28 1.403 . S
C22 C12 1.476 . S
C22 N17 1.318 . S
C22 C21 1.396 . S
H23 C18 0.929 . S
O24 Mn0 2.385 . S
O24 C2 1.234 . S
O25 Mn0 2.209 . S
O25 Mn1 2.215 . S
O25 C2 1.283 . S
O26 Mn0 2.094 . S
O26 C4 1.240 . S
O27 Mn1 2.117 . S
O27 C4 1.264 . S
C28 C21 1.403 . S
C28 C29 1.399 . S
C28 H34 0.929 . S
C29 C9 1.449 . S
C29 C28 1.399 . S
C29 H35 0.930 . S
H30 C10 0.931 . S
H31 C11 0.930 . S
H32 C19 0.931 . S
H33 C20 0.929 . S
H34 C28 0.929 . S
H35 C29 0.930 . S
Mn36 O41 2.095 . S
Mn36 O51 2.162 . S
Mn36 O52 2.297 . S
Mn36 O60 2.385 . S
Mn36 O61 2.209 . S
Mn36 O62 2.094 . S
Mn37 O42 2.121 . S
Mn37 N44 2.257 . S
Mn37 N53 2.282 . S
Mn37 O61 2.215 . S
Mn37 O63 2.117 . S
C38 O60 1.234 . S
C38 O61 1.283 . S
C39 O51 1.281 . S
C39 O52 1.236 . S
C40 O62 1.240 . S
C40 O63 1.264 . S
O41 Mn36 2.095 . S
O41 C50 1.250 . S
O42 Mn37 2.121 . S
O42 C50 1.258 . S
C43 N44 1.326 . S
C43 C47 1.460 . S
C43 H49 0.929 . S
N44 Mn37 2.257 . S
N44 C43 1.326 . S
N44 C48 1.362 . S
C45 C46 1.258 . S
C45 C48 1.431 . S
C45 C65 1.449 . S
C46 C45 1.258 . S
C46 C47 1.477 . S
C46 H66 0.931 . S
C47 C43 1.460 . S
C47 C46 1.477 . S
C47 H67 0.930 . S
C48 N44 1.362 . S
C48 C45 1.431 . S
C48 C58 1.476 . S
H49 C43 0.929 . S
C50 O41 1.250 . S
C50 O42 1.258 . S
O51 Mn36 2.162 . S
O51 C39 1.281 . S
O52 Mn36 2.297 . S
O52 C39 1.236 . S
N53 Mn37 2.282 . S
N53 C54 1.328 . S
N53 C58 1.318 . S
C54 N53 1.328 . S
C54 C55 1.457 . S
C54 H59 0.929 . S
C55 C54 1.457 . S
C55 C56 1.291 . S
C55 H68 0.931 . S
C56 C55 1.291 . S
C56 C57 1.373 . S
C56 H69 0.929 . S
C57 C56 1.373 . S
C57 C58 1.396 . S
C57 C64 1.403 . S
C58 C48 1.476 . S
C58 N53 1.318 . S
C58 C57 1.396 . S
H59 C54 0.929 . S
O60 Mn36 2.385 . S
O60 C38 1.234 . S
O61 Mn36 2.209 . S
O61 Mn37 2.215 . S
O61 C38 1.283 . S
O62 Mn36 2.094 . S
O62 C40 1.240 . S
O63 Mn37 2.117 . S
O63 C40 1.264 . S
C64 C57 1.403 . S
C64 C65 1.399 . S
C64 H70 0.929 . S
C65 C45 1.449 . S
C65 C64 1.399 . S
C65 H71 0.930 . S
H66 C46 0.931 . S
H67 C47 0.930 . S
H68 C55 0.931 . S
H69 C56 0.929 . S
H70 C64 0.929 . S
H71 C65 0.930 . S
Mn72 O77 2.096 . S
Mn72 O87 2.162 1_655 S
Mn72 O88 2.297 1_655 S
Mn72 O96 2.385 . S
Mn72 O97 2.209 . S
Mn72 O98 2.094 . S
Mn73 O78 2.121 . S
Mn73 N80 2.257 . S
Mn73 N89 2.282 . S
Mn73 O97 2.215 . S
Mn73 O99 2.117 . S
C74 O96 1.234 . S
C74 O97 1.283 . S
C75 O87 1.281 . S
C75 O88 1.236 . S
C76 O98 1.240 . S
C76 O99 1.264 . S
O77 Mn72 2.096 . S
O77 C86 1.252 . S
O78 Mn73 2.121 . S
O78 C86 1.258 . S
C79 N80 1.326 . S
C79 C83 1.460 . S
C79 H85 0.929 . S
N80 Mn73 2.257 . S
N80 C79 1.326 . S
N80 C84 1.362 . S
C81 C82 1.258 . S
C81 C84 1.431 . S
C81 C101 1.449 . S
C82 C81 1.258 . S
C82 C83 1.477 . S
C82 H102 0.931 . S
C83 C79 1.460 . S
C83 C82 1.477 . S
C83 H103 0.930 . S
C84 N80 1.362 . S
C84 C81 1.431 . S
C84 C94 1.476 . S
H85 C79 0.929 . S
C86 O77 1.252 . S
C86 O78 1.258 . S
O87 Mn72 2.162 1_455 S
O87 C75 1.281 . S
O88 Mn72 2.297 1_455 S
O88 C75 1.236 . S
N89 Mn73 2.282 . S
N89 C90 1.328 . S
N89 C94 1.318 . S
C90 N89 1.328 . S
C90 C91 1.457 . S
C90 H95 0.929 . S
C91 C90 1.457 . S
C91 C92 1.291 . S
C91 H104 0.931 . S
C92 C91 1.291 . S
C92 C93 1.373 . S
C92 H105 0.929 . S
C93 C92 1.373 . S
C93 C94 1.396 . S
C93 C100 1.403 . S
C94 C84 1.476 . S
C94 N89 1.318 . S
C94 C93 1.396 . S
H95 C90 0.929 . S
O96 Mn72 2.385 . S
O96 C74 1.234 . S
O97 Mn72 2.209 . S
O97 Mn73 2.215 . S
O97 C74 1.283 . S
O98 Mn72 2.094 . S
O98 C76 1.240 . S
O99 Mn73 2.117 . S
O99 C76 1.264 . S
C100 C93 1.403 . S
C100 C101 1.399 . S
C100 H106 0.929 . S
C101 C81 1.449 . S
C101 C100 1.399 . S
C101 H107 0.930 . S
H102 C82 0.931 . S
H103 C83 0.930 . S
H104 C91 0.931 . S
H105 C92 0.929 . S
H106 C100 0.929 . S
H107 C101 0.930 . S
Mn108 O113 2.096 . S
Mn108 O123 2.162 1_565 S
Mn108 O124 2.297 1_565 S
Mn108 O132 2.385 . S
Mn108 O133 2.209 . S
Mn108 O134 2.094 . S
Mn109 O114 2.121 . S
Mn109 N116 2.257 . S
Mn109 N125 2.282 . S
Mn109 O133 2.215 . S
Mn109 O135 2.117 . S
C110 O132 1.234 . S
C110 O133 1.283 . S
C111 O123 1.281 . S
C111 O124 1.236 . S
C112 O134 1.240 . S
C112 O135 1.264 . S
O113 Mn108 2.096 . S
O113 C122 1.252 . S
O114 Mn109 2.121 . S
O114 C122 1.258 . S
C115 N116 1.326 . S
C115 C119 1.460 . S
C115 H121 0.929 . S
N116 Mn109 2.257 . S
N116 C115 1.326 . S
N116 C120 1.362 . S
C117 C118 1.258 . S
C117 C120 1.431 . S
C117 C137 1.449 . S
C118 C117 1.258 . S
C118 C119 1.477 . S
C118 H138 0.931 . S
C119 C115 1.460 . S
C119 C118 1.477 . S
C119 H139 0.930 . S
C120 N116 1.362 . S
C120 C117 1.431 . S
C120 C130 1.476 . S
H121 C115 0.929 . S
C122 O113 1.252 . S
C122 O114 1.258 . S
O123 Mn108 2.162 1_545 S
O123 C111 1.281 . S
O124 Mn108 2.297 1_545 S
O124 C111 1.236 . S
N125 Mn109 2.282 . S
N125 C126 1.328 . S
N125 C130 1.318 . S
C126 N125 1.328 . S
C126 C127 1.457 . S
C126 H131 0.929 . S
C127 C126 1.457 . S
C127 C128 1.291 . S
C127 H140 0.931 . S
C128 C127 1.291 . S
C128 C129 1.373 . S
C128 H141 0.929 . S
C129 C128 1.373 . S
C129 C130 1.396 . S
C129 C136 1.403 . S
C130 C120 1.476 . S
C130 N125 1.318 . S
C130 C129 1.396 . S
H131 C126 0.929 . S
O132 Mn108 2.385 . S
O132 C110 1.234 . S
O133 Mn108 2.209 . S
O133 Mn109 2.215 . S
O133 C110 1.283 . S
O134 Mn108 2.094 . S
O134 C112 1.240 . S
O135 Mn109 2.117 . S
O135 C112 1.264 . S
C136 C129 1.403 . S
C136 C137 1.399 . S
C136 H142 0.929 . S
C137 C117 1.449 . S
C137 C136 1.399 . S
C137 H143 0.930 . S
H138 C118 0.931 . S
H139 C119 0.930 . S
H140 C127 0.931 . S
H141 C128 0.929 . S
H142 C136 0.929 . S
H143 C137 0.930 . S
Mn144 O149 2.095 . S
Mn144 O159 2.162 . S
Mn144 O160 2.297 . S
Mn144 O168 2.385 . S
Mn144 O169 2.209 . S
Mn144 O170 2.094 . S
Mn145 O150 2.121 . S
Mn145 N152 2.257 . S
Mn145 N161 2.282 . S
Mn145 O169 2.215 . S
Mn145 O171 2.117 . S
C146 O168 1.234 . S
C146 O169 1.283 . S
C147 O159 1.281 . S
C147 O160 1.236 . S
C148 O170 1.240 . S
C148 O171 1.264 . S
O149 Mn144 2.095 . S
O149 C158 1.250 . S
O150 Mn145 2.121 . S
O150 C158 1.258 . S
C151 N152 1.326 . S
C151 C155 1.460 . S
C151 H157 0.929 . S
N152 Mn145 2.257 . S
N152 C151 1.326 . S
N152 C156 1.362 . S
C153 C154 1.258 . S
C153 C156 1.431 . S
C153 C173 1.449 . S
C154 C153 1.258 . S
C154 C155 1.477 . S
C154 H174 0.931 . S
C155 C151 1.460 . S
C155 C154 1.477 . S
C155 H175 0.930 . S
C156 N152 1.362 . S
C156 C153 1.431 . S
C156 C166 1.476 . S
H157 C151 0.929 . S
C158 O149 1.250 . S
C158 O150 1.258 . S
O159 Mn144 2.162 . S
O159 C147 1.281 . S
O160 Mn144 2.297 . S
O160 C147 1.236 . S
N161 Mn145 2.282 . S
N161 C162 1.328 . S
N161 C166 1.318 . S
C162 N161 1.328 . S
C162 C163 1.457 . S
C162 H167 0.929 . S
C163 C162 1.457 . S
C163 C164 1.291 . S
C163 H176 0.931 . S
C164 C163 1.291 . S
C164 C165 1.373 . S
C164 H177 0.929 . S
C165 C164 1.373 . S
C165 C166 1.396 . S
C165 C172 1.403 . S
C166 C156 1.476 . S
C166 N161 1.318 . S
C166 C165 1.396 . S
H167 C162 0.929 . S
O168 Mn144 2.385 . S
O168 C146 1.234 . S
O169 Mn144 2.209 . S
O169 Mn145 2.215 . S
O169 C146 1.283 . S
O170 Mn144 2.094 . S
O170 C148 1.240 . S
O171 Mn145 2.117 . S
O171 C148 1.264 . S
C172 C165 1.403 . S
C172 C173 1.399 . S
C172 H178 0.929 . S
C173 C153 1.449 . S
C173 C172 1.399 . S
C173 H179 0.930 . S
H174 C154 0.931 . S
H175 C155 0.930 . S
H176 C163 0.931 . S
H177 C164 0.929 . S
H178 C172 0.929 . S
H179 C173 0.930 . S
Mn180 O185 2.095 . S
Mn180 O195 2.162 . S
Mn180 O196 2.297 . S
Mn180 O204 2.385 . S
Mn180 O205 2.209 . S
Mn180 O206 2.094 . S
Mn181 O186 2.121 . S
Mn181 N188 2.257 . S
Mn181 N197 2.282 . S
Mn181 O205 2.215 . S
Mn181 O207 2.117 . S
C182 O204 1.234 . S
C182 O205 1.283 . S
C183 O195 1.281 . S
C183 O196 1.236 . S
C184 O206 1.240 . S
C184 O207 1.264 . S
O185 Mn180 2.095 . S
O185 C194 1.250 . S
O186 Mn181 2.121 . S
O186 C194 1.258 . S
C187 N188 1.326 . S
C187 C191 1.460 . S
C187 H193 0.929 . S
N188 Mn181 2.257 . S
N188 C187 1.326 . S
N188 C192 1.362 . S
C189 C190 1.258 . S
C189 C192 1.431 . S
C189 C209 1.449 . S
C190 C189 1.258 . S
C190 C191 1.477 . S
C190 H210 0.931 . S
C191 C187 1.460 . S
C191 C190 1.477 . S
C191 H211 0.930 . S
C192 N188 1.362 . S
C192 C189 1.431 . S
C192 C202 1.476 . S
H193 C187 0.929 . S
C194 O185 1.250 . S
C194 O186 1.258 . S
O195 Mn180 2.162 . S
O195 C183 1.281 . S
O196 Mn180 2.297 . S
O196 C183 1.236 . S
N197 Mn181 2.282 . S
N197 C198 1.328 . S
N197 C202 1.318 . S
C198 N197 1.328 . S
C198 C199 1.457 . S
C198 H203 0.929 . S
C199 C198 1.457 . S
C199 C200 1.291 . S
C199 H212 0.931 . S
C200 C199 1.291 . S
C200 C201 1.373 . S
C200 H213 0.929 . S
C201 C200 1.373 . S
C201 C202 1.396 . S
C201 C208 1.403 . S
C202 C192 1.476 . S
C202 N197 1.318 . S
C202 C201 1.396 . S
H203 C198 0.929 . S
O204 Mn180 2.385 . S
O204 C182 1.234 . S
O205 Mn180 2.209 . S
O205 Mn181 2.215 . S
O205 C182 1.283 . S
O206 Mn180 2.094 . S
O206 C184 1.240 . S
O207 Mn181 2.117 . S
O207 C184 1.264 . S
C208 C201 1.403 . S
C208 C209 1.399 . S
C208 H214 0.929 . S
C209 C189 1.449 . S
C209 C208 1.399 . S
C209 H215 0.930 . S
H210 C190 0.931 . S
H211 C191 0.930 . S
H212 C199 0.931 . S
H213 C200 0.929 . S
H214 C208 0.929 . S
H215 C209 0.930 . S
Mn216 O221 2.096 . S
Mn216 O231 2.162 1_655 S
Mn216 O232 2.297 1_655 S
Mn216 O240 2.385 . S
Mn216 O241 2.209 . S
Mn216 O242 2.094 . S
Mn217 O222 2.121 . S
Mn217 N224 2.257 . S
Mn217 N233 2.282 . S
Mn217 O241 2.215 . S
Mn217 O243 2.117 . S
C218 O240 1.234 . S
C218 O241 1.283 . S
C219 O231 1.281 . S
C219 O232 1.236 . S
C220 O242 1.240 . S
C220 O243 1.264 . S
O221 Mn216 2.096 . S
O221 C230 1.252 . S
O222 Mn217 2.121 . S
O222 C230 1.258 . S
C223 N224 1.326 . S
C223 C227 1.460 . S
C223 H229 0.929 . S
N224 Mn217 2.257 . S
N224 C223 1.326 . S
N224 C228 1.362 . S
C225 C226 1.258 . S
C225 C228 1.431 . S
C225 C245 1.449 . S
C226 C225 1.258 . S
C226 C227 1.477 . S
C226 H246 0.931 . S
C227 C223 1.460 . S
C227 C226 1.477 . S
C227 H247 0.930 . S
C228 N224 1.362 . S
C228 C225 1.431 . S
C228 C238 1.476 . S
H229 C223 0.929 . S
C230 O221 1.252 . S
C230 O222 1.258 . S
O231 Mn216 2.162 1_455 S
O231 C219 1.281 . S
O232 Mn216 2.297 1_455 S
O232 C219 1.236 . S
N233 Mn217 2.282 . S
N233 C234 1.328 . S
N233 C238 1.318 . S
C234 N233 1.328 . S
C234 C235 1.457 . S
C234 H239 0.929 . S
C235 C234 1.457 . S
C235 C236 1.291 . S
C235 H248 0.931 . S
C236 C235 1.291 . S
C236 C237 1.373 . S
C236 H249 0.929 . S
C237 C236 1.373 . S
C237 C238 1.396 . S
C237 C244 1.403 . S
C238 C228 1.476 . S
C238 N233 1.318 . S
C238 C237 1.396 . S
H239 C234 0.929 . S
O240 Mn216 2.385 . S
O240 C218 1.234 . S
O241 Mn216 2.209 . S
O241 Mn217 2.215 . S
O241 C218 1.283 . S
O242 Mn216 2.094 . S
O242 C220 1.240 . S
O243 Mn217 2.117 . S
O243 C220 1.264 . S
C244 C237 1.403 . S
C244 C245 1.399 . S
C244 H250 0.929 . S
C245 C225 1.449 . S
C245 C244 1.399 . S
C245 H251 0.930 . S
H246 C226 0.931 . S
H247 C227 0.930 . S
H248 C235 0.931 . S
H249 C236 0.929 . S
H250 C244 0.929 . S
H251 C245 0.930 . S
Mn252 O257 2.096 . S
Mn252 O267 2.162 1_565 S
Mn252 O268 2.297 1_565 S
Mn252 O276 2.385 . S
Mn252 O277 2.209 . S
Mn252 O278 2.094 . S
Mn253 O258 2.121 . S
Mn253 N260 2.257 . S
Mn253 N269 2.282 . S
Mn253 O277 2.215 . S
Mn253 O279 2.117 . S
C254 O276 1.234 . S
C254 O277 1.283 . S
C255 O267 1.281 . S
C255 O268 1.236 . S
C256 O278 1.240 . S
C256 O279 1.264 . S
O257 Mn252 2.096 . S
O257 C266 1.252 . S
O258 Mn253 2.121 . S
O258 C266 1.258 . S
C259 N260 1.326 . S
C259 C263 1.460 . S
C259 H265 0.929 . S
N260 Mn253 2.257 . S
N260 C259 1.326 . S
N260 C264 1.362 . S
C261 C262 1.258 . S
C261 C264 1.431 . S
C261 C281 1.449 . S
C262 C261 1.258 . S
C262 C263 1.477 . S
C262 H282 0.931 . S
C263 C259 1.460 . S
C263 C262 1.477 . S
C263 H283 0.930 . S
C264 N260 1.362 . S
C264 C261 1.431 . S
C264 C274 1.476 . S
H265 C259 0.929 . S
C266 O257 1.252 . S
C266 O258 1.258 . S
O267 Mn252 2.162 1_545 S
O267 C255 1.281 . S
O268 Mn252 2.297 1_545 S
O268 C255 1.236 . S
N269 Mn253 2.282 . S
N269 C270 1.328 . S
N269 C274 1.318 . S
C270 N269 1.328 . S
C270 C271 1.457 . S
C270 H275 0.929 . S
C271 C270 1.457 . S
C271 C272 1.291 . S
C271 H284 0.931 . S
C272 C271 1.291 . S
C272 C273 1.373 . S
C272 H285 0.929 . S
C273 C272 1.373 . S
C273 C274 1.396 . S
C273 C280 1.403 . S
C274 C264 1.476 . S
C274 N269 1.318 . S
C274 C273 1.396 . S
H275 C270 0.929 . S
O276 Mn252 2.385 . S
O276 C254 1.234 . S
O277 Mn252 2.209 . S
O277 Mn253 2.215 . S
O277 C254 1.283 . S
O278 Mn252 2.094 . S
O278 C256 1.240 . S
O279 Mn253 2.117 . S
O279 C256 1.264 . S
C280 C273 1.403 . S
C280 C281 1.399 . S
C280 H286 0.929 . S
C281 C261 1.449 . S
C281 C280 1.399 . S
C281 H287 0.930 . S
H282 C262 0.931 . S
H283 C263 0.930 . S
H284 C271 0.931 . S
H285 C272 0.929 . S
H286 C280 0.929 . S
H287 C281 0.930 . S
Mn288 O293 2.095 . S
Mn288 O303 2.162 . S
Mn288 O304 2.297 . S
Mn288 O312 2.385 . S
Mn288 O313 2.209 . S
Mn288 O314 2.094 . S
Mn289 O294 2.121 . S
Mn289 N296 2.257 . S
Mn289 N305 2.282 . S
Mn289 O313 2.215 . S
Mn289 O315 2.117 . S
C290 O312 1.234 . S
C290 O313 1.283 . S
C291 O303 1.281 . S
C291 O304 1.236 . S
C292 O314 1.240 . S
C292 O315 1.264 . S
O293 Mn288 2.095 . S
O293 C302 1.250 . S
O294 Mn289 2.121 . S
O294 C302 1.258 . S
C295 N296 1.326 . S
C295 C299 1.460 . S
C295 H301 0.929 . S
N296 Mn289 2.257 . S
N296 C295 1.326 . S
N296 C300 1.362 . S
C297 C298 1.258 . S
C297 C300 1.431 . S
C297 C317 1.449 . S
C298 C297 1.258 . S
C298 C299 1.477 . S
C298 H318 0.931 . S
C299 C295 1.460 . S
C299 C298 1.477 . S
C299 H319 0.930 . S
C300 N296 1.362 . S
C300 C297 1.431 . S
C300 C310 1.476 . S
H301 C295 0.929 . S
C302 O293 1.250 . S
C302 O294 1.258 . S
O303 Mn288 2.162 . S
O303 C291 1.281 . S
O304 Mn288 2.297 . S
O304 C291 1.236 . S
N305 Mn289 2.282 . S
N305 C306 1.328 . S
N305 C310 1.318 . S
C306 N305 1.328 . S
C306 C307 1.457 . S
C306 H311 0.929 . S
C307 C306 1.457 . S
C307 C308 1.291 . S
C307 H320 0.931 . S
C308 C307 1.291 . S
C308 C309 1.373 . S
C308 H321 0.929 . S
C309 C308 1.373 . S
C309 C310 1.396 . S
C309 C316 1.403 . S
C310 C300 1.476 . S
C310 N305 1.318 . S
C310 C309 1.396 . S
H311 C306 0.929 . S
O312 Mn288 2.385 . S
O312 C290 1.234 . S
O313 Mn288 2.209 . S
O313 Mn289 2.215 . S
O313 C290 1.283 . S
O314 Mn288 2.094 . S
O314 C292 1.240 . S
O315 Mn289 2.117 . S
O315 C292 1.264 . S
C316 C309 1.403 . S
C316 C317 1.399 . S
C316 H322 0.929 . S
C317 C297 1.449 . S
C317 C316 1.399 . S
C317 H323 0.930 . S
H318 C298 0.931 . S
H319 C299 0.930 . S
H320 C307 0.931 . S
H321 C308 0.929 . S
H322 C316 0.929 . S
H323 C317 0.930 . S
Mn324 O329 2.095 . S
Mn324 O339 2.162 . S
Mn324 O340 2.297 . S
Mn324 O348 2.385 . S
Mn324 O349 2.209 . S
Mn324 O350 2.094 . S
Mn325 O330 2.121 . S
Mn325 N332 2.257 . S
Mn325 N341 2.282 . S
Mn325 O349 2.215 . S
Mn325 O351 2.117 . S
C326 O348 1.234 . S
C326 O349 1.283 . S
C327 O339 1.281 . S
C327 O340 1.236 . S
C328 O350 1.240 . S
C328 O351 1.264 . S
O329 Mn324 2.095 . S
O329 C338 1.250 . S
O330 Mn325 2.121 . S
O330 C338 1.258 . S
C331 N332 1.326 . S
C331 C335 1.460 . S
C331 H337 0.929 . S
N332 Mn325 2.257 . S
N332 C331 1.326 . S
N332 C336 1.362 . S
C333 C334 1.258 . S
C333 C336 1.431 . S
C333 C353 1.449 . S
C334 C333 1.258 . S
C334 C335 1.477 . S
C334 H354 0.931 . S
C335 C331 1.460 . S
C335 C334 1.477 . S
C335 H355 0.930 . S
C336 N332 1.362 . S
C336 C333 1.431 . S
C336 C346 1.476 . S
H337 C331 0.929 . S
C338 O329 1.250 . S
C338 O330 1.258 . S
O339 Mn324 2.162 . S
O339 C327 1.281 . S
O340 Mn324 2.297 . S
O340 C327 1.236 . S
N341 Mn325 2.282 . S
N341 C342 1.328 . S
N341 C346 1.318 . S
C342 N341 1.328 . S
C342 C343 1.457 . S
C342 H347 0.929 . S
C343 C342 1.457 . S
C343 C344 1.291 . S
C343 H356 0.931 . S
C344 C343 1.291 . S
C344 C345 1.373 . S
C344 H357 0.929 . S
C345 C344 1.373 . S
C345 C346 1.396 . S
C345 C352 1.403 . S
C346 C336 1.476 . S
C346 N341 1.318 . S
C346 C345 1.396 . S
H347 C342 0.929 . S
O348 Mn324 2.385 . S
O348 C326 1.234 . S
O349 Mn324 2.209 . S
O349 Mn325 2.215 . S
O349 C326 1.283 . S
O350 Mn324 2.094 . S
O350 C328 1.240 . S
O351 Mn325 2.117 . S
O351 C328 1.264 . S
C352 C345 1.403 . S
C352 C353 1.399 . S
C352 H358 0.929 . S
C353 C333 1.449 . S
C353 C352 1.399 . S
C353 H359 0.930 . S
H354 C334 0.931 . S
H355 C335 0.930 . S
H356 C343 0.931 . S
H357 C344 0.929 . S
H358 C352 0.929 . S
H359 C353 0.930 . S
Mn360 O365 2.096 . S
Mn360 O375 2.162 1_455 S
Mn360 O376 2.297 1_455 S
Mn360 O384 2.385 . S
Mn360 O385 2.209 . S
Mn360 O386 2.094 . S
Mn361 O366 2.121 . S
Mn361 N368 2.257 . S
Mn361 N377 2.282 . S
Mn361 O385 2.215 . S
Mn361 O387 2.117 . S
C362 O384 1.234 . S
C362 O385 1.283 . S
C363 O375 1.281 . S
C363 O376 1.236 . S
C364 O386 1.240 . S
C364 O387 1.264 . S
O365 Mn360 2.096 . S
O365 C374 1.252 . S
O366 Mn361 2.121 . S
O366 C374 1.258 . S
C367 N368 1.326 . S
C367 C371 1.460 . S
C367 H373 0.929 . S
N368 Mn361 2.257 . S
N368 C367 1.326 . S
N368 C372 1.362 . S
C369 C370 1.258 . S
C369 C372 1.431 . S
C369 C389 1.449 . S
C370 C369 1.258 . S
C370 C371 1.477 . S
C370 H390 0.931 . S
C371 C367 1.460 . S
C371 C370 1.477 . S
C371 H391 0.930 . S
C372 N368 1.362 . S
C372 C369 1.431 . S
C372 C382 1.476 . S
H373 C367 0.929 . S
C374 O365 1.252 . S
C374 O366 1.258 . S
O375 Mn360 2.162 1_655 S
O375 C363 1.281 . S
O376 Mn360 2.297 1_655 S
O376 C363 1.236 . S
N377 Mn361 2.282 . S
N377 C378 1.328 . S
N377 C382 1.318 . S
C378 N377 1.328 . S
C378 C379 1.457 . S
C378 H383 0.929 . S
C379 C378 1.457 . S
C379 C380 1.291 . S
C379 H392 0.931 . S
C380 C379 1.291 . S
C380 C381 1.373 . S
C380 H393 0.929 . S
C381 C380 1.373 . S
C381 C382 1.396 . S
C381 C388 1.403 . S
C382 C372 1.476 . S
C382 N377 1.318 . S
C382 C381 1.396 . S
H383 C378 0.929 . S
O384 Mn360 2.385 . S
O384 C362 1.234 . S
O385 Mn360 2.209 . S
O385 Mn361 2.215 . S
O385 C362 1.283 . S
O386 Mn360 2.094 . S
O386 C364 1.240 . S
O387 Mn361 2.117 . S
O387 C364 1.264 . S
C388 C381 1.403 . S
C388 C389 1.399 . S
C388 H394 0.929 . S
C389 C369 1.449 . S
C389 C388 1.399 . S
C389 H395 0.930 . S
H390 C370 0.931 . S
H391 C371 0.930 . S
H392 C379 0.931 . S
H393 C380 0.929 . S
H394 C388 0.929 . S
H395 C389 0.930 . S
Mn396 O401 2.096 . S
Mn396 O411 2.162 1_545 S
Mn396 O412 2.297 1_545 S
Mn396 O420 2.385 . S
Mn396 O421 2.209 . S
Mn396 O422 2.094 . S
Mn397 O402 2.121 . S
Mn397 N404 2.257 . S
Mn397 N413 2.282 . S
Mn397 O421 2.215 . S
Mn397 O423 2.117 . S
C398 O420 1.234 . S
C398 O421 1.283 . S
C399 O411 1.281 . S
C399 O412 1.236 . S
C400 O422 1.240 . S
C400 O423 1.264 . S
O401 Mn396 2.096 . S
O401 C410 1.252 . S
O402 Mn397 2.121 . S
O402 C410 1.258 . S
C403 N404 1.326 . S
C403 C407 1.460 . S
C403 H409 0.929 . S
N404 Mn397 2.257 . S
N404 C403 1.326 . S
N404 C408 1.362 . S
C405 C406 1.258 . S
C405 C408 1.431 . S
C405 C425 1.449 . S
C406 C405 1.258 . S
C406 C407 1.477 . S
C406 H426 0.931 . S
C407 C403 1.460 . S
C407 C406 1.477 . S
C407 H427 0.930 . S
C408 N404 1.362 . S
C408 C405 1.431 . S
C408 C418 1.476 . S
H409 C403 0.929 . S
C410 O401 1.252 . S
C410 O402 1.258 . S
O411 Mn396 2.162 1_565 S
O411 C399 1.281 . S
O412 Mn396 2.297 1_565 S
O412 C399 1.236 . S
N413 Mn397 2.282 . S
N413 C414 1.328 . S
N413 C418 1.318 . S
C414 N413 1.328 . S
C414 C415 1.457 . S
C414 H419 0.929 . S
C415 C414 1.457 . S
C415 C416 1.291 . S
C415 H428 0.931 . S
C416 C415 1.291 . S
C416 C417 1.373 . S
C416 H429 0.929 . S
C417 C416 1.373 . S
C417 C418 1.396 . S
C417 C424 1.403 . S
C418 C408 1.476 . S
C418 N413 1.318 . S
C418 C417 1.396 . S
H419 C414 0.929 . S
O420 Mn396 2.385 . S
O420 C398 1.234 . S
O421 Mn396 2.209 . S
O421 Mn397 2.215 . S
O421 C398 1.283 . S
O422 Mn396 2.094 . S
O422 C400 1.240 . S
O423 Mn397 2.117 . S
O423 C400 1.264 . S
C424 C417 1.403 . S
C424 C425 1.399 . S
C424 H430 0.929 . S
C425 C405 1.449 . S
C425 C424 1.399 . S
C425 H431 0.930 . S
H426 C406 0.931 . S
H427 C407 0.930 . S
H428 C415 0.931 . S
H429 C416 0.929 . S
H430 C424 0.929 . S
H431 C425 0.930 . S
Mn432 O437 2.095 . S
Mn432 O447 2.162 . S
Mn432 O448 2.297 . S
Mn432 O456 2.385 . S
Mn432 O457 2.209 . S
Mn432 O458 2.094 . S
Mn433 O438 2.121 . S
Mn433 N440 2.257 . S
Mn433 N449 2.282 . S
Mn433 O457 2.215 . S
Mn433 O459 2.117 . S
C434 O456 1.234 . S
C434 O457 1.283 . S
C435 O447 1.281 . S
C435 O448 1.236 . S
C436 O458 1.240 . S
C436 O459 1.264 . S
O437 Mn432 2.095 . S
O437 C446 1.250 . S
O438 Mn433 2.121 . S
O438 C446 1.258 . S
C439 N440 1.326 . S
C439 C443 1.460 . S
C439 H445 0.929 . S
N440 Mn433 2.257 . S
N440 C439 1.326 . S
N440 C444 1.362 . S
C441 C442 1.258 . S
C441 C444 1.431 . S
C441 C461 1.449 . S
C442 C441 1.258 . S
C442 C443 1.477 . S
C442 H462 0.931 . S
C443 C439 1.460 . S
C443 C442 1.477 . S
C443 H463 0.930 . S
C444 N440 1.362 . S
C444 C441 1.431 . S
C444 C454 1.476 . S
H445 C439 0.929 . S
C446 O437 1.250 . S
C446 O438 1.258 . S
O447 Mn432 2.162 . S
O447 C435 1.281 . S
O448 Mn432 2.297 . S
O448 C435 1.236 . S
N449 Mn433 2.282 . S
N449 C450 1.328 . S
N449 C454 1.318 . S
C450 N449 1.328 . S
C450 C451 1.457 . S
C450 H455 0.929 . S
C451 C450 1.457 . S
C451 C452 1.291 . S
C451 H464 0.931 . S
C452 C451 1.291 . S
C452 C453 1.373 . S
C452 H465 0.929 . S
C453 C452 1.373 . S
C453 C454 1.396 . S
C453 C460 1.403 . S
C454 C444 1.476 . S
C454 N449 1.318 . S
C454 C453 1.396 . S
H455 C450 0.929 . S
O456 Mn432 2.385 . S
O456 C434 1.234 . S
O457 Mn432 2.209 . S
O457 Mn433 2.215 . S
O457 C434 1.283 . S
O458 Mn432 2.094 . S
O458 C436 1.240 . S
O459 Mn433 2.117 . S
O459 C436 1.264 . S
C460 C453 1.403 . S
C460 C461 1.399 . S
C460 H466 0.929 . S
C461 C441 1.449 . S
C461 C460 1.399 . S
C461 H467 0.930 . S
H462 C442 0.931 . S
H463 C443 0.930 . S
H464 C451 0.931 . S
H465 C452 0.929 . S
H466 C460 0.929 . S
H467 C461 0.930 . S
Mn468 O473 2.095 . S
Mn468 O483 2.162 . S
Mn468 O484 2.297 . S
Mn468 O492 2.385 . S
Mn468 O493 2.209 . S
Mn468 O494 2.094 . S
Mn469 O474 2.121 . S
Mn469 N476 2.257 . S
Mn469 N485 2.282 . S
Mn469 O493 2.215 . S
Mn469 O495 2.117 . S
C470 O492 1.234 . S
C470 O493 1.283 . S
C471 O483 1.281 . S
C471 O484 1.236 . S
C472 O494 1.240 . S
C472 O495 1.264 . S
O473 Mn468 2.095 . S
O473 C482 1.250 . S
O474 Mn469 2.121 . S
O474 C482 1.258 . S
C475 N476 1.326 . S
C475 C479 1.460 . S
C475 H481 0.929 . S
N476 Mn469 2.257 . S
N476 C475 1.326 . S
N476 C480 1.362 . S
C477 C478 1.258 . S
C477 C480 1.431 . S
C477 C497 1.449 . S
C478 C477 1.258 . S
C478 C479 1.477 . S
C478 H498 0.931 . S
C479 C475 1.460 . S
C479 C478 1.477 . S
C479 H499 0.930 . S
C480 N476 1.362 . S
C480 C477 1.431 . S
C480 C490 1.476 . S
H481 C475 0.929 . S
C482 O473 1.250 . S
C482 O474 1.258 . S
O483 Mn468 2.162 . S
O483 C471 1.281 . S
O484 Mn468 2.297 . S
O484 C471 1.236 . S
N485 Mn469 2.282 . S
N485 C486 1.328 . S
N485 C490 1.318 . S
C486 N485 1.328 . S
C486 C487 1.457 . S
C486 H491 0.929 . S
C487 C486 1.457 . S
C487 C488 1.291 . S
C487 H500 0.931 . S
C488 C487 1.291 . S
C488 C489 1.373 . S
C488 H501 0.929 . S
C489 C488 1.373 . S
C489 C490 1.396 . S
C489 C496 1.403 . S
C490 C480 1.476 . S
C490 N485 1.318 . S
C490 C489 1.396 . S
H491 C486 0.929 . S
O492 Mn468 2.385 . S
O492 C470 1.234 . S
O493 Mn468 2.209 . S
O493 Mn469 2.215 . S
O493 C470 1.283 . S
O494 Mn468 2.094 . S
O494 C472 1.240 . S
O495 Mn469 2.117 . S
O495 C472 1.264 . S
C496 C489 1.403 . S
C496 C497 1.399 . S
C496 H502 0.929 . S
C497 C477 1.449 . S
C497 C496 1.399 . S
C497 H503 0.930 . S
H498 C478 0.931 . S
H499 C479 0.930 . S
H500 C487 0.931 . S
H501 C488 0.929 . S
H502 C496 0.929 . S
H503 C497 0.930 . S
Mn504 O509 2.096 . S
Mn504 O519 2.162 1_455 S
Mn504 O520 2.297 1_455 S
Mn504 O528 2.385 . S
Mn504 O529 2.209 . S
Mn504 O530 2.094 . S
Mn505 O510 2.121 . S
Mn505 N512 2.257 . S
Mn505 N521 2.282 . S
Mn505 O529 2.215 . S
Mn505 O531 2.117 . S
C506 O528 1.234 . S
C506 O529 1.283 . S
C507 O519 1.281 . S
C507 O520 1.236 . S
C508 O530 1.240 . S
C508 O531 1.264 . S
O509 Mn504 2.096 . S
O509 C518 1.252 . S
O510 Mn505 2.121 . S
O510 C518 1.258 . S
C511 N512 1.326 . S
C511 C515 1.460 . S
C511 H517 0.929 . S
N512 Mn505 2.257 . S
N512 C511 1.326 . S
N512 C516 1.362 . S
C513 C514 1.258 . S
C513 C516 1.431 . S
C513 C533 1.449 . S
C514 C513 1.258 . S
C514 C515 1.477 . S
C514 H534 0.931 . S
C515 C511 1.460 . S
C515 C514 1.477 . S
C515 H535 0.930 . S
C516 N512 1.362 . S
C516 C513 1.431 . S
C516 C526 1.476 . S
H517 C511 0.929 . S
C518 O509 1.252 . S
C518 O510 1.258 . S
O519 Mn504 2.162 1_655 S
O519 C507 1.281 . S
O520 Mn504 2.297 1_655 S
O520 C507 1.236 . S
N521 Mn505 2.282 . S
N521 C522 1.328 . S
N521 C526 1.318 . S
C522 N521 1.328 . S
C522 C523 1.457 . S
C522 H527 0.929 . S
C523 C522 1.457 . S
C523 C524 1.291 . S
C523 H536 0.931 . S
C524 C523 1.291 . S
C524 C525 1.373 . S
C524 H537 0.929 . S
C525 C524 1.373 . S
C525 C526 1.396 . S
C525 C532 1.403 . S
C526 C516 1.476 . S
C526 N521 1.318 . S
C526 C525 1.396 . S
H527 C522 0.929 . S
O528 Mn504 2.385 . S
O528 C506 1.234 . S
O529 Mn504 2.209 . S
O529 Mn505 2.215 . S
O529 C506 1.283 . S
O530 Mn504 2.094 . S
O530 C508 1.240 . S
O531 Mn505 2.117 . S
O531 C508 1.264 . S
C532 C525 1.403 . S
C532 C533 1.399 . S
C532 H538 0.929 . S
C533 C513 1.449 . S
C533 C532 1.399 . S
C533 H539 0.930 . S
H534 C514 0.931 . S
H535 C515 0.930 . S
H536 C523 0.931 . S
H537 C524 0.929 . S
H538 C532 0.929 . S
H539 C533 0.930 . S
Mn540 O545 2.096 . S
Mn540 O555 2.162 1_545 S
Mn540 O556 2.297 1_545 S
Mn540 O564 2.385 . S
Mn540 O565 2.209 . S
Mn540 O566 2.094 . S
Mn541 O546 2.121 . S
Mn541 N548 2.257 . S
Mn541 N557 2.282 . S
Mn541 O565 2.215 . S
Mn541 O567 2.117 . S
C542 O564 1.234 . S
C542 O565 1.283 . S
C543 O555 1.281 . S
C543 O556 1.236 . S
C544 O566 1.240 . S
C544 O567 1.264 . S
O545 Mn540 2.096 . S
O545 C554 1.252 . S
O546 Mn541 2.121 . S
O546 C554 1.258 . S
C547 N548 1.326 . S
C547 C551 1.460 . S
C547 H553 0.929 . S
N548 Mn541 2.257 . S
N548 C547 1.326 . S
N548 C552 1.362 . S
C549 C550 1.258 . S
C549 C552 1.431 . S
C549 C569 1.449 . S
C550 C549 1.258 . S
C550 C551 1.477 . S
C550 H570 0.931 . S
C551 C547 1.460 . S
C551 C550 1.477 . S
C551 H571 0.930 . S
C552 N548 1.362 . S
C552 C549 1.431 . S
C552 C562 1.476 . S
H553 C547 0.929 . S
C554 O545 1.252 . S
C554 O546 1.258 . S
O555 Mn540 2.162 1_565 S
O555 C543 1.281 . S
O556 Mn540 2.297 1_565 S
O556 C543 1.236 . S
N557 Mn541 2.282 . S
N557 C558 1.328 . S
N557 C562 1.318 . S
C558 N557 1.328 . S
C558 C559 1.457 . S
C558 H563 0.929 . S
C559 C558 1.457 . S
C559 C560 1.291 . S
C559 H572 0.931 . S
C560 C559 1.291 . S
C560 C561 1.373 . S
C560 H573 0.929 . S
C561 C560 1.373 . S
C561 C562 1.396 . S
C561 C568 1.403 . S
C562 C552 1.476 . S
C562 N557 1.318 . S
C562 C561 1.396 . S
H563 C558 0.929 . S
O564 Mn540 2.385 . S
O564 C542 1.234 . S
O565 Mn540 2.209 . S
O565 Mn541 2.215 . S
O565 C542 1.283 . S
O566 Mn540 2.094 . S
O566 C544 1.240 . S
O567 Mn541 2.117 . S
O567 C544 1.264 . S
C568 C561 1.403 . S
C568 C569 1.399 . S
C568 H574 0.929 . S
C569 C549 1.449 . S
C569 C568 1.399 . S
C569 H575 0.930 . S
H570 C550 0.931 . S
H571 C551 0.930 . S
H572 C559 0.931 . S
H573 C560 0.929 . S
H574 C568 0.929 . S
H575 C569 0.930 . S
C576 C577 1.387 . S
C576 H580 0.950 . S
C576 C585 1.390 . S
C577 C576 1.387 . S
C577 C579 1.387 . S
H578 C585 0.950 . S
C579 C577 1.387 . S
C579 C581 1.390 . S
C579 H583 0.950 . S
H580 C576 0.950 . S
C581 C579 1.390 . S
C581 C582 1.387 . S
C581 H584 0.950 . S
C582 C581 1.387 . S
C582 C585 1.387 . S
H583 C579 0.950 . S
H584 C581 0.950 . S
C585 C576 1.390 . S
C585 H578 0.950 . S
C585 C582 1.387 . S
C586 C587 1.387 . S
C586 H590 0.950 . S
C586 C595 1.390 . S
C587 C586 1.387 . S
C587 C589 1.387 . S
H588 C595 0.950 . S
C589 C587 1.387 . S
C589 C591 1.390 . S
C589 H593 0.950 . S
H590 C586 0.950 . S
C591 C589 1.390 . S
C591 C592 1.387 . S
C591 H594 0.950 . S
C592 C591 1.387 . S
C592 C595 1.387 . S
H593 C589 0.950 . S
H594 C591 0.950 . S
C595 C586 1.390 . S
C595 H588 0.950 . S
C595 C592 1.387 . S
C596 C597 1.387 . S
C596 H600 0.950 . S
C596 C605 1.390 . S
C597 C596 1.387 . S
C597 C599 1.387 . S
H598 C605 0.950 . S
C599 C597 1.387 . S
C599 C601 1.390 . S
C599 H603 0.950 . S
H600 C596 0.950 . S
C601 C599 1.390 . S
C601 C602 1.387 . S
C601 H604 0.950 . S
C602 C601 1.387 . S
C602 C605 1.387 . S
H603 C599 0.950 . S
H604 C601 0.950 . S
C605 C596 1.390 . S
C605 H598 0.950 . S
C605 C602 1.387 . S
C606 C607 1.387 . S
C606 H610 0.950 . S
C606 C615 1.390 . S
C607 C606 1.387 . S
C607 C609 1.387 . S
H608 C615 0.950 . S
C609 C607 1.387 . S
C609 C611 1.390 . S
C609 H613 0.950 . S
H610 C606 0.950 . S
C611 C609 1.390 . S
C611 C612 1.387 . S
C611 H614 0.950 . S
C612 C611 1.387 . S
C612 C615 1.387 . S
H613 C609 0.950 . S
H614 C611 0.950 . S
C615 C606 1.390 . S
C615 H608 0.950 . S
C615 C612 1.387 . S
C616 C617 1.387 . S
C616 H620 0.950 . S
C616 C625 1.390 . S
C617 C616 1.387 . S
C617 C619 1.387 . S
H618 C625 0.950 . S
C619 C617 1.387 . S
C619 C621 1.390 . S
C619 H623 0.950 . S
H620 C616 0.950 . S
C621 C619 1.390 . S
C621 C622 1.387 . S
C621 H624 0.950 . S
C622 C621 1.387 . S
C622 C625 1.387 . S
H623 C619 0.950 . S
H624 C621 0.950 . S
C625 C616 1.390 . S
C625 H618 0.950 . S
C625 C622 1.387 . S
C626 C627 1.387 . S
C626 H630 0.950 . S
C626 C635 1.390 . S
C627 C626 1.387 . S
C627 C629 1.387 . S
H628 C635 0.950 . S
C629 C627 1.387 . S
C629 C631 1.390 . S
C629 H633 0.950 . S
H630 C626 0.950 . S
C631 C629 1.390 . S
C631 C632 1.387 . S
C631 H634 0.950 . S
C632 C631 1.387 . S
C632 C635 1.387 . S
H633 C629 0.950 . S
H634 C631 0.950 . S
C635 C626 1.390 . S
C635 H628 0.950 . S
C635 C632 1.387 . S
C636 C637 1.387 . S
C636 H640 0.950 . S
C636 C645 1.390 . S
C637 C636 1.387 . S
C637 C639 1.387 . S
H638 C645 0.950 . S
C639 C637 1.387 . S
C639 C641 1.390 . S
C639 H643 0.950 . S
H640 C636 0.950 . S
C641 C639 1.390 . S
C641 C642 1.387 . S
C641 H644 0.950 . S
C642 C641 1.387 . S
C642 C645 1.387 . S
H643 C639 0.950 . S
H644 C641 0.950 . S
C645 C636 1.390 . S
C645 H638 0.950 . S
C645 C642 1.387 . S
C646 C647 1.387 . S
C646 H650 0.950 . S
C646 C655 1.390 . S
C647 C646 1.387 . S
C647 C649 1.387 . S
H648 C655 0.950 . S
C649 C647 1.387 . S
C649 C651 1.390 . S
C649 H653 0.950 . S
H650 C646 0.950 . S
C651 C649 1.390 . S
C651 C652 1.387 . S
C651 H654 0.950 . S
C652 C651 1.387 . S
C652 C655 1.387 . S
H653 C649 0.950 . S
H654 C651 0.950 . S
C655 C646 1.390 . S
C655 H648 0.950 . S
C655 C652 1.387 . S
C656 C657 1.387 . S
C656 H660 0.950 . S
C656 C665 1.390 . S
C657 C656 1.387 . S
C657 C659 1.387 . S
H658 C665 0.950 . S
C659 C657 1.387 . S
C659 C661 1.390 . S
C659 H663 0.950 . S
H660 C656 0.950 . S
C661 C659 1.390 . S
C661 C662 1.387 . S
C661 H664 0.950 . S
C662 C661 1.387 . S
C662 C665 1.387 . S
H663 C659 0.950 . S
H664 C661 0.950 . S
C665 C656 1.390 . S
C665 H658 0.950 . S
C665 C662 1.387 . S
C666 C667 1.387 . S
C666 H670 0.950 . S
C666 C675 1.390 . S
C667 C666 1.387 . S
C667 C669 1.387 . S
H668 C675 0.950 . S
C669 C667 1.387 . S
C669 C671 1.390 . S
C669 H673 0.950 . S
H670 C666 0.950 . S
C671 C669 1.390 . S
C671 C672 1.387 . S
C671 H674 0.950 . S
C672 C671 1.387 . S
C672 C675 1.387 . S
H673 C669 0.950 . S
H674 C671 0.950 . S
C675 C666 1.390 . S
C675 H668 0.950 . S
C675 C672 1.387 . S
C676 C677 1.387 . S
C676 H680 0.950 . S
C676 C685 1.390 . S
C677 C676 1.387 . S
C677 C679 1.387 . S
H678 C685 0.950 . S
C679 C677 1.387 . S
C679 C681 1.390 . S
C679 H683 0.950 . S
H680 C676 0.950 . S
C681 C679 1.390 . S
C681 C682 1.387 . S
C681 H684 0.950 . S
C682 C681 1.387 . S
C682 C685 1.387 . S
H683 C679 0.950 . S
H684 C681 0.950 . S
C685 C676 1.390 . S
C685 H678 0.950 . S
C685 C682 1.387 . S
C686 C687 1.387 . S
C686 H690 0.950 . S
C686 C695 1.390 . S
C687 C686 1.387 . S
C687 C689 1.387 . S
H688 C695 0.950 . S
C689 C687 1.387 . S
C689 C691 1.390 . S
C689 H693 0.950 . S
H690 C686 0.950 . S
C691 C689 1.390 . S
C691 C692 1.387 . S
C691 H694 0.950 . S
C692 C691 1.387 . S
C692 C695 1.387 . S
H693 C689 0.950 . S
H694 C691 0.950 . S
C695 C686 1.390 . S
C695 H688 0.950 . S
C695 C692 1.387 . S
C696 C697 1.387 . S
C696 H700 0.950 . S
C696 C705 1.390 . S
C697 C696 1.387 . S
C697 C699 1.387 . S
H698 C705 0.950 . S
C699 C697 1.387 . S
C699 C701 1.390 . S
C699 H703 0.950 . S
H700 C696 0.950 . S
C701 C699 1.390 . S
C701 C702 1.387 . S
C701 H704 0.950 . S
C702 C701 1.387 . S
C702 C705 1.387 . S
H703 C699 0.950 . S
H704 C701 0.950 . S
C705 C696 1.390 . S
C705 H698 0.950 . S
C705 C702 1.387 . S
C706 C707 1.387 . S
C706 H710 0.950 . S
C706 C715 1.390 . S
C707 C706 1.387 . S
C707 C709 1.387 . S
H708 C715 0.950 . S
C709 C707 1.387 . S
C709 C711 1.390 . S
C709 H713 0.950 . S
H710 C706 0.950 . S
C711 C709 1.390 . S
C711 C712 1.387 . S
C711 H714 0.950 . S
C712 C711 1.387 . S
C712 C715 1.387 . S
H713 C709 0.950 . S
H714 C711 0.950 . S
C715 C706 1.390 . S
C715 H708 0.950 . S
C715 C712 1.387 . S
C716 C717 1.387 . S
C716 H720 0.950 . S
C716 C725 1.390 . S
C717 C716 1.387 . S
C717 C719 1.387 . S
H718 C725 0.950 . S
C719 C717 1.387 . S
C719 C721 1.390 . S
C719 H723 0.950 . S
H720 C716 0.950 . S
C721 C719 1.390 . S
C721 C722 1.387 . S
C721 H724 0.950 . S
C722 C721 1.387 . S
C722 C725 1.387 . S
H723 C719 0.950 . S
H724 C721 0.950 . S
C725 C716 1.390 . S
C725 H718 0.950 . S
C725 C722 1.387 . S
C726 C727 1.387 . S
C726 H730 0.950 . S
C726 C735 1.390 . S
C727 C726 1.387 . S
C727 C729 1.387 . S
H728 C735 0.950 . S
C729 C727 1.387 . S
C729 C731 1.390 . S
C729 H733 0.950 . S
H730 C726 0.950 . S
C731 C729 1.390 . S
C731 C732 1.387 . S
C731 H734 0.950 . S
C732 C731 1.387 . S
C732 C735 1.387 . S
H733 C729 0.950 . S
H734 C731 0.950 . S
C735 C726 1.390 . S
C735 H728 0.950 . S
C735 C732 1.387 . S
C736 C737 1.387 . S
C736 H740 0.950 . S
C736 C745 1.390 . S
C737 C736 1.387 . S
C737 C739 1.387 . S
H738 C745 0.950 . S
C739 C737 1.387 . S
C739 C741 1.390 . S
C739 H743 0.950 . S
H740 C736 0.950 . S
C741 C739 1.390 . S
C741 C742 1.387 . S
C741 H744 0.950 . S
C742 C741 1.387 . S
C742 C745 1.387 . S
H743 C739 0.950 . S
H744 C741 0.950 . S
C745 C736 1.390 . S
C745 H738 0.950 . S
C745 C742 1.387 . S
C746 C747 1.387 . S
C746 H750 0.950 . S
C746 C755 1.390 . S
C747 C746 1.387 . S
C747 C749 1.387 . S
H748 C755 0.950 . S
C749 C747 1.387 . S
C749 C751 1.390 . S
C749 H753 0.950 . S
H750 C746 0.950 . S
C751 C749 1.390 . S
C751 C752 1.387 . S
C751 H754 0.950 . S
C752 C751 1.387 . S
C752 C755 1.387 . S
H753 C749 0.950 . S
H754 C751 0.950 . S
C755 C746 1.390 . S
C755 H748 0.950 . S
C755 C752 1.387 . S
C756 C757 1.387 . S
C756 H760 0.950 . S
C756 C765 1.390 . S
C757 C756 1.387 . S
C757 C759 1.387 . S
H758 C765 0.950 . S
C759 C757 1.387 . S
C759 C761 1.390 . S
C759 H763 0.950 . S
H760 C756 0.950 . S
C761 C759 1.390 . S
C761 C762 1.387 . S
C761 H764 0.950 . S
C762 C761 1.387 . S
C762 C765 1.387 . S
H763 C759 0.950 . S
H764 C761 0.950 . S
C765 C756 1.390 . S
C765 H758 0.950 . S
C765 C762 1.387 . S
C766 C767 1.387 . S
C766 H770 0.950 . S
C766 C775 1.390 . S
C767 C766 1.387 . S
C767 C769 1.387 . S
H768 C775 0.950 . S
C769 C767 1.387 . S
C769 C771 1.390 . S
C769 H773 0.950 . S
H770 C766 0.950 . S
C771 C769 1.390 . S
C771 C772 1.387 . S
C771 H774 0.950 . S
C772 C771 1.387 . S
C772 C775 1.387 . S
H773 C769 0.950 . S
H774 C771 0.950 . S
C775 C766 1.390 . S
C775 H768 0.950 . S
C775 C772 1.387 . S
C776 C777 1.387 . S
C776 H780 0.950 . S
C776 C785 1.390 . S
C777 C776 1.387 . S
C777 C779 1.387 . S
H778 C785 0.950 . S
C779 C777 1.387 . S
C779 C781 1.390 . S
C779 H783 0.950 . S
H780 C776 0.950 . S
C781 C779 1.390 . S
C781 C782 1.387 . S
C781 H784 0.950 . S
C782 C781 1.387 . S
C782 C785 1.387 . S
H783 C779 0.950 . S
H784 C781 0.950 . S
C785 C776 1.390 . S
C785 H778 0.950 . S
C785 C782 1.387 . S
C786 C787 1.387 . S
C786 H790 0.950 . S
C786 C795 1.390 . S
C787 C786 1.387 . S
C787 C789 1.387 . S
H788 C795 0.950 . S
C789 C787 1.387 . S
C789 C791 1.390 . S
C789 H793 0.950 . S
H790 C786 0.950 . S
C791 C789 1.390 . S
C791 C792 1.387 . S
C791 H794 0.950 . S
C792 C791 1.387 . S
C792 C795 1.387 . S
H793 C789 0.950 . S
H794 C791 0.950 . S
C795 C786 1.390 . S
C795 H788 0.950 . S
C795 C792 1.387 . S
C796 C797 1.387 . S
C796 H800 0.950 . S
C796 C805 1.390 . S
C797 C796 1.387 . S
C797 C799 1.387 . S
H798 C805 0.950 . S
C799 C797 1.387 . S
C799 C801 1.390 . S
C799 H803 0.950 . S
H800 C796 0.950 . S
C801 C799 1.390 . S
C801 C802 1.387 . S
C801 H804 0.950 . S
C802 C801 1.387 . S
C802 C805 1.387 . S
H803 C799 0.950 . S
H804 C801 0.950 . S
C805 C796 1.390 . S
C805 H798 0.950 . S
C805 C802 1.387 . S
C806 C807 1.387 . S
C806 H810 0.950 . S
C806 C815 1.390 . S
C807 C806 1.387 . S
C807 C809 1.387 . S
H808 C815 0.950 . S
C809 C807 1.387 . S
C809 C811 1.390 . S
C809 H813 0.950 . S
H810 C806 0.950 . S
C811 C809 1.390 . S
C811 C812 1.387 . S
C811 H814 0.950 . S
C812 C811 1.387 . S
C812 C815 1.387 . S
H813 C809 0.950 . S
H814 C811 0.950 . S
C815 C806 1.390 . S
C815 H808 0.950 . S
C815 C812 1.387 . S
C816 C817 1.387 . S
C816 H820 0.950 . S
C816 C825 1.390 1_554 S
C817 C816 1.387 . S
C817 C819 1.387 . S
H818 C825 0.950 . S
C819 C817 1.387 . S
C819 C821 1.390 1_554 S
C819 H823 0.950 . S
H820 C816 0.950 . S
C821 C819 1.390 1_556 S
C821 C822 1.387 . S
C821 H824 0.950 . S
C822 C821 1.387 . S
C822 C825 1.387 . S
H823 C819 0.950 . S
H824 C821 0.950 . S
C825 C816 1.390 1_556 S
C825 H818 0.950 . S
C825 C822 1.387 . S
C826 C827 1.387 . S
C826 H830 0.950 . S
C826 C835 1.390 . S
C827 C826 1.387 . S
C827 C829 1.387 . S
H828 C835 0.950 . S
C829 C827 1.387 . S
C829 C831 1.390 . S
C829 H833 0.950 . S
H830 C826 0.950 . S
C831 C829 1.390 . S
C831 C832 1.387 . S
C831 H834 0.950 . S
C832 C831 1.387 . S
C832 C835 1.387 . S
H833 C829 0.950 . S
H834 C831 0.950 . S
C835 C826 1.390 . S
C835 H828 0.950 . S
C835 C832 1.387 . S
C836 C837 1.387 1_455 S
C836 H840 0.950 . S
C836 C845 1.390 1_554 S
C837 C836 1.387 1_655 S
C837 C839 1.387 . S
H838 C845 0.950 . S
C839 C837 1.387 . S
C839 C841 1.390 1_554 S
C839 H843 0.950 . S
H840 C836 0.950 . S
C841 C839 1.390 1_556 S
C841 C842 1.387 . S
C841 H844 0.950 . S
C842 C841 1.387 . S
C842 C845 1.387 1_655 S
H843 C839 0.950 . S
H844 C841 0.950 . S
C845 C836 1.390 1_556 S
C845 H838 0.950 . S
C845 C842 1.387 1_455 S
C846 C847 1.387 . S
C846 H850 0.950 . S
C846 C855 1.390 . S
C847 C846 1.387 . S
C847 C849 1.387 1_565 S
H848 C855 0.950 . S
C849 C847 1.387 1_545 S
C849 C851 1.390 . S
C849 H853 0.950 . S
H850 C846 0.950 . S
C851 C849 1.390 . S
C851 C852 1.387 1_545 S
C851 H854 0.950 . S
C852 C851 1.387 1_565 S
C852 C855 1.387 . S
H853 C849 0.950 . S
H854 C851 0.950 . S
C855 C846 1.390 . S
C855 H848 0.950 . S
C855 C852 1.387 . S
C856 C857 1.387 . S
C856 H860 0.950 . S
C856 C865 1.390 1_556 S
C857 C856 1.387 . S
C857 C859 1.387 . S
H858 C865 0.950 . S
C859 C857 1.387 . S
C859 C861 1.390 1_556 S
C859 H863 0.950 . S
H860 C856 0.950 . S
C861 C859 1.390 1_554 S
C861 C862 1.387 . S
C861 H864 0.950 . S
C862 C861 1.387 . S
C862 C865 1.387 . S
H863 C859 0.950 . S
H864 C861 0.950 . S
C865 C856 1.390 1_554 S
C865 H858 0.950 . S
C865 C862 1.387 . S
C866 C867 1.387 . S
C866 H870 0.950 . S
C866 C875 1.390 . S
C867 C866 1.387 . S
C867 C869 1.387 . S
H868 C875 0.950 . S
C869 C867 1.387 . S
C869 C871 1.390 . S
C869 H873 0.950 . S
H870 C866 0.950 . S
C871 C869 1.390 . S
C871 C872 1.387 . S
C871 H874 0.950 . S
C872 C871 1.387 . S
C872 C875 1.387 . S
H873 C869 0.950 . S
H874 C871 0.950 . S
C875 C866 1.390 . S
C875 H868 0.950 . S
C875 C872 1.387 . S
C876 C877 1.387 1_655 S
C876 H880 0.950 . S
C876 C885 1.390 1_554 S
C877 C876 1.387 1_455 S
C877 C879 1.387 . S
H878 C885 0.950 . S
C879 C877 1.387 . S
C879 C881 1.390 1_554 S
C879 H883 0.950 . S
H880 C876 0.950 . S
C881 C879 1.390 1_556 S
C881 C882 1.387 . S
C881 H884 0.950 . S
C882 C881 1.387 . S
C882 C885 1.387 1_455 S
H883 C879 0.950 . S
H884 C881 0.950 . S
C885 C876 1.390 1_556 S
C885 H878 0.950 . S
C885 C882 1.387 1_655 S
C886 C887 1.387 1_565 S
C886 H890 0.950 . S
C886 C895 1.390 . S
C887 C886 1.387 1_545 S
C887 C889 1.387 . S
H888 C895 0.950 . S
C889 C887 1.387 . S
C889 C891 1.390 . S
C889 H893 0.950 . S
H890 C886 0.950 . S
C891 C889 1.390 . S
C891 C892 1.387 . S
C891 H894 0.950 . S
C892 C891 1.387 . S
C892 C895 1.387 1_545 S
H893 C889 0.950 . S
H894 C891 0.950 . S
C895 C886 1.390 . S
C895 H888 0.950 . S
C895 C892 1.387 1_565 S
C577 C3 1.367 . S
C582 C255 1.368 . S
C587 C39 1.368 . S
C592 C147 1.367 . S
C597 C75 1.367 . S
C602 C183 1.368 . S
C607 C111 1.367 . S
C612 C219 1.368 . S
C617 C291 1.368 . S
C622 C543 1.367 . S
C627 C435 1.368 . S
C632 C327 1.368 . S
C637 C363 1.368 . S
C642 C471 1.367 . S
C647 C399 1.367 . S
C652 C507 1.368 . S
C657 C4 1.424 . S
C662 C326 1.494 . S
C667 C40 1.427 . S
C672 C362 1.494 . S
C677 C398 1.494 . S
C682 C76 1.424 . S
C687 C112 1.427 . S
C692 C290 1.494 . S
C697 C148 1.424 . S
C702 C542 1.494 . S
C707 C434 1.493 . S
C712 C184 1.425 . S
C717 C470 1.494 . S
C722 C220 1.424 . S
C727 C506 1.494 . S
C732 C256 1.427 . S
C737 C38 1.494 . S
C742 C292 1.425 . S
C747 C74 1.494 . S
C752 C328 1.427 . S
C757 C364 1.427 . S
C762 C110 1.494 . S
C767 C2 1.494 . S
C772 C400 1.427 . S
C777 C436 1.424 . S
C782 C254 1.494 . S
C787 C472 1.424 . S
C792 C146 1.494 . S
C797 C182 1.494 . S
C802 C508 1.427 . S
C807 C218 1.494 . S
C812 C544 1.424 . S
C817 C14 1.491 . S
C822 C158 1.491 . S
C827 C194 1.491 . S
C832 C50 1.491 . S
C837 C86 1.490 . S
C842 C230 1.491 . S
C847 C266 1.490 . S
C852 C122 1.490 . S
C857 C302 1.490 . S
C862 C446 1.490 . S
C867 C482 1.490 . S
C872 C338 1.490 . S
C877 C518 1.490 . S
C882 C374 1.490 . S
C887 C554 1.490 . S
C892 C410 1.490 . S
