# Generated by pormake.
# Topology unr, (4)-cn, num edge types: 1
# Building blocks:
#     Node 0, Type 0, BuildingBlock: GALJAG_clean_sbu_0, # of connection points: 4
#     Node 1, Type 0, BuildingBlock: GALJAG_clean_sbu_0, # of connection points: 4
#     Node 2, Type 0, BuildingBlock: GALJAG_clean_sbu_0, # of connection points: 4
#     Node 3, Type 0, BuildingBlock: GALJAG_clean_sbu_0, # of connection points: 4
#     Node 4, Type 0, BuildingBlock: GALJAG_clean_sbu_0, # of connection points: 4
#     Node 5, Type 0, BuildingBlock: GALJAG_clean_sbu_0, # of connection points: 4
#     Node 6, Type 0, BuildingBlock: GALJAG_clean_sbu_0, # of connection points: 4
#     Node 7, Type 0, BuildingBlock: GALJAG_clean_sbu_0, # of connection points: 4
#     Node 8, Type 0, BuildingBlock: GALJAG_clean_sbu_0, # of connection points: 4
#     Node 9, Type 0, BuildingBlock: GALJAG_clean_sbu_0, # of connection points: 4
#     Node 10, Type 0, BuildingBlock: GALJAG_clean_sbu_0, # of connection points: 4
#     Node 11, Type 0, BuildingBlock: GALJAG_clean_sbu_0, # of connection points: 4
#     Node 12, Type 0, BuildingBlock: GALJAG_clean_sbu_0, # of connection points: 4
#     Node 13, Type 0, BuildingBlock: GALJAG_clean_sbu_0, # of connection points: 4
#     Node 14, Type 0, BuildingBlock: GALJAG_clean_sbu_0, # of connection points: 4
#     Node 15, Type 0, BuildingBlock: GALJAG_clean_sbu_0, # of connection points: 4
#     Node 16, Type 0, BuildingBlock: GALJAG_clean_sbu_0, # of connection points: 4
#     Node 17, Type 0, BuildingBlock: GALJAG_clean_sbu_0, # of connection points: 4
#     Node 18, Type 0, BuildingBlock: GALJAG_clean_sbu_0, # of connection points: 4
#     Node 19, Type 0, BuildingBlock: GALJAG_clean_sbu_0, # of connection points: 4
#     Node 20, Type 0, BuildingBlock: GALJAG_clean_sbu_0, # of connection points: 4
#     Node 21, Type 0, BuildingBlock: GALJAG_clean_sbu_0, # of connection points: 4
#     Node 22, Type 0, BuildingBlock: GALJAG_clean_sbu_0, # of connection points: 4
#     Node 23, Type 0, BuildingBlock: GALJAG_clean_sbu_0, # of connection points: 4
#     Node 24, Type 0, BuildingBlock: GALJAG_clean_sbu_0, # of connection points: 4
#     Node 25, Type 0, BuildingBlock: GALJAG_clean_sbu_0, # of connection points: 4
#     Node 26, Type 0, BuildingBlock: GALJAG_clean_sbu_0, # of connection points: 4
#     Node 27, Type 0, BuildingBlock: GALJAG_clean_sbu_0, # of connection points: 4
#     Node 28, Type 0, BuildingBlock: GALJAG_clean_sbu_0, # of connection points: 4
#     Node 29, Type 0, BuildingBlock: GALJAG_clean_sbu_0, # of connection points: 4
#     Node 30, Type 0, BuildingBlock: GALJAG_clean_sbu_0, # of connection points: 4
#     Node 31, Type 0, BuildingBlock: GALJAG_clean_sbu_0, # of connection points: 4
#     Node 32, Type 0, BuildingBlock: GALJAG_clean_sbu_0, # of connection points: 4
#     Node 33, Type 0, BuildingBlock: GALJAG_clean_sbu_0, # of connection points: 4
#     Node 34, Type 0, BuildingBlock: GALJAG_clean_sbu_0, # of connection points: 4
#     Node 35, Type 0, BuildingBlock: GALJAG_clean_sbu_0, # of connection points: 4
#     Edge 36, Type (0, 0), BuildingBlock: EZIPEK_clean_linker_0, # of connection points: 2
#     Edge 37, Type (0, 0), BuildingBlock: EZIPEK_clean_linker_0, # of connection points: 2
#     Edge 38, Type (0, 0), BuildingBlock: EZIPEK_clean_linker_0, # of connection points: 2
#     Edge 39, Type (0, 0), BuildingBlock: EZIPEK_clean_linker_0, # of connection points: 2
#     Edge 40, Type (0, 0), BuildingBlock: EZIPEK_clean_linker_0, # of connection points: 2
#     Edge 41, Type (0, 0), BuildingBlock: EZIPEK_clean_linker_0, # of connection points: 2
#     Edge 42, Type (0, 0), BuildingBlock: EZIPEK_clean_linker_0, # of connection points: 2
#     Edge 43, Type (0, 0), BuildingBlock: EZIPEK_clean_linker_0, # of connection points: 2
#     Edge 44, Type (0, 0), BuildingBlock: EZIPEK_clean_linker_0, # of connection points: 2
#     Edge 45, Type (0, 0), BuildingBlock: EZIPEK_clean_linker_0, # of connection points: 2
#     Edge 46, Type (0, 0), BuildingBlock: EZIPEK_clean_linker_0, # of connection points: 2
#     Edge 47, Type (0, 0), BuildingBlock: EZIPEK_clean_linker_0, # of connection points: 2
#     Edge 48, Type (0, 0), BuildingBlock: EZIPEK_clean_linker_0, # of connection points: 2
#     Edge 49, Type (0, 0), BuildingBlock: EZIPEK_clean_linker_0, # of connection points: 2
#     Edge 50, Type (0, 0), BuildingBlock: EZIPEK_clean_linker_0, # of connection points: 2
#     Edge 51, Type (0, 0), BuildingBlock: EZIPEK_clean_linker_0, # of connection points: 2
#     Edge 52, Type (0, 0), BuildingBlock: EZIPEK_clean_linker_0, # of connection points: 2
#     Edge 53, Type (0, 0), BuildingBlock: EZIPEK_clean_linker_0, # of connection points: 2
#     Edge 54, Type (0, 0), BuildingBlock: EZIPEK_clean_linker_0, # of connection points: 2
#     Edge 55, Type (0, 0), BuildingBlock: EZIPEK_clean_linker_0, # of connection points: 2
#     Edge 56, Type (0, 0), BuildingBlock: EZIPEK_clean_linker_0, # of connection points: 2
#     Edge 57, Type (0, 0), BuildingBlock: EZIPEK_clean_linker_0, # of connection points: 2
#     Edge 58, Type (0, 0), BuildingBlock: EZIPEK_clean_linker_0, # of connection points: 2
#     Edge 59, Type (0, 0), BuildingBlock: EZIPEK_clean_linker_0, # of connection points: 2
#     Edge 60, Type (0, 0), BuildingBlock: EZIPEK_clean_linker_0, # of connection points: 2
#     Edge 61, Type (0, 0), BuildingBlock: EZIPEK_clean_linker_0, # of connection points: 2
#     Edge 62, Type (0, 0), BuildingBlock: EZIPEK_clean_linker_0, # of connection points: 2
#     Edge 63, Type (0, 0), BuildingBlock: EZIPEK_clean_linker_0, # of connection points: 2
#     Edge 64, Type (0, 0), BuildingBlock: EZIPEK_clean_linker_0, # of connection points: 2
#     Edge 65, Type (0, 0), BuildingBlock: EZIPEK_clean_linker_0, # of connection points: 2
#     Edge 66, Type (0, 0), BuildingBlock: EZIPEK_clean_linker_0, # of connection points: 2
#     Edge 67, Type (0, 0), BuildingBlock: EZIPEK_clean_linker_0, # of connection points: 2
#     Edge 68, Type (0, 0), BuildingBlock: EZIPEK_clean_linker_0, # of connection points: 2
#     Edge 69, Type (0, 0), BuildingBlock: EZIPEK_clean_linker_0, # of connection points: 2
#     Edge 70, Type (0, 0), BuildingBlock: EZIPEK_clean_linker_0, # of connection points: 2
#     Edge 71, Type (0, 0), BuildingBlock: EZIPEK_clean_linker_0, # of connection points: 2
#     Edge 72, Type (0, 0), BuildingBlock: EZIPEK_clean_linker_0, # of connection points: 2
#     Edge 73, Type (0, 0), BuildingBlock: EZIPEK_clean_linker_0, # of connection points: 2
#     Edge 74, Type (0, 0), BuildingBlock: EZIPEK_clean_linker_0, # of connection points: 2
#     Edge 75, Type (0, 0), BuildingBlock: EZIPEK_clean_linker_0, # of connection points: 2
#     Edge 76, Type (0, 0), BuildingBlock: EZIPEK_clean_linker_0, # of connection points: 2
#     Edge 77, Type (0, 0), BuildingBlock: EZIPEK_clean_linker_0, # of connection points: 2
#     Edge 78, Type (0, 0), BuildingBlock: EZIPEK_clean_linker_0, # of connection points: 2
#     Edge 79, Type (0, 0), BuildingBlock: EZIPEK_clean_linker_0, # of connection points: 2
#     Edge 80, Type (0, 0), BuildingBlock: EZIPEK_clean_linker_0, # of connection points: 2
#     Edge 81, Type (0, 0), BuildingBlock: EZIPEK_clean_linker_0, # of connection points: 2
#     Edge 82, Type (0, 0), BuildingBlock: EZIPEK_clean_linker_0, # of connection points: 2
#     Edge 83, Type (0, 0), BuildingBlock: EZIPEK_clean_linker_0, # of connection points: 2
#     Edge 84, Type (0, 0), BuildingBlock: EZIPEK_clean_linker_0, # of connection points: 2
#     Edge 85, Type (0, 0), BuildingBlock: EZIPEK_clean_linker_0, # of connection points: 2
#     Edge 86, Type (0, 0), BuildingBlock: EZIPEK_clean_linker_0, # of connection points: 2
#     Edge 87, Type (0, 0), BuildingBlock: EZIPEK_clean_linker_0, # of connection points: 2
#     Edge 88, Type (0, 0), BuildingBlock: EZIPEK_clean_linker_0, # of connection points: 2
#     Edge 89, Type (0, 0), BuildingBlock: EZIPEK_clean_linker_0, # of connection points: 2
#     Edge 90, Type (0, 0), BuildingBlock: EZIPEK_clean_linker_0, # of connection points: 2
#     Edge 91, Type (0, 0), BuildingBlock: EZIPEK_clean_linker_0, # of connection points: 2
#     Edge 92, Type (0, 0), BuildingBlock: EZIPEK_clean_linker_0, # of connection points: 2
#     Edge 93, Type (0, 0), BuildingBlock: EZIPEK_clean_linker_0, # of connection points: 2
#     Edge 94, Type (0, 0), BuildingBlock: EZIPEK_clean_linker_0, # of connection points: 2
#     Edge 95, Type (0, 0), BuildingBlock: EZIPEK_clean_linker_0, # of connection points: 2
#     Edge 96, Type (0, 0), BuildingBlock: EZIPEK_clean_linker_0, # of connection points: 2
#     Edge 97, Type (0, 0), BuildingBlock: EZIPEK_clean_linker_0, # of connection points: 2
#     Edge 98, Type (0, 0), BuildingBlock: EZIPEK_clean_linker_0, # of connection points: 2
#     Edge 99, Type (0, 0), BuildingBlock: EZIPEK_clean_linker_0, # of connection points: 2
#     Edge 100, Type (0, 0), BuildingBlock: EZIPEK_clean_linker_0, # of connection points: 2
#     Edge 101, Type (0, 0), BuildingBlock: EZIPEK_clean_linker_0, # of connection points: 2
#     Edge 102, Type (0, 0), BuildingBlock: EZIPEK_clean_linker_0, # of connection points: 2
#     Edge 103, Type (0, 0), BuildingBlock: EZIPEK_clean_linker_0, # of connection points: 2
#     Edge 104, Type (0, 0), BuildingBlock: EZIPEK_clean_linker_0, # of connection points: 2
#     Edge 105, Type (0, 0), BuildingBlock: EZIPEK_clean_linker_0, # of connection points: 2
#     Edge 106, Type (0, 0), BuildingBlock: EZIPEK_clean_linker_0, # of connection points: 2
#     Edge 107, Type (0, 0), BuildingBlock: EZIPEK_clean_linker_0, # of connection points: 2
# Relax obj value: 0.387
# Max RMSD: 0.141
# Mean RMSD: 0.140
data_MOF--net-unr--node1-GALJAG_clean_sbu_0--edge1-EZIPEK_clean_linker_0
_symmetry_space_group_name_H-M    P1
_symmetry_Int_Tables_number       1
_symmetry_cell_setting            triclinic
loop_
_symmetry_equiv_pos_as_xyz
'x, y, z'
_cell_length_a     36.605508
_cell_length_b     36.596132
_cell_length_c     56.866572
_cell_angle_alpha  89.940487
_cell_angle_beta   89.988074
_cell_angle_gamma 120.03526
loop_
_atom_site_label
_atom_site_type_symbol
_atom_site_fract_x
_atom_site_fract_y
_atom_site_fract_z
_atom_type_partial_charge
In0 In 0.15902 0.05872 0.17392 0.0
O1 O 0.22716 0.1041 0.16408 0.0
O2 O 0.21456 0.05286 0.18692 0.0
C3 C 0.12357 0.09831 0.1527 0.0
C4 C 0.13891 0.06985 0.21793 0.0
C5 C 0.12366 0.98492 0.15031 0.0
O6 O 0.16273 0.11196 0.15098 0.0
O7 O 0.10295 0.06476 0.16439 0.0
O8 O 0.12833 0.98749 0.17234 0.0
O9 O 0.13876 0.02009 0.14005 0.0
C10 C 0.24163 0.08563 0.17642 0.0
O11 O 0.12209 0.03391 0.20843 0.0
O12 O 0.16615 0.09955 0.20555 0.0
In13 In 0.92063 0.0726 0.18815 0.0
O14 O 0.89119 0.11403 0.185 0.0
O15 O 0.93277 0.12505 0.21382 0.0
C16 C 0.87335 0.00964 0.1581 0.0
C17 C 0.90858 0.02255 0.22541 0.0
C18 C -0.00654 0.11443 0.16476 0.0
O19 O 0.85767 0.02681 0.17065 0.0
O20 O 0.91264 0.02541 0.16036 0.0
O21 O 0.9903 0.09751 0.1846 0.0
O22 O 0.9599 0.11161 0.1569 0.0
C23 C 0.90883 0.13505 0.20326 0.0
O24 O 0.94471 0.04567 0.21663 0.0
O25 O 0.87899 0.02498 0.21565 0.0
In26 In 0.90126 0.83211 0.1833 0.0
O27 O 0.89831 0.85592 0.22045 0.0
O28 O 0.94952 0.84653 0.21183 0.0
C29 C 0.86021 0.86605 0.16165 0.0
C30 C 0.84959 0.74899 0.19056 0.0
C31 C 0.96914 0.86199 0.15531 0.0
O32 O 0.87194 0.87343 0.18286 0.0
O33 O 0.86881 0.84082 0.15124 0.0
O34 O 0.94139 0.82331 0.15533 0.0
O35 O 0.96176 0.88507 0.16861 0.0
C36 C 0.93182 0.85719 0.22712 0.0
O37 O 0.83604 0.7733 0.18491 0.0
O38 O 0.8891 0.76626 0.19181 0.0
In39 In 0.09832 0.15162 0.34898 0.0
O40 O 0.08756 0.09686 0.32519 0.0
O41 O 0.11867 0.15876 0.31055 0.0
C42 C 0.01842 0.10755 0.36429 0.0
C43 C 0.12214 0.2335 0.34475 0.0
C44 C 0.14337 0.13077 0.37815 0.0
O45 O 0.02913 0.10425 0.34367 0.0
O46 O 0.04748 0.13511 0.37689 0.0
O47 O 0.15399 0.14234 0.35717 0.0
O48 O 0.11203 0.13353 0.38482 0.0
C49 C 0.10508 0.1199 0.30752 0.0
O50 O 0.1454 0.22131 0.35414 0.0
O51 O 0.08654 0.20459 0.338 0.0
In52 In 0.82257 0.8843 0.34951 0.0
O53 O 0.86049 0.89044 0.31603 0.0
O54 O 0.83038 0.92725 0.31906 0.0
C55 C 0.84194 0.83598 0.37665 0.0
C56 C 0.73911 0.83923 0.34274 0.0
C57 C 0.86892 0.9592 0.37005 0.0
O58 O 0.84497 0.83712 0.35448 0.0
O59 O 0.82723 0.85795 0.38492 0.0
O60 O 0.8841 0.93726 0.36242 0.0
O61 O 0.82919 0.94215 0.36885 0.0
C62 C 0.85371 0.91816 0.30716 0.0
O63 O 0.75556 0.8695 0.35711 0.0
O64 O 0.76448 0.83088 0.33234 0.0
In65 In 0.05347 0.89697 0.35858 0.0
O66 O 0.04546 0.92137 0.3228 0.0
O67 O -0.00267 0.86096 0.33432 0.0
C68 C 0.10127 0.97355 0.37762 0.0
C69 C 0.10851 0.87123 0.34777 0.0
C70 C 0.98755 0.85377 0.38791 0.0
O71 O 0.10176 0.94158 0.38544 0.0
O72 O 0.0767 0.96692 0.36057 0.0
O73 O 0.0037 0.8362 0.37611 0.0
O74 O 0.00606 0.89336 0.38546 0.0
C75 C 0.01057 0.88868 0.31841 0.0
O76 O 0.09154 0.86498 0.36778 0.0
O77 O 0.09737 0.88966 0.33322 0.0
In78 In 0.83905 0.922 0.84604 0.0
O79 O 0.86321 0.94604 0.80861 0.0
O80 O 0.85134 0.88497 0.81825 0.0
C81 C 0.87306 -0.00096 0.86528 0.0
C82 C 0.75578 0.89177 0.84215 0.0
C83 C 0.86858 0.8796 0.87109 0.0
O84 O 0.84179 0.96764 0.8746 0.0
O85 O 0.88677 0.99153 0.84666 0.0
O86 O 0.88908 0.91915 0.86834 0.0
O87 O 0.83243 0.86188 0.86188 0.0
C88 C 0.86317 0.91287 0.80254 0.0
O89 O 0.77157 0.88298 0.85941 0.0
O90 O 0.78176 0.91652 0.82721 0.0
In91 In 0.05847 0.91232 0.81967 0.0
O92 O 0.02342 0.9233 0.78947 0.0
O93 O 0.0907 0.95819 0.78977 0.0
C94 C -0.00628 0.86314 0.84836 0.0
C95 C 0.08935 0.86224 0.80793 0.0
C96 C 0.09416 0.98334 0.8451 0.0
O97 O 0.98873 0.86876 0.82691 0.0
O98 O 0.03166 0.88113 0.85493 0.0
O99 O 0.0555 0.96331 0.83987 0.0
O100 O 0.11537 0.967 0.83779 0.0
C101 C 0.05706 0.95088 0.77971 0.0
O102 O 0.10593 0.89015 0.82364 0.0
O103 O 0.05733 0.85957 0.79803 0.0
In104 In 0.05923 0.1718 0.83112 0.0
O105 O 0.04048 0.12565 0.80046 0.0
O106 O 0.01767 0.16898 0.80061 0.0
C107 C 0.09305 0.12678 0.84723 0.0
C108 C 0.12071 0.25091 0.82174 0.0
C109 C -0.00276 0.15341 0.86299 0.0
O110 O 0.05926 0.11088 0.83557 0.0
O111 O 0.11046 0.16597 0.85105 0.0
O112 O -0.00349 0.16531 0.84231 0.0
O113 O 0.0313 0.15462 0.8681 0.0
C114 C 0.01846 0.13875 0.79047 0.0
O115 O 0.09343 0.24288 0.8375 0.0
O116 O 0.11704 0.21941 0.81078 0.0
In117 In 0.90202 0.84245 0.66717 0.0
O118 O 0.92869 0.87327 0.70296 0.0
O119 O 0.86598 0.85735 0.69436 0.0
C120 C 0.97625 0.87499 0.64504 0.0
C121 C 0.8801 0.76225 0.67643 0.0
C122 C 0.85813 0.86597 0.63891 0.0
O123 O 0.96943 0.89306 0.66194 0.0
O124 O 0.94548 0.83982 0.63901 0.0
O125 O 0.84053 0.83207 0.65061 0.0
O126 O 0.89766 0.88708 0.64129 0.0
C127 C 0.89526 0.87241 0.70933 0.0
O128 O 0.8652 0.772 0.65909 0.0
O129 O 0.9057 0.79255 0.68901 0.0
In130 In 0.1434 0.08539 0.65523 0.0
O131 O 0.08416 0.05153 0.67831 0.0
O132 O 0.14286 0.06489 0.69313 0.0
C133 C 0.1113 0.13183 0.63728 0.0
C134 C 0.22771 0.13537 0.65581 0.0
C135 C 0.11947 0.01193 0.63263 0.0
O136 O 0.12052 0.13261 0.65875 0.0
O137 O 0.11969 0.10845 0.62488 0.0
O138 O 0.14044 0.02214 0.65148 0.0
O139 O 0.11213 0.03992 0.62482 0.0
C140 C 0.10351 0.048 0.6957 0.0
O141 O 0.209 0.10699 0.64062 0.0
O142 O 0.20403 0.13996 0.67009 0.0
In143 In 0.88415 0.07129 0.66346 0.0
O144 O 0.90138 0.04629 0.69614 0.0
O145 O 0.92054 0.11155 0.69479 0.0
C146 C 0.84067 -0.00283 0.64049 0.0
C147 C 0.82858 0.09819 0.66917 0.0
C148 C 0.95746 0.11079 0.64014 0.0
O149 O 0.84271 0.00015 0.66262 0.0
O150 O 0.8598 0.03212 0.62988 0.0
O151 O 0.9329 0.12569 0.64073 0.0
O152 O 0.94405 0.07563 0.65015 0.0
C153 C 0.92058 0.08189 0.70597 0.0
O154 O 0.8602 0.11672 0.65579 0.0
O155 O 0.82412 0.06526 0.67893 0.0
In156 In 0.84232 0.4892 0.48815 0.0
O157 O 0.89685 0.48289 0.47368 0.0
O158 O 0.91101 0.54215 0.48768 0.0
C159 C 0.79447 0.51416 0.46465 0.0
C160 C 0.83856 0.49954 0.53445 0.0
C161 C 0.78649 0.40629 0.48391 0.0
O162 O 0.80123 0.51922 0.48647 0.0
O163 O 0.81618 0.50095 0.45436 0.0
O164 O 0.80507 0.42308 0.50284 0.0
O165 O 0.79769 0.43079 0.46646 0.0
C166 C 0.92484 0.51941 0.47963 0.0
O167 O 0.83972 0.46837 0.52579 0.0
O168 O 0.83999 0.52622 0.51976 0.0
In169 In 0.5489 0.36086 0.48441 0.0
O170 O 0.50988 0.38765 0.46929 0.0
O171 O 0.53529 0.40678 0.50379 0.0
C172 C 0.50699 0.2883 0.45982 0.0
C173 C 0.54766 0.32393 0.5257 0.0
C174 C 0.62487 0.41948 0.46786 0.0
O175 O 0.48862 0.30322 0.47185 0.0
O176 O 0.54667 0.31126 0.45948 0.0
O177 O 0.61794 0.40982 0.48934 0.0
O178 O 0.59348 0.39952 0.45451 0.0
C179 C 0.51373 0.40938 0.4873 0.0
O180 O 0.57739 0.33506 0.51111 0.0
O181 O 0.51917 0.33171 0.51959 0.0
In182 In 0.57234 0.17739 0.52029 0.0
O183 O 0.58817 0.12595 0.51235 0.0
O184 O 0.53045 0.10929 0.53011 0.0
C185 C 0.63733 0.24782 0.50244 0.0
C186 C 0.58429 0.20129 0.56567 0.0
C187 C 0.51401 0.16709 0.48835 0.0
O188 O 0.64111 0.21673 0.50876 0.0
O189 O 0.60063 0.24238 0.50427 0.0
O190 O 0.51074 0.17371 0.50994 0.0
O191 O 0.54645 0.16481 0.48333 0.0
C192 C 0.55414 0.09719 0.52119 0.0
O193 O 0.55392 0.19924 0.55399 0.0
O194 O 0.6077 0.19125 0.55458 0.0
In195 In 0.79802 0.50471 0.68026 0.0
O196 O 0.77902 0.4986 0.64201 0.0
O197 O 0.84216 0.51384 0.6496 0.0
C198 C 0.71576 0.45094 0.6866 0.0
C199 C 0.82808 0.58734 0.6876 0.0
C200 C 0.82296 0.46035 0.70714 0.0
O201 O 0.73758 0.44528 0.67149 0.0
O202 O 0.735 0.4844 0.69856 0.0
O203 O 0.83252 0.46839 0.6857 0.0
O204 O 0.80343 0.47776 0.71537 0.0
C205 C 0.81445 0.50647 0.63419 0.0
O206 O 0.84761 0.56914 0.69467 0.0
O207 O 0.79289 0.56358 0.67821 0.0
In208 In 0.48992 0.23524 0.66282 0.0
O209 O 0.51175 0.22145 0.62782 0.0
O210 O 0.50198 0.27415 0.62981 0.0
C211 C 0.49187 0.17979 0.69356 0.0
C212 C 0.40766 0.20981 0.66087 0.0
C213 C 0.55408 0.30714 0.67898 0.0
O214 O 0.49635 0.1778 0.67162 0.0
O215 O 0.48651 0.20985 0.69967 0.0
O216 O 0.51626 0.29866 0.68122 0.0
O217 O 0.55918 0.27883 0.66953 0.0
C218 C 0.51306 0.25272 0.61753 0.0
O219 O 0.43359 0.24323 0.67133 0.0
O220 O 0.42297 0.18919 0.65156 0.0
In221 In 0.68393 0.21545 0.69661 0.0
O222 O 0.63505 0.22749 0.6785 0.0
O223 O 0.68047 0.22318 0.6571 0.0
C224 C 0.7426 0.29247 0.71162 0.0
C225 C 0.72532 0.17299 0.68892 0.0
C226 C 0.61422 0.16865 0.7229 0.0
O227 O 0.72624 0.26095 0.72521 0.0
O228 O 0.72968 0.28497 0.69065 0.0
O229 O 0.62823 0.15277 0.70831 0.0
O230 O 0.63796 0.20788 0.72564 0.0
C231 C 0.64807 0.22694 0.65806 0.0
O232 O 0.69405 0.16717 0.67681 0.0
O233 O 0.73498 0.19924 0.7054 0.0
In234 In 0.50479 0.2163 0.18832 0.0
O235 O 0.51883 0.24451 0.1512 0.0
O236 O 0.50997 0.18288 0.15601 0.0
C237 C 0.51775 0.2826 0.21486 0.0
C238 C 0.42094 0.16908 0.18793 0.0
C239 C 0.562 0.19933 0.2067 0.0
O240 O 0.49629 0.24511 0.22208 0.0
O241 O 0.5318 0.28654 0.19416 0.0
O242 O 0.52294 0.1732 0.208 0.0
O243 O 0.5719 0.23372 0.19657 0.0
C244 C 0.51686 0.21224 0.14188 0.0
O245 O 0.44337 0.15864 0.19988 0.0
O246 O 0.44064 0.20326 0.17672 0.0
In247 In 0.79787 0.27592 0.19859 0.0
O248 O 0.85659 0.2824 0.21673 0.0
O249 O 0.81103 0.22262 0.20277 0.0
C250 C 0.8009 0.34822 0.21033 0.0
C251 C 0.81739 0.28799 0.15267 0.0
C252 C 0.71964 0.22172 0.21475 0.0
O253 O 0.81767 0.33242 0.22316 0.0
O254 O 0.78457 0.32866 0.19155 0.0
O255 O 0.74808 0.24967 0.22746 0.0
O256 O 0.73135 0.22089 0.19398 0.0
C257 C 0.8461 0.24446 0.21275 0.0
O258 O 0.78034 0.26407 0.16002 0.0
O259 O 0.84499 0.30564 0.16848 0.0
In260 In 0.68465 0.48791 0.20647 0.0
O261 O 0.71555 0.55272 0.22451 0.0
O262 O 0.72864 0.54904 0.18843 0.0
C263 C 0.61789 0.44085 0.23489 0.0
C264 C 0.64695 0.46874 0.16427 0.0
C265 C 0.73739 0.4585 0.21384 0.0
O266 O 0.62009 0.47001 0.22211 0.0
O267 O 0.65086 0.43824 0.23459 0.0
O268 O 0.71086 0.44554 0.19727 0.0
O269 O 0.73806 0.48703 0.22664 0.0
C270 C 0.7352 0.572 0.20614 0.0
O271 O 0.67559 0.46059 0.16965 0.0
O272 O 0.63681 0.48588 0.18026 0.0
In273 In 0.53119 0.171 0.99621 0.0
O274 O 0.4891 0.11189 0.97498 0.0
O275 O 0.50683 0.10447 0.00956 0.0
C276 C 0.50594 0.22311 0.97936 0.0
C277 C 0.5267 0.18652 0.04213 0.0
C278 C 0.60557 0.18826 0.97721 0.0
O279 O 0.48184 0.18369 0.97974 0.0
O280 O 0.54321 0.23585 0.98613 0.0
O281 O 0.59974 0.18881 0.99901 0.0
O282 O 0.5738 0.17916 0.96462 0.0
C283 C 0.48725 0.08716 0.99095 0.0
O284 O 0.56086 0.19449 0.03233 0.0
O285 O 0.49485 0.17068 0.02881 0.0
In286 In 0.81971 0.33179 0.00809 0.0
O287 O 0.88399 0.34882 0.9926 0.0
O288 O 0.87542 0.39783 0.00699 0.0
C289 C 0.77228 0.26549 0.97962 0.0
C290 C 0.82873 0.31574 0.05312 0.0
C291 C 0.76761 0.363 0.0063 0.0
O292 O 0.79304 0.30295 0.97228 0.0
O293 O 0.77832 0.26151 1.00108 0.0
O294 O 0.76253 0.3345 0.02063 0.0
O295 O 0.79907 0.37603 0.99278 0.0
C296 C 0.89976 0.38753 0.99725 0.0
O297 O 0.81466 0.33949 0.04708 0.0
O298 O 0.83889 0.29992 0.03637 0.0
In299 In 0.58348 0.43345 0.02117 0.0
O300 O 0.55982 0.41237 0.0586 0.0
O301 O 0.61974 0.46795 0.0537 0.0
C302 C 0.52421 0.3713 0.99459 0.0
C303 C 0.57328 0.49737 0.00776 0.0
C304 C 0.64547 0.41683 0.0131 0.0
O305 O 0.5203 0.3733 0.01658 0.0
O306 O 0.55774 0.40137 0.98627 0.0
O307 O 0.61209 0.39166 0.02389 0.0
O308 O 0.64794 0.45091 0.00628 0.0
C309 C 0.59261 0.44206 0.0679 0.0
O310 O 0.60536 0.49531 1.00167 0.0
O311 O 0.54743 0.46819 0.02099 0.0
In312 In 0.49323 0.76838 0.81919 0.0
O313 O 0.56005 0.81897 0.80952 0.0
O314 O 0.55156 0.77887 0.83877 0.0
C315 C 0.44632 0.79414 0.79596 0.0
C316 C 0.46458 0.77165 0.86228 0.0
C317 C 0.48018 0.69954 0.79509 0.0
O318 O 0.48561 0.81792 0.79848 0.0
O319 O 0.43153 0.75733 0.80404 0.0
O320 O 0.50144 0.73627 0.78674 0.0
O321 O 0.46666 0.6977 0.81573 0.0
C322 C 0.57678 0.80917 0.82593 0.0
O323 O 0.45915 0.73747 0.85364 0.0
O324 O 0.48468 0.80376 0.84941 0.0
In325 In 0.21682 0.72787 0.8045 0.0
O326 O 0.1628 0.7323 0.78725 0.0
O327 O 0.20471 0.78185 0.81012 0.0
C328 C 0.2111 0.65844 0.78579 0.0
C329 C 0.19418 0.69817 0.84852 0.0
C330 C 0.29513 0.78268 0.78886 0.0
O331 O 0.23552 0.67842 0.80251 0.0
O332 O 0.1888 0.67329 0.778 0.0
O333 O 0.28468 0.77912 0.81027 0.0
O334 O 0.26531 0.75929 0.77524 0.0
C335 C 0.17242 0.76674 0.79727 0.0
O336 O 0.23065 0.72797 0.84359 0.0
O337 O 0.16887 0.68399 0.83145 0.0
In338 In 0.30417 0.5062 0.80154 0.0
O339 O 0.27832 0.43777 0.78954 0.0
O340 O 0.24886 0.44956 0.81848 0.0
C341 C 0.37674 0.54112 0.77649 0.0
C342 C 0.34033 0.54297 0.84259 0.0
C343 C 0.25661 0.53742 0.78531 0.0
O344 O 0.37126 0.51945 0.79477 0.0
O345 O 0.34389 0.54096 0.76975 0.0
O346 O 0.26697 0.53958 0.80664 0.0
O347 O 0.26862 0.51776 0.77208 0.0
C348 C 0.24972 0.42283 0.80498 0.0
O349 O 0.32879 0.56062 0.82766 0.0
O350 O 0.33332 0.5066 0.83706 0.0
In351 In 0.39828 0.828 0.99396 0.0
O352 O 0.42931 0.89537 0.00693 0.0
O353 O 0.39542 0.88106 0.97464 0.0
C354 C 0.44398 0.80388 0.01995 0.0
C355 C 0.41291 0.80403 0.95178 0.0
C356 C 0.32115 0.79112 0.01338 0.0
O357 O 0.40521 0.77994 0.01578 0.0
O358 O 0.45923 0.84045 0.01148 0.0
O359 O 0.35324 0.81835 0.02437 0.0
O360 O 0.32799 0.78303 0.99284 0.0
C361 C 0.41767 0.90853 0.98965 0.0
O362 O 0.37606 0.79077 0.95949 0.0
O363 O 0.44209 0.82944 0.96508 0.0
In364 In 0.14446 0.59597 0.98577 0.0
O365 O 0.07929 0.55778 1.00228 0.0
O366 O 0.09345 0.53253 0.97217 0.0
C367 C 0.16697 0.66222 0.01502 0.0
C368 C 0.1547 0.62536 0.94157 0.0
C369 C 0.20418 0.57653 0.99595 0.0
O370 O 0.15232 0.66011 0.99471 0.0
O371 O 0.16696 0.62912 0.02113 0.0
O372 O 0.2114 0.60865 0.98417 0.0
O373 O 0.16657 0.55365 0.00278 0.0
C374 C 0.06702 0.528 0.98769 0.0
O375 O 0.17316 0.60647 0.94924 0.0
O376 O 0.13009 0.62848 0.95593 0.0
In377 In 0.43907 0.61668 0.97811 0.0
O378 O 0.45703 0.57062 0.99266 0.0
O379 O 0.50195 0.62091 0.97091 0.0
C380 C 0.36061 0.58728 0.99369 0.0
C381 C 0.4174 0.60453 0.93258 0.0
C382 C 0.47718 0.68538 0.00555 0.0
O383 O 0.37891 0.56591 0.99593 0.0
O384 O 0.38212 0.62309 0.98428 0.0
O385 O 0.47913 0.68752 0.9833 0.0
O386 O 0.45642 0.64839 0.01359 0.0
C387 C 0.49304 0.58874 0.98315 0.0
O388 O 0.4379 0.64123 0.9412 0.0
O389 O 0.40926 0.57471 0.94658 0.0
In390 In 0.17821 0.58542 0.50312 0.0
O391 O 0.22119 0.61025 0.47078 0.0
O392 O 0.17806 0.54414 0.47344 0.0
C393 C 0.21543 0.65942 0.526 0.0
C394 C 0.09951 0.56969 0.49479 0.0
C395 C 0.19847 0.53485 0.52728 0.0
O396 O 0.22331 0.65582 0.5048 0.0
O397 O 0.18751 0.62592 0.53563 0.0
O398 O 0.16211 0.52162 0.51889 0.0
O399 O 0.2235 0.57377 0.52436 0.0
C400 C 0.20663 0.57405 0.46175 0.0
O401 O 0.10988 0.55948 0.51377 0.0
O402 O 0.12902 0.58879 0.48022 0.0
In403 In 0.39874 0.55866 0.49035 0.0
O404 O 0.45036 0.54585 0.50259 0.0
O405 O 0.40172 0.50021 0.48059 0.0
C406 C 0.44706 0.63478 0.51021 0.0
C407 C 0.39745 0.58633 0.44647 0.0
C408 C 0.32418 0.51352 0.51286 0.0
O409 O 0.46052 0.6206 0.49425 0.0
O410 O 0.40953 0.60961 0.51648 0.0
O411 O 0.32693 0.52142 0.4911 0.0
O412 O 0.35922 0.52849 0.52312 0.0
C413 C 0.43525 0.5112 0.49185 0.0
O414 O 0.39006 0.60169 0.46443 0.0
O415 O 0.40238 0.55519 0.45048 0.0
In416 In 0.41774 0.83538 0.50536 0.0
O417 O 0.44566 0.90452 0.49647 0.0
O418 O 0.46693 0.88961 0.52781 0.0
C419 C 0.35204 0.80809 0.53563 0.0
C420 C 0.39092 0.8221 0.46043 0.0
C421 C 0.44965 0.78389 0.50964 0.0
O422 O 0.38279 0.80223 0.5389 0.0
O423 O 0.35634 0.83051 0.51786 0.0
O424 O 0.47319 0.82347 0.50904 0.0
O425 O 0.41073 0.77064 0.50763 0.0
C426 C 0.46924 0.91788 0.51421 0.0
O427 O 0.42892 0.83462 0.46564 0.0
O428 O 0.36691 0.81579 0.47767 0.0
In429 In 0.23782 0.49621 0.32834 0.0
O430 O 0.18228 0.43169 0.319 0.0
O431 O 0.22827 0.43492 0.34331 0.0
C432 C 0.21833 0.55113 0.30974 0.0
C433 C 0.23772 0.52265 0.37232 0.0
C434 C 0.30246 0.50968 0.30007 0.0
O435 O 0.25431 0.56163 0.31786 0.0
O436 O 0.19185 0.51198 0.30992 0.0
O437 O 0.30598 0.5138 0.32217 0.0
O438 O 0.26586 0.49773 0.29243 0.0
C439 C 0.19457 0.41219 0.3322 0.0
O440 O 0.27091 0.52665 0.36303 0.0
O441 O 0.20499 0.50459 0.3598 0.0
In442 In 0.4771 0.70837 0.31451 0.0
O443 O 0.45817 0.70855 0.35308 0.0
O444 O 0.44357 0.64994 0.33781 0.0
C445 C 0.45504 0.76202 0.29597 0.0
C446 C 0.56083 0.75073 0.32235 0.0
C447 C 0.44402 0.64166 0.2852 0.0
O448 O 0.43554 0.73772 0.3129 0.0
O449 O 0.4861 0.75974 0.2882 0.0
O450 O 0.47655 0.65186 0.29744 0.0
O451 O 0.42963 0.66649 0.28722 0.0
C452 C 0.44274 0.66935 0.35583 0.0
O453 O 0.5449 0.7276 0.30453 0.0
O454 O 0.53481 0.75298 0.33587 0.0
In455 In 0.28537 0.79236 0.32464 0.0
O456 O 0.26204 0.83755 0.31378 0.0
O457 O 0.22869 0.79227 0.34059 0.0
C458 C 0.35153 0.82212 0.29442 0.0
C459 C 0.31987 0.80218 0.36754 0.0
C460 C 0.24352 0.71109 0.31206 0.0
O461 O 0.35403 0.83703 0.31467 0.0
O462 O 0.31462 0.79437 0.28887 0.0
O463 O 0.27161 0.72529 0.32775 0.0
O464 O 0.23556 0.73767 0.30272 0.0
C465 C 0.23185 0.82218 0.32823 0.0
O466 O 0.29433 0.76633 0.35923 0.0
O467 O 0.32747 0.83308 0.35444 0.0
C468 C 0.10721 0.15551 0.15742 0.0
C469 C 0.10249 0.12091 0.14403 0.0
C470 C 0.03215 0.10493 0.13193 0.0
C471 C 0.03246 0.13008 0.15088 0.0
N472 N 0.07112 0.187 0.17773 0.0
N473 N 0.06578 0.06849 0.11449 0.0
C474 C 0.07085 0.1589 0.16186 0.0
C475 C 0.06699 0.09836 0.12935 0.0
N476 N 0.1456 0.18306 0.16684 0.0
N477 N -0.00211 0.08594 0.11746 0.0
H478 H 0.09201 0.06471 0.11215 0.0
H479 H 0.03922 0.04729 0.10503 0.0
H480 H 0.97264 0.09141 0.11898 0.0
H481 H -0.00388 0.06819 0.10278 0.0
H482 H 0.1518 0.20988 0.17629 0.0
H483 H 0.17229 0.18061 0.16342 0.0
H484 H 0.09681 0.20656 0.18825 0.0
H485 H 0.04454 0.1901 0.18036 0.0
C486 C 0.8144 0.93592 0.15957 0.0
C487 C 0.84819 0.96797 0.14667 0.0
C488 C 0.86405 0.91581 0.13043 0.0
C489 C 0.84238 0.88972 0.1499 0.0
N490 N 0.78742 0.86781 0.17875 0.0
N491 N 0.89518 0.98664 0.11388 0.0
C492 C 0.81347 0.89701 0.1627 0.0
C493 C 0.86875 0.95674 0.12951 0.0
N494 N 0.78481 0.94352 0.16927 0.0
N495 N 0.88106 0.90207 0.1137 0.0
H496 H 0.89736 0.0162 0.11304 0.0
H497 H 0.91494 0.98265 0.10231 0.0
H498 H 0.87578 0.87133 0.11363 0.0
H499 H 0.89654 0.91933 0.09876 0.0
H500 H 0.7584 0.92085 0.17832 0.0
H501 H 0.78475 0.97153 0.1659 0.0
H502 H 0.76875 0.87293 0.19059 0.0
H503 H 0.7856 0.8385 0.18034 0.0
C504 C 0.08438 0.90661 0.15084 0.0
C505 C 0.09319 0.94423 0.13912 0.0
C506 C 0.02017 0.9129 0.12656 0.0
C507 C 0.00976 0.87976 0.14277 0.0
N508 N 0.03092 0.83656 0.16406 0.0
N509 N 0.07595 0.97301 0.10574 0.0
C510 C 0.04177 0.87322 0.15237 0.0
C511 C 0.06321 0.94378 0.12331 0.0
N512 N 0.11677 0.90458 0.16145 0.0
N513 N 0.98867 0.91601 0.11558 0.0
H514 H 0.10785 0.99377 0.10238 0.0
H515 H 0.05568 0.97335 0.09301 0.0
H516 H 0.95708 0.89241 0.11713 0.0
H517 H -0.00631 0.94207 0.10567 0.0
H518 H 0.11331 0.87932 0.17152 0.0
H519 H 0.14798 0.92893 0.1595 0.0
H520 H 0.05241 0.82954 0.17178 0.0
H521 H -0.00018 0.81181 0.16494 0.0
C522 C 0.17948 0.08889 0.37698 0.0
C523 C 0.15492 0.10169 0.3899 0.0
C524 C 0.11141 0.03059 0.40524 0.0
C525 C 0.12775 0.01624 0.38716 0.0
N526 N 0.18295 0.03004 0.35951 0.0
N527 N 0.11596 0.09145 0.42544 0.0
C528 C 0.16456 0.04501 0.37465 0.0
C529 C 0.12745 0.07466 0.40748 0.0
N530 N 0.21552 0.11885 0.36635 0.0
N531 N 0.07872 0.00207 0.4188 0.0
H532 H 0.12882 0.12408 0.42695 0.0
H533 H 0.09718 0.07395 0.43954 0.0
H534 H 0.06743 0.96967 0.41769 0.0
H535 H 0.06236 0.01027 0.43066 0.0
H536 H 0.2361 0.11238 0.35705 0.0
H537 H 0.22605 0.15095 0.36863 0.0
H538 H 0.20761 0.04901 0.3482 0.0
H539 H 0.17281 -0.00211 0.35822 0.0
C540 C 0.92908 0.01147 0.39322 0.0
C541 C 0.89752 0.00362 0.37649 0.0
C542 C 0.94088 0.07473 0.36054 0.0
C543 C 0.97567 0.07802 0.37316 0.0
N544 N 0.0034 0.05095 0.4028 0.0
N545 N 0.87075 0.0285 0.3453 0.0
C546 C 0.96975 0.0475 0.39048 0.0
C547 C 0.90203 0.036 0.36096 0.0
N548 N 0.92014 0.98333 0.41114 0.0
N549 N 0.94556 0.10858 0.34789 0.0
H550 H 0.84106 0.00148 0.34587 0.0
H551 H 0.87461 0.04837 0.33124 0.0
H552 H 0.97398 0.13726 0.34756 0.0
H553 H 0.92069 0.10964 0.33969 0.0
H554 H 0.94055 0.98829 0.42507 0.0
H555 H 0.89027 0.95663 0.41304 0.0
H556 H 0.00196 0.02694 0.4133 0.0
H557 H 0.03356 0.07715 0.40179 0.0
C558 C 0.87402 0.79017 0.38122 0.0
C559 C 0.86459 0.81988 0.39123 0.0
C560 C 0.9308 0.85237 0.41281 0.0
C561 C 0.94431 0.83037 0.398 0.0
N562 N 0.92279 0.76327 0.37988 0.0
N563 N 0.87193 0.86023 0.4261 0.0
C564 C 0.91362 0.79366 0.3863 0.0
C565 C 0.88881 0.84441 0.41054 0.0
N566 N 0.84608 0.76061 0.36601 0.0
N567 N 0.95895 0.88229 0.4278 0.0
H568 H 0.84015 0.8517 0.4254 0.0
H569 H 0.88768 0.87735 0.44101 0.0
H570 H 0.98907 0.88642 0.43027 0.0
H571 H 0.95282 0.90304 0.4372 0.0
H572 H 0.85275 0.74081 0.35604 0.0
H573 H 0.81614 0.75681 0.36331 0.0
H574 H 0.90111 0.73495 0.37198 0.0
H575 H 0.95083 0.7647 0.38506 0.0
C576 C 0.92835 0.87787 0.89095 0.0
C577 C 0.89024 0.85619 0.87815 0.0
C578 C 0.91703 0.81726 0.85655 0.0
C579 C 0.95772 0.84632 0.86502 0.0
N580 N -0.00321 0.88501 0.89917 0.0
N581 N 0.84152 0.78961 0.86042 0.0
C582 C 0.9616 0.86994 0.8855 0.0
C583 C 0.88206 0.82006 0.86501 0.0
N584 N 0.93316 0.90749 0.90708 0.0
N585 N 0.91264 0.78906 0.83957 0.0
H586 H 0.81597 0.79041 0.86801 0.0
H587 H 0.83359 0.76168 0.8516 0.0
H588 H 0.93817 0.78582 0.83419 0.0
H589 H 0.88449 0.77001 0.83069 0.0
H590 H 0.96176 0.92805 0.91514 0.0
H591 H 0.90792 0.91166 0.91187 0.0
H592 H 0.0007 0.90131 0.91481 0.0
H593 H 0.01975 0.87662 0.89615 0.0
C594 C 0.141 0.09764 0.84207 0.0
C595 C 0.10989 0.10016 0.8556 0.0
C596 C 0.08742 0.03121 0.87296 0.0
C597 C 0.11245 0.02551 0.85604 0.0
N598 N 0.1764 0.05806 0.83328 0.0
N599 N 0.06301 0.07714 0.88876 0.0
C600 C 0.1442 0.06063 0.8437 0.0
C601 C 0.08678 0.06966 0.87306 0.0
N602 N 0.16493 0.12904 0.82646 0.0
N603 N 0.06262 -0.00147 0.88768 0.0
H604 H 0.06311 0.10572 0.88896 0.0
H605 H 0.04526 0.05663 0.9022 0.0
H606 H 0.06452 0.97098 0.88798 0.0
H607 H 0.0409 -0.0015 0.89947 0.0
H608 H 0.18448 0.12683 0.81394 0.0
H609 H 0.16399 0.15705 0.82561 0.0
H610 H 0.20176 0.08336 0.82493 0.0
H611 H 0.18012 0.03183 0.83545 0.0
C612 C 0.92646 0.05435 0.89152 0.0
C613 C 0.89327 0.04199 0.87507 0.0
C614 C 0.91901 0.11571 0.86492 0.0
C615 C 0.95743 0.12577 0.87598 0.0
N616 N 0.9887 0.11273 0.90955 0.0
N617 N 0.85188 0.05996 0.84988 0.0
C618 C 0.95779 0.0977 0.8929 0.0
C619 C 0.88693 0.07265 0.86348 0.0
N620 N 0.92966 0.02436 0.90419 0.0
N621 N 0.91452 0.14738 0.8553 0.0
H622 H 0.8276 0.02852 0.84936 0.0
H623 H 0.84706 0.08005 0.83902 0.0
H624 H 0.93823 0.17892 0.85703 0.0
H625 H 0.88686 0.14299 0.84755 0.0
H626 H 0.95563 0.03069 0.91453 0.0
H627 H 0.90627 0.99257 0.90378 0.0
H628 H 0.99015 0.09449 0.92318 0.0
H629 H 0.0107 0.14494 0.91071 0.0
C630 C 0.84947 0.95229 0.61044 0.0
C631 C 0.82528 0.95565 0.62884 0.0
C632 C 0.79912 0.88175 0.63894 0.0
C633 C 0.8351 0.88517 0.62761 0.0
N634 N 0.88579 0.91609 0.59645 0.0
N635 N 0.76662 0.92009 0.65526 0.0
C636 C 0.85684 0.91769 0.61087 0.0
C637 C 0.79587 0.91871 0.641 0.0
N638 N 0.86535 0.98199 0.59308 0.0
N639 N 0.76898 0.84382 0.64772 0.0
H640 H 0.76271 0.94647 0.65565 0.0
H641 H 0.74711 0.89589 0.66671 0.0
H642 H 0.76979 0.81616 0.64458 0.0
H643 H 0.74115 0.83893 0.65551 0.0
H644 H 0.88228 0.98061 0.57874 0.0
H645 H 0.85709 0.00535 0.59168 0.0
H646 H 0.90643 0.94085 0.58563 0.0
H647 H 0.88915 0.88938 0.5958 0.0
C648 C 0.06225 0.95645 0.60819 0.0
C649 C 0.09468 0.96725 0.62481 0.0
C650 C 0.05284 0.89998 0.64476 0.0
C651 C 0.01707 0.89576 0.63277 0.0
N652 N 0.98735 0.91315 0.59983 0.0
N653 N 0.12926 0.94038 0.6492 0.0
C654 C 0.02188 0.92105 0.61284 0.0
C655 C 0.09289 0.93554 0.63974 0.0
N656 N 0.07035 0.98076 0.58856 0.0
N657 N 0.04765 0.87178 0.662 0.0
H658 H 0.1586 0.9659 0.64452 0.0
H659 H 0.13075 0.91779 0.65964 0.0
H660 H 0.01842 0.84492 0.66522 0.0
H661 H 0.07163 0.8753 0.67324 0.0
H662 H 0.04874 0.97397 0.57503 0.0
H663 H 0.10064 0.00583 0.58507 0.0
H664 H 0.98766 0.93304 0.58664 0.0
H665 H 0.95786 0.88648 0.60268 0.0
C666 C 0.03264 0.16528 0.64624 0.0
C667 C 0.0012 0.13429 0.63143 0.0
C668 C 0.05514 0.12704 0.61018 0.0
C669 C 0.08291 0.1475 0.62915 0.0
N670 N 0.10686 0.20284 0.65763 0.0
N671 N 0.98228 0.09055 0.59699 0.0
C672 C 0.07456 0.17265 0.64459 0.0
C673 C 0.01264 0.11754 0.61222 0.0
N674 N 0.02151 0.18464 0.663 0.0
N675 N 0.06966 0.11731 0.59044 0.0
H676 H 0.95129 0.08469 0.59778 0.0
H677 H 0.98742 0.07323 0.58424 0.0
H678 H 0.10163 0.12744 0.58818 0.0
H679 H 0.05143 0.1041 0.57545 0.0
H680 H 0.04172 0.20417 0.67606 0.0
H681 H -0.00873 0.18059 0.66399 0.0
H682 H 0.10403 0.22378 0.6688 0.0
H683 H 0.13777 0.20895 0.65553 0.0
C684 C 0.6897 0.4439 0.44262 0.0
C685 C 0.66669 0.45291 0.45949 0.0
C686 C 0.72995 0.52023 0.46867 0.0
C687 C 0.75368 0.50726 0.45498 0.0
N688 N 0.75394 0.47212 0.41945 0.0
N689 N 0.66062 0.5053 0.48205 0.0
C690 C 0.73262 0.47436 0.43854 0.0
C691 C 0.68545 0.49328 0.47028 0.0
N692 N 0.67196 0.40538 0.4319 0.0
N693 N 0.75069 0.55718 0.48088 0.0
H694 H 0.62785 0.48626 0.48286 0.0
H695 H 0.67174 0.535 0.48944 0.0
H696 H 0.78297 0.57784 0.47846 0.0
H697 H 0.73656 0.56718 0.4932 0.0
H698 H 0.68922 0.39583 0.4216 0.0
H699 H 0.64074 0.38183 0.43453 0.0
H700 H 0.73952 0.45011 0.40603 0.0
H701 H 0.78484 0.49581 0.41586 0.0
C702 C 0.4524 0.21374 0.46738 0.0
C703 C 0.48616 0.24305 0.45318 0.0
C704 C 0.50954 0.19197 0.44839 0.0
C705 C 0.48933 0.17418 0.47 0.0
N706 N 0.42817 0.15357 0.4939 0.0
N707 N 0.5352 0.25301 0.4225 0.0
C708 C 0.4553 0.1795 0.47708 0.0
C709 C 0.51005 0.22902 0.44052 0.0
N710 N 0.41948 0.22005 0.4721 0.0
N711 N 0.52896 0.17429 0.43632 0.0
H712 H 0.53419 0.27952 0.41654 0.0
H713 H 0.55673 0.24701 0.41388 0.0
H714 H 0.52664 0.14599 0.44189 0.0
H715 H 0.54345 0.18514 0.42005 0.0
H716 H 0.3934 0.19955 0.48215 0.0
H717 H 0.41711 0.24438 0.46397 0.0
H718 H 0.40452 0.15758 0.50145 0.0
H719 H 0.43012 0.12777 0.50022 0.0
C720 C 0.70447 0.28979 0.4793 0.0
C721 C 0.67366 0.28874 0.495 0.0
C722 C 0.71206 0.36582 0.49612 0.0
C723 C 0.74627 0.36622 0.4844 0.0
N724 N 0.77683 0.3293 0.46526 0.0
N725 N 0.65299 0.32698 0.52181 0.0
C726 C 0.74299 0.32841 0.47594 0.0
C727 C 0.67839 0.32705 0.50416 0.0
N728 N 0.69632 0.25447 0.46697 0.0
N729 N 0.71161 0.40258 0.49951 0.0
H730 H 0.62806 0.2999 0.52907 0.0
H731 H 0.65949 0.35419 0.531 0.0
H732 H 0.73558 0.43174 0.49348 0.0
H733 H 0.68547 0.40345 0.50608 0.0
H734 H 0.71613 0.25442 0.45385 0.0
H735 H 0.66763 0.22625 0.46808 0.0
H736 H 0.77795 0.30219 0.46105 0.0
H737 H 0.80482 0.35742 0.46189 0.0
C738 C 0.83746 0.40075 0.706 0.0
C739 C 0.82169 0.42311 0.71861 0.0
C740 C 0.76666 0.35787 0.73618 0.0
C741 C 0.77551 0.33525 0.71896 0.0
N742 N 0.82518 0.3325 0.6923 0.0
N743 N 0.78974 0.42595 0.75478 0.0
C744 C 0.81348 0.35591 0.70571 0.0
C745 C 0.79251 0.40253 0.73697 0.0
N746 N 0.87479 0.42292 0.69423 0.0
N747 N 0.7321 0.33737 0.7504 0.0
H748 H 0.81044 0.45847 0.75578 0.0
H749 H 0.77076 0.413 0.76956 0.0
H750 H 0.71265 0.30471 0.7505 0.0
H751 H 0.72179 0.35279 0.76163 0.0
H752 H 0.8892 0.40932 0.68472 0.0
H753 H 0.89281 0.45576 0.69556 0.0
H754 H 0.85066 0.3452 0.68077 0.0
H755 H 0.80904 0.29956 0.69297 0.0
C756 C 0.60048 0.3842 0.6715 0.0
C757 C 0.59057 0.34818 0.68543 0.0
C758 C 0.65828 0.38708 0.70586 0.0
C759 C 0.67064 0.42021 0.68939 0.0
N760 N 0.65489 0.45268 0.65719 0.0
N761 N 0.60822 0.31446 0.71627 0.0
C762 C 0.64181 0.41981 0.67266 0.0
C763 C 0.61874 0.34959 0.70301 0.0
N764 N 0.57079 0.38392 0.65677 0.0
N765 N 0.68457 0.39161 0.72407 0.0
H766 H 0.57844 0.28739 0.7156 0.0
H767 H 0.62926 0.31134 0.72724 0.0
H768 H 0.71395 0.41868 0.72633 0.0
H769 H 0.67593 0.37041 0.738 0.0
H770 H 0.57461 0.41038 0.64779 0.0
H771 H 0.54077 0.35782 0.65463 0.0
H772 H 0.63766 0.45243 0.64258 0.0
H773 H 0.68426 0.48015 0.6585 0.0
C774 C 0.5401 0.11667 0.71289 0.0
C775 C 0.56847 0.14817 0.72848 0.0
C776 C 0.51859 0.17325 0.73303 0.0
C777 C 0.50216 0.15544 0.71072 0.0
N778 N 0.48308 0.0969 0.68475 0.0
N779 N 0.57675 0.1941 0.76052 0.0
C780 C 0.50762 0.12192 0.70263 0.0
C781 C 0.55422 0.17153 0.74146 0.0
N782 N 0.54572 0.08355 0.70749 0.0
N783 N 0.5004 0.19159 0.74567 0.0
H784 H 0.60191 0.19118 0.76697 0.0
H785 H 0.57102 0.21552 0.76949 0.0
H786 H 0.47227 0.18972 0.74024 0.0
H787 H 0.51024 0.20416 0.76241 0.0
H788 H 0.52565 0.05871 0.69659 0.0
H789 H 0.56899 0.07969 0.71584 0.0
H790 H 0.48782 0.07428 0.67645 0.0
H791 H 0.45751 0.09919 0.67842 0.0
C792 C 0.64507 0.16748 0.20595 0.0
C793 C 0.67416 0.19886 0.22134 0.0
C794 C 0.62013 0.21434 0.23471 0.0
C795 C 0.59468 0.19053 0.2155 0.0
N796 N 0.57889 0.13949 0.18471 0.0
N797 N 0.68192 0.23275 0.25866 0.0
C798 C 0.60527 0.16442 0.20214 0.0
C799 C 0.65927 0.21609 0.23856 0.0
N800 N 0.65595 0.1409 0.19528 0.0
N801 N 0.60764 0.23673 0.24843 0.0
H802 H 0.70832 0.23012 0.26266 0.0
H803 H 0.67185 0.24411 0.27251 0.0
H804 H 0.57794 0.23388 0.24672 0.0
H805 H 0.62695 0.2589 0.26085 0.0
H806 H 0.63564 0.11547 0.1848 0.0
H807 H 0.68451 0.14217 0.19901 0.0
H808 H 0.58683 0.12339 0.17254 0.0
H809 H 0.54911 0.13588 0.18192 0.0
C810 C 0.76744 0.37999 0.23498 0.0
C811 C 0.79664 0.38475 0.21715 0.0
C812 C 0.79585 0.44655 0.20144 0.0
C813 C 0.76427 0.4398 0.21809 0.0
N814 N 0.72861 0.40893 0.25459 0.0
N815 N 0.84771 0.4281 0.18813 0.0
C816 C 0.75332 0.40971 0.23635 0.0
C817 C 0.81402 0.42019 0.202 0.0
N818 N 0.75071 0.34534 0.24934 0.0
N819 N 0.80714 0.47714 0.18466 0.0
H820 H 0.86169 0.40928 0.18875 0.0
H821 H 0.86399 0.45487 0.17768 0.0
H822 H 0.79594 0.49836 0.18471 0.0
H823 H 0.82638 0.48077 0.17034 0.0
H824 H 0.72498 0.3368 0.26038 0.0
H825 H 0.76132 0.32372 0.24949 0.0
H826 H 0.72256 0.39028 0.26952 0.0
H827 H 0.71702 0.42971 0.2558 0.0
C828 C 0.5536 0.32959 0.24949 0.0
C829 C 0.52737 0.31993 0.22935 0.0
C830 C 0.5415 0.39257 0.22824 0.0
C831 C 0.57724 0.40396 0.24238 0.0
N832 N 0.60723 0.38528 0.27419 0.0
N833 N 0.4884 0.33904 0.20285 0.0
C834 C 0.57914 0.37272 0.25604 0.0
C835 C 0.51806 0.35034 0.22011 0.0
N836 N 0.55574 0.29815 0.26123 0.0
N837 N 0.53099 0.42229 0.22247 0.0
H838 H 0.4694 0.30767 0.19763 0.0
H839 H 0.48332 0.36056 0.1935 0.0
H840 H 0.54728 0.45266 0.22956 0.0
H841 H 0.50409 0.4158 0.21298 0.0
H842 H 0.5755 0.30296 0.27543 0.0
H843 H 0.53599 0.26638 0.25733 0.0
H844 H 0.61213 0.36507 0.28488 0.0
H845 H 0.62497 0.4171 0.2789 0.0
C846 C 0.46626 0.29658 0.99322 0.0
C847 C 0.49854 0.3316 0.98126 0.0
C848 C 0.5144 0.28581 0.95784 0.0
C849 C 0.4914 0.2533 0.9744 0.0
N850 N 0.43752 0.22332 0.0045 0.0
N851 N 0.53318 0.35607 0.94406 0.0
C852 C 0.46349 0.2567 0.9905 0.0
C853 C 0.51567 0.32492 0.96058 0.0
N854 N 0.43933 0.30228 0.00727 0.0
N855 N 0.53703 0.27992 0.94069 0.0
H856 H 0.53182 0.38378 0.94573 0.0
H857 H 0.54475 0.35274 0.92796 0.0
H858 H 0.53487 0.25067 0.93799 0.0
H859 H 0.55835 0.30385 0.92966 0.0
H860 H 0.41339 0.27793 0.0158 0.0
H861 H 0.44126 0.33169 0.00848 0.0
H862 H 0.42041 0.22538 0.01854 0.0
H863 H 0.43317 0.19319 1.00219 0.0
C864 C 0.7147 0.24616 0.95057 0.0
C865 C 0.73408 0.23266 0.96721 0.0
C866 C 0.66507 0.17387 0.97802 0.0
C867 C 0.64667 0.19633 0.9679 0.0
N868 N 0.65263 0.2509 0.94145 0.0
N869 N 0.72998 0.17509 0.98933 0.0
C870 C 0.67071 0.23077 0.95252 0.0
C871 C 0.70978 0.19292 0.97812 0.0
N872 N 0.73857 0.27401 0.93343 0.0
N873 N 0.63957 0.13513 0.98785 0.0
H874 H 0.76268 0.18833 0.98807 0.0
H875 H 0.71499 0.14767 0.99936 0.0
H876 H 0.6067 0.12061 0.98718 0.0
H877 H 0.6504 0.11632 0.99525 0.0
H878 H 0.72589 0.28334 0.91987 0.0
H879 H 0.77049 0.2836 0.93145 0.0
H880 H 0.67002 0.27935 0.93248 0.0
H881 H 0.62043 0.24032 0.94219 0.0
C882 C 0.69623 0.35227 0.99739 0.0
C883 C 0.73808 0.37916 0.00532 0.0
C884 C 0.72005 0.43236 0.01737 0.0
C885 C 0.67863 0.40615 0.00859 0.0
N886 N 0.62995 0.34622 0.98535 0.0
N887 N 0.79246 0.44741 0.01891 0.0
C888 C 0.66747 0.36752 0.99715 0.0
C889 C 0.75093 0.42025 0.01383 0.0
N890 N 0.68379 0.31195 0.99042 0.0
N891 N 0.72913 0.4672 0.03051 0.0
H892 H 0.81572 0.439 0.01775 0.0
H893 H 0.80445 0.47927 0.0226 0.0
H894 H 0.70728 0.47687 0.03394 0.0
H895 H 0.75724 0.48468 0.0397 0.0
H896 H 0.6524 0.28915 0.9875 0.0
H897 H 0.70457 0.30039 0.9889 0.0
H898 H 0.62177 0.32002 0.97477 0.0
H899 H 0.60857 0.35712 0.98422 0.0
C900 C 0.35389 0.78759 0.76384 0.0
C901 C 0.34035 0.80481 0.78179 0.0
C902 C 0.40933 0.83542 0.80072 0.0
C903 C 0.41793 0.80848 0.7867 0.0
N904 N 0.40297 0.76424 0.75269 0.0
N905 N 0.36058 0.86072 0.80954 0.0
C906 C 0.39202 0.78697 0.76717 0.0
C907 C 0.37028 0.83435 0.79759 0.0
N908 N 0.33083 0.77283 0.74371 0.0
N909 N 0.43656 0.85891 0.81823 0.0
H910 H 0.33225 0.86041 0.80654 0.0
H911 H 0.38138 0.88489 0.82056 0.0
H912 H 0.46597 0.86144 0.82047 0.0
H913 H 0.4299 0.87524 0.83088 0.0
H914 H 0.33994 0.76146 0.72943 0.0
H915 H 0.30519 0.77701 0.74021 0.0
H916 H 0.38309 0.74346 0.73991 0.0
H917 H 0.43204 0.76554 0.7541 0.0
C918 C 0.24435 0.62699 0.76193 0.0
C919 C 0.21029 0.62072 0.77633 0.0
C920 C 0.19606 0.55 0.78654 0.0
C921 C 0.23559 0.56026 0.77667 0.0
N922 N 0.29648 0.60663 0.75316 0.0
N923 N 0.1497 0.57558 0.7998 0.0
C924 C 0.2589 0.59763 0.76313 0.0
C925 C 0.18417 0.58144 0.78737 0.0
N926 N 0.26333 0.66187 0.74781 0.0
N927 N 0.17067 0.51046 0.79545 0.0
H928 H 0.13981 0.59785 0.7997 0.0
H929 H 0.1317 0.54966 0.81057 0.0
H930 H 0.17915 0.48716 0.79478 0.0
H931 H 0.14025 0.49968 0.80171 0.0
H932 H 0.28671 0.66744 0.73557 0.0
H933 H 0.25271 0.68354 0.74699 0.0
H934 H 0.31758 0.63568 0.74572 0.0
H935 H 0.30759 0.58542 0.75301 0.0
C936 C 0.45301 0.58741 0.78528 0.0
C937 C 0.41915 0.57623 0.76966 0.0
C938 C 0.4438 0.65019 0.76128 0.0
C939 C 0.46952 0.66075 0.78172 0.0
N940 N 0.50773 0.64265 0.80936 0.0
N941 N 0.39808 0.59472 0.73394 0.0
C942 C 0.4778 0.63038 0.79219 0.0
C943 C 0.42054 0.6072 0.75436 0.0
N944 N 0.46004 0.55656 0.7937 0.0
N945 N 0.43852 0.68012 0.74991 0.0
H946 H 0.38131 0.56287 0.7292 0.0
H947 H 0.39923 0.61553 0.72107 0.0
H948 H 0.45592 0.7121 0.75392 0.0
H949 H 0.416 0.67314 0.73688 0.0
H950 H 0.48466 0.56193 0.80493 0.0
H951 H 0.44223 0.52548 0.78775 0.0
H952 H 0.51346 0.62196 0.81909 0.0
H953 H 0.52717 0.67434 0.81382 0.0
C954 C 0.51569 0.76372 0.01066 0.0
C955 C 0.48902 0.72319 0.02025 0.0
C956 C 0.45088 0.7497 0.04282 0.0
C957 C 0.47026 0.78649 0.02875 0.0
N958 N 0.5357 0.83788 0.01083 0.0
N959 N 0.45153 0.68654 0.05529 0.0
C960 C 0.50806 0.79695 0.01664 0.0
C961 C 0.46353 0.71918 0.0399 0.0
N962 N 0.54667 0.76949 0.99523 0.0
N963 N 0.41906 0.74327 0.05777 0.0
H964 H 0.46366 0.66615 0.05423 0.0
H965 H 0.4341 0.68295 0.07046 0.0
H966 H 0.41129 0.76672 0.06079 0.0
H967 H 0.40016 0.71487 0.06651 0.0
H968 H 0.5642 0.79697 0.98547 0.0
H969 H 0.55413 0.74583 0.99218 0.0
H970 H 0.5646 0.84762 0.00266 0.0
H971 H 0.53171 0.86258 0.01684 0.0
C972 C 0.20366 0.74061 0.01412 0.0
C973 C 0.19522 0.70363 0.02635 0.0
C974 C 0.2675 0.73765 0.0408 0.0
C975 C 0.27822 0.76925 0.0234 0.0
N976 N 0.25725 0.80753 0.99755 0.0
N977 N 0.21092 0.6767 0.0609 0.0
C978 C 0.24625 0.77346 0.01177 0.0
C979 C 0.22452 0.70574 0.0432 0.0
N980 N 0.17088 0.74317 0.00451 0.0
N981 N 0.29847 0.73616 0.05342 0.0
H982 H 0.17896 0.65435 0.06283 0.0
H983 H 0.23003 0.67731 0.07463 0.0
H984 H 0.33011 0.75961 0.05233 0.0
H985 H 0.29307 0.71127 0.06448 0.0
H986 H 0.17404 0.76963 0.99582 0.0
H987 H 0.13969 0.71922 0.00715 0.0
H988 H 0.2362 0.8109 0.98674 0.0
H989 H 0.28825 0.83262 0.99653 0.0
C990 C 0.24263 0.5374 0.98912 0.0
C991 C 0.23846 0.56824 1.00195 0.0
C992 C 0.30979 0.59689 0.01756 0.0
C993 C 0.31679 0.57234 1.00093 0.0
N994 N 0.29049 0.51706 0.97187 0.0
N995 N 0.26496 0.62433 0.03044 0.0
C996 C 0.28305 0.54098 0.98747 0.0
C997 C 0.27093 0.59661 0.01718 0.0
N998 N 0.20826 0.50564 0.97806 0.0
N999 N 0.34078 0.62069 0.0334 0.0
H1000 H 0.23583 0.6229 0.03155 0.0
H1001 H 0.28879 0.64925 0.03982 0.0
H1002 H 0.36926 0.62062 0.03397 0.0
H1003 H 0.33723 0.63753 0.04707 0.0
H1004 H 0.2082 0.48014 0.96994 0.0
H1005 H 0.17853 0.50293 0.9787 0.0
H1006 H 0.26877 0.49747 0.95936 0.0
H1007 H 0.31942 0.51811 0.97071 0.0
C1008 C 0.20951 0.47468 0.51873 0.0
C1009 C 0.21495 0.50696 0.53444 0.0
C1010 C 0.2818 0.51424 0.54719 0.0
C1011 C 0.2833 0.49595 0.52555 0.0
N1012 N 0.24484 0.44639 0.4949 0.0
N1013 N 0.24996 0.54905 0.56826 0.0
C1014 C 0.24541 0.47125 0.51292 0.0
C1015 C 0.24864 0.52307 0.55069 0.0
N1016 N 0.17086 0.44875 0.50912 0.0
N1017 N 0.31183 0.52329 0.56391 0.0
H1018 H 0.22473 0.5542 0.57126 0.0
H1019 H 0.27599 0.56599 0.57914 0.0
H1020 H 0.33411 0.51364 0.56223 0.0
H1021 H 0.3113 0.53526 0.58043 0.0
H1022 H 0.16449 0.42371 0.49798 0.0
H1023 H 0.1441 0.44967 0.51452 0.0
H1024 H 0.2198 0.43099 0.48322 0.0
H1025 H 0.27045 0.44196 0.49165 0.0
C1026 C 0.45254 0.69176 0.53641 0.0
C1027 C 0.46832 0.68011 0.51685 0.0
C1028 C 0.4884 0.74678 0.49728 0.0
C1029 C 0.46525 0.75459 0.51455 0.0
N1030 N 0.43677 0.74317 0.55375 0.0
N1031 N 0.52155 0.70592 0.48668 0.0
C1032 C 0.4515 0.73003 0.53541 0.0
C1033 C 0.49327 0.71091 0.49991 0.0
N1034 N 0.4377 0.6653 0.55536 0.0
N1035 N 0.50307 0.77173 0.47773 0.0
H1036 H 0.52793 0.68161 0.48996 0.0
H1037 H 0.54234 0.72857 0.47487 0.0
H1038 H 0.50065 0.79873 0.47549 0.0
H1039 H 0.51564 0.76442 0.46325 0.0
H1040 H 0.42305 0.66967 0.56988 0.0
H1041 H 0.44132 0.63879 0.55658 0.0
H1042 H 0.42607 0.72714 0.56961 0.0
H1043 H 0.43725 0.77192 0.55344 0.0
C1044 C 0.3051 0.7454 0.56 0.0
C1045 C 0.3098 0.77932 0.546 0.0
C1046 C 0.23901 0.73575 0.53021 0.0
C1047 C 0.23997 0.69977 0.53864 0.0
N1048 N 0.26963 0.66941 0.56487 0.0
N1049 N 0.27404 0.81259 0.52898 0.0
C1050 C 0.27091 0.70429 0.5553 0.0
C1051 C 0.2739 0.77643 0.53498 0.0
N1052 N 0.33394 0.75294 0.57723 0.0
N1053 N 0.20598 0.73052 0.51661 0.0
H1054 H 0.29925 0.84218 0.53356 0.0
H1055 H 0.24841 0.81335 0.52163 0.0
H1056 H 0.17944 0.70086 0.51386 0.0
H1057 H 0.205 0.75502 0.5079 0.0
H1058 H 0.33154 0.73019 0.58912 0.0
H1059 H 0.35818 0.78358 0.58087 0.0
H1060 H 0.29397 0.67045 0.57484 0.0
H1061 H 0.24448 0.63895 0.56227 0.0
C1062 C 0.23937 0.65477 0.28599 0.0
C1063 C 0.22268 0.66641 0.30515 0.0
C1064 C 0.18405 0.59322 0.31869 0.0
C1065 C 0.20833 0.58399 0.30296 0.0
N1066 N 0.25415 0.6022 0.26948 0.0
N1067 N 0.17607 0.64776 0.33835 0.0
C1068 C 0.23371 0.61344 0.28551 0.0
C1069 C 0.1932 0.63564 0.32077 0.0
N1070 N 0.26166 0.68374 0.26888 0.0
N1071 N 0.15357 0.56176 0.33213 0.0
H1072 H 0.18081 0.67832 0.33942 0.0
H1073 H 0.15841 0.62832 0.3522 0.0
H1074 H 0.14633 0.53045 0.33081 0.0
H1075 H 0.13298 0.56573 0.34301 0.0
H1076 H 0.27313 0.67704 0.25373 0.0
H1077 H 0.26598 0.71415 0.26905 0.0
H1078 H 0.27694 0.62306 0.25779 0.0
H1079 H 0.24852 0.57132 0.26829 0.0
C1080 C 0.37756 0.52932 0.29371 0.0
C1081 C 0.34033 0.5268 0.2847 0.0
C1082 C 0.38193 0.59059 0.26168 0.0
C1083 C 0.4172 0.59852 0.27557 0.0
N1084 N 0.45433 0.56646 0.29272 0.0
N1085 N 0.30962 0.54027 0.25067 0.0
C1086 C 0.41708 0.56445 0.28736 0.0
C1087 C 0.34332 0.55233 0.26523 0.0
N1088 N 0.37457 0.4994 0.30914 0.0
N1089 N 0.38514 0.62081 0.2464 0.0
H1090 H 0.28258 0.51063 0.25205 0.0
H1091 H 0.31033 0.5571 0.23574 0.0
H1092 H 0.41417 0.64782 0.243 0.0
H1093 H 0.35953 0.61951 0.23765 0.0
H1094 H 0.40016 0.50165 0.3184 0.0
H1095 H 0.34563 0.47242 0.31277 0.0
H1096 H 0.45636 0.54185 0.30061 0.0
H1097 H 0.48306 0.5913 0.28674 0.0
C1098 C 0.38297 0.79296 0.26667 0.0
C1099 C 0.38922 0.8251 0.28263 0.0
C1100 C 0.45433 0.82966 0.29653 0.0
C1101 C 0.44099 0.78997 0.28588 0.0
N1102 N 0.39804 0.73703 0.25746 0.0
N1103 N 0.44032 0.88753 0.30247 0.0
C1104 C 0.40765 0.77321 0.26929 0.0
C1105 C 0.42867 0.84839 0.29392 0.0
N1106 N 0.35313 0.78141 0.24954 0.0
N1107 N 0.4896 0.84748 0.31031 0.0
H1108 H 0.42146 0.90114 0.29978 0.0
H1109 H 0.46937 0.90745 0.31024 0.0
H1110 H 0.50927 0.83455 0.31174 0.0
H1111 H 0.49905 0.87438 0.32046 0.0
H1112 H 0.34789 0.75932 0.23654 0.0
H1113 H 0.3365 0.79747 0.24725 0.0
H1114 H 0.37119 0.72039 0.24714 0.0
H1115 H 0.41689 0.72314 0.25855 0.0
C1116 C 0.07841 0.07862 0.27013 0.0
C1117 C 0.11252 0.10317 0.28552 0.0
C1118 C 0.1613 0.09658 0.2587 0.0
C1119 C 0.12843 0.07728 0.24191 0.0
N1120 N 0.05638 0.05311 0.23039 0.0
N1121 N 0.18682 0.13713 0.29464 0.0
C1122 C 0.08694 0.06855 0.24737 0.0
C1123 C 0.15411 0.1126 0.27986 0.0
N1124 N 0.03794 0.0652 0.2772 0.0
N1125 N 0.1989 0.09806 0.25475 0.0
H1126 H 0.18261 0.14715 0.31106 0.0
H1127 H 0.21842 0.14955 0.29014 0.0
H1128 H 0.20472 0.08539 0.23974 0.0
H1129 H 0.22282 0.108 0.26722 0.0
H1130 H 0.01155 0.04326 0.2679 0.0
H1131 H 0.03056 0.07355 0.2933 0.0
H1132 H 0.02697 0.05068 0.23245 0.0
H1133 H 0.06133 0.0456 0.21346 0.0
C1134 C 0.91708 0.01208 0.26815 0.0
C1135 C 0.90083 -0.00551 0.24575 0.0
C1136 C 0.85842 0.92419 0.26329 0.0
C1137 C 0.87458 0.94194 0.28562 0.0
N1138 N 0.92669 -0.0007 0.3089 0.0
N1139 N 0.86355 0.93346 0.2209 0.0
C1140 C 0.90643 0.98484 0.28787 0.0
C1141 C 0.87385 0.95031 0.24298 0.0
N1142 N 0.94047 0.05491 0.27085 0.0
N1143 N 0.82712 0.88292 0.26169 0.0
H1144 H 0.875 0.95169 0.20567 0.0
H1145 H 0.84652 0.90122 0.21761 0.0
H1146 H 0.81638 0.8627 0.27618 0.0
H1147 H 0.81029 0.86914 0.24637 0.0
H1148 H 0.94884 0.06978 0.28715 0.0
H1149 H 0.94922 0.07606 0.25683 0.0
H1150 H 0.95278 0.02925 0.31125 0.0
H1151 H 0.92007 0.9797 0.32349 0.0
C1152 C 0.97957 0.91136 0.28559 0.0
C1153 C 0.98868 0.88106 0.29545 0.0
C1154 C 0.95059 0.83247 0.26328 0.0
C1155 C 0.94685 0.8647 0.25172 0.0
N1156 N 0.9608 0.93639 0.25052 0.0
N1157 N -0.00891 0.81658 0.29053 0.0
C1158 C 0.96192 0.90462 0.26254 0.0
C1159 C 0.97624 0.84252 0.28352 0.0
N1160 N 0.98658 0.94581 0.29844 0.0
N1161 N 0.92893 0.79192 0.25513 0.0
H1162 H 0.01232 0.82378 0.30434 0.0
H1163 H 0.98625 0.79029 0.28092 0.0
H1164 H 0.90872 0.78306 0.24067 0.0
H1165 H 0.92736 0.76645 0.26424 0.0
H1166 H 0.97755 0.96724 0.29292 0.0
H1167 H -0.00171 0.95114 0.31557 0.0
H1168 H 0.97544 0.96748 0.25638 0.0
H1169 H 0.94752 0.93224 0.23383 0.0
C1170 C 0.85184 0.85464 0.74584 0.0
C1171 C 0.88869 0.88362 0.73338 0.0
C1172 C 0.91114 0.93171 0.7672 0.0
C1173 C 0.87179 0.90479 0.77825 0.0
N1174 N 0.80058 0.84607 0.77522 0.0
N1175 N 0.95078 0.95286 0.73068 0.0
C1176 C 0.84092 0.86786 0.76672 0.0
C1177 C 0.91779 0.92308 0.74363 0.0
N1178 N 0.82828 0.81372 0.73847 0.0
N1179 N 0.94262 0.96447 0.77942 0.0
H1180 H 0.95634 0.94805 0.71329 0.0
H1181 H 0.97053 0.98362 0.73649 0.0
H1182 H 0.93893 0.97167 0.79668 0.0
H1183 H 0.97341 0.98225 0.77316 0.0
H1184 H 0.80343 0.79049 0.74828 0.0
H1185 H 0.83651 0.80169 0.72408 0.0
H1186 H 0.77595 0.82124 0.76613 0.0
H1187 H 0.79062 0.85572 0.78994 0.0
C1188 C 0.07399 0.01799 0.75965 0.0
C1189 C 0.058 0.9739 0.75817 0.0
C1190 C 0.05956 0.97784 0.71515 0.0
C1191 C 0.08186 0.0226 0.71679 0.0
N1192 N 0.10927 0.086 0.7399 0.0
N1193 N 0.0338 0.91064 0.73528 0.0
C1194 C 0.0883 0.04289 0.73886 0.0
C1195 C 0.04936 0.95329 0.7361 0.0
N1196 N 0.07497 0.03569 0.78099 0.0
N1197 N 0.04913 0.95893 0.69357 0.0
H1198 H 0.02478 0.89166 0.75027 0.0
H1199 H 0.03138 0.89393 0.72003 0.0
H1200 H 0.05706 0.97566 0.6778 0.0
H1201 H 0.03031 0.92661 0.69117 0.0
H1202 H 0.08296 0.06704 0.78326 0.0
H1203 H 0.06418 0.01787 0.7964 0.0
H1204 H 0.11939 0.10315 0.75546 0.0
H1205 H 0.11801 0.10495 0.72488 0.0
C1206 C 0.92414 0.08089 0.74983 0.0
C1207 C 0.94507 0.08967 0.72785 0.0
C1208 C 0.01409 0.12322 0.74739 0.0
C1209 C -0.00669 0.11865 0.76917 0.0
N1210 N 0.92961 0.09097 0.79225 0.0
N1211 N 0.0085 0.11533 0.70484 0.0
C1212 C 0.94853 0.0965 0.77074 0.0
C1213 C 0.9897 0.10935 0.72641 0.0
N1214 N 0.88102 0.05752 0.75055 0.0
N1215 N 0.0571 0.14127 0.74685 0.0
H1216 H -0.00866 0.1031 0.68939 0.0
H1217 H 0.04081 0.13267 0.70182 0.0
H1218 H 0.07602 0.15311 0.76176 0.0
H1219 H 0.07452 0.14345 0.73196 0.0
H1220 H 0.86327 0.04722 0.7659 0.0
H1221 H 0.8625 0.04618 0.73545 0.0
H1222 H 0.89745 0.0788 0.7948 0.0
H1223 H 0.94643 0.09936 0.80802 0.0
C1224 C 0.86231 0.53776 0.57297 0.0
C1225 C 0.83245 0.50239 0.55988 0.0
C1226 C 0.79462 0.46787 0.596 0.0
C1227 C 0.82183 0.50494 0.60879 0.0
N1228 N 0.87683 0.57812 0.60893 0.0
N1229 N 0.76486 0.4381 0.5581 0.0
C1230 C 0.8545 0.54076 0.59717 0.0
C1231 C 0.79706 0.4686 0.57115 0.0
N1232 N 0.8988 0.5677 0.56255 0.0
N1233 N 0.76753 0.43142 0.6076 0.0
H1234 H 0.76463 0.43832 0.53978 0.0
H1235 H 0.7364 0.41514 0.56539 0.0
H1236 H 0.76569 0.42907 0.62589 0.0
H1237 H 0.75008 0.40244 0.59917 0.0
H1238 H 0.92371 0.59174 0.57188 0.0
H1239 H 0.90581 0.56645 0.54489 0.0
H1240 H 0.89793 0.60639 0.6007 0.0
H1241 H 0.87145 0.58177 0.62654 0.0
C1242 C 0.57314 0.32299 0.56663 0.0
C1243 C 0.54473 0.30158 0.54794 0.0
C1244 C 0.49993 0.24267 0.57419 0.0
C1245 C 0.52742 0.26489 0.59302 0.0
N1246 N 0.59529 0.31948 0.60645 0.0
N1247 N 0.48787 0.23729 0.53203 0.0
C1248 C 0.56587 0.30287 0.58893 0.0
C1249 C 0.51029 0.26006 0.55115 0.0
N1250 N 0.60533 0.36352 0.56353 0.0
N1251 N 0.46301 0.20607 0.57857 0.0
H1252 H 0.49533 0.24902 0.51491 0.0
H1253 H 0.46449 0.20569 0.53283 0.0
H1254 H 0.45534 0.19172 0.59509 0.0
H1255 H 0.43906 0.19089 0.56624 0.0
H1256 H 0.62425 0.38254 0.57716 0.0
H1257 H 0.61165 0.37927 0.54745 0.0
H1258 H 0.62565 0.3449 0.60406 0.0
H1259 H 0.59064 0.30506 0.62289 0.0
C1260 C 0.63184 0.25178 0.59618 0.0
C1261 C 0.5933 0.21479 0.59051 0.0
C1262 C 0.58537 0.1906 0.63129 0.0
C1263 C 0.62512 0.22649 0.63658 0.0
N1264 N 0.67942 0.29684 0.62673 0.0
N1265 N 0.52774 0.15547 0.60343 0.0
C1266 C 0.64607 0.25904 0.61984 0.0
C1267 C 0.56797 0.18657 0.60843 0.0
N1268 N 0.65559 0.27902 0.57871 0.0
N1269 N 0.56581 0.15889 0.64745 0.0
H1270 H 0.51447 0.15138 0.58675 0.0
H1271 H 0.5062 0.13642 0.61621 0.0
H1272 H 0.57707 0.16065 0.66447 0.0
H1273 H 0.5397 0.12965 0.64361 0.0
H1274 H 0.68615 0.30404 0.58111 0.0
H1275 H 0.64519 0.27524 0.56138 0.0
H1276 H 0.6939 0.32336 0.61594 0.0
H1277 H 0.69 0.30276 0.64411 0.0
C1278 C 0.49242 0.16135 0.0816 0.0
C1279 C 0.5239 0.19396 0.06753 0.0
C1280 C 0.55292 0.23828 0.10262 0.0
C1281 C 0.51882 0.20728 0.11612 0.0
N1282 N 0.44984 0.14456 0.11672 0.0
N1283 N 0.57814 0.26723 0.0638 0.0
C1284 C 0.48669 0.17033 0.10511 0.0
C1285 C 0.55253 0.23358 0.07777 0.0
N1286 N 0.46923 0.12122 0.07302 0.0
N1287 N 0.58654 0.27123 0.11349 0.0
H1288 H 0.57775 0.26562 0.04549 0.0
H1289 H 0.59652 0.29779 0.07026 0.0
H1290 H 0.5885 0.27548 0.13166 0.0
H1291 H 0.6142 0.29207 0.10465 0.0
H1292 H 0.44886 0.0956 0.08346 0.0
H1293 H 0.47364 0.11248 0.05628 0.0
H1294 H 0.4239 0.11943 0.10863 0.0
H1295 H 0.44331 0.15111 0.13354 0.0
C1296 C 0.85354 0.3431 0.09348 0.0
C1297 C 0.83288 0.30793 0.07822 0.0
C1298 C 0.81329 0.26035 0.11205 0.0
C1299 C 0.82698 0.29546 0.12729 0.0
N1300 N 0.85568 0.37058 0.13237 0.0
N1301 N 0.78901 0.2325 0.07304 0.0
C1302 C 0.84647 0.33705 0.11805 0.0
C1303 C 0.81211 0.26627 0.08743 0.0
N1304 N 0.88031 0.38226 0.08447 0.0
N1305 N 0.80209 0.2215 0.12108 0.0
H1306 H 0.78665 0.23519 0.05494 0.0
H1307 H 0.76929 0.20204 0.07933 0.0
H1308 H 0.80351 0.2163 0.13902 0.0
H1309 H 0.7957 0.19559 0.11064 0.0
H1310 H 0.89936 0.40833 0.09494 0.0
H1311 H 0.88678 0.38767 0.06653 0.0
H1312 H 0.86542 0.4008 0.12601 0.0
H1313 H 0.84995 0.36773 0.1504 0.0
C1314 C 0.62968 0.49389 0.1271 0.0
C1315 C 0.62803 0.46039 0.14055 0.0
C1316 C 0.60035 0.41324 0.10659 0.0
C1317 C 0.59998 0.44618 0.09354 0.0
N1318 N 0.6032 0.51357 0.09324 0.0
N1319 N 0.60176 0.38577 0.14516 0.0
C1320 C 0.61112 0.48518 0.10443 0.0
C1321 C 0.61018 0.41924 0.13094 0.0
N1322 N 0.65111 0.53445 0.13526 0.0
N1323 N 0.59384 0.37727 0.09558 0.0
H1324 H 0.60777 0.38892 0.1632 0.0
H1325 H 0.58495 0.35449 0.13956 0.0
H1326 H 0.58728 0.37164 0.07769 0.0
H1327 H 0.59856 0.35454 0.10379 0.0
H1328 H 0.65713 0.56048 0.12499 0.0
H1329 H 0.66645 0.54276 0.15146 0.0
H1330 H 0.60699 0.54084 0.10126 0.0
H1331 H 0.58852 0.50758 0.07685 0.0
C1332 C 0.40959 0.80265 0.90774 0.0
C1333 C 0.42173 0.79101 0.92886 0.0
C1334 C 0.45999 0.76356 0.90633 0.0
C1335 C 0.44683 0.7742 0.8852 0.0
N1336 N 0.40047 0.79339 0.86554 0.0
N1337 N 0.45021 0.75231 0.94849 0.0
C1338 C 0.41894 0.79055 0.88584 0.0
C1339 C 0.44439 0.76891 0.92822 0.0
N1340 N 0.39102 0.82707 0.90852 0.0
N1341 N 0.48896 0.75039 0.9056 0.0
H1342 H 0.43905 0.75549 0.96481 0.0
H1343 H 0.46266 0.73223 0.94888 0.0
H1344 H 0.50108 0.74599 0.88995 0.0
H1345 H 0.50336 0.74674 0.9205 0.0
H1346 H 0.38605 0.84068 0.89366 0.0
H1347 H 0.38361 0.83668 0.92419 0.0
H1348 H 0.37679 0.80126 0.86514 0.0
H1349 H 0.40572 0.78371 0.84926 0.0
C1350 C 0.17935 0.68787 0.91479 0.0
C1351 C 0.16272 0.64378 0.91771 0.0
C1352 C 0.16992 0.63616 0.87549 0.0
C1353 C 0.18273 0.67941 0.87227 0.0
N1354 N 0.19232 0.74477 0.88808 0.0
N1355 N 0.1343 0.57456 0.90055 0.0
C1356 C 0.18536 0.70485 0.89171 0.0
C1357 C 0.1557 0.61748 0.89796 0.0
N1358 N 0.19139 0.71386 0.93396 0.0
N1359 N 0.17329 0.61341 0.85741 0.0
H1360 H 0.12272 0.55965 0.9167 0.0
H1361 H 0.12447 0.55375 0.88639 0.0
H1362 H 0.18479 0.62622 0.84084 0.0
H1363 H 0.16865 0.58309 0.85946 0.0
H1364 H 0.20794 0.74666 0.93274 0.0
H1365 H 0.1884 0.70294 0.95119 0.0
H1366 H 0.19009 0.76313 0.90137 0.0
H1367 H 0.19649 0.75817 0.87139 0.0
C1368 C 0.40514 0.57889 0.86768 0.0
C1369 C 0.36129 0.5637 0.86482 0.0
C1370 C 0.35595 0.58163 0.90568 0.0
C1371 C 0.3996 0.59603 0.90863 0.0
N1372 N 0.46769 0.61667 0.8921 0.0
N1373 N 0.29624 0.55709 0.87915 0.0
C1374 C 0.42487 0.5974 0.88944 0.0
C1375 C 0.33713 0.56734 0.88321 0.0
N1376 N 0.42761 0.57472 0.84972 0.0
N1377 N 0.33234 0.58049 0.92462 0.0
H1378 H 0.2808 0.54469 0.86325 0.0
H1379 H 0.27818 0.56317 0.89092 0.0
H1380 H 0.34559 0.59332 0.94091 0.0
H1381 H 0.29956 0.56547 0.92464 0.0
H1382 H 0.45828 0.58032 0.85142 0.0
H1383 H 0.41476 0.56357 0.83314 0.0
H1384 H 0.48861 0.62245 0.87832 0.0
H1385 H 0.48279 0.62996 0.90797 0.0
C1386 C 0.23696 0.5378 0.4384 0.0
C1387 C 0.22148 0.56643 0.43909 0.0
C1388 C 0.22834 0.57424 0.39632 0.0
C1389 C 0.23715 0.54068 0.39542 0.0
N1390 N 0.24782 0.48848 0.41518 0.0
N1391 N 0.19857 0.60935 0.41865 0.0
C1392 C 0.24138 0.52214 0.41636 0.0
C1393 C 0.21665 0.58449 0.41807 0.0
N1394 N 0.24857 0.52658 0.4588 0.0
N1395 N 0.23186 0.59673 0.37639 0.0
H1396 H 0.18925 0.61751 0.43416 0.0
H1397 H 0.18968 0.6192 0.40361 0.0
H1398 H 0.24095 0.59034 0.36023 0.0
H1399 H 0.22988 0.62414 0.37631 0.0
H1400 H 0.26409 0.50931 0.45922 0.0
H1401 H 0.24658 0.53821 0.47522 0.0
H1402 H 0.2462 0.47045 0.42975 0.0
H1403 H 0.25204 0.47671 0.39934 0.0
C1404 C 0.39369 0.64296 0.39068 0.0
C1405 C 0.43055 0.6486 0.37911 0.0
C1406 C 0.44794 0.61933 0.41315 0.0
C1407 C 0.40844 0.60839 0.42345 0.0
N1408 N 0.34196 0.60699 0.42161 0.0
N1409 N 0.48974 0.63646 0.3778 0.0
C1410 C 0.38087 0.61972 0.4122 0.0
C1411 C 0.45657 0.6348 0.38981 0.0
N1412 N 0.37093 0.65955 0.38103 0.0
N1413 N 0.47862 0.6179 0.42621 0.0
H1414 H 0.49888 0.64936 0.36104 0.0
H1415 H 0.50629 0.62197 0.38379 0.0
H1416 H 0.47508 0.6097 0.44396 0.0
H1417 H 0.50948 0.62982 0.42031 0.0
H1418 H 0.34637 0.66054 0.38966 0.0
H1419 H 0.37834 0.67489 0.36479 0.0
H1420 H 0.319 0.61126 0.41339 0.0
H1421 H 0.33138 0.58937 0.43706 0.0
C1422 C 0.35719 0.84307 0.42925 0.0
C1423 C 0.37582 0.81875 0.436 0.0
C1424 C 0.36245 0.78732 0.39669 0.0
C1425 C 0.33918 0.80772 0.39106 0.0
N1426 N 0.30737 0.84845 0.40368 0.0
N1427 N 0.39139 0.76339 0.42749 0.0
C1428 C 0.33472 0.83394 0.40777 0.0
C1429 C 0.37733 0.78974 0.42007 0.0
N1430 N 0.36209 0.87583 0.44303 0.0
N1431 N 0.37172 0.76704 0.37955 0.0
H1432 H 0.40268 0.76434 0.44445 0.0
H1433 H 0.38871 0.73836 0.41745 0.0
H1434 H 0.36218 0.76531 0.36211 0.0
H1435 H 0.39215 0.75532 0.3821 0.0
H1436 H 0.35286 0.89728 0.43775 0.0
H1437 H 0.37933 0.88433 0.45865 0.0
H1438 H 0.29969 0.86408 0.41632 0.0
H1439 H 0.28891 0.84106 0.38856 0.0
C1440 C 0.30989 0.08676 0.1707 0.0
C1441 C 0.28703 0.10447 0.18099 0.0
C1442 C 0.35167 0.16222 0.1978 0.0
C1443 C 0.37461 0.14444 0.18765 0.0
N1444 N 0.3763 0.0872 0.16766 0.0
N1445 N 0.28345 0.15325 0.20811 0.0
C1446 C 0.35386 0.10565 0.17523 0.0
C1447 C 0.30714 0.14056 0.19565 0.0
N1448 N 0.28982 0.05308 0.15581 0.0
N1449 N 0.37262 0.20021 0.20917 0.0
H1450 H 0.25069 0.13836 0.20686 0.0
H1451 H 0.29563 0.17632 0.22111 0.0
H1452 H 0.40488 0.2155 0.21277 0.0
H1453 H 0.35857 0.21769 0.21413 0.0
H1454 H 0.30527 0.04133 0.14566 0.0
H1455 H 0.25749 0.03817 0.15244 0.0
H1456 H 0.36257 0.05703 0.16052 0.0
H1457 H 0.40881 0.10095 0.16991 0.0
C1458 C 0.92164 0.20799 0.19816 0.0
C1459 C 0.90265 0.16977 0.2111 0.0
C1460 C 0.85778 0.19052 0.23212 0.0
C1461 C 0.87341 0.22645 0.21736 0.0
N1462 N 0.92771 0.27641 0.19155 0.0
N1463 N 0.86187 0.129 0.24438 0.0
C1464 C 0.90829 0.23777 0.20228 0.0
C1465 C 0.87402 0.1627 0.22964 0.0
N1466 N 0.95106 0.21472 0.18131 0.0
N1467 N 0.826 0.18232 0.24761 0.0
H1468 H 0.87284 0.10776 0.24261 0.0
H1469 H 0.84334 0.12349 0.25928 0.0
H1470 H 0.8155 0.20373 0.25055 0.0
H1471 H 0.80951 0.15445 0.25716 0.0
H1472 H 0.96281 0.23946 0.16928 0.0
H1473 H 0.96304 0.19442 0.17887 0.0
H1474 H 0.95509 0.28796 0.18156 0.0
H1475 H 0.91843 0.29874 0.19425 0.0
C1476 C 0.78603 0.69142 0.21105 0.0
C1477 C 0.82132 0.70388 0.19598 0.0
C1478 C 0.80535 0.6308 0.19394 0.0
C1479 C 0.76609 0.61761 0.20519 0.0
N1480 N 0.71612 0.63559 0.22154 0.0
N1481 N 0.85982 0.68376 0.16937 0.0
C1482 C 0.75558 0.64792 0.21312 0.0
C1483 C 0.82989 0.67318 0.18646 0.0
N1484 N 0.78233 0.72075 0.2241 0.0
N1485 N 0.81978 0.60313 0.19096 0.0
H1486 H 0.87706 0.71402 0.16227 0.0
H1487 H 0.86415 0.6614 0.16038 0.0
H1488 H 0.80369 0.57226 0.19737 0.0
H1489 H 0.84992 0.61231 0.18468 0.0
H1490 H 0.75919 0.71263 0.23694 0.0
H1491 H 0.80503 0.75274 0.22407 0.0
H1492 H 0.70577 0.65685 0.22514 0.0
H1493 H 0.69242 0.60411 0.22291 0.0
C1494 C 0.16672 0.34011 0.31511 0.0
C1495 C 0.17143 0.36594 0.33475 0.0
C1496 C 0.14232 0.30454 0.36092 0.0
C1497 C 0.1364 0.27853 0.34118 0.0
N1498 N 0.13582 0.26951 0.29907 0.0
N1499 N 0.15612 0.37272 0.37522 0.0
C1500 C 0.14601 0.29565 0.3181 0.0
C1501 C 0.15704 0.34814 0.35737 0.0
N1502 N 0.18447 0.35818 0.29396 0.0
N1503 N 0.13424 0.28761 0.38306 0.0
H1504 H 0.16592 0.40465 0.37309 0.0
H1505 H 0.14221 0.36091 0.39151 0.0
H1506 H 0.12082 0.25534 0.38626 0.0
H1507 H 0.14286 0.30566 0.39834 0.0
H1508 H 0.1866 0.3414 0.27978 0.0
H1509 H 0.20025 0.39066 0.29102 0.0
H1510 H 0.13737 0.27965 0.2818 0.0
H1511 H 0.12293 0.23695 0.30046 0.0
C1512 C 0.6354 0.80188 0.3107 0.0
C1513 C 0.60655 0.77306 0.3274 0.0
C1514 C 0.66452 0.79041 0.35496 0.0
C1515 C 0.69357 0.81647 0.33751 0.0
N1516 N 0.70802 0.84416 0.2979 0.0
N1517 N 0.59367 0.73434 0.36377 0.0
C1518 C 0.67942 0.82112 0.31505 0.0
C1519 C 0.62106 0.76598 0.34917 0.0
N1520 N 0.62069 0.81278 0.29136 0.0
N1521 N 0.67846 0.78891 0.37707 0.0
H1522 H 0.56175 0.71517 0.35999 0.0
H1523 H 0.60304 0.72446 0.3786 0.0
H1524 H 0.71031 0.80409 0.38162 0.0
H1525 H 0.65838 0.77482 0.39134 0.0
H1526 H 0.63998 0.83705 0.27989 0.0
H1527 H 0.58867 0.80025 0.28782 0.0
H1528 H 0.69982 0.84416 0.28037 0.0
H1529 H 0.74049 0.86148 0.30078 0.0
C1530 C 0.13208 0.82837 0.32495 0.0
C1531 C 0.14085 0.85993 0.34204 0.0
C1532 C 0.21094 0.86895 0.34884 0.0
C1533 C 0.20261 0.83838 0.33124 0.0
N1534 N 0.15941 0.79413 0.29965 0.0
N1535 N 0.19066 0.91604 0.36705 0.0
C1536 C 0.16444 0.81976 0.31833 0.0
C1537 C 0.18087 0.88186 0.35314 0.0
N1538 N 0.09226 0.80537 0.31589 0.0
N1539 N 0.24724 0.88493 0.36177 0.0
H1540 H 0.16945 0.92649 0.37061 0.0
H1541 H 0.22077 0.93616 0.37359 0.0
H1542 H 0.27116 0.87818 0.3581 0.0
H1543 H 0.25279 0.90309 0.37684 0.0
H1544 H 0.08254 0.77904 0.3052 0.0
H1545 H 0.06767 0.81055 0.32055 0.0
H1546 H 0.13413 0.78286 0.28801 0.0
H1547 H 0.18241 0.78681 0.2946 0.0
C1548 C 0.68831 0.89315 0.8424 0.0
C1549 C 0.70999 0.8708 0.83824 0.0
C1550 C 0.64431 0.80795 0.82635 0.0
C1551 C 0.62278 0.83081 0.82958 0.0
N1552 N 0.62349 0.89558 0.83865 0.0
N1553 N 0.71131 0.80969 0.82353 0.0
C1554 C 0.64461 0.87366 0.83691 0.0
C1555 C 0.6887 0.82885 0.82957 0.0
N1556 N 0.70933 0.93241 0.85238 0.0
N1557 N 0.62224 0.76621 0.82019 0.0
H1558 H 0.74377 0.82359 0.82613 0.0
H1559 H 0.69872 0.7812 0.81451 0.0
H1560 H 0.59039 0.75064 0.81562 0.0
H1561 H 0.63481 0.74625 0.82057 0.0
H1562 H 0.6948 0.94896 0.85818 0.0
H1563 H 0.74147 0.94767 0.85635 0.0
H1564 H 0.6382 0.92802 0.84126 0.0
H1565 H 0.59098 0.88171 0.83632 0.0
C1566 C 0.10668 0.76876 0.80641 0.0
C1567 C 0.1469 0.78743 0.79546 0.0
C1568 C 0.14691 0.85375 0.7901 0.0
C1569 C 0.10701 0.83532 0.80138 0.0
N1570 N 0.04459 0.77358 0.81578 0.0
N1571 N 0.20111 0.84309 0.7722 0.0
C1572 C 0.0853 0.79209 0.80787 0.0
C1573 C 0.1657 0.82859 0.78581 0.0
N1574 N 0.09029 0.72999 0.81687 0.0
N1575 N 0.16704 0.89548 0.78391 0.0
H1576 H 0.21514 0.82492 0.76856 0.0
H1577 H 0.21456 0.87135 0.76287 0.0
H1578 H 0.15298 0.91413 0.78534 0.0
H1579 H 0.19826 0.91225 0.77828 0.0
H1580 H 0.06382 0.71701 0.82772 0.0
H1581 H 0.10465 0.71159 0.81602 0.0
H1582 H 0.02551 0.7412 0.81827 0.0
H1583 H 0.02856 0.79014 0.81825 0.0
C1584 C 0.17486 0.365 0.80168 0.0
C1585 C 0.21761 0.37768 0.8066 0.0
C1586 C 0.19681 0.30699 0.82133 0.0
C1587 C 0.15416 0.29421 0.81611 0.0
N1588 N 0.10279 0.30746 0.79746 0.0
N1589 N 0.27077 0.3603 0.81745 0.0
C1590 C 0.14319 0.32224 0.80523 0.0
C1591 C 0.22908 0.3484 0.81514 0.0
N1592 N 0.16462 0.39404 0.79373 0.0
N1593 N 0.20613 0.28018 0.83326 0.0
H1594 H 0.29521 0.39088 0.81406 0.0
H1595 H 0.28145 0.33937 0.82114 0.0
H1596 H 0.18333 0.24958 0.83805 0.0
H1597 H 0.23585 0.28894 0.83995 0.0
H1598 H 0.13387 0.38853 0.79281 0.0
H1599 H 0.18721 0.42465 0.78885 0.0
H1600 H 0.09357 0.32498 0.78719 0.0
H1601 H 0.07876 0.27626 0.79973 0.0
C1602 C 0.82053 0.64917 0.69817 0.0
C1603 C 0.84561 0.63345 0.68842 0.0
C1604 C 0.89726 0.70447 0.67483 0.0
C1605 C 0.86906 0.71852 0.68151 0.0
N1606 N 0.80316 0.70502 0.69856 0.0
N1607 N 0.90595 0.64492 0.66524 0.0
C1608 C 0.8305 0.69112 0.69299 0.0
C1609 C 0.88387 0.66084 0.67646 0.0
N1610 N 0.78786 0.62417 0.71289 0.0
N1611 N 0.93676 0.73278 0.6668 0.0
H1612 H 0.89773 0.61329 0.6659 0.0
H1613 H 0.9308 0.66249 0.65371 0.0
H1614 H 0.94711 0.76477 0.66438 0.0
H1615 H 0.96041 0.72527 0.66427 0.0
H1616 H 0.77067 0.63487 0.72231 0.0
H1617 H 0.78055 0.59363 0.71748 0.0
H1618 H 0.77249 0.68526 0.70451 0.0
H1619 H 0.81018 0.73607 0.69585 0.0
C1620 C 0.33636 0.16371 0.67787 0.0
C1621 C 0.36203 0.1941 0.66086 0.0
C1622 C 0.29969 0.18769 0.64108 0.0
C1623 C 0.27397 0.15783 0.65834 0.0
N1624 N 0.26678 0.12086 0.69483 0.0
N1625 N 0.37035 0.2401 0.62849 0.0
C1626 C 0.29204 0.1471 0.67735 0.0
C1627 C 0.34433 0.20773 0.64313 0.0
N1628 N 0.35437 0.1497 0.69399 0.0
N1629 N 0.28128 0.19622 0.62255 0.0
H1630 H 0.40319 0.25476 0.62927 0.0
H1631 H 0.35986 0.25447 0.61661 0.0
H1632 H 0.24876 0.18384 0.62121 0.0
H1633 H 0.29777 0.21393 0.60793 0.0
H1634 H 0.3373 0.12392 0.70501 0.0
H1635 H 0.38691 0.16247 0.69557 0.0
H1636 H 0.2782 0.11583 0.71053 0.0
H1637 H 0.23395 0.10564 0.69442 0.0
C1638 C 0.7607 0.13297 0.70209 0.0
C1639 C 0.74987 0.15188 0.68365 0.0
C1640 C 0.7843 0.12854 0.6553 0.0
C1641 C 0.80029 0.11525 0.67412 0.0
N1642 N 0.81116 0.11384 0.71606 0.0
N1643 N 0.75957 0.17566 0.64318 0.0
C1644 C 0.79048 0.11977 0.69774 0.0
C1645 C 0.76376 0.15179 0.66032 0.0
N1646 N 0.74164 0.12631 0.72358 0.0
N1647 N 0.7875 0.11793 0.63266 0.0
H1648 H 0.74679 0.19506 0.64622 0.0
H1649 H 0.77305 0.1798 0.62655 0.0
H1650 H 0.80098 0.09958 0.62829 0.0
H1651 H 0.7727 0.12343 0.61856 0.0
H1652 H 0.74555 0.10894 0.73687 0.0
H1653 H 0.7184 0.13403 0.72726 0.0
H1654 H 0.80793 0.1209 0.73342 0.0
H1655 H 0.83499 0.10646 0.71384 0.0
C1656 C 0.02354 0.5144 0.49339 0.0
C1657 C 0.05527 0.55677 0.48926 0.0
C1658 C 0.00175 0.57204 0.474 0.0
C1659 C 0.96977 0.53163 0.48164 0.0
N1660 N 0.9513 0.46892 0.50481 0.0
N1661 N 0.074 0.6282 0.47902 0.0
C1662 C 0.98082 0.50388 0.49298 0.0
C1663 C 0.04436 0.58632 0.48035 0.0
N1664 N 0.03392 0.48378 0.49704 0.0
N1665 N -0.0084 0.59634 0.46029 0.0
H1666 H 0.10525 0.64024 0.48425 0.0
H1667 H 0.06665 0.65152 0.47488 0.0
H1668 H 0.96079 0.58639 0.45488 0.0
H1669 H 0.01416 0.62435 0.45239 0.0
H1670 H 0.01138 0.45179 0.49799 0.0
H1671 H 0.06485 0.48959 0.4963 0.0
H1672 H 0.9592 0.45031 0.51512 0.0
H1673 H 0.91998 0.46126 0.50687 0.0
C1674 C 0.50695 0.47002 0.47282 0.0
C1675 C 0.4945 0.4362 0.48893 0.0
C1676 C 0.4472 0.45536 0.50882 0.0
C1677 C 0.45654 0.48633 0.49131 0.0
N1678 N 0.49125 0.52091 0.45519 0.0
N1679 N 0.44892 0.39243 0.5202 0.0
C1680 C 0.48527 0.49305 0.47286 0.0
C1681 C 0.46375 0.42781 0.50651 0.0
N1682 N 0.54066 0.48123 0.45822 0.0
N1683 N 0.42287 0.45263 0.52774 0.0
H1684 H 0.45984 0.3711 0.51883 0.0
H1685 H 0.42334 0.38219 0.53158 0.0
H1686 H 0.40931 0.47166 0.52964 0.0
H1687 H 0.41871 0.43385 0.5424 0.0
H1688 H 0.5541 0.50838 0.4479 0.0
H1689 H 0.55775 0.46543 0.4579 0.0
H1690 H 0.50794 0.52355 0.43985 0.0
H1691 H 0.47707 0.53953 0.45507 0.0
C1692 C 0.53967 0.0321 0.49881 0.0
C1693 C 0.54113 0.05201 0.52047 0.0
C1694 C 0.49886 0.98321 0.53936 0.0
C1695 C 0.49837 0.9634 0.51784 0.0
N1696 N 0.53028 0.96882 0.47991 0.0
N1697 N 0.53382 0.04705 0.56267 0.0
C1698 C 0.52282 0.98785 0.49849 0.0
C1699 C 0.52463 0.02765 0.54122 0.0
N1700 N 0.55127 0.05449 0.47824 0.0
N1701 N 0.4728 0.96037 0.55747 0.0
H1702 H 0.55354 0.07958 0.56459 0.0
H1703 H 0.5257 0.03052 0.57852 0.0
H1704 H 0.45243 0.92787 0.55679 0.0
H1705 H 0.4687 0.97428 0.57246 0.0
H1706 H 0.54601 0.04017 0.4618 0.0
H1707 H 0.56249 0.08679 0.47721 0.0
H1708 H 0.55102 0.9857 0.4663 0.0
H1709 H 0.51954 0.93649 0.47948 0.0
C1710 C 0.4805 0.02291 0.97161 0.0
C1711 C 0.46506 0.04113 0.988 0.0
C1712 C 0.41486 0.9715 0.00371 0.0
C1713 C 0.43015 0.95326 0.98724 0.0
N1714 N 0.47101 0.95953 0.95257 0.0
N1715 N 0.41262 0.03377 0.01616 0.0
C1716 C 0.4606 0.97831 0.97008 0.0
C1717 C 0.43067 0.01567 0.00303 0.0
N1718 N 0.51594 0.04816 0.95871 0.0
N1719 N 0.38572 0.94656 0.02019 0.0
H1720 H 0.42331 0.06609 0.01582 0.0
H1721 H 0.38505 0.01668 0.02588 0.0
H1722 H 0.37118 0.9137 0.02012 0.0
H1723 H 0.37717 0.95833 0.03451 0.0
H1724 H 0.53182 0.03673 0.94865 0.0
H1725 H 0.53169 0.08103 0.95934 0.0
H1726 H 0.48934 0.9758 0.93807 0.0
H1727 H 0.45882 0.92704 0.95149 0.0
C1728 C 0.95606 0.44212 0.972 0.0
C1729 C 0.9443 0.41881 0.99323 0.0
C1730 C 0.01522 0.46308 0.00912 0.0
C1731 C 0.02527 0.48968 0.98916 0.0
N1732 N 0.00514 0.50733 0.9523 0.0
N1733 N 0.96062 0.40692 0.03256 0.0
C1734 C -0.00414 0.47973 0.9706 0.0
C1735 C 0.97339 0.42906 0.01193 0.0
N1736 N 0.92909 0.42812 0.95324 0.0
N1737 N 0.04604 0.46948 0.02493 0.0
H1738 H 0.93096 0.38014 0.03472 0.0
H1739 H 0.97849 0.41621 0.04792 0.0
H1740 H 0.07724 0.49385 0.02331 0.0
H1741 H 0.04174 0.44864 0.03854 0.0
H1742 H 0.93725 0.44131 0.9365 0.0
H1743 H 0.89949 0.40083 0.95393 0.0
H1744 H 0.98337 0.50416 0.93954 0.0
H1745 H 0.03386 0.53542 0.95075 0.0
C1746 C 0.54128 0.57949 0.01004 0.0
C1747 C 0.52329 0.57429 0.98736 0.0
C1748 C 0.54875 0.52668 0.97592 0.0
C1749 C 0.56442 0.52986 0.99908 0.0
N1750 N 0.58633 0.56646 0.03596 0.0
N1751 N 0.51842 0.55257 0.94695 0.0
C1752 C 0.56426 0.55884 0.01543 0.0
C1753 C 0.53025 0.55135 0.96961 0.0
N1754 N 0.53523 0.60317 0.02652 0.0
N1755 N 0.54894 0.49801 0.96058 0.0
H1756 H 0.50359 0.56938 0.94195 0.0
H1757 H 0.52613 0.53977 0.93276 0.0
H1758 H 0.56326 0.48021 0.96439 0.0
H1759 H 0.53326 0.49023 0.94451 0.0
H1760 H 0.54317 0.60435 0.04418 0.0
H1761 H 0.52076 0.62082 0.02263 0.0
H1762 H 0.59023 0.58942 0.04808 0.0
H1763 H 0.604 0.55202 0.03991 0.0
loop_
_geom_bond_atom_site_label_1
_geom_bond_atom_site_label_2
_geom_bond_distance
_geom_bond_site_symmetry_2
_ccdc_geom_bond_type
In0 O1 2.294 . S
In0 O2 2.326 . S
In0 O6 2.266 . S
In0 O7 2.326 . S
In0 O8 2.266 . S
In0 O9 2.326 . S
In0 O11 2.294 . S
In0 O12 2.326 . S
O1 In0 2.294 . S
O1 C10 1.240 . S
O2 In0 2.326 . S
O2 C10 1.252 . S
C3 O6 1.252 . S
C3 O7 1.260 . S
C4 O11 1.240 . S
C4 O12 1.252 . S
C5 O8 1.252 . S
C5 O9 1.260 . S
O6 In0 2.266 . S
O6 C3 1.252 . S
O7 In0 2.326 . S
O7 C3 1.260 . S
O8 In0 2.266 . S
O8 C5 1.252 . S
O9 In0 2.326 . S
O9 C5 1.260 . S
C10 O1 1.240 . S
C10 O2 1.252 . S
O11 In0 2.294 . S
O11 C4 1.240 . S
O12 In0 2.326 . S
O12 C4 1.252 . S
In13 O14 2.294 . S
In13 O15 2.326 . S
In13 O19 2.266 1_545 S
In13 O20 2.326 1_545 S
In13 O21 2.266 . S
In13 O22 2.326 . S
In13 O24 2.294 . S
In13 O25 2.326 1_545 S
O14 In13 2.294 . S
O14 C23 1.240 . S
O15 In13 2.326 . S
O15 C23 1.252 . S
C16 O19 1.252 . S
C16 O20 1.260 . S
C17 O24 1.240 . S
C17 O25 1.252 1_545 S
C18 O21 1.252 . S
C18 O22 1.260 . S
O19 In13 2.266 1_565 S
O19 C16 1.252 . S
O20 In13 2.326 1_565 S
O20 C16 1.260 . S
O21 In13 2.266 . S
O21 C18 1.252 . S
O22 In13 2.326 . S
O22 C18 1.260 . S
C23 O14 1.240 . S
C23 O15 1.252 . S
O24 In13 2.294 . S
O24 C17 1.240 . S
O25 In13 2.326 1_565 S
O25 C17 1.252 1_565 S
In26 O27 2.294 . S
In26 O28 2.326 1_655 S
In26 O32 2.266 . S
In26 O33 2.326 . S
In26 O34 2.266 1_655 S
In26 O35 2.326 1_655 S
In26 O37 2.294 . S
In26 O38 2.326 . S
O27 In26 2.294 . S
O27 C36 1.240 . S
O28 In26 2.326 1_455 S
O28 C36 1.252 1_455 S
C29 O32 1.252 . S
C29 O33 1.260 . S
C30 O37 1.240 . S
C30 O38 1.252 . S
C31 O34 1.252 . S
C31 O35 1.260 . S
O32 In26 2.266 . S
O32 C29 1.252 . S
O33 In26 2.326 . S
O33 C29 1.260 . S
O34 In26 2.266 1_455 S
O34 C31 1.252 . S
O35 In26 2.326 1_455 S
O35 C31 1.260 . S
C36 O27 1.240 . S
C36 O28 1.252 1_655 S
O37 In26 2.294 . S
O37 C30 1.240 . S
O38 In26 2.326 . S
O38 C30 1.252 . S
In39 O40 2.294 . S
In39 O41 2.326 . S
In39 O45 2.266 . S
In39 O46 2.326 . S
In39 O47 2.266 . S
In39 O48 2.326 . S
In39 O50 2.294 . S
In39 O51 2.326 . S
O40 In39 2.294 . S
O40 C49 1.240 . S
O41 In39 2.326 . S
O41 C49 1.252 . S
C42 O45 1.252 . S
C42 O46 1.260 . S
C43 O50 1.240 . S
C43 O51 1.252 . S
C44 O47 1.252 . S
C44 O48 1.260 . S
O45 In39 2.266 . S
O45 C42 1.252 . S
O46 In39 2.326 . S
O46 C42 1.260 . S
O47 In39 2.266 . S
O47 C44 1.252 . S
O48 In39 2.326 . S
O48 C44 1.260 . S
C49 O40 1.240 . S
C49 O41 1.252 . S
O50 In39 2.294 . S
O50 C43 1.240 . S
O51 In39 2.326 . S
O51 C43 1.252 . S
In52 O53 2.294 . S
In52 O54 2.326 1_565 S
In52 O58 2.266 . S
In52 O59 2.326 . S
In52 O60 2.266 1_565 S
In52 O61 2.326 1_565 S
In52 O63 2.294 . S
In52 O64 2.326 . S
O53 In52 2.294 . S
O53 C62 1.240 . S
O54 In52 2.326 1_545 S
O54 C62 1.252 1_545 S
C55 O58 1.252 . S
C55 O59 1.260 . S
C56 O63 1.240 . S
C56 O64 1.252 . S
C57 O60 1.252 . S
C57 O61 1.260 . S
O58 In52 2.266 . S
O58 C55 1.252 . S
O59 In52 2.326 . S
O59 C55 1.260 . S
O60 In52 2.266 1_545 S
O60 C57 1.252 . S
O61 In52 2.326 1_545 S
O61 C57 1.260 . S
C62 O53 1.240 . S
C62 O54 1.252 1_565 S
O63 In52 2.294 . S
O63 C56 1.240 . S
O64 In52 2.326 . S
O64 C56 1.252 . S
In65 O66 2.294 . S
In65 O67 2.326 1_455 S
In65 O71 2.266 . S
In65 O72 2.326 . S
In65 O73 2.266 1_455 S
In65 O74 2.326 1_455 S
In65 O76 2.294 . S
In65 O77 2.326 . S
O66 In65 2.294 . S
O66 C75 1.240 . S
O67 In65 2.326 1_655 S
O67 C75 1.252 1_655 S
C68 O71 1.252 . S
C68 O72 1.260 . S
C69 O76 1.240 . S
C69 O77 1.252 . S
C70 O73 1.252 . S
C70 O74 1.260 . S
O71 In65 2.266 . S
O71 C68 1.252 . S
O72 In65 2.326 . S
O72 C68 1.260 . S
O73 In65 2.266 1_655 S
O73 C70 1.252 . S
O74 In65 2.326 1_655 S
O74 C70 1.260 . S
C75 O66 1.240 . S
C75 O67 1.252 1_455 S
O76 In65 2.294 . S
O76 C69 1.240 . S
O77 In65 2.326 . S
O77 C69 1.252 . S
In78 O79 2.294 . S
In78 O80 2.326 . S
In78 O84 2.266 . S
In78 O85 2.326 . S
In78 O86 2.266 . S
In78 O87 2.326 . S
In78 O89 2.294 . S
In78 O90 2.326 . S
O79 In78 2.294 . S
O79 C88 1.240 . S
O80 In78 2.326 . S
O80 C88 1.252 . S
C81 O84 1.252 . S
C81 O85 1.260 . S
C82 O89 1.240 . S
C82 O90 1.252 . S
C83 O86 1.252 . S
C83 O87 1.260 . S
O84 In78 2.266 . S
O84 C81 1.252 . S
O85 In78 2.326 . S
O85 C81 1.260 . S
O86 In78 2.266 . S
O86 C83 1.252 . S
O87 In78 2.326 . S
O87 C83 1.260 . S
C88 O79 1.240 . S
C88 O80 1.252 . S
O89 In78 2.294 . S
O89 C82 1.240 . S
O90 In78 2.326 . S
O90 C82 1.252 . S
In91 O92 2.294 . S
In91 O93 2.326 1_565 S
In91 O97 2.266 . S
In91 O98 2.326 . S
In91 O99 2.266 1_565 S
In91 O100 2.326 1_565 S
In91 O102 2.294 . S
In91 O103 2.326 . S
O92 In91 2.294 . S
O92 C101 1.240 . S
O93 In91 2.326 1_545 S
O93 C101 1.252 1_545 S
C94 O97 1.252 . S
C94 O98 1.260 . S
C95 O102 1.240 . S
C95 O103 1.252 . S
C96 O99 1.252 . S
C96 O100 1.260 . S
O97 In91 2.266 . S
O97 C94 1.252 . S
O98 In91 2.326 . S
O98 C94 1.260 . S
O99 In91 2.266 1_545 S
O99 C96 1.252 . S
O100 In91 2.326 1_545 S
O100 C96 1.260 . S
C101 O92 1.240 . S
C101 O93 1.252 1_565 S
O102 In91 2.294 . S
O102 C95 1.240 . S
O103 In91 2.326 . S
O103 C95 1.252 . S
In104 O105 2.294 . S
In104 O106 2.326 1_455 S
In104 O110 2.266 . S
In104 O111 2.326 . S
In104 O112 2.266 1_455 S
In104 O113 2.326 1_455 S
In104 O115 2.294 . S
In104 O116 2.326 . S
O105 In104 2.294 . S
O105 C114 1.240 . S
O106 In104 2.326 1_655 S
O106 C114 1.252 1_655 S
C107 O110 1.252 . S
C107 O111 1.260 . S
C108 O115 1.240 . S
C108 O116 1.252 . S
C109 O112 1.252 . S
C109 O113 1.260 . S
O110 In104 2.266 . S
O110 C107 1.252 . S
O111 In104 2.326 . S
O111 C107 1.260 . S
O112 In104 2.266 1_655 S
O112 C109 1.252 . S
O113 In104 2.326 1_655 S
O113 C109 1.260 . S
C114 O105 1.240 . S
C114 O106 1.252 1_455 S
O115 In104 2.294 . S
O115 C108 1.240 . S
O116 In104 2.326 . S
O116 C108 1.252 . S
In117 O118 2.294 . S
In117 O119 2.326 . S
In117 O123 2.266 . S
In117 O124 2.326 . S
In117 O125 2.266 . S
In117 O126 2.326 . S
In117 O128 2.294 . S
In117 O129 2.326 . S
O118 In117 2.294 . S
O118 C127 1.240 . S
O119 In117 2.326 . S
O119 C127 1.252 . S
C120 O123 1.252 . S
C120 O124 1.260 . S
C121 O128 1.240 . S
C121 O129 1.252 . S
C122 O125 1.252 . S
C122 O126 1.260 . S
O123 In117 2.266 . S
O123 C120 1.252 . S
O124 In117 2.326 . S
O124 C120 1.260 . S
O125 In117 2.266 . S
O125 C122 1.252 . S
O126 In117 2.326 . S
O126 C122 1.260 . S
C127 O118 1.240 . S
C127 O119 1.252 . S
O128 In117 2.294 . S
O128 C121 1.240 . S
O129 In117 2.326 . S
O129 C121 1.252 . S
In130 O131 2.294 . S
In130 O132 2.326 1_545 S
In130 O136 2.266 . S
In130 O137 2.326 . S
In130 O138 2.266 1_545 S
In130 O139 2.326 1_545 S
In130 O141 2.294 . S
In130 O142 2.326 . S
O131 In130 2.294 . S
O131 C140 1.240 . S
O132 In130 2.326 1_565 S
O132 C140 1.252 1_565 S
C133 O136 1.252 . S
C133 O137 1.260 . S
C134 O141 1.240 . S
C134 O142 1.252 . S
C135 O138 1.252 . S
C135 O139 1.260 . S
O136 In130 2.266 . S
O136 C133 1.252 . S
O137 In130 2.326 . S
O137 C133 1.260 . S
O138 In130 2.266 1_565 S
O138 C135 1.252 . S
O139 In130 2.326 1_565 S
O139 C135 1.260 . S
C140 O131 1.240 . S
C140 O132 1.252 1_545 S
O141 In130 2.294 . S
O141 C134 1.240 . S
O142 In130 2.326 . S
O142 C134 1.252 . S
In143 O144 2.294 . S
In143 O145 2.326 1_655 S
In143 O149 2.266 . S
In143 O150 2.326 . S
In143 O151 2.266 1_655 S
In143 O152 2.326 1_655 S
In143 O154 2.294 . S
In143 O155 2.326 . S
O144 In143 2.294 . S
O144 C153 1.240 . S
O145 In143 2.326 1_455 S
O145 C153 1.252 1_455 S
C146 O149 1.252 . S
C146 O150 1.260 . S
C147 O154 1.240 . S
C147 O155 1.252 . S
C148 O151 1.252 . S
C148 O152 1.260 . S
O149 In143 2.266 . S
O149 C146 1.252 . S
O150 In143 2.326 . S
O150 C146 1.260 . S
O151 In143 2.266 1_455 S
O151 C148 1.252 . S
O152 In143 2.326 1_455 S
O152 C148 1.260 . S
C153 O144 1.240 . S
C153 O145 1.252 1_655 S
O154 In143 2.294 . S
O154 C147 1.240 . S
O155 In143 2.326 . S
O155 C147 1.252 . S
In156 O157 2.294 . S
In156 O158 2.326 . S
In156 O162 2.266 . S
In156 O163 2.326 . S
In156 O164 2.266 . S
In156 O165 2.326 . S
In156 O167 2.294 . S
In156 O168 2.326 . S
O157 In156 2.294 . S
O157 C166 1.240 . S
O158 In156 2.326 . S
O158 C166 1.252 . S
C159 O162 1.252 . S
C159 O163 1.260 . S
C160 O167 1.240 . S
C160 O168 1.252 . S
C161 O164 1.252 . S
C161 O165 1.260 . S
O162 In156 2.266 . S
O162 C159 1.252 . S
O163 In156 2.326 . S
O163 C159 1.260 . S
O164 In156 2.266 . S
O164 C161 1.252 . S
O165 In156 2.326 . S
O165 C161 1.260 . S
C166 O157 1.240 . S
C166 O158 1.252 . S
O167 In156 2.294 . S
O167 C160 1.240 . S
O168 In156 2.326 . S
O168 C160 1.252 . S
In169 O170 2.294 . S
In169 O171 2.326 . S
In169 O175 2.266 . S
In169 O176 2.326 . S
In169 O177 2.266 . S
In169 O178 2.326 . S
In169 O180 2.294 . S
In169 O181 2.326 . S
O170 In169 2.294 . S
O170 C179 1.240 . S
O171 In169 2.326 . S
O171 C179 1.252 . S
C172 O175 1.252 . S
C172 O176 1.260 . S
C173 O180 1.240 . S
C173 O181 1.252 . S
C174 O177 1.252 . S
C174 O178 1.260 . S
O175 In169 2.266 . S
O175 C172 1.252 . S
O176 In169 2.326 . S
O176 C172 1.260 . S
O177 In169 2.266 . S
O177 C174 1.252 . S
O178 In169 2.326 . S
O178 C174 1.260 . S
C179 O170 1.240 . S
C179 O171 1.252 . S
O180 In169 2.294 . S
O180 C173 1.240 . S
O181 In169 2.326 . S
O181 C173 1.252 . S
In182 O183 2.294 . S
In182 O184 2.326 . S
In182 O188 2.266 . S
In182 O189 2.326 . S
In182 O190 2.266 . S
In182 O191 2.326 . S
In182 O193 2.294 . S
In182 O194 2.326 . S
O183 In182 2.294 . S
O183 C192 1.240 . S
O184 In182 2.326 . S
O184 C192 1.252 . S
C185 O188 1.252 . S
C185 O189 1.260 . S
C186 O193 1.240 . S
C186 O194 1.252 . S
C187 O190 1.252 . S
C187 O191 1.260 . S
O188 In182 2.266 . S
O188 C185 1.252 . S
O189 In182 2.326 . S
O189 C185 1.260 . S
O190 In182 2.266 . S
O190 C187 1.252 . S
O191 In182 2.326 . S
O191 C187 1.260 . S
C192 O183 1.240 . S
C192 O184 1.252 . S
O193 In182 2.294 . S
O193 C186 1.240 . S
O194 In182 2.326 . S
O194 C186 1.252 . S
In195 O196 2.294 . S
In195 O197 2.326 . S
In195 O201 2.266 . S
In195 O202 2.326 . S
In195 O203 2.266 . S
In195 O204 2.326 . S
In195 O206 2.294 . S
In195 O207 2.326 . S
O196 In195 2.294 . S
O196 C205 1.240 . S
O197 In195 2.326 . S
O197 C205 1.252 . S
C198 O201 1.252 . S
C198 O202 1.260 . S
C199 O206 1.240 . S
C199 O207 1.252 . S
C200 O203 1.252 . S
C200 O204 1.260 . S
O201 In195 2.266 . S
O201 C198 1.252 . S
O202 In195 2.326 . S
O202 C198 1.260 . S
O203 In195 2.266 . S
O203 C200 1.252 . S
O204 In195 2.326 . S
O204 C200 1.260 . S
C205 O196 1.240 . S
C205 O197 1.252 . S
O206 In195 2.294 . S
O206 C199 1.240 . S
O207 In195 2.326 . S
O207 C199 1.252 . S
In208 O209 2.294 . S
In208 O210 2.326 . S
In208 O214 2.266 . S
In208 O215 2.326 . S
In208 O216 2.266 . S
In208 O217 2.326 . S
In208 O219 2.294 . S
In208 O220 2.326 . S
O209 In208 2.294 . S
O209 C218 1.240 . S
O210 In208 2.326 . S
O210 C218 1.252 . S
C211 O214 1.252 . S
C211 O215 1.260 . S
C212 O219 1.240 . S
C212 O220 1.252 . S
C213 O216 1.252 . S
C213 O217 1.260 . S
O214 In208 2.266 . S
O214 C211 1.252 . S
O215 In208 2.326 . S
O215 C211 1.260 . S
O216 In208 2.266 . S
O216 C213 1.252 . S
O217 In208 2.326 . S
O217 C213 1.260 . S
C218 O209 1.240 . S
C218 O210 1.252 . S
O219 In208 2.294 . S
O219 C212 1.240 . S
O220 In208 2.326 . S
O220 C212 1.252 . S
In221 O222 2.294 . S
In221 O223 2.326 . S
In221 O227 2.266 . S
In221 O228 2.326 . S
In221 O229 2.266 . S
In221 O230 2.326 . S
In221 O232 2.294 . S
In221 O233 2.326 . S
O222 In221 2.294 . S
O222 C231 1.240 . S
O223 In221 2.326 . S
O223 C231 1.252 . S
C224 O227 1.252 . S
C224 O228 1.260 . S
C225 O232 1.240 . S
C225 O233 1.252 . S
C226 O229 1.252 . S
C226 O230 1.260 . S
O227 In221 2.266 . S
O227 C224 1.252 . S
O228 In221 2.326 . S
O228 C224 1.260 . S
O229 In221 2.266 . S
O229 C226 1.252 . S
O230 In221 2.326 . S
O230 C226 1.260 . S
C231 O222 1.240 . S
C231 O223 1.252 . S
O232 In221 2.294 . S
O232 C225 1.240 . S
O233 In221 2.326 . S
O233 C225 1.252 . S
In234 O235 2.294 . S
In234 O236 2.326 . S
In234 O240 2.266 . S
In234 O241 2.326 . S
In234 O242 2.266 . S
In234 O243 2.326 . S
In234 O245 2.294 . S
In234 O246 2.326 . S
O235 In234 2.294 . S
O235 C244 1.240 . S
O236 In234 2.326 . S
O236 C244 1.252 . S
C237 O240 1.252 . S
C237 O241 1.260 . S
C238 O245 1.240 . S
C238 O246 1.252 . S
C239 O242 1.252 . S
C239 O243 1.260 . S
O240 In234 2.266 . S
O240 C237 1.252 . S
O241 In234 2.326 . S
O241 C237 1.260 . S
O242 In234 2.266 . S
O242 C239 1.252 . S
O243 In234 2.326 . S
O243 C239 1.260 . S
C244 O235 1.240 . S
C244 O236 1.252 . S
O245 In234 2.294 . S
O245 C238 1.240 . S
O246 In234 2.326 . S
O246 C238 1.252 . S
In247 O248 2.294 . S
In247 O249 2.326 . S
In247 O253 2.266 . S
In247 O254 2.326 . S
In247 O255 2.266 . S
In247 O256 2.326 . S
In247 O258 2.294 . S
In247 O259 2.326 . S
O248 In247 2.294 . S
O248 C257 1.240 . S
O249 In247 2.326 . S
O249 C257 1.252 . S
C250 O253 1.252 . S
C250 O254 1.260 . S
C251 O258 1.240 . S
C251 O259 1.252 . S
C252 O255 1.252 . S
C252 O256 1.260 . S
O253 In247 2.266 . S
O253 C250 1.252 . S
O254 In247 2.326 . S
O254 C250 1.260 . S
O255 In247 2.266 . S
O255 C252 1.252 . S
O256 In247 2.326 . S
O256 C252 1.260 . S
C257 O248 1.240 . S
C257 O249 1.252 . S
O258 In247 2.294 . S
O258 C251 1.240 . S
O259 In247 2.326 . S
O259 C251 1.252 . S
In260 O261 2.294 . S
In260 O262 2.326 . S
In260 O266 2.266 . S
In260 O267 2.326 . S
In260 O268 2.266 . S
In260 O269 2.326 . S
In260 O271 2.294 . S
In260 O272 2.326 . S
O261 In260 2.294 . S
O261 C270 1.240 . S
O262 In260 2.326 . S
O262 C270 1.252 . S
C263 O266 1.252 . S
C263 O267 1.260 . S
C264 O271 1.240 . S
C264 O272 1.252 . S
C265 O268 1.252 . S
C265 O269 1.260 . S
O266 In260 2.266 . S
O266 C263 1.252 . S
O267 In260 2.326 . S
O267 C263 1.260 . S
O268 In260 2.266 . S
O268 C265 1.252 . S
O269 In260 2.326 . S
O269 C265 1.260 . S
C270 O261 1.240 . S
C270 O262 1.252 . S
O271 In260 2.294 . S
O271 C264 1.240 . S
O272 In260 2.326 . S
O272 C264 1.252 . S
In273 O274 2.293 1_554 S
In273 O275 2.327 . S
In273 O279 2.265 1_554 S
In273 O280 2.326 . S
In273 O281 2.267 . S
In273 O282 2.324 1_554 S
In273 O284 2.296 . S
In273 O285 2.328 . S
O274 In273 2.293 1_556 S
O274 C283 1.240 . S
O275 In273 2.327 . S
O275 C283 1.252 1_554 S
C276 O279 1.252 . S
C276 O280 1.260 1_556 S
C277 O284 1.240 . S
C277 O285 1.252 . S
C278 O281 1.252 1_556 S
C278 O282 1.260 . S
O279 In273 2.265 1_556 S
O279 C276 1.252 . S
O280 In273 2.326 . S
O280 C276 1.260 1_554 S
O281 In273 2.267 . S
O281 C278 1.252 1_554 S
O282 In273 2.324 1_556 S
O282 C278 1.260 . S
C283 O274 1.240 . S
C283 O275 1.252 1_556 S
O284 In273 2.296 . S
O284 C277 1.240 . S
O285 In273 2.328 . S
O285 C277 1.252 . S
In286 O287 2.293 1_554 S
In286 O288 2.327 . S
In286 O292 2.265 1_554 S
In286 O293 2.326 . S
In286 O294 2.267 . S
In286 O295 2.324 1_554 S
In286 O297 2.296 . S
In286 O298 2.328 . S
O287 In286 2.293 1_556 S
O287 C296 1.240 . S
O288 In286 2.327 . S
O288 C296 1.252 1_554 S
C289 O292 1.252 . S
C289 O293 1.260 1_556 S
C290 O297 1.240 . S
C290 O298 1.252 . S
C291 O294 1.252 1_556 S
C291 O295 1.260 . S
O292 In286 2.265 1_556 S
O292 C289 1.252 . S
O293 In286 2.326 . S
O293 C289 1.260 1_554 S
O294 In286 2.267 . S
O294 C291 1.252 1_554 S
O295 In286 2.324 1_556 S
O295 C291 1.260 . S
C296 O287 1.240 . S
C296 O288 1.252 1_556 S
O297 In286 2.296 . S
O297 C290 1.240 . S
O298 In286 2.328 . S
O298 C290 1.252 . S
In299 O300 2.296 . S
In299 O301 2.328 . S
In299 O305 2.267 . S
In299 O306 2.324 1_554 S
In299 O307 2.265 1_554 S
In299 O308 2.326 . S
In299 O310 2.293 1_554 S
In299 O311 2.327 . S
O300 In299 2.296 . S
O300 C309 1.240 . S
O301 In299 2.328 . S
O301 C309 1.252 . S
C302 O305 1.252 1_556 S
C302 O306 1.260 . S
C303 O310 1.240 . S
C303 O311 1.252 1_556 S
C304 O307 1.252 . S
C304 O308 1.260 1_556 S
O305 In299 2.267 . S
O305 C302 1.252 1_554 S
O306 In299 2.324 1_556 S
O306 C302 1.260 . S
O307 In299 2.265 1_556 S
O307 C304 1.252 . S
O308 In299 2.326 . S
O308 C304 1.260 1_554 S
C309 O300 1.240 . S
C309 O301 1.252 . S
O310 In299 2.293 1_556 S
O310 C303 1.240 . S
O311 In299 2.327 . S
O311 C303 1.252 1_554 S
In312 O313 2.294 . S
In312 O314 2.326 . S
In312 O318 2.266 . S
In312 O319 2.326 . S
In312 O320 2.266 . S
In312 O321 2.326 . S
In312 O323 2.294 . S
In312 O324 2.326 . S
O313 In312 2.294 . S
O313 C322 1.240 . S
O314 In312 2.326 . S
O314 C322 1.252 . S
C315 O318 1.252 . S
C315 O319 1.260 . S
C316 O323 1.240 . S
C316 O324 1.252 . S
C317 O320 1.252 . S
C317 O321 1.260 . S
O318 In312 2.266 . S
O318 C315 1.252 . S
O319 In312 2.326 . S
O319 C315 1.260 . S
O320 In312 2.266 . S
O320 C317 1.252 . S
O321 In312 2.326 . S
O321 C317 1.260 . S
C322 O313 1.240 . S
C322 O314 1.252 . S
O323 In312 2.294 . S
O323 C316 1.240 . S
O324 In312 2.326 . S
O324 C316 1.252 . S
In325 O326 2.294 . S
In325 O327 2.326 . S
In325 O331 2.266 . S
In325 O332 2.326 . S
In325 O333 2.266 . S
In325 O334 2.326 . S
In325 O336 2.294 . S
In325 O337 2.326 . S
O326 In325 2.294 . S
O326 C335 1.240 . S
O327 In325 2.326 . S
O327 C335 1.252 . S
C328 O331 1.252 . S
C328 O332 1.260 . S
C329 O336 1.240 . S
C329 O337 1.252 . S
C330 O333 1.252 . S
C330 O334 1.260 . S
O331 In325 2.266 . S
O331 C328 1.252 . S
O332 In325 2.326 . S
O332 C328 1.260 . S
O333 In325 2.266 . S
O333 C330 1.252 . S
O334 In325 2.326 . S
O334 C330 1.260 . S
C335 O326 1.240 . S
C335 O327 1.252 . S
O336 In325 2.294 . S
O336 C329 1.240 . S
O337 In325 2.326 . S
O337 C329 1.252 . S
In338 O339 2.294 . S
In338 O340 2.326 . S
In338 O344 2.266 . S
In338 O345 2.326 . S
In338 O346 2.266 . S
In338 O347 2.326 . S
In338 O349 2.294 . S
In338 O350 2.326 . S
O339 In338 2.294 . S
O339 C348 1.240 . S
O340 In338 2.326 . S
O340 C348 1.252 . S
C341 O344 1.252 . S
C341 O345 1.260 . S
C342 O349 1.240 . S
C342 O350 1.252 . S
C343 O346 1.252 . S
C343 O347 1.260 . S
O344 In338 2.266 . S
O344 C341 1.252 . S
O345 In338 2.326 . S
O345 C341 1.260 . S
O346 In338 2.266 . S
O346 C343 1.252 . S
O347 In338 2.326 . S
O347 C343 1.260 . S
C348 O339 1.240 . S
C348 O340 1.252 . S
O349 In338 2.294 . S
O349 C342 1.240 . S
O350 In338 2.326 . S
O350 C342 1.252 . S
In351 O352 2.293 1_556 S
In351 O353 2.327 . S
In351 O357 2.265 1_556 S
In351 O358 2.326 . S
In351 O359 2.267 . S
In351 O360 2.324 1_556 S
In351 O362 2.296 . S
In351 O363 2.328 . S
O352 In351 2.293 1_554 S
O352 C361 1.240 . S
O353 In351 2.327 . S
O353 C361 1.252 1_556 S
C354 O357 1.252 . S
C354 O358 1.260 1_554 S
C355 O362 1.240 . S
C355 O363 1.252 . S
C356 O359 1.252 1_554 S
C356 O360 1.260 . S
O357 In351 2.265 1_554 S
O357 C354 1.252 . S
O358 In351 2.326 . S
O358 C354 1.260 1_556 S
O359 In351 2.267 . S
O359 C356 1.252 1_556 S
O360 In351 2.324 1_554 S
O360 C356 1.260 . S
C361 O352 1.240 . S
C361 O353 1.252 1_554 S
O362 In351 2.296 . S
O362 C355 1.240 . S
O363 In351 2.328 . S
O363 C355 1.252 . S
In364 O365 2.293 1_556 S
In364 O366 2.327 . S
In364 O370 2.265 1_556 S
In364 O371 2.326 . S
In364 O372 2.267 . S
In364 O373 2.324 1_556 S
In364 O375 2.296 . S
In364 O376 2.328 . S
O365 In364 2.293 1_554 S
O365 C374 1.240 . S
O366 In364 2.327 . S
O366 C374 1.252 1_556 S
C367 O370 1.252 . S
C367 O371 1.260 1_554 S
C368 O375 1.240 . S
C368 O376 1.252 . S
C369 O372 1.252 1_554 S
C369 O373 1.260 . S
O370 In364 2.265 1_554 S
O370 C367 1.252 . S
O371 In364 2.326 . S
O371 C367 1.260 1_556 S
O372 In364 2.267 . S
O372 C369 1.252 1_556 S
O373 In364 2.324 1_554 S
O373 C369 1.260 . S
C374 O365 1.240 . S
C374 O366 1.252 1_554 S
O375 In364 2.296 . S
O375 C368 1.240 . S
O376 In364 2.328 . S
O376 C368 1.252 . S
In377 O378 2.293 1_556 S
In377 O379 2.327 . S
In377 O383 2.265 1_556 S
In377 O384 2.326 . S
In377 O385 2.267 . S
In377 O386 2.324 1_556 S
In377 O388 2.296 . S
In377 O389 2.328 . S
O378 In377 2.293 1_554 S
O378 C387 1.240 . S
O379 In377 2.327 . S
O379 C387 1.252 1_556 S
C380 O383 1.252 . S
C380 O384 1.260 1_554 S
C381 O388 1.240 . S
C381 O389 1.252 . S
C382 O385 1.252 1_554 S
C382 O386 1.260 . S
O383 In377 2.265 1_554 S
O383 C380 1.252 . S
O384 In377 2.326 . S
O384 C380 1.260 1_556 S
O385 In377 2.267 . S
O385 C382 1.252 1_556 S
O386 In377 2.324 1_554 S
O386 C382 1.260 . S
C387 O378 1.240 . S
C387 O379 1.252 1_554 S
O388 In377 2.296 . S
O388 C381 1.240 . S
O389 In377 2.328 . S
O389 C381 1.252 . S
In390 O391 2.294 . S
In390 O392 2.326 . S
In390 O396 2.266 . S
In390 O397 2.326 . S
In390 O398 2.266 . S
In390 O399 2.326 . S
In390 O401 2.294 . S
In390 O402 2.326 . S
O391 In390 2.294 . S
O391 C400 1.240 . S
O392 In390 2.326 . S
O392 C400 1.252 . S
C393 O396 1.252 . S
C393 O397 1.260 . S
C394 O401 1.240 . S
C394 O402 1.252 . S
C395 O398 1.252 . S
C395 O399 1.260 . S
O396 In390 2.266 . S
O396 C393 1.252 . S
O397 In390 2.326 . S
O397 C393 1.260 . S
O398 In390 2.266 . S
O398 C395 1.252 . S
O399 In390 2.326 . S
O399 C395 1.260 . S
C400 O391 1.240 . S
C400 O392 1.252 . S
O401 In390 2.294 . S
O401 C394 1.240 . S
O402 In390 2.326 . S
O402 C394 1.252 . S
In403 O404 2.294 . S
In403 O405 2.326 . S
In403 O409 2.266 . S
In403 O410 2.326 . S
In403 O411 2.266 . S
In403 O412 2.326 . S
In403 O414 2.294 . S
In403 O415 2.326 . S
O404 In403 2.294 . S
O404 C413 1.240 . S
O405 In403 2.326 . S
O405 C413 1.252 . S
C406 O409 1.252 . S
C406 O410 1.260 . S
C407 O414 1.240 . S
C407 O415 1.252 . S
C408 O411 1.252 . S
C408 O412 1.260 . S
O409 In403 2.266 . S
O409 C406 1.252 . S
O410 In403 2.326 . S
O410 C406 1.260 . S
O411 In403 2.266 . S
O411 C408 1.252 . S
O412 In403 2.326 . S
O412 C408 1.260 . S
C413 O404 1.240 . S
C413 O405 1.252 . S
O414 In403 2.294 . S
O414 C407 1.240 . S
O415 In403 2.326 . S
O415 C407 1.252 . S
In416 O417 2.294 . S
In416 O418 2.326 . S
In416 O422 2.266 . S
In416 O423 2.326 . S
In416 O424 2.266 . S
In416 O425 2.326 . S
In416 O427 2.294 . S
In416 O428 2.326 . S
O417 In416 2.294 . S
O417 C426 1.240 . S
O418 In416 2.326 . S
O418 C426 1.252 . S
C419 O422 1.252 . S
C419 O423 1.260 . S
C420 O427 1.240 . S
C420 O428 1.252 . S
C421 O424 1.252 . S
C421 O425 1.260 . S
O422 In416 2.266 . S
O422 C419 1.252 . S
O423 In416 2.326 . S
O423 C419 1.260 . S
O424 In416 2.266 . S
O424 C421 1.252 . S
O425 In416 2.326 . S
O425 C421 1.260 . S
C426 O417 1.240 . S
C426 O418 1.252 . S
O427 In416 2.294 . S
O427 C420 1.240 . S
O428 In416 2.326 . S
O428 C420 1.252 . S
In429 O430 2.294 . S
In429 O431 2.326 . S
In429 O435 2.266 . S
In429 O436 2.326 . S
In429 O437 2.266 . S
In429 O438 2.326 . S
In429 O440 2.294 . S
In429 O441 2.326 . S
O430 In429 2.294 . S
O430 C439 1.240 . S
O431 In429 2.326 . S
O431 C439 1.252 . S
C432 O435 1.252 . S
C432 O436 1.260 . S
C433 O440 1.240 . S
C433 O441 1.252 . S
C434 O437 1.252 . S
C434 O438 1.260 . S
O435 In429 2.266 . S
O435 C432 1.252 . S
O436 In429 2.326 . S
O436 C432 1.260 . S
O437 In429 2.266 . S
O437 C434 1.252 . S
O438 In429 2.326 . S
O438 C434 1.260 . S
C439 O430 1.240 . S
C439 O431 1.252 . S
O440 In429 2.294 . S
O440 C433 1.240 . S
O441 In429 2.326 . S
O441 C433 1.252 . S
In442 O443 2.294 . S
In442 O444 2.326 . S
In442 O448 2.266 . S
In442 O449 2.326 . S
In442 O450 2.266 . S
In442 O451 2.326 . S
In442 O453 2.294 . S
In442 O454 2.326 . S
O443 In442 2.294 . S
O443 C452 1.240 . S
O444 In442 2.326 . S
O444 C452 1.252 . S
C445 O448 1.252 . S
C445 O449 1.260 . S
C446 O453 1.240 . S
C446 O454 1.252 . S
C447 O450 1.252 . S
C447 O451 1.260 . S
O448 In442 2.266 . S
O448 C445 1.252 . S
O449 In442 2.326 . S
O449 C445 1.260 . S
O450 In442 2.266 . S
O450 C447 1.252 . S
O451 In442 2.326 . S
O451 C447 1.260 . S
C452 O443 1.240 . S
C452 O444 1.252 . S
O453 In442 2.294 . S
O453 C446 1.240 . S
O454 In442 2.326 . S
O454 C446 1.252 . S
In455 O456 2.294 . S
In455 O457 2.326 . S
In455 O461 2.266 . S
In455 O462 2.326 . S
In455 O463 2.266 . S
In455 O464 2.326 . S
In455 O466 2.294 . S
In455 O467 2.326 . S
O456 In455 2.294 . S
O456 C465 1.240 . S
O457 In455 2.326 . S
O457 C465 1.252 . S
C458 O461 1.252 . S
C458 O462 1.260 . S
C459 O466 1.240 . S
C459 O467 1.252 . S
C460 O463 1.252 . S
C460 O464 1.260 . S
O461 In455 2.266 . S
O461 C458 1.252 . S
O462 In455 2.326 . S
O462 C458 1.260 . S
O463 In455 2.266 . S
O463 C460 1.252 . S
O464 In455 2.326 . S
O464 C460 1.260 . S
C465 O456 1.240 . S
C465 O457 1.252 . S
O466 In455 2.294 . S
O466 C459 1.240 . S
O467 In455 2.326 . S
O467 C459 1.252 . S
C468 C469 1.363 . S
C468 C474 1.379 . S
C468 N476 1.356 . S
C469 C468 1.363 . S
C469 C475 1.363 . S
C470 C471 1.359 1_455 S
C470 C475 1.398 . S
C470 N477 1.338 1_455 S
C471 C470 1.359 1_655 S
C471 C474 1.363 1_655 S
N472 C474 1.356 1_655 S
N472 H484 0.984 . S
N472 H485 0.985 . S
N473 C475 1.356 . S
N473 H478 0.984 . S
N473 H479 0.985 . S
C474 C468 1.379 . S
C474 C471 1.363 1_455 S
C474 N472 1.356 1_455 S
C475 C469 1.363 . S
C475 C470 1.398 . S
C475 N473 1.356 . S
N476 C468 1.356 . S
N476 H482 0.984 . S
N476 H483 0.984 . S
N477 C470 1.338 1_655 S
N477 H480 0.984 . S
N477 H481 0.985 . S
H478 N473 0.984 . S
H479 N473 0.985 . S
H480 N477 0.984 . S
H481 N477 0.985 . S
H482 N476 0.984 . S
H483 N476 0.984 . S
H484 N472 0.984 . S
H485 N472 0.985 . S
C486 C487 1.363 . S
C486 C492 1.379 . S
C486 N494 1.356 . S
C487 C486 1.363 . S
C487 C493 1.363 . S
C488 C489 1.363 . S
C488 C493 1.379 . S
C488 N495 1.356 . S
C489 C488 1.363 . S
C489 C492 1.363 . S
N490 C492 1.356 . S
N490 H502 0.984 . S
N490 H503 0.985 . S
N491 C493 1.356 . S
N491 H496 0.984 . S
N491 H497 0.985 1_565 S
C492 C486 1.379 . S
C492 C489 1.363 . S
C492 N490 1.356 . S
C493 C487 1.363 . S
C493 C488 1.379 . S
C493 N491 1.356 . S
N494 C486 1.356 . S
N494 H500 0.984 . S
N494 H501 0.984 . S
N495 C488 1.356 . S
N495 H498 0.984 . S
N495 H499 0.985 . S
H496 N491 0.984 . S
H497 N491 0.985 1_545 S
H498 N495 0.984 . S
H499 N495 0.985 . S
H500 N494 0.984 . S
H501 N494 0.984 . S
H502 N490 0.984 . S
H503 N490 0.985 . S
C504 C505 1.363 1_565 S
C504 C510 1.379 . S
C504 N512 1.356 1_565 S
C505 C504 1.363 1_545 S
C505 C511 1.363 1_545 S
C506 C507 1.363 . S
C506 C511 1.379 . S
C506 N513 1.356 . S
C507 C506 1.363 . S
C507 C510 1.363 . S
N508 C510 1.356 . S
N508 H520 0.984 . S
N508 H521 0.985 . S
N509 C511 1.356 1_545 S
N509 H514 0.984 . S
N509 H515 0.985 . S
C510 C504 1.379 . S
C510 C507 1.363 . S
C510 N508 1.356 . S
C511 C505 1.363 1_565 S
C511 C506 1.379 . S
C511 N509 1.356 1_565 S
N512 C504 1.356 1_545 S
N512 H518 0.984 . S
N512 H519 0.984 . S
N513 C506 1.356 . S
N513 H516 0.984 . S
N513 H517 0.985 . S
H514 N509 0.984 . S
H515 N509 0.985 . S
H516 N513 0.984 . S
H517 N513 0.985 . S
H518 N512 0.984 . S
H519 N512 0.984 . S
H520 N508 0.984 . S
H521 N508 0.985 . S
C522 C523 1.363 . S
C522 C528 1.379 . S
C522 N530 1.356 . S
C523 C522 1.363 . S
C523 C529 1.363 . S
C524 C525 1.363 . S
C524 C529 1.379 1_565 S
C524 N531 1.356 . S
C525 C524 1.363 . S
C525 C528 1.363 1_565 S
N526 C528 1.356 1_565 S
N526 H538 0.984 . S
N526 H539 0.985 . S
N527 C529 1.356 . S
N527 H532 0.984 . S
N527 H533 0.985 . S
C528 C522 1.379 . S
C528 C525 1.363 1_545 S
C528 N526 1.356 1_545 S
C529 C523 1.363 . S
C529 C524 1.379 1_545 S
C529 N527 1.356 . S
N530 C522 1.356 . S
N530 H536 0.984 . S
N530 H537 0.984 . S
N531 C524 1.356 . S
N531 H534 0.984 . S
N531 H535 0.985 . S
H532 N527 0.984 . S
H533 N527 0.985 . S
H534 N531 0.984 . S
H535 N531 0.985 . S
H536 N530 0.984 . S
H537 N530 0.984 . S
H538 N526 0.984 . S
H539 N526 0.985 . S
C540 C541 1.363 . S
C540 C546 1.379 . S
C540 N548 1.356 . S
C541 C540 1.363 . S
C541 C547 1.363 . S
C542 C543 1.363 . S
C542 C547 1.379 1_455 S
C542 N549 1.356 . S
C543 C542 1.363 . S
C543 C546 1.363 1_455 S
N544 C546 1.356 1_455 S
N544 H556 0.984 . S
N544 H557 0.985 . S
N545 C547 1.356 . S
N545 H550 0.984 . S
N545 H551 0.985 . S
C546 C540 1.379 . S
C546 C543 1.363 1_655 S
C546 N544 1.356 1_655 S
C547 C541 1.363 . S
C547 C542 1.379 1_655 S
C547 N545 1.356 . S
N548 C540 1.356 . S
N548 H554 0.984 . S
N548 H555 0.984 . S
N549 C542 1.356 . S
N549 H552 0.984 . S
N549 H553 0.985 . S
H550 N545 0.984 . S
H551 N545 0.985 . S
H552 N549 0.984 . S
H553 N549 0.985 . S
H554 N548 0.984 . S
H555 N548 0.984 . S
H556 N544 0.984 . S
H557 N544 0.985 . S
C558 C559 1.363 . S
C558 C564 1.379 . S
C558 N566 1.356 . S
C559 C558 1.363 . S
C559 C565 1.363 . S
C560 C561 1.363 . S
C560 C565 1.379 . S
C560 N567 1.356 . S
C561 C560 1.363 . S
C561 C564 1.363 . S
N562 C564 1.356 . S
N562 H574 0.984 . S
N562 H575 0.985 . S
N563 C565 1.356 . S
N563 H568 0.984 . S
N563 H569 0.985 . S
C564 C558 1.379 . S
C564 C561 1.363 . S
C564 N562 1.356 . S
C565 C559 1.363 . S
C565 C560 1.379 . S
C565 N563 1.356 . S
N566 C558 1.356 . S
N566 H572 0.984 . S
N566 H573 0.984 . S
N567 C560 1.356 . S
N567 H570 0.984 . S
N567 H571 0.985 . S
H568 N563 0.984 . S
H569 N563 0.985 . S
H570 N567 0.984 . S
H571 N567 0.985 . S
H572 N566 0.984 . S
H573 N566 0.984 . S
H574 N562 0.984 . S
H575 N562 0.985 . S
C576 C577 1.363 . S
C576 C582 1.379 . S
C576 N584 1.356 . S
C577 C576 1.363 . S
C577 C583 1.363 . S
C578 C579 1.363 1_655 S
C578 C583 1.379 . S
C578 N585 1.356 1_655 S
C579 C578 1.363 1_455 S
C579 C582 1.363 1_455 S
N580 C582 1.356 1_455 S
N580 H592 0.984 . S
N580 H593 0.985 . S
N581 C583 1.356 . S
N581 H586 0.984 . S
N581 H587 0.985 . S
C582 C576 1.379 . S
C582 C579 1.363 1_655 S
C582 N580 1.356 1_655 S
C583 C577 1.363 . S
C583 C578 1.379 . S
C583 N581 1.356 . S
N584 C576 1.356 . S
N584 H590 0.984 . S
N584 H591 0.984 . S
N585 C578 1.356 1_455 S
N585 H588 0.984 . S
N585 H589 0.985 . S
H586 N581 0.984 . S
H587 N581 0.985 . S
H588 N585 0.984 . S
H589 N585 0.985 . S
H590 N584 0.984 . S
H591 N584 0.984 . S
H592 N580 0.984 . S
H593 N580 0.985 . S
C594 C595 1.363 . S
C594 C600 1.379 . S
C594 N602 1.356 . S
C595 C594 1.363 . S
C595 C601 1.363 . S
C596 C597 1.363 . S
C596 C601 1.379 . S
C596 N603 1.356 . S
C597 C596 1.363 . S
C597 C600 1.363 . S
N598 C600 1.356 . S
N598 H610 0.984 . S
N598 H611 0.985 . S
N599 C601 1.356 . S
N599 H604 0.984 . S
N599 H605 0.985 . S
C600 C594 1.379 . S
C600 C597 1.363 . S
C600 N598 1.356 . S
C601 C595 1.363 . S
C601 C596 1.379 . S
C601 N599 1.356 . S
N602 C594 1.356 . S
N602 H608 0.984 . S
N602 H609 0.984 . S
N603 C596 1.356 . S
N603 H606 0.984 . S
N603 H607 0.985 . S
H604 N599 0.984 . S
H605 N599 0.985 . S
H606 N603 0.984 . S
H607 N603 0.985 . S
H608 N602 0.984 . S
H609 N602 0.984 . S
H610 N598 0.984 . S
H611 N598 0.985 . S
C612 C613 1.353 1_545 S
C612 C618 1.393 . S
C612 N620 1.349 1_545 S
C613 C612 1.353 1_565 S
C613 C619 1.363 1_565 S
C614 C615 1.363 . S
C614 C619 1.379 . S
C614 N621 1.356 . S
C615 C614 1.363 . S
C615 C618 1.363 . S
N616 C618 1.356 . S
N616 H628 0.984 . S
N616 H629 0.985 . S
N617 C619 1.356 1_565 S
N617 H622 0.984 . S
N617 H623 0.985 . S
C618 C612 1.393 . S
C618 C615 1.363 . S
C618 N616 1.356 . S
C619 C613 1.363 1_545 S
C619 C614 1.379 . S
C619 N617 1.356 1_545 S
N620 C612 1.349 1_565 S
N620 H626 0.984 . S
N620 H627 0.984 . S
N621 C614 1.356 . S
N621 H624 0.984 . S
N621 H625 0.985 . S
H622 N617 0.984 . S
H623 N617 0.985 . S
H624 N621 0.984 . S
H625 N621 0.985 . S
H626 N620 0.984 . S
H627 N620 0.984 . S
H628 N616 0.984 . S
H629 N616 0.985 . S
C630 C631 1.363 1_565 S
C630 C636 1.379 . S
C630 N638 1.356 1_565 S
C631 C630 1.363 1_545 S
C631 C637 1.363 . S
C632 C633 1.363 . S
C632 C637 1.379 1_565 S
C632 N639 1.356 . S
C633 C632 1.363 . S
C633 C636 1.363 . S
N634 C636 1.356 . S
N634 H646 0.984 . S
N634 H647 0.985 . S
N635 C637 1.356 . S
N635 H640 0.984 . S
N635 H641 0.985 . S
C636 C630 1.379 . S
C636 C633 1.363 . S
C636 N634 1.356 . S
C637 C631 1.363 . S
C637 C632 1.379 1_545 S
C637 N635 1.356 . S
N638 C630 1.356 1_545 S
N638 H644 0.984 . S
N638 H645 0.984 . S
N639 C632 1.356 . S
N639 H642 0.984 . S
N639 H643 0.985 . S
H640 N635 0.984 . S
H641 N635 0.985 . S
H642 N639 0.984 . S
H643 N639 0.985 . S
H644 N638 0.984 . S
H645 N638 0.984 . S
H646 N634 0.984 . S
H647 N634 0.985 . S
C648 C649 1.363 . S
C648 C654 1.408 . S
C648 N656 1.356 . S
C649 C648 1.363 . S
C649 C655 1.363 . S
C650 C651 1.363 1_455 S
C650 C655 1.379 . S
C650 N657 1.356 1_455 S
C651 C650 1.363 1_655 S
C651 C654 1.354 1_655 S
N652 C654 1.330 1_655 S
N652 H664 0.984 . S
N652 H665 0.985 . S
N653 C655 1.356 . S
N653 H658 0.984 . S
N653 H659 0.985 . S
C654 C648 1.408 . S
C654 C651 1.354 1_455 S
C654 N652 1.330 1_455 S
C655 C649 1.363 . S
C655 C650 1.379 . S
C655 N653 1.356 . S
N656 C648 1.356 . S
N656 H662 0.984 . S
N656 H663 0.984 . S
N657 C650 1.356 1_655 S
N657 H660 0.984 . S
N657 H661 0.985 . S
H658 N653 0.984 . S
H659 N653 0.985 . S
H660 N657 0.984 . S
H661 N657 0.985 . S
H662 N656 0.984 . S
H663 N656 0.984 . S
H664 N652 0.984 . S
H665 N652 0.985 . S
C666 C667 1.363 . S
C666 C672 1.379 . S
C666 N674 1.356 . S
C667 C666 1.363 . S
C667 C673 1.363 . S
C668 C669 1.363 . S
C668 C673 1.379 . S
C668 N675 1.356 . S
C669 C668 1.363 . S
C669 C672 1.363 . S
N670 C672 1.356 . S
N670 H682 0.984 . S
N670 H683 0.985 . S
N671 C673 1.356 . S
N671 H676 0.984 . S
N671 H677 0.985 . S
C672 C666 1.379 . S
C672 C669 1.363 . S
C672 N670 1.356 . S
C673 C667 1.363 . S
C673 C668 1.379 . S
C673 N671 1.356 . S
N674 C666 1.356 . S
N674 H680 0.984 . S
N674 H681 0.984 . S
N675 C668 1.356 . S
N675 H678 0.984 . S
N675 H679 0.985 . S
H676 N671 0.984 . S
H677 N671 0.985 . S
H678 N675 0.984 . S
H679 N675 0.985 . S
H680 N674 0.984 . S
H681 N674 0.984 . S
H682 N670 0.984 . S
H683 N670 0.985 . S
C684 C685 1.363 . S
C684 C690 1.379 . S
C684 N692 1.356 . S
C685 C684 1.363 . S
C685 C691 1.363 . S
C686 C687 1.363 . S
C686 C691 1.379 . S
C686 N693 1.356 . S
C687 C686 1.363 . S
C687 C690 1.363 . S
N688 C690 1.356 . S
N688 H700 0.984 . S
N688 H701 0.985 . S
N689 C691 1.356 . S
N689 H694 0.984 . S
N689 H695 0.985 . S
C690 C684 1.379 . S
C690 C687 1.363 . S
C690 N688 1.356 . S
C691 C685 1.363 . S
C691 C686 1.379 . S
C691 N689 1.356 . S
N692 C684 1.356 . S
N692 H698 0.984 . S
N692 H699 0.984 . S
N693 C686 1.356 . S
N693 H696 0.984 . S
N693 H697 0.985 . S
H694 N689 0.984 . S
H695 N689 0.985 . S
H696 N693 0.984 . S
H697 N693 0.985 . S
H698 N692 0.984 . S
H699 N692 0.984 . S
H700 N688 0.984 . S
H701 N688 0.985 . S
C702 C703 1.363 . S
C702 C708 1.379 . S
C702 N710 1.356 . S
C703 C702 1.363 . S
C703 C709 1.363 . S
C704 C705 1.363 . S
C704 C709 1.379 . S
C704 N711 1.356 . S
C705 C704 1.363 . S
C705 C708 1.363 . S
N706 C708 1.356 . S
N706 H718 0.984 . S
N706 H719 0.985 . S
N707 C709 1.356 . S
N707 H712 0.984 . S
N707 H713 0.985 . S
C708 C702 1.379 . S
C708 C705 1.363 . S
C708 N706 1.356 . S
C709 C703 1.363 . S
C709 C704 1.379 . S
C709 N707 1.356 . S
N710 C702 1.356 . S
N710 H716 0.984 . S
N710 H717 0.984 . S
N711 C704 1.356 . S
N711 H714 0.984 . S
N711 H715 0.985 . S
H712 N707 0.984 . S
H713 N707 0.985 . S
H714 N711 0.984 . S
H715 N711 0.985 . S
H716 N710 0.984 . S
H717 N710 0.984 . S
H718 N706 0.984 . S
H719 N706 0.985 . S
C720 C721 1.363 . S
C720 C726 1.379 . S
C720 N728 1.356 . S
C721 C720 1.363 . S
C721 C727 1.363 . S
C722 C723 1.363 . S
C722 C727 1.379 . S
C722 N729 1.356 . S
C723 C722 1.363 . S
C723 C726 1.363 . S
N724 C726 1.356 . S
N724 H736 0.984 . S
N724 H737 0.985 . S
N725 C727 1.356 . S
N725 H730 0.984 . S
N725 H731 0.985 . S
C726 C720 1.379 . S
C726 C723 1.363 . S
C726 N724 1.356 . S
C727 C721 1.363 . S
C727 C722 1.379 . S
C727 N725 1.356 . S
N728 C720 1.356 . S
N728 H734 0.984 . S
N728 H735 0.984 . S
N729 C722 1.356 . S
N729 H732 0.984 . S
N729 H733 0.985 . S
H730 N725 0.984 . S
H731 N725 0.985 . S
H732 N729 0.984 . S
H733 N729 0.985 . S
H734 N728 0.984 . S
H735 N728 0.984 . S
H736 N724 0.984 . S
H737 N724 0.985 . S
C738 C739 1.363 . S
C738 C744 1.379 . S
C738 N746 1.356 . S
C739 C738 1.363 . S
C739 C745 1.363 . S
C740 C741 1.363 . S
C740 C745 1.379 . S
C740 N747 1.356 . S
C741 C740 1.363 . S
C741 C744 1.363 . S
N742 C744 1.356 . S
N742 H754 0.984 . S
N742 H755 0.985 . S
N743 C745 1.356 . S
N743 H748 0.984 . S
N743 H749 0.985 . S
C744 C738 1.379 . S
C744 C741 1.363 . S
C744 N742 1.356 . S
C745 C739 1.363 . S
C745 C740 1.379 . S
C745 N743 1.356 . S
N746 C738 1.356 . S
N746 H752 0.984 . S
N746 H753 0.984 . S
N747 C740 1.356 . S
N747 H750 0.984 . S
N747 H751 0.985 . S
H748 N743 0.984 . S
H749 N743 0.985 . S
H750 N747 0.984 . S
H751 N747 0.985 . S
H752 N746 0.984 . S
H753 N746 0.984 . S
H754 N742 0.984 . S
H755 N742 0.985 . S
C756 C757 1.363 . S
C756 C762 1.379 . S
C756 N764 1.356 . S
C757 C756 1.363 . S
C757 C763 1.363 . S
C758 C759 1.363 . S
C758 C763 1.379 . S
C758 N765 1.356 . S
C759 C758 1.363 . S
C759 C762 1.363 . S
N760 C762 1.356 . S
N760 H772 0.984 . S
N760 H773 0.985 . S
N761 C763 1.356 . S
N761 H766 0.984 . S
N761 H767 0.985 . S
C762 C756 1.379 . S
C762 C759 1.363 . S
C762 N760 1.356 . S
C763 C757 1.363 . S
C763 C758 1.379 . S
C763 N761 1.356 . S
N764 C756 1.356 . S
N764 H770 0.984 . S
N764 H771 0.984 . S
N765 C758 1.356 . S
N765 H768 0.984 . S
N765 H769 0.985 . S
H766 N761 0.984 . S
H767 N761 0.985 . S
H768 N765 0.984 . S
H769 N765 0.985 . S
H770 N764 0.984 . S
H771 N764 0.984 . S
H772 N760 0.984 . S
H773 N760 0.985 . S
C774 C775 1.363 . S
C774 C780 1.379 . S
C774 N782 1.356 . S
C775 C774 1.363 . S
C775 C781 1.363 . S
C776 C777 1.363 . S
C776 C781 1.379 . S
C776 N783 1.356 . S
C777 C776 1.363 . S
C777 C780 1.363 . S
N778 C780 1.356 . S
N778 H790 0.984 . S
N778 H791 0.985 . S
N779 C781 1.356 . S
N779 H784 0.984 . S
N779 H785 0.985 . S
C780 C774 1.379 . S
C780 C777 1.363 . S
C780 N778 1.356 . S
C781 C775 1.363 . S
C781 C776 1.379 . S
C781 N779 1.356 . S
N782 C774 1.356 . S
N782 H788 0.984 . S
N782 H789 0.984 . S
N783 C776 1.356 . S
N783 H786 0.984 . S
N783 H787 0.985 . S
H784 N779 0.984 . S
H785 N779 0.985 . S
H786 N783 0.984 . S
H787 N783 0.985 . S
H788 N782 0.984 . S
H789 N782 0.984 . S
H790 N778 0.984 . S
H791 N778 0.985 . S
C792 C793 1.363 . S
C792 C798 1.379 . S
C792 N800 1.356 . S
C793 C792 1.363 . S
C793 C799 1.363 . S
C794 C795 1.363 . S
C794 C799 1.379 . S
C794 N801 1.356 . S
C795 C794 1.363 . S
C795 C798 1.363 . S
N796 C798 1.356 . S
N796 H808 0.984 . S
N796 H809 0.985 . S
N797 C799 1.356 . S
N797 H802 0.984 . S
N797 H803 0.985 . S
C798 C792 1.379 . S
C798 C795 1.363 . S
C798 N796 1.356 . S
C799 C793 1.363 . S
C799 C794 1.379 . S
C799 N797 1.356 . S
N800 C792 1.356 . S
N800 H806 0.984 . S
N800 H807 0.984 . S
N801 C794 1.356 . S
N801 H804 0.984 . S
N801 H805 0.985 . S
H802 N797 0.984 . S
H803 N797 0.985 . S
H804 N801 0.984 . S
H805 N801 0.985 . S
H806 N800 0.984 . S
H807 N800 0.984 . S
H808 N796 0.984 . S
H809 N796 0.985 . S
C810 C811 1.363 . S
C810 C816 1.379 . S
C810 N818 1.356 . S
C811 C810 1.363 . S
C811 C817 1.363 . S
C812 C813 1.363 . S
C812 C817 1.379 . S
C812 N819 1.356 . S
C813 C812 1.363 . S
C813 C816 1.363 . S
N814 C816 1.356 . S
N814 H826 0.984 . S
N814 H827 0.985 . S
N815 C817 1.356 . S
N815 H820 0.984 . S
N815 H821 0.985 . S
C816 C810 1.379 . S
C816 C813 1.363 . S
C816 N814 1.356 . S
C817 C811 1.363 . S
C817 C812 1.379 . S
C817 N815 1.356 . S
N818 C810 1.356 . S
N818 H824 0.984 . S
N818 H825 0.984 . S
N819 C812 1.356 . S
N819 H822 0.984 . S
N819 H823 0.985 . S
H820 N815 0.984 . S
H821 N815 0.985 . S
H822 N819 0.984 . S
H823 N819 0.985 . S
H824 N818 0.984 . S
H825 N818 0.984 . S
H826 N814 0.984 . S
H827 N814 0.985 . S
C828 C829 1.363 . S
C828 C834 1.379 . S
C828 N836 1.356 . S
C829 C828 1.363 . S
C829 C835 1.363 . S
C830 C831 1.363 . S
C830 C835 1.379 . S
C830 N837 1.356 . S
C831 C830 1.363 . S
C831 C834 1.363 . S
N832 C834 1.356 . S
N832 H844 0.984 . S
N832 H845 0.985 . S
N833 C835 1.356 . S
N833 H838 0.984 . S
N833 H839 0.985 . S
C834 C828 1.379 . S
C834 C831 1.363 . S
C834 N832 1.356 . S
C835 C829 1.363 . S
C835 C830 1.379 . S
C835 N833 1.356 . S
N836 C828 1.356 . S
N836 H842 0.984 . S
N836 H843 0.984 . S
N837 C830 1.356 . S
N837 H840 0.984 . S
N837 H841 0.985 . S
H838 N833 0.984 . S
H839 N833 0.985 . S
H840 N837 0.984 . S
H841 N837 0.985 . S
H842 N836 0.984 . S
H843 N836 0.984 . S
H844 N832 0.984 . S
H845 N832 0.985 . S
C846 C847 1.363 . S
C846 C852 1.379 . S
C846 N854 1.356 1_556 S
C847 C846 1.363 . S
C847 C853 1.363 . S
C848 C849 1.363 . S
C848 C853 1.379 . S
C848 N855 1.356 . S
C849 C848 1.363 . S
C849 C852 1.363 . S
N850 C852 1.356 1_554 S
N850 H862 0.984 . S
N850 H863 0.985 . S
N851 C853 1.356 . S
N851 H856 0.984 . S
N851 H857 0.985 . S
C852 C846 1.379 . S
C852 C849 1.363 . S
C852 N850 1.356 1_556 S
C853 C847 1.363 . S
C853 C848 1.379 . S
C853 N851 1.356 . S
N854 C846 1.356 1_554 S
N854 H860 0.984 . S
N854 H861 0.984 . S
N855 C848 1.356 . S
N855 H858 0.984 . S
N855 H859 0.985 . S
H856 N851 0.984 . S
H857 N851 0.985 . S
H858 N855 0.984 . S
H859 N855 0.985 . S
H860 N854 0.984 . S
H861 N854 0.984 . S
H862 N850 0.984 . S
H863 N850 0.985 . S
C864 C865 1.363 . S
C864 C870 1.379 . S
C864 N872 1.356 . S
C865 C864 1.363 . S
C865 C871 1.363 . S
C866 C867 1.363 . S
C866 C871 1.379 . S
C866 N873 1.356 1_556 S
C867 C866 1.363 . S
C867 C870 1.363 . S
N868 C870 1.356 . S
N868 H880 0.984 . S
N868 H881 0.985 . S
N869 C871 1.356 1_554 S
N869 H874 0.984 . S
N869 H875 0.985 . S
C870 C864 1.379 . S
C870 C867 1.363 . S
C870 N868 1.356 . S
C871 C865 1.363 . S
C871 C866 1.379 . S
C871 N869 1.356 1_556 S
N872 C864 1.356 . S
N872 H878 0.984 . S
N872 H879 0.984 . S
N873 C866 1.356 1_554 S
N873 H876 0.984 . S
N873 H877 0.985 . S
H874 N869 0.984 . S
H875 N869 0.985 . S
H876 N873 0.984 . S
H877 N873 0.985 . S
H878 N872 0.984 . S
H879 N872 0.984 . S
H880 N868 0.984 . S
H881 N868 0.985 . S
C882 C883 1.363 . S
C882 C888 1.379 . S
C882 N890 1.356 1_556 S
C883 C882 1.363 . S
C883 C889 1.363 . S
C884 C885 1.363 . S
C884 C889 1.379 . S
C884 N891 1.356 . S
C885 C884 1.363 . S
C885 C888 1.363 . S
N886 C888 1.356 1_554 S
N886 H898 0.984 . S
N886 H899 0.985 . S
N887 C889 1.356 . S
N887 H892 0.984 . S
N887 H893 0.985 . S
C888 C882 1.379 . S
C888 C885 1.363 . S
C888 N886 1.356 1_556 S
C889 C883 1.363 . S
C889 C884 1.379 . S
C889 N887 1.356 . S
N890 C882 1.356 1_554 S
N890 H896 0.984 . S
N890 H897 0.984 . S
N891 C884 1.356 . S
N891 H894 0.984 . S
N891 H895 0.985 . S
H892 N887 0.984 . S
H893 N887 0.985 . S
H894 N891 0.984 . S
H895 N891 0.985 . S
H896 N890 0.984 . S
H897 N890 0.984 . S
H898 N886 0.984 . S
H899 N886 0.985 . S
C900 C901 1.363 . S
C900 C906 1.379 . S
C900 N908 1.356 . S
C901 C900 1.363 . S
C901 C907 1.363 . S
C902 C903 1.363 . S
C902 C907 1.379 . S
C902 N909 1.356 . S
C903 C902 1.363 . S
C903 C906 1.363 . S
N904 C906 1.356 . S
N904 H916 0.984 . S
N904 H917 0.985 . S
N905 C907 1.356 . S
N905 H910 0.984 . S
N905 H911 0.985 . S
C906 C900 1.379 . S
C906 C903 1.363 . S
C906 N904 1.356 . S
C907 C901 1.363 . S
C907 C902 1.379 . S
C907 N905 1.356 . S
N908 C900 1.356 . S
N908 H914 0.984 . S
N908 H915 0.984 . S
N909 C902 1.356 . S
N909 H912 0.984 . S
N909 H913 0.985 . S
H910 N905 0.984 . S
H911 N905 0.985 . S
H912 N909 0.984 . S
H913 N909 0.985 . S
H914 N908 0.984 . S
H915 N908 0.984 . S
H916 N904 0.984 . S
H917 N904 0.985 . S
C918 C919 1.363 . S
C918 C924 1.379 . S
C918 N926 1.356 . S
C919 C918 1.363 . S
C919 C925 1.363 . S
C920 C921 1.363 . S
C920 C925 1.379 . S
C920 N927 1.356 . S
C921 C920 1.363 . S
C921 C924 1.363 . S
N922 C924 1.356 . S
N922 H934 0.984 . S
N922 H935 0.985 . S
N923 C925 1.356 . S
N923 H928 0.984 . S
N923 H929 0.985 . S
C924 C918 1.379 . S
C924 C921 1.363 . S
C924 N922 1.356 . S
C925 C919 1.363 . S
C925 C920 1.379 . S
C925 N923 1.356 . S
N926 C918 1.356 . S
N926 H932 0.984 . S
N926 H933 0.984 . S
N927 C920 1.356 . S
N927 H930 0.984 . S
N927 H931 0.985 . S
H928 N923 0.984 . S
H929 N923 0.985 . S
H930 N927 0.984 . S
H931 N927 0.985 . S
H932 N926 0.984 . S
H933 N926 0.984 . S
H934 N922 0.984 . S
H935 N922 0.985 . S
C936 C937 1.363 . S
C936 C942 1.379 . S
C936 N944 1.356 . S
C937 C936 1.363 . S
C937 C943 1.363 . S
C938 C939 1.363 . S
C938 C943 1.379 . S
C938 N945 1.356 . S
C939 C938 1.363 . S
C939 C942 1.363 . S
N940 C942 1.356 . S
N940 H952 0.984 . S
N940 H953 0.985 . S
N941 C943 1.356 . S
N941 H946 0.984 . S
N941 H947 0.985 . S
C942 C936 1.379 . S
C942 C939 1.363 . S
C942 N940 1.356 . S
C943 C937 1.363 . S
C943 C938 1.379 . S
C943 N941 1.356 . S
N944 C936 1.356 . S
N944 H950 0.984 . S
N944 H951 0.984 . S
N945 C938 1.356 . S
N945 H948 0.984 . S
N945 H949 0.985 . S
H946 N941 0.984 . S
H947 N941 0.985 . S
H948 N945 0.984 . S
H949 N945 0.985 . S
H950 N944 0.984 . S
H951 N944 0.984 . S
H952 N940 0.984 . S
H953 N940 0.985 . S
C954 C955 1.363 . S
C954 C960 1.379 . S
C954 N962 1.356 1_554 S
C955 C954 1.363 . S
C955 C961 1.363 . S
C956 C957 1.363 . S
C956 C961 1.379 . S
C956 N963 1.356 . S
C957 C956 1.363 . S
C957 C960 1.363 . S
N958 C960 1.356 1_556 S
N958 H970 0.984 . S
N958 H971 0.985 . S
N959 C961 1.356 . S
N959 H964 0.984 . S
N959 H965 0.985 . S
C960 C954 1.379 . S
C960 C957 1.363 . S
C960 N958 1.356 1_554 S
C961 C955 1.363 . S
C961 C956 1.379 . S
C961 N959 1.356 . S
N962 C954 1.356 1_556 S
N962 H968 0.984 . S
N962 H969 0.984 . S
N963 C956 1.356 . S
N963 H966 0.984 . S
N963 H967 0.985 . S
H964 N959 0.984 . S
H965 N959 0.985 . S
H966 N963 0.984 . S
H967 N963 0.985 . S
H968 N962 0.984 . S
H969 N962 0.984 . S
H970 N958 0.984 . S
H971 N958 0.985 . S
C972 C973 1.363 . S
C972 C978 1.379 . S
C972 N980 1.356 1_554 S
C973 C972 1.363 . S
C973 C979 1.363 . S
C974 C975 1.363 . S
C974 C979 1.379 . S
C974 N981 1.356 . S
C975 C974 1.363 . S
C975 C978 1.363 . S
N976 C978 1.356 1_556 S
N976 H988 0.984 . S
N976 H989 0.985 . S
N977 C979 1.356 . S
N977 H982 0.984 . S
N977 H983 0.985 . S
C978 C972 1.379 . S
C978 C975 1.363 . S
C978 N976 1.356 1_554 S
C979 C973 1.363 . S
C979 C974 1.379 . S
C979 N977 1.356 . S
N980 C972 1.356 1_556 S
N980 H986 0.984 . S
N980 H987 0.984 . S
N981 C974 1.356 . S
N981 H984 0.984 . S
N981 H985 0.985 . S
H982 N977 0.984 . S
H983 N977 0.985 . S
H984 N981 0.984 . S
H985 N981 0.985 . S
H986 N980 0.984 . S
H987 N980 0.984 . S
H988 N976 0.984 . S
H989 N976 0.985 . S
C990 C991 1.363 . S
C990 C996 1.379 . S
C990 N998 1.356 1_554 S
C991 C990 1.363 . S
C991 C997 1.363 . S
C992 C993 1.363 . S
C992 C997 1.379 . S
C992 N999 1.356 . S
C993 C992 1.363 . S
C993 C996 1.363 . S
N994 C996 1.356 1_556 S
N994 H1006 0.984 . S
N994 H1007 0.985 . S
N995 C997 1.356 . S
N995 H1000 0.984 . S
N995 H1001 0.985 . S
C996 C990 1.379 . S
C996 C993 1.363 . S
C996 N994 1.356 1_554 S
C997 C991 1.363 . S
C997 C992 1.379 . S
C997 N995 1.356 . S
N998 C990 1.356 1_556 S
N998 H1004 0.984 . S
N998 H1005 0.984 . S
N999 C992 1.356 . S
N999 H1002 0.984 . S
N999 H1003 0.985 . S
H1000 N995 0.984 . S
H1001 N995 0.985 . S
H1002 N999 0.984 . S
H1003 N999 0.985 . S
H1004 N998 0.984 . S
H1005 N998 0.984 . S
H1006 N994 0.984 . S
H1007 N994 0.985 . S
C1008 C1009 1.363 . S
C1008 C1014 1.379 . S
C1008 N1016 1.356 . S
C1009 C1008 1.363 . S
C1009 C1015 1.363 . S
C1010 C1011 1.363 . S
C1010 C1015 1.379 . S
C1010 N1017 1.356 . S
C1011 C1010 1.363 . S
C1011 C1014 1.363 . S
N1012 C1014 1.356 . S
N1012 H1024 0.984 . S
N1012 H1025 0.985 . S
N1013 C1015 1.356 . S
N1013 H1018 0.984 . S
N1013 H1019 0.985 . S
C1014 C1008 1.379 . S
C1014 C1011 1.363 . S
C1014 N1012 1.356 . S
C1015 C1009 1.363 . S
C1015 C1010 1.379 . S
C1015 N1013 1.356 . S
N1016 C1008 1.356 . S
N1016 H1022 0.984 . S
N1016 H1023 0.984 . S
N1017 C1010 1.356 . S
N1017 H1020 0.984 . S
N1017 H1021 0.985 . S
H1018 N1013 0.984 . S
H1019 N1013 0.985 . S
H1020 N1017 0.984 . S
H1021 N1017 0.985 . S
H1022 N1016 0.984 . S
H1023 N1016 0.984 . S
H1024 N1012 0.984 . S
H1025 N1012 0.985 . S
C1026 C1027 1.363 . S
C1026 C1032 1.379 . S
C1026 N1034 1.356 . S
C1027 C1026 1.363 . S
C1027 C1033 1.363 . S
C1028 C1029 1.363 . S
C1028 C1033 1.379 . S
C1028 N1035 1.356 . S
C1029 C1028 1.363 . S
C1029 C1032 1.363 . S
N1030 C1032 1.356 . S
N1030 H1042 0.984 . S
N1030 H1043 0.985 . S
N1031 C1033 1.356 . S
N1031 H1036 0.984 . S
N1031 H1037 0.985 . S
C1032 C1026 1.379 . S
C1032 C1029 1.363 . S
C1032 N1030 1.356 . S
C1033 C1027 1.363 . S
C1033 C1028 1.379 . S
C1033 N1031 1.356 . S
N1034 C1026 1.356 . S
N1034 H1040 0.984 . S
N1034 H1041 0.984 . S
N1035 C1028 1.356 . S
N1035 H1038 0.984 . S
N1035 H1039 0.985 . S
H1036 N1031 0.984 . S
H1037 N1031 0.985 . S
H1038 N1035 0.984 . S
H1039 N1035 0.985 . S
H1040 N1034 0.984 . S
H1041 N1034 0.984 . S
H1042 N1030 0.984 . S
H1043 N1030 0.985 . S
C1044 C1045 1.363 . S
C1044 C1050 1.379 . S
C1044 N1052 1.356 . S
C1045 C1044 1.363 . S
C1045 C1051 1.363 . S
C1046 C1047 1.363 . S
C1046 C1051 1.379 . S
C1046 N1053 1.356 . S
C1047 C1046 1.363 . S
C1047 C1050 1.363 . S
N1048 C1050 1.356 . S
N1048 H1060 0.984 . S
N1048 H1061 0.985 . S
N1049 C1051 1.356 . S
N1049 H1054 0.984 . S
N1049 H1055 0.985 . S
C1050 C1044 1.379 . S
C1050 C1047 1.363 . S
C1050 N1048 1.356 . S
C1051 C1045 1.363 . S
C1051 C1046 1.379 . S
C1051 N1049 1.356 . S
N1052 C1044 1.356 . S
N1052 H1058 0.984 . S
N1052 H1059 0.984 . S
N1053 C1046 1.356 . S
N1053 H1056 0.984 . S
N1053 H1057 0.985 . S
H1054 N1049 0.984 . S
H1055 N1049 0.985 . S
H1056 N1053 0.984 . S
H1057 N1053 0.985 . S
H1058 N1052 0.984 . S
H1059 N1052 0.984 . S
H1060 N1048 0.984 . S
H1061 N1048 0.985 . S
C1062 C1063 1.363 . S
C1062 C1068 1.379 . S
C1062 N1070 1.356 . S
C1063 C1062 1.363 . S
C1063 C1069 1.363 . S
C1064 C1065 1.363 . S
C1064 C1069 1.379 . S
C1064 N1071 1.356 . S
C1065 C1064 1.363 . S
C1065 C1068 1.363 . S
N1066 C1068 1.356 . S
N1066 H1078 0.984 . S
N1066 H1079 0.985 . S
N1067 C1069 1.356 . S
N1067 H1072 0.984 . S
N1067 H1073 0.985 . S
C1068 C1062 1.379 . S
C1068 C1065 1.363 . S
C1068 N1066 1.356 . S
C1069 C1063 1.363 . S
C1069 C1064 1.379 . S
C1069 N1067 1.356 . S
N1070 C1062 1.356 . S
N1070 H1076 0.984 . S
N1070 H1077 0.984 . S
N1071 C1064 1.356 . S
N1071 H1074 0.984 . S
N1071 H1075 0.985 . S
H1072 N1067 0.984 . S
H1073 N1067 0.985 . S
H1074 N1071 0.984 . S
H1075 N1071 0.985 . S
H1076 N1070 0.984 . S
H1077 N1070 0.984 . S
H1078 N1066 0.984 . S
H1079 N1066 0.985 . S
C1080 C1081 1.363 . S
C1080 C1086 1.379 . S
C1080 N1088 1.356 . S
C1081 C1080 1.363 . S
C1081 C1087 1.363 . S
C1082 C1083 1.363 . S
C1082 C1087 1.379 . S
C1082 N1089 1.356 . S
C1083 C1082 1.363 . S
C1083 C1086 1.363 . S
N1084 C1086 1.356 . S
N1084 H1096 0.984 . S
N1084 H1097 0.985 . S
N1085 C1087 1.356 . S
N1085 H1090 0.984 . S
N1085 H1091 0.985 . S
C1086 C1080 1.379 . S
C1086 C1083 1.363 . S
C1086 N1084 1.356 . S
C1087 C1081 1.363 . S
C1087 C1082 1.379 . S
C1087 N1085 1.356 . S
N1088 C1080 1.356 . S
N1088 H1094 0.984 . S
N1088 H1095 0.984 . S
N1089 C1082 1.356 . S
N1089 H1092 0.984 . S
N1089 H1093 0.985 . S
H1090 N1085 0.984 . S
H1091 N1085 0.985 . S
H1092 N1089 0.984 . S
H1093 N1089 0.985 . S
H1094 N1088 0.984 . S
H1095 N1088 0.984 . S
H1096 N1084 0.984 . S
H1097 N1084 0.985 . S
C1098 C1099 1.363 . S
C1098 C1104 1.379 . S
C1098 N1106 1.356 . S
C1099 C1098 1.363 . S
C1099 C1105 1.363 . S
C1100 C1101 1.363 . S
C1100 C1105 1.379 . S
C1100 N1107 1.356 . S
C1101 C1100 1.363 . S
C1101 C1104 1.363 . S
N1102 C1104 1.356 . S
N1102 H1114 0.984 . S
N1102 H1115 0.985 . S
N1103 C1105 1.356 . S
N1103 H1108 0.984 . S
N1103 H1109 0.985 . S
C1104 C1098 1.379 . S
C1104 C1101 1.363 . S
C1104 N1102 1.356 . S
C1105 C1099 1.363 . S
C1105 C1100 1.379 . S
C1105 N1103 1.356 . S
N1106 C1098 1.356 . S
N1106 H1112 0.984 . S
N1106 H1113 0.984 . S
N1107 C1100 1.356 . S
N1107 H1110 0.984 . S
N1107 H1111 0.985 . S
H1108 N1103 0.984 . S
H1109 N1103 0.985 . S
H1110 N1107 0.984 . S
H1111 N1107 0.985 . S
H1112 N1106 0.984 . S
H1113 N1106 0.984 . S
H1114 N1102 0.984 . S
H1115 N1102 0.985 . S
C1116 C1117 1.363 . S
C1116 C1122 1.379 . S
C1116 N1124 1.356 . S
C1117 C1116 1.363 . S
C1117 C1123 1.363 . S
C1118 C1119 1.363 . S
C1118 C1123 1.379 . S
C1118 N1125 1.356 . S
C1119 C1118 1.363 . S
C1119 C1122 1.363 . S
N1120 C1122 1.356 . S
N1120 H1132 0.984 . S
N1120 H1133 0.985 . S
N1121 C1123 1.356 . S
N1121 H1126 0.984 . S
N1121 H1127 0.985 . S
C1122 C1116 1.379 . S
C1122 C1119 1.363 . S
C1122 N1120 1.356 . S
C1123 C1117 1.363 . S
C1123 C1118 1.379 . S
C1123 N1121 1.356 . S
N1124 C1116 1.356 . S
N1124 H1130 0.984 . S
N1124 H1131 0.984 . S
N1125 C1118 1.356 . S
N1125 H1128 0.984 . S
N1125 H1129 0.985 . S
H1126 N1121 0.984 . S
H1127 N1121 0.985 . S
H1128 N1125 0.984 . S
H1129 N1125 0.985 . S
H1130 N1124 0.984 . S
H1131 N1124 0.984 . S
H1132 N1120 0.984 . S
H1133 N1120 0.985 . S
C1134 C1135 1.363 . S
C1134 C1140 1.379 . S
C1134 N1142 1.356 . S
C1135 C1134 1.363 . S
C1135 C1141 1.363 1_545 S
C1136 C1137 1.356 1_565 S
C1136 C1141 1.379 . S
C1136 N1143 1.356 . S
C1137 C1136 1.356 1_545 S
C1137 C1140 1.371 . S
N1138 C1140 1.356 . S
N1138 H1150 0.984 . S
N1138 H1151 0.985 . S
N1139 C1141 1.356 . S
N1139 H1144 0.984 . S
N1139 H1145 0.985 . S
C1140 C1134 1.379 . S
C1140 C1137 1.371 . S
C1140 N1138 1.356 . S
C1141 C1135 1.363 1_565 S
C1141 C1136 1.379 . S
C1141 N1139 1.356 . S
N1142 C1134 1.356 . S
N1142 H1148 0.984 . S
N1142 H1149 0.984 . S
N1143 C1136 1.356 . S
N1143 H1146 0.984 . S
N1143 H1147 0.985 . S
H1144 N1139 0.984 . S
H1145 N1139 0.985 . S
H1146 N1143 0.984 . S
H1147 N1143 0.985 . S
H1148 N1142 0.984 . S
H1149 N1142 0.984 . S
H1150 N1138 0.984 . S
H1151 N1138 0.985 . S
C1152 C1153 1.372 . S
C1152 C1158 1.379 . S
C1152 N1160 1.356 . S
C1153 C1152 1.372 . S
C1153 C1159 1.354 1_655 S
C1154 C1155 1.352 1_455 S
C1154 C1159 1.379 . S
C1154 N1161 1.365 . S
C1155 C1154 1.352 1_655 S
C1155 C1158 1.363 . S
N1156 C1158 1.356 . S
N1156 H1168 0.984 . S
N1156 H1169 0.985 . S
N1157 C1159 1.356 . S
N1157 H1162 0.984 . S
N1157 H1163 0.985 . S
C1158 C1152 1.379 . S
C1158 C1155 1.363 . S
C1158 N1156 1.356 . S
C1159 C1153 1.354 1_455 S
C1159 C1154 1.379 . S
C1159 N1157 1.356 . S
N1160 C1152 1.356 . S
N1160 H1166 0.984 . S
N1160 H1167 0.984 . S
N1161 C1154 1.365 . S
N1161 H1164 0.989 . S
N1161 H1165 0.985 . S
H1162 N1157 0.984 . S
H1163 N1157 0.985 . S
H1164 N1161 0.989 . S
H1165 N1161 0.985 . S
H1166 N1160 0.984 . S
H1167 N1160 0.984 . S
H1168 N1156 0.984 . S
H1169 N1156 0.985 . S
C1170 C1171 1.363 . S
C1170 C1176 1.379 . S
C1170 N1178 1.356 . S
C1171 C1170 1.363 . S
C1171 C1177 1.363 . S
C1172 C1173 1.363 . S
C1172 C1177 1.379 . S
C1172 N1179 1.356 . S
C1173 C1172 1.363 . S
C1173 C1176 1.363 . S
N1174 C1176 1.356 . S
N1174 H1186 0.984 . S
N1174 H1187 0.985 . S
N1175 C1177 1.356 . S
N1175 H1180 0.984 . S
N1175 H1181 0.985 . S
C1176 C1170 1.379 . S
C1176 C1173 1.363 . S
C1176 N1174 1.356 . S
C1177 C1171 1.363 . S
C1177 C1172 1.379 . S
C1177 N1175 1.356 . S
N1178 C1170 1.356 . S
N1178 H1184 0.984 . S
N1178 H1185 0.984 . S
N1179 C1172 1.356 . S
N1179 H1182 0.984 . S
N1179 H1183 0.985 . S
H1180 N1175 0.984 . S
H1181 N1175 0.985 . S
H1182 N1179 0.984 . S
H1183 N1179 0.985 . S
H1184 N1178 0.984 . S
H1185 N1178 0.984 . S
H1186 N1174 0.984 . S
H1187 N1174 0.985 . S
C1188 C1189 1.363 1_545 S
C1188 C1194 1.379 . S
C1188 N1196 1.356 . S
C1189 C1188 1.363 1_565 S
C1189 C1195 1.363 . S
C1190 C1191 1.382 . S
C1190 C1195 1.379 . S
C1190 N1197 1.356 . S
C1191 C1190 1.382 . S
C1191 C1194 1.345 1_565 S
N1192 C1194 1.356 . S
N1192 H1204 0.984 . S
N1192 H1205 0.985 . S
N1193 C1195 1.356 . S
N1193 H1198 0.984 . S
N1193 H1199 0.985 . S
C1194 C1188 1.379 . S
C1194 C1191 1.345 1_545 S
C1194 N1192 1.356 . S
C1195 C1189 1.363 . S
C1195 C1190 1.379 . S
C1195 N1193 1.356 . S
N1196 C1188 1.356 . S
N1196 H1202 0.984 . S
N1196 H1203 0.984 . S
N1197 C1190 1.356 . S
N1197 H1200 0.984 . S
N1197 H1201 0.985 . S
H1198 N1193 0.984 . S
H1199 N1193 0.985 . S
H1200 N1197 0.984 . S
H1201 N1197 0.985 . S
H1202 N1196 0.984 . S
H1203 N1196 0.984 . S
H1204 N1192 0.984 . S
H1205 N1192 0.985 . S
C1206 C1207 1.354 1_655 S
C1206 C1212 1.379 . S
C1206 N1214 1.356 . S
C1207 C1206 1.354 1_455 S
C1207 C1213 1.372 . S
C1208 C1209 1.363 . S
C1208 C1213 1.379 . S
C1208 N1215 1.356 . S
C1209 C1208 1.363 . S
C1209 C1212 1.363 1_455 S
N1210 C1212 1.356 . S
N1210 H1222 0.984 . S
N1210 H1223 0.985 . S
N1211 C1213 1.356 . S
N1211 H1216 0.984 . S
N1211 H1217 0.985 . S
C1212 C1206 1.379 . S
C1212 C1209 1.363 1_655 S
C1212 N1210 1.356 . S
C1213 C1207 1.372 . S
C1213 C1208 1.379 . S
C1213 N1211 1.356 . S
N1214 C1206 1.356 . S
N1214 H1220 0.984 . S
N1214 H1221 0.984 . S
N1215 C1208 1.356 . S
N1215 H1218 0.984 . S
N1215 H1219 0.985 . S
H1216 N1211 0.984 . S
H1217 N1211 0.985 . S
H1218 N1215 0.984 . S
H1219 N1215 0.985 . S
H1220 N1214 0.984 . S
H1221 N1214 0.984 . S
H1222 N1210 0.984 . S
H1223 N1210 0.985 . S
C1224 C1225 1.363 . S
C1224 C1230 1.379 . S
C1224 N1232 1.356 . S
C1225 C1224 1.363 . S
C1225 C1231 1.363 . S
C1226 C1227 1.363 . S
C1226 C1231 1.379 . S
C1226 N1233 1.356 . S
C1227 C1226 1.363 . S
C1227 C1230 1.363 . S
N1228 C1230 1.356 . S
N1228 H1240 0.984 . S
N1228 H1241 0.985 . S
N1229 C1231 1.356 . S
N1229 H1234 0.984 . S
N1229 H1235 0.985 . S
C1230 C1224 1.379 . S
C1230 C1227 1.363 . S
C1230 N1228 1.356 . S
C1231 C1225 1.363 . S
C1231 C1226 1.379 . S
C1231 N1229 1.356 . S
N1232 C1224 1.356 . S
N1232 H1238 0.984 . S
N1232 H1239 0.984 . S
N1233 C1226 1.356 . S
N1233 H1236 0.984 . S
N1233 H1237 0.985 . S
H1234 N1229 0.984 . S
H1235 N1229 0.985 . S
H1236 N1233 0.984 . S
H1237 N1233 0.985 . S
H1238 N1232 0.984 . S
H1239 N1232 0.984 . S
H1240 N1228 0.984 . S
H1241 N1228 0.985 . S
C1242 C1243 1.363 . S
C1242 C1248 1.379 . S
C1242 N1250 1.356 . S
C1243 C1242 1.363 . S
C1243 C1249 1.363 . S
C1244 C1245 1.363 . S
C1244 C1249 1.379 . S
C1244 N1251 1.356 . S
C1245 C1244 1.363 . S
C1245 C1248 1.363 . S
N1246 C1248 1.356 . S
N1246 H1258 0.984 . S
N1246 H1259 0.985 . S
N1247 C1249 1.356 . S
N1247 H1252 0.984 . S
N1247 H1253 0.985 . S
C1248 C1242 1.379 . S
C1248 C1245 1.363 . S
C1248 N1246 1.356 . S
C1249 C1243 1.363 . S
C1249 C1244 1.379 . S
C1249 N1247 1.356 . S
N1250 C1242 1.356 . S
N1250 H1256 0.984 . S
N1250 H1257 0.984 . S
N1251 C1244 1.356 . S
N1251 H1254 0.984 . S
N1251 H1255 0.985 . S
H1252 N1247 0.984 . S
H1253 N1247 0.985 . S
H1254 N1251 0.984 . S
H1255 N1251 0.985 . S
H1256 N1250 0.984 . S
H1257 N1250 0.984 . S
H1258 N1246 0.984 . S
H1259 N1246 0.985 . S
C1260 C1261 1.363 . S
C1260 C1266 1.379 . S
C1260 N1268 1.356 . S
C1261 C1260 1.363 . S
C1261 C1267 1.363 . S
C1262 C1263 1.363 . S
C1262 C1267 1.379 . S
C1262 N1269 1.356 . S
C1263 C1262 1.363 . S
C1263 C1266 1.363 . S
N1264 C1266 1.356 . S
N1264 H1276 0.984 . S
N1264 H1277 0.985 . S
N1265 C1267 1.356 . S
N1265 H1270 0.984 . S
N1265 H1271 0.985 . S
C1266 C1260 1.379 . S
C1266 C1263 1.363 . S
C1266 N1264 1.356 . S
C1267 C1261 1.363 . S
C1267 C1262 1.379 . S
C1267 N1265 1.356 . S
N1268 C1260 1.356 . S
N1268 H1274 0.984 . S
N1268 H1275 0.984 . S
N1269 C1262 1.356 . S
N1269 H1272 0.984 . S
N1269 H1273 0.985 . S
H1270 N1265 0.984 . S
H1271 N1265 0.985 . S
H1272 N1269 0.984 . S
H1273 N1269 0.985 . S
H1274 N1268 0.984 . S
H1275 N1268 0.984 . S
H1276 N1264 0.984 . S
H1277 N1264 0.985 . S
C1278 C1279 1.363 . S
C1278 C1284 1.379 . S
C1278 N1286 1.356 . S
C1279 C1278 1.363 . S
C1279 C1285 1.363 . S
C1280 C1281 1.363 . S
C1280 C1285 1.379 . S
C1280 N1287 1.356 . S
C1281 C1280 1.363 . S
C1281 C1284 1.363 . S
N1282 C1284 1.356 . S
N1282 H1294 0.984 . S
N1282 H1295 0.985 . S
N1283 C1285 1.356 . S
N1283 H1288 0.984 . S
N1283 H1289 0.985 . S
C1284 C1278 1.379 . S
C1284 C1281 1.363 . S
C1284 N1282 1.356 . S
C1285 C1279 1.363 . S
C1285 C1280 1.379 . S
C1285 N1283 1.356 . S
N1286 C1278 1.356 . S
N1286 H1292 0.984 . S
N1286 H1293 0.984 . S
N1287 C1280 1.356 . S
N1287 H1290 0.984 . S
N1287 H1291 0.985 . S
H1288 N1283 0.984 . S
H1289 N1283 0.985 . S
H1290 N1287 0.984 . S
H1291 N1287 0.985 . S
H1292 N1286 0.984 . S
H1293 N1286 0.984 . S
H1294 N1282 0.984 . S
H1295 N1282 0.985 . S
C1296 C1297 1.363 . S
C1296 C1302 1.379 . S
C1296 N1304 1.356 . S
C1297 C1296 1.363 . S
C1297 C1303 1.363 . S
C1298 C1299 1.363 . S
C1298 C1303 1.379 . S
C1298 N1305 1.356 . S
C1299 C1298 1.363 . S
C1299 C1302 1.363 . S
N1300 C1302 1.356 . S
N1300 H1312 0.984 . S
N1300 H1313 0.985 . S
N1301 C1303 1.356 . S
N1301 H1306 0.984 . S
N1301 H1307 0.985 . S
C1302 C1296 1.379 . S
C1302 C1299 1.363 . S
C1302 N1300 1.356 . S
C1303 C1297 1.363 . S
C1303 C1298 1.379 . S
C1303 N1301 1.356 . S
N1304 C1296 1.356 . S
N1304 H1310 0.984 . S
N1304 H1311 0.984 . S
N1305 C1298 1.356 . S
N1305 H1308 0.984 . S
N1305 H1309 0.985 . S
H1306 N1301 0.984 . S
H1307 N1301 0.985 . S
H1308 N1305 0.984 . S
H1309 N1305 0.985 . S
H1310 N1304 0.984 . S
H1311 N1304 0.984 . S
H1312 N1300 0.984 . S
H1313 N1300 0.985 . S
C1314 C1315 1.363 . S
C1314 C1320 1.379 . S
C1314 N1322 1.356 . S
C1315 C1314 1.363 . S
C1315 C1321 1.363 . S
C1316 C1317 1.363 . S
C1316 C1321 1.379 . S
C1316 N1323 1.356 . S
C1317 C1316 1.363 . S
C1317 C1320 1.363 . S
N1318 C1320 1.356 . S
N1318 H1330 0.984 . S
N1318 H1331 0.985 . S
N1319 C1321 1.356 . S
N1319 H1324 0.984 . S
N1319 H1325 0.985 . S
C1320 C1314 1.379 . S
C1320 C1317 1.363 . S
C1320 N1318 1.356 . S
C1321 C1315 1.363 . S
C1321 C1316 1.379 . S
C1321 N1319 1.356 . S
N1322 C1314 1.356 . S
N1322 H1328 0.984 . S
N1322 H1329 0.984 . S
N1323 C1316 1.356 . S
N1323 H1326 0.984 . S
N1323 H1327 0.985 . S
H1324 N1319 0.984 . S
H1325 N1319 0.985 . S
H1326 N1323 0.984 . S
H1327 N1323 0.985 . S
H1328 N1322 0.984 . S
H1329 N1322 0.984 . S
H1330 N1318 0.984 . S
H1331 N1318 0.985 . S
C1332 C1333 1.363 . S
C1332 C1338 1.379 . S
C1332 N1340 1.356 . S
C1333 C1332 1.363 . S
C1333 C1339 1.363 . S
C1334 C1335 1.363 . S
C1334 C1339 1.379 . S
C1334 N1341 1.356 . S
C1335 C1334 1.363 . S
C1335 C1338 1.363 . S
N1336 C1338 1.356 . S
N1336 H1348 0.984 . S
N1336 H1349 0.985 . S
N1337 C1339 1.356 . S
N1337 H1342 0.984 . S
N1337 H1343 0.985 . S
C1338 C1332 1.379 . S
C1338 C1335 1.363 . S
C1338 N1336 1.356 . S
C1339 C1333 1.363 . S
C1339 C1334 1.379 . S
C1339 N1337 1.356 . S
N1340 C1332 1.356 . S
N1340 H1346 0.984 . S
N1340 H1347 0.984 . S
N1341 C1334 1.356 . S
N1341 H1344 0.984 . S
N1341 H1345 0.985 . S
H1342 N1337 0.984 . S
H1343 N1337 0.985 . S
H1344 N1341 0.984 . S
H1345 N1341 0.985 . S
H1346 N1340 0.984 . S
H1347 N1340 0.984 . S
H1348 N1336 0.984 . S
H1349 N1336 0.985 . S
C1350 C1351 1.363 . S
C1350 C1356 1.379 . S
C1350 N1358 1.356 . S
C1351 C1350 1.363 . S
C1351 C1357 1.363 . S
C1352 C1353 1.363 . S
C1352 C1357 1.379 . S
C1352 N1359 1.356 . S
C1353 C1352 1.363 . S
C1353 C1356 1.363 . S
N1354 C1356 1.356 . S
N1354 H1366 0.984 . S
N1354 H1367 0.985 . S
N1355 C1357 1.356 . S
N1355 H1360 0.984 . S
N1355 H1361 0.985 . S
C1356 C1350 1.379 . S
C1356 C1353 1.363 . S
C1356 N1354 1.356 . S
C1357 C1351 1.363 . S
C1357 C1352 1.379 . S
C1357 N1355 1.356 . S
N1358 C1350 1.356 . S
N1358 H1364 0.984 . S
N1358 H1365 0.984 . S
N1359 C1352 1.356 . S
N1359 H1362 0.984 . S
N1359 H1363 0.985 . S
H1360 N1355 0.984 . S
H1361 N1355 0.985 . S
H1362 N1359 0.984 . S
H1363 N1359 0.985 . S
H1364 N1358 0.984 . S
H1365 N1358 0.984 . S
H1366 N1354 0.984 . S
H1367 N1354 0.985 . S
C1368 C1369 1.363 . S
C1368 C1374 1.379 . S
C1368 N1376 1.356 . S
C1369 C1368 1.363 . S
C1369 C1375 1.363 . S
C1370 C1371 1.363 . S
C1370 C1375 1.379 . S
C1370 N1377 1.356 . S
C1371 C1370 1.363 . S
C1371 C1374 1.363 . S
N1372 C1374 1.356 . S
N1372 H1384 0.984 . S
N1372 H1385 0.985 . S
N1373 C1375 1.356 . S
N1373 H1378 0.984 . S
N1373 H1379 0.985 . S
C1374 C1368 1.379 . S
C1374 C1371 1.363 . S
C1374 N1372 1.356 . S
C1375 C1369 1.363 . S
C1375 C1370 1.379 . S
C1375 N1373 1.356 . S
N1376 C1368 1.356 . S
N1376 H1382 0.984 . S
N1376 H1383 0.984 . S
N1377 C1370 1.356 . S
N1377 H1380 0.984 . S
N1377 H1381 0.985 . S
H1378 N1373 0.984 . S
H1379 N1373 0.985 . S
H1380 N1377 0.984 . S
H1381 N1377 0.985 . S
H1382 N1376 0.984 . S
H1383 N1376 0.984 . S
H1384 N1372 0.984 . S
H1385 N1372 0.985 . S
C1386 C1387 1.363 . S
C1386 C1392 1.379 . S
C1386 N1394 1.356 . S
C1387 C1386 1.363 . S
C1387 C1393 1.363 . S
C1388 C1389 1.363 . S
C1388 C1393 1.379 . S
C1388 N1395 1.356 . S
C1389 C1388 1.363 . S
C1389 C1392 1.363 . S
N1390 C1392 1.356 . S
N1390 H1402 0.984 . S
N1390 H1403 0.985 . S
N1391 C1393 1.356 . S
N1391 H1396 0.984 . S
N1391 H1397 0.985 . S
C1392 C1386 1.379 . S
C1392 C1389 1.363 . S
C1392 N1390 1.356 . S
C1393 C1387 1.363 . S
C1393 C1388 1.379 . S
C1393 N1391 1.356 . S
N1394 C1386 1.356 . S
N1394 H1400 0.984 . S
N1394 H1401 0.984 . S
N1395 C1388 1.356 . S
N1395 H1398 0.984 . S
N1395 H1399 0.985 . S
H1396 N1391 0.984 . S
H1397 N1391 0.985 . S
H1398 N1395 0.984 . S
H1399 N1395 0.985 . S
H1400 N1394 0.984 . S
H1401 N1394 0.984 . S
H1402 N1390 0.984 . S
H1403 N1390 0.985 . S
C1404 C1405 1.363 . S
C1404 C1410 1.379 . S
C1404 N1412 1.356 . S
C1405 C1404 1.363 . S
C1405 C1411 1.363 . S
C1406 C1407 1.363 . S
C1406 C1411 1.379 . S
C1406 N1413 1.356 . S
C1407 C1406 1.363 . S
C1407 C1410 1.363 . S
N1408 C1410 1.356 . S
N1408 H1420 0.984 . S
N1408 H1421 0.985 . S
N1409 C1411 1.356 . S
N1409 H1414 0.984 . S
N1409 H1415 0.985 . S
C1410 C1404 1.379 . S
C1410 C1407 1.363 . S
C1410 N1408 1.356 . S
C1411 C1405 1.363 . S
C1411 C1406 1.379 . S
C1411 N1409 1.356 . S
N1412 C1404 1.356 . S
N1412 H1418 0.984 . S
N1412 H1419 0.984 . S
N1413 C1406 1.356 . S
N1413 H1416 0.984 . S
N1413 H1417 0.985 . S
H1414 N1409 0.984 . S
H1415 N1409 0.985 . S
H1416 N1413 0.984 . S
H1417 N1413 0.985 . S
H1418 N1412 0.984 . S
H1419 N1412 0.984 . S
H1420 N1408 0.984 . S
H1421 N1408 0.985 . S
C1422 C1423 1.363 . S
C1422 C1428 1.379 . S
C1422 N1430 1.356 . S
C1423 C1422 1.363 . S
C1423 C1429 1.363 . S
C1424 C1425 1.363 . S
C1424 C1429 1.379 . S
C1424 N1431 1.356 . S
C1425 C1424 1.363 . S
C1425 C1428 1.363 . S
N1426 C1428 1.356 . S
N1426 H1438 0.984 . S
N1426 H1439 0.985 . S
N1427 C1429 1.356 . S
N1427 H1432 0.984 . S
N1427 H1433 0.985 . S
C1428 C1422 1.379 . S
C1428 C1425 1.363 . S
C1428 N1426 1.356 . S
C1429 C1423 1.363 . S
C1429 C1424 1.379 . S
C1429 N1427 1.356 . S
N1430 C1422 1.356 . S
N1430 H1436 0.984 . S
N1430 H1437 0.984 . S
N1431 C1424 1.356 . S
N1431 H1434 0.984 . S
N1431 H1435 0.985 . S
H1432 N1427 0.984 . S
H1433 N1427 0.985 . S
H1434 N1431 0.984 . S
H1435 N1431 0.985 . S
H1436 N1430 0.984 . S
H1437 N1430 0.984 . S
H1438 N1426 0.984 . S
H1439 N1426 0.985 . S
C1440 C1441 1.363 . S
C1440 C1446 1.379 . S
C1440 N1448 1.356 . S
C1441 C1440 1.363 . S
C1441 C1447 1.363 . S
C1442 C1443 1.363 . S
C1442 C1447 1.379 . S
C1442 N1449 1.356 . S
C1443 C1442 1.363 . S
C1443 C1446 1.363 . S
N1444 C1446 1.356 . S
N1444 H1456 0.984 . S
N1444 H1457 0.985 . S
N1445 C1447 1.356 . S
N1445 H1450 0.984 . S
N1445 H1451 0.985 . S
C1446 C1440 1.379 . S
C1446 C1443 1.363 . S
C1446 N1444 1.356 . S
C1447 C1441 1.363 . S
C1447 C1442 1.379 . S
C1447 N1445 1.356 . S
N1448 C1440 1.356 . S
N1448 H1454 0.984 . S
N1448 H1455 0.984 . S
N1449 C1442 1.356 . S
N1449 H1452 0.984 . S
N1449 H1453 0.985 . S
H1450 N1445 0.984 . S
H1451 N1445 0.985 . S
H1452 N1449 0.984 . S
H1453 N1449 0.985 . S
H1454 N1448 0.984 . S
H1455 N1448 0.984 . S
H1456 N1444 0.984 . S
H1457 N1444 0.985 . S
C1458 C1459 1.363 . S
C1458 C1464 1.379 . S
C1458 N1466 1.356 . S
C1459 C1458 1.363 . S
C1459 C1465 1.363 . S
C1460 C1461 1.363 . S
C1460 C1465 1.379 . S
C1460 N1467 1.356 . S
C1461 C1460 1.363 . S
C1461 C1464 1.363 . S
N1462 C1464 1.356 . S
N1462 H1474 0.984 . S
N1462 H1475 0.985 . S
N1463 C1465 1.356 . S
N1463 H1468 0.984 . S
N1463 H1469 0.985 . S
C1464 C1458 1.379 . S
C1464 C1461 1.363 . S
C1464 N1462 1.356 . S
C1465 C1459 1.363 . S
C1465 C1460 1.379 . S
C1465 N1463 1.356 . S
N1466 C1458 1.356 . S
N1466 H1472 0.984 . S
N1466 H1473 0.984 . S
N1467 C1460 1.356 . S
N1467 H1470 0.984 . S
N1467 H1471 0.985 . S
H1468 N1463 0.984 . S
H1469 N1463 0.985 . S
H1470 N1467 0.984 . S
H1471 N1467 0.985 . S
H1472 N1466 0.984 . S
H1473 N1466 0.984 . S
H1474 N1462 0.984 . S
H1475 N1462 0.985 . S
C1476 C1477 1.363 . S
C1476 C1482 1.379 . S
C1476 N1484 1.356 . S
C1477 C1476 1.363 . S
C1477 C1483 1.363 . S
C1478 C1479 1.363 . S
C1478 C1483 1.379 . S
C1478 N1485 1.356 . S
C1479 C1478 1.363 . S
C1479 C1482 1.363 . S
N1480 C1482 1.356 . S
N1480 H1492 0.984 . S
N1480 H1493 0.985 . S
N1481 C1483 1.356 . S
N1481 H1486 0.984 . S
N1481 H1487 0.985 . S
C1482 C1476 1.379 . S
C1482 C1479 1.363 . S
C1482 N1480 1.356 . S
C1483 C1477 1.363 . S
C1483 C1478 1.379 . S
C1483 N1481 1.356 . S
N1484 C1476 1.356 . S
N1484 H1490 0.984 . S
N1484 H1491 0.984 . S
N1485 C1478 1.356 . S
N1485 H1488 0.984 . S
N1485 H1489 0.985 . S
H1486 N1481 0.984 . S
H1487 N1481 0.985 . S
H1488 N1485 0.984 . S
H1489 N1485 0.985 . S
H1490 N1484 0.984 . S
H1491 N1484 0.984 . S
H1492 N1480 0.984 . S
H1493 N1480 0.985 . S
C1494 C1495 1.363 . S
C1494 C1500 1.379 . S
C1494 N1502 1.356 . S
C1495 C1494 1.363 . S
C1495 C1501 1.363 . S
C1496 C1497 1.363 . S
C1496 C1501 1.379 . S
C1496 N1503 1.356 . S
C1497 C1496 1.363 . S
C1497 C1500 1.363 . S
N1498 C1500 1.356 . S
N1498 H1510 0.984 . S
N1498 H1511 0.985 . S
N1499 C1501 1.356 . S
N1499 H1504 0.984 . S
N1499 H1505 0.985 . S
C1500 C1494 1.379 . S
C1500 C1497 1.363 . S
C1500 N1498 1.356 . S
C1501 C1495 1.363 . S
C1501 C1496 1.379 . S
C1501 N1499 1.356 . S
N1502 C1494 1.356 . S
N1502 H1508 0.984 . S
N1502 H1509 0.984 . S
N1503 C1496 1.356 . S
N1503 H1506 0.984 . S
N1503 H1507 0.985 . S
H1504 N1499 0.984 . S
H1505 N1499 0.985 . S
H1506 N1503 0.984 . S
H1507 N1503 0.985 . S
H1508 N1502 0.984 . S
H1509 N1502 0.984 . S
H1510 N1498 0.984 . S
H1511 N1498 0.985 . S
C1512 C1513 1.363 . S
C1512 C1518 1.379 . S
C1512 N1520 1.356 . S
C1513 C1512 1.363 . S
C1513 C1519 1.363 . S
C1514 C1515 1.363 . S
C1514 C1519 1.379 . S
C1514 N1521 1.356 . S
C1515 C1514 1.363 . S
C1515 C1518 1.363 . S
N1516 C1518 1.356 . S
N1516 H1528 0.984 . S
N1516 H1529 0.985 . S
N1517 C1519 1.356 . S
N1517 H1522 0.984 . S
N1517 H1523 0.985 . S
C1518 C1512 1.379 . S
C1518 C1515 1.363 . S
C1518 N1516 1.356 . S
C1519 C1513 1.363 . S
C1519 C1514 1.379 . S
C1519 N1517 1.356 . S
N1520 C1512 1.356 . S
N1520 H1526 0.984 . S
N1520 H1527 0.984 . S
N1521 C1514 1.356 . S
N1521 H1524 0.984 . S
N1521 H1525 0.985 . S
H1522 N1517 0.984 . S
H1523 N1517 0.985 . S
H1524 N1521 0.984 . S
H1525 N1521 0.985 . S
H1526 N1520 0.984 . S
H1527 N1520 0.984 . S
H1528 N1516 0.984 . S
H1529 N1516 0.985 . S
C1530 C1531 1.363 . S
C1530 C1536 1.379 . S
C1530 N1538 1.356 . S
C1531 C1530 1.363 . S
C1531 C1537 1.363 . S
C1532 C1533 1.363 . S
C1532 C1537 1.379 . S
C1532 N1539 1.356 . S
C1533 C1532 1.363 . S
C1533 C1536 1.363 . S
N1534 C1536 1.356 . S
N1534 H1546 0.984 . S
N1534 H1547 0.985 . S
N1535 C1537 1.356 . S
N1535 H1540 0.984 . S
N1535 H1541 0.985 . S
C1536 C1530 1.379 . S
C1536 C1533 1.363 . S
C1536 N1534 1.356 . S
C1537 C1531 1.363 . S
C1537 C1532 1.379 . S
C1537 N1535 1.356 . S
N1538 C1530 1.356 . S
N1538 H1544 0.984 . S
N1538 H1545 0.984 . S
N1539 C1532 1.356 . S
N1539 H1542 0.984 . S
N1539 H1543 0.985 . S
H1540 N1535 0.984 . S
H1541 N1535 0.985 . S
H1542 N1539 0.984 . S
H1543 N1539 0.985 . S
H1544 N1538 0.984 . S
H1545 N1538 0.984 . S
H1546 N1534 0.984 . S
H1547 N1534 0.985 . S
C1548 C1549 1.363 . S
C1548 C1554 1.379 . S
C1548 N1556 1.356 . S
C1549 C1548 1.363 . S
C1549 C1555 1.363 . S
C1550 C1551 1.363 . S
C1550 C1555 1.379 . S
C1550 N1557 1.356 . S
C1551 C1550 1.363 . S
C1551 C1554 1.363 . S
N1552 C1554 1.356 . S
N1552 H1564 0.984 . S
N1552 H1565 0.985 . S
N1553 C1555 1.356 . S
N1553 H1558 0.984 . S
N1553 H1559 0.985 . S
C1554 C1548 1.379 . S
C1554 C1551 1.363 . S
C1554 N1552 1.356 . S
C1555 C1549 1.363 . S
C1555 C1550 1.379 . S
C1555 N1553 1.356 . S
N1556 C1548 1.356 . S
N1556 H1562 0.984 . S
N1556 H1563 0.984 . S
N1557 C1550 1.356 . S
N1557 H1560 0.984 . S
N1557 H1561 0.985 . S
H1558 N1553 0.984 . S
H1559 N1553 0.985 . S
H1560 N1557 0.984 . S
H1561 N1557 0.985 . S
H1562 N1556 0.984 . S
H1563 N1556 0.984 . S
H1564 N1552 0.984 . S
H1565 N1552 0.985 . S
C1566 C1567 1.363 . S
C1566 C1572 1.379 . S
C1566 N1574 1.356 . S
C1567 C1566 1.363 . S
C1567 C1573 1.363 . S
C1568 C1569 1.363 . S
C1568 C1573 1.379 . S
C1568 N1575 1.356 . S
C1569 C1568 1.363 . S
C1569 C1572 1.363 . S
N1570 C1572 1.356 . S
N1570 H1582 0.984 . S
N1570 H1583 0.985 . S
N1571 C1573 1.356 . S
N1571 H1576 0.984 . S
N1571 H1577 0.985 . S
C1572 C1566 1.379 . S
C1572 C1569 1.363 . S
C1572 N1570 1.356 . S
C1573 C1567 1.363 . S
C1573 C1568 1.379 . S
C1573 N1571 1.356 . S
N1574 C1566 1.356 . S
N1574 H1580 0.984 . S
N1574 H1581 0.984 . S
N1575 C1568 1.356 . S
N1575 H1578 0.984 . S
N1575 H1579 0.985 . S
H1576 N1571 0.984 . S
H1577 N1571 0.985 . S
H1578 N1575 0.984 . S
H1579 N1575 0.985 . S
H1580 N1574 0.984 . S
H1581 N1574 0.984 . S
H1582 N1570 0.984 . S
H1583 N1570 0.985 . S
C1584 C1585 1.363 . S
C1584 C1590 1.379 . S
C1584 N1592 1.356 . S
C1585 C1584 1.363 . S
C1585 C1591 1.363 . S
C1586 C1587 1.363 . S
C1586 C1591 1.379 . S
C1586 N1593 1.356 . S
C1587 C1586 1.363 . S
C1587 C1590 1.363 . S
N1588 C1590 1.356 . S
N1588 H1600 0.984 . S
N1588 H1601 0.985 . S
N1589 C1591 1.356 . S
N1589 H1594 0.984 . S
N1589 H1595 0.985 . S
C1590 C1584 1.379 . S
C1590 C1587 1.363 . S
C1590 N1588 1.356 . S
C1591 C1585 1.363 . S
C1591 C1586 1.379 . S
C1591 N1589 1.356 . S
N1592 C1584 1.356 . S
N1592 H1598 0.984 . S
N1592 H1599 0.984 . S
N1593 C1586 1.356 . S
N1593 H1596 0.984 . S
N1593 H1597 0.985 . S
H1594 N1589 0.984 . S
H1595 N1589 0.985 . S
H1596 N1593 0.984 . S
H1597 N1593 0.985 . S
H1598 N1592 0.984 . S
H1599 N1592 0.984 . S
H1600 N1588 0.984 . S
H1601 N1588 0.985 . S
C1602 C1603 1.363 . S
C1602 C1608 1.379 . S
C1602 N1610 1.356 . S
C1603 C1602 1.363 . S
C1603 C1609 1.363 . S
C1604 C1605 1.363 . S
C1604 C1609 1.379 . S
C1604 N1611 1.356 . S
C1605 C1604 1.363 . S
C1605 C1608 1.363 . S
N1606 C1608 1.356 . S
N1606 H1618 0.984 . S
N1606 H1619 0.985 . S
N1607 C1609 1.356 . S
N1607 H1612 0.984 . S
N1607 H1613 0.985 . S
C1608 C1602 1.379 . S
C1608 C1605 1.363 . S
C1608 N1606 1.356 . S
C1609 C1603 1.363 . S
C1609 C1604 1.379 . S
C1609 N1607 1.356 . S
N1610 C1602 1.356 . S
N1610 H1616 0.984 . S
N1610 H1617 0.984 . S
N1611 C1604 1.356 . S
N1611 H1614 0.984 . S
N1611 H1615 0.985 . S
H1612 N1607 0.984 . S
H1613 N1607 0.985 . S
H1614 N1611 0.984 . S
H1615 N1611 0.985 . S
H1616 N1610 0.984 . S
H1617 N1610 0.984 . S
H1618 N1606 0.984 . S
H1619 N1606 0.985 . S
C1620 C1621 1.363 . S
C1620 C1626 1.379 . S
C1620 N1628 1.356 . S
C1621 C1620 1.363 . S
C1621 C1627 1.363 . S
C1622 C1623 1.363 . S
C1622 C1627 1.379 . S
C1622 N1629 1.356 . S
C1623 C1622 1.363 . S
C1623 C1626 1.363 . S
N1624 C1626 1.356 . S
N1624 H1636 0.984 . S
N1624 H1637 0.985 . S
N1625 C1627 1.356 . S
N1625 H1630 0.984 . S
N1625 H1631 0.985 . S
C1626 C1620 1.379 . S
C1626 C1623 1.363 . S
C1626 N1624 1.356 . S
C1627 C1621 1.363 . S
C1627 C1622 1.379 . S
C1627 N1625 1.356 . S
N1628 C1620 1.356 . S
N1628 H1634 0.984 . S
N1628 H1635 0.984 . S
N1629 C1622 1.356 . S
N1629 H1632 0.984 . S
N1629 H1633 0.985 . S
H1630 N1625 0.984 . S
H1631 N1625 0.985 . S
H1632 N1629 0.984 . S
H1633 N1629 0.985 . S
H1634 N1628 0.984 . S
H1635 N1628 0.984 . S
H1636 N1624 0.984 . S
H1637 N1624 0.985 . S
C1638 C1639 1.363 . S
C1638 C1644 1.379 . S
C1638 N1646 1.356 . S
C1639 C1638 1.363 . S
C1639 C1645 1.363 . S
C1640 C1641 1.363 . S
C1640 C1645 1.379 . S
C1640 N1647 1.356 . S
C1641 C1640 1.363 . S
C1641 C1644 1.363 . S
N1642 C1644 1.356 . S
N1642 H1654 0.984 . S
N1642 H1655 0.985 . S
N1643 C1645 1.356 . S
N1643 H1648 0.984 . S
N1643 H1649 0.985 . S
C1644 C1638 1.379 . S
C1644 C1641 1.363 . S
C1644 N1642 1.356 . S
C1645 C1639 1.363 . S
C1645 C1640 1.379 . S
C1645 N1643 1.356 . S
N1646 C1638 1.356 . S
N1646 H1652 0.984 . S
N1646 H1653 0.984 . S
N1647 C1640 1.356 . S
N1647 H1650 0.984 . S
N1647 H1651 0.985 . S
H1648 N1643 0.984 . S
H1649 N1643 0.985 . S
H1650 N1647 0.984 . S
H1651 N1647 0.985 . S
H1652 N1646 0.984 . S
H1653 N1646 0.984 . S
H1654 N1642 0.984 . S
H1655 N1642 0.985 . S
C1656 C1657 1.363 1_655 S
C1656 C1662 1.379 . S
C1656 N1664 1.356 . S
C1657 C1656 1.363 1_455 S
C1657 C1663 1.363 . S
C1658 C1659 1.363 1_455 S
C1658 C1663 1.379 . S
C1658 N1665 1.356 . S
C1659 C1658 1.363 1_655 S
C1659 C1662 1.363 . S
N1660 C1662 1.356 . S
N1660 H1672 0.984 . S
N1660 H1673 0.985 . S
N1661 C1663 1.356 . S
N1661 H1666 0.984 . S
N1661 H1667 0.985 . S
C1662 C1656 1.379 . S
C1662 C1659 1.363 . S
C1662 N1660 1.356 . S
C1663 C1657 1.363 . S
C1663 C1658 1.379 . S
C1663 N1661 1.356 . S
N1664 C1656 1.356 . S
N1664 H1670 0.984 . S
N1664 H1671 0.956 1_655 S
N1665 C1658 1.356 . S
N1665 H1668 0.956 1_455 S
N1665 H1669 0.985 . S
H1666 N1661 0.984 . S
H1667 N1661 0.985 . S
H1668 N1665 0.956 1_655 S
H1669 N1665 0.985 . S
H1670 N1664 0.984 . S
H1671 N1664 0.956 1_455 S
H1672 N1660 0.984 . S
H1673 N1660 0.985 . S
C1674 C1675 1.363 . S
C1674 C1680 1.379 . S
C1674 N1682 1.356 . S
C1675 C1674 1.363 . S
C1675 C1681 1.363 . S
C1676 C1677 1.363 . S
C1676 C1681 1.379 . S
C1676 N1683 1.356 . S
C1677 C1676 1.363 . S
C1677 C1680 1.363 . S
N1678 C1680 1.356 . S
N1678 H1690 0.984 . S
N1678 H1691 0.985 . S
N1679 C1681 1.356 . S
N1679 H1684 0.984 . S
N1679 H1685 0.985 . S
C1680 C1674 1.379 . S
C1680 C1677 1.363 . S
C1680 N1678 1.356 . S
C1681 C1675 1.363 . S
C1681 C1676 1.379 . S
C1681 N1679 1.356 . S
N1682 C1674 1.356 . S
N1682 H1688 0.984 . S
N1682 H1689 0.984 . S
N1683 C1676 1.356 . S
N1683 H1686 0.984 . S
N1683 H1687 0.985 . S
H1684 N1679 0.984 . S
H1685 N1679 0.985 . S
H1686 N1683 0.984 . S
H1687 N1683 0.985 . S
H1688 N1682 0.984 . S
H1689 N1682 0.984 . S
H1690 N1678 0.984 . S
H1691 N1678 0.985 . S
C1692 C1693 1.363 . S
C1692 C1698 1.379 1_545 S
C1692 N1700 1.356 . S
C1693 C1692 1.363 . S
C1693 C1699 1.363 . S
C1694 C1695 1.363 . S
C1694 C1699 1.379 1_565 S
C1694 N1701 1.356 . S
C1695 C1694 1.363 . S
C1695 C1698 1.363 . S
N1696 C1698 1.356 . S
N1696 H1708 0.984 . S
N1696 H1709 0.985 . S
N1697 C1699 1.356 . S
N1697 H1702 0.984 . S
N1697 H1703 0.985 . S
C1698 C1692 1.379 1_565 S
C1698 C1695 1.363 . S
C1698 N1696 1.356 . S
C1699 C1693 1.363 . S
C1699 C1694 1.379 1_545 S
C1699 N1697 1.356 . S
N1700 C1692 1.356 . S
N1700 H1706 0.984 . S
N1700 H1707 0.984 . S
N1701 C1694 1.356 . S
N1701 H1704 0.984 . S
N1701 H1705 0.985 . S
H1702 N1697 0.984 . S
H1703 N1697 0.985 . S
H1704 N1701 0.984 . S
H1705 N1701 0.985 . S
H1706 N1700 0.984 . S
H1707 N1700 0.984 . S
H1708 N1696 0.984 . S
H1709 N1696 0.985 . S
C1710 C1711 1.363 1_554 S
C1710 C1716 1.379 . S
C1710 N1718 1.356 . S
C1711 C1710 1.363 1_556 S
C1711 C1717 1.363 1_545 S
C1712 C1713 1.363 1_556 S
C1712 C1717 1.379 . S
C1712 N1719 1.356 . S
C1713 C1712 1.363 1_554 S
C1713 C1716 1.363 1_565 S
N1714 C1716 1.356 . S
N1714 H1726 0.984 . S
N1714 H1727 0.985 1_545 S
N1715 C1717 1.356 . S
N1715 H1720 0.984 1_565 S
N1715 H1721 0.985 . S
C1716 C1710 1.379 . S
C1716 C1713 1.363 1_545 S
C1716 N1714 1.356 . S
C1717 C1711 1.363 1_565 S
C1717 C1712 1.379 . S
C1717 N1715 1.356 . S
N1718 C1710 1.356 . S
N1718 H1724 0.984 . S
N1718 H1725 0.984 1_554 S
N1719 C1712 1.356 . S
N1719 H1722 0.984 1_556 S
N1719 H1723 0.985 . S
H1720 N1715 0.984 1_545 S
H1721 N1715 0.985 . S
H1722 N1719 0.984 1_554 S
H1723 N1719 0.985 . S
H1724 N1718 0.984 . S
H1725 N1718 0.984 1_556 S
H1726 N1714 0.984 . S
H1727 N1714 0.985 1_565 S
C1728 C1729 1.363 1_455 S
C1728 C1734 1.379 . S
C1728 N1736 1.356 . S
C1729 C1728 1.363 1_655 S
C1729 C1735 1.363 1_556 S
C1730 C1731 1.363 1_655 S
C1730 C1735 1.379 . S
C1730 N1737 1.356 . S
C1731 C1730 1.363 1_455 S
C1731 C1734 1.363 1_554 S
N1732 C1734 1.356 . S
N1732 H1744 0.984 . S
N1732 H1745 0.985 . S
N1733 C1735 1.356 . S
N1733 H1738 0.984 . S
N1733 H1739 0.985 . S
C1734 C1728 1.379 . S
C1734 C1731 1.363 1_556 S
C1734 N1732 1.356 . S
C1735 C1729 1.363 1_554 S
C1735 C1730 1.379 . S
C1735 N1733 1.356 . S
N1736 C1728 1.356 . S
N1736 H1742 0.984 . S
N1736 H1743 0.984 1_455 S
N1737 C1730 1.356 . S
N1737 H1740 0.984 1_655 S
N1737 H1741 0.985 . S
H1738 N1733 0.984 . S
H1739 N1733 0.985 . S
H1740 N1737 0.984 1_455 S
H1741 N1737 0.985 . S
H1742 N1736 0.984 . S
H1743 N1736 0.984 1_655 S
H1744 N1732 0.984 . S
H1745 N1732 0.985 . S
C1746 C1747 1.363 . S
C1746 C1752 1.379 . S
C1746 N1754 1.356 . S
C1747 C1746 1.363 . S
C1747 C1753 1.363 1_554 S
C1748 C1749 1.363 . S
C1748 C1753 1.379 . S
C1748 N1755 1.356 . S
C1749 C1748 1.363 . S
C1749 C1752 1.363 1_556 S
N1750 C1752 1.356 . S
N1750 H1762 0.984 . S
N1750 H1763 0.985 . S
N1751 C1753 1.356 . S
N1751 H1756 0.984 . S
N1751 H1757 0.985 . S
C1752 C1746 1.379 . S
C1752 C1749 1.363 1_554 S
C1752 N1750 1.356 . S
C1753 C1747 1.363 1_556 S
C1753 C1748 1.379 . S
C1753 N1751 1.356 . S
N1754 C1746 1.356 . S
N1754 H1760 0.984 . S
N1754 H1761 0.984 . S
N1755 C1748 1.356 . S
N1755 H1758 0.984 . S
N1755 H1759 0.985 . S
H1756 N1751 0.984 . S
H1757 N1751 0.985 . S
H1758 N1755 0.984 . S
H1759 N1755 0.985 . S
H1760 N1754 0.984 . S
H1761 N1754 0.984 . S
H1762 N1750 0.984 . S
H1763 N1750 0.985 . S
C469 C3 1.462 . S
C471 C18 1.592 . S
C487 C16 1.462 . S
C489 C29 1.592 . S
C505 C5 1.592 . S
C507 C31 1.463 . S
C523 C44 1.469 . S
C525 C68 1.603 . S
C541 C57 1.469 . S
C543 C42 1.603 . S
C559 C55 1.603 . S
C561 C70 1.469 . S
C577 C83 1.462 . S
C579 C94 1.592 . S
C595 C107 1.592 . S
C597 C96 1.462 . S
C613 C81 1.592 . S
C615 C109 1.463 . S
C631 C146 1.603 . S
C633 C122 1.469 . S
C649 C135 1.469 . S
C651 C120 1.603 . S
C667 C148 1.469 . S
C669 C133 1.603 . S
C685 C174 1.599 . S
C687 C159 1.467 . S
C703 C172 1.467 . S
C705 C187 1.599 . S
C721 C185 1.468 . S
C723 C161 1.599 . S
C739 C200 1.467 . S
C741 C224 1.598 . S
C757 C213 1.467 . S
C759 C198 1.599 . S
C775 C226 1.467 . S
C777 C211 1.599 . S
C793 C252 1.629 . S
C795 C239 1.492 . S
C811 C250 1.492 . S
C813 C265 1.629 . S
C829 C237 1.630 . S
C831 C263 1.492 . S
C847 C302 1.513 . S
C849 C276 1.399 . S
C865 C289 1.400 . S
C867 C278 1.513 . S
C883 C291 1.513 . S
C885 C304 1.400 . S
C901 C330 1.629 . S
C903 C315 1.492 . S
C919 C328 1.492 . S
C921 C343 1.629 . S
C937 C341 1.492 . S
C939 C317 1.630 . S
C955 C382 1.513 . S
C957 C354 1.399 . S
C973 C367 1.400 . S
C975 C356 1.513 . S
C991 C369 1.513 . S
C993 C380 1.400 . S
C1009 C395 1.467 . S
C1011 C408 1.599 . S
C1027 C406 1.467 . S
C1029 C421 1.599 . S
C1045 C419 1.468 . S
C1047 C393 1.599 . S
C1063 C460 1.598 . S
C1065 C432 1.467 . S
C1081 C434 1.599 . S
C1083 C447 1.467 . S
C1099 C458 1.467 . S
C1101 C445 1.599 . S
C1117 C49 1.742 . S
C1119 C4 1.742 . S
C1135 C17 1.742 . S
C1137 C62 1.738 1_545 S
C1153 C75 1.741 1_655 S
C1155 C36 1.742 . S
C1171 C127 1.742 . S
C1173 C88 1.742 . S
C1189 C101 1.742 . S
C1191 C140 1.738 1_565 S
C1207 C153 1.741 1_455 S
C1209 C114 1.742 . S
C1225 C160 1.740 . S
C1227 C205 1.740 . S
C1243 C173 1.740 . S
C1245 C218 1.741 . S
C1261 C186 1.740 . S
C1263 C231 1.740 . S
C1279 C277 1.762 . S
C1281 C244 1.764 . S
C1297 C290 1.762 . S
C1299 C251 1.764 . S
C1315 C264 1.770 . S
C1317 C309 1.757 . S
C1333 C355 1.762 . S
C1335 C316 1.764 . S
C1351 C368 1.762 . S
C1353 C329 1.764 . S
C1369 C342 1.770 . S
C1371 C381 1.757 . S
C1387 C400 1.740 . S
C1389 C433 1.740 . S
C1405 C452 1.741 . S
C1407 C407 1.740 . S
C1423 C420 1.740 . S
C1425 C459 1.740 . S
C1441 C10 1.941 . S
C1443 C238 1.934 . S
C1459 C23 1.941 . S
C1461 C257 1.934 . S
C1477 C30 1.942 . S
C1479 C270 1.934 . S
C1495 C439 1.928 . S
C1497 C43 1.927 . S
C1513 C446 1.929 . S
C1515 C56 1.927 . S
C1531 C69 1.927 . S
C1533 C465 1.929 . S
C1549 C82 1.941 . S
C1551 C322 1.934 . S
C1567 C335 1.934 . S
C1569 C95 1.941 . S
C1585 C348 1.934 . S
C1587 C108 1.942 . S
C1603 C199 1.928 . S
C1605 C121 1.927 . S
C1621 C212 1.929 . S
C1623 C134 1.927 . S
C1639 C225 1.929 . S
C1641 C147 1.927 . S
C1657 C394 1.924 . S
C1659 C166 1.924 . S
C1675 C179 1.924 . S
C1677 C413 1.924 . S
C1693 C192 1.924 . S
C1695 C426 1.924 . S
C1711 C283 1.800 . S
C1713 C361 1.799 . S
C1729 C296 1.801 . S
C1731 C374 1.800 . S
C1747 C387 1.801 . S
C1749 C303 1.800 . S
