# Generated by pormake.
# Topology smd, (6)-cn, num edge types: 1
# Building blocks:
#     Node 0, Type 0, BuildingBlock: VOLQOD_clean_sbu_1, # of connection points: 6
#     Node 1, Type 0, BuildingBlock: VOLQOD_clean_sbu_1, # of connection points: 6
#     Node 2, Type 0, BuildingBlock: VOLQOD_clean_sbu_1, # of connection points: 6
#     Node 3, Type 0, BuildingBlock: VOLQOD_clean_sbu_1, # of connection points: 6
#     Node 4, Type 0, BuildingBlock: VOLQOD_clean_sbu_1, # of connection points: 6
#     Node 5, Type 0, BuildingBlock: VOLQOD_clean_sbu_1, # of connection points: 6
#     Node 6, Type 0, BuildingBlock: VOLQOD_clean_sbu_1, # of connection points: 6
#     Node 7, Type 0, BuildingBlock: VOLQOD_clean_sbu_1, # of connection points: 6
#     Node 8, Type 0, BuildingBlock: VOLQOD_clean_sbu_1, # of connection points: 6
#     Node 9, Type 0, BuildingBlock: VOLQOD_clean_sbu_1, # of connection points: 6
#     Node 10, Type 0, BuildingBlock: VOLQOD_clean_sbu_1, # of connection points: 6
#     Node 11, Type 0, BuildingBlock: VOLQOD_clean_sbu_1, # of connection points: 6
#     Node 12, Type 0, BuildingBlock: VOLQOD_clean_sbu_1, # of connection points: 6
#     Node 13, Type 0, BuildingBlock: VOLQOD_clean_sbu_1, # of connection points: 6
#     Node 14, Type 0, BuildingBlock: VOLQOD_clean_sbu_1, # of connection points: 6
#     Node 15, Type 0, BuildingBlock: VOLQOD_clean_sbu_1, # of connection points: 6
#     Node 16, Type 0, BuildingBlock: VOLQOD_clean_sbu_1, # of connection points: 6
#     Node 17, Type 0, BuildingBlock: VOLQOD_clean_sbu_1, # of connection points: 6
#     Edge 18, Type (0, 0), BuildingBlock: OJICUG_clean_linker_0, # of connection points: 2
#     Edge 19, Type (0, 0), BuildingBlock: OJICUG_clean_linker_0, # of connection points: 2
#     Edge 20, Type (0, 0), BuildingBlock: OJICUG_clean_linker_0, # of connection points: 2
#     Edge 21, Type (0, 0), BuildingBlock: OJICUG_clean_linker_0, # of connection points: 2
#     Edge 22, Type (0, 0), BuildingBlock: OJICUG_clean_linker_0, # of connection points: 2
#     Edge 23, Type (0, 0), BuildingBlock: OJICUG_clean_linker_0, # of connection points: 2
#     Edge 24, Type (0, 0), BuildingBlock: OJICUG_clean_linker_0, # of connection points: 2
#     Edge 25, Type (0, 0), BuildingBlock: OJICUG_clean_linker_0, # of connection points: 2
#     Edge 26, Type (0, 0), BuildingBlock: OJICUG_clean_linker_0, # of connection points: 2
#     Edge 27, Type (0, 0), BuildingBlock: OJICUG_clean_linker_0, # of connection points: 2
#     Edge 28, Type (0, 0), BuildingBlock: OJICUG_clean_linker_0, # of connection points: 2
#     Edge 29, Type (0, 0), BuildingBlock: OJICUG_clean_linker_0, # of connection points: 2
#     Edge 30, Type (0, 0), BuildingBlock: OJICUG_clean_linker_0, # of connection points: 2
#     Edge 31, Type (0, 0), BuildingBlock: OJICUG_clean_linker_0, # of connection points: 2
#     Edge 32, Type (0, 0), BuildingBlock: OJICUG_clean_linker_0, # of connection points: 2
#     Edge 33, Type (0, 0), BuildingBlock: OJICUG_clean_linker_0, # of connection points: 2
#     Edge 34, Type (0, 0), BuildingBlock: OJICUG_clean_linker_0, # of connection points: 2
#     Edge 35, Type (0, 0), BuildingBlock: OJICUG_clean_linker_0, # of connection points: 2
#     Edge 36, Type (0, 0), BuildingBlock: OJICUG_clean_linker_0, # of connection points: 2
#     Edge 37, Type (0, 0), BuildingBlock: OJICUG_clean_linker_0, # of connection points: 2
#     Edge 38, Type (0, 0), BuildingBlock: OJICUG_clean_linker_0, # of connection points: 2
#     Edge 39, Type (0, 0), BuildingBlock: OJICUG_clean_linker_0, # of connection points: 2
#     Edge 40, Type (0, 0), BuildingBlock: OJICUG_clean_linker_0, # of connection points: 2
#     Edge 41, Type (0, 0), BuildingBlock: OJICUG_clean_linker_0, # of connection points: 2
#     Edge 42, Type (0, 0), BuildingBlock: OJICUG_clean_linker_0, # of connection points: 2
#     Edge 43, Type (0, 0), BuildingBlock: OJICUG_clean_linker_0, # of connection points: 2
#     Edge 44, Type (0, 0), BuildingBlock: OJICUG_clean_linker_0, # of connection points: 2
#     Edge 45, Type (0, 0), BuildingBlock: OJICUG_clean_linker_0, # of connection points: 2
#     Edge 46, Type (0, 0), BuildingBlock: OJICUG_clean_linker_0, # of connection points: 2
#     Edge 47, Type (0, 0), BuildingBlock: OJICUG_clean_linker_0, # of connection points: 2
#     Edge 48, Type (0, 0), BuildingBlock: OJICUG_clean_linker_0, # of connection points: 2
#     Edge 49, Type (0, 0), BuildingBlock: OJICUG_clean_linker_0, # of connection points: 2
#     Edge 50, Type (0, 0), BuildingBlock: OJICUG_clean_linker_0, # of connection points: 2
#     Edge 51, Type (0, 0), BuildingBlock: OJICUG_clean_linker_0, # of connection points: 2
#     Edge 52, Type (0, 0), BuildingBlock: OJICUG_clean_linker_0, # of connection points: 2
#     Edge 53, Type (0, 0), BuildingBlock: OJICUG_clean_linker_0, # of connection points: 2
#     Edge 54, Type (0, 0), BuildingBlock: OJICUG_clean_linker_0, # of connection points: 2
#     Edge 55, Type (0, 0), BuildingBlock: OJICUG_clean_linker_0, # of connection points: 2
#     Edge 56, Type (0, 0), BuildingBlock: OJICUG_clean_linker_0, # of connection points: 2
#     Edge 57, Type (0, 0), BuildingBlock: OJICUG_clean_linker_0, # of connection points: 2
#     Edge 58, Type (0, 0), BuildingBlock: OJICUG_clean_linker_0, # of connection points: 2
#     Edge 59, Type (0, 0), BuildingBlock: OJICUG_clean_linker_0, # of connection points: 2
#     Edge 60, Type (0, 0), BuildingBlock: OJICUG_clean_linker_0, # of connection points: 2
#     Edge 61, Type (0, 0), BuildingBlock: OJICUG_clean_linker_0, # of connection points: 2
#     Edge 62, Type (0, 0), BuildingBlock: OJICUG_clean_linker_0, # of connection points: 2
#     Edge 63, Type (0, 0), BuildingBlock: OJICUG_clean_linker_0, # of connection points: 2
#     Edge 64, Type (0, 0), BuildingBlock: OJICUG_clean_linker_0, # of connection points: 2
#     Edge 65, Type (0, 0), BuildingBlock: OJICUG_clean_linker_0, # of connection points: 2
#     Edge 66, Type (0, 0), BuildingBlock: OJICUG_clean_linker_0, # of connection points: 2
#     Edge 67, Type (0, 0), BuildingBlock: OJICUG_clean_linker_0, # of connection points: 2
#     Edge 68, Type (0, 0), BuildingBlock: OJICUG_clean_linker_0, # of connection points: 2
#     Edge 69, Type (0, 0), BuildingBlock: OJICUG_clean_linker_0, # of connection points: 2
#     Edge 70, Type (0, 0), BuildingBlock: OJICUG_clean_linker_0, # of connection points: 2
#     Edge 71, Type (0, 0), BuildingBlock: OJICUG_clean_linker_0, # of connection points: 2
# Relax obj value: 0.180
# Max RMSD: 0.177
# Mean RMSD: 0.175
data_MOF--net-smd--node1-VOLQOD_clean_sbu_1--edge1-OJICUG_clean_linker_0
_symmetry_space_group_name_H-M    P1
_symmetry_Int_Tables_number       1
_symmetry_cell_setting            triclinic
loop_
_symmetry_equiv_pos_as_xyz
'x, y, z'
_cell_length_a     58.908135
_cell_length_b     59.062253
_cell_length_c     12.949173
_cell_angle_alpha  90.096157
_cell_angle_beta   89.993105
_cell_angle_gamma 119.95447
loop_
_atom_site_label
_atom_site_type_symbol
_atom_site_fract_x
_atom_site_fract_y
_atom_site_fract_z
_atom_type_partial_charge
O0 O 0.01032 0.20767 0.2491 0.0
Zn1 Zn 0.00723 0.19692 0.39683 0.0
O2 O 0.00463 0.22256 0.47921 0.0
Zn3 Zn 0.03684 0.24691 0.54968 0.0
Zn4 Zn -0.00878 0.23995 0.39538 0.0
Zn5 Zn 0.98073 0.20475 0.58643 0.0
O6 O 0.02944 0.24851 0.70497 0.0
O7 O -0.00105 0.20668 0.71653 0.0
O8 O 0.03965 0.19634 0.43964 0.0
O9 O 0.06053 0.23138 0.54178 0.0
O10 O 0.05387 0.28283 0.4766 0.0
O11 O 0.01915 0.2766 0.386 0.0
O12 O 0.96017 0.24045 0.46366 0.0
O13 O 0.97484 0.16092 0.41106 0.0
O14 O 0.9594 0.22164 0.61319 0.0
O15 O 0.95724 0.16786 0.5504 0.0
C16 C 0.00051 0.21926 0.19877 0.0
C17 C 0.01542 0.22804 0.75887 0.0
C18 C 0.04274 0.2911 0.41446 0.0
C19 C 0.05894 0.21131 0.49744 0.0
C20 C 0.95195 0.23425 0.55644 0.0
C21 C 0.95692 0.15285 0.47939 0.0
O22 O -0.01166 0.2293 0.24424 0.0
O23 O 0.80367 0.81018 0.69219 0.0
Zn24 Zn 0.81178 0.82051 0.54401 0.0
O25 O 0.78289 0.79533 0.46261 0.0
Zn26 Zn 0.79011 0.77079 0.391 0.0
Zn27 Zn 0.7524 0.77749 0.5492 0.0
Zn28 Zn 0.77632 0.81356 0.35768 0.0
O29 O 0.78235 0.77025 0.23512 0.0
O30 O 0.79183 0.81163 0.22546 0.0
O31 O 0.8447 0.81999 0.50469 0.0
O32 O 0.82864 0.78402 0.40754 0.0
O33 O 0.77125 0.7351 0.46243 0.0
O34 O 0.74568 0.74157 0.56988 0.0
O35 O 0.7201 0.77476 0.47895 0.0
O36 O 0.81602 0.85657 0.52975 0.0
O37 O 0.73785 0.79632 0.33333 0.0
O38 O 0.7904 0.85075 0.39437 0.0
C39 C 0.78226 0.7997 0.74274 0.0
C40 C 0.78799 0.79069 0.18235 0.0
C41 C 0.75445 0.7273 0.53551 0.0
C42 C 0.84781 0.80346 0.45205 0.0
C43 C 0.71785 0.78201 0.38834 0.0
C44 C 0.80598 0.86519 0.46462 0.0
O45 O 0.76007 0.79025 0.69744 0.0
O46 O 0.19333 0.00337 0.27184 0.0
Zn47 Zn 0.18534 0.00595 0.41996 0.0
O48 O 0.21444 0.00997 0.50095 0.0
Zn49 Zn 0.20797 0.9786 0.57283 0.0
Zn50 Zn 0.24501 0.02332 0.41483 0.0
Zn51 Zn 0.22048 0.03437 0.60691 0.0
O52 O 0.21611 0.98631 0.72821 0.0
O53 O 0.20438 0.01662 0.73782 0.0
O54 O 0.15262 0.97243 0.46164 0.0
O55 O 0.16926 0.95333 0.56036 0.0
O56 O 0.22776 0.96241 0.50166 0.0
O57 O 0.25316 -0.00501 0.39643 0.0
O58 O 0.27681 0.05369 0.48444 0.0
O59 O 0.18151 0.03829 0.43279 0.0
O60 O 0.25885 0.05559 0.633 0.0
O61 O 0.20689 0.05779 0.56903 0.0
C62 C 0.21473 0.01451 0.22118 0.0
C63 C 0.20935 0.00031 0.78106 0.0
C64 C 0.24501 0.97205 0.43028 0.0
C65 C 0.14978 0.95324 0.5167 0.0
C66 C 0.2789 0.06238 0.57657 0.0
C67 C 0.19169 0.057 0.49786 0.0
O68 O 0.23689 0.02758 0.26631 0.0
O69 O 0.01972 0.78985 0.73775 0.0
Zn70 Zn 0.02901 0.79768 0.58407 0.0
O71 O -0.00237 0.78892 0.50645 0.0
Zn72 Zn -0.01149 0.75968 0.41789 0.0
Zn73 Zn 0.97029 0.77815 0.60392 0.0
Zn74 Zn -0.0003 0.81773 0.4286 0.0
O75 O 0.98116 0.76635 0.27286 0.0
O76 O 0.00087 0.80989 0.27796 0.0
O77 O 0.04882 0.78051 0.51966 0.0
O78 O 0.02033 0.7576 0.39641 0.0
O79 O 0.96255 0.72538 0.48607 0.0
O80 O 0.95365 0.7398 0.63009 0.0
O81 O 0.94367 0.78661 0.55274 0.0
O82 O 0.05277 0.83646 0.57102 0.0
O83 O 0.96666 0.82025 0.44748 0.0
O84 O 0.03299 0.85125 0.46666 0.0
C85 C 0.0029 0.79356 0.7862 0.0
C86 C -0.00882 0.78847 0.2276 0.0
C87 C 0.95188 0.72112 0.57516 0.0
C88 C 0.04246 0.76602 0.43923 0.0
C89 C 0.94543 0.8047 0.49423 0.0
C90 C 0.05231 0.85517 0.5238 0.0
O91 O 0.98485 0.79514 0.73874 0.0
O92 O 0.24495 0.22352 0.27532 0.0
Zn93 Zn 0.24382 0.21522 0.42892 0.0
O94 O 0.22316 0.22762 0.50256 0.0
Zn95 Zn 0.24509 0.25725 0.58774 0.0
Zn96 Zn 0.20503 0.23787 0.40806 0.0
Zn97 Zn 0.19782 0.20121 0.59207 0.0
O98 O 0.23149 0.2528 0.73363 0.0
O99 O 0.21132 0.20938 0.73658 0.0
O100 O 0.28059 0.23075 0.4949 0.0
O101 O 0.27871 0.25808 0.6086 0.0
O102 O 0.25269 0.29091 0.51666 0.0
O103 O 0.21894 0.27628 0.40884 0.0
O104 O 0.16689 0.22002 0.43468 0.0
O105 O 0.225 0.17578 0.43993 0.0
O106 O 0.16271 0.19981 0.58418 0.0
O107 O 0.193 0.16624 0.55313 0.0
C108 C 0.22944 0.22833 0.22307 0.0
C109 C 0.22257 0.23133 0.78295 0.0
C110 C 0.2394 0.29495 0.44893 0.0
C111 C 0.29048 0.24708 0.56942 0.0
C112 C 0.15315 0.20689 0.51113 0.0
C113 C 0.20517 0.15919 0.49143 0.0
O114 O 0.21192 0.2317 0.26547 0.0
O115 O 0.76363 0.9872 0.68757 0.0
Zn116 Zn 0.76483 0.97924 0.53435 0.0
O117 O 0.78651 0.01139 0.45777 0.0
Zn118 Zn 0.76487 0.01939 0.37172 0.0
Zn119 Zn 0.8037 0.03838 0.55733 0.0
Zn120 Zn 0.81302 0.01011 0.37456 0.0
O121 O 0.77775 0.02665 0.22489 0.0
O122 O 0.80344 0.00893 0.22635 0.0
O123 O 0.72839 0.95809 0.46788 0.0
O124 O 0.73088 0.98687 0.35154 0.0
O125 O 0.75806 0.04641 0.44126 0.0
O126 O 0.78516 0.05867 0.57544 0.0
O127 O 0.84102 0.06161 0.52373 0.0
O128 O 0.78238 0.95745 0.52539 0.0
O129 O 0.84919 0.04163 0.39586 0.0
O130 O 0.81419 0.9777 0.40913 0.0
C131 C 0.78319 0.00456 0.73843 0.0
C132 C 0.79049 0.01752 0.17786 0.0
C133 C 0.76728 0.05969 0.52421 0.0
C134 C 0.71883 0.96427 0.39163 0.0
C135 C 0.85679 0.06037 0.46011 0.0
C136 C 0.8013 0.959 0.47193 0.0
O137 O 0.80262 0.02334 0.69382 0.0
O138 O 0.67603 0.54375 0.05669 0.0
Zn139 Zn 0.67637 0.53534 0.90681 0.0
O140 O 0.67751 0.56338 0.82739 0.0
Zn141 Zn 0.64624 0.55359 0.74668 0.0
Zn142 Zn 0.68499 0.59257 0.91429 0.0
Zn143 Zn 0.70522 0.57411 0.73132 0.0
O144 O 0.65619 0.56205 0.59454 0.0
O145 O 0.69134 0.55731 0.59562 0.0
O146 O 0.6434 0.50194 0.87182 0.0
O147 O 0.62332 0.51443 0.75807 0.0
O148 O 0.62567 0.57054 0.80578 0.0
O149 O 0.6522 0.59341 0.93478 0.0
O150 O 0.71017 0.62675 0.84254 0.0
O151 O 0.70888 0.53207 0.88537 0.0
O152 O 0.72151 0.61218 0.70501 0.0
O153 O 0.73203 0.56586 0.78141 0.0
C154 C 0.68487 0.56524 0.10587 0.0
C155 C 0.67345 0.55891 0.54705 0.0
C156 C 0.63068 0.5847 0.88671 0.0
C157 C 0.62444 0.49674 0.81054 0.0
C158 C 0.72192 0.6308 0.75575 0.0
C159 C 0.73006 0.54745 0.83826 0.0
O160 O 0.69328 0.58707 0.05959 0.0
O161 O 0.46892 0.14112 0.04769 0.0
Zn162 Zn 0.47706 0.15383 0.90181 0.0
O163 O 0.449 0.12947 0.81488 0.0
Zn164 Zn 0.45866 0.10687 0.741 0.0
Zn165 Zn 0.41947 0.10984 0.90417 0.0
Zn166 Zn 0.43988 0.14786 0.71841 0.0
O167 O 0.44975 0.10565 0.58781 0.0
O168 O 0.44888 0.14292 0.57752 0.0
O169 O 0.51082 0.15571 0.86066 0.0
O170 O 0.49789 0.12317 0.7473 0.0
O171 O 0.44257 0.07112 0.81349 0.0
O172 O 0.41746 0.07582 0.93028 0.0
O173 O 0.38546 0.10375 0.83864 0.0
O174 O 0.4807 0.18978 0.89279 0.0
O175 O 0.40113 0.13215 0.70949 0.0
O176 O 0.457 0.18572 0.75268 0.0
C177 C 0.44724 0.13211 0.0955 0.0
C178 C 0.44896 0.12355 0.53523 0.0
C179 C 0.42735 0.06288 0.89189 0.0
C180 C 0.51591 0.14226 0.7976 0.0
C181 C 0.3819 0.11441 0.75932 0.0
C182 C 0.47213 0.19942 0.82561 0.0
O183 O 0.42584 0.12506 0.04733 0.0
O184 O 0.86675 0.33721 0.04484 0.0
Zn185 Zn 0.85644 0.33528 0.89775 0.0
O186 O 0.88266 0.33399 0.81348 0.0
Zn187 Zn 0.90479 0.36655 0.73998 0.0
Zn188 Zn 0.90366 0.32457 0.89803 0.0
Zn189 Zn 0.86485 0.30794 0.71086 0.0
O190 O 0.9061 0.3592 0.58566 0.0
O191 O 0.86641 0.32403 0.57626 0.0
O192 O 0.85505 0.36772 0.86469 0.0
O193 O 0.88782 0.38893 0.75302 0.0
O194 O 0.94114 0.38674 0.80834 0.0
O195 O 0.93869 0.35603 0.91409 0.0
O196 O 0.90813 0.29586 0.82971 0.0
O197 O 0.82069 0.30287 0.88116 0.0
O198 O 0.883 0.28745 0.69061 0.0
O199 O 0.8274 0.28406 0.74488 0.0
C200 C 0.87966 0.32867 0.09386 0.0
C201 C 0.88643 0.34251 0.5332 0.0
C202 C 0.95096 0.3792 0.87921 0.0
C203 C 0.86864 0.38709 0.80556 0.0
C204 C 0.89931 0.28415 0.74344 0.0
C205 C 0.8125 0.28453 0.81471 0.0
O206 O 0.89188 0.31889 0.04724 0.0
O207 O 0.68512 0.12142 0.02591 0.0
Zn208 Zn 0.69359 0.13082 0.87259 0.0
O209 O 0.66151 0.12178 0.79729 0.0
Zn210 Zn 0.65198 0.09185 0.71163 0.0
Zn211 Zn 0.63477 0.1133 0.89721 0.0
Zn212 Zn 0.66406 0.14973 0.7134 0.0
O213 O 0.64447 0.09741 0.56439 0.0
O214 O 0.66572 0.14097 0.56596 0.0
O215 O 0.7138 0.11472 0.80214 0.0
O216 O 0.68341 0.08913 0.68935 0.0
O217 O 0.62591 0.05873 0.7854 0.0
O218 O 0.61364 0.07462 0.91646 0.0
O219 O 0.61173 0.12763 0.8614 0.0
O220 O 0.71651 0.17001 0.86514 0.0
O221 O 0.63203 0.15392 0.72876 0.0
O222 O 0.69708 0.18299 0.75048 0.0
C223 C 0.6686 0.12494 0.07738 0.0
C224 C 0.65552 0.11933 0.51729 0.0
C225 C 0.6127 0.05547 0.86768 0.0
C226 C 0.70635 0.0988 0.72594 0.0
C227 C 0.61314 0.14363 0.79288 0.0
C228 C 0.71571 0.18794 0.81317 0.0
O229 O 0.65066 0.1273 0.03317 0.0
O230 O 0.89198 0.57676 0.07297 0.0
Zn231 Zn 0.88424 0.5774 0.91888 0.0
O232 O 0.891 0.55305 0.84341 0.0
Zn233 Zn 0.92075 0.5719 0.75529 0.0
Zn234 Zn 0.8988 0.53442 0.94368 0.0
Zn235 Zn 0.86164 0.52816 0.76265 0.0
O236 O 0.91329 0.55832 0.60938 0.0
O237 O 0.86965 0.53822 0.61392 0.0
O238 O 0.90271 0.61377 0.8525 0.0
O239 O 0.92612 0.60741 0.73406 0.0
O240 O 0.95357 0.5762 0.82396 0.0
O241 O 0.93762 0.55217 0.96559 0.0
O242 O 0.88458 0.49725 0.90291 0.0
O243 O 0.8459 0.56449 0.90533 0.0
O244 O 0.85707 0.49191 0.77507 0.0
O245 O 0.82897 0.52918 0.80424 0.0
C246 C 0.88694 0.5562 0.12357 0.0
C247 C 0.89113 0.54849 0.56385 0.0
C248 C 0.95699 0.56819 0.91107 0.0
C249 C 0.9181 0.6217 0.77481 0.0
C250 C 0.86796 0.48304 0.83485 0.0
C251 C 0.8264 0.5456 0.86011 0.0
O252 O 0.88388 0.53573 0.07864 0.0
O253 O 0.43637 0.32507 0.05095 0.0
Zn254 Zn 0.4372 0.31684 0.89791 0.0
O255 O 0.45893 0.34884 0.82124 0.0
Zn256 Zn 0.43732 0.3566 0.73424 0.0
Zn257 Zn 0.47614 0.37593 0.92097 0.0
Zn258 Zn 0.48532 0.34749 0.73838 0.0
O259 O 0.45051 0.36414 0.58801 0.0
O260 O 0.47525 0.34537 0.59034 0.0
O261 O 0.40065 0.2956 0.83188 0.0
O262 O 0.40344 0.32398 0.71311 0.0
O263 O 0.43018 0.38332 0.80348 0.0
O264 O 0.45657 0.39522 0.93995 0.0
O265 O 0.51324 0.40045 0.88418 0.0
O266 O 0.45457 0.29496 0.88852 0.0
O267 O 0.52073 0.38032 0.75449 0.0
O268 O 0.4871 0.31533 0.77512 0.0
C269 C 0.45612 0.34221 0.10167 0.0
C270 C 0.46276 0.35441 0.54141 0.0
C271 C 0.43883 0.39623 0.88756 0.0
C272 C 0.39126 0.30152 0.7543 0.0
C273 C 0.52841 0.39948 0.81685 0.0
C274 C 0.47372 0.29648 0.8369 0.0
O275 O 0.4757 0.36083 0.05693 0.0
O276 O 0.3405 0.87968 0.92964 0.0
Zn277 Zn 0.33854 0.86994 0.07805 0.0
O278 O 0.33801 0.89688 0.16068 0.0
Zn279 Zn 0.37077 0.91882 0.2346 0.0
Zn280 Zn 0.32894 0.91763 0.07417 0.0
Zn281 Zn 0.31169 0.88019 0.26266 0.0
O282 O 0.36363 0.92014 0.38929 0.0
O283 O 0.3274 0.8813 0.39779 0.0
O284 O 0.37052 0.86801 0.11392 0.0
O285 O 0.39271 0.90124 0.22284 0.0
O286 O 0.39087 0.95529 0.16745 0.0
O287 O 0.36066 0.95203 0.05581 0.0
O288 O 0.30141 0.92388 0.143 0.0
O289 O 0.30626 0.83423 0.09877 0.0
O290 O 0.29153 0.89871 0.28195 0.0
O291 O 0.28777 0.8432 0.22979 0.0
C292 C 0.33215 0.89268 0.88013 0.0
C293 C 0.34648 0.90074 0.44125 0.0
C294 C 0.38352 0.96456 0.09385 0.0
C295 C 0.39011 0.88144 0.17267 0.0
C296 C 0.28924 0.9155 0.22861 0.0
C297 C 0.28795 0.82716 0.16489 0.0
O298 O 0.32256 0.90513 0.92629 0.0
O299 O 0.13745 0.47458 0.38181 0.0
Zn300 Zn 0.14509 0.48537 0.23468 0.0
O301 O 0.11736 0.4599 0.15017 0.0
Zn302 Zn 0.12737 0.43713 0.07889 0.0
Zn303 Zn 0.0871 0.44051 0.23547 0.0
Zn304 Zn 0.10899 0.47768 0.04755 0.0
O305 O 0.11866 0.43607 0.9245 0.0
O306 O 0.12435 0.47621 0.91412 0.0
O307 O 0.17908 0.48764 0.19537 0.0
O308 O 0.16682 0.45379 0.08881 0.0
O309 O 0.10994 0.40067 0.14804 0.0
O310 O 0.08118 0.4049 0.24512 0.0
O311 O 0.0542 0.43651 0.16831 0.0
O312 O 0.14754 0.52052 0.22273 0.0
O313 O 0.07004 0.4591 0.0236 0.0
O314 O 0.12235 0.51495 0.08611 0.0
C315 C 0.11603 0.46251 0.43166 0.0
C316 C 0.1223 0.45588 0.8716 0.0
C317 C 0.09106 0.39143 0.21288 0.0
C318 C 0.18458 0.47369 0.13671 0.0
C319 C 0.05068 0.44358 0.07935 0.0
C320 C 0.13742 0.52917 0.15821 0.0
O321 O 0.09387 0.45153 0.38578 0.0
O322 O 0.52937 0.67001 0.89957 0.0
Zn323 Zn 0.52135 0.67235 0.04779 0.0
O324 O 0.55052 0.67624 0.12859 0.0
Zn325 Zn 0.54362 0.6451 0.20379 0.0
Zn326 Zn 0.58084 0.68768 0.04194 0.0
Zn327 Zn 0.55713 0.70159 0.23176 0.0
O328 O 0.55204 0.65332 0.35773 0.0
O329 O 0.54208 0.68491 0.36536 0.0
O330 O 0.48863 0.63902 0.09036 0.0
O331 O 0.50488 0.62041 0.19379 0.0
O332 O 0.56247 0.6275 0.13716 0.0
O333 O 0.58708 0.65781 0.02218 0.0
O334 O 0.61329 0.7176 0.11095 0.0
O335 O 0.51685 0.70431 0.06117 0.0
O336 O 0.59556 0.7232 0.25354 0.0
O337 O 0.54282 0.72452 0.195 0.0
C338 C 0.55087 0.68076 0.84953 0.0
C339 C 0.54615 0.6681 0.40945 0.0
C340 C 0.57866 0.63538 0.06197 0.0
C341 C 0.48555 0.62026 0.14866 0.0
C342 C 0.61554 0.72825 0.19935 0.0
C343 C 0.52701 0.72318 0.1255 0.0
O344 O 0.57306 0.69293 0.89502 0.0
O345 O 0.35589 0.45883 0.38555 0.0
Zn346 Zn 0.36388 0.46632 0.2314 0.0
O347 O 0.33179 0.45733 0.15736 0.0
Zn348 Zn 0.32239 0.42794 0.06915 0.0
Zn349 Zn 0.30348 0.44748 0.25163 0.0
Zn350 Zn 0.33543 0.48545 0.07112 0.0
O351 O 0.3126 0.43348 0.92601 0.0
O352 O 0.3392 0.47657 0.92526 0.0
O353 O 0.3832 0.44903 0.16377 0.0
O354 O 0.35418 0.42606 0.04215 0.0
O355 O 0.29733 0.39432 0.14148 0.0
O356 O 0.28072 0.40876 0.26136 0.0
O357 O 0.28214 0.46374 0.2154 0.0
O358 O 0.38781 0.50493 0.21718 0.0
O359 O 0.30276 0.48895 0.08007 0.0
O360 O 0.36829 0.51912 0.10902 0.0
C361 C 0.33669 0.45747 0.43693 0.0
C362 C 0.32661 0.45487 0.87762 0.0
C363 C 0.28195 0.39019 0.21726 0.0
C364 C 0.37653 0.43455 0.08319 0.0
C365 C 0.28382 0.47931 0.14429 0.0
C366 C 0.38745 0.52338 0.1676 0.0
O367 O 0.31694 0.45658 0.39333 0.0
O368 O 0.57194 0.88762 0.91266 0.0
Zn369 Zn 0.57165 0.87932 0.06543 0.0
O370 O 0.55067 0.89087 0.14084 0.0
Zn371 Zn 0.57233 0.92011 0.22784 0.0
Zn372 Zn 0.53251 0.90151 0.04822 0.0
Zn373 Zn 0.52573 0.86386 0.22951 0.0
O374 O 0.55785 0.91519 0.37197 0.0
O375 O 0.53939 0.87189 0.37391 0.0
O376 O 0.60854 0.89515 0.13014 0.0
O377 O 0.60573 0.92064 0.25028 0.0
O378 O 0.5806 0.95417 0.15885 0.0
O379 O 0.54793 0.94018 0.0461 0.0
O380 O 0.49479 0.88525 0.08226 0.0
O381 O 0.55373 0.83999 0.07511 0.0
O382 O 0.49073 0.8628 0.22565 0.0
O383 O 0.5214 0.82905 0.18824 0.0
C384 C 0.55548 0.89124 0.86147 0.0
C385 C 0.54959 0.89375 0.42083 0.0
C386 C 0.56808 0.9586 0.08898 0.0
C387 C 0.61793 0.91045 0.20798 0.0
C388 C 0.48128 0.87145 0.15796 0.0
C389 C 0.5341 0.8228 0.12573 0.0
O390 O 0.53763 0.89389 0.90504 0.0
O391 O 0.10076 0.65368 0.40876 0.0
Zn392 Zn 0.10181 0.6461 0.25465 0.0
O393 O 0.12352 0.67845 0.17961 0.0
Zn394 Zn 0.10237 0.68714 0.09392 0.0
Zn395 Zn 0.14028 0.70491 0.28092 0.0
Zn396 Zn 0.15019 0.67756 0.09626 0.0
O397 O 0.11474 0.69379 0.94601 0.0
O398 O 0.14045 0.67613 0.94835 0.0
O399 O 0.06551 0.62526 0.18695 0.0
O400 O 0.06824 0.65509 0.07572 0.0
O401 O 0.09598 0.7144 0.16238 0.0
O402 O 0.12107 0.72444 0.30206 0.0
O403 O 0.17701 0.72928 0.24379 0.0
O404 O 0.11894 0.62402 0.24148 0.0
O405 O 0.1859 0.70992 0.11558 0.0
O406 O 0.15135 0.64498 0.12802 0.0
C407 C 0.12044 0.67078 0.46004 0.0
C408 C 0.12742 0.68454 0.89936 0.0
C409 C 0.10417 0.72653 0.24821 0.0
C410 C 0.05602 0.63216 0.11272 0.0
C411 C 0.19292 0.72884 0.17867 0.0
C412 C 0.13789 0.62572 0.1878 0.0
O413 O 0.14001 0.68949 0.41575 0.0
C414 C 0.05292 0.35175 0.28047 0.0
C415 C 0.07968 0.36484 0.2561 0.0
H416 H 0.02088 0.31915 0.35223 0.0
C417 C 0.09505 0.35394 0.28755 0.0
H418 H 0.04059 0.35973 0.25809 0.0
C419 C 0.0836 0.33036 0.34371 0.0
C420 C 0.05671 0.31748 0.36792 0.0
H421 H 0.11586 0.36396 0.27144 0.0
H422 H 0.09556 0.322 0.36631 0.0
C423 C 0.04165 0.32855 0.33544 0.0
C424 C 0.68914 0.76935 0.23183 0.0
C425 C 0.69165 0.77111 0.34025 0.0
H426 H 0.66314 0.75419 0.10197 0.0
C427 C 0.66893 0.76037 0.40092 0.0
H428 H 0.70631 0.77729 0.18275 0.0
C429 C 0.64423 0.74752 0.35434 0.0
C430 C 0.64173 0.74466 0.24615 0.0
H431 H 0.67023 0.7614 0.48441 0.0
H432 H 0.6271 0.73888 0.40365 0.0
C433 C 0.66444 0.75602 0.18531 0.0
C434 C 0.25135 0.93288 0.41987 0.0
C435 C 0.2547 0.9562 0.37758 0.0
H436 H 0.25946 0.90147 0.40535 0.0
C437 C 0.26734 0.96456 0.28128 0.0
H438 H 0.24148 0.92578 0.49318 0.0
C439 C 0.27726 0.95056 0.23029 0.0
C440 C 0.27502 0.92789 0.27446 0.0
H441 H 0.26983 0.98218 0.24505 0.0
H442 H 0.28749 0.95807 0.15788 0.0
C443 C 0.26155 0.91892 0.36906 0.0
C444 C 0.32738 0.09271 0.56282 0.0
C445 C 0.30506 0.07827 0.62397 0.0
H446 H 0.36915 0.11604 0.55843 0.0
C447 C 0.30807 0.0775 0.73167 0.0
H448 H 0.32567 0.09366 0.47985 0.0
C449 C 0.33298 0.08986 0.77665 0.0
C450 C 0.35534 0.10378 0.71519 0.0
H451 H 0.29122 0.06637 0.78093 0.0
H452 H 0.33476 0.0881 0.85912 0.0
C453 C 0.35224 0.10561 0.60814 0.0
C454 C 0.92318 0.25909 0.75836 0.0
C455 C 0.9102 0.26866 0.69727 0.0
H456 H 0.94606 0.2402 0.7617 0.0
C457 C 0.90934 0.26505 0.5894 0.0
H458 H 0.92415 0.26154 0.84146 0.0
C459 C 0.92227 0.25323 0.54325 0.0
C460 C 0.93585 0.24427 0.60416 0.0
H461 H 0.8996 0.27235 0.53995 0.0
H462 H 0.92206 0.25156 0.45989 0.0
C463 C 0.93564 0.24678 0.7124 0.0
C464 C 0.75355 0.68438 0.55453 0.0
C465 C 0.74685 0.70263 0.59135 0.0
H466 H 0.75128 0.64744 0.57852 0.0
C467 C 0.73377 0.69792 0.68689 0.0
H468 H 0.76391 0.68756 0.48209 0.0
C469 C 0.72699 0.67529 0.74301 0.0
C470 C 0.73286 0.6566 0.70479 0.0
H471 H 0.72867 0.71175 0.71895 0.0
H472 H 0.71637 0.67212 0.81478 0.0
C473 C 0.7465 0.66152 0.61043 0.0
C474 C 0.94376 0.67533 0.57373 0.0
C475 C 0.94043 0.69475 0.62199 0.0
H476 H 0.93972 0.63749 0.58435 0.0
C477 C 0.92872 0.68963 0.72059 0.0
H478 H 0.95278 0.67855 0.49823 0.0
C479 C 0.92118 0.66589 0.77074 0.0
C480 C 0.92549 0.64692 0.72375 0.0
H481 H 0.9259 0.70421 0.7602 0.0
H482 H 0.91249 0.66262 0.84688 0.0
C483 C 0.93651 0.65182 0.62403 0.0
C484 C 0.31905 0.25398 0.72109 0.0
C485 C 0.31636 0.25451 0.61316 0.0
H486 H 0.34524 0.26797 0.85115 0.0
C487 C 0.33885 0.2674 0.55194 0.0
H488 H 0.30184 0.24437 0.76981 0.0
C489 C 0.36349 0.28146 0.59862 0.0
C490 C 0.36606 0.28235 0.70699 0.0
H491 H 0.33721 0.26845 0.46896 0.0
H492 H 0.38048 0.29273 0.55013 0.0
C493 C 0.34379 0.26748 0.76768 0.0
C494 C 0.74678 0.09423 0.71976 0.0
C495 C 0.7243 0.09186 0.67232 0.0
H496 H 0.7783 0.08606 0.70961 0.0
C497 C 0.7181 0.08177 0.57107 0.0
H498 H 0.75219 0.10213 0.79711 0.0
C499 C 0.73301 0.07281 0.52067 0.0
C500 C 0.75455 0.0736 0.5701 0.0
H501 H 0.70123 0.08021 0.5309 0.0
H502 H 0.72696 0.06432 0.44441 0.0
C503 C 0.76174 0.08508 0.6692 0.0
C504 C 0.66626 0.93059 0.18979 0.0
C505 C 0.64382 0.91782 0.25131 0.0
H506 H 0.70793 0.95569 0.18756 0.0
C507 C 0.64659 0.91714 0.35914 0.0
H508 H 0.66457 0.93171 0.10687 0.0
C509 C 0.67136 0.93044 0.4054 0.0
C510 C 0.6936 0.94522 0.34448 0.0
H511 H 0.62941 0.90756 0.40809 0.0
H512 H 0.67289 0.93084 0.48883 0.0
C513 C 0.69096 0.94446 0.23616 0.0
C514 C 0.08177 0.75964 0.44243 0.0
C515 C 0.06077 0.75908 0.38916 0.0
H516 H 0.11226 0.74989 0.43922 0.0
C517 C 0.05632 0.75064 0.28551 0.0
H518 H 0.08581 0.76623 0.5219 0.0
C519 C 0.07142 0.74152 0.23799 0.0
C520 C 0.09139 0.74049 0.2928 0.0
H521 H 0.04065 0.75049 0.24113 0.0
H522 H 0.06672 0.73434 0.15939 0.0
C523 C 0.09692 0.75034 0.39472 0.0
C524 C 0.24467 0.35387 0.31276 0.0
C525 C 0.26996 0.3649 0.27074 0.0
H526 H 0.21487 0.32251 0.40248 0.0
C527 C 0.28551 0.35369 0.2936 0.0
H528 H 0.23257 0.36254 0.29768 0.0
C529 C 0.27603 0.33191 0.35792 0.0
C530 C 0.25056 0.3205 0.39808 0.0
H531 H 0.30533 0.36227 0.26423 0.0
H532 H 0.28828 0.32342 0.37329 0.0
C533 C 0.23478 0.33139 0.37396 0.0
C534 C -0.00444 0.42009 0.88192 0.0
C535 C 0.97584 0.39777 0.93133 0.0
H536 H 0.03491 0.45237 0.89028 0.0
C537 C 0.97993 0.3927 0.03382 0.0
H538 H -0.00714 0.42463 0.80348 0.0
C539 C 0.00358 0.4087 0.08411 0.0
C540 C 0.02403 0.4301 0.03301 0.0
H541 H 0.96489 0.37601 0.07526 0.0
H542 H 0.00617 0.40351 0.16165 0.0
C543 C 0.01956 0.43601 0.93205 0.0
C544 C 0.60336 0.60572 0.86389 0.0
C545 C 0.61213 0.59242 0.92694 0.0
H546 H 0.58609 0.63017 0.85853 0.0
C547 C 0.60712 0.59081 0.03382 0.0
H548 H 0.60734 0.60754 0.78172 0.0
C549 C 0.59457 0.60332 0.07774 0.0
C550 C 0.58764 0.61833 0.01574 0.0
H551 H 0.61399 0.58081 0.08402 0.0
H552 H 0.59186 0.60265 0.16065 0.0
C553 C 0.59149 0.61885 0.90814 0.0
C554 C 0.41548 0.01576 0.88869 0.0
C555 C 0.42143 0.03838 0.94464 0.0
H556 H 0.39857 0.97412 0.89418 0.0
C557 C 0.41908 0.03696 0.05312 0.0
H558 H 0.41706 0.01634 0.80527 0.0
C559 C 0.40926 0.01304 0.10421 0.0
C560 C 0.40123 -0.00988 0.04733 0.0
H561 H 0.42378 0.05426 0.09813 0.0
H562 H 0.40604 0.01219 0.18684 0.0
C563 C 0.40506 -0.00828 0.93962 0.0
C564 C 0.57503 0.01922 0.96165 0.0
C565 C 0.60029 0.03 0.91965 0.0
H566 H 0.54466 0.98751 0.04817 0.0
C567 C 0.61527 0.01802 0.93939 0.0
H568 H 0.56337 0.02847 0.94873 0.0
C569 C 0.60523 -0.00435 0.00063 0.0
C570 C 0.57976 0.98447 0.04059 0.0
H571 H 0.63505 0.02638 0.90971 0.0
H572 H 0.61704 0.98656 0.01379 0.0
C573 C 0.56455 -0.00383 0.01962 0.0
C574 C 0.02807 0.61759 0.9557 0.0
C575 C 0.03153 0.61322 0.05987 0.0
H576 H 0.0023 0.60642 0.82626 0.0
C577 C 0.0114 0.5915 0.11058 0.0
H578 H 0.04349 0.63379 0.91337 0.0
C579 C -0.01249 0.57563 0.05998 0.0
C580 C 0.98355 0.5811 0.95757 0.0
H581 H 0.01367 0.58751 0.19037 0.0
H582 H 0.97178 0.55984 0.10272 0.0
C583 C 0.00448 0.6017 0.90511 0.0
C584 C 0.38932 0.4181 0.92934 0.0
C585 C 0.39471 0.42765 0.03147 0.0
H586 H 0.39919 0.40129 0.80339 0.0
C587 C 0.4167 0.42958 0.08175 0.0
H588 H 0.37285 0.41685 0.88714 0.0
C589 C 0.43201 0.42064 0.03283 0.0
C590 C 0.42566 0.40977 0.9326 0.0
H591 H 0.42148 0.43705 0.15992 0.0
H592 H 0.44819 0.42132 0.07522 0.0
C593 C 0.40458 0.40933 0.88059 0.0
C594 C 0.09639 0.21397 0.59814 0.0
C595 C 0.08079 0.20613 0.50863 0.0
H596 H 0.13148 0.21924 0.67058 0.0
C597 C 0.08732 0.19491 0.42651 0.0
H598 H 0.09159 0.22248 0.6628 0.0
C599 C 0.11022 0.1935 0.43043 0.0
C600 C 0.12645 0.20249 0.51776 0.0
H601 H 0.07561 0.18872 0.35668 0.0
H602 H 0.11589 0.18646 0.36343 0.0
C603 C 0.11895 0.21185 0.60317 0.0
C604 C 0.80178 0.92238 0.56636 0.0
C605 C 0.80695 0.93743 0.47634 0.0
H606 H 0.79853 0.88773 0.63397 0.0
C607 C 0.81549 0.93035 0.38711 0.0
H608 H 0.79532 0.92758 0.63624 0.0
C609 C 0.81679 0.90744 0.3854 0.0
C610 C 0.81042 0.89178 0.47381 0.0
H611 H 0.81954 0.9416 0.31665 0.0
H612 H 0.82168 0.90135 0.31379 0.0
C613 C 0.80385 0.89982 0.56545 0.0
C614 C 0.09642 0.88601 0.59718 0.0
C615 C 0.0758 0.88157 0.53024 0.0
H616 H 0.13563 0.91201 0.646 0.0
C617 C 0.07886 0.90193 0.46493 0.0
H618 H 0.0947 0.87092 0.64938 0.0
C619 C 0.10256 0.92571 0.46304 0.0
C620 C 0.12361 0.92954 0.52632 0.0
H621 H 0.06335 0.89918 0.41259 0.0
H622 H 0.10467 0.94069 0.40937 0.0
C623 C 0.11998 0.90965 0.59518 0.0
C624 C 0.20275 0.12102 0.39686 0.0
C625 C 0.1972 0.13126 0.48519 0.0
H626 H 0.20408 0.08838 0.33036 0.0
C627 C 0.18568 0.11503 0.57119 0.0
H628 H 0.21145 0.13309 0.32928 0.0
C629 C 0.18188 0.08975 0.57215 0.0
C630 C 0.1887 0.08003 0.48599 0.0
H631 H 0.18122 0.1224 0.64033 0.0
H632 H 0.17486 0.07826 0.64214 0.0
C633 C 0.19823 0.09541 0.39687 0.0
C634 C 0.89444 0.09373 0.55951 0.0
C635 C 0.88441 0.08113 0.46481 0.0
H636 H 0.9256 0.1258 0.63838 0.0
C637 C 0.90027 0.08996 0.37624 0.0
H638 H 0.88287 0.08695 0.62951 0.0
C639 C 0.92503 0.11256 0.38121 0.0
C640 C 0.93403 0.12629 0.47492 0.0
H641 H 0.89295 0.08038 0.30247 0.0
H642 H 0.93632 0.12012 0.31099 0.0
C643 C 0.91897 0.11596 0.5646 0.0
C644 C 0.89826 0.78217 0.45301 0.0
C645 C 0.92141 0.80563 0.47379 0.0
H646 H 0.85706 0.76329 0.42716 0.0
C647 C 0.9208 0.82904 0.47984 0.0
H648 H 0.89837 0.76391 0.44733 0.0
C649 C 0.89689 0.82865 0.47057 0.0
C650 C 0.87358 0.80496 0.45202 0.0
H651 H 0.93852 0.84733 0.49596 0.0
H652 H 0.89657 0.84673 0.47932 0.0
C653 C 0.87466 0.78187 0.44087 0.0
C654 C 0.80054 0.56792 0.88355 0.0
C655 C 0.80093 0.5447 0.86452 0.0
H656 H 0.77764 0.58678 0.88868 0.0
C657 C 0.77722 0.52159 0.84392 0.0
H658 H 0.81844 0.58609 0.89916 0.0
C659 C 0.75361 0.52194 0.8404 0.0
C660 C 0.75368 0.54554 0.8545 0.0
H661 H 0.777 0.50342 0.82922 0.0
H662 H 0.73557 0.50414 0.82228 0.0
C663 C 0.77722 0.56839 0.87725 0.0
C664 C 0.4854 0.2662 0.74951 0.0
C665 C 0.47844 0.27428 0.84026 0.0
H666 H 0.48849 0.23556 0.67388 0.0
C667 C 0.47299 0.25915 0.93022 0.0
H668 H 0.48954 0.27744 0.67902 0.0
C669 C 0.47317 0.23558 0.92791 0.0
C670 C 0.47803 0.22656 0.83489 0.0
H671 H 0.46764 0.26507 0.00113 0.0
H672 H 0.4677 0.22356 -0.00331 0.0
C673 C 0.48476 0.24228 0.74644 0.0
C674 C 0.74689 0.23002 0.72912 0.0
C675 C 0.73824 0.21467 0.81874 0.0
H676 H 0.77775 0.26433 0.65784 0.0
C677 C 0.75275 0.22412 0.91051 0.0
H678 H 0.73613 0.2231 0.65728 0.0
C679 C 0.77614 0.2481 0.91146 0.0
C680 C 0.78562 0.26246 0.81994 0.0
H681 H 0.74639 0.21261 0.98062 0.0
H682 H 0.7876 0.25459 0.98186 0.0
C683 C 0.77064 0.25352 0.72933 0.0
C684 C 0.86856 0.44859 0.72661 0.0
C685 C 0.86303 0.45633 0.82136 0.0
H686 H 0.87513 0.4204 0.64756 0.0
C687 C 0.85661 0.43986 0.90729 0.0
H688 H 0.87389 0.46127 0.65984 0.0
C689 C 0.85663 0.41631 0.89973 0.0
C690 C 0.864 0.40938 0.80704 0.0
H691 H 0.8525 0.44568 0.9812 0.0
H692 H 0.85252 0.40439 0.96825 0.0
C693 C 0.86943 0.4254 0.71985 0.0
C694 C 0.57034 0.43124 0.89939 0.0
C695 C 0.55506 0.4218 0.80975 0.0
H696 H 0.60492 0.46222 0.96876 0.0
C697 C 0.56397 0.43587 0.71734 0.0
H698 H 0.56363 0.42066 0.97153 0.0
C699 C 0.58715 0.46003 0.71638 0.0
C700 C 0.60201 0.46994 0.80711 0.0
H701 H 0.55223 0.42897 0.64773 0.0
H702 H 0.5931 0.47128 0.64558 0.0
C703 C 0.59389 0.45493 0.89769 0.0
C704 C 0.58325 0.15633 0.87519 0.0
C705 C 0.59137 0.14884 0.78608 0.0
H706 H 0.5531 0.16084 0.9475 0.0
C707 C 0.57595 0.14207 0.69656 0.0
H708 H 0.59486 0.16138 0.94523 0.0
C709 C 0.55168 0.14096 0.69864 0.0
C710 C 0.54296 0.14726 0.7895 0.0
H711 H 0.5818 0.13589 0.62756 0.0
H712 H 0.53936 0.13429 0.63052 0.0
C713 C 0.55941 0.15597 0.8764 0.0
C714 C 0.43806 0.86067 0.08701 0.0
C715 C 0.45521 0.86836 0.17146 0.0
H716 H 0.40356 0.85827 0.02238 0.0
C717 C 0.44946 0.87795 0.26098 0.0
H718 H 0.4424 0.85353 0.01685 0.0
C719 C 0.42772 0.88152 0.26308 0.0
C720 C 0.41118 0.87492 0.17659 0.0
H721 H 0.46277 0.8844 0.32623 0.0
H722 H 0.4243 0.89016 0.33092 0.0
C723 C 0.41597 0.86352 0.09015 0.0
C724 C 0.13775 0.58779 0.27315 0.0
C725 C 0.14209 0.60323 0.18496 0.0
H726 H 0.13379 0.55223 0.334 0.0
C727 C 0.14766 0.59539 0.09038 0.0
H728 H 0.1334 0.59351 0.3468 0.0
C729 C 0.14708 0.57157 0.08254 0.0
C730 C 0.14183 0.55573 0.16984 0.0
H731 H 0.15086 0.60688 0.02115 0.0
H732 H 0.15001 0.56518 0.00775 0.0
C733 C 0.13806 0.56434 0.26595 0.0
C734 C 0.45533 0.57789 0.23443 0.0
C735 C 0.45921 0.59704 0.16128 0.0
H736 H 0.42961 0.53995 0.29493 0.0
C737 C 0.43821 0.5929 0.09715 0.0
H738 H 0.47094 0.58055 0.28614 0.0
C739 C 0.4143 0.56942 0.10225 0.0
C740 C 0.411 0.54971 0.17168 0.0
H741 H 0.44053 0.60734 0.04033 0.0
H742 H 0.39883 0.56634 0.049 0.0
C743 C 0.43154 0.55455 0.23964 0.0
C744 C 0.53053 0.76082 0.02696 0.0
C745 C 0.52257 0.74541 0.11634 0.0
H746 H 0.54085 0.79796 0.96034 0.0
C747 C 0.51542 0.75429 0.20427 0.0
H748 H 0.53654 0.75444 0.95897 0.0
C749 C 0.5174 0.77884 0.20464 0.0
C750 C 0.5274 0.79522 0.11815 0.0
H751 H 0.50954 0.74275 0.27436 0.0
H752 H 0.51281 0.78567 0.27502 0.0
C753 C 0.53324 0.78574 0.02824 0.0
C754 C 0.25784 0.7837 0.0816 0.0
C755 C 0.26619 0.8 0.16912 0.0
H756 H 0.22758 0.74777 0.01565 0.0
C757 C 0.25219 0.79093 0.2618 0.0
H758 H 0.26843 0.79023 0.0094 0.0
C759 C 0.22923 0.76701 0.2654 0.0
C760 C 0.21964 0.7515 0.17641 0.0
H761 H 0.25848 0.80278 0.33125 0.0
H762 H 0.21842 0.76111 0.33738 0.0
C763 C 0.23457 0.75948 0.08523 0.0
C764 C 0.24589 0.47462 0.04372 0.0
C765 C 0.26166 0.48379 0.13224 0.0
H766 H 0.20855 0.46377 0.97628 0.0
C767 C 0.25315 0.49224 0.21741 0.0
H768 H 0.25197 0.46756 0.978 0.0
C769 C 0.22867 0.49054 0.21594 0.0
C770 C 0.21196 0.4795 0.13055 0.0
H771 H 0.26495 0.49902 0.28692 0.0
H772 H 0.22216 0.49627 0.28431 0.0
C773 C 0.22102 0.47219 0.0433 0.0
C774 C 0.00603 0.24358 0.03283 0.0
C775 C 0.00499 0.22232 0.08603 0.0
H776 H 0.01136 0.26278 0.88639 0.0
C777 C 0.01002 0.20468 0.03168 0.0
H778 H 0.00266 0.25771 0.07318 0.0
C779 C 0.01497 0.20762 0.92588 0.0
C780 C 0.01565 0.22859 0.87239 0.0
H781 H 0.00955 0.18822 0.07052 0.0
H782 H 0.01764 0.19308 0.88509 0.0
C783 C 0.01155 0.24682 0.92673 0.0
C784 C 0.80791 0.81182 0.01614 0.0
C785 C 0.78786 0.79045 0.06889 0.0
H786 H 0.82176 0.83149 0.87175 0.0
C787 C 0.76579 0.77194 0.014 0.0
H788 H 0.82489 0.82658 0.05746 0.0
C789 C 0.76352 0.77524 0.90801 0.0
C790 C 0.78354 0.79684 0.8555 0.0
H791 H 0.74981 0.75566 0.05381 0.0
H792 H 0.74625 0.76084 0.86709 0.0
C793 C 0.80594 0.8148 0.91032 0.0
C794 C 0.19102 0.00585 0.05365 0.0
C795 C 0.21351 0.01045 0.10836 0.0
H796 H 0.17213 -0.00124 0.90644 0.0
C797 C 0.23377 0.00927 0.05552 0.0
H798 H 0.17503 0.00643 0.09249 0.0
C799 C 0.23167 0.00395 0.94932 0.0
C800 C 0.20951 0.00025 0.89452 0.0
H801 H 0.25112 0.01229 0.09636 0.0
H802 H 0.2478 0.00391 0.90933 0.0
C803 C 0.18922 0.00116 0.94761 0.0
C804 C -0.00414 0.81063 0.95139 0.0
C805 C 0.00224 0.79363 0.89966 0.0
H806 H -0.01242 0.82245 0.09657 0.0
C807 C 0.00479 0.77479 0.95622 0.0
H808 H -0.00643 0.82517 0.90895 0.0
C809 C 0.00036 0.77257 0.0628 0.0
C810 C -0.006 0.78962 0.1145 0.0
H811 H 0.00927 0.76121 0.91756 0.0
H812 H 0.0023 0.7578 0.10504 0.0
C813 C -0.00778 0.80894 0.0582 0.0
C814 C 0.2297 0.25122 0.06296 0.0
C815 C 0.2315 0.2308 0.11049 0.0
H816 H 0.22579 0.2676 0.92119 0.0
C817 C 0.23182 0.21136 0.04968 0.0
H818 H 0.22939 0.26641 0.10902 0.0
C819 C 0.22897 0.21163 0.94266 0.0
C820 C 0.2264 0.23168 0.89526 0.0
H821 H 0.23293 0.19534 0.08515 0.0
H822 H 0.22856 0.19604 0.89704 0.0
C823 C 0.22754 0.25187 0.95596 0.0
C824 C 0.76487 0.00803 0.01403 0.0
C825 C 0.78839 0.01436 0.06509 0.0
H826 H 0.74434 -0.00124 0.8691 0.0
C827 C 0.80919 0.01534 0.00882 0.0
H828 H 0.74837 0.00665 0.05642 0.0
C829 C 0.80689 0.01093 0.90274 0.0
C830 C 0.7835 0.00475 0.8515 0.0
H831 H 0.8274 0.0199 0.04664 0.0
H832 H 0.82355 0.01271 0.86022 0.0
C833 C 0.76235 0.00299 0.90779 0.0
C834 C 0.68612 0.54578 0.27458 0.0
C835 C 0.68276 0.56426 0.21906 0.0
H836 H 0.68587 0.52974 0.42306 0.0
C837 C 0.67514 0.58024 0.27154 0.0
H838 H 0.69177 0.5331 0.23552 0.0
C839 C 0.6708 0.57764 0.3781 0.0
C840 C 0.67471 0.55951 0.43376 0.0
H841 H 0.67198 0.59433 0.22986 0.0
H842 H 0.66517 0.59029 0.41734 0.0
C843 C 0.68255 0.54372 0.38134 0.0
C844 C 0.42739 0.12574 0.37527 0.0
C845 C 0.44668 0.12194 0.42264 0.0
H846 H 0.4123 0.13172 0.23392 0.0
C847 C 0.46551 0.12039 0.36197 0.0
H848 H 0.41277 0.12713 0.42136 0.0
C849 C 0.46573 0.12382 0.25512 0.0
C850 C 0.44678 0.12827 0.20784 0.0
H851 H 0.48072 0.11781 0.39752 0.0
H852 H 0.48079 0.12311 0.20956 0.0
C853 C 0.42721 0.12852 0.26851 0.0
C854 C 0.90486 0.33745 0.25911 0.0
C855 C 0.88184 0.33225 0.20665 0.0
H856 H 0.92489 0.34602 0.40516 0.0
C857 C 0.86155 0.33276 0.26148 0.0
H858 H 0.92098 0.33766 0.21798 0.0
C859 C 0.86382 0.33752 0.3673 0.0
C860 C 0.88666 0.34251 0.42002 0.0
H861 H 0.84371 0.32905 0.22277 0.0
H862 H 0.84747 0.33682 0.40856 0.0
C863 C 0.90735 0.34279 0.36526 0.0
C864 C 0.66811 0.10424 0.24599 0.0
C865 C 0.66838 0.12477 0.19063 0.0
H866 H 0.66281 0.08583 0.39392 0.0
C867 C 0.66412 0.14314 0.24292 0.0
H868 H 0.6708 0.08956 0.20651 0.0
C869 C 0.65964 0.1411 0.34893 0.0
C870 C 0.65863 0.12023 0.40435 0.0
H871 H 0.66389 0.15893 0.20125 0.0
H872 H 0.65659 0.15567 0.38741 0.0
C873 C 0.66299 0.10182 0.35228 0.0
C874 C 0.86746 0.53375 0.28849 0.0
C875 C 0.88666 0.55597 0.23681 0.0
H876 H 0.85383 0.51406 0.43318 0.0
C877 C 0.90741 0.57583 0.29304 0.0
H878 H 0.85146 0.51806 0.24611 0.0
C879 C 0.90932 0.57309 0.3995 0.0
C880 C 0.89014 0.55075 0.45105 0.0
H881 H 0.92268 0.59288 0.25414 0.0
H882 H 0.92559 0.58854 0.44165 0.0
C883 C 0.86896 0.53134 0.39497 0.0
C884 C 0.43511 0.34048 0.27072 0.0
C885 C 0.45637 0.34238 0.21474 0.0
H886 H 0.42087 0.34381 0.41927 0.0
C887 C 0.47964 0.34838 0.26645 0.0
H888 H 0.41717 0.33635 0.23169 0.0
C889 C 0.48173 0.35247 0.37274 0.0
C890 C 0.46082 0.35138 0.42865 0.0
H891 H 0.49637 0.35022 0.22421 0.0
H892 H 0.49985 0.35691 0.41101 0.0
C893 C 0.43743 0.34525 0.37712 0.0
C894 C 0.34154 0.87769 0.60576 0.0
C895 C 0.34666 0.90066 0.55442 0.0
H896 H 0.33281 0.85715 0.74922 0.0
C897 C 0.34702 0.92117 0.6105 0.0
H898 H 0.34076 0.86148 0.56338 0.0
C899 C 0.34153 0.91834 0.71644 0.0
C900 C 0.3361 0.89516 0.76753 0.0
H901 H 0.35034 0.93881 0.5717 0.0
H902 H 0.34174 0.93433 0.75847 0.0
C903 C 0.33665 0.87509 0.71155 0.0
C904 C 0.10113 0.43544 0.7038 0.0
C905 C 0.12222 0.45542 0.75838 0.0
H906 H 0.08211 0.42243 0.55661 0.0
C907 C 0.1411 0.4775 0.70521 0.0
H908 H 0.08605 0.41853 0.74403 0.0
C909 C 0.13895 0.47972 0.59909 0.0
C910 C 0.11747 0.46022 0.54445 0.0
H911 H 0.15729 0.49332 0.74634 0.0
H912 H 0.15385 0.497 0.56008 0.0
C913 C 0.09862 0.43794 0.59744 0.0
C914 C 0.56927 0.67456 0.68468 0.0
C915 C 0.54978 0.67722 0.73677 0.0
H916 H 0.5828 0.66839 0.53889 0.0
C917 C 0.52816 0.67464 0.68129 0.0
H918 H 0.5859 0.67599 0.72631 0.0
C919 C 0.52652 0.67046 0.57499 0.0
C920 C 0.54605 0.66803 0.52269 0.0
H921 H 0.51277 0.67639 0.71979 0.0
H922 H 0.51014 0.66955 0.53313 0.0
C923 C 0.56727 0.6697 0.57828 0.0
C924 C 0.3096 0.43568 0.70372 0.0
C925 C 0.3298 0.45455 0.76504 0.0
H926 H 0.29619 0.4221 0.55026 0.0
C927 C 0.35337 0.47318 0.71809 0.0
H928 H 0.29136 0.42105 0.73808 0.0
C929 C 0.35644 0.4733 0.61101 0.0
C930 C 0.33574 0.4552 0.5497 0.0
H931 H 0.36941 0.48771 0.76416 0.0
H932 H 0.37446 0.48818 0.57596 0.0
C933 C 0.31242 0.43625 0.59671 0.0
C934 C 0.55935 0.87493 0.68864 0.0
C935 C 0.55704 0.89338 0.74882 0.0
H936 H 0.55811 0.86029 0.53611 0.0
C937 C 0.55355 0.91272 0.70064 0.0
H938 H 0.56186 0.85977 0.72464 0.0
C939 C 0.55182 0.91332 0.5935 0.0
C940 C 0.55281 0.89412 0.53332 0.0
H941 H 0.55177 0.92718 0.74617 0.0
H942 H 0.54883 0.92824 0.55807 0.0
C943 C 0.5569 0.87509 0.58141 0.0
C944 C 0.14384 0.6771 0.62513 0.0
C945 C 0.12057 0.67101 0.57321 0.0
H946 H 0.16424 0.68628 0.76931 0.0
C947 C 0.09946 0.66958 0.62879 0.0
H948 H 0.16049 0.67865 0.58323 0.0
C949 C 0.10192 0.67488 0.7349 0.0
C950 C 0.12534 0.68114 0.78659 0.0
H951 H 0.08154 0.66546 0.58958 0.0
H952 H 0.08545 0.67376 0.77668 0.0
C953 C 0.14609 0.68177 0.73105 0.0
loop_
_geom_bond_atom_site_label_1
_geom_bond_atom_site_label_2
_geom_bond_distance
_geom_bond_site_symmetry_2
_ccdc_geom_bond_type
O0 Zn1 1.953 . S
O0 C16 1.225 . S
Zn1 O0 1.953 . S
Zn1 O2 1.949 . S
Zn1 O8 1.919 . S
Zn1 O13 1.924 1_455 S
O2 Zn1 1.949 . S
O2 Zn3 1.923 . S
O2 Zn4 1.950 . S
O2 Zn5 1.945 1_455 S
Zn3 O2 1.923 . S
Zn3 O6 1.933 . S
Zn3 O9 1.941 . S
Zn3 O10 1.965 . S
Zn4 O2 1.950 . S
Zn4 O11 1.938 . S
Zn4 O12 1.906 1_455 S
Zn4 O22 1.953 . S
Zn5 O2 1.945 1_655 S
Zn5 O7 1.932 1_655 S
Zn5 O14 1.977 . S
Zn5 O15 1.910 . S
O6 Zn3 1.933 . S
O6 C17 1.226 . S
O7 Zn5 1.932 1_455 S
O7 C17 1.307 . S
O8 Zn1 1.919 . S
O8 C19 1.253 . S
O9 Zn3 1.941 . S
O9 C19 1.283 . S
O10 Zn3 1.965 . S
O10 C18 1.303 . S
O11 Zn4 1.938 . S
O11 C18 1.247 . S
O12 Zn4 1.906 1_655 S
O12 C20 1.304 . S
O13 Zn1 1.924 1_655 S
O13 C21 1.311 . S
O14 Zn5 1.977 . S
O14 C20 1.272 . S
O15 Zn5 1.910 . S
O15 C21 1.231 . S
C16 O0 1.225 . S
C16 O22 1.299 . S
C17 O6 1.226 . S
C17 O7 1.307 . S
C18 O10 1.303 . S
C18 O11 1.247 . S
C19 O8 1.253 . S
C19 O9 1.283 . S
C20 O12 1.304 . S
C20 O14 1.272 . S
C21 O13 1.311 . S
C21 O15 1.231 . S
O22 Zn4 1.953 . S
O22 C16 1.299 . S
O23 Zn24 1.953 . S
O23 C39 1.225 . S
Zn24 O23 1.953 . S
Zn24 O25 1.949 . S
Zn24 O31 1.919 . S
Zn24 O36 1.924 . S
O25 Zn24 1.949 . S
O25 Zn26 1.923 . S
O25 Zn27 1.950 . S
O25 Zn28 1.945 . S
Zn26 O25 1.923 . S
Zn26 O29 1.933 . S
Zn26 O32 1.941 . S
Zn26 O33 1.965 . S
Zn27 O25 1.950 . S
Zn27 O34 1.938 . S
Zn27 O35 1.906 . S
Zn27 O45 1.953 . S
Zn28 O25 1.945 . S
Zn28 O30 1.932 . S
Zn28 O37 1.977 . S
Zn28 O38 1.910 . S
O29 Zn26 1.933 . S
O29 C40 1.226 . S
O30 Zn28 1.932 . S
O30 C40 1.307 . S
O31 Zn24 1.919 . S
O31 C42 1.253 . S
O32 Zn26 1.941 . S
O32 C42 1.283 . S
O33 Zn26 1.965 . S
O33 C41 1.303 . S
O34 Zn27 1.938 . S
O34 C41 1.247 . S
O35 Zn27 1.906 . S
O35 C43 1.304 . S
O36 Zn24 1.924 . S
O36 C44 1.311 . S
O37 Zn28 1.977 . S
O37 C43 1.272 . S
O38 Zn28 1.910 . S
O38 C44 1.231 . S
C39 O23 1.225 . S
C39 O45 1.298 . S
C40 O29 1.226 . S
C40 O30 1.307 . S
C41 O33 1.303 . S
C41 O34 1.247 . S
C42 O31 1.253 . S
C42 O32 1.283 . S
C43 O35 1.304 . S
C43 O37 1.272 . S
C44 O36 1.311 . S
C44 O38 1.231 . S
O45 Zn27 1.953 . S
O45 C39 1.298 . S
O46 Zn47 1.953 . S
O46 C62 1.225 . S
Zn47 O46 1.953 . S
Zn47 O48 1.949 . S
Zn47 O54 1.919 1_545 S
Zn47 O59 1.924 . S
O48 Zn47 1.949 . S
O48 Zn49 1.923 1_545 S
O48 Zn50 1.950 . S
O48 Zn51 1.945 . S
Zn49 O48 1.923 1_565 S
Zn49 O52 1.933 . S
Zn49 O55 1.941 . S
Zn49 O56 1.965 . S
Zn50 O48 1.950 . S
Zn50 O57 1.938 1_545 S
Zn50 O58 1.906 . S
Zn50 O68 1.953 . S
Zn51 O48 1.945 . S
Zn51 O53 1.932 . S
Zn51 O60 1.977 . S
Zn51 O61 1.910 . S
O52 Zn49 1.933 . S
O52 C63 1.226 1_565 S
O53 Zn51 1.932 . S
O53 C63 1.307 . S
O54 Zn47 1.919 1_565 S
O54 C65 1.253 . S
O55 Zn49 1.941 . S
O55 C65 1.283 . S
O56 Zn49 1.965 . S
O56 C64 1.303 . S
O57 Zn50 1.938 1_565 S
O57 C64 1.247 . S
O58 Zn50 1.906 . S
O58 C66 1.304 . S
O59 Zn47 1.924 . S
O59 C67 1.311 . S
O60 Zn51 1.977 . S
O60 C66 1.272 . S
O61 Zn51 1.910 . S
O61 C67 1.231 . S
C62 O46 1.225 . S
C62 O68 1.298 . S
C63 O52 1.226 1_545 S
C63 O53 1.307 . S
C64 O56 1.303 . S
C64 O57 1.247 . S
C65 O54 1.253 . S
C65 O55 1.283 . S
C66 O58 1.304 . S
C66 O60 1.272 . S
C67 O59 1.311 . S
C67 O61 1.231 . S
O68 Zn50 1.953 . S
O68 C62 1.298 . S
O69 Zn70 1.953 . S
O69 C85 1.225 . S
Zn70 O69 1.953 . S
Zn70 O71 1.949 . S
Zn70 O77 1.919 . S
Zn70 O82 1.924 . S
O71 Zn70 1.949 . S
O71 Zn72 1.923 . S
O71 Zn73 1.950 1_455 S
O71 Zn74 1.945 . S
Zn72 O71 1.923 . S
Zn72 O75 1.933 . S
Zn72 O78 1.941 . S
Zn72 O79 1.965 1_455 S
Zn73 O71 1.950 1_655 S
Zn73 O80 1.938 . S
Zn73 O81 1.906 . S
Zn73 O91 1.953 1_655 S
Zn74 O71 1.945 . S
Zn74 O76 1.932 . S
Zn74 O83 1.977 1_455 S
Zn74 O84 1.910 . S
O75 Zn72 1.933 . S
O75 C86 1.226 . S
O76 Zn74 1.932 . S
O76 C86 1.307 . S
O77 Zn70 1.919 . S
O77 C88 1.253 . S
O78 Zn72 1.941 . S
O78 C88 1.283 . S
O79 Zn72 1.965 1_655 S
O79 C87 1.303 . S
O80 Zn73 1.938 . S
O80 C87 1.247 . S
O81 Zn73 1.906 . S
O81 C89 1.304 . S
O82 Zn70 1.924 . S
O82 C90 1.311 . S
O83 Zn74 1.977 1_655 S
O83 C89 1.272 . S
O84 Zn74 1.910 . S
O84 C90 1.231 . S
C85 O69 1.225 . S
C85 O91 1.298 . S
C86 O75 1.226 . S
C86 O76 1.307 . S
C87 O79 1.303 . S
C87 O80 1.247 . S
C88 O77 1.253 . S
C88 O78 1.283 . S
C89 O81 1.304 . S
C89 O83 1.272 . S
C90 O82 1.311 . S
C90 O84 1.231 . S
O91 Zn73 1.953 1_455 S
O91 C85 1.298 . S
O92 Zn93 1.953 . S
O92 C108 1.225 . S
Zn93 O92 1.953 . S
Zn93 O94 1.949 . S
Zn93 O100 1.919 . S
Zn93 O105 1.924 . S
O94 Zn93 1.949 . S
O94 Zn95 1.923 . S
O94 Zn96 1.950 . S
O94 Zn97 1.945 . S
Zn95 O94 1.923 . S
Zn95 O98 1.933 . S
Zn95 O101 1.941 . S
Zn95 O102 1.965 . S
Zn96 O94 1.950 . S
Zn96 O103 1.938 . S
Zn96 O104 1.906 . S
Zn96 O114 1.953 . S
Zn97 O94 1.945 . S
Zn97 O99 1.932 . S
Zn97 O106 1.977 . S
Zn97 O107 1.910 . S
O98 Zn95 1.933 . S
O98 C109 1.226 . S
O99 Zn97 1.932 . S
O99 C109 1.307 . S
O100 Zn93 1.919 . S
O100 C111 1.253 . S
O101 Zn95 1.941 . S
O101 C111 1.283 . S
O102 Zn95 1.965 . S
O102 C110 1.303 . S
O103 Zn96 1.938 . S
O103 C110 1.247 . S
O104 Zn96 1.906 . S
O104 C112 1.304 . S
O105 Zn93 1.924 . S
O105 C113 1.311 . S
O106 Zn97 1.977 . S
O106 C112 1.272 . S
O107 Zn97 1.910 . S
O107 C113 1.231 . S
C108 O92 1.225 . S
C108 O114 1.298 . S
C109 O98 1.226 . S
C109 O99 1.307 . S
C110 O102 1.303 . S
C110 O103 1.247 . S
C111 O100 1.253 . S
C111 O101 1.283 . S
C112 O104 1.304 . S
C112 O106 1.272 . S
C113 O105 1.311 . S
C113 O107 1.231 . S
O114 Zn96 1.953 . S
O114 C108 1.298 . S
O115 Zn116 1.953 . S
O115 C131 1.225 1_565 S
Zn116 O115 1.953 . S
Zn116 O117 1.949 1_565 S
Zn116 O123 1.919 . S
Zn116 O128 1.924 . S
O117 Zn116 1.949 1_545 S
O117 Zn118 1.923 . S
O117 Zn119 1.950 . S
O117 Zn120 1.945 . S
Zn118 O117 1.923 . S
Zn118 O121 1.933 . S
Zn118 O124 1.939 1_545 S
Zn118 O125 1.965 . S
Zn119 O117 1.950 . S
Zn119 O126 1.938 . S
Zn119 O127 1.906 . S
Zn119 O137 1.953 . S
Zn120 O117 1.945 . S
Zn120 O122 1.932 . S
Zn120 O129 1.977 . S
Zn120 O130 1.910 1_545 S
O121 Zn118 1.933 . S
O121 C132 1.226 . S
O122 Zn120 1.932 . S
O122 C132 1.307 . S
O123 Zn116 1.919 . S
O123 C134 1.253 . S
O124 Zn118 1.939 1_565 S
O124 C134 1.289 . S
O125 Zn118 1.965 . S
O125 C133 1.303 . S
O126 Zn119 1.938 . S
O126 C133 1.247 . S
O127 Zn119 1.906 . S
O127 C135 1.304 . S
O128 Zn116 1.924 . S
O128 C136 1.311 . S
O129 Zn120 1.977 . S
O129 C135 1.272 . S
O130 Zn120 1.910 1_565 S
O130 C136 1.231 . S
C131 O115 1.225 1_545 S
C131 O137 1.298 . S
C132 O121 1.226 . S
C132 O122 1.307 . S
C133 O125 1.303 . S
C133 O126 1.247 . S
C134 O123 1.253 . S
C134 O124 1.289 . S
C135 O127 1.304 . S
C135 O129 1.272 . S
C136 O128 1.311 . S
C136 O130 1.231 . S
O137 Zn119 1.953 . S
O137 C131 1.298 . S
O138 Zn139 1.953 1_554 S
O138 C154 1.225 . S
Zn139 O138 1.953 1_556 S
Zn139 O140 1.949 . S
Zn139 O146 1.919 . S
Zn139 O151 1.924 . S
O140 Zn139 1.949 . S
O140 Zn141 1.923 . S
O140 Zn142 1.950 . S
O140 Zn143 1.945 . S
Zn141 O140 1.923 . S
Zn141 O144 1.933 . S
Zn141 O147 1.941 . S
Zn141 O148 1.965 . S
Zn142 O140 1.950 . S
Zn142 O149 1.938 . S
Zn142 O150 1.906 . S
Zn142 O160 1.953 1_556 S
Zn143 O140 1.945 . S
Zn143 O145 1.932 . S
Zn143 O152 1.977 . S
Zn143 O153 1.910 . S
O144 Zn141 1.933 . S
O144 C155 1.226 . S
O145 Zn143 1.932 . S
O145 C155 1.307 . S
O146 Zn139 1.919 . S
O146 C157 1.253 . S
O147 Zn141 1.941 . S
O147 C157 1.283 . S
O148 Zn141 1.965 . S
O148 C156 1.303 . S
O149 Zn142 1.938 . S
O149 C156 1.247 . S
O150 Zn142 1.906 . S
O150 C158 1.304 . S
O151 Zn139 1.924 . S
O151 C159 1.311 . S
O152 Zn143 1.977 . S
O152 C158 1.272 . S
O153 Zn143 1.910 . S
O153 C159 1.231 . S
C154 O138 1.225 . S
C154 O160 1.298 . S
C155 O144 1.226 . S
C155 O145 1.307 . S
C156 O148 1.303 . S
C156 O149 1.247 . S
C157 O146 1.253 . S
C157 O147 1.283 . S
C158 O150 1.304 . S
C158 O152 1.272 . S
C159 O151 1.311 . S
C159 O153 1.231 . S
O160 Zn142 1.953 1_554 S
O160 C154 1.298 . S
O161 Zn162 1.953 1_554 S
O161 C177 1.225 . S
Zn162 O161 1.953 1_556 S
Zn162 O163 1.949 . S
Zn162 O169 1.919 . S
Zn162 O174 1.924 . S
O163 Zn162 1.949 . S
O163 Zn164 1.923 . S
O163 Zn165 1.950 . S
O163 Zn166 1.945 . S
Zn164 O163 1.923 . S
Zn164 O167 1.933 . S
Zn164 O170 1.941 . S
Zn164 O171 1.965 . S
Zn165 O163 1.950 . S
Zn165 O172 1.938 . S
Zn165 O173 1.906 . S
Zn165 O183 1.953 1_556 S
Zn166 O163 1.945 . S
Zn166 O168 1.932 . S
Zn166 O175 1.977 . S
Zn166 O176 1.910 . S
O167 Zn164 1.933 . S
O167 C178 1.226 . S
O168 Zn166 1.932 . S
O168 C178 1.307 . S
O169 Zn162 1.919 . S
O169 C180 1.253 . S
O170 Zn164 1.941 . S
O170 C180 1.283 . S
O171 Zn164 1.965 . S
O171 C179 1.303 . S
O172 Zn165 1.938 . S
O172 C179 1.247 . S
O173 Zn165 1.906 . S
O173 C181 1.304 . S
O174 Zn162 1.924 . S
O174 C182 1.311 . S
O175 Zn166 1.977 . S
O175 C181 1.272 . S
O176 Zn166 1.910 . S
O176 C182 1.231 . S
C177 O161 1.225 . S
C177 O183 1.298 . S
C178 O167 1.226 . S
C178 O168 1.307 . S
C179 O171 1.303 . S
C179 O172 1.247 . S
C180 O169 1.253 . S
C180 O170 1.283 . S
C181 O173 1.304 . S
C181 O175 1.272 . S
C182 O174 1.311 . S
C182 O176 1.231 . S
O183 Zn165 1.953 1_554 S
O183 C177 1.298 . S
O184 Zn185 1.953 1_554 S
O184 C200 1.225 . S
Zn185 O184 1.953 1_556 S
Zn185 O186 1.949 . S
Zn185 O192 1.919 . S
Zn185 O197 1.924 . S
O186 Zn185 1.949 . S
O186 Zn187 1.923 . S
O186 Zn188 1.950 . S
O186 Zn189 1.945 . S
Zn187 O186 1.923 . S
Zn187 O190 1.933 . S
Zn187 O193 1.941 . S
Zn187 O194 1.965 . S
Zn188 O186 1.950 . S
Zn188 O195 1.938 . S
Zn188 O196 1.906 . S
Zn188 O206 1.953 1_556 S
Zn189 O186 1.945 . S
Zn189 O191 1.932 . S
Zn189 O198 1.977 . S
Zn189 O199 1.910 . S
O190 Zn187 1.933 . S
O190 C201 1.226 . S
O191 Zn189 1.932 . S
O191 C201 1.307 . S
O192 Zn185 1.919 . S
O192 C203 1.253 . S
O193 Zn187 1.941 . S
O193 C203 1.283 . S
O194 Zn187 1.965 . S
O194 C202 1.303 . S
O195 Zn188 1.938 . S
O195 C202 1.247 . S
O196 Zn188 1.906 . S
O196 C204 1.304 . S
O197 Zn185 1.924 . S
O197 C205 1.311 . S
O198 Zn189 1.977 . S
O198 C204 1.272 . S
O199 Zn189 1.910 . S
O199 C205 1.231 . S
C200 O184 1.225 . S
C200 O206 1.298 . S
C201 O190 1.226 . S
C201 O191 1.307 . S
C202 O194 1.303 . S
C202 O195 1.247 . S
C203 O192 1.253 . S
C203 O193 1.283 . S
C204 O196 1.304 . S
C204 O198 1.272 . S
C205 O197 1.311 . S
C205 O199 1.231 . S
O206 Zn188 1.953 1_554 S
O206 C200 1.298 . S
O207 Zn208 1.953 1_554 S
O207 C223 1.225 . S
Zn208 O207 1.953 1_556 S
Zn208 O209 1.949 . S
Zn208 O215 1.919 . S
Zn208 O220 1.924 . S
O209 Zn208 1.949 . S
O209 Zn210 1.923 . S
O209 Zn211 1.950 . S
O209 Zn212 1.945 . S
Zn210 O209 1.923 . S
Zn210 O213 1.933 . S
Zn210 O216 1.941 . S
Zn210 O217 1.965 . S
Zn211 O209 1.950 . S
Zn211 O218 1.938 . S
Zn211 O219 1.906 . S
Zn211 O229 1.953 1_556 S
Zn212 O209 1.945 . S
Zn212 O214 1.932 . S
Zn212 O221 1.977 . S
Zn212 O222 1.910 . S
O213 Zn210 1.933 . S
O213 C224 1.226 . S
O214 Zn212 1.932 . S
O214 C224 1.307 . S
O215 Zn208 1.919 . S
O215 C226 1.253 . S
O216 Zn210 1.941 . S
O216 C226 1.283 . S
O217 Zn210 1.965 . S
O217 C225 1.303 . S
O218 Zn211 1.938 . S
O218 C225 1.247 . S
O219 Zn211 1.906 . S
O219 C227 1.304 . S
O220 Zn208 1.924 . S
O220 C228 1.311 . S
O221 Zn212 1.977 . S
O221 C227 1.272 . S
O222 Zn212 1.910 . S
O222 C228 1.231 . S
C223 O207 1.225 . S
C223 O229 1.298 . S
C224 O213 1.226 . S
C224 O214 1.307 . S
C225 O217 1.303 . S
C225 O218 1.247 . S
C226 O215 1.253 . S
C226 O216 1.283 . S
C227 O219 1.304 . S
C227 O221 1.272 . S
C228 O220 1.311 . S
C228 O222 1.231 . S
O229 Zn211 1.953 1_554 S
O229 C223 1.298 . S
O230 Zn231 1.953 1_554 S
O230 C246 1.225 . S
Zn231 O230 1.953 1_556 S
Zn231 O232 1.949 . S
Zn231 O238 1.919 . S
Zn231 O243 1.924 . S
O232 Zn231 1.949 . S
O232 Zn233 1.923 . S
O232 Zn234 1.950 . S
O232 Zn235 1.945 . S
Zn233 O232 1.923 . S
Zn233 O236 1.933 . S
Zn233 O239 1.941 . S
Zn233 O240 1.965 . S
Zn234 O232 1.950 . S
Zn234 O241 1.938 . S
Zn234 O242 1.906 . S
Zn234 O252 1.953 1_556 S
Zn235 O232 1.945 . S
Zn235 O237 1.932 . S
Zn235 O244 1.977 . S
Zn235 O245 1.910 . S
O236 Zn233 1.933 . S
O236 C247 1.226 . S
O237 Zn235 1.932 . S
O237 C247 1.307 . S
O238 Zn231 1.919 . S
O238 C249 1.253 . S
O239 Zn233 1.941 . S
O239 C249 1.283 . S
O240 Zn233 1.965 . S
O240 C248 1.303 . S
O241 Zn234 1.938 . S
O241 C248 1.247 . S
O242 Zn234 1.906 . S
O242 C250 1.304 . S
O243 Zn231 1.924 . S
O243 C251 1.311 . S
O244 Zn235 1.977 . S
O244 C250 1.272 . S
O245 Zn235 1.910 . S
O245 C251 1.231 . S
C246 O230 1.225 . S
C246 O252 1.298 . S
C247 O236 1.226 . S
C247 O237 1.307 . S
C248 O240 1.303 . S
C248 O241 1.247 . S
C249 O238 1.253 . S
C249 O239 1.283 . S
C250 O242 1.304 . S
C250 O244 1.272 . S
C251 O243 1.311 . S
C251 O245 1.231 . S
O252 Zn234 1.953 1_554 S
O252 C246 1.298 . S
O253 Zn254 1.953 1_554 S
O253 C269 1.225 . S
Zn254 O253 1.953 1_556 S
Zn254 O255 1.949 . S
Zn254 O261 1.919 . S
Zn254 O266 1.924 . S
O255 Zn254 1.949 . S
O255 Zn256 1.923 . S
O255 Zn257 1.950 . S
O255 Zn258 1.945 . S
Zn256 O255 1.923 . S
Zn256 O259 1.933 . S
Zn256 O262 1.941 . S
Zn256 O263 1.965 . S
Zn257 O255 1.950 . S
Zn257 O264 1.938 . S
Zn257 O265 1.906 . S
Zn257 O275 1.953 1_556 S
Zn258 O255 1.945 . S
Zn258 O260 1.932 . S
Zn258 O267 1.977 . S
Zn258 O268 1.910 . S
O259 Zn256 1.933 . S
O259 C270 1.226 . S
O260 Zn258 1.932 . S
O260 C270 1.307 . S
O261 Zn254 1.919 . S
O261 C272 1.253 . S
O262 Zn256 1.941 . S
O262 C272 1.283 . S
O263 Zn256 1.965 . S
O263 C271 1.303 . S
O264 Zn257 1.938 . S
O264 C271 1.247 . S
O265 Zn257 1.906 . S
O265 C273 1.304 . S
O266 Zn254 1.924 . S
O266 C274 1.311 . S
O267 Zn258 1.977 . S
O267 C273 1.272 . S
O268 Zn258 1.910 . S
O268 C274 1.231 . S
C269 O253 1.225 . S
C269 O275 1.298 . S
C270 O259 1.226 . S
C270 O260 1.307 . S
C271 O263 1.303 . S
C271 O264 1.247 . S
C272 O261 1.253 . S
C272 O262 1.283 . S
C273 O265 1.304 . S
C273 O267 1.272 . S
C274 O266 1.311 . S
C274 O268 1.231 . S
O275 Zn257 1.953 1_554 S
O275 C269 1.298 . S
O276 Zn277 1.953 1_556 S
O276 C292 1.225 . S
Zn277 O276 1.953 1_554 S
Zn277 O278 1.949 . S
Zn277 O284 1.919 . S
Zn277 O289 1.924 . S
O278 Zn277 1.949 . S
O278 Zn279 1.923 . S
O278 Zn280 1.950 . S
O278 Zn281 1.945 . S
Zn279 O278 1.923 . S
Zn279 O282 1.933 . S
Zn279 O285 1.941 . S
Zn279 O286 1.965 . S
Zn280 O278 1.950 . S
Zn280 O287 1.938 . S
Zn280 O288 1.906 . S
Zn280 O298 1.953 1_554 S
Zn281 O278 1.945 . S
Zn281 O283 1.932 . S
Zn281 O290 1.977 . S
Zn281 O291 1.910 . S
O282 Zn279 1.933 . S
O282 C293 1.226 . S
O283 Zn281 1.932 . S
O283 C293 1.307 . S
O284 Zn277 1.919 . S
O284 C295 1.253 . S
O285 Zn279 1.941 . S
O285 C295 1.283 . S
O286 Zn279 1.965 . S
O286 C294 1.303 . S
O287 Zn280 1.938 . S
O287 C294 1.247 . S
O288 Zn280 1.906 . S
O288 C296 1.304 . S
O289 Zn277 1.924 . S
O289 C297 1.311 . S
O290 Zn281 1.977 . S
O290 C296 1.272 . S
O291 Zn281 1.910 . S
O291 C297 1.231 . S
C292 O276 1.225 . S
C292 O298 1.298 . S
C293 O282 1.226 . S
C293 O283 1.307 . S
C294 O286 1.303 . S
C294 O287 1.247 . S
C295 O284 1.253 . S
C295 O285 1.283 . S
C296 O288 1.304 . S
C296 O290 1.272 . S
C297 O289 1.311 . S
C297 O291 1.231 . S
O298 Zn280 1.953 1_556 S
O298 C292 1.298 . S
O299 Zn300 1.953 . S
O299 C315 1.225 . S
Zn300 O299 1.953 . S
Zn300 O301 1.949 . S
Zn300 O307 1.919 . S
Zn300 O312 1.924 . S
O301 Zn300 1.949 . S
O301 Zn302 1.923 . S
O301 Zn303 1.950 . S
O301 Zn304 1.945 . S
Zn302 O301 1.923 . S
Zn302 O305 1.933 1_554 S
Zn302 O308 1.941 . S
Zn302 O309 1.965 . S
Zn303 O301 1.950 . S
Zn303 O310 1.938 . S
Zn303 O311 1.906 . S
Zn303 O321 1.953 . S
Zn304 O301 1.945 . S
Zn304 O306 1.932 1_554 S
Zn304 O313 1.977 . S
Zn304 O314 1.910 . S
O305 Zn302 1.933 1_556 S
O305 C316 1.226 . S
O306 Zn304 1.932 1_556 S
O306 C316 1.307 . S
O307 Zn300 1.919 . S
O307 C318 1.253 . S
O308 Zn302 1.941 . S
O308 C318 1.283 . S
O309 Zn302 1.965 . S
O309 C317 1.303 . S
O310 Zn303 1.938 . S
O310 C317 1.247 . S
O311 Zn303 1.906 . S
O311 C319 1.304 . S
O312 Zn300 1.924 . S
O312 C320 1.311 . S
O313 Zn304 1.977 . S
O313 C319 1.272 . S
O314 Zn304 1.910 . S
O314 C320 1.231 . S
C315 O299 1.225 . S
C315 O321 1.298 . S
C316 O305 1.226 . S
C316 O306 1.307 . S
C317 O309 1.303 . S
C317 O310 1.247 . S
C318 O307 1.253 . S
C318 O308 1.283 . S
C319 O311 1.304 . S
C319 O313 1.272 . S
C320 O312 1.311 . S
C320 O314 1.231 . S
O321 Zn303 1.953 . S
O321 C315 1.298 . S
O322 Zn323 1.953 1_556 S
O322 C338 1.225 . S
Zn323 O322 1.953 1_554 S
Zn323 O324 1.949 . S
Zn323 O330 1.919 . S
Zn323 O335 1.924 . S
O324 Zn323 1.949 . S
O324 Zn325 1.923 . S
O324 Zn326 1.950 . S
O324 Zn327 1.945 . S
Zn325 O324 1.923 . S
Zn325 O328 1.933 . S
Zn325 O331 1.941 . S
Zn325 O332 1.965 . S
Zn326 O324 1.950 . S
Zn326 O333 1.938 . S
Zn326 O334 1.906 . S
Zn326 O344 1.953 1_554 S
Zn327 O324 1.945 . S
Zn327 O329 1.932 . S
Zn327 O336 1.977 . S
Zn327 O337 1.910 . S
O328 Zn325 1.933 . S
O328 C339 1.226 . S
O329 Zn327 1.932 . S
O329 C339 1.307 . S
O330 Zn323 1.919 . S
O330 C341 1.253 . S
O331 Zn325 1.941 . S
O331 C341 1.283 . S
O332 Zn325 1.965 . S
O332 C340 1.303 . S
O333 Zn326 1.938 . S
O333 C340 1.247 . S
O334 Zn326 1.906 . S
O334 C342 1.304 . S
O335 Zn323 1.924 . S
O335 C343 1.311 . S
O336 Zn327 1.977 . S
O336 C342 1.272 . S
O337 Zn327 1.910 . S
O337 C343 1.231 . S
C338 O322 1.225 . S
C338 O344 1.298 . S
C339 O328 1.226 . S
C339 O329 1.307 . S
C340 O332 1.303 . S
C340 O333 1.247 . S
C341 O330 1.253 . S
C341 O331 1.283 . S
C342 O334 1.304 . S
C342 O336 1.272 . S
C343 O335 1.311 . S
C343 O337 1.231 . S
O344 Zn326 1.953 1_556 S
O344 C338 1.298 . S
O345 Zn346 1.953 . S
O345 C361 1.225 . S
Zn346 O345 1.953 . S
Zn346 O347 1.949 . S
Zn346 O353 1.919 . S
Zn346 O358 1.924 . S
O347 Zn346 1.949 . S
O347 Zn348 1.923 . S
O347 Zn349 1.950 . S
O347 Zn350 1.945 . S
Zn348 O347 1.923 . S
Zn348 O351 1.933 1_554 S
Zn348 O354 1.941 . S
Zn348 O355 1.965 . S
Zn349 O347 1.950 . S
Zn349 O356 1.938 . S
Zn349 O357 1.906 . S
Zn349 O367 1.953 . S
Zn350 O347 1.945 . S
Zn350 O352 1.932 1_554 S
Zn350 O359 1.977 . S
Zn350 O360 1.910 . S
O351 Zn348 1.933 1_556 S
O351 C362 1.226 . S
O352 Zn350 1.932 1_556 S
O352 C362 1.307 . S
O353 Zn346 1.919 . S
O353 C364 1.253 . S
O354 Zn348 1.941 . S
O354 C364 1.283 . S
O355 Zn348 1.965 . S
O355 C363 1.303 . S
O356 Zn349 1.938 . S
O356 C363 1.247 . S
O357 Zn349 1.906 . S
O357 C365 1.304 . S
O358 Zn346 1.924 . S
O358 C366 1.311 . S
O359 Zn350 1.977 . S
O359 C365 1.272 . S
O360 Zn350 1.910 . S
O360 C366 1.231 . S
C361 O345 1.225 . S
C361 O367 1.298 . S
C362 O351 1.226 . S
C362 O352 1.307 . S
C363 O355 1.303 . S
C363 O356 1.247 . S
C364 O353 1.253 . S
C364 O354 1.283 . S
C365 O357 1.304 . S
C365 O359 1.272 . S
C366 O358 1.311 . S
C366 O360 1.231 . S
O367 Zn349 1.953 . S
O367 C361 1.298 . S
O368 Zn369 1.953 1_556 S
O368 C384 1.225 . S
Zn369 O368 1.953 1_554 S
Zn369 O370 1.949 . S
Zn369 O376 1.919 . S
Zn369 O381 1.924 . S
O370 Zn369 1.949 . S
O370 Zn371 1.923 . S
O370 Zn372 1.950 . S
O370 Zn373 1.945 . S
Zn371 O370 1.923 . S
Zn371 O374 1.933 . S
Zn371 O377 1.941 . S
Zn371 O378 1.965 . S
Zn372 O370 1.950 . S
Zn372 O379 1.938 . S
Zn372 O380 1.906 . S
Zn372 O390 1.953 1_554 S
Zn373 O370 1.945 . S
Zn373 O375 1.932 . S
Zn373 O382 1.977 . S
Zn373 O383 1.910 . S
O374 Zn371 1.933 . S
O374 C385 1.226 . S
O375 Zn373 1.932 . S
O375 C385 1.307 . S
O376 Zn369 1.919 . S
O376 C387 1.253 . S
O377 Zn371 1.941 . S
O377 C387 1.283 . S
O378 Zn371 1.965 . S
O378 C386 1.303 . S
O379 Zn372 1.938 . S
O379 C386 1.247 . S
O380 Zn372 1.906 . S
O380 C388 1.304 . S
O381 Zn369 1.924 . S
O381 C389 1.311 . S
O382 Zn373 1.977 . S
O382 C388 1.272 . S
O383 Zn373 1.910 . S
O383 C389 1.231 . S
C384 O368 1.225 . S
C384 O390 1.298 . S
C385 O374 1.226 . S
C385 O375 1.307 . S
C386 O378 1.303 . S
C386 O379 1.247 . S
C387 O376 1.253 . S
C387 O377 1.283 . S
C388 O380 1.304 . S
C388 O382 1.272 . S
C389 O381 1.311 . S
C389 O383 1.231 . S
O390 Zn372 1.953 1_556 S
O390 C384 1.298 . S
O391 Zn392 1.953 . S
O391 C407 1.225 . S
Zn392 O391 1.953 . S
Zn392 O393 1.949 . S
Zn392 O399 1.919 . S
Zn392 O404 1.924 . S
O393 Zn392 1.949 . S
O393 Zn394 1.923 . S
O393 Zn395 1.950 . S
O393 Zn396 1.945 . S
Zn394 O393 1.923 . S
Zn394 O397 1.933 1_554 S
Zn394 O400 1.941 . S
Zn394 O401 1.965 . S
Zn395 O393 1.950 . S
Zn395 O402 1.938 . S
Zn395 O403 1.906 . S
Zn395 O413 1.953 . S
Zn396 O393 1.945 . S
Zn396 O398 1.932 1_554 S
Zn396 O405 1.977 . S
Zn396 O406 1.910 . S
O397 Zn394 1.933 1_556 S
O397 C408 1.226 . S
O398 Zn396 1.932 1_556 S
O398 C408 1.307 . S
O399 Zn392 1.919 . S
O399 C410 1.253 . S
O400 Zn394 1.941 . S
O400 C410 1.283 . S
O401 Zn394 1.965 . S
O401 C409 1.303 . S
O402 Zn395 1.938 . S
O402 C409 1.247 . S
O403 Zn395 1.906 . S
O403 C411 1.304 . S
O404 Zn392 1.924 . S
O404 C412 1.311 . S
O405 Zn396 1.977 . S
O405 C411 1.272 . S
O406 Zn396 1.910 . S
O406 C412 1.231 . S
C407 O391 1.225 . S
C407 O413 1.298 . S
C408 O397 1.226 . S
C408 O398 1.307 . S
C409 O401 1.303 . S
C409 O402 1.247 . S
C410 O399 1.253 . S
C410 O400 1.283 . S
C411 O403 1.304 . S
C411 O405 1.272 . S
C412 O404 1.311 . S
C412 O406 1.231 . S
O413 Zn395 1.953 . S
O413 C407 1.298 . S
C414 C415 1.387 . S
C414 H418 0.950 . S
C414 C423 1.390 . S
C415 C414 1.387 . S
C415 C417 1.387 . S
H416 C423 0.950 . S
C417 C415 1.387 . S
C417 C419 1.390 . S
C417 H421 0.950 . S
H418 C414 0.950 . S
C419 C417 1.390 . S
C419 C420 1.387 . S
C419 H422 0.950 . S
C420 C419 1.387 . S
C420 C423 1.387 . S
H421 C417 0.950 . S
H422 C419 0.950 . S
C423 C414 1.390 . S
C423 H416 0.950 . S
C423 C420 1.387 . S
C424 C425 1.387 . S
C424 H428 0.950 . S
C424 C433 1.390 . S
C425 C424 1.387 . S
C425 C427 1.387 . S
H426 C433 0.950 . S
C427 C425 1.387 . S
C427 C429 1.390 . S
C427 H431 0.950 . S
H428 C424 0.950 . S
C429 C427 1.390 . S
C429 C430 1.387 . S
C429 H432 0.950 . S
C430 C429 1.387 . S
C430 C433 1.387 . S
H431 C427 0.950 . S
H432 C429 0.950 . S
C433 C424 1.390 . S
C433 H426 0.950 . S
C433 C430 1.387 . S
C434 C435 1.387 . S
C434 H438 0.950 . S
C434 C443 1.390 . S
C435 C434 1.387 . S
C435 C437 1.387 . S
H436 C443 0.950 . S
C437 C435 1.387 . S
C437 C439 1.390 . S
C437 H441 0.950 . S
H438 C434 0.950 . S
C439 C437 1.390 . S
C439 C440 1.387 . S
C439 H442 0.950 . S
C440 C439 1.387 . S
C440 C443 1.387 . S
H441 C437 0.950 . S
H442 C439 0.950 . S
C443 C434 1.390 . S
C443 H436 0.950 . S
C443 C440 1.387 . S
C444 C445 1.387 . S
C444 H448 0.950 . S
C444 C453 1.390 . S
C445 C444 1.387 . S
C445 C447 1.387 . S
H446 C453 0.950 . S
C447 C445 1.387 . S
C447 C449 1.390 . S
C447 H451 0.950 . S
H448 C444 0.950 . S
C449 C447 1.390 . S
C449 C450 1.387 . S
C449 H452 0.950 . S
C450 C449 1.387 . S
C450 C453 1.387 . S
H451 C447 0.950 . S
H452 C449 0.950 . S
C453 C444 1.390 . S
C453 H446 0.950 . S
C453 C450 1.387 . S
C454 C455 1.387 . S
C454 H458 0.950 . S
C454 C463 1.390 . S
C455 C454 1.387 . S
C455 C457 1.387 . S
H456 C463 0.950 . S
C457 C455 1.387 . S
C457 C459 1.390 . S
C457 H461 0.950 . S
H458 C454 0.950 . S
C459 C457 1.390 . S
C459 C460 1.387 . S
C459 H462 0.950 . S
C460 C459 1.387 . S
C460 C463 1.387 . S
H461 C457 0.950 . S
H462 C459 0.950 . S
C463 C454 1.390 . S
C463 H456 0.950 . S
C463 C460 1.387 . S
C464 C465 1.387 . S
C464 H468 0.950 . S
C464 C473 1.390 . S
C465 C464 1.387 . S
C465 C467 1.387 . S
H466 C473 0.950 . S
C467 C465 1.387 . S
C467 C469 1.390 . S
C467 H471 0.950 . S
H468 C464 0.950 . S
C469 C467 1.390 . S
C469 C470 1.387 . S
C469 H472 0.950 . S
C470 C469 1.387 . S
C470 C473 1.387 . S
H471 C467 0.950 . S
H472 C469 0.950 . S
C473 C464 1.390 . S
C473 H466 0.950 . S
C473 C470 1.387 . S
C474 C475 1.387 . S
C474 H478 0.950 . S
C474 C483 1.390 . S
C475 C474 1.387 . S
C475 C477 1.387 . S
H476 C483 0.950 . S
C477 C475 1.387 . S
C477 C479 1.390 . S
C477 H481 0.950 . S
H478 C474 0.950 . S
C479 C477 1.390 . S
C479 C480 1.387 . S
C479 H482 0.950 . S
C480 C479 1.387 . S
C480 C483 1.387 . S
H481 C477 0.950 . S
H482 C479 0.950 . S
C483 C474 1.390 . S
C483 H476 0.950 . S
C483 C480 1.387 . S
C484 C485 1.387 . S
C484 H488 0.950 . S
C484 C493 1.390 . S
C485 C484 1.387 . S
C485 C487 1.387 . S
H486 C493 0.950 . S
C487 C485 1.387 . S
C487 C489 1.390 . S
C487 H491 0.950 . S
H488 C484 0.950 . S
C489 C487 1.390 . S
C489 C490 1.387 . S
C489 H492 0.950 . S
C490 C489 1.387 . S
C490 C493 1.387 . S
H491 C487 0.950 . S
H492 C489 0.950 . S
C493 C484 1.390 . S
C493 H486 0.950 . S
C493 C490 1.387 . S
C494 C495 1.387 . S
C494 H498 0.950 . S
C494 C503 1.390 . S
C495 C494 1.387 . S
C495 C497 1.387 . S
H496 C503 0.950 . S
C497 C495 1.387 . S
C497 C499 1.390 . S
C497 H501 0.950 . S
H498 C494 0.950 . S
C499 C497 1.390 . S
C499 C500 1.387 . S
C499 H502 0.950 . S
C500 C499 1.387 . S
C500 C503 1.387 . S
H501 C497 0.950 . S
H502 C499 0.950 . S
C503 C494 1.390 . S
C503 H496 0.950 . S
C503 C500 1.387 . S
C504 C505 1.387 . S
C504 H508 0.950 . S
C504 C513 1.390 . S
C505 C504 1.387 . S
C505 C507 1.387 . S
H506 C513 0.950 . S
C507 C505 1.387 . S
C507 C509 1.390 . S
C507 H511 0.950 . S
H508 C504 0.950 . S
C509 C507 1.390 . S
C509 C510 1.387 . S
C509 H512 0.950 . S
C510 C509 1.387 . S
C510 C513 1.387 . S
H511 C507 0.950 . S
H512 C509 0.950 . S
C513 C504 1.390 . S
C513 H506 0.950 . S
C513 C510 1.387 . S
C514 C515 1.387 . S
C514 H518 0.950 . S
C514 C523 1.390 . S
C515 C514 1.387 . S
C515 C517 1.387 . S
H516 C523 0.950 . S
C517 C515 1.387 . S
C517 C519 1.390 . S
C517 H521 0.950 . S
H518 C514 0.950 . S
C519 C517 1.390 . S
C519 C520 1.387 . S
C519 H522 0.950 . S
C520 C519 1.387 . S
C520 C523 1.387 . S
H521 C517 0.950 . S
H522 C519 0.950 . S
C523 C514 1.390 . S
C523 H516 0.950 . S
C523 C520 1.387 . S
C524 C525 1.387 . S
C524 H528 0.950 . S
C524 C533 1.390 . S
C525 C524 1.387 . S
C525 C527 1.387 . S
H526 C533 0.950 . S
C527 C525 1.387 . S
C527 C529 1.390 . S
C527 H531 0.950 . S
H528 C524 0.950 . S
C529 C527 1.390 . S
C529 C530 1.387 . S
C529 H532 0.950 . S
C530 C529 1.387 . S
C530 C533 1.387 . S
H531 C527 0.950 . S
H532 C529 0.950 . S
C533 C524 1.390 . S
C533 H526 0.950 . S
C533 C530 1.387 . S
C534 C535 1.387 1_455 S
C534 H538 0.950 . S
C534 C543 1.390 . S
C535 C534 1.387 1_655 S
C535 C537 1.387 1_556 S
H536 C543 0.950 . S
C537 C535 1.387 1_554 S
C537 C539 1.390 1_655 S
C537 H541 0.950 . S
H538 C534 0.950 . S
C539 C537 1.390 1_455 S
C539 C540 1.387 . S
C539 H542 0.950 . S
C540 C539 1.387 . S
C540 C543 1.387 1_554 S
H541 C537 0.950 . S
H542 C539 0.950 . S
C543 C534 1.390 . S
C543 H536 0.950 . S
C543 C540 1.387 1_556 S
C544 C545 1.387 . S
C544 H548 0.950 . S
C544 C553 1.390 . S
C545 C544 1.387 . S
C545 C547 1.387 1_556 S
H546 C553 0.950 . S
C547 C545 1.387 1_554 S
C547 C549 1.390 . S
C547 H551 0.950 . S
H548 C544 0.950 . S
C549 C547 1.390 . S
C549 C550 1.387 . S
C549 H552 0.950 . S
C550 C549 1.387 . S
C550 C553 1.387 1_554 S
H551 C547 0.950 . S
H552 C549 0.950 . S
C553 C544 1.390 . S
C553 H546 0.950 . S
C553 C550 1.387 1_556 S
C554 C555 1.387 . S
C554 H558 0.950 . S
C554 C563 1.390 1_556 S
C555 C554 1.387 . S
C555 C557 1.387 . S
H556 C563 0.916 1_565 S
C557 C555 1.387 . S
C557 C559 1.390 1_556 S
C557 H561 0.950 . S
H558 C554 0.950 . S
C559 C557 1.390 1_554 S
C559 C560 1.387 1_545 S
C559 H562 0.950 1_545 S
C560 C559 1.387 1_565 S
C560 C563 1.387 1_565 S
H561 C557 0.950 . S
H562 C559 0.950 1_565 S
C563 C554 1.390 1_554 S
C563 H556 0.916 1_545 S
C563 C560 1.387 1_545 S
C564 C565 1.387 . S
C564 H568 0.950 . S
C564 C573 1.390 1_556 S
C565 C564 1.387 . S
C565 C567 1.387 . S
H566 C573 0.950 1_565 S
C567 C565 1.387 . S
C567 C569 1.390 1_556 S
C567 H571 0.950 . S
H568 C564 0.950 . S
C569 C567 1.390 1_554 S
C569 C570 1.387 1_545 S
C569 H572 0.912 1_545 S
C570 C569 1.387 1_565 S
C570 C573 1.387 1_565 S
H571 C567 0.950 . S
H572 C569 0.912 1_565 S
C573 C564 1.390 1_554 S
C573 H566 0.950 1_545 S
C573 C570 1.387 1_545 S
C574 C575 1.387 1_556 S
C574 H578 0.950 . S
C574 C583 1.390 . S
C575 C574 1.387 1_554 S
C575 C577 1.387 . S
H576 C583 0.950 . S
C577 C575 1.387 . S
C577 C579 1.372 1_455 S
C577 H581 0.950 . S
H578 C574 0.950 . S
C579 C577 1.372 1_655 S
C579 C580 1.403 1_554 S
C579 H582 0.953 . S
C580 C579 1.403 1_556 S
C580 C583 1.387 1_655 S
H581 C577 0.950 . S
H582 C579 0.953 . S
C583 C574 1.390 . S
C583 H576 0.950 . S
C583 C580 1.387 1_455 S
C584 C585 1.387 . S
C584 H588 0.950 . S
C584 C593 1.390 1_554 S
C585 C584 1.387 . S
C585 C587 1.387 . S
H586 C593 0.950 . S
C587 C585 1.387 . S
C587 C589 1.390 1_554 S
C587 H591 0.950 . S
H588 C584 0.950 . S
C589 C587 1.390 1_556 S
C589 C590 1.387 . S
C589 H592 0.950 . S
C590 C589 1.387 . S
C590 C593 1.387 . S
H591 C587 0.950 . S
H592 C589 0.950 . S
C593 C584 1.390 1_556 S
C593 H586 0.950 . S
C593 C590 1.387 . S
C594 C595 1.387 . S
C594 H598 0.950 . S
C594 C603 1.390 . S
C595 C594 1.387 . S
C595 C597 1.387 . S
H596 C603 0.950 . S
C597 C595 1.387 . S
C597 C599 1.390 . S
C597 H601 0.950 . S
H598 C594 0.950 . S
C599 C597 1.390 . S
C599 C600 1.387 . S
C599 H602 0.950 . S
C600 C599 1.387 . S
C600 C603 1.387 . S
H601 C597 0.950 . S
H602 C599 0.950 . S
C603 C594 1.390 . S
C603 H596 0.950 . S
C603 C600 1.387 . S
C604 C605 1.387 . S
C604 H608 0.950 . S
C604 C613 1.390 . S
C605 C604 1.387 . S
C605 C607 1.387 . S
H606 C613 0.950 . S
C607 C605 1.387 . S
C607 C609 1.390 . S
C607 H611 0.950 . S
H608 C604 0.950 . S
C609 C607 1.390 . S
C609 C610 1.387 . S
C609 H612 0.950 . S
C610 C609 1.387 . S
C610 C613 1.387 . S
H611 C607 0.950 . S
H612 C609 0.950 . S
C613 C604 1.390 . S
C613 H606 0.950 . S
C613 C610 1.387 . S
C614 C615 1.387 . S
C614 H618 0.950 . S
C614 C623 1.390 . S
C615 C614 1.387 . S
C615 C617 1.387 . S
H616 C623 0.950 . S
C617 C615 1.387 . S
C617 C619 1.390 . S
C617 H621 0.950 . S
H618 C614 0.950 . S
C619 C617 1.390 . S
C619 C620 1.387 . S
C619 H622 0.950 . S
C620 C619 1.387 . S
C620 C623 1.387 . S
H621 C617 0.950 . S
H622 C619 0.950 . S
C623 C614 1.390 . S
C623 H616 0.950 . S
C623 C620 1.387 . S
C624 C625 1.387 . S
C624 H628 0.950 . S
C624 C633 1.390 . S
C625 C624 1.387 . S
C625 C627 1.387 . S
H626 C633 0.950 . S
C627 C625 1.387 . S
C627 C629 1.390 . S
C627 H631 0.950 . S
H628 C624 0.950 . S
C629 C627 1.390 . S
C629 C630 1.387 . S
C629 H632 0.950 . S
C630 C629 1.387 . S
C630 C633 1.387 . S
H631 C627 0.950 . S
H632 C629 0.950 . S
C633 C624 1.390 . S
C633 H626 0.950 . S
C633 C630 1.387 . S
C634 C635 1.387 . S
C634 H638 0.950 . S
C634 C643 1.390 . S
C635 C634 1.387 . S
C635 C637 1.387 . S
H636 C643 0.950 . S
C637 C635 1.387 . S
C637 C639 1.390 . S
C637 H641 0.950 . S
H638 C634 0.950 . S
C639 C637 1.390 . S
C639 C640 1.387 . S
C639 H642 0.950 . S
C640 C639 1.387 . S
C640 C643 1.387 . S
H641 C637 0.950 . S
H642 C639 0.950 . S
C643 C634 1.390 . S
C643 H636 0.950 . S
C643 C640 1.387 . S
C644 C645 1.387 . S
C644 H648 0.950 . S
C644 C653 1.390 . S
C645 C644 1.387 . S
C645 C647 1.387 . S
H646 C653 0.950 . S
C647 C645 1.387 . S
C647 C649 1.390 . S
C647 H651 0.950 . S
H648 C644 0.950 . S
C649 C647 1.390 . S
C649 C650 1.387 . S
C649 H652 0.950 . S
C650 C649 1.387 . S
C650 C653 1.387 . S
H651 C647 0.950 . S
H652 C649 0.950 . S
C653 C644 1.390 . S
C653 H646 0.950 . S
C653 C650 1.387 . S
C654 C655 1.387 . S
C654 H658 0.950 . S
C654 C663 1.390 . S
C655 C654 1.387 . S
C655 C657 1.387 . S
H656 C663 0.950 . S
C657 C655 1.387 . S
C657 C659 1.390 . S
C657 H661 0.950 . S
H658 C654 0.950 . S
C659 C657 1.390 . S
C659 C660 1.387 . S
C659 H662 0.950 . S
C660 C659 1.387 . S
C660 C663 1.387 . S
H661 C657 0.950 . S
H662 C659 0.950 . S
C663 C654 1.390 . S
C663 H656 0.950 . S
C663 C660 1.387 . S
C664 C665 1.387 . S
C664 H668 0.950 . S
C664 C673 1.390 . S
C665 C664 1.387 . S
C665 C667 1.387 . S
H666 C673 0.950 . S
C667 C665 1.387 . S
C667 C669 1.390 . S
C667 H671 0.950 1_556 S
H668 C664 0.950 . S
C669 C667 1.390 . S
C669 C670 1.387 . S
C669 H672 0.950 1_556 S
C670 C669 1.387 . S
C670 C673 1.387 . S
H671 C667 0.950 1_554 S
H672 C669 0.950 1_554 S
C673 C664 1.390 . S
C673 H666 0.950 . S
C673 C670 1.387 . S
C674 C675 1.387 . S
C674 H678 0.950 . S
C674 C683 1.390 . S
C675 C674 1.387 . S
C675 C677 1.387 . S
H676 C683 0.950 . S
C677 C675 1.387 . S
C677 C679 1.390 . S
C677 H681 0.950 1_556 S
H678 C674 0.950 . S
C679 C677 1.390 . S
C679 C680 1.387 . S
C679 H682 0.950 1_556 S
C680 C679 1.387 . S
C680 C683 1.387 . S
H681 C677 0.950 1_554 S
H682 C679 0.950 1_554 S
C683 C674 1.390 . S
C683 H676 0.950 . S
C683 C680 1.387 . S
C684 C685 1.387 . S
C684 H688 0.950 . S
C684 C693 1.390 . S
C685 C684 1.387 . S
C685 C687 1.387 . S
H686 C693 0.950 . S
C687 C685 1.387 . S
C687 C689 1.390 . S
C687 H691 0.950 . S
H688 C684 0.950 . S
C689 C687 1.390 . S
C689 C690 1.387 . S
C689 H692 0.950 . S
C690 C689 1.387 . S
C690 C693 1.387 . S
H691 C687 0.950 . S
H692 C689 0.950 . S
C693 C684 1.390 . S
C693 H686 0.950 . S
C693 C690 1.387 . S
C694 C695 1.387 . S
C694 H698 0.950 . S
C694 C703 1.390 . S
C695 C694 1.387 . S
C695 C697 1.387 . S
H696 C703 0.950 . S
C697 C695 1.387 . S
C697 C699 1.390 . S
C697 H701 0.950 . S
H698 C694 0.950 . S
C699 C697 1.390 . S
C699 C700 1.387 . S
C699 H702 0.950 . S
C700 C699 1.387 . S
C700 C703 1.387 . S
H701 C697 0.950 . S
H702 C699 0.950 . S
C703 C694 1.390 . S
C703 H696 0.950 . S
C703 C700 1.387 . S
C704 C705 1.387 . S
C704 H708 0.950 . S
C704 C713 1.390 . S
C705 C704 1.387 . S
C705 C707 1.387 . S
H706 C713 0.950 . S
C707 C705 1.387 . S
C707 C709 1.390 . S
C707 H711 0.950 . S
H708 C704 0.950 . S
C709 C707 1.390 . S
C709 C710 1.387 . S
C709 H712 0.950 . S
C710 C709 1.387 . S
C710 C713 1.387 . S
H711 C707 0.950 . S
H712 C709 0.950 . S
C713 C704 1.390 . S
C713 H706 0.950 . S
C713 C710 1.387 . S
C714 C715 1.387 . S
C714 H718 0.950 . S
C714 C723 1.390 . S
C715 C714 1.387 . S
C715 C717 1.387 . S
H716 C723 0.950 . S
C717 C715 1.387 . S
C717 C719 1.390 . S
C717 H721 0.950 . S
H718 C714 0.950 . S
C719 C717 1.390 . S
C719 C720 1.387 . S
C719 H722 0.950 . S
C720 C719 1.387 . S
C720 C723 1.387 . S
H721 C717 0.950 . S
H722 C719 0.950 . S
C723 C714 1.390 . S
C723 H716 0.950 . S
C723 C720 1.387 . S
C724 C725 1.387 . S
C724 H728 0.950 . S
C724 C733 1.390 . S
C725 C724 1.387 . S
C725 C727 1.387 . S
H726 C733 0.950 . S
C727 C725 1.387 . S
C727 C729 1.390 . S
C727 H731 0.950 . S
H728 C724 0.950 . S
C729 C727 1.390 . S
C729 C730 1.387 . S
C729 H732 0.950 . S
C730 C729 1.387 . S
C730 C733 1.387 . S
H731 C727 0.950 . S
H732 C729 0.950 . S
C733 C724 1.390 . S
C733 H726 0.950 . S
C733 C730 1.387 . S
C734 C735 1.387 . S
C734 H738 0.950 . S
C734 C743 1.390 . S
C735 C734 1.387 . S
C735 C737 1.387 . S
H736 C743 0.950 . S
C737 C735 1.387 . S
C737 C739 1.390 . S
C737 H741 0.950 . S
H738 C734 0.950 . S
C739 C737 1.390 . S
C739 C740 1.387 . S
C739 H742 0.950 . S
C740 C739 1.387 . S
C740 C743 1.387 . S
H741 C737 0.950 . S
H742 C739 0.950 . S
C743 C734 1.390 . S
C743 H736 0.950 . S
C743 C740 1.387 . S
C744 C745 1.387 . S
C744 H748 0.950 1_554 S
C744 C753 1.390 . S
C745 C744 1.387 . S
C745 C747 1.387 . S
H746 C753 0.950 1_556 S
C747 C745 1.387 . S
C747 C749 1.390 . S
C747 H751 0.950 . S
H748 C744 0.950 1_556 S
C749 C747 1.390 . S
C749 C750 1.387 . S
C749 H752 0.950 . S
C750 C749 1.387 . S
C750 C753 1.387 . S
H751 C747 0.950 . S
H752 C749 0.950 . S
C753 C744 1.390 . S
C753 H746 0.950 1_554 S
C753 C750 1.387 . S
C754 C755 1.387 . S
C754 H758 0.950 1_554 S
C754 C763 1.390 . S
C755 C754 1.387 . S
C755 C757 1.387 . S
H756 C763 0.950 1_556 S
C757 C755 1.387 . S
C757 C759 1.390 . S
C757 H761 0.950 . S
H758 C754 0.950 1_556 S
C759 C757 1.390 . S
C759 C760 1.387 . S
C759 H762 0.950 . S
C760 C759 1.387 . S
C760 C763 1.387 . S
H761 C757 0.950 . S
H762 C759 0.950 . S
C763 C754 1.390 . S
C763 H756 0.950 1_554 S
C763 C760 1.387 . S
C764 C765 1.387 . S
C764 H768 0.950 1_554 S
C764 C773 1.390 . S
C765 C764 1.387 . S
C765 C767 1.387 . S
H766 C773 0.950 1_556 S
C767 C765 1.387 . S
C767 C769 1.390 . S
C767 H771 0.950 . S
H768 C764 0.950 1_556 S
C769 C767 1.390 . S
C769 C770 1.387 . S
C769 H772 0.950 . S
C770 C769 1.387 . S
C770 C773 1.387 . S
H771 C767 0.950 . S
H772 C769 0.950 . S
C773 C764 1.390 . S
C773 H766 0.950 1_554 S
C773 C770 1.387 . S
C774 C775 1.387 . S
C774 H778 0.950 . S
C774 C783 1.390 1_554 S
C775 C774 1.387 . S
C775 C777 1.387 . S
H776 C783 0.950 . S
C777 C775 1.387 . S
C777 C779 1.390 1_554 S
C777 H781 0.950 1_455 S
H778 C774 0.950 . S
C779 C777 1.390 1_556 S
C779 C780 1.387 . S
C779 H782 0.950 . S
C780 C779 1.387 . S
C780 C783 1.387 . S
H781 C777 0.950 1_655 S
H782 C779 0.950 . S
C783 C774 1.390 1_556 S
C783 H776 0.950 . S
C783 C780 1.387 . S
C784 C785 1.387 . S
C784 H788 0.950 . S
C784 C793 1.390 1_554 S
C785 C784 1.387 . S
C785 C787 1.387 . S
H786 C793 0.950 . S
C787 C785 1.387 . S
C787 C789 1.390 1_554 S
C787 H791 0.950 . S
H788 C784 0.950 . S
C789 C787 1.390 1_556 S
C789 C790 1.387 . S
C789 H792 0.950 . S
C790 C789 1.387 . S
C790 C793 1.387 . S
H791 C787 0.950 . S
H792 C789 0.950 . S
C793 C784 1.390 1_556 S
C793 H786 0.950 . S
C793 C790 1.387 . S
C794 C795 1.387 . S
C794 H798 0.950 . S
C794 C803 1.390 1_554 S
C795 C794 1.387 . S
C795 C797 1.387 . S
H796 C803 0.950 . S
C797 C795 1.387 . S
C797 C799 1.390 1_554 S
C797 H801 0.950 . S
H798 C794 0.950 . S
C799 C797 1.390 1_556 S
C799 C800 1.387 . S
C799 H802 0.950 . S
C800 C799 1.387 . S
C800 C803 1.387 . S
H801 C797 0.950 . S
H802 C799 0.950 . S
C803 C794 1.390 1_556 S
C803 H796 0.950 . S
C803 C800 1.387 . S
C804 C805 1.387 . S
C804 H808 0.950 1_455 S
C804 C813 1.390 1_456 S
C805 C804 1.387 . S
C805 C807 1.387 . S
H806 C813 0.950 . S
C807 C805 1.387 . S
C807 C809 1.390 1_556 S
C807 H811 0.950 . S
H808 C804 0.950 1_655 S
C809 C807 1.390 1_554 S
C809 C810 1.387 . S
C809 H812 0.950 . S
C810 C809 1.387 . S
C810 C813 1.387 1_455 S
H811 C807 0.950 . S
H812 C809 0.950 . S
C813 C804 1.390 1_654 S
C813 H806 0.950 . S
C813 C810 1.387 1_655 S
C814 C815 1.387 . S
C814 H818 0.950 . S
C814 C823 1.390 1_554 S
C815 C814 1.387 . S
C815 C817 1.387 . S
H816 C823 0.950 . S
C817 C815 1.387 . S
C817 C819 1.390 1_554 S
C817 H821 0.950 . S
H818 C814 0.950 . S
C819 C817 1.390 1_556 S
C819 C820 1.387 . S
C819 H822 0.950 . S
C820 C819 1.387 . S
C820 C823 1.387 . S
H821 C817 0.950 . S
H822 C819 0.950 . S
C823 C814 1.390 1_556 S
C823 H816 0.950 . S
C823 C820 1.387 . S
C824 C825 1.387 . S
C824 H828 0.950 . S
C824 C833 1.390 1_554 S
C825 C824 1.387 . S
C825 C827 1.387 . S
H826 C833 0.950 . S
C827 C825 1.387 . S
C827 C829 1.390 1_554 S
C827 H831 0.950 . S
H828 C824 0.950 . S
C829 C827 1.390 1_556 S
C829 C830 1.387 . S
C829 H832 0.950 . S
C830 C829 1.387 . S
C830 C833 1.387 . S
H831 C827 0.950 . S
H832 C829 0.950 . S
C833 C824 1.390 1_556 S
C833 H826 0.950 . S
C833 C830 1.387 . S
C834 C835 1.387 . S
C834 H838 0.950 . S
C834 C843 1.390 . S
C835 C834 1.387 . S
C835 C837 1.387 . S
H836 C843 0.950 . S
C837 C835 1.387 . S
C837 C839 1.390 . S
C837 H841 0.950 . S
H838 C834 0.950 . S
C839 C837 1.390 . S
C839 C840 1.387 . S
C839 H842 0.950 . S
C840 C839 1.387 . S
C840 C843 1.387 . S
H841 C837 0.950 . S
H842 C839 0.950 . S
C843 C834 1.390 . S
C843 H836 0.950 . S
C843 C840 1.387 . S
C844 C845 1.387 . S
C844 H848 0.950 . S
C844 C853 1.390 . S
C845 C844 1.387 . S
C845 C847 1.387 . S
H846 C853 0.950 . S
C847 C845 1.387 . S
C847 C849 1.390 . S
C847 H851 0.950 . S
H848 C844 0.950 . S
C849 C847 1.390 . S
C849 C850 1.387 . S
C849 H852 0.950 . S
C850 C849 1.387 . S
C850 C853 1.387 . S
H851 C847 0.950 . S
H852 C849 0.950 . S
C853 C844 1.390 . S
C853 H846 0.950 . S
C853 C850 1.387 . S
C854 C855 1.387 . S
C854 H858 0.950 . S
C854 C863 1.390 . S
C855 C854 1.387 . S
C855 C857 1.387 . S
H856 C863 0.950 . S
C857 C855 1.387 . S
C857 C859 1.390 . S
C857 H861 0.950 . S
H858 C854 0.950 . S
C859 C857 1.390 . S
C859 C860 1.387 . S
C859 H862 0.950 . S
C860 C859 1.387 . S
C860 C863 1.387 . S
H861 C857 0.950 . S
H862 C859 0.950 . S
C863 C854 1.390 . S
C863 H856 0.950 . S
C863 C860 1.387 . S
C864 C865 1.387 . S
C864 H868 0.950 . S
C864 C873 1.390 . S
C865 C864 1.387 . S
C865 C867 1.387 . S
H866 C873 0.950 . S
C867 C865 1.387 . S
C867 C869 1.390 . S
C867 H871 0.950 . S
H868 C864 0.950 . S
C869 C867 1.390 . S
C869 C870 1.387 . S
C869 H872 0.950 . S
C870 C869 1.387 . S
C870 C873 1.387 . S
H871 C867 0.950 . S
H872 C869 0.950 . S
C873 C864 1.390 . S
C873 H866 0.950 . S
C873 C870 1.387 . S
C874 C875 1.387 . S
C874 H878 0.950 . S
C874 C883 1.390 . S
C875 C874 1.387 . S
C875 C877 1.387 . S
H876 C883 0.950 . S
C877 C875 1.387 . S
C877 C879 1.390 . S
C877 H881 0.950 . S
H878 C874 0.950 . S
C879 C877 1.390 . S
C879 C880 1.387 . S
C879 H882 0.950 . S
C880 C879 1.387 . S
C880 C883 1.387 . S
H881 C877 0.950 . S
H882 C879 0.950 . S
C883 C874 1.390 . S
C883 H876 0.950 . S
C883 C880 1.387 . S
C884 C885 1.387 . S
C884 H888 0.950 . S
C884 C893 1.390 . S
C885 C884 1.387 . S
C885 C887 1.387 . S
H886 C893 0.950 . S
C887 C885 1.387 . S
C887 C889 1.390 . S
C887 H891 0.950 . S
H888 C884 0.950 . S
C889 C887 1.390 . S
C889 C890 1.387 . S
C889 H892 0.950 . S
C890 C889 1.387 . S
C890 C893 1.387 . S
H891 C887 0.950 . S
H892 C889 0.950 . S
C893 C884 1.390 . S
C893 H886 0.950 . S
C893 C890 1.387 . S
C894 C895 1.387 . S
C894 H898 0.950 . S
C894 C903 1.390 . S
C895 C894 1.387 . S
C895 C897 1.387 . S
H896 C903 0.950 . S
C897 C895 1.387 . S
C897 C899 1.390 . S
C897 H901 0.950 . S
H898 C894 0.950 . S
C899 C897 1.390 . S
C899 C900 1.387 . S
C899 H902 0.950 . S
C900 C899 1.387 . S
C900 C903 1.387 . S
H901 C897 0.950 . S
H902 C899 0.950 . S
C903 C894 1.390 . S
C903 H896 0.950 . S
C903 C900 1.387 . S
C904 C905 1.387 . S
C904 H908 0.950 . S
C904 C913 1.390 . S
C905 C904 1.387 . S
C905 C907 1.387 . S
H906 C913 0.950 . S
C907 C905 1.387 . S
C907 C909 1.390 . S
C907 H911 0.950 . S
H908 C904 0.950 . S
C909 C907 1.390 . S
C909 C910 1.387 . S
C909 H912 0.950 . S
C910 C909 1.387 . S
C910 C913 1.387 . S
H911 C907 0.950 . S
H912 C909 0.950 . S
C913 C904 1.390 . S
C913 H906 0.950 . S
C913 C910 1.387 . S
C914 C915 1.387 . S
C914 H918 0.950 . S
C914 C923 1.390 . S
C915 C914 1.387 . S
C915 C917 1.387 . S
H916 C923 0.950 . S
C917 C915 1.387 . S
C917 C919 1.390 . S
C917 H921 0.950 . S
H918 C914 0.950 . S
C919 C917 1.390 . S
C919 C920 1.387 . S
C919 H922 0.950 . S
C920 C919 1.387 . S
C920 C923 1.387 . S
H921 C917 0.950 . S
H922 C919 0.950 . S
C923 C914 1.390 . S
C923 H916 0.950 . S
C923 C920 1.387 . S
C924 C925 1.387 . S
C924 H928 0.950 . S
C924 C933 1.390 . S
C925 C924 1.387 . S
C925 C927 1.387 . S
H926 C933 0.950 . S
C927 C925 1.387 . S
C927 C929 1.390 . S
C927 H931 0.950 . S
H928 C924 0.950 . S
C929 C927 1.390 . S
C929 C930 1.387 . S
C929 H932 0.950 . S
C930 C929 1.387 . S
C930 C933 1.387 . S
H931 C927 0.950 . S
H932 C929 0.950 . S
C933 C924 1.390 . S
C933 H926 0.950 . S
C933 C930 1.387 . S
C934 C935 1.387 . S
C934 H938 0.950 . S
C934 C943 1.390 . S
C935 C934 1.387 . S
C935 C937 1.387 . S
H936 C943 0.950 . S
C937 C935 1.387 . S
C937 C939 1.390 . S
C937 H941 0.950 . S
H938 C934 0.950 . S
C939 C937 1.390 . S
C939 C940 1.387 . S
C939 H942 0.950 . S
C940 C939 1.387 . S
C940 C943 1.387 . S
H941 C937 0.950 . S
H942 C939 0.950 . S
C943 C934 1.390 . S
C943 H936 0.950 . S
C943 C940 1.387 . S
C944 C945 1.387 . S
C944 H948 0.950 . S
C944 C953 1.390 . S
C945 C944 1.387 . S
C945 C947 1.387 . S
H946 C953 0.950 . S
C947 C945 1.387 . S
C947 C949 1.390 . S
C947 H951 0.950 . S
H948 C944 0.950 . S
C949 C947 1.390 . S
C949 C950 1.387 . S
C949 H952 0.950 . S
C950 C949 1.387 . S
C950 C953 1.387 . S
H951 C947 0.950 . S
H952 C949 0.950 . S
C953 C944 1.390 . S
C953 H946 0.950 . S
C953 C950 1.387 . S
C415 C317 1.586 . S
C420 C18 1.584 . S
C425 C43 1.547 . S
C430 C342 1.547 . S
C435 C64 1.535 . S
C440 C296 1.594 . S
C445 C66 1.541 . S
C450 C181 1.541 . S
C455 C204 1.536 . S
C460 C20 1.537 . S
C465 C41 1.532 . S
C470 C158 1.590 . S
C475 C87 1.523 . S
C480 C249 1.505 . S
C485 C111 1.497 . S
C490 C272 1.498 . S
C495 C226 1.509 . S
C500 C133 1.527 . S
C505 C387 1.506 . S
C510 C134 1.504 . S
C515 C88 1.507 . S
C520 C409 1.525 . S
C525 C363 1.526 . S
C530 C110 1.526 . S
C535 C202 1.539 . S
C540 C319 1.597 . S
C545 C156 1.596 . S
C550 C340 1.594 . S
C555 C179 1.588 . S
C560 C294 1.591 . S
C565 C225 1.533 . S
C570 C386 1.534 . S
C575 C410 1.507 . S
C580 C248 1.527 . S
C585 C364 1.506 . S
C590 C271 1.524 . S
C595 C19 1.419 . S
C600 C112 1.452 . S
C605 C136 1.425 . S
C610 C44 1.450 . S
C615 C90 1.441 . S
C620 C65 1.439 . S
C625 C113 1.439 . S
C630 C67 1.463 . S
C635 C135 1.470 . S
C640 C21 1.464 . S
C645 C89 1.480 . S
C650 C42 1.443 . S
C655 C251 1.435 . S
C660 C159 1.461 . S
C665 C274 1.448 . S
C670 C182 1.476 . S
C675 C228 1.436 . S
C680 C205 1.463 . S
C685 C250 1.472 . S
C690 C203 1.435 . S
C695 C273 1.471 . S
C700 C157 1.439 . S
C705 C227 1.456 . S
C710 C180 1.425 . S
C715 C388 1.469 . S
C720 C295 1.439 . S
C725 C412 1.427 . S
C730 C320 1.454 . S
C735 C341 1.435 . S
C740 C366 1.436 . S
C745 C343 1.481 . S
C750 C389 1.456 . S
C755 C297 1.459 . S
C760 C411 1.466 . S
C765 C365 1.483 . S
C770 C318 1.448 . S
C775 C16 1.445 . S
C780 C17 1.449 . S
C785 C40 1.447 . S
C790 C39 1.443 . S
C795 C62 1.442 . S
C800 C63 1.446 . S
C805 C85 1.452 . S
C810 C86 1.456 . S
C815 C108 1.450 . S
C820 C109 1.455 . S
C825 C132 1.453 . S
C830 C131 1.448 . S
C835 C154 1.444 . S
C840 C155 1.448 . S
C845 C178 1.448 . S
C850 C177 1.445 . S
C855 C200 1.445 . S
C860 C201 1.449 . S
C865 C223 1.452 . S
C870 C224 1.457 . S
C875 C246 1.452 . S
C880 C247 1.457 . S
C885 C269 1.448 . S
C890 C270 1.453 . S
C895 C293 1.448 . S
C900 C292 1.444 . S
C905 C316 1.449 . S
C910 C315 1.446 . S
C915 C338 1.446 . S
C920 C339 1.450 . S
C925 C362 1.457 . S
C930 C361 1.452 . S
C935 C384 1.452 . S
C940 C385 1.457 . S
C945 C407 1.452 . S
C950 C408 1.457 . S
