# Generated by pormake.
# Topology rob, (6)-cn, num edge types: 1
# Building blocks:
#     Node 0, Type 0, BuildingBlock: BETDIP_clean_sbu_0, # of connection points: 6
#     Node 1, Type 0, BuildingBlock: BETDIP_clean_sbu_0, # of connection points: 6
#     Node 2, Type 0, BuildingBlock: BETDIP_clean_sbu_0, # of connection points: 6
#     Node 3, Type 0, BuildingBlock: BETDIP_clean_sbu_0, # of connection points: 6
#     Edge 4, Type (0, 0), BuildingBlock: FUNLAD_clean_linker_1, # of connection points: 2
#     Edge 5, Type (0, 0), BuildingBlock: FUNLAD_clean_linker_1, # of connection points: 2
#     Edge 6, Type (0, 0), BuildingBlock: FUNLAD_clean_linker_1, # of connection points: 2
#     Edge 7, Type (0, 0), BuildingBlock: FUNLAD_clean_linker_1, # of connection points: 2
#     Edge 8, Type (0, 0), BuildingBlock: FUNLAD_clean_linker_1, # of connection points: 2
#     Edge 9, Type (0, 0), BuildingBlock: FUNLAD_clean_linker_1, # of connection points: 2
#     Edge 10, Type (0, 0), BuildingBlock: FUNLAD_clean_linker_1, # of connection points: 2
#     Edge 11, Type (0, 0), BuildingBlock: FUNLAD_clean_linker_1, # of connection points: 2
#     Edge 12, Type (0, 0), BuildingBlock: FUNLAD_clean_linker_1, # of connection points: 2
#     Edge 13, Type (0, 0), BuildingBlock: FUNLAD_clean_linker_1, # of connection points: 2
#     Edge 14, Type (0, 0), BuildingBlock: FUNLAD_clean_linker_1, # of connection points: 2
#     Edge 15, Type (0, 0), BuildingBlock: FUNLAD_clean_linker_1, # of connection points: 2
# Relax obj value: 0.036
# Max RMSD: 0.138
# Mean RMSD: 0.138
data_MOF--net-rob--node1-BETDIP_clean_sbu_0--edge1-FUNLAD_clean_linker_1
_symmetry_space_group_name_H-M    P1
_symmetry_Int_Tables_number       1
_symmetry_cell_setting            triclinic
loop_
_symmetry_equiv_pos_as_xyz
'x, y, z'
_cell_length_a     15.332936
_cell_length_b     25.804234
_cell_length_c     37.578456
_cell_angle_alpha  94.419393
_cell_angle_beta   90.13769
_cell_angle_gamma 89.844938
loop_
_atom_site_label
_atom_site_type_symbol
_atom_site_fract_x
_atom_site_fract_y
_atom_site_fract_z
_atom_type_partial_charge
Tb0 Tb 0.17935 0.28993 0.04856 0.0
Tb1 Tb 0.34158 0.24258 1.0127 0.0
C2 C 0.04245 0.30348 0.08488 0.0
C3 C 0.01695 0.305 0.12276 0.0
C4 C 0.05344 0.27086 0.14611 0.0
C5 C 0.02691 0.27275 0.18182 0.0
C6 C 0.96347 0.30907 0.19486 0.0
C7 C 0.92741 0.34302 0.17127 0.0
C8 C 0.95401 0.3411 0.13565 0.0
C9 C 0.30521 0.35557 0.0374 0.0
C10 C 0.3311 0.24156 0.0954 0.0
C11 C 0.47972 0.23014 0.977 0.0
C12 C 0.50754 0.23196 0.93966 0.0
C13 C 0.59479 0.24292 0.93242 0.0
C14 C 0.62348 0.24393 0.89722 0.0
C15 C 0.56546 0.23431 0.86847 0.0
C16 C 0.47741 0.22359 0.87588 0.0
C17 C 0.44884 0.2225 0.9112 0.0
C18 C 0.21584 0.17692 0.02408 0.0
C19 C 0.18922 0.29034 0.9659 0.0
O20 O 0.06681 0.25833 0.06971 0.0
O21 O 0.09201 0.34154 0.0759 0.0
O22 O 0.31388 0.31006 0.04666 0.0
O23 O 0.22305 0.36761 0.03682 0.0
O24 O 0.24906 0.25763 0.0932 0.0
O25 O 0.3837 0.23763 0.0675 0.0
O26 O 0.45635 0.27457 0.99346 0.0
O27 O 0.42763 0.19209 0.98394 0.0
O28 O 0.2072 0.22236 1.01469 0.0
O29 O 0.29808 0.16488 0.02454 0.0
O30 O 0.27183 0.27529 0.96817 0.0
O31 O 0.13648 0.29348 0.99376 0.0
H32 H 0.10176 0.24236 0.1367 0.0
H33 H 0.05517 0.24497 0.19863 0.0
H34 H 0.87822 0.37118 0.18039 0.0
H35 H 0.92492 0.36772 0.11805 0.0
H36 H 0.64104 0.25038 0.95405 0.0
H37 H 0.69154 0.25221 0.89246 0.0
H38 H 0.43039 0.21508 0.8548 0.0
H39 H 0.38118 0.21373 0.91628 0.0
Tb40 Tb 0.68229 0.78862 0.04663 0.0
Tb41 Tb 0.84306 0.74103 1.01152 0.0
C42 C 0.55302 0.80105 0.08746 0.0
C43 C 0.5453 0.80754 0.12678 0.0
C44 C 0.47191 0.78837 0.14362 0.0
C45 C 0.46533 0.79258 0.18094 0.0
C46 C 0.53262 0.81588 0.20222 0.0
C47 C 0.60552 0.83551 0.18513 0.0
C48 C 0.61223 0.83105 0.14786 0.0
C49 C 0.80898 0.85446 0.03687 0.0
C50 C 0.83723 0.74133 0.0936 0.0
C51 C 0.971 0.72507 0.97037 0.0
C52 C 0.97789 0.72437 0.93121 0.0
C53 C 0.05818 0.73374 0.91519 0.0
C54 C 0.06417 0.73498 0.87806 0.0
C55 C 0.98955 0.72691 0.85632 0.0
C56 C 0.90926 0.7181 0.87263 0.0
C57 C 0.90348 0.71642 0.90962 0.0
C58 C 0.71509 0.67594 1.02169 0.0
C59 C 0.69327 0.79077 0.96471 0.0
O60 O 0.58045 0.7554 0.07441 0.0
O61 O 0.59037 0.83908 0.07208 0.0
O62 O 0.81724 0.8087 0.04571 0.0
O63 O 0.72688 0.86662 0.03611 0.0
O64 O 0.75459 0.75619 0.09088 0.0
O65 O 0.89019 0.73821 0.06581 0.0
O66 O 0.95347 0.7704 0.9869 0.0
O67 O 0.92435 0.68788 0.98246 0.0
O68 O 0.70791 0.72138 1.01224 0.0
O69 O 0.79696 0.66378 0.02337 0.0
O70 O 0.77672 0.7798 0.96898 0.0
O71 O 0.63699 0.78952 0.99136 0.0
H72 H 0.41961 0.77002 0.12787 0.0
H73 H 0.40688 0.77819 0.19279 0.0
H74 H 0.6579 0.85402 0.20071 0.0
H75 H 0.67003 0.84573 0.13555 0.0
H76 H 0.11607 0.74065 0.93144 0.0
H77 H 0.12682 0.74352 0.86675 0.0
H78 H 0.85078 0.71239 0.85665 0.0
H79 H 0.84064 0.70917 0.92133 0.0
Tb80 Tb 0.17794 0.74309 0.51317 0.0
Tb81 Tb 0.34414 0.78916 0.5456 0.0
C82 C 0.03922 0.73071 0.47752 0.0
C83 C 0.01338 0.72982 0.43958 0.0
C84 C 0.05282 0.76257 0.41615 0.0
C85 C 0.02676 0.76119 0.38034 0.0
C86 C 0.96085 0.72675 0.36717 0.0
C87 C 0.92131 0.69444 0.39087 0.0
C88 C 0.9475 0.69581 0.42663 0.0
C89 C 0.30538 0.67646 0.52121 0.0
C90 C 0.32625 0.79015 0.46371 0.0
C91 C 0.47458 0.80263 0.58597 0.0
C92 C 0.4811 0.80389 0.62536 0.0
C93 C 0.55952 0.79096 0.64188 0.0
C94 C 0.56425 0.78977 0.67915 0.0
C95 C 0.49018 0.8013 0.70057 0.0
C96 C 0.41186 0.81382 0.68376 0.0
C97 C 0.40741 0.81552 0.64669 0.0
C98 C 0.21571 0.85534 0.53799 0.0
C99 C 0.19826 0.73999 0.59455 0.0
O100 O 0.06456 0.77551 0.49281 0.0
O101 O 0.08845 0.69222 0.48637 0.0
O102 O 0.3128 0.72199 0.51192 0.0
O103 O 0.22339 0.66504 0.52383 0.0
O104 O 0.24336 0.77763 0.46842 0.0
O105 O 0.38408 0.79099 0.49008 0.0
O106 O 0.45405 0.75757 0.56976 0.0
O107 O 0.43068 0.84075 0.5733 0.0
O108 O 0.20936 0.80977 0.54722 0.0
O109 O 0.29743 0.86711 0.53519 0.0
O110 O 0.28096 0.75152 0.58932 0.0
O111 O 0.13959 0.74084 0.56876 0.0
H112 H 0.10327 0.78958 0.42554 0.0
H113 H 0.05742 0.78789 0.36347 0.0
H114 H 0.86998 0.66785 0.38168 0.0
H115 H 0.91597 0.67034 0.44425 0.0
H116 H 0.61683 0.78114 0.62593 0.0
H117 H 0.62529 0.77848 0.69083 0.0
H118 H 0.35377 0.8224 0.69943 0.0
H119 H 0.34593 0.82552 0.6347 0.0
Tb120 Tb 0.67722 0.24332 0.51345 0.0
Tb121 Tb 0.84237 0.28828 0.54783 0.0
C122 C 0.53907 0.23256 0.4775 0.0
C123 C 0.51512 0.23439 0.43967 0.0
C124 C 0.43027 0.24888 0.43077 0.0
C125 C 0.40635 0.25163 0.39507 0.0
C126 C 0.46669 0.23984 0.3675 0.0
C127 C 0.55246 0.22589 0.3766 0.0
C128 C 0.57623 0.22306 0.4124 0.0
C129 C 0.8026 0.17606 0.52276 0.0
C130 C 0.82753 0.2906 0.46562 0.0
C131 C 0.97915 0.29812 0.58457 0.0
C132 C 1.00068 0.29524 0.62266 0.0
C133 C 0.07314 0.26597 0.63208 0.0
C134 C 0.09448 0.26212 0.66796 0.0
C135 C 0.04451 0.28801 0.69514 0.0
C136 C 0.97083 0.31667 0.6857 0.0
C137 C 0.94901 0.32012 0.64977 0.0
C138 C 0.71696 0.35548 0.5384 0.0
C139 C 0.6922 0.24126 0.59571 0.0
O140 O 0.56366 0.27677 0.49385 0.0
O141 O 0.5886 0.19367 0.48546 0.0
O142 O 0.81132 0.22161 0.51369 0.0
O143 O 0.72029 0.1649 0.52435 0.0
O144 O 0.7447 0.2768 0.46883 0.0
O145 O 0.88259 0.29222 0.49281 0.0
O146 O 0.95551 0.25429 0.56741 0.0
O147 O 0.93101 0.33746 0.57623 0.0
O148 O 0.70843 0.30997 0.54757 0.0
O149 O 0.79929 0.36673 0.53693 0.0
O150 O 0.77504 0.25486 0.59245 0.0
O151 O 0.63711 0.2398 0.56855 0.0
H152 H 0.38244 0.25819 0.45148 0.0
H153 H 0.34018 0.26293 0.38898 0.0
H154 H 0.60193 0.21783 0.35647 0.0
H155 H 0.64244 0.21229 0.41879 0.0
H156 H 0.1132 0.24592 0.61164 0.0
H157 H 0.15089 0.23927 0.67448 0.0
H158 H 0.92912 0.33574 0.70591 0.0
H159 H 0.89156 0.34203 0.64324 0.0
H160 H 0.57593 0.65429 1.02006 0.0
C161 C 0.64155 0.63963 0.02384 0.0
H162 H 0.71946 0.57407 0.03193 0.0
H163 H 0.32793 0.49947 0.08506 0.0
H164 H 0.34182 0.56789 0.13266 0.0
H165 H 0.46548 0.62897 0.13412 0.0
H166 H 0.57577 0.6221 0.08799 0.0
C167 C 0.65374 0.5893 0.02948 0.0
C168 C 0.57942 0.552 0.0293 0.0
C169 C 0.51584 0.55622 0.05677 0.0
C170 C 0.44509 0.52049 0.05619 0.0
C171 C 0.38277 0.5256 0.08403 0.0
C172 C 0.39008 0.56462 0.11162 0.0
C173 C 0.45965 0.59903 0.11243 0.0
C174 C 0.52222 0.59488 0.08555 0.0
H175 H 0.44408 0.37781 0.03787 0.0
C176 C 0.3781 0.39212 0.03442 0.0
H177 H 0.29895 0.4572 0.02647 0.0
H178 H 0.69005 0.53259 0.97273 0.0
H179 H 0.67606 0.46419 0.92508 0.0
H180 H 0.5524 0.4031 0.92364 0.0
H181 H 0.44222 0.40992 0.96984 0.0
C182 C 0.36497 0.4423 0.02862 0.0
C183 C 0.43874 0.47995 0.02854 0.0
C184 C 0.50221 0.47579 1.00103 0.0
C185 C 0.57296 0.51153 1.00161 0.0
C186 C 0.63523 0.50644 0.97375 0.0
C187 C 0.62785 0.46745 0.94614 0.0
C188 C 0.55828 0.43303 0.94534 0.0
C189 C 0.49578 0.43715 0.97225 0.0
H190 H 0.44412 0.6538 0.51807 0.0
C191 C 0.37888 0.63979 0.52317 0.0
H192 H 0.30192 0.57544 0.5343 0.0
H193 H 0.57173 0.40613 0.47257 0.0
H194 H 0.45477 0.39594 0.42924 0.0
H195 H 0.33071 0.45715 0.43131 0.0
H196 H 0.32308 0.52899 0.47673 0.0
C197 C 0.36734 0.59006 0.53039 0.0
C198 C 0.44172 0.55245 0.53009 0.0
C199 C 0.44453 0.50996 0.50376 0.0
C200 C 0.5155 0.47411 0.5029 0.0
C201 C 0.51817 0.43347 0.47531 0.0
C202 C 0.45176 0.42742 0.45 0.0
C203 C 0.38197 0.4619 0.45115 0.0
C204 C 0.37828 0.5029 0.47749 0.0
H205 H 0.5785 0.37879 0.54069 0.0
C206 C 0.64412 0.39249 0.53597 0.0
H207 H 0.72246 0.45645 0.52526 0.0
H208 H 0.45309 0.62658 0.5863 0.0
H209 H 0.57005 0.63674 0.62964 0.0
H210 H 0.69411 0.57553 0.62756 0.0
H211 H 0.70165 0.50366 0.58218 0.0
C212 C 0.65668 0.44216 0.52883 0.0
C213 C 0.58286 0.48012 0.52888 0.0
C214 C 0.58016 0.52268 0.55516 0.0
C215 C 0.5092 0.55853 0.55602 0.0
C216 C 0.50659 0.5992 0.58358 0.0
C217 C 0.57303 0.60525 0.60888 0.0
C218 C 0.64281 0.57077 0.60774 0.0
C219 C 0.64645 0.52975 0.58142 0.0
H220 H 0.07705 0.15444 0.02334 0.0
C221 C 0.14306 0.14021 0.02683 0.0
H222 H 0.22253 0.07517 0.03451 0.0
H223 H 0.83204 0.99729 0.08705 0.0
H224 H 0.84496 0.065 0.13519 0.0
H225 H 0.96776 0.12674 0.13721 0.0
H226 H 0.07818 0.12123 0.0911 0.0
C227 C 0.15644 0.08995 0.03233 0.0
C228 C 0.08297 0.05204 0.03197 0.0
C229 C 0.01924 0.0555 0.05939 0.0
C230 C 0.94894 0.01942 0.05845 0.0
C231 C 0.88652 0.02374 0.08627 0.0
C232 C 0.89328 0.06234 0.11417 0.0
C233 C 0.96236 0.09712 0.11529 0.0
C234 C 0.02502 0.09375 0.08844 0.0
H235 H 0.9479 0.87666 0.03834 0.0
C236 C 0.88204 0.89119 0.03492 0.0
H237 H 0.80328 0.95672 0.02781 0.0
H238 H 0.19455 0.03382 0.97558 0.0
H239 H 0.1818 0.96609 0.92746 0.0
H240 H 0.05863 0.90463 0.92525 0.0
H241 H 0.94781 0.91034 0.97119 0.0
C242 C 0.86921 0.94167 0.02992 0.0
C243 C 0.94309 0.97935 0.03045 0.0
C244 C 1.0069 0.97588 1.00305 0.0
C245 C 0.07728 1.0119 1.00403 0.0
C246 C 0.13993 1.00747 0.9763 0.0
C247 C 0.13327 0.96886 0.94841 0.0
C248 C 0.06399 0.93422 0.94718 0.0
C249 C 1.00112 0.9377 0.97395 0.0
H250 H 0.94104 0.15277 0.52044 0.0
C251 C 0.87542 0.139 0.52506 0.0
H252 H 0.79718 0.0748 0.53535 0.0
H253 H 0.06767 0.90582 0.47341 0.0
H254 H 0.95128 0.89627 0.42981 0.0
H255 H 0.82701 0.95734 0.43214 0.0
H256 H 0.81869 0.02846 0.47806 0.0
C257 C 0.86293 0.08921 0.53192 0.0
C258 C 0.93689 0.05132 0.5317 0.0
C259 C 0.93995 1.00914 0.50512 0.0
C260 C 0.01104 0.97337 0.5041 0.0
C261 C 0.01406 0.93311 0.47625 0.0
C262 C 0.94794 0.92741 0.45079 0.0
C263 C 0.87805 0.96182 0.45209 0.0
C264 C 0.87397 1.00241 0.47871 0.0
H265 H 0.07674 0.87751 0.54154 0.0
C266 C 0.14179 0.8918 0.53645 0.0
H267 H 0.21817 0.95657 0.5257 0.0
H268 H 0.94761 0.12468 0.5884 0.0
H269 H 0.0644 0.13448 0.63183 0.0
H270 H 0.18863 0.07338 0.6295 0.0
H271 H 0.1966 1.00204 0.5837 0.0
C272 C 0.15289 0.94171 0.52958 0.0
C273 C 0.07829 0.97915 0.53014 0.0
C274 C 0.0752 0.0213 0.55672 0.0
C275 C 1.00412 0.05707 0.55775 0.0
C276 C 1.00124 0.09741 0.58555 0.0
C277 C 0.06756 0.10323 0.61092 0.0
C278 C 0.13744 0.06881 0.60962 0.0
C279 C 0.14133 0.0281 0.58307 0.0
H280 H 0.375 0.26284 0.32596 0.0
C281 C 0.43738 0.2439 0.32999 0.0
H282 H 0.54108 0.2027 0.30324 0.0
H283 H 0.3184 0.14295 0.16421 0.0
H284 H 0.33906 0.05877 0.18769 0.0
H285 H 0.40816 0.05152 0.24647 0.0
H286 H 0.457 0.12836 0.28213 0.0
C287 C 0.48135 0.22476 0.30088 0.0
C288 C 0.44489 0.22913 0.26439 0.0
C289 C 0.41792 0.18371 0.24363 0.0
C290 C 0.3784 0.18783 0.20964 0.0
C291 C 0.34996 0.14198 0.18993 0.0
C292 C 0.36109 0.09342 0.20316 0.0
C293 C 0.39996 0.08934 0.23626 0.0
C294 C 0.42787 0.1338 0.25643 0.0
H295 H 0.43413 0.21643 0.13149 0.0
C296 C 0.36779 0.23125 0.13052 0.0
H297 H 0.25933 0.25944 0.16087 0.0
H298 H 0.50046 0.32333 0.29483 0.0
H299 H 0.47993 0.40732 0.27122 0.0
H300 H 0.40649 0.41466 0.21334 0.0
H301 H 0.35398 0.33793 0.17854 0.0
C302 C 0.32405 0.24225 0.16113 0.0
C303 C 0.36648 0.23733 0.19638 0.0
C304 C 0.39468 0.28266 0.21684 0.0
C305 C 0.43516 0.27853 0.25062 0.0
C306 C 0.46647 0.32429 0.26964 0.0
C307 C 0.45578 0.37277 0.25625 0.0
C308 C 0.41458 0.3769 0.22363 0.0
C309 C 0.38457 0.33252 0.20398 0.0
H310 H 0.57127 0.85013 0.25598 0.0
C311 C 0.52835 0.8218 0.24206 0.0
H312 H 0.43767 0.76178 0.2491 0.0
H313 H 0.52783 0.71983 0.40649 0.0
H314 H 0.60238 0.64735 0.37476 0.0
H315 H 0.62105 0.64394 0.30944 0.0
H316 H 0.5646 0.71288 0.27537 0.0
C317 C 0.47645 0.79315 0.26172 0.0
C318 C 0.47578 0.79943 0.30162 0.0
C319 C 0.51029 0.75934 0.32133 0.0
C320 C 0.50069 0.76174 0.35914 0.0
C321 C 0.53401 0.72038 0.37786 0.0
C322 C 0.57695 0.67847 0.35997 0.0
C323 C 0.58736 0.67651 0.32318 0.0
C324 C 0.55442 0.71628 0.30394 0.0
H325 H 0.30108 0.79902 0.40693 0.0
C326 C 0.35272 0.79895 0.42683 0.0
H327 H 0.48892 0.8006 0.4352 0.0
H328 H 0.4036 0.88384 0.27246 0.0
H329 H 0.33903 0.95935 0.30464 0.0
H330 H 0.33045 0.9658 0.37038 0.0
H331 H 0.38538 0.89627 0.40432 0.0
C332 C 0.43591 0.80311 0.41617 0.0
C333 C 0.45672 0.80438 0.37731 0.0
C334 C 0.42767 0.84623 0.35785 0.0
C335 C 0.43574 0.84337 0.31996 0.0
C336 C 0.40168 0.88453 0.30125 0.0
C337 C 0.36406 0.92808 0.3194 0.0
C338 C 0.359 0.93165 0.3564 0.0
C339 C 0.39024 0.89132 0.37554 0.0
H340 H 0.71825 0.80646 0.90924 0.0
C341 C 0.66609 0.79976 0.92792 0.0
H342 H 0.53081 0.78576 0.9326 0.0
H343 H 0.47357 0.88687 0.78224 0.0
H344 H 0.40432 0.95179 0.82289 0.0
H345 H 0.40907 0.94469 0.88796 0.0
H346 H 0.48368 0.87249 0.91281 0.0
C347 C 0.58474 0.79315 0.91501 0.0
C348 C 0.56911 0.79294 0.8756 0.0
C349 C 0.52334 0.83442 0.86133 0.0
C350 C 0.51936 0.83797 0.82364 0.0
C351 C 0.4767 0.8813 0.81043 0.0
C352 C 0.4371 0.9191 0.83352 0.0
C353 C 0.43989 0.91515 0.87017 0.0
C354 C 0.48288 0.87356 0.88408 0.0
H355 H 0.42809 0.79377 0.7532 0.0
C356 C 0.49044 0.79878 0.74016 0.0
H357 H 0.62575 0.80978 0.74881 0.0
H358 H 0.64685 0.70292 0.89359 0.0
H359 H 0.71162 0.63607 0.85305 0.0
H360 H 0.70901 0.64341 0.788 0.0
H361 H 0.6399 0.71713 0.76304 0.0
C362 C 0.56242 0.80423 0.76074 0.0
C363 C 0.55994 0.79935 0.80017 0.0
C364 C 0.60196 0.75649 0.81446 0.0
C365 C 0.60536 0.75286 0.85207 0.0
C366 C 0.64479 0.70851 0.86537 0.0
C367 C 0.68155 0.66958 0.84236 0.0
C368 C 0.68003 0.6737 0.80574 0.0
C369 C 0.64047 0.71639 0.79179 0.0
H370 H 0.58793 0.22666 0.63403 0.0
C371 C 0.65775 0.23245 0.63139 0.0
H372 H 0.77823 0.24154 0.65847 0.0
H373 H 0.61291 0.32863 0.80456 0.0
H374 H 0.69266 0.40319 0.78663 0.0
H375 H 0.76324 0.4012 0.72762 0.0
H376 H 0.75375 0.32488 0.68612 0.0
C377 C 0.70872 0.23428 0.66066 0.0
C378 C 0.67073 0.23349 0.69712 0.0
C379 C 0.67804 0.27826 0.72136 0.0
C380 C 0.6384 0.27915 0.75562 0.0
C381 C 0.64382 0.32516 0.77865 0.0
C382 C 0.68891 0.36847 0.76859 0.0
C383 C 0.72853 0.36738 0.73536 0.0
C384 C 0.72284 0.32311 0.71183 0.0
H385 H 0.67126 0.23566 0.82856 0.0
C386 C 0.60069 0.23469 0.83153 0.0
H387 H 0.48108 0.23418 0.80286 0.0
H388 H 0.65433 0.13896 0.65918 0.0
H389 H 0.57634 0.06391 0.6775 0.0
H390 H 0.50446 0.06626 0.73626 0.0
H391 H 0.51079 0.14361 0.77719 0.0
C392 C 0.55165 0.23523 0.8018 0.0
C393 C 0.59285 0.23489 0.76587 0.0
C394 C 0.58658 0.1899 0.74185 0.0
C395 C 0.62649 0.18892 0.70763 0.0
C396 C 0.62268 0.14254 0.68493 0.0
C397 C 0.57873 0.09897 0.69525 0.0
C398 C 0.53838 0.10027 0.72835 0.0
C399 C 0.54235 0.14499 0.75155 0.0
H400 H 0.94227 0.72339 0.13127 0.0
C401 C 0.87353 0.73317 0.12927 0.0
H402 H 0.75764 0.75246 0.15762 0.0
H403 H 0.98786 0.64483 0.28269 0.0
H404 H 0.9704 0.56381 0.24616 0.0
H405 H 0.90284 0.56252 0.18645 0.0
H406 H 0.85329 0.64234 0.1627 0.0
C407 C 0.82554 0.74071 0.15918 0.0
C408 C 0.86535 0.74055 0.19542 0.0
C409 C 0.89218 0.6934 0.20923 0.0
C410 C 0.92871 0.69396 0.24417 0.0
C411 C 0.95758 0.64652 0.25678 0.0
C412 C 0.94829 0.59974 0.23602 0.0
C413 C 0.91042 0.59903 0.20236 0.0
C414 C 0.88255 0.64517 0.18899 0.0
H415 H 0.86659 0.70593 0.32359 0.0
C416 C 0.9292 0.72444 0.32949 0.0
H417 H 0.03683 0.76117 0.30661 0.0
H418 H 0.82223 0.83794 0.17688 0.0
H419 H 0.83557 0.91857 0.21406 0.0
H420 H 0.89474 0.91923 0.2752 0.0
H421 H 0.94124 0.83922 0.2995 0.0
C422 C 0.97384 0.74276 0.30231 0.0
C423 C 0.93624 0.74152 0.26559 0.0
C424 C 0.90912 0.78859 0.25179 0.0
C425 C 0.87383 0.78811 0.2167 0.0
C426 C 0.84827 0.83586 0.20353 0.0
C427 C 0.8558 0.88251 0.22455 0.0
C428 C 0.88919 0.88288 0.25895 0.0
C429 C 0.91573 0.83664 0.27254 0.0
H430 H 0.93168 0.30652 0.42753 0.0
C431 C 0.86219 0.29935 0.42995 0.0
H432 H 0.74322 0.2863 0.4023 0.0
H433 H 1.00079 0.38527 0.28138 0.0
H434 H 0.99436 0.46566 0.31929 0.0
H435 H 0.92043 0.46916 0.37767 0.0
H436 H 0.85337 0.39213 0.39869 0.0
C437 C 0.81219 0.29514 0.40042 0.0
C438 C 0.85126 0.29477 0.36414 0.0
C439 C 0.88828 0.34047 0.3519 0.0
C440 C 0.92838 0.33885 0.3177 0.0
C441 C 0.96745 0.38461 0.30667 0.0
C442 C 0.96456 0.43098 0.32824 0.0
C443 C 0.92313 0.43292 0.36116 0.0
C444 C 0.88531 0.38834 0.37298 0.0
H445 H 0.87051 0.33365 0.23795 0.0
C446 C 0.93035 0.31184 0.23223 0.0
H447 H 0.02967 0.26774 0.25539 0.0
H448 H 0.7844 0.20042 0.37901 0.0
H449 H 0.78574 0.12106 0.34011 0.0
H450 H 0.85268 0.11877 0.28037 0.0
H451 H 0.9187 0.19595 0.25919 0.0
C452 C 0.96979 0.2898 0.25933 0.0
C453 C 0.92923 0.29189 0.29541 0.0
C454 C 0.89092 0.24647 0.30741 0.0
C455 C 0.85169 0.24793 0.34174 0.0
C456 C 0.81434 0.20179 0.35307 0.0
C457 C 0.81479 0.15586 0.33102 0.0
C458 C 0.85253 0.15457 0.29741 0.0
C459 C 0.89028 0.19917 0.2856 0.0
H460 H 0.1102 0.24994 0.73872 0.0
C461 C 0.07022 0.28316 0.73288 0.0
H462 H 0.01745 0.35469 0.75467 0.0
H463 H 0.0741 0.21897 0.89664 0.0
H464 H 0.94677 0.17119 0.87457 0.0
H465 H 0.87934 0.18887 0.81705 0.0
H466 H 0.94026 0.25379 0.7809 0.0
C467 C 0.05145 0.31902 0.75968 0.0
C468 C 0.0849 0.31317 0.79638 0.0
C469 C 0.04671 0.2765 0.81779 0.0
C470 C 0.08333 0.26801 0.85171 0.0
C471 C 0.04688 0.22881 0.87146 0.0
C472 C 0.97408 0.20072 0.85896 0.0
C473 C 0.93632 0.21052 0.82651 0.0
C474 C 0.97211 0.24777 0.80599 0.0
H475 H 0.08564 0.31503 0.92993 0.0
C476 C 0.15207 0.30033 0.9308 0.0
H477 H 0.26252 0.27554 0.90057 0.0
H478 H 0.17148 0.38771 0.76252 0.0
H479 H 0.2957 0.43812 0.78536 0.0
H480 H 0.35694 0.4253 0.84483 0.0
H481 H 0.29454 0.36197 0.8818 0.0
C482 C 0.19557 0.28932 0.90012 0.0
C483 C 0.15602 0.29788 0.86476 0.0
C484 C 0.19294 0.33534 0.84359 0.0
C485 C 0.15724 0.34304 0.80941 0.0
C486 C 0.19582 0.38044 0.78873 0.0
C487 C 0.26714 0.40964 0.80152 0.0
C488 C 0.30164 0.4024 0.83499 0.0
C489 C 0.26525 0.36581 0.85591 0.0
H490 H 0.22618 0.72609 0.65022 0.0
C491 C 0.17331 0.73119 0.63143 0.0
H492 H 0.03699 0.74086 0.6259 0.0
H493 H 0.97571 0.63926 0.77446 0.0
H494 H 0.90834 0.57496 0.7327 0.0
H495 H 0.91615 0.58307 0.66779 0.0
H496 H 0.99164 0.65561 0.64423 0.0
C497 C 0.09137 0.7355 0.64385 0.0
C498 C 0.07476 0.73479 0.68295 0.0
C499 C 0.02898 0.69283 0.69632 0.0
C500 C 0.02374 0.68848 0.73383 0.0
C501 C 0.9803 0.64509 0.74634 0.0
C502 C 0.94168 0.60774 0.72263 0.0
C503 C 0.94617 0.61226 0.68608 0.0
C504 C 0.98965 0.65407 0.67291 0.0
H505 H 0.93083 0.73704 0.80333 0.0
C506 C 0.99177 0.72929 0.81687 0.0
H507 H 0.12599 0.71229 0.80927 0.0
H508 H 0.15 0.8262 0.66656 0.0
H509 H 0.21291 0.89219 0.70828 0.0
H510 H 0.21026 0.8826 0.77308 0.0
H511 H 0.14242 0.80762 0.79659 0.0
C512 C 0.06401 0.72085 0.79702 0.0
C513 C 0.0636 0.72652 0.75785 0.0
C514 C 0.10554 0.76986 0.7445 0.0
C515 C 0.10958 0.77456 0.70709 0.0
C516 C 0.14798 0.81964 0.69463 0.0
C517 C 0.1836 0.85811 0.71832 0.0
C518 C 0.18202 0.85274 0.7548 0.0
C519 C 0.14317 0.80937 0.76791 0.0
loop_
_geom_bond_atom_site_label_1
_geom_bond_atom_site_label_2
_geom_bond_distance
_geom_bond_site_symmetry_2
_ccdc_geom_bond_type
Tb0 C2 2.809 . S
Tb0 O20 2.484 . S
Tb0 O21 2.440 . S
Tb0 O22 2.658 1_554 S
Tb0 O23 2.409 . S
Tb0 O24 2.378 . S
Tb0 O28 2.325 . S
Tb0 O31 2.341 1_554 S
Tb1 C11 2.809 . S
Tb1 O22 2.325 . S
Tb1 O25 2.341 1_556 S
Tb1 O26 2.484 . S
Tb1 O27 2.440 . S
Tb1 O28 2.658 1_556 S
Tb1 O29 2.409 . S
Tb1 O30 2.378 . S
C2 Tb0 2.809 . S
C2 C3 1.514 . S
C2 O20 1.248 . S
C2 O21 1.266 . S
C3 C2 1.514 . S
C3 C4 1.359 . S
C3 C8 1.348 . S
C4 C3 1.359 . S
C4 C5 1.380 . S
C4 H32 0.929 . S
C5 C4 1.380 . S
C5 C6 1.347 . S
C5 H33 0.931 . S
C6 C5 1.347 . S
C6 C7 1.369 . S
C7 C6 1.369 . S
C7 C8 1.408 . S
C7 H34 0.930 . S
C8 C3 1.348 . S
C8 C7 1.408 . S
C8 H35 0.930 . S
C9 O22 1.281 1_554 S
C9 O23 1.254 . S
C10 O24 1.236 . S
C10 O25 1.266 . S
C11 Tb1 2.809 . S
C11 C12 1.514 . S
C11 O26 1.248 . S
C11 O27 1.266 . S
C12 C11 1.514 . S
C12 C13 1.359 . S
C12 C17 1.348 . S
C13 C12 1.359 . S
C13 C14 1.380 . S
C13 H36 0.929 . S
C14 C13 1.380 . S
C14 C15 1.347 . S
C14 H37 0.931 . S
C15 C14 1.347 . S
C15 C16 1.369 . S
C16 C15 1.369 . S
C16 C17 1.408 . S
C16 H38 0.930 . S
C17 C12 1.348 . S
C17 C16 1.408 . S
C17 H39 0.930 . S
C18 O28 1.281 . S
C18 O29 1.254 1_554 S
C19 O30 1.236 . S
C19 O31 1.266 . S
O20 Tb0 2.484 . S
O20 C2 1.248 . S
O21 Tb0 2.440 . S
O21 C2 1.266 . S
O22 Tb0 2.658 1_556 S
O22 Tb1 2.325 . S
O22 C9 1.281 1_556 S
O23 Tb0 2.409 . S
O23 C9 1.254 . S
O24 Tb0 2.378 . S
O24 C10 1.236 . S
O25 Tb1 2.341 1_554 S
O25 C10 1.266 . S
O26 Tb1 2.484 . S
O26 C11 1.248 . S
O27 Tb1 2.440 . S
O27 C11 1.266 . S
O28 Tb0 2.325 . S
O28 Tb1 2.658 1_554 S
O28 C18 1.281 . S
O29 Tb1 2.409 . S
O29 C18 1.254 1_556 S
O30 Tb1 2.378 . S
O30 C19 1.236 . S
O31 Tb0 2.341 1_556 S
O31 C19 1.266 . S
H32 C4 0.929 . S
H33 C5 0.931 . S
H34 C7 0.930 . S
H35 C8 0.930 . S
H36 C13 0.929 . S
H37 C14 0.931 . S
H38 C16 0.930 . S
H39 C17 0.930 . S
Tb40 C42 2.809 . S
Tb40 O60 2.484 . S
Tb40 O61 2.440 . S
Tb40 O62 2.658 1_554 S
Tb40 O63 2.409 . S
Tb40 O64 2.378 . S
Tb40 O68 2.325 . S
Tb40 O71 2.341 1_554 S
Tb41 C51 2.809 . S
Tb41 O62 2.325 . S
Tb41 O65 2.341 1_556 S
Tb41 O66 2.484 . S
Tb41 O67 2.440 . S
Tb41 O68 2.658 1_556 S
Tb41 O69 2.409 . S
Tb41 O70 2.378 . S
C42 Tb40 2.809 . S
C42 C43 1.514 . S
C42 O60 1.248 . S
C42 O61 1.266 . S
C43 C42 1.514 . S
C43 C44 1.359 . S
C43 C48 1.348 . S
C44 C43 1.359 . S
C44 C45 1.380 . S
C44 H72 0.929 . S
C45 C44 1.380 . S
C45 C46 1.347 . S
C45 H73 0.931 . S
C46 C45 1.347 . S
C46 C47 1.369 . S
C47 C46 1.369 . S
C47 C48 1.408 . S
C47 H74 0.930 . S
C48 C43 1.348 . S
C48 C47 1.408 . S
C48 H75 0.930 . S
C49 O62 1.281 1_554 S
C49 O63 1.254 . S
C50 O64 1.236 . S
C50 O65 1.266 . S
C51 Tb41 2.809 . S
C51 C52 1.514 . S
C51 O66 1.248 . S
C51 O67 1.266 . S
C52 C51 1.514 . S
C52 C53 1.359 . S
C52 C57 1.348 . S
C53 C52 1.359 . S
C53 C54 1.380 . S
C53 H76 0.929 . S
C54 C53 1.380 . S
C54 C55 1.347 . S
C54 H77 0.931 . S
C55 C54 1.347 . S
C55 C56 1.369 . S
C56 C55 1.369 . S
C56 C57 1.408 . S
C56 H78 0.930 . S
C57 C52 1.348 . S
C57 C56 1.408 . S
C57 H79 0.930 . S
C58 O68 1.281 . S
C58 O69 1.254 1_554 S
C59 O70 1.236 . S
C59 O71 1.266 . S
O60 Tb40 2.484 . S
O60 C42 1.248 . S
O61 Tb40 2.440 . S
O61 C42 1.266 . S
O62 Tb40 2.658 1_556 S
O62 Tb41 2.325 . S
O62 C49 1.281 1_556 S
O63 Tb40 2.409 . S
O63 C49 1.254 . S
O64 Tb40 2.378 . S
O64 C50 1.236 . S
O65 Tb41 2.341 1_554 S
O65 C50 1.266 . S
O66 Tb41 2.484 . S
O66 C51 1.248 . S
O67 Tb41 2.440 . S
O67 C51 1.266 . S
O68 Tb40 2.325 . S
O68 Tb41 2.658 1_554 S
O68 C58 1.281 . S
O69 Tb41 2.409 . S
O69 C58 1.254 1_556 S
O70 Tb41 2.378 . S
O70 C59 1.236 . S
O71 Tb40 2.341 1_556 S
O71 C59 1.266 . S
H72 C44 0.929 . S
H73 C45 0.931 . S
H74 C47 0.930 . S
H75 C48 0.930 . S
H76 C53 0.929 . S
H77 C54 0.931 . S
H78 C56 0.930 . S
H79 C57 0.930 . S
Tb80 C82 2.809 . S
Tb80 O100 2.484 . S
Tb80 O101 2.440 . S
Tb80 O102 2.658 . S
Tb80 O103 2.409 . S
Tb80 O104 2.378 . S
Tb80 O108 2.325 . S
Tb80 O111 2.341 . S
Tb81 C91 2.809 . S
Tb81 O102 2.325 . S
Tb81 O105 2.341 . S
Tb81 O106 2.484 . S
Tb81 O107 2.440 . S
Tb81 O108 2.658 . S
Tb81 O109 2.409 . S
Tb81 O110 2.378 . S
C82 Tb80 2.809 . S
C82 C83 1.514 . S
C82 O100 1.248 . S
C82 O101 1.266 . S
C83 C82 1.514 . S
C83 C84 1.359 . S
C83 C88 1.348 . S
C84 C83 1.359 . S
C84 C85 1.380 . S
C84 H112 0.929 . S
C85 C84 1.380 . S
C85 C86 1.347 . S
C85 H113 0.931 . S
C86 C85 1.347 . S
C86 C87 1.369 . S
C87 C86 1.369 . S
C87 C88 1.408 . S
C87 H114 0.930 . S
C88 C83 1.348 . S
C88 C87 1.408 . S
C88 H115 0.930 . S
C89 O102 1.281 . S
C89 O103 1.254 . S
C90 O104 1.236 . S
C90 O105 1.266 . S
C91 Tb81 2.809 . S
C91 C92 1.514 . S
C91 O106 1.248 . S
C91 O107 1.266 . S
C92 C91 1.514 . S
C92 C93 1.359 . S
C92 C97 1.348 . S
C93 C92 1.359 . S
C93 C94 1.380 . S
C93 H116 0.929 . S
C94 C93 1.380 . S
C94 C95 1.347 . S
C94 H117 0.931 . S
C95 C94 1.347 . S
C95 C96 1.369 . S
C96 C95 1.369 . S
C96 C97 1.408 . S
C96 H118 0.930 . S
C97 C92 1.348 . S
C97 C96 1.408 . S
C97 H119 0.930 . S
C98 O108 1.281 . S
C98 O109 1.254 . S
C99 O110 1.236 . S
C99 O111 1.266 . S
O100 Tb80 2.484 . S
O100 C82 1.248 . S
O101 Tb80 2.440 . S
O101 C82 1.266 . S
O102 Tb80 2.658 . S
O102 Tb81 2.325 . S
O102 C89 1.281 . S
O103 Tb80 2.409 . S
O103 C89 1.254 . S
O104 Tb80 2.378 . S
O104 C90 1.236 . S
O105 Tb81 2.341 . S
O105 C90 1.266 . S
O106 Tb81 2.484 . S
O106 C91 1.248 . S
O107 Tb81 2.440 . S
O107 C91 1.266 . S
O108 Tb80 2.325 . S
O108 Tb81 2.658 . S
O108 C98 1.281 . S
O109 Tb81 2.409 . S
O109 C98 1.254 . S
O110 Tb81 2.378 . S
O110 C99 1.236 . S
O111 Tb80 2.341 . S
O111 C99 1.266 . S
H112 C84 0.929 . S
H113 C85 0.931 . S
H114 C87 0.930 . S
H115 C88 0.930 . S
H116 C93 0.929 . S
H117 C94 0.931 . S
H118 C96 0.930 . S
H119 C97 0.930 . S
Tb120 C122 2.809 . S
Tb120 O140 2.484 . S
Tb120 O141 2.440 . S
Tb120 O142 2.658 . S
Tb120 O143 2.409 . S
Tb120 O144 2.378 . S
Tb120 O148 2.325 . S
Tb120 O151 2.341 . S
Tb121 C131 2.809 . S
Tb121 O142 2.325 . S
Tb121 O145 2.341 . S
Tb121 O146 2.484 . S
Tb121 O147 2.440 . S
Tb121 O148 2.658 . S
Tb121 O149 2.409 . S
Tb121 O150 2.378 . S
C122 Tb120 2.809 . S
C122 C123 1.514 . S
C122 O140 1.248 . S
C122 O141 1.266 . S
C123 C122 1.514 . S
C123 C124 1.359 . S
C123 C128 1.348 . S
C124 C123 1.359 . S
C124 C125 1.380 . S
C124 H152 0.929 . S
C125 C124 1.380 . S
C125 C126 1.347 . S
C125 H153 0.931 . S
C126 C125 1.347 . S
C126 C127 1.369 . S
C127 C126 1.369 . S
C127 C128 1.408 . S
C127 H154 0.930 . S
C128 C123 1.348 . S
C128 C127 1.408 . S
C128 H155 0.930 . S
C129 O142 1.281 . S
C129 O143 1.254 . S
C130 O144 1.236 . S
C130 O145 1.266 . S
C131 Tb121 2.809 . S
C131 C132 1.514 . S
C131 O146 1.248 . S
C131 O147 1.266 . S
C132 C131 1.514 . S
C132 C133 1.359 . S
C132 C137 1.348 . S
C133 C132 1.359 . S
C133 C134 1.380 . S
C133 H156 0.929 . S
C134 C133 1.380 . S
C134 C135 1.347 . S
C134 H157 0.931 . S
C135 C134 1.347 . S
C135 C136 1.369 . S
C136 C135 1.369 . S
C136 C137 1.408 . S
C136 H158 0.930 . S
C137 C132 1.348 . S
C137 C136 1.408 . S
C137 H159 0.930 . S
C138 O148 1.281 . S
C138 O149 1.254 . S
C139 O150 1.236 . S
C139 O151 1.266 . S
O140 Tb120 2.484 . S
O140 C122 1.248 . S
O141 Tb120 2.440 . S
O141 C122 1.266 . S
O142 Tb120 2.658 . S
O142 Tb121 2.325 . S
O142 C129 1.281 . S
O143 Tb120 2.409 . S
O143 C129 1.254 . S
O144 Tb120 2.378 . S
O144 C130 1.236 . S
O145 Tb121 2.341 . S
O145 C130 1.266 . S
O146 Tb121 2.484 . S
O146 C131 1.248 . S
O147 Tb121 2.440 . S
O147 C131 1.266 . S
O148 Tb120 2.325 . S
O148 Tb121 2.658 . S
O148 C138 1.281 . S
O149 Tb121 2.409 . S
O149 C138 1.254 . S
O150 Tb121 2.378 . S
O150 C139 1.236 . S
O151 Tb120 2.341 . S
O151 C139 1.266 . S
H152 C124 0.929 . S
H153 C125 0.931 . S
H154 C127 0.930 . S
H155 C128 0.930 . S
H156 C133 0.929 . S
H157 C134 0.931 . S
H158 C136 0.930 . S
H159 C137 0.930 . S
H160 C161 0.951 1_556 S
C161 H160 0.951 1_554 S
C161 C167 1.265 . S
H162 C167 0.950 . S
H163 C171 0.949 . S
H164 C172 0.950 . S
H165 C173 0.951 . S
H166 C174 0.951 . S
C167 C161 1.265 . S
C167 H162 0.950 . S
C167 C168 1.478 . S
C168 C167 1.478 . S
C168 C169 1.397 . S
C168 C185 1.394 1_554 S
C169 C168 1.397 . S
C169 C170 1.438 . S
C169 C174 1.429 . S
C170 C169 1.438 . S
C170 C171 1.428 . S
C170 C183 1.394 . S
C171 H163 0.949 . S
C171 C170 1.428 . S
C171 C172 1.345 . S
C172 H164 0.950 . S
C172 C171 1.345 . S
C172 C173 1.424 . S
C173 H165 0.951 . S
C173 C172 1.424 . S
C173 C174 1.347 . S
C174 H166 0.951 . S
C174 C169 1.429 . S
C174 C173 1.347 . S
H175 C176 0.951 . S
C176 H175 0.951 . S
C176 C182 1.265 1_554 S
H177 C182 0.950 . S
H178 C186 0.949 . S
H179 C187 0.950 . S
H180 C188 0.951 . S
H181 C189 0.951 . S
C182 C176 1.265 1_556 S
C182 H177 0.950 . S
C182 C183 1.478 1_556 S
C183 C170 1.394 . S
C183 C182 1.478 1_554 S
C183 C184 1.397 1_554 S
C184 C183 1.397 1_556 S
C184 C185 1.438 . S
C184 C189 1.429 . S
C185 C168 1.394 1_556 S
C185 C184 1.438 . S
C185 C186 1.428 . S
C186 H178 0.949 . S
C186 C185 1.428 . S
C186 C187 1.345 . S
C187 H179 0.950 . S
C187 C186 1.345 . S
C187 C188 1.424 . S
C188 H180 0.951 . S
C188 C187 1.424 . S
C188 C189 1.347 . S
C189 H181 0.951 . S
C189 C184 1.429 . S
C189 C188 1.347 . S
H190 C191 0.951 . S
C191 H190 0.951 . S
C191 C197 1.265 . S
H192 C197 0.950 . S
H193 C201 0.949 . S
H194 C202 0.950 . S
H195 C203 0.951 . S
H196 C204 0.951 . S
C197 C191 1.265 . S
C197 H192 0.950 . S
C197 C198 1.478 . S
C198 C197 1.478 . S
C198 C199 1.397 . S
C198 C215 1.394 . S
C199 C198 1.397 . S
C199 C200 1.438 . S
C199 C204 1.429 . S
C200 C199 1.438 . S
C200 C201 1.428 . S
C200 C213 1.394 . S
C201 H193 0.949 . S
C201 C200 1.428 . S
C201 C202 1.345 . S
C202 H194 0.950 . S
C202 C201 1.345 . S
C202 C203 1.424 . S
C203 H195 0.951 . S
C203 C202 1.424 . S
C203 C204 1.347 . S
C204 H196 0.951 . S
C204 C199 1.429 . S
C204 C203 1.347 . S
H205 C206 0.951 . S
C206 H205 0.951 . S
C206 C212 1.265 . S
H207 C212 0.950 . S
H208 C216 0.949 . S
H209 C217 0.950 . S
H210 C218 0.951 . S
H211 C219 0.951 . S
C212 C206 1.265 . S
C212 H207 0.950 . S
C212 C213 1.478 . S
C213 C200 1.394 . S
C213 C212 1.478 . S
C213 C214 1.397 . S
C214 C213 1.397 . S
C214 C215 1.438 . S
C214 C219 1.429 . S
C215 C198 1.394 . S
C215 C214 1.438 . S
C215 C216 1.428 . S
C216 H208 0.949 . S
C216 C215 1.428 . S
C216 C217 1.345 . S
C217 H209 0.950 . S
C217 C216 1.345 . S
C217 C218 1.424 . S
C218 H210 0.951 . S
C218 C217 1.424 . S
C218 C219 1.347 . S
C219 H211 0.951 . S
C219 C214 1.429 . S
C219 C218 1.347 . S
H220 C221 0.951 1_556 S
C221 H220 0.951 1_554 S
C221 C227 1.265 . S
H222 C227 0.950 . S
H223 C231 0.949 . S
H224 C232 0.950 . S
H225 C233 0.951 . S
H226 C234 0.951 . S
C227 C221 1.265 . S
C227 H222 0.950 . S
C227 C228 1.478 . S
C228 C227 1.478 . S
C228 C229 1.397 . S
C228 C245 1.394 1_554 S
C229 C228 1.397 . S
C229 C230 1.438 1_445 S
C229 C234 1.429 . S
C230 C229 1.438 1_665 S
C230 C231 1.428 . S
C230 C243 1.394 . S
C231 H223 0.949 . S
C231 C230 1.428 . S
C231 C232 1.345 . S
C232 H224 0.950 . S
C232 C231 1.345 . S
C232 C233 1.424 1_565 S
C233 H225 0.951 . S
C233 C232 1.424 1_545 S
C233 C234 1.347 1_655 S
C234 H226 0.951 . S
C234 C229 1.429 . S
C234 C233 1.347 1_455 S
H235 C236 0.951 . S
C236 H235 0.951 . S
C236 C242 1.265 1_554 S
H237 C242 0.950 . S
H238 C246 0.949 . S
H239 C247 0.950 . S
H240 C248 0.951 . S
H241 C249 0.951 . S
C242 C236 1.265 1_556 S
C242 H237 0.950 . S
C242 C243 1.478 1_556 S
C243 C230 1.394 . S
C243 C242 1.478 1_554 S
C243 C244 1.397 1_554 S
C244 C243 1.397 1_556 S
C244 C245 1.438 1_665 S
C244 C249 1.429 . S
C245 C228 1.394 1_556 S
C245 C244 1.438 1_445 S
C245 C246 1.428 . S
C246 H238 0.949 . S
C246 C245 1.428 . S
C246 C247 1.345 . S
C247 H239 0.950 . S
C247 C246 1.345 . S
C247 C248 1.424 1_545 S
C248 H240 0.951 . S
C248 C247 1.424 1_565 S
C248 C249 1.347 1_455 S
C249 H241 0.951 . S
C249 C244 1.429 . S
C249 C248 1.347 1_655 S
H250 C251 0.951 . S
C251 H250 0.951 . S
C251 C257 1.265 . S
H252 C257 0.950 . S
H253 C261 0.949 . S
H254 C262 0.950 . S
H255 C263 0.951 . S
H256 C264 0.959 . S
C257 C251 1.265 . S
C257 H252 0.950 . S
C257 C258 1.478 . S
C258 C257 1.478 . S
C258 C259 1.407 . S
C258 C275 1.394 . S
C259 C258 1.407 . S
C259 C260 1.427 1_645 S
C259 C264 1.429 . S
C260 C259 1.427 1_465 S
C260 C261 1.428 . S
C260 C273 1.394 . S
C261 H253 0.949 . S
C261 C260 1.428 . S
C261 C262 1.345 1_455 S
C262 H254 0.950 . S
C262 C261 1.345 1_655 S
C262 C263 1.424 . S
C263 H255 0.951 . S
C263 C262 1.424 . S
C263 C264 1.340 1_565 S
C264 H256 0.959 . S
C264 C259 1.429 . S
C264 C263 1.340 1_545 S
H265 C266 0.951 . S
C266 H265 0.951 . S
C266 C272 1.265 . S
H267 C272 0.950 . S
H268 C276 0.949 . S
H269 C277 0.950 . S
H270 C278 0.951 . S
H271 C279 0.959 . S
C272 C266 1.265 . S
C272 H267 0.950 . S
C272 C273 1.478 . S
C273 C260 1.394 . S
C273 C272 1.478 . S
C273 C274 1.407 . S
C274 C273 1.407 . S
C274 C275 1.427 1_465 S
C274 C279 1.429 . S
C275 C258 1.394 . S
C275 C274 1.427 1_645 S
C275 C276 1.428 . S
C276 H268 0.949 . S
C276 C275 1.428 . S
C276 C277 1.345 1_655 S
C277 H269 0.950 . S
C277 C276 1.345 1_455 S
C277 C278 1.424 . S
C278 H270 0.951 . S
C278 C277 1.424 . S
C278 C279 1.340 1_545 S
C279 H271 0.959 . S
C279 C274 1.429 . S
C279 C278 1.340 1_565 S
H280 C281 0.951 . S
C281 H280 0.951 . S
C281 C287 1.265 . S
H282 C287 0.950 . S
H283 C291 0.949 . S
H284 C292 0.950 . S
H285 C293 0.951 . S
H286 C294 0.951 . S
C287 C281 1.265 . S
C287 H282 0.950 . S
C287 C288 1.478 . S
C288 C287 1.478 . S
C288 C289 1.397 . S
C288 C305 1.394 . S
C289 C288 1.397 . S
C289 C290 1.438 . S
C289 C294 1.429 . S
C290 C289 1.438 . S
C290 C291 1.428 . S
C290 C303 1.394 . S
C291 H283 0.949 . S
C291 C290 1.428 . S
C291 C292 1.345 . S
C292 H284 0.950 . S
C292 C291 1.345 . S
C292 C293 1.424 . S
C293 H285 0.951 . S
C293 C292 1.424 . S
C293 C294 1.347 . S
C294 H286 0.951 . S
C294 C289 1.429 . S
C294 C293 1.347 . S
H295 C296 0.951 . S
C296 H295 0.951 . S
C296 C302 1.265 . S
H297 C302 0.950 . S
H298 C306 0.949 . S
H299 C307 0.950 . S
H300 C308 0.951 . S
H301 C309 0.951 . S
C302 C296 1.265 . S
C302 H297 0.950 . S
C302 C303 1.478 . S
C303 C290 1.394 . S
C303 C302 1.478 . S
C303 C304 1.397 . S
C304 C303 1.397 . S
C304 C305 1.438 . S
C304 C309 1.429 . S
C305 C288 1.394 . S
C305 C304 1.438 . S
C305 C306 1.428 . S
C306 H298 0.949 . S
C306 C305 1.428 . S
C306 C307 1.345 . S
C307 H299 0.950 . S
C307 C306 1.345 . S
C307 C308 1.424 . S
C308 H300 0.951 . S
C308 C307 1.424 . S
C308 C309 1.347 . S
C309 H301 0.951 . S
C309 C304 1.429 . S
C309 C308 1.347 . S
H310 C311 0.951 . S
C311 H310 0.951 . S
C311 C317 1.265 . S
H312 C317 0.950 . S
H313 C321 0.949 . S
H314 C322 0.950 . S
H315 C323 0.951 . S
H316 C324 0.951 . S
C317 C311 1.265 . S
C317 H312 0.950 . S
C317 C318 1.478 . S
C318 C317 1.478 . S
C318 C319 1.397 . S
C318 C335 1.394 . S
C319 C318 1.397 . S
C319 C320 1.438 . S
C319 C324 1.429 . S
C320 C319 1.438 . S
C320 C321 1.428 . S
C320 C333 1.394 . S
C321 H313 0.949 . S
C321 C320 1.428 . S
C321 C322 1.345 . S
C322 H314 0.950 . S
C322 C321 1.345 . S
C322 C323 1.424 . S
C323 H315 0.951 . S
C323 C322 1.424 . S
C323 C324 1.347 . S
C324 H316 0.951 . S
C324 C319 1.429 . S
C324 C323 1.347 . S
H325 C326 0.951 . S
C326 H325 0.951 . S
C326 C332 1.265 . S
H327 C332 0.950 . S
H328 C336 0.949 . S
H329 C337 0.950 . S
H330 C338 0.951 . S
H331 C339 0.951 . S
C332 C326 1.265 . S
C332 H327 0.950 . S
C332 C333 1.478 . S
C333 C320 1.394 . S
C333 C332 1.478 . S
C333 C334 1.397 . S
C334 C333 1.397 . S
C334 C335 1.438 . S
C334 C339 1.429 . S
C335 C318 1.394 . S
C335 C334 1.438 . S
C335 C336 1.428 . S
C336 H328 0.949 . S
C336 C335 1.428 . S
C336 C337 1.345 . S
C337 H329 0.950 . S
C337 C336 1.345 . S
C337 C338 1.424 . S
C338 H330 0.951 . S
C338 C337 1.424 . S
C338 C339 1.347 . S
C339 H331 0.951 . S
C339 C334 1.429 . S
C339 C338 1.347 . S
H340 C341 0.951 . S
C341 H340 0.951 . S
C341 C347 1.265 . S
H342 C347 0.950 . S
H343 C351 0.949 . S
H344 C352 0.950 . S
H345 C353 0.951 . S
H346 C354 0.951 . S
C347 C341 1.265 . S
C347 H342 0.950 . S
C347 C348 1.478 . S
C348 C347 1.478 . S
C348 C349 1.397 . S
C348 C365 1.394 . S
C349 C348 1.397 . S
C349 C350 1.438 . S
C349 C354 1.429 . S
C350 C349 1.438 . S
C350 C351 1.428 . S
C350 C363 1.394 . S
C351 H343 0.949 . S
C351 C350 1.428 . S
C351 C352 1.345 . S
C352 H344 0.950 . S
C352 C351 1.345 . S
C352 C353 1.424 . S
C353 H345 0.951 . S
C353 C352 1.424 . S
C353 C354 1.347 . S
C354 H346 0.951 . S
C354 C349 1.429 . S
C354 C353 1.347 . S
H355 C356 0.951 . S
C356 H355 0.951 . S
C356 C362 1.265 . S
H357 C362 0.950 . S
H358 C366 0.949 . S
H359 C367 0.950 . S
H360 C368 0.951 . S
H361 C369 0.951 . S
C362 C356 1.265 . S
C362 H357 0.950 . S
C362 C363 1.478 . S
C363 C350 1.394 . S
C363 C362 1.478 . S
C363 C364 1.397 . S
C364 C363 1.397 . S
C364 C365 1.438 . S
C364 C369 1.429 . S
C365 C348 1.394 . S
C365 C364 1.438 . S
C365 C366 1.428 . S
C366 H358 0.949 . S
C366 C365 1.428 . S
C366 C367 1.345 . S
C367 H359 0.950 . S
C367 C366 1.345 . S
C367 C368 1.424 . S
C368 H360 0.951 . S
C368 C367 1.424 . S
C368 C369 1.347 . S
C369 H361 0.951 . S
C369 C364 1.429 . S
C369 C368 1.347 . S
H370 C371 0.951 . S
C371 H370 0.951 . S
C371 C377 1.265 . S
H372 C377 0.950 . S
H373 C381 0.949 . S
H374 C382 0.950 . S
H375 C383 0.951 . S
H376 C384 0.951 . S
C377 C371 1.265 . S
C377 H372 0.950 . S
C377 C378 1.478 . S
C378 C377 1.478 . S
C378 C379 1.397 . S
C378 C395 1.394 . S
C379 C378 1.397 . S
C379 C380 1.438 . S
C379 C384 1.429 . S
C380 C379 1.438 . S
C380 C381 1.428 . S
C380 C393 1.394 . S
C381 H373 0.949 . S
C381 C380 1.428 . S
C381 C382 1.345 . S
C382 H374 0.950 . S
C382 C381 1.345 . S
C382 C383 1.424 . S
C383 H375 0.951 . S
C383 C382 1.424 . S
C383 C384 1.347 . S
C384 H376 0.951 . S
C384 C379 1.429 . S
C384 C383 1.347 . S
H385 C386 0.951 . S
C386 H385 0.951 . S
C386 C392 1.265 . S
H387 C392 0.950 . S
H388 C396 0.949 . S
H389 C397 0.950 . S
H390 C398 0.951 . S
H391 C399 0.951 . S
C392 C386 1.265 . S
C392 H387 0.950 . S
C392 C393 1.478 . S
C393 C380 1.394 . S
C393 C392 1.478 . S
C393 C394 1.397 . S
C394 C393 1.397 . S
C394 C395 1.438 . S
C394 C399 1.429 . S
C395 C378 1.394 . S
C395 C394 1.438 . S
C395 C396 1.428 . S
C396 H388 0.949 . S
C396 C395 1.428 . S
C396 C397 1.345 . S
C397 H389 0.950 . S
C397 C396 1.345 . S
C397 C398 1.424 . S
C398 H390 0.951 . S
C398 C397 1.424 . S
C398 C399 1.347 . S
C399 H391 0.951 . S
C399 C394 1.429 . S
C399 C398 1.347 . S
H400 C401 0.951 . S
C401 H400 0.951 . S
C401 C407 1.265 . S
H402 C407 0.950 . S
H403 C411 0.949 . S
H404 C412 0.950 . S
H405 C413 0.951 . S
H406 C414 0.951 . S
C407 C401 1.265 . S
C407 H402 0.950 . S
C407 C408 1.478 . S
C408 C407 1.478 . S
C408 C409 1.397 . S
C408 C425 1.394 . S
C409 C408 1.397 . S
C409 C410 1.438 . S
C409 C414 1.429 . S
C410 C409 1.438 . S
C410 C411 1.428 . S
C410 C423 1.394 . S
C411 H403 0.949 . S
C411 C410 1.428 . S
C411 C412 1.345 . S
C412 H404 0.950 . S
C412 C411 1.345 . S
C412 C413 1.424 . S
C413 H405 0.951 . S
C413 C412 1.424 . S
C413 C414 1.347 . S
C414 H406 0.951 . S
C414 C409 1.429 . S
C414 C413 1.347 . S
H415 C416 0.951 . S
C416 H415 0.951 . S
C416 C422 1.265 1_655 S
H417 C422 0.950 . S
H418 C426 0.949 . S
H419 C427 0.950 . S
H420 C428 0.951 . S
H421 C429 0.951 . S
C422 C416 1.265 1_455 S
C422 H417 0.950 . S
C422 C423 1.478 1_455 S
C423 C410 1.394 . S
C423 C422 1.478 1_655 S
C423 C424 1.397 . S
C424 C423 1.397 . S
C424 C425 1.438 . S
C424 C429 1.429 . S
C425 C408 1.394 . S
C425 C424 1.438 . S
C425 C426 1.428 . S
C426 H418 0.949 . S
C426 C425 1.428 . S
C426 C427 1.345 . S
C427 H419 0.950 . S
C427 C426 1.345 . S
C427 C428 1.424 . S
C428 H420 0.951 . S
C428 C427 1.424 . S
C428 C429 1.347 . S
C429 H421 0.951 . S
C429 C424 1.429 . S
C429 C428 1.347 . S
H430 C431 0.951 . S
C431 H430 0.951 . S
C431 C437 1.265 . S
H432 C437 0.950 . S
H433 C441 0.949 . S
H434 C442 0.950 . S
H435 C443 0.951 . S
H436 C444 0.951 . S
C437 C431 1.265 . S
C437 H432 0.950 . S
C437 C438 1.478 . S
C438 C437 1.478 . S
C438 C439 1.397 . S
C438 C455 1.394 . S
C439 C438 1.397 . S
C439 C440 1.438 . S
C439 C444 1.429 . S
C440 C439 1.438 . S
C440 C441 1.428 . S
C440 C453 1.394 . S
C441 H433 0.949 . S
C441 C440 1.428 . S
C441 C442 1.345 . S
C442 H434 0.950 . S
C442 C441 1.345 . S
C442 C443 1.424 . S
C443 H435 0.951 . S
C443 C442 1.424 . S
C443 C444 1.347 . S
C444 H436 0.951 . S
C444 C439 1.429 . S
C444 C443 1.347 . S
H445 C446 0.951 . S
C446 H445 0.951 . S
C446 C452 1.265 1_655 S
H447 C452 0.950 . S
H448 C456 0.949 . S
H449 C457 0.950 . S
H450 C458 0.951 . S
H451 C459 0.951 . S
C452 C446 1.265 1_455 S
C452 H447 0.950 . S
C452 C453 1.478 1_455 S
C453 C440 1.394 . S
C453 C452 1.478 1_655 S
C453 C454 1.397 . S
C454 C453 1.397 . S
C454 C455 1.438 . S
C454 C459 1.429 1_655 S
C455 C438 1.394 . S
C455 C454 1.438 . S
C455 C456 1.428 . S
C456 H448 0.949 . S
C456 C455 1.428 . S
C456 C457 1.345 . S
C457 H449 0.950 . S
C457 C456 1.345 . S
C457 C458 1.424 1_655 S
C458 H450 0.951 . S
C458 C457 1.424 1_455 S
C458 C459 1.347 . S
C459 H451 0.951 . S
C459 C454 1.429 1_455 S
C459 C458 1.347 . S
H460 C461 0.951 . S
C461 H460 0.951 . S
C461 C467 1.265 1_455 S
H462 C467 0.950 . S
H463 C471 0.949 . S
H464 C472 0.950 . S
H465 C473 0.951 . S
H466 C474 0.951 . S
C467 C461 1.265 1_655 S
C467 H462 0.950 . S
C467 C468 1.478 1_655 S
C468 C467 1.478 1_455 S
C468 C469 1.397 . S
C468 C485 1.394 . S
C469 C468 1.397 . S
C469 C470 1.438 . S
C469 C474 1.429 1_455 S
C470 C469 1.438 . S
C470 C471 1.428 . S
C470 C483 1.394 . S
C471 H463 0.949 . S
C471 C470 1.428 . S
C471 C472 1.345 . S
C472 H464 0.950 . S
C472 C471 1.345 . S
C472 C473 1.424 1_455 S
C473 H465 0.951 . S
C473 C472 1.424 1_655 S
C473 C474 1.347 . S
C474 H466 0.951 . S
C474 C469 1.429 1_655 S
C474 C473 1.347 . S
H475 C476 0.951 . S
C476 H475 0.951 . S
C476 C482 1.265 . S
H477 C482 0.950 . S
H478 C486 0.949 . S
H479 C487 0.950 . S
H480 C488 0.951 . S
H481 C489 0.951 . S
C482 C476 1.265 . S
C482 H477 0.950 . S
C482 C483 1.478 . S
C483 C470 1.394 . S
C483 C482 1.478 . S
C483 C484 1.397 . S
C484 C483 1.397 . S
C484 C485 1.438 . S
C484 C489 1.429 . S
C485 C468 1.394 . S
C485 C484 1.438 . S
C485 C486 1.428 . S
C486 H478 0.949 . S
C486 C485 1.428 . S
C486 C487 1.345 . S
C487 H479 0.950 . S
C487 C486 1.345 . S
C487 C488 1.424 . S
C488 H480 0.951 . S
C488 C487 1.424 . S
C488 C489 1.347 . S
C489 H481 0.951 . S
C489 C484 1.429 . S
C489 C488 1.347 . S
H490 C491 0.951 . S
C491 H490 0.951 . S
C491 C497 1.265 . S
H492 C497 0.950 . S
H493 C501 0.949 . S
H494 C502 0.950 . S
H495 C503 0.951 . S
H496 C504 0.951 . S
C497 C491 1.265 . S
C497 H492 0.950 . S
C497 C498 1.478 . S
C498 C497 1.478 . S
C498 C499 1.397 . S
C498 C515 1.394 . S
C499 C498 1.397 . S
C499 C500 1.438 . S
C499 C504 1.429 . S
C500 C499 1.438 . S
C500 C501 1.428 . S
C500 C513 1.394 . S
C501 H493 0.949 . S
C501 C500 1.428 . S
C501 C502 1.345 . S
C502 H494 0.950 . S
C502 C501 1.345 . S
C502 C503 1.424 . S
C503 H495 0.951 . S
C503 C502 1.424 . S
C503 C504 1.347 . S
C504 H496 0.951 . S
C504 C499 1.429 . S
C504 C503 1.347 . S
H505 C506 0.951 1_655 S
C506 H505 0.951 1_455 S
C506 C512 1.265 . S
H507 C512 0.950 . S
H508 C516 0.949 . S
H509 C517 0.950 . S
H510 C518 0.951 . S
H511 C519 0.951 . S
C512 C506 1.265 . S
C512 H507 0.950 . S
C512 C513 1.478 . S
C513 C500 1.394 . S
C513 C512 1.478 . S
C513 C514 1.397 . S
C514 C513 1.397 . S
C514 C515 1.438 . S
C514 C519 1.429 . S
C515 C498 1.394 . S
C515 C514 1.438 . S
C515 C516 1.428 . S
C516 H508 0.949 . S
C516 C515 1.428 . S
C516 C517 1.345 . S
C517 H509 0.950 . S
C517 C516 1.345 . S
C517 C518 1.424 . S
C518 H510 0.951 . S
C518 C517 1.424 . S
C518 C519 1.347 . S
C519 H511 0.951 . S
C519 C514 1.429 . S
C519 C518 1.347 . S
C161 C58 1.499 . S
C176 C9 1.499 . S
C191 C89 1.518 . S
C206 C138 1.518 . S
C221 C18 1.505 . S
C236 C49 1.505 . S
C251 C129 1.519 . S
C266 C98 1.519 . S
C281 C126 1.282 . S
C296 C10 1.280 . S
C311 C46 1.271 . S
C326 C90 1.262 . S
C341 C59 1.272 . S
C356 C95 1.260 . S
C371 C139 1.278 . S
C386 C15 1.284 . S
C401 C50 1.269 . S
C416 C86 1.291 1_655 S
C431 C130 1.274 . S
C446 C6 1.287 1_655 S
C461 C135 1.285 1_455 S
C476 C19 1.276 . S
C491 C99 1.267 . S
C506 C55 1.265 1_455 S
