# Generated by pormake.
# Topology ict, (4)-cn, num edge types: 1
# Building blocks:
#     Node 0, Type 0, BuildingBlock: QUQFOY_clean_sbu_3, # of connection points: 4
#     Node 1, Type 0, BuildingBlock: QUQFOY_clean_sbu_3, # of connection points: 4
#     Node 2, Type 0, BuildingBlock: QUQFOY_clean_sbu_3, # of connection points: 4
#     Node 3, Type 0, BuildingBlock: QUQFOY_clean_sbu_3, # of connection points: 4
#     Node 4, Type 0, BuildingBlock: QUQFOY_clean_sbu_3, # of connection points: 4
#     Node 5, Type 0, BuildingBlock: QUQFOY_clean_sbu_3, # of connection points: 4
#     Node 6, Type 0, BuildingBlock: QUQFOY_clean_sbu_3, # of connection points: 4
#     Node 7, Type 0, BuildingBlock: QUQFOY_clean_sbu_3, # of connection points: 4
#     Node 8, Type 0, BuildingBlock: QUQFOY_clean_sbu_3, # of connection points: 4
#     Node 9, Type 0, BuildingBlock: QUQFOY_clean_sbu_3, # of connection points: 4
#     Node 10, Type 0, BuildingBlock: QUQFOY_clean_sbu_3, # of connection points: 4
#     Node 11, Type 0, BuildingBlock: QUQFOY_clean_sbu_3, # of connection points: 4
#     Node 12, Type 0, BuildingBlock: QUQFOY_clean_sbu_3, # of connection points: 4
#     Node 13, Type 0, BuildingBlock: QUQFOY_clean_sbu_3, # of connection points: 4
#     Node 14, Type 0, BuildingBlock: QUQFOY_clean_sbu_3, # of connection points: 4
#     Node 15, Type 0, BuildingBlock: QUQFOY_clean_sbu_3, # of connection points: 4
#     Node 16, Type 0, BuildingBlock: QUQFOY_clean_sbu_3, # of connection points: 4
#     Node 17, Type 0, BuildingBlock: QUQFOY_clean_sbu_3, # of connection points: 4
#     Node 18, Type 0, BuildingBlock: QUQFOY_clean_sbu_3, # of connection points: 4
#     Node 19, Type 0, BuildingBlock: QUQFOY_clean_sbu_3, # of connection points: 4
#     Node 20, Type 0, BuildingBlock: QUQFOY_clean_sbu_3, # of connection points: 4
#     Node 21, Type 0, BuildingBlock: QUQFOY_clean_sbu_3, # of connection points: 4
#     Node 22, Type 0, BuildingBlock: QUQFOY_clean_sbu_3, # of connection points: 4
#     Node 23, Type 0, BuildingBlock: QUQFOY_clean_sbu_3, # of connection points: 4
#     Node 24, Type 0, BuildingBlock: QUQFOY_clean_sbu_3, # of connection points: 4
#     Node 25, Type 0, BuildingBlock: QUQFOY_clean_sbu_3, # of connection points: 4
#     Node 26, Type 0, BuildingBlock: QUQFOY_clean_sbu_3, # of connection points: 4
#     Node 27, Type 0, BuildingBlock: QUQFOY_clean_sbu_3, # of connection points: 4
#     Node 28, Type 0, BuildingBlock: QUQFOY_clean_sbu_3, # of connection points: 4
#     Node 29, Type 0, BuildingBlock: QUQFOY_clean_sbu_3, # of connection points: 4
#     Node 30, Type 0, BuildingBlock: QUQFOY_clean_sbu_3, # of connection points: 4
#     Node 31, Type 0, BuildingBlock: QUQFOY_clean_sbu_3, # of connection points: 4
#     Node 32, Type 0, BuildingBlock: QUQFOY_clean_sbu_3, # of connection points: 4
#     Node 33, Type 0, BuildingBlock: QUQFOY_clean_sbu_3, # of connection points: 4
#     Node 34, Type 0, BuildingBlock: QUQFOY_clean_sbu_3, # of connection points: 4
#     Node 35, Type 0, BuildingBlock: QUQFOY_clean_sbu_3, # of connection points: 4
#     Edge 36, Type (0, 0), None
#     Edge 37, Type (0, 0), None
#     Edge 38, Type (0, 0), None
#     Edge 39, Type (0, 0), None
#     Edge 40, Type (0, 0), None
#     Edge 41, Type (0, 0), None
#     Edge 42, Type (0, 0), None
#     Edge 43, Type (0, 0), None
#     Edge 44, Type (0, 0), None
#     Edge 45, Type (0, 0), None
#     Edge 46, Type (0, 0), None
#     Edge 47, Type (0, 0), None
#     Edge 48, Type (0, 0), None
#     Edge 49, Type (0, 0), None
#     Edge 50, Type (0, 0), None
#     Edge 51, Type (0, 0), None
#     Edge 52, Type (0, 0), None
#     Edge 53, Type (0, 0), None
#     Edge 54, Type (0, 0), None
#     Edge 55, Type (0, 0), None
#     Edge 56, Type (0, 0), None
#     Edge 57, Type (0, 0), None
#     Edge 58, Type (0, 0), None
#     Edge 59, Type (0, 0), None
#     Edge 60, Type (0, 0), None
#     Edge 61, Type (0, 0), None
#     Edge 62, Type (0, 0), None
#     Edge 63, Type (0, 0), None
#     Edge 64, Type (0, 0), None
#     Edge 65, Type (0, 0), None
#     Edge 66, Type (0, 0), None
#     Edge 67, Type (0, 0), None
#     Edge 68, Type (0, 0), None
#     Edge 69, Type (0, 0), None
#     Edge 70, Type (0, 0), None
#     Edge 71, Type (0, 0), None
#     Edge 72, Type (0, 0), None
#     Edge 73, Type (0, 0), None
#     Edge 74, Type (0, 0), None
#     Edge 75, Type (0, 0), None
#     Edge 76, Type (0, 0), None
#     Edge 77, Type (0, 0), None
#     Edge 78, Type (0, 0), None
#     Edge 79, Type (0, 0), None
#     Edge 80, Type (0, 0), None
#     Edge 81, Type (0, 0), None
#     Edge 82, Type (0, 0), None
#     Edge 83, Type (0, 0), None
#     Edge 84, Type (0, 0), None
#     Edge 85, Type (0, 0), None
#     Edge 86, Type (0, 0), None
#     Edge 87, Type (0, 0), None
#     Edge 88, Type (0, 0), None
#     Edge 89, Type (0, 0), None
#     Edge 90, Type (0, 0), None
#     Edge 91, Type (0, 0), None
#     Edge 92, Type (0, 0), None
#     Edge 93, Type (0, 0), None
#     Edge 94, Type (0, 0), None
#     Edge 95, Type (0, 0), None
#     Edge 96, Type (0, 0), None
#     Edge 97, Type (0, 0), None
#     Edge 98, Type (0, 0), None
#     Edge 99, Type (0, 0), None
#     Edge 100, Type (0, 0), None
#     Edge 101, Type (0, 0), None
#     Edge 102, Type (0, 0), None
#     Edge 103, Type (0, 0), None
#     Edge 104, Type (0, 0), None
#     Edge 105, Type (0, 0), None
#     Edge 106, Type (0, 0), None
#     Edge 107, Type (0, 0), None
# Relax obj value: 0.106
# Max RMSD: 0.130
# Mean RMSD: 0.130
data_MOF--net-ict--node1-QUQFOY_clean_sbu_3--edge1-none
_symmetry_space_group_name_H-M    P1
_symmetry_Int_Tables_number       1
_symmetry_cell_setting            triclinic
loop_
_symmetry_equiv_pos_as_xyz
'x, y, z'
_cell_length_a     31.919639
_cell_length_b     31.920396
_cell_length_c     17.78548
_cell_angle_alpha  90.001064
_cell_angle_beta   89.998895
_cell_angle_gamma 120.00535
loop_
_atom_site_label
_atom_site_type_symbol
_atom_site_fract_x
_atom_site_fract_y
_atom_site_fract_z
_atom_type_partial_charge
C0 C 0.07828 0.19386 0.0014 0.0
O1 O 0.06251 0.14937 0.0144 0.0
Cd2 Cd 0.10365 0.10721 0.03533 0.0
O3 O 0.12363 0.22419 -0.00394 0.0
Cd4 Cd 0.19979 0.21769 0.00727 0.0
C5 C 0.16996 0.18126 0.18609 0.0
O6 O 0.16519 0.14198 0.94677 0.0
O7 O 0.23062 0.15813 0.00374 0.0
O8 O 0.2329 0.26535 0.89324 0.0
C9 C 0.19581 0.12939 0.96216 0.0
O10 O 0.13796 0.14233 0.15523 0.0
C11 C 0.27531 0.29079 0.91934 0.0
O12 O 0.19895 0.21802 0.14706 0.0
O13 O 0.28119 0.28605 -0.01118 0.0
C14 C 0.74406 0.87199 0.00138 0.0
O15 O 0.78856 0.90072 0.01435 0.0
Cd16 Cd 0.83071 -0.01598 0.03525 0.0
O17 O 0.71372 0.887 -0.00396 0.0
Cd18 Cd 0.72023 0.96966 0.00723 0.0
C19 C 0.75668 -0.02372 0.18604 0.0
O20 O 0.79593 0.01077 0.94669 0.0
O21 O 0.77982 0.06006 0.00369 0.0
O22 O 0.67255 0.95511 0.89323 0.0
C23 C 0.80854 0.05399 0.96209 0.0
O24 O 0.79561 -0.01678 0.15516 0.0
C25 C 0.64712 0.97209 0.91934 0.0
O26 O 0.71991 0.9685 0.14702 0.0
O27 O 0.65188 -0.01729 -0.01118 0.0
C28 C 0.066 0.85967 0.00146 0.0
O29 O 0.03728 0.87545 0.01446 0.0
Cd30 Cd 0.95398 0.83432 0.03536 0.0
O31 O 0.05097 0.81433 -0.0039 0.0
Cd32 Cd -0.03171 0.73818 0.00728 0.0
C33 C 0.96169 0.768 0.18611 0.0
O34 O 0.92721 0.7728 0.94677 0.0
O35 O 0.87789 0.70737 0.00373 0.0
O36 O -0.01717 0.70506 0.89326 0.0
C37 C 0.88398 0.74218 0.96215 0.0
O38 O 0.95476 0.8 0.15526 0.0
C39 C -0.03414 0.66265 0.91936 0.0
O40 O -0.03055 0.739 0.14707 0.0
O41 O 0.95523 0.65677 -0.01116 0.0
C42 C 0.18147 0.0907 0.4531 0.0
O43 O 0.13698 0.07493 0.44011 0.0
Cd44 Cd 0.09482 0.11607 0.41919 0.0
O45 O 0.2118 0.13604 0.45843 0.0
Cd46 Cd 0.2053 0.2122 0.44723 0.0
C47 C 0.16885 0.18237 0.26842 0.0
O48 O 0.12959 0.1776 0.50775 0.0
O49 O 0.14573 0.24303 0.45077 0.0
O50 O 0.25297 0.24532 0.56125 0.0
C51 C 0.117 0.20822 0.49236 0.0
O52 O 0.12992 0.15038 0.29928 0.0
C53 C 0.27841 0.28773 0.53515 0.0
O54 O 0.20562 0.21136 0.30744 0.0
O55 O 0.27366 0.2936 0.46567 0.0
C56 C 0.84727 0.07838 0.45302 0.0
O57 O 0.86305 0.04966 0.44001 0.0
Cd58 Cd 0.82191 0.96636 0.41911 0.0
O59 O 0.80193 0.06335 0.45838 0.0
Cd60 Cd 0.72577 -0.01932 0.4472 0.0
C61 C 0.75558 0.97406 0.26836 0.0
O62 O 0.7604 0.93959 0.5077 0.0
O63 O 0.69496 0.89027 0.45076 0.0
O64 O 0.69266 -0.00478 0.56123 0.0
C65 C 0.72977 0.89636 0.49233 0.0
O66 O 0.78759 0.96713 0.29922 0.0
C67 C 0.65026 -0.02175 0.53513 0.0
O68 O 0.72659 -0.01817 0.30741 0.0
O69 O 0.64437 0.96762 0.46565 0.0
C70 C 0.85959 0.75646 0.45308 0.0
O71 O 0.88832 0.80095 0.4401 0.0
Cd72 Cd -0.02838 0.84312 0.41922 0.0
O73 O 0.8746 0.72613 0.45843 0.0
Cd74 Cd 0.95727 0.73264 0.44725 0.0
C75 C -0.03609 0.7691 0.26844 0.0
O76 O -0.00164 0.80835 0.50779 0.0
O77 O 0.04767 0.79224 0.45081 0.0
O78 O 0.94272 0.68497 0.56125 0.0
C79 C 0.04159 0.82096 0.49241 0.0
O80 O -0.02916 0.80803 0.29931 0.0
C81 C 0.95969 0.65954 0.53514 0.0
O82 O 0.95612 0.73233 0.30746 0.0
O83 O -0.02967 0.6643 0.46566 0.0
C84 C 0.84728 0.75648 0.95306 0.0
O85 O 0.86306 0.80098 0.94007 0.0
Cd86 Cd 0.82195 0.84317 0.91915 0.0
O87 O 0.80193 0.72616 0.95841 0.0
Cd88 Cd 0.72577 0.73268 0.94722 0.0
C89 C 0.75562 0.76911 0.7684 0.0
O90 O 0.76041 0.8084 0.00769 0.0
O91 O 0.69493 0.79223 0.95078 0.0
O92 O 0.69266 0.68502 0.06125 0.0
C93 C 0.72978 0.82099 -0.00772 0.0
O94 O 0.78762 0.80804 0.79926 0.0
C95 C 0.65025 0.65958 0.03515 0.0
O96 O 0.72662 0.73236 0.80743 0.0
O97 O 0.64437 0.66431 0.96567 0.0
C98 C 0.18152 0.07838 0.95309 0.0
O99 O 0.13702 0.04966 0.94012 0.0
Cd100 Cd 0.09483 0.96635 0.91922 0.0
O101 O 0.21184 0.06336 0.95844 0.0
Cd102 Cd 0.20532 -0.01931 0.94726 0.0
C103 C 0.16886 0.97408 0.76845 0.0
O104 O 0.12961 0.9396 0.00776 0.0
O105 O 0.14574 0.89028 0.95083 0.0
O106 O 0.253 -0.00477 0.06127 0.0
C107 C 0.117 0.89638 -0.00765 0.0
O108 O 0.12994 0.96715 0.79932 0.0
C109 C 0.27843 -0.02174 0.03515 0.0
O110 O 0.20563 -0.01816 0.80747 0.0
O111 O 0.27367 0.96764 0.96567 0.0
C112 C 0.85955 0.09069 0.95301 0.0
O113 O 0.88826 0.0749 0.94001 0.0
Cd114 Cd -0.02844 0.116 0.91911 0.0
O115 O 0.87459 0.13604 0.95838 0.0
Cd116 Cd 0.95728 0.21218 0.94721 0.0
C117 C -0.03613 0.18235 0.76838 0.0
O118 O -0.00165 0.17752 0.00768 0.0
O119 O 0.04768 0.243 0.9508 0.0
O120 O 0.94274 0.2453 0.06123 0.0
C121 C 0.04157 0.20814 -0.00772 0.0
O122 O -0.02921 0.15034 0.79923 0.0
C123 C 0.95971 0.2877 0.03513 0.0
O124 O 0.95612 0.21135 0.80742 0.0
O125 O -0.02966 0.29358 0.96565 0.0
C126 C 0.74408 0.85966 0.50141 0.0
O127 O 0.78857 0.87544 0.5144 0.0
Cd128 Cd 0.83076 0.83434 0.53531 0.0
O129 O 0.71375 0.81431 0.49607 0.0
Cd130 Cd 0.72027 0.73816 0.50725 0.0
C131 C 0.75672 0.768 0.68607 0.0
O132 O 0.79599 0.77279 0.44677 0.0
O133 O 0.77983 0.70732 0.50369 0.0
O134 O 0.67261 0.70504 0.39323 0.0
C135 C 0.80859 0.74217 0.46218 0.0
O136 O 0.79565 0.80001 0.65521 0.0
C137 C 0.64717 0.66263 0.41934 0.0
O138 O 0.71996 0.739 0.64705 0.0
O139 O 0.65191 0.65676 0.48882 0.0
C140 C 0.07829 0.87197 0.50149 0.0
O141 O 0.0625 0.90067 0.5145 0.0
Cd142 Cd 0.1036 -0.01602 0.5354 0.0
O143 O 0.12364 0.88701 0.49612 0.0
Cd144 Cd 0.19978 0.96969 0.50729 0.0
C145 C 0.16996 -0.0237 0.68612 0.0
O146 O 0.16513 0.01076 0.44683 0.0
O147 O 0.23061 0.0601 0.50369 0.0
O148 O 0.2329 0.95515 0.39326 0.0
C149 C 0.19575 0.05398 0.46221 0.0
O150 O 0.13795 -0.01679 0.65527 0.0
C151 C 0.2753 0.97212 0.41935 0.0
O152 O 0.19896 0.96854 0.64708 0.0
O153 O 0.28118 -0.01725 0.48883 0.0
C154 C 0.06599 0.19392 0.50143 0.0
O155 O 0.03727 0.14942 0.51441 0.0
Cd156 Cd 0.95396 0.10722 0.53529 0.0
O157 O 0.05096 0.22424 0.49607 0.0
Cd158 Cd -0.03172 0.2177 0.50724 0.0
C159 C 0.96166 0.18124 0.68605 0.0
O160 O 0.92721 0.14199 0.44673 0.0
O161 O 0.87788 0.15812 0.50365 0.0
O162 O -0.01717 0.26537 0.39323 0.0
C163 C 0.88398 0.12938 0.46214 0.0
O164 O 0.95474 0.14232 0.65518 0.0
C165 C -0.03415 0.2908 0.41934 0.0
O166 O -0.03057 0.21801 0.64703 0.0
O167 O 0.95523 0.28605 0.48882 0.0
C168 C 0.74496 0.52722 0.33475 0.0
O169 O 0.72919 0.48272 0.34774 0.0
Cd170 Cd 0.77032 0.44056 0.36866 0.0
O171 O 0.79031 0.55755 0.3294 0.0
Cd172 Cd 0.86646 0.55104 0.3406 0.0
C173 C 0.83664 0.5146 0.51942 0.0
O174 O 0.83185 0.47532 0.28008 0.0
O175 O 0.89728 0.49146 0.33706 0.0
O176 O 0.89958 0.59869 0.22657 0.0
C177 C 0.86247 0.46272 0.29547 0.0
O178 O 0.80464 0.47567 0.48856 0.0
C179 C 0.94199 0.62413 0.25267 0.0
O180 O 0.86563 0.55136 0.48039 0.0
O181 O 0.94787 0.61939 0.32215 0.0
C182 C 0.41073 0.20532 0.33473 0.0
O183 O 0.45523 0.23404 0.34773 0.0
Cd184 Cd 0.49739 0.31735 0.36863 0.0
O185 O 0.3804 0.22033 0.32939 0.0
Cd186 Cd 0.38691 0.30299 0.34058 0.0
C187 C 0.42335 0.30961 0.5194 0.0
O188 O 0.46262 0.3441 0.28006 0.0
O189 O 0.4465 0.3934 0.33703 0.0
O190 O 0.33924 0.28845 0.22656 0.0
C191 C 0.47523 0.38732 0.29544 0.0
O192 O 0.46228 0.31655 0.48853 0.0
C193 C 0.31381 0.30541 0.25267 0.0
O194 O 0.38659 0.30184 0.48037 0.0
O195 O 0.31856 0.31604 0.32215 0.0
C196 C 0.73263 0.193 0.33476 0.0
O197 O 0.7039 0.20876 0.34775 0.0
Cd198 Cd 0.6206 0.16762 0.36865 0.0
O199 O 0.71761 0.14765 0.32941 0.0
Cd200 Cd 0.63494 0.07149 0.3406 0.0
C201 C 0.62833 0.10132 0.51943 0.0
O202 O 0.59384 0.1061 0.28008 0.0
O203 O 0.54453 0.04067 0.33705 0.0
O204 O 0.64949 0.03837 0.2266 0.0
C205 C 0.55061 0.07548 0.29546 0.0
O206 O 0.62139 0.13332 0.48856 0.0
C207 C 0.63252 -0.00403 0.2527 0.0
O208 O 0.63609 0.07233 0.48039 0.0
O209 O 0.62188 -0.00991 0.32218 0.0
C210 C 0.84816 0.42404 0.78641 0.0
O211 O 0.80366 0.40827 0.77342 0.0
Cd212 Cd 0.76149 0.44939 0.75251 0.0
O213 O 0.87849 0.46939 0.79176 0.0
Cd214 Cd 0.87197 0.54554 0.78057 0.0
C215 C 0.83553 0.51571 0.60174 0.0
O216 O 0.79626 0.51092 0.84108 0.0
O217 O 0.81239 0.57635 0.78411 0.0
O218 O 0.91963 0.57865 0.89459 0.0
C219 C 0.78366 0.54154 0.82569 0.0
O220 O 0.79659 0.48371 0.63261 0.0
C221 C 0.94505 0.62106 0.86848 0.0
O222 O 0.87229 0.5447 0.64078 0.0
O223 O 0.94032 0.62695 0.799 0.0
C224 C 0.51393 0.41171 0.78638 0.0
O225 O 0.5297 0.38299 0.77339 0.0
Cd226 Cd 0.48856 0.29968 0.75249 0.0
O227 O 0.46858 0.39669 0.79173 0.0
Cd228 Cd 0.39242 0.31402 0.78055 0.0
C229 C 0.42224 0.30739 0.60172 0.0
O230 O 0.42703 0.27292 0.84107 0.0
O231 O 0.3616 0.22362 0.7841 0.0
O232 O 0.35931 0.32857 0.89457 0.0
C233 C 0.39641 0.2297 0.82568 0.0
O234 O 0.45424 0.30047 0.63259 0.0
C235 C 0.31691 0.31158 0.86846 0.0
O236 O 0.39325 0.31517 0.64076 0.0
O237 O 0.31101 0.30095 0.79898 0.0
C238 C 0.52625 0.08982 0.7864 0.0
O239 O 0.55498 0.13431 0.77341 0.0
Cd240 Cd 0.63828 0.17648 0.75251 0.0
O241 O 0.54126 0.05949 0.79176 0.0
Cd242 Cd 0.62393 0.06599 0.78057 0.0
C243 C 0.63055 0.10244 0.60175 0.0
O244 O 0.66503 0.14171 0.84109 0.0
O245 O 0.71433 0.12558 0.78413 0.0
O246 O 0.60937 0.01833 0.89459 0.0
C247 C 0.70826 0.15431 0.82571 0.0
O248 O 0.63749 0.14137 0.63261 0.0
C249 C 0.62634 -0.00709 0.86847 0.0
O250 O 0.62277 0.06567 0.64078 0.0
O251 O 0.63697 -0.00236 0.79899 0.0
C252 C 0.51391 0.08978 0.28638 0.0
O253 O 0.5297 0.13428 0.27339 0.0
Cd254 Cd 0.48861 0.17648 0.25249 0.0
O255 O 0.46856 0.05946 0.29173 0.0
Cd256 Cd 0.39242 0.066 0.28055 0.0
C257 C 0.42227 0.10244 0.10173 0.0
O258 O 0.42706 0.14172 0.34103 0.0
O259 O 0.36159 0.12557 0.28413 0.0
O260 O 0.3593 0.01835 0.39458 0.0
C261 C 0.39644 0.15432 0.32562 0.0
O262 O 0.45427 0.14137 0.1326 0.0
C263 C 0.3169 -0.00708 0.36847 0.0
O264 O 0.39326 0.06568 0.14076 0.0
O265 O 0.31101 -0.00235 0.29899 0.0
C266 C 0.84816 0.41172 0.2864 0.0
O267 O 0.80367 0.383 0.27341 0.0
Cd268 Cd 0.76147 0.2997 0.2525 0.0
O269 O 0.87848 0.39669 0.29175 0.0
Cd270 Cd 0.87196 0.31402 0.28058 0.0
C271 C 0.83551 0.30742 0.10175 0.0
O272 O 0.79623 0.27293 0.34105 0.0
O273 O 0.81238 0.22361 0.28415 0.0
O274 O 0.91961 0.32856 0.3946 0.0
C275 C 0.78363 0.22971 0.32565 0.0
O276 O 0.79659 0.30049 0.13262 0.0
C277 C 0.94504 0.31159 0.36848 0.0
O278 O 0.87227 0.31518 0.14078 0.0
O279 O 0.94031 0.30097 0.29899 0.0
C280 C 0.52623 0.42402 0.28637 0.0
O281 O 0.55495 0.40824 0.27337 0.0
Cd282 Cd 0.63825 0.44935 0.25247 0.0
O283 O 0.54127 0.46937 0.29172 0.0
Cd284 Cd 0.62395 0.54552 0.28055 0.0
C285 C 0.63055 0.51568 0.10172 0.0
O286 O 0.66503 0.51088 0.34103 0.0
O287 O 0.71436 0.57636 0.28414 0.0
O288 O 0.6094 0.57863 0.39458 0.0
C289 C 0.70825 0.5415 0.32563 0.0
O290 O 0.63747 0.48368 0.13258 0.0
C291 C 0.62638 0.62103 0.36846 0.0
O292 O 0.62279 0.54468 0.14076 0.0
O293 O 0.63701 0.62692 0.29898 0.0
C294 C 0.41071 0.193 0.83476 0.0
O295 O 0.45521 0.20879 0.84776 0.0
Cd296 Cd 0.49741 0.16769 0.86866 0.0
O297 O 0.3804 0.14765 0.8294 0.0
Cd298 Cd 0.38693 0.07151 0.84058 0.0
C299 C 0.42337 0.10134 0.01941 0.0
O300 O 0.46265 0.10615 0.78011 0.0
O301 O 0.4465 0.04068 0.83701 0.0
O302 O 0.33928 0.03838 0.72655 0.0
C303 C 0.47525 0.07553 0.79551 0.0
O304 O 0.4623 0.13335 -0.01146 0.0
C305 C 0.31384 -0.00402 0.75265 0.0
O306 O 0.38661 0.07234 -0.01963 0.0
O307 O 0.31857 -0.0099 0.82214 0.0
C308 C 0.74496 0.20532 0.83479 0.0
O309 O 0.72918 0.23403 0.84778 0.0
Cd310 Cd 0.77029 0.31733 0.86868 0.0
O311 O 0.79031 0.22035 0.82943 0.0
Cd312 Cd 0.86646 0.30303 0.8406 0.0
C313 C 0.83663 0.30964 0.01943 0.0
O314 O 0.83182 0.34411 0.78012 0.0
O315 O 0.8973 0.39344 0.83702 0.0
O316 O 0.89958 0.28848 0.72659 0.0
C317 C 0.86244 0.38733 0.79552 0.0
O318 O 0.80462 0.31656 -0.01144 0.0
C319 C 0.94198 0.30545 0.75269 0.0
O320 O 0.86562 0.30188 -0.01961 0.0
O321 O 0.94786 0.31608 0.82217 0.0
C322 C 0.73265 0.52724 0.83476 0.0
O323 O 0.70393 0.48274 0.84775 0.0
Cd324 Cd 0.62062 0.44054 0.86864 0.0
O325 O 0.71762 0.55756 0.82941 0.0
Cd326 Cd 0.63495 0.55103 0.84058 0.0
C327 C 0.62833 0.51458 0.0194 0.0
O328 O 0.59386 0.47531 0.78009 0.0
O329 O 0.54454 0.49146 0.837 0.0
O330 O 0.6495 0.5987 0.72657 0.0
C331 C 0.55064 0.46271 0.79549 0.0
O332 O 0.62141 0.47565 -0.01147 0.0
C333 C 0.63253 0.62414 0.75268 0.0
O334 O 0.6361 0.55134 -0.01963 0.0
O335 O 0.62191 0.61938 0.82216 0.0
C336 C 0.41164 0.86056 0.66809 0.0
O337 O 0.39587 0.81606 0.68108 0.0
Cd338 Cd 0.437 0.7739 0.70198 0.0
O339 O 0.45699 0.89089 0.66274 0.0
Cd340 Cd 0.53315 0.88437 0.67393 0.0
C341 C 0.50331 0.84793 0.85276 0.0
O342 O 0.49853 0.80866 0.61342 0.0
O343 O 0.56396 0.82479 0.67039 0.0
O344 O 0.56626 0.93203 0.55991 0.0
C345 C 0.52915 0.79606 0.62881 0.0
O346 O 0.47131 0.809 0.82189 0.0
C347 C 0.60866 0.95745 0.58602 0.0
O348 O 0.53231 0.88469 0.81373 0.0
O349 O 0.61456 0.95272 0.6555 0.0
C350 C 0.07741 0.53865 0.66807 0.0
O351 O 0.12191 0.56738 0.68106 0.0
Cd352 Cd 0.16407 0.65068 0.70197 0.0
O353 O 0.04708 0.55367 0.66272 0.0
Cd354 Cd 0.05359 0.63633 0.67391 0.0
C355 C 0.09003 0.64294 0.85274 0.0
O356 O 0.12931 0.67744 0.61339 0.0
O357 O 0.11318 0.72673 0.67037 0.0
O358 O 0.00593 0.62178 0.55989 0.0
C359 C 0.14191 0.72066 0.62878 0.0
O360 O 0.12897 0.64988 0.82187 0.0
C361 C -0.01949 0.63876 0.58601 0.0
O362 O 0.05327 0.63517 0.8137 0.0
O363 O -0.01476 0.64938 0.65549 0.0
C364 C 0.39931 0.52634 0.6681 0.0
O365 O 0.37059 0.54211 0.6811 0.0
Cd366 Cd 0.28729 0.50097 0.702 0.0
O367 O 0.38429 0.48099 0.66275 0.0
Cd368 Cd 0.30162 0.40483 0.67393 0.0
C369 C 0.29501 0.43466 0.85276 0.0
O370 O 0.26053 0.43944 0.61342 0.0
O371 O 0.21122 0.37401 0.67038 0.0
O372 O 0.31618 0.37173 0.55991 0.0
C373 C 0.2173 0.40882 0.6288 0.0
O374 O 0.28808 0.46665 0.8219 0.0
C375 C 0.29919 0.32932 0.58603 0.0
O376 O 0.30278 0.40567 0.81372 0.0
O377 O 0.28856 0.32343 0.6555 0.0
C378 C 0.51483 0.75735 0.11974 0.0
O379 O 0.47034 0.74158 0.10674 0.0
Cd380 Cd 0.42817 0.78271 0.08584 0.0
O381 O 0.54516 0.8027 0.12509 0.0
Cd382 Cd 0.53865 0.87885 0.11391 0.0
C383 C 0.5022 0.84903 0.93508 0.0
O384 O 0.46293 0.84424 0.17441 0.0
O385 O 0.47907 0.90967 0.11745 0.0
O386 O 0.5863 0.91197 0.22794 0.0
C387 C 0.45033 0.87486 0.15903 0.0
O388 O 0.46327 0.81703 0.96594 0.0
C389 C 0.61172 0.95437 0.20183 0.0
O390 O 0.53897 0.87802 0.97411 0.0
O391 O 0.607 0.96026 0.13234 0.0
C392 C 0.1806 0.74503 0.11972 0.0
O393 O 0.19637 0.71631 0.10672 0.0
Cd394 Cd 0.15523 0.633 0.08582 0.0
O395 O 0.13526 0.73001 0.12507 0.0
Cd396 Cd 0.0591 0.64734 0.11388 0.0
C397 C 0.08892 0.64072 0.93506 0.0
O398 O 0.09371 0.60624 0.1744 0.0
O399 O 0.02827 0.55693 0.11744 0.0
O400 O 0.02599 0.66189 0.2279 0.0
C401 C 0.06309 0.56302 0.15902 0.0
O402 O 0.12092 0.63379 0.96592 0.0
C403 C -0.01641 0.64491 0.20179 0.0
O404 O 0.05993 0.64849 0.97409 0.0
O405 O -0.02231 0.63428 0.13231 0.0
C406 C 0.19292 0.42313 0.11974 0.0
O407 O 0.22165 0.46763 0.10676 0.0
Cd408 Cd 0.30496 0.50979 0.08586 0.0
O409 O 0.20794 0.3928 0.12509 0.0
Cd410 Cd 0.2906 0.39931 0.1139 0.0
C411 C 0.29723 0.43577 0.93508 0.0
O412 O 0.33171 0.47502 0.17443 0.0
O413 O 0.38101 0.4589 0.11746 0.0
O414 O 0.27605 0.35164 0.22792 0.0
C415 C 0.37493 0.48763 0.15905 0.0
O416 O 0.30417 0.4747 0.96595 0.0
C417 C 0.29302 0.32623 0.2018 0.0
O418 O 0.28945 0.399 0.97411 0.0
O419 O 0.30365 0.33097 0.13232 0.0
C420 C 0.1806 0.42313 0.61972 0.0
O421 O 0.19639 0.46762 0.60672 0.0
Cd422 Cd 0.15529 0.50982 0.58581 0.0
O423 O 0.13525 0.39281 0.62507 0.0
Cd424 Cd 0.0591 0.39933 0.61389 0.0
C425 C 0.08894 0.43577 0.43506 0.0
O426 O 0.09375 0.47506 0.67436 0.0
O427 O 0.02827 0.4589 0.61746 0.0
O428 O 0.02599 0.35168 0.72793 0.0
C429 C 0.06313 0.48765 0.65896 0.0
O430 O 0.12095 0.4747 0.46593 0.0
C431 C -0.01642 0.32626 0.70181 0.0
O432 O 0.05994 0.39902 0.4741 0.0
O433 O -0.02231 0.33098 0.63233 0.0
C434 C 0.51485 0.74506 0.61973 0.0
O435 O 0.47035 0.71634 0.60674 0.0
Cd436 Cd 0.42815 0.63303 0.58584 0.0
O437 O 0.54517 0.73003 0.62508 0.0
Cd438 Cd 0.53864 0.64736 0.61391 0.0
C439 C 0.50219 0.64075 0.43508 0.0
O440 O 0.46292 0.60627 0.67439 0.0
O441 O 0.47906 0.55695 0.61749 0.0
O442 O 0.5863 0.6619 0.72794 0.0
C443 C 0.45032 0.56305 0.65899 0.0
O444 O 0.46327 0.63382 0.46595 0.0
C445 C 0.61172 0.64492 0.70181 0.0
O446 O 0.53895 0.64851 0.47412 0.0
O447 O 0.60699 0.63431 0.63233 0.0
C448 C 0.19292 0.75736 0.61971 0.0
O449 O 0.22163 0.74158 0.60672 0.0
Cd450 Cd 0.30494 0.78269 0.58582 0.0
O451 O 0.20795 0.80271 0.62506 0.0
Cd452 Cd 0.29063 0.87886 0.61389 0.0
C453 C 0.29723 0.84902 0.43506 0.0
O454 O 0.33171 0.84422 0.67437 0.0
O455 O 0.38104 0.9097 0.61748 0.0
O456 O 0.27608 0.91198 0.7279 0.0
C457 C 0.37493 0.87485 0.65897 0.0
O458 O 0.30415 0.81701 0.46593 0.0
C459 C 0.29306 0.95438 0.70178 0.0
O460 O 0.28948 0.87802 0.47409 0.0
O461 O 0.30369 0.96027 0.6323 0.0
C462 C 0.07739 0.52632 0.16809 0.0
O463 O 0.12189 0.5421 0.18109 0.0
Cd464 Cd 0.16409 0.50101 0.20199 0.0
O465 O 0.04707 0.48097 0.16274 0.0
Cd466 Cd 0.0536 0.40482 0.17392 0.0
C467 C 0.09005 0.43466 0.35274 0.0
O468 O 0.12933 0.43947 0.11344 0.0
O469 O 0.11317 0.37399 0.17034 0.0
O470 O 0.00595 0.3717 0.05989 0.0
C471 C 0.14192 0.40885 0.12885 0.0
O472 O 0.12898 0.46667 0.32187 0.0
C473 C -0.01948 0.3293 0.08601 0.0
O474 O 0.05329 0.40566 0.31371 0.0
O475 O -0.01475 0.32341 0.15549 0.0
C476 C 0.41164 0.53863 0.16812 0.0
O477 O 0.39586 0.56735 0.18112 0.0
Cd478 Cd 0.43696 0.65065 0.20201 0.0
O479 O 0.45699 0.55367 0.16277 0.0
Cd480 Cd 0.53314 0.63635 0.17394 0.0
C481 C 0.5033 0.64296 0.35276 0.0
O482 O 0.4985 0.67742 0.11345 0.0
O483 O 0.56397 0.72675 0.17035 0.0
O484 O 0.56625 0.6218 0.05991 0.0
C485 C 0.52912 0.72064 0.12885 0.0
O486 O 0.4713 0.64988 0.3219 0.0
C487 C 0.60865 0.63879 0.08603 0.0
O488 O 0.5323 0.6352 0.31373 0.0
O489 O 0.61454 0.64941 0.15551 0.0
C490 C 0.39932 0.86055 0.1681 0.0
O491 O 0.3706 0.81606 0.18109 0.0
Cd492 Cd 0.2873 0.77386 0.20199 0.0
O493 O 0.3843 0.89087 0.16274 0.0
Cd494 Cd 0.30163 0.88435 0.17391 0.0
C495 C 0.29501 0.8479 0.35274 0.0
O496 O 0.26054 0.80863 0.11343 0.0
O497 O 0.21122 0.82478 0.17032 0.0
O498 O 0.31618 0.93201 0.05989 0.0
C499 C 0.21732 0.79603 0.12883 0.0
O500 O 0.28809 0.80898 0.32187 0.0
C501 C 0.29921 0.95744 0.08602 0.0
O502 O 0.30278 0.88466 0.3137 0.0
O503 O 0.28859 0.95271 0.1555 0.0
loop_
_geom_bond_atom_site_label_1
_geom_bond_atom_site_label_2
_geom_bond_distance
_geom_bond_site_symmetry_2
_ccdc_geom_bond_type
C0 O1 1.306 . S
C0 O3 1.160 . S
O1 C0 1.306 . S
O1 Cd2 2.228 . S
Cd2 O1 2.228 . S
Cd2 O6 2.273 . S
Cd2 O10 2.277 . S
O3 C0 1.160 . S
O3 Cd4 2.203 . S
Cd4 O3 2.203 . S
Cd4 O6 2.411 . S
Cd4 O7 2.333 . S
Cd4 O8 2.352 1_554 S
Cd4 O12 2.277 . S
Cd4 O13 2.356 . S
C5 O10 1.209 . S
C5 O12 1.226 . S
O6 Cd2 2.273 . S
O6 Cd4 2.411 . S
O6 C9 1.320 . S
O7 Cd4 2.333 . S
O7 C9 1.214 . S
O8 Cd4 2.352 1_556 S
O8 C11 1.258 . S
C9 O6 1.320 . S
C9 O7 1.214 . S
O10 Cd2 2.277 . S
O10 C5 1.209 . S
C11 O8 1.258 . S
C11 O13 1.282 1_556 S
O12 Cd4 2.277 . S
O12 C5 1.226 . S
O13 Cd4 2.356 . S
O13 C11 1.282 1_554 S
C14 O15 1.306 . S
C14 O17 1.160 . S
O15 C14 1.306 . S
O15 Cd16 2.228 1_565 S
Cd16 O15 2.228 1_545 S
Cd16 O20 2.273 . S
Cd16 O24 2.277 . S
O17 C14 1.160 . S
O17 Cd18 2.203 1_565 S
Cd18 O17 2.203 1_545 S
Cd18 O20 2.411 . S
Cd18 O21 2.333 . S
Cd18 O22 2.352 1_554 S
Cd18 O26 2.277 . S
Cd18 O27 2.356 . S
C19 O24 1.209 . S
C19 O26 1.226 . S
O20 Cd16 2.273 . S
O20 Cd18 2.411 . S
O20 C23 1.320 . S
O21 Cd18 2.333 . S
O21 C23 1.214 . S
O22 Cd18 2.352 1_556 S
O22 C25 1.258 . S
C23 O20 1.320 . S
C23 O21 1.214 . S
O24 Cd16 2.277 . S
O24 C19 1.209 . S
C25 O22 1.258 . S
C25 O27 1.282 1_556 S
O26 Cd18 2.277 . S
O26 C19 1.226 . S
O27 Cd18 2.356 . S
O27 C25 1.282 1_554 S
C28 O29 1.306 . S
C28 O31 1.160 . S
O29 C28 1.306 . S
O29 Cd30 2.228 1_455 S
Cd30 O29 2.228 1_655 S
Cd30 O34 2.273 . S
Cd30 O38 2.277 . S
O31 C28 1.160 . S
O31 Cd32 2.203 1_455 S
Cd32 O31 2.203 1_655 S
Cd32 O34 2.411 . S
Cd32 O35 2.333 . S
Cd32 O36 2.352 1_554 S
Cd32 O40 2.277 . S
Cd32 O41 2.356 . S
C33 O38 1.209 . S
C33 O40 1.226 . S
O34 Cd30 2.273 . S
O34 Cd32 2.411 . S
O34 C37 1.320 . S
O35 Cd32 2.333 . S
O35 C37 1.214 . S
O36 Cd32 2.352 1_556 S
O36 C39 1.258 . S
C37 O34 1.320 . S
C37 O35 1.214 . S
O38 Cd30 2.277 . S
O38 C33 1.209 . S
C39 O36 1.258 . S
C39 O41 1.282 1_556 S
O40 Cd32 2.277 . S
O40 C33 1.226 . S
O41 Cd32 2.356 . S
O41 C39 1.282 1_554 S
C42 O43 1.306 . S
C42 O45 1.160 . S
O43 C42 1.306 . S
O43 Cd44 2.228 . S
Cd44 O43 2.228 . S
Cd44 O48 2.273 . S
Cd44 O52 2.277 . S
O45 C42 1.160 . S
O45 Cd46 2.203 . S
Cd46 O45 2.203 . S
Cd46 O48 2.411 . S
Cd46 O49 2.333 . S
Cd46 O50 2.352 . S
Cd46 O54 2.277 . S
Cd46 O55 2.356 . S
C47 O52 1.209 . S
C47 O54 1.226 . S
O48 Cd44 2.273 . S
O48 Cd46 2.411 . S
O48 C51 1.320 . S
O49 Cd46 2.333 . S
O49 C51 1.214 . S
O50 Cd46 2.352 . S
O50 C53 1.258 . S
C51 O48 1.320 . S
C51 O49 1.214 . S
O52 Cd44 2.277 . S
O52 C47 1.209 . S
C53 O50 1.258 . S
C53 O55 1.282 . S
O54 Cd46 2.277 . S
O54 C47 1.226 . S
O55 Cd46 2.356 . S
O55 C53 1.282 . S
C56 O57 1.306 . S
C56 O59 1.160 . S
O57 C56 1.306 . S
O57 Cd58 2.228 1_545 S
Cd58 O57 2.228 1_565 S
Cd58 O62 2.273 . S
Cd58 O66 2.277 . S
O59 C56 1.160 . S
O59 Cd60 2.203 1_545 S
Cd60 O59 2.203 1_565 S
Cd60 O62 2.411 . S
Cd60 O63 2.333 . S
Cd60 O64 2.352 . S
Cd60 O68 2.277 . S
Cd60 O69 2.356 . S
C61 O66 1.209 . S
C61 O68 1.226 . S
O62 Cd58 2.273 . S
O62 Cd60 2.411 . S
O62 C65 1.320 . S
O63 Cd60 2.333 . S
O63 C65 1.214 . S
O64 Cd60 2.352 . S
O64 C67 1.258 . S
C65 O62 1.320 . S
C65 O63 1.214 . S
O66 Cd58 2.277 . S
O66 C61 1.209 . S
C67 O64 1.258 . S
C67 O69 1.282 . S
O68 Cd60 2.277 . S
O68 C61 1.226 . S
O69 Cd60 2.356 . S
O69 C67 1.282 . S
C70 O71 1.306 . S
C70 O73 1.160 . S
O71 C70 1.306 . S
O71 Cd72 2.228 1_655 S
Cd72 O71 2.228 1_455 S
Cd72 O76 2.273 . S
Cd72 O80 2.277 . S
O73 C70 1.160 . S
O73 Cd74 2.203 1_655 S
Cd74 O73 2.203 1_455 S
Cd74 O76 2.411 . S
Cd74 O77 2.333 . S
Cd74 O78 2.352 . S
Cd74 O82 2.277 . S
Cd74 O83 2.356 . S
C75 O80 1.209 . S
C75 O82 1.226 . S
O76 Cd72 2.273 . S
O76 Cd74 2.411 . S
O76 C79 1.320 . S
O77 Cd74 2.333 . S
O77 C79 1.214 . S
O78 Cd74 2.352 . S
O78 C81 1.258 . S
C79 O76 1.320 . S
C79 O77 1.214 . S
O80 Cd72 2.277 . S
O80 C75 1.209 . S
C81 O78 1.258 . S
C81 O83 1.282 . S
O82 Cd74 2.277 . S
O82 C75 1.226 . S
O83 Cd74 2.356 . S
O83 C81 1.282 . S
C84 O85 1.306 . S
C84 O87 1.160 . S
O85 C84 1.306 . S
O85 Cd86 2.228 . S
Cd86 O85 2.228 . S
Cd86 O90 2.273 . S
Cd86 O94 2.277 . S
O87 C84 1.160 . S
O87 Cd88 2.203 . S
Cd88 O87 2.203 . S
Cd88 O90 2.411 . S
Cd88 O91 2.333 . S
Cd88 O92 2.352 1_556 S
Cd88 O96 2.277 . S
Cd88 O97 2.356 . S
C89 O94 1.209 . S
C89 O96 1.226 . S
O90 Cd86 2.273 . S
O90 Cd88 2.411 . S
O90 C93 1.320 . S
O91 Cd88 2.333 . S
O91 C93 1.214 . S
O92 Cd88 2.352 1_554 S
O92 C95 1.258 . S
C93 O90 1.320 . S
C93 O91 1.214 . S
O94 Cd86 2.277 . S
O94 C89 1.209 . S
C95 O92 1.258 . S
C95 O97 1.282 1_554 S
O96 Cd88 2.277 . S
O96 C89 1.226 . S
O97 Cd88 2.356 . S
O97 C95 1.282 1_556 S
C98 O99 1.306 . S
C98 O101 1.160 . S
O99 C98 1.306 . S
O99 Cd100 2.228 1_545 S
Cd100 O99 2.228 1_565 S
Cd100 O104 2.273 . S
Cd100 O108 2.277 . S
O101 C98 1.160 . S
O101 Cd102 2.203 1_545 S
Cd102 O101 2.203 1_565 S
Cd102 O104 2.411 . S
Cd102 O105 2.333 . S
Cd102 O106 2.352 1_556 S
Cd102 O110 2.277 . S
Cd102 O111 2.356 . S
C103 O108 1.209 . S
C103 O110 1.226 . S
O104 Cd100 2.273 . S
O104 Cd102 2.411 . S
O104 C107 1.320 . S
O105 Cd102 2.333 . S
O105 C107 1.214 . S
O106 Cd102 2.352 1_554 S
O106 C109 1.258 . S
C107 O104 1.320 . S
C107 O105 1.214 . S
O108 Cd100 2.277 . S
O108 C103 1.209 . S
C109 O106 1.258 . S
C109 O111 1.282 1_554 S
O110 Cd102 2.277 . S
O110 C103 1.226 . S
O111 Cd102 2.356 . S
O111 C109 1.282 1_556 S
C112 O113 1.306 . S
C112 O115 1.160 . S
O113 C112 1.306 . S
O113 Cd114 2.228 1_655 S
Cd114 O113 2.228 1_455 S
Cd114 O118 2.273 . S
Cd114 O122 2.277 . S
O115 C112 1.160 . S
O115 Cd116 2.203 1_655 S
Cd116 O115 2.203 1_455 S
Cd116 O118 2.411 . S
Cd116 O119 2.333 . S
Cd116 O120 2.352 1_556 S
Cd116 O124 2.277 . S
Cd116 O125 2.356 . S
C117 O122 1.209 . S
C117 O124 1.226 . S
O118 Cd114 2.273 . S
O118 Cd116 2.411 . S
O118 C121 1.320 . S
O119 Cd116 2.333 . S
O119 C121 1.214 . S
O120 Cd116 2.352 1_554 S
O120 C123 1.258 . S
C121 O118 1.320 . S
C121 O119 1.214 . S
O122 Cd114 2.277 . S
O122 C117 1.209 . S
C123 O120 1.258 . S
C123 O125 1.282 1_554 S
O124 Cd116 2.277 . S
O124 C117 1.226 . S
O125 Cd116 2.356 . S
O125 C123 1.282 1_556 S
C126 O127 1.306 . S
C126 O129 1.160 . S
O127 C126 1.306 . S
O127 Cd128 2.228 . S
Cd128 O127 2.228 . S
Cd128 O132 2.273 . S
Cd128 O136 2.277 . S
O129 C126 1.160 . S
O129 Cd130 2.203 . S
Cd130 O129 2.203 . S
Cd130 O132 2.411 . S
Cd130 O133 2.333 . S
Cd130 O134 2.352 . S
Cd130 O138 2.277 . S
Cd130 O139 2.356 . S
C131 O136 1.209 . S
C131 O138 1.226 . S
O132 Cd128 2.273 . S
O132 Cd130 2.411 . S
O132 C135 1.320 . S
O133 Cd130 2.333 . S
O133 C135 1.214 . S
O134 Cd130 2.352 . S
O134 C137 1.258 . S
C135 O132 1.320 . S
C135 O133 1.214 . S
O136 Cd128 2.277 . S
O136 C131 1.209 . S
C137 O134 1.258 . S
C137 O139 1.282 . S
O138 Cd130 2.277 . S
O138 C131 1.226 . S
O139 Cd130 2.356 . S
O139 C137 1.282 . S
C140 O141 1.306 . S
C140 O143 1.160 . S
O141 C140 1.306 . S
O141 Cd142 2.228 1_565 S
Cd142 O141 2.228 1_545 S
Cd142 O146 2.273 . S
Cd142 O150 2.277 . S
O143 C140 1.160 . S
O143 Cd144 2.203 1_565 S
Cd144 O143 2.203 1_545 S
Cd144 O146 2.411 . S
Cd144 O147 2.333 . S
Cd144 O148 2.352 . S
Cd144 O152 2.277 . S
Cd144 O153 2.356 . S
C145 O150 1.209 . S
C145 O152 1.226 . S
O146 Cd142 2.273 . S
O146 Cd144 2.411 . S
O146 C149 1.320 . S
O147 Cd144 2.333 . S
O147 C149 1.214 . S
O148 Cd144 2.352 . S
O148 C151 1.258 . S
C149 O146 1.320 . S
C149 O147 1.214 . S
O150 Cd142 2.277 . S
O150 C145 1.209 . S
C151 O148 1.258 . S
C151 O153 1.282 . S
O152 Cd144 2.277 . S
O152 C145 1.226 . S
O153 Cd144 2.356 . S
O153 C151 1.282 . S
C154 O155 1.306 . S
C154 O157 1.160 . S
O155 C154 1.306 . S
O155 Cd156 2.228 1_455 S
Cd156 O155 2.228 1_655 S
Cd156 O160 2.273 . S
Cd156 O164 2.277 . S
O157 C154 1.160 . S
O157 Cd158 2.203 1_455 S
Cd158 O157 2.203 1_655 S
Cd158 O160 2.411 . S
Cd158 O161 2.333 . S
Cd158 O162 2.352 . S
Cd158 O166 2.277 . S
Cd158 O167 2.356 . S
C159 O164 1.209 . S
C159 O166 1.226 . S
O160 Cd156 2.273 . S
O160 Cd158 2.411 . S
O160 C163 1.320 . S
O161 Cd158 2.333 . S
O161 C163 1.214 . S
O162 Cd158 2.352 . S
O162 C165 1.258 . S
C163 O160 1.320 . S
C163 O161 1.214 . S
O164 Cd156 2.277 . S
O164 C159 1.209 . S
C165 O162 1.258 . S
C165 O167 1.282 . S
O166 Cd158 2.277 . S
O166 C159 1.226 . S
O167 Cd158 2.356 . S
O167 C165 1.282 . S
C168 O169 1.306 . S
C168 O171 1.160 . S
O169 C168 1.306 . S
O169 Cd170 2.228 . S
Cd170 O169 2.228 . S
Cd170 O174 2.273 . S
Cd170 O178 2.277 . S
O171 C168 1.160 . S
O171 Cd172 2.203 . S
Cd172 O171 2.203 . S
Cd172 O174 2.411 . S
Cd172 O175 2.333 . S
Cd172 O176 2.352 . S
Cd172 O180 2.277 . S
Cd172 O181 2.356 . S
C173 O178 1.209 . S
C173 O180 1.226 . S
O174 Cd170 2.273 . S
O174 Cd172 2.411 . S
O174 C177 1.320 . S
O175 Cd172 2.333 . S
O175 C177 1.214 . S
O176 Cd172 2.352 . S
O176 C179 1.258 . S
C177 O174 1.320 . S
C177 O175 1.214 . S
O178 Cd170 2.277 . S
O178 C173 1.209 . S
C179 O176 1.258 . S
C179 O181 1.282 . S
O180 Cd172 2.277 . S
O180 C173 1.226 . S
O181 Cd172 2.356 . S
O181 C179 1.282 . S
C182 O183 1.306 . S
C182 O185 1.160 . S
O183 C182 1.306 . S
O183 Cd184 2.228 . S
Cd184 O183 2.228 . S
Cd184 O188 2.273 . S
Cd184 O192 2.277 . S
O185 C182 1.160 . S
O185 Cd186 2.203 . S
Cd186 O185 2.203 . S
Cd186 O188 2.411 . S
Cd186 O189 2.333 . S
Cd186 O190 2.352 . S
Cd186 O194 2.277 . S
Cd186 O195 2.356 . S
C187 O192 1.209 . S
C187 O194 1.226 . S
O188 Cd184 2.273 . S
O188 Cd186 2.411 . S
O188 C191 1.320 . S
O189 Cd186 2.333 . S
O189 C191 1.214 . S
O190 Cd186 2.352 . S
O190 C193 1.258 . S
C191 O188 1.320 . S
C191 O189 1.214 . S
O192 Cd184 2.277 . S
O192 C187 1.209 . S
C193 O190 1.258 . S
C193 O195 1.282 . S
O194 Cd186 2.277 . S
O194 C187 1.226 . S
O195 Cd186 2.356 . S
O195 C193 1.282 . S
C196 O197 1.306 . S
C196 O199 1.160 . S
O197 C196 1.306 . S
O197 Cd198 2.228 . S
Cd198 O197 2.228 . S
Cd198 O202 2.273 . S
Cd198 O206 2.277 . S
O199 C196 1.160 . S
O199 Cd200 2.203 . S
Cd200 O199 2.203 . S
Cd200 O202 2.411 . S
Cd200 O203 2.333 . S
Cd200 O204 2.352 . S
Cd200 O208 2.277 . S
Cd200 O209 2.356 . S
C201 O206 1.209 . S
C201 O208 1.226 . S
O202 Cd198 2.273 . S
O202 Cd200 2.411 . S
O202 C205 1.320 . S
O203 Cd200 2.333 . S
O203 C205 1.214 . S
O204 Cd200 2.352 . S
O204 C207 1.258 . S
C205 O202 1.320 . S
C205 O203 1.214 . S
O206 Cd198 2.277 . S
O206 C201 1.209 . S
C207 O204 1.258 . S
C207 O209 1.282 . S
O208 Cd200 2.277 . S
O208 C201 1.226 . S
O209 Cd200 2.356 . S
O209 C207 1.282 . S
C210 O211 1.306 . S
C210 O213 1.160 . S
O211 C210 1.306 . S
O211 Cd212 2.228 . S
Cd212 O211 2.228 . S
Cd212 O216 2.273 . S
Cd212 O220 2.277 . S
O213 C210 1.160 . S
O213 Cd214 2.203 . S
Cd214 O213 2.203 . S
Cd214 O216 2.411 . S
Cd214 O217 2.333 . S
Cd214 O218 2.352 . S
Cd214 O222 2.277 . S
Cd214 O223 2.356 . S
C215 O220 1.209 . S
C215 O222 1.226 . S
O216 Cd212 2.273 . S
O216 Cd214 2.411 . S
O216 C219 1.320 . S
O217 Cd214 2.333 . S
O217 C219 1.214 . S
O218 Cd214 2.352 . S
O218 C221 1.258 . S
C219 O216 1.320 . S
C219 O217 1.214 . S
O220 Cd212 2.277 . S
O220 C215 1.209 . S
C221 O218 1.258 . S
C221 O223 1.282 . S
O222 Cd214 2.277 . S
O222 C215 1.226 . S
O223 Cd214 2.356 . S
O223 C221 1.282 . S
C224 O225 1.306 . S
C224 O227 1.160 . S
O225 C224 1.306 . S
O225 Cd226 2.228 . S
Cd226 O225 2.228 . S
Cd226 O230 2.273 . S
Cd226 O234 2.277 . S
O227 C224 1.160 . S
O227 Cd228 2.203 . S
Cd228 O227 2.203 . S
Cd228 O230 2.411 . S
Cd228 O231 2.333 . S
Cd228 O232 2.352 . S
Cd228 O236 2.277 . S
Cd228 O237 2.356 . S
C229 O234 1.209 . S
C229 O236 1.226 . S
O230 Cd226 2.273 . S
O230 Cd228 2.411 . S
O230 C233 1.320 . S
O231 Cd228 2.333 . S
O231 C233 1.214 . S
O232 Cd228 2.352 . S
O232 C235 1.258 . S
C233 O230 1.320 . S
C233 O231 1.214 . S
O234 Cd226 2.277 . S
O234 C229 1.209 . S
C235 O232 1.258 . S
C235 O237 1.282 . S
O236 Cd228 2.277 . S
O236 C229 1.226 . S
O237 Cd228 2.356 . S
O237 C235 1.282 . S
C238 O239 1.306 . S
C238 O241 1.160 . S
O239 C238 1.306 . S
O239 Cd240 2.228 . S
Cd240 O239 2.228 . S
Cd240 O244 2.273 . S
Cd240 O248 2.277 . S
O241 C238 1.160 . S
O241 Cd242 2.203 . S
Cd242 O241 2.203 . S
Cd242 O244 2.411 . S
Cd242 O245 2.333 . S
Cd242 O246 2.352 . S
Cd242 O250 2.277 . S
Cd242 O251 2.356 . S
C243 O248 1.209 . S
C243 O250 1.226 . S
O244 Cd240 2.273 . S
O244 Cd242 2.411 . S
O244 C247 1.320 . S
O245 Cd242 2.333 . S
O245 C247 1.214 . S
O246 Cd242 2.352 . S
O246 C249 1.258 . S
C247 O244 1.320 . S
C247 O245 1.214 . S
O248 Cd240 2.277 . S
O248 C243 1.209 . S
C249 O246 1.258 . S
C249 O251 1.282 . S
O250 Cd242 2.277 . S
O250 C243 1.226 . S
O251 Cd242 2.356 . S
O251 C249 1.282 . S
C252 O253 1.306 . S
C252 O255 1.160 . S
O253 C252 1.306 . S
O253 Cd254 2.228 . S
Cd254 O253 2.228 . S
Cd254 O258 2.273 . S
Cd254 O262 2.277 . S
O255 C252 1.160 . S
O255 Cd256 2.203 . S
Cd256 O255 2.203 . S
Cd256 O258 2.411 . S
Cd256 O259 2.333 . S
Cd256 O260 2.352 . S
Cd256 O264 2.277 . S
Cd256 O265 2.356 . S
C257 O262 1.209 . S
C257 O264 1.226 . S
O258 Cd254 2.273 . S
O258 Cd256 2.411 . S
O258 C261 1.320 . S
O259 Cd256 2.333 . S
O259 C261 1.214 . S
O260 Cd256 2.352 . S
O260 C263 1.258 . S
C261 O258 1.320 . S
C261 O259 1.214 . S
O262 Cd254 2.277 . S
O262 C257 1.209 . S
C263 O260 1.258 . S
C263 O265 1.282 . S
O264 Cd256 2.277 . S
O264 C257 1.226 . S
O265 Cd256 2.356 . S
O265 C263 1.282 . S
C266 O267 1.306 . S
C266 O269 1.160 . S
O267 C266 1.306 . S
O267 Cd268 2.228 . S
Cd268 O267 2.228 . S
Cd268 O272 2.273 . S
Cd268 O276 2.277 . S
O269 C266 1.160 . S
O269 Cd270 2.203 . S
Cd270 O269 2.203 . S
Cd270 O272 2.411 . S
Cd270 O273 2.333 . S
Cd270 O274 2.352 . S
Cd270 O278 2.277 . S
Cd270 O279 2.356 . S
C271 O276 1.209 . S
C271 O278 1.226 . S
O272 Cd268 2.273 . S
O272 Cd270 2.411 . S
O272 C275 1.320 . S
O273 Cd270 2.333 . S
O273 C275 1.214 . S
O274 Cd270 2.352 . S
O274 C277 1.258 . S
C275 O272 1.320 . S
C275 O273 1.214 . S
O276 Cd268 2.277 . S
O276 C271 1.209 . S
C277 O274 1.258 . S
C277 O279 1.282 . S
O278 Cd270 2.277 . S
O278 C271 1.226 . S
O279 Cd270 2.356 . S
O279 C277 1.282 . S
C280 O281 1.306 . S
C280 O283 1.160 . S
O281 C280 1.306 . S
O281 Cd282 2.228 . S
Cd282 O281 2.228 . S
Cd282 O286 2.273 . S
Cd282 O290 2.277 . S
O283 C280 1.160 . S
O283 Cd284 2.203 . S
Cd284 O283 2.203 . S
Cd284 O286 2.411 . S
Cd284 O287 2.333 . S
Cd284 O288 2.352 . S
Cd284 O292 2.277 . S
Cd284 O293 2.356 . S
C285 O290 1.209 . S
C285 O292 1.226 . S
O286 Cd282 2.273 . S
O286 Cd284 2.411 . S
O286 C289 1.320 . S
O287 Cd284 2.333 . S
O287 C289 1.214 . S
O288 Cd284 2.352 . S
O288 C291 1.258 . S
C289 O286 1.320 . S
C289 O287 1.214 . S
O290 Cd282 2.277 . S
O290 C285 1.209 . S
C291 O288 1.258 . S
C291 O293 1.282 . S
O292 Cd284 2.277 . S
O292 C285 1.226 . S
O293 Cd284 2.356 . S
O293 C291 1.282 . S
C294 O295 1.306 . S
C294 O297 1.160 . S
O295 C294 1.306 . S
O295 Cd296 2.228 . S
Cd296 O295 2.228 . S
Cd296 O300 2.273 . S
Cd296 O304 2.277 1_556 S
O297 C294 1.160 . S
O297 Cd298 2.203 . S
Cd298 O297 2.203 . S
Cd298 O300 2.411 . S
Cd298 O301 2.333 . S
Cd298 O302 2.352 . S
Cd298 O306 2.277 1_556 S
Cd298 O307 2.356 . S
C299 O304 1.209 . S
C299 O306 1.226 . S
O300 Cd296 2.273 . S
O300 Cd298 2.411 . S
O300 C303 1.320 . S
O301 Cd298 2.333 . S
O301 C303 1.214 . S
O302 Cd298 2.352 . S
O302 C305 1.258 . S
C303 O300 1.320 . S
C303 O301 1.214 . S
O304 Cd296 2.277 1_554 S
O304 C299 1.209 . S
C305 O302 1.258 . S
C305 O307 1.282 . S
O306 Cd298 2.277 1_554 S
O306 C299 1.226 . S
O307 Cd298 2.356 . S
O307 C305 1.282 . S
C308 O309 1.306 . S
C308 O311 1.160 . S
O309 C308 1.306 . S
O309 Cd310 2.228 . S
Cd310 O309 2.228 . S
Cd310 O314 2.273 . S
Cd310 O318 2.277 1_556 S
O311 C308 1.160 . S
O311 Cd312 2.203 . S
Cd312 O311 2.203 . S
Cd312 O314 2.411 . S
Cd312 O315 2.333 . S
Cd312 O316 2.352 . S
Cd312 O320 2.277 1_556 S
Cd312 O321 2.356 . S
C313 O318 1.209 . S
C313 O320 1.226 . S
O314 Cd310 2.273 . S
O314 Cd312 2.411 . S
O314 C317 1.320 . S
O315 Cd312 2.333 . S
O315 C317 1.214 . S
O316 Cd312 2.352 . S
O316 C319 1.258 . S
C317 O314 1.320 . S
C317 O315 1.214 . S
O318 Cd310 2.277 1_554 S
O318 C313 1.209 . S
C319 O316 1.258 . S
C319 O321 1.282 . S
O320 Cd312 2.277 1_554 S
O320 C313 1.226 . S
O321 Cd312 2.356 . S
O321 C319 1.282 . S
C322 O323 1.306 . S
C322 O325 1.160 . S
O323 C322 1.306 . S
O323 Cd324 2.228 . S
Cd324 O323 2.228 . S
Cd324 O328 2.273 . S
Cd324 O332 2.277 1_556 S
O325 C322 1.160 . S
O325 Cd326 2.203 . S
Cd326 O325 2.203 . S
Cd326 O328 2.411 . S
Cd326 O329 2.333 . S
Cd326 O330 2.352 . S
Cd326 O334 2.277 1_556 S
Cd326 O335 2.356 . S
C327 O332 1.209 . S
C327 O334 1.226 . S
O328 Cd324 2.273 . S
O328 Cd326 2.411 . S
O328 C331 1.320 . S
O329 Cd326 2.333 . S
O329 C331 1.214 . S
O330 Cd326 2.352 . S
O330 C333 1.258 . S
C331 O328 1.320 . S
C331 O329 1.214 . S
O332 Cd324 2.277 1_554 S
O332 C327 1.209 . S
C333 O330 1.258 . S
C333 O335 1.282 . S
O334 Cd326 2.277 1_554 S
O334 C327 1.226 . S
O335 Cd326 2.356 . S
O335 C333 1.282 . S
C336 O337 1.306 . S
C336 O339 1.160 . S
O337 C336 1.306 . S
O337 Cd338 2.228 . S
Cd338 O337 2.228 . S
Cd338 O342 2.273 . S
Cd338 O346 2.277 . S
O339 C336 1.160 . S
O339 Cd340 2.203 . S
Cd340 O339 2.203 . S
Cd340 O342 2.411 . S
Cd340 O343 2.333 . S
Cd340 O344 2.352 . S
Cd340 O348 2.277 . S
Cd340 O349 2.356 . S
C341 O346 1.209 . S
C341 O348 1.226 . S
O342 Cd338 2.273 . S
O342 Cd340 2.411 . S
O342 C345 1.320 . S
O343 Cd340 2.333 . S
O343 C345 1.214 . S
O344 Cd340 2.352 . S
O344 C347 1.258 . S
C345 O342 1.320 . S
C345 O343 1.214 . S
O346 Cd338 2.277 . S
O346 C341 1.209 . S
C347 O344 1.258 . S
C347 O349 1.282 . S
O348 Cd340 2.277 . S
O348 C341 1.226 . S
O349 Cd340 2.356 . S
O349 C347 1.282 . S
C350 O351 1.306 . S
C350 O353 1.160 . S
O351 C350 1.306 . S
O351 Cd352 2.228 . S
Cd352 O351 2.228 . S
Cd352 O356 2.273 . S
Cd352 O360 2.277 . S
O353 C350 1.160 . S
O353 Cd354 2.203 . S
Cd354 O353 2.203 . S
Cd354 O356 2.411 . S
Cd354 O357 2.333 . S
Cd354 O358 2.352 . S
Cd354 O362 2.277 . S
Cd354 O363 2.356 . S
C355 O360 1.209 . S
C355 O362 1.226 . S
O356 Cd352 2.273 . S
O356 Cd354 2.411 . S
O356 C359 1.320 . S
O357 Cd354 2.333 . S
O357 C359 1.214 . S
O358 Cd354 2.352 . S
O358 C361 1.258 . S
C359 O356 1.320 . S
C359 O357 1.214 . S
O360 Cd352 2.277 . S
O360 C355 1.209 . S
C361 O358 1.258 . S
C361 O363 1.282 . S
O362 Cd354 2.277 . S
O362 C355 1.226 . S
O363 Cd354 2.356 . S
O363 C361 1.282 . S
C364 O365 1.306 . S
C364 O367 1.160 . S
O365 C364 1.306 . S
O365 Cd366 2.228 . S
Cd366 O365 2.228 . S
Cd366 O370 2.273 . S
Cd366 O374 2.277 . S
O367 C364 1.160 . S
O367 Cd368 2.203 . S
Cd368 O367 2.203 . S
Cd368 O370 2.411 . S
Cd368 O371 2.333 . S
Cd368 O372 2.352 . S
Cd368 O376 2.277 . S
Cd368 O377 2.356 . S
C369 O374 1.209 . S
C369 O376 1.226 . S
O370 Cd366 2.273 . S
O370 Cd368 2.411 . S
O370 C373 1.320 . S
O371 Cd368 2.333 . S
O371 C373 1.214 . S
O372 Cd368 2.352 . S
O372 C375 1.258 . S
C373 O370 1.320 . S
C373 O371 1.214 . S
O374 Cd366 2.277 . S
O374 C369 1.209 . S
C375 O372 1.258 . S
C375 O377 1.282 . S
O376 Cd368 2.277 . S
O376 C369 1.226 . S
O377 Cd368 2.356 . S
O377 C375 1.282 . S
C378 O379 1.306 . S
C378 O381 1.160 . S
O379 C378 1.306 . S
O379 Cd380 2.228 . S
Cd380 O379 2.228 . S
Cd380 O384 2.273 . S
Cd380 O388 2.277 1_554 S
O381 C378 1.160 . S
O381 Cd382 2.203 . S
Cd382 O381 2.203 . S
Cd382 O384 2.411 . S
Cd382 O385 2.333 . S
Cd382 O386 2.352 . S
Cd382 O390 2.277 1_554 S
Cd382 O391 2.356 . S
C383 O388 1.209 . S
C383 O390 1.226 . S
O384 Cd380 2.273 . S
O384 Cd382 2.411 . S
O384 C387 1.320 . S
O385 Cd382 2.333 . S
O385 C387 1.214 . S
O386 Cd382 2.352 . S
O386 C389 1.258 . S
C387 O384 1.320 . S
C387 O385 1.214 . S
O388 Cd380 2.277 1_556 S
O388 C383 1.209 . S
C389 O386 1.258 . S
C389 O391 1.282 . S
O390 Cd382 2.277 1_556 S
O390 C383 1.226 . S
O391 Cd382 2.356 . S
O391 C389 1.282 . S
C392 O393 1.306 . S
C392 O395 1.160 . S
O393 C392 1.306 . S
O393 Cd394 2.228 . S
Cd394 O393 2.228 . S
Cd394 O398 2.273 . S
Cd394 O402 2.277 1_554 S
O395 C392 1.160 . S
O395 Cd396 2.203 . S
Cd396 O395 2.203 . S
Cd396 O398 2.411 . S
Cd396 O399 2.333 . S
Cd396 O400 2.352 . S
Cd396 O404 2.277 1_554 S
Cd396 O405 2.356 . S
C397 O402 1.209 . S
C397 O404 1.226 . S
O398 Cd394 2.273 . S
O398 Cd396 2.411 . S
O398 C401 1.320 . S
O399 Cd396 2.333 . S
O399 C401 1.214 . S
O400 Cd396 2.352 . S
O400 C403 1.258 . S
C401 O398 1.320 . S
C401 O399 1.214 . S
O402 Cd394 2.277 1_556 S
O402 C397 1.209 . S
C403 O400 1.258 . S
C403 O405 1.282 . S
O404 Cd396 2.277 1_556 S
O404 C397 1.226 . S
O405 Cd396 2.356 . S
O405 C403 1.282 . S
C406 O407 1.306 . S
C406 O409 1.160 . S
O407 C406 1.306 . S
O407 Cd408 2.228 . S
Cd408 O407 2.228 . S
Cd408 O412 2.273 . S
Cd408 O416 2.277 1_554 S
O409 C406 1.160 . S
O409 Cd410 2.203 . S
Cd410 O409 2.203 . S
Cd410 O412 2.411 . S
Cd410 O413 2.333 . S
Cd410 O414 2.352 . S
Cd410 O418 2.277 1_554 S
Cd410 O419 2.356 . S
C411 O416 1.209 . S
C411 O418 1.226 . S
O412 Cd408 2.273 . S
O412 Cd410 2.411 . S
O412 C415 1.320 . S
O413 Cd410 2.333 . S
O413 C415 1.214 . S
O414 Cd410 2.352 . S
O414 C417 1.258 . S
C415 O412 1.320 . S
C415 O413 1.214 . S
O416 Cd408 2.277 1_556 S
O416 C411 1.209 . S
C417 O414 1.258 . S
C417 O419 1.282 . S
O418 Cd410 2.277 1_556 S
O418 C411 1.226 . S
O419 Cd410 2.356 . S
O419 C417 1.282 . S
C420 O421 1.306 . S
C420 O423 1.160 . S
O421 C420 1.306 . S
O421 Cd422 2.228 . S
Cd422 O421 2.228 . S
Cd422 O426 2.273 . S
Cd422 O430 2.277 . S
O423 C420 1.160 . S
O423 Cd424 2.203 . S
Cd424 O423 2.203 . S
Cd424 O426 2.411 . S
Cd424 O427 2.333 . S
Cd424 O428 2.352 . S
Cd424 O432 2.277 . S
Cd424 O433 2.356 . S
C425 O430 1.209 . S
C425 O432 1.226 . S
O426 Cd422 2.273 . S
O426 Cd424 2.411 . S
O426 C429 1.320 . S
O427 Cd424 2.333 . S
O427 C429 1.214 . S
O428 Cd424 2.352 . S
O428 C431 1.258 . S
C429 O426 1.320 . S
C429 O427 1.214 . S
O430 Cd422 2.277 . S
O430 C425 1.209 . S
C431 O428 1.258 . S
C431 O433 1.282 . S
O432 Cd424 2.277 . S
O432 C425 1.226 . S
O433 Cd424 2.356 . S
O433 C431 1.282 . S
C434 O435 1.306 . S
C434 O437 1.160 . S
O435 C434 1.306 . S
O435 Cd436 2.228 . S
Cd436 O435 2.228 . S
Cd436 O440 2.273 . S
Cd436 O444 2.277 . S
O437 C434 1.160 . S
O437 Cd438 2.203 . S
Cd438 O437 2.203 . S
Cd438 O440 2.411 . S
Cd438 O441 2.333 . S
Cd438 O442 2.352 . S
Cd438 O446 2.277 . S
Cd438 O447 2.356 . S
C439 O444 1.209 . S
C439 O446 1.226 . S
O440 Cd436 2.273 . S
O440 Cd438 2.411 . S
O440 C443 1.320 . S
O441 Cd438 2.333 . S
O441 C443 1.214 . S
O442 Cd438 2.352 . S
O442 C445 1.258 . S
C443 O440 1.320 . S
C443 O441 1.214 . S
O444 Cd436 2.277 . S
O444 C439 1.209 . S
C445 O442 1.258 . S
C445 O447 1.282 . S
O446 Cd438 2.277 . S
O446 C439 1.226 . S
O447 Cd438 2.356 . S
O447 C445 1.282 . S
C448 O449 1.306 . S
C448 O451 1.160 . S
O449 C448 1.306 . S
O449 Cd450 2.228 . S
Cd450 O449 2.228 . S
Cd450 O454 2.273 . S
Cd450 O458 2.277 . S
O451 C448 1.160 . S
O451 Cd452 2.203 . S
Cd452 O451 2.203 . S
Cd452 O454 2.411 . S
Cd452 O455 2.333 . S
Cd452 O456 2.352 . S
Cd452 O460 2.277 . S
Cd452 O461 2.356 . S
C453 O458 1.209 . S
C453 O460 1.226 . S
O454 Cd450 2.273 . S
O454 Cd452 2.411 . S
O454 C457 1.320 . S
O455 Cd452 2.333 . S
O455 C457 1.214 . S
O456 Cd452 2.352 . S
O456 C459 1.258 . S
C457 O454 1.320 . S
C457 O455 1.214 . S
O458 Cd450 2.277 . S
O458 C453 1.209 . S
C459 O456 1.258 . S
C459 O461 1.282 . S
O460 Cd452 2.277 . S
O460 C453 1.226 . S
O461 Cd452 2.356 . S
O461 C459 1.282 . S
C462 O463 1.306 . S
C462 O465 1.160 . S
O463 C462 1.306 . S
O463 Cd464 2.228 . S
Cd464 O463 2.228 . S
Cd464 O468 2.273 . S
Cd464 O472 2.277 . S
O465 C462 1.160 . S
O465 Cd466 2.203 . S
Cd466 O465 2.203 . S
Cd466 O468 2.411 . S
Cd466 O469 2.333 . S
Cd466 O470 2.352 . S
Cd466 O474 2.277 . S
Cd466 O475 2.356 . S
C467 O472 1.209 . S
C467 O474 1.226 . S
O468 Cd464 2.273 . S
O468 Cd466 2.411 . S
O468 C471 1.320 . S
O469 Cd466 2.333 . S
O469 C471 1.214 . S
O470 Cd466 2.352 . S
O470 C473 1.258 . S
C471 O468 1.320 . S
C471 O469 1.214 . S
O472 Cd464 2.277 . S
O472 C467 1.209 . S
C473 O470 1.258 . S
C473 O475 1.282 . S
O474 Cd466 2.277 . S
O474 C467 1.226 . S
O475 Cd466 2.356 . S
O475 C473 1.282 . S
C476 O477 1.306 . S
C476 O479 1.160 . S
O477 C476 1.306 . S
O477 Cd478 2.228 . S
Cd478 O477 2.228 . S
Cd478 O482 2.273 . S
Cd478 O486 2.277 . S
O479 C476 1.160 . S
O479 Cd480 2.203 . S
Cd480 O479 2.203 . S
Cd480 O482 2.411 . S
Cd480 O483 2.333 . S
Cd480 O484 2.352 . S
Cd480 O488 2.277 . S
Cd480 O489 2.356 . S
C481 O486 1.209 . S
C481 O488 1.226 . S
O482 Cd478 2.273 . S
O482 Cd480 2.411 . S
O482 C485 1.320 . S
O483 Cd480 2.333 . S
O483 C485 1.214 . S
O484 Cd480 2.352 . S
O484 C487 1.258 . S
C485 O482 1.320 . S
C485 O483 1.214 . S
O486 Cd478 2.277 . S
O486 C481 1.209 . S
C487 O484 1.258 . S
C487 O489 1.282 . S
O488 Cd480 2.277 . S
O488 C481 1.226 . S
O489 Cd480 2.356 . S
O489 C487 1.282 . S
C490 O491 1.306 . S
C490 O493 1.160 . S
O491 C490 1.306 . S
O491 Cd492 2.228 . S
Cd492 O491 2.228 . S
Cd492 O496 2.273 . S
Cd492 O500 2.277 . S
O493 C490 1.160 . S
O493 Cd494 2.203 . S
Cd494 O493 2.203 . S
Cd494 O496 2.411 . S
Cd494 O497 2.333 . S
Cd494 O498 2.352 . S
Cd494 O502 2.277 . S
Cd494 O503 2.356 . S
C495 O500 1.209 . S
C495 O502 1.226 . S
O496 Cd492 2.273 . S
O496 Cd494 2.411 . S
O496 C499 1.320 . S
O497 Cd494 2.333 . S
O497 C499 1.214 . S
O498 Cd494 2.352 . S
O498 C501 1.258 . S
C499 O496 1.320 . S
C499 O497 1.214 . S
O500 Cd492 2.277 . S
O500 C495 1.209 . S
C501 O498 1.258 . S
C501 O503 1.282 . S
O502 Cd494 2.277 . S
O502 C495 1.226 . S
O503 Cd494 2.356 . S
O503 C501 1.282 . S
C235 C11 1.232 . S
C249 C25 1.232 . S
C39 C221 1.232 . S
C375 C53 1.232 . S
C347 C67 1.232 . S
C81 C361 1.232 . S
C487 C95 1.232 . S
C501 C109 1.232 . S
C473 C123 1.232 . S
C291 C137 1.232 . S
C151 C263 1.232 . S
C277 C165 1.232 . S
C403 C179 1.232 1_455 S
C193 C417 1.232 . S
C389 C207 1.232 1_565 S
C459 C305 1.232 1_565 S
C431 C319 1.232 1_455 S
C333 C445 1.232 . S
C98 C9 1.564 1_556 S
C112 C23 1.564 1_556 S
C84 C37 1.564 1_556 S
C51 C154 1.564 . S
C126 C65 1.564 . S
C79 C140 1.564 . S
C14 C93 1.564 1_554 S
C107 C28 1.564 1_556 S
C0 C121 1.564 1_554 S
C70 C135 1.564 . S
C42 C149 1.564 . S
C163 C56 1.564 . S
C177 C266 1.564 . S
C280 C191 1.564 . S
C252 C205 1.564 . S
C219 C322 1.564 . S
C294 C233 1.564 . S
C247 C308 1.564 . S
C261 C182 1.564 . S
C275 C196 1.564 . S
C168 C289 1.564 . S
C238 C303 1.564 . S
C210 C317 1.564 . S
C331 C224 1.564 . S
C434 C345 1.564 . S
C359 C448 1.564 . S
C373 C420 1.564 . S
C490 C387 1.564 . S
C401 C462 1.564 . S
C476 C415 1.564 . S
C350 C429 1.564 . S
C364 C443 1.564 . S
C457 C336 1.564 . S
C471 C406 1.564 . S
C378 C485 1.564 . S
C392 C499 1.564 . S
C5 C47 1.596 . S
C19 C61 1.596 1_545 S
C75 C33 1.596 1_455 S
C89 C131 1.596 . S
C145 C103 1.596 1_545 S
C159 C117 1.596 1_655 S
C173 C215 1.596 . S
C187 C229 1.596 . S
C243 C201 1.596 . S
C257 C299 1.596 . S
C271 C313 1.596 . S
C285 C327 1.596 . S
C383 C341 1.596 . S
C397 C355 1.596 . S
C411 C369 1.596 . S
C425 C467 1.596 . S
C481 C439 1.596 . S
C495 C453 1.596 . S
