# Generated by pormake.
# Topology unr, (4)-cn, num edge types: 1
# Building blocks:
#     Node 0, Type 0, BuildingBlock: CEKHIL_clean_sbu_0, # of connection points: 4
#     Node 1, Type 0, BuildingBlock: CEKHIL_clean_sbu_0, # of connection points: 4
#     Node 2, Type 0, BuildingBlock: CEKHIL_clean_sbu_0, # of connection points: 4
#     Node 3, Type 0, BuildingBlock: CEKHIL_clean_sbu_0, # of connection points: 4
#     Node 4, Type 0, BuildingBlock: CEKHIL_clean_sbu_0, # of connection points: 4
#     Node 5, Type 0, BuildingBlock: CEKHIL_clean_sbu_0, # of connection points: 4
#     Node 6, Type 0, BuildingBlock: CEKHIL_clean_sbu_0, # of connection points: 4
#     Node 7, Type 0, BuildingBlock: CEKHIL_clean_sbu_0, # of connection points: 4
#     Node 8, Type 0, BuildingBlock: CEKHIL_clean_sbu_0, # of connection points: 4
#     Node 9, Type 0, BuildingBlock: CEKHIL_clean_sbu_0, # of connection points: 4
#     Node 10, Type 0, BuildingBlock: CEKHIL_clean_sbu_0, # of connection points: 4
#     Node 11, Type 0, BuildingBlock: CEKHIL_clean_sbu_0, # of connection points: 4
#     Node 12, Type 0, BuildingBlock: CEKHIL_clean_sbu_0, # of connection points: 4
#     Node 13, Type 0, BuildingBlock: CEKHIL_clean_sbu_0, # of connection points: 4
#     Node 14, Type 0, BuildingBlock: CEKHIL_clean_sbu_0, # of connection points: 4
#     Node 15, Type 0, BuildingBlock: CEKHIL_clean_sbu_0, # of connection points: 4
#     Node 16, Type 0, BuildingBlock: CEKHIL_clean_sbu_0, # of connection points: 4
#     Node 17, Type 0, BuildingBlock: CEKHIL_clean_sbu_0, # of connection points: 4
#     Node 18, Type 0, BuildingBlock: CEKHIL_clean_sbu_0, # of connection points: 4
#     Node 19, Type 0, BuildingBlock: CEKHIL_clean_sbu_0, # of connection points: 4
#     Node 20, Type 0, BuildingBlock: CEKHIL_clean_sbu_0, # of connection points: 4
#     Node 21, Type 0, BuildingBlock: CEKHIL_clean_sbu_0, # of connection points: 4
#     Node 22, Type 0, BuildingBlock: CEKHIL_clean_sbu_0, # of connection points: 4
#     Node 23, Type 0, BuildingBlock: CEKHIL_clean_sbu_0, # of connection points: 4
#     Node 24, Type 0, BuildingBlock: CEKHIL_clean_sbu_0, # of connection points: 4
#     Node 25, Type 0, BuildingBlock: CEKHIL_clean_sbu_0, # of connection points: 4
#     Node 26, Type 0, BuildingBlock: CEKHIL_clean_sbu_0, # of connection points: 4
#     Node 27, Type 0, BuildingBlock: CEKHIL_clean_sbu_0, # of connection points: 4
#     Node 28, Type 0, BuildingBlock: CEKHIL_clean_sbu_0, # of connection points: 4
#     Node 29, Type 0, BuildingBlock: CEKHIL_clean_sbu_0, # of connection points: 4
#     Node 30, Type 0, BuildingBlock: CEKHIL_clean_sbu_0, # of connection points: 4
#     Node 31, Type 0, BuildingBlock: CEKHIL_clean_sbu_0, # of connection points: 4
#     Node 32, Type 0, BuildingBlock: CEKHIL_clean_sbu_0, # of connection points: 4
#     Node 33, Type 0, BuildingBlock: CEKHIL_clean_sbu_0, # of connection points: 4
#     Node 34, Type 0, BuildingBlock: CEKHIL_clean_sbu_0, # of connection points: 4
#     Node 35, Type 0, BuildingBlock: CEKHIL_clean_sbu_0, # of connection points: 4
#     Edge 36, Type (0, 0), BuildingBlock: EZIPEK_clean_linker_0, # of connection points: 2
#     Edge 37, Type (0, 0), BuildingBlock: EZIPEK_clean_linker_0, # of connection points: 2
#     Edge 38, Type (0, 0), BuildingBlock: EZIPEK_clean_linker_0, # of connection points: 2
#     Edge 39, Type (0, 0), BuildingBlock: EZIPEK_clean_linker_0, # of connection points: 2
#     Edge 40, Type (0, 0), BuildingBlock: EZIPEK_clean_linker_0, # of connection points: 2
#     Edge 41, Type (0, 0), BuildingBlock: EZIPEK_clean_linker_0, # of connection points: 2
#     Edge 42, Type (0, 0), BuildingBlock: EZIPEK_clean_linker_0, # of connection points: 2
#     Edge 43, Type (0, 0), BuildingBlock: EZIPEK_clean_linker_0, # of connection points: 2
#     Edge 44, Type (0, 0), BuildingBlock: EZIPEK_clean_linker_0, # of connection points: 2
#     Edge 45, Type (0, 0), BuildingBlock: EZIPEK_clean_linker_0, # of connection points: 2
#     Edge 46, Type (0, 0), BuildingBlock: EZIPEK_clean_linker_0, # of connection points: 2
#     Edge 47, Type (0, 0), BuildingBlock: EZIPEK_clean_linker_0, # of connection points: 2
#     Edge 48, Type (0, 0), BuildingBlock: EZIPEK_clean_linker_0, # of connection points: 2
#     Edge 49, Type (0, 0), BuildingBlock: EZIPEK_clean_linker_0, # of connection points: 2
#     Edge 50, Type (0, 0), BuildingBlock: EZIPEK_clean_linker_0, # of connection points: 2
#     Edge 51, Type (0, 0), BuildingBlock: EZIPEK_clean_linker_0, # of connection points: 2
#     Edge 52, Type (0, 0), BuildingBlock: EZIPEK_clean_linker_0, # of connection points: 2
#     Edge 53, Type (0, 0), BuildingBlock: EZIPEK_clean_linker_0, # of connection points: 2
#     Edge 54, Type (0, 0), BuildingBlock: EZIPEK_clean_linker_0, # of connection points: 2
#     Edge 55, Type (0, 0), BuildingBlock: EZIPEK_clean_linker_0, # of connection points: 2
#     Edge 56, Type (0, 0), BuildingBlock: EZIPEK_clean_linker_0, # of connection points: 2
#     Edge 57, Type (0, 0), BuildingBlock: EZIPEK_clean_linker_0, # of connection points: 2
#     Edge 58, Type (0, 0), BuildingBlock: EZIPEK_clean_linker_0, # of connection points: 2
#     Edge 59, Type (0, 0), BuildingBlock: EZIPEK_clean_linker_0, # of connection points: 2
#     Edge 60, Type (0, 0), BuildingBlock: EZIPEK_clean_linker_0, # of connection points: 2
#     Edge 61, Type (0, 0), BuildingBlock: EZIPEK_clean_linker_0, # of connection points: 2
#     Edge 62, Type (0, 0), BuildingBlock: EZIPEK_clean_linker_0, # of connection points: 2
#     Edge 63, Type (0, 0), BuildingBlock: EZIPEK_clean_linker_0, # of connection points: 2
#     Edge 64, Type (0, 0), BuildingBlock: EZIPEK_clean_linker_0, # of connection points: 2
#     Edge 65, Type (0, 0), BuildingBlock: EZIPEK_clean_linker_0, # of connection points: 2
#     Edge 66, Type (0, 0), BuildingBlock: EZIPEK_clean_linker_0, # of connection points: 2
#     Edge 67, Type (0, 0), BuildingBlock: EZIPEK_clean_linker_0, # of connection points: 2
#     Edge 68, Type (0, 0), BuildingBlock: EZIPEK_clean_linker_0, # of connection points: 2
#     Edge 69, Type (0, 0), BuildingBlock: EZIPEK_clean_linker_0, # of connection points: 2
#     Edge 70, Type (0, 0), BuildingBlock: EZIPEK_clean_linker_0, # of connection points: 2
#     Edge 71, Type (0, 0), BuildingBlock: EZIPEK_clean_linker_0, # of connection points: 2
#     Edge 72, Type (0, 0), BuildingBlock: EZIPEK_clean_linker_0, # of connection points: 2
#     Edge 73, Type (0, 0), BuildingBlock: EZIPEK_clean_linker_0, # of connection points: 2
#     Edge 74, Type (0, 0), BuildingBlock: EZIPEK_clean_linker_0, # of connection points: 2
#     Edge 75, Type (0, 0), BuildingBlock: EZIPEK_clean_linker_0, # of connection points: 2
#     Edge 76, Type (0, 0), BuildingBlock: EZIPEK_clean_linker_0, # of connection points: 2
#     Edge 77, Type (0, 0), BuildingBlock: EZIPEK_clean_linker_0, # of connection points: 2
#     Edge 78, Type (0, 0), BuildingBlock: EZIPEK_clean_linker_0, # of connection points: 2
#     Edge 79, Type (0, 0), BuildingBlock: EZIPEK_clean_linker_0, # of connection points: 2
#     Edge 80, Type (0, 0), BuildingBlock: EZIPEK_clean_linker_0, # of connection points: 2
#     Edge 81, Type (0, 0), BuildingBlock: EZIPEK_clean_linker_0, # of connection points: 2
#     Edge 82, Type (0, 0), BuildingBlock: EZIPEK_clean_linker_0, # of connection points: 2
#     Edge 83, Type (0, 0), BuildingBlock: EZIPEK_clean_linker_0, # of connection points: 2
#     Edge 84, Type (0, 0), BuildingBlock: EZIPEK_clean_linker_0, # of connection points: 2
#     Edge 85, Type (0, 0), BuildingBlock: EZIPEK_clean_linker_0, # of connection points: 2
#     Edge 86, Type (0, 0), BuildingBlock: EZIPEK_clean_linker_0, # of connection points: 2
#     Edge 87, Type (0, 0), BuildingBlock: EZIPEK_clean_linker_0, # of connection points: 2
#     Edge 88, Type (0, 0), BuildingBlock: EZIPEK_clean_linker_0, # of connection points: 2
#     Edge 89, Type (0, 0), BuildingBlock: EZIPEK_clean_linker_0, # of connection points: 2
#     Edge 90, Type (0, 0), BuildingBlock: EZIPEK_clean_linker_0, # of connection points: 2
#     Edge 91, Type (0, 0), BuildingBlock: EZIPEK_clean_linker_0, # of connection points: 2
#     Edge 92, Type (0, 0), BuildingBlock: EZIPEK_clean_linker_0, # of connection points: 2
#     Edge 93, Type (0, 0), BuildingBlock: EZIPEK_clean_linker_0, # of connection points: 2
#     Edge 94, Type (0, 0), BuildingBlock: EZIPEK_clean_linker_0, # of connection points: 2
#     Edge 95, Type (0, 0), BuildingBlock: EZIPEK_clean_linker_0, # of connection points: 2
#     Edge 96, Type (0, 0), BuildingBlock: EZIPEK_clean_linker_0, # of connection points: 2
#     Edge 97, Type (0, 0), BuildingBlock: EZIPEK_clean_linker_0, # of connection points: 2
#     Edge 98, Type (0, 0), BuildingBlock: EZIPEK_clean_linker_0, # of connection points: 2
#     Edge 99, Type (0, 0), BuildingBlock: EZIPEK_clean_linker_0, # of connection points: 2
#     Edge 100, Type (0, 0), BuildingBlock: EZIPEK_clean_linker_0, # of connection points: 2
#     Edge 101, Type (0, 0), BuildingBlock: EZIPEK_clean_linker_0, # of connection points: 2
#     Edge 102, Type (0, 0), BuildingBlock: EZIPEK_clean_linker_0, # of connection points: 2
#     Edge 103, Type (0, 0), BuildingBlock: EZIPEK_clean_linker_0, # of connection points: 2
#     Edge 104, Type (0, 0), BuildingBlock: EZIPEK_clean_linker_0, # of connection points: 2
#     Edge 105, Type (0, 0), BuildingBlock: EZIPEK_clean_linker_0, # of connection points: 2
#     Edge 106, Type (0, 0), BuildingBlock: EZIPEK_clean_linker_0, # of connection points: 2
#     Edge 107, Type (0, 0), BuildingBlock: EZIPEK_clean_linker_0, # of connection points: 2
# Relax obj value: 0.386
# Max RMSD: 0.183
# Mean RMSD: 0.177
data_MOF--net-unr--node1-CEKHIL_clean_sbu_0--edge1-EZIPEK_clean_linker_0
_symmetry_space_group_name_H-M    P1
_symmetry_Int_Tables_number       1
_symmetry_cell_setting            triclinic
loop_
_symmetry_equiv_pos_as_xyz
'x, y, z'
_cell_length_a     35.771061
_cell_length_b     35.75421
_cell_length_c     72.355794
_cell_angle_alpha  90.04612
_cell_angle_beta   89.970519
_cell_angle_gamma 120.07506
loop_
_atom_site_label
_atom_site_type_symbol
_atom_site_fract_x
_atom_site_fract_y
_atom_site_fract_z
_atom_type_partial_charge
Co0 Co 0.20227 0.11619 0.18438 0.0
O1 O 0.24661 0.10183 0.18763 0.0
O2 O 0.23513 0.1277 0.16187 0.0
C3 C 0.21439 0.15372 0.21093 0.0
O4 O 0.15905 0.13404 0.17597 0.0
Co5 Co 0.12634 0.0818 0.21248 0.0
O6 O 0.11406 0.12347 0.19964 0.0
C7 C 0.13049 0.0229 0.18486 0.0
C8 C 0.2579 0.11429 0.17071 0.0
C9 C 0.12847 0.13773 0.1835 0.0
O10 O 0.16183 0.05484 0.17645 0.0
O11 O 0.11431 0.02645 0.2001 0.0
O12 O 0.23753 0.17248 0.19639 0.0
O13 O 0.18814 0.11272 0.20947 0.0
Co14 Co 0.8769 0.06293 0.18806 0.0
O15 O 0.88912 0.11905 0.19558 0.0
O16 O 0.86155 0.08898 0.16835 0.0
C17 C 0.84328 0.03018 0.21445 0.0
O18 O 0.85968 0.00496 0.176 0.0
Co19 Co 0.9173 0.01778 0.21034 0.0
O20 O 0.87304 0.96644 0.19683 0.0
C21 C 0.97068 0.08772 0.18404 0.0
C22 C 0.87387 0.12142 0.17968 0.0
C23 C 0.85642 0.96939 0.1817 0.0
O24 O 0.93733 0.08859 0.17812 0.0
O25 O 0.96995 0.0641 0.19748 0.0
O26 O 0.82205 0.03647 0.20147 0.0
O27 O 0.88422 0.04673 0.21176 0.0
Co28 Co 0.91921 0.78856 0.18777 0.0
O29 O 0.86208 0.74373 0.19316 0.0
O30 O 0.8962 0.7499 0.16672 0.0
C31 C 0.94744 0.78376 0.21493 0.0
O32 O 0.97939 0.8322 0.17807 0.0
Co33 Co 0.95781 0.87015 0.21291 0.0
O34 O 0.01206 0.88175 0.20059 0.0
C35 C 0.89359 0.85703 0.18419 0.0
C36 C 0.86167 0.72865 0.17686 0.0
C37 C 0.01289 0.86504 0.18513 0.0
O38 O 0.89519 0.82452 0.17769 0.0
O39 O 0.91345 0.87751 0.19882 0.0
O40 O 0.94324 0.75812 0.20139 0.0
O41 O 0.93096 0.80817 0.2122 0.0
Co42 Co 0.14203 0.19626 0.30668 0.0
O43 O 0.13698 0.24648 0.30295 0.0
O44 O 0.15706 0.22925 0.32925 0.0
C45 C 0.17774 0.20242 0.28011 0.0
O46 O 0.15156 0.14753 0.31543 0.0
Co47 Co 0.09826 0.11934 0.27921 0.0
O48 O 0.13511 0.10052 0.29202 0.0
C49 C 0.04559 0.1324 0.30719 0.0
C50 C 0.14902 0.25566 0.32003 0.0
C51 C 0.15059 0.11431 0.30808 0.0
O52 O 0.07979 0.16282 0.31479 0.0
O53 O 0.04582 0.11331 0.29225 0.0
O54 O 0.19872 0.22459 0.29455 0.0
O55 O 0.13626 0.18081 0.2817 0.0
Co56 Co 0.80759 0.92615 0.31298 0.0
O57 O 0.76092 0.86863 0.30992 0.0
O58 O 0.77195 0.90869 0.33494 0.0
C59 C 0.80087 0.95024 0.28518 0.0
O60 O 0.85396 0.98744 0.32035 0.0
Co61 Co 0.88561 0.95675 0.28605 0.0
O62 O 0.90145 0.01385 0.29675 0.0
C63 C 0.87183 0.89542 0.31617 0.0
C64 C 0.74851 0.87215 0.32631 0.0
C65 C 0.88688 0.01855 0.31214 0.0
O66 O 0.84296 0.90198 0.32344 0.0
O67 O 0.88996 0.91117 0.30061 0.0
O68 O 0.77694 0.94922 0.29888 0.0
O69 O 0.82416 0.93268 0.28824 0.0
Co70 Co 0.06406 0.85772 0.31089 0.0
O71 O 0.11962 0.86793 0.3038 0.0
O72 O 0.08972 0.8437 0.33133 0.0
C73 C 0.03069 0.82215 0.28485 0.0
O74 O 0.00681 0.84355 0.32273 0.0
Co75 Co 0.01989 0.89709 0.28695 0.0
O76 O 0.96856 0.85565 0.3013 0.0
C77 C 0.09164 0.95232 0.31226 0.0
C78 C 0.12222 0.85476 0.32017 0.0
C79 C 0.97161 0.84095 0.31694 0.0
O80 O 0.0911 0.91929 0.31948 0.0
O81 O 0.06833 0.95048 0.29849 0.0
O82 O 0.03623 0.80147 0.29833 0.0
O83 O 0.04808 0.8633 0.28695 0.0
Co84 Co 0.80168 0.8819 0.81342 0.0
O85 O 0.74386 0.86262 0.80504 0.0
O86 O 0.76711 0.82083 0.8168 0.0
C87 C 0.80945 0.93909 0.82991 0.0
O88 O 0.85657 0.88828 0.82427 0.0
Co89 Co 0.87933 0.97224 0.80358 0.0
O90 O 0.91378 0.95405 0.81886 0.0
C91 C 0.84733 0.90109 0.77642 0.0
C92 C 0.7349 0.82463 0.81092 0.0
C93 C 0.89701 0.91585 0.82535 0.0
O94 O 0.82065 0.8739 0.78823 0.0
O95 O 0.86884 0.94198 0.77915 0.0
O96 O 0.78903 0.90054 0.83694 0.0
O97 O 0.8209 0.94112 0.81287 0.0
Co98 Co 0.10867 0.939 0.81913 0.0
O99 O 0.11455 0.88906 0.81646 0.0
O100 O 0.1643 0.95202 0.82837 0.0
C101 C 0.04113 0.90272 0.83088 0.0
O102 O 0.11364 0.99666 0.82522 0.0
Co103 Co 0.03632 0.94714 0.7988 0.0
O104 O 0.05121 0.99334 0.81741 0.0
C105 C 0.11277 0.95794 0.77832 0.0
C106 C 0.15187 0.91203 0.82434 0.0
C107 C 0.0875 0.01134 0.82571 0.0
O108 O 0.13229 0.95855 0.79338 0.0
O109 O 0.07384 0.95038 0.77763 0.0
O110 O 0.07411 0.91464 0.84175 0.0
O111 O 0.05017 0.91094 0.81362 0.0
Co112 Co 0.02253 0.16971 0.82388 0.0
O113 O 0.07409 0.21994 0.81615 0.0
O114 O 0.01985 0.22039 0.83096 0.0
C115 C 0.05848 0.13892 0.8357 0.0
O116 O 0.96477 0.12322 0.83437 0.0
Co117 Co 0.0 0.07957 0.80844 0.0
O118 O 0.95807 0.05816 0.82905 0.0
C119 C 0.99071 0.14283 0.78527 0.0
C120 C 0.05857 0.24178 0.82396 0.0
C121 C 0.94532 0.08199 0.83663 0.0
O122 O -0.00426 0.16706 0.79924 0.0
O123 O 0.99459 0.10915 0.78589 0.0
O124 O 0.05283 0.16574 0.84575 0.0
O125 O 0.0439 0.13302 0.81907 0.0
Co126 Co 0.91672 0.81912 0.67552 0.0
O127 O 0.93049 0.78247 0.69005 0.0
O128 O 0.86633 0.76228 0.67832 0.0
C129 C 0.97362 0.83824 0.65423 0.0
O130 O 0.89547 0.85063 0.66068 0.0
Co131 Co 0.95706 0.85941 0.69176 0.0
O132 O 0.94411 0.90242 0.6781 0.0
C133 C 0.90504 0.83887 0.71496 0.0
C134 C 0.89149 0.75171 0.68703 0.0
C135 C 0.91516 0.8901 0.66553 0.0
O136 O 0.89251 0.8365 0.69827 0.0
O137 O 0.93973 0.83866 0.7174 0.0
O138 O 0.93763 0.80297 0.65366 0.0
O139 O 0.9789 0.86499 0.66722 0.0
Co140 Co 0.17664 0.04233 0.66803 0.0
O141 O 0.2228 0.09254 0.67919 0.0
O142 O 0.2302 0.04385 0.66292 0.0
C143 C 0.14648 0.07904 0.65617 0.0
O144 O 0.1368 0.98759 0.65369 0.0
Co145 Co 0.08142 0.00923 0.67804 0.0
O146 O 0.07025 0.97851 0.65405 0.0
C147 C 0.13913 -0.00171 0.70412 0.0
C148 C 0.248 0.08058 0.67168 0.0
C149 C 0.09795 0.96958 0.64751 0.0
O150 O 0.1682 0.00915 0.69156 0.0
O151 O 0.10395 -0.0011 0.70181 0.0
O152 O 0.17723 0.07774 0.64723 0.0
O153 O 0.13598 0.05957 0.67191 0.0
Co154 Co 0.93675 0.10783 0.67158 0.0
O155 O 0.88156 0.10169 0.67641 0.0
O156 O 0.93617 0.15812 0.66243 0.0
C157 C 0.91009 0.04026 0.66059 0.0
O158 O -0.00229 0.12412 0.66363 0.0
Co159 Co 0.96365 0.04819 0.69204 0.0
O160 O 0.00984 0.0711 0.67311 0.0
C161 C 0.96211 0.11985 0.71171 0.0
C162 C 0.89639 0.13868 0.66825 0.0
C163 C 0.02024 0.10523 0.66383 0.0
O164 O 0.95751 0.13562 0.6965 0.0
O165 O 0.96166 0.08392 0.71293 0.0
O166 O 0.91353 0.07064 0.64969 0.0
O167 O 0.91985 0.05101 0.67764 0.0
Co168 Co 0.8601 0.46637 0.52805 0.0
O169 O 0.90988 0.45994 0.53088 0.0
O170 O 0.89186 0.48102 0.50513 0.0
C171 C 0.87023 0.50277 0.55486 0.0
O172 O 0.81239 0.4783 0.52001 0.0
Co173 Co 0.7849 0.42674 0.55623 0.0
O174 O 0.76737 0.46507 0.54387 0.0
C175 C 0.79246 0.37081 0.52798 0.0
C176 C 0.91895 0.47329 0.51394 0.0
C177 C 0.78063 0.47961 0.52767 0.0
O178 O 0.82406 0.40384 0.52013 0.0
O179 O 0.77479 0.37292 0.54304 0.0
O180 O 0.89103 0.52305 0.54006 0.0
O181 O 0.84672 0.46133 0.55338 0.0
Co182 Co 0.52771 0.41222 0.52556 0.0
O183 O 0.53985 0.4695 0.53062 0.0
O184 O 0.51315 0.43498 0.50414 0.0
C185 C 0.49353 0.38549 0.55259 0.0
O186 O 0.51109 0.3522 0.51586 0.0
Co187 Co 0.56504 0.36964 0.55167 0.0
O188 O 0.52255 0.31641 0.53868 0.0
C189 C 0.62112 0.43595 0.52432 0.0
C190 C 0.5252 0.46935 0.51426 0.0
C191 C 0.50777 0.31751 0.52279 0.0
O192 O 0.5887 0.43584 0.51665 0.0
O193 O 0.61863 0.41467 0.53894 0.0
O194 O 0.47236 0.38847 0.53864 0.0
O195 O 0.53426 0.40075 0.55012 0.0
Co196 Co 0.57388 0.13192 0.51698 0.0
O197 O 0.51546 0.08612 0.51711 0.0
O198 O 0.55803 0.10563 0.49266 0.0
C199 C 0.5935 0.11108 0.54285 0.0
O200 O 0.63677 0.1795 0.51266 0.0
Co201 Co 0.60246 0.19584 0.55026 0.0
O202 O 0.66036 0.21751 0.53921 0.0
C203 C 0.54696 0.19916 0.52085 0.0
C204 C 0.5206 0.07917 0.50004 0.0
C205 C 0.66678 0.20927 0.52274 0.0
O206 O 0.55295 0.17304 0.51082 0.0
O207 O 0.5605 0.20911 0.5375 0.0
O208 O 0.59332 0.09383 0.52708 0.0
O209 O 0.57761 0.1365 0.54268 0.0
Co210 Co 0.8111 0.52855 0.65487 0.0
O211 O 0.81712 0.58365 0.65971 0.0
O212 O 0.82933 0.54455 0.68017 0.0
C213 C 0.84643 0.54616 0.62745 0.0
O214 O 0.80901 0.47074 0.65436 0.0
Co215 Co 0.75817 0.47691 0.62035 0.0
O216 O 0.7818 0.43897 0.62691 0.0
C217 C 0.71312 0.48084 0.65386 0.0
C218 C 0.82848 0.57962 0.67627 0.0
C219 C 0.79889 0.44028 0.64254 0.0
O220 O 0.74887 0.49985 0.66281 0.0
O221 O 0.71048 0.47242 0.63655 0.0
O222 O 0.86779 0.55571 0.64287 0.0
O223 O 0.80539 0.53074 0.62928 0.0
Co224 Co 0.47336 0.28593 0.65004 0.0
O225 O 0.42542 0.23186 0.64362 0.0
O226 O 0.4363 0.26186 0.67148 0.0
C227 C 0.46853 0.31924 0.62457 0.0
O228 O 0.52071 0.34252 0.66099 0.0
Co229 Co 0.55242 0.32376 0.62385 0.0
O230 O 0.56967 0.37675 0.6385 0.0
C231 C 0.53354 0.25018 0.64821 0.0
C232 C 0.41243 0.22973 0.66045 0.0
C233 C 0.55446 0.37588 0.65454 0.0
O234 O 0.50556 0.25555 0.65705 0.0
O235 O 0.55321 0.27156 0.63372 0.0
O236 O 0.44579 0.31604 0.63907 0.0
O237 O 0.49083 0.30002 0.62548 0.0
Co238 Co 0.70367 0.17378 0.6373 0.0
O239 O 0.75716 0.17727 0.6316 0.0
O240 O 0.72575 0.1607 0.65925 0.0
C241 C 0.66953 0.1352 0.61212 0.0
O242 O 0.64796 0.16752 0.64775 0.0
Co243 Co 0.66719 0.2148 0.60991 0.0
O244 O 0.61397 0.18058 0.62469 0.0
C245 C 0.73864 0.26998 0.63535 0.0
C246 C 0.75786 0.16688 0.64867 0.0
C247 C 0.61497 0.16827 0.64113 0.0
O248 O 0.7352 0.23682 0.64375 0.0
O249 O 0.71716 0.268 0.62087 0.0
O250 O 0.67191 0.11548 0.62675 0.0
O251 O 0.6902 0.17676 0.61275 0.0
Co252 Co 0.48191 0.21835 0.14704 0.0
O253 O 0.42493 0.19864 0.1376 0.0
O254 O 0.44979 0.15643 0.14726 0.0
C255 C 0.48396 0.269 0.16642 0.0
O256 O 0.53648 0.22539 0.15836 0.0
Co257 Co 0.55636 0.31263 0.14137 0.0
O258 O 0.59168 0.29355 0.15558 0.0
C259 C 0.52742 0.25151 0.1105 0.0
C260 C 0.41725 0.15999 0.14165 0.0
C261 C 0.5761 0.25439 0.1607 0.0
O262 O 0.50587 0.21966 0.12161 0.0
O263 O 0.54118 0.29078 0.11525 0.0
O264 O 0.46437 0.22868 0.17133 0.0
O265 O 0.49757 0.27636 0.14958 0.0
Co266 Co 0.78718 0.27782 0.15907 0.0
O267 O 0.79222 0.22794 0.1548 0.0
O268 O 0.84185 0.28836 0.16857 0.0
C269 C 0.71883 0.24053 0.16958 0.0
O270 O 0.7922 0.3349 0.16669 0.0
Co271 Co 0.71693 0.28941 0.13854 0.0
O272 O 0.73143 0.33404 0.15783 0.0
C273 C 0.79443 0.30099 0.1188 0.0
C274 C 0.82918 0.24912 0.1631 0.0
C275 C 0.76666 0.35038 0.16692 0.0
O276 O 0.81303 0.3009 0.13401 0.0
O277 O 0.75546 0.29318 0.11772 0.0
O278 O 0.75061 0.25022 0.18092 0.0
O279 O 0.72953 0.25141 0.15264 0.0
Co280 Co 0.68698 0.49141 0.16209 0.0
O281 O 0.73551 0.5422 0.15232 0.0
O282 O 0.6798 0.54063 0.16658 0.0
C283 C 0.72892 0.46933 0.17561 0.0
O284 O 0.63199 0.44538 0.17454 0.0
Co285 Co 0.66926 0.39908 0.15297 0.0
O286 O 0.63229 0.38298 0.17528 0.0
C287 C 0.64656 0.44762 0.12616 0.0
C288 C 0.71821 0.5632 0.15944 0.0
C289 C 0.6164 0.40632 0.18022 0.0
O290 O 0.65627 0.47867 0.13766 0.0
O291 O 0.65177 0.41529 0.12931 0.0
O292 O 0.72114 0.4966 0.18418 0.0
O293 O 0.71223 0.45724 0.15943 0.0
Co294 Co 0.58322 0.17614 0.00521 0.0
O295 O 0.59035 0.13435 0.01895 0.0
O296 O 0.53014 0.12137 0.00472 0.0
C297 C 0.64518 0.20102 0.98909 0.0
O298 O 0.56381 0.2108 0.9899 0.0
Co299 Co 0.65032 0.27353 0.00915 0.0
O300 O 0.6141 0.28125 0.99036 0.0
C301 C 0.58991 0.2265 0.03942 0.0
C302 C 0.55144 0.10653 0.01375 0.0
C303 C 0.57752 0.25018 0.98519 0.0
O304 O 0.56604 0.19551 0.0283 0.0
O305 O 0.62864 0.25521 0.0352 0.0
O306 O 0.61053 0.1668 0.98341 0.0
O307 O 0.64196 0.21691 0.00458 0.0
Co308 Co 0.84737 0.40451 0.01299 0.0
O309 O 0.88327 0.45462 0.02734 0.0
O310 O 0.90685 0.42216 0.00823 0.0
C311 C 0.80485 0.42919 0.00283 0.0
O312 O 0.818 0.35216 0.99586 0.0
Co313 Co 0.75007 0.35041 0.02328 0.0
O314 O 0.7466 0.32727 0.99806 0.0
C315 C 0.81662 0.34839 0.04682 0.0
C316 C 0.91541 0.45395 0.01951 0.0
C317 C 0.77894 0.32827 0.99012 0.0
O318 O 0.84527 0.36737 0.03422 0.0
O319 O 0.77789 0.34136 0.04563 0.0
O320 O 0.84068 0.44011 0.99421 0.0
O321 O 0.79779 0.40694 0.01773 0.0
Co322 Co 0.56878 0.42378 0.01302 0.0
O323 O 0.51858 0.42778 0.01804 0.0
O324 O 0.58282 0.4827 0.00988 0.0
C325 C 0.5353 0.36411 0.99495 0.0
O326 O 0.62707 0.43231 0.00586 0.0
Co327 Co 0.57496 0.34395 0.02542 0.0
O328 O 0.62921 0.3714 0.01069 0.0
C329 C 0.58561 0.40987 0.05268 0.0
C330 C 0.54244 0.46834 0.01381 0.0
C331 C 0.64623 0.41025 0.00494 0.0
O332 O 0.58624 0.43478 0.03975 0.0
O333 O 0.5774 0.37111 0.05003 0.0
O334 O 0.5476 0.40206 0.98808 0.0
O335 O 0.54047 0.36345 0.01258 0.0
Co336 Co 0.53766 0.79486 0.86616 0.0
O337 O 0.58307 0.78178 0.86589 0.0
O338 O 0.56214 0.80405 0.84165 0.0
C339 C 0.55794 0.83619 0.89183 0.0
O340 O 0.49043 0.81009 0.86183 0.0
Co341 Co 0.47351 0.75871 0.89921 0.0
O342 O 0.45046 0.79344 0.88782 0.0
C343 C 0.46857 0.70031 0.8694 0.0
C344 C 0.58791 0.79174 0.84852 0.0
C345 C 0.45958 0.80896 0.87149 0.0
O346 O 0.49606 0.73284 0.85996 0.0
O347 O 0.45797 0.70309 0.88604 0.0
O348 O 0.576 0.85258 0.87609 0.0
O349 O 0.53306 0.79467 0.89194 0.0
Co350 Co 0.19938 0.73391 0.86233 0.0
O351 O 0.20839 0.79006 0.86782 0.0
O352 O 0.19198 0.75908 0.8401 0.0
C353 C 0.15581 0.70197 0.88674 0.0
O354 O 0.1869 0.67627 0.85153 0.0
Co355 Co 0.22789 0.68691 0.8899 0.0
O356 O 0.19085 0.63591 0.87433 0.0
C357 C 0.29285 0.7587 0.86695 0.0
C358 C 0.19912 0.79154 0.85062 0.0
C359 C 0.18123 0.64024 0.85782 0.0
O360 O 0.26306 0.75975 0.85745 0.0
O361 O 0.28554 0.73459 0.88114 0.0
O362 O 0.14001 0.70739 0.8715 0.0
O363 O 0.1971 0.718 0.88715 0.0
Co364 Co 0.25481 0.46278 0.85678 0.0
O365 O 0.19776 0.41598 0.85916 0.0
O366 O 0.23762 0.4302 0.83378 0.0
C367 C 0.27645 0.45003 0.88396 0.0
O368 O 0.3164 0.51039 0.85071 0.0
Co369 Co 0.28391 0.53499 0.88667 0.0
O370 O 0.3414 0.55062 0.87662 0.0
C371 C 0.22622 0.52902 0.85615 0.0
C372 C 0.20147 0.40547 0.84248 0.0
C373 C 0.34712 0.54026 0.86042 0.0
O374 O 0.23131 0.50008 0.84799 0.0
O375 O 0.24158 0.54449 0.87213 0.0
O376 O 0.2772 0.42959 0.8693 0.0
O377 O 0.25961 0.4743 0.88198 0.0
Co378 Co 0.47817 0.87828 0.98127 0.0
O379 O 0.48269 0.93373 0.98271 0.0
O380 O 0.48426 0.896 0.00682 0.0
C381 C 0.52538 0.89474 0.95778 0.0
O382 O 0.47552 0.82081 0.98515 0.0
Co383 Co 0.44547 0.82264 0.94531 0.0
O384 O 0.46598 0.78703 0.95794 0.0
C385 C 0.38312 0.8243 0.97188 0.0
C386 C 0.48653 0.93104 0.00042 0.0
C387 C 0.47297 0.78975 0.9753 0.0
O388 O 0.41347 0.84894 0.98308 0.0
O389 O 0.38966 0.81316 0.95591 0.0
O390 O 0.53952 0.90524 0.9746 0.0
O391 O 0.48439 0.87847 0.95568 0.0
Co392 Co 0.12711 0.6172 0.98436 0.0
O393 O 0.07393 0.56641 0.98941 0.0
O394 O 0.11259 0.61832 0.00992 0.0
C395 C 0.10705 0.63374 0.95749 0.0
O396 O 0.18303 0.67458 0.98362 0.0
Co397 Co 0.17889 0.61888 0.94954 0.0
O398 O 0.21777 0.6799 0.95695 0.0
C399 C 0.17466 0.56745 0.98199 0.0
C400 C 0.07886 0.58108 0.00616 0.0
C401 C 0.2146 0.69538 0.97238 0.0
O402 O 0.1582 0.58577 0.99155 0.0
O403 O 0.18121 0.57282 0.96455 0.0
O404 O 0.09715 0.64452 0.97311 0.0
O405 O 0.12415 0.6095 0.95882 0.0
Co406 Co 0.36583 0.5228 0.9818 0.0
O407 O 0.42202 0.53219 0.97702 0.0
O408 O 0.38812 0.51104 0.00401 0.0
C409 C 0.33727 0.48376 0.95615 0.0
O410 O 0.30703 0.51012 0.9912 0.0
Co411 Co 0.32474 0.55751 0.95375 0.0
O412 O 0.27126 0.51663 0.96707 0.0
C413 C 0.39461 0.61701 0.97897 0.0
C414 C 0.42159 0.5197 0.99383 0.0
C415 C 0.27232 0.50525 0.98367 0.0
O416 O 0.39189 0.58536 0.98838 0.0
O417 O 0.37337 0.61267 0.96411 0.0
O418 O 0.33999 0.46499 0.971 0.0
O419 O 0.35388 0.52508 0.95695 0.0
Co420 Co 0.15857 0.52977 0.48861 0.0
O421 O 0.11285 0.53957 0.48087 0.0
O422 O 0.10748 0.49387 0.50293 0.0
C423 C 0.21016 0.60009 0.49003 0.0
O424 O 0.19944 0.51325 0.50128 0.0
Co425 Co 0.2395 0.55844 0.46364 0.0
O426 O 0.26277 0.54557 0.48592 0.0
C427 C 0.15456 0.48657 0.45243 0.0
C428 C 0.08957 0.51152 0.49339 0.0
C429 C 0.23951 0.52421 0.49963 0.0
O430 O 0.13998 0.48342 0.46896 0.0
O431 O 0.19194 0.51644 0.4473 0.0
O432 O 0.18331 0.58242 0.50368 0.0
O433 O 0.20234 0.57592 0.47566 0.0
Co434 Co 0.45157 0.63766 0.50154 0.0
O435 O 0.45176 0.58759 0.49228 0.0
O436 O 0.50868 0.64523 0.50411 0.0
C437 C 0.38997 0.59748 0.5177 0.0
O438 O 0.46409 0.69484 0.51279 0.0
Co439 Co 0.37715 0.65564 0.49453 0.0
O440 O 0.40452 0.70004 0.51402 0.0
C441 C 0.44296 0.67459 0.46548 0.0
C442 C 0.49155 0.60601 0.49775 0.0
C443 C 0.44421 0.71471 0.51777 0.0
O444 O 0.46528 0.66494 0.47636 0.0
O445 O 0.40616 0.67014 0.46968 0.0
O446 O 0.42694 0.60687 0.52479 0.0
O447 O 0.39118 0.6119 0.50124 0.0
Co448 Co 0.41911 0.85816 0.47229 0.0
O449 O 0.45477 0.91775 0.46585 0.0
O450 O 0.38454 0.88552 0.47158 0.0
C451 C 0.46337 0.85586 0.49422 0.0
O452 O 0.37239 0.79816 0.47963 0.0
Co453 Co 0.45287 0.79454 0.46501 0.0
O454 O 0.39772 0.75194 0.47717 0.0
C455 C 0.4173 0.82073 0.43436 0.0
C456 C 0.42046 0.92095 0.46803 0.0
C457 C 0.36803 0.76043 0.48118 0.0
O458 O 0.40555 0.8405 0.44573 0.0
O459 O 0.44267 0.80667 0.43886 0.0
O460 O 0.43786 0.87079 0.49802 0.0
O461 O 0.46472 0.84776 0.47688 0.0
Co462 Co 0.18635 0.48808 0.34553 0.0
O463 O 0.20051 0.44512 0.35259 0.0
O464 O 0.14885 0.43488 0.33271 0.0
C465 C 0.2554 0.5397 0.3408 0.0
O466 O 0.16453 0.52591 0.33397 0.0
Co467 Co 0.21859 0.57063 0.36906 0.0
O468 O 0.19806 0.59072 0.3481 0.0
C469 C 0.15069 0.48683 0.38335 0.0
C470 C 0.17067 0.4198 0.34114 0.0
C471 C 0.17377 0.56553 0.33543 0.0
O472 O 0.14497 0.47022 0.36711 0.0
O473 O 0.18061 0.52522 0.38722 0.0
O474 O 0.23388 0.51203 0.32786 0.0
O475 O 0.23574 0.53379 0.35643 0.0
Co476 Co 0.51908 0.7451 0.35283 0.0
O477 O 0.57783 0.78756 0.35741 0.0
O478 O 0.55404 0.71807 0.35199 0.0
C479 C 0.50688 0.78501 0.33194 0.0
O480 O 0.46112 0.69238 0.34685 0.0
Co481 Co 0.44675 0.76644 0.36203 0.0
O482 O 0.4105 0.71195 0.34809 0.0
C483 C 0.48638 0.74205 0.39189 0.0
C484 C 0.58647 0.7569 0.35451 0.0
C485 C 0.42208 0.68419 0.34485 0.0
O486 O 0.50759 0.73292 0.38009 0.0
O487 O 0.4638 0.75942 0.38764 0.0
O488 O 0.52496 0.76301 0.32682 0.0
O489 O 0.50067 0.785 0.34949 0.0
Co490 Co 0.28279 0.77546 0.3307 0.0
O491 O 0.23874 0.78294 0.3421 0.0
O492 O 0.29616 0.83431 0.32752 0.0
C493 C 0.23532 0.71308 0.31647 0.0
O494 O 0.33405 0.78027 0.31683 0.0
Co495 Co 0.29043 0.69489 0.33976 0.0
O496 O 0.34496 0.72605 0.32533 0.0
C497 C 0.31531 0.76322 0.36687 0.0
C498 C 0.25895 0.82169 0.33531 0.0
C499 C 0.35702 0.76201 0.31724 0.0
O500 O 0.31721 0.78955 0.3543 0.0
O501 O 0.29371 0.72226 0.36453 0.0
O502 O 0.2451 0.74981 0.30894 0.0
O503 O 0.25225 0.71542 0.3324 0.0
C504 C 0.08615 0.17405 0.18053 0.0
C505 C 0.10099 0.1485 0.17202 0.0
C506 C 0.02818 0.09686 0.16203 0.0
C507 C 0.01272 0.11538 0.17513 0.0
N508 N 0.02457 0.17686 0.19323 0.0
N509 N 0.0911 0.10248 0.14632 0.0
C510 C 0.04097 0.15653 0.18284 0.0
C511 C 0.07349 0.11594 0.1596 0.0
N512 N 0.11587 0.21384 0.1869 0.0
N513 N -0.00024 0.05971 0.15309 0.0
H514 H 0.12455 0.11727 0.14469 0.0
H515 H 0.0731 0.07996 0.13616 0.0
H516 H 0.9664 0.04631 0.1544 0.0
H517 H 0.00909 0.04198 0.1448 0.0
H518 H 0.10826 0.23536 0.1932 0.0
H519 H 0.14866 0.22608 0.18425 0.0
H520 H 0.04345 0.20545 0.20045 0.0
H521 H 0.99136 0.16457 0.19454 0.0
C522 C 0.8741 0.93483 0.15748 0.0
C523 C 0.84141 0.93222 0.16912 0.0
C524 C 0.82741 0.86283 0.18083 0.0
C525 C 0.86865 0.87303 0.17413 0.0
N526 N 0.92621 0.91113 0.15224 0.0
N527 N 0.77225 0.8839 0.18172 0.0
C528 C 0.88983 0.90595 0.16069 0.0
C529 C 0.81247 0.89204 0.17704 0.0
N530 N 0.89176 0.96705 0.1447 0.0
N531 N 0.8045 0.82725 0.19168 0.0
H532 H 0.7626 0.9064 0.17872 0.0
H533 H 0.74831 0.85459 0.1871 0.0
H534 H 0.81489 0.80509 0.19405 0.0
H535 H 0.77594 0.82014 0.19839 0.0
H536 H 0.91536 0.97087 0.13525 0.0
H537 H 0.87999 0.98833 0.14302 0.0
H538 H 0.94553 0.93677 0.14351 0.0
H539 H 0.93687 0.88909 0.15417 0.0
C540 C 0.1215 0.94916 0.18491 0.0
C541 C 0.1116 0.97923 0.1768 0.0
C542 C 0.04905 0.92013 0.16146 0.0
C543 C 0.05199 0.89144 0.17388 0.0
N544 N 0.09933 0.87313 0.18926 0.0
N545 N 0.07115 0.99491 0.1546 0.0
C546 C 0.09171 0.90433 0.18267 0.0
C547 C 0.07768 0.96524 0.1637 0.0
N548 N 0.15782 0.96371 0.19547 0.0
N549 N 0.0178 0.90383 0.14823 0.0
H550 H 0.09258 0.02805 0.15576 0.0
H551 H 0.04431 0.98687 0.14636 0.0
H552 H -0.00278 0.87053 0.14683 0.0
H553 H 0.01482 0.92248 0.13792 0.0
H554 H 0.16541 0.94368 0.20303 0.0
H555 H 0.18052 0.99657 0.19665 0.0
H556 H 0.12779 0.87916 0.19572 0.0
H557 H 0.07743 0.8406 0.18659 0.0
C558 C 0.181 0.06637 0.31119 0.0
C559 C 0.15829 0.08462 0.31957 0.0
C560 C 0.10553 0.0148 0.33212 0.0
C561 C 0.12146 0.9955 0.31968 0.0
N562 N 0.17993 0.00069 0.30133 0.0
N563 N 0.11636 0.08168 0.34587 0.0
C564 C 0.16186 0.0207 0.31085 0.0
C565 C 0.12662 0.06056 0.33295 0.0
N566 N 0.21971 0.09332 0.3031 0.0
N567 N 0.06878 0.98946 0.34197 0.0
H568 H 0.13288 0.11538 0.34657 0.0
H569 H 0.09501 0.0662 0.35673 0.0
H570 H 0.05387 0.9558 0.34186 0.0
H571 H 0.05271 0.00159 0.34974 0.0
H572 H 0.23887 0.08326 0.29638 0.0
H573 H 0.23366 0.1267 0.30458 0.0
H574 H 0.20815 0.01685 0.2936 0.0
H575 H 0.16637 0.96716 0.30146 0.0
C576 C 0.92832 0.09759 0.31219 0.0
C577 C 0.9159 0.05916 0.32201 0.0
C578 C 0.99075 0.0851 0.33061 0.0
C579 C 0.00343 0.11656 0.31641 0.0
N580 N 0.98643 0.1601 0.29669 0.0
N581 N 0.93094 0.02704 0.34769 0.0
C582 C 0.97284 0.12587 0.30845 0.0
C583 C 0.94589 0.05717 0.33396 0.0
N584 N 0.89692 0.10558 0.30625 0.0
N585 N 0.02132 0.0801 0.33975 0.0
H586 H 0.89784 0.007 0.3499 0.0
H587 H 0.95053 0.02417 0.35754 0.0
H588 H 0.05425 0.10131 0.33785 0.0
H589 H 0.01434 0.05512 0.34897 0.0
H590 H 0.9028 0.13345 0.29927 0.0
H591 H 0.86482 0.08506 0.3101 0.0
H592 H 0.96565 0.16667 0.28913 0.0
H593 H 0.01918 0.1819 0.29446 0.0
C594 C 0.91993 0.88681 0.33857 0.0
C595 C 0.88487 0.8678 0.326 0.0
C596 C 0.89448 0.80539 0.32268 0.0
C597 C 0.93621 0.83096 0.32999 0.0
N598 N 0.97695 0.88022 0.35405 0.0
N599 N 0.83081 0.8044 0.31019 0.0
C600 C 0.94418 0.86582 0.34154 0.0
C601 C 0.86875 0.82482 0.31977 0.0
N602 N 0.93162 0.92593 0.34636 0.0
N603 N 0.88189 0.76421 0.3174 0.0
H604 H 0.81139 0.8183 0.30847 0.0
H605 H 0.8186 0.77414 0.30408 0.0
H606 H 0.90205 0.75133 0.3197 0.0
H607 H 0.85158 0.74268 0.31203 0.0
H608 H 0.95945 0.94358 0.35422 0.0
H609 H 0.91323 0.94089 0.34458 0.0
H610 H 0.98404 0.90485 0.36351 0.0
H611 H 0.99475 0.86453 0.35565 0.0
C612 C 0.95371 0.91962 0.84709 0.0
C613 C 0.92618 0.90023 0.83161 0.0
C614 C 0.96361 0.86035 0.82465 0.0
C615 C -0.0037 0.88744 0.83704 0.0
N616 N 0.01048 0.92204 0.86651 0.0
N617 N 0.90306 0.84934 0.806 0.0
C618 C 0.9877 0.91072 0.85041 0.0
C619 C 0.92949 0.86849 0.82087 0.0
N620 N 0.94844 0.94776 0.85802 0.0
N621 N 0.96653 0.82774 0.81621 0.0
H622 H 0.87781 0.8543 0.80233 0.0
H623 H 0.90776 0.83039 0.7964 0.0
H624 H 0.99203 0.82228 0.8191 0.0
H625 H 0.94227 0.80406 0.80803 0.0
H626 H 0.97024 0.96654 0.86827 0.0
H627 H 0.92265 0.95327 0.85631 0.0
H628 H 0.00322 0.93563 0.87769 0.0
H629 H 0.03376 0.91335 0.86924 0.0
C630 C 0.06758 0.08484 0.85374 0.0
C631 C 0.08476 0.1199 0.8413 0.0
C632 C 0.12469 0.09155 0.82495 0.0
C633 C 0.10068 0.05277 0.83496 0.0
N634 N 0.06786 0.02008 0.86374 0.0
N635 N 0.14283 0.16641 0.8212 0.0
C636 C 0.07844 0.05213 0.85116 0.0
C637 C 0.11861 0.12681 0.82919 0.0
N638 N 0.03894 0.08155 0.86697 0.0
N639 N 0.15039 0.09326 0.81065 0.0
H640 H 0.13784 0.19209 0.82441 0.0
H641 H 0.16959 0.17468 0.81287 0.0
H642 H 0.15613 0.06793 0.80788 0.0
H643 H 0.16527 0.11907 0.80148 0.0
H644 H 0.03231 0.10643 0.86936 0.0
H645 H 0.02162 0.0543 0.87521 0.0
H646 H 0.05361 0.01872 0.87646 0.0
H647 H 0.07815 -0.00234 0.86195 0.0
C648 C 0.83005 0.01601 0.83228 0.0
C649 C 0.82747 0.97935 0.84097 0.0
C650 C 0.89396 0.02527 0.85778 0.0
C651 C 0.90202 0.05883 0.84528 0.0
N652 N 0.87139 0.09402 0.82788 0.0
N653 N 0.84425 0.95181 0.86811 0.0
C654 C 0.86736 0.05705 0.83522 0.0
C655 C 0.85492 0.985 0.85608 0.0
N656 N 0.79818 0.01042 0.8203 0.0
N657 N 0.92515 0.03179 0.87028 0.0
H658 H 0.81444 0.92336 0.86751 0.0
H659 H 0.86275 0.95376 0.87954 0.0
H660 H 0.95281 0.06213 0.87167 0.0
H661 H 0.92365 0.00821 0.87916 0.0
H662 H 0.79937 0.03478 0.81203 0.0
H663 H 0.77022 0.98035 0.81872 0.0
H664 H 0.847 0.09541 0.82064 0.0
H665 H 0.8983 0.12419 0.83059 0.0
C666 C 0.8658 0.96091 0.66469 0.0
C667 C 0.8979 0.99618 0.65448 0.0
C668 C 0.93277 0.95504 0.6464 0.0
C669 C 0.90348 0.92126 0.65812 0.0
N670 N 0.83515 0.88595 0.67411 0.0
N671 N 0.94755 0.01887 0.62905 0.0
C672 C 0.86716 0.9219 0.66561 0.0
C673 C 0.9265 0.99049 0.64302 0.0
N674 N 0.83553 0.96592 0.67416 0.0
N675 N 0.96798 0.95455 0.63945 0.0
H676 H 0.94185 0.04405 0.62598 0.0
H677 H 0.96609 0.01407 0.61925 0.0
H678 H 0.97315 0.92869 0.64159 0.0
H679 H 0.99315 0.98085 0.63269 0.0
H680 H 0.81402 0.94368 0.68364 0.0
H681 H 0.83277 0.9935 0.67265 0.0
H682 H 0.80643 0.88331 0.67882 0.0
H683 H 0.83585 0.85724 0.67523 0.0
C684 C 0.04526 0.9208 0.62442 0.0
C685 C 0.08092 0.93022 0.63585 0.0
C686 C 0.04633 0.85546 0.6457 0.0
C687 C 0.00691 0.85147 0.63987 0.0
N688 N 0.96991 0.86905 0.61712 0.0
N689 N 0.1245 0.90194 0.64758 0.0
C690 C 0.00718 0.87989 0.62635 0.0
C691 C 0.08484 0.89554 0.64289 0.0
N692 N 0.04735 0.95247 0.61329 0.0
N693 N 0.04561 0.82248 0.65541 0.0
H694 H 0.15256 0.93116 0.64475 0.0
H695 H 0.12977 0.87769 0.65259 0.0
H696 H 0.01682 0.79319 0.65708 0.0
H697 H 0.0726 0.82411 0.66164 0.0
H698 H 0.02208 0.94914 0.60502 0.0
H699 H 0.07599 0.98209 0.61218 0.0
H700 H 0.9669 0.88857 0.60728 0.0
H701 H 0.94215 0.83906 0.61923 0.0
C702 C 0.06521 0.10544 0.6382 0.0
C703 C 0.06261 0.1251 0.65463 0.0
C704 C 0.13391 0.13898 0.6636 0.0
C705 C 0.1288 0.10678 0.65083 0.0
N706 N 0.09616 0.06646 0.62312 0.0
N707 N 0.09867 0.17235 0.68003 0.0
C708 C 0.09722 0.09323 0.63679 0.0
C709 C 0.09926 0.14707 0.66605 0.0
N710 N 0.03625 0.09778 0.62448 0.0
N711 N 0.17091 0.15971 0.6738 0.0
H712 H 0.0734 0.17888 0.68127 0.0
H713 H 0.12242 0.18647 0.69015 0.0
H714 H 0.19635 0.1537 0.67178 0.0
H715 H 0.17768 0.18459 0.68306 0.0
H716 H 0.03739 0.08554 0.61156 0.0
H717 H 0.01346 0.10775 0.62584 0.0
H718 H 0.07119 0.0518 0.61354 0.0
H719 H 0.12046 0.05862 0.62172 0.0
C720 C 0.69317 0.50189 0.52511 0.0
C721 C 0.66447 0.46231 0.51636 0.0
C722 C 0.7254 0.4586 0.50335 0.0
C723 C 0.75206 0.48969 0.51651 0.0
N724 N 0.76811 0.5544 0.53239 0.0
N725 N 0.65178 0.40692 0.49427 0.0
C726 C 0.73805 0.51627 0.52474 0.0
C727 C 0.68023 0.44262 0.50405 0.0
N728 N 0.67695 0.52357 0.53466 0.0
N729 N 0.74344 0.44421 0.49067 0.0
H730 H 0.6187 0.39597 0.49426 0.0
H731 H 0.66067 0.38789 0.48665 0.0
H732 H 0.77683 0.45723 0.48989 0.0
H733 H 0.72618 0.42308 0.47996 0.0
H734 H 0.69556 0.55108 0.54257 0.0
H735 H 0.64405 0.51356 0.53448 0.0
H736 H 0.76118 0.57637 0.53871 0.0
H737 H 0.80092 0.56519 0.53073 0.0
C738 C 0.46826 0.23896 0.51887 0.0
C739 C 0.49612 0.27957 0.51095 0.0
C740 C 0.545 0.25506 0.50071 0.0
C741 C 0.52347 0.21946 0.51295 0.0
N742 N 0.45908 0.1703 0.52958 0.0
N743 N 0.54503 0.31656 0.4862 0.0
C744 C 0.48256 0.20851 0.52039 0.0
C745 C 0.52874 0.28383 0.49878 0.0
N746 N 0.42944 0.23131 0.52552 0.0
N747 N 0.58247 0.26313 0.49227 0.0
H748 H 0.53247 0.33724 0.48494 0.0
H749 H 0.56753 0.32057 0.47612 0.0
H750 H 0.5945 0.24199 0.49319 0.0
H751 H 0.60223 0.29122 0.48487 0.0
H752 H 0.40654 0.2025 0.53162 0.0
H753 H 0.41958 0.25404 0.52363 0.0
H754 H 0.43009 0.16109 0.53635 0.0
H755 H 0.46889 0.14729 0.5302 0.0
C756 C 0.74638 0.25131 0.52557 0.0
C757 C 0.70943 0.24103 0.51481 0.0
C758 C 0.74152 0.31636 0.50519 0.0
C759 C 0.77335 0.3277 0.5191 0.0
N760 N 0.81478 0.30746 0.5384 0.0
N761 N 0.68136 0.25868 0.48825 0.0
C762 C 0.77908 0.29539 0.5277 0.0
C763 C 0.71058 0.27195 0.50233 0.0
N764 N 0.74819 0.21861 0.53441 0.0
N765 N 0.73924 0.34817 0.49574 0.0
H766 H 0.65964 0.22603 0.48584 0.0
H767 H 0.68134 0.27911 0.47802 0.0
H768 H 0.76285 0.38062 0.49706 0.0
H769 H 0.71393 0.34271 0.48698 0.0
H770 H 0.77271 0.22268 0.54334 0.0
H771 H 0.72462 0.18652 0.53205 0.0
H772 H 0.82146 0.28603 0.54534 0.0
H773 H 0.83907 0.33977 0.53963 0.0
C774 C 0.77463 0.37373 0.66124 0.0
C775 C 0.80244 0.40199 0.64743 0.0
C776 C 0.80464 0.34176 0.63253 0.0
C777 C 0.76781 0.31324 0.64292 0.0
N778 N 0.7203 0.30008 0.66878 0.0
N779 N 0.85237 0.41583 0.62274 0.0
C780 C 0.75433 0.32851 0.65816 0.0
C781 C 0.82101 0.38685 0.63424 0.0
N782 N 0.76708 0.39013 0.67693 0.0
N783 N 0.82276 0.32529 0.62082 0.0
H784 H 0.86564 0.44899 0.62466 0.0
H785 H 0.86468 0.40738 0.61148 0.0
H786 H 0.81088 0.29209 0.61969 0.0
H787 H 0.85107 0.34409 0.61342 0.0
H788 H 0.749 0.37116 0.68802 0.0
H789 H 0.78308 0.42314 0.67974 0.0
H790 H 0.7054 0.30946 0.67863 0.0
H791 H 0.70584 0.2667 0.66719 0.0
C792 C 0.6106 0.40277 0.67792 0.0
C793 C 0.5834 0.41146 0.66694 0.0
C794 C 0.6444 0.48118 0.65822 0.0
C795 C 0.67202 0.46558 0.6639 0.0
N796 N 0.68341 0.41596 0.68241 0.0
N797 N 0.56991 0.46507 0.65444 0.0
C798 C 0.65597 0.42849 0.6754 0.0
C799 C 0.59905 0.45355 0.66009 0.0
N800 N 0.59253 0.36834 0.68965 0.0
N801 N 0.66181 0.52109 0.65029 0.0
H802 H 0.53688 0.4443 0.65656 0.0
H803 H 0.57798 0.49488 0.64874 0.0
H804 H 0.69521 0.54165 0.6494 0.0
H805 H 0.6438 0.53424 0.64512 0.0
H806 H 0.61021 0.36082 0.69881 0.0
H807 H 0.55905 0.3497 0.69119 0.0
H808 H 0.67311 0.38655 0.68903 0.0
H809 H 0.71685 0.43483 0.68122 0.0
C810 C 0.53959 0.14882 0.64606 0.0
C811 C 0.58119 0.16586 0.65371 0.0
C812 C 0.57764 0.2269 0.66642 0.0
C813 C 0.54236 0.21621 0.65444 0.0
N814 N 0.48181 0.16233 0.63707 0.0
N815 N 0.62567 0.20403 0.67956 0.0
C816 C 0.51999 0.17493 0.64596 0.0
C817 C 0.59512 0.19899 0.66701 0.0
N818 N 0.52112 0.10908 0.638 0.0
N819 N 0.59567 0.26465 0.67618 0.0
H820 H 0.63734 0.1825 0.68007 0.0
H821 H 0.63606 0.22639 0.69031 0.0
H822 H 0.58235 0.2848 0.67624 0.0
H823 H 0.62404 0.27636 0.6838 0.0
H824 H 0.49084 0.09373 0.63177 0.0
H825 H 0.53624 0.09061 0.63873 0.0
H826 H 0.46465 0.13355 0.62978 0.0
H827 H 0.46686 0.181 0.6373 0.0
C828 C 0.66385 0.24785 0.18787 0.0
C829 C 0.67351 0.22447 0.175 0.0
C830 C 0.61078 0.20909 0.15648 0.0
C831 C 0.60592 0.23986 0.16722 0.0
N832 N 0.62407 0.28494 0.19435 0.0
N833 N 0.64578 0.16604 0.15355 0.0
C834 C 0.63083 0.2576 0.18355 0.0
C835 C 0.64261 0.19876 0.16171 0.0
N836 N 0.68491 0.25868 0.20439 0.0
N837 N 0.58857 0.19334 0.14029 0.0
H838 H 0.67007 0.15942 0.15735 0.0
H839 H 0.62251 0.14343 0.14467 0.0
H840 H 0.56677 0.20186 0.13507 0.0
H841 H 0.59446 0.17453 0.13106 0.0
H842 H 0.67677 0.27225 0.21529 0.0
H843 H 0.7077 0.24968 0.2077 0.0
H844 H 0.64411 0.30264 0.20527 0.0
H845 H 0.59882 0.29087 0.19188 0.0
C846 C 0.75515 0.38866 0.19263 0.0
C847 C 0.77927 0.39099 0.17681 0.0
C848 C 0.79349 0.46388 0.17094 0.0
C849 C 0.75805 0.45475 0.18248 0.0
N850 N 0.71076 0.41392 0.20732 0.0
N851 N 0.82994 0.43375 0.15322 0.0
C852 C 0.74163 0.41951 0.1948 0.0
C853 C 0.80247 0.4303 0.16707 0.0
N854 N 0.74476 0.35638 0.20505 0.0
N855 N 0.81599 0.50363 0.1629 0.0
H856 H 0.83739 0.40947 0.15071 0.0
H857 H 0.84461 0.45989 0.14421 0.0
H858 H 0.80852 0.52782 0.16572 0.0
H859 H 0.8435 0.51351 0.15486 0.0
H860 H 0.72905 0.35383 0.2175 0.0
H861 H 0.75629 0.3349 0.20342 0.0
H862 H 0.69398 0.38631 0.21541 0.0
H863 H 0.70158 0.43717 0.20919 0.0
C864 C 0.52367 0.30691 0.19526 0.0
C865 C 0.4993 0.3056 0.17958 0.0
C866 C 0.53912 0.38434 0.17841 0.0
C867 C 0.57238 0.38307 0.18835 0.0
N868 N 0.59017 0.35021 0.21285 0.0
N869 N 0.47403 0.34272 0.16015 0.0
C870 C 0.56186 0.34662 0.19941 0.0
C871 C 0.50311 0.34452 0.17283 0.0
N872 N 0.51134 0.27036 0.20534 0.0
N873 N 0.54303 0.42317 0.17397 0.0
H874 H 0.44672 0.31341 0.15661 0.0
H875 H 0.47731 0.36954 0.15308 0.0
H876 H 0.56864 0.4521 0.17896 0.0
H877 H 0.51915 0.42639 0.16718 0.0
H878 H 0.52825 0.26872 0.2167 0.0
H879 H 0.48181 0.24229 0.20312 0.0
H880 H 0.58638 0.32488 0.2212 0.0
H881 H 0.61771 0.37996 0.21562 0.0
C882 C 0.49946 0.28425 0.99197 0.0
C883 C 0.52472 0.32528 0.98365 0.0
C884 C 0.56224 0.29742 0.96511 0.0
C885 C 0.54646 0.26207 0.97739 0.0
N886 N 0.48322 0.20963 0.99373 0.0
N887 N 0.56112 0.36237 0.95576 0.0
C888 C 0.50884 0.25105 0.98777 0.0
C889 C 0.54947 0.32893 0.96776 0.0
N890 N 0.46844 0.27834 0.0045 0.0
N891 N 0.59058 0.30106 0.95169 0.0
H892 H 0.54872 0.38317 0.95686 0.0
H893 H 0.57929 0.36698 0.94387 0.0
H894 H 0.5984 0.27683 0.94976 0.0
H895 H 0.60579 0.32708 0.94265 0.0
H896 H 0.45183 0.25086 0.01267 0.0
H897 H 0.45993 0.302 0.00674 0.0
H898 H 0.45447 0.19913 0.00093 0.0
H899 H 0.48847 0.18473 0.98953 0.0
C900 C 0.73765 0.28725 0.96346 0.0
C901 C 0.76831 0.29283 0.97695 0.0
C902 C 0.72193 0.2198 0.98788 0.0
C903 C 0.68686 0.22089 0.97926 0.0
N904 N 0.66152 0.24877 0.95509 0.0
N905 N 0.79995 0.25727 0.99284 0.0
C906 C 0.69494 0.25172 0.96528 0.0
C907 C 0.76415 0.25573 0.98552 0.0
N908 N 0.74933 0.31777 0.95007 0.0
N909 N 0.71408 0.18644 0.99937 0.0
H910 H 0.83033 0.2849 0.99135 0.0
H911 H 0.79997 0.231 0.99902 0.0
H912 H 0.68316 0.1598 0.00088 0.0
H913 H 0.73765 0.18541 0.00742 0.0
H914 H 0.72925 0.31575 0.93924 0.0
H915 H 0.78092 0.34387 0.94949 0.0
H916 H 0.66473 0.27223 0.9457 0.0
H917 H 0.6303 0.22234 0.95626 0.0
C918 C 0.76566 0.46846 0.00868 0.0
C919 C 0.77371 0.44191 0.99681 0.0
C920 C 0.70148 0.41 0.98399 0.0
C921 C 0.69113 0.43106 0.99797 0.0
N922 N 0.71724 0.49445 0.01731 0.0
N923 N 0.75746 0.40239 0.96838 0.0
C924 C 0.72462 0.4654 0.00815 0.0
C925 C 0.74437 0.41795 0.98267 0.0
N926 N 0.79655 0.49463 0.02109 0.0
N927 N 0.66975 0.38116 0.97262 0.0
H928 H 0.7891 0.4084 0.9674 0.0
H929 H 0.73857 0.38761 0.95678 0.0
H930 H 0.63909 0.37781 0.97262 0.0
H931 H 0.67363 0.36059 0.96365 0.0
H932 H 0.79108 0.5108 0.03178 0.0
H933 H 0.82764 0.49888 0.02091 0.0
H934 H 0.74135 0.52165 0.02401 0.0
H935 H 0.68807 0.49418 0.01653 0.0
C936 C 0.36458 0.82306 0.87307 0.0
C937 C 0.33849 0.78699 0.86173 0.0
C938 C 0.40326 0.79255 0.84776 0.0
C939 C 0.42742 0.8184 0.86291 0.0
N940 N 0.43531 0.86793 0.88695 0.0
N941 N 0.33196 0.74005 0.83653 0.0
C942 C 0.40952 0.83783 0.87424 0.0
C943 C 0.35756 0.77326 0.84815 0.0
N944 N 0.34583 0.84174 0.88305 0.0
N945 N 0.42393 0.78607 0.83335 0.0
H946 H 0.29846 0.72641 0.8362 0.0
H947 H 0.3437 0.72501 0.82786 0.0
H948 H 0.45753 0.80202 0.83248 0.0
H949 H 0.4082 0.76926 0.82141 0.0
H950 H 0.36298 0.86946 0.89103 0.0
H951 H 0.31282 0.83097 0.88215 0.0
H952 H 0.42429 0.88077 0.89706 0.0
H953 H 0.46847 0.87952 0.88729 0.0
C954 C 0.14417 0.56272 0.85116 0.0
C955 C 0.17291 0.60489 0.84493 0.0
C956 C 0.22458 0.58353 0.8354 0.0
C957 C 0.20193 0.54648 0.84671 0.0
N958 N 0.1355 0.49362 0.86089 0.0
N959 N 0.22629 0.64718 0.82232 0.0
C960 C 0.15943 0.5331 0.85273 0.0
C961 C 0.20805 0.61208 0.83368 0.0
N962 N 0.10362 0.55278 0.85631 0.0
N963 N 0.26302 0.59265 0.82765 0.0
H964 H 0.21321 0.66741 0.82106 0.0
H965 H 0.25136 0.65395 0.81318 0.0
H966 H 0.27447 0.57099 0.82837 0.0
H967 H 0.28352 0.62139 0.82082 0.0
H968 H 0.08001 0.52251 0.86097 0.0
H969 H 0.09326 0.57512 0.85445 0.0
H970 H 0.10525 0.48274 0.86678 0.0
H971 H 0.14643 0.4715 0.86156 0.0
C972 C 0.38845 0.60381 0.84122 0.0
C973 C 0.3889 0.57126 0.85193 0.0
C974 C 0.45545 0.62485 0.86701 0.0
C975 C 0.44713 0.65738 0.86044 0.0
N976 N 0.40912 0.67944 0.83945 0.0
N977 N 0.431 0.54765 0.86821 0.0
C978 C 0.41552 0.64763 0.84649 0.0
C979 C 0.42598 0.58104 0.86233 0.0
N980 N 0.36071 0.59221 0.82665 0.0
N981 N 0.49045 0.63603 0.87807 0.0
H982 H 0.40965 0.51618 0.86379 0.0
H983 H 0.45648 0.55092 0.8763 0.0
H984 H 0.51296 0.66819 0.8811 0.0
H985 H 0.49787 0.61402 0.88396 0.0
H986 H 0.36016 0.61422 0.8174 0.0
H987 H 0.34116 0.5598 0.82295 0.0
H988 H 0.38348 0.67347 0.83079 0.0
H989 H 0.42836 0.7119 0.84299 0.0
C990 C 0.46616 0.68316 0.97586 0.0
C991 C 0.42558 0.66126 0.98482 0.0
C992 C 0.43779 0.72927 0.99787 0.0
C993 C 0.47027 0.75125 0.98438 0.0
N994 N 0.52393 0.75189 0.96438 0.0
N995 N 0.37397 0.66165 0.00609 0.0
C996 C 0.48791 0.72895 0.97495 0.0
C997 C 0.41216 0.68365 0.99673 0.0
N998 N 0.48271 0.65995 0.96785 0.0
N999 N 0.4317 0.75179 0.01161 0.0
H1000 H 0.35537 0.62796 0.00594 0.0
H1001 H 0.35996 0.67685 0.01322 0.0
H1002 H 0.45242 0.78482 0.01351 0.0
H1003 H 0.40998 0.73699 0.02244 0.0
H1004 H 0.51316 0.67376 0.96182 0.0
H1005 H 0.46685 0.62626 0.9685 0.0
H1006 H 0.53668 0.73814 0.95555 0.0
H1007 H 0.54081 0.78558 0.96456 0.0
C1008 C 0.26515 0.77272 0.96466 0.0
C1009 C 0.25082 0.73849 0.9776 0.0
C1010 C 0.32193 0.77311 0.9922 0.0
C1011 C 0.33755 0.80425 0.97777 0.0
N1012 N 0.3227 0.84334 0.95479 0.0
N1013 N 0.25989 0.71586 0.00795 0.0
C1014 C 0.30835 0.80746 0.96563 0.0
C1015 C 0.27716 0.74222 0.99294 0.0
N1016 N 0.23792 0.77062 0.95096 0.0
N1017 N 0.35006 0.77052 0.00419 0.0
H1018 H 0.22724 0.69318 0.00919 0.0
H1019 H 0.27696 0.7198 0.02014 0.0
H1020 H 0.38273 0.79351 0.00486 0.0
H1021 H 0.34135 0.74443 0.01301 0.0
H1022 H 0.24748 0.7916 0.93973 0.0
H1023 H 0.20546 0.74659 0.95072 0.0
H1024 H 0.30273 0.84932 0.94635 0.0
H1025 H 0.35444 0.86905 0.95561 0.0
C1026 C 0.22316 0.55675 0.00382 0.0
C1027 C 0.18762 0.53911 0.99139 0.0
C1028 C 0.19445 0.47512 0.98714 0.0
C1029 C 0.23557 0.49827 0.99537 0.0
N1030 N 0.27495 0.54433 0.02061 0.0
N1031 N 0.12979 0.47575 0.97706 0.0
C1032 C 0.24439 0.53293 0.00721 0.0
C1033 C 0.16955 0.49579 0.98522 0.0
N1034 N 0.23885 0.59723 0.01099 0.0
N1035 N 0.18209 0.43553 0.97978 0.0
H1036 H 0.11129 0.4908 0.97597 0.0
H1037 H 0.1142 0.44393 0.97242 0.0
H1038 H 0.20097 0.42111 0.98175 0.0
H1039 H 0.15393 0.41724 0.97221 0.0
H1040 H 0.26769 0.61333 0.01837 0.0
H1041 H 0.22399 0.61557 0.00893 0.0
H1042 H 0.28169 0.56828 0.0304 0.0
H1043 H 0.29019 0.52631 0.02285 0.0
C1044 C 0.28897 0.49932 0.50943 0.0
C1045 C 0.26242 0.51623 0.51475 0.0
C1046 C 0.3199 0.57055 0.53385 0.0
C1047 C 0.34883 0.5613 0.52442 0.0
N1048 N 0.36076 0.50734 0.5105 0.0
N1049 N 0.24442 0.5486 0.53952 0.0
C1050 C 0.33295 0.52153 0.51501 0.0
C1051 C 0.27507 0.54489 0.52988 0.0
N1052 N 0.2728 0.46518 0.49752 0.0
N1053 N 0.33581 0.60525 0.54544 0.0
H1054 H 0.2117 0.52955 0.53624 0.0
H1055 H 0.25109 0.56776 0.55127 0.0
H1056 H 0.36884 0.6236 0.5483 0.0
H1057 H 0.31672 0.61557 0.55203 0.0
H1058 H 0.29095 0.45286 0.49164 0.0
H1059 H 0.24033 0.44954 0.49356 0.0
H1060 H 0.3515 0.47814 0.50387 0.0
H1061 H 0.39295 0.52402 0.51483 0.0
C1062 C 0.50695 0.78796 0.5123 0.0
C1063 C 0.46978 0.76119 0.52293 0.0
C1064 C 0.45508 0.8206 0.52524 0.0
C1065 C 0.47889 0.83713 0.50866 0.0
N1066 N 0.54045 0.84852 0.4909 0.0
N1067 N 0.41932 0.75782 0.54549 0.0
C1068 C 0.5098 0.82514 0.50384 0.0
C1069 C 0.44819 0.78016 0.53181 0.0
N1070 N 0.53833 0.77727 0.51023 0.0
N1071 N 0.43943 0.84322 0.53438 0.0
H1072 H 0.41539 0.72854 0.55035 0.0
H1073 H 0.39923 0.76759 0.55157 0.0
H1074 H 0.44794 0.87462 0.53052 0.0
H1075 H 0.42268 0.83325 0.54683 0.0
H1076 H 0.56696 0.79608 0.50302 0.0
H1077 H 0.53729 0.75162 0.51755 0.0
H1078 H 0.56185 0.8396 0.48553 0.0
H1079 H 0.54415 0.87739 0.48564 0.0
C1080 C 0.31322 0.70533 0.50264 0.0
C1081 C 0.32438 0.7238 0.48482 0.0
C1082 C 0.2533 0.6697 0.47337 0.0
C1083 C 0.24615 0.64568 0.48989 0.0
N1084 N 0.26956 0.64132 0.52081 0.0
N1085 N 0.3055 0.72399 0.4528 0.0
C1086 C 0.27578 0.66393 0.50485 0.0
C1087 C 0.2944 0.70633 0.47008 0.0
N1088 N 0.33786 0.72792 0.51744 0.0
N1089 N 0.22016 0.65844 0.46117 0.0
H1090 H 0.33453 0.75212 0.44997 0.0
H1091 H 0.28705 0.70921 0.44107 0.0
H1092 H 0.18879 0.63337 0.46375 0.0
H1093 H 0.22243 0.67698 0.44967 0.0
H1094 H 0.3292 0.71826 0.5311 0.0
H1095 H 0.36484 0.75869 0.51606 0.0
H1096 H 0.29276 0.65103 0.53117 0.0
H1097 H 0.24214 0.61179 0.52344 0.0
C1098 C 0.20731 0.64312 0.30018 0.0
C1099 C 0.19866 0.67137 0.31054 0.0
C1100 C 0.14239 0.61073 0.32769 0.0
C1101 C 0.15996 0.58563 0.32112 0.0
N1102 N 0.18784 0.56825 0.29448 0.0
N1103 N 0.14707 0.68119 0.32777 0.0
C1104 C 0.18457 0.59843 0.30473 0.0
C1105 C 0.16135 0.65437 0.32176 0.0
N1106 N 0.23941 0.65971 0.2873 0.0
N1107 N 0.1112 0.59376 0.34097 0.0
H1108 H 0.16186 0.71335 0.32341 0.0
H1109 H 0.11967 0.67123 0.33589 0.0
H1110 H 0.09813 0.56164 0.34518 0.0
H1111 H 0.09861 0.61084 0.34762 0.0
H1112 H 0.25005 0.64135 0.28027 0.0
H1113 H 0.25564 0.69259 0.28401 0.0
H1114 H 0.20412 0.57504 0.2819 0.0
H1115 H 0.17123 0.53569 0.29828 0.0
C1116 C 0.3322 0.56873 0.35046 0.0
C1117 C 0.30181 0.57162 0.33882 0.0
C1118 C 0.36007 0.63699 0.32492 0.0
C1119 C 0.38744 0.64022 0.33957 0.0
N1120 N 0.40367 0.6053 0.36426 0.0
N1121 N 0.28681 0.60795 0.31433 0.0
C1122 C 0.37507 0.60453 0.35158 0.0
C1123 C 0.31586 0.60509 0.32556 0.0
N1124 N 0.32017 0.53142 0.36004 0.0
N1125 N 0.37707 0.66401 0.31019 0.0
H1126 H 0.29476 0.63468 0.30601 0.0
H1127 H 0.25416 0.58483 0.31434 0.0
H1128 H 0.41013 0.68592 0.30936 0.0
H1129 H 0.35973 0.66065 0.29814 0.0
H1130 H 0.34144 0.52558 0.3676 0.0
H1131 H 0.2893 0.50441 0.35908 0.0
H1132 H 0.3952 0.58308 0.37497 0.0
H1133 H 0.4362 0.62893 0.36435 0.0
C1134 C 0.43154 0.82268 0.3233 0.0
C1135 C 0.40309 0.78751 0.31184 0.0
C1136 C 0.46202 0.77487 0.30351 0.0
C1137 C 0.48456 0.79986 0.31911 0.0
N1138 N 0.5039 0.86403 0.33633 0.0
N1139 N 0.39489 0.74316 0.2857 0.0
C1140 C 0.47383 0.82993 0.32624 0.0
C1141 C 0.41999 0.76838 0.29988 0.0
N1142 N 0.4171 0.84631 0.33255 0.0
N1143 N 0.48031 0.75694 0.2928 0.0
H1144 H 0.36433 0.73921 0.28322 0.0
H1145 H 0.40431 0.72744 0.2763 0.0
H1146 H 0.51247 0.76512 0.29454 0.0
H1147 H 0.46503 0.73654 0.28166 0.0
H1148 H 0.43423 0.86802 0.34309 0.0
H1149 H 0.38779 0.84449 0.32956 0.0
H1150 H 0.49964 0.889 0.34125 0.0
H1151 H 0.53493 0.86876 0.3383 0.0
C1152 C 0.22525 0.18269 0.26188 0.0
C1153 C 0.19889 0.20183 0.26256 0.0
C1154 C 0.20002 0.20551 0.22871 0.0
C1155 C 0.21681 0.17711 0.22821 0.0
N1156 N 0.2485 0.14051 0.24406 0.0
N1157 N 0.16384 0.23521 0.24674 0.0
C1158 C 0.23085 0.16668 0.24472 0.0
C1159 C 0.18752 0.21485 0.24598 0.0
N1160 N 0.24526 0.18021 0.27747 0.0
N1161 N 0.19643 0.22389 0.2128 0.0
H1162 H 0.15716 0.24566 0.25913 0.0
H1163 H 0.14951 0.24025 0.23521 0.0
H1164 H 0.20501 0.21752 0.19992 0.0
H1165 H 0.1893 0.24877 0.21264 0.0
H1166 H 0.26873 0.1711 0.27734 0.0
H1167 H 0.24179 0.19148 0.29027 0.0
H1168 H 0.25416 0.12711 0.25576 0.0
H1169 H 0.2558 0.13069 0.23164 0.0
C1170 C 0.83258 0.03531 0.24823 0.0
C1171 C 0.82325 0.00949 0.23216 0.0
C1172 C 0.79057 0.94384 0.25092 0.0
C1173 C 0.80174 0.96978 0.26707 0.0
N1174 N 0.81929 0.03819 0.28081 0.0
N1175 N 0.7813 0.94012 0.21764 0.0
C1176 C 0.81808 0.0149 0.26565 0.0
C1177 C 0.79825 0.96393 0.23332 0.0
N1178 N 0.85636 0.07935 0.24689 0.0
N1179 N 0.7731 0.90009 0.25243 0.0
H1180 H 0.78556 0.95444 0.20469 0.0
H1181 H 0.75955 0.90701 0.21767 0.0
H1182 H 0.76366 0.88389 0.26506 0.0
H1183 H 0.76942 0.88007 0.24129 0.0
H1184 H 0.86915 0.09969 0.25829 0.0
H1185 H 0.86518 0.09555 0.23425 0.0
H1186 H 0.8259 0.07002 0.28004 0.0
H1187 H 0.80949 0.02464 0.29388 0.0
C1188 C 0.03357 0.81008 0.25108 0.0
C1189 C 0.00871 0.80134 0.26741 0.0
C1190 C 0.94239 0.77269 0.24922 0.0
C1191 C 0.96751 0.7837 0.23281 0.0
N1192 N 0.03432 0.79946 0.21807 0.0
N1193 N 0.93975 0.76242 0.28247 0.0
C1194 C 0.01226 0.79788 0.23371 0.0
C1195 C 0.96308 0.77864 0.26662 0.0
N1196 N 0.07766 0.83131 0.25217 0.0
N1197 N 0.89888 0.75713 0.24813 0.0
H1198 H 0.95447 0.76564 0.29526 0.0
H1199 H 0.90637 0.74228 0.28273 0.0
H1200 H 0.88211 0.74899 0.23563 0.0
H1201 H 0.87963 0.75371 0.25952 0.0
H1202 H 0.09791 0.84388 0.24074 0.0
H1203 H 0.09415 0.83805 0.26473 0.0
H1204 H 0.0658 0.80498 0.21818 0.0
H1205 H 0.01992 0.79122 0.20508 0.0
C1206 C 0.91849 0.89033 0.7408 0.0
C1207 C 0.88828 0.8552 0.72986 0.0
C1208 C 0.82935 0.85447 0.74772 0.0
C1209 C 0.86026 0.88439 0.76035 0.0
N1210 N 0.93439 0.92088 0.77128 0.0
N1211 N 0.81398 0.80177 0.72347 0.0
C1212 C 0.90486 0.89939 0.75761 0.0
C1213 C 0.84328 0.8367 0.73341 0.0
N1214 N 0.95977 0.91691 0.73472 0.0
N1215 N 0.78716 0.84424 0.74898 0.0
H1216 H 0.82278 0.78874 0.7126 0.0
H1217 H 0.78129 0.78401 0.72681 0.0
H1218 H 0.77613 0.85716 0.75911 0.0
H1219 H 0.76396 0.82605 0.73907 0.0
H1220 H 0.98161 0.94491 0.74177 0.0
H1221 H 0.97028 0.91459 0.72155 0.0
H1222 H 0.96659 0.92867 0.77024 0.0
H1223 H 0.92603 0.92628 0.7844 0.0
C1224 C 0.11955 0.93251 0.7474 0.0
C1225 C 0.13536 0.96662 0.76041 0.0
C1226 C 0.17066 0.0194 0.73565 0.0
C1227 C 0.14674 0.98618 0.72264 0.0
N1228 N 0.10218 0.91081 0.71527 0.0
N1229 N 0.17915 0.04209 0.76778 0.0
C1230 C 0.123 0.9424 0.72824 0.0
C1231 C 0.16299 0.00993 0.75483 0.0
N1232 N 0.10056 0.89086 0.75358 0.0
N1233 N 0.19965 0.06001 0.7296 0.0
H1234 H 0.17551 0.03568 0.78192 0.0
H1235 H 0.1949 0.07489 0.76462 0.0
H1236 H 0.2053 0.06776 0.71561 0.0
H1237 H 0.22059 0.08503 0.73827 0.0
H1238 H 0.09055 0.86418 0.74498 0.0
H1239 H 0.09828 0.88352 0.76765 0.0
H1240 H 0.08035 0.87868 0.71842 0.0
H1241 H 0.10601 0.91729 0.70111 0.0
C1242 C 0.01028 0.17097 0.73571 0.0
C1243 C 0.9679 0.1434 0.7291 0.0
C1244 C 0.93871 0.13226 0.76035 0.0
C1245 C 0.9816 0.15448 0.76706 0.0
N1246 N 0.05651 0.20639 0.76223 0.0
N1247 N 0.89134 0.11007 0.73352 0.0
C1248 C 0.01685 0.17827 0.75502 0.0
C1249 C 0.93182 0.12864 0.74096 0.0
N1250 N 0.04407 0.1875 0.72358 0.0
N1251 N 0.90522 0.1125 0.77256 0.0
H1252 H 0.88634 0.10758 0.71925 0.0
H1253 H 0.86341 0.10049 0.74122 0.0
H1254 H 0.90993 0.11633 0.78684 0.0
H1255 H 0.87329 0.09187 0.76871 0.0
H1256 H 0.0764 0.20398 0.72749 0.0
H1257 H 0.03927 0.18382 0.70932 0.0
H1258 H 0.08344 0.22662 0.7543 0.0
H1259 H 0.06143 0.21181 0.77643 0.0
C1260 C 0.89428 0.51532 0.58794 0.0
C1261 C 0.87512 0.52474 0.57284 0.0
C1262 C 0.85052 0.56219 0.59355 0.0
C1263 C 0.86588 0.54894 0.60888 0.0
N1264 N 0.91976 0.53188 0.61952 0.0
N1265 N 0.8493 0.56991 0.56028 0.0
C1266 C 0.89344 0.53162 0.60579 0.0
C1267 C 0.85796 0.5525 0.57531 0.0
N1268 N 0.9129 0.49041 0.58527 0.0
N1269 N 0.82846 0.58369 0.59652 0.0
H1270 H 0.8551 0.56379 0.54683 0.0
H1271 H 0.84045 0.5935 0.56112 0.0
H1272 H 0.827 0.59575 0.60948 0.0
H1273 H 0.81106 0.58892 0.58633 0.0
H1274 H 0.92267 0.47796 0.59604 0.0
H1275 H 0.91697 0.48061 0.5722 0.0
H1276 H 0.94296 0.52284 0.61746 0.0
H1277 H 0.92254 0.54606 0.63236 0.0
C1278 C 0.4886 0.3983 0.58592 0.0
C1279 C 0.47409 0.36902 0.57087 0.0
C1280 C 0.44155 0.30786 0.5922 0.0
C1281 C 0.46364 0.33686 0.6069 0.0
N1282 N 0.50327 0.40923 0.61884 0.0
N1283 N 0.43198 0.29683 0.55902 0.0
C1284 C 0.48498 0.3821 0.60414 0.0
C1285 C 0.44827 0.32399 0.57383 0.0
N1286 N 0.50561 0.44146 0.58258 0.0
N1287 N 0.41404 0.26513 0.59597 0.0
H1288 H 0.4342 0.3083 0.54559 0.0
H1289 H 0.41709 0.26335 0.55988 0.0
H1290 H 0.40817 0.25291 0.6094 0.0
H1291 H 0.39442 0.24244 0.58618 0.0
H1292 H 0.5143 0.46471 0.59286 0.0
H1293 H 0.50768 0.45362 0.56927 0.0
H1294 H 0.52362 0.44247 0.61771 0.0
H1295 H 0.49862 0.3979 0.63238 0.0
C1296 C 0.58323 0.09011 0.57618 0.0
C1297 C 0.6096 0.10194 0.56013 0.0
C1298 C 0.67289 0.11941 0.57898 0.0
C1299 C 0.64761 0.11281 0.59499 0.0
N1300 N 0.57779 0.07786 0.60937 0.0
N1301 N 0.67461 0.11022 0.54593 0.0
C1302 C 0.60226 0.0932 0.59376 0.0
C1303 C 0.65281 0.11054 0.56137 0.0
N1304 N 0.54029 0.07687 0.57455 0.0
N1305 N 0.71648 0.1361 0.58065 0.0
H1306 H 0.66158 0.10449 0.5327 0.0
H1307 H 0.7045 0.11189 0.54638 0.0
H1308 H 0.73152 0.14005 0.59344 0.0
H1309 H 0.73781 0.14749 0.56952 0.0
H1310 H 0.52027 0.07296 0.5857 0.0
H1311 H 0.52474 0.07046 0.56176 0.0
H1312 H 0.54421 0.05985 0.60931 0.0
H1313 H 0.59147 0.07979 0.62231 0.0
C1314 C 0.59056 0.2731 0.06587 0.0
C1315 C 0.57184 0.23162 0.05739 0.0
C1316 C 0.51734 0.20466 0.08211 0.0
C1317 C 0.54191 0.24373 0.0922 0.0
N1318 N 0.61325 0.3076 0.09536 0.0
N1319 N 0.52307 0.15444 0.06167 0.0
C1320 C 0.58202 0.2758 0.08466 0.0
C1321 C 0.53672 0.19616 0.06666 0.0
N1322 N 0.61489 0.31029 0.05611 0.0
N1323 N 0.47544 0.17624 0.08668 0.0
H1324 H 0.53921 0.14592 0.05208 0.0
H1325 H 0.49934 0.12815 0.06902 0.0
H1326 H 0.45874 0.18268 0.09682 0.0
H1327 H 0.45592 0.14893 0.07873 0.0
H1328 H 0.62789 0.34075 0.06221 0.0
H1329 H 0.61634 0.31115 0.04172 0.0
H1330 H 0.64349 0.32995 0.09006 0.0
H1331 H 0.61175 0.30766 0.10975 0.0
C1332 C 0.85377 0.36592 0.07738 0.0
C1333 C 0.82826 0.33439 0.06399 0.0
C1334 C 0.80219 0.27812 0.08759 0.0
C1335 C 0.81819 0.3109 0.10121 0.0
N1336 N 0.8634 0.38535 0.1099 0.0
N1337 N 0.78445 0.25989 0.05518 0.0
C1338 C 0.84649 0.35456 0.09638 0.0
C1339 C 0.80516 0.29002 0.06871 0.0
N1340 N 0.88375 0.4067 0.07195 0.0
N1341 N 0.78301 0.2359 0.093 0.0
H1342 H 0.78822 0.26814 0.04118 0.0
H1343 H 0.76322 0.22728 0.05771 0.0
H1344 H 0.78109 0.2273 0.10691 0.0
H1345 H 0.77233 0.20999 0.08389 0.0
H1346 H 0.90556 0.4303 0.08093 0.0
H1347 H 0.88973 0.41572 0.05811 0.0
H1348 H 0.87959 0.41845 0.10733 0.0
H1349 H 0.85987 0.37752 0.12391 0.0
C1350 C 0.65787 0.46992 0.09331 0.0
C1351 C 0.62875 0.44849 0.10797 0.0
C1352 C 0.56903 0.41244 0.08601 0.0
C1353 C 0.59946 0.42793 0.07139 0.0
N1354 N 0.67331 0.46901 0.06081 0.0
N1355 N 0.55678 0.40019 0.11903 0.0
C1356 C 0.64397 0.45678 0.07489 0.0
C1357 C 0.58415 0.42042 0.10455 0.0
N1358 N 0.69902 0.50212 0.0971 0.0
N1359 N 0.52585 0.39034 0.08207 0.0
H1360 H 0.56666 0.40723 0.13279 0.0
H1361 H 0.52495 0.37537 0.11748 0.0
H1362 H 0.51412 0.38429 0.06854 0.0
H1363 H 0.50179 0.38121 0.09201 0.0
H1364 H 0.72076 0.52169 0.08699 0.0
H1365 H 0.71012 0.51191 0.11055 0.0
H1366 H 0.70662 0.48572 0.06281 0.0
H1367 H 0.66444 0.4596 0.04715 0.0
C1368 C 0.57361 0.87226 0.94208 0.0
C1369 C 0.552 0.89624 0.94176 0.0
C1370 C 0.55382 0.89684 0.90789 0.0
C1371 C 0.56383 0.86303 0.90846 0.0
N1372 N 0.59055 0.82343 0.9256 0.0
N1373 N 0.52878 0.93875 0.92489 0.0
C1374 C 0.57645 0.85258 0.92543 0.0
C1375 C 0.54535 0.91161 0.92476 0.0
N1376 N 0.59188 0.86896 0.95809 0.0
N1377 N 0.55188 0.91454 0.89144 0.0
H1378 H 0.52572 0.95269 0.93707 0.0
H1379 H 0.51699 0.94643 0.91322 0.0
H1380 H 0.55502 0.90338 0.87861 0.0
H1381 H 0.54982 0.94249 0.89046 0.0
H1382 H 0.61126 0.85495 0.95889 0.0
H1383 H 0.59169 0.88452 0.97023 0.0
H1384 H 0.59541 0.8105 0.93764 0.0
H1385 H 0.59651 0.81128 0.91353 0.0
C1386 C 0.11922 0.69488 0.93623 0.0
C1387 C 0.10294 0.65013 0.93919 0.0
C1388 C 0.10435 0.63865 0.90586 0.0
C1389 C 0.12965 0.68399 0.90362 0.0
N1390 N 0.15757 0.75601 0.91554 0.0
N1391 N 0.0648 0.57812 0.9269 0.0
C1392 C 0.13528 0.71234 0.91843 0.0
C1393 C 0.0905 0.62151 0.92391 0.0
N1394 N 0.11863 0.72038 0.95016 0.0
N1395 N 0.09555 0.6124 0.89084 0.0
H1396 H 0.05266 0.56564 0.93999 0.0
H1397 H 0.05285 0.55479 0.91655 0.0
H1398 H 0.10326 0.62474 0.87747 0.0
H1399 H 0.08087 0.57892 0.89143 0.0
H1400 H 0.1275 0.75268 0.94848 0.0
H1401 H 0.10447 0.70836 0.96295 0.0
H1402 H 0.16795 0.77888 0.92607 0.0
H1403 H 0.16724 0.76957 0.90242 0.0
C1404 C 0.33473 0.45893 0.90555 0.0
C1405 C 0.29049 0.4439 0.90227 0.0
C1406 C 0.27616 0.43617 0.9355 0.0
C1407 C 0.32116 0.46097 0.93852 0.0
N1408 N 0.39419 0.49291 0.92723 0.0
N1409 N 0.21734 0.41121 0.91341 0.0
C1410 C 0.35077 0.47069 0.9238 0.0
C1411 C 0.26051 0.4297 0.91709 0.0
N1412 N 0.36122 0.46209 0.89133 0.0
N1413 N 0.24882 0.41949 0.95024 0.0
H1414 H 0.20493 0.40306 0.90003 0.0
H1415 H 0.19397 0.40469 0.92343 0.0
H1416 H 0.26006 0.4237 0.9638 0.0
H1417 H 0.2157 0.3986 0.94905 0.0
H1418 H 0.39294 0.46907 0.89317 0.0
H1419 H 0.35024 0.45348 0.87782 0.0
H1420 H 0.4176 0.50609 0.91692 0.0
H1421 H 0.40683 0.49968 0.94059 0.0
C1422 C 0.14136 0.4346 0.42739 0.0
C1423 C 0.12635 0.45825 0.43753 0.0
C1424 C 0.10085 0.47509 0.40928 0.0
C1425 C 0.12473 0.46034 0.39914 0.0
N1426 N 0.15051 0.41013 0.39718 0.0
N1427 N 0.07522 0.4827 0.43947 0.0
C1428 C 0.13832 0.43373 0.40779 0.0
C1429 C 0.09945 0.47137 0.42885 0.0
N1430 N 0.16183 0.4167 0.43659 0.0
N1431 N 0.08286 0.49561 0.40017 0.0
H1432 H 0.07426 0.47944 0.45381 0.0
H1433 H 0.05362 0.49138 0.43413 0.0
H1434 H 0.08325 0.49734 0.38575 0.0
H1435 H 0.06849 0.51114 0.40673 0.0
H1436 H 0.17754 0.4024 0.43014 0.0
H1437 H 0.16325 0.41708 0.45102 0.0
H1438 H 0.15959 0.38885 0.40253 0.0
H1439 H 0.14769 0.40931 0.38282 0.0
C1440 C 0.50612 0.74854 0.42547 0.0
C1441 C 0.4798 0.72346 0.41059 0.0
C1442 C 0.43674 0.66329 0.43157 0.0
C1443 C 0.45931 0.69017 0.44671 0.0
N1444 N 0.51298 0.75955 0.45869 0.0
N1445 N 0.41609 0.65952 0.3996 0.0
C1446 C 0.49373 0.73306 0.44387 0.0
C1447 C 0.44419 0.68138 0.41365 0.0
N1448 N 0.54278 0.78698 0.42197 0.0
N1449 N 0.40856 0.62023 0.43433 0.0
H1450 H 0.42039 0.67156 0.38619 0.0
H1451 H 0.38661 0.63126 0.40157 0.0
H1452 H 0.40252 0.60584 0.44736 0.0
H1453 H 0.39444 0.5981 0.42358 0.0
H1454 H 0.56557 0.80503 0.43204 0.0
H1455 H 0.55207 0.7992 0.40862 0.0
H1456 H 0.53475 0.7925 0.4575 0.0
H1457 H 0.50499 0.74911 0.47233 0.0
C1458 C 0.38464 0.8364 0.40656 0.0
C1459 C 0.39505 0.80807 0.41612 0.0
C1460 C 0.36161 0.75573 0.39116 0.0
C1461 C 0.34357 0.77997 0.3836 0.0
N1462 N 0.33132 0.84032 0.38746 0.0
N1463 N 0.3794 0.73377 0.41958 0.0
C1464 C 0.35331 0.81965 0.39217 0.0
C1465 C 0.37962 0.76567 0.40907 0.0
N1466 N 0.40507 0.87933 0.4109 0.0
N1467 N 0.36327 0.72418 0.38117 0.0
H1468 H 0.3879 0.73721 0.43348 0.0
H1469 H 0.36491 0.70176 0.4151 0.0
H1470 H 0.35589 0.71916 0.36716 0.0
H1471 H 0.37779 0.7072 0.38614 0.0
H1472 H 0.40077 0.90168 0.40331 0.0
H1473 H 0.42996 0.89324 0.42059 0.0
H1474 H 0.3352 0.86749 0.3945 0.0
H1475 H 0.30555 0.82748 0.37821 0.0
C1476 C 0.29787 0.11016 0.14259 0.0
C1477 C 0.29562 0.11403 0.16213 0.0
C1478 C 0.36371 0.11436 0.1646 0.0
C1479 C 0.37242 0.12636 0.1459 0.0
N1480 N 0.34589 0.13095 0.11607 0.0
N1481 N 0.33439 0.12907 0.19151 0.0
C1482 C 0.33858 0.12219 0.13447 0.0
C1483 C 0.33027 0.1178 0.17326 0.0
N1484 N 0.26156 0.09396 0.13194 0.0
N1485 N 0.38878 0.10258 0.17433 0.0
H1486 H 0.31553 0.1396 0.19813 0.0
H1487 H 0.36113 0.13445 0.19933 0.0
H1488 H 0.41202 0.09758 0.1679 0.0
H1489 H 0.38211 0.09213 0.18802 0.0
H1490 H 0.26168 0.08836 0.11781 0.0
H1491 H 0.2307 0.0809 0.13758 0.0
H1492 H 0.32385 0.13301 0.10732 0.0
H1493 H 0.37506 0.13768 0.10993 0.0
C1494 C 0.88262 0.1816 0.15893 0.0
C1495 C 0.86728 0.15807 0.17567 0.0
C1496 C 0.84385 0.20794 0.18624 0.0
C1497 C 0.85181 0.22616 0.16838 0.0
N1498 N 0.87752 0.23065 0.13726 0.0
N1499 N 0.82539 0.14383 0.2038 0.0
C1500 C 0.87113 0.21327 0.15458 0.0
C1501 C 0.84627 0.17017 0.18909 0.0
N1502 N 0.90903 0.17464 0.14755 0.0
N1503 N 0.83264 0.22584 0.20035 0.0
H1504 H 0.82301 0.11386 0.2058 0.0
H1505 H 0.80597 0.14924 0.21287 0.0
H1506 H 0.82986 0.25329 0.19869 0.0
H1507 H 0.83056 0.21613 0.21407 0.0
H1508 H 0.92426 0.19358 0.136 0.0
H1509 H 0.91894 0.15241 0.15059 0.0
H1510 H 0.88676 0.219 0.12599 0.0
H1511 H 0.8716 0.25569 0.13405 0.0
C1512 C 0.80215 0.68159 0.15437 0.0
C1513 C 0.82411 0.68688 0.17137 0.0
C1514 C 0.76536 0.61759 0.18213 0.0
C1515 C 0.74701 0.60892 0.16422 0.0
N1516 N 0.74911 0.63089 0.13264 0.0
N1517 N 0.83191 0.65405 0.19923 0.0
C1518 C 0.76576 0.64048 0.1501 0.0
C1519 C 0.80713 0.65328 0.18467 0.0
N1520 N 0.81483 0.71584 0.14268 0.0
N1521 N 0.74347 0.59147 0.19671 0.0
H1522 H 0.86413 0.67801 0.2009 0.0
H1523 H 0.82224 0.62816 0.20829 0.0
H1524 H 0.71226 0.56524 0.19567 0.0
H1525 H 0.75443 0.59896 0.2103 0.0
H1526 H 0.7974 0.71468 0.13095 0.0
H1527 H 0.84078 0.74652 0.14551 0.0
H1528 H 0.76419 0.65068 0.12128 0.0
H1529 H 0.72106 0.60192 0.12948 0.0
C1530 C 0.20094 0.37403 0.33053 0.0
C1531 C 0.16484 0.37694 0.33682 0.0
C1532 C 0.11825 0.29874 0.33348 0.0
C1533 C 0.15487 0.29586 0.32815 0.0
N1534 N 0.2321 0.32845 0.32531 0.0
N1535 N 0.09139 0.34194 0.34792 0.0
C1536 C 0.19662 0.33278 0.32801 0.0
C1537 C 0.12401 0.33924 0.33934 0.0
N1538 N 0.23855 0.41055 0.32578 0.0
N1539 N 0.07798 0.26294 0.33264 0.0
H1540 H 0.09473 0.37106 0.3526 0.0
H1541 H 0.06231 0.31505 0.35183 0.0
H1542 H 0.07287 0.23229 0.32937 0.0
H1543 H 0.04957 0.26397 0.3342 0.0
H1544 H 0.26421 0.41001 0.31924 0.0
H1545 H 0.24281 0.44154 0.32661 0.0
H1546 H 0.26366 0.35374 0.32707 0.0
H1547 H 0.23005 0.29869 0.32297 0.0
C1548 C 0.63761 0.77235 0.32957 0.0
C1549 C 0.63061 0.76943 0.34879 0.0
C1550 C 0.70617 0.82491 0.35331 0.0
C1551 C 0.70868 0.83583 0.33426 0.0
N1552 N 0.67083 0.82354 0.30497 0.0
N1553 N 0.65834 0.7912 0.37949 0.0
C1554 C 0.67308 0.81015 0.32243 0.0
C1555 C 0.66522 0.79489 0.36087 0.0
N1556 N 0.60905 0.74052 0.31811 0.0
N1557 N 0.74254 0.84194 0.36396 0.0
H1558 H 0.62896 0.76775 0.38515 0.0
H1559 H 0.68094 0.81223 0.38903 0.0
H1560 H 0.77338 0.86187 0.35862 0.0
H1561 H 0.7425 0.83239 0.37757 0.0
H1562 H 0.61441 0.74044 0.30394 0.0
H1563 H 0.58317 0.71191 0.32313 0.0
H1564 H 0.6436 0.80696 0.29662 0.0
H1565 H 0.69303 0.85385 0.29977 0.0
C1566 C 0.18237 0.86466 0.34172 0.0
C1567 C 0.15946 0.8494 0.32479 0.0
C1568 C 0.21516 0.83534 0.3132 0.0
C1569 C 0.23349 0.84259 0.33108 0.0
N1570 N 0.23369 0.86204 0.36292 0.0
N1571 N 0.14833 0.80837 0.29666 0.0
C1572 C 0.21686 0.85673 0.34556 0.0
C1573 C 0.17434 0.83162 0.31109 0.0
N1574 N 0.17239 0.88781 0.35375 0.0
N1575 N 0.23589 0.83087 0.29823 0.0
H1576 H 0.11634 0.80108 0.2954 0.0
H1577 H 0.15663 0.79152 0.28731 0.0
H1578 H 0.26655 0.83442 0.29889 0.0
H1579 H 0.22475 0.8289 0.28475 0.0
H1580 H 0.19061 0.90281 0.3655 0.0
H1581 H 0.14829 0.89537 0.35114 0.0
H1582 H 0.21983 0.86761 0.3745 0.0
H1583 H 0.26062 0.85892 0.36573 0.0
C1584 C 0.65518 0.79265 0.80741 0.0
C1585 C 0.69027 0.79357 0.81677 0.0
C1586 C 0.65736 0.78955 0.84621 0.0
C1587 C 0.62145 0.789 0.83734 0.0
N1588 N 0.57928 0.77036 0.809 0.0
N1589 N 0.70901 0.76534 0.84316 0.0
C1590 C 0.61787 0.78429 0.81771 0.0
C1591 C 0.68522 0.7814 0.83546 0.0
N1592 N 0.65809 0.80066 0.7889 0.0
N1593 N 0.66821 0.80218 0.86417 0.0
H1594 H 0.72796 0.75701 0.83511 0.0
H1595 H 0.70499 0.75516 0.8569 0.0
H1596 H 0.65483 0.81708 0.87192 0.0
H1597 H 0.6957 0.8045 0.87029 0.0
H1598 H 0.63538 0.80498 0.78163 0.0
H1599 H 0.68443 0.8044 0.78117 0.0
H1600 H 0.57523 0.76435 0.79484 0.0
H1601 H 0.55031 0.75916 0.81614 0.0
C1602 C 0.21027 0.84865 0.82741 0.0
C1603 C 0.1916 0.82626 0.84414 0.0
C1604 C 0.16186 0.87335 0.85008 0.0
C1605 C 0.17371 0.89018 0.83204 0.0
N1606 N 0.20744 0.89345 0.80285 0.0
N1607 N 0.14042 0.81073 0.86905 0.0
C1608 C 0.19763 0.87787 0.82048 0.0
C1609 C 0.16527 0.83707 0.855 0.0
N1610 N 0.24074 0.84295 0.81851 0.0
N1611 N 0.14623 0.8912 0.86238 0.0
H1612 H 0.13826 0.7813 0.87216 0.0
H1613 H 0.11762 0.81531 0.87611 0.0
H1614 H 0.14323 0.91801 0.85925 0.0
H1615 H 0.14081 0.88231 0.87627 0.0
H1616 H 0.2581 0.86125 0.80713 0.0
H1617 H 0.25154 0.82267 0.82352 0.0
H1618 H 0.22062 0.882 0.79305 0.0
H1619 H 0.20034 0.91655 0.79782 0.0
C1620 C 0.1529 0.3282 0.84786 0.0
C1621 C 0.16713 0.36352 0.83556 0.0
C1622 C 0.1056 0.31949 0.81537 0.0
C1623 C 0.08908 0.28662 0.82903 0.0
N1624 N 0.09173 0.26454 0.86031 0.0
N1625 N 0.15455 0.39534 0.8086 0.0
C1626 C 0.11089 0.29274 0.84599 0.0
C1627 C 0.14292 0.36001 0.81949 0.0
N1628 N 0.18024 0.32795 0.861 0.0
N1629 N 0.08595 0.31169 0.79851 0.0
H1630 H 0.18204 0.42518 0.81114 0.0
H1631 H 0.13555 0.39567 0.79777 0.0
H1632 H 0.05733 0.28306 0.79558 0.0
H1633 H 0.09908 0.33261 0.78731 0.0
H1634 H 0.17261 0.30119 0.86926 0.0
H1635 H 0.2124 0.35249 0.86205 0.0
H1636 H 0.10525 0.26991 0.87348 0.0
H1637 H 0.06027 0.23852 0.85967 0.0
C1638 C 0.81612 0.63241 0.69325 0.0
C1639 C 0.84401 0.61642 0.68898 0.0
C1640 C 0.90583 0.68885 0.68816 0.0
C1641 C 0.87768 0.70589 0.69125 0.0
N1642 N 0.80996 0.69324 0.70402 0.0
N1643 N 0.91527 0.62654 0.6912 0.0
C1644 C 0.834 0.67736 0.69631 0.0
C1645 C 0.88893 0.64381 0.68995 0.0
N1646 N 0.77254 0.60478 0.69338 0.0
N1647 N 0.94687 0.71385 0.68151 0.0
H1648 H 0.90292 0.59329 0.69233 0.0
H1649 H 0.94851 0.64529 0.69331 0.0
H1650 H 0.96083 0.74626 0.67812 0.0
H1651 H 0.966 0.701 0.67732 0.0
H1652 H 0.75 0.61505 0.69424 0.0
H1653 H 0.75933 0.57142 0.69192 0.0
H1654 H 0.77875 0.67365 0.70903 0.0
H1655 H 0.82332 0.72587 0.70725 0.0
C1656 C 0.33657 0.18126 0.6524 0.0
C1657 C 0.36999 0.19316 0.6655 0.0
C1658 C 0.32357 0.12754 0.68312 0.0
C1659 C 0.29307 0.11361 0.66854 0.0
N1660 N 0.2765 0.12216 0.63698 0.0
N1661 N 0.39824 0.17462 0.69212 0.0
C1662 C 0.30163 0.13874 0.65238 0.0
C1663 C 0.36444 0.16562 0.68066 0.0
N1664 N 0.33756 0.2111 0.64029 0.0
N1665 N 0.31337 0.10464 0.69923 0.0
H1666 H 0.42859 0.2021 0.69069 0.0
H1667 H 0.39696 0.15327 0.70222 0.0
H1668 H 0.28448 0.07548 0.70095 0.0
H1669 H 0.3325 0.11568 0.71106 0.0
H1670 H 0.31196 0.20468 0.63149 0.0
H1671 H 0.36162 0.2436 0.64065 0.0
H1672 H 0.28395 0.13855 0.6244 0.0
H1673 H 0.25147 0.09025 0.63609 0.0
C1674 C 0.81838 0.18102 0.67063 0.0
C1675 C 0.79288 0.15959 0.65487 0.0
C1676 C 0.84374 0.1363 0.64591 0.0
C1677 C 0.866 0.15269 0.66274 0.0
N1678 N 0.87272 0.18648 0.69231 0.0
N1679 N 0.77524 0.10727 0.63038 0.0
C1680 C 0.85278 0.17383 0.67551 0.0
C1681 C 0.80389 0.13457 0.64328 0.0
N1682 N 0.8111 0.2095 0.68038 0.0
N1683 N 0.86055 0.1222 0.63244 0.0
H1684 H 0.74425 0.10271 0.62881 0.0
H1685 H 0.78025 0.08538 0.62278 0.0
H1686 H 0.89016 0.12346 0.6338 0.0
H1687 H 0.84739 0.11371 0.61921 0.0
H1688 H 0.83145 0.22912 0.69086 0.0
H1689 H 0.78673 0.21621 0.67703 0.0
H1690 H 0.86139 0.19769 0.703 0.0
H1691 H 0.89935 0.18342 0.69586 0.0
C1692 C 0.01014 0.45866 0.49549 0.0
C1693 C 0.04501 0.50169 0.49718 0.0
C1694 C 0.99465 0.52665 0.50531 0.0
C1695 C 0.9607 0.48306 0.5059 0.0
N1696 N 0.93534 0.40696 0.50271 0.0
N1697 N 0.0718 0.57584 0.50634 0.0
C1698 C 0.96819 0.44883 0.50128 0.0
C1699 C 0.03764 0.53563 0.50259 0.0
N1700 N 0.01688 0.42761 0.48777 0.0
N1701 N 0.98593 0.5595 0.50757 0.0
H1702 H 0.10396 0.5837 0.50508 0.0
H1703 H 0.06853 0.60048 0.51239 0.0
H1704 H 0.95511 0.55436 0.51032 0.0
H1705 H 0.00856 0.59185 0.50519 0.0
H1706 H 0.99206 0.39675 0.48439 0.0
H1707 H 0.04714 0.43374 0.48326 0.0
H1708 H 0.93981 0.38042 0.50172 0.0
H1709 H 0.90364 0.39874 0.50586 0.0
C1710 C 0.53181 0.52664 0.49165 0.0
C1711 C 0.51788 0.50507 0.50891 0.0
C1712 C 0.50283 0.56062 0.51989 0.0
C1713 C 0.51007 0.57835 0.50192 0.0
N1714 N 0.52788 0.57653 0.46998 0.0
N1715 N 0.47726 0.49479 0.53707 0.0
C1716 C 0.52351 0.56082 0.48752 0.0
C1717 C 0.49986 0.52021 0.5224 0.0
N1718 N 0.55409 0.5157 0.47955 0.0
N1719 N 0.49803 0.58182 0.53461 0.0
H1720 H 0.47071 0.46309 0.53864 0.0
H1721 H 0.46022 0.5031 0.54631 0.0
H1722 H 0.50112 0.61228 0.53357 0.0
H1723 H 0.49616 0.57137 0.54821 0.0
H1724 H 0.56837 0.53306 0.46754 0.0
H1725 H 0.5614 0.49146 0.48229 0.0
H1726 H 0.53305 0.56204 0.45852 0.0
H1727 H 0.52416 0.603 0.46688 0.0
C1728 C 0.4557 0.00382 0.50054 0.0
C1729 C 0.48591 0.04082 0.49022 0.0
C1730 C 0.45551 -0.00033 0.46172 0.0
C1731 C 0.4263 0.96379 0.47243 0.0
N1732 N 0.38385 0.9416 0.50024 0.0
N1733 N 0.50157 0.07751 0.46063 0.0
C1734 C 0.42059 0.97004 0.49113 0.0
C1735 C 0.48174 0.04015 0.47062 0.0
N1736 N 0.46253 -0.00216 0.51861 0.0
N1737 N 0.45912 0.99437 0.44328 0.0
H1738 H 0.51799 0.10791 0.46681 0.0
H1739 H 0.49712 0.07844 0.44644 0.0
H1740 H 0.43856 0.96516 0.43665 0.0
H1741 H 0.48313 0.0181 0.435 0.0
H1742 H 0.44172 0.96971 0.52583 0.0
H1743 H 0.49168 0.01666 0.52546 0.0
H1744 H 0.37829 0.94614 0.514 0.0
H1745 H 0.35726 0.91715 0.49328 0.0
C1746 C 0.56274 0.04256 0.01156 0.0
C1747 C 0.5349 0.05945 0.01538 0.0
C1748 C 0.47287 0.98589 0.01541 0.0
C1749 C 0.50122 0.97001 0.01175 0.0
N1750 N 0.573 0.98088 0.01392 0.0
N1751 N 0.46561 0.04596 0.02659 0.0
C1752 C 0.54616 -0.00236 0.01293 0.0
C1753 C 0.49052 0.03066 0.01923 0.0
N1754 N 0.60312 0.06797 0.00436 0.0
N1755 N 0.42932 0.95844 0.01455 0.0
H1756 H 0.47822 0.07837 0.03016 0.0
H1757 H 0.43383 0.02591 0.03087 0.0
H1758 H 0.41608 0.92521 0.01261 0.0
H1759 H 0.40685 0.96884 0.01505 0.0
H1760 H 0.62272 0.05574 7e-05 0.0
H1761 H 0.61473 0.09956 1.00001 0.0
H1762 H 0.60617 2e-05 0.01612 0.0
H1763 H 0.5613 0.94769 0.01463 0.0
C1764 C 0.99314 0.48047 0.02613 0.0
C1765 C 0.95973 0.48974 0.02236 0.0
C1766 C 0.01286 0.56675 0.02156 0.0
C1767 C 0.04531 0.55592 0.01971 0.0
N1768 N 0.0695 0.50471 0.02272 0.0
N1769 N 0.93829 0.54292 0.01519 0.0
C1770 C 0.03651 0.51348 0.0233 0.0
C1771 C 0.96937 0.53335 0.02031 0.0
N1772 N 0.98333 0.44047 0.0323 0.0
N1773 N 0.02393 0.6091 0.02308 0.0
H1774 H 0.90645 0.51979 0.0123 0.0
H1775 H 0.94516 0.57405 0.01183 0.0
H1776 H 0.05619 0.63372 0.02366 0.0
H1777 H 0.00155 0.61897 0.02578 0.0
H1778 H 0.00658 0.43285 0.03647 0.0
H1779 H 0.95165 0.41609 0.03491 0.0
H1780 H 0.06493 0.47357 0.02298 0.0
H1781 H 0.10164 0.52931 0.02135 0.0
C1782 C 0.47548 0.52273 0.01728 0.0
C1783 C 0.45533 0.51012 0.99968 0.0
C1784 C 0.50693 0.48831 0.99032 0.0
C1785 C 0.52124 0.49272 0.00874 0.0
N1786 N 0.51877 0.51225 0.04034 0.0
N1787 N 0.4445 0.46848 0.97165 0.0
C1788 C 0.50551 0.50954 0.02246 0.0
C1789 C 0.46919 0.4898 0.98669 0.0
N1790 N 0.46714 0.54813 0.02868 0.0
N1791 N 0.52829 0.48104 0.97638 0.0
H1792 H 0.41359 0.46364 0.96953 0.0
H1793 H 0.45209 0.45037 0.9627 0.0
H1794 H 0.55661 0.4801 0.97851 0.0
H1795 H 0.52054 0.48101 0.96248 0.0
H1796 H 0.4838 0.56113 0.04098 0.0
H1797 H 0.44641 0.55949 0.02504 0.0
H1798 H 0.50498 0.51995 0.05132 0.0
H1799 H 0.54239 0.50475 0.04418 0.0
loop_
_geom_bond_atom_site_label_1
_geom_bond_atom_site_label_2
_geom_bond_distance
_geom_bond_site_symmetry_2
_ccdc_geom_bond_type
Co0 O1 2.216 . S
Co0 O2 2.091 . S
Co0 O4 2.004 . S
Co0 O10 2.021 . S
Co0 O12 2.137 . S
Co0 O13 2.244 . S
O1 Co0 2.216 . S
O1 C8 1.247 . S
O2 Co0 2.091 . S
O2 C8 1.261 . S
C3 O12 1.247 . S
C3 O13 1.272 . S
O4 Co0 2.004 . S
O4 C9 1.259 . S
Co5 O6 2.061 . S
Co5 O11 2.052 . S
Co5 O13 2.135 . S
O6 Co5 2.061 . S
O6 C9 1.235 . S
C7 O10 1.238 . S
C7 O11 1.241 . S
C8 O1 1.247 . S
C8 O2 1.261 . S
C9 O4 1.259 . S
C9 O6 1.235 . S
O10 Co0 2.021 . S
O10 C7 1.238 . S
O11 Co5 2.052 . S
O11 C7 1.241 . S
O12 Co0 2.137 . S
O12 C3 1.247 . S
O13 Co0 2.244 . S
O13 C3 1.272 . S
O13 Co5 2.135 . S
Co14 O15 2.216 . S
Co14 O16 2.091 . S
Co14 O18 2.004 1_545 S
Co14 O24 2.021 . S
Co14 O26 2.137 1_545 S
Co14 O27 2.244 . S
O15 Co14 2.216 . S
O15 C22 1.247 . S
O16 Co14 2.091 . S
O16 C22 1.261 . S
C17 O26 1.247 . S
C17 O27 1.272 1_565 S
O18 Co14 2.004 1_565 S
O18 C23 1.259 . S
Co19 O20 2.061 . S
Co19 O25 2.052 1_565 S
Co19 O27 2.135 1_565 S
O20 Co19 2.061 . S
O20 C23 1.235 . S
C21 O24 1.238 . S
C21 O25 1.241 . S
C22 O15 1.247 . S
C22 O16 1.261 . S
C23 O18 1.259 . S
C23 O20 1.235 . S
O24 Co14 2.021 . S
O24 C21 1.238 . S
O25 Co19 2.052 1_545 S
O25 C21 1.241 . S
O26 Co14 2.137 1_565 S
O26 C17 1.247 . S
O27 Co14 2.244 . S
O27 C17 1.272 1_545 S
O27 Co19 2.135 1_545 S
Co28 O29 2.216 . S
Co28 O30 2.091 . S
Co28 O32 2.004 1_655 S
Co28 O38 2.021 . S
Co28 O40 2.137 1_655 S
Co28 O41 2.244 . S
O29 Co28 2.216 . S
O29 C36 1.247 . S
O30 Co28 2.091 . S
O30 C36 1.261 . S
C31 O40 1.247 . S
C31 O41 1.272 1_455 S
O32 Co28 2.004 1_455 S
O32 C37 1.259 . S
Co33 O34 2.061 . S
Co33 O39 2.052 1_455 S
Co33 O41 2.135 1_455 S
O34 Co33 2.061 . S
O34 C37 1.235 . S
C35 O38 1.238 . S
C35 O39 1.241 . S
C36 O29 1.247 . S
C36 O30 1.261 . S
C37 O32 1.259 . S
C37 O34 1.235 . S
O38 Co28 2.021 . S
O38 C35 1.238 . S
O39 Co33 2.052 1_655 S
O39 C35 1.241 . S
O40 Co28 2.137 1_455 S
O40 C31 1.247 . S
O41 Co28 2.244 . S
O41 C31 1.272 1_655 S
O41 Co33 2.135 1_655 S
Co42 O43 2.216 . S
Co42 O44 2.091 . S
Co42 O46 2.004 . S
Co42 O52 2.021 . S
Co42 O54 2.137 . S
Co42 O55 2.244 . S
O43 Co42 2.216 . S
O43 C50 1.247 . S
O44 Co42 2.091 . S
O44 C50 1.261 . S
C45 O54 1.247 . S
C45 O55 1.272 . S
O46 Co42 2.004 . S
O46 C51 1.259 . S
Co47 O48 2.061 . S
Co47 O53 2.052 . S
Co47 O55 2.135 . S
O48 Co47 2.061 . S
O48 C51 1.235 . S
C49 O52 1.238 . S
C49 O53 1.241 . S
C50 O43 1.247 . S
C50 O44 1.261 . S
C51 O46 1.259 . S
C51 O48 1.235 . S
O52 Co42 2.021 . S
O52 C49 1.238 . S
O53 Co47 2.052 . S
O53 C49 1.241 . S
O54 Co42 2.137 . S
O54 C45 1.247 . S
O55 Co42 2.244 . S
O55 C45 1.272 . S
O55 Co47 2.135 . S
Co56 O57 2.216 . S
Co56 O58 2.091 . S
Co56 O60 2.004 1_565 S
Co56 O66 2.021 . S
Co56 O68 2.137 1_565 S
Co56 O69 2.244 . S
O57 Co56 2.216 . S
O57 C64 1.247 . S
O58 Co56 2.091 . S
O58 C64 1.261 . S
C59 O68 1.247 . S
C59 O69 1.272 1_545 S
O60 Co56 2.004 1_545 S
O60 C65 1.259 . S
Co61 O62 2.061 . S
Co61 O67 2.052 1_545 S
Co61 O69 2.135 1_545 S
O62 Co61 2.061 . S
O62 C65 1.235 . S
C63 O66 1.238 . S
C63 O67 1.241 . S
C64 O57 1.247 . S
C64 O58 1.261 . S
C65 O60 1.259 . S
C65 O62 1.235 . S
O66 Co56 2.021 . S
O66 C63 1.238 . S
O67 Co61 2.052 1_565 S
O67 C63 1.241 . S
O68 Co56 2.137 1_545 S
O68 C59 1.247 . S
O69 Co56 2.244 . S
O69 C59 1.272 1_565 S
O69 Co61 2.135 1_565 S
Co70 O71 2.216 . S
Co70 O72 2.091 . S
Co70 O74 2.004 1_455 S
Co70 O80 2.021 . S
Co70 O82 2.137 1_455 S
Co70 O83 2.244 . S
O71 Co70 2.216 . S
O71 C78 1.247 . S
O72 Co70 2.091 . S
O72 C78 1.261 . S
C73 O82 1.247 . S
C73 O83 1.272 1_655 S
O74 Co70 2.004 1_655 S
O74 C79 1.259 . S
Co75 O76 2.061 . S
Co75 O81 2.052 1_655 S
Co75 O83 2.135 1_655 S
O76 Co75 2.061 . S
O76 C79 1.235 . S
C77 O80 1.238 . S
C77 O81 1.241 . S
C78 O71 1.247 . S
C78 O72 1.261 . S
C79 O74 1.259 . S
C79 O76 1.235 . S
O80 Co70 2.021 . S
O80 C77 1.238 . S
O81 Co75 2.052 1_455 S
O81 C77 1.241 . S
O82 Co70 2.137 1_655 S
O82 C73 1.247 . S
O83 Co70 2.244 . S
O83 C73 1.272 1_455 S
O83 Co75 2.135 1_455 S
Co84 O85 2.216 . S
Co84 O86 2.091 . S
Co84 O88 2.004 . S
Co84 O94 2.021 . S
Co84 O96 2.137 . S
Co84 O97 2.244 . S
O85 Co84 2.216 . S
O85 C92 1.247 . S
O86 Co84 2.091 . S
O86 C92 1.261 . S
C87 O96 1.247 . S
C87 O97 1.272 . S
O88 Co84 2.004 . S
O88 C93 1.259 . S
Co89 O90 2.061 . S
Co89 O95 2.052 . S
Co89 O97 2.135 . S
O90 Co89 2.061 . S
O90 C93 1.235 . S
C91 O94 1.238 . S
C91 O95 1.241 . S
C92 O85 1.247 . S
C92 O86 1.261 . S
C93 O88 1.259 . S
C93 O90 1.235 . S
O94 Co84 2.021 . S
O94 C91 1.238 . S
O95 Co89 2.052 . S
O95 C91 1.241 . S
O96 Co84 2.137 . S
O96 C87 1.247 . S
O97 Co84 2.244 . S
O97 C87 1.272 . S
O97 Co89 2.135 . S
Co98 O99 2.216 . S
Co98 O100 2.091 . S
Co98 O102 2.004 1_565 S
Co98 O108 2.021 1_565 S
Co98 O110 2.137 . S
Co98 O111 2.244 . S
O99 Co98 2.216 . S
O99 C106 1.247 . S
O100 Co98 2.091 . S
O100 C106 1.261 . S
C101 O110 1.247 . S
C101 O111 1.272 . S
O102 Co98 2.004 1_545 S
O102 C107 1.259 . S
Co103 O104 2.061 . S
Co103 O109 2.052 1_545 S
Co103 O111 2.135 1_545 S
O104 Co103 2.061 . S
O104 C107 1.235 . S
C105 O108 1.238 . S
C105 O109 1.241 1_545 S
C106 O99 1.247 . S
C106 O100 1.261 . S
C107 O102 1.259 . S
C107 O104 1.235 . S
O108 Co98 2.021 1_545 S
O108 C105 1.238 . S
O109 Co103 2.052 1_565 S
O109 C105 1.241 1_565 S
O110 Co98 2.137 . S
O110 C101 1.247 . S
O111 Co98 2.244 . S
O111 C101 1.272 . S
O111 Co103 2.135 1_565 S
Co112 O113 2.216 . S
Co112 O114 2.091 . S
Co112 O116 2.004 1_455 S
Co112 O122 2.021 1_455 S
Co112 O124 2.137 . S
Co112 O125 2.244 . S
O113 Co112 2.216 . S
O113 C120 1.247 . S
O114 Co112 2.091 . S
O114 C120 1.261 . S
C115 O124 1.247 . S
C115 O125 1.272 . S
O116 Co112 2.004 1_655 S
O116 C121 1.259 . S
Co117 O118 2.061 . S
Co117 O123 2.052 1_655 S
Co117 O125 2.135 1_655 S
O118 Co117 2.061 . S
O118 C121 1.235 . S
C119 O122 1.238 . S
C119 O123 1.241 1_655 S
C120 O113 1.247 . S
C120 O114 1.261 . S
C121 O116 1.259 . S
C121 O118 1.235 . S
O122 Co112 2.021 1_655 S
O122 C119 1.238 . S
O123 Co117 2.052 1_455 S
O123 C119 1.241 1_455 S
O124 Co112 2.137 . S
O124 C115 1.247 . S
O125 Co112 2.244 . S
O125 C115 1.272 . S
O125 Co117 2.135 1_455 S
Co126 O127 2.216 . S
Co126 O128 2.091 . S
Co126 O130 2.004 . S
Co126 O136 2.021 . S
Co126 O138 2.137 . S
Co126 O139 2.244 . S
O127 Co126 2.216 . S
O127 C134 1.247 . S
O128 Co126 2.091 . S
O128 C134 1.261 . S
C129 O138 1.247 . S
C129 O139 1.272 . S
O130 Co126 2.004 . S
O130 C135 1.259 . S
Co131 O132 2.061 . S
Co131 O137 2.052 . S
Co131 O139 2.135 . S
O132 Co131 2.061 . S
O132 C135 1.235 . S
C133 O136 1.238 . S
C133 O137 1.241 . S
C134 O127 1.247 . S
C134 O128 1.261 . S
C135 O130 1.259 . S
C135 O132 1.235 . S
O136 Co126 2.021 . S
O136 C133 1.238 . S
O137 Co131 2.052 . S
O137 C133 1.241 . S
O138 Co126 2.137 . S
O138 C129 1.247 . S
O139 Co126 2.244 . S
O139 C129 1.272 . S
O139 Co131 2.135 . S
Co140 O141 2.216 . S
Co140 O142 2.091 . S
Co140 O144 2.004 1_545 S
Co140 O150 2.021 1_545 S
Co140 O152 2.137 . S
Co140 O153 2.244 . S
O141 Co140 2.216 . S
O141 C148 1.247 . S
O142 Co140 2.091 . S
O142 C148 1.261 . S
C143 O152 1.247 . S
C143 O153 1.272 . S
O144 Co140 2.004 1_565 S
O144 C149 1.259 . S
Co145 O146 2.061 . S
Co145 O151 2.052 1_565 S
Co145 O153 2.135 1_565 S
O146 Co145 2.061 . S
O146 C149 1.235 . S
C147 O150 1.238 . S
C147 O151 1.241 1_565 S
C148 O141 1.247 . S
C148 O142 1.261 . S
C149 O144 1.259 . S
C149 O146 1.235 . S
O150 Co140 2.021 1_565 S
O150 C147 1.238 . S
O151 Co145 2.052 1_545 S
O151 C147 1.241 1_545 S
O152 Co140 2.137 . S
O152 C143 1.247 . S
O153 Co140 2.244 . S
O153 C143 1.272 . S
O153 Co145 2.135 1_545 S
Co154 O155 2.216 . S
Co154 O156 2.091 . S
Co154 O158 2.004 1_655 S
Co154 O164 2.021 1_655 S
Co154 O166 2.137 . S
Co154 O167 2.244 . S
O155 Co154 2.216 . S
O155 C162 1.247 . S
O156 Co154 2.091 . S
O156 C162 1.261 . S
C157 O166 1.247 . S
C157 O167 1.272 . S
O158 Co154 2.004 1_455 S
O158 C163 1.259 . S
Co159 O160 2.061 . S
Co159 O165 2.036 1_455 S
Co159 O167 2.135 1_455 S
O160 Co159 2.061 . S
O160 C163 1.235 . S
C161 O164 1.238 . S
C161 O165 1.253 1_455 S
C162 O155 1.247 . S
C162 O156 1.261 . S
C163 O158 1.259 . S
C163 O160 1.235 . S
O164 Co154 2.021 1_455 S
O164 C161 1.238 . S
O165 Co159 2.036 1_655 S
O165 C161 1.253 1_655 S
O166 Co154 2.137 . S
O166 C157 1.247 . S
O167 Co154 2.244 . S
O167 C157 1.272 . S
O167 Co159 2.135 1_655 S
Co168 O169 2.216 . S
Co168 O170 2.091 . S
Co168 O172 2.004 . S
Co168 O178 2.021 . S
Co168 O180 2.137 . S
Co168 O181 2.244 . S
O169 Co168 2.216 . S
O169 C176 1.247 . S
O170 Co168 2.091 . S
O170 C176 1.261 . S
C171 O180 1.247 . S
C171 O181 1.272 . S
O172 Co168 2.004 . S
O172 C177 1.259 . S
Co173 O174 2.061 . S
Co173 O179 2.052 . S
Co173 O181 2.135 . S
O174 Co173 2.061 . S
O174 C177 1.235 . S
C175 O178 1.238 . S
C175 O179 1.241 . S
C176 O169 1.247 . S
C176 O170 1.261 . S
C177 O172 1.259 . S
C177 O174 1.235 . S
O178 Co168 2.021 . S
O178 C175 1.238 . S
O179 Co173 2.052 . S
O179 C175 1.241 . S
O180 Co168 2.137 . S
O180 C171 1.247 . S
O181 Co168 2.244 . S
O181 C171 1.272 . S
O181 Co173 2.135 . S
Co182 O183 2.216 . S
Co182 O184 2.091 . S
Co182 O186 2.004 . S
Co182 O192 2.021 . S
Co182 O194 2.137 . S
Co182 O195 2.244 . S
O183 Co182 2.216 . S
O183 C190 1.247 . S
O184 Co182 2.091 . S
O184 C190 1.261 . S
C185 O194 1.247 . S
C185 O195 1.272 . S
O186 Co182 2.004 . S
O186 C191 1.259 . S
Co187 O188 2.061 . S
Co187 O193 2.052 . S
Co187 O195 2.135 . S
O188 Co187 2.061 . S
O188 C191 1.235 . S
C189 O192 1.238 . S
C189 O193 1.241 . S
C190 O183 1.247 . S
C190 O184 1.261 . S
C191 O186 1.259 . S
C191 O188 1.235 . S
O192 Co182 2.021 . S
O192 C189 1.238 . S
O193 Co187 2.052 . S
O193 C189 1.241 . S
O194 Co182 2.137 . S
O194 C185 1.247 . S
O195 Co182 2.244 . S
O195 C185 1.272 . S
O195 Co187 2.135 . S
Co196 O197 2.216 . S
Co196 O198 2.091 . S
Co196 O200 2.004 . S
Co196 O206 2.021 . S
Co196 O208 2.137 . S
Co196 O209 2.244 . S
O197 Co196 2.216 . S
O197 C204 1.247 . S
O198 Co196 2.091 . S
O198 C204 1.261 . S
C199 O208 1.247 . S
C199 O209 1.272 . S
O200 Co196 2.004 . S
O200 C205 1.259 . S
Co201 O202 2.061 . S
Co201 O207 2.052 . S
Co201 O209 2.135 . S
O202 Co201 2.061 . S
O202 C205 1.235 . S
C203 O206 1.238 . S
C203 O207 1.241 . S
C204 O197 1.247 . S
C204 O198 1.261 . S
C205 O200 1.259 . S
C205 O202 1.235 . S
O206 Co196 2.021 . S
O206 C203 1.238 . S
O207 Co201 2.052 . S
O207 C203 1.241 . S
O208 Co196 2.137 . S
O208 C199 1.247 . S
O209 Co196 2.244 . S
O209 C199 1.272 . S
O209 Co201 2.135 . S
Co210 O211 2.216 . S
Co210 O212 2.091 . S
Co210 O214 2.004 . S
Co210 O220 2.021 . S
Co210 O222 2.137 . S
Co210 O223 2.244 . S
O211 Co210 2.216 . S
O211 C218 1.247 . S
O212 Co210 2.091 . S
O212 C218 1.261 . S
C213 O222 1.247 . S
C213 O223 1.272 . S
O214 Co210 2.004 . S
O214 C219 1.259 . S
Co215 O216 2.061 . S
Co215 O221 2.052 . S
Co215 O223 2.135 . S
O216 Co215 2.061 . S
O216 C219 1.235 . S
C217 O220 1.238 . S
C217 O221 1.241 . S
C218 O211 1.247 . S
C218 O212 1.261 . S
C219 O214 1.259 . S
C219 O216 1.235 . S
O220 Co210 2.021 . S
O220 C217 1.238 . S
O221 Co215 2.052 . S
O221 C217 1.241 . S
O222 Co210 2.137 . S
O222 C213 1.247 . S
O223 Co210 2.244 . S
O223 C213 1.272 . S
O223 Co215 2.135 . S
Co224 O225 2.216 . S
Co224 O226 2.091 . S
Co224 O228 2.004 . S
Co224 O234 2.021 . S
Co224 O236 2.137 . S
Co224 O237 2.244 . S
O225 Co224 2.216 . S
O225 C232 1.247 . S
O226 Co224 2.091 . S
O226 C232 1.261 . S
C227 O236 1.247 . S
C227 O237 1.272 . S
O228 Co224 2.004 . S
O228 C233 1.259 . S
Co229 O230 2.061 . S
Co229 O235 2.052 . S
Co229 O237 2.135 . S
O230 Co229 2.061 . S
O230 C233 1.235 . S
C231 O234 1.238 . S
C231 O235 1.241 . S
C232 O225 1.247 . S
C232 O226 1.261 . S
C233 O228 1.259 . S
C233 O230 1.235 . S
O234 Co224 2.021 . S
O234 C231 1.238 . S
O235 Co229 2.052 . S
O235 C231 1.241 . S
O236 Co224 2.137 . S
O236 C227 1.247 . S
O237 Co224 2.244 . S
O237 C227 1.272 . S
O237 Co229 2.135 . S
Co238 O239 2.216 . S
Co238 O240 2.091 . S
Co238 O242 2.004 . S
Co238 O248 2.021 . S
Co238 O250 2.137 . S
Co238 O251 2.244 . S
O239 Co238 2.216 . S
O239 C246 1.247 . S
O240 Co238 2.091 . S
O240 C246 1.261 . S
C241 O250 1.247 . S
C241 O251 1.272 . S
O242 Co238 2.004 . S
O242 C247 1.259 . S
Co243 O244 2.061 . S
Co243 O249 2.052 . S
Co243 O251 2.135 . S
O244 Co243 2.061 . S
O244 C247 1.235 . S
C245 O248 1.238 . S
C245 O249 1.241 . S
C246 O239 1.247 . S
C246 O240 1.261 . S
C247 O242 1.259 . S
C247 O244 1.235 . S
O248 Co238 2.021 . S
O248 C245 1.238 . S
O249 Co243 2.052 . S
O249 C245 1.241 . S
O250 Co238 2.137 . S
O250 C241 1.247 . S
O251 Co238 2.244 . S
O251 C241 1.272 . S
O251 Co243 2.135 . S
Co252 O253 2.216 . S
Co252 O254 2.091 . S
Co252 O256 2.004 . S
Co252 O262 2.021 . S
Co252 O264 2.137 . S
Co252 O265 2.244 . S
O253 Co252 2.216 . S
O253 C260 1.247 . S
O254 Co252 2.091 . S
O254 C260 1.261 . S
C255 O264 1.247 . S
C255 O265 1.272 . S
O256 Co252 2.004 . S
O256 C261 1.259 . S
Co257 O258 2.061 . S
Co257 O263 2.052 . S
Co257 O265 2.135 . S
O258 Co257 2.061 . S
O258 C261 1.235 . S
C259 O262 1.238 . S
C259 O263 1.241 . S
C260 O253 1.247 . S
C260 O254 1.261 . S
C261 O256 1.259 . S
C261 O258 1.235 . S
O262 Co252 2.021 . S
O262 C259 1.238 . S
O263 Co257 2.052 . S
O263 C259 1.241 . S
O264 Co252 2.137 . S
O264 C255 1.247 . S
O265 Co252 2.244 . S
O265 C255 1.272 . S
O265 Co257 2.135 . S
Co266 O267 2.216 . S
Co266 O268 2.091 . S
Co266 O270 2.004 . S
Co266 O276 2.021 . S
Co266 O278 2.137 . S
Co266 O279 2.244 . S
O267 Co266 2.216 . S
O267 C274 1.247 . S
O268 Co266 2.091 . S
O268 C274 1.261 . S
C269 O278 1.247 . S
C269 O279 1.272 . S
O270 Co266 2.004 . S
O270 C275 1.259 . S
Co271 O272 2.061 . S
Co271 O277 2.052 . S
Co271 O279 2.135 . S
O272 Co271 2.061 . S
O272 C275 1.235 . S
C273 O276 1.238 . S
C273 O277 1.241 . S
C274 O267 1.247 . S
C274 O268 1.261 . S
C275 O270 1.259 . S
C275 O272 1.235 . S
O276 Co266 2.021 . S
O276 C273 1.238 . S
O277 Co271 2.052 . S
O277 C273 1.241 . S
O278 Co266 2.137 . S
O278 C269 1.247 . S
O279 Co266 2.244 . S
O279 C269 1.272 . S
O279 Co271 2.135 . S
Co280 O281 2.216 . S
Co280 O282 2.091 . S
Co280 O284 2.004 . S
Co280 O290 2.021 . S
Co280 O292 2.137 . S
Co280 O293 2.244 . S
O281 Co280 2.216 . S
O281 C288 1.247 . S
O282 Co280 2.091 . S
O282 C288 1.261 . S
C283 O292 1.247 . S
C283 O293 1.272 . S
O284 Co280 2.004 . S
O284 C289 1.259 . S
Co285 O286 2.061 . S
Co285 O291 2.052 . S
Co285 O293 2.135 . S
O286 Co285 2.061 . S
O286 C289 1.235 . S
C287 O290 1.238 . S
C287 O291 1.241 . S
C288 O281 1.247 . S
C288 O282 1.261 . S
C289 O284 1.259 . S
C289 O286 1.235 . S
O290 Co280 2.021 . S
O290 C287 1.238 . S
O291 Co285 2.052 . S
O291 C287 1.241 . S
O292 Co280 2.137 . S
O292 C283 1.247 . S
O293 Co280 2.244 . S
O293 C283 1.272 . S
O293 Co285 2.135 . S
Co294 O295 2.216 . S
Co294 O296 2.091 1_554 S
Co294 O298 2.004 1_554 S
Co294 O304 2.021 . S
Co294 O306 2.137 1_554 S
Co294 O307 2.244 . S
O295 Co294 2.216 . S
O295 C302 1.247 1_554 S
O296 Co294 2.091 1_556 S
O296 C302 1.261 . S
C297 O306 1.272 . S
C297 O307 1.242 1_556 S
O298 Co294 2.004 1_556 S
O298 C303 1.251 1_556 S
Co299 O300 2.061 . S
Co299 O305 2.052 . S
Co299 O307 2.135 . S
O300 Co299 2.061 . S
O300 C303 1.251 . S
C301 O304 1.238 . S
C301 O305 1.241 . S
C302 O295 1.247 1_556 S
C302 O296 1.261 . S
C303 O298 1.251 1_554 S
C303 O300 1.251 . S
O304 Co294 2.021 . S
O304 C301 1.238 . S
O305 Co299 2.052 . S
O305 C301 1.241 . S
O306 Co294 2.137 1_556 S
O306 C297 1.272 . S
O307 Co294 2.244 . S
O307 C297 1.242 1_554 S
O307 Co299 2.135 . S
Co308 O309 2.216 . S
Co308 O310 2.091 1_554 S
Co308 O312 2.004 1_554 S
Co308 O318 2.021 . S
Co308 O320 2.137 1_554 S
Co308 O321 2.244 . S
O309 Co308 2.216 . S
O309 C316 1.247 1_554 S
O310 Co308 2.091 1_556 S
O310 C316 1.261 . S
C311 O320 1.272 . S
C311 O321 1.242 1_556 S
O312 Co308 2.004 1_556 S
O312 C317 1.251 1_556 S
Co313 O314 2.061 . S
Co313 O319 2.052 . S
Co313 O321 2.135 . S
O314 Co313 2.061 . S
O314 C317 1.251 . S
C315 O318 1.238 . S
C315 O319 1.241 . S
C316 O309 1.247 1_556 S
C316 O310 1.261 . S
C317 O312 1.251 1_554 S
C317 O314 1.251 . S
O318 Co308 2.021 . S
O318 C315 1.238 . S
O319 Co313 2.052 . S
O319 C315 1.241 . S
O320 Co308 2.137 1_556 S
O320 C311 1.272 . S
O321 Co308 2.244 . S
O321 C311 1.242 1_554 S
O321 Co313 2.135 . S
Co322 O323 2.216 . S
Co322 O324 2.091 1_554 S
Co322 O326 2.004 1_554 S
Co322 O332 2.021 . S
Co322 O334 2.137 1_554 S
Co322 O335 2.244 . S
O323 Co322 2.216 . S
O323 C330 1.247 1_554 S
O324 Co322 2.091 1_556 S
O324 C330 1.261 . S
C325 O334 1.272 . S
C325 O335 1.242 1_556 S
O326 Co322 2.004 1_556 S
O326 C331 1.251 1_556 S
Co327 O328 2.061 . S
Co327 O333 2.052 . S
Co327 O335 2.135 . S
O328 Co327 2.061 . S
O328 C331 1.251 . S
C329 O332 1.238 . S
C329 O333 1.241 . S
C330 O323 1.247 1_556 S
C330 O324 1.261 . S
C331 O326 1.251 1_554 S
C331 O328 1.251 . S
O332 Co322 2.021 . S
O332 C329 1.238 . S
O333 Co327 2.052 . S
O333 C329 1.241 . S
O334 Co322 2.137 1_556 S
O334 C325 1.272 . S
O335 Co322 2.244 . S
O335 C325 1.242 1_554 S
O335 Co327 2.135 . S
Co336 O337 2.216 . S
Co336 O338 2.091 . S
Co336 O340 2.004 . S
Co336 O346 2.021 . S
Co336 O348 2.137 . S
Co336 O349 2.244 . S
O337 Co336 2.216 . S
O337 C344 1.247 . S
O338 Co336 2.091 . S
O338 C344 1.261 . S
C339 O348 1.247 . S
C339 O349 1.272 . S
O340 Co336 2.004 . S
O340 C345 1.259 . S
Co341 O342 2.061 . S
Co341 O347 2.052 . S
Co341 O349 2.135 . S
O342 Co341 2.061 . S
O342 C345 1.235 . S
C343 O346 1.238 . S
C343 O347 1.241 . S
C344 O337 1.247 . S
C344 O338 1.261 . S
C345 O340 1.259 . S
C345 O342 1.235 . S
O346 Co336 2.021 . S
O346 C343 1.238 . S
O347 Co341 2.052 . S
O347 C343 1.241 . S
O348 Co336 2.137 . S
O348 C339 1.247 . S
O349 Co336 2.244 . S
O349 C339 1.272 . S
O349 Co341 2.135 . S
Co350 O351 2.216 . S
Co350 O352 2.091 . S
Co350 O354 2.004 . S
Co350 O360 2.021 . S
Co350 O362 2.137 . S
Co350 O363 2.244 . S
O351 Co350 2.216 . S
O351 C358 1.247 . S
O352 Co350 2.091 . S
O352 C358 1.261 . S
C353 O362 1.247 . S
C353 O363 1.272 . S
O354 Co350 2.004 . S
O354 C359 1.259 . S
Co355 O356 2.061 . S
Co355 O361 2.052 . S
Co355 O363 2.135 . S
O356 Co355 2.061 . S
O356 C359 1.235 . S
C357 O360 1.238 . S
C357 O361 1.241 . S
C358 O351 1.247 . S
C358 O352 1.261 . S
C359 O354 1.259 . S
C359 O356 1.235 . S
O360 Co350 2.021 . S
O360 C357 1.238 . S
O361 Co355 2.052 . S
O361 C357 1.241 . S
O362 Co350 2.137 . S
O362 C353 1.247 . S
O363 Co350 2.244 . S
O363 C353 1.272 . S
O363 Co355 2.135 . S
Co364 O365 2.216 . S
Co364 O366 2.091 . S
Co364 O368 2.004 . S
Co364 O374 2.021 . S
Co364 O376 2.137 . S
Co364 O377 2.244 . S
O365 Co364 2.216 . S
O365 C372 1.247 . S
O366 Co364 2.091 . S
O366 C372 1.261 . S
C367 O376 1.247 . S
C367 O377 1.272 . S
O368 Co364 2.004 . S
O368 C373 1.259 . S
Co369 O370 2.061 . S
Co369 O375 2.052 . S
Co369 O377 2.135 . S
O370 Co369 2.061 . S
O370 C373 1.235 . S
C371 O374 1.238 . S
C371 O375 1.241 . S
C372 O365 1.247 . S
C372 O366 1.261 . S
C373 O368 1.259 . S
C373 O370 1.235 . S
O374 Co364 2.021 . S
O374 C371 1.238 . S
O375 Co369 2.052 . S
O375 C371 1.241 . S
O376 Co364 2.137 . S
O376 C367 1.247 . S
O377 Co364 2.244 . S
O377 C367 1.272 . S
O377 Co369 2.135 . S
Co378 O379 2.216 . S
Co378 O380 2.091 1_556 S
Co378 O382 2.004 1_556 S
Co378 O388 2.021 1_556 S
Co378 O390 2.137 . S
Co378 O391 2.244 . S
O379 Co378 2.216 . S
O379 C386 1.247 1_556 S
O380 Co378 2.091 1_554 S
O380 C386 1.261 . S
C381 O390 1.247 . S
C381 O391 1.272 . S
O382 Co378 2.004 1_554 S
O382 C387 1.259 1_554 S
Co383 O384 2.061 . S
Co383 O389 2.052 . S
Co383 O391 2.135 . S
O384 Co383 2.061 . S
O384 C387 1.235 . S
C385 O388 1.238 1_556 S
C385 O389 1.241 . S
C386 O379 1.247 1_554 S
C386 O380 1.261 . S
C387 O382 1.259 1_556 S
C387 O384 1.235 . S
O388 Co378 2.021 1_554 S
O388 C385 1.238 1_554 S
O389 Co383 2.052 . S
O389 C385 1.241 . S
O390 Co378 2.137 . S
O390 C381 1.247 . S
O391 Co378 2.244 . S
O391 C381 1.272 . S
O391 Co383 2.135 . S
Co392 O393 2.216 . S
Co392 O394 2.091 1_556 S
Co392 O396 2.004 1_556 S
Co392 O402 2.021 1_556 S
Co392 O404 2.137 . S
Co392 O405 2.244 . S
O393 Co392 2.216 . S
O393 C400 1.247 1_556 S
O394 Co392 2.091 1_554 S
O394 C400 1.261 . S
C395 O404 1.247 . S
C395 O405 1.272 . S
O396 Co392 2.004 1_554 S
O396 C401 1.259 1_554 S
Co397 O398 2.061 . S
Co397 O403 2.052 . S
Co397 O405 2.135 . S
O398 Co397 2.061 . S
O398 C401 1.235 . S
C399 O402 1.238 1_556 S
C399 O403 1.241 . S
C400 O393 1.247 1_554 S
C400 O394 1.261 . S
C401 O396 1.259 1_556 S
C401 O398 1.235 . S
O402 Co392 2.021 1_554 S
O402 C399 1.238 1_554 S
O403 Co397 2.052 . S
O403 C399 1.241 . S
O404 Co392 2.137 . S
O404 C395 1.247 . S
O405 Co392 2.244 . S
O405 C395 1.272 . S
O405 Co397 2.135 . S
Co406 O407 2.216 . S
Co406 O408 2.091 1_556 S
Co406 O410 2.004 1_556 S
Co406 O416 2.021 1_556 S
Co406 O418 2.137 . S
Co406 O419 2.244 . S
O407 Co406 2.216 . S
O407 C414 1.247 1_556 S
O408 Co406 2.091 1_554 S
O408 C414 1.261 . S
C409 O418 1.247 . S
C409 O419 1.272 . S
O410 Co406 2.004 1_554 S
O410 C415 1.259 1_554 S
Co411 O412 2.061 . S
Co411 O417 2.052 . S
Co411 O419 2.135 . S
O412 Co411 2.061 . S
O412 C415 1.235 . S
C413 O416 1.238 1_556 S
C413 O417 1.241 . S
C414 O407 1.247 1_554 S
C414 O408 1.261 . S
C415 O410 1.259 1_556 S
C415 O412 1.235 . S
O416 Co406 2.021 1_554 S
O416 C413 1.238 1_554 S
O417 Co411 2.052 . S
O417 C413 1.241 . S
O418 Co406 2.137 . S
O418 C409 1.247 . S
O419 Co406 2.244 . S
O419 C409 1.272 . S
O419 Co411 2.135 . S
Co420 O421 2.216 . S
Co420 O422 2.091 . S
Co420 O424 2.004 . S
Co420 O430 2.021 . S
Co420 O432 2.137 . S
Co420 O433 2.244 . S
O421 Co420 2.216 . S
O421 C428 1.247 . S
O422 Co420 2.091 . S
O422 C428 1.261 . S
C423 O432 1.247 . S
C423 O433 1.272 . S
O424 Co420 2.004 . S
O424 C429 1.259 . S
Co425 O426 2.061 . S
Co425 O431 2.052 . S
Co425 O433 2.135 . S
O426 Co425 2.061 . S
O426 C429 1.235 . S
C427 O430 1.238 . S
C427 O431 1.241 . S
C428 O421 1.247 . S
C428 O422 1.261 . S
C429 O424 1.259 . S
C429 O426 1.235 . S
O430 Co420 2.021 . S
O430 C427 1.238 . S
O431 Co425 2.052 . S
O431 C427 1.241 . S
O432 Co420 2.137 . S
O432 C423 1.247 . S
O433 Co420 2.244 . S
O433 C423 1.272 . S
O433 Co425 2.135 . S
Co434 O435 2.216 . S
Co434 O436 2.091 . S
Co434 O438 2.004 . S
Co434 O444 2.021 . S
Co434 O446 2.137 . S
Co434 O447 2.244 . S
O435 Co434 2.216 . S
O435 C442 1.247 . S
O436 Co434 2.091 . S
O436 C442 1.261 . S
C437 O446 1.247 . S
C437 O447 1.272 . S
O438 Co434 2.004 . S
O438 C443 1.259 . S
Co439 O440 2.061 . S
Co439 O445 2.052 . S
Co439 O447 2.135 . S
O440 Co439 2.061 . S
O440 C443 1.235 . S
C441 O444 1.238 . S
C441 O445 1.241 . S
C442 O435 1.247 . S
C442 O436 1.261 . S
C443 O438 1.259 . S
C443 O440 1.235 . S
O444 Co434 2.021 . S
O444 C441 1.238 . S
O445 Co439 2.052 . S
O445 C441 1.241 . S
O446 Co434 2.137 . S
O446 C437 1.247 . S
O447 Co434 2.244 . S
O447 C437 1.272 . S
O447 Co439 2.135 . S
Co448 O449 2.216 . S
Co448 O450 2.091 . S
Co448 O452 2.004 . S
Co448 O458 2.021 . S
Co448 O460 2.137 . S
Co448 O461 2.244 . S
O449 Co448 2.216 . S
O449 C456 1.247 . S
O450 Co448 2.091 . S
O450 C456 1.261 . S
C451 O460 1.247 . S
C451 O461 1.272 . S
O452 Co448 2.004 . S
O452 C457 1.259 . S
Co453 O454 2.061 . S
Co453 O459 2.052 . S
Co453 O461 2.135 . S
O454 Co453 2.061 . S
O454 C457 1.235 . S
C455 O458 1.238 . S
C455 O459 1.241 . S
C456 O449 1.247 . S
C456 O450 1.261 . S
C457 O452 1.259 . S
C457 O454 1.235 . S
O458 Co448 2.021 . S
O458 C455 1.238 . S
O459 Co453 2.052 . S
O459 C455 1.241 . S
O460 Co448 2.137 . S
O460 C451 1.247 . S
O461 Co448 2.244 . S
O461 C451 1.272 . S
O461 Co453 2.135 . S
Co462 O463 2.216 . S
Co462 O464 2.091 . S
Co462 O466 2.004 . S
Co462 O472 2.021 . S
Co462 O474 2.137 . S
Co462 O475 2.244 . S
O463 Co462 2.216 . S
O463 C470 1.247 . S
O464 Co462 2.091 . S
O464 C470 1.261 . S
C465 O474 1.247 . S
C465 O475 1.272 . S
O466 Co462 2.004 . S
O466 C471 1.259 . S
Co467 O468 2.061 . S
Co467 O473 2.052 . S
Co467 O475 2.135 . S
O468 Co467 2.061 . S
O468 C471 1.235 . S
C469 O472 1.238 . S
C469 O473 1.241 . S
C470 O463 1.247 . S
C470 O464 1.261 . S
C471 O466 1.259 . S
C471 O468 1.235 . S
O472 Co462 2.021 . S
O472 C469 1.238 . S
O473 Co467 2.052 . S
O473 C469 1.241 . S
O474 Co462 2.137 . S
O474 C465 1.247 . S
O475 Co462 2.244 . S
O475 C465 1.272 . S
O475 Co467 2.135 . S
Co476 O477 2.216 . S
Co476 O478 2.091 . S
Co476 O480 2.004 . S
Co476 O486 2.021 . S
Co476 O488 2.137 . S
Co476 O489 2.244 . S
O477 Co476 2.216 . S
O477 C484 1.247 . S
O478 Co476 2.091 . S
O478 C484 1.261 . S
C479 O488 1.247 . S
C479 O489 1.272 . S
O480 Co476 2.004 . S
O480 C485 1.259 . S
Co481 O482 2.061 . S
Co481 O487 2.052 . S
Co481 O489 2.135 . S
O482 Co481 2.061 . S
O482 C485 1.235 . S
C483 O486 1.238 . S
C483 O487 1.241 . S
C484 O477 1.247 . S
C484 O478 1.261 . S
C485 O480 1.259 . S
C485 O482 1.235 . S
O486 Co476 2.021 . S
O486 C483 1.238 . S
O487 Co481 2.052 . S
O487 C483 1.241 . S
O488 Co476 2.137 . S
O488 C479 1.247 . S
O489 Co476 2.244 . S
O489 C479 1.272 . S
O489 Co481 2.135 . S
Co490 O491 2.216 . S
Co490 O492 2.091 . S
Co490 O494 2.004 . S
Co490 O500 2.021 . S
Co490 O502 2.137 . S
Co490 O503 2.244 . S
O491 Co490 2.216 . S
O491 C498 1.247 . S
O492 Co490 2.091 . S
O492 C498 1.261 . S
C493 O502 1.247 . S
C493 O503 1.272 . S
O494 Co490 2.004 . S
O494 C499 1.259 . S
Co495 O496 2.061 . S
Co495 O501 2.052 . S
Co495 O503 2.135 . S
O496 Co495 2.061 . S
O496 C499 1.235 . S
C497 O500 1.238 . S
C497 O501 1.241 . S
C498 O491 1.247 . S
C498 O492 1.261 . S
C499 O494 1.259 . S
C499 O496 1.235 . S
O500 Co490 2.021 . S
O500 C497 1.238 . S
O501 Co495 2.052 . S
O501 C497 1.241 . S
O502 Co490 2.137 . S
O502 C493 1.247 . S
O503 Co490 2.244 . S
O503 C493 1.272 . S
O503 Co495 2.135 . S
C504 C505 1.363 . S
C504 C510 1.391 . S
C504 N512 1.356 . S
C505 C504 1.363 . S
C505 C511 1.363 . S
C506 C507 1.363 . S
C506 C511 1.379 1_655 S
C506 N513 1.356 . S
C507 C506 1.363 . S
C507 C510 1.351 1_655 S
N508 C510 1.351 1_655 S
N508 H520 0.984 . S
N508 H521 0.985 . S
N509 C511 1.356 . S
N509 H514 0.984 . S
N509 H515 0.985 . S
C510 C504 1.391 . S
C510 C507 1.351 1_455 S
C510 N508 1.351 1_455 S
C511 C505 1.363 . S
C511 C506 1.379 1_455 S
C511 N509 1.356 . S
N512 C504 1.356 . S
N512 H518 0.984 . S
N512 H519 0.984 . S
N513 C506 1.356 . S
N513 H516 0.984 . S
N513 H517 0.985 . S
H514 N509 0.984 . S
H515 N509 0.985 . S
H516 N513 0.984 . S
H517 N513 0.985 . S
H518 N512 0.984 . S
H519 N512 0.984 . S
H520 N508 0.984 . S
H521 N508 0.985 . S
C522 C523 1.363 . S
C522 C528 1.379 . S
C522 N530 1.356 . S
C523 C522 1.363 . S
C523 C529 1.363 . S
C524 C525 1.363 . S
C524 C529 1.379 . S
C524 N531 1.356 . S
C525 C524 1.363 . S
C525 C528 1.363 . S
N526 C528 1.356 . S
N526 H538 0.984 . S
N526 H539 0.985 . S
N527 C529 1.356 . S
N527 H532 0.984 . S
N527 H533 0.985 . S
C528 C522 1.379 . S
C528 C525 1.363 . S
C528 N526 1.356 . S
C529 C523 1.363 . S
C529 C524 1.379 . S
C529 N527 1.356 . S
N530 C522 1.356 . S
N530 H536 0.984 . S
N530 H537 0.984 . S
N531 C524 1.356 . S
N531 H534 0.984 . S
N531 H535 0.985 . S
H532 N527 0.984 . S
H533 N527 0.985 . S
H534 N531 0.984 . S
H535 N531 0.985 . S
H536 N530 0.984 . S
H537 N530 0.984 . S
H538 N526 0.984 . S
H539 N526 0.985 . S
C540 C541 1.363 . S
C540 C546 1.379 1_545 S
C540 N548 1.356 . S
C541 C540 1.363 . S
C541 C547 1.363 . S
C542 C543 1.363 . S
C542 C547 1.379 1_565 S
C542 N549 1.356 . S
C543 C542 1.363 . S
C543 C546 1.363 . S
N544 C546 1.356 . S
N544 H556 0.984 . S
N544 H557 0.985 . S
N545 C547 1.356 . S
N545 H550 0.984 . S
N545 H551 0.985 . S
C546 C540 1.379 1_565 S
C546 C543 1.363 . S
C546 N544 1.356 . S
C547 C541 1.363 . S
C547 C542 1.379 1_545 S
C547 N545 1.356 . S
N548 C540 1.356 . S
N548 H554 0.984 . S
N548 H555 0.984 . S
N549 C542 1.356 . S
N549 H552 0.984 . S
N549 H553 0.985 . S
H550 N545 0.984 . S
H551 N545 0.985 . S
H552 N549 0.984 . S
H553 N549 0.985 . S
H554 N548 0.984 . S
H555 N548 0.984 . S
H556 N544 0.984 . S
H557 N544 0.985 . S
C558 C559 1.363 . S
C558 C564 1.394 . S
C558 N566 1.356 . S
C559 C558 1.363 . S
C559 C565 1.363 . S
C560 C561 1.363 . S
C560 C565 1.379 1_565 S
C560 N567 1.356 . S
C561 C560 1.363 . S
C561 C564 1.348 1_565 S
N562 C564 1.351 1_565 S
N562 H574 0.984 . S
N562 H575 0.985 . S
N563 C565 1.356 . S
N563 H568 0.984 . S
N563 H569 0.985 . S
C564 C558 1.394 . S
C564 C561 1.348 1_545 S
C564 N562 1.351 1_545 S
C565 C559 1.363 . S
C565 C560 1.379 1_545 S
C565 N563 1.356 . S
N566 C558 1.356 . S
N566 H572 0.984 . S
N566 H573 0.984 . S
N567 C560 1.356 . S
N567 H570 0.984 . S
N567 H571 0.985 . S
H568 N563 0.984 . S
H569 N563 0.985 . S
H570 N567 0.984 . S
H571 N567 0.985 . S
H572 N566 0.984 . S
H573 N566 0.984 . S
H574 N562 0.984 . S
H575 N562 0.985 . S
C576 C577 1.363 . S
C576 C582 1.380 . S
C576 N584 1.356 . S
C577 C576 1.363 . S
C577 C583 1.363 . S
C578 C579 1.363 . S
C578 C583 1.379 1_455 S
C578 N585 1.356 . S
C579 C578 1.363 . S
C579 C582 1.363 1_455 S
N580 C582 1.355 1_455 S
N580 H592 0.984 . S
N580 H593 0.985 . S
N581 C583 1.356 . S
N581 H586 0.984 . S
N581 H587 0.985 . S
C582 C576 1.380 . S
C582 C579 1.363 1_655 S
C582 N580 1.355 1_655 S
C583 C577 1.363 . S
C583 C578 1.379 1_655 S
C583 N581 1.356 . S
N584 C576 1.356 . S
N584 H590 0.984 . S
N584 H591 0.984 . S
N585 C578 1.356 . S
N585 H588 0.984 . S
N585 H589 0.985 . S
H586 N581 0.984 . S
H587 N581 0.985 . S
H588 N585 0.984 . S
H589 N585 0.985 . S
H590 N584 0.984 . S
H591 N584 0.984 . S
H592 N580 0.984 . S
H593 N580 0.985 . S
C594 C595 1.363 . S
C594 C600 1.379 . S
C594 N602 1.356 . S
C595 C594 1.363 . S
C595 C601 1.363 . S
C596 C597 1.363 . S
C596 C601 1.379 . S
C596 N603 1.356 . S
C597 C596 1.363 . S
C597 C600 1.363 . S
N598 C600 1.356 . S
N598 H610 0.984 . S
N598 H611 0.985 . S
N599 C601 1.356 . S
N599 H604 0.984 . S
N599 H605 0.985 . S
C600 C594 1.379 . S
C600 C597 1.363 . S
C600 N598 1.356 . S
C601 C595 1.363 . S
C601 C596 1.379 . S
C601 N599 1.356 . S
N602 C594 1.356 . S
N602 H608 0.984 . S
N602 H609 0.984 . S
N603 C596 1.356 . S
N603 H606 0.984 . S
N603 H607 0.985 . S
H604 N599 0.984 . S
H605 N599 0.985 . S
H606 N603 0.984 . S
H607 N603 0.985 . S
H608 N602 0.984 . S
H609 N602 0.984 . S
H610 N598 0.984 . S
H611 N598 0.985 . S
C612 C613 1.363 . S
C612 C618 1.379 1_655 S
C612 N620 1.356 . S
C613 C612 1.363 . S
C613 C619 1.363 . S
C614 C615 1.363 . S
C614 C619 1.379 1_455 S
C614 N621 1.356 . S
C615 C614 1.363 . S
C615 C618 1.363 . S
N616 C618 1.356 . S
N616 H628 0.984 . S
N616 H629 0.985 . S
N617 C619 1.356 . S
N617 H622 0.984 . S
N617 H623 0.985 . S
C618 C612 1.379 1_455 S
C618 C615 1.363 . S
C618 N616 1.356 . S
C619 C613 1.363 . S
C619 C614 1.379 1_655 S
C619 N617 1.356 . S
N620 C612 1.356 . S
N620 H626 0.984 . S
N620 H627 0.984 . S
N621 C614 1.356 . S
N621 H624 0.984 . S
N621 H625 0.985 . S
H622 N617 0.984 . S
H623 N617 0.985 . S
H624 N621 0.984 . S
H625 N621 0.985 . S
H626 N620 0.984 . S
H627 N620 0.984 . S
H628 N616 0.984 . S
H629 N616 0.985 . S
C630 C631 1.363 . S
C630 C636 1.379 . S
C630 N638 1.356 . S
C631 C630 1.363 . S
C631 C637 1.363 . S
C632 C633 1.363 . S
C632 C637 1.379 . S
C632 N639 1.356 . S
C633 C632 1.363 . S
C633 C636 1.363 . S
N634 C636 1.356 . S
N634 H646 0.984 . S
N634 H647 0.985 . S
N635 C637 1.356 . S
N635 H640 0.984 . S
N635 H641 0.985 . S
C636 C630 1.379 . S
C636 C633 1.363 . S
C636 N634 1.356 . S
C637 C631 1.363 . S
C637 C632 1.379 . S
C637 N635 1.356 . S
N638 C630 1.356 . S
N638 H644 0.984 . S
N638 H645 0.984 . S
N639 C632 1.356 . S
N639 H642 0.984 . S
N639 H643 0.985 . S
H640 N635 0.984 . S
H641 N635 0.985 . S
H642 N639 0.984 . S
H643 N639 0.985 . S
H644 N638 0.984 . S
H645 N638 0.984 . S
H646 N634 0.984 . S
H647 N634 0.985 . S
C648 C649 1.355 1_545 S
C648 C654 1.400 . S
C648 N656 1.338 1_545 S
C649 C648 1.355 1_565 S
C649 C655 1.363 . S
C650 C651 1.363 . S
C650 C655 1.379 1_545 S
C650 N657 1.356 . S
C651 C650 1.363 . S
C651 C654 1.363 . S
N652 C654 1.356 . S
N652 H664 0.984 . S
N652 H665 0.985 . S
N653 C655 1.356 . S
N653 H658 0.984 . S
N653 H659 0.985 . S
C654 C648 1.400 . S
C654 C651 1.363 . S
C654 N652 1.356 . S
C655 C649 1.363 . S
C655 C650 1.379 1_565 S
C655 N653 1.356 . S
N656 C648 1.338 1_565 S
N656 H662 0.984 . S
N656 H663 0.984 . S
N657 C650 1.356 . S
N657 H660 0.984 . S
N657 H661 0.985 . S
H658 N653 0.984 . S
H659 N653 0.985 . S
H660 N657 0.984 . S
H661 N657 0.985 . S
H662 N656 0.984 . S
H663 N656 0.984 . S
H664 N652 0.984 . S
H665 N652 0.985 . S
C666 C667 1.363 . S
C666 C672 1.379 1_545 S
C666 N674 1.356 . S
C667 C666 1.363 . S
C667 C673 1.347 1_545 S
C668 C669 1.363 . S
C668 C673 1.394 . S
C668 N675 1.356 . S
C669 C668 1.363 . S
C669 C672 1.363 . S
N670 C672 1.356 . S
N670 H682 0.984 . S
N670 H683 0.985 . S
N671 C673 1.351 1_545 S
N671 H676 0.984 . S
N671 H677 0.985 . S
C672 C666 1.379 1_565 S
C672 C669 1.363 . S
C672 N670 1.356 . S
C673 C667 1.347 1_565 S
C673 C668 1.394 . S
C673 N671 1.351 1_565 S
N674 C666 1.356 . S
N674 H680 0.984 . S
N674 H681 0.984 . S
N675 C668 1.356 . S
N675 H678 0.984 . S
N675 H679 0.985 . S
H676 N671 0.984 . S
H677 N671 0.985 . S
H678 N675 0.984 . S
H679 N675 0.985 . S
H680 N674 0.984 . S
H681 N674 0.984 . S
H682 N670 0.984 . S
H683 N670 0.985 . S
C684 C685 1.363 . S
C684 C690 1.379 1_455 S
C684 N692 1.356 . S
C685 C684 1.363 . S
C685 C691 1.363 . S
C686 C687 1.363 . S
C686 C691 1.379 1_655 S
C686 N693 1.356 . S
C687 C686 1.363 . S
C687 C690 1.363 . S
N688 C690 1.356 . S
N688 H700 0.984 . S
N688 H701 0.985 . S
N689 C691 1.356 . S
N689 H694 0.984 . S
N689 H695 0.985 . S
C690 C684 1.379 1_655 S
C690 C687 1.363 . S
C690 N688 1.356 . S
C691 C685 1.363 . S
C691 C686 1.379 1_455 S
C691 N689 1.356 . S
N692 C684 1.356 . S
N692 H698 0.984 . S
N692 H699 0.984 . S
N693 C686 1.356 . S
N693 H696 0.984 . S
N693 H697 0.985 . S
H694 N689 0.984 . S
H695 N689 0.985 . S
H696 N693 0.984 . S
H697 N693 0.985 . S
H698 N692 0.984 . S
H699 N692 0.984 . S
H700 N688 0.984 . S
H701 N688 0.985 . S
C702 C703 1.363 . S
C702 C708 1.379 . S
C702 N710 1.356 . S
C703 C702 1.363 . S
C703 C709 1.363 . S
C704 C705 1.363 . S
C704 C709 1.379 . S
C704 N711 1.356 . S
C705 C704 1.363 . S
C705 C708 1.363 . S
N706 C708 1.356 . S
N706 H718 0.984 . S
N706 H719 0.985 . S
N707 C709 1.356 . S
N707 H712 0.984 . S
N707 H713 0.985 . S
C708 C702 1.379 . S
C708 C705 1.363 . S
C708 N706 1.356 . S
C709 C703 1.363 . S
C709 C704 1.379 . S
C709 N707 1.356 . S
N710 C702 1.356 . S
N710 H716 0.984 . S
N710 H717 0.984 . S
N711 C704 1.356 . S
N711 H714 0.984 . S
N711 H715 0.985 . S
H712 N707 0.984 . S
H713 N707 0.985 . S
H714 N711 0.984 . S
H715 N711 0.985 . S
H716 N710 0.984 . S
H717 N710 0.984 . S
H718 N706 0.984 . S
H719 N706 0.985 . S
C720 C721 1.363 . S
C720 C726 1.379 . S
C720 N728 1.356 . S
C721 C720 1.363 . S
C721 C727 1.363 . S
C722 C723 1.363 . S
C722 C727 1.379 . S
C722 N729 1.356 . S
C723 C722 1.363 . S
C723 C726 1.363 . S
N724 C726 1.356 . S
N724 H736 0.984 . S
N724 H737 0.985 . S
N725 C727 1.356 . S
N725 H730 0.984 . S
N725 H731 0.985 . S
C726 C720 1.379 . S
C726 C723 1.363 . S
C726 N724 1.356 . S
C727 C721 1.363 . S
C727 C722 1.379 . S
C727 N725 1.356 . S
N728 C720 1.356 . S
N728 H734 0.984 . S
N728 H735 0.984 . S
N729 C722 1.356 . S
N729 H732 0.984 . S
N729 H733 0.985 . S
H730 N725 0.984 . S
H731 N725 0.985 . S
H732 N729 0.984 . S
H733 N729 0.985 . S
H734 N728 0.984 . S
H735 N728 0.984 . S
H736 N724 0.984 . S
H737 N724 0.985 . S
C738 C739 1.363 . S
C738 C744 1.379 . S
C738 N746 1.356 . S
C739 C738 1.363 . S
C739 C745 1.363 . S
C740 C741 1.363 . S
C740 C745 1.379 . S
C740 N747 1.356 . S
C741 C740 1.363 . S
C741 C744 1.363 . S
N742 C744 1.356 . S
N742 H754 0.984 . S
N742 H755 0.985 . S
N743 C745 1.356 . S
N743 H748 0.984 . S
N743 H749 0.985 . S
C744 C738 1.379 . S
C744 C741 1.363 . S
C744 N742 1.356 . S
C745 C739 1.363 . S
C745 C740 1.379 . S
C745 N743 1.356 . S
N746 C738 1.356 . S
N746 H752 0.984 . S
N746 H753 0.984 . S
N747 C740 1.356 . S
N747 H750 0.984 . S
N747 H751 0.985 . S
H748 N743 0.984 . S
H749 N743 0.985 . S
H750 N747 0.984 . S
H751 N747 0.985 . S
H752 N746 0.984 . S
H753 N746 0.984 . S
H754 N742 0.984 . S
H755 N742 0.985 . S
C756 C757 1.363 . S
C756 C762 1.379 . S
C756 N764 1.356 . S
C757 C756 1.363 . S
C757 C763 1.363 . S
C758 C759 1.363 . S
C758 C763 1.379 . S
C758 N765 1.356 . S
C759 C758 1.363 . S
C759 C762 1.363 . S
N760 C762 1.356 . S
N760 H772 0.984 . S
N760 H773 0.985 . S
N761 C763 1.356 . S
N761 H766 0.984 . S
N761 H767 0.985 . S
C762 C756 1.379 . S
C762 C759 1.363 . S
C762 N760 1.356 . S
C763 C757 1.363 . S
C763 C758 1.379 . S
C763 N761 1.356 . S
N764 C756 1.356 . S
N764 H770 0.984 . S
N764 H771 0.984 . S
N765 C758 1.356 . S
N765 H768 0.984 . S
N765 H769 0.985 . S
H766 N761 0.984 . S
H767 N761 0.985 . S
H768 N765 0.984 . S
H769 N765 0.985 . S
H770 N764 0.984 . S
H771 N764 0.984 . S
H772 N760 0.984 . S
H773 N760 0.985 . S
C774 C775 1.363 . S
C774 C780 1.379 . S
C774 N782 1.356 . S
C775 C774 1.363 . S
C775 C781 1.363 . S
C776 C777 1.363 . S
C776 C781 1.379 . S
C776 N783 1.356 . S
C777 C776 1.363 . S
C777 C780 1.363 . S
N778 C780 1.356 . S
N778 H790 0.984 . S
N778 H791 0.985 . S
N779 C781 1.356 . S
N779 H784 0.984 . S
N779 H785 0.985 . S
C780 C774 1.379 . S
C780 C777 1.363 . S
C780 N778 1.356 . S
C781 C775 1.363 . S
C781 C776 1.379 . S
C781 N779 1.356 . S
N782 C774 1.356 . S
N782 H788 0.984 . S
N782 H789 0.984 . S
N783 C776 1.356 . S
N783 H786 0.984 . S
N783 H787 0.985 . S
H784 N779 0.984 . S
H785 N779 0.985 . S
H786 N783 0.984 . S
H787 N783 0.985 . S
H788 N782 0.984 . S
H789 N782 0.984 . S
H790 N778 0.984 . S
H791 N778 0.985 . S
C792 C793 1.363 . S
C792 C798 1.379 . S
C792 N800 1.356 . S
C793 C792 1.363 . S
C793 C799 1.363 . S
C794 C795 1.363 . S
C794 C799 1.379 . S
C794 N801 1.356 . S
C795 C794 1.363 . S
C795 C798 1.363 . S
N796 C798 1.356 . S
N796 H808 0.984 . S
N796 H809 0.985 . S
N797 C799 1.356 . S
N797 H802 0.984 . S
N797 H803 0.985 . S
C798 C792 1.379 . S
C798 C795 1.363 . S
C798 N796 1.356 . S
C799 C793 1.363 . S
C799 C794 1.379 . S
C799 N797 1.356 . S
N800 C792 1.356 . S
N800 H806 0.984 . S
N800 H807 0.984 . S
N801 C794 1.356 . S
N801 H804 0.984 . S
N801 H805 0.985 . S
H802 N797 0.984 . S
H803 N797 0.985 . S
H804 N801 0.984 . S
H805 N801 0.985 . S
H806 N800 0.984 . S
H807 N800 0.984 . S
H808 N796 0.984 . S
H809 N796 0.985 . S
C810 C811 1.363 . S
C810 C816 1.379 . S
C810 N818 1.356 . S
C811 C810 1.363 . S
C811 C817 1.363 . S
C812 C813 1.363 . S
C812 C817 1.379 . S
C812 N819 1.356 . S
C813 C812 1.363 . S
C813 C816 1.363 . S
N814 C816 1.356 . S
N814 H826 0.984 . S
N814 H827 0.985 . S
N815 C817 1.356 . S
N815 H820 0.984 . S
N815 H821 0.985 . S
C816 C810 1.379 . S
C816 C813 1.363 . S
C816 N814 1.356 . S
C817 C811 1.363 . S
C817 C812 1.379 . S
C817 N815 1.356 . S
N818 C810 1.356 . S
N818 H824 0.984 . S
N818 H825 0.984 . S
N819 C812 1.356 . S
N819 H822 0.984 . S
N819 H823 0.985 . S
H820 N815 0.984 . S
H821 N815 0.985 . S
H822 N819 0.984 . S
H823 N819 0.985 . S
H824 N818 0.984 . S
H825 N818 0.984 . S
H826 N814 0.984 . S
H827 N814 0.985 . S
C828 C829 1.363 . S
C828 C834 1.379 . S
C828 N836 1.356 . S
C829 C828 1.363 . S
C829 C835 1.363 . S
C830 C831 1.363 . S
C830 C835 1.379 . S
C830 N837 1.356 . S
C831 C830 1.363 . S
C831 C834 1.363 . S
N832 C834 1.356 . S
N832 H844 0.984 . S
N832 H845 0.985 . S
N833 C835 1.356 . S
N833 H838 0.984 . S
N833 H839 0.985 . S
C834 C828 1.379 . S
C834 C831 1.363 . S
C834 N832 1.356 . S
C835 C829 1.363 . S
C835 C830 1.379 . S
C835 N833 1.356 . S
N836 C828 1.356 . S
N836 H842 0.984 . S
N836 H843 0.984 . S
N837 C830 1.356 . S
N837 H840 0.984 . S
N837 H841 0.985 . S
H838 N833 0.984 . S
H839 N833 0.985 . S
H840 N837 0.984 . S
H841 N837 0.985 . S
H842 N836 0.984 . S
H843 N836 0.984 . S
H844 N832 0.984 . S
H845 N832 0.985 . S
C846 C847 1.363 . S
C846 C852 1.379 . S
C846 N854 1.356 . S
C847 C846 1.363 . S
C847 C853 1.363 . S
C848 C849 1.363 . S
C848 C853 1.379 . S
C848 N855 1.356 . S
C849 C848 1.363 . S
C849 C852 1.363 . S
N850 C852 1.356 . S
N850 H862 0.984 . S
N850 H863 0.985 . S
N851 C853 1.356 . S
N851 H856 0.984 . S
N851 H857 0.985 . S
C852 C846 1.379 . S
C852 C849 1.363 . S
C852 N850 1.356 . S
C853 C847 1.363 . S
C853 C848 1.379 . S
C853 N851 1.356 . S
N854 C846 1.356 . S
N854 H860 0.984 . S
N854 H861 0.984 . S
N855 C848 1.356 . S
N855 H858 0.984 . S
N855 H859 0.985 . S
H856 N851 0.984 . S
H857 N851 0.985 . S
H858 N855 0.984 . S
H859 N855 0.985 . S
H860 N854 0.984 . S
H861 N854 0.984 . S
H862 N850 0.984 . S
H863 N850 0.985 . S
C864 C865 1.363 . S
C864 C870 1.379 . S
C864 N872 1.356 . S
C865 C864 1.363 . S
C865 C871 1.363 . S
C866 C867 1.363 . S
C866 C871 1.379 . S
C866 N873 1.356 . S
C867 C866 1.363 . S
C867 C870 1.363 . S
N868 C870 1.356 . S
N868 H880 0.984 . S
N868 H881 0.985 . S
N869 C871 1.356 . S
N869 H874 0.984 . S
N869 H875 0.985 . S
C870 C864 1.379 . S
C870 C867 1.363 . S
C870 N868 1.356 . S
C871 C865 1.363 . S
C871 C866 1.379 . S
C871 N869 1.356 . S
N872 C864 1.356 . S
N872 H878 0.984 . S
N872 H879 0.984 . S
N873 C866 1.356 . S
N873 H876 0.984 . S
N873 H877 0.985 . S
H874 N869 0.984 . S
H875 N869 0.985 . S
H876 N873 0.984 . S
H877 N873 0.985 . S
H878 N872 0.984 . S
H879 N872 0.984 . S
H880 N868 0.984 . S
H881 N868 0.985 . S
C882 C883 1.363 1_554 S
C882 C888 1.379 . S
C882 N890 1.356 . S
C883 C882 1.363 1_556 S
C883 C889 1.363 . S
C884 C885 1.363 . S
C884 C889 1.379 . S
C884 N891 1.356 . S
C885 C884 1.363 . S
C885 C888 1.363 1_556 S
N886 C888 1.356 . S
N886 H898 0.984 . S
N886 H899 0.985 . S
N887 C889 1.356 . S
N887 H892 0.984 . S
N887 H893 0.985 . S
C888 C882 1.379 . S
C888 C885 1.363 1_554 S
C888 N886 1.356 . S
C889 C883 1.363 . S
C889 C884 1.379 . S
C889 N887 1.356 . S
N890 C882 1.356 . S
N890 H896 0.984 . S
N890 H897 0.984 . S
N891 C884 1.356 . S
N891 H894 0.984 . S
N891 H895 0.985 . S
H892 N887 0.984 . S
H893 N887 0.985 . S
H894 N891 0.984 . S
H895 N891 0.985 . S
H896 N890 0.984 . S
H897 N890 0.984 . S
H898 N886 0.984 . S
H899 N886 0.985 . S
C900 C901 1.363 . S
C900 C906 1.379 . S
C900 N908 1.356 . S
C901 C900 1.363 . S
C901 C907 1.363 1_556 S
C902 C903 1.363 1_554 S
C902 C907 1.379 . S
C902 N909 1.356 . S
C903 C902 1.363 1_556 S
C903 C906 1.363 . S
N904 C906 1.356 . S
N904 H916 0.984 . S
N904 H917 0.985 . S
N905 C907 1.356 . S
N905 H910 0.984 . S
N905 H911 0.985 . S
C906 C900 1.379 . S
C906 C903 1.363 . S
C906 N904 1.356 . S
C907 C901 1.363 1_554 S
C907 C902 1.379 . S
C907 N905 1.356 . S
N908 C900 1.356 . S
N908 H914 0.984 . S
N908 H915 0.984 . S
N909 C902 1.356 . S
N909 H912 0.984 . S
N909 H913 0.985 . S
H910 N905 0.984 . S
H911 N905 0.985 . S
H912 N909 0.984 . S
H913 N909 0.985 . S
H914 N908 0.984 . S
H915 N908 0.984 . S
H916 N904 0.984 . S
H917 N904 0.985 . S
C918 C919 1.363 1_554 S
C918 C924 1.379 . S
C918 N926 1.356 . S
C919 C918 1.363 1_556 S
C919 C925 1.363 . S
C920 C921 1.363 . S
C920 C925 1.379 . S
C920 N927 1.356 . S
C921 C920 1.363 . S
C921 C924 1.363 1_556 S
N922 C924 1.356 . S
N922 H934 0.984 . S
N922 H935 0.985 . S
N923 C925 1.356 . S
N923 H928 0.984 . S
N923 H929 0.985 . S
C924 C918 1.379 . S
C924 C921 1.363 1_554 S
C924 N922 1.356 . S
C925 C919 1.363 . S
C925 C920 1.379 . S
C925 N923 1.356 . S
N926 C918 1.356 . S
N926 H932 0.984 . S
N926 H933 0.984 . S
N927 C920 1.356 . S
N927 H930 0.984 . S
N927 H931 0.985 . S
H928 N923 0.984 . S
H929 N923 0.985 . S
H930 N927 0.984 . S
H931 N927 0.985 . S
H932 N926 0.984 . S
H933 N926 0.984 . S
H934 N922 0.984 . S
H935 N922 0.985 . S
C936 C937 1.363 . S
C936 C942 1.379 . S
C936 N944 1.356 . S
C937 C936 1.363 . S
C937 C943 1.363 . S
C938 C939 1.363 . S
C938 C943 1.379 . S
C938 N945 1.356 . S
C939 C938 1.363 . S
C939 C942 1.363 . S
N940 C942 1.356 . S
N940 H952 0.984 . S
N940 H953 0.985 . S
N941 C943 1.356 . S
N941 H946 0.984 . S
N941 H947 0.985 . S
C942 C936 1.379 . S
C942 C939 1.363 . S
C942 N940 1.356 . S
C943 C937 1.363 . S
C943 C938 1.379 . S
C943 N941 1.356 . S
N944 C936 1.356 . S
N944 H950 0.984 . S
N944 H951 0.984 . S
N945 C938 1.356 . S
N945 H948 0.984 . S
N945 H949 0.985 . S
H946 N941 0.984 . S
H947 N941 0.985 . S
H948 N945 0.984 . S
H949 N945 0.985 . S
H950 N944 0.984 . S
H951 N944 0.984 . S
H952 N940 0.984 . S
H953 N940 0.985 . S
C954 C955 1.363 . S
C954 C960 1.379 . S
C954 N962 1.356 . S
C955 C954 1.363 . S
C955 C961 1.363 . S
C956 C957 1.363 . S
C956 C961 1.379 . S
C956 N963 1.356 . S
C957 C956 1.363 . S
C957 C960 1.363 . S
N958 C960 1.356 . S
N958 H970 0.984 . S
N958 H971 0.985 . S
N959 C961 1.356 . S
N959 H964 0.984 . S
N959 H965 0.985 . S
C960 C954 1.379 . S
C960 C957 1.363 . S
C960 N958 1.356 . S
C961 C955 1.363 . S
C961 C956 1.379 . S
C961 N959 1.356 . S
N962 C954 1.356 . S
N962 H968 0.984 . S
N962 H969 0.984 . S
N963 C956 1.356 . S
N963 H966 0.984 . S
N963 H967 0.985 . S
H964 N959 0.984 . S
H965 N959 0.985 . S
H966 N963 0.984 . S
H967 N963 0.985 . S
H968 N962 0.984 . S
H969 N962 0.984 . S
H970 N958 0.984 . S
H971 N958 0.985 . S
C972 C973 1.363 . S
C972 C978 1.379 . S
C972 N980 1.356 . S
C973 C972 1.363 . S
C973 C979 1.363 . S
C974 C975 1.363 . S
C974 C979 1.379 . S
C974 N981 1.356 . S
C975 C974 1.363 . S
C975 C978 1.363 . S
N976 C978 1.356 . S
N976 H988 0.984 . S
N976 H989 0.985 . S
N977 C979 1.356 . S
N977 H982 0.984 . S
N977 H983 0.985 . S
C978 C972 1.379 . S
C978 C975 1.363 . S
C978 N976 1.356 . S
C979 C973 1.363 . S
C979 C974 1.379 . S
C979 N977 1.356 . S
N980 C972 1.356 . S
N980 H986 0.984 . S
N980 H987 0.984 . S
N981 C974 1.356 . S
N981 H984 0.984 . S
N981 H985 0.985 . S
H982 N977 0.984 . S
H983 N977 0.985 . S
H984 N981 0.984 . S
H985 N981 0.985 . S
H986 N980 0.984 . S
H987 N980 0.984 . S
H988 N976 0.984 . S
H989 N976 0.985 . S
C990 C991 1.363 1_556 S
C990 C996 1.379 . S
C990 N998 1.356 . S
C991 C990 1.363 1_554 S
C991 C997 1.363 . S
C992 C993 1.363 . S
C992 C997 1.379 . S
C992 N999 1.356 . S
C993 C992 1.363 . S
C993 C996 1.363 1_554 S
N994 C996 1.356 . S
N994 H1006 0.984 . S
N994 H1007 0.985 . S
N995 C997 1.356 . S
N995 H1000 0.984 . S
N995 H1001 0.985 . S
C996 C990 1.379 . S
C996 C993 1.363 1_556 S
C996 N994 1.356 . S
C997 C991 1.363 . S
C997 C992 1.379 . S
C997 N995 1.356 . S
N998 C990 1.356 . S
N998 H1004 0.984 . S
N998 H1005 0.984 . S
N999 C992 1.356 . S
N999 H1002 0.984 . S
N999 H1003 0.985 . S
H1000 N995 0.984 . S
H1001 N995 0.985 . S
H1002 N999 0.984 . S
H1003 N999 0.985 . S
H1004 N998 0.984 . S
H1005 N998 0.984 . S
H1006 N994 0.984 . S
H1007 N994 0.985 . S
C1008 C1009 1.363 1_556 S
C1008 C1014 1.379 . S
C1008 N1016 1.356 . S
C1009 C1008 1.363 1_554 S
C1009 C1015 1.363 . S
C1010 C1011 1.363 . S
C1010 C1015 1.379 . S
C1010 N1017 1.356 . S
C1011 C1010 1.363 . S
C1011 C1014 1.363 1_554 S
N1012 C1014 1.356 . S
N1012 H1024 0.984 . S
N1012 H1025 0.985 . S
N1013 C1015 1.356 . S
N1013 H1018 0.984 . S
N1013 H1019 0.985 . S
C1014 C1008 1.379 . S
C1014 C1011 1.363 1_556 S
C1014 N1012 1.356 . S
C1015 C1009 1.363 . S
C1015 C1010 1.379 . S
C1015 N1013 1.356 . S
N1016 C1008 1.356 . S
N1016 H1022 0.984 . S
N1016 H1023 0.984 . S
N1017 C1010 1.356 . S
N1017 H1020 0.984 . S
N1017 H1021 0.985 . S
H1018 N1013 0.984 . S
H1019 N1013 0.985 . S
H1020 N1017 0.984 . S
H1021 N1017 0.985 . S
H1022 N1016 0.984 . S
H1023 N1016 0.984 . S
H1024 N1012 0.984 . S
H1025 N1012 0.985 . S
C1026 C1027 1.363 . S
C1026 C1032 1.379 . S
C1026 N1034 1.356 . S
C1027 C1026 1.363 . S
C1027 C1033 1.363 1_554 S
C1028 C1029 1.363 1_556 S
C1028 C1033 1.379 . S
C1028 N1035 1.356 . S
C1029 C1028 1.363 1_554 S
C1029 C1032 1.363 . S
N1030 C1032 1.356 . S
N1030 H1042 0.984 . S
N1030 H1043 0.985 . S
N1031 C1033 1.356 . S
N1031 H1036 0.984 . S
N1031 H1037 0.985 . S
C1032 C1026 1.379 . S
C1032 C1029 1.363 . S
C1032 N1030 1.356 . S
C1033 C1027 1.363 1_556 S
C1033 C1028 1.379 . S
C1033 N1031 1.356 . S
N1034 C1026 1.356 . S
N1034 H1040 0.984 . S
N1034 H1041 0.984 . S
N1035 C1028 1.356 . S
N1035 H1038 0.984 . S
N1035 H1039 0.985 . S
H1036 N1031 0.984 . S
H1037 N1031 0.985 . S
H1038 N1035 0.984 . S
H1039 N1035 0.985 . S
H1040 N1034 0.984 . S
H1041 N1034 0.984 . S
H1042 N1030 0.984 . S
H1043 N1030 0.985 . S
C1044 C1045 1.363 . S
C1044 C1050 1.379 . S
C1044 N1052 1.356 . S
C1045 C1044 1.363 . S
C1045 C1051 1.363 . S
C1046 C1047 1.363 . S
C1046 C1051 1.379 . S
C1046 N1053 1.356 . S
C1047 C1046 1.363 . S
C1047 C1050 1.363 . S
N1048 C1050 1.356 . S
N1048 H1060 0.984 . S
N1048 H1061 0.985 . S
N1049 C1051 1.356 . S
N1049 H1054 0.984 . S
N1049 H1055 0.985 . S
C1050 C1044 1.379 . S
C1050 C1047 1.363 . S
C1050 N1048 1.356 . S
C1051 C1045 1.363 . S
C1051 C1046 1.379 . S
C1051 N1049 1.356 . S
N1052 C1044 1.356 . S
N1052 H1058 0.984 . S
N1052 H1059 0.984 . S
N1053 C1046 1.356 . S
N1053 H1056 0.984 . S
N1053 H1057 0.985 . S
H1054 N1049 0.984 . S
H1055 N1049 0.985 . S
H1056 N1053 0.984 . S
H1057 N1053 0.985 . S
H1058 N1052 0.984 . S
H1059 N1052 0.984 . S
H1060 N1048 0.984 . S
H1061 N1048 0.985 . S
C1062 C1063 1.363 . S
C1062 C1068 1.379 . S
C1062 N1070 1.356 . S
C1063 C1062 1.363 . S
C1063 C1069 1.363 . S
C1064 C1065 1.363 . S
C1064 C1069 1.379 . S
C1064 N1071 1.356 . S
C1065 C1064 1.363 . S
C1065 C1068 1.363 . S
N1066 C1068 1.356 . S
N1066 H1078 0.984 . S
N1066 H1079 0.985 . S
N1067 C1069 1.356 . S
N1067 H1072 0.984 . S
N1067 H1073 0.985 . S
C1068 C1062 1.379 . S
C1068 C1065 1.363 . S
C1068 N1066 1.356 . S
C1069 C1063 1.363 . S
C1069 C1064 1.379 . S
C1069 N1067 1.356 . S
N1070 C1062 1.356 . S
N1070 H1076 0.984 . S
N1070 H1077 0.984 . S
N1071 C1064 1.356 . S
N1071 H1074 0.984 . S
N1071 H1075 0.985 . S
H1072 N1067 0.984 . S
H1073 N1067 0.985 . S
H1074 N1071 0.984 . S
H1075 N1071 0.985 . S
H1076 N1070 0.984 . S
H1077 N1070 0.984 . S
H1078 N1066 0.984 . S
H1079 N1066 0.985 . S
C1080 C1081 1.363 . S
C1080 C1086 1.379 . S
C1080 N1088 1.356 . S
C1081 C1080 1.363 . S
C1081 C1087 1.363 . S
C1082 C1083 1.363 . S
C1082 C1087 1.379 . S
C1082 N1089 1.356 . S
C1083 C1082 1.363 . S
C1083 C1086 1.363 . S
N1084 C1086 1.356 . S
N1084 H1096 0.984 . S
N1084 H1097 0.985 . S
N1085 C1087 1.356 . S
N1085 H1090 0.984 . S
N1085 H1091 0.985 . S
C1086 C1080 1.379 . S
C1086 C1083 1.363 . S
C1086 N1084 1.356 . S
C1087 C1081 1.363 . S
C1087 C1082 1.379 . S
C1087 N1085 1.356 . S
N1088 C1080 1.356 . S
N1088 H1094 0.984 . S
N1088 H1095 0.984 . S
N1089 C1082 1.356 . S
N1089 H1092 0.984 . S
N1089 H1093 0.985 . S
H1090 N1085 0.984 . S
H1091 N1085 0.985 . S
H1092 N1089 0.984 . S
H1093 N1089 0.985 . S
H1094 N1088 0.984 . S
H1095 N1088 0.984 . S
H1096 N1084 0.984 . S
H1097 N1084 0.985 . S
C1098 C1099 1.363 . S
C1098 C1104 1.379 . S
C1098 N1106 1.356 . S
C1099 C1098 1.363 . S
C1099 C1105 1.363 . S
C1100 C1101 1.363 . S
C1100 C1105 1.379 . S
C1100 N1107 1.356 . S
C1101 C1100 1.363 . S
C1101 C1104 1.363 . S
N1102 C1104 1.356 . S
N1102 H1114 0.984 . S
N1102 H1115 0.985 . S
N1103 C1105 1.356 . S
N1103 H1108 0.984 . S
N1103 H1109 0.985 . S
C1104 C1098 1.379 . S
C1104 C1101 1.363 . S
C1104 N1102 1.356 . S
C1105 C1099 1.363 . S
C1105 C1100 1.379 . S
C1105 N1103 1.356 . S
N1106 C1098 1.356 . S
N1106 H1112 0.984 . S
N1106 H1113 0.984 . S
N1107 C1100 1.356 . S
N1107 H1110 0.984 . S
N1107 H1111 0.985 . S
H1108 N1103 0.984 . S
H1109 N1103 0.985 . S
H1110 N1107 0.984 . S
H1111 N1107 0.985 . S
H1112 N1106 0.984 . S
H1113 N1106 0.984 . S
H1114 N1102 0.984 . S
H1115 N1102 0.985 . S
C1116 C1117 1.363 . S
C1116 C1122 1.379 . S
C1116 N1124 1.356 . S
C1117 C1116 1.363 . S
C1117 C1123 1.363 . S
C1118 C1119 1.363 . S
C1118 C1123 1.379 . S
C1118 N1125 1.356 . S
C1119 C1118 1.363 . S
C1119 C1122 1.363 . S
N1120 C1122 1.356 . S
N1120 H1132 0.984 . S
N1120 H1133 0.985 . S
N1121 C1123 1.356 . S
N1121 H1126 0.984 . S
N1121 H1127 0.985 . S
C1122 C1116 1.379 . S
C1122 C1119 1.363 . S
C1122 N1120 1.356 . S
C1123 C1117 1.363 . S
C1123 C1118 1.379 . S
C1123 N1121 1.356 . S
N1124 C1116 1.356 . S
N1124 H1130 0.984 . S
N1124 H1131 0.984 . S
N1125 C1118 1.356 . S
N1125 H1128 0.984 . S
N1125 H1129 0.985 . S
H1126 N1121 0.984 . S
H1127 N1121 0.985 . S
H1128 N1125 0.984 . S
H1129 N1125 0.985 . S
H1130 N1124 0.984 . S
H1131 N1124 0.984 . S
H1132 N1120 0.984 . S
H1133 N1120 0.985 . S
C1134 C1135 1.363 . S
C1134 C1140 1.379 . S
C1134 N1142 1.356 . S
C1135 C1134 1.363 . S
C1135 C1141 1.363 . S
C1136 C1137 1.363 . S
C1136 C1141 1.379 . S
C1136 N1143 1.356 . S
C1137 C1136 1.363 . S
C1137 C1140 1.363 . S
N1138 C1140 1.356 . S
N1138 H1150 0.984 . S
N1138 H1151 0.985 . S
N1139 C1141 1.356 . S
N1139 H1144 0.984 . S
N1139 H1145 0.985 . S
C1140 C1134 1.379 . S
C1140 C1137 1.363 . S
C1140 N1138 1.356 . S
C1141 C1135 1.363 . S
C1141 C1136 1.379 . S
C1141 N1139 1.356 . S
N1142 C1134 1.356 . S
N1142 H1148 0.984 . S
N1142 H1149 0.984 . S
N1143 C1136 1.356 . S
N1143 H1146 0.984 . S
N1143 H1147 0.985 . S
H1144 N1139 0.984 . S
H1145 N1139 0.985 . S
H1146 N1143 0.984 . S
H1147 N1143 0.985 . S
H1148 N1142 0.984 . S
H1149 N1142 0.984 . S
H1150 N1138 0.984 . S
H1151 N1138 0.985 . S
C1152 C1153 1.363 . S
C1152 C1158 1.379 . S
C1152 N1160 1.356 . S
C1153 C1152 1.363 . S
C1153 C1159 1.363 . S
C1154 C1155 1.363 . S
C1154 C1159 1.379 . S
C1154 N1161 1.356 . S
C1155 C1154 1.363 . S
C1155 C1158 1.363 . S
N1156 C1158 1.356 . S
N1156 H1168 0.984 . S
N1156 H1169 0.985 . S
N1157 C1159 1.356 . S
N1157 H1162 0.984 . S
N1157 H1163 0.985 . S
C1158 C1152 1.379 . S
C1158 C1155 1.363 . S
C1158 N1156 1.356 . S
C1159 C1153 1.363 . S
C1159 C1154 1.379 . S
C1159 N1157 1.356 . S
N1160 C1152 1.356 . S
N1160 H1166 0.984 . S
N1160 H1167 0.984 . S
N1161 C1154 1.356 . S
N1161 H1164 0.984 . S
N1161 H1165 0.985 . S
H1162 N1157 0.984 . S
H1163 N1157 0.985 . S
H1164 N1161 0.984 . S
H1165 N1161 0.985 . S
H1166 N1160 0.984 . S
H1167 N1160 0.984 . S
H1168 N1156 0.984 . S
H1169 N1156 0.985 . S
C1170 C1171 1.363 1_545 S
C1170 C1176 1.379 . S
C1170 N1178 1.356 . S
C1171 C1170 1.363 1_565 S
C1171 C1177 1.363 . S
C1172 C1173 1.363 1_565 S
C1172 C1177 1.379 . S
C1172 N1179 1.356 . S
C1173 C1172 1.363 1_545 S
C1173 C1176 1.363 . S
N1174 C1176 1.356 . S
N1174 H1186 0.984 . S
N1174 H1187 0.985 . S
N1175 C1177 1.356 . S
N1175 H1180 0.984 . S
N1175 H1181 0.985 . S
C1176 C1170 1.379 . S
C1176 C1173 1.363 . S
C1176 N1174 1.356 . S
C1177 C1171 1.363 . S
C1177 C1172 1.379 . S
C1177 N1175 1.356 . S
N1178 C1170 1.356 . S
N1178 H1184 0.984 . S
N1178 H1185 0.984 . S
N1179 C1172 1.356 . S
N1179 H1182 0.984 . S
N1179 H1183 0.985 . S
H1180 N1175 0.984 . S
H1181 N1175 0.985 . S
H1182 N1179 0.984 . S
H1183 N1179 0.985 . S
H1184 N1178 0.984 . S
H1185 N1178 0.984 . S
H1186 N1174 0.984 . S
H1187 N1174 0.985 . S
C1188 C1189 1.363 1_455 S
C1188 C1194 1.379 . S
C1188 N1196 1.356 . S
C1189 C1188 1.363 1_655 S
C1189 C1195 1.363 . S
C1190 C1191 1.363 1_655 S
C1190 C1195 1.379 . S
C1190 N1197 1.356 . S
C1191 C1190 1.363 1_455 S
C1191 C1194 1.363 . S
N1192 C1194 1.356 . S
N1192 H1204 0.984 . S
N1192 H1205 0.985 . S
N1193 C1195 1.356 . S
N1193 H1198 0.984 . S
N1193 H1199 0.985 . S
C1194 C1188 1.379 . S
C1194 C1191 1.363 . S
C1194 N1192 1.356 . S
C1195 C1189 1.363 . S
C1195 C1190 1.379 . S
C1195 N1193 1.356 . S
N1196 C1188 1.356 . S
N1196 H1202 0.984 . S
N1196 H1203 0.984 1_455 S
N1197 C1190 1.356 . S
N1197 H1200 0.984 1_655 S
N1197 H1201 0.985 . S
H1198 N1193 0.984 . S
H1199 N1193 0.985 . S
H1200 N1197 0.984 1_455 S
H1201 N1197 0.985 . S
H1202 N1196 0.984 . S
H1203 N1196 0.984 1_655 S
H1204 N1192 0.984 . S
H1205 N1192 0.985 . S
C1206 C1207 1.363 . S
C1206 C1212 1.379 . S
C1206 N1214 1.356 . S
C1207 C1206 1.363 . S
C1207 C1213 1.363 . S
C1208 C1209 1.363 . S
C1208 C1213 1.379 . S
C1208 N1215 1.356 . S
C1209 C1208 1.363 . S
C1209 C1212 1.363 . S
N1210 C1212 1.356 . S
N1210 H1222 0.984 . S
N1210 H1223 0.985 . S
N1211 C1213 1.356 . S
N1211 H1216 0.984 . S
N1211 H1217 0.985 . S
C1212 C1206 1.379 . S
C1212 C1209 1.363 . S
C1212 N1210 1.356 . S
C1213 C1207 1.363 . S
C1213 C1208 1.379 . S
C1213 N1211 1.356 . S
N1214 C1206 1.356 . S
N1214 H1220 0.984 . S
N1214 H1221 0.984 . S
N1215 C1208 1.356 . S
N1215 H1218 0.984 . S
N1215 H1219 0.985 . S
H1216 N1211 0.984 . S
H1217 N1211 0.985 . S
H1218 N1215 0.984 . S
H1219 N1215 0.985 . S
H1220 N1214 0.984 . S
H1221 N1214 0.984 . S
H1222 N1210 0.984 . S
H1223 N1210 0.985 . S
C1224 C1225 1.363 1_565 S
C1224 C1230 1.379 . S
C1224 N1232 1.356 . S
C1225 C1224 1.363 1_545 S
C1225 C1231 1.363 . S
C1226 C1227 1.363 1_545 S
C1226 C1231 1.379 . S
C1226 N1233 1.356 . S
C1227 C1226 1.363 1_565 S
C1227 C1230 1.363 . S
N1228 C1230 1.356 . S
N1228 H1240 0.984 . S
N1228 H1241 0.985 . S
N1229 C1231 1.356 . S
N1229 H1234 0.984 . S
N1229 H1235 0.985 . S
C1230 C1224 1.379 . S
C1230 C1227 1.363 . S
C1230 N1228 1.356 . S
C1231 C1225 1.363 . S
C1231 C1226 1.379 . S
C1231 N1229 1.356 . S
N1232 C1224 1.356 . S
N1232 H1238 0.984 . S
N1232 H1239 0.984 . S
N1233 C1226 1.356 . S
N1233 H1236 0.984 . S
N1233 H1237 0.985 . S
H1234 N1229 0.984 . S
H1235 N1229 0.985 . S
H1236 N1233 0.984 . S
H1237 N1233 0.985 . S
H1238 N1232 0.984 . S
H1239 N1232 0.984 . S
H1240 N1228 0.984 . S
H1241 N1228 0.985 . S
C1242 C1243 1.363 . S
C1242 C1248 1.379 . S
C1242 N1250 1.356 . S
C1243 C1242 1.363 . S
C1243 C1249 1.363 1_455 S
C1244 C1245 1.363 . S
C1244 C1249 1.379 . S
C1244 N1251 1.356 . S
C1245 C1244 1.363 . S
C1245 C1248 1.363 1_655 S
N1246 C1248 1.356 . S
N1246 H1258 0.984 . S
N1246 H1259 0.985 . S
N1247 C1249 1.356 . S
N1247 H1252 0.984 . S
N1247 H1253 0.985 . S
C1248 C1242 1.379 . S
C1248 C1245 1.363 1_455 S
C1248 N1246 1.356 . S
C1249 C1243 1.363 1_655 S
C1249 C1244 1.379 . S
C1249 N1247 1.356 . S
N1250 C1242 1.356 . S
N1250 H1256 0.984 . S
N1250 H1257 0.984 . S
N1251 C1244 1.356 . S
N1251 H1254 0.984 . S
N1251 H1255 0.985 . S
H1252 N1247 0.984 . S
H1253 N1247 0.985 . S
H1254 N1251 0.984 . S
H1255 N1251 0.985 . S
H1256 N1250 0.984 . S
H1257 N1250 0.984 . S
H1258 N1246 0.984 . S
H1259 N1246 0.985 . S
C1260 C1261 1.363 . S
C1260 C1266 1.379 . S
C1260 N1268 1.356 . S
C1261 C1260 1.363 . S
C1261 C1267 1.363 . S
C1262 C1263 1.363 . S
C1262 C1267 1.379 . S
C1262 N1269 1.356 . S
C1263 C1262 1.363 . S
C1263 C1266 1.363 . S
N1264 C1266 1.356 . S
N1264 H1276 0.984 . S
N1264 H1277 0.985 . S
N1265 C1267 1.356 . S
N1265 H1270 0.984 . S
N1265 H1271 0.985 . S
C1266 C1260 1.379 . S
C1266 C1263 1.363 . S
C1266 N1264 1.356 . S
C1267 C1261 1.363 . S
C1267 C1262 1.379 . S
C1267 N1265 1.356 . S
N1268 C1260 1.356 . S
N1268 H1274 0.984 . S
N1268 H1275 0.984 . S
N1269 C1262 1.356 . S
N1269 H1272 0.984 . S
N1269 H1273 0.985 . S
H1270 N1265 0.984 . S
H1271 N1265 0.985 . S
H1272 N1269 0.984 . S
H1273 N1269 0.985 . S
H1274 N1268 0.984 . S
H1275 N1268 0.984 . S
H1276 N1264 0.984 . S
H1277 N1264 0.985 . S
C1278 C1279 1.363 . S
C1278 C1284 1.379 . S
C1278 N1286 1.356 . S
C1279 C1278 1.363 . S
C1279 C1285 1.363 . S
C1280 C1281 1.363 . S
C1280 C1285 1.379 . S
C1280 N1287 1.356 . S
C1281 C1280 1.363 . S
C1281 C1284 1.363 . S
N1282 C1284 1.356 . S
N1282 H1294 0.984 . S
N1282 H1295 0.985 . S
N1283 C1285 1.356 . S
N1283 H1288 0.984 . S
N1283 H1289 0.985 . S
C1284 C1278 1.379 . S
C1284 C1281 1.363 . S
C1284 N1282 1.356 . S
C1285 C1279 1.363 . S
C1285 C1280 1.379 . S
C1285 N1283 1.356 . S
N1286 C1278 1.356 . S
N1286 H1292 0.984 . S
N1286 H1293 0.984 . S
N1287 C1280 1.356 . S
N1287 H1290 0.984 . S
N1287 H1291 0.985 . S
H1288 N1283 0.984 . S
H1289 N1283 0.985 . S
H1290 N1287 0.984 . S
H1291 N1287 0.985 . S
H1292 N1286 0.984 . S
H1293 N1286 0.984 . S
H1294 N1282 0.984 . S
H1295 N1282 0.985 . S
C1296 C1297 1.363 . S
C1296 C1302 1.379 . S
C1296 N1304 1.356 . S
C1297 C1296 1.363 . S
C1297 C1303 1.363 . S
C1298 C1299 1.363 . S
C1298 C1303 1.379 . S
C1298 N1305 1.356 . S
C1299 C1298 1.363 . S
C1299 C1302 1.363 . S
N1300 C1302 1.356 . S
N1300 H1312 0.984 . S
N1300 H1313 0.985 . S
N1301 C1303 1.356 . S
N1301 H1306 0.984 . S
N1301 H1307 0.985 . S
C1302 C1296 1.379 . S
C1302 C1299 1.363 . S
C1302 N1300 1.356 . S
C1303 C1297 1.363 . S
C1303 C1298 1.379 . S
C1303 N1301 1.356 . S
N1304 C1296 1.356 . S
N1304 H1310 0.984 . S
N1304 H1311 0.984 . S
N1305 C1298 1.356 . S
N1305 H1308 0.984 . S
N1305 H1309 0.985 . S
H1306 N1301 0.984 . S
H1307 N1301 0.985 . S
H1308 N1305 0.984 . S
H1309 N1305 0.985 . S
H1310 N1304 0.984 . S
H1311 N1304 0.984 . S
H1312 N1300 0.984 . S
H1313 N1300 0.985 . S
C1314 C1315 1.363 . S
C1314 C1320 1.379 . S
C1314 N1322 1.356 . S
C1315 C1314 1.363 . S
C1315 C1321 1.363 . S
C1316 C1317 1.363 . S
C1316 C1321 1.379 . S
C1316 N1323 1.356 . S
C1317 C1316 1.363 . S
C1317 C1320 1.363 . S
N1318 C1320 1.356 . S
N1318 H1330 0.984 . S
N1318 H1331 0.985 . S
N1319 C1321 1.356 . S
N1319 H1324 0.984 . S
N1319 H1325 0.985 . S
C1320 C1314 1.379 . S
C1320 C1317 1.363 . S
C1320 N1318 1.356 . S
C1321 C1315 1.363 . S
C1321 C1316 1.379 . S
C1321 N1319 1.356 . S
N1322 C1314 1.356 . S
N1322 H1328 0.984 . S
N1322 H1329 0.984 . S
N1323 C1316 1.356 . S
N1323 H1326 0.984 . S
N1323 H1327 0.985 . S
H1324 N1319 0.984 . S
H1325 N1319 0.985 . S
H1326 N1323 0.984 . S
H1327 N1323 0.985 . S
H1328 N1322 0.984 . S
H1329 N1322 0.984 . S
H1330 N1318 0.984 . S
H1331 N1318 0.985 . S
C1332 C1333 1.363 . S
C1332 C1338 1.379 . S
C1332 N1340 1.356 . S
C1333 C1332 1.363 . S
C1333 C1339 1.363 . S
C1334 C1335 1.363 . S
C1334 C1339 1.379 . S
C1334 N1341 1.356 . S
C1335 C1334 1.363 . S
C1335 C1338 1.363 . S
N1336 C1338 1.356 . S
N1336 H1348 0.984 . S
N1336 H1349 0.985 . S
N1337 C1339 1.356 . S
N1337 H1342 0.984 . S
N1337 H1343 0.985 . S
C1338 C1332 1.379 . S
C1338 C1335 1.363 . S
C1338 N1336 1.356 . S
C1339 C1333 1.363 . S
C1339 C1334 1.379 . S
C1339 N1337 1.356 . S
N1340 C1332 1.356 . S
N1340 H1346 0.984 . S
N1340 H1347 0.984 . S
N1341 C1334 1.356 . S
N1341 H1344 0.984 . S
N1341 H1345 0.985 . S
H1342 N1337 0.984 . S
H1343 N1337 0.985 . S
H1344 N1341 0.984 . S
H1345 N1341 0.985 . S
H1346 N1340 0.984 . S
H1347 N1340 0.984 . S
H1348 N1336 0.984 . S
H1349 N1336 0.985 . S
C1350 C1351 1.363 . S
C1350 C1356 1.379 . S
C1350 N1358 1.356 . S
C1351 C1350 1.363 . S
C1351 C1357 1.363 . S
C1352 C1353 1.363 . S
C1352 C1357 1.379 . S
C1352 N1359 1.356 . S
C1353 C1352 1.363 . S
C1353 C1356 1.363 . S
N1354 C1356 1.356 . S
N1354 H1366 0.984 . S
N1354 H1367 0.985 . S
N1355 C1357 1.356 . S
N1355 H1360 0.984 . S
N1355 H1361 0.985 . S
C1356 C1350 1.379 . S
C1356 C1353 1.363 . S
C1356 N1354 1.356 . S
C1357 C1351 1.363 . S
C1357 C1352 1.379 . S
C1357 N1355 1.356 . S
N1358 C1350 1.356 . S
N1358 H1364 0.984 . S
N1358 H1365 0.984 . S
N1359 C1352 1.356 . S
N1359 H1362 0.984 . S
N1359 H1363 0.985 . S
H1360 N1355 0.984 . S
H1361 N1355 0.985 . S
H1362 N1359 0.984 . S
H1363 N1359 0.985 . S
H1364 N1358 0.984 . S
H1365 N1358 0.984 . S
H1366 N1354 0.984 . S
H1367 N1354 0.985 . S
C1368 C1369 1.363 . S
C1368 C1374 1.379 . S
C1368 N1376 1.356 . S
C1369 C1368 1.363 . S
C1369 C1375 1.363 . S
C1370 C1371 1.363 . S
C1370 C1375 1.379 . S
C1370 N1377 1.356 . S
C1371 C1370 1.363 . S
C1371 C1374 1.363 . S
N1372 C1374 1.356 . S
N1372 H1384 0.984 . S
N1372 H1385 0.985 . S
N1373 C1375 1.356 . S
N1373 H1378 0.984 . S
N1373 H1379 0.985 . S
C1374 C1368 1.379 . S
C1374 C1371 1.363 . S
C1374 N1372 1.356 . S
C1375 C1369 1.363 . S
C1375 C1370 1.379 . S
C1375 N1373 1.356 . S
N1376 C1368 1.356 . S
N1376 H1382 0.984 . S
N1376 H1383 0.984 . S
N1377 C1370 1.356 . S
N1377 H1380 0.984 . S
N1377 H1381 0.985 . S
H1378 N1373 0.984 . S
H1379 N1373 0.985 . S
H1380 N1377 0.984 . S
H1381 N1377 0.985 . S
H1382 N1376 0.984 . S
H1383 N1376 0.984 . S
H1384 N1372 0.984 . S
H1385 N1372 0.985 . S
C1386 C1387 1.363 . S
C1386 C1392 1.379 . S
C1386 N1394 1.356 . S
C1387 C1386 1.363 . S
C1387 C1393 1.363 . S
C1388 C1389 1.363 . S
C1388 C1393 1.379 . S
C1388 N1395 1.356 . S
C1389 C1388 1.363 . S
C1389 C1392 1.363 . S
N1390 C1392 1.356 . S
N1390 H1402 0.984 . S
N1390 H1403 0.985 . S
N1391 C1393 1.356 . S
N1391 H1396 0.984 . S
N1391 H1397 0.985 . S
C1392 C1386 1.379 . S
C1392 C1389 1.363 . S
C1392 N1390 1.356 . S
C1393 C1387 1.363 . S
C1393 C1388 1.379 . S
C1393 N1391 1.356 . S
N1394 C1386 1.356 . S
N1394 H1400 0.984 . S
N1394 H1401 0.984 . S
N1395 C1388 1.356 . S
N1395 H1398 0.984 . S
N1395 H1399 0.985 . S
H1396 N1391 0.984 . S
H1397 N1391 0.985 . S
H1398 N1395 0.984 . S
H1399 N1395 0.985 . S
H1400 N1394 0.984 . S
H1401 N1394 0.984 . S
H1402 N1390 0.984 . S
H1403 N1390 0.985 . S
C1404 C1405 1.363 . S
C1404 C1410 1.379 . S
C1404 N1412 1.356 . S
C1405 C1404 1.363 . S
C1405 C1411 1.363 . S
C1406 C1407 1.363 . S
C1406 C1411 1.379 . S
C1406 N1413 1.356 . S
C1407 C1406 1.363 . S
C1407 C1410 1.363 . S
N1408 C1410 1.356 . S
N1408 H1420 0.984 . S
N1408 H1421 0.985 . S
N1409 C1411 1.356 . S
N1409 H1414 0.984 . S
N1409 H1415 0.985 . S
C1410 C1404 1.379 . S
C1410 C1407 1.363 . S
C1410 N1408 1.356 . S
C1411 C1405 1.363 . S
C1411 C1406 1.379 . S
C1411 N1409 1.356 . S
N1412 C1404 1.356 . S
N1412 H1418 0.984 . S
N1412 H1419 0.984 . S
N1413 C1406 1.356 . S
N1413 H1416 0.984 . S
N1413 H1417 0.985 . S
H1414 N1409 0.984 . S
H1415 N1409 0.985 . S
H1416 N1413 0.984 . S
H1417 N1413 0.985 . S
H1418 N1412 0.984 . S
H1419 N1412 0.984 . S
H1420 N1408 0.984 . S
H1421 N1408 0.985 . S
C1422 C1423 1.363 . S
C1422 C1428 1.379 . S
C1422 N1430 1.356 . S
C1423 C1422 1.363 . S
C1423 C1429 1.363 . S
C1424 C1425 1.363 . S
C1424 C1429 1.379 . S
C1424 N1431 1.356 . S
C1425 C1424 1.363 . S
C1425 C1428 1.363 . S
N1426 C1428 1.356 . S
N1426 H1438 0.984 . S
N1426 H1439 0.985 . S
N1427 C1429 1.356 . S
N1427 H1432 0.984 . S
N1427 H1433 0.985 . S
C1428 C1422 1.379 . S
C1428 C1425 1.363 . S
C1428 N1426 1.356 . S
C1429 C1423 1.363 . S
C1429 C1424 1.379 . S
C1429 N1427 1.356 . S
N1430 C1422 1.356 . S
N1430 H1436 0.984 . S
N1430 H1437 0.984 . S
N1431 C1424 1.356 . S
N1431 H1434 0.984 . S
N1431 H1435 0.985 . S
H1432 N1427 0.984 . S
H1433 N1427 0.985 . S
H1434 N1431 0.984 . S
H1435 N1431 0.985 . S
H1436 N1430 0.984 . S
H1437 N1430 0.984 . S
H1438 N1426 0.984 . S
H1439 N1426 0.985 . S
C1440 C1441 1.363 . S
C1440 C1446 1.379 . S
C1440 N1448 1.356 . S
C1441 C1440 1.363 . S
C1441 C1447 1.363 . S
C1442 C1443 1.363 . S
C1442 C1447 1.379 . S
C1442 N1449 1.356 . S
C1443 C1442 1.363 . S
C1443 C1446 1.363 . S
N1444 C1446 1.356 . S
N1444 H1456 0.984 . S
N1444 H1457 0.985 . S
N1445 C1447 1.356 . S
N1445 H1450 0.984 . S
N1445 H1451 0.985 . S
C1446 C1440 1.379 . S
C1446 C1443 1.363 . S
C1446 N1444 1.356 . S
C1447 C1441 1.363 . S
C1447 C1442 1.379 . S
C1447 N1445 1.356 . S
N1448 C1440 1.356 . S
N1448 H1454 0.984 . S
N1448 H1455 0.984 . S
N1449 C1442 1.356 . S
N1449 H1452 0.984 . S
N1449 H1453 0.985 . S
H1450 N1445 0.984 . S
H1451 N1445 0.985 . S
H1452 N1449 0.984 . S
H1453 N1449 0.985 . S
H1454 N1448 0.984 . S
H1455 N1448 0.984 . S
H1456 N1444 0.984 . S
H1457 N1444 0.985 . S
C1458 C1459 1.363 . S
C1458 C1464 1.379 . S
C1458 N1466 1.356 . S
C1459 C1458 1.363 . S
C1459 C1465 1.363 . S
C1460 C1461 1.363 . S
C1460 C1465 1.379 . S
C1460 N1467 1.356 . S
C1461 C1460 1.363 . S
C1461 C1464 1.363 . S
N1462 C1464 1.356 . S
N1462 H1474 0.984 . S
N1462 H1475 0.985 . S
N1463 C1465 1.356 . S
N1463 H1468 0.984 . S
N1463 H1469 0.985 . S
C1464 C1458 1.379 . S
C1464 C1461 1.363 . S
C1464 N1462 1.356 . S
C1465 C1459 1.363 . S
C1465 C1460 1.379 . S
C1465 N1463 1.356 . S
N1466 C1458 1.356 . S
N1466 H1472 0.984 . S
N1466 H1473 0.984 . S
N1467 C1460 1.356 . S
N1467 H1470 0.984 . S
N1467 H1471 0.985 . S
H1468 N1463 0.984 . S
H1469 N1463 0.985 . S
H1470 N1467 0.984 . S
H1471 N1467 0.985 . S
H1472 N1466 0.984 . S
H1473 N1466 0.984 . S
H1474 N1462 0.984 . S
H1475 N1462 0.985 . S
C1476 C1477 1.363 . S
C1476 C1482 1.379 . S
C1476 N1484 1.356 . S
C1477 C1476 1.363 . S
C1477 C1483 1.363 . S
C1478 C1479 1.363 . S
C1478 C1483 1.379 . S
C1478 N1485 1.356 . S
C1479 C1478 1.363 . S
C1479 C1482 1.363 . S
N1480 C1482 1.356 . S
N1480 H1492 0.984 . S
N1480 H1493 0.985 . S
N1481 C1483 1.356 . S
N1481 H1486 0.984 . S
N1481 H1487 0.985 . S
C1482 C1476 1.379 . S
C1482 C1479 1.363 . S
C1482 N1480 1.356 . S
C1483 C1477 1.363 . S
C1483 C1478 1.379 . S
C1483 N1481 1.356 . S
N1484 C1476 1.356 . S
N1484 H1490 0.984 . S
N1484 H1491 0.984 . S
N1485 C1478 1.356 . S
N1485 H1488 0.984 . S
N1485 H1489 0.985 . S
H1486 N1481 0.984 . S
H1487 N1481 0.985 . S
H1488 N1485 0.984 . S
H1489 N1485 0.985 . S
H1490 N1484 0.984 . S
H1491 N1484 0.984 . S
H1492 N1480 0.984 . S
H1493 N1480 0.985 . S
C1494 C1495 1.363 . S
C1494 C1500 1.379 . S
C1494 N1502 1.356 . S
C1495 C1494 1.363 . S
C1495 C1501 1.363 . S
C1496 C1497 1.363 . S
C1496 C1501 1.379 . S
C1496 N1503 1.356 . S
C1497 C1496 1.363 . S
C1497 C1500 1.363 . S
N1498 C1500 1.356 . S
N1498 H1510 0.984 . S
N1498 H1511 0.985 . S
N1499 C1501 1.356 . S
N1499 H1504 0.984 . S
N1499 H1505 0.985 . S
C1500 C1494 1.379 . S
C1500 C1497 1.363 . S
C1500 N1498 1.356 . S
C1501 C1495 1.363 . S
C1501 C1496 1.379 . S
C1501 N1499 1.356 . S
N1502 C1494 1.356 . S
N1502 H1508 0.984 . S
N1502 H1509 0.984 . S
N1503 C1496 1.356 . S
N1503 H1506 0.984 . S
N1503 H1507 0.985 . S
H1504 N1499 0.984 . S
H1505 N1499 0.985 . S
H1506 N1503 0.984 . S
H1507 N1503 0.985 . S
H1508 N1502 0.984 . S
H1509 N1502 0.984 . S
H1510 N1498 0.984 . S
H1511 N1498 0.985 . S
C1512 C1513 1.363 . S
C1512 C1518 1.379 . S
C1512 N1520 1.356 . S
C1513 C1512 1.363 . S
C1513 C1519 1.363 . S
C1514 C1515 1.363 . S
C1514 C1519 1.379 . S
C1514 N1521 1.356 . S
C1515 C1514 1.363 . S
C1515 C1518 1.363 . S
N1516 C1518 1.356 . S
N1516 H1528 0.984 . S
N1516 H1529 0.985 . S
N1517 C1519 1.356 . S
N1517 H1522 0.984 . S
N1517 H1523 0.985 . S
C1518 C1512 1.379 . S
C1518 C1515 1.363 . S
C1518 N1516 1.356 . S
C1519 C1513 1.363 . S
C1519 C1514 1.379 . S
C1519 N1517 1.356 . S
N1520 C1512 1.356 . S
N1520 H1526 0.984 . S
N1520 H1527 0.984 . S
N1521 C1514 1.356 . S
N1521 H1524 0.984 . S
N1521 H1525 0.985 . S
H1522 N1517 0.984 . S
H1523 N1517 0.985 . S
H1524 N1521 0.984 . S
H1525 N1521 0.985 . S
H1526 N1520 0.984 . S
H1527 N1520 0.984 . S
H1528 N1516 0.984 . S
H1529 N1516 0.985 . S
C1530 C1531 1.363 . S
C1530 C1536 1.379 . S
C1530 N1538 1.356 . S
C1531 C1530 1.363 . S
C1531 C1537 1.363 . S
C1532 C1533 1.363 . S
C1532 C1537 1.379 . S
C1532 N1539 1.356 . S
C1533 C1532 1.363 . S
C1533 C1536 1.363 . S
N1534 C1536 1.356 . S
N1534 H1546 0.984 . S
N1534 H1547 0.985 . S
N1535 C1537 1.356 . S
N1535 H1540 0.984 . S
N1535 H1541 0.985 . S
C1536 C1530 1.379 . S
C1536 C1533 1.363 . S
C1536 N1534 1.356 . S
C1537 C1531 1.363 . S
C1537 C1532 1.379 . S
C1537 N1535 1.356 . S
N1538 C1530 1.356 . S
N1538 H1544 0.984 . S
N1538 H1545 0.984 . S
N1539 C1532 1.356 . S
N1539 H1542 0.984 . S
N1539 H1543 0.985 . S
H1540 N1535 0.984 . S
H1541 N1535 0.985 . S
H1542 N1539 0.984 . S
H1543 N1539 0.985 . S
H1544 N1538 0.984 . S
H1545 N1538 0.984 . S
H1546 N1534 0.984 . S
H1547 N1534 0.985 . S
C1548 C1549 1.363 . S
C1548 C1554 1.379 . S
C1548 N1556 1.356 . S
C1549 C1548 1.363 . S
C1549 C1555 1.363 . S
C1550 C1551 1.363 . S
C1550 C1555 1.379 . S
C1550 N1557 1.356 . S
C1551 C1550 1.363 . S
C1551 C1554 1.363 . S
N1552 C1554 1.356 . S
N1552 H1564 0.984 . S
N1552 H1565 0.985 . S
N1553 C1555 1.356 . S
N1553 H1558 0.984 . S
N1553 H1559 0.985 . S
C1554 C1548 1.379 . S
C1554 C1551 1.363 . S
C1554 N1552 1.356 . S
C1555 C1549 1.363 . S
C1555 C1550 1.379 . S
C1555 N1553 1.356 . S
N1556 C1548 1.356 . S
N1556 H1562 0.984 . S
N1556 H1563 0.984 . S
N1557 C1550 1.356 . S
N1557 H1560 0.984 . S
N1557 H1561 0.985 . S
H1558 N1553 0.984 . S
H1559 N1553 0.985 . S
H1560 N1557 0.984 . S
H1561 N1557 0.985 . S
H1562 N1556 0.984 . S
H1563 N1556 0.984 . S
H1564 N1552 0.984 . S
H1565 N1552 0.985 . S
C1566 C1567 1.363 . S
C1566 C1572 1.379 . S
C1566 N1574 1.356 . S
C1567 C1566 1.363 . S
C1567 C1573 1.363 . S
C1568 C1569 1.363 . S
C1568 C1573 1.379 . S
C1568 N1575 1.356 . S
C1569 C1568 1.363 . S
C1569 C1572 1.363 . S
N1570 C1572 1.356 . S
N1570 H1582 0.984 . S
N1570 H1583 0.985 . S
N1571 C1573 1.356 . S
N1571 H1576 0.984 . S
N1571 H1577 0.985 . S
C1572 C1566 1.379 . S
C1572 C1569 1.363 . S
C1572 N1570 1.356 . S
C1573 C1567 1.363 . S
C1573 C1568 1.379 . S
C1573 N1571 1.356 . S
N1574 C1566 1.356 . S
N1574 H1580 0.984 . S
N1574 H1581 0.984 . S
N1575 C1568 1.356 . S
N1575 H1578 0.984 . S
N1575 H1579 0.985 . S
H1576 N1571 0.984 . S
H1577 N1571 0.985 . S
H1578 N1575 0.984 . S
H1579 N1575 0.985 . S
H1580 N1574 0.984 . S
H1581 N1574 0.984 . S
H1582 N1570 0.984 . S
H1583 N1570 0.985 . S
C1584 C1585 1.363 . S
C1584 C1590 1.379 . S
C1584 N1592 1.356 . S
C1585 C1584 1.363 . S
C1585 C1591 1.363 . S
C1586 C1587 1.363 . S
C1586 C1591 1.379 . S
C1586 N1593 1.356 . S
C1587 C1586 1.363 . S
C1587 C1590 1.363 . S
N1588 C1590 1.356 . S
N1588 H1600 0.984 . S
N1588 H1601 0.985 . S
N1589 C1591 1.356 . S
N1589 H1594 0.984 . S
N1589 H1595 0.985 . S
C1590 C1584 1.379 . S
C1590 C1587 1.363 . S
C1590 N1588 1.356 . S
C1591 C1585 1.363 . S
C1591 C1586 1.379 . S
C1591 N1589 1.356 . S
N1592 C1584 1.356 . S
N1592 H1598 0.984 . S
N1592 H1599 0.984 . S
N1593 C1586 1.356 . S
N1593 H1596 0.984 . S
N1593 H1597 0.985 . S
H1594 N1589 0.984 . S
H1595 N1589 0.985 . S
H1596 N1593 0.984 . S
H1597 N1593 0.985 . S
H1598 N1592 0.984 . S
H1599 N1592 0.984 . S
H1600 N1588 0.984 . S
H1601 N1588 0.985 . S
C1602 C1603 1.363 . S
C1602 C1608 1.379 . S
C1602 N1610 1.356 . S
C1603 C1602 1.363 . S
C1603 C1609 1.363 . S
C1604 C1605 1.363 . S
C1604 C1609 1.379 . S
C1604 N1611 1.356 . S
C1605 C1604 1.363 . S
C1605 C1608 1.363 . S
N1606 C1608 1.356 . S
N1606 H1618 0.984 . S
N1606 H1619 0.985 . S
N1607 C1609 1.356 . S
N1607 H1612 0.984 . S
N1607 H1613 0.985 . S
C1608 C1602 1.379 . S
C1608 C1605 1.363 . S
C1608 N1606 1.356 . S
C1609 C1603 1.363 . S
C1609 C1604 1.379 . S
C1609 N1607 1.356 . S
N1610 C1602 1.356 . S
N1610 H1616 0.984 . S
N1610 H1617 0.984 . S
N1611 C1604 1.356 . S
N1611 H1614 0.984 . S
N1611 H1615 0.985 . S
H1612 N1607 0.984 . S
H1613 N1607 0.985 . S
H1614 N1611 0.984 . S
H1615 N1611 0.985 . S
H1616 N1610 0.984 . S
H1617 N1610 0.984 . S
H1618 N1606 0.984 . S
H1619 N1606 0.985 . S
C1620 C1621 1.363 . S
C1620 C1626 1.379 . S
C1620 N1628 1.356 . S
C1621 C1620 1.363 . S
C1621 C1627 1.363 . S
C1622 C1623 1.363 . S
C1622 C1627 1.379 . S
C1622 N1629 1.356 . S
C1623 C1622 1.363 . S
C1623 C1626 1.363 . S
N1624 C1626 1.356 . S
N1624 H1636 0.984 . S
N1624 H1637 0.985 . S
N1625 C1627 1.356 . S
N1625 H1630 0.984 . S
N1625 H1631 0.985 . S
C1626 C1620 1.379 . S
C1626 C1623 1.363 . S
C1626 N1624 1.356 . S
C1627 C1621 1.363 . S
C1627 C1622 1.379 . S
C1627 N1625 1.356 . S
N1628 C1620 1.356 . S
N1628 H1634 0.984 . S
N1628 H1635 0.984 . S
N1629 C1622 1.356 . S
N1629 H1632 0.984 . S
N1629 H1633 0.985 . S
H1630 N1625 0.984 . S
H1631 N1625 0.985 . S
H1632 N1629 0.984 . S
H1633 N1629 0.985 . S
H1634 N1628 0.984 . S
H1635 N1628 0.984 . S
H1636 N1624 0.984 . S
H1637 N1624 0.985 . S
C1638 C1639 1.363 . S
C1638 C1644 1.379 . S
C1638 N1646 1.356 . S
C1639 C1638 1.363 . S
C1639 C1645 1.363 . S
C1640 C1641 1.363 . S
C1640 C1645 1.379 . S
C1640 N1647 1.356 . S
C1641 C1640 1.363 . S
C1641 C1644 1.363 . S
N1642 C1644 1.356 . S
N1642 H1654 0.984 . S
N1642 H1655 0.985 . S
N1643 C1645 1.356 . S
N1643 H1648 0.984 . S
N1643 H1649 0.985 . S
C1644 C1638 1.379 . S
C1644 C1641 1.363 . S
C1644 N1642 1.356 . S
C1645 C1639 1.363 . S
C1645 C1640 1.379 . S
C1645 N1643 1.356 . S
N1646 C1638 1.356 . S
N1646 H1652 0.984 . S
N1646 H1653 0.984 . S
N1647 C1640 1.356 . S
N1647 H1650 0.984 . S
N1647 H1651 0.985 . S
H1648 N1643 0.984 . S
H1649 N1643 0.985 . S
H1650 N1647 0.984 . S
H1651 N1647 0.985 . S
H1652 N1646 0.984 . S
H1653 N1646 0.984 . S
H1654 N1642 0.984 . S
H1655 N1642 0.985 . S
C1656 C1657 1.363 . S
C1656 C1662 1.379 . S
C1656 N1664 1.356 . S
C1657 C1656 1.363 . S
C1657 C1663 1.363 . S
C1658 C1659 1.363 . S
C1658 C1663 1.379 . S
C1658 N1665 1.356 . S
C1659 C1658 1.363 . S
C1659 C1662 1.363 . S
N1660 C1662 1.356 . S
N1660 H1672 0.984 . S
N1660 H1673 0.985 . S
N1661 C1663 1.356 . S
N1661 H1666 0.984 . S
N1661 H1667 0.985 . S
C1662 C1656 1.379 . S
C1662 C1659 1.363 . S
C1662 N1660 1.356 . S
C1663 C1657 1.363 . S
C1663 C1658 1.379 . S
C1663 N1661 1.356 . S
N1664 C1656 1.356 . S
N1664 H1670 0.984 . S
N1664 H1671 0.984 . S
N1665 C1658 1.356 . S
N1665 H1668 0.984 . S
N1665 H1669 0.985 . S
H1666 N1661 0.984 . S
H1667 N1661 0.985 . S
H1668 N1665 0.984 . S
H1669 N1665 0.985 . S
H1670 N1664 0.984 . S
H1671 N1664 0.984 . S
H1672 N1660 0.984 . S
H1673 N1660 0.985 . S
C1674 C1675 1.363 . S
C1674 C1680 1.379 . S
C1674 N1682 1.356 . S
C1675 C1674 1.363 . S
C1675 C1681 1.363 . S
C1676 C1677 1.363 . S
C1676 C1681 1.379 . S
C1676 N1683 1.356 . S
C1677 C1676 1.363 . S
C1677 C1680 1.363 . S
N1678 C1680 1.356 . S
N1678 H1690 0.984 . S
N1678 H1691 0.985 . S
N1679 C1681 1.356 . S
N1679 H1684 0.984 . S
N1679 H1685 0.985 . S
C1680 C1674 1.379 . S
C1680 C1677 1.363 . S
C1680 N1678 1.356 . S
C1681 C1675 1.363 . S
C1681 C1676 1.379 . S
C1681 N1679 1.356 . S
N1682 C1674 1.356 . S
N1682 H1688 0.984 . S
N1682 H1689 0.984 . S
N1683 C1676 1.356 . S
N1683 H1686 0.984 . S
N1683 H1687 0.985 . S
H1684 N1679 0.984 . S
H1685 N1679 0.985 . S
H1686 N1683 0.984 . S
H1687 N1683 0.985 . S
H1688 N1682 0.984 . S
H1689 N1682 0.984 . S
H1690 N1678 0.984 . S
H1691 N1678 0.985 . S
C1692 C1693 1.363 1_655 S
C1692 C1698 1.379 . S
C1692 N1700 1.356 . S
C1693 C1692 1.363 1_455 S
C1693 C1699 1.363 . S
C1694 C1695 1.363 1_455 S
C1694 C1699 1.379 . S
C1694 N1701 1.356 . S
C1695 C1694 1.363 1_655 S
C1695 C1698 1.363 . S
N1696 C1698 1.356 . S
N1696 H1708 0.984 . S
N1696 H1709 0.985 . S
N1697 C1699 1.356 . S
N1697 H1702 0.984 . S
N1697 H1703 0.985 . S
C1698 C1692 1.379 . S
C1698 C1695 1.363 . S
C1698 N1696 1.356 . S
C1699 C1693 1.363 . S
C1699 C1694 1.379 . S
C1699 N1697 1.356 . S
N1700 C1692 1.356 . S
N1700 H1706 0.984 . S
N1700 H1707 0.984 1_655 S
N1701 C1694 1.356 . S
N1701 H1704 0.984 1_455 S
N1701 H1705 0.985 . S
H1702 N1697 0.984 . S
H1703 N1697 0.985 . S
H1704 N1701 0.984 1_655 S
H1705 N1701 0.985 . S
H1706 N1700 0.984 . S
H1707 N1700 0.984 1_455 S
H1708 N1696 0.984 . S
H1709 N1696 0.985 . S
C1710 C1711 1.363 . S
C1710 C1716 1.379 . S
C1710 N1718 1.356 . S
C1711 C1710 1.363 . S
C1711 C1717 1.363 . S
C1712 C1713 1.363 . S
C1712 C1717 1.379 . S
C1712 N1719 1.356 . S
C1713 C1712 1.363 . S
C1713 C1716 1.363 . S
N1714 C1716 1.356 . S
N1714 H1726 0.984 . S
N1714 H1727 0.985 . S
N1715 C1717 1.356 . S
N1715 H1720 0.984 . S
N1715 H1721 0.985 . S
C1716 C1710 1.379 . S
C1716 C1713 1.363 . S
C1716 N1714 1.356 . S
C1717 C1711 1.363 . S
C1717 C1712 1.379 . S
C1717 N1715 1.356 . S
N1718 C1710 1.356 . S
N1718 H1724 0.984 . S
N1718 H1725 0.984 . S
N1719 C1712 1.356 . S
N1719 H1722 0.984 . S
N1719 H1723 0.985 . S
H1720 N1715 0.984 . S
H1721 N1715 0.985 . S
H1722 N1719 0.984 . S
H1723 N1719 0.985 . S
H1724 N1718 0.984 . S
H1725 N1718 0.984 . S
H1726 N1714 0.984 . S
H1727 N1714 0.985 . S
C1728 C1729 1.363 1_565 S
C1728 C1734 1.379 . S
C1728 N1736 1.356 . S
C1729 C1728 1.363 1_545 S
C1729 C1735 1.363 . S
C1730 C1731 1.363 1_545 S
C1730 C1735 1.379 . S
C1730 N1737 1.356 . S
C1731 C1730 1.363 1_565 S
C1731 C1734 1.363 . S
N1732 C1734 1.356 . S
N1732 H1744 0.984 . S
N1732 H1745 0.985 . S
N1733 C1735 1.356 . S
N1733 H1738 0.984 . S
N1733 H1739 0.985 . S
C1734 C1728 1.379 . S
C1734 C1731 1.363 . S
C1734 N1732 1.356 . S
C1735 C1729 1.363 . S
C1735 C1730 1.379 . S
C1735 N1733 1.356 . S
N1736 C1728 1.356 . S
N1736 H1742 0.984 . S
N1736 H1743 0.984 1_565 S
N1737 C1730 1.356 . S
N1737 H1740 0.984 1_545 S
N1737 H1741 0.985 . S
H1738 N1733 0.984 . S
H1739 N1733 0.985 . S
H1740 N1737 0.984 1_565 S
H1741 N1737 0.985 . S
H1742 N1736 0.984 . S
H1743 N1736 0.984 1_545 S
H1744 N1732 0.984 . S
H1745 N1732 0.985 . S
C1746 C1747 1.363 1_554 S
C1746 C1752 1.379 . S
C1746 N1754 1.356 . S
C1747 C1746 1.363 1_556 S
C1747 C1753 1.363 1_545 S
C1748 C1749 1.363 1_556 S
C1748 C1753 1.379 . S
C1748 N1755 1.356 . S
C1749 C1748 1.363 1_554 S
C1749 C1752 1.363 1_565 S
N1750 C1752 1.356 . S
N1750 H1762 0.984 . S
N1750 H1763 0.985 1_545 S
N1751 C1753 1.356 . S
N1751 H1756 0.984 1_565 S
N1751 H1757 0.985 . S
C1752 C1746 1.379 . S
C1752 C1749 1.363 1_545 S
C1752 N1750 1.356 . S
C1753 C1747 1.363 1_565 S
C1753 C1748 1.379 . S
C1753 N1751 1.356 . S
N1754 C1746 1.356 . S
N1754 H1760 0.984 . S
N1754 H1761 0.984 . S
N1755 C1748 1.356 . S
N1755 H1758 0.984 . S
N1755 H1759 0.985 . S
H1756 N1751 0.984 1_545 S
H1757 N1751 0.985 . S
H1758 N1755 0.984 . S
H1759 N1755 0.985 . S
H1760 N1754 0.984 . S
H1761 N1754 0.984 . S
H1762 N1750 0.984 . S
H1763 N1750 0.985 1_565 S
C1764 C1765 1.363 1_455 S
C1764 C1770 1.379 . S
C1764 N1772 1.356 . S
C1765 C1764 1.363 1_655 S
C1765 C1771 1.363 1_556 S
C1766 C1767 1.363 1_655 S
C1766 C1771 1.379 . S
C1766 N1773 1.356 . S
C1767 C1766 1.363 1_455 S
C1767 C1770 1.363 1_554 S
N1768 C1770 1.356 . S
N1768 H1780 0.984 . S
N1768 H1781 0.985 . S
N1769 C1771 1.356 . S
N1769 H1774 0.984 . S
N1769 H1775 0.985 . S
C1770 C1764 1.379 . S
C1770 C1767 1.363 1_556 S
C1770 N1768 1.356 . S
C1771 C1765 1.363 1_554 S
C1771 C1766 1.379 . S
C1771 N1769 1.356 . S
N1772 C1764 1.356 . S
N1772 H1778 0.984 . S
N1772 H1779 0.984 1_455 S
N1773 C1766 1.356 . S
N1773 H1776 0.984 1_655 S
N1773 H1777 0.985 . S
H1774 N1769 0.984 . S
H1775 N1769 0.985 . S
H1776 N1773 0.984 1_455 S
H1777 N1773 0.985 . S
H1778 N1772 0.984 . S
H1779 N1772 0.984 1_655 S
H1780 N1768 0.984 . S
H1781 N1768 0.985 . S
C1782 C1783 1.363 . S
C1782 C1788 1.392 . S
C1782 N1790 1.356 . S
C1783 C1782 1.363 . S
C1783 C1789 1.364 1_554 S
C1784 C1785 1.363 . S
C1784 C1789 1.378 . S
C1784 N1791 1.356 . S
C1785 C1784 1.363 . S
C1785 C1788 1.351 1_556 S
N1786 C1788 1.355 . S
N1786 H1798 0.985 . S
N1786 H1799 0.984 1_554 S
N1787 C1789 1.355 1_554 S
N1787 H1792 0.997 . S
N1787 H1793 0.976 1_554 S
C1788 C1782 1.392 . S
C1788 C1785 1.351 1_554 S
C1788 N1786 1.355 . S
C1789 C1783 1.364 1_556 S
C1789 C1784 1.378 . S
C1789 N1787 1.355 1_556 S
N1790 C1782 1.356 . S
N1790 H1796 0.984 . S
N1790 H1797 0.984 . S
N1791 C1784 1.356 . S
N1791 H1794 0.984 . S
N1791 H1795 0.985 . S
H1792 N1787 0.997 . S
H1793 N1787 0.976 1_556 S
H1794 N1791 0.984 . S
H1795 N1791 0.985 . S
H1796 N1790 0.984 . S
H1797 N1790 0.984 . S
H1798 N1786 0.985 . S
H1799 N1786 0.984 1_556 S
C505 C9 1.275 . S
C507 C21 1.451 . S
C523 C23 1.275 . S
C525 C35 1.451 . S
C541 C7 1.451 . S
C543 C37 1.275 . S
C559 C51 1.275 . S
C561 C77 1.451 . S
C577 C65 1.275 . S
C579 C49 1.451 . S
C595 C63 1.451 . S
C597 C79 1.276 . S
C613 C93 1.268 . S
C615 C101 1.514 . S
C631 C115 1.514 . S
C633 C107 1.268 . S
C649 C87 1.514 . S
C651 C121 1.268 . S
C667 C157 1.514 . S
C669 C135 1.268 . S
C685 C149 1.268 . S
C687 C129 1.514 . S
C703 C163 1.268 . S
C705 C143 1.514 . S
C721 C189 1.451 . S
C723 C177 1.275 . S
C739 C191 1.275 . S
C741 C203 1.451 . S
C757 C205 1.276 . S
C759 C175 1.451 . S
C775 C219 1.275 . S
C777 C245 1.451 . S
C793 C233 1.275 . S
C795 C217 1.451 . S
C811 C247 1.276 . S
C813 C231 1.451 . S
C829 C269 1.514 . S
C831 C261 1.268 . S
C847 C275 1.268 . S
C849 C283 1.514 . S
C865 C255 1.514 . S
C867 C289 1.268 . S
C883 C325 1.517 . S
C885 C303 1.264 1_556 S
C901 C317 1.264 1_556 S
C903 C297 1.517 . S
C919 C311 1.517 . S
C921 C331 1.264 1_556 S
C937 C357 1.451 . S
C939 C345 1.275 . S
C955 C359 1.275 . S
C957 C371 1.451 . S
C973 C373 1.276 . S
C975 C343 1.451 . S
C991 C413 1.451 1_554 S
C993 C387 1.275 1_554 S
C1009 C401 1.276 1_554 S
C1011 C385 1.451 1_554 S
C1027 C399 1.451 1_554 S
C1029 C415 1.276 1_554 S
C1045 C429 1.268 . S
C1047 C437 1.514 . S
C1063 C443 1.268 . S
C1065 C451 1.514 . S
C1081 C457 1.268 . S
C1083 C423 1.514 . S
C1099 C493 1.514 . S
C1101 C471 1.268 . S
C1117 C465 1.514 . S
C1119 C485 1.268 . S
C1135 C499 1.268 . S
C1137 C479 1.514 . S
C1153 C45 1.724 . S
C1155 C3 1.724 . S
C1171 C17 1.724 . S
C1173 C59 1.724 . S
C1189 C73 1.724 . S
C1191 C31 1.724 . S
C1207 C133 1.637 . S
C1209 C91 1.637 . S
C1225 C105 1.637 . S
C1227 C147 1.637 . S
C1243 C161 1.637 . S
C1245 C119 1.637 . S
C1261 C171 1.724 . S
C1263 C213 1.724 . S
C1279 C185 1.724 . S
C1281 C227 1.724 . S
C1297 C199 1.724 . S
C1299 C241 1.724 . S
C1315 C301 1.637 . S
C1317 C259 1.637 . S
C1333 C315 1.637 . S
C1335 C273 1.637 . S
C1351 C287 1.637 . S
C1353 C329 1.637 . S
C1369 C381 1.724 . S
C1371 C339 1.724 . S
C1387 C395 1.724 . S
C1389 C353 1.724 . S
C1405 C367 1.724 . S
C1407 C409 1.724 . S
C1423 C427 1.637 . S
C1425 C469 1.637 . S
C1441 C483 1.637 . S
C1443 C441 1.637 . S
C1459 C455 1.637 . S
C1461 C497 1.637 . S
C1477 C8 1.784 . S
C1479 C260 1.766 . S
C1495 C22 1.783 . S
C1497 C274 1.766 . S
C1513 C36 1.784 . S
C1515 C288 1.767 . S
C1531 C470 1.766 . S
C1533 C50 1.783 . S
C1549 C484 1.767 . S
C1551 C64 1.784 . S
C1567 C78 1.784 . S
C1569 C498 1.767 . S
C1585 C92 1.766 . S
C1587 C344 1.783 . S
C1603 C358 1.783 . S
C1605 C106 1.766 . S
C1621 C372 1.784 . S
C1623 C120 1.767 . S
C1639 C218 1.783 . S
C1641 C134 1.766 . S
C1657 C232 1.784 . S
C1659 C148 1.767 . S
C1675 C246 1.784 . S
C1677 C162 1.767 . S
C1693 C428 1.766 . S
C1695 C176 1.784 . S
C1711 C190 1.783 . S
C1713 C442 1.766 . S
C1729 C204 1.784 . S
C1731 C456 1.767 . S
C1747 C302 1.766 . S
C1749 C386 1.783 . S
C1765 C316 1.766 . S
C1767 C400 1.784 . S
C1783 C414 1.784 . S
C1785 C330 1.767 . S
