# Generated by pormake.
# Topology yfg, (5)-cn, num edge types: 1
# Building blocks:
#     Node 0, Type 0, BuildingBlock: BEQFEK_clean_sbu_0, # of connection points: 5
#     Node 1, Type 0, BuildingBlock: BEQFEK_clean_sbu_0, # of connection points: 5
#     Node 2, Type 0, BuildingBlock: BEQFEK_clean_sbu_0, # of connection points: 5
#     Node 3, Type 0, BuildingBlock: BEQFEK_clean_sbu_0, # of connection points: 5
#     Node 4, Type 0, BuildingBlock: BEQFEK_clean_sbu_0, # of connection points: 5
#     Node 5, Type 0, BuildingBlock: BEQFEK_clean_sbu_0, # of connection points: 5
#     Node 6, Type 0, BuildingBlock: BEQFEK_clean_sbu_0, # of connection points: 5
#     Node 7, Type 0, BuildingBlock: BEQFEK_clean_sbu_0, # of connection points: 5
#     Edge 8, Type (0, 0), None
#     Edge 9, Type (0, 0), None
#     Edge 10, Type (0, 0), None
#     Edge 11, Type (0, 0), None
#     Edge 12, Type (0, 0), None
#     Edge 13, Type (0, 0), None
#     Edge 14, Type (0, 0), None
#     Edge 15, Type (0, 0), None
#     Edge 16, Type (0, 0), None
#     Edge 17, Type (0, 0), None
#     Edge 18, Type (0, 0), None
#     Edge 19, Type (0, 0), None
#     Edge 20, Type (0, 0), None
#     Edge 21, Type (0, 0), None
#     Edge 22, Type (0, 0), None
#     Edge 23, Type (0, 0), None
#     Edge 24, Type (0, 0), None
#     Edge 25, Type (0, 0), None
#     Edge 26, Type (0, 0), None
#     Edge 27, Type (0, 0), None
# Relax obj value: 0.574
# Max RMSD: 0.245
# Mean RMSD: 0.245
data_MOF--net-yfg--node1-BEQFEK_clean_sbu_0--edge1-none
_symmetry_space_group_name_H-M    P1
_symmetry_Int_Tables_number       1
_symmetry_cell_setting            triclinic
loop_
_symmetry_equiv_pos_as_xyz
'x, y, z'
_cell_length_a     17.1998
_cell_length_b     17.199253
_cell_length_c     24.891442
_cell_angle_alpha  89.995278
_cell_angle_beta   90.004716
_cell_angle_gamma 90.000008
loop_
_atom_site_label
_atom_site_type_symbol
_atom_site_fract_x
_atom_site_fract_y
_atom_site_fract_z
_atom_type_partial_charge
Co0 Co 0.18822 0.49063 0.11495 0.0
Co1 Co 0.26925 0.52189 0.00459 0.0
C2 C 0.29252 0.6299 0.09928 0.0
O3 O 0.24693 0.58982 0.12893 0.0
O4 O 0.3045 0.61176 0.05017 0.0
C5 C 0.09857 0.50148 0.20951 0.0
O6 O 0.09778 0.57626 0.19876 0.0
C7 C 0.31042 0.60775 0.90729 0.0
C8 C 0.35203 0.51802 0.85101 0.0
C9 C 0.34466 0.59791 0.85678 0.0
N10 N 0.29966 0.53809 0.93028 0.0
N11 N 0.32247 0.4843 0.89569 0.0
C12 C 0.2951 0.68299 0.93594 0.0
H13 H 0.24804 0.67587 0.96596 0.0
H14 H 0.27853 0.72913 0.90692 0.0
H15 H 0.34851 0.70149 0.95748 0.0
C16 C 0.0506 0.47851 0.04954 0.0
N17 N 0.1273 0.49032 0.05453 0.0
N18 N 0.1574 0.51181 0.0085 0.0
C19 C 0.09839 0.52134 0.97329 0.0
C20 C 0.02858 0.49994 -0.00173 0.0
C21 C 0.00237 0.43787 0.09105 0.0
H22 H 0.03647 0.38987 0.10925 0.0
H23 H 0.9868 0.47925 0.12345 0.0
H24 H 0.94862 0.4131 0.07337 0.0
O25 O 0.2647 0.41332 0.11079 0.0
O26 O 0.33171 0.42982 0.03609 0.0
H27 H 0.13379 0.51536 0.89099 0.0
H28 H 0.05199 0.57989 0.90325 0.0
C29 C 0.10806 0.55813 0.91923 0.0
H30 H 0.14836 0.60791 0.92219 0.0
H31 H 0.32224 0.42479 0.90378 0.0
O32 O 0.12926 0.45544 0.17641 0.0
C33 C 0.32034 0.39458 0.08072 0.0
Co34 Co 0.48673 0.18814 0.36499 0.0
Co35 Co 0.45548 0.26923 0.25464 0.0
C36 C 0.34744 0.29241 0.34933 0.0
O37 O 0.38751 0.2468 0.37898 0.0
O38 O 0.36561 0.30445 0.30024 0.0
C39 C 0.47587 0.09851 0.45954 0.0
O40 O 0.40109 0.09775 0.44879 0.0
C41 C 0.3696 0.31061 0.1574 0.0
C42 C 0.45936 0.35204 0.10103 0.0
C43 C 0.37949 0.34495 0.10693 0.0
N44 N 0.43926 0.29967 0.18033 0.0
N45 N 0.49306 0.32236 0.1457 0.0
C46 C 0.29436 0.29533 0.18605 0.0
H47 H 0.30145 0.24823 0.21605 0.0
H48 H 0.2482 0.27882 0.15703 0.0
H49 H 0.27591 0.34874 0.20761 0.0
C50 C 0.49882 0.05055 0.29955 0.0
N51 N 0.48704 0.12725 0.30456 0.0
N52 N 0.46555 0.15738 0.25853 0.0
C53 C 0.456 0.0984 0.22331 0.0
C54 C 0.47738 0.02856 0.24828 0.0
C55 C 0.53943 0.00228 0.34106 0.0
H56 H 0.58743 0.03635 0.35928 0.0
H57 H 0.49803 0.9867 0.37345 0.0
H58 H 0.56419 0.94852 0.32337 0.0
O59 O 0.56401 0.26466 0.36084 0.0
O60 O 0.54754 0.33167 0.28613 0.0
H61 H 0.46194 0.13383 0.14101 0.0
H62 H 0.39738 0.05206 0.15329 0.0
C63 C 0.41918 0.10812 0.16926 0.0
H64 H 0.36943 0.14846 0.17225 0.0
H65 H 0.55259 0.32194 0.15374 0.0
O66 O 0.52192 0.12914 0.42643 0.0
C67 C 0.58276 0.3203 0.33076 0.0
Co68 Co 0.78917 0.48679 0.615 0.0
Co69 Co 0.70812 0.45549 0.50465 0.0
C70 C 0.68489 0.3475 0.59937 0.0
O71 O 0.73048 0.38759 0.62902 0.0
O72 O 0.67288 0.36565 0.55026 0.0
C73 C 0.87882 0.47588 0.70954 0.0
O74 O 0.87958 0.40111 0.69876 0.0
C75 C 0.66672 0.36958 0.40744 0.0
C76 C 0.62532 0.45933 0.35105 0.0
C77 C 0.63239 0.37946 0.35697 0.0
N78 N 0.67767 0.43925 0.43035 0.0
N79 N 0.65501 0.49304 0.3957 0.0
C80 C 0.68198 0.29434 0.43611 0.0
H81 H 0.72908 0.30143 0.46611 0.0
H82 H 0.69848 0.24817 0.40711 0.0
H83 H 0.62856 0.27591 0.45768 0.0
C84 C 0.92678 0.49884 0.54957 0.0
N85 N 0.85008 0.48707 0.55458 0.0
N86 N 0.81996 0.46555 0.50855 0.0
C87 C 0.87894 0.45598 0.47335 0.0
C88 C 0.94877 0.47737 0.49832 0.0
C89 C 0.97504 0.53948 0.59107 0.0
H90 H 0.94097 0.58749 0.60926 0.0
H91 H -0.00939 0.49811 0.62348 0.0
H92 H 0.0288 0.56423 0.57337 0.0
O93 O 0.71269 0.5641 0.61082 0.0
O94 O 0.64567 0.54756 0.53612 0.0
H95 H 0.84353 0.46188 0.39104 0.0
H96 H 0.92528 0.39731 0.40335 0.0
C97 C 0.86923 0.41913 0.41931 0.0
H98 H 0.82888 0.36939 0.42231 0.0
H99 H 0.65544 0.55257 0.40372 0.0
O100 O 0.84817 0.52197 0.67644 0.0
C101 C 0.65704 0.58282 0.58074 0.0
Co102 Co 0.49054 0.78909 0.86499 0.0
Co103 Co 0.52179 0.70809 0.75462 0.0
C104 C 0.6298 0.68481 0.84933 0.0
O105 O 0.58975 0.73042 0.87899 0.0
O106 O 0.61161 0.67279 0.80024 0.0
C107 C 0.50144 0.87881 0.9595 0.0
O108 O 0.57621 0.87964 0.9487 0.0
C109 C 0.60773 0.66676 0.65741 0.0
C110 C 0.518 0.62535 0.601 0.0
C111 C 0.59787 0.63244 0.60694 0.0
N112 N 0.53805 0.67769 0.68031 0.0
N113 N 0.48427 0.65502 0.64565 0.0
C114 C 0.68295 0.68202 0.6861 0.0
H115 H 0.67584 0.72909 0.71611 0.0
H116 H 0.72913 0.69856 0.65711 0.0
H117 H 0.70139 0.62859 0.70765 0.0
C118 C 0.47847 0.92673 0.79957 0.0
N119 N 0.49025 0.85003 0.80456 0.0
N120 N 0.51176 0.81994 0.75853 0.0
C121 C 0.52133 0.87894 0.72333 0.0
C122 C 0.49993 0.94876 0.74831 0.0
C123 C 0.43782 0.97498 0.84107 0.0
H124 H 0.38982 0.94089 0.85926 0.0
H125 H 0.47919 -0.00944 0.87347 0.0
H126 H 0.41305 0.02873 0.82337 0.0
O127 O 0.41325 0.71259 0.8608 0.0
O128 O 0.42965 0.64569 0.78604 0.0
H129 H 0.51541 0.84356 0.64102 0.0
H130 H 0.57998 0.92531 0.65334 0.0
C131 C 0.55817 0.86925 0.66929 0.0
H132 H 0.6079 0.8289 0.67229 0.0
H133 H 0.42474 0.65543 0.65367 0.0
O134 O 0.45538 0.84806 0.92644 0.0
C135 C 0.39444 0.65703 0.83068 0.0
Co136 Co 0.18826 0.4865 0.35943 0.0
Co137 Co 0.26931 0.45531 0.4698 0.0
C138 C 0.29255 0.34724 0.37515 0.0
O139 O 0.24696 0.3873 0.34547 0.0
O140 O 0.30457 0.36542 0.42424 0.0
C141 C 0.09854 0.4756 0.26489 0.0
O142 O 0.09774 0.40081 0.27559 0.0
C143 C 0.31054 0.36953 0.56713 0.0
C144 C 0.35215 0.45931 0.62337 0.0
C145 C 0.34481 0.37942 0.61762 0.0
N146 N 0.29974 0.43916 0.54411 0.0
N147 N 0.32255 0.49299 0.57868 0.0
C148 C 0.29523 0.29426 0.53851 0.0
H149 H 0.24814 0.30134 0.50851 0.0
H150 H 0.27872 0.24813 0.56755 0.0
H151 H 0.34862 0.27578 0.51695 0.0
C152 C 0.05066 0.49868 0.42484 0.0
N153 N 0.12735 0.48684 0.41985 0.0
N154 N 0.15745 0.46538 0.46589 0.0
C155 C 0.09846 0.45591 0.50111 0.0
C156 C 0.02865 0.47731 0.47612 0.0
C157 C 0.00242 0.5393 0.38332 0.0
H158 H 0.03653 0.58726 0.36509 0.0
H159 H 0.98681 0.49789 0.35094 0.0
H160 H 0.94869 0.56411 0.401 0.0
O161 O 0.26473 0.56383 0.36358 0.0
O162 O 0.33173 0.54739 0.4383 0.0
H163 H 0.13391 0.46196 0.58341 0.0
H164 H 0.05208 0.39745 0.57118 0.0
C165 C 0.10815 0.41917 0.55519 0.0
H166 H 0.14843 0.36938 0.55224 0.0
H167 H 0.3223 0.5525 0.57057 0.0
O168 O 0.12927 0.52164 0.29797 0.0
C169 C 0.32035 0.58261 0.39366 0.0
Co170 Co 0.49083 0.18832 0.60944 0.0
Co171 Co 0.52197 0.26931 0.71984 0.0
C172 C 0.63006 0.29261 0.62518 0.0
O173 O 0.59003 0.247 0.5955 0.0
O174 O 0.61184 0.30464 0.67426 0.0
C175 C 0.50172 0.09853 0.51493 0.0
O176 O 0.57651 0.09765 0.52565 0.0
C177 C 0.60778 0.31048 0.81716 0.0
C178 C 0.51803 0.3521 0.87341 0.0
C179 C 0.59791 0.34474 0.86765 0.0
N180 N 0.53814 0.2997 0.79415 0.0
N181 N 0.48433 0.32251 0.82873 0.0
C182 C 0.68303 0.29517 0.78852 0.0
H183 H 0.67593 0.2481 0.75851 0.0
H184 H 0.72916 0.27862 0.81755 0.0
H185 H 0.70152 0.34858 0.76697 0.0
C186 C 0.47863 0.05068 0.67485 0.0
N187 N 0.49048 0.12738 0.66986 0.0
N188 N 0.51194 0.15746 0.71591 0.0
C189 C 0.5214 0.09845 0.75112 0.0
C190 C 0.49999 0.02864 0.72613 0.0
C191 C 0.438 0.00246 0.63332 0.0
H192 H 0.39006 0.03659 0.61509 0.0
H193 H 0.47941 0.98684 0.60095 0.0
H194 H 0.41317 0.94873 0.651 0.0
O195 O 0.41352 0.26481 0.6136 0.0
O196 O 0.42983 0.33168 0.68839 0.0
H197 H 0.51533 0.13385 0.83342 0.0
H198 H 0.57985 0.05203 0.82119 0.0
C199 C 0.55812 0.10811 0.80521 0.0
H200 H 0.60792 0.1484 0.80227 0.0
H201 H 0.42482 0.32228 0.82062 0.0
O202 O 0.4557 0.12936 0.54798 0.0
C203 C 0.39466 0.32034 0.64373 0.0
Co204 Co 0.789 0.49075 0.85943 0.0
Co205 Co 0.70803 0.52193 0.96982 0.0
C206 C 0.6847 0.62998 0.87514 0.0
O207 O 0.73028 0.58993 0.84547 0.0
O208 O 0.6727 0.61178 0.92424 0.0
C209 C 0.87879 0.50169 0.76493 0.0
O210 O 0.87968 0.57646 0.77568 0.0
C211 C 0.66685 0.60778 0.06711 0.0
C212 C 0.62526 0.51803 0.1234 0.0
C213 C 0.63259 0.59792 0.11762 0.0
N214 N 0.67765 0.53813 0.04413 0.0
N215 N 0.65485 0.48433 0.07873 0.0
C216 C 0.68214 0.68303 0.03846 0.0
H217 H 0.72921 0.67593 0.00845 0.0
H218 H 0.69868 0.72917 0.06748 0.0
H219 H 0.62873 0.7015 0.01691 0.0
C220 C 0.92665 0.47859 0.92483 0.0
N221 N 0.84995 0.49043 0.91984 0.0
N222 N 0.81988 0.51191 0.96589 0.0
C223 C 0.87889 0.52139 0.00109 0.0
C224 C 0.94869 0.49998 0.97609 0.0
C225 C 0.97485 0.43793 0.88331 0.0
H226 H 0.94072 0.38997 0.8651 0.0
H227 H -0.00953 0.47932 0.85092 0.0
H228 H 0.02859 0.41311 0.901 0.0
O229 O 0.71254 0.41341 0.86362 0.0
O230 O 0.64566 0.42979 0.93839 0.0
H231 H 0.84351 0.51537 0.08339 0.0
H232 H 0.92532 0.57989 0.07113 0.0
C233 C 0.86924 0.55815 0.05516 0.0
H234 H 0.82894 0.60794 0.05221 0.0
H235 H 0.6551 0.42481 0.07064 0.0
O236 O 0.84796 0.45563 0.79796 0.0
C237 C 0.657 0.39458 0.89375 0.0
Co238 Co 0.48661 0.78906 0.10939 0.0
Co239 Co 0.45543 0.70803 0.21978 0.0
C240 C 0.34737 0.68478 0.12509 0.0
O241 O 0.3874 0.73039 0.09542 0.0
O242 O 0.36559 0.67273 0.17417 0.0
C243 C 0.47566 0.87884 0.0149 0.0
O244 O 0.40089 0.87968 0.02565 0.0
C245 C 0.36957 0.66664 0.31701 0.0
C246 C 0.45935 0.62523 0.37338 0.0
C247 C 0.37947 0.63228 0.36747 0.0
N248 N 0.43923 0.67761 0.29409 0.0
N249 N 0.49304 0.65494 0.32872 0.0
C250 C 0.29432 0.68189 0.28835 0.0
H251 H 0.30139 0.729 0.25836 0.0
H252 H 0.24815 0.69837 0.31736 0.0
H253 H 0.2759 0.62847 0.26678 0.0
C254 C 0.49874 0.92668 0.17481 0.0
N255 N 0.48693 0.84998 0.16982 0.0
N256 N 0.46545 0.81988 0.21585 0.0
C257 C 0.45594 0.87887 0.25106 0.0
C258 C 0.47734 0.94869 0.22608 0.0
C259 C 0.53937 0.97493 0.1333 0.0
H260 H 0.58733 0.94083 0.11508 0.0
H261 H 0.49797 -0.00945 0.10092 0.0
H262 H 0.56418 0.02866 0.15099 0.0
O263 O 0.56392 0.71256 0.11357 0.0
O264 O 0.54758 0.64568 0.18835 0.0
H265 H 0.46193 0.84345 0.33337 0.0
H266 H 0.39738 0.92523 0.32109 0.0
C267 C 0.41915 0.86916 0.30512 0.0
H268 H 0.3694 0.82883 0.30215 0.0
H269 H 0.55256 0.65538 0.32069 0.0
O270 O 0.52173 0.84805 0.04794 0.0
C271 C 0.58277 0.65702 0.1437 0.0
loop_
_geom_bond_atom_site_label_1
_geom_bond_atom_site_label_2
_geom_bond_distance
_geom_bond_site_symmetry_2
_ccdc_geom_bond_type
Co0 O3 1.970 . S
Co0 N17 1.989 . S
Co0 O25 1.967 . S
Co0 O32 1.920 . S
Co1 O4 1.966 . S
Co1 N10 2.022 1_554 S
Co1 N18 1.993 . S
Co1 O26 1.941 . S
C2 O3 1.258 . S
C2 O4 1.263 . S
O3 Co0 1.970 . S
O3 C2 1.258 . S
O4 Co1 1.966 . S
O4 C2 1.263 . S
C5 O6 1.235 . S
C5 O32 1.289 . S
O6 C5 1.235 . S
C7 C9 1.400 . S
C7 N10 1.351 . S
C7 C12 1.501 . S
C8 C9 1.387 . S
C8 N11 1.341 . S
C9 C7 1.400 . S
C9 C8 1.387 . S
N10 Co1 2.022 1_556 S
N10 C7 1.351 . S
N10 N11 1.365 . S
N11 C8 1.341 . S
N11 N10 1.365 . S
N11 H31 0.862 . S
C12 C7 1.501 . S
C12 H13 0.961 . S
C12 H14 0.961 . S
C12 H15 0.960 . S
H13 C12 0.961 . S
H14 C12 0.961 . S
H15 C12 0.960 . S
C16 N17 1.342 . S
C16 C20 1.402 . S
C16 C21 1.499 1_455 S
N17 Co0 1.989 . S
N17 C16 1.342 . S
N17 N18 1.388 . S
N18 Co1 1.993 . S
N18 N17 1.388 . S
N18 C19 1.346 1_554 S
C19 N18 1.346 1_556 S
C19 C20 1.396 1_556 S
C19 C29 1.510 . S
C20 C16 1.402 . S
C20 C19 1.396 1_554 S
C21 C16 1.499 1_655 S
C21 H22 0.959 1_655 S
C21 H23 0.960 . S
C21 H24 0.961 . S
H22 C21 0.959 1_455 S
H23 C21 0.960 . S
H24 C21 0.961 . S
O25 Co0 1.967 . S
O25 C33 1.258 . S
O26 Co1 1.941 . S
O26 C33 1.266 . S
H27 C29 0.959 . S
H28 C29 0.961 . S
C29 C19 1.510 . S
C29 H27 0.959 . S
C29 H28 0.961 . S
C29 H30 0.960 . S
H30 C29 0.960 . S
H31 N11 0.862 . S
O32 Co0 1.920 . S
O32 C5 1.289 . S
C33 O25 1.258 . S
C33 O26 1.266 . S
Co34 O37 1.970 . S
Co34 N51 1.989 . S
Co34 O59 1.967 . S
Co34 O66 1.920 . S
Co35 O38 1.966 . S
Co35 N44 2.022 . S
Co35 N52 1.993 . S
Co35 O60 1.941 . S
C36 O37 1.258 . S
C36 O38 1.263 . S
O37 Co34 1.970 . S
O37 C36 1.258 . S
O38 Co35 1.966 . S
O38 C36 1.263 . S
C39 O40 1.235 . S
C39 O66 1.289 . S
O40 C39 1.235 . S
C41 C43 1.400 . S
C41 N44 1.351 . S
C41 C46 1.501 . S
C42 C43 1.387 . S
C42 N45 1.341 . S
C43 C41 1.400 . S
C43 C42 1.387 . S
N44 Co35 2.022 . S
N44 C41 1.351 . S
N44 N45 1.365 . S
N45 C42 1.341 . S
N45 N44 1.365 . S
N45 H65 0.862 . S
C46 C41 1.501 . S
C46 H47 0.961 . S
C46 H48 0.961 . S
C46 H49 0.960 . S
H47 C46 0.961 . S
H48 C46 0.961 . S
H49 C46 0.960 . S
C50 N51 1.342 . S
C50 C54 1.401 . S
C50 C55 1.499 1_545 S
N51 Co34 1.989 . S
N51 C50 1.342 . S
N51 N52 1.388 . S
N52 Co35 1.993 . S
N52 N51 1.388 . S
N52 C53 1.346 . S
C53 N52 1.346 . S
C53 C54 1.396 . S
C53 C63 1.510 . S
C54 C50 1.401 . S
C54 C53 1.396 . S
C55 C50 1.499 1_565 S
C55 H56 0.959 1_565 S
C55 H57 0.960 . S
C55 H58 0.961 . S
H56 C55 0.959 1_545 S
H57 C55 0.960 . S
H58 C55 0.961 . S
O59 Co34 1.967 . S
O59 C67 1.258 . S
O60 Co35 1.941 . S
O60 C67 1.266 . S
H61 C63 0.959 . S
H62 C63 0.961 . S
C63 C53 1.510 . S
C63 H61 0.959 . S
C63 H62 0.961 . S
C63 H64 0.960 . S
H64 C63 0.960 . S
H65 N45 0.862 . S
O66 Co34 1.920 . S
O66 C39 1.289 . S
C67 O59 1.258 . S
C67 O60 1.266 . S
Co68 O71 1.970 . S
Co68 N85 1.989 . S
Co68 O93 1.967 . S
Co68 O100 1.920 . S
Co69 O72 1.966 . S
Co69 N78 2.022 . S
Co69 N86 1.993 . S
Co69 O94 1.941 . S
C70 O71 1.258 . S
C70 O72 1.263 . S
O71 Co68 1.970 . S
O71 C70 1.258 . S
O72 Co69 1.966 . S
O72 C70 1.263 . S
C73 O74 1.235 . S
C73 O100 1.289 . S
O74 C73 1.235 . S
C75 C77 1.400 . S
C75 N78 1.351 . S
C75 C80 1.501 . S
C76 C77 1.387 . S
C76 N79 1.341 . S
C77 C75 1.400 . S
C77 C76 1.387 . S
N78 Co69 2.022 . S
N78 C75 1.351 . S
N78 N79 1.365 . S
N79 C76 1.341 . S
N79 N78 1.365 . S
N79 H99 0.862 . S
C80 C75 1.501 . S
C80 H81 0.961 . S
C80 H82 0.961 . S
C80 H83 0.960 . S
H81 C80 0.961 . S
H82 C80 0.961 . S
H83 C80 0.960 . S
C84 N85 1.342 . S
C84 C88 1.401 . S
C84 C89 1.499 1_655 S
N85 Co68 1.989 . S
N85 C84 1.342 . S
N85 N86 1.388 . S
N86 Co69 1.993 . S
N86 N85 1.388 . S
N86 C87 1.346 . S
C87 N86 1.346 . S
C87 C88 1.396 . S
C87 C97 1.510 . S
C88 C84 1.401 . S
C88 C87 1.396 . S
C89 C84 1.499 1_455 S
C89 H90 0.959 1_455 S
C89 H91 0.960 . S
C89 H92 0.961 . S
H90 C89 0.959 1_655 S
H91 C89 0.960 . S
H92 C89 0.961 . S
O93 Co68 1.967 . S
O93 C101 1.258 . S
O94 Co69 1.941 . S
O94 C101 1.266 . S
H95 C97 0.959 . S
H96 C97 0.961 . S
C97 C87 1.510 . S
C97 H95 0.959 . S
C97 H96 0.961 . S
C97 H98 0.960 . S
H98 C97 0.960 . S
H99 N79 0.862 . S
O100 Co68 1.920 . S
O100 C73 1.289 . S
C101 O93 1.258 . S
C101 O94 1.266 . S
Co102 O105 1.970 . S
Co102 N119 1.989 . S
Co102 O127 1.967 . S
Co102 O134 1.920 . S
Co103 O106 1.966 . S
Co103 N112 2.022 . S
Co103 N120 1.993 . S
Co103 O128 1.941 . S
C104 O105 1.258 . S
C104 O106 1.263 . S
O105 Co102 1.970 . S
O105 C104 1.258 . S
O106 Co103 1.966 . S
O106 C104 1.263 . S
C107 O108 1.235 . S
C107 O134 1.289 . S
O108 C107 1.235 . S
C109 C111 1.400 . S
C109 N112 1.351 . S
C109 C114 1.501 . S
C110 C111 1.387 . S
C110 N113 1.341 . S
C111 C109 1.400 . S
C111 C110 1.387 . S
N112 Co103 2.022 . S
N112 C109 1.351 . S
N112 N113 1.365 . S
N113 C110 1.341 . S
N113 N112 1.365 . S
N113 H133 0.862 . S
C114 C109 1.501 . S
C114 H115 0.961 . S
C114 H116 0.961 . S
C114 H117 0.960 . S
H115 C114 0.961 . S
H116 C114 0.961 . S
H117 C114 0.960 . S
C118 N119 1.342 . S
C118 C122 1.401 . S
C118 C123 1.499 1_565 S
N119 Co102 1.989 . S
N119 C118 1.342 . S
N119 N120 1.388 . S
N120 Co103 1.993 . S
N120 N119 1.388 . S
N120 C121 1.346 . S
C121 N120 1.346 . S
C121 C122 1.396 . S
C121 C131 1.510 . S
C122 C118 1.401 . S
C122 C121 1.396 . S
C123 C118 1.499 1_545 S
C123 H124 0.959 1_545 S
C123 H125 0.960 . S
C123 H126 0.961 . S
H124 C123 0.959 1_565 S
H125 C123 0.960 . S
H126 C123 0.961 . S
O127 Co102 1.967 . S
O127 C135 1.258 . S
O128 Co103 1.941 . S
O128 C135 1.266 . S
H129 C131 0.959 . S
H130 C131 0.961 . S
C131 C121 1.510 . S
C131 H129 0.959 . S
C131 H130 0.961 . S
C131 H132 0.960 . S
H132 C131 0.960 . S
H133 N113 0.862 . S
O134 Co102 1.920 . S
O134 C107 1.289 . S
C135 O127 1.258 . S
C135 O128 1.266 . S
Co136 O139 1.970 . S
Co136 N153 1.989 . S
Co136 O161 1.967 . S
Co136 O168 1.920 . S
Co137 O140 1.966 . S
Co137 N146 2.022 . S
Co137 N154 1.993 . S
Co137 O162 1.941 . S
C138 O139 1.258 . S
C138 O140 1.263 . S
O139 Co136 1.970 . S
O139 C138 1.258 . S
O140 Co137 1.966 . S
O140 C138 1.263 . S
C141 O142 1.235 . S
C141 O168 1.289 . S
O142 C141 1.235 . S
C143 C145 1.400 . S
C143 N146 1.351 . S
C143 C148 1.501 . S
C144 C145 1.387 . S
C144 N147 1.341 . S
C145 C143 1.400 . S
C145 C144 1.387 . S
N146 Co137 2.022 . S
N146 C143 1.351 . S
N146 N147 1.365 . S
N147 C144 1.341 . S
N147 N146 1.365 . S
N147 H167 0.862 . S
C148 C143 1.501 . S
C148 H149 0.961 . S
C148 H150 0.961 . S
C148 H151 0.960 . S
H149 C148 0.961 . S
H150 C148 0.961 . S
H151 C148 0.960 . S
C152 N153 1.342 . S
C152 C156 1.401 . S
C152 C157 1.499 1_455 S
N153 Co136 1.989 . S
N153 C152 1.342 . S
N153 N154 1.388 . S
N154 Co137 1.993 . S
N154 N153 1.388 . S
N154 C155 1.346 . S
C155 N154 1.346 . S
C155 C156 1.396 . S
C155 C165 1.510 . S
C156 C152 1.401 . S
C156 C155 1.396 . S
C157 C152 1.499 1_655 S
C157 H158 0.959 1_655 S
C157 H159 0.960 . S
C157 H160 0.961 . S
H158 C157 0.959 1_455 S
H159 C157 0.960 . S
H160 C157 0.961 . S
O161 Co136 1.967 . S
O161 C169 1.258 . S
O162 Co137 1.941 . S
O162 C169 1.266 . S
H163 C165 0.959 . S
H164 C165 0.961 . S
C165 C155 1.510 . S
C165 H163 0.959 . S
C165 H164 0.961 . S
C165 H166 0.960 . S
H166 C165 0.960 . S
H167 N147 0.862 . S
O168 Co136 1.920 . S
O168 C141 1.289 . S
C169 O161 1.258 . S
C169 O162 1.266 . S
Co170 O173 1.970 . S
Co170 N187 1.989 . S
Co170 O195 1.967 . S
Co170 O202 1.920 . S
Co171 O174 1.966 . S
Co171 N180 2.022 . S
Co171 N188 1.993 . S
Co171 O196 1.941 . S
C172 O173 1.258 . S
C172 O174 1.263 . S
O173 Co170 1.970 . S
O173 C172 1.258 . S
O174 Co171 1.966 . S
O174 C172 1.263 . S
C175 O176 1.235 . S
C175 O202 1.289 . S
O176 C175 1.235 . S
C177 C179 1.400 . S
C177 N180 1.351 . S
C177 C182 1.501 . S
C178 C179 1.387 . S
C178 N181 1.341 . S
C179 C177 1.400 . S
C179 C178 1.387 . S
N180 Co171 2.022 . S
N180 C177 1.351 . S
N180 N181 1.365 . S
N181 C178 1.341 . S
N181 N180 1.365 . S
N181 H201 0.862 . S
C182 C177 1.501 . S
C182 H183 0.961 . S
C182 H184 0.961 . S
C182 H185 0.960 . S
H183 C182 0.961 . S
H184 C182 0.961 . S
H185 C182 0.960 . S
C186 N187 1.342 . S
C186 C190 1.401 . S
C186 C191 1.499 1_545 S
N187 Co170 1.989 . S
N187 C186 1.342 . S
N187 N188 1.388 . S
N188 Co171 1.993 . S
N188 N187 1.388 . S
N188 C189 1.346 . S
C189 N188 1.346 . S
C189 C190 1.396 . S
C189 C199 1.510 . S
C190 C186 1.401 . S
C190 C189 1.396 . S
C191 C186 1.499 1_565 S
C191 H192 0.959 1_565 S
C191 H193 0.960 . S
C191 H194 0.961 . S
H192 C191 0.959 1_545 S
H193 C191 0.960 . S
H194 C191 0.961 . S
O195 Co170 1.967 . S
O195 C203 1.258 . S
O196 Co171 1.941 . S
O196 C203 1.266 . S
H197 C199 0.959 . S
H198 C199 0.961 . S
C199 C189 1.510 . S
C199 H197 0.959 . S
C199 H198 0.961 . S
C199 H200 0.960 . S
H200 C199 0.960 . S
H201 N181 0.862 . S
O202 Co170 1.920 . S
O202 C175 1.289 . S
C203 O195 1.258 . S
C203 O196 1.266 . S
Co204 O207 1.970 . S
Co204 N221 1.989 . S
Co204 O229 1.967 . S
Co204 O236 1.920 . S
Co205 O208 1.966 . S
Co205 N214 2.022 1_556 S
Co205 N222 1.993 . S
Co205 O230 1.941 . S
C206 O207 1.258 . S
C206 O208 1.263 . S
O207 Co204 1.970 . S
O207 C206 1.258 . S
O208 Co205 1.966 . S
O208 C206 1.263 . S
C209 O210 1.235 . S
C209 O236 1.289 . S
O210 C209 1.235 . S
C211 C213 1.400 . S
C211 N214 1.351 . S
C211 C216 1.501 . S
C212 C213 1.387 . S
C212 N215 1.341 . S
C213 C211 1.400 . S
C213 C212 1.387 . S
N214 Co205 2.022 1_554 S
N214 C211 1.351 . S
N214 N215 1.365 . S
N215 C212 1.341 . S
N215 N214 1.365 . S
N215 H235 0.862 . S
C216 C211 1.501 . S
C216 H217 0.961 . S
C216 H218 0.961 . S
C216 H219 0.960 . S
H217 C216 0.961 . S
H218 C216 0.961 . S
H219 C216 0.960 . S
C220 N221 1.342 . S
C220 C224 1.402 . S
C220 C225 1.499 1_655 S
N221 Co204 1.989 . S
N221 C220 1.342 . S
N221 N222 1.388 . S
N222 Co205 1.993 . S
N222 N221 1.388 . S
N222 C223 1.346 1_556 S
C223 N222 1.346 1_554 S
C223 C224 1.396 1_554 S
C223 C233 1.510 . S
C224 C220 1.402 . S
C224 C223 1.396 1_556 S
C225 C220 1.499 1_455 S
C225 H226 0.959 1_455 S
C225 H227 0.960 . S
C225 H228 0.961 . S
H226 C225 0.959 1_655 S
H227 C225 0.960 . S
H228 C225 0.961 . S
O229 Co204 1.967 . S
O229 C237 1.258 . S
O230 Co205 1.941 . S
O230 C237 1.266 . S
H231 C233 0.959 . S
H232 C233 0.961 . S
C233 C223 1.510 . S
C233 H231 0.959 . S
C233 H232 0.961 . S
C233 H234 0.960 . S
H234 C233 0.960 . S
H235 N215 0.862 . S
O236 Co204 1.920 . S
O236 C209 1.289 . S
C237 O229 1.258 . S
C237 O230 1.266 . S
Co238 O241 1.970 . S
Co238 N255 1.989 . S
Co238 O263 1.967 . S
Co238 O270 1.920 . S
Co239 O242 1.966 . S
Co239 N248 2.022 . S
Co239 N256 1.993 . S
Co239 O264 1.941 . S
C240 O241 1.258 . S
C240 O242 1.263 . S
O241 Co238 1.970 . S
O241 C240 1.258 . S
O242 Co239 1.966 . S
O242 C240 1.263 . S
C243 O244 1.235 . S
C243 O270 1.289 . S
O244 C243 1.235 . S
C245 C247 1.400 . S
C245 N248 1.351 . S
C245 C250 1.501 . S
C246 C247 1.387 . S
C246 N249 1.341 . S
C247 C245 1.400 . S
C247 C246 1.387 . S
N248 Co239 2.022 . S
N248 C245 1.351 . S
N248 N249 1.365 . S
N249 C246 1.341 . S
N249 N248 1.365 . S
N249 H269 0.862 . S
C250 C245 1.501 . S
C250 H251 0.961 . S
C250 H252 0.961 . S
C250 H253 0.960 . S
H251 C250 0.961 . S
H252 C250 0.961 . S
H253 C250 0.960 . S
C254 N255 1.342 . S
C254 C258 1.401 . S
C254 C259 1.499 1_565 S
N255 Co238 1.989 . S
N255 C254 1.342 . S
N255 N256 1.388 . S
N256 Co239 1.993 . S
N256 N255 1.388 . S
N256 C257 1.346 . S
C257 N256 1.346 . S
C257 C258 1.396 . S
C257 C267 1.510 . S
C258 C254 1.401 . S
C258 C257 1.396 . S
C259 C254 1.499 1_545 S
C259 H260 0.959 1_545 S
C259 H261 0.960 . S
C259 H262 0.961 . S
H260 C259 0.959 1_565 S
H261 C259 0.960 . S
H262 C259 0.961 . S
O263 Co238 1.967 . S
O263 C271 1.258 . S
O264 Co239 1.941 . S
O264 C271 1.266 . S
H265 C267 0.959 . S
H266 C267 0.961 . S
C267 C257 1.510 . S
C267 H265 0.959 . S
C267 H266 0.961 . S
C267 H268 0.960 . S
H268 C267 0.960 . S
H269 N249 0.862 . S
O270 Co238 1.920 . S
O270 C243 1.289 . S
C271 O263 1.258 . S
C271 O264 1.266 . S
C141 C5 1.904 . S
C39 C175 1.904 . S
C73 C209 1.904 . S
C107 C243 1.904 1_556 S
C20 C224 1.131 1_454 S
C54 C258 1.131 1_545 S
C156 C88 1.131 1_455 S
C190 C122 1.131 1_545 S
C240 C2 1.582 . S
C36 C138 1.582 . S
C172 C70 1.582 . S
C206 C104 1.582 . S
C33 C43 1.841 . S
C67 C77 1.841 . S
C111 C101 1.841 . S
C9 C135 1.841 . S
C169 C247 1.841 . S
C145 C203 1.841 . S
C237 C179 1.841 . S
C271 C213 1.841 . S
