# Generated by pormake.
# Topology unn, (4)-cn, num edge types: 1
# Building blocks:
#     Node 0, Type 0, BuildingBlock: KOZSID_clean_sbu_0, # of connection points: 4
#     Node 1, Type 0, BuildingBlock: KOZSID_clean_sbu_0, # of connection points: 4
#     Node 2, Type 0, BuildingBlock: KOZSID_clean_sbu_0, # of connection points: 4
#     Node 3, Type 0, BuildingBlock: KOZSID_clean_sbu_0, # of connection points: 4
#     Node 4, Type 0, BuildingBlock: KOZSID_clean_sbu_0, # of connection points: 4
#     Node 5, Type 0, BuildingBlock: KOZSID_clean_sbu_0, # of connection points: 4
#     Node 6, Type 0, BuildingBlock: KOZSID_clean_sbu_0, # of connection points: 4
#     Node 7, Type 0, BuildingBlock: KOZSID_clean_sbu_0, # of connection points: 4
#     Node 8, Type 0, BuildingBlock: KOZSID_clean_sbu_0, # of connection points: 4
#     Node 9, Type 0, BuildingBlock: KOZSID_clean_sbu_0, # of connection points: 4
#     Node 10, Type 0, BuildingBlock: KOZSID_clean_sbu_0, # of connection points: 4
#     Node 11, Type 0, BuildingBlock: KOZSID_clean_sbu_0, # of connection points: 4
#     Node 12, Type 0, BuildingBlock: KOZSID_clean_sbu_0, # of connection points: 4
#     Node 13, Type 0, BuildingBlock: KOZSID_clean_sbu_0, # of connection points: 4
#     Node 14, Type 0, BuildingBlock: KOZSID_clean_sbu_0, # of connection points: 4
#     Node 15, Type 0, BuildingBlock: KOZSID_clean_sbu_0, # of connection points: 4
#     Node 16, Type 0, BuildingBlock: KOZSID_clean_sbu_0, # of connection points: 4
#     Node 17, Type 0, BuildingBlock: KOZSID_clean_sbu_0, # of connection points: 4
#     Edge 18, Type (0, 0), BuildingBlock: XIVTED_clean_linker_0, # of connection points: 2
#     Edge 19, Type (0, 0), BuildingBlock: XIVTED_clean_linker_0, # of connection points: 2
#     Edge 20, Type (0, 0), BuildingBlock: XIVTED_clean_linker_0, # of connection points: 2
#     Edge 21, Type (0, 0), BuildingBlock: XIVTED_clean_linker_0, # of connection points: 2
#     Edge 22, Type (0, 0), BuildingBlock: XIVTED_clean_linker_0, # of connection points: 2
#     Edge 23, Type (0, 0), BuildingBlock: XIVTED_clean_linker_0, # of connection points: 2
#     Edge 24, Type (0, 0), BuildingBlock: XIVTED_clean_linker_0, # of connection points: 2
#     Edge 25, Type (0, 0), BuildingBlock: XIVTED_clean_linker_0, # of connection points: 2
#     Edge 26, Type (0, 0), BuildingBlock: XIVTED_clean_linker_0, # of connection points: 2
#     Edge 27, Type (0, 0), BuildingBlock: XIVTED_clean_linker_0, # of connection points: 2
#     Edge 28, Type (0, 0), BuildingBlock: XIVTED_clean_linker_0, # of connection points: 2
#     Edge 29, Type (0, 0), BuildingBlock: XIVTED_clean_linker_0, # of connection points: 2
#     Edge 30, Type (0, 0), BuildingBlock: XIVTED_clean_linker_0, # of connection points: 2
#     Edge 31, Type (0, 0), BuildingBlock: XIVTED_clean_linker_0, # of connection points: 2
#     Edge 32, Type (0, 0), BuildingBlock: XIVTED_clean_linker_0, # of connection points: 2
#     Edge 33, Type (0, 0), BuildingBlock: XIVTED_clean_linker_0, # of connection points: 2
#     Edge 34, Type (0, 0), BuildingBlock: XIVTED_clean_linker_0, # of connection points: 2
#     Edge 35, Type (0, 0), BuildingBlock: XIVTED_clean_linker_0, # of connection points: 2
#     Edge 36, Type (0, 0), BuildingBlock: XIVTED_clean_linker_0, # of connection points: 2
#     Edge 37, Type (0, 0), BuildingBlock: XIVTED_clean_linker_0, # of connection points: 2
#     Edge 38, Type (0, 0), BuildingBlock: XIVTED_clean_linker_0, # of connection points: 2
#     Edge 39, Type (0, 0), BuildingBlock: XIVTED_clean_linker_0, # of connection points: 2
#     Edge 40, Type (0, 0), BuildingBlock: XIVTED_clean_linker_0, # of connection points: 2
#     Edge 41, Type (0, 0), BuildingBlock: XIVTED_clean_linker_0, # of connection points: 2
#     Edge 42, Type (0, 0), BuildingBlock: XIVTED_clean_linker_0, # of connection points: 2
#     Edge 43, Type (0, 0), BuildingBlock: XIVTED_clean_linker_0, # of connection points: 2
#     Edge 44, Type (0, 0), BuildingBlock: XIVTED_clean_linker_0, # of connection points: 2
#     Edge 45, Type (0, 0), BuildingBlock: XIVTED_clean_linker_0, # of connection points: 2
#     Edge 46, Type (0, 0), BuildingBlock: XIVTED_clean_linker_0, # of connection points: 2
#     Edge 47, Type (0, 0), BuildingBlock: XIVTED_clean_linker_0, # of connection points: 2
#     Edge 48, Type (0, 0), BuildingBlock: XIVTED_clean_linker_0, # of connection points: 2
#     Edge 49, Type (0, 0), BuildingBlock: XIVTED_clean_linker_0, # of connection points: 2
#     Edge 50, Type (0, 0), BuildingBlock: XIVTED_clean_linker_0, # of connection points: 2
#     Edge 51, Type (0, 0), BuildingBlock: XIVTED_clean_linker_0, # of connection points: 2
#     Edge 52, Type (0, 0), BuildingBlock: XIVTED_clean_linker_0, # of connection points: 2
#     Edge 53, Type (0, 0), BuildingBlock: XIVTED_clean_linker_0, # of connection points: 2
# Relax obj value: 0.036
# Max RMSD: 0.228
# Mean RMSD: 0.203
data_MOF--net-unn--node1-KOZSID_clean_sbu_0--edge1-XIVTED_clean_linker_0
_symmetry_space_group_name_H-M    P1
_symmetry_Int_Tables_number       1
_symmetry_cell_setting            triclinic
loop_
_symmetry_equiv_pos_as_xyz
'x, y, z'
_cell_length_a     54.989933
_cell_length_b     54.966838
_cell_length_c     50.838577
_cell_angle_alpha  89.793109
_cell_angle_beta   90.152877
_cell_angle_gamma 119.90491
loop_
_atom_site_label
_atom_site_type_symbol
_atom_site_fract_x
_atom_site_fract_y
_atom_site_fract_z
_atom_type_partial_charge
C0 C 0.99814 0.71993 0.32925 0.0
C1 C 0.99996 0.74242 0.3432 0.0
C2 C 0.01265 0.76539 0.327 0.0
C3 C 0.01799 0.7558 0.30407 0.0
N4 N 0.00888 0.72804 0.30447 0.0
Co5 Co 0.01601 0.70739 0.27581 0.0
N6 N 0.02776 0.73872 0.24983 0.0
C7 C 0.03405 0.76505 0.25571 0.0
C8 C 0.04067 0.78205 0.23394 0.0
C9 C 0.03853 0.76542 0.21297 0.0
C10 C 0.03086 0.73911 0.22311 0.0
N11 N 0.02404 0.68711 0.24763 0.0
C12 C 0.02831 0.69216 0.22133 0.0
C13 C 0.03393 0.67284 0.20935 0.0
C14 C 0.03273 0.65487 0.22862 0.0
C15 C 0.02667 0.66425 0.25127 0.0
N16 N 1.00352 0.67543 0.30127 0.0
C17 C 0.00642 0.65272 0.2978 0.0
C18 C 0.9958 0.63376 0.31808 0.0
C19 C 0.98605 0.6454 0.3359 0.0
C20 C 0.99159 0.6711 0.32561 0.0
N21 N 0.97719 0.69176 0.26297 0.0
C22 C 0.92428 0.67332 0.23968 0.0
C23 C 0.93593 0.65568 0.24098 0.0
C24 C 0.96221 0.66515 0.25303 0.0
C25 C 0.93942 0.70001 0.25084 0.0
C26 C 0.96569 0.70883 0.26206 0.0
N27 N 0.0551 0.72427 0.28865 0.0
C28 C 0.08648 0.74263 0.3258 0.0
C29 C 0.10857 0.76133 0.30963 0.0
C30 C 0.10404 0.75881 0.2823 0.0
C31 C 0.07729 0.73992 0.27223 0.0
C32 C 0.0602 0.72443 0.31504 0.0
H33 H 0.07425 0.73926 0.25123 0.0
H34 H 0.04375 0.7118 0.32855 0.0
H35 H 0.97063 0.65115 0.25378 0.0
H36 H 0.97696 0.72996 0.26925 0.0
C37 C 0.02982 0.77173 0.28123 0.0
C38 C 0.98931 0.6923 0.34146 0.0
C39 C 0.0283 0.7155 0.20712 0.0
C40 C 0.01827 0.64938 0.27487 0.0
H41 H 0.99363 0.74246 0.36333 0.0
H42 H 0.01757 0.7866 0.33148 0.0
H43 H 0.04556 0.80371 0.23324 0.0
H44 H 0.04226 0.77197 0.19259 0.0
H45 H 0.03827 0.6717 0.18878 0.0
H46 H 0.03475 0.6364 0.22617 0.0
H47 H 0.99542 0.61395 0.31984 0.0
H48 H 0.97705 0.63656 0.35488 0.0
H49 H 0.92483 0.63475 0.23275 0.0
H50 H 0.9315 0.71453 0.25004 0.0
H51 H 0.08909 0.74268 0.34693 0.0
H52 H 0.12052 0.77232 0.26881 0.0
C53 C 0.2875 0.30064 0.22078 0.0
C54 C 0.26691 0.27699 0.20807 0.0
C55 C 0.2589 0.25489 0.22504 0.0
C56 C 0.27496 0.26612 0.24717 0.0
N57 N 0.2922 0.29412 0.2456 0.0
Co58 Co 0.32132 0.31701 0.2726 0.0
N59 N 0.30538 0.28643 0.2997 0.0
C60 C 0.28657 0.25938 0.29483 0.0
C61 C 0.27921 0.24281 0.31696 0.0
C62 C 0.29439 0.2605 0.33709 0.0
C63 C 0.31018 0.28705 0.32618 0.0
N64 N 0.35088 0.33969 0.29931 0.0
C65 C 0.3519 0.33613 0.32581 0.0
C66 C 0.37541 0.35884 0.33679 0.0
C67 C 0.38997 0.37659 0.31664 0.0
C68 C 0.37446 0.36425 0.29453 0.0
N69 N 0.33715 0.34825 0.24599 0.0
C70 C 0.36186 0.37229 0.24811 0.0
C71 C 0.36763 0.3903 0.22733 0.0
C72 C 0.34548 0.37663 0.21055 0.0
C73 C 0.32748 0.3508 0.22196 0.0
N74 N 0.29701 0.3308 0.28675 0.0
C75 C 0.2619 0.34734 0.31198 0.0
C76 C 0.29 0.36699 0.30612 0.0
C77 C 0.30721 0.35828 0.29363 0.0
C78 C 0.25169 0.31959 0.304 0.0
C79 C 0.26935 0.31188 0.29137 0.0
N80 N 0.34461 0.30177 0.25831 0.0
C81 C 0.35629 0.28398 0.21985 0.0
C82 C 0.3604 0.26504 0.23507 0.0
C83 C 0.35978 0.26743 0.26258 0.0
C84 C 0.35232 0.28624 0.27377 0.0
C85 C 0.34851 0.30195 0.2317 0.0
H86 H 0.35111 0.28682 0.29491 0.0
H87 H 0.34396 0.31452 0.21877 0.0
H88 H 0.32884 0.37366 0.29006 0.0
H89 H 0.26053 0.29025 0.28594 0.0
C90 C 0.27384 0.25131 0.27007 0.0
C91 C 0.30422 0.32794 0.20731 0.0
C92 C 0.33131 0.31161 0.34121 0.0
C93 C 0.37834 0.3779 0.27051 0.0
H94 H 0.25925 0.27566 0.1882 0.0
H95 H 0.2435 0.23312 0.22148 0.0
H96 H 0.2641 0.22064 0.31843 0.0
H97 H 0.29416 0.25446 0.3574 0.0
H98 H 0.38125 0.3629 0.35727 0.0
H99 H 0.40862 0.39703 0.31821 0.0
H100 H 0.38586 0.41087 0.22463 0.0
H101 H 0.34341 0.38429 0.19151 0.0
H102 H 0.29886 0.38874 0.31184 0.0
H103 H 0.23004 0.30374 0.30751 0.0
H104 H 0.35796 0.28427 0.19862 0.0
H105 H 0.36349 0.25387 0.27543 0.0
C106 C 0.71117 0.9897 0.22124 0.0
C107 C 0.72714 0.97886 0.21101 0.0
C108 C 0.74176 0.97615 0.23164 0.0
C109 C 0.73391 0.98534 0.25337 0.0
N110 N 0.71534 0.9938 0.24779 0.0
Co111 Co 0.69867 0.00826 0.27421 0.0
N112 N 0.72679 0.01375 0.30216 0.0
C113 C 0.74403 1.00293 0.30123 0.0
C114 C 0.75927 0.00721 0.32386 0.0
C115 C 0.75072 0.02102 0.34049 0.0
C116 C 0.73064 0.02448 0.32707 0.0
N117 N 0.68209 0.0234 0.30016 0.0
C118 C 0.69104 0.03523 0.32436 0.0
C119 C 0.67303 0.04348 0.33495 0.0
C120 C 0.65153 0.0356 0.31747 0.0
C121 C 0.65771 0.02332 0.29712 0.0
N122 N 0.67011 1.00218 0.24657 0.0
C123 C 0.64661 0.00362 0.25046 0.0
C124 C 0.63184 1.00084 0.22788 0.0
C125 C 0.64678 0.99738 0.20834 0.0
C126 C 0.66976 0.99767 0.22015 0.0
N127 N 0.67468 0.96958 0.28791 0.0
C128 C 0.65828 0.91656 0.31053 0.0
C129 C 0.66225 0.93929 0.326 0.0
C130 C 0.67026 0.96529 0.31443 0.0
C131 C 0.65933 0.92016 0.28306 0.0
C132 C 0.6671 0.94668 0.27218 0.0
N133 N 0.7237 0.04654 0.26067 0.0
C134 C 0.73194 0.09059 0.24201 0.0
C135 C 0.76007 0.09872 0.2368 0.0
C136 C 0.76968 0.08059 0.24468 0.0
C137 C 0.75141 0.05498 0.2567 0.0
C138 C 0.71407 0.06436 0.25378 0.0
H139 H 0.75982 0.04178 0.2622 0.0
H140 H 0.69241 0.05836 0.25681 0.0
H141 H 0.6746 0.98217 0.3275 0.0
H142 H 0.66871 0.94893 0.25108 0.0
C143 C 0.74583 0.98956 0.27849 0.0
C144 C 0.69037 0.99317 0.20555 0.0
C145 C 0.71348 0.03487 0.33991 0.0
C146 C 0.64204 0.01313 0.27422 0.0
H147 H 0.72783 0.97309 0.19082 0.0
H148 H 0.75678 0.96891 0.23077 0.0
H149 H 0.77447 1.00064 0.32797 0.0
H150 H 0.75766 0.02688 0.36058 0.0
H151 H 0.67465 0.05311 0.35389 0.0
H152 H 0.63348 0.03841 0.31941 0.0
H153 H 0.61338 1.00292 0.22563 0.0
H154 H 0.64153 0.99567 0.18769 0.0
H155 H 0.66027 0.93744 0.34721 0.0
H156 H 0.65574 0.90316 0.27003 0.0
H157 H 0.72357 0.10398 0.2363 0.0
H158 H 0.79132 0.08612 0.24155 0.0
C159 C 0.96553 0.21139 0.74196 0.0
C160 C 0.95338 0.18323 0.7351 0.0
C161 C 0.96901 0.1732 0.74683 0.0
C162 C 0.98963 0.19559 0.76025 0.0
N163 N 0.98813 0.21921 0.75774 0.0
Co164 Co 0.01323 0.25573 0.77517 0.0
N165 N 0.04178 0.24448 0.78315 0.0
C166 C 0.03793 0.21833 0.78145 0.0
C167 C 0.06149 0.21681 0.78725 0.0
C168 C 0.08144 0.24362 0.79345 0.0
C169 C 0.06874 0.25999 0.79142 0.0
N170 N 0.03825 0.29205 0.79315 0.0
C171 C 0.06508 0.30309 0.80196 0.0
C172 C 0.07363 0.32816 0.81512 0.0
C173 C 0.0513 0.33275 0.81485 0.0
C174 C 0.03039 0.3103 0.80163 0.0
N175 N 0.98457 0.26675 0.7668 0.0
C176 C 0.98283 0.28799 0.77799 0.0
C177 C 0.96092 0.29069 0.76839 0.0
C178 C 0.94789 0.26966 0.7502 0.0
C179 C 0.96251 0.25513 0.74981 0.0
N180 N 0.99453 0.24039 0.80911 0.0
C181 C 0.9703 0.23889 0.85801 0.0
C182 C 0.95357 0.22822 0.83543 0.0
C183 C 0.96605 0.22877 0.81124 0.0
C184 C 0.99864 0.24637 0.8561 0.0
C185 C 0.01026 0.24679 0.83158 0.0
N186 N 0.03181 0.2722 0.74154 0.0
C187 C 0.04938 0.31145 0.71161 0.0
C188 C 0.05746 0.29772 0.6935 0.0
C189 C 0.05223 0.2706 0.7 0.0
C190 C 0.03948 0.25826 0.72418 0.0
C191 C 0.03678 0.29849 0.73523 0.0
H192 H 0.03573 0.23749 0.72878 0.0
H193 H 0.03077 0.30989 0.74828 0.0
H194 H 0.95295 0.22218 0.79394 0.0
H195 H 0.03251 0.25474 0.83069 0.0
C196 C 0.01298 0.19633 0.77173 0.0
C197 C 0.95368 0.22922 0.73469 0.0
C198 C 0.08185 0.28899 0.80101 0.0
C199 C 1.00425 0.30699 0.79457 0.0
H200 H 0.93498 0.17101 0.72309 0.0
H201 H 0.96619 0.15233 0.74506 0.0
H202 H 0.06399 0.1985 0.78664 0.0
H203 H 0.1027 0.25018 0.79955 0.0
H204 H 0.09366 0.34137 0.82453 0.0
H205 H 0.05052 0.35045 0.82314 0.0
H206 H 0.95553 0.30653 0.77344 0.0
H207 H 0.92956 0.26537 0.73875 0.0
H208 H 0.93144 0.22161 0.8359 0.0
H209 H 0.01223 0.25358 0.87318 0.0
H210 H 0.05217 0.33202 0.70741 0.0
H211 H 0.05812 0.2591 0.68667 0.0
C212 C 0.81828 0.76546 0.74441 0.0
C213 C 0.84669 0.78162 0.73852 0.0
C214 C 0.85604 0.80712 0.7501 0.0
C215 C 0.83306 0.80513 0.76252 0.0
N216 N 0.80964 0.78001 0.75951 0.0
Co217 Co 0.77256 0.76826 0.77609 0.0
N218 N 0.78341 0.80791 0.78433 0.0
C219 C 0.80951 0.83025 0.78301 0.0
C220 C 0.81094 0.85509 0.78955 0.0
C221 C 0.7841 0.84806 0.79585 0.0
C222 C 0.76778 0.81914 0.79297 0.0
N223 N 0.73586 0.75665 0.79363 0.0
C224 C 0.72477 0.77225 0.80288 0.0
C225 C 0.69947 0.75545 0.81559 0.0
C226 C 0.69477 0.72853 0.81466 0.0
C227 C 0.71738 0.73034 0.8015 0.0
N228 N 0.76182 0.7288 0.76724 0.0
C229 C 0.73992 0.70559 0.77741 0.0
C230 C 0.73741 0.68122 0.76756 0.0
C231 C 0.75928 0.68957 0.75027 0.0
C232 C 0.77413 0.71868 0.75068 0.0
N233 N 0.78712 0.76422 0.81032 0.0
C234 C 0.7879 0.74108 0.85938 0.0
C235 C 0.79864 0.73493 0.83695 0.0
C236 C 0.79845 0.74707 0.81268 0.0
C237 C 0.78067 0.76214 0.85726 0.0
C238 C 0.78061 0.77354 0.83267 0.0
N239 N 0.75687 0.77099 0.74203 0.0
C240 C 0.7179 0.7506 0.7117 0.0
C241 C 0.73363 0.77039 0.69247 0.0
C242 C 0.76129 0.79092 0.69862 0.0
C243 C 0.77238 0.79115 0.72372 0.0
C244 C 0.72992 0.751 0.73597 0.0
H245 H 0.79358 0.80724 0.7281 0.0
H246 H 0.71734 0.73446 0.74952 0.0
H247 H 0.8052 0.74059 0.79553 0.0
H248 H 0.7729 0.78804 0.83166 0.0
C249 C 0.83178 0.82749 0.77376 0.0
C250 C 0.80096 0.73591 0.73684 0.0
C251 C 0.73876 0.80307 0.8024 0.0
C252 C 0.7206 0.70767 0.79379 0.0
H253 H 0.85956 0.77563 0.72731 0.0
H254 H 0.87693 0.8252 0.74897 0.0
H255 H 0.82929 0.87584 0.78967 0.0
H256 H 0.7775 0.86247 0.80276 0.0
H257 H 0.68615 0.7621 0.82506 0.0
H258 H 0.67686 0.70985 0.82243 0.0
H259 H 0.72127 0.65993 0.77195 0.0
H260 H 0.76395 0.67577 0.73895 0.0
H261 H 0.80507 0.71926 0.8376 0.0
H262 H 0.77341 0.76858 0.87422 0.0
H263 H 0.69664 0.73409 0.70764 0.0
H264 H 0.7742 0.80661 0.6842 0.0
C265 C 0.20576 0.95979 0.80111 0.0
C266 C 0.17741 0.94822 0.807 0.0
C267 C 0.16877 0.9652 0.79574 0.0
C268 C 0.19207 0.98597 0.78348 0.0
N269 N 0.21503 0.98334 0.78628 0.0
Co270 Co 0.25228 0.00802 0.76973 0.0
N271 N 0.24255 0.0378 0.76196 0.0
C272 C 0.21674 0.03484 0.76329 0.0
C273 C 0.21611 0.0588 0.75714 0.0
C274 C 0.24317 0.07814 0.75108 0.0
C275 C 0.25882 0.06473 0.7537 0.0
N276 N 0.28927 0.03259 0.75248 0.0
C277 C 0.30105 0.05951 0.74356 0.0
C278 C 0.32625 0.06754 0.73087 0.0
C279 C 0.33016 0.04479 0.73143 0.0
C280 C 0.30721 0.02416 0.7444 0.0
N281 N 0.26179 0.97818 0.77799 0.0
C282 C 0.28315 0.97616 0.76744 0.0
C283 C 0.28486 0.95364 0.7769 0.0
C284 C 0.26303 0.94043 0.79428 0.0
C285 C 0.24897 0.95553 0.79432 0.0
N286 N 0.23747 0.99037 0.73528 0.0
C287 C 0.23749 0.9677 0.68593 0.0
C288 C 0.22599 0.95022 0.70798 0.0
C289 C 0.22574 0.96194 0.7324 0.0
C290 C 0.24492 0.99597 0.68849 0.0
C291 C 0.24457 0.00681 0.7132 0.0
N292 N 0.26832 0.02559 0.80388 0.0
C293 C 0.30698 0.04175 0.83434 0.0
C294 C 0.29341 0.05001 0.85246 0.0
C295 C 0.26662 0.04552 0.84571 0.0
C296 C 0.2545 0.03339 0.82126 0.0
C297 C 0.29424 0.02974 0.81049 0.0
H298 H 0.23402 0.03028 0.81645 0.0
H299 H 0.30555 0.02359 0.79749 0.0
H300 H 0.21844 0.94826 0.74931 0.0
H301 H 0.25257 0.02902 0.71458 0.0
C302 C 0.19405 0.01005 0.77242 0.0
C303 C 0.22235 0.94655 0.80835 0.0
C304 C 0.2878 0.07706 0.74431 0.0
C305 C 0.30298 0.99766 0.75142 0.0
H306 H 0.16411 0.92927 0.81797 0.0
H307 H 0.14812 0.96303 0.79692 0.0
H308 H 0.19814 0.06188 0.75717 0.0
H309 H 0.25035 0.0994 0.7445 0.0
H310 H 0.34 0.08754 0.7216 0.0
H311 H 0.34773 0.04352 0.72348 0.0
H312 H 0.30054 0.94789 0.77226 0.0
H313 H 0.2579 0.92166 0.8054 0.0
H314 H 0.21932 0.92809 0.70697 0.0
H315 H 0.25271 0.01012 0.6718 0.0
H316 H 0.32728 0.04397 0.8387 0.0
H317 H 0.25523 0.05156 0.85904 0.0
C318 C 0.66423 0.05244 0.66011 0.0
C319 C 0.66555 0.07486 0.67381 0.0
C320 C 0.67836 0.09781 0.6576 0.0
C321 C 0.68424 0.08829 0.63492 0.0
N322 N 0.67537 0.06058 0.63547 0.0
Co323 Co 0.68325 0.04006 0.60725 0.0
N324 N 0.69506 0.07124 0.58112 0.0
C325 C 0.70103 0.09752 0.58679 0.0
C326 C 0.70772 0.11439 0.5649 0.0
C327 C 0.70595 0.0977 0.5441 0.0
C328 C 0.69841 0.07151 0.55446 0.0
N329 N 0.69205 0.01994 0.57952 0.0
C330 C 0.69651 0.02485 0.55324 0.0
C331 C 0.70259 0.0057 0.54157 0.0
C332 C 0.70149 0.98797 0.56107 0.0
C333 C 0.69502 0.99733 0.58351 0.0
N334 N 0.67072 0.00823 0.63287 0.0
C335 C 0.67406 0.98574 0.62977 0.0
C336 C 0.66335 0.96685 0.65011 0.0
C337 C 0.65307 0.97832 0.66756 0.0
C338 C 0.6584 0.00386 0.65701 0.0
N339 N 0.64463 0.024 0.59378 0.0
C340 C 0.59239 0.00528 0.569 0.0
C341 C 0.60424 0.98785 0.57079 0.0
C342 C 0.63018 0.99744 0.58361 0.0
C343 C 0.60693 0.03186 0.58046 0.0
C344 C 0.63287 0.04083 0.59243 0.0
N345 N 0.72217 0.05737 0.62064 0.0
C346 C 0.75305 0.07611 0.65809 0.0
C347 C 0.77528 0.09482 0.64205 0.0
C348 C 0.77108 0.09214 0.61468 0.0
C349 C 0.74451 0.07305 0.60441 0.0
C350 C 0.72693 0.05773 0.64711 0.0
H351 H 0.74173 0.07225 0.58336 0.0
H352 H 0.71033 0.0451 0.6605 0.0
H353 H 0.63878 0.98363 0.58471 0.0
H354 H 0.64373 0.0619 0.59978 0.0
C355 C 0.69633 0.10422 0.61213 0.0
C356 C 0.65546 0.02491 0.67248 0.0
C357 C 0.69618 0.04788 0.53875 0.0
C358 C 0.68642 0.98253 0.60713 0.0
H359 H 0.65884 0.07487 0.6938 0.0
H360 H 0.68299 0.11896 0.66192 0.0
H361 H 0.71238 0.13597 0.56401 0.0
H362 H 0.70981 0.10413 0.5237 0.0
H363 H 0.70712 0.0045 0.52107 0.0
H364 H 0.7038 0.96965 0.55887 0.0
H365 H 0.66325 0.9472 0.65213 0.0
H366 H 0.64383 0.96948 0.68646 0.0
H367 H 0.59358 0.96699 0.56237 0.0
H368 H 0.59881 0.0462 0.57934 0.0
H369 H 0.75541 0.07626 0.67926 0.0
H370 H 0.78766 0.10565 0.60128 0.0
C371 C 0.95437 0.63385 0.55359 0.0
C372 C 0.93373 0.61068 0.54034 0.0
C373 C 0.92459 0.58824 0.55711 0.0
C374 C 0.94008 0.5988 0.57965 0.0
N375 N 0.95802 0.62668 0.57851 0.0
Co376 Co 0.98654 0.64861 0.60625 0.0
N377 N 0.96896 0.61779 0.633 0.0
C378 C 0.94947 0.59105 0.62781 0.0
C379 C 0.9402 0.57461 0.65 0.0
C380 C 0.95485 0.59203 0.6705 0.0
C381 C 0.97254 0.61824 0.65969 0.0
N382 N 0.0155 0.67028 0.63358 0.0
C383 C 0.01588 0.66596 0.65995 0.0
C384 C 0.04099 0.68606 0.67111 0.0
C385 C 0.0566 0.70382 0.65129 0.0
C386 C 0.04037 0.69354 0.62914 0.0
N387 N 1.00414 0.68009 0.58007 0.0
C388 C 0.02939 0.70342 0.58276 0.0
C389 C 0.03634 0.72187 0.56217 0.0
C390 C 0.01443 0.70921 0.54495 0.0
C391 C 0.99539 0.68345 0.55588 0.0
N392 N 0.96272 0.66336 0.61952 0.0
C393 C 0.92777 0.68085 0.64341 0.0
C394 C 0.95619 0.70007 0.63841 0.0
C395 C 0.97337 0.69085 0.62662 0.0
C396 C 0.91718 0.65312 0.63526 0.0
C397 C 0.93474 0.64496 0.62325 0.0
N398 N 0.0093 0.63242 0.59287 0.0
C399 C 0.02132 0.61391 0.55517 0.0
C400 C 0.02503 0.59508 0.57098 0.0
C401 C 0.02388 0.59775 0.5984 0.0
C402 C 0.01639 0.61681 0.60891 0.0
C403 C 0.0136 0.63223 0.56637 0.0
H404 H 0.01468 0.61756 0.62999 0.0
H405 H 0.00946 0.64484 0.55307 0.0
H406 H 0.99531 0.70578 0.62376 0.0
H407 H 0.92557 0.62335 0.61764 0.0
C408 C 0.93756 0.58353 0.60266 0.0
C409 C 0.97216 0.66124 0.54059 0.0
C410 C 0.99351 0.64267 0.675 0.0
C411 C 0.04553 0.7078 0.60529 0.0
H412 H 0.92674 0.60987 0.52028 0.0
H413 H 0.90877 0.56671 0.55318 0.0
H414 H 0.9239 0.55282 0.6513 0.0
H415 H 0.95262 0.58605 0.69101 0.0
H416 H 0.04736 0.68784 0.69149 0.0
H417 H 0.07683 0.7227 0.65307 0.0
H418 H 0.05524 0.742 0.55981 0.0
H419 H 0.01326 0.71739 0.52588 0.0
H420 H 0.96527 0.72179 0.64434 0.0
H421 H 0.8953 0.63764 0.63827 0.0
H422 H 0.02331 0.61386 0.53399 0.0
H423 H 0.02721 0.58423 0.61166 0.0
C424 C 0.39855 0.35885 0.6629 0.0
C425 C 0.41811 0.35483 0.67664 0.0
C426 C 0.42705 0.3414 0.65996 0.0
C427 C 0.41252 0.33787 0.637 0.0
N428 N 0.39538 0.34883 0.63774 0.0
Co429 Co 0.36794 0.34397 0.60923 0.0
N430 N 0.38504 0.32978 0.58298 0.0
C431 C 0.40381 0.32163 0.5887 0.0
C432 C 0.41202 0.31266 0.56708 0.0
C433 C 0.39745 0.3152 0.54633 0.0
C434 C 0.38112 0.32571 0.55638 0.0
N435 N 0.33975 0.33809 0.5812 0.0
C436 C 0.3395 0.33336 0.55482 0.0
C437 C 0.31671 0.33322 0.54276 0.0
C438 C 0.30177 0.33699 0.56208 0.0
C439 C 0.31636 0.3398 0.58479 0.0
N440 N 0.35122 0.35922 0.63496 0.0
C441 C 0.32729 0.35989 0.63134 0.0
C442 C 0.32091 0.3721 0.65162 0.0
C443 C 0.34178 0.37914 0.66966 0.0
C444 C 0.35962 0.37048 0.65946 0.0
N445 N 0.39343 0.38237 0.59598 0.0
C446 C 0.43074 0.43427 0.57194 0.0
C447 C 0.40188 0.42484 0.57357 0.0
C448 C 0.38368 0.39909 0.58596 0.0
C449 C 0.44046 0.41746 0.58323 0.0
C450 C 0.42163 0.39175 0.59483 0.0
N451 N 0.34352 0.30518 0.62255 0.0
C452 C 0.32963 0.27459 0.66052 0.0
C453 C 0.32643 0.25203 0.64523 0.0
C454 C 0.32856 0.25584 0.61779 0.0
C455 C 0.33663 0.2824 0.60686 0.0
C456 C 0.33801 0.30066 0.64893 0.0
H457 H 0.33896 0.28476 0.58581 0.0
H458 H 0.34165 0.31736 0.66194 0.0
H459 H 0.36172 0.39256 0.58689 0.0
H460 H 0.43009 0.37918 0.60214 0.0
C461 C 0.41505 0.32526 0.61406 0.0
C462 C 0.38127 0.3692 0.67558 0.0
C463 C 0.36019 0.32877 0.54046 0.0
C464 C 0.31188 0.34978 0.6083 0.0
H465 H 0.42449 0.36008 0.69693 0.0
H466 H 0.44206 0.33462 0.66423 0.0
H467 H 0.42712 0.3055 0.56639 0.0
H468 H 0.39834 0.30942 0.52617 0.0
H469 H 0.31164 0.33151 0.52207 0.0
H470 H 0.28349 0.33933 0.55957 0.0
H471 H 0.30305 0.37525 0.65322 0.0
H472 H 0.34303 0.38842 0.68871 0.0
H473 H 0.3934 0.43726 0.56535 0.0
H474 H 0.46247 0.42361 0.58227 0.0
H475 H 0.32676 0.27257 0.68164 0.0
H476 H 0.32557 0.23897 0.60485 0.0
C477 C 0.73229 0.59112 0.13517 0.0
C478 C 0.74286 0.57403 0.14334 0.0
C479 C 0.72627 0.54831 0.1323 0.0
C480 C 0.70648 0.55103 0.11821 0.0
N481 N 0.70931 0.57678 0.11975 0.0
Co482 Co 0.68468 0.58912 0.10248 0.0
N483 N 0.65506 0.5496 0.09522 0.0
C484 C 0.65842 0.52695 0.09652 0.0
C485 C 0.63494 0.50242 0.08967 0.0
C486 C 0.61548 0.50994 0.08328 0.0
C487 C 0.62823 0.53886 0.08669 0.0
N488 N 0.66012 0.60136 0.08474 0.0
C489 C 0.63299 0.58625 0.07656 0.0
C490 C 0.62466 0.60338 0.06403 0.0
C491 C 0.64752 0.62989 0.06369 0.0
C492 C 0.66846 0.62759 0.07614 0.0
N493 N 0.71446 0.62855 0.10998 0.0
C494 C 0.71673 0.6517 0.09848 0.0
C495 C 0.7398 0.676 0.10684 0.0
C496 C 0.75308 0.66764 0.12453 0.0
C497 C 0.73731 0.63861 0.12598 0.0
N498 N 0.70233 0.59141 0.06819 0.0
C499 C 0.72503 0.61402 1.01879 0.0
C500 C 0.74252 0.61982 0.0408 0.0
C501 C 0.73078 0.60784 0.06526 0.0
C502 C 0.69677 0.59325 1.02139 0.0
C503 C 0.68591 0.58213 0.04615 0.0
N504 N 0.66712 0.5881 0.13644 0.0
C505 C 0.65321 0.61223 0.16708 0.0
C506 C 0.64532 0.59082 0.18567 0.0
C507 C 0.64762 0.56731 0.17875 0.0
C508 C 0.65876 0.56643 0.15401 0.0
C509 C 0.66384 0.61044 0.14283 0.0
H510 H 0.661 0.54853 0.14927 0.0
H511 H 0.66987 0.62763 0.12942 0.0
H512 H 0.74443 0.6141 0.08217 0.0
H513 H 0.66366 0.56814 0.04757 0.0
C514 C 0.68288 0.52901 0.10664 0.0
C515 C 0.74612 0.62125 0.14074 0.0
C516 C 0.61539 0.55548 0.0781 0.0
C517 C 0.69513 0.64988 0.08247 0.0
H518 H 0.76087 0.5796 0.15581 0.0
H519 H 0.72791 0.52963 0.13493 0.0
H520 H 0.63221 0.48151 0.08949 0.0
H521 H 0.59462 0.49571 0.07603 0.0
H522 H 0.60436 0.59725 0.05552 0.0
H523 H 0.64862 0.64866 0.05562 0.0
H524 H 0.74596 0.6973 0.10115 0.0
H525 H 0.77242 0.68127 0.13483 0.0
H526 H 0.76464 0.63518 0.03974 0.0
H527 H 0.68262 0.58702 1.00473 0.0
H528 H 0.65136 0.63055 0.1713 0.0
H529 H 0.6417 0.55023 0.19256 0.0
C530 C 0.4269 0.14394 0.12791 0.0
C531 C 0.44316 0.17285 0.13102 0.0
C532 C 0.46992 0.18008 0.1242 0.0
C533 C 0.4685 0.15537 0.11715 0.0
N534 N 0.44248 0.13292 0.11867 0.0
Co535 Co 0.43171 0.09341 0.10989 0.0
N536 N 0.46839 0.10555 0.09228 0.0
C537 C 0.49171 0.13082 0.09494 0.0
C538 C 0.51446 0.13312 0.08179 0.0
C539 C 0.50509 0.10767 0.07012 0.0
C540 C 0.47688 0.0912 0.07668 0.0
N541 N 0.42115 0.05404 0.10073 0.0
C542 C 0.43329 0.04409 0.08379 0.0
C543 C 0.41874 0.01497 0.08352 0.0
C544 C 0.39729 0.00645 0.10131 0.0
C545 C 0.39972 0.03073 0.11132 0.0
N546 N 0.39531 0.08145 0.12815 0.0
C547 C 0.37711 0.05506 0.13603 0.0
C548 C 0.35463 0.05302 0.14963 0.0
C549 C 0.35912 0.07986 0.15083 0.0
C550 C 0.38418 0.09685 0.13784 0.0
N551 N 0.41511 0.09617 0.07643 0.0
C552 C 0.38977 0.09671 0.02825 0.0
C553 C 0.37596 0.07487 0.0464 0.0
C554 C 0.38883 0.075 0.07006 0.0
C555 C 0.41683 0.11849 0.03484 0.0
C556 C 0.42906 0.1179 0.0591 0.0
N557 N 0.44718 0.08934 0.14358 0.0
C558 C 0.46099 0.0611 0.16906 0.0
C559 C 0.45151 0.06741 0.19222 0.0
C560 C 0.44286 0.08744 0.19083 0.0
C561 C 0.44098 0.09821 0.16641 0.0
C562 C 0.45921 0.07275 0.14507 0.0
H563 H 0.43237 0.11199 0.166 0.0
H564 H 0.46566 0.06658 0.12752 0.0
H565 H 0.37739 0.05748 0.08303 0.0
H566 H 0.4498 0.13484 0.06374 0.0
C567 C 0.49059 0.15291 0.10693 0.0
C568 C 0.39796 0.12768 0.13749 0.0
C569 C 0.4598 0.06148 0.06949 0.0
C570 C 0.38056 0.03257 0.12812 0.0
H571 H 0.43657 0.18713 0.13832 0.0
H572 H 0.48817 0.20089 0.1242 0.0
H573 H 0.53524 0.15133 0.08038 0.0
H574 H 0.51786 0.1019 0.05849 0.0
H575 H 0.42335 1.00127 0.07196 0.0
H576 H 0.38144 0.9851 0.10593 0.0
H577 H 0.33695 0.03423 0.15755 0.0
H578 H 0.34585 0.08633 0.16067 0.0
H579 H 0.35541 0.05718 0.04217 0.0
H580 H 0.42839 0.13592 1.02151 0.0
H581 H 0.46872 0.04642 0.16931 0.0
H582 H 0.43564 0.09328 0.20821 0.0
C583 C 0.87093 0.29049 0.13175 0.0
C584 C 0.84252 0.27852 0.13752 0.0
C585 C 0.83355 0.29521 0.12618 0.0
C586 C 0.85675 0.31622 0.11399 0.0
N587 N 0.87992 0.314 0.11692 0.0
Co588 Co 0.91719 0.33919 0.1007 0.0
N589 N 0.90703 0.36867 0.0931 0.0
C590 C 0.88105 0.36531 0.09422 0.0
C591 C 0.88014 0.38916 0.08826 0.0
C592 C 0.9072 0.40885 0.08256 0.0
C593 C 0.92313 0.39574 0.08518 0.0
N594 N 0.95424 0.36428 0.08381 0.0
C595 C 0.96586 0.3913 0.07527 0.0
C596 C 0.99123 0.39976 0.06272 0.0
C597 C 0.9954 0.37717 0.06298 0.0
C598 C 0.97244 0.35621 0.07563 0.0
N599 N 0.92712 0.30961 0.10874 0.0
C600 C 0.94865 0.30793 0.09816 0.0
C601 C 0.95069 0.28557 0.10758 0.0
C602 C 0.92889 0.27213 0.12497 0.0
C603 C 0.91453 0.28693 0.12505 0.0
N604 N 0.90284 0.32184 0.06607 0.0
C605 C 0.90399 0.2998 1.01672 0.0
C606 C 0.89226 0.28207 0.03857 0.0
C607 C 0.89143 0.29347 0.06299 0.0
C608 C 0.91099 0.32795 1.0194 0.0
C609 C 0.91008 0.33847 0.04413 0.0
N610 N 0.93273 0.3564 0.13504 0.0
C611 C 0.97022 0.3705 0.16646 0.0
C612 C 0.95586 0.37734 0.18494 0.0
C613 C 0.92989 0.37447 0.17757 0.0
C614 C 0.91858 0.36377 0.15249 0.0
C615 C 0.95848 0.36026 0.1419 0.0
H616 H 0.8983 0.36103 0.14738 0.0
H617 H 0.97027 0.35496 0.12866 0.0
H618 H 0.88403 0.27963 0.07979 0.0
H619 H 0.91781 0.36063 0.04566 0.0
C620 C 0.85846 0.34025 0.10305 0.0
C621 C 0.88792 0.27773 0.13916 0.0
C622 C 0.95228 0.40854 0.07614 0.0
C623 C 0.96845 0.32971 0.08235 0.0
H624 H 0.82941 0.25952 0.14851 0.0
H625 H 0.81277 0.29273 0.12731 0.0
H626 H 0.862 0.39197 0.08821 0.0
H627 H 0.91421 0.43016 0.07624 0.0
H628 H 0.00491 0.41994 0.05372 0.0
H629 H 0.01316 0.37623 0.05504 0.0
H630 H 0.96659 0.28013 0.10296 0.0
H631 H 0.92403 0.25344 0.1361 0.0
H632 H 0.88589 0.26002 0.03744 0.0
H633 H 0.91892 0.34227 1.00285 0.0
H634 H 0.99053 0.37281 0.17105 0.0
H635 H 0.91809 0.37959 0.19128 0.0
C636 C 0.32816 0.38486 0.99531 0.0
C637 C 0.32987 0.40763 1.00867 0.0
C638 C 0.34392 0.43055 0.9926 0.0
C639 C 0.35008 0.42066 0.97033 0.0
N640 N 0.34022 0.39276 0.97096 0.0
Co641 Co 0.34792 0.37154 0.94333 0.0
N642 N 0.36212 0.40311 0.91732 0.0
C643 C 0.3694 0.42976 0.92301 0.0
C644 C 0.37753 0.44687 0.90122 0.0
C645 C 0.37533 0.42996 0.88047 0.0
C646 C 0.3661 0.40337 0.89075 0.0
N647 N 0.35605 0.35055 0.91599 0.0
C648 C 0.36104 0.35534 0.88972 0.0
C649 C 0.36597 0.33529 0.87832 0.0
C650 C 0.36359 0.31714 0.89794 0.0
C651 C 0.35754 0.32714 0.92021 0.0
N652 N 0.33342 0.33948 0.96892 0.0
C653 C 0.33589 0.31642 0.96624 0.0
C654 C 0.32434 0.29771 0.98661 0.0
C655 C 0.31446 0.3099 1.00368 0.0
C656 C 0.32082 0.33564 0.99287 0.0
N657 N 0.30997 0.35717 0.92879 0.0
C658 C 0.25877 0.34004 0.90258 0.0
C659 C 0.26797 0.32083 0.908 0.0
C660 C 0.29369 0.32985 0.92102 0.0
C661 C 0.27525 0.36758 0.91153 0.0
C662 C 0.30043 0.37559 0.92464 0.0
N663 N 0.38621 0.3871 0.95789 0.0
C664 C 0.41597 0.40475 0.99618 0.0
C665 C 0.43964 0.42116 0.98062 0.0
C666 C 0.43619 0.41834 0.95314 0.0
C667 C 0.4094 0.40108 0.94221 0.0
C668 C 0.38988 0.3878 0.98455 0.0
H669 H 0.40732 0.4001 0.92107 0.0
H670 H 0.37252 0.37666 0.99757 0.0
H671 H 0.30068 0.31491 0.92424 0.0
H672 H 0.31251 0.39707 0.93075 0.0
C673 C 0.3639 0.43658 0.94798 0.0
C674 C 0.31849 0.35725 1.00796 0.0
C675 C 0.36255 0.37918 0.87505 0.0
C676 C 0.34813 0.3125 0.94385 0.0
H677 H 0.32272 0.40787 0.02843 0.0
H678 H 0.34931 0.45195 0.99683 0.0
H679 H 0.38322 0.46875 0.9003 0.0
H680 H 0.37986 0.43649 0.86014 0.0
H681 H 0.37063 0.33382 0.85791 0.0
H682 H 0.36483 0.29819 0.89594 0.0
H683 H 0.32345 0.2777 0.98892 0.0
H684 H 0.30482 0.30138 1.02254 0.0
H685 H 0.25586 0.29926 0.90151 0.0
H686 H 0.26878 0.38303 0.90836 0.0
H687 H 0.41696 0.40595 1.01742 0.0
H688 H 0.45385 0.4298 0.94008 0.0
C689 C 0.62124 0.96823 0.88501 0.0
C690 C 0.60163 0.9443 0.87192 0.0
C691 C 0.59385 0.92225 0.8889 0.0
C692 C 0.60905 0.93381 0.91141 0.0
N693 N 0.62553 0.96194 0.91007 0.0
Co694 Co 0.65354 0.98544 0.93766 0.0
N695 N 0.63813 0.95452 0.96448 0.0
C696 C 0.62017 0.9273 0.9593 0.0
C697 C 0.61313 0.91048 0.98122 0.0
C698 C 0.62764 0.92815 1.00158 0.0
C699 C 0.64273 0.95494 0.99099 0.0
N700 N 0.68204 0.00879 0.96493 0.0
C701 C 0.68296 0.00489 0.99138 0.0
C702 C 0.70558 0.02809 1.00283 0.0
C703 C 0.71975 0.04658 0.98304 0.0
C704 C 0.70488 0.03412 0.96067 0.0
N705 N 0.66873 0.01698 0.91134 0.0
C706 C 0.69258 0.04177 0.91401 0.0
C707 C 0.69795 0.05982 0.89335 0.0
C708 C 0.67649 0.0454 0.87604 0.0
C709 C 0.65928 0.01915 0.88707 0.0
N710 N 0.62757 0.99751 0.95119 0.0
C711 C 0.58997 0.01203 0.97444 0.0
C712 C 0.61784 0.03257 0.96899 0.0
C713 C 0.63633 0.02485 0.95755 0.0
C714 C 0.58126 0.98435 0.96723 0.0
C715 C 0.60012 0.97764 0.95551 0.0
N716 N 0.67854 0.97196 0.92392 0.0
C717 C 0.69234 0.95593 0.88558 0.0
C718 C 0.69648 0.93695 0.90067 0.0
C719 C 0.69492 0.93856 0.92817 0.0
C720 C 0.68642 0.95656 0.93939 0.0
C721 C 0.68352 0.97306 0.89745 0.0
H722 H 0.68456 0.95657 0.96049 0.0
H723 H 0.67907 0.98572 0.88456 0.0
H724 H 0.65775 0.04097 0.95429 0.0
H725 H 0.59239 0.95608 0.95042 0.0
C726 C 0.60804 0.9191 0.93433 0.0
C727 C 0.6375 0.99569 0.87175 0.0
C728 C 0.66316 0.97959 1.00633 0.0
C729 C 0.70862 0.04792 0.93677 0.0
H730 H 0.5945 0.9428 0.85181 0.0
H731 H 0.57922 0.90033 0.8851 0.0
H732 H 0.59872 0.88811 0.98239 0.0
H733 H 0.62748 0.92194 1.02182 0.0
H734 H 0.71107 0.03189 0.02341 0.0
H735 H 0.73773 0.06744 0.98501 0.0
H736 H 0.71552 0.08088 0.89103 0.0
H737 H 0.67445 0.05285 0.85687 0.0
H738 H 0.62554 0.05428 0.9742 0.0
H739 H 0.55986 0.96782 0.97058 0.0
H740 H 0.69475 0.95686 0.86441 0.0
H741 H 0.69868 0.92497 0.94095 0.0
C742 C 0.04671 0.65928 0.88979 0.0
C743 C 0.06426 0.65027 0.87963 0.0
C744 C 0.07868 0.64766 0.90052 0.0
C745 C 0.06939 0.65538 0.92228 0.0
N746 N 0.05012 0.66284 0.91645 0.0
Co747 Co 0.03249 0.67668 0.94246 0.0
N748 N 0.06052 0.68304 0.97076 0.0
C749 C 0.07834 0.67287 0.97021 0.0
C750 C 0.09342 0.67765 0.99303 0.0
C751 C 0.08414 0.69108 1.00935 0.0
C752 C 0.06383 0.69385 0.99558 0.0
N753 N 0.01486 0.69113 0.9679 0.0
C754 C 0.02331 0.70321 0.99208 0.0
C755 C 1.00448 0.71058 1.0023 0.0
C756 C 0.98294 0.70173 0.98468 0.0
C757 C 0.98992 0.68983 0.96456 0.0
N758 N 1.004 0.66961 0.91459 0.0
C759 C 0.97931 0.66865 0.91844 0.0
C760 C 0.96337 0.66268 0.89608 0.0
C761 C 0.97895 0.65981 0.87674 0.0
C762 C 1.00377 0.66445 0.88838 0.0
N763 N 0.00914 0.63795 0.95618 0.0
C764 C 0.99226 0.58482 0.97874 0.0
C765 C 0.99611 0.60752 0.9942 0.0
C766 C 1.00441 0.6336 0.98266 0.0
C767 C 0.99391 0.58859 0.95129 0.0
C768 C 1.00194 0.61515 0.94043 0.0
N769 N 0.05687 0.71504 0.92884 0.0
C770 C 0.06411 0.75834 0.9092 0.0
C771 C 0.09253 0.76718 0.9046 0.0
C772 C 0.10274 0.7498 0.91327 0.0
C773 C 0.08482 0.72422 0.92545 0.0
C774 C 0.04658 0.7321 0.92117 0.0
H775 H 0.09372 0.71161 0.93152 0.0
H776 H 0.02468 0.72542 0.92371 0.0
H777 H 0.00857 0.65045 0.99572 0.0
H778 H 1.00394 0.61751 0.91935 0.0
C779 C 0.081 0.65988 0.94757 0.0
C780 C 0.026 0.66273 0.87391 0.0
C781 C 0.04596 0.70365 1.00802 0.0
C782 C 0.97408 0.67819 0.9419 0.0
H783 H 0.0665 0.64606 0.85929 0.0
H784 H 0.09478 0.64184 0.89976 0.0
H785 H 0.10902 0.67171 0.99744 0.0
H786 H 0.09081 0.69715 0.02947 0.0
H787 H 0.00551 0.7201 1.02117 0.0
H788 H 0.96426 0.70347 0.98647 0.0
H789 H 0.94333 0.66174 0.89384 0.0
H790 H 0.97276 0.65501 0.85635 0.0
H791 H 0.99373 0.60557 1.01537 0.0
H792 H 0.99052 0.57164 0.93826 0.0
H793 H 0.05531 0.77116 0.90288 0.0
H794 H 0.1246 0.75591 0.91059 0.0
C795 C 0.29839 0.87655 0.41105 0.0
C796 C 0.28554 0.84805 0.40536 0.0
C797 C 0.30034 0.83782 0.41838 0.0
C798 C 0.32122 0.86045 0.43133 0.0
N799 N 0.32068 0.88439 0.42725 0.0
Co800 Co 0.3464 0.92134 0.44351 0.0
N801 N 0.37425 0.90953 0.45266 0.0
C802 C 0.36912 0.88287 0.45337 0.0
C803 C 0.39174 0.88059 0.4612 0.0
C804 C 0.41245 0.90746 0.46609 0.0
C805 C 0.40127 0.9248 0.46089 0.0
N806 N 0.37207 0.95813 0.46031 0.0
C807 C 0.39917 0.96928 0.46836 0.0
C808 C 0.40863 0.9954 0.47977 0.0
C809 C 0.38652 1.00034 0.4795 0.0
C810 C 0.36486 0.97717 0.46781 0.0
N811 N 0.31838 0.93286 0.43408 0.0
C812 C 0.31713 0.95472 0.44441 0.0
C813 C 0.2956 0.95766 0.43416 0.0
C814 C 0.28232 0.93614 0.41646 0.0
C815 C 0.29643 0.9211 0.41699 0.0
N816 N 0.32771 0.9077 0.47776 0.0
C817 C 0.30399 0.90791 0.52651 0.0
C818 C 0.28708 0.89697 0.50407 0.0
C819 C 0.2993 0.89667 0.47995 0.0
C820 C 0.3322 0.91496 0.52459 0.0
C821 C 0.34358 0.9146 0.50017 0.0
N822 N 0.36508 0.93621 0.40959 0.0
C823 C 0.38381 0.97466 0.37876 0.0
C824 C 0.39184 0.96016 0.36156 0.0
C825 C 0.38575 0.93295 0.36879 0.0
C826 C 0.37248 0.9214 0.39303 0.0
C827 C 0.3706 0.96246 0.40235 0.0
H828 H 0.36822 0.90062 0.39841 0.0
H829 H 0.36475 0.9745 0.4147 0.0
H830 H 0.28611 0.88981 0.46271 0.0
H831 H 0.36579 0.92233 0.49925 0.0
C832 C 0.34386 0.86089 0.44409 0.0
C833 C 0.2873 0.89469 0.40258 0.0
C834 C 0.41565 0.9548 0.46763 0.0
C835 C 0.33886 0.97412 0.46052 0.0
H836 H 0.26714 0.83573 0.39337 0.0
H837 H 0.29676 0.8166 0.41785 0.0
H838 H 0.39311 0.86167 0.46296 0.0
H839 H 0.43309 0.91334 0.47356 0.0
H840 H 0.42923 0.00926 0.48783 0.0
H841 H 0.38648 0.0189 0.48647 0.0
H842 H 0.29067 0.97401 0.43838 0.0
H843 H 0.26422 0.93192 0.40468 0.0
H844 H 0.26504 0.8907 0.50457 0.0
H845 H 0.34592 0.92241 0.54157 0.0
H846 H 0.3873 0.99536 0.37388 0.0
H847 H 0.3915 0.92088 0.35605 0.0
C848 C 0.15061 0.42833 0.41951 0.0
C849 C 0.17957 0.4448 0.41714 0.0
C850 C 0.18623 0.47177 0.42239 0.0
C851 C 0.16116 0.47027 0.42803 0.0
N852 N 0.13906 0.44399 0.42714 0.0
Co853 Co 0.09937 0.43277 0.43536 0.0
N854 N 0.11071 0.46994 0.45134 0.0
C855 C 0.13554 0.49359 0.44792 0.0
C856 C 0.13731 0.51643 0.46048 0.0
C857 C 0.11199 0.50667 0.47262 0.0
C858 C 0.09617 0.47821 0.46687 0.0
N859 N 0.05986 0.4218 0.44415 0.0
C860 C 0.04967 0.43389 0.46085 0.0
C861 C 0.02057 0.41913 0.46103 0.0
C862 C 0.01235 0.39743 0.44354 0.0
C863 C 0.03678 0.39999 0.43375 0.0
N864 N 0.08812 0.3958 0.41871 0.0
C865 C 0.06191 0.37711 0.41083 0.0
C866 C 0.06038 0.35433 0.39824 0.0
C867 C 0.08736 0.35916 0.39775 0.0
C868 C 0.10396 0.3847 0.41013 0.0
N869 N 0.10246 0.41779 0.4696 0.0
C870 C 0.10417 0.39378 0.51813 0.0
C871 C 0.08203 0.37936 0.50046 0.0
C872 C 0.08159 0.39158 0.47662 0.0
C873 C 0.12549 0.4209 0.51104 0.0
C874 C 0.12431 0.43248 0.48659 0.0
N875 N 0.09493 0.44641 0.40073 0.0
C876 C 0.06379 0.45464 0.37334 0.0
C877 C 0.07027 0.44334 0.35153 0.0
C878 C 0.0925 0.43786 0.35413 0.0
C879 C 0.1046 0.43966 0.37876 0.0
C880 C 0.07677 0.45649 0.39768 0.0
H881 H 0.11984 0.43291 0.38023 0.0
H882 H 0.07007 0.46354 0.41449 0.0
H883 H 0.06397 0.37962 0.46393 0.0
H884 H 0.14096 0.45322 0.48143 0.0
C885 C 0.15806 0.49254 0.43674 0.0
C886 C 0.13484 0.39904 0.41063 0.0
C887 C 0.06695 0.46035 0.47519 0.0
C888 C 0.03909 0.38047 0.41781 0.0
H889 H 0.19431 0.43818 0.41137 0.0
H890 H 0.20692 0.49021 0.42244 0.0
H891 H 0.15522 0.53743 0.46152 0.0
H892 H 0.10591 0.51921 0.48426 0.0
H893 H 0.00673 0.42368 0.47242 0.0
H894 H 0.99109 0.38125 0.4391 0.0
H895 H 0.04184 0.33627 0.3905 0.0
H896 H 0.09418 0.34579 0.38868 0.0
H897 H 0.06465 0.35876 0.50517 0.0
H898 H 0.14305 0.43292 0.52409 0.0
H899 H 0.04729 0.45991 0.37226 0.0
H900 H 0.0993 0.43037 0.3376 0.0
C901 C 0.54458 0.62548 0.46819 0.0
C902 C 0.51738 0.61525 0.47737 0.0
C903 C 0.50836 0.63256 0.46767 0.0
C904 C 0.53046 0.6524 0.45332 0.0
N905 N 0.55307 0.64894 0.45339 0.0
Co906 Co 0.58946 0.67351 0.43521 0.0
N907 N 0.57961 0.70353 0.42906 0.0
C908 C 0.55422 0.70107 0.43272 0.0
C909 C 0.5535 0.72516 0.42742 0.0
C910 C 0.58004 0.74409 0.4195 0.0
C911 C 0.59546 0.73033 0.42026 0.0
N912 N 0.62543 0.69789 0.41615 0.0
C913 C 0.63666 0.72463 0.4069 0.0
C914 C 0.66095 0.73239 0.39268 0.0
C915 C 0.66483 0.70963 0.39259 0.0
C916 C 0.64277 0.68927 0.4067 0.0
N917 N 0.5993 0.64361 0.44206 0.0
C918 C 0.62006 0.64154 0.43022 0.0
C919 C 0.62155 0.61841 0.43816 0.0
C920 C 0.60019 0.60484 0.45596 0.0
C921 C 0.58681 0.62049 0.45788 0.0
N922 N 0.57279 0.65584 0.40114 0.0
C923 C 0.57424 0.63459 0.35146 0.0
C924 C 0.56318 0.6166 0.37325 0.0
C925 C 0.56203 0.62758 0.39783 0.0
C926 C 0.5798 0.66228 0.35436 0.0
C927 C 0.57871 0.67239 0.37924 0.0
N928 N 0.60744 0.69103 0.4689 0.0
C929 C 0.648 0.7075 0.49702 0.0
C930 C 0.6343 0.71246 0.51774 0.0
C931 C 0.60688 0.70734 0.51294 0.0
C932 C 0.59393 0.69685 0.48835 0.0
C933 C 0.63424 0.69651 0.4733 0.0
H934 H 0.57289 0.69298 0.48529 0.0
H935 H 0.64548 0.69205 0.45867 0.0
H936 H 0.5552 0.61364 0.41456 0.0
H937 H 0.58561 0.69436 0.38088 0.0
C938 C 0.53215 0.67668 0.44317 0.0
C939 C 0.56067 0.61116 0.47271 0.0
C940 C 0.6236 0.74228 0.40886 0.0
C941 C 0.63894 0.66286 0.41347 0.0
H942 H 0.50523 0.59712 0.48977 0.0
H943 H 0.48846 0.63141 0.47145 0.0
H944 H 0.53584 0.7286 0.42925 0.0
H945 H 0.58699 0.76534 0.41302 0.0
H946 H 0.67409 0.75221 0.38286 0.0
H947 H 0.6818 0.70816 0.38342 0.0
H948 H 0.6365 0.61224 0.43193 0.0
H949 H 0.59464 0.58532 0.46592 0.0
H950 H 0.55768 0.59479 0.37196 0.0
H951 H 0.58696 0.6767 0.33785 0.0
H952 H 0.66943 0.71191 0.49892 0.0
H953 H 0.59518 0.71076 0.52815 0.0
H954 H 0.98905 0.67992 0.1718 0.0
H955 H 0.08495 0.74414 0.04168 0.0
H956 H 0.07239 0.75144 0.17455 0.0
H957 H 1.00445 0.66856 0.04224 0.0
H958 H 0.08086 0.74848 0.0896 0.0
H959 H 0.99381 0.67714 0.12404 0.0
C960 C 0.0082 0.69539 0.16226 0.0
C961 C 0.03009 0.7163 0.17731 0.0
C962 C 0.0641 0.7309 0.07928 0.0
C963 C 0.03608 0.71293 0.12214 0.0
C964 C 0.06651 0.72836 0.05189 0.0
C965 C 0.04503 0.70595 0.03776 0.0
C966 C 0.03993 0.71093 0.09285 0.0
C967 C 0.02153 0.68622 0.05218 0.0
C968 C 0.01103 0.69368 0.13493 0.0
C969 C 0.05469 0.73537 0.16378 0.0
N970 N 0.0196 0.68922 0.07865 0.0
N971 N 0.05701 0.73324 0.13714 0.0
H972 H 0.27396 0.35102 0.03831 0.0
H973 H 0.26414 0.33089 0.17649 0.0
H974 H 0.35396 0.35528 0.04514 0.0
H975 H 0.34233 0.33129 0.17042 0.0
H976 H 0.2649 0.33833 0.12888 0.0
H977 H 0.26717 0.34295 0.08583 0.0
C978 C 0.29022 0.35047 0.04992 0.0
C979 C 0.31456 0.35389 0.03758 0.0
C980 C 0.28192 0.33664 0.13759 0.0
C981 C 0.30712 0.34448 0.0928 0.0
C982 C 0.28136 0.33227 0.16502 0.0
C983 C 0.30312 0.33036 0.17761 0.0
C984 C 0.30453 0.33916 0.1223 0.0
C985 C 0.32504 0.33258 0.16165 0.0
C986 C 0.28637 0.34577 0.0773 0.0
C987 C 0.33484 0.35277 0.05372 0.0
N988 N 0.32519 0.33689 0.13511 0.0
N989 N 0.33065 0.34815 0.08021 0.0
H990 H 0.64461 0.95244 0.17807 0.0
H991 H 0.71 0.98684 0.03374 0.0
H992 H 0.72858 0.02066 0.16536 0.0
H993 H 0.62481 0.96738 0.04665 0.0
H994 H 0.71741 0.98923 0.08164 0.0
H995 H 0.63739 0.94755 0.13016 0.0
C996 C 0.66161 0.96639 0.16524 0.0
C997 C 0.68701 0.98761 0.17603 0.0
C998 C 0.69708 0.98438 0.07401 0.0
C999 C 0.67917 0.98119 0.12068 0.0
C1000 C 0.69278 0.98303 0.04661 0.0
C1001 C 0.66693 0.97774 0.03587 0.0
C1002 C 0.67504 0.97919 0.09121 0.0
C1003 C 0.6452 0.97193 0.05382 0.0
C1004 C 0.65742 0.96354 0.13784 0.0
C1005 C 0.70852 0.00429 0.15813 0.0
N1006 N 0.64969 0.97274 0.08044 0.0
N1007 N 0.70416 1.00071 0.1315 0.0
H1008 H 0.65705 0.01181 0.50366 0.0
H1009 H 0.75286 0.07517 0.37341 0.0
H1010 H 0.74019 0.08367 0.50608 0.0
H1011 H 0.67218 0.99981 0.37424 0.0
H1012 H 0.7489 0.07974 0.42132 0.0
H1013 H 0.66184 0.0086 0.45598 0.0
C1014 C 0.67616 0.02725 0.49405 0.0
C1015 C 0.69797 0.04839 0.50897 0.0
C1016 C 0.73209 0.06213 0.41106 0.0
C1017 C 0.70403 0.04453 0.45392 0.0
C1018 C 0.73444 0.05946 0.38369 0.0
C1019 C 0.71286 0.03705 0.36966 0.0
C1020 C 0.70788 0.04231 0.42469 0.0
C1021 C 0.68935 0.01743 0.38413 0.0
C1022 C 0.67901 0.0253 0.46677 0.0
C1023 C 0.72254 0.06743 0.49539 0.0
N1024 N 0.68748 0.02057 0.41058 0.0
N1025 N 0.72489 0.06506 0.46879 0.0
H1026 H 0.9338 0.66487 0.50747 0.0
H1027 H 0.02628 0.68988 0.37622 0.0
H1028 H 0.0118 0.6644 0.50584 0.0
H1029 H 0.94632 0.68629 0.37443 0.0
H1030 H 0.02125 0.68146 0.42381 0.0
H1031 H 0.93731 0.67274 0.45939 0.0
C1032 C 0.95154 0.6662 0.49698 0.0
C1033 C 0.97252 0.66395 0.51083 0.0
C1034 C 1.00473 0.68252 0.41317 0.0
C1035 C 0.97694 0.67331 0.4556 0.0
C1036 C 0.00766 0.68741 0.3859 0.0
C1037 C 0.98668 0.68874 0.37115 0.0
C1038 C 0.9806 0.67894 0.42625 0.0
C1039 C 0.96303 0.68545 0.38493 0.0
C1040 C 0.95363 0.67082 0.46951 0.0
C1041 C 0.99513 0.66602 0.4961 0.0
N1042 N 0.96061 0.68068 0.41157 0.0
N1043 N 0.99675 0.67063 0.46956 0.0
H1044 H 0.39904 0.35608 0.50078 0.0
H1045 H 0.29272 0.3016 0.38065 0.0
H1046 H 0.31447 0.28854 0.51232 0.0
H1047 H 0.37719 0.31787 0.36994 0.0
H1048 H 0.29979 0.30325 0.42876 0.0
H1049 H 0.39207 0.34946 0.45274 0.0
C1050 C 0.37904 0.33982 0.49329 0.0
C1051 C 0.35717 0.32329 0.51088 0.0
C1052 C 0.31679 0.30652 0.41584 0.0
C1053 C 0.34874 0.31609 0.45558 0.0
C1054 C 0.31274 0.3055 0.38833 0.0
C1055 C 0.33457 0.31028 0.37093 0.0
C1056 C 0.34308 0.31294 0.4263 0.0
C1057 C 0.35997 0.31494 0.38237 0.0
C1058 C 0.37504 0.33611 0.46583 0.0
C1059 C 0.33176 0.30236 0.49971 0.0
N1060 N 0.3637 0.31672 0.40908 0.0
N1061 N 0.32808 0.29977 0.47301 0.0
H1062 H 0.91808 0.20842 0.88181 0.0
H1063 H 0.95194 0.32885 0.98795 0.0
H1064 H 0.99743 0.28517 0.88929 0.0
H1065 H 0.87558 0.24864 0.9907 0.0
H1066 H 0.96706 0.31317 0.95002 0.0
H1067 H 0.90066 0.22239 0.92013 0.0
C1068 C 0.93189 0.22808 0.89152 0.0
C1069 C 0.95942 0.24546 0.88233 0.0
C1070 C 0.94692 0.29892 0.95876 0.0
C1071 C 0.93951 0.26166 0.92605 0.0
C1072 C 0.93806 0.30802 0.98035 0.0
C1073 C 0.91219 0.29023 0.9925 0.0
C1074 C 0.92993 0.27169 0.94892 0.0
C1075 C 0.89568 0.2631 0.98205 0.0
C1076 C 0.92194 0.23601 0.91343 0.0
C1077 C 0.97631 0.2707 0.89583 0.0
N1078 N 0.90478 0.25468 0.96082 0.0
N1079 N 0.96608 0.27799 0.91679 0.0
H1080 H 0.69661 0.63349 0.98957 0.0
H1081 H 0.81787 0.71881 0.88363 0.0
H1082 H 0.77633 0.63613 0.99303 0.0
H1083 H 0.74144 0.72231 0.89036 0.0
H1084 H 0.80344 0.68741 0.92213 0.0
H1085 H 0.71275 0.66416 0.95144 0.0
C1086 C 0.71743 0.64014 0.98208 0.0
C1087 C 0.73493 0.63175 0.99448 0.0
C1088 C 0.79 0.69527 0.91522 0.0
C1089 C 0.75402 0.66791 0.95067 0.0
C1090 C 0.79818 0.71315 0.89321 0.0
C1091 C 0.78103 0.72357 0.88377 0.0
C1092 C 0.76432 0.68747 0.92769 0.0
C1093 C 0.75575 0.71546 0.89711 0.0
C1094 C 0.72679 0.65803 0.96037 0.0
C1095 C 0.76207 0.64201 0.98417 0.0
N1096 N 0.74821 0.69794 0.91817 0.0
N1097 N 0.77077 0.65949 0.96282 0.0
H1098 H 0.33415 0.07925 1.0189 0.0
H1099 H 0.34916 0.08726 0.86189 0.0
H1100 H 0.41333 0.11142 0.97865 0.0
H1101 H 0.26981 0.04111 0.90204 0.0
H1102 H 0.37279 0.10235 0.90435 0.0
H1103 H 0.31053 0.07142 0.97646 0.0
C1104 C 0.34666 0.08479 1.00115 0.0
C1105 C 0.37586 0.09564 1.00252 0.0
C1106 C 0.3502 0.08907 0.90392 0.0
C1107 C 0.3487 0.08693 0.95353 0.0
C1108 C 0.33661 0.08032 0.87963 0.0
C1109 C 0.30736 0.06241 0.87823 0.0
C1110 C 0.33455 0.08007 0.92725 0.0
C1111 C 0.29232 0.05489 0.902 0.0
C1112 C 0.33309 0.08036 0.97687 0.0
C1113 C 0.39087 0.10308 0.97872 0.0
N1114 N 0.30608 0.06355 0.92548 0.0
N1115 N 0.37712 0.09838 0.95527 0.0
H1116 H 0.20796 0.91634 0.66043 0.0
H1117 H 0.33189 0.95473 0.55695 0.0
H1118 H 0.28492 0.99592 0.65626 0.0
H1119 H 0.25194 0.87843 0.55091 0.0
H1120 H 0.31491 0.96817 0.59508 0.0
H1121 H 0.22325 0.90047 0.62188 0.0
C1122 C 0.22795 0.93052 0.6514 0.0
C1123 C 0.24498 0.95768 0.66156 0.0
C1124 C 0.30099 0.9484 0.58558 0.0
C1125 C 0.26268 0.93954 0.61759 0.0
C1126 C 0.31083 0.9405 0.56385 0.0
C1127 C 0.29351 0.91515 0.55072 0.0
C1128 C 0.27347 0.93095 0.59457 0.0
C1129 C 0.26606 0.89817 0.56032 0.0
C1130 C 0.23662 0.92145 0.62936 0.0
C1131 C 0.27068 0.97507 0.64894 0.0
N1132 N 0.25691 0.90632 0.5817 0.0
N1133 N 0.27869 0.9657 0.62783 0.0
H1134 H 0.09536 0.35343 0.6844 0.0
H1135 H 0.08885 0.33876 0.52752 0.0
H1136 H 0.04886 0.27432 0.64394 0.0
H1137 H 0.11844 0.41768 0.56756 0.0
H1138 H 0.08144 0.31528 0.57001 0.0
H1139 H 0.11099 0.37724 0.64202 0.0
C1140 C 0.08847 0.34097 0.66662 0.0
C1141 C 0.07028 0.31175 0.66789 0.0
C1142 C 0.08974 0.33776 0.56954 0.0
C1143 C 0.0886 0.33911 0.61904 0.0
C1144 C 0.09395 0.35124 0.54525 0.0
C1145 C 0.10385 0.38028 0.54385 0.0
C1146 C 0.09562 0.35332 0.59283 0.0
C1147 C 0.11078 0.39532 0.56757 0.0
C1148 C 0.09753 0.35466 0.6424 0.0
C1149 C 0.06284 0.2968 0.64408 0.0
N1150 N 0.1063 0.38165 0.59106 0.0
N1151 N 0.07183 0.31066 0.62069 0.0
H1152 H 0.67256 0.70046 0.54088 0.0
H1153 H 0.68482 0.76955 0.67952 0.0
H1154 H 0.62911 0.74643 0.55532 0.0
H1155 H 0.75331 0.76374 0.64526 0.0
H1156 H 0.66083 0.75753 0.63663 0.0
H1157 H 0.69849 0.71877 0.58154 0.0
C1158 C 0.66858 0.71469 0.55228 0.0
C1159 C 0.64882 0.72231 0.54391 0.0
C1160 C 0.68129 0.75931 0.63842 0.0
C1161 C 0.67818 0.74261 0.59168 0.0
C1162 C 0.695 0.76621 0.66282 0.0
C1163 C 0.72119 0.76784 0.66586 0.0
C1164 C 0.69347 0.75319 0.61708 0.0
C1165 C 0.73332 0.76303 0.64369 0.0
C1166 C 0.68342 0.72501 0.57573 0.0
C1167 C 0.64396 0.7398 0.56071 0.0
N1168 N 0.71919 0.7555 0.62038 0.0
N1169 N 0.65843 0.74924 0.5838 0.0
H1170 H 0.32321 0.34442 0.83928 0.0
H1171 H 0.42108 0.40763 0.7101 0.0
H1172 H 0.40768 0.41392 0.84287 0.0
H1173 H 0.33837 0.33501 0.70912 0.0
H1174 H 0.41686 0.41123 0.7581 0.0
H1175 H 0.32814 0.34192 0.79149 0.0
C1176 C 0.34268 0.35947 0.82994 0.0
C1177 C 0.3648 0.37979 0.84524 0.0
C1178 C 0.39963 0.39445 0.74743 0.0
C1179 C 0.37098 0.37677 0.79 0.0
C1180 C 0.40211 0.39233 0.71998 0.0
C1181 C 0.38008 0.37097 0.70538 0.0
C1182 C 0.37485 0.37512 0.76063 0.0
C1183 C 0.35591 0.35186 0.71941 0.0
C1184 C 0.34559 0.35794 0.80258 0.0
C1185 C 0.38979 0.39834 0.83193 0.0
N1186 N 0.35395 0.35443 0.74597 0.0
N1187 N 0.39217 0.3964 0.80526 0.0
H1188 H 0.61139 0.01859 0.70384 0.0
H1189 H 0.67877 0.99994 0.83867 0.0
H1190 H 0.69151 0.02276 0.70869 0.0
H1191 H 0.59921 0.99723 0.83685 0.0
H1192 H 0.68276 0.00721 0.79097 0.0
H1193 H 0.60576 0.01052 0.75184 0.0
C1194 C 0.62784 0.01793 0.71501 0.0
C1195 C 0.65194 0.02131 0.7021 0.0
C1196 C 0.6643 0.00493 0.80082 0.0
C1197 C 0.64561 0.01185 0.75726 0.0
C1198 C 0.66197 1.00064 0.82817 0.0
C1199 C 0.63856 0.99784 0.84194 0.0
C1200 C 0.6431 0.00655 0.78668 0.0
C1201 C 0.61755 0.99912 0.82711 0.0
C1202 C 0.6246 0.01322 0.74244 0.0
C1203 C 0.67255 0.02019 0.71769 0.0
N1204 N 0.62033 0.00343 0.80042 0.0
N1205 N 0.6689 0.01553 0.74419 0.0
H1206 H 0.02827 0.70118 0.83802 0.0
H1207 H 1.00149 0.60684 0.70825 0.0
H1208 H 0.01727 0.61805 0.84177 0.0
H1209 H 0.99274 0.68039 0.70982 0.0
H1210 H 0.01003 0.61131 0.75607 0.0
H1211 H 0.01926 0.69543 0.79045 0.0
C1212 C 0.02447 0.68187 0.82875 0.0
C1213 C 0.02415 0.66034 0.84407 0.0
C1214 C 0.00593 0.62631 0.74605 0.0
C1215 C 0.01329 0.65331 0.78906 0.0
C1216 C 1.0007 0.62357 0.7187 0.0
C1217 C 0.99561 0.64284 0.70486 0.0
C1218 C 0.00672 0.64888 0.75988 0.0
C1219 C 0.99609 0.66476 0.71957 0.0
C1220 C 0.01908 0.67849 0.80153 0.0
C1221 C 0.0185 0.63555 0.83083 0.0
N1222 N 1.00163 0.66722 0.746 0.0
N1223 N 0.01339 0.63276 0.80427 0.0
H1224 H 0.54841 0.58332 0.32524 0.0
H1225 H 0.67119 0.63634 0.21749 0.0
H1226 H 0.62164 0.66597 0.32254 0.0
H1227 H 0.59803 0.55389 0.21403 0.0
H1228 H 0.65369 0.64549 0.25796 0.0
H1229 H 0.56602 0.57037 0.2863 0.0
C1230 C 0.56807 0.59877 0.31649 0.0
C1231 C 0.58326 0.62598 0.32709 0.0
C1232 C 0.64136 0.62529 0.24856 0.0
C1233 C 0.60364 0.61118 0.28268 0.0
C1234 C 0.65143 0.62004 0.2254 0.0
C1235 C 0.63595 0.59441 0.21219 0.0
C1236 C 0.61541 0.60485 0.25886 0.0
C1237 C 0.61065 0.57393 0.22361 0.0
C1238 C 0.5781 0.59135 0.29425 0.0
C1239 C 0.60867 0.64502 0.31484 0.0
N1240 N 0.60101 0.57967 0.24619 0.0
N1241 N 0.61794 0.63726 0.29347 0.0
H1242 H 0.46494 0.08791 0.24259 0.0
H1243 H 0.38243 0.93734 0.31165 0.0
H1244 H 0.4298 0.0107 0.19869 0.0
H1245 H 0.43314 0.01458 0.35372 0.0
H1246 H 0.40085 0.96286 0.27002 0.0
H1247 H 0.45437 0.06092 0.28347 0.0
C1248 C 0.45521 0.06528 0.24155 0.0
C1249 C 0.44825 0.0516 0.21713 0.0
C1250 C 0.40816 0.97413 0.2884 0.0
C1251 C 0.43574 0.02035 0.26402 0.0
C1252 C 0.39778 0.95951 0.31218 0.0
C1253 C 0.40589 0.97387 0.33627 0.0
C1254 C 0.42671 0.00332 0.28872 0.0
C1255 C 0.42575 1.0027 0.33566 0.0
C1256 C 0.44922 0.04984 0.26491 0.0
C1257 C 0.43579 0.02217 0.21704 0.0
N1258 N 0.43517 0.01645 0.31238 0.0
N1259 N 0.42965 0.00753 0.24008 0.0
H1260 H 0.0535 0.39546 0.32329 0.0
H1261 H 0.96475 0.42372 0.21391 0.0
H1262 H 0.04466 0.46917 0.32518 0.0
H1263 H 0.97563 0.35134 0.2168 0.0
H1264 H 0.99134 0.44032 0.25547 0.0
H1265 H 0.02356 0.37919 0.28477 0.0
C1266 C 0.04559 0.40852 0.3154 0.0
C1267 C 0.05221 0.43409 0.3274 0.0
C1268 C 0.98767 0.4207 0.24706 0.0
C1269 C 0.01686 0.41496 0.283 0.0
C1270 C 0.97233 0.41113 0.22348 0.0
C1271 C 0.96817 0.38622 0.21176 0.0
C1272 C 0.99875 0.40513 0.25896 0.0
C1273 C 0.97862 0.37083 0.22491 0.0
C1274 C 0.02813 0.39899 0.29343 0.0
C1275 C 0.04027 0.4494 0.3166 0.0
N1276 N 0.99345 0.38058 0.24757 0.0
N1277 N 0.0233 0.43969 0.29494 0.0
H1278 H 0.28286 0.88061 0.35054 0.0
H1279 H 0.11465 0.79164 0.35435 0.0
H1280 H 0.23315 0.8772 0.41722 0.0
H1281 H 0.16347 0.78368 0.29213 0.0
H1282 H 0.15774 0.82733 0.37489 0.0
H1283 H 0.23952 0.85035 0.32597 0.0
C1284 C 0.26276 0.87415 0.35968 0.0
C1285 C 0.26154 0.88186 0.38574 0.0
C1286 C 0.15912 0.81784 0.35674 0.0
C1287 C 0.21189 0.84666 0.3581 0.0
C1288 C 0.13444 0.79717 0.34503 0.0
C1289 C 0.13522 0.78402 0.3216 0.0
C1290 C 0.18513 0.82583 0.34502 0.0
C1291 C 0.16166 0.79308 0.31014 0.0
C1292 C 0.23806 0.85664 0.34579 0.0
C1293 C 0.23501 0.87229 0.39698 0.0
N1294 N 0.18552 0.81326 0.32203 0.0
N1295 N 0.21131 0.85514 0.38317 0.0
H1296 H 0.25548 0.39361 0.30489 0.0
H1297 H 0.14624 0.35704 0.42335 0.0
H1298 H 0.22542 0.31887 0.35228 0.0
H1299 H 0.15895 0.41672 0.36231 0.0
H1300 H 0.1768 0.34389 0.39924 0.0
H1301 H 0.22295 0.4046 0.32791 0.0
C1302 C 0.2422 0.37961 0.32024 0.0
C1303 C 0.24317 0.35521 0.32652 0.0
C1304 C 0.17273 0.35971 0.391 0.0
C1305 C 0.20572 0.36763 0.35302 0.0
C1306 C 0.15519 0.36706 0.4047 0.0
C1307 C 0.15015 0.38797 0.39478 0.0
C1308 C 0.18559 0.37365 0.36739 0.0
C1309 C 0.16238 0.4005 0.37059 0.0
C1310 C 0.22344 0.38577 0.33324 0.0
C1311 C 0.2252 0.33773 0.34651 0.0
N1312 N 0.17972 0.39339 0.35789 0.0
N1313 N 0.20737 0.34432 0.35906 0.0
H1314 H 0.62586 0.8611 0.29442 0.0
H1315 H 0.65894 0.79695 0.42304 0.0
H1316 H 0.68296 0.91161 0.35583 0.0
H1317 H 0.60994 0.74623 0.35794 0.0
H1318 H 0.66907 0.83933 0.39801 0.0
H1319 H 0.62044 0.81892 0.31653 0.0
C1320 C 0.63735 0.86345 0.31244 0.0
C1321 C 0.65461 0.8902 0.32332 0.0
C1322 C 0.6564 0.81898 0.38899 0.0
C1323 C 0.64835 0.8417 0.34894 0.0
C1324 C 0.65085 0.79485 0.40323 0.0
C1325 C 0.63394 0.76819 0.39236 0.0
C1326 C 0.64464 0.81644 0.36378 0.0
C1327 C 0.62339 0.7665 0.36682 0.0
C1328 C 0.63417 0.83927 0.32513 0.0
C1329 C 0.6688 0.89159 0.3469 0.0
N1330 N 0.62872 0.79023 0.35348 0.0
N1331 N 0.66527 0.86784 0.35887 0.0
H1332 H 0.76926 0.15207 0.24612 0.0
H1333 H 0.87121 0.22379 0.12362 0.0
H1334 H 0.7953 0.1064 0.19566 0.0
H1335 H 0.87098 0.27151 0.19052 0.0
H1336 H 0.84116 0.1803 0.14795 0.0
H1337 H 0.80298 0.19584 0.22381 0.0
C1338 C 0.78192 0.15123 0.23026 0.0
C1339 C 0.77946 0.1255 0.22282 0.0
C1340 C 0.84805 0.20027 0.15751 0.0
C1341 C 0.81808 0.1755 0.19714 0.0
C1342 C 0.8655 0.22509 0.14373 0.0
C1343 C 0.87416 0.25132 0.1553 0.0
C1344 C 0.83851 0.20158 0.18282 0.0
C1345 C 0.86516 0.25172 0.18107 0.0
C1346 C 0.80133 0.17623 0.21768 0.0
C1347 C 0.79662 0.12575 0.20222 0.0
N1348 N 0.84759 0.22729 0.19384 0.0
N1349 N 0.815 0.15023 0.19004 0.0
H1350 H 0.79688 0.6343 0.12018 0.0
H1351 H 0.88003 0.67867 0.25719 0.0
H1352 H 0.75745 0.63555 0.19278 0.0
H1353 H 0.90702 0.64962 0.19078 0.0
H1354 H 0.8374 0.66866 0.23299 0.0
H1355 H 0.84029 0.64688 0.1444 0.0
C1356 C 0.79769 0.63793 0.14118 0.0
C1357 C 0.77379 0.63424 0.15454 0.0
C1358 C 0.85257 0.66435 0.22375 0.0
C1359 C 0.82309 0.64811 0.18248 0.0
C1360 C 0.87691 0.67005 0.23754 0.0
C1361 C 0.89713 0.66489 0.22604 0.0
C1362 C 0.84851 0.65383 0.198 0.0
C1363 C 0.8919 0.65363 0.20053 0.0
C1364 C 0.82228 0.64474 0.15504 0.0
C1365 C 0.7756 0.63857 0.18179 0.0
N1366 N 0.86826 0.64871 0.18731 0.0
N1367 N 0.79982 0.64527 0.1949 0.0
H1368 H 0.33527 0.23627 0.18968 0.0
H1369 H 0.40833 0.14112 0.1895 0.0
H1370 H 0.39243 0.24106 0.25049 0.0
H1371 H 0.36497 0.14983 0.12274 0.0
H1372 H 0.39774 0.17285 0.21467 0.0
H1373 H 0.34161 0.20072 0.16741 0.0
C1374 C 0.34942 0.23014 0.19833 0.0
C1375 C 0.36376 0.24239 0.22194 0.0
C1376 C 0.39019 0.16757 0.19465 0.0
C1377 C 0.3705 0.20055 0.19647 0.0
C1378 C 0.39599 0.14926 0.1804 0.0
C1379 C 0.38715 0.14263 0.15416 0.0
C1380 C 0.37541 0.17937 0.18259 0.0
C1381 C 0.37179 0.15415 0.14303 0.0
C1382 C 0.35281 0.20952 0.1856 0.0
C1383 C 0.3809 0.23242 0.23243 0.0
N1384 N 0.36646 0.17198 0.15725 0.0
N1385 N 0.38386 0.21224 0.21961 0.0
H1386 H 0.78095 0.12487 0.68693 0.0
H1387 H 0.94894 0.21682 0.68223 0.0
H1388 H 0.8303 0.11778 0.62468 0.0
H1389 H 0.89949 0.21006 0.75029 0.0
H1390 H 0.90556 0.18629 0.65784 0.0
H1391 H 0.82384 0.16086 0.70752 0.0
C1392 C 0.8008 0.13063 0.67761 0.0
C1393 C 0.80179 0.11764 0.65414 0.0
C1394 C 0.90415 0.1919 0.67794 0.0
C1395 C 0.85143 0.15985 0.67761 0.0
C1396 C 0.92886 0.20958 0.69173 0.0
C1397 C 0.92773 0.21638 0.71813 0.0
C1398 C 0.87808 0.18089 0.69066 0.0
C1399 C 0.90126 0.20584 0.72981 0.0
C1400 C 0.82536 0.15148 0.68936 0.0
C1401 C 0.8283 0.12704 0.6427 0.0
N1402 N 0.87755 0.18857 0.71606 0.0
N1403 N 0.85202 0.14742 0.65459 0.0
H1404 H 0.89374 0.65437 0.68541 0.0
H1405 H 0.81761 0.74637 0.68541 0.0
H1406 H 0.91848 0.72499 0.63347 0.0
H1407 H 0.81747 0.69847 0.75267 0.0
H1408 H 0.84848 0.73308 0.66227 0.0
H1409 H 0.86055 0.66531 0.70694 0.0
C1410 C 0.89221 0.67224 0.67856 0.0
C1411 C 0.90898 0.68881 0.6576 0.0
C1412 C 0.84136 0.72513 0.68193 0.0
C1413 C 0.87054 0.70122 0.68198 0.0
C1414 C 0.82346 0.7324 0.69499 0.0
C1415 C 0.81455 0.72309 0.72081 0.0
C1416 C 0.85026 0.70818 0.69467 0.0
C1417 C 0.82331 0.70558 0.73259 0.0
C1418 C 0.87325 0.67847 0.69088 0.0
C1419 C 0.90615 0.7118 0.64967 0.0
N1420 N 0.84063 0.6987 0.71946 0.0
N1421 N 0.88716 0.71718 0.6617 0.0
H1422 H 0.32138 0.13156 0.75994 0.0
H1423 H 0.29518 0.19672 0.62839 0.0
H1424 H 0.27804 0.08166 0.69235 0.0
H1425 H 0.3491 0.24685 0.69178 0.0
H1426 H 0.28911 0.15446 0.65084 0.0
H1427 H 0.33265 0.17419 0.73479 0.0
C1428 C 0.31482 0.12971 0.73958 0.0
C1429 C 0.29915 0.10321 0.72804 0.0
C1430 C 0.30229 0.17475 0.6598 0.0
C1431 C 0.31109 0.15171 0.69929 0.0
C1432 C 0.30584 0.19897 0.64692 0.0
C1433 C 0.32239 0.22563 0.65823 0.0
C1434 C 0.31534 0.17704 0.68425 0.0
C1435 C 0.33549 0.2269 0.68247 0.0
C1436 C 0.32102 0.15398 0.72526 0.0
C1437 C 0.29053 0.10181 0.70178 0.0
N1438 N 0.33159 0.2031 0.69462 0.0
N1439 N 0.29639 0.12566 0.68837 0.0
H1440 H 0.20491 0.89264 0.7922 0.0
H1441 H 0.10134 0.82045 0.91358 0.0
H1442 H 0.20515 0.9399 0.85966 0.0
H1443 H 0.12774 0.77479 0.86354 0.0
H1444 H 0.13544 0.86428 0.89152 0.0
H1445 H 0.17405 0.84898 0.81597 0.0
C1446 C 0.19912 0.89379 0.81231 0.0
C1447 C 0.20815 0.91994 0.8242 0.0
C1448 C 0.13375 0.84464 0.8854 0.0
C1449 C 0.17156 0.87005 0.85108 0.0
C1450 C 0.11412 0.81962 0.89782 0.0
C1451 C 0.1117 0.7939 0.89045 0.0
C1452 C 0.15073 0.84393 0.86508 0.0
C1453 C 0.12902 0.79414 0.87001 0.0
C1454 C 0.18121 0.86888 0.82577 0.0
C1455 C 0.19905 0.92016 0.84997 0.0
N1456 N 0.1476 0.81864 0.85798 0.0
N1457 N 0.18102 0.89567 0.86241 0.0
H1458 H 0.13512 0.33133 0.78933 0.0
H1459 H 0.20662 0.29299 0.90809 0.0
H1460 H 0.08768 0.27023 0.84904 0.0
H1461 H 0.25111 0.36902 0.86247 0.0
H1462 H 0.16343 0.28195 0.88424 0.0
H1463 H 0.17847 0.34417 0.81405 0.0
C1464 C 0.13388 0.32093 0.80782 0.0
C1465 C 0.10795 0.29973 0.8172 0.0
C1466 C 0.18266 0.30107 0.87947 0.0
C1467 C 0.15723 0.31368 0.84527 0.0
C1468 C 0.20736 0.30725 0.89294 0.0
C1469 C 0.23254 0.33204 0.8874 0.0
C1470 C 0.18314 0.31959 0.86 0.0
C1471 C 0.23214 0.34985 0.86765 0.0
C1472 C 0.15855 0.32809 0.82186 0.0
C1473 C 0.10737 0.28668 0.84119 0.0
N1474 N 0.20794 0.34326 0.85465 0.0
N1475 N 0.13162 0.29364 0.85424 0.0
H1476 H 0.74939 0.81704 0.85428 0.0
H1477 H 0.67283 0.90894 0.85463 0.0
H1478 H 0.70527 0.82464 0.78757 0.0
H1479 H 0.72921 0.91381 0.9163 0.0
H1480 H 0.68065 0.87448 0.83205 0.0
H1481 H 0.73782 0.84801 0.87954 0.0
C1482 C 0.73676 0.82484 0.84518 0.0
C1483 C 0.72797 0.81811 0.81895 0.0
C1484 C 0.69137 0.88306 0.8505 0.0
C1485 C 0.71503 0.8539 0.84749 0.0
C1486 C 0.68712 0.90305 0.86341 0.0
C1487 C 0.70079 0.91498 0.88735 0.0
C1488 C 0.70928 0.87444 0.86151 0.0
C1489 C 0.71817 0.90538 0.89798 0.0
C1490 C 0.73037 0.84268 0.85949 0.0
C1491 C 0.71212 0.8291 0.80785 0.0
N1492 N 0.72199 0.88582 0.88496 0.0
N1493 N 0.70622 0.84648 0.82213 0.0
H1494 H 0.48268 0.47585 0.58827 0.0
H1495 H 0.52139 0.56109 0.45201 0.0
H1496 H 0.42481 0.45303 0.52336 0.0
H1497 H 0.56501 0.59836 0.52417 0.0
H1498 H 0.49004 0.51778 0.47612 0.0
H1499 H 0.51648 0.51773 0.56381 0.0
C1500 C 0.47705 0.47966 0.56888 0.0
C1501 C 0.45074 0.46085 0.55793 0.0
C1502 C 0.50669 0.53525 0.48666 0.0
C1503 C 0.48968 0.50868 0.52957 0.0
C1504 C 0.5248 0.55979 0.47284 0.0
C1505 C 0.546 0.58314 0.4861 0.0
C1506 C 0.50989 0.53388 0.51399 0.0
C1507 C 0.54917 0.58067 0.51321 0.0
C1508 C 0.49637 0.50361 0.55494 0.0
C1509 C 0.44465 0.46703 0.53274 0.0
N1510 N 0.5313 0.55652 0.52627 0.0
N1511 N 0.46399 0.49022 0.51938 0.0
H1512 H 0.54732 0.00944 0.58572 0.0
H1513 H 0.46664 0.96701 0.44729 0.0
H1514 H 0.57668 0.98247 0.51952 0.0
H1515 H 0.42672 0.96749 0.51989 0.0
H1516 H 0.50976 0.97889 0.4719 0.0
H1517 H 0.50522 0.99942 0.5607 0.0
C1518 C 0.54482 1.00126 0.56594 0.0
C1519 C 0.56554 0.9967 0.55474 0.0
C1520 C 0.49168 0.97673 0.48241 0.0
C1521 C 0.51747 0.9856 0.52574 0.0
C1522 C 0.46724 0.97029 0.46834 0.0
C1523 C 0.44329 0.96675 0.48154 0.0
C1524 C 0.49226 0.97986 0.50988 0.0
C1525 C 0.4449 0.9706 0.50891 0.0
C1526 C 0.52078 0.99555 0.55166 0.0
C1527 C 0.56112 0.98601 0.52903 0.0
N1528 N 0.46891 0.97696 0.52214 0.0
N1529 N 0.53771 0.98104 0.51533 0.0
H1530 H 0.07732 0.47403 0.52726 0.0
H1531 H 0.99996 0.56522 0.52613 0.0
H1532 H 0.03039 0.47857 0.46139 0.0
H1533 H 0.05729 0.57174 0.58751 0.0
H1534 H 0.00657 0.52934 0.50485 0.0
H1535 H 0.06521 0.50467 0.5524 0.0
C1536 C 0.06374 0.48081 0.51842 0.0
C1537 C 0.05436 0.47328 0.4924 0.0
C1538 C 0.01774 0.53856 0.52297 0.0
C1539 C 0.04102 0.509 0.52074 0.0
C1540 C 0.01418 0.55936 0.53512 0.0
C1541 C 0.0285 0.57219 0.55855 0.0
C1542 C 0.03565 0.53007 0.53424 0.0
C1543 C 0.04579 0.56264 0.56953 0.0
C1544 C 0.0571 0.49856 0.53264 0.0
C1545 C 0.03749 0.48329 0.48157 0.0
N1546 N 0.04899 0.54233 0.55723 0.0
N1547 N 0.0315 0.50068 0.49571 0.0
H1548 H 0.48087 0.47298 0.96201 0.0
H1549 H 0.56359 0.51995 0.09856 0.0
H1550 H 0.4612 0.41727 0.02867 0.0
H1551 H 0.60548 0.55536 0.02514 0.0
H1552 H 0.52091 0.48788 0.07409 0.0
H1553 H 0.52296 0.50801 0.98524 0.0
C1554 C 0.48536 0.46785 0.98133 0.0
C1555 C 0.46693 0.44192 0.99331 0.0
C1556 C 0.53931 0.50296 0.06334 0.0
C1557 C 0.51473 0.48263 1.0204 0.0
C1558 C 0.56349 0.52145 0.07731 0.0
C1559 C 0.58794 0.54044 0.06385 0.0
C1560 C 0.53942 0.50369 0.03569 0.0
C1561 C 0.58691 0.54126 0.03624 0.0
C1562 C 0.50931 0.48806 0.99467 0.0
C1563 C 0.47401 0.43704 1.0187 0.0
N1564 N 0.56307 0.52311 0.02304 0.0
N1565 N 0.49705 0.45721 0.03139 0.0
H1566 H 0.57933 0.0551 0.96385 0.0
H1567 H 0.47704 0.02482 0.08588 0.0
H1568 H 0.55479 0.98441 1.01569 0.0
H1569 H 0.47614 0.07129 1.01788 0.0
H1570 H 0.50751 0.01159 0.06212 0.0
H1571 H 0.54484 0.06445 0.98544 0.0
C1572 C 0.56682 0.04166 0.97985 0.0
C1573 C 0.56996 0.01889 0.9879 0.0
C1574 C 0.50028 0.02429 0.0522 0.0
C1575 C 0.53044 0.02949 1.01276 0.0
C1576 C 0.4826 0.03155 0.06566 0.0
C1577 C 0.47356 0.04869 0.05364 0.0
C1578 C 0.50964 0.03483 0.02672 0.0
C1579 C 0.48229 0.05767 0.02769 0.0
C1580 C 0.54697 0.04685 0.99202 0.0
C1581 C 0.55296 1.00204 1.00866 0.0
N1582 N 0.50009 0.05096 1.01523 0.0
N1583 N 0.53415 0.00777 1.02044 0.0
H1584 H 0.95995 0.52966 0.96192 0.0
H1585 H 0.98636 0.46284 0.09213 0.0
H1586 H 0.01538 0.57908 0.02479 0.0
H1587 H 0.94205 0.41374 0.02447 0.0
H1588 H 0.99793 0.50582 0.06741 0.0
H1589 H 0.95345 0.48708 0.98399 0.0
C1590 C 0.97086 0.53169 0.98025 0.0
C1591 C 0.98797 0.55825 0.99153 0.0
C1592 C 0.986 0.48569 0.05778 0.0
C1593 C 0.98041 0.50928 1.01713 0.0
C1594 C 0.97961 0.46123 0.07186 0.0
C1595 C 0.96357 0.43487 0.06017 0.0
C1596 C 0.97591 0.48374 0.03192 0.0
C1597 C 0.95478 0.43378 0.03402 0.0
C1598 C 0.96705 0.50728 0.99292 0.0
C1599 C 1.00136 0.55922 1.01552 0.0
N1600 N 0.96085 0.4578 1.02085 0.0
N1601 N 0.99719 0.53524 0.02748 0.0
loop_
_geom_bond_atom_site_label_1
_geom_bond_atom_site_label_2
_geom_bond_distance
_geom_bond_site_symmetry_2
_ccdc_geom_bond_type
C0 C1 1.446 1_655 S
C0 N4 1.376 1_655 S
C0 C38 1.389 . S
C1 C0 1.446 1_455 S
C1 C2 1.339 . S
C1 H41 0.950 1_455 S
C2 C1 1.339 . S
C2 C3 1.439 . S
C2 H42 0.950 . S
C3 C2 1.439 . S
C3 N4 1.374 . S
C3 C37 1.395 . S
N4 C0 1.376 1_455 S
N4 C3 1.374 . S
N4 Co5 2.008 . S
Co5 N4 2.008 . S
Co5 N6 1.995 . S
Co5 N11 2.008 . S
Co5 N16 1.995 1_455 S
Co5 N21 2.282 1_455 S
Co5 N27 2.282 . S
N6 Co5 1.995 . S
N6 C7 1.376 . S
N6 C10 1.383 . S
C7 N6 1.376 . S
C7 C8 1.446 . S
C7 C37 1.391 . S
C8 C7 1.446 . S
C8 C9 1.339 . S
C8 H43 0.949 . S
C9 C8 1.339 . S
C9 C10 1.439 . S
C9 H44 0.950 . S
C10 N6 1.383 . S
C10 C9 1.439 . S
C10 C39 1.392 . S
N11 Co5 2.008 . S
N11 C12 1.376 . S
N11 C15 1.374 . S
C12 N11 1.376 . S
C12 C13 1.443 . S
C12 C39 1.389 . S
C13 C12 1.443 . S
C13 C14 1.340 . S
C13 H45 0.951 . S
C14 C13 1.340 . S
C14 C15 1.439 . S
C14 H46 0.950 . S
C15 N11 1.374 . S
C15 C14 1.439 . S
C15 C40 1.395 . S
N16 Co5 1.995 1_655 S
N16 C17 1.376 . S
N16 C20 1.383 . S
C17 N16 1.376 . S
C17 C18 1.446 . S
C17 C40 1.383 1_655 S
C18 C17 1.446 . S
C18 C19 1.339 . S
C18 H47 0.949 . S
C19 C18 1.339 . S
C19 C20 1.439 . S
C19 H48 0.950 . S
C20 N16 1.383 . S
C20 C19 1.439 . S
C20 C38 1.392 . S
N21 Co5 2.282 1_655 S
N21 C24 1.332 . S
N21 C26 1.332 . S
C22 C23 1.386 . S
C22 C25 1.388 . S
C23 C22 1.386 . S
C23 C24 1.382 . S
C23 H49 0.950 . S
C24 N21 1.332 . S
C24 C23 1.382 . S
C24 H35 0.952 . S
C25 C22 1.388 . S
C25 C26 1.382 . S
C25 H50 0.950 . S
C26 N21 1.332 . S
C26 C25 1.382 . S
C26 H36 0.948 . S
N27 Co5 2.282 . S
N27 C31 1.332 . S
N27 C32 1.332 . S
C28 C29 1.388 . S
C28 C32 1.382 . S
C28 H51 0.950 . S
C29 C28 1.388 . S
C29 C30 1.386 . S
C30 C29 1.386 . S
C30 C31 1.382 . S
C30 H52 0.950 . S
C31 N27 1.332 . S
C31 C30 1.382 . S
C31 H33 0.952 . S
C32 N27 1.332 . S
C32 C28 1.382 . S
C32 H34 0.948 . S
H33 C31 0.952 . S
H34 C32 0.948 . S
H35 C24 0.952 . S
H36 C26 0.948 . S
C37 C3 1.395 . S
C37 C7 1.391 . S
C38 C0 1.389 . S
C38 C20 1.392 . S
C39 C10 1.392 . S
C39 C12 1.389 . S
C40 C15 1.395 . S
C40 C17 1.383 1_455 S
H41 C1 0.950 1_655 S
H42 C2 0.950 . S
H43 C8 0.949 . S
H44 C9 0.950 . S
H45 C13 0.951 . S
H46 C14 0.950 . S
H47 C18 0.949 . S
H48 C19 0.950 . S
H49 C23 0.950 . S
H50 C25 0.950 . S
H51 C28 0.950 . S
H52 C30 0.950 . S
C53 C54 1.443 . S
C53 N57 1.376 . S
C53 C91 1.389 . S
C54 C53 1.443 . S
C54 C55 1.340 . S
C54 H94 0.951 . S
C55 C54 1.340 . S
C55 C56 1.439 . S
C55 H95 0.950 . S
C56 C55 1.439 . S
C56 N57 1.374 . S
C56 C90 1.395 . S
N57 C53 1.376 . S
N57 C56 1.374 . S
N57 Co58 2.008 . S
Co58 N57 2.008 . S
Co58 N59 1.995 . S
Co58 N64 2.008 . S
Co58 N69 1.995 . S
Co58 N74 2.282 . S
Co58 N80 2.282 . S
N59 Co58 1.995 . S
N59 C60 1.376 . S
N59 C63 1.383 . S
C60 N59 1.376 . S
C60 C61 1.446 . S
C60 C90 1.391 . S
C61 C60 1.446 . S
C61 C62 1.339 . S
C61 H96 0.949 . S
C62 C61 1.339 . S
C62 C63 1.439 . S
C62 H97 0.950 . S
C63 N59 1.383 . S
C63 C62 1.439 . S
C63 C92 1.392 . S
N64 Co58 2.008 . S
N64 C65 1.376 . S
N64 C68 1.374 . S
C65 N64 1.376 . S
C65 C66 1.443 . S
C65 C92 1.389 . S
C66 C65 1.443 . S
C66 C67 1.340 . S
C66 H98 0.951 . S
C67 C66 1.340 . S
C67 C68 1.439 . S
C67 H99 0.950 . S
C68 N64 1.374 . S
C68 C67 1.439 . S
C68 C93 1.395 . S
N69 Co58 1.995 . S
N69 C70 1.376 . S
N69 C73 1.383 . S
C70 N69 1.376 . S
C70 C71 1.446 . S
C70 C93 1.391 . S
C71 C70 1.446 . S
C71 C72 1.339 . S
C71 H100 0.949 . S
C72 C71 1.339 . S
C72 C73 1.439 . S
C72 H101 0.950 . S
C73 N69 1.383 . S
C73 C72 1.439 . S
C73 C91 1.392 . S
N74 Co58 2.282 . S
N74 C77 1.332 . S
N74 C79 1.332 . S
C75 C76 1.386 . S
C75 C78 1.388 . S
C76 C75 1.386 . S
C76 C77 1.382 . S
C76 H102 0.950 . S
C77 N74 1.332 . S
C77 C76 1.382 . S
C77 H88 0.952 . S
C78 C75 1.388 . S
C78 C79 1.382 . S
C78 H103 0.950 . S
C79 N74 1.332 . S
C79 C78 1.382 . S
C79 H89 0.948 . S
N80 Co58 2.282 . S
N80 C84 1.332 . S
N80 C85 1.332 . S
C81 C82 1.388 . S
C81 C85 1.382 . S
C81 H104 0.950 . S
C82 C81 1.388 . S
C82 C83 1.386 . S
C83 C82 1.386 . S
C83 C84 1.382 . S
C83 H105 0.950 . S
C84 N80 1.332 . S
C84 C83 1.382 . S
C84 H86 0.952 . S
C85 N80 1.332 . S
C85 C81 1.382 . S
C85 H87 0.948 . S
H86 C84 0.952 . S
H87 C85 0.948 . S
H88 C77 0.952 . S
H89 C79 0.948 . S
C90 C56 1.395 . S
C90 C60 1.391 . S
C91 C53 1.389 . S
C91 C73 1.392 . S
C92 C63 1.392 . S
C92 C65 1.389 . S
C93 C68 1.395 . S
C93 C70 1.391 . S
H94 C54 0.951 . S
H95 C55 0.950 . S
H96 C61 0.949 . S
H97 C62 0.950 . S
H98 C66 0.951 . S
H99 C67 0.950 . S
H100 C71 0.949 . S
H101 C72 0.950 . S
H102 C76 0.950 . S
H103 C78 0.950 . S
H104 C81 0.950 . S
H105 C83 0.950 . S
C106 C107 1.446 1_565 S
C106 N110 1.376 1_565 S
C106 C144 1.389 . S
C107 C106 1.446 1_545 S
C107 C108 1.339 . S
C107 H147 0.950 1_545 S
C108 C107 1.339 . S
C108 C109 1.439 . S
C108 H148 0.950 . S
C109 C108 1.439 . S
C109 N110 1.374 . S
C109 C143 1.395 . S
N110 C106 1.376 1_545 S
N110 C109 1.374 . S
N110 Co111 2.008 . S
Co111 N110 2.008 . S
Co111 N112 1.995 . S
Co111 N117 2.008 . S
Co111 N122 1.995 1_545 S
Co111 N127 2.282 1_545 S
Co111 N133 2.282 . S
N112 Co111 1.995 . S
N112 C113 1.376 . S
N112 C116 1.383 . S
C113 N112 1.376 . S
C113 C114 1.446 . S
C113 C143 1.391 . S
C114 C113 1.446 . S
C114 C115 1.339 . S
C114 H149 0.949 . S
C115 C114 1.339 . S
C115 C116 1.439 . S
C115 H150 0.950 . S
C116 N112 1.383 . S
C116 C115 1.439 . S
C116 C145 1.392 . S
N117 Co111 2.008 . S
N117 C118 1.376 . S
N117 C121 1.374 . S
C118 N117 1.376 . S
C118 C119 1.443 . S
C118 C145 1.389 . S
C119 C118 1.443 . S
C119 C120 1.340 . S
C119 H151 0.951 . S
C120 C119 1.340 . S
C120 C121 1.439 . S
C120 H152 0.950 . S
C121 N117 1.374 . S
C121 C120 1.439 . S
C121 C146 1.395 . S
N122 Co111 1.995 1_565 S
N122 C123 1.376 . S
N122 C126 1.383 . S
C123 N122 1.376 . S
C123 C124 1.446 . S
C123 C146 1.383 1_565 S
C124 C123 1.446 . S
C124 C125 1.339 . S
C124 H153 0.949 . S
C125 C124 1.339 . S
C125 C126 1.439 . S
C125 H154 0.950 . S
C126 N122 1.383 . S
C126 C125 1.439 . S
C126 C144 1.392 . S
N127 Co111 2.282 1_565 S
N127 C130 1.332 . S
N127 C132 1.332 . S
C128 C129 1.386 . S
C128 C131 1.388 . S
C129 C128 1.386 . S
C129 C130 1.382 . S
C129 H155 0.950 . S
C130 N127 1.332 . S
C130 C129 1.382 . S
C130 H141 0.952 . S
C131 C128 1.388 . S
C131 C132 1.382 . S
C131 H156 0.950 . S
C132 N127 1.332 . S
C132 C131 1.382 . S
C132 H142 0.948 . S
N133 Co111 2.282 . S
N133 C137 1.332 . S
N133 C138 1.332 . S
C134 C135 1.388 . S
C134 C138 1.382 . S
C134 H157 0.950 . S
C135 C134 1.388 . S
C135 C136 1.386 . S
C136 C135 1.386 . S
C136 C137 1.382 . S
C136 H158 0.950 . S
C137 N133 1.332 . S
C137 C136 1.382 . S
C137 H139 0.952 . S
C138 N133 1.332 . S
C138 C134 1.382 . S
C138 H140 0.948 . S
H139 C137 0.952 . S
H140 C138 0.948 . S
H141 C130 0.952 . S
H142 C132 0.948 . S
C143 C109 1.395 . S
C143 C113 1.391 . S
C144 C106 1.389 . S
C144 C126 1.392 . S
C145 C116 1.392 . S
C145 C118 1.389 . S
C146 C121 1.395 . S
C146 C123 1.383 1_545 S
H147 C107 0.950 1_565 S
H148 C108 0.950 . S
H149 C114 0.949 . S
H150 C115 0.950 . S
H151 C119 0.951 . S
H152 C120 0.950 . S
H153 C124 0.949 . S
H154 C125 0.950 . S
H155 C129 0.950 . S
H156 C131 0.950 . S
H157 C134 0.950 . S
H158 C136 0.950 . S
C159 C160 1.443 . S
C159 N163 1.376 . S
C159 C197 1.389 . S
C160 C159 1.443 . S
C160 C161 1.340 . S
C160 H200 0.951 . S
C161 C160 1.340 . S
C161 C162 1.439 . S
C161 H201 0.950 . S
C162 C161 1.439 . S
C162 N163 1.374 . S
C162 C196 1.395 1_655 S
N163 C159 1.376 . S
N163 C162 1.374 . S
N163 Co164 2.008 1_655 S
Co164 N163 2.008 1_455 S
Co164 N165 1.995 . S
Co164 N170 2.008 . S
Co164 N175 1.995 1_455 S
Co164 N180 2.282 1_455 S
Co164 N186 2.282 . S
N165 Co164 1.995 . S
N165 C166 1.376 . S
N165 C169 1.383 . S
C166 N165 1.376 . S
C166 C167 1.446 . S
C166 C196 1.391 . S
C167 C166 1.446 . S
C167 C168 1.339 . S
C167 H202 0.949 . S
C168 C167 1.339 . S
C168 C169 1.439 . S
C168 H203 0.950 . S
C169 N165 1.383 . S
C169 C168 1.439 . S
C169 C198 1.392 . S
N170 Co164 2.008 . S
N170 C171 1.376 . S
N170 C174 1.374 . S
C171 N170 1.376 . S
C171 C172 1.443 . S
C171 C198 1.389 . S
C172 C171 1.443 . S
C172 C173 1.340 . S
C172 H204 0.951 . S
C173 C172 1.340 . S
C173 C174 1.439 . S
C173 H205 0.950 . S
C174 N170 1.374 . S
C174 C173 1.439 . S
C174 C199 1.395 . S
N175 Co164 1.995 1_655 S
N175 C176 1.376 . S
N175 C179 1.383 . S
C176 N175 1.376 . S
C176 C177 1.446 . S
C176 C199 1.391 1_655 S
C177 C176 1.446 . S
C177 C178 1.339 . S
C177 H206 0.949 . S
C178 C177 1.339 . S
C178 C179 1.439 . S
C178 H207 0.950 . S
C179 N175 1.383 . S
C179 C178 1.439 . S
C179 C197 1.392 . S
N180 Co164 2.282 1_655 S
N180 C183 1.332 . S
N180 C185 1.332 . S
C181 C182 1.386 . S
C181 C184 1.388 . S
C182 C181 1.386 . S
C182 C183 1.382 . S
C182 H208 0.950 . S
C183 N180 1.332 . S
C183 C182 1.382 . S
C183 H194 0.952 . S
C184 C181 1.388 . S
C184 C185 1.382 . S
C184 H209 0.950 . S
C185 N180 1.332 . S
C185 C184 1.382 . S
C185 H195 0.948 1_655 S
N186 Co164 2.282 . S
N186 C190 1.332 . S
N186 C191 1.332 . S
C187 C188 1.388 . S
C187 C191 1.382 . S
C187 H210 0.950 . S
C188 C187 1.388 . S
C188 C189 1.386 . S
C189 C188 1.386 . S
C189 C190 1.382 . S
C189 H211 0.950 . S
C190 N186 1.332 . S
C190 C189 1.382 . S
C190 H192 0.952 . S
C191 N186 1.332 . S
C191 C187 1.382 . S
C191 H193 0.948 . S
H192 C190 0.952 . S
H193 C191 0.948 . S
H194 C183 0.952 . S
H195 C185 0.948 1_455 S
C196 C162 1.395 1_455 S
C196 C166 1.391 . S
C197 C159 1.389 . S
C197 C179 1.392 . S
C198 C169 1.392 . S
C198 C171 1.389 . S
C199 C174 1.395 . S
C199 C176 1.391 1_455 S
H200 C160 0.951 . S
H201 C161 0.950 . S
H202 C167 0.949 . S
H203 C168 0.950 . S
H204 C172 0.951 . S
H205 C173 0.950 . S
H206 C177 0.949 . S
H207 C178 0.950 . S
H208 C182 0.950 . S
H209 C184 0.950 . S
H210 C187 0.950 . S
H211 C189 0.950 . S
C212 C213 1.443 . S
C212 N216 1.376 . S
C212 C250 1.389 . S
C213 C212 1.443 . S
C213 C214 1.340 . S
C213 H253 0.951 . S
C214 C213 1.340 . S
C214 C215 1.439 . S
C214 H254 0.950 . S
C215 C214 1.439 . S
C215 N216 1.374 . S
C215 C249 1.395 . S
N216 C212 1.376 . S
N216 C215 1.374 . S
N216 Co217 2.008 . S
Co217 N216 2.008 . S
Co217 N218 1.995 . S
Co217 N223 2.008 . S
Co217 N228 1.995 . S
Co217 N233 2.282 . S
Co217 N239 2.282 . S
N218 Co217 1.995 . S
N218 C219 1.376 . S
N218 C222 1.383 . S
C219 N218 1.376 . S
C219 C220 1.446 . S
C219 C249 1.391 . S
C220 C219 1.446 . S
C220 C221 1.339 . S
C220 H255 0.949 . S
C221 C220 1.339 . S
C221 C222 1.439 . S
C221 H256 0.950 . S
C222 N218 1.383 . S
C222 C221 1.439 . S
C222 C251 1.392 . S
N223 Co217 2.008 . S
N223 C224 1.376 . S
N223 C227 1.374 . S
C224 N223 1.376 . S
C224 C225 1.443 . S
C224 C251 1.389 . S
C225 C224 1.443 . S
C225 C226 1.340 . S
C225 H257 0.951 . S
C226 C225 1.340 . S
C226 C227 1.439 . S
C226 H258 0.950 . S
C227 N223 1.374 . S
C227 C226 1.439 . S
C227 C252 1.395 . S
N228 Co217 1.995 . S
N228 C229 1.376 . S
N228 C232 1.383 . S
C229 N228 1.376 . S
C229 C230 1.446 . S
C229 C252 1.391 . S
C230 C229 1.446 . S
C230 C231 1.339 . S
C230 H259 0.949 . S
C231 C230 1.339 . S
C231 C232 1.439 . S
C231 H260 0.950 . S
C232 N228 1.383 . S
C232 C231 1.439 . S
C232 C250 1.392 . S
N233 Co217 2.282 . S
N233 C236 1.332 . S
N233 C238 1.332 . S
C234 C235 1.386 . S
C234 C237 1.388 . S
C235 C234 1.386 . S
C235 C236 1.382 . S
C235 H261 0.950 . S
C236 N233 1.332 . S
C236 C235 1.382 . S
C236 H247 0.952 . S
C237 C234 1.388 . S
C237 C238 1.382 . S
C237 H262 0.950 . S
C238 N233 1.332 . S
C238 C237 1.382 . S
C238 H248 0.948 . S
N239 Co217 2.282 . S
N239 C243 1.332 . S
N239 C244 1.332 . S
C240 C241 1.388 . S
C240 C244 1.382 . S
C240 H263 0.950 . S
C241 C240 1.388 . S
C241 C242 1.386 . S
C242 C241 1.386 . S
C242 C243 1.382 . S
C242 H264 0.950 . S
C243 N239 1.332 . S
C243 C242 1.382 . S
C243 H245 0.952 . S
C244 N239 1.332 . S
C244 C240 1.382 . S
C244 H246 0.948 . S
H245 C243 0.952 . S
H246 C244 0.948 . S
H247 C236 0.952 . S
H248 C238 0.948 . S
C249 C215 1.395 . S
C249 C219 1.391 . S
C250 C212 1.389 . S
C250 C232 1.392 . S
C251 C222 1.392 . S
C251 C224 1.389 . S
C252 C227 1.395 . S
C252 C229 1.391 . S
H253 C213 0.951 . S
H254 C214 0.950 . S
H255 C220 0.949 . S
H256 C221 0.950 . S
H257 C225 0.951 . S
H258 C226 0.950 . S
H259 C230 0.949 . S
H260 C231 0.950 . S
H261 C235 0.950 . S
H262 C237 0.950 . S
H263 C240 0.950 . S
H264 C242 0.950 . S
C265 C266 1.443 . S
C265 N269 1.376 . S
C265 C303 1.389 . S
C266 C265 1.443 . S
C266 C267 1.340 . S
C266 H306 0.951 . S
C267 C266 1.340 . S
C267 C268 1.439 . S
C267 H307 0.950 . S
C268 C267 1.439 . S
C268 N269 1.374 . S
C268 C302 1.395 1_565 S
N269 C265 1.376 . S
N269 C268 1.374 . S
N269 Co270 2.008 1_565 S
Co270 N269 2.008 1_545 S
Co270 N271 1.995 . S
Co270 N276 2.008 . S
Co270 N281 1.995 1_545 S
Co270 N286 2.282 1_545 S
Co270 N292 2.282 . S
N271 Co270 1.995 . S
N271 C272 1.376 . S
N271 C275 1.383 . S
C272 N271 1.376 . S
C272 C273 1.446 . S
C272 C302 1.391 . S
C273 C272 1.446 . S
C273 C274 1.339 . S
C273 H308 0.949 . S
C274 C273 1.339 . S
C274 C275 1.439 . S
C274 H309 0.950 . S
C275 N271 1.383 . S
C275 C274 1.439 . S
C275 C304 1.392 . S
N276 Co270 2.008 . S
N276 C277 1.376 . S
N276 C280 1.374 . S
C277 N276 1.376 . S
C277 C278 1.443 . S
C277 C304 1.389 . S
C278 C277 1.443 . S
C278 C279 1.340 . S
C278 H310 0.951 . S
C279 C278 1.340 . S
C279 C280 1.439 . S
C279 H311 0.950 . S
C280 N276 1.374 . S
C280 C279 1.439 . S
C280 C305 1.395 . S
N281 Co270 1.995 1_565 S
N281 C282 1.376 . S
N281 C285 1.383 . S
C282 N281 1.376 . S
C282 C283 1.446 . S
C282 C305 1.391 1_565 S
C283 C282 1.446 . S
C283 C284 1.339 . S
C283 H312 0.949 . S
C284 C283 1.339 . S
C284 C285 1.439 . S
C284 H313 0.950 . S
C285 N281 1.383 . S
C285 C284 1.439 . S
C285 C303 1.392 . S
N286 Co270 2.282 1_565 S
N286 C289 1.332 . S
N286 C291 1.332 . S
C287 C288 1.386 . S
C287 C290 1.388 . S
C288 C287 1.386 . S
C288 C289 1.382 . S
C288 H314 0.950 . S
C289 N286 1.332 . S
C289 C288 1.382 . S
C289 H300 0.952 . S
C290 C287 1.388 . S
C290 C291 1.382 . S
C290 H315 0.950 . S
C291 N286 1.332 . S
C291 C290 1.382 . S
C291 H301 0.948 1_565 S
N292 Co270 2.282 . S
N292 C296 1.332 . S
N292 C297 1.332 . S
C293 C294 1.388 . S
C293 C297 1.382 . S
C293 H316 0.950 . S
C294 C293 1.388 . S
C294 C295 1.386 . S
C295 C294 1.386 . S
C295 C296 1.382 . S
C295 H317 0.950 . S
C296 N292 1.332 . S
C296 C295 1.382 . S
C296 H298 0.952 . S
C297 N292 1.332 . S
C297 C293 1.382 . S
C297 H299 0.948 . S
H298 C296 0.952 . S
H299 C297 0.948 . S
H300 C289 0.952 . S
H301 C291 0.948 1_545 S
C302 C268 1.395 1_545 S
C302 C272 1.391 . S
C303 C265 1.389 . S
C303 C285 1.392 . S
C304 C275 1.392 . S
C304 C277 1.389 . S
C305 C280 1.395 . S
C305 C282 1.391 1_545 S
H306 C266 0.951 . S
H307 C267 0.950 . S
H308 C273 0.949 . S
H309 C274 0.950 . S
H310 C278 0.951 . S
H311 C279 0.950 . S
H312 C283 0.949 . S
H313 C284 0.950 . S
H314 C288 0.950 . S
H315 C290 0.950 . S
H316 C293 0.950 . S
H317 C295 0.950 . S
C318 C319 1.443 . S
C318 N322 1.376 . S
C318 C356 1.389 . S
C319 C318 1.443 . S
C319 C320 1.340 . S
C319 H359 0.951 . S
C320 C319 1.340 . S
C320 C321 1.439 . S
C320 H360 0.950 . S
C321 C320 1.439 . S
C321 N322 1.374 . S
C321 C355 1.395 . S
N322 C318 1.376 . S
N322 C321 1.374 . S
N322 Co323 2.008 . S
Co323 N322 2.008 . S
Co323 N324 1.995 . S
Co323 N329 2.008 . S
Co323 N334 1.995 . S
Co323 N339 2.282 . S
Co323 N345 2.282 . S
N324 Co323 1.995 . S
N324 C325 1.376 . S
N324 C328 1.383 . S
C325 N324 1.376 . S
C325 C326 1.446 . S
C325 C355 1.391 . S
C326 C325 1.446 . S
C326 C327 1.339 . S
C326 H361 0.949 . S
C327 C326 1.339 . S
C327 C328 1.439 . S
C327 H362 0.950 . S
C328 N324 1.383 . S
C328 C327 1.439 . S
C328 C357 1.392 . S
N329 Co323 2.008 . S
N329 C330 1.376 . S
N329 C333 1.374 . S
C330 N329 1.376 . S
C330 C331 1.443 . S
C330 C357 1.389 . S
C331 C330 1.443 . S
C331 C332 1.340 1_545 S
C331 H363 0.951 . S
C332 C331 1.340 1_565 S
C332 C333 1.439 1_565 S
C332 H364 0.950 . S
C333 N329 1.374 . S
C333 C332 1.439 1_545 S
C333 C358 1.395 1_545 S
N334 Co323 1.995 . S
N334 C335 1.376 . S
N334 C338 1.383 . S
C335 N334 1.376 . S
C335 C336 1.446 1_545 S
C335 C358 1.391 1_545 S
C336 C335 1.446 1_565 S
C336 C337 1.339 1_565 S
C336 H365 0.949 . S
C337 C336 1.339 1_545 S
C337 C338 1.439 . S
C337 H366 0.950 . S
C338 N334 1.383 . S
C338 C337 1.439 . S
C338 C356 1.392 . S
N339 Co323 2.282 . S
N339 C342 1.332 . S
N339 C344 1.332 . S
C340 C341 1.386 1_545 S
C340 C343 1.388 . S
C341 C340 1.386 1_565 S
C341 C342 1.382 1_565 S
C341 H367 0.950 . S
C342 N339 1.332 . S
C342 C341 1.382 1_545 S
C342 H353 0.982 . S
C343 C340 1.388 . S
C343 C344 1.382 . S
C343 H368 0.950 . S
C344 N339 1.332 . S
C344 C343 1.382 . S
C344 H354 0.948 . S
N345 Co323 2.282 . S
N345 C349 1.332 . S
N345 C350 1.332 . S
C346 C347 1.388 . S
C346 C350 1.382 . S
C346 H369 0.950 . S
C347 C346 1.388 . S
C347 C348 1.386 . S
C348 C347 1.386 . S
C348 C349 1.382 . S
C348 H370 0.950 . S
C349 N345 1.332 . S
C349 C348 1.382 . S
C349 H351 0.952 . S
C350 N345 1.332 . S
C350 C346 1.382 . S
C350 H352 0.948 . S
H351 C349 0.952 . S
H352 C350 0.948 . S
H353 C342 0.982 . S
H354 C344 0.948 . S
C355 C321 1.395 . S
C355 C325 1.391 . S
C356 C318 1.389 . S
C356 C338 1.392 . S
C357 C328 1.392 . S
C357 C330 1.389 . S
C358 C333 1.395 1_565 S
C358 C335 1.391 1_565 S
H359 C319 0.951 . S
H360 C320 0.950 . S
H361 C326 0.949 . S
H362 C327 0.950 . S
H363 C331 0.951 . S
H364 C332 0.950 . S
H365 C336 0.949 . S
H366 C337 0.950 . S
H367 C341 0.950 . S
H368 C343 0.950 . S
H369 C346 0.950 . S
H370 C348 0.950 . S
C371 C372 1.443 . S
C371 N375 1.376 . S
C371 C409 1.389 . S
C372 C371 1.443 . S
C372 C373 1.340 . S
C372 H412 0.951 . S
C373 C372 1.340 . S
C373 C374 1.439 . S
C373 H413 0.950 . S
C374 C373 1.439 . S
C374 N375 1.374 . S
C374 C408 1.395 . S
N375 C371 1.376 . S
N375 C374 1.374 . S
N375 Co376 2.008 . S
Co376 N375 2.008 . S
Co376 N377 1.995 . S
Co376 N382 2.008 . S
Co376 N387 1.995 . S
Co376 N392 2.282 . S
Co376 N398 2.282 . S
N377 Co376 1.995 . S
N377 C378 1.376 . S
N377 C381 1.383 . S
C378 N377 1.376 . S
C378 C379 1.446 . S
C378 C408 1.391 . S
C379 C378 1.446 . S
C379 C380 1.339 . S
C379 H414 0.949 . S
C380 C379 1.339 . S
C380 C381 1.439 . S
C380 H415 0.950 . S
C381 N377 1.383 . S
C381 C380 1.439 . S
C381 C410 1.392 . S
N382 Co376 2.008 . S
N382 C383 1.376 . S
N382 C386 1.374 1_655 S
C383 N382 1.376 . S
C383 C384 1.443 1_655 S
C383 C410 1.389 . S
C384 C383 1.443 1_455 S
C384 C385 1.340 . S
C384 H416 0.951 . S
C385 C384 1.340 . S
C385 C386 1.439 . S
C385 H417 0.950 . S
C386 N382 1.374 1_455 S
C386 C385 1.439 . S
C386 C411 1.395 . S
N387 Co376 1.995 . S
N387 C388 1.393 . S
N387 C391 1.383 . S
C388 N387 1.393 . S
C388 C389 1.444 1_655 S
C388 C411 1.378 1_655 S
C389 C388 1.444 1_455 S
C389 C390 1.339 1_455 S
C389 H418 0.949 . S
C390 C389 1.339 1_655 S
C390 C391 1.439 . S
C390 H419 0.950 . S
C391 N387 1.383 . S
C391 C390 1.439 . S
C391 C409 1.392 . S
N392 Co376 2.282 . S
N392 C395 1.332 . S
N392 C397 1.332 . S
C393 C394 1.386 . S
C393 C396 1.388 . S
C394 C393 1.386 . S
C394 C395 1.382 . S
C394 H420 0.950 . S
C395 N392 1.332 . S
C395 C394 1.382 . S
C395 H406 0.952 . S
C396 C393 1.388 . S
C396 C397 1.382 . S
C396 H421 0.950 . S
C397 N392 1.332 . S
C397 C396 1.382 . S
C397 H407 0.948 . S
N398 Co376 2.282 . S
N398 C402 1.332 . S
N398 C403 1.332 1_655 S
C399 C400 1.388 . S
C399 C403 1.382 . S
C399 H422 0.950 . S
C400 C399 1.388 . S
C400 C401 1.386 1_455 S
C401 C400 1.386 1_655 S
C401 C402 1.382 . S
C401 H423 0.950 . S
C402 N398 1.332 . S
C402 C401 1.382 . S
C402 H404 0.952 . S
C403 N398 1.332 1_455 S
C403 C399 1.382 . S
C403 H405 0.948 . S
H404 C402 0.952 . S
H405 C403 0.948 . S
H406 C395 0.952 . S
H407 C397 0.948 . S
C408 C374 1.395 . S
C408 C378 1.391 . S
C409 C371 1.389 . S
C409 C391 1.392 . S
C410 C381 1.392 . S
C410 C383 1.389 . S
C411 C386 1.395 . S
C411 C388 1.378 1_455 S
H412 C372 0.951 . S
H413 C373 0.950 . S
H414 C379 0.949 . S
H415 C380 0.950 . S
H416 C384 0.951 . S
H417 C385 0.950 . S
H418 C389 0.949 . S
H419 C390 0.950 . S
H420 C394 0.950 . S
H421 C396 0.950 . S
H422 C399 0.950 . S
H423 C401 0.950 . S
C424 C425 1.443 . S
C424 N428 1.376 . S
C424 C462 1.389 . S
C425 C424 1.443 . S
C425 C426 1.340 . S
C425 H465 0.951 . S
C426 C425 1.340 . S
C426 C427 1.439 . S
C426 H466 0.950 . S
C427 C426 1.439 . S
C427 N428 1.374 . S
C427 C461 1.395 . S
N428 C424 1.376 . S
N428 C427 1.374 . S
N428 Co429 2.008 . S
Co429 N428 2.008 . S
Co429 N430 1.995 . S
Co429 N435 2.008 . S
Co429 N440 1.995 . S
Co429 N445 2.282 . S
Co429 N451 2.282 . S
N430 Co429 1.995 . S
N430 C431 1.376 . S
N430 C434 1.383 . S
C431 N430 1.376 . S
C431 C432 1.446 . S
C431 C461 1.391 . S
C432 C431 1.446 . S
C432 C433 1.339 . S
C432 H467 0.949 . S
C433 C432 1.339 . S
C433 C434 1.439 . S
C433 H468 0.950 . S
C434 N430 1.383 . S
C434 C433 1.439 . S
C434 C463 1.392 . S
N435 Co429 2.008 . S
N435 C436 1.376 . S
N435 C439 1.374 . S
C436 N435 1.376 . S
C436 C437 1.443 . S
C436 C463 1.389 . S
C437 C436 1.443 . S
C437 C438 1.340 . S
C437 H469 0.951 . S
C438 C437 1.340 . S
C438 C439 1.439 . S
C438 H470 0.950 . S
C439 N435 1.374 . S
C439 C438 1.439 . S
C439 C464 1.395 . S
N440 Co429 1.995 . S
N440 C441 1.376 . S
N440 C444 1.383 . S
C441 N440 1.376 . S
C441 C442 1.446 . S
C441 C464 1.391 . S
C442 C441 1.446 . S
C442 C443 1.339 . S
C442 H471 0.949 . S
C443 C442 1.339 . S
C443 C444 1.439 . S
C443 H472 0.950 . S
C444 N440 1.383 . S
C444 C443 1.439 . S
C444 C462 1.392 . S
N445 Co429 2.282 . S
N445 C448 1.332 . S
N445 C450 1.332 . S
C446 C447 1.386 . S
C446 C449 1.388 . S
C447 C446 1.386 . S
C447 C448 1.382 . S
C447 H473 0.950 . S
C448 N445 1.332 . S
C448 C447 1.382 . S
C448 H459 0.952 . S
C449 C446 1.388 . S
C449 C450 1.382 . S
C449 H474 0.950 . S
C450 N445 1.332 . S
C450 C449 1.382 . S
C450 H460 0.948 . S
N451 Co429 2.282 . S
N451 C455 1.332 . S
N451 C456 1.332 . S
C452 C453 1.388 . S
C452 C456 1.382 . S
C452 H475 0.950 . S
C453 C452 1.388 . S
C453 C454 1.386 . S
C454 C453 1.386 . S
C454 C455 1.382 . S
C454 H476 0.950 . S
C455 N451 1.332 . S
C455 C454 1.382 . S
C455 H457 0.952 . S
C456 N451 1.332 . S
C456 C452 1.382 . S
C456 H458 0.948 . S
H457 C455 0.952 . S
H458 C456 0.948 . S
H459 C448 0.952 . S
H460 C450 0.948 . S
C461 C427 1.395 . S
C461 C431 1.391 . S
C462 C424 1.389 . S
C462 C444 1.392 . S
C463 C434 1.392 . S
C463 C436 1.389 . S
C464 C439 1.395 . S
C464 C441 1.391 . S
H465 C425 0.951 . S
H466 C426 0.950 . S
H467 C432 0.949 . S
H468 C433 0.950 . S
H469 C437 0.951 . S
H470 C438 0.950 . S
H471 C442 0.949 . S
H472 C443 0.950 . S
H473 C447 0.950 . S
H474 C449 0.950 . S
H475 C452 0.950 . S
H476 C454 0.950 . S
C477 C478 1.443 . S
C477 N481 1.376 . S
C477 C515 1.389 . S
C478 C477 1.443 . S
C478 C479 1.340 . S
C478 H518 0.951 . S
C479 C478 1.340 . S
C479 C480 1.439 . S
C479 H519 0.950 . S
C480 C479 1.439 . S
C480 N481 1.374 . S
C480 C514 1.395 . S
N481 C477 1.376 . S
N481 C480 1.374 . S
N481 Co482 2.008 . S
Co482 N481 2.008 . S
Co482 N483 1.995 . S
Co482 N488 2.008 . S
Co482 N493 1.995 . S
Co482 N498 2.282 . S
Co482 N504 2.282 . S
N483 Co482 1.995 . S
N483 C484 1.376 . S
N483 C487 1.383 . S
C484 N483 1.376 . S
C484 C485 1.446 . S
C484 C514 1.391 . S
C485 C484 1.446 . S
C485 C486 1.339 . S
C485 H520 0.949 . S
C486 C485 1.339 . S
C486 C487 1.439 . S
C486 H521 0.950 . S
C487 N483 1.383 . S
C487 C486 1.439 . S
C487 C516 1.392 . S
N488 Co482 2.008 . S
N488 C489 1.376 . S
N488 C492 1.374 . S
C489 N488 1.376 . S
C489 C490 1.443 . S
C489 C516 1.389 . S
C490 C489 1.443 . S
C490 C491 1.340 . S
C490 H522 0.951 . S
C491 C490 1.340 . S
C491 C492 1.439 . S
C491 H523 0.950 . S
C492 N488 1.374 . S
C492 C491 1.439 . S
C492 C517 1.395 . S
N493 Co482 1.995 . S
N493 C494 1.376 . S
N493 C497 1.383 . S
C494 N493 1.376 . S
C494 C495 1.446 . S
C494 C517 1.391 . S
C495 C494 1.446 . S
C495 C496 1.339 . S
C495 H524 0.949 . S
C496 C495 1.339 . S
C496 C497 1.439 . S
C496 H525 0.950 . S
C497 N493 1.383 . S
C497 C496 1.439 . S
C497 C515 1.392 . S
N498 Co482 2.282 . S
N498 C501 1.332 . S
N498 C503 1.332 . S
C499 C500 1.386 1_556 S
C499 C502 1.388 1_556 S
C500 C499 1.386 1_554 S
C500 C501 1.382 . S
C500 H526 0.950 1_554 S
C501 N498 1.332 . S
C501 C500 1.382 . S
C501 H512 0.952 . S
C502 C499 1.388 1_554 S
C502 C503 1.382 . S
C502 H527 0.950 1_554 S
C503 N498 1.332 . S
C503 C502 1.382 . S
C503 H513 0.948 . S
N504 Co482 2.282 . S
N504 C508 1.332 . S
N504 C509 1.332 . S
C505 C506 1.388 . S
C505 C509 1.382 . S
C505 H528 0.950 . S
C506 C505 1.388 . S
C506 C507 1.386 . S
C507 C506 1.386 . S
C507 C508 1.382 . S
C507 H529 0.950 . S
C508 N504 1.332 . S
C508 C507 1.382 . S
C508 H510 0.952 . S
C509 N504 1.332 . S
C509 C505 1.382 . S
C509 H511 0.948 . S
H510 C508 0.952 . S
H511 C509 0.948 . S
H512 C501 0.952 . S
H513 C503 0.948 . S
C514 C480 1.395 . S
C514 C484 1.391 . S
C515 C477 1.389 . S
C515 C497 1.392 . S
C516 C487 1.392 . S
C516 C489 1.389 . S
C517 C492 1.395 . S
C517 C494 1.391 . S
H518 C478 0.951 . S
H519 C479 0.950 . S
H520 C485 0.949 . S
H521 C486 0.950 . S
H522 C490 0.951 . S
H523 C491 0.950 . S
H524 C495 0.949 . S
H525 C496 0.950 . S
H526 C500 0.950 1_556 S
H527 C502 0.950 1_556 S
H528 C505 0.950 . S
H529 C507 0.950 . S
C530 C531 1.443 . S
C530 N534 1.376 . S
C530 C568 1.389 . S
C531 C530 1.443 . S
C531 C532 1.340 . S
C531 H571 0.951 . S
C532 C531 1.340 . S
C532 C533 1.439 . S
C532 H572 0.950 . S
C533 C532 1.439 . S
C533 N534 1.374 . S
C533 C567 1.395 . S
N534 C530 1.376 . S
N534 C533 1.374 . S
N534 Co535 2.008 . S
Co535 N534 2.008 . S
Co535 N536 1.995 . S
Co535 N541 2.008 . S
Co535 N546 1.995 . S
Co535 N551 2.282 . S
Co535 N557 2.282 . S
N536 Co535 1.995 . S
N536 C537 1.376 . S
N536 C540 1.383 . S
C537 N536 1.376 . S
C537 C538 1.446 . S
C537 C567 1.391 . S
C538 C537 1.446 . S
C538 C539 1.339 . S
C538 H573 0.949 . S
C539 C538 1.339 . S
C539 C540 1.439 . S
C539 H574 0.950 . S
C540 N536 1.383 . S
C540 C539 1.439 . S
C540 C569 1.392 . S
N541 Co535 2.008 . S
N541 C542 1.376 . S
N541 C545 1.374 . S
C542 N541 1.376 . S
C542 C543 1.443 . S
C542 C569 1.389 . S
C543 C542 1.443 . S
C543 C544 1.340 . S
C543 H575 0.951 1_545 S
C544 C543 1.340 . S
C544 C545 1.439 . S
C544 H576 0.950 1_545 S
C545 N541 1.374 . S
C545 C544 1.439 . S
C545 C570 1.395 . S
N546 Co535 1.995 . S
N546 C547 1.376 . S
N546 C550 1.383 . S
C547 N546 1.376 . S
C547 C548 1.446 . S
C547 C570 1.391 . S
C548 C547 1.446 . S
C548 C549 1.339 . S
C548 H577 0.949 . S
C549 C548 1.339 . S
C549 C550 1.439 . S
C549 H578 0.950 . S
C550 N546 1.383 . S
C550 C549 1.439 . S
C550 C568 1.392 . S
N551 Co535 2.282 . S
N551 C554 1.332 . S
N551 C556 1.332 . S
C552 C553 1.386 1_556 S
C552 C555 1.388 1_556 S
C553 C552 1.386 1_554 S
C553 C554 1.382 . S
C553 H579 0.950 1_554 S
C554 N551 1.332 . S
C554 C553 1.382 . S
C554 H565 0.952 . S
C555 C552 1.388 1_554 S
C555 C556 1.382 . S
C555 H580 0.950 1_554 S
C556 N551 1.332 . S
C556 C555 1.382 . S
C556 H566 0.948 . S
N557 Co535 2.282 . S
N557 C561 1.332 . S
N557 C562 1.332 . S
C558 C559 1.388 . S
C558 C562 1.382 . S
C558 H581 0.950 . S
C559 C558 1.388 . S
C559 C560 1.386 . S
C560 C559 1.386 . S
C560 C561 1.382 . S
C560 H582 0.950 . S
C561 N557 1.332 . S
C561 C560 1.382 . S
C561 H563 0.952 . S
C562 N557 1.332 . S
C562 C558 1.382 . S
C562 H564 0.948 . S
H563 C561 0.952 . S
H564 C562 0.948 . S
H565 C554 0.952 . S
H566 C556 0.948 . S
C567 C533 1.395 . S
C567 C537 1.391 . S
C568 C530 1.389 . S
C568 C550 1.392 . S
C569 C540 1.392 . S
C569 C542 1.389 . S
C570 C545 1.395 . S
C570 C547 1.391 . S
H571 C531 0.951 . S
H572 C532 0.950 . S
H573 C538 0.949 . S
H574 C539 0.950 . S
H575 C543 0.951 1_565 S
H576 C544 0.950 1_565 S
H577 C548 0.949 . S
H578 C549 0.950 . S
H579 C553 0.950 1_556 S
H580 C555 0.950 1_556 S
H581 C558 0.950 . S
H582 C560 0.950 . S
C583 C584 1.443 . S
C583 N587 1.376 . S
C583 C621 1.389 . S
C584 C583 1.443 . S
C584 C585 1.340 . S
C584 H624 0.951 . S
C585 C584 1.340 . S
C585 C586 1.439 . S
C585 H625 0.950 . S
C586 C585 1.439 . S
C586 N587 1.374 . S
C586 C620 1.395 . S
N587 C583 1.376 . S
N587 C586 1.374 . S
N587 Co588 2.008 . S
Co588 N587 2.008 . S
Co588 N589 1.995 . S
Co588 N594 2.008 . S
Co588 N599 1.995 . S
Co588 N604 2.282 . S
Co588 N610 2.282 . S
N589 Co588 1.995 . S
N589 C590 1.376 . S
N589 C593 1.383 . S
C590 N589 1.376 . S
C590 C591 1.446 . S
C590 C620 1.391 . S
C591 C590 1.446 . S
C591 C592 1.339 . S
C591 H626 0.949 . S
C592 C591 1.339 . S
C592 C593 1.439 . S
C592 H627 0.950 . S
C593 N589 1.383 . S
C593 C592 1.439 . S
C593 C622 1.392 . S
N594 Co588 2.008 . S
N594 C595 1.376 . S
N594 C598 1.374 . S
C595 N594 1.376 . S
C595 C596 1.443 1_655 S
C595 C622 1.389 . S
C596 C595 1.443 1_455 S
C596 C597 1.340 . S
C596 H628 0.951 . S
C597 C596 1.340 . S
C597 C598 1.439 1_455 S
C597 H629 0.950 . S
C598 N594 1.374 . S
C598 C597 1.439 1_655 S
C598 C623 1.395 . S
N599 Co588 1.995 . S
N599 C600 1.376 . S
N599 C603 1.383 . S
C600 N599 1.376 . S
C600 C601 1.446 . S
C600 C623 1.391 . S
C601 C600 1.446 . S
C601 C602 1.339 . S
C601 H630 0.949 . S
C602 C601 1.339 . S
C602 C603 1.439 . S
C602 H631 0.950 . S
C603 N599 1.383 . S
C603 C602 1.439 . S
C603 C621 1.392 . S
N604 Co588 2.282 . S
N604 C607 1.332 . S
N604 C609 1.332 . S
C605 C606 1.386 1_556 S
C605 C608 1.388 1_556 S
C606 C605 1.386 1_554 S
C606 C607 1.382 . S
C606 H632 0.950 1_554 S
C607 N604 1.332 . S
C607 C606 1.382 . S
C607 H618 0.952 . S
C608 C605 1.388 1_554 S
C608 C609 1.382 . S
C608 H633 0.950 1_554 S
C609 N604 1.332 . S
C609 C608 1.382 . S
C609 H619 0.948 . S
N610 Co588 2.282 . S
N610 C614 1.332 . S
N610 C615 1.332 . S
C611 C612 1.388 . S
C611 C615 1.382 . S
C611 H634 0.950 . S
C612 C611 1.388 . S
C612 C613 1.386 . S
C613 C612 1.386 . S
C613 C614 1.382 . S
C613 H635 0.950 . S
C614 N610 1.332 . S
C614 C613 1.382 . S
C614 H616 0.952 . S
C615 N610 1.332 . S
C615 C611 1.382 . S
C615 H617 0.948 . S
H616 C614 0.952 . S
H617 C615 0.948 . S
H618 C607 0.952 . S
H619 C609 0.948 . S
C620 C586 1.395 . S
C620 C590 1.391 . S
C621 C583 1.389 . S
C621 C603 1.392 . S
C622 C593 1.392 . S
C622 C595 1.389 . S
C623 C598 1.395 . S
C623 C600 1.391 . S
H624 C584 0.951 . S
H625 C585 0.950 . S
H626 C591 0.949 . S
H627 C592 0.950 . S
H628 C596 0.951 . S
H629 C597 0.950 . S
H630 C601 0.949 . S
H631 C602 0.950 . S
H632 C606 0.950 1_556 S
H633 C608 0.950 1_556 S
H634 C611 0.950 . S
H635 C613 0.950 . S
C636 C637 1.443 . S
C636 N640 1.376 . S
C636 C674 1.389 . S
C637 C636 1.443 . S
C637 C638 1.340 . S
C637 H677 0.951 . S
C638 C637 1.340 . S
C638 C639 1.439 . S
C638 H678 0.950 . S
C639 C638 1.439 . S
C639 N640 1.374 . S
C639 C673 1.395 . S
N640 C636 1.376 . S
N640 C639 1.374 . S
N640 Co641 2.008 . S
Co641 N640 2.008 . S
Co641 N642 1.995 . S
Co641 N647 2.008 . S
Co641 N652 1.995 . S
Co641 N657 2.282 . S
Co641 N663 2.282 . S
N642 Co641 1.995 . S
N642 C643 1.376 . S
N642 C646 1.383 . S
C643 N642 1.376 . S
C643 C644 1.446 . S
C643 C673 1.391 . S
C644 C643 1.446 . S
C644 C645 1.339 . S
C644 H679 0.949 . S
C645 C644 1.339 . S
C645 C646 1.439 . S
C645 H680 0.950 . S
C646 N642 1.383 . S
C646 C645 1.439 . S
C646 C675 1.392 . S
N647 Co641 2.008 . S
N647 C648 1.376 . S
N647 C651 1.374 . S
C648 N647 1.376 . S
C648 C649 1.443 . S
C648 C675 1.389 . S
C649 C648 1.443 . S
C649 C650 1.340 . S
C649 H681 0.951 . S
C650 C649 1.340 . S
C650 C651 1.439 . S
C650 H682 0.950 . S
C651 N647 1.374 . S
C651 C650 1.439 . S
C651 C676 1.395 . S
N652 Co641 1.995 . S
N652 C653 1.376 . S
N652 C656 1.383 . S
C653 N652 1.376 . S
C653 C654 1.446 . S
C653 C676 1.391 . S
C654 C653 1.446 . S
C654 C655 1.339 . S
C654 H683 0.949 . S
C655 C654 1.339 . S
C655 C656 1.439 . S
C655 H684 0.950 . S
C656 N652 1.383 . S
C656 C655 1.439 . S
C656 C674 1.392 . S
N657 Co641 2.282 . S
N657 C660 1.332 . S
N657 C662 1.332 . S
C658 C659 1.386 . S
C658 C661 1.388 . S
C659 C658 1.386 . S
C659 C660 1.382 . S
C659 H685 0.950 . S
C660 N657 1.332 . S
C660 C659 1.382 . S
C660 H671 0.952 . S
C661 C658 1.388 . S
C661 C662 1.382 . S
C661 H686 0.950 . S
C662 N657 1.332 . S
C662 C661 1.382 . S
C662 H672 0.948 . S
N663 Co641 2.282 . S
N663 C667 1.332 . S
N663 C668 1.332 . S
C664 C665 1.388 . S
C664 C668 1.382 . S
C664 H687 0.950 . S
C665 C664 1.388 . S
C665 C666 1.386 . S
C666 C665 1.386 . S
C666 C667 1.382 . S
C666 H688 0.950 . S
C667 N663 1.332 . S
C667 C666 1.382 . S
C667 H669 0.952 . S
C668 N663 1.332 . S
C668 C664 1.382 . S
C668 H670 0.948 . S
H669 C667 0.952 . S
H670 C668 0.948 . S
H671 C660 0.952 . S
H672 C662 0.948 . S
C673 C639 1.395 . S
C673 C643 1.391 . S
C674 C636 1.389 . S
C674 C656 1.392 . S
C675 C646 1.392 . S
C675 C648 1.389 . S
C676 C651 1.395 . S
C676 C653 1.391 . S
H677 C637 0.951 . S
H678 C638 0.950 . S
H679 C644 0.949 . S
H680 C645 0.950 . S
H681 C649 0.951 . S
H682 C650 0.950 . S
H683 C654 0.949 . S
H684 C655 0.950 . S
H685 C659 0.950 . S
H686 C661 0.950 . S
H687 C664 0.950 . S
H688 C666 0.950 . S
C689 C690 1.443 . S
C689 N693 1.376 . S
C689 C727 1.389 . S
C690 C689 1.443 . S
C690 C691 1.340 . S
C690 H730 0.951 . S
C691 C690 1.340 . S
C691 C692 1.439 . S
C691 H731 0.950 . S
C692 C691 1.439 . S
C692 N693 1.374 . S
C692 C726 1.395 . S
N693 C689 1.376 . S
N693 C692 1.374 . S
N693 Co694 2.008 . S
Co694 N693 2.008 . S
Co694 N695 1.995 . S
Co694 N700 2.008 . S
Co694 N705 1.995 . S
Co694 N710 2.282 . S
Co694 N716 2.282 . S
N695 Co694 1.995 . S
N695 C696 1.376 . S
N695 C699 1.383 . S
C696 N695 1.376 . S
C696 C697 1.446 . S
C696 C726 1.391 . S
C697 C696 1.446 . S
C697 C698 1.339 . S
C697 H732 0.949 . S
C698 C697 1.339 . S
C698 C699 1.439 . S
C698 H733 0.950 . S
C699 N695 1.383 . S
C699 C698 1.439 . S
C699 C728 1.392 . S
N700 Co694 2.008 . S
N700 C701 1.376 . S
N700 C704 1.374 1_565 S
C701 N700 1.376 . S
C701 C702 1.443 . S
C701 C728 1.389 . S
C702 C701 1.443 . S
C702 C703 1.340 1_565 S
C702 H734 0.951 . S
C703 C702 1.340 1_545 S
C703 C704 1.439 . S
C703 H735 0.950 . S
C704 N700 1.374 1_545 S
C704 C703 1.439 . S
C704 C729 1.395 . S
N705 Co694 1.995 . S
N705 C706 1.376 1_565 S
N705 C709 1.383 . S
C706 N705 1.376 1_545 S
C706 C707 1.446 . S
C706 C729 1.391 . S
C707 C706 1.446 . S
C707 C708 1.339 . S
C707 H736 0.949 . S
C708 C707 1.339 . S
C708 C709 1.439 1_545 S
C708 H737 0.950 . S
C709 N705 1.383 . S
C709 C708 1.439 1_565 S
C709 C727 1.392 . S
N710 Co694 2.282 . S
N710 C713 1.332 1_565 S
N710 C715 1.332 . S
C711 C712 1.386 . S
C711 C714 1.388 1_545 S
C712 C711 1.386 . S
C712 C713 1.382 . S
C712 H738 0.950 . S
C713 N710 1.332 1_545 S
C713 C712 1.382 . S
C713 H724 0.952 . S
C714 C711 1.388 1_565 S
C714 C715 1.382 . S
C714 H739 0.950 . S
C715 N710 1.332 . S
C715 C714 1.382 . S
C715 H725 0.948 . S
N716 Co694 2.282 . S
N716 C720 1.332 . S
N716 C721 1.332 . S
C717 C718 1.388 . S
C717 C721 1.382 . S
C717 H740 0.950 . S
C718 C717 1.388 . S
C718 C719 1.386 . S
C719 C718 1.386 . S
C719 C720 1.382 . S
C719 H741 0.950 . S
C720 N716 1.332 . S
C720 C719 1.382 . S
C720 H722 0.952 . S
C721 N716 1.332 . S
C721 C717 1.382 . S
C721 H723 0.948 . S
H722 C720 0.952 . S
H723 C721 0.948 . S
H724 C713 0.952 . S
H725 C715 0.948 . S
C726 C692 1.395 . S
C726 C696 1.391 . S
C727 C689 1.389 . S
C727 C709 1.392 . S
C728 C699 1.392 . S
C728 C701 1.389 . S
C729 C704 1.395 . S
C729 C706 1.391 . S
H730 C690 0.951 . S
H731 C691 0.950 . S
H732 C697 0.949 . S
H733 C698 0.950 . S
H734 C702 0.951 . S
H735 C703 0.950 . S
H736 C707 0.949 . S
H737 C708 0.950 . S
H738 C712 0.950 . S
H739 C714 0.950 . S
H740 C717 0.950 . S
H741 C719 0.950 . S
C742 C743 1.443 . S
C742 N746 1.376 . S
C742 C780 1.389 . S
C743 C742 1.443 . S
C743 C744 1.340 . S
C743 H783 0.951 . S
C744 C743 1.340 . S
C744 C745 1.439 . S
C744 H784 0.950 . S
C745 C744 1.439 . S
C745 N746 1.374 . S
C745 C779 1.395 . S
N746 C742 1.376 . S
N746 C745 1.374 . S
N746 Co747 2.008 . S
Co747 N746 2.008 . S
Co747 N748 1.995 . S
Co747 N753 2.008 . S
Co747 N758 1.995 . S
Co747 N763 2.282 . S
Co747 N769 2.282 . S
N748 Co747 1.995 . S
N748 C749 1.376 . S
N748 C752 1.383 . S
C749 N748 1.376 . S
C749 C750 1.446 . S
C749 C779 1.391 . S
C750 C749 1.446 . S
C750 C751 1.339 . S
C750 H785 0.949 . S
C751 C750 1.339 . S
C751 C752 1.439 . S
C751 H786 0.950 . S
C752 N748 1.383 . S
C752 C751 1.439 . S
C752 C781 1.392 . S
N753 Co747 2.008 . S
N753 C754 1.376 . S
N753 C757 1.374 . S
C754 N753 1.376 . S
C754 C755 1.443 . S
C754 C781 1.389 . S
C755 C754 1.443 . S
C755 C756 1.340 1_455 S
C755 H787 0.951 . S
C756 C755 1.340 1_655 S
C756 C757 1.439 1_655 S
C756 H788 0.950 . S
C757 N753 1.374 . S
C757 C756 1.439 1_455 S
C757 C782 1.395 1_455 S
N758 Co747 1.995 . S
N758 C759 1.376 . S
N758 C762 1.383 . S
C759 N758 1.376 . S
C759 C760 1.446 1_455 S
C759 C782 1.391 1_455 S
C760 C759 1.446 1_655 S
C760 C761 1.339 1_655 S
C760 H789 0.949 . S
C761 C760 1.339 1_455 S
C761 C762 1.439 . S
C761 H790 0.950 . S
C762 N758 1.383 . S
C762 C761 1.439 . S
C762 C780 1.392 . S
N763 Co747 2.282 . S
N763 C766 1.332 . S
N763 C768 1.332 . S
C764 C765 1.386 1_455 S
C764 C767 1.388 . S
C765 C764 1.386 1_655 S
C765 C766 1.382 1_655 S
C765 H791 0.950 . S
C766 N763 1.332 . S
C766 C765 1.382 1_455 S
C766 H777 0.982 . S
C767 C764 1.388 . S
C767 C768 1.382 . S
C767 H792 0.950 . S
C768 N763 1.332 . S
C768 C767 1.382 . S
C768 H778 0.948 . S
N769 Co747 2.282 . S
N769 C773 1.332 . S
N769 C774 1.332 . S
C770 C771 1.388 . S
C770 C774 1.382 . S
C770 H793 0.950 . S
C771 C770 1.388 . S
C771 C772 1.386 . S
C772 C771 1.386 . S
C772 C773 1.382 . S
C772 H794 0.950 . S
C773 N769 1.332 . S
C773 C772 1.382 . S
C773 H775 0.952 . S
C774 N769 1.332 . S
C774 C770 1.382 . S
C774 H776 0.948 . S
H775 C773 0.952 . S
H776 C774 0.948 . S
H777 C766 0.982 . S
H778 C768 0.948 . S
C779 C745 1.395 . S
C779 C749 1.391 . S
C780 C742 1.389 . S
C780 C762 1.392 . S
C781 C752 1.392 . S
C781 C754 1.389 . S
C782 C757 1.395 1_655 S
C782 C759 1.391 1_655 S
H783 C743 0.951 . S
H784 C744 0.950 . S
H785 C750 0.949 . S
H786 C751 0.950 . S
H787 C755 0.951 . S
H788 C756 0.950 . S
H789 C760 0.949 . S
H790 C761 0.950 . S
H791 C765 0.950 . S
H792 C767 0.950 . S
H793 C770 0.950 . S
H794 C772 0.950 . S
C795 C796 1.443 . S
C795 N799 1.376 . S
C795 C833 1.389 . S
C796 C795 1.443 . S
C796 C797 1.340 . S
C796 H836 0.951 . S
C797 C796 1.340 . S
C797 C798 1.439 . S
C797 H837 0.950 . S
C798 C797 1.439 . S
C798 N799 1.374 . S
C798 C832 1.395 . S
N799 C795 1.376 . S
N799 C798 1.374 . S
N799 Co800 2.008 . S
Co800 N799 2.008 . S
Co800 N801 1.995 . S
Co800 N806 2.008 . S
Co800 N811 1.995 . S
Co800 N816 2.282 . S
Co800 N822 2.282 . S
N801 Co800 1.995 . S
N801 C802 1.376 . S
N801 C805 1.383 . S
C802 N801 1.376 . S
C802 C803 1.446 . S
C802 C832 1.391 . S
C803 C802 1.446 . S
C803 C804 1.339 . S
C803 H838 0.949 . S
C804 C803 1.339 . S
C804 C805 1.439 . S
C804 H839 0.950 . S
C805 N801 1.383 . S
C805 C804 1.439 . S
C805 C834 1.392 . S
N806 Co800 2.008 . S
N806 C807 1.376 . S
N806 C810 1.374 . S
C807 N806 1.376 . S
C807 C808 1.443 1_565 S
C807 C834 1.389 . S
C808 C807 1.443 1_545 S
C808 C809 1.340 . S
C808 H840 0.951 . S
C809 C808 1.340 . S
C809 C810 1.439 1_545 S
C809 H841 0.950 . S
C810 N806 1.374 . S
C810 C809 1.439 1_565 S
C810 C835 1.395 . S
N811 Co800 1.995 . S
N811 C812 1.376 . S
N811 C815 1.383 . S
C812 N811 1.376 . S
C812 C813 1.446 . S
C812 C835 1.391 . S
C813 C812 1.446 . S
C813 C814 1.339 . S
C813 H842 0.949 . S
C814 C813 1.339 . S
C814 C815 1.439 . S
C814 H843 0.950 . S
C815 N811 1.383 . S
C815 C814 1.439 . S
C815 C833 1.392 . S
N816 Co800 2.282 . S
N816 C819 1.332 . S
N816 C821 1.332 . S
C817 C818 1.386 . S
C817 C820 1.388 . S
C818 C817 1.386 . S
C818 C819 1.382 . S
C818 H844 0.950 . S
C819 N816 1.332 . S
C819 C818 1.382 . S
C819 H830 0.952 . S
C820 C817 1.388 . S
C820 C821 1.382 . S
C820 H845 0.950 . S
C821 N816 1.332 . S
C821 C820 1.382 . S
C821 H831 0.948 . S
N822 Co800 2.282 . S
N822 C826 1.332 . S
N822 C827 1.332 . S
C823 C824 1.388 . S
C823 C827 1.382 . S
C823 H846 0.950 . S
C824 C823 1.388 . S
C824 C825 1.386 . S
C825 C824 1.386 . S
C825 C826 1.382 . S
C825 H847 0.950 . S
C826 N822 1.332 . S
C826 C825 1.382 . S
C826 H828 0.952 . S
C827 N822 1.332 . S
C827 C823 1.382 . S
C827 H829 0.948 . S
H828 C826 0.952 . S
H829 C827 0.948 . S
H830 C819 0.952 . S
H831 C821 0.948 . S
C832 C798 1.395 . S
C832 C802 1.391 . S
C833 C795 1.389 . S
C833 C815 1.392 . S
C834 C805 1.392 . S
C834 C807 1.389 . S
C835 C810 1.395 . S
C835 C812 1.391 . S
H836 C796 0.951 . S
H837 C797 0.950 . S
H838 C803 0.949 . S
H839 C804 0.950 . S
H840 C808 0.951 . S
H841 C809 0.950 . S
H842 C813 0.949 . S
H843 C814 0.950 . S
H844 C818 0.950 . S
H845 C820 0.950 . S
H846 C823 0.950 . S
H847 C825 0.950 . S
C848 C849 1.443 . S
C848 N852 1.376 . S
C848 C886 1.389 . S
C849 C848 1.443 . S
C849 C850 1.340 . S
C849 H889 0.951 . S
C850 C849 1.340 . S
C850 C851 1.439 . S
C850 H890 0.950 . S
C851 C850 1.439 . S
C851 N852 1.374 . S
C851 C885 1.395 . S
N852 C848 1.376 . S
N852 C851 1.374 . S
N852 Co853 2.008 . S
Co853 N852 2.008 . S
Co853 N854 1.995 . S
Co853 N859 2.008 . S
Co853 N864 1.995 . S
Co853 N869 2.282 . S
Co853 N875 2.282 . S
N854 Co853 1.995 . S
N854 C855 1.376 . S
N854 C858 1.383 . S
C855 N854 1.376 . S
C855 C856 1.446 . S
C855 C885 1.391 . S
C856 C855 1.446 . S
C856 C857 1.339 . S
C856 H891 0.949 . S
C857 C856 1.339 . S
C857 C858 1.439 . S
C857 H892 0.950 . S
C858 N854 1.383 . S
C858 C857 1.439 . S
C858 C887 1.392 . S
N859 Co853 2.008 . S
N859 C860 1.376 . S
N859 C863 1.374 . S
C860 N859 1.376 . S
C860 C861 1.443 . S
C860 C887 1.389 . S
C861 C860 1.443 . S
C861 C862 1.340 . S
C861 H893 0.951 1_455 S
C862 C861 1.340 . S
C862 C863 1.439 . S
C862 H894 0.950 1_455 S
C863 N859 1.374 . S
C863 C862 1.439 . S
C863 C888 1.395 . S
N864 Co853 1.995 . S
N864 C865 1.376 . S
N864 C868 1.383 . S
C865 N864 1.376 . S
C865 C866 1.446 . S
C865 C888 1.391 . S
C866 C865 1.446 . S
C866 C867 1.339 . S
C866 H895 0.949 . S
C867 C866 1.339 . S
C867 C868 1.439 . S
C867 H896 0.950 . S
C868 N864 1.383 . S
C868 C867 1.439 . S
C868 C886 1.392 . S
N869 Co853 2.282 . S
N869 C872 1.332 . S
N869 C874 1.332 . S
C870 C871 1.386 . S
C870 C873 1.388 . S
C871 C870 1.386 . S
C871 C872 1.382 . S
C871 H897 0.950 . S
C872 N869 1.332 . S
C872 C871 1.382 . S
C872 H883 0.952 . S
C873 C870 1.388 . S
C873 C874 1.382 . S
C873 H898 0.950 . S
C874 N869 1.332 . S
C874 C873 1.382 . S
C874 H884 0.948 . S
N875 Co853 2.282 . S
N875 C879 1.332 . S
N875 C880 1.332 . S
C876 C877 1.388 . S
C876 C880 1.382 . S
C876 H899 0.950 . S
C877 C876 1.388 . S
C877 C878 1.386 . S
C878 C877 1.386 . S
C878 C879 1.382 . S
C878 H900 0.950 . S
C879 N875 1.332 . S
C879 C878 1.382 . S
C879 H881 0.952 . S
C880 N875 1.332 . S
C880 C876 1.382 . S
C880 H882 0.948 . S
H881 C879 0.952 . S
H882 C880 0.948 . S
H883 C872 0.952 . S
H884 C874 0.948 . S
C885 C851 1.395 . S
C885 C855 1.391 . S
C886 C848 1.389 . S
C886 C868 1.392 . S
C887 C858 1.392 . S
C887 C860 1.389 . S
C888 C863 1.395 . S
C888 C865 1.391 . S
H889 C849 0.951 . S
H890 C850 0.950 . S
H891 C856 0.949 . S
H892 C857 0.950 . S
H893 C861 0.951 1_655 S
H894 C862 0.950 1_655 S
H895 C866 0.949 . S
H896 C867 0.950 . S
H897 C871 0.950 . S
H898 C873 0.950 . S
H899 C876 0.950 . S
H900 C878 0.950 . S
C901 C902 1.443 . S
C901 N905 1.376 . S
C901 C939 1.389 . S
C902 C901 1.443 . S
C902 C903 1.340 . S
C902 H942 0.951 . S
C903 C902 1.340 . S
C903 C904 1.439 . S
C903 H943 0.950 . S
C904 C903 1.439 . S
C904 N905 1.374 . S
C904 C938 1.395 . S
N905 C901 1.376 . S
N905 C904 1.374 . S
N905 Co906 2.008 . S
Co906 N905 2.008 . S
Co906 N907 1.995 . S
Co906 N912 2.008 . S
Co906 N917 1.995 . S
Co906 N922 2.282 . S
Co906 N928 2.282 . S
N907 Co906 1.995 . S
N907 C908 1.376 . S
N907 C911 1.383 . S
C908 N907 1.376 . S
C908 C909 1.446 . S
C908 C938 1.391 . S
C909 C908 1.446 . S
C909 C910 1.339 . S
C909 H944 0.949 . S
C910 C909 1.339 . S
C910 C911 1.439 . S
C910 H945 0.950 . S
C911 N907 1.383 . S
C911 C910 1.439 . S
C911 C940 1.392 . S
N912 Co906 2.008 . S
N912 C913 1.376 . S
N912 C916 1.374 . S
C913 N912 1.376 . S
C913 C914 1.443 . S
C913 C940 1.389 . S
C914 C913 1.443 . S
C914 C915 1.340 . S
C914 H946 0.951 . S
C915 C914 1.340 . S
C915 C916 1.439 . S
C915 H947 0.950 . S
C916 N912 1.374 . S
C916 C915 1.439 . S
C916 C941 1.395 . S
N917 Co906 1.995 . S
N917 C918 1.376 . S
N917 C921 1.383 . S
C918 N917 1.376 . S
C918 C919 1.446 . S
C918 C941 1.391 . S
C919 C918 1.446 . S
C919 C920 1.339 . S
C919 H948 0.949 . S
C920 C919 1.339 . S
C920 C921 1.439 . S
C920 H949 0.950 . S
C921 N917 1.383 . S
C921 C920 1.439 . S
C921 C939 1.392 . S
N922 Co906 2.282 . S
N922 C925 1.332 . S
N922 C927 1.332 . S
C923 C924 1.386 . S
C923 C926 1.388 . S
C924 C923 1.386 . S
C924 C925 1.382 . S
C924 H950 0.950 . S
C925 N922 1.332 . S
C925 C924 1.382 . S
C925 H936 0.952 . S
C926 C923 1.388 . S
C926 C927 1.382 . S
C926 H951 0.950 . S
C927 N922 1.332 . S
C927 C926 1.382 . S
C927 H937 0.948 . S
N928 Co906 2.282 . S
N928 C932 1.332 . S
N928 C933 1.332 . S
C929 C930 1.388 . S
C929 C933 1.382 . S
C929 H952 0.950 . S
C930 C929 1.388 . S
C930 C931 1.386 . S
C931 C930 1.386 . S
C931 C932 1.382 . S
C931 H953 0.950 . S
C932 N928 1.332 . S
C932 C931 1.382 . S
C932 H934 0.952 . S
C933 N928 1.332 . S
C933 C929 1.382 . S
C933 H935 0.948 . S
H934 C932 0.952 . S
H935 C933 0.948 . S
H936 C925 0.952 . S
H937 C927 0.948 . S
C938 C904 1.395 . S
C938 C908 1.391 . S
C939 C901 1.389 . S
C939 C921 1.392 . S
C940 C911 1.392 . S
C940 C913 1.389 . S
C941 C916 1.395 . S
C941 C918 1.391 . S
H942 C902 0.951 . S
H943 C903 0.950 . S
H944 C909 0.949 . S
H945 C910 0.950 . S
H946 C914 0.951 . S
H947 C915 0.950 . S
H948 C919 0.949 . S
H949 C920 0.950 . S
H950 C924 0.950 . S
H951 C926 0.950 . S
H952 C929 0.950 . S
H953 C931 0.950 . S
H954 C960 0.930 1_655 S
H955 C964 0.930 . S
H956 C969 0.929 . S
H957 C967 0.929 . S
H958 C962 0.929 . S
H959 C968 0.929 . S
C960 H954 0.930 1_455 S
C960 C961 1.367 . S
C960 C968 1.378 . S
C961 C960 1.367 . S
C961 C969 1.433 . S
C962 H958 0.929 . S
C962 C964 1.378 . S
C962 C966 1.350 . S
C963 C966 1.463 . S
C963 C968 1.350 . S
C963 N971 1.427 . S
C964 H955 0.930 . S
C964 C962 1.378 . S
C964 C965 1.367 . S
C965 C964 1.367 . S
C965 C967 1.433 . S
C966 C962 1.350 . S
C966 C963 1.463 . S
C966 N970 1.427 . S
C967 H957 0.929 . S
C967 C965 1.433 . S
C967 N970 1.384 . S
C968 H959 0.929 . S
C968 C960 1.378 . S
C968 C963 1.350 . S
C969 H956 0.929 . S
C969 C961 1.433 . S
C969 N971 1.384 . S
N970 C966 1.427 . S
N970 C967 1.384 . S
N971 C963 1.427 . S
N971 C969 1.384 . S
H972 C978 0.930 . S
H973 C982 0.930 . S
H974 C987 0.929 . S
H975 C985 0.929 . S
H976 C980 0.929 . S
H977 C986 0.929 . S
C978 H972 0.930 . S
C978 C979 1.367 . S
C978 C986 1.378 . S
C979 C978 1.367 . S
C979 C987 1.433 . S
C980 H976 0.929 . S
C980 C982 1.378 . S
C980 C984 1.350 . S
C981 C984 1.463 . S
C981 C986 1.350 . S
C981 N989 1.427 . S
C982 H973 0.930 . S
C982 C980 1.378 . S
C982 C983 1.367 . S
C983 C982 1.367 . S
C983 C985 1.433 . S
C984 C980 1.350 . S
C984 C981 1.463 . S
C984 N988 1.427 . S
C985 H975 0.929 . S
C985 C983 1.433 . S
C985 N988 1.384 . S
C986 H977 0.929 . S
C986 C978 1.378 . S
C986 C981 1.350 . S
C987 H974 0.929 . S
C987 C979 1.433 . S
C987 N989 1.384 . S
N988 C984 1.427 . S
N988 C985 1.384 . S
N989 C981 1.427 . S
N989 C987 1.384 . S
H990 C996 0.930 . S
H991 C1000 0.930 . S
H992 C1005 0.929 . S
H993 C1003 0.929 . S
H994 C998 0.929 . S
H995 C1004 0.929 . S
C996 H990 0.930 . S
C996 C997 1.367 . S
C996 C1004 1.378 . S
C997 C996 1.367 . S
C997 C1005 1.433 . S
C998 H994 0.929 . S
C998 C1000 1.378 . S
C998 C1002 1.350 . S
C999 C1002 1.463 . S
C999 C1004 1.350 . S
C999 N1007 1.427 . S
C1000 H991 0.930 . S
C1000 C998 1.378 . S
C1000 C1001 1.367 . S
C1001 C1000 1.367 . S
C1001 C1003 1.433 . S
C1002 C998 1.350 . S
C1002 C999 1.463 . S
C1002 N1006 1.427 . S
C1003 H993 0.929 . S
C1003 C1001 1.433 . S
C1003 N1006 1.384 . S
C1004 H995 0.929 . S
C1004 C996 1.378 . S
C1004 C999 1.350 . S
C1005 H992 0.929 . S
C1005 C997 1.433 . S
C1005 N1007 1.384 . S
N1006 C1002 1.427 . S
N1006 C1003 1.384 . S
N1007 C999 1.427 . S
N1007 C1005 1.384 . S
H1008 C1014 0.930 . S
H1009 C1018 0.930 . S
H1010 C1023 0.929 . S
H1011 C1021 0.929 1_565 S
H1012 C1016 0.929 . S
H1013 C1022 0.929 . S
C1014 H1008 0.930 . S
C1014 C1015 1.367 . S
C1014 C1022 1.378 . S
C1015 C1014 1.367 . S
C1015 C1023 1.433 . S
C1016 H1012 0.929 . S
C1016 C1018 1.378 . S
C1016 C1020 1.350 . S
C1017 C1020 1.463 . S
C1017 C1022 1.350 . S
C1017 N1025 1.427 . S
C1018 H1009 0.930 . S
C1018 C1016 1.378 . S
C1018 C1019 1.367 . S
C1019 C1018 1.367 . S
C1019 C1021 1.433 . S
C1020 C1016 1.350 . S
C1020 C1017 1.463 . S
C1020 N1024 1.427 . S
C1021 H1011 0.929 1_545 S
C1021 C1019 1.433 . S
C1021 N1024 1.384 . S
C1022 H1013 0.929 . S
C1022 C1014 1.378 . S
C1022 C1017 1.350 . S
C1023 H1010 0.929 . S
C1023 C1015 1.433 . S
C1023 N1025 1.384 . S
N1024 C1020 1.427 . S
N1024 C1021 1.384 . S
N1025 C1017 1.427 . S
N1025 C1023 1.384 . S
H1026 C1032 0.930 . S
H1027 C1036 0.930 . S
H1028 C1041 0.929 . S
H1029 C1039 0.929 . S
H1030 C1034 0.929 1_455 S
H1031 C1040 0.929 . S
C1032 H1026 0.930 . S
C1032 C1033 1.367 . S
C1032 C1040 1.378 . S
C1033 C1032 1.367 . S
C1033 C1041 1.433 . S
C1034 H1030 0.929 1_655 S
C1034 C1036 1.378 1_655 S
C1034 C1038 1.350 . S
C1035 C1038 1.463 . S
C1035 C1040 1.350 . S
C1035 N1043 1.427 . S
C1036 H1027 0.930 . S
C1036 C1034 1.378 1_455 S
C1036 C1037 1.367 1_455 S
C1037 C1036 1.367 1_655 S
C1037 C1039 1.433 . S
C1038 C1034 1.350 . S
C1038 C1035 1.463 . S
C1038 N1042 1.427 . S
C1039 H1029 0.929 . S
C1039 C1037 1.433 . S
C1039 N1042 1.384 . S
C1040 H1031 0.929 . S
C1040 C1032 1.378 . S
C1040 C1035 1.350 . S
C1041 H1028 0.929 . S
C1041 C1033 1.433 . S
C1041 N1043 1.384 . S
N1042 C1038 1.427 . S
N1042 C1039 1.384 . S
N1043 C1035 1.427 . S
N1043 C1041 1.384 . S
H1044 C1050 0.930 . S
H1045 C1054 0.930 . S
H1046 C1059 0.929 . S
H1047 C1057 0.929 . S
H1048 C1052 0.929 . S
H1049 C1058 0.929 . S
C1050 H1044 0.930 . S
C1050 C1051 1.367 . S
C1050 C1058 1.378 . S
C1051 C1050 1.367 . S
C1051 C1059 1.433 . S
C1052 H1048 0.929 . S
C1052 C1054 1.378 . S
C1052 C1056 1.350 . S
C1053 C1056 1.463 . S
C1053 C1058 1.350 . S
C1053 N1061 1.427 . S
C1054 H1045 0.930 . S
C1054 C1052 1.378 . S
C1054 C1055 1.367 . S
C1055 C1054 1.367 . S
C1055 C1057 1.433 . S
C1056 C1052 1.350 . S
C1056 C1053 1.463 . S
C1056 N1060 1.427 . S
C1057 H1047 0.929 . S
C1057 C1055 1.433 . S
C1057 N1060 1.384 . S
C1058 H1049 0.929 . S
C1058 C1050 1.378 . S
C1058 C1053 1.350 . S
C1059 H1046 0.929 . S
C1059 C1051 1.433 . S
C1059 N1061 1.384 . S
N1060 C1056 1.427 . S
N1060 C1057 1.384 . S
N1061 C1053 1.427 . S
N1061 C1059 1.384 . S
H1062 C1068 0.930 . S
H1063 C1072 0.930 . S
H1064 C1077 0.929 1_455 S
H1065 C1075 0.929 . S
H1066 C1070 0.929 . S
H1067 C1076 0.929 . S
C1068 H1062 0.930 . S
C1068 C1069 1.367 . S
C1068 C1076 1.378 . S
C1069 C1068 1.367 . S
C1069 C1077 1.433 . S
C1070 H1066 0.929 . S
C1070 C1072 1.378 . S
C1070 C1074 1.350 . S
C1071 C1074 1.463 . S
C1071 C1076 1.350 . S
C1071 N1079 1.427 . S
C1072 H1063 0.930 . S
C1072 C1070 1.378 . S
C1072 C1073 1.367 . S
C1073 C1072 1.367 . S
C1073 C1075 1.433 . S
C1074 C1070 1.350 . S
C1074 C1071 1.463 . S
C1074 N1078 1.427 . S
C1075 H1065 0.929 . S
C1075 C1073 1.433 . S
C1075 N1078 1.384 . S
C1076 H1067 0.929 . S
C1076 C1068 1.378 . S
C1076 C1071 1.350 . S
C1077 H1064 0.929 1_655 S
C1077 C1069 1.433 . S
C1077 N1079 1.384 . S
N1078 C1074 1.427 . S
N1078 C1075 1.384 . S
N1079 C1071 1.427 . S
N1079 C1077 1.384 . S
H1080 C1086 0.930 . S
H1081 C1090 0.930 . S
H1082 C1095 0.929 . S
H1083 C1093 0.929 . S
H1084 C1088 0.929 . S
H1085 C1094 0.929 . S
C1086 H1080 0.930 . S
C1086 C1087 1.367 . S
C1086 C1094 1.378 . S
C1087 C1086 1.367 . S
C1087 C1095 1.433 . S
C1088 H1084 0.929 . S
C1088 C1090 1.378 . S
C1088 C1092 1.350 . S
C1089 C1092 1.463 . S
C1089 C1094 1.350 . S
C1089 N1097 1.427 . S
C1090 H1081 0.930 . S
C1090 C1088 1.378 . S
C1090 C1091 1.367 . S
C1091 C1090 1.367 . S
C1091 C1093 1.433 . S
C1092 C1088 1.350 . S
C1092 C1089 1.463 . S
C1092 N1096 1.427 . S
C1093 H1083 0.929 . S
C1093 C1091 1.433 . S
C1093 N1096 1.384 . S
C1094 H1085 0.929 . S
C1094 C1086 1.378 . S
C1094 C1089 1.350 . S
C1095 H1082 0.929 . S
C1095 C1087 1.433 . S
C1095 N1097 1.384 . S
N1096 C1092 1.427 . S
N1096 C1093 1.384 . S
N1097 C1089 1.427 . S
N1097 C1095 1.384 . S
H1098 C1104 0.930 . S
H1099 C1108 0.930 . S
H1100 C1113 0.929 . S
H1101 C1111 0.929 . S
H1102 C1106 0.929 . S
H1103 C1112 0.929 . S
C1104 H1098 0.930 . S
C1104 C1105 1.367 . S
C1104 C1112 1.378 . S
C1105 C1104 1.367 . S
C1105 C1113 1.433 . S
C1106 H1102 0.929 . S
C1106 C1108 1.378 . S
C1106 C1110 1.350 . S
C1107 C1110 1.463 . S
C1107 C1112 1.350 . S
C1107 N1115 1.427 . S
C1108 H1099 0.930 . S
C1108 C1106 1.378 . S
C1108 C1109 1.367 . S
C1109 C1108 1.367 . S
C1109 C1111 1.433 . S
C1110 C1106 1.350 . S
C1110 C1107 1.463 . S
C1110 N1114 1.427 . S
C1111 H1101 0.929 . S
C1111 C1109 1.433 . S
C1111 N1114 1.384 . S
C1112 H1103 0.929 . S
C1112 C1104 1.378 . S
C1112 C1107 1.350 . S
C1113 H1100 0.929 . S
C1113 C1105 1.433 . S
C1113 N1115 1.384 . S
N1114 C1110 1.427 . S
N1114 C1111 1.384 . S
N1115 C1107 1.427 . S
N1115 C1113 1.384 . S
H1116 C1122 0.930 . S
H1117 C1126 0.930 . S
H1118 C1131 0.929 1_545 S
H1119 C1129 0.929 . S
H1120 C1124 0.929 . S
H1121 C1130 0.929 . S
C1122 H1116 0.930 . S
C1122 C1123 1.367 . S
C1122 C1130 1.378 . S
C1123 C1122 1.367 . S
C1123 C1131 1.433 . S
C1124 H1120 0.929 . S
C1124 C1126 1.378 . S
C1124 C1128 1.350 . S
C1125 C1128 1.463 . S
C1125 C1130 1.350 . S
C1125 N1133 1.427 . S
C1126 H1117 0.930 . S
C1126 C1124 1.378 . S
C1126 C1127 1.367 . S
C1127 C1126 1.367 . S
C1127 C1129 1.433 . S
C1128 C1124 1.350 . S
C1128 C1125 1.463 . S
C1128 N1132 1.427 . S
C1129 H1119 0.929 . S
C1129 C1127 1.433 . S
C1129 N1132 1.384 . S
C1130 H1121 0.929 . S
C1130 C1122 1.378 . S
C1130 C1125 1.350 . S
C1131 H1118 0.929 1_565 S
C1131 C1123 1.433 . S
C1131 N1133 1.384 . S
N1132 C1128 1.427 . S
N1132 C1129 1.384 . S
N1133 C1125 1.427 . S
N1133 C1131 1.384 . S
H1134 C1140 0.930 . S
H1135 C1144 0.930 . S
H1136 C1149 0.929 . S
H1137 C1147 0.929 . S
H1138 C1142 0.929 . S
H1139 C1148 0.929 . S
C1140 H1134 0.930 . S
C1140 C1141 1.367 . S
C1140 C1148 1.378 . S
C1141 C1140 1.367 . S
C1141 C1149 1.433 . S
C1142 H1138 0.929 . S
C1142 C1144 1.378 . S
C1142 C1146 1.350 . S
C1143 C1146 1.463 . S
C1143 C1148 1.350 . S
C1143 N1151 1.427 . S
C1144 H1135 0.930 . S
C1144 C1142 1.378 . S
C1144 C1145 1.367 . S
C1145 C1144 1.367 . S
C1145 C1147 1.433 . S
C1146 C1142 1.350 . S
C1146 C1143 1.463 . S
C1146 N1150 1.427 . S
C1147 H1137 0.929 . S
C1147 C1145 1.433 . S
C1147 N1150 1.384 . S
C1148 H1139 0.929 . S
C1148 C1140 1.378 . S
C1148 C1143 1.350 . S
C1149 H1136 0.929 . S
C1149 C1141 1.433 . S
C1149 N1151 1.384 . S
N1150 C1146 1.427 . S
N1150 C1147 1.384 . S
N1151 C1143 1.427 . S
N1151 C1149 1.384 . S
H1152 C1158 0.930 . S
H1153 C1162 0.930 . S
H1154 C1167 0.929 . S
H1155 C1165 0.929 . S
H1156 C1160 0.929 . S
H1157 C1166 0.929 . S
C1158 H1152 0.930 . S
C1158 C1159 1.367 . S
C1158 C1166 1.378 . S
C1159 C1158 1.367 . S
C1159 C1167 1.433 . S
C1160 H1156 0.929 . S
C1160 C1162 1.378 . S
C1160 C1164 1.350 . S
C1161 C1164 1.463 . S
C1161 C1166 1.350 . S
C1161 N1169 1.427 . S
C1162 H1153 0.930 . S
C1162 C1160 1.378 . S
C1162 C1163 1.367 . S
C1163 C1162 1.367 . S
C1163 C1165 1.433 . S
C1164 C1160 1.350 . S
C1164 C1161 1.463 . S
C1164 N1168 1.427 . S
C1165 H1155 0.929 . S
C1165 C1163 1.433 . S
C1165 N1168 1.384 . S
C1166 H1157 0.929 . S
C1166 C1158 1.378 . S
C1166 C1161 1.350 . S
C1167 H1154 0.929 . S
C1167 C1159 1.433 . S
C1167 N1169 1.384 . S
N1168 C1164 1.427 . S
N1168 C1165 1.384 . S
N1169 C1161 1.427 . S
N1169 C1167 1.384 . S
H1170 C1176 0.930 . S
H1171 C1180 0.930 . S
H1172 C1185 0.929 . S
H1173 C1183 0.929 . S
H1174 C1178 0.929 . S
H1175 C1184 0.929 . S
C1176 H1170 0.930 . S
C1176 C1177 1.367 . S
C1176 C1184 1.378 . S
C1177 C1176 1.367 . S
C1177 C1185 1.433 . S
C1178 H1174 0.929 . S
C1178 C1180 1.378 . S
C1178 C1182 1.350 . S
C1179 C1182 1.463 . S
C1179 C1184 1.350 . S
C1179 N1187 1.427 . S
C1180 H1171 0.930 . S
C1180 C1178 1.378 . S
C1180 C1181 1.367 . S
C1181 C1180 1.367 . S
C1181 C1183 1.433 . S
C1182 C1178 1.350 . S
C1182 C1179 1.463 . S
C1182 N1186 1.427 . S
C1183 H1173 0.929 . S
C1183 C1181 1.433 . S
C1183 N1186 1.384 . S
C1184 H1175 0.929 . S
C1184 C1176 1.378 . S
C1184 C1179 1.350 . S
C1185 H1172 0.929 . S
C1185 C1177 1.433 . S
C1185 N1187 1.384 . S
N1186 C1182 1.427 . S
N1186 C1183 1.384 . S
N1187 C1179 1.427 . S
N1187 C1185 1.384 . S
H1188 C1194 0.930 . S
H1189 C1198 0.930 . S
H1190 C1203 0.929 . S
H1191 C1201 0.929 1_545 S
H1192 C1196 0.929 . S
H1193 C1202 0.929 . S
C1194 H1188 0.930 . S
C1194 C1195 1.367 . S
C1194 C1202 1.378 . S
C1195 C1194 1.367 . S
C1195 C1203 1.433 . S
C1196 H1192 0.929 . S
C1196 C1198 1.378 . S
C1196 C1200 1.336 1_565 S
C1197 C1200 1.468 . S
C1197 C1202 1.350 . S
C1197 N1205 1.427 . S
C1198 H1189 0.930 . S
C1198 C1196 1.378 . S
C1198 C1199 1.367 . S
C1199 C1198 1.367 . S
C1199 C1201 1.433 . S
C1200 C1196 1.336 1_545 S
C1200 C1197 1.468 . S
C1200 N1204 1.436 . S
C1201 H1191 0.929 1_565 S
C1201 C1199 1.433 . S
C1201 N1204 1.384 1_565 S
C1202 H1193 0.929 . S
C1202 C1194 1.378 . S
C1202 C1197 1.350 . S
C1203 H1190 0.929 . S
C1203 C1195 1.433 . S
C1203 N1205 1.384 . S
N1204 C1200 1.436 . S
N1204 C1201 1.384 1_545 S
N1205 C1197 1.427 . S
N1205 C1203 1.384 . S
H1206 C1212 0.930 . S
H1207 C1216 0.930 . S
H1208 C1221 0.929 . S
H1209 C1219 0.932 1_455 S
H1210 C1214 0.929 . S
H1211 C1220 0.929 . S
C1212 H1206 0.930 . S
C1212 C1213 1.367 . S
C1212 C1220 1.378 . S
C1213 C1212 1.367 . S
C1213 C1221 1.433 . S
C1214 H1210 0.929 . S
C1214 C1216 1.378 . S
C1214 C1218 1.347 1_655 S
C1215 C1218 1.469 . S
C1215 C1220 1.350 . S
C1215 N1223 1.427 . S
C1216 H1207 0.930 . S
C1216 C1214 1.378 . S
C1216 C1217 1.367 . S
C1217 C1216 1.367 . S
C1217 C1219 1.433 . S
C1218 C1214 1.347 1_455 S
C1218 C1215 1.469 . S
C1218 N1222 1.425 . S
C1219 H1209 0.932 1_655 S
C1219 C1217 1.433 . S
C1219 N1222 1.384 1_655 S
C1220 H1211 0.929 . S
C1220 C1212 1.378 . S
C1220 C1215 1.350 . S
C1221 H1208 0.929 . S
C1221 C1213 1.433 . S
C1221 N1223 1.384 . S
N1222 C1218 1.425 . S
N1222 C1219 1.384 1_455 S
N1223 C1215 1.427 . S
N1223 C1221 1.384 . S
H1224 C1230 0.930 . S
H1225 C1234 0.930 . S
H1226 C1239 0.929 . S
H1227 C1237 0.929 . S
H1228 C1232 0.929 . S
H1229 C1238 0.929 . S
C1230 H1224 0.930 . S
C1230 C1231 1.367 . S
C1230 C1238 1.378 . S
C1231 C1230 1.367 . S
C1231 C1239 1.433 . S
C1232 H1228 0.929 . S
C1232 C1234 1.378 . S
C1232 C1236 1.350 . S
C1233 C1236 1.463 . S
C1233 C1238 1.350 . S
C1233 N1241 1.427 . S
C1234 H1225 0.930 . S
C1234 C1232 1.378 . S
C1234 C1235 1.367 . S
C1235 C1234 1.367 . S
C1235 C1237 1.433 . S
C1236 C1232 1.350 . S
C1236 C1233 1.463 . S
C1236 N1240 1.427 . S
C1237 H1227 0.929 . S
C1237 C1235 1.433 . S
C1237 N1240 1.384 . S
C1238 H1229 0.929 . S
C1238 C1230 1.378 . S
C1238 C1233 1.350 . S
C1239 H1226 0.929 . S
C1239 C1231 1.433 . S
C1239 N1241 1.384 . S
N1240 C1236 1.427 . S
N1240 C1237 1.384 . S
N1241 C1233 1.427 . S
N1241 C1239 1.384 . S
H1242 C1248 0.930 . S
H1243 C1252 0.930 . S
H1244 C1257 0.929 . S
H1245 C1255 0.929 . S
H1246 C1250 0.929 . S
H1247 C1256 0.929 . S
C1248 H1242 0.930 . S
C1248 C1249 1.367 . S
C1248 C1256 1.378 . S
C1249 C1248 1.367 . S
C1249 C1257 1.433 . S
C1250 H1246 0.929 . S
C1250 C1252 1.378 . S
C1250 C1254 1.350 . S
C1251 C1254 1.463 1_545 S
C1251 C1256 1.350 . S
C1251 N1259 1.427 . S
C1252 H1243 0.930 . S
C1252 C1250 1.378 . S
C1252 C1253 1.367 . S
C1253 C1252 1.367 . S
C1253 C1255 1.433 . S
C1254 C1250 1.350 . S
C1254 C1251 1.463 1_565 S
C1254 N1258 1.427 1_565 S
C1255 H1245 0.929 . S
C1255 C1253 1.433 . S
C1255 N1258 1.384 1_565 S
C1256 H1247 0.929 . S
C1256 C1248 1.378 . S
C1256 C1251 1.350 . S
C1257 H1244 0.929 . S
C1257 C1249 1.433 . S
C1257 N1259 1.384 . S
N1258 C1254 1.427 1_545 S
N1258 C1255 1.384 1_545 S
N1259 C1251 1.427 . S
N1259 C1257 1.384 . S
H1260 C1266 0.930 . S
H1261 C1270 0.930 . S
H1262 C1275 0.929 . S
H1263 C1273 0.929 . S
H1264 C1268 0.929 1_455 S
H1265 C1274 0.929 . S
C1266 H1260 0.930 . S
C1266 C1267 1.367 . S
C1266 C1274 1.378 . S
C1267 C1266 1.367 . S
C1267 C1275 1.433 . S
C1268 H1264 0.929 1_655 S
C1268 C1270 1.378 . S
C1268 C1272 1.350 . S
C1269 C1272 1.463 1_455 S
C1269 C1274 1.350 . S
C1269 N1277 1.427 . S
C1270 H1261 0.930 . S
C1270 C1268 1.378 . S
C1270 C1271 1.367 . S
C1271 C1270 1.367 . S
C1271 C1273 1.433 . S
C1272 C1268 1.350 . S
C1272 C1269 1.463 1_655 S
C1272 N1276 1.427 . S
C1273 H1263 0.929 . S
C1273 C1271 1.433 . S
C1273 N1276 1.384 . S
C1274 H1265 0.929 . S
C1274 C1266 1.378 . S
C1274 C1269 1.350 . S
C1275 H1262 0.929 . S
C1275 C1267 1.433 . S
C1275 N1277 1.384 . S
N1276 C1272 1.427 . S
N1276 C1273 1.384 . S
N1277 C1269 1.427 . S
N1277 C1275 1.384 . S
H1278 C1284 0.930 . S
H1279 C1288 0.930 . S
H1280 C1293 0.929 . S
H1281 C1291 0.929 . S
H1282 C1286 0.929 . S
H1283 C1292 0.929 . S
C1284 H1278 0.930 . S
C1284 C1285 1.367 . S
C1284 C1292 1.378 . S
C1285 C1284 1.367 . S
C1285 C1293 1.433 . S
C1286 H1282 0.929 . S
C1286 C1288 1.378 . S
C1286 C1290 1.350 . S
C1287 C1290 1.463 . S
C1287 C1292 1.350 . S
C1287 N1295 1.427 . S
C1288 H1279 0.930 . S
C1288 C1286 1.378 . S
C1288 C1289 1.367 . S
C1289 C1288 1.367 . S
C1289 C1291 1.433 . S
C1290 C1286 1.350 . S
C1290 C1287 1.463 . S
C1290 N1294 1.427 . S
C1291 H1281 0.929 . S
C1291 C1289 1.433 . S
C1291 N1294 1.384 . S
C1292 H1283 0.929 . S
C1292 C1284 1.378 . S
C1292 C1287 1.350 . S
C1293 H1280 0.929 . S
C1293 C1285 1.433 . S
C1293 N1295 1.384 . S
N1294 C1290 1.427 . S
N1294 C1291 1.384 . S
N1295 C1287 1.427 . S
N1295 C1293 1.384 . S
H1296 C1302 0.930 . S
H1297 C1306 0.930 . S
H1298 C1311 0.929 . S
H1299 C1309 0.929 . S
H1300 C1304 0.929 . S
H1301 C1310 0.929 . S
C1302 H1296 0.930 . S
C1302 C1303 1.367 . S
C1302 C1310 1.378 . S
C1303 C1302 1.367 . S
C1303 C1311 1.433 . S
C1304 H1300 0.929 . S
C1304 C1306 1.378 . S
C1304 C1308 1.350 . S
C1305 C1308 1.463 . S
C1305 C1310 1.350 . S
C1305 N1313 1.427 . S
C1306 H1297 0.930 . S
C1306 C1304 1.378 . S
C1306 C1307 1.367 . S
C1307 C1306 1.367 . S
C1307 C1309 1.433 . S
C1308 C1304 1.350 . S
C1308 C1305 1.463 . S
C1308 N1312 1.427 . S
C1309 H1299 0.929 . S
C1309 C1307 1.433 . S
C1309 N1312 1.384 . S
C1310 H1301 0.929 . S
C1310 C1302 1.378 . S
C1310 C1305 1.350 . S
C1311 H1298 0.929 . S
C1311 C1303 1.433 . S
C1311 N1313 1.384 . S
N1312 C1308 1.427 . S
N1312 C1309 1.384 . S
N1313 C1305 1.427 . S
N1313 C1311 1.384 . S
H1314 C1320 0.930 . S
H1315 C1324 0.930 . S
H1316 C1329 0.929 . S
H1317 C1327 0.929 . S
H1318 C1322 0.929 . S
H1319 C1328 0.929 . S
C1320 H1314 0.930 . S
C1320 C1321 1.367 . S
C1320 C1328 1.378 . S
C1321 C1320 1.367 . S
C1321 C1329 1.433 . S
C1322 H1318 0.929 . S
C1322 C1324 1.378 . S
C1322 C1326 1.350 . S
C1323 C1326 1.463 . S
C1323 C1328 1.350 . S
C1323 N1331 1.427 . S
C1324 H1315 0.930 . S
C1324 C1322 1.378 . S
C1324 C1325 1.367 . S
C1325 C1324 1.367 . S
C1325 C1327 1.433 . S
C1326 C1322 1.350 . S
C1326 C1323 1.463 . S
C1326 N1330 1.427 . S
C1327 H1317 0.929 . S
C1327 C1325 1.433 . S
C1327 N1330 1.384 . S
C1328 H1319 0.929 . S
C1328 C1320 1.378 . S
C1328 C1323 1.350 . S
C1329 H1316 0.929 . S
C1329 C1321 1.433 . S
C1329 N1331 1.384 . S
N1330 C1326 1.427 . S
N1330 C1327 1.384 . S
N1331 C1323 1.427 . S
N1331 C1329 1.384 . S
H1332 C1338 0.930 . S
H1333 C1342 0.930 . S
H1334 C1347 0.929 . S
H1335 C1345 0.929 . S
H1336 C1340 0.929 . S
H1337 C1346 0.929 . S
C1338 H1332 0.930 . S
C1338 C1339 1.367 . S
C1338 C1346 1.378 . S
C1339 C1338 1.367 . S
C1339 C1347 1.433 . S
C1340 H1336 0.929 . S
C1340 C1342 1.378 . S
C1340 C1344 1.350 . S
C1341 C1344 1.463 . S
C1341 C1346 1.350 . S
C1341 N1349 1.427 . S
C1342 H1333 0.930 . S
C1342 C1340 1.378 . S
C1342 C1343 1.367 . S
C1343 C1342 1.367 . S
C1343 C1345 1.433 . S
C1344 C1340 1.350 . S
C1344 C1341 1.463 . S
C1344 N1348 1.427 . S
C1345 H1335 0.929 . S
C1345 C1343 1.433 . S
C1345 N1348 1.384 . S
C1346 H1337 0.929 . S
C1346 C1338 1.378 . S
C1346 C1341 1.350 . S
C1347 H1334 0.929 . S
C1347 C1339 1.433 . S
C1347 N1349 1.384 . S
N1348 C1344 1.427 . S
N1348 C1345 1.384 . S
N1349 C1341 1.427 . S
N1349 C1347 1.384 . S
H1350 C1356 0.930 . S
H1351 C1360 0.930 . S
H1352 C1365 0.929 . S
H1353 C1363 0.929 . S
H1354 C1358 0.929 . S
H1355 C1364 0.929 . S
C1356 H1350 0.930 . S
C1356 C1357 1.367 . S
C1356 C1364 1.378 . S
C1357 C1356 1.367 . S
C1357 C1365 1.433 . S
C1358 H1354 0.929 . S
C1358 C1360 1.378 . S
C1358 C1362 1.350 . S
C1359 C1362 1.463 . S
C1359 C1364 1.350 . S
C1359 N1367 1.427 . S
C1360 H1351 0.930 . S
C1360 C1358 1.378 . S
C1360 C1361 1.367 . S
C1361 C1360 1.367 . S
C1361 C1363 1.433 . S
C1362 C1358 1.350 . S
C1362 C1359 1.463 . S
C1362 N1366 1.427 . S
C1363 H1353 0.929 . S
C1363 C1361 1.433 . S
C1363 N1366 1.384 . S
C1364 H1355 0.929 . S
C1364 C1356 1.378 . S
C1364 C1359 1.350 . S
C1365 H1352 0.929 . S
C1365 C1357 1.433 . S
C1365 N1367 1.384 . S
N1366 C1362 1.427 . S
N1366 C1363 1.384 . S
N1367 C1359 1.427 . S
N1367 C1365 1.384 . S
H1368 C1374 0.930 . S
H1369 C1378 0.930 . S
H1370 C1383 0.929 . S
H1371 C1381 0.929 . S
H1372 C1376 0.929 . S
H1373 C1382 0.929 . S
C1374 H1368 0.930 . S
C1374 C1375 1.367 . S
C1374 C1382 1.378 . S
C1375 C1374 1.367 . S
C1375 C1383 1.433 . S
C1376 H1372 0.929 . S
C1376 C1378 1.378 . S
C1376 C1380 1.350 . S
C1377 C1380 1.463 . S
C1377 C1382 1.350 . S
C1377 N1385 1.427 . S
C1378 H1369 0.930 . S
C1378 C1376 1.378 . S
C1378 C1379 1.367 . S
C1379 C1378 1.367 . S
C1379 C1381 1.433 . S
C1380 C1376 1.350 . S
C1380 C1377 1.463 . S
C1380 N1384 1.427 . S
C1381 H1371 0.929 . S
C1381 C1379 1.433 . S
C1381 N1384 1.384 . S
C1382 H1373 0.929 . S
C1382 C1374 1.378 . S
C1382 C1377 1.350 . S
C1383 H1370 0.929 . S
C1383 C1375 1.433 . S
C1383 N1385 1.384 . S
N1384 C1380 1.427 . S
N1384 C1381 1.384 . S
N1385 C1377 1.427 . S
N1385 C1383 1.384 . S
H1386 C1392 0.930 . S
H1387 C1396 0.930 . S
H1388 C1401 0.929 . S
H1389 C1399 0.929 . S
H1390 C1394 0.929 . S
H1391 C1400 0.929 . S
C1392 H1386 0.930 . S
C1392 C1393 1.367 . S
C1392 C1400 1.378 . S
C1393 C1392 1.367 . S
C1393 C1401 1.433 . S
C1394 H1390 0.929 . S
C1394 C1396 1.378 . S
C1394 C1398 1.350 . S
C1395 C1398 1.463 . S
C1395 C1400 1.350 . S
C1395 N1403 1.427 . S
C1396 H1387 0.930 . S
C1396 C1394 1.378 . S
C1396 C1397 1.367 . S
C1397 C1396 1.367 . S
C1397 C1399 1.433 . S
C1398 C1394 1.350 . S
C1398 C1395 1.463 . S
C1398 N1402 1.427 . S
C1399 H1389 0.929 . S
C1399 C1397 1.433 . S
C1399 N1402 1.384 . S
C1400 H1391 0.929 . S
C1400 C1392 1.378 . S
C1400 C1395 1.350 . S
C1401 H1388 0.929 . S
C1401 C1393 1.433 . S
C1401 N1403 1.384 . S
N1402 C1398 1.427 . S
N1402 C1399 1.384 . S
N1403 C1395 1.427 . S
N1403 C1401 1.384 . S
H1404 C1410 0.930 . S
H1405 C1414 0.930 . S
H1406 C1419 0.929 . S
H1407 C1417 0.929 . S
H1408 C1412 0.929 . S
H1409 C1418 0.929 . S
C1410 H1404 0.930 . S
C1410 C1411 1.367 . S
C1410 C1418 1.378 . S
C1411 C1410 1.367 . S
C1411 C1419 1.433 . S
C1412 H1408 0.929 . S
C1412 C1414 1.378 . S
C1412 C1416 1.350 . S
C1413 C1416 1.463 . S
C1413 C1418 1.350 . S
C1413 N1421 1.427 . S
C1414 H1405 0.930 . S
C1414 C1412 1.378 . S
C1414 C1415 1.367 . S
C1415 C1414 1.367 . S
C1415 C1417 1.433 . S
C1416 C1412 1.350 . S
C1416 C1413 1.463 . S
C1416 N1420 1.427 . S
C1417 H1407 0.929 . S
C1417 C1415 1.433 . S
C1417 N1420 1.384 . S
C1418 H1409 0.929 . S
C1418 C1410 1.378 . S
C1418 C1413 1.350 . S
C1419 H1406 0.929 . S
C1419 C1411 1.433 . S
C1419 N1421 1.384 . S
N1420 C1416 1.427 . S
N1420 C1417 1.384 . S
N1421 C1413 1.427 . S
N1421 C1419 1.384 . S
H1422 C1428 0.930 . S
H1423 C1432 0.930 . S
H1424 C1437 0.929 . S
H1425 C1435 0.929 . S
H1426 C1430 0.929 . S
H1427 C1436 0.929 . S
C1428 H1422 0.930 . S
C1428 C1429 1.367 . S
C1428 C1436 1.378 . S
C1429 C1428 1.367 . S
C1429 C1437 1.433 . S
C1430 H1426 0.929 . S
C1430 C1432 1.378 . S
C1430 C1434 1.350 . S
C1431 C1434 1.463 . S
C1431 C1436 1.350 . S
C1431 N1439 1.427 . S
C1432 H1423 0.930 . S
C1432 C1430 1.378 . S
C1432 C1433 1.367 . S
C1433 C1432 1.367 . S
C1433 C1435 1.433 . S
C1434 C1430 1.350 . S
C1434 C1431 1.463 . S
C1434 N1438 1.427 . S
C1435 H1425 0.929 . S
C1435 C1433 1.433 . S
C1435 N1438 1.384 . S
C1436 H1427 0.929 . S
C1436 C1428 1.378 . S
C1436 C1431 1.350 . S
C1437 H1424 0.929 . S
C1437 C1429 1.433 . S
C1437 N1439 1.384 . S
N1438 C1434 1.427 . S
N1438 C1435 1.384 . S
N1439 C1431 1.427 . S
N1439 C1437 1.384 . S
H1440 C1446 0.930 . S
H1441 C1450 0.930 . S
H1442 C1455 0.929 . S
H1443 C1453 0.929 . S
H1444 C1448 0.929 . S
H1445 C1454 0.929 . S
C1446 H1440 0.930 . S
C1446 C1447 1.367 . S
C1446 C1454 1.378 . S
C1447 C1446 1.367 . S
C1447 C1455 1.433 . S
C1448 H1444 0.929 . S
C1448 C1450 1.378 . S
C1448 C1452 1.350 . S
C1449 C1452 1.463 . S
C1449 C1454 1.350 . S
C1449 N1457 1.427 . S
C1450 H1441 0.930 . S
C1450 C1448 1.378 . S
C1450 C1451 1.367 . S
C1451 C1450 1.367 . S
C1451 C1453 1.433 . S
C1452 C1448 1.350 . S
C1452 C1449 1.463 . S
C1452 N1456 1.427 . S
C1453 H1443 0.929 . S
C1453 C1451 1.433 . S
C1453 N1456 1.384 . S
C1454 H1445 0.929 . S
C1454 C1446 1.378 . S
C1454 C1449 1.350 . S
C1455 H1442 0.929 . S
C1455 C1447 1.433 . S
C1455 N1457 1.384 . S
N1456 C1452 1.427 . S
N1456 C1453 1.384 . S
N1457 C1449 1.427 . S
N1457 C1455 1.384 . S
H1458 C1464 0.930 . S
H1459 C1468 0.930 . S
H1460 C1473 0.929 . S
H1461 C1471 0.929 . S
H1462 C1466 0.929 . S
H1463 C1472 0.929 . S
C1464 H1458 0.930 . S
C1464 C1465 1.367 . S
C1464 C1472 1.378 . S
C1465 C1464 1.367 . S
C1465 C1473 1.433 . S
C1466 H1462 0.929 . S
C1466 C1468 1.378 . S
C1466 C1470 1.350 . S
C1467 C1470 1.463 . S
C1467 C1472 1.350 . S
C1467 N1475 1.427 . S
C1468 H1459 0.930 . S
C1468 C1466 1.378 . S
C1468 C1469 1.367 . S
C1469 C1468 1.367 . S
C1469 C1471 1.433 . S
C1470 C1466 1.350 . S
C1470 C1467 1.463 . S
C1470 N1474 1.427 . S
C1471 H1461 0.929 . S
C1471 C1469 1.433 . S
C1471 N1474 1.384 . S
C1472 H1463 0.929 . S
C1472 C1464 1.378 . S
C1472 C1467 1.350 . S
C1473 H1460 0.929 . S
C1473 C1465 1.433 . S
C1473 N1475 1.384 . S
N1474 C1470 1.427 . S
N1474 C1471 1.384 . S
N1475 C1467 1.427 . S
N1475 C1473 1.384 . S
H1476 C1482 0.930 . S
H1477 C1486 0.930 . S
H1478 C1491 0.929 . S
H1479 C1489 0.929 . S
H1480 C1484 0.929 . S
H1481 C1490 0.929 . S
C1482 H1476 0.930 . S
C1482 C1483 1.367 . S
C1482 C1490 1.378 . S
C1483 C1482 1.367 . S
C1483 C1491 1.433 . S
C1484 H1480 0.929 . S
C1484 C1486 1.378 . S
C1484 C1488 1.350 . S
C1485 C1488 1.463 . S
C1485 C1490 1.350 . S
C1485 N1493 1.427 . S
C1486 H1477 0.930 . S
C1486 C1484 1.378 . S
C1486 C1487 1.367 . S
C1487 C1486 1.367 . S
C1487 C1489 1.433 . S
C1488 C1484 1.350 . S
C1488 C1485 1.463 . S
C1488 N1492 1.427 . S
C1489 H1479 0.929 . S
C1489 C1487 1.433 . S
C1489 N1492 1.384 . S
C1490 H1481 0.929 . S
C1490 C1482 1.378 . S
C1490 C1485 1.350 . S
C1491 H1478 0.929 . S
C1491 C1483 1.433 . S
C1491 N1493 1.384 . S
N1492 C1488 1.427 . S
N1492 C1489 1.384 . S
N1493 C1485 1.427 . S
N1493 C1491 1.384 . S
H1494 C1500 0.930 . S
H1495 C1504 0.930 . S
H1496 C1509 0.929 . S
H1497 C1507 0.929 . S
H1498 C1502 0.929 . S
H1499 C1508 0.929 . S
C1500 H1494 0.930 . S
C1500 C1501 1.367 . S
C1500 C1508 1.378 . S
C1501 C1500 1.367 . S
C1501 C1509 1.433 . S
C1502 H1498 0.929 . S
C1502 C1504 1.378 . S
C1502 C1506 1.350 . S
C1503 C1506 1.463 . S
C1503 C1508 1.350 . S
C1503 N1511 1.427 . S
C1504 H1495 0.930 . S
C1504 C1502 1.378 . S
C1504 C1505 1.367 . S
C1505 C1504 1.367 . S
C1505 C1507 1.433 . S
C1506 C1502 1.350 . S
C1506 C1503 1.463 . S
C1506 N1510 1.427 . S
C1507 H1497 0.929 . S
C1507 C1505 1.433 . S
C1507 N1510 1.384 . S
C1508 H1499 0.929 . S
C1508 C1500 1.378 . S
C1508 C1503 1.350 . S
C1509 H1496 0.929 . S
C1509 C1501 1.433 . S
C1509 N1511 1.384 . S
N1510 C1506 1.427 . S
N1510 C1507 1.384 . S
N1511 C1503 1.427 . S
N1511 C1509 1.384 . S
H1512 C1518 0.930 . S
H1513 C1522 0.930 . S
H1514 C1527 0.929 . S
H1515 C1525 0.929 . S
H1516 C1520 0.929 . S
H1517 C1526 0.929 . S
C1518 H1512 0.930 . S
C1518 C1519 1.367 . S
C1518 C1526 1.378 1_545 S
C1519 C1518 1.367 . S
C1519 C1527 1.433 1_545 S
C1520 H1516 0.929 . S
C1520 C1522 1.378 . S
C1520 C1524 1.350 . S
C1521 C1524 1.463 . S
C1521 C1526 1.350 . S
C1521 N1529 1.427 . S
C1522 H1513 0.930 . S
C1522 C1520 1.378 . S
C1522 C1523 1.367 . S
C1523 C1522 1.367 . S
C1523 C1525 1.433 . S
C1524 C1520 1.350 . S
C1524 C1521 1.463 . S
C1524 N1528 1.427 . S
C1525 H1515 0.929 . S
C1525 C1523 1.433 . S
C1525 N1528 1.384 . S
C1526 H1517 0.929 . S
C1526 C1518 1.378 1_565 S
C1526 C1521 1.350 . S
C1527 H1514 0.929 . S
C1527 C1519 1.433 1_565 S
C1527 N1529 1.384 . S
N1528 C1524 1.427 . S
N1528 C1525 1.384 . S
N1529 C1521 1.427 . S
N1529 C1527 1.384 . S
H1530 C1536 0.930 . S
H1531 C1540 0.930 . S
H1532 C1545 0.929 . S
H1533 C1543 0.929 1_655 S
H1534 C1538 0.929 . S
H1535 C1544 0.929 . S
C1536 H1530 0.930 . S
C1536 C1537 1.367 . S
C1536 C1544 1.378 . S
C1537 C1536 1.367 . S
C1537 C1545 1.433 . S
C1538 H1534 0.929 . S
C1538 C1540 1.378 . S
C1538 C1542 1.350 . S
C1539 C1542 1.463 . S
C1539 C1544 1.350 . S
C1539 N1547 1.427 . S
C1540 H1531 0.930 . S
C1540 C1538 1.378 . S
C1540 C1541 1.367 . S
C1541 C1540 1.367 . S
C1541 C1543 1.433 . S
C1542 C1538 1.350 . S
C1542 C1539 1.463 . S
C1542 N1546 1.427 . S
C1543 H1533 0.929 1_455 S
C1543 C1541 1.433 . S
C1543 N1546 1.384 . S
C1544 H1535 0.929 . S
C1544 C1536 1.378 . S
C1544 C1539 1.350 . S
C1545 H1532 0.929 . S
C1545 C1537 1.433 . S
C1545 N1547 1.384 . S
N1546 C1542 1.427 . S
N1546 C1543 1.384 . S
N1547 C1539 1.427 . S
N1547 C1545 1.384 . S
H1548 C1554 0.930 . S
H1549 C1558 0.930 . S
H1550 C1563 0.929 . S
H1551 C1561 0.929 . S
H1552 C1556 0.929 . S
H1553 C1562 0.929 . S
C1554 H1548 0.930 . S
C1554 C1555 1.367 . S
C1554 C1562 1.378 . S
C1555 C1554 1.367 . S
C1555 C1563 1.433 . S
C1556 H1552 0.929 . S
C1556 C1558 1.378 . S
C1556 C1560 1.350 . S
C1557 C1560 1.440 1_556 S
C1557 C1562 1.373 . S
C1557 N1565 1.426 1_556 S
C1558 H1549 0.930 . S
C1558 C1556 1.378 . S
C1558 C1559 1.367 . S
C1559 C1558 1.367 . S
C1559 C1561 1.433 . S
C1560 C1556 1.350 . S
C1560 C1557 1.440 1_554 S
C1560 N1564 1.427 . S
C1561 H1551 0.929 . S
C1561 C1559 1.433 . S
C1561 N1564 1.384 . S
C1562 H1553 0.929 . S
C1562 C1554 1.378 . S
C1562 C1557 1.373 . S
C1563 H1550 0.929 . S
C1563 C1555 1.433 . S
C1563 N1565 1.380 1_556 S
N1564 C1560 1.427 . S
N1564 C1561 1.384 . S
N1565 C1557 1.426 1_554 S
N1565 C1563 1.380 1_554 S
H1566 C1572 0.930 . S
H1567 C1576 0.930 . S
H1568 C1581 0.929 . S
H1569 C1579 0.929 . S
H1570 C1574 0.929 1_565 S
H1571 C1580 0.929 1_554 S
C1572 H1566 0.930 . S
C1572 C1573 1.367 . S
C1572 C1580 1.378 . S
C1573 C1572 1.367 . S
C1573 C1581 1.433 1_545 S
C1574 H1570 0.929 1_545 S
C1574 C1576 1.378 . S
C1574 C1578 1.350 . S
C1575 C1578 1.451 1_556 S
C1575 C1580 1.352 . S
C1575 N1583 1.437 1_545 S
C1576 H1567 0.930 . S
C1576 C1574 1.378 . S
C1576 C1577 1.367 . S
C1577 C1576 1.367 . S
C1577 C1579 1.433 . S
C1578 C1574 1.350 . S
C1578 C1575 1.451 1_554 S
C1578 N1582 1.427 . S
C1579 H1569 0.929 . S
C1579 C1577 1.433 . S
C1579 N1582 1.384 . S
C1580 H1571 0.929 1_556 S
C1580 C1572 1.378 . S
C1580 C1575 1.352 . S
C1581 H1568 0.929 . S
C1581 C1573 1.433 1_565 S
C1581 N1583 1.384 . S
N1582 C1578 1.427 . S
N1582 C1579 1.384 . S
N1583 C1575 1.437 1_565 S
N1583 C1581 1.384 . S
H1584 C1590 0.930 . S
H1585 C1594 0.930 . S
H1586 C1599 0.929 1_554 S
H1587 C1597 0.929 . S
H1588 C1592 0.929 . S
H1589 C1598 0.929 . S
C1590 H1584 0.930 . S
C1590 C1591 1.367 . S
C1590 C1598 1.378 . S
C1591 C1590 1.367 . S
C1591 C1599 1.433 1_455 S
C1592 H1588 0.929 . S
C1592 C1594 1.378 . S
C1592 C1596 1.350 . S
C1593 C1596 1.463 1_556 S
C1593 C1598 1.350 1_655 S
C1593 N1601 1.427 1_556 S
C1594 H1585 0.930 . S
C1594 C1592 1.378 . S
C1594 C1595 1.367 . S
C1595 C1594 1.367 . S
C1595 C1597 1.433 . S
C1596 C1592 1.350 . S
C1596 C1593 1.463 1_554 S
C1596 N1600 1.427 . S
C1597 H1587 0.929 . S
C1597 C1595 1.433 . S
C1597 N1600 1.384 . S
C1598 H1589 0.929 . S
C1598 C1590 1.378 . S
C1598 C1593 1.350 1_455 S
C1599 H1586 0.929 1_556 S
C1599 C1591 1.433 1_655 S
C1599 N1601 1.384 1_556 S
N1600 C1596 1.427 . S
N1600 C1597 1.384 . S
N1601 C1593 1.427 1_554 S
N1601 C1599 1.384 1_554 S
C961 C39 2.506 . S
C965 C781 2.508 1_554 S
C979 C674 2.513 1_554 S
C983 C91 2.513 . S
C997 C144 2.513 . S
C1001 C728 2.504 1_554 S
C1015 C357 2.506 . S
C1019 C145 2.508 . S
C1033 C409 2.518 . S
C1037 C38 2.517 . S
C1051 C463 2.509 . S
C1055 C92 2.510 . S
C1069 C181 1.638 . S
C1073 C605 1.636 . S
C1087 C499 1.648 . S
C1091 C234 1.650 . S
C1105 C552 1.636 . S
C1109 C294 1.626 . S
C1123 C287 1.641 . S
C1127 C817 1.638 . S
C1141 C188 1.626 . S
C1145 C870 1.636 . S
C1159 C930 1.627 . S
C1163 C241 1.631 . S
C1177 C675 2.505 . S
C1181 C462 2.515 . S
C1195 C356 2.518 . S
C1199 C727 2.517 . S
C1213 C780 2.517 . S
C1217 C410 2.510 . S
C1231 C923 1.643 . S
C1235 C506 1.629 . S
C1249 C559 1.640 . S
C1253 C824 1.642 . S
C1267 C877 1.630 . S
C1271 C612 1.633 . S
C1285 C833 1.580 . S
C1289 C29 1.584 . S
C1303 C75 1.581 . S
C1307 C886 1.579 . S
C1321 C128 1.580 . S
C1325 C940 1.583 . S
C1339 C135 1.585 . S
C1343 C621 1.580 . S
C1357 C515 1.576 . S
C1361 C22 1.577 . S
C1375 C82 1.585 . S
C1379 C568 1.582 . S
C1393 C347 1.584 . S
C1397 C197 1.581 . S
C1411 C393 1.578 . S
C1415 C250 1.578 . S
C1429 C304 1.584 . S
C1433 C453 1.585 . S
C1447 C303 1.581 . S
C1451 C771 1.585 . S
C1465 C198 1.586 . S
C1469 C658 1.583 . S
C1483 C251 1.585 . S
C1487 C718 1.584 . S
C1501 C446 1.578 . S
C1505 C939 1.577 . S
C1519 C340 1.579 . S
C1523 C834 1.582 . S
C1537 C887 1.586 . S
C1541 C400 1.585 . S
C1555 C665 1.580 . S
C1559 C516 1.580 . S
C1573 C711 1.583 . S
C1577 C569 1.586 . S
C1591 C764 1.578 . S
C1595 C622 1.581 . S
