# Generated by pormake.
# Topology wjf, (4)-cn, num edge types: 1
# Building blocks:
#     Node 0, Type 0, BuildingBlock: GALJAG_clean_sbu_0, # of connection points: 4
#     Node 1, Type 0, BuildingBlock: GALJAG_clean_sbu_0, # of connection points: 4
#     Node 2, Type 0, BuildingBlock: GALJAG_clean_sbu_0, # of connection points: 4
#     Node 3, Type 0, BuildingBlock: GALJAG_clean_sbu_0, # of connection points: 4
#     Node 4, Type 0, BuildingBlock: GALJAG_clean_sbu_0, # of connection points: 4
#     Node 5, Type 0, BuildingBlock: GALJAG_clean_sbu_0, # of connection points: 4
#     Node 6, Type 0, BuildingBlock: GALJAG_clean_sbu_0, # of connection points: 4
#     Node 7, Type 0, BuildingBlock: GALJAG_clean_sbu_0, # of connection points: 4
#     Node 8, Type 0, BuildingBlock: GALJAG_clean_sbu_0, # of connection points: 4
#     Node 9, Type 0, BuildingBlock: GALJAG_clean_sbu_0, # of connection points: 4
#     Node 10, Type 0, BuildingBlock: GALJAG_clean_sbu_0, # of connection points: 4
#     Node 11, Type 0, BuildingBlock: GALJAG_clean_sbu_0, # of connection points: 4
#     Edge 12, Type (0, 0), BuildingBlock: ZUJKAS_clean_linker_0, # of connection points: 2
#     Edge 13, Type (0, 0), BuildingBlock: ZUJKAS_clean_linker_0, # of connection points: 2
#     Edge 14, Type (0, 0), BuildingBlock: ZUJKAS_clean_linker_0, # of connection points: 2
#     Edge 15, Type (0, 0), BuildingBlock: ZUJKAS_clean_linker_0, # of connection points: 2
#     Edge 16, Type (0, 0), BuildingBlock: ZUJKAS_clean_linker_0, # of connection points: 2
#     Edge 17, Type (0, 0), BuildingBlock: ZUJKAS_clean_linker_0, # of connection points: 2
#     Edge 18, Type (0, 0), BuildingBlock: ZUJKAS_clean_linker_0, # of connection points: 2
#     Edge 19, Type (0, 0), BuildingBlock: ZUJKAS_clean_linker_0, # of connection points: 2
#     Edge 20, Type (0, 0), BuildingBlock: ZUJKAS_clean_linker_0, # of connection points: 2
#     Edge 21, Type (0, 0), BuildingBlock: ZUJKAS_clean_linker_0, # of connection points: 2
#     Edge 22, Type (0, 0), BuildingBlock: ZUJKAS_clean_linker_0, # of connection points: 2
#     Edge 23, Type (0, 0), BuildingBlock: ZUJKAS_clean_linker_0, # of connection points: 2
#     Edge 24, Type (0, 0), BuildingBlock: ZUJKAS_clean_linker_0, # of connection points: 2
#     Edge 25, Type (0, 0), BuildingBlock: ZUJKAS_clean_linker_0, # of connection points: 2
#     Edge 26, Type (0, 0), BuildingBlock: ZUJKAS_clean_linker_0, # of connection points: 2
#     Edge 27, Type (0, 0), BuildingBlock: ZUJKAS_clean_linker_0, # of connection points: 2
#     Edge 28, Type (0, 0), BuildingBlock: ZUJKAS_clean_linker_0, # of connection points: 2
#     Edge 29, Type (0, 0), BuildingBlock: ZUJKAS_clean_linker_0, # of connection points: 2
#     Edge 30, Type (0, 0), BuildingBlock: ZUJKAS_clean_linker_0, # of connection points: 2
#     Edge 31, Type (0, 0), BuildingBlock: ZUJKAS_clean_linker_0, # of connection points: 2
#     Edge 32, Type (0, 0), BuildingBlock: ZUJKAS_clean_linker_0, # of connection points: 2
#     Edge 33, Type (0, 0), BuildingBlock: ZUJKAS_clean_linker_0, # of connection points: 2
#     Edge 34, Type (0, 0), BuildingBlock: ZUJKAS_clean_linker_0, # of connection points: 2
#     Edge 35, Type (0, 0), BuildingBlock: ZUJKAS_clean_linker_0, # of connection points: 2
# Relax obj value: 0.086
# Max RMSD: 0.104
# Mean RMSD: 0.104
data_MOF--net-wjf--node1-GALJAG_clean_sbu_0--edge1-ZUJKAS_clean_linker_0
_symmetry_space_group_name_H-M    P1
_symmetry_Int_Tables_number       1
_symmetry_cell_setting            triclinic
loop_
_symmetry_equiv_pos_as_xyz
'x, y, z'
_cell_length_a     64.288598
_cell_length_b     64.281688
_cell_length_c     36.827682
_cell_angle_alpha  90.011659
_cell_angle_beta   89.969114
_cell_angle_gamma 119.98224
loop_
_atom_site_label
_atom_site_type_symbol
_atom_site_fract_x
_atom_site_fract_y
_atom_site_fract_z
_atom_type_partial_charge
In0 In 0.33058 0.37754 0.08372 0.0
O1 O 0.31704 0.40395 0.07592 0.0
O2 O 0.29142 0.36658 0.07628 0.0
C3 C 0.37657 0.41091 0.09694 0.0
C4 C 0.33017 0.36191 0.01559 0.0
C5 C 0.32041 0.35269 0.14636 0.0
O6 O 0.35973 0.41566 0.09744 0.0
O7 O 0.37014 0.38927 0.09011 0.0
O8 O 0.32675 0.34615 0.1181 0.0
O9 O 0.31897 0.37143 0.14271 0.0
C10 C 0.29532 0.38776 0.07283 0.0
O11 O 0.31897 0.34756 0.04121 0.0
O12 O 0.34198 0.38366 0.02479 0.0
In13 In 0.94953 0.32606 0.41556 0.0
O14 O 0.9708 0.31629 0.37558 0.0
O15 O 0.95112 0.33221 0.35499 0.0
C16 C 0.96399 0.3185 0.48047 0.0
C17 C 0.90461 0.28911 0.40784 0.0
C18 C 0.96216 0.37267 0.42203 0.0
O19 O 0.9768 0.32333 0.45229 0.0
O20 O 0.94399 0.31727 0.47568 0.0
O21 O 0.94057 0.35593 0.42306 0.0
O22 O 0.97734 0.36585 0.41817 0.0
C23 C 0.96438 0.32345 0.34809 0.0
O24 O 0.9091 0.31053 0.41106 0.0
O25 O 0.92271 0.28638 0.40949 0.0
In26 In 0.6202 0.94558 0.7501 0.0
O27 O 0.59418 0.90523 0.74741 0.0
O28 O 0.6317 0.91762 0.74517 0.0
C29 C 0.58858 0.96102 0.76027 0.0
C30 C 0.63519 0.95846 0.68109 0.0
C31 C 0.6448 0.9605 0.8129 0.0
O32 O 0.58242 0.93905 0.76117 0.0
O33 O 0.61061 0.97508 0.75437 0.0
O34 O 0.65245 0.97239 0.78383 0.0
O35 O 0.62506 0.94117 0.81001 0.0
C36 C 0.61058 0.89993 0.74452 0.0
O37 O 0.6497 0.96565 0.70746 0.0
O38 O 0.61346 0.94535 0.68979 0.0
In39 In 0.66858 0.63203 0.07723 0.0
O40 O 0.69183 0.66367 0.03951 0.0
O41 O 0.65509 0.64144 0.02612 0.0
C42 C 0.67936 0.65354 0.14305 0.0
C43 C 0.69629 0.614 0.05541 0.0
C44 C 0.62302 0.5969 0.08948 0.0
O45 O 0.67251 0.66133 0.11691 0.0
O46 O 0.68119 0.63539 0.13567 0.0
O47 O 0.6405 0.59314 0.08913 0.0
O48 O 0.62853 0.61841 0.08383 0.0
C49 C 0.67518 0.65888 0.01716 0.0
O50 O 0.67486 0.60547 0.04492 0.0
O51 O 0.70354 0.63131 0.07741 0.0
In52 In 0.04241 0.66866 0.41487 0.0
O53 O 0.08263 0.68347 0.41022 0.0
O54 O 0.07015 0.70836 0.41647 0.0
C55 C 0.02958 0.62182 0.41486 0.0
C56 C 0.02748 0.67334 0.34839 0.0
C57 C 0.02906 0.67505 0.48154 0.0
O58 O 0.05116 0.63845 0.41701 0.0
O59 O 0.01447 0.62882 0.41244 0.0
O60 O 0.02257 0.68127 0.4531 0.0
O61 O 0.04209 0.66585 0.47606 0.0
C62 C 0.08785 0.70517 0.41207 0.0
O63 O 0.0142 0.66855 0.37606 0.0
O64 O 0.04776 0.6756 0.35449 0.0
In65 In 0.38253 0.05289 0.75735 0.0
O66 O 0.35371 0.02876 0.71594 0.0
O67 O 0.38909 0.05282 0.6972 0.0
C68 C 0.35916 0.04062 0.82141 0.0
C69 C 0.38882 0.09695 0.74694 0.0
C70 C 0.41607 0.04011 0.76889 0.0
O71 O 0.35157 0.0269 0.79409 0.0
O72 O 0.3782 0.06031 0.81614 0.0
O73 O 0.42122 0.06179 0.76741 0.0
O74 O 0.39408 0.02504 0.76494 0.0
C75 C 0.36791 0.03709 0.68921 0.0
O76 O 0.40625 0.09345 0.75237 0.0
O77 O 0.36832 0.07827 0.74748 0.0
In78 In 0.62933 0.66765 0.58491 0.0
O79 O 0.60381 0.67555 0.6174 0.0
O80 O 0.63152 0.70398 0.58684 0.0
C81 C 0.59374 0.62241 0.57191 0.0
C82 C 0.65631 0.67217 0.64399 0.0
C83 C 0.6493 0.67863 0.51807 0.0
O84 O 0.59014 0.63997 0.57371 0.0
O85 O 0.61529 0.62771 0.57651 0.0
O86 O 0.65692 0.67046 0.54268 0.0
O87 O 0.63207 0.68152 0.52745 0.0
C88 C 0.61396 0.69737 0.60818 0.0
O89 O 0.66288 0.68853 0.62048 0.0
O90 O 0.63689 0.65334 0.63673 0.0
In91 In 0.94024 0.61639 0.91164 0.0
O92 O 0.90018 0.58993 0.91623 0.0
O93 O 0.91155 0.62713 0.91157 0.0
C94 C 0.95625 0.58488 0.90883 0.0
C95 C 0.955 0.63517 0.97855 0.0
C96 C 0.95267 0.63646 0.84513 0.0
O97 O 0.93421 0.57841 0.90771 0.0
O98 O 0.97019 0.60723 0.91164 0.0
O99 O 0.95981 0.64899 0.87373 0.0
O100 O 0.93939 0.61424 0.85039 0.0
C101 C 0.89427 0.60593 0.91516 0.0
O102 O 0.96627 0.64622 0.95027 0.0
O103 O 0.93669 0.61501 0.97283 0.0
In104 In 0.32864 0.95023 0.24731 0.0
O105 O 0.31155 0.90974 0.25331 0.0
O106 O 0.28917 0.9253 0.25882 0.0
C107 C 0.37438 0.9619 0.23325 0.0
C108 C 0.33082 0.96524 0.31618 0.0
C109 C 0.31723 0.96399 0.18486 0.0
O110 O 0.35719 0.94053 0.23198 0.0
O111 O 0.36845 0.97727 0.24148 0.0
O112 O 0.32315 0.97685 0.21312 0.0
O113 O 0.31667 0.94422 0.18849 0.0
C114 C 0.29088 0.90656 0.26005 0.0
O115 O 0.32572 0.97472 0.2901 0.0
O116 O 0.33534 0.94901 0.30715 0.0
In117 In 0.37198 0.33127 0.57834 0.0
O118 O 0.39814 0.31856 0.59435 0.0
O119 O 0.3607 0.29331 0.59581 0.0
C120 C 0.40643 0.37654 0.56301 0.0
C121 C 0.3521 0.3345 0.64108 0.0
C122 C 0.35058 0.31756 0.51284 0.0
O123 O 0.41101 0.35981 0.56823 0.0
O124 O 0.38447 0.37031 0.56507 0.0
O125 O 0.34346 0.32658 0.53687 0.0
O126 O 0.3682 0.31526 0.52208 0.0
C127 C 0.38177 0.29738 0.60129 0.0
O128 O 0.33966 0.32033 0.61602 0.0
O129 O 0.37412 0.34732 0.63389 0.0
In130 In 0.04687 0.3778 0.91367 0.0
O131 O 0.02615 0.34563 0.95208 0.0
O132 O 0.03953 0.38089 0.97283 0.0
C133 C 0.0359 0.35635 0.84802 0.0
C134 C 0.09185 0.38796 0.92856 0.0
C135 C 0.03434 0.41151 0.90285 0.0
O136 O 0.02095 0.34922 0.87381 0.0
O137 O 0.05625 0.37391 0.8556 0.0
O138 O 0.05597 0.41644 0.90356 0.0
O139 O 0.01911 0.38958 0.90712 0.0
C140 C 0.02862 0.35868 0.97926 0.0
O141 O 0.08631 0.40415 0.92522 0.0
O142 O 0.07482 0.36681 0.9235 0.0
In143 In 0.66762 0.03962 0.24275 0.0
O144 O 0.68201 0.07941 0.25406 0.0
O145 O 0.70558 0.06539 0.26102 0.0
C146 C 0.62224 0.02817 0.227 0.0
C147 C 0.66374 0.01856 0.30765 0.0
C148 C 0.68136 0.03081 0.17807 0.0
O149 O 0.63862 0.04954 0.23279 0.0
O150 O 0.62888 0.01274 0.22875 0.0
O151 O 0.67233 0.01508 0.20269 0.0
O152 O 0.68382 0.05094 0.1864 0.0
C153 C 0.70258 0.08331 0.26331 0.0
O154 O 0.67601 0.01701 0.28206 0.0
O155 O 0.65305 0.02989 0.29988 0.0
H156 H 0.30452 0.36256 0.20888 0.0
H157 H 0.30339 0.34642 0.26935 0.0
H158 H 0.32684 0.29953 0.22474 0.0
H159 H 0.32817 0.31573 0.1639 0.0
H160 H 0.27992 0.29733 0.29919 0.0
H161 H 0.37997 0.34431 0.29838 0.0
H162 H 0.36324 0.3513 0.26611 0.0
H163 H 0.36459 0.32421 0.26131 0.0
C164 C 0.30912 0.34857 0.21181 0.0
C165 C 0.31672 0.3406 0.18177 0.0
C166 C 0.30835 0.3393 0.24634 0.0
C167 C 0.31527 0.32201 0.25145 0.0
C168 C 0.32164 0.31305 0.22127 0.0
H169 H 0.35929 0.29312 0.46025 0.0
H170 H 0.34697 0.2884 0.39659 0.0
C171 C 0.32235 0.32228 0.18661 0.0
C172 C 0.31794 0.31526 0.28877 0.0
H173 H 0.36053 0.32526 0.3522 0.0
C174 C 0.29749 0.30312 0.31078 0.0
C175 C 0.3409 0.32286 0.30364 0.0
C176 C 0.36351 0.33653 0.28136 0.0
C177 C 0.29945 0.29876 0.34764 0.0
C178 C 0.32251 0.30731 0.3629 0.0
C179 C 0.34286 0.31867 0.34047 0.0
C180 C 0.32638 0.30648 0.40243 0.0
C181 C 0.27683 0.28517 0.36984 0.0
C182 C 0.31853 0.3178 0.42704 0.0
C183 C 0.32537 0.32034 0.46351 0.0
C184 C 0.34055 0.31196 0.4758 0.0
C185 C 0.34766 0.29984 0.45147 0.0
C186 C 0.34061 0.29709 0.41513 0.0
H187 H 0.26136 0.27293 0.3525 0.0
H188 H 0.27903 0.27446 0.39159 0.0
H189 H 0.27246 0.29814 0.38267 0.0
H190 H 0.30809 0.32576 0.41774 0.0
H191 H 0.31975 0.32988 0.48163 0.0
H192 H 0.00909 0.32883 0.5007 0.0
H193 H 0.02338 0.32918 0.56259 0.0
H194 H 0.95183 0.3034 0.6039 0.0
H195 H 0.93746 0.30307 0.54238 0.0
H196 H 0.01852 0.35778 0.61828 0.0
H197 H 0.97497 0.26168 0.65745 0.0
H198 H 0.97925 0.27151 0.61068 0.0
H199 H 0.95524 0.27057 0.63694 0.0
C200 C 0.99634 0.3228 0.52292 0.0
C201 C 0.97219 0.31602 0.5168 0.0
C202 C 0.00451 0.32299 0.55818 0.0
C203 C 0.98858 0.31604 0.58767 0.0
C204 C 0.9643 0.30839 0.58141 0.0
H205 H 0.99123 0.32757 0.81951 0.0
H206 H 0.98124 0.31608 0.7557 0.0
C207 C 0.95617 0.30839 0.54629 0.0
C208 C 0.99769 0.31949 0.62533 0.0
H209 H 0.99126 0.29034 0.70562 0.0
C210 C 0.0129 0.34304 0.6373 0.0
C211 C 0.99002 0.30019 0.65001 0.0
C212 C 0.97412 0.27452 0.63815 0.0
C213 C 0.01995 0.34798 0.67374 0.0
C214 C 0.01211 0.3287 0.69865 0.0
C215 C 0.9973 0.30506 0.68646 0.0
C216 C 0.01823 0.333 0.73775 0.0
C217 C 0.03476 0.37388 0.68547 0.0
C218 C 0.04229 0.34549 0.74898 0.0
C219 C 0.04801 0.35235 0.78521 0.0
C220 C 0.02975 0.34639 0.81096 0.0
C221 C 0.00566 0.33245 0.80019 0.0
C222 C -6e-05 0.32587 0.76379 0.0
H223 H 0.0339 0.38633 0.66538 0.0
H224 H 0.02862 0.37684 0.71217 0.0
H225 H 0.05382 0.37864 0.68809 0.0
H226 H 0.05667 0.3506 0.7295 0.0
H227 H 0.06675 0.36282 0.79289 0.0
H228 H 0.68145 0.00539 0.83006 0.0
H229 H 0.69771 0.02058 0.89078 0.0
H230 H 0.65145 0.95028 0.93591 0.0
H231 H 0.6351 0.93505 0.87564 0.0
H232 H 0.6664 0.01801 0.94833 0.0
H233 H 0.71723 0.97241 0.98563 0.0
H234 H 0.71076 0.97615 0.93909 0.0
H235 H 0.68803 0.95284 0.96677 0.0
C236 C 0.67514 0.99309 0.85285 0.0
C237 C 0.65695 0.96908 0.84822 0.0
C238 C 0.68444 0.00177 0.88743 0.0
C239 C 0.67598 0.98646 0.91767 0.0
C240 C 0.65855 0.96226 0.91281 0.0
H241 H 0.66621 0.98691 0.1474 0.0
H242 H 0.66922 0.97845 0.0834 0.0
C243 C 0.6491 0.95364 0.8784 0.0
C244 C 0.68284 0.99619 0.95486 0.0
H245 H 0.70542 0.98884 0.03461 0.0
C246 C 0.67536 0.01205 0.96709 0.0
C247 C 0.69429 0.98812 0.97918 0.0
C248 C 0.70325 0.97159 0.967 0.0
C249 C 0.67784 0.01909 0.00359 0.0
C250 C 0.68879 0.01057 0.02827 0.0
C251 C 0.69708 0.99538 0.01567 0.0
C252 C 0.69008 0.01584 0.06765 0.0
C253 C 0.6674 0.03443 0.01569 0.0
C254 C 0.70163 0.03961 0.08027 0.0
C255 C 0.69961 0.04447 0.11666 0.0
C256 C 0.68644 0.02561 0.14116 0.0
C257 C 0.67642 0.00179 0.12907 0.0
C258 C 0.67815 0.99694 0.09254 0.0
H259 H 0.65461 0.03447 0.99544 0.0
H260 H 0.65789 0.02805 0.04204 0.0
H261 H 0.68213 0.05324 0.01919 0.0
H262 H 0.71148 0.05444 0.06172 0.0
H263 H 0.70778 0.06301 0.12539 0.0
H264 H 0.66823 0.68659 0.16927 0.0
H265 H 0.66913 0.69838 0.23285 0.0
H266 H 0.69882 0.65394 0.26423 0.0
H267 H 0.69797 0.64209 0.20096 0.0
H268 H 0.64296 0.66297 0.28703 0.0
H269 H 0.73971 0.717 0.32182 0.0
H270 H 0.72885 0.71251 0.2756 0.0
H271 H 0.73121 0.68921 0.29885 0.0
C272 C 0.67543 0.67976 0.18964 0.0
C273 C 0.68294 0.66336 0.18022 0.0
C274 C 0.67593 0.6865 0.22589 0.0
C275 C 0.68428 0.67722 0.25313 0.0
C276 C 0.69273 0.66165 0.24354 0.0
H277 H 0.67774 0.66341 0.48594 0.0
H278 H 0.68781 0.66571 0.42126 0.0
C279 C 0.69208 0.65477 0.20741 0.0
C280 C 0.68144 0.68136 0.29188 0.0
H281 H 0.71212 0.7027 0.37147 0.0
C282 C 0.65807 0.67196 0.30545 0.0
C283 C 0.70121 0.69279 0.31579 0.0
C284 C 0.7267 0.70365 0.30232 0.0
C285 C 0.65383 0.67298 0.34256 0.0
C286 C 0.67359 0.68434 0.36663 0.0
C287 C 0.69702 0.69408 0.35296 0.0
C288 C 0.67005 0.68552 0.40618 0.0
C289 C 0.62817 0.66096 0.35579 0.0
C290 C 0.65753 0.69665 0.41928 0.0
C291 C 0.65153 0.6951 0.45599 0.0
C292 C 0.65833 0.68277 0.48039 0.0
C293 C 0.67222 0.67297 0.4677 0.0
C294 C 0.67799 0.67429 0.43081 0.0
H295 H 0.61552 0.64779 0.33575 0.0
H296 H 0.62611 0.65149 0.38192 0.0
H297 H 0.62289 0.67477 0.36014 0.0
H298 H 0.65177 0.70594 0.40089 0.0
H299 H 0.64106 0.70308 0.46511 0.0
H300 H 0.94303 0.61159 0.78209 0.0
H301 H 0.95611 0.6273 0.72112 0.0
H302 H 0.99065 0.69969 0.76283 0.0
H303 H 0.97812 0.68391 0.82464 0.0
H304 H 0.94752 0.65654 0.67855 0.0
H305 H 0.04518 0.69884 0.70911 0.0
H306 H 0.02247 0.67877 0.74051 0.0
H307 H 0.02856 0.70911 0.73552 0.0
C308 C 0.95337 0.63087 0.77839 0.0
C309 C 0.95974 0.64652 0.80819 0.0
C310 C 0.96076 0.63984 0.74345 0.0
C311 C 0.97459 0.66466 0.73741 0.0
C312 C 0.98038 0.68046 0.76695 0.0
H313 H 0.00479 0.69814 0.50275 0.0
H314 H 0.99233 0.70124 0.5647 0.0
C315 C 0.97314 0.67144 0.80218 0.0
C316 C 0.9834 0.67337 0.70014 0.0
H317 H 0.03428 0.69839 0.64842 0.0
C318 C 0.9665 0.66604 0.6719 0.0
C319 C 0.00819 0.68574 0.69164 0.0
C320 C 0.02722 0.69347 0.72066 0.0
C321 C 0.97362 0.6693 0.63533 0.0
C322 C -0.00162 0.68081 0.62682 0.0
C323 C 0.01531 0.68958 0.65507 0.0
C324 C 0.00699 0.68077 0.58946 0.0
C325 C 0.95453 0.65889 0.60628 0.0
C326 C 0.01997 0.66893 0.583 0.0
C327 C 0.02732 0.66743 0.548 0.0
C328 C 0.02176 0.67766 0.51853 0.0
C329 C 0.00913 0.68992 0.52495 0.0
C330 C 0.00193 0.69161 0.56025 0.0
H331 H 0.9364 0.64682 0.61774 0.0
H332 H 0.95394 0.6737 0.59174 0.0
H333 H 0.95867 0.64861 0.58615 0.0
H334 H 0.02404 0.66039 0.60507 0.0
H335 H 0.03706 0.65789 0.54398 0.0
H336 H 0.32697 0.0091 0.16594 0.0
H337 H 0.32685 0.02376 0.10451 0.0
H338 H 0.29963 0.95224 0.06216 0.0
H339 H 0.29975 0.93749 0.12325 0.0
H340 H 0.35533 0.01818 0.0495 0.0
H341 H 0.2599 0.97744 0.0077 0.0
H342 H 0.26912 0.98117 0.05474 0.0
H343 H 0.26787 0.95706 0.02839 0.0
C344 C 0.3204 0.99642 0.14365 0.0
C345 C 0.31352 0.9722 0.14929 0.0
C346 C 0.32033 0.0048 0.10863 0.0
C347 C 0.31301 0.98902 0.07892 0.0
C348 C 0.30492 0.96461 0.08481 0.0
H349 H 0.32822 0.99551 0.8468 0.0
H350 H 0.31499 0.98417 0.90982 0.0
C351 C 0.30518 0.95626 0.1197 0.0
C352 C 0.31708 0.99847 0.04142 0.0
H353 H 0.28925 0.99397 0.96048 0.0
C354 C 0.34089 0.01323 0.03013 0.0
C355 C 0.29819 0.99159 0.01623 0.0
C356 C 0.27229 0.97609 0.02733 0.0
C357 C 0.34644 0.02067 0.99394 0.0
C358 C 0.32756 0.01378 0.96856 0.0
C359 C 0.30367 -0.00068 0.98 0.0
C360 C 0.33255 0.02073 0.92981 0.0
C361 C 0.37255 0.03491 0.98298 0.0
C362 C 0.34593 0.04502 0.91995 0.0
C363 C 0.35381 0.05148 0.88425 0.0
C364 C 0.34796 0.03376 0.85762 0.0
C365 C 0.33303 0.0095 0.86687 0.0
C366 C 0.32546 0.00303 0.9028 0.0
H367 H 0.38442 0.03307 0.00308 0.0
H368 H 0.37553 0.02908 0.95604 0.0
H369 H 0.37807 0.05422 0.98128 0.0
H370 H 0.35103 0.05898 0.94016 0.0
H371 H 0.36502 0.07034 0.87771 0.0
H372 H 0.10798 0.35624 0.93389 0.0
H373 H 0.14648 0.36371 0.95812 0.0
H374 H 0.16851 0.43842 0.97364 0.0
H375 H 0.12985 0.43109 0.94943 0.0
H376 H 0.19511 0.39832 0.93457 0.0
H377 H 0.17382 0.41266 0.07601 0.0
H378 H 0.15086 0.3982 0.0418 0.0
H379 H 0.17072 0.43007 0.04036 0.0
C380 C 0.12109 0.37431 0.94215 0.0
C381 C 0.11591 0.39306 0.93998 0.0
C382 C 0.14305 0.37854 0.95594 0.0
C383 C 0.16012 0.40153 0.96798 0.0
C384 C 0.15537 0.4205 0.96482 0.0
H385 H 0.29994 0.43125 0.05549 0.0
H386 H 0.26861 0.43859 0.03115 0.0
C387 C 0.13339 0.4163 0.95086 0.0
C388 C 0.18248 0.40513 0.98487 0.0
H389 H 0.20963 0.41182 0.06712 0.0
C390 C 0.19855 0.4017 0.96342 0.0
C391 C 0.18672 0.4094 0.02255 0.0
C392 C 0.16963 0.41268 0.04675 0.0
C393 C 0.21842 0.40168 0.97895 0.0
C394 C 0.22212 0.40504 0.01676 0.0
C395 C 0.20664 0.40938 0.03807 0.0
C396 C 0.24048 0.40145 0.03484 0.0
C397 C 0.23483 0.39703 0.95529 0.0
C398 C 0.23469 0.37826 0.0455 0.0
C399 C 0.25241 0.374 0.05926 0.0
C400 C 0.2762 0.39292 0.06259 0.0
C401 C 0.28174 0.41635 0.05325 0.0
C402 C 0.26395 0.42059 0.03937 0.0
H403 H 0.23057 0.39659 0.92597 0.0
H404 H 0.25379 0.41115 0.95984 0.0
H405 H 0.23315 0.37953 0.96284 0.0
H406 H 0.2166 0.36333 0.04208 0.0
H407 H 0.24762 0.35577 0.06626 0.0
H408 H 0.89121 0.24201 0.39996 0.0
H409 H 0.85232 0.20939 0.37979 0.0
H410 H 0.82438 0.25798 0.37701 0.0
H411 H 0.86347 0.29093 0.3969 0.0
H412 H 0.8053 0.19057 0.40977 0.0
H413 H 0.81433 0.23077 0.27249 0.0
H414 H 0.83947 0.24089 0.30311 0.0
H415 H 0.81702 0.2492 0.31094 0.0
C416 C 0.87674 0.24572 0.39542 0.0
C417 C 0.8804 0.26903 0.39971 0.0
C418 C 0.85454 0.22708 0.38394 0.0
C419 C 0.83567 0.23142 0.37644 0.0
C420 C 0.8389 0.25442 0.38214 0.0
H421 H 0.70048 0.12448 0.27274 0.0
H422 H 0.73069 0.1618 0.30205 0.0
C423 C 0.86115 0.27314 0.39367 0.0
C424 C 0.81306 0.21187 0.36124 0.0
H425 H 0.78103 0.19245 0.28244 0.0
C426 C 0.79978 0.19107 0.3821 0.0
C427 C 0.80593 0.2127 0.32517 0.0
C428 C 0.81994 0.23448 0.30139 0.0
C429 C 0.77999 0.1707 0.3674 0.0
C430 C 0.77362 0.17111 0.33079 0.0
C431 C 0.7861 0.19228 0.31048 0.0
C432 C 0.75557 0.14907 0.31227 0.0
C433 C 0.76636 0.1487 0.39088 0.0
C434 C 0.75998 0.12999 0.30752 0.0
C435 C 0.74297 0.10886 0.29071 0.0
C436 C 0.72123 0.10646 0.27826 0.0
C437 C 0.71708 0.12586 0.28213 0.0
C438 C 0.73423 0.1471 0.2989 0.0
H439 H 0.76897 0.15332 0.42023 0.0
H440 H 0.74685 0.13935 0.3847 0.0
H441 H 0.77302 0.13605 0.38547 0.0
H442 H 0.77659 0.13141 0.31705 0.0
H443 H 0.7467 0.09425 0.28802 0.0
H444 H 0.56702 0.85965 0.73311 0.0
H445 H 0.55957 0.81954 0.71645 0.0
H446 H 0.63542 0.84463 0.72414 0.0
H447 H 0.64298 0.88454 0.74094 0.0
H448 H 0.57875 0.8101 0.6549 0.0
H449 H 0.60534 0.78071 0.77901 0.0
H450 H 0.59848 0.80475 0.77919 0.0
H451 H 0.62762 0.81035 0.76496 0.0
C452 C 0.58203 0.85646 0.73188 0.0
C453 C 0.60558 0.87519 0.73828 0.0
C454 C 0.57774 0.83359 0.72235 0.0
C455 C 0.59691 0.82908 0.71956 0.0
C456 C 0.62033 0.8476 0.72692 0.0
H457 H 0.63128 0.74391 0.58838 0.0
H458 H 0.62213 0.77301 0.61578 0.0
C459 C 0.62463 0.87044 0.73627 0.0
C460 C 0.59299 0.80583 0.70554 0.0
H461 H 0.60595 0.76144 0.72307 0.0
C462 C 0.58423 0.79916 0.67005 0.0
C463 C 0.59987 0.79146 0.7255 0.0
C464 C 0.60812 0.79703 0.76442 0.0
C465 C 0.58366 0.77935 0.65313 0.0
C466 C 0.59231 0.76611 0.67213 0.0
C467 C 0.59956 0.7718 0.70843 0.0
C468 C 0.59609 0.74779 0.65387 0.0
C469 C 0.57441 0.77313 0.61474 0.0
C470 C 0.58461 0.72401 0.66646 0.0
C471 C 0.58983 0.70731 0.65083 0.0
C472 C 0.60684 0.71427 0.62273 0.0
C473 C 0.61803 0.73801 0.6099 0.0
C474 C 0.61272 0.75462 0.62537 0.0
H475 H 0.56196 0.77988 0.60822 0.0
H476 H 0.58978 0.78166 0.5956 0.0
H477 H 0.56496 0.75341 0.61022 0.0
H478 H 0.57188 0.71849 0.68866 0.0
H479 H 0.58102 0.68914 0.66136 0.0
H480 H 0.68603 0.57994 0.00333 0.0
H481 H 0.71385 0.56886 0.97573 0.0
H482 H 0.77023 0.6184 0.04686 0.0
H483 H 0.74258 0.62936 0.07471 0.0
H484 H 0.75547 0.60029 0.9394 0.0
H485 H 0.77624 0.55831 0.05423 0.0
H486 H 0.75043 0.56244 0.05412 0.0
H487 H 0.77959 0.58684 0.06646 0.0
C488 C 0.70426 0.58814 0.01348 0.0
C489 C 0.71218 0.60551 0.04116 0.0
C490 C 0.72009 0.58181 0.99769 0.0
C491 C 0.74397 0.59256 0.00962 0.0
C492 C 0.75172 0.60948 0.03783 0.0
H493 H 0.87777 0.63752 0.91466 0.0
H494 H 0.83789 0.62971 0.93215 0.0
C495 C 0.73595 0.61585 0.05354 0.0
C496 C 0.76153 0.58796 0.99061 0.0
H497 H 0.80587 0.57471 0.00628 0.0
C498 C 0.76618 0.59421 0.95378 0.0
C499 C 0.77518 0.57964 0.00923 0.0
C500 C 0.76994 0.57118 0.0481 0.0
C501 C 0.78529 0.59399 0.93579 0.0
C502 C 0.80027 0.58771 0.95536 0.0
C503 C 0.79453 0.5798 0.99142 0.0
C504 C 0.82326 0.59155 0.94037 0.0
C505 C 0.78965 0.60108 0.89628 0.0
C506 C 0.82829 0.57268 0.93931 0.0
C507 C 0.85117 0.57714 0.92952 0.0
C508 C 0.86939 0.60058 0.921 0.0
C509 C 0.86406 0.61927 0.92096 0.0
C510 C 0.84122 0.6148 0.93069 0.0
H511 H 0.77274 0.5973 0.88249 0.0
H512 H 0.8024 0.62067 0.89424 0.0
H513 H 0.79747 0.59145 0.88172 0.0
H514 H 0.81471 0.55466 0.94698 0.0
H515 H 0.85481 0.56241 0.92986 0.0
H516 H 0.128 0.70262 0.39613 0.0
H517 H 0.16681 0.73545 0.37532 0.0
H518 H 0.14111 0.78541 0.3894 0.0
H519 H 0.10255 0.75288 0.41069 0.0
H520 H 0.1721 0.76196 0.31423 0.0
H521 H 0.2077 0.82201 0.43343 0.0
H522 H 0.18379 0.79118 0.43701 0.0
H523 H 0.1774 0.81429 0.42325 0.0
C524 C 0.13085 0.72072 0.39561 0.0
C525 C 0.11227 0.72523 0.40498 0.0
C526 C 0.15298 0.7394 0.38365 0.0
C527 C 0.15689 0.76287 0.38118 0.0
C528 C 0.13866 0.76753 0.39186 0.0
H529 H 0.24603 0.89659 0.27957 0.0
H530 H 0.21469 0.8599 0.30803 0.0
C531 C 0.11657 0.74889 0.40384 0.0
C532 C 0.17892 0.78207 0.36392 0.0
H533 H 0.22359 0.84011 0.37511 0.0
C534 C 0.18367 0.7789 0.32771 0.0
C535 C 0.19396 0.80409 0.38164 0.0
C536 C 0.19061 0.80803 0.4211 0.0
C537 C 0.20229 0.7977 0.30813 0.0
C538 C 0.2165 0.82006 0.32536 0.0
C539 C 0.21243 0.82292 0.36197 0.0
C540 C 0.23481 0.84121 0.3054 0.0
C541 C 0.20599 0.79396 0.26873 0.0
C542 C 0.25627 0.84257 0.29401 0.0
C543 C 0.27422 0.86352 0.27767 0.0
C544 C 0.27092 0.88336 0.27264 0.0
C545 C 0.24906 0.88158 0.28302 0.0
C546 C 0.2312 0.8607 0.2994 0.0
H547 H 0.19143 0.77654 0.25815 0.0
H548 H 0.20689 0.80871 0.25188 0.0
H549 H 0.22332 0.79428 0.26566 0.0
H550 H 0.25939 0.82772 0.29876 0.0
H551 H 0.29095 0.86445 0.2701 0.0
H552 H 0.43098 0.13905 0.73669 0.0
H553 H 0.4358 0.17779 0.71756 0.0
H554 H 0.35884 0.14701 0.71782 0.0
H555 H 0.3539 0.10849 0.73712 0.0
H556 H 0.41724 0.18556 0.65333 0.0
H557 H 0.38224 0.20986 0.77364 0.0
H558 H 0.39153 0.18758 0.77529 0.0
H559 H 0.36227 0.17981 0.75832 0.0
C560 C 0.41513 0.14069 0.7332 0.0
C561 C 0.39206 0.1208 0.73843 0.0
C562 C 0.41791 0.16277 0.72224 0.0
C563 C 0.39769 0.1653 0.7168 0.0
C564 C 0.3747 0.14556 0.72264 0.0
H565 H 0.34899 0.25166 0.6203 0.0
H566 H 0.3565 0.22179 0.64898 0.0
C567 C 0.3719 0.12352 0.73345 0.0
C568 C 0.40024 0.1879 0.70235 0.0
H569 H 0.38242 0.22902 0.71734 0.0
C570 C 0.4101 0.19542 0.66756 0.0
C571 C 0.39096 0.20069 0.72111 0.0
C572 C 0.38138 0.19422 0.75932 0.0
C573 C 0.40953 0.21452 0.65006 0.0
C574 C 0.39905 0.22642 0.66809 0.0
C575 C 0.39029 0.21968 0.70356 0.0
C576 C 0.39513 0.24455 0.64961 0.0
C577 C 0.41892 0.22102 0.61176 0.0
C578 C 0.41446 0.26716 0.64036 0.0
C579 C 0.41023 0.28431 0.62389 0.0
C580 C 0.38661 0.27902 0.61657 0.0
C581 C 0.36738 0.25623 0.62553 0.0
C582 C 0.37161 0.23919 0.642 0.0
H583 H 0.42357 0.20796 0.59994 0.0
H584 H 0.40539 0.22189 0.59408 0.0
H585 H 0.4353 0.23904 0.61167 0.0
H586 H 0.43272 0.27165 0.6464 0.0
H587 H 0.42537 0.30178 0.61742 0.0
H588 H 0.37375 0.36825 0.69346 0.0
H589 H 0.36061 0.36651 0.75618 0.0
H590 H 0.29615 0.29939 0.73411 0.0
H591 H 0.30912 0.30107 0.67076 0.0
H592 H 0.30962 0.35705 0.78328 0.0
H593 H 0.33809 0.29097 0.82138 0.0
H594 H 0.35174 0.31096 0.7833 0.0
H595 H 0.32121 0.28709 0.78031 0.0
C596 C 0.3566 0.35328 0.70175 0.0
C597 C 0.34247 0.33475 0.67731 0.0
C598 C 0.34914 0.35233 0.73754 0.0
C599 C 0.32755 0.33276 0.74962 0.0
C600 C 0.31291 0.31459 0.72511 0.0
H601 H 0.30139 0.31717 0.98627 0.0
H602 H 0.29607 0.3065 0.92145 0.0
C603 C 0.32028 0.31563 0.68902 0.0
C604 C 0.32138 0.33119 0.78847 0.0
H605 H 0.32993 0.31027 0.86898 0.0
C606 C 0.31353 0.34645 0.80205 0.0
C607 C 0.32638 0.3172 0.81267 0.0
C608 C 0.33484 0.30056 0.79897 0.0
C609 C 0.31171 0.34901 0.83953 0.0
C610 C 0.31855 0.33645 0.86387 0.0
C611 C 0.32487 0.31998 0.85022 0.0
C612 C 0.32185 0.34226 0.90306 0.0
C613 C 0.30318 0.3657 0.85275 0.0
C614 C 0.33866 0.36563 0.91405 0.0
C615 C 0.34176 0.37171 0.95073 0.0
C616 C 0.32826 0.35448 0.97725 0.0
C617 C 0.31202 0.33081 0.96637 0.0
C618 C 0.3089 0.32472 0.92945 0.0
H619 H 0.2914 0.36745 0.83238 0.0
H620 H 0.29321 0.35933 0.87876 0.0
H621 H 0.31895 0.38383 0.85721 0.0
H622 H 0.34931 0.37926 0.89415 0.0
H623 H 0.35453 0.39005 0.95825 0.0
H624 H 0.95076 0.33652 0.28654 0.0
H625 H 0.96127 0.33324 0.22415 0.0
H626 H 0.00329 0.30209 0.26144 0.0
H627 H 0.99293 0.30554 0.32461 0.0
H628 H 0.02728 0.33869 0.21193 0.0
H629 H 0.93722 0.27447 0.15916 0.0
H630 H 0.93697 0.29877 0.18266 0.0
H631 H 0.94381 0.27867 0.20717 0.0
C632 C 0.96214 0.32884 0.28158 0.0
C633 C 0.97102 0.32127 0.31047 0.0
C634 C 0.96792 0.32674 0.24582 0.0
C635 C 0.98256 0.31688 0.2381 0.0
C636 C 0.99167 0.30944 0.26686 0.0
H637 H 0.00805 0.31194 0.00283 0.0
H638 H 0.99785 0.29752 0.0658 0.0
C639 C 0.98582 0.31149 0.30285 0.0
C640 C 0.98964 0.31627 0.20002 0.0
H641 H 0.96616 0.30139 0.11459 0.0
C642 C 0.01398 0.33005 0.1907 0.0
C643 C 0.97235 0.3046 0.17235 0.0
C644 C 0.94616 0.28808 0.1809 0.0
C645 C 0.02125 0.33417 0.15424 0.0
C646 C 0.00366 0.32458 0.12657 0.0
C647 C 0.97957 0.30908 0.13587 0.0
C648 C 0.00958 0.33273 0.08846 0.0
C649 C 0.04763 0.3495 0.1457 0.0
C650 C 0.01882 0.3571 0.08039 0.0
C651 C 0.0245 0.36529 0.04478 0.0
C652 C 0.02089 0.34925 0.01636 0.0
C653 C 0.01102 0.32469 0.02423 0.0
C654 C 0.00529 0.31646 0.0601 0.0
H655 H 0.05889 0.34858 0.16782 0.0
H656 H 0.05229 0.3439 0.11984 0.0
H657 H 0.05216 0.36851 0.14302 0.0
H658 H 0.02164 0.36984 0.10175 0.0
H659 H 0.03193 0.38429 0.03959 0.0
H660 H 0.60667 0.94232 0.62145 0.0
H661 H 0.61842 0.95165 0.55801 0.0
H662 H 0.69229 0.99682 0.5901 0.0
H663 H 0.68057 0.98762 0.65421 0.0
H664 H 0.67622 0.01844 0.54076 0.0
H665 H 0.65373 0.92818 0.49225 0.0
H666 H 0.62937 0.92758 0.51695 0.0
H667 H 0.65723 0.93607 0.53984 0.0
C668 C 0.62546 0.95414 0.6151 0.0
C669 C 0.64272 0.96424 0.6428 0.0
C670 C 0.63217 0.95927 0.57877 0.0
C671 C 0.65628 0.97449 0.56933 0.0
C672 C 0.67362 0.98477 0.59687 0.0
H673 H 0.68998 -0.00091 0.33508 0.0
H674 H 0.69194 0.98877 0.39882 0.0
C675 C 0.6669 0.97957 0.6334 0.0
C676 C 0.66276 0.98083 0.53072 0.0
H677 H 0.65494 0.95579 0.44647 0.0
C678 C 0.67204 0.00483 0.52019 0.0
C679 C 0.65767 0.96312 0.50394 0.0
C680 C 0.64919 0.93733 0.51384 0.0
C681 C 0.67474 0.0113 0.4834 0.0
C682 C 0.66763 0.99324 0.45659 0.0
C683 C 0.66002 0.96954 0.46711 0.0
C684 C 0.66598 0.99834 0.41787 0.0
C685 C 0.68454 0.03734 0.47354 0.0
C686 C 0.65016 0.00631 0.40748 0.0
C687 C 0.64894 0.01209 0.37139 0.0
C688 C 0.66343 0.00986 0.34486 0.0
C689 C 0.67861 0.00097 0.35498 0.0
C690 C 0.67982 0.99516 0.39131 0.0
H691 H 0.69577 0.04946 0.49574 0.0
H692 H 0.69545 0.04208 0.44833 0.0
H693 H 0.66935 0.04062 0.46889 0.0
H694 H 0.6389 0.00831 0.42745 0.0
H695 H 0.63694 0.01874 0.36441 0.0
H696 H 0.69103 0.71432 0.67385 0.0
H697 H 0.70504 0.72086 0.73702 0.0
H698 H 0.66166 0.64488 0.75776 0.0
H699 H 0.64769 0.63824 0.69499 0.0
H700 H 0.67355 0.7096 0.79553 0.0
H701 H 0.72493 0.66204 0.80829 0.0
H702 H 0.71886 0.67108 0.76493 0.0
H703 H 0.69646 0.64391 0.78652 0.0
C704 C 0.68503 0.69895 0.69165 0.0
C705 C 0.66825 0.67576 0.67955 0.0
C706 C 0.69298 0.70273 0.72772 0.0
C707 C 0.68457 0.68333 0.75197 0.0
C708 C 0.66876 0.66005 0.73936 0.0
H709 H 0.64161 0.65415 0.96782 0.0
H710 H 0.64829 0.66644 0.9042 0.0
C711 C 0.66068 0.65629 0.7035 0.0
C712 C 0.68981 0.68739 0.79133 0.0
H713 H 0.70747 0.66686 0.86368 0.0
C714 C 0.68148 0.70072 0.8104 0.0
C715 C 0.70042 0.67607 0.81067 0.0
C716 C 0.71091 0.66268 0.79149 0.0
C717 C 0.68186 0.70153 0.84849 0.0
C718 C 0.69058 0.68849 0.86789 0.0
C719 C 0.70056 0.67667 0.84877 0.0
C720 C 0.68707 0.68455 0.90759 0.0
C721 C 0.67222 0.71568 0.86766 0.0
C722 C 0.70667 0.69087 0.93074 0.0
C723 C 0.70289 0.68391 0.96727 0.0
C724 C 0.67942 0.6702 0.98097 0.0
C725 C 0.65989 0.66479 0.95807 0.0
C726 C 0.66369 0.6719 0.92173 0.0
H727 H 0.67359 0.73043 0.85024 0.0
H728 H 0.65296 0.70359 0.87411 0.0
H729 H 0.68198 0.72347 0.89346 0.0
H730 H 0.72484 0.70047 0.92026 0.0
H731 H 0.71827 0.68818 0.98422 0.0
H732 H 0.05648 0.69478 0.2906 0.0
H733 H 0.04475 0.6948 0.22762 0.0
H734 H 0.97007 0.65526 0.25874 0.0
H735 H 0.98182 0.65601 0.3223 0.0
H736 H 0.02122 0.65625 0.18728 0.0
H737 H 0.9693 0.70375 0.19091 0.0
H738 H 0.98779 0.70456 0.22838 0.0
H739 H 0.9581 0.67919 0.22237 0.0
C740 C 0.03754 0.68646 0.28412 0.0
C741 C 0.02002 0.67533 0.31127 0.0
C742 C 0.03087 0.6865 0.24812 0.0
C743 C 0.00654 0.67523 0.23839 0.0
C744 C 0.98896 0.6646 0.26564 0.0
H745 H 0.92957 0.61741 0.04085 0.0
H746 H 0.94308 0.63022 0.10307 0.0
C747 C 0.99566 0.66488 0.30192 0.0
C748 C -0.00021 0.67259 0.1994 0.0
H749 H 0.96514 0.68081 0.13714 0.0
C750 C 0.00923 0.66196 0.17627 0.0
C751 C 0.98412 0.68001 0.18499 0.0
C752 C 0.97444 0.69273 0.20789 0.0
C753 C 0.00294 0.65795 0.13946 0.0
C754 C 0.98682 0.66478 0.12535 0.0
C755 C 0.97757 0.67568 0.14818 0.0
C756 C 0.97816 0.65906 0.08752 0.0
C757 C 0.01295 0.64573 0.11605 0.0
C758 C 0.99335 0.67139 0.05822 0.0
C759 C 0.98565 0.66417 0.0225 0.0
C760 C 0.96274 0.6444 0.01575 0.0
C761 C 0.94738 0.63261 0.04521 0.0
C762 C 0.955 0.63996 0.08076 0.0
H763 H 0.02311 0.63913 0.13213 0.0
H764 H -0.0018 0.63032 0.1014 0.0
H765 H 0.02521 0.65859 0.09541 0.0
H766 H 0.0113 0.68622 0.06305 0.0
H767 H 0.99783 0.67358 0.00031 0.0
H768 H 0.32997 0.93972 0.37515 0.0
H769 H 0.33134 0.95039 0.43892 0.0
H770 H 0.3341 0.01651 0.40817 0.0
H771 H 0.33182 0.0054 0.34389 0.0
H772 H 0.36689 0.98708 0.47187 0.0
H773 H 0.28458 0.99353 0.48804 0.0
H774 H 0.28985 0.98003 0.44869 0.0
H775 H 0.30377 0.01217 0.45222 0.0
C776 C 0.33065 0.95645 0.38193 0.0
C777 C 0.33091 0.97181 0.35459 0.0
C778 C 0.33137 0.96249 0.41841 0.0
C779 C 0.33257 0.98412 0.42842 0.0
C780 C 0.3326 -0.00055 0.40116 0.0
H781 H 0.39416 0.05771 0.62864 0.0
H782 H 0.38385 0.04448 0.56591 0.0
C783 C 0.33153 0.99322 0.36447 0.0
C784 C 0.33575 0.99124 0.46723 0.0
H785 H 0.31298 0.00907 0.53674 0.0
C786 C 0.35497 0.99172 0.48605 0.0
C787 C 0.32002 0.99699 0.48591 0.0
C788 C 0.29825 0.99544 0.4678 0.0
C789 C 0.35916 0.99813 0.52275 0.0
C790 C 0.34415 0.00499 0.54097 0.0
C791 C 0.32459 0.00404 0.52253 0.0
C792 C 0.34916 0.01391 0.57882 0.0
C793 C 0.37953 0.99729 0.54176 0.0
C794 C 0.33261 0.00163 0.60676 0.0
C795 C 0.33839 0.00932 0.64284 0.0
C796 C 0.36078 0.02935 0.6513 0.0
C797 C 0.37689 0.04201 0.62304 0.0
C798 C 0.37106 0.03446 0.58717 0.0
H799 H 0.38453 0.98515 0.5276 0.0
H800 H 0.39556 0.01556 0.542 0.0
H801 H 0.37477 0.99114 0.57029 0.0
H802 H 0.31554 0.9858 0.60076 0.0
H803 H 0.32559 -0.00067 0.66409 0.0
H804 H 0.41545 0.40458 0.09916 0.0
H805 H 0.45776 0.43566 0.10398 0.0
H806 H 0.43734 0.4901 0.10995 0.0
H807 H 0.39501 0.45911 0.10585 0.0
H808 H 0.48236 0.47236 0.05592 0.0
H809 H 0.48491 0.50911 0.1931 0.0
H810 H 0.46025 0.48078 0.17785 0.0
H811 H 0.46211 0.50855 0.16433 0.0
C812 C 0.41998 0.42315 0.10199 0.0
C813 C 0.40195 0.42944 0.10219 0.0
C814 C 0.44413 0.44086 0.10473 0.0
C815 C 0.45067 0.46514 0.10782 0.0
C816 C 0.43268 0.47143 0.10845 0.0
H817 H 0.58269 0.60082 0.09218 0.0
H818 H 0.54102 0.56823 0.09813 0.0
C819 C 0.40851 0.45372 0.10586 0.0
C820 C 0.47633 0.48398 0.10774 0.0
H821 H 0.51894 0.53221 0.15504 0.0
C822 C 0.49043 0.48529 0.07776 0.0
C823 C 0.48676 0.50087 0.13623 0.0
C824 C 0.4728 0.49967 0.16987 0.0
C825 C 0.51454 0.50341 0.07505 0.0
C826 C 0.52487 0.52046 0.1033 0.0
C827 C 0.51088 0.51908 0.13344 0.0
C828 C 0.5501 0.54012 0.1016 0.0
C829 C 0.52862 0.50458 0.04154 0.0
C830 C 0.56893 0.53504 0.10228 0.0
C831 C 0.59271 0.55358 0.0989 0.0
C832 C 0.598 0.57748 0.09487 0.0
C833 C 0.57913 0.58256 0.09511 0.0
C834 C 0.55536 0.56401 0.09857 0.0
H835 H 0.51674 0.49336 0.01913 0.0
H836 H 0.5395 0.52337 0.03178 0.0
H837 H 0.5411 0.49792 0.04825 0.0
H838 H 0.5652 0.51672 0.10511 0.0
H839 H 0.6069 0.54914 0.09898 0.0
H840 H 0.98423 0.5831 0.41377 0.0
H841 H 0.97262 0.54058 0.41634 0.0
H842 H 0.04724 0.56012 0.42092 0.0
H843 H 0.05903 0.60268 0.41816 0.0
H844 H 0.01872 0.52341 0.36936 0.0
H845 H 0.97711 0.50446 0.50656 0.0
H846 H 0.96649 0.5186 0.47541 0.0
H847 H 0.99714 0.53458 0.49055 0.0
C848 C 0.99816 0.57833 0.41537 0.0
C849 C 0.02253 0.59618 0.41588 0.0
C850 C 0.99149 0.55407 0.41704 0.0
C851 C 0.00908 0.5473 0.41934 0.0
C852 C 0.03342 0.56505 0.41937 0.0
H853 H 0.00744 0.41143 0.42239 0.0
H854 H 0.01893 0.4539 0.42235 0.0
C855 C 0.04011 0.58932 0.4178 0.0
C856 C 0.00212 0.52165 0.42089 0.0
H857 H 0.97269 0.47111 0.47282 0.0
C858 C 0.00875 0.51195 0.39201 0.0
C859 C 0.98904 0.50684 0.45046 0.0
C860 C 0.98215 0.51661 0.4827 0.0
C861 C 0.00229 0.48764 0.39161 0.0
C862 C 0.98931 0.47283 0.42128 0.0
C863 C 0.98266 0.48254 0.45015 0.0
C864 C 0.98241 0.44717 0.42278 0.0
C865 C 0.00894 0.47792 0.35904 0.0
C866 C 0.9581 0.42937 0.42435 0.0
C867 C 0.95148 0.40509 0.42473 0.0
C868 C 0.96911 0.39827 0.42364 0.0
C869 C 0.99346 0.41616 0.42298 0.0
C870 C 5e-05 0.44041 0.42273 0.0
H871 H 0.01304 0.48974 0.33494 0.0
H872 H 0.0252 0.47677 0.36547 0.0
H873 H 0.99424 0.45963 0.3519 0.0
H874 H 0.94423 0.43425 0.42465 0.0
H875 H 0.93258 0.39169 0.42532 0.0
H876 H 0.53986 0.93417 0.76813 0.0
H877 H 0.51131 0.94878 0.77299 0.0
H878 H 0.56988 0.02188 0.76835 0.0
H879 H 0.59845 0.00745 0.76283 0.0
H880 H 0.50778 0.97892 0.8244 0.0
H881 H 0.52581 0.01952 0.68671 0.0
H882 H 0.53578 -0.00097 0.70071 0.0
H883 H 0.55207 0.02997 0.71458 0.0
C884 C 0.54664 0.95335 0.76817 0.0
C885 C 0.57135 0.96968 0.7648 0.0
C886 C 0.53033 0.96166 0.77099 0.0
C887 C 0.53847 0.98639 0.7704 0.0
C888 C 0.56319 0.00272 0.76805 0.0
H889 H 0.46479 0.06903 0.77291 0.0
H890 H 0.49501 0.05646 0.77645 0.0
C891 C 0.57949 0.99444 0.76508 0.0
C892 C 0.52109 0.99511 0.77208 0.0
H893 H 0.50062 0.02699 0.72488 0.0
C894 C 0.50616 0.9894 0.80265 0.0
C895 C 0.51906 0.00878 0.74363 0.0
C896 C 0.53386 0.01453 0.70939 0.0
C897 C 0.48938 0.99722 0.80569 0.0
C898 C 0.48734 0.01082 0.77719 0.0
C899 C 0.50237 0.01667 0.74676 0.0
C900 C 0.46909 0.01843 0.77764 0.0
C901 C 0.47418 0.9911 0.83951 0.0
C902 C 0.44458 0.0012 0.77709 0.0
C903 C 0.42734 0.0083 0.77502 0.0
C904 C 0.43433 0.03279 0.77329 0.0
C905 C 0.45889 0.05004 0.77432 0.0
C906 C 0.47614 0.0429 0.7763 0.0
H907 H 0.48217 0.98625 0.86243 0.0
H908 H 0.47181 0.00638 0.84796 0.0
H909 H 0.45616 0.97548 0.83387 0.0
H910 H 0.43879 0.98221 0.77738 0.0
H911 H 0.40854 0.99459 0.77413 0.0
H912 H 0.54614 0.60672 0.56116 0.0
H913 H 0.51356 0.56516 0.55416 0.0
H914 H 0.56451 0.54034 0.5629 0.0
H915 H 0.59723 0.58185 0.56941 0.0
H916 H 0.53039 0.51795 0.50689 0.0
H917 H 0.48731 0.51685 0.63833 0.0
H918 H 0.49188 0.54066 0.60801 0.0
H919 H 0.51736 0.54002 0.62673 0.0
C920 C 0.5504 0.59241 0.56146 0.0
C921 C 0.57419 0.59749 0.56609 0.0
C922 C 0.53178 0.5687 0.55762 0.0
C923 C 0.53662 0.5497 0.5586 0.0
C924 C 0.56042 0.55477 0.56223 0.0
H925 H 0.45492 0.39459 0.56029 0.0
H926 H 0.4863 0.43681 0.55579 0.0
C927 C 0.57906 0.57847 0.56601 0.0
C928 C 0.51685 0.52447 0.55652 0.0
H929 H 0.46695 0.48244 0.60128 0.0
C930 C 0.51649 0.51015 0.52748 0.0
C931 C 0.4988 0.5144 0.58349 0.0
C932 C 0.49886 0.52866 0.6161 0.0
C933 C 0.49838 0.48599 0.52453 0.0
C934 C 0.48044 0.4759 0.55163 0.0
C935 C 0.4807 0.49029 0.58048 0.0
C936 C 0.46154 0.45026 0.55133 0.0
C937 C 0.49843 0.47157 0.49224 0.0
C938 C 0.43724 0.44387 0.5506 0.0
C939 C 0.4193 0.4198 0.55337 0.0
C940 C 0.42537 0.40173 0.55717 0.0
C941 C 0.44971 0.40812 0.55722 0.0
C942 C 0.46765 0.43221 0.55444 0.0
H943 H 0.50923 0.48334 0.46943 0.0
H944 H 0.50642 0.46045 0.50031 0.0
H945 H 0.47987 0.45935 0.48249 0.0
H946 H 0.43218 0.45757 0.54843 0.0
H947 H 0.40069 0.41542 0.5533 0.0
H948 H 0.00278 0.59484 0.90879 0.0
H949 H 0.01731 0.56625 0.90398 0.0
H950 H 0.94425 0.50762 0.89931 0.0
H951 H 0.92958 0.53609 0.90358 0.0
H952 H 0.00823 0.52854 0.95039 0.0
H953 H 0.97526 0.49508 0.81137 0.0
H954 H 0.9771 0.5221 0.82927 0.0
H955 H 0.95242 0.49315 0.84156 0.0
C956 C 0.98982 0.57586 0.9066 0.0
C957 C 0.96505 0.56767 0.90641 0.0
C958 C 0.99815 0.55958 0.90384 0.0
C959 C 0.98186 0.53489 0.90067 0.0
C960 C 0.95712 0.52665 0.9009 0.0
H961 H 0.98904 0.40483 0.90026 0.0
H962 H 0.97743 0.43573 0.89835 0.0
C963 C 0.94877 0.54292 0.9036 0.0
C964 C 0.99071 0.51765 0.89841 0.0
H965 H 0.9892 0.47313 0.84593 0.0
C966 C 0.00427 0.51656 0.92742 0.0
C967 C 0.9855 0.5021 0.86838 0.0
C968 C 0.97197 0.50326 0.8357 0.0
C969 C 0.01219 0.49981 0.9277 0.0
C970 C 0.00666 0.48401 0.89792 0.0
C971 C 0.99336 0.48529 0.86871 0.0
C972 C 0.0139 0.46552 0.8972 0.0
C973 C 0.02577 0.49863 0.96032 0.0
C974 C 0.03825 0.47211 0.89639 0.0
C975 C 0.04495 0.45451 0.89745 0.0
C976 C 0.02736 0.43007 0.89924 0.0
C977 C 0.00298 0.42353 0.899 0.0
C978 C 0.99632 0.44113 0.89788 0.0
H979 H 0.02411 0.50843 0.98399 0.0
H980 H 0.0192 0.4797 0.96835 0.0
H981 H 0.04509 0.50691 0.95336 0.0
H982 H 0.05206 0.49086 0.89527 0.0
H983 H 0.06387 0.46006 0.89745 0.0
H984 H 0.60266 0.05732 0.22922 0.0
H985 H 0.56006 0.04521 0.22463 0.0
H986 H 0.5423 0.9719 0.20608 0.0
H987 H 0.58474 0.98376 0.21121 0.0
H988 H 0.52573 0.02174 0.16906 0.0
H989 H 0.50203 0.96725 0.29534 0.0
H990 H 0.53266 0.98838 0.28298 0.0
H991 H 0.5171 0.95937 0.26166 0.0
C992 C 0.58968 0.03866 0.22391 0.0
C993 C 0.59696 0.02143 0.22094 0.0
C994 C 0.56539 0.03178 0.22127 0.0
C995 C 0.54805 0.00761 0.21568 0.0
C996 C 0.55539 0.99057 0.21115 0.0
H997 H 0.39179 0.93191 0.21749 0.0
H998 H 0.4339 0.94282 0.20958 0.0
C999 C 0.57963 0.99739 0.21393 0.0
C1000 C 0.52223 0.0001 0.21579 0.0
H1001 H 0.46992 0.96566 0.26191 0.0
C1002 C 0.51349 0.00948 0.18932 0.0
C1003 C 0.50637 0.98413 0.24233 0.0
C1004 C 0.51498 0.97433 0.27241 0.0
C1005 C 0.48918 0.00311 0.18847 0.0
C1006 C 0.47339 0.98724 0.21513 0.0
C1007 C 0.48209 0.97772 0.2414 0.0
C1008 C 0.44791 0.98091 0.21727 0.0
C1009 C 0.48056 0.0132 0.15887 0.0
C1010 C 0.44192 0.99872 0.22431 0.0
C1011 C 0.41795 0.99256 0.22888 0.0
C1012 C 0.39957 0.96844 0.22669 0.0
C1013 C 0.40558 0.95064 0.21926 0.0
C1014 C 0.42959 0.95684 0.21473 0.0
H1015 H 0.49305 0.01957 0.13533 0.0
H1016 H 0.46241 -0.00043 0.14925 0.0
H1017 H 0.47948 0.02873 0.16973 0.0
H1018 H 0.45583 0.01734 0.22716 0.0
H1019 H 0.41387 0.00665 0.23472 0.0
loop_
_geom_bond_atom_site_label_1
_geom_bond_atom_site_label_2
_geom_bond_distance
_geom_bond_site_symmetry_2
_ccdc_geom_bond_type
In0 O1 2.294 . S
In0 O2 2.326 . S
In0 O6 2.266 . S
In0 O7 2.326 . S
In0 O8 2.266 . S
In0 O9 2.326 . S
In0 O11 2.294 . S
In0 O12 2.326 . S
O1 In0 2.294 . S
O1 C10 1.240 . S
O2 In0 2.326 . S
O2 C10 1.252 . S
C3 O6 1.252 . S
C3 O7 1.260 . S
C4 O11 1.240 . S
C4 O12 1.252 . S
C5 O8 1.252 . S
C5 O9 1.260 . S
O6 In0 2.266 . S
O6 C3 1.252 . S
O7 In0 2.326 . S
O7 C3 1.260 . S
O8 In0 2.266 . S
O8 C5 1.252 . S
O9 In0 2.326 . S
O9 C5 1.260 . S
C10 O1 1.240 . S
C10 O2 1.252 . S
O11 In0 2.294 . S
O11 C4 1.240 . S
O12 In0 2.326 . S
O12 C4 1.252 . S
In13 O14 2.294 . S
In13 O15 2.326 . S
In13 O19 2.266 . S
In13 O20 2.326 . S
In13 O21 2.266 . S
In13 O22 2.326 . S
In13 O24 2.294 . S
In13 O25 2.326 . S
O14 In13 2.294 . S
O14 C23 1.240 . S
O15 In13 2.326 . S
O15 C23 1.252 . S
C16 O19 1.252 . S
C16 O20 1.260 . S
C17 O24 1.240 . S
C17 O25 1.252 . S
C18 O21 1.252 . S
C18 O22 1.260 . S
O19 In13 2.266 . S
O19 C16 1.252 . S
O20 In13 2.326 . S
O20 C16 1.260 . S
O21 In13 2.266 . S
O21 C18 1.252 . S
O22 In13 2.326 . S
O22 C18 1.260 . S
C23 O14 1.240 . S
C23 O15 1.252 . S
O24 In13 2.294 . S
O24 C17 1.240 . S
O25 In13 2.326 . S
O25 C17 1.252 . S
In26 O27 2.294 . S
In26 O28 2.326 . S
In26 O32 2.266 . S
In26 O33 2.326 . S
In26 O34 2.266 . S
In26 O35 2.326 . S
In26 O37 2.294 . S
In26 O38 2.326 . S
O27 In26 2.294 . S
O27 C36 1.240 . S
O28 In26 2.326 . S
O28 C36 1.252 . S
C29 O32 1.252 . S
C29 O33 1.260 . S
C30 O37 1.240 . S
C30 O38 1.252 . S
C31 O34 1.252 . S
C31 O35 1.260 . S
O32 In26 2.266 . S
O32 C29 1.252 . S
O33 In26 2.326 . S
O33 C29 1.260 . S
O34 In26 2.266 . S
O34 C31 1.252 . S
O35 In26 2.326 . S
O35 C31 1.260 . S
C36 O27 1.240 . S
C36 O28 1.252 . S
O37 In26 2.294 . S
O37 C30 1.240 . S
O38 In26 2.326 . S
O38 C30 1.252 . S
In39 O40 2.294 . S
In39 O41 2.326 . S
In39 O45 2.266 . S
In39 O46 2.326 . S
In39 O47 2.266 . S
In39 O48 2.326 . S
In39 O50 2.294 . S
In39 O51 2.326 . S
O40 In39 2.294 . S
O40 C49 1.240 . S
O41 In39 2.326 . S
O41 C49 1.252 . S
C42 O45 1.252 . S
C42 O46 1.260 . S
C43 O50 1.240 . S
C43 O51 1.252 . S
C44 O47 1.252 . S
C44 O48 1.260 . S
O45 In39 2.266 . S
O45 C42 1.252 . S
O46 In39 2.326 . S
O46 C42 1.260 . S
O47 In39 2.266 . S
O47 C44 1.252 . S
O48 In39 2.326 . S
O48 C44 1.260 . S
C49 O40 1.240 . S
C49 O41 1.252 . S
O50 In39 2.294 . S
O50 C43 1.240 . S
O51 In39 2.326 . S
O51 C43 1.252 . S
In52 O53 2.294 . S
In52 O54 2.326 . S
In52 O58 2.266 . S
In52 O59 2.326 . S
In52 O60 2.266 . S
In52 O61 2.326 . S
In52 O63 2.294 . S
In52 O64 2.326 . S
O53 In52 2.294 . S
O53 C62 1.240 . S
O54 In52 2.326 . S
O54 C62 1.252 . S
C55 O58 1.252 . S
C55 O59 1.260 . S
C56 O63 1.240 . S
C56 O64 1.252 . S
C57 O60 1.252 . S
C57 O61 1.260 . S
O58 In52 2.266 . S
O58 C55 1.252 . S
O59 In52 2.326 . S
O59 C55 1.260 . S
O60 In52 2.266 . S
O60 C57 1.252 . S
O61 In52 2.326 . S
O61 C57 1.260 . S
C62 O53 1.240 . S
C62 O54 1.252 . S
O63 In52 2.294 . S
O63 C56 1.240 . S
O64 In52 2.326 . S
O64 C56 1.252 . S
In65 O66 2.294 . S
In65 O67 2.326 . S
In65 O71 2.266 . S
In65 O72 2.326 . S
In65 O73 2.266 . S
In65 O74 2.326 . S
In65 O76 2.294 . S
In65 O77 2.326 . S
O66 In65 2.294 . S
O66 C75 1.240 . S
O67 In65 2.326 . S
O67 C75 1.252 . S
C68 O71 1.252 . S
C68 O72 1.260 . S
C69 O76 1.240 . S
C69 O77 1.252 . S
C70 O73 1.252 . S
C70 O74 1.260 . S
O71 In65 2.266 . S
O71 C68 1.252 . S
O72 In65 2.326 . S
O72 C68 1.260 . S
O73 In65 2.266 . S
O73 C70 1.252 . S
O74 In65 2.326 . S
O74 C70 1.260 . S
C75 O66 1.240 . S
C75 O67 1.252 . S
O76 In65 2.294 . S
O76 C69 1.240 . S
O77 In65 2.326 . S
O77 C69 1.252 . S
In78 O79 2.294 . S
In78 O80 2.326 . S
In78 O84 2.266 . S
In78 O85 2.326 . S
In78 O86 2.266 . S
In78 O87 2.326 . S
In78 O89 2.294 . S
In78 O90 2.326 . S
O79 In78 2.294 . S
O79 C88 1.240 . S
O80 In78 2.326 . S
O80 C88 1.252 . S
C81 O84 1.252 . S
C81 O85 1.260 . S
C82 O89 1.240 . S
C82 O90 1.252 . S
C83 O86 1.252 . S
C83 O87 1.260 . S
O84 In78 2.266 . S
O84 C81 1.252 . S
O85 In78 2.326 . S
O85 C81 1.260 . S
O86 In78 2.266 . S
O86 C83 1.252 . S
O87 In78 2.326 . S
O87 C83 1.260 . S
C88 O79 1.240 . S
C88 O80 1.252 . S
O89 In78 2.294 . S
O89 C82 1.240 . S
O90 In78 2.326 . S
O90 C82 1.252 . S
In91 O92 2.294 . S
In91 O93 2.326 . S
In91 O97 2.266 . S
In91 O98 2.326 . S
In91 O99 2.266 . S
In91 O100 2.326 . S
In91 O102 2.294 . S
In91 O103 2.326 . S
O92 In91 2.294 . S
O92 C101 1.240 . S
O93 In91 2.326 . S
O93 C101 1.252 . S
C94 O97 1.252 . S
C94 O98 1.260 . S
C95 O102 1.240 . S
C95 O103 1.252 . S
C96 O99 1.252 . S
C96 O100 1.260 . S
O97 In91 2.266 . S
O97 C94 1.252 . S
O98 In91 2.326 . S
O98 C94 1.260 . S
O99 In91 2.266 . S
O99 C96 1.252 . S
O100 In91 2.326 . S
O100 C96 1.260 . S
C101 O92 1.240 . S
C101 O93 1.252 . S
O102 In91 2.294 . S
O102 C95 1.240 . S
O103 In91 2.326 . S
O103 C95 1.252 . S
In104 O105 2.294 . S
In104 O106 2.326 . S
In104 O110 2.266 . S
In104 O111 2.326 . S
In104 O112 2.266 . S
In104 O113 2.326 . S
In104 O115 2.294 . S
In104 O116 2.326 . S
O105 In104 2.294 . S
O105 C114 1.240 . S
O106 In104 2.326 . S
O106 C114 1.252 . S
C107 O110 1.252 . S
C107 O111 1.260 . S
C108 O115 1.240 . S
C108 O116 1.252 . S
C109 O112 1.252 . S
C109 O113 1.260 . S
O110 In104 2.266 . S
O110 C107 1.252 . S
O111 In104 2.326 . S
O111 C107 1.260 . S
O112 In104 2.266 . S
O112 C109 1.252 . S
O113 In104 2.326 . S
O113 C109 1.260 . S
C114 O105 1.240 . S
C114 O106 1.252 . S
O115 In104 2.294 . S
O115 C108 1.240 . S
O116 In104 2.326 . S
O116 C108 1.252 . S
In117 O118 2.294 . S
In117 O119 2.326 . S
In117 O123 2.266 . S
In117 O124 2.326 . S
In117 O125 2.266 . S
In117 O126 2.326 . S
In117 O128 2.294 . S
In117 O129 2.326 . S
O118 In117 2.294 . S
O118 C127 1.240 . S
O119 In117 2.326 . S
O119 C127 1.252 . S
C120 O123 1.252 . S
C120 O124 1.260 . S
C121 O128 1.240 . S
C121 O129 1.252 . S
C122 O125 1.252 . S
C122 O126 1.260 . S
O123 In117 2.266 . S
O123 C120 1.252 . S
O124 In117 2.326 . S
O124 C120 1.260 . S
O125 In117 2.266 . S
O125 C122 1.252 . S
O126 In117 2.326 . S
O126 C122 1.260 . S
C127 O118 1.240 . S
C127 O119 1.252 . S
O128 In117 2.294 . S
O128 C121 1.240 . S
O129 In117 2.326 . S
O129 C121 1.252 . S
In130 O131 2.294 . S
In130 O132 2.326 . S
In130 O136 2.266 . S
In130 O137 2.326 . S
In130 O138 2.266 . S
In130 O139 2.326 . S
In130 O141 2.294 . S
In130 O142 2.326 . S
O131 In130 2.294 . S
O131 C140 1.240 . S
O132 In130 2.326 . S
O132 C140 1.252 . S
C133 O136 1.252 . S
C133 O137 1.260 . S
C134 O141 1.240 . S
C134 O142 1.252 . S
C135 O138 1.252 . S
C135 O139 1.260 . S
O136 In130 2.266 . S
O136 C133 1.252 . S
O137 In130 2.326 . S
O137 C133 1.260 . S
O138 In130 2.266 . S
O138 C135 1.252 . S
O139 In130 2.326 . S
O139 C135 1.260 . S
C140 O131 1.240 . S
C140 O132 1.252 . S
O141 In130 2.294 . S
O141 C134 1.240 . S
O142 In130 2.326 . S
O142 C134 1.252 . S
In143 O144 2.294 . S
In143 O145 2.326 . S
In143 O149 2.266 . S
In143 O150 2.326 . S
In143 O151 2.266 . S
In143 O152 2.326 . S
In143 O154 2.294 . S
In143 O155 2.326 . S
O144 In143 2.294 . S
O144 C153 1.240 . S
O145 In143 2.326 . S
O145 C153 1.252 . S
C146 O149 1.252 . S
C146 O150 1.260 . S
C147 O154 1.240 . S
C147 O155 1.252 . S
C148 O151 1.252 . S
C148 O152 1.260 . S
O149 In143 2.266 . S
O149 C146 1.252 . S
O150 In143 2.326 . S
O150 C146 1.260 . S
O151 In143 2.266 . S
O151 C148 1.252 . S
O152 In143 2.326 . S
O152 C148 1.260 . S
C153 O144 1.240 . S
C153 O145 1.252 . S
O154 In143 2.294 . S
O154 C147 1.240 . S
O155 In143 2.326 . S
O155 C147 1.252 . S
H156 C164 0.929 . S
H157 C166 0.930 . S
H158 C168 0.930 . S
H159 C171 0.929 . S
H160 C174 0.930 . S
H161 C176 0.960 . S
H162 C176 0.960 . S
H163 C176 0.960 . S
C164 H156 0.929 . S
C164 C165 1.377 . S
C164 C166 1.384 . S
C165 C164 1.377 . S
C165 C171 1.390 . S
C166 H157 0.930 . S
C166 C164 1.384 . S
C166 C167 1.372 . S
C167 C166 1.372 . S
C167 C168 1.400 . S
C167 C172 1.490 . S
C168 H158 0.930 . S
C168 C167 1.400 . S
C168 C171 1.386 . S
H169 C185 0.930 . S
H170 C186 0.931 . S
C171 H159 0.929 . S
C171 C165 1.390 . S
C171 C168 1.386 . S
C172 C167 1.490 . S
C172 C174 1.395 . S
C172 C175 1.403 . S
H173 C179 0.930 . S
C174 H160 0.930 . S
C174 C172 1.395 . S
C174 C177 1.403 . S
C175 C172 1.403 . S
C175 C176 1.524 . S
C175 C179 1.400 . S
C176 H161 0.960 . S
C176 H162 0.960 . S
C176 H163 0.960 . S
C176 C175 1.524 . S
C177 C174 1.403 . S
C177 C178 1.392 . S
C177 C181 1.495 . S
C178 C177 1.392 . S
C178 C179 1.385 . S
C178 C180 1.478 . S
C179 H173 0.930 . S
C179 C175 1.400 . S
C179 C178 1.385 . S
C180 C178 1.478 . S
C180 C182 1.381 . S
C180 C186 1.383 . S
C181 C177 1.495 . S
C181 H187 0.959 . S
C181 H188 0.961 . S
C181 H189 0.960 . S
C182 C180 1.381 . S
C182 C183 1.394 . S
C182 H190 0.930 . S
C183 C182 1.394 . S
C183 C184 1.383 . S
C183 H191 0.929 . S
C184 C183 1.383 . S
C184 C185 1.377 . S
C185 H169 0.930 . S
C185 C184 1.377 . S
C185 C186 1.379 . S
C186 H170 0.931 . S
C186 C180 1.383 . S
C186 C185 1.379 . S
H187 C181 0.959 . S
H188 C181 0.961 . S
H189 C181 0.960 . S
H190 C182 0.930 . S
H191 C183 0.929 . S
H192 C200 0.929 . S
H193 C202 0.930 . S
H194 C204 0.930 . S
H195 C207 0.929 . S
H196 C210 0.930 . S
H197 C212 0.960 . S
H198 C212 0.960 . S
H199 C212 0.960 . S
C200 H192 0.929 . S
C200 C201 1.377 1_455 S
C200 C202 1.384 . S
C201 C200 1.377 1_655 S
C201 C207 1.390 . S
C202 H193 0.930 . S
C202 C200 1.384 . S
C202 C203 1.372 1_455 S
C203 C202 1.372 1_655 S
C203 C204 1.400 . S
C203 C208 1.490 . S
C204 H194 0.930 . S
C204 C203 1.400 . S
C204 C207 1.386 . S
H205 C221 0.930 . S
H206 C222 0.931 . S
C207 H195 0.929 . S
C207 C201 1.390 . S
C207 C204 1.386 . S
C208 C203 1.490 . S
C208 C210 1.395 1_655 S
C208 C211 1.403 . S
H209 C215 0.930 . S
C210 H196 0.930 . S
C210 C208 1.395 1_455 S
C210 C213 1.403 . S
C211 C208 1.403 . S
C211 C212 1.524 . S
C211 C215 1.400 . S
C212 H197 0.960 . S
C212 H198 0.960 . S
C212 H199 0.960 . S
C212 C211 1.524 . S
C213 C210 1.403 . S
C213 C214 1.392 . S
C213 C217 1.495 . S
C214 C213 1.392 . S
C214 C215 1.385 1_455 S
C214 C216 1.478 . S
C215 H209 0.930 . S
C215 C211 1.400 . S
C215 C214 1.385 1_655 S
C216 C214 1.478 . S
C216 C218 1.381 . S
C216 C222 1.383 1_455 S
C217 C213 1.495 . S
C217 H223 0.959 . S
C217 H224 0.961 . S
C217 H225 0.960 . S
C218 C216 1.381 . S
C218 C219 1.394 . S
C218 H226 0.930 . S
C219 C218 1.394 . S
C219 C220 1.383 . S
C219 H227 0.929 . S
C220 C219 1.383 . S
C220 C221 1.377 1_455 S
C221 H205 0.930 . S
C221 C220 1.377 1_655 S
C221 C222 1.379 . S
C222 H206 0.931 . S
C222 C216 1.383 1_655 S
C222 C221 1.379 . S
H223 C217 0.959 . S
H224 C217 0.961 . S
H225 C217 0.960 . S
H226 C218 0.930 . S
H227 C219 0.929 . S
H228 C236 0.931 . S
H229 C238 0.930 . S
H230 C240 0.930 . S
H231 C243 0.929 . S
H232 C246 0.930 . S
H233 C248 0.960 . S
H234 C248 0.960 . S
H235 C248 0.960 . S
C236 H228 0.931 . S
C236 C237 1.373 1_545 S
C236 C238 1.387 . S
C237 C236 1.373 1_565 S
C237 C243 1.390 . S
C238 H229 0.930 . S
C238 C236 1.387 . S
C238 C239 1.372 1_545 S
C239 C238 1.372 1_565 S
C239 C240 1.400 . S
C239 C244 1.490 . S
C240 H230 0.930 . S
C240 C239 1.400 . S
C240 C243 1.386 . S
H241 C257 0.930 1_565 S
H242 C258 0.931 1_565 S
C243 H231 0.929 . S
C243 C237 1.390 . S
C243 C240 1.386 . S
C244 C239 1.490 . S
C244 C246 1.395 1_565 S
C244 C247 1.403 . S
H245 C251 0.930 . S
C246 H232 0.930 . S
C246 C244 1.395 1_545 S
C246 C249 1.403 1_556 S
C247 C244 1.403 . S
C247 C248 1.524 . S
C247 C251 1.400 1_556 S
C248 H233 0.960 . S
C248 H234 0.960 . S
C248 H235 0.960 . S
C248 C247 1.524 . S
C249 C246 1.403 1_554 S
C249 C250 1.392 . S
C249 C253 1.495 . S
C250 C249 1.392 . S
C250 C251 1.385 1_545 S
C250 C252 1.478 . S
C251 H245 0.930 . S
C251 C247 1.400 1_554 S
C251 C250 1.385 1_565 S
C252 C250 1.478 . S
C252 C254 1.381 . S
C252 C258 1.383 . S
C253 C249 1.495 . S
C253 H259 0.959 . S
C253 H260 0.961 . S
C253 H261 0.960 . S
C254 C252 1.381 . S
C254 C255 1.394 . S
C254 H262 0.930 . S
C255 C254 1.394 . S
C255 C256 1.383 . S
C255 H263 0.929 . S
C256 C255 1.383 . S
C256 C257 1.377 . S
C257 H241 0.930 1_545 S
C257 C256 1.377 . S
C257 C258 1.379 . S
C258 H242 0.931 1_545 S
C258 C252 1.383 . S
C258 C257 1.379 . S
H259 C253 0.959 . S
H260 C253 0.961 . S
H261 C253 0.960 . S
H262 C254 0.930 . S
H263 C255 0.929 . S
H264 C272 0.929 . S
H265 C274 0.930 . S
H266 C276 0.930 . S
H267 C279 0.929 . S
H268 C282 0.930 . S
H269 C284 0.960 . S
H270 C284 0.960 . S
H271 C284 0.960 . S
C272 H264 0.929 . S
C272 C273 1.377 . S
C272 C274 1.384 . S
C273 C272 1.377 . S
C273 C279 1.390 . S
C274 H265 0.930 . S
C274 C272 1.384 . S
C274 C275 1.372 . S
C275 C274 1.372 . S
C275 C276 1.400 . S
C275 C280 1.490 . S
C276 H266 0.930 . S
C276 C275 1.400 . S
C276 C279 1.386 . S
H277 C293 0.930 . S
H278 C294 0.931 . S
C279 H267 0.929 . S
C279 C273 1.390 . S
C279 C276 1.386 . S
C280 C275 1.490 . S
C280 C282 1.395 . S
C280 C283 1.403 . S
H281 C287 0.930 . S
C282 H268 0.930 . S
C282 C280 1.395 . S
C282 C285 1.403 . S
C283 C280 1.403 . S
C283 C284 1.524 . S
C283 C287 1.400 . S
C284 H269 0.960 . S
C284 H270 0.960 . S
C284 H271 0.960 . S
C284 C283 1.524 . S
C285 C282 1.403 . S
C285 C286 1.392 . S
C285 C289 1.495 . S
C286 C285 1.392 . S
C286 C287 1.385 . S
C286 C288 1.478 . S
C287 H281 0.930 . S
C287 C283 1.400 . S
C287 C286 1.385 . S
C288 C286 1.478 . S
C288 C290 1.381 . S
C288 C294 1.383 . S
C289 C285 1.495 . S
C289 H295 0.959 . S
C289 H296 0.961 . S
C289 H297 0.960 . S
C290 C288 1.381 . S
C290 C291 1.394 . S
C290 H298 0.930 . S
C291 C290 1.394 . S
C291 C292 1.383 . S
C291 H299 0.929 . S
C292 C291 1.383 . S
C292 C293 1.377 . S
C293 H277 0.930 . S
C293 C292 1.377 . S
C293 C294 1.379 . S
C294 H278 0.931 . S
C294 C288 1.383 . S
C294 C293 1.379 . S
H295 C289 0.959 . S
H296 C289 0.961 . S
H297 C289 0.960 . S
H298 C290 0.930 . S
H299 C291 0.929 . S
H300 C308 0.929 . S
H301 C310 0.930 . S
H302 C312 0.930 . S
H303 C315 0.929 . S
H304 C318 0.930 . S
H305 C320 0.960 . S
H306 C320 0.960 . S
H307 C320 0.960 . S
C308 H300 0.929 . S
C308 C309 1.377 . S
C308 C310 1.384 . S
C309 C308 1.377 . S
C309 C315 1.390 . S
C310 H301 0.930 . S
C310 C308 1.384 . S
C310 C311 1.372 . S
C311 C310 1.372 . S
C311 C312 1.400 . S
C311 C316 1.490 . S
C312 H302 0.930 . S
C312 C311 1.400 . S
C312 C315 1.386 . S
H313 C329 0.930 . S
H314 C330 0.963 . S
C315 H303 0.929 . S
C315 C309 1.390 . S
C315 C312 1.386 . S
C316 C311 1.490 . S
C316 C318 1.395 . S
C316 C319 1.403 1_655 S
H317 C323 0.930 . S
C318 H304 0.930 . S
C318 C316 1.395 . S
C318 C321 1.403 . S
C319 C316 1.403 1_455 S
C319 C320 1.524 . S
C319 C323 1.400 . S
C320 H305 0.960 . S
C320 H306 0.960 . S
C320 H307 0.960 . S
C320 C319 1.524 . S
C321 C318 1.403 . S
C321 C322 1.400 . S
C321 C325 1.495 . S
C322 C321 1.400 . S
C322 C323 1.379 1_655 S
C322 C324 1.476 1_655 S
C323 H317 0.930 . S
C323 C319 1.400 . S
C323 C322 1.379 1_455 S
C324 C322 1.476 1_455 S
C324 C326 1.381 . S
C324 C330 1.383 . S
C325 C321 1.495 . S
C325 H331 0.959 . S
C325 H332 0.961 . S
C325 H333 0.960 . S
C326 C324 1.381 . S
C326 C327 1.394 . S
C326 H334 0.930 . S
C327 C326 1.394 . S
C327 C328 1.383 . S
C327 H335 0.929 . S
C328 C327 1.383 . S
C328 C329 1.377 . S
C329 H313 0.930 . S
C329 C328 1.377 . S
C329 C330 1.379 . S
C330 H314 0.963 . S
C330 C324 1.383 . S
C330 C329 1.379 . S
H331 C325 0.959 . S
H332 C325 0.961 . S
H333 C325 0.960 . S
H334 C326 0.930 . S
H335 C327 0.929 . S
H336 C344 0.929 . S
H337 C346 0.930 . S
H338 C348 0.930 . S
H339 C351 0.929 . S
H340 C354 0.930 . S
H341 C356 0.960 . S
H342 C356 0.960 . S
H343 C356 0.960 . S
C344 H336 0.929 . S
C344 C345 1.377 1_545 S
C344 C346 1.384 . S
C345 C344 1.377 1_565 S
C345 C351 1.390 . S
C346 H337 0.930 . S
C346 C344 1.384 . S
C346 C347 1.372 1_545 S
C347 C346 1.372 1_565 S
C347 C348 1.400 . S
C347 C352 1.490 . S
C348 H338 0.930 . S
C348 C347 1.400 . S
C348 C351 1.386 . S
H349 C365 0.930 . S
H350 C366 0.931 . S
C351 H339 0.929 . S
C351 C345 1.390 . S
C351 C348 1.386 . S
C352 C347 1.490 . S
C352 C354 1.395 1_565 S
C352 C355 1.403 . S
H353 C359 0.930 . S
C354 H340 0.930 . S
C354 C352 1.395 1_545 S
C354 C357 1.403 1_554 S
C355 C352 1.403 . S
C355 C356 1.524 . S
C355 C359 1.400 1_554 S
C356 H341 0.960 . S
C356 H342 0.960 . S
C356 H343 0.960 . S
C356 C355 1.524 . S
C357 C354 1.403 1_556 S
C357 C358 1.392 . S
C357 C361 1.495 . S
C358 C357 1.392 . S
C358 C359 1.385 1_545 S
C358 C360 1.478 . S
C359 H353 0.930 . S
C359 C355 1.400 1_556 S
C359 C358 1.385 1_565 S
C360 C358 1.478 . S
C360 C362 1.381 . S
C360 C366 1.383 1_545 S
C361 C357 1.495 . S
C361 H367 0.959 . S
C361 H368 0.961 . S
C361 H369 0.960 . S
C362 C360 1.381 . S
C362 C363 1.394 . S
C362 H370 0.930 . S
C363 C362 1.394 . S
C363 C364 1.383 . S
C363 H371 0.929 . S
C364 C363 1.383 . S
C364 C365 1.377 1_545 S
C365 H349 0.930 . S
C365 C364 1.377 1_565 S
C365 C366 1.379 . S
C366 H350 0.931 . S
C366 C360 1.383 1_565 S
C366 C365 1.379 . S
H367 C361 0.959 . S
H368 C361 0.961 . S
H369 C361 0.960 . S
H370 C362 0.930 . S
H371 C363 0.929 . S
H372 C380 0.929 . S
H373 C382 0.930 . S
H374 C384 0.930 1_554 S
H375 C387 0.929 . S
H376 C390 0.930 . S
H377 C392 0.960 . S
H378 C392 0.960 . S
H379 C392 0.960 . S
C380 H372 0.929 . S
C380 C381 1.377 . S
C380 C382 1.384 . S
C381 C380 1.377 . S
C381 C387 1.390 . S
C382 H373 0.930 . S
C382 C380 1.384 . S
C382 C383 1.372 . S
C383 C382 1.372 . S
C383 C384 1.400 . S
C383 C388 1.490 . S
C384 H374 0.930 1_556 S
C384 C383 1.400 . S
C384 C387 1.386 . S
H385 C401 0.930 . S
H386 C402 0.931 . S
C387 H375 0.929 . S
C387 C381 1.390 . S
C387 C384 1.386 . S
C388 C383 1.490 . S
C388 C390 1.395 . S
C388 C391 1.403 1_556 S
H389 C395 0.930 . S
C390 H376 0.930 . S
C390 C388 1.395 . S
C390 C393 1.403 . S
C391 C388 1.403 1_554 S
C391 C392 1.524 . S
C391 C395 1.400 . S
C392 H377 0.960 . S
C392 H378 0.960 . S
C392 H379 0.960 . S
C392 C391 1.524 . S
C393 C390 1.403 . S
C393 C394 1.392 1_556 S
C393 C397 1.495 . S
C394 C393 1.392 1_554 S
C394 C395 1.385 . S
C394 C396 1.478 . S
C395 H389 0.930 . S
C395 C391 1.400 . S
C395 C394 1.385 . S
C396 C394 1.478 . S
C396 C398 1.381 . S
C396 C402 1.383 . S
C397 C393 1.495 . S
C397 H403 0.959 . S
C397 H404 0.961 . S
C397 H405 0.960 . S
C398 C396 1.381 . S
C398 C399 1.394 . S
C398 H406 0.930 1_554 S
C399 C398 1.394 . S
C399 C400 1.383 . S
C399 H407 0.929 . S
C400 C399 1.383 . S
C400 C401 1.377 . S
C401 H385 0.930 . S
C401 C400 1.377 . S
C401 C402 1.379 . S
C402 H386 0.931 . S
C402 C396 1.383 . S
C402 C401 1.379 . S
H403 C397 0.959 . S
H404 C397 0.961 . S
H405 C397 0.960 . S
H406 C398 0.930 1_556 S
H407 C399 0.929 . S
H408 C416 0.929 . S
H409 C418 0.930 . S
H410 C420 0.930 . S
H411 C423 0.929 . S
H412 C426 0.930 . S
H413 C428 0.960 . S
H414 C428 0.960 . S
H415 C428 0.960 . S
C416 H408 0.929 . S
C416 C417 1.377 . S
C416 C418 1.384 . S
C417 C416 1.377 . S
C417 C423 1.390 . S
C418 H409 0.930 . S
C418 C416 1.384 . S
C418 C419 1.372 . S
C419 C418 1.372 . S
C419 C420 1.400 . S
C419 C424 1.490 . S
C420 H410 0.930 . S
C420 C419 1.400 . S
C420 C423 1.386 . S
H421 C437 0.930 . S
H422 C438 0.931 . S
C423 H411 0.929 . S
C423 C417 1.390 . S
C423 C420 1.386 . S
C424 C419 1.490 . S
C424 C426 1.395 . S
C424 C427 1.403 . S
H425 C431 0.930 . S
C426 H412 0.930 . S
C426 C424 1.395 . S
C426 C429 1.403 . S
C427 C424 1.403 . S
C427 C428 1.524 . S
C427 C431 1.400 . S
C428 H413 0.960 . S
C428 H414 0.960 . S
C428 H415 0.960 . S
C428 C427 1.524 . S
C429 C426 1.403 . S
C429 C430 1.392 . S
C429 C433 1.495 . S
C430 C429 1.392 . S
C430 C431 1.385 . S
C430 C432 1.478 . S
C431 H425 0.930 . S
C431 C427 1.400 . S
C431 C430 1.385 . S
C432 C430 1.478 . S
C432 C434 1.381 . S
C432 C438 1.383 . S
C433 C429 1.495 . S
C433 H439 0.959 . S
C433 H440 0.961 . S
C433 H441 0.960 . S
C434 C432 1.381 . S
C434 C435 1.394 . S
C434 H442 0.930 . S
C435 C434 1.394 . S
C435 C436 1.383 . S
C435 H443 0.929 . S
C436 C435 1.383 . S
C436 C437 1.377 . S
C437 H421 0.930 . S
C437 C436 1.377 . S
C437 C438 1.379 . S
C438 H422 0.931 . S
C438 C432 1.383 . S
C438 C437 1.379 . S
H439 C433 0.959 . S
H440 C433 0.961 . S
H441 C433 0.960 . S
H442 C434 0.930 . S
H443 C435 0.929 . S
H444 C452 0.929 . S
H445 C454 0.930 . S
H446 C456 0.930 . S
H447 C459 0.929 . S
H448 C462 0.930 . S
H449 C464 0.960 . S
H450 C464 0.960 . S
H451 C464 0.960 . S
C452 H444 0.929 . S
C452 C453 1.377 . S
C452 C454 1.384 . S
C453 C452 1.377 . S
C453 C459 1.390 . S
C454 H445 0.930 . S
C454 C452 1.384 . S
C454 C455 1.372 . S
C455 C454 1.372 . S
C455 C456 1.400 . S
C455 C460 1.490 . S
C456 H446 0.930 . S
C456 C455 1.400 . S
C456 C459 1.386 . S
H457 C473 0.930 . S
H458 C474 0.931 . S
C459 H447 0.929 . S
C459 C453 1.390 . S
C459 C456 1.386 . S
C460 C455 1.490 . S
C460 C462 1.395 . S
C460 C463 1.403 . S
H461 C467 0.930 . S
C462 H448 0.930 . S
C462 C460 1.395 . S
C462 C465 1.403 . S
C463 C460 1.403 . S
C463 C464 1.524 . S
C463 C467 1.400 . S
C464 H449 0.960 . S
C464 H450 0.960 . S
C464 H451 0.960 . S
C464 C463 1.524 . S
C465 C462 1.403 . S
C465 C466 1.392 . S
C465 C469 1.495 . S
C466 C465 1.392 . S
C466 C467 1.385 . S
C466 C468 1.478 . S
C467 H461 0.930 . S
C467 C463 1.400 . S
C467 C466 1.385 . S
C468 C466 1.478 . S
C468 C470 1.381 . S
C468 C474 1.383 . S
C469 C465 1.495 . S
C469 H475 0.959 . S
C469 H476 0.961 . S
C469 H477 0.960 . S
C470 C468 1.381 . S
C470 C471 1.394 . S
C470 H478 0.930 . S
C471 C470 1.394 . S
C471 C472 1.383 . S
C471 H479 0.929 . S
C472 C471 1.383 . S
C472 C473 1.377 . S
C473 H457 0.930 . S
C473 C472 1.377 . S
C473 C474 1.379 . S
C474 H458 0.931 . S
C474 C468 1.383 . S
C474 C473 1.379 . S
H475 C469 0.959 . S
H476 C469 0.961 . S
H477 C469 0.960 . S
H478 C470 0.930 . S
H479 C471 0.929 . S
H480 C488 0.929 . S
H481 C490 0.930 1_556 S
H482 C492 0.930 . S
H483 C495 0.929 . S
H484 C498 0.930 . S
H485 C500 0.960 . S
H486 C500 0.960 . S
H487 C500 0.960 . S
C488 H480 0.929 . S
C488 C489 1.377 . S
C488 C490 1.384 . S
C489 C488 1.377 . S
C489 C495 1.390 . S
C490 H481 0.930 1_554 S
C490 C488 1.384 . S
C490 C491 1.372 . S
C491 C490 1.372 . S
C491 C492 1.400 . S
C491 C496 1.490 . S
C492 H482 0.930 . S
C492 C491 1.400 . S
C492 C495 1.386 . S
H493 C509 0.930 . S
H494 C510 0.927 1_554 S
C495 H483 0.929 . S
C495 C489 1.390 . S
C495 C492 1.386 . S
C496 C491 1.490 . S
C496 C498 1.395 1_554 S
C496 C499 1.403 . S
H497 C503 0.930 . S
C498 H484 0.930 . S
C498 C496 1.395 1_556 S
C498 C501 1.403 . S
C499 C496 1.403 . S
C499 C500 1.524 . S
C499 C503 1.400 . S
C500 H485 0.960 . S
C500 H486 0.960 . S
C500 H487 0.960 . S
C500 C499 1.524 . S
C501 C498 1.403 . S
C501 C502 1.392 . S
C501 C505 1.495 . S
C502 C501 1.392 . S
C502 C503 1.385 1_556 S
C502 C504 1.478 . S
C503 H497 0.930 . S
C503 C499 1.400 . S
C503 C502 1.385 1_554 S
C504 C502 1.478 . S
C504 C506 1.381 . S
C504 C510 1.383 . S
C505 C501 1.495 . S
C505 H511 0.959 . S
C505 H512 0.961 . S
C505 H513 0.960 . S
C506 C504 1.381 . S
C506 C507 1.394 . S
C506 H514 0.930 . S
C507 C506 1.394 . S
C507 C508 1.383 . S
C507 H515 0.929 . S
C508 C507 1.383 . S
C508 C509 1.377 . S
C509 H493 0.930 . S
C509 C508 1.377 . S
C509 C510 1.379 . S
C510 H494 0.927 1_556 S
C510 C504 1.383 . S
C510 C509 1.379 . S
H511 C505 0.959 . S
H512 C505 0.961 . S
H513 C505 0.960 . S
H514 C506 0.930 . S
H515 C507 0.929 . S
H516 C524 0.929 . S
H517 C526 0.930 . S
H518 C528 0.930 . S
H519 C531 0.929 . S
H520 C534 0.930 . S
H521 C536 0.960 . S
H522 C536 0.960 . S
H523 C536 0.960 . S
C524 H516 0.929 . S
C524 C525 1.377 . S
C524 C526 1.384 . S
C525 C524 1.377 . S
C525 C531 1.390 . S
C526 H517 0.930 . S
C526 C524 1.384 . S
C526 C527 1.372 . S
C527 C526 1.372 . S
C527 C528 1.400 . S
C527 C532 1.490 . S
C528 H518 0.930 . S
C528 C527 1.400 . S
C528 C531 1.386 . S
H529 C545 0.930 . S
H530 C546 0.931 . S
C531 H519 0.929 . S
C531 C525 1.390 . S
C531 C528 1.386 . S
C532 C527 1.490 . S
C532 C534 1.395 . S
C532 C535 1.403 . S
H533 C539 0.930 . S
C534 H520 0.930 . S
C534 C532 1.395 . S
C534 C537 1.403 . S
C535 C532 1.403 . S
C535 C536 1.524 . S
C535 C539 1.400 . S
C536 H521 0.960 . S
C536 H522 0.960 . S
C536 H523 0.960 . S
C536 C535 1.524 . S
C537 C534 1.403 . S
C537 C538 1.392 . S
C537 C541 1.495 . S
C538 C537 1.392 . S
C538 C539 1.385 . S
C538 C540 1.478 . S
C539 H533 0.930 . S
C539 C535 1.400 . S
C539 C538 1.385 . S
C540 C538 1.478 . S
C540 C542 1.381 . S
C540 C546 1.383 . S
C541 C537 1.495 . S
C541 H547 0.959 . S
C541 H548 0.961 . S
C541 H549 0.960 . S
C542 C540 1.381 . S
C542 C543 1.394 . S
C542 H550 0.930 . S
C543 C542 1.394 . S
C543 C544 1.383 . S
C543 H551 0.929 . S
C544 C543 1.383 . S
C544 C545 1.377 . S
C545 H529 0.930 . S
C545 C544 1.377 . S
C545 C546 1.379 . S
C546 H530 0.931 . S
C546 C540 1.383 . S
C546 C545 1.379 . S
H547 C541 0.959 . S
H548 C541 0.961 . S
H549 C541 0.960 . S
H550 C542 0.930 . S
H551 C543 0.929 . S
H552 C560 0.929 . S
H553 C562 0.930 . S
H554 C564 0.930 . S
H555 C567 0.929 . S
H556 C570 0.930 . S
H557 C572 0.960 . S
H558 C572 0.960 . S
H559 C572 0.960 . S
C560 H552 0.929 . S
C560 C561 1.377 . S
C560 C562 1.384 . S
C561 C560 1.377 . S
C561 C567 1.390 . S
C562 H553 0.930 . S
C562 C560 1.384 . S
C562 C563 1.372 . S
C563 C562 1.372 . S
C563 C564 1.400 . S
C563 C568 1.490 . S
C564 H554 0.930 . S
C564 C563 1.400 . S
C564 C567 1.386 . S
H565 C581 0.930 . S
H566 C582 0.931 . S
C567 H555 0.929 . S
C567 C561 1.390 . S
C567 C564 1.386 . S
C568 C563 1.490 . S
C568 C570 1.395 . S
C568 C571 1.403 . S
H569 C575 0.930 . S
C570 H556 0.930 . S
C570 C568 1.395 . S
C570 C573 1.403 . S
C571 C568 1.403 . S
C571 C572 1.524 . S
C571 C575 1.400 . S
C572 H557 0.960 . S
C572 H558 0.960 . S
C572 H559 0.960 . S
C572 C571 1.524 . S
C573 C570 1.403 . S
C573 C574 1.392 . S
C573 C577 1.495 . S
C574 C573 1.392 . S
C574 C575 1.385 . S
C574 C576 1.478 . S
C575 H569 0.930 . S
C575 C571 1.400 . S
C575 C574 1.385 . S
C576 C574 1.478 . S
C576 C578 1.381 . S
C576 C582 1.383 . S
C577 C573 1.495 . S
C577 H583 0.959 . S
C577 H584 0.961 . S
C577 H585 0.960 . S
C578 C576 1.381 . S
C578 C579 1.394 . S
C578 H586 0.930 . S
C579 C578 1.394 . S
C579 C580 1.383 . S
C579 H587 0.929 . S
C580 C579 1.383 . S
C580 C581 1.377 . S
C581 H565 0.930 . S
C581 C580 1.377 . S
C581 C582 1.379 . S
C582 H566 0.931 . S
C582 C576 1.383 . S
C582 C581 1.379 . S
H583 C577 0.959 . S
H584 C577 0.961 . S
H585 C577 0.960 . S
H586 C578 0.930 . S
H587 C579 0.929 . S
H588 C596 0.929 . S
H589 C598 0.930 . S
H590 C600 0.930 . S
H591 C603 0.929 . S
H592 C606 0.930 . S
H593 C608 0.960 . S
H594 C608 0.960 . S
H595 C608 0.960 . S
C596 H588 0.929 . S
C596 C597 1.377 . S
C596 C598 1.384 . S
C597 C596 1.377 . S
C597 C603 1.390 . S
C598 H589 0.930 . S
C598 C596 1.384 . S
C598 C599 1.372 . S
C599 C598 1.372 . S
C599 C600 1.400 . S
C599 C604 1.490 . S
C600 H590 0.930 . S
C600 C599 1.400 . S
C600 C603 1.386 . S
H601 C617 0.930 . S
H602 C618 0.931 . S
C603 H591 0.929 . S
C603 C597 1.390 . S
C603 C600 1.386 . S
C604 C599 1.490 . S
C604 C606 1.395 . S
C604 C607 1.403 . S
H605 C611 0.930 . S
C606 H592 0.930 . S
C606 C604 1.395 . S
C606 C609 1.403 . S
C607 C604 1.403 . S
C607 C608 1.524 . S
C607 C611 1.400 . S
C608 H593 0.960 . S
C608 H594 0.960 . S
C608 H595 0.960 . S
C608 C607 1.524 . S
C609 C606 1.403 . S
C609 C610 1.392 . S
C609 C613 1.495 . S
C610 C609 1.392 . S
C610 C611 1.385 . S
C610 C612 1.478 . S
C611 H605 0.930 . S
C611 C607 1.400 . S
C611 C610 1.385 . S
C612 C610 1.478 . S
C612 C614 1.381 . S
C612 C618 1.383 . S
C613 C609 1.495 . S
C613 H619 0.959 . S
C613 H620 0.961 . S
C613 H621 0.960 . S
C614 C612 1.381 . S
C614 C615 1.394 . S
C614 H622 0.930 . S
C615 C614 1.394 . S
C615 C616 1.383 . S
C615 H623 0.929 . S
C616 C615 1.383 . S
C616 C617 1.377 . S
C617 H601 0.930 . S
C617 C616 1.377 . S
C617 C618 1.379 . S
C618 H602 0.931 . S
C618 C612 1.383 . S
C618 C617 1.379 . S
H619 C613 0.959 . S
H620 C613 0.961 . S
H621 C613 0.960 . S
H622 C614 0.930 . S
H623 C615 0.929 . S
H624 C632 0.929 . S
H625 C634 0.930 . S
H626 C636 0.930 . S
H627 C639 0.929 . S
H628 C642 0.930 . S
H629 C644 0.960 . S
H630 C644 0.960 . S
H631 C644 0.960 . S
C632 H624 0.929 . S
C632 C633 1.377 . S
C632 C634 1.384 . S
C633 C632 1.377 . S
C633 C639 1.390 1_655 S
C634 H625 0.930 . S
C634 C632 1.384 . S
C634 C635 1.372 . S
C635 C634 1.372 . S
C635 C636 1.400 1_655 S
C635 C640 1.490 . S
C636 H626 0.930 . S
C636 C635 1.400 1_455 S
C636 C639 1.386 . S
H637 C653 0.930 . S
H638 C654 0.931 . S
C639 H627 0.929 . S
C639 C633 1.390 1_455 S
C639 C636 1.386 . S
C640 C635 1.490 . S
C640 C642 1.395 1_655 S
C640 C643 1.403 . S
H641 C647 0.930 . S
C642 H628 0.930 . S
C642 C640 1.395 1_455 S
C642 C645 1.403 . S
C643 C640 1.403 . S
C643 C644 1.524 . S
C643 C647 1.400 . S
C644 H629 0.960 . S
C644 H630 0.960 . S
C644 H631 0.960 . S
C644 C643 1.524 . S
C645 C642 1.403 . S
C645 C646 1.392 . S
C645 C649 1.495 . S
C646 C645 1.392 . S
C646 C647 1.385 1_455 S
C646 C648 1.478 . S
C647 H641 0.930 . S
C647 C643 1.400 . S
C647 C646 1.385 1_655 S
C648 C646 1.478 . S
C648 C650 1.381 1_455 S
C648 C654 1.383 . S
C649 C645 1.495 . S
C649 H655 0.959 . S
C649 H656 0.961 . S
C649 H657 0.960 . S
C650 C648 1.381 1_655 S
C650 C651 1.394 . S
C650 H658 0.930 . S
C651 C650 1.394 . S
C651 C652 1.383 1_655 S
C651 H659 0.929 . S
C652 C651 1.383 1_455 S
C652 C653 1.377 . S
C653 H637 0.930 . S
C653 C652 1.377 . S
C653 C654 1.379 . S
C654 H638 0.931 . S
C654 C648 1.383 . S
C654 C653 1.379 . S
H655 C649 0.959 . S
H656 C649 0.961 . S
H657 C649 0.960 . S
H658 C650 0.930 . S
H659 C651 0.929 . S
H660 C668 0.929 . S
H661 C670 0.930 . S
H662 C672 0.930 . S
H663 C675 0.929 . S
H664 C678 0.928 1_545 S
H665 C680 0.960 . S
H666 C680 0.960 . S
H667 C680 0.936 1_545 S
C668 H660 0.929 . S
C668 C669 1.377 . S
C668 C670 1.384 . S
C669 C668 1.377 . S
C669 C675 1.390 1_565 S
C670 H661 0.930 . S
C670 C668 1.384 . S
C670 C671 1.372 . S
C671 C670 1.372 . S
C671 C672 1.400 1_565 S
C671 C676 1.490 . S
C672 H662 0.930 . S
C672 C671 1.400 1_545 S
C672 C675 1.386 . S
H673 C689 0.930 . S
H674 C690 0.931 . S
C675 H663 0.929 . S
C675 C669 1.390 1_545 S
C675 C672 1.386 . S
C676 C671 1.490 . S
C676 C678 1.393 . S
C676 C679 1.403 . S
H677 C683 0.930 . S
C678 H664 0.928 1_565 S
C678 C676 1.393 . S
C678 C681 1.404 1_565 S
C679 C676 1.403 . S
C679 C680 1.524 . S
C679 C683 1.400 . S
C680 H665 0.960 . S
C680 H666 0.960 . S
C680 H667 0.936 1_565 S
C680 C679 1.524 . S
C681 C678 1.404 1_545 S
C681 C682 1.392 . S
C681 C685 1.495 . S
C682 C681 1.392 . S
C682 C683 1.385 1_545 S
C682 C684 1.478 . S
C683 H677 0.930 . S
C683 C679 1.400 . S
C683 C682 1.385 1_565 S
C684 C682 1.478 . S
C684 C686 1.381 1_545 S
C684 C690 1.383 . S
C685 C681 1.495 . S
C685 H691 0.959 . S
C685 H692 0.961 . S
C685 H693 0.960 1_545 S
C686 C684 1.381 1_565 S
C686 C687 1.394 . S
C686 H694 0.930 . S
C687 C686 1.394 . S
C687 C688 1.383 1_565 S
C687 H695 0.929 . S
C688 C687 1.383 1_545 S
C688 C689 1.377 . S
C689 H673 0.930 . S
C689 C688 1.377 . S
C689 C690 1.379 . S
C690 H674 0.931 . S
C690 C684 1.383 . S
C690 C689 1.379 . S
H691 C685 0.959 . S
H692 C685 0.961 . S
H693 C685 0.960 1_565 S
H694 C686 0.930 . S
H695 C687 0.929 . S
H696 C704 0.929 . S
H697 C706 0.930 . S
H698 C708 0.930 . S
H699 C711 0.929 . S
H700 C714 0.930 . S
H701 C716 0.960 . S
H702 C716 0.960 . S
H703 C716 0.960 . S
C704 H696 0.929 . S
C704 C705 1.377 . S
C704 C706 1.384 . S
C705 C704 1.377 . S
C705 C711 1.390 . S
C706 H697 0.930 . S
C706 C704 1.384 . S
C706 C707 1.372 . S
C707 C706 1.372 . S
C707 C708 1.400 . S
C707 C712 1.490 . S
C708 H698 0.930 . S
C708 C707 1.400 . S
C708 C711 1.386 . S
H709 C725 0.930 . S
H710 C726 0.931 . S
C711 H699 0.929 . S
C711 C705 1.390 . S
C711 C708 1.386 . S
C712 C707 1.490 . S
C712 C714 1.395 . S
C712 C715 1.403 . S
H713 C719 0.930 . S
C714 H700 0.930 . S
C714 C712 1.395 . S
C714 C717 1.403 . S
C715 C712 1.403 . S
C715 C716 1.524 . S
C715 C719 1.400 . S
C716 H701 0.960 . S
C716 H702 0.960 . S
C716 H703 0.960 . S
C716 C715 1.524 . S
C717 C714 1.403 . S
C717 C718 1.392 . S
C717 C721 1.495 . S
C718 C717 1.392 . S
C718 C719 1.385 . S
C718 C720 1.478 . S
C719 H713 0.930 . S
C719 C715 1.400 . S
C719 C718 1.385 . S
C720 C718 1.478 . S
C720 C722 1.381 . S
C720 C726 1.383 . S
C721 C717 1.495 . S
C721 H727 0.959 . S
C721 H728 0.961 . S
C721 H729 0.960 . S
C722 C720 1.381 . S
C722 C723 1.394 . S
C722 H730 0.930 . S
C723 C722 1.394 . S
C723 C724 1.383 . S
C723 H731 0.929 . S
C724 C723 1.383 . S
C724 C725 1.377 . S
C725 H709 0.930 . S
C725 C724 1.377 . S
C725 C726 1.379 . S
C726 H710 0.931 . S
C726 C720 1.383 . S
C726 C725 1.379 . S
H727 C721 0.959 . S
H728 C721 0.961 . S
H729 C721 0.960 . S
H730 C722 0.930 . S
H731 C723 0.929 . S
H732 C740 0.929 . S
H733 C742 0.930 . S
H734 C744 0.930 . S
H735 C747 0.929 . S
H736 C750 0.930 . S
H737 C752 0.960 . S
H738 C752 0.960 . S
H739 C752 0.960 . S
C740 H732 0.929 . S
C740 C741 1.377 . S
C740 C742 1.384 . S
C741 C740 1.377 . S
C741 C747 1.390 1_455 S
C742 H733 0.930 . S
C742 C740 1.384 . S
C742 C743 1.372 . S
C743 C742 1.372 . S
C743 C744 1.400 1_455 S
C743 C748 1.490 . S
C744 H734 0.930 . S
C744 C743 1.400 1_655 S
C744 C747 1.386 . S
H745 C761 0.930 . S
H746 C762 0.931 . S
C747 H735 0.929 . S
C747 C741 1.390 1_655 S
C747 C744 1.386 . S
C748 C743 1.490 . S
C748 C750 1.395 . S
C748 C751 1.403 1_455 S
H749 C755 0.930 . S
C750 H736 0.930 . S
C750 C748 1.395 . S
C750 C753 1.403 . S
C751 C748 1.403 1_655 S
C751 C752 1.524 . S
C751 C755 1.400 . S
C752 H737 0.960 . S
C752 H738 0.960 . S
C752 H739 0.960 . S
C752 C751 1.524 . S
C753 C750 1.403 . S
C753 C754 1.392 . S
C753 C757 1.495 . S
C754 C753 1.392 . S
C754 C755 1.385 1_455 S
C754 C756 1.478 1_455 S
C755 H749 0.930 . S
C755 C751 1.400 . S
C755 C754 1.385 1_655 S
C756 C754 1.478 1_655 S
C756 C758 1.381 1_655 S
C756 C762 1.383 . S
C757 C753 1.495 . S
C757 H763 0.959 . S
C757 H764 0.961 . S
C757 H765 0.960 . S
C758 C756 1.381 1_455 S
C758 C759 1.394 . S
C758 H766 0.930 . S
C759 C758 1.394 . S
C759 C760 1.383 1_455 S
C759 H767 0.929 . S
C760 C759 1.383 1_655 S
C760 C761 1.377 . S
C761 H745 0.930 . S
C761 C760 1.377 . S
C761 C762 1.379 . S
C762 H746 0.931 . S
C762 C756 1.383 . S
C762 C761 1.379 . S
H763 C757 0.959 . S
H764 C757 0.961 . S
H765 C757 0.960 . S
H766 C758 0.930 . S
H767 C759 0.929 . S
H768 C776 0.929 . S
H769 C778 0.930 . S
H770 C780 0.930 . S
H771 C783 0.929 . S
H772 C786 0.930 . S
H773 C788 0.942 1_545 S
H774 C788 0.986 . S
H775 C788 0.937 1_545 S
C776 H768 0.929 . S
C776 C777 1.377 . S
C776 C778 1.384 . S
C777 C776 1.377 . S
C777 C783 1.390 1_565 S
C778 H769 0.930 . S
C778 C776 1.384 . S
C778 C779 1.372 . S
C779 C778 1.372 . S
C779 C780 1.400 1_565 S
C779 C784 1.490 . S
C780 H770 0.930 . S
C780 C779 1.400 1_545 S
C780 C783 1.386 . S
H781 C797 0.930 . S
H782 C798 0.931 . S
C783 H771 0.929 . S
C783 C777 1.390 1_545 S
C783 C780 1.386 . S
C784 C779 1.490 . S
C784 C786 1.395 . S
C784 C787 1.423 . S
H785 C791 0.930 . S
C786 H772 0.930 . S
C786 C784 1.395 . S
C786 C789 1.403 . S
C787 C784 1.423 . S
C787 C788 1.524 . S
C787 C791 1.398 1_565 S
C788 H773 0.942 1_565 S
C788 H774 0.986 . S
C788 H775 0.937 1_565 S
C788 C787 1.524 . S
C789 C786 1.403 . S
C789 C790 1.392 1_565 S
C789 C793 1.495 . S
C790 C789 1.392 1_545 S
C790 C791 1.385 . S
C790 C792 1.478 . S
C791 H785 0.930 . S
C791 C787 1.398 1_545 S
C791 C790 1.385 . S
C792 C790 1.478 . S
C792 C794 1.381 1_545 S
C792 C798 1.383 . S
C793 C789 1.495 . S
C793 H799 0.959 . S
C793 H800 0.961 1_565 S
C793 H801 0.960 . S
C794 C792 1.381 1_565 S
C794 C795 1.394 . S
C794 H802 0.930 . S
C795 C794 1.394 . S
C795 C796 1.383 1_565 S
C795 H803 0.929 . S
C796 C795 1.383 1_545 S
C796 C797 1.377 . S
C797 H781 0.930 . S
C797 C796 1.377 . S
C797 C798 1.379 . S
C798 H782 0.931 . S
C798 C792 1.383 . S
C798 C797 1.379 . S
H799 C793 0.959 . S
H800 C793 0.961 1_545 S
H801 C793 0.960 . S
H802 C794 0.930 . S
H803 C795 0.929 . S
H804 C812 0.929 . S
H805 C814 0.930 . S
H806 C816 0.930 . S
H807 C819 0.929 . S
H808 C822 0.930 . S
H809 C824 0.960 . S
H810 C824 0.960 . S
H811 C824 0.960 . S
C812 H804 0.929 . S
C812 C813 1.377 . S
C812 C814 1.384 . S
C813 C812 1.377 . S
C813 C819 1.390 . S
C814 H805 0.930 . S
C814 C812 1.384 . S
C814 C815 1.372 . S
C815 C814 1.372 . S
C815 C816 1.400 . S
C815 C820 1.490 . S
C816 H806 0.930 . S
C816 C815 1.400 . S
C816 C819 1.386 . S
H817 C833 0.930 . S
H818 C834 0.931 . S
C819 H807 0.929 . S
C819 C813 1.390 . S
C819 C816 1.386 . S
C820 C815 1.490 . S
C820 C822 1.395 . S
C820 C823 1.403 . S
H821 C827 0.930 . S
C822 H808 0.930 . S
C822 C820 1.395 . S
C822 C825 1.403 . S
C823 C820 1.403 . S
C823 C824 1.524 . S
C823 C827 1.400 . S
C824 H809 0.960 . S
C824 H810 0.960 . S
C824 H811 0.960 . S
C824 C823 1.524 . S
C825 C822 1.403 . S
C825 C826 1.392 . S
C825 C829 1.495 . S
C826 C825 1.392 . S
C826 C827 1.385 . S
C826 C828 1.478 . S
C827 H821 0.930 . S
C827 C823 1.400 . S
C827 C826 1.385 . S
C828 C826 1.478 . S
C828 C830 1.381 . S
C828 C834 1.383 . S
C829 C825 1.495 . S
C829 H835 0.959 . S
C829 H836 0.961 . S
C829 H837 0.960 . S
C830 C828 1.381 . S
C830 C831 1.394 . S
C830 H838 0.930 . S
C831 C830 1.394 . S
C831 C832 1.383 . S
C831 H839 0.929 . S
C832 C831 1.383 . S
C832 C833 1.377 . S
C833 H817 0.930 . S
C833 C832 1.377 . S
C833 C834 1.379 . S
C834 H818 0.931 . S
C834 C828 1.383 . S
C834 C833 1.379 . S
H835 C829 0.959 . S
H836 C829 0.961 . S
H837 C829 0.960 . S
H838 C830 0.930 . S
H839 C831 0.929 . S
H840 C848 0.929 . S
H841 C850 0.927 1_655 S
H842 C852 0.930 . S
H843 C855 0.929 . S
H844 C858 0.930 . S
H845 C860 0.960 . S
H846 C860 0.960 . S
H847 C860 0.960 . S
C848 H840 0.929 . S
C848 C849 1.377 . S
C848 C850 1.384 . S
C849 C848 1.377 . S
C849 C855 1.390 . S
C850 H841 0.927 1_455 S
C850 C848 1.384 . S
C850 C851 1.372 . S
C851 C850 1.372 . S
C851 C852 1.400 . S
C851 C856 1.490 . S
C852 H842 0.930 . S
C852 C851 1.400 . S
C852 C855 1.386 . S
H853 C869 0.930 . S
H854 C870 0.927 1_455 S
C855 H843 0.929 . S
C855 C849 1.390 . S
C855 C852 1.386 . S
C856 C851 1.490 . S
C856 C858 1.395 . S
C856 C859 1.403 1_455 S
H857 C863 0.930 . S
C858 H844 0.930 . S
C858 C856 1.395 . S
C858 C861 1.403 . S
C859 C856 1.403 1_655 S
C859 C860 1.524 . S
C859 C863 1.400 . S
C860 H845 0.960 . S
C860 H846 0.960 . S
C860 H847 0.960 . S
C860 C859 1.524 . S
C861 C858 1.403 . S
C861 C862 1.392 1_455 S
C861 C865 1.495 . S
C862 C861 1.392 1_655 S
C862 C863 1.385 . S
C862 C864 1.478 . S
C863 H857 0.930 . S
C863 C859 1.400 . S
C863 C862 1.385 . S
C864 C862 1.478 . S
C864 C866 1.381 . S
C864 C870 1.393 . S
C865 C861 1.495 . S
C865 H871 0.959 . S
C865 H872 0.961 . S
C865 H873 0.960 . S
C866 C864 1.381 . S
C866 C867 1.394 . S
C866 H874 0.930 . S
C867 C866 1.394 . S
C867 C868 1.383 . S
C867 H875 0.929 . S
C868 C867 1.383 . S
C868 C869 1.377 . S
C869 H853 0.930 . S
C869 C868 1.377 . S
C869 C870 1.374 . S
C870 H854 0.927 1_655 S
C870 C864 1.393 . S
C870 C869 1.374 . S
H871 C865 0.959 . S
H872 C865 0.961 . S
H873 C865 0.960 . S
H874 C866 0.930 . S
H875 C867 0.929 . S
H876 C884 0.929 . S
H877 C886 0.930 . S
H878 C888 0.930 1_545 S
H879 C891 0.929 . S
H880 C894 0.930 . S
H881 C896 0.960 . S
H882 C896 0.960 . S
H883 C896 0.960 . S
C884 H876 0.929 . S
C884 C885 1.377 . S
C884 C886 1.384 . S
C885 C884 1.377 . S
C885 C891 1.390 . S
C886 H877 0.930 . S
C886 C884 1.384 . S
C886 C887 1.372 . S
C887 C886 1.372 . S
C887 C888 1.400 . S
C887 C892 1.490 . S
C888 H878 0.930 1_565 S
C888 C887 1.400 . S
C888 C891 1.386 . S
H889 C905 0.930 . S
H890 C906 0.931 . S
C891 H879 0.929 . S
C891 C885 1.390 . S
C891 C888 1.386 . S
C892 C887 1.490 . S
C892 C894 1.395 . S
C892 C895 1.403 1_565 S
H893 C899 0.930 . S
C894 H880 0.930 . S
C894 C892 1.395 . S
C894 C897 1.403 . S
C895 C892 1.403 1_545 S
C895 C896 1.524 . S
C895 C899 1.400 . S
C896 H881 0.960 . S
C896 H882 0.960 . S
C896 H883 0.960 . S
C896 C895 1.524 . S
C897 C894 1.403 . S
C897 C898 1.396 1_565 S
C897 C901 1.495 . S
C898 C897 1.396 1_545 S
C898 C899 1.384 . S
C898 C900 1.475 . S
C899 H893 0.930 . S
C899 C895 1.400 . S
C899 C898 1.384 . S
C900 C898 1.475 . S
C900 C902 1.381 . S
C900 C906 1.383 . S
C901 C897 1.495 . S
C901 H907 0.959 . S
C901 H908 0.961 . S
C901 H909 0.960 . S
C902 C900 1.381 . S
C902 C903 1.394 . S
C902 H910 0.930 1_545 S
C903 C902 1.394 . S
C903 C904 1.383 . S
C903 H911 0.929 . S
C904 C903 1.383 . S
C904 C905 1.377 . S
C905 H889 0.930 . S
C905 C904 1.377 . S
C905 C906 1.379 . S
C906 H890 0.931 . S
C906 C900 1.383 . S
C906 C905 1.379 . S
H907 C901 0.959 . S
H908 C901 0.961 . S
H909 C901 0.960 . S
H910 C902 0.930 1_565 S
H911 C903 0.929 . S
H912 C920 0.929 . S
H913 C922 0.930 . S
H914 C924 0.930 . S
H915 C927 0.929 . S
H916 C930 0.930 . S
H917 C932 0.960 . S
H918 C932 0.960 . S
H919 C932 0.960 . S
C920 H912 0.929 . S
C920 C921 1.377 . S
C920 C922 1.384 . S
C921 C920 1.377 . S
C921 C927 1.390 . S
C922 H913 0.930 . S
C922 C920 1.384 . S
C922 C923 1.372 . S
C923 C922 1.372 . S
C923 C924 1.400 . S
C923 C928 1.490 . S
C924 H914 0.930 . S
C924 C923 1.400 . S
C924 C927 1.386 . S
H925 C941 0.930 . S
H926 C942 0.931 . S
C927 H915 0.929 . S
C927 C921 1.390 . S
C927 C924 1.386 . S
C928 C923 1.490 . S
C928 C930 1.395 . S
C928 C931 1.403 . S
H929 C935 0.930 . S
C930 H916 0.930 . S
C930 C928 1.395 . S
C930 C933 1.403 . S
C931 C928 1.403 . S
C931 C932 1.524 . S
C931 C935 1.400 . S
C932 H917 0.960 . S
C932 H918 0.960 . S
C932 H919 0.960 . S
C932 C931 1.524 . S
C933 C930 1.403 . S
C933 C934 1.392 . S
C933 C937 1.495 . S
C934 C933 1.392 . S
C934 C935 1.385 . S
C934 C936 1.478 . S
C935 H929 0.930 . S
C935 C931 1.400 . S
C935 C934 1.385 . S
C936 C934 1.478 . S
C936 C938 1.381 . S
C936 C942 1.383 . S
C937 C933 1.495 . S
C937 H943 0.959 . S
C937 H944 0.961 . S
C937 H945 0.960 . S
C938 C936 1.381 . S
C938 C939 1.394 . S
C938 H946 0.930 . S
C939 C938 1.394 . S
C939 C940 1.383 . S
C939 H947 0.929 . S
C940 C939 1.383 . S
C940 C941 1.377 . S
C941 H925 0.930 . S
C941 C940 1.377 . S
C941 C942 1.379 . S
C942 H926 0.931 . S
C942 C936 1.383 . S
C942 C941 1.379 . S
H943 C937 0.959 . S
H944 C937 0.961 . S
H945 C937 0.960 . S
H946 C938 0.930 . S
H947 C939 0.929 . S
H948 C956 0.929 . S
H949 C958 0.930 . S
H950 C960 0.930 . S
H951 C963 0.929 . S
H952 C966 0.930 . S
H953 C968 0.974 . S
H954 C968 0.969 . S
H955 C968 0.932 1_655 S
C956 H948 0.929 . S
C956 C957 1.377 1_455 S
C956 C958 1.384 . S
C957 C956 1.377 1_655 S
C957 C963 1.390 . S
C958 H949 0.930 . S
C958 C956 1.384 . S
C958 C959 1.372 1_455 S
C959 C958 1.372 1_655 S
C959 C960 1.400 . S
C959 C964 1.490 . S
C960 H950 0.930 . S
C960 C959 1.400 . S
C960 C963 1.386 . S
H961 C977 0.930 . S
H962 C978 0.931 . S
C963 H951 0.929 . S
C963 C957 1.390 . S
C963 C960 1.386 . S
C964 C959 1.490 . S
C964 C966 1.395 . S
C964 C967 1.400 1_655 S
H965 C971 0.930 . S
C966 H952 0.930 . S
C966 C964 1.395 . S
C966 C969 1.403 1_655 S
C967 C964 1.400 1_455 S
C967 C968 1.528 . S
C967 C971 1.404 . S
C968 H953 0.974 . S
C968 H954 0.969 . S
C968 H955 0.932 1_455 S
C968 C967 1.528 . S
C969 C966 1.403 1_455 S
C969 C970 1.392 . S
C969 C973 1.495 . S
C970 C969 1.392 . S
C970 C971 1.385 . S
C970 C972 1.478 . S
C971 H965 0.930 . S
C971 C967 1.404 . S
C971 C970 1.385 . S
C972 C970 1.478 . S
C972 C974 1.381 . S
C972 C978 1.383 1_455 S
C973 C969 1.495 . S
C973 H979 0.958 1_556 S
C973 H980 0.961 1_455 S
C973 H981 0.960 . S
C974 C972 1.381 . S
C974 C975 1.394 . S
C974 H982 0.930 . S
C975 C974 1.394 . S
C975 C976 1.383 . S
C975 H983 0.929 . S
C976 C975 1.383 . S
C976 C977 1.377 1_455 S
C977 H961 0.930 . S
C977 C976 1.377 1_655 S
C977 C978 1.379 . S
C978 H962 0.931 . S
C978 C972 1.383 1_655 S
C978 C977 1.379 . S
H979 C973 0.958 1_554 S
H980 C973 0.961 1_655 S
H981 C973 0.960 . S
H982 C974 0.930 . S
H983 C975 0.929 . S
H984 C992 0.929 . S
H985 C994 0.930 . S
H986 C996 0.930 . S
H987 C999 0.929 . S
H988 C1002 0.930 . S
H989 C1004 0.960 . S
H990 C1004 0.960 . S
H991 C1004 0.960 . S
C992 H984 0.929 . S
C992 C993 1.377 . S
C992 C994 1.384 . S
C993 C992 1.377 . S
C993 C999 1.390 . S
C994 H985 0.930 . S
C994 C992 1.384 . S
C994 C995 1.372 . S
C995 C994 1.372 . S
C995 C996 1.400 . S
C995 C1000 1.490 . S
C996 H986 0.930 . S
C996 C995 1.400 . S
C996 C999 1.386 . S
H997 C1013 0.930 . S
H998 C1014 0.931 . S
C999 H987 0.929 . S
C999 C993 1.390 . S
C999 C996 1.386 . S
C1000 C995 1.490 . S
C1000 C1002 1.395 . S
C1000 C1003 1.403 1_545 S
H1001 C1007 0.930 . S
C1002 H988 0.930 . S
C1002 C1000 1.395 . S
C1002 C1005 1.403 . S
C1003 C1000 1.403 1_565 S
C1003 C1004 1.524 . S
C1003 C1007 1.400 . S
C1004 H989 0.960 . S
C1004 H990 0.960 . S
C1004 H991 0.960 . S
C1004 C1003 1.524 . S
C1005 C1002 1.403 . S
C1005 C1006 1.383 1_545 S
C1005 C1009 1.495 . S
C1006 C1005 1.383 1_565 S
C1006 C1007 1.401 . S
C1006 C1008 1.472 . S
C1007 H1001 0.930 . S
C1007 C1003 1.400 . S
C1007 C1006 1.401 . S
C1008 C1006 1.472 . S
C1008 C1010 1.381 . S
C1008 C1014 1.383 . S
C1009 C1005 1.495 . S
C1009 H1015 0.959 . S
C1009 H1016 0.961 . S
C1009 H1017 0.960 . S
C1010 C1008 1.381 . S
C1010 C1011 1.394 . S
C1010 H1018 0.930 . S
C1011 C1010 1.394 . S
C1011 C1012 1.383 . S
C1011 H1019 0.929 . S
C1012 C1011 1.383 . S
C1012 C1013 1.377 . S
C1013 H997 0.930 . S
C1013 C1012 1.377 . S
C1013 C1014 1.379 . S
C1014 H998 0.931 . S
C1014 C1008 1.383 . S
C1014 C1013 1.379 . S
H1015 C1009 0.959 . S
H1016 C1009 0.961 . S
H1017 C1009 0.960 . S
H1018 C1010 0.930 . S
H1019 C1011 0.929 . S
C165 C5 1.359 . S
C184 C122 1.371 . S
C201 C16 1.365 . S
C220 C133 1.345 . S
C237 C31 1.364 . S
C256 C148 1.347 . S
C273 C42 1.365 . S
C292 C83 1.346 . S
C309 C96 1.362 . S
C328 C57 1.364 . S
C345 C109 1.365 . S
C364 C68 1.345 . S
C381 C134 1.639 . S
C400 C10 1.625 . S
C417 C17 1.637 . S
C436 C153 1.634 . S
C453 C36 1.641 . S
C472 C88 1.634 . S
C489 C43 1.639 . S
C508 C101 1.645 . S
C525 C62 1.641 . S
C544 C114 1.633 . S
C561 C69 1.641 . S
C580 C127 1.642 . S
C597 C121 0.930 . S
C616 C4 0.906 1_556 S
C633 C23 0.932 . S
C652 C140 0.911 1_554 S
C669 C30 0.932 . S
C688 C147 0.913 . S
C705 C82 0.942 . S
C724 C49 0.961 1_556 S
C741 C56 0.938 . S
C760 C95 0.939 1_554 S
C777 C108 0.934 . S
C796 C75 0.918 . S
C813 C3 1.632 . S
C832 C44 1.625 . S
C849 C55 1.631 . S
C868 C18 1.623 . S
C885 C29 1.630 . S
C904 C70 1.626 . S
C921 C81 1.632 . S
C940 C120 1.633 . S
C957 C94 1.631 . S
C976 C135 1.622 . S
C993 C146 1.630 . S
C1012 C107 1.625 . S
