# Generated by pormake.
# Topology sxa, (6)-cn, num edge types: 1
# Building blocks:
#     Node 0, Type 0, BuildingBlock: JUFBIX_clean_sbu_0, # of connection points: 6
#     Node 1, Type 0, BuildingBlock: JUFBIX_clean_sbu_0, # of connection points: 6
#     Node 2, Type 0, BuildingBlock: JUFBIX_clean_sbu_0, # of connection points: 6
#     Node 3, Type 0, BuildingBlock: JUFBIX_clean_sbu_0, # of connection points: 6
#     Edge 4, Type (0, 0), BuildingBlock: CIFDUS_clean_linker_0, # of connection points: 2
#     Edge 5, Type (0, 0), BuildingBlock: CIFDUS_clean_linker_0, # of connection points: 2
#     Edge 6, Type (0, 0), BuildingBlock: CIFDUS_clean_linker_0, # of connection points: 2
#     Edge 7, Type (0, 0), BuildingBlock: CIFDUS_clean_linker_0, # of connection points: 2
#     Edge 8, Type (0, 0), BuildingBlock: CIFDUS_clean_linker_0, # of connection points: 2
#     Edge 9, Type (0, 0), BuildingBlock: CIFDUS_clean_linker_0, # of connection points: 2
#     Edge 10, Type (0, 0), BuildingBlock: CIFDUS_clean_linker_0, # of connection points: 2
#     Edge 11, Type (0, 0), BuildingBlock: CIFDUS_clean_linker_0, # of connection points: 2
#     Edge 12, Type (0, 0), BuildingBlock: CIFDUS_clean_linker_0, # of connection points: 2
#     Edge 13, Type (0, 0), BuildingBlock: CIFDUS_clean_linker_0, # of connection points: 2
#     Edge 14, Type (0, 0), BuildingBlock: CIFDUS_clean_linker_0, # of connection points: 2
#     Edge 15, Type (0, 0), BuildingBlock: CIFDUS_clean_linker_0, # of connection points: 2
# Relax obj value: 0.420
# Max RMSD: 0.299
# Mean RMSD: 0.299
data_MOF--net-sxa--node1-JUFBIX_clean_sbu_0--edge1-CIFDUS_clean_linker_0
_symmetry_space_group_name_H-M    P1
_symmetry_Int_Tables_number       1
_symmetry_cell_setting            triclinic
loop_
_symmetry_equiv_pos_as_xyz
'x, y, z'
_cell_length_a     25.254598
_cell_length_b     23.483205
_cell_length_c     13.954408
_cell_angle_alpha  90.252755
_cell_angle_beta   71.491351
_cell_angle_gamma 86.543487
loop_
_atom_site_label
_atom_site_type_symbol
_atom_site_fract_x
_atom_site_fract_y
_atom_site_fract_z
_atom_type_partial_charge
Co0 Co 0.01618 0.83219 0.166 0.0
C1 C 0.01782 0.93807 0.2441 0.0
Co2 Co 0.04462 0.82689 0.30077 0.0
C3 C 0.95657 0.80175 1.03656 0.0
C4 C -0.00093 0.87723 0.98554 0.0
N5 N -0.00793 0.8366 1.05581 0.0
N6 N 0.93854 0.81993 0.96058 0.0
C7 C 0.96497 0.86769 0.92807 0.0
H8 H 0.93752 0.76863 0.08741 0.0
H9 H 0.02311 0.91416 0.98258 0.0
C10 C 0.04019 0.7215 0.20436 0.0
N11 N 0.07773 0.82286 0.40751 0.0
C12 C 0.13058 0.80236 0.40097 0.0
C13 C 0.05792 0.84737 0.50056 0.0
N14 N 0.14502 0.8138 0.48508 0.0
C15 C 0.09853 0.84185 0.54792 0.0
C16 C 0.93019 0.82084 0.35443 0.0
O17 O 0.02478 0.75606 0.14873 0.0
O18 O 0.05285 0.74111 0.28011 0.0
O19 O 0.9705 0.82147 0.39108 0.0
O20 O 0.94065 0.82555 0.25876 0.0
O21 O 0.03647 0.9128 0.30981 0.0
H22 H 0.01738 0.87016 0.53065 0.0
H23 H 0.15865 0.78104 0.33355 0.0
O24 O 0.00619 0.90842 0.17955 0.0
O25 O 0.09104 0.83761 0.07707 0.0
O26 O 0.11449 0.83225 0.21446 0.0
C27 C 0.12828 0.83704 0.12023 0.0
H28 H 0.95517 0.89708 0.87561 0.0
H29 H 0.09427 0.85947 0.62189 0.0
Co30 Co 0.51655 0.2672 0.17289 0.0
C31 C 0.53964 0.37258 0.21215 0.0
Co32 Co 0.55529 0.26232 0.29083 0.0
C33 C 0.44714 0.24013 1.05842 0.0
C34 C 0.50811 0.29731 0.9802 0.0
N35 N 0.4907 0.26734 1.06552 0.0
N36 N 0.43375 0.2545 0.97547 0.0
C37 C 0.47267 0.28984 0.9249 0.0
H38 H 0.42059 0.21696 0.12048 0.0
H39 H 0.54117 0.32656 0.96386 0.0
C40 C 0.53091 0.15703 0.22876 0.0
N41 N 0.58935 0.26224 0.39324 0.0
C42 C 0.63945 0.28216 0.38869 0.0
C43 C 0.57166 0.23784 0.48412 0.0
N44 N 0.6541 0.27074 0.47261 0.0
C45 C 0.611 0.24301 0.53283 0.0
C46 C 0.43864 0.27654 0.36694 0.0
O47 O 0.51914 0.19036 0.16749 0.0
O48 O 0.54681 0.17801 0.29964 0.0
O49 O 0.48418 0.27724 0.38726 0.0
O50 O 0.44108 0.26961 0.27428 0.0
O51 O 0.56472 0.34742 0.26912 0.0
H52 H 0.53336 0.21608 0.51201 0.0
H53 H 0.66509 0.3038 0.32374 0.0
O54 O 0.51174 0.34329 0.1731 0.0
O55 O 0.5918 0.26654 0.07685 0.0
O56 O 0.62377 0.2469 0.20105 0.0
C57 C 0.6329 0.25425 0.1084 0.0
H58 H 0.47066 0.31483 0.86097 0.0
H59 H 0.60868 0.22557 0.60556 0.0
Co60 Co 0.01176 0.32735 0.84947 0.0
C61 C 0.03524 0.43238 0.91329 0.0
Co62 Co 0.04843 0.32218 0.96994 0.0
C63 C 0.93021 0.30675 0.74706 0.0
C64 C -0.00185 0.35149 0.65325 0.0
N65 N 0.97989 0.32707 0.74406 0.0
N66 N 0.91619 0.31808 0.66252 0.0
C67 C 0.95941 0.34601 0.60318 0.0
H68 H 0.9043 0.28501 0.8116 0.0
H69 H 0.0363 0.37357 0.62646 0.0
C70 C 0.02659 0.21691 0.92854 0.0
N71 N 0.07116 0.32189 0.08119 0.0
C72 C 0.11342 0.34907 0.09413 0.0
C73 C 0.05031 0.29275 0.16669 0.0
N74 N 0.1225 0.33564 0.18153 0.0
C75 C 0.08215 0.30087 0.22838 0.0
C76 C 0.93173 0.33481 1.02819 0.0
O77 O 0.0019 0.2422 0.87111 0.0
O78 O 0.05384 0.24618 0.96897 0.0
O79 O 0.97198 0.32209 1.06175 0.0
O80 O 0.94232 0.34326 0.93564 0.0
O81 O 0.04532 0.39903 0.97617 0.0
H82 H 0.01705 0.26389 0.17968 0.0
H83 H 0.14204 0.37181 1.03411 0.0
O84 O 0.0208 0.41151 0.8406 0.0
O85 O 0.08362 0.31213 0.75687 0.0
O86 O 0.12517 0.32038 0.87214 0.0
C87 C 0.12863 0.31315 0.77893 0.0
H88 H 0.96213 0.36347 0.53029 0.0
H89 H 0.0809 0.27671 0.2949 0.0
Co90 Co 0.52291 0.76321 0.83918 0.0
C91 C 0.5274 0.86887 0.93474 0.0
Co92 Co 0.55124 0.75834 0.97411 0.0
C93 C 0.4371 0.78764 0.73866 0.0
C94 C 0.50962 0.74221 0.63949 0.0
N95 N 0.48987 0.76699 0.73232 0.0
N96 N 0.42264 0.77604 0.65463 0.0
C97 C 0.46904 0.74771 0.59205 0.0
H98 H 0.4091 0.8092 0.80588 0.0
H99 H 0.55009 0.71924 0.60962 0.0
C100 C 0.54951 0.6522 0.89679 0.0
N101 N 0.57529 0.75426 0.08442 0.0
C102 C 0.61061 0.78936 0.10361 0.0
C103 C 0.56846 0.71372 0.15481 0.0
N104 N 0.62874 0.7714 0.1796 0.0
C105 C 0.6025 0.72355 0.21225 0.0
C106 C 0.43913 0.75362 1.01976 0.0
O107 O 0.5311 0.6773 0.83063 0.0
O108 O 0.56098 0.68202 0.96133 0.0
O109 O 0.47631 0.75332 1.06302 0.0
O110 O 0.45301 0.75793 0.92543 0.0
O111 O 0.54289 0.83453 0.99058 0.0
H112 H 0.54458 0.67664 0.15787 0.0
H113 H 0.62949 0.82253 1.0527 0.0
O114 O 0.51461 0.84901 0.85931 0.0
O115 O 0.59705 0.76856 0.74895 0.0
O116 O 0.62683 0.76461 0.88134 0.0
C117 C 0.63734 0.7692 0.78563 0.0
H118 H 0.47324 0.72989 0.51824 0.0
H119 H 0.61244 0.69429 0.26475 0.0
H120 H 0.10715 0.47797 0.99362 0.0
H121 H 0.96292 0.52267 0.90042 0.0
H122 H 0.94821 0.6133 0.99693 0.0
H123 H 0.97217 0.67517 0.11681 0.0
H124 H 0.11732 0.63255 0.20835 0.0
H125 H 0.13322 0.54218 0.10977 0.0
C126 C 0.07318 0.50822 0.99229 0.0
C127 C 0.03643 0.49376 0.93846 0.0
C128 C 0.06355 0.55857 1.05197 0.0
C129 C -0.00748 0.53314 0.93844 0.0
C130 C 0.98341 0.58422 0.99583 0.0
C131 C 0.00725 0.64603 0.11612 0.0
C132 C 0.04338 0.66066 0.17098 0.0
C133 C 0.01771 0.59637 1.05495 0.0
C134 C 0.08819 0.62203 0.16936 0.0
C135 C 0.09789 0.57109 0.11097 0.0
H136 H 0.47111 0.43377 0.13253 0.0
H137 H 0.63019 0.43972 0.18515 0.0
H138 H 0.65211 0.52133 0.07199 0.0
H139 H 0.62572 0.58965 0.95702 0.0
H140 H 0.46801 0.57945 0.90147 0.0
H141 H 0.44813 0.4964 1.01006 0.0
C142 C 0.51058 0.45312 0.12061 0.0
C143 C 0.54862 0.43084 0.16951 0.0
C144 C 0.52426 0.49697 1.05053 0.0
C145 C 0.59941 0.45668 0.15182 0.0
C146 C 0.61244 0.50239 0.0849 0.0
C147 C 0.58788 0.56782 0.96554 0.0
C148 C 0.54868 0.59042 0.91935 0.0
C149 C 0.57555 0.52209 1.03255 0.0
C150 C 0.49953 0.5623 0.93294 0.0
C151 C 0.48752 0.51586 0.99767 0.0
H152 H 0.59691 0.91635 1.01746 0.0
H153 H 0.44818 0.95644 0.93562 0.0
H154 H 0.43165 0.04604 1.0364 0.0
H155 H 0.45809 0.11013 0.15216 0.0
H156 H 0.60601 0.06813 0.23569 0.0
H157 H 0.62155 0.97831 0.13666 0.0
C158 C 0.56099 0.94489 1.02058 0.0
C159 C 0.52401 0.92975 0.96782 0.0
C160 C 0.55024 0.99404 0.08316 0.0
C161 C 0.47799 0.96746 0.97277 0.0
C162 C 0.46794 1.01792 1.03251 0.0
C163 C 0.49309 0.08061 0.15087 0.0
C164 C 0.53059 0.09562 0.20276 0.0
C165 C 0.50315 1.03083 0.08962 0.0
C166 C 0.57582 0.05719 0.1993 0.0
C167 C 0.58539 1.00661 0.14041 0.0
H168 H 0.94077 1.00127 0.18716 0.0
H169 H 0.10039 1.00997 0.23592 0.0
H170 H 0.1202 0.09227 0.12558 0.0
H171 H 0.09637 0.15472 1.00365 0.0
H172 H 0.93531 0.15061 0.9584 0.0
H173 H 0.91366 0.06949 0.07274 0.0
C174 C 0.97902 1.02268 0.17685 0.0
C175 C 0.01877 0.99984 0.22162 0.0
C176 C -0.00874 0.06795 0.10881 0.0
C177 C 0.06846 1.02735 0.20563 0.0
C178 C 0.08042 0.07333 0.13985 0.0
C179 C 0.05656 0.13578 1.01734 0.0
C180 C 0.01786 0.15845 0.97023 0.0
C181 C 0.04305 0.09237 0.08835 0.0
C182 C 0.96659 0.13325 0.99023 0.0
C183 C 0.95373 0.08788 1.05791 0.0
H184 H 0.3953 0.75783 0.48119 0.0
H185 H 0.32394 0.81991 0.79036 0.0
H186 H 0.23319 0.83581 0.766 0.0
H187 H 0.17242 0.83207 0.65844 0.0
H188 H 0.24377 0.77006 0.34921 0.0
H189 H 0.33453 0.75417 0.37355 0.0
C190 C 0.36029 0.77466 0.54403 0.0
C191 C 0.36815 0.78706 0.63831 0.0
C192 C 0.30712 0.7839 0.5297 0.0
C193 C 0.32086 0.80953 0.71695 0.0
C194 C 0.26819 0.81871 0.7031 0.0
C195 C 0.20742 0.81525 0.59557 0.0
C196 C 0.19954 0.80284 0.50131 0.0
C197 C 0.2606 0.80603 0.60988 0.0
C198 C 0.24685 0.78042 0.42264 0.0
C199 C 0.29952 0.77125 0.43647 0.0
H200 H 0.23835 0.309 0.78301 0.0
H201 H 0.14127 0.30131 0.57877 0.0
H202 H 0.22606 0.28944 0.43534 0.0
H203 H 0.32915 0.28084 0.36393 0.0
H204 H 0.42669 0.28846 0.56723 0.0
H205 H 0.34184 0.30041 0.71125 0.0
C206 C 0.23574 0.30476 0.70726 0.0
C207 C 0.18281 0.30613 0.69331 0.0
C208 C 0.28538 0.29775 0.62309 0.0
C209 C 0.18091 0.30046 0.5935 0.0
C210 C 0.22969 0.2936 0.51038 0.0
C211 C 0.33188 0.28508 0.43961 0.0
C212 C 0.38484 0.28367 0.45329 0.0
C213 C 0.28235 0.2921 0.52377 0.0
C214 C 0.38693 0.28935 0.55293 0.0
C215 C 0.33814 0.29625 0.63627 0.0
H216 H 0.89671 0.31702 0.48101 0.0
H217 H 0.81663 0.29434 0.80024 0.0
H218 H 0.72899 0.2784 0.7698 0.0
H219 H 0.67384 0.27215 0.6536 0.0
H220 H 0.75355 0.29462 0.33427 0.0
H221 H 0.84138 0.31065 0.36447 0.0
C222 C 0.86019 0.309 0.54435 0.0
C223 C 0.8642 0.30712 0.64321 0.0
C224 C 0.80919 0.30012 0.52641 0.0
C225 C 0.81587 0.29566 0.72332 0.0
C226 C 0.76523 0.2868 0.70601 0.0
C227 C 0.7103 0.28009 0.59012 0.0
C228 C 0.70619 0.28185 0.49137 0.0
C229 C 0.76129 0.28897 0.60793 0.0
C230 C 0.75446 0.29333 0.41113 0.0
C231 C 0.80517 0.30226 0.42832 0.0
H232 H 0.89444 0.80495 0.5593 0.0
H233 H 0.83412 0.81795 0.30279 0.0
H234 H 0.73941 0.80251 0.41206 0.0
H235 H 0.67311 0.78501 0.58076 0.0
H236 H 0.73341 0.77204 0.83729 0.0
H237 H 0.82813 0.78745 0.72802 0.0
C238 C 0.86064 0.80459 0.52708 0.0
C239 C 0.87191 0.81284 0.42233 0.0
C240 C 0.80595 0.79541 0.59063 0.0
C241 C 0.82715 0.81194 0.3827 0.0
C242 C 0.77277 0.80298 0.44535 0.0
C243 C 0.70692 0.78536 0.61298 0.0
C244 C 0.69564 0.77714 0.71774 0.0
C245 C 0.7616 0.79454 0.54944 0.0
C246 C 0.74039 0.77803 0.75738 0.0
C247 C 0.79478 0.78697 0.69472 0.0
H248 H 0.35936 0.71111 0.96059 0.0
H249 H 0.38711 0.81789 0.19015 0.0
H250 H 0.2935 0.86499 0.22444 0.0
H251 H 0.20798 0.87979 0.17927 0.0
H252 H 0.1803 0.77304 0.94961 0.0
H253 H 0.27392 0.72598 0.9153 0.0
C254 C 0.34401 0.74353 1.02042 0.0
C255 C 0.37945 0.76131 0.07309 0.0
C256 C 0.29272 0.77307 1.03343 0.0
C257 C 0.3599 0.80309 0.15019 0.0
C258 C 0.3074 0.83121 0.1671 0.0
C259 C 0.22337 0.84742 0.11936 0.0
C260 C 0.18794 0.8296 1.06671 0.0
C261 C 0.27468 0.81791 0.10631 0.0
C262 C 0.20751 0.78786 0.98955 0.0
C263 C 0.26002 0.75976 0.97263 0.0
H264 H 0.1814 0.23743 0.15225 0.0
H265 H 0.18859 0.41782 0.19653 0.0
H266 H 0.29021 0.40983 0.11356 0.0
H267 H 0.3739 0.35221 1.01657 0.0
H268 H 0.36629 0.17217 0.969 0.0
H269 H 0.26513 0.17964 1.05715 0.0
C270 C 0.20587 0.27433 0.14771 0.0
C271 C 0.17864 0.32797 0.18103 0.0
C272 C 0.26241 0.27004 0.09248 0.0
C273 C 0.20968 0.37613 0.17301 0.0
C274 C 0.26701 0.37177 0.1228 0.0
C275 C 0.34937 0.31529 1.02186 0.0
C276 C 0.37626 0.262 0.98482 0.0
C277 C 0.29302 0.3194 0.07842 0.0
C278 C 0.3453 0.21367 0.99469 0.0
C279 C 0.28832 0.21772 1.04767 0.0
H280 H 0.72393 0.19778 0.1253 0.0
H281 H 0.66899 0.33884 0.97581 0.0
H282 H 0.75492 0.38571 0.96221 0.0
H283 H 0.84101 0.38956 1.0062 0.0
H284 H 0.89527 0.24905 0.15789 0.0
H285 H 0.80995 0.20159 0.16922 0.0
C286 C 0.73196 0.23782 0.08625 0.0
C287 C 0.69054 0.26506 1.05168 0.0
C288 C 0.77855 0.26648 0.08719 0.0
C289 C 0.70078 0.31677 1.00143 0.0
C290 C 0.74879 0.34447 0.99725 0.0
C291 C 0.83298 0.34948 1.0451 0.0
C292 C 0.87395 0.3227 0.0814 0.0
C293 C 0.7865 0.32073 1.04386 0.0
C294 C 0.86375 0.27084 0.1312 0.0
C295 C 0.8161 0.24283 0.13419 0.0
H296 H 0.85028 0.88588 1.0585 0.0
H297 H 0.90472 0.72899 0.886 0.0
H298 H 0.81143 0.69323 0.95976 0.0
H299 H 0.71703 0.70562 0.08133 0.0
H300 H 0.66254 0.86253 0.25376 0.0
H301 H 0.7558 0.89834 0.17989 0.0
C302 C 0.84047 0.84501 1.03411 0.0
C303 C 0.8829 0.81036 0.96558 0.0
C304 C 0.78887 0.82352 0.08277 0.0
C305 C 0.87153 0.75656 0.93643 0.0
C306 C 0.81912 0.73566 0.98097 0.0
C307 C 0.72682 0.74652 0.10566 0.0
C308 C 0.6844 0.78113 0.17428 0.0
C309 C 0.77839 0.76803 1.05693 0.0
C310 C 0.69573 0.83498 0.20331 0.0
C311 C 0.74813 0.8559 0.15871 0.0
loop_
_geom_bond_atom_site_label_1
_geom_bond_atom_site_label_2
_geom_bond_distance
_geom_bond_site_symmetry_2
_ccdc_geom_bond_type
Co0 N5 2.057 1_455 S
Co0 O17 2.021 . S
Co0 O20 2.062 1_455 S
Co0 O24 2.117 . S
Co0 O25 2.020 . S
C1 O21 1.259 . S
C1 O24 1.258 . S
Co2 N11 2.057 . S
Co2 O18 2.117 . S
Co2 O19 2.020 1_455 S
Co2 O21 2.021 . S
Co2 O26 2.062 . S
C3 N5 1.316 1_556 S
C3 N6 1.347 . S
C3 H8 0.931 1_556 S
C4 N5 1.374 . S
C4 C7 1.351 1_554 S
C4 H9 0.929 . S
N5 Co0 2.057 1_655 S
N5 C3 1.316 1_554 S
N5 C4 1.374 . S
N6 C3 1.347 . S
N6 C7 1.373 . S
C7 C4 1.351 1_556 S
C7 N6 1.373 . S
C7 H28 0.931 . S
H8 C3 0.931 1_554 S
H9 C4 0.929 . S
C10 O17 1.259 . S
C10 O18 1.258 . S
N11 Co2 2.057 . S
N11 C12 1.316 . S
N11 C13 1.375 . S
C12 N11 1.316 . S
C12 N14 1.347 . S
C12 H23 0.931 . S
C13 N11 1.375 . S
C13 C15 1.350 . S
C13 H22 0.930 . S
N14 C12 1.347 . S
N14 C15 1.373 . S
C15 C13 1.350 . S
C15 N14 1.373 . S
C15 H29 0.931 . S
C16 O19 1.256 . S
C16 O20 1.255 . S
O17 Co0 2.021 . S
O17 C10 1.259 . S
O18 Co2 2.117 . S
O18 C10 1.258 . S
O19 Co2 2.020 1_655 S
O19 C16 1.256 . S
O20 Co0 2.062 1_655 S
O20 C16 1.255 . S
O21 C1 1.259 . S
O21 Co2 2.021 . S
H22 C13 0.930 . S
H23 C12 0.931 . S
O24 Co0 2.117 . S
O24 C1 1.258 . S
O25 Co0 2.020 . S
O25 C27 1.256 . S
O26 Co2 2.062 . S
O26 C27 1.255 . S
C27 O25 1.256 . S
C27 O26 1.255 . S
H28 C7 0.931 . S
H29 C15 0.931 . S
Co30 N35 2.057 . S
Co30 O47 2.021 . S
Co30 O50 2.062 . S
Co30 O54 2.117 . S
Co30 O55 2.020 . S
C31 O51 1.259 . S
C31 O54 1.258 . S
Co32 N41 2.057 . S
Co32 O48 2.117 . S
Co32 O49 2.020 . S
Co32 O51 2.021 . S
Co32 O56 2.062 . S
C33 N35 1.316 1_556 S
C33 N36 1.347 . S
C33 H38 0.931 1_556 S
C34 N35 1.374 . S
C34 C37 1.351 1_554 S
C34 H39 0.929 . S
N35 Co30 2.057 . S
N35 C33 1.316 1_554 S
N35 C34 1.374 . S
N36 C33 1.347 . S
N36 C37 1.373 . S
C37 C34 1.351 1_556 S
C37 N36 1.373 . S
C37 H58 0.931 . S
H38 C33 0.931 1_554 S
H39 C34 0.929 . S
C40 O47 1.259 . S
C40 O48 1.258 . S
N41 Co32 2.057 . S
N41 C42 1.316 . S
N41 C43 1.375 . S
C42 N41 1.316 . S
C42 N44 1.347 . S
C42 H53 0.931 . S
C43 N41 1.375 . S
C43 C45 1.350 . S
C43 H52 0.930 . S
N44 C42 1.347 . S
N44 C45 1.373 . S
C45 C43 1.350 . S
C45 N44 1.373 . S
C45 H59 0.931 . S
C46 O49 1.256 . S
C46 O50 1.255 . S
O47 Co30 2.021 . S
O47 C40 1.259 . S
O48 Co32 2.117 . S
O48 C40 1.258 . S
O49 Co32 2.020 . S
O49 C46 1.256 . S
O50 Co30 2.062 . S
O50 C46 1.255 . S
O51 C31 1.259 . S
O51 Co32 2.021 . S
H52 C43 0.930 . S
H53 C42 0.931 . S
O54 Co30 2.117 . S
O54 C31 1.258 . S
O55 Co30 2.020 . S
O55 C57 1.256 . S
O56 Co32 2.062 . S
O56 C57 1.255 . S
C57 O55 1.256 . S
C57 O56 1.255 . S
H58 C37 0.931 . S
H59 C45 0.931 . S
Co60 N65 2.057 1_455 S
Co60 O77 2.021 . S
Co60 O80 2.062 1_455 S
Co60 O84 2.117 . S
Co60 O85 2.020 . S
C61 O81 1.259 . S
C61 O84 1.258 . S
Co62 N71 2.057 . S
Co62 O78 2.117 . S
Co62 O79 2.020 1_455 S
Co62 O81 2.021 . S
Co62 O86 2.062 . S
C63 N65 1.316 . S
C63 N66 1.347 . S
C63 H68 0.931 . S
C64 N65 1.375 . S
C64 C67 1.350 . S
C64 H69 0.930 . S
N65 Co60 2.057 1_655 S
N65 C63 1.316 . S
N65 C64 1.375 . S
N66 C63 1.347 . S
N66 C67 1.373 . S
C67 C64 1.350 . S
C67 N66 1.373 . S
C67 H88 0.931 . S
H68 C63 0.931 . S
H69 C64 0.930 . S
C70 O77 1.259 . S
C70 O78 1.258 . S
N71 Co62 2.057 . S
N71 C72 1.316 1_556 S
N71 C73 1.374 . S
C72 N71 1.316 1_554 S
C72 N74 1.347 . S
C72 H83 0.931 1_554 S
C73 N71 1.374 . S
C73 C75 1.351 1_556 S
C73 H82 0.929 . S
N74 C72 1.347 . S
N74 C75 1.373 . S
C75 C73 1.351 1_554 S
C75 N74 1.373 . S
C75 H89 0.931 . S
C76 O79 1.256 . S
C76 O80 1.255 . S
O77 Co60 2.021 . S
O77 C70 1.259 . S
O78 Co62 2.117 . S
O78 C70 1.258 . S
O79 Co62 2.020 1_655 S
O79 C76 1.256 . S
O80 Co60 2.062 1_655 S
O80 C76 1.255 . S
O81 C61 1.259 . S
O81 Co62 2.021 . S
H82 C73 0.929 . S
H83 C72 0.931 1_556 S
O84 Co60 2.117 . S
O84 C61 1.258 . S
O85 Co60 2.020 . S
O85 C87 1.256 . S
O86 Co62 2.062 . S
O86 C87 1.255 . S
C87 O85 1.256 . S
C87 O86 1.255 . S
H88 C67 0.931 . S
H89 C75 0.931 . S
Co90 N95 2.057 . S
Co90 O107 2.021 . S
Co90 O110 2.062 . S
Co90 O114 2.117 . S
Co90 O115 2.020 . S
C91 O111 1.259 . S
C91 O114 1.258 . S
Co92 N101 2.057 . S
Co92 O108 2.117 . S
Co92 O109 2.020 . S
Co92 O111 2.021 . S
Co92 O116 2.062 . S
C93 N95 1.316 . S
C93 N96 1.347 . S
C93 H98 0.931 . S
C94 N95 1.375 . S
C94 C97 1.350 . S
C94 H99 0.930 . S
N95 Co90 2.057 . S
N95 C93 1.316 . S
N95 C94 1.375 . S
N96 C93 1.347 . S
N96 C97 1.373 . S
C97 C94 1.350 . S
C97 N96 1.373 . S
C97 H118 0.931 . S
H98 C93 0.931 . S
H99 C94 0.930 . S
C100 O107 1.259 . S
C100 O108 1.258 . S
N101 Co92 2.057 . S
N101 C102 1.316 1_556 S
N101 C103 1.374 . S
C102 N101 1.316 1_554 S
C102 N104 1.347 . S
C102 H113 0.931 1_554 S
C103 N101 1.374 . S
C103 C105 1.351 1_556 S
C103 H112 0.929 . S
N104 C102 1.347 . S
N104 C105 1.373 . S
C105 C103 1.351 1_554 S
C105 N104 1.373 . S
C105 H119 0.931 . S
C106 O109 1.256 . S
C106 O110 1.255 . S
O107 Co90 2.021 . S
O107 C100 1.259 . S
O108 Co92 2.117 . S
O108 C100 1.258 . S
O109 Co92 2.020 . S
O109 C106 1.256 . S
O110 Co90 2.062 . S
O110 C106 1.255 . S
O111 C91 1.259 . S
O111 Co92 2.021 . S
H112 C103 0.929 . S
H113 C102 0.931 1_556 S
O114 Co90 2.117 . S
O114 C91 1.258 . S
O115 Co90 2.020 . S
O115 C117 1.256 . S
O116 Co92 2.062 . S
O116 C117 1.255 . S
C117 O115 1.256 . S
C117 O116 1.255 . S
H118 C97 0.931 . S
H119 C105 0.931 . S
H120 C126 0.930 1_655 S
H121 C129 0.930 . S
H122 C130 0.934 . S
H123 C131 0.930 . S
H124 C134 0.930 1_655 S
H125 C135 0.934 . S
C126 H120 0.930 1_455 S
C126 C127 1.355 . S
C126 C128 1.415 . S
C127 C126 1.355 . S
C127 C129 1.419 . S
C128 C126 1.415 . S
C128 C133 1.425 1_556 S
C128 C135 1.409 1_455 S
C129 H121 0.930 . S
C129 C127 1.419 . S
C129 C130 1.359 1_556 S
C130 H122 0.934 . S
C130 C129 1.359 1_554 S
C130 C133 1.409 . S
C131 H123 0.930 . S
C131 C132 1.355 . S
C131 C133 1.415 . S
C132 C131 1.355 . S
C132 C134 1.419 . S
C133 C128 1.425 1_554 S
C133 C130 1.409 . S
C133 C131 1.415 . S
C134 H124 0.930 1_455 S
C134 C132 1.419 . S
C134 C135 1.359 1_454 S
C135 H125 0.934 . S
C135 C128 1.409 1_655 S
C135 C134 1.359 1_656 S
H136 C142 0.930 . S
H137 C145 0.930 . S
H138 C146 0.930 . S
H139 C147 0.930 . S
H140 C150 0.930 . S
H141 C151 0.930 . S
C142 H136 0.930 . S
C142 C143 1.355 . S
C142 C144 1.415 . S
C143 C142 1.355 . S
C143 C145 1.419 . S
C144 C142 1.415 . S
C144 C149 1.425 1_554 S
C144 C151 1.409 . S
C145 H137 0.930 . S
C145 C143 1.419 . S
C145 C146 1.362 1_554 S
C146 H138 0.930 . S
C146 C145 1.362 1_556 S
C146 C149 1.409 . S
C147 H139 0.930 . S
C147 C148 1.355 . S
C147 C149 1.415 . S
C148 C147 1.355 . S
C148 C150 1.419 . S
C149 C144 1.425 1_556 S
C149 C146 1.409 . S
C149 C147 1.415 . S
C150 H140 0.930 . S
C150 C148 1.419 . S
C150 C151 1.362 1_556 S
C151 H141 0.930 . S
C151 C144 1.409 . S
C151 C150 1.362 1_554 S
H152 C158 0.930 . S
H153 C161 0.930 . S
H154 C162 0.930 . S
H155 C163 0.930 . S
H156 C166 0.930 . S
H157 C167 0.930 . S
C158 H152 0.930 . S
C158 C159 1.355 . S
C158 C160 1.415 1_556 S
C159 C158 1.355 . S
C159 C161 1.419 . S
C160 C158 1.415 1_554 S
C160 C165 1.425 1_564 S
C160 C167 1.409 . S
C161 H153 0.930 . S
C161 C159 1.419 . S
C161 C162 1.362 1_565 S
C162 H154 0.930 . S
C162 C161 1.362 1_545 S
C162 C165 1.409 . S
C163 H155 0.930 . S
C163 C164 1.355 . S
C163 C165 1.415 1_554 S
C164 C163 1.355 . S
C164 C166 1.419 . S
C165 C160 1.425 1_546 S
C165 C162 1.409 . S
C165 C163 1.415 1_556 S
C166 H156 0.930 . S
C166 C164 1.419 . S
C166 C167 1.362 1_545 S
C167 H157 0.930 . S
C167 C160 1.409 . S
C167 C166 1.362 1_565 S
H168 C174 0.930 . S
H169 C177 0.930 . S
H170 C178 0.930 . S
H171 C179 0.930 1_655 S
H172 C182 0.930 . S
H173 C183 0.930 . S
C174 H168 0.930 . S
C174 C175 1.355 . S
C174 C176 1.415 1_554 S
C175 C174 1.355 . S
C175 C177 1.419 1_455 S
C176 C174 1.415 1_556 S
C176 C181 1.425 1_566 S
C176 C183 1.409 1_565 S
C177 H169 0.930 . S
C177 C175 1.419 1_655 S
C177 C178 1.362 . S
C178 H170 0.930 . S
C178 C177 1.362 . S
C178 C181 1.409 1_665 S
C179 H171 0.930 1_455 S
C179 C180 1.355 . S
C179 C181 1.415 1_556 S
C180 C179 1.355 . S
C180 C182 1.419 . S
C181 C176 1.425 1_544 S
C181 C178 1.409 1_445 S
C181 C179 1.415 1_554 S
C182 H172 0.930 . S
C182 C180 1.419 . S
C182 C183 1.362 . S
C183 H173 0.930 . S
C183 C176 1.409 1_545 S
C183 C182 1.362 . S
H184 C190 0.930 . S
H185 C193 0.930 . S
H186 C194 0.930 . S
H187 C195 0.930 . S
H188 C198 0.930 . S
H189 C199 0.930 . S
C190 H184 0.930 . S
C190 C191 1.355 . S
C190 C192 1.415 . S
C191 C190 1.355 . S
C191 C193 1.419 . S
C192 C190 1.415 . S
C192 C197 1.425 . S
C192 C199 1.409 . S
C193 H185 0.930 . S
C193 C191 1.419 . S
C193 C194 1.362 . S
C194 H186 0.930 . S
C194 C193 1.362 . S
C194 C197 1.409 . S
C195 H187 0.930 . S
C195 C196 1.355 . S
C195 C197 1.415 . S
C196 C195 1.355 . S
C196 C198 1.419 . S
C197 C192 1.425 . S
C197 C194 1.409 . S
C197 C195 1.415 . S
C198 H188 0.930 . S
C198 C196 1.419 . S
C198 C199 1.362 . S
C199 H189 0.930 . S
C199 C192 1.409 . S
C199 C198 1.362 . S
H200 C206 0.930 . S
H201 C209 0.930 . S
H202 C210 0.930 . S
H203 C211 0.930 . S
H204 C214 0.930 . S
H205 C215 0.930 . S
C206 H200 0.930 . S
C206 C207 1.355 . S
C206 C208 1.415 . S
C207 C206 1.355 . S
C207 C209 1.419 . S
C208 C206 1.415 . S
C208 C213 1.425 . S
C208 C215 1.409 . S
C209 H201 0.930 . S
C209 C207 1.419 . S
C209 C210 1.362 . S
C210 H202 0.930 . S
C210 C209 1.362 . S
C210 C213 1.409 . S
C211 H203 0.930 . S
C211 C212 1.355 . S
C211 C213 1.415 . S
C212 C211 1.355 . S
C212 C214 1.419 . S
C213 C208 1.425 . S
C213 C210 1.409 . S
C213 C211 1.415 . S
C214 H204 0.930 . S
C214 C212 1.419 . S
C214 C215 1.362 . S
C215 H205 0.930 . S
C215 C208 1.409 . S
C215 C214 1.362 . S
H216 C222 0.930 . S
H217 C225 0.930 . S
H218 C226 0.930 . S
H219 C227 0.930 . S
H220 C230 0.930 . S
H221 C231 0.930 . S
C222 H216 0.930 . S
C222 C223 1.355 . S
C222 C224 1.415 . S
C223 C222 1.355 . S
C223 C225 1.419 . S
C224 C222 1.415 . S
C224 C229 1.425 . S
C224 C231 1.409 . S
C225 H217 0.930 . S
C225 C223 1.419 . S
C225 C226 1.362 . S
C226 H218 0.930 . S
C226 C225 1.362 . S
C226 C229 1.409 . S
C227 H219 0.930 . S
C227 C228 1.355 . S
C227 C229 1.415 . S
C228 C227 1.355 . S
C228 C230 1.419 . S
C229 C224 1.425 . S
C229 C226 1.409 . S
C229 C227 1.415 . S
C230 H220 0.930 . S
C230 C228 1.419 . S
C230 C231 1.362 . S
C231 H221 0.930 . S
C231 C224 1.409 . S
C231 C230 1.362 . S
H232 C238 0.930 . S
H233 C241 0.930 . S
H234 C242 0.930 . S
H235 C243 0.930 . S
H236 C246 0.930 . S
H237 C247 0.930 . S
C238 H232 0.930 . S
C238 C239 1.355 . S
C238 C240 1.415 . S
C239 C238 1.355 . S
C239 C241 1.419 . S
C240 C238 1.415 . S
C240 C245 1.425 . S
C240 C247 1.409 . S
C241 H233 0.930 . S
C241 C239 1.419 . S
C241 C242 1.362 . S
C242 H234 0.930 . S
C242 C241 1.362 . S
C242 C245 1.409 . S
C243 H235 0.930 . S
C243 C244 1.355 . S
C243 C245 1.415 . S
C244 C243 1.355 . S
C244 C246 1.419 . S
C245 C240 1.425 . S
C245 C242 1.409 . S
C245 C243 1.415 . S
C246 H236 0.930 . S
C246 C244 1.419 . S
C246 C247 1.362 . S
C247 H237 0.930 . S
C247 C240 1.409 . S
C247 C246 1.362 . S
H248 C254 0.930 . S
H249 C257 0.930 . S
H250 C258 0.930 . S
H251 C259 0.930 . S
H252 C262 0.930 . S
H253 C263 0.930 . S
C254 H248 0.930 . S
C254 C255 1.355 . S
C254 C256 1.415 . S
C255 C254 1.355 . S
C255 C257 1.419 1_556 S
C256 C254 1.415 . S
C256 C261 1.425 1_556 S
C256 C263 1.409 . S
C257 H249 0.930 . S
C257 C255 1.419 1_554 S
C257 C258 1.362 . S
C258 H250 0.930 . S
C258 C257 1.362 . S
C258 C261 1.409 . S
C259 H251 0.930 . S
C259 C260 1.355 . S
C259 C261 1.415 . S
C260 C259 1.355 . S
C260 C262 1.419 1_554 S
C261 C256 1.425 1_554 S
C261 C258 1.409 . S
C261 C259 1.415 . S
C262 H252 0.930 . S
C262 C260 1.419 1_556 S
C262 C263 1.362 . S
C263 H253 0.930 . S
C263 C256 1.409 . S
C263 C262 1.362 . S
H264 C270 0.930 . S
H265 C273 0.930 . S
H266 C274 0.930 . S
H267 C275 0.930 . S
H268 C278 0.930 . S
H269 C279 0.930 . S
C270 H264 0.930 . S
C270 C271 1.355 . S
C270 C272 1.415 . S
C271 C270 1.355 . S
C271 C273 1.419 1_554 S
C272 C270 1.415 . S
C272 C277 1.425 1_554 S
C272 C279 1.409 . S
C273 H265 0.930 . S
C273 C271 1.419 1_556 S
C273 C274 1.362 . S
C274 H266 0.930 . S
C274 C273 1.362 . S
C274 C277 1.409 . S
C275 H267 0.930 . S
C275 C276 1.355 . S
C275 C277 1.415 . S
C276 C275 1.355 . S
C276 C278 1.419 1_556 S
C277 C272 1.425 1_556 S
C277 C274 1.409 . S
C277 C275 1.415 . S
C278 H268 0.930 . S
C278 C276 1.419 1_554 S
C278 C279 1.362 . S
C279 H269 0.930 . S
C279 C272 1.409 . S
C279 C278 1.362 . S
H280 C286 0.930 . S
H281 C289 0.930 . S
H282 C290 0.930 . S
H283 C291 0.930 . S
H284 C294 0.930 . S
H285 C295 0.930 . S
C286 H280 0.930 . S
C286 C287 1.355 1_556 S
C286 C288 1.415 . S
C287 C286 1.355 1_554 S
C287 C289 1.419 . S
C288 C286 1.415 . S
C288 C293 1.425 1_556 S
C288 C295 1.409 . S
C289 H281 0.930 . S
C289 C287 1.419 . S
C289 C290 1.362 . S
C290 H282 0.930 . S
C290 C289 1.362 . S
C290 C293 1.409 . S
C291 H283 0.930 . S
C291 C292 1.355 1_554 S
C291 C293 1.415 . S
C292 C291 1.355 1_556 S
C292 C294 1.419 . S
C293 C288 1.425 1_554 S
C293 C290 1.409 . S
C293 C291 1.415 . S
C294 H284 0.930 . S
C294 C292 1.419 . S
C294 C295 1.362 . S
C295 H285 0.930 . S
C295 C288 1.409 . S
C295 C294 1.362 . S
H296 C302 0.930 . S
H297 C305 0.930 . S
H298 C306 0.930 . S
H299 C307 0.930 . S
H300 C310 0.930 . S
H301 C311 0.930 . S
C302 H296 0.930 . S
C302 C303 1.355 1_554 S
C302 C304 1.415 . S
C303 C302 1.355 1_556 S
C303 C305 1.419 . S
C304 C302 1.415 . S
C304 C309 1.425 1_554 S
C304 C311 1.409 . S
C305 H297 0.930 . S
C305 C303 1.419 . S
C305 C306 1.362 . S
C306 H298 0.930 . S
C306 C305 1.362 . S
C306 C309 1.409 . S
C307 H299 0.930 . S
C307 C308 1.355 1_556 S
C307 C309 1.415 . S
C308 C307 1.355 1_554 S
C308 C310 1.419 . S
C309 C304 1.425 1_556 S
C309 C306 1.409 . S
C309 C307 1.415 . S
C310 H300 0.930 . S
C310 C308 1.419 . S
C310 C311 1.362 . S
C311 H301 0.930 . S
C311 C304 1.409 . S
C311 C310 1.362 . S
C127 C61 2.208 . S
C132 C10 2.208 . S
C143 C31 2.292 . S
C148 C100 2.292 . S
C159 C91 2.252 . S
C164 C40 2.252 . S
C175 C1 2.318 . S
C180 C70 2.318 . S
C191 N96 1.537 . S
C196 N14 1.537 . S
C207 C87 1.568 . S
C212 C46 1.568 . S
C223 N66 1.558 . S
C228 N44 1.558 . S
C239 C16 1.572 . S
C244 C117 1.572 . S
C255 C106 1.182 . S
C260 C27 1.182 . S
C271 N74 0.703 . S
C276 N36 0.703 . S
C287 C57 1.084 . S
C292 C76 1.084 . S
C303 N6 0.837 . S
C308 N104 0.837 . S
