# Generated by pormake.
# Topology nov, (5)-cn, num edge types: 1
# Building blocks:
#     Node 0, Type 0, BuildingBlock: XOMCOT_clean_sbu_0, # of connection points: 5
#     Node 1, Type 0, BuildingBlock: XOMCOT_clean_sbu_0, # of connection points: 5
#     Node 2, Type 0, BuildingBlock: XOMCOT_clean_sbu_0, # of connection points: 5
#     Node 3, Type 0, BuildingBlock: XOMCOT_clean_sbu_0, # of connection points: 5
#     Node 4, Type 0, BuildingBlock: XOMCOT_clean_sbu_0, # of connection points: 5
#     Node 5, Type 0, BuildingBlock: XOMCOT_clean_sbu_0, # of connection points: 5
#     Node 6, Type 0, BuildingBlock: XOMCOT_clean_sbu_0, # of connection points: 5
#     Node 7, Type 0, BuildingBlock: XOMCOT_clean_sbu_0, # of connection points: 5
#     Edge 8, Type (0, 0), BuildingBlock: CIFDUS_clean_linker_0, # of connection points: 2
#     Edge 9, Type (0, 0), BuildingBlock: CIFDUS_clean_linker_0, # of connection points: 2
#     Edge 10, Type (0, 0), BuildingBlock: CIFDUS_clean_linker_0, # of connection points: 2
#     Edge 11, Type (0, 0), BuildingBlock: CIFDUS_clean_linker_0, # of connection points: 2
#     Edge 12, Type (0, 0), BuildingBlock: CIFDUS_clean_linker_0, # of connection points: 2
#     Edge 13, Type (0, 0), BuildingBlock: CIFDUS_clean_linker_0, # of connection points: 2
#     Edge 14, Type (0, 0), BuildingBlock: CIFDUS_clean_linker_0, # of connection points: 2
#     Edge 15, Type (0, 0), BuildingBlock: CIFDUS_clean_linker_0, # of connection points: 2
#     Edge 16, Type (0, 0), BuildingBlock: CIFDUS_clean_linker_0, # of connection points: 2
#     Edge 17, Type (0, 0), BuildingBlock: CIFDUS_clean_linker_0, # of connection points: 2
#     Edge 18, Type (0, 0), BuildingBlock: CIFDUS_clean_linker_0, # of connection points: 2
#     Edge 19, Type (0, 0), BuildingBlock: CIFDUS_clean_linker_0, # of connection points: 2
#     Edge 20, Type (0, 0), BuildingBlock: CIFDUS_clean_linker_0, # of connection points: 2
#     Edge 21, Type (0, 0), BuildingBlock: CIFDUS_clean_linker_0, # of connection points: 2
#     Edge 22, Type (0, 0), BuildingBlock: CIFDUS_clean_linker_0, # of connection points: 2
#     Edge 23, Type (0, 0), BuildingBlock: CIFDUS_clean_linker_0, # of connection points: 2
#     Edge 24, Type (0, 0), BuildingBlock: CIFDUS_clean_linker_0, # of connection points: 2
#     Edge 25, Type (0, 0), BuildingBlock: CIFDUS_clean_linker_0, # of connection points: 2
#     Edge 26, Type (0, 0), BuildingBlock: CIFDUS_clean_linker_0, # of connection points: 2
#     Edge 27, Type (0, 0), BuildingBlock: CIFDUS_clean_linker_0, # of connection points: 2
# Relax obj value: 0.156
# Max RMSD: 0.187
# Mean RMSD: 0.187
data_MOF--net-nov--node1-XOMCOT_clean_sbu_0--edge1-CIFDUS_clean_linker_0
_symmetry_space_group_name_H-M    P1
_symmetry_Int_Tables_number       1
_symmetry_cell_setting            triclinic
loop_
_symmetry_equiv_pos_as_xyz
'x, y, z'
_cell_length_a     23.979401
_cell_length_b     47.89576
_cell_length_c     25.345555
_cell_angle_alpha  89.630601
_cell_angle_beta   90.317206
_cell_angle_gamma 90.437629
loop_
_atom_site_label
_atom_site_type_symbol
_atom_site_fract_x
_atom_site_fract_y
_atom_site_fract_z
_atom_type_partial_charge
Co0 Co 0.01626 0.16146 0.17204 0.0
C1 C 0.012 0.11092 0.10446 0.0
C2 C 0.05588 0.1043 0.17755 0.0
C3 C 0.05474 0.07962 0.15028 0.0
N4 N 0.02928 0.12387 0.14883 0.0
N5 N 0.02708 0.08373 0.10441 0.0
H6 H 0.98819 0.12103 0.0735 0.0
H7 H 0.07441 0.10772 0.21599 0.0
C8 C 0.12933 0.18258 0.2052 0.0
O9 O 0.11984 0.20714 0.18371 0.0
N10 N 1.00351 0.19896 0.19836 0.0
C11 C 0.97932 0.22132 0.17533 0.0
C12 C 0.97848 0.24293 0.21106 0.0
C13 C 0.01556 0.20718 0.24802 0.0
N14 N 1.00156 0.23403 0.25678 0.0
C15 C 0.9956 0.1847 0.06974 0.0
C16 C 0.10479 0.18824 0.03624 0.0
C17 C 0.06283 0.20036 1.00491 0.0
C18 C 1.00741 0.19727 0.02135 0.0
C19 C 0.09088 0.17537 0.08432 0.0
N20 N 0.03725 0.17564 0.10237 0.0
H21 H 0.95258 0.18314 0.08161 0.0
H22 H 0.12355 0.1655 0.10685 0.0
H23 H 0.96266 0.22226 0.13584 0.0
H24 H 0.03409 0.19349 0.27724 0.0
O25 O 0.93725 0.15647 0.16063 0.0
O26 O 0.98226 0.14679 0.23512 0.0
O27 O 0.09428 0.16263 0.20033 0.0
C28 C 0.93539 0.14764 0.20922 0.0
H29 H 0.07365 0.06024 0.16298 0.0
H30 H 0.96267 0.26368 0.2035 0.0
H31 H 0.14812 0.18927 0.02459 0.0
H32 H 0.97315 0.20486 0.99737 0.0
Co33 Co 0.54314 0.88145 0.66396 0.0
C34 C 0.53796 0.93697 0.6061 0.0
C35 C 0.48911 0.93493 0.67654 0.0
C36 C 0.48718 0.96171 0.65726 0.0
N37 N 0.52007 0.91908 0.64425 0.0
N38 N 0.51801 0.96309 0.61309 0.0
H39 H 0.56742 0.93184 0.5758 0.0
H40 H 0.47085 0.92772 0.71314 0.0
C41 C 0.41884 0.87866 0.6707 0.0
O42 O 0.4155 0.89235 0.6257 0.0
N43 N 0.56555 0.84481 0.68754 0.0
C44 C 0.60006 0.8262 0.66552 0.0
C45 C 0.60682 0.80409 0.70048 0.0
C46 C 0.55241 0.83413 0.73507 0.0
N47 N 0.57662 0.80921 0.74423 0.0
C48 C 0.55791 0.87423 0.55226 0.0
C49 C 0.48176 0.83107 0.54077 0.0
C50 C 0.51273 0.83966 0.49673 0.0
C51 C 0.55114 0.86163 0.50299 0.0
C52 C 0.48976 0.84428 0.58925 0.0
N53 N 0.5262 0.86622 0.59436 0.0
H54 H 0.59091 0.88938 0.55704 0.0
H55 H 0.46825 0.83587 0.62316 0.0
H56 H 0.61959 0.82873 0.62741 0.0
H57 H 0.52717 0.84519 0.7632 0.0
O58 O 0.62015 0.89154 0.65341 0.0
O59 O 0.57374 0.89645 0.7283 0.0
O60 O 0.4662 0.87273 0.69068 0.0
C61 C 0.62061 0.8986 0.70294 0.0
H62 H 0.46538 0.97898 0.67493 0.0
H63 H 0.63206 0.78581 0.69411 0.0
H64 H 0.45222 0.81391 0.53815 0.0
H65 H 0.5777 0.86821 0.47072 0.0
Co66 Co 0.01133 0.87684 0.8441 0.0
C67 C 1.00877 0.92673 0.91384 0.0
C68 C 0.05115 0.93416 0.84055 0.0
C69 C 0.05082 0.9586 0.86845 0.0
N70 N 0.02497 0.91422 0.86894 0.0
N71 N 0.02408 0.95401 0.91443 0.0
H72 H 0.98557 0.91626 0.94478 0.0
H73 H 0.0688 0.93116 0.80184 0.0
C74 C 0.12464 0.85725 0.81061 0.0
O75 O 0.11592 0.8324 0.83138 0.0
N76 N 0.99806 0.8396 0.81574 0.0
C77 C 0.97438 0.81655 0.83718 0.0
C78 C 0.9711 0.79604 0.79943 0.0
C79 C 1.00756 0.83277 0.76499 0.0
N80 N 0.99191 0.80624 0.7538 0.0
C81 C 0.99335 0.85017 0.94402 0.0
C82 C 0.10224 0.85129 0.97945 0.0
C83 C 0.06272 0.83578 0.00864 0.0
C84 C 1.00717 0.83615 0.99061 0.0
C85 C 0.0867 0.8643 0.93191 0.0
N86 N 0.03347 0.86191 0.91293 0.0
H87 H 0.95021 0.85043 0.9317 0.0
H88 H 0.11766 0.87622 0.91056 0.0
H89 H 0.95909 0.81429 0.87675 0.0
H90 H 0.02478 0.84741 0.73672 0.0
O91 O 0.93224 0.88124 0.85571 0.0
O92 O 0.97687 0.89218 0.78188 0.0
O93 O 0.089 0.87661 0.81569 0.0
C94 C 0.93019 0.89083 0.80752 0.0
H95 H 0.0696 0.97818 0.85607 0.0
H96 H 0.95452 0.77522 0.80559 0.0
H97 H 0.14499 0.85337 0.99277 0.0
H98 H 0.97426 0.82498 0.0109 0.0
Co99 Co 0.54965 0.16621 0.34977 0.0
C100 C 0.54361 0.11073 0.40855 0.0
C101 C 0.49694 0.11215 0.33626 0.0
C102 C 0.49438 0.08544 0.35579 0.0
N103 N 0.52706 0.12833 0.3694 0.0
N104 N 0.52382 0.08445 0.40111 0.0
H105 H 0.57175 0.11621 0.44016 0.0
H106 H 0.47949 0.11916 0.29908 0.0
C107 C 0.42567 0.16748 0.34448 0.0
O108 O 0.42393 0.15369 0.38945 0.0
N109 N 0.57117 0.20314 0.32598 0.0
C110 C 0.605 0.22233 0.34828 0.0
C111 C 0.60929 0.24497 0.31419 0.0
C112 C 0.55597 0.21406 0.27906 0.0
N113 N 0.57821 0.23969 0.27064 0.0
C114 C 0.56675 0.17341 0.46123 0.0
C115 C 0.4903 0.21569 0.47381 0.0
C116 C 0.52234 0.20729 0.51746 0.0
C117 C 0.56089 0.18577 0.51067 0.0
C118 C 0.49741 0.20272 0.42513 0.0
N119 N 0.534 0.18118 0.41951 0.0
H120 H 0.59983 0.15862 0.456 0.0
H121 H 0.47506 0.21097 0.39149 0.0
H122 H 0.62531 0.21997 0.38625 0.0
H123 H 0.5302 0.20286 0.25101 0.0
O124 O 0.62669 0.15675 0.36011 0.0
O125 O 0.5792 0.15145 0.28528 0.0
O126 O 0.47224 0.17412 0.32381 0.0
C127 C 0.62623 0.14934 0.31079 0.0
H128 H 0.47298 0.06795 0.33763 0.0
H129 H 0.63322 0.26384 0.32119 0.0
H130 H 0.46065 0.23253 0.47689 0.0
H131 H 0.58821 0.1794 0.54264 0.0
Co132 Co 0.53633 0.66826 0.16353 0.0
C133 C 0.54353 0.6179 0.09675 0.0
C134 C 0.58976 0.61389 0.16921 0.0
C135 C 0.59263 0.58904 0.14253 0.0
N136 N 0.55913 0.63191 0.14048 0.0
N137 N 0.56343 0.59154 0.0971 0.0
H138 H 0.51671 0.62648 0.06634 0.0
H139 H 0.60763 0.6183 0.20756 0.0
C140 C 0.64113 0.69705 0.20007 0.0
O141 O 0.6208 0.71999 0.17909 0.0
N142 N 0.51299 0.70441 0.18972 0.0
C143 C 0.48782 0.72611 0.16538 0.0
C144 C 0.47868 0.74677 0.202 0.0
C145 C 0.51742 0.71198 0.24079 0.0
N146 N 0.49735 0.7378 0.2494 0.0
C147 C 0.51739 0.69074 0.06075 0.0
C148 C 0.62647 0.70014 0.03118 0.0
C149 C 0.58331 0.70956 0.99789 0.0
C150 C 0.5284 0.70326 0.01237 0.0
C151 C 0.61341 0.68674 0.07922 0.0
N152 N 0.55919 0.68413 0.09533 0.0
H153 H 0.4743 0.68725 0.07061 0.0
H154 H 0.64708 0.67876 0.10315 0.0
H155 H 0.47602 0.72721 0.12438 0.0
H156 H 0.53628 0.69891 0.27084 0.0
O157 O 0.46042 0.65951 0.14461 0.0
O158 O 0.49648 0.65096 0.22313 0.0
O159 O 0.61346 0.6741 0.19663 0.0
C160 C 0.45292 0.65022 0.19199 0.0
H161 H 0.61456 0.57055 0.1556 0.0
H162 H 0.45891 0.76664 0.19441 0.0
H163 H 0.66976 0.70355 0.02092 0.0
H164 H 0.49351 0.70838 0.98688 0.0
Co165 Co 0.06253 0.3757 0.67145 0.0
C166 C 0.0591 0.42685 0.6042 0.0
C167 C 0.01227 0.43085 0.67573 0.0
C168 C 1.01009 0.4558 0.64864 0.0
N169 N 0.04287 0.41276 0.6479 0.0
N170 N 0.03958 0.45333 0.60373 0.0
H171 H 0.0855 0.41812 0.5741 0.0
H172 H 0.99344 0.42629 0.71352 0.0
C173 C 0.95496 0.34682 0.69614 0.0
O174 O 0.97582 0.32479 0.67298 0.0
N175 N 0.08225 0.33886 0.69847 0.0
C176 C 0.11017 0.31737 0.67705 0.0
C177 C 0.11286 0.29588 0.71353 0.0
C178 C 0.07014 0.33032 0.74795 0.0
N179 N 0.08725 0.30402 0.75806 0.0
C180 C 0.08747 0.35242 0.57046 0.0
C181 C 0.97958 0.34904 0.53233 0.0
C182 C 0.02254 0.33683 0.50312 0.0
C183 C 0.07734 0.33977 0.52192 0.0
C184 C 0.9918 0.3618 0.58072 0.0
N185 N 0.04467 0.3613 0.60123 0.0
H186 H 0.13008 0.35443 0.58383 0.0
H187 H 0.95841 0.37166 0.60184 0.0
H188 H 0.12772 0.31679 0.63811 0.0
H189 H 0.04866 0.34335 0.77587 0.0
O190 O 0.14056 0.38417 0.66074 0.0
O191 O 0.09521 0.39134 0.73514 0.0
O192 O 0.98312 0.36967 0.69747 0.0
C193 C 0.14219 0.39222 0.70956 0.0
H194 H 0.98794 0.47425 0.66085 0.0
H195 H 0.13132 0.27564 0.70714 0.0
H196 H 0.93672 0.34817 0.51878 0.0
H197 H 0.11235 0.33216 0.4995 0.0
Co198 Co 0.53732 0.38038 0.8495 0.0
C199 C 0.53925 0.43147 0.91609 0.0
C200 C 0.5799 0.43707 0.84138 0.0
C201 C 0.58183 0.46197 0.86787 0.0
N202 N 0.55332 0.41801 0.87151 0.0
N203 N 0.55625 0.4585 0.91475 0.0
H204 H 0.5164 0.42189 0.94824 0.0
H205 H 0.59641 0.43311 0.80254 0.0
C206 C 0.64892 0.35647 0.82031 0.0
O207 O 0.63224 0.332 0.83812 0.0
N208 N 0.52136 0.34291 0.8243 0.0
C209 C 0.49697 0.32078 0.84833 0.0
C210 C 0.49065 0.29959 0.81208 0.0
C211 C 0.52847 0.33497 0.77382 0.0
N212 N 0.51032 0.30864 0.7652 0.0
C213 C 0.51224 0.3594 0.95266 0.0
C214 C 0.6199 0.3521 0.98886 0.0
C215 C 0.57554 0.34213 0.01999 0.0
C216 C 0.52115 0.34722 1.00202 0.0
C217 C 0.60897 0.36486 0.93984 0.0
N218 N 0.55569 0.36652 0.92052 0.0
H219 H 0.46974 0.36207 0.9397 0.0
H220 H 0.64368 0.37315 0.91778 0.0
H221 H 0.48307 0.31992 0.88864 0.0
H222 H 0.54684 0.34836 0.74398 0.0
O223 O 0.45834 0.38645 0.85904 0.0
O224 O 0.5037 0.39487 0.78496 0.0
O225 O 0.61705 0.37767 0.82385 0.0
C226 C 0.45647 0.39446 0.81008 0.0
H227 H 0.60138 0.48107 0.85398 0.0
H228 H 0.47132 0.27944 0.81932 0.0
H229 H 0.66277 0.34952 1.00142 0.0
H230 H 0.48522 0.34147 0.0255 0.0
Co231 Co 0.06649 0.66307 0.34557 0.0
C232 C 0.05953 0.61306 0.41634 0.0
C233 C 0.01968 0.60698 0.34112 0.0
C234 C 0.01667 0.58237 0.36913 0.0
N235 N 0.04638 0.6262 0.37062 0.0
N236 N 0.04184 0.58611 0.41633 0.0
H237 H 0.08277 0.62276 0.44814 0.0
H238 H 1.00446 0.61048 0.3014 0.0
C239 C 0.95333 0.68539 0.31499 0.0
O240 O 0.96651 0.70845 0.34017 0.0
N241 N 0.08752 0.69985 0.31713 0.0
C242 C 0.13436 0.71483 0.32776 0.0
C243 C 0.13814 0.73707 0.29318 0.0
C244 C 0.06513 0.71282 0.27441 0.0
N245 N 0.09424 0.73582 0.26013 0.0
C246 C 0.07915 0.69418 0.43992 0.0
C247 C 0.97211 0.68846 0.47815 0.0
C248 C 1.01009 0.70594 0.50494 0.0
C249 C 0.06476 0.70766 0.48612 0.0
C250 C 0.98881 0.6748 0.43194 0.0
N251 N 0.04084 0.67933 0.41153 0.0
H252 H 0.1218 0.69554 0.42752 0.0
H253 H 0.95959 0.6611 0.41208 0.0
H254 H 0.16594 0.70932 0.3564 0.0
H255 H 0.03015 0.7049 0.25188 0.0
O256 O 0.14226 0.65678 0.3674 0.0
O257 O 0.10925 0.64638 0.28832 0.0
O258 O 0.98911 0.6657 0.31171 0.0
C259 C 0.15188 0.64723 0.32071 0.0
H260 H 0.99723 0.56319 0.35578 0.0
H261 H 0.17103 0.75266 0.2918 0.0
H262 H 0.9298 0.68575 0.49204 0.0
H263 H 0.09673 0.71931 0.50706 0.0
H264 H 0.01284 1.00955 0.90211 0.0
H265 H 0.01735 0.94404 0.01955 0.0
H266 H 0.01413 0.97887 0.08965 0.0
H267 H 0.0173 0.02798 0.11719 0.0
H268 H 0.01664 0.09342 0.99945 0.0
H269 H 1.01069 0.05855 0.92966 0.0
C270 C 0.01321 1.00288 0.94304 0.0
C271 C 0.01616 0.97423 0.95558 0.0
C272 C 0.0122 0.02301 0.98298 0.0
C273 C 0.01497 0.96591 0.00881 0.0
C274 C 0.01352 0.98584 0.04888 0.0
C275 C 0.01597 0.03463 0.07627 0.0
C276 C 0.01817 0.0633 0.06358 0.0
C277 C 0.01335 1.01445 0.03638 0.0
C278 C 0.01482 0.07155 0.01037 0.0
C279 C 0.0118 0.0516 0.97043 0.0
H280 H 0.5315 0.08185 0.50723 0.0
H281 H 0.53499 0.0315 0.36705 0.0
H282 H 0.53804 0.98903 0.4207 0.0
H283 H 0.53186 0.9659 0.50767 0.0
H284 H 0.52623 1.01621 0.64784 0.0
H285 H 0.53227 0.05872 0.59451 0.0
C286 C 0.53392 0.06159 0.4886 0.0
C287 C 0.53241 0.05985 0.43328 0.0
C288 C 0.53476 0.03714 0.5198 0.0
C289 C 0.53511 0.0334 0.40959 0.0
C290 C 0.53701 1.00908 0.44025 0.0
C291 C 0.53292 0.98616 0.52647 0.0
C292 C 0.52795 0.98784 0.58158 0.0
C293 C 0.53562 1.01063 0.49541 0.0
C294 C 0.52894 1.01431 0.60541 0.0
C295 C 0.5326 0.03867 0.57494 0.0
H296 H 0.55836 0.5359 0.11332 0.0
H297 H 0.55021 0.59932 0.99204 0.0
H298 H 0.54328 0.56326 0.92442 0.0
H299 H 0.54519 0.51381 0.89962 0.0
H300 H 0.55492 0.45029 0.02053 0.0
H301 H 0.55503 0.48627 0.08869 0.0
C302 C 0.55524 0.54182 0.07209 0.0
C303 C 0.55548 0.57028 0.05769 0.0
C304 C 0.55153 0.52096 0.03348 0.0
C305 C 0.54993 0.57761 1.00417 0.0
C306 C 0.54627 0.55699 0.9655 0.0
C307 C 0.5474 0.50785 0.94089 0.0
C308 C 0.55075 0.47942 0.95499 0.0
C309 C 0.54793 0.52863 0.97967 0.0
C310 C 0.55212 0.47198 0.00868 0.0
C311 C 0.55258 0.49257 0.0476 0.0
H312 H 0.04328 0.50914 0.61787 0.0
H313 H 0.05227 0.4454 0.49888 0.0
H314 H 0.05713 0.4813 0.42999 0.0
H315 H 0.05345 0.53069 0.40333 0.0
H316 H 0.04344 0.59455 0.52189 0.0
H317 H 0.04477 0.55876 0.59136 0.0
C318 C 0.0462 0.5031 0.57686 0.0
C319 C 0.04682 0.47456 0.56355 0.0
C320 C 0.04873 0.52389 0.53746 0.0
C321 C 0.05198 0.46714 0.51026 0.0
C322 C 0.05442 0.48768 0.47084 0.0
C323 C 0.05146 0.53678 0.44437 0.0
C324 C 0.04764 0.56527 0.45738 0.0
C325 C 0.05196 0.51609 0.48393 0.0
C326 C 0.04656 0.57283 0.51082 0.0
C327 C 0.04697 0.55234 0.5505 0.0
H328 H 0.32423 0.14309 0.3544 0.0
H329 H 0.41159 0.20915 0.27211 0.0
H330 H 0.32677 0.22071 0.22302 0.0
H331 H 0.22825 0.21089 0.2013 0.0
H332 H 0.14344 0.14289 0.28053 0.0
H333 H 0.22657 0.13331 0.33289 0.0
C334 C 0.3245 0.16017 0.32607 0.0
C335 C 0.37383 0.17525 0.31692 0.0
C336 C 0.27609 0.16627 0.29717 0.0
C337 C 0.37396 0.19714 0.27964 0.0
C338 C 0.32553 0.20378 0.25159 0.0
C339 C 0.22805 0.19409 0.23021 0.0
C340 C 0.17998 0.17758 0.23688 0.0
C341 C 0.27644 0.18831 0.25965 0.0
C342 C 0.18021 0.15575 0.27426 0.0
C343 C 0.22764 0.15028 0.3044 0.0
H344 H 0.31574 0.90081 0.66111 0.0
H345 H 0.40817 0.83716 0.74418 0.0
H346 H 0.32471 0.82381 0.7935 0.0
H347 H 0.22559 0.83125 0.81495 0.0
H348 H 0.13576 0.89693 0.73482 0.0
H349 H 0.21774 0.90835 0.68258 0.0
C350 C 0.31746 0.88388 0.6897 0.0
C351 C 0.36786 0.86998 0.6989 0.0
C352 C 0.26974 0.87673 0.71871 0.0
C353 C 0.36975 0.84828 0.73654 0.0
C354 C 0.32206 0.8406 0.76473 0.0
C355 C 0.22406 0.84794 0.78587 0.0
C356 C 0.17481 0.86324 0.77891 0.0
C357 C 0.27186 0.85483 0.75647 0.0
C358 C 0.17338 0.88497 0.74132 0.0
C359 C 0.22018 0.8915 0.71124 0.0
H360 H 0.82868 0.8967 0.8531 0.0
H361 H 0.91312 0.90123 0.70327 0.0
H362 H 0.82431 0.90775 0.65784 0.0
H363 H 0.72233 0.90696 0.65975 0.0
H364 H 0.63727 0.90213 0.80917 0.0
H365 H 0.72666 0.90156 0.85572 0.0
C366 C 0.8276 0.89943 0.81059 0.0
C367 C 0.87715 0.89807 0.78151 0.0
C368 C 0.77633 0.90311 0.78461 0.0
C369 C 0.8754 0.90201 0.72653 0.0
C370 C 0.82465 0.9057 0.70046 0.0
C371 C 0.72336 0.90631 0.70254 0.0
C372 C 0.67343 0.90424 0.73094 0.0
C373 C 0.77479 0.90554 0.72897 0.0
C374 C 0.67526 0.90367 0.78638 0.0
C375 C 0.72635 0.90313 0.81304 0.0
H376 H 0.72659 0.13897 0.35555 0.0
H377 H 0.64224 0.14415 0.20497 0.0
H378 H 0.73143 0.14103 0.15947 0.0
H379 H 0.83368 0.14279 0.16306 0.0
H380 H 0.91783 0.13839 0.31386 0.0
H381 H 0.82827 0.13497 0.35871 0.0
C382 C 0.72768 0.13896 0.31276 0.0
C383 C 0.67819 0.14221 0.28363 0.0
C384 C 0.77903 0.13757 0.28695 0.0
C385 C 0.67995 0.14181 0.22825 0.0
C386 C 0.73092 0.14018 0.20221 0.0
C387 C 0.83237 0.1407 0.20568 0.0
C388 C 0.88206 0.14129 0.2352 0.0
C389 C 0.78079 0.13901 0.23123 0.0
C390 C 0.87999 0.13818 0.2903 0.0
C391 C 0.82884 0.13631 0.31601 0.0
H392 H 0.87511 0.7257 0.30284 0.0
H393 H 0.90317 0.63827 0.27417 0.0
H394 H 0.80848 0.63353 0.23821 0.0
H395 H 0.71696 0.65458 0.21432 0.0
H396 H 0.69238 0.74249 0.24142 0.0
H397 H 0.7858 0.74652 0.2788 0.0
C398 C 0.8607 0.70555 0.28878 0.0
C399 C 0.89649 0.68239 0.29134 0.0
C400 C 0.80638 0.70301 0.26795 0.0
C401 C 0.8768 0.65652 0.27255 0.0
C402 C 0.82247 0.65377 0.25211 0.0
C403 C 0.732 0.67453 0.2288 0.0
C404 C 0.69744 0.69819 0.22507 0.0
C405 C 0.78671 0.67689 0.24965 0.0
C406 C 0.71794 0.72395 0.24351 0.0
C407 C 0.7715 0.72632 0.26496 0.0
H408 H 0.88521 0.38913 0.7255 0.0
H409 H 0.89847 0.29932 0.72141 0.0
H410 H 0.80617 0.29448 0.75998 0.0
H411 H 0.72095 0.31537 0.79399 0.0
H412 H 0.70499 0.40502 0.79634 0.0
H413 H 0.79858 0.41021 0.75945 0.0
C414 C 0.8679 0.36853 0.73322 0.0
C415 C 0.89884 0.34465 0.72038 0.0
C416 C 0.81411 0.3658 0.75505 0.0
C417 C 0.8756 0.31809 0.73045 0.0
C418 C 0.82273 0.31526 0.75268 0.0
C419 C 0.73791 0.33607 0.78664 0.0
C420 C 0.70587 0.35973 0.79811 0.0
C421 C 0.79151 0.33892 0.76496 0.0
C422 C 0.72858 0.3864 0.78785 0.0
C423 C 0.78221 0.3894 0.76679 0.0
H424 H 0.35491 0.40031 0.85556 0.0
H425 H 0.43657 0.39985 0.7043 0.0
H426 H 0.34602 0.40174 0.65964 0.0
H427 H 0.24363 0.39896 0.66366 0.0
H428 H 0.16199 0.39907 0.81495 0.0
H429 H 0.25251 0.40222 0.85945 0.0
C430 C 0.35294 0.401 0.81281 0.0
C431 C 0.40244 0.39972 0.78329 0.0
C432 C 0.30069 0.40188 0.7874 0.0
C433 C 0.39916 0.40083 0.72796 0.0
C434 C 0.34735 0.40177 0.70238 0.0
C435 C 0.24558 0.40008 0.70636 0.0
C436 C 0.19608 0.39856 0.73596 0.0
C437 C 0.29783 0.40163 0.7317 0.0
C438 C 0.19937 0.40021 0.79121 0.0
C439 C 0.25118 0.40186 0.81671 0.0
H440 H 0.19335 0.638 0.22167 0.0
H441 H 0.2421 0.64336 0.3854 0.0
H442 H 0.34007 0.64169 0.36115 0.0
H443 H 0.41278 0.64421 0.29271 0.0
H444 H 0.36392 0.63917 0.12898 0.0
H445 H 0.26634 0.63484 0.15389 0.0
C446 C 0.22538 0.63821 0.25204 0.0
C447 C 0.21017 0.64111 0.30516 0.0
C448 C 0.28218 0.63756 0.23782 0.0
C449 C 0.25242 0.64139 0.34405 0.0
C450 C 0.30871 0.64049 0.33027 0.0
C451 C 0.38088 0.64152 0.26263 0.0
C452 C 0.39578 0.64231 0.20911 0.0
C453 C 0.32425 0.6394 0.27717 0.0
C454 C 0.35373 0.63891 0.17057 0.0
C455 C 0.29768 0.63649 0.18471 0.0
H456 H 0.14362 0.25831 0.7925 0.0
H457 H 1.00688 0.31266 0.83096 0.0
H458 H 0.98953 0.28609 0.911 0.0
H459 H 0.01212 0.24759 0.97023 0.0
H460 H 0.14392 0.1907 0.93043 0.0
H461 H 0.16435 0.21826 0.85116 0.0
C462 C 0.10977 0.26426 0.81809 0.0
C463 C 0.07716 0.28781 0.80549 0.0
C464 C 0.09908 0.24846 0.86406 0.0
C465 C 0.03373 0.29518 0.83975 0.0
C466 C 0.02333 0.27981 0.88557 0.0
C467 C 0.0448 0.24083 0.94392 0.0
C468 C 0.07605 0.21687 0.95635 0.0
C469 C 0.05563 0.25642 0.89805 0.0
C470 C 0.11938 0.20913 0.92232 0.0
C471 C 0.13087 0.2248 0.87672 0.0
H472 H 0.50364 0.78358 0.48097 0.0
H473 H 0.51099 0.8622 0.39715 0.0
H474 H 0.50586 0.83764 0.31297 0.0
H475 H 0.50127 0.79369 0.26313 0.0
H476 H 0.49278 0.71528 0.34751 0.0
H477 H 0.49607 0.7399 0.43139 0.0
C478 C 0.5033 0.7954 0.44435 0.0
C479 C 0.50755 0.82474 0.44551 0.0
C480 C 0.50038 0.78116 0.3961 0.0
C481 C 0.50827 0.83962 0.39748 0.0
C482 C 0.5051 0.82559 0.3493 0.0
C483 C 0.49947 0.78201 0.29984 0.0
C484 C 0.49703 0.75262 0.29884 0.0
C485 C 0.50141 0.79635 0.34811 0.0
C486 C 0.49554 0.73784 0.34696 0.0
C487 C 0.49712 0.75193 0.39503 0.0
H488 H 0.9983 0.82009 0.0941 0.0
H489 H 0.1648 0.81193 0.03127 0.0
H490 H 0.19012 0.78217 0.10539 0.0
H491 H 0.16389 0.75588 0.186 0.0
H492 H 0.99438 0.75863 0.2405 0.0
H493 H 0.9707 0.79204 0.17039 0.0
C494 C 0.03993 0.81153 0.09543 0.0
C495 C 0.07919 0.81863 0.05608 0.0
C496 C 0.05359 0.793 0.13667 0.0
C497 C 0.1335 0.80771 0.06088 0.0
C498 C 0.14805 0.79023 0.10314 0.0
C499 C 0.12192 0.76395 0.18234 0.0
C500 C 0.08086 0.75504 0.2182 0.0
C501 C 0.1083 0.78245 0.14092 0.0
C502 C 0.02638 0.76521 0.21301 0.0
C503 C 0.01301 0.78434 0.17314 0.0
H504 H 0.51507 0.25283 0.75131 0.0
H505 H 0.50519 0.33124 0.66714 0.0
H506 H 0.50751 0.30675 0.58324 0.0
H507 H 0.51397 0.26322 0.53351 0.0
H508 H 0.52246 0.18453 0.61687 0.0
H509 H 0.51899 0.20894 0.70123 0.0
C510 C 0.51287 0.26452 0.71463 0.0
C511 C 0.51031 0.29388 0.71572 0.0
C512 C 0.51409 0.25026 0.6663 0.0
C513 C 0.50818 0.30871 0.66766 0.0
C514 C 0.50913 0.2947 0.61956 0.0
C515 C 0.51425 0.25135 0.57009 0.0
C516 C 0.51826 0.22206 0.56878 0.0
C517 C 0.5123 0.2655 0.61839 0.0
C518 C 0.51984 0.2071 0.6167 0.0
C519 C 0.51764 0.22104 0.66496 0.0
H520 H 0.64723 0.76899 0.781 0.0
H521 H 0.49297 0.81118 0.81523 0.0
H522 H 0.48525 0.78591 0.89777 0.0
H523 H 0.52107 0.75235 0.96061 0.0
H524 H 0.66928 0.70558 0.92553 0.0
H525 H 0.68121 0.73263 0.84376 0.0
C526 C 0.61168 0.77247 0.80621 0.0
C527 C 0.57133 0.79252 0.79178 0.0
C528 C 0.60655 0.75722 0.85384 0.0
C529 C 0.52564 0.79665 0.82543 0.0
C530 C 0.52085 0.782 0.87276 0.0
C531 C 0.55556 0.74752 0.93482 0.0
C532 C 0.59362 0.72651 0.94912 0.0
C533 C 0.561 0.76235 0.88737 0.0
C534 C 0.63931 0.72163 0.91587 0.0
C535 C 0.64587 0.73696 0.86881 0.0
H536 H 0.07271 0.28913 0.47121 0.0
H537 H 0.94548 0.34777 0.42474 0.0
H538 H 0.92677 0.32074 0.34497 0.0
H539 H 0.94724 0.28058 0.28803 0.0
H540 H 0.07817 0.22369 0.33345 0.0
H541 H 0.09467 0.25003 0.41375 0.0
C542 C 0.04136 0.29631 0.44337 0.0
C543 C 1.01083 0.32063 0.45409 0.0
C544 C 0.03129 0.28089 0.39732 0.0
C545 C 0.96936 0.32905 0.41798 0.0
C546 C 0.95883 0.31367 0.37212 0.0
C547 C 0.9797 0.27402 0.31517 0.0
C548 C 1.01106 0.24992 0.30441 0.0
C549 C 0.98966 0.28957 0.3613 0.0
C550 C 0.0525 0.24171 0.34075 0.0
C551 C 0.06235 0.25693 0.38669 0.0
H552 H 0.51297 0.2989 0.0581 0.0
H553 H 0.65983 0.348 0.0944 0.0
H554 H 0.67411 0.32056 0.17504 0.0
H555 H 0.64439 0.28241 0.23555 0.0
H556 H 0.49269 0.23673 0.20046 0.0
H557 H 0.48061 0.26347 0.11983 0.0
C558 C 0.54761 0.30416 0.08394 0.0
C559 C 0.58492 0.32581 0.06986 0.0
C560 C 0.55484 0.2888 0.13077 0.0
C561 C 0.63056 0.33137 0.10352 0.0
C562 C 0.63857 0.31578 0.15001 0.0
C563 C 0.60839 0.27846 0.21064 0.0
C564 C 0.57013 0.25706 0.22422 0.0
C565 C 0.60087 0.29442 0.16412 0.0
C566 C 0.52384 0.25237 0.19089 0.0
C567 C 0.51652 0.26786 0.14467 0.0
H568 H 0.04405 0.75842 0.5297 0.0
H569 H 0.94082 0.69065 0.58701 0.0
H570 H 0.92335 0.71658 0.66816 0.0
H571 H 0.94222 0.75726 0.72464 0.0
H572 H 0.05324 0.8225 0.66871 0.0
H573 H 0.06307 0.7985 0.58559 0.0
C574 C 0.01809 0.74908 0.56006 0.0
C575 C 0.99453 0.72236 0.55239 0.0
C576 C 1.00982 0.76361 0.60714 0.0
C577 C 0.95941 0.71117 0.59157 0.0
C578 C 0.94982 0.72591 0.63824 0.0
C579 C 0.96891 0.76628 0.69469 0.0
C580 C 0.99681 0.79192 0.70382 0.0
C581 C 0.97569 0.75194 0.64684 0.0
C582 C 0.03045 0.80317 0.66343 0.0
C583 C 0.03648 0.78932 0.6156 0.0
loop_
_geom_bond_atom_site_label_1
_geom_bond_atom_site_label_2
_geom_bond_distance
_geom_bond_site_symmetry_2
_ccdc_geom_bond_type
Co0 N4 2.148 . S
Co0 N10 2.128 . S
Co0 N20 2.194 . S
Co0 O25 2.351 1_455 S
Co0 O26 2.155 1_455 S
Co0 O27 2.096 . S
C1 N4 1.301 1_655 S
C1 N5 1.328 1_655 S
C1 H6 0.930 . S
C2 C3 1.333 . S
C2 N4 1.317 . S
C2 H7 0.930 . S
C3 C2 1.333 . S
C3 N5 1.350 . S
C3 H29 0.931 . S
N4 Co0 2.148 . S
N4 C1 1.301 1_455 S
N4 C2 1.317 . S
N5 C1 1.328 1_455 S
N5 C3 1.350 . S
H6 C1 0.930 . S
H7 C2 0.930 . S
C8 O9 1.224 . S
C8 O27 1.247 . S
O9 C8 1.224 . S
N10 Co0 2.128 . S
N10 C11 1.355 1_455 S
N10 C13 1.311 . S
C11 N10 1.355 1_655 S
C11 C12 1.363 . S
C11 H23 0.929 . S
C12 C11 1.363 . S
C12 N14 1.375 1_655 S
C12 H30 0.931 . S
C13 N10 1.311 . S
C13 N14 1.347 . S
C13 H24 0.929 . S
N14 C12 1.375 1_455 S
N14 C13 1.347 . S
C15 C18 1.365 . S
C15 N20 1.328 1_655 S
C15 H21 0.929 . S
C16 C17 1.362 . S
C16 C19 1.378 . S
C16 H31 0.929 . S
C17 C16 1.362 . S
C17 C18 1.366 1_455 S
C18 C15 1.365 . S
C18 C17 1.366 1_655 S
C18 H32 0.930 . S
C19 C16 1.378 . S
C19 N20 1.315 . S
C19 H22 0.930 . S
N20 Co0 2.194 . S
N20 C15 1.328 1_455 S
N20 C19 1.315 . S
H21 C15 0.929 . S
H22 C19 0.930 . S
H23 C11 0.929 . S
H24 C13 0.929 . S
O25 Co0 2.351 1_655 S
O25 C28 1.244 . S
O26 Co0 2.155 1_655 S
O26 C28 1.240 . S
O27 Co0 2.096 . S
O27 C8 1.247 . S
C28 O25 1.244 . S
C28 O26 1.240 . S
H29 C3 0.931 . S
H30 C12 0.931 . S
H31 C16 0.929 . S
H32 C18 0.930 . S
Co33 N37 2.148 . S
Co33 N43 2.128 . S
Co33 N53 2.194 . S
Co33 O58 2.351 . S
Co33 O59 2.155 . S
Co33 O60 2.096 . S
C34 N37 1.301 . S
C34 N38 1.328 . S
C34 H39 0.930 . S
C35 C36 1.333 . S
C35 N37 1.317 . S
C35 H40 0.930 . S
C36 C35 1.333 . S
C36 N38 1.350 . S
C36 H62 0.931 . S
N37 Co33 2.148 . S
N37 C34 1.301 . S
N37 C35 1.317 . S
N38 C34 1.328 . S
N38 C36 1.350 . S
H39 C34 0.930 . S
H40 C35 0.930 . S
C41 O42 1.224 . S
C41 O60 1.247 . S
O42 C41 1.224 . S
N43 Co33 2.128 . S
N43 C44 1.355 . S
N43 C46 1.311 . S
C44 N43 1.355 . S
C44 C45 1.363 . S
C44 H56 0.929 . S
C45 C44 1.363 . S
C45 N47 1.375 . S
C45 H63 0.931 . S
C46 N43 1.311 . S
C46 N47 1.347 . S
C46 H57 0.929 . S
N47 C45 1.375 . S
N47 C46 1.347 . S
C48 C51 1.365 . S
C48 N53 1.328 . S
C48 H54 0.929 . S
C49 C50 1.362 . S
C49 C52 1.378 . S
C49 H64 0.929 . S
C50 C49 1.362 . S
C50 C51 1.366 . S
C51 C48 1.365 . S
C51 C50 1.366 . S
C51 H65 0.930 . S
C52 C49 1.378 . S
C52 N53 1.315 . S
C52 H55 0.930 . S
N53 Co33 2.194 . S
N53 C48 1.328 . S
N53 C52 1.315 . S
H54 C48 0.929 . S
H55 C52 0.930 . S
H56 C44 0.929 . S
H57 C46 0.929 . S
O58 Co33 2.351 . S
O58 C61 1.244 . S
O59 Co33 2.155 . S
O59 C61 1.240 . S
O60 Co33 2.096 . S
O60 C41 1.247 . S
C61 O58 1.244 . S
C61 O59 1.240 . S
H62 C36 0.931 . S
H63 C45 0.931 . S
H64 C49 0.929 . S
H65 C51 0.930 . S
Co66 N70 2.148 . S
Co66 N76 2.128 . S
Co66 N86 2.194 . S
Co66 O91 2.351 1_455 S
Co66 O92 2.155 1_455 S
Co66 O93 2.096 . S
C67 N70 1.301 1_655 S
C67 N71 1.328 1_655 S
C67 H72 0.930 . S
C68 C69 1.333 . S
C68 N70 1.317 . S
C68 H73 0.930 . S
C69 C68 1.333 . S
C69 N71 1.350 . S
C69 H95 0.931 . S
N70 Co66 2.148 . S
N70 C67 1.301 1_455 S
N70 C68 1.317 . S
N71 C67 1.328 1_455 S
N71 C69 1.350 . S
H72 C67 0.930 . S
H73 C68 0.930 . S
C74 O75 1.224 . S
C74 O93 1.247 . S
O75 C74 1.224 . S
N76 Co66 2.128 . S
N76 C77 1.355 1_455 S
N76 C79 1.311 . S
C77 N76 1.355 1_655 S
C77 C78 1.363 . S
C77 H89 0.929 . S
C78 C77 1.363 . S
C78 N80 1.375 1_655 S
C78 H96 0.931 . S
C79 N76 1.311 . S
C79 N80 1.347 . S
C79 H90 0.929 . S
N80 C78 1.375 1_455 S
N80 C79 1.347 . S
C81 C84 1.365 . S
C81 N86 1.328 1_655 S
C81 H87 0.929 . S
C82 C83 1.362 . S
C82 C85 1.378 . S
C82 H97 0.929 . S
C83 C82 1.362 . S
C83 C84 1.366 1_455 S
C84 C81 1.365 . S
C84 C83 1.366 1_655 S
C84 H98 0.930 . S
C85 C82 1.378 . S
C85 N86 1.315 . S
C85 H88 0.930 . S
N86 Co66 2.194 . S
N86 C81 1.328 1_455 S
N86 C85 1.315 . S
H87 C81 0.929 . S
H88 C85 0.930 . S
H89 C77 0.929 . S
H90 C79 0.929 . S
O91 Co66 2.351 1_655 S
O91 C94 1.244 . S
O92 Co66 2.155 1_655 S
O92 C94 1.240 . S
O93 Co66 2.096 . S
O93 C74 1.247 . S
C94 O91 1.244 . S
C94 O92 1.240 . S
H95 C69 0.931 . S
H96 C78 0.931 . S
H97 C82 0.929 . S
H98 C84 0.930 . S
Co99 N103 2.148 . S
Co99 N109 2.128 . S
Co99 N119 2.194 . S
Co99 O124 2.351 . S
Co99 O125 2.155 . S
Co99 O126 2.096 . S
C100 N103 1.301 . S
C100 N104 1.328 . S
C100 H105 0.930 . S
C101 C102 1.333 . S
C101 N103 1.317 . S
C101 H106 0.930 . S
C102 C101 1.333 . S
C102 N104 1.350 . S
C102 H128 0.931 . S
N103 Co99 2.148 . S
N103 C100 1.301 . S
N103 C101 1.317 . S
N104 C100 1.328 . S
N104 C102 1.350 . S
H105 C100 0.930 . S
H106 C101 0.930 . S
C107 O108 1.224 . S
C107 O126 1.247 . S
O108 C107 1.224 . S
N109 Co99 2.128 . S
N109 C110 1.355 . S
N109 C112 1.311 . S
C110 N109 1.355 . S
C110 C111 1.363 . S
C110 H122 0.929 . S
C111 C110 1.363 . S
C111 N113 1.375 . S
C111 H129 0.931 . S
C112 N109 1.311 . S
C112 N113 1.347 . S
C112 H123 0.929 . S
N113 C111 1.375 . S
N113 C112 1.347 . S
C114 C117 1.365 . S
C114 N119 1.328 . S
C114 H120 0.929 . S
C115 C116 1.362 . S
C115 C118 1.378 . S
C115 H130 0.929 . S
C116 C115 1.362 . S
C116 C117 1.366 . S
C117 C114 1.365 . S
C117 C116 1.366 . S
C117 H131 0.930 . S
C118 C115 1.378 . S
C118 N119 1.315 . S
C118 H121 0.930 . S
N119 Co99 2.194 . S
N119 C114 1.328 . S
N119 C118 1.315 . S
H120 C114 0.929 . S
H121 C118 0.930 . S
H122 C110 0.929 . S
H123 C112 0.929 . S
O124 Co99 2.351 . S
O124 C127 1.244 . S
O125 Co99 2.155 . S
O125 C127 1.240 . S
O126 Co99 2.096 . S
O126 C107 1.247 . S
C127 O124 1.244 . S
C127 O125 1.240 . S
H128 C102 0.931 . S
H129 C111 0.931 . S
H130 C115 0.929 . S
H131 C117 0.930 . S
Co132 N136 2.148 . S
Co132 N142 2.128 . S
Co132 N152 2.194 . S
Co132 O157 2.351 . S
Co132 O158 2.155 . S
Co132 O159 2.096 . S
C133 N136 1.301 . S
C133 N137 1.328 . S
C133 H138 0.930 . S
C134 C135 1.333 . S
C134 N136 1.317 . S
C134 H139 0.930 . S
C135 C134 1.333 . S
C135 N137 1.350 . S
C135 H161 0.931 . S
N136 Co132 2.148 . S
N136 C133 1.301 . S
N136 C134 1.317 . S
N137 C133 1.328 . S
N137 C135 1.350 . S
H138 C133 0.930 . S
H139 C134 0.930 . S
C140 O141 1.224 . S
C140 O159 1.247 . S
O141 C140 1.224 . S
N142 Co132 2.128 . S
N142 C143 1.355 . S
N142 C145 1.311 . S
C143 N142 1.355 . S
C143 C144 1.363 . S
C143 H155 0.929 . S
C144 C143 1.363 . S
C144 N146 1.375 . S
C144 H162 0.931 . S
C145 N142 1.311 . S
C145 N146 1.347 . S
C145 H156 0.929 . S
N146 C144 1.375 . S
N146 C145 1.347 . S
C147 C150 1.365 . S
C147 N152 1.328 . S
C147 H153 0.929 . S
C148 C149 1.362 . S
C148 C151 1.378 . S
C148 H163 0.929 . S
C149 C148 1.362 . S
C149 C150 1.366 . S
C150 C147 1.365 . S
C150 C149 1.366 . S
C150 H164 0.930 . S
C151 C148 1.378 . S
C151 N152 1.315 . S
C151 H154 0.930 . S
N152 Co132 2.194 . S
N152 C147 1.328 . S
N152 C151 1.315 . S
H153 C147 0.929 . S
H154 C151 0.930 . S
H155 C143 0.929 . S
H156 C145 0.929 . S
O157 Co132 2.351 . S
O157 C160 1.244 . S
O158 Co132 2.155 . S
O158 C160 1.240 . S
O159 Co132 2.096 . S
O159 C140 1.247 . S
C160 O157 1.244 . S
C160 O158 1.240 . S
H161 C135 0.931 . S
H162 C144 0.931 . S
H163 C148 0.929 . S
H164 C150 0.930 . S
Co165 N169 2.148 . S
Co165 N175 2.128 . S
Co165 N185 2.194 . S
Co165 O190 2.351 . S
Co165 O191 2.155 . S
Co165 O192 2.096 1_455 S
C166 N169 1.301 . S
C166 N170 1.328 . S
C166 H171 0.930 . S
C167 C168 1.333 1_655 S
C167 N169 1.317 1_655 S
C167 H172 0.930 . S
C168 C167 1.333 1_455 S
C168 N170 1.350 . S
C168 H194 0.931 1_455 S
N169 Co165 2.148 . S
N169 C166 1.301 . S
N169 C167 1.317 1_455 S
N170 C166 1.328 . S
N170 C168 1.350 . S
H171 C166 0.930 . S
H172 C167 0.930 . S
C173 O174 1.224 . S
C173 O192 1.247 . S
O174 C173 1.224 . S
N175 Co165 2.128 . S
N175 C176 1.355 . S
N175 C178 1.311 . S
C176 N175 1.355 . S
C176 C177 1.363 . S
C176 H188 0.929 . S
C177 C176 1.363 . S
C177 N179 1.375 . S
C177 H195 0.931 . S
C178 N175 1.311 . S
C178 N179 1.347 . S
C178 H189 0.929 1_455 S
N179 C177 1.375 . S
N179 C178 1.347 . S
C180 C183 1.365 . S
C180 N185 1.328 . S
C180 H186 0.929 . S
C181 C182 1.362 1_655 S
C181 C184 1.378 . S
C181 H196 0.929 . S
C182 C181 1.362 1_455 S
C182 C183 1.366 . S
C183 C180 1.365 . S
C183 C182 1.366 . S
C183 H197 0.930 . S
C184 C181 1.378 . S
C184 N185 1.315 1_655 S
C184 H187 0.930 . S
N185 Co165 2.194 . S
N185 C180 1.328 . S
N185 C184 1.315 1_455 S
H186 C180 0.929 . S
H187 C184 0.930 . S
H188 C176 0.929 . S
H189 C178 0.929 1_655 S
O190 Co165 2.351 . S
O190 C193 1.244 . S
O191 Co165 2.155 . S
O191 C193 1.240 . S
O192 Co165 2.096 1_655 S
O192 C173 1.247 . S
C193 O190 1.244 . S
C193 O191 1.240 . S
H194 C168 0.931 1_655 S
H195 C177 0.931 . S
H196 C181 0.929 . S
H197 C183 0.930 . S
Co198 N202 2.148 . S
Co198 N208 2.128 . S
Co198 N218 2.194 . S
Co198 O223 2.351 . S
Co198 O224 2.155 . S
Co198 O225 2.096 . S
C199 N202 1.301 . S
C199 N203 1.328 . S
C199 H204 0.930 . S
C200 C201 1.333 . S
C200 N202 1.317 . S
C200 H205 0.930 . S
C201 C200 1.333 . S
C201 N203 1.350 . S
C201 H227 0.931 . S
N202 Co198 2.148 . S
N202 C199 1.301 . S
N202 C200 1.317 . S
N203 C199 1.328 . S
N203 C201 1.350 . S
H204 C199 0.930 . S
H205 C200 0.930 . S
C206 O207 1.224 . S
C206 O225 1.247 . S
O207 C206 1.224 . S
N208 Co198 2.128 . S
N208 C209 1.355 . S
N208 C211 1.311 . S
C209 N208 1.355 . S
C209 C210 1.363 . S
C209 H221 0.929 . S
C210 C209 1.363 . S
C210 N212 1.375 . S
C210 H228 0.931 . S
C211 N208 1.311 . S
C211 N212 1.347 . S
C211 H222 0.929 . S
N212 C210 1.375 . S
N212 C211 1.347 . S
C213 C216 1.365 . S
C213 N218 1.328 . S
C213 H219 0.929 . S
C214 C215 1.362 . S
C214 C217 1.378 . S
C214 H229 0.929 . S
C215 C214 1.362 . S
C215 C216 1.366 . S
C216 C213 1.365 . S
C216 C215 1.366 . S
C216 H230 0.930 . S
C217 C214 1.378 . S
C217 N218 1.315 . S
C217 H220 0.930 . S
N218 Co198 2.194 . S
N218 C213 1.328 . S
N218 C217 1.315 . S
H219 C213 0.929 . S
H220 C217 0.930 . S
H221 C209 0.929 . S
H222 C211 0.929 . S
O223 Co198 2.351 . S
O223 C226 1.244 . S
O224 Co198 2.155 . S
O224 C226 1.240 . S
O225 Co198 2.096 . S
O225 C206 1.247 . S
C226 O223 1.244 . S
C226 O224 1.240 . S
H227 C201 0.931 . S
H228 C210 0.931 . S
H229 C214 0.929 . S
H230 C216 0.930 . S
Co231 N235 2.148 . S
Co231 N241 2.128 . S
Co231 N251 2.194 . S
Co231 O256 2.351 . S
Co231 O257 2.155 . S
Co231 O258 2.096 1_455 S
C232 N235 1.301 . S
C232 N236 1.328 . S
C232 H237 0.930 . S
C233 C234 1.333 1_655 S
C233 N235 1.317 1_655 S
C233 H238 0.930 . S
C234 C233 1.333 1_455 S
C234 N236 1.350 . S
C234 H260 0.931 1_455 S
N235 Co231 2.148 . S
N235 C232 1.301 . S
N235 C233 1.317 1_455 S
N236 C232 1.328 . S
N236 C234 1.350 . S
H237 C232 0.930 . S
H238 C233 0.930 . S
C239 O240 1.224 . S
C239 O258 1.247 . S
O240 C239 1.224 . S
N241 Co231 2.128 . S
N241 C242 1.355 . S
N241 C244 1.311 . S
C242 N241 1.355 . S
C242 C243 1.363 . S
C242 H254 0.929 . S
C243 C242 1.363 . S
C243 N245 1.375 . S
C243 H261 0.931 . S
C244 N241 1.311 . S
C244 N245 1.347 . S
C244 H255 0.929 1_455 S
N245 C243 1.375 . S
N245 C244 1.347 . S
C246 C249 1.365 . S
C246 N251 1.328 . S
C246 H252 0.929 . S
C247 C248 1.362 1_655 S
C247 C250 1.378 . S
C247 H262 0.929 . S
C248 C247 1.362 1_455 S
C248 C249 1.366 . S
C249 C246 1.365 . S
C249 C248 1.366 . S
C249 H263 0.930 . S
C250 C247 1.378 . S
C250 N251 1.315 1_655 S
C250 H253 0.930 . S
N251 Co231 2.194 . S
N251 C246 1.328 . S
N251 C250 1.315 1_455 S
H252 C246 0.929 . S
H253 C250 0.930 . S
H254 C242 0.929 . S
H255 C244 0.929 1_655 S
O256 Co231 2.351 . S
O256 C259 1.244 . S
O257 Co231 2.155 . S
O257 C259 1.240 . S
O258 Co231 2.096 1_655 S
O258 C239 1.247 . S
C259 O256 1.244 . S
C259 O257 1.240 . S
H260 C234 0.931 1_655 S
H261 C243 0.931 . S
H262 C247 0.929 . S
H263 C249 0.930 . S
H264 C270 0.930 . S
H265 C273 0.930 . S
H266 C274 0.930 . S
H267 C275 0.930 . S
H268 C278 0.930 . S
H269 C279 0.930 . S
C270 H264 0.930 . S
C270 C271 1.355 1_455 S
C270 C272 1.415 . S
C271 C270 1.355 1_655 S
C271 C273 1.419 . S
C272 C270 1.415 . S
C272 C277 1.425 1_466 S
C272 C279 1.409 1_565 S
C273 H265 0.930 . S
C273 C271 1.419 . S
C273 C274 1.362 1_556 S
C274 H266 0.930 . S
C274 C273 1.362 1_554 S
C274 C277 1.409 1_565 S
C275 H267 0.930 . S
C275 C276 1.350 1_655 S
C275 C277 1.415 . S
C276 C275 1.350 1_455 S
C276 C278 1.425 . S
C277 C272 1.425 1_644 S
C277 C274 1.409 1_545 S
C277 C275 1.415 . S
C278 H268 0.930 . S
C278 C276 1.425 . S
C278 C279 1.362 1_554 S
C279 H269 0.930 . S
C279 C272 1.409 1_545 S
C279 C278 1.362 1_556 S
H280 C286 0.930 . S
H281 C289 0.930 . S
H282 C290 0.930 1_565 S
H283 C291 0.930 . S
H284 C294 0.930 . S
H285 C295 0.930 1_545 S
C286 H280 0.930 . S
C286 C287 1.355 . S
C286 C288 1.415 . S
C287 C286 1.355 . S
C287 C289 1.419 . S
C288 C286 1.415 . S
C288 C293 1.425 1_545 S
C288 C295 1.409 1_545 S
C289 H281 0.930 . S
C289 C287 1.419 . S
C289 C290 1.362 . S
C290 H282 0.930 1_545 S
C290 C289 1.362 . S
C290 C293 1.409 1_545 S
C291 H283 0.930 . S
C291 C292 1.355 . S
C291 C293 1.415 . S
C292 C291 1.355 . S
C292 C294 1.419 . S
C293 C288 1.425 1_565 S
C293 C290 1.409 1_565 S
C293 C291 1.415 . S
C294 H284 0.930 . S
C294 C292 1.419 . S
C294 C295 1.362 . S
C295 H285 0.930 1_565 S
C295 C288 1.409 1_565 S
C295 C294 1.362 . S
H296 C302 0.930 . S
H297 C305 0.930 . S
H298 C306 0.930 . S
H299 C307 0.930 . S
H300 C310 0.930 . S
H301 C311 0.930 . S
C302 H296 0.930 . S
C302 C303 1.355 . S
C302 C304 1.415 1_554 S
C303 C302 1.355 . S
C303 C305 1.419 . S
C304 C302 1.415 1_556 S
C304 C309 1.425 1_556 S
C304 C311 1.409 . S
C305 H297 0.930 . S
C305 C303 1.419 . S
C305 C306 1.362 . S
C306 H298 0.930 . S
C306 C305 1.362 . S
C306 C309 1.409 . S
C307 H299 0.930 . S
C307 C308 1.355 . S
C307 C309 1.415 1_556 S
C308 C307 1.355 . S
C308 C310 1.419 . S
C309 C304 1.425 1_554 S
C309 C306 1.409 . S
C309 C307 1.415 1_554 S
C310 H300 0.930 . S
C310 C308 1.419 . S
C310 C311 1.362 . S
C311 H301 0.930 . S
C311 C304 1.409 . S
C311 C310 1.362 . S
H312 C318 0.939 . S
H313 C321 0.930 . S
H314 C322 0.930 . S
H315 C323 0.930 . S
H316 C326 0.930 1_655 S
H317 C327 0.927 1_655 S
C318 H312 0.939 . S
C318 C319 1.355 . S
C318 C320 1.415 . S
C319 C318 1.355 . S
C319 C321 1.419 . S
C320 C318 1.415 . S
C320 C325 1.425 . S
C320 C327 1.411 . S
C321 H313 0.930 . S
C321 C319 1.419 . S
C321 C322 1.362 . S
C322 H314 0.930 . S
C322 C321 1.362 . S
C322 C325 1.409 . S
C323 H315 0.930 . S
C323 C324 1.355 . S
C323 C325 1.415 . S
C324 C323 1.355 . S
C324 C326 1.419 . S
C325 C320 1.425 . S
C325 C322 1.409 . S
C325 C323 1.415 . S
C326 H316 0.930 1_455 S
C326 C324 1.419 . S
C326 C327 1.363 . S
C327 H317 0.927 1_455 S
C327 C320 1.411 . S
C327 C326 1.363 . S
H328 C334 0.930 . S
H329 C337 0.930 . S
H330 C338 0.930 . S
H331 C339 0.930 . S
H332 C342 0.930 . S
H333 C343 0.930 . S
C334 H328 0.930 . S
C334 C335 1.355 . S
C334 C336 1.415 . S
C335 C334 1.355 . S
C335 C337 1.419 . S
C336 C334 1.415 . S
C336 C341 1.425 . S
C336 C343 1.409 . S
C337 H329 0.930 . S
C337 C335 1.419 . S
C337 C338 1.362 . S
C338 H330 0.930 . S
C338 C337 1.362 . S
C338 C341 1.409 . S
C339 H331 0.930 . S
C339 C340 1.355 . S
C339 C341 1.415 . S
C340 C339 1.355 . S
C340 C342 1.419 . S
C341 C336 1.425 . S
C341 C338 1.409 . S
C341 C339 1.415 . S
C342 H332 0.930 . S
C342 C340 1.419 . S
C342 C343 1.362 . S
C343 H333 0.930 . S
C343 C336 1.409 . S
C343 C342 1.362 . S
H344 C350 0.930 . S
H345 C353 0.930 . S
H346 C354 0.930 . S
H347 C355 0.930 . S
H348 C358 0.930 . S
H349 C359 0.930 . S
C350 H344 0.930 . S
C350 C351 1.355 . S
C350 C352 1.415 . S
C351 C350 1.355 . S
C351 C353 1.419 . S
C352 C350 1.415 . S
C352 C357 1.425 . S
C352 C359 1.409 . S
C353 H345 0.930 . S
C353 C351 1.419 . S
C353 C354 1.362 . S
C354 H346 0.930 . S
C354 C353 1.362 . S
C354 C357 1.409 . S
C355 H347 0.930 . S
C355 C356 1.355 . S
C355 C357 1.415 . S
C356 C355 1.355 . S
C356 C358 1.419 . S
C357 C352 1.425 . S
C357 C354 1.409 . S
C357 C355 1.415 . S
C358 H348 0.930 . S
C358 C356 1.419 . S
C358 C359 1.362 . S
C359 H349 0.930 . S
C359 C352 1.409 . S
C359 C358 1.362 . S
H360 C366 0.930 . S
H361 C369 0.930 . S
H362 C370 0.930 . S
H363 C371 0.930 . S
H364 C374 0.930 . S
H365 C375 0.930 . S
C366 H360 0.930 . S
C366 C367 1.355 . S
C366 C368 1.415 . S
C367 C366 1.355 . S
C367 C369 1.419 . S
C368 C366 1.415 . S
C368 C373 1.425 . S
C368 C375 1.409 . S
C369 H361 0.930 . S
C369 C367 1.419 . S
C369 C370 1.362 . S
C370 H362 0.930 . S
C370 C369 1.362 . S
C370 C373 1.409 . S
C371 H363 0.930 . S
C371 C372 1.355 . S
C371 C373 1.415 . S
C372 C371 1.355 . S
C372 C374 1.419 . S
C373 C368 1.425 . S
C373 C370 1.409 . S
C373 C371 1.415 . S
C374 H364 0.930 . S
C374 C372 1.419 . S
C374 C375 1.362 . S
C375 H365 0.930 . S
C375 C368 1.409 . S
C375 C374 1.362 . S
H376 C382 0.930 . S
H377 C385 0.930 . S
H378 C386 0.930 . S
H379 C387 0.930 . S
H380 C390 0.930 . S
H381 C391 0.930 . S
C382 H376 0.930 . S
C382 C383 1.355 . S
C382 C384 1.415 . S
C383 C382 1.355 . S
C383 C385 1.419 . S
C384 C382 1.415 . S
C384 C389 1.425 . S
C384 C391 1.409 . S
C385 H377 0.930 . S
C385 C383 1.419 . S
C385 C386 1.362 . S
C386 H378 0.930 . S
C386 C385 1.362 . S
C386 C389 1.409 . S
C387 H379 0.930 . S
C387 C388 1.355 . S
C387 C389 1.415 . S
C388 C387 1.355 . S
C388 C390 1.419 . S
C389 C384 1.425 . S
C389 C386 1.409 . S
C389 C387 1.415 . S
C390 H380 0.930 . S
C390 C388 1.419 . S
C390 C391 1.362 . S
C391 H381 0.930 . S
C391 C384 1.409 . S
C391 C390 1.362 . S
H392 C398 0.930 . S
H393 C401 0.930 . S
H394 C402 0.930 . S
H395 C403 0.930 . S
H396 C406 0.930 . S
H397 C407 0.930 . S
C398 H392 0.930 . S
C398 C399 1.355 . S
C398 C400 1.415 . S
C399 C398 1.355 . S
C399 C401 1.419 . S
C400 C398 1.415 . S
C400 C405 1.425 . S
C400 C407 1.409 . S
C401 H393 0.930 . S
C401 C399 1.419 . S
C401 C402 1.362 . S
C402 H394 0.930 . S
C402 C401 1.362 . S
C402 C405 1.409 . S
C403 H395 0.930 . S
C403 C404 1.355 . S
C403 C405 1.415 . S
C404 C403 1.355 . S
C404 C406 1.419 . S
C405 C400 1.425 . S
C405 C402 1.409 . S
C405 C403 1.415 . S
C406 H396 0.930 . S
C406 C404 1.419 . S
C406 C407 1.362 . S
C407 H397 0.930 . S
C407 C400 1.409 . S
C407 C406 1.362 . S
H408 C414 0.930 . S
H409 C417 0.930 . S
H410 C418 0.930 . S
H411 C419 0.930 . S
H412 C422 0.930 . S
H413 C423 0.930 . S
C414 H408 0.930 . S
C414 C415 1.355 . S
C414 C416 1.415 . S
C415 C414 1.355 . S
C415 C417 1.419 . S
C416 C414 1.415 . S
C416 C421 1.425 . S
C416 C423 1.409 . S
C417 H409 0.930 . S
C417 C415 1.419 . S
C417 C418 1.362 . S
C418 H410 0.930 . S
C418 C417 1.362 . S
C418 C421 1.409 . S
C419 H411 0.930 . S
C419 C420 1.355 . S
C419 C421 1.415 . S
C420 C419 1.355 . S
C420 C422 1.419 . S
C421 C416 1.425 . S
C421 C418 1.409 . S
C421 C419 1.415 . S
C422 H412 0.930 . S
C422 C420 1.419 . S
C422 C423 1.362 . S
C423 H413 0.930 . S
C423 C416 1.409 . S
C423 C422 1.362 . S
H424 C430 0.930 . S
H425 C433 0.930 . S
H426 C434 0.930 . S
H427 C435 0.930 . S
H428 C438 0.930 . S
H429 C439 0.930 . S
C430 H424 0.930 . S
C430 C431 1.355 . S
C430 C432 1.415 . S
C431 C430 1.355 . S
C431 C433 1.419 . S
C432 C430 1.415 . S
C432 C437 1.425 . S
C432 C439 1.409 . S
C433 H425 0.930 . S
C433 C431 1.419 . S
C433 C434 1.362 . S
C434 H426 0.930 . S
C434 C433 1.362 . S
C434 C437 1.409 . S
C435 H427 0.930 . S
C435 C436 1.355 . S
C435 C437 1.415 . S
C436 C435 1.355 . S
C436 C438 1.419 . S
C437 C432 1.425 . S
C437 C434 1.409 . S
C437 C435 1.415 . S
C438 H428 0.930 . S
C438 C436 1.419 . S
C438 C439 1.362 . S
C439 H429 0.930 . S
C439 C432 1.409 . S
C439 C438 1.362 . S
H440 C446 0.930 . S
H441 C449 0.930 . S
H442 C450 0.930 . S
H443 C451 0.930 . S
H444 C454 0.930 . S
H445 C455 0.930 . S
C446 H440 0.930 . S
C446 C447 1.355 . S
C446 C448 1.415 . S
C447 C446 1.355 . S
C447 C449 1.419 . S
C448 C446 1.415 . S
C448 C453 1.425 . S
C448 C455 1.409 . S
C449 H441 0.930 . S
C449 C447 1.419 . S
C449 C450 1.362 . S
C450 H442 0.930 . S
C450 C449 1.362 . S
C450 C453 1.409 . S
C451 H443 0.930 . S
C451 C452 1.355 . S
C451 C453 1.415 . S
C452 C451 1.355 . S
C452 C454 1.419 . S
C453 C448 1.425 . S
C453 C450 1.409 . S
C453 C451 1.415 . S
C454 H444 0.930 . S
C454 C452 1.419 . S
C454 C455 1.362 . S
C455 H445 0.930 . S
C455 C448 1.409 . S
C455 C454 1.362 . S
H456 C462 0.930 . S
H457 C465 0.930 . S
H458 C466 0.930 . S
H459 C467 0.930 . S
H460 C470 0.930 . S
H461 C471 0.930 . S
C462 H456 0.930 . S
C462 C463 1.355 . S
C462 C464 1.415 . S
C463 C462 1.355 . S
C463 C465 1.419 1_455 S
C464 C462 1.415 . S
C464 C469 1.425 1_455 S
C464 C471 1.409 . S
C465 H457 0.930 . S
C465 C463 1.419 1_655 S
C465 C466 1.362 . S
C466 H458 0.930 . S
C466 C465 1.362 . S
C466 C469 1.409 . S
C467 H459 0.930 . S
C467 C468 1.355 1_655 S
C467 C469 1.415 . S
C468 C467 1.355 1_455 S
C468 C470 1.419 . S
C469 C464 1.425 1_655 S
C469 C466 1.409 . S
C469 C467 1.415 . S
C470 H460 0.930 . S
C470 C468 1.419 . S
C470 C471 1.362 . S
C471 H461 0.930 . S
C471 C464 1.409 . S
C471 C470 1.362 . S
H472 C478 0.930 . S
H473 C481 0.930 . S
H474 C482 0.930 . S
H475 C483 0.930 . S
H476 C486 0.930 . S
H477 C487 0.930 . S
C478 H472 0.930 . S
C478 C479 1.355 . S
C478 C480 1.415 . S
C479 C478 1.355 . S
C479 C481 1.419 . S
C480 C478 1.415 . S
C480 C485 1.425 . S
C480 C487 1.409 . S
C481 H473 0.930 . S
C481 C479 1.419 . S
C481 C482 1.362 . S
C482 H474 0.930 . S
C482 C481 1.362 . S
C482 C485 1.409 . S
C483 H475 0.930 . S
C483 C484 1.355 . S
C483 C485 1.415 . S
C484 C483 1.355 . S
C484 C486 1.419 . S
C485 C480 1.425 . S
C485 C482 1.409 . S
C485 C483 1.415 . S
C486 H476 0.930 . S
C486 C484 1.419 . S
C486 C487 1.362 . S
C487 H477 0.930 . S
C487 C480 1.409 . S
C487 C486 1.362 . S
H488 C494 0.930 . S
H489 C497 0.930 1_556 S
H490 C498 0.930 . S
H491 C499 0.930 . S
H492 C502 0.930 . S
H493 C503 0.930 . S
C494 H488 0.930 . S
C494 C495 1.355 1_655 S
C494 C496 1.415 1_655 S
C495 C494 1.355 1_455 S
C495 C497 1.419 . S
C496 C494 1.415 1_455 S
C496 C501 1.425 . S
C496 C503 1.409 1_455 S
C497 H489 0.930 1_554 S
C497 C495 1.419 . S
C497 C498 1.362 . S
C498 H490 0.930 . S
C498 C497 1.362 . S
C498 C501 1.409 . S
C499 H491 0.930 . S
C499 C500 1.355 . S
C499 C501 1.415 . S
C500 C499 1.355 . S
C500 C502 1.419 1_455 S
C501 C496 1.425 . S
C501 C498 1.409 . S
C501 C499 1.415 . S
C502 H492 0.930 . S
C502 C500 1.419 1_655 S
C502 C503 1.362 . S
C503 H493 0.930 . S
C503 C496 1.409 1_655 S
C503 C502 1.362 . S
H504 C510 0.930 . S
H505 C513 0.930 . S
H506 C514 0.930 . S
H507 C515 0.930 . S
H508 C518 0.930 . S
H509 C519 0.930 . S
C510 H504 0.930 . S
C510 C511 1.355 . S
C510 C512 1.415 . S
C511 C510 1.355 . S
C511 C513 1.419 . S
C512 C510 1.415 . S
C512 C517 1.425 . S
C512 C519 1.409 . S
C513 H505 0.930 . S
C513 C511 1.419 . S
C513 C514 1.362 . S
C514 H506 0.930 . S
C514 C513 1.362 . S
C514 C517 1.409 . S
C515 H507 0.930 . S
C515 C516 1.355 . S
C515 C517 1.415 . S
C516 C515 1.355 . S
C516 C518 1.419 . S
C517 C512 1.425 . S
C517 C514 1.409 . S
C517 C515 1.415 . S
C518 H508 0.930 . S
C518 C516 1.419 . S
C518 C519 1.362 . S
C519 H509 0.930 . S
C519 C512 1.409 . S
C519 C518 1.362 . S
H520 C526 0.930 . S
H521 C529 0.930 . S
H522 C530 0.930 . S
H523 C531 0.930 . S
H524 C534 0.930 . S
H525 C535 0.930 . S
C526 H520 0.930 . S
C526 C527 1.355 . S
C526 C528 1.415 . S
C527 C526 1.355 . S
C527 C529 1.419 . S
C528 C526 1.415 . S
C528 C533 1.425 . S
C528 C535 1.409 . S
C529 H521 0.930 . S
C529 C527 1.419 . S
C529 C530 1.362 . S
C530 H522 0.930 . S
C530 C529 1.362 . S
C530 C533 1.409 . S
C531 H523 0.930 . S
C531 C532 1.355 . S
C531 C533 1.415 . S
C532 C531 1.355 . S
C532 C534 1.419 . S
C533 C528 1.425 . S
C533 C530 1.409 . S
C533 C531 1.415 . S
C534 H524 0.930 . S
C534 C532 1.419 . S
C534 C535 1.362 . S
C535 H525 0.930 . S
C535 C528 1.409 . S
C535 C534 1.362 . S
H536 C542 0.930 . S
H537 C545 0.930 . S
H538 C546 0.930 . S
H539 C547 0.930 . S
H540 C550 0.930 . S
H541 C551 0.930 . S
C542 H536 0.930 . S
C542 C543 1.355 . S
C542 C544 1.415 . S
C543 C542 1.355 . S
C543 C545 1.419 . S
C544 C542 1.415 . S
C544 C549 1.425 . S
C544 C551 1.409 . S
C545 H537 0.930 . S
C545 C543 1.419 . S
C545 C546 1.362 . S
C546 H538 0.930 . S
C546 C545 1.362 . S
C546 C549 1.409 . S
C547 H539 0.930 . S
C547 C548 1.355 . S
C547 C549 1.415 . S
C548 C547 1.355 . S
C548 C550 1.419 . S
C549 C544 1.425 . S
C549 C546 1.409 . S
C549 C547 1.415 . S
C550 H540 0.930 . S
C550 C548 1.419 . S
C550 C551 1.362 . S
C551 H541 0.930 . S
C551 C544 1.409 . S
C551 C550 1.362 . S
H552 C558 0.930 . S
H553 C561 0.930 . S
H554 C562 0.930 . S
H555 C563 0.930 . S
H556 C566 0.930 . S
H557 C567 0.930 . S
C558 H552 0.930 . S
C558 C559 1.355 . S
C558 C560 1.415 . S
C559 C558 1.355 . S
C559 C561 1.419 . S
C560 C558 1.415 . S
C560 C565 1.425 . S
C560 C567 1.409 . S
C561 H553 0.930 . S
C561 C559 1.419 . S
C561 C562 1.362 . S
C562 H554 0.930 . S
C562 C561 1.362 . S
C562 C565 1.409 . S
C563 H555 0.930 . S
C563 C564 1.355 . S
C563 C565 1.415 . S
C564 C563 1.355 . S
C564 C566 1.419 . S
C565 C560 1.425 . S
C565 C562 1.409 . S
C565 C563 1.415 . S
C566 H556 0.930 . S
C566 C564 1.419 . S
C566 C567 1.362 . S
C567 H557 0.930 . S
C567 C560 1.409 . S
C567 C566 1.362 . S
H568 C574 0.930 . S
H569 C577 0.930 . S
H570 C578 0.930 . S
H571 C579 0.930 . S
H572 C582 0.930 . S
H573 C583 0.930 . S
C574 H568 0.930 . S
C574 C575 1.355 . S
C574 C576 1.415 . S
C575 C574 1.355 . S
C575 C577 1.419 . S
C576 C574 1.415 . S
C576 C581 1.425 . S
C576 C583 1.409 . S
C577 H569 0.930 . S
C577 C575 1.419 . S
C577 C578 1.362 . S
C578 H570 0.930 . S
C578 C577 1.362 . S
C578 C581 1.409 . S
C579 H571 0.930 . S
C579 C580 1.355 . S
C579 C581 1.415 . S
C580 C579 1.355 . S
C580 C582 1.419 . S
C581 C576 1.425 . S
C581 C578 1.409 . S
C581 C579 1.415 . S
C582 H572 0.930 . S
C582 C580 1.419 . S
C582 C583 1.362 . S
C583 H573 0.930 . S
C583 C576 1.409 . S
C583 C582 1.362 . S
C271 N71 1.430 1_655 S
C276 N5 1.379 . S
C287 N104 1.353 . S
C292 N38 1.379 . S
C303 N137 1.349 . S
C308 N203 1.398 . S
C319 N170 1.417 . S
C324 N236 1.354 . S
C335 C107 1.552 . S
C340 C8 1.584 . S
C351 C41 1.582 . S
C356 C74 1.596 . S
C367 C94 1.142 . S
C372 C61 1.128 . S
C383 C127 1.113 . S
C388 C28 1.162 . S
C399 C239 1.596 . S
C404 C140 1.583 . S
C415 C173 1.549 . S
C420 C206 1.572 . S
C431 C226 1.148 . S
C436 C193 1.123 . S
C447 C259 1.175 . S
C452 C160 1.126 . S
C463 N179 1.573 . S
C468 C17 1.590 1_556 S
C479 C50 1.582 . S
C484 N146 1.543 . S
C495 C83 1.592 1_554 S
C500 N245 1.570 . S
C511 N212 1.545 . S
C516 C116 1.582 . S
C527 N47 1.560 . S
C532 C149 1.584 1_556 S
C543 C182 1.580 . S
C548 N14 1.526 . S
C559 C215 1.580 1_554 S
C564 N113 1.522 . S
C575 C248 1.582 . S
C580 N80 1.541 . S
