# Generated by pormake.
# Topology why, (6)-cn, num edge types: 1
# Building blocks:
#     Node 0, Type 0, BuildingBlock: KUMBUR_clean_sbu_0, # of connection points: 6
#     Node 1, Type 0, BuildingBlock: KUMBUR_clean_sbu_0, # of connection points: 6
#     Node 2, Type 0, BuildingBlock: KUMBUR_clean_sbu_0, # of connection points: 6
#     Node 3, Type 0, BuildingBlock: KUMBUR_clean_sbu_0, # of connection points: 6
#     Node 4, Type 0, BuildingBlock: KUMBUR_clean_sbu_0, # of connection points: 6
#     Node 5, Type 0, BuildingBlock: KUMBUR_clean_sbu_0, # of connection points: 6
#     Node 6, Type 0, BuildingBlock: KUMBUR_clean_sbu_0, # of connection points: 6
#     Node 7, Type 0, BuildingBlock: KUMBUR_clean_sbu_0, # of connection points: 6
#     Node 8, Type 0, BuildingBlock: KUMBUR_clean_sbu_0, # of connection points: 6
#     Node 9, Type 0, BuildingBlock: KUMBUR_clean_sbu_0, # of connection points: 6
#     Node 10, Type 0, BuildingBlock: KUMBUR_clean_sbu_0, # of connection points: 6
#     Node 11, Type 0, BuildingBlock: KUMBUR_clean_sbu_0, # of connection points: 6
#     Node 12, Type 0, BuildingBlock: KUMBUR_clean_sbu_0, # of connection points: 6
#     Node 13, Type 0, BuildingBlock: KUMBUR_clean_sbu_0, # of connection points: 6
#     Node 14, Type 0, BuildingBlock: KUMBUR_clean_sbu_0, # of connection points: 6
#     Node 15, Type 0, BuildingBlock: KUMBUR_clean_sbu_0, # of connection points: 6
#     Edge 16, Type (0, 0), BuildingBlock: MIFKUJ_clean_linker_0, # of connection points: 2
#     Edge 17, Type (0, 0), BuildingBlock: MIFKUJ_clean_linker_0, # of connection points: 2
#     Edge 18, Type (0, 0), BuildingBlock: MIFKUJ_clean_linker_0, # of connection points: 2
#     Edge 19, Type (0, 0), BuildingBlock: MIFKUJ_clean_linker_0, # of connection points: 2
#     Edge 20, Type (0, 0), BuildingBlock: MIFKUJ_clean_linker_0, # of connection points: 2
#     Edge 21, Type (0, 0), BuildingBlock: MIFKUJ_clean_linker_0, # of connection points: 2
#     Edge 22, Type (0, 0), BuildingBlock: MIFKUJ_clean_linker_0, # of connection points: 2
#     Edge 23, Type (0, 0), BuildingBlock: MIFKUJ_clean_linker_0, # of connection points: 2
#     Edge 24, Type (0, 0), BuildingBlock: MIFKUJ_clean_linker_0, # of connection points: 2
#     Edge 25, Type (0, 0), BuildingBlock: MIFKUJ_clean_linker_0, # of connection points: 2
#     Edge 26, Type (0, 0), BuildingBlock: MIFKUJ_clean_linker_0, # of connection points: 2
#     Edge 27, Type (0, 0), BuildingBlock: MIFKUJ_clean_linker_0, # of connection points: 2
#     Edge 28, Type (0, 0), BuildingBlock: MIFKUJ_clean_linker_0, # of connection points: 2
#     Edge 29, Type (0, 0), BuildingBlock: MIFKUJ_clean_linker_0, # of connection points: 2
#     Edge 30, Type (0, 0), BuildingBlock: MIFKUJ_clean_linker_0, # of connection points: 2
#     Edge 31, Type (0, 0), BuildingBlock: MIFKUJ_clean_linker_0, # of connection points: 2
#     Edge 32, Type (0, 0), BuildingBlock: MIFKUJ_clean_linker_0, # of connection points: 2
#     Edge 33, Type (0, 0), BuildingBlock: MIFKUJ_clean_linker_0, # of connection points: 2
#     Edge 34, Type (0, 0), BuildingBlock: MIFKUJ_clean_linker_0, # of connection points: 2
#     Edge 35, Type (0, 0), BuildingBlock: MIFKUJ_clean_linker_0, # of connection points: 2
#     Edge 36, Type (0, 0), BuildingBlock: MIFKUJ_clean_linker_0, # of connection points: 2
#     Edge 37, Type (0, 0), BuildingBlock: MIFKUJ_clean_linker_0, # of connection points: 2
#     Edge 38, Type (0, 0), BuildingBlock: MIFKUJ_clean_linker_0, # of connection points: 2
#     Edge 39, Type (0, 0), BuildingBlock: MIFKUJ_clean_linker_0, # of connection points: 2
#     Edge 40, Type (0, 0), BuildingBlock: MIFKUJ_clean_linker_0, # of connection points: 2
#     Edge 41, Type (0, 0), BuildingBlock: MIFKUJ_clean_linker_0, # of connection points: 2
#     Edge 42, Type (0, 0), BuildingBlock: MIFKUJ_clean_linker_0, # of connection points: 2
#     Edge 43, Type (0, 0), BuildingBlock: MIFKUJ_clean_linker_0, # of connection points: 2
#     Edge 44, Type (0, 0), BuildingBlock: MIFKUJ_clean_linker_0, # of connection points: 2
#     Edge 45, Type (0, 0), BuildingBlock: MIFKUJ_clean_linker_0, # of connection points: 2
#     Edge 46, Type (0, 0), BuildingBlock: MIFKUJ_clean_linker_0, # of connection points: 2
#     Edge 47, Type (0, 0), BuildingBlock: MIFKUJ_clean_linker_0, # of connection points: 2
#     Edge 48, Type (0, 0), BuildingBlock: MIFKUJ_clean_linker_0, # of connection points: 2
#     Edge 49, Type (0, 0), BuildingBlock: MIFKUJ_clean_linker_0, # of connection points: 2
#     Edge 50, Type (0, 0), BuildingBlock: MIFKUJ_clean_linker_0, # of connection points: 2
#     Edge 51, Type (0, 0), BuildingBlock: MIFKUJ_clean_linker_0, # of connection points: 2
#     Edge 52, Type (0, 0), BuildingBlock: MIFKUJ_clean_linker_0, # of connection points: 2
#     Edge 53, Type (0, 0), BuildingBlock: MIFKUJ_clean_linker_0, # of connection points: 2
#     Edge 54, Type (0, 0), BuildingBlock: MIFKUJ_clean_linker_0, # of connection points: 2
#     Edge 55, Type (0, 0), BuildingBlock: MIFKUJ_clean_linker_0, # of connection points: 2
#     Edge 56, Type (0, 0), BuildingBlock: MIFKUJ_clean_linker_0, # of connection points: 2
#     Edge 57, Type (0, 0), BuildingBlock: MIFKUJ_clean_linker_0, # of connection points: 2
#     Edge 58, Type (0, 0), BuildingBlock: MIFKUJ_clean_linker_0, # of connection points: 2
#     Edge 59, Type (0, 0), BuildingBlock: MIFKUJ_clean_linker_0, # of connection points: 2
#     Edge 60, Type (0, 0), BuildingBlock: MIFKUJ_clean_linker_0, # of connection points: 2
#     Edge 61, Type (0, 0), BuildingBlock: MIFKUJ_clean_linker_0, # of connection points: 2
#     Edge 62, Type (0, 0), BuildingBlock: MIFKUJ_clean_linker_0, # of connection points: 2
#     Edge 63, Type (0, 0), BuildingBlock: MIFKUJ_clean_linker_0, # of connection points: 2
# Relax obj value: 0.240
# Max RMSD: 0.217
# Mean RMSD: 0.217
data_MOF--net-why--node1-KUMBUR_clean_sbu_0--edge1-MIFKUJ_clean_linker_0
_symmetry_space_group_name_H-M    P1
_symmetry_Int_Tables_number       1
_symmetry_cell_setting            triclinic
loop_
_symmetry_equiv_pos_as_xyz
'x, y, z'
_cell_length_a     61.792325
_cell_length_b     61.805895
_cell_length_c     49.058824
_cell_angle_alpha  89.632748
_cell_angle_beta   90.010576
_cell_angle_gamma 90.260296
loop_
_atom_site_label
_atom_site_type_symbol
_atom_site_fract_x
_atom_site_fract_y
_atom_site_fract_z
_atom_type_partial_charge
Tb0 Tb 0.4417 0.17399 0.03921 0.0
C1 C 0.43497 0.25221 0.10442 0.0
C2 C 0.46733 0.24703 0.13157 0.0
C3 C 0.45468 0.28341 0.12163 0.0
C4 C 0.44981 0.23843 0.11658 0.0
C5 C 0.43696 0.27482 0.10735 0.0
C6 C 0.46984 0.26955 0.13368 0.0
C7 C 0.40291 0.27873 0.08362 0.0
N8 N 0.41807 0.24341 0.09064 0.0
C9 C 0.40158 0.25623 0.08131 0.0
C10 C 0.42083 0.28809 0.09635 0.0
Tb11 Tb 0.41796 0.20654 0.08739 0.0
N12 N 0.44709 0.21667 0.11376 0.0
C13 C 0.46108 0.2027 0.12644 0.0
C14 C 0.48183 0.23276 0.14399 0.0
C15 C 0.47861 0.21052 0.14153 0.0
H16 H 0.38757 0.2491 0.07166 0.0
H17 H 0.48977 0.19934 0.15106 0.0
H18 H 0.48332 0.27642 0.14486 0.0
H19 H 0.39009 0.28883 0.07566 0.0
H20 H 0.4595 0.18546 0.12432 0.0
H21 H 0.46686 0.19156 0.93632 0.0
H22 H 0.49553 0.23873 0.15556 0.0
H23 H 0.40294 0.14146 0.06348 0.0
H24 H 0.46868 0.19353 0.98615 0.0
H25 H 0.37339 0.11904 0.04538 0.0
H26 H 0.45662 0.30075 0.12384 0.0
H27 H 0.4366 0.17226 0.91382 0.0
H28 H 0.4031 0.14919 0.91864 0.0
H29 H 0.42179 0.30553 0.09817 0.0
H30 H 0.37776 0.12925 0.94844 0.0
N31 N 0.43969 0.17537 0.9925 0.0
C32 C 0.45534 0.18502 0.97676 0.0
C33 C 0.43729 0.17302 0.93587 0.0
C34 C 0.42182 0.16246 0.95201 0.0
C35 C 0.45428 0.18408 0.94838 0.0
C36 C 0.42373 0.16369 0.9806 0.0
H37 H 0.36669 0.11774 0.99571 0.0
N38 N 0.41299 0.1533 0.02455 0.0
C39 C 0.38352 0.12832 0.03158 0.0
C40 C 0.40986 0.15224 0.99724 0.0
C41 C 0.40041 0.14106 0.04176 0.0
C42 C 0.37977 0.12765 1.00355 0.0
C43 C 0.39316 0.1395 0.98595 0.0
O44 O 0.45118 0.14145 0.04317 0.0
O45 O 0.44969 0.19743 0.07172 0.0
O46 O 0.42312 0.22742 0.05099 0.0
O47 O 0.43216 0.20289 0.01648 0.0
O48 O 0.46882 0.19781 0.03818 0.0
O49 O 0.47271 0.16489 0.02566 0.0
O50 O 0.40292 0.22099 0.12128 0.0
O51 O 0.41 0.18385 0.05457 0.0
O52 O 0.43955 0.1533 0.07709 0.0
O53 O 0.42442 0.17507 0.11003 0.0
O54 O 0.39062 0.21025 0.05815 0.0
O55 O 0.39214 0.19018 0.1067 0.0
C56 C 0.46581 0.20817 0.06045 0.0
C57 C 0.46955 0.13155 1.00279 0.0
C58 C 0.48276 0.12864 0.95583 0.0
C59 C 0.48424 0.13757 0.98216 0.0
C60 C 0.46684 0.11275 0.95093 0.0
C61 C 0.45422 0.11523 0.99745 0.0
C62 C 0.45297 0.1059 0.97172 0.0
C63 C 0.42773 0.22258 0.02526 0.0
C64 C 0.46827 0.14442 0.02813 0.0
C65 C 0.39058 0.13882 0.95751 0.0
C66 C 0.40495 0.15021 0.94055 0.0
C67 C 0.39317 0.19319 0.04345 0.0
C68 C 0.36554 0.21407 0.12423 0.0
C69 C 0.35916 0.22753 0.14579 0.0
C70 C 0.33798 0.23583 0.14695 0.0
C71 C 0.3232 0.23032 0.12629 0.0
C72 C 0.35045 0.20878 0.1039 0.0
C73 C 0.32943 0.21682 0.10502 0.0
C74 C 0.43211 0.15584 0.10235 0.0
C75 C 0.38806 0.2062 0.12297 0.0
H76 H 0.49637 0.14977 0.98651 0.0
H77 H 0.46467 0.10587 0.93088 0.0
H78 H 0.44261 0.11021 0.01281 0.0
H79 H 0.44075 0.09374 0.96762 0.0
H80 H 0.37082 0.23182 0.16139 0.0
H81 H 0.30672 0.23618 0.12679 0.0
H82 H 0.35487 0.19847 0.08712 0.0
H83 H 0.31793 0.21252 0.08935 0.0
Tb84 Tb 0.67809 0.6919 0.28868 0.0
C85 C 0.60668 0.69121 0.36181 0.0
C86 C 0.61833 0.72306 0.38632 0.0
C87 C 0.58006 0.71433 0.38357 0.0
C88 C 0.62315 0.70454 0.37075 0.0
C89 C 0.58492 0.69594 0.36814 0.0
C90 C 0.59674 0.72781 0.39273 0.0
C91 C 0.57425 0.66374 0.34402 0.0
N92 N 0.61196 0.67367 0.34679 0.0
C93 C 0.59601 0.65965 0.33844 0.0
C94 C 0.56865 0.68205 0.35883 0.0
Tb95 Tb 0.64837 0.66814 0.33911 0.0
N96 N 0.64379 0.69973 0.36353 0.0
C97 C 0.66043 0.71289 0.37194 0.0
C98 C 0.63532 0.73639 0.39478 0.0
C99 C 0.65644 0.7313 0.38749 0.0
H100 H 0.60017 0.64503 0.32767 0.0
H101 H 0.66971 0.74164 0.3937 0.0
H102 H 0.59276 0.74188 0.40474 0.0
H103 H 0.56183 0.65266 0.33711 0.0
H104 H 0.67686 0.70992 0.36603 0.0
H105 H 0.6595 0.72154 0.18737 0.0
H106 H 0.63231 0.75071 0.40678 0.0
H107 H 0.71105 0.65042 0.30962 0.0
H108 H 0.6579 0.72119 0.23717 0.0
H109 H 0.73488 0.62431 0.28858 0.0
H110 H 0.56346 0.71823 0.38859 0.0
H111 H 0.68158 0.69455 0.16309 0.0
H112 H 0.707 0.66319 0.16534 0.0
H113 H 0.55177 0.68516 0.36322 0.0
H114 H 0.72784 0.63726 0.19285 0.0
N115 N 0.67828 0.69356 0.24191 0.0
C116 C 0.66731 0.70894 0.22721 0.0
C117 C 0.68081 0.69417 0.18515 0.0
C118 C 0.69254 0.67892 0.20018 0.0
C119 C 0.66829 0.70937 0.19876 0.0
C120 C 0.69111 0.67916 0.22891 0.0
H121 H 0.73844 0.62283 0.23855 0.0
N122 N 0.7012 0.66553 0.27211 0.0
C123 C 0.72619 0.63575 0.27591 0.0
C124 C 0.70309 0.66484 0.24449 0.0
C125 C 0.71273 0.65113 0.28782 0.0
C126 C 0.72812 0.63492 0.24769 0.0
C127 C 0.71651 0.64951 0.23159 0.0
O128 O 0.68912 0.71931 0.30994 0.0
O129 O 0.65325 0.69959 0.31978 0.0
O130 O 0.62747 0.66746 0.30235 0.0
O131 O 0.64937 0.68053 0.26669 0.0
O132 O 0.64973 0.71387 0.28298 0.0
O133 O 0.70086 0.71241 0.26976 0.0
O134 O 0.63208 0.64477 0.36299 0.0
O135 O 0.67078 0.66008 0.30605 0.0
O136 O 0.7028 0.686 0.32207 0.0
O137 O 0.68193 0.67236 0.35736 0.0
O138 O 0.64713 0.63825 0.31415 0.0
O139 O 0.66469 0.65388 0.37227 0.0
C140 C 0.64032 0.7126 0.30637 0.0
C141 C 0.69254 0.74887 0.27946 0.0
C142 C 0.68192 0.77311 0.24235 0.0
C143 C 0.69172 0.75397 0.2515 0.0
C144 C 0.67386 0.7878 0.26152 0.0
C145 C 0.68489 0.76402 0.29836 0.0
C146 C 0.67566 0.78339 0.28938 0.0
C147 C 0.63096 0.67225 0.2762 0.0
C148 C 0.69913 0.72701 0.28861 0.0
C149 C 0.71771 0.64898 0.20302 0.0
C150 C 0.70579 0.66368 0.18736 0.0
C151 C 0.66284 0.64167 0.29735 0.0
C152 C 0.64109 0.64682 0.40923 0.0
C153 C 0.62804 0.63118 0.42204 0.0
C154 C 0.62035 0.63434 0.44871 0.0
C155 C 0.62622 0.65336 0.46255 0.0
C156 C 0.64674 0.66572 0.42334 0.0
C157 C 0.63937 0.66889 0.44991 0.0
C158 C 0.70116 0.67912 0.34791 0.0
C159 C 0.64755 0.64359 0.38069 0.0
H160 H 0.6978 0.74262 0.23664 0.0
H161 H 0.6664 0.80278 0.25495 0.0
H162 H 0.68544 0.7606 0.32004 0.0
H163 H 0.6695 0.79482 0.30406 0.0
H164 H 0.62386 0.61656 0.4111 0.0
H165 H 0.62034 0.65643 0.48294 0.0
H166 H 0.65667 0.67811 0.41384 0.0
H167 H 0.64367 0.68354 0.46063 0.0
Tb168 Tb 0.16034 0.92795 0.53776 0.0
C169 C 0.1681 0.85178 0.60477 0.0
C170 C 0.13538 0.85769 0.63088 0.0
C171 C 0.14814 0.82107 0.62341 0.0
C172 C 0.15307 0.86589 0.61575 0.0
C173 C 0.16606 0.82927 0.60902 0.0
C174 C 0.13284 0.83524 0.6343 0.0
C175 C 0.2005 0.82472 0.58647 0.0
N176 N 0.18525 0.86018 0.59097 0.0
C177 C 0.20189 0.84714 0.58289 0.0
C178 C 0.18236 0.81571 0.59925 0.0
Tb179 Tb 0.18542 0.89688 0.58542 0.0
N180 N 0.15582 0.88757 0.6117 0.0
C181 C 0.14154 0.90185 0.62312 0.0
C182 C 0.12075 0.87227 0.64219 0.0
C183 C 0.12388 0.89441 0.63834 0.0
H184 H 0.21606 0.85408 0.57324 0.0
H185 H 0.11253 0.9058 0.6469 0.0
H186 H 0.11924 0.82869 0.64563 0.0
H187 H 0.21345 0.81442 0.57947 0.0
H188 H 0.14292 0.91901 0.61975 0.0
H189 H 0.13005 0.91167 0.43665 0.0
H190 H 0.10706 0.86663 0.65401 0.0
H191 H 0.20208 0.96046 0.55925 0.0
H192 H 0.12986 0.91012 0.48672 0.0
H193 H 0.22917 0.98377 0.53831 0.0
H194 H 0.14617 0.80381 0.62663 0.0
H195 H 0.15864 0.93224 0.41242 0.0
H196 H 0.19077 0.95694 0.41486 0.0
H197 H 0.18137 0.79834 0.6021 0.0
H198 H 0.21705 0.97721 0.44272 0.0
N199 N 0.15903 0.92838 0.49115 0.0
C200 C 0.14283 0.91865 0.47653 0.0
C201 C 0.15889 0.93127 0.43448 0.0
C202 C 0.17476 0.94211 0.44954 0.0
C203 C 0.14274 0.91965 0.44807 0.0
C204 C 0.17441 0.94033 0.47824 0.0
H205 H 0.23168 0.9869 0.48825 0.0
N206 N 0.18782 0.95017 0.52153 0.0
C207 C 0.2179 0.975 0.52556 0.0
C208 C 0.18914 0.95174 0.4939 0.0
C209 C 0.202 0.96183 0.53738 0.0
C210 C 0.21934 0.97663 0.49733 0.0
C211 C 0.20482 0.96505 0.48114 0.0
O212 O 0.13414 0.94121 0.55925 0.0
O213 O 0.15309 0.90324 0.56923 0.0
O214 O 0.18235 0.87547 0.5495 0.0
O215 O 0.16829 0.89828 0.5154 0.0
O216 O 0.13607 0.9013 0.53392 0.0
O217 O 0.14132 0.95162 0.51838 0.0
O218 O 0.21114 0.91366 0.60416 0.0
O219 O 0.1928 0.91983 0.55228 0.0
O220 O 0.16703 0.9511 0.57212 0.0
O221 O 0.17816 0.92859 0.60707 0.0
O222 O 0.21226 0.89337 0.55552 0.0
O223 O 0.20065 0.88292 0.61972 0.0
C224 C 0.13833 0.89137 0.55693 0.0
C225 C 0.10428 0.94932 0.53083 0.0
C226 C 0.07564 0.94633 0.49661 0.0
C227 C 0.09753 0.94949 0.50339 0.0
C228 C 0.06045 0.94332 0.51766 0.0
C229 C 0.08877 0.94643 0.55147 0.0
C230 C 0.06701 0.94343 0.54487 0.0
C231 C 0.17581 0.87931 0.52405 0.0
C232 C 0.12734 0.95208 0.53815 0.0
C233 C 0.20535 0.96672 0.45264 0.0
C234 C 0.19041 0.95522 0.43685 0.0
C235 C 0.20944 0.9105 0.54072 0.0
C236 C 0.23796 0.89012 0.62235 0.0
C237 C 0.24451 0.87723 0.64458 0.0
C238 C 0.26579 0.86919 0.64618 0.0
C239 C 0.28044 0.8743 0.62512 0.0
C240 C 0.2529 0.89498 0.60161 0.0
C241 C 0.274 0.88711 0.60305 0.0
C242 C 0.17252 0.94835 0.59821 0.0
C243 C 0.21539 0.89783 0.62091 0.0
H244 H 0.10931 0.9517 0.48725 0.0
H245 H 1.04343 0.94114 0.5131 0.0
H246 H 0.09347 0.94641 0.57275 0.0
H247 H 0.05517 0.94119 0.56092 0.0
H248 H 0.23303 0.87362 0.66071 0.0
H249 H 0.2968 0.86812 0.62546 0.0
H250 H 0.2483 0.90476 0.58424 0.0
H251 H 0.28538 0.89085 0.58691 0.0
Tb252 Tb 0.92326 0.40678 0.78781 0.0
C253 C 0.99642 0.40719 0.85841 0.0
C254 C 0.98441 0.37603 0.88455 0.0
C255 C 1.02281 0.38392 0.88078 0.0
C256 C 0.9798 0.39436 0.86823 0.0
C257 C 1.01816 0.40209 0.86454 0.0
C258 C 1.00597 0.37095 0.89082 0.0
C259 C 1.02924 0.43324 0.83809 0.0
N260 N 0.99135 0.42442 0.84246 0.0
C261 C 1.00751 0.43769 0.83267 0.0
C262 C 1.03461 0.41532 0.85405 0.0
Tb263 Tb 0.95496 0.43084 0.83575 0.0
N264 N 0.95916 0.39947 0.86117 0.0
C265 C 0.94236 0.38686 0.87051 0.0
C266 C 0.96725 0.36322 0.89391 0.0
C267 C 0.94615 0.36864 0.88679 0.0
H268 H 1.00358 0.4519 0.82067 0.0
H269 H 0.93274 0.35872 0.89374 0.0
H270 H 1.00979 0.35698 0.90333 0.0
H271 H 1.04182 0.44371 0.83006 0.0
H272 H 0.92596 0.39015 0.86486 0.0
H273 H 0.94145 0.37795 0.68638 0.0
H274 H 0.9701 0.34907 0.90651 0.0
H275 H 0.88836 0.44618 0.80887 0.0
H276 H 0.94221 0.37703 0.73626 0.0
H277 H 0.86319 0.47123 0.78786 0.0
H278 H 1.03938 0.37974 0.88564 0.0
H279 H 0.92064 0.40619 0.66217 0.0
H280 H 0.89512 0.43743 0.66453 0.0
H281 H 0.05147 0.41189 0.85824 0.0
H282 H 0.87387 0.46265 0.69208 0.0
N283 N 0.92326 0.40563 0.74103 0.0
C284 C 0.93355 0.38993 0.72629 0.0
C285 C 0.92125 0.40617 0.68425 0.0
C286 C 0.90978 0.42144 0.69932 0.0
C287 C 0.93301 0.39022 0.69782 0.0
C288 C 0.91116 0.4208 0.72805 0.0
H289 H 0.86133 0.47479 0.73782 0.0
N290 N 0.90024 0.43326 0.77131 0.0
C291 C 0.87312 0.46103 0.77515 0.0
C292 C 0.89911 0.4349 0.74365 0.0
C293 C 0.8874 0.44625 0.78705 0.0
C294 C 0.87222 0.46311 0.74693 0.0
C295 C 0.88526 0.44999 0.73079 0.0
O296 O 0.91091 0.37982 0.80914 0.0
O297 O 0.94902 0.39921 0.81786 0.0
O298 O 0.9751 0.42942 0.79816 0.0
O299 O 0.95096 0.41795 0.76433 0.0
O300 O 0.95039 0.38328 0.78229 0.0
O301 O 0.89975 0.38739 0.7687 0.0
O302 O 0.97253 0.45478 0.85701 0.0
O303 O 0.93118 0.43902 0.80393 0.0
O304 O 0.90018 0.41206 0.82273 0.0
O305 O 0.92146 0.42869 0.85522 0.0
O306 O 0.95658 0.4597 0.80867 0.0
O307 O 0.94088 0.4454 0.87007 0.0
C308 C 0.96101 0.38529 0.80472 0.0
C309 C 0.90328 0.35022 0.78027 0.0
C310 C 0.90644 0.32231 0.74536 0.0
C311 C 0.90267 0.34393 0.75272 0.0
C312 C 0.9105 0.30693 0.76597 0.0
C313 C 0.90724 0.33451 0.80046 0.0
C314 C 0.91085 0.31303 0.7933 0.0
C315 C 0.97016 0.42496 0.77235 0.0
C316 C 0.89995 0.37302 0.78817 0.0
C317 C 0.88432 0.45109 0.70223 0.0
C318 C 0.89646 0.43678 0.68655 0.0
C319 C 0.93952 0.45699 0.79396 0.0
C320 C 0.96677 0.45277 0.90427 0.0
C321 C 0.97897 0.46916 0.91687 0.0
C322 C 0.98787 0.46589 0.94308 0.0
C323 C 0.98454 0.44581 0.95618 0.0
C324 C 0.96335 0.43307 0.91809 0.0
C325 C 0.97229 0.42962 0.9438 0.0
C326 C 0.90222 0.42065 0.84749 0.0
C327 C 0.95839 0.45596 0.87637 0.0
H328 H 0.89968 0.35587 0.73691 0.0
H329 H 0.91318 0.29011 0.76099 0.0
H330 H 0.90763 0.33886 0.82182 0.0
H331 H 0.91393 0.30105 0.809 0.0
H332 H 0.98135 0.48445 0.90633 0.0
H333 H 0.99159 0.44245 0.97596 0.0
H334 H 0.95385 0.42028 0.90904 0.0
H335 H 0.9698 0.41428 0.95414 0.0
Tb336 Tb 0.68497 0.89737 0.92925 0.0
C337 C 0.68323 0.95227 0.02058 0.0
C338 C 0.66722 0.94262 0.06421 0.0
C339 C 0.69582 0.96959 0.06213 0.0
C340 C 0.66872 0.93994 0.0357 0.0
C341 C 0.69699 0.9672 0.03379 0.0
C342 C 0.68106 0.95727 0.07735 0.0
C343 C 0.71097 0.97781 0.98988 0.0
N344 N 0.68314 0.95042 0.99294 0.0
C345 C 0.6968 0.96316 0.97758 0.0
C346 C 0.71109 0.97985 0.0181 0.0
Tb347 Tb 0.65745 0.92695 0.97555 0.0
N348 N 0.65503 0.92646 0.02227 0.0
C349 C 0.63923 0.91541 0.03633 0.0
C350 C 0.65127 0.93116 0.07856 0.0
C351 C 0.63731 0.91738 0.06457 0.0
H352 H 0.69768 0.96172 0.9558 0.0
H353 H 0.62475 0.90863 0.07544 0.0
H354 H 0.68012 0.95957 0.0992 0.0
H355 H 0.72187 0.9875 0.97752 0.0
H356 H 0.62762 0.90543 0.02581 0.0
H357 H 0.61703 0.91533 0.86233 0.0
H358 H 0.64951 0.93292 0.10041 0.0
H359 H 0.70747 0.8499 0.94677 0.0
H360 H 0.64278 0.9231 0.8987 0.0
H361 H 0.70512 0.81195 0.93215 0.0
H362 H 0.7059 0.98141 0.07234 0.0
H363 H 0.61535 0.87888 0.84207 0.0
H364 H 0.62952 0.84109 0.84055 0.0
H365 H 0.72198 0.99137 0.02754 0.0
H366 H 0.65264 0.81274 0.86035 0.0
N367 N 0.65659 0.89145 0.89949 0.0
C368 C 0.64283 0.90718 0.89006 0.0
C369 C 0.6269 0.88221 0.85814 0.0
C370 C 0.64065 0.86607 0.86797 0.0
C371 C 0.62783 0.90278 0.86948 0.0
C372 C 0.65535 0.87119 0.88902 0.0
H373 H 0.6801 0.80156 0.89511 0.0
N374 N 0.68254 0.86092 0.91992 0.0
C375 C 0.69468 0.82396 0.92294 0.0
C376 C 0.66865 0.85538 0.89972 0.0
C377 C 0.69566 0.84546 0.93149 0.0
C378 C 0.68061 0.81819 0.90198 0.0
C379 C 0.66748 0.83395 0.88999 0.0
O380 O 0.70952 0.88171 0.90702 0.0
O381 O 0.69086 0.92064 0.96221 0.0
O382 O 0.66274 0.95063 0.94103 0.0
O383 O 0.68082 0.93041 0.90898 0.0
O384 O 0.71132 0.89491 0.9598 0.0
O385 O 0.70417 0.91557 0.90189 0.0
O386 O 0.62923 0.93753 0.95525 0.0
O387 O 0.65185 0.90196 0.94396 0.0
O388 O 0.6814 0.8759 0.96546 0.0
O389 O 0.66629 0.89806 0.99892 0.0
O390 O 0.63438 0.89932 0.97866 0.0
O391 O 0.6385 0.95106 0.99364 0.0
C392 C 0.70768 0.91187 0.97419 0.0
C393 C 0.71258 0.89525 0.86249 0.0
C394 C 0.72617 0.87731 0.82159 0.0
C395 C 0.72785 0.88195 0.84964 0.0
C396 C 0.70896 0.88638 0.80663 0.0
C397 C 0.69558 0.9041 0.84706 0.0
C398 C 0.69388 0.89971 0.8193 0.0
C399 C 0.67191 0.94918 0.91653 0.0
C400 C 0.71373 0.89857 0.89223 0.0
C401 C 0.65337 0.82897 0.86851 0.0
C402 C 0.64014 0.84506 0.85736 0.0
C403 C 0.63743 0.88938 0.95595 0.0
C404 C 0.60122 0.94414 0.98707 0.0
C405 C 0.59775 0.94327 0.01543 0.0
C406 C 0.5781 0.9356 0.02631 0.0
C407 C 0.56123 0.93027 0.00825 0.0
C408 C 0.58412 0.9388 0.9695 0.0
C409 C 0.5642 0.9321 0.98008 0.0
C410 C 0.67433 0.8794 0.99063 0.0
C411 C 0.62301 0.94899 0.97596 0.0
H412 H 0.74097 0.87521 0.86158 0.0
H413 H 0.70687 0.88285 0.7852 0.0
H414 H 0.68344 0.91419 0.85644 0.0
H415 H 0.68064 0.90647 0.80761 0.0
H416 H 0.6107 0.94774 0.0291 0.0
H417 H 0.54567 0.9248 0.01584 0.0
H418 H 0.58629 0.93944 0.94759 0.0
H419 H 0.55111 0.92793 0.96639 0.0
Tb420 Tb 0.45551 0.43448 0.67909 0.0
C421 C 0.40261 0.43688 0.77218 0.0
C422 C 0.41375 0.42194 0.81579 0.0
C423 C 0.39007 0.45315 0.81442 0.0
C424 C 0.41437 0.42187 0.78702 0.0
C425 C 0.39007 0.45251 0.78583 0.0
C426 C 0.40179 0.43783 0.82937 0.0
C427 C 0.37715 0.46491 0.74216 0.0
N428 N 0.40278 0.43566 0.74449 0.0
C429 C 0.38987 0.44928 0.72948 0.0
C430 C 0.37742 0.46671 0.77042 0.0
Tb431 Tb 0.42428 0.40877 0.72655 0.0
N432 N 0.42551 0.40651 0.77329 0.0
C433 C 0.43573 0.39023 0.78733 0.0
C434 C 0.42483 0.4058 0.83012 0.0
C435 C 0.43575 0.3898 0.8158 0.0
H436 H 0.38977 0.44902 0.70758 0.0
H437 H 0.44405 0.377 0.82668 0.0
H438 H 0.40128 0.43825 0.85144 0.0
H439 H 0.36735 0.47579 0.73003 0.0
H440 H 0.44397 0.37745 0.77675 0.0
H441 H 0.43354 0.36448 0.61803 0.0
H442 H 0.42476 0.40534 0.8522 0.0
H443 H 0.50435 0.45476 0.69491 0.0
H444 H 0.42762 0.39175 0.65295 0.0
H445 H 0.5418 0.45098 0.67862 0.0
H446 H 0.38067 0.46514 0.82518 0.0
H447 H 0.46932 0.36119 0.59603 0.0
H448 H 0.50757 0.3743 0.59177 0.0
H449 H 0.36761 0.47893 0.78015 0.0
H450 H 0.53684 0.39815 0.60789 0.0
N451 N 0.4597 0.40477 0.6512 0.0
C452 C 0.44328 0.39106 0.64352 0.0
C453 C 0.46682 0.37337 0.61149 0.0
C454 C 0.48366 0.38705 0.61958 0.0
C455 C 0.44662 0.37521 0.6238 0.0
C456 C 0.47961 0.40257 0.63991 0.0
H457 H 0.55018 0.42538 0.64161 0.0
N458 N 0.49163 0.43005 0.66908 0.0
C459 C 0.52914 0.44088 0.67022 0.0
C460 C 0.49614 0.41564 0.6492 0.0
C461 C 0.50791 0.44263 0.67977 0.0
C462 C 0.53378 0.4265 0.64926 0.0
C463 C 0.5172 0.4137 0.63845 0.0
O464 O 0.47199 0.459 0.65732 0.0
O465 O 0.43202 0.44151 0.71154 0.0
O466 O 0.40117 0.41527 0.69182 0.0
O467 O 0.42261 0.43093 0.65861 0.0
O468 O 0.45823 0.46164 0.70816 0.0
O469 O 0.43851 0.4526 0.64965 0.0
O470 O 0.41093 0.38216 0.70552 0.0
O471 O 0.44999 0.40242 0.69634 0.0
O472 O 0.47631 0.43193 0.71588 0.0
O473 O 0.45335 0.41729 0.74942 0.0
O474 O 0.45002 0.38348 0.72968 0.0
O475 O 0.39902 0.39131 0.74503 0.0
C476 C 0.44108 0.45856 0.72262 0.0
C477 C 0.46089 0.46066 0.61183 0.0
C478 C 0.48082 0.47419 0.57223 0.0
C479 C 0.47402 0.47643 0.59946 0.0
C480 C 0.47394 0.45596 0.55746 0.0
C481 C 0.45415 0.44261 0.5967 0.0
C482 C 0.46062 0.44036 0.56964 0.0
C483 C 0.40328 0.42341 0.66672 0.0
C484 C 0.45588 0.46241 0.64105 0.0
C485 C 0.52102 0.39914 0.61721 0.0
C486 C 0.50433 0.38571 0.60792 0.0
C487 C 0.46134 0.38699 0.70798 0.0
C488 C 0.39598 0.35433 0.7333 0.0
C489 C 0.40139 0.3472 0.75966 0.0
C490 C 0.39728 0.32576 0.76806 0.0
C491 C 0.38791 0.31138 0.74917 0.0
C492 C 0.38695 0.33966 0.71481 0.0
C493 C 0.38303 0.31828 0.72271 0.0
C494 C 0.47217 0.4253 0.74121 0.0
C495 C 0.39784 0.3773 0.72543 0.0
H496 H 0.47904 0.49037 0.61121 0.0
H497 H 0.47916 0.45352 0.53664 0.0
H498 H 0.44415 0.43011 0.60585 0.0
H499 H 0.45555 0.42632 0.55818 0.0
H500 H 0.40858 0.35847 0.77368 0.0
H501 H 0.3839 0.2949 0.75485 0.0
H502 H 0.38251 0.34487 0.69444 0.0
H503 H 0.37579 0.30709 0.70844 0.0
Tb504 Tb 0.91779 0.20534 0.42684 0.0
C505 C 0.91354 0.15428 0.52015 0.0
C506 C 0.92647 0.16717 0.56385 0.0
C507 C 0.8947 0.14398 0.56193 0.0
C508 C 0.92803 0.16646 0.53518 0.0
C509 C 0.89687 0.14262 0.5335 0.0
C510 C 0.90947 0.15623 0.57708 0.0
C511 C 0.88585 0.12874 0.48986 0.0
N512 N 0.91595 0.15359 0.49258 0.0
C513 C 0.90246 0.14065 0.47745 0.0
C514 C 0.8829 0.12986 0.51795 0.0
Tb515 Tb 0.94333 0.1753 0.47515 0.0
N516 N 0.94426 0.17684 0.52178 0.0
C517 C 0.96052 0.18676 0.53609 0.0
C518 C 0.94234 0.17842 0.57844 0.0
C519 C 0.95963 0.18795 0.56451 0.0
H520 H 0.90349 0.14003 0.45559 0.0
H521 H 0.97232 0.19618 0.57564 0.0
H522 H 0.90786 0.15678 0.59906 0.0
H523 H 0.87507 0.11894 0.47761 0.0
H524 H 0.97414 0.19399 0.52567 0.0
H525 H 0.99033 0.1945 0.36538 0.0
H526 H 0.9417 0.17933 0.60048 0.0
H527 H 0.88751 0.2484 0.4387 0.0
H528 H 0.96136 0.18249 0.39582 0.0
H529 H 0.88831 0.28739 0.42733 0.0
H530 H 0.88184 0.13535 0.57244 0.0
H531 H 0.99322 0.23293 0.35168 0.0
H532 H 0.97802 0.27017 0.35309 0.0
H533 H 0.86987 0.12075 0.52743 0.0
H534 H 0.95114 0.29573 0.37097 0.0
N535 N 0.9471 0.21382 0.39973 0.0
C536 C 0.96182 0.19927 0.38986 0.0
C537 C 0.98026 0.22776 0.36513 0.0
C538 C 0.96514 0.24255 0.37493 0.0
C539 C 0.97863 0.20606 0.37273 0.0
C540 C 0.94865 0.23509 0.39256 0.0
H541 H 0.918 0.30236 0.39904 0.0
N542 N 0.91735 0.24173 0.41877 0.0
C543 C 0.90118 0.27695 0.42041 0.0
C544 C 0.93343 0.2495 0.40255 0.0
C545 C 0.90088 0.25493 0.427 0.0
C546 C 0.91796 0.28533 0.40444 0.0
C547 C 0.93415 0.27153 0.39491 0.0
O548 O 0.89208 0.18756 0.4095 0.0
O549 O 0.91072 0.18275 0.46045 0.0
O550 O 0.93742 0.1517 0.44096 0.0
O551 O 0.92486 0.17338 0.40595 0.0
O552 O 0.89118 0.20938 0.45667 0.0
O553 O 0.90188 0.21792 0.39221 0.0
O554 O 0.97035 0.16201 0.45535 0.0
O555 O 0.95027 0.1999 0.44336 0.0
O556 O 0.92028 0.22748 0.46223 0.0
O557 O 0.93476 0.20505 0.49648 0.0
O558 O 0.9674 0.20211 0.47837 0.0
O559 O 0.9616 0.15174 0.49581 0.0
C560 C 0.89405 0.19236 0.47164 0.0
C561 C 0.86469 0.21016 0.39059 0.0
C562 C 0.83681 0.23112 0.36689 0.0
C563 C 0.85814 0.22324 0.36855 0.0
C564 C 0.82206 0.22556 0.38766 0.0
C565 C 0.84966 0.20484 0.41106 0.0
C566 C 0.82849 0.2125 0.40952 0.0
C567 C 0.93122 0.15392 0.41502 0.0
C568 C 0.88737 0.20278 0.39207 0.0
C569 C 0.95052 0.27893 0.37735 0.0
C570 C 0.96588 0.26444 0.36728 0.0
C571 C 0.96489 0.21212 0.45546 0.0
C572 C 0.99906 0.15493 0.48605 0.0
C573 C 1.00441 0.15523 0.51395 0.0
C574 C 1.02566 0.15981 0.52247 0.0
C575 C 1.04172 0.16356 0.50267 0.0
C576 C 1.01543 0.15853 0.46666 0.0
C577 C 1.03661 0.1628 0.47497 0.0
C578 C 0.92686 0.22379 0.48771 0.0
C579 C 0.97645 0.15145 0.47706 0.0
H580 H 0.86969 0.22718 0.35262 0.0
H581 H 0.80563 0.23157 0.38725 0.0
H582 H 0.85426 0.1949 0.4283 0.0
H583 H 0.81703 0.20842 0.42545 0.0
H584 H 0.99197 0.15246 0.52914 0.0
H585 H 0.05829 0.16686 0.50859 0.0
H586 H 1.01181 0.15823 0.44505 0.0
H587 H 1.0491 0.16564 0.45989 0.0
Tb588 Tb 0.14693 0.66919 0.17514 0.0
C589 C 0.19611 0.66418 0.2704 0.0
C590 C 0.18221 0.67684 0.31367 0.0
C591 C 0.20557 0.6454 0.31256 0.0
C592 C 0.18351 0.67845 0.285 0.0
C593 C 0.2076 0.64769 0.28417 0.0
C594 C 0.19291 0.65996 0.32728 0.0
C595 C 0.22287 0.63723 0.24108 0.0
N596 N 0.19752 0.66674 0.24287 0.0
C597 C 0.21103 0.65359 0.22822 0.0
C598 C 0.221 0.63411 0.26911 0.0
Tb599 Tb 0.1762 0.69391 0.22459 0.0
N600 N 0.17341 0.69461 0.27123 0.0
C601 C 0.16319 0.71074 0.28525 0.0
C602 C 0.17069 0.6926 0.3279 0.0
C603 C 0.16145 0.70982 0.31364 0.0
H604 H 0.21223 0.65468 0.20639 0.0
H605 H 0.15306 0.72245 0.32451 0.0
H606 H 0.1919 0.65831 0.34924 0.0
H607 H 0.23316 0.62675 0.22921 0.0
H608 H 0.15619 0.72436 0.27469 0.0
H609 H 0.1569 0.74259 0.11421 0.0
H610 H 0.16937 0.69196 0.34991 0.0
H611 H 0.10418 0.63782 0.18688 0.0
H612 H 0.16884 0.71448 0.14596 0.0
H613 H 0.06552 0.63709 0.17423 0.0
H614 H 0.21406 0.63267 0.32337 0.0
H615 H 0.11913 0.74312 0.09775 0.0
H616 H 0.08272 0.72554 0.09669 0.0
H617 H 0.23003 0.62125 0.27893 0.0
H618 H 0.05725 0.6984 0.11483 0.0
N619 N 0.13807 0.69844 0.14802 0.0
C620 C 0.15232 0.71399 0.13893 0.0
C621 C 0.12425 0.73058 0.11185 0.0
C622 C 0.10973 0.71475 0.12107 0.0
C623 C 0.14558 0.73028 0.12102 0.0
C624 C 0.11708 0.69888 0.13961 0.0
H625 H 0.05061 0.66563 0.14418 0.0
N626 N 0.11067 0.66755 0.16618 0.0
C627 C 0.07581 0.6502 0.16721 0.0
C628 C 0.10289 0.68313 0.14924 0.0
C629 C 0.09765 0.65079 0.17457 0.0
C630 C 0.06746 0.66634 0.15025 0.0
C631 C 0.0811 0.68284 0.14064 0.0
O632 O 0.16654 0.64541 0.15718 0.0
O633 O 0.16918 0.66168 0.20879 0.0
O634 O 0.20024 0.68778 0.19076 0.0
O635 O 0.17857 0.67811 0.15451 0.0
O636 O 0.14266 0.642 0.20446 0.0
O637 O 0.13514 0.65224 0.14098 0.0
O638 O 0.1892 0.72182 0.20577 0.0
O639 O 0.15216 0.70142 0.19239 0.0
O640 O 0.12432 0.67107 0.21013 0.0
O641 O 0.14615 0.68454 0.24543 0.0
O642 O 0.14934 0.7176 0.22785 0.0
O643 O 0.20027 0.71147 0.2452 0.0
C644 C 0.15956 0.64474 0.21955 0.0
C645 C 0.14616 0.61601 0.13942 0.0
C646 C 0.12714 0.58602 0.11727 0.0
C647 C 0.13347 0.60797 0.11791 0.0
C648 C 0.13399 0.57223 0.13854 0.0
C649 C 0.15295 0.60184 0.16013 0.0
C650 C 0.14696 0.58011 0.15958 0.0
C651 C 0.19812 0.68315 0.16433 0.0
C652 C 0.1515 0.63928 0.14031 0.0
C653 C 0.07383 0.69853 0.12204 0.0
C654 C 0.08822 0.71419 0.11197 0.0
C655 C 0.13973 0.71562 0.2047 0.0
C656 C 0.19575 0.7491 0.23835 0.0
C657 C 0.19494 0.75264 0.26664 0.0
C658 C 0.18832 0.77264 0.27707 0.0
C659 C 0.18346 0.78956 0.25881 0.0
C660 C 0.19109 0.7663 0.22048 0.0
C661 C 0.18506 0.78643 0.23072 0.0
C662 C 0.12753 0.67689 0.23593 0.0
C663 C 0.19994 0.72723 0.22753 0.0
H664 H 0.12864 0.6189 0.10168 0.0
H665 H 0.12914 0.55539 0.13923 0.0
H666 H 0.16276 0.60756 0.17684 0.0
H667 H 0.15231 0.56938 0.17566 0.0
H668 H 0.19864 0.73957 0.28067 0.0
H669 H 0.17861 0.80527 0.26626 0.0
H670 H 0.1917 0.76408 0.19861 0.0
H671 H 0.18133 0.79956 0.21681 0.0
Tb672 Tb 0.94403 0.67366 0.53746 0.0
C673 C 0.93974 0.74687 0.60993 0.0
C674 C 0.97125 0.73693 0.63642 0.0
C675 C 0.96124 0.77475 0.63218 0.0
C676 C 0.95343 0.73114 0.61994 0.0
C677 C 0.94339 0.76887 0.61608 0.0
C678 C 0.97514 0.7588 0.64232 0.0
C679 C 0.91136 0.77772 0.59028 0.0
N680 N 0.92291 0.74062 0.59407 0.0
C681 C 0.90839 0.75575 0.58478 0.0
C682 C 0.92902 0.78434 0.60588 0.0
Tb683 Tb 0.91911 0.70393 0.58709 0.0
N684 N 0.9494 0.7102 0.61334 0.0
C685 C 0.96213 0.69414 0.62399 0.0
C686 C 0.98463 0.72058 0.64651 0.0
C687 C 0.97996 0.69908 0.64039 0.0
H688 H 0.8945 0.75078 0.57288 0.0
H689 H 0.99009 0.68626 0.6483 0.0
H690 H 0.98882 0.76355 0.6548 0.0
H691 H 0.89997 0.78951 0.58255 0.0
H692 H 0.95901 0.67748 0.61955 0.0
H693 H 0.96557 0.69912 0.43511 0.0
H694 H 0.99848 0.72436 0.65919 0.0
H695 H 0.91059 0.63472 0.55868 0.0
H696 H 0.96989 0.69627 0.48489 0.0
H697 H 0.88475 0.60908 0.5389 0.0
H698 H 0.96438 0.79156 0.63697 0.0
H699 H 0.93591 0.67938 0.4121 0.0
H700 H 0.90505 0.65282 0.41556 0.0
H701 H 0.93129 0.80138 0.61013 0.0
H702 H 0.88329 0.62785 0.44382 0.0
N703 N 0.94191 0.67642 0.49063 0.0
C704 C 0.95661 0.68787 0.47525 0.0
C705 C 0.93752 0.67836 0.43406 0.0
C706 C 0.92357 0.66535 0.44958 0.0
C707 C 0.95427 0.6895 0.44696 0.0
C708 C 0.92626 0.66475 0.47813 0.0
H709 H 0.87635 0.61069 0.48963 0.0
N710 N 0.91754 0.65086 0.52119 0.0
C711 C 0.8927 0.62096 0.526 0.0
C712 C 0.91383 0.65118 0.49396 0.0
C713 C 0.90743 0.63569 0.53721 0.0
C714 C 0.88798 0.62192 0.49821 0.0
C715 C 0.89864 0.63713 0.48177 0.0
O716 O 0.95617 0.64225 0.54343 0.0
O717 O 0.95119 0.69768 0.56977 0.0
O718 O 0.92233 0.72556 0.55122 0.0
O719 O 0.93194 0.70216 0.51591 0.0
O720 O 0.96977 0.69894 0.53595 0.0
O721 O 0.975 0.66623 0.52231 0.0
O722 O 0.89285 0.71847 0.60758 0.0
O723 O 0.91182 0.68103 0.55405 0.0
O724 O 0.94416 0.65288 0.57582 0.0
O725 O 0.91963 0.66961 0.60379 0.0
O726 O 0.89036 0.7054 0.56006 0.0
O727 O 0.90748 0.68962 0.62319 0.0
C728 C 0.96646 0.70939 0.55809 0.0
C729 C 0.97692 0.63016 0.50603 0.0
C730 C 0.99117 0.62157 0.46089 0.0
C731 C 0.98713 0.63663 0.48163 0.0
C732 C 0.98478 0.59992 0.46467 0.0
C733 C 0.97071 0.60839 0.50937 0.0
C734 C 0.97455 0.59344 0.48874 0.0
C735 C 0.92651 0.72144 0.52524 0.0
C736 C 0.97303 0.64581 0.5282 0.0
C737 C 0.89514 0.63825 0.4535 0.0
C738 C 0.90753 0.65244 0.43742 0.0
C739 C 0.89369 0.68902 0.54449 0.0
C740 C 0.89616 0.71548 0.65547 0.0
C741 C 0.87897 0.72775 0.66598 0.0
C742 C 0.88047 0.73703 0.69211 0.0
C743 C 0.89953 0.73414 0.70735 0.0
C744 C 0.91501 0.71283 0.67121 0.0
C745 C 0.91665 0.72217 0.6969 0.0
C746 C 0.93177 0.65239 0.59813 0.0
C747 C 0.89431 0.70543 0.62829 0.0
H748 H 0.99239 0.65326 0.47892 0.0
H749 H 0.98765 0.58805 0.44895 0.0
H750 H 0.96293 0.6029 0.52797 0.0
H751 H 0.96967 0.57672 0.49149 0.0
H752 H 0.86434 0.72976 0.65404 0.0
H753 H 0.90128 0.74136 0.7273 0.0
H754 H 0.92849 0.70345 0.66378 0.0
H755 H 0.93126 0.72009 0.70879 0.0
Tb756 Tb 0.1785 0.19187 0.78827 0.0
C757 C 0.10292 0.18365 0.85707 0.0
C758 C 0.10909 0.21691 0.88185 0.0
C759 C 0.07244 0.20325 0.87602 0.0
C760 C 0.11713 0.19911 0.86713 0.0
C761 C 0.08049 0.18532 0.86189 0.0
C762 C 0.0867 0.21902 0.88594 0.0
C763 C 0.07569 0.15078 0.83981 0.0
N764 N 0.11115 0.16659 0.84329 0.0
C765 C 0.09803 0.14979 0.83556 0.0
C766 C 0.06684 0.16875 0.85273 0.0
Tb767 Tb 0.14772 0.16702 0.83666 0.0
N768 N 0.13872 0.19675 0.86243 0.0
C769 C 0.15311 0.21152 0.87285 0.0
C770 C 0.12376 0.23214 0.89198 0.0
C771 C 0.14584 0.22936 0.88756 0.0
H772 H 0.10484 0.13576 0.82578 0.0
H773 H 0.15731 0.24113 0.89523 0.0
H774 H 0.08026 0.23269 0.89696 0.0
H775 H 0.06533 0.13766 0.83319 0.0
H776 H 0.1702 0.21038 0.86895 0.0
H777 H 0.15754 0.21873 0.68644 0.0
H778 H 0.11821 0.24607 0.90325 0.0
H779 H 0.21474 0.15361 0.80948 0.0
H780 H 0.15899 0.22109 0.73634 0.0
H781 H 0.23866 0.12754 0.78839 0.0
H782 H 0.05524 0.20495 0.87967 0.0
H783 H 0.17575 0.18868 0.66278 0.0
H784 H 0.19957 0.15604 0.66556 0.0
H785 H 1.04952 0.16947 0.85604 0.0
H786 H 0.22212 0.1317 0.69325 0.0
N787 N 0.17702 0.19198 0.74153 0.0
C788 C 0.16681 0.20768 0.7265 0.0
C789 C 0.17626 0.18948 0.68483 0.0
C790 C 0.18778 0.17421 0.70011 0.0
C791 C 0.16599 0.20647 0.69809 0.0
C792 C 0.18795 0.17596 0.72879 0.0
H793 H 0.23758 0.12174 0.73868 0.0
N794 N 0.2007 0.16482 0.77198 0.0
C795 C 0.22802 0.13721 0.77576 0.0
C796 C 0.20046 0.16216 0.74446 0.0
C797 C 0.21442 0.15251 0.78765 0.0
C798 C 0.22729 0.13389 0.74773 0.0
C799 C 0.2134 0.14638 0.7317 0.0
O800 O 0.19229 0.2187 0.80823 0.0
O801 O 0.15391 0.19915 0.81943 0.0
O802 O 0.12581 0.16957 0.8011 0.0
O803 O 0.14852 0.18339 0.76675 0.0
O804 O 0.15241 0.21647 0.78423 0.0
O805 O 0.20241 0.20996 0.76784 0.0
O806 O 0.16524 0.14171 0.85511 0.0
O807 O 0.17069 0.15938 0.80375 0.0
O808 O 0.20143 0.1864 0.82341 0.0
O809 O 0.17937 0.17439 0.85833 0.0
O810 O 0.14337 0.14054 0.80689 0.0
O811 O 0.13449 0.15124 0.87112 0.0
C812 C 0.14221 0.21397 0.80696 0.0
C813 C 0.20286 0.24729 0.77885 0.0
C814 C 0.19803 0.2753 0.74385 0.0
C815 C 0.19759 0.25344 0.75205 0.0
C816 C 0.20371 0.29104 0.76329 0.0
C817 C 0.20827 0.26328 0.79783 0.0
C818 C 0.20862 0.28503 0.79007 0.0
C819 C 0.12957 0.17596 0.77558 0.0
C820 C 0.20371 0.22431 0.78706 0.0
C821 C 0.21253 0.14393 0.70329 0.0
C822 C 0.19968 0.15777 0.68753 0.0
C823 C 0.16084 0.14276 0.79264 0.0
C824 C 0.14233 0.1141 0.87295 0.0
C825 C 0.12913 0.10717 0.89466 0.0
C826 C 0.12129 0.08577 0.89592 0.0
C827 C 0.12695 0.07131 0.87511 0.0
C828 C 0.14777 0.09938 0.85236 0.0
C829 C 0.14009 0.07812 0.85351 0.0
C830 C 0.19894 0.18057 0.84945 0.0
C831 C 0.14965 0.13685 0.87189 0.0
H832 H 0.19326 0.24114 0.73755 0.0
H833 H 0.20487 0.30799 0.75781 0.0
H834 H 0.21248 0.2589 0.81859 0.0
H835 H 0.21301 0.29727 0.80477 0.0
H836 H 0.12509 0.11848 0.91065 0.0
H837 H 0.12095 0.05481 0.87529 0.0
H838 H 0.15785 0.10425 0.83532 0.0
H839 H 0.14419 0.06693 0.83749 0.0
Tb840 Tb 0.65947 0.42625 0.04222 0.0
C841 C 0.67198 0.3524 0.11353 0.0
C842 C 0.64106 0.3591 0.14263 0.0
C843 C 0.65593 0.32285 0.1396 0.0
C844 C 0.65689 0.36668 0.12415 0.0
C845 C 0.67172 0.33038 0.12127 0.0
C846 C 0.64083 0.33724 0.15044 0.0
C847 C 0.70417 0.32531 0.09461 0.0
N848 N 0.68763 0.36033 0.09673 0.0
C849 C 0.70408 0.34733 0.08798 0.0
C850 C 0.68784 0.31675 0.11117 0.0
Tb851 Tb 0.68665 0.3967 0.08881 0.0
N852 N 0.65807 0.38798 0.11695 0.0
C853 C 0.64359 0.40241 0.12761 0.0
C854 C 0.62615 0.37377 0.15318 0.0
C855 C 0.62737 0.39548 0.14553 0.0
H856 H 0.71709 0.35401 0.07579 0.0
H857 H 0.61584 0.40695 0.1535 0.0
H858 H 0.62934 0.33147 0.16543 0.0
H859 H 0.71701 0.31501 0.08725 0.0
H860 H 0.64382 0.4192 0.12172 0.0
H861 H 0.62981 0.40763 0.94133 0.0
H862 H 0.61367 0.36851 0.1673 0.0
H863 H 0.69802 0.46252 0.06292 0.0
H864 H 0.62904 0.40741 0.99144 0.0
H865 H 0.72398 0.48681 0.04145 0.0
H866 H 0.65562 0.30605 0.14605 0.0
H867 H 0.65898 0.4272 0.91678 0.0
H868 H 0.69151 0.45149 0.9187 0.0
H869 H 0.68814 0.29974 0.11662 0.0
H870 H 0.7166 0.4735 0.94593 0.0
N871 N 0.65802 0.42604 0.9956 0.0
C872 C 0.64203 0.41583 0.98111 0.0
C873 C 0.6588 0.42703 0.93886 0.0
C874 C 0.67441 0.43841 0.95372 0.0
C875 C 0.64232 0.41599 0.95262 0.0
C876 C 0.67348 0.43774 0.98245 0.0
H877 H 0.72788 0.48765 0.99155 0.0
N878 N 0.68563 0.44967 0.0255 0.0
C879 C 0.7138 0.47661 0.02893 0.0
C880 C 0.68758 0.45012 0.99786 0.0
C881 C 0.69854 0.46287 0.04104 0.0
C882 C 0.71613 0.47687 1.00074 0.0
C883 C 0.70305 0.4635 0.98479 0.0
O884 O 0.63225 0.43808 0.06304 0.0
O885 O 0.65343 0.40116 0.0738 0.0
O886 O 0.68382 0.37477 0.05316 0.0
O887 O 0.66909 0.39738 0.01947 0.0
O888 O 0.63684 0.3984 0.03831 0.0
O889 O 0.63967 0.4491 0.0225 0.0
O890 O 0.71277 0.41436 0.10539 0.0
O891 O 0.69272 0.4199 0.05566 0.0
O892 O 0.66423 0.44957 0.07701 0.0
O893 O 0.68052 0.42864 0.1102 0.0
O894 O 0.71249 0.39328 0.05787 0.0
O895 O 0.70328 0.38398 0.12281 0.0
C896 C 0.63943 0.38848 0.06126 0.0
C897 C 0.60272 0.44302 0.033 0.0
C898 C 0.57651 0.43602 0.99682 0.0
C899 C 0.59693 0.44341 1.00525 0.0
C900 C 0.56152 0.42886 0.01644 0.0
C901 C 0.58729 0.43632 0.05238 0.0
C902 C 0.56683 0.42928 0.04409 0.0
C903 C 0.67738 0.37863 0.02762 0.0
C904 C 0.62508 0.44827 0.04158 0.0
C905 C 0.70467 0.4635 0.95624 0.0
C906 C 0.69041 0.45094 0.94074 0.0
C907 C 0.70933 0.41072 0.04374 0.0
C908 C 0.74049 0.39162 0.12318 0.0
C909 C 0.74737 0.37834 0.14486 0.0
C910 C 0.76867 0.37034 0.14581 0.0
C911 C 0.78308 0.37599 0.12471 0.0
C912 C 0.75516 0.39703 0.10232 0.0
C913 C 0.77633 0.38925 0.10318 0.0
C914 C 0.67233 0.44764 0.10213 0.0
C915 C 0.71782 0.39907 0.12253 0.0
H916 H 0.60852 0.44874 0.99001 0.0
H917 H 0.54563 0.42319 0.01039 0.0
H918 H 0.5912 0.43605 0.07391 0.0
H919 H 0.55516 0.42388 0.05913 0.0
H920 H 0.73609 0.37434 0.16107 0.0
H921 H 0.79948 0.36991 0.1246 0.0
H922 H 0.7503 0.40715 0.08531 0.0
H923 H 0.78752 0.3934 0.08698 0.0
Tb924 Tb 0.42617 0.90958 0.28639 0.0
C925 C 0.50068 0.91163 0.35932 0.0
C926 C 0.49089 0.87954 0.38504 0.0
C927 C 0.52871 0.88985 0.38078 0.0
C928 C 0.48502 0.89766 0.36904 0.0
C929 C 0.52274 0.908 0.3652 0.0
C930 C 0.51281 0.87565 0.39069 0.0
C931 C 0.53138 0.94065 0.34021 0.0
N932 N 0.49431 0.92875 0.34397 0.0
C933 C 0.50935 0.94358 0.33497 0.0
C934 C 0.53813 0.9227 0.35526 0.0
Tb935 Tb 0.45762 0.9323 0.33677 0.0
N936 N 0.46404 0.90171 0.36263 0.0
C937 C 0.44803 0.88865 0.37297 0.0
C938 C 0.47457 0.86587 0.39487 0.0
C939 C 0.45303 0.87053 0.38893 0.0
H940 H 0.50426 0.95763 0.32341 0.0
H941 H 0.44024 0.86015 0.39661 0.0
H942 H 0.51763 0.86174 0.40277 0.0
H943 H 0.54312 0.95228 0.33266 0.0
H944 H 0.43133 0.89169 0.36858 0.0
H945 H 0.44624 0.89066 0.182 0.0
H946 H 0.47841 0.85178 0.40718 0.0
H947 H 0.38969 0.94371 0.31146 0.0
H948 H 0.44606 0.88547 0.23185 0.0
H949 H 0.36351 0.96994 0.29418 0.0
H950 H 0.54557 0.88671 0.38537 0.0
H951 H 0.42614 0.92113 0.16133 0.0
H952 H 0.40007 0.95171 0.16756 0.0
H953 H 0.55522 0.92045 0.3593 0.0
H954 H 0.37728 0.97318 0.19814 0.0
N955 N 0.42824 0.91416 0.23982 0.0
C956 C 0.43808 0.89941 0.22319 0.0
C957 C 0.42662 0.91932 0.18331 0.0
C958 C 0.41499 0.93322 0.20017 0.0
C959 C 0.43797 0.90212 0.19488 0.0
C960 C 0.4162 0.93019 0.22868 0.0
H961 H 0.36286 0.97941 0.24516 0.0
N962 N 0.40421 0.9377 0.27288 0.0
C963 C 0.37475 0.96237 0.28031 0.0
C964 C 0.40347 0.94221 0.2458 0.0
C965 C 0.38981 0.94739 0.2901 0.0
C966 C 0.37447 0.96772 0.25268 0.0
C967 C 0.38884 0.95752 0.23499 0.0
O968 O 0.3939 0.89869 0.2895 0.0
O969 O 0.44966 0.90098 0.31876 0.0
O970 O 0.4795 0.9274 0.30172 0.0
O971 O 0.45599 0.91991 0.26549 0.0
O972 O 0.44978 0.88241 0.28506 0.0
O973 O 0.41764 0.87951 0.26928 0.0
O974 O 0.47209 0.95854 0.35758 0.0
O975 O 0.43487 0.94118 0.30383 0.0
O976 O 0.40571 0.90805 0.32479 0.0
O977 O 0.42362 0.93078 0.3542 0.0
O978 O 0.46074 0.96106 0.30965 0.0
O979 O 0.44323 0.94351 0.37275 0.0
C980 C 0.46034 0.88506 0.30739 0.0
C981 C 0.38403 0.88343 0.24701 0.0
C982 C 0.38018 0.87303 0.1993 0.0
C983 C 0.38964 0.87 0.22508 0.0
C984 C 0.3646 0.88921 0.19562 0.0
C985 C 0.36784 0.89913 0.24309 0.0
C986 C 0.35827 0.90198 0.21754 0.0
C987 C 0.4756 0.92377 0.27551 0.0
C988 C 0.3971 0.88306 0.27236 0.0
C989 C 0.38827 0.96137 0.20678 0.0
C990 C 0.40131 0.9492 0.18938 0.0
C991 C 0.44404 0.95877 0.29422 0.0
C992 C 0.46899 0.95475 0.40539 0.0
C993 C 0.48078 0.97214 0.41643 0.0
C994 C 0.49001 0.97045 0.44265 0.0
C995 C 0.48755 0.95104 0.45744 0.0
C996 C 0.46674 0.93553 0.42067 0.0
C997 C 0.47605 0.93372 0.44645 0.0
C998 C 0.40595 0.9193 0.34796 0.0
C999 C 0.45901 0.95679 0.37812 0.0
H1000 H 0.40213 0.85789 0.22765 0.0
H1001 H 0.35721 0.89179 0.17584 0.0
H1002 H 0.3631 0.90979 0.25945 0.0
H1003 H 0.34618 0.91439 0.21462 0.0
H1004 H 0.48245 0.98704 0.40484 0.0
H1005 H 0.49474 0.94916 0.47746 0.0
H1006 H 0.45771 0.9219 0.41282 0.0
H1007 H 0.47428 0.91883 0.45799 0.0
Tb1008 Tb 0.18503 0.39885 0.42804 0.0
C1009 C 0.1903 0.45501 0.51637 0.0
C1010 C 0.17918 0.44429 0.56195 0.0
C1011 C 0.20889 0.46968 0.55605 0.0
C1012 C 0.177 0.44291 0.53336 0.0
C1013 C 0.2062 0.46881 0.52767 0.0
C1014 C 0.19544 0.45742 0.57315 0.0
C1015 C 0.21561 0.48025 0.48218 0.0
N1016 N 0.18737 0.45367 0.48892 0.0
C1017 C 0.20001 0.4661 0.47184 0.0
C1018 C 0.21873 0.48161 0.51017 0.0
Tb1019 Tb 0.16022 0.43016 0.4752 0.0
N1020 N 0.16127 0.43053 0.52194 0.0
C1021 C 0.14647 0.41997 0.53814 0.0
C1022 C 0.16454 0.43296 0.5785 0.0
C1023 C 0.14793 0.42104 0.56652 0.0
H1024 H 0.19909 0.46484 0.45006 0.0
H1025 H 0.13614 0.4128 0.57916 0.0
H1026 H 0.19745 0.45856 0.59504 0.0
H1027 H 0.22548 0.48988 0.46845 0.0
H1028 H 0.13351 0.41064 0.52925 0.0
H1029 H 0.11141 0.40706 0.36777 0.0
H1030 H 0.16559 0.43375 0.60052 0.0
H1031 H 0.21579 0.3561 0.44125 0.0
H1032 H 0.14251 0.42058 0.3933 0.0
H1033 H 0.21286 0.31634 0.43689 0.0
H1034 H 0.2211 0.48006 0.56502 0.0
H1035 H 0.10528 0.36774 0.36311 0.0
H1036 H 0.11746 0.32992 0.37296 0.0
H1037 H 0.23078 0.49266 0.51799 0.0
H1038 H 0.14458 0.30526 0.39239 0.0
N1039 N 0.15508 0.38922 0.4028 0.0
C1040 C 0.14081 0.40337 0.39095 0.0
C1041 C 0.11936 0.37355 0.37407 0.0
C1042 C 0.13411 0.35911 0.38567 0.0
C1043 C 0.12279 0.39575 0.37661 0.0
C1044 C 0.15213 0.36749 0.39989 0.0
H1045 H 0.18023 0.30004 0.41605 0.0
N1046 N 0.1847 0.36205 0.42409 0.0
C1047 C 0.19984 0.32659 0.42978 0.0
C1048 C 0.16725 0.35349 0.41118 0.0
C1049 C 0.20143 0.34906 0.43228 0.0
C1050 C 0.18139 0.31746 0.41802 0.0
C1051 C 0.16498 0.33093 0.4081 0.0
O1052 O 0.19984 0.38409 0.39419 0.0
O1053 O 0.19263 0.4227 0.45972 0.0
O1054 O 0.16462 0.45268 0.4395 0.0
O1055 O 0.17807 0.43058 0.40576 0.0
O1056 O 0.2124 0.39624 0.45717 0.0
O1057 O 0.21016 0.41537 0.4075 0.0
O1058 O 0.13264 0.44239 0.45522 0.0
O1059 O 0.15283 0.40491 0.44486 0.0
O1060 O 0.18323 0.37799 0.46508 0.0
O1061 O 0.17037 0.40174 0.49828 0.0
O1062 O 0.13704 0.40273 0.48107 0.0
O1063 O 0.14114 0.45313 0.4954 0.0
C1064 C 0.20986 0.41389 0.47077 0.0
C1065 C 0.23703 0.39164 0.39039 0.0
C1066 C 0.26474 0.37008 0.36765 0.0
C1067 C 0.2435 0.37822 0.36884 0.0
C1068 C 0.27948 0.37569 0.38831 0.0
C1069 C 0.25209 0.3971 0.41071 0.0
C1070 C 0.27317 0.38914 0.40961 0.0
C1071 C 0.17108 0.45004 0.41383 0.0
C1072 C 0.21439 0.39911 0.39172 0.0
C1073 C 0.14674 0.32256 0.39467 0.0
C1074 C 0.13134 0.33661 0.38351 0.0
C1075 C 0.13883 0.39275 0.4582 0.0
C1076 C 0.10372 0.4493 0.48534 0.0
C1077 C 0.09866 0.44441 0.51265 0.0
C1078 C 0.07717 0.44051 0.52092 0.0
C1079 C 0.06064 0.44198 0.50121 0.0
C1080 C 0.08696 0.45053 0.46613 0.0
C1081 C 0.06556 0.44691 0.47407 0.0
C1082 C 0.1779 0.38269 0.49065 0.0
C1083 C 0.12634 0.45302 0.47657 0.0
H1084 H 0.23185 0.37379 0.35329 0.0
H1085 H 0.29599 0.36989 0.38781 0.0
H1086 H 0.24763 0.40744 0.42751 0.0
H1087 H 0.28468 0.39342 0.42534 0.0
H1088 H 0.1115 0.44354 0.52745 0.0
H1089 H 1.04382 0.43975 0.50672 0.0
H1090 H 0.09043 0.45433 0.44498 0.0
H1091 H 0.0527 0.44802 0.45915 0.0
Tb1092 Tb 0.95582 0.93608 0.17803 0.0
C1093 C 0.90223 0.9398 0.26925 0.0
C1094 C 0.91381 0.92655 0.31354 0.0
C1095 C 0.89087 0.95825 0.31057 0.0
C1096 C 0.9139 0.92523 0.28483 0.0
C1097 C 0.89033 0.95634 0.28207 0.0
C1098 C 0.90258 0.94338 0.32628 0.0
C1099 C 0.87786 0.96778 0.23777 0.0
N1100 N 0.90231 0.93761 0.24165 0.0
C1101 C 0.88998 0.95127 0.22591 0.0
C1102 C 0.87816 0.97045 0.26592 0.0
Tb1103 Tb 0.92434 0.91044 0.22522 0.0
N1104 N 0.9246 0.90919 0.2719 0.0
C1105 C 0.93413 0.89289 0.28663 0.0
C1106 C 0.9246 0.91062 0.32862 0.0
C1107 C 0.93451 0.89353 0.3151 0.0
H1108 H 0.89002 0.95048 0.20403 0.0
H1109 H 0.94242 0.8808 0.32655 0.0
H1110 H 0.90251 0.94479 0.34828 0.0
H1111 H 0.86855 0.97869 0.22506 0.0
H1112 H 0.94167 0.87944 0.27652 0.0
H1113 H 0.94596 0.86378 0.1162 0.0
H1114 H 0.92488 0.91108 0.35069 0.0
H1115 H 0.99922 0.96617 0.19123 0.0
H1116 H 0.93316 0.8944 0.14281 0.0
H1117 H 1.0389 0.96298 0.18621 0.0
H1118 H 0.88203 0.971 0.32069 0.0
H1119 H 0.98514 0.85751 0.11051 0.0
H1120 H 1.02325 0.86923 0.11983 0.0
H1121 H 0.8689 0.98339 0.27498 0.0
H1122 H 1.0485 0.89573 0.13949 0.0
N1123 N 0.9648 0.90658 0.15191 0.0
C1124 C 0.95032 0.89264 0.14003 0.0
C1125 C 0.97965 0.87138 0.12194 0.0
C1126 C 0.99443 0.8858 0.13358 0.0
C1127 C 0.95753 0.8749 0.12507 0.0
C1128 C 0.98646 0.90357 0.14842 0.0
H1129 H 0.0545 0.93074 0.16411 0.0
N1130 N 0.9926 0.93555 0.17333 0.0
C1131 C 1.02838 0.95023 0.17889 0.0
C1132 C 1.00078 0.91833 0.1598 0.0
C1133 C 1.00595 0.95195 0.18178 0.0
C1134 C 1.03711 0.932 0.16641 0.0
C1135 C 1.02329 0.91596 0.15624 0.0
O1136 O 0.93917 0.96136 0.15823 0.0
O1137 O 0.93245 0.94304 0.21052 0.0
O1138 O 0.90152 0.91643 0.19018 0.0
O1139 O 0.92392 0.92976 0.15622 0.0
O1140 O 0.95903 0.96292 0.20754 0.0
O1141 O 0.97051 0.95169 0.14439 0.0
O1142 O 0.91142 0.88365 0.20447 0.0
O1143 O 0.94923 0.90368 0.19417 0.0
O1144 O 0.97671 0.93386 0.21477 0.0
O1145 O 0.95355 0.91901 0.24796 0.0
O1146 O 0.95131 0.88687 0.22976 0.0
O1147 O 0.90073 0.89128 0.24489 0.0
C1148 C 0.94172 0.95988 0.22187 0.0
C1149 C 0.96263 0.98875 0.14095 0.0
C1150 C 0.98347 1.01701 0.11755 0.0
C1151 C 0.97584 0.99554 0.11919 0.0
C1152 C 0.97758 1.03166 0.13806 0.0
C1153 C 0.95698 1.00365 0.16121 0.0
C1154 C 0.96442 1.02498 0.1597 0.0
C1155 C 0.90429 0.92311 0.16449 0.0
C1156 C 0.95536 0.966 0.14228 0.0
C1157 C 1.03125 0.89797 0.14216 0.0
C1158 C 1.01686 0.88292 0.13088 0.0
C1159 C 0.96117 0.8892 0.2068 0.0
C1160 C 0.90602 0.85424 0.2348 0.0
C1161 C 0.90519 0.84835 0.26256 0.0
C1162 C 0.91241 0.82793 0.2713 0.0
C1163 C 0.91974 0.81304 0.25189 0.0
C1164 C 0.91306 0.83893 0.21568 0.0
C1165 C 0.91982 0.81847 0.22424 0.0
C1166 C 0.97245 0.92714 0.24005 0.0
C1167 C 0.90115 0.87665 0.22597 0.0
H1168 H 0.98002 0.98408 0.10342 0.0
H1169 H 0.9834 1.04822 0.1376 0.0
H1170 H 0.94688 0.99886 0.17823 0.0
H1171 H 0.96006 1.03635 0.17544 0.0
H1172 H 0.89977 0.8599 0.27759 0.0
H1173 H 0.92525 0.79715 0.25813 0.0
H1174 H 0.91376 0.84292 0.19417 0.0
H1175 H 0.92542 0.80688 0.20941 0.0
Tb1176 Tb 0.41747 0.70425 0.92568 0.0
C1177 C 0.41154 0.65164 0.01814 0.0
C1178 C 0.42228 0.66333 0.06311 0.0
C1179 C 0.39322 0.63706 0.05818 0.0
C1180 C 0.42428 0.66441 0.03449 0.0
C1181 C 0.3961 0.63745 0.02978 0.0
C1182 C 0.40634 0.64995 0.07484 0.0
C1183 C 0.3888 0.6239 0.98469 0.0
N1184 N 0.41502 0.65236 0.99087 0.0
C1185 C 0.40414 0.63841 0.97412 0.0
C1186 C 0.38456 0.62359 0.01262 0.0
Tb1187 Tb 0.4426 0.67445 0.97577 0.0
N1188 N 0.43962 0.67687 0.02236 0.0
C1189 C 0.45436 0.68787 0.038 0.0
C1190 C 0.43696 0.67499 0.07906 0.0
C1191 C 0.45321 0.68714 0.06641 0.0
H1192 H 0.407 0.6385 0.95249 0.0
H1193 H 0.46513 0.69567 0.07844 0.0
H1194 H 0.40442 0.64904 0.09677 0.0
H1195 H 0.38014 0.61309 0.97122 0.0
H1196 H 0.46722 0.6971 0.02846 0.0
H1197 H 0.48953 0.69575 0.86286 0.0
H1198 H 0.43622 0.67425 0.10111 0.0
H1199 H 0.38577 0.74666 0.93656 0.0
H1200 H 0.45912 0.68242 0.89003 0.0
H1201 H 0.38766 0.78624 0.92954 0.0
H1202 H 0.38132 0.62641 0.06748 0.0
H1203 H 0.49497 0.73501 0.85594 0.0
H1204 H 0.4822 0.77286 0.86382 0.0
H1205 H 0.37262 0.6124 0.02074 0.0
H1206 H 0.45487 0.7975 0.88243 0.0
N1207 N 0.44646 0.71377 0.89857 0.0
C1208 C 0.46062 0.69957 0.8869 0.0
C1209 C 0.48125 0.72927 0.86773 0.0
C1210 C 0.46648 0.74375 0.87896 0.0
C1211 C 0.4782 0.7071 0.87155 0.0
C1212 C 0.44894 0.73544 0.89428 0.0
H1213 H 0.41951 0.80264 0.90674 0.0
N1214 N 0.41675 0.74087 0.91904 0.0
C1215 C 0.40081 0.7761 0.92278 0.0
C1216 C 0.43373 0.74942 0.90507 0.0
C1217 C 0.39983 0.7537 0.9268 0.0
C1218 C 0.41882 0.78529 0.9099 0.0
C1219 C 0.43538 0.77191 0.90042 0.0
O1220 O 0.39147 0.68685 0.9086 0.0
O1221 O 0.41025 0.68238 0.96022 0.0
O1222 O 0.44259 0.65304 0.93823 0.0
O1223 O 0.42363 0.67209 0.90549 0.0
O1224 O 0.39096 0.70898 0.95553 0.0
O1225 O 0.40194 0.71682 0.89073 0.0
O1226 O 0.45437 0.64264 0.97271 0.0
O1227 O 0.4497 0.69705 0.94186 0.0
O1228 O 0.42165 0.72686 0.95978 0.0
O1229 O 0.43298 0.70463 0.99597 0.0
O1230 O 0.46862 0.69925 0.97563 0.0
O1231 O 0.4735 0.66731 0.99153 0.0
C1232 C 0.39349 0.69212 0.97086 0.0
C1233 C 0.36446 0.70998 0.8902 0.0
C1234 C 0.3365 0.73125 0.86712 0.0
C1235 C 0.35769 0.72293 0.86814 0.0
C1236 C 0.32216 0.72639 0.8886 0.0
C1237 C 0.3498 0.70531 0.91137 0.0
C1238 C 0.32882 0.71353 0.91051 0.0
C1239 C 0.43345 0.65393 0.91351 0.0
C1240 C 0.38698 0.70207 0.89109 0.0
C1241 C 0.45318 0.78025 0.88593 0.0
C1242 C 0.4687 0.76621 0.87526 0.0
C1243 C 0.46538 0.70869 0.95263 0.0
C1244 C 0.47448 0.63226 0.01172 0.0
C1245 C 0.483 0.64016 0.03645 0.0
C1246 C 0.48577 0.62638 0.05922 0.0
C1247 C 0.48009 0.60438 0.0566 0.0
C1248 C 0.46895 0.61027 0.00987 0.0
C1249 C 0.47171 0.59649 0.03218 0.0
C1250 C 0.42714 0.72364 0.98563 0.0
C1251 C 0.47117 0.64668 0.98781 0.0
H1252 H 0.36892 0.7264 0.85169 0.0
H1253 H 0.30588 0.7328 0.88869 0.0
H1254 H 0.35451 0.69544 0.92867 0.0
H1255 H 0.31771 0.71006 0.92702 0.0
H1256 H 0.48732 0.65708 0.03799 0.0
H1257 H 0.48254 0.59303 0.07319 0.0
H1258 H 0.46249 0.6037 0.99111 0.0
H1259 H 0.4675 0.57953 0.03048 0.0
Tb1260 Tb 0.64865 0.17069 0.67998 0.0
C1261 C 0.70431 0.1648 0.77139 0.0
C1262 C 0.69495 0.17688 0.81658 0.0
C1263 C 0.72062 0.14761 0.81109 0.0
C1264 C 0.69261 0.17816 0.78804 0.0
C1265 C 0.71851 0.14932 0.78267 0.0
C1266 C 0.70906 0.16159 0.828 0.0
C1267 C 0.72883 0.13967 0.73699 0.0
N1268 N 0.70228 0.16749 0.74409 0.0
C1269 C 0.71469 0.15539 0.72683 0.0
C1270 C 0.73066 0.13652 0.76505 0.0
Tb1271 Tb 0.6803 0.19522 0.72935 0.0
N1272 N 0.6797 0.19312 0.77616 0.0
C1273 C 0.66892 0.20779 0.79198 0.0
C1274 C 0.68353 0.19143 0.83274 0.0
C1275 C 0.67026 0.20683 0.82038 0.0
H1276 H 0.71349 0.15734 0.70512 0.0
H1277 H 0.66152 0.21834 0.8327 0.0
H1278 H 0.71147 0.16077 0.84983 0.0
H1279 H 0.73829 0.12999 0.72312 0.0
H1280 H 0.65918 0.22025 0.7826 0.0
H1281 H 0.66466 0.24202 0.61763 0.0
H1282 H 0.6852 0.19114 0.85471 0.0
H1283 H 0.60206 0.14604 0.69625 0.0
H1284 H 0.67422 0.21147 0.64676 0.0
H1285 H 0.56304 0.15155 0.68851 0.0
H1286 H 0.73154 0.13593 0.82016 0.0
H1287 H 0.62632 0.24963 0.60726 0.0
H1288 H 0.5873 0.23966 0.61309 0.0
H1289 H 0.74171 0.12442 0.77288 0.0
H1290 H 0.55971 0.21531 0.6326 0.0
N1291 N 0.64173 0.20065 0.65299 0.0
C1292 C 0.65745 0.21388 0.64222 0.0
C1293 C 0.63045 0.23582 0.6199 0.0
C1294 C 0.61439 0.22224 0.63057 0.0
C1295 C 0.65207 0.23157 0.62571 0.0
C1296 C 0.62062 0.20447 0.647 0.0
H1297 H 0.55052 0.18259 0.66075 0.0
N1298 N 0.61176 0.17417 0.67387 0.0
C1299 C 0.57467 0.16281 0.67989 0.0
C1300 C 0.60512 0.19086 0.65795 0.0
C1301 C 0.59679 0.15983 0.68434 0.0
C1302 C 0.56769 0.18029 0.66417 0.0
C1303 C 0.58293 0.1945 0.65282 0.0
O1304 O 0.63228 0.14664 0.65752 0.0
O1305 O 0.67123 0.16338 0.7134 0.0
O1306 O 0.70142 0.19413 0.69164 0.0
O1307 O 0.68184 0.17425 0.66045 0.0
O1308 O 0.64667 0.14202 0.70771 0.0
O1309 O 0.66524 0.15451 0.64871 0.0
O1310 O 0.71163 0.2074 0.72205 0.0
O1311 O 0.65619 0.20235 0.69707 0.0
O1312 O 0.62802 0.1742 0.71641 0.0
O1313 O 0.65149 0.18458 0.75162 0.0
O1314 O 0.65563 0.22144 0.73023 0.0
O1315 O 0.68859 0.22604 0.74437 0.0
C1316 C 0.66299 0.14551 0.72346 0.0
C1317 C 0.64234 0.1463 0.61143 0.0
C1318 C 0.62308 0.13238 0.57158 0.0
C1319 C 0.62955 0.13028 0.59904 0.0
C1320 C 0.62969 0.15084 0.55676 0.0
C1321 C 0.64875 0.16454 0.59617 0.0
C1322 C 0.64245 0.16673 0.569 0.0
C1323 C 0.70024 0.18424 0.66756 0.0
C1324 C 0.64806 0.14423 0.64052 0.0
C1325 C 0.57666 0.21219 0.63664 0.0
C1326 C 0.59236 0.22604 0.62552 0.0
C1327 C 0.64505 0.21805 0.70812 0.0
C1328 C 0.72526 0.22798 0.75896 0.0
C1329 C 0.7199 0.23868 0.7833 0.0
C1330 C 0.73577 0.24276 0.80325 0.0
C1331 C 0.7571 0.23594 0.79869 0.0
C1332 C 0.74674 0.22133 0.75488 0.0
C1333 C 0.76248 0.22522 0.77469 0.0
C1334 C 0.63218 0.17891 0.74225 0.0
C1335 C 0.70878 0.22414 0.73752 0.0
H1336 H 0.62473 0.11616 0.61081 0.0
H1337 H 0.6247 0.15319 0.53579 0.0
H1338 H 0.65852 0.17717 0.60524 0.0
H1339 H 0.64735 0.1809 0.55743 0.0
H1340 H 0.7035 0.24424 0.78659 0.0
H1341 H 0.76958 0.23877 0.81379 0.0
H1342 H 0.75141 0.21318 0.73632 0.0
H1343 H 0.77896 0.21998 0.77136 0.0
H1344 H 0.46105 0.25394 0.054 0.0
H1345 H 0.48798 0.28307 0.05725 0.0
H1346 H 0.53586 0.23684 0.0825 0.0
H1347 H 0.50845 0.20799 0.08051 0.0
H1348 H 0.55153 0.26888 0.10362 0.0
H1349 H 0.52779 0.27 0.01107 0.0
H1350 H 0.50201 0.2726 0.9728 0.0
H1351 H 0.48289 0.33577 0.99931 0.0
H1352 H 0.50839 0.33343 0.03795 0.0
H1353 H 0.64384 0.34278 0.07224 0.0
H1354 H 0.61598 0.3143 0.07607 0.0
H1355 H 0.56645 0.36218 0.06625 0.0
H1356 H 0.59431 0.39058 0.06413 0.0
H1357 H 0.55189 0.32955 0.03742 0.0
H1358 H 0.56919 0.32213 0.1358 0.0
H1359 H 0.59188 0.31595 0.1765 0.0
H1360 H 0.62413 0.26377 0.13605 0.0
H1361 H 0.60096 0.26916 0.09551 0.0
C1362 C 0.47706 0.24979 0.06117 0.0
C1363 C 0.48133 0.22779 0.06834 0.0
C1364 C 0.4932 0.26688 0.06235 0.0
C1365 C 0.51542 0.26338 0.06953 0.0
C1366 C 0.51956 0.24136 0.07685 0.0
C1367 C 0.50336 0.22435 0.07594 0.0
C1368 C 0.53395 0.28189 0.06941 0.0
C1369 C 0.55135 0.28177 0.08855 0.0
C1370 C 0.53517 0.29996 0.05067 0.0
C1371 C 0.51983 0.30145 0.02755 0.0
C1372 C 0.518 0.28439 0.00882 0.0
C1373 C 0.50345 0.28582 0.98706 0.0
C1374 C 0.49079 0.30432 0.98366 0.0
C1375 C 0.49268 0.32144 1.002 0.0
C1376 C 0.50719 0.32008 0.02383 0.0
C1377 C 0.6271 0.34774 0.07278 0.0
C1378 C 0.62233 0.37027 0.07012 0.0
C1379 C 0.6106 0.33088 0.07437 0.0
C1380 C 0.58783 0.33491 0.07198 0.0
C1381 C 0.58317 0.35737 0.0686 0.0
C1382 C 0.5996 0.37416 0.06775 0.0
C1383 C 0.56937 0.31639 0.07159 0.0
C1384 C 0.552 0.31655 0.05233 0.0
C1385 C 0.56831 0.29813 0.08985 0.0
C1386 C 0.58369 0.29627 0.11263 0.0
C1387 C 0.5813 0.30951 0.13554 0.0
C1388 C 0.594 0.30593 0.15869 0.0
C1389 C 0.60946 0.28949 0.15885 0.0
C1390 C 0.61217 0.2765 0.13589 0.0
C1391 C 0.59916 0.2797 0.11292 0.0
H1392 H 0.61939 0.28686 0.17673 0.0
H1393 H 0.47957 0.30544 0.96677 0.0
H1394 H 0.6428 0.75599 0.32412 0.0
H1395 H 0.61522 0.78414 0.32587 0.0
H1396 H 0.56632 0.73705 0.30613 0.0
H1397 H 0.59453 0.70924 0.3025 0.0
H1398 H 0.54861 0.76803 0.28673 0.0
H1399 H 0.57768 0.77498 0.37743 0.0
H1400 H 0.60554 0.78018 0.41294 0.0
H1401 H 0.62582 0.83947 0.3745 0.0
H1402 H 0.59791 0.83477 0.33898 0.0
H1403 H 0.45905 0.84079 0.31916 0.0
H1404 H 0.48776 0.81345 0.32113 0.0
H1405 H 0.53568 0.86343 0.31164 0.0
H1406 H 0.5067 0.89071 0.3083 0.0
H1407 H 0.55363 0.83195 0.34665 0.0
H1408 H 0.52069 0.82597 0.25909 0.0
H1409 H 0.49118 0.82089 0.22589 0.0
H1410 H 0.47692 0.75845 0.2605 0.0
H1411 H 0.50613 0.76331 0.29425 0.0
C1412 C 0.62615 0.75121 0.32088 0.0
C1413 C 0.62173 0.72915 0.31447 0.0
C1414 C 0.60971 0.76784 0.32205 0.0
C1415 C 0.58714 0.764 0.31708 0.0
C1416 C 0.58281 0.74184 0.3105 0.0
C1417 C 0.59937 0.72529 0.30886 0.0
C1418 C 0.56871 0.78254 0.31757 0.0
C1419 C 0.54998 0.78162 0.30045 0.0
C1420 C 0.56903 0.80163 0.33443 0.0
C1421 C 0.58594 0.80438 0.35543 0.0
C1422 C 0.58819 0.78905 0.3765 0.0
C1423 C 0.60395 0.79192 0.39662 0.0
C1424 C 0.61757 0.81002 0.39583 0.0
C1425 C 0.61532 0.82541 0.37503 0.0
C1426 C 0.59948 0.82271 0.35497 0.0
C1427 C 0.47566 0.84638 0.31826 0.0
C1428 C 0.47956 0.86908 0.31535 0.0
C1429 C 0.49256 0.83024 0.31899 0.0
C1430 C 0.51505 0.83525 0.31662 0.0
C1431 C 0.5191 0.85799 0.31394 0.0
C1432 C 0.50207 0.87413 0.31256 0.0
C1433 C 0.53365 0.81711 0.31616 0.0
C1434 C 0.55234 0.81819 0.33314 0.0
C1435 C 0.53312 0.79803 0.29948 0.0
C1436 C 0.51545 0.79511 0.27941 0.0
C1437 C 0.51113 0.81124 0.25981 0.0
C1438 C 0.49447 0.80839 0.24086 0.0
C1439 C 0.48214 0.78939 0.24113 0.0
C1440 C 0.48645 0.77318 0.26035 0.0
C1441 C 0.50306 0.77598 0.2794 0.0
H1442 H 0.46928 0.78719 0.22642 0.0
H1443 H 0.62978 0.81218 0.4114 0.0
H1444 H 0.09532 0.89257 0.57585 0.0
H1445 H 0.0675 0.86437 0.57821 0.0
H1446 H 0.11468 0.8168 0.5557 0.0
H1447 H 0.14223 0.84556 0.55196 0.0
H1448 H 0.0832 0.7991 0.53653 0.0
H1449 H 0.07806 0.82474 0.62872 0.0
H1450 H 0.07333 0.85049 0.66651 0.0
H1451 H 1.01372 0.87249 0.63124 0.0
H1452 H 1.0178 0.84647 0.59362 0.0
H1453 H 1.01073 0.70813 0.56987 0.0
H1454 H 1.03819 0.73699 0.57176 0.0
H1455 H 0.98834 0.78467 0.56309 0.0
H1456 H 0.96098 0.75555 0.55959 0.0
H1457 H 1.02047 0.80183 0.59909 0.0
H1458 H 1.02469 0.77128 0.51019 0.0
H1459 H 1.02904 0.74256 0.47602 0.0
H1460 H 0.09209 0.72799 0.50782 0.0
H1461 H 0.08798 0.75642 0.54251 0.0
C1462 C 0.10026 0.87603 0.57235 0.0
C1463 C 0.12231 0.87216 0.56533 0.0
C1464 C 0.0838 0.85926 0.57373 0.0
C1465 C 0.08775 0.83689 0.56808 0.0
C1466 C 0.10985 0.8331 0.5607 0.0
C1467 C 0.12627 0.84998 0.55902 0.0
C1468 C 0.06929 0.8182 0.56863 0.0
C1469 C 0.06986 0.79997 0.5508 0.0
C1470 C 0.05057 0.81783 0.58627 0.0
C1471 C 1.04838 0.83391 0.60823 0.0
C1472 C 0.06404 0.8352 0.62895 0.0
C1473 C 0.06145 0.84978 0.65035 0.0
C1474 C 1.04339 0.8633 0.65109 0.0
C1475 C 1.02775 0.86209 0.63057 0.0
C1476 C 1.03012 0.84734 0.6093 0.0
C1477 C 1.0052 0.72471 0.5692 0.0
C1478 C 0.9825 0.7285 0.56649 0.0
C1479 C 1.0214 0.7417 0.56988 0.0
C1480 C 1.01646 0.76418 0.56774 0.0
C1481 C 0.99373 0.76811 0.56526 0.0
C1482 C 0.97754 0.751 0.56383 0.0
C1483 C 1.03465 0.78291 0.56726 0.0
C1484 C 1.03394 0.80107 0.58498 0.0
C1485 C 0.05341 0.78299 0.54986 0.0
C1486 C 0.05592 0.76583 0.52916 0.0
C1487 C 1.0394 0.76182 0.51008 0.0
C1488 C 1.04184 0.74561 0.49058 0.0
C1489 C 0.06081 0.73342 0.48979 0.0
C1490 C 0.07739 0.73742 0.50849 0.0
C1491 C 0.07502 0.75359 0.52807 0.0
H1492 H 0.06268 0.7209 0.47465 0.0
H1493 H 1.04146 0.87461 0.66765 0.0
H1494 H 0.95885 0.34123 0.81961 0.0
H1495 H 0.98687 0.31342 0.82165 0.0
H1496 H 1.03556 0.36188 0.80632 0.0
H1497 H 1.00706 0.38945 0.8028 0.0
H1498 H 0.05382 0.33102 0.78543 0.0
H1499 H 1.02326 0.32321 0.87491 0.0
H1500 H 0.99479 0.31773 0.90961 0.0
H1501 H 0.97614 0.25801 0.87186 0.0
H1502 H 1.00462 0.26305 0.83707 0.0
H1503 H 0.14343 0.25823 0.81874 0.0
H1504 H 0.11456 0.28543 0.82043 0.0
H1505 H 0.06693 0.23533 0.81036 0.0
H1506 H 0.09607 0.2082 0.80759 0.0
H1507 H 1.04847 0.26629 0.84502 0.0
H1508 H 0.08181 0.27353 0.75772 0.0
H1509 H 0.11212 0.27857 0.72559 0.0
H1510 H 0.12687 0.34011 0.76141 0.0
H1511 H 0.09679 0.33531 0.79402 0.0
C1512 C 0.97554 0.34639 0.81759 0.0
C1513 C 0.97981 0.36879 0.81264 0.0
C1514 C 0.99219 0.32996 0.81881 0.0
C1515 C 1.01482 0.33429 0.81512 0.0
C1516 C 1.01902 0.35674 0.80974 0.0
C1517 C 1.00227 0.37313 0.80819 0.0
C1518 C 1.03344 0.31595 0.81581 0.0
C1519 C 0.05235 0.31722 0.79902 0.0
C1520 C 1.03303 0.29667 0.8326 0.0
C1521 C 1.01587 0.29363 0.85326 0.0
C1522 C 1.01299 0.30898 0.87396 0.0
C1523 C 0.99688 0.30595 0.89363 0.0
C1524 C 0.98356 0.28764 0.8928 0.0
C1525 C 0.98643 0.27222 0.87242 0.0
C1526 C 1.0026 0.27511 0.85278 0.0
C1527 C 0.12684 0.25259 0.81772 0.0
C1528 C 0.12303 0.22991 0.81482 0.0
C1529 C 0.10985 0.26865 0.81825 0.0
C1530 C 0.08738 0.26356 0.81561 0.0
C1531 C 0.08346 0.24083 0.81289 0.0
C1532 C 0.10057 0.22478 0.81178 0.0
C1533 C 0.06868 0.2816 0.8149 0.0
C1534 C 1.04983 0.28021 0.83156 0.0
C1535 C 0.06928 0.30086 0.79825 0.0
C1536 C 0.08717 0.30397 0.77848 0.0
C1537 C 0.09159 0.28809 0.75885 0.0
C1538 C 0.10872 0.2909 0.74054 0.0
C1539 C 0.12146 0.30962 0.74151 0.0
C1540 C 0.11702 0.32561 0.76072 0.0
C1541 C 0.09991 0.32286 0.77911 0.0
H1542 H 0.13472 0.31177 0.72733 0.0
H1543 H 0.97107 0.28535 0.90803 0.0
H1544 H 0.64204 0.84427 0.94188 0.0
H1545 H 0.61425 0.81585 0.9372 0.0
H1546 H 0.56469 0.86286 0.95176 0.0
H1547 H 0.59244 0.89125 0.95491 0.0
H1548 H 0.54999 0.82954 0.97766 0.0
H1549 H 0.57024 0.82905 0.88281 0.0
H1550 H 0.593 0.82617 0.84175 0.0
H1551 H 0.61997 0.76682 0.87224 0.0
H1552 H 0.59671 0.76902 0.9131 0.0
H1553 H 0.45969 0.75427 0.95752 0.0
H1554 H 0.48638 0.78368 0.95451 0.0
H1555 H 0.53508 0.73802 0.93093 0.0
H1556 H 0.50792 0.70889 0.93259 0.0
H1557 H 0.55029 0.77096 0.90945 0.0
H1558 H 0.52505 0.76963 1.00207 0.0
H1559 H 0.49768 0.77118 0.03863 0.0
H1560 H 0.47928 0.83486 0.01221 0.0
H1561 H 0.5063 0.83354 0.97522 0.0
C1562 C 0.62528 0.84913 0.94224 0.0
C1563 C 0.62041 0.87141 0.94664 0.0
C1564 C 0.60883 0.83228 0.94018 0.0
C1565 C 0.5861 0.83608 0.94361 0.0
C1566 C 0.58138 0.85827 0.94861 0.0
C1567 C 0.59773 0.87505 0.95004 0.0
C1568 C 0.56772 0.81751 0.94321 0.0
C1569 C 0.55027 0.817 0.96234 0.0
C1570 C 0.56681 0.79995 0.92417 0.0
C1571 C 0.58202 0.79935 0.90105 0.0
C1572 C 0.58121 0.81552 0.88086 0.0
C1573 C 0.59403 0.8139 0.85753 0.0
C1574 C 0.60801 0.79636 0.85443 0.0
C1575 C 0.60914 0.78039 0.87466 0.0
C1576 C 0.59604 0.78174 0.89782 0.0
C1577 C 0.47582 0.75033 0.95062 0.0
C1578 C 0.48044 0.72841 0.94384 0.0
C1579 C 0.4918 0.76756 0.94966 0.0
C1580 C 0.51417 0.76425 0.94318 0.0
C1581 C 0.51864 0.74234 0.93608 0.0
C1582 C 0.50259 0.7252 0.93674 0.0
C1583 C 0.53255 0.78283 0.94397 0.0
C1584 C 0.55003 0.78337 0.92495 0.0
C1585 C 0.53347 0.80038 0.9632 0.0
C1586 C 0.51756 0.80141 0.98573 0.0
C1587 C 0.51512 0.78394 1.00402 0.0
C1588 C 0.49965 0.78476 0.0248 0.0
C1589 C 0.48672 0.80309 0.02771 0.0
C1590 C 0.48928 0.82066 0.0099 0.0
C1591 C 0.50467 0.81988 0.98903 0.0
H1592 H 0.47476 0.80371 0.04379 0.0
H1593 H 0.61795 0.79516 0.83635 0.0
H1594 H 0.50723 0.39333 0.69719 0.0
H1595 H 0.53643 0.36651 0.69394 0.0
H1596 H 0.48979 0.31523 0.70306 0.0
H1597 H 0.46079 0.34205 0.70554 0.0
H1598 H 0.52074 0.29906 0.72848 0.0
H1599 H 0.53241 0.32712 0.63469 0.0
H1600 H 0.54159 0.35323 0.59813 0.0
H1601 H 0.59418 0.37792 0.64616 0.0
H1602 H 0.58579 0.35136 0.68252 0.0
H1603 H 0.59914 0.21153 0.71111 0.0
H1604 H 0.56955 0.23771 0.70736 0.0
H1605 H 0.61574 0.28816 0.68977 0.0
H1606 H 0.64494 0.26146 0.6914 0.0
H1607 H 0.58499 0.30492 0.66885 0.0
H1608 H 0.57875 0.27419 0.75805 0.0
H1609 H 0.575 0.24463 0.7918 0.0
H1610 H 0.51424 0.22611 0.75622 0.0
H1611 H 0.51779 0.25537 0.72199 0.0
C1612 C 0.50273 0.37642 0.6969 0.0
C1613 C 0.48037 0.37082 0.69976 0.0
C1614 C 0.52002 0.36048 0.69548 0.0
C1615 C 0.5166 0.3375 0.69769 0.0
C1616 C 0.49426 0.33211 0.70098 0.0
C1617 C 0.47709 0.34795 0.70203 0.0
C1618 C 0.53547 0.31945 0.69783 0.0
C1619 C 0.53451 0.3006 0.71494 0.0
C1620 C 0.55483 0.32013 0.68151 0.0
C1621 C 0.55828 0.33757 0.66137 0.0
C1622 C 0.54573 0.33834 0.63755 0.0
C1623 C 0.55094 0.35303 0.61677 0.0
C1624 C 0.56841 0.36727 0.61987 0.0
C1625 C 0.58066 0.36689 0.64379 0.0
C1626 C 0.57578 0.35194 0.6644 0.0
C1627 C 0.60317 0.22797 0.70523 0.0
C1628 C 0.6253 0.23321 0.69995 0.0
C1629 C 0.58579 0.24368 0.70399 0.0
C1630 C 0.5891 0.26638 0.69898 0.0
C1631 C 0.61129 0.27147 0.69365 0.0
C1632 C 0.62854 0.25569 0.69436 0.0
C1633 C 0.57029 0.28448 0.69937 0.0
C1634 C 0.57125 0.30333 0.68244 0.0
C1635 C 0.5512 0.28398 0.71632 0.0
C1636 C 0.54864 0.26682 0.7373 0.0
C1637 C 0.5646 0.26378 0.75741 0.0
C1638 C 0.56253 0.24707 0.77659 0.0
C1639 C 0.54442 0.23346 0.7761 0.0
C1640 C 0.52828 0.23663 0.75653 0.0
C1641 C 0.53031 0.25328 0.73723 0.0
H1642 H 0.54289 0.22048 0.79091 0.0
H1643 H 0.57246 0.37859 0.60372 0.0
H1644 H 0.95988 0.25804 0.44639 0.0
H1645 H 0.98747 0.28683 0.44266 0.0
H1646 H 1.03751 0.23911 0.44885 0.0
H1647 H 1.0099 0.21043 0.45095 0.0
H1648 H 0.05172 0.27107 0.47925 0.0
H1649 H 1.03615 0.28363 0.37906 0.0
H1650 H 1.01315 0.29169 0.33914 0.0
H1651 H 0.97719 0.33759 0.38617 0.0
H1652 H 1.00055 0.33028 0.42606 0.0
H1653 H 0.14231 0.34746 0.46732 0.0
H1654 H 0.11525 0.31851 0.46415 0.0
H1655 H 0.0687 0.36439 0.43418 0.0
H1656 H 0.09633 0.39306 0.43632 0.0
H1657 H 0.05214 0.33301 0.415 0.0
H1658 H 0.06901 0.3261 0.51193 0.0
H1659 H 0.09035 0.32022 0.55382 0.0
H1660 H 0.12148 0.26563 0.51724 0.0
H1661 H 0.09944 0.27056 0.47563 0.0
C1662 C 0.97665 0.25324 0.44509 0.0
C1663 C 0.98164 0.23069 0.44673 0.0
C1664 C 0.993 0.27026 0.4435 0.0
C1665 C 1.01583 0.26633 0.44487 0.0
C1666 C 1.02071 0.24384 0.44726 0.0
C1667 C 1.00443 0.22691 0.44811 0.0
C1668 C 1.03422 0.28492 0.44561 0.0
C1669 C 0.05161 0.28436 0.46472 0.0
C1670 C 1.03529 0.30357 0.42796 0.0
C1671 C 1.01972 0.30612 0.40552 0.0
C1672 C 1.02314 0.29522 0.38091 0.0
C1673 C 1.01029 0.2999 0.35821 0.0
C1674 C 0.99372 0.31514 0.36012 0.0
C1675 C 0.99002 0.32578 0.38473 0.0
C1676 C 1.00313 0.32147 0.40732 0.0
C1677 C 0.12654 0.35153 0.45924 0.0
C1678 C 0.1228 0.37335 0.45079 0.0
C1679 C 0.11026 0.33455 0.4581 0.0
C1680 C 0.08835 0.33794 0.44944 0.0
C1681 C 0.08472 0.35986 0.44095 0.0
C1682 C 0.10107 0.37679 0.44192 0.0
C1683 C 0.06976 0.31939 0.44887 0.0
C1684 C 0.05236 0.31985 0.42968 0.0
C1685 C 0.06841 0.30089 0.46692 0.0
C1686 C 0.08296 0.29895 0.4906 0.0
C1687 C 0.08062 0.31303 0.51274 0.0
C1688 C 0.09269 0.30975 0.53649 0.0
C1689 C 0.1075 0.29276 0.53805 0.0
C1690 C 0.11009 0.27885 0.51595 0.0
C1691 C 0.09768 0.28175 0.49239 0.0
H1692 H 0.11686 0.29028 0.55646 0.0
H1693 H 0.98369 0.31864 0.34256 0.0
H1694 H 0.09448 0.71141 0.19005 0.0
H1695 H 0.06622 0.73929 0.18622 0.0
H1696 H 0.11347 0.78834 0.20399 0.0
H1697 H 0.14174 0.76062 0.20594 0.0
H1698 H 0.07942 0.80079 0.2315 0.0
H1699 H 0.07988 0.78645 0.13388 0.0
H1700 H 0.07616 0.76652 0.0907 0.0
H1701 H 1.01664 0.7381 0.11899 0.0
H1702 H 1.01972 0.75843 0.16202 0.0
H1703 H 1.00638 0.89298 0.21572 0.0
H1704 H 1.03518 0.86587 0.21252 0.0
H1705 H 0.98918 0.81969 0.18174 0.0
H1706 H 0.96064 0.84726 0.18405 0.0
H1707 H 1.02249 0.8053 0.16085 0.0
H1708 H 1.01811 0.82412 0.25416 0.0
H1709 H 1.01874 0.847 0.29515 0.0
H1710 H 0.08446 0.86537 0.27805 0.0
H1711 H 0.08405 0.84307 0.23652 0.0
C1712 C 0.09944 0.72815 0.19124 0.0
C1713 C 0.12179 0.7329 0.19606 0.0
C1714 C 0.08268 0.74462 0.18972 0.0
C1715 C 0.08658 0.7672 0.19436 0.0
C1716 C 0.1088 0.77178 0.19987 0.0
C1717 C 0.12552 0.75545 0.20063 0.0
C1718 C 0.06811 0.78553 0.19486 0.0
C1719 C 0.06728 0.80165 0.21559 0.0
C1720 C 0.05088 0.78767 0.17533 0.0
C1721 C 1.05018 0.77367 0.15117 0.0
C1722 C 0.06615 0.77573 0.13098 0.0
C1723 C 0.06399 0.76463 0.10641 0.0
C1724 C 1.04614 0.7511 0.10208 0.0
C1725 C 1.03043 0.74861 0.12235 0.0
C1726 C 1.03231 0.76002 0.14675 0.0
C1727 C 1.00227 0.87732 0.20738 0.0
C1728 C 0.9805 0.87357 0.19887 0.0
C1729 C 1.01911 0.8611 0.20615 0.0
C1730 C 1.01551 0.8393 0.19739 0.0
C1731 C 0.99371 0.83568 0.18865 0.0
C1732 C 0.97692 0.85197 0.18971 0.0
C1733 C 1.03376 0.82071 0.19741 0.0
C1734 C 1.03456 0.80452 0.17685 0.0
C1735 C 0.05074 0.81834 0.21742 0.0
C1736 C 0.05095 0.83212 0.24202 0.0
C1737 C 1.03262 0.83323 0.25897 0.0
C1738 C 1.03294 0.8461 0.2823 0.0
C1739 C 0.0516 0.85769 0.28914 0.0
C1740 C 0.06998 0.85646 0.27265 0.0
C1741 C 0.0697 0.84375 0.24917 0.0
H1742 H 0.05186 0.86753 0.30731 0.0
H1743 H 1.04454 0.74245 0.08307 0.0
H1744 H 0.24231 0.19315 0.83967 0.0
H1745 H 0.27385 0.19422 0.8699 0.0
H1746 H 0.23484 0.16981 0.93594 0.0
H1747 H 0.20302 0.16932 0.90568 0.0
H1748 H 0.2615 0.19378 0.96069 0.0
H1749 H 0.28078 0.14066 0.89441 0.0
H1750 H 0.28744 0.12616 0.84845 0.0
H1751 H 0.33562 0.17522 0.83418 0.0
H1752 H 0.32904 0.19019 0.87993 0.0
H1753 H 0.35267 0.1733 0.05074 0.0
H1754 H 0.32176 0.17033 0.01961 0.0
H1755 H 0.3605 0.19693 0.95468 0.0
H1756 H 0.39152 0.19964 0.98598 0.0
H1757 H 0.33418 0.17165 0.92925 0.0
H1758 H 0.31507 0.22476 0.99518 0.0
H1759 H 0.30776 0.2402 0.04048 0.0
H1760 H 0.25914 0.19166 0.05511 0.0
H1761 H 0.26636 0.17573 0.01005 0.0
C1762 C 0.24015 0.18788 0.86058 0.0
C1763 C 0.21919 0.18104 0.86929 0.0
C1764 C 0.25876 0.18828 0.87832 0.0
C1765 C 0.25808 0.18162 0.90623 0.0
C1766 C 0.237 0.17507 0.91503 0.0
C1767 C 0.21833 0.17471 0.89726 0.0
C1768 C 0.27869 0.18176 0.92587 0.0
C1769 C 0.27719 0.18852 0.9535 0.0
C1770 C 0.30022 0.17564 0.91791 0.0
C1771 C 0.30425 0.16668 0.89047 0.0
C1772 C 0.2927 0.14843 0.88139 0.0
C1773 C 0.29647 0.14012 0.85539 0.0
C1774 C 0.3119 0.1498 0.83838 0.0
C1775 C 0.32364 0.16777 0.84736 0.0
C1776 C 0.3199 0.17617 0.87333 0.0
C1777 C 0.35499 0.17826 0.02975 0.0
C1778 C 0.37563 0.18637 0.02169 0.0
C1779 C 0.33674 0.17685 0.01155 0.0
C1780 C 0.33746 0.18386 0.9838 0.0
C1781 C 0.35833 0.19136 0.97546 0.0
C1782 C 0.37658 0.19286 0.99378 0.0
C1783 C 0.31693 0.18358 0.96407 0.0
C1784 C 0.31847 0.17683 0.93645 0.0
C1785 C 0.29542 0.18973 0.97203 0.0
C1786 C 0.29141 0.19893 0.99935 0.0
C1787 C 0.30295 0.21726 0.00816 0.0
C1788 C 0.29878 0.22614 0.03376 0.0
C1789 C 0.28297 0.21694 0.05063 0.0
C1790 C 0.27137 0.19878 0.042 0.0
C1791 C 0.27549 0.18982 0.01644 0.0
H1792 H 0.27973 0.22387 0.07041 0.0
H1793 H 0.3148 0.14335 0.81826 0.0
H1794 H 0.64309 0.48252 0.10594 0.0
H1795 H 0.6421 0.51336 0.13672 0.0
H1796 H 0.7015 0.49201 0.17387 0.0
H1797 H 0.70105 0.45989 0.14471 0.0
H1798 H 0.69039 0.51275 0.21023 0.0
H1799 H 0.68527 0.54605 0.12274 0.0
H1800 H 0.67112 0.5537 0.07664 0.0
H1801 H 0.6092 0.56969 0.11057 0.0
H1802 H 0.62292 0.56183 0.15679 0.0
H1803 H 0.6694 0.59817 0.30566 0.0
H1804 H 0.67091 0.56789 0.27446 0.0
H1805 H 0.67007 0.61213 0.20643 0.0
H1806 H 0.66513 0.64231 0.23829 0.0
H1807 H 0.6562 0.5817 0.1831 0.0
H1808 H 0.68098 0.51529 0.26242 0.0
H1809 H 0.70451 0.51184 0.30285 0.0
H1810 H 0.74089 0.56771 0.27715 0.0
H1811 H 0.71779 0.57131 0.23641 0.0
C1812 C 0.65608 0.48419 0.12061 0.0
C1813 C 0.67218 0.46782 0.12189 0.0
C1814 C 0.65578 0.50265 0.13848 0.0
C1815 C 0.6722 0.50701 0.15834 0.0
C1816 C 0.68828 0.49042 0.15957 0.0
C1817 C 0.68813 0.47152 0.14233 0.0
C1818 C 0.67248 0.52791 0.17769 0.0
C1819 C 0.68253 0.52756 0.20387 0.0
C1820 C 0.66346 0.54873 0.17085 0.0
C1821 C 0.65506 0.55318 0.14316 0.0
C1822 C 0.66861 0.55108 0.12032 0.0
C1823 C 0.66066 0.55545 0.09418 0.0
C1824 C 0.63926 0.56213 0.09067 0.0
C1825 C 0.62576 0.56448 0.11331 0.0
C1826 C 0.63362 0.56009 0.13948 0.0
C1827 C 0.67015 0.60183 0.28406 0.0
C1828 C 0.66894 0.62387 0.27561 0.0
C1829 C 0.67124 0.58392 0.26556 0.0
C1830 C 0.67177 0.58631 0.23663 0.0
C1831 C 0.67017 0.60846 0.22801 0.0
C1832 C 0.66817 0.62643 0.24673 0.0
C1833 C 0.67295 0.56614 0.21621 0.0
C1834 C 0.66348 0.56671 0.18974 0.0
C1835 C 0.68347 0.54589 0.22219 0.0
C1836 C 0.69748 0.54369 0.24654 0.0
C1837 C 0.69405 0.52678 0.26536 0.0
C1838 C 0.70731 0.52481 0.28833 0.0
C1839 C 0.72414 0.53958 0.29261 0.0
C1840 C 0.72782 0.55631 0.27386 0.0
C1841 C 0.71464 0.55832 0.25083 0.0
H1842 H 0.73436 0.53805 0.31043 0.0
H1843 H 0.63314 0.56551 0.07042 0.0
H1844 H 0.39956 0.93889 0.39958 0.0
H1845 H 0.3679 0.93931 0.42977 0.0
H1846 H 0.33287 0.89966 0.37301 0.0
H1847 H 0.36449 0.89963 0.34254 0.0
H1848 H 0.30327 0.92281 0.39213 0.0
H1849 H 0.35546 0.88471 0.44597 0.0
H1850 H 0.39033 0.87923 0.46946 0.0
H1851 H 0.37929 0.93587 0.51766 0.0
H1852 H 0.34446 0.94183 0.49422 0.0
H1853 H 0.21079 0.90397 0.48351 0.0
H1854 H 0.24112 0.90726 0.45181 0.0
H1855 H 0.28097 0.93301 0.5156 0.0
H1856 H 0.25034 0.93018 0.54713 0.0
H1857 H 0.30897 0.91615 0.49231 0.0
H1858 H 0.26085 0.95837 0.43076 0.0
H1859 H 0.23024 0.96672 0.4 0.0
H1860 H 0.23425 0.90336 0.36531 0.0
H1861 H 0.2659 0.89525 0.39425 0.0
C1862 C 0.38527 0.93006 0.39326 0.0
C1863 C 0.38561 0.9191 0.36776 0.0
C1864 C 0.36668 0.93013 0.41114 0.0
C1865 C 0.34686 0.91914 0.40513 0.0
C1866 C 0.34718 0.9084 0.37944 0.0
C1867 C 0.36579 0.9083 0.36158 0.0
C1868 C 0.32613 0.91914 0.42468 0.0
C1869 C 0.30485 0.92111 0.41404 0.0
C1870 C 0.32667 0.91744 0.45392 0.0
C1871 C 0.34747 0.91383 0.46816 0.0
C1872 C 0.36053 0.89606 0.46148 0.0
C1873 C 0.38028 0.89286 0.47479 0.0
C1874 C 0.38705 0.90722 0.49499 0.0
C1875 C 0.37404 0.92477 0.50198 0.0
C1876 C 0.35429 0.92806 0.4887 0.0
C1877 C 0.2257 0.91111 0.49086 0.0
C1878 C 0.22685 0.91755 0.51864 0.0
C1879 C 0.24378 0.91278 0.47219 0.0
C1880 C 0.26489 0.92025 0.47973 0.0
C1881 C 0.26586 0.92683 0.50761 0.0
C1882 C 0.24771 0.92546 0.52618 0.0
C1883 C 0.28571 0.9203 0.45991 0.0
C1884 C 0.30717 0.91811 0.47049 0.0
C1885 C 0.28537 0.92193 0.43051 0.0
C1886 C 0.26521 0.92596 0.41527 0.0
C1887 C 0.25496 0.94612 0.41688 0.0
C1888 C 0.2376 0.95089 0.39957 0.0
C1889 C 0.22994 0.9354 0.3813 0.0
C1890 C 0.24002 0.91528 0.3797 0.0
C1891 C 0.25782 0.91068 0.39628 0.0
H1892 H 0.21638 0.9391 0.36813 0.0
H1893 H 0.40234 0.90473 0.50526 0.0
H1894 H 0.90425 0.6411 0.64237 0.0
H1895 H 0.90351 0.60912 0.67204 0.0
H1896 H 0.95913 0.58383 0.63047 0.0
H1897 H 0.95897 0.61537 0.5997 0.0
H1898 H 0.94256 0.55002 0.64464 0.0
H1899 H 0.95196 0.6081 0.70753 0.0
H1900 H 0.94353 0.64256 0.73022 0.0
H1901 H 0.8814 0.61752 0.75419 0.0
H1902 H 0.88937 0.58299 0.73136 0.0
H1903 H 0.96484 0.46781 0.7489 0.0
H1904 H 0.96318 0.49812 0.71704 0.0
H1905 H 0.90394 0.51889 0.75426 0.0
H1906 H 0.90654 0.48878 0.78717 0.0
H1907 H 0.92148 0.55438 0.7417 0.0
H1908 H 0.91646 0.49339 0.68084 0.0
H1909 H 0.92841 0.45973 0.65868 0.0
H1910 H 0.98625 0.49135 0.63093 0.0
H1911 H 0.97526 0.52494 0.65374 0.0
C1912 C 0.91652 0.6289 0.63933 0.0
C1913 C 0.93177 0.63189 0.61783 0.0
C1914 C 0.91629 0.61015 0.65706 0.0
C1915 C 0.93168 0.59298 0.65536 0.0
C1916 C 0.94681 0.59595 0.63359 0.0
C1917 C 0.94681 0.61456 0.61556 0.0
C1918 C 0.9319 0.57228 0.67528 0.0
C1919 C 0.93818 0.55144 0.66593 0.0
C1920 C 0.92599 0.57243 0.70369 0.0
C1921 C 0.92117 0.59307 0.71749 0.0
C1922 C 0.93646 0.61 0.71753 0.0
C1923 C 0.93176 0.62953 0.73041 0.0
C1924 C 0.91191 0.63225 0.74357 0.0
C1925 C 0.89675 0.61541 0.74394 0.0
C1926 C 0.90134 0.59585 0.73105 0.0
C1927 C 0.95061 0.47782 0.74953 0.0
C1928 C 0.93457 0.47328 0.7697 0.0
C1929 C 0.94975 0.49596 0.73095 0.0
C1930 C 0.93286 0.5116 0.73112 0.0
C1931 C 0.91712 0.50758 0.75194 0.0
C1932 C 0.91816 0.48942 0.77072 0.0
C1933 C 0.93222 0.53214 0.71107 0.0
C1934 C 0.92584 0.55295 0.7204 0.0
C1935 C 0.93849 0.53202 0.68277 0.0
C1936 C 0.94516 0.51165 0.6694 0.0
C1937 C 0.93188 0.4931 0.67036 0.0
C1938 C 0.93852 0.474 0.65779 0.0
C1939 C 0.95818 0.47332 0.64379 0.0
C1940 C 0.97121 0.49178 0.64219 0.0
C1941 C 0.96482 0.51084 0.65499 0.0
H1942 H 0.96322 0.45853 0.634 0.0
H1943 H 0.9083 0.64739 0.75352 0.0
H1944 H 0.71501 0.89427 0.02612 0.0
H1945 H 0.74679 0.89751 0.05618 0.0
H1946 H 0.77372 0.94598 1.00353 0.0
H1947 H 0.74238 0.94221 0.97265 0.0
H1948 H 0.80694 0.92134 0.01971 0.0
H1949 H 0.75418 0.95647 0.07602 0.0
H1950 H 0.72422 0.96478 0.10753 0.0
H1951 H 0.73897 0.9086 0.15547 0.0
H1952 H 0.76954 0.90033 0.12509 0.0
H1953 H 0.89918 0.94116 0.11127 0.0
H1954 H 0.8676 0.94187 0.0809 0.0
H1955 H 0.83117 0.90496 0.13988 0.0
H1956 H 0.86239 0.90529 0.17068 0.0
H1957 H 0.80254 0.92574 0.12014 0.0
H1958 H 0.85444 0.88928 0.06435 0.0
H1959 H 0.88892 0.88459 0.03978 0.0
H1960 H 0.87672 0.94236 0.99326 0.0
H1961 H 0.84227 0.94751 0.01778 0.0
C1962 C 0.72705 0.90647 0.02125 0.0
C1963 C 0.72441 0.91894 0.99692 0.0
C1964 C 0.74562 0.90835 0.03899 0.0
C1965 C 0.76328 0.92263 0.03395 0.0
C1966 C 0.76085 0.93497 0.00942 0.0
C1967 C 0.74226 0.93309 0.99156 0.0
C1968 C 0.78432 0.92349 0.05289 0.0
C1969 C 0.80558 0.92252 0.04168 0.0
C1970 C 0.78413 0.92442 0.08223 0.0
C1971 C 0.76383 0.92745 0.09778 0.0
C1972 C 0.7507 0.94555 0.09283 0.0
C1973 C 0.73371 0.95037 0.11062 0.0
C1974 C 0.72939 0.93702 0.13306 0.0
C1975 C 0.74224 0.9189 0.13801 0.0
C1976 C 0.75943 0.91417 0.12058 0.0
C1977 C 0.88455 0.93305 0.118 0.0
C1978 C 0.88429 0.92309 0.14428 0.0
C1979 C 0.86601 0.93321 0.10002 0.0
C1980 C 0.84583 0.92301 0.10658 0.0
C1981 C 0.8457 0.91315 0.13298 0.0
C1982 C 0.86409 0.91324 0.15106 0.0
C1983 C 0.82504 0.92299 0.08715 0.0
C1984 C 0.80385 0.9242 0.09822 0.0
C1985 C 0.82529 0.92193 0.05784 0.0
C1986 C 0.84591 0.9189 0.04309 0.0
C1987 C 0.85918 0.90104 0.04898 0.0
C1988 C 0.87871 0.8983 0.03506 0.0
C1989 C 0.88504 0.9132 0.01503 0.0
C1990 C 0.87182 0.93085 0.00882 0.0
C1991 C 0.85229 0.93368 0.02271 0.0
H1992 H 0.90016 0.91106 1.00427 0.0
H1993 H 0.71622 0.94082 0.14672 0.0
H1994 H 0.4119 0.64603 0.86348 0.0
H1995 H 0.41198 0.61431 0.83353 0.0
H1996 H 0.45647 0.5823 0.88751 0.0
H1997 H 0.45625 0.61406 0.91767 0.0
H1998 H 0.46825 0.56995 0.83751 0.0
H1999 H 0.39766 0.56873 0.87819 0.0
H2000 H 0.36188 0.58328 0.89044 0.0
H2001 H 0.34688 0.5926 0.80572 0.0
H2002 H 0.3827 0.57836 0.79297 0.0
H2003 H 0.45806 0.46353 0.77532 0.0
H2004 H 0.45705 0.49482 0.80569 0.0
H2005 H 0.41109 0.5257 0.7528 0.0
H2006 H 0.41308 0.49469 0.72153 0.0
H2007 H 0.39992 0.5389 0.802 0.0
H2008 H 0.4687 0.53719 0.7605 0.0
H2009 H 0.50399 0.52221 0.74727 0.0
H2010 H 0.52365 0.52043 0.83117 0.0
H2011 H 0.4884 0.5352 0.84496 0.0
C2012 C 0.42182 0.63237 0.86932 0.0
C2013 C 0.43408 0.63359 0.8939 0.0
C2014 C 0.42174 0.61366 0.85182 0.0
C2015 C 0.43403 0.59462 0.85734 0.0
C2016 C 0.4466 0.596 0.88168 0.0
C2017 C 0.44645 0.61462 0.89939 0.0
C2018 C 0.43373 0.57377 0.83825 0.0
C2019 C 0.45313 0.56314 0.83031 0.0
C2020 C 0.41446 0.56419 0.82708 0.0
C2021 C 0.39294 0.57269 0.83464 0.0
C2022 C 0.38678 0.57402 0.86218 0.0
C2023 C 0.36649 0.58219 0.86922 0.0
C2024 C 0.35214 0.58891 0.84888 0.0
C2025 C 0.35803 0.58742 0.82145 0.0
C2026 C 0.37832 0.57929 0.81431 0.0
C2027 C 0.44725 0.47661 0.77014 0.0
C2028 C 0.43497 0.47517 0.74564 0.0
C2029 C 0.44676 0.49507 0.78792 0.0
C2030 C 0.43398 0.51381 0.78271 0.0
C2031 C 0.42119 0.51216 0.75857 0.0
C2032 C 0.42207 0.49382 0.74045 0.0
C2033 C 0.43446 0.53481 0.8015 0.0
C2034 C 0.4151 0.54555 0.80929 0.0
C2035 C 0.45384 0.5446 0.81228 0.0
C2036 C 0.47547 0.53655 0.80392 0.0
C2037 C 0.4804 0.53333 0.77622 0.0
C2038 C 0.50046 0.52494 0.76858 0.0
C2039 C 0.51596 0.52011 0.7884 0.0
C2040 C 0.51154 0.52395 0.81585 0.0
C2041 C 0.49148 0.53229 0.82359 0.0
H2042 H 0.53147 0.51357 0.78246 0.0
H2043 H 0.33644 0.59523 0.85436 0.0
H2044 H 0.70483 0.16948 0.61308 0.0
H2045 H 0.73616 0.16991 0.58238 0.0
H2046 H 0.77477 0.1995 0.64498 0.0
H2047 H 0.74313 0.1997 0.67535 0.0
H2048 H 0.79206 0.21513 0.60334 0.0
H2049 H 0.77693 0.13958 0.61516 0.0
H2050 H 0.75492 0.10618 0.61451 0.0
H2051 H 0.74318 0.11494 0.52888 0.0
H2052 H 0.76493 0.14852 0.52909 0.0
H2053 H 0.8929 0.20324 0.52759 0.0
H2054 H 0.86307 0.20068 0.56042 0.0
H2055 H 0.82378 0.16899 0.50011 0.0
H2056 H 0.85425 0.17041 0.46801 0.0
H2057 H 0.80721 0.15412 0.54153 0.0
H2058 H 0.82248 0.23039 0.53035 0.0
H2059 H 0.84437 0.26386 0.53194 0.0
H2060 H 0.85619 0.2536 0.61727 0.0
H2061 H 0.83466 0.2199 0.61611 0.0
C2062 C 0.7199 0.17609 0.62067 0.0
C2063 C 0.7205 0.18448 0.64766 0.0
C2064 C 0.73844 0.17614 0.60273 0.0
C2065 C 0.75928 0.18425 0.61038 0.0
C2066 C 0.75972 0.1929 0.63729 0.0
C2067 C 0.74114 0.19298 0.65518 0.0
C2068 C 0.78005 0.18401 0.59088 0.0
C2069 C 0.7952 0.20146 0.59023 0.0
C2070 C 0.78537 0.16682 0.57244 0.0
C2071 C 0.77236 0.14667 0.57221 0.0
C2072 C 0.76955 0.13444 0.59623 0.0
C2073 C 0.75713 0.11547 0.59594 0.0
C2074 C 0.7476 0.10848 0.57169 0.0
C2075 C 0.75053 0.1204 0.54766 0.0
C2076 C 0.76292 0.13939 0.54784 0.0
C2077 C 0.87822 0.19505 0.52133 0.0
C2078 C 0.87719 0.18623 0.4946 0.0
C2079 C 0.8604 0.19407 0.54035 0.0
C2080 C 0.83963 0.18518 0.53376 0.0
C2081 C 0.83881 0.1761 0.50709 0.0
C2082 C 0.85675 0.17679 0.48826 0.0
C2083 C 0.81917 0.18533 0.55379 0.0
C2084 C 0.80406 0.16783 0.55457 0.0
C2085 C 0.81394 0.20247 0.57241 0.0
C2086 C 0.82711 0.22254 0.57307 0.0
C2087 C 0.82987 0.2352 0.5494 0.0
C2088 C 0.84222 0.25421 0.55024 0.0
C2089 C 0.85168 0.26084 0.5747 0.0
C2090 C 0.84889 0.24843 0.59835 0.0
C2091 C 0.83662 0.22938 0.59761 0.0
H2092 H 0.86109 0.27563 0.57536 0.0
H2093 H 0.73799 0.0938 0.5715 0.0
H2094 H 0.18584 0.4552 0.35895 0.0
H2095 H 0.1855 0.48722 0.32873 0.0
H2096 H 0.15392 0.52368 0.39148 0.0
H2097 H 0.15501 0.49213 0.42175 0.0
H2098 H 0.16251 0.51234 0.30098 0.0
H2099 H 0.15408 0.57889 0.38215 0.0
H2100 H 0.16481 0.58616 0.42968 0.0
H2101 H 0.21835 0.54258 0.42193 0.0
H2102 H 0.20812 0.53528 0.37425 0.0
H2103 H 0.14569 0.64052 0.27414 0.0
H2104 H 0.14853 0.60951 0.30575 0.0
H2105 H 0.18743 0.57594 0.24716 0.0
H2106 H 0.18499 0.60712 0.21601 0.0
H2107 H 0.17578 0.58627 0.33562 0.0
H2108 H 0.18423 0.51947 0.25453 0.0
H2109 H 0.17252 0.51104 0.20768 0.0
H2110 H 0.11921 0.55489 0.21545 0.0
H2111 H 0.13045 0.5634 0.26243 0.0
C2112 C 0.17889 0.47 0.36663 0.0
C2113 C 0.17061 0.47019 0.39374 0.0
C2114 C 0.17863 0.48878 0.3489 0.0
C2115 C 0.17014 0.50926 0.35688 0.0
C2116 C 0.16146 0.50918 0.38383 0.0
C2117 C 0.16186 0.49052 0.40156 0.0
C2118 C 0.17008 0.53004 0.33737 0.0
C2119 C 0.16585 0.52832 0.30894 0.0
C2120 C 0.17376 0.55192 0.34623 0.0
C2121 C 0.18017 0.55636 0.37474 0.0
C2122 C 0.16818 0.57092 0.39057 0.0
C2123 C 0.17417 0.57504 0.41753 0.0
C2124 C 0.1922 0.56478 0.42884 0.0
C2125 C 0.20435 0.55046 0.41317 0.0
C2126 C 0.19845 0.54632 0.38618 0.0
C2127 C 0.15548 0.62689 0.26806 0.0
C2128 C 0.16573 0.62753 0.24205 0.0
C2129 C 0.15694 0.60862 0.28645 0.0
C2130 C 0.16798 0.58914 0.27976 0.0
C2131 C 0.17836 0.58988 0.25381 0.0
C2132 C 0.17718 0.60828 0.23567 0.0
C2133 C 0.16835 0.56847 0.2993 0.0
C2134 C 0.17258 0.57024 0.3277 0.0
C2135 C 0.16477 0.54664 0.2904 0.0
C2136 C 0.15834 0.54223 0.26189 0.0
C2137 C 0.17002 0.52733 0.24622 0.0
C2138 C 0.16344 0.5225 0.21967 0.0
C2139 C 0.1451 0.53238 0.20863 0.0
C2140 C 0.13339 0.54723 0.22405 0.0
C2141 C 0.13991 0.55212 0.2506 0.0
H2142 H 0.14 0.52859 0.1881 0.0
H2143 H 0.19679 0.56796 0.44973 0.0
H2144 H 0.74619 0.67789 0.33601 0.0
H2145 H 0.7779 0.67795 0.3666 0.0
H2146 H 0.73574 0.6818 0.43598 0.0
H2147 H 0.70401 0.68085 0.40549 0.0
H2148 H 0.77248 0.70988 0.44413 0.0
H2149 H 0.76345 0.63479 0.42057 0.0
H2150 H 0.76067 0.60399 0.38902 0.0
H2151 H 0.82379 0.61879 0.35716 0.0
H2152 H 0.82681 0.64988 0.38826 0.0
H2153 H 0.8812 0.71597 0.50195 0.0
H2154 H 0.85023 0.71432 0.47124 0.0
H2155 H 0.83511 0.65057 0.50085 0.0
H2156 H 0.86471 0.65371 0.5344 0.0
H2157 H 0.82693 0.6513 0.44323 0.0
H2158 H 0.80416 0.74061 0.44768 0.0
H2159 H 0.8079 0.7718 0.4785 0.0
H2160 H 0.80879 0.7289 0.54769 0.0
H2161 H 0.80488 0.69749 0.51729 0.0
C2162 C 0.74339 0.67867 0.35776 0.0
C2163 C 0.72163 0.67928 0.36741 0.0
C2164 C 0.76196 0.67868 0.37568 0.0
C2165 C 0.76027 0.6799 0.40464 0.0
C2166 C 0.73853 0.68088 0.41423 0.0
C2167 C 0.71995 0.68025 0.39637 0.0
C2168 C 0.78066 0.67999 0.42451 0.0
C2169 C 0.78427 0.69695 0.44349 0.0
C2170 C 0.79699 0.66353 0.42507 0.0
C2171 C 0.79526 0.64478 0.40656 0.0
C2172 C 0.77667 0.63157 0.40669 0.0
C2173 C 0.77506 0.61405 0.38891 0.0
C2174 C 0.79202 0.60947 0.37105 0.0
C2175 C 0.81065 0.62237 0.37098 0.0
C2176 C 0.81232 0.63994 0.38869 0.0
C2177 C 0.87195 0.70117 0.50164 0.0
C2178 C 0.87771 0.68426 0.52006 0.0
C2179 C 0.85366 0.70021 0.48356 0.0
C2180 C 0.83963 0.68197 0.48185 0.0
C2181 C 0.8453 0.66485 0.50013 0.0
C2182 C 0.86313 0.66632 0.51922 0.0
C2183 C 0.81896 0.6814 0.46245 0.0
C2184 C 0.81525 0.66432 0.44366 0.0
C2185 C 0.80274 0.69797 0.46167 0.0
C2186 C 0.80441 0.71672 0.48019 0.0
C2187 C 0.80506 0.73785 0.46948 0.0
C2188 C 0.80724 0.75556 0.48687 0.0
C2189 C 0.80864 0.75233 0.51503 0.0
C2190 C 0.80777 0.73138 0.52587 0.0
C2191 C 0.80559 0.71362 0.50857 0.0
H2192 H 0.81036 0.76606 0.52846 0.0
H2193 H 0.79074 0.5959 0.3573 0.0
H2194 H 0.13762 0.1325 0.7457 0.0
H2195 H 0.13995 0.10145 0.71528 0.0
H2196 H 0.19801 0.08112 0.75649 0.0
H2197 H 0.19371 0.11067 0.78892 0.0
H2198 H 0.15369 0.0819 0.67914 0.0
H2199 H 0.21837 1.03273 0.73657 0.0
H2200 H 0.2306 1.02516 0.78357 0.0
H2201 H 0.16734 1.04021 0.81401 0.0
H2202 H 0.15473 1.04789 0.76719 0.0
H2203 H 0.17397 0.99312 0.58646 0.0
H2204 H 0.17416 1.0246 0.61627 0.0
H2205 H 0.16932 0.98264 0.68637 0.0
H2206 H 0.17079 0.95099 0.65628 0.0
H2207 H 0.18582 1.01245 0.70849 0.0
H2208 H 0.12554 1.02529 0.6504 0.0
H2209 H 0.10498 1.03037 0.60772 0.0
H2210 H 0.14633 0.08359 0.58533 0.0
H2211 H 0.16729 0.07868 0.62774 0.0
C2212 C 0.15124 0.12172 0.74819 0.0
C2213 C 0.16628 0.12592 0.76956 0.0
C2214 C 0.15259 0.10332 0.73035 0.0
C2215 C 0.16903 0.08722 0.73241 0.0
C2216 C 0.18438 0.09174 0.75357 0.0
C2217 C 0.18257 0.10983 0.77197 0.0
C2218 C 0.1697 0.06641 0.71297 0.0
C2219 C 0.1609 0.06692 0.68609 0.0
C2220 C 0.17827 1.04552 0.72035 0.0
C2221 C 0.18571 1.04111 0.74847 0.0
C2222 C 0.20709 1.03443 0.75331 0.0
C2223 C 0.21408 1.03016 0.77991 0.0
C2224 C 0.19978 1.03233 0.80177 0.0
C2225 C 0.17842 1.03871 0.79708 0.0
C2226 C 0.17135 1.04304 0.77053 0.0
C2227 C 0.17289 0.9903 0.60823 0.0
C2228 C 0.17227 0.96855 0.61803 0.0
C2229 C 0.17265 1.00889 0.62586 0.0
C2230 C 0.17095 1.00745 0.65489 0.0
C2231 C 0.17054 0.98558 0.66466 0.0
C2232 C 0.17131 0.96692 0.64699 0.0
C2233 C 0.17004 1.02807 0.6746 0.0
C2234 C 0.17873 1.0275 0.70152 0.0
C2235 C 0.16045 1.04861 0.66771 0.0
C2236 C 0.14816 0.05141 0.64204 0.0
C2237 C 0.13035 1.03796 0.63626 0.0
C2238 C 0.11862 1.04082 0.61214 0.0
C2239 C 0.12444 0.0572 0.59375 0.0
C2240 C 0.14192 0.07084 0.59952 0.0
C2241 C 0.15373 0.06803 0.62359 0.0
H2242 H 0.11535 0.05938 0.57508 0.0
H2243 H 0.20522 1.029 0.82234 0.0
H2244 H 0.74455 0.44019 0.0437 0.0
H2245 H 0.77528 0.44313 0.01216 0.0
H2246 H 0.74542 0.39601 0.95995 0.0
H2247 H 0.71507 0.39299 0.99185 0.0
H2248 H 0.78336 0.38648 0.95371 0.0
H2249 H 0.76066 0.46099 0.94082 0.0
H2250 H 0.7507 0.49835 0.95291 0.0
H2251 H 0.80758 0.50373 1.00273 0.0
H2252 H 0.81834 0.46671 0.98994 0.0
H2253 H 0.86093 0.40119 0.84225 0.0
H2254 H 0.82955 0.40077 0.87293 0.0
H2255 H 0.86463 0.43987 0.9302 0.0
H2256 H 0.89619 0.4402 0.89943 0.0
H2257 H 0.82456 0.45361 0.93403 0.0
H2258 H 0.84982 0.38073 0.93718 0.0
H2259 H 0.86027 0.34497 0.91965 0.0
H2260 H 0.79661 0.33616 0.8863 0.0
H2261 H 0.78587 0.37204 0.90322 0.0
C2262 C 0.74383 0.43113 0.02491 0.0
C2263 C 0.7257 0.41729 0.0204 0.0
C2264 C 0.76199 0.43269 1.00639 0.0
C2265 C 0.76374 0.42019 0.98205 0.0
C2266 C 0.7456 0.40629 0.97773 0.0
C2267 C 0.72751 0.40478 0.99622 0.0
C2268 C 0.78431 0.42059 0.96225 0.0
C2269 C 0.79189 0.40146 0.94934 0.0
C2270 C 0.79703 0.43946 0.95577 0.0
C2271 C 0.7901 0.46106 0.96479 0.0
C2272 C 0.77092 0.47011 0.95453 0.0
C2273 C 0.76525 0.49127 0.96131 0.0
C2274 C 0.77835 0.50331 0.97886 0.0
C2275 C 0.79738 0.49434 0.98929 0.0
C2276 C 0.80338 0.47336 0.98207 0.0
C2277 C 0.86229 0.40976 0.86136 0.0
C2278 C 0.88205 0.42072 0.86746 0.0
C2279 C 0.8439 0.40938 0.87947 0.0
C2280 C 0.84368 0.42001 0.9052 0.0
C2281 C 0.86333 0.43128 0.91111 0.0
C2282 C 0.88185 0.43144 0.8931 0.0
C2283 C 0.82339 0.41959 0.92531 0.0
C2284 C 0.81595 0.43866 0.93835 0.0
C2285 C 0.81067 0.40067 0.93163 0.0
C2286 C 0.81714 0.37922 0.92116 0.0
C2287 C 0.83811 0.37127 0.92586 0.0
C2288 C 0.84408 0.35096 0.91607 0.0
C2289 C 0.82914 0.33834 0.90177 0.0
C2290 C 0.80819 0.34598 0.89729 0.0
C2291 C 0.80216 0.36631 0.90697 0.0
H2292 H 0.83379 0.32261 0.89424 0.0
H2293 H 0.77382 0.51963 0.98423 0.0
H2294 H 0.4089 0.98853 0.28785 0.0
H2295 H 0.40433 1.01884 0.25552 0.0
H2296 H 0.46725 1.00652 0.22357 0.0
H2297 H 0.47028 0.97397 0.25237 0.0
H2298 H 0.41578 0.05557 0.2429 0.0
H2299 H 0.48061 1.03286 0.16032 0.0
H2300 H 0.49313 1.00168 0.13371 0.0
H2301 H 0.43636 0.96585 0.15658 0.0
H2302 H 0.4229 0.99711 0.18255 0.0
H2303 H 0.43194 0.15351 0.16043 0.0
H2304 H 0.43295 0.12205 0.19111 0.0
H2305 H 0.43174 0.07973 0.12172 0.0
H2306 H 0.43257 0.11122 0.09134 0.0
H2307 H 0.4489 0.05625 0.15118 0.0
H2308 H 0.38637 0.09282 0.18255 0.0
H2309 H 0.36445 0.12291 0.20021 0.0
H2310 H 0.40521 0.12669 0.27094 0.0
H2311 H 0.4275 0.09674 0.25355 0.0
C2312 C 0.42093 0.99067 0.27212 0.0
C2313 C 0.43883 0.97619 0.2714 0.0
C2314 C 0.41874 1.00906 0.25385 0.0
C2315 C 0.43496 1.01521 0.23448 0.0
C2316 C 0.45346 1.00172 0.23549 0.0
C2317 C 0.45524 0.98289 0.25277 0.0
C2318 C 0.43348 1.03583 0.21472 0.0
C2319 C 0.42326 0.05536 0.22293 0.0
C2320 C 0.44229 1.03688 0.18751 0.0
C2321 C 0.45088 1.01733 0.17381 0.0
C2322 C 0.47072 1.01836 0.1597 0.0
C2323 C 0.47788 1.00073 0.1445 0.0
C2324 C 0.46551 0.98179 0.14351 0.0
C2325 C 0.4459 0.98051 0.15758 0.0
C2326 C 0.43847 0.99821 0.1725 0.0
C2327 C 0.43189 0.13755 0.15146 0.0
C2328 C 0.43219 0.1358 0.12255 0.0
C2329 C 0.43214 0.11896 0.16949 0.0
C2330 C 0.43184 0.09707 0.16008 0.0
C2331 C 0.43209 0.09554 0.13104 0.0
C2332 C 0.43245 0.11407 0.11309 0.0
C2333 C 0.43183 0.07618 0.17958 0.0
C2334 C 0.44169 0.05654 0.17127 0.0
C2335 C 0.42196 0.07473 0.20612 0.0
C2336 C 0.40872 0.09273 0.21661 0.0
C2337 C 0.39071 0.10016 0.20179 0.0
C2338 C 0.37822 0.11717 0.21176 0.0
C2339 C 0.38348 0.12675 0.23664 0.0
C2340 C 0.40119 0.11928 0.25165 0.0
C2341 C 0.41375 0.10229 0.24176 0.0
H2342 H 0.37379 0.13992 0.24432 0.0
H2343 H 0.47115 0.96809 0.13192 0.0
H2344 H 0.24532 0.44329 0.4697 0.0
H2345 H 0.27631 0.44628 0.50075 0.0
H2346 H 0.24674 0.39943 0.55436 0.0
H2347 H 0.21669 0.39596 0.52247 0.0
H2348 H 0.2835 0.39021 0.5625 0.0
H2349 H 0.32148 0.46764 0.52071 0.0
H2350 H 0.31221 0.50451 0.50501 0.0
H2351 H 0.25507 0.50329 0.55478 0.0
H2352 H 0.26353 0.46608 0.56982 0.0
H2353 H 0.39802 0.44147 0.61355 0.0
H2354 H 0.36652 0.44135 0.58269 0.0
H2355 H 0.32989 0.40559 0.64245 0.0
H2356 H 0.36126 0.40572 0.67315 0.0
H2357 H 0.32703 0.45642 0.57756 0.0
H2358 H 0.28529 0.37816 0.61487 0.0
H2359 H 0.29458 0.34278 0.63521 0.0
H2360 H 0.35832 0.34707 0.60069 0.0
H2361 H 0.34931 0.38229 0.57978 0.0
C2362 C 0.24473 0.4343 0.48869 0.0
C2363 C 0.22663 0.42046 0.49368 0.0
C2364 C 0.26306 0.43592 0.50699 0.0
C2365 C 0.26498 0.42356 0.53168 0.0
C2366 C 0.24688 0.40966 0.53638 0.0
C2367 C 0.22879 0.40798 0.51799 0.0
C2368 C 0.28561 0.42396 0.55146 0.0
C2369 C 0.29249 0.40504 0.56581 0.0
C2370 C 0.29902 0.44257 0.5567 0.0
C2371 C 0.29298 0.46408 0.54606 0.0
C2372 C 0.30678 0.47517 0.52796 0.0
C2373 C 0.30161 0.49606 0.51909 0.0
C2374 C 0.28292 0.50615 0.52867 0.0
C2375 C 0.26933 0.49532 0.54703 0.0
C2376 C 0.27417 0.47425 0.5555 0.0
C2377 C 0.38336 0.43348 0.62041 0.0
C2378 C 0.38312 0.42357 0.64673 0.0
C2379 C 0.36487 0.43345 0.60234 0.0
C2380 C 0.34479 0.42317 0.60894 0.0
C2381 C 0.34458 0.41339 0.63537 0.0
C2382 C 0.36296 0.4136 0.6535 0.0
C2383 C 0.32454 0.42283 0.58875 0.0
C2384 C 0.31786 0.44167 0.57428 0.0
C2385 C 0.31114 0.40421 0.58375 0.0
C2386 C 0.31669 0.38299 0.59604 0.0
C2387 C 0.30127 0.37152 0.61156 0.0
C2388 C 0.30648 0.35149 0.62318 0.0
C2389 C 0.32706 0.34273 0.61934 0.0
C2390 C 0.34242 0.35392 0.60374 0.0
C2391 C 0.33727 0.37392 0.59201 0.0
H2392 H 0.33107 0.32724 0.62839 0.0
H2393 H 0.27905 0.5224 0.522 0.0
H2394 H 0.91949 0.14967 0.35917 0.0
H2395 H 0.92011 0.11811 0.329 0.0
H2396 H 0.94409 0.07878 0.39489 0.0
H2397 H 0.94382 0.1105 0.42491 0.0
H2398 H 0.96211 0.06149 0.35398 0.0
H2399 H 0.88683 0.07795 0.36109 0.0
H2400 H 0.85399 0.10039 0.35827 0.0
H2401 H 0.86543 0.11145 0.27297 0.0
H2402 H 0.89849 0.08927 0.27536 0.0
H2403 H 0.95043 0.96076 0.27854 0.0
H2404 H 0.94732 0.99065 0.31094 0.0
H2405 H 0.91897 1.03037 0.2482 0.0
H2406 H 0.92089 0.99989 0.21648 0.0
H2407 H 0.90288 1.04712 0.28857 0.0
H2408 H 0.97901 1.03094 0.28202 0.0
H2409 H 1.01165 1.0082 0.28544 0.0
H2410 H 0.99846 0.99624 0.37014 0.0
H2411 H 0.96559 1.01866 0.36715 0.0
C2412 C 0.92488 0.13439 0.3676 0.0
C2413 C 0.9315 0.13359 0.39542 0.0
C2414 C 0.92507 0.11576 0.34995 0.0
C2415 C 0.93176 0.0947 0.35867 0.0
C2416 C 0.93867 0.09404 0.38641 0.0
C2417 C 0.93845 0.11265 0.40407 0.0
C2418 C 0.93173 0.07391 0.33943 0.0
C2419 C 0.94884 0.05852 0.34003 0.0
C2420 C 0.91506 0.06882 0.32001 0.0
C2421 C 0.89525 0.08215 0.31848 0.0
C2422 C 0.88241 0.08529 0.34177 0.0
C2423 C 0.86375 0.09794 0.34025 0.0
C2424 C 0.85766 0.10739 0.31548 0.0
C2425 C 0.87019 0.10415 0.29216 0.0
C2426 C 0.88888 0.09153 0.29358 0.0
C2427 C 0.94282 0.97555 0.27163 0.0
C2428 C 0.93507 0.97672 0.24432 0.0
C2429 C 0.94155 0.99339 0.29042 0.0
C2430 C 0.93344 1.01428 0.28305 0.0
C2431 C 0.92542 1.01524 0.25579 0.0
C2432 C 0.9264 0.99729 0.23718 0.0
C2433 C 0.93339 1.03476 0.30285 0.0
C2434 C 0.91622 1.0501 0.30241 0.0
C2435 C 0.95002 1.03978 0.32242 0.0
C2436 C 0.96976 1.02634 0.3243 0.0
C2437 C 0.98303 1.02337 0.30134 0.0
C2438 C 1.00156 1.01054 0.30321 0.0
C2439 C 1.00712 1.00078 0.328 0.0
C2440 C 0.99413 1.00379 0.35096 0.0
C2441 C 0.97555 1.01657 0.34919 0.0
H2442 H 1.02153 0.99097 0.32944 0.0
H2443 H 0.84321 0.11719 0.31434 0.0
H2444 H 0.24275 0.68107 0.17689 0.0
H2445 H 0.27458 0.68032 0.14732 0.0
H2446 H 0.2335 0.68617 0.07683 0.0
H2447 H 0.20152 0.68531 0.1066 0.0
H2448 H 0.26296 0.66833 0.05553 0.0
H2449 H 0.27626 0.72903 0.11226 0.0
H2450 H 0.28103 0.74971 0.15471 0.0
H2451 H 0.33332 0.70812 0.17847 0.0
H2452 H 0.3287 0.68705 0.13628 0.0
H2453 H 0.38351 0.71578 0.01737 0.0
H2454 H 0.35231 0.71385 0.04778 0.0
H2455 H 0.33201 0.65495 0.00872 0.0
H2456 H 0.36176 0.65884 0.97615 0.0
H2457 H 0.3327 0.7003 0.08445 0.0
H2458 H 0.28302 0.63525 0.02867 0.0
H2459 H 0.27575 0.62231 0.98203 0.0
H2460 H 0.29204 0.68497 0.94961 0.0
H2461 H 0.29941 0.69829 0.99605 0.0
C2462 C 0.24022 0.6823 0.15509 0.0
C2463 C 0.21865 0.68341 0.14502 0.0
C2464 C 0.259 0.68217 0.13762 0.0
C2465 C 0.25786 0.68391 0.10858 0.0
C2466 C 0.23616 0.68486 0.09857 0.0
C2467 C 0.21734 0.68448 0.11605 0.0
C2468 C 0.27862 0.68438 0.08904 0.0
C2469 C 0.27807 0.67539 0.06237 0.0
C2470 C 0.29922 0.69388 0.09585 0.0
C2471 C 0.30196 0.70632 0.1213 0.0
C2472 C 0.28868 0.72422 0.12664 0.0
C2473 C 0.29137 0.73602 0.15063 0.0
C2474 C 0.30742 0.73019 0.16931 0.0
C2475 C 0.32086 0.71258 0.16401 0.0
C2476 C 0.31822 0.70071 0.14006 0.0
C2477 C 0.37265 0.70216 0.01524 0.0
C2478 C 0.3768 0.68687 0.99432 0.0
C2479 C 0.35419 0.701 0.03313 0.0
C2480 C 0.33807 0.68445 0.0316 0.0
C2481 C 0.34264 0.66872 0.01108 0.0
C2482 C 0.3608 0.67033 0.99261 0.0
C2483 C 0.31717 0.68406 0.05095 0.0
C2484 C 0.31765 0.69313 0.0776 0.0
C2485 C 0.29624 0.67551 0.04365 0.0
C2486 C 0.29199 0.66766 0.01575 0.0
C2487 C 0.28505 0.64625 0.01156 0.0
C2488 C 0.28095 0.63885 0.98518 0.0
C2489 C 0.28356 0.65279 0.96287 0.0
C2490 C 0.29019 0.67418 0.9669 0.0
C2491 C 0.29435 0.68165 0.99323 0.0
H2492 H 0.28036 0.64704 0.94246 0.0
H2493 H 0.30948 0.73935 0.18787 0.0
H2494 H 0.64455 0.14012 0.77565 0.0
H2495 H 0.64608 0.10934 0.80702 0.0
H2496 H 0.69417 0.0796 0.75632 0.0
H2497 H 0.69157 0.11012 0.72421 0.0
H2498 H 0.67625 1.04734 0.77267 0.0
H2499 H 0.69858 0.10078 0.84296 0.0
H2500 H 0.69572 0.13224 0.87352 0.0
H2501 H 0.62926 0.11658 0.88983 0.0
H2502 H 0.63205 0.08434 0.86056 0.0
H2503 H 0.69556 0.95785 0.86785 0.0
H2504 H 0.6962 0.98992 0.83821 0.0
H2505 H 0.64807 1.01991 0.88866 0.0
H2506 H 0.64859 0.98836 0.91921 0.0
H2507 H 0.66593 0.05192 0.87239 0.0
H2508 H 0.64527 0.99563 0.81066 0.0
H2509 H 0.64883 0.96079 0.7868 0.0
H2510 H 0.70995 0.98129 0.75371 0.0
H2511 H 0.70687 1.01615 0.77763 0.0
C2512 C 0.65615 0.12754 0.77141 0.0
C2513 C 0.66883 0.12919 0.74723 0.0
C2514 C 0.65711 0.10931 0.78995 0.0
C2515 C 0.67073 0.09097 0.78578 0.0
C2516 C 0.6834 0.0927 0.76149 0.0
C2517 C 0.68228 0.11088 0.74288 0.0
C2518 C 0.67104 0.07 0.80517 0.0
C2519 C 0.67431 1.04883 0.79452 0.0
C2520 C 0.6678 0.07004 0.83422 0.0
C2521 C 0.66543 0.09044 0.84931 0.0
C2522 C 0.68329 0.10424 0.85279 0.0
C2523 C 0.68174 0.12209 0.87003 0.0
C2524 C 0.6623 0.12652 0.88338 0.0
C2525 C 0.64432 0.11311 0.87952 0.0
C2526 C 0.64592 0.09496 0.8628 0.0
C2527 C 0.68497 0.97115 0.87286 0.0
C2528 C 0.67197 0.96954 0.89676 0.0
C2529 C 0.68508 0.98995 0.85521 0.0
C2530 C 0.67169 1.00846 0.85948 0.0
C2531 C 0.65879 1.00675 0.88355 0.0
C2532 C 0.659 0.98815 0.90147 0.0
C2533 C 0.67129 1.02932 0.83995 0.0
C2534 C 0.66793 0.05042 0.85054 0.0
C2535 C 0.67418 1.02913 0.81083 0.0
C2536 C 0.67593 1.00838 0.79614 0.0
C2537 C 0.6595 0.99266 0.79836 0.0
C2538 C 0.66143 0.97291 0.78484 0.0
C2539 C 0.67963 0.96881 0.76881 0.0
C2540 C 0.69589 0.98448 0.76617 0.0
C2541 C 0.69405 1.00423 0.77969 0.0
H2542 H 0.68112 0.9535 0.7584 0.0
H2543 H 0.66119 0.14033 0.89676 0.0
H2544 H 0.49975 0.16961 0.94778 0.0
H2545 H 0.52273 0.18224 0.91057 0.0
H2546 H 0.52078 0.11882 0.87471 0.0
H2547 H 0.49872 0.10556 0.91247 0.0
H2548 H 0.56355 0.16595 0.89433 0.0
H2549 H 0.5158 0.12768 0.80455 0.0
H2550 H 0.47791 0.11893 0.79295 0.0
H2551 H 0.45572 0.16871 0.84672 0.0
H2552 H 0.49343 0.178 0.85825 0.0
H2553 H 0.60293 0.14623 0.74743 0.0
H2554 H 0.57499 0.14215 0.78252 0.0
H2555 H 0.59252 0.2045 0.81529 0.0
H2556 H 0.62102 0.20811 0.78083 0.0
H2557 H 0.53985 0.16275 0.79779 0.0
H2558 H 0.58601 0.20254 0.88656 0.0
H2559 H 0.62322 0.21171 0.90066 0.0
H2560 H 0.64804 0.16104 0.8502 0.0
H2561 H 0.61098 0.15074 0.83703 0.0
C2562 C 0.50432 0.15815 0.93227 0.0
C2563 C 0.49709 0.13648 0.93328 0.0
C2564 C 0.51736 0.16553 0.91085 0.0
C2565 C 0.52314 0.15155 0.88975 0.0
C2566 C 0.51613 0.12996 0.89061 0.0
C2567 C 0.50338 0.12245 0.91221 0.0
C2568 C 0.53712 0.15922 0.86716 0.0
C2569 C 0.55832 0.16565 0.87322 0.0
C2570 C 0.53021 0.15858 0.83972 0.0
C2571 C 0.50746 0.15337 0.83246 0.0
C2572 C 0.50284 0.13682 0.81378 0.0
C2573 C 0.48139 0.13177 0.80723 0.0
C2574 C 0.46442 0.14321 0.81915 0.0
C2575 C 0.46887 0.1598 0.83757 0.0
C2576 C 0.49028 0.16494 0.84414 0.0
C2577 C 0.60065 0.15909 0.76204 0.0
C2578 C 0.61431 0.17725 0.76192 0.0
C2579 C 0.58468 0.1568 0.78202 0.0
C2580 C 0.58193 0.17281 0.80192 0.0
C2581 C 0.59472 0.19165 0.80065 0.0
C2582 C 0.61102 0.19369 0.78105 0.0
C2583 C 0.56662 0.16904 0.82484 0.0
C2584 C 0.5451 0.16331 0.81887 0.0
C2585 C 0.57323 0.17045 0.85247 0.0
C2586 C 0.59569 0.17606 0.86055 0.0
C2587 C 0.59941 0.19321 0.87868 0.0
C2588 C 0.62046 0.19852 0.88665 0.0
C2589 C 0.63796 0.18683 0.87655 0.0
C2590 C 0.63446 0.16988 0.85833 0.0
C2591 C 0.61341 0.16425 0.85067 0.0
H2592 H 0.6542 0.19093 0.88294 0.0
H2593 H 0.44783 0.13924 0.81408 0.0
H2594 H 0.64584 0.78574 0.2144 0.0
H2595 H 0.64314 0.79488 0.16574 0.0
H2596 H 0.71054 0.77921 0.15515 0.0
H2597 H 0.71331 0.76997 0.20363 0.0
H2598 H 0.69697 0.82284 0.14106 0.0
H2599 H 0.67716 0.74833 0.12498 0.0
H2600 H 0.65522 0.71539 0.13235 0.0
H2601 H 0.5981 0.7494 0.10726 0.0
H2602 H 0.61964 0.78263 0.09996 0.0
H2603 H 0.7063 0.85068 1.00337 0.0
H2604 H 0.70573 0.82389 0.0407 0.0
H2605 H 0.6394 0.84017 0.05816 0.0
H2606 H 0.64011 0.86719 0.02147 0.0
H2607 H 0.65226 0.79244 0.06627 0.0
H2608 H 0.66472 0.86498 0.09564 0.0
H2609 H 0.68077 0.90133 0.09092 0.0
H2610 H 0.74445 0.87432 0.09602 0.0
H2611 H 0.72882 0.8377 0.10041 0.0
C2612 C 0.66 0.7841 0.20158 0.0
C2613 C 0.67985 0.77744 0.21276 0.0
C2614 C 0.65837 0.78901 0.17381 0.0
C2615 C 0.67659 0.78749 0.15691 0.0
C2616 C 0.69625 0.78023 0.16787 0.0
C2617 C 0.69783 0.77506 0.19552 0.0
C2618 C 0.67607 0.79661 0.12903 0.0
C2619 C 0.68765 0.81579 0.12455 0.0
C2620 C 0.66294 0.78806 0.108 0.0
C2621 C 0.65001 0.76803 0.11209 0.0
C2622 C 0.6599 0.74884 0.12122 0.0
C2623 C 0.64753 0.7301 0.12535 0.0
C2624 C 0.62528 0.73032 0.12037 0.0
C2625 C 0.61534 0.74926 0.11112 0.0
C2626 C 0.62763 0.76804 0.10692 0.0
C2627 C 0.69151 0.84813 0.01483 0.0
C2628 C 0.67341 0.86119 0.01006 0.0
C2629 C 0.69112 0.83276 0.03593 0.0
C2630 C 0.67244 0.82996 0.05201 0.0
C2631 C 0.65384 0.84187 0.04579 0.0
C2632 C 0.6544 0.85754 0.02516 0.0
C2633 C 0.67374 0.81819 0.07835 0.0
C2634 C 0.66206 0.79894 0.08265 0.0
C2635 C 0.68609 0.82691 0.09983 0.0
C2636 C 0.69568 0.84871 0.09783 0.0
C2637 C 0.68216 0.86682 0.09549 0.0
C2638 C 0.69112 0.88744 0.09287 0.0
C2639 C 0.7135 0.89014 0.09281 0.0
C2640 C 0.72707 0.87223 0.09588 0.0
C2641 C 0.7182 0.85151 0.0984 0.0
H2642 H 0.72019 0.90617 0.09019 0.0
H2643 H 0.61574 0.7158 0.12363 0.0
H2644 H 1.00303 0.9592 0.24548 0.0
H2645 H 1.02574 0.96578 0.28591 0.0
H2646 H 1.00091 0.90731 0.32311 0.0
H2647 H 0.97897 0.90039 0.28286 0.0
H2648 H 0.99479 0.94655 0.35355 0.0
H2649 H 1.04911 0.90823 0.30124 0.0
H2650 H 0.07297 0.90393 0.26141 0.0
H2651 H 0.10493 0.96381 0.28019 0.0
H2652 H 0.08077 0.96885 0.31966 0.0
H2653 H 1.04732 0.91822 0.47287 0.0
H2654 H 1.03409 0.91861 0.42603 0.0
H2655 H 0.07494 0.97357 0.40768 0.0
H2656 H 0.08828 0.97334 0.4548 0.0
H2657 H 0.07447 0.94408 0.36564 0.0
H2658 H 1.02306 0.98239 0.41804 0.0
H2659 H 0.99841 0.98973 0.45634 0.0
H2660 H 0.9607 0.93353 0.43623 0.0
H2661 H 0.98532 0.92565 0.39804 0.0
C2662 C 1.00294 0.94752 0.26203 0.0
C2663 C 0.989 0.9295 0.26137 0.0
C2664 C 1.01575 0.95135 0.2851 0.0
C2665 C 1.01467 0.93718 0.30756 0.0
C2666 C 1.00173 0.91856 0.3061 0.0
C2667 C 0.98913 0.91469 0.28317 0.0
C2668 C 1.02547 0.94217 0.33362 0.0
C2669 C 1.01221 0.94589 0.35626 0.0
C2670 C 1.04821 0.94232 0.33672 0.0
C2671 C 0.06294 0.93905 0.31324 0.0
C2672 C 0.06107 0.9206 0.29674 0.0
C2673 C 0.07467 0.918 0.27425 0.0
C2674 C 0.09046 0.93357 0.26828 0.0
C2675 C 0.09267 0.95178 0.28481 0.0
C2676 C 0.079 0.95453 0.30722 0.0
C2677 C 0.05344 0.93047 0.45894 0.0
C2678 C 0.0686 0.94595 0.46766 0.0
C2679 C 1.04593 0.93062 0.43215 0.0
C2680 C 0.05326 0.94635 0.41351 0.0
C2681 C 0.06903 0.96134 0.42177 0.0
C2682 C 0.07662 0.96117 0.44867 0.0
C2683 C 1.04368 0.94737 0.38583 0.0
C2684 C 0.05708 0.94499 0.36291 0.0
C2685 C 1.02101 0.94876 0.38226 0.0
C2686 C 1.00616 0.95334 0.40529 0.0
C2687 C 1.00963 0.97148 0.42193 0.0
C2688 C 0.99563 0.97576 0.4436 0.0
C2689 C 0.97803 0.96208 0.44875 0.0
C2690 C 0.97436 0.94411 0.43222 0.0
C2691 C 0.98831 0.93974 0.41054 0.0
H2692 H 0.9672 0.96543 0.46553 0.0
H2693 H 0.10099 0.93152 0.25088 0.0
H2694 H 0.89417 0.25348 0.49272 0.0
H2695 H 0.88674 0.27565 0.5332 0.0
H2696 H 0.94586 0.25303 0.5702 0.0
H2697 H 0.95363 0.2317 0.52986 0.0
H2698 H 0.90696 0.24418 0.60034 0.0
H2699 H 0.94355 0.3029 0.55118 0.0
H2700 H 0.94728 0.32823 0.51239 0.0
H2701 H 0.88398 0.35351 0.52855 0.0
H2702 H 0.87977 0.32808 0.56722 0.0
H2703 H 0.93496 0.29569 0.71987 0.0
H2704 H 0.93398 0.28321 0.67284 0.0
H2705 H 0.87719 0.32177 0.65763 0.0
H2706 H 0.87801 0.33434 0.70498 0.0
H2707 H 0.90579 0.32358 0.61451 0.0
H2708 H 0.87066 0.26929 0.66683 0.0
H2709 H 0.86493 0.24353 0.70472 0.0
H2710 H 0.92206 0.20888 0.68159 0.0
H2711 H 0.92834 0.23464 0.64379 0.0
C2712 C 0.90585 0.25385 0.50918 0.0
C2713 C 0.92429 0.24064 0.50848 0.0
C2714 C 0.90151 0.26633 0.53232 0.0
C2715 C 0.91557 0.26559 0.55481 0.0
C2716 C 0.93468 0.25357 0.55318 0.0
C2717 C 0.93906 0.24134 0.53018 0.0
C2718 C 0.90988 0.27548 0.58119 0.0
C2719 C 0.90681 0.26155 0.60352 0.0
C2720 C 0.9086 0.29807 0.58492 0.0
C2721 C 0.91125 0.31344 0.56187 0.0
C2722 C 0.93036 0.31373 0.54631 0.0
C2723 C 0.93257 0.32813 0.52438 0.0
C2724 C 0.91585 0.34242 0.51796 0.0
C2725 C 0.8969 0.3424 0.53352 0.0
C2726 C 0.8946 0.32801 0.55545 0.0
C2727 C 0.92217 0.30144 0.7066 0.0
C2728 C 0.90638 0.31575 0.71628 0.0
C2729 C 0.92167 0.29436 0.67969 0.0
C2730 C 0.90528 0.30126 0.66188 0.0
C2731 C 0.88992 0.31618 0.67109 0.0
C2732 C 0.89044 0.32335 0.69811 0.0
C2733 C 0.90413 0.29223 0.63398 0.0
C2734 C 0.90565 0.30623 0.61136 0.0
C2735 C 0.90372 0.2696 0.62982 0.0
C2736 C 0.90005 0.25403 0.65257 0.0
C2737 C 0.88211 0.2563 0.66995 0.0
C2738 C 0.87874 0.24166 0.69139 0.0
C2739 C 0.89314 0.2246 0.69559 0.0
C2740 C 0.91092 0.22212 0.67832 0.0
C2741 C 0.91438 0.23672 0.65686 0.0
H2742 H 0.8905 0.21329 0.7122 0.0
H2743 H 0.91759 0.35356 0.50098 0.0
H2744 H 0.59423 0.9609 0.06769 0.0
H2745 H 0.58969 0.9558 0.11663 0.0
H2746 H 0.55086 0.89882 0.10208 0.0
H2747 H 0.55661 0.90292 0.05323 0.0
H2748 H 0.55503 0.95943 0.14264 0.0
H2749 H 0.54934 0.86459 0.15562 0.0
H2750 H 0.56878 0.83258 0.13884 0.0
H2751 H 0.6245 0.87191 0.12093 0.0
H2752 H 0.60563 0.90407 0.13811 0.0
H2753 H 0.48126 0.8956 0.23384 0.0
H2754 H 0.50964 0.89545 0.19953 0.0
H2755 H 0.54249 0.94703 0.24183 0.0
H2756 H 0.51302 0.94809 0.27536 0.0
H2757 H 0.55276 0.89037 0.19463 0.0
H2758 H 0.56266 0.98207 0.19419 0.0
H2759 H 0.54331 1.01474 0.20948 0.0
H2760 H 0.48264 0.98125 0.19962 0.0
H2761 H 0.50141 0.94927 0.18376 0.0
C2762 C 0.58517 0.94695 0.07484 0.0
C2763 C 0.5756 0.93245 0.05633 0.0
C2764 C 0.58252 0.94411 0.10293 0.0
C2765 C 0.57008 0.92682 0.11323 0.0
C2766 C 0.56092 0.91205 0.09483 0.0
C2767 C 0.56381 0.91471 0.06676 0.0
C2768 C 0.56418 0.92584 0.14265 0.0
C2769 C 0.55532 0.94444 0.15427 0.0
C2770 C 0.56435 0.90631 0.15798 0.0
C2771 C 0.57595 0.88684 0.14807 0.0
C2772 C 0.56579 0.86642 0.14833 0.0
C2773 C 0.57672 0.84823 0.1387 0.0
C2774 C 0.59785 0.85021 0.12879 0.0
C2775 C 0.60812 0.87039 0.12856 0.0
C2776 C 0.5973 0.88861 0.13823 0.0
C2777 C 0.49421 0.90724 0.23553 0.0
C2778 C 0.49426 0.92257 0.25654 0.0
C2779 C 0.51085 0.90672 0.2163 0.0
C2780 C 0.52815 0.92143 0.21771 0.0
C2781 C 0.52918 0.93567 0.24001 0.0
C2782 C 0.51232 0.9363 0.25918 0.0
C2783 C 0.54295 0.92376 0.19378 0.0
C2784 C 0.55342 0.90545 0.18324 0.0
C2785 C 0.54472 0.94361 0.17941 0.0
C2786 C 0.5334 0.96323 0.18835 0.0
C2787 C 0.54515 0.98189 0.19531 0.0
C2788 C 0.53427 1.00037 0.20405 0.0
C2789 C 0.5117 1.00025 0.20582 0.0
C2790 C 0.50004 0.98166 0.1987 0.0
C2791 C 0.51077 0.96337 0.18962 0.0
H2792 H 0.50334 1.0146 0.21249 0.0
H2793 H 0.60626 0.83611 0.12132 0.0
H2794 H 0.40965 0.28533 0.78575 0.0
H2795 H 0.4162 0.27323 0.83209 0.0
H2796 H 0.40594 0.33812 0.86129 0.0
H2797 H 0.39675 0.34986 0.81545 0.0
H2798 H 0.44462 0.28038 0.86632 0.0
H2799 H 0.3902 0.33794 0.92723 0.0
H2800 H 0.35658 0.35892 0.92153 0.0
H2801 H 0.33407 0.31373 0.86162 0.0
H2802 H 0.36744 0.29239 0.86719 0.0
H2803 H 0.4608 0.24546 1.00275 0.0
H2804 H 0.45889 0.26958 0.96315 0.0
H2805 H 0.38989 0.25855 0.95853 0.0
H2806 H 0.39159 0.23704 1.00033 0.0
H2807 H 0.39499 0.29528 0.94318 0.0
H2808 H 0.43433 0.23109 0.89563 0.0
H2809 H 0.4645 0.20551 0.88953 0.0
H2810 H 0.50972 0.25418 0.91543 0.0
H2811 H 0.47991 0.28044 0.91981 0.0
C2812 C 0.40818 0.29701 0.80198 0.0
C2813 C 0.40237 0.31859 0.7965 0.0
C2814 C 0.41233 0.2901 0.82858 0.0
C2815 C 0.41136 0.30466 0.85042 0.0
C2816 C 0.40633 0.32639 0.845 0.0
C2817 C 0.40148 0.33318 0.81848 0.0
C2818 C 0.41562 0.29681 0.87866 0.0
C2819 C 0.43369 0.28364 0.88311 0.0
C2820 C 0.40159 0.30114 0.90076 0.0
C2821 C 0.38142 0.31376 0.89739 0.0
C2822 C 0.37805 0.33249 0.91288 0.0
C2823 C 0.35904 0.34443 0.90967 0.0
C2824 C 0.34324 0.33771 0.89114 0.0
C2825 C 0.34636 0.31897 0.87588 0.0
C2826 C 0.36532 0.30696 0.87903 0.0
C2827 C 0.44521 0.24883 0.99362 0.0
C2828 C 0.42631 0.23953 1.00437 0.0
C2829 C 0.44418 0.26211 0.97046 0.0
C2830 C 0.42442 0.26528 0.95679 0.0
C2831 C 0.40544 0.25643 0.96835 0.0
C2832 C 0.40636 0.244 0.99218 0.0
C2833 C 0.42317 0.27746 0.93042 0.0
C2834 C 0.40593 0.29196 0.92644 0.0
C2835 C 0.43738 0.27355 0.9083 0.0
C2836 C 0.45488 0.25739 0.90911 0.0
C2837 C 0.45068 0.23617 0.90046 0.0
C2838 C 0.46774 0.2217 0.89683 0.0
C2839 C 0.48897 0.22808 0.90259 0.0
C2840 C 0.49325 0.24915 0.91131 0.0
C2841 C 0.47632 0.26392 0.91405 0.0
H2842 H 0.50212 0.21678 0.89998 0.0
H2843 H 0.32855 0.34699 0.88867 0.0
H2844 H 0.12272 0.20311 0.73315 0.0
H2845 H 0.09719 0.19883 0.69597 0.0
H2846 H 0.07015 0.1423 0.73558 0.0
H2847 H 0.09667 0.14611 0.77269 0.0
H2848 H 0.07921 0.13475 0.68287 0.0
H2849 H 1.04061 0.18868 0.73036 0.0
H2850 H 1.0366 0.22248 0.75624 0.0
H2851 H 0.05712 0.25936 0.68638 0.0
H2852 H 0.06164 0.22578 0.66018 0.0
H2853 H 1.01244 0.13256 0.56362 0.0
H2854 H 1.02202 0.13438 0.61201 0.0
H2855 H 0.06061 0.19143 0.59614 0.0
H2856 H 0.05067 0.19003 0.54799 0.0
H2857 H 1.03717 0.19536 0.64285 0.0
H2858 H 0.08372 0.14157 0.60075 0.0
H2859 H 0.0912 0.1079 0.57575 0.0
H2860 H 0.05691 0.07112 0.63659 0.0
H2861 H 1.04905 0.10462 0.66181 0.0
C2862 C 0.11142 0.18972 0.73394 0.0
C2863 C 0.11196 0.17469 0.75545 0.0
C2864 C 0.09655 0.18749 0.71289 0.0
C2865 C 0.08158 0.17037 0.7131 0.0
C2866 C 0.08151 0.15569 0.73511 0.0
C2867 C 0.09653 0.15794 0.75632 0.0
C2868 C 0.06747 0.16712 0.68903 0.0
C2869 C 0.06945 0.14776 0.67451 0.0
C2870 C 0.05503 0.18424 0.67797 0.0
C2871 C 0.05149 0.20463 0.69327 0.0
C2872 C 1.04431 0.20398 0.7205 0.0
C2873 C 1.04197 0.22311 0.73525 0.0
C2874 C 1.0466 0.24305 0.72296 0.0
C2875 C 0.0535 0.2439 0.69585 0.0
C2876 C 0.05591 0.22482 0.68102 0.0
C2877 C 1.02276 0.14563 0.57052 0.0
C2878 C 1.03098 0.16104 0.55194 0.0
C2879 C 1.0283 0.14658 0.59813 0.0
C2880 C 1.04216 0.16293 0.60762 0.0
C2881 C 1.04989 0.17866 0.58925 0.0
C2882 C 1.0444 0.1777 0.56169 0.0
C2883 C 1.04958 0.16329 0.63636 0.0
C2884 C 1.04633 0.18212 0.65167 0.0
C2885 C 0.06089 0.1457 0.64818 0.0
C2886 C 0.06551 0.12561 0.63292 0.0
C2887 C 0.0776 0.12632 0.60864 0.0
C2888 C 0.08195 0.10727 0.59448 0.0
C2889 C 0.07441 0.08741 0.60449 0.0
C2890 C 0.06265 0.08653 0.6288 0.0
C2891 C 0.05825 0.10554 0.64304 0.0
H2892 H 0.0777 0.07268 0.59345 0.0
H2893 H 1.04483 0.25784 0.73444 0.0
H2894 H 0.20339 0.84473 0.52271 0.0
H2895 H 0.20501 0.81633 0.48803 0.0
H2896 H 0.15066 0.84499 0.44638 0.0
H2897 H 0.14888 0.87316 0.48093 0.0
H2898 H 0.14941 0.79868 0.44671 0.0
H2899 H 0.19745 0.85758 0.41599 0.0
H2900 H 0.22633 0.88427 0.4221 0.0
H2901 H 0.269 0.8345 0.45146 0.0
H2902 H 0.24007 0.80723 0.44461 0.0
H2903 H 0.15551 0.79258 0.30433 0.0
H2904 H 0.15304 0.79964 0.35315 0.0
H2905 H 0.21314 0.76587 0.36628 0.0
H2906 H 0.216 0.75926 0.31731 0.0
H2907 H 0.21432 0.8049 0.38761 0.0
H2908 H 0.16644 0.74587 0.39261 0.0
H2909 H 0.13605 0.72212 0.37975 0.0
H2910 H 0.09105 0.77287 0.3974 0.0
H2911 H 0.12119 0.79714 0.4098 0.0
C2912 C 0.19161 0.84476 0.50639 0.0
C2913 C 0.17623 0.86136 0.50428 0.0
C2914 C 0.19254 0.82854 0.48662 0.0
C2915 C 0.17793 0.82855 0.46465 0.0
C2916 C 0.16199 0.84458 0.46324 0.0
C2917 C 0.16121 0.86088 0.48278 0.0
C2918 C 0.18069 0.81358 0.4414 0.0
C2919 C 0.16362 0.7998 0.43379 0.0
C2920 C 0.19945 0.81458 0.42505 0.0
C2921 C 0.21668 0.83058 0.43011 0.0
C2922 C 0.21297 0.8524 0.4239 0.0
C2923 C 0.2294 0.86761 0.42743 0.0
C2924 C 0.24959 0.86122 0.43748 0.0
C2925 C 0.25336 0.83946 0.44378 0.0
C2926 C 0.23698 0.82409 0.43993 0.0
C2927 C 0.16817 0.78661 0.31763 0.0
C2928 C 0.1861 0.77564 0.30693 0.0
C2929 C 0.16655 0.79032 0.3456 0.0
C2930 C 0.18277 0.78305 0.36344 0.0
C2931 C 0.20034 0.77146 0.35292 0.0
C2932 C 0.20196 0.76771 0.32494 0.0
C2933 C 0.18281 0.79025 0.39222 0.0
C2934 C 0.20044 0.80275 0.40093 0.0
C2935 C 0.16448 0.78794 0.40938 0.0
C2936 C 0.14617 0.77341 0.40205 0.0
C2937 C 0.15009 0.75206 0.39356 0.0
C2938 C 0.13289 0.73848 0.38636 0.0
C2939 C 0.11163 0.74598 0.38775 0.0
C2940 C 0.10753 0.76708 0.39635 0.0
C2941 C 0.12468 0.78076 0.4035 0.0
H2942 H 0.09833 0.73543 0.3822 0.0
H2943 H 0.26235 0.87305 0.44026 0.0
H2944 H 1.02575 0.602 0.43727 0.0
H2945 H 1.046 0.61403 0.39701 0.0
H2946 H 1.003 0.66835 0.38761 0.0
H2947 H 0.98264 0.6563 0.42797 0.0
H2948 H 1.01301 0.64739 0.33772 0.0
H2949 H 1.04852 0.67885 0.41419 0.0
H2950 H 0.06556 0.67958 0.45962 0.0
H2951 H 0.11436 0.63543 0.43247 0.0
H2952 H 0.09741 0.63416 0.38696 0.0
H2953 H 0.11834 0.70268 0.27878 0.0
H2954 H 0.09194 0.69616 0.31491 0.0
H2955 H 0.07081 0.63795 0.27441 0.0
H2956 H 0.09711 0.64471 0.23792 0.0
H2957 H 0.09089 0.66485 0.34974 0.0
H2958 H 1.01859 0.62648 0.29132 0.0
H2959 H 1.00126 0.6294 0.24615 0.0
H2960 H 1.02478 0.69458 0.23766 0.0
H2961 H 1.04195 0.69217 0.28294 0.0
C2962 C 1.02049 0.61637 0.42644 0.0
C2963 C 1.00271 0.62831 0.43576 0.0
C2964 C 1.03209 0.62326 0.40355 0.0
C2965 C 1.02604 0.64213 0.38947 0.0
C2966 C 1.0079 0.65375 0.39822 0.0
C2967 C 0.99642 0.64698 0.42134 0.0
C2968 C 1.0393 0.65008 0.36634 0.0
C2969 C 1.03003 0.65125 0.34025 0.0
C2970 C 0.06133 0.65561 0.36987 0.0
C2971 C 0.07155 0.65623 0.39725 0.0
C2972 C 0.06276 0.66913 0.41798 0.0
C2973 C 0.07243 0.66968 0.44373 0.0
C2974 C 0.091 0.65752 0.44895 0.0
C2975 C 0.09996 0.64481 0.42841 0.0
C2976 C 0.09033 0.64418 0.40262 0.0
C2977 C 0.10796 0.68858 0.27752 0.0
C2978 C 0.10983 0.67411 0.25572 0.0
C2979 C 0.09285 0.68488 0.29813 0.0
C2980 C 0.07935 0.66658 0.29742 0.0
C2981 C 0.08079 0.65238 0.27521 0.0
C2982 C 0.0958 0.65623 0.25436 0.0
C2983 C 0.06481 0.66174 0.32078 0.0
C2984 C 0.07385 0.66109 0.34703 0.0
C2985 C 1.04247 0.65724 0.31741 0.0
C2986 C 1.03172 0.65905 0.29044 0.0
C2987 C 1.01995 0.64147 0.27989 0.0
C2988 C 1.01018 0.64304 0.25425 0.0
C2989 C 1.01197 0.66214 0.23901 0.0
C2990 C 1.02346 0.67977 0.24944 0.0
C2991 C 1.03323 0.6783 0.27509 0.0
H2992 H 1.00444 0.6633 0.21914 0.0
H2993 H 0.09848 0.65799 0.46889 0.0
H2994 H 0.20525 0.25185 0.69688 0.0
H2995 H 0.19791 0.26246 0.65019 0.0
H2996 H 0.17473 0.32435 0.6778 0.0
H2997 H 0.17938 0.31285 0.72479 0.0
H2998 H 0.15266 0.31507 0.63763 0.0
H2999 H 0.2297 0.31378 0.65294 0.0
H3000 H 0.26489 0.29784 0.66548 0.0
H3001 H 0.25765 0.25043 0.60247 0.0
H3002 H 0.22232 0.26603 0.58971 0.0
H3003 H 0.1823 0.39094 0.54439 0.0
H3004 H 0.18554 0.36552 0.58164 0.0
H3005 H 0.18337 0.31231 0.52521 0.0
H3006 H 0.18107 0.33821 0.48683 0.0
H3007 H 0.21416 0.30919 0.57303 0.0
H3008 H 0.13964 0.32624 0.5522 0.0
H3009 H 0.11324 0.35453 0.5403 0.0
H3010 H 0.12235 0.3838 0.61858 0.0
H3011 H 0.14936 0.35619 0.6306 0.0
C3012 C 0.19796 0.26749 0.69331 0.0
C3013 C 0.19316 0.28154 0.71502 0.0
C3014 C 0.19414 0.2737 0.66633 0.0
C3015 C 0.18634 0.29446 0.66024 0.0
C3016 C 0.1809 0.30826 0.68181 0.0
C3017 C 0.184 0.30179 0.70883 0.0
C3018 C 0.18478 0.30237 0.63158 0.0
C3019 C 0.16609 0.31362 0.62353 0.0
C3020 C 0.20218 0.3004 0.61286 0.0
C3021 C 0.22327 0.29085 0.62065 0.0
C3022 C 0.23555 0.29985 0.64192 0.0
C3023 C 0.25553 0.2909 0.64903 0.0
C3024 C 0.26345 0.27307 0.63486 0.0
C3025 C 0.25146 0.2642 0.61348 0.0
C3026 C 0.23147 0.27309 0.60629 0.0
C3027 C 0.18263 0.37388 0.5396 0.0
C3028 C 0.18115 0.3666 0.51258 0.0
C3029 C 0.18468 0.35936 0.56102 0.0
C3030 C 0.18428 0.33711 0.55616 0.0
C3031 C 0.18364 0.32952 0.52923 0.0
C3032 C 0.18221 0.34427 0.50744 0.0
C3033 C 0.18253 0.32237 0.57983 0.0
C3034 C 0.20048 0.30982 0.58686 0.0
C3035 C 0.16494 0.32413 0.59817 0.0
C3036 C 0.1465 0.33895 0.59238 0.0
C3037 C 0.13586 0.33856 0.56701 0.0
C3038 C 0.12093 0.35462 0.56013 0.0
C3039 C 0.11606 0.3709 0.5787 0.0
C3040 C 0.12606 0.37111 0.60424 0.0
C3041 C 0.14119 0.35524 0.61111 0.0
H3042 H 0.1045 0.38334 0.57333 0.0
H3043 H 0.27893 0.26617 0.64039 0.0
H3044 H 0.48487 0.39373 0.77566 0.0
H3045 H 0.5085 0.39735 0.81541 0.0
H3046 H 0.51996 0.4644 0.79481 0.0
H3047 H 0.49699 0.46048 0.75405 0.0
H3048 H 0.5524 0.41135 0.82233 0.0
H3049 H 0.51057 0.48919 0.86692 0.0
H3050 H 0.47453 0.50593 0.87057 0.0
H3051 H 0.44466 0.44685 0.84497 0.0
H3052 H 0.48007 0.42919 0.84297 0.0
H3053 H 0.5801 0.46892 0.95985 0.0
H3054 H 0.56886 0.46871 0.91185 0.0
H3055 H 0.54962 0.4018 0.91983 0.0
H3056 H 0.56053 0.40203 0.96791 0.0
H3057 H 0.52469 0.45777 0.89653 0.0
H3058 H 0.56119 0.37881 0.85601 0.0
H3059 H 0.5937 0.35637 0.86272 0.0
H3060 H 0.6301 0.4126 0.88604 0.0
H3061 H 0.59788 0.4354 0.87935 0.0
C3062 C 0.49288 0.40907 0.77929 0.0
C3063 C 0.48917 0.42685 0.76202 0.0
C3064 C 0.50636 0.41112 0.80191 0.0
C3065 C 0.51577 0.43118 0.80813 0.0
C3066 C 0.51276 0.44881 0.79033 0.0
C3067 C 0.49979 0.44654 0.76707 0.0
C3068 C 0.52753 0.43372 0.83419 0.0
C3069 C 0.5464 0.42159 0.83851 0.0
C3070 C 0.51957 0.44703 0.85532 0.0
C3071 C 0.49824 0.45803 0.85385 0.0
C3072 C 0.49633 0.4798 0.86173 0.0
C3073 C 0.47596 0.4894 0.86377 0.0
C3074 C 0.45735 0.47756 0.85754 0.0
C3075 C 0.45907 0.45606 0.84941 0.0
C3076 C 0.47933 0.44621 0.84787 0.0
C3077 C 0.57369 0.45413 0.95122 0.0
C3078 C 0.57096 0.43555 0.96752 0.0
C3079 C 0.56732 0.45402 0.92389 0.0
C3080 C 0.5586 0.4352 0.91235 0.0
C3081 C 0.55654 0.41641 0.92835 0.0
C3082 C 0.56256 0.41661 0.95579 0.0
C3083 C 0.5496 0.43572 0.88444 0.0
C3084 C 0.53107 0.44819 0.87992 0.0
C3085 C 0.55749 0.4223 0.8635 0.0
C3086 C 0.57705 0.40878 0.86736 0.0
C3087 C 0.57615 0.3864 0.86249 0.0
C3088 C 0.59452 0.3736 0.86636 0.0
C3089 C 0.61393 0.38304 0.87494 0.0
C3090 C 0.61502 0.40529 0.8796 0.0
C3091 C 0.59669 0.41815 0.87584 0.0
H3092 H 0.62813 0.37311 0.87792 0.0
H3093 H 0.44159 0.48504 0.85908 0.0
H3094 H 0.45708 0.73838 0.02161 0.0
H3095 H 0.45295 0.76791 0.05412 0.0
H3096 H 0.3877 0.77838 0.02538 0.0
H3097 H 0.39285 0.75049 0.99093 0.0
H3098 H 0.40097 0.81419 0.03907 0.0
H3099 H 0.40017 0.74668 0.09327 0.0
H3100 H 0.41505 0.71147 0.10795 0.0
H3101 H 0.47638 0.74172 0.12449 0.0
H3102 H 0.46144 0.77719 0.11134 0.0
H3103 H 0.37567 0.82961 0.19456 0.0
H3104 H 0.38557 0.8071 0.15572 0.0
H3105 H 0.41092 0.8635 0.11391 0.0
H3106 H 0.3996 0.88615 0.15218 0.0
H3107 H 0.42029 0.79623 0.13466 0.0
H3108 H 0.40978 0.85696 0.04532 0.0
H3109 H 0.38779 0.88886 0.03328 0.0
H3110 H 0.33755 0.86711 0.08749 0.0
H3111 H 0.35911 0.83497 0.09959 0.0
C3112 C 0.44195 0.74717 0.02224 0.0
C3113 C 0.42508 0.74196 1.00434 0.0
C3114 C 0.43948 0.76391 0.04099 0.0
C3115 C 0.41966 0.77493 0.04319 0.0
C3116 C 0.40313 0.77018 0.0244 0.0
C3117 C 0.40599 0.75413 1.00481 0.0
C3118 C 0.41565 0.79056 0.06571 0.0
C3119 C 0.40525 0.81025 0.05996 0.0
C3120 C 0.42085 0.78556 0.09313 0.0
C3121 C 0.42977 0.76442 0.10133 0.0
C3122 C 0.41678 0.74575 0.10027 0.0
C3123 C 0.42516 0.72581 0.10853 0.0
C3124 C 0.44658 0.72438 0.11747 0.0
C3125 C 0.45967 0.74287 0.1181 0.0
C3126 C 0.45121 0.76292 0.11054 0.0
C3127 C 0.38326 0.83711 0.17696 0.0
C3128 C 0.38681 0.8595 0.17613 0.0
C3129 C 0.389 0.82429 0.15481 0.0
C3130 C 0.39882 0.83356 0.1316 0.0
C3131 C 0.40289 0.85597 0.13116 0.0
C3132 C 0.3966 0.86889 0.15307 0.0
C3133 C 0.40492 0.81955 0.10824 0.0
C3134 C 0.41601 0.80027 0.1138 0.0
C3135 C 0.39934 0.82453 0.08088 0.0
C3136 C 0.38618 0.84372 0.07359 0.0
C3137 C 0.39402 0.85897 0.05461 0.0
C3138 C 0.38163 0.8771 0.04778 0.0
C3139 C 0.36132 0.88006 0.05969 0.0
C3140 C 0.35332 0.86485 0.07837 0.0
C3141 C 0.36562 0.84669 0.08524 0.0
H3142 H 0.35177 0.8941 0.05439 0.0
H3143 H 0.45308 0.70891 0.12377 0.0
H3144 H 0.09808 0.45479 0.56725 0.0
H3145 H 0.08869 0.44762 0.61443 0.0
H3146 H 1.03387 0.40947 0.58843 0.0
H3147 H 1.04453 0.41449 0.54121 0.0
H3148 H 0.05598 0.46153 0.63842 0.0
H3149 H 1.01258 0.37994 0.63358 0.0
H3150 H 1.01544 0.34387 0.6127 0.0
H3151 H 0.08449 0.35021 0.6099 0.0
H3152 H 0.08208 0.3868 0.63005 0.0
H3153 H 0.96301 0.4327 0.71871 0.0
H3154 H 0.98948 0.43415 0.68199 0.0
H3155 H 1.04091 0.42297 0.73971 0.0
H3156 H 1.01443 0.42248 0.77714 0.0
H3157 H 1.02889 0.39377 0.68124 0.0
H3158 H 0.0525 0.46074 0.72426 0.0
H3159 H 1.04491 0.49586 0.74572 0.0
H3160 H 1.01348 0.51774 0.6726 0.0
H3161 H 1.02051 0.48253 0.65094 0.0
C3162 C 0.0845 0.44415 0.57136 0.0
C3163 C 0.07204 0.43534 0.55003 0.0
C3164 C 0.07901 0.44023 0.59855 0.0
C3165 C 0.06067 0.42781 0.60523 0.0
C3166 C 1.04845 0.41862 0.58408 0.0
C3167 C 0.05428 0.42202 0.55686 0.0
C3168 C 0.05279 0.4269 0.63389 0.0
C3169 C 0.05061 0.44656 0.64795 0.0
C3170 C 1.04539 0.40751 0.64643 0.0
C3171 C 1.04715 0.38611 0.63316 0.0
C3172 C 1.0284 0.37372 0.62833 0.0
C3173 C 1.02993 0.35328 0.61648 0.0
C3174 C 1.05017 0.34491 0.60972 0.0
C3175 C 0.06889 0.35701 0.61471 0.0
C3176 C 0.06744 0.37763 0.62617 0.0
C3177 C 0.97997 0.43078 0.72375 0.0
C3178 C 0.98667 0.42747 0.75086 0.0
C3179 C 0.99504 0.43165 0.70273 0.0
C3180 C 1.01703 0.42873 0.70828 0.0
C3181 C 1.02394 0.42545 0.73523 0.0
C3182 C 1.00884 0.4252 0.75652 0.0
C3183 C 1.03228 0.42822 0.68524 0.0
C3184 C 1.03532 0.40846 0.67203 0.0
C3185 C 1.04031 0.44747 0.67338 0.0
C3186 C 1.03662 0.46884 0.68617 0.0
C3187 C 1.04367 0.47291 0.7129 0.0
C3188 C 1.03954 0.49286 0.72508 0.0
C3189 C 1.02855 0.50896 0.71061 0.0
C3190 C 1.02183 0.5052 0.68386 0.0
C3191 C 1.02588 0.48526 0.67164 0.0
H3192 H 1.02536 0.5244 0.72006 0.0
H3193 H 0.05137 0.329 0.60075 0.0
H3194 H 0.87982 0.83218 0.30848 0.0
H3195 H 0.88019 0.82117 0.35667 0.0
H3196 H 0.9464 0.80041 0.34838 0.0
H3197 H 0.94606 0.81124 0.30029 0.0
H3198 H 0.88805 0.77862 0.37483 0.0
H3199 H 0.9722 0.81021 0.40864 0.0
H3200 H 0.99609 0.84165 0.40024 0.0
H3201 H 0.94093 0.88072 0.38053 0.0
H3202 H 0.91671 0.84957 0.38884 0.0
H3203 H 0.9564 0.73243 0.48749 0.0
H3204 H 0.95179 0.75672 0.44844 0.0
H3205 H 0.88865 0.7745 0.47806 0.0
H3206 H 0.89361 0.75053 0.5179 0.0
H3207 H 0.94125 0.80252 0.44428 0.0
H3208 H 0.8569 0.76902 0.41294 0.0
H3209 H 0.83532 0.73531 0.41323 0.0
H3210 H 0.89316 0.69801 0.42352 0.0
H3211 H 0.91515 0.73135 0.42267 0.0
C3212 C 0.89449 0.82548 0.31709 0.0
C3213 C 0.91285 0.82236 0.30069 0.0
C3214 C 0.89468 0.81921 0.34453 0.0
C3215 C 0.91337 0.81016 0.3561 0.0
C3216 C 0.9319 0.8076 0.33992 0.0
C3217 C 0.93162 0.81358 0.31243 0.0
C3218 C 0.91311 0.80163 0.38437 0.0
C3219 C 0.89921 0.78425 0.39036 0.0
C3220 C 0.92819 0.80861 0.40417 0.0
C3221 C 0.94265 0.82748 0.39921 0.0
C3222 C 0.96516 0.82552 0.40258 0.0
C3223 C 0.97876 0.84329 0.39776 0.0
C3224 C 0.97004 0.86315 0.38973 0.0
C3225 C 0.94768 0.86529 0.38655 0.0
C3226 C 0.93402 0.84757 0.39123 0.0
C3227 C 0.9416 0.74159 0.48572 0.0
C3228 C 0.92502 0.73906 0.50501 0.0
C3229 C 0.93906 0.7556 0.46359 0.0
C3230 C 0.91972 0.76704 0.46015 0.0
C3231 C 0.90359 0.76556 0.48027 0.0
C3232 C 0.90644 0.75195 0.50294 0.0
C3233 C 0.91622 0.77944 0.43466 0.0
C3234 C 0.92956 0.79739 0.42911 0.0
C3235 C 0.9008 0.77279 0.41505 0.0
C3236 C 0.88763 0.75278 0.41826 0.0
C3237 C 0.865 0.75363 0.41551 0.0
C3238 C 0.85272 0.73457 0.41554 0.0
C3239 C 0.8629 0.71454 0.41819 0.0
C3240 C 0.88533 0.71354 0.42139 0.0
C3241 C 0.89771 0.73254 0.42127 0.0
H3242 H 0.85338 0.69979 0.41804 0.0
H3243 H 0.98059 0.87689 0.38605 0.0
H3244 H 0.47682 0.61302 0.1118 0.0
H3245 H 0.49638 0.62245 0.15334 0.0
H3246 H 0.53475 0.66873 0.10833 0.0
H3247 H 0.5166 0.65836 0.06626 0.0
H3248 H 0.54601 0.61854 0.15265 0.0
H3249 H 0.5353 0.71279 0.16543 0.0
H3250 H 0.50635 0.74004 0.16797 0.0
H3251 H 0.45893 0.68967 0.17817 0.0
H3252 H 0.48757 0.66216 0.17634 0.0
H3253 H 0.62307 0.69414 0.22888 0.0
H3254 H 0.59396 0.68768 0.19607 0.0
H3255 H 0.56956 0.63561 0.24646 0.0
H3256 H 0.5988 0.64184 0.27922 0.0
H3257 H 0.54755 0.68738 0.20408 0.0
H3258 H 0.55356 0.59568 0.20154 0.0
H3259 H 0.58013 0.5674 0.2133 0.0
H3260 H 0.6321 0.61045 0.19125 0.0
H3261 H 0.60595 0.63867 0.17896 0.0
C3262 C 0.48948 0.62513 0.11053 0.0
C3263 C 0.49532 0.63453 0.08529 0.0
C3264 C 0.50041 0.63072 0.13446 0.0
C3265 C 0.51687 0.64637 0.13388 0.0
C3266 C 0.52186 0.65681 0.10921 0.0
C3267 C 0.51134 0.65086 0.08512 0.0
C3268 C 0.53097 0.64964 0.15789 0.0
C3269 C 0.54611 0.63349 0.16413 0.0
C3270 C 0.5311 0.66911 0.17285 0.0
C3271 C 0.51361 0.68536 0.17031 0.0
C3272 C 0.51867 0.7075 0.16791 0.0
C3273 C 0.50233 0.72301 0.16948 0.0
C3274 C 0.48086 0.71658 0.17345 0.0
C3275 C 0.47559 0.69462 0.17517 0.0
C3276 C 0.49187 0.67905 0.1737 0.0
C3277 C 0.61156 0.68127 0.23293 0.0
C3278 C 0.61322 0.66847 0.25661 0.0
C3279 C 0.59482 0.67775 0.21432 0.0
C3280 C 0.57965 0.66117 0.21885 0.0
C3281 C 0.58114 0.64848 0.2426 0.0
C3282 C 0.59777 0.65213 0.26136 0.0
C3283 C 0.56284 0.65664 0.19811 0.0
C3284 C 0.54733 0.67251 0.19246 0.0
C3285 C 0.56199 0.63673 0.18414 0.0
C3286 C 0.57781 0.61934 0.18965 0.0
C3287 C 0.57068 0.59899 0.19899 0.0
C3288 C 0.58568 0.58297 0.20581 0.0
C3289 C 0.60783 0.58713 0.20326 0.0
C3290 C 0.61501 0.60718 0.19343 0.0
C3291 C 0.6001 0.6232 0.1865 0.0
H3292 H 0.61939 0.57478 0.20885 0.0
H3293 H 0.46827 0.72862 0.17514 0.0
H3294 H 0.69055 0.33634 0.03423 0.0
H3295 H 0.69945 0.31053 0.99826 0.0
H3296 H 0.68176 0.35779 0.93723 0.0
H3297 H 0.67298 0.3834 0.97263 0.0
H3298 H 0.66744 0.31944 0.92275 0.0
H3299 H 0.7345 0.35007 0.95369 0.0
H3300 H 0.76192 0.35983 0.98809 0.0
H3301 H 0.77045 0.29271 0.00831 0.0
H3302 H 0.74289 0.28255 0.97421 0.0
H3303 H 0.75708 0.27699 0.82606 0.0
H3304 H 0.74657 0.29757 0.86642 0.0
H3305 H 0.69171 0.25505 0.87827 0.0
H3306 H 0.702 0.23488 0.83761 0.0
H3307 H 0.74193 0.28998 0.91845 0.0
H3308 H 0.64918 0.2829 0.9021 0.0
H3309 H 0.62329 0.27819 0.86425 0.0
H3310 H 0.66887 0.30686 0.80853 0.0
H3311 H 0.69489 0.312 0.84608 0.0
C3312 C 0.68845 0.34118 0.01318 0.0
C3313 C 0.68107 0.36203 1.00644 0.0
C3314 C 0.69354 0.32641 0.99263 0.0
C3315 C 0.69143 0.3323 0.96503 0.0
C3316 C 0.6834 0.35281 0.95835 0.0
C3317 C 0.67829 0.36747 0.97876 0.0
C3318 C 0.69838 0.31764 0.94286 0.0
C3319 C 0.68366 0.31281 0.92195 0.0
C3320 C 0.71973 0.30953 0.94137 0.0
C3321 C 0.7365 0.31556 0.9616 0.0
C3322 C 0.74214 0.3374 0.96558 0.0
C3323 C 0.75772 0.34301 0.98499 0.0
C3324 C 0.76788 0.32691 1.00041 0.0
C3325 C 0.76254 0.30516 0.99637 0.0
C3326 C 0.74697 0.29946 0.97698 0.0
C3327 C 0.74286 0.27199 0.83742 0.0
C3328 C 0.73014 0.2545 0.82854 0.0
C3329 C 0.73689 0.28371 0.8605 0.0
C3330 C 0.71816 0.27808 0.8752 0.0
C3331 C 0.70596 0.26003 0.86696 0.0
C3332 C 0.71179 0.24851 0.84372 0.0
C3333 C 0.71092 0.29162 0.89839 0.0
C3334 C 0.7256 0.29629 0.91945 0.0
C3335 C 0.68976 0.30029 0.8995 0.0
C3336 C 0.67406 0.29759 0.87686 0.0
C3337 C 0.65363 0.28827 0.88179 0.0
C3338 C 0.63895 0.28551 0.86038 0.0
C3339 C 0.64446 0.29215 0.83399 0.0
C3340 C 0.66464 0.30165 0.82896 0.0
C3341 C 0.67937 0.30447 0.85029 0.0
H3342 H 0.63308 0.28997 0.81745 0.0
H3343 H 0.77991 0.33128 0.01546 0.0
H3344 H 0.34613 0.23085 0.20151 0.0
H3345 H 0.33375 0.25377 0.2389 0.0
H3346 H 0.3018 0.29575 0.18118 0.0
H3347 H 0.31441 0.27311 0.14369 0.0
H3348 H 0.32365 0.31867 0.21999 0.0
H3349 H 0.27271 0.26003 0.21716 0.0
H3350 H 0.26113 0.2218 0.21682 0.0
H3351 H 0.28984 0.21202 0.29563 0.0
H3352 H 0.30187 0.25014 0.29626 0.0
H3353 H 0.25651 0.37499 0.31311 0.0
H3354 H 0.26886 0.35205 0.27572 0.0
H3355 H 0.30106 0.31023 0.33341 0.0
H3356 H 0.28848 0.3329 0.37091 0.0
H3357 H 0.27905 0.28724 0.29461 0.0
H3358 H 0.32999 0.34598 0.29734 0.0
H3359 H 0.34146 0.38423 0.29757 0.0
H3360 H 0.31259 0.39385 0.21882 0.0
H3361 H 0.30066 0.35569 0.21829 0.0
C3362 C 0.33665 0.24509 0.19677 0.0
C3363 C 0.33116 0.25011 0.16965 0.0
C3364 C 0.32945 0.25807 0.21817 0.0
C3365 C 0.31664 0.27634 0.21285 0.0
C3366 C 0.31158 0.28169 0.18576 0.0
C3367 C 0.31867 0.26865 0.16438 0.0
C3368 C 0.30832 0.28977 0.23556 0.0
C3369 C 0.31367 0.31186 0.23612 0.0
C3370 C 0.29565 0.28079 0.25689 0.0
C3371 C 0.28839 0.25788 0.25662 0.0
C3372 C 0.27672 0.24968 0.23432 0.0
C3373 C 0.27004 0.22804 0.23409 0.0
C3374 C 0.2748 0.21448 0.25616 0.0
C3375 C 0.2862 0.22254 0.27853 0.0
C3376 C 0.29294 0.24417 0.27884 0.0
C3377 C 0.26604 0.36079 0.31784 0.0
C3378 C 0.27161 0.35582 0.34496 0.0
C3379 C 0.27323 0.34779 0.29645 0.0
C3380 C 0.28609 0.32956 0.30176 0.0
C3381 C 0.29123 0.32426 0.32884 0.0
C3382 C 0.28416 0.33732 0.35022 0.0
C3383 C 0.29439 0.31613 0.27905 0.0
C3384 C 0.28904 0.29404 0.27848 0.0
C3385 C 0.30703 0.32511 0.25769 0.0
C3386 C 0.31424 0.34804 0.25791 0.0
C3387 C 0.32593 0.35629 0.28017 0.0
C3388 C 0.33254 0.37795 0.28034 0.0
C3389 C 0.32771 0.39148 0.25826 0.0
C3390 C 0.3163 0.38336 0.23593 0.0
C3391 C 0.30962 0.36171 0.23568 0.0
H3392 H 0.33285 0.40824 0.25843 0.0
H3393 H 0.26962 0.19773 0.25595 0.0
H3394 H 0.58731 0.61148 0.42518 0.0
H3395 H 0.56411 0.58413 0.44635 0.0
H3396 H 0.59675 0.59348 0.52315 0.0
H3397 H 0.62079 0.62015 0.50176 0.0
H3398 H 0.59084 0.55149 0.51339 0.0
H3399 H 0.54626 0.61509 0.5105 0.0
H3400 H 0.52847 0.64629 0.48852 0.0
H3401 H 0.49363 0.60345 0.43552 0.0
H3402 H 0.51144 0.572 0.45696 0.0
H3403 H 0.51472 0.49588 0.59586 0.0
H3404 H 0.53805 0.52334 0.57524 0.0
H3405 H 0.50425 0.5163 0.49881 0.0
H3406 H 0.47991 0.48978 0.51977 0.0
H3407 H 0.51087 0.55729 0.50863 0.0
H3408 H 0.55535 0.49373 0.51088 0.0
H3409 H 0.5732 0.46231 0.5323 0.0
H3410 H 0.6083 0.50463 0.58568 0.0
H3411 H 0.59044 0.53629 0.56482 0.0
C3412 C 0.58975 0.60756 0.4465 0.0
C3413 C 0.60595 0.618 0.46177 0.0
C3414 C 0.57628 0.59209 0.45865 0.0
C3415 C 0.57849 0.58698 0.48642 0.0
C3416 C 0.59471 0.59726 0.50171 0.0
C3417 C 0.60829 0.61264 0.48952 0.0
C3418 C 0.56402 0.57074 0.49944 0.0
C3419 C 0.57335 0.55289 0.51269 0.0
C3420 C 0.5412 0.57232 0.49791 0.0
C3421 C 0.53032 0.59121 0.48519 0.0
C3422 C 0.53491 0.61234 0.49404 0.0
C3423 C 0.52481 0.63006 0.4817 0.0
C3424 C 0.50997 0.62686 0.4606 0.0
C3425 C 0.50515 0.60591 0.45185 0.0
C3426 C 0.51522 0.58813 0.46411 0.0
C3427 C 0.51201 0.50036 0.57476 0.0
C3428 C 0.49537 0.49061 0.5595 0.0
C3429 C 0.52559 0.51586 0.56288 0.0
C3430 C 0.52314 0.52164 0.53534 0.0
C3431 C 0.50652 0.51202 0.52007 0.0
C3432 C 0.49275 0.49669 0.53202 0.0
C3433 C 0.53768 0.53796 0.52255 0.0
C3434 C 0.52836 0.55585 0.50935 0.0
C3435 C 0.56051 0.53638 0.52405 0.0
C3436 C 0.57141 0.51736 0.53645 0.0
C3437 C 0.56677 0.49632 0.5273 0.0
C3438 C 0.57691 0.47848 0.53933 0.0
C3439 C 0.59183 0.48147 0.56038 0.0
C3440 C 0.59671 0.50233 0.5694 0.0
C3441 C 0.58661 0.52024 0.55746 0.0
H3442 H 0.59965 0.46763 0.56968 0.0
H3443 H 0.50217 0.64061 0.45105 0.0
H3444 H 0.24302 0.83653 0.67143 0.0
H3445 H 0.25486 0.81338 0.70916 0.0
H3446 H 0.31613 0.84704 0.71125 0.0
H3447 H 0.30435 0.87037 0.67372 0.0
H3448 H 0.32173 0.80387 0.71379 0.0
H3449 H 0.27775 0.85625 0.75936 0.0
H3450 H 0.24477 0.87753 0.76767 0.0
H3451 H 0.20877 0.81906 0.78257 0.0
H3452 H 0.24148 0.7974 0.77397 0.0
H3453 H 0.35912 0.7638 0.84155 0.0
H3454 H 0.34704 0.78697 0.80397 0.0
H3455 H 0.2856 0.75357 0.80285 0.0
H3456 H 0.29761 0.73028 0.84033 0.0
H3457 H 0.27997 0.79649 0.79973 0.0
H3458 H 0.32382 0.74408 0.75424 0.0
H3459 H 0.35671 0.72269 0.74587 0.0
H3460 H 0.39285 0.78103 0.73068 0.0
H3461 H 0.36022 0.80281 0.73934 0.0
C3462 C 0.25891 0.8392 0.68014 0.0
C3463 C 0.27272 0.85536 0.66955 0.0
C3464 C 0.26568 0.82591 0.70167 0.0
C3465 C 0.28634 0.82857 0.71318 0.0
C3466 C 0.30015 0.84464 0.70264 0.0
C3467 C 0.29341 0.85793 0.68113 0.0
C3468 C 0.29367 0.81443 0.73599 0.0
C3469 C 0.31275 0.80248 0.73273 0.0
C3470 C 0.28169 0.81221 0.76045 0.0
C3471 C 0.26202 0.8252 0.76575 0.0
C3472 C 0.26276 0.84792 0.7642 0.0
C3473 C 0.24412 0.86005 0.769 0.0
C3474 C 0.22467 0.84965 0.77558 0.0
C3475 C 0.22384 0.82709 0.77744 0.0
C3476 C 0.24243 0.81488 0.77263 0.0
C3477 C 0.34314 0.76121 0.83309 0.0
C3478 C 0.32936 0.74513 0.84392 0.0
C3479 C 0.33622 0.7745 0.81164 0.0
C3480 C 0.31546 0.77189 0.80041 0.0
C3481 C 0.30166 0.75592 0.81123 0.0
C3482 C 0.30854 0.74265 0.8327 0.0
C3483 C 0.30805 0.78594 0.77755 0.0
C3484 C 0.28895 0.79788 0.78079 0.0
C3485 C 0.32 0.78813 0.75305 0.0
C3486 C 0.33962 0.77508 0.7477 0.0
C3487 C 0.33882 0.75236 0.74932 0.0
C3488 C 0.35741 0.74017 0.74449 0.0
C3489 C 0.37687 0.7505 0.73782 0.0
C3490 C 0.37777 0.77305 0.73589 0.0
C3491 C 0.35923 0.78533 0.74073 0.0
H3492 H 0.39125 0.74103 0.73409 0.0
H3493 H 0.21026 0.85907 0.77929 0.0
H3494 H 0.12831 0.54583 0.0937 0.0
H3495 H 0.10423 0.53114 0.05929 0.0
H3496 H 0.07141 0.59248 0.05344 0.0
H3497 H 0.09425 0.60677 0.08972 0.0
H3498 H 1.04289 0.56385 0.05256 0.0
H3499 H 0.10683 0.57278 1.00173 0.0
H3500 H 0.14568 0.57079 0.99063 0.0
H3501 H 0.14221 0.50139 0.99125 0.0
H3502 H 0.1034 0.50294 1.00275 0.0
H3503 H 1.01708 0.49459 0.92034 0.0
H3504 H 1.03934 0.52147 0.94385 0.0
H3505 H 1.01114 0.50191 0.02066 0.0
H3506 H 0.98793 0.47623 0.99724 0.0
H3507 H 0.06986 0.51737 0.97796 0.0
H3508 H 1.01064 0.54033 0.06661 0.0
H3509 H 0.97168 0.54722 0.07274 0.0
H3510 H 0.96539 0.56182 0.98744 0.0
H3511 H 1.00436 0.55534 0.98083 0.0
C3512 C 0.11584 0.5562 0.08541 0.0
C3513 C 0.11328 0.57753 0.09476 0.0
C3514 C 0.10228 0.54786 0.06524 0.0
C3515 C 0.08619 0.56078 0.05324 0.0
C3516 C 0.08374 0.58217 0.06221 0.0
C3517 C 0.09705 0.59042 0.08281 0.0
C3518 C 0.07124 0.55147 0.03248 0.0
C3519 C 1.04883 0.55383 0.03613 0.0
C3520 C 0.07885 0.53907 0.01027 0.0
C3521 C 0.1022 0.53799 1.00326 0.0
C3522 C 0.11438 0.55708 0.99967 0.0
C3523 C 0.13639 0.55604 0.99329 0.0
C3524 C 0.14641 0.53597 0.99027 0.0
C3525 C 0.13442 0.51692 0.99359 0.0
C3526 C 0.1124 0.51787 1.0 0.0
C3527 C 1.01523 0.49638 0.94215 0.0
C3528 C 1.00072 0.48312 0.95686 0.0
C3529 C 1.02815 0.51164 0.95562 0.0
C3530 C 1.02684 0.51394 0.98406 0.0
C3531 C 1.01221 0.50086 0.99868 0.0
C3532 C 0.99915 0.48586 0.98524 0.0
C3533 C 1.04158 0.52895 0.99889 0.0
C3534 C 0.06394 0.52767 0.99411 0.0
C3535 C 1.0339 0.5431 0.01931 0.0
C3536 C 1.01044 0.54719 0.02321 0.0
C3537 C 1.00098 0.54513 0.04918 0.0
C3538 C 0.97888 0.54893 0.05273 0.0
C3539 C 0.96606 0.5549 0.03048 0.0
C3540 C 0.97532 0.55712 1.00464 0.0
C3541 C 0.99742 0.55335 1.00097 0.0
H3542 H 0.94895 0.55783 0.03328 0.0
H3543 H 0.16346 0.5352 0.98533 0.0
H3544 H 0.74331 0.88122 0.77018 0.0
H3545 H 0.76765 0.85642 0.74698 0.0
H3546 H 0.77032 0.81631 0.81919 0.0
H3547 H 0.74497 0.84036 0.84202 0.0
H3548 H 0.80747 0.84487 0.75558 0.0
H3549 H 0.77782 0.76384 0.80275 0.0
H3550 H 0.74426 0.74769 0.82121 0.0
H3551 H 0.70631 0.79081 0.77185 0.0
H3552 H 0.73962 0.80701 0.75282 0.0
H3553 H 0.86356 0.73428 0.7434 0.0
H3554 H 0.83615 0.75748 0.76397 0.0
H3555 H 0.82904 0.79185 0.68772 0.0
H3556 H 0.85672 0.7688 0.66708 0.0
H3557 H 0.79343 0.76584 0.7519 0.0
H3558 H 0.82247 0.84586 0.70314 0.0
H3559 H 0.85586 0.86199 0.68412 0.0
H3560 H 0.89428 0.82093 0.73566 0.0
H3561 H 0.86113 0.80479 0.75524 0.0
C3562 C 0.74881 0.86697 0.78106 0.0
C3563 C 0.74197 0.86275 0.80795 0.0
C3564 C 0.76292 0.85289 0.76781 0.0
C3565 C 0.77061 0.83428 0.78114 0.0
C3566 C 0.76429 0.83031 0.80824 0.0
C3567 C 0.75 0.84428 0.82143 0.0
C3568 C 0.78539 0.81921 0.76671 0.0
C3569 C 0.80418 0.82765 0.75444 0.0
C3570 C 0.78139 0.79662 0.76559 0.0
C3571 C 0.76123 0.78677 0.77658 0.0
C3572 C 0.76231 0.76981 0.79575 0.0
C3573 C 0.74333 0.76066 0.80633 0.0
C3574 C 0.72317 0.76827 0.79778 0.0
C3575 C 0.72194 0.78498 0.77854 0.0
C3576 C 0.74086 0.79417 0.76787 0.0
C3577 C 0.85611 0.74675 0.73099 0.0
C3578 C 0.86242 0.74986 0.70369 0.0
C3579 C 0.84035 0.75989 0.74272 0.0
C3580 C 0.83072 0.77654 0.72749 0.0
C3581 C 0.83644 0.77923 0.69993 0.0
C3582 C 0.85213 0.76597 0.68811 0.0
C3583 C 0.81538 0.79157 0.74083 0.0
C3584 C 0.79656 0.7831 0.75294 0.0
C3585 C 0.81927 0.81414 0.7417 0.0
C3586 C 0.83931 0.82396 0.7304 0.0
C3587 C 0.83804 0.84033 0.71046 0.0
C3588 C 0.85693 0.84947 0.69959 0.0
C3589 C 0.87717 0.84243 0.7086 0.0
C3590 C 0.87858 0.8263 0.72861 0.0
C3591 C 0.85976 0.81714 0.73958 0.0
H3592 H 0.89177 0.8495 0.70013 0.0
H3593 H 0.70849 0.76118 0.80602 0.0
H3594 H 0.74613 0.33709 0.17002 0.0
H3595 H 0.75779 0.3137 0.20756 0.0
H3596 H 0.81898 0.34746 0.21057 0.0
H3597 H 0.80738 0.37102 0.17313 0.0
H3598 H 0.8247 0.30439 0.21374 0.0
H3599 H 0.77999 0.35673 0.25805 0.0
H3600 H 0.74693 0.37807 0.26553 0.0
H3601 H 0.7106 0.31968 0.27964 0.0
H3602 H 0.74341 0.29795 0.27186 0.0
H3603 H 0.85962 0.26423 0.34268 0.0
H3604 H 0.8482 0.28755 0.30494 0.0
H3605 H 0.7871 0.25369 0.30123 0.0
H3606 H 0.79846 0.23016 0.3388 0.0
H3607 H 0.78142 0.29691 0.29849 0.0
H3608 H 0.82615 0.24458 0.25409 0.0
H3609 H 0.85925 0.22327 0.2467 0.0
H3610 H 0.89557 0.2817 0.23287 0.0
H3611 H 0.86273 0.3034 0.24056 0.0
C3612 C 0.76198 0.3397 0.17885 0.0
C3613 C 0.77577 0.35602 0.16863 0.0
C3614 C 0.76865 0.32628 0.20028 0.0
C3615 C 0.78919 0.32896 0.2121 0.0
C3616 C 0.80308 0.34506 0.20176 0.0
C3617 C 0.79643 0.35849 0.1803 0.0
C3618 C 0.79623 0.31491 0.23514 0.0
C3619 C 0.81539 0.30298 0.23242 0.0
C3620 C 0.78385 0.31268 0.2593 0.0
C3621 C 0.76411 0.32571 0.26411 0.0
C3622 C 0.76492 0.34843 0.26254 0.0
C3623 C 0.74623 0.3606 0.26686 0.0
C3624 C 0.72666 0.35024 0.27298 0.0
C3625 C 0.72576 0.32768 0.27486 0.0
C3626 C 0.7444 0.31543 0.27052 0.0
C3627 C 0.84385 0.26156 0.33364 0.0
C3628 C 0.82999 0.24525 0.34374 0.0
C3629 C 0.83732 0.27495 0.31209 0.0
C3630 C 0.81685 0.27226 0.30008 0.0
C3631 C 0.80294 0.25611 0.31022 0.0
C3632 C 0.80945 0.2427 0.33175 0.0
C3633 C 0.80988 0.28638 0.27707 0.0
C3634 C 0.79073 0.29832 0.27981 0.0
C3635 C 0.82228 0.28863 0.25294 0.0
C3636 C 0.84203 0.27562 0.24817 0.0
C3637 C 0.84123 0.2529 0.24968 0.0
C3638 C 0.85994 0.24074 0.24541 0.0
C3639 C 0.87951 0.25113 0.23939 0.0
C3640 C 0.8804 0.27369 0.23757 0.0
C3641 C 0.86174 0.28592 0.24186 0.0
H3642 H 0.89398 0.24169 0.23609 0.0
H3643 H 0.71221 0.35969 0.27633 0.0
H3644 H 0.08765 0.10775 0.919 0.0
H3645 H 0.06445 0.09603 0.95671 0.0
H3646 H 0.09936 1.03586 0.96202 0.0
H3647 H 0.12269 1.04752 0.92435 0.0
H3648 H 0.05643 1.02906 0.96503 0.0
H3649 H 0.108 0.07596 0.00814 0.0
H3650 H 0.1287 0.10974 0.01454 0.0
H3651 H 0.06961 0.14461 0.027 0.0
H3652 H 1.04852 0.11107 0.02029 0.0
H3653 H 1.0172 0.99502 0.09461 0.0
H3654 H 1.04034 1.00664 0.05679 0.0
H3655 H 1.00518 0.06663 0.05098 0.0
H3656 H 0.98187 0.05506 0.08869 0.0
H3657 H 1.04826 0.07349 0.04826 0.0
H3658 H 0.99671 1.02657 1.00515 0.0
H3659 H 0.97602 0.99277 0.99878 0.0
H3660 H 1.03513 0.95792 0.98637 0.0
H3661 H 0.0562 0.99148 0.99306 0.0
C3662 C 0.09053 0.09211 0.92837 0.0
C3663 C 0.1071 0.07861 0.91876 0.0
C3664 C 0.07723 0.08542 0.94989 0.0
C3665 C 0.08032 0.06516 0.9624 0.0
C3666 C 0.09667 0.05155 0.95266 0.0
C3667 C 0.10995 0.05821 0.93109 0.0
C3668 C 0.06644 0.05814 0.98556 0.0
C3669 C 0.05487 1.03863 0.98339 0.0
C3670 C 0.06403 0.07086 0.00926 0.0
C3671 C 0.07667 0.09103 0.01345 0.0
C3672 C 0.09941 0.09086 0.01204 0.0
C3673 C 0.11121 0.10996 0.01576 0.0
C3674 C 0.10047 0.12932 0.02111 0.0
C3675 C 0.0779 0.12961 0.02282 0.0
C3676 C 0.06602 0.11055 0.01909 0.0
C3677 C 1.01424 1.01059 0.0851 0.0
C3678 C 0.99761 1.02408 0.0946 0.0
C3679 C 1.02751 1.01723 0.06352 0.0
C3680 C 1.02435 1.03742 0.05087 0.0
C3681 C 1.00793 0.051 0.06047 0.0
C3682 C 0.99466 1.04439 0.08207 0.0
C3683 C 1.03825 1.04442 0.02772 0.0
C3684 C 1.04982 0.06392 0.0299 0.0
C3685 C 1.04067 1.03169 1.00404 0.0
C3686 C 1.02804 1.0115 0.99987 0.0
C3687 C 1.0053 1.01167 1.00127 0.0
C3688 C 0.99351 0.99256 0.99757 0.0
C3689 C 1.00426 0.9732 0.99225 0.0
C3690 C 1.02683 0.97293 0.99054 0.0
C3691 C 1.0387 0.99199 0.99426 0.0
H3692 H 0.9951 0.95842 0.98938 0.0
H3693 H 0.10964 0.14409 0.02398 0.0
H3694 H 0.62609 0.11666 0.51961 0.0
H3695 H 0.60264 0.09012 0.4975 0.0
H3696 H 0.56558 0.0832 0.57154 0.0
H3697 H 0.58873 0.11006 0.59372 0.0
H3698 H 0.57493 1.04407 0.54863 0.0
H3699 H 0.54562 0.11209 0.51936 0.0
H3700 H 0.54682 0.14872 0.49918 0.0
H3701 H 0.56866 0.12245 0.42324 0.0
H3702 H 0.56789 0.08567 0.44309 0.0
H3703 H 0.48656 0.98628 0.49423 0.0
H3704 H 0.50846 1.01451 0.51551 0.0
H3705 H 0.54324 1.02405 0.4401 0.0
H3706 H 0.52109 0.99591 0.41855 0.0
H3707 H 0.53505 0.06204 0.46369 0.0
H3708 H 0.56479 0.99416 0.49279 0.0
H3709 H 0.56383 0.95745 0.51277 0.0
H3710 H 0.54172 0.98331 0.58881 0.0
H3711 H 0.54225 1.02016 0.56916 0.0
C3712 C 0.61284 0.10967 0.53116 0.0
C3713 C 0.60926 0.11561 0.55844 0.0
C3714 C 0.59947 0.09445 0.51849 0.0
C3715 C 0.58221 0.08486 0.53277 0.0
C3716 C 0.57881 0.09041 0.56014 0.0
C3717 C 0.59214 0.10569 0.57282 0.0
C3718 C 0.56776 0.06898 0.51916 0.0
C3719 C 0.56597 1.04808 0.53027 0.0
C3720 C 0.5565 0.07406 0.49482 0.0
C3721 C 0.55691 0.09615 0.4828 0.0
C3722 C 0.55085 0.11414 0.49842 0.0
C3723 C 0.55142 0.13493 0.48703 0.0
C3724 C 0.55786 0.13791 0.45997 0.0
C3725 C 0.5637 0.12011 0.44421 0.0
C3726 C 0.56319 0.09929 0.45552 0.0
C3727 C 0.49887 0.99441 0.48217 0.0
C3728 C 0.50227 0.98874 0.4548 0.0
C3729 C 0.51139 1.01052 0.49437 0.0
C3730 C 0.52781 1.02111 0.47958 0.0
C3731 C 0.53073 1.01604 0.45194 0.0
C3732 C 0.51805 1.0 0.43964 0.0
C3733 C 0.54219 1.0371 0.49317 0.0
C3734 C 0.544 0.05802 0.48205 0.0
C3735 C 0.55354 1.03202 0.51747 0.0
C3736 C 0.55337 1.00989 0.52941 0.0
C3737 C 0.55958 0.992 0.51371 0.0
C3738 C 0.55913 0.97117 0.52499 0.0
C3739 C 0.55267 0.96805 0.55202 0.0
C3740 C 0.5467 0.98576 0.56786 0.0
C3741 C 0.54709 1.00662 0.55667 0.0
H3742 H 0.55232 0.95191 0.56071 0.0
H3743 H 0.55829 0.15402 0.45118 0.0
loop_
_geom_bond_atom_site_label_1
_geom_bond_atom_site_label_2
_geom_bond_distance
_geom_bond_site_symmetry_2
_ccdc_geom_bond_type
Tb0 N31 2.660 1_554 S
Tb0 N38 2.600 . S
Tb0 O44 2.546 . S
Tb0 O45 2.610 . S
Tb0 O47 2.320 . S
Tb0 O48 2.552 . S
Tb0 O49 2.413 1_554 S
Tb0 O51 2.362 . S
Tb0 O52 2.421 . S
Tb0 C64 2.833 1_554 S
C1 C4 1.432 . S
C1 C5 1.414 . S
C1 N8 1.359 . S
C2 C4 1.417 . S
C2 C6 1.432 . S
C2 C14 1.410 . S
C3 C5 1.444 . S
C3 C6 1.317 . S
C3 H26 0.929 . S
C4 C1 1.432 . S
C4 C2 1.417 . S
C4 N12 1.360 . S
C5 C1 1.414 . S
C5 C3 1.444 . S
C5 C10 1.385 . S
C6 C2 1.432 . S
C6 C3 1.317 . S
C6 H18 0.930 . S
C7 C9 1.392 . S
C7 C10 1.370 . S
C7 H19 0.931 . S
N8 C1 1.359 . S
N8 C9 1.327 . S
N8 Tb11 2.600 . S
C9 C7 1.392 . S
C9 N8 1.327 . S
C9 H16 0.930 . S
C10 C5 1.385 . S
C10 C7 1.370 . S
C10 H29 0.930 . S
Tb11 N8 2.600 . S
Tb11 N12 2.660 . S
Tb11 O45 2.362 . S
Tb11 O46 2.421 . S
Tb11 O50 2.546 . S
Tb11 O51 2.610 . S
Tb11 O53 2.320 . S
Tb11 O54 2.552 . S
Tb11 O55 2.413 . S
Tb11 C75 2.833 . S
N12 C4 1.360 . S
N12 Tb11 2.660 . S
N12 C13 1.305 . S
C13 N12 1.305 . S
C13 C15 1.407 . S
C13 H20 0.930 . S
C14 C2 1.410 . S
C14 C15 1.345 . S
C14 H22 0.930 . S
C15 C13 1.407 . S
C15 C14 1.345 . S
C15 H17 0.930 . S
H16 C9 0.930 . S
H17 C15 0.930 . S
H18 C6 0.930 . S
H19 C7 0.931 . S
H20 C13 0.930 . S
H21 C35 0.930 . S
H22 C14 0.930 . S
H23 C41 0.930 . S
H24 C32 0.930 . S
H25 C39 0.931 . S
H26 C3 0.929 . S
H27 C33 0.930 . S
H28 C66 0.930 . S
H29 C10 0.930 . S
H30 C65 0.929 . S
N31 Tb0 2.660 1_556 S
N31 C32 1.305 . S
N31 C36 1.360 . S
C32 H24 0.930 . S
C32 N31 1.305 . S
C32 C35 1.407 . S
C33 H27 0.930 . S
C33 C34 1.410 . S
C33 C35 1.345 . S
C34 C33 1.410 . S
C34 C36 1.417 . S
C34 C66 1.432 . S
C35 H21 0.930 . S
C35 C32 1.407 . S
C35 C33 1.345 . S
C36 N31 1.360 . S
C36 C34 1.417 . S
C36 C40 1.432 . S
H37 C42 0.925 1_556 S
N38 Tb0 2.600 . S
N38 C40 1.359 1_554 S
N38 C41 1.327 . S
C39 H25 0.931 . S
C39 C41 1.392 . S
C39 C42 1.389 . S
C40 C36 1.432 . S
C40 N38 1.359 1_556 S
C40 C43 1.414 . S
C41 H23 0.930 . S
C41 N38 1.327 . S
C41 C39 1.392 . S
C42 H37 0.925 1_554 S
C42 C39 1.389 . S
C42 C43 1.371 1_554 S
C43 C40 1.414 . S
C43 C42 1.371 1_556 S
C43 C65 1.444 . S
O44 Tb0 2.546 . S
O44 C64 1.251 1_554 S
O45 Tb0 2.610 . S
O45 Tb11 2.362 . S
O45 C56 1.283 . S
O46 Tb11 2.421 . S
O46 C63 1.262 . S
O47 Tb0 2.320 . S
O47 C63 1.260 . S
O48 Tb0 2.552 . S
O48 C56 1.243 . S
O49 Tb0 2.413 1_556 S
O49 C64 1.256 . S
O50 Tb11 2.546 . S
O50 C75 1.251 . S
O51 Tb0 2.362 . S
O51 Tb11 2.610 . S
O51 C67 1.283 . S
O52 Tb0 2.421 . S
O52 C74 1.262 . S
O53 Tb11 2.320 . S
O53 C74 1.260 . S
O54 Tb11 2.552 . S
O54 C67 1.243 . S
O55 Tb11 2.413 . S
O55 C75 1.256 . S
C56 O45 1.283 . S
C56 O48 1.243 . S
C57 C59 1.382 . S
C57 C61 1.393 . S
C57 C64 1.500 . S
C58 C59 1.400 . S
C58 C60 1.384 . S
C59 C57 1.382 . S
C59 C58 1.400 . S
C59 H76 0.930 . S
C60 C58 1.384 . S
C60 C62 1.392 . S
C60 H77 0.931 . S
C61 C57 1.393 . S
C61 C62 1.401 . S
C61 H78 0.930 . S
C62 C60 1.392 . S
C62 C61 1.401 . S
C62 H79 0.930 . S
C63 O46 1.262 . S
C63 O47 1.260 . S
C64 Tb0 2.833 1_556 S
C64 O44 1.251 1_556 S
C64 O49 1.256 . S
C64 C57 1.500 . S
C65 H30 0.929 . S
C65 C43 1.444 . S
C65 C66 1.317 . S
C66 H28 0.930 . S
C66 C34 1.432 . S
C66 C65 1.317 . S
C67 O51 1.283 . S
C67 O54 1.243 . S
C68 C69 1.382 . S
C68 C72 1.393 . S
C68 C75 1.500 . S
C69 C68 1.382 . S
C69 C70 1.400 . S
C69 H80 0.930 . S
C70 C69 1.400 . S
C70 C71 1.384 . S
C71 C70 1.384 . S
C71 C73 1.392 . S
C71 H81 0.931 . S
C72 C68 1.393 . S
C72 C73 1.401 . S
C72 H82 0.930 . S
C73 C71 1.392 . S
C73 C72 1.401 . S
C73 H83 0.930 . S
C74 O52 1.262 . S
C74 O53 1.260 . S
C75 Tb11 2.833 . S
C75 O50 1.251 . S
C75 O55 1.256 . S
C75 C68 1.500 . S
H76 C59 0.930 . S
H77 C60 0.931 . S
H78 C61 0.930 . S
H79 C62 0.930 . S
H80 C69 0.930 . S
H81 C71 0.931 . S
H82 C72 0.930 . S
H83 C73 0.930 . S
Tb84 N115 2.660 . S
Tb84 N122 2.600 . S
Tb84 O128 2.546 . S
Tb84 O129 2.610 . S
Tb84 O131 2.320 . S
Tb84 O132 2.552 . S
Tb84 O133 2.413 . S
Tb84 O135 2.362 . S
Tb84 O136 2.421 . S
Tb84 C148 2.833 . S
C85 C88 1.432 . S
C85 C89 1.414 . S
C85 N92 1.359 . S
C86 C88 1.417 . S
C86 C90 1.432 . S
C86 C98 1.410 . S
C87 C89 1.444 . S
C87 C90 1.317 . S
C87 H110 0.929 . S
C88 C85 1.432 . S
C88 C86 1.417 . S
C88 N96 1.360 . S
C89 C85 1.414 . S
C89 C87 1.444 . S
C89 C94 1.385 . S
C90 C86 1.432 . S
C90 C87 1.317 . S
C90 H102 0.930 . S
C91 C93 1.392 . S
C91 C94 1.370 . S
C91 H103 0.931 . S
N92 C85 1.359 . S
N92 C93 1.327 . S
N92 Tb95 2.600 . S
C93 C91 1.392 . S
C93 N92 1.327 . S
C93 H100 0.930 . S
C94 C89 1.385 . S
C94 C91 1.370 . S
C94 H113 0.930 . S
Tb95 N92 2.600 . S
Tb95 N96 2.660 . S
Tb95 O129 2.362 . S
Tb95 O130 2.421 . S
Tb95 O134 2.546 . S
Tb95 O135 2.610 . S
Tb95 O137 2.320 . S
Tb95 O138 2.552 . S
Tb95 O139 2.413 . S
Tb95 C159 2.833 . S
N96 C88 1.360 . S
N96 Tb95 2.660 . S
N96 C97 1.305 . S
C97 N96 1.305 . S
C97 C99 1.407 . S
C97 H104 0.930 . S
C98 C86 1.410 . S
C98 C99 1.345 . S
C98 H106 0.930 . S
C99 C97 1.407 . S
C99 C98 1.345 . S
C99 H101 0.930 . S
H100 C93 0.930 . S
H101 C99 0.930 . S
H102 C90 0.930 . S
H103 C91 0.931 . S
H104 C97 0.930 . S
H105 C119 0.930 . S
H106 C98 0.930 . S
H107 C125 0.930 . S
H108 C116 0.930 . S
H109 C123 0.931 . S
H110 C87 0.929 . S
H111 C117 0.930 . S
H112 C150 0.930 . S
H113 C94 0.930 . S
H114 C149 0.929 . S
N115 Tb84 2.660 . S
N115 C116 1.305 . S
N115 C120 1.360 . S
C116 H108 0.930 . S
C116 N115 1.305 . S
C116 C119 1.407 . S
C117 H111 0.930 . S
C117 C118 1.410 . S
C117 C119 1.345 . S
C118 C117 1.410 . S
C118 C120 1.417 . S
C118 C150 1.432 . S
C119 H105 0.930 . S
C119 C116 1.407 . S
C119 C117 1.345 . S
C120 N115 1.360 . S
C120 C118 1.417 . S
C120 C124 1.432 . S
H121 C126 0.930 . S
N122 Tb84 2.600 . S
N122 C124 1.359 . S
N122 C125 1.327 . S
C123 H109 0.931 . S
C123 C125 1.392 . S
C123 C126 1.370 . S
C124 C120 1.432 . S
C124 N122 1.359 . S
C124 C127 1.414 . S
C125 H107 0.930 . S
C125 N122 1.327 . S
C125 C123 1.392 . S
C126 H121 0.930 . S
C126 C123 1.370 . S
C126 C127 1.385 . S
C127 C124 1.414 . S
C127 C126 1.385 . S
C127 C149 1.444 . S
O128 Tb84 2.546 . S
O128 C148 1.251 . S
O129 Tb84 2.610 . S
O129 Tb95 2.362 . S
O129 C140 1.283 . S
O130 Tb95 2.421 . S
O130 C147 1.262 . S
O131 Tb84 2.320 . S
O131 C147 1.260 . S
O132 Tb84 2.552 . S
O132 C140 1.243 . S
O133 Tb84 2.413 . S
O133 C148 1.256 . S
O134 Tb95 2.546 . S
O134 C159 1.251 . S
O135 Tb84 2.362 . S
O135 Tb95 2.610 . S
O135 C151 1.283 . S
O136 Tb84 2.421 . S
O136 C158 1.262 . S
O137 Tb95 2.320 . S
O137 C158 1.260 . S
O138 Tb95 2.552 . S
O138 C151 1.243 . S
O139 Tb95 2.413 . S
O139 C159 1.256 . S
C140 O129 1.283 . S
C140 O132 1.243 . S
C141 C143 1.382 . S
C141 C145 1.393 . S
C141 C148 1.500 . S
C142 C143 1.400 . S
C142 C144 1.384 . S
C143 C141 1.382 . S
C143 C142 1.400 . S
C143 H160 0.930 . S
C144 C142 1.384 . S
C144 C146 1.392 . S
C144 H161 0.931 . S
C145 C141 1.393 . S
C145 C146 1.401 . S
C145 H162 0.930 . S
C146 C144 1.392 . S
C146 C145 1.401 . S
C146 H163 0.930 . S
C147 O130 1.262 . S
C147 O131 1.260 . S
C148 Tb84 2.833 . S
C148 O128 1.251 . S
C148 O133 1.256 . S
C148 C141 1.500 . S
C149 H114 0.929 . S
C149 C127 1.444 . S
C149 C150 1.317 . S
C150 H112 0.930 . S
C150 C118 1.432 . S
C150 C149 1.317 . S
C151 O135 1.283 . S
C151 O138 1.243 . S
C152 C153 1.382 . S
C152 C156 1.393 . S
C152 C159 1.500 . S
C153 C152 1.382 . S
C153 C154 1.400 . S
C153 H164 0.930 . S
C154 C153 1.400 . S
C154 C155 1.384 . S
C155 C154 1.384 . S
C155 C157 1.392 . S
C155 H165 0.931 . S
C156 C152 1.393 . S
C156 C157 1.401 . S
C156 H166 0.930 . S
C157 C155 1.392 . S
C157 C156 1.401 . S
C157 H167 0.930 . S
C158 O136 1.262 . S
C158 O137 1.260 . S
C159 Tb95 2.833 . S
C159 O134 1.251 . S
C159 O139 1.256 . S
C159 C152 1.500 . S
H160 C143 0.930 . S
H161 C144 0.931 . S
H162 C145 0.930 . S
H163 C146 0.930 . S
H164 C153 0.930 . S
H165 C155 0.931 . S
H166 C156 0.930 . S
H167 C157 0.930 . S
Tb168 N199 2.660 . S
Tb168 N206 2.600 . S
Tb168 O212 2.546 . S
Tb168 O213 2.610 . S
Tb168 O215 2.320 . S
Tb168 O216 2.552 . S
Tb168 O217 2.413 . S
Tb168 O219 2.362 . S
Tb168 O220 2.421 . S
Tb168 C232 2.833 . S
C169 C172 1.432 . S
C169 C173 1.414 . S
C169 N176 1.359 . S
C170 C172 1.417 . S
C170 C174 1.432 . S
C170 C182 1.410 . S
C171 C173 1.444 . S
C171 C174 1.317 . S
C171 H194 0.929 . S
C172 C169 1.432 . S
C172 C170 1.417 . S
C172 N180 1.360 . S
C173 C169 1.414 . S
C173 C171 1.444 . S
C173 C178 1.385 . S
C174 C170 1.432 . S
C174 C171 1.317 . S
C174 H186 0.930 . S
C175 C177 1.392 . S
C175 C178 1.370 . S
C175 H187 0.931 . S
N176 C169 1.359 . S
N176 C177 1.327 . S
N176 Tb179 2.600 . S
C177 C175 1.392 . S
C177 N176 1.327 . S
C177 H184 0.930 . S
C178 C173 1.385 . S
C178 C175 1.370 . S
C178 H197 0.930 . S
Tb179 N176 2.600 . S
Tb179 N180 2.660 . S
Tb179 O213 2.362 . S
Tb179 O214 2.421 . S
Tb179 O218 2.546 . S
Tb179 O219 2.610 . S
Tb179 O221 2.320 . S
Tb179 O222 2.552 . S
Tb179 O223 2.413 . S
Tb179 C243 2.833 . S
N180 C172 1.360 . S
N180 Tb179 2.660 . S
N180 C181 1.305 . S
C181 N180 1.305 . S
C181 C183 1.407 . S
C181 H188 0.930 . S
C182 C170 1.410 . S
C182 C183 1.345 . S
C182 H190 0.930 . S
C183 C181 1.407 . S
C183 C182 1.345 . S
C183 H185 0.930 . S
H184 C177 0.930 . S
H185 C183 0.930 . S
H186 C174 0.930 . S
H187 C175 0.931 . S
H188 C181 0.930 . S
H189 C203 0.930 . S
H190 C182 0.930 . S
H191 C209 0.930 . S
H192 C200 0.930 . S
H193 C207 0.931 . S
H194 C171 0.929 . S
H195 C201 0.930 . S
H196 C234 0.930 . S
H197 C178 0.930 . S
H198 C233 0.929 . S
N199 Tb168 2.660 . S
N199 C200 1.305 . S
N199 C204 1.360 . S
C200 H192 0.930 . S
C200 N199 1.305 . S
C200 C203 1.407 . S
C201 H195 0.930 . S
C201 C202 1.410 . S
C201 C203 1.345 . S
C202 C201 1.410 . S
C202 C204 1.417 . S
C202 C234 1.432 . S
C203 H189 0.930 . S
C203 C200 1.407 . S
C203 C201 1.345 . S
C204 N199 1.360 . S
C204 C202 1.417 . S
C204 C208 1.432 . S
H205 C210 0.930 . S
N206 Tb168 2.600 . S
N206 C208 1.359 . S
N206 C209 1.327 . S
C207 H193 0.931 . S
C207 C209 1.392 . S
C207 C210 1.370 . S
C208 C204 1.432 . S
C208 N206 1.359 . S
C208 C211 1.414 . S
C209 H191 0.930 . S
C209 N206 1.327 . S
C209 C207 1.392 . S
C210 H205 0.930 . S
C210 C207 1.370 . S
C210 C211 1.385 . S
C211 C208 1.414 . S
C211 C210 1.385 . S
C211 C233 1.444 . S
O212 Tb168 2.546 . S
O212 C232 1.251 . S
O213 Tb168 2.610 . S
O213 Tb179 2.362 . S
O213 C224 1.283 . S
O214 Tb179 2.421 . S
O214 C231 1.262 . S
O215 Tb168 2.320 . S
O215 C231 1.260 . S
O216 Tb168 2.552 . S
O216 C224 1.243 . S
O217 Tb168 2.413 . S
O217 C232 1.256 . S
O218 Tb179 2.546 . S
O218 C243 1.251 . S
O219 Tb168 2.362 . S
O219 Tb179 2.610 . S
O219 C235 1.283 . S
O220 Tb168 2.421 . S
O220 C242 1.262 . S
O221 Tb179 2.320 . S
O221 C242 1.260 . S
O222 Tb179 2.552 . S
O222 C235 1.243 . S
O223 Tb179 2.413 . S
O223 C243 1.256 . S
C224 O213 1.283 . S
C224 O216 1.243 . S
C225 C227 1.382 . S
C225 C229 1.393 . S
C225 C232 1.500 . S
C226 C227 1.400 . S
C226 C228 1.384 . S
C227 C225 1.382 . S
C227 C226 1.400 . S
C227 H244 0.930 . S
C228 C226 1.384 . S
C228 C230 1.392 . S
C228 H245 0.931 . S
C229 C225 1.393 . S
C229 C230 1.401 . S
C229 H246 0.930 . S
C230 C228 1.392 . S
C230 C229 1.401 . S
C230 H247 0.930 . S
C231 O214 1.262 . S
C231 O215 1.260 . S
C232 Tb168 2.833 . S
C232 O212 1.251 . S
C232 O217 1.256 . S
C232 C225 1.500 . S
C233 H198 0.929 . S
C233 C211 1.444 . S
C233 C234 1.317 . S
C234 H196 0.930 . S
C234 C202 1.432 . S
C234 C233 1.317 . S
C235 O219 1.283 . S
C235 O222 1.243 . S
C236 C237 1.382 . S
C236 C240 1.393 . S
C236 C243 1.500 . S
C237 C236 1.382 . S
C237 C238 1.400 . S
C237 H248 0.930 . S
C238 C237 1.400 . S
C238 C239 1.384 . S
C239 C238 1.384 . S
C239 C241 1.392 . S
C239 H249 0.931 . S
C240 C236 1.393 . S
C240 C241 1.401 . S
C240 H250 0.930 . S
C241 C239 1.392 . S
C241 C240 1.401 . S
C241 H251 0.930 . S
C242 O220 1.262 . S
C242 O221 1.260 . S
C243 Tb179 2.833 . S
C243 O218 1.251 . S
C243 O223 1.256 . S
C243 C236 1.500 . S
H244 C227 0.930 . S
H245 C228 0.931 . S
H246 C229 0.930 . S
H247 C230 0.930 . S
H248 C237 0.930 . S
H249 C239 0.931 . S
H250 C240 0.930 . S
H251 C241 0.930 . S
Tb252 N283 2.660 . S
Tb252 N290 2.600 . S
Tb252 O296 2.546 . S
Tb252 O297 2.610 . S
Tb252 O299 2.320 . S
Tb252 O300 2.552 . S
Tb252 O301 2.413 . S
Tb252 O303 2.362 . S
Tb252 O304 2.421 . S
Tb252 C316 2.833 . S
C253 C256 1.432 . S
C253 C257 1.414 . S
C253 N260 1.359 . S
C254 C256 1.417 . S
C254 C258 1.432 . S
C254 C266 1.410 . S
C255 C257 1.436 1_455 S
C255 C258 1.279 1_455 S
C255 H278 0.978 . S
C256 C253 1.432 . S
C256 C254 1.417 . S
C256 N264 1.360 . S
C257 C253 1.414 . S
C257 C255 1.436 1_655 S
C257 C262 1.385 1_655 S
C258 C254 1.432 . S
C258 C255 1.279 1_655 S
C258 H270 0.930 . S
C259 C261 1.392 1_455 S
C259 C262 1.370 . S
C259 H271 0.931 . S
N260 C253 1.359 . S
N260 C261 1.327 . S
N260 Tb263 2.600 . S
C261 C259 1.392 1_655 S
C261 N260 1.327 . S
C261 H268 0.930 . S
C262 C257 1.385 1_455 S
C262 C259 1.370 . S
C262 H281 0.930 . S
Tb263 N260 2.600 . S
Tb263 N264 2.660 . S
Tb263 O297 2.362 . S
Tb263 O298 2.421 . S
Tb263 O302 2.546 . S
Tb263 O303 2.610 . S
Tb263 O305 2.320 . S
Tb263 O306 2.552 . S
Tb263 O307 2.413 . S
Tb263 C327 2.833 . S
N264 C256 1.360 . S
N264 Tb263 2.660 . S
N264 C265 1.305 . S
C265 N264 1.305 . S
C265 C267 1.407 . S
C265 H272 0.930 . S
C266 C254 1.410 . S
C266 C267 1.345 . S
C266 H274 0.930 . S
C267 C265 1.407 . S
C267 C266 1.345 . S
C267 H269 0.930 . S
H268 C261 0.930 . S
H269 C267 0.930 . S
H270 C258 0.930 . S
H271 C259 0.931 . S
H272 C265 0.930 . S
H273 C287 0.930 . S
H274 C266 0.930 . S
H275 C293 0.930 . S
H276 C284 0.930 . S
H277 C291 0.931 . S
H278 C255 0.978 . S
H279 C285 0.930 . S
H280 C318 0.930 . S
H281 C262 0.930 . S
H282 C317 0.929 . S
N283 Tb252 2.660 . S
N283 C284 1.305 . S
N283 C288 1.360 . S
C284 H276 0.930 . S
C284 N283 1.305 . S
C284 C287 1.407 . S
C285 H279 0.930 . S
C285 C286 1.410 . S
C285 C287 1.345 . S
C286 C285 1.410 . S
C286 C288 1.417 . S
C286 C318 1.432 . S
C287 H273 0.930 . S
C287 C284 1.407 . S
C287 C285 1.345 . S
C288 N283 1.360 . S
C288 C286 1.417 . S
C288 C292 1.432 . S
H289 C294 0.930 . S
N290 Tb252 2.600 . S
N290 C292 1.359 . S
N290 C293 1.327 . S
C291 H277 0.931 . S
C291 C293 1.392 . S
C291 C294 1.370 . S
C292 C288 1.432 . S
C292 N290 1.359 . S
C292 C295 1.414 . S
C293 H275 0.930 . S
C293 N290 1.327 . S
C293 C291 1.392 . S
C294 H289 0.930 . S
C294 C291 1.370 . S
C294 C295 1.385 . S
C295 C292 1.414 . S
C295 C294 1.385 . S
C295 C317 1.444 . S
O296 Tb252 2.546 . S
O296 C316 1.251 . S
O297 Tb252 2.610 . S
O297 Tb263 2.362 . S
O297 C308 1.283 . S
O298 Tb263 2.421 . S
O298 C315 1.262 . S
O299 Tb252 2.320 . S
O299 C315 1.260 . S
O300 Tb252 2.552 . S
O300 C308 1.243 . S
O301 Tb252 2.413 . S
O301 C316 1.256 . S
O302 Tb263 2.546 . S
O302 C327 1.251 . S
O303 Tb252 2.362 . S
O303 Tb263 2.610 . S
O303 C319 1.283 . S
O304 Tb252 2.421 . S
O304 C326 1.262 . S
O305 Tb263 2.320 . S
O305 C326 1.260 . S
O306 Tb263 2.552 . S
O306 C319 1.243 . S
O307 Tb263 2.413 . S
O307 C327 1.256 . S
C308 O297 1.283 . S
C308 O300 1.243 . S
C309 C311 1.382 . S
C309 C313 1.393 . S
C309 C316 1.500 . S
C310 C311 1.400 . S
C310 C312 1.384 . S
C311 C309 1.382 . S
C311 C310 1.400 . S
C311 H328 0.930 . S
C312 C310 1.384 . S
C312 C314 1.392 . S
C312 H329 0.931 . S
C313 C309 1.393 . S
C313 C314 1.401 . S
C313 H330 0.930 . S
C314 C312 1.392 . S
C314 C313 1.401 . S
C314 H331 0.930 . S
C315 O298 1.262 . S
C315 O299 1.260 . S
C316 Tb252 2.833 . S
C316 O296 1.251 . S
C316 O301 1.256 . S
C316 C309 1.500 . S
C317 H282 0.929 . S
C317 C295 1.444 . S
C317 C318 1.317 . S
C318 H280 0.930 . S
C318 C286 1.432 . S
C318 C317 1.317 . S
C319 O303 1.283 . S
C319 O306 1.243 . S
C320 C321 1.382 . S
C320 C324 1.393 . S
C320 C327 1.500 . S
C321 C320 1.382 . S
C321 C322 1.400 . S
C321 H332 0.930 . S
C322 C321 1.400 . S
C322 C323 1.384 . S
C323 C322 1.384 . S
C323 C325 1.392 . S
C323 H333 0.931 . S
C324 C320 1.393 . S
C324 C325 1.401 . S
C324 H334 0.930 . S
C325 C323 1.392 . S
C325 C324 1.401 . S
C325 H335 0.930 . S
C326 O304 1.262 . S
C326 O305 1.260 . S
C327 Tb263 2.833 . S
C327 O302 1.251 . S
C327 O307 1.256 . S
C327 C320 1.500 . S
H328 C311 0.930 . S
H329 C312 0.931 . S
H330 C313 0.930 . S
H331 C314 0.930 . S
H332 C321 0.930 . S
H333 C323 0.931 . S
H334 C324 0.930 . S
H335 C325 0.930 . S
Tb336 N367 2.660 . S
Tb336 N374 2.600 . S
Tb336 O380 2.546 . S
Tb336 O381 2.610 . S
Tb336 O383 2.320 . S
Tb336 O384 2.552 . S
Tb336 O385 2.413 . S
Tb336 O387 2.362 . S
Tb336 O388 2.421 . S
Tb336 C400 2.833 . S
C337 C340 1.432 . S
C337 C341 1.414 . S
C337 N344 1.359 1_554 S
C338 C340 1.417 . S
C338 C342 1.432 . S
C338 C350 1.410 . S
C339 C341 1.444 . S
C339 C342 1.317 . S
C339 H362 0.929 . S
C340 C337 1.432 . S
C340 C338 1.417 . S
C340 N348 1.360 . S
C341 C337 1.414 . S
C341 C339 1.444 . S
C341 C346 1.371 1_554 S
C342 C338 1.432 . S
C342 C339 1.317 . S
C342 H354 0.930 . S
C343 C345 1.392 . S
C343 C346 1.389 . S
C343 H355 0.931 . S
N344 C337 1.359 1_556 S
N344 C345 1.327 . S
N344 Tb347 2.600 . S
C345 C343 1.392 . S
C345 N344 1.327 . S
C345 H352 0.930 . S
C346 C341 1.371 1_556 S
C346 C343 1.389 . S
C346 H365 0.925 1_556 S
Tb347 N344 2.600 . S
Tb347 N348 2.660 1_556 S
Tb347 O381 2.362 . S
Tb347 O382 2.421 . S
Tb347 O386 2.546 . S
Tb347 O387 2.610 . S
Tb347 O389 2.320 . S
Tb347 O390 2.552 . S
Tb347 O391 2.413 1_556 S
Tb347 C411 2.833 1_556 S
N348 C340 1.360 . S
N348 Tb347 2.660 1_554 S
N348 C349 1.305 . S
C349 N348 1.305 . S
C349 C351 1.407 . S
C349 H356 0.930 . S
C350 C338 1.410 . S
C350 C351 1.345 . S
C350 H358 0.930 . S
C351 C349 1.407 . S
C351 C350 1.345 . S
C351 H353 0.930 . S
H352 C345 0.930 . S
H353 C351 0.930 . S
H354 C342 0.930 . S
H355 C343 0.931 . S
H356 C349 0.930 . S
H357 C371 0.930 . S
H358 C350 0.930 . S
H359 C377 0.930 . S
H360 C368 0.930 . S
H361 C375 0.931 . S
H362 C339 0.929 . S
H363 C369 0.930 . S
H364 C402 0.930 . S
H365 C346 0.925 1_554 S
H366 C401 0.929 . S
N367 Tb336 2.660 . S
N367 C368 1.305 . S
N367 C372 1.360 . S
C368 H360 0.930 . S
C368 N367 1.305 . S
C368 C371 1.407 . S
C369 H363 0.930 . S
C369 C370 1.410 . S
C369 C371 1.345 . S
C370 C369 1.410 . S
C370 C372 1.417 . S
C370 C402 1.432 . S
C371 H357 0.930 . S
C371 C368 1.407 . S
C371 C369 1.345 . S
C372 N367 1.360 . S
C372 C370 1.417 . S
C372 C376 1.432 . S
H373 C378 0.930 . S
N374 Tb336 2.600 . S
N374 C376 1.359 . S
N374 C377 1.327 . S
C375 H361 0.931 . S
C375 C377 1.392 . S
C375 C378 1.370 . S
C376 C372 1.432 . S
C376 N374 1.359 . S
C376 C379 1.414 . S
C377 H359 0.930 . S
C377 N374 1.327 . S
C377 C375 1.392 . S
C378 H373 0.930 . S
C378 C375 1.370 . S
C378 C379 1.385 . S
C379 C376 1.414 . S
C379 C378 1.385 . S
C379 C401 1.444 . S
O380 Tb336 2.546 . S
O380 C400 1.251 . S
O381 Tb336 2.610 . S
O381 Tb347 2.362 . S
O381 C392 1.283 . S
O382 Tb347 2.421 . S
O382 C399 1.262 . S
O383 Tb336 2.320 . S
O383 C399 1.260 . S
O384 Tb336 2.552 . S
O384 C392 1.243 . S
O385 Tb336 2.413 . S
O385 C400 1.256 . S
O386 Tb347 2.546 . S
O386 C411 1.251 1_556 S
O387 Tb336 2.362 . S
O387 Tb347 2.610 . S
O387 C403 1.283 . S
O388 Tb336 2.421 . S
O388 C410 1.262 . S
O389 Tb347 2.320 . S
O389 C410 1.260 . S
O390 Tb347 2.552 . S
O390 C403 1.243 . S
O391 Tb347 2.413 1_554 S
O391 C411 1.256 . S
C392 O381 1.283 . S
C392 O384 1.243 . S
C393 C395 1.382 . S
C393 C397 1.393 . S
C393 C400 1.500 . S
C394 C395 1.400 . S
C394 C396 1.384 . S
C395 C393 1.382 . S
C395 C394 1.400 . S
C395 H412 0.930 . S
C396 C394 1.384 . S
C396 C398 1.392 . S
C396 H413 0.931 . S
C397 C393 1.393 . S
C397 C398 1.401 . S
C397 H414 0.930 . S
C398 C396 1.392 . S
C398 C397 1.401 . S
C398 H415 0.930 . S
C399 O382 1.262 . S
C399 O383 1.260 . S
C400 Tb336 2.833 . S
C400 O380 1.251 . S
C400 O385 1.256 . S
C400 C393 1.500 . S
C401 H366 0.929 . S
C401 C379 1.444 . S
C401 C402 1.317 . S
C402 H364 0.930 . S
C402 C370 1.432 . S
C402 C401 1.317 . S
C403 O387 1.283 . S
C403 O390 1.243 . S
C404 C405 1.382 . S
C404 C408 1.393 . S
C404 C411 1.500 . S
C405 C404 1.382 . S
C405 C406 1.400 . S
C405 H416 0.930 . S
C406 C405 1.400 . S
C406 C407 1.384 . S
C407 C406 1.384 . S
C407 C409 1.392 . S
C407 H417 0.931 . S
C408 C404 1.393 . S
C408 C409 1.401 . S
C408 H418 0.930 . S
C409 C407 1.392 . S
C409 C408 1.401 . S
C409 H419 0.930 . S
C410 O388 1.262 . S
C410 O389 1.260 . S
C411 Tb347 2.833 1_554 S
C411 O386 1.251 1_554 S
C411 O391 1.256 . S
C411 C404 1.500 . S
H412 C395 0.930 . S
H413 C396 0.931 . S
H414 C397 0.930 . S
H415 C398 0.930 . S
H416 C405 0.930 . S
H417 C407 0.931 . S
H418 C408 0.930 . S
H419 C409 0.930 . S
Tb420 N451 2.660 . S
Tb420 N458 2.600 . S
Tb420 O464 2.546 . S
Tb420 O465 2.610 . S
Tb420 O467 2.320 . S
Tb420 O468 2.552 . S
Tb420 O469 2.413 . S
Tb420 O471 2.362 . S
Tb420 O472 2.421 . S
Tb420 C484 2.833 . S
C421 C424 1.432 . S
C421 C425 1.414 . S
C421 N428 1.359 . S
C422 C424 1.417 . S
C422 C426 1.432 . S
C422 C434 1.410 . S
C423 C425 1.444 . S
C423 C426 1.317 . S
C423 H446 0.929 . S
C424 C421 1.432 . S
C424 C422 1.417 . S
C424 N432 1.360 . S
C425 C421 1.414 . S
C425 C423 1.444 . S
C425 C430 1.385 . S
C426 C422 1.432 . S
C426 C423 1.317 . S
C426 H438 0.930 . S
C427 C429 1.392 . S
C427 C430 1.370 . S
C427 H439 0.931 . S
N428 C421 1.359 . S
N428 C429 1.327 . S
N428 Tb431 2.600 . S
C429 C427 1.392 . S
C429 N428 1.327 . S
C429 H436 0.930 . S
C430 C425 1.385 . S
C430 C427 1.370 . S
C430 H449 0.930 . S
Tb431 N428 2.600 . S
Tb431 N432 2.660 . S
Tb431 O465 2.362 . S
Tb431 O466 2.421 . S
Tb431 O470 2.546 . S
Tb431 O471 2.610 . S
Tb431 O473 2.320 . S
Tb431 O474 2.552 . S
Tb431 O475 2.413 . S
Tb431 C495 2.833 . S
N432 C424 1.360 . S
N432 Tb431 2.660 . S
N432 C433 1.305 . S
C433 N432 1.305 . S
C433 C435 1.407 . S
C433 H440 0.930 . S
C434 C422 1.410 . S
C434 C435 1.345 . S
C434 H442 0.930 . S
C435 C433 1.407 . S
C435 C434 1.345 . S
C435 H437 0.930 . S
H436 C429 0.930 . S
H437 C435 0.930 . S
H438 C426 0.930 . S
H439 C427 0.931 . S
H440 C433 0.930 . S
H441 C455 0.930 . S
H442 C434 0.930 . S
H443 C461 0.930 . S
H444 C452 0.930 . S
H445 C459 0.931 . S
H446 C423 0.929 . S
H447 C453 0.930 . S
H448 C486 0.930 . S
H449 C430 0.930 . S
H450 C485 0.929 . S
N451 Tb420 2.660 . S
N451 C452 1.305 . S
N451 C456 1.360 . S
C452 H444 0.930 . S
C452 N451 1.305 . S
C452 C455 1.407 . S
C453 H447 0.930 . S
C453 C454 1.410 . S
C453 C455 1.345 . S
C454 C453 1.410 . S
C454 C456 1.417 . S
C454 C486 1.432 . S
C455 H441 0.930 . S
C455 C452 1.407 . S
C455 C453 1.345 . S
C456 N451 1.360 . S
C456 C454 1.417 . S
C456 C460 1.432 . S
H457 C462 0.930 . S
N458 Tb420 2.600 . S
N458 C460 1.359 . S
N458 C461 1.327 . S
C459 H445 0.931 . S
C459 C461 1.392 . S
C459 C462 1.370 . S
C460 C456 1.432 . S
C460 N458 1.359 . S
C460 C463 1.414 . S
C461 H443 0.930 . S
C461 N458 1.327 . S
C461 C459 1.392 . S
C462 H457 0.930 . S
C462 C459 1.370 . S
C462 C463 1.385 . S
C463 C460 1.414 . S
C463 C462 1.385 . S
C463 C485 1.444 . S
O464 Tb420 2.546 . S
O464 C484 1.251 . S
O465 Tb420 2.610 . S
O465 Tb431 2.362 . S
O465 C476 1.283 . S
O466 Tb431 2.421 . S
O466 C483 1.262 . S
O467 Tb420 2.320 . S
O467 C483 1.260 . S
O468 Tb420 2.552 . S
O468 C476 1.243 . S
O469 Tb420 2.413 . S
O469 C484 1.256 . S
O470 Tb431 2.546 . S
O470 C495 1.251 . S
O471 Tb420 2.362 . S
O471 Tb431 2.610 . S
O471 C487 1.283 . S
O472 Tb420 2.421 . S
O472 C494 1.262 . S
O473 Tb431 2.320 . S
O473 C494 1.260 . S
O474 Tb431 2.552 . S
O474 C487 1.243 . S
O475 Tb431 2.413 . S
O475 C495 1.256 . S
C476 O465 1.283 . S
C476 O468 1.243 . S
C477 C479 1.382 . S
C477 C481 1.393 . S
C477 C484 1.500 . S
C478 C479 1.400 . S
C478 C480 1.384 . S
C479 C477 1.382 . S
C479 C478 1.400 . S
C479 H496 0.930 . S
C480 C478 1.384 . S
C480 C482 1.392 . S
C480 H497 0.931 . S
C481 C477 1.393 . S
C481 C482 1.401 . S
C481 H498 0.930 . S
C482 C480 1.392 . S
C482 C481 1.401 . S
C482 H499 0.930 . S
C483 O466 1.262 . S
C483 O467 1.260 . S
C484 Tb420 2.833 . S
C484 O464 1.251 . S
C484 O469 1.256 . S
C484 C477 1.500 . S
C485 H450 0.929 . S
C485 C463 1.444 . S
C485 C486 1.317 . S
C486 H448 0.930 . S
C486 C454 1.432 . S
C486 C485 1.317 . S
C487 O471 1.283 . S
C487 O474 1.243 . S
C488 C489 1.382 . S
C488 C492 1.393 . S
C488 C495 1.500 . S
C489 C488 1.382 . S
C489 C490 1.400 . S
C489 H500 0.930 . S
C490 C489 1.400 . S
C490 C491 1.384 . S
C491 C490 1.384 . S
C491 C493 1.392 . S
C491 H501 0.931 . S
C492 C488 1.393 . S
C492 C493 1.401 . S
C492 H502 0.930 . S
C493 C491 1.392 . S
C493 C492 1.401 . S
C493 H503 0.930 . S
C494 O472 1.262 . S
C494 O473 1.260 . S
C495 Tb431 2.833 . S
C495 O470 1.251 . S
C495 O475 1.256 . S
C495 C488 1.500 . S
H496 C479 0.930 . S
H497 C480 0.931 . S
H498 C481 0.930 . S
H499 C482 0.930 . S
H500 C489 0.930 . S
H501 C491 0.931 . S
H502 C492 0.930 . S
H503 C493 0.930 . S
Tb504 N535 2.660 . S
Tb504 N542 2.600 . S
Tb504 O548 2.546 . S
Tb504 O549 2.610 . S
Tb504 O551 2.320 . S
Tb504 O552 2.552 . S
Tb504 O553 2.413 . S
Tb504 O555 2.362 . S
Tb504 O556 2.421 . S
Tb504 C568 2.833 . S
C505 C508 1.432 . S
C505 C509 1.414 . S
C505 N512 1.359 . S
C506 C508 1.417 . S
C506 C510 1.432 . S
C506 C518 1.410 . S
C507 C509 1.444 . S
C507 C510 1.317 . S
C507 H530 0.929 . S
C508 C505 1.432 . S
C508 C506 1.417 . S
C508 N516 1.360 . S
C509 C505 1.414 . S
C509 C507 1.444 . S
C509 C514 1.385 . S
C510 C506 1.432 . S
C510 C507 1.317 . S
C510 H522 0.930 . S
C511 C513 1.392 . S
C511 C514 1.370 . S
C511 H523 0.931 . S
N512 C505 1.359 . S
N512 C513 1.327 . S
N512 Tb515 2.600 . S
C513 C511 1.392 . S
C513 N512 1.327 . S
C513 H520 0.930 . S
C514 C509 1.385 . S
C514 C511 1.370 . S
C514 H533 0.930 . S
Tb515 N512 2.600 . S
Tb515 N516 2.660 . S
Tb515 O549 2.362 . S
Tb515 O550 2.421 . S
Tb515 O554 2.546 . S
Tb515 O555 2.610 . S
Tb515 O557 2.320 . S
Tb515 O558 2.552 . S
Tb515 O559 2.413 . S
Tb515 C579 2.833 . S
N516 C508 1.360 . S
N516 Tb515 2.660 . S
N516 C517 1.305 . S
C517 N516 1.305 . S
C517 C519 1.407 . S
C517 H524 0.930 . S
C518 C506 1.410 . S
C518 C519 1.345 . S
C518 H526 0.930 . S
C519 C517 1.407 . S
C519 C518 1.345 . S
C519 H521 0.930 . S
H520 C513 0.930 . S
H521 C519 0.930 . S
H522 C510 0.930 . S
H523 C511 0.931 . S
H524 C517 0.930 . S
H525 C539 0.930 . S
H526 C518 0.930 . S
H527 C545 0.930 . S
H528 C536 0.930 . S
H529 C543 0.931 . S
H530 C507 0.929 . S
H531 C537 0.930 . S
H532 C570 0.930 . S
H533 C514 0.930 . S
H534 C569 0.929 . S
N535 Tb504 2.660 . S
N535 C536 1.305 . S
N535 C540 1.360 . S
C536 H528 0.930 . S
C536 N535 1.305 . S
C536 C539 1.407 . S
C537 H531 0.930 . S
C537 C538 1.410 . S
C537 C539 1.345 . S
C538 C537 1.410 . S
C538 C540 1.417 . S
C538 C570 1.432 . S
C539 H525 0.930 . S
C539 C536 1.407 . S
C539 C537 1.345 . S
C540 N535 1.360 . S
C540 C538 1.417 . S
C540 C544 1.432 . S
H541 C546 0.930 . S
N542 Tb504 2.600 . S
N542 C544 1.359 . S
N542 C545 1.327 . S
C543 H529 0.931 . S
C543 C545 1.392 . S
C543 C546 1.370 . S
C544 C540 1.432 . S
C544 N542 1.359 . S
C544 C547 1.414 . S
C545 H527 0.930 . S
C545 N542 1.327 . S
C545 C543 1.392 . S
C546 H541 0.930 . S
C546 C543 1.370 . S
C546 C547 1.385 . S
C547 C544 1.414 . S
C547 C546 1.385 . S
C547 C569 1.444 . S
O548 Tb504 2.546 . S
O548 C568 1.251 . S
O549 Tb504 2.610 . S
O549 Tb515 2.362 . S
O549 C560 1.283 . S
O550 Tb515 2.421 . S
O550 C567 1.262 . S
O551 Tb504 2.320 . S
O551 C567 1.260 . S
O552 Tb504 2.552 . S
O552 C560 1.243 . S
O553 Tb504 2.413 . S
O553 C568 1.256 . S
O554 Tb515 2.546 . S
O554 C579 1.251 . S
O555 Tb504 2.362 . S
O555 Tb515 2.610 . S
O555 C571 1.283 . S
O556 Tb504 2.421 . S
O556 C578 1.262 . S
O557 Tb515 2.320 . S
O557 C578 1.260 . S
O558 Tb515 2.552 . S
O558 C571 1.243 . S
O559 Tb515 2.413 . S
O559 C579 1.256 . S
C560 O549 1.283 . S
C560 O552 1.243 . S
C561 C563 1.382 . S
C561 C565 1.393 . S
C561 C568 1.500 . S
C562 C563 1.400 . S
C562 C564 1.384 . S
C563 C561 1.382 . S
C563 C562 1.400 . S
C563 H580 0.930 . S
C564 C562 1.384 . S
C564 C566 1.392 . S
C564 H581 0.931 . S
C565 C561 1.393 . S
C565 C566 1.401 . S
C565 H582 0.930 . S
C566 C564 1.392 . S
C566 C565 1.401 . S
C566 H583 0.930 . S
C567 O550 1.262 . S
C567 O551 1.260 . S
C568 Tb504 2.833 . S
C568 O548 1.251 . S
C568 O553 1.256 . S
C568 C561 1.500 . S
C569 H534 0.929 . S
C569 C547 1.444 . S
C569 C570 1.317 . S
C570 H532 0.930 . S
C570 C538 1.432 . S
C570 C569 1.317 . S
C571 O555 1.283 . S
C571 O558 1.243 . S
C572 C573 1.382 . S
C572 C576 1.393 . S
C572 C579 1.500 . S
C573 C572 1.382 . S
C573 C574 1.400 . S
C573 H584 0.930 . S
C574 C573 1.400 . S
C574 C575 1.384 . S
C575 C574 1.384 . S
C575 C577 1.392 . S
C575 H585 0.931 . S
C576 C572 1.393 . S
C576 C577 1.401 . S
C576 H586 0.930 . S
C577 C575 1.392 . S
C577 C576 1.401 . S
C577 H587 0.930 . S
C578 O556 1.262 . S
C578 O557 1.260 . S
C579 Tb515 2.833 . S
C579 O554 1.251 . S
C579 O559 1.256 . S
C579 C572 1.500 . S
H580 C563 0.930 . S
H581 C564 0.931 . S
H582 C565 0.930 . S
H583 C566 0.930 . S
H584 C573 0.930 . S
H585 C575 0.931 . S
H586 C576 0.930 . S
H587 C577 0.930 . S
Tb588 N619 2.660 . S
Tb588 N626 2.600 . S
Tb588 O632 2.546 . S
Tb588 O633 2.610 . S
Tb588 O635 2.320 . S
Tb588 O636 2.552 . S
Tb588 O637 2.413 . S
Tb588 O639 2.362 . S
Tb588 O640 2.421 . S
Tb588 C652 2.833 . S
C589 C592 1.432 . S
C589 C593 1.414 . S
C589 N596 1.359 . S
C590 C592 1.417 . S
C590 C594 1.432 . S
C590 C602 1.410 . S
C591 C593 1.444 . S
C591 C594 1.317 . S
C591 H614 0.929 . S
C592 C589 1.432 . S
C592 C590 1.417 . S
C592 N600 1.360 . S
C593 C589 1.414 . S
C593 C591 1.444 . S
C593 C598 1.385 . S
C594 C590 1.432 . S
C594 C591 1.317 . S
C594 H606 0.930 . S
C595 C597 1.392 . S
C595 C598 1.370 . S
C595 H607 0.931 . S
N596 C589 1.359 . S
N596 C597 1.327 . S
N596 Tb599 2.600 . S
C597 C595 1.392 . S
C597 N596 1.327 . S
C597 H604 0.930 . S
C598 C593 1.385 . S
C598 C595 1.370 . S
C598 H617 0.930 . S
Tb599 N596 2.600 . S
Tb599 N600 2.660 . S
Tb599 O633 2.362 . S
Tb599 O634 2.421 . S
Tb599 O638 2.546 . S
Tb599 O639 2.610 . S
Tb599 O641 2.320 . S
Tb599 O642 2.552 . S
Tb599 O643 2.413 . S
Tb599 C663 2.833 . S
N600 C592 1.360 . S
N600 Tb599 2.660 . S
N600 C601 1.305 . S
C601 N600 1.305 . S
C601 C603 1.407 . S
C601 H608 0.930 . S
C602 C590 1.410 . S
C602 C603 1.345 . S
C602 H610 0.930 . S
C603 C601 1.407 . S
C603 C602 1.345 . S
C603 H605 0.930 . S
H604 C597 0.930 . S
H605 C603 0.930 . S
H606 C594 0.930 . S
H607 C595 0.931 . S
H608 C601 0.930 . S
H609 C623 0.930 . S
H610 C602 0.930 . S
H611 C629 0.930 . S
H612 C620 0.930 . S
H613 C627 0.931 . S
H614 C591 0.929 . S
H615 C621 0.930 . S
H616 C654 0.930 . S
H617 C598 0.930 . S
H618 C653 0.978 . S
N619 Tb588 2.660 . S
N619 C620 1.305 . S
N619 C624 1.360 . S
C620 H612 0.930 . S
C620 N619 1.305 . S
C620 C623 1.407 . S
C621 H615 0.930 . S
C621 C622 1.410 . S
C621 C623 1.345 . S
C622 C621 1.410 . S
C622 C624 1.417 . S
C622 C654 1.432 . S
C623 H609 0.930 . S
C623 C620 1.407 . S
C623 C621 1.345 . S
C624 N619 1.360 . S
C624 C622 1.417 . S
C624 C628 1.432 . S
H625 C630 0.930 . S
N626 Tb588 2.600 . S
N626 C628 1.359 . S
N626 C629 1.327 . S
C627 H613 0.931 . S
C627 C629 1.392 1_655 S
C627 C630 1.370 . S
C628 C624 1.432 . S
C628 N626 1.359 . S
C628 C631 1.414 . S
C629 H611 0.930 . S
C629 N626 1.327 . S
C629 C627 1.392 1_455 S
C630 H625 0.930 . S
C630 C627 1.370 . S
C630 C631 1.385 1_655 S
C631 C628 1.414 . S
C631 C630 1.385 1_455 S
C631 C653 1.436 1_455 S
O632 Tb588 2.546 . S
O632 C652 1.251 . S
O633 Tb588 2.610 . S
O633 Tb599 2.362 . S
O633 C644 1.283 . S
O634 Tb599 2.421 . S
O634 C651 1.262 . S
O635 Tb588 2.320 . S
O635 C651 1.260 . S
O636 Tb588 2.552 . S
O636 C644 1.243 . S
O637 Tb588 2.413 . S
O637 C652 1.256 . S
O638 Tb599 2.546 . S
O638 C663 1.251 . S
O639 Tb588 2.362 . S
O639 Tb599 2.610 . S
O639 C655 1.283 . S
O640 Tb588 2.421 . S
O640 C662 1.262 . S
O641 Tb599 2.320 . S
O641 C662 1.260 . S
O642 Tb599 2.552 . S
O642 C655 1.243 . S
O643 Tb599 2.413 . S
O643 C663 1.256 . S
C644 O633 1.283 . S
C644 O636 1.243 . S
C645 C647 1.382 . S
C645 C649 1.393 . S
C645 C652 1.500 . S
C646 C647 1.400 . S
C646 C648 1.384 . S
C647 C645 1.382 . S
C647 C646 1.400 . S
C647 H664 0.930 . S
C648 C646 1.384 . S
C648 C650 1.392 . S
C648 H665 0.931 . S
C649 C645 1.393 . S
C649 C650 1.401 . S
C649 H666 0.930 . S
C650 C648 1.392 . S
C650 C649 1.401 . S
C650 H667 0.930 . S
C651 O634 1.262 . S
C651 O635 1.260 . S
C652 Tb588 2.833 . S
C652 O632 1.251 . S
C652 O637 1.256 . S
C652 C645 1.500 . S
C653 H618 0.978 . S
C653 C631 1.436 1_655 S
C653 C654 1.279 1_655 S
C654 H616 0.930 . S
C654 C622 1.432 . S
C654 C653 1.279 1_455 S
C655 O639 1.283 . S
C655 O642 1.243 . S
C656 C657 1.382 . S
C656 C660 1.393 . S
C656 C663 1.500 . S
C657 C656 1.382 . S
C657 C658 1.400 . S
C657 H668 0.930 . S
C658 C657 1.400 . S
C658 C659 1.384 . S
C659 C658 1.384 . S
C659 C661 1.392 . S
C659 H669 0.931 . S
C660 C656 1.393 . S
C660 C661 1.401 . S
C660 H670 0.930 . S
C661 C659 1.392 . S
C661 C660 1.401 . S
C661 H671 0.930 . S
C662 O640 1.262 . S
C662 O641 1.260 . S
C663 Tb599 2.833 . S
C663 O638 1.251 . S
C663 O643 1.256 . S
C663 C656 1.500 . S
H664 C647 0.930 . S
H665 C648 0.931 . S
H666 C649 0.930 . S
H667 C650 0.930 . S
H668 C657 0.930 . S
H669 C659 0.931 . S
H670 C660 0.930 . S
H671 C661 0.930 . S
Tb672 N703 2.660 . S
Tb672 N710 2.600 . S
Tb672 O716 2.546 . S
Tb672 O717 2.610 . S
Tb672 O719 2.320 . S
Tb672 O720 2.552 . S
Tb672 O721 2.413 . S
Tb672 O723 2.362 . S
Tb672 O724 2.421 . S
Tb672 C736 2.833 . S
C673 C676 1.432 . S
C673 C677 1.414 . S
C673 N680 1.359 . S
C674 C676 1.417 . S
C674 C678 1.432 . S
C674 C686 1.410 . S
C675 C677 1.444 . S
C675 C678 1.317 . S
C675 H698 0.929 . S
C676 C673 1.432 . S
C676 C674 1.417 . S
C676 N684 1.360 . S
C677 C673 1.414 . S
C677 C675 1.444 . S
C677 C682 1.385 . S
C678 C674 1.432 . S
C678 C675 1.317 . S
C678 H690 0.930 . S
C679 C681 1.392 . S
C679 C682 1.370 . S
C679 H691 0.931 . S
N680 C673 1.359 . S
N680 C681 1.327 . S
N680 Tb683 2.600 . S
C681 C679 1.392 . S
C681 N680 1.327 . S
C681 H688 0.930 . S
C682 C677 1.385 . S
C682 C679 1.370 . S
C682 H701 0.930 . S
Tb683 N680 2.600 . S
Tb683 N684 2.660 . S
Tb683 O717 2.362 . S
Tb683 O718 2.421 . S
Tb683 O722 2.546 . S
Tb683 O723 2.610 . S
Tb683 O725 2.320 . S
Tb683 O726 2.552 . S
Tb683 O727 2.413 . S
Tb683 C747 2.833 . S
N684 C676 1.360 . S
N684 Tb683 2.660 . S
N684 C685 1.305 . S
C685 N684 1.305 . S
C685 C687 1.407 . S
C685 H692 0.930 . S
C686 C674 1.410 . S
C686 C687 1.345 . S
C686 H694 0.930 . S
C687 C685 1.407 . S
C687 C686 1.345 . S
C687 H689 0.930 . S
H688 C681 0.930 . S
H689 C687 0.930 . S
H690 C678 0.930 . S
H691 C679 0.931 . S
H692 C685 0.930 . S
H693 C707 0.930 . S
H694 C686 0.930 . S
H695 C713 0.930 . S
H696 C704 0.930 . S
H697 C711 0.931 . S
H698 C675 0.929 . S
H699 C705 0.930 . S
H700 C738 0.930 . S
H701 C682 0.930 . S
H702 C737 0.929 . S
N703 Tb672 2.660 . S
N703 C704 1.305 . S
N703 C708 1.360 . S
C704 H696 0.930 . S
C704 N703 1.305 . S
C704 C707 1.407 . S
C705 H699 0.930 . S
C705 C706 1.410 . S
C705 C707 1.345 . S
C706 C705 1.410 . S
C706 C708 1.417 . S
C706 C738 1.432 . S
C707 H693 0.930 . S
C707 C704 1.407 . S
C707 C705 1.345 . S
C708 N703 1.360 . S
C708 C706 1.417 . S
C708 C712 1.432 . S
H709 C714 0.930 . S
N710 Tb672 2.600 . S
N710 C712 1.359 . S
N710 C713 1.327 . S
C711 H697 0.931 . S
C711 C713 1.392 . S
C711 C714 1.370 . S
C712 C708 1.432 . S
C712 N710 1.359 . S
C712 C715 1.414 . S
C713 H695 0.930 . S
C713 N710 1.327 . S
C713 C711 1.392 . S
C714 H709 0.930 . S
C714 C711 1.370 . S
C714 C715 1.385 . S
C715 C712 1.414 . S
C715 C714 1.385 . S
C715 C737 1.444 . S
O716 Tb672 2.546 . S
O716 C736 1.251 . S
O717 Tb672 2.610 . S
O717 Tb683 2.362 . S
O717 C728 1.283 . S
O718 Tb683 2.421 . S
O718 C735 1.262 . S
O719 Tb672 2.320 . S
O719 C735 1.260 . S
O720 Tb672 2.552 . S
O720 C728 1.243 . S
O721 Tb672 2.413 . S
O721 C736 1.256 . S
O722 Tb683 2.546 . S
O722 C747 1.251 . S
O723 Tb672 2.362 . S
O723 Tb683 2.610 . S
O723 C739 1.283 . S
O724 Tb672 2.421 . S
O724 C746 1.262 . S
O725 Tb683 2.320 . S
O725 C746 1.260 . S
O726 Tb683 2.552 . S
O726 C739 1.243 . S
O727 Tb683 2.413 . S
O727 C747 1.256 . S
C728 O717 1.283 . S
C728 O720 1.243 . S
C729 C731 1.382 . S
C729 C733 1.393 . S
C729 C736 1.500 . S
C730 C731 1.400 . S
C730 C732 1.384 . S
C731 C729 1.382 . S
C731 C730 1.400 . S
C731 H748 0.930 . S
C732 C730 1.384 . S
C732 C734 1.392 . S
C732 H749 0.931 . S
C733 C729 1.393 . S
C733 C734 1.401 . S
C733 H750 0.930 . S
C734 C732 1.392 . S
C734 C733 1.401 . S
C734 H751 0.930 . S
C735 O718 1.262 . S
C735 O719 1.260 . S
C736 Tb672 2.833 . S
C736 O716 1.251 . S
C736 O721 1.256 . S
C736 C729 1.500 . S
C737 H702 0.929 . S
C737 C715 1.444 . S
C737 C738 1.317 . S
C738 H700 0.930 . S
C738 C706 1.432 . S
C738 C737 1.317 . S
C739 O723 1.283 . S
C739 O726 1.243 . S
C740 C741 1.382 . S
C740 C744 1.393 . S
C740 C747 1.500 . S
C741 C740 1.382 . S
C741 C742 1.400 . S
C741 H752 0.930 . S
C742 C741 1.400 . S
C742 C743 1.384 . S
C743 C742 1.384 . S
C743 C745 1.392 . S
C743 H753 0.931 . S
C744 C740 1.393 . S
C744 C745 1.401 . S
C744 H754 0.930 . S
C745 C743 1.392 . S
C745 C744 1.401 . S
C745 H755 0.930 . S
C746 O724 1.262 . S
C746 O725 1.260 . S
C747 Tb683 2.833 . S
C747 O722 1.251 . S
C747 O727 1.256 . S
C747 C740 1.500 . S
H748 C731 0.930 . S
H749 C732 0.931 . S
H750 C733 0.930 . S
H751 C734 0.930 . S
H752 C741 0.930 . S
H753 C743 0.931 . S
H754 C744 0.930 . S
H755 C745 0.930 . S
Tb756 N787 2.660 . S
Tb756 N794 2.600 . S
Tb756 O800 2.546 . S
Tb756 O801 2.610 . S
Tb756 O803 2.320 . S
Tb756 O804 2.552 . S
Tb756 O805 2.413 . S
Tb756 O807 2.362 . S
Tb756 O808 2.421 . S
Tb756 C820 2.833 . S
C757 C760 1.432 . S
C757 C761 1.414 . S
C757 N764 1.359 . S
C758 C760 1.417 . S
C758 C762 1.432 . S
C758 C770 1.410 . S
C759 C761 1.436 1_655 S
C759 C762 1.279 1_655 S
C759 H782 0.978 . S
C760 C757 1.432 . S
C760 C758 1.417 . S
C760 N768 1.360 . S
C761 C757 1.414 . S
C761 C759 1.436 1_455 S
C761 C766 1.385 1_455 S
C762 C758 1.432 . S
C762 C759 1.279 1_455 S
C762 H774 0.930 . S
C763 C765 1.392 1_655 S
C763 C766 1.370 . S
C763 H775 0.931 . S
N764 C757 1.359 . S
N764 C765 1.327 . S
N764 Tb767 2.600 . S
C765 C763 1.392 1_455 S
C765 N764 1.327 . S
C765 H772 0.930 . S
C766 C761 1.385 1_655 S
C766 C763 1.370 . S
C766 H785 0.930 . S
Tb767 N764 2.600 . S
Tb767 N768 2.660 . S
Tb767 O801 2.362 . S
Tb767 O802 2.421 . S
Tb767 O806 2.546 . S
Tb767 O807 2.610 . S
Tb767 O809 2.320 . S
Tb767 O810 2.552 . S
Tb767 O811 2.413 . S
Tb767 C831 2.833 . S
N768 C760 1.360 . S
N768 Tb767 2.660 . S
N768 C769 1.305 . S
C769 N768 1.305 . S
C769 C771 1.407 . S
C769 H776 0.930 . S
C770 C758 1.410 . S
C770 C771 1.345 . S
C770 H778 0.930 . S
C771 C769 1.407 . S
C771 C770 1.345 . S
C771 H773 0.930 . S
H772 C765 0.930 . S
H773 C771 0.930 . S
H774 C762 0.930 . S
H775 C763 0.931 . S
H776 C769 0.930 . S
H777 C791 0.930 . S
H778 C770 0.930 . S
H779 C797 0.930 . S
H780 C788 0.930 . S
H781 C795 0.931 . S
H782 C759 0.978 . S
H783 C789 0.930 . S
H784 C822 0.930 . S
H785 C766 0.930 . S
H786 C821 0.929 . S
N787 Tb756 2.660 . S
N787 C788 1.305 . S
N787 C792 1.360 . S
C788 H780 0.930 . S
C788 N787 1.305 . S
C788 C791 1.407 . S
C789 H783 0.930 . S
C789 C790 1.410 . S
C789 C791 1.345 . S
C790 C789 1.410 . S
C790 C792 1.417 . S
C790 C822 1.432 . S
C791 H777 0.930 . S
C791 C788 1.407 . S
C791 C789 1.345 . S
C792 N787 1.360 . S
C792 C790 1.417 . S
C792 C796 1.432 . S
H793 C798 0.930 . S
N794 Tb756 2.600 . S
N794 C796 1.359 . S
N794 C797 1.327 . S
C795 H781 0.931 . S
C795 C797 1.392 . S
C795 C798 1.370 . S
C796 C792 1.432 . S
C796 N794 1.359 . S
C796 C799 1.414 . S
C797 H779 0.930 . S
C797 N794 1.327 . S
C797 C795 1.392 . S
C798 H793 0.930 . S
C798 C795 1.370 . S
C798 C799 1.385 . S
C799 C796 1.414 . S
C799 C798 1.385 . S
C799 C821 1.444 . S
O800 Tb756 2.546 . S
O800 C820 1.251 . S
O801 Tb756 2.610 . S
O801 Tb767 2.362 . S
O801 C812 1.283 . S
O802 Tb767 2.421 . S
O802 C819 1.262 . S
O803 Tb756 2.320 . S
O803 C819 1.260 . S
O804 Tb756 2.552 . S
O804 C812 1.243 . S
O805 Tb756 2.413 . S
O805 C820 1.256 . S
O806 Tb767 2.546 . S
O806 C831 1.251 . S
O807 Tb756 2.362 . S
O807 Tb767 2.610 . S
O807 C823 1.283 . S
O808 Tb756 2.421 . S
O808 C830 1.262 . S
O809 Tb767 2.320 . S
O809 C830 1.260 . S
O810 Tb767 2.552 . S
O810 C823 1.243 . S
O811 Tb767 2.413 . S
O811 C831 1.256 . S
C812 O801 1.283 . S
C812 O804 1.243 . S
C813 C815 1.382 . S
C813 C817 1.393 . S
C813 C820 1.500 . S
C814 C815 1.400 . S
C814 C816 1.384 . S
C815 C813 1.382 . S
C815 C814 1.400 . S
C815 H832 0.930 . S
C816 C814 1.384 . S
C816 C818 1.392 . S
C816 H833 0.931 . S
C817 C813 1.393 . S
C817 C818 1.401 . S
C817 H834 0.930 . S
C818 C816 1.392 . S
C818 C817 1.401 . S
C818 H835 0.930 . S
C819 O802 1.262 . S
C819 O803 1.260 . S
C820 Tb756 2.833 . S
C820 O800 1.251 . S
C820 O805 1.256 . S
C820 C813 1.500 . S
C821 H786 0.929 . S
C821 C799 1.444 . S
C821 C822 1.317 . S
C822 H784 0.930 . S
C822 C790 1.432 . S
C822 C821 1.317 . S
C823 O807 1.283 . S
C823 O810 1.243 . S
C824 C825 1.382 . S
C824 C828 1.393 . S
C824 C831 1.500 . S
C825 C824 1.382 . S
C825 C826 1.400 . S
C825 H836 0.930 . S
C826 C825 1.400 . S
C826 C827 1.384 . S
C827 C826 1.384 . S
C827 C829 1.392 . S
C827 H837 0.931 . S
C828 C824 1.393 . S
C828 C829 1.401 . S
C828 H838 0.930 . S
C829 C827 1.392 . S
C829 C828 1.401 . S
C829 H839 0.930 . S
C830 O808 1.262 . S
C830 O809 1.260 . S
C831 Tb767 2.833 . S
C831 O806 1.251 . S
C831 O811 1.256 . S
C831 C824 1.500 . S
H832 C815 0.930 . S
H833 C816 0.931 . S
H834 C817 0.930 . S
H835 C818 0.930 . S
H836 C825 0.930 . S
H837 C827 0.931 . S
H838 C828 0.930 . S
H839 C829 0.930 . S
Tb840 N871 2.660 1_554 S
Tb840 N878 2.600 . S
Tb840 O884 2.546 . S
Tb840 O885 2.610 . S
Tb840 O887 2.320 . S
Tb840 O888 2.552 . S
Tb840 O889 2.413 1_554 S
Tb840 O891 2.362 . S
Tb840 O892 2.421 . S
Tb840 C904 2.833 1_554 S
C841 C844 1.432 . S
C841 C845 1.414 . S
C841 N848 1.359 . S
C842 C844 1.417 . S
C842 C846 1.432 . S
C842 C854 1.410 . S
C843 C845 1.444 . S
C843 C846 1.317 . S
C843 H866 0.929 . S
C844 C841 1.432 . S
C844 C842 1.417 . S
C844 N852 1.360 . S
C845 C841 1.414 . S
C845 C843 1.444 . S
C845 C850 1.385 . S
C846 C842 1.432 . S
C846 C843 1.317 . S
C846 H858 0.930 . S
C847 C849 1.392 . S
C847 C850 1.370 . S
C847 H859 0.931 . S
N848 C841 1.359 . S
N848 C849 1.327 . S
N848 Tb851 2.600 . S
C849 C847 1.392 . S
C849 N848 1.327 . S
C849 H856 0.930 . S
C850 C845 1.385 . S
C850 C847 1.370 . S
C850 H869 0.930 . S
Tb851 N848 2.600 . S
Tb851 N852 2.660 . S
Tb851 O885 2.362 . S
Tb851 O886 2.421 . S
Tb851 O890 2.546 . S
Tb851 O891 2.610 . S
Tb851 O893 2.320 . S
Tb851 O894 2.552 . S
Tb851 O895 2.413 . S
Tb851 C915 2.833 . S
N852 C844 1.360 . S
N852 Tb851 2.660 . S
N852 C853 1.305 . S
C853 N852 1.305 . S
C853 C855 1.407 . S
C853 H860 0.930 . S
C854 C842 1.410 . S
C854 C855 1.345 . S
C854 H862 0.930 . S
C855 C853 1.407 . S
C855 C854 1.345 . S
C855 H857 0.930 . S
H856 C849 0.930 . S
H857 C855 0.930 . S
H858 C846 0.930 . S
H859 C847 0.931 . S
H860 C853 0.930 . S
H861 C875 0.930 . S
H862 C854 0.930 . S
H863 C881 0.930 . S
H864 C872 0.930 . S
H865 C879 0.931 . S
H866 C843 0.929 . S
H867 C873 0.930 . S
H868 C906 0.930 . S
H869 C850 0.930 . S
H870 C905 0.929 . S
N871 Tb840 2.660 1_556 S
N871 C872 1.305 . S
N871 C876 1.360 . S
C872 H864 0.930 . S
C872 N871 1.305 . S
C872 C875 1.407 . S
C873 H867 0.930 . S
C873 C874 1.410 . S
C873 C875 1.345 . S
C874 C873 1.410 . S
C874 C876 1.417 . S
C874 C906 1.432 . S
C875 H861 0.930 . S
C875 C872 1.407 . S
C875 C873 1.345 . S
C876 N871 1.360 . S
C876 C874 1.417 . S
C876 C880 1.432 . S
H877 C882 0.925 1_556 S
N878 Tb840 2.600 . S
N878 C880 1.359 1_554 S
N878 C881 1.327 . S
C879 H865 0.931 . S
C879 C881 1.392 . S
C879 C882 1.389 . S
C880 C876 1.432 . S
C880 N878 1.359 1_556 S
C880 C883 1.414 . S
C881 H863 0.930 . S
C881 N878 1.327 . S
C881 C879 1.392 . S
C882 H877 0.925 1_554 S
C882 C879 1.389 . S
C882 C883 1.371 1_554 S
C883 C880 1.414 . S
C883 C882 1.371 1_556 S
C883 C905 1.444 . S
O884 Tb840 2.546 . S
O884 C904 1.251 1_554 S
O885 Tb840 2.610 . S
O885 Tb851 2.362 . S
O885 C896 1.283 . S
O886 Tb851 2.421 . S
O886 C903 1.262 . S
O887 Tb840 2.320 . S
O887 C903 1.260 . S
O888 Tb840 2.552 . S
O888 C896 1.243 . S
O889 Tb840 2.413 1_556 S
O889 C904 1.256 . S
O890 Tb851 2.546 . S
O890 C915 1.251 . S
O891 Tb840 2.362 . S
O891 Tb851 2.610 . S
O891 C907 1.283 . S
O892 Tb840 2.421 . S
O892 C914 1.262 . S
O893 Tb851 2.320 . S
O893 C914 1.260 . S
O894 Tb851 2.552 . S
O894 C907 1.243 . S
O895 Tb851 2.413 . S
O895 C915 1.256 . S
C896 O885 1.283 . S
C896 O888 1.243 . S
C897 C899 1.382 . S
C897 C901 1.393 . S
C897 C904 1.500 . S
C898 C899 1.400 . S
C898 C900 1.384 . S
C899 C897 1.382 . S
C899 C898 1.400 . S
C899 H916 0.930 . S
C900 C898 1.384 . S
C900 C902 1.392 . S
C900 H917 0.931 . S
C901 C897 1.393 . S
C901 C902 1.401 . S
C901 H918 0.930 . S
C902 C900 1.392 . S
C902 C901 1.401 . S
C902 H919 0.930 . S
C903 O886 1.262 . S
C903 O887 1.260 . S
C904 Tb840 2.833 1_556 S
C904 O884 1.251 1_556 S
C904 O889 1.256 . S
C904 C897 1.500 . S
C905 H870 0.929 . S
C905 C883 1.444 . S
C905 C906 1.317 . S
C906 H868 0.930 . S
C906 C874 1.432 . S
C906 C905 1.317 . S
C907 O891 1.283 . S
C907 O894 1.243 . S
C908 C909 1.382 . S
C908 C912 1.393 . S
C908 C915 1.500 . S
C909 C908 1.382 . S
C909 C910 1.400 . S
C909 H920 0.930 . S
C910 C909 1.400 . S
C910 C911 1.384 . S
C911 C910 1.384 . S
C911 C913 1.392 . S
C911 H921 0.931 . S
C912 C908 1.393 . S
C912 C913 1.401 . S
C912 H922 0.930 . S
C913 C911 1.392 . S
C913 C912 1.401 . S
C913 H923 0.930 . S
C914 O892 1.262 . S
C914 O893 1.260 . S
C915 Tb851 2.833 . S
C915 O890 1.251 . S
C915 O895 1.256 . S
C915 C908 1.500 . S
H916 C899 0.930 . S
H917 C900 0.931 . S
H918 C901 0.930 . S
H919 C902 0.930 . S
H920 C909 0.930 . S
H921 C911 0.931 . S
H922 C912 0.930 . S
H923 C913 0.930 . S
Tb924 N955 2.660 . S
Tb924 N962 2.600 . S
Tb924 O968 2.546 . S
Tb924 O969 2.610 . S
Tb924 O971 2.320 . S
Tb924 O972 2.552 . S
Tb924 O973 2.413 . S
Tb924 O975 2.362 . S
Tb924 O976 2.421 . S
Tb924 C988 2.833 . S
C925 C928 1.432 . S
C925 C929 1.414 . S
C925 N932 1.359 . S
C926 C928 1.417 . S
C926 C930 1.432 . S
C926 C938 1.410 . S
C927 C929 1.444 . S
C927 C930 1.317 . S
C927 H950 0.929 . S
C928 C925 1.432 . S
C928 C926 1.417 . S
C928 N936 1.360 . S
C929 C925 1.414 . S
C929 C927 1.444 . S
C929 C934 1.385 . S
C930 C926 1.432 . S
C930 C927 1.317 . S
C930 H942 0.930 . S
C931 C933 1.392 . S
C931 C934 1.370 . S
C931 H943 0.931 . S
N932 C925 1.359 . S
N932 C933 1.327 . S
N932 Tb935 2.600 . S
C933 C931 1.392 . S
C933 N932 1.327 . S
C933 H940 0.930 . S
C934 C929 1.385 . S
C934 C931 1.370 . S
C934 H953 0.930 . S
Tb935 N932 2.600 . S
Tb935 N936 2.660 . S
Tb935 O969 2.362 . S
Tb935 O970 2.421 . S
Tb935 O974 2.546 . S
Tb935 O975 2.610 . S
Tb935 O977 2.320 . S
Tb935 O978 2.552 . S
Tb935 O979 2.413 . S
Tb935 C999 2.833 . S
N936 C928 1.360 . S
N936 Tb935 2.660 . S
N936 C937 1.305 . S
C937 N936 1.305 . S
C937 C939 1.407 . S
C937 H944 0.930 . S
C938 C926 1.410 . S
C938 C939 1.345 . S
C938 H946 0.930 . S
C939 C937 1.407 . S
C939 C938 1.345 . S
C939 H941 0.930 . S
H940 C933 0.930 . S
H941 C939 0.930 . S
H942 C930 0.930 . S
H943 C931 0.931 . S
H944 C937 0.930 . S
H945 C959 0.930 . S
H946 C938 0.930 . S
H947 C965 0.930 . S
H948 C956 0.930 . S
H949 C963 0.931 . S
H950 C927 0.929 . S
H951 C957 0.930 . S
H952 C990 0.930 . S
H953 C934 0.930 . S
H954 C989 0.929 . S
N955 Tb924 2.660 . S
N955 C956 1.305 . S
N955 C960 1.360 . S
C956 H948 0.930 . S
C956 N955 1.305 . S
C956 C959 1.407 . S
C957 H951 0.930 . S
C957 C958 1.410 . S
C957 C959 1.345 . S
C958 C957 1.410 . S
C958 C960 1.417 . S
C958 C990 1.432 . S
C959 H945 0.930 . S
C959 C956 1.407 . S
C959 C957 1.345 . S
C960 N955 1.360 . S
C960 C958 1.417 . S
C960 C964 1.432 . S
H961 C966 0.930 . S
N962 Tb924 2.600 . S
N962 C964 1.359 . S
N962 C965 1.327 . S
C963 H949 0.931 . S
C963 C965 1.392 . S
C963 C966 1.370 . S
C964 C960 1.432 . S
C964 N962 1.359 . S
C964 C967 1.414 . S
C965 H947 0.930 . S
C965 N962 1.327 . S
C965 C963 1.392 . S
C966 H961 0.930 . S
C966 C963 1.370 . S
C966 C967 1.385 . S
C967 C964 1.414 . S
C967 C966 1.385 . S
C967 C989 1.444 . S
O968 Tb924 2.546 . S
O968 C988 1.251 . S
O969 Tb924 2.610 . S
O969 Tb935 2.362 . S
O969 C980 1.283 . S
O970 Tb935 2.421 . S
O970 C987 1.262 . S
O971 Tb924 2.320 . S
O971 C987 1.260 . S
O972 Tb924 2.552 . S
O972 C980 1.243 . S
O973 Tb924 2.413 . S
O973 C988 1.256 . S
O974 Tb935 2.546 . S
O974 C999 1.251 . S
O975 Tb924 2.362 . S
O975 Tb935 2.610 . S
O975 C991 1.283 . S
O976 Tb924 2.421 . S
O976 C998 1.262 . S
O977 Tb935 2.320 . S
O977 C998 1.260 . S
O978 Tb935 2.552 . S
O978 C991 1.243 . S
O979 Tb935 2.413 . S
O979 C999 1.256 . S
C980 O969 1.283 . S
C980 O972 1.243 . S
C981 C983 1.382 . S
C981 C985 1.393 . S
C981 C988 1.500 . S
C982 C983 1.400 . S
C982 C984 1.384 . S
C983 C981 1.382 . S
C983 C982 1.400 . S
C983 H1000 0.930 . S
C984 C982 1.384 . S
C984 C986 1.392 . S
C984 H1001 0.931 . S
C985 C981 1.393 . S
C985 C986 1.401 . S
C985 H1002 0.930 . S
C986 C984 1.392 . S
C986 C985 1.401 . S
C986 H1003 0.930 . S
C987 O970 1.262 . S
C987 O971 1.260 . S
C988 Tb924 2.833 . S
C988 O968 1.251 . S
C988 O973 1.256 . S
C988 C981 1.500 . S
C989 H954 0.929 . S
C989 C967 1.444 . S
C989 C990 1.317 . S
C990 H952 0.930 . S
C990 C958 1.432 . S
C990 C989 1.317 . S
C991 O975 1.283 . S
C991 O978 1.243 . S
C992 C993 1.382 . S
C992 C996 1.393 . S
C992 C999 1.500 . S
C993 C992 1.382 . S
C993 C994 1.400 . S
C993 H1004 0.930 . S
C994 C993 1.400 . S
C994 C995 1.384 . S
C995 C994 1.384 . S
C995 C997 1.392 . S
C995 H1005 0.931 . S
C996 C992 1.393 . S
C996 C997 1.401 . S
C996 H1006 0.930 . S
C997 C995 1.392 . S
C997 C996 1.401 . S
C997 H1007 0.930 . S
C998 O976 1.262 . S
C998 O977 1.260 . S
C999 Tb935 2.833 . S
C999 O974 1.251 . S
C999 O979 1.256 . S
C999 C992 1.500 . S
H1000 C983 0.930 . S
H1001 C984 0.931 . S
H1002 C985 0.930 . S
H1003 C986 0.930 . S
H1004 C993 0.930 . S
H1005 C995 0.931 . S
H1006 C996 0.930 . S
H1007 C997 0.930 . S
Tb1008 N1039 2.660 . S
Tb1008 N1046 2.600 . S
Tb1008 O1052 2.546 . S
Tb1008 O1053 2.610 . S
Tb1008 O1055 2.320 . S
Tb1008 O1056 2.552 . S
Tb1008 O1057 2.413 . S
Tb1008 O1059 2.362 . S
Tb1008 O1060 2.421 . S
Tb1008 C1072 2.833 . S
C1009 C1012 1.432 . S
C1009 C1013 1.414 . S
C1009 N1016 1.359 . S
C1010 C1012 1.417 . S
C1010 C1014 1.432 . S
C1010 C1022 1.410 . S
C1011 C1013 1.444 . S
C1011 C1014 1.317 . S
C1011 H1034 0.929 . S
C1012 C1009 1.432 . S
C1012 C1010 1.417 . S
C1012 N1020 1.360 . S
C1013 C1009 1.414 . S
C1013 C1011 1.444 . S
C1013 C1018 1.385 . S
C1014 C1010 1.432 . S
C1014 C1011 1.317 . S
C1014 H1026 0.930 . S
C1015 C1017 1.392 . S
C1015 C1018 1.370 . S
C1015 H1027 0.931 . S
N1016 C1009 1.359 . S
N1016 C1017 1.327 . S
N1016 Tb1019 2.600 . S
C1017 C1015 1.392 . S
C1017 N1016 1.327 . S
C1017 H1024 0.930 . S
C1018 C1013 1.385 . S
C1018 C1015 1.370 . S
C1018 H1037 0.930 . S
Tb1019 N1016 2.600 . S
Tb1019 N1020 2.660 . S
Tb1019 O1053 2.362 . S
Tb1019 O1054 2.421 . S
Tb1019 O1058 2.546 . S
Tb1019 O1059 2.610 . S
Tb1019 O1061 2.320 . S
Tb1019 O1062 2.552 . S
Tb1019 O1063 2.413 . S
Tb1019 C1083 2.833 . S
N1020 C1012 1.360 . S
N1020 Tb1019 2.660 . S
N1020 C1021 1.305 . S
C1021 N1020 1.305 . S
C1021 C1023 1.407 . S
C1021 H1028 0.930 . S
C1022 C1010 1.410 . S
C1022 C1023 1.345 . S
C1022 H1030 0.930 . S
C1023 C1021 1.407 . S
C1023 C1022 1.345 . S
C1023 H1025 0.930 . S
H1024 C1017 0.930 . S
H1025 C1023 0.930 . S
H1026 C1014 0.930 . S
H1027 C1015 0.931 . S
H1028 C1021 0.930 . S
H1029 C1043 0.930 . S
H1030 C1022 0.930 . S
H1031 C1049 0.930 . S
H1032 C1040 0.930 . S
H1033 C1047 0.931 . S
H1034 C1011 0.929 . S
H1035 C1041 0.930 . S
H1036 C1074 0.930 . S
H1037 C1018 0.930 . S
H1038 C1073 0.929 . S
N1039 Tb1008 2.660 . S
N1039 C1040 1.305 . S
N1039 C1044 1.360 . S
C1040 H1032 0.930 . S
C1040 N1039 1.305 . S
C1040 C1043 1.407 . S
C1041 H1035 0.930 . S
C1041 C1042 1.410 . S
C1041 C1043 1.345 . S
C1042 C1041 1.410 . S
C1042 C1044 1.417 . S
C1042 C1074 1.432 . S
C1043 H1029 0.930 . S
C1043 C1040 1.407 . S
C1043 C1041 1.345 . S
C1044 N1039 1.360 . S
C1044 C1042 1.417 . S
C1044 C1048 1.432 . S
H1045 C1050 0.930 . S
N1046 Tb1008 2.600 . S
N1046 C1048 1.359 . S
N1046 C1049 1.327 . S
C1047 H1033 0.931 . S
C1047 C1049 1.392 . S
C1047 C1050 1.370 . S
C1048 C1044 1.432 . S
C1048 N1046 1.359 . S
C1048 C1051 1.414 . S
C1049 H1031 0.930 . S
C1049 N1046 1.327 . S
C1049 C1047 1.392 . S
C1050 H1045 0.930 . S
C1050 C1047 1.370 . S
C1050 C1051 1.385 . S
C1051 C1048 1.414 . S
C1051 C1050 1.385 . S
C1051 C1073 1.444 . S
O1052 Tb1008 2.546 . S
O1052 C1072 1.251 . S
O1053 Tb1008 2.610 . S
O1053 Tb1019 2.362 . S
O1053 C1064 1.283 . S
O1054 Tb1019 2.421 . S
O1054 C1071 1.262 . S
O1055 Tb1008 2.320 . S
O1055 C1071 1.260 . S
O1056 Tb1008 2.552 . S
O1056 C1064 1.243 . S
O1057 Tb1008 2.413 . S
O1057 C1072 1.256 . S
O1058 Tb1019 2.546 . S
O1058 C1083 1.251 . S
O1059 Tb1008 2.362 . S
O1059 Tb1019 2.610 . S
O1059 C1075 1.283 . S
O1060 Tb1008 2.421 . S
O1060 C1082 1.262 . S
O1061 Tb1019 2.320 . S
O1061 C1082 1.260 . S
O1062 Tb1019 2.552 . S
O1062 C1075 1.243 . S
O1063 Tb1019 2.413 . S
O1063 C1083 1.256 . S
C1064 O1053 1.283 . S
C1064 O1056 1.243 . S
C1065 C1067 1.382 . S
C1065 C1069 1.393 . S
C1065 C1072 1.500 . S
C1066 C1067 1.400 . S
C1066 C1068 1.384 . S
C1067 C1065 1.382 . S
C1067 C1066 1.400 . S
C1067 H1084 0.930 . S
C1068 C1066 1.384 . S
C1068 C1070 1.392 . S
C1068 H1085 0.931 . S
C1069 C1065 1.393 . S
C1069 C1070 1.401 . S
C1069 H1086 0.930 . S
C1070 C1068 1.392 . S
C1070 C1069 1.401 . S
C1070 H1087 0.930 . S
C1071 O1054 1.262 . S
C1071 O1055 1.260 . S
C1072 Tb1008 2.833 . S
C1072 O1052 1.251 . S
C1072 O1057 1.256 . S
C1072 C1065 1.500 . S
C1073 H1038 0.929 . S
C1073 C1051 1.444 . S
C1073 C1074 1.317 . S
C1074 H1036 0.930 . S
C1074 C1042 1.432 . S
C1074 C1073 1.317 . S
C1075 O1059 1.283 . S
C1075 O1062 1.243 . S
C1076 C1077 1.382 . S
C1076 C1080 1.393 . S
C1076 C1083 1.500 . S
C1077 C1076 1.382 . S
C1077 C1078 1.400 . S
C1077 H1088 0.930 . S
C1078 C1077 1.400 . S
C1078 C1079 1.384 . S
C1079 C1078 1.384 . S
C1079 C1081 1.392 . S
C1079 H1089 0.931 . S
C1080 C1076 1.393 . S
C1080 C1081 1.401 . S
C1080 H1090 0.930 . S
C1081 C1079 1.392 . S
C1081 C1080 1.401 . S
C1081 H1091 0.930 . S
C1082 O1060 1.262 . S
C1082 O1061 1.260 . S
C1083 Tb1019 2.833 . S
C1083 O1058 1.251 . S
C1083 O1063 1.256 . S
C1083 C1076 1.500 . S
H1084 C1067 0.930 . S
H1085 C1068 0.931 . S
H1086 C1069 0.930 . S
H1087 C1070 0.930 . S
H1088 C1077 0.930 . S
H1089 C1079 0.931 . S
H1090 C1080 0.930 . S
H1091 C1081 0.930 . S
Tb1092 N1123 2.660 . S
Tb1092 N1130 2.600 . S
Tb1092 O1136 2.546 . S
Tb1092 O1137 2.610 . S
Tb1092 O1139 2.320 . S
Tb1092 O1140 2.552 . S
Tb1092 O1141 2.413 . S
Tb1092 O1143 2.362 . S
Tb1092 O1144 2.421 . S
Tb1092 C1156 2.833 . S
C1093 C1096 1.432 . S
C1093 C1097 1.414 . S
C1093 N1100 1.359 . S
C1094 C1096 1.417 . S
C1094 C1098 1.432 . S
C1094 C1106 1.410 . S
C1095 C1097 1.444 . S
C1095 C1098 1.317 . S
C1095 H1118 0.929 . S
C1096 C1093 1.432 . S
C1096 C1094 1.417 . S
C1096 N1104 1.360 . S
C1097 C1093 1.414 . S
C1097 C1095 1.444 . S
C1097 C1102 1.385 . S
C1098 C1094 1.432 . S
C1098 C1095 1.317 . S
C1098 H1110 0.930 . S
C1099 C1101 1.392 . S
C1099 C1102 1.370 . S
C1099 H1111 0.931 . S
N1100 C1093 1.359 . S
N1100 C1101 1.327 . S
N1100 Tb1103 2.600 . S
C1101 C1099 1.392 . S
C1101 N1100 1.327 . S
C1101 H1108 0.930 . S
C1102 C1097 1.385 . S
C1102 C1099 1.370 . S
C1102 H1121 0.930 . S
Tb1103 N1100 2.600 . S
Tb1103 N1104 2.660 . S
Tb1103 O1137 2.362 . S
Tb1103 O1138 2.421 . S
Tb1103 O1142 2.546 . S
Tb1103 O1143 2.610 . S
Tb1103 O1145 2.320 . S
Tb1103 O1146 2.552 . S
Tb1103 O1147 2.413 . S
Tb1103 C1167 2.833 . S
N1104 C1096 1.360 . S
N1104 Tb1103 2.660 . S
N1104 C1105 1.305 . S
C1105 N1104 1.305 . S
C1105 C1107 1.407 . S
C1105 H1112 0.930 . S
C1106 C1094 1.410 . S
C1106 C1107 1.345 . S
C1106 H1114 0.930 . S
C1107 C1105 1.407 . S
C1107 C1106 1.345 . S
C1107 H1109 0.930 . S
H1108 C1101 0.930 . S
H1109 C1107 0.930 . S
H1110 C1098 0.930 . S
H1111 C1099 0.931 . S
H1112 C1105 0.930 . S
H1113 C1127 0.930 . S
H1114 C1106 0.930 . S
H1115 C1133 0.930 . S
H1116 C1124 0.930 . S
H1117 C1131 0.931 . S
H1118 C1095 0.929 . S
H1119 C1125 0.930 . S
H1120 C1158 0.930 . S
H1121 C1102 0.930 . S
H1122 C1157 0.978 . S
N1123 Tb1092 2.660 . S
N1123 C1124 1.305 . S
N1123 C1128 1.360 . S
C1124 H1116 0.930 . S
C1124 N1123 1.305 . S
C1124 C1127 1.407 . S
C1125 H1119 0.930 . S
C1125 C1126 1.410 . S
C1125 C1127 1.345 . S
C1126 C1125 1.410 . S
C1126 C1128 1.417 . S
C1126 C1158 1.432 . S
C1127 H1113 0.930 . S
C1127 C1124 1.407 . S
C1127 C1125 1.345 . S
C1128 N1123 1.360 . S
C1128 C1126 1.417 . S
C1128 C1132 1.432 . S
H1129 C1134 0.930 . S
N1130 Tb1092 2.600 . S
N1130 C1132 1.359 . S
N1130 C1133 1.327 . S
C1131 H1117 0.931 . S
C1131 C1133 1.392 1_455 S
C1131 C1134 1.370 . S
C1132 C1128 1.432 . S
C1132 N1130 1.359 . S
C1132 C1135 1.414 . S
C1133 H1115 0.930 . S
C1133 N1130 1.327 . S
C1133 C1131 1.392 1_655 S
C1134 H1129 0.930 . S
C1134 C1131 1.370 . S
C1134 C1135 1.385 1_455 S
C1135 C1132 1.414 . S
C1135 C1134 1.385 1_655 S
C1135 C1157 1.436 1_655 S
O1136 Tb1092 2.546 . S
O1136 C1156 1.251 . S
O1137 Tb1092 2.610 . S
O1137 Tb1103 2.362 . S
O1137 C1148 1.283 . S
O1138 Tb1103 2.421 . S
O1138 C1155 1.262 . S
O1139 Tb1092 2.320 . S
O1139 C1155 1.260 . S
O1140 Tb1092 2.552 . S
O1140 C1148 1.243 . S
O1141 Tb1092 2.413 . S
O1141 C1156 1.256 . S
O1142 Tb1103 2.546 . S
O1142 C1167 1.251 . S
O1143 Tb1092 2.362 . S
O1143 Tb1103 2.610 . S
O1143 C1159 1.283 . S
O1144 Tb1092 2.421 . S
O1144 C1166 1.262 . S
O1145 Tb1103 2.320 . S
O1145 C1166 1.260 . S
O1146 Tb1103 2.552 . S
O1146 C1159 1.243 . S
O1147 Tb1103 2.413 . S
O1147 C1167 1.256 . S
C1148 O1137 1.283 . S
C1148 O1140 1.243 . S
C1149 C1151 1.382 . S
C1149 C1153 1.393 . S
C1149 C1156 1.500 . S
C1150 C1151 1.400 . S
C1150 C1152 1.384 . S
C1151 C1149 1.382 . S
C1151 C1150 1.400 . S
C1151 H1168 0.930 . S
C1152 C1150 1.384 . S
C1152 C1154 1.392 . S
C1152 H1169 0.931 . S
C1153 C1149 1.393 . S
C1153 C1154 1.401 . S
C1153 H1170 0.930 . S
C1154 C1152 1.392 . S
C1154 C1153 1.401 . S
C1154 H1171 0.930 . S
C1155 O1138 1.262 . S
C1155 O1139 1.260 . S
C1156 Tb1092 2.833 . S
C1156 O1136 1.251 . S
C1156 O1141 1.256 . S
C1156 C1149 1.500 . S
C1157 H1122 0.978 . S
C1157 C1135 1.436 1_455 S
C1157 C1158 1.279 1_455 S
C1158 H1120 0.930 . S
C1158 C1126 1.432 . S
C1158 C1157 1.279 1_655 S
C1159 O1143 1.283 . S
C1159 O1146 1.243 . S
C1160 C1161 1.382 . S
C1160 C1164 1.393 . S
C1160 C1167 1.500 . S
C1161 C1160 1.382 . S
C1161 C1162 1.400 . S
C1161 H1172 0.930 . S
C1162 C1161 1.400 . S
C1162 C1163 1.384 . S
C1163 C1162 1.384 . S
C1163 C1165 1.392 . S
C1163 H1173 0.931 . S
C1164 C1160 1.393 . S
C1164 C1165 1.401 . S
C1164 H1174 0.930 . S
C1165 C1163 1.392 . S
C1165 C1164 1.401 . S
C1165 H1175 0.930 . S
C1166 O1144 1.262 . S
C1166 O1145 1.260 . S
C1167 Tb1103 2.833 . S
C1167 O1142 1.251 . S
C1167 O1147 1.256 . S
C1167 C1160 1.500 . S
H1168 C1151 0.930 . S
H1169 C1152 0.931 . S
H1170 C1153 0.930 . S
H1171 C1154 0.930 . S
H1172 C1161 0.930 . S
H1173 C1163 0.931 . S
H1174 C1164 0.930 . S
H1175 C1165 0.930 . S
Tb1176 N1207 2.660 . S
Tb1176 N1214 2.600 . S
Tb1176 O1220 2.546 . S
Tb1176 O1221 2.610 . S
Tb1176 O1223 2.320 . S
Tb1176 O1224 2.552 . S
Tb1176 O1225 2.413 . S
Tb1176 O1227 2.362 . S
Tb1176 O1228 2.421 . S
Tb1176 C1240 2.833 . S
C1177 C1180 1.432 . S
C1177 C1181 1.414 . S
C1177 N1184 1.359 1_554 S
C1178 C1180 1.417 . S
C1178 C1182 1.432 . S
C1178 C1190 1.410 . S
C1179 C1181 1.444 . S
C1179 C1182 1.317 . S
C1179 H1202 0.929 . S
C1180 C1177 1.432 . S
C1180 C1178 1.417 . S
C1180 N1188 1.360 . S
C1181 C1177 1.414 . S
C1181 C1179 1.444 . S
C1181 C1186 1.371 1_554 S
C1182 C1178 1.432 . S
C1182 C1179 1.317 . S
C1182 H1194 0.930 . S
C1183 C1185 1.392 . S
C1183 C1186 1.389 . S
C1183 H1195 0.931 . S
N1184 C1177 1.359 1_556 S
N1184 C1185 1.327 . S
N1184 Tb1187 2.600 . S
C1185 C1183 1.392 . S
C1185 N1184 1.327 . S
C1185 H1192 0.930 . S
C1186 C1181 1.371 1_556 S
C1186 C1183 1.389 . S
C1186 H1205 0.925 1_556 S
Tb1187 N1184 2.600 . S
Tb1187 N1188 2.660 1_556 S
Tb1187 O1221 2.362 . S
Tb1187 O1222 2.421 . S
Tb1187 O1226 2.546 . S
Tb1187 O1227 2.610 . S
Tb1187 O1229 2.320 . S
Tb1187 O1230 2.552 . S
Tb1187 O1231 2.413 1_556 S
Tb1187 C1251 2.833 1_556 S
N1188 C1180 1.360 . S
N1188 Tb1187 2.660 1_554 S
N1188 C1189 1.305 . S
C1189 N1188 1.305 . S
C1189 C1191 1.407 . S
C1189 H1196 0.930 . S
C1190 C1178 1.410 . S
C1190 C1191 1.345 . S
C1190 H1198 0.930 . S
C1191 C1189 1.407 . S
C1191 C1190 1.345 . S
C1191 H1193 0.930 . S
H1192 C1185 0.930 . S
H1193 C1191 0.930 . S
H1194 C1182 0.930 . S
H1195 C1183 0.931 . S
H1196 C1189 0.930 . S
H1197 C1211 0.930 . S
H1198 C1190 0.930 . S
H1199 C1217 0.930 . S
H1200 C1208 0.930 . S
H1201 C1215 0.931 . S
H1202 C1179 0.929 . S
H1203 C1209 0.930 . S
H1204 C1242 0.930 . S
H1205 C1186 0.925 1_554 S
H1206 C1241 0.929 . S
N1207 Tb1176 2.660 . S
N1207 C1208 1.305 . S
N1207 C1212 1.360 . S
C1208 H1200 0.930 . S
C1208 N1207 1.305 . S
C1208 C1211 1.407 . S
C1209 H1203 0.930 . S
C1209 C1210 1.410 . S
C1209 C1211 1.345 . S
C1210 C1209 1.410 . S
C1210 C1212 1.417 . S
C1210 C1242 1.432 . S
C1211 H1197 0.930 . S
C1211 C1208 1.407 . S
C1211 C1209 1.345 . S
C1212 N1207 1.360 . S
C1212 C1210 1.417 . S
C1212 C1216 1.432 . S
H1213 C1218 0.930 . S
N1214 Tb1176 2.600 . S
N1214 C1216 1.359 . S
N1214 C1217 1.327 . S
C1215 H1201 0.931 . S
C1215 C1217 1.392 . S
C1215 C1218 1.370 . S
C1216 C1212 1.432 . S
C1216 N1214 1.359 . S
C1216 C1219 1.414 . S
C1217 H1199 0.930 . S
C1217 N1214 1.327 . S
C1217 C1215 1.392 . S
C1218 H1213 0.930 . S
C1218 C1215 1.370 . S
C1218 C1219 1.385 . S
C1219 C1216 1.414 . S
C1219 C1218 1.385 . S
C1219 C1241 1.444 . S
O1220 Tb1176 2.546 . S
O1220 C1240 1.251 . S
O1221 Tb1176 2.610 . S
O1221 Tb1187 2.362 . S
O1221 C1232 1.283 . S
O1222 Tb1187 2.421 . S
O1222 C1239 1.262 . S
O1223 Tb1176 2.320 . S
O1223 C1239 1.260 . S
O1224 Tb1176 2.552 . S
O1224 C1232 1.243 . S
O1225 Tb1176 2.413 . S
O1225 C1240 1.256 . S
O1226 Tb1187 2.546 . S
O1226 C1251 1.251 1_556 S
O1227 Tb1176 2.362 . S
O1227 Tb1187 2.610 . S
O1227 C1243 1.283 . S
O1228 Tb1176 2.421 . S
O1228 C1250 1.262 . S
O1229 Tb1187 2.320 . S
O1229 C1250 1.260 . S
O1230 Tb1187 2.552 . S
O1230 C1243 1.243 . S
O1231 Tb1187 2.413 1_554 S
O1231 C1251 1.256 . S
C1232 O1221 1.283 . S
C1232 O1224 1.243 . S
C1233 C1235 1.382 . S
C1233 C1237 1.393 . S
C1233 C1240 1.500 . S
C1234 C1235 1.400 . S
C1234 C1236 1.384 . S
C1235 C1233 1.382 . S
C1235 C1234 1.400 . S
C1235 H1252 0.930 . S
C1236 C1234 1.384 . S
C1236 C1238 1.392 . S
C1236 H1253 0.931 . S
C1237 C1233 1.393 . S
C1237 C1238 1.401 . S
C1237 H1254 0.930 . S
C1238 C1236 1.392 . S
C1238 C1237 1.401 . S
C1238 H1255 0.930 . S
C1239 O1222 1.262 . S
C1239 O1223 1.260 . S
C1240 Tb1176 2.833 . S
C1240 O1220 1.251 . S
C1240 O1225 1.256 . S
C1240 C1233 1.500 . S
C1241 H1206 0.929 . S
C1241 C1219 1.444 . S
C1241 C1242 1.317 . S
C1242 H1204 0.930 . S
C1242 C1210 1.432 . S
C1242 C1241 1.317 . S
C1243 O1227 1.283 . S
C1243 O1230 1.243 . S
C1244 C1245 1.382 . S
C1244 C1248 1.393 . S
C1244 C1251 1.500 . S
C1245 C1244 1.382 . S
C1245 C1246 1.400 . S
C1245 H1256 0.930 . S
C1246 C1245 1.400 . S
C1246 C1247 1.384 . S
C1247 C1246 1.384 . S
C1247 C1249 1.392 . S
C1247 H1257 0.931 . S
C1248 C1244 1.393 . S
C1248 C1249 1.401 . S
C1248 H1258 0.930 . S
C1249 C1247 1.392 . S
C1249 C1248 1.401 . S
C1249 H1259 0.930 . S
C1250 O1228 1.262 . S
C1250 O1229 1.260 . S
C1251 Tb1187 2.833 1_554 S
C1251 O1226 1.251 1_554 S
C1251 O1231 1.256 . S
C1251 C1244 1.500 . S
H1252 C1235 0.930 . S
H1253 C1236 0.931 . S
H1254 C1237 0.930 . S
H1255 C1238 0.930 . S
H1256 C1245 0.930 . S
H1257 C1247 0.931 . S
H1258 C1248 0.930 . S
H1259 C1249 0.930 . S
Tb1260 N1291 2.660 . S
Tb1260 N1298 2.600 . S
Tb1260 O1304 2.546 . S
Tb1260 O1305 2.610 . S
Tb1260 O1307 2.320 . S
Tb1260 O1308 2.552 . S
Tb1260 O1309 2.413 . S
Tb1260 O1311 2.362 . S
Tb1260 O1312 2.421 . S
Tb1260 C1324 2.833 . S
C1261 C1264 1.432 . S
C1261 C1265 1.414 . S
C1261 N1268 1.359 . S
C1262 C1264 1.417 . S
C1262 C1266 1.432 . S
C1262 C1274 1.410 . S
C1263 C1265 1.444 . S
C1263 C1266 1.317 . S
C1263 H1286 0.929 . S
C1264 C1261 1.432 . S
C1264 C1262 1.417 . S
C1264 N1272 1.360 . S
C1265 C1261 1.414 . S
C1265 C1263 1.444 . S
C1265 C1270 1.385 . S
C1266 C1262 1.432 . S
C1266 C1263 1.317 . S
C1266 H1278 0.930 . S
C1267 C1269 1.392 . S
C1267 C1270 1.370 . S
C1267 H1279 0.931 . S
N1268 C1261 1.359 . S
N1268 C1269 1.327 . S
N1268 Tb1271 2.600 . S
C1269 C1267 1.392 . S
C1269 N1268 1.327 . S
C1269 H1276 0.930 . S
C1270 C1265 1.385 . S
C1270 C1267 1.370 . S
C1270 H1289 0.930 . S
Tb1271 N1268 2.600 . S
Tb1271 N1272 2.660 . S
Tb1271 O1305 2.362 . S
Tb1271 O1306 2.421 . S
Tb1271 O1310 2.546 . S
Tb1271 O1311 2.610 . S
Tb1271 O1313 2.320 . S
Tb1271 O1314 2.552 . S
Tb1271 O1315 2.413 . S
Tb1271 C1335 2.833 . S
N1272 C1264 1.360 . S
N1272 Tb1271 2.660 . S
N1272 C1273 1.305 . S
C1273 N1272 1.305 . S
C1273 C1275 1.407 . S
C1273 H1280 0.930 . S
C1274 C1262 1.410 . S
C1274 C1275 1.345 . S
C1274 H1282 0.930 . S
C1275 C1273 1.407 . S
C1275 C1274 1.345 . S
C1275 H1277 0.930 . S
H1276 C1269 0.930 . S
H1277 C1275 0.930 . S
H1278 C1266 0.930 . S
H1279 C1267 0.931 . S
H1280 C1273 0.930 . S
H1281 C1295 0.930 . S
H1282 C1274 0.930 . S
H1283 C1301 0.930 . S
H1284 C1292 0.930 . S
H1285 C1299 0.931 . S
H1286 C1263 0.929 . S
H1287 C1293 0.930 . S
H1288 C1326 0.930 . S
H1289 C1270 0.930 . S
H1290 C1325 0.929 . S
N1291 Tb1260 2.660 . S
N1291 C1292 1.305 . S
N1291 C1296 1.360 . S
C1292 H1284 0.930 . S
C1292 N1291 1.305 . S
C1292 C1295 1.407 . S
C1293 H1287 0.930 . S
C1293 C1294 1.410 . S
C1293 C1295 1.345 . S
C1294 C1293 1.410 . S
C1294 C1296 1.417 . S
C1294 C1326 1.432 . S
C1295 H1281 0.930 . S
C1295 C1292 1.407 . S
C1295 C1293 1.345 . S
C1296 N1291 1.360 . S
C1296 C1294 1.417 . S
C1296 C1300 1.432 . S
H1297 C1302 0.930 . S
N1298 Tb1260 2.600 . S
N1298 C1300 1.359 . S
N1298 C1301 1.327 . S
C1299 H1285 0.931 . S
C1299 C1301 1.392 . S
C1299 C1302 1.370 . S
C1300 C1296 1.432 . S
C1300 N1298 1.359 . S
C1300 C1303 1.414 . S
C1301 H1283 0.930 . S
C1301 N1298 1.327 . S
C1301 C1299 1.392 . S
C1302 H1297 0.930 . S
C1302 C1299 1.370 . S
C1302 C1303 1.385 . S
C1303 C1300 1.414 . S
C1303 C1302 1.385 . S
C1303 C1325 1.444 . S
O1304 Tb1260 2.546 . S
O1304 C1324 1.251 . S
O1305 Tb1260 2.610 . S
O1305 Tb1271 2.362 . S
O1305 C1316 1.283 . S
O1306 Tb1271 2.421 . S
O1306 C1323 1.262 . S
O1307 Tb1260 2.320 . S
O1307 C1323 1.260 . S
O1308 Tb1260 2.552 . S
O1308 C1316 1.243 . S
O1309 Tb1260 2.413 . S
O1309 C1324 1.256 . S
O1310 Tb1271 2.546 . S
O1310 C1335 1.251 . S
O1311 Tb1260 2.362 . S
O1311 Tb1271 2.610 . S
O1311 C1327 1.283 . S
O1312 Tb1260 2.421 . S
O1312 C1334 1.262 . S
O1313 Tb1271 2.320 . S
O1313 C1334 1.260 . S
O1314 Tb1271 2.552 . S
O1314 C1327 1.243 . S
O1315 Tb1271 2.413 . S
O1315 C1335 1.256 . S
C1316 O1305 1.283 . S
C1316 O1308 1.243 . S
C1317 C1319 1.382 . S
C1317 C1321 1.393 . S
C1317 C1324 1.500 . S
C1318 C1319 1.400 . S
C1318 C1320 1.384 . S
C1319 C1317 1.382 . S
C1319 C1318 1.400 . S
C1319 H1336 0.930 . S
C1320 C1318 1.384 . S
C1320 C1322 1.392 . S
C1320 H1337 0.931 . S
C1321 C1317 1.393 . S
C1321 C1322 1.401 . S
C1321 H1338 0.930 . S
C1322 C1320 1.392 . S
C1322 C1321 1.401 . S
C1322 H1339 0.930 . S
C1323 O1306 1.262 . S
C1323 O1307 1.260 . S
C1324 Tb1260 2.833 . S
C1324 O1304 1.251 . S
C1324 O1309 1.256 . S
C1324 C1317 1.500 . S
C1325 H1290 0.929 . S
C1325 C1303 1.444 . S
C1325 C1326 1.317 . S
C1326 H1288 0.930 . S
C1326 C1294 1.432 . S
C1326 C1325 1.317 . S
C1327 O1311 1.283 . S
C1327 O1314 1.243 . S
C1328 C1329 1.382 . S
C1328 C1332 1.393 . S
C1328 C1335 1.500 . S
C1329 C1328 1.382 . S
C1329 C1330 1.400 . S
C1329 H1340 0.930 . S
C1330 C1329 1.400 . S
C1330 C1331 1.384 . S
C1331 C1330 1.384 . S
C1331 C1333 1.392 . S
C1331 H1341 0.931 . S
C1332 C1328 1.393 . S
C1332 C1333 1.401 . S
C1332 H1342 0.930 . S
C1333 C1331 1.392 . S
C1333 C1332 1.401 . S
C1333 H1343 0.930 . S
C1334 O1312 1.262 . S
C1334 O1313 1.260 . S
C1335 Tb1271 2.833 . S
C1335 O1310 1.251 . S
C1335 O1315 1.256 . S
C1335 C1328 1.500 . S
H1336 C1319 0.930 . S
H1337 C1320 0.931 . S
H1338 C1321 0.930 . S
H1339 C1322 0.930 . S
H1340 C1329 0.930 . S
H1341 C1331 0.931 . S
H1342 C1332 0.930 . S
H1343 C1333 0.930 . S
H1344 C1362 0.951 . S
H1345 C1364 0.951 . S
H1346 C1366 0.950 . S
H1347 C1367 0.950 . S
H1348 C1369 0.950 . S
H1349 C1372 0.950 1_554 S
H1350 C1373 0.950 . S
H1351 C1375 0.950 . S
H1352 C1376 0.950 . S
H1353 C1377 0.951 . S
H1354 C1379 0.951 . S
H1355 C1381 0.950 . S
H1356 C1382 0.950 . S
H1357 C1384 0.950 . S
H1358 C1387 0.950 . S
H1359 C1388 0.950 . S
H1360 C1390 0.950 . S
H1361 C1391 0.950 . S
C1362 H1344 0.951 . S
C1362 C1363 1.366 . S
C1362 C1364 1.388 . S
C1363 C1362 1.366 . S
C1363 C1367 1.385 . S
C1364 H1345 0.951 . S
C1364 C1362 1.388 . S
C1364 C1365 1.366 . S
C1365 C1364 1.366 . S
C1365 C1366 1.414 . S
C1365 C1368 1.499 . S
C1366 H1346 0.950 . S
C1366 C1365 1.414 . S
C1366 C1367 1.374 . S
C1367 H1347 0.950 . S
C1367 C1363 1.385 . S
C1367 C1366 1.374 . S
C1368 C1365 1.499 . S
C1368 C1369 1.373 . S
C1368 C1370 1.389 . S
C1369 H1348 0.950 . S
C1369 C1368 1.373 . S
C1369 C1385 1.377 . S
C1370 C1368 1.389 . S
C1370 C1371 1.524 . S
C1370 C1384 1.377 . S
C1371 C1370 1.524 . S
C1371 C1372 1.397 1_554 S
C1371 C1376 1.363 1_554 S
C1372 H1349 0.950 1_556 S
C1372 C1371 1.397 1_556 S
C1372 C1373 1.334 . S
C1373 H1350 0.950 . S
C1373 C1372 1.334 . S
C1373 C1374 1.287 . S
C1374 C1373 1.287 . S
C1374 C1375 1.524 . S
C1374 H1393 0.913 . S
C1375 H1351 0.950 . S
C1375 C1374 1.524 . S
C1375 C1376 1.415 . S
C1376 H1352 0.950 . S
C1376 C1371 1.363 1_556 S
C1376 C1375 1.415 . S
C1377 H1353 0.951 . S
C1377 C1378 1.366 . S
C1377 C1379 1.388 . S
C1378 C1377 1.366 . S
C1378 C1382 1.385 . S
C1379 H1354 0.951 . S
C1379 C1377 1.388 . S
C1379 C1380 1.366 . S
C1380 C1379 1.366 . S
C1380 C1381 1.414 . S
C1380 C1383 1.499 . S
C1381 H1355 0.950 . S
C1381 C1380 1.414 . S
C1381 C1382 1.374 . S
C1382 H1356 0.950 . S
C1382 C1378 1.385 . S
C1382 C1381 1.374 . S
C1383 C1380 1.499 . S
C1383 C1384 1.373 . S
C1383 C1385 1.389 . S
C1384 H1357 0.950 . S
C1384 C1370 1.377 . S
C1384 C1383 1.373 . S
C1385 C1369 1.377 . S
C1385 C1383 1.389 . S
C1385 C1386 1.524 . S
C1386 C1385 1.524 . S
C1386 C1387 1.397 . S
C1386 C1391 1.363 . S
C1387 H1358 0.950 . S
C1387 C1386 1.397 . S
C1387 C1388 1.334 . S
C1388 H1359 0.950 . S
C1388 C1387 1.334 . S
C1388 C1389 1.287 . S
C1389 C1388 1.287 . S
C1389 C1390 1.524 . S
C1389 H1392 0.999 . S
C1390 H1360 0.950 . S
C1390 C1389 1.524 . S
C1390 C1391 1.415 . S
C1391 H1361 0.950 . S
C1391 C1386 1.363 . S
C1391 C1390 1.415 . S
H1392 C1389 0.999 . S
H1393 C1374 0.913 . S
H1394 C1412 0.951 . S
H1395 C1414 0.951 . S
H1396 C1416 0.950 . S
H1397 C1417 0.950 . S
H1398 C1419 0.950 . S
H1399 C1422 0.950 . S
H1400 C1423 0.950 . S
H1401 C1425 0.950 . S
H1402 C1426 0.950 . S
H1403 C1427 0.951 . S
H1404 C1429 0.951 . S
H1405 C1431 0.950 . S
H1406 C1432 0.950 . S
H1407 C1434 0.950 . S
H1408 C1437 0.950 . S
H1409 C1438 0.950 . S
H1410 C1440 0.950 . S
H1411 C1441 0.950 . S
C1412 H1394 0.951 . S
C1412 C1413 1.366 . S
C1412 C1414 1.388 . S
C1413 C1412 1.366 . S
C1413 C1417 1.385 . S
C1414 H1395 0.951 . S
C1414 C1412 1.388 . S
C1414 C1415 1.366 . S
C1415 C1414 1.366 . S
C1415 C1416 1.414 . S
C1415 C1418 1.499 . S
C1416 H1396 0.950 . S
C1416 C1415 1.414 . S
C1416 C1417 1.374 . S
C1417 H1397 0.950 . S
C1417 C1413 1.385 . S
C1417 C1416 1.374 . S
C1418 C1415 1.499 . S
C1418 C1419 1.373 . S
C1418 C1420 1.389 . S
C1419 H1398 0.950 . S
C1419 C1418 1.373 . S
C1419 C1435 1.377 . S
C1420 C1418 1.389 . S
C1420 C1421 1.524 . S
C1420 C1434 1.377 . S
C1421 C1420 1.524 . S
C1421 C1422 1.397 . S
C1421 C1426 1.363 . S
C1422 H1399 0.950 . S
C1422 C1421 1.397 . S
C1422 C1423 1.334 . S
C1423 H1400 0.950 . S
C1423 C1422 1.334 . S
C1423 C1424 1.287 . S
C1424 C1423 1.287 . S
C1424 C1425 1.524 . S
C1424 H1443 0.913 . S
C1425 H1401 0.950 . S
C1425 C1424 1.524 . S
C1425 C1426 1.415 . S
C1426 H1402 0.950 . S
C1426 C1421 1.363 . S
C1426 C1425 1.415 . S
C1427 H1403 0.951 . S
C1427 C1428 1.366 . S
C1427 C1429 1.388 . S
C1428 C1427 1.366 . S
C1428 C1432 1.385 . S
C1429 H1404 0.951 . S
C1429 C1427 1.388 . S
C1429 C1430 1.366 . S
C1430 C1429 1.366 . S
C1430 C1431 1.414 . S
C1430 C1433 1.499 . S
C1431 H1405 0.950 . S
C1431 C1430 1.414 . S
C1431 C1432 1.374 . S
C1432 H1406 0.950 . S
C1432 C1428 1.385 . S
C1432 C1431 1.374 . S
C1433 C1430 1.499 . S
C1433 C1434 1.373 . S
C1433 C1435 1.389 . S
C1434 H1407 0.950 . S
C1434 C1420 1.377 . S
C1434 C1433 1.373 . S
C1435 C1419 1.377 . S
C1435 C1433 1.389 . S
C1435 C1436 1.524 . S
C1436 C1435 1.524 . S
C1436 C1437 1.397 . S
C1436 C1441 1.363 . S
C1437 H1408 0.950 . S
C1437 C1436 1.397 . S
C1437 C1438 1.334 . S
C1438 H1409 0.950 . S
C1438 C1437 1.334 . S
C1438 C1439 1.287 . S
C1439 C1438 1.287 . S
C1439 C1440 1.524 . S
C1439 H1442 0.999 . S
C1440 H1410 0.950 . S
C1440 C1439 1.524 . S
C1440 C1441 1.415 . S
C1441 H1411 0.950 . S
C1441 C1436 1.363 . S
C1441 C1440 1.415 . S
H1442 C1439 0.999 . S
H1443 C1424 0.913 . S
H1444 C1462 0.951 . S
H1445 C1464 0.951 . S
H1446 C1466 0.950 . S
H1447 C1467 0.950 . S
H1448 C1469 0.950 . S
H1449 C1472 0.950 . S
H1450 C1473 0.950 . S
H1451 C1475 0.950 1_655 S
H1452 C1476 0.948 1_655 S
H1453 C1477 0.951 . S
H1454 C1479 0.951 . S
H1455 C1481 0.950 . S
H1456 C1482 0.950 . S
H1457 C1484 0.950 . S
H1458 C1487 0.950 . S
H1459 C1488 0.950 . S
H1460 C1490 0.950 1_455 S
H1461 C1491 0.948 1_455 S
C1462 H1444 0.951 . S
C1462 C1463 1.366 . S
C1462 C1464 1.388 . S
C1463 C1462 1.366 . S
C1463 C1467 1.385 . S
C1464 H1445 0.951 . S
C1464 C1462 1.388 . S
C1464 C1465 1.366 . S
C1465 C1464 1.366 . S
C1465 C1466 1.414 . S
C1465 C1468 1.499 . S
C1466 H1446 0.950 . S
C1466 C1465 1.414 . S
C1466 C1467 1.374 . S
C1467 H1447 0.950 . S
C1467 C1463 1.385 . S
C1467 C1466 1.374 . S
C1468 C1465 1.499 . S
C1468 C1469 1.373 . S
C1468 C1470 1.389 . S
C1469 H1448 0.950 . S
C1469 C1468 1.373 . S
C1469 C1485 1.377 1_455 S
C1470 C1468 1.389 . S
C1470 C1471 1.524 . S
C1470 C1484 1.377 1_455 S
C1471 C1470 1.524 . S
C1471 C1472 1.397 . S
C1471 C1476 1.364 . S
C1472 H1449 0.950 . S
C1472 C1471 1.397 . S
C1472 C1473 1.334 . S
C1473 H1450 0.950 . S
C1473 C1472 1.334 . S
C1473 C1474 1.287 . S
C1474 C1473 1.287 . S
C1474 C1475 1.524 . S
C1474 H1493 0.913 . S
C1475 H1451 0.950 1_455 S
C1475 C1474 1.524 . S
C1475 C1476 1.416 . S
C1476 H1452 0.948 1_455 S
C1476 C1471 1.364 . S
C1476 C1475 1.416 . S
C1477 H1453 0.951 . S
C1477 C1478 1.366 . S
C1477 C1479 1.388 . S
C1478 C1477 1.366 . S
C1478 C1482 1.385 . S
C1479 H1454 0.951 . S
C1479 C1477 1.388 . S
C1479 C1480 1.366 . S
C1480 C1479 1.366 . S
C1480 C1481 1.414 . S
C1480 C1483 1.499 . S
C1481 H1455 0.950 . S
C1481 C1480 1.414 . S
C1481 C1482 1.374 . S
C1482 H1456 0.950 . S
C1482 C1478 1.385 . S
C1482 C1481 1.374 . S
C1483 C1480 1.499 . S
C1483 C1484 1.373 . S
C1483 C1485 1.389 . S
C1484 H1457 0.950 . S
C1484 C1470 1.377 1_655 S
C1484 C1483 1.373 . S
C1485 C1469 1.377 1_655 S
C1485 C1483 1.389 . S
C1485 C1486 1.524 . S
C1486 C1485 1.524 . S
C1486 C1487 1.397 . S
C1486 C1491 1.364 . S
C1487 H1458 0.950 . S
C1487 C1486 1.397 . S
C1487 C1488 1.334 . S
C1488 H1459 0.950 . S
C1488 C1487 1.334 . S
C1488 C1489 1.287 . S
C1489 C1488 1.287 . S
C1489 C1490 1.524 . S
C1489 H1492 0.999 . S
C1490 H1460 0.950 1_655 S
C1490 C1489 1.524 . S
C1490 C1491 1.415 . S
C1491 H1461 0.948 1_655 S
C1491 C1486 1.364 . S
C1491 C1490 1.415 . S
H1492 C1489 0.999 . S
H1493 C1474 0.913 . S
H1494 C1512 0.951 . S
H1495 C1514 0.951 . S
H1496 C1516 0.950 . S
H1497 C1517 0.950 . S
H1498 C1519 0.950 . S
H1499 C1522 0.950 . S
H1500 C1523 0.950 . S
H1501 C1525 0.950 . S
H1502 C1526 0.950 . S
H1503 C1527 0.951 . S
H1504 C1529 0.951 . S
H1505 C1531 0.950 . S
H1506 C1532 0.950 . S
H1507 C1534 0.950 . S
H1508 C1537 0.950 . S
H1509 C1538 0.950 . S
H1510 C1540 0.950 . S
H1511 C1541 0.950 . S
C1512 H1494 0.951 . S
C1512 C1513 1.366 . S
C1512 C1514 1.388 . S
C1513 C1512 1.366 . S
C1513 C1517 1.385 . S
C1514 H1495 0.951 . S
C1514 C1512 1.388 . S
C1514 C1515 1.366 . S
C1515 C1514 1.366 . S
C1515 C1516 1.414 . S
C1515 C1518 1.499 . S
C1516 H1496 0.950 . S
C1516 C1515 1.414 . S
C1516 C1517 1.374 . S
C1517 H1497 0.950 . S
C1517 C1513 1.385 . S
C1517 C1516 1.374 . S
C1518 C1515 1.499 . S
C1518 C1519 1.373 1_655 S
C1518 C1520 1.389 . S
C1519 H1498 0.950 . S
C1519 C1518 1.373 1_455 S
C1519 C1535 1.377 . S
C1520 C1518 1.389 . S
C1520 C1521 1.524 . S
C1520 C1534 1.377 . S
C1521 C1520 1.524 . S
C1521 C1522 1.397 . S
C1521 C1526 1.363 . S
C1522 H1499 0.950 . S
C1522 C1521 1.397 . S
C1522 C1523 1.334 . S
C1523 H1500 0.950 . S
C1523 C1522 1.334 . S
C1523 C1524 1.287 . S
C1524 C1523 1.287 . S
C1524 C1525 1.524 . S
C1524 H1543 0.913 . S
C1525 H1501 0.950 . S
C1525 C1524 1.524 . S
C1525 C1526 1.415 . S
C1526 H1502 0.950 . S
C1526 C1521 1.363 . S
C1526 C1525 1.415 . S
C1527 H1503 0.951 . S
C1527 C1528 1.366 . S
C1527 C1529 1.388 . S
C1528 C1527 1.366 . S
C1528 C1532 1.385 . S
C1529 H1504 0.951 . S
C1529 C1527 1.388 . S
C1529 C1530 1.366 . S
C1530 C1529 1.366 . S
C1530 C1531 1.414 . S
C1530 C1533 1.499 . S
C1531 H1505 0.950 . S
C1531 C1530 1.414 . S
C1531 C1532 1.374 . S
C1532 H1506 0.950 . S
C1532 C1528 1.385 . S
C1532 C1531 1.374 . S
C1533 C1530 1.499 . S
C1533 C1534 1.373 1_455 S
C1533 C1535 1.389 . S
C1534 H1507 0.950 . S
C1534 C1520 1.377 . S
C1534 C1533 1.373 1_655 S
C1535 C1519 1.377 . S
C1535 C1533 1.389 . S
C1535 C1536 1.524 . S
C1536 C1535 1.524 . S
C1536 C1537 1.397 . S
C1536 C1541 1.363 . S
C1537 H1508 0.950 . S
C1537 C1536 1.397 . S
C1537 C1538 1.334 . S
C1538 H1509 0.950 . S
C1538 C1537 1.334 . S
C1538 C1539 1.287 . S
C1539 C1538 1.287 . S
C1539 C1540 1.524 . S
C1539 H1542 0.999 . S
C1540 H1510 0.950 . S
C1540 C1539 1.524 . S
C1540 C1541 1.415 . S
C1541 H1511 0.950 . S
C1541 C1536 1.363 . S
C1541 C1540 1.415 . S
H1542 C1539 0.999 . S
H1543 C1524 0.913 . S
H1544 C1562 0.951 . S
H1545 C1564 0.951 . S
H1546 C1566 0.950 . S
H1547 C1567 0.950 . S
H1548 C1569 0.950 . S
H1549 C1572 0.950 . S
H1550 C1573 0.950 . S
H1551 C1575 0.950 . S
H1552 C1576 0.950 . S
H1553 C1577 0.951 . S
H1554 C1579 0.951 . S
H1555 C1581 0.950 . S
H1556 C1582 0.950 . S
H1557 C1584 0.950 . S
H1558 C1587 0.950 . S
H1559 C1588 0.950 . S
H1560 C1590 0.950 . S
H1561 C1591 0.962 . S
C1562 H1544 0.951 . S
C1562 C1563 1.366 . S
C1562 C1564 1.388 . S
C1563 C1562 1.366 . S
C1563 C1567 1.385 . S
C1564 H1545 0.951 . S
C1564 C1562 1.388 . S
C1564 C1565 1.366 . S
C1565 C1564 1.366 . S
C1565 C1566 1.414 . S
C1565 C1568 1.499 . S
C1566 H1546 0.950 . S
C1566 C1565 1.414 . S
C1566 C1567 1.374 . S
C1567 H1547 0.950 . S
C1567 C1563 1.385 . S
C1567 C1566 1.374 . S
C1568 C1565 1.499 . S
C1568 C1569 1.373 . S
C1568 C1570 1.389 . S
C1569 H1548 0.950 . S
C1569 C1568 1.373 . S
C1569 C1585 1.377 . S
C1570 C1568 1.389 . S
C1570 C1571 1.524 . S
C1570 C1584 1.377 . S
C1571 C1570 1.524 . S
C1571 C1572 1.397 . S
C1571 C1576 1.363 . S
C1572 H1549 0.950 . S
C1572 C1571 1.397 . S
C1572 C1573 1.334 . S
C1573 H1550 0.950 . S
C1573 C1572 1.334 . S
C1573 C1574 1.287 . S
C1574 C1573 1.287 . S
C1574 C1575 1.524 . S
C1574 H1593 0.913 . S
C1575 H1551 0.950 . S
C1575 C1574 1.524 . S
C1575 C1576 1.415 . S
C1576 H1552 0.950 . S
C1576 C1571 1.363 . S
C1576 C1575 1.415 . S
C1577 H1553 0.951 . S
C1577 C1578 1.366 . S
C1577 C1579 1.388 . S
C1578 C1577 1.366 . S
C1578 C1582 1.385 . S
C1579 H1554 0.951 . S
C1579 C1577 1.388 . S
C1579 C1580 1.366 . S
C1580 C1579 1.366 . S
C1580 C1581 1.414 . S
C1580 C1583 1.499 . S
C1581 H1555 0.950 . S
C1581 C1580 1.414 . S
C1581 C1582 1.374 . S
C1582 H1556 0.950 . S
C1582 C1578 1.385 . S
C1582 C1581 1.374 . S
C1583 C1580 1.499 . S
C1583 C1584 1.373 . S
C1583 C1585 1.389 . S
C1584 H1557 0.950 . S
C1584 C1570 1.377 . S
C1584 C1583 1.373 . S
C1585 C1569 1.377 . S
C1585 C1583 1.389 . S
C1585 C1586 1.524 . S
C1586 C1585 1.524 . S
C1586 C1587 1.397 1_556 S
C1586 C1591 1.369 . S
C1587 H1558 0.950 . S
C1587 C1586 1.397 1_554 S
C1587 C1588 1.334 . S
C1588 H1559 0.950 . S
C1588 C1587 1.334 . S
C1588 C1589 1.287 . S
C1589 C1588 1.287 . S
C1589 C1590 1.524 . S
C1589 H1592 0.999 . S
C1590 H1560 0.950 . S
C1590 C1589 1.524 . S
C1590 C1591 1.398 1_554 S
C1591 H1561 0.962 . S
C1591 C1586 1.369 . S
C1591 C1590 1.398 1_556 S
H1592 C1589 0.999 . S
H1593 C1574 0.913 . S
H1594 C1612 0.951 . S
H1595 C1614 0.951 . S
H1596 C1616 0.950 . S
H1597 C1617 0.950 . S
H1598 C1619 0.950 . S
H1599 C1622 0.950 . S
H1600 C1623 0.950 . S
H1601 C1625 0.950 . S
H1602 C1626 0.950 . S
H1603 C1627 0.951 . S
H1604 C1629 0.951 . S
H1605 C1631 0.950 . S
H1606 C1632 0.950 . S
H1607 C1634 0.950 . S
H1608 C1637 0.950 . S
H1609 C1638 0.950 . S
H1610 C1640 0.950 . S
H1611 C1641 0.950 . S
C1612 H1594 0.951 . S
C1612 C1613 1.366 . S
C1612 C1614 1.388 . S
C1613 C1612 1.366 . S
C1613 C1617 1.385 . S
C1614 H1595 0.951 . S
C1614 C1612 1.388 . S
C1614 C1615 1.366 . S
C1615 C1614 1.366 . S
C1615 C1616 1.414 . S
C1615 C1618 1.499 . S
C1616 H1596 0.950 . S
C1616 C1615 1.414 . S
C1616 C1617 1.374 . S
C1617 H1597 0.950 . S
C1617 C1613 1.385 . S
C1617 C1616 1.374 . S
C1618 C1615 1.499 . S
C1618 C1619 1.373 . S
C1618 C1620 1.389 . S
C1619 H1598 0.950 . S
C1619 C1618 1.373 . S
C1619 C1635 1.377 . S
C1620 C1618 1.389 . S
C1620 C1621 1.524 . S
C1620 C1634 1.377 . S
C1621 C1620 1.524 . S
C1621 C1622 1.397 . S
C1621 C1626 1.363 . S
C1622 H1599 0.950 . S
C1622 C1621 1.397 . S
C1622 C1623 1.334 . S
C1623 H1600 0.950 . S
C1623 C1622 1.334 . S
C1623 C1624 1.287 . S
C1624 C1623 1.287 . S
C1624 C1625 1.524 . S
C1624 H1643 0.913 . S
C1625 H1601 0.950 . S
C1625 C1624 1.524 . S
C1625 C1626 1.415 . S
C1626 H1602 0.950 . S
C1626 C1621 1.363 . S
C1626 C1625 1.415 . S
C1627 H1603 0.951 . S
C1627 C1628 1.366 . S
C1627 C1629 1.388 . S
C1628 C1627 1.366 . S
C1628 C1632 1.385 . S
C1629 H1604 0.951 . S
C1629 C1627 1.388 . S
C1629 C1630 1.366 . S
C1630 C1629 1.366 . S
C1630 C1631 1.414 . S
C1630 C1633 1.499 . S
C1631 H1605 0.950 . S
C1631 C1630 1.414 . S
C1631 C1632 1.374 . S
C1632 H1606 0.950 . S
C1632 C1628 1.385 . S
C1632 C1631 1.374 . S
C1633 C1630 1.499 . S
C1633 C1634 1.373 . S
C1633 C1635 1.389 . S
C1634 H1607 0.950 . S
C1634 C1620 1.377 . S
C1634 C1633 1.373 . S
C1635 C1619 1.377 . S
C1635 C1633 1.389 . S
C1635 C1636 1.524 . S
C1636 C1635 1.524 . S
C1636 C1637 1.397 . S
C1636 C1641 1.363 . S
C1637 H1608 0.950 . S
C1637 C1636 1.397 . S
C1637 C1638 1.334 . S
C1638 H1609 0.950 . S
C1638 C1637 1.334 . S
C1638 C1639 1.287 . S
C1639 C1638 1.287 . S
C1639 C1640 1.524 . S
C1639 H1642 0.999 . S
C1640 H1610 0.950 . S
C1640 C1639 1.524 . S
C1640 C1641 1.415 . S
C1641 H1611 0.950 . S
C1641 C1636 1.363 . S
C1641 C1640 1.415 . S
H1642 C1639 0.999 . S
H1643 C1624 0.913 . S
H1644 C1662 0.951 . S
H1645 C1664 0.951 . S
H1646 C1666 0.950 . S
H1647 C1667 0.950 . S
H1648 C1669 0.950 . S
H1649 C1672 0.950 . S
H1650 C1673 0.950 . S
H1651 C1675 0.950 . S
H1652 C1676 0.950 . S
H1653 C1677 0.951 . S
H1654 C1679 0.951 . S
H1655 C1681 0.950 . S
H1656 C1682 0.950 . S
H1657 C1684 0.950 . S
H1658 C1687 0.950 . S
H1659 C1688 0.950 . S
H1660 C1690 0.950 . S
H1661 C1691 0.950 . S
C1662 H1644 0.951 . S
C1662 C1663 1.366 . S
C1662 C1664 1.388 . S
C1663 C1662 1.366 . S
C1663 C1667 1.385 . S
C1664 H1645 0.951 . S
C1664 C1662 1.388 . S
C1664 C1665 1.366 . S
C1665 C1664 1.366 . S
C1665 C1666 1.414 . S
C1665 C1668 1.499 . S
C1666 H1646 0.950 . S
C1666 C1665 1.414 . S
C1666 C1667 1.374 . S
C1667 H1647 0.950 . S
C1667 C1663 1.385 . S
C1667 C1666 1.374 . S
C1668 C1665 1.499 . S
C1668 C1669 1.373 . S
C1668 C1670 1.389 . S
C1669 H1648 0.950 . S
C1669 C1668 1.373 . S
C1669 C1685 1.377 1_655 S
C1670 C1668 1.389 . S
C1670 C1671 1.524 . S
C1670 C1684 1.377 1_655 S
C1671 C1670 1.524 . S
C1671 C1672 1.397 . S
C1671 C1676 1.363 . S
C1672 H1649 0.950 . S
C1672 C1671 1.397 . S
C1672 C1673 1.334 . S
C1673 H1650 0.950 . S
C1673 C1672 1.334 . S
C1673 C1674 1.287 . S
C1674 C1673 1.287 . S
C1674 C1675 1.524 . S
C1674 H1693 0.913 . S
C1675 H1651 0.950 . S
C1675 C1674 1.524 . S
C1675 C1676 1.415 . S
C1676 H1652 0.950 . S
C1676 C1671 1.363 . S
C1676 C1675 1.415 . S
C1677 H1653 0.951 . S
C1677 C1678 1.366 . S
C1677 C1679 1.388 . S
C1678 C1677 1.366 . S
C1678 C1682 1.385 . S
C1679 H1654 0.951 . S
C1679 C1677 1.388 . S
C1679 C1680 1.366 . S
C1680 C1679 1.366 . S
C1680 C1681 1.414 . S
C1680 C1683 1.499 . S
C1681 H1655 0.950 . S
C1681 C1680 1.414 . S
C1681 C1682 1.374 . S
C1682 H1656 0.950 . S
C1682 C1678 1.385 . S
C1682 C1681 1.374 . S
C1683 C1680 1.499 . S
C1683 C1684 1.373 . S
C1683 C1685 1.389 . S
C1684 H1657 0.950 . S
C1684 C1670 1.377 1_455 S
C1684 C1683 1.373 . S
C1685 C1669 1.377 1_455 S
C1685 C1683 1.389 . S
C1685 C1686 1.524 . S
C1686 C1685 1.524 . S
C1686 C1687 1.397 . S
C1686 C1691 1.363 . S
C1687 H1658 0.950 . S
C1687 C1686 1.397 . S
C1687 C1688 1.334 . S
C1688 H1659 0.950 . S
C1688 C1687 1.334 . S
C1688 C1689 1.287 . S
C1689 C1688 1.287 . S
C1689 C1690 1.524 . S
C1689 H1692 0.999 . S
C1690 H1660 0.950 . S
C1690 C1689 1.524 . S
C1690 C1691 1.415 . S
C1691 H1661 0.950 . S
C1691 C1686 1.363 . S
C1691 C1690 1.415 . S
H1692 C1689 0.999 . S
H1693 C1674 0.913 . S
H1694 C1712 0.951 . S
H1695 C1714 0.951 . S
H1696 C1716 0.950 . S
H1697 C1717 0.950 . S
H1698 C1719 0.950 . S
H1699 C1722 0.950 . S
H1700 C1723 0.950 . S
H1701 C1725 0.950 1_655 S
H1702 C1726 0.950 . S
H1703 C1727 0.951 . S
H1704 C1729 0.951 . S
H1705 C1731 0.950 . S
H1706 C1732 0.950 . S
H1707 C1734 0.950 . S
H1708 C1737 0.950 . S
H1709 C1738 0.950 . S
H1710 C1740 0.950 1_455 S
H1711 C1741 0.950 . S
C1712 H1694 0.951 . S
C1712 C1713 1.366 . S
C1712 C1714 1.388 . S
C1713 C1712 1.366 . S
C1713 C1717 1.385 . S
C1714 H1695 0.951 . S
C1714 C1712 1.388 . S
C1714 C1715 1.366 . S
C1715 C1714 1.366 . S
C1715 C1716 1.414 . S
C1715 C1718 1.499 . S
C1716 H1696 0.950 . S
C1716 C1715 1.414 . S
C1716 C1717 1.374 . S
C1717 H1697 0.950 . S
C1717 C1713 1.385 . S
C1717 C1716 1.374 . S
C1718 C1715 1.499 . S
C1718 C1719 1.373 . S
C1718 C1720 1.389 . S
C1719 H1698 0.950 . S
C1719 C1718 1.373 . S
C1719 C1735 1.377 1_455 S
C1720 C1718 1.389 . S
C1720 C1721 1.524 . S
C1720 C1734 1.377 1_455 S
C1721 C1720 1.524 . S
C1721 C1722 1.397 . S
C1721 C1726 1.363 1_455 S
C1722 H1699 0.950 . S
C1722 C1721 1.397 . S
C1722 C1723 1.334 . S
C1723 H1700 0.950 . S
C1723 C1722 1.334 . S
C1723 C1724 1.287 . S
C1724 C1723 1.287 . S
C1724 C1725 1.524 . S
C1724 H1743 0.913 . S
C1725 H1701 0.950 1_455 S
C1725 C1724 1.524 . S
C1725 C1726 1.415 1_455 S
C1726 H1702 0.950 . S
C1726 C1721 1.363 1_655 S
C1726 C1725 1.415 1_655 S
C1727 H1703 0.951 . S
C1727 C1728 1.366 . S
C1727 C1729 1.388 . S
C1728 C1727 1.366 . S
C1728 C1732 1.385 . S
C1729 H1704 0.951 . S
C1729 C1727 1.388 . S
C1729 C1730 1.366 . S
C1730 C1729 1.366 . S
C1730 C1731 1.414 . S
C1730 C1733 1.499 . S
C1731 H1705 0.950 . S
C1731 C1730 1.414 . S
C1731 C1732 1.374 . S
C1732 H1706 0.950 . S
C1732 C1728 1.385 . S
C1732 C1731 1.374 . S
C1733 C1730 1.499 . S
C1733 C1734 1.373 . S
C1733 C1735 1.389 . S
C1734 H1707 0.950 . S
C1734 C1720 1.377 1_655 S
C1734 C1733 1.373 . S
C1735 C1719 1.377 1_655 S
C1735 C1733 1.389 . S
C1735 C1736 1.524 . S
C1736 C1735 1.524 . S
C1736 C1737 1.397 . S
C1736 C1741 1.363 1_655 S
C1737 H1708 0.950 . S
C1737 C1736 1.397 . S
C1737 C1738 1.334 . S
C1738 H1709 0.950 . S
C1738 C1737 1.334 . S
C1738 C1739 1.287 . S
C1739 C1738 1.287 . S
C1739 C1740 1.524 . S
C1739 H1742 0.999 . S
C1740 H1710 0.950 1_655 S
C1740 C1739 1.524 . S
C1740 C1741 1.415 1_655 S
C1741 H1711 0.950 . S
C1741 C1736 1.363 1_455 S
C1741 C1740 1.415 1_455 S
H1742 C1739 0.999 . S
H1743 C1724 0.913 . S
H1744 C1762 0.951 . S
H1745 C1764 0.951 . S
H1746 C1766 0.950 . S
H1747 C1767 0.950 . S
H1748 C1769 0.950 . S
H1749 C1772 0.950 . S
H1750 C1773 0.950 . S
H1751 C1775 0.950 . S
H1752 C1776 0.950 . S
H1753 C1777 0.951 . S
H1754 C1779 0.937 1_554 S
H1755 C1781 0.950 . S
H1756 C1782 0.950 . S
H1757 C1784 0.950 . S
H1758 C1787 0.950 . S
H1759 C1788 0.950 . S
H1760 C1790 0.950 . S
H1761 C1791 0.950 . S
C1762 H1744 0.951 . S
C1762 C1763 1.366 . S
C1762 C1764 1.388 . S
C1763 C1762 1.366 . S
C1763 C1767 1.385 . S
C1764 H1745 0.951 . S
C1764 C1762 1.388 . S
C1764 C1765 1.366 . S
C1765 C1764 1.366 . S
C1765 C1766 1.414 . S
C1765 C1768 1.499 . S
C1766 H1746 0.950 . S
C1766 C1765 1.414 . S
C1766 C1767 1.374 . S
C1767 H1747 0.950 . S
C1767 C1763 1.385 . S
C1767 C1766 1.374 . S
C1768 C1765 1.499 . S
C1768 C1769 1.373 . S
C1768 C1770 1.389 . S
C1769 H1748 0.950 . S
C1769 C1768 1.373 . S
C1769 C1785 1.377 . S
C1770 C1768 1.389 . S
C1770 C1771 1.524 . S
C1770 C1784 1.377 . S
C1771 C1770 1.524 . S
C1771 C1772 1.397 . S
C1771 C1776 1.363 . S
C1772 H1749 0.950 . S
C1772 C1771 1.397 . S
C1772 C1773 1.334 . S
C1773 H1750 0.950 . S
C1773 C1772 1.334 . S
C1773 C1774 1.287 . S
C1774 C1773 1.287 . S
C1774 C1775 1.524 . S
C1774 H1793 0.913 . S
C1775 H1751 0.950 . S
C1775 C1774 1.524 . S
C1775 C1776 1.415 . S
C1776 H1752 0.950 . S
C1776 C1771 1.363 . S
C1776 C1775 1.415 . S
C1777 H1753 0.951 . S
C1777 C1778 1.366 . S
C1777 C1779 1.370 1_554 S
C1778 C1777 1.366 . S
C1778 C1782 1.385 1_554 S
C1779 H1754 0.937 1_556 S
C1779 C1777 1.370 1_556 S
C1779 C1780 1.397 . S
C1780 C1779 1.397 . S
C1780 C1781 1.414 . S
C1780 C1783 1.499 . S
C1781 H1755 0.950 . S
C1781 C1780 1.414 . S
C1781 C1782 1.374 . S
C1782 H1756 0.950 . S
C1782 C1778 1.385 1_556 S
C1782 C1781 1.374 . S
C1783 C1780 1.499 . S
C1783 C1784 1.373 . S
C1783 C1785 1.389 . S
C1784 H1757 0.950 . S
C1784 C1770 1.377 . S
C1784 C1783 1.373 . S
C1785 C1769 1.377 . S
C1785 C1783 1.389 . S
C1785 C1786 1.524 . S
C1786 C1785 1.524 . S
C1786 C1787 1.397 . S
C1786 C1791 1.363 . S
C1787 H1758 0.950 . S
C1787 C1786 1.397 . S
C1787 C1788 1.334 . S
C1788 H1759 0.950 . S
C1788 C1787 1.334 . S
C1788 C1789 1.289 1_556 S
C1789 C1788 1.289 1_554 S
C1789 C1790 1.523 . S
C1789 H1792 0.997 . S
C1790 H1760 0.950 . S
C1790 C1789 1.523 . S
C1790 C1791 1.415 1_554 S
C1791 H1761 0.950 . S
C1791 C1786 1.363 . S
C1791 C1790 1.415 1_556 S
H1792 C1789 0.997 . S
H1793 C1774 0.913 . S
H1794 C1812 0.951 . S
H1795 C1814 0.951 . S
H1796 C1816 0.950 . S
H1797 C1817 0.950 . S
H1798 C1819 0.950 . S
H1799 C1822 0.950 . S
H1800 C1823 0.950 . S
H1801 C1825 0.950 . S
H1802 C1826 0.950 . S
H1803 C1827 0.951 . S
H1804 C1829 0.951 . S
H1805 C1831 0.950 . S
H1806 C1832 0.950 . S
H1807 C1834 0.950 . S
H1808 C1837 0.950 . S
H1809 C1838 0.950 . S
H1810 C1840 0.950 . S
H1811 C1841 0.950 . S
C1812 H1794 0.951 . S
C1812 C1813 1.366 . S
C1812 C1814 1.388 . S
C1813 C1812 1.366 . S
C1813 C1817 1.385 . S
C1814 H1795 0.951 . S
C1814 C1812 1.388 . S
C1814 C1815 1.366 . S
C1815 C1814 1.366 . S
C1815 C1816 1.414 . S
C1815 C1818 1.499 . S
C1816 H1796 0.950 . S
C1816 C1815 1.414 . S
C1816 C1817 1.374 . S
C1817 H1797 0.950 . S
C1817 C1813 1.385 . S
C1817 C1816 1.374 . S
C1818 C1815 1.499 . S
C1818 C1819 1.373 . S
C1818 C1820 1.389 . S
C1819 H1798 0.950 . S
C1819 C1818 1.373 . S
C1819 C1835 1.377 . S
C1820 C1818 1.389 . S
C1820 C1821 1.524 . S
C1820 C1834 1.377 . S
C1821 C1820 1.524 . S
C1821 C1822 1.397 . S
C1821 C1826 1.363 . S
C1822 H1799 0.950 . S
C1822 C1821 1.397 . S
C1822 C1823 1.334 . S
C1823 H1800 0.950 . S
C1823 C1822 1.334 . S
C1823 C1824 1.287 . S
C1824 C1823 1.287 . S
C1824 C1825 1.524 . S
C1824 H1843 0.913 . S
C1825 H1801 0.950 . S
C1825 C1824 1.524 . S
C1825 C1826 1.415 . S
C1826 H1802 0.950 . S
C1826 C1821 1.363 . S
C1826 C1825 1.415 . S
C1827 H1803 0.951 . S
C1827 C1828 1.366 . S
C1827 C1829 1.388 . S
C1828 C1827 1.366 . S
C1828 C1832 1.385 . S
C1829 H1804 0.951 . S
C1829 C1827 1.388 . S
C1829 C1830 1.366 . S
C1830 C1829 1.366 . S
C1830 C1831 1.414 . S
C1830 C1833 1.499 . S
C1831 H1805 0.950 . S
C1831 C1830 1.414 . S
C1831 C1832 1.374 . S
C1832 H1806 0.950 . S
C1832 C1828 1.385 . S
C1832 C1831 1.374 . S
C1833 C1830 1.499 . S
C1833 C1834 1.373 . S
C1833 C1835 1.389 . S
C1834 H1807 0.950 . S
C1834 C1820 1.377 . S
C1834 C1833 1.373 . S
C1835 C1819 1.377 . S
C1835 C1833 1.389 . S
C1835 C1836 1.524 . S
C1836 C1835 1.524 . S
C1836 C1837 1.397 . S
C1836 C1841 1.363 . S
C1837 H1808 0.950 . S
C1837 C1836 1.397 . S
C1837 C1838 1.334 . S
C1838 H1809 0.950 . S
C1838 C1837 1.334 . S
C1838 C1839 1.287 . S
C1839 C1838 1.287 . S
C1839 C1840 1.524 . S
C1839 H1842 0.999 . S
C1840 H1810 0.950 . S
C1840 C1839 1.524 . S
C1840 C1841 1.415 . S
C1841 H1811 0.950 . S
C1841 C1836 1.363 . S
C1841 C1840 1.415 . S
H1842 C1839 0.999 . S
H1843 C1824 0.913 . S
H1844 C1862 0.951 . S
H1845 C1864 0.951 . S
H1846 C1866 0.950 . S
H1847 C1867 0.950 . S
H1848 C1869 0.950 . S
H1849 C1872 0.950 . S
H1850 C1873 0.950 . S
H1851 C1875 0.950 . S
H1852 C1876 0.950 . S
H1853 C1877 0.951 . S
H1854 C1879 0.951 . S
H1855 C1881 0.950 . S
H1856 C1882 0.950 . S
H1857 C1884 0.950 . S
H1858 C1887 0.950 . S
H1859 C1888 0.950 . S
H1860 C1890 0.950 . S
H1861 C1891 0.950 . S
C1862 H1844 0.951 . S
C1862 C1863 1.366 . S
C1862 C1864 1.388 . S
C1863 C1862 1.366 . S
C1863 C1867 1.385 . S
C1864 H1845 0.951 . S
C1864 C1862 1.388 . S
C1864 C1865 1.366 . S
C1865 C1864 1.366 . S
C1865 C1866 1.414 . S
C1865 C1868 1.499 . S
C1866 H1846 0.950 . S
C1866 C1865 1.414 . S
C1866 C1867 1.374 . S
C1867 H1847 0.950 . S
C1867 C1863 1.385 . S
C1867 C1866 1.374 . S
C1868 C1865 1.499 . S
C1868 C1869 1.373 . S
C1868 C1870 1.389 . S
C1869 H1848 0.950 . S
C1869 C1868 1.373 . S
C1869 C1885 1.377 . S
C1870 C1868 1.389 . S
C1870 C1871 1.524 . S
C1870 C1884 1.377 . S
C1871 C1870 1.524 . S
C1871 C1872 1.397 . S
C1871 C1876 1.363 . S
C1872 H1849 0.950 . S
C1872 C1871 1.397 . S
C1872 C1873 1.334 . S
C1873 H1850 0.950 . S
C1873 C1872 1.334 . S
C1873 C1874 1.287 . S
C1874 C1873 1.287 . S
C1874 C1875 1.524 . S
C1874 H1893 0.913 . S
C1875 H1851 0.950 . S
C1875 C1874 1.524 . S
C1875 C1876 1.415 . S
C1876 H1852 0.950 . S
C1876 C1871 1.363 . S
C1876 C1875 1.415 . S
C1877 H1853 0.951 . S
C1877 C1878 1.366 . S
C1877 C1879 1.388 . S
C1878 C1877 1.366 . S
C1878 C1882 1.385 . S
C1879 H1854 0.951 . S
C1879 C1877 1.388 . S
C1879 C1880 1.366 . S
C1880 C1879 1.366 . S
C1880 C1881 1.414 . S
C1880 C1883 1.499 . S
C1881 H1855 0.950 . S
C1881 C1880 1.414 . S
C1881 C1882 1.374 . S
C1882 H1856 0.950 . S
C1882 C1878 1.385 . S
C1882 C1881 1.374 . S
C1883 C1880 1.499 . S
C1883 C1884 1.373 . S
C1883 C1885 1.389 . S
C1884 H1857 0.950 . S
C1884 C1870 1.377 . S
C1884 C1883 1.373 . S
C1885 C1869 1.377 . S
C1885 C1883 1.389 . S
C1885 C1886 1.524 . S
C1886 C1885 1.524 . S
C1886 C1887 1.397 . S
C1886 C1891 1.363 . S
C1887 H1858 0.950 . S
C1887 C1886 1.397 . S
C1887 C1888 1.334 . S
C1888 H1859 0.950 . S
C1888 C1887 1.334 . S
C1888 C1889 1.287 . S
C1889 C1888 1.287 . S
C1889 C1890 1.524 . S
C1889 H1892 0.999 . S
C1890 H1860 0.950 . S
C1890 C1889 1.524 . S
C1890 C1891 1.415 . S
C1891 H1861 0.950 . S
C1891 C1886 1.363 . S
C1891 C1890 1.415 . S
H1892 C1889 0.999 . S
H1893 C1874 0.913 . S
H1894 C1912 0.951 . S
H1895 C1914 0.951 . S
H1896 C1916 0.950 . S
H1897 C1917 0.950 . S
H1898 C1919 0.950 . S
H1899 C1922 0.950 . S
H1900 C1923 0.950 . S
H1901 C1925 0.950 . S
H1902 C1926 0.950 . S
H1903 C1927 0.951 . S
H1904 C1929 0.951 . S
H1905 C1931 0.950 . S
H1906 C1932 0.950 . S
H1907 C1934 0.950 . S
H1908 C1937 0.950 . S
H1909 C1938 0.950 . S
H1910 C1940 0.950 . S
H1911 C1941 0.950 . S
C1912 H1894 0.951 . S
C1912 C1913 1.366 . S
C1912 C1914 1.388 . S
C1913 C1912 1.366 . S
C1913 C1917 1.385 . S
C1914 H1895 0.951 . S
C1914 C1912 1.388 . S
C1914 C1915 1.366 . S
C1915 C1914 1.366 . S
C1915 C1916 1.414 . S
C1915 C1918 1.499 . S
C1916 H1896 0.950 . S
C1916 C1915 1.414 . S
C1916 C1917 1.374 . S
C1917 H1897 0.950 . S
C1917 C1913 1.385 . S
C1917 C1916 1.374 . S
C1918 C1915 1.499 . S
C1918 C1919 1.373 . S
C1918 C1920 1.389 . S
C1919 H1898 0.950 . S
C1919 C1918 1.373 . S
C1919 C1935 1.377 . S
C1920 C1918 1.389 . S
C1920 C1921 1.524 . S
C1920 C1934 1.377 . S
C1921 C1920 1.524 . S
C1921 C1922 1.397 . S
C1921 C1926 1.363 . S
C1922 H1899 0.950 . S
C1922 C1921 1.397 . S
C1922 C1923 1.334 . S
C1923 H1900 0.950 . S
C1923 C1922 1.334 . S
C1923 C1924 1.287 . S
C1924 C1923 1.287 . S
C1924 C1925 1.524 . S
C1924 H1943 0.913 . S
C1925 H1901 0.950 . S
C1925 C1924 1.524 . S
C1925 C1926 1.415 . S
C1926 H1902 0.950 . S
C1926 C1921 1.363 . S
C1926 C1925 1.415 . S
C1927 H1903 0.951 . S
C1927 C1928 1.366 . S
C1927 C1929 1.388 . S
C1928 C1927 1.366 . S
C1928 C1932 1.385 . S
C1929 H1904 0.951 . S
C1929 C1927 1.388 . S
C1929 C1930 1.366 . S
C1930 C1929 1.366 . S
C1930 C1931 1.414 . S
C1930 C1933 1.499 . S
C1931 H1905 0.950 . S
C1931 C1930 1.414 . S
C1931 C1932 1.374 . S
C1932 H1906 0.950 . S
C1932 C1928 1.385 . S
C1932 C1931 1.374 . S
C1933 C1930 1.499 . S
C1933 C1934 1.373 . S
C1933 C1935 1.389 . S
C1934 H1907 0.950 . S
C1934 C1920 1.377 . S
C1934 C1933 1.373 . S
C1935 C1919 1.377 . S
C1935 C1933 1.389 . S
C1935 C1936 1.524 . S
C1936 C1935 1.524 . S
C1936 C1937 1.397 . S
C1936 C1941 1.363 . S
C1937 H1908 0.950 . S
C1937 C1936 1.397 . S
C1937 C1938 1.334 . S
C1938 H1909 0.950 . S
C1938 C1937 1.334 . S
C1938 C1939 1.287 . S
C1939 C1938 1.287 . S
C1939 C1940 1.524 . S
C1939 H1942 0.999 . S
C1940 H1910 0.950 . S
C1940 C1939 1.524 . S
C1940 C1941 1.415 . S
C1941 H1911 0.950 . S
C1941 C1936 1.363 . S
C1941 C1940 1.415 . S
H1942 C1939 0.999 . S
H1943 C1924 0.913 . S
H1944 C1962 0.951 . S
H1945 C1964 0.951 . S
H1946 C1966 0.950 . S
H1947 C1967 0.950 . S
H1948 C1969 0.950 . S
H1949 C1972 0.950 . S
H1950 C1973 0.950 . S
H1951 C1975 0.950 . S
H1952 C1976 0.950 . S
H1953 C1977 0.951 . S
H1954 C1979 0.951 . S
H1955 C1981 0.950 . S
H1956 C1982 0.950 . S
H1957 C1984 0.950 . S
H1958 C1987 0.950 . S
H1959 C1988 0.950 . S
H1960 C1990 0.950 1_556 S
H1961 C1991 0.950 . S
C1962 H1944 0.951 . S
C1962 C1963 1.366 1_554 S
C1962 C1964 1.388 . S
C1963 C1962 1.366 1_556 S
C1963 C1967 1.385 . S
C1964 H1945 0.951 . S
C1964 C1962 1.388 . S
C1964 C1965 1.366 . S
C1965 C1964 1.366 . S
C1965 C1966 1.414 . S
C1965 C1968 1.499 . S
C1966 H1946 0.950 . S
C1966 C1965 1.414 . S
C1966 C1967 1.374 1_554 S
C1967 H1947 0.950 . S
C1967 C1963 1.385 . S
C1967 C1966 1.374 1_556 S
C1968 C1965 1.499 . S
C1968 C1969 1.373 . S
C1968 C1970 1.389 . S
C1969 H1948 0.950 . S
C1969 C1968 1.373 . S
C1969 C1985 1.377 . S
C1970 C1968 1.389 . S
C1970 C1971 1.524 . S
C1970 C1984 1.377 . S
C1971 C1970 1.524 . S
C1971 C1972 1.397 . S
C1971 C1976 1.363 . S
C1972 H1949 0.950 . S
C1972 C1971 1.397 . S
C1972 C1973 1.334 . S
C1973 H1950 0.950 . S
C1973 C1972 1.334 . S
C1973 C1974 1.287 . S
C1974 C1973 1.287 . S
C1974 C1975 1.524 . S
C1974 H1993 0.913 . S
C1975 H1951 0.950 . S
C1975 C1974 1.524 . S
C1975 C1976 1.415 . S
C1976 H1952 0.950 . S
C1976 C1971 1.363 . S
C1976 C1975 1.415 . S
C1977 H1953 0.951 . S
C1977 C1978 1.366 . S
C1977 C1979 1.388 . S
C1978 C1977 1.366 . S
C1978 C1982 1.385 . S
C1979 H1954 0.951 . S
C1979 C1977 1.388 . S
C1979 C1980 1.366 . S
C1980 C1979 1.366 . S
C1980 C1981 1.414 . S
C1980 C1983 1.499 . S
C1981 H1955 0.950 . S
C1981 C1980 1.414 . S
C1981 C1982 1.374 . S
C1982 H1956 0.950 . S
C1982 C1978 1.385 . S
C1982 C1981 1.374 . S
C1983 C1980 1.499 . S
C1983 C1984 1.373 . S
C1983 C1985 1.389 . S
C1984 H1957 0.950 . S
C1984 C1970 1.377 . S
C1984 C1983 1.373 . S
C1985 C1969 1.377 . S
C1985 C1983 1.389 . S
C1985 C1986 1.524 . S
C1986 C1985 1.524 . S
C1986 C1987 1.397 . S
C1986 C1991 1.363 . S
C1987 H1958 0.950 . S
C1987 C1986 1.397 . S
C1987 C1988 1.334 . S
C1988 H1959 0.950 . S
C1988 C1987 1.334 . S
C1988 C1989 1.287 . S
C1989 C1988 1.287 . S
C1989 C1990 1.524 . S
C1989 H1992 0.999 1_554 S
C1990 H1960 0.950 1_554 S
C1990 C1989 1.524 . S
C1990 C1991 1.415 . S
C1991 H1961 0.950 . S
C1991 C1986 1.363 . S
C1991 C1990 1.415 . S
H1992 C1989 0.999 1_556 S
H1993 C1974 0.913 . S
H1994 C2012 0.951 . S
H1995 C2014 0.951 . S
H1996 C2016 0.950 . S
H1997 C2017 0.950 . S
H1998 C2019 0.950 . S
H1999 C2022 0.950 . S
H2000 C2023 0.950 . S
H2001 C2025 0.950 . S
H2002 C2026 0.950 . S
H2003 C2027 0.951 . S
H2004 C2029 0.951 . S
H2005 C2031 0.950 . S
H2006 C2032 0.950 . S
H2007 C2034 0.950 . S
H2008 C2037 0.950 . S
H2009 C2038 0.950 . S
H2010 C2040 0.950 . S
H2011 C2041 0.950 . S
C2012 H1994 0.951 . S
C2012 C2013 1.366 . S
C2012 C2014 1.388 . S
C2013 C2012 1.366 . S
C2013 C2017 1.385 . S
C2014 H1995 0.951 . S
C2014 C2012 1.388 . S
C2014 C2015 1.366 . S
C2015 C2014 1.366 . S
C2015 C2016 1.414 . S
C2015 C2018 1.499 . S
C2016 H1996 0.950 . S
C2016 C2015 1.414 . S
C2016 C2017 1.374 . S
C2017 H1997 0.950 . S
C2017 C2013 1.385 . S
C2017 C2016 1.374 . S
C2018 C2015 1.499 . S
C2018 C2019 1.373 . S
C2018 C2020 1.389 . S
C2019 H1998 0.950 . S
C2019 C2018 1.373 . S
C2019 C2035 1.377 . S
C2020 C2018 1.389 . S
C2020 C2021 1.524 . S
C2020 C2034 1.377 . S
C2021 C2020 1.524 . S
C2021 C2022 1.397 . S
C2021 C2026 1.363 . S
C2022 H1999 0.950 . S
C2022 C2021 1.397 . S
C2022 C2023 1.334 . S
C2023 H2000 0.950 . S
C2023 C2022 1.334 . S
C2023 C2024 1.287 . S
C2024 C2023 1.287 . S
C2024 C2025 1.524 . S
C2024 H2043 0.913 . S
C2025 H2001 0.950 . S
C2025 C2024 1.524 . S
C2025 C2026 1.415 . S
C2026 H2002 0.950 . S
C2026 C2021 1.363 . S
C2026 C2025 1.415 . S
C2027 H2003 0.951 . S
C2027 C2028 1.366 . S
C2027 C2029 1.388 . S
C2028 C2027 1.366 . S
C2028 C2032 1.385 . S
C2029 H2004 0.951 . S
C2029 C2027 1.388 . S
C2029 C2030 1.366 . S
C2030 C2029 1.366 . S
C2030 C2031 1.414 . S
C2030 C2033 1.499 . S
C2031 H2005 0.950 . S
C2031 C2030 1.414 . S
C2031 C2032 1.374 . S
C2032 H2006 0.950 . S
C2032 C2028 1.385 . S
C2032 C2031 1.374 . S
C2033 C2030 1.499 . S
C2033 C2034 1.373 . S
C2033 C2035 1.389 . S
C2034 H2007 0.950 . S
C2034 C2020 1.377 . S
C2034 C2033 1.373 . S
C2035 C2019 1.377 . S
C2035 C2033 1.389 . S
C2035 C2036 1.524 . S
C2036 C2035 1.524 . S
C2036 C2037 1.397 . S
C2036 C2041 1.363 . S
C2037 H2008 0.950 . S
C2037 C2036 1.397 . S
C2037 C2038 1.334 . S
C2038 H2009 0.950 . S
C2038 C2037 1.334 . S
C2038 C2039 1.287 . S
C2039 C2038 1.287 . S
C2039 C2040 1.524 . S
C2039 H2042 0.999 . S
C2040 H2010 0.950 . S
C2040 C2039 1.524 . S
C2040 C2041 1.415 . S
C2041 H2011 0.950 . S
C2041 C2036 1.363 . S
C2041 C2040 1.415 . S
H2042 C2039 0.999 . S
H2043 C2024 0.913 . S
H2044 C2062 0.951 . S
H2045 C2064 0.951 . S
H2046 C2066 0.950 . S
H2047 C2067 0.950 . S
H2048 C2069 0.950 . S
H2049 C2072 0.950 . S
H2050 C2073 0.950 . S
H2051 C2075 0.950 . S
H2052 C2076 0.950 . S
H2053 C2077 0.951 . S
H2054 C2079 0.951 . S
H2055 C2081 0.950 . S
H2056 C2082 0.950 . S
H2057 C2084 0.950 . S
H2058 C2087 0.950 . S
H2059 C2088 0.950 . S
H2060 C2090 0.950 . S
H2061 C2091 0.950 . S
C2062 H2044 0.951 . S
C2062 C2063 1.366 . S
C2062 C2064 1.388 . S
C2063 C2062 1.366 . S
C2063 C2067 1.385 . S
C2064 H2045 0.951 . S
C2064 C2062 1.388 . S
C2064 C2065 1.366 . S
C2065 C2064 1.366 . S
C2065 C2066 1.414 . S
C2065 C2068 1.499 . S
C2066 H2046 0.950 . S
C2066 C2065 1.414 . S
C2066 C2067 1.374 . S
C2067 H2047 0.950 . S
C2067 C2063 1.385 . S
C2067 C2066 1.374 . S
C2068 C2065 1.499 . S
C2068 C2069 1.373 . S
C2068 C2070 1.389 . S
C2069 H2048 0.950 . S
C2069 C2068 1.373 . S
C2069 C2085 1.377 . S
C2070 C2068 1.389 . S
C2070 C2071 1.524 . S
C2070 C2084 1.377 . S
C2071 C2070 1.524 . S
C2071 C2072 1.397 . S
C2071 C2076 1.363 . S
C2072 H2049 0.950 . S
C2072 C2071 1.397 . S
C2072 C2073 1.334 . S
C2073 H2050 0.950 . S
C2073 C2072 1.334 . S
C2073 C2074 1.287 . S
C2074 C2073 1.287 . S
C2074 C2075 1.524 . S
C2074 H2093 0.913 . S
C2075 H2051 0.950 . S
C2075 C2074 1.524 . S
C2075 C2076 1.415 . S
C2076 H2052 0.950 . S
C2076 C2071 1.363 . S
C2076 C2075 1.415 . S
C2077 H2053 0.951 . S
C2077 C2078 1.366 . S
C2077 C2079 1.388 . S
C2078 C2077 1.366 . S
C2078 C2082 1.385 . S
C2079 H2054 0.951 . S
C2079 C2077 1.388 . S
C2079 C2080 1.366 . S
C2080 C2079 1.366 . S
C2080 C2081 1.414 . S
C2080 C2083 1.499 . S
C2081 H2055 0.950 . S
C2081 C2080 1.414 . S
C2081 C2082 1.374 . S
C2082 H2056 0.950 . S
C2082 C2078 1.385 . S
C2082 C2081 1.374 . S
C2083 C2080 1.499 . S
C2083 C2084 1.373 . S
C2083 C2085 1.389 . S
C2084 H2057 0.950 . S
C2084 C2070 1.377 . S
C2084 C2083 1.373 . S
C2085 C2069 1.377 . S
C2085 C2083 1.389 . S
C2085 C2086 1.524 . S
C2086 C2085 1.524 . S
C2086 C2087 1.397 . S
C2086 C2091 1.363 . S
C2087 H2058 0.950 . S
C2087 C2086 1.397 . S
C2087 C2088 1.334 . S
C2088 H2059 0.950 . S
C2088 C2087 1.334 . S
C2088 C2089 1.287 . S
C2089 C2088 1.287 . S
C2089 C2090 1.524 . S
C2089 H2092 0.999 . S
C2090 H2060 0.950 . S
C2090 C2089 1.524 . S
C2090 C2091 1.415 . S
C2091 H2061 0.950 . S
C2091 C2086 1.363 . S
C2091 C2090 1.415 . S
H2092 C2089 0.999 . S
H2093 C2074 0.913 . S
H2094 C2112 0.951 . S
H2095 C2114 0.951 . S
H2096 C2116 0.950 . S
H2097 C2117 0.950 . S
H2098 C2119 0.950 . S
H2099 C2122 0.950 . S
H2100 C2123 0.950 . S
H2101 C2125 0.950 . S
H2102 C2126 0.950 . S
H2103 C2127 0.951 . S
H2104 C2129 0.951 . S
H2105 C2131 0.950 . S
H2106 C2132 0.950 . S
H2107 C2134 0.950 . S
H2108 C2137 0.950 . S
H2109 C2138 0.950 . S
H2110 C2140 0.950 . S
H2111 C2141 0.950 . S
C2112 H2094 0.951 . S
C2112 C2113 1.366 . S
C2112 C2114 1.388 . S
C2113 C2112 1.366 . S
C2113 C2117 1.385 . S
C2114 H2095 0.951 . S
C2114 C2112 1.388 . S
C2114 C2115 1.366 . S
C2115 C2114 1.366 . S
C2115 C2116 1.414 . S
C2115 C2118 1.499 . S
C2116 H2096 0.950 . S
C2116 C2115 1.414 . S
C2116 C2117 1.374 . S
C2117 H2097 0.950 . S
C2117 C2113 1.385 . S
C2117 C2116 1.374 . S
C2118 C2115 1.499 . S
C2118 C2119 1.373 . S
C2118 C2120 1.389 . S
C2119 H2098 0.950 . S
C2119 C2118 1.373 . S
C2119 C2135 1.377 . S
C2120 C2118 1.389 . S
C2120 C2121 1.524 . S
C2120 C2134 1.377 . S
C2121 C2120 1.524 . S
C2121 C2122 1.397 . S
C2121 C2126 1.363 . S
C2122 H2099 0.950 . S
C2122 C2121 1.397 . S
C2122 C2123 1.334 . S
C2123 H2100 0.950 . S
C2123 C2122 1.334 . S
C2123 C2124 1.287 . S
C2124 C2123 1.287 . S
C2124 C2125 1.524 . S
C2124 H2143 0.913 . S
C2125 H2101 0.950 . S
C2125 C2124 1.524 . S
C2125 C2126 1.415 . S
C2126 H2102 0.950 . S
C2126 C2121 1.363 . S
C2126 C2125 1.415 . S
C2127 H2103 0.951 . S
C2127 C2128 1.366 . S
C2127 C2129 1.388 . S
C2128 C2127 1.366 . S
C2128 C2132 1.385 . S
C2129 H2104 0.951 . S
C2129 C2127 1.388 . S
C2129 C2130 1.366 . S
C2130 C2129 1.366 . S
C2130 C2131 1.414 . S
C2130 C2133 1.499 . S
C2131 H2105 0.950 . S
C2131 C2130 1.414 . S
C2131 C2132 1.374 . S
C2132 H2106 0.950 . S
C2132 C2128 1.385 . S
C2132 C2131 1.374 . S
C2133 C2130 1.499 . S
C2133 C2134 1.373 . S
C2133 C2135 1.389 . S
C2134 H2107 0.950 . S
C2134 C2120 1.377 . S
C2134 C2133 1.373 . S
C2135 C2119 1.377 . S
C2135 C2133 1.389 . S
C2135 C2136 1.524 . S
C2136 C2135 1.524 . S
C2136 C2137 1.397 . S
C2136 C2141 1.363 . S
C2137 H2108 0.950 . S
C2137 C2136 1.397 . S
C2137 C2138 1.334 . S
C2138 H2109 0.950 . S
C2138 C2137 1.334 . S
C2138 C2139 1.287 . S
C2139 C2138 1.287 . S
C2139 C2140 1.524 . S
C2139 H2142 0.999 . S
C2140 H2110 0.950 . S
C2140 C2139 1.524 . S
C2140 C2141 1.415 . S
C2141 H2111 0.950 . S
C2141 C2136 1.363 . S
C2141 C2140 1.415 . S
H2142 C2139 0.999 . S
H2143 C2124 0.913 . S
H2144 C2162 0.951 . S
H2145 C2164 0.951 . S
H2146 C2166 0.950 . S
H2147 C2167 0.950 . S
H2148 C2169 0.950 . S
H2149 C2172 0.950 . S
H2150 C2173 0.950 . S
H2151 C2175 0.950 . S
H2152 C2176 0.950 . S
H2153 C2177 0.951 . S
H2154 C2179 0.951 . S
H2155 C2181 0.950 . S
H2156 C2182 0.950 . S
H2157 C2184 0.950 . S
H2158 C2187 0.950 . S
H2159 C2188 0.950 . S
H2160 C2190 0.950 . S
H2161 C2191 0.950 . S
C2162 H2144 0.951 . S
C2162 C2163 1.366 . S
C2162 C2164 1.388 . S
C2163 C2162 1.366 . S
C2163 C2167 1.385 . S
C2164 H2145 0.951 . S
C2164 C2162 1.388 . S
C2164 C2165 1.366 . S
C2165 C2164 1.366 . S
C2165 C2166 1.414 . S
C2165 C2168 1.499 . S
C2166 H2146 0.950 . S
C2166 C2165 1.414 . S
C2166 C2167 1.374 . S
C2167 H2147 0.950 . S
C2167 C2163 1.385 . S
C2167 C2166 1.374 . S
C2168 C2165 1.499 . S
C2168 C2169 1.373 . S
C2168 C2170 1.389 . S
C2169 H2148 0.950 . S
C2169 C2168 1.373 . S
C2169 C2185 1.377 . S
C2170 C2168 1.389 . S
C2170 C2171 1.524 . S
C2170 C2184 1.377 . S
C2171 C2170 1.524 . S
C2171 C2172 1.397 . S
C2171 C2176 1.363 . S
C2172 H2149 0.950 . S
C2172 C2171 1.397 . S
C2172 C2173 1.334 . S
C2173 H2150 0.950 . S
C2173 C2172 1.334 . S
C2173 C2174 1.287 . S
C2174 C2173 1.287 . S
C2174 C2175 1.524 . S
C2174 H2193 0.913 . S
C2175 H2151 0.950 . S
C2175 C2174 1.524 . S
C2175 C2176 1.415 . S
C2176 H2152 0.950 . S
C2176 C2171 1.363 . S
C2176 C2175 1.415 . S
C2177 H2153 0.951 . S
C2177 C2178 1.366 . S
C2177 C2179 1.388 . S
C2178 C2177 1.366 . S
C2178 C2182 1.385 . S
C2179 H2154 0.951 . S
C2179 C2177 1.388 . S
C2179 C2180 1.366 . S
C2180 C2179 1.366 . S
C2180 C2181 1.414 . S
C2180 C2183 1.499 . S
C2181 H2155 0.950 . S
C2181 C2180 1.414 . S
C2181 C2182 1.374 . S
C2182 H2156 0.950 . S
C2182 C2178 1.385 . S
C2182 C2181 1.374 . S
C2183 C2180 1.499 . S
C2183 C2184 1.373 . S
C2183 C2185 1.389 . S
C2184 H2157 0.950 . S
C2184 C2170 1.377 . S
C2184 C2183 1.373 . S
C2185 C2169 1.377 . S
C2185 C2183 1.389 . S
C2185 C2186 1.524 . S
C2186 C2185 1.524 . S
C2186 C2187 1.397 . S
C2186 C2191 1.363 . S
C2187 H2158 0.950 . S
C2187 C2186 1.397 . S
C2187 C2188 1.334 . S
C2188 H2159 0.950 . S
C2188 C2187 1.334 . S
C2188 C2189 1.287 . S
C2189 C2188 1.287 . S
C2189 C2190 1.524 . S
C2189 H2192 0.999 . S
C2190 H2160 0.950 . S
C2190 C2189 1.524 . S
C2190 C2191 1.415 . S
C2191 H2161 0.950 . S
C2191 C2186 1.363 . S
C2191 C2190 1.415 . S
H2192 C2189 0.999 . S
H2193 C2174 0.913 . S
H2194 C2212 0.951 . S
H2195 C2214 0.951 1_565 S
H2196 C2216 0.950 . S
H2197 C2217 0.950 . S
H2198 C2219 0.950 1_545 S
H2199 C2222 0.950 . S
H2200 C2223 0.950 . S
H2201 C2225 0.950 . S
H2202 C2226 0.950 . S
H2203 C2227 0.951 . S
H2204 C2229 0.951 . S
H2205 C2231 0.950 . S
H2206 C2232 0.950 . S
H2207 C2234 0.950 . S
H2208 C2237 0.950 . S
H2209 C2238 0.950 . S
H2210 C2240 0.950 1_545 S
H2211 C2241 0.924 1_545 S
C2212 H2194 0.951 . S
C2212 C2213 1.366 . S
C2212 C2214 1.388 . S
C2213 C2212 1.366 . S
C2213 C2217 1.385 . S
C2214 H2195 0.951 1_545 S
C2214 C2212 1.388 . S
C2214 C2215 1.366 . S
C2215 C2214 1.366 . S
C2215 C2216 1.414 . S
C2215 C2218 1.499 1_545 S
C2216 H2196 0.950 . S
C2216 C2215 1.414 . S
C2216 C2217 1.374 . S
C2217 H2197 0.950 . S
C2217 C2213 1.385 . S
C2217 C2216 1.374 . S
C2218 C2215 1.499 1_565 S
C2218 C2219 1.373 . S
C2218 C2220 1.389 . S
C2219 H2198 0.950 1_565 S
C2219 C2218 1.373 . S
C2219 C2235 1.377 . S
C2220 C2218 1.389 . S
C2220 C2221 1.524 . S
C2220 C2234 1.377 . S
C2221 C2220 1.524 . S
C2221 C2222 1.397 . S
C2221 C2226 1.363 . S
C2222 H2199 0.950 . S
C2222 C2221 1.397 . S
C2222 C2223 1.334 . S
C2223 H2200 0.950 . S
C2223 C2222 1.334 . S
C2223 C2224 1.287 . S
C2224 C2223 1.287 . S
C2224 C2225 1.524 . S
C2224 H2243 0.913 . S
C2225 H2201 0.950 . S
C2225 C2224 1.524 . S
C2225 C2226 1.415 . S
C2226 H2202 0.950 . S
C2226 C2221 1.363 . S
C2226 C2225 1.415 . S
C2227 H2203 0.951 . S
C2227 C2228 1.366 . S
C2227 C2229 1.388 . S
C2228 C2227 1.366 . S
C2228 C2232 1.385 . S
C2229 H2204 0.951 . S
C2229 C2227 1.388 . S
C2229 C2230 1.366 . S
C2230 C2229 1.366 . S
C2230 C2231 1.414 . S
C2230 C2233 1.499 . S
C2231 H2205 0.950 . S
C2231 C2230 1.414 . S
C2231 C2232 1.374 . S
C2232 H2206 0.950 . S
C2232 C2228 1.385 . S
C2232 C2231 1.374 . S
C2233 C2230 1.499 . S
C2233 C2234 1.373 . S
C2233 C2235 1.389 . S
C2234 H2207 0.950 . S
C2234 C2220 1.377 . S
C2234 C2233 1.373 . S
C2235 C2219 1.377 . S
C2235 C2233 1.389 . S
C2235 C2236 1.524 . S
C2236 C2235 1.524 . S
C2236 C2237 1.397 . S
C2236 C2241 1.363 . S
C2237 H2208 0.950 . S
C2237 C2236 1.397 . S
C2237 C2238 1.334 . S
C2238 H2209 0.950 . S
C2238 C2237 1.334 . S
C2238 C2239 1.287 . S
C2239 C2238 1.287 . S
C2239 C2240 1.524 . S
C2239 H2242 0.999 . S
C2240 H2210 0.950 1_565 S
C2240 C2239 1.524 . S
C2240 C2241 1.415 . S
C2241 H2211 0.924 1_565 S
C2241 C2236 1.363 . S
C2241 C2240 1.415 . S
H2242 C2239 0.999 . S
H2243 C2224 0.913 . S
H2244 C2262 0.951 1_554 S
H2245 C2264 0.951 . S
H2246 C2266 0.950 . S
H2247 C2267 0.950 . S
H2248 C2269 0.950 . S
H2249 C2272 0.950 . S
H2250 C2273 0.950 . S
H2251 C2275 0.950 . S
H2252 C2276 0.950 . S
H2253 C2277 0.951 . S
H2254 C2279 0.951 . S
H2255 C2281 0.950 . S
H2256 C2282 0.950 . S
H2257 C2284 0.950 . S
H2258 C2287 0.950 . S
H2259 C2288 0.950 . S
H2260 C2290 0.950 . S
H2261 C2291 0.950 . S
C2262 H2244 0.951 1_556 S
C2262 C2263 1.366 1_556 S
C2262 C2264 1.388 . S
C2263 C2262 1.366 1_554 S
C2263 C2267 1.385 1_554 S
C2264 H2245 0.951 . S
C2264 C2262 1.388 . S
C2264 C2265 1.366 . S
C2265 C2264 1.366 . S
C2265 C2266 1.414 . S
C2265 C2268 1.499 . S
C2266 H2246 0.950 . S
C2266 C2265 1.414 . S
C2266 C2267 1.374 . S
C2267 H2247 0.950 . S
C2267 C2263 1.385 1_556 S
C2267 C2266 1.374 . S
C2268 C2265 1.499 . S
C2268 C2269 1.373 . S
C2268 C2270 1.389 . S
C2269 H2248 0.950 . S
C2269 C2268 1.373 . S
C2269 C2285 1.377 . S
C2270 C2268 1.389 . S
C2270 C2271 1.524 . S
C2270 C2284 1.377 . S
C2271 C2270 1.524 . S
C2271 C2272 1.397 . S
C2271 C2276 1.363 . S
C2272 H2249 0.950 . S
C2272 C2271 1.397 . S
C2272 C2273 1.334 . S
C2273 H2250 0.950 . S
C2273 C2272 1.334 . S
C2273 C2274 1.287 . S
C2274 C2273 1.287 . S
C2274 C2275 1.524 . S
C2274 H2293 0.913 . S
C2275 H2251 0.950 . S
C2275 C2274 1.524 . S
C2275 C2276 1.415 . S
C2276 H2252 0.950 . S
C2276 C2271 1.363 . S
C2276 C2275 1.415 . S
C2277 H2253 0.951 . S
C2277 C2278 1.366 . S
C2277 C2279 1.388 . S
C2278 C2277 1.366 . S
C2278 C2282 1.385 . S
C2279 H2254 0.951 . S
C2279 C2277 1.388 . S
C2279 C2280 1.366 . S
C2280 C2279 1.366 . S
C2280 C2281 1.414 . S
C2280 C2283 1.499 . S
C2281 H2255 0.950 . S
C2281 C2280 1.414 . S
C2281 C2282 1.374 . S
C2282 H2256 0.950 . S
C2282 C2278 1.385 . S
C2282 C2281 1.374 . S
C2283 C2280 1.499 . S
C2283 C2284 1.373 . S
C2283 C2285 1.389 . S
C2284 H2257 0.950 . S
C2284 C2270 1.377 . S
C2284 C2283 1.373 . S
C2285 C2269 1.377 . S
C2285 C2283 1.389 . S
C2285 C2286 1.524 . S
C2286 C2285 1.524 . S
C2286 C2287 1.397 . S
C2286 C2291 1.363 . S
C2287 H2258 0.950 . S
C2287 C2286 1.397 . S
C2287 C2288 1.334 . S
C2288 H2259 0.950 . S
C2288 C2287 1.334 . S
C2288 C2289 1.287 . S
C2289 C2288 1.287 . S
C2289 C2290 1.524 . S
C2289 H2292 0.999 . S
C2290 H2260 0.950 . S
C2290 C2289 1.524 . S
C2290 C2291 1.415 . S
C2291 H2261 0.950 . S
C2291 C2286 1.363 . S
C2291 C2290 1.415 . S
H2292 C2289 0.999 . S
H2293 C2274 0.913 . S
H2294 C2312 0.951 . S
H2295 C2314 0.951 . S
H2296 C2316 0.950 1_545 S
H2297 C2317 0.950 . S
H2298 C2319 0.950 . S
H2299 C2322 0.950 . S
H2300 C2323 0.950 . S
H2301 C2325 0.950 . S
H2302 C2326 0.950 . S
H2303 C2327 0.951 . S
H2304 C2329 0.951 . S
H2305 C2331 0.950 . S
H2306 C2332 0.950 . S
H2307 C2334 0.950 . S
H2308 C2337 0.950 . S
H2309 C2338 0.950 . S
H2310 C2340 0.950 . S
H2311 C2341 0.950 . S
C2312 H2294 0.951 . S
C2312 C2313 1.366 . S
C2312 C2314 1.388 . S
C2313 C2312 1.366 . S
C2313 C2317 1.385 . S
C2314 H2295 0.951 . S
C2314 C2312 1.388 . S
C2314 C2315 1.366 . S
C2315 C2314 1.366 . S
C2315 C2316 1.414 . S
C2315 C2318 1.499 1_565 S
C2316 H2296 0.950 1_565 S
C2316 C2315 1.414 . S
C2316 C2317 1.374 . S
C2317 H2297 0.950 . S
C2317 C2313 1.385 . S
C2317 C2316 1.374 . S
C2318 C2315 1.499 1_545 S
C2318 C2319 1.373 . S
C2318 C2320 1.389 . S
C2319 H2298 0.950 . S
C2319 C2318 1.373 . S
C2319 C2335 1.377 . S
C2320 C2318 1.389 . S
C2320 C2321 1.524 1_545 S
C2320 C2334 1.377 . S
C2321 C2320 1.524 1_565 S
C2321 C2322 1.397 . S
C2321 C2326 1.363 . S
C2322 H2299 0.950 . S
C2322 C2321 1.397 . S
C2322 C2323 1.334 . S
C2323 H2300 0.950 . S
C2323 C2322 1.334 . S
C2323 C2324 1.287 . S
C2324 C2323 1.287 . S
C2324 C2325 1.524 . S
C2324 H2343 0.913 . S
C2325 H2301 0.950 . S
C2325 C2324 1.524 . S
C2325 C2326 1.415 . S
C2326 H2302 0.950 . S
C2326 C2321 1.363 . S
C2326 C2325 1.415 . S
C2327 H2303 0.951 . S
C2327 C2328 1.366 . S
C2327 C2329 1.388 . S
C2328 C2327 1.366 . S
C2328 C2332 1.385 . S
C2329 H2304 0.951 . S
C2329 C2327 1.388 . S
C2329 C2330 1.366 . S
C2330 C2329 1.366 . S
C2330 C2331 1.414 . S
C2330 C2333 1.499 . S
C2331 H2305 0.950 . S
C2331 C2330 1.414 . S
C2331 C2332 1.374 . S
C2332 H2306 0.950 . S
C2332 C2328 1.385 . S
C2332 C2331 1.374 . S
C2333 C2330 1.499 . S
C2333 C2334 1.373 . S
C2333 C2335 1.389 . S
C2334 H2307 0.950 . S
C2334 C2320 1.377 . S
C2334 C2333 1.373 . S
C2335 C2319 1.377 . S
C2335 C2333 1.389 . S
C2335 C2336 1.524 . S
C2336 C2335 1.524 . S
C2336 C2337 1.397 . S
C2336 C2341 1.363 . S
C2337 H2308 0.950 . S
C2337 C2336 1.397 . S
C2337 C2338 1.334 . S
C2338 H2309 0.950 . S
C2338 C2337 1.334 . S
C2338 C2339 1.287 . S
C2339 C2338 1.287 . S
C2339 C2340 1.524 . S
C2339 H2342 0.999 . S
C2340 H2310 0.950 . S
C2340 C2339 1.524 . S
C2340 C2341 1.415 . S
C2341 H2311 0.950 . S
C2341 C2336 1.363 . S
C2341 C2340 1.415 . S
H2342 C2339 0.999 . S
H2343 C2324 0.913 . S
H2344 C2362 0.951 . S
H2345 C2364 0.951 . S
H2346 C2366 0.950 . S
H2347 C2367 0.950 . S
H2348 C2369 0.950 . S
H2349 C2372 0.950 . S
H2350 C2373 0.950 . S
H2351 C2375 0.950 . S
H2352 C2376 0.950 . S
H2353 C2377 0.951 . S
H2354 C2379 0.951 . S
H2355 C2381 0.950 . S
H2356 C2382 0.950 . S
H2357 C2384 0.950 . S
H2358 C2387 0.950 . S
H2359 C2388 0.950 . S
H2360 C2390 0.950 . S
H2361 C2391 0.950 . S
C2362 H2344 0.951 . S
C2362 C2363 1.366 . S
C2362 C2364 1.388 . S
C2363 C2362 1.366 . S
C2363 C2367 1.385 . S
C2364 H2345 0.951 . S
C2364 C2362 1.388 . S
C2364 C2365 1.366 . S
C2365 C2364 1.366 . S
C2365 C2366 1.414 . S
C2365 C2368 1.499 . S
C2366 H2346 0.950 . S
C2366 C2365 1.414 . S
C2366 C2367 1.374 . S
C2367 H2347 0.950 . S
C2367 C2363 1.385 . S
C2367 C2366 1.374 . S
C2368 C2365 1.499 . S
C2368 C2369 1.373 . S
C2368 C2370 1.389 . S
C2369 H2348 0.950 . S
C2369 C2368 1.373 . S
C2369 C2385 1.377 . S
C2370 C2368 1.389 . S
C2370 C2371 1.524 . S
C2370 C2384 1.377 . S
C2371 C2370 1.524 . S
C2371 C2372 1.397 . S
C2371 C2376 1.363 . S
C2372 H2349 0.950 . S
C2372 C2371 1.397 . S
C2372 C2373 1.334 . S
C2373 H2350 0.950 . S
C2373 C2372 1.334 . S
C2373 C2374 1.287 . S
C2374 C2373 1.287 . S
C2374 C2375 1.524 . S
C2374 H2393 0.913 . S
C2375 H2351 0.950 . S
C2375 C2374 1.524 . S
C2375 C2376 1.415 . S
C2376 H2352 0.950 . S
C2376 C2371 1.363 . S
C2376 C2375 1.415 . S
C2377 H2353 0.951 . S
C2377 C2378 1.366 . S
C2377 C2379 1.388 . S
C2378 C2377 1.366 . S
C2378 C2382 1.385 . S
C2379 H2354 0.951 . S
C2379 C2377 1.388 . S
C2379 C2380 1.366 . S
C2380 C2379 1.366 . S
C2380 C2381 1.414 . S
C2380 C2383 1.499 . S
C2381 H2355 0.950 . S
C2381 C2380 1.414 . S
C2381 C2382 1.374 . S
C2382 H2356 0.950 . S
C2382 C2378 1.385 . S
C2382 C2381 1.374 . S
C2383 C2380 1.499 . S
C2383 C2384 1.373 . S
C2383 C2385 1.389 . S
C2384 H2357 0.950 . S
C2384 C2370 1.377 . S
C2384 C2383 1.373 . S
C2385 C2369 1.377 . S
C2385 C2383 1.389 . S
C2385 C2386 1.524 . S
C2386 C2385 1.524 . S
C2386 C2387 1.397 . S
C2386 C2391 1.363 . S
C2387 H2358 0.950 . S
C2387 C2386 1.397 . S
C2387 C2388 1.334 . S
C2388 H2359 0.950 . S
C2388 C2387 1.334 . S
C2388 C2389 1.287 . S
C2389 C2388 1.287 . S
C2389 C2390 1.524 . S
C2389 H2392 0.999 . S
C2390 H2360 0.950 . S
C2390 C2389 1.524 . S
C2390 C2391 1.415 . S
C2391 H2361 0.950 . S
C2391 C2386 1.363 . S
C2391 C2390 1.415 . S
H2392 C2389 0.999 . S
H2393 C2374 0.913 . S
H2394 C2412 0.951 . S
H2395 C2414 0.951 . S
H2396 C2416 0.950 . S
H2397 C2417 0.950 . S
H2398 C2419 0.950 . S
H2399 C2422 0.950 . S
H2400 C2423 0.950 . S
H2401 C2425 0.950 . S
H2402 C2426 0.950 . S
H2403 C2427 0.951 . S
H2404 C2429 0.951 . S
H2405 C2431 0.950 . S
H2406 C2432 0.950 . S
H2407 C2434 0.950 1_565 S
H2408 C2437 0.950 . S
H2409 C2438 0.950 . S
H2410 C2440 0.950 . S
H2411 C2441 0.950 . S
C2412 H2394 0.951 . S
C2412 C2413 1.366 . S
C2412 C2414 1.388 . S
C2413 C2412 1.366 . S
C2413 C2417 1.385 . S
C2414 H2395 0.951 . S
C2414 C2412 1.388 . S
C2414 C2415 1.366 . S
C2415 C2414 1.366 . S
C2415 C2416 1.414 . S
C2415 C2418 1.499 . S
C2416 H2396 0.950 . S
C2416 C2415 1.414 . S
C2416 C2417 1.374 . S
C2417 H2397 0.950 . S
C2417 C2413 1.385 . S
C2417 C2416 1.374 . S
C2418 C2415 1.499 . S
C2418 C2419 1.373 . S
C2418 C2420 1.389 . S
C2419 H2398 0.950 . S
C2419 C2418 1.373 . S
C2419 C2435 1.377 . S
C2420 C2418 1.389 . S
C2420 C2421 1.524 . S
C2420 C2434 1.377 . S
C2421 C2420 1.524 . S
C2421 C2422 1.397 . S
C2421 C2426 1.363 . S
C2422 H2399 0.950 . S
C2422 C2421 1.397 . S
C2422 C2423 1.334 . S
C2423 H2400 0.950 . S
C2423 C2422 1.334 . S
C2423 C2424 1.287 . S
C2424 C2423 1.287 . S
C2424 C2425 1.524 . S
C2424 H2443 0.913 . S
C2425 H2401 0.950 . S
C2425 C2424 1.524 . S
C2425 C2426 1.415 . S
C2426 H2402 0.950 . S
C2426 C2421 1.363 . S
C2426 C2425 1.415 . S
C2427 H2403 0.951 . S
C2427 C2428 1.366 . S
C2427 C2429 1.388 . S
C2428 C2427 1.366 . S
C2428 C2432 1.385 . S
C2429 H2404 0.951 . S
C2429 C2427 1.388 . S
C2429 C2430 1.366 . S
C2430 C2429 1.366 . S
C2430 C2431 1.414 . S
C2430 C2433 1.499 1_565 S
C2431 H2405 0.950 . S
C2431 C2430 1.414 . S
C2431 C2432 1.374 . S
C2432 H2406 0.950 . S
C2432 C2428 1.385 . S
C2432 C2431 1.374 . S
C2433 C2430 1.499 1_545 S
C2433 C2434 1.373 . S
C2433 C2435 1.389 . S
C2434 H2407 0.950 1_545 S
C2434 C2420 1.377 . S
C2434 C2433 1.373 . S
C2435 C2419 1.377 . S
C2435 C2433 1.389 . S
C2435 C2436 1.524 . S
C2436 C2435 1.524 . S
C2436 C2437 1.397 . S
C2436 C2441 1.363 . S
C2437 H2408 0.950 . S
C2437 C2436 1.397 . S
C2437 C2438 1.334 . S
C2438 H2409 0.950 . S
C2438 C2437 1.334 . S
C2438 C2439 1.287 . S
C2439 C2438 1.287 . S
C2439 C2440 1.524 . S
C2439 H2442 0.999 . S
C2440 H2410 0.950 . S
C2440 C2439 1.524 . S
C2440 C2441 1.415 . S
C2441 H2411 0.950 . S
C2441 C2436 1.363 . S
C2441 C2440 1.415 . S
H2442 C2439 0.999 . S
H2443 C2424 0.913 . S
H2444 C2462 0.951 . S
H2445 C2464 0.951 . S
H2446 C2466 0.950 . S
H2447 C2467 0.950 . S
H2448 C2469 0.950 . S
H2449 C2472 0.950 . S
H2450 C2473 0.950 . S
H2451 C2475 0.950 . S
H2452 C2476 0.950 . S
H2453 C2477 0.951 . S
H2454 C2479 0.951 1_556 S
H2455 C2481 0.950 . S
H2456 C2482 0.950 . S
H2457 C2484 0.950 . S
H2458 C2487 0.950 . S
H2459 C2488 0.950 . S
H2460 C2490 0.950 . S
H2461 C2491 0.950 . S
C2462 H2444 0.951 . S
C2462 C2463 1.366 . S
C2462 C2464 1.388 . S
C2463 C2462 1.366 . S
C2463 C2467 1.385 . S
C2464 H2445 0.951 . S
C2464 C2462 1.388 . S
C2464 C2465 1.366 . S
C2465 C2464 1.366 . S
C2465 C2466 1.414 . S
C2465 C2468 1.499 . S
C2466 H2446 0.950 . S
C2466 C2465 1.414 . S
C2466 C2467 1.374 . S
C2467 H2447 0.950 . S
C2467 C2463 1.385 . S
C2467 C2466 1.374 . S
C2468 C2465 1.499 . S
C2468 C2469 1.373 . S
C2468 C2470 1.389 . S
C2469 H2448 0.950 . S
C2469 C2468 1.373 . S
C2469 C2485 1.377 . S
C2470 C2468 1.389 . S
C2470 C2471 1.524 . S
C2470 C2484 1.377 . S
C2471 C2470 1.524 . S
C2471 C2472 1.397 . S
C2471 C2476 1.363 . S
C2472 H2449 0.950 . S
C2472 C2471 1.397 . S
C2472 C2473 1.334 . S
C2473 H2450 0.950 . S
C2473 C2472 1.334 . S
C2473 C2474 1.287 . S
C2474 C2473 1.287 . S
C2474 C2475 1.524 . S
C2474 H2493 0.913 . S
C2475 H2451 0.950 . S
C2475 C2474 1.524 . S
C2475 C2476 1.415 . S
C2476 H2452 0.950 . S
C2476 C2471 1.363 . S
C2476 C2475 1.415 . S
C2477 H2453 0.951 . S
C2477 C2478 1.366 . S
C2477 C2479 1.388 1_556 S
C2478 C2477 1.366 . S
C2478 C2482 1.385 1_556 S
C2479 H2454 0.951 1_554 S
C2479 C2477 1.388 1_554 S
C2479 C2480 1.366 . S
C2480 C2479 1.366 . S
C2480 C2481 1.414 . S
C2480 C2483 1.499 . S
C2481 H2455 0.950 . S
C2481 C2480 1.414 . S
C2481 C2482 1.374 . S
C2482 H2456 0.950 . S
C2482 C2478 1.385 1_554 S
C2482 C2481 1.374 . S
C2483 C2480 1.499 . S
C2483 C2484 1.373 . S
C2483 C2485 1.389 . S
C2484 H2457 0.950 . S
C2484 C2470 1.377 . S
C2484 C2483 1.373 . S
C2485 C2469 1.377 . S
C2485 C2483 1.389 . S
C2485 C2486 1.524 . S
C2486 C2485 1.524 . S
C2486 C2487 1.397 . S
C2486 C2491 1.363 1_554 S
C2487 H2458 0.950 . S
C2487 C2486 1.397 . S
C2487 C2488 1.334 1_554 S
C2488 H2459 0.950 . S
C2488 C2487 1.334 1_556 S
C2488 C2489 1.287 . S
C2489 C2488 1.287 . S
C2489 C2490 1.524 . S
C2489 H2492 0.999 . S
C2490 H2460 0.950 . S
C2490 C2489 1.524 . S
C2490 C2491 1.415 . S
C2491 H2461 0.950 . S
C2491 C2486 1.363 1_556 S
C2491 C2490 1.415 . S
H2492 C2489 0.999 . S
H2493 C2474 0.913 . S
H2494 C2512 0.951 . S
H2495 C2514 0.951 . S
H2496 C2516 0.950 . S
H2497 C2517 0.950 . S
H2498 C2519 0.950 . S
H2499 C2522 0.950 . S
H2500 C2523 0.950 . S
H2501 C2525 0.950 . S
H2502 C2526 0.950 . S
H2503 C2527 0.951 . S
H2504 C2529 0.951 . S
H2505 C2531 0.950 . S
H2506 C2532 0.950 . S
H2507 C2534 0.950 . S
H2508 C2537 0.950 . S
H2509 C2538 0.950 . S
H2510 C2540 0.950 . S
H2511 C2541 0.950 . S
C2512 H2494 0.951 . S
C2512 C2513 1.366 . S
C2512 C2514 1.388 . S
C2513 C2512 1.366 . S
C2513 C2517 1.385 . S
C2514 H2495 0.951 . S
C2514 C2512 1.388 . S
C2514 C2515 1.366 . S
C2515 C2514 1.366 . S
C2515 C2516 1.414 . S
C2515 C2518 1.499 1_545 S
C2516 H2496 0.950 . S
C2516 C2515 1.414 . S
C2516 C2517 1.374 . S
C2517 H2497 0.950 . S
C2517 C2513 1.385 . S
C2517 C2516 1.374 . S
C2518 C2515 1.499 1_565 S
C2518 C2519 1.373 . S
C2518 C2520 1.389 . S
C2519 H2498 0.950 . S
C2519 C2518 1.373 . S
C2519 C2535 1.377 . S
C2520 C2518 1.389 . S
C2520 C2521 1.524 1_565 S
C2520 C2534 1.377 . S
C2521 C2520 1.524 1_545 S
C2521 C2522 1.397 . S
C2521 C2526 1.363 1_545 S
C2522 H2499 0.950 . S
C2522 C2521 1.397 . S
C2522 C2523 1.334 . S
C2523 H2500 0.950 . S
C2523 C2522 1.334 . S
C2523 C2524 1.287 . S
C2524 C2523 1.287 . S
C2524 C2525 1.524 . S
C2524 H2543 0.913 . S
C2525 H2501 0.950 . S
C2525 C2524 1.524 . S
C2525 C2526 1.415 1_545 S
C2526 H2502 0.950 . S
C2526 C2521 1.363 1_565 S
C2526 C2525 1.415 1_565 S
C2527 H2503 0.951 . S
C2527 C2528 1.366 . S
C2527 C2529 1.388 . S
C2528 C2527 1.366 . S
C2528 C2532 1.385 . S
C2529 H2504 0.951 . S
C2529 C2527 1.388 . S
C2529 C2530 1.366 . S
C2530 C2529 1.366 . S
C2530 C2531 1.414 . S
C2530 C2533 1.499 . S
C2531 H2505 0.950 . S
C2531 C2530 1.414 . S
C2531 C2532 1.374 . S
C2532 H2506 0.950 . S
C2532 C2528 1.385 . S
C2532 C2531 1.374 . S
C2533 C2530 1.499 . S
C2533 C2534 1.373 . S
C2533 C2535 1.389 . S
C2534 H2507 0.950 . S
C2534 C2520 1.377 . S
C2534 C2533 1.373 . S
C2535 C2519 1.377 . S
C2535 C2533 1.389 . S
C2535 C2536 1.524 . S
C2536 C2535 1.524 . S
C2536 C2537 1.397 . S
C2536 C2541 1.363 . S
C2537 H2508 0.950 . S
C2537 C2536 1.397 . S
C2537 C2538 1.334 . S
C2538 H2509 0.950 . S
C2538 C2537 1.334 . S
C2538 C2539 1.287 . S
C2539 C2538 1.287 . S
C2539 C2540 1.524 . S
C2539 H2542 0.999 . S
C2540 H2510 0.950 . S
C2540 C2539 1.524 . S
C2540 C2541 1.415 . S
C2541 H2511 0.950 . S
C2541 C2536 1.363 . S
C2541 C2540 1.415 . S
H2542 C2539 0.999 . S
H2543 C2524 0.913 . S
H2544 C2562 0.951 . S
H2545 C2564 0.951 . S
H2546 C2566 0.950 . S
H2547 C2567 0.950 . S
H2548 C2569 0.950 . S
H2549 C2572 0.950 . S
H2550 C2573 0.950 . S
H2551 C2575 0.950 . S
H2552 C2576 0.950 . S
H2553 C2577 0.951 . S
H2554 C2579 0.951 . S
H2555 C2581 0.950 . S
H2556 C2582 0.950 . S
H2557 C2584 0.950 . S
H2558 C2587 0.950 . S
H2559 C2588 0.950 . S
H2560 C2590 0.950 . S
H2561 C2591 0.950 . S
C2562 H2544 0.951 . S
C2562 C2563 1.366 . S
C2562 C2564 1.388 . S
C2563 C2562 1.366 . S
C2563 C2567 1.385 . S
C2564 H2545 0.951 . S
C2564 C2562 1.388 . S
C2564 C2565 1.366 . S
C2565 C2564 1.366 . S
C2565 C2566 1.414 . S
C2565 C2568 1.499 . S
C2566 H2546 0.950 . S
C2566 C2565 1.414 . S
C2566 C2567 1.374 . S
C2567 H2547 0.950 . S
C2567 C2563 1.385 . S
C2567 C2566 1.374 . S
C2568 C2565 1.499 . S
C2568 C2569 1.373 . S
C2568 C2570 1.389 . S
C2569 H2548 0.950 . S
C2569 C2568 1.373 . S
C2569 C2585 1.377 . S
C2570 C2568 1.389 . S
C2570 C2571 1.524 . S
C2570 C2584 1.377 . S
C2571 C2570 1.524 . S
C2571 C2572 1.397 . S
C2571 C2576 1.363 . S
C2572 H2549 0.950 . S
C2572 C2571 1.397 . S
C2572 C2573 1.334 . S
C2573 H2550 0.950 . S
C2573 C2572 1.334 . S
C2573 C2574 1.287 . S
C2574 C2573 1.287 . S
C2574 C2575 1.524 . S
C2574 H2593 0.913 . S
C2575 H2551 0.950 . S
C2575 C2574 1.524 . S
C2575 C2576 1.415 . S
C2576 H2552 0.950 . S
C2576 C2571 1.363 . S
C2576 C2575 1.415 . S
C2577 H2553 0.951 . S
C2577 C2578 1.366 . S
C2577 C2579 1.388 . S
C2578 C2577 1.366 . S
C2578 C2582 1.385 . S
C2579 H2554 0.951 . S
C2579 C2577 1.388 . S
C2579 C2580 1.366 . S
C2580 C2579 1.366 . S
C2580 C2581 1.414 . S
C2580 C2583 1.499 . S
C2581 H2555 0.950 . S
C2581 C2580 1.414 . S
C2581 C2582 1.374 . S
C2582 H2556 0.950 . S
C2582 C2578 1.385 . S
C2582 C2581 1.374 . S
C2583 C2580 1.499 . S
C2583 C2584 1.373 . S
C2583 C2585 1.389 . S
C2584 H2557 0.950 . S
C2584 C2570 1.377 . S
C2584 C2583 1.373 . S
C2585 C2569 1.377 . S
C2585 C2583 1.389 . S
C2585 C2586 1.524 . S
C2586 C2585 1.524 . S
C2586 C2587 1.397 . S
C2586 C2591 1.363 . S
C2587 H2558 0.950 . S
C2587 C2586 1.397 . S
C2587 C2588 1.334 . S
C2588 H2559 0.950 . S
C2588 C2587 1.334 . S
C2588 C2589 1.287 . S
C2589 C2588 1.287 . S
C2589 C2590 1.524 . S
C2589 H2592 0.999 . S
C2590 H2560 0.950 . S
C2590 C2589 1.524 . S
C2590 C2591 1.415 . S
C2591 H2561 0.950 . S
C2591 C2586 1.363 . S
C2591 C2590 1.415 . S
H2592 C2589 0.999 . S
H2593 C2574 0.913 . S
H2594 C2612 0.951 . S
H2595 C2614 0.951 . S
H2596 C2616 0.950 . S
H2597 C2617 0.950 . S
H2598 C2619 0.950 . S
H2599 C2622 0.950 . S
H2600 C2623 0.950 . S
H2601 C2625 0.950 . S
H2602 C2626 0.950 . S
H2603 C2627 0.951 . S
H2604 C2629 0.951 . S
H2605 C2631 0.950 . S
H2606 C2632 0.950 1_556 S
H2607 C2634 0.950 . S
H2608 C2637 0.950 . S
H2609 C2638 0.950 . S
H2610 C2640 0.950 . S
H2611 C2641 0.950 . S
C2612 H2594 0.951 . S
C2612 C2613 1.366 . S
C2612 C2614 1.388 . S
C2613 C2612 1.366 . S
C2613 C2617 1.385 . S
C2614 H2595 0.951 . S
C2614 C2612 1.388 . S
C2614 C2615 1.366 . S
C2615 C2614 1.366 . S
C2615 C2616 1.414 . S
C2615 C2618 1.499 . S
C2616 H2596 0.950 . S
C2616 C2615 1.414 . S
C2616 C2617 1.374 . S
C2617 H2597 0.950 . S
C2617 C2613 1.385 . S
C2617 C2616 1.374 . S
C2618 C2615 1.499 . S
C2618 C2619 1.373 . S
C2618 C2620 1.389 . S
C2619 H2598 0.950 . S
C2619 C2618 1.373 . S
C2619 C2635 1.377 . S
C2620 C2618 1.389 . S
C2620 C2621 1.524 . S
C2620 C2634 1.377 . S
C2621 C2620 1.524 . S
C2621 C2622 1.397 . S
C2621 C2626 1.363 . S
C2622 H2599 0.950 . S
C2622 C2621 1.397 . S
C2622 C2623 1.334 . S
C2623 H2600 0.950 . S
C2623 C2622 1.334 . S
C2623 C2624 1.287 . S
C2624 C2623 1.287 . S
C2624 C2625 1.524 . S
C2624 H2643 0.913 . S
C2625 H2601 0.950 . S
C2625 C2624 1.524 . S
C2625 C2626 1.415 . S
C2626 H2602 0.950 . S
C2626 C2621 1.363 . S
C2626 C2625 1.415 . S
C2627 H2603 0.951 . S
C2627 C2628 1.366 1_554 S
C2627 C2629 1.388 . S
C2628 C2627 1.366 1_556 S
C2628 C2632 1.385 1_556 S
C2629 H2604 0.951 . S
C2629 C2627 1.388 . S
C2629 C2630 1.366 . S
C2630 C2629 1.366 . S
C2630 C2631 1.414 . S
C2630 C2633 1.499 . S
C2631 H2605 0.950 . S
C2631 C2630 1.414 . S
C2631 C2632 1.374 . S
C2632 H2606 0.950 1_554 S
C2632 C2628 1.385 1_554 S
C2632 C2631 1.374 . S
C2633 C2630 1.499 . S
C2633 C2634 1.373 . S
C2633 C2635 1.389 . S
C2634 H2607 0.950 . S
C2634 C2620 1.377 . S
C2634 C2633 1.373 . S
C2635 C2619 1.377 . S
C2635 C2633 1.389 . S
C2635 C2636 1.524 . S
C2636 C2635 1.524 . S
C2636 C2637 1.397 . S
C2636 C2641 1.363 . S
C2637 H2608 0.950 . S
C2637 C2636 1.397 . S
C2637 C2638 1.334 . S
C2638 H2609 0.950 . S
C2638 C2637 1.334 . S
C2638 C2639 1.287 . S
C2639 C2638 1.287 . S
C2639 C2640 1.524 . S
C2639 H2642 0.999 . S
C2640 H2610 0.950 . S
C2640 C2639 1.524 . S
C2640 C2641 1.415 . S
C2641 H2611 0.950 . S
C2641 C2636 1.363 . S
C2641 C2640 1.415 . S
H2642 C2639 0.999 . S
H2643 C2624 0.913 . S
H2644 C2662 0.951 . S
H2645 C2664 0.951 . S
H2646 C2666 0.950 . S
H2647 C2667 0.950 . S
H2648 C2669 0.950 . S
H2649 C2672 0.950 . S
H2650 C2673 0.950 . S
H2651 C2675 0.950 . S
H2652 C2676 0.950 . S
H2653 C2677 0.951 . S
H2654 C2679 0.951 1_655 S
H2655 C2681 0.950 . S
H2656 C2682 0.950 . S
H2657 C2684 0.950 . S
H2658 C2687 0.950 . S
H2659 C2688 0.950 . S
H2660 C2690 0.950 . S
H2661 C2691 0.950 . S
C2662 H2644 0.951 . S
C2662 C2663 1.366 . S
C2662 C2664 1.388 . S
C2663 C2662 1.366 . S
C2663 C2667 1.385 . S
C2664 H2645 0.951 . S
C2664 C2662 1.388 . S
C2664 C2665 1.366 . S
C2665 C2664 1.366 . S
C2665 C2666 1.414 . S
C2665 C2668 1.499 . S
C2666 H2646 0.950 . S
C2666 C2665 1.414 . S
C2666 C2667 1.374 . S
C2667 H2647 0.950 . S
C2667 C2663 1.385 . S
C2667 C2666 1.374 . S
C2668 C2665 1.499 . S
C2668 C2669 1.373 . S
C2668 C2670 1.410 . S
C2669 H2648 0.950 . S
C2669 C2668 1.373 . S
C2669 C2685 1.377 . S
C2670 C2668 1.410 . S
C2670 C2671 1.520 1_655 S
C2670 C2684 1.360 1_655 S
C2671 C2670 1.520 1_455 S
C2671 C2672 1.397 1_455 S
C2671 C2676 1.363 . S
C2672 H2649 0.950 . S
C2672 C2671 1.397 1_655 S
C2672 C2673 1.334 . S
C2673 H2650 0.950 . S
C2673 C2672 1.334 . S
C2673 C2674 1.287 1_655 S
C2674 C2673 1.287 1_455 S
C2674 C2675 1.524 . S
C2674 H2693 0.913 . S
C2675 H2651 0.950 . S
C2675 C2674 1.524 . S
C2675 C2676 1.415 . S
C2676 H2652 0.950 . S
C2676 C2671 1.363 . S
C2676 C2675 1.415 . S
C2677 H2653 0.951 . S
C2677 C2678 1.366 . S
C2677 C2679 1.388 . S
C2678 C2677 1.366 . S
C2678 C2682 1.385 . S
C2679 H2654 0.951 1_455 S
C2679 C2677 1.388 . S
C2679 C2680 1.366 . S
C2680 C2679 1.366 . S
C2680 C2681 1.414 . S
C2680 C2683 1.499 . S
C2681 H2655 0.950 . S
C2681 C2680 1.414 . S
C2681 C2682 1.374 . S
C2682 H2656 0.950 . S
C2682 C2678 1.385 . S
C2682 C2681 1.374 . S
C2683 C2680 1.499 . S
C2683 C2684 1.373 . S
C2683 C2685 1.389 1_455 S
C2684 H2657 0.950 . S
C2684 C2670 1.360 1_455 S
C2684 C2683 1.373 . S
C2685 C2669 1.377 . S
C2685 C2683 1.389 1_655 S
C2685 C2686 1.524 . S
C2686 C2685 1.524 . S
C2686 C2687 1.397 1_655 S
C2686 C2691 1.363 . S
C2687 H2658 0.950 . S
C2687 C2686 1.397 1_455 S
C2687 C2688 1.334 . S
C2688 H2659 0.950 . S
C2688 C2687 1.334 . S
C2688 C2689 1.287 1_455 S
C2689 C2688 1.287 1_655 S
C2689 C2690 1.524 . S
C2689 H2692 0.999 . S
C2690 H2660 0.950 . S
C2690 C2689 1.524 . S
C2690 C2691 1.415 . S
C2691 H2661 0.950 . S
C2691 C2686 1.363 . S
C2691 C2690 1.415 . S
H2692 C2689 0.999 . S
H2693 C2674 0.913 . S
H2694 C2712 0.951 . S
H2695 C2714 0.951 . S
H2696 C2716 0.950 . S
H2697 C2717 0.950 . S
H2698 C2719 0.950 . S
H2699 C2722 0.950 . S
H2700 C2723 0.950 . S
H2701 C2725 0.950 . S
H2702 C2726 0.950 . S
H2703 C2727 0.951 . S
H2704 C2729 0.951 . S
H2705 C2731 0.950 . S
H2706 C2732 0.950 . S
H2707 C2734 0.950 . S
H2708 C2737 0.950 . S
H2709 C2738 0.950 . S
H2710 C2740 0.950 . S
H2711 C2741 0.950 . S
C2712 H2694 0.951 . S
C2712 C2713 1.366 . S
C2712 C2714 1.388 . S
C2713 C2712 1.366 . S
C2713 C2717 1.385 . S
C2714 H2695 0.951 . S
C2714 C2712 1.388 . S
C2714 C2715 1.366 . S
C2715 C2714 1.366 . S
C2715 C2716 1.414 . S
C2715 C2718 1.499 . S
C2716 H2696 0.950 . S
C2716 C2715 1.414 . S
C2716 C2717 1.374 . S
C2717 H2697 0.950 . S
C2717 C2713 1.385 . S
C2717 C2716 1.374 . S
C2718 C2715 1.499 . S
C2718 C2719 1.373 . S
C2718 C2720 1.389 . S
C2719 H2698 0.950 . S
C2719 C2718 1.373 . S
C2719 C2735 1.377 . S
C2720 C2718 1.389 . S
C2720 C2721 1.524 . S
C2720 C2734 1.377 . S
C2721 C2720 1.524 . S
C2721 C2722 1.397 . S
C2721 C2726 1.363 . S
C2722 H2699 0.950 . S
C2722 C2721 1.397 . S
C2722 C2723 1.334 . S
C2723 H2700 0.950 . S
C2723 C2722 1.334 . S
C2723 C2724 1.287 . S
C2724 C2723 1.287 . S
C2724 C2725 1.524 . S
C2724 H2743 0.913 . S
C2725 H2701 0.950 . S
C2725 C2724 1.524 . S
C2725 C2726 1.415 . S
C2726 H2702 0.950 . S
C2726 C2721 1.363 . S
C2726 C2725 1.415 . S
C2727 H2703 0.951 . S
C2727 C2728 1.366 . S
C2727 C2729 1.388 . S
C2728 C2727 1.366 . S
C2728 C2732 1.385 . S
C2729 H2704 0.951 . S
C2729 C2727 1.388 . S
C2729 C2730 1.366 . S
C2730 C2729 1.366 . S
C2730 C2731 1.414 . S
C2730 C2733 1.499 . S
C2731 H2705 0.950 . S
C2731 C2730 1.414 . S
C2731 C2732 1.374 . S
C2732 H2706 0.950 . S
C2732 C2728 1.385 . S
C2732 C2731 1.374 . S
C2733 C2730 1.499 . S
C2733 C2734 1.373 . S
C2733 C2735 1.389 . S
C2734 H2707 0.950 . S
C2734 C2720 1.377 . S
C2734 C2733 1.373 . S
C2735 C2719 1.377 . S
C2735 C2733 1.389 . S
C2735 C2736 1.524 . S
C2736 C2735 1.524 . S
C2736 C2737 1.397 . S
C2736 C2741 1.363 . S
C2737 H2708 0.950 . S
C2737 C2736 1.397 . S
C2737 C2738 1.334 . S
C2738 H2709 0.950 . S
C2738 C2737 1.334 . S
C2738 C2739 1.287 . S
C2739 C2738 1.287 . S
C2739 C2740 1.524 . S
C2739 H2742 0.999 . S
C2740 H2710 0.950 . S
C2740 C2739 1.524 . S
C2740 C2741 1.415 . S
C2741 H2711 0.950 . S
C2741 C2736 1.363 . S
C2741 C2740 1.415 . S
H2742 C2739 0.999 . S
H2743 C2724 0.913 . S
H2744 C2762 0.951 . S
H2745 C2764 0.951 . S
H2746 C2766 0.950 . S
H2747 C2767 0.950 . S
H2748 C2769 0.950 . S
H2749 C2772 0.950 . S
H2750 C2773 0.950 . S
H2751 C2775 0.950 . S
H2752 C2776 0.950 . S
H2753 C2777 0.951 . S
H2754 C2779 0.951 . S
H2755 C2781 0.950 . S
H2756 C2782 0.950 . S
H2757 C2784 0.950 . S
H2758 C2787 0.950 . S
H2759 C2788 0.950 . S
H2760 C2790 0.950 . S
H2761 C2791 0.950 . S
C2762 H2744 0.951 . S
C2762 C2763 1.366 . S
C2762 C2764 1.388 . S
C2763 C2762 1.366 . S
C2763 C2767 1.385 . S
C2764 H2745 0.951 . S
C2764 C2762 1.388 . S
C2764 C2765 1.366 . S
C2765 C2764 1.366 . S
C2765 C2766 1.414 . S
C2765 C2768 1.499 . S
C2766 H2746 0.950 . S
C2766 C2765 1.414 . S
C2766 C2767 1.374 . S
C2767 H2747 0.950 . S
C2767 C2763 1.385 . S
C2767 C2766 1.374 . S
C2768 C2765 1.499 . S
C2768 C2769 1.373 . S
C2768 C2770 1.389 . S
C2769 H2748 0.950 . S
C2769 C2768 1.373 . S
C2769 C2785 1.377 . S
C2770 C2768 1.389 . S
C2770 C2771 1.524 . S
C2770 C2784 1.377 . S
C2771 C2770 1.524 . S
C2771 C2772 1.397 . S
C2771 C2776 1.363 . S
C2772 H2749 0.950 . S
C2772 C2771 1.397 . S
C2772 C2773 1.334 . S
C2773 H2750 0.950 . S
C2773 C2772 1.334 . S
C2773 C2774 1.287 . S
C2774 C2773 1.287 . S
C2774 C2775 1.524 . S
C2774 H2793 0.913 . S
C2775 H2751 0.950 . S
C2775 C2774 1.524 . S
C2775 C2776 1.415 . S
C2776 H2752 0.950 . S
C2776 C2771 1.363 . S
C2776 C2775 1.415 . S
C2777 H2753 0.951 . S
C2777 C2778 1.366 . S
C2777 C2779 1.388 . S
C2778 C2777 1.366 . S
C2778 C2782 1.385 . S
C2779 H2754 0.951 . S
C2779 C2777 1.388 . S
C2779 C2780 1.366 . S
C2780 C2779 1.366 . S
C2780 C2781 1.414 . S
C2780 C2783 1.499 . S
C2781 H2755 0.950 . S
C2781 C2780 1.414 . S
C2781 C2782 1.374 . S
C2782 H2756 0.950 . S
C2782 C2778 1.385 . S
C2782 C2781 1.374 . S
C2783 C2780 1.499 . S
C2783 C2784 1.373 . S
C2783 C2785 1.389 . S
C2784 H2757 0.950 . S
C2784 C2770 1.377 . S
C2784 C2783 1.373 . S
C2785 C2769 1.377 . S
C2785 C2783 1.389 . S
C2785 C2786 1.524 . S
C2786 C2785 1.524 . S
C2786 C2787 1.397 . S
C2786 C2791 1.363 . S
C2787 H2758 0.950 . S
C2787 C2786 1.397 . S
C2787 C2788 1.334 . S
C2788 H2759 0.950 . S
C2788 C2787 1.334 . S
C2788 C2789 1.287 . S
C2789 C2788 1.287 . S
C2789 C2790 1.524 . S
C2789 H2792 0.999 . S
C2790 H2760 0.950 . S
C2790 C2789 1.524 . S
C2790 C2791 1.415 . S
C2791 H2761 0.950 . S
C2791 C2786 1.363 . S
C2791 C2790 1.415 . S
H2792 C2789 0.999 . S
H2793 C2774 0.913 . S
H2794 C2812 0.951 . S
H2795 C2814 0.951 . S
H2796 C2816 0.950 . S
H2797 C2817 0.950 . S
H2798 C2819 0.950 . S
H2799 C2822 0.950 . S
H2800 C2823 0.950 . S
H2801 C2825 0.950 . S
H2802 C2826 0.950 . S
H2803 C2827 0.951 . S
H2804 C2829 0.951 . S
H2805 C2831 0.950 . S
H2806 C2832 0.950 . S
H2807 C2834 0.950 . S
H2808 C2837 0.950 . S
H2809 C2838 0.950 . S
H2810 C2840 0.950 . S
H2811 C2841 0.950 . S
C2812 H2794 0.951 . S
C2812 C2813 1.366 . S
C2812 C2814 1.388 . S
C2813 C2812 1.366 . S
C2813 C2817 1.385 . S
C2814 H2795 0.951 . S
C2814 C2812 1.388 . S
C2814 C2815 1.366 . S
C2815 C2814 1.366 . S
C2815 C2816 1.414 . S
C2815 C2818 1.499 . S
C2816 H2796 0.950 . S
C2816 C2815 1.414 . S
C2816 C2817 1.374 . S
C2817 H2797 0.950 . S
C2817 C2813 1.385 . S
C2817 C2816 1.374 . S
C2818 C2815 1.499 . S
C2818 C2819 1.373 . S
C2818 C2820 1.389 . S
C2819 H2798 0.950 . S
C2819 C2818 1.373 . S
C2819 C2835 1.377 . S
C2820 C2818 1.389 . S
C2820 C2821 1.524 . S
C2820 C2834 1.377 . S
C2821 C2820 1.524 . S
C2821 C2822 1.397 . S
C2821 C2826 1.363 . S
C2822 H2799 0.950 . S
C2822 C2821 1.397 . S
C2822 C2823 1.334 . S
C2823 H2800 0.950 . S
C2823 C2822 1.334 . S
C2823 C2824 1.287 . S
C2824 C2823 1.287 . S
C2824 C2825 1.524 . S
C2824 H2843 0.913 . S
C2825 H2801 0.950 . S
C2825 C2824 1.524 . S
C2825 C2826 1.415 . S
C2826 H2802 0.950 . S
C2826 C2821 1.363 . S
C2826 C2825 1.415 . S
C2827 H2803 0.951 . S
C2827 C2828 1.366 . S
C2827 C2829 1.388 1_554 S
C2828 C2827 1.366 . S
C2828 C2832 1.385 1_554 S
C2829 H2804 0.951 . S
C2829 C2827 1.388 1_556 S
C2829 C2830 1.366 . S
C2830 C2829 1.366 . S
C2830 C2831 1.414 . S
C2830 C2833 1.499 . S
C2831 H2805 0.950 . S
C2831 C2830 1.414 . S
C2831 C2832 1.374 . S
C2832 H2806 0.950 . S
C2832 C2828 1.385 1_556 S
C2832 C2831 1.374 . S
C2833 C2830 1.499 . S
C2833 C2834 1.373 . S
C2833 C2835 1.389 . S
C2834 H2807 0.950 . S
C2834 C2820 1.377 . S
C2834 C2833 1.373 . S
C2835 C2819 1.377 . S
C2835 C2833 1.389 . S
C2835 C2836 1.524 . S
C2836 C2835 1.524 . S
C2836 C2837 1.397 . S
C2836 C2841 1.363 . S
C2837 H2808 0.950 . S
C2837 C2836 1.397 . S
C2837 C2838 1.334 . S
C2838 H2809 0.950 . S
C2838 C2837 1.334 . S
C2838 C2839 1.287 . S
C2839 C2838 1.287 . S
C2839 C2840 1.524 . S
C2839 H2842 0.999 . S
C2840 H2810 0.950 . S
C2840 C2839 1.524 . S
C2840 C2841 1.415 . S
C2841 H2811 0.950 . S
C2841 C2836 1.363 . S
C2841 C2840 1.415 . S
H2842 C2839 0.999 . S
H2843 C2824 0.913 . S
H2844 C2862 0.951 . S
H2845 C2864 0.951 . S
H2846 C2866 0.950 . S
H2847 C2867 0.950 . S
H2848 C2869 0.950 . S
H2849 C2872 0.950 . S
H2850 C2873 0.950 . S
H2851 C2875 0.950 . S
H2852 C2876 0.950 . S
H2853 C2877 0.951 . S
H2854 C2879 0.951 . S
H2855 C2881 0.947 1_455 S
H2856 C2882 0.950 . S
H2857 C2884 0.950 . S
H2858 C2887 0.950 . S
H2859 C2888 0.950 . S
H2860 C2890 0.950 . S
H2861 C2891 0.950 . S
C2862 H2844 0.951 . S
C2862 C2863 1.366 . S
C2862 C2864 1.388 . S
C2863 C2862 1.366 . S
C2863 C2867 1.385 . S
C2864 H2845 0.951 . S
C2864 C2862 1.388 . S
C2864 C2865 1.366 . S
C2865 C2864 1.366 . S
C2865 C2866 1.414 . S
C2865 C2868 1.499 . S
C2866 H2846 0.950 . S
C2866 C2865 1.414 . S
C2866 C2867 1.374 . S
C2867 H2847 0.950 . S
C2867 C2863 1.385 . S
C2867 C2866 1.374 . S
C2868 C2865 1.499 . S
C2868 C2869 1.373 1_455 S
C2868 C2870 1.389 . S
C2869 H2848 0.950 . S
C2869 C2868 1.373 1_655 S
C2869 C2885 1.377 . S
C2870 C2868 1.389 . S
C2870 C2871 1.524 . S
C2870 C2884 1.377 . S
C2871 C2870 1.524 . S
C2871 C2872 1.397 . S
C2871 C2876 1.363 . S
C2872 H2849 0.950 . S
C2872 C2871 1.397 . S
C2872 C2873 1.334 . S
C2873 H2850 0.950 . S
C2873 C2872 1.334 . S
C2873 C2874 1.287 . S
C2874 C2873 1.287 . S
C2874 C2875 1.524 . S
C2874 H2893 0.913 . S
C2875 H2851 0.950 . S
C2875 C2874 1.524 . S
C2875 C2876 1.415 . S
C2876 H2852 0.950 . S
C2876 C2871 1.363 . S
C2876 C2875 1.415 . S
C2877 H2853 0.951 . S
C2877 C2878 1.366 . S
C2877 C2879 1.388 . S
C2878 C2877 1.366 . S
C2878 C2882 1.385 . S
C2879 H2854 0.951 . S
C2879 C2877 1.388 . S
C2879 C2880 1.366 . S
C2880 C2879 1.366 . S
C2880 C2881 1.414 . S
C2880 C2883 1.499 . S
C2881 H2855 0.947 1_655 S
C2881 C2880 1.414 . S
C2881 C2882 1.374 . S
C2882 H2856 0.950 . S
C2882 C2878 1.385 . S
C2882 C2881 1.374 . S
C2883 C2880 1.499 . S
C2883 C2884 1.373 1_655 S
C2883 C2885 1.389 . S
C2884 H2857 0.950 . S
C2884 C2870 1.377 . S
C2884 C2883 1.373 1_455 S
C2885 C2869 1.377 . S
C2885 C2883 1.389 . S
C2885 C2886 1.524 . S
C2886 C2885 1.524 . S
C2886 C2887 1.397 . S
C2886 C2891 1.363 . S
C2887 H2858 0.950 . S
C2887 C2886 1.397 . S
C2887 C2888 1.334 . S
C2888 H2859 0.950 . S
C2888 C2887 1.334 . S
C2888 C2889 1.287 . S
C2889 C2888 1.287 . S
C2889 C2890 1.524 . S
C2889 H2892 0.999 . S
C2890 H2860 0.950 . S
C2890 C2889 1.524 . S
C2890 C2891 1.415 . S
C2891 H2861 0.950 . S
C2891 C2886 1.363 . S
C2891 C2890 1.415 . S
H2892 C2889 0.999 . S
H2893 C2874 0.913 . S
H2894 C2912 0.951 . S
H2895 C2914 0.951 . S
H2896 C2916 0.950 . S
H2897 C2917 0.950 . S
H2898 C2919 0.950 . S
H2899 C2922 0.950 . S
H2900 C2923 0.950 . S
H2901 C2925 0.950 . S
H2902 C2926 0.950 . S
H2903 C2927 0.951 . S
H2904 C2929 0.951 . S
H2905 C2931 0.950 . S
H2906 C2932 0.950 . S
H2907 C2934 0.950 . S
H2908 C2937 0.950 . S
H2909 C2938 0.950 . S
H2910 C2940 0.950 . S
H2911 C2941 0.950 . S
C2912 H2894 0.951 . S
C2912 C2913 1.366 . S
C2912 C2914 1.388 . S
C2913 C2912 1.366 . S
C2913 C2917 1.385 . S
C2914 H2895 0.951 . S
C2914 C2912 1.388 . S
C2914 C2915 1.366 . S
C2915 C2914 1.366 . S
C2915 C2916 1.414 . S
C2915 C2918 1.499 . S
C2916 H2896 0.950 . S
C2916 C2915 1.414 . S
C2916 C2917 1.374 . S
C2917 H2897 0.950 . S
C2917 C2913 1.385 . S
C2917 C2916 1.374 . S
C2918 C2915 1.499 . S
C2918 C2919 1.373 . S
C2918 C2920 1.389 . S
C2919 H2898 0.950 . S
C2919 C2918 1.373 . S
C2919 C2935 1.377 . S
C2920 C2918 1.389 . S
C2920 C2921 1.524 . S
C2920 C2934 1.377 . S
C2921 C2920 1.524 . S
C2921 C2922 1.397 . S
C2921 C2926 1.363 . S
C2922 H2899 0.950 . S
C2922 C2921 1.397 . S
C2922 C2923 1.334 . S
C2923 H2900 0.950 . S
C2923 C2922 1.334 . S
C2923 C2924 1.287 . S
C2924 C2923 1.287 . S
C2924 C2925 1.524 . S
C2924 H2943 0.913 . S
C2925 H2901 0.950 . S
C2925 C2924 1.524 . S
C2925 C2926 1.415 . S
C2926 H2902 0.950 . S
C2926 C2921 1.363 . S
C2926 C2925 1.415 . S
C2927 H2903 0.951 . S
C2927 C2928 1.366 . S
C2927 C2929 1.388 . S
C2928 C2927 1.366 . S
C2928 C2932 1.385 . S
C2929 H2904 0.951 . S
C2929 C2927 1.388 . S
C2929 C2930 1.366 . S
C2930 C2929 1.366 . S
C2930 C2931 1.414 . S
C2930 C2933 1.499 . S
C2931 H2905 0.950 . S
C2931 C2930 1.414 . S
C2931 C2932 1.374 . S
C2932 H2906 0.950 . S
C2932 C2928 1.385 . S
C2932 C2931 1.374 . S
C2933 C2930 1.499 . S
C2933 C2934 1.373 . S
C2933 C2935 1.389 . S
C2934 H2907 0.950 . S
C2934 C2920 1.377 . S
C2934 C2933 1.373 . S
C2935 C2919 1.377 . S
C2935 C2933 1.389 . S
C2935 C2936 1.524 . S
C2936 C2935 1.524 . S
C2936 C2937 1.397 . S
C2936 C2941 1.363 . S
C2937 H2908 0.950 . S
C2937 C2936 1.397 . S
C2937 C2938 1.334 . S
C2938 H2909 0.950 . S
C2938 C2937 1.334 . S
C2938 C2939 1.287 . S
C2939 C2938 1.287 . S
C2939 C2940 1.524 . S
C2939 H2942 0.999 . S
C2940 H2910 0.950 . S
C2940 C2939 1.524 . S
C2940 C2941 1.415 . S
C2941 H2911 0.950 . S
C2941 C2936 1.363 . S
C2941 C2940 1.415 . S
H2942 C2939 0.999 . S
H2943 C2924 0.913 . S
H2944 C2962 0.951 . S
H2945 C2964 0.951 . S
H2946 C2966 0.950 . S
H2947 C2967 0.950 . S
H2948 C2969 0.950 . S
H2949 C2972 0.950 . S
H2950 C2973 0.950 . S
H2951 C2975 0.950 . S
H2952 C2976 0.950 . S
H2953 C2977 0.951 . S
H2954 C2979 0.951 . S
H2955 C2981 0.950 . S
H2956 C2982 0.950 . S
H2957 C2984 0.950 . S
H2958 C2987 0.950 . S
H2959 C2988 0.950 . S
H2960 C2990 0.950 . S
H2961 C2991 0.950 . S
C2962 H2944 0.951 . S
C2962 C2963 1.366 . S
C2962 C2964 1.388 . S
C2963 C2962 1.366 . S
C2963 C2967 1.385 . S
C2964 H2945 0.951 . S
C2964 C2962 1.388 . S
C2964 C2965 1.366 . S
C2965 C2964 1.366 . S
C2965 C2966 1.414 . S
C2965 C2968 1.499 . S
C2966 H2946 0.950 . S
C2966 C2965 1.414 . S
C2966 C2967 1.374 . S
C2967 H2947 0.950 . S
C2967 C2963 1.385 . S
C2967 C2966 1.374 . S
C2968 C2965 1.499 . S
C2968 C2969 1.373 . S
C2968 C2970 1.389 1_655 S
C2969 H2948 0.950 . S
C2969 C2968 1.373 . S
C2969 C2985 1.377 . S
C2970 C2968 1.389 1_455 S
C2970 C2971 1.524 . S
C2970 C2984 1.377 . S
C2971 C2970 1.524 . S
C2971 C2972 1.397 . S
C2971 C2976 1.363 . S
C2972 H2949 0.950 . S
C2972 C2971 1.397 . S
C2972 C2973 1.334 . S
C2973 H2950 0.950 . S
C2973 C2972 1.334 . S
C2973 C2974 1.287 . S
C2974 C2973 1.287 . S
C2974 C2975 1.524 . S
C2974 H2993 0.913 . S
C2975 H2951 0.950 . S
C2975 C2974 1.524 . S
C2975 C2976 1.415 . S
C2976 H2952 0.950 . S
C2976 C2971 1.363 . S
C2976 C2975 1.415 . S
C2977 H2953 0.951 . S
C2977 C2978 1.366 . S
C2977 C2979 1.388 . S
C2978 C2977 1.366 . S
C2978 C2982 1.385 . S
C2979 H2954 0.951 . S
C2979 C2977 1.388 . S
C2979 C2980 1.366 . S
C2980 C2979 1.366 . S
C2980 C2981 1.414 . S
C2980 C2983 1.499 . S
C2981 H2955 0.950 . S
C2981 C2980 1.414 . S
C2981 C2982 1.374 . S
C2982 H2956 0.950 . S
C2982 C2978 1.385 . S
C2982 C2981 1.374 . S
C2983 C2980 1.499 . S
C2983 C2984 1.373 . S
C2983 C2985 1.389 1_455 S
C2984 H2957 0.950 . S
C2984 C2970 1.377 . S
C2984 C2983 1.373 . S
C2985 C2969 1.377 . S
C2985 C2983 1.389 1_655 S
C2985 C2986 1.524 . S
C2986 C2985 1.524 . S
C2986 C2987 1.397 . S
C2986 C2991 1.363 . S
C2987 H2958 0.950 . S
C2987 C2986 1.397 . S
C2987 C2988 1.334 . S
C2988 H2959 0.950 . S
C2988 C2987 1.334 . S
C2988 C2989 1.287 . S
C2989 C2988 1.287 . S
C2989 C2990 1.524 . S
C2989 H2992 0.999 . S
C2990 H2960 0.950 . S
C2990 C2989 1.524 . S
C2990 C2991 1.415 . S
C2991 H2961 0.950 . S
C2991 C2986 1.363 . S
C2991 C2990 1.415 . S
H2992 C2989 0.999 . S
H2993 C2974 0.913 . S
H2994 C3012 0.951 . S
H2995 C3014 0.951 . S
H2996 C3016 0.950 . S
H2997 C3017 0.950 . S
H2998 C3019 0.950 . S
H2999 C3022 0.950 . S
H3000 C3023 0.950 . S
H3001 C3025 0.950 . S
H3002 C3026 0.950 . S
H3003 C3027 0.951 . S
H3004 C3029 0.951 . S
H3005 C3031 0.950 . S
H3006 C3032 0.950 . S
H3007 C3034 0.950 . S
H3008 C3037 0.950 . S
H3009 C3038 0.950 . S
H3010 C3040 0.950 . S
H3011 C3041 0.950 . S
C3012 H2994 0.951 . S
C3012 C3013 1.366 . S
C3012 C3014 1.388 . S
C3013 C3012 1.366 . S
C3013 C3017 1.385 . S
C3014 H2995 0.951 . S
C3014 C3012 1.388 . S
C3014 C3015 1.366 . S
C3015 C3014 1.366 . S
C3015 C3016 1.414 . S
C3015 C3018 1.499 . S
C3016 H2996 0.950 . S
C3016 C3015 1.414 . S
C3016 C3017 1.374 . S
C3017 H2997 0.950 . S
C3017 C3013 1.385 . S
C3017 C3016 1.374 . S
C3018 C3015 1.499 . S
C3018 C3019 1.373 . S
C3018 C3020 1.389 . S
C3019 H2998 0.950 . S
C3019 C3018 1.373 . S
C3019 C3035 1.377 . S
C3020 C3018 1.389 . S
C3020 C3021 1.524 . S
C3020 C3034 1.377 . S
C3021 C3020 1.524 . S
C3021 C3022 1.397 . S
C3021 C3026 1.363 . S
C3022 H2999 0.950 . S
C3022 C3021 1.397 . S
C3022 C3023 1.334 . S
C3023 H3000 0.950 . S
C3023 C3022 1.334 . S
C3023 C3024 1.287 . S
C3024 C3023 1.287 . S
C3024 C3025 1.524 . S
C3024 H3043 0.913 . S
C3025 H3001 0.950 . S
C3025 C3024 1.524 . S
C3025 C3026 1.415 . S
C3026 H3002 0.950 . S
C3026 C3021 1.363 . S
C3026 C3025 1.415 . S
C3027 H3003 0.951 . S
C3027 C3028 1.366 . S
C3027 C3029 1.388 . S
C3028 C3027 1.366 . S
C3028 C3032 1.385 . S
C3029 H3004 0.951 . S
C3029 C3027 1.388 . S
C3029 C3030 1.366 . S
C3030 C3029 1.366 . S
C3030 C3031 1.414 . S
C3030 C3033 1.499 . S
C3031 H3005 0.950 . S
C3031 C3030 1.414 . S
C3031 C3032 1.374 . S
C3032 H3006 0.950 . S
C3032 C3028 1.385 . S
C3032 C3031 1.374 . S
C3033 C3030 1.499 . S
C3033 C3034 1.373 . S
C3033 C3035 1.389 . S
C3034 H3007 0.950 . S
C3034 C3020 1.377 . S
C3034 C3033 1.373 . S
C3035 C3019 1.377 . S
C3035 C3033 1.389 . S
C3035 C3036 1.524 . S
C3036 C3035 1.524 . S
C3036 C3037 1.397 . S
C3036 C3041 1.363 . S
C3037 H3008 0.950 . S
C3037 C3036 1.397 . S
C3037 C3038 1.334 . S
C3038 H3009 0.950 . S
C3038 C3037 1.334 . S
C3038 C3039 1.287 . S
C3039 C3038 1.287 . S
C3039 C3040 1.524 . S
C3039 H3042 0.999 . S
C3040 H3010 0.950 . S
C3040 C3039 1.524 . S
C3040 C3041 1.415 . S
C3041 H3011 0.950 . S
C3041 C3036 1.363 . S
C3041 C3040 1.415 . S
H3042 C3039 0.999 . S
H3043 C3024 0.913 . S
H3044 C3062 0.951 . S
H3045 C3064 0.951 . S
H3046 C3066 0.950 . S
H3047 C3067 0.950 . S
H3048 C3069 0.950 . S
H3049 C3072 0.950 . S
H3050 C3073 0.950 . S
H3051 C3075 0.950 . S
H3052 C3076 0.950 . S
H3053 C3077 0.951 . S
H3054 C3079 0.951 . S
H3055 C3081 0.950 . S
H3056 C3082 0.950 . S
H3057 C3084 0.950 . S
H3058 C3087 0.950 . S
H3059 C3088 0.950 . S
H3060 C3090 0.950 . S
H3061 C3091 0.950 . S
C3062 H3044 0.951 . S
C3062 C3063 1.366 . S
C3062 C3064 1.388 . S
C3063 C3062 1.366 . S
C3063 C3067 1.385 . S
C3064 H3045 0.951 . S
C3064 C3062 1.388 . S
C3064 C3065 1.366 . S
C3065 C3064 1.366 . S
C3065 C3066 1.414 . S
C3065 C3068 1.499 . S
C3066 H3046 0.950 . S
C3066 C3065 1.414 . S
C3066 C3067 1.374 . S
C3067 H3047 0.950 . S
C3067 C3063 1.385 . S
C3067 C3066 1.374 . S
C3068 C3065 1.499 . S
C3068 C3069 1.373 . S
C3068 C3070 1.389 . S
C3069 H3048 0.950 . S
C3069 C3068 1.373 . S
C3069 C3085 1.377 . S
C3070 C3068 1.389 . S
C3070 C3071 1.524 . S
C3070 C3084 1.377 . S
C3071 C3070 1.524 . S
C3071 C3072 1.397 . S
C3071 C3076 1.363 . S
C3072 H3049 0.950 . S
C3072 C3071 1.397 . S
C3072 C3073 1.334 . S
C3073 H3050 0.950 . S
C3073 C3072 1.334 . S
C3073 C3074 1.287 . S
C3074 C3073 1.287 . S
C3074 C3075 1.524 . S
C3074 H3093 0.913 . S
C3075 H3051 0.950 . S
C3075 C3074 1.524 . S
C3075 C3076 1.415 . S
C3076 H3052 0.950 . S
C3076 C3071 1.363 . S
C3076 C3075 1.415 . S
C3077 H3053 0.951 . S
C3077 C3078 1.366 . S
C3077 C3079 1.388 . S
C3078 C3077 1.366 . S
C3078 C3082 1.385 . S
C3079 H3054 0.951 . S
C3079 C3077 1.388 . S
C3079 C3080 1.366 . S
C3080 C3079 1.366 . S
C3080 C3081 1.414 . S
C3080 C3083 1.499 . S
C3081 H3055 0.950 . S
C3081 C3080 1.414 . S
C3081 C3082 1.374 . S
C3082 H3056 0.950 . S
C3082 C3078 1.385 . S
C3082 C3081 1.374 . S
C3083 C3080 1.499 . S
C3083 C3084 1.373 . S
C3083 C3085 1.389 . S
C3084 H3057 0.950 . S
C3084 C3070 1.377 . S
C3084 C3083 1.373 . S
C3085 C3069 1.377 . S
C3085 C3083 1.389 . S
C3085 C3086 1.524 . S
C3086 C3085 1.524 . S
C3086 C3087 1.397 . S
C3086 C3091 1.363 . S
C3087 H3058 0.950 . S
C3087 C3086 1.397 . S
C3087 C3088 1.334 . S
C3088 H3059 0.950 . S
C3088 C3087 1.334 . S
C3088 C3089 1.287 . S
C3089 C3088 1.287 . S
C3089 C3090 1.524 . S
C3089 H3092 0.999 . S
C3090 H3060 0.950 . S
C3090 C3089 1.524 . S
C3090 C3091 1.415 . S
C3091 H3061 0.950 . S
C3091 C3086 1.363 . S
C3091 C3090 1.415 . S
H3092 C3089 0.999 . S
H3093 C3074 0.913 . S
H3094 C3112 0.951 . S
H3095 C3114 0.951 . S
H3096 C3116 0.950 . S
H3097 C3117 0.950 . S
H3098 C3119 0.950 . S
H3099 C3122 0.950 . S
H3100 C3123 0.950 . S
H3101 C3125 0.950 . S
H3102 C3126 0.950 . S
H3103 C3127 0.951 . S
H3104 C3129 0.951 . S
H3105 C3131 0.950 . S
H3106 C3132 0.950 . S
H3107 C3134 0.950 . S
H3108 C3137 0.950 . S
H3109 C3138 0.950 . S
H3110 C3140 0.950 . S
H3111 C3141 0.950 . S
C3112 H3094 0.951 . S
C3112 C3113 1.366 . S
C3112 C3114 1.388 1_556 S
C3113 C3112 1.366 . S
C3113 C3117 1.385 1_556 S
C3114 H3095 0.951 . S
C3114 C3112 1.388 1_554 S
C3114 C3115 1.366 . S
C3115 C3114 1.366 . S
C3115 C3116 1.414 . S
C3115 C3118 1.499 . S
C3116 H3096 0.950 . S
C3116 C3115 1.414 . S
C3116 C3117 1.374 . S
C3117 H3097 0.950 . S
C3117 C3113 1.385 1_554 S
C3117 C3116 1.374 . S
C3118 C3115 1.499 . S
C3118 C3119 1.373 . S
C3118 C3120 1.389 . S
C3119 H3098 0.950 . S
C3119 C3118 1.373 . S
C3119 C3135 1.377 . S
C3120 C3118 1.389 . S
C3120 C3121 1.524 . S
C3120 C3134 1.377 . S
C3121 C3120 1.524 . S
C3121 C3122 1.397 . S
C3121 C3126 1.363 . S
C3122 H3099 0.950 . S
C3122 C3121 1.397 . S
C3122 C3123 1.334 . S
C3123 H3100 0.950 . S
C3123 C3122 1.334 . S
C3123 C3124 1.287 . S
C3124 C3123 1.287 . S
C3124 C3125 1.524 . S
C3124 H3143 0.913 . S
C3125 H3101 0.950 . S
C3125 C3124 1.524 . S
C3125 C3126 1.415 . S
C3126 H3102 0.950 . S
C3126 C3121 1.363 . S
C3126 C3125 1.415 . S
C3127 H3103 0.951 . S
C3127 C3128 1.366 . S
C3127 C3129 1.388 . S
C3128 C3127 1.366 . S
C3128 C3132 1.385 . S
C3129 H3104 0.951 . S
C3129 C3127 1.388 . S
C3129 C3130 1.366 . S
C3130 C3129 1.366 . S
C3130 C3131 1.414 . S
C3130 C3133 1.499 . S
C3131 H3105 0.950 . S
C3131 C3130 1.414 . S
C3131 C3132 1.374 . S
C3132 H3106 0.950 . S
C3132 C3128 1.385 . S
C3132 C3131 1.374 . S
C3133 C3130 1.499 . S
C3133 C3134 1.373 . S
C3133 C3135 1.389 . S
C3134 H3107 0.950 . S
C3134 C3120 1.377 . S
C3134 C3133 1.373 . S
C3135 C3119 1.377 . S
C3135 C3133 1.389 . S
C3135 C3136 1.524 . S
C3136 C3135 1.524 . S
C3136 C3137 1.397 . S
C3136 C3141 1.363 . S
C3137 H3108 0.950 . S
C3137 C3136 1.397 . S
C3137 C3138 1.334 . S
C3138 H3109 0.950 . S
C3138 C3137 1.334 . S
C3138 C3139 1.287 . S
C3139 C3138 1.287 . S
C3139 C3140 1.524 . S
C3139 H3142 0.999 . S
C3140 H3110 0.950 . S
C3140 C3139 1.524 . S
C3140 C3141 1.415 . S
C3141 H3111 0.950 . S
C3141 C3136 1.363 . S
C3141 C3140 1.415 . S
H3142 C3139 0.999 . S
H3143 C3124 0.913 . S
H3144 C3162 0.951 . S
H3145 C3164 0.951 . S
H3146 C3166 0.950 . S
H3147 C3167 0.950 . S
H3148 C3169 0.950 . S
H3149 C3172 0.950 . S
H3150 C3173 0.950 . S
H3151 C3175 0.945 1_455 S
H3152 C3176 0.941 1_455 S
H3153 C3177 0.951 . S
H3154 C3179 0.951 . S
H3155 C3181 0.950 . S
H3156 C3182 0.950 . S
H3157 C3184 0.950 . S
H3158 C3187 0.950 . S
H3159 C3188 0.950 . S
H3160 C3190 0.950 . S
H3161 C3191 0.950 . S
C3162 H3144 0.951 . S
C3162 C3163 1.366 . S
C3162 C3164 1.388 . S
C3163 C3162 1.366 . S
C3163 C3167 1.385 . S
C3164 H3145 0.951 . S
C3164 C3162 1.388 . S
C3164 C3165 1.366 . S
C3165 C3164 1.366 . S
C3165 C3166 1.414 . S
C3165 C3168 1.499 . S
C3166 H3146 0.950 . S
C3166 C3165 1.414 . S
C3166 C3167 1.374 . S
C3167 H3147 0.950 . S
C3167 C3163 1.385 . S
C3167 C3166 1.374 . S
C3168 C3165 1.499 . S
C3168 C3169 1.373 . S
C3168 C3170 1.389 1_455 S
C3169 H3148 0.950 . S
C3169 C3168 1.373 . S
C3169 C3185 1.377 1_455 S
C3170 C3168 1.389 1_655 S
C3170 C3171 1.524 . S
C3170 C3184 1.377 . S
C3171 C3170 1.524 . S
C3171 C3172 1.397 . S
C3171 C3176 1.369 . S
C3172 H3149 0.950 . S
C3172 C3171 1.397 . S
C3172 C3173 1.334 . S
C3173 H3150 0.950 . S
C3173 C3172 1.334 . S
C3173 C3174 1.287 . S
C3174 C3173 1.287 . S
C3174 C3175 1.524 . S
C3174 H3193 0.913 . S
C3175 H3151 0.945 1_655 S
C3175 C3174 1.524 . S
C3175 C3176 1.418 . S
C3176 H3152 0.941 1_655 S
C3176 C3171 1.369 . S
C3176 C3175 1.418 . S
C3177 H3153 0.951 . S
C3177 C3178 1.366 . S
C3177 C3179 1.388 . S
C3178 C3177 1.366 . S
C3178 C3182 1.385 . S
C3179 H3154 0.951 . S
C3179 C3177 1.388 . S
C3179 C3180 1.366 . S
C3180 C3179 1.366 . S
C3180 C3181 1.414 . S
C3180 C3183 1.499 . S
C3181 H3155 0.950 . S
C3181 C3180 1.414 . S
C3181 C3182 1.374 . S
C3182 H3156 0.950 . S
C3182 C3178 1.385 . S
C3182 C3181 1.374 . S
C3183 C3180 1.499 . S
C3183 C3184 1.373 . S
C3183 C3185 1.389 . S
C3184 H3157 0.950 . S
C3184 C3170 1.377 . S
C3184 C3183 1.373 . S
C3185 C3169 1.377 1_655 S
C3185 C3183 1.389 . S
C3185 C3186 1.524 . S
C3186 C3185 1.524 . S
C3186 C3187 1.397 1_655 S
C3186 C3191 1.363 . S
C3187 H3158 0.950 . S
C3187 C3186 1.397 1_455 S
C3187 C3188 1.334 . S
C3188 H3159 0.950 . S
C3188 C3187 1.334 . S
C3188 C3189 1.287 . S
C3189 C3188 1.287 . S
C3189 C3190 1.524 1_455 S
C3189 H3192 0.999 . S
C3190 H3160 0.950 . S
C3190 C3189 1.524 1_655 S
C3190 C3191 1.415 . S
C3191 H3161 0.950 . S
C3191 C3186 1.363 . S
C3191 C3190 1.415 . S
H3192 C3189 0.999 . S
H3193 C3174 0.913 . S
H3194 C3212 0.951 . S
H3195 C3214 0.951 . S
H3196 C3216 0.950 . S
H3197 C3217 0.950 . S
H3198 C3219 0.950 . S
H3199 C3222 0.950 . S
H3200 C3223 0.950 . S
H3201 C3225 0.950 . S
H3202 C3226 0.950 . S
H3203 C3227 0.951 . S
H3204 C3229 0.951 . S
H3205 C3231 0.950 . S
H3206 C3232 0.950 . S
H3207 C3234 0.950 . S
H3208 C3237 0.950 . S
H3209 C3238 0.950 . S
H3210 C3240 0.950 . S
H3211 C3241 0.950 . S
C3212 H3194 0.951 . S
C3212 C3213 1.366 . S
C3212 C3214 1.388 . S
C3213 C3212 1.366 . S
C3213 C3217 1.385 . S
C3214 H3195 0.951 . S
C3214 C3212 1.388 . S
C3214 C3215 1.366 . S
C3215 C3214 1.366 . S
C3215 C3216 1.414 . S
C3215 C3218 1.499 . S
C3216 H3196 0.950 . S
C3216 C3215 1.414 . S
C3216 C3217 1.374 . S
C3217 H3197 0.950 . S
C3217 C3213 1.385 . S
C3217 C3216 1.374 . S
C3218 C3215 1.499 . S
C3218 C3219 1.373 . S
C3218 C3220 1.389 . S
C3219 H3198 0.950 . S
C3219 C3218 1.373 . S
C3219 C3235 1.377 . S
C3220 C3218 1.389 . S
C3220 C3221 1.524 . S
C3220 C3234 1.377 . S
C3221 C3220 1.524 . S
C3221 C3222 1.397 . S
C3221 C3226 1.363 . S
C3222 H3199 0.950 . S
C3222 C3221 1.397 . S
C3222 C3223 1.334 . S
C3223 H3200 0.950 . S
C3223 C3222 1.334 . S
C3223 C3224 1.287 . S
C3224 C3223 1.287 . S
C3224 C3225 1.524 . S
C3224 H3243 0.913 . S
C3225 H3201 0.950 . S
C3225 C3224 1.524 . S
C3225 C3226 1.415 . S
C3226 H3202 0.950 . S
C3226 C3221 1.363 . S
C3226 C3225 1.415 . S
C3227 H3203 0.951 . S
C3227 C3228 1.366 . S
C3227 C3229 1.388 . S
C3228 C3227 1.366 . S
C3228 C3232 1.385 . S
C3229 H3204 0.951 . S
C3229 C3227 1.388 . S
C3229 C3230 1.366 . S
C3230 C3229 1.366 . S
C3230 C3231 1.414 . S
C3230 C3233 1.499 . S
C3231 H3205 0.950 . S
C3231 C3230 1.414 . S
C3231 C3232 1.374 . S
C3232 H3206 0.950 . S
C3232 C3228 1.385 . S
C3232 C3231 1.374 . S
C3233 C3230 1.499 . S
C3233 C3234 1.373 . S
C3233 C3235 1.389 . S
C3234 H3207 0.950 . S
C3234 C3220 1.377 . S
C3234 C3233 1.373 . S
C3235 C3219 1.377 . S
C3235 C3233 1.389 . S
C3235 C3236 1.524 . S
C3236 C3235 1.524 . S
C3236 C3237 1.397 . S
C3236 C3241 1.363 . S
C3237 H3208 0.950 . S
C3237 C3236 1.397 . S
C3237 C3238 1.334 . S
C3238 H3209 0.950 . S
C3238 C3237 1.334 . S
C3238 C3239 1.287 . S
C3239 C3238 1.287 . S
C3239 C3240 1.524 . S
C3239 H3242 0.999 . S
C3240 H3210 0.950 . S
C3240 C3239 1.524 . S
C3240 C3241 1.415 . S
C3241 H3211 0.950 . S
C3241 C3236 1.363 . S
C3241 C3240 1.415 . S
H3242 C3239 0.999 . S
H3243 C3224 0.913 . S
H3244 C3262 0.951 . S
H3245 C3264 0.951 . S
H3246 C3266 0.950 . S
H3247 C3267 0.950 . S
H3248 C3269 0.950 . S
H3249 C3272 0.950 . S
H3250 C3273 0.950 . S
H3251 C3275 0.950 . S
H3252 C3276 0.950 . S
H3253 C3277 0.951 . S
H3254 C3279 0.951 . S
H3255 C3281 0.950 . S
H3256 C3282 0.950 . S
H3257 C3284 0.950 . S
H3258 C3287 0.950 . S
H3259 C3288 0.950 . S
H3260 C3290 0.950 . S
H3261 C3291 0.950 . S
C3262 H3244 0.951 . S
C3262 C3263 1.366 . S
C3262 C3264 1.388 . S
C3263 C3262 1.366 . S
C3263 C3267 1.385 . S
C3264 H3245 0.951 . S
C3264 C3262 1.388 . S
C3264 C3265 1.366 . S
C3265 C3264 1.366 . S
C3265 C3266 1.414 . S
C3265 C3268 1.499 . S
C3266 H3246 0.950 . S
C3266 C3265 1.414 . S
C3266 C3267 1.374 . S
C3267 H3247 0.950 . S
C3267 C3263 1.385 . S
C3267 C3266 1.374 . S
C3268 C3265 1.499 . S
C3268 C3269 1.373 . S
C3268 C3270 1.389 . S
C3269 H3248 0.950 . S
C3269 C3268 1.373 . S
C3269 C3285 1.377 . S
C3270 C3268 1.389 . S
C3270 C3271 1.524 . S
C3270 C3284 1.377 . S
C3271 C3270 1.524 . S
C3271 C3272 1.397 . S
C3271 C3276 1.363 . S
C3272 H3249 0.950 . S
C3272 C3271 1.397 . S
C3272 C3273 1.334 . S
C3273 H3250 0.950 . S
C3273 C3272 1.334 . S
C3273 C3274 1.287 . S
C3274 C3273 1.287 . S
C3274 C3275 1.524 . S
C3274 H3293 0.913 . S
C3275 H3251 0.950 . S
C3275 C3274 1.524 . S
C3275 C3276 1.415 . S
C3276 H3252 0.950 . S
C3276 C3271 1.363 . S
C3276 C3275 1.415 . S
C3277 H3253 0.951 . S
C3277 C3278 1.366 . S
C3277 C3279 1.388 . S
C3278 C3277 1.366 . S
C3278 C3282 1.385 . S
C3279 H3254 0.951 . S
C3279 C3277 1.388 . S
C3279 C3280 1.366 . S
C3280 C3279 1.366 . S
C3280 C3281 1.414 . S
C3280 C3283 1.499 . S
C3281 H3255 0.950 . S
C3281 C3280 1.414 . S
C3281 C3282 1.374 . S
C3282 H3256 0.950 . S
C3282 C3278 1.385 . S
C3282 C3281 1.374 . S
C3283 C3280 1.499 . S
C3283 C3284 1.373 . S
C3283 C3285 1.389 . S
C3284 H3257 0.950 . S
C3284 C3270 1.377 . S
C3284 C3283 1.373 . S
C3285 C3269 1.377 . S
C3285 C3283 1.389 . S
C3285 C3286 1.524 . S
C3286 C3285 1.524 . S
C3286 C3287 1.397 . S
C3286 C3291 1.363 . S
C3287 H3258 0.950 . S
C3287 C3286 1.397 . S
C3287 C3288 1.334 . S
C3288 H3259 0.950 . S
C3288 C3287 1.334 . S
C3288 C3289 1.287 . S
C3289 C3288 1.287 . S
C3289 C3290 1.524 . S
C3289 H3292 0.999 . S
C3290 H3260 0.950 . S
C3290 C3289 1.524 . S
C3290 C3291 1.415 . S
C3291 H3261 0.950 . S
C3291 C3286 1.363 . S
C3291 C3290 1.415 . S
H3292 C3289 0.999 . S
H3293 C3274 0.913 . S
H3294 C3312 0.951 . S
H3295 C3314 0.951 . S
H3296 C3316 0.950 . S
H3297 C3317 0.950 . S
H3298 C3319 0.950 . S
H3299 C3322 0.950 . S
H3300 C3323 0.950 . S
H3301 C3325 0.950 . S
H3302 C3326 0.950 . S
H3303 C3327 0.951 . S
H3304 C3329 0.951 . S
H3305 C3331 0.950 . S
H3306 C3332 0.950 . S
H3307 C3334 0.950 . S
H3308 C3337 0.950 . S
H3309 C3338 0.950 . S
H3310 C3340 0.950 . S
H3311 C3341 0.950 . S
C3312 H3294 0.951 . S
C3312 C3313 1.366 . S
C3312 C3314 1.388 1_554 S
C3313 C3312 1.366 . S
C3313 C3317 1.385 1_554 S
C3314 H3295 0.951 . S
C3314 C3312 1.388 1_556 S
C3314 C3315 1.366 . S
C3315 C3314 1.366 . S
C3315 C3316 1.414 . S
C3315 C3318 1.499 . S
C3316 H3296 0.950 . S
C3316 C3315 1.414 . S
C3316 C3317 1.374 . S
C3317 H3297 0.950 . S
C3317 C3313 1.385 1_556 S
C3317 C3316 1.374 . S
C3318 C3315 1.499 . S
C3318 C3319 1.373 . S
C3318 C3320 1.389 . S
C3319 H3298 0.950 . S
C3319 C3318 1.373 . S
C3319 C3335 1.377 . S
C3320 C3318 1.389 . S
C3320 C3321 1.524 . S
C3320 C3334 1.377 . S
C3321 C3320 1.524 . S
C3321 C3322 1.397 . S
C3321 C3326 1.363 . S
C3322 H3299 0.950 . S
C3322 C3321 1.397 . S
C3322 C3323 1.334 . S
C3323 H3300 0.950 . S
C3323 C3322 1.334 . S
C3323 C3324 1.287 . S
C3324 C3323 1.287 . S
C3324 C3325 1.524 . S
C3324 H3343 0.913 1_556 S
C3325 H3301 0.950 . S
C3325 C3324 1.524 . S
C3325 C3326 1.415 . S
C3326 H3302 0.950 . S
C3326 C3321 1.363 . S
C3326 C3325 1.415 . S
C3327 H3303 0.951 . S
C3327 C3328 1.366 . S
C3327 C3329 1.388 . S
C3328 C3327 1.366 . S
C3328 C3332 1.385 . S
C3329 H3304 0.951 . S
C3329 C3327 1.388 . S
C3329 C3330 1.366 . S
C3330 C3329 1.366 . S
C3330 C3331 1.414 . S
C3330 C3333 1.499 . S
C3331 H3305 0.950 . S
C3331 C3330 1.414 . S
C3331 C3332 1.374 . S
C3332 H3306 0.950 . S
C3332 C3328 1.385 . S
C3332 C3331 1.374 . S
C3333 C3330 1.499 . S
C3333 C3334 1.373 . S
C3333 C3335 1.389 . S
C3334 H3307 0.950 . S
C3334 C3320 1.377 . S
C3334 C3333 1.373 . S
C3335 C3319 1.377 . S
C3335 C3333 1.389 . S
C3335 C3336 1.524 . S
C3336 C3335 1.524 . S
C3336 C3337 1.397 . S
C3336 C3341 1.363 . S
C3337 H3308 0.950 . S
C3337 C3336 1.397 . S
C3337 C3338 1.334 . S
C3338 H3309 0.950 . S
C3338 C3337 1.334 . S
C3338 C3339 1.287 . S
C3339 C3338 1.287 . S
C3339 C3340 1.524 . S
C3339 H3342 0.999 . S
C3340 H3310 0.950 . S
C3340 C3339 1.524 . S
C3340 C3341 1.415 . S
C3341 H3311 0.950 . S
C3341 C3336 1.363 . S
C3341 C3340 1.415 . S
H3342 C3339 0.999 . S
H3343 C3324 0.913 1_554 S
H3344 C3362 0.951 . S
H3345 C3364 0.951 . S
H3346 C3366 0.950 . S
H3347 C3367 0.950 . S
H3348 C3369 0.950 . S
H3349 C3372 0.950 . S
H3350 C3373 0.950 . S
H3351 C3375 0.950 . S
H3352 C3376 0.950 . S
H3353 C3377 0.951 . S
H3354 C3379 0.951 . S
H3355 C3381 0.950 . S
H3356 C3382 0.950 . S
H3357 C3384 0.950 . S
H3358 C3387 0.950 . S
H3359 C3388 0.950 . S
H3360 C3390 0.950 . S
H3361 C3391 0.950 . S
C3362 H3344 0.951 . S
C3362 C3363 1.366 . S
C3362 C3364 1.388 . S
C3363 C3362 1.366 . S
C3363 C3367 1.385 . S
C3364 H3345 0.951 . S
C3364 C3362 1.388 . S
C3364 C3365 1.366 . S
C3365 C3364 1.366 . S
C3365 C3366 1.414 . S
C3365 C3368 1.499 . S
C3366 H3346 0.950 . S
C3366 C3365 1.414 . S
C3366 C3367 1.374 . S
C3367 H3347 0.950 . S
C3367 C3363 1.385 . S
C3367 C3366 1.374 . S
C3368 C3365 1.499 . S
C3368 C3369 1.373 . S
C3368 C3370 1.389 . S
C3369 H3348 0.950 . S
C3369 C3368 1.373 . S
C3369 C3385 1.377 . S
C3370 C3368 1.389 . S
C3370 C3371 1.524 . S
C3370 C3384 1.377 . S
C3371 C3370 1.524 . S
C3371 C3372 1.397 . S
C3371 C3376 1.363 . S
C3372 H3349 0.950 . S
C3372 C3371 1.397 . S
C3372 C3373 1.334 . S
C3373 H3350 0.950 . S
C3373 C3372 1.334 . S
C3373 C3374 1.287 . S
C3374 C3373 1.287 . S
C3374 C3375 1.524 . S
C3374 H3393 0.913 . S
C3375 H3351 0.950 . S
C3375 C3374 1.524 . S
C3375 C3376 1.415 . S
C3376 H3352 0.950 . S
C3376 C3371 1.363 . S
C3376 C3375 1.415 . S
C3377 H3353 0.951 . S
C3377 C3378 1.366 . S
C3377 C3379 1.388 . S
C3378 C3377 1.366 . S
C3378 C3382 1.385 . S
C3379 H3354 0.951 . S
C3379 C3377 1.388 . S
C3379 C3380 1.366 . S
C3380 C3379 1.366 . S
C3380 C3381 1.414 . S
C3380 C3383 1.499 . S
C3381 H3355 0.950 . S
C3381 C3380 1.414 . S
C3381 C3382 1.374 . S
C3382 H3356 0.950 . S
C3382 C3378 1.385 . S
C3382 C3381 1.374 . S
C3383 C3380 1.499 . S
C3383 C3384 1.373 . S
C3383 C3385 1.389 . S
C3384 H3357 0.950 . S
C3384 C3370 1.377 . S
C3384 C3383 1.373 . S
C3385 C3369 1.377 . S
C3385 C3383 1.389 . S
C3385 C3386 1.524 . S
C3386 C3385 1.524 . S
C3386 C3387 1.397 . S
C3386 C3391 1.363 . S
C3387 H3358 0.950 . S
C3387 C3386 1.397 . S
C3387 C3388 1.334 . S
C3388 H3359 0.950 . S
C3388 C3387 1.334 . S
C3388 C3389 1.287 . S
C3389 C3388 1.287 . S
C3389 C3390 1.524 . S
C3389 H3392 0.999 . S
C3390 H3360 0.950 . S
C3390 C3389 1.524 . S
C3390 C3391 1.415 . S
C3391 H3361 0.950 . S
C3391 C3386 1.363 . S
C3391 C3390 1.415 . S
H3392 C3389 0.999 . S
H3393 C3374 0.913 . S
H3394 C3412 0.951 . S
H3395 C3414 0.951 . S
H3396 C3416 0.950 . S
H3397 C3417 0.950 . S
H3398 C3419 0.950 . S
H3399 C3422 0.950 . S
H3400 C3423 0.950 . S
H3401 C3425 0.950 . S
H3402 C3426 0.950 . S
H3403 C3427 0.951 . S
H3404 C3429 0.951 . S
H3405 C3431 0.950 . S
H3406 C3432 0.950 . S
H3407 C3434 0.950 . S
H3408 C3437 0.950 . S
H3409 C3438 0.950 . S
H3410 C3440 0.950 . S
H3411 C3441 0.950 . S
C3412 H3394 0.951 . S
C3412 C3413 1.366 . S
C3412 C3414 1.388 . S
C3413 C3412 1.366 . S
C3413 C3417 1.385 . S
C3414 H3395 0.951 . S
C3414 C3412 1.388 . S
C3414 C3415 1.366 . S
C3415 C3414 1.366 . S
C3415 C3416 1.414 . S
C3415 C3418 1.499 . S
C3416 H3396 0.950 . S
C3416 C3415 1.414 . S
C3416 C3417 1.374 . S
C3417 H3397 0.950 . S
C3417 C3413 1.385 . S
C3417 C3416 1.374 . S
C3418 C3415 1.499 . S
C3418 C3419 1.373 . S
C3418 C3420 1.389 . S
C3419 H3398 0.950 . S
C3419 C3418 1.373 . S
C3419 C3435 1.377 . S
C3420 C3418 1.389 . S
C3420 C3421 1.524 . S
C3420 C3434 1.377 . S
C3421 C3420 1.524 . S
C3421 C3422 1.397 . S
C3421 C3426 1.363 . S
C3422 H3399 0.950 . S
C3422 C3421 1.397 . S
C3422 C3423 1.334 . S
C3423 H3400 0.950 . S
C3423 C3422 1.334 . S
C3423 C3424 1.287 . S
C3424 C3423 1.287 . S
C3424 C3425 1.524 . S
C3424 H3443 0.913 . S
C3425 H3401 0.950 . S
C3425 C3424 1.524 . S
C3425 C3426 1.415 . S
C3426 H3402 0.950 . S
C3426 C3421 1.363 . S
C3426 C3425 1.415 . S
C3427 H3403 0.951 . S
C3427 C3428 1.366 . S
C3427 C3429 1.388 . S
C3428 C3427 1.366 . S
C3428 C3432 1.385 . S
C3429 H3404 0.951 . S
C3429 C3427 1.388 . S
C3429 C3430 1.366 . S
C3430 C3429 1.366 . S
C3430 C3431 1.414 . S
C3430 C3433 1.499 . S
C3431 H3405 0.950 . S
C3431 C3430 1.414 . S
C3431 C3432 1.374 . S
C3432 H3406 0.950 . S
C3432 C3428 1.385 . S
C3432 C3431 1.374 . S
C3433 C3430 1.499 . S
C3433 C3434 1.373 . S
C3433 C3435 1.389 . S
C3434 H3407 0.950 . S
C3434 C3420 1.377 . S
C3434 C3433 1.373 . S
C3435 C3419 1.377 . S
C3435 C3433 1.389 . S
C3435 C3436 1.524 . S
C3436 C3435 1.524 . S
C3436 C3437 1.397 . S
C3436 C3441 1.363 . S
C3437 H3408 0.950 . S
C3437 C3436 1.397 . S
C3437 C3438 1.334 . S
C3438 H3409 0.950 . S
C3438 C3437 1.334 . S
C3438 C3439 1.287 . S
C3439 C3438 1.287 . S
C3439 C3440 1.524 . S
C3439 H3442 0.999 . S
C3440 H3410 0.950 . S
C3440 C3439 1.524 . S
C3440 C3441 1.415 . S
C3441 H3411 0.950 . S
C3441 C3436 1.363 . S
C3441 C3440 1.415 . S
H3442 C3439 0.999 . S
H3443 C3424 0.913 . S
H3444 C3462 0.951 . S
H3445 C3464 0.951 . S
H3446 C3466 0.950 . S
H3447 C3467 0.950 . S
H3448 C3469 0.950 . S
H3449 C3472 0.950 . S
H3450 C3473 0.950 . S
H3451 C3475 0.950 . S
H3452 C3476 0.950 . S
H3453 C3477 0.951 . S
H3454 C3479 0.951 . S
H3455 C3481 0.950 . S
H3456 C3482 0.950 . S
H3457 C3484 0.950 . S
H3458 C3487 0.950 . S
H3459 C3488 0.950 . S
H3460 C3490 0.950 . S
H3461 C3491 0.950 . S
C3462 H3444 0.951 . S
C3462 C3463 1.366 . S
C3462 C3464 1.388 . S
C3463 C3462 1.366 . S
C3463 C3467 1.385 . S
C3464 H3445 0.951 . S
C3464 C3462 1.388 . S
C3464 C3465 1.366 . S
C3465 C3464 1.366 . S
C3465 C3466 1.414 . S
C3465 C3468 1.499 . S
C3466 H3446 0.950 . S
C3466 C3465 1.414 . S
C3466 C3467 1.374 . S
C3467 H3447 0.950 . S
C3467 C3463 1.385 . S
C3467 C3466 1.374 . S
C3468 C3465 1.499 . S
C3468 C3469 1.373 . S
C3468 C3470 1.389 . S
C3469 H3448 0.950 . S
C3469 C3468 1.373 . S
C3469 C3485 1.377 . S
C3470 C3468 1.389 . S
C3470 C3471 1.524 . S
C3470 C3484 1.377 . S
C3471 C3470 1.524 . S
C3471 C3472 1.397 . S
C3471 C3476 1.363 . S
C3472 H3449 0.950 . S
C3472 C3471 1.397 . S
C3472 C3473 1.334 . S
C3473 H3450 0.950 . S
C3473 C3472 1.334 . S
C3473 C3474 1.287 . S
C3474 C3473 1.287 . S
C3474 C3475 1.524 . S
C3474 H3493 0.913 . S
C3475 H3451 0.950 . S
C3475 C3474 1.524 . S
C3475 C3476 1.415 . S
C3476 H3452 0.950 . S
C3476 C3471 1.363 . S
C3476 C3475 1.415 . S
C3477 H3453 0.951 . S
C3477 C3478 1.366 . S
C3477 C3479 1.388 . S
C3478 C3477 1.366 . S
C3478 C3482 1.385 . S
C3479 H3454 0.951 . S
C3479 C3477 1.388 . S
C3479 C3480 1.366 . S
C3480 C3479 1.366 . S
C3480 C3481 1.414 . S
C3480 C3483 1.499 . S
C3481 H3455 0.950 . S
C3481 C3480 1.414 . S
C3481 C3482 1.374 . S
C3482 H3456 0.950 . S
C3482 C3478 1.385 . S
C3482 C3481 1.374 . S
C3483 C3480 1.499 . S
C3483 C3484 1.373 . S
C3483 C3485 1.389 . S
C3484 H3457 0.950 . S
C3484 C3470 1.377 . S
C3484 C3483 1.373 . S
C3485 C3469 1.377 . S
C3485 C3483 1.389 . S
C3485 C3486 1.524 . S
C3486 C3485 1.524 . S
C3486 C3487 1.397 . S
C3486 C3491 1.363 . S
C3487 H3458 0.950 . S
C3487 C3486 1.397 . S
C3487 C3488 1.334 . S
C3488 H3459 0.950 . S
C3488 C3487 1.334 . S
C3488 C3489 1.287 . S
C3489 C3488 1.287 . S
C3489 C3490 1.524 . S
C3489 H3492 0.999 . S
C3490 H3460 0.950 . S
C3490 C3489 1.524 . S
C3490 C3491 1.415 . S
C3491 H3461 0.950 . S
C3491 C3486 1.363 . S
C3491 C3490 1.415 . S
H3492 C3489 0.999 . S
H3493 C3474 0.913 . S
H3494 C3512 0.951 . S
H3495 C3514 0.951 . S
H3496 C3516 0.950 . S
H3497 C3517 0.950 . S
H3498 C3519 0.950 . S
H3499 C3522 0.940 1_556 S
H3500 C3523 0.950 . S
H3501 C3525 0.950 . S
H3502 C3526 0.950 . S
H3503 C3527 0.951 . S
H3504 C3529 0.951 . S
H3505 C3531 0.950 . S
H3506 C3532 0.950 . S
H3507 C3534 0.950 . S
H3508 C3537 0.940 1_554 S
H3509 C3538 0.950 . S
H3510 C3540 0.950 . S
H3511 C3541 0.950 . S
C3512 H3494 0.951 . S
C3512 C3513 1.366 . S
C3512 C3514 1.388 . S
C3513 C3512 1.366 . S
C3513 C3517 1.385 . S
C3514 H3495 0.951 . S
C3514 C3512 1.388 . S
C3514 C3515 1.366 . S
C3515 C3514 1.366 . S
C3515 C3516 1.414 . S
C3515 C3518 1.499 . S
C3516 H3496 0.950 . S
C3516 C3515 1.414 . S
C3516 C3517 1.374 . S
C3517 H3497 0.950 . S
C3517 C3513 1.385 . S
C3517 C3516 1.374 . S
C3518 C3515 1.499 . S
C3518 C3519 1.373 1_455 S
C3518 C3520 1.389 . S
C3519 H3498 0.950 . S
C3519 C3518 1.373 1_655 S
C3519 C3535 1.377 1_554 S
C3520 C3518 1.389 . S
C3520 C3521 1.524 . S
C3520 C3534 1.377 1_554 S
C3521 C3520 1.524 . S
C3521 C3522 1.397 . S
C3521 C3526 1.363 . S
C3522 H3499 0.940 1_554 S
C3522 C3521 1.397 . S
C3522 C3523 1.334 . S
C3523 H3500 0.950 . S
C3523 C3522 1.334 . S
C3523 C3524 1.287 . S
C3524 C3523 1.287 . S
C3524 C3525 1.524 . S
C3524 H3543 0.913 . S
C3525 H3501 0.950 . S
C3525 C3524 1.524 . S
C3525 C3526 1.415 . S
C3526 H3502 0.950 . S
C3526 C3521 1.363 . S
C3526 C3525 1.415 . S
C3527 H3503 0.951 . S
C3527 C3528 1.366 . S
C3527 C3529 1.388 . S
C3528 C3527 1.366 . S
C3528 C3532 1.385 . S
C3529 H3504 0.951 . S
C3529 C3527 1.388 . S
C3529 C3530 1.366 . S
C3530 C3529 1.366 . S
C3530 C3531 1.414 . S
C3530 C3533 1.499 . S
C3531 H3505 0.950 . S
C3531 C3530 1.414 . S
C3531 C3532 1.374 . S
C3532 H3506 0.950 . S
C3532 C3528 1.385 . S
C3532 C3531 1.374 . S
C3533 C3530 1.499 . S
C3533 C3534 1.373 1_655 S
C3533 C3535 1.389 . S
C3534 H3507 0.950 . S
C3534 C3520 1.377 1_556 S
C3534 C3533 1.373 1_455 S
C3535 C3519 1.377 1_556 S
C3535 C3533 1.389 . S
C3535 C3536 1.524 . S
C3536 C3535 1.524 . S
C3536 C3537 1.397 . S
C3536 C3541 1.363 . S
C3537 H3508 0.940 1_556 S
C3537 C3536 1.397 . S
C3537 C3538 1.334 . S
C3538 H3509 0.950 . S
C3538 C3537 1.334 . S
C3538 C3539 1.287 . S
C3539 C3538 1.287 . S
C3539 C3540 1.524 . S
C3539 H3542 0.999 . S
C3540 H3510 0.950 . S
C3540 C3539 1.524 . S
C3540 C3541 1.415 . S
C3541 H3511 0.950 . S
C3541 C3536 1.363 . S
C3541 C3540 1.415 . S
H3542 C3539 0.999 . S
H3543 C3524 0.913 . S
H3544 C3562 0.951 . S
H3545 C3564 0.951 . S
H3546 C3566 0.950 . S
H3547 C3567 0.950 . S
H3548 C3569 0.950 . S
H3549 C3572 0.950 . S
H3550 C3573 0.950 . S
H3551 C3575 0.950 . S
H3552 C3576 0.950 . S
H3553 C3577 0.951 . S
H3554 C3579 0.951 . S
H3555 C3581 0.950 . S
H3556 C3582 0.950 . S
H3557 C3584 0.950 . S
H3558 C3587 0.950 . S
H3559 C3588 0.950 . S
H3560 C3590 0.950 . S
H3561 C3591 0.950 . S
C3562 H3544 0.951 . S
C3562 C3563 1.366 . S
C3562 C3564 1.388 . S
C3563 C3562 1.366 . S
C3563 C3567 1.385 . S
C3564 H3545 0.951 . S
C3564 C3562 1.388 . S
C3564 C3565 1.366 . S
C3565 C3564 1.366 . S
C3565 C3566 1.414 . S
C3565 C3568 1.499 . S
C3566 H3546 0.950 . S
C3566 C3565 1.414 . S
C3566 C3567 1.374 . S
C3567 H3547 0.950 . S
C3567 C3563 1.385 . S
C3567 C3566 1.374 . S
C3568 C3565 1.499 . S
C3568 C3569 1.373 . S
C3568 C3570 1.389 . S
C3569 H3548 0.950 . S
C3569 C3568 1.373 . S
C3569 C3585 1.377 . S
C3570 C3568 1.389 . S
C3570 C3571 1.524 . S
C3570 C3584 1.377 . S
C3571 C3570 1.524 . S
C3571 C3572 1.397 . S
C3571 C3576 1.363 . S
C3572 H3549 0.950 . S
C3572 C3571 1.397 . S
C3572 C3573 1.334 . S
C3573 H3550 0.950 . S
C3573 C3572 1.334 . S
C3573 C3574 1.287 . S
C3574 C3573 1.287 . S
C3574 C3575 1.524 . S
C3574 H3593 0.913 . S
C3575 H3551 0.950 . S
C3575 C3574 1.524 . S
C3575 C3576 1.415 . S
C3576 H3552 0.950 . S
C3576 C3571 1.363 . S
C3576 C3575 1.415 . S
C3577 H3553 0.951 . S
C3577 C3578 1.366 . S
C3577 C3579 1.388 . S
C3578 C3577 1.366 . S
C3578 C3582 1.385 . S
C3579 H3554 0.951 . S
C3579 C3577 1.388 . S
C3579 C3580 1.366 . S
C3580 C3579 1.366 . S
C3580 C3581 1.414 . S
C3580 C3583 1.499 . S
C3581 H3555 0.950 . S
C3581 C3580 1.414 . S
C3581 C3582 1.374 . S
C3582 H3556 0.950 . S
C3582 C3578 1.385 . S
C3582 C3581 1.374 . S
C3583 C3580 1.499 . S
C3583 C3584 1.373 . S
C3583 C3585 1.389 . S
C3584 H3557 0.950 . S
C3584 C3570 1.377 . S
C3584 C3583 1.373 . S
C3585 C3569 1.377 . S
C3585 C3583 1.389 . S
C3585 C3586 1.524 . S
C3586 C3585 1.524 . S
C3586 C3587 1.397 . S
C3586 C3591 1.363 . S
C3587 H3558 0.950 . S
C3587 C3586 1.397 . S
C3587 C3588 1.334 . S
C3588 H3559 0.950 . S
C3588 C3587 1.334 . S
C3588 C3589 1.287 . S
C3589 C3588 1.287 . S
C3589 C3590 1.524 . S
C3589 H3592 0.999 . S
C3590 H3560 0.950 . S
C3590 C3589 1.524 . S
C3590 C3591 1.415 . S
C3591 H3561 0.950 . S
C3591 C3586 1.363 . S
C3591 C3590 1.415 . S
H3592 C3589 0.999 . S
H3593 C3574 0.913 . S
H3594 C3612 0.951 . S
H3595 C3614 0.951 . S
H3596 C3616 0.950 . S
H3597 C3617 0.950 . S
H3598 C3619 0.950 . S
H3599 C3622 0.950 . S
H3600 C3623 0.950 . S
H3601 C3625 0.950 . S
H3602 C3626 0.950 . S
H3603 C3627 0.951 . S
H3604 C3629 0.951 . S
H3605 C3631 0.950 . S
H3606 C3632 0.950 . S
H3607 C3634 0.950 . S
H3608 C3637 0.950 . S
H3609 C3638 0.950 . S
H3610 C3640 0.950 . S
H3611 C3641 0.950 . S
C3612 H3594 0.951 . S
C3612 C3613 1.366 . S
C3612 C3614 1.388 . S
C3613 C3612 1.366 . S
C3613 C3617 1.385 . S
C3614 H3595 0.951 . S
C3614 C3612 1.388 . S
C3614 C3615 1.366 . S
C3615 C3614 1.366 . S
C3615 C3616 1.414 . S
C3615 C3618 1.499 . S
C3616 H3596 0.950 . S
C3616 C3615 1.414 . S
C3616 C3617 1.374 . S
C3617 H3597 0.950 . S
C3617 C3613 1.385 . S
C3617 C3616 1.374 . S
C3618 C3615 1.499 . S
C3618 C3619 1.373 . S
C3618 C3620 1.389 . S
C3619 H3598 0.950 . S
C3619 C3618 1.373 . S
C3619 C3635 1.377 . S
C3620 C3618 1.389 . S
C3620 C3621 1.524 . S
C3620 C3634 1.377 . S
C3621 C3620 1.524 . S
C3621 C3622 1.397 . S
C3621 C3626 1.363 . S
C3622 H3599 0.950 . S
C3622 C3621 1.397 . S
C3622 C3623 1.334 . S
C3623 H3600 0.950 . S
C3623 C3622 1.334 . S
C3623 C3624 1.287 . S
C3624 C3623 1.287 . S
C3624 C3625 1.524 . S
C3624 H3643 0.913 . S
C3625 H3601 0.950 . S
C3625 C3624 1.524 . S
C3625 C3626 1.415 . S
C3626 H3602 0.950 . S
C3626 C3621 1.363 . S
C3626 C3625 1.415 . S
C3627 H3603 0.951 . S
C3627 C3628 1.366 . S
C3627 C3629 1.388 . S
C3628 C3627 1.366 . S
C3628 C3632 1.385 . S
C3629 H3604 0.951 . S
C3629 C3627 1.388 . S
C3629 C3630 1.366 . S
C3630 C3629 1.366 . S
C3630 C3631 1.414 . S
C3630 C3633 1.499 . S
C3631 H3605 0.950 . S
C3631 C3630 1.414 . S
C3631 C3632 1.374 . S
C3632 H3606 0.950 . S
C3632 C3628 1.385 . S
C3632 C3631 1.374 . S
C3633 C3630 1.499 . S
C3633 C3634 1.373 . S
C3633 C3635 1.389 . S
C3634 H3607 0.950 . S
C3634 C3620 1.377 . S
C3634 C3633 1.373 . S
C3635 C3619 1.377 . S
C3635 C3633 1.389 . S
C3635 C3636 1.524 . S
C3636 C3635 1.524 . S
C3636 C3637 1.397 . S
C3636 C3641 1.363 . S
C3637 H3608 0.950 . S
C3637 C3636 1.397 . S
C3637 C3638 1.334 . S
C3638 H3609 0.950 . S
C3638 C3637 1.334 . S
C3638 C3639 1.287 . S
C3639 C3638 1.287 . S
C3639 C3640 1.524 . S
C3639 H3642 0.999 . S
C3640 H3610 0.950 . S
C3640 C3639 1.524 . S
C3640 C3641 1.415 . S
C3641 H3611 0.950 . S
C3641 C3636 1.363 . S
C3641 C3640 1.415 . S
H3642 C3639 0.999 . S
H3643 C3624 0.913 . S
H3644 C3662 0.951 . S
H3645 C3664 0.951 . S
H3646 C3666 0.950 1_565 S
H3647 C3667 0.950 . S
H3648 C3669 0.950 . S
H3649 C3672 0.950 . S
H3650 C3673 0.950 . S
H3651 C3675 0.970 . S
H3652 C3676 0.950 1_655 S
H3653 C3677 0.951 . S
H3654 C3679 0.951 . S
H3655 C3681 0.950 1_545 S
H3656 C3682 0.950 . S
H3657 C3684 0.950 . S
H3658 C3687 0.950 . S
H3659 C3688 0.950 . S
H3660 C3690 0.970 . S
H3661 C3691 0.950 1_455 S
C3662 H3644 0.951 . S
C3662 C3663 1.366 . S
C3662 C3664 1.388 . S
C3663 C3662 1.366 . S
C3663 C3667 1.385 . S
C3664 H3645 0.951 . S
C3664 C3662 1.388 . S
C3664 C3665 1.366 . S
C3665 C3664 1.366 . S
C3665 C3666 1.414 . S
C3665 C3668 1.499 . S
C3666 H3646 0.950 1_545 S
C3666 C3665 1.414 . S
C3666 C3667 1.374 . S
C3667 H3647 0.950 . S
C3667 C3663 1.385 . S
C3667 C3666 1.374 . S
C3668 C3665 1.499 . S
C3668 C3669 1.373 1_545 S
C3668 C3670 1.389 1_556 S
C3669 H3648 0.950 . S
C3669 C3668 1.373 1_565 S
C3669 C3685 1.377 1_455 S
C3670 C3668 1.389 1_554 S
C3670 C3671 1.524 . S
C3670 C3684 1.377 1_455 S
C3671 C3670 1.524 . S
C3671 C3672 1.397 . S
C3671 C3676 1.363 . S
C3672 H3649 0.950 . S
C3672 C3671 1.397 . S
C3672 C3673 1.334 . S
C3673 H3650 0.950 . S
C3673 C3672 1.334 . S
C3673 C3674 1.287 . S
C3674 C3673 1.287 . S
C3674 C3675 1.524 . S
C3674 H3693 0.913 . S
C3675 H3651 0.970 . S
C3675 C3674 1.524 . S
C3675 C3676 1.415 . S
C3676 H3652 0.950 1_455 S
C3676 C3671 1.363 . S
C3676 C3675 1.415 . S
C3677 H3653 0.951 . S
C3677 C3678 1.366 . S
C3677 C3679 1.388 . S
C3678 C3677 1.366 . S
C3678 C3682 1.385 . S
C3679 H3654 0.951 . S
C3679 C3677 1.388 . S
C3679 C3680 1.366 . S
C3680 C3679 1.366 . S
C3680 C3681 1.414 . S
C3680 C3683 1.499 . S
C3681 H3655 0.950 1_565 S
C3681 C3680 1.414 . S
C3681 C3682 1.374 . S
C3682 H3656 0.950 . S
C3682 C3678 1.385 . S
C3682 C3681 1.374 . S
C3683 C3680 1.499 . S
C3683 C3684 1.373 1_565 S
C3683 C3685 1.389 1_554 S
C3684 H3657 0.950 . S
C3684 C3670 1.377 1_655 S
C3684 C3683 1.373 1_545 S
C3685 C3669 1.377 1_655 S
C3685 C3683 1.389 1_556 S
C3685 C3686 1.524 . S
C3686 C3685 1.524 . S
C3686 C3687 1.397 . S
C3686 C3691 1.363 . S
C3687 H3658 0.950 . S
C3687 C3686 1.397 . S
C3687 C3688 1.334 . S
C3688 H3659 0.950 . S
C3688 C3687 1.334 . S
C3688 C3689 1.287 . S
C3689 C3688 1.287 . S
C3689 C3690 1.524 . S
C3689 H3692 0.999 . S
C3690 H3660 0.970 . S
C3690 C3689 1.524 . S
C3690 C3691 1.415 . S
C3691 H3661 0.950 1_655 S
C3691 C3686 1.363 . S
C3691 C3690 1.415 . S
H3692 C3689 0.999 . S
H3693 C3674 0.913 . S
H3694 C3712 0.951 . S
H3695 C3714 0.951 . S
H3696 C3716 0.950 . S
H3697 C3717 0.950 . S
H3698 C3719 0.950 . S
H3699 C3722 0.950 . S
H3700 C3723 0.950 . S
H3701 C3725 0.950 . S
H3702 C3726 0.950 . S
H3703 C3727 0.951 . S
H3704 C3729 0.951 . S
H3705 C3731 0.950 . S
H3706 C3732 0.950 . S
H3707 C3734 0.950 . S
H3708 C3737 0.950 . S
H3709 C3738 0.950 . S
H3710 C3740 0.950 . S
H3711 C3741 0.950 . S
C3712 H3694 0.951 . S
C3712 C3713 1.366 . S
C3712 C3714 1.388 . S
C3713 C3712 1.366 . S
C3713 C3717 1.385 . S
C3714 H3695 0.951 . S
C3714 C3712 1.388 . S
C3714 C3715 1.366 . S
C3715 C3714 1.366 . S
C3715 C3716 1.414 . S
C3715 C3718 1.499 . S
C3716 H3696 0.950 . S
C3716 C3715 1.414 . S
C3716 C3717 1.374 . S
C3717 H3697 0.950 . S
C3717 C3713 1.385 . S
C3717 C3716 1.374 . S
C3718 C3715 1.499 . S
C3718 C3719 1.373 1_545 S
C3718 C3720 1.389 . S
C3719 H3698 0.950 . S
C3719 C3718 1.373 1_565 S
C3719 C3735 1.377 . S
C3720 C3718 1.389 . S
C3720 C3721 1.524 . S
C3720 C3734 1.377 . S
C3721 C3720 1.524 . S
C3721 C3722 1.397 . S
C3721 C3726 1.363 . S
C3722 H3699 0.950 . S
C3722 C3721 1.397 . S
C3722 C3723 1.334 . S
C3723 H3700 0.950 . S
C3723 C3722 1.334 . S
C3723 C3724 1.287 . S
C3724 C3723 1.287 . S
C3724 C3725 1.524 . S
C3724 H3743 0.913 . S
C3725 H3701 0.950 . S
C3725 C3724 1.524 . S
C3725 C3726 1.415 . S
C3726 H3702 0.950 . S
C3726 C3721 1.363 . S
C3726 C3725 1.415 . S
C3727 H3703 0.951 . S
C3727 C3728 1.366 . S
C3727 C3729 1.388 . S
C3728 C3727 1.366 . S
C3728 C3732 1.385 . S
C3729 H3704 0.951 . S
C3729 C3727 1.388 . S
C3729 C3730 1.366 . S
C3730 C3729 1.366 . S
C3730 C3731 1.414 . S
C3730 C3733 1.499 . S
C3731 H3705 0.950 . S
C3731 C3730 1.414 . S
C3731 C3732 1.374 . S
C3732 H3706 0.950 . S
C3732 C3728 1.385 . S
C3732 C3731 1.374 . S
C3733 C3730 1.499 . S
C3733 C3734 1.373 1_565 S
C3733 C3735 1.389 . S
C3734 H3707 0.950 . S
C3734 C3720 1.377 . S
C3734 C3733 1.373 1_545 S
C3735 C3719 1.377 . S
C3735 C3733 1.389 . S
C3735 C3736 1.524 . S
C3736 C3735 1.524 . S
C3736 C3737 1.397 . S
C3736 C3741 1.363 . S
C3737 H3708 0.950 . S
C3737 C3736 1.397 . S
C3737 C3738 1.334 . S
C3738 H3709 0.950 . S
C3738 C3737 1.334 . S
C3738 C3739 1.287 . S
C3739 C3738 1.287 . S
C3739 C3740 1.524 . S
C3739 H3742 0.999 . S
C3740 H3710 0.950 . S
C3740 C3739 1.524 . S
C3740 C3741 1.415 . S
C3741 H3711 0.950 . S
C3741 C3736 1.363 . S
C3741 C3740 1.415 . S
H3742 C3739 0.999 . S
H3743 C3724 0.913 . S
C1363 C56 2.239 . S
C1378 C896 2.239 . S
C1413 C140 2.239 . S
C1428 C980 2.239 . S
C1463 C224 2.239 . S
C1478 C728 2.239 . S
C1513 C308 2.239 . S
C1528 C812 2.239 . S
C1563 C403 2.239 . S
C1578 C1243 2.239 . S
C1613 C487 2.239 . S
C1628 C1327 2.239 . S
C1663 C571 2.239 . S
C1678 C1075 2.239 . S
C1713 C655 2.239 . S
C1728 C1159 2.239 . S
C1763 C830 3.695 . S
C1778 C67 3.677 . S
C1813 C914 3.696 . S
C1828 C151 3.676 . S
C1863 C998 3.696 . S
C1878 C235 3.676 . S
C1913 C746 3.695 . S
C1928 C319 3.677 . S
C1963 C392 3.676 . S
C1978 C1155 3.695 . S
C2013 C1239 3.695 . S
C2028 C476 3.677 . S
C2063 C1323 3.695 . S
C2078 C560 3.677 . S
C2113 C1071 3.695 . S
C2128 C644 3.676 . S
C2163 C158 3.695 . S
C2178 C739 3.677 . S
C2213 C823 3.676 . S
C2228 C242 3.696 . S
C2263 C907 3.676 . S
C2278 C326 3.696 . S
C2313 C991 3.677 . S
C2328 C74 3.695 . S
C2363 C1064 3.676 . S
C2378 C483 3.696 . S
C2413 C567 3.695 . S
C2428 C1148 3.676 . S
C2463 C651 3.696 . S
C2478 C1232 3.676 . S
C2513 C1316 3.677 . S
C2528 C399 3.695 . S
C2563 C58 0.609 . S
C2578 C1334 0.463 . S
C2613 C142 0.609 . S
C2628 C410 0.464 . S
C2663 C1166 0.461 . S
C2678 C226 0.611 . S
C2713 C578 0.461 . S
C2728 C310 0.610 . S
C2763 C406 0.607 . S
C2778 C987 0.464 . S
C2813 C490 0.611 . S
C2828 C63 0.462 . S
C2863 C819 0.462 . S
C2878 C574 0.611 . S
C2913 C231 0.464 . S
C2928 C658 0.607 . S
C2963 C730 0.608 . S
C2978 C662 0.462 . S
C3013 C814 0.611 . S
C3028 C1082 0.461 . S
C3063 C494 0.464 . S
C3078 C898 0.607 . S
C3113 C1250 0.462 . S
C3128 C982 0.610 . S
C3163 C1078 0.607 . S
C3178 C315 0.463 . S
C3213 C1162 0.607 . S
C3228 C735 0.464 . S
C3263 C1246 0.607 . S
C3278 C147 0.463 . S
C3313 C903 0.463 . S
C3328 C1330 0.607 . S
C3363 C70 1.080 . S
C3378 C1066 1.080 . S
C3413 C154 1.082 . S
C3428 C478 1.082 . S
C3463 C238 1.079 . S
C3478 C1234 1.079 . S
C3513 C646 1.079 . S
C3528 C322 1.079 . S
C3563 C394 1.082 . S
C3578 C742 1.082 . S
C3613 C910 1.079 . S
C3628 C562 1.079 . S
C3663 C826 1.080 . S
C3678 C1150 1.080 . S
C3713 C1318 1.081 . S
C3728 C994 1.081 . S
