# Generated by pormake.
# Topology uod, (4)-cn, num edge types: 1
# Building blocks:
#     Node 0, Type 0, BuildingBlock: QUQFOY_clean_sbu_1, # of connection points: 4
#     Node 1, Type 0, BuildingBlock: QUQFOY_clean_sbu_1, # of connection points: 4
#     Node 2, Type 0, BuildingBlock: QUQFOY_clean_sbu_1, # of connection points: 4
#     Node 3, Type 0, BuildingBlock: QUQFOY_clean_sbu_1, # of connection points: 4
#     Node 4, Type 0, BuildingBlock: QUQFOY_clean_sbu_1, # of connection points: 4
#     Node 5, Type 0, BuildingBlock: QUQFOY_clean_sbu_1, # of connection points: 4
#     Node 6, Type 0, BuildingBlock: QUQFOY_clean_sbu_1, # of connection points: 4
#     Node 7, Type 0, BuildingBlock: QUQFOY_clean_sbu_1, # of connection points: 4
#     Node 8, Type 0, BuildingBlock: QUQFOY_clean_sbu_1, # of connection points: 4
#     Node 9, Type 0, BuildingBlock: QUQFOY_clean_sbu_1, # of connection points: 4
#     Node 10, Type 0, BuildingBlock: QUQFOY_clean_sbu_1, # of connection points: 4
#     Node 11, Type 0, BuildingBlock: QUQFOY_clean_sbu_1, # of connection points: 4
#     Node 12, Type 0, BuildingBlock: QUQFOY_clean_sbu_1, # of connection points: 4
#     Node 13, Type 0, BuildingBlock: QUQFOY_clean_sbu_1, # of connection points: 4
#     Node 14, Type 0, BuildingBlock: QUQFOY_clean_sbu_1, # of connection points: 4
#     Node 15, Type 0, BuildingBlock: QUQFOY_clean_sbu_1, # of connection points: 4
#     Node 16, Type 0, BuildingBlock: QUQFOY_clean_sbu_1, # of connection points: 4
#     Node 17, Type 0, BuildingBlock: QUQFOY_clean_sbu_1, # of connection points: 4
#     Node 18, Type 0, BuildingBlock: QUQFOY_clean_sbu_1, # of connection points: 4
#     Node 19, Type 0, BuildingBlock: QUQFOY_clean_sbu_1, # of connection points: 4
#     Node 20, Type 0, BuildingBlock: QUQFOY_clean_sbu_1, # of connection points: 4
#     Node 21, Type 0, BuildingBlock: QUQFOY_clean_sbu_1, # of connection points: 4
#     Node 22, Type 0, BuildingBlock: QUQFOY_clean_sbu_1, # of connection points: 4
#     Node 23, Type 0, BuildingBlock: QUQFOY_clean_sbu_1, # of connection points: 4
#     Node 24, Type 0, BuildingBlock: QUQFOY_clean_sbu_1, # of connection points: 4
#     Node 25, Type 0, BuildingBlock: QUQFOY_clean_sbu_1, # of connection points: 4
#     Node 26, Type 0, BuildingBlock: QUQFOY_clean_sbu_1, # of connection points: 4
#     Node 27, Type 0, BuildingBlock: QUQFOY_clean_sbu_1, # of connection points: 4
#     Node 28, Type 0, BuildingBlock: QUQFOY_clean_sbu_1, # of connection points: 4
#     Node 29, Type 0, BuildingBlock: QUQFOY_clean_sbu_1, # of connection points: 4
#     Node 30, Type 0, BuildingBlock: QUQFOY_clean_sbu_1, # of connection points: 4
#     Node 31, Type 0, BuildingBlock: QUQFOY_clean_sbu_1, # of connection points: 4
#     Edge 32, Type (0, 0), BuildingBlock: XIVTED_clean_linker_0, # of connection points: 2
#     Edge 33, Type (0, 0), BuildingBlock: XIVTED_clean_linker_0, # of connection points: 2
#     Edge 34, Type (0, 0), BuildingBlock: XIVTED_clean_linker_0, # of connection points: 2
#     Edge 35, Type (0, 0), BuildingBlock: XIVTED_clean_linker_0, # of connection points: 2
#     Edge 36, Type (0, 0), BuildingBlock: XIVTED_clean_linker_0, # of connection points: 2
#     Edge 37, Type (0, 0), BuildingBlock: XIVTED_clean_linker_0, # of connection points: 2
#     Edge 38, Type (0, 0), BuildingBlock: XIVTED_clean_linker_0, # of connection points: 2
#     Edge 39, Type (0, 0), BuildingBlock: XIVTED_clean_linker_0, # of connection points: 2
#     Edge 40, Type (0, 0), BuildingBlock: XIVTED_clean_linker_0, # of connection points: 2
#     Edge 41, Type (0, 0), BuildingBlock: XIVTED_clean_linker_0, # of connection points: 2
#     Edge 42, Type (0, 0), BuildingBlock: XIVTED_clean_linker_0, # of connection points: 2
#     Edge 43, Type (0, 0), BuildingBlock: XIVTED_clean_linker_0, # of connection points: 2
#     Edge 44, Type (0, 0), BuildingBlock: XIVTED_clean_linker_0, # of connection points: 2
#     Edge 45, Type (0, 0), BuildingBlock: XIVTED_clean_linker_0, # of connection points: 2
#     Edge 46, Type (0, 0), BuildingBlock: XIVTED_clean_linker_0, # of connection points: 2
#     Edge 47, Type (0, 0), BuildingBlock: XIVTED_clean_linker_0, # of connection points: 2
#     Edge 48, Type (0, 0), BuildingBlock: XIVTED_clean_linker_0, # of connection points: 2
#     Edge 49, Type (0, 0), BuildingBlock: XIVTED_clean_linker_0, # of connection points: 2
#     Edge 50, Type (0, 0), BuildingBlock: XIVTED_clean_linker_0, # of connection points: 2
#     Edge 51, Type (0, 0), BuildingBlock: XIVTED_clean_linker_0, # of connection points: 2
#     Edge 52, Type (0, 0), BuildingBlock: XIVTED_clean_linker_0, # of connection points: 2
#     Edge 53, Type (0, 0), BuildingBlock: XIVTED_clean_linker_0, # of connection points: 2
#     Edge 54, Type (0, 0), BuildingBlock: XIVTED_clean_linker_0, # of connection points: 2
#     Edge 55, Type (0, 0), BuildingBlock: XIVTED_clean_linker_0, # of connection points: 2
#     Edge 56, Type (0, 0), BuildingBlock: XIVTED_clean_linker_0, # of connection points: 2
#     Edge 57, Type (0, 0), BuildingBlock: XIVTED_clean_linker_0, # of connection points: 2
#     Edge 58, Type (0, 0), BuildingBlock: XIVTED_clean_linker_0, # of connection points: 2
#     Edge 59, Type (0, 0), BuildingBlock: XIVTED_clean_linker_0, # of connection points: 2
#     Edge 60, Type (0, 0), BuildingBlock: XIVTED_clean_linker_0, # of connection points: 2
#     Edge 61, Type (0, 0), BuildingBlock: XIVTED_clean_linker_0, # of connection points: 2
#     Edge 62, Type (0, 0), BuildingBlock: XIVTED_clean_linker_0, # of connection points: 2
#     Edge 63, Type (0, 0), BuildingBlock: XIVTED_clean_linker_0, # of connection points: 2
#     Edge 64, Type (0, 0), BuildingBlock: XIVTED_clean_linker_0, # of connection points: 2
#     Edge 65, Type (0, 0), BuildingBlock: XIVTED_clean_linker_0, # of connection points: 2
#     Edge 66, Type (0, 0), BuildingBlock: XIVTED_clean_linker_0, # of connection points: 2
#     Edge 67, Type (0, 0), BuildingBlock: XIVTED_clean_linker_0, # of connection points: 2
#     Edge 68, Type (0, 0), BuildingBlock: XIVTED_clean_linker_0, # of connection points: 2
#     Edge 69, Type (0, 0), BuildingBlock: XIVTED_clean_linker_0, # of connection points: 2
#     Edge 70, Type (0, 0), BuildingBlock: XIVTED_clean_linker_0, # of connection points: 2
#     Edge 71, Type (0, 0), BuildingBlock: XIVTED_clean_linker_0, # of connection points: 2
#     Edge 72, Type (0, 0), BuildingBlock: XIVTED_clean_linker_0, # of connection points: 2
#     Edge 73, Type (0, 0), BuildingBlock: XIVTED_clean_linker_0, # of connection points: 2
#     Edge 74, Type (0, 0), BuildingBlock: XIVTED_clean_linker_0, # of connection points: 2
#     Edge 75, Type (0, 0), BuildingBlock: XIVTED_clean_linker_0, # of connection points: 2
#     Edge 76, Type (0, 0), BuildingBlock: XIVTED_clean_linker_0, # of connection points: 2
#     Edge 77, Type (0, 0), BuildingBlock: XIVTED_clean_linker_0, # of connection points: 2
#     Edge 78, Type (0, 0), BuildingBlock: XIVTED_clean_linker_0, # of connection points: 2
#     Edge 79, Type (0, 0), BuildingBlock: XIVTED_clean_linker_0, # of connection points: 2
#     Edge 80, Type (0, 0), BuildingBlock: XIVTED_clean_linker_0, # of connection points: 2
#     Edge 81, Type (0, 0), BuildingBlock: XIVTED_clean_linker_0, # of connection points: 2
#     Edge 82, Type (0, 0), BuildingBlock: XIVTED_clean_linker_0, # of connection points: 2
#     Edge 83, Type (0, 0), BuildingBlock: XIVTED_clean_linker_0, # of connection points: 2
#     Edge 84, Type (0, 0), BuildingBlock: XIVTED_clean_linker_0, # of connection points: 2
#     Edge 85, Type (0, 0), BuildingBlock: XIVTED_clean_linker_0, # of connection points: 2
#     Edge 86, Type (0, 0), BuildingBlock: XIVTED_clean_linker_0, # of connection points: 2
#     Edge 87, Type (0, 0), BuildingBlock: XIVTED_clean_linker_0, # of connection points: 2
#     Edge 88, Type (0, 0), BuildingBlock: XIVTED_clean_linker_0, # of connection points: 2
#     Edge 89, Type (0, 0), BuildingBlock: XIVTED_clean_linker_0, # of connection points: 2
#     Edge 90, Type (0, 0), BuildingBlock: XIVTED_clean_linker_0, # of connection points: 2
#     Edge 91, Type (0, 0), BuildingBlock: XIVTED_clean_linker_0, # of connection points: 2
#     Edge 92, Type (0, 0), BuildingBlock: XIVTED_clean_linker_0, # of connection points: 2
#     Edge 93, Type (0, 0), BuildingBlock: XIVTED_clean_linker_0, # of connection points: 2
#     Edge 94, Type (0, 0), BuildingBlock: XIVTED_clean_linker_0, # of connection points: 2
#     Edge 95, Type (0, 0), BuildingBlock: XIVTED_clean_linker_0, # of connection points: 2
# Relax obj value: 0.042
# Max RMSD: 0.084
# Mean RMSD: 0.084
data_MOF--net-uod--node1-QUQFOY_clean_sbu_1--edge1-XIVTED_clean_linker_0
_symmetry_space_group_name_H-M    P1
_symmetry_Int_Tables_number       1
_symmetry_cell_setting            triclinic
loop_
_symmetry_equiv_pos_as_xyz
'x, y, z'
_cell_length_a     90.382207
_cell_length_b     28.705042
_cell_length_c     68.820907
_cell_angle_alpha  89.994
_cell_angle_beta   89.910503
_cell_angle_gamma 90.01383
loop_
_atom_site_label
_atom_site_type_symbol
_atom_site_fract_x
_atom_site_fract_y
_atom_site_fract_z
_atom_type_partial_charge
O0 O 0.05149 0.4735 0.094 0.0
Cd1 Cd 0.05979 0.41969 0.07806 0.0
Cd2 Cd 0.05123 0.37531 0.11108 0.0
O3 O 0.03799 0.43338 0.11477 0.0
O4 O 0.06042 0.45028 0.05203 0.0
O5 O 0.04456 0.39438 0.0595 0.0
C6 C 0.04864 0.42708 0.04771 0.0
C7 C 0.04209 0.30008 0.11573 0.0
C8 C 0.04131 0.47174 0.10668 0.0
C9 C 0.08403 0.38708 0.10333 0.0
O10 O 0.07374 0.38209 0.1158 0.0
O11 O 0.08085 0.39629 0.08568 0.0
O12 O 0.04463 0.32746 0.1302 0.0
O13 O 0.04412 0.3163 0.09839 0.0
O14 O 0.22226 0.78076 0.09483 0.0
Cd15 Cd 0.21373 0.8353 0.07954 0.0
Cd16 Cd 0.22217 0.87782 0.11276 0.0
O17 O 0.23532 0.81968 0.11641 0.0
O18 O 0.21333 0.80636 0.0532 0.0
O19 O 0.22883 0.86272 0.06125 0.0
C20 C 0.22497 0.8305 0.04912 0.0
C21 C 0.23137 0.95297 0.11708 0.0
C22 C 0.23219 0.78183 0.1078 0.0
C23 C 0.18938 0.86613 0.10524 0.0
O24 O 0.1997 0.87104 0.11764 0.0
O25 O 0.19254 0.85743 0.08752 0.0
O26 O 0.22886 0.92588 0.13168 0.0
O27 O 0.22927 0.93649 0.09982 0.0
O28 O 0.04977 0.78319 0.15968 0.0
Cd29 Cd 0.0588 0.83453 0.17631 0.0
Cd30 Cd 0.0506 0.88252 0.14335 0.0
O31 O 0.03725 0.82522 0.13853 0.0
O32 O 0.0593 0.80114 0.20177 0.0
O33 O 0.04407 0.85958 0.19567 0.0
C34 C 0.04787 0.82523 0.20678 0.0
C35 C 0.04178 0.95815 0.13859 0.0
C36 C 0.04002 0.78634 0.14653 0.0
C37 C 0.08336 0.86748 0.15129 0.0
O38 O 0.07313 0.87508 0.13901 0.0
O39 O 0.0801 0.85625 0.16873 0.0
O40 O 0.04459 0.93093 0.12415 0.0
O41 O 0.04339 0.94164 0.15594 0.0
O42 O 0.22297 0.4678 0.16099 0.0
Cd43 Cd 0.21402 0.41459 0.17674 0.0
Cd44 Cd 0.2221 0.37019 0.14329 0.0
O45 O 0.23529 0.42796 0.1389 0.0
O46 O 0.21337 0.44551 0.20268 0.0
O47 O 0.22876 0.38804 0.19572 0.0
C48 C 0.22483 0.42123 0.20735 0.0
C49 C 0.23118 0.29492 0.13879 0.0
C50 C 0.23258 0.46602 0.14759 0.0
C51 C 0.18939 0.38357 0.15144 0.0
O52 O 0.19959 0.37723 0.13894 0.0
O53 O 0.19271 0.39337 0.16899 0.0
O54 O 0.22843 0.32189 0.12425 0.0
O55 O 0.22936 0.31153 0.15609 0.0
O56 O 0.97473 0.53474 0.90921 0.0
Cd57 Cd 0.96512 0.58471 0.92607 0.0
Cd58 Cd 0.9727 0.63382 0.89262 0.0
O59 O 0.98599 0.57694 0.88685 0.0
O60 O 0.96441 0.54971 0.95115 0.0
O61 O 0.97936 0.60942 0.94611 0.0
C62 C 0.97556 0.57423 0.95676 0.0
C63 C 0.98132 0.70984 0.88818 0.0
C64 C 0.98388 0.5382 0.8953 0.0
C65 C 0.94013 0.61676 0.90136 0.0
O66 O 0.95016 0.62588 0.88895 0.0
O67 O 0.94362 0.60471 0.91861 0.0
O68 O 0.97828 0.68326 0.87362 0.0
O69 O 0.98006 0.69248 0.90544 0.0
O70 O 0.79823 0.20893 0.90997 0.0
Cd71 Cd 0.80781 0.15814 0.9264 0.0
Cd72 Cd 0.8003 0.11064 0.89286 0.0
O73 O 0.78697 0.16756 0.88741 0.0
O74 O 0.80828 0.19198 0.95174 0.0
O75 O 0.79354 0.13206 0.94621 0.0
C76 C 0.79716 0.16692 0.95712 0.0
C77 C 0.79168 0.03466 0.88851 0.0
C78 C 0.78908 0.206 0.89609 0.0
C79 C 0.83287 0.12744 0.90144 0.0
O80 O 0.82283 0.11874 0.88902 0.0
O81 O 0.82937 0.13879 0.91879 0.0
O82 O 0.79464 0.06126 0.87391 0.0
O83 O 0.79302 0.05199 0.90576 0.0
O84 O 0.97035 0.22318 0.84247 0.0
Cd85 Cd 0.96249 0.16723 0.82748 0.0
Cd86 Cd 0.97113 0.12658 0.86061 0.0
O87 O 0.98417 0.18536 0.86354 0.0
O88 O 0.96226 0.19451 0.80083 0.0
O89 O 0.97812 0.14005 0.80993 0.0
C90 C 0.97419 0.17121 0.79736 0.0
C91 C 0.9805 0.05154 0.86459 0.0
C92 C 0.9806 0.22295 0.85502 0.0
C93 C 0.93832 0.13584 0.85318 0.0
O94 O 0.94864 0.1327 0.86568 0.0
O95 O 0.94148 0.14344 0.83538 0.0
O96 O 0.97816 0.07844 0.8793 0.0
O97 O 0.97817 0.06823 0.84741 0.0
O98 O 0.80281 0.52051 0.84364 0.0
Cd99 Cd 0.81063 0.57587 0.82821 0.0
Cd100 Cd 0.8019 0.61785 0.86114 0.0
O101 O 0.78882 0.55918 0.86431 0.0
O102 O 0.81086 0.54774 0.80172 0.0
O103 O 0.79493 0.60222 0.81068 0.0
C104 C 0.79887 0.57072 0.79825 0.0
C105 C 0.79253 0.69293 0.86512 0.0
C106 C 0.79246 0.52127 0.85608 0.0
C107 C 0.83471 0.60839 0.85362 0.0
O108 O 0.82439 0.61179 0.86613 0.0
O109 O 0.83158 0.60029 0.83586 0.0
O110 O 0.7949 0.66611 0.87983 0.0
O111 O 0.79484 0.67615 0.84793 0.0
O112 O 0.05578 0.98478 0.59063 0.0
Cd113 Cd 0.06175 0.92505 0.57676 0.0
Cd114 Cd 0.0519 0.89024 0.60925 0.0
O115 O 0.03944 0.951 0.60966 0.0
O116 O 0.06141 0.94624 0.54922 0.0
O117 O 0.04472 0.89829 0.56175 0.0
C118 C 0.04877 0.92551 0.54772 0.0
C119 C 0.04204 0.81587 0.61321 0.0
C120 C 0.04455 0.98751 0.60162 0.0
C121 C 0.08481 0.89238 0.60301 0.0
O122 O 0.0743 0.89436 0.61531 0.0
O123 O 0.08201 0.8968 0.58495 0.0
O124 O 0.04362 0.84364 0.62782 0.0
O125 O 0.04521 0.83159 0.59609 0.0
O126 O 0.225 0.2859 0.59735 0.0
Cd127 Cd 0.21384 0.3291 0.57918 0.0
Cd128 Cd 0.22052 0.38884 0.61225 0.0
O129 O 0.23332 0.33215 0.62054 0.0
O130 O 0.21365 0.28911 0.55537 0.0
O131 O 0.22694 0.35346 0.55771 0.0
C132 C 0.22391 0.31551 0.5484 0.0
C133 C 0.22932 0.46468 0.61752 0.0
C134 C 0.23286 0.29256 0.6123 0.0
C135 C 0.18813 0.36537 0.60243 0.0
O136 O 0.19772 0.38296 0.61379 0.0
O137 O 0.19203 0.34447 0.58688 0.0
O138 O 0.22505 0.43853 0.63167 0.0
O139 O 0.22913 0.44713 0.60023 0.0
O140 O 0.04581 0.29453 0.65574 0.0
Cd141 Cd 0.05743 0.33357 0.67503 0.0
Cd142 Cd 0.05217 0.39776 0.64198 0.0
O143 O 0.03962 0.3423 0.63191 0.0
O144 O 0.05714 0.28966 0.69766 0.0
O145 O 0.0448 0.35603 0.69738 0.0
C146 C 0.04738 0.31633 0.70559 0.0
C147 C 0.04384 0.47394 0.63625 0.0
C148 C 0.03897 0.30262 0.64005 0.0
C149 C 0.08403 0.37035 0.65327 0.0
O150 O 0.07495 0.3909 0.64205 0.0
O151 O 0.07952 0.3471 0.66794 0.0
O152 O 0.04877 0.44799 0.62242 0.0
O153 O 0.04318 0.45614 0.65347 0.0
O154 O 0.21964 0.97776 0.66461 0.0
Cd155 Cd 0.21269 0.92101 0.6798 0.0
Cd156 Cd 0.22209 0.88088 0.6472 0.0
O157 O 0.2349 0.94069 0.64505 0.0
O158 O 0.21246 0.94742 0.70658 0.0
O159 O 0.22895 0.89561 0.69661 0.0
C160 C 0.22478 0.92578 0.70948 0.0
C161 C 0.2315 0.80584 0.64299 0.0
C162 C 0.23048 0.97828 0.6529 0.0
C163 C 0.18915 0.88764 0.65418 0.0
O164 O 0.19961 0.88607 0.6418 0.0
O165 O 0.19206 0.89471 0.67206 0.0
O166 O 0.22948 0.83333 0.62839 0.0
O167 O 0.22898 0.82209 0.66021 0.0
O168 O 0.97317 0.03016 0.41082 0.0
Cd169 Cd 0.96259 0.07634 0.42828 0.0
Cd170 Cd 0.97008 0.1329 0.39529 0.0
O171 O 0.98293 0.0753 0.38819 0.0
O172 O 0.96232 0.03949 0.45291 0.0
O173 O 0.97618 0.10218 0.44878 0.0
C174 C 0.97295 0.06566 0.45896 0.0
C175 C 0.97917 0.20823 0.38977 0.0
C176 C 0.98171 0.03582 0.3964 0.0
C177 C 0.93742 0.1125 0.40451 0.0
O178 O 0.94729 0.12795 0.39298 0.0
O179 O 0.94097 0.0931 0.42052 0.0
O180 O 0.97528 0.18143 0.37565 0.0
O181 O 0.97848 0.19154 0.40719 0.0
O182 O 0.80448 0.7352 0.41479 0.0
Cd183 Cd 0.81094 0.6766 0.42909 0.0
Cd184 Cd 0.80143 0.64007 0.39625 0.0
O185 O 0.78881 0.70047 0.39511 0.0
O186 O 0.81089 0.70028 0.45632 0.0
O187 O 0.7943 0.65033 0.44511 0.0
C188 C 0.7984 0.67906 0.45856 0.0
C189 C 0.79184 0.56523 0.39238 0.0
C190 C 0.79352 0.73722 0.40336 0.0
C191 C 0.83433 0.64406 0.40295 0.0
O192 O 0.82389 0.64476 0.39056 0.0
O193 O 0.83141 0.64934 0.42096 0.0
O194 O 0.79362 0.59266 0.37769 0.0
O195 O 0.79466 0.58152 0.40951 0.0
O196 O 0.97102 0.72268 0.3429 0.0
Cd197 Cd 0.96325 0.66777 0.32725 0.0
Cd198 Cd 0.97197 0.62513 0.36033 0.0
O199 O 0.98509 0.68397 0.3634 0.0
O200 O 0.96292 0.6971 0.30097 0.0
O201 O 0.97888 0.64222 0.30929 0.0
C202 C 0.97488 0.67425 0.29715 0.0
C203 C 0.98101 0.54982 0.36527 0.0
C204 C 0.98137 0.72197 0.35529 0.0
C205 C 0.93911 0.63562 0.35264 0.0
O206 O 0.94944 0.63167 0.36509 0.0
O207 O 0.94224 0.64393 0.33489 0.0
O208 O 0.97864 0.57771 0.37964 0.0
O209 O 0.97899 0.56567 0.34788 0.0
O210 O 0.79597 0.04429 0.34834 0.0
Cd211 Cd 0.80778 0.08449 0.32964 0.0
Cd212 Cd 0.80193 0.14715 0.36273 0.0
O213 O 0.78915 0.09136 0.37213 0.0
O214 O 0.80785 0.04177 0.30666 0.0
O215 O 0.79535 0.10786 0.30735 0.0
C216 C 0.79808 0.06858 0.29887 0.0
C217 C 0.79351 0.22349 0.36791 0.0
C218 C 0.78876 0.05186 0.36381 0.0
C219 C 0.83398 0.12045 0.35216 0.0
O220 O 0.82471 0.14034 0.36336 0.0
O221 O 0.82972 0.09794 0.33719 0.0
O222 O 0.79806 0.19772 0.38201 0.0
O223 O 0.79324 0.20535 0.35074 0.0
O224 O 0.55329 0.476 0.59228 0.0
Cd225 Cd 0.56064 0.41875 0.5777 0.0
Cd226 Cd 0.55154 0.37975 0.61047 0.0
O227 O 0.53866 0.43899 0.61269 0.0
O228 O 0.56063 0.44352 0.55066 0.0
O229 O 0.5445 0.39123 0.56122 0.0
C230 C 0.54843 0.42096 0.54804 0.0
C231 C 0.54179 0.3053 0.61441 0.0
C232 C 0.54268 0.47637 0.60434 0.0
C233 C 0.58442 0.38689 0.60356 0.0
O234 O 0.57398 0.38506 0.61597 0.0
O235 O 0.58144 0.39375 0.58567 0.0
O236 O 0.54396 0.33236 0.62911 0.0
O237 O 0.54452 0.32154 0.59725 0.0
O238 O 0.72193 0.78066 0.5953 0.0
Cd239 Cd 0.71321 0.8333 0.57908 0.0
Cd240 Cd 0.72139 0.87939 0.61232 0.0
O241 O 0.73458 0.82152 0.61671 0.0
O242 O 0.71289 0.80183 0.5532 0.0
O243 O 0.72825 0.85926 0.56038 0.0
C244 C 0.72448 0.82588 0.54876 0.0
C245 C 0.73045 0.95471 0.61723 0.0
C246 C 0.73169 0.78303 0.60845 0.0
C247 C 0.68865 0.86593 0.60416 0.0
O248 O 0.69885 0.87239 0.61661 0.0
O249 O 0.69196 0.85562 0.58664 0.0
O250 O 0.72761 0.92735 0.63162 0.0
O251 O 0.72874 0.9385 0.59985 0.0
O252 O 0.54762 0.78932 0.6568 0.0
Cd253 Cd 0.55709 0.84033 0.67324 0.0
Cd254 Cd 0.54963 0.88766 0.63982 0.0
O255 O 0.53635 0.8308 0.63428 0.0
O256 O 0.55731 0.80724 0.69877 0.0
O257 O 0.54263 0.867 0.69263 0.0
C258 C 0.54614 0.83248 0.7038 0.0
C259 C 0.54087 0.96334 0.63534 0.0
C260 C 0.53848 0.79232 0.64291 0.0
C261 C 0.58219 0.87124 0.64844 0.0
O262 O 0.57216 0.87979 0.63599 0.0
O263 O 0.57866 0.85992 0.66578 0.0
O264 O 0.54392 0.93669 0.6208 0.0
O265 O 0.54225 0.94625 0.65263 0.0
O266 O 0.72199 0.46997 0.66251 0.0
Cd267 Cd 0.71362 0.41622 0.67842 0.0
Cd268 Cd 0.72213 0.37168 0.64536 0.0
O269 O 0.73523 0.43002 0.64139 0.0
O270 O 0.71332 0.44635 0.70454 0.0
O271 O 0.72891 0.39004 0.69662 0.0
C272 C 0.72506 0.42271 0.70857 0.0
C273 C 0.73125 0.29645 0.6406 0.0
C274 C 0.732 0.4683 0.64962 0.0
C275 C 0.68932 0.38365 0.65321 0.0
O276 O 0.69962 0.37817 0.6408 0.0
O277 O 0.69248 0.39332 0.67082 0.0
O278 O 0.72865 0.32387 0.62616 0.0
O279 O 0.72935 0.31265 0.65795 0.0
O280 O 0.47324 0.52801 0.41055 0.0
Cd281 Cd 0.46255 0.57333 0.42829 0.0
Cd282 Cd 0.47006 0.6313 0.39562 0.0
O283 O 0.48277 0.57382 0.38798 0.0
O284 O 0.4623 0.53552 0.45268 0.0
O285 O 0.47606 0.59858 0.44901 0.0
C286 C 0.47288 0.56163 0.45894 0.0
C287 C 0.47936 0.70657 0.39063 0.0
C288 C 0.48166 0.53414 0.39604 0.0
C289 C 0.43737 0.6108 0.40479 0.0
O290 O 0.44724 0.62701 0.39344 0.0
O291 O 0.44092 0.59028 0.42055 0.0
O292 O 0.4753 0.68059 0.37634 0.0
O293 O 0.4787 0.6891 0.40791 0.0
O294 O 0.30529 0.23191 0.41471 0.0
Cd295 Cd 0.31158 0.17292 0.42887 0.0
Cd296 Cd 0.30179 0.13678 0.39644 0.0
O297 O 0.28921 0.19726 0.39563 0.0
O298 O 0.31146 0.19556 0.45623 0.0
O299 O 0.2948 0.14641 0.44457 0.0
C300 C 0.29892 0.17448 0.45825 0.0
C301 C 0.29203 0.06214 0.39286 0.0
C302 C 0.29413 0.23406 0.40361 0.0
C303 C 0.33473 0.14002 0.40255 0.0
O304 O 0.32419 0.14111 0.39032 0.0
O305 O 0.33195 0.14519 0.42061 0.0
O306 O 0.29367 0.08945 0.37811 0.0
O307 O 0.29511 0.07846 0.40991 0.0
O308 O 0.4714 0.21925 0.34332 0.0
Cd309 Cd 0.4639 0.16295 0.32829 0.0
Cd310 Cd 0.47292 0.12272 0.36125 0.0
O311 O 0.48584 0.18208 0.36385 0.0
O312 O 0.46351 0.19019 0.30165 0.0
O313 O 0.47971 0.13674 0.31075 0.0
C314 C 0.47558 0.16764 0.29818 0.0
C315 C 0.48217 0.04754 0.36552 0.0
C316 C 0.48186 0.21959 0.35556 0.0
C317 C 0.44 0.13131 0.35411 0.0
O318 O 0.45043 0.12857 0.36646 0.0
O319 O 0.443 0.1387 0.33625 0.0
O320 O 0.48 0.07495 0.38011 0.0
O321 O 0.47986 0.06391 0.34828 0.0
O322 O 0.29547 0.5415 0.34963 0.0
Cd323 Cd 0.30727 0.5811 0.33066 0.0
Cd324 Cd 0.30181 0.64404 0.36381 0.0
O325 O 0.28905 0.58866 0.37356 0.0
O326 O 0.30736 0.53739 0.30799 0.0
O327 O 0.29487 0.60345 0.30811 0.0
C328 C 0.29765 0.56387 0.29991 0.0
C329 C 0.29348 0.72045 0.36894 0.0
C330 C 0.28847 0.54918 0.36526 0.0
C331 C 0.33372 0.61658 0.35296 0.0
O332 O 0.32457 0.63676 0.36424 0.0
O333 O 0.3293 0.59418 0.33804 0.0
O334 O 0.29813 0.69485 0.38303 0.0
O335 O 0.29308 0.70214 0.35179 0.0
O336 O 0.55424 0.98129 0.09114 0.0
Cd337 Cd 0.56086 0.92384 0.07617 0.0
Cd338 Cd 0.55122 0.88496 0.10868 0.0
O339 O 0.53849 0.94508 0.11029 0.0
O340 O 0.56124 0.94965 0.0493 0.0
O341 O 0.54446 0.89896 0.05946 0.0
C342 C 0.54879 0.92864 0.04648 0.0
C343 C 0.54169 0.81003 0.11267 0.0
C344 C 0.5432 0.98242 0.1025 0.0
C345 C 0.58417 0.89015 0.10199 0.0
O346 O 0.57368 0.88976 0.11434 0.0
O347 O 0.58131 0.89652 0.08404 0.0
O348 O 0.54353 0.83749 0.12732 0.0
O349 O 0.54442 0.82631 0.09551 0.0
O350 O 0.72719 0.29181 0.09962 0.0
Cd351 Cd 0.71535 0.33113 0.08064 0.0
Cd352 Cd 0.72081 0.3944 0.11382 0.0
O353 O 0.73351 0.33897 0.12359 0.0
O354 O 0.71539 0.28723 0.05804 0.0
O355 O 0.72774 0.35358 0.05804 0.0
C356 C 0.72508 0.31384 0.04991 0.0
C357 C 0.72917 0.47081 0.11891 0.0
C358 C 0.73414 0.29954 0.11525 0.0
C359 C 0.68888 0.36706 0.10295 0.0
O360 O 0.69803 0.38726 0.11418 0.0
O361 O 0.69331 0.34442 0.08807 0.0
O362 O 0.72445 0.44528 0.13301 0.0
O363 O 0.72961 0.45242 0.10178 0.0
O364 O 0.54705 0.2893 0.1575 0.0
Cd365 Cd 0.55868 0.32992 0.17619 0.0
Cd366 Cd 0.55237 0.39259 0.14316 0.0
O367 O 0.53961 0.33649 0.1341 0.0
O368 O 0.559 0.28703 0.19913 0.0
O369 O 0.54608 0.35229 0.19857 0.0
C370 C 0.54905 0.31313 0.20699 0.0
C371 C 0.54378 0.46868 0.13783 0.0
C372 C 0.53957 0.2968 0.14228 0.0
C373 C 0.58461 0.3671 0.15336 0.0
O374 O 0.57518 0.38631 0.14223 0.0
O375 O 0.58055 0.34469 0.16847 0.0
O376 O 0.54831 0.44274 0.12376 0.0
O377 O 0.54363 0.45085 0.15507 0.0
O378 O 0.71819 0.98143 0.1656 0.0
Cd379 Cd 0.71185 0.92183 0.1793 0.0
Cd380 Cd 0.72146 0.8873 0.14643 0.0
O381 O 0.73397 0.94797 0.14566 0.0
O382 O 0.7119 0.94377 0.20673 0.0
O383 O 0.72852 0.89465 0.1949 0.0
C384 C 0.72441 0.92253 0.20867 0.0
C385 C 0.73115 0.81261 0.14277 0.0
C386 C 0.72916 0.98426 0.15418 0.0
C387 C 0.68856 0.89033 0.15299 0.0
O388 O 0.69903 0.89174 0.14063 0.0
O389 O 0.69142 0.89484 0.17104 0.0
O390 O 0.72951 0.83994 0.12802 0.0
O391 O 0.72814 0.82897 0.15984 0.0
O392 O 0.47096 0.0304 0.9124 0.0
Cd393 Cd 0.46345 0.086 0.92786 0.0
Cd394 Cd 0.4728 0.1278 0.89521 0.0
O395 O 0.48579 0.06853 0.89258 0.0
O396 O 0.46283 0.05769 0.9543 0.0
O397 O 0.47921 0.11109 0.94558 0.0
C398 C 0.47495 0.0798 0.95793 0.0
C399 C 0.48198 0.20316 0.89097 0.0
C400 C 0.48165 0.03064 0.90045 0.0
C401 C 0.43984 0.11906 0.90215 0.0
O402 O 0.45034 0.12195 0.88987 0.0
O403 O 0.44271 0.11116 0.91999 0.0
O404 O 0.47993 0.17571 0.87638 0.0
O405 O 0.47963 0.18674 0.9082 0.0
O406 O 0.29546 0.70847 0.90643 0.0
Cd407 Cd 0.3074 0.66979 0.92552 0.0
Cd408 Cd 0.30214 0.60562 0.8924 0.0
O409 O 0.28942 0.66091 0.88245 0.0
O410 O 0.3072 0.71383 0.94809 0.0
O411 O 0.29508 0.64706 0.94812 0.0
C412 C 0.29761 0.6869 0.95624 0.0
C413 C 0.29394 0.52905 0.88709 0.0
C414 C 0.28863 0.7004 0.89074 0.0
C415 C 0.33397 0.63399 0.90338 0.0
O416 O 0.32491 0.61309 0.89226 0.0
O417 O 0.32948 0.65711 0.9181 0.0
O418 O 0.29872 0.55478 0.87309 0.0
O419 O 0.29334 0.5473 0.90423 0.0
O420 O 0.47431 0.72257 0.84519 0.0
Cd421 Cd 0.46315 0.67817 0.82755 0.0
Cd422 Cd 0.47031 0.62004 0.8606 0.0
O423 O 0.4832 0.67707 0.86827 0.0
O424 O 0.46286 0.71696 0.80342 0.0
O425 O 0.47616 0.65275 0.8062 0.0
C426 C 0.47311 0.6903 0.79661 0.0
C427 C 0.47928 0.5444 0.86569 0.0
C428 C 0.48248 0.71648 0.85991 0.0
C429 C 0.43774 0.6423 0.85139 0.0
O430 O 0.44751 0.62552 0.86271 0.0
O431 O 0.44142 0.66259 0.8356 0.0
O432 O 0.47524 0.57059 0.87994 0.0
O433 O 0.47877 0.56183 0.84839 0.0
O434 O 0.30592 0.01754 0.84088 0.0
Cd435 Cd 0.31211 0.07668 0.82675 0.0
Cd436 Cd 0.30196 0.11252 0.85916 0.0
O437 O 0.28949 0.05169 0.8597 0.0
O438 O 0.31229 0.05397 0.7994 0.0
O439 O 0.29532 0.10228 0.81099 0.0
C440 C 0.29963 0.07432 0.79736 0.0
C441 C 0.2922 0.18721 0.86273 0.0
C442 C 0.29462 0.01508 0.85176 0.0
C443 C 0.33492 0.1102 0.85323 0.0
O444 O 0.32433 0.10846 0.86541 0.0
O445 O 0.33227 0.10532 0.83515 0.0
O446 O 0.29368 0.15977 0.87747 0.0
O447 O 0.29538 0.17095 0.8457 0.0
H448 H 0.0299 0.76257 0.11028 0.0
H449 H 0.02871 0.4961 0.14157 0.0
H450 H 0.03307 0.71261 0.16924 0.0
H451 H 0.03674 0.54639 0.08343 0.0
H452 H 0.02097 0.57486 0.15107 0.0
H453 H 0.02296 0.68377 0.09984 0.0
C454 C 0.02874 0.7353 0.12106 0.0
C455 C 0.03246 0.74342 0.1405 0.0
C456 C 0.02412 0.56831 0.13613 0.0
C457 C 0.02464 0.65394 0.12881 0.0
C458 C 0.02851 0.52346 0.13074 0.0
C459 C 0.03378 0.51537 0.1119 0.0
C460 C 0.02499 0.6048 0.12251 0.0
C461 C 0.03316 0.55171 0.09829 0.0
C462 C 0.02483 0.6904 0.11513 0.0
C463 C 0.03068 0.70721 0.15398 0.0
N464 N 0.02909 0.59506 0.10393 0.0
N465 N 0.02713 0.6638 0.14785 0.0
H466 H 0.2381 0.70962 0.08374 0.0
H467 H 0.23974 0.53783 0.17124 0.0
H468 H 0.24303 0.75431 0.14321 0.0
H469 H 0.2422 0.49313 0.1115 0.0
H470 H 0.2468 0.61618 0.16134 0.0
H471 H 0.24539 0.63116 0.09313 0.0
C472 C 0.24096 0.70293 0.09877 0.0
C473 C 0.23959 0.73794 0.11287 0.0
C474 C 0.24612 0.58918 0.15038 0.0
C475 C 0.24771 0.64814 0.12378 0.0
C476 C 0.24204 0.54448 0.15603 0.0
C477 C 0.24002 0.50953 0.14205 0.0
C478 C 0.24783 0.59921 0.13056 0.0
C479 C 0.24345 0.51944 0.12265 0.0
C480 C 0.2452 0.65817 0.10412 0.0
C481 C 0.24375 0.72796 0.13199 0.0
N482 N 0.24684 0.56382 0.11738 0.0
N483 N 0.24728 0.68353 0.13701 0.0
H484 H 0.98472 0.29584 0.83064 0.0
H485 H 0.99338 0.46711 0.91782 0.0
H486 H 0.99338 0.25068 0.88931 0.0
H487 H 0.99091 0.51197 0.85813 0.0
H488 H 0.99953 0.38872 0.90694 0.0
H489 H 0.99277 0.37407 0.83924 0.0
C490 C 0.98851 0.30239 0.84532 0.0
C491 C 0.98801 0.26727 0.85948 0.0
C492 C 0.998 0.41578 0.89617 0.0
C493 C 0.99707 0.35686 0.86949 0.0
C494 C 0.99447 0.46052 0.90238 0.0
C495 C 0.9913 0.49549 0.88878 0.0
C496 C 0.99796 0.40576 0.87622 0.0
C497 C 0.99311 0.48566 0.86902 0.0
C498 C 0.99319 0.34702 0.8502 0.0
C499 C 0.99339 0.27711 0.87809 0.0
N500 N 0.99596 0.44123 0.86328 0.0
N501 N 0.99738 0.32142 0.8827 0.0
H502 H 0.78785 0.44873 0.83175 0.0
H503 H 0.78006 0.27721 0.91895 0.0
H504 H 0.77996 0.49381 0.89064 0.0
H505 H 0.78157 0.23268 0.85915 0.0
H506 H 0.77388 0.35576 0.90833 0.0
H507 H 0.77972 0.37064 0.84048 0.0
C508 C 0.7842 0.44218 0.84651 0.0
C509 C 0.78495 0.47721 0.86068 0.0
C510 C 0.77521 0.32874 0.89749 0.0
C511 C 0.77582 0.38779 0.87084 0.0
C512 C 0.77876 0.28391 0.90355 0.0
C513 C 0.78168 0.24897 0.88983 0.0
C514 C 0.77495 0.33887 0.87755 0.0
C515 C 0.77958 0.25896 0.87013 0.0
C516 C 0.77948 0.39764 0.85146 0.0
C517 C 0.77975 0.46743 0.8794 0.0
N518 N 0.77671 0.30345 0.86452 0.0
N519 N 0.77572 0.42318 0.88408 0.0
H520 H 0.02596 0.01587 0.63104 0.0
H521 H 0.03775 0.28045 0.60138 0.0
H522 H 0.04704 0.06338 0.57832 0.0
H523 H 0.02372 0.23394 0.65806 0.0
H524 H 0.03282 0.20225 0.58862 0.0
H525 H 0.01743 0.09572 0.63708 0.0
C526 C 0.02861 0.04293 0.62063 0.0
C527 C 0.0376 0.03343 0.60451 0.0
C528 C 0.03042 0.20954 0.60374 0.0
C529 C 0.02783 0.12427 0.61115 0.0
C530 C 0.0331 0.25426 0.61094 0.0
C531 C 0.03147 0.263 0.63083 0.0
C532 C 0.02615 0.17381 0.61661 0.0
C533 C 0.02543 0.22801 0.64268 0.0
C534 C 0.02371 0.08841 0.62403 0.0
C535 C 0.04051 0.06953 0.59128 0.0
N536 N 0.02328 0.18461 0.63548 0.0
N537 N 0.03582 0.11345 0.59503 0.0
H538 H 0.24614 0.00488 0.62041 0.0
H539 H 0.23778 0.2705 0.65055 0.0
H540 H 0.23128 0.0539 0.6764 0.0
H541 H 0.24528 0.22185 0.59208 0.0
H542 H 0.244 0.19259 0.66269 0.0
H543 H 0.25404 0.08448 0.61244 0.0
C544 C 0.2448 0.0322 0.63112 0.0
C545 C 0.23764 0.02331 0.6488 0.0
C546 C 0.24466 0.19934 0.64723 0.0
C547 C 0.24663 0.11381 0.63994 0.0
C548 C 0.24121 0.24384 0.64035 0.0
C549 C 0.24065 0.25195 0.62032 0.0
C550 C 0.2475 0.16318 0.6339 0.0
C551 C 0.24523 0.21642 0.60765 0.0
C552 C 0.2493 0.07754 0.62661 0.0
C553 C 0.23634 0.05968 0.66233 0.0
N554 N 0.24818 0.17328 0.61462 0.0
N555 N 0.24058 0.10346 0.65751 0.0
H556 H 0.98896 0.01356 0.35875 0.0
H557 H 0.99497 0.74769 0.38938 0.0
H558 H 0.9922 0.96404 0.41776 0.0
H559 H 0.98443 0.79703 0.33182 0.0
H560 H 1.00242 0.82709 0.3983 0.0
H561 H 0.99597 0.93571 0.34723 0.0
C562 C 0.99157 0.98668 0.36925 0.0
C563 C 0.98961 0.99455 0.38916 0.0
C564 C 0.99876 0.82026 0.3836 0.0
C565 C 0.99742 0.90594 0.37625 0.0
C566 C 0.99453 0.77501 0.37854 0.0
C567 C 0.98866 0.76634 0.36007 0.0
C568 C 0.99709 0.85664 0.37004 0.0
C569 C 0.98848 0.80271 0.34644 0.0
C570 C 0.9955 0.94225 0.36272 0.0
C571 C 0.99321 0.95879 0.40223 0.0
N572 N 0.99238 0.84642 0.35178 0.0
N573 N 0.99667 0.91576 0.39555 0.0
H574 H 0.79297 0.81007 0.42835 0.0
H575 H 0.77342 0.98504 0.34483 0.0
H576 H 0.77774 0.76782 0.37165 0.0
H577 H 0.78719 0.02695 0.40216 0.0
H578 H 0.76811 0.90718 0.35712 0.0
H579 H 0.78466 0.88911 0.42178 0.0
C580 C 0.78774 0.81745 0.41453 0.0
C581 C 0.78642 0.78278 0.40026 0.0
C582 C 0.77191 0.93358 0.36718 0.0
C583 C 0.77695 0.87341 0.3926 0.0
C584 C 0.77488 0.97809 0.36019 0.0
C585 C 0.78103 0.01193 0.37247 0.0
C586 C 0.77543 0.92267 0.38649 0.0
C587 C 0.78257 1.00158 0.39222 0.0
C588 C 0.78291 0.86257 0.41085 0.0
C589 C 0.77918 0.79381 0.38289 0.0
N590 N 0.78017 0.95734 0.39855 0.0
N591 N 0.775 0.83854 0.37936 0.0
H592 H 0.52898 0.72149 0.66563 0.0
H593 H 0.5396 0.54915 0.57966 0.0
H594 H 0.53159 0.76547 0.60582 0.0
H595 H 0.52878 0.50456 0.63783 0.0
H596 H 0.53122 0.62742 0.58763 0.0
H597 H 0.52301 0.64283 0.65495 0.0
C598 C 0.52795 0.71464 0.65021 0.0
C599 C 0.53113 0.74943 0.63652 0.0
C600 C 0.5304 0.60048 0.5986 0.0
C601 C 0.52468 0.65944 0.62418 0.0
C602 C 0.53529 0.55586 0.5941 0.0
C603 C 0.53527 0.5209 0.60833 0.0
C604 C 0.5258 0.61049 0.61762 0.0
C605 C 0.5292 0.53089 0.62658 0.0
C606 C 0.52452 0.66976 0.64411 0.0
C607 C 0.5294 0.73928 0.61678 0.0
N608 N 0.52502 0.57521 0.63087 0.0
N609 N 0.52666 0.69473 0.61115 0.0
H610 H 0.73884 0.71079 0.58504 0.0
H611 H 0.73811 0.54099 0.67328 0.0
H612 H 0.7415 0.75691 0.64455 0.0
H613 H 0.74256 0.49502 0.61391 0.0
H614 H 0.74522 0.61933 0.66345 0.0
H615 H 0.7461 0.6328 0.59516 0.0
C616 C 0.74122 0.70452 0.60024 0.0
C617 C 0.73921 0.73976 0.61411 0.0
C618 C 0.74496 0.59208 0.65258 0.0
C619 C 0.74725 0.6505 0.62585 0.0
C620 C 0.74084 0.54737 0.65817 0.0
C621 C 0.73938 0.51203 0.64424 0.0
C622 C 0.74727 0.60171 0.63282 0.0
C623 C 0.74336 0.52163 0.625 0.0
C624 C 0.74542 0.66004 0.60601 0.0
C625 C 0.74274 0.73036 0.6335 0.0
N626 N 0.74678 0.566 0.61974 0.0
N627 N 0.74624 0.68617 0.6389 0.0
H628 H 0.48821 0.51185 0.35819 0.0
H629 H 0.49607 0.24654 0.38905 0.0
H630 H 0.4929 0.4631 0.41714 0.0
H631 H 0.48385 0.29472 0.33189 0.0
H632 H 0.50332 0.32639 0.39751 0.0
H633 H 0.49525 0.43412 0.34655 0.0
C634 C 0.49115 0.48518 0.36863 0.0
C635 C 0.4896 0.49319 0.38858 0.0
C636 C 0.49933 0.31922 0.38299 0.0
C637 C 0.49743 0.40473 0.37555 0.0
C638 C 0.49521 0.27371 0.37819 0.0
C639 C 0.48894 0.26453 0.36 0.0
C640 C 0.49715 0.35535 0.36945 0.0
C641 C 0.48822 0.30075 0.34632 0.0
C642 C 0.49509 0.44081 0.36203 0.0
C643 C 0.4936 0.45772 0.40158 0.0
N644 N 0.49204 0.3447 0.35142 0.0
N645 N 0.49707 0.41474 0.39485 0.0
H646 H 0.28656 0.52667 0.40386 0.0
H647 H 0.27608 0.26198 0.3736 0.0
H648 H 0.27374 0.48022 0.34674 0.0
H649 H 0.29581 0.30974 0.42709 0.0
H650 H 0.26746 0.34165 0.36734 0.0
H651 H 0.28155 0.44828 0.41639 0.0
C652 C 0.28217 0.50043 0.39413 0.0
C653 C 0.2809 0.50928 0.37421 0.0
C654 C 0.27346 0.33442 0.3806 0.0
C655 C 0.27551 0.41987 0.38818 0.0
C656 C 0.2784 0.28905 0.38413 0.0
C657 C 0.28706 0.27971 0.40055 0.0
C658 C 0.27718 0.37032 0.39365 0.0
C659 C 0.28956 0.3158 0.41391 0.0
C660 C 0.27944 0.45561 0.40121 0.0
C661 C 0.27517 0.47423 0.36216 0.0
N662 N 0.28483 0.3596 0.41005 0.0
N663 N 0.27298 0.43072 0.36924 0.0
H664 H 0.53609 0.27474 0.10379 0.0
H665 H 0.52643 0.00965 0.13395 0.0
H666 H 0.52583 0.22717 0.16169 0.0
H667 H 0.54351 0.05802 0.07894 0.0
H668 H 0.51822 0.08933 0.14117 0.0
H669 H 0.53032 0.19674 0.09139 0.0
C670 C 0.53212 0.24833 0.11376 0.0
C671 C 0.53179 0.25674 0.13378 0.0
C672 C 0.52353 0.08223 0.12737 0.0
C673 C 0.52549 0.1678 0.11994 0.0
C674 C 0.52822 0.03684 0.12329 0.0
C675 C 0.53606 0.02773 0.10614 0.0
C676 C 0.52669 0.11833 0.11414 0.0
C677 C 0.53791 0.06395 0.09264 0.0
C678 C 0.52895 0.20374 0.10675 0.0
C679 C 0.52656 0.2215 0.14616 0.0
N680 N 0.53347 0.10776 0.09705 0.0
N681 N 0.52391 0.17824 0.1391 0.0
H682 H 0.72887 0.05709 0.17923 0.0
H683 H 0.75003 0.23324 0.0967 0.0
H684 H 0.74549 0.01568 0.12302 0.0
H685 H 0.73495 0.27441 0.1536 0.0
H686 H 0.75517 0.15532 0.10904 0.0
H687 H 0.73713 0.13638 0.17305 0.0
C688 C 0.73439 0.0647 0.1656 0.0
C689 C 0.73612 0.03016 0.15134 0.0
C690 C 0.75111 0.18158 0.11901 0.0
C691 C 0.74556 0.12109 0.14414 0.0
C692 C 0.74825 0.22613 0.11199 0.0
C693 C 0.74179 0.25976 0.12411 0.0
C694 C 0.74716 0.17044 0.13817 0.0
C695 C 0.73982 0.2492 0.14379 0.0
C696 C 0.73919 0.10997 0.16214 0.0
C697 C 0.74372 0.04154 0.13424 0.0
N698 N 0.74212 0.20493 0.15012 0.0
N699 N 0.74788 0.08639 0.13092 0.0
H700 H 0.48877 0.73883 0.8978 0.0
H701 H 0.49612 0.00427 0.86701 0.0
H702 H 0.49395 0.78748 0.83889 0.0
H703 H 0.48375 0.95557 0.92408 0.0
H704 H 0.50369 0.92466 0.85856 0.0
H705 H 0.49557 0.81667 0.90949 0.0
C706 C 0.49178 0.76549 0.88738 0.0
C707 C 0.49042 0.75739 0.86742 0.0
C708 C 0.49959 0.93167 0.87306 0.0
C709 C 0.49796 0.84606 0.8805 0.0
C710 C 0.4953 0.97704 0.87785 0.0
C711 C 0.48889 0.98597 0.89601 0.0
C712 C 0.49747 0.89544 0.88659 0.0
C713 C 0.48822 0.94971 0.90967 0.0
C714 C 0.49558 0.80994 0.89401 0.0
C715 C 0.49451 0.7929 0.85445 0.0
N716 N 0.49222 0.9059 0.90459 0.0
N717 N 0.49782 0.83598 0.8612 0.0
H718 H 0.27249 0.76681 0.90888 0.0
H719 H 0.29531 0.94201 0.82687 0.0
H720 H 0.28819 0.72507 0.85234 0.0
H721 H 0.27764 0.9842 0.88241 0.0
H722 H 0.28676 0.86294 0.83285 0.0
H723 H 0.26763 0.84473 0.89635 0.0
C724 C 0.27446 0.77379 0.89361 0.0
C725 C 0.28102 0.73999 0.88166 0.0
C726 C 0.28454 0.88947 0.84365 0.0
C727 C 0.27597 0.82932 0.86741 0.0
C728 C 0.28952 0.9346 0.84032 0.0
C729 C 0.28756 0.96928 0.85446 0.0
C730 C 0.27779 0.8786 0.86144 0.0
C731 C 0.2796 0.9582 0.87131 0.0
C732 C 0.27175 0.81834 0.88649 0.0
C733 C 0.28323 0.75039 0.86202 0.0
N734 N 0.27527 0.91346 0.87454 0.0
N735 N 0.28108 0.79467 0.85559 0.0
H736 H 0.97048 0.50141 0.98165 0.0
H737 H 0.05378 0.49719 0.02155 0.0
H738 H 1.00319 0.60534 0.9672 0.0
H739 H 0.02053 0.39736 0.03872 0.0
H740 H 0.03566 0.53509 1.00054 0.0
H741 H 0.98849 0.46319 0.00276 0.0
C742 C 0.98136 0.51677 0.98319 0.0
C743 C 0.98527 0.55683 0.97261 0.0
C744 C 0.03234 0.50466 0.00876 0.0
C745 C 1.00616 0.51233 0.99648 0.0
C746 C 0.04275 0.48262 0.02064 0.0
C747 C 0.03873 0.44385 0.03196 0.0
C748 C 0.01773 0.48802 0.00815 0.0
C749 C 0.02419 0.42693 0.03021 0.0
C750 C 0.9917 0.4946 0.99513 0.0
C751 C 0.99961 0.57477 0.97512 0.0
N752 N 0.01422 0.44927 0.01867 0.0
N753 N 1.00954 0.55222 0.98665 0.0
H754 H 0.27246 0.64758 0.97149 0.0
H755 H 0.25201 0.86699 0.03857 0.0
H756 H 0.30053 0.76855 0.97661 0.0
H757 H 0.22131 0.75715 0.02419 0.0
H758 H 0.27033 0.83106 0.01696 0.0
H759 H 0.25449 0.68479 0.9931 0.0
C760 C 0.275 0.68157 0.97744 0.0
C761 C 0.28807 0.70486 0.97219 0.0
C762 C 0.25952 0.81512 0.01839 0.0
C763 C 0.26733 0.74825 0.99671 0.0
C764 C 0.24899 0.83589 0.0306 0.0
C765 C 0.23504 0.81522 0.03322 0.0
C766 C 0.25615 0.77308 0.00887 0.0
C767 C 0.23187 0.77453 0.02263 0.0
C768 C 0.26463 0.70309 0.98962 0.0
C769 C 0.29063 0.74918 0.98025 0.0
N770 N 0.24236 0.75465 0.01111 0.0
N771 N 0.28035 0.76946 0.99202 0.0
H772 H 0.02033 0.85773 0.21701 0.0
H773 H 1.00287 0.64307 0.28834 0.0
H774 H 0.05228 0.75161 0.23149 0.0
H775 H 0.97045 0.74549 0.27131 0.0
H776 H 0.02108 0.6817 0.26745 0.0
H777 H 1.00226 0.81888 0.23798 0.0
C778 C 0.02367 0.82682 0.22489 0.0
C779 C 0.0379 0.80806 0.22245 0.0
C780 C 1.00994 0.69547 0.26814 0.0
C781 C 0.01707 0.76257 0.24619 0.0
C782 C 0.99947 0.67308 0.27992 0.0
C783 C 0.98505 0.69089 0.28161 0.0
C784 C 1.00601 0.73618 0.258 0.0
C785 C 0.98139 0.73032 0.27047 0.0
C786 C 0.01327 0.80429 0.23671 0.0
C787 C 0.04147 0.7675 0.23292 0.0
N788 N 0.99181 0.75175 0.2593 0.0
N789 N 0.03113 0.74603 0.2442 0.0
H790 H 0.2203 0.49362 0.23254 0.0
H791 H 0.30156 0.48391 0.27871 0.0
H792 H 0.25215 0.3872 0.21792 0.0
H793 H 0.27181 0.60031 0.28552 0.0
H794 H 0.28358 0.44661 0.2572 0.0
H795 H 0.23849 0.52964 0.25396 0.0
C796 C 0.23103 0.47723 0.23409 0.0
C797 C 0.23465 0.43717 0.22335 0.0
C798 C 0.28104 0.48051 0.26324 0.0
C799 C 0.25574 0.47909 0.2477 0.0
C800 C 0.29136 0.50206 0.27542 0.0
C801 C 0.28824 0.54548 0.28395 0.0
C802 C 0.26739 0.5022 0.25966 0.0
C803 C 0.27477 0.56704 0.27921 0.0
C804 C 0.24149 0.4982 0.2462 0.0
C805 C 0.2488 0.41788 0.22595 0.0
N806 N 0.26481 0.54503 0.26756 0.0
N807 N 0.25884 0.43914 0.23776 0.0
H808 H 0.77076 0.12937 0.96958 0.0
H809 H 0.75012 0.35304 0.03422 0.0
H810 H 0.80065 0.24379 0.9802 0.0
H811 H 0.72218 0.23156 0.03002 0.0
H812 H 0.76802 0.31536 0.01265 0.0
H813 H 0.75261 0.1662 0.99115 0.0
C814 C 0.77365 0.16173 0.97673 0.0
C815 C 0.78731 0.18336 0.97305 0.0
C816 C 0.75792 0.29705 0.01632 0.0
C817 C 0.76638 0.22646 0.99739 0.0
C818 C 0.74759 0.31883 0.02848 0.0
C819 C 0.73457 0.29555 0.03397 0.0
C820 C 0.75525 0.25161 0.00953 0.0
C821 C 0.73203 0.25095 0.02619 0.0
C822 C 0.7632 0.18301 0.98891 0.0
C823 C 0.79031 0.22564 0.9826 0.0
N824 N 0.74228 0.2304 0.01447 0.0
N825 N 0.77991 0.24591 0.99415 0.0
H826 H 1.00163 0.13613 0.78784 0.0
H827 H 0.02189 0.35475 0.72021 0.0
H828 H 0.97048 0.24331 0.77181 0.0
H829 H 0.0504 0.23511 0.72625 0.0
H830 H 1.00382 0.31708 0.74156 0.0
H831 H 0.02008 0.17245 0.76651 0.0
C832 C 0.99855 0.16671 0.77957 0.0
C833 C 0.98442 0.18653 0.78164 0.0
C834 C 0.01408 0.29918 0.73833 0.0
C835 C 1.00567 0.22914 0.75762 0.0
C836 C 0.0245 0.32096 0.72632 0.0
C837 C 0.03773 0.29817 0.7214 0.0
C838 C 0.01689 0.25426 0.74562 0.0
C839 C 0.04038 0.25409 0.72963 0.0
C840 C 1.00915 0.18771 0.76752 0.0
C841 C 0.98118 0.22658 0.77068 0.0
N842 N 0.03005 0.23355 0.74125 0.0
N843 N 0.99173 0.24672 0.75933 0.0
H844 H 0.75303 0.39121 0.71706 0.0
H845 H 0.77071 0.60159 0.79039 0.0
H846 H 0.72071 0.49351 0.73469 0.0
H847 H 0.80322 0.50107 0.77161 0.0
H848 H 0.75237 0.56349 0.76964 0.0
H849 H 0.77133 0.42943 0.73783 0.0
C850 C 0.74967 0.4211 0.7256 0.0
C851 C 0.73526 0.43902 0.7241 0.0
C852 C 0.76355 0.55002 0.76992 0.0
C853 C 0.75633 0.48384 0.7476 0.0
C854 C 0.7741 0.57213 0.78162 0.0
C855 C 0.78859 0.55467 0.78278 0.0
C856 C 0.76747 0.50996 0.75932 0.0
C857 C 0.79223 0.51595 0.77119 0.0
C858 C 0.76019 0.44329 0.7373 0.0
C859 C 0.73165 0.47829 0.73538 0.0
N860 N 0.78174 0.49477 0.7601 0.0
N861 N 0.74212 0.49949 0.74651 0.0
H862 H 0.96855 0.99266 0.48405 0.0
H863 H 0.05311 0.98895 0.51856 0.0
H864 H 1.00041 0.09864 0.4689 0.0
H865 H 0.01986 0.89787 0.54276 0.0
H866 H 0.03422 0.02501 0.49822 0.0
H867 H 0.98709 0.95565 0.50483 0.0
C868 C 0.97935 0.00872 0.48538 0.0
C869 C 0.98288 0.04899 0.4747 0.0
C870 C 0.03105 0.99689 0.50786 0.0
C871 C 1.00434 0.00585 0.49808 0.0
C872 C 0.04189 0.97582 0.51934 0.0
C873 C 0.03812 0.94017 0.53245 0.0
C874 C 0.01626 0.98226 0.50936 0.0
C875 C 0.02332 0.92505 0.53285 0.0
C876 C 0.98998 0.98728 0.49713 0.0
C877 C 0.99712 0.06788 0.47692 0.0
N878 N 0.01294 0.9463 0.52157 0.0
N879 N 1.00734 0.04591 0.48818 0.0
H880 H 0.30336 0.23986 0.4866 0.0
H881 H 0.21962 0.23976 0.52475 0.0
H882 H 0.27024 0.14552 0.46448 0.0
H883 H 0.25085 0.34969 0.53678 0.0
H884 H 0.23798 0.2026 0.50363 0.0
H885 H 0.28464 0.27584 0.5073 0.0
C886 C 0.29222 0.22602 0.48635 0.0
C887 C 0.28843 0.18945 0.47372 0.0
C888 C 0.24076 0.23511 0.51072 0.0
C889 C 0.26675 0.2314 0.49725 0.0
C890 C 0.23023 0.2566 0.52267 0.0
C891 C 0.23365 0.29809 0.53256 0.0
C892 C 0.25491 0.25484 0.50879 0.0
C893 C 0.24765 0.31797 0.52939 0.0
C894 C 0.28147 0.24703 0.49804 0.0
C895 C 0.27372 0.17343 0.474 0.0
N896 N 0.25779 0.29596 0.51797 0.0
N897 N 0.26342 0.19462 0.48549 0.0
H898 H 0.21945 0.98982 0.7382 0.0
H899 H 0.30492 0.01234 0.76786 0.0
H900 H 0.25389 0.90172 0.71501 0.0
H901 H 0.27034 0.09735 0.79265 0.0
H902 H 0.28652 0.97361 0.74753 0.0
H903 H 0.2378 0.02878 0.75855 0.0
C904 C 0.23082 0.97797 0.73765 0.0
C905 C 0.23509 0.94226 0.72484 0.0
C906 C 0.28296 1.00103 0.75728 0.0
C907 C 0.25631 0.98777 0.74785 0.0
C908 C 0.29351 0.02359 0.76877 0.0
C909 C 0.28922 0.05833 0.78203 0.0
C910 C 0.26795 0.01307 0.75902 0.0
C911 C 0.27421 0.071 0.7826 0.0
C912 C 0.24134 1.00063 0.74916 0.0
C913 C 0.25004 0.92883 0.72471 0.0
N914 N 0.26412 0.04818 0.7714 0.0
N915 N 0.2601 0.95181 0.73589 0.0
H916 H 0.76977 0.65017 0.46493 0.0
H917 H 0.75237 0.85754 0.53987 0.0
H918 H 0.80278 0.74558 0.48651 0.0
H919 H 0.72005 0.75481 0.52276 0.0
H920 H 0.77058 0.81946 0.51888 0.0
H921 H 0.75133 0.6879 0.48576 0.0
C922 C 0.77323 0.6784 0.47432 0.0
C923 C 0.78791 0.69455 0.47395 0.0
C924 C 0.75947 0.80546 0.51958 0.0
C925 C 0.7667 0.73888 0.49748 0.0
C926 C 0.74899 0.82757 0.53141 0.0
C927 C 0.7346 0.80949 0.53312 0.0
C928 C 0.75558 0.76487 0.50933 0.0
C929 C 0.73098 0.77014 0.52191 0.0
C930 C 0.76265 0.70029 0.48608 0.0
C931 C 0.79165 0.73172 0.48632 0.0
N932 N 0.74139 0.74906 0.51061 0.0
N933 N 0.78112 0.75278 0.49742 0.0
H934 H 0.75265 0.89062 0.21565 0.0
H935 H 0.77221 0.10592 0.28513 0.0
H936 H 0.72052 0.99063 0.23599 0.0
H937 H 0.8016 0.98896 0.27726 0.0
H938 H 0.75413 0.06775 0.26406 0.0
H939 H 0.77131 0.92743 0.23644 0.0
C940 C 0.74942 0.91966 0.22476 0.0
C941 C 0.73494 0.93738 0.22406 0.0
C942 C 0.76459 0.05058 0.26681 0.0
C943 C 0.75639 0.98064 0.24742 0.0
C944 C 0.77501 0.07267 0.27866 0.0
C945 C 0.78848 0.0507 0.28302 0.0
C946 C 0.76764 0.00622 0.25912 0.0
C947 C 0.79138 0.00728 0.27432 0.0
C948 C 0.76013 0.94095 0.23649 0.0
C949 C 0.73149 0.97553 0.23606 0.0
N950 N 0.78104 0.98641 0.26287 0.0
N951 N 0.74215 0.99609 0.24704 0.0
H952 H 0.46868 0.487 0.48324 0.0
H953 H 0.55272 0.48753 0.52011 0.0
H954 H 0.50008 0.59547 0.4696 0.0
H955 H 0.51995 0.39084 0.54148 0.0
H956 H 0.53391 0.52356 0.49963 0.0
H957 H 0.48722 0.44993 0.50399 0.0
C958 C 0.47938 0.50357 0.48489 0.0
C959 C 0.48278 0.54459 0.47465 0.0
C960 C 0.53083 0.49422 0.50867 0.0
C961 C 0.50425 0.50143 0.49802 0.0
C962 C 0.54164 0.47319 0.52024 0.0
C963 C 0.53797 0.43594 0.53259 0.0
C964 C 0.51618 0.47797 0.50936 0.0
C965 C 0.52334 0.41928 0.53216 0.0
C966 C 0.49001 0.4821 0.49663 0.0
C967 C 0.49689 0.56411 0.47728 0.0
N968 N 0.51298 0.44055 0.52084 0.0
N969 N 0.50712 0.54216 0.48853 0.0
H970 H 0.51946 0.86982 0.71521 0.0
H971 H 0.49891 0.65139 0.78305 0.0
H972 H 0.54953 0.75705 0.72775 0.0
H973 H 0.46989 0.76889 0.77436 0.0
H974 H 0.51704 0.68782 0.76142 0.0
H975 H 0.50112 0.8337 0.73669 0.0
C976 C 0.52234 0.83799 0.72276 0.0
C977 C 0.53612 0.8166 0.71965 0.0
C978 C 0.50665 0.70548 0.7641 0.0
C979 C 0.51496 0.77427 0.74391 0.0
C980 C 0.4962 0.68439 0.7763 0.0
C981 C 0.4828 0.70699 0.78056 0.0
C982 C 0.50373 0.74959 0.75606 0.0
C983 C 0.48003 0.75005 0.77151 0.0
C984 C 0.51178 0.81708 0.73488 0.0
C985 C 0.5391 0.77498 0.7297 0.0
N986 N 0.49042 0.77001 0.75981 0.0
N987 N 0.5286 0.75509 0.74122 0.0
H988 H 0.47089 0.2371 0.27166 0.0
H989 H 0.55332 0.23428 0.22882 0.0
H990 H 0.50368 0.13667 0.28954 0.0
H991 H 0.52271 0.34784 0.22057 0.0
H992 H 0.53528 0.19611 0.25009 0.0
H993 H 0.48926 0.27388 0.25066 0.0
C994 C 0.48188 0.22214 0.27091 0.0
C995 C 0.48569 0.18357 0.28245 0.0
C996 C 0.53257 0.22961 0.24379 0.0
C997 C 0.50698 0.22641 0.25856 0.0
C998 C 0.54292 0.25166 0.23175 0.0
C999 C 0.53958 0.29451 0.22289 0.0
C1000 C 0.51866 0.25019 0.24685 0.0
C1001 C 0.52584 0.31505 0.22715 0.0
C1002 C 0.49243 0.24358 0.25905 0.0
C1003 C 0.50019 0.16615 0.28088 0.0
N1004 N 0.51586 0.29253 0.23864 0.0
N1005 N 0.5103 0.1878 0.26926 0.0
H1006 H 0.46936 0.01351 0.98566 0.0
H1007 H 0.5543 0.99325 0.01807 0.0
H1008 H 0.50379 0.10504 0.96484 0.0
H1009 H 0.5197 0.90459 0.04052 0.0
H1010 H 0.5361 0.03257 0.99764 0.0
H1011 H 0.48748 0.97407 0.0062 0.0
C1012 C 0.48067 0.02599 0.98568 0.0
C1013 C 0.48501 0.06282 0.97347 0.0
C1014 C 0.53249 0.00425 0.00689 0.0
C1015 C 0.50598 0.0168 0.99669 0.0
C1016 C 0.54293 0.98136 0.01844 0.0
C1017 C 0.53857 0.94538 0.03107 0.0
C1018 C 0.51752 0.99129 0.00795 0.0
C1019 C 0.52362 0.93191 0.03097 0.0
C1020 C 0.49106 0.00307 0.99729 0.0
C1021 C 0.49988 0.07705 0.97406 0.0
N1022 N 0.51364 0.95506 0.01972 0.0
N1023 N 0.50983 0.05381 0.98532 0.0
H1024 H 0.1639 0.38958 0.1735 0.0
H1025 H 0.10958 0.38937 0.08131 0.0
H1026 H 0.17901 0.37317 0.11436 0.0
H1027 H 0.09426 0.37823 0.14057 0.0
H1028 H 0.13515 0.38677 0.09311 0.0
H1029 H 0.13829 0.38873 0.16176 0.0
C1030 C 0.16187 0.38564 0.15809 0.0
C1031 C 0.17369 0.38141 0.14495 0.0
C1032 C 0.12618 0.38472 0.10352 0.0
C1033 C 0.14437 0.3808 0.13136 0.0
C1034 C 0.11156 0.38624 0.09677 0.0
C1035 C 0.09969 0.38398 0.10991 0.0
C1036 C 0.12898 0.38135 0.12358 0.0
C1037 C 0.103 0.37999 0.12983 0.0
C1038 C 0.14723 0.38514 0.15138 0.0
C1039 C 0.17031 0.37646 0.12509 0.0
N1040 N 0.11728 0.37902 0.13603 0.0
N1041 N 0.15602 0.37651 0.11893 0.0
H1042 H 0.09357 0.88054 0.11424 0.0
H1043 H 0.17931 0.87353 0.14263 0.0
H1044 H 0.10899 0.85956 0.17293 0.0
H1045 H 0.16369 0.86442 0.0835 0.0
H1046 H 0.15375 0.87532 0.15398 0.0
H1047 H 0.11914 0.88165 0.10296 0.0
C1048 C 0.10232 0.87636 0.12482 0.0
C1049 C 0.09903 0.86991 0.14464 0.0
C1050 C 0.15589 0.87298 0.13852 0.0
C1051 C 0.12853 0.87119 0.13164 0.0
C1052 C 0.17052 0.8721 0.13197 0.0
C1053 C 0.17374 0.86879 0.112 0.0
C1054 C 0.14427 0.8709 0.12507 0.0
C1055 C 0.16179 0.86694 0.099 0.0
C1056 C 0.11696 0.87685 0.1183 0.0
C1057 C 0.11094 0.86459 0.15755 0.0
N1058 N 0.14761 0.8681 0.10575 0.0
N1059 N 0.12514 0.86541 0.15083 0.0
H1060 H 0.86022 0.61064 0.83153 0.0
H1061 H 0.9148 0.60517 0.9234 0.0
H1062 H 0.84492 0.61412 0.89097 0.0
H1063 H 0.92948 0.63111 0.86466 0.0
H1064 H 0.88914 0.60476 0.9118 0.0
H1065 H 0.88578 0.61443 0.84332 0.0
C1066 C 0.86221 0.61232 0.84703 0.0
C1067 C 0.85035 0.6121 0.86023 0.0
C1068 C 0.898 0.61073 0.90148 0.0
C1069 C 0.87962 0.61608 0.87387 0.0
C1070 C 0.91266 0.61095 0.90811 0.0
C1071 C 0.92438 0.61822 0.89504 0.0
C1072 C 0.89502 0.61736 0.8816 0.0
C1073 C 0.92086 0.62545 0.87534 0.0
C1074 C 0.87681 0.61453 0.85377 0.0
C1075 C 0.85366 0.61431 0.88019 0.0
N1076 N 0.90657 0.6246 0.86924 0.0
N1077 N 0.86794 0.61599 0.88638 0.0
H1078 H 0.9128 0.13362 0.83121 0.0
H1079 H 0.85822 0.13867 0.92339 0.0
H1080 H 0.9281 0.13056 0.89059 0.0
H1081 H 0.84351 0.11398 0.86463 0.0
H1082 H 0.88388 0.13928 0.91166 0.0
H1083 H 0.88723 0.13002 0.84312 0.0
C1084 C 0.91081 0.13208 0.84672 0.0
C1085 C 0.92268 0.13234 0.85986 0.0
C1086 C 0.87501 0.13355 0.90136 0.0
C1087 C 0.89339 0.12856 0.87365 0.0
C1088 C 0.86036 0.13321 0.90807 0.0
C1089 C 0.84862 0.12621 0.89503 0.0
C1090 C 0.87799 0.12728 0.88145 0.0
C1091 C 0.85213 0.11941 0.87529 0.0
C1092 C 0.8962 0.12998 0.85353 0.0
C1093 C 0.91936 0.13032 0.87985 0.0
N1094 N 0.86643 0.12033 0.86913 0.0
N1095 N 0.90508 0.12872 0.8861 0.0
H1096 H 0.16331 0.89062 0.67557 0.0
H1097 H 0.11064 0.88667 0.58172 0.0
H1098 H 0.17947 0.87608 0.61681 0.0
H1099 H 0.0943 0.88667 0.6407 0.0
H1100 H 0.13595 0.88208 0.59428 0.0
H1101 H 0.13792 0.88846 0.66314 0.0
C1102 C 0.16155 0.88671 0.66009 0.0
C1103 C 0.1736 0.88365 0.64726 0.0
C1104 C 0.12681 0.88287 0.60447 0.0
C1105 C 0.14452 0.88146 0.63287 0.0
C1106 C 0.11234 0.88548 0.59728 0.0
C1107 C 0.10027 0.88717 0.61012 0.0
C1108 C 0.12927 0.88219 0.62466 0.0
C1109 C 0.10322 0.88552 0.63019 0.0
C1110 C 0.14704 0.88551 0.65298 0.0
C1111 C 0.17058 0.87865 0.62731 0.0
N1112 N 0.11737 0.88335 0.6368 0.0
N1113 N 0.15639 0.87795 0.62076 0.0
H1114 H 0.09999 0.44449 0.64021 0.0
H1115 H 0.16676 0.29826 0.598 0.0
H1116 H 0.10385 0.2981 0.65317 0.0
H1117 H 0.17387 0.43599 0.62117 0.0
H1118 H 0.14156 0.29909 0.61175 0.0
H1119 H 0.12538 0.44386 0.62745 0.0
C1120 C 0.10627 0.41235 0.64057 0.0
C1121 C 0.09991 0.37141 0.64798 0.0
C1122 C 0.14865 0.32914 0.61368 0.0
C1123 C 0.12865 0.37006 0.63266 0.0
C1124 C 0.16293 0.32893 0.60567 0.0
C1125 C 0.17237 0.36721 0.60839 0.0
C1126 C 0.14369 0.36839 0.624 0.0
C1127 C 0.16693 0.40579 0.61873 0.0
C1128 C 0.12069 0.412 0.63324 0.0
C1129 C 0.10845 0.33054 0.64787 0.0
N1130 N 0.15292 0.4056 0.62601 0.0
N1131 N 0.12233 0.3307 0.64006 0.0
H1132 H 0.84981 0.19416 0.36585 0.0
H1133 H 0.91561 0.04704 0.40928 0.0
H1134 H 0.85369 0.04804 0.35235 0.0
H1135 H 0.92383 0.18299 0.38491 0.0
H1136 H 0.89055 0.04872 0.39521 0.0
H1137 H 0.87508 0.19298 0.37897 0.0
C1138 C 0.85607 0.16198 0.36546 0.0
C1139 C 0.84977 0.12127 0.35779 0.0
C1140 C 0.89786 0.0782 0.39309 0.0
C1141 C 0.87832 0.11928 0.37351 0.0
C1142 C 0.91205 0.07752 0.40128 0.0
C1143 C 0.92175 0.11503 0.39831 0.0
C1144 C 0.89326 0.11721 0.38237 0.0
C1145 C 0.91667 0.1534 0.38754 0.0
C1146 C 0.87042 0.16132 0.37299 0.0
C1147 C 0.85826 0.08031 0.35785 0.0
N1148 N 0.90273 0.15372 0.38011 0.0
N1149 N 0.87205 0.08015 0.36588 0.0
H1150 H 0.91344 0.6419 0.33107 0.0
H1151 H 0.86003 0.63867 0.42445 0.0
H1152 H 0.92904 0.62351 0.38984 0.0
H1153 H 0.8441 0.63849 0.36534 0.0
H1154 H 0.88543 0.63374 0.41207 0.0
H1155 H 0.88795 0.64124 0.34329 0.0
C1156 C 0.91154 0.63748 0.3465 0.0
C1157 C 0.92347 0.63283 0.3594 0.0
C1158 C 0.87636 0.63459 0.40182 0.0
C1159 C 0.89427 0.63239 0.37355 0.0
C1160 C 0.86184 0.63741 0.40889 0.0
C1161 C 0.84985 0.63907 0.39596 0.0
C1162 C 0.87895 0.6337 0.38164 0.0
C1163 C 0.85294 0.63732 0.37592 0.0
C1164 C 0.89696 0.63713 0.35349 0.0
C1165 C 0.92025 0.62726 0.37929 0.0
N1166 N 0.86714 0.63496 0.36941 0.0
N1167 N 0.90602 0.62743 0.38572 0.0
H1168 H 0.61014 0.38501 0.5819 0.0
H1169 H 0.66365 0.39011 0.67491 0.0
H1170 H 0.59427 0.38059 0.64107 0.0
H1171 H 0.67923 0.37113 0.61611 0.0
H1172 H 0.63814 0.3886 0.66283 0.0
H1173 H 0.63559 0.38188 0.59412 0.0
C1174 C 0.61198 0.3832 0.59743 0.0
C1175 C 0.59999 0.38308 0.61043 0.0
C1176 C 0.64716 0.38457 0.6526 0.0
C1177 C 0.62914 0.37983 0.62457 0.0
C1178 C 0.66174 0.38543 0.6595 0.0
C1179 C 0.67367 0.38077 0.64656 0.0
C1180 C 0.64446 0.37937 0.63257 0.0
C1181 C 0.67045 0.37485 0.6267 0.0
C1182 C 0.62652 0.38141 0.60442 0.0
C1183 C 0.60311 0.38073 0.63044 0.0
N1184 N 0.65621 0.37455 0.62034 0.0
N1185 N 0.61732 0.37943 0.63686 0.0
H1186 H 0.59283 0.88284 0.61153 0.0
H1187 H 0.67825 0.87516 0.64132 0.0
H1188 H 0.60757 0.86255 0.67057 0.0
H1189 H 0.66316 0.8628 0.58206 0.0
H1190 H 0.65259 0.87754 0.65227 0.0
H1191 H 0.61851 0.88261 0.60069 0.0
C1192 C 0.60146 0.87854 0.62229 0.0
C1193 C 0.59795 0.8727 0.64207 0.0
C1194 C 0.65487 0.87434 0.63687 0.0
C1195 C 0.62757 0.87246 0.62958 0.0
C1196 C 0.66956 0.87314 0.63055 0.0
C1197 C 0.67295 0.86877 0.61067 0.0
C1198 C 0.64337 0.87157 0.62327 0.0
C1199 C 0.66112 0.86615 0.5975 0.0
C1200 C 0.61616 0.87824 0.61601 0.0
C1201 C 0.6097 0.86714 0.6552 0.0
N1202 N 0.64688 0.8677 0.60403 0.0
N1203 N 0.62397 0.86725 0.64873 0.0
H1204 H 0.42361 0.68424 0.38747 0.0
H1205 H 0.35365 0.54481 0.35076 0.0
H1206 H 0.41583 0.54378 0.40715 0.0
H1207 H 0.34954 0.68819 0.3686 0.0
H1208 H 0.37885 0.54336 0.36437 0.0
H1209 H 0.39844 0.68634 0.37407 0.0
C1210 C 0.41654 0.654 0.38911 0.0
C1211 C 0.42171 0.61396 0.39862 0.0
C1212 C 0.37243 0.57515 0.36512 0.0
C1213 C 0.39323 0.61552 0.38266 0.0
C1214 C 0.35816 0.57619 0.35718 0.0
C1215 C 0.34956 0.61677 0.35849 0.0
C1216 C 0.37823 0.61534 0.37392 0.0
C1217 C 0.35583 0.65626 0.36727 0.0
C1218 C 0.40224 0.65521 0.38143 0.0
C1219 C 0.41216 0.57554 0.40018 0.0
N1220 N 0.36983 0.65471 0.37451 0.0
N1221 N 0.39843 0.577 0.39203 0.0
H1222 H 0.43026 0.11928 0.39145 0.0
H1223 H 0.34417 0.13341 0.36483 0.0
H1224 H 0.41412 0.13666 0.33288 0.0
H1225 H 0.36065 0.13499 0.42366 0.0
H1226 H 0.36952 0.12834 0.35286 0.0
H1227 H 0.40482 0.11856 0.40325 0.0
C1228 C 0.42138 0.12271 0.381 0.0
C1229 C 0.42442 0.12818 0.36107 0.0
C1230 C 0.36762 0.12967 0.36838 0.0
C1231 C 0.39508 0.12744 0.37466 0.0
C1232 C 0.3531 0.13248 0.37529 0.0
C1233 C 0.35019 0.13476 0.39535 0.0
C1234 C 0.37943 0.12894 0.38158 0.0
C1235 C 0.36231 0.13339 0.4081 0.0
C1236 C 0.40681 0.12241 0.38781 0.0
C1237 C 0.41236 0.13242 0.34834 0.0
N1238 N 0.37637 0.13062 0.401 0.0
N1239 N 0.39824 0.13204 0.35535 0.0
H1240 H 0.66273 0.88686 0.1744 0.0
H1241 H 0.61001 0.89026 0.08059 0.0
H1242 H 0.67897 0.88371 0.11538 0.0
H1243 H 0.59377 0.88001 0.13946 0.0
H1244 H 0.63537 0.88691 0.09302 0.0
H1245 H 0.63737 0.88339 0.16192 0.0
C1246 C 0.661 0.8852 0.15884 0.0
C1247 C 0.67306 0.88571 0.14596 0.0
C1248 C 0.62625 0.88517 0.10321 0.0
C1249 C 0.64401 0.882 0.13153 0.0
C1250 C 0.61175 0.88705 0.0961 0.0
C1251 C 0.59968 0.88555 0.10896 0.0
C1252 C 0.62874 0.88198 0.12335 0.0
C1253 C 0.60268 0.88139 0.12895 0.0
C1254 C 0.6465 0.88324 0.15171 0.0
C1255 C 0.67007 0.88349 0.12592 0.0
N1256 N 0.61686 0.87998 0.1355 0.0
N1257 N 0.65589 0.88196 0.11935 0.0
H1258 H 0.66849 0.2965 0.10018 0.0
H1259 H 0.59952 0.4406 0.13775 0.0
H1260 H 0.67341 0.43892 0.11898 0.0
H1261 H 0.60532 0.2973 0.15486 0.0
H1262 H 0.62484 0.44106 0.12477 0.0
H1263 H 0.64316 0.29623 0.11352 0.0
C1264 C 0.66414 0.32792 0.10677 0.0
C1265 C 0.67301 0.36788 0.10841 0.0
C1266 C 0.62059 0.40965 0.13149 0.0
C1267 C 0.64419 0.36779 0.12356 0.0
C1268 C 0.6062 0.40937 0.13893 0.0
C1269 C 0.6004 0.36901 0.14759 0.0
C1270 C 0.6291 0.3688 0.13209 0.0
C1271 C 0.60946 0.32933 0.14856 0.0
C1272 C 0.6498 0.32755 0.11456 0.0
C1273 C 0.66692 0.40743 0.1174 0.0
N1274 N 0.62331 0.32998 0.14065 0.0
N1275 N 0.65287 0.40654 0.12449 0.0
H1276 H 0.43031 0.13237 0.86483 0.0
H1277 H 0.34412 0.11645 0.89102 0.0
H1278 H 0.41388 0.11319 0.92323 0.0
H1279 H 0.36091 0.1164 0.83225 0.0
H1280 H 0.36941 0.12188 0.90312 0.0
H1281 H 0.40493 0.13336 0.85292 0.0
C1282 C 0.42137 0.1286 0.87522 0.0
C1283 C 0.42431 0.12251 0.89513 0.0
C1284 C 0.36758 0.12081 0.88758 0.0
C1285 C 0.39505 0.12356 0.88142 0.0
C1286 C 0.35311 0.1178 0.88061 0.0
C1287 C 0.35032 0.11581 0.86052 0.0
C1288 C 0.37945 0.12204 0.87443 0.0
C1289 C 0.36249 0.11774 0.84783 0.0
C1290 C 0.40685 0.12907 0.86835 0.0
C1291 C 0.41219 0.11789 0.90779 0.0
N1292 N 0.3765 0.12068 0.855 0.0
N1293 N 0.39812 0.11842 0.90072 0.0
H1294 H 0.41604 0.70833 0.84687 0.0
H1295 H 0.35017 0.56032 0.89038 0.0
H1296 H 0.42394 0.57175 0.87077 0.0
H1297 H 0.35349 0.70708 0.90285 0.0
H1298 H 0.37549 0.56181 0.87738 0.0
H1299 H 0.39094 0.70676 0.86091 0.0
C1300 C 0.41241 0.67776 0.85477 0.0
C1301 C 0.42204 0.64002 0.85761 0.0
C1302 C 0.3707 0.59356 0.88311 0.0
C1303 C 0.39347 0.63797 0.87353 0.0
C1304 C 0.35631 0.59272 0.89058 0.0
C1305 C 0.34983 0.63351 0.89792 0.0
C1306 C 0.37848 0.63583 0.88234 0.0
C1307 C 0.3582 0.67474 0.89761 0.0
C1308 C 0.39819 0.67713 0.86294 0.0
C1309 C 0.41686 0.60154 0.86824 0.0
N1310 N 0.37203 0.67504 0.88967 0.0
N1311 N 0.40289 0.6013 0.87566 0.0
H1312 H 0.03729 1.00178 0.10377 0.0
H1313 H 0.03706 0.25662 0.15049 0.0
H1314 H 0.03799 0.02778 0.16553 0.0
H1315 H 0.03857 0.23044 0.08876 0.0
H1316 H 0.03395 0.17326 0.1562 0.0
H1317 H 0.03432 0.08514 0.09805 0.0
C1318 C 0.03665 0.02495 0.11617 0.0
C1319 C 0.03803 0.00773 0.13518 0.0
C1320 C 0.03481 0.18574 0.14139 0.0
C1321 C 0.03473 0.10353 0.12868 0.0
C1322 C 0.03656 0.23342 0.1381 0.0
C1323 C 0.03822 0.25057 0.11911 0.0
C1324 C 0.03477 0.15481 0.12559 0.0
C1325 C 0.03741 0.21879 0.10365 0.0
C1326 C 0.03497 0.07263 0.11286 0.0
C1327 C 0.03704 0.03948 0.15064 0.0
N1328 N 0.03588 0.17242 0.10724 0.0
N1329 N 0.03559 0.08588 0.14704 0.0
H1330 H 0.2365 0.997 0.15167 0.0
H1331 H 0.23597 0.2509 0.10411 0.0
H1332 H 0.23487 0.02205 0.08986 0.0
H1333 H 0.23507 0.22592 0.16595 0.0
H1334 H 0.23918 0.16751 0.09865 0.0
H1335 H 0.2396 0.08046 0.15707 0.0
C1336 C 0.23698 0.01998 0.13919 0.0
C1337 C 0.23528 1.00249 0.12027 0.0
C1338 C 0.23843 0.18026 0.11343 0.0
C1339 C 0.23871 0.09834 0.12641 0.0
C1340 C 0.23663 0.22795 0.11657 0.0
C1341 C 0.2351 0.24543 0.13553 0.0
C1342 C 0.23866 0.14965 0.12933 0.0
C1343 C 0.23611 0.21399 0.15109 0.0
C1344 C 0.23872 0.06771 0.14231 0.0
C1345 C 0.23605 0.03398 0.1047 0.0
N1346 N 0.23768 0.16758 0.14764 0.0
N1347 N 0.23757 0.08041 0.10812 0.0
H1348 H 0.98594 0.77793 0.91556 0.0
H1349 H 0.98435 0.98347 0.83703 0.0
H1350 H 0.98472 0.75544 0.85357 0.0
H1351 H 0.98538 0.00633 0.899 0.0
H1352 H 0.98758 0.89998 0.84271 0.0
H1353 H 0.98881 0.86157 0.90974 0.0
C1354 C 0.98647 0.79047 0.90073 0.0
C1355 C 0.98496 0.75962 0.88504 0.0
C1356 C 0.98726 0.92331 0.85506 0.0
C1357 C 0.98811 0.85539 0.87826 0.0
C1358 C 0.98545 0.97104 0.85182 0.0
C1359 C 0.98446 1.00195 0.86756 0.0
C1360 C 0.98801 0.90628 0.8742 0.0
C1361 C 0.98598 0.9838 0.88641 0.0
C1362 C 0.98807 0.83827 0.89741 0.0
C1363 C 0.98574 0.77791 0.86613 0.0
N1364 N 0.98754 0.93717 0.88921 0.0
N1365 N 0.98712 0.82456 0.86328 0.0
H1366 H 0.78712 0.96663 0.91595 0.0
H1367 H 0.78866 0.76091 0.83753 0.0
H1368 H 0.7882 0.98901 0.85394 0.0
H1369 H 0.78767 0.73824 0.89952 0.0
H1370 H 0.78541 0.84441 0.84317 0.0
H1371 H 0.78426 0.88298 0.91019 0.0
C1372 C 0.78656 0.95406 0.90113 0.0
C1373 C 0.78804 0.98488 0.88541 0.0
C1374 C 0.78575 0.82112 0.85554 0.0
C1375 C 0.78489 0.8891 0.8787 0.0
C1376 C 0.78756 0.77338 0.85231 0.0
C1377 C 0.78857 0.74253 0.86807 0.0
C1378 C 0.785 0.8382 0.87466 0.0
C1379 C 0.78705 0.76073 0.88692 0.0
C1380 C 0.78496 0.90625 0.89784 0.0
C1381 C 0.78722 0.96656 0.86652 0.0
N1382 N 0.78549 0.80736 0.88969 0.0
N1383 N 0.78584 0.9199 0.8637 0.0
H1384 H 0.0354 0.77211 0.64753 0.0
H1385 H 0.04218 0.51797 0.60114 0.0
H1386 H 0.04035 0.74606 0.5861 0.0
H1387 H 0.03698 0.54265 0.66263 0.0
H1388 H 0.03861 0.6009 0.59513 0.0
H1389 H 0.03293 0.68836 0.65302 0.0
C1390 C 0.03575 0.74886 0.63514 0.0
C1391 C 0.03822 0.76619 0.61632 0.0
C1392 C 0.03811 0.58823 0.60993 0.0
C1393 C 0.03554 0.67005 0.62257 0.0
C1394 C 0.04014 0.54078 0.61339 0.0
C1395 C 0.04001 0.52331 0.63245 0.0
C1396 C 0.03601 0.61875 0.62564 0.0
C1397 C 0.03723 0.55458 0.64771 0.0
C1398 C 0.03438 0.70097 0.63831 0.0
C1399 C 0.03853 0.73432 0.60086 0.0
N1400 N 0.03549 0.60085 0.64399 0.0
N1401 N 0.03737 0.68783 0.60435 0.0
H1402 H 0.23571 0.53289 0.59072 0.0
H1403 H 0.23431 0.73659 0.67025 0.0
H1404 H 0.23169 0.50937 0.65245 0.0
H1405 H 0.2366 0.76121 0.60845 0.0
H1406 H 0.23671 0.65299 0.66419 0.0
H1407 H 0.23931 0.61609 0.59707 0.0
C1408 C 0.23577 0.54509 0.60562 0.0
C1409 C 0.23326 0.51411 0.62106 0.0
C1410 C 0.23685 0.6767 0.65196 0.0
C1411 C 0.23728 0.60936 0.62844 0.0
C1412 C 0.23553 0.72452 0.65542 0.0
C1413 C 0.23513 0.75601 0.63983 0.0
C1414 C 0.23771 0.66015 0.63275 0.0
C1415 C 0.23677 0.73825 0.62092 0.0
C1416 C 0.23779 0.59264 0.60924 0.0
C1417 C 0.23346 0.53196 0.64006 0.0
N1418 N 0.23784 0.69154 0.61791 0.0
N1419 N 0.23531 0.57834 0.6432 0.0
H1420 H 0.98596 0.50685 0.40018 0.0
H1421 H 0.98281 0.25104 0.3546 0.0
H1422 H 0.9839 0.47925 0.3386 0.0
H1423 H 0.9843 0.27808 0.41625 0.0
H1424 H 0.98627 0.33402 0.34843 0.0
H1425 H 0.98845 0.42338 0.40621 0.0
C1426 C 0.98623 0.48331 0.38788 0.0
C1427 C 0.9846 0.50014 0.36884 0.0
C1428 C 0.98599 0.32184 0.36331 0.0
C1429 C 0.98732 0.40423 0.37569 0.0
C1430 C 0.98403 0.27436 0.36687 0.0
C1431 C 0.98313 0.25754 0.386 0.0
C1432 C 0.98698 0.35299 0.37899 0.0
C1433 C 0.98487 0.28947 0.40128 0.0
C1434 C 0.98762 0.43557 0.39136 0.0
C1435 C 0.98506 0.4679 0.35351 0.0
N1436 N 0.98656 0.3357 0.39744 0.0
N1437 N 0.98624 0.42151 0.35729 0.0
H1438 H 0.78683 0.29119 0.34104 0.0
H1439 H 0.78924 0.49642 0.41986 0.0
H1440 H 0.79179 0.26904 0.40271 0.0
H1441 H 0.7864 0.52007 0.35804 0.0
H1442 H 0.78678 0.41275 0.41409 0.0
H1443 H 0.78339 0.37458 0.34718 0.0
C1444 C 0.78702 0.30374 0.35588 0.0
C1445 C 0.78973 0.27308 0.37136 0.0
C1446 C 0.78654 0.43626 0.40178 0.0
C1447 C 0.78588 0.36852 0.3785 0.0
C1448 C 0.78788 0.48412 0.40509 0.0
C1449 C 0.78815 0.51537 0.38941 0.0
C1450 C 0.7855 0.41939 0.38265 0.0
C1451 C 0.78634 0.4973 0.37058 0.0
C1452 C 0.78509 0.35139 0.35938 0.0
C1453 C 0.78984 0.29136 0.3903 0.0
N1454 N 0.78524 0.45054 0.36772 0.0
N1455 N 0.78807 0.33782 0.3933 0.0
H1456 H 0.5367 0.00793 0.60069 0.0
H1457 H 0.53578 0.26117 0.64877 0.0
H1458 H 0.53666 0.03197 0.6626 0.0
H1459 H 0.53854 0.23668 0.58699 0.0
H1460 H 0.53236 0.17772 0.65394 0.0
H1461 H 0.53367 0.0914 0.59536 0.0
C1462 C 0.53588 0.0307 0.6132 0.0
C1463 C 0.53708 0.01293 0.63214 0.0
C1464 C 0.53355 0.19061 0.63924 0.0
C1465 C 0.53372 0.10881 0.6261 0.0
C1466 C 0.53547 0.23833 0.63625 0.0
C1467 C 0.5376 0.25595 0.61742 0.0
C1468 C 0.5338 0.16014 0.62328 0.0
C1469 C 0.53703 0.22465 0.60177 0.0
C1470 C 0.53417 0.07843 0.61013 0.0
C1471 C 0.53586 0.04414 0.64775 0.0
N1472 N 0.53533 0.17823 0.60507 0.0
N1473 N 0.53439 0.09062 0.64438 0.0
H1474 H 0.73615 0.25313 0.60578 0.0
H1475 H 0.73505 0.99788 0.65213 0.0
H1476 H 0.73465 0.22652 0.66747 0.0
H1477 H 0.73448 0.0245 0.59041 0.0
H1478 H 0.73832 0.0811 0.65799 0.0
H1479 H 0.73898 0.16972 0.59996 0.0
C1480 C 0.7366 0.22982 0.61814 0.0
C1481 C 0.73502 0.24688 0.63716 0.0
C1482 C 0.73763 0.06875 0.64315 0.0
C1483 C 0.73815 0.15105 0.63055 0.0
C1484 C 0.73578 0.02115 0.63977 0.0
C1485 C 0.73435 0.00416 0.62073 0.0
C1486 C 0.73799 0.09979 0.62739 0.0
C1487 C 0.73546 0.03602 0.60533 0.0
C1488 C 0.73819 0.18211 0.61479 0.0
C1489 C 0.73576 0.21495 0.65257 0.0
N1490 N 0.73707 0.08233 0.609 0.0
N1491 N 0.73712 0.16856 0.64892 0.0
H1492 H 0.48543 0.77451 0.41762 0.0
H1493 H 0.48534 0.97847 0.33825 0.0
H1494 H 0.48255 0.75121 0.35579 0.0
H1495 H 0.48685 0.00276 0.40011 0.0
H1496 H 0.48769 0.89485 0.34427 0.0
H1497 H 0.48925 0.85767 0.41141 0.0
C1498 C 0.48579 0.78675 0.40274 0.0
C1499 C 0.48353 0.75586 0.38722 0.0
C1500 C 0.48767 0.9185 0.35653 0.0
C1501 C 0.4878 0.85105 0.38 0.0
C1502 C 0.48638 0.96632 0.35308 0.0
C1503 C 0.48576 0.99772 0.36869 0.0
C1504 C 0.4883 0.90185 0.37573 0.0
C1505 C 0.48717 0.97987 0.38762 0.0
C1506 C 0.48794 0.83427 0.3992 0.0
C1507 C 0.48413 0.77374 0.36823 0.0
N1508 N 0.48823 0.93315 0.39061 0.0
N1509 N 0.48608 0.82011 0.36517 0.0
H1510 H 0.28656 0.78785 0.34203 0.0
H1511 H 0.28958 0.99367 0.42049 0.0
H1512 H 0.29196 0.76626 0.40368 0.0
H1513 H 0.2862 0.0168 0.35868 0.0
H1514 H 0.287 0.90999 0.41489 0.0
H1515 H 0.28309 0.87126 0.34809 0.0
C1516 C 0.28684 0.80052 0.35685 0.0
C1517 C 0.28969 0.77004 0.37235 0.0
C1518 C 0.28666 0.93339 0.40256 0.0
C1519 C 0.28581 0.86547 0.37939 0.0
C1520 C 0.28807 0.98125 0.40576 0.0
C1521 C 0.28824 0.01235 0.39003 0.0
C1522 C 0.28545 0.91636 0.38347 0.0
C1523 C 0.28623 0.99414 0.37126 0.0
C1524 C 0.28489 0.84818 0.3603 0.0
C1525 C 0.28992 0.78846 0.39125 0.0
N1526 N 0.28507 0.94737 0.36849 0.0
N1527 N 0.28812 0.83492 0.39421 0.0
H1528 H 0.537 0.53663 0.16457 0.0
H1529 H 0.53916 0.74094 0.08531 0.0
H1530 H 0.54193 0.51372 0.10293 0.0
H1531 H 0.53624 0.76518 0.14709 0.0
H1532 H 0.53678 0.65729 0.09125 0.0
H1533 H 0.53342 0.61987 0.15825 0.0
C1534 C 0.53715 0.54897 0.1497 0.0
C1535 C 0.5399 0.51815 0.13428 0.0
C1536 C 0.5365 0.68093 0.1035 0.0
C1537 C 0.5359 0.61343 0.12693 0.0
C1538 C 0.5378 0.72877 0.10011 0.0
C1539 C 0.53803 0.76018 0.11573 0.0
C1540 C 0.53546 0.66425 0.12267 0.0
C1541 C 0.53621 0.74229 0.1346 0.0
C1542 C 0.53515 0.59654 0.1461 0.0
C1543 C 0.53997 0.53618 0.1153 0.0
N1544 N 0.53515 0.69555 0.13755 0.0
N1545 N 0.53812 0.58257 0.11219 0.0
H1546 H 0.73619 0.53809 0.09196 0.0
H1547 H 0.73354 0.74413 0.17038 0.0
H1548 H 0.73067 0.51673 0.15363 0.0
H1549 H 0.73683 0.76713 0.10855 0.0
H1550 H 0.73595 0.6604 0.16478 0.0
H1551 H 0.73976 0.62148 0.09798 0.0
C1552 C 0.7359 0.5508 0.10678 0.0
C1553 C 0.733 0.52038 0.12229 0.0
C1554 C 0.7363 0.68377 0.15244 0.0
C1555 C 0.737 0.6158 0.12928 0.0
C1556 C 0.73499 0.73167 0.15565 0.0
C1557 C 0.73485 0.76275 0.13991 0.0
C1558 C 0.73744 0.6667 0.13334 0.0
C1559 C 0.73678 0.74449 0.12112 0.0
C1560 C 0.73791 0.59845 0.1102 0.0
C1561 C 0.73276 0.53887 0.14119 0.0
N1562 N 0.73785 0.69769 0.11836 0.0
N1563 N 0.73461 0.58532 0.14413 0.0
H1564 H 0.48485 0.27238 0.91823 0.0
H1565 H 0.48539 0.47626 0.83878 0.0
H1566 H 0.48678 0.24799 0.8564 0.0
H1567 H 0.48209 0.49972 0.90057 0.0
H1568 H 0.4891 0.39309 0.84505 0.0
H1569 H 0.48711 0.35604 0.91219 0.0
C1570 C 0.48596 0.28452 0.9034 0.0
C1571 C 0.4855 0.25307 0.8878 0.0
C1572 C 0.48771 0.41652 0.85724 0.0
C1573 C 0.48793 0.34898 0.88074 0.0
C1574 C 0.48563 0.46405 0.85366 0.0
C1575 C 0.4833 0.49501 0.86915 0.0
C1576 C 0.48744 0.39978 0.87645 0.0
C1577 C 0.48373 0.47715 0.88816 0.0
C1578 C 0.4872 0.33236 0.89994 0.0
C1579 C 0.48699 0.27091 0.86888 0.0
N1580 N 0.48562 0.43077 0.89125 0.0
N1581 N 0.488 0.31764 0.86588 0.0
H1582 H 0.29017 0.25597 0.83517 0.0
H1583 H 0.28673 0.46147 0.91382 0.0
H1584 H 0.28619 0.23248 0.8969 0.0
H1585 H 0.29285 0.48333 0.85229 0.0
H1586 H 0.28328 0.37809 0.90764 0.0
H1587 H 0.28777 0.33969 0.84085 0.0
C1588 C 0.28857 0.26832 0.8499 0.0
C1589 C 0.2885 0.23709 0.86559 0.0
C1590 C 0.28524 0.40123 0.89548 0.0
C1591 C 0.28592 0.33314 0.87225 0.0
C1592 C 0.28718 0.44886 0.899 0.0
C1593 C 0.29021 0.47943 0.88358 0.0
C1594 C 0.28634 0.38402 0.87639 0.0
C1595 C 0.29065 0.46108 0.86466 0.0
C1596 C 0.28726 0.31621 0.85315 0.0
C1597 C 0.28639 0.25523 0.88436 0.0
N1598 N 0.28885 0.41464 0.86163 0.0
N1599 N 0.28533 0.30202 0.88718 0.0
loop_
_geom_bond_atom_site_label_1
_geom_bond_atom_site_label_2
_geom_bond_distance
_geom_bond_site_symmetry_2
_ccdc_geom_bond_type
O0 Cd1 2.223 . S
O0 C8 1.315 . S
Cd1 O0 2.223 . S
Cd1 O4 2.297 . S
Cd1 O5 2.439 . S
Cd1 O11 2.240 . S
Cd2 O3 2.240 . S
Cd2 O10 2.223 . S
Cd2 O12 2.297 . S
Cd2 O13 2.439 . S
O3 Cd2 2.240 . S
O3 C8 1.279 . S
O4 Cd1 2.297 . S
O4 C6 1.247 . S
O5 Cd1 2.439 . S
O5 C6 1.208 . S
C6 O4 1.247 . S
C6 O5 1.208 . S
C7 O12 1.247 . S
C7 O13 1.208 . S
C8 O0 1.315 . S
C8 O3 1.279 . S
C9 O10 1.315 . S
C9 O11 1.279 . S
O10 Cd2 2.223 . S
O10 C9 1.315 . S
O11 Cd1 2.240 . S
O11 C9 1.279 . S
O12 Cd2 2.297 . S
O12 C7 1.247 . S
O13 Cd2 2.439 . S
O13 C7 1.208 . S
O14 Cd15 2.223 . S
O14 C22 1.315 . S
Cd15 O14 2.223 . S
Cd15 O18 2.297 . S
Cd15 O19 2.439 . S
Cd15 O25 2.240 . S
Cd16 O17 2.240 . S
Cd16 O24 2.223 . S
Cd16 O26 2.297 . S
Cd16 O27 2.439 . S
O17 Cd16 2.240 . S
O17 C22 1.279 . S
O18 Cd15 2.297 . S
O18 C20 1.247 . S
O19 Cd15 2.439 . S
O19 C20 1.208 . S
C20 O18 1.247 . S
C20 O19 1.208 . S
C21 O26 1.247 . S
C21 O27 1.208 . S
C22 O14 1.315 . S
C22 O17 1.279 . S
C23 O24 1.315 . S
C23 O25 1.279 . S
O24 Cd16 2.223 . S
O24 C23 1.315 . S
O25 Cd15 2.240 . S
O25 C23 1.279 . S
O26 Cd16 2.297 . S
O26 C21 1.247 . S
O27 Cd16 2.439 . S
O27 C21 1.208 . S
O28 Cd29 2.223 . S
O28 C36 1.315 . S
Cd29 O28 2.223 . S
Cd29 O32 2.297 . S
Cd29 O33 2.439 . S
Cd29 O39 2.240 . S
Cd30 O31 2.240 . S
Cd30 O38 2.223 . S
Cd30 O40 2.297 . S
Cd30 O41 2.439 . S
O31 Cd30 2.240 . S
O31 C36 1.279 . S
O32 Cd29 2.297 . S
O32 C34 1.247 . S
O33 Cd29 2.439 . S
O33 C34 1.208 . S
C34 O32 1.247 . S
C34 O33 1.208 . S
C35 O40 1.247 . S
C35 O41 1.208 . S
C36 O28 1.315 . S
C36 O31 1.279 . S
C37 O38 1.315 . S
C37 O39 1.279 . S
O38 Cd30 2.223 . S
O38 C37 1.315 . S
O39 Cd29 2.240 . S
O39 C37 1.279 . S
O40 Cd30 2.297 . S
O40 C35 1.247 . S
O41 Cd30 2.439 . S
O41 C35 1.208 . S
O42 Cd43 2.223 . S
O42 C50 1.315 . S
Cd43 O42 2.223 . S
Cd43 O46 2.297 . S
Cd43 O47 2.439 . S
Cd43 O53 2.240 . S
Cd44 O45 2.240 . S
Cd44 O52 2.223 . S
Cd44 O54 2.297 . S
Cd44 O55 2.439 . S
O45 Cd44 2.240 . S
O45 C50 1.279 . S
O46 Cd43 2.297 . S
O46 C48 1.247 . S
O47 Cd43 2.439 . S
O47 C48 1.208 . S
C48 O46 1.247 . S
C48 O47 1.208 . S
C49 O54 1.247 . S
C49 O55 1.208 . S
C50 O42 1.315 . S
C50 O45 1.279 . S
C51 O52 1.315 . S
C51 O53 1.279 . S
O52 Cd44 2.223 . S
O52 C51 1.315 . S
O53 Cd43 2.240 . S
O53 C51 1.279 . S
O54 Cd44 2.297 . S
O54 C49 1.247 . S
O55 Cd44 2.439 . S
O55 C49 1.208 . S
O56 Cd57 2.223 . S
O56 C64 1.315 . S
Cd57 O56 2.223 . S
Cd57 O60 2.297 . S
Cd57 O61 2.439 . S
Cd57 O67 2.240 . S
Cd58 O59 2.240 . S
Cd58 O66 2.223 . S
Cd58 O68 2.297 . S
Cd58 O69 2.439 . S
O59 Cd58 2.240 . S
O59 C64 1.279 . S
O60 Cd57 2.297 . S
O60 C62 1.247 . S
O61 Cd57 2.439 . S
O61 C62 1.208 . S
C62 O60 1.247 . S
C62 O61 1.208 . S
C63 O68 1.247 . S
C63 O69 1.208 . S
C64 O56 1.315 . S
C64 O59 1.279 . S
C65 O66 1.315 . S
C65 O67 1.279 . S
O66 Cd58 2.223 . S
O66 C65 1.315 . S
O67 Cd57 2.240 . S
O67 C65 1.279 . S
O68 Cd58 2.297 . S
O68 C63 1.247 . S
O69 Cd58 2.439 . S
O69 C63 1.208 . S
O70 Cd71 2.223 . S
O70 C78 1.315 . S
Cd71 O70 2.223 . S
Cd71 O74 2.297 . S
Cd71 O75 2.439 . S
Cd71 O81 2.240 . S
Cd72 O73 2.240 . S
Cd72 O80 2.223 . S
Cd72 O82 2.297 . S
Cd72 O83 2.439 . S
O73 Cd72 2.240 . S
O73 C78 1.279 . S
O74 Cd71 2.297 . S
O74 C76 1.247 . S
O75 Cd71 2.439 . S
O75 C76 1.208 . S
C76 O74 1.247 . S
C76 O75 1.208 . S
C77 O82 1.247 . S
C77 O83 1.208 . S
C78 O70 1.315 . S
C78 O73 1.279 . S
C79 O80 1.315 . S
C79 O81 1.279 . S
O80 Cd72 2.223 . S
O80 C79 1.315 . S
O81 Cd71 2.240 . S
O81 C79 1.279 . S
O82 Cd72 2.297 . S
O82 C77 1.247 . S
O83 Cd72 2.439 . S
O83 C77 1.208 . S
O84 Cd85 2.223 . S
O84 C92 1.315 . S
Cd85 O84 2.223 . S
Cd85 O88 2.297 . S
Cd85 O89 2.439 . S
Cd85 O95 2.240 . S
Cd86 O87 2.240 . S
Cd86 O94 2.223 . S
Cd86 O96 2.297 . S
Cd86 O97 2.439 . S
O87 Cd86 2.240 . S
O87 C92 1.279 . S
O88 Cd85 2.297 . S
O88 C90 1.247 . S
O89 Cd85 2.439 . S
O89 C90 1.208 . S
C90 O88 1.247 . S
C90 O89 1.208 . S
C91 O96 1.247 . S
C91 O97 1.208 . S
C92 O84 1.315 . S
C92 O87 1.279 . S
C93 O94 1.315 . S
C93 O95 1.279 . S
O94 Cd86 2.223 . S
O94 C93 1.315 . S
O95 Cd85 2.240 . S
O95 C93 1.279 . S
O96 Cd86 2.297 . S
O96 C91 1.247 . S
O97 Cd86 2.439 . S
O97 C91 1.208 . S
O98 Cd99 2.223 . S
O98 C106 1.315 . S
Cd99 O98 2.223 . S
Cd99 O102 2.297 . S
Cd99 O103 2.439 . S
Cd99 O109 2.240 . S
Cd100 O101 2.240 . S
Cd100 O108 2.223 . S
Cd100 O110 2.297 . S
Cd100 O111 2.439 . S
O101 Cd100 2.240 . S
O101 C106 1.279 . S
O102 Cd99 2.297 . S
O102 C104 1.247 . S
O103 Cd99 2.439 . S
O103 C104 1.208 . S
C104 O102 1.247 . S
C104 O103 1.208 . S
C105 O110 1.247 . S
C105 O111 1.208 . S
C106 O98 1.315 . S
C106 O101 1.279 . S
C107 O108 1.315 . S
C107 O109 1.279 . S
O108 Cd100 2.223 . S
O108 C107 1.315 . S
O109 Cd99 2.240 . S
O109 C107 1.279 . S
O110 Cd100 2.297 . S
O110 C105 1.247 . S
O111 Cd100 2.439 . S
O111 C105 1.208 . S
O112 Cd113 2.236 . S
O112 C120 1.319 . S
Cd113 O112 2.236 . S
Cd113 O116 2.297 . S
Cd113 O117 2.439 . S
Cd113 O123 2.240 . S
Cd114 O115 2.240 . S
Cd114 O122 2.223 . S
Cd114 O124 2.297 . S
Cd114 O125 2.439 . S
O115 Cd114 2.240 . S
O115 C120 1.279 . S
O116 Cd113 2.297 . S
O116 C118 1.247 . S
O117 Cd113 2.439 . S
O117 C118 1.208 . S
C118 O116 1.247 . S
C118 O117 1.208 . S
C119 O124 1.247 . S
C119 O125 1.208 . S
C120 O112 1.319 . S
C120 O115 1.279 . S
C121 O122 1.315 . S
C121 O123 1.279 . S
O122 Cd114 2.223 . S
O122 C121 1.315 . S
O123 Cd113 2.240 . S
O123 C121 1.279 . S
O124 Cd114 2.297 . S
O124 C119 1.247 . S
O125 Cd114 2.439 . S
O125 C119 1.208 . S
O126 Cd127 2.223 . S
O126 C134 1.315 . S
Cd127 O126 2.223 . S
Cd127 O130 2.297 . S
Cd127 O131 2.439 . S
Cd127 O137 2.240 . S
Cd128 O129 2.240 . S
Cd128 O136 2.223 . S
Cd128 O138 2.297 . S
Cd128 O139 2.439 . S
O129 Cd128 2.240 . S
O129 C134 1.279 . S
O130 Cd127 2.297 . S
O130 C132 1.247 . S
O131 Cd127 2.439 . S
O131 C132 1.208 . S
C132 O130 1.247 . S
C132 O131 1.208 . S
C133 O138 1.247 . S
C133 O139 1.208 . S
C134 O126 1.315 . S
C134 O129 1.279 . S
C135 O136 1.315 . S
C135 O137 1.279 . S
O136 Cd128 2.223 . S
O136 C135 1.315 . S
O137 Cd127 2.240 . S
O137 C135 1.279 . S
O138 Cd128 2.297 . S
O138 C133 1.247 . S
O139 Cd128 2.439 . S
O139 C133 1.208 . S
O140 Cd141 2.223 . S
O140 C148 1.315 . S
Cd141 O140 2.223 . S
Cd141 O144 2.297 . S
Cd141 O145 2.439 . S
Cd141 O151 2.240 . S
Cd142 O143 2.240 . S
Cd142 O150 2.223 . S
Cd142 O152 2.297 . S
Cd142 O153 2.439 . S
O143 Cd142 2.240 . S
O143 C148 1.279 . S
O144 Cd141 2.297 . S
O144 C146 1.247 . S
O145 Cd141 2.439 . S
O145 C146 1.208 . S
C146 O144 1.247 . S
C146 O145 1.208 . S
C147 O152 1.247 . S
C147 O153 1.208 . S
C148 O140 1.315 . S
C148 O143 1.279 . S
C149 O150 1.315 . S
C149 O151 1.279 . S
O150 Cd142 2.223 . S
O150 C149 1.315 . S
O151 Cd141 2.240 . S
O151 C149 1.279 . S
O152 Cd142 2.297 . S
O152 C147 1.247 . S
O153 Cd142 2.439 . S
O153 C147 1.208 . S
O154 Cd155 2.236 . S
O154 C162 1.319 . S
Cd155 O154 2.236 . S
Cd155 O158 2.297 . S
Cd155 O159 2.439 . S
Cd155 O165 2.240 . S
Cd156 O157 2.240 . S
Cd156 O164 2.223 . S
Cd156 O166 2.297 . S
Cd156 O167 2.439 . S
O157 Cd156 2.240 . S
O157 C162 1.279 . S
O158 Cd155 2.297 . S
O158 C160 1.247 . S
O159 Cd155 2.439 . S
O159 C160 1.208 . S
C160 O158 1.247 . S
C160 O159 1.208 . S
C161 O166 1.247 . S
C161 O167 1.208 . S
C162 O154 1.319 . S
C162 O157 1.279 . S
C163 O164 1.315 . S
C163 O165 1.279 . S
O164 Cd156 2.223 . S
O164 C163 1.315 . S
O165 Cd155 2.240 . S
O165 C163 1.279 . S
O166 Cd156 2.297 . S
O166 C161 1.247 . S
O167 Cd156 2.439 . S
O167 C161 1.208 . S
O168 Cd169 2.236 . S
O168 C176 1.319 . S
Cd169 O168 2.236 . S
Cd169 O172 2.297 . S
Cd169 O173 2.439 . S
Cd169 O179 2.240 . S
Cd170 O171 2.240 . S
Cd170 O178 2.223 . S
Cd170 O180 2.297 . S
Cd170 O181 2.439 . S
O171 Cd170 2.240 . S
O171 C176 1.279 . S
O172 Cd169 2.297 . S
O172 C174 1.247 . S
O173 Cd169 2.439 . S
O173 C174 1.208 . S
C174 O172 1.247 . S
C174 O173 1.208 . S
C175 O180 1.247 . S
C175 O181 1.208 . S
C176 O168 1.319 . S
C176 O171 1.279 . S
C177 O178 1.315 . S
C177 O179 1.279 . S
O178 Cd170 2.223 . S
O178 C177 1.315 . S
O179 Cd169 2.240 . S
O179 C177 1.279 . S
O180 Cd170 2.297 . S
O180 C175 1.247 . S
O181 Cd170 2.439 . S
O181 C175 1.208 . S
O182 Cd183 2.223 . S
O182 C190 1.315 . S
Cd183 O182 2.223 . S
Cd183 O186 2.297 . S
Cd183 O187 2.439 . S
Cd183 O193 2.240 . S
Cd184 O185 2.240 . S
Cd184 O192 2.223 . S
Cd184 O194 2.297 . S
Cd184 O195 2.439 . S
O185 Cd184 2.240 . S
O185 C190 1.279 . S
O186 Cd183 2.297 . S
O186 C188 1.247 . S
O187 Cd183 2.439 . S
O187 C188 1.208 . S
C188 O186 1.247 . S
C188 O187 1.208 . S
C189 O194 1.247 . S
C189 O195 1.208 . S
C190 O182 1.315 . S
C190 O185 1.279 . S
C191 O192 1.315 . S
C191 O193 1.279 . S
O192 Cd184 2.223 . S
O192 C191 1.315 . S
O193 Cd183 2.240 . S
O193 C191 1.279 . S
O194 Cd184 2.297 . S
O194 C189 1.247 . S
O195 Cd184 2.439 . S
O195 C189 1.208 . S
O196 Cd197 2.223 . S
O196 C204 1.315 . S
Cd197 O196 2.223 . S
Cd197 O200 2.297 . S
Cd197 O201 2.439 . S
Cd197 O207 2.240 . S
Cd198 O199 2.240 . S
Cd198 O206 2.223 . S
Cd198 O208 2.297 . S
Cd198 O209 2.439 . S
O199 Cd198 2.240 . S
O199 C204 1.279 . S
O200 Cd197 2.297 . S
O200 C202 1.247 . S
O201 Cd197 2.439 . S
O201 C202 1.208 . S
C202 O200 1.247 . S
C202 O201 1.208 . S
C203 O208 1.247 . S
C203 O209 1.208 . S
C204 O196 1.315 . S
C204 O199 1.279 . S
C205 O206 1.315 . S
C205 O207 1.279 . S
O206 Cd198 2.223 . S
O206 C205 1.315 . S
O207 Cd197 2.240 . S
O207 C205 1.279 . S
O208 Cd198 2.297 . S
O208 C203 1.247 . S
O209 Cd198 2.439 . S
O209 C203 1.208 . S
O210 Cd211 2.236 . S
O210 C218 1.319 . S
Cd211 O210 2.236 . S
Cd211 O214 2.297 . S
Cd211 O215 2.439 . S
Cd211 O221 2.240 . S
Cd212 O213 2.240 . S
Cd212 O220 2.223 . S
Cd212 O222 2.297 . S
Cd212 O223 2.439 . S
O213 Cd212 2.240 . S
O213 C218 1.279 . S
O214 Cd211 2.297 . S
O214 C216 1.247 . S
O215 Cd211 2.439 . S
O215 C216 1.208 . S
C216 O214 1.247 . S
C216 O215 1.208 . S
C217 O222 1.247 . S
C217 O223 1.208 . S
C218 O210 1.319 . S
C218 O213 1.279 . S
C219 O220 1.315 . S
C219 O221 1.279 . S
O220 Cd212 2.223 . S
O220 C219 1.315 . S
O221 Cd211 2.240 . S
O221 C219 1.279 . S
O222 Cd212 2.297 . S
O222 C217 1.247 . S
O223 Cd212 2.439 . S
O223 C217 1.208 . S
O224 Cd225 2.223 . S
O224 C232 1.315 . S
Cd225 O224 2.223 . S
Cd225 O228 2.297 . S
Cd225 O229 2.439 . S
Cd225 O235 2.240 . S
Cd226 O227 2.240 . S
Cd226 O234 2.223 . S
Cd226 O236 2.297 . S
Cd226 O237 2.439 . S
O227 Cd226 2.240 . S
O227 C232 1.279 . S
O228 Cd225 2.297 . S
O228 C230 1.247 . S
O229 Cd225 2.439 . S
O229 C230 1.208 . S
C230 O228 1.247 . S
C230 O229 1.208 . S
C231 O236 1.247 . S
C231 O237 1.208 . S
C232 O224 1.315 . S
C232 O227 1.279 . S
C233 O234 1.315 . S
C233 O235 1.279 . S
O234 Cd226 2.223 . S
O234 C233 1.315 . S
O235 Cd225 2.240 . S
O235 C233 1.279 . S
O236 Cd226 2.297 . S
O236 C231 1.247 . S
O237 Cd226 2.439 . S
O237 C231 1.208 . S
O238 Cd239 2.223 . S
O238 C246 1.315 . S
Cd239 O238 2.223 . S
Cd239 O242 2.297 . S
Cd239 O243 2.439 . S
Cd239 O249 2.240 . S
Cd240 O241 2.240 . S
Cd240 O248 2.223 . S
Cd240 O250 2.297 . S
Cd240 O251 2.439 . S
O241 Cd240 2.240 . S
O241 C246 1.279 . S
O242 Cd239 2.297 . S
O242 C244 1.247 . S
O243 Cd239 2.439 . S
O243 C244 1.208 . S
C244 O242 1.247 . S
C244 O243 1.208 . S
C245 O250 1.247 . S
C245 O251 1.208 . S
C246 O238 1.315 . S
C246 O241 1.279 . S
C247 O248 1.315 . S
C247 O249 1.279 . S
O248 Cd240 2.223 . S
O248 C247 1.315 . S
O249 Cd239 2.240 . S
O249 C247 1.279 . S
O250 Cd240 2.297 . S
O250 C245 1.247 . S
O251 Cd240 2.439 . S
O251 C245 1.208 . S
O252 Cd253 2.223 . S
O252 C260 1.315 . S
Cd253 O252 2.223 . S
Cd253 O256 2.297 . S
Cd253 O257 2.439 . S
Cd253 O263 2.240 . S
Cd254 O255 2.240 . S
Cd254 O262 2.223 . S
Cd254 O264 2.297 . S
Cd254 O265 2.439 . S
O255 Cd254 2.240 . S
O255 C260 1.279 . S
O256 Cd253 2.297 . S
O256 C258 1.247 . S
O257 Cd253 2.439 . S
O257 C258 1.208 . S
C258 O256 1.247 . S
C258 O257 1.208 . S
C259 O264 1.247 . S
C259 O265 1.208 . S
C260 O252 1.315 . S
C260 O255 1.279 . S
C261 O262 1.315 . S
C261 O263 1.279 . S
O262 Cd254 2.223 . S
O262 C261 1.315 . S
O263 Cd253 2.240 . S
O263 C261 1.279 . S
O264 Cd254 2.297 . S
O264 C259 1.247 . S
O265 Cd254 2.439 . S
O265 C259 1.208 . S
O266 Cd267 2.223 . S
O266 C274 1.315 . S
Cd267 O266 2.223 . S
Cd267 O270 2.297 . S
Cd267 O271 2.439 . S
Cd267 O277 2.240 . S
Cd268 O269 2.240 . S
Cd268 O276 2.223 . S
Cd268 O278 2.297 . S
Cd268 O279 2.439 . S
O269 Cd268 2.240 . S
O269 C274 1.279 . S
O270 Cd267 2.297 . S
O270 C272 1.247 . S
O271 Cd267 2.439 . S
O271 C272 1.208 . S
C272 O270 1.247 . S
C272 O271 1.208 . S
C273 O278 1.247 . S
C273 O279 1.208 . S
C274 O266 1.315 . S
C274 O269 1.279 . S
C275 O276 1.315 . S
C275 O277 1.279 . S
O276 Cd268 2.223 . S
O276 C275 1.315 . S
O277 Cd267 2.240 . S
O277 C275 1.279 . S
O278 Cd268 2.297 . S
O278 C273 1.247 . S
O279 Cd268 2.439 . S
O279 C273 1.208 . S
O280 Cd281 2.223 . S
O280 C288 1.315 . S
Cd281 O280 2.223 . S
Cd281 O284 2.297 . S
Cd281 O285 2.439 . S
Cd281 O291 2.240 . S
Cd282 O283 2.240 . S
Cd282 O290 2.223 . S
Cd282 O292 2.297 . S
Cd282 O293 2.439 . S
O283 Cd282 2.240 . S
O283 C288 1.279 . S
O284 Cd281 2.297 . S
O284 C286 1.247 . S
O285 Cd281 2.439 . S
O285 C286 1.208 . S
C286 O284 1.247 . S
C286 O285 1.208 . S
C287 O292 1.247 . S
C287 O293 1.208 . S
C288 O280 1.315 . S
C288 O283 1.279 . S
C289 O290 1.315 . S
C289 O291 1.279 . S
O290 Cd282 2.223 . S
O290 C289 1.315 . S
O291 Cd281 2.240 . S
O291 C289 1.279 . S
O292 Cd282 2.297 . S
O292 C287 1.247 . S
O293 Cd282 2.439 . S
O293 C287 1.208 . S
O294 Cd295 2.223 . S
O294 C302 1.315 . S
Cd295 O294 2.223 . S
Cd295 O298 2.297 . S
Cd295 O299 2.439 . S
Cd295 O305 2.240 . S
Cd296 O297 2.240 . S
Cd296 O304 2.223 . S
Cd296 O306 2.297 . S
Cd296 O307 2.439 . S
O297 Cd296 2.240 . S
O297 C302 1.279 . S
O298 Cd295 2.297 . S
O298 C300 1.247 . S
O299 Cd295 2.439 . S
O299 C300 1.208 . S
C300 O298 1.247 . S
C300 O299 1.208 . S
C301 O306 1.247 . S
C301 O307 1.208 . S
C302 O294 1.315 . S
C302 O297 1.279 . S
C303 O304 1.315 . S
C303 O305 1.279 . S
O304 Cd296 2.223 . S
O304 C303 1.315 . S
O305 Cd295 2.240 . S
O305 C303 1.279 . S
O306 Cd296 2.297 . S
O306 C301 1.247 . S
O307 Cd296 2.439 . S
O307 C301 1.208 . S
O308 Cd309 2.223 . S
O308 C316 1.315 . S
Cd309 O308 2.223 . S
Cd309 O312 2.297 . S
Cd309 O313 2.439 . S
Cd309 O319 2.240 . S
Cd310 O311 2.240 . S
Cd310 O318 2.223 . S
Cd310 O320 2.297 . S
Cd310 O321 2.439 . S
O311 Cd310 2.240 . S
O311 C316 1.279 . S
O312 Cd309 2.297 . S
O312 C314 1.247 . S
O313 Cd309 2.439 . S
O313 C314 1.208 . S
C314 O312 1.247 . S
C314 O313 1.208 . S
C315 O320 1.247 . S
C315 O321 1.208 . S
C316 O308 1.315 . S
C316 O311 1.279 . S
C317 O318 1.315 . S
C317 O319 1.279 . S
O318 Cd310 2.223 . S
O318 C317 1.315 . S
O319 Cd309 2.240 . S
O319 C317 1.279 . S
O320 Cd310 2.297 . S
O320 C315 1.247 . S
O321 Cd310 2.439 . S
O321 C315 1.208 . S
O322 Cd323 2.223 . S
O322 C330 1.315 . S
Cd323 O322 2.223 . S
Cd323 O326 2.297 . S
Cd323 O327 2.439 . S
Cd323 O333 2.240 . S
Cd324 O325 2.240 . S
Cd324 O332 2.223 . S
Cd324 O334 2.297 . S
Cd324 O335 2.439 . S
O325 Cd324 2.240 . S
O325 C330 1.279 . S
O326 Cd323 2.297 . S
O326 C328 1.247 . S
O327 Cd323 2.439 . S
O327 C328 1.208 . S
C328 O326 1.247 . S
C328 O327 1.208 . S
C329 O334 1.247 . S
C329 O335 1.208 . S
C330 O322 1.315 . S
C330 O325 1.279 . S
C331 O332 1.315 . S
C331 O333 1.279 . S
O332 Cd324 2.223 . S
O332 C331 1.315 . S
O333 Cd323 2.240 . S
O333 C331 1.279 . S
O334 Cd324 2.297 . S
O334 C329 1.247 . S
O335 Cd324 2.439 . S
O335 C329 1.208 . S
O336 Cd337 2.236 . S
O336 C344 1.319 . S
Cd337 O336 2.236 . S
Cd337 O340 2.297 . S
Cd337 O341 2.439 . S
Cd337 O347 2.240 . S
Cd338 O339 2.240 . S
Cd338 O346 2.223 . S
Cd338 O348 2.297 . S
Cd338 O349 2.439 . S
O339 Cd338 2.240 . S
O339 C344 1.279 . S
O340 Cd337 2.297 . S
O340 C342 1.247 . S
O341 Cd337 2.439 . S
O341 C342 1.208 . S
C342 O340 1.247 . S
C342 O341 1.208 . S
C343 O348 1.247 . S
C343 O349 1.208 . S
C344 O336 1.319 . S
C344 O339 1.279 . S
C345 O346 1.315 . S
C345 O347 1.279 . S
O346 Cd338 2.223 . S
O346 C345 1.315 . S
O347 Cd337 2.240 . S
O347 C345 1.279 . S
O348 Cd338 2.297 . S
O348 C343 1.247 . S
O349 Cd338 2.439 . S
O349 C343 1.208 . S
O350 Cd351 2.223 . S
O350 C358 1.315 . S
Cd351 O350 2.223 . S
Cd351 O354 2.297 . S
Cd351 O355 2.439 . S
Cd351 O361 2.240 . S
Cd352 O353 2.240 . S
Cd352 O360 2.223 . S
Cd352 O362 2.297 . S
Cd352 O363 2.439 . S
O353 Cd352 2.240 . S
O353 C358 1.279 . S
O354 Cd351 2.297 . S
O354 C356 1.247 . S
O355 Cd351 2.439 . S
O355 C356 1.208 . S
C356 O354 1.247 . S
C356 O355 1.208 . S
C357 O362 1.247 . S
C357 O363 1.208 . S
C358 O350 1.315 . S
C358 O353 1.279 . S
C359 O360 1.315 . S
C359 O361 1.279 . S
O360 Cd352 2.223 . S
O360 C359 1.315 . S
O361 Cd351 2.240 . S
O361 C359 1.279 . S
O362 Cd352 2.297 . S
O362 C357 1.247 . S
O363 Cd352 2.439 . S
O363 C357 1.208 . S
O364 Cd365 2.223 . S
O364 C372 1.315 . S
Cd365 O364 2.223 . S
Cd365 O368 2.297 . S
Cd365 O369 2.439 . S
Cd365 O375 2.240 . S
Cd366 O367 2.240 . S
Cd366 O374 2.223 . S
Cd366 O376 2.297 . S
Cd366 O377 2.439 . S
O367 Cd366 2.240 . S
O367 C372 1.279 . S
O368 Cd365 2.297 . S
O368 C370 1.247 . S
O369 Cd365 2.439 . S
O369 C370 1.208 . S
C370 O368 1.247 . S
C370 O369 1.208 . S
C371 O376 1.247 . S
C371 O377 1.208 . S
C372 O364 1.315 . S
C372 O367 1.279 . S
C373 O374 1.315 . S
C373 O375 1.279 . S
O374 Cd366 2.223 . S
O374 C373 1.315 . S
O375 Cd365 2.240 . S
O375 C373 1.279 . S
O376 Cd366 2.297 . S
O376 C371 1.247 . S
O377 Cd366 2.439 . S
O377 C371 1.208 . S
O378 Cd379 2.236 . S
O378 C386 1.319 . S
Cd379 O378 2.236 . S
Cd379 O382 2.297 . S
Cd379 O383 2.439 . S
Cd379 O389 2.240 . S
Cd380 O381 2.240 . S
Cd380 O388 2.223 . S
Cd380 O390 2.297 . S
Cd380 O391 2.439 . S
O381 Cd380 2.240 . S
O381 C386 1.279 . S
O382 Cd379 2.297 . S
O382 C384 1.247 . S
O383 Cd379 2.439 . S
O383 C384 1.208 . S
C384 O382 1.247 . S
C384 O383 1.208 . S
C385 O390 1.247 . S
C385 O391 1.208 . S
C386 O378 1.319 . S
C386 O381 1.279 . S
C387 O388 1.315 . S
C387 O389 1.279 . S
O388 Cd380 2.223 . S
O388 C387 1.315 . S
O389 Cd379 2.240 . S
O389 C387 1.279 . S
O390 Cd380 2.297 . S
O390 C385 1.247 . S
O391 Cd380 2.439 . S
O391 C385 1.208 . S
O392 Cd393 2.236 . S
O392 C400 1.319 . S
Cd393 O392 2.236 . S
Cd393 O396 2.297 . S
Cd393 O397 2.439 . S
Cd393 O403 2.240 . S
Cd394 O395 2.240 . S
Cd394 O402 2.223 . S
Cd394 O404 2.297 . S
Cd394 O405 2.439 . S
O395 Cd394 2.240 . S
O395 C400 1.279 . S
O396 Cd393 2.297 . S
O396 C398 1.247 . S
O397 Cd393 2.439 . S
O397 C398 1.208 . S
C398 O396 1.247 . S
C398 O397 1.208 . S
C399 O404 1.247 . S
C399 O405 1.208 . S
C400 O392 1.319 . S
C400 O395 1.279 . S
C401 O402 1.315 . S
C401 O403 1.279 . S
O402 Cd394 2.223 . S
O402 C401 1.315 . S
O403 Cd393 2.240 . S
O403 C401 1.279 . S
O404 Cd394 2.297 . S
O404 C399 1.247 . S
O405 Cd394 2.439 . S
O405 C399 1.208 . S
O406 Cd407 2.223 . S
O406 C414 1.315 . S
Cd407 O406 2.223 . S
Cd407 O410 2.297 . S
Cd407 O411 2.439 . S
Cd407 O417 2.240 . S
Cd408 O409 2.240 . S
Cd408 O416 2.223 . S
Cd408 O418 2.297 . S
Cd408 O419 2.439 . S
O409 Cd408 2.240 . S
O409 C414 1.279 . S
O410 Cd407 2.297 . S
O410 C412 1.247 . S
O411 Cd407 2.439 . S
O411 C412 1.208 . S
C412 O410 1.247 . S
C412 O411 1.208 . S
C413 O418 1.247 . S
C413 O419 1.208 . S
C414 O406 1.315 . S
C414 O409 1.279 . S
C415 O416 1.315 . S
C415 O417 1.279 . S
O416 Cd408 2.223 . S
O416 C415 1.315 . S
O417 Cd407 2.240 . S
O417 C415 1.279 . S
O418 Cd408 2.297 . S
O418 C413 1.247 . S
O419 Cd408 2.439 . S
O419 C413 1.208 . S
O420 Cd421 2.223 . S
O420 C428 1.315 . S
Cd421 O420 2.223 . S
Cd421 O424 2.297 . S
Cd421 O425 2.439 . S
Cd421 O431 2.240 . S
Cd422 O423 2.240 . S
Cd422 O430 2.223 . S
Cd422 O432 2.297 . S
Cd422 O433 2.439 . S
O423 Cd422 2.240 . S
O423 C428 1.279 . S
O424 Cd421 2.297 . S
O424 C426 1.247 . S
O425 Cd421 2.439 . S
O425 C426 1.208 . S
C426 O424 1.247 . S
C426 O425 1.208 . S
C427 O432 1.247 . S
C427 O433 1.208 . S
C428 O420 1.315 . S
C428 O423 1.279 . S
C429 O430 1.315 . S
C429 O431 1.279 . S
O430 Cd422 2.223 . S
O430 C429 1.315 . S
O431 Cd421 2.240 . S
O431 C429 1.279 . S
O432 Cd422 2.297 . S
O432 C427 1.247 . S
O433 Cd422 2.439 . S
O433 C427 1.208 . S
O434 Cd435 2.236 . S
O434 C442 1.319 . S
Cd435 O434 2.236 . S
Cd435 O438 2.297 . S
Cd435 O439 2.439 . S
Cd435 O445 2.240 . S
Cd436 O437 2.240 . S
Cd436 O444 2.223 . S
Cd436 O446 2.297 . S
Cd436 O447 2.439 . S
O437 Cd436 2.240 . S
O437 C442 1.279 . S
O438 Cd435 2.297 . S
O438 C440 1.247 . S
O439 Cd435 2.439 . S
O439 C440 1.208 . S
C440 O438 1.247 . S
C440 O439 1.208 . S
C441 O446 1.247 . S
C441 O447 1.208 . S
C442 O434 1.319 . S
C442 O437 1.279 . S
C443 O444 1.315 . S
C443 O445 1.279 . S
O444 Cd436 2.223 . S
O444 C443 1.315 . S
O445 Cd435 2.240 . S
O445 C443 1.279 . S
O446 Cd436 2.297 . S
O446 C441 1.247 . S
O447 Cd436 2.439 . S
O447 C441 1.208 . S
H448 C454 0.930 . S
H449 C458 0.930 . S
H450 C463 0.929 . S
H451 C461 0.929 . S
H452 C456 0.929 . S
H453 C462 0.929 . S
C454 H448 0.930 . S
C454 C455 1.367 . S
C454 C462 1.378 . S
C455 C454 1.367 . S
C455 C463 1.433 . S
C456 H452 0.929 . S
C456 C458 1.378 . S
C456 C460 1.350 . S
C457 C460 1.463 . S
C457 C462 1.350 . S
C457 N465 1.427 . S
C458 H449 0.930 . S
C458 C456 1.378 . S
C458 C459 1.367 . S
C459 C458 1.367 . S
C459 C461 1.433 . S
C460 C456 1.350 . S
C460 C457 1.463 . S
C460 N464 1.427 . S
C461 H451 0.929 . S
C461 C459 1.433 . S
C461 N464 1.384 . S
C462 H453 0.929 . S
C462 C454 1.378 . S
C462 C457 1.350 . S
C463 H450 0.929 . S
C463 C455 1.433 . S
C463 N465 1.384 . S
N464 C460 1.427 . S
N464 C461 1.384 . S
N465 C457 1.427 . S
N465 C463 1.384 . S
H466 C472 0.930 . S
H467 C476 0.930 . S
H468 C481 0.929 . S
H469 C479 0.929 . S
H470 C474 0.929 . S
H471 C480 0.929 . S
C472 H466 0.930 . S
C472 C473 1.367 . S
C472 C480 1.378 . S
C473 C472 1.367 . S
C473 C481 1.433 . S
C474 H470 0.929 . S
C474 C476 1.378 . S
C474 C478 1.350 . S
C475 C478 1.463 . S
C475 C480 1.350 . S
C475 N483 1.427 . S
C476 H467 0.930 . S
C476 C474 1.378 . S
C476 C477 1.367 . S
C477 C476 1.367 . S
C477 C479 1.433 . S
C478 C474 1.350 . S
C478 C475 1.463 . S
C478 N482 1.427 . S
C479 H469 0.929 . S
C479 C477 1.433 . S
C479 N482 1.384 . S
C480 H471 0.929 . S
C480 C472 1.378 . S
C480 C475 1.350 . S
C481 H468 0.929 . S
C481 C473 1.433 . S
C481 N483 1.384 . S
N482 C478 1.427 . S
N482 C479 1.384 . S
N483 C475 1.427 . S
N483 C481 1.384 . S
H484 C490 0.930 . S
H485 C494 0.930 . S
H486 C499 0.929 . S
H487 C497 0.929 . S
H488 C492 0.929 . S
H489 C498 0.929 . S
C490 H484 0.930 . S
C490 C491 1.367 . S
C490 C498 1.378 . S
C491 C490 1.367 . S
C491 C499 1.433 . S
C492 H488 0.929 . S
C492 C494 1.378 . S
C492 C496 1.350 . S
C493 C496 1.463 . S
C493 C498 1.350 . S
C493 N501 1.427 . S
C494 H485 0.930 . S
C494 C492 1.378 . S
C494 C495 1.367 . S
C495 C494 1.367 . S
C495 C497 1.433 . S
C496 C492 1.350 . S
C496 C493 1.463 . S
C496 N500 1.427 . S
C497 H487 0.929 . S
C497 C495 1.433 . S
C497 N500 1.384 . S
C498 H489 0.929 . S
C498 C490 1.378 . S
C498 C493 1.350 . S
C499 H486 0.929 . S
C499 C491 1.433 . S
C499 N501 1.384 . S
N500 C496 1.427 . S
N500 C497 1.384 . S
N501 C493 1.427 . S
N501 C499 1.384 . S
H502 C508 0.930 . S
H503 C512 0.930 . S
H504 C517 0.929 . S
H505 C515 0.929 . S
H506 C510 0.929 . S
H507 C516 0.929 . S
C508 H502 0.930 . S
C508 C509 1.367 . S
C508 C516 1.378 . S
C509 C508 1.367 . S
C509 C517 1.433 . S
C510 H506 0.929 . S
C510 C512 1.378 . S
C510 C514 1.350 . S
C511 C514 1.463 . S
C511 C516 1.350 . S
C511 N519 1.427 . S
C512 H503 0.930 . S
C512 C510 1.378 . S
C512 C513 1.367 . S
C513 C512 1.367 . S
C513 C515 1.433 . S
C514 C510 1.350 . S
C514 C511 1.463 . S
C514 N518 1.427 . S
C515 H505 0.929 . S
C515 C513 1.433 . S
C515 N518 1.384 . S
C516 H507 0.929 . S
C516 C508 1.378 . S
C516 C511 1.350 . S
C517 H504 0.929 . S
C517 C509 1.433 . S
C517 N519 1.384 . S
N518 C514 1.427 . S
N518 C515 1.384 . S
N519 C511 1.427 . S
N519 C517 1.384 . S
H520 C526 0.930 . S
H521 C530 0.930 . S
H522 C535 0.929 . S
H523 C533 0.929 . S
H524 C528 0.929 . S
H525 C534 0.929 . S
C526 H520 0.930 . S
C526 C527 1.367 . S
C526 C534 1.378 . S
C527 C526 1.367 . S
C527 C535 1.433 . S
C528 H524 0.929 . S
C528 C530 1.378 . S
C528 C532 1.350 . S
C529 C532 1.463 . S
C529 C534 1.350 . S
C529 N537 1.427 . S
C530 H521 0.930 . S
C530 C528 1.378 . S
C530 C531 1.367 . S
C531 C530 1.367 . S
C531 C533 1.433 . S
C532 C528 1.350 . S
C532 C529 1.463 . S
C532 N536 1.427 . S
C533 H523 0.929 . S
C533 C531 1.433 . S
C533 N536 1.384 . S
C534 H525 0.929 . S
C534 C526 1.378 . S
C534 C529 1.350 . S
C535 H522 0.929 . S
C535 C527 1.433 . S
C535 N537 1.384 . S
N536 C532 1.427 . S
N536 C533 1.384 . S
N537 C529 1.427 . S
N537 C535 1.384 . S
H538 C544 0.930 . S
H539 C548 0.930 . S
H540 C553 0.929 . S
H541 C551 0.929 . S
H542 C546 0.929 . S
H543 C552 0.929 . S
C544 H538 0.930 . S
C544 C545 1.367 . S
C544 C552 1.378 . S
C545 C544 1.367 . S
C545 C553 1.433 . S
C546 H542 0.929 . S
C546 C548 1.378 . S
C546 C550 1.350 . S
C547 C550 1.463 . S
C547 C552 1.350 . S
C547 N555 1.427 . S
C548 H539 0.930 . S
C548 C546 1.378 . S
C548 C549 1.367 . S
C549 C548 1.367 . S
C549 C551 1.433 . S
C550 C546 1.350 . S
C550 C547 1.463 . S
C550 N554 1.427 . S
C551 H541 0.929 . S
C551 C549 1.433 . S
C551 N554 1.384 . S
C552 H543 0.929 . S
C552 C544 1.378 . S
C552 C547 1.350 . S
C553 H540 0.929 . S
C553 C545 1.433 . S
C553 N555 1.384 . S
N554 C550 1.427 . S
N554 C551 1.384 . S
N555 C547 1.427 . S
N555 C553 1.384 . S
H556 C562 0.930 . S
H557 C566 0.930 . S
H558 C571 0.929 . S
H559 C569 0.929 . S
H560 C564 0.929 . S
H561 C570 0.929 . S
C562 H556 0.930 . S
C562 C563 1.367 . S
C562 C570 1.378 . S
C563 C562 1.367 . S
C563 C571 1.433 . S
C564 H560 0.929 . S
C564 C566 1.378 . S
C564 C568 1.350 . S
C565 C568 1.463 . S
C565 C570 1.350 . S
C565 N573 1.427 . S
C566 H557 0.930 . S
C566 C564 1.378 . S
C566 C567 1.367 . S
C567 C566 1.367 . S
C567 C569 1.433 . S
C568 C564 1.350 . S
C568 C565 1.463 . S
C568 N572 1.427 . S
C569 H559 0.929 . S
C569 C567 1.433 . S
C569 N572 1.384 . S
C570 H561 0.929 . S
C570 C562 1.378 . S
C570 C565 1.350 . S
C571 H558 0.929 . S
C571 C563 1.433 . S
C571 N573 1.384 . S
N572 C568 1.427 . S
N572 C569 1.384 . S
N573 C565 1.427 . S
N573 C571 1.384 . S
H574 C580 0.930 . S
H575 C584 0.930 . S
H576 C589 0.929 . S
H577 C587 0.931 . S
H578 C582 0.929 . S
H579 C588 0.929 . S
C580 H574 0.930 . S
C580 C581 1.367 . S
C580 C588 1.378 . S
C581 C580 1.367 . S
C581 C589 1.433 . S
C582 H578 0.929 . S
C582 C584 1.378 . S
C582 C586 1.350 . S
C583 C586 1.463 . S
C583 C588 1.350 . S
C583 N591 1.427 . S
C584 H575 0.930 . S
C584 C582 1.378 . S
C584 C585 1.367 . S
C585 C584 1.367 . S
C585 C587 1.433 . S
C586 C582 1.350 . S
C586 C583 1.463 . S
C586 N590 1.427 . S
C587 H577 0.931 . S
C587 C585 1.433 . S
C587 N590 1.384 . S
C588 H579 0.929 . S
C588 C580 1.378 . S
C588 C583 1.350 . S
C589 H576 0.929 . S
C589 C581 1.433 . S
C589 N591 1.384 . S
N590 C586 1.427 . S
N590 C587 1.384 . S
N591 C583 1.427 . S
N591 C589 1.384 . S
H592 C598 0.930 . S
H593 C602 0.930 . S
H594 C607 0.929 . S
H595 C605 0.929 . S
H596 C600 0.929 . S
H597 C606 0.929 . S
C598 H592 0.930 . S
C598 C599 1.367 . S
C598 C606 1.378 . S
C599 C598 1.367 . S
C599 C607 1.433 . S
C600 H596 0.929 . S
C600 C602 1.378 . S
C600 C604 1.350 . S
C601 C604 1.463 . S
C601 C606 1.350 . S
C601 N609 1.427 . S
C602 H593 0.930 . S
C602 C600 1.378 . S
C602 C603 1.367 . S
C603 C602 1.367 . S
C603 C605 1.433 . S
C604 C600 1.350 . S
C604 C601 1.463 . S
C604 N608 1.427 . S
C605 H595 0.929 . S
C605 C603 1.433 . S
C605 N608 1.384 . S
C606 H597 0.929 . S
C606 C598 1.378 . S
C606 C601 1.350 . S
C607 H594 0.929 . S
C607 C599 1.433 . S
C607 N609 1.384 . S
N608 C604 1.427 . S
N608 C605 1.384 . S
N609 C601 1.427 . S
N609 C607 1.384 . S
H610 C616 0.930 . S
H611 C620 0.930 . S
H612 C625 0.929 . S
H613 C623 0.929 . S
H614 C618 0.929 . S
H615 C624 0.929 . S
C616 H610 0.930 . S
C616 C617 1.367 . S
C616 C624 1.378 . S
C617 C616 1.367 . S
C617 C625 1.433 . S
C618 H614 0.929 . S
C618 C620 1.378 . S
C618 C622 1.350 . S
C619 C622 1.463 . S
C619 C624 1.350 . S
C619 N627 1.427 . S
C620 H611 0.930 . S
C620 C618 1.378 . S
C620 C621 1.367 . S
C621 C620 1.367 . S
C621 C623 1.433 . S
C622 C618 1.350 . S
C622 C619 1.463 . S
C622 N626 1.427 . S
C623 H613 0.929 . S
C623 C621 1.433 . S
C623 N626 1.384 . S
C624 H615 0.929 . S
C624 C616 1.378 . S
C624 C619 1.350 . S
C625 H612 0.929 . S
C625 C617 1.433 . S
C625 N627 1.384 . S
N626 C622 1.427 . S
N626 C623 1.384 . S
N627 C619 1.427 . S
N627 C625 1.384 . S
H628 C634 0.930 . S
H629 C638 0.930 . S
H630 C643 0.929 . S
H631 C641 0.929 . S
H632 C636 0.929 . S
H633 C642 0.929 . S
C634 H628 0.930 . S
C634 C635 1.367 . S
C634 C642 1.378 . S
C635 C634 1.367 . S
C635 C643 1.433 . S
C636 H632 0.929 . S
C636 C638 1.378 . S
C636 C640 1.350 . S
C637 C640 1.463 . S
C637 C642 1.350 . S
C637 N645 1.427 . S
C638 H629 0.930 . S
C638 C636 1.378 . S
C638 C639 1.367 . S
C639 C638 1.367 . S
C639 C641 1.433 . S
C640 C636 1.350 . S
C640 C637 1.463 . S
C640 N644 1.427 . S
C641 H631 0.929 . S
C641 C639 1.433 . S
C641 N644 1.384 . S
C642 H633 0.929 . S
C642 C634 1.378 . S
C642 C637 1.350 . S
C643 H630 0.929 . S
C643 C635 1.433 . S
C643 N645 1.384 . S
N644 C640 1.427 . S
N644 C641 1.384 . S
N645 C637 1.427 . S
N645 C643 1.384 . S
H646 C652 0.930 . S
H647 C656 0.930 . S
H648 C661 0.929 . S
H649 C659 0.929 . S
H650 C654 0.929 . S
H651 C660 0.929 . S
C652 H646 0.930 . S
C652 C653 1.367 . S
C652 C660 1.378 . S
C653 C652 1.367 . S
C653 C661 1.433 . S
C654 H650 0.929 . S
C654 C656 1.378 . S
C654 C658 1.350 . S
C655 C658 1.463 . S
C655 C660 1.350 . S
C655 N663 1.427 . S
C656 H647 0.930 . S
C656 C654 1.378 . S
C656 C657 1.367 . S
C657 C656 1.367 . S
C657 C659 1.433 . S
C658 C654 1.350 . S
C658 C655 1.463 . S
C658 N662 1.427 . S
C659 H649 0.929 . S
C659 C657 1.433 . S
C659 N662 1.384 . S
C660 H651 0.929 . S
C660 C652 1.378 . S
C660 C655 1.350 . S
C661 H648 0.929 . S
C661 C653 1.433 . S
C661 N663 1.384 . S
N662 C658 1.427 . S
N662 C659 1.384 . S
N663 C655 1.427 . S
N663 C661 1.384 . S
H664 C670 0.930 . S
H665 C674 0.930 . S
H666 C679 0.929 . S
H667 C677 0.929 . S
H668 C672 0.929 . S
H669 C678 0.929 . S
C670 H664 0.930 . S
C670 C671 1.367 . S
C670 C678 1.378 . S
C671 C670 1.367 . S
C671 C679 1.433 . S
C672 H668 0.929 . S
C672 C674 1.378 . S
C672 C676 1.350 . S
C673 C676 1.463 . S
C673 C678 1.350 . S
C673 N681 1.427 . S
C674 H665 0.930 . S
C674 C672 1.378 . S
C674 C675 1.367 . S
C675 C674 1.367 . S
C675 C677 1.433 . S
C676 C672 1.350 . S
C676 C673 1.463 . S
C676 N680 1.427 . S
C677 H667 0.929 . S
C677 C675 1.433 . S
C677 N680 1.384 . S
C678 H669 0.929 . S
C678 C670 1.378 . S
C678 C673 1.350 . S
C679 H666 0.929 . S
C679 C671 1.433 . S
C679 N681 1.384 . S
N680 C676 1.427 . S
N680 C677 1.384 . S
N681 C673 1.427 . S
N681 C679 1.384 . S
H682 C688 0.930 . S
H683 C692 0.930 . S
H684 C697 0.929 . S
H685 C695 0.929 . S
H686 C690 0.929 . S
H687 C696 0.929 . S
C688 H682 0.930 . S
C688 C689 1.367 . S
C688 C696 1.378 . S
C689 C688 1.367 . S
C689 C697 1.433 . S
C690 H686 0.929 . S
C690 C692 1.378 . S
C690 C694 1.350 . S
C691 C694 1.463 . S
C691 C696 1.350 . S
C691 N699 1.427 . S
C692 H683 0.930 . S
C692 C690 1.378 . S
C692 C693 1.367 . S
C693 C692 1.367 . S
C693 C695 1.433 . S
C694 C690 1.350 . S
C694 C691 1.463 . S
C694 N698 1.427 . S
C695 H685 0.929 . S
C695 C693 1.433 . S
C695 N698 1.384 . S
C696 H687 0.929 . S
C696 C688 1.378 . S
C696 C691 1.350 . S
C697 H684 0.929 . S
C697 C689 1.433 . S
C697 N699 1.384 . S
N698 C694 1.427 . S
N698 C695 1.384 . S
N699 C691 1.427 . S
N699 C697 1.384 . S
H700 C706 0.930 . S
H701 C710 0.939 . S
H702 C715 0.929 . S
H703 C713 0.929 . S
H704 C708 0.929 . S
H705 C714 0.929 . S
C706 H700 0.930 . S
C706 C707 1.367 . S
C706 C714 1.378 . S
C707 C706 1.367 . S
C707 C715 1.433 . S
C708 H704 0.929 . S
C708 C710 1.378 . S
C708 C712 1.350 . S
C709 C712 1.463 . S
C709 C714 1.350 . S
C709 N717 1.427 . S
C710 H701 0.939 . S
C710 C708 1.378 . S
C710 C711 1.367 . S
C711 C710 1.367 . S
C711 C713 1.433 . S
C712 C708 1.350 . S
C712 C709 1.463 . S
C712 N716 1.427 . S
C713 H703 0.929 . S
C713 C711 1.433 . S
C713 N716 1.384 . S
C714 H705 0.929 . S
C714 C706 1.378 . S
C714 C709 1.350 . S
C715 H702 0.929 . S
C715 C707 1.433 . S
C715 N717 1.384 . S
N716 C712 1.427 . S
N716 C713 1.384 . S
N717 C709 1.427 . S
N717 C715 1.384 . S
H718 C724 0.930 . S
H719 C728 0.930 . S
H720 C733 0.929 . S
H721 C731 0.929 . S
H722 C726 0.929 . S
H723 C732 0.929 . S
C724 H718 0.930 . S
C724 C725 1.367 . S
C724 C732 1.378 . S
C725 C724 1.367 . S
C725 C733 1.433 . S
C726 H722 0.929 . S
C726 C728 1.378 . S
C726 C730 1.350 . S
C727 C730 1.463 . S
C727 C732 1.350 . S
C727 N735 1.427 . S
C728 H719 0.930 . S
C728 C726 1.378 . S
C728 C729 1.367 . S
C729 C728 1.367 . S
C729 C731 1.433 . S
C730 C726 1.350 . S
C730 C727 1.463 . S
C730 N734 1.427 . S
C731 H721 0.929 . S
C731 C729 1.433 . S
C731 N734 1.384 . S
C732 H723 0.929 . S
C732 C724 1.378 . S
C732 C727 1.350 . S
C733 H720 0.929 . S
C733 C725 1.433 . S
C733 N735 1.384 . S
N734 C730 1.427 . S
N734 C731 1.384 . S
N735 C727 1.427 . S
N735 C733 1.384 . S
H736 C742 0.930 . S
H737 C746 0.930 . S
H738 C751 0.929 . S
H739 C749 0.929 . S
H740 C744 0.929 . S
H741 C750 0.929 . S
C742 H736 0.930 . S
C742 C743 1.367 . S
C742 C750 1.378 . S
C743 C742 1.367 . S
C743 C751 1.433 . S
C744 H740 0.929 . S
C744 C746 1.378 . S
C744 C748 1.350 . S
C745 C748 1.463 1_656 S
C745 C750 1.350 . S
C745 N753 1.427 . S
C746 H737 0.930 . S
C746 C744 1.378 . S
C746 C747 1.367 . S
C747 C746 1.367 . S
C747 C749 1.433 . S
C748 C744 1.350 . S
C748 C745 1.463 1_454 S
C748 N752 1.427 . S
C749 H739 0.929 . S
C749 C747 1.433 . S
C749 N752 1.384 . S
C750 H741 0.929 . S
C750 C742 1.378 . S
C750 C745 1.350 . S
C751 H738 0.929 . S
C751 C743 1.433 . S
C751 N753 1.384 . S
N752 C748 1.427 . S
N752 C749 1.384 . S
N753 C745 1.427 . S
N753 C751 1.384 . S
H754 C760 0.930 . S
H755 C764 0.930 . S
H756 C769 0.929 . S
H757 C767 0.929 . S
H758 C762 0.929 . S
H759 C768 0.929 . S
C760 H754 0.930 . S
C760 C761 1.367 . S
C760 C768 1.378 . S
C761 C760 1.367 . S
C761 C769 1.433 . S
C762 H758 0.929 . S
C762 C764 1.378 . S
C762 C766 1.350 . S
C763 C766 1.463 1_556 S
C763 C768 1.350 . S
C763 N771 1.427 . S
C764 H755 0.930 . S
C764 C762 1.378 . S
C764 C765 1.367 . S
C765 C764 1.367 . S
C765 C767 1.433 . S
C766 C762 1.350 . S
C766 C763 1.463 1_554 S
C766 N770 1.427 . S
C767 H757 0.929 . S
C767 C765 1.433 . S
C767 N770 1.384 . S
C768 H759 0.929 . S
C768 C760 1.378 . S
C768 C763 1.350 . S
C769 H756 0.929 . S
C769 C761 1.433 . S
C769 N771 1.384 . S
N770 C766 1.427 . S
N770 C767 1.384 . S
N771 C763 1.427 . S
N771 C769 1.384 . S
H772 C778 0.912 1_655 S
H773 C782 0.912 1_455 S
H774 C787 0.929 . S
H775 C785 0.929 . S
H776 C780 0.929 . S
H777 C786 0.929 . S
C778 H772 0.912 1_455 S
C778 C779 1.367 . S
C778 C786 1.378 1_455 S
C779 C778 1.367 . S
C779 C787 1.433 . S
C780 H776 0.929 . S
C780 C782 1.378 1_455 S
C780 C784 1.350 1_455 S
C781 C784 1.463 1_455 S
C781 C786 1.350 1_455 S
C781 N789 1.427 . S
C782 H773 0.912 1_655 S
C782 C780 1.378 1_655 S
C782 C783 1.367 . S
C783 C782 1.367 . S
C783 C785 1.433 . S
C784 C780 1.350 1_655 S
C784 C781 1.463 1_655 S
C784 N788 1.427 . S
C785 H775 0.929 . S
C785 C783 1.433 . S
C785 N788 1.384 . S
C786 H777 0.929 . S
C786 C778 1.378 1_655 S
C786 C781 1.350 1_655 S
C787 H774 0.929 . S
C787 C779 1.433 . S
C787 N789 1.384 . S
N788 C784 1.427 . S
N788 C785 1.384 . S
N789 C781 1.427 . S
N789 C787 1.384 . S
H790 C796 0.930 . S
H791 C800 0.930 . S
H792 C805 0.929 . S
H793 C803 0.929 . S
H794 C798 0.929 . S
H795 C804 0.929 . S
C796 H790 0.930 . S
C796 C797 1.367 . S
C796 C804 1.378 . S
C797 C796 1.367 . S
C797 C805 1.433 . S
C798 H794 0.929 . S
C798 C800 1.378 . S
C798 C802 1.350 . S
C799 C802 1.463 . S
C799 C804 1.350 . S
C799 N807 1.427 . S
C800 H791 0.930 . S
C800 C798 1.378 . S
C800 C801 1.367 . S
C801 C800 1.367 . S
C801 C803 1.433 . S
C802 C798 1.350 . S
C802 C799 1.463 . S
C802 N806 1.427 . S
C803 H793 0.929 . S
C803 C801 1.433 . S
C803 N806 1.384 . S
C804 H795 0.929 . S
C804 C796 1.378 . S
C804 C799 1.350 . S
C805 H792 0.929 . S
C805 C797 1.433 . S
C805 N807 1.384 . S
N806 C802 1.427 . S
N806 C803 1.384 . S
N807 C799 1.427 . S
N807 C805 1.384 . S
H808 C814 0.930 . S
H809 C818 0.930 . S
H810 C823 0.929 . S
H811 C821 0.929 . S
H812 C816 0.929 1_556 S
H813 C822 0.929 1_554 S
C814 H808 0.930 . S
C814 C815 1.367 . S
C814 C822 1.378 . S
C815 C814 1.367 . S
C815 C823 1.433 . S
C816 H812 0.929 1_554 S
C816 C818 1.378 . S
C816 C820 1.350 . S
C817 C820 1.463 1_556 S
C817 C822 1.350 . S
C817 N825 1.427 . S
C818 H809 0.930 . S
C818 C816 1.378 . S
C818 C819 1.367 . S
C819 C818 1.367 . S
C819 C821 1.433 . S
C820 C816 1.350 . S
C820 C817 1.463 1_554 S
C820 N824 1.427 . S
C821 H811 0.929 . S
C821 C819 1.433 . S
C821 N824 1.384 . S
C822 H813 0.929 1_556 S
C822 C814 1.378 . S
C822 C817 1.350 . S
C823 H810 0.929 . S
C823 C815 1.433 . S
C823 N825 1.384 . S
N824 C820 1.427 . S
N824 C821 1.384 . S
N825 C817 1.427 . S
N825 C823 1.384 . S
H826 C832 0.930 . S
H827 C836 0.930 . S
H828 C841 0.929 . S
H829 C839 0.929 . S
H830 C834 0.929 . S
H831 C840 0.929 . S
C832 H826 0.930 . S
C832 C833 1.367 . S
C832 C840 1.378 . S
C833 C832 1.367 . S
C833 C841 1.433 . S
C834 H830 0.929 . S
C834 C836 1.378 . S
C834 C838 1.350 . S
C835 C838 1.463 1_655 S
C835 C840 1.350 . S
C835 N843 1.427 . S
C836 H827 0.930 . S
C836 C834 1.378 . S
C836 C837 1.367 . S
C837 C836 1.367 . S
C837 C839 1.433 . S
C838 C834 1.350 . S
C838 C835 1.463 1_455 S
C838 N842 1.427 . S
C839 H829 0.929 . S
C839 C837 1.433 . S
C839 N842 1.384 . S
C840 H831 0.929 . S
C840 C832 1.378 . S
C840 C835 1.350 . S
C841 H828 0.929 . S
C841 C833 1.433 . S
C841 N843 1.384 . S
N842 C838 1.427 . S
N842 C839 1.384 . S
N843 C835 1.427 . S
N843 C841 1.384 . S
H844 C850 0.930 . S
H845 C854 0.930 . S
H846 C859 0.929 . S
H847 C857 0.929 . S
H848 C852 0.929 . S
H849 C858 0.929 . S
C850 H844 0.930 . S
C850 C851 1.367 . S
C850 C858 1.378 . S
C851 C850 1.367 . S
C851 C859 1.433 . S
C852 H848 0.929 . S
C852 C854 1.378 . S
C852 C856 1.350 . S
C853 C856 1.463 . S
C853 C858 1.350 . S
C853 N861 1.427 . S
C854 H845 0.930 . S
C854 C852 1.378 . S
C854 C855 1.367 . S
C855 C854 1.367 . S
C855 C857 1.433 . S
C856 C852 1.350 . S
C856 C853 1.463 . S
C856 N860 1.427 . S
C857 H847 0.929 . S
C857 C855 1.433 . S
C857 N860 1.384 . S
C858 H849 0.929 . S
C858 C850 1.378 . S
C858 C853 1.350 . S
C859 H846 0.929 . S
C859 C851 1.433 . S
C859 N861 1.384 . S
N860 C856 1.427 . S
N860 C857 1.384 . S
N861 C853 1.427 . S
N861 C859 1.384 . S
H862 C868 0.930 . S
H863 C872 0.930 . S
H864 C877 0.929 . S
H865 C875 0.929 . S
H866 C870 0.929 . S
H867 C876 0.929 . S
C868 H862 0.930 . S
C868 C869 1.367 . S
C868 C876 1.378 . S
C869 C868 1.367 . S
C869 C877 1.433 . S
C870 H866 0.929 . S
C870 C872 1.378 . S
C870 C874 1.350 . S
C871 C874 1.463 1_645 S
C871 C876 1.350 . S
C871 N879 1.427 1_655 S
C872 H863 0.930 . S
C872 C870 1.378 . S
C872 C873 1.367 . S
C873 C872 1.367 . S
C873 C875 1.433 . S
C874 C870 1.350 . S
C874 C871 1.463 1_465 S
C874 N878 1.427 1_455 S
C875 H865 0.929 . S
C875 C873 1.433 . S
C875 N878 1.384 1_455 S
C876 H867 0.929 . S
C876 C868 1.378 . S
C876 C871 1.350 . S
C877 H864 0.929 . S
C877 C869 1.433 . S
C877 N879 1.384 1_655 S
N878 C874 1.427 1_655 S
N878 C875 1.384 1_655 S
N879 C871 1.427 1_455 S
N879 C877 1.384 1_455 S
H880 C886 0.930 . S
H881 C890 0.930 . S
H882 C895 0.929 . S
H883 C893 0.929 . S
H884 C888 0.929 . S
H885 C894 0.929 . S
C886 H880 0.930 . S
C886 C887 1.367 . S
C886 C894 1.378 . S
C887 C886 1.367 . S
C887 C895 1.433 . S
C888 H884 0.929 . S
C888 C890 1.378 . S
C888 C892 1.350 . S
C889 C892 1.463 . S
C889 C894 1.350 . S
C889 N897 1.427 . S
C890 H881 0.930 . S
C890 C888 1.378 . S
C890 C891 1.367 . S
C891 C890 1.367 . S
C891 C893 1.433 . S
C892 C888 1.350 . S
C892 C889 1.463 . S
C892 N896 1.427 . S
C893 H883 0.929 . S
C893 C891 1.433 . S
C893 N896 1.384 . S
C894 H885 0.929 . S
C894 C886 1.378 . S
C894 C889 1.350 . S
C895 H882 0.929 . S
C895 C887 1.433 . S
C895 N897 1.384 . S
N896 C892 1.427 . S
N896 C893 1.384 . S
N897 C889 1.427 . S
N897 C895 1.384 . S
H898 C904 0.930 1_545 S
H899 C908 0.930 1_565 S
H900 C913 0.929 . S
H901 C911 0.929 . S
H902 C906 0.929 . S
H903 C912 0.929 . S
C904 H898 0.930 1_565 S
C904 C905 1.367 . S
C904 C912 1.378 1_565 S
C905 C904 1.367 . S
C905 C913 1.433 . S
C906 H902 0.929 . S
C906 C908 1.378 1_565 S
C906 C910 1.350 1_565 S
C907 C910 1.463 1_565 S
C907 C912 1.350 1_565 S
C907 N915 1.427 . S
C908 H899 0.930 1_545 S
C908 C906 1.378 1_545 S
C908 C909 1.367 . S
C909 C908 1.367 . S
C909 C911 1.433 . S
C910 C906 1.350 1_545 S
C910 C907 1.463 1_545 S
C910 N914 1.427 . S
C911 H901 0.929 . S
C911 C909 1.433 . S
C911 N914 1.384 . S
C912 H903 0.929 . S
C912 C904 1.378 1_545 S
C912 C907 1.350 1_545 S
C913 H900 0.929 . S
C913 C905 1.433 . S
C913 N915 1.384 . S
N914 C910 1.427 . S
N914 C911 1.384 . S
N915 C907 1.427 . S
N915 C913 1.384 . S
H916 C922 0.930 . S
H917 C926 0.930 . S
H918 C931 0.929 . S
H919 C929 0.929 . S
H920 C924 0.929 . S
H921 C930 0.929 . S
C922 H916 0.930 . S
C922 C923 1.367 . S
C922 C930 1.378 . S
C923 C922 1.367 . S
C923 C931 1.433 . S
C924 H920 0.929 . S
C924 C926 1.378 . S
C924 C928 1.350 . S
C925 C928 1.463 . S
C925 C930 1.350 . S
C925 N933 1.427 . S
C926 H917 0.930 . S
C926 C924 1.378 . S
C926 C927 1.367 . S
C927 C926 1.367 . S
C927 C929 1.433 . S
C928 C924 1.350 . S
C928 C925 1.463 . S
C928 N932 1.427 . S
C929 H919 0.929 . S
C929 C927 1.433 . S
C929 N932 1.384 . S
C930 H921 0.929 . S
C930 C922 1.378 . S
C930 C925 1.350 . S
C931 H918 0.929 . S
C931 C923 1.433 . S
C931 N933 1.384 . S
N932 C928 1.427 . S
N932 C929 1.384 . S
N933 C925 1.427 . S
N933 C931 1.384 . S
H934 C940 0.930 . S
H935 C944 0.930 . S
H936 C949 0.926 1_545 S
H937 C947 0.926 1_565 S
H938 C942 0.929 . S
H939 C948 0.929 . S
C940 H934 0.930 . S
C940 C941 1.367 . S
C940 C948 1.378 . S
C941 C940 1.367 . S
C941 C949 1.439 . S
C942 H938 0.929 . S
C942 C944 1.378 . S
C942 C946 1.350 . S
C943 C946 1.463 1_565 S
C943 C948 1.350 . S
C943 N951 1.427 1_565 S
C944 H935 0.930 . S
C944 C942 1.378 . S
C944 C945 1.367 . S
C945 C944 1.367 . S
C945 C947 1.439 . S
C946 C942 1.350 . S
C946 C943 1.463 1_545 S
C946 N950 1.427 1_545 S
C947 H937 0.926 1_545 S
C947 C945 1.439 . S
C947 N950 1.381 1_545 S
C948 H939 0.929 . S
C948 C940 1.378 . S
C948 C943 1.350 . S
C949 H936 0.926 1_565 S
C949 C941 1.439 . S
C949 N951 1.381 1_565 S
N950 C946 1.427 1_565 S
N950 C947 1.381 1_565 S
N951 C943 1.427 1_545 S
N951 C949 1.381 1_545 S
H952 C958 0.930 . S
H953 C962 0.930 . S
H954 C967 0.929 . S
H955 C965 0.929 . S
H956 C960 0.929 . S
H957 C966 0.929 . S
C958 H952 0.930 . S
C958 C959 1.367 . S
C958 C966 1.378 . S
C959 C958 1.367 . S
C959 C967 1.433 . S
C960 H956 0.929 . S
C960 C962 1.378 . S
C960 C964 1.350 . S
C961 C964 1.463 . S
C961 C966 1.350 . S
C961 N969 1.427 . S
C962 H953 0.930 . S
C962 C960 1.378 . S
C962 C963 1.367 . S
C963 C962 1.367 . S
C963 C965 1.433 . S
C964 C960 1.350 . S
C964 C961 1.463 . S
C964 N968 1.427 . S
C965 H955 0.929 . S
C965 C963 1.433 . S
C965 N968 1.384 . S
C966 H957 0.929 . S
C966 C958 1.378 . S
C966 C961 1.350 . S
C967 H954 0.929 . S
C967 C959 1.433 . S
C967 N969 1.384 . S
N968 C964 1.427 . S
N968 C965 1.384 . S
N969 C961 1.427 . S
N969 C967 1.384 . S
H970 C976 0.930 . S
H971 C980 0.930 . S
H972 C985 0.929 . S
H973 C983 0.929 . S
H974 C978 0.929 . S
H975 C984 0.929 . S
C976 H970 0.930 . S
C976 C977 1.367 . S
C976 C984 1.378 . S
C977 C976 1.367 . S
C977 C985 1.433 . S
C978 H974 0.929 . S
C978 C980 1.378 . S
C978 C982 1.350 . S
C979 C982 1.463 . S
C979 C984 1.350 . S
C979 N987 1.427 . S
C980 H971 0.930 . S
C980 C978 1.378 . S
C980 C981 1.367 . S
C981 C980 1.367 . S
C981 C983 1.433 . S
C982 C978 1.350 . S
C982 C979 1.463 . S
C982 N986 1.427 . S
C983 H973 0.929 . S
C983 C981 1.433 . S
C983 N986 1.384 . S
C984 H975 0.929 . S
C984 C976 1.378 . S
C984 C979 1.350 . S
C985 H972 0.929 . S
C985 C977 1.433 . S
C985 N987 1.384 . S
N986 C982 1.427 . S
N986 C983 1.384 . S
N987 C979 1.427 . S
N987 C985 1.384 . S
H988 C994 0.930 . S
H989 C998 0.930 . S
H990 C1003 0.929 . S
H991 C1001 0.929 . S
H992 C996 0.929 . S
H993 C1002 0.929 . S
C994 H988 0.930 . S
C994 C995 1.367 . S
C994 C1002 1.378 . S
C995 C994 1.367 . S
C995 C1003 1.433 . S
C996 H992 0.929 . S
C996 C998 1.378 . S
C996 C1000 1.350 . S
C997 C1000 1.463 . S
C997 C1002 1.350 . S
C997 N1005 1.427 . S
C998 H989 0.930 . S
C998 C996 1.378 . S
C998 C999 1.367 . S
C999 C998 1.367 . S
C999 C1001 1.433 . S
C1000 C996 1.350 . S
C1000 C997 1.463 . S
C1000 N1004 1.427 . S
C1001 H991 0.929 . S
C1001 C999 1.433 . S
C1001 N1004 1.384 . S
C1002 H993 0.929 . S
C1002 C994 1.378 . S
C1002 C997 1.350 . S
C1003 H990 0.929 . S
C1003 C995 1.433 . S
C1003 N1005 1.384 . S
N1004 C1000 1.427 . S
N1004 C1001 1.384 . S
N1005 C997 1.427 . S
N1005 C1003 1.384 . S
H1006 C1012 0.930 1_565 S
H1007 C1016 0.930 1_545 S
H1008 C1021 0.929 . S
H1009 C1019 0.929 . S
H1010 C1014 0.929 . S
H1011 C1020 0.929 . S
C1012 H1006 0.930 1_545 S
C1012 C1013 1.367 . S
C1012 C1020 1.378 1_545 S
C1013 C1012 1.367 . S
C1013 C1021 1.433 . S
C1014 H1010 0.929 . S
C1014 C1016 1.378 1_545 S
C1014 C1018 1.350 1_545 S
C1015 C1018 1.463 1_546 S
C1015 C1020 1.350 1_545 S
C1015 N1023 1.427 . S
C1016 H1007 0.930 1_565 S
C1016 C1014 1.378 1_565 S
C1016 C1017 1.367 . S
C1017 C1016 1.367 . S
C1017 C1019 1.433 . S
C1018 C1014 1.350 1_565 S
C1018 C1015 1.463 1_564 S
C1018 N1022 1.427 . S
C1019 H1009 0.929 . S
C1019 C1017 1.433 . S
C1019 N1022 1.384 . S
C1020 H1011 0.929 . S
C1020 C1012 1.378 1_565 S
C1020 C1015 1.350 1_565 S
C1021 H1008 0.929 . S
C1021 C1013 1.433 . S
C1021 N1023 1.384 . S
N1022 C1018 1.427 . S
N1022 C1019 1.384 . S
N1023 C1015 1.427 . S
N1023 C1021 1.384 . S
H1024 C1030 0.930 . S
H1025 C1034 0.930 . S
H1026 C1039 0.929 . S
H1027 C1037 0.929 . S
H1028 C1032 0.929 . S
H1029 C1038 0.929 . S
C1030 H1024 0.930 . S
C1030 C1031 1.367 . S
C1030 C1038 1.378 . S
C1031 C1030 1.367 . S
C1031 C1039 1.433 . S
C1032 H1028 0.929 . S
C1032 C1034 1.378 . S
C1032 C1036 1.350 . S
C1033 C1036 1.463 . S
C1033 C1038 1.350 . S
C1033 N1041 1.427 . S
C1034 H1025 0.930 . S
C1034 C1032 1.378 . S
C1034 C1035 1.367 . S
C1035 C1034 1.367 . S
C1035 C1037 1.433 . S
C1036 C1032 1.350 . S
C1036 C1033 1.463 . S
C1036 N1040 1.427 . S
C1037 H1027 0.929 . S
C1037 C1035 1.433 . S
C1037 N1040 1.384 . S
C1038 H1029 0.929 . S
C1038 C1030 1.378 . S
C1038 C1033 1.350 . S
C1039 H1026 0.929 . S
C1039 C1031 1.433 . S
C1039 N1041 1.384 . S
N1040 C1036 1.427 . S
N1040 C1037 1.384 . S
N1041 C1033 1.427 . S
N1041 C1039 1.384 . S
H1042 C1048 0.930 . S
H1043 C1052 0.930 . S
H1044 C1057 0.929 . S
H1045 C1055 0.929 . S
H1046 C1050 0.929 . S
H1047 C1056 0.929 . S
C1048 H1042 0.930 . S
C1048 C1049 1.367 . S
C1048 C1056 1.378 . S
C1049 C1048 1.367 . S
C1049 C1057 1.433 . S
C1050 H1046 0.929 . S
C1050 C1052 1.378 . S
C1050 C1054 1.350 . S
C1051 C1054 1.463 . S
C1051 C1056 1.350 . S
C1051 N1059 1.427 . S
C1052 H1043 0.930 . S
C1052 C1050 1.378 . S
C1052 C1053 1.367 . S
C1053 C1052 1.367 . S
C1053 C1055 1.433 . S
C1054 C1050 1.350 . S
C1054 C1051 1.463 . S
C1054 N1058 1.427 . S
C1055 H1045 0.929 . S
C1055 C1053 1.433 . S
C1055 N1058 1.384 . S
C1056 H1047 0.929 . S
C1056 C1048 1.378 . S
C1056 C1051 1.350 . S
C1057 H1044 0.929 . S
C1057 C1049 1.433 . S
C1057 N1059 1.384 . S
N1058 C1054 1.427 . S
N1058 C1055 1.384 . S
N1059 C1051 1.427 . S
N1059 C1057 1.384 . S
H1060 C1066 0.930 . S
H1061 C1070 0.930 . S
H1062 C1075 0.929 . S
H1063 C1073 0.929 . S
H1064 C1068 0.929 . S
H1065 C1074 0.929 . S
C1066 H1060 0.930 . S
C1066 C1067 1.367 . S
C1066 C1074 1.378 . S
C1067 C1066 1.367 . S
C1067 C1075 1.433 . S
C1068 H1064 0.929 . S
C1068 C1070 1.378 . S
C1068 C1072 1.350 . S
C1069 C1072 1.463 . S
C1069 C1074 1.350 . S
C1069 N1077 1.427 . S
C1070 H1061 0.930 . S
C1070 C1068 1.378 . S
C1070 C1071 1.367 . S
C1071 C1070 1.367 . S
C1071 C1073 1.433 . S
C1072 C1068 1.350 . S
C1072 C1069 1.463 . S
C1072 N1076 1.427 . S
C1073 H1063 0.929 . S
C1073 C1071 1.433 . S
C1073 N1076 1.384 . S
C1074 H1065 0.929 . S
C1074 C1066 1.378 . S
C1074 C1069 1.350 . S
C1075 H1062 0.929 . S
C1075 C1067 1.433 . S
C1075 N1077 1.384 . S
N1076 C1072 1.427 . S
N1076 C1073 1.384 . S
N1077 C1069 1.427 . S
N1077 C1075 1.384 . S
H1078 C1084 0.930 . S
H1079 C1088 0.930 . S
H1080 C1093 0.929 . S
H1081 C1091 0.929 . S
H1082 C1086 0.929 . S
H1083 C1092 0.929 . S
C1084 H1078 0.930 . S
C1084 C1085 1.367 . S
C1084 C1092 1.378 . S
C1085 C1084 1.367 . S
C1085 C1093 1.433 . S
C1086 H1082 0.929 . S
C1086 C1088 1.378 . S
C1086 C1090 1.350 . S
C1087 C1090 1.463 . S
C1087 C1092 1.350 . S
C1087 N1095 1.427 . S
C1088 H1079 0.930 . S
C1088 C1086 1.378 . S
C1088 C1089 1.367 . S
C1089 C1088 1.367 . S
C1089 C1091 1.433 . S
C1090 C1086 1.350 . S
C1090 C1087 1.463 . S
C1090 N1094 1.427 . S
C1091 H1081 0.929 . S
C1091 C1089 1.433 . S
C1091 N1094 1.384 . S
C1092 H1083 0.929 . S
C1092 C1084 1.378 . S
C1092 C1087 1.350 . S
C1093 H1080 0.929 . S
C1093 C1085 1.433 . S
C1093 N1095 1.384 . S
N1094 C1090 1.427 . S
N1094 C1091 1.384 . S
N1095 C1087 1.427 . S
N1095 C1093 1.384 . S
H1096 C1102 0.930 . S
H1097 C1106 0.930 . S
H1098 C1111 0.929 . S
H1099 C1109 0.929 . S
H1100 C1104 0.929 . S
H1101 C1110 0.929 . S
C1102 H1096 0.930 . S
C1102 C1103 1.367 . S
C1102 C1110 1.378 . S
C1103 C1102 1.367 . S
C1103 C1111 1.433 . S
C1104 H1100 0.929 . S
C1104 C1106 1.378 . S
C1104 C1108 1.350 . S
C1105 C1108 1.463 . S
C1105 C1110 1.350 . S
C1105 N1113 1.427 . S
C1106 H1097 0.930 . S
C1106 C1104 1.378 . S
C1106 C1107 1.367 . S
C1107 C1106 1.367 . S
C1107 C1109 1.433 . S
C1108 C1104 1.350 . S
C1108 C1105 1.463 . S
C1108 N1112 1.427 . S
C1109 H1099 0.929 . S
C1109 C1107 1.433 . S
C1109 N1112 1.384 . S
C1110 H1101 0.929 . S
C1110 C1102 1.378 . S
C1110 C1105 1.350 . S
C1111 H1098 0.929 . S
C1111 C1103 1.433 . S
C1111 N1113 1.384 . S
N1112 C1108 1.427 . S
N1112 C1109 1.384 . S
N1113 C1105 1.427 . S
N1113 C1111 1.384 . S
H1114 C1120 0.930 . S
H1115 C1124 0.930 . S
H1116 C1129 0.929 . S
H1117 C1127 0.929 . S
H1118 C1122 0.929 . S
H1119 C1128 0.929 . S
C1120 H1114 0.930 . S
C1120 C1121 1.367 . S
C1120 C1128 1.378 . S
C1121 C1120 1.367 . S
C1121 C1129 1.433 . S
C1122 H1118 0.929 . S
C1122 C1124 1.378 . S
C1122 C1126 1.350 . S
C1123 C1126 1.463 . S
C1123 C1128 1.350 . S
C1123 N1131 1.427 . S
C1124 H1115 0.930 . S
C1124 C1122 1.378 . S
C1124 C1125 1.367 . S
C1125 C1124 1.367 . S
C1125 C1127 1.433 . S
C1126 C1122 1.350 . S
C1126 C1123 1.463 . S
C1126 N1130 1.427 . S
C1127 H1117 0.929 . S
C1127 C1125 1.433 . S
C1127 N1130 1.384 . S
C1128 H1119 0.929 . S
C1128 C1120 1.378 . S
C1128 C1123 1.350 . S
C1129 H1116 0.929 . S
C1129 C1121 1.433 . S
C1129 N1131 1.384 . S
N1130 C1126 1.427 . S
N1130 C1127 1.384 . S
N1131 C1123 1.427 . S
N1131 C1129 1.384 . S
H1132 C1138 0.930 . S
H1133 C1142 0.930 . S
H1134 C1147 0.929 . S
H1135 C1145 0.929 . S
H1136 C1140 0.929 . S
H1137 C1146 0.929 . S
C1138 H1132 0.930 . S
C1138 C1139 1.367 . S
C1138 C1146 1.378 . S
C1139 C1138 1.367 . S
C1139 C1147 1.433 . S
C1140 H1136 0.929 . S
C1140 C1142 1.378 . S
C1140 C1144 1.350 . S
C1141 C1144 1.463 . S
C1141 C1146 1.350 . S
C1141 N1149 1.427 . S
C1142 H1133 0.930 . S
C1142 C1140 1.378 . S
C1142 C1143 1.367 . S
C1143 C1142 1.367 . S
C1143 C1145 1.433 . S
C1144 C1140 1.350 . S
C1144 C1141 1.463 . S
C1144 N1148 1.427 . S
C1145 H1135 0.929 . S
C1145 C1143 1.433 . S
C1145 N1148 1.384 . S
C1146 H1137 0.929 . S
C1146 C1138 1.378 . S
C1146 C1141 1.350 . S
C1147 H1134 0.929 . S
C1147 C1139 1.433 . S
C1147 N1149 1.384 . S
N1148 C1144 1.427 . S
N1148 C1145 1.384 . S
N1149 C1141 1.427 . S
N1149 C1147 1.384 . S
H1150 C1156 0.930 . S
H1151 C1160 0.930 . S
H1152 C1165 0.929 . S
H1153 C1163 0.929 . S
H1154 C1158 0.929 . S
H1155 C1164 0.929 . S
C1156 H1150 0.930 . S
C1156 C1157 1.367 . S
C1156 C1164 1.378 . S
C1157 C1156 1.367 . S
C1157 C1165 1.433 . S
C1158 H1154 0.929 . S
C1158 C1160 1.378 . S
C1158 C1162 1.350 . S
C1159 C1162 1.463 . S
C1159 C1164 1.350 . S
C1159 N1167 1.427 . S
C1160 H1151 0.930 . S
C1160 C1158 1.378 . S
C1160 C1161 1.367 . S
C1161 C1160 1.367 . S
C1161 C1163 1.433 . S
C1162 C1158 1.350 . S
C1162 C1159 1.463 . S
C1162 N1166 1.427 . S
C1163 H1153 0.929 . S
C1163 C1161 1.433 . S
C1163 N1166 1.384 . S
C1164 H1155 0.929 . S
C1164 C1156 1.378 . S
C1164 C1159 1.350 . S
C1165 H1152 0.929 . S
C1165 C1157 1.433 . S
C1165 N1167 1.384 . S
N1166 C1162 1.427 . S
N1166 C1163 1.384 . S
N1167 C1159 1.427 . S
N1167 C1165 1.384 . S
H1168 C1174 0.930 . S
H1169 C1178 0.930 . S
H1170 C1183 0.929 . S
H1171 C1181 0.929 . S
H1172 C1176 0.929 . S
H1173 C1182 0.929 . S
C1174 H1168 0.930 . S
C1174 C1175 1.367 . S
C1174 C1182 1.378 . S
C1175 C1174 1.367 . S
C1175 C1183 1.433 . S
C1176 H1172 0.929 . S
C1176 C1178 1.378 . S
C1176 C1180 1.350 . S
C1177 C1180 1.463 . S
C1177 C1182 1.350 . S
C1177 N1185 1.427 . S
C1178 H1169 0.930 . S
C1178 C1176 1.378 . S
C1178 C1179 1.367 . S
C1179 C1178 1.367 . S
C1179 C1181 1.433 . S
C1180 C1176 1.350 . S
C1180 C1177 1.463 . S
C1180 N1184 1.427 . S
C1181 H1171 0.929 . S
C1181 C1179 1.433 . S
C1181 N1184 1.384 . S
C1182 H1173 0.929 . S
C1182 C1174 1.378 . S
C1182 C1177 1.350 . S
C1183 H1170 0.929 . S
C1183 C1175 1.433 . S
C1183 N1185 1.384 . S
N1184 C1180 1.427 . S
N1184 C1181 1.384 . S
N1185 C1177 1.427 . S
N1185 C1183 1.384 . S
H1186 C1192 0.930 . S
H1187 C1196 0.930 . S
H1188 C1201 0.929 . S
H1189 C1199 0.929 . S
H1190 C1194 0.929 . S
H1191 C1200 0.929 . S
C1192 H1186 0.930 . S
C1192 C1193 1.367 . S
C1192 C1200 1.378 . S
C1193 C1192 1.367 . S
C1193 C1201 1.433 . S
C1194 H1190 0.929 . S
C1194 C1196 1.378 . S
C1194 C1198 1.350 . S
C1195 C1198 1.463 . S
C1195 C1200 1.350 . S
C1195 N1203 1.427 . S
C1196 H1187 0.930 . S
C1196 C1194 1.378 . S
C1196 C1197 1.367 . S
C1197 C1196 1.367 . S
C1197 C1199 1.433 . S
C1198 C1194 1.350 . S
C1198 C1195 1.463 . S
C1198 N1202 1.427 . S
C1199 H1189 0.929 . S
C1199 C1197 1.433 . S
C1199 N1202 1.384 . S
C1200 H1191 0.929 . S
C1200 C1192 1.378 . S
C1200 C1195 1.350 . S
C1201 H1188 0.929 . S
C1201 C1193 1.433 . S
C1201 N1203 1.384 . S
N1202 C1198 1.427 . S
N1202 C1199 1.384 . S
N1203 C1195 1.427 . S
N1203 C1201 1.384 . S
H1204 C1210 0.930 . S
H1205 C1214 0.930 . S
H1206 C1219 0.929 . S
H1207 C1217 0.929 . S
H1208 C1212 0.929 . S
H1209 C1218 0.929 . S
C1210 H1204 0.930 . S
C1210 C1211 1.367 . S
C1210 C1218 1.378 . S
C1211 C1210 1.367 . S
C1211 C1219 1.433 . S
C1212 H1208 0.929 . S
C1212 C1214 1.378 . S
C1212 C1216 1.350 . S
C1213 C1216 1.463 . S
C1213 C1218 1.350 . S
C1213 N1221 1.427 . S
C1214 H1205 0.930 . S
C1214 C1212 1.378 . S
C1214 C1215 1.367 . S
C1215 C1214 1.367 . S
C1215 C1217 1.433 . S
C1216 C1212 1.350 . S
C1216 C1213 1.463 . S
C1216 N1220 1.427 . S
C1217 H1207 0.929 . S
C1217 C1215 1.433 . S
C1217 N1220 1.384 . S
C1218 H1209 0.929 . S
C1218 C1210 1.378 . S
C1218 C1213 1.350 . S
C1219 H1206 0.929 . S
C1219 C1211 1.433 . S
C1219 N1221 1.384 . S
N1220 C1216 1.427 . S
N1220 C1217 1.384 . S
N1221 C1213 1.427 . S
N1221 C1219 1.384 . S
H1222 C1228 0.930 . S
H1223 C1232 0.930 . S
H1224 C1237 0.929 . S
H1225 C1235 0.929 . S
H1226 C1230 0.929 . S
H1227 C1236 0.929 . S
C1228 H1222 0.930 . S
C1228 C1229 1.367 . S
C1228 C1236 1.378 . S
C1229 C1228 1.367 . S
C1229 C1237 1.433 . S
C1230 H1226 0.929 . S
C1230 C1232 1.378 . S
C1230 C1234 1.350 . S
C1231 C1234 1.463 . S
C1231 C1236 1.350 . S
C1231 N1239 1.427 . S
C1232 H1223 0.930 . S
C1232 C1230 1.378 . S
C1232 C1233 1.367 . S
C1233 C1232 1.367 . S
C1233 C1235 1.433 . S
C1234 C1230 1.350 . S
C1234 C1231 1.463 . S
C1234 N1238 1.427 . S
C1235 H1225 0.929 . S
C1235 C1233 1.433 . S
C1235 N1238 1.384 . S
C1236 H1227 0.929 . S
C1236 C1228 1.378 . S
C1236 C1231 1.350 . S
C1237 H1224 0.929 . S
C1237 C1229 1.433 . S
C1237 N1239 1.384 . S
N1238 C1234 1.427 . S
N1238 C1235 1.384 . S
N1239 C1231 1.427 . S
N1239 C1237 1.384 . S
H1240 C1246 0.930 . S
H1241 C1250 0.930 . S
H1242 C1255 0.929 . S
H1243 C1253 0.929 . S
H1244 C1248 0.929 . S
H1245 C1254 0.929 . S
C1246 H1240 0.930 . S
C1246 C1247 1.367 . S
C1246 C1254 1.378 . S
C1247 C1246 1.367 . S
C1247 C1255 1.433 . S
C1248 H1244 0.929 . S
C1248 C1250 1.378 . S
C1248 C1252 1.350 . S
C1249 C1252 1.463 . S
C1249 C1254 1.350 . S
C1249 N1257 1.427 . S
C1250 H1241 0.930 . S
C1250 C1248 1.378 . S
C1250 C1251 1.367 . S
C1251 C1250 1.367 . S
C1251 C1253 1.433 . S
C1252 C1248 1.350 . S
C1252 C1249 1.463 . S
C1252 N1256 1.427 . S
C1253 H1243 0.929 . S
C1253 C1251 1.433 . S
C1253 N1256 1.384 . S
C1254 H1245 0.929 . S
C1254 C1246 1.378 . S
C1254 C1249 1.350 . S
C1255 H1242 0.929 . S
C1255 C1247 1.433 . S
C1255 N1257 1.384 . S
N1256 C1252 1.427 . S
N1256 C1253 1.384 . S
N1257 C1249 1.427 . S
N1257 C1255 1.384 . S
H1258 C1264 0.930 . S
H1259 C1268 0.930 . S
H1260 C1273 0.929 . S
H1261 C1271 0.929 . S
H1262 C1266 0.929 . S
H1263 C1272 0.929 . S
C1264 H1258 0.930 . S
C1264 C1265 1.367 . S
C1264 C1272 1.378 . S
C1265 C1264 1.367 . S
C1265 C1273 1.433 . S
C1266 H1262 0.929 . S
C1266 C1268 1.378 . S
C1266 C1270 1.350 . S
C1267 C1270 1.463 . S
C1267 C1272 1.350 . S
C1267 N1275 1.427 . S
C1268 H1259 0.930 . S
C1268 C1266 1.378 . S
C1268 C1269 1.367 . S
C1269 C1268 1.367 . S
C1269 C1271 1.433 . S
C1270 C1266 1.350 . S
C1270 C1267 1.463 . S
C1270 N1274 1.427 . S
C1271 H1261 0.929 . S
C1271 C1269 1.433 . S
C1271 N1274 1.384 . S
C1272 H1263 0.929 . S
C1272 C1264 1.378 . S
C1272 C1267 1.350 . S
C1273 H1260 0.929 . S
C1273 C1265 1.433 . S
C1273 N1275 1.384 . S
N1274 C1270 1.427 . S
N1274 C1271 1.384 . S
N1275 C1267 1.427 . S
N1275 C1273 1.384 . S
H1276 C1282 0.930 . S
H1277 C1286 0.930 . S
H1278 C1291 0.929 . S
H1279 C1289 0.929 . S
H1280 C1284 0.929 . S
H1281 C1290 0.929 . S
C1282 H1276 0.930 . S
C1282 C1283 1.367 . S
C1282 C1290 1.378 . S
C1283 C1282 1.367 . S
C1283 C1291 1.433 . S
C1284 H1280 0.929 . S
C1284 C1286 1.378 . S
C1284 C1288 1.350 . S
C1285 C1288 1.463 . S
C1285 C1290 1.350 . S
C1285 N1293 1.427 . S
C1286 H1277 0.930 . S
C1286 C1284 1.378 . S
C1286 C1287 1.367 . S
C1287 C1286 1.367 . S
C1287 C1289 1.433 . S
C1288 C1284 1.350 . S
C1288 C1285 1.463 . S
C1288 N1292 1.427 . S
C1289 H1279 0.929 . S
C1289 C1287 1.433 . S
C1289 N1292 1.384 . S
C1290 H1281 0.929 . S
C1290 C1282 1.378 . S
C1290 C1285 1.350 . S
C1291 H1278 0.929 . S
C1291 C1283 1.433 . S
C1291 N1293 1.384 . S
N1292 C1288 1.427 . S
N1292 C1289 1.384 . S
N1293 C1285 1.427 . S
N1293 C1291 1.384 . S
H1294 C1300 0.930 . S
H1295 C1304 0.930 . S
H1296 C1309 0.929 . S
H1297 C1307 0.929 . S
H1298 C1302 0.929 . S
H1299 C1308 0.929 . S
C1300 H1294 0.930 . S
C1300 C1301 1.367 . S
C1300 C1308 1.378 . S
C1301 C1300 1.367 . S
C1301 C1309 1.433 . S
C1302 H1298 0.929 . S
C1302 C1304 1.378 . S
C1302 C1306 1.350 . S
C1303 C1306 1.463 . S
C1303 C1308 1.350 . S
C1303 N1311 1.427 . S
C1304 H1295 0.930 . S
C1304 C1302 1.378 . S
C1304 C1305 1.367 . S
C1305 C1304 1.367 . S
C1305 C1307 1.433 . S
C1306 C1302 1.350 . S
C1306 C1303 1.463 . S
C1306 N1310 1.427 . S
C1307 H1297 0.929 . S
C1307 C1305 1.433 . S
C1307 N1310 1.384 . S
C1308 H1299 0.929 . S
C1308 C1300 1.378 . S
C1308 C1303 1.350 . S
C1309 H1296 0.929 . S
C1309 C1301 1.433 . S
C1309 N1311 1.384 . S
N1310 C1306 1.427 . S
N1310 C1307 1.384 . S
N1311 C1303 1.427 . S
N1311 C1309 1.384 . S
H1312 C1318 0.931 . S
H1313 C1322 0.930 . S
H1314 C1327 0.929 . S
H1315 C1325 0.929 . S
H1316 C1320 0.929 . S
H1317 C1326 0.929 . S
C1318 H1312 0.931 . S
C1318 C1319 1.367 . S
C1318 C1326 1.378 . S
C1319 C1318 1.367 . S
C1319 C1327 1.433 . S
C1320 H1316 0.929 . S
C1320 C1322 1.378 . S
C1320 C1324 1.350 . S
C1321 C1324 1.463 . S
C1321 C1326 1.350 . S
C1321 N1329 1.427 . S
C1322 H1313 0.930 . S
C1322 C1320 1.378 . S
C1322 C1323 1.367 . S
C1323 C1322 1.367 . S
C1323 C1325 1.433 . S
C1324 C1320 1.350 . S
C1324 C1321 1.463 . S
C1324 N1328 1.427 . S
C1325 H1315 0.929 . S
C1325 C1323 1.433 . S
C1325 N1328 1.384 . S
C1326 H1317 0.929 . S
C1326 C1318 1.378 . S
C1326 C1321 1.350 . S
C1327 H1314 0.929 . S
C1327 C1319 1.433 . S
C1327 N1329 1.384 . S
N1328 C1324 1.427 . S
N1328 C1325 1.384 . S
N1329 C1321 1.427 . S
N1329 C1327 1.384 . S
H1330 C1336 0.930 . S
H1331 C1340 0.930 . S
H1332 C1345 0.929 . S
H1333 C1343 0.929 . S
H1334 C1338 0.929 . S
H1335 C1344 0.929 . S
C1336 H1330 0.930 . S
C1336 C1337 1.367 . S
C1336 C1344 1.378 . S
C1337 C1336 1.367 . S
C1337 C1345 1.433 . S
C1338 H1334 0.929 . S
C1338 C1340 1.378 . S
C1338 C1342 1.350 . S
C1339 C1342 1.463 . S
C1339 C1344 1.350 . S
C1339 N1347 1.427 . S
C1340 H1331 0.930 . S
C1340 C1338 1.378 . S
C1340 C1341 1.367 . S
C1341 C1340 1.367 . S
C1341 C1343 1.433 . S
C1342 C1338 1.350 . S
C1342 C1339 1.463 . S
C1342 N1346 1.427 . S
C1343 H1333 0.929 . S
C1343 C1341 1.433 . S
C1343 N1346 1.384 . S
C1344 H1335 0.929 . S
C1344 C1336 1.378 . S
C1344 C1339 1.350 . S
C1345 H1332 0.929 . S
C1345 C1337 1.433 . S
C1345 N1347 1.384 . S
N1346 C1342 1.427 . S
N1346 C1343 1.384 . S
N1347 C1339 1.427 . S
N1347 C1345 1.384 . S
H1348 C1354 0.930 . S
H1349 C1358 0.930 . S
H1350 C1363 0.929 . S
H1351 C1361 0.933 . S
H1352 C1356 0.929 . S
H1353 C1362 0.929 . S
C1354 H1348 0.930 . S
C1354 C1355 1.367 . S
C1354 C1362 1.378 . S
C1355 C1354 1.367 . S
C1355 C1363 1.433 . S
C1356 H1352 0.929 . S
C1356 C1358 1.378 . S
C1356 C1360 1.350 . S
C1357 C1360 1.463 . S
C1357 C1362 1.350 . S
C1357 N1365 1.427 . S
C1358 H1349 0.930 . S
C1358 C1356 1.378 . S
C1358 C1359 1.367 . S
C1359 C1358 1.367 . S
C1359 C1361 1.433 . S
C1360 C1356 1.350 . S
C1360 C1357 1.463 . S
C1360 N1364 1.427 . S
C1361 H1351 0.933 . S
C1361 C1359 1.433 . S
C1361 N1364 1.384 . S
C1362 H1353 0.929 . S
C1362 C1354 1.378 . S
C1362 C1357 1.350 . S
C1363 H1350 0.929 . S
C1363 C1355 1.433 . S
C1363 N1365 1.384 . S
N1364 C1360 1.427 . S
N1364 C1361 1.384 . S
N1365 C1357 1.427 . S
N1365 C1363 1.384 . S
H1366 C1372 0.930 . S
H1367 C1376 0.930 . S
H1368 C1381 0.935 . S
H1369 C1379 0.929 . S
H1370 C1374 0.929 . S
H1371 C1380 0.929 . S
C1372 H1366 0.930 . S
C1372 C1373 1.367 . S
C1372 C1380 1.378 . S
C1373 C1372 1.367 . S
C1373 C1381 1.433 . S
C1374 H1370 0.929 . S
C1374 C1376 1.378 . S
C1374 C1378 1.350 . S
C1375 C1378 1.463 . S
C1375 C1380 1.350 . S
C1375 N1383 1.427 . S
C1376 H1367 0.930 . S
C1376 C1374 1.378 . S
C1376 C1377 1.367 . S
C1377 C1376 1.367 . S
C1377 C1379 1.433 . S
C1378 C1374 1.350 . S
C1378 C1375 1.463 . S
C1378 N1382 1.427 . S
C1379 H1369 0.929 . S
C1379 C1377 1.433 . S
C1379 N1382 1.384 . S
C1380 H1371 0.929 . S
C1380 C1372 1.378 . S
C1380 C1375 1.350 . S
C1381 H1368 0.935 . S
C1381 C1373 1.433 . S
C1381 N1383 1.384 . S
N1382 C1378 1.427 . S
N1382 C1379 1.384 . S
N1383 C1375 1.427 . S
N1383 C1381 1.384 . S
H1384 C1390 0.930 . S
H1385 C1394 0.930 . S
H1386 C1399 0.929 . S
H1387 C1397 0.929 . S
H1388 C1392 0.929 . S
H1389 C1398 0.929 . S
C1390 H1384 0.930 . S
C1390 C1391 1.367 . S
C1390 C1398 1.378 . S
C1391 C1390 1.367 . S
C1391 C1399 1.433 . S
C1392 H1388 0.929 . S
C1392 C1394 1.378 . S
C1392 C1396 1.350 . S
C1393 C1396 1.463 . S
C1393 C1398 1.350 . S
C1393 N1401 1.427 . S
C1394 H1385 0.930 . S
C1394 C1392 1.378 . S
C1394 C1395 1.367 . S
C1395 C1394 1.367 . S
C1395 C1397 1.433 . S
C1396 C1392 1.350 . S
C1396 C1393 1.463 . S
C1396 N1400 1.427 . S
C1397 H1387 0.929 . S
C1397 C1395 1.433 . S
C1397 N1400 1.384 . S
C1398 H1389 0.929 . S
C1398 C1390 1.378 . S
C1398 C1393 1.350 . S
C1399 H1386 0.929 . S
C1399 C1391 1.433 . S
C1399 N1401 1.384 . S
N1400 C1396 1.427 . S
N1400 C1397 1.384 . S
N1401 C1393 1.427 . S
N1401 C1399 1.384 . S
H1402 C1408 0.930 . S
H1403 C1412 0.930 . S
H1404 C1417 0.929 . S
H1405 C1415 0.929 . S
H1406 C1410 0.929 . S
H1407 C1416 0.929 . S
C1408 H1402 0.930 . S
C1408 C1409 1.367 . S
C1408 C1416 1.378 . S
C1409 C1408 1.367 . S
C1409 C1417 1.433 . S
C1410 H1406 0.929 . S
C1410 C1412 1.378 . S
C1410 C1414 1.350 . S
C1411 C1414 1.463 . S
C1411 C1416 1.350 . S
C1411 N1419 1.427 . S
C1412 H1403 0.930 . S
C1412 C1410 1.378 . S
C1412 C1413 1.367 . S
C1413 C1412 1.367 . S
C1413 C1415 1.433 . S
C1414 C1410 1.350 . S
C1414 C1411 1.463 . S
C1414 N1418 1.427 . S
C1415 H1405 0.929 . S
C1415 C1413 1.433 . S
C1415 N1418 1.384 . S
C1416 H1407 0.929 . S
C1416 C1408 1.378 . S
C1416 C1411 1.350 . S
C1417 H1404 0.929 . S
C1417 C1409 1.433 . S
C1417 N1419 1.384 . S
N1418 C1414 1.427 . S
N1418 C1415 1.384 . S
N1419 C1411 1.427 . S
N1419 C1417 1.384 . S
H1420 C1426 0.930 . S
H1421 C1430 0.930 . S
H1422 C1435 0.929 . S
H1423 C1433 0.929 . S
H1424 C1428 0.929 . S
H1425 C1434 0.929 . S
C1426 H1420 0.930 . S
C1426 C1427 1.367 . S
C1426 C1434 1.378 . S
C1427 C1426 1.367 . S
C1427 C1435 1.433 . S
C1428 H1424 0.929 . S
C1428 C1430 1.378 . S
C1428 C1432 1.350 . S
C1429 C1432 1.463 . S
C1429 C1434 1.350 . S
C1429 N1437 1.427 . S
C1430 H1421 0.930 . S
C1430 C1428 1.378 . S
C1430 C1431 1.367 . S
C1431 C1430 1.367 . S
C1431 C1433 1.433 . S
C1432 C1428 1.350 . S
C1432 C1429 1.463 . S
C1432 N1436 1.427 . S
C1433 H1423 0.929 . S
C1433 C1431 1.433 . S
C1433 N1436 1.384 . S
C1434 H1425 0.929 . S
C1434 C1426 1.378 . S
C1434 C1429 1.350 . S
C1435 H1422 0.929 . S
C1435 C1427 1.433 . S
C1435 N1437 1.384 . S
N1436 C1432 1.427 . S
N1436 C1433 1.384 . S
N1437 C1429 1.427 . S
N1437 C1435 1.384 . S
H1438 C1444 0.930 . S
H1439 C1448 0.930 . S
H1440 C1453 0.929 . S
H1441 C1451 0.929 . S
H1442 C1446 0.929 . S
H1443 C1452 0.929 . S
C1444 H1438 0.930 . S
C1444 C1445 1.367 . S
C1444 C1452 1.378 . S
C1445 C1444 1.367 . S
C1445 C1453 1.433 . S
C1446 H1442 0.929 . S
C1446 C1448 1.378 . S
C1446 C1450 1.350 . S
C1447 C1450 1.463 . S
C1447 C1452 1.350 . S
C1447 N1455 1.427 . S
C1448 H1439 0.930 . S
C1448 C1446 1.378 . S
C1448 C1449 1.367 . S
C1449 C1448 1.367 . S
C1449 C1451 1.433 . S
C1450 C1446 1.350 . S
C1450 C1447 1.463 . S
C1450 N1454 1.427 . S
C1451 H1441 0.929 . S
C1451 C1449 1.433 . S
C1451 N1454 1.384 . S
C1452 H1443 0.929 . S
C1452 C1444 1.378 . S
C1452 C1447 1.350 . S
C1453 H1440 0.929 . S
C1453 C1445 1.433 . S
C1453 N1455 1.384 . S
N1454 C1450 1.427 . S
N1454 C1451 1.384 . S
N1455 C1447 1.427 . S
N1455 C1453 1.384 . S
H1456 C1462 0.929 . S
H1457 C1466 0.930 . S
H1458 C1471 0.929 . S
H1459 C1469 0.929 . S
H1460 C1464 0.929 . S
H1461 C1470 0.929 . S
C1462 H1456 0.929 . S
C1462 C1463 1.367 . S
C1462 C1470 1.378 . S
C1463 C1462 1.367 . S
C1463 C1471 1.433 . S
C1464 H1460 0.929 . S
C1464 C1466 1.378 . S
C1464 C1468 1.350 . S
C1465 C1468 1.463 . S
C1465 C1470 1.350 . S
C1465 N1473 1.427 . S
C1466 H1457 0.930 . S
C1466 C1464 1.378 . S
C1466 C1467 1.367 . S
C1467 C1466 1.367 . S
C1467 C1469 1.433 . S
C1468 C1464 1.350 . S
C1468 C1465 1.463 . S
C1468 N1472 1.427 . S
C1469 H1459 0.929 . S
C1469 C1467 1.433 . S
C1469 N1472 1.384 . S
C1470 H1461 0.929 . S
C1470 C1462 1.378 . S
C1470 C1465 1.350 . S
C1471 H1458 0.929 . S
C1471 C1463 1.433 . S
C1471 N1473 1.384 . S
N1472 C1468 1.427 . S
N1472 C1469 1.384 . S
N1473 C1465 1.427 . S
N1473 C1471 1.384 . S
H1474 C1480 0.930 . S
H1475 C1484 0.930 . S
H1476 C1489 0.929 . S
H1477 C1487 0.929 . S
H1478 C1482 0.929 . S
H1479 C1488 0.929 . S
C1480 H1474 0.930 . S
C1480 C1481 1.367 . S
C1480 C1488 1.378 . S
C1481 C1480 1.367 . S
C1481 C1489 1.433 . S
C1482 H1478 0.929 . S
C1482 C1484 1.378 . S
C1482 C1486 1.350 . S
C1483 C1486 1.463 . S
C1483 C1488 1.350 . S
C1483 N1491 1.427 . S
C1484 H1475 0.930 . S
C1484 C1482 1.378 . S
C1484 C1485 1.367 . S
C1485 C1484 1.367 . S
C1485 C1487 1.433 . S
C1486 C1482 1.350 . S
C1486 C1483 1.463 . S
C1486 N1490 1.427 . S
C1487 H1477 0.929 . S
C1487 C1485 1.433 . S
C1487 N1490 1.384 . S
C1488 H1479 0.929 . S
C1488 C1480 1.378 . S
C1488 C1483 1.350 . S
C1489 H1476 0.929 . S
C1489 C1481 1.433 . S
C1489 N1491 1.384 . S
N1490 C1486 1.427 . S
N1490 C1487 1.384 . S
N1491 C1483 1.427 . S
N1491 C1489 1.384 . S
H1492 C1498 0.930 . S
H1493 C1502 0.930 . S
H1494 C1507 0.929 . S
H1495 C1505 0.925 1_545 S
H1496 C1500 0.929 . S
H1497 C1506 0.929 . S
C1498 H1492 0.930 . S
C1498 C1499 1.367 . S
C1498 C1506 1.378 . S
C1499 C1498 1.367 . S
C1499 C1507 1.433 . S
C1500 H1496 0.929 . S
C1500 C1502 1.378 . S
C1500 C1504 1.350 . S
C1501 C1504 1.463 . S
C1501 C1506 1.350 . S
C1501 N1509 1.427 . S
C1502 H1493 0.930 . S
C1502 C1500 1.378 . S
C1502 C1503 1.367 . S
C1503 C1502 1.367 . S
C1503 C1505 1.433 . S
C1504 C1500 1.350 . S
C1504 C1501 1.463 . S
C1504 N1508 1.427 . S
C1505 H1495 0.925 1_565 S
C1505 C1503 1.433 . S
C1505 N1508 1.384 . S
C1506 H1497 0.929 . S
C1506 C1498 1.378 . S
C1506 C1501 1.350 . S
C1507 H1494 0.929 . S
C1507 C1499 1.433 . S
C1507 N1509 1.384 . S
N1508 C1504 1.427 . S
N1508 C1505 1.384 . S
N1509 C1501 1.427 . S
N1509 C1507 1.384 . S
H1510 C1516 0.930 . S
H1511 C1520 0.930 . S
H1512 C1525 0.929 . S
H1513 C1523 0.929 . S
H1514 C1518 0.929 . S
H1515 C1524 0.929 . S
C1516 H1510 0.930 . S
C1516 C1517 1.367 . S
C1516 C1524 1.378 . S
C1517 C1516 1.367 . S
C1517 C1525 1.433 . S
C1518 H1514 0.929 . S
C1518 C1520 1.378 . S
C1518 C1522 1.350 . S
C1519 C1522 1.463 . S
C1519 C1524 1.350 . S
C1519 N1527 1.427 . S
C1520 H1511 0.930 . S
C1520 C1518 1.378 . S
C1520 C1521 1.367 . S
C1521 C1520 1.367 . S
C1521 C1523 1.433 . S
C1522 C1518 1.350 . S
C1522 C1519 1.463 . S
C1522 N1526 1.427 . S
C1523 H1513 0.929 . S
C1523 C1521 1.433 . S
C1523 N1526 1.384 . S
C1524 H1515 0.929 . S
C1524 C1516 1.378 . S
C1524 C1519 1.350 . S
C1525 H1512 0.929 . S
C1525 C1517 1.433 . S
C1525 N1527 1.384 . S
N1526 C1522 1.427 . S
N1526 C1523 1.384 . S
N1527 C1519 1.427 . S
N1527 C1525 1.384 . S
H1528 C1534 0.930 . S
H1529 C1538 0.930 . S
H1530 C1543 0.929 . S
H1531 C1541 0.929 . S
H1532 C1536 0.929 . S
H1533 C1542 0.929 . S
C1534 H1528 0.930 . S
C1534 C1535 1.367 . S
C1534 C1542 1.378 . S
C1535 C1534 1.367 . S
C1535 C1543 1.433 . S
C1536 H1532 0.929 . S
C1536 C1538 1.378 . S
C1536 C1540 1.350 . S
C1537 C1540 1.463 . S
C1537 C1542 1.350 . S
C1537 N1545 1.427 . S
C1538 H1529 0.930 . S
C1538 C1536 1.378 . S
C1538 C1539 1.367 . S
C1539 C1538 1.367 . S
C1539 C1541 1.433 . S
C1540 C1536 1.350 . S
C1540 C1537 1.463 . S
C1540 N1544 1.427 . S
C1541 H1531 0.929 . S
C1541 C1539 1.433 . S
C1541 N1544 1.384 . S
C1542 H1533 0.929 . S
C1542 C1534 1.378 . S
C1542 C1537 1.350 . S
C1543 H1530 0.929 . S
C1543 C1535 1.433 . S
C1543 N1545 1.384 . S
N1544 C1540 1.427 . S
N1544 C1541 1.384 . S
N1545 C1537 1.427 . S
N1545 C1543 1.384 . S
H1546 C1552 0.930 . S
H1547 C1556 0.930 . S
H1548 C1561 0.929 . S
H1549 C1559 0.929 . S
H1550 C1554 0.929 . S
H1551 C1560 0.929 . S
C1552 H1546 0.930 . S
C1552 C1553 1.367 . S
C1552 C1560 1.378 . S
C1553 C1552 1.367 . S
C1553 C1561 1.433 . S
C1554 H1550 0.929 . S
C1554 C1556 1.378 . S
C1554 C1558 1.350 . S
C1555 C1558 1.463 . S
C1555 C1560 1.350 . S
C1555 N1563 1.427 . S
C1556 H1547 0.930 . S
C1556 C1554 1.378 . S
C1556 C1557 1.367 . S
C1557 C1556 1.367 . S
C1557 C1559 1.433 . S
C1558 C1554 1.350 . S
C1558 C1555 1.463 . S
C1558 N1562 1.427 . S
C1559 H1549 0.929 . S
C1559 C1557 1.433 . S
C1559 N1562 1.384 . S
C1560 H1551 0.929 . S
C1560 C1552 1.378 . S
C1560 C1555 1.350 . S
C1561 H1548 0.929 . S
C1561 C1553 1.433 . S
C1561 N1563 1.384 . S
N1562 C1558 1.427 . S
N1562 C1559 1.384 . S
N1563 C1555 1.427 . S
N1563 C1561 1.384 . S
H1564 C1570 0.930 . S
H1565 C1574 0.930 . S
H1566 C1579 0.929 . S
H1567 C1577 0.929 . S
H1568 C1572 0.929 . S
H1569 C1578 0.929 . S
C1570 H1564 0.930 . S
C1570 C1571 1.367 . S
C1570 C1578 1.378 . S
C1571 C1570 1.367 . S
C1571 C1579 1.433 . S
C1572 H1568 0.929 . S
C1572 C1574 1.378 . S
C1572 C1576 1.350 . S
C1573 C1576 1.463 . S
C1573 C1578 1.350 . S
C1573 N1581 1.427 . S
C1574 H1565 0.930 . S
C1574 C1572 1.378 . S
C1574 C1575 1.367 . S
C1575 C1574 1.367 . S
C1575 C1577 1.433 . S
C1576 C1572 1.350 . S
C1576 C1573 1.463 . S
C1576 N1580 1.427 . S
C1577 H1567 0.929 . S
C1577 C1575 1.433 . S
C1577 N1580 1.384 . S
C1578 H1569 0.929 . S
C1578 C1570 1.378 . S
C1578 C1573 1.350 . S
C1579 H1566 0.929 . S
C1579 C1571 1.433 . S
C1579 N1581 1.384 . S
N1580 C1576 1.427 . S
N1580 C1577 1.384 . S
N1581 C1573 1.427 . S
N1581 C1579 1.384 . S
H1582 C1588 0.930 . S
H1583 C1592 0.930 . S
H1584 C1597 0.929 . S
H1585 C1595 0.929 . S
H1586 C1590 0.929 . S
H1587 C1596 0.929 . S
C1588 H1582 0.930 . S
C1588 C1589 1.367 . S
C1588 C1596 1.378 . S
C1589 C1588 1.367 . S
C1589 C1597 1.433 . S
C1590 H1586 0.929 . S
C1590 C1592 1.378 . S
C1590 C1594 1.350 . S
C1591 C1594 1.463 . S
C1591 C1596 1.350 . S
C1591 N1599 1.427 . S
C1592 H1583 0.930 . S
C1592 C1590 1.378 . S
C1592 C1593 1.367 . S
C1593 C1592 1.367 . S
C1593 C1595 1.433 . S
C1594 C1590 1.350 . S
C1594 C1591 1.463 . S
C1594 N1598 1.427 . S
C1595 H1585 0.929 . S
C1595 C1593 1.433 . S
C1595 N1598 1.384 . S
C1596 H1587 0.929 . S
C1596 C1588 1.378 . S
C1596 C1591 1.350 . S
C1597 H1584 0.929 . S
C1597 C1589 1.433 . S
C1597 N1599 1.384 . S
N1598 C1594 1.427 . S
N1598 C1595 1.384 . S
N1599 C1591 1.427 . S
N1599 C1597 1.384 . S
C455 C36 0.826 . S
C459 C8 0.830 . S
C473 C22 0.805 . S
C477 C50 0.802 . S
C491 C92 0.803 . S
C495 C64 0.807 . S
C509 C106 0.802 . S
C513 C78 0.803 . S
C527 C120 0.821 1_545 S
C531 C148 0.814 . S
C545 C162 0.830 1_545 S
C549 C134 0.826 . S
C563 C176 0.831 1_565 S
C567 C204 0.828 . S
C581 C190 0.802 . S
C585 C218 0.803 1_565 S
C599 C260 0.820 . S
C603 C232 0.812 . S
C617 C246 0.806 . S
C621 C274 0.802 . S
C635 C288 0.831 . S
C639 C316 0.828 . S
C653 C330 0.825 . S
C657 C302 0.829 . S
C671 C372 0.828 . S
C675 C344 0.831 1_545 S
C689 C386 0.806 1_545 S
C693 C358 0.812 . S
C707 C428 0.831 . S
C711 C400 0.830 1_565 S
C725 C414 0.812 . S
C729 C442 0.806 1_565 S
C743 C62 1.472 . S
C747 C6 1.472 . S
C761 C412 1.478 . S
C765 C20 1.478 . S
C779 C34 1.480 . S
C783 C202 1.480 . S
C797 C48 1.468 . S
C801 C328 1.468 . S
C815 C76 1.476 . S
C819 C356 1.476 . S
C833 C90 1.476 . S
C837 C146 1.476 . S
C851 C272 1.481 . S
C855 C104 1.481 . S
C869 C174 1.473 . S
C873 C118 1.473 . S
C887 C300 1.470 . S
C891 C132 1.470 . S
C905 C160 1.471 . S
C909 C440 1.471 . S
C923 C188 1.478 . S
C927 C244 1.478 . S
C941 C384 1.481 . S
C945 C216 1.481 . S
C959 C286 1.474 . S
C963 C230 1.474 . S
C977 C258 1.481 . S
C981 C426 1.481 . S
C995 C314 1.473 . S
C999 C370 1.473 . S
C1013 C398 1.473 . S
C1017 C342 1.473 . S
C1031 C51 1.472 . S
C1035 C9 1.469 . S
C1049 C37 1.460 . S
C1053 C23 1.463 . S
C1067 C107 1.472 . S
C1071 C65 1.471 . S
C1085 C93 1.467 . S
C1089 C79 1.471 . S
C1103 C163 1.471 . S
C1107 C121 1.472 . S
C1121 C149 1.464 . S
C1125 C135 1.470 . S
C1139 C219 1.463 . S
C1143 C177 1.469 . S
C1157 C205 1.472 . S
C1161 C191 1.468 . S
C1175 C233 1.464 . S
C1179 C275 1.469 . S
C1193 C261 1.466 . S
C1197 C247 1.461 . S
C1211 C289 1.464 . S
C1215 C331 1.469 . S
C1229 C317 1.466 . S
C1233 C303 1.461 . S
C1247 C387 1.472 . S
C1251 C345 1.468 . S
C1265 C359 1.469 . S
C1269 C373 1.464 . S
C1283 C401 1.461 . S
C1287 C443 1.465 . S
C1301 C429 1.469 . S
C1305 C415 1.464 . S
C1319 C35 1.500 1_545 S
C1323 C7 1.500 . S
C1337 C21 1.501 1_545 S
C1341 C49 1.500 . S
C1355 C63 1.509 . S
C1359 C91 1.508 1_565 S
C1373 C77 1.508 1_565 S
C1377 C105 1.509 . S
C1391 C119 1.503 . S
C1395 C147 1.500 . S
C1409 C133 1.504 . S
C1413 C161 1.508 . S
C1427 C203 1.500 . S
C1431 C175 1.501 . S
C1445 C217 1.507 . S
C1449 C189 1.509 . S
C1463 C259 1.500 1_545 S
C1467 C231 1.500 . S
C1481 C273 1.506 . S
C1485 C245 1.502 1_545 S
C1499 C287 1.509 . S
C1503 C315 1.508 1_565 S
C1517 C329 1.509 . S
C1521 C301 1.507 1_565 S
C1535 C371 1.506 . S
C1539 C343 1.509 . S
C1553 C357 1.509 . S
C1557 C385 1.509 . S
C1571 C399 1.509 . S
C1575 C427 1.509 . S
C1589 C441 1.509 . S
C1593 C413 1.506 . S
