# Generated by pormake.
# Topology ung, (4)-cn, num edge types: 1
# Building blocks:
#     Node 0, Type 0, BuildingBlock: CEKHIL_clean_sbu_0, # of connection points: 4
#     Node 1, Type 0, BuildingBlock: CEKHIL_clean_sbu_0, # of connection points: 4
#     Node 2, Type 0, BuildingBlock: CEKHIL_clean_sbu_0, # of connection points: 4
#     Node 3, Type 0, BuildingBlock: CEKHIL_clean_sbu_0, # of connection points: 4
#     Node 4, Type 0, BuildingBlock: CEKHIL_clean_sbu_0, # of connection points: 4
#     Node 5, Type 0, BuildingBlock: CEKHIL_clean_sbu_0, # of connection points: 4
#     Node 6, Type 0, BuildingBlock: CEKHIL_clean_sbu_0, # of connection points: 4
#     Node 7, Type 0, BuildingBlock: CEKHIL_clean_sbu_0, # of connection points: 4
#     Node 8, Type 0, BuildingBlock: CEKHIL_clean_sbu_0, # of connection points: 4
#     Node 9, Type 0, BuildingBlock: CEKHIL_clean_sbu_0, # of connection points: 4
#     Node 10, Type 0, BuildingBlock: CEKHIL_clean_sbu_0, # of connection points: 4
#     Node 11, Type 0, BuildingBlock: CEKHIL_clean_sbu_0, # of connection points: 4
#     Node 12, Type 0, BuildingBlock: CEKHIL_clean_sbu_0, # of connection points: 4
#     Node 13, Type 0, BuildingBlock: CEKHIL_clean_sbu_0, # of connection points: 4
#     Node 14, Type 0, BuildingBlock: CEKHIL_clean_sbu_0, # of connection points: 4
#     Node 15, Type 0, BuildingBlock: CEKHIL_clean_sbu_0, # of connection points: 4
#     Node 16, Type 0, BuildingBlock: CEKHIL_clean_sbu_0, # of connection points: 4
#     Node 17, Type 0, BuildingBlock: CEKHIL_clean_sbu_0, # of connection points: 4
#     Edge 18, Type (0, 0), BuildingBlock: KIFKEQ_clean_linker_1, # of connection points: 2
#     Edge 19, Type (0, 0), BuildingBlock: KIFKEQ_clean_linker_1, # of connection points: 2
#     Edge 20, Type (0, 0), BuildingBlock: KIFKEQ_clean_linker_1, # of connection points: 2
#     Edge 21, Type (0, 0), BuildingBlock: KIFKEQ_clean_linker_1, # of connection points: 2
#     Edge 22, Type (0, 0), BuildingBlock: KIFKEQ_clean_linker_1, # of connection points: 2
#     Edge 23, Type (0, 0), BuildingBlock: KIFKEQ_clean_linker_1, # of connection points: 2
#     Edge 24, Type (0, 0), BuildingBlock: KIFKEQ_clean_linker_1, # of connection points: 2
#     Edge 25, Type (0, 0), BuildingBlock: KIFKEQ_clean_linker_1, # of connection points: 2
#     Edge 26, Type (0, 0), BuildingBlock: KIFKEQ_clean_linker_1, # of connection points: 2
#     Edge 27, Type (0, 0), BuildingBlock: KIFKEQ_clean_linker_1, # of connection points: 2
#     Edge 28, Type (0, 0), BuildingBlock: KIFKEQ_clean_linker_1, # of connection points: 2
#     Edge 29, Type (0, 0), BuildingBlock: KIFKEQ_clean_linker_1, # of connection points: 2
#     Edge 30, Type (0, 0), BuildingBlock: KIFKEQ_clean_linker_1, # of connection points: 2
#     Edge 31, Type (0, 0), BuildingBlock: KIFKEQ_clean_linker_1, # of connection points: 2
#     Edge 32, Type (0, 0), BuildingBlock: KIFKEQ_clean_linker_1, # of connection points: 2
#     Edge 33, Type (0, 0), BuildingBlock: KIFKEQ_clean_linker_1, # of connection points: 2
#     Edge 34, Type (0, 0), BuildingBlock: KIFKEQ_clean_linker_1, # of connection points: 2
#     Edge 35, Type (0, 0), BuildingBlock: KIFKEQ_clean_linker_1, # of connection points: 2
#     Edge 36, Type (0, 0), BuildingBlock: KIFKEQ_clean_linker_1, # of connection points: 2
#     Edge 37, Type (0, 0), BuildingBlock: KIFKEQ_clean_linker_1, # of connection points: 2
#     Edge 38, Type (0, 0), BuildingBlock: KIFKEQ_clean_linker_1, # of connection points: 2
#     Edge 39, Type (0, 0), BuildingBlock: KIFKEQ_clean_linker_1, # of connection points: 2
#     Edge 40, Type (0, 0), BuildingBlock: KIFKEQ_clean_linker_1, # of connection points: 2
#     Edge 41, Type (0, 0), BuildingBlock: KIFKEQ_clean_linker_1, # of connection points: 2
#     Edge 42, Type (0, 0), BuildingBlock: KIFKEQ_clean_linker_1, # of connection points: 2
#     Edge 43, Type (0, 0), BuildingBlock: KIFKEQ_clean_linker_1, # of connection points: 2
#     Edge 44, Type (0, 0), BuildingBlock: KIFKEQ_clean_linker_1, # of connection points: 2
#     Edge 45, Type (0, 0), BuildingBlock: KIFKEQ_clean_linker_1, # of connection points: 2
#     Edge 46, Type (0, 0), BuildingBlock: KIFKEQ_clean_linker_1, # of connection points: 2
#     Edge 47, Type (0, 0), BuildingBlock: KIFKEQ_clean_linker_1, # of connection points: 2
#     Edge 48, Type (0, 0), BuildingBlock: KIFKEQ_clean_linker_1, # of connection points: 2
#     Edge 49, Type (0, 0), BuildingBlock: KIFKEQ_clean_linker_1, # of connection points: 2
#     Edge 50, Type (0, 0), BuildingBlock: KIFKEQ_clean_linker_1, # of connection points: 2
#     Edge 51, Type (0, 0), BuildingBlock: KIFKEQ_clean_linker_1, # of connection points: 2
#     Edge 52, Type (0, 0), BuildingBlock: KIFKEQ_clean_linker_1, # of connection points: 2
#     Edge 53, Type (0, 0), BuildingBlock: KIFKEQ_clean_linker_1, # of connection points: 2
# Relax obj value: 0.073
# Max RMSD: 0.189
# Mean RMSD: 0.184
data_MOF--net-ung--node1-CEKHIL_clean_sbu_0--edge1-KIFKEQ_clean_linker_1
_symmetry_space_group_name_H-M    P1
_symmetry_Int_Tables_number       1
_symmetry_cell_setting            triclinic
loop_
_symmetry_equiv_pos_as_xyz
'x, y, z'
_cell_length_a     73.745919
_cell_length_b     73.904181
_cell_length_c     22.51032
_cell_angle_alpha  91.029257
_cell_angle_beta   91.039284
_cell_angle_gamma 119.94381
loop_
_atom_site_label
_atom_site_type_symbol
_atom_site_fract_x
_atom_site_fract_y
_atom_site_fract_z
_atom_type_partial_charge
Co0 Co 0.07732 0.62264 0.25278 0.0
O1 O 0.09426 0.61598 0.30258 0.0
O2 O 0.06089 0.59415 0.27871 0.0
C3 C 0.08661 0.65328 0.29854 0.0
O4 O 0.05524 0.62528 0.20322 0.0
Co5 Co 0.10008 0.6606 0.17303 0.0
O6 O 0.07201 0.65783 0.16789 0.0
C7 C 0.09603 0.6207 0.13418 0.0
C8 C 0.07784 0.59783 0.3082 0.0
C9 C 0.05534 0.64078 0.17754 0.0
O10 O 0.08588 0.6127 0.18124 0.0
O11 O 0.10383 0.64002 0.1224 0.0
O12 O 0.07197 0.63594 0.31903 0.0
O13 O 0.09683 0.65148 0.25458 0.0
Co14 Co 0.49621 0.48916 0.2275 0.0
O15 O 0.51939 0.49647 0.17796 0.0
O16 O 0.50482 0.51602 0.19108 0.0
C17 C 0.47729 0.45638 0.19007 0.0
O18 O 0.47098 0.48469 0.27558 0.0
Co19 Co 0.48787 0.45527 0.31814 0.0
O20 O 0.46066 0.45435 0.32188 0.0
C21 C 0.52093 0.49824 0.34585 0.0
C22 C 0.51873 0.51301 0.16442 0.0
C23 C 0.45778 0.46922 0.30613 0.0
O24 O 0.51569 0.50368 0.29757 0.0
O25 O 0.51265 0.4792 0.36112 0.0
O26 O 0.47712 0.47181 0.16428 0.0
O27 O 0.49064 0.46147 0.23431 0.0
Co28 Co 0.62912 0.0534 0.2671 0.0
O29 O 0.60524 0.03776 0.31444 0.0
O30 O 0.62113 0.07202 0.30639 0.0
C31 C 0.64618 0.03747 0.30271 0.0
O32 O 0.6549 0.07453 0.22252 0.0
Co33 Co 0.63959 0.02992 0.17291 0.0
O34 O 0.6667 0.05622 0.17144 0.0
C35 C 0.60721 0.04091 0.14457 0.0
C36 C 0.60649 0.05524 0.33032 0.0
C37 C 0.6687 0.07343 0.19066 0.0
O38 O 0.61045 0.04972 0.19638 0.0
O39 O 0.61664 0.03128 0.12699 0.0
O40 O 0.64733 0.05358 0.33022 0.0
O41 O 0.63366 0.0305 0.25627 0.0
Co42 Co 0.0631 0.48836 0.71909 0.0
O43 O 0.05381 0.5037 0.67302 0.0
O44 O 0.087 0.5119 0.68443 0.0
C45 C 0.03951 0.45717 0.67917 0.0
O46 O 0.07764 0.47496 0.76358 0.0
Co47 Co 0.03242 0.4579 0.80872 0.0
O48 O 0.05221 0.44718 0.80892 0.0
C49 C 0.05581 0.50282 0.83961 0.0
C50 C 0.07316 0.51574 0.65998 0.0
C51 C 0.07105 0.45803 0.79266 0.0
O52 O 0.06568 0.50578 0.79121 0.0
O53 O 0.04088 0.4849 0.85385 0.0
O54 O 0.05691 0.46899 0.65327 0.0
O55 O 0.03585 0.46528 0.72582 0.0
Co56 Co 0.63173 0.62215 0.76976 0.0
O57 O 0.6072 0.6136 0.81514 0.0
O58 O 0.62372 0.59565 0.80634 0.0
C59 C 0.64859 0.65503 0.8078 0.0
O60 O 0.658 0.62707 0.72657 0.0
Co61 Co 0.64301 0.65668 0.67854 0.0
O62 O 0.67026 0.65758 0.68011 0.0
C63 C 0.61114 0.6132 0.64575 0.0
C64 C 0.60863 0.5975 0.82957 0.0
C65 C 0.67214 0.64228 0.69738 0.0
O66 O 0.61393 0.60739 0.69691 0.0
O67 O 0.62056 0.6323 0.63042 0.0
O68 O 0.64913 0.64004 0.8353 0.0
O69 O 0.63648 0.64947 0.76061 0.0
Co70 Co 0.50027 0.06381 0.7323 0.0
O71 O 0.52486 0.07667 0.68613 0.0
O72 O 0.50453 0.0425 0.69342 0.0
C73 C 0.48715 0.08335 0.69636 0.0
O74 O 0.47323 0.04552 0.77646 0.0
Co75 Co 0.4952 0.09144 0.82664 0.0
O76 O 0.46612 0.06776 0.82665 0.0
C77 C 0.52304 0.07471 0.85388 0.0
C78 C 0.52084 0.05809 0.67053 0.0
C79 C 0.46107 0.04939 0.8082 0.0
O80 O 0.51746 0.06469 0.80361 0.0
O81 O 0.51699 0.08747 0.87049 0.0
O82 O 0.48411 0.06657 0.66826 0.0
O83 O 0.49956 0.08891 0.743 0.0
Co84 Co 0.71306 0.94015 0.57854 0.0
O85 O 0.70146 0.91472 0.53268 0.0
O86 O 0.73516 0.93435 0.55788 0.0
C87 C 0.69727 0.95465 0.52808 0.0
O88 O 0.72988 0.96754 0.62582 0.0
Co89 Co 0.68131 0.94641 0.6515 0.0
O90 O 0.70666 0.97301 0.67569 0.0
C91 C 0.69819 0.92131 0.70069 0.0
C92 C 0.72026 0.91765 0.53069 0.0
C93 C 0.72532 0.97826 0.66205 0.0
O94 O 0.70895 0.92472 0.65388 0.0
O95 O 0.68479 0.92731 0.70746 0.0
O96 O 0.71423 0.95564 0.50919 0.0
O97 O 0.68864 0.94236 0.57195 0.0
Co98 Co 0.1607 0.8209 0.56441 0.0
O99 O 0.18384 0.82641 0.51655 0.0
O100 O 0.17216 0.84846 0.53008 0.0
C101 C 0.13995 0.78878 0.52417 0.0
O102 O 0.13626 0.81893 0.61173 0.0
Co103 Co 0.14748 0.78507 0.65213 0.0
O104 O 0.1224 0.78807 0.65742 0.0
C105 C 0.18336 0.82635 0.6842 0.0
C106 C 0.18537 0.84412 0.50464 0.0
C107 C 0.12196 0.80438 0.64246 0.0
O108 O 0.18004 0.83329 0.6358 0.0
O109 O 0.17274 0.80716 0.69824 0.0
O110 O 0.14136 0.80511 0.49939 0.0
O111 O 0.15245 0.7925 0.56966 0.0
Co112 Co 0.29577 0.39362 0.57151 0.0
O113 O 0.2839 0.40931 0.53906 0.0
O114 O 0.26765 0.37479 0.5398 0.0
C115 C 0.32648 0.41186 0.52512 0.0
O116 O 0.30348 0.37226 0.6009 0.0
Co117 Co 0.33447 0.41568 0.65532 0.0
O118 O 0.33586 0.3898 0.6427 0.0
C119 C 0.29286 0.4024 0.70293 0.0
C120 C 0.26752 0.39161 0.52414 0.0
C121 C 0.31983 0.37287 0.62439 0.0
O122 O 0.28458 0.39417 0.65176 0.0
O123 O 0.31268 0.41308 0.71306 0.0
O124 O 0.31031 0.39633 0.49864 0.0
O125 O 0.32338 0.41701 0.57779 0.0
Co126 Co 0.72814 0.82517 0.07139 0.0
O127 O 0.71355 0.8382 0.039 0.0
O128 O 0.7481 0.85354 0.05011 0.0
C129 C 0.71069 0.79557 0.01556 0.0
O130 O 0.74801 0.81562 0.10361 0.0
Co131 Co 0.70244 0.78438 0.14062 0.0
O132 O 0.72774 0.78208 0.1288 0.0
C133 C 0.71689 0.82539 0.20094 0.0
C134 C 0.73171 0.85444 0.03168 0.0
C135 C 0.7456 0.79795 0.12014 0.0
O136 O 0.72603 0.83469 0.15363 0.0
O137 O 0.70581 0.80548 0.20392 0.0
O138 O 0.72653 0.81194 0.99462 0.0
O139 O 0.70467 0.79821 0.06701 0.0
Co140 Co 0.29635 0.94868 0.10934 0.0
O141 O 0.27088 0.93625 0.15117 0.0
O142 O 0.29146 0.92255 0.14314 0.0
C143 C 0.30842 0.98039 0.15272 0.0
O144 O 0.32432 0.95848 0.06858 0.0
Co145 Co 0.30274 0.98314 0.02285 0.0
O146 O 0.33194 0.98878 0.02605 0.0
C147 C 0.27517 0.93912 0.98608 0.0
C148 C 0.27469 0.92156 0.16469 0.0
C149 C 0.3369 0.97529 0.04168 0.0
O150 O 0.28053 0.93376 0.03426 0.0
O151 O 0.28114 0.95816 0.97443 0.0
O152 O 0.31117 0.96631 0.17801 0.0
O153 O 0.29697 0.9744 0.10416 0.0
Co154 Co 0.16686 0.38726 0.06116 0.0
O155 O 0.19332 0.40024 0.02343 0.0
O156 O 0.17448 0.36635 0.03955 0.0
C157 C 0.15313 0.40298 0.006 0.0
O158 O 0.13857 0.36879 0.09919 0.0
Co159 Co 0.15439 0.41535 0.13193 0.0
O160 O 0.12633 0.39 0.12708 0.0
C161 C 0.18286 0.40299 0.18841 0.0
C162 C 0.19117 0.38182 0.01784 0.0
C163 C 0.12396 0.37183 0.11901 0.0
O164 O 0.18134 0.39226 0.14115 0.0
O165 O 0.17415 0.41422 0.19287 0.0
O166 O 0.15266 0.38612 0.98673 0.0
O167 O 0.1635 0.41093 0.05572 0.0
Co168 Co 0.39582 0.2864 0.92496 0.0
O169 O 0.41297 0.27857 0.96967 0.0
O170 O 0.37883 0.25828 0.953 0.0
C171 C 0.40866 0.31763 0.97177 0.0
O172 O 0.3734 0.29012 0.88089 0.0
Co173 Co 0.41729 0.32411 0.84391 0.0
O174 O 0.38977 0.32259 0.84544 0.0
C175 C 0.40935 0.28295 0.79989 0.0
C176 C 0.39611 0.26105 0.97843 0.0
C177 C 0.37318 0.30565 0.85649 0.0
O178 O 0.40132 0.27531 0.84983 0.0
O179 O 0.41726 0.30233 0.78859 0.0
O180 O 0.39363 0.30096 0.99411 0.0
O181 O 0.41667 0.31479 0.92413 0.0
Co182 Co 0.83123 0.15119 0.89097 0.0
O183 O 0.85541 0.15847 0.84556 0.0
O184 O 0.84014 0.17762 0.85245 0.0
C185 C 0.81364 0.1181 0.85488 0.0
O186 O 0.80533 0.14743 0.93408 0.0
Co187 Co 0.82017 0.11777 0.98524 0.0
O188 O 0.79367 0.11838 0.98767 0.0
C189 C 0.85356 0.16084 0.01264 0.0
C190 C 0.85475 0.17484 0.8297 0.0
C191 C 0.7917 0.13329 0.96724 0.0
O192 O 0.84937 0.16623 0.96268 0.0
O193 O 0.84472 0.14185 0.0288 0.0
O194 O 0.81343 0.1331 0.8265 0.0
O195 O 0.82579 0.12373 0.90199 0.0
Co196 Co 0.95914 0.70863 0.92765 0.0
O197 O 0.93404 0.69395 0.97167 0.0
O198 O 0.95333 0.7284 0.96804 0.0
C199 C 0.97302 0.68957 0.96209 0.0
O200 O 0.98628 0.72946 0.88846 0.0
Co201 Co 0.97014 0.68672 0.83114 0.0
O202 O -0.00152 0.71156 0.83777 0.0
C203 C 0.94002 0.70075 0.80227 0.0
C204 C 0.93733 0.71214 0.98944 0.0
C205 C 0.00066 0.7286 0.85906 0.0
O206 O 0.94238 0.70806 0.85573 0.0
O207 O 0.94916 0.69096 0.78362 0.0
O208 O 0.97499 0.70566 0.99179 0.0
O209 O 0.96171 0.6845 0.91321 0.0
Co210 Co 0.3896 0.15373 0.39401 0.0
O211 O 0.37718 0.16116 0.33135 0.0
O212 O 0.41092 0.17887 0.35675 0.0
C213 C 0.37399 0.11998 0.36319 0.0
O214 O 0.40734 0.14911 0.45626 0.0
Co215 Co 0.35972 0.12332 0.4839 0.0
O216 O 0.38514 0.1241 0.51641 0.0
C217 C 0.37249 0.16763 0.49723 0.0
C218 C 0.39568 0.17627 0.32077 0.0
C219 C 0.40358 0.13686 0.5002 0.0
O220 O 0.3843 0.17121 0.45266 0.0
O221 O 0.36014 0.14919 0.51485 0.0
O222 O 0.39148 0.13393 0.34162 0.0
O223 O 0.36542 0.12703 0.39985 0.0
Co224 Co 0.96315 0.28552 0.43657 0.0
O225 O 0.93804 0.27306 0.48026 0.0
O226 O 0.95878 0.25959 0.47023 0.0
C227 C 0.97503 0.31736 0.47917 0.0
O228 O 0.99075 0.29501 0.39403 0.0
Co229 Co 0.97016 0.32009 0.35006 0.0
O230 O -0.0006 0.32593 0.35442 0.0
C231 C 0.94239 0.27596 0.31307 0.0
C232 C 0.9421 0.25845 0.49292 0.0
C233 C 0.00379 0.3119 0.36827 0.0
O234 O 0.94672 0.27034 0.36246 0.0
O235 O 0.94942 0.29509 0.30015 0.0
O236 O 0.97841 0.30362 0.50428 0.0
O237 O 0.96348 0.31107 0.43086 0.0
Co238 Co 0.8341 0.72532 0.39367 0.0
O239 O 0.85796 0.73914 0.34536 0.0
O240 O 0.83997 0.70494 0.3558 0.0
C241 C 0.81921 0.74301 0.35539 0.0
O242 O 0.80799 0.70571 0.43909 0.0
Co243 Co 0.82627 0.75031 0.48652 0.0
O244 O 0.79785 0.72568 0.48826 0.0
C245 C 0.85679 0.73717 0.51517 0.0
C246 C 0.85512 0.72093 0.33043 0.0
C247 C 0.79468 0.70794 0.47 0.0
O248 O 0.85248 0.72802 0.46375 0.0
O249 O 0.84876 0.74811 0.53292 0.0
O250 O 0.81659 0.72589 0.33064 0.0
O251 O 0.83165 0.74983 0.40223 0.0
H252 H 0.08651 0.54315 0.82326 0.0
H253 H 0.04146 0.50376 0.95062 0.0
H254 H 0.09976 0.57269 0.89343 0.0
H255 H 0.05449 0.53354 0.02025 0.0
H256 H 0.09379 0.58356 0.15441 0.0
H257 H 0.08571 0.55562 0.08167 0.0
H258 H 0.0893 0.59597 0.94029 0.0
H259 H 0.09784 0.62417 0.01331 0.0
C260 C 0.07931 0.54077 0.86608 0.0
C261 C 0.06291 0.52099 0.88135 0.0
C262 C 0.08691 0.55778 0.90619 0.0
C263 C 0.07832 0.55543 0.96253 0.0
C264 C 0.06173 0.53576 0.97754 0.0
C265 C 0.05411 0.51872 0.93742 0.0
C266 C 0.09331 0.58662 0.10767 0.0
C267 C 0.09624 0.60597 0.0895 0.0
C268 C 0.08847 0.57054 0.06609 0.0
C269 C 0.08634 0.57342 0.00543 0.0
C270 C 0.09081 0.59327 0.98678 0.0
C271 C 0.0958 0.60946 0.02853 0.0
H272 H 0.61553 0.57232 0.90304 0.0
H273 H 0.57061 0.59161 0.8591 0.0
H274 H 0.59458 0.55322 0.98673 0.0
H275 H 0.54914 0.57181 0.94079 0.0
H276 H 0.52518 0.55123 0.12713 0.0
H277 H 0.5472 0.57158 0.04578 0.0
H278 H 0.56353 0.52377 0.01176 0.0
H279 H 0.54271 0.50433 0.09347 0.0
C280 C 0.60092 0.57204 0.91048 0.0
C281 C 0.59467 0.58337 0.87454 0.0
C282 C 0.58888 0.56113 0.95852 0.0
C283 C 0.57015 0.56105 0.97101 0.0
C284 C 0.56366 0.5719 0.93362 0.0
C285 C 0.57584 0.58302 0.88624 0.0
C286 C 0.53368 0.54529 0.10248 0.0
C287 C 0.53228 0.52627 0.11709 0.0
C288 C 0.54617 0.55681 0.05555 0.0
C289 C 0.55726 0.54936 0.02204 0.0
C290 C 0.55571 0.53032 0.03707 0.0
C291 C 0.54356 0.51905 0.08402 0.0
H292 H 0.6049 0.03584 0.02346 0.0
H293 H 0.57843 0.05281 0.1692 0.0
H294 H 0.58522 0.04453 0.95304 0.0
H295 H 0.55812 0.06077 0.09882 0.0
H296 H 0.54261 0.09516 0.95925 0.0
H297 H 0.56247 0.08625 0.02886 0.0
H298 H 0.55153 0.03418 0.91336 0.0
H299 H 0.53251 0.04352 0.84307 0.0
C300 C 0.59455 0.04102 0.04052 0.0
C301 C 0.59327 0.04365 0.10199 0.0
C302 C 0.58322 0.04601 8e-05 0.0
C303 C 0.57016 0.05353 0.02011 0.0
C304 C 0.56838 0.05549 0.08169 0.0
C305 C 0.57987 0.05071 0.12211 0.0
C306 C 0.54459 0.08191 0.94855 0.0
C307 C 0.53599 0.07013 0.89542 0.0
C308 C 0.55582 0.07667 0.98873 0.0
C309 C 0.55855 0.05941 0.97698 0.0
C310 C 0.55006 0.04776 0.92361 0.0
C311 C 0.53904 0.0531 0.88328 0.0
H312 H 0.604 0.08871 0.37643 0.0
H313 H 0.57801 0.0221 0.39068 0.0
H314 H 0.58266 0.08843 0.45881 0.0
H315 H 0.55761 0.02193 0.47378 0.0
H316 H 0.50924 0.02552 0.59033 0.0
H317 H 0.52892 0.02493 0.5047 0.0
H318 H 0.58105 0.08478 0.56312 0.0
H319 H 0.56107 0.08563 0.64667 0.0
C320 C 0.59372 0.07405 0.39698 0.0
C321 C 0.59274 0.05548 0.37702 0.0
C322 C 0.58163 0.07386 0.44456 0.0
C323 C 0.56848 0.05514 0.47346 0.0
C324 C 0.56726 0.03658 0.45239 0.0
C325 C 0.57913 0.03673 0.40472 0.0
C326 C 0.52503 0.03833 0.58518 0.0
C327 C 0.53363 0.0556 0.62499 0.0
C328 C 0.53632 0.03808 0.53604 0.0
C329 C 0.55652 0.05499 0.52633 0.0
C330 C 0.56535 0.07179 0.56798 0.0
C331 C 0.554 0.07214 0.61642 0.0
H332 H 0.1122 0.60085 0.36418 0.0
H333 H 0.04477 0.56273 0.35177 0.0
H334 H 0.11312 0.58187 0.45025 0.0
H335 H 0.04575 0.54333 0.4374 0.0
H336 H 0.05152 0.53514 0.63299 0.0
H337 H 0.0535 0.55362 0.54303 0.0
H338 H 0.10665 0.5483 0.48922 0.0
H339 H 0.1048 0.52992 0.58062 0.0
C340 C 0.09758 0.58809 0.3791 0.0
C341 C 0.07835 0.58343 0.3518 0.0
C342 C 0.09816 0.57719 0.42833 0.0
C343 C 0.07951 0.56142 0.45127 0.0
C344 C 0.06037 0.55578 0.42144 0.0
C345 C 0.05979 0.5667 0.37206 0.0
C346 C 0.0639 0.53828 0.60251 0.0
C347 C 0.07798 0.53107 0.61349 0.0
C348 C 0.06483 0.54858 0.55058 0.0
C349 C 0.07981 0.55183 0.50824 0.0
C350 C 0.09483 0.54586 0.52096 0.0
C351 C 0.09393 0.53554 0.5734 0.0
H352 H 0.61105 0.61603 0.525 0.0
H353 H 0.58094 0.57301 0.6659 0.0
H354 H 0.59103 0.58818 0.45151 0.0
H355 H 0.5602 0.5453 0.59244 0.0
H356 H 0.53973 0.4948 0.44839 0.0
H357 H 0.56216 0.52274 0.51979 0.0
H358 H 0.55726 0.56758 0.40986 0.0
H359 H 0.53581 0.54006 0.33785 0.0
C360 C 0.59986 0.60071 0.5403 0.0
C361 C 0.59753 0.59677 0.60129 0.0
C362 C 0.58835 0.5847 0.49812 0.0
C363 C 0.57398 0.56441 0.5159 0.0
C364 C 0.57141 0.56059 0.57702 0.0
C365 C 0.58314 0.57654 0.6192 0.0
C366 C 0.54367 0.51067 0.43922 0.0
C367 C 0.53594 0.51513 0.38735 0.0
C368 C 0.55638 0.52668 0.4804 0.0
C369 C 0.56144 0.54745 0.4709 0.0
C370 C 0.55401 0.55188 0.41841 0.0
C371 C 0.54156 0.53599 0.37708 0.0
H372 H 0.70545 0.81231 0.31416 0.0
H373 H 0.73611 0.86801 0.21082 0.0
H374 H 0.71066 0.8338 0.40311 0.0
H375 H 0.74085 0.88938 0.29953 0.0
H376 H 0.75573 0.92503 0.4732 0.0
H377 H 0.75814 0.9017 0.39868 0.0
H378 H 0.69479 0.85402 0.43435 0.0
H379 H 0.69259 0.87698 0.50838 0.0
C380 C 0.71325 0.82911 0.3103 0.0
C381 C 0.72006 0.8384 0.25512 0.0
C382 C 0.71631 0.84142 0.36135 0.0
C383 C 0.72616 0.86328 0.35833 0.0
C384 C 0.73351 0.87261 0.30354 0.0
C385 C 0.73053 0.86031 0.2525 0.0
C386 C 0.74263 0.90933 0.46611 0.0
C387 C 0.72392 0.90282 0.49586 0.0
C388 C 0.74391 0.89607 0.42323 0.0
C389 C 0.72657 0.87611 0.41026 0.0
C390 C 0.70849 0.86919 0.4435 0.0
C391 C 0.70718 0.88242 0.48569 0.0
H392 H 0.18832 0.87822 0.44798 0.0
H393 H 0.21654 0.83929 0.46003 0.0
H394 H 0.21069 0.89611 0.36473 0.0
H395 H 0.23803 0.85636 0.37636 0.0
H396 H 0.28671 0.90455 0.25327 0.0
H397 H 0.26644 0.8873 0.3403 0.0
H398 H 0.21279 0.88805 0.26241 0.0
H399 H 0.23327 0.90581 0.17704 0.0
C400 C 0.19942 0.87366 0.43335 0.0
C401 C 0.20054 0.85728 0.46028 0.0
C402 C 0.21205 0.88369 0.38523 0.0
C403 C 0.22596 0.87744 0.36319 0.0
C404 C 0.22766 0.8617 0.39215 0.0
C405 C 0.21518 0.85181 0.44009 0.0
C406 C 0.27042 0.90044 0.25425 0.0
C407 C 0.2615 0.9064 0.20856 0.0
C408 C 0.25883 0.89075 0.30426 0.0
C409 C 0.23808 0.88671 0.309 0.0
C410 C 0.22889 0.89152 0.26123 0.0
C411 C 0.2405 0.90135 0.2118 0.0
H412 H 0.26113 0.42395 0.50186 0.0
H413 H 0.23712 0.35868 0.45695 0.0
H414 H 0.23898 0.42582 0.424 0.0
H415 H 0.21444 0.36043 0.37914 0.0
H416 H 0.20416 0.38155 0.1956 0.0
H417 H 0.22132 0.37703 0.2826 0.0
H418 H 0.20371 0.41483 0.38844 0.0
H419 H 0.18678 0.41971 0.30104 0.0
C420 C 0.25074 0.40984 0.47615 0.0
C421 C 0.25098 0.3912 0.48517 0.0
C422 C 0.23795 0.41091 0.43161 0.0
C423 C 0.2251 0.39335 0.39489 0.0
C424 C 0.22444 0.37433 0.40612 0.0
C425 C 0.23723 0.37325 0.45104 0.0
C426 C 0.20395 0.38898 0.23731 0.0
C427 C 0.19416 0.40113 0.24107 0.0
C428 C 0.2136 0.38615 0.28742 0.0
C429 C 0.21373 0.3954 0.34261 0.0
C430 C 0.20399 0.40758 0.34647 0.0
C431 C 0.19432 0.41042 0.2963 0.0
H432 H 0.23313 0.4008 0.03595 0.0
H433 H 0.18279 0.35821 0.91691 0.0
H434 H 0.25867 0.40352 0.96423 0.0
H435 H 0.20792 0.36209 0.84259 0.0
H436 H 0.25695 0.3662 0.72093 0.0
H437 H 0.23352 0.35762 0.80334 0.0
H438 H 0.27267 0.42008 0.87869 0.0
H439 H 0.29691 0.42785 0.79823 0.0
C440 C 0.22763 0.39167 0.99466 0.0
C441 C 0.20612 0.37905 0.98207 0.0
C442 C 0.24221 0.39354 0.95285 0.0
C443 C 0.23556 0.38346 0.89644 0.0
C444 C 0.2139 0.36995 0.88542 0.0
C445 C 0.19936 0.36761 0.9281 0.0
C446 C 0.26052 0.37805 0.75534 0.0
C447 C 0.27864 0.39777 0.75299 0.0
C448 C 0.247 0.37318 0.80266 0.0
C449 C 0.2509 0.3881 0.8482 0.0
C450 C 0.26919 0.40789 0.84561 0.0
C451 C 0.28304 0.41253 0.79904 0.0
H452 H 0.70966 0.87444 0.04347 0.0
H453 H 0.75498 0.87028 0.93467 0.0
H454 H 0.70326 0.89354 0.9665 0.0
H455 H 0.74762 0.88783 0.85552 0.0
H456 H 0.73652 0.9266 0.72611 0.0
H457 H 0.74806 0.9157 0.81262 0.0
H458 H 0.68494 0.88558 0.877 0.0
H459 H 0.67382 0.89803 0.79176 0.0
C460 C 0.71864 0.87817 0.00346 0.0
C461 C 0.73295 0.87117 0.99495 0.0
C462 C 0.71467 0.88869 0.95872 0.0
C463 C 0.72442 0.89179 0.9037 0.0
C464 C 0.73986 0.88599 0.89715 0.0
C465 C 0.74424 0.87599 0.94268 0.0
C466 C 0.72505 0.91752 0.75859 0.0
C467 C 0.70416 0.91289 0.75176 0.0
C468 C 0.7317 0.91122 0.80841 0.0
C469 C 0.71753 0.89963 0.85226 0.0
C470 C 0.69651 0.89487 0.8451 0.0
C471 C 0.68998 0.9017 0.79579 0.0
H472 H 0.25566 0.94196 0.88453 0.0
H473 H 0.2653 0.89828 0.98665 0.0
H474 H 0.23457 0.91417 0.81142 0.0
H475 H 0.24488 0.87082 0.91281 0.0
H476 H 0.18726 0.82202 0.80349 0.0
H477 H 0.20976 0.84923 0.87624 0.0
H478 H 0.23749 0.89284 0.7351 0.0
H479 H 0.21457 0.86585 0.66266 0.0
C480 C 0.25338 0.92649 0.89127 0.0
C481 C 0.26212 0.92237 0.94159 0.0
C482 C 0.24142 0.91058 0.84913 0.0
C483 C 0.23808 0.89026 0.85614 0.0
C484 C 0.24687 0.88619 0.90642 0.0
C485 C 0.25866 0.90202 0.94869 0.0
C486 C 0.19837 0.83732 0.78792 0.0
C487 C 0.19903 0.84179 0.72736 0.0
C488 C 0.21129 0.85295 0.82963 0.0
C489 C 0.22527 0.87331 0.81158 0.0
C490 C 0.22656 0.87748 0.75069 0.0
C491 C 0.21354 0.86193 0.7091 0.0
H492 H 0.40995 0.28811 0.67942 0.0
H493 H 0.40275 0.24358 0.81199 0.0
H494 H 0.39956 0.26094 0.6016 0.0
H495 H 0.39281 0.21671 0.73454 0.0
H496 H 0.35259 0.16741 0.59912 0.0
H497 H 0.36235 0.19657 0.66894 0.0
H498 H 0.4098 0.23807 0.55066 0.0
H499 H 0.39975 0.2091 0.48001 0.0
C500 C 0.40663 0.27268 0.69183 0.0
C501 C 0.40703 0.26796 0.7519 0.0
C502 C 0.40058 0.25709 0.64729 0.0
C503 C 0.39489 0.23655 0.66208 0.0
C504 C 0.39646 0.23221 0.72184 0.0
C505 C 0.40239 0.24769 0.76619 0.0
C506 C 0.36483 0.1828 0.58737 0.0
C507 C 0.37554 0.18579 0.53421 0.0
C508 C 0.37058 0.19949 0.62771 0.0
C509 C 0.3872 0.21953 0.61593 0.0
C510 C 0.39698 0.22283 0.56112 0.0
C511 C 0.39119 0.20615 0.52064 0.0
H512 H 0.85659 0.20918 0.778 0.0
H513 H 0.8851 0.17035 0.77708 0.0
H514 H 0.8783 0.22854 0.69538 0.0
H515 H 0.90594 0.18892 0.69376 0.0
H516 H 0.95429 0.23986 0.57633 0.0
H517 H 0.93415 0.2206 0.6614 0.0
H518 H 0.88048 0.22319 0.59177 0.0
H519 H 0.90086 0.24302 0.50862 0.0
C520 C 0.86753 0.20487 0.76044 0.0
C521 C 0.86904 0.18821 0.78394 0.0
C522 C 0.87982 0.21578 0.7127 0.0
C523 C 0.89372 0.21012 0.68734 0.0
C524 C 0.89561 0.19387 0.7123 0.0
C525 C 0.88351 0.18313 0.76006 0.0
C526 C 0.93804 0.23583 0.57874 0.0
C527 C 0.92909 0.24287 0.53613 0.0
C528 C 0.92651 0.22493 0.62759 0.0
C529 C 0.90578 0.2207 0.63413 0.0
C530 C 0.89657 0.22673 0.58928 0.0
C531 C 0.90814 0.2378 0.54112 0.0
H532 H 0.91095 0.7122 0.82782 0.0
H533 H 0.94057 0.69995 0.68084 0.0
H534 H 0.8916 0.72172 0.75856 0.0
H535 H 0.92196 0.71033 0.61171 0.0
H536 H 0.8695 0.70861 0.50011 0.0
H537 H 0.88892 0.69958 0.56924 0.0
H538 H 0.8948 0.7478 0.69288 0.0
H539 H 0.8743 0.75629 0.62405 0.0
C540 C 0.91335 0.71155 0.78066 0.0
C541 C 0.92721 0.70516 0.75984 0.0
C542 C 0.90241 0.71725 0.74092 0.0
C543 C 0.90523 0.71694 0.67937 0.0
C544 C 0.91907 0.71045 0.65865 0.0
C545 C 0.92979 0.7045 0.69834 0.0
C546 C 0.87503 0.71748 0.54179 0.0
C547 C 0.87031 0.73325 0.55637 0.0
C548 C 0.88632 0.71232 0.58152 0.0
C549 C 0.89354 0.72294 0.63681 0.0
C550 C 0.88921 0.73903 0.65109 0.0
C551 C 0.87762 0.74405 0.61143 0.0
H552 H 0.88057 0.75143 0.25803 0.0
H553 H 0.85753 0.68639 0.29368 0.0
H554 H 0.89954 0.74914 0.17492 0.0
H555 H 0.8777 0.68428 0.2111 0.0
H556 H 0.89861 0.68239 0.02227 0.0
H557 H 0.87887 0.68403 0.10585 0.0
H558 H 0.92872 0.7469 0.14941 0.0
H559 H 0.9478 0.74553 0.06405 0.0
C560 C 0.87985 0.73665 0.24873 0.0
C561 C 0.86759 0.71908 0.28265 0.0
C562 C 0.8909 0.73538 0.20101 0.0
C563 C 0.89035 0.71658 0.18628 0.0
C564 C 0.87827 0.69897 0.22069 0.0
C565 C 0.86687 0.70017 0.26828 0.0
C566 C 0.90516 0.69665 0.04936 0.0
C567 C 0.92462 0.71392 0.03643 0.0
C568 C 0.89398 0.6975 0.09774 0.0
C569 C 0.90219 0.71555 0.13474 0.0
C570 C 0.92167 0.73286 0.12137 0.0
C571 C 0.93266 0.73212 0.0724 0.0
H572 H 0.42508 0.21722 0.29959 0.0
H573 H 0.3726 0.16182 0.21959 0.0
H574 H 0.42598 0.23685 0.2116 0.0
H575 H 0.37387 0.18091 0.132 0.0
H576 H 0.36311 0.22752 0.02792 0.0
H577 H 0.36477 0.20684 0.10882 0.0
H578 H 0.43237 0.24095 0.1056 0.0
H579 H 0.43069 0.2619 0.02576 0.0
C580 C 0.41403 0.20923 0.26289 0.0
C581 C 0.39857 0.18819 0.26668 0.0
C582 C 0.41452 0.22036 0.21252 0.0
C583 C 0.39971 0.21048 0.16522 0.0
C584 C 0.38508 0.18915 0.16821 0.0
C585 C 0.38444 0.1782 0.21839 0.0
C586 C 0.37828 0.23034 0.04385 0.0
C587 C 0.39672 0.24633 0.02066 0.0
C588 C 0.37929 0.21852 0.09022 0.0
C589 C 0.39876 0.22237 0.11397 0.0
C590 C 0.41717 0.23786 0.0891 0.0
C591 C 0.41616 0.24971 0.04296 0.0
H592 H 0.94108 0.2793 0.19266 0.0
H593 H 0.91453 0.23509 0.33279 0.0
H594 H 0.92129 0.25141 0.11887 0.0
H595 H 0.89395 0.20737 0.25939 0.0
H596 H 0.87351 0.15779 0.11303 0.0
H597 H 0.89586 0.1858 0.18434 0.0
H598 H 0.88744 0.22977 0.0799 0.0
H599 H 0.86615 0.20219 0.0078 0.0
C600 C 0.93075 0.26367 0.2077 0.0
C601 C 0.92932 0.25939 0.26846 0.0
C602 C 0.91936 0.24765 0.16542 0.0
C603 C 0.90599 0.22706 0.18303 0.0
C604 C 0.90439 0.2229 0.24401 0.0
C605 C 0.91604 0.23885 0.28618 0.0
C606 C 0.87665 0.17349 0.10514 0.0
C607 C 0.8681 0.17774 0.05467 0.0
C608 C 0.88932 0.18954 0.14623 0.0
C609 C 0.89343 0.2101 0.13812 0.0
C610 C 0.885 0.21428 0.08722 0.0
C611 C 0.87265 0.19836 0.04586 0.0
H612 H 0.07169 0.65868 0.40223 0.0
H613 H 0.11423 0.69288 0.26354 0.0
H614 H 0.08238 0.6912 0.45752 0.0
H615 H 0.12478 0.72568 0.31927 0.0
H616 H 0.12151 0.77987 0.41389 0.0
H617 H 0.10703 0.74691 0.35723 0.0
H618 H 0.11819 0.71822 0.50829 0.0
H619 H 0.13305 0.75136 0.56514 0.0
C620 C 0.08322 0.67318 0.38327 0.0
C621 C 0.09229 0.67329 0.32875 0.0
C622 C 0.08935 0.69174 0.41513 0.0
C623 C 0.10444 0.71079 0.3927 0.0
C624 C 0.11303 0.71108 0.33722 0.0
C625 C 0.10709 0.6924 0.30555 0.0
C626 C 0.12066 0.76648 0.43536 0.0
C627 C 0.12853 0.76816 0.49381 0.0
C628 C 0.11251 0.74771 0.40272 0.0
C629 C 0.11176 0.73023 0.42833 0.0
C630 C 0.11865 0.73157 0.48772 0.0
C631 C 0.12712 0.75046 0.52016 0.0
H632 H 0.45255 0.49309 0.39057 0.0
H633 H 0.41914 0.44031 0.26899 0.0
H634 H 0.42008 0.48284 0.44324 0.0
H635 H 0.38708 0.42968 0.32136 0.0
H636 H 0.32898 0.41627 0.40637 0.0
H637 H 0.35993 0.43545 0.34821 0.0
H638 H 0.39853 0.4553 0.50945 0.0
H639 H 0.36699 0.43678 0.56822 0.0
C640 C 0.43805 0.47982 0.37373 0.0
C641 C 0.43812 0.46771 0.32508 0.0
C642 C 0.41956 0.47368 0.40449 0.0
C643 C 0.4009 0.45532 0.38701 0.0
C644 C 0.40093 0.44408 0.33584 0.0
C645 C 0.41931 0.45019 0.30544 0.0
C646 C 0.34406 0.42485 0.42955 0.0
C647 C 0.34564 0.42475 0.49179 0.0
C648 C 0.36185 0.43585 0.39611 0.0
C649 C 0.38186 0.44667 0.4238 0.0
C650 C 0.38339 0.44729 0.4865 0.0
C651 C 0.36539 0.43655 0.52024 0.0
H652 H 0.65651 0.94609 0.51647 0.0
H653 H 0.72011 0.99136 0.47552 0.0
H654 H 0.64394 0.96601 0.45924 0.0
H655 H 0.70772 0.01114 0.4196 0.0
H656 H 0.67777 0.05193 0.38539 0.0
H657 H 0.68924 0.0317 0.44333 0.0
H658 H 0.64481 0.97553 0.34564 0.0
H659 H 0.63333 0.99589 0.28694 0.0
C660 C 0.66774 0.9604 0.49602 0.0
C661 C 0.68923 0.96722 0.50021 0.0
C662 C 0.66059 0.97163 0.4629 0.0
C663 C 0.6749 0.99002 0.43483 0.0
C664 C 0.69638 -0.00293 0.44087 0.0
C665 C 0.70344 0.98573 0.47281 0.0
C666 C 0.67062 0.03531 0.37573 0.0
C667 C 0.65476 0.02548 0.3315 0.0
C668 C 0.67713 0.02374 0.40903 0.0
C669 C 0.66774 0.00205 0.39929 0.0
C670 C 0.65208 0.99221 0.35445 0.0
C671 C 0.64574 0.00388 0.32041 0.0
H672 H 0.66819 0.09509 0.09597 0.0
H673 H 0.70918 0.09247 0.23005 0.0
H674 H 0.69849 0.11755 0.03674 0.0
H675 H 0.73951 0.11513 0.17177 0.0
H676 H 0.7513 0.11185 0.9271 0.0
H677 H 0.72093 0.10496 0.98517 0.0
H678 H 0.76188 0.14957 0.12055 0.0
H679 H 0.79222 0.15661 0.06158 0.0
C680 C 0.68378 0.10024 0.1141 0.0
C681 C 0.68647 0.09241 0.16789 0.0
C682 C 0.70109 0.11289 0.07998 0.0
C683 C 0.72138 0.11803 0.09939 0.0
C684 C 0.72413 0.11169 0.15586 0.0
C685 C 0.70679 0.09878 0.18946 0.0
C686 C 0.75367 0.12097 0.96769 0.0
C687 C 0.77398 0.13501 0.98948 0.0
C688 C 0.73631 0.11699 0.00118 0.0
C689 C 0.73903 0.12663 0.05772 0.0
C690 C 0.75931 0.14189 0.07727 0.0
C691 C 0.77664 0.14609 0.04328 0.0
H692 H 0.96547 0.67727 0.07482 0.0
H693 H 0.99313 0.66998 0.91557 0.0
H694 H 0.97883 0.65823 0.13035 0.0
H695 H 0.00761 0.65166 0.97197 0.0
H696 H 0.02958 0.61643 0.08576 0.0
H697 H 0.00398 0.62258 0.03168 0.0
H698 H 0.01375 0.67001 0.16399 0.0
H699 H 0.03881 0.66361 0.21722 0.0
C700 C 0.97432 0.67138 0.05166 0.0
C701 C 0.97863 0.67532 0.99133 0.0
C702 C 0.98201 0.66051 0.08346 0.0
C703 C 0.99468 0.6538 0.05605 0.0
C704 C -0.00219 0.65651 0.99444 0.0
C705 C 0.98968 0.66709 0.96215 0.0
C706 C 0.02542 0.62746 0.10427 0.0
C707 C 0.03577 0.63935 0.15595 0.0
C708 C 0.01107 0.63123 0.07295 0.0
C709 C 0.00686 0.64686 0.09321 0.0
C710 C 0.01627 0.65762 0.14736 0.0
C711 C 0.03063 0.65397 0.17812 0.0
H712 H 0.43581 0.35628 0.93093 0.0
H713 H 0.40228 0.32444 0.08632 0.0
H714 H 0.45173 0.38959 0.98748 0.0
H715 H 0.41842 0.3576 0.14265 0.0
H716 H 0.47469 0.42017 0.22943 0.0
H717 H 0.45726 0.38588 0.17714 0.0
H718 H 0.43623 0.41101 0.03758 0.0
H719 H 0.45313 0.44483 0.08939 0.0
C720 C 0.43186 0.35642 0.97699 0.0
C721 C 0.41781 0.33786 0.0042 0.0
C722 C 0.44092 0.3754 0.00924 0.0
C723 C 0.43631 0.37599 0.06934 0.0
C724 C 0.42233 0.35744 0.09654 0.0
C725 C 0.41301 0.33855 0.0641 0.0
C726 C 0.46615 0.41823 0.18796 0.0
C727 C 0.46541 0.43516 0.16326 0.0
C728 C 0.45622 0.39871 0.15815 0.0
C729 C 0.44574 0.39606 0.10307 0.0
C730 C 0.44452 0.41282 0.07948 0.0
C731 C 0.45412 0.43212 0.10945 0.0
H732 H 0.96898 0.34887 0.44029 0.0
H733 H 0.99497 0.33123 0.58687 0.0
H734 H 0.97926 0.38215 0.49223 0.0
H735 H 0.00532 0.36436 0.63818 0.0
H736 H 0.01196 0.42124 0.73435 0.0
H737 H 0.99197 0.38619 0.68686 0.0
H738 H 0.0142 0.41273 0.51565 0.0
H739 H 0.03387 0.44723 0.56261 0.0
C740 C 0.97685 0.3521 0.48351 0.0
C741 C 0.98139 0.3376 0.50924 0.0
C742 C 0.98262 0.37104 0.51333 0.0
C743 C 0.99293 0.37573 0.56943 0.0
C744 C 0.99704 0.36101 0.59556 0.0
C745 C 0.99138 0.34217 0.56571 0.0
C746 C 0.01206 0.41948 0.6865 0.0
C747 C 0.02455 0.43673 0.65207 0.0
C748 C 0.00078 0.39953 0.6594 0.0
C749 C 0.00165 0.39678 0.5976 0.0
C750 C 0.01305 0.41434 0.56315 0.0
C751 C 0.02446 0.43407 0.59016 0.0
H752 H 0.71251 0.66274 0.73845 0.0
H753 H 0.6716 0.62125 0.59804 0.0
H754 H 0.74287 0.67165 0.67751 0.0
H755 H 0.70186 0.63061 0.5362 0.0
H756 H 0.79439 0.6814 0.55186 0.0
H757 H 0.76438 0.6577 0.61077 0.0
H758 H 0.72388 0.67053 0.50048 0.0
H759 H 0.75394 0.69471 0.4434 0.0
C760 C 0.71017 0.6547 0.69584 0.0
C761 C 0.68986 0.64105 0.67321 0.0
C762 C 0.72749 0.65986 0.66079 0.0
C763 C 0.72464 0.65187 0.60208 0.0
C764 C 0.70444 0.63689 0.58138 0.0
C765 C 0.68719 0.6314 0.61692 0.0
C766 C 0.7789 0.67846 0.53901 0.0
C767 C 0.77629 0.68956 0.4928 0.0
C768 C 0.76182 0.66506 0.57284 0.0
C769 C 0.74185 0.66223 0.55991 0.0
C770 C 0.73905 0.67217 0.51077 0.0
C771 C 0.75619 0.68596 0.47806 0.0
H772 H 0.40457 0.12837 0.61644 0.0
H773 H 0.44157 0.14467 0.45918 0.0
H774 H 0.42944 0.12097 0.66717 0.0
H775 H 0.46667 0.13724 0.51039 0.0
H776 H 0.47473 0.0822 0.58223 0.0
H777 H 0.45964 0.10155 0.53803 0.0
H778 H 0.46631 0.1334 0.70673 0.0
H779 H 0.48181 0.11387 0.7515 0.0
C780 C 0.41831 0.13082 0.59316 0.0
C781 C 0.42097 0.13674 0.53348 0.0
C782 C 0.43267 0.12677 0.62251 0.0
C783 C 0.44988 0.12834 0.5926 0.0
C784 C 0.4534 0.13575 0.53431 0.0
C785 C 0.43912 0.14007 0.50508 0.0
C786 C 0.4732 0.09347 0.60997 0.0
C787 C 0.47923 0.09638 0.67053 0.0
C788 C 0.46479 0.10478 0.58433 0.0
C789 C 0.46193 0.11911 0.61873 0.0
C790 C 0.46841 0.12246 0.67916 0.0
C791 C 0.47722 0.11131 0.70477 0.0
H792 H 0.34459 0.95151 0.96321 0.0
H793 H 0.37455 0.00863 0.06975 0.0
H794 H 0.37547 0.96516 0.90057 0.0
H795 H 0.40522 0.02209 0.00802 0.0
H796 H 0.42526 0.05 0.82497 0.0
H797 H 0.39651 0.02704 0.88691 0.0
H798 H 0.42347 0.9874 0.90818 0.0
H799 H 0.45274 0.0107 0.84557 0.0
C800 C 0.35823 0.96644 0.97526 0.0
C801 C 0.35733 0.979 0.02149 0.0
C802 C 0.37579 0.97429 0.93918 0.0
C803 C 0.39253 0.99473 0.94925 0.0
C804 C 0.39245 0.0063 -0.00067 0.0
C805 C 0.375 -0.00146 0.03496 0.0
C806 C 0.42484 0.0361 0.84141 0.0
C807 C 0.44133 0.03224 0.83077 0.0
C808 C 0.40843 0.02303 0.8771 0.0
C809 C 0.40805 0.00574 0.90309 0.0
C810 C 0.42352 0.00072 0.88869 0.0
C811 C 0.44012 0.01394 0.85259 0.0
H812 H 0.06223 0.41828 0.80731 0.0
H813 H 0.11263 0.48219 0.82572 0.0
H814 H 0.08395 0.40646 0.85592 0.0
H815 H 0.13469 0.47023 0.87474 0.0
H816 H 0.15141 0.43857 0.03281 0.0
H817 H 0.13395 0.45344 0.97381 0.0
H818 H 0.1156 0.40408 0.84068 0.0
H819 H 0.1326 0.38919 0.89932 0.0
C820 C 0.07814 0.42978 0.82089 0.0
C821 C 0.08576 0.45115 0.81272 0.0
C822 C 0.09061 0.423 0.84864 0.0
C823 C 0.111 0.43742 0.86937 0.0
C824 C 0.11895 0.4588 0.8596 0.0
C825 C 0.10646 0.46561 0.83096 0.0
C826 C 0.14368 0.43099 0.99085 0.0
C827 C 0.14317 0.4126 0.97104 0.0
C828 C 0.13387 0.43959 0.95687 0.0
C829 C 0.12336 0.42987 0.90272 0.0
C830 C 0.12335 0.41179 0.88251 0.0
C831 C 0.1331 0.40326 0.91622 0.0
H832 H 0.66899 0.66789 0.91492 0.0
H833 H 0.65121 0.69019 0.76067 0.0
H834 H 0.68351 0.70218 0.9635 0.0
H835 H 0.66599 0.72479 0.80974 0.0
H836 H 0.71708 0.78807 0.90143 0.0
H837 H 0.70212 0.75436 0.84817 0.0
H838 H 0.66761 0.7236 0.00316 0.0
H839 H 0.6825 0.75735 0.05655 0.0
C840 C 0.66832 0.68017 0.89117 0.0
C841 C 0.65887 0.67636 0.83409 0.0
C842 C 0.67649 0.69974 0.91925 0.0
C843 C 0.67561 0.71598 0.89061 0.0
C844 C 0.66682 0.71245 0.83269 0.0
C845 C 0.65838 0.69272 0.80472 0.0
C846 C 0.70623 0.77411 0.92406 0.0
C847 C 0.701 0.77526 0.98321 0.0
C848 C 0.6976 0.75489 0.89343 0.0
C849 C 0.68381 0.73646 0.92169 0.0
C850 C 0.67839 0.73762 0.98063 0.0
C851 C 0.68682 0.75689 0.01105 0.0
H852 H 0.72614 0.9905 0.77593 0.0
H853 H 0.76225 0.00825 0.61694 0.0
H854 H 0.75123 0.02358 0.82473 0.0
H855 H 0.7875 0.04177 0.66602 0.0
H856 H 0.79761 0.10625 0.74274 0.0
H857 H 0.78053 0.07138 0.69724 0.0
H858 H 0.7895 0.04677 0.86075 0.0
H859 H 0.80699 0.08206 0.90676 0.0
C860 C 0.73965 0.00144 0.75175 0.0
C861 C 0.74218 -0.00292 0.69246 0.0
C862 C 0.75411 0.02024 0.77993 0.0
C863 C 0.77121 0.03518 0.74905 0.0
C864 C 0.77435 0.03044 0.69061 0.0
C865 C 0.76 0.01136 0.66263 0.0
C866 C 0.79607 0.09346 0.76907 0.0
C867 C 0.80343 0.0968 0.82853 0.0
C868 C 0.78654 0.07354 0.74265 0.0
C869 C 0.78392 0.05648 0.77531 0.0
C870 C 0.79146 0.05976 0.83465 0.0
C871 C 0.80134 0.07985 0.86097 0.0
H872 H 0.08249 0.79007 0.59849 0.0
H873 H 0.12366 0.82146 0.75011 0.0
H874 H 0.05215 0.77854 0.66139 0.0
H875 H 0.09342 0.80949 0.81343 0.0
H876 H 0.00111 0.76034 0.79878 0.0
H877 H 0.03095 0.78773 0.74655 0.0
H878 H 0.07125 0.7673 0.82502 0.0
H879 H 0.04139 0.73953 0.87483 0.0
C880 C 0.08497 0.79563 0.64442 0.0
C881 C 0.10534 0.80688 0.66938 0.0
C882 C 0.06763 0.78889 0.6806 0.0
C883 C 0.07051 0.79296 0.74234 0.0
C884 C 0.09081 0.80619 0.76597 0.0
C885 C 0.10809 0.81323 0.72961 0.0
C886 C 0.01653 0.76225 0.8063 0.0
C887 C 0.01911 0.74803 0.84106 0.0
C888 C 0.0335 0.7778 0.77627 0.0
C889 C 0.05338 0.77969 0.78216 0.0
C890 C 0.05617 0.76639 0.82046 0.0
C891 C 0.03913 0.75051 0.84891 0.0
H892 H 0.29026 0.34236 0.68988 0.0
H893 H 0.34838 0.36075 0.60331 0.0
H894 H 0.29484 0.31683 0.74691 0.0
H895 H 0.35249 0.3347 0.65812 0.0
H896 H 0.35043 0.32326 0.89235 0.0
H897 H 0.32899 0.33131 0.82572 0.0
H898 H 0.33395 0.29326 0.68653 0.0
H899 H 0.35472 0.28459 0.75412 0.0
C900 C 0.30341 0.34013 0.68078 0.0
C901 C 0.31893 0.35336 0.64203 0.0
C902 C 0.30607 0.32565 0.71361 0.0
C903 C 0.32396 0.32379 0.7067 0.0
C904 C 0.33841 0.33563 0.66367 0.0
C905 C 0.33608 0.35052 0.63227 0.0
C906 C 0.34575 0.31556 0.84883 0.0
C907 C 0.35388 0.30308 0.82849 0.0
C908 C 0.33359 0.32023 0.81055 0.0
C909 C 0.32995 0.31297 0.75096 0.0
C910 C 0.33645 0.29892 0.73236 0.0
C911 C 0.34816 0.29383 0.77115 0.0
H912 H 0.00979 0.2833 0.3056 0.0
H913 H 0.04166 0.34696 0.3743 0.0
H914 H 0.03904 0.29184 0.23922 0.0
H915 H 0.0707 0.35529 0.30898 0.0
H916 H 0.08463 0.36549 0.10816 0.0
H917 H 0.05598 0.34524 0.17427 0.0
H918 H 0.09169 0.32008 0.25555 0.0
H919 H 0.12057 0.34032 0.18851 0.0
C920 C 0.02347 0.29878 0.30866 0.0
C921 C 0.02354 0.31449 0.34509 0.0
C922 C 0.04008 0.30367 0.27047 0.0
C923 C 0.05695 0.32422 0.26908 0.0
C924 C 0.05784 0.33933 0.30949 0.0
C925 C 0.04129 0.33454 0.34698 0.0
C926 C 0.08603 0.35494 0.13827 0.0
C927 C 0.10479 0.35446 0.14319 0.0
C928 C 0.06968 0.34343 0.17618 0.0
C929 C 0.07178 0.33127 0.21997 0.0
C930 C 0.08972 0.32924 0.22169 0.0
C931 C 0.10613 0.3407 0.18313 0.0
H932 H 0.80614 0.77035 0.39211 0.0
H933 H 0.82215 0.74673 0.23692 0.0
H934 H 0.7939 0.78884 0.32732 0.0
H935 H 0.81078 0.7655 0.17305 0.0
H936 H 0.75248 0.76619 0.0945 0.0
H937 H 0.7753 0.75728 0.15011 0.0
H938 H 0.80142 0.81584 0.25016 0.0
H939 H 0.77825 0.82472 0.19369 0.0
C940 C 0.80745 0.76951 0.34441 0.0
C941 C 0.81452 0.75672 0.31937 0.0
C942 C 0.80062 0.78017 0.30733 0.0
C943 C 0.80108 0.77833 0.24494 0.0
C944 C 0.80976 0.76685 0.22073 0.0
C945 C 0.81623 0.75606 0.2574 0.0
C946 C 0.76369 0.77751 0.12671 0.0
C947 C 0.76377 0.79617 0.13953 0.0
C948 C 0.77676 0.77242 0.15882 0.0
C949 C 0.79008 0.7858 0.20501 0.0
C950 C 0.79118 0.80516 0.21522 0.0
C951 C 0.77821 0.81039 0.1823 0.0
H952 H 0.31423 0.0167 0.10501 0.0
H953 H 0.31799 0.98949 0.26985 0.0
H954 H 0.32763 0.05063 0.15758 0.0
H955 H 0.33093 0.02304 0.32193 0.0
H956 H 0.3384 0.08533 0.39974 0.0
H957 H 0.31944 0.05098 0.34765 0.0
H958 H 0.36477 0.07376 0.20945 0.0
H959 H 0.38376 0.10748 0.26112 0.0
C960 C 0.31768 0.01794 0.15238 0.0
C961 C 0.31535 0.00064 0.18326 0.0
C962 C 0.32527 0.03723 0.18237 0.0
C963 C 0.33017 0.03928 0.24372 0.0
C964 C 0.32703 0.02177 0.27482 0.0
C965 C 0.31986 0.00267 0.24478 0.0
C966 C 0.34425 0.08288 0.35836 0.0
C967 C 0.36258 0.09899 0.33473 0.0
C968 C 0.33342 0.06337 0.32856 0.0
C969 C 0.34057 0.05998 0.27425 0.0
C970 C 0.35876 0.07614 0.25067 0.0
C971 C 0.36974 0.09536 0.28078 0.0
loop_
_geom_bond_atom_site_label_1
_geom_bond_atom_site_label_2
_geom_bond_distance
_geom_bond_site_symmetry_2
_ccdc_geom_bond_type
Co0 O1 2.216 . S
Co0 O2 2.091 . S
Co0 O4 2.004 . S
Co0 O10 2.021 . S
Co0 O12 2.137 . S
Co0 O13 2.244 . S
O1 Co0 2.216 . S
O1 C8 1.247 . S
O2 Co0 2.091 . S
O2 C8 1.261 . S
C3 O12 1.247 . S
C3 O13 1.272 . S
O4 Co0 2.004 . S
O4 C9 1.259 . S
Co5 O6 2.061 . S
Co5 O11 2.052 . S
Co5 O13 2.135 . S
O6 Co5 2.061 . S
O6 C9 1.235 . S
C7 O10 1.238 . S
C7 O11 1.241 . S
C8 O1 1.247 . S
C8 O2 1.261 . S
C9 O4 1.259 . S
C9 O6 1.235 . S
O10 Co0 2.021 . S
O10 C7 1.238 . S
O11 Co5 2.052 . S
O11 C7 1.241 . S
O12 Co0 2.137 . S
O12 C3 1.247 . S
O13 Co0 2.244 . S
O13 C3 1.272 . S
O13 Co5 2.135 . S
Co14 O15 2.216 . S
Co14 O16 2.091 . S
Co14 O18 2.004 . S
Co14 O24 2.021 . S
Co14 O26 2.137 . S
Co14 O27 2.244 . S
O15 Co14 2.216 . S
O15 C22 1.247 . S
O16 Co14 2.091 . S
O16 C22 1.261 . S
C17 O26 1.247 . S
C17 O27 1.272 . S
O18 Co14 2.004 . S
O18 C23 1.259 . S
Co19 O20 2.061 . S
Co19 O25 2.052 . S
Co19 O27 2.135 . S
O20 Co19 2.061 . S
O20 C23 1.235 . S
C21 O24 1.238 . S
C21 O25 1.241 . S
C22 O15 1.247 . S
C22 O16 1.261 . S
C23 O18 1.259 . S
C23 O20 1.235 . S
O24 Co14 2.021 . S
O24 C21 1.238 . S
O25 Co19 2.052 . S
O25 C21 1.241 . S
O26 Co14 2.137 . S
O26 C17 1.247 . S
O27 Co14 2.244 . S
O27 C17 1.272 . S
O27 Co19 2.135 . S
Co28 O29 2.216 . S
Co28 O30 2.091 . S
Co28 O32 2.004 . S
Co28 O38 2.021 . S
Co28 O40 2.137 . S
Co28 O41 2.244 . S
O29 Co28 2.216 . S
O29 C36 1.247 . S
O30 Co28 2.091 . S
O30 C36 1.261 . S
C31 O40 1.247 . S
C31 O41 1.272 . S
O32 Co28 2.004 . S
O32 C37 1.259 . S
Co33 O34 2.061 . S
Co33 O39 2.052 . S
Co33 O41 2.135 . S
O34 Co33 2.061 . S
O34 C37 1.235 . S
C35 O38 1.238 . S
C35 O39 1.241 . S
C36 O29 1.247 . S
C36 O30 1.261 . S
C37 O32 1.259 . S
C37 O34 1.235 . S
O38 Co28 2.021 . S
O38 C35 1.238 . S
O39 Co33 2.052 . S
O39 C35 1.241 . S
O40 Co28 2.137 . S
O40 C31 1.247 . S
O41 Co28 2.244 . S
O41 C31 1.272 . S
O41 Co33 2.135 . S
Co42 O43 2.216 . S
Co42 O44 2.091 . S
Co42 O46 2.004 . S
Co42 O52 2.021 . S
Co42 O54 2.137 . S
Co42 O55 2.244 . S
O43 Co42 2.216 . S
O43 C50 1.247 . S
O44 Co42 2.091 . S
O44 C50 1.261 . S
C45 O54 1.247 . S
C45 O55 1.272 . S
O46 Co42 2.004 . S
O46 C51 1.259 . S
Co47 O48 2.061 . S
Co47 O53 2.052 . S
Co47 O55 2.135 . S
O48 Co47 2.061 . S
O48 C51 1.235 . S
C49 O52 1.238 . S
C49 O53 1.241 . S
C50 O43 1.247 . S
C50 O44 1.261 . S
C51 O46 1.259 . S
C51 O48 1.235 . S
O52 Co42 2.021 . S
O52 C49 1.238 . S
O53 Co47 2.052 . S
O53 C49 1.241 . S
O54 Co42 2.137 . S
O54 C45 1.247 . S
O55 Co42 2.244 . S
O55 C45 1.272 . S
O55 Co47 2.135 . S
Co56 O57 2.216 . S
Co56 O58 2.091 . S
Co56 O60 2.004 . S
Co56 O66 2.021 . S
Co56 O68 2.137 . S
Co56 O69 2.244 . S
O57 Co56 2.216 . S
O57 C64 1.247 . S
O58 Co56 2.091 . S
O58 C64 1.261 . S
C59 O68 1.247 . S
C59 O69 1.272 . S
O60 Co56 2.004 . S
O60 C65 1.259 . S
Co61 O62 2.061 . S
Co61 O67 2.052 . S
Co61 O69 2.135 . S
O62 Co61 2.061 . S
O62 C65 1.235 . S
C63 O66 1.238 . S
C63 O67 1.241 . S
C64 O57 1.247 . S
C64 O58 1.261 . S
C65 O60 1.259 . S
C65 O62 1.235 . S
O66 Co56 2.021 . S
O66 C63 1.238 . S
O67 Co61 2.052 . S
O67 C63 1.241 . S
O68 Co56 2.137 . S
O68 C59 1.247 . S
O69 Co56 2.244 . S
O69 C59 1.272 . S
O69 Co61 2.135 . S
Co70 O71 2.216 . S
Co70 O72 2.091 . S
Co70 O74 2.004 . S
Co70 O80 2.021 . S
Co70 O82 2.137 . S
Co70 O83 2.244 . S
O71 Co70 2.216 . S
O71 C78 1.247 . S
O72 Co70 2.091 . S
O72 C78 1.261 . S
C73 O82 1.247 . S
C73 O83 1.272 . S
O74 Co70 2.004 . S
O74 C79 1.259 . S
Co75 O76 2.061 . S
Co75 O81 2.052 . S
Co75 O83 2.135 . S
O76 Co75 2.061 . S
O76 C79 1.235 . S
C77 O80 1.238 . S
C77 O81 1.241 . S
C78 O71 1.247 . S
C78 O72 1.261 . S
C79 O74 1.259 . S
C79 O76 1.235 . S
O80 Co70 2.021 . S
O80 C77 1.238 . S
O81 Co75 2.052 . S
O81 C77 1.241 . S
O82 Co70 2.137 . S
O82 C73 1.247 . S
O83 Co70 2.244 . S
O83 C73 1.272 . S
O83 Co75 2.135 . S
Co84 O85 2.216 . S
Co84 O86 2.091 . S
Co84 O88 2.004 . S
Co84 O94 2.021 . S
Co84 O96 2.137 . S
Co84 O97 2.244 . S
O85 Co84 2.216 . S
O85 C92 1.247 . S
O86 Co84 2.091 . S
O86 C92 1.261 . S
C87 O96 1.247 . S
C87 O97 1.272 . S
O88 Co84 2.004 . S
O88 C93 1.259 . S
Co89 O90 2.061 . S
Co89 O95 2.052 . S
Co89 O97 2.135 . S
O90 Co89 2.061 . S
O90 C93 1.235 . S
C91 O94 1.238 . S
C91 O95 1.241 . S
C92 O85 1.247 . S
C92 O86 1.261 . S
C93 O88 1.259 . S
C93 O90 1.235 . S
O94 Co84 2.021 . S
O94 C91 1.238 . S
O95 Co89 2.052 . S
O95 C91 1.241 . S
O96 Co84 2.137 . S
O96 C87 1.247 . S
O97 Co84 2.244 . S
O97 C87 1.272 . S
O97 Co89 2.135 . S
Co98 O99 2.216 . S
Co98 O100 2.091 . S
Co98 O102 2.004 . S
Co98 O108 2.021 . S
Co98 O110 2.137 . S
Co98 O111 2.244 . S
O99 Co98 2.216 . S
O99 C106 1.247 . S
O100 Co98 2.091 . S
O100 C106 1.261 . S
C101 O110 1.247 . S
C101 O111 1.272 . S
O102 Co98 2.004 . S
O102 C107 1.259 . S
Co103 O104 2.061 . S
Co103 O109 2.052 . S
Co103 O111 2.135 . S
O104 Co103 2.061 . S
O104 C107 1.235 . S
C105 O108 1.238 . S
C105 O109 1.241 . S
C106 O99 1.247 . S
C106 O100 1.261 . S
C107 O102 1.259 . S
C107 O104 1.235 . S
O108 Co98 2.021 . S
O108 C105 1.238 . S
O109 Co103 2.052 . S
O109 C105 1.241 . S
O110 Co98 2.137 . S
O110 C101 1.247 . S
O111 Co98 2.244 . S
O111 C101 1.272 . S
O111 Co103 2.135 . S
Co112 O113 2.216 . S
Co112 O114 2.091 . S
Co112 O116 2.004 . S
Co112 O122 2.021 . S
Co112 O124 2.137 . S
Co112 O125 2.244 . S
O113 Co112 2.216 . S
O113 C120 1.247 . S
O114 Co112 2.091 . S
O114 C120 1.261 . S
C115 O124 1.247 . S
C115 O125 1.272 . S
O116 Co112 2.004 . S
O116 C121 1.259 . S
Co117 O118 2.061 . S
Co117 O123 2.052 . S
Co117 O125 2.135 . S
O118 Co117 2.061 . S
O118 C121 1.235 . S
C119 O122 1.238 . S
C119 O123 1.241 . S
C120 O113 1.247 . S
C120 O114 1.261 . S
C121 O116 1.259 . S
C121 O118 1.235 . S
O122 Co112 2.021 . S
O122 C119 1.238 . S
O123 Co117 2.052 . S
O123 C119 1.241 . S
O124 Co112 2.137 . S
O124 C115 1.247 . S
O125 Co112 2.244 . S
O125 C115 1.272 . S
O125 Co117 2.135 . S
Co126 O127 2.214 1_554 S
Co126 O128 2.091 1_554 S
Co126 O130 2.004 . S
Co126 O136 2.021 . S
Co126 O138 2.137 1_554 S
Co126 O139 2.244 . S
O127 Co126 2.214 1_556 S
O127 C134 1.248 . S
O128 Co126 2.091 1_556 S
O128 C134 1.261 . S
C129 O138 1.247 1_554 S
C129 O139 1.272 . S
O130 Co126 2.004 . S
O130 C135 1.259 . S
Co131 O132 2.061 . S
Co131 O137 2.052 . S
Co131 O139 2.135 . S
O132 Co131 2.061 . S
O132 C135 1.235 . S
C133 O136 1.238 . S
C133 O137 1.241 . S
C134 O127 1.248 . S
C134 O128 1.261 . S
C135 O130 1.259 . S
C135 O132 1.235 . S
O136 Co126 2.021 . S
O136 C133 1.238 . S
O137 Co131 2.052 . S
O137 C133 1.241 . S
O138 Co126 2.137 1_556 S
O138 C129 1.247 1_556 S
O139 Co126 2.244 . S
O139 C129 1.272 . S
O139 Co131 2.135 . S
Co140 O141 2.216 . S
Co140 O142 2.091 . S
Co140 O144 2.004 . S
Co140 O150 2.021 . S
Co140 O152 2.137 . S
Co140 O153 2.244 . S
O141 Co140 2.216 . S
O141 C148 1.247 . S
O142 Co140 2.091 . S
O142 C148 1.261 . S
C143 O152 1.247 . S
C143 O153 1.272 . S
O144 Co140 2.004 . S
O144 C149 1.259 . S
Co145 O146 2.061 1_556 S
Co145 O151 2.052 . S
Co145 O153 2.135 1_556 S
O146 Co145 2.061 1_554 S
O146 C149 1.235 . S
C147 O150 1.238 1_556 S
C147 O151 1.241 . S
C148 O141 1.247 . S
C148 O142 1.261 . S
C149 O144 1.259 . S
C149 O146 1.235 . S
O150 Co140 2.021 . S
O150 C147 1.238 1_554 S
O151 Co145 2.052 . S
O151 C147 1.241 . S
O152 Co140 2.137 . S
O152 C143 1.247 . S
O153 Co140 2.244 . S
O153 C143 1.272 . S
O153 Co145 2.135 1_554 S
Co154 O155 2.216 . S
Co154 O156 2.091 1_554 S
Co154 O158 2.004 . S
Co154 O164 2.021 . S
Co154 O166 2.137 1_554 S
Co154 O167 2.244 . S
O155 Co154 2.216 . S
O155 C162 1.247 1_554 S
O156 Co154 2.091 1_556 S
O156 C162 1.261 . S
C157 O166 1.247 1_554 S
C157 O167 1.272 . S
O158 Co154 2.004 . S
O158 C163 1.259 . S
Co159 O160 2.061 . S
Co159 O165 2.052 . S
Co159 O167 2.135 . S
O160 Co159 2.061 . S
O160 C163 1.235 . S
C161 O164 1.238 . S
C161 O165 1.241 . S
C162 O155 1.247 1_556 S
C162 O156 1.261 . S
C163 O158 1.259 . S
C163 O160 1.235 . S
O164 Co154 2.021 . S
O164 C161 1.238 . S
O165 Co159 2.052 . S
O165 C161 1.241 . S
O166 Co154 2.137 1_556 S
O166 C157 1.247 1_556 S
O167 Co154 2.244 . S
O167 C157 1.272 . S
O167 Co159 2.135 . S
Co168 O169 2.216 . S
Co168 O170 2.091 . S
Co168 O172 2.004 . S
Co168 O178 2.021 . S
Co168 O180 2.137 1_556 S
Co168 O181 2.244 . S
O169 Co168 2.216 . S
O169 C176 1.247 1_556 S
O170 Co168 2.091 . S
O170 C176 1.261 1_556 S
C171 O180 1.247 1_556 S
C171 O181 1.272 . S
O172 Co168 2.004 . S
O172 C177 1.259 . S
Co173 O174 2.061 . S
Co173 O179 2.052 . S
Co173 O181 2.135 . S
O174 Co173 2.061 . S
O174 C177 1.235 . S
C175 O178 1.238 . S
C175 O179 1.241 . S
C176 O169 1.247 1_554 S
C176 O170 1.261 1_554 S
C177 O172 1.259 . S
C177 O174 1.235 . S
O178 Co168 2.021 . S
O178 C175 1.238 . S
O179 Co173 2.052 . S
O179 C175 1.241 . S
O180 Co168 2.137 1_554 S
O180 C171 1.247 1_554 S
O181 Co168 2.244 . S
O181 C171 1.272 . S
O181 Co173 2.135 . S
Co182 O183 2.216 . S
Co182 O184 2.091 . S
Co182 O186 2.004 . S
Co182 O192 2.021 . S
Co182 O194 2.137 . S
Co182 O195 2.244 . S
O183 Co182 2.216 . S
O183 C190 1.247 . S
O184 Co182 2.091 . S
O184 C190 1.261 . S
C185 O194 1.247 . S
C185 O195 1.272 . S
O186 Co182 2.004 . S
O186 C191 1.259 . S
Co187 O188 2.061 . S
Co187 O193 2.052 . S
Co187 O195 2.135 1_554 S
O188 Co187 2.061 . S
O188 C191 1.235 1_554 S
C189 O192 1.238 1_554 S
C189 O193 1.241 . S
C190 O183 1.247 . S
C190 O184 1.261 . S
C191 O186 1.259 . S
C191 O188 1.235 1_556 S
O192 Co182 2.021 . S
O192 C189 1.238 1_556 S
O193 Co187 2.052 . S
O193 C189 1.241 . S
O194 Co182 2.137 . S
O194 C185 1.247 . S
O195 Co182 2.244 . S
O195 C185 1.272 . S
O195 Co187 2.135 1_556 S
Co196 O197 2.216 . S
Co196 O198 2.091 . S
Co196 O200 2.004 . S
Co196 O206 2.021 . S
Co196 O208 2.137 . S
Co196 O209 2.244 . S
O197 Co196 2.216 . S
O197 C204 1.247 1_556 S
O198 Co196 2.091 . S
O198 C204 1.261 1_556 S
C199 O208 1.247 . S
C199 O209 1.272 . S
O200 Co196 2.004 . S
O200 C205 1.242 1_655 S
Co201 O202 2.061 . S
Co201 O207 2.052 . S
Co201 O209 2.135 . S
O202 Co201 2.061 . S
O202 C205 1.238 1_655 S
C203 O206 1.238 . S
C203 O207 1.241 . S
C204 O197 1.247 1_554 S
C204 O198 1.261 1_554 S
C205 O200 1.242 1_455 S
C205 O202 1.238 1_455 S
O206 Co196 2.021 . S
O206 C203 1.238 . S
O207 Co201 2.052 . S
O207 C203 1.241 . S
O208 Co196 2.137 . S
O208 C199 1.247 . S
O209 Co196 2.244 . S
O209 C199 1.272 . S
O209 Co201 2.135 . S
Co210 O211 2.216 . S
Co210 O212 2.091 . S
Co210 O214 2.004 . S
Co210 O220 2.021 . S
Co210 O222 2.137 . S
Co210 O223 2.244 . S
O211 Co210 2.216 . S
O211 C218 1.247 . S
O212 Co210 2.091 . S
O212 C218 1.261 . S
C213 O222 1.247 . S
C213 O223 1.272 . S
O214 Co210 2.004 . S
O214 C219 1.259 . S
Co215 O216 2.061 . S
Co215 O221 2.052 . S
Co215 O223 2.135 . S
O216 Co215 2.061 . S
O216 C219 1.235 . S
C217 O220 1.238 . S
C217 O221 1.241 . S
C218 O211 1.247 . S
C218 O212 1.261 . S
C219 O214 1.259 . S
C219 O216 1.235 . S
O220 Co210 2.021 . S
O220 C217 1.238 . S
O221 Co215 2.052 . S
O221 C217 1.241 . S
O222 Co210 2.137 . S
O222 C213 1.247 . S
O223 Co210 2.244 . S
O223 C213 1.272 . S
O223 Co215 2.135 . S
Co224 O225 2.216 . S
Co224 O226 2.091 . S
Co224 O228 2.004 . S
Co224 O234 2.021 . S
Co224 O236 2.137 . S
Co224 O237 2.244 . S
O225 Co224 2.216 . S
O225 C232 1.247 . S
O226 Co224 2.091 . S
O226 C232 1.261 . S
C227 O236 1.247 . S
C227 O237 1.272 . S
O228 Co224 2.004 . S
O228 C233 1.259 1_655 S
Co229 O230 2.061 . S
Co229 O235 2.052 . S
Co229 O237 2.135 . S
O230 Co229 2.061 . S
O230 C233 1.235 1_655 S
C231 O234 1.238 . S
C231 O235 1.241 . S
C232 O225 1.247 . S
C232 O226 1.261 . S
C233 O228 1.259 1_455 S
C233 O230 1.235 1_455 S
O234 Co224 2.021 . S
O234 C231 1.238 . S
O235 Co229 2.052 . S
O235 C231 1.241 . S
O236 Co224 2.137 . S
O236 C227 1.247 . S
O237 Co224 2.244 . S
O237 C227 1.272 . S
O237 Co229 2.135 . S
Co238 O239 2.216 . S
Co238 O240 2.091 . S
Co238 O242 2.004 . S
Co238 O248 2.021 . S
Co238 O250 2.137 . S
Co238 O251 2.244 . S
O239 Co238 2.216 . S
O239 C246 1.247 . S
O240 Co238 2.091 . S
O240 C246 1.261 . S
C241 O250 1.247 . S
C241 O251 1.272 . S
O242 Co238 2.004 . S
O242 C247 1.259 . S
Co243 O244 2.061 . S
Co243 O249 2.052 . S
Co243 O251 2.135 . S
O244 Co243 2.061 . S
O244 C247 1.235 . S
C245 O248 1.238 . S
C245 O249 1.241 . S
C246 O239 1.247 . S
C246 O240 1.261 . S
C247 O242 1.259 . S
C247 O244 1.235 . S
O248 Co238 2.021 . S
O248 C245 1.238 . S
O249 Co243 2.052 . S
O249 C245 1.241 . S
O250 Co238 2.137 . S
O250 C241 1.247 . S
O251 Co238 2.244 . S
O251 C241 1.272 . S
O251 Co243 2.135 . S
H252 C260 0.950 . S
H253 C265 0.950 . S
H254 C262 0.950 . S
H255 C264 0.950 . S
H256 C266 0.950 . S
H257 C268 0.950 . S
H258 C270 0.948 1_556 S
H259 C271 0.950 . S
C260 H252 0.950 . S
C260 C261 1.386 . S
C260 C262 1.391 . S
C261 C260 1.386 . S
C261 C265 1.393 . S
C262 H254 0.950 . S
C262 C260 1.391 . S
C262 C263 1.400 . S
C263 C262 1.400 . S
C263 C264 1.398 . S
C263 C269 1.491 1_556 S
C264 H255 0.950 . S
C264 C263 1.398 . S
C264 C265 1.391 . S
C265 H253 0.950 . S
C265 C261 1.393 . S
C265 C264 1.391 . S
C266 H256 0.950 . S
C266 C267 1.386 . S
C266 C268 1.391 . S
C267 C266 1.386 . S
C267 C271 1.393 . S
C268 H257 0.950 . S
C268 C266 1.391 . S
C268 C269 1.400 . S
C269 C263 1.491 1_554 S
C269 C268 1.400 . S
C269 C270 1.398 . S
C270 H258 0.948 1_554 S
C270 C269 1.398 . S
C270 C271 1.391 . S
C271 H259 0.950 . S
C271 C267 1.393 . S
C271 C270 1.391 . S
H272 C280 0.950 . S
H273 C285 0.950 . S
H274 C282 0.950 . S
H275 C284 0.950 . S
H276 C286 0.950 . S
H277 C288 0.950 . S
H278 C290 0.950 . S
H279 C291 0.950 . S
C280 H272 0.950 . S
C280 C281 1.386 . S
C280 C282 1.391 . S
C281 C280 1.386 . S
C281 C285 1.393 . S
C282 H274 0.950 . S
C282 C280 1.391 . S
C282 C283 1.400 . S
C283 C282 1.400 . S
C283 C284 1.398 . S
C283 C289 1.491 1_556 S
C284 H275 0.950 . S
C284 C283 1.398 . S
C284 C285 1.391 . S
C285 H273 0.950 . S
C285 C281 1.393 . S
C285 C284 1.391 . S
C286 H276 0.950 . S
C286 C287 1.386 . S
C286 C288 1.391 . S
C287 C286 1.386 . S
C287 C291 1.393 . S
C288 H277 0.950 . S
C288 C286 1.391 . S
C288 C289 1.400 . S
C289 C283 1.491 1_554 S
C289 C288 1.400 . S
C289 C290 1.398 . S
C290 H278 0.950 . S
C290 C289 1.398 . S
C290 C291 1.391 . S
C291 H279 0.950 . S
C291 C287 1.393 . S
C291 C290 1.391 . S
H292 C300 0.950 . S
H293 C305 0.950 . S
H294 C302 0.950 . S
H295 C304 0.950 . S
H296 C306 0.950 . S
H297 C308 0.950 1_554 S
H298 C310 0.950 . S
H299 C311 0.950 . S
C300 H292 0.950 . S
C300 C301 1.386 . S
C300 C302 1.391 . S
C301 C300 1.386 . S
C301 C305 1.393 . S
C302 H294 0.950 . S
C302 C300 1.391 . S
C302 C303 1.400 . S
C303 C302 1.400 . S
C303 C304 1.398 . S
C303 C309 1.491 1_554 S
C304 H295 0.950 . S
C304 C303 1.398 . S
C304 C305 1.391 . S
C305 H293 0.950 . S
C305 C301 1.393 . S
C305 C304 1.391 . S
C306 H296 0.950 . S
C306 C307 1.386 . S
C306 C308 1.391 . S
C307 C306 1.386 . S
C307 C311 1.393 . S
C308 H297 0.950 1_556 S
C308 C306 1.391 . S
C308 C309 1.400 . S
C309 C303 1.491 1_556 S
C309 C308 1.400 . S
C309 C310 1.398 . S
C310 H298 0.950 . S
C310 C309 1.398 . S
C310 C311 1.391 . S
C311 H299 0.950 . S
C311 C307 1.393 . S
C311 C310 1.391 . S
H312 C320 0.950 . S
H313 C325 0.950 . S
H314 C322 0.950 . S
H315 C324 0.950 . S
H316 C326 0.950 . S
H317 C328 0.950 . S
H318 C330 0.950 . S
H319 C331 0.950 . S
C320 H312 0.950 . S
C320 C321 1.386 . S
C320 C322 1.391 . S
C321 C320 1.386 . S
C321 C325 1.393 . S
C322 H314 0.950 . S
C322 C320 1.391 . S
C322 C323 1.400 . S
C323 C322 1.400 . S
C323 C324 1.398 . S
C323 C329 1.491 . S
C324 H315 0.950 . S
C324 C323 1.398 . S
C324 C325 1.391 . S
C325 H313 0.950 . S
C325 C321 1.393 . S
C325 C324 1.391 . S
C326 H316 0.950 . S
C326 C327 1.386 . S
C326 C328 1.391 . S
C327 C326 1.386 . S
C327 C331 1.393 . S
C328 H317 0.950 . S
C328 C326 1.391 . S
C328 C329 1.400 . S
C329 C323 1.491 . S
C329 C328 1.400 . S
C329 C330 1.398 . S
C330 H318 0.950 . S
C330 C329 1.398 . S
C330 C331 1.391 . S
C331 H319 0.950 . S
C331 C327 1.393 . S
C331 C330 1.391 . S
H332 C340 0.950 . S
H333 C345 0.950 . S
H334 C342 0.950 . S
H335 C344 0.950 . S
H336 C346 0.950 . S
H337 C348 0.950 . S
H338 C350 0.950 . S
H339 C351 0.950 . S
C340 H332 0.950 . S
C340 C341 1.386 . S
C340 C342 1.391 . S
C341 C340 1.386 . S
C341 C345 1.393 . S
C342 H334 0.950 . S
C342 C340 1.391 . S
C342 C343 1.400 . S
C343 C342 1.400 . S
C343 C344 1.398 . S
C343 C349 1.491 . S
C344 H335 0.950 . S
C344 C343 1.398 . S
C344 C345 1.391 . S
C345 H333 0.950 . S
C345 C341 1.393 . S
C345 C344 1.391 . S
C346 H336 0.950 . S
C346 C347 1.386 . S
C346 C348 1.391 . S
C347 C346 1.386 . S
C347 C351 1.393 . S
C348 H337 0.950 . S
C348 C346 1.391 . S
C348 C349 1.400 . S
C349 C343 1.491 . S
C349 C348 1.400 . S
C349 C350 1.398 . S
C350 H338 0.950 . S
C350 C349 1.398 . S
C350 C351 1.391 . S
C351 H339 0.950 . S
C351 C347 1.393 . S
C351 C350 1.391 . S
H352 C360 0.950 . S
H353 C365 0.950 . S
H354 C362 0.950 . S
H355 C364 0.950 . S
H356 C366 0.950 . S
H357 C368 0.950 . S
H358 C370 0.950 . S
H359 C371 0.950 . S
C360 H352 0.950 . S
C360 C361 1.386 . S
C360 C362 1.391 . S
C361 C360 1.386 . S
C361 C365 1.393 . S
C362 H354 0.950 . S
C362 C360 1.391 . S
C362 C363 1.400 . S
C363 C362 1.400 . S
C363 C364 1.398 . S
C363 C369 1.491 . S
C364 H355 0.950 . S
C364 C363 1.398 . S
C364 C365 1.391 . S
C365 H353 0.950 . S
C365 C361 1.393 . S
C365 C364 1.391 . S
C366 H356 0.950 . S
C366 C367 1.386 . S
C366 C368 1.391 . S
C367 C366 1.386 . S
C367 C371 1.393 . S
C368 H357 0.950 . S
C368 C366 1.391 . S
C368 C369 1.400 . S
C369 C363 1.491 . S
C369 C368 1.400 . S
C369 C370 1.398 . S
C370 H358 0.950 . S
C370 C369 1.398 . S
C370 C371 1.391 . S
C371 H359 0.950 . S
C371 C367 1.393 . S
C371 C370 1.391 . S
H372 C380 0.950 . S
H373 C385 0.950 . S
H374 C382 0.950 . S
H375 C384 0.950 . S
H376 C386 0.950 . S
H377 C388 0.950 . S
H378 C390 0.950 . S
H379 C391 0.950 . S
C380 H372 0.950 . S
C380 C381 1.386 . S
C380 C382 1.391 . S
C381 C380 1.386 . S
C381 C385 1.393 . S
C382 H374 0.950 . S
C382 C380 1.391 . S
C382 C383 1.400 . S
C383 C382 1.400 . S
C383 C384 1.398 . S
C383 C389 1.491 . S
C384 H375 0.950 . S
C384 C383 1.398 . S
C384 C385 1.391 . S
C385 H373 0.950 . S
C385 C381 1.393 . S
C385 C384 1.391 . S
C386 H376 0.950 . S
C386 C387 1.386 . S
C386 C388 1.391 . S
C387 C386 1.386 . S
C387 C391 1.393 . S
C388 H377 0.950 . S
C388 C386 1.391 . S
C388 C389 1.400 . S
C389 C383 1.491 . S
C389 C388 1.400 . S
C389 C390 1.398 . S
C390 H378 0.950 . S
C390 C389 1.398 . S
C390 C391 1.391 . S
C391 H379 0.950 . S
C391 C387 1.393 . S
C391 C390 1.391 . S
H392 C400 0.950 . S
H393 C405 0.950 . S
H394 C402 0.950 . S
H395 C404 0.950 . S
H396 C406 0.950 . S
H397 C408 0.950 . S
H398 C410 0.950 . S
H399 C411 0.950 . S
C400 H392 0.950 . S
C400 C401 1.386 . S
C400 C402 1.391 . S
C401 C400 1.386 . S
C401 C405 1.393 . S
C402 H394 0.950 . S
C402 C400 1.391 . S
C402 C403 1.400 . S
C403 C402 1.400 . S
C403 C404 1.398 . S
C403 C409 1.491 . S
C404 H395 0.950 . S
C404 C403 1.398 . S
C404 C405 1.391 . S
C405 H393 0.950 . S
C405 C401 1.393 . S
C405 C404 1.391 . S
C406 H396 0.950 . S
C406 C407 1.386 . S
C406 C408 1.391 . S
C407 C406 1.386 . S
C407 C411 1.393 . S
C408 H397 0.950 . S
C408 C406 1.391 . S
C408 C409 1.400 . S
C409 C403 1.491 . S
C409 C408 1.400 . S
C409 C410 1.398 . S
C410 H398 0.950 . S
C410 C409 1.398 . S
C410 C411 1.391 . S
C411 H399 0.950 . S
C411 C407 1.393 . S
C411 C410 1.391 . S
H412 C420 0.950 . S
H413 C425 0.950 . S
H414 C422 0.950 . S
H415 C424 0.950 . S
H416 C426 0.950 . S
H417 C428 0.950 . S
H418 C430 0.950 . S
H419 C431 0.950 . S
C420 H412 0.950 . S
C420 C421 1.386 . S
C420 C422 1.391 . S
C421 C420 1.386 . S
C421 C425 1.393 . S
C422 H414 0.950 . S
C422 C420 1.391 . S
C422 C423 1.400 . S
C423 C422 1.400 . S
C423 C424 1.398 . S
C423 C429 1.491 . S
C424 H415 0.950 . S
C424 C423 1.398 . S
C424 C425 1.391 . S
C425 H413 0.950 . S
C425 C421 1.393 . S
C425 C424 1.391 . S
C426 H416 0.950 . S
C426 C427 1.386 . S
C426 C428 1.391 . S
C427 C426 1.386 . S
C427 C431 1.393 . S
C428 H417 0.950 . S
C428 C426 1.391 . S
C428 C429 1.400 . S
C429 C423 1.491 . S
C429 C428 1.400 . S
C429 C430 1.398 . S
C430 H418 0.950 . S
C430 C429 1.398 . S
C430 C431 1.391 . S
C431 H419 0.950 . S
C431 C427 1.393 . S
C431 C430 1.391 . S
H432 C440 0.950 . S
H433 C445 0.950 . S
H434 C442 0.950 . S
H435 C444 0.950 . S
H436 C446 0.950 . S
H437 C448 0.950 . S
H438 C450 0.950 . S
H439 C451 0.950 . S
C440 H432 0.950 . S
C440 C441 1.386 . S
C440 C442 1.391 . S
C441 C440 1.386 . S
C441 C445 1.393 . S
C442 H434 0.950 . S
C442 C440 1.391 . S
C442 C443 1.400 . S
C443 C442 1.400 . S
C443 C444 1.398 . S
C443 C449 1.491 . S
C444 H435 0.950 . S
C444 C443 1.398 . S
C444 C445 1.391 . S
C445 H433 0.950 . S
C445 C441 1.393 . S
C445 C444 1.391 . S
C446 H436 0.950 . S
C446 C447 1.386 . S
C446 C448 1.391 . S
C447 C446 1.386 . S
C447 C451 1.393 . S
C448 H437 0.950 . S
C448 C446 1.391 . S
C448 C449 1.400 . S
C449 C443 1.491 . S
C449 C448 1.400 . S
C449 C450 1.398 . S
C450 H438 0.950 . S
C450 C449 1.398 . S
C450 C451 1.391 . S
C451 H439 0.950 . S
C451 C447 1.393 . S
C451 C450 1.391 . S
H452 C460 0.950 . S
H453 C465 0.950 . S
H454 C462 0.950 . S
H455 C464 0.950 . S
H456 C466 0.950 . S
H457 C468 0.950 . S
H458 C470 0.950 . S
H459 C471 0.950 . S
C460 H452 0.950 . S
C460 C461 1.386 . S
C460 C462 1.391 . S
C461 C460 1.386 . S
C461 C465 1.393 . S
C462 H454 0.950 . S
C462 C460 1.391 . S
C462 C463 1.400 . S
C463 C462 1.400 . S
C463 C464 1.398 . S
C463 C469 1.491 . S
C464 H455 0.950 . S
C464 C463 1.398 . S
C464 C465 1.391 . S
C465 H453 0.950 . S
C465 C461 1.393 . S
C465 C464 1.391 . S
C466 H456 0.950 . S
C466 C467 1.386 . S
C466 C468 1.391 . S
C467 C466 1.386 . S
C467 C471 1.393 . S
C468 H457 0.950 . S
C468 C466 1.391 . S
C468 C469 1.400 . S
C469 C463 1.491 . S
C469 C468 1.400 . S
C469 C470 1.398 . S
C470 H458 0.950 . S
C470 C469 1.398 . S
C470 C471 1.391 . S
C471 H459 0.950 . S
C471 C467 1.393 . S
C471 C470 1.391 . S
H472 C480 0.950 . S
H473 C485 0.950 . S
H474 C482 0.950 . S
H475 C484 0.950 . S
H476 C486 0.950 . S
H477 C488 0.950 . S
H478 C490 0.950 . S
H479 C491 0.950 . S
C480 H472 0.950 . S
C480 C481 1.386 . S
C480 C482 1.391 . S
C481 C480 1.386 . S
C481 C485 1.393 . S
C482 H474 0.950 . S
C482 C480 1.391 . S
C482 C483 1.400 . S
C483 C482 1.400 . S
C483 C484 1.398 . S
C483 C489 1.491 . S
C484 H475 0.950 . S
C484 C483 1.398 . S
C484 C485 1.391 . S
C485 H473 0.950 . S
C485 C481 1.393 . S
C485 C484 1.391 . S
C486 H476 0.950 . S
C486 C487 1.386 . S
C486 C488 1.391 . S
C487 C486 1.386 . S
C487 C491 1.393 . S
C488 H477 0.950 . S
C488 C486 1.391 . S
C488 C489 1.400 . S
C489 C483 1.491 . S
C489 C488 1.400 . S
C489 C490 1.398 . S
C490 H478 0.950 . S
C490 C489 1.398 . S
C490 C491 1.391 . S
C491 H479 0.950 . S
C491 C487 1.393 . S
C491 C490 1.391 . S
H492 C500 0.950 . S
H493 C505 0.950 . S
H494 C502 0.950 . S
H495 C504 0.950 . S
H496 C506 0.950 . S
H497 C508 0.950 . S
H498 C510 0.950 . S
H499 C511 0.950 . S
C500 H492 0.950 . S
C500 C501 1.386 . S
C500 C502 1.391 . S
C501 C500 1.386 . S
C501 C505 1.393 . S
C502 H494 0.950 . S
C502 C500 1.391 . S
C502 C503 1.400 . S
C503 C502 1.400 . S
C503 C504 1.398 . S
C503 C509 1.491 . S
C504 H495 0.950 . S
C504 C503 1.398 . S
C504 C505 1.391 . S
C505 H493 0.950 . S
C505 C501 1.393 . S
C505 C504 1.391 . S
C506 H496 0.950 . S
C506 C507 1.386 . S
C506 C508 1.391 . S
C507 C506 1.386 . S
C507 C511 1.393 . S
C508 H497 0.950 . S
C508 C506 1.391 . S
C508 C509 1.400 . S
C509 C503 1.491 . S
C509 C508 1.400 . S
C509 C510 1.398 . S
C510 H498 0.950 . S
C510 C509 1.398 . S
C510 C511 1.391 . S
C511 H499 0.950 . S
C511 C507 1.393 . S
C511 C510 1.391 . S
H512 C520 0.950 . S
H513 C525 0.950 . S
H514 C522 0.950 . S
H515 C524 0.950 . S
H516 C526 0.950 . S
H517 C528 0.950 . S
H518 C530 0.950 . S
H519 C531 0.950 . S
C520 H512 0.950 . S
C520 C521 1.386 . S
C520 C522 1.391 . S
C521 C520 1.386 . S
C521 C525 1.393 . S
C522 H514 0.950 . S
C522 C520 1.391 . S
C522 C523 1.400 . S
C523 C522 1.400 . S
C523 C524 1.398 . S
C523 C529 1.491 . S
C524 H515 0.950 . S
C524 C523 1.398 . S
C524 C525 1.391 . S
C525 H513 0.950 . S
C525 C521 1.393 . S
C525 C524 1.391 . S
C526 H516 0.950 . S
C526 C527 1.386 . S
C526 C528 1.391 . S
C527 C526 1.386 . S
C527 C531 1.393 . S
C528 H517 0.950 . S
C528 C526 1.391 . S
C528 C529 1.400 . S
C529 C523 1.491 . S
C529 C528 1.400 . S
C529 C530 1.398 . S
C530 H518 0.950 . S
C530 C529 1.398 . S
C530 C531 1.391 . S
C531 H519 0.950 . S
C531 C527 1.393 . S
C531 C530 1.391 . S
H532 C540 0.950 . S
H533 C545 0.950 . S
H534 C542 0.950 . S
H535 C544 0.950 . S
H536 C546 0.950 . S
H537 C548 0.950 . S
H538 C550 0.950 . S
H539 C551 0.950 . S
C540 H532 0.950 . S
C540 C541 1.386 . S
C540 C542 1.391 . S
C541 C540 1.386 . S
C541 C545 1.393 . S
C542 H534 0.950 . S
C542 C540 1.391 . S
C542 C543 1.400 . S
C543 C542 1.400 . S
C543 C544 1.398 . S
C543 C549 1.491 . S
C544 H535 0.950 . S
C544 C543 1.398 . S
C544 C545 1.391 . S
C545 H533 0.950 . S
C545 C541 1.393 . S
C545 C544 1.391 . S
C546 H536 0.950 . S
C546 C547 1.386 . S
C546 C548 1.391 . S
C547 C546 1.386 . S
C547 C551 1.393 . S
C548 H537 0.950 . S
C548 C546 1.391 . S
C548 C549 1.400 . S
C549 C543 1.491 . S
C549 C548 1.400 . S
C549 C550 1.398 . S
C550 H538 0.950 . S
C550 C549 1.398 . S
C550 C551 1.391 . S
C551 H539 0.950 . S
C551 C547 1.393 . S
C551 C550 1.391 . S
H552 C560 0.950 . S
H553 C565 0.950 . S
H554 C562 0.950 . S
H555 C564 0.950 . S
H556 C566 0.950 1_556 S
H557 C568 0.950 . S
H558 C570 0.950 . S
H559 C571 0.950 . S
C560 H552 0.950 . S
C560 C561 1.386 . S
C560 C562 1.391 . S
C561 C560 1.386 . S
C561 C565 1.393 . S
C562 H554 0.950 . S
C562 C560 1.391 . S
C562 C563 1.400 . S
C563 C562 1.400 . S
C563 C564 1.398 . S
C563 C569 1.491 . S
C564 H555 0.950 . S
C564 C563 1.398 . S
C564 C565 1.391 . S
C565 H553 0.950 . S
C565 C561 1.393 . S
C565 C564 1.391 . S
C566 H556 0.950 1_554 S
C566 C567 1.386 . S
C566 C568 1.391 . S
C567 C566 1.386 . S
C567 C571 1.393 . S
C568 H557 0.950 . S
C568 C566 1.391 . S
C568 C569 1.400 . S
C569 C563 1.491 . S
C569 C568 1.400 . S
C569 C570 1.398 . S
C570 H558 0.950 . S
C570 C569 1.398 . S
C570 C571 1.391 . S
C571 H559 0.950 . S
C571 C567 1.393 . S
C571 C570 1.391 . S
H572 C580 0.950 . S
H573 C585 0.950 . S
H574 C582 0.950 . S
H575 C584 0.950 . S
H576 C586 0.950 . S
H577 C588 0.950 . S
H578 C590 0.950 . S
H579 C591 0.950 . S
C580 H572 0.950 . S
C580 C581 1.386 . S
C580 C582 1.391 . S
C581 C580 1.386 . S
C581 C585 1.393 . S
C582 H574 0.950 . S
C582 C580 1.391 . S
C582 C583 1.400 . S
C583 C582 1.400 . S
C583 C584 1.398 . S
C583 C589 1.491 . S
C584 H575 0.950 . S
C584 C583 1.398 . S
C584 C585 1.391 . S
C585 H573 0.950 . S
C585 C581 1.393 . S
C585 C584 1.391 . S
C586 H576 0.950 . S
C586 C587 1.386 . S
C586 C588 1.391 . S
C587 C586 1.386 . S
C587 C591 1.393 . S
C588 H577 0.950 . S
C588 C586 1.391 . S
C588 C589 1.400 . S
C589 C583 1.491 . S
C589 C588 1.400 . S
C589 C590 1.398 . S
C590 H578 0.950 . S
C590 C589 1.398 . S
C590 C591 1.391 . S
C591 H579 0.950 . S
C591 C587 1.393 . S
C591 C590 1.391 . S
H592 C600 0.950 . S
H593 C605 0.950 . S
H594 C602 0.950 . S
H595 C604 0.950 . S
H596 C606 0.950 . S
H597 C608 0.950 . S
H598 C610 0.950 . S
H599 C611 0.950 . S
C600 H592 0.950 . S
C600 C601 1.386 . S
C600 C602 1.391 . S
C601 C600 1.386 . S
C601 C605 1.393 . S
C602 H594 0.950 . S
C602 C600 1.391 . S
C602 C603 1.400 . S
C603 C602 1.400 . S
C603 C604 1.398 . S
C603 C609 1.491 . S
C604 H595 0.950 . S
C604 C603 1.398 . S
C604 C605 1.391 . S
C605 H593 0.950 . S
C605 C601 1.393 . S
C605 C604 1.391 . S
C606 H596 0.950 . S
C606 C607 1.386 . S
C606 C608 1.391 . S
C607 C606 1.386 . S
C607 C611 1.393 . S
C608 H597 0.950 . S
C608 C606 1.391 . S
C608 C609 1.400 . S
C609 C603 1.491 . S
C609 C608 1.400 . S
C609 C610 1.398 . S
C610 H598 0.950 . S
C610 C609 1.398 . S
C610 C611 1.391 . S
C611 H599 0.950 . S
C611 C607 1.393 . S
C611 C610 1.391 . S
H612 C620 0.950 . S
H613 C625 0.950 . S
H614 C622 0.950 . S
H615 C624 0.950 . S
H616 C626 0.950 . S
H617 C628 0.950 . S
H618 C630 0.950 . S
H619 C631 0.950 . S
C620 H612 0.950 . S
C620 C621 1.386 . S
C620 C622 1.391 . S
C621 C620 1.386 . S
C621 C625 1.393 . S
C622 H614 0.950 . S
C622 C620 1.391 . S
C622 C623 1.400 . S
C623 C622 1.400 . S
C623 C624 1.398 . S
C623 C629 1.491 . S
C624 H615 0.950 . S
C624 C623 1.398 . S
C624 C625 1.391 . S
C625 H613 0.950 . S
C625 C621 1.393 . S
C625 C624 1.391 . S
C626 H616 0.950 . S
C626 C627 1.386 . S
C626 C628 1.391 . S
C627 C626 1.386 . S
C627 C631 1.393 . S
C628 H617 0.950 . S
C628 C626 1.391 . S
C628 C629 1.400 . S
C629 C623 1.491 . S
C629 C628 1.400 . S
C629 C630 1.398 . S
C630 H618 0.950 . S
C630 C629 1.398 . S
C630 C631 1.391 . S
C631 H619 0.950 . S
C631 C627 1.393 . S
C631 C630 1.391 . S
H632 C640 0.950 . S
H633 C645 0.950 . S
H634 C642 0.950 . S
H635 C644 0.950 . S
H636 C646 0.950 . S
H637 C648 0.950 . S
H638 C650 0.950 . S
H639 C651 0.950 . S
C640 H632 0.950 . S
C640 C641 1.386 . S
C640 C642 1.391 . S
C641 C640 1.386 . S
C641 C645 1.393 . S
C642 H634 0.950 . S
C642 C640 1.391 . S
C642 C643 1.400 . S
C643 C642 1.400 . S
C643 C644 1.398 . S
C643 C649 1.491 . S
C644 H635 0.950 . S
C644 C643 1.398 . S
C644 C645 1.391 . S
C645 H633 0.950 . S
C645 C641 1.393 . S
C645 C644 1.391 . S
C646 H636 0.950 . S
C646 C647 1.386 . S
C646 C648 1.391 . S
C647 C646 1.386 . S
C647 C651 1.393 . S
C648 H637 0.950 . S
C648 C646 1.391 . S
C648 C649 1.400 . S
C649 C643 1.491 . S
C649 C648 1.400 . S
C649 C650 1.398 . S
C650 H638 0.950 . S
C650 C649 1.398 . S
C650 C651 1.391 . S
C651 H639 0.950 . S
C651 C647 1.393 . S
C651 C650 1.391 . S
H652 C660 0.950 . S
H653 C665 0.950 . S
H654 C662 0.950 . S
H655 C664 0.950 . S
H656 C666 0.950 . S
H657 C668 0.950 . S
H658 C670 0.995 . S
H659 C671 0.950 . S
C660 H652 0.950 . S
C660 C661 1.386 . S
C660 C662 1.391 . S
C661 C660 1.386 . S
C661 C665 1.393 . S
C662 H654 0.950 . S
C662 C660 1.391 . S
C662 C663 1.400 . S
C663 C662 1.400 . S
C663 C664 1.398 . S
C663 C669 1.491 1_565 S
C664 H655 0.950 . S
C664 C663 1.398 . S
C664 C665 1.391 . S
C665 H653 0.950 . S
C665 C661 1.393 . S
C665 C664 1.391 . S
C666 H656 0.950 . S
C666 C667 1.386 . S
C666 C668 1.391 . S
C667 C666 1.386 . S
C667 C671 1.393 . S
C668 H657 0.950 . S
C668 C666 1.391 . S
C668 C669 1.400 . S
C669 C663 1.491 1_545 S
C669 C668 1.400 . S
C669 C670 1.398 . S
C670 H658 0.995 . S
C670 C669 1.398 . S
C670 C671 1.391 . S
C671 H659 0.950 . S
C671 C667 1.393 . S
C671 C670 1.391 . S
H672 C680 0.950 . S
H673 C685 0.950 . S
H674 C682 0.950 . S
H675 C684 0.950 . S
H676 C686 0.950 1_556 S
H677 C688 0.950 . S
H678 C690 0.950 . S
H679 C691 0.950 . S
C680 H672 0.950 . S
C680 C681 1.386 . S
C680 C682 1.391 . S
C681 C680 1.386 . S
C681 C685 1.393 . S
C682 H674 0.950 . S
C682 C680 1.391 . S
C682 C683 1.400 . S
C683 C682 1.400 . S
C683 C684 1.398 . S
C683 C689 1.491 . S
C684 H675 0.950 . S
C684 C683 1.398 . S
C684 C685 1.391 . S
C685 H673 0.950 . S
C685 C681 1.393 . S
C685 C684 1.391 . S
C686 H676 0.950 1_554 S
C686 C687 1.386 . S
C686 C688 1.391 . S
C687 C686 1.386 . S
C687 C691 1.393 . S
C688 H677 0.950 . S
C688 C686 1.391 . S
C688 C689 1.400 . S
C689 C683 1.491 . S
C689 C688 1.400 . S
C689 C690 1.398 . S
C690 H678 0.950 . S
C690 C689 1.398 . S
C690 C691 1.391 . S
C691 H679 0.950 . S
C691 C687 1.393 . S
C691 C690 1.391 . S
H692 C700 0.950 . S
H693 C705 0.948 1_455 S
H694 C702 0.950 . S
H695 C704 0.950 . S
H696 C706 0.950 . S
H697 C708 0.950 . S
H698 C710 0.887 1_655 S
H699 C711 0.950 . S
C700 H692 0.950 . S
C700 C701 1.386 1_554 S
C700 C702 1.391 . S
C701 C700 1.386 1_556 S
C701 C705 1.401 . S
C702 H694 0.950 . S
C702 C700 1.391 . S
C702 C703 1.407 . S
C703 C702 1.407 . S
C703 C704 1.397 1_654 S
C703 C709 1.486 1_655 S
C704 H695 0.950 . S
C704 C703 1.397 1_456 S
C704 C705 1.385 1_455 S
C705 H693 0.948 1_655 S
C705 C701 1.401 . S
C705 C704 1.385 1_655 S
C706 H696 0.950 . S
C706 C707 1.386 . S
C706 C708 1.391 . S
C707 C706 1.386 . S
C707 C711 1.393 . S
C708 H697 0.950 . S
C708 C706 1.391 . S
C708 C709 1.400 . S
C709 C703 1.486 1_455 S
C709 C708 1.400 . S
C709 C710 1.414 . S
C710 H698 0.887 1_455 S
C710 C709 1.414 . S
C710 C711 1.438 . S
C711 H699 0.950 . S
C711 C707 1.393 . S
C711 C710 1.438 . S
H712 C720 0.948 . S
H713 C725 0.950 . S
H714 C722 0.950 . S
H715 C724 0.950 . S
H716 C726 0.950 . S
H717 C728 0.950 . S
H718 C730 0.950 . S
H719 C731 0.950 . S
C720 H712 0.948 . S
C720 C721 1.386 1_556 S
C720 C722 1.392 1_556 S
C721 C720 1.386 1_554 S
C721 C725 1.393 . S
C722 H714 0.950 . S
C722 C720 1.392 1_554 S
C722 C723 1.400 . S
C723 C722 1.400 . S
C723 C724 1.398 . S
C723 C729 1.491 . S
C724 H715 0.950 . S
C724 C723 1.398 . S
C724 C725 1.391 . S
C725 H713 0.950 . S
C725 C721 1.393 . S
C725 C724 1.391 . S
C726 H716 0.950 . S
C726 C727 1.386 . S
C726 C728 1.391 . S
C727 C726 1.386 . S
C727 C731 1.393 . S
C728 H717 0.950 . S
C728 C726 1.391 . S
C728 C729 1.400 . S
C729 C723 1.491 . S
C729 C728 1.400 . S
C729 C730 1.398 . S
C730 H718 0.950 . S
C730 C729 1.398 . S
C730 C731 1.391 . S
C731 H719 0.950 . S
C731 C727 1.393 . S
C731 C730 1.391 . S
H732 C740 0.950 . S
H733 C745 0.950 . S
H734 C742 0.950 . S
H735 C744 0.950 . S
H736 C746 0.950 . S
H737 C748 0.950 . S
H738 C750 0.950 1_655 S
H739 C751 0.950 . S
C740 H732 0.950 . S
C740 C741 1.386 . S
C740 C742 1.391 . S
C741 C740 1.386 . S
C741 C745 1.393 1_655 S
C742 H734 0.950 . S
C742 C740 1.391 . S
C742 C743 1.400 1_655 S
C743 C742 1.400 1_455 S
C743 C744 1.398 . S
C743 C749 1.491 . S
C744 H735 0.950 . S
C744 C743 1.398 . S
C744 C745 1.391 . S
C745 H733 0.950 . S
C745 C741 1.393 1_455 S
C745 C744 1.391 . S
C746 H736 0.950 . S
C746 C747 1.386 . S
C746 C748 1.391 . S
C747 C746 1.386 . S
C747 C751 1.393 . S
C748 H737 0.950 . S
C748 C746 1.391 . S
C748 C749 1.400 . S
C749 C743 1.491 . S
C749 C748 1.400 . S
C749 C750 1.398 . S
C750 H738 0.950 1_455 S
C750 C749 1.398 . S
C750 C751 1.391 . S
C751 H739 0.950 . S
C751 C747 1.393 . S
C751 C750 1.391 . S
H752 C760 0.950 . S
H753 C765 0.950 . S
H754 C762 0.950 . S
H755 C764 0.950 . S
H756 C766 0.950 . S
H757 C768 0.950 . S
H758 C770 0.950 . S
H759 C771 0.950 . S
C760 H752 0.950 . S
C760 C761 1.386 . S
C760 C762 1.391 . S
C761 C760 1.386 . S
C761 C765 1.393 . S
C762 H754 0.950 . S
C762 C760 1.391 . S
C762 C763 1.400 . S
C763 C762 1.400 . S
C763 C764 1.398 . S
C763 C769 1.491 . S
C764 H755 0.950 . S
C764 C763 1.398 . S
C764 C765 1.391 . S
C765 H753 0.950 . S
C765 C761 1.393 . S
C765 C764 1.391 . S
C766 H756 0.950 . S
C766 C767 1.386 . S
C766 C768 1.391 . S
C767 C766 1.386 . S
C767 C771 1.393 . S
C768 H757 0.950 . S
C768 C766 1.391 . S
C768 C769 1.400 . S
C769 C763 1.491 . S
C769 C768 1.400 . S
C769 C770 1.398 . S
C770 H758 0.950 . S
C770 C769 1.398 . S
C770 C771 1.391 . S
C771 H759 0.950 . S
C771 C767 1.393 . S
C771 C770 1.391 . S
H772 C780 0.950 . S
H773 C785 0.950 . S
H774 C782 0.950 . S
H775 C784 0.950 . S
H776 C786 0.950 . S
H777 C788 0.950 . S
H778 C790 0.950 . S
H779 C791 0.950 . S
C780 H772 0.950 . S
C780 C781 1.386 . S
C780 C782 1.391 . S
C781 C780 1.386 . S
C781 C785 1.393 . S
C782 H774 0.950 . S
C782 C780 1.391 . S
C782 C783 1.400 . S
C783 C782 1.400 . S
C783 C784 1.398 . S
C783 C789 1.491 . S
C784 H775 0.950 . S
C784 C783 1.398 . S
C784 C785 1.391 . S
C785 H773 0.950 . S
C785 C781 1.393 . S
C785 C784 1.391 . S
C786 H776 0.950 . S
C786 C787 1.386 . S
C786 C788 1.391 . S
C787 C786 1.386 . S
C787 C791 1.393 . S
C788 H777 0.950 . S
C788 C786 1.391 . S
C788 C789 1.400 . S
C789 C783 1.491 . S
C789 C788 1.400 . S
C789 C790 1.398 . S
C790 H778 0.950 . S
C790 C789 1.398 . S
C790 C791 1.391 . S
C791 H779 0.950 . S
C791 C787 1.393 . S
C791 C790 1.391 . S
H792 C800 0.950 . S
H793 C805 0.950 1_544 S
H794 C802 0.950 . S
H795 C804 0.950 . S
H796 C806 0.950 . S
H797 C808 0.950 . S
H798 C810 0.950 . S
H799 C811 0.979 . S
C800 H792 0.950 . S
C800 C801 1.386 1_556 S
C800 C802 1.391 . S
C801 C800 1.386 1_554 S
C801 C805 1.393 1_554 S
C802 H794 0.950 . S
C802 C800 1.391 . S
C802 C803 1.400 . S
C803 C802 1.400 . S
C803 C804 1.398 1_565 S
C803 C809 1.491 1_565 S
C804 H795 0.950 . S
C804 C803 1.398 1_545 S
C804 C805 1.391 1_545 S
C805 H793 0.950 1_566 S
C805 C801 1.393 1_556 S
C805 C804 1.391 1_565 S
C806 H796 0.950 . S
C806 C807 1.386 . S
C806 C808 1.391 . S
C807 C806 1.386 . S
C807 C811 1.364 1_545 S
C808 H797 0.950 . S
C808 C806 1.391 . S
C808 C809 1.400 . S
C809 C803 1.491 1_545 S
C809 C808 1.400 . S
C809 C810 1.398 1_545 S
C810 H798 0.950 . S
C810 C809 1.398 1_565 S
C810 C811 1.391 . S
C811 H799 0.979 . S
C811 C807 1.364 1_565 S
C811 C810 1.391 . S
H812 C820 0.950 . S
H813 C825 0.950 . S
H814 C822 0.950 . S
H815 C824 0.950 . S
H816 C826 0.950 . S
H817 C828 0.950 . S
H818 C830 0.950 . S
H819 C831 0.950 . S
C820 H812 0.950 . S
C820 C821 1.386 . S
C820 C822 1.391 . S
C821 C820 1.386 . S
C821 C825 1.393 . S
C822 H814 0.950 . S
C822 C820 1.391 . S
C822 C823 1.400 . S
C823 C822 1.400 . S
C823 C824 1.398 . S
C823 C829 1.491 . S
C824 H815 0.950 . S
C824 C823 1.398 . S
C824 C825 1.391 . S
C825 H813 0.950 . S
C825 C821 1.393 . S
C825 C824 1.391 . S
C826 H816 0.950 . S
C826 C827 1.386 . S
C826 C828 1.391 1_554 S
C827 C826 1.386 . S
C827 C831 1.393 1_554 S
C828 H817 0.950 . S
C828 C826 1.391 1_556 S
C828 C829 1.400 . S
C829 C823 1.491 . S
C829 C828 1.400 . S
C829 C830 1.398 . S
C830 H818 0.950 . S
C830 C829 1.398 . S
C830 C831 1.391 . S
C831 H819 0.950 . S
C831 C827 1.393 1_556 S
C831 C830 1.391 . S
H832 C840 0.950 . S
H833 C845 0.950 . S
H834 C842 0.950 . S
H835 C844 0.950 . S
H836 C846 0.950 . S
H837 C848 0.950 . S
H838 C850 0.950 . S
H839 C851 0.950 . S
C840 H832 0.950 . S
C840 C841 1.386 . S
C840 C842 1.391 . S
C841 C840 1.386 . S
C841 C845 1.393 . S
C842 H834 0.950 . S
C842 C840 1.391 . S
C842 C843 1.400 . S
C843 C842 1.400 . S
C843 C844 1.398 . S
C843 C849 1.491 . S
C844 H835 0.950 . S
C844 C843 1.398 . S
C844 C845 1.391 . S
C845 H833 0.950 . S
C845 C841 1.393 . S
C845 C844 1.391 . S
C846 H836 0.950 . S
C846 C847 1.390 . S
C846 C848 1.391 . S
C847 C846 1.390 . S
C847 C851 1.392 1_556 S
C848 H837 0.950 . S
C848 C846 1.391 . S
C848 C849 1.400 . S
C849 C843 1.491 . S
C849 C848 1.400 . S
C849 C850 1.398 . S
C850 H838 0.950 . S
C850 C849 1.398 . S
C850 C851 1.391 1_556 S
C851 H839 0.950 . S
C851 C847 1.392 1_554 S
C851 C850 1.391 1_554 S
H852 C860 0.950 . S
H853 C865 0.950 . S
H854 C862 0.950 . S
H855 C864 0.950 . S
H856 C866 0.950 . S
H857 C868 0.950 . S
H858 C870 0.950 . S
H859 C871 0.950 . S
C860 H852 0.950 . S
C860 C861 1.386 . S
C860 C862 1.391 . S
C861 C860 1.386 . S
C861 C865 1.393 . S
C862 H854 0.950 . S
C862 C860 1.391 . S
C862 C863 1.400 . S
C863 C862 1.400 . S
C863 C864 1.398 . S
C863 C869 1.491 . S
C864 H855 0.950 . S
C864 C863 1.398 . S
C864 C865 1.391 . S
C865 H853 0.950 . S
C865 C861 1.393 . S
C865 C864 1.391 . S
C866 H856 0.950 . S
C866 C867 1.386 . S
C866 C868 1.391 . S
C867 C866 1.386 . S
C867 C871 1.393 . S
C868 H857 0.950 . S
C868 C866 1.391 . S
C868 C869 1.400 . S
C869 C863 1.491 . S
C869 C868 1.400 . S
C869 C870 1.398 . S
C870 H858 0.950 . S
C870 C869 1.398 . S
C870 C871 1.391 . S
C871 H859 0.950 . S
C871 C867 1.393 . S
C871 C870 1.391 . S
H872 C880 0.950 . S
H873 C885 0.950 . S
H874 C882 0.950 . S
H875 C884 0.950 . S
H876 C886 0.950 . S
H877 C888 0.950 . S
H878 C890 0.950 . S
H879 C891 0.950 . S
C880 H872 0.950 . S
C880 C881 1.386 . S
C880 C882 1.391 . S
C881 C880 1.386 . S
C881 C885 1.393 . S
C882 H874 0.950 . S
C882 C880 1.391 . S
C882 C883 1.400 . S
C883 C882 1.400 . S
C883 C884 1.398 . S
C883 C889 1.491 . S
C884 H875 0.950 . S
C884 C883 1.398 . S
C884 C885 1.391 . S
C885 H873 0.950 . S
C885 C881 1.393 . S
C885 C884 1.391 . S
C886 H876 0.950 . S
C886 C887 1.386 . S
C886 C888 1.391 . S
C887 C886 1.386 . S
C887 C891 1.393 . S
C888 H877 0.950 . S
C888 C886 1.391 . S
C888 C889 1.400 . S
C889 C883 1.491 . S
C889 C888 1.400 . S
C889 C890 1.398 . S
C890 H878 0.950 . S
C890 C889 1.398 . S
C890 C891 1.391 . S
C891 H879 0.950 . S
C891 C887 1.393 . S
C891 C890 1.391 . S
H892 C900 0.950 . S
H893 C905 0.950 . S
H894 C902 0.950 . S
H895 C904 0.950 . S
H896 C906 0.950 . S
H897 C908 0.950 . S
H898 C910 0.950 . S
H899 C911 0.950 . S
C900 H892 0.950 . S
C900 C901 1.386 . S
C900 C902 1.391 . S
C901 C900 1.386 . S
C901 C905 1.393 . S
C902 H894 0.950 . S
C902 C900 1.391 . S
C902 C903 1.400 . S
C903 C902 1.400 . S
C903 C904 1.398 . S
C903 C909 1.491 . S
C904 H895 0.950 . S
C904 C903 1.398 . S
C904 C905 1.391 . S
C905 H893 0.950 . S
C905 C901 1.393 . S
C905 C904 1.391 . S
C906 H896 0.950 . S
C906 C907 1.386 . S
C906 C908 1.391 . S
C907 C906 1.386 . S
C907 C911 1.393 . S
C908 H897 0.950 . S
C908 C906 1.391 . S
C908 C909 1.400 . S
C909 C903 1.491 . S
C909 C908 1.400 . S
C909 C910 1.398 . S
C910 H898 0.950 . S
C910 C909 1.398 . S
C910 C911 1.391 . S
C911 H899 0.950 . S
C911 C907 1.393 . S
C911 C910 1.391 . S
H912 C920 0.950 . S
H913 C925 0.950 . S
H914 C922 0.950 . S
H915 C924 0.950 . S
H916 C926 0.950 . S
H917 C928 0.950 . S
H918 C930 0.950 . S
H919 C931 0.950 . S
C920 H912 0.950 . S
C920 C921 1.386 . S
C920 C922 1.391 . S
C921 C920 1.386 . S
C921 C925 1.393 . S
C922 H914 0.950 . S
C922 C920 1.391 . S
C922 C923 1.400 . S
C923 C922 1.400 . S
C923 C924 1.398 . S
C923 C929 1.491 . S
C924 H915 0.950 . S
C924 C923 1.398 . S
C924 C925 1.391 . S
C925 H913 0.950 . S
C925 C921 1.393 . S
C925 C924 1.391 . S
C926 H916 0.950 . S
C926 C927 1.386 . S
C926 C928 1.391 . S
C927 C926 1.386 . S
C927 C931 1.393 . S
C928 H917 0.950 . S
C928 C926 1.391 . S
C928 C929 1.400 . S
C929 C923 1.491 . S
C929 C928 1.400 . S
C929 C930 1.398 . S
C930 H918 0.950 . S
C930 C929 1.398 . S
C930 C931 1.391 . S
C931 H919 0.950 . S
C931 C927 1.393 . S
C931 C930 1.391 . S
H932 C940 0.950 . S
H933 C945 0.950 . S
H934 C942 0.950 . S
H935 C944 0.950 . S
H936 C946 0.950 . S
H937 C948 0.950 . S
H938 C950 0.950 . S
H939 C951 0.950 . S
C940 H932 0.950 . S
C940 C941 1.386 . S
C940 C942 1.391 . S
C941 C940 1.386 . S
C941 C945 1.393 . S
C942 H934 0.950 . S
C942 C940 1.391 . S
C942 C943 1.400 . S
C943 C942 1.400 . S
C943 C944 1.398 . S
C943 C949 1.491 . S
C944 H935 0.950 . S
C944 C943 1.398 . S
C944 C945 1.391 . S
C945 H933 0.950 . S
C945 C941 1.393 . S
C945 C944 1.391 . S
C946 H936 0.950 . S
C946 C947 1.386 . S
C946 C948 1.391 . S
C947 C946 1.386 . S
C947 C951 1.393 . S
C948 H937 0.950 . S
C948 C946 1.391 . S
C948 C949 1.400 . S
C949 C943 1.491 . S
C949 C948 1.400 . S
C949 C950 1.398 . S
C950 H938 0.950 . S
C950 C949 1.398 . S
C950 C951 1.391 . S
C951 H939 0.950 . S
C951 C947 1.393 . S
C951 C950 1.391 . S
H952 C960 0.950 . S
H953 C965 0.950 . S
H954 C962 0.950 . S
H955 C964 0.950 . S
H956 C966 0.950 . S
H957 C968 0.950 . S
H958 C970 0.950 . S
H959 C971 0.950 . S
C960 H952 0.950 . S
C960 C961 1.386 . S
C960 C962 1.391 . S
C961 C960 1.386 . S
C961 C965 1.393 . S
C962 H954 0.950 . S
C962 C960 1.391 . S
C962 C963 1.400 . S
C963 C962 1.400 . S
C963 C964 1.398 . S
C963 C969 1.491 . S
C964 H955 0.950 . S
C964 C963 1.398 . S
C964 C965 1.391 . S
C965 H953 0.950 . S
C965 C961 1.393 . S
C965 C964 1.391 . S
C966 H956 0.950 . S
C966 C967 1.386 . S
C966 C968 1.391 . S
C967 C966 1.386 . S
C967 C971 1.393 . S
C968 H957 0.950 . S
C968 C966 1.391 . S
C968 C969 1.400 . S
C969 C963 1.491 . S
C969 C968 1.400 . S
C969 C970 1.398 . S
C970 H958 0.950 . S
C970 C969 1.398 . S
C970 C971 1.391 . S
C971 H959 0.950 . S
C971 C967 1.393 . S
C971 C970 1.391 . S
C261 C49 1.372 . S
C267 C7 1.372 . S
C281 C64 1.380 . S
C287 C22 1.379 . S
C301 C35 1.387 . S
C307 C77 1.388 . S
C321 C36 1.333 . S
C327 C78 1.332 . S
C341 C8 1.302 . S
C347 C50 1.302 . S
C361 C63 1.295 . S
C367 C21 1.296 . S
C381 C133 1.254 . S
C387 C92 1.273 . S
C401 C106 1.289 . S
C407 C148 1.290 . S
C421 C120 1.300 . S
C427 C161 1.282 . S
C441 C162 1.430 . S
C447 C119 1.424 . S
C461 C134 1.405 . S
C467 C91 1.400 . S
C481 C147 1.395 . S
C487 C105 1.395 . S
C501 C175 1.371 . S
C507 C217 1.372 . S
C521 C190 1.390 . S
C527 C232 1.390 . S
C541 C203 1.380 . S
C547 C245 1.381 . S
C561 C246 1.336 . S
C567 C204 1.336 . S
C581 C218 1.318 . S
C587 C176 1.318 . S
C601 C231 1.311 . S
C607 C189 1.312 . S
C621 C3 1.245 . S
C627 C101 1.237 . S
C641 C23 1.260 . S
C647 C115 1.261 . S
C661 C87 1.248 . S
C667 C31 1.232 . S
C681 C37 1.254 . S
C687 C191 1.258 1_554 S
C701 C199 1.249 . S
C707 C9 1.218 . S
C721 C171 1.200 1_554 S
C727 C17 1.206 . S
C741 C227 1.200 . S
C747 C45 1.198 . S
C761 C65 1.266 . S
C767 C247 1.250 . S
C781 C219 1.224 . S
C787 C73 1.247 . S
C801 C149 1.213 . S
C807 C79 1.220 . S
C821 C51 1.200 . S
C827 C157 1.203 . S
C841 C59 1.182 . S
C847 C129 1.189 1_556 S
C861 C93 1.202 1_545 S
C867 C185 1.207 . S
C881 C107 1.214 . S
C887 C205 1.243 . S
C901 C121 1.225 . S
C907 C177 1.228 . S
C921 C233 1.269 . S
C927 C163 1.267 . S
C941 C241 1.275 . S
C947 C135 1.239 . S
C961 C143 1.247 1_545 S
C967 C213 1.239 . S
