# Generated by pormake.
# Topology uoj, (4)-cn, num edge types: 1
# Building blocks:
#     Node 0, Type 0, BuildingBlock: GALJAG_clean_sbu_0, # of connection points: 4
#     Node 1, Type 0, BuildingBlock: GALJAG_clean_sbu_0, # of connection points: 4
#     Node 2, Type 0, BuildingBlock: GALJAG_clean_sbu_0, # of connection points: 4
#     Node 3, Type 0, BuildingBlock: GALJAG_clean_sbu_0, # of connection points: 4
#     Node 4, Type 0, BuildingBlock: GALJAG_clean_sbu_0, # of connection points: 4
#     Node 5, Type 0, BuildingBlock: GALJAG_clean_sbu_0, # of connection points: 4
#     Node 6, Type 0, BuildingBlock: GALJAG_clean_sbu_0, # of connection points: 4
#     Node 7, Type 0, BuildingBlock: GALJAG_clean_sbu_0, # of connection points: 4
#     Edge 8, Type (0, 0), BuildingBlock: AJUNOK_clean_linker_0, # of connection points: 2
#     Edge 9, Type (0, 0), BuildingBlock: AJUNOK_clean_linker_0, # of connection points: 2
#     Edge 10, Type (0, 0), BuildingBlock: AJUNOK_clean_linker_0, # of connection points: 2
#     Edge 11, Type (0, 0), BuildingBlock: AJUNOK_clean_linker_0, # of connection points: 2
#     Edge 12, Type (0, 0), BuildingBlock: AJUNOK_clean_linker_0, # of connection points: 2
#     Edge 13, Type (0, 0), BuildingBlock: AJUNOK_clean_linker_0, # of connection points: 2
#     Edge 14, Type (0, 0), BuildingBlock: AJUNOK_clean_linker_0, # of connection points: 2
#     Edge 15, Type (0, 0), BuildingBlock: AJUNOK_clean_linker_0, # of connection points: 2
#     Edge 16, Type (0, 0), BuildingBlock: AJUNOK_clean_linker_0, # of connection points: 2
#     Edge 17, Type (0, 0), BuildingBlock: AJUNOK_clean_linker_0, # of connection points: 2
#     Edge 18, Type (0, 0), BuildingBlock: AJUNOK_clean_linker_0, # of connection points: 2
#     Edge 19, Type (0, 0), BuildingBlock: AJUNOK_clean_linker_0, # of connection points: 2
#     Edge 20, Type (0, 0), BuildingBlock: AJUNOK_clean_linker_0, # of connection points: 2
#     Edge 21, Type (0, 0), BuildingBlock: AJUNOK_clean_linker_0, # of connection points: 2
#     Edge 22, Type (0, 0), BuildingBlock: AJUNOK_clean_linker_0, # of connection points: 2
#     Edge 23, Type (0, 0), BuildingBlock: AJUNOK_clean_linker_0, # of connection points: 2
# Relax obj value: 0.030
# Max RMSD: 0.084
# Mean RMSD: 0.084
data_MOF--net-uoj--node1-GALJAG_clean_sbu_0--edge1-AJUNOK_clean_linker_0
_symmetry_space_group_name_H-M    P1
_symmetry_Int_Tables_number       1
_symmetry_cell_setting            triclinic
loop_
_symmetry_equiv_pos_as_xyz
'x, y, z'
_cell_length_a     25.218966
_cell_length_b     25.225922
_cell_length_c     26.198315
_cell_angle_alpha  90.067138
_cell_angle_beta   89.842706
_cell_angle_gamma 90.206921
loop_
_atom_site_label
_atom_site_type_symbol
_atom_site_fract_x
_atom_site_fract_y
_atom_site_fract_z
_atom_type_partial_charge
In0 In 0.04571 0.29568 0.4388 0.0
O1 O 0.968 0.25118 0.42161 0.0
O2 O 0.99289 0.25973 0.4988 0.0
C3 C 0.08383 0.32486 0.34634 0.0
C4 C 0.11584 0.22352 0.47218 0.0
C5 C 0.02063 0.39274 0.47284 0.0
O6 O 0.04286 0.29612 0.35122 0.0
O7 O 0.10546 0.33788 0.38789 0.0
O8 O 0.06443 0.37116 0.48345 0.0
O9 O 0.9897 0.36488 0.44611 0.0
C10 C 0.95881 0.2415 0.46828 0.0
O11 O 0.10546 0.26504 0.49731 0.0
O12 O 0.09246 0.21993 0.42978 0.0
In13 In 0.28775 0.95277 0.56857 0.0
O14 O 0.25719 0.89292 0.50962 0.0
O15 O 0.21103 0.90659 0.57638 0.0
C16 C 0.38315 0.98244 0.53291 0.0
C17 C 0.2349 0.04138 0.54347 0.0
C18 C 0.31969 0.91155 0.65875 0.0
O19 O 0.36145 0.93932 0.51947 0.0
O20 O 0.35647 0.01002 0.56379 0.0
O21 O 0.28934 0.95132 0.65615 0.0
O22 O 0.33297 0.89254 0.61604 0.0
C23 C 0.2151 0.88283 0.53413 0.0
O24 O 0.24432 0.02967 0.58959 0.0
O25 O 0.2517 0.00824 0.51123 0.0
In26 In 0.94556 0.70901 0.43313 0.0
O27 O 0.02393 0.75122 0.41399 0.0
O28 O -0.00073 0.74646 0.4917 0.0
C29 C 0.90883 0.67616 0.34133 0.0
C30 C 0.87495 0.78262 0.46339 0.0
C31 C 0.97068 0.61349 0.47062 0.0
O32 O 0.94936 0.70559 0.34557 0.0
O33 O 0.88694 0.66429 0.38315 0.0
O34 O 0.926 0.63442 0.47921 0.0
O35 O 0.00194 0.64091 0.44379 0.0
C36 C 0.03394 0.76205 0.46023 0.0
O37 O 0.8852 0.74238 0.49031 0.0
O38 O 0.89936 0.78457 0.42134 0.0
In39 In 0.70039 0.04992 0.56686 0.0
O40 O 0.74617 0.97312 0.58298 0.0
O41 O 0.73218 -0.00402 0.5059 0.0
C42 C 0.67148 0.08368 0.66088 0.0
C43 C 0.77818 0.1162 0.53743 0.0
C44 C 0.60342 0.03335 0.52777 0.0
O45 O 0.67773 0.03505 0.65088 0.0
O46 O 0.68088 0.11465 0.62428 0.0
O47 O 0.62552 0.07838 0.52537 0.0
O48 O 0.63033 -0.0021 0.54915 0.0
C49 C 0.75225 0.96261 0.53595 0.0
O50 O 0.73533 0.11207 0.51255 0.0
O51 O 0.78072 0.08761 0.5769 0.0
In52 In 0.44808 0.78721 0.93528 0.0
O53 O 0.52562 0.74558 0.91304 0.0
O54 O 0.50305 0.74869 0.99146 0.0
C55 C 0.40559 0.82436 0.84761 0.0
C56 C 0.3787 0.71138 0.96366 0.0
C57 C 0.47713 0.88069 0.97529 0.0
O58 O 0.44632 0.79512 0.84789 0.0
O59 O 0.38649 0.83383 0.89121 0.0
O60 O 0.43415 0.8581 0.98798 0.0
O61 O 0.50482 0.85581 0.94313 0.0
C62 C 0.53678 0.73386 0.95881 0.0
O63 O 0.38729 0.75184 0.99105 0.0
O64 O 0.40415 0.7104 0.92213 0.0
In65 In 0.79405 0.54619 0.06105 0.0
O66 O 0.75217 0.46905 0.08501 0.0
O67 O 0.75587 0.48906 0.00609 0.0
C68 C 0.82815 0.58931 0.14982 0.0
C69 C 0.72004 0.61441 0.02738 0.0
C70 C 0.88939 0.51926 0.02373 0.0
O71 O 0.79809 0.54901 0.14868 0.0
O72 O 0.83975 0.60786 0.10652 0.0
O73 O 0.86738 0.56257 0.0121 0.0
O74 O 0.86282 0.48977 0.0531 0.0
C75 C 0.74057 0.45642 0.03954 0.0
O76 O 0.76063 0.60309 1.00118 0.0
O77 O 0.71815 0.59266 0.07071 0.0
In78 In 0.55122 0.19594 0.94431 0.0
O79 O 0.6111 0.22975 1.00132 0.0
O80 O 0.59251 0.27474 0.93484 0.0
C81 C 0.53046 0.0998 0.9839 0.0
C82 C 0.46443 0.25105 0.97092 0.0
C83 C 0.58781 0.16565 0.85166 0.0
O84 O 0.57603 0.12061 0.98724 0.0
O85 O 0.4965 0.12762 0.96141 0.0
O86 O 0.53906 0.17348 0.85995 0.0
O87 O 0.61762 0.17413 0.8893 0.0
C88 C 0.61813 0.27206 0.97615 0.0
O89 O 0.47585 0.24258 0.92444 0.0
O90 O 0.49646 0.2315 1.00256 0.0
In91 In 0.20372 0.44137 0.06249 0.0
O92 O 0.24585 0.5203 0.07942 0.0
O93 O 0.24006 0.49352 1.0024 0.0
C94 C 0.16803 0.40308 0.15263 0.0
C95 C 0.28069 0.37292 0.03616 0.0
C96 C 0.10911 0.46721 0.02393 0.0
O97 O 0.19681 0.44428 0.14995 0.0
O98 O 0.15858 0.38133 0.11022 0.0
O99 O 0.13047 0.42295 0.01417 0.0
O100 O 0.13563 0.49756 0.05247 0.0
C101 C 0.25628 0.52889 0.03273 0.0
O102 O 0.23981 0.37907 0.00888 0.0
O103 O 0.28123 0.39995 0.07671 0.0
C104 C 0.16508 0.40145 0.24831 0.0
C105 C 0.14624 0.38208 0.20138 0.0
C106 C 0.14495 0.38229 0.2948 0.0
C107 C 0.10475 0.34335 0.29631 0.0
H108 H 0.19581 0.43154 0.24924 0.0
H109 H 0.16084 0.39857 0.32988 0.0
S110 S 0.04121 0.27992 0.18409 0.0
N111 N 0.08474 0.32167 0.15931 0.0
N112 N 0.04673 0.28621 0.24658 0.0
C113 C 0.08538 0.32374 0.24967 0.0
C114 C 0.10619 0.34293 0.20229 0.0
C115 C 0.38001 0.85077 0.70679 0.0
C116 C 0.33981 0.88943 0.70757 0.0
C117 C 0.40097 0.82995 0.75211 0.0
C118 C 0.38231 0.84658 0.80014 0.0
H119 H 0.39595 0.83672 0.67081 0.0
H120 H 0.43205 0.80056 0.74938 0.0
S121 S 0.27692 0.94644 0.82341 0.0
N122 N 0.28189 0.94325 0.76064 0.0
N123 N 0.32079 0.90399 0.84569 0.0
C124 C 0.34177 0.88492 0.80151 0.0
C125 C 0.32068 0.90638 0.75533 0.0
C126 C 0.84764 0.6176 0.29123 0.0
C127 C 0.88873 0.65563 0.29176 0.0
C128 C 0.82835 0.5964 0.24531 0.0
C129 C 0.84898 0.61268 0.19792 0.0
H130 H 0.83039 0.60362 0.32668 0.0
H131 H 0.79689 0.5671 0.24703 0.0
S132 S 0.95696 0.71122 0.17801 0.0
N133 N 0.94951 0.70857 0.24059 0.0
N134 N 0.91311 0.6692 0.15434 0.0
C135 C 0.88991 0.65091 0.19781 0.0
C136 C 0.90983 0.67223 0.24465 0.0
C137 C 0.58503 0.10216 0.7783 0.0
C138 C 0.60882 0.14592 0.80257 0.0
C139 C 0.60681 0.0807 0.73335 0.0
C140 C 0.652 0.10345 0.71052 0.0
H141 H 0.55006 0.08377 0.79472 0.0
H142 H 0.58741 0.04701 0.71566 0.0
S143 S 0.7283 0.21885 0.75866 0.0
N144 N 0.68029 0.21066 0.80099 0.0
N145 N 0.71941 0.17224 0.71512 0.0
C146 C 0.67562 0.14756 0.7341 0.0
C147 C 0.65451 0.16829 0.78057 0.0
C148 C 0.19355 0.09576 0.47529 0.0
C149 C 0.20638 0.0897 0.5272 0.0
C150 C 0.16555 0.13988 0.45796 0.0
C151 C 0.14949 0.18013 0.49167 0.0
H152 H 0.20453 0.06577 0.44763 0.0
H153 H 0.15592 0.14206 0.41773 0.0
S154 S 0.1745 0.18446 0.63117 0.0
N155 N 0.20194 0.12842 0.61217 0.0
N156 N 0.14936 0.21186 0.57941 0.0
C157 C 0.16298 0.17537 0.54357 0.0
C158 C 0.19132 0.13 0.56138 0.0
C159 C 0.12969 0.83484 0.54682 0.0
C160 C 0.17178 0.84887 0.5142 0.0
C161 C 0.08589 0.80635 0.52888 0.0
C162 C 0.08199 0.79094 0.47738 0.0
H163 H 0.13017 0.84645 0.58666 0.0
H164 H 0.05443 0.79705 0.55567 0.0
S165 S 0.18224 0.81634 0.37631 0.0
N166 N 0.20761 0.844 0.42799 0.0
N167 N 0.12481 0.79054 0.39408 0.0
C168 C 0.12414 0.80389 0.44434 0.0
C169 C 0.16916 0.83274 0.46279 0.0
C170 C 0.79912 0.87623 0.55068 0.0
C171 C 0.78118 0.91547 0.51678 0.0
C172 C 0.82789 0.83224 0.533 0.0
C173 C 0.84018 0.82624 0.48086 0.0
H174 H 0.79132 0.87971 0.59123 0.0
H175 H 0.84181 0.80353 0.56056 0.0
S176 S 0.80021 0.91634 0.376 0.0
N177 N 0.77612 0.94409 0.42813 0.0
N178 N 0.83026 0.86199 0.39531 0.0
C179 C 0.8215 0.86456 0.4465 0.0
C180 C 0.792 0.90902 0.46434 0.0
C181 C 0.8254 0.17038 0.47092 0.0
C182 C 0.82316 0.15008 0.52092 0.0
C183 C 0.86942 0.19987 0.45391 0.0
C184 C 0.91241 0.21059 0.48651 0.0
H185 H 0.79339 0.16267 0.44442 0.0
H186 H 0.86971 0.21437 0.415 0.0
S187 S 0.92535 0.16735 0.62144 0.0
N188 N 0.86748 0.14353 0.60304 0.0
N189 N 0.94962 0.19888 0.57139 0.0
C190 C 0.91023 0.19108 0.53681 0.0
C191 C 0.86577 0.16085 0.55393 0.0
C192 C 0.2989 0.61768 0.04802 0.0
C193 C 0.28556 0.57628 0.01431 0.0
C194 C 0.32766 0.66217 0.03112 0.0
C195 C 0.34444 0.66663 0.97999 0.0
H196 H 0.28741 0.61558 0.08784 0.0
H197 H 0.33783 0.69266 0.05858 0.0
S198 S 0.31796 0.57012 0.87592 0.0
N199 N 0.29006 0.54357 0.92689 0.0
N200 N 0.34396 0.62667 0.89545 0.0
C201 C 0.33048 0.62597 0.94575 0.0
C202 C 0.3011 0.58094 0.96281 0.0
C203 C 0.63562 0.66265 0.04253 0.0
C204 C 0.67603 0.64771 0.00845 0.0
C205 C 0.59131 0.69078 0.02588 0.0
C206 C 0.58522 0.70503 0.97432 0.0
H207 H 0.63782 0.65208 0.08254 0.0
H208 H 0.56125 0.70086 0.05383 0.0
S209 S 0.68037 0.67668 0.86961 0.0
N210 N 0.70786 0.65023 0.92071 0.0
N211 N 0.62409 0.70317 0.88927 0.0
C212 C 0.62565 0.69111 0.93977 0.0
C213 C 0.67118 0.66252 0.95687 0.0
C214 C 0.69407 0.40157 0.9745 0.0
C215 C 0.71091 0.40781 0.02532 0.0
C216 C 0.66502 0.3571 0.95913 0.0
C217 C 0.65186 0.3166 0.99375 0.0
H218 H 0.70277 0.43166 0.94619 0.0
H219 H 0.65251 0.35471 0.91965 0.0
S220 S 0.68754 0.31272 0.13104 0.0
N221 N 0.7131 0.36912 0.11029 0.0
N222 N 0.65861 0.28495 0.08117 0.0
C223 C 0.66918 0.32163 0.04457 0.0
C224 C 0.69857 0.3674 0.06041 0.0
C225 C 0.37511 0.2913 0.95439 0.0
C226 C 0.41744 0.28151 0.9879 0.0
C227 C 0.33019 0.31966 0.97057 0.0
C228 C 0.32635 0.33967 0.02066 0.0
H229 H 0.37655 0.27681 0.91548 0.0
H230 H 0.29873 0.32671 0.94338 0.0
S231 S 0.42681 0.32515 0.12309 0.0
N232 N 0.45266 0.29422 0.07348 0.0
N233 N 0.36885 0.34736 0.10364 0.0
C234 C 0.36842 0.32992 0.0545 0.0
C235 C 0.4138 0.30091 0.03819 0.0
C236 C 0.94298 0.51979 0.48345 0.0
C237 C 0.98329 0.55831 0.48391 0.0
C238 C 0.9554 0.46573 0.48326 0.0
C239 C 0.00842 0.44855 0.48459 0.0
H240 H 0.90187 0.53135 0.47937 0.0
H241 H 0.92337 0.43725 0.47953 0.0
S242 S 0.12778 0.53415 0.49443 0.0
N243 N 0.07773 0.57606 0.4915 0.0
N244 N 0.10106 0.47432 0.49242 0.0
C245 C 0.04874 0.4867 0.48974 0.0
C246 C 0.03614 0.54172 0.48901 0.0
C247 C 0.50957 0.06267 0.52587 0.0
C248 C 0.54751 0.02374 0.51485 0.0
C249 C 0.45559 0.04962 0.52823 0.0
C250 C 0.43789 -0.00252 0.51888 0.0
H251 H 0.52187 0.10228 0.5368 0.0
H252 H 0.42788 0.07995 0.5402 0.0
S253 S 0.52129 0.88386 0.47911 0.0
N254 N 0.56372 0.93302 0.48795 0.0
N255 N 0.46206 0.90866 0.49128 0.0
C256 C 0.47507 0.9596 0.50283 0.0
C257 C 0.53004 0.97272 0.50116 0.0
C258 C 0.55828 0.00562 0.98889 0.0
C259 C 0.51903 0.04411 0.99662 0.0
C260 C 0.54476 0.95183 0.98579 0.0
C261 C 0.49179 0.93485 0.99125 0.0
H262 H 0.59883 0.01734 0.98089 0.0
H263 H 0.57556 0.92368 0.97613 0.0
S264 S 0.3762 0.0197 0.02155 0.0
N265 N 0.42649 0.0615 0.01645 0.0
N266 N 0.40124 0.96014 0.01171 0.0
C267 C 0.45318 0.9725 0.00425 0.0
C268 C 0.46681 0.02732 0.00662 0.0
C269 C 0.01528 0.44025 0.01083 0.0
C270 C 0.05417 0.48019 0.01011 0.0
C271 C 0.96132 0.45323 0.01156 0.0
C272 C 0.94469 0.50642 0.01046 0.0
H273 H 0.02649 0.39906 0.01498 0.0
H274 H 0.93253 0.42153 0.01576 0.0
S275 S 0.03138 0.62491 1.0001 0.0
N276 N 0.07282 0.57443 1.0025 0.0
N277 N 0.97128 0.59879 1.0025 0.0
C278 C 0.98318 0.54634 0.00484 0.0
C279 C 0.03808 0.53319 0.00509 0.0
loop_
_geom_bond_atom_site_label_1
_geom_bond_atom_site_label_2
_geom_bond_distance
_geom_bond_site_symmetry_2
_ccdc_geom_bond_type
In0 O1 2.294 1_455 S
In0 O2 2.326 . S
In0 O6 2.266 . S
In0 O7 2.326 . S
In0 O8 2.266 . S
In0 O9 2.326 . S
In0 O11 2.294 . S
In0 O12 2.326 . S
O1 In0 2.294 1_655 S
O1 C10 1.240 . S
O2 In0 2.326 . S
O2 C10 1.252 1_455 S
C3 O6 1.252 . S
C3 O7 1.260 . S
C4 O11 1.240 . S
C4 O12 1.252 . S
C5 O8 1.252 . S
C5 O9 1.260 . S
O6 In0 2.266 . S
O6 C3 1.252 . S
O7 In0 2.326 . S
O7 C3 1.260 . S
O8 In0 2.266 . S
O8 C5 1.252 . S
O9 In0 2.326 . S
O9 C5 1.260 . S
C10 O1 1.240 . S
C10 O2 1.252 1_655 S
O11 In0 2.294 . S
O11 C4 1.240 . S
O12 In0 2.326 . S
O12 C4 1.252 . S
In13 O14 2.294 . S
In13 O15 2.326 . S
In13 O19 2.266 . S
In13 O20 2.326 . S
In13 O21 2.266 . S
In13 O22 2.326 . S
In13 O24 2.294 1_565 S
In13 O25 2.326 . S
O14 In13 2.294 . S
O14 C23 1.240 . S
O15 In13 2.326 . S
O15 C23 1.252 . S
C16 O19 1.252 . S
C16 O20 1.260 . S
C17 O24 1.240 . S
C17 O25 1.252 1_545 S
C18 O21 1.252 . S
C18 O22 1.260 . S
O19 In13 2.266 . S
O19 C16 1.252 . S
O20 In13 2.326 . S
O20 C16 1.260 . S
O21 In13 2.266 . S
O21 C18 1.252 . S
O22 In13 2.326 . S
O22 C18 1.260 . S
C23 O14 1.240 . S
C23 O15 1.252 . S
O24 In13 2.294 1_545 S
O24 C17 1.240 . S
O25 In13 2.326 . S
O25 C17 1.252 1_565 S
In26 O27 2.294 1_655 S
In26 O28 2.326 . S
In26 O32 2.266 . S
In26 O33 2.326 . S
In26 O34 2.266 . S
In26 O35 2.326 . S
In26 O37 2.294 . S
In26 O38 2.326 . S
O27 In26 2.294 1_455 S
O27 C36 1.240 . S
O28 In26 2.326 . S
O28 C36 1.252 1_655 S
C29 O32 1.252 . S
C29 O33 1.260 . S
C30 O37 1.240 . S
C30 O38 1.252 . S
C31 O34 1.252 . S
C31 O35 1.260 . S
O32 In26 2.266 . S
O32 C29 1.252 . S
O33 In26 2.326 . S
O33 C29 1.260 . S
O34 In26 2.266 . S
O34 C31 1.252 . S
O35 In26 2.326 . S
O35 C31 1.260 . S
C36 O27 1.240 . S
C36 O28 1.252 1_455 S
O37 In26 2.294 . S
O37 C30 1.240 . S
O38 In26 2.326 . S
O38 C30 1.252 . S
In39 O40 2.294 1_545 S
In39 O41 2.326 . S
In39 O45 2.266 . S
In39 O46 2.326 . S
In39 O47 2.266 . S
In39 O48 2.326 . S
In39 O50 2.294 . S
In39 O51 2.326 . S
O40 In39 2.294 1_565 S
O40 C49 1.240 . S
O41 In39 2.326 . S
O41 C49 1.252 1_545 S
C42 O45 1.252 . S
C42 O46 1.260 . S
C43 O50 1.240 . S
C43 O51 1.252 . S
C44 O47 1.252 . S
C44 O48 1.260 . S
O45 In39 2.266 . S
O45 C42 1.252 . S
O46 In39 2.326 . S
O46 C42 1.260 . S
O47 In39 2.266 . S
O47 C44 1.252 . S
O48 In39 2.326 . S
O48 C44 1.260 . S
C49 O40 1.240 . S
C49 O41 1.252 1_565 S
O50 In39 2.294 . S
O50 C43 1.240 . S
O51 In39 2.326 . S
O51 C43 1.252 . S
In52 O53 2.294 . S
In52 O54 2.326 1_556 S
In52 O58 2.266 . S
In52 O59 2.326 . S
In52 O60 2.266 . S
In52 O61 2.326 . S
In52 O63 2.294 . S
In52 O64 2.326 . S
O53 In52 2.294 . S
O53 C62 1.240 . S
O54 In52 2.326 1_554 S
O54 C62 1.252 1_554 S
C55 O58 1.252 . S
C55 O59 1.260 . S
C56 O63 1.240 . S
C56 O64 1.252 . S
C57 O60 1.252 . S
C57 O61 1.260 . S
O58 In52 2.266 . S
O58 C55 1.252 . S
O59 In52 2.326 . S
O59 C55 1.260 . S
O60 In52 2.266 . S
O60 C57 1.252 . S
O61 In52 2.326 . S
O61 C57 1.260 . S
C62 O53 1.240 . S
C62 O54 1.252 1_556 S
O63 In52 2.294 . S
O63 C56 1.240 . S
O64 In52 2.326 . S
O64 C56 1.252 . S
In65 O66 2.294 . S
In65 O67 2.326 1_554 S
In65 O71 2.266 . S
In65 O72 2.326 . S
In65 O73 2.266 . S
In65 O74 2.326 . S
In65 O76 2.294 . S
In65 O77 2.326 . S
O66 In65 2.294 . S
O66 C75 1.240 . S
O67 In65 2.326 1_556 S
O67 C75 1.252 1_556 S
C68 O71 1.252 . S
C68 O72 1.260 . S
C69 O76 1.240 . S
C69 O77 1.252 . S
C70 O73 1.252 . S
C70 O74 1.260 . S
O71 In65 2.266 . S
O71 C68 1.252 . S
O72 In65 2.326 . S
O72 C68 1.260 . S
O73 In65 2.266 . S
O73 C70 1.252 . S
O74 In65 2.326 . S
O74 C70 1.260 . S
C75 O66 1.240 . S
C75 O67 1.252 1_554 S
O76 In65 2.294 . S
O76 C69 1.240 . S
O77 In65 2.326 . S
O77 C69 1.252 . S
In78 O79 2.294 . S
In78 O80 2.326 . S
In78 O84 2.266 . S
In78 O85 2.326 . S
In78 O86 2.266 . S
In78 O87 2.326 . S
In78 O89 2.294 . S
In78 O90 2.326 1_556 S
O79 In78 2.294 . S
O79 C88 1.240 . S
O80 In78 2.326 . S
O80 C88 1.252 . S
C81 O84 1.252 . S
C81 O85 1.260 . S
C82 O89 1.240 . S
C82 O90 1.252 1_556 S
C83 O86 1.252 . S
C83 O87 1.260 . S
O84 In78 2.266 . S
O84 C81 1.252 . S
O85 In78 2.326 . S
O85 C81 1.260 . S
O86 In78 2.266 . S
O86 C83 1.252 . S
O87 In78 2.326 . S
O87 C83 1.260 . S
C88 O79 1.240 . S
C88 O80 1.252 . S
O89 In78 2.294 . S
O89 C82 1.240 . S
O90 In78 2.326 1_554 S
O90 C82 1.252 1_554 S
In91 O92 2.294 . S
In91 O93 2.326 1_554 S
In91 O97 2.266 . S
In91 O98 2.326 . S
In91 O99 2.266 . S
In91 O100 2.326 . S
In91 O102 2.294 . S
In91 O103 2.326 . S
O92 In91 2.294 . S
O92 C101 1.240 . S
O93 In91 2.326 1_556 S
O93 C101 1.252 1_556 S
C94 O97 1.252 . S
C94 O98 1.260 . S
C95 O102 1.240 . S
C95 O103 1.252 . S
C96 O99 1.252 . S
C96 O100 1.260 . S
O97 In91 2.266 . S
O97 C94 1.252 . S
O98 In91 2.326 . S
O98 C94 1.260 . S
O99 In91 2.266 . S
O99 C96 1.252 . S
O100 In91 2.326 . S
O100 C96 1.260 . S
C101 O92 1.240 . S
C101 O93 1.252 1_554 S
O102 In91 2.294 . S
O102 C95 1.240 . S
O103 In91 2.326 . S
O103 C95 1.252 . S
C104 C105 1.369 . S
C104 C106 1.419 . S
C104 H108 0.930 . S
C105 C104 1.369 . S
C105 C114 1.429 . S
C106 C104 1.419 . S
C106 C107 1.363 . S
C106 H109 0.929 . S
C107 C106 1.363 . S
C107 C113 1.428 . S
H108 C104 0.930 . S
H109 C106 0.929 . S
S110 N111 1.613 . S
S110 N112 1.610 . S
N111 S110 1.613 . S
N111 C114 1.350 . S
N112 S110 1.610 . S
N112 C113 1.351 . S
C113 C107 1.428 . S
C113 N112 1.351 . S
C113 C114 1.434 . S
C114 C105 1.429 . S
C114 N111 1.350 . S
C114 C113 1.434 . S
C115 C116 1.369 . S
C115 C117 1.419 . S
C115 H119 0.930 . S
C116 C115 1.369 . S
C116 C125 1.429 . S
C117 C115 1.419 . S
C117 C118 1.363 . S
C117 H120 0.929 . S
C118 C117 1.363 . S
C118 C124 1.428 . S
H119 C115 0.930 . S
H120 C117 0.929 . S
S121 N122 1.613 . S
S121 N123 1.610 . S
N122 S121 1.613 . S
N122 C125 1.350 . S
N123 S121 1.610 . S
N123 C124 1.351 . S
C124 C118 1.428 . S
C124 N123 1.351 . S
C124 C125 1.434 . S
C125 C116 1.429 . S
C125 N122 1.350 . S
C125 C124 1.434 . S
C126 C127 1.369 . S
C126 C128 1.419 . S
C126 H130 0.930 . S
C127 C126 1.369 . S
C127 C136 1.429 . S
C128 C126 1.419 . S
C128 C129 1.363 . S
C128 H131 0.929 . S
C129 C128 1.363 . S
C129 C135 1.428 . S
H130 C126 0.930 . S
H131 C128 0.929 . S
S132 N133 1.613 . S
S132 N134 1.610 . S
N133 S132 1.613 . S
N133 C136 1.350 . S
N134 S132 1.610 . S
N134 C135 1.351 . S
C135 C129 1.428 . S
C135 N134 1.351 . S
C135 C136 1.434 . S
C136 C127 1.429 . S
C136 N133 1.350 . S
C136 C135 1.434 . S
C137 C138 1.369 . S
C137 C139 1.419 . S
C137 H141 0.930 . S
C138 C137 1.369 . S
C138 C147 1.429 . S
C139 C137 1.419 . S
C139 C140 1.363 . S
C139 H142 0.929 . S
C140 C139 1.363 . S
C140 C146 1.428 . S
H141 C137 0.930 . S
H142 C139 0.929 . S
S143 N144 1.613 . S
S143 N145 1.610 . S
N144 S143 1.613 . S
N144 C147 1.350 . S
N145 S143 1.610 . S
N145 C146 1.351 . S
C146 C140 1.428 . S
C146 N145 1.351 . S
C146 C147 1.434 . S
C147 C138 1.429 . S
C147 N144 1.350 . S
C147 C146 1.434 . S
C148 C149 1.369 . S
C148 C150 1.419 . S
C148 H152 0.930 . S
C149 C148 1.369 . S
C149 C158 1.429 . S
C150 C148 1.419 . S
C150 C151 1.363 . S
C150 H153 0.929 . S
C151 C150 1.363 . S
C151 C157 1.428 . S
H152 C148 0.930 . S
H153 C150 0.929 . S
S154 N155 1.613 . S
S154 N156 1.610 . S
N155 S154 1.613 . S
N155 C158 1.350 . S
N156 S154 1.610 . S
N156 C157 1.351 . S
C157 C151 1.428 . S
C157 N156 1.351 . S
C157 C158 1.434 . S
C158 C149 1.429 . S
C158 N155 1.350 . S
C158 C157 1.434 . S
C159 C160 1.369 . S
C159 C161 1.419 . S
C159 H163 0.930 . S
C160 C159 1.369 . S
C160 C169 1.429 . S
C161 C159 1.419 . S
C161 C162 1.363 . S
C161 H164 0.929 . S
C162 C161 1.363 . S
C162 C168 1.428 . S
H163 C159 0.930 . S
H164 C161 0.929 . S
S165 N166 1.613 . S
S165 N167 1.610 . S
N166 S165 1.613 . S
N166 C169 1.350 . S
N167 S165 1.610 . S
N167 C168 1.351 . S
C168 C162 1.428 . S
C168 N167 1.351 . S
C168 C169 1.434 . S
C169 C160 1.429 . S
C169 N166 1.350 . S
C169 C168 1.434 . S
C170 C171 1.369 . S
C170 C172 1.419 . S
C170 H174 0.930 . S
C171 C170 1.369 . S
C171 C180 1.429 . S
C172 C170 1.419 . S
C172 C173 1.363 . S
C172 H175 0.929 . S
C173 C172 1.363 . S
C173 C179 1.428 . S
H174 C170 0.930 . S
H175 C172 0.929 . S
S176 N177 1.613 . S
S176 N178 1.610 . S
N177 S176 1.613 . S
N177 C180 1.350 . S
N178 S176 1.610 . S
N178 C179 1.351 . S
C179 C173 1.428 . S
C179 N178 1.351 . S
C179 C180 1.434 . S
C180 C171 1.429 . S
C180 N177 1.350 . S
C180 C179 1.434 . S
C181 C182 1.369 . S
C181 C183 1.419 . S
C181 H185 0.930 . S
C182 C181 1.369 . S
C182 C191 1.429 . S
C183 C181 1.419 . S
C183 C184 1.363 . S
C183 H186 0.929 . S
C184 C183 1.363 . S
C184 C190 1.428 . S
H185 C181 0.930 . S
H186 C183 0.929 . S
S187 N188 1.613 . S
S187 N189 1.610 . S
N188 S187 1.613 . S
N188 C191 1.350 . S
N189 S187 1.610 . S
N189 C190 1.351 . S
C190 C184 1.428 . S
C190 N189 1.351 . S
C190 C191 1.434 . S
C191 C182 1.429 . S
C191 N188 1.350 . S
C191 C190 1.434 . S
C192 C193 1.369 . S
C192 C194 1.419 . S
C192 H196 0.930 . S
C193 C192 1.369 . S
C193 C202 1.429 1_554 S
C194 C192 1.419 . S
C194 C195 1.363 1_554 S
C194 H197 0.929 . S
C195 C194 1.363 1_556 S
C195 C201 1.428 . S
H196 C192 0.930 . S
H197 C194 0.929 . S
S198 N199 1.613 . S
S198 N200 1.610 . S
N199 S198 1.613 . S
N199 C202 1.350 . S
N200 S198 1.610 . S
N200 C201 1.351 . S
C201 C195 1.428 . S
C201 N200 1.351 . S
C201 C202 1.434 . S
C202 C193 1.429 1_556 S
C202 N199 1.350 . S
C202 C201 1.434 . S
C203 C204 1.369 . S
C203 C205 1.419 . S
C203 H207 0.930 . S
C204 C203 1.369 . S
C204 C213 1.429 1_554 S
C205 C203 1.419 . S
C205 C206 1.363 1_554 S
C205 H208 0.929 . S
C206 C205 1.363 1_556 S
C206 C212 1.428 . S
H207 C203 0.930 . S
H208 C205 0.929 . S
S209 N210 1.613 . S
S209 N211 1.610 . S
N210 S209 1.613 . S
N210 C213 1.350 . S
N211 S209 1.610 . S
N211 C212 1.351 . S
C212 C206 1.428 . S
C212 N211 1.351 . S
C212 C213 1.434 . S
C213 C204 1.429 1_556 S
C213 N210 1.350 . S
C213 C212 1.434 . S
C214 C215 1.369 1_556 S
C214 C216 1.419 . S
C214 H218 0.930 . S
C215 C214 1.369 1_554 S
C215 C224 1.429 . S
C216 C214 1.419 . S
C216 C217 1.363 . S
C216 H219 0.929 . S
C217 C216 1.363 . S
C217 C223 1.428 1_556 S
H218 C214 0.930 . S
H219 C216 0.929 . S
S220 N221 1.613 . S
S220 N222 1.610 . S
N221 S220 1.613 . S
N221 C224 1.350 . S
N222 S220 1.610 . S
N222 C223 1.351 . S
C223 C217 1.428 1_554 S
C223 N222 1.351 . S
C223 C224 1.434 . S
C224 C215 1.429 . S
C224 N221 1.350 . S
C224 C223 1.434 . S
C225 C226 1.369 . S
C225 C227 1.419 1_556 S
C225 H229 0.930 . S
C226 C225 1.369 . S
C226 C235 1.429 . S
C227 C225 1.419 1_554 S
C227 C228 1.363 . S
C227 H230 0.929 . S
C228 C227 1.363 . S
C228 C234 1.428 1_554 S
H229 C225 0.930 . S
H230 C227 0.929 . S
S231 N232 1.613 . S
S231 N233 1.610 . S
N232 S231 1.613 . S
N232 C235 1.350 . S
N233 S231 1.610 . S
N233 C234 1.351 . S
C234 C228 1.428 1_556 S
C234 N233 1.351 . S
C234 C235 1.434 . S
C235 C226 1.429 . S
C235 N232 1.350 . S
C235 C234 1.434 . S
C236 C237 1.369 . S
C236 C238 1.419 . S
C236 H240 0.930 . S
C237 C236 1.369 . S
C237 C246 1.429 1_655 S
C238 C236 1.419 . S
C238 C239 1.363 1_655 S
C238 H241 0.929 . S
C239 C238 1.363 1_455 S
C239 C245 1.428 . S
H240 C236 0.930 . S
H241 C238 0.929 . S
S242 N243 1.613 . S
S242 N244 1.610 . S
N243 S242 1.613 . S
N243 C246 1.350 . S
N244 S242 1.610 . S
N244 C245 1.351 . S
C245 C239 1.428 . S
C245 N244 1.351 . S
C245 C246 1.434 . S
C246 C237 1.429 1_455 S
C246 N243 1.350 . S
C246 C245 1.434 . S
C247 C248 1.369 . S
C247 C249 1.419 1_545 S
C247 H251 0.930 . S
C248 C247 1.369 . S
C248 C257 1.429 . S
C249 C247 1.419 1_565 S
C249 C250 1.363 . S
C249 H252 0.929 . S
C250 C249 1.363 . S
C250 C256 1.428 . S
H251 C247 0.930 . S
H252 C249 0.929 . S
S253 N254 1.613 . S
S253 N255 1.610 1_545 S
N254 S253 1.613 . S
N254 C257 1.350 . S
N255 S253 1.610 1_565 S
N255 C256 1.351 . S
C256 C250 1.428 . S
C256 N255 1.351 . S
C256 C257 1.434 1_565 S
C257 C248 1.429 . S
C257 N254 1.350 . S
C257 C256 1.434 1_545 S
C258 C259 1.369 . S
C258 C260 1.419 1_545 S
C258 H262 0.930 . S
C259 C258 1.369 . S
C259 C268 1.429 . S
C260 C258 1.419 1_565 S
C260 C261 1.363 . S
C260 H263 0.929 . S
C261 C260 1.363 . S
C261 C267 1.428 . S
H262 C258 0.930 . S
H263 C260 0.929 . S
S264 N265 1.613 . S
S264 N266 1.610 1_545 S
N265 S264 1.613 . S
N265 C268 1.350 1_554 S
N266 S264 1.610 1_565 S
N266 C267 1.351 1_554 S
C267 C261 1.428 . S
C267 N266 1.351 1_556 S
C267 C268 1.434 1_565 S
C268 C259 1.429 . S
C268 N265 1.350 1_556 S
C268 C267 1.434 1_545 S
C269 C270 1.369 . S
C269 C271 1.419 1_455 S
C269 H273 0.930 . S
C270 C269 1.369 . S
C270 C279 1.429 . S
C271 C269 1.419 1_655 S
C271 C272 1.363 . S
C271 H274 0.929 . S
C272 C271 1.363 . S
C272 C278 1.428 . S
H273 C269 0.930 . S
H274 C271 0.929 . S
S275 N276 1.613 . S
S275 N277 1.610 1_455 S
N276 S275 1.613 . S
N276 C279 1.350 . S
N277 S275 1.610 1_655 S
N277 C278 1.351 . S
C278 C272 1.428 . S
C278 N277 1.351 . S
C278 C279 1.434 1_655 S
C279 C270 1.429 . S
C279 N276 1.350 . S
C279 C278 1.434 1_455 S
C105 C94 1.508 . S
C107 C3 1.509 . S
C116 C18 1.509 . S
C118 C55 1.509 . S
C127 C29 1.510 . S
C129 C68 1.509 . S
C138 C83 1.510 . S
C140 C42 1.510 . S
C149 C17 1.477 . S
C151 C4 1.464 . S
C160 C23 1.463 . S
C162 C36 1.477 . S
C171 C49 1.478 . S
C173 C30 1.460 . S
C182 C43 1.460 . S
C184 C10 1.478 . S
C193 C101 1.478 . S
C195 C56 1.460 . S
C204 C69 1.463 . S
C206 C62 1.477 . S
C215 C75 1.477 . S
C217 C88 1.464 . S
C226 C82 1.478 . S
C228 C95 1.460 . S
C237 C31 1.271 . S
C239 C5 1.272 . S
C248 C44 1.276 . S
C250 C16 1.274 . S
C259 C81 1.275 . S
C261 C57 1.276 . S
C270 C96 1.270 . S
C272 C70 1.274 . S
