# Generated by pormake.
# Topology afw, (4)-cn, num edge types: 1
# Building blocks:
#     Node 0, Type 0, BuildingBlock: ICAMEG_clean_sbu_1, # of connection points: 4
#     Node 1, Type 0, BuildingBlock: ICAMEG_clean_sbu_1, # of connection points: 4
#     Node 2, Type 0, BuildingBlock: ICAMEG_clean_sbu_1, # of connection points: 4
#     Node 3, Type 0, BuildingBlock: ICAMEG_clean_sbu_1, # of connection points: 4
#     Node 4, Type 0, BuildingBlock: ICAMEG_clean_sbu_1, # of connection points: 4
#     Node 5, Type 0, BuildingBlock: ICAMEG_clean_sbu_1, # of connection points: 4
#     Node 6, Type 0, BuildingBlock: ICAMEG_clean_sbu_1, # of connection points: 4
#     Node 7, Type 0, BuildingBlock: ICAMEG_clean_sbu_1, # of connection points: 4
#     Node 8, Type 0, BuildingBlock: ICAMEG_clean_sbu_1, # of connection points: 4
#     Edge 9, Type (0, 0), BuildingBlock: UVAHIK_clean_linker_0, # of connection points: 2
#     Edge 10, Type (0, 0), BuildingBlock: UVAHIK_clean_linker_0, # of connection points: 2
#     Edge 11, Type (0, 0), BuildingBlock: UVAHIK_clean_linker_0, # of connection points: 2
#     Edge 12, Type (0, 0), BuildingBlock: UVAHIK_clean_linker_0, # of connection points: 2
#     Edge 13, Type (0, 0), BuildingBlock: UVAHIK_clean_linker_0, # of connection points: 2
#     Edge 14, Type (0, 0), BuildingBlock: UVAHIK_clean_linker_0, # of connection points: 2
#     Edge 15, Type (0, 0), BuildingBlock: UVAHIK_clean_linker_0, # of connection points: 2
#     Edge 16, Type (0, 0), BuildingBlock: UVAHIK_clean_linker_0, # of connection points: 2
#     Edge 17, Type (0, 0), BuildingBlock: UVAHIK_clean_linker_0, # of connection points: 2
#     Edge 18, Type (0, 0), BuildingBlock: UVAHIK_clean_linker_0, # of connection points: 2
#     Edge 19, Type (0, 0), BuildingBlock: UVAHIK_clean_linker_0, # of connection points: 2
#     Edge 20, Type (0, 0), BuildingBlock: UVAHIK_clean_linker_0, # of connection points: 2
#     Edge 21, Type (0, 0), BuildingBlock: UVAHIK_clean_linker_0, # of connection points: 2
#     Edge 22, Type (0, 0), BuildingBlock: UVAHIK_clean_linker_0, # of connection points: 2
#     Edge 23, Type (0, 0), BuildingBlock: UVAHIK_clean_linker_0, # of connection points: 2
#     Edge 24, Type (0, 0), BuildingBlock: UVAHIK_clean_linker_0, # of connection points: 2
#     Edge 25, Type (0, 0), BuildingBlock: UVAHIK_clean_linker_0, # of connection points: 2
#     Edge 26, Type (0, 0), BuildingBlock: UVAHIK_clean_linker_0, # of connection points: 2
# Relax obj value: 0.104
# Max RMSD: 0.138
# Mean RMSD: 0.138
data_MOF--net-afw--node1-ICAMEG_clean_sbu_1--edge1-UVAHIK_clean_linker_0
_symmetry_space_group_name_H-M    P1
_symmetry_Int_Tables_number       1
_symmetry_cell_setting            triclinic
loop_
_symmetry_equiv_pos_as_xyz
'x, y, z'
_cell_length_a     58.712001
_cell_length_b     58.738717
_cell_length_c     44.278845
_cell_angle_alpha  89.994633
_cell_angle_beta   90.114543
_cell_angle_gamma 120.05535
loop_
_atom_site_label
_atom_site_type_symbol
_atom_site_fract_x
_atom_site_fract_y
_atom_site_fract_z
_atom_type_partial_charge
Co0 Co 0.02797 0.21982 0.05385 0.0
Co1 Co 0.00934 0.21108 0.97844 0.0
O2 O 0.01795 0.23074 0.01661 0.0
C3 C 0.98024 0.22171 0.07356 0.0
O4 O 0.96868 0.21198 0.04753 0.0
C5 C 0.05578 0.26222 0.9616 0.0
O6 O 0.06658 0.26263 0.98774 0.0
O7 O 0.03936 0.20411 0.98272 0.0
O8 O 0.05258 0.21281 0.03102 0.0
H9 H 0.99175 0.13446 0.91223 0.0
H10 H 0.03002 0.27117 0.05101 0.0
O11 O 0.00363 0.22664 0.07847 0.0
H12 H 0.12083 0.29241 0.07381 0.0
H13 H 0.05279 0.22707 0.16387 0.0
H14 H 0.0377 0.1764 0.06986 0.0
H15 H 0.08536 0.24629 0.06831 0.0
H16 H 0.04022 0.24064 0.11694 0.0
O17 O 0.03273 0.24372 0.95522 0.0
H18 H 0.0028 0.15965 0.95982 0.0
H19 H 0.99683 0.2208 0.91602 0.0
H20 H 0.0505 0.1623 0.11622 0.0
H21 H 0.06483 0.31758 0.05662 0.0
H22 H 0.05811 0.1877 0.16368 0.0
H23 H 0.11064 0.32844 0.068 0.0
O24 O -0.00056 0.18225 0.04847 0.0
H25 H 0.96718 0.26732 0.97884 0.0
H26 H 0.95228 0.1777 0.96362 0.0
H27 H 0.91497 0.18567 0.95899 0.0
H28 H 0.92233 0.23077 0.96657 0.0
H29 H 0.00389 0.25839 0.98352 0.0
H30 H 0.98596 0.19639 0.86789 0.0
H31 H 0.98327 0.15284 0.86582 0.0
O32 O 0.98592 0.17812 1.00019 0.0
C33 C 0.05469 0.20616 0.00435 0.0
C34 C 0.9928 0.15339 0.91286 0.0
C35 C 0.98959 0.18816 0.88797 0.0
N36 N 0.00034 0.19161 0.94074 0.0
C37 C -0.00101 0.16771 0.93976 0.0
C38 C 0.99583 0.20193 0.91526 0.0
C39 C 0.98807 0.16372 0.88682 0.0
C40 C 0.04988 0.27575 0.05617 0.0
N41 N 0.05566 0.25605 0.05933 0.0
C42 C 0.06952 0.30206 0.05923 0.0
C43 C 0.09522 0.30814 0.06558 0.0
C44 C 0.10095 0.28793 0.06882 0.0
C45 C 0.08081 0.26186 0.06556 0.0
C46 C 0.04953 0.21585 0.14334 0.0
C47 C 0.04108 0.18763 0.09039 0.0
C48 C 0.04232 0.22338 0.11671 0.0
N49 N 0.03827 0.20935 0.09066 0.0
C50 C 0.04828 0.17952 0.11658 0.0
C51 C 0.05253 0.19376 0.14321 0.0
C52 C 0.98449 0.16892 0.02656 0.0
C53 C 0.96373 0.24759 0.97545 0.0
C54 C 0.9556 0.19734 0.96713 0.0
C55 C 0.93442 0.20175 0.96437 0.0
C56 C 0.93857 0.22707 0.9686 0.0
N57 N 0.98022 0.21757 0.97382 0.0
C58 C 0.98445 0.24244 0.97799 0.0
Co59 Co 0.83277 0.83809 0.97481 0.0
Co60 Co 0.83161 0.84567 0.05249 0.0
O61 O 0.81569 0.82715 0.01449 0.0
C62 C 0.78204 0.8373 0.9653 0.0
O63 O 0.78289 0.84562 0.99301 0.0
C64 C 0.82204 0.79177 0.06491 0.0
O65 O 0.82916 0.79034 0.03721 0.0
O66 O 0.86635 0.84887 0.04239 0.0
O67 O 0.86622 0.84382 0.99219 0.0
H68 H 0.90179 0.91794 0.11556 0.0
H69 H 0.78285 0.78756 0.98103 0.0
O70 O 0.79969 0.83268 0.95561 0.0
H71 H 0.84739 0.76382 0.94396 0.0
H72 H 0.83807 0.83153 0.86188 0.0
H73 H 0.88469 0.88053 0.95355 0.0
H74 H 0.86032 0.81026 0.95236 0.0
H75 H 0.81689 0.81817 0.9118 0.0
O76 O 0.82118 0.81192 0.07374 0.0
H77 H 0.88121 0.8942 0.06832 0.0
H78 H 0.81546 0.8364 0.11734 0.0
H79 H 0.90669 0.89441 0.9041 0.0
H80 H 0.76898 0.74086 0.97269 0.0
H81 H 0.88334 0.86983 0.85782 0.0
H82 H 0.8014 0.72874 0.95411 0.0
O83 O 0.84361 0.87579 0.98244 0.0
H84 H 0.73323 0.79736 0.06302 0.0
H85 H 0.81479 0.88263 0.07589 0.0
H86 H 0.77206 0.87904 0.0876 0.0
H87 H 0.73088 0.83613 0.08122 0.0
H88 H 0.7764 0.80195 0.05125 0.0
H89 H 0.83544 0.85939 0.16513 0.0
H90 H 0.87887 0.90053 0.16442 0.0
O91 O 0.84228 0.87983 0.03283 0.0
C92 C 0.87721 0.84781 0.0179 0.0
C93 C 0.88283 0.90008 0.11616 0.0
C94 C 0.84561 0.86719 0.14398 0.0
N95 N 0.8471 0.86403 0.09004 0.0
C96 C 0.87104 0.88659 0.08947 0.0
C97 C 0.83442 0.85422 0.11685 0.0
C98 C 0.86997 0.89028 0.14357 0.0
C99 C 0.797 0.78244 0.97271 0.0
N100 N 0.82234 0.80162 0.96711 0.0
C101 C 0.78907 0.75597 0.96813 0.0
C102 C 0.80727 0.74918 0.95774 0.0
C103 C 0.83308 0.76885 0.95207 0.0
C104 C 0.84032 0.79512 0.95695 0.0
C105 C 0.84846 0.84238 0.88188 0.0
C106 C 0.87445 0.86966 0.93353 0.0
C107 C 0.83654 0.83495 0.91021 0.0
N108 N 0.84959 0.84849 0.9356 0.0
C109 C 0.88698 0.87765 0.90559 0.0
C110 C 0.87386 0.86387 0.87962 0.0
C111 C 0.84633 0.88922 0.00622 0.0
C112 C 0.75103 0.81617 0.06588 0.0
C113 C 0.79695 0.86398 0.07279 0.0
C114 C 0.77281 0.86202 0.07961 0.0
C115 C 0.74972 0.83793 0.07606 0.0
N116 N 0.79806 0.84256 0.06276 0.0
C117 C 0.77552 0.81886 0.05933 0.0
Co118 Co 0.19518 0.02059 0.05928 0.0
Co119 Co 0.20015 0.02538 0.98181 0.0
O120 O 0.21473 0.02497 0.02169 0.0
C121 C 0.24688 0.06816 0.07333 0.0
O122 O 0.24832 0.07717 0.04585 0.0
C123 C 0.21548 0.98482 0.97143 0.0
O124 O 0.20537 0.97397 0.99759 0.0
O125 O 0.16749 0.99132 0.99015 0.0
O126 O 0.16159 0.99499 0.03949 0.0
H127 H 0.12936 0.01534 0.90986 0.0
H128 H 0.24188 0.01391 0.05981 0.0
O129 O 0.22791 0.04587 0.08109 0.0
H130 H 0.16838 0.92885 0.0941 0.0
H131 H 0.1805 0.00943 0.17167 0.0
H132 H 0.14451 0.01754 0.07412 0.0
H133 H 0.16108 0.96562 0.08167 0.0
H134 H 0.20471 0.01461 0.12435 0.0
O135 O 0.21635 0.00599 0.96333 0.0
H136 H 0.14816 0.01526 0.95968 0.0
H137 H 0.22151 0.03604 0.91903 0.0
H138 H 0.11954 0.01215 0.12087 0.0
H139 H 0.25015 0.97773 0.07229 0.0
H140 H 0.13753 0.00806 0.1701 0.0
H141 H 0.2132 0.9348 0.0895 0.0
O142 O 0.18922 0.05015 0.04819 0.0
H143 H 0.29793 0.08635 0.97842 0.0
H144 H 0.21128 0.07789 0.95899 0.0
H145 H 0.25159 0.12038 0.94987 0.0
H146 H 0.29531 0.12479 0.95952 0.0
H147 H 0.25709 0.04427 0.98755 0.0
H148 H 0.20345 0.03615 0.86874 0.0
H149 H 0.15708 0.02585 0.86393 0.0
O150 O 0.1833 0.04478 0.99815 0.0
C151 C 0.15354 0.98367 0.01404 0.0
C152 C 0.14962 0.01995 0.91166 0.0
C153 C 0.19119 0.03161 0.88859 0.0
N154 N 0.18597 0.02585 0.94232 0.0
C155 C 0.16039 0.02 0.93983 0.0
C156 C 0.2013 0.03149 0.91713 0.0
C157 C 0.16517 0.02582 0.88591 0.0
C158 C 0.22576 0.99534 0.0675 0.0
N159 N 0.20105 0.9919 0.07006 0.0
C160 C 0.23054 0.97491 0.07444 0.0
C161 C 0.20979 0.95082 0.08406 0.0
C162 C 0.18464 0.94746 0.08662 0.0
C163 C 0.1806 0.96833 0.07945 0.0
C164 C 0.17243 0.01115 0.15035 0.0
C165 C 0.15241 0.01564 0.09543 0.0
C166 C 0.18608 0.01415 0.12348 0.0
N167 N 0.17596 0.01621 0.09646 0.0
C168 C 0.13821 0.01265 0.12184 0.0
C169 C 0.14833 0.01038 0.14945 0.0
C170 C 0.18217 0.0551 0.02292 0.0
C171 C 0.279 0.08465 0.97405 0.0
C172 C 0.23022 0.07967 0.9634 0.0
C173 C 0.25298 0.10377 0.95809 0.0
C174 C 0.27751 0.10622 0.96349 0.0
N175 N 0.23185 0.05859 0.97371 0.0
C176 C 0.25582 0.06085 0.97907 0.0
Co177 Co 0.67 0.53582 0.30075 0.0
Co178 Co 0.67983 0.5389 0.3783 0.0
O179 O 0.67465 0.55301 0.34023 0.0
C180 C 0.71588 0.58916 0.28892 0.0
O181 O 0.72545 0.58963 0.31588 0.0
C182 C 0.63374 0.5456 0.39233 0.0
O183 O 0.6251 0.53962 0.36446 0.0
O184 O 0.64985 0.50285 0.36934 0.0
O185 O 0.64612 0.50111 0.31887 0.0
H186 H 0.69012 0.47377 0.44196 0.0
H187 H 0.66145 0.5812 0.30626 0.0
O188 O 0.69381 0.57001 0.2807 0.0
H189 H 0.57638 0.50739 0.27207 0.0
H190 H 0.65556 0.52697 0.18817 0.0
H191 H 0.66833 0.48704 0.27993 0.0
H192 H 0.61452 0.50124 0.28003 0.0
H193 H 0.66139 0.54827 0.2378 0.0
O194 O 0.6552 0.54701 0.40035 0.0
H195 H 0.68345 0.49186 0.39466 0.0
H196 H 0.6876 0.55644 0.44271 0.0
H197 H 0.66235 0.46496 0.23078 0.0
H198 H 0.62388 0.58833 0.29826 0.0
H199 H 0.65592 0.48496 0.18445 0.0
H200 H 0.58094 0.55122 0.28113 0.0
O201 O 0.70076 0.5306 0.30779 0.0
H202 H 0.72327 0.63715 0.38719 0.0
H203 H 0.7354 0.56042 0.39893 0.0
H204 H 0.77262 0.60486 0.40922 0.0
H205 H 0.76665 0.64362 0.40342 0.0
H206 H 0.68666 0.59234 0.37685 0.0
H207 H 0.69407 0.53891 0.49055 0.0
H208 H 0.69546 0.49733 0.49036 0.0
O209 O 0.70456 0.53023 0.35817 0.0
C210 C 0.63947 0.49056 0.34481 0.0
C211 C 0.68962 0.49194 0.44233 0.0
C212 C 0.6918 0.52848 0.4696 0.0
N213 N 0.68532 0.52527 0.41587 0.0
C214 C 0.68592 0.50232 0.4156 0.0
C215 C 0.68808 0.53828 0.44244 0.0
C216 C 0.69259 0.50516 0.46948 0.0
C217 C 0.64288 0.56503 0.29856 0.0
N218 N 0.64019 0.54084 0.29358 0.0
C219 C 0.62166 0.56915 0.29418 0.0
C220 C 0.59756 0.54831 0.28461 0.0
C221 C 0.59498 0.52371 0.27955 0.0
C222 C 0.61662 0.52031 0.28421 0.0
C223 C 0.65831 0.51805 0.2082 0.0
C224 C 0.6654 0.49579 0.2599 0.0
C225 C 0.66167 0.53004 0.23636 0.0
N226 N 0.66505 0.51883 0.26178 0.0
C227 C 0.66208 0.48323 0.23212 0.0
C228 C 0.6585 0.49447 0.20613 0.0
C229 C 0.71147 0.52799 0.33166 0.0
C230 C 0.72611 0.62042 0.38984 0.0
C231 C 0.7327 0.57718 0.39618 0.0
C232 C 0.75382 0.6023 0.40214 0.0
C233 C 0.75045 0.62404 0.39891 0.0
N234 N 0.70888 0.57378 0.38733 0.0
C235 C 0.70543 0.595 0.38412 0.0
Co236 Co 0.49473 0.15987 0.31009 0.0
Co237 Co 0.49533 0.16624 0.38793 0.0
O238 O 0.47865 0.14784 0.35011 0.0
C239 C 0.44323 0.15728 0.30114 0.0
O240 O 0.44527 0.16773 0.32793 0.0
C241 C 0.48602 0.1125 0.40083 0.0
O242 O 0.49309 0.11075 0.37321 0.0
O243 O 0.52941 0.16858 0.37693 0.0
O244 O 0.52958 0.16839 0.32629 0.0
H245 H 0.5674 0.23727 0.45046 0.0
H246 H 0.44742 0.1073 0.31683 0.0
O247 O 0.46039 0.15174 0.29196 0.0
H248 H 0.516 0.09059 0.27674 0.0
H249 H 0.49877 0.15442 0.19685 0.0
H250 H 0.54432 0.20532 0.28797 0.0
H251 H 0.5255 0.13593 0.2859 0.0
H252 H 0.47898 0.13947 0.24721 0.0
O253 O 0.48454 0.13243 0.40913 0.0
H254 H 0.546 0.21381 0.40337 0.0
H255 H 0.47966 0.15752 0.4529 0.0
H256 H 0.56492 0.22084 0.23806 0.0
H257 H 0.43695 0.06161 0.30773 0.0
H258 H 0.5421 0.19533 0.19205 0.0
H259 H 0.47142 0.05304 0.28762 0.0
O260 O 0.50265 0.19664 0.31828 0.0
H261 H 0.39725 0.11984 0.40099 0.0
H262 H 0.47995 0.20458 0.41057 0.0
H263 H 0.43786 0.20207 0.42317 0.0
H264 H 0.39611 0.15944 0.41846 0.0
H265 H 0.4398 0.12331 0.38838 0.0
H266 H 0.50043 0.18027 0.50055 0.0
H267 H 0.54458 0.22051 0.49951 0.0
O268 O 0.50677 0.20065 0.36862 0.0
C269 C 0.5406 0.17038 0.35167 0.0
C270 C 0.54813 0.2198 0.45121 0.0
C271 C 0.51055 0.1878 0.47931 0.0
N272 N 0.51154 0.18442 0.42535 0.0
C273 C 0.53589 0.20647 0.42461 0.0
C274 C 0.49891 0.17498 0.45226 0.0
C275 C 0.53532 0.21037 0.47872 0.0
C276 C 0.46245 0.10371 0.30788 0.0
N277 N 0.48703 0.12425 0.30189 0.0
C278 C 0.45644 0.07781 0.30286 0.0
C279 C 0.4758 0.07301 0.29161 0.0
C280 C 0.50082 0.09407 0.28553 0.0
C281 C 0.50613 0.11971 0.29087 0.0
C282 C 0.50892 0.16569 0.21673 0.0
C283 C 0.53433 0.19403 0.26807 0.0
C284 C 0.49779 0.15735 0.2453 0.0
N285 N 0.51055 0.17144 0.27053 0.0
C286 C 0.54607 0.20295 0.23986 0.0
C287 C 0.53324 0.18864 0.21406 0.0
C288 C 0.50803 0.21016 0.3425 0.0
C289 C 0.41531 0.13851 0.4032 0.0
C290 C 0.46187 0.18599 0.40834 0.0
C291 C 0.4381 0.18467 0.41559 0.0
C292 C 0.41468 0.16074 0.41296 0.0
N293 N 0.46232 0.16408 0.39884 0.0
C294 C 0.43946 0.14056 0.39619 0.0
Co295 Co 0.86753 0.35447 0.32133 0.0
Co296 Co 0.85683 0.3523 0.39823 0.0
O297 O 0.87816 0.35407 0.36329 0.0
C298 C 0.87315 0.30707 0.30983 0.0
O299 O 0.85144 0.29192 0.32479 0.0
C300 C 0.90899 0.39881 0.41271 0.0
O301 O 0.91188 0.40629 0.38437 0.0
O302 O 0.85301 0.38208 0.38252 0.0
O303 O 0.85293 0.37741 0.33224 0.0
H304 H 0.77931 0.34977 0.44946 0.0
H305 H 0.92254 0.36855 0.33479 0.0
O306 O 0.8825 0.33187 0.30871 0.0
H307 H 0.92892 0.44694 0.28581 0.0
H308 H 0.87998 0.35938 0.20852 0.0
H309 H 0.82001 0.34978 0.29162 0.0
H310 H 0.88572 0.40713 0.29351 0.0
H311 H 0.89301 0.35948 0.2615 0.0
O312 O 0.88878 0.3777 0.42118 0.0
H313 H 0.80649 0.35189 0.40597 0.0
H314 H 0.86221 0.34917 0.46499 0.0
H315 H 0.80631 0.34981 0.23895 0.0
H316 H 0.96618 0.40786 0.32724 0.0
H317 H 0.83639 0.35463 0.19696 0.0
H318 H 0.96955 0.44745 0.30267 0.0
O319 O 0.83218 0.32292 0.32831 0.0
H320 H 0.90737 0.30684 0.42462 0.0
H321 H 0.81974 0.29897 0.42309 0.0
H322 H 0.8243 0.26184 0.44149 0.0
H323 H 0.86839 0.26567 0.44243 0.0
H324 H 0.90185 0.34341 0.4061 0.0
H325 H 0.83575 0.34726 0.50911 0.0
H326 H 0.79391 0.34743 0.50149 0.0
O327 O 0.82417 0.32672 0.377 0.0
C328 C 0.84977 0.38799 0.35574 0.0
C329 C 0.79746 0.3496 0.45307 0.0
C330 C 0.82916 0.34823 0.48655 0.0
N331 N 0.83581 0.35047 0.43291 0.0
C332 C 0.8129 0.35074 0.42853 0.0
C333 C 0.84409 0.34938 0.46148 0.0
C334 C 0.80568 0.34832 0.48226 0.0
C335 C 0.92387 0.38562 0.32383 0.0
N336 N 0.90161 0.3855 0.31452 0.0
C337 C 0.94863 0.40786 0.31973 0.0
C338 C 0.9505 0.43007 0.30598 0.0
C339 C 0.92771 0.42981 0.29654 0.0
C340 C 0.90329 0.40723 0.30105 0.0
C341 C 0.86672 0.3573 0.22662 0.0
C342 C 0.83328 0.35202 0.27349 0.0
C343 C 0.87396 0.35728 0.25668 0.0
N344 N 0.85735 0.35479 0.27967 0.0
C345 C 0.82538 0.35196 0.2437 0.0
C346 C 0.84226 0.35465 0.22015 0.0
C347 C 0.81704 0.31576 0.35125 0.0
C348 C 0.88806 0.30494 0.42436 0.0
C349 C 0.83895 0.30073 0.42323 0.0
C350 C 0.84143 0.27967 0.43378 0.0
C351 C 0.86618 0.28184 0.43432 0.0
N352 N 0.86051 0.32335 0.41356 0.0
C353 C 0.88482 0.3256 0.41398 0.0
Co354 Co 0.34624 0.86738 0.71788 0.0
Co355 Co 0.33775 0.86744 0.64067 0.0
O356 O 0.34596 0.88496 0.68024 0.0
C357 C 0.30971 0.88641 0.73492 0.0
O358 O 0.29734 0.87783 0.70904 0.0
C359 C 0.38904 0.9159 0.6285 0.0
O360 O 0.39812 0.9137 0.6548 0.0
O361 O 0.36398 0.85558 0.647 0.0
O362 O 0.36218 0.84898 0.69703 0.0
H363 H 0.3155 0.79232 0.56977 0.0
H364 H 0.36965 0.92525 0.71741 0.0
O365 O 0.33023 0.88508 0.74066 0.0
H366 H 0.44244 0.91004 0.74466 0.0
H367 H 0.36105 0.86342 0.8294 0.0
H368 H 0.33231 0.81296 0.73436 0.0
H369 H 0.39783 0.87265 0.73554 0.0
H370 H 0.36086 0.88507 0.78177 0.0
O371 O 0.36547 0.8999 0.62066 0.0
H372 H 0.32587 0.81483 0.61912 0.0
H373 H 0.33228 0.88318 0.57809 0.0
H374 H 0.33239 0.79057 0.78142 0.0
H375 H 0.41393 0.96323 0.72664 0.0
H376 H 0.34684 0.81584 0.82941 0.0
H377 H 0.4507 0.95573 0.74029 0.0
O378 O 0.31047 0.83693 0.70941 0.0
H379 H 0.30757 0.93373 0.64165 0.0
H380 H 0.28186 0.84166 0.6196 0.0
H381 H 0.24937 0.85617 0.61297 0.0
H382 H 0.26218 0.90255 0.62397 0.0
H383 H 0.33934 0.91825 0.64825 0.0
H384 H 0.32225 0.8615 0.52827 0.0
H385 H 0.31365 0.81569 0.52389 0.0
O386 O 0.3096 0.83434 0.65882 0.0
C387 C 0.36955 0.84696 0.67069 0.0
C388 C 0.31914 0.81226 0.57139 0.0
C389 C 0.32296 0.85109 0.54809 0.0
N390 N 0.32952 0.85023 0.60153 0.0
C391 C 0.32496 0.82508 0.59929 0.0
C392 C 0.3287 0.86329 0.57637 0.0
C393 C 0.31813 0.82539 0.54566 0.0
C394 C 0.38551 0.92185 0.72362 0.0
N395 N 0.38113 0.89678 0.72607 0.0
C396 C 0.41056 0.94342 0.7287 0.0
C397 C 0.43119 0.93919 0.73631 0.0
C398 C 0.42657 0.91356 0.73875 0.0
C399 C 0.40128 0.89247 0.73347 0.0
C400 C 0.35476 0.8522 0.80863 0.0
C401 C 0.33876 0.82413 0.7551 0.0
C402 C 0.35456 0.86434 0.78159 0.0
N403 N 0.34674 0.85033 0.75524 0.0
C404 C 0.33871 0.81132 0.7817 0.0
C405 C 0.34679 0.82551 0.80862 0.0
C406 C 0.29988 0.82521 0.68468 0.0
C407 C 0.30175 0.91347 0.63677 0.0
C408 C 0.2875 0.86178 0.62467 0.0
C409 C 0.26907 0.86993 0.62074 0.0
C410 C 0.27628 0.89596 0.62688 0.0
N411 N 0.31244 0.87905 0.63439 0.0
C412 C 0.31966 0.90461 0.6404 0.0
Co413 Co 0.16766 0.50429 0.64014 0.0
Co414 Co 0.17141 0.50927 0.71785 0.0
O415 O 0.15418 0.49012 0.68055 0.0
C416 C 0.1124 0.49258 0.63403 0.0
O417 O 0.11419 0.50354 0.66043 0.0
C418 C 0.16413 0.45577 0.72902 0.0
O419 O 0.16806 0.45313 0.70038 0.0
O420 O 0.20611 0.51453 0.70423 0.0
O421 O 0.20454 0.51918 0.65418 0.0
H422 H 0.24256 0.58366 0.77773 0.0
H423 H 0.12726 0.44807 0.64608 0.0
O424 O 0.13127 0.48996 0.6241 0.0
H425 H 0.20451 0.44854 0.60184 0.0
H426 H 0.16911 0.501 0.5265 0.0
H427 H 0.2107 0.55508 0.61704 0.0
H428 H 0.20569 0.49018 0.61337 0.0
H429 H 0.15278 0.48331 0.57737 0.0
O430 O 0.16416 0.47618 0.73854 0.0
H431 H 0.2204 0.55925 0.73137 0.0
H432 H 0.15885 0.49952 0.78359 0.0
H433 H 0.2278 0.57347 0.56661 0.0
H434 H 0.1251 0.40593 0.63453 0.0
H435 H 0.20695 0.54637 0.52089 0.0
H436 H 0.16396 0.40601 0.61235 0.0
O437 O 0.16881 0.53796 0.65005 0.0
H438 H 0.07401 0.4561 0.73587 0.0
H439 H 0.15286 0.54414 0.74381 0.0
H440 H 0.10979 0.53782 0.75946 0.0
H441 H 0.06998 0.49352 0.75559 0.0
H442 H 0.11746 0.46338 0.72021 0.0
H443 H 0.18046 0.52318 0.83051 0.0
H444 H 0.22256 0.56563 0.82775 0.0
O445 O 0.17925 0.54317 0.69923 0.0
C446 C 0.21694 0.52044 0.67829 0.0
C447 C 0.22418 0.56522 0.77922 0.0
C448 C 0.18934 0.53126 0.80884 0.0
N449 N 0.18827 0.52809 0.75474 0.0
C450 C 0.21151 0.55134 0.75305 0.0
C451 C 0.17722 0.51793 0.78219 0.0
C452 C 0.21296 0.55508 0.80728 0.0
C453 C 0.14415 0.44824 0.63616 0.0
N454 N 0.16654 0.47154 0.63037 0.0
C455 C 0.14286 0.42433 0.62979 0.0
C456 C 0.16469 0.42439 0.61739 0.0
C457 C 0.18745 0.44824 0.61152 0.0
C458 C 0.18804 0.47177 0.61822 0.0
C459 C 0.17838 0.513 0.54625 0.0
C460 C 0.20159 0.54312 0.59726 0.0
C461 C 0.16918 0.50311 0.57511 0.0
N462 N 0.18084 0.51811 0.60016 0.0
C463 C 0.21133 0.55366 0.56876 0.0
C464 C 0.19962 0.53845 0.54312 0.0
C465 C 0.1757 0.55161 0.67422 0.0
C466 C 0.09122 0.47549 0.73773 0.0
C467 C 0.13562 0.52484 0.74192 0.0
C468 C 0.11129 0.52136 0.7509 0.0
C469 C 0.08897 0.49649 0.74875 0.0
N470 N 0.13768 0.50413 0.73117 0.0
C471 C 0.11588 0.4797 0.72899 0.0
Co472 Co 0.53682 0.68488 0.7187 0.0
Co473 Co 0.54714 0.70082 0.64261 0.0
O474 O 0.55794 0.69348 0.68172 0.0
C475 C 0.58651 0.73308 0.73652 0.0
O476 O 0.58833 0.74285 0.70939 0.0
C477 C 0.55239 0.65429 0.62801 0.0
O478 O 0.54165 0.64381 0.65409 0.0
O479 O 0.51033 0.67051 0.64694 0.0
O480 O 0.50513 0.65964 0.69605 0.0
H481 H 0.48791 0.71502 0.57263 0.0
H482 H 0.58603 0.68254 0.71856 0.0
O483 O 0.56798 0.71011 0.74301 0.0
H484 H 0.51569 0.59255 0.74301 0.0
H485 H 0.5189 0.66413 0.82946 0.0
H486 H 0.48361 0.67581 0.7332 0.0
H487 H 0.50536 0.62793 0.73469 0.0
H488 H 0.54522 0.67504 0.78283 0.0
O489 O 0.55713 0.67728 0.6211 0.0
H490 H 0.50174 0.70555 0.62143 0.0
H491 H 0.57029 0.71228 0.58069 0.0
H492 H 0.45654 0.66467 0.77924 0.0
H493 H 0.5973 0.64781 0.72696 0.0
H494 H 0.47418 0.65877 0.82782 0.0
H495 H 0.56197 0.60242 0.73922 0.0
O496 O 0.52801 0.71323 0.71127 0.0
H497 H 0.64571 0.74434 0.64515 0.0
H498 H 0.57029 0.75746 0.62611 0.0
H499 H 0.61543 0.7951 0.62167 0.0
H500 H 0.65353 0.78865 0.63118 0.0
H501 H 0.60021 0.70729 0.64959 0.0
H502 H 0.55706 0.72157 0.53139 0.0
H503 H 0.51565 0.72308 0.52717 0.0
O504 O 0.53672 0.72436 0.6624 0.0
C505 C 0.49666 0.65629 0.66904 0.0
C506 C 0.50602 0.71447 0.5742 0.0
C507 C 0.54482 0.71811 0.55104 0.0
N508 N 0.53686 0.70849 0.60395 0.0
C509 C 0.51399 0.70918 0.60178 0.0
C510 C 0.55217 0.71277 0.579 0.0
C511 C 0.52159 0.71897 0.54869 0.0
C512 C 0.57059 0.66288 0.7241 0.0
N513 N 0.54509 0.65729 0.72624 0.0
C514 C 0.57707 0.64328 0.72874 0.0
C515 C 0.55723 0.61781 0.73558 0.0
C516 C 0.53126 0.61225 0.73769 0.0
C517 C 0.52552 0.63235 0.73287 0.0
C518 C 0.51098 0.66662 0.80842 0.0
C519 C 0.49137 0.67314 0.75422 0.0
C520 C 0.52582 0.67286 0.78195 0.0
N521 N 0.51591 0.67594 0.75527 0.0
C522 C 0.47597 0.66689 0.78023 0.0
C523 C 0.48589 0.66361 0.80748 0.0
C524 C 0.52908 0.72693 0.68836 0.0
C525 C 0.62927 0.7474 0.6409 0.0
C526 C 0.58676 0.75453 0.63042 0.0
C527 C 0.61228 0.7759 0.62778 0.0
C528 C 0.63364 0.77226 0.6331 0.0
N529 N 0.58264 0.73021 0.63805 0.0
C530 C 0.60348 0.72648 0.64328 0.0
C531 C 0.17591 0.09122 0.04479 0.0
C532 C 0.17189 0.07349 0.02134 0.0
C533 C 0.16687 0.10914 0.04187 0.0
C534 C 0.14345 0.13889 0.98377 0.0
H535 H 0.11146 0.15292 0.05235 0.0
C536 C 0.07183 0.18019 0.97729 0.0
C537 C 0.07475 0.1983 0.99984 0.0
C538 C 0.08767 0.16859 0.97767 0.0
C539 C 0.12064 0.14943 0.03307 0.0
H540 H 0.15452 0.06019 0.97683 0.0
H541 H 0.13825 0.09045 0.9723 0.0
H542 H 0.13115 0.12531 0.05888 0.0
H543 H 0.09824 0.22035 0.03855 0.0
H544 H 0.12557 0.20018 0.03911 0.0
H545 H 0.13186 0.16226 0.95778 0.0
C546 C 0.14911 0.09135 0.99249 0.0
C547 C 0.13202 0.1337 0.03684 0.0
C548 C 0.15829 0.07374 0.99526 0.0
C549 C 0.09514 0.20613 0.02116 0.0
C550 C 0.11079 0.19454 0.02159 0.0
C551 C 0.13177 0.15439 0.97993 0.0
C552 C 0.15347 0.10946 0.01556 0.0
C553 C 0.1433 0.12796 0.01216 0.0
C554 C 0.10656 0.17496 1.0006 0.0
C555 C 0.12012 0.15965 0.00452 0.0
H556 H 0.18641 0.09157 0.06509 0.0
H557 H 0.1707 0.12296 0.06003 0.0
H558 H 0.15245 0.13533 0.96438 0.0
H559 H 0.05628 0.17374 0.9606 0.0
H560 H 0.08406 0.15352 0.96119 0.0
C561 C 0.84687 0.92947 0.02448 0.0
C562 C 0.85579 0.9176 0.00373 0.0
C563 C 0.85858 0.95675 0.02599 0.0
C564 C 0.9215 0.01596 0.01266 0.0
H565 H 0.88198 0.05193 0.02482 0.0
C566 C 0.9721 0.12499 0.04874 0.0
C567 C 0.96578 0.14057 0.03042 0.0
C568 C 0.95701 0.09751 0.04719 0.0
C569 C 0.89327 0.04214 0.02147 0.0
H570 H 0.8832 0.92482 0.96736 0.0
H571 H 0.90396 0.97292 0.97005 0.0
H572 H 0.85861 0.00468 0.01467 0.0
H573 H 0.93775 0.13978 0.99786 0.0
H574 H 0.91134 0.09208 0.99553 0.0
H575 H 0.95617 0.05345 0.01935 0.0
C576 C 0.8879 0.96096 0.98522 0.0
C577 C 0.87991 0.01512 0.01571 0.0
C578 C 0.87588 0.93351 0.98345 0.0
C579 C 0.94316 0.12826 0.01214 0.0
C580 C 0.92797 0.10093 0.01087 0.0
C581 C 0.93486 0.04296 0.01867 0.0
C582 C 0.87968 0.97282 0.00694 0.0
C583 C 0.89388 0.00175 0.01122 0.0
C584 C 0.93517 0.08524 0.02766 0.0
C585 C 0.92089 0.05633 0.02311 0.0
H586 H 0.83127 0.91767 0.0402 0.0
H587 H 0.85189 0.96528 0.04304 0.0
H588 H 0.93277 0.00611 0.0097 0.0
H589 H 0.98952 0.13395 0.06287 0.0
H590 H 0.9628 0.08585 0.06067 0.0
C591 C 0.92037 0.8623 0.0444 0.0
C592 C 0.90459 0.85287 0.01836 0.0
C593 C 0.94714 0.8701 0.04311 0.0
C594 C 0.00074 0.89715 0.98871 0.0
H595 H 0.04001 0.88511 0.05093 0.0
C596 C 0.11385 0.95013 0.98498 0.0
C597 C 0.12606 0.96158 0.0126 0.0
C598 C 0.087 0.93129 0.98406 0.0
C599 C 0.02932 0.8887 0.03337 0.0
H600 H 0.90437 0.84271 0.97103 0.0
H601 H 0.95064 0.85622 0.96904 0.0
H602 H 0.99202 0.86269 0.05377 0.0
H603 H 0.11974 0.96118 0.06106 0.0
H604 H 0.07351 0.92921 0.05928 0.0
H605 H 0.03782 0.9241 0.96905 0.0
C606 C 0.94246 0.85793 0.99027 0.0
C607 C 0.00188 0.87585 0.03506 0.0
C608 C 0.91586 0.85012 0.99153 0.0
C609 C 0.11114 0.95291 0.03929 0.0
C610 C 0.08449 0.93425 0.03835 0.0
C611 C 0.02814 0.91018 0.98719 0.0
C612 C 0.95853 0.86865 0.01577 0.0
C613 C 0.98738 0.88032 0.013 0.0
C614 C 0.07191 0.92359 0.01072 0.0
C615 C 0.04282 0.90658 0.00985 0.0
H616 H 0.91233 0.86465 0.0654 0.0
H617 H 0.95917 0.87843 0.0631 0.0
H618 H 0.99007 0.90118 0.97154 0.0
H619 H 0.12478 0.95629 0.96403 0.0
H620 H 0.07795 0.9232 0.96241 0.0
C621 C 0.83644 0.4132 0.32154 0.0
C622 C 0.84098 0.4074 0.35106 0.0
C623 C 0.82656 0.43008 0.31666 0.0
C624 C 0.81778 0.48198 0.35124 0.0
H625 H 0.7575 0.45617 0.29761 0.0
C626 C 0.74518 0.5198 0.35565 0.0
C627 C 0.73211 0.52058 0.32932 0.0
C628 C 0.76238 0.51001 0.35491 0.0
C629 C 0.77467 0.46401 0.3121 0.0
H630 H 0.83935 0.41554 0.39855 0.0
H631 H 0.82206 0.44523 0.3899 0.0
H632 H 0.77999 0.4311 0.3037 0.0
H633 H 0.72793 0.51268 0.28118 0.0
H634 H 0.75845 0.49571 0.27981 0.0
H635 H 0.81235 0.51478 0.35988 0.0
C636 C 0.82631 0.43664 0.3706 0.0
C637 C 0.78747 0.44956 0.31572 0.0
C638 C 0.83609 0.41956 0.37556 0.0
C639 C 0.73763 0.51234 0.30187 0.0
C640 C 0.75497 0.50246 0.30113 0.0
C641 C 0.80512 0.49657 0.34742 0.0
C642 C 0.82109 0.44173 0.3411 0.0
C643 C 0.80882 0.45813 0.33578 0.0
C644 C 0.76715 0.50075 0.32781 0.0
C645 C 0.78302 0.48744 0.32835 0.0
H646 H 0.84006 0.40437 0.30202 0.0
H647 H 0.82304 0.43389 0.29368 0.0
H648 H 0.83446 0.48927 0.36644 0.0
H649 H 0.7415 0.5259 0.37728 0.0
H650 H 0.77099 0.50861 0.37598 0.0
C651 C 0.52358 0.25345 0.36784 0.0
C652 C 0.51671 0.23858 0.341 0.0
C653 C 0.5328 0.28036 0.36715 0.0
C654 C 0.56519 0.33763 0.31709 0.0
H655 H 0.54928 0.37177 0.38212 0.0
C656 C 0.60733 0.44906 0.3186 0.0
C657 C 0.6198 0.46209 0.34557 0.0
C658 C 0.59133 0.42183 0.31782 0.0
C659 C 0.55395 0.36248 0.36391 0.0
H660 H 0.51373 0.24048 0.29235 0.0
H661 H 0.52965 0.28779 0.29118 0.0
H662 H 0.52669 0.3238 0.37968 0.0
H663 H 0.62407 0.45661 0.39327 0.0
H664 H 0.59588 0.40868 0.39185 0.0
H665 H 0.59253 0.37631 0.30142 0.0
C666 C 0.52812 0.27844 0.31275 0.0
C667 C 0.54105 0.33504 0.36247 0.0
C668 C 0.5189 0.25134 0.31341 0.0
C669 C 0.61477 0.44723 0.37215 0.0
C670 C 0.59861 0.41981 0.37134 0.0
C671 C 0.57792 0.36503 0.31841 0.0
C672 C 0.53535 0.29327 0.33965 0.0
C673 C 0.54685 0.32229 0.33932 0.0
C674 C 0.5873 0.40685 0.34396 0.0
C675 C 0.57269 0.37774 0.34204 0.0
H676 H 0.52232 0.24448 0.3896 0.0
H677 H 0.53868 0.29116 0.38824 0.0
H678 H 0.57048 0.32852 0.29927 0.0
H679 H 0.6105 0.45975 0.29766 0.0
H680 H 0.5825 0.41243 0.29653 0.0
C681 C 0.58401 0.18462 0.37725 0.0
C682 C 0.56834 0.17657 0.35106 0.0
C683 C 0.61099 0.19355 0.37542 0.0
C684 C 0.66481 0.22517 0.321 0.0
H685 H 0.70516 0.21405 0.38265 0.0
C686 C 0.77852 0.28233 0.32049 0.0
C687 C 0.78953 0.29392 0.34851 0.0
C688 C 0.75191 0.26288 0.31845 0.0
C689 C 0.69413 0.21728 0.3652 0.0
H690 H 0.56859 0.17015 0.3027 0.0
H691 H 0.61522 0.1853 0.29979 0.0
H692 H 0.65713 0.1891 0.38446 0.0
H693 H 0.78118 0.29352 0.39644 0.0
H694 H 0.73546 0.26019 0.39276 0.0
H695 H 0.70169 0.2541 0.30243 0.0
C696 C 0.60681 0.18519 0.32158 0.0
C697 C 0.66667 0.20305 0.36631 0.0
C698 C 0.57999 0.17637 0.32336 0.0
C699 C 0.77358 0.28507 0.37444 0.0
C700 C 0.74725 0.26569 0.37242 0.0
C701 C 0.69225 0.23945 0.31995 0.0
C702 C 0.62275 0.19454 0.3474 0.0
C703 C 0.65174 0.2073 0.34461 0.0
C704 C 0.73597 0.25458 0.34442 0.0
C705 C 0.7072 0.23618 0.34251 0.0
H706 H 0.5757 0.18505 0.39891 0.0
H707 H 0.62284 0.20083 0.39571 0.0
H708 H 0.65386 0.22911 0.30411 0.0
H709 H 0.79024 0.28867 0.3001 0.0
H710 H 0.74373 0.25458 0.29654 0.0
C711 C 0.4034 0.83915 0.64504 0.0
C712 C 0.38547 0.83392 0.66863 0.0
C713 C 0.42002 0.82838 0.64565 0.0
C714 C 0.42712 0.77521 0.68125 0.0
H715 H 0.50194 0.82093 0.66832 0.0
C716 C 0.5002 0.74157 0.71319 0.0
C717 C 0.51824 0.74483 0.69046 0.0
C718 C 0.48584 0.75464 0.71126 0.0
C719 C 0.48106 0.80791 0.67185 0.0
H720 H 0.37017 0.81245 0.71059 0.0
H721 H 0.39876 0.79399 0.71159 0.0
H722 H 0.47181 0.83775 0.65987 0.0
H723 H 0.53695 0.76609 0.6493 0.0
H724 H 0.51199 0.78872 0.64605 0.0
H725 H 0.43619 0.74542 0.69335 0.0
C726 C 0.40013 0.80625 0.69261 0.0
C727 C 0.46383 0.81747 0.66679 0.0
C728 C 0.38383 0.81706 0.69212 0.0
C729 C 0.52306 0.76294 0.6671 0.0
C730 C 0.50882 0.77605 0.66526 0.0
C731 C 0.44429 0.76569 0.68635 0.0
C732 C 0.41861 0.81196 0.66963 0.0
C733 C 0.4367 0.80128 0.67179 0.0
C734 C 0.48939 0.77133 0.68671 0.0
C735 C 0.47147 0.78199 0.68202 0.0
H736 H 0.40513 0.85214 0.62671 0.0
H737 H 0.43402 0.83297 0.62753 0.0
H738 H 0.40626 0.76213 0.68485 0.0
H739 H 0.49605 0.72781 0.7315 0.0
H740 H 0.4713 0.751 0.72845 0.0
C741 C 0.26239 0.78733 0.65855 0.0
C742 C 0.27658 0.79844 0.68535 0.0
C743 C 0.24393 0.76062 0.65693 0.0
C744 C 0.20687 0.69909 0.70097 0.0
H745 H 0.22144 0.668 0.63165 0.0
C746 C 0.18779 0.59371 0.70068 0.0
C747 C 0.1803 0.57881 0.67386 0.0
C748 C 0.19335 0.61968 0.70077 0.0
C749 C 0.21658 0.67627 0.65076 0.0
H750 H 0.28081 0.79052 0.73224 0.0
H751 H 0.24881 0.74356 0.72924 0.0
H752 H 0.24173 0.71547 0.63523 0.0
H753 H 0.17208 0.57951 0.62619 0.0
H754 H 0.18185 0.62521 0.62638 0.0
H755 H 0.18233 0.65975 0.7169 0.0
C756 C 0.2519 0.75568 0.70953 0.0
C757 C 0.22827 0.70354 0.65287 0.0
C758 C 0.27032 0.78258 0.71123 0.0
C759 C 0.1779 0.59044 0.64719 0.0
C760 C 0.18353 0.61661 0.6473 0.0
C761 C 0.19507 0.67174 0.6988 0.0
C762 C 0.23933 0.74428 0.68198 0.0
C763 C 0.22405 0.71529 0.67832 0.0
C764 C 0.1916 0.63158 0.67407 0.0
C765 C 0.2004 0.66008 0.67406 0.0
H766 H 0.26641 0.79894 0.63823 0.0
H767 H 0.23412 0.75252 0.63559 0.0
H768 H 0.20299 0.70757 0.72063 0.0
H769 H 0.18996 0.58557 0.72171 0.0
H770 H 0.20001 0.63073 0.72165 0.0
C771 C 0.25763 0.53836 0.6469 0.0
C772 C 0.24548 0.53006 0.67533 0.0
C773 C 0.28461 0.54864 0.64368 0.0
C774 C 0.34277 0.55154 0.67778 0.0
H775 H 0.38075 0.61804 0.63532 0.0
C776 C 0.45433 0.61928 0.6883 0.0
C777 C 0.46873 0.63597 0.66428 0.0
C778 C 0.4272 0.60293 0.68621 0.0
C779 C 0.37047 0.59919 0.64662 0.0
H780 H 0.25233 0.52553 0.72254 0.0
H781 H 0.29983 0.54349 0.71674 0.0
H782 H 0.33309 0.59639 0.63954 0.0
H783 H 0.46595 0.64719 0.61834 0.0
H784 H 0.41833 0.61802 0.6144 0.0
H785 H 0.3801 0.55426 0.68486 0.0
C786 C 0.28816 0.5419 0.69703 0.0
C787 C 0.34315 0.58688 0.64923 0.0
C788 C 0.26103 0.53174 0.70036 0.0
C789 C 0.45547 0.63467 0.63731 0.0
C790 C 0.42815 0.61813 0.63517 0.0
C791 C 0.3701 0.56371 0.67489 0.0
C792 C 0.3002 0.55077 0.6687 0.0
C793 C 0.32908 0.56314 0.66519 0.0
C794 C 0.41362 0.60261 0.65994 0.0
C795 C 0.38435 0.58793 0.65972 0.0
H796 H 0.2464 0.53731 0.62699 0.0
H797 H 0.29331 0.55502 0.62152 0.0
H798 H 0.33233 0.53304 0.68979 0.0
H799 H 0.4638 0.61958 0.70943 0.0
H800 H 0.41675 0.59158 0.70589 0.0
C801 C 0.06245 0.27717 0.90798 0.0
C802 C 0.07068 0.28226 0.93831 0.0
C803 C 0.07626 0.29568 0.88558 0.0
C804 C 0.11732 0.36576 0.87364 0.0
H805 H 0.13394 0.34569 0.79688 0.0
C806 C 0.16824 0.44262 0.78102 0.0
C807 C 0.15932 0.43519 0.75126 0.0
C808 C 0.16112 0.42375 0.8036 0.0
C809 C 0.12922 0.35159 0.81805 0.0
H810 H 0.09997 0.31071 0.96889 0.0
H811 H 0.1239 0.34355 0.92955 0.0
H812 H 0.11443 0.31324 0.83732 0.0
H813 H 0.13681 0.40222 0.72135 0.0
H814 H 0.12333 0.36899 0.76114 0.0
H815 H 0.13076 0.40361 0.85432 0.0
C816 C 0.10679 0.32504 0.92328 0.0
C817 C 0.11819 0.33303 0.84125 0.0
C818 C 0.09315 0.30628 0.94574 0.0
C819 C 0.14402 0.40839 0.74414 0.0
C820 C 0.1364 0.38941 0.76697 0.0
C821 C 0.12799 0.3842 0.85039 0.0
C822 C 0.09845 0.31985 0.89298 0.0
C823 C 0.11199 0.33992 0.86919 0.0
C824 C 0.14434 0.39695 0.79716 0.0
C825 C 0.134 0.37736 0.8222 0.0
H826 H 0.04533 0.25878 0.90142 0.0
H827 H 0.06922 0.29129 0.86249 0.0
H828 H 0.11233 0.37148 0.89477 0.0
H829 H 0.18039 0.46319 0.78701 0.0
H830 H 0.16836 0.43031 0.82629 0.0
C831 C 0.73513 0.82467 0.95452 0.0
C832 C 0.76077 0.83318 0.94431 0.0
C833 C 0.71469 0.81789 0.93369 0.0
C834 C 0.70008 0.82502 0.85426 0.0
H835 H 0.64245 0.75341 0.86201 0.0
C836 C 0.63117 0.76813 0.75422 0.0
C837 C 0.60518 0.74876 0.76068 0.0
C838 C 0.64897 0.78136 0.77777 0.0
C839 C 0.658 0.77366 0.85968 0.0
H840 H 0.78556 0.84285 0.90464 0.0
H841 H 0.75016 0.83159 0.86856 0.0
H842 H 0.67496 0.77258 0.90213 0.0
H843 H 0.5769 0.72917 0.79658 0.0
H844 H 0.60734 0.75285 0.83731 0.0
H845 H 0.68324 0.82619 0.81179 0.0
C846 C 0.7457 0.82991 0.89246 0.0
C847 C 0.67666 0.78461 0.88277 0.0
C848 C 0.76591 0.83615 0.91314 0.0
C849 C 0.59699 0.74368 0.79093 0.0
C850 C 0.61453 0.75718 0.81433 0.0
C851 C 0.68118 0.81421 0.83131 0.0
C852 C 0.7198 0.82015 0.90245 0.0
C853 C 0.69815 0.81019 0.88003 0.0
C854 C 0.64094 0.77577 0.80818 0.0
C855 C 0.66013 0.78819 0.83345 0.0
H856 H 0.73069 0.82218 0.97844 0.0
H857 H 0.69484 0.81043 0.94191 0.0
H858 H 0.71645 0.84486 0.85169 0.0
H859 H 0.63796 0.77239 0.73108 0.0
H860 H 0.6692 0.79531 0.77209 0.0
C861 C 0.28059 0.90355 0.75344 0.0
C862 C 0.29866 0.89509 0.75935 0.0
C863 C 0.27035 0.91144 0.77722 0.0
C864 C 0.28309 0.93202 0.85819 0.0
H865 H 0.21166 0.91927 0.85496 0.0
C866 C 0.2327 0.95459 0.95772 0.0
C867 C 0.22318 0.97131 0.94906 0.0
C868 C 0.24062 0.94283 0.93569 0.0
C869 C 0.23161 0.92282 0.85616 0.0
H870 H 0.31945 0.88736 0.79489 0.0
H871 H 0.30108 0.90004 0.83593 0.0
H872 H 0.22816 0.90401 0.81368 0.0
H873 H 0.2134 0.98789 0.91072 0.0
H874 H 0.22667 0.9671 0.87269 0.0
H875 H 0.28626 0.95055 0.90093 0.0
C876 C 0.29545 0.90167 0.81308 0.0
C877 C 0.24118 0.91434 0.83239 0.0
C878 C 0.30594 0.89426 0.78943 0.0
C879 C 0.22098 0.97539 0.91815 0.0
C880 C 0.22832 0.96329 0.89631 0.0
C881 C 0.27336 0.9401 0.88214 0.0
C882 C 0.2777 0.9106 0.80738 0.0
C883 C 0.26717 0.91909 0.83292 0.0
C884 C 0.23844 0.94711 0.90481 0.0
C885 C 0.24767 0.93588 0.88115 0.0
H886 H 0.27463 0.90438 0.73049 0.0
H887 H 0.25699 0.91853 0.77189 0.0
H888 H 0.30335 0.93652 0.85923 0.0
H889 H 0.23453 0.95111 0.98139 0.0
H890 H 0.24838 0.93037 0.94272 0.0
C891 C 0.39764 0.14898 0.28985 0.0
C892 C 0.42228 0.15361 0.27983 0.0
C893 C 0.37773 0.14408 0.26891 0.0
C894 C 0.3657 0.15208 0.18881 0.0
H895 H 0.30048 0.08614 0.19857 0.0
C896 C 0.29316 0.09993 0.08984 0.0
C897 C 0.2664 0.08396 0.09666 0.0
C898 C 0.31158 0.11214 0.11314 0.0
C899 C 0.31827 0.10494 0.19566 0.0
H900 H 0.44588 0.15814 0.24017 0.0
H901 H 0.41148 0.15001 0.20397 0.0
H902 H 0.33326 0.10168 0.23859 0.0
H903 H 0.23755 0.06981 0.13266 0.0
H904 H 0.26922 0.09193 0.17286 0.0
H905 H 0.35085 0.15537 0.14582 0.0
C906 C 0.40738 0.14993 0.22783 0.0
C907 C 0.33707 0.11379 0.21868 0.0
C908 C 0.42698 0.1543 0.24863 0.0
C909 C 0.25818 0.08164 0.12682 0.0
C910 C 0.27639 0.0942 0.14992 0.0
C911 C 0.34673 0.14341 0.16589 0.0
C912 C 0.38245 0.1444 0.2377 0.0
C913 C 0.36117 0.13715 0.21524 0.0
C914 C 0.30343 0.10895 0.14357 0.0
C915 C 0.32294 0.11946 0.16877 0.0
H916 H 0.39355 0.14839 0.31377 0.0
H917 H 0.35862 0.13985 0.27705 0.0
H918 H 0.38411 0.17028 0.18569 0.0
H919 H 0.29995 0.10194 0.06673 0.0
H920 H 0.33225 0.12316 0.10734 0.0
C921 C 0.94459 0.22982 0.09313 0.0
C922 C 0.96637 0.22652 0.0984 0.0
C923 C 0.9331 0.23613 0.11708 0.0
C924 C 0.95016 0.26596 0.19327 0.0
H925 H 0.87521 0.239 0.20129 0.0
C926 C 0.90846 0.31197 0.27459 0.0
C927 C 0.8849 0.29544 0.28995 0.0
C928 C 0.91792 0.30186 0.25259 0.0
C929 C 0.89617 0.24645 0.19954 0.0
H930 H 0.99204 0.22554 0.13312 0.0
H931 H 0.97187 0.23589 0.17445 0.0
H932 H 0.8916 0.22391 0.15954 0.0
H933 H 0.85329 0.25509 0.29491 0.0
H934 H 0.87018 0.23731 0.25666 0.0
H935 H 0.95486 0.28816 0.23332 0.0
C936 C 0.96413 0.23455 0.15189 0.0
C937 C 0.90557 0.23808 0.17539 0.0
C938 C 0.97566 0.22853 0.12811 0.0
C939 C 0.87154 0.26834 0.28356 0.0
C940 C 0.88104 0.2582 0.26141 0.0
C941 C 0.94081 0.27425 0.21732 0.0
C942 C 0.94311 0.23904 0.14666 0.0
C943 C 0.9327 0.24777 0.172 0.0
C944 C 0.90415 0.27494 0.24538 0.0
C945 C 0.91374 0.26476 0.22068 0.0
H946 H 0.93698 0.22832 0.07046 0.0
H947 H 0.91696 0.23955 0.11229 0.0
H948 H 0.97121 0.27415 0.19114 0.0
H949 H 0.91927 0.33295 0.27888 0.0
H950 H 0.93562 0.31538 0.24048 0.0
C951 C 0.74843 0.63595 0.27487 0.0
C952 C 0.7311 0.6098 0.26643 0.0
C953 C 0.76101 0.65536 0.25268 0.0
C954 C 0.7542 0.66708 0.17129 0.0
H955 H 0.82376 0.72771 0.18211 0.0
C956 C 0.80656 0.74447 0.07734 0.0
C957 C 0.81536 0.77038 0.08683 0.0
C958 C 0.79869 0.72428 0.09866 0.0
C959 C 0.80433 0.71081 0.17882 0.0
H960 H 0.71465 0.58304 0.22843 0.0
H961 H 0.7372 0.6163 0.19016 0.0
H962 H 0.80558 0.69366 0.22102 0.0
H963 H 0.82402 0.7957 0.12599 0.0
H964 H 0.81067 0.76064 0.16292 0.0
H965 H 0.75309 0.68419 0.12902 0.0
C966 C 0.74033 0.62233 0.21362 0.0
C967 C 0.79382 0.6914 0.20118 0.0
C968 C 0.72749 0.60317 0.23563 0.0
C969 C 0.81709 0.77587 0.11794 0.0
C970 C 0.80967 0.75585 0.13914 0.0
C971 C 0.76485 0.68626 0.14882 0.0
C972 C 0.75676 0.6488 0.22173 0.0
C973 C 0.76851 0.66935 0.19781 0.0
C974 C 0.80002 0.7298 0.12975 0.0
C975 C 0.78989 0.70843 0.15246 0.0
H976 H 0.75153 0.64153 0.29848 0.0
H977 H 0.77338 0.67557 0.25981 0.0
H978 H 0.73441 0.65076 0.16811 0.0
H979 H 0.80505 0.73971 0.05352 0.0
H980 H 0.79139 0.70432 0.09087 0.0
C981 C 0.06572 0.48182 0.62438 0.0
C982 C 0.08996 0.48587 0.61358 0.0
C983 C 0.04495 0.47568 0.60423 0.0
C984 C 0.03092 0.48143 0.52455 0.0
H985 H 0.96469 0.41709 0.53712 0.0
C986 C 0.95583 0.42922 0.4282 0.0
C987 C 0.92909 0.41437 0.43565 0.0
C988 C 0.97478 0.44125 0.45099 0.0
C989 C 0.98279 0.43545 0.53345 0.0
H990 H 0.11162 0.48736 0.57317 0.0
H991 H 0.07577 0.47709 0.53843 0.0
H992 H -0.00148 0.43251 0.57606 0.0
H993 H 0.90092 0.40194 0.4723 0.0
H994 H 0.93362 0.42371 0.51169 0.0
H995 H 0.01539 0.48448 0.48197 0.0
C996 C 0.0727 0.4785 0.56232 0.0
C997 C 0.00218 0.44421 0.55583 0.0
C998 C 0.09315 0.48411 0.58235 0.0
C999 C 0.92149 0.41293 0.46597 0.0
C1000 C 0.94028 0.42528 0.4886 0.0
C1001 C 0.01141 0.47288 0.50232 0.0
C1002 C 0.04839 0.47415 0.573 0.0
C1003 C 0.02661 0.46695 0.5513 0.0
C1004 C 0.96723 0.43898 0.48158 0.0
C1005 C 0.98727 0.44947 0.5062 0.0
H1006 H 0.06275 0.4831 0.64831 0.0
H1007 H 0.0263 0.47234 0.61296 0.0
H1008 H 0.04958 0.49918 0.52066 0.0
H1009 H 0.96218 0.43054 0.40499 0.0
H1010 H 0.99535 0.45141 0.4447 0.0
C1011 C 0.60553 0.56414 0.40924 0.0
C1012 C 0.61869 0.55031 0.41563 0.0
C1013 C 0.59454 0.57147 0.43276 0.0
C1014 C 0.60112 0.58188 0.51601 0.0
H1015 H 0.54099 0.59165 0.50587 0.0
C1016 C 0.55935 0.61694 0.61282 0.0
C1017 C 0.55713 0.63893 0.60498 0.0
C1018 C 0.56405 0.60289 0.59048 0.0
C1019 C 0.55776 0.5889 0.50899 0.0
H1020 H 0.62902 0.53149 0.4509 0.0
H1021 H 0.60881 0.54293 0.49142 0.0
H1022 H 0.55349 0.57225 0.46492 0.0
H1023 H 0.55728 0.66292 0.56755 0.0
H1024 H 0.56509 0.63828 0.52888 0.0
H1025 H 0.60521 0.59844 0.56015 0.0
C1026 C 0.60791 0.54932 0.46874 0.0
C1027 C 0.56506 0.57797 0.48548 0.0
C1028 C 0.61931 0.54255 0.44546 0.0
C1029 C 0.55914 0.64622 0.57442 0.0
C1030 C 0.56334 0.63197 0.55217 0.0
C1031 C 0.59357 0.59242 0.53962 0.0
C1032 C 0.59613 0.56464 0.46294 0.0
C1033 C 0.58708 0.57465 0.4885 0.0
C1034 C 0.56602 0.61029 0.55995 0.0
C1035 C 0.57211 0.59642 0.53617 0.0
H1036 H 0.60491 0.57042 0.3864 0.0
H1037 H 0.58583 0.58344 0.42737 0.0
H1038 H 0.61854 0.58024 0.51907 0.0
H1039 H 0.55783 0.61085 0.63617 0.0
H1040 H 0.56604 0.58619 0.59701 0.0
C1041 C 0.42602 0.9612 0.61598 0.0
C1042 C 0.40602 0.93629 0.60661 0.0
C1043 C 0.43985 0.98101 0.59458 0.0
C1044 C 0.45614 0.99341 0.51355 0.0
H1045 H 0.4522 0.0566 0.52606 0.0
C1046 C 0.47132 0.066 0.41648 0.0
C1047 C 0.48173 0.09261 0.42389 0.0
C1048 C 0.46577 0.04739 0.43932 0.0
C1049 C 0.45409 0.03941 0.52233 0.0
H1050 H 0.38589 0.91196 0.56769 0.0
H1051 H 0.41023 0.94621 0.53062 0.0
H1052 H 0.438 0.02386 0.56585 0.0
H1053 H 0.49624 0.12097 0.46051 0.0
H1054 H 0.48778 0.08904 0.49983 0.0
H1055 H 0.47223 0.00888 0.47 0.0
C1056 C 0.41513 0.95062 0.5543 0.0
C1057 C 0.44589 0.02062 0.54523 0.0
C1058 C 0.40104 0.93109 0.57558 0.0
C1059 C 0.48765 0.10047 0.4542 0.0
C1060 C 0.48266 0.08209 0.47681 0.0
C1061 C 0.46473 0.0124 0.49073 0.0
C1062 C 0.43426 0.97592 0.56357 0.0
C1063 C 0.44641 0.99725 0.54089 0.0
C1064 C 0.47103 0.0552 0.46987 0.0
C1065 C 0.46343 0.0355 0.49464 0.0
H1066 H 0.43019 0.96566 0.63977 0.0
H1067 H 0.45457 0.00041 0.60226 0.0
H1068 H 0.45681 0.97553 0.5097 0.0
H1069 H 0.46661 0.05948 0.39326 0.0
H1070 H 0.45661 0.02684 0.43308 0.0
loop_
_geom_bond_atom_site_label_1
_geom_bond_atom_site_label_2
_geom_bond_distance
_geom_bond_site_symmetry_2
_ccdc_geom_bond_type
Co0 O2 2.143 . S
Co0 O8 2.074 . S
Co0 O11 2.093 1_455 S
Co0 O24 2.097 1_455 S
Co0 N41 2.151 . S
Co0 N49 2.214 . S
Co1 O2 2.160 1_556 S
Co1 O7 2.058 . S
Co1 O17 2.057 . S
Co1 O32 2.037 1_455 S
Co1 N36 2.145 . S
Co1 N57 2.257 1_455 S
O2 Co0 2.143 . S
O2 Co1 2.160 1_554 S
C3 O4 1.278 . S
C3 O11 1.224 . S
O4 C3 1.278 . S
C5 O6 1.245 . S
C5 O17 1.232 . S
O6 C5 1.245 . S
O7 Co1 2.058 . S
O7 C33 1.269 1_556 S
O8 Co0 2.074 . S
O8 C33 1.257 . S
H9 C34 0.934 1_655 S
H10 C40 0.930 . S
O11 Co0 2.093 1_655 S
O11 C3 1.224 . S
H12 C44 0.929 . S
H13 C46 0.930 . S
H14 C47 0.930 . S
H15 C45 0.929 . S
H16 C48 0.928 . S
O17 Co1 2.057 . S
O17 C5 1.232 . S
H18 C37 0.929 . S
H19 C38 0.929 . S
H20 C50 0.931 . S
H21 C42 0.929 . S
H22 C51 0.930 . S
H23 C43 0.931 . S
O24 Co0 2.097 1_655 S
O24 C52 1.214 . S
H25 C53 0.929 . S
H26 C54 0.929 . S
H27 C55 0.930 . S
H28 C56 0.929 . S
H29 C58 0.930 . S
H30 C35 0.930 . S
H31 C39 0.930 1_655 S
O32 Co1 2.037 1_655 S
O32 C52 1.234 1_556 S
C33 O7 1.269 1_554 S
C33 O8 1.257 . S
C34 H9 0.934 1_455 S
C34 C37 1.386 . S
C34 C39 1.415 . S
C35 H30 0.930 . S
C35 C38 1.404 . S
C35 C39 1.353 . S
N36 Co1 2.145 . S
N36 C37 1.397 . S
N36 C38 1.334 . S
C37 H18 0.929 . S
C37 C34 1.386 . S
C37 N36 1.397 . S
C38 H19 0.929 . S
C38 C35 1.404 . S
C38 N36 1.334 . S
C39 H31 0.930 1_455 S
C39 C34 1.415 . S
C39 C35 1.353 . S
C40 H10 0.930 . S
C40 N41 1.330 . S
C40 C42 1.446 . S
N41 Co0 2.151 . S
N41 C40 1.330 . S
N41 C45 1.418 . S
C42 H21 0.929 . S
C42 C40 1.446 . S
C42 C43 1.332 . S
C43 H23 0.931 . S
C43 C42 1.332 . S
C43 C44 1.267 . S
C44 H12 0.929 . S
C44 C43 1.267 . S
C44 C45 1.251 . S
C45 H15 0.929 . S
C45 N41 1.418 . S
C45 C44 1.251 . S
C46 H13 0.930 . S
C46 C48 1.406 . S
C46 C51 1.261 . S
C47 H14 0.930 . S
C47 N49 1.325 . S
C47 C50 1.357 . S
C48 H16 0.928 . S
C48 C46 1.406 . S
C48 N49 1.261 . S
N49 Co0 2.214 . S
N49 C47 1.325 . S
N49 C48 1.261 . S
C50 H20 0.931 . S
C50 C47 1.357 . S
C50 C51 1.312 . S
C51 H22 0.930 . S
C51 C46 1.261 . S
C51 C50 1.312 . S
C52 O24 1.214 . S
C52 O32 1.234 1_554 S
C53 H25 0.929 . S
C53 C56 1.391 . S
C53 C58 1.391 . S
C54 H26 0.929 . S
C54 C55 1.390 . S
C54 N57 1.391 . S
C55 H27 0.930 . S
C55 C54 1.390 . S
C55 C56 1.392 . S
C56 H28 0.929 . S
C56 C53 1.391 . S
C56 C55 1.392 . S
N57 Co1 2.257 1_655 S
N57 C54 1.391 . S
N57 C58 1.388 . S
C58 H29 0.930 . S
C58 C53 1.391 . S
C58 N57 1.388 . S
Co59 O61 2.143 1_556 S
Co59 O67 2.074 . S
Co59 O70 2.093 . S
Co59 O83 2.097 . S
Co59 N100 2.151 . S
Co59 N108 2.214 . S
Co60 O61 2.160 . S
Co60 O66 2.058 . S
Co60 O76 2.057 . S
Co60 O91 2.037 . S
Co60 N95 2.145 . S
Co60 N116 2.257 . S
O61 Co59 2.143 1_554 S
O61 Co60 2.160 . S
C62 O63 1.278 . S
C62 O70 1.224 . S
O63 C62 1.278 . S
C64 O65 1.245 . S
C64 O76 1.232 . S
O65 C64 1.245 . S
O66 Co60 2.058 . S
O66 C92 1.269 . S
O67 Co59 2.074 . S
O67 C92 1.257 1_556 S
H68 C93 0.930 . S
H69 C99 0.930 . S
O70 Co59 2.093 . S
O70 C62 1.224 . S
H71 C103 0.929 . S
H72 C105 0.930 . S
H73 C106 0.930 . S
H74 C104 0.929 . S
H75 C107 0.928 . S
O76 Co60 2.057 . S
O76 C64 1.232 . S
H77 C96 0.929 . S
H78 C97 0.929 . S
H79 C109 0.931 . S
H80 C101 0.929 . S
H81 C110 0.930 . S
H82 C102 0.931 . S
O83 Co59 2.097 . S
O83 C111 1.214 1_556 S
H84 C112 0.929 . S
H85 C113 0.929 . S
H86 C114 0.930 . S
H87 C115 0.929 . S
H88 C117 0.930 . S
H89 C94 0.930 . S
H90 C98 0.930 . S
O91 Co60 2.037 . S
O91 C111 1.234 . S
C92 O66 1.269 . S
C92 O67 1.257 1_554 S
C93 H68 0.930 . S
C93 C96 1.388 . S
C93 C98 1.418 . S
C94 H89 0.930 . S
C94 C97 1.404 . S
C94 C98 1.353 . S
N95 Co60 2.145 . S
N95 C96 1.397 . S
N95 C97 1.334 . S
C96 H77 0.929 . S
C96 C93 1.388 . S
C96 N95 1.397 . S
C97 H78 0.929 . S
C97 C94 1.404 . S
C97 N95 1.334 . S
C98 H90 0.930 . S
C98 C93 1.418 . S
C98 C94 1.353 . S
C99 H69 0.930 . S
C99 N100 1.330 . S
C99 C101 1.446 . S
N100 Co59 2.151 . S
N100 C99 1.330 . S
N100 C104 1.418 . S
C101 H80 0.929 . S
C101 C99 1.446 . S
C101 C102 1.332 . S
C102 H82 0.931 . S
C102 C101 1.332 . S
C102 C103 1.267 . S
C103 H71 0.929 . S
C103 C102 1.267 . S
C103 C104 1.251 . S
C104 H74 0.929 . S
C104 N100 1.418 . S
C104 C103 1.251 . S
C105 H72 0.930 . S
C105 C107 1.406 . S
C105 C110 1.261 . S
C106 H73 0.930 . S
C106 N108 1.325 . S
C106 C109 1.357 . S
C107 H75 0.928 . S
C107 C105 1.406 . S
C107 N108 1.261 . S
N108 Co59 2.214 . S
N108 C106 1.325 . S
N108 C107 1.261 . S
C109 H79 0.931 . S
C109 C106 1.357 . S
C109 C110 1.312 . S
C110 H81 0.930 . S
C110 C105 1.261 . S
C110 C109 1.312 . S
C111 O83 1.214 1_554 S
C111 O91 1.234 . S
C112 H84 0.929 . S
C112 C115 1.391 . S
C112 C117 1.391 . S
C113 H85 0.929 . S
C113 C114 1.390 . S
C113 N116 1.391 . S
C114 H86 0.930 . S
C114 C113 1.390 . S
C114 C115 1.392 . S
C115 H87 0.929 . S
C115 C112 1.391 . S
C115 C114 1.392 . S
N116 Co60 2.257 . S
N116 C113 1.391 . S
N116 C117 1.388 . S
C117 H88 0.930 . S
C117 C112 1.391 . S
C117 N116 1.388 . S
Co118 O120 2.143 . S
Co118 O126 2.074 1_545 S
Co118 O129 2.093 . S
Co118 O142 2.097 . S
Co118 N159 2.151 1_545 S
Co118 N167 2.214 . S
Co119 O120 2.160 1_556 S
Co119 O125 2.058 1_545 S
Co119 O135 2.057 . S
Co119 O150 2.037 . S
Co119 N154 2.145 . S
Co119 N175 2.257 . S
O120 Co118 2.143 . S
O120 Co119 2.160 1_554 S
C121 O122 1.278 . S
C121 O129 1.224 . S
O122 C121 1.278 . S
C123 O124 1.245 . S
C123 O135 1.232 1_565 S
O124 C123 1.245 . S
O125 Co119 2.058 1_565 S
O125 C151 1.269 1_556 S
O126 Co118 2.074 1_565 S
O126 C151 1.257 . S
H127 C152 0.930 . S
H128 C158 0.930 . S
O129 Co118 2.093 . S
O129 C121 1.224 . S
H130 C162 0.929 . S
H131 C164 0.930 . S
H132 C165 0.930 . S
H133 C163 0.929 . S
H134 C166 0.928 . S
O135 Co119 2.057 . S
O135 C123 1.232 1_545 S
H136 C155 0.929 . S
H137 C156 0.929 . S
H138 C168 0.931 . S
H139 C160 0.929 . S
H140 C169 0.930 . S
H141 C161 0.931 . S
O142 Co118 2.097 . S
O142 C170 1.214 . S
H143 C171 0.929 . S
H144 C172 0.929 . S
H145 C173 0.930 . S
H146 C174 0.929 . S
H147 C176 0.930 . S
H148 C153 0.930 . S
H149 C157 0.930 . S
O150 Co119 2.037 . S
O150 C170 1.234 1_556 S
C151 O125 1.269 1_554 S
C151 O126 1.257 . S
C152 H127 0.930 . S
C152 C155 1.388 . S
C152 C157 1.418 . S
C153 H148 0.930 . S
C153 C156 1.404 . S
C153 C157 1.353 . S
N154 Co119 2.145 . S
N154 C155 1.397 . S
N154 C156 1.334 . S
C155 H136 0.929 . S
C155 C152 1.388 . S
C155 N154 1.397 . S
C156 H137 0.929 . S
C156 C153 1.404 . S
C156 N154 1.334 . S
C157 H149 0.930 . S
C157 C152 1.418 . S
C157 C153 1.353 . S
C158 H128 0.930 . S
C158 N159 1.330 . S
C158 C160 1.446 . S
N159 Co118 2.151 1_565 S
N159 C158 1.330 . S
N159 C163 1.418 . S
C160 H139 0.929 . S
C160 C158 1.446 . S
C160 C161 1.332 . S
C161 H141 0.931 . S
C161 C160 1.332 . S
C161 C162 1.267 . S
C162 H130 0.929 . S
C162 C161 1.267 . S
C162 C163 1.251 . S
C163 H133 0.929 . S
C163 N159 1.418 . S
C163 C162 1.251 . S
C164 H131 0.930 . S
C164 C166 1.406 . S
C164 C169 1.261 . S
C165 H132 0.930 . S
C165 N167 1.325 . S
C165 C168 1.357 . S
C166 H134 0.928 . S
C166 C164 1.406 . S
C166 N167 1.261 . S
N167 Co118 2.214 . S
N167 C165 1.325 . S
N167 C166 1.261 . S
C168 H138 0.931 . S
C168 C165 1.357 . S
C168 C169 1.312 . S
C169 H140 0.930 . S
C169 C164 1.261 . S
C169 C168 1.312 . S
C170 O142 1.214 . S
C170 O150 1.234 1_554 S
C171 H143 0.929 . S
C171 C174 1.391 . S
C171 C176 1.391 . S
C172 H144 0.929 . S
C172 C173 1.390 . S
C172 N175 1.391 . S
C173 H145 0.930 . S
C173 C172 1.390 . S
C173 C174 1.392 . S
C174 H146 0.929 . S
C174 C171 1.391 . S
C174 C173 1.392 . S
N175 Co119 2.257 . S
N175 C172 1.391 . S
N175 C176 1.388 . S
C176 H147 0.930 . S
C176 C171 1.391 . S
C176 N175 1.388 . S
Co177 O179 2.143 . S
Co177 O185 2.074 . S
Co177 O188 2.093 . S
Co177 O201 2.097 . S
Co177 N218 2.151 . S
Co177 N226 2.214 . S
Co178 O179 2.160 . S
Co178 O184 2.058 . S
Co178 O194 2.057 . S
Co178 O209 2.037 . S
Co178 N213 2.145 . S
Co178 N234 2.257 . S
O179 Co177 2.143 . S
O179 Co178 2.160 . S
C180 O181 1.278 . S
C180 O188 1.224 . S
O181 C180 1.278 . S
C182 O183 1.245 . S
C182 O194 1.232 . S
O183 C182 1.245 . S
O184 Co178 2.058 . S
O184 C210 1.269 . S
O185 Co177 2.074 . S
O185 C210 1.257 . S
H186 C211 0.930 . S
H187 C217 0.930 . S
O188 Co177 2.093 . S
O188 C180 1.224 . S
H189 C221 0.929 . S
H190 C223 0.930 . S
H191 C224 0.930 . S
H192 C222 0.929 . S
H193 C225 0.928 . S
O194 Co178 2.057 . S
O194 C182 1.232 . S
H195 C214 0.929 . S
H196 C215 0.929 . S
H197 C227 0.931 . S
H198 C219 0.929 . S
H199 C228 0.930 . S
H200 C220 0.931 . S
O201 Co177 2.097 . S
O201 C229 1.214 . S
H202 C230 0.929 . S
H203 C231 0.929 . S
H204 C232 0.930 . S
H205 C233 0.929 . S
H206 C235 0.930 . S
H207 C212 0.930 . S
H208 C216 0.930 . S
O209 Co178 2.037 . S
O209 C229 1.234 . S
C210 O184 1.269 . S
C210 O185 1.257 . S
C211 H186 0.930 . S
C211 C214 1.388 . S
C211 C216 1.418 . S
C212 H207 0.930 . S
C212 C215 1.404 . S
C212 C216 1.353 . S
N213 Co178 2.145 . S
N213 C214 1.397 . S
N213 C215 1.334 . S
C214 H195 0.929 . S
C214 C211 1.388 . S
C214 N213 1.397 . S
C215 H196 0.929 . S
C215 C212 1.404 . S
C215 N213 1.334 . S
C216 H208 0.930 . S
C216 C211 1.418 . S
C216 C212 1.353 . S
C217 H187 0.930 . S
C217 N218 1.330 . S
C217 C219 1.446 . S
N218 Co177 2.151 . S
N218 C217 1.330 . S
N218 C222 1.418 . S
C219 H198 0.929 . S
C219 C217 1.446 . S
C219 C220 1.332 . S
C220 H200 0.931 . S
C220 C219 1.332 . S
C220 C221 1.267 . S
C221 H189 0.929 . S
C221 C220 1.267 . S
C221 C222 1.251 . S
C222 H192 0.929 . S
C222 N218 1.418 . S
C222 C221 1.251 . S
C223 H190 0.930 . S
C223 C225 1.406 . S
C223 C228 1.261 . S
C224 H191 0.930 . S
C224 N226 1.325 . S
C224 C227 1.357 . S
C225 H193 0.928 . S
C225 C223 1.406 . S
C225 N226 1.261 . S
N226 Co177 2.214 . S
N226 C224 1.325 . S
N226 C225 1.261 . S
C227 H197 0.931 . S
C227 C224 1.357 . S
C227 C228 1.312 . S
C228 H199 0.930 . S
C228 C223 1.261 . S
C228 C227 1.312 . S
C229 O201 1.214 . S
C229 O209 1.234 . S
C230 H202 0.929 . S
C230 C233 1.391 . S
C230 C235 1.391 . S
C231 H203 0.929 . S
C231 C232 1.390 . S
C231 N234 1.391 . S
C232 H204 0.930 . S
C232 C231 1.390 . S
C232 C233 1.392 . S
C233 H205 0.929 . S
C233 C230 1.391 . S
C233 C232 1.392 . S
N234 Co178 2.257 . S
N234 C231 1.391 . S
N234 C235 1.388 . S
C235 H206 0.930 . S
C235 C230 1.391 . S
C235 N234 1.388 . S
Co236 O238 2.143 . S
Co236 O244 2.074 . S
Co236 O247 2.093 . S
Co236 O260 2.097 . S
Co236 N277 2.151 . S
Co236 N285 2.214 . S
Co237 O238 2.160 . S
Co237 O243 2.058 . S
Co237 O253 2.057 . S
Co237 O268 2.037 . S
Co237 N272 2.145 . S
Co237 N293 2.257 . S
O238 Co236 2.143 . S
O238 Co237 2.160 . S
C239 O240 1.278 . S
C239 O247 1.224 . S
O240 C239 1.278 . S
C241 O242 1.245 . S
C241 O253 1.232 . S
O242 C241 1.245 . S
O243 Co237 2.058 . S
O243 C269 1.269 . S
O244 Co236 2.074 . S
O244 C269 1.257 . S
H245 C270 0.930 . S
H246 C276 0.930 . S
O247 Co236 2.093 . S
O247 C239 1.224 . S
H248 C280 0.929 . S
H249 C282 0.930 . S
H250 C283 0.930 . S
H251 C281 0.929 . S
H252 C284 0.928 . S
O253 Co237 2.057 . S
O253 C241 1.232 . S
H254 C273 0.929 . S
H255 C274 0.929 . S
H256 C286 0.931 . S
H257 C278 0.929 . S
H258 C287 0.930 . S
H259 C279 0.931 . S
O260 Co236 2.097 . S
O260 C288 1.214 . S
H261 C289 0.929 . S
H262 C290 0.929 . S
H263 C291 0.930 . S
H264 C292 0.929 . S
H265 C294 0.930 . S
H266 C271 0.930 . S
H267 C275 0.930 . S
O268 Co237 2.037 . S
O268 C288 1.234 . S
C269 O243 1.269 . S
C269 O244 1.257 . S
C270 H245 0.930 . S
C270 C273 1.388 . S
C270 C275 1.418 . S
C271 H266 0.930 . S
C271 C274 1.404 . S
C271 C275 1.353 . S
N272 Co237 2.145 . S
N272 C273 1.397 . S
N272 C274 1.334 . S
C273 H254 0.929 . S
C273 C270 1.388 . S
C273 N272 1.397 . S
C274 H255 0.929 . S
C274 C271 1.404 . S
C274 N272 1.334 . S
C275 H267 0.930 . S
C275 C270 1.418 . S
C275 C271 1.353 . S
C276 H246 0.930 . S
C276 N277 1.330 . S
C276 C278 1.446 . S
N277 Co236 2.151 . S
N277 C276 1.330 . S
N277 C281 1.418 . S
C278 H257 0.929 . S
C278 C276 1.446 . S
C278 C279 1.332 . S
C279 H259 0.931 . S
C279 C278 1.332 . S
C279 C280 1.267 . S
C280 H248 0.929 . S
C280 C279 1.267 . S
C280 C281 1.251 . S
C281 H251 0.929 . S
C281 N277 1.418 . S
C281 C280 1.251 . S
C282 H249 0.930 . S
C282 C284 1.406 . S
C282 C287 1.261 . S
C283 H250 0.930 . S
C283 N285 1.325 . S
C283 C286 1.357 . S
C284 H252 0.928 . S
C284 C282 1.406 . S
C284 N285 1.261 . S
N285 Co236 2.214 . S
N285 C283 1.325 . S
N285 C284 1.261 . S
C286 H256 0.931 . S
C286 C283 1.357 . S
C286 C287 1.312 . S
C287 H258 0.930 . S
C287 C282 1.261 . S
C287 C286 1.312 . S
C288 O260 1.214 . S
C288 O268 1.234 . S
C289 H261 0.929 . S
C289 C292 1.391 . S
C289 C294 1.391 . S
C290 H262 0.929 . S
C290 C291 1.390 . S
C290 N293 1.391 . S
C291 H263 0.930 . S
C291 C290 1.390 . S
C291 C292 1.392 . S
C292 H264 0.929 . S
C292 C289 1.391 . S
C292 C291 1.392 . S
N293 Co237 2.257 . S
N293 C290 1.391 . S
N293 C294 1.388 . S
C294 H265 0.930 . S
C294 C289 1.391 . S
C294 N293 1.388 . S
Co295 O297 2.143 . S
Co295 O303 2.074 . S
Co295 O306 2.093 . S
Co295 O319 2.097 . S
Co295 N336 2.151 . S
Co295 N344 2.214 . S
Co296 O297 2.160 . S
Co296 O302 2.058 . S
Co296 O312 2.057 . S
Co296 O327 2.037 . S
Co296 N331 2.145 . S
Co296 N352 2.257 . S
O297 Co295 2.143 . S
O297 Co296 2.160 . S
C298 O299 1.278 . S
C298 O306 1.224 . S
O299 C298 1.278 . S
C300 O301 1.245 . S
C300 O312 1.232 . S
O301 C300 1.245 . S
O302 Co296 2.058 . S
O302 C328 1.269 . S
O303 Co295 2.074 . S
O303 C328 1.257 . S
H304 C329 0.930 . S
H305 C335 0.930 . S
O306 Co295 2.093 . S
O306 C298 1.224 . S
H307 C339 0.929 . S
H308 C341 0.930 . S
H309 C342 0.930 . S
H310 C340 0.929 . S
H311 C343 0.928 . S
O312 Co296 2.057 . S
O312 C300 1.232 . S
H313 C332 0.929 . S
H314 C333 0.929 . S
H315 C345 0.931 . S
H316 C337 0.929 . S
H317 C346 0.930 . S
H318 C338 0.931 . S
O319 Co295 2.097 . S
O319 C347 1.214 . S
H320 C348 0.929 . S
H321 C349 0.929 . S
H322 C350 0.930 . S
H323 C351 0.929 . S
H324 C353 0.930 . S
H325 C330 0.930 . S
H326 C334 0.930 . S
O327 Co296 2.037 . S
O327 C347 1.234 . S
C328 O302 1.269 . S
C328 O303 1.257 . S
C329 H304 0.930 . S
C329 C332 1.388 . S
C329 C334 1.418 . S
C330 H325 0.930 . S
C330 C333 1.404 . S
C330 C334 1.353 . S
N331 Co296 2.145 . S
N331 C332 1.397 . S
N331 C333 1.334 . S
C332 H313 0.929 . S
C332 C329 1.388 . S
C332 N331 1.397 . S
C333 H314 0.929 . S
C333 C330 1.404 . S
C333 N331 1.334 . S
C334 H326 0.930 . S
C334 C329 1.418 . S
C334 C330 1.353 . S
C335 H305 0.930 . S
C335 N336 1.330 . S
C335 C337 1.446 . S
N336 Co295 2.151 . S
N336 C335 1.330 . S
N336 C340 1.418 . S
C337 H316 0.929 . S
C337 C335 1.446 . S
C337 C338 1.332 . S
C338 H318 0.931 . S
C338 C337 1.332 . S
C338 C339 1.267 . S
C339 H307 0.929 . S
C339 C338 1.267 . S
C339 C340 1.251 . S
C340 H310 0.929 . S
C340 N336 1.418 . S
C340 C339 1.251 . S
C341 H308 0.930 . S
C341 C343 1.406 . S
C341 C346 1.261 . S
C342 H309 0.930 . S
C342 N344 1.325 . S
C342 C345 1.357 . S
C343 H311 0.928 . S
C343 C341 1.406 . S
C343 N344 1.261 . S
N344 Co295 2.214 . S
N344 C342 1.325 . S
N344 C343 1.261 . S
C345 H315 0.931 . S
C345 C342 1.357 . S
C345 C346 1.312 . S
C346 H317 0.930 . S
C346 C341 1.261 . S
C346 C345 1.312 . S
C347 O319 1.214 . S
C347 O327 1.234 . S
C348 H320 0.929 . S
C348 C351 1.391 . S
C348 C353 1.391 . S
C349 H321 0.929 . S
C349 C350 1.390 . S
C349 N352 1.391 . S
C350 H322 0.930 . S
C350 C349 1.390 . S
C350 C351 1.392 . S
C351 H323 0.929 . S
C351 C348 1.391 . S
C351 C350 1.392 . S
N352 Co296 2.257 . S
N352 C349 1.391 . S
N352 C353 1.388 . S
C353 H324 0.930 . S
C353 C348 1.391 . S
C353 N352 1.388 . S
Co354 O356 2.143 . S
Co354 O362 2.074 . S
Co354 O365 2.093 . S
Co354 O378 2.097 . S
Co354 N395 2.151 . S
Co354 N403 2.214 . S
Co355 O356 2.160 . S
Co355 O361 2.058 . S
Co355 O371 2.057 . S
Co355 O386 2.037 . S
Co355 N390 2.145 . S
Co355 N411 2.257 . S
O356 Co354 2.143 . S
O356 Co355 2.160 . S
C357 O358 1.278 . S
C357 O365 1.224 . S
O358 C357 1.278 . S
C359 O360 1.245 . S
C359 O371 1.232 . S
O360 C359 1.245 . S
O361 Co355 2.058 . S
O361 C387 1.269 . S
O362 Co354 2.074 . S
O362 C387 1.257 . S
H363 C388 0.930 . S
H364 C394 0.930 . S
O365 Co354 2.093 . S
O365 C357 1.224 . S
H366 C398 0.929 . S
H367 C400 0.930 . S
H368 C401 0.930 . S
H369 C399 0.929 . S
H370 C402 0.928 . S
O371 Co355 2.057 . S
O371 C359 1.232 . S
H372 C391 0.929 . S
H373 C392 0.929 . S
H374 C404 0.931 . S
H375 C396 0.929 . S
H376 C405 0.930 . S
H377 C397 0.931 . S
O378 Co354 2.097 . S
O378 C406 1.214 . S
H379 C407 0.929 . S
H380 C408 0.929 . S
H381 C409 0.930 . S
H382 C410 0.929 . S
H383 C412 0.930 . S
H384 C389 0.930 . S
H385 C393 0.930 . S
O386 Co355 2.037 . S
O386 C406 1.234 . S
C387 O361 1.269 . S
C387 O362 1.257 . S
C388 H363 0.930 . S
C388 C391 1.388 . S
C388 C393 1.418 . S
C389 H384 0.930 . S
C389 C392 1.404 . S
C389 C393 1.353 . S
N390 Co355 2.145 . S
N390 C391 1.397 . S
N390 C392 1.334 . S
C391 H372 0.929 . S
C391 C388 1.388 . S
C391 N390 1.397 . S
C392 H373 0.929 . S
C392 C389 1.404 . S
C392 N390 1.334 . S
C393 H385 0.930 . S
C393 C388 1.418 . S
C393 C389 1.353 . S
C394 H364 0.930 . S
C394 N395 1.330 . S
C394 C396 1.446 . S
N395 Co354 2.151 . S
N395 C394 1.330 . S
N395 C399 1.418 . S
C396 H375 0.929 . S
C396 C394 1.446 . S
C396 C397 1.332 . S
C397 H377 0.931 . S
C397 C396 1.332 . S
C397 C398 1.267 . S
C398 H366 0.929 . S
C398 C397 1.267 . S
C398 C399 1.251 . S
C399 H369 0.929 . S
C399 N395 1.418 . S
C399 C398 1.251 . S
C400 H367 0.930 . S
C400 C402 1.406 . S
C400 C405 1.261 . S
C401 H368 0.930 . S
C401 N403 1.325 . S
C401 C404 1.357 . S
C402 H370 0.928 . S
C402 C400 1.406 . S
C402 N403 1.261 . S
N403 Co354 2.214 . S
N403 C401 1.325 . S
N403 C402 1.261 . S
C404 H374 0.931 . S
C404 C401 1.357 . S
C404 C405 1.312 . S
C405 H376 0.930 . S
C405 C400 1.261 . S
C405 C404 1.312 . S
C406 O378 1.214 . S
C406 O386 1.234 . S
C407 H379 0.929 . S
C407 C410 1.391 . S
C407 C412 1.391 . S
C408 H380 0.929 . S
C408 C409 1.390 . S
C408 N411 1.391 . S
C409 H381 0.930 . S
C409 C408 1.390 . S
C409 C410 1.392 . S
C410 H382 0.929 . S
C410 C407 1.391 . S
C410 C409 1.392 . S
N411 Co355 2.257 . S
N411 C408 1.391 . S
N411 C412 1.388 . S
C412 H383 0.930 . S
C412 C407 1.391 . S
C412 N411 1.388 . S
Co413 O415 2.143 . S
Co413 O421 2.074 . S
Co413 O424 2.093 . S
Co413 O437 2.097 . S
Co413 N454 2.151 . S
Co413 N462 2.214 . S
Co414 O415 2.160 . S
Co414 O420 2.058 . S
Co414 O430 2.057 . S
Co414 O445 2.037 . S
Co414 N449 2.145 . S
Co414 N470 2.257 . S
O415 Co413 2.143 . S
O415 Co414 2.160 . S
C416 O417 1.278 . S
C416 O424 1.224 . S
O417 C416 1.278 . S
C418 O419 1.245 . S
C418 O430 1.232 . S
O419 C418 1.245 . S
O420 Co414 2.058 . S
O420 C446 1.269 . S
O421 Co413 2.074 . S
O421 C446 1.257 . S
H422 C447 0.930 . S
H423 C453 0.930 . S
O424 Co413 2.093 . S
O424 C416 1.224 . S
H425 C457 0.929 . S
H426 C459 0.930 . S
H427 C460 0.930 . S
H428 C458 0.929 . S
H429 C461 0.928 . S
O430 Co414 2.057 . S
O430 C418 1.232 . S
H431 C450 0.929 . S
H432 C451 0.929 . S
H433 C463 0.931 . S
H434 C455 0.929 . S
H435 C464 0.930 . S
H436 C456 0.931 . S
O437 Co413 2.097 . S
O437 C465 1.214 . S
H438 C466 0.929 . S
H439 C467 0.929 . S
H440 C468 0.930 . S
H441 C469 0.929 . S
H442 C471 0.930 . S
H443 C448 0.930 . S
H444 C452 0.930 . S
O445 Co414 2.037 . S
O445 C465 1.234 . S
C446 O420 1.269 . S
C446 O421 1.257 . S
C447 H422 0.930 . S
C447 C450 1.388 . S
C447 C452 1.418 . S
C448 H443 0.930 . S
C448 C451 1.404 . S
C448 C452 1.353 . S
N449 Co414 2.145 . S
N449 C450 1.397 . S
N449 C451 1.334 . S
C450 H431 0.929 . S
C450 C447 1.388 . S
C450 N449 1.397 . S
C451 H432 0.929 . S
C451 C448 1.404 . S
C451 N449 1.334 . S
C452 H444 0.930 . S
C452 C447 1.418 . S
C452 C448 1.353 . S
C453 H423 0.930 . S
C453 N454 1.330 . S
C453 C455 1.446 . S
N454 Co413 2.151 . S
N454 C453 1.330 . S
N454 C458 1.418 . S
C455 H434 0.929 . S
C455 C453 1.446 . S
C455 C456 1.332 . S
C456 H436 0.931 . S
C456 C455 1.332 . S
C456 C457 1.267 . S
C457 H425 0.929 . S
C457 C456 1.267 . S
C457 C458 1.251 . S
C458 H428 0.929 . S
C458 N454 1.418 . S
C458 C457 1.251 . S
C459 H426 0.930 . S
C459 C461 1.406 . S
C459 C464 1.261 . S
C460 H427 0.930 . S
C460 N462 1.325 . S
C460 C463 1.357 . S
C461 H429 0.928 . S
C461 C459 1.406 . S
C461 N462 1.261 . S
N462 Co413 2.214 . S
N462 C460 1.325 . S
N462 C461 1.261 . S
C463 H433 0.931 . S
C463 C460 1.357 . S
C463 C464 1.312 . S
C464 H435 0.930 . S
C464 C459 1.261 . S
C464 C463 1.312 . S
C465 O437 1.214 . S
C465 O445 1.234 . S
C466 H438 0.929 . S
C466 C469 1.391 . S
C466 C471 1.391 . S
C467 H439 0.929 . S
C467 C468 1.390 . S
C467 N470 1.391 . S
C468 H440 0.930 . S
C468 C467 1.390 . S
C468 C469 1.392 . S
C469 H441 0.929 . S
C469 C466 1.391 . S
C469 C468 1.392 . S
N470 Co414 2.257 . S
N470 C467 1.391 . S
N470 C471 1.388 . S
C471 H442 0.930 . S
C471 C466 1.391 . S
C471 N470 1.388 . S
Co472 O474 2.143 . S
Co472 O480 2.074 . S
Co472 O483 2.093 . S
Co472 O496 2.097 . S
Co472 N513 2.151 . S
Co472 N521 2.214 . S
Co473 O474 2.160 . S
Co473 O479 2.058 . S
Co473 O489 2.057 . S
Co473 O504 2.037 . S
Co473 N508 2.145 . S
Co473 N529 2.257 . S
O474 Co472 2.143 . S
O474 Co473 2.160 . S
C475 O476 1.278 . S
C475 O483 1.224 . S
O476 C475 1.278 . S
C477 O478 1.245 . S
C477 O489 1.232 . S
O478 C477 1.245 . S
O479 Co473 2.058 . S
O479 C505 1.269 . S
O480 Co472 2.074 . S
O480 C505 1.257 . S
H481 C506 0.930 . S
H482 C512 0.930 . S
O483 Co472 2.093 . S
O483 C475 1.224 . S
H484 C516 0.929 . S
H485 C518 0.930 . S
H486 C519 0.930 . S
H487 C517 0.929 . S
H488 C520 0.928 . S
O489 Co473 2.057 . S
O489 C477 1.232 . S
H490 C509 0.929 . S
H491 C510 0.929 . S
H492 C522 0.931 . S
H493 C514 0.929 . S
H494 C523 0.930 . S
H495 C515 0.931 . S
O496 Co472 2.097 . S
O496 C524 1.214 . S
H497 C525 0.929 . S
H498 C526 0.929 . S
H499 C527 0.930 . S
H500 C528 0.929 . S
H501 C530 0.930 . S
H502 C507 0.930 . S
H503 C511 0.930 . S
O504 Co473 2.037 . S
O504 C524 1.234 . S
C505 O479 1.269 . S
C505 O480 1.257 . S
C506 H481 0.930 . S
C506 C509 1.388 . S
C506 C511 1.418 . S
C507 H502 0.930 . S
C507 C510 1.404 . S
C507 C511 1.353 . S
N508 Co473 2.145 . S
N508 C509 1.397 . S
N508 C510 1.334 . S
C509 H490 0.929 . S
C509 C506 1.388 . S
C509 N508 1.397 . S
C510 H491 0.929 . S
C510 C507 1.404 . S
C510 N508 1.334 . S
C511 H503 0.930 . S
C511 C506 1.418 . S
C511 C507 1.353 . S
C512 H482 0.930 . S
C512 N513 1.330 . S
C512 C514 1.446 . S
N513 Co472 2.151 . S
N513 C512 1.330 . S
N513 C517 1.418 . S
C514 H493 0.929 . S
C514 C512 1.446 . S
C514 C515 1.332 . S
C515 H495 0.931 . S
C515 C514 1.332 . S
C515 C516 1.267 . S
C516 H484 0.929 . S
C516 C515 1.267 . S
C516 C517 1.251 . S
C517 H487 0.929 . S
C517 N513 1.418 . S
C517 C516 1.251 . S
C518 H485 0.930 . S
C518 C520 1.406 . S
C518 C523 1.261 . S
C519 H486 0.930 . S
C519 N521 1.325 . S
C519 C522 1.357 . S
C520 H488 0.928 . S
C520 C518 1.406 . S
C520 N521 1.261 . S
N521 Co472 2.214 . S
N521 C519 1.325 . S
N521 C520 1.261 . S
C522 H492 0.931 . S
C522 C519 1.357 . S
C522 C523 1.312 . S
C523 H494 0.930 . S
C523 C518 1.261 . S
C523 C522 1.312 . S
C524 O496 1.214 . S
C524 O504 1.234 . S
C525 H497 0.929 . S
C525 C528 1.391 . S
C525 C530 1.391 . S
C526 H498 0.929 . S
C526 C527 1.390 . S
C526 N529 1.391 . S
C527 H499 0.930 . S
C527 C526 1.390 . S
C527 C528 1.392 . S
C528 H500 0.929 . S
C528 C525 1.391 . S
C528 C527 1.392 . S
N529 Co473 2.257 . S
N529 C526 1.391 . S
N529 C530 1.388 . S
C530 H501 0.930 . S
C530 C525 1.391 . S
C530 N529 1.388 . S
C531 C532 1.349 . S
C531 C533 1.327 . S
C531 H556 0.950 . S
C532 C531 1.349 . S
C532 C548 1.349 1_554 S
C533 C531 1.327 . S
C533 C552 1.429 . S
C533 H557 0.950 . S
C534 C551 1.574 . S
C534 C553 1.368 1_556 S
C534 H558 0.949 . S
H535 C539 0.949 . S
C536 C537 1.349 1_556 S
C536 C538 1.327 . S
C536 H559 0.950 . S
C537 C536 1.349 1_554 S
C537 C549 1.349 . S
C538 C536 1.327 . S
C538 C554 1.429 1_556 S
C538 H560 0.950 . S
C539 H535 0.949 . S
C539 C547 1.574 . S
C539 C555 1.368 . S
H540 C548 0.950 . S
H541 C546 0.950 . S
H542 C547 0.949 . S
H543 C549 0.950 . S
H544 C550 0.950 . S
H545 C551 0.949 . S
C546 H541 0.950 . S
C546 C548 1.327 . S
C546 C552 1.429 1_556 S
C547 C539 1.574 . S
C547 H542 0.949 . S
C547 C553 1.368 . S
C548 C532 1.349 1_556 S
C548 H540 0.950 . S
C548 C546 1.327 . S
C549 C537 1.349 . S
C549 H543 0.950 . S
C549 C550 1.327 . S
C550 H544 0.950 . S
C550 C549 1.327 . S
C550 C554 1.429 . S
C551 C534 1.574 . S
C551 H545 0.949 . S
C551 C555 1.368 1_556 S
C552 C533 1.429 . S
C552 C546 1.429 1_554 S
C552 C553 1.523 . S
C553 C534 1.368 1_554 S
C553 C547 1.368 . S
C553 C552 1.523 . S
C554 C538 1.429 1_554 S
C554 C550 1.429 . S
C554 C555 1.523 . S
C555 C539 1.368 . S
C555 C551 1.368 1_554 S
C555 C554 1.523 . S
H556 C531 0.950 . S
H557 C533 0.950 . S
H558 C534 0.949 . S
H559 C536 0.950 . S
H560 C538 0.950 . S
C561 C562 1.349 1_556 S
C561 C563 1.327 . S
C561 H586 0.950 . S
C562 C561 1.349 1_554 S
C562 C578 1.349 . S
C563 C561 1.327 . S
C563 C582 1.429 1_556 S
C563 H587 0.950 . S
C564 C581 1.574 . S
C564 C583 1.368 1_545 S
C564 H588 0.949 1_545 S
H565 C569 0.949 . S
C566 C567 1.349 . S
C566 C568 1.327 . S
C566 H589 0.950 . S
C567 C566 1.349 . S
C567 C579 1.349 1_554 S
C568 C566 1.327 . S
C568 C584 1.429 . S
C568 H590 0.950 . S
C569 H565 0.949 . S
C569 C577 1.574 . S
C569 C585 1.368 1_556 S
H570 C578 0.950 . S
H571 C576 0.950 . S
H572 C577 0.949 1_565 S
H573 C579 0.950 . S
H574 C580 0.950 . S
H575 C581 0.949 . S
C576 H571 0.950 . S
C576 C578 1.327 . S
C576 C582 1.429 . S
C577 C569 1.574 . S
C577 H572 0.949 1_545 S
C577 C583 1.368 1_546 S
C578 C562 1.349 . S
C578 H570 0.950 . S
C578 C576 1.327 . S
C579 C567 1.349 1_556 S
C579 H573 0.950 . S
C579 C580 1.327 . S
C580 H574 0.950 . S
C580 C579 1.327 . S
C580 C584 1.429 1_556 S
C581 C564 1.574 . S
C581 H575 0.949 . S
C581 C585 1.368 . S
C582 C563 1.429 1_554 S
C582 C576 1.429 . S
C582 C583 1.523 . S
C583 C564 1.368 1_565 S
C583 C577 1.368 1_564 S
C583 C582 1.523 . S
C584 C568 1.429 . S
C584 C580 1.429 1_554 S
C584 C585 1.523 . S
C585 C569 1.368 1_554 S
C585 C581 1.368 . S
C585 C584 1.523 . S
H586 C561 0.950 . S
H587 C563 0.950 . S
H588 C564 0.949 1_565 S
H589 C566 0.950 . S
H590 C568 0.950 . S
C591 C592 1.349 . S
C591 C593 1.327 . S
C591 H616 0.950 . S
C592 C591 1.349 . S
C592 C608 1.349 1_554 S
C593 C591 1.327 . S
C593 C612 1.429 . S
C593 H617 0.950 . S
C594 C611 1.574 . S
C594 C613 1.368 1_456 S
C594 H618 0.949 1_455 S
H595 C599 0.949 . S
C596 C597 1.349 1_556 S
C596 C598 1.327 . S
C596 H619 0.950 . S
C597 C596 1.349 1_554 S
C597 C609 1.349 . S
C598 C596 1.327 . S
C598 C614 1.429 1_556 S
C598 H620 0.950 . S
C599 H595 0.949 . S
C599 C607 1.574 . S
C599 C615 1.368 . S
H600 C608 0.950 . S
H601 C606 0.950 . S
H602 C607 0.949 1_655 S
H603 C609 0.950 . S
H604 C610 0.950 . S
H605 C611 0.949 . S
C606 H601 0.950 . S
C606 C608 1.327 . S
C606 C612 1.429 1_556 S
C607 C599 1.574 . S
C607 H602 0.949 1_455 S
C607 C613 1.368 1_455 S
C608 C592 1.349 1_556 S
C608 H600 0.950 . S
C608 C606 1.327 . S
C609 C597 1.349 . S
C609 H603 0.950 . S
C609 C610 1.327 . S
C610 H604 0.950 . S
C610 C609 1.327 . S
C610 C614 1.429 . S
C611 C594 1.574 . S
C611 H605 0.949 . S
C611 C615 1.368 1_556 S
C612 C593 1.429 . S
C612 C606 1.429 1_554 S
C612 C613 1.523 . S
C613 C594 1.368 1_654 S
C613 C607 1.368 1_655 S
C613 C612 1.523 . S
C614 C598 1.429 1_554 S
C614 C610 1.429 . S
C614 C615 1.523 . S
C615 C599 1.368 . S
C615 C611 1.368 1_554 S
C615 C614 1.523 . S
H616 C591 0.950 . S
H617 C593 0.950 . S
H618 C594 0.949 1_655 S
H619 C596 0.950 . S
H620 C598 0.950 . S
C621 C622 1.349 . S
C621 C623 1.327 . S
C621 H646 0.950 . S
C622 C621 1.349 . S
C622 C638 1.349 . S
C623 C621 1.327 . S
C623 C642 1.429 . S
C623 H647 0.950 . S
C624 C641 1.574 . S
C624 C643 1.368 . S
C624 H648 0.949 . S
H625 C629 0.949 . S
C626 C627 1.349 . S
C626 C628 1.327 . S
C626 H649 0.950 . S
C627 C626 1.349 . S
C627 C639 1.349 . S
C628 C626 1.327 . S
C628 C644 1.429 . S
C628 H650 0.950 . S
C629 H625 0.949 . S
C629 C637 1.574 . S
C629 C645 1.368 . S
H630 C638 0.950 . S
H631 C636 0.950 . S
H632 C637 0.949 . S
H633 C639 0.950 . S
H634 C640 0.950 . S
H635 C641 0.949 . S
C636 H631 0.950 . S
C636 C638 1.327 . S
C636 C642 1.429 . S
C637 C629 1.574 . S
C637 H632 0.949 . S
C637 C643 1.368 . S
C638 C622 1.349 . S
C638 H630 0.950 . S
C638 C636 1.327 . S
C639 C627 1.349 . S
C639 H633 0.950 . S
C639 C640 1.327 . S
C640 H634 0.950 . S
C640 C639 1.327 . S
C640 C644 1.429 . S
C641 C624 1.574 . S
C641 H635 0.949 . S
C641 C645 1.368 . S
C642 C623 1.429 . S
C642 C636 1.429 . S
C642 C643 1.523 . S
C643 C624 1.368 . S
C643 C637 1.368 . S
C643 C642 1.523 . S
C644 C628 1.429 . S
C644 C640 1.429 . S
C644 C645 1.523 . S
C645 C629 1.368 . S
C645 C641 1.368 . S
C645 C644 1.523 . S
H646 C621 0.950 . S
H647 C623 0.950 . S
H648 C624 0.949 . S
H649 C626 0.950 . S
H650 C628 0.950 . S
C651 C652 1.349 . S
C651 C653 1.327 . S
C651 H676 0.950 . S
C652 C651 1.349 . S
C652 C668 1.349 . S
C653 C651 1.327 . S
C653 C672 1.429 . S
C653 H677 0.950 . S
C654 C671 1.574 . S
C654 C673 1.368 . S
C654 H678 0.949 . S
H655 C659 0.949 . S
C656 C657 1.349 . S
C656 C658 1.327 . S
C656 H679 0.950 . S
C657 C656 1.349 . S
C657 C669 1.349 . S
C658 C656 1.327 . S
C658 C674 1.429 . S
C658 H680 0.950 . S
C659 H655 0.949 . S
C659 C667 1.574 . S
C659 C675 1.368 . S
H660 C668 0.950 . S
H661 C666 0.950 . S
H662 C667 0.949 . S
H663 C669 0.950 . S
H664 C670 0.950 . S
H665 C671 0.949 . S
C666 H661 0.950 . S
C666 C668 1.327 . S
C666 C672 1.429 . S
C667 C659 1.574 . S
C667 H662 0.949 . S
C667 C673 1.368 . S
C668 C652 1.349 . S
C668 H660 0.950 . S
C668 C666 1.327 . S
C669 C657 1.349 . S
C669 H663 0.950 . S
C669 C670 1.327 . S
C670 H664 0.950 . S
C670 C669 1.327 . S
C670 C674 1.429 . S
C671 C654 1.574 . S
C671 H665 0.949 . S
C671 C675 1.368 . S
C672 C653 1.429 . S
C672 C666 1.429 . S
C672 C673 1.523 . S
C673 C654 1.368 . S
C673 C667 1.368 . S
C673 C672 1.523 . S
C674 C658 1.429 . S
C674 C670 1.429 . S
C674 C675 1.523 . S
C675 C659 1.368 . S
C675 C671 1.368 . S
C675 C674 1.523 . S
H676 C651 0.950 . S
H677 C653 0.950 . S
H678 C654 0.949 . S
H679 C656 0.950 . S
H680 C658 0.950 . S
C681 C682 1.349 . S
C681 C683 1.327 . S
C681 H706 0.950 . S
C682 C681 1.349 . S
C682 C698 1.349 . S
C683 C681 1.327 . S
C683 C702 1.429 . S
C683 H707 0.950 . S
C684 C701 1.574 . S
C684 C703 1.368 . S
C684 H708 0.949 . S
H685 C689 0.949 . S
C686 C687 1.349 . S
C686 C688 1.327 . S
C686 H709 0.950 . S
C687 C686 1.349 . S
C687 C699 1.349 . S
C688 C686 1.327 . S
C688 C704 1.429 . S
C688 H710 0.950 . S
C689 H685 0.949 . S
C689 C697 1.574 . S
C689 C705 1.368 . S
H690 C698 0.950 . S
H691 C696 0.950 . S
H692 C697 0.949 . S
H693 C699 0.950 . S
H694 C700 0.950 . S
H695 C701 0.949 . S
C696 H691 0.950 . S
C696 C698 1.327 . S
C696 C702 1.429 . S
C697 C689 1.574 . S
C697 H692 0.949 . S
C697 C703 1.368 . S
C698 C682 1.349 . S
C698 H690 0.950 . S
C698 C696 1.327 . S
C699 C687 1.349 . S
C699 H693 0.950 . S
C699 C700 1.327 . S
C700 H694 0.950 . S
C700 C699 1.327 . S
C700 C704 1.429 . S
C701 C684 1.574 . S
C701 H695 0.949 . S
C701 C705 1.368 . S
C702 C683 1.429 . S
C702 C696 1.429 . S
C702 C703 1.523 . S
C703 C684 1.368 . S
C703 C697 1.368 . S
C703 C702 1.523 . S
C704 C688 1.429 . S
C704 C700 1.429 . S
C704 C705 1.523 . S
C705 C689 1.368 . S
C705 C701 1.368 . S
C705 C704 1.523 . S
H706 C681 0.950 . S
H707 C683 0.950 . S
H708 C684 0.949 . S
H709 C686 0.950 . S
H710 C688 0.950 . S
C711 C712 1.349 . S
C711 C713 1.327 . S
C711 H736 0.950 . S
C712 C711 1.349 . S
C712 C728 1.349 . S
C713 C711 1.327 . S
C713 C732 1.429 . S
C713 H737 0.950 . S
C714 C731 1.574 . S
C714 C733 1.368 . S
C714 H738 0.949 . S
H715 C719 0.949 . S
C716 C717 1.349 . S
C716 C718 1.327 . S
C716 H739 0.950 . S
C717 C716 1.349 . S
C717 C729 1.349 . S
C718 C716 1.327 . S
C718 C734 1.429 . S
C718 H740 0.950 . S
C719 H715 0.949 . S
C719 C727 1.574 . S
C719 C735 1.368 . S
H720 C728 0.950 . S
H721 C726 0.950 . S
H722 C727 0.949 . S
H723 C729 0.950 . S
H724 C730 0.950 . S
H725 C731 0.949 . S
C726 H721 0.950 . S
C726 C728 1.327 . S
C726 C732 1.429 . S
C727 C719 1.574 . S
C727 H722 0.949 . S
C727 C733 1.368 . S
C728 C712 1.349 . S
C728 H720 0.950 . S
C728 C726 1.327 . S
C729 C717 1.349 . S
C729 H723 0.950 . S
C729 C730 1.327 . S
C730 H724 0.950 . S
C730 C729 1.327 . S
C730 C734 1.429 . S
C731 C714 1.574 . S
C731 H725 0.949 . S
C731 C735 1.368 . S
C732 C713 1.429 . S
C732 C726 1.429 . S
C732 C733 1.523 . S
C733 C714 1.368 . S
C733 C727 1.368 . S
C733 C732 1.523 . S
C734 C718 1.429 . S
C734 C730 1.429 . S
C734 C735 1.523 . S
C735 C719 1.368 . S
C735 C731 1.368 . S
C735 C734 1.523 . S
H736 C711 0.950 . S
H737 C713 0.950 . S
H738 C714 0.949 . S
H739 C716 0.950 . S
H740 C718 0.950 . S
C741 C742 1.349 . S
C741 C743 1.327 . S
C741 H766 0.950 . S
C742 C741 1.349 . S
C742 C758 1.349 . S
C743 C741 1.327 . S
C743 C762 1.429 . S
C743 H767 0.950 . S
C744 C761 1.574 . S
C744 C763 1.368 . S
C744 H768 0.949 . S
H745 C749 0.949 . S
C746 C747 1.349 . S
C746 C748 1.327 . S
C746 H769 0.950 . S
C747 C746 1.349 . S
C747 C759 1.349 . S
C748 C746 1.327 . S
C748 C764 1.429 . S
C748 H770 0.950 . S
C749 H745 0.949 . S
C749 C757 1.574 . S
C749 C765 1.368 . S
H750 C758 0.950 . S
H751 C756 0.950 . S
H752 C757 0.949 . S
H753 C759 0.950 . S
H754 C760 0.950 . S
H755 C761 0.949 . S
C756 H751 0.950 . S
C756 C758 1.327 . S
C756 C762 1.429 . S
C757 C749 1.574 . S
C757 H752 0.949 . S
C757 C763 1.368 . S
C758 C742 1.349 . S
C758 H750 0.950 . S
C758 C756 1.327 . S
C759 C747 1.349 . S
C759 H753 0.950 . S
C759 C760 1.327 . S
C760 H754 0.950 . S
C760 C759 1.327 . S
C760 C764 1.429 . S
C761 C744 1.574 . S
C761 H755 0.949 . S
C761 C765 1.368 . S
C762 C743 1.429 . S
C762 C756 1.429 . S
C762 C763 1.523 . S
C763 C744 1.368 . S
C763 C757 1.368 . S
C763 C762 1.523 . S
C764 C748 1.429 . S
C764 C760 1.429 . S
C764 C765 1.523 . S
C765 C749 1.368 . S
C765 C761 1.368 . S
C765 C764 1.523 . S
H766 C741 0.950 . S
H767 C743 0.950 . S
H768 C744 0.949 . S
H769 C746 0.950 . S
H770 C748 0.950 . S
C771 C772 1.349 . S
C771 C773 1.327 . S
C771 H796 0.950 . S
C772 C771 1.349 . S
C772 C788 1.349 . S
C773 C771 1.327 . S
C773 C792 1.429 . S
C773 H797 0.950 . S
C774 C791 1.574 . S
C774 C793 1.368 . S
C774 H798 0.949 . S
H775 C779 0.949 . S
C776 C777 1.349 . S
C776 C778 1.327 . S
C776 H799 0.950 . S
C777 C776 1.349 . S
C777 C789 1.349 . S
C778 C776 1.327 . S
C778 C794 1.429 . S
C778 H800 0.950 . S
C779 H775 0.949 . S
C779 C787 1.574 . S
C779 C795 1.368 . S
H780 C788 0.950 . S
H781 C786 0.950 . S
H782 C787 0.949 . S
H783 C789 0.950 . S
H784 C790 0.950 . S
H785 C791 0.949 . S
C786 H781 0.950 . S
C786 C788 1.327 . S
C786 C792 1.429 . S
C787 C779 1.574 . S
C787 H782 0.949 . S
C787 C793 1.368 . S
C788 C772 1.349 . S
C788 H780 0.950 . S
C788 C786 1.327 . S
C789 C777 1.349 . S
C789 H783 0.950 . S
C789 C790 1.327 . S
C790 H784 0.950 . S
C790 C789 1.327 . S
C790 C794 1.429 . S
C791 C774 1.574 . S
C791 H785 0.949 . S
C791 C795 1.368 . S
C792 C773 1.429 . S
C792 C786 1.429 . S
C792 C793 1.523 . S
C793 C774 1.368 . S
C793 C787 1.368 . S
C793 C792 1.523 . S
C794 C778 1.429 . S
C794 C790 1.429 . S
C794 C795 1.523 . S
C795 C779 1.368 . S
C795 C791 1.368 . S
C795 C794 1.523 . S
H796 C771 0.950 . S
H797 C773 0.950 . S
H798 C774 0.949 . S
H799 C776 0.950 . S
H800 C778 0.950 . S
C801 C802 1.349 . S
C801 C803 1.327 . S
C801 H826 0.950 . S
C802 C801 1.349 . S
C802 C818 1.349 . S
C803 C801 1.327 . S
C803 C822 1.429 . S
C803 H827 0.950 . S
C804 C821 1.574 . S
C804 C823 1.368 . S
C804 H828 0.949 . S
H805 C809 0.949 . S
C806 C807 1.349 . S
C806 C808 1.327 . S
C806 H829 0.950 . S
C807 C806 1.349 . S
C807 C819 1.349 . S
C808 C806 1.327 . S
C808 C824 1.429 . S
C808 H830 0.950 . S
C809 H805 0.949 . S
C809 C817 1.574 . S
C809 C825 1.368 . S
H810 C818 0.950 . S
H811 C816 0.950 . S
H812 C817 0.949 . S
H813 C819 0.950 . S
H814 C820 0.950 . S
H815 C821 0.949 . S
C816 H811 0.950 . S
C816 C818 1.327 . S
C816 C822 1.429 . S
C817 C809 1.574 . S
C817 H812 0.949 . S
C817 C823 1.368 . S
C818 C802 1.349 . S
C818 H810 0.950 . S
C818 C816 1.327 . S
C819 C807 1.349 . S
C819 H813 0.950 . S
C819 C820 1.327 . S
C820 H814 0.950 . S
C820 C819 1.327 . S
C820 C824 1.429 . S
C821 C804 1.574 . S
C821 H815 0.949 . S
C821 C825 1.368 . S
C822 C803 1.429 . S
C822 C816 1.429 . S
C822 C823 1.523 . S
C823 C804 1.368 . S
C823 C817 1.368 . S
C823 C822 1.523 . S
C824 C808 1.429 . S
C824 C820 1.429 . S
C824 C825 1.523 . S
C825 C809 1.368 . S
C825 C821 1.368 . S
C825 C824 1.523 . S
H826 C801 0.950 . S
H827 C803 0.950 . S
H828 C804 0.949 . S
H829 C806 0.950 . S
H830 C808 0.950 . S
C831 C832 1.349 . S
C831 C833 1.327 . S
C831 H856 0.950 . S
C832 C831 1.349 . S
C832 C848 1.349 . S
C833 C831 1.327 . S
C833 C852 1.429 . S
C833 H857 0.950 . S
C834 C851 1.574 . S
C834 C853 1.368 . S
C834 H858 0.949 . S
H835 C839 0.949 . S
C836 C837 1.349 . S
C836 C838 1.327 . S
C836 H859 0.950 . S
C837 C836 1.349 . S
C837 C849 1.349 . S
C838 C836 1.327 . S
C838 C854 1.429 . S
C838 H860 0.950 . S
C839 H835 0.949 . S
C839 C847 1.574 . S
C839 C855 1.368 . S
H840 C848 0.950 . S
H841 C846 0.950 . S
H842 C847 0.949 . S
H843 C849 0.950 . S
H844 C850 0.950 . S
H845 C851 0.949 . S
C846 H841 0.950 . S
C846 C848 1.327 . S
C846 C852 1.429 . S
C847 C839 1.574 . S
C847 H842 0.949 . S
C847 C853 1.368 . S
C848 C832 1.349 . S
C848 H840 0.950 . S
C848 C846 1.327 . S
C849 C837 1.349 . S
C849 H843 0.950 . S
C849 C850 1.327 . S
C850 H844 0.950 . S
C850 C849 1.327 . S
C850 C854 1.429 . S
C851 C834 1.574 . S
C851 H845 0.949 . S
C851 C855 1.368 . S
C852 C833 1.429 . S
C852 C846 1.429 . S
C852 C853 1.523 . S
C853 C834 1.368 . S
C853 C847 1.368 . S
C853 C852 1.523 . S
C854 C838 1.429 . S
C854 C850 1.429 . S
C854 C855 1.523 . S
C855 C839 1.368 . S
C855 C851 1.368 . S
C855 C854 1.523 . S
H856 C831 0.950 . S
H857 C833 0.950 . S
H858 C834 0.949 . S
H859 C836 0.950 . S
H860 C838 0.950 . S
C861 C862 1.349 . S
C861 C863 1.327 . S
C861 H886 0.950 . S
C862 C861 1.349 . S
C862 C878 1.349 . S
C863 C861 1.327 . S
C863 C882 1.429 . S
C863 H887 0.950 . S
C864 C881 1.574 . S
C864 C883 1.368 . S
C864 H888 0.949 . S
H865 C869 0.949 . S
C866 C867 1.349 . S
C866 C868 1.327 . S
C866 H889 0.950 . S
C867 C866 1.349 . S
C867 C879 1.349 . S
C868 C866 1.327 . S
C868 C884 1.429 . S
C868 H890 0.950 . S
C869 H865 0.949 . S
C869 C877 1.574 . S
C869 C885 1.368 . S
H870 C878 0.950 . S
H871 C876 0.950 . S
H872 C877 0.949 . S
H873 C879 0.950 . S
H874 C880 0.950 . S
H875 C881 0.949 . S
C876 H871 0.950 . S
C876 C878 1.327 . S
C876 C882 1.429 . S
C877 C869 1.574 . S
C877 H872 0.949 . S
C877 C883 1.368 . S
C878 C862 1.349 . S
C878 H870 0.950 . S
C878 C876 1.327 . S
C879 C867 1.349 . S
C879 H873 0.950 . S
C879 C880 1.327 . S
C880 H874 0.950 . S
C880 C879 1.327 . S
C880 C884 1.429 . S
C881 C864 1.574 . S
C881 H875 0.949 . S
C881 C885 1.368 . S
C882 C863 1.429 . S
C882 C876 1.429 . S
C882 C883 1.523 . S
C883 C864 1.368 . S
C883 C877 1.368 . S
C883 C882 1.523 . S
C884 C868 1.429 . S
C884 C880 1.429 . S
C884 C885 1.523 . S
C885 C869 1.368 . S
C885 C881 1.368 . S
C885 C884 1.523 . S
H886 C861 0.950 . S
H887 C863 0.950 . S
H888 C864 0.949 . S
H889 C866 0.950 . S
H890 C868 0.950 . S
C891 C892 1.349 . S
C891 C893 1.327 . S
C891 H916 0.950 . S
C892 C891 1.349 . S
C892 C908 1.349 . S
C893 C891 1.327 . S
C893 C912 1.429 . S
C893 H917 0.950 . S
C894 C911 1.574 . S
C894 C913 1.368 . S
C894 H918 0.949 . S
H895 C899 0.949 . S
C896 C897 1.349 . S
C896 C898 1.327 . S
C896 H919 0.950 . S
C897 C896 1.349 . S
C897 C909 1.349 . S
C898 C896 1.327 . S
C898 C914 1.429 . S
C898 H920 0.950 . S
C899 H895 0.949 . S
C899 C907 1.574 . S
C899 C915 1.368 . S
H900 C908 0.950 . S
H901 C906 0.950 . S
H902 C907 0.949 . S
H903 C909 0.950 . S
H904 C910 0.950 . S
H905 C911 0.949 . S
C906 H901 0.950 . S
C906 C908 1.327 . S
C906 C912 1.429 . S
C907 C899 1.574 . S
C907 H902 0.949 . S
C907 C913 1.368 . S
C908 C892 1.349 . S
C908 H900 0.950 . S
C908 C906 1.327 . S
C909 C897 1.349 . S
C909 H903 0.950 . S
C909 C910 1.327 . S
C910 H904 0.950 . S
C910 C909 1.327 . S
C910 C914 1.429 . S
C911 C894 1.574 . S
C911 H905 0.949 . S
C911 C915 1.368 . S
C912 C893 1.429 . S
C912 C906 1.429 . S
C912 C913 1.523 . S
C913 C894 1.368 . S
C913 C907 1.368 . S
C913 C912 1.523 . S
C914 C898 1.429 . S
C914 C910 1.429 . S
C914 C915 1.523 . S
C915 C899 1.368 . S
C915 C911 1.368 . S
C915 C914 1.523 . S
H916 C891 0.950 . S
H917 C893 0.950 . S
H918 C894 0.949 . S
H919 C896 0.950 . S
H920 C898 0.950 . S
C921 C922 1.349 . S
C921 C923 1.327 . S
C921 H946 0.950 . S
C922 C921 1.349 . S
C922 C938 1.349 . S
C923 C921 1.327 . S
C923 C942 1.429 . S
C923 H947 0.950 . S
C924 C941 1.574 . S
C924 C943 1.368 . S
C924 H948 0.949 . S
H925 C929 0.949 . S
C926 C927 1.349 . S
C926 C928 1.327 . S
C926 H949 0.950 . S
C927 C926 1.349 . S
C927 C939 1.349 . S
C928 C926 1.327 . S
C928 C944 1.429 . S
C928 H950 0.950 . S
C929 H925 0.949 . S
C929 C937 1.574 . S
C929 C945 1.368 . S
H930 C938 0.950 1_455 S
H931 C936 0.950 . S
H932 C937 0.949 . S
H933 C939 0.950 . S
H934 C940 0.950 . S
H935 C941 0.949 . S
C936 H931 0.950 . S
C936 C938 1.327 . S
C936 C942 1.429 . S
C937 C929 1.574 . S
C937 H932 0.949 . S
C937 C943 1.368 . S
C938 C922 1.349 . S
C938 H930 0.950 1_655 S
C938 C936 1.327 . S
C939 C927 1.349 . S
C939 H933 0.950 . S
C939 C940 1.327 . S
C940 H934 0.950 . S
C940 C939 1.327 . S
C940 C944 1.429 . S
C941 C924 1.574 . S
C941 H935 0.949 . S
C941 C945 1.368 . S
C942 C923 1.429 . S
C942 C936 1.429 . S
C942 C943 1.523 . S
C943 C924 1.368 . S
C943 C937 1.368 . S
C943 C942 1.523 . S
C944 C928 1.429 . S
C944 C940 1.429 . S
C944 C945 1.523 . S
C945 C929 1.368 . S
C945 C941 1.368 . S
C945 C944 1.523 . S
H946 C921 0.950 . S
H947 C923 0.950 . S
H948 C924 0.949 . S
H949 C926 0.950 . S
H950 C928 0.950 . S
C951 C952 1.349 . S
C951 C953 1.327 . S
C951 H976 0.950 . S
C952 C951 1.349 . S
C952 C968 1.349 . S
C953 C951 1.327 . S
C953 C972 1.429 . S
C953 H977 0.950 . S
C954 C971 1.574 . S
C954 C973 1.368 . S
C954 H978 0.949 . S
H955 C959 0.949 . S
C956 C957 1.349 . S
C956 C958 1.327 . S
C956 H979 0.950 . S
C957 C956 1.349 . S
C957 C969 1.349 . S
C958 C956 1.327 . S
C958 C974 1.429 . S
C958 H980 0.950 . S
C959 H955 0.949 . S
C959 C967 1.574 . S
C959 C975 1.368 . S
H960 C968 0.950 . S
H961 C966 0.950 . S
H962 C967 0.949 . S
H963 C969 0.950 . S
H964 C970 0.950 . S
H965 C971 0.949 . S
C966 H961 0.950 . S
C966 C968 1.327 . S
C966 C972 1.429 . S
C967 C959 1.574 . S
C967 H962 0.949 . S
C967 C973 1.368 . S
C968 C952 1.349 . S
C968 H960 0.950 . S
C968 C966 1.327 . S
C969 C957 1.349 . S
C969 H963 0.950 . S
C969 C970 1.327 . S
C970 H964 0.950 . S
C970 C969 1.327 . S
C970 C974 1.429 . S
C971 C954 1.574 . S
C971 H965 0.949 . S
C971 C975 1.368 . S
C972 C953 1.429 . S
C972 C966 1.429 . S
C972 C973 1.523 . S
C973 C954 1.368 . S
C973 C967 1.368 . S
C973 C972 1.523 . S
C974 C958 1.429 . S
C974 C970 1.429 . S
C974 C975 1.523 . S
C975 C959 1.368 . S
C975 C971 1.368 . S
C975 C974 1.523 . S
H976 C951 0.950 . S
H977 C953 0.950 . S
H978 C954 0.949 . S
H979 C956 0.950 . S
H980 C958 0.950 . S
C981 C982 1.349 . S
C981 C983 1.327 . S
C981 H1006 0.950 . S
C982 C981 1.349 . S
C982 C998 1.349 . S
C983 C981 1.327 . S
C983 C1002 1.429 . S
C983 H1007 0.950 . S
C984 C1001 1.574 . S
C984 C1003 1.368 . S
C984 H1008 0.949 . S
H985 C989 0.949 . S
C986 C987 1.349 . S
C986 C988 1.327 . S
C986 H1009 0.950 . S
C987 C986 1.349 . S
C987 C999 1.349 . S
C988 C986 1.327 . S
C988 C1004 1.429 . S
C988 H1010 0.950 1_655 S
C989 H985 0.949 . S
C989 C997 1.574 1_655 S
C989 C1005 1.371 1_655 S
H990 C998 0.950 . S
H991 C996 0.950 . S
H992 C997 0.949 . S
H993 C999 0.950 . S
H994 C1000 0.950 . S
H995 C1001 0.949 . S
C996 H991 0.950 . S
C996 C998 1.327 . S
C996 C1002 1.429 . S
C997 C989 1.574 1_455 S
C997 H992 0.949 . S
C997 C1003 1.368 . S
C998 C982 1.349 . S
C998 H990 0.950 . S
C998 C996 1.327 . S
C999 C987 1.349 . S
C999 H993 0.950 . S
C999 C1000 1.327 . S
C1000 H994 0.950 . S
C1000 C999 1.327 . S
C1000 C1004 1.429 . S
C1001 C984 1.574 . S
C1001 H995 0.949 . S
C1001 C1005 1.364 . S
C1002 C983 1.429 . S
C1002 C996 1.429 . S
C1002 C1003 1.523 . S
C1003 C984 1.368 . S
C1003 C997 1.368 . S
C1003 C1002 1.523 . S
C1004 C988 1.429 . S
C1004 C1000 1.429 . S
C1004 C1005 1.526 1_655 S
C1005 C989 1.371 1_455 S
C1005 C1001 1.364 . S
C1005 C1004 1.526 1_455 S
H1006 C981 0.950 . S
H1007 C983 0.950 . S
H1008 C984 0.949 . S
H1009 C986 0.950 . S
H1010 C988 0.950 1_455 S
C1011 C1012 1.349 . S
C1011 C1013 1.327 . S
C1011 H1036 0.950 . S
C1012 C1011 1.349 . S
C1012 C1028 1.349 . S
C1013 C1011 1.327 . S
C1013 C1032 1.429 . S
C1013 H1037 0.950 . S
C1014 C1031 1.574 . S
C1014 C1033 1.368 . S
C1014 H1038 0.949 . S
H1015 C1019 0.949 . S
C1016 C1017 1.349 . S
C1016 C1018 1.327 . S
C1016 H1039 0.950 . S
C1017 C1016 1.349 . S
C1017 C1029 1.349 . S
C1018 C1016 1.327 . S
C1018 C1034 1.429 . S
C1018 H1040 0.950 . S
C1019 H1015 0.949 . S
C1019 C1027 1.574 . S
C1019 C1035 1.368 . S
H1020 C1028 0.950 . S
H1021 C1026 0.950 . S
H1022 C1027 0.949 . S
H1023 C1029 0.950 . S
H1024 C1030 0.950 . S
H1025 C1031 0.949 . S
C1026 H1021 0.950 . S
C1026 C1028 1.327 . S
C1026 C1032 1.429 . S
C1027 C1019 1.574 . S
C1027 H1022 0.949 . S
C1027 C1033 1.368 . S
C1028 C1012 1.349 . S
C1028 H1020 0.950 . S
C1028 C1026 1.327 . S
C1029 C1017 1.349 . S
C1029 H1023 0.950 . S
C1029 C1030 1.327 . S
C1030 H1024 0.950 . S
C1030 C1029 1.327 . S
C1030 C1034 1.429 . S
C1031 C1014 1.574 . S
C1031 H1025 0.949 . S
C1031 C1035 1.368 . S
C1032 C1013 1.429 . S
C1032 C1026 1.429 . S
C1032 C1033 1.523 . S
C1033 C1014 1.368 . S
C1033 C1027 1.368 . S
C1033 C1032 1.523 . S
C1034 C1018 1.429 . S
C1034 C1030 1.429 . S
C1034 C1035 1.523 . S
C1035 C1019 1.368 . S
C1035 C1031 1.368 . S
C1035 C1034 1.523 . S
H1036 C1011 0.950 . S
H1037 C1013 0.950 . S
H1038 C1014 0.949 . S
H1039 C1016 0.950 . S
H1040 C1018 0.950 . S
C1041 C1042 1.349 . S
C1041 C1043 1.327 . S
C1041 H1066 0.950 . S
C1042 C1041 1.349 . S
C1042 C1058 1.349 . S
C1043 C1041 1.327 . S
C1043 C1062 1.429 . S
C1043 H1067 0.950 1_565 S
C1044 C1061 1.574 1_565 S
C1044 C1063 1.368 1_565 S
C1044 H1068 0.949 . S
H1045 C1049 0.949 . S
C1046 C1047 1.349 . S
C1046 C1048 1.327 . S
C1046 H1069 0.950 . S
C1047 C1046 1.349 . S
C1047 C1059 1.349 . S
C1048 C1046 1.327 . S
C1048 C1064 1.429 . S
C1048 H1070 0.950 . S
C1049 H1045 0.949 . S
C1049 C1057 1.574 . S
C1049 C1065 1.368 . S
H1050 C1058 0.950 . S
H1051 C1056 0.950 . S
H1052 C1057 0.949 . S
H1053 C1059 0.950 . S
H1054 C1060 0.950 . S
H1055 C1061 0.949 . S
C1056 H1051 0.950 . S
C1056 C1058 1.327 . S
C1056 C1062 1.429 . S
C1057 C1049 1.574 . S
C1057 H1052 0.949 . S
C1057 C1063 1.368 . S
C1058 C1042 1.349 . S
C1058 H1050 0.950 . S
C1058 C1056 1.327 . S
C1059 C1047 1.349 . S
C1059 H1053 0.950 . S
C1059 C1060 1.327 . S
C1060 H1054 0.950 . S
C1060 C1059 1.327 . S
C1060 C1064 1.429 . S
C1061 C1044 1.574 1_545 S
C1061 H1055 0.949 . S
C1061 C1065 1.368 . S
C1062 C1043 1.429 . S
C1062 C1056 1.429 . S
C1062 C1063 1.523 1_565 S
C1063 C1044 1.368 1_545 S
C1063 C1057 1.368 . S
C1063 C1062 1.523 1_545 S
C1064 C1048 1.429 . S
C1064 C1060 1.429 . S
C1064 C1065 1.523 . S
C1065 C1049 1.368 . S
C1065 C1061 1.368 . S
C1065 C1064 1.523 . S
H1066 C1041 0.950 . S
H1067 C1043 0.950 1_545 S
H1068 C1044 0.949 . S
H1069 C1046 0.950 . S
H1070 C1048 0.950 . S
C532 C170 1.116 . S
C537 C33 1.111 . S
C562 C111 1.117 . S
C567 C52 1.117 . S
C592 C92 1.111 . S
C597 C151 1.111 . S
C622 C328 1.109 . S
C627 C229 1.115 . S
C652 C288 1.114 . S
C657 C210 1.108 . S
C682 C269 1.111 . S
C687 C347 1.116 . S
C712 C387 1.109 . S
C717 C524 1.114 . S
C742 C406 1.114 . S
C747 C465 1.114 . S
C772 C446 1.107 . S
C777 C505 1.108 . S
C802 C5 1.492 . S
C807 C418 1.492 . S
C832 C62 1.485 . S
C837 C475 1.485 . S
C862 C357 1.485 . S
C867 C123 1.494 . S
C892 C239 1.483 . S
C897 C121 1.483 . S
C922 C3 1.486 . S
C927 C298 1.486 . S
C952 C180 1.485 . S
C957 C64 1.494 . S
C982 C416 1.484 . S
C987 C300 1.493 . S
C1012 C182 1.492 . S
C1017 C477 1.492 . S
C1042 C359 1.494 . S
C1047 C241 1.494 . S
