# Generated by pormake.
# Topology snp, (6)-cn, num edge types: 1
# Building blocks:
#     Node 0, Type 0, BuildingBlock: PAMTOO_clean_sbu_0, # of connection points: 6
#     Node 1, Type 0, BuildingBlock: PAMTOO_clean_sbu_0, # of connection points: 6
#     Node 2, Type 0, BuildingBlock: PAMTOO_clean_sbu_0, # of connection points: 6
#     Node 3, Type 0, BuildingBlock: PAMTOO_clean_sbu_0, # of connection points: 6
#     Edge 4, Type (0, 0), BuildingBlock: XUDNAN_clean_linker_2, # of connection points: 2
#     Edge 5, Type (0, 0), BuildingBlock: XUDNAN_clean_linker_2, # of connection points: 2
#     Edge 6, Type (0, 0), BuildingBlock: XUDNAN_clean_linker_2, # of connection points: 2
#     Edge 7, Type (0, 0), BuildingBlock: XUDNAN_clean_linker_2, # of connection points: 2
#     Edge 8, Type (0, 0), BuildingBlock: XUDNAN_clean_linker_2, # of connection points: 2
#     Edge 9, Type (0, 0), BuildingBlock: XUDNAN_clean_linker_2, # of connection points: 2
#     Edge 10, Type (0, 0), BuildingBlock: XUDNAN_clean_linker_2, # of connection points: 2
#     Edge 11, Type (0, 0), BuildingBlock: XUDNAN_clean_linker_2, # of connection points: 2
#     Edge 12, Type (0, 0), BuildingBlock: XUDNAN_clean_linker_2, # of connection points: 2
#     Edge 13, Type (0, 0), BuildingBlock: XUDNAN_clean_linker_2, # of connection points: 2
#     Edge 14, Type (0, 0), BuildingBlock: XUDNAN_clean_linker_2, # of connection points: 2
#     Edge 15, Type (0, 0), BuildingBlock: XUDNAN_clean_linker_2, # of connection points: 2
# Relax obj value: 0.796
# Max RMSD: 0.188
# Mean RMSD: 0.188
data_MOF--net-snp--node1-PAMTOO_clean_sbu_0--edge1-XUDNAN_clean_linker_2
_symmetry_space_group_name_H-M    P1
_symmetry_Int_Tables_number       1
_symmetry_cell_setting            triclinic
loop_
_symmetry_equiv_pos_as_xyz
'x, y, z'
_cell_length_a     25.323746
_cell_length_b     24.803012
_cell_length_c     27.781337
_cell_angle_alpha  94.735224
_cell_angle_beta   93.260339
_cell_angle_gamma 92.465278
loop_
_atom_site_label
_atom_site_type_symbol
_atom_site_fract_x
_atom_site_fract_y
_atom_site_fract_z
_atom_type_partial_charge
Dy0 Dy 0.28773 0.96742 0.1943 0.0
Dy1 Dy 0.21225 0.06191 0.21496 0.0
C2 C 0.33639 0.0754 0.23161 0.0
O3 O 0.24178 0.94286 0.25999 0.0
O4 O 0.22727 1.02929 0.28721 0.0
O5 O 0.36739 0.95252 0.17473 0.0
O6 O 0.31623 0.88671 0.19488 0.0
O7 O 0.16042 0.98562 0.19038 0.0
O8 O 0.21974 0.93229 1.15096 0.0
O9 O 0.19453 0.04918 1.13642 0.0
O10 O 0.27497 1.01427 1.12385 0.0
O11 O 0.15496 0.1029 0.25795 0.0
O12 O 0.19093 0.14261 0.20067 0.0
C13 C 0.22555 0.97752 0.2945 0.0
O14 O 0.3273 1.02873 0.248 0.0
O15 O 0.29656 0.09454 0.2074 0.0
C16 C 0.37791 0.8663 1.13639 0.0
C17 C 0.41281 0.81159 1.05206 0.0
C18 C 0.44805 0.82437 1.09276 0.0
C19 C 0.43064 0.85152 1.13468 0.0
C20 C 0.34218 0.85189 1.09662 0.0
C21 C 0.3594 0.82465 1.05491 0.0
C22 C 0.36154 0.90043 0.17801 0.0
C23 C 0.17201 0.94212 1.16225 0.0
C24 C 0.23158 0.03802 1.10703 0.0
C25 C 0.18413 0.19478 0.2732 0.0
C26 C 0.23604 0.28311 0.32984 0.0
C27 C 0.24703 0.22952 0.33855 0.0
C28 C 0.2217 0.18598 0.3104 0.0
C29 C 0.17198 0.24803 0.2648 0.0
C30 C 0.19752 0.29201 0.29319 0.0
C31 C 0.1643 0.14881 0.23929 0.0
H32 H 0.48936 0.815 1.09157 0.0
H33 H 0.45875 0.86262 1.16513 0.0
H34 H 0.30145 0.86356 1.09711 0.0
H35 H 0.33144 0.81676 1.02389 0.0
H36 H 0.27518 0.22101 0.36746 0.0
H37 H 0.23246 0.14532 0.31707 0.0
H38 H 0.14381 0.25558 0.23558 0.0
H39 H 0.18794 0.33282 0.28596 0.0
Dy40 Dy 0.11559 0.21468 0.68277 0.0
Dy41 Dy 1.01023 0.25354 0.74061 0.0
C42 C 0.09573 0.34232 0.70877 0.0
O43 O 0.13048 0.1902 0.75897 0.0
O44 O 0.06756 0.23258 0.8034 0.0
O45 O 0.19075 0.17622 0.68768 0.0
O46 O 0.16235 0.20573 0.62051 0.0
O47 O 0.02451 0.1674 0.74213 0.0
O48 O 0.05209 0.14798 0.66877 0.0
O49 O 0.98117 0.24004 0.66016 0.0
O50 O 0.05678 0.22344 0.61968 0.0
O51 O 0.92665 0.23741 0.74855 0.0
O52 O 0.96974 0.30628 0.79111 0.0
C53 C 0.1106 0.20354 0.80107 0.0
O54 O 0.13026 0.30515 0.69957 0.0
O55 O 0.04728 0.32966 0.71938 0.0
C56 C 0.25193 0.22058 0.64153 0.0
C57 C 0.32038 0.30131 0.61091 0.0
C58 C 0.29478 0.31055 0.65425 0.0
C59 C 0.26038 0.2705 0.66927 0.0
C60 C 0.28338 0.20839 0.6028 0.0
C61 C 0.31766 0.24828 0.58772 0.0
C62 C 0.20265 0.18824 0.64474 0.0
C63 C 1.01751 0.13928 0.70087 0.0
C64 C 1.0052 0.22975 0.61917 0.0
C65 C 0.87568 0.2935 0.80255 0.0
C66 C 0.78178 0.3212 0.84666 0.0
C67 C 0.79891 0.26774 0.84521 0.0
C68 C 0.84506 0.25396 0.82286 0.0
C69 C 0.85837 0.34639 0.80257 0.0
C70 C 0.8115 0.36 0.82389 0.0
C71 C 0.92467 0.27915 0.77997 0.0
H72 H 0.29673 0.35045 0.67351 0.0
H73 H 0.23652 0.28049 0.69961 0.0
H74 H 0.2773 0.17008 0.581 0.0
H75 H 0.3365 0.23906 0.55421 0.0
H76 H 0.77812 0.23684 0.86315 0.0
H77 H 0.85773 0.21276 0.82277 0.0
H78 H 0.88107 0.37715 0.78602 0.0
H79 H 0.79922 0.40123 0.82342 0.0
Dy80 Dy 0.81227 1.01 0.19774 0.0
Dy81 Dy 0.84527 0.13352 0.17488 0.0
C82 C 0.7208 0.0948 0.18712 0.0
O83 O 0.83542 0.9997 1.11877 0.0
O84 O 0.84119 0.08811 1.09962 0.0
O85 O 0.77805 0.93094 0.17283 0.0
O86 O 0.81777 0.94427 0.24412 0.0
O87 O 0.91565 0.08589 1.15763 0.0
O88 O 0.89732 1.03008 0.21416 0.0
O89 O 0.87382 0.12641 0.25293 0.0
O90 O 0.81321 0.06113 0.27074 0.0
O91 O 0.85456 0.19838 1.1286 0.0
O92 O 0.87436 0.21317 0.20532 0.0
C93 C 0.84278 0.03545 1.08659 0.0
O94 O 0.7336 0.04444 0.18891 0.0
O95 O 0.7566 0.13426 0.18343 0.0
C96 C 0.74184 0.88579 0.23498 0.0
C97 C 0.65962 0.84611 0.28821 0.0
C98 C 0.65162 0.88996 0.26014 0.0
C99 C 0.69254 0.90973 0.23376 0.0
C100 C 0.74857 0.83957 0.25967 0.0
C101 C 0.70786 0.8198 0.28602 0.0
C102 C 0.78759 0.91134 0.2143 0.0
C103 C 0.92645 0.04258 0.17941 0.0
C104 C 0.84887 0.10088 0.28534 0.0
C105 C 0.83072 0.28039 1.16548 0.0
C106 C 0.74974 0.34609 1.13522 0.0
C107 C 0.80252 0.35625 1.12311 0.0
C108 C 0.84254 0.32337 1.13791 0.0
C109 C 0.78039 0.27529 0.18391 0.0
C110 C 0.74017 0.3083 1.16918 0.0
C111 C 0.8656 0.23478 1.16466 0.0
H112 H 0.61497 0.91086 0.2609 0.0
H113 H 0.68655 0.94518 0.21428 0.0
H114 H 0.78632 0.82057 0.26082 0.0
H115 H 0.71612 0.78658 0.30782 0.0
H116 H 0.8122 0.38484 1.0972 0.0
H117 H 0.88122 0.32794 1.12352 0.0
H118 H 0.77075 0.24255 0.20586 0.0
H119 H 0.70047 0.30024 0.18023 0.0
Dy120 Dy 0.08987 0.86757 0.71331 0.0
Dy121 Dy 0.98665 0.79684 0.67189 0.0
C122 C 0.08466 0.73847 0.70983 0.0
O123 O 0.09814 0.87281 0.63452 0.0
O124 O 0.03325 0.81026 0.60247 0.0
O125 O 0.15078 0.93013 0.70675 0.0
O126 O 0.14971 0.88642 0.77105 0.0
O127 O 0.98081 0.87114 0.63723 0.0
O128 O 0.02013 0.92155 0.70215 0.0
O129 O 0.96174 0.84497 0.74169 0.0
O130 O 0.04279 0.86746 0.78 0.0
O131 O 0.90569 0.77576 0.68301 0.0
O132 O 0.94419 0.7333 0.62441 0.0
C133 C 0.0739 0.84528 0.59668 0.0
O134 O 0.11428 0.78041 0.69993 0.0
O135 O 0.03456 0.7443 0.7149 0.0
C136 C 0.23206 0.90483 0.74174 0.0
C137 C 0.33108 0.86016 0.7563 0.0
C138 C 0.29237 0.83345 0.72352 0.0
C139 C 0.24317 0.85579 0.71616 0.0
C140 C 0.27242 0.93435 0.77024 0.0
C141 C 0.32187 0.91235 0.77717 0.0
C142 C 0.17688 0.91906 0.74627 0.0
C143 C 0.98507 0.91555 0.66474 0.0
C144 C 0.99089 0.86415 0.78126 0.0
C145 C 0.85245 0.74894 0.61402 0.0
C146 C 0.75504 0.76984 0.56703 0.0
C147 C 0.79717 0.80919 0.57145 0.0
C148 C 0.84546 0.79882 0.59476 0.0
C149 C 0.81091 0.70935 0.60929 0.0
C150 C 0.76258 0.71958 0.58572 0.0
C151 C 0.89971 0.7412 0.64505 0.0
H152 H 0.29842 0.79317 0.70719 0.0
H153 H 0.21233 0.83252 0.69388 0.0
H154 H 0.2644 0.97213 0.79035 0.0
H155 H 0.35069 0.93358 0.80312 0.0
H156 H 0.79303 0.84782 0.5564 0.0
H157 H 0.87694 0.83016 0.59876 0.0
H158 H 0.81544 0.67104 0.62484 0.0
H159 H 0.73087 0.68853 0.58265 0.0
H160 H 0.9355 0.94137 0.20598 0.0
H161 H 0.96669 0.04152 1.08971 0.0
H162 H 1.00093 0.96427 1.04346 0.0
H163 H 0.02498 0.90571 0.23427 0.0
H164 H 0.02952 0.83346 0.23651 0.0
H165 H 0.96657 0.86342 0.24017 0.0
H166 H 0.92533 0.8033 1.16966 0.0
H167 H 0.98633 0.76863 1.16609 0.0
H168 H 0.95653 0.79512 1.11317 0.0
H169 H 0.06517 0.8987 1.02672 0.0
H170 H 0.15124 0.92921 1.06602 0.0
H171 H 0.10364 0.87473 0.20055 0.0
C172 C 0.94833 0.94608 1.17001 0.0
C173 C 0.94917 0.99723 1.1516 0.0
C174 C 0.96644 1.00272 1.10497 0.0
C175 C 0.98445 0.95818 1.07782 0.0
C176 C 0.98845 0.90878 1.0987 0.0
C177 C 0.96926 0.90235 1.14402 0.0
C178 C 0.99602 0.85693 1.16685 0.0
C179 C 1.00493 0.86559 0.22272 0.0
C180 C 0.96422 0.80287 1.15302 0.0
C181 C 0.04592 0.85879 1.13944 0.0
C182 C 0.03384 0.87497 1.09297 0.0
C183 C 0.07423 0.8898 1.0637 0.0
C184 C 0.12267 0.90837 1.08642 0.0
C185 C 0.13036 0.90728 1.13671 0.0
C186 C 0.09532 0.87694 1.16214 0.0
H187 H 0.94254 0.94936 0.58398 0.0
H188 H 0.91778 0.94239 0.73487 0.0
H189 H 0.84267 1.00017 0.72761 0.0
H190 H 0.97018 0.03437 0.56232 0.0
H191 H 0.93502 0.07922 0.52589 0.0
H192 H 0.92181 1.00729 0.51594 0.0
H193 H 0.82413 1.01618 0.52469 0.0
H194 H 0.83586 0.08852 0.53082 0.0
H195 H 0.79953 0.05588 0.57479 0.0
H196 H 0.84425 0.09737 0.73226 0.0
H197 H 0.93304 0.13335 0.75684 0.0
H198 H 0.97621 0.11414 0.60885 0.0
C199 C 0.92049 0.96134 0.61508 0.0
C200 C 0.93885 0.94793 0.66094 0.0
C201 C 0.90761 0.9577 0.70041 0.0
C202 C 0.86341 0.98875 0.69557 0.0
C203 C 0.85691 1.01691 0.65393 0.0
C204 C 0.88086 0.99879 0.6115 0.0
C205 C 0.88637 0.04519 0.58014 0.0
C206 C 0.93112 0.04128 0.5442 0.0
C207 C 0.83337 0.05191 0.55115 0.0
C208 C 0.89535 0.08907 0.62123 0.0
C209 C 0.86291 0.07638 0.65845 0.0
C210 C 0.87184 0.10335 0.70457 0.0
C211 C 0.92326 0.12225 0.71875 0.0
C212 C 0.96216 0.12326 0.68455 0.0
C213 C 0.94669 0.11155 0.63523 0.0
H214 H 0.64412 1.02901 0.21997 0.0
H215 H 0.66743 0.18665 1.16557 0.0
H216 H 0.57167 0.20204 0.17305 0.0
H217 H 0.51649 0.99426 1.16042 0.0
H218 H 0.4937 0.95986 0.21055 0.0
H219 H 0.5631 0.96313 0.19961 0.0
H220 H 0.58393 1.00621 0.28774 0.0
H221 H 0.51437 1.00317 0.29803 0.0
H222 H 0.55201 0.06689 0.30785 0.0
H223 H 0.46882 0.19604 0.18353 0.0
H224 H 0.37529 0.17131 0.19867 0.0
H225 H 0.42528 1.02025 0.25047 0.0
C226 C 0.62943 0.06677 0.20919 0.0
C227 C 0.66362 0.1063 0.19157 0.0
C228 C 0.64225 0.15555 0.17899 0.0
C229 C 0.58778 0.16456 0.18311 0.0
C230 C 0.55524 0.12424 0.20041 0.0
C231 C 0.57581 0.07646 0.21348 0.0
C232 C 0.53372 0.0392 0.23143 0.0
C233 C 0.52633 0.98599 0.19855 0.0
C234 C 0.5468 1.02825 0.2844 0.0
C235 C 0.48583 0.07322 0.22672 0.0
C236 C 0.49838 0.12195 0.20828 0.0
C237 C 0.45905 0.15821 0.19851 0.0
C238 C 0.40595 0.14394 0.20733 0.0
C239 C 0.3926 0.09413 0.22634 0.0
C240 C 0.43369 0.05906 0.23664 0.0
H241 H 0.03151 0.42559 0.72682 0.0
H242 H 0.19135 0.39381 0.68763 0.0
H243 H 0.21026 0.4931 0.68601 0.0
H244 H 1.01109 0.53218 0.65136 0.0
H245 H 0.97161 0.56831 0.69407 0.0
H246 H 0.97317 0.49574 0.69225 0.0
H247 H 1.00279 0.50317 0.78363 0.0
H248 H 1.00162 0.5758 0.78568 0.0
H249 H 0.06116 0.54434 0.80505 0.0
H250 H 0.20794 0.60138 0.68755 0.0
H251 H 0.18419 0.69826 0.69098 0.0
H252 H 0.02712 0.65033 0.73142 0.0
C253 C 0.07082 0.43883 0.718 0.0
C254 C 0.10993 0.40136 0.70752 0.0
C255 C 0.1606 0.42151 0.69597 0.0
C256 C 0.17165 0.47795 0.69499 0.0
C257 C 0.13167 0.51367 0.7057 0.0
C258 C 0.08229 0.49415 0.71691 0.0
C259 C 0.04493 0.53897 0.72631 0.0
C260 C 0.99743 0.53346 0.68877 0.0
C261 C 0.02659 0.54066 0.77825 0.0
C262 C 0.08072 0.58746 0.71935 0.0
C263 C 0.13063 0.57302 0.70712 0.0
C264 C 0.16892 0.61263 0.6974 0.0
C265 C 0.15525 0.66767 0.6996 0.0
C266 C 0.10381 0.68244 0.71163 0.0
C267 C 0.06697 0.64129 0.72225 0.0
H268 H 0.40138 0.30942 0.55041 0.0
H269 H 0.26941 0.39579 0.60448 0.0
H270 H 0.25822 0.43783 0.52894 0.0
H271 H 0.42865 0.41271 0.44293 0.0
H272 H 0.44386 0.3537 0.40488 0.0
H273 H 0.46583 0.36029 0.46811 0.0
H274 H 0.42022 0.26708 0.47806 0.0
H275 H 0.3981 0.26065 0.41586 0.0
H276 H 0.35036 0.25587 0.46131 0.0
H277 H 0.22737 0.42611 0.44591 0.0
H278 H 0.19131 0.37215 0.37255 0.0
H279 H 0.33982 0.29394 0.36095 0.0
C280 C 0.37245 0.33991 0.54687 0.0
C281 C 0.33503 0.34733 0.58227 0.0
C282 C 0.29843 0.38844 0.57783 0.0
C283 C 0.29153 0.41263 0.53436 0.0
C284 C 0.32187 0.39588 0.49598 0.0
C285 C 0.36385 0.36235 0.50249 0.0
C286 C 0.38134 0.33895 0.45405 0.0
C287 C 0.43296 0.36819 0.44176 0.0
C288 C 0.38766 0.27704 0.45231 0.0
C289 C 0.33544 0.35381 0.42107 0.0
C290 C 0.30369 0.38999 0.44512 0.0
C291 C 0.25295 0.3997 0.42606 0.0
C292 C 0.23249 0.36868 0.38417 0.0
C293 C 0.26273 0.32836 0.36175 0.0
C294 C 0.31614 0.3245 0.378 0.0
H295 H 0.7747 0.41618 0.90207 0.0
H296 H 0.69047 0.26193 0.86256 0.0
H297 H 0.63698 0.27646 0.9329 0.0
H298 H 0.80265 0.4097 1.00609 0.0
H299 H 0.78985 0.47574 1.03422 0.0
H300 H 0.80063 0.46812 0.9714 0.0
H301 H 0.71086 0.50877 0.95112 0.0
H302 H 0.69963 0.51719 1.01482 0.0
H303 H 0.65106 0.48048 0.97319 0.0
H304 H 0.62461 0.28571 1.01808 0.0
H305 H 0.66037 0.28513 1.101 0.0
H306 H 0.74123 0.44066 1.09169 0.0
C307 C 0.74259 0.3872 0.90636 0.0
C308 C 0.73772 0.33749 0.87737 0.0
C309 C 0.69603 0.29986 0.88489 0.0
C310 C 0.66466 0.30829 0.92449 0.0
C311 C 0.6742 0.35532 0.9556 0.0
C312 C 0.7109 0.39542 0.9458 0.0
C313 C 0.72226 0.43611 0.98937 0.0
C314 C 0.78234 0.44786 1.00095 0.0
C315 C 0.69426 0.48874 0.98166 0.0
C316 C 0.69607 0.4061 1.02774 0.0
C317 C 0.66495 0.36185 1.0069 0.0
C318 C 0.6474 0.32099 1.03466 0.0
C319 C 0.66791 0.32118 1.08251 0.0
C320 C 0.70585 0.36197 1.10198 0.0
C321 C 0.71347 0.40843 1.07669 0.0
H322 H 0.70152 0.70229 0.49772 0.0
H323 H 0.69879 0.86184 0.5727 0.0
H324 H 0.63242 0.88738 0.51178 0.0
H325 H 0.71501 0.73375 0.39538 0.0
H326 H 0.67226 0.6842 0.35903 0.0
H327 H 0.69634 0.66979 0.41781 0.0
H328 H 0.60031 0.6527 0.44197 0.0
H329 H 0.57574 0.66748 0.38247 0.0
H330 H 0.55262 0.70387 0.43545 0.0
H331 H 0.59925 0.90709 0.43306 0.0
H332 H 0.61361 0.92027 0.34869 0.0
H333 H 0.62983 0.7482 0.31848 0.0
C334 C 0.68427 0.74137 0.50264 0.0
C335 C 0.70518 0.78011 0.5395 0.0
C336 C 0.6834 0.83163 0.54442 0.0
C337 C 0.64504 0.84618 0.51023 0.0
C338 C 0.62839 0.80864 0.47151 0.0
C339 C 0.64647 0.75653 0.46816 0.0
C340 C 0.63326 0.72834 0.41818 0.0
C341 C 0.68215 0.70273 0.39638 0.0
C342 C 0.58776 0.68559 0.41962 0.0
C343 C 0.61473 0.77579 0.3917 0.0
C344 C 0.60813 0.82057 0.42381 0.0
C345 C 0.60267 0.87203 0.40774 0.0
C346 C 0.61069 0.87922 0.35924 0.0
C347 C 0.62442 0.83513 0.32757 0.0
C348 C 0.62 0.78231 0.34261 0.0
H349 H 0.31628 0.76566 0.79487 0.0
H350 H 0.4368 0.88879 0.77435 0.0
H351 H 0.49224 0.85772 0.84128 0.0
H352 H 0.30756 0.79363 0.90274 0.0
H353 H 0.2974 0.72801 0.9252 0.0
H354 H 0.28141 0.7362 0.86304 0.0
H355 H 0.34363 0.66074 0.83691 0.0
H356 H 0.35937 0.65135 0.89973 0.0
H357 H 0.41169 0.66433 0.86025 0.0
H358 H 0.51524 0.84264 0.92433 0.0
H359 H 0.50157 0.84824 1.01118 0.0
H360 H 0.36572 0.73568 0.9847 0.0
C361 C 0.35606 0.78321 0.80238 0.0
C362 C 0.37264 0.82914 0.77946 0.0
C363 C 0.42381 0.85307 0.7912 0.0
C364 C 0.45554 0.83544 0.82924 0.0
C365 C 0.43539 0.79408 0.85528 0.0
C366 C 0.38699 0.76726 0.84157 0.0
C367 C 0.36714 0.73545 0.88184 0.0
C368 C 0.31014 0.74931 0.8939 0.0
C369 C 0.37072 0.67434 0.86891 0.0
C370 C 0.40741 0.7553 0.92249 0.0
C371 C 0.44832 0.78616 0.90574 0.0
C372 C 0.48456 0.81707 0.93761 0.0
C373 C 0.47653 0.82001 0.9872 0.0
C374 C 0.43219 0.79266 1.00444 0.0
C375 C 0.39988 0.75682 0.9721 0.0
H376 H 0.84896 0.92961 1.0386 0.0
H377 H 0.88275 0.09932 1.01968 0.0
H378 H 0.9222 0.07358 0.9427 0.0
H379 H 0.968 0.87812 0.98575 0.0
H380 H 0.93464 0.81764 0.9564 0.0
H381 H 0.90989 0.84968 1.01068 0.0
H382 H 0.81839 0.85462 0.96439 0.0
H383 H 0.84421 0.82392 0.91005 0.0
H384 H 0.81422 0.88848 0.9094 0.0
H385 H 0.96337 1.03009 0.86828 0.0
H386 H 0.99631 0.97301 0.80043 0.0
H387 H 0.9331 0.82934 0.8599 0.0
C388 C 0.86381 0.96152 1.01795 0.0
C389 C 0.86157 1.01721 1.03629 0.0
C390 C 0.88269 0.05674 1.00742 0.0
C391 C 0.90577 0.04236 0.96325 0.0
C392 C 0.90758 0.98773 0.94658 0.0
C393 C 0.88665 0.94775 0.97271 0.0
C394 C 0.89355 0.89199 0.94562 0.0
C395 C 0.92856 0.8573 0.97648 0.0
C396 C 0.83936 0.86303 0.93154 0.0
C397 C 0.92145 0.90691 0.90039 0.0
C398 C 0.92955 0.96258 0.90233 0.0
C399 C 0.95633 0.9866 0.86631 0.0
C400 C 0.975 0.95359 0.82753 0.0
C401 C 0.96663 0.89638 0.82324 0.0
C402 C 0.9393 0.87286 0.8608 0.0
H403 H 0.19904 0.87287 0.32917 0.0
H404 H 0.19813 0.04599 0.36937 0.0
H405 H 0.15542 1.0284 0.44333 0.0
H406 H 0.07097 0.83873 0.37944 0.0
H407 H 0.09102 0.77664 0.40285 0.0
H408 H 0.1213 0.80054 0.35084 0.0
H409 H 0.21385 0.79816 0.39449 0.0
H410 H 0.18393 0.77382 0.44644 0.0
H411 H 0.22685 0.83422 0.45332 0.0
H412 H 0.1096 0.99579 0.51236 0.0
H413 H 0.0741 0.94936 0.57881 0.0
H414 H 0.10562 0.79386 0.50509 0.0
C415 C 0.19029 0.90706 0.3537 0.0
C416 C 0.2027 0.9614 0.34183 0.0
C417 C 0.18968 1.00414 0.3759 0.0
C418 C 0.1649 0.99459 0.41866 0.0
C419 C 0.15266 0.94155 0.42881 0.0
C420 C 0.16541 0.89814 0.39796 0.0
C421 C 0.14816 0.84527 0.41979 0.0
C422 C 0.10534 0.81337 0.38622 0.0
C423 C 0.19606 0.81081 0.42906 0.0
C424 C 0.12506 0.86611 0.46782 0.0
C425 C 0.12739 0.92208 0.47098 0.0
C426 C 0.10809 0.95198 0.51032 0.0
C427 C 0.08756 0.92484 0.54818 0.0
C428 C 0.08625 0.86749 0.54837 0.0
C429 C 0.10486 0.83755 0.50661 0.0
H430 H 0.07159 0.18362 0.89297 0.0
H431 H 0.21129 0.16875 0.81032 0.0
H432 H 0.25599 0.12416 0.87604 0.0
H433 H 0.14261 0.20961 1.01228 0.0
H434 H 0.09558 0.17026 1.04294 0.0
H435 H 0.07428 0.20227 0.98972 0.0
H436 H 0.03698 0.10962 0.94952 0.0
H437 H 0.05853 0.07731 1.00248 0.0
H438 H 0.07989 0.05361 0.944 0.0
H439 H 0.28743 0.07814 0.95255 0.0
H440 H 0.30121 0.03978 1.032 0.0
H441 H 0.14243 0.08252 1.06607 0.0
C442 C 0.11181 0.17171 0.88888 0.0
C443 C 0.13741 0.18069 0.84545 0.0
C444 C 0.19002 0.16302 0.84238 0.0
C445 C 0.21612 0.13727 0.87989 0.0
C446 C 0.18984 0.12836 0.92154 0.0
C447 C 0.13878 0.14523 0.92638 0.0
C448 C 0.11954 0.13004 0.97501 0.0
C449 C 0.10728 0.18108 1.00687 0.0
C450 C 0.07086 0.0903 0.96728 0.0
C451 C 0.1676 0.1026 0.99654 0.0
C452 C 0.20778 0.10184 0.96509 0.0
C453 C 0.25598 0.07871 0.97735 0.0
C454 C 0.26359 0.05662 1.02278 0.0
C455 C 0.22341 0.05743 1.05632 0.0
C456 C 0.17459 0.08069 1.04202 0.0
H457 H 0.94747 0.1295 0.33269 0.0
H458 H 0.78125 0.11143 0.36002 0.0
H459 H 0.80197 0.14661 0.44564 0.0
H460 H 0.99414 0.08395 0.45011 0.0
H461 H 0.05257 0.12865 0.45576 0.0
H462 H 0.02437 0.10377 0.39669 0.0
H463 H 1.01778 0.20212 0.37342 0.0
H464 H 0.04552 0.22747 0.43254 0.0
H465 H 0.98242 0.24967 0.41054 0.0
H466 H 0.8417 0.19132 0.5292 0.0
H467 H 0.89604 0.22326 0.60358 0.0
H468 H 0.03831 0.20439 0.52521 0.0
C469 C 0.91534 0.13279 0.3567 0.0
C470 C 0.86227 0.11789 0.33877 0.0
C471 C 0.822 0.12228 0.37217 0.0
C472 C 0.83352 0.14269 0.42109 0.0
C473 C 0.88599 0.15773 0.4373 0.0
C474 C 0.92646 0.15149 0.40624 0.0
C475 C 0.97992 0.1672 0.43346 0.0
C476 C 1.0148 0.11797 0.43404 0.0
C477 C 1.00807 0.21442 0.41115 0.0
C478 C 0.96338 0.18467 0.48434 0.0
C479 C 0.90889 0.17963 0.4856 0.0
C480 C 0.88437 0.19462 0.52831 0.0
C481 C 0.91586 0.21333 0.57071 0.0
C482 C 0.9721 0.21691 0.5714 0.0
C483 C 0.99567 0.20264 0.5268 0.0
loop_
_geom_bond_atom_site_label_1
_geom_bond_atom_site_label_2
_geom_bond_distance
_geom_bond_site_symmetry_2
_ccdc_geom_bond_type
Dy0 O3 2.314 . S
Dy0 O5 2.389 1_554 S
Dy0 O6 2.373 1_554 S
Dy0 O8 2.340 . S
Dy0 O10 2.294 1_564 S
Dy0 O14 2.277 1_565 S
Dy0 C22 2.731 1_554 S
Dy1 O4 2.298 . S
Dy1 O7 2.275 . S
Dy1 O9 2.307 . S
Dy1 O11 2.395 . S
Dy1 O12 2.379 . S
Dy1 O15 2.339 . S
Dy1 C31 2.738 . S
C2 O14 1.254 . S
C2 O15 1.257 . S
O3 Dy0 2.314 . S
O3 C13 1.266 . S
O4 Dy1 2.298 . S
O4 C13 1.236 1_545 S
O5 Dy0 2.389 1_556 S
O5 C22 1.255 . S
O6 Dy0 2.373 1_556 S
O6 C22 1.249 . S
O7 Dy1 2.275 . S
O7 C23 1.254 . S
O8 Dy0 2.340 . S
O8 C23 1.257 1_565 S
O9 Dy1 2.307 . S
O9 C24 1.266 1_554 S
O10 Dy0 2.294 1_546 S
O10 C24 1.236 . S
O11 Dy1 2.395 . S
O11 C31 1.255 . S
O12 Dy1 2.379 . S
O12 C31 1.249 . S
C13 O3 1.266 . S
C13 O4 1.236 1_565 S
O14 Dy0 2.277 1_545 S
O14 C2 1.254 . S
O15 Dy1 2.339 . S
O15 C2 1.257 . S
C16 C19 1.344 . S
C16 C20 1.328 . S
C16 C22 1.516 . S
C17 C18 1.304 . S
C17 C21 1.323 . S
C18 C17 1.304 . S
C18 C19 1.371 . S
C18 H32 0.930 . S
C19 C16 1.344 . S
C19 C18 1.371 . S
C19 H33 0.931 . S
C20 C16 1.328 . S
C20 C21 1.433 . S
C20 H34 0.931 . S
C21 C17 1.323 . S
C21 C20 1.433 . S
C21 H35 0.933 . S
C22 Dy0 2.731 1_556 S
C22 O5 1.255 . S
C22 O6 1.249 . S
C22 C16 1.516 . S
C23 O7 1.254 . S
C23 O8 1.257 1_545 S
C24 O9 1.266 1_556 S
C24 O10 1.236 . S
C25 C28 1.344 . S
C25 C29 1.328 . S
C25 C31 1.516 . S
C26 C27 1.304 . S
C26 C30 1.323 . S
C27 C26 1.304 . S
C27 C28 1.371 . S
C27 H36 0.930 . S
C28 C25 1.344 . S
C28 C27 1.371 . S
C28 H37 0.931 . S
C29 C25 1.328 . S
C29 C30 1.433 . S
C29 H38 0.931 . S
C30 C26 1.323 . S
C30 C29 1.433 . S
C30 H39 0.933 . S
C31 Dy1 2.738 . S
C31 O11 1.255 . S
C31 O12 1.249 . S
C31 C25 1.516 . S
H32 C18 0.930 . S
H33 C19 0.931 . S
H34 C20 0.931 . S
H35 C21 0.933 . S
H36 C27 0.930 . S
H37 C28 0.931 . S
H38 C29 0.931 . S
H39 C30 0.933 . S
Dy40 O43 2.307 . S
Dy40 O45 2.395 . S
Dy40 O46 2.379 . S
Dy40 O48 2.339 . S
Dy40 O50 2.298 . S
Dy40 O54 2.275 . S
Dy40 C62 2.738 . S
Dy41 O44 2.298 1_655 S
Dy41 O47 2.275 1_655 S
Dy41 O49 2.307 . S
Dy41 O51 2.395 . S
Dy41 O52 2.379 . S
Dy41 O55 2.339 . S
Dy41 C71 2.738 . S
C42 O54 1.254 . S
C42 O55 1.257 1_455 S
O43 Dy40 2.307 . S
O43 C53 1.266 . S
O44 Dy41 2.298 1_455 S
O44 C53 1.236 . S
O45 Dy40 2.395 . S
O45 C62 1.255 . S
O46 Dy40 2.379 . S
O46 C62 1.249 . S
O47 Dy41 2.275 1_455 S
O47 C63 1.254 . S
O48 Dy40 2.339 . S
O48 C63 1.257 . S
O49 Dy41 2.307 . S
O49 C64 1.266 . S
O50 Dy40 2.298 . S
O50 C64 1.236 1_455 S
O51 Dy41 2.395 . S
O51 C71 1.255 . S
O52 Dy41 2.379 . S
O52 C71 1.249 . S
C53 O43 1.266 . S
C53 O44 1.236 . S
O54 Dy40 2.275 . S
O54 C42 1.254 . S
O55 Dy41 2.339 . S
O55 C42 1.257 1_655 S
C56 C59 1.344 . S
C56 C60 1.328 . S
C56 C62 1.516 . S
C57 C58 1.304 . S
C57 C61 1.323 . S
C58 C57 1.304 . S
C58 C59 1.371 . S
C58 H72 0.930 . S
C59 C56 1.344 . S
C59 C58 1.371 . S
C59 H73 0.931 . S
C60 C56 1.328 . S
C60 C61 1.433 . S
C60 H74 0.931 . S
C61 C57 1.323 . S
C61 C60 1.433 . S
C61 H75 0.933 . S
C62 Dy40 2.738 . S
C62 O45 1.255 . S
C62 O46 1.249 . S
C62 C56 1.516 . S
C63 O47 1.254 . S
C63 O48 1.257 . S
C64 O49 1.266 . S
C64 O50 1.236 1_655 S
C65 C68 1.344 . S
C65 C69 1.328 . S
C65 C71 1.516 . S
C66 C67 1.304 . S
C66 C70 1.323 . S
C67 C66 1.304 . S
C67 C68 1.371 . S
C67 H76 0.930 . S
C68 C65 1.344 . S
C68 C67 1.371 . S
C68 H77 0.931 . S
C69 C65 1.328 . S
C69 C70 1.433 . S
C69 H78 0.931 . S
C70 C66 1.323 . S
C70 C69 1.433 . S
C70 H79 0.933 . S
C71 Dy41 2.738 . S
C71 O51 1.255 . S
C71 O52 1.249 . S
C71 C65 1.516 . S
H72 C58 0.930 . S
H73 C59 0.931 . S
H74 C60 0.931 . S
H75 C61 0.933 . S
H76 C67 0.930 . S
H77 C68 0.931 . S
H78 C69 0.931 . S
H79 C70 0.933 . S
Dy80 O83 2.307 1_554 S
Dy80 O85 2.395 . S
Dy80 O86 2.379 . S
Dy80 O88 2.339 . S
Dy80 O90 2.298 1_565 S
Dy80 O94 2.275 . S
Dy80 C102 2.738 . S
Dy81 O84 2.298 1_545 S
Dy81 O87 2.275 . S
Dy81 O89 2.307 1_556 S
Dy81 O91 2.395 . S
Dy81 O92 2.379 . S
Dy81 O95 2.339 . S
Dy81 C111 2.738 . S
C82 O94 1.260 1_545 S
C82 O95 1.242 1_554 S
O83 Dy80 2.307 1_556 S
O83 C93 1.266 . S
O84 Dy81 2.298 1_565 S
O84 C93 1.236 . S
O85 Dy80 2.395 . S
O85 C102 1.255 . S
O86 Dy80 2.379 . S
O86 C102 1.249 . S
O87 Dy81 2.275 . S
O87 C103 1.254 1_546 S
O88 Dy80 2.339 . S
O88 C103 1.257 . S
O89 Dy81 2.307 1_554 S
O89 C104 1.266 . S
O90 Dy80 2.298 1_545 S
O90 C104 1.236 . S
O91 Dy81 2.395 . S
O91 C111 1.255 . S
O92 Dy81 2.379 . S
O92 C111 1.249 . S
C93 O83 1.266 . S
C93 O84 1.236 . S
O94 Dy80 2.275 . S
O94 C82 1.260 1_565 S
O95 Dy81 2.339 . S
O95 C82 1.242 1_556 S
C96 C99 1.344 . S
C96 C100 1.328 . S
C96 C102 1.516 . S
C97 C98 1.304 . S
C97 C101 1.323 . S
C98 C97 1.304 . S
C98 C99 1.371 . S
C98 H112 0.930 . S
C99 C96 1.344 . S
C99 C98 1.371 . S
C99 H113 0.931 . S
C100 C96 1.328 . S
C100 C101 1.433 . S
C100 H114 0.931 . S
C101 C97 1.323 . S
C101 C100 1.433 . S
C101 H115 0.933 . S
C102 Dy80 2.738 . S
C102 O85 1.255 . S
C102 O86 1.249 . S
C102 C96 1.516 . S
C103 O87 1.254 1_564 S
C103 O88 1.257 . S
C104 O89 1.266 . S
C104 O90 1.236 . S
C105 C108 1.344 . S
C105 C109 1.328 . S
C105 C111 1.516 . S
C106 C107 1.304 . S
C106 C110 1.323 . S
C107 C106 1.304 . S
C107 C108 1.371 . S
C107 H116 0.930 . S
C108 C105 1.344 . S
C108 C107 1.371 . S
C108 H117 0.931 . S
C109 C105 1.328 . S
C109 C110 1.433 . S
C109 H118 0.931 . S
C110 C106 1.323 . S
C110 C109 1.433 . S
C110 H119 0.933 . S
C111 Dy81 2.738 . S
C111 O91 1.255 . S
C111 O92 1.249 . S
C111 C105 1.516 . S
H112 C98 0.930 . S
H113 C99 0.931 . S
H114 C100 0.931 . S
H115 C101 0.933 . S
H116 C107 0.930 . S
H117 C108 0.931 . S
H118 C109 0.931 . S
H119 C110 0.933 . S
Dy120 O123 2.307 . S
Dy120 O125 2.395 . S
Dy120 O126 2.379 . S
Dy120 O128 2.339 . S
Dy120 O130 2.298 1_455 S
Dy120 O134 2.275 . S
Dy120 C142 2.738 . S
Dy121 O124 2.298 1_655 S
Dy121 O127 2.275 . S
Dy121 O129 2.307 . S
Dy121 O131 2.395 . S
Dy121 O132 2.379 . S
Dy121 O135 2.339 . S
Dy121 C151 2.738 . S
C122 O134 1.254 1_655 S
C122 O135 1.257 . S
O123 Dy120 2.307 . S
O123 C133 1.266 . S
O124 Dy121 2.298 1_455 S
O124 C133 1.236 . S
O125 Dy120 2.395 . S
O125 C142 1.255 . S
O126 Dy120 2.379 . S
O126 C142 1.249 . S
O127 Dy121 2.275 . S
O127 C143 1.254 1_655 S
O128 Dy120 2.339 . S
O128 C143 1.257 . S
O129 Dy121 2.307 . S
O129 C144 1.266 . S
O130 Dy120 2.298 1_655 S
O130 C144 1.236 . S
O131 Dy121 2.395 . S
O131 C151 1.255 . S
O132 Dy121 2.379 . S
O132 C151 1.249 . S
C133 O123 1.266 . S
C133 O124 1.236 . S
O134 Dy120 2.275 . S
O134 C122 1.254 1_455 S
O135 Dy121 2.339 . S
O135 C122 1.257 . S
C136 C139 1.344 . S
C136 C140 1.328 . S
C136 C142 1.516 . S
C137 C138 1.304 . S
C137 C141 1.323 . S
C138 C137 1.304 . S
C138 C139 1.371 . S
C138 H152 0.930 . S
C139 C136 1.344 . S
C139 C138 1.371 . S
C139 H153 0.931 . S
C140 C136 1.328 . S
C140 C141 1.433 . S
C140 H154 0.931 . S
C141 C137 1.323 . S
C141 C140 1.433 . S
C141 H155 0.933 . S
C142 Dy120 2.738 . S
C142 O125 1.255 . S
C142 O126 1.249 . S
C142 C136 1.516 . S
C143 O127 1.254 1_455 S
C143 O128 1.257 . S
C144 O129 1.266 . S
C144 O130 1.236 . S
C145 C148 1.344 . S
C145 C149 1.328 . S
C145 C151 1.516 . S
C146 C147 1.304 . S
C146 C150 1.323 . S
C147 C146 1.304 . S
C147 C148 1.371 . S
C147 H156 0.930 . S
C148 C145 1.344 . S
C148 C147 1.371 . S
C148 H157 0.931 . S
C149 C145 1.328 . S
C149 C150 1.433 . S
C149 H158 0.931 . S
C150 C146 1.323 . S
C150 C149 1.433 . S
C150 H159 0.933 . S
C151 Dy121 2.738 . S
C151 O131 1.255 . S
C151 O132 1.249 . S
C151 C145 1.516 . S
H152 C138 0.930 . S
H153 C139 0.931 . S
H154 C140 0.931 . S
H155 C141 0.933 . S
H156 C147 0.930 . S
H157 C148 0.931 . S
H158 C149 0.931 . S
H159 C150 0.933 . S
H160 C172 0.930 . S
H161 C174 0.930 . S
H162 C175 0.930 . S
H163 C179 0.959 . S
H164 C179 0.959 . S
H165 C179 0.961 1_655 S
H166 C180 0.960 1_655 S
H167 C180 0.961 1_554 S
H168 C180 0.959 . S
H169 C183 0.929 . S
H170 C184 0.931 . S
H171 C186 0.930 . S
C172 H160 0.930 . S
C172 C173 1.399 1_564 S
C172 C177 1.399 . S
C173 C172 1.399 1_546 S
C173 C174 1.376 . S
C174 H161 0.930 . S
C174 C173 1.376 . S
C174 C175 1.388 . S
C175 H162 0.930 . S
C175 C174 1.388 . S
C175 C176 1.390 1_556 S
C176 C175 1.390 1_554 S
C176 C177 1.394 1_545 S
C176 C182 1.465 1_655 S
C177 C172 1.399 . S
C177 C176 1.394 1_565 S
C177 C178 1.516 1_655 S
C178 C177 1.516 1_455 S
C178 C179 1.502 . S
C178 C180 1.561 1_554 S
C178 C181 1.526 . S
C179 H163 0.959 . S
C179 H164 0.959 . S
C179 H165 0.961 1_455 S
C179 C178 1.502 . S
C180 H166 0.960 1_455 S
C180 H167 0.961 1_556 S
C180 H168 0.959 . S
C180 C178 1.561 1_556 S
C181 C178 1.526 . S
C181 C182 1.396 1_565 S
C181 C186 1.390 . S
C182 C176 1.465 1_455 S
C182 C181 1.396 1_545 S
C182 C183 1.399 . S
C183 H169 0.929 . S
C183 C182 1.399 . S
C183 C184 1.385 . S
C184 H170 0.931 . S
C184 C183 1.385 . S
C184 C185 1.389 . S
C185 C184 1.389 . S
C185 C186 1.387 1_545 S
C186 H171 0.930 . S
C186 C181 1.390 . S
C186 C185 1.387 1_565 S
H187 C199 0.930 . S
H188 C201 0.930 . S
H189 C202 0.930 . S
H190 C206 0.959 1_455 S
H191 C206 0.959 . S
H192 C206 0.961 1_565 S
H193 C207 0.960 1_565 S
H194 C207 0.961 . S
H195 C207 0.959 . S
H196 C210 0.929 . S
H197 C211 0.931 . S
H198 C213 0.930 . S
C199 H187 0.930 . S
C199 C200 1.399 1_655 S
C199 C204 1.399 . S
C200 C199 1.399 1_455 S
C200 C201 1.376 . S
C201 H188 0.930 . S
C201 C200 1.376 . S
C201 C202 1.388 . S
C202 H189 0.930 . S
C202 C201 1.388 . S
C202 C203 1.390 . S
C203 C202 1.390 . S
C203 C204 1.394 1_455 S
C203 C209 1.465 1_565 S
C204 C199 1.399 . S
C204 C203 1.394 1_655 S
C204 C205 1.516 1_565 S
C205 C204 1.516 1_545 S
C205 C206 1.502 . S
C205 C207 1.561 . S
C205 C208 1.526 . S
C206 H190 0.959 1_655 S
C206 H191 0.959 . S
C206 H192 0.961 1_545 S
C206 C205 1.502 . S
C207 H193 0.960 1_545 S
C207 H194 0.961 . S
C207 H195 0.959 . S
C207 C205 1.561 . S
C208 C205 1.526 . S
C208 C209 1.396 1_655 S
C208 C213 1.390 . S
C209 C203 1.465 1_545 S
C209 C208 1.396 1_455 S
C209 C210 1.399 . S
C210 H196 0.929 . S
C210 C209 1.399 . S
C210 C211 1.385 . S
C211 H197 0.931 . S
C211 C210 1.385 . S
C211 C212 1.389 . S
C212 C211 1.389 . S
C212 C213 1.387 1_455 S
C213 H198 0.930 . S
C213 C208 1.390 . S
C213 C212 1.387 1_655 S
H214 C226 0.930 . S
H215 C228 0.930 . S
H216 C229 0.930 . S
H217 C233 0.959 . S
H218 C233 0.959 . S
H219 C233 0.961 . S
H220 C234 0.960 . S
H221 C234 0.961 . S
H222 C234 0.959 1_556 S
H223 C237 0.929 . S
H224 C238 0.931 . S
H225 C240 0.930 . S
C226 H214 0.930 . S
C226 C227 1.399 1_545 S
C226 C231 1.399 . S
C227 C226 1.399 1_565 S
C227 C228 1.376 1_554 S
C228 H215 0.930 . S
C228 C227 1.376 1_556 S
C228 C229 1.388 . S
C229 H216 0.930 . S
C229 C228 1.388 . S
C229 C230 1.390 1_556 S
C230 C229 1.390 1_554 S
C230 C231 1.394 1_565 S
C230 C236 1.465 . S
C231 C226 1.399 . S
C231 C230 1.394 1_545 S
C231 C232 1.516 . S
C232 C231 1.516 . S
C232 C233 1.502 . S
C232 C234 1.561 . S
C232 C235 1.526 . S
C233 H217 0.959 . S
C233 H218 0.959 . S
C233 H219 0.961 . S
C233 C232 1.502 . S
C234 H220 0.960 . S
C234 H221 0.961 . S
C234 H222 0.959 1_554 S
C234 C232 1.561 . S
C235 C232 1.526 . S
C235 C236 1.396 1_545 S
C235 C240 1.390 . S
C236 C230 1.465 . S
C236 C235 1.396 1_565 S
C236 C237 1.399 1_554 S
C237 H223 0.929 . S
C237 C236 1.399 1_556 S
C237 C238 1.385 1_556 S
C238 H224 0.931 . S
C238 C237 1.385 1_554 S
C238 C239 1.389 1_565 S
C239 C238 1.389 1_545 S
C239 C240 1.387 . S
C240 H225 0.930 . S
C240 C235 1.390 . S
C240 C239 1.387 . S
H241 C253 0.921 1_655 S
H242 C255 0.930 . S
H243 C256 0.930 . S
H244 C260 0.959 . S
H245 C260 0.959 . S
H246 C260 0.961 . S
H247 C261 0.960 . S
H248 C261 0.961 . S
H249 C261 0.959 . S
H250 C264 0.929 . S
H251 C265 0.931 . S
H252 C267 0.930 . S
C253 H241 0.921 1_455 S
C253 C254 1.399 . S
C253 C258 1.399 . S
C254 C253 1.399 . S
C254 C255 1.376 . S
C255 H242 0.930 . S
C255 C254 1.376 . S
C255 C256 1.388 . S
C256 H243 0.930 . S
C256 C255 1.388 . S
C256 C257 1.390 . S
C257 C256 1.390 . S
C257 C258 1.394 . S
C257 C263 1.465 . S
C258 C253 1.399 . S
C258 C257 1.394 . S
C258 C259 1.516 1_455 S
C259 C258 1.516 1_655 S
C259 C260 1.502 . S
C259 C261 1.561 1_655 S
C259 C262 1.526 1_655 S
C260 H244 0.959 . S
C260 H245 0.959 . S
C260 H246 0.961 . S
C260 C259 1.502 . S
C261 H247 0.960 . S
C261 H248 0.961 . S
C261 H249 0.959 . S
C261 C259 1.561 1_455 S
C262 C259 1.526 1_455 S
C262 C263 1.396 . S
C262 C267 1.390 1_455 S
C263 C257 1.465 . S
C263 C262 1.396 . S
C263 C264 1.399 . S
C264 H250 0.929 . S
C264 C263 1.399 . S
C264 C265 1.385 . S
C265 H251 0.931 . S
C265 C264 1.385 . S
C265 C266 1.389 . S
C266 C265 1.389 . S
C266 C267 1.387 1_455 S
C267 H252 0.930 . S
C267 C262 1.390 1_655 S
C267 C266 1.387 1_655 S
H268 C280 0.930 . S
H269 C282 0.930 . S
H270 C283 0.930 . S
H271 C287 0.959 . S
H272 C287 0.959 . S
H273 C287 0.961 . S
H274 C288 0.960 . S
H275 C288 0.961 . S
H276 C288 0.959 . S
H277 C291 0.929 . S
H278 C292 0.931 . S
H279 C294 0.930 . S
C280 H268 0.930 . S
C280 C281 1.399 . S
C280 C285 1.399 . S
C281 C280 1.399 . S
C281 C282 1.376 . S
C282 H269 0.930 . S
C282 C281 1.376 . S
C282 C283 1.388 . S
C283 H270 0.930 . S
C283 C282 1.388 . S
C283 C284 1.390 . S
C284 C283 1.390 . S
C284 C285 1.394 . S
C284 C290 1.465 . S
C285 C280 1.399 . S
C285 C284 1.394 . S
C285 C286 1.516 . S
C286 C285 1.516 . S
C286 C287 1.502 . S
C286 C288 1.561 . S
C286 C289 1.526 . S
C287 H271 0.959 . S
C287 H272 0.959 . S
C287 H273 0.961 . S
C287 C286 1.502 . S
C288 H274 0.960 . S
C288 H275 0.961 . S
C288 H276 0.959 . S
C288 C286 1.561 . S
C289 C286 1.526 . S
C289 C290 1.396 . S
C289 C294 1.390 . S
C290 C284 1.465 . S
C290 C289 1.396 . S
C290 C291 1.399 . S
C291 H277 0.929 . S
C291 C290 1.399 . S
C291 C292 1.385 . S
C292 H278 0.931 . S
C292 C291 1.385 . S
C292 C293 1.389 . S
C293 C292 1.389 . S
C293 C294 1.387 . S
C294 H279 0.930 . S
C294 C289 1.390 . S
C294 C293 1.387 . S
H295 C307 0.930 . S
H296 C309 0.930 . S
H297 C310 0.930 . S
H298 C314 0.959 . S
H299 C314 0.959 . S
H300 C314 0.961 . S
H301 C315 0.960 . S
H302 C315 0.961 . S
H303 C315 0.959 . S
H304 C318 0.929 . S
H305 C319 0.931 . S
H306 C321 0.930 . S
C307 H295 0.930 . S
C307 C308 1.399 . S
C307 C312 1.399 . S
C308 C307 1.399 . S
C308 C309 1.376 . S
C309 H296 0.930 . S
C309 C308 1.376 . S
C309 C310 1.388 . S
C310 H297 0.930 . S
C310 C309 1.388 . S
C310 C311 1.390 . S
C311 C310 1.390 . S
C311 C312 1.394 . S
C311 C317 1.465 . S
C312 C307 1.399 . S
C312 C311 1.394 . S
C312 C313 1.516 . S
C313 C312 1.516 . S
C313 C314 1.502 . S
C313 C315 1.561 . S
C313 C316 1.526 . S
C314 H298 0.959 . S
C314 H299 0.959 . S
C314 H300 0.961 . S
C314 C313 1.502 . S
C315 H301 0.960 . S
C315 H302 0.961 . S
C315 H303 0.959 . S
C315 C313 1.561 . S
C316 C313 1.526 . S
C316 C317 1.396 . S
C316 C321 1.390 . S
C317 C311 1.465 . S
C317 C316 1.396 . S
C317 C318 1.399 . S
C318 H304 0.929 . S
C318 C317 1.399 . S
C318 C319 1.385 . S
C319 H305 0.931 . S
C319 C318 1.385 . S
C319 C320 1.389 . S
C320 C319 1.389 . S
C320 C321 1.387 . S
C321 H306 0.930 . S
C321 C316 1.390 . S
C321 C320 1.387 . S
H322 C334 0.930 . S
H323 C336 0.930 . S
H324 C337 0.930 . S
H325 C341 0.959 . S
H326 C341 0.959 . S
H327 C341 0.961 . S
H328 C342 0.960 . S
H329 C342 0.961 . S
H330 C342 0.959 . S
H331 C345 0.929 . S
H332 C346 0.931 . S
H333 C348 0.930 . S
C334 H322 0.930 . S
C334 C335 1.399 . S
C334 C339 1.399 . S
C335 C334 1.399 . S
C335 C336 1.376 . S
C336 H323 0.930 . S
C336 C335 1.376 . S
C336 C337 1.388 . S
C337 H324 0.930 . S
C337 C336 1.388 . S
C337 C338 1.390 . S
C338 C337 1.390 . S
C338 C339 1.394 . S
C338 C344 1.465 . S
C339 C334 1.399 . S
C339 C338 1.394 . S
C339 C340 1.516 . S
C340 C339 1.516 . S
C340 C341 1.502 . S
C340 C342 1.561 . S
C340 C343 1.526 . S
C341 H325 0.959 . S
C341 H326 0.959 . S
C341 H327 0.961 . S
C341 C340 1.502 . S
C342 H328 0.960 . S
C342 H329 0.961 . S
C342 H330 0.959 . S
C342 C340 1.561 . S
C343 C340 1.526 . S
C343 C344 1.396 . S
C343 C348 1.390 . S
C344 C338 1.465 . S
C344 C343 1.396 . S
C344 C345 1.399 . S
C345 H331 0.929 . S
C345 C344 1.399 . S
C345 C346 1.385 . S
C346 H332 0.931 . S
C346 C345 1.385 . S
C346 C347 1.389 . S
C347 C346 1.389 . S
C347 C348 1.387 . S
C348 H333 0.930 . S
C348 C343 1.390 . S
C348 C347 1.387 . S
H349 C361 0.930 . S
H350 C363 0.930 . S
H351 C364 0.930 . S
H352 C368 0.959 . S
H353 C368 0.959 . S
H354 C368 0.961 . S
H355 C369 0.960 . S
H356 C369 0.961 . S
H357 C369 0.959 . S
H358 C372 0.929 . S
H359 C373 0.931 . S
H360 C375 0.930 . S
C361 H349 0.930 . S
C361 C362 1.399 . S
C361 C366 1.399 . S
C362 C361 1.399 . S
C362 C363 1.376 . S
C363 H350 0.930 . S
C363 C362 1.376 . S
C363 C364 1.388 . S
C364 H351 0.930 . S
C364 C363 1.388 . S
C364 C365 1.390 . S
C365 C364 1.390 . S
C365 C366 1.394 . S
C365 C371 1.465 . S
C366 C361 1.399 . S
C366 C365 1.394 . S
C366 C367 1.516 . S
C367 C366 1.516 . S
C367 C368 1.502 . S
C367 C369 1.561 . S
C367 C370 1.526 . S
C368 H352 0.959 . S
C368 H353 0.959 . S
C368 H354 0.961 . S
C368 C367 1.502 . S
C369 H355 0.960 . S
C369 H356 0.961 . S
C369 H357 0.959 . S
C369 C367 1.561 . S
C370 C367 1.526 . S
C370 C371 1.396 . S
C370 C375 1.390 . S
C371 C365 1.465 . S
C371 C370 1.396 . S
C371 C372 1.399 . S
C372 H358 0.929 . S
C372 C371 1.399 . S
C372 C373 1.385 . S
C373 H359 0.931 . S
C373 C372 1.385 . S
C373 C374 1.389 . S
C374 C373 1.389 . S
C374 C375 1.387 . S
C375 H360 0.930 . S
C375 C370 1.390 . S
C375 C374 1.387 . S
H376 C388 0.930 . S
H377 C390 0.930 . S
H378 C391 0.930 . S
H379 C395 0.959 . S
H380 C395 0.959 . S
H381 C395 0.961 . S
H382 C396 0.960 . S
H383 C396 0.961 . S
H384 C396 0.959 . S
H385 C399 0.929 . S
H386 C400 0.931 . S
H387 C402 0.930 . S
C388 H376 0.930 . S
C388 C389 1.399 . S
C388 C393 1.399 . S
C389 C388 1.399 . S
C389 C390 1.376 . S
C390 H377 0.930 . S
C390 C389 1.376 . S
C390 C391 1.388 . S
C391 H378 0.930 . S
C391 C390 1.388 . S
C391 C392 1.390 . S
C392 C391 1.390 . S
C392 C393 1.394 . S
C392 C398 1.465 . S
C393 C388 1.399 . S
C393 C392 1.394 . S
C393 C394 1.516 . S
C394 C393 1.516 . S
C394 C395 1.502 . S
C394 C396 1.561 . S
C394 C397 1.526 . S
C395 H379 0.959 . S
C395 H380 0.959 . S
C395 H381 0.961 . S
C395 C394 1.502 . S
C396 H382 0.960 . S
C396 H383 0.961 . S
C396 H384 0.959 . S
C396 C394 1.561 . S
C397 C394 1.526 . S
C397 C398 1.396 . S
C397 C402 1.390 . S
C398 C392 1.465 . S
C398 C397 1.396 . S
C398 C399 1.399 . S
C399 H385 0.929 . S
C399 C398 1.399 . S
C399 C400 1.385 . S
C400 H386 0.931 . S
C400 C399 1.385 . S
C400 C401 1.389 . S
C401 C400 1.389 . S
C401 C402 1.387 . S
C402 H387 0.930 . S
C402 C397 1.390 . S
C402 C401 1.387 . S
H403 C415 0.930 . S
H404 C417 0.930 . S
H405 C418 0.930 . S
H406 C422 0.959 . S
H407 C422 0.959 . S
H408 C422 0.961 . S
H409 C423 0.960 . S
H410 C423 0.961 . S
H411 C423 0.959 . S
H412 C426 0.929 . S
H413 C427 0.931 . S
H414 C429 0.930 . S
C415 H403 0.930 . S
C415 C416 1.399 . S
C415 C420 1.399 . S
C416 C415 1.399 . S
C416 C417 1.376 . S
C417 H404 0.930 . S
C417 C416 1.376 . S
C417 C418 1.388 . S
C418 H405 0.930 . S
C418 C417 1.388 . S
C418 C419 1.390 . S
C419 C418 1.390 . S
C419 C420 1.394 . S
C419 C425 1.465 . S
C420 C415 1.399 . S
C420 C419 1.394 . S
C420 C421 1.516 . S
C421 C420 1.516 . S
C421 C422 1.502 . S
C421 C423 1.561 . S
C421 C424 1.526 . S
C422 H406 0.959 . S
C422 H407 0.959 . S
C422 H408 0.961 . S
C422 C421 1.502 . S
C423 H409 0.960 . S
C423 H410 0.961 . S
C423 H411 0.959 . S
C423 C421 1.561 . S
C424 C421 1.526 . S
C424 C425 1.396 . S
C424 C429 1.390 . S
C425 C419 1.465 . S
C425 C424 1.396 . S
C425 C426 1.399 . S
C426 H412 0.929 . S
C426 C425 1.399 . S
C426 C427 1.385 . S
C427 H413 0.931 . S
C427 C426 1.385 . S
C427 C428 1.389 . S
C428 C427 1.389 . S
C428 C429 1.387 . S
C429 H414 0.930 . S
C429 C424 1.390 . S
C429 C428 1.387 . S
H430 C442 0.930 . S
H431 C444 0.930 . S
H432 C445 0.930 . S
H433 C449 0.959 . S
H434 C449 0.959 . S
H435 C449 0.961 . S
H436 C450 0.960 . S
H437 C450 0.961 . S
H438 C450 0.959 . S
H439 C453 0.929 . S
H440 C454 0.931 . S
H441 C456 0.930 . S
C442 H430 0.930 . S
C442 C443 1.399 . S
C442 C447 1.399 . S
C443 C442 1.399 . S
C443 C444 1.376 . S
C444 H431 0.930 . S
C444 C443 1.376 . S
C444 C445 1.388 . S
C445 H432 0.930 . S
C445 C444 1.388 . S
C445 C446 1.390 . S
C446 C445 1.390 . S
C446 C447 1.394 . S
C446 C452 1.465 . S
C447 C442 1.399 . S
C447 C446 1.394 . S
C447 C448 1.516 . S
C448 C447 1.516 . S
C448 C449 1.502 . S
C448 C450 1.561 . S
C448 C451 1.526 . S
C449 H433 0.959 . S
C449 H434 0.959 . S
C449 H435 0.961 . S
C449 C448 1.502 . S
C450 H436 0.960 . S
C450 H437 0.961 . S
C450 H438 0.959 . S
C450 C448 1.561 . S
C451 C448 1.526 . S
C451 C452 1.396 . S
C451 C456 1.390 . S
C452 C446 1.465 . S
C452 C451 1.396 . S
C452 C453 1.399 . S
C453 H439 0.929 . S
C453 C452 1.399 . S
C453 C454 1.385 . S
C454 H440 0.931 . S
C454 C453 1.385 . S
C454 C455 1.389 . S
C455 C454 1.389 . S
C455 C456 1.387 . S
C456 H441 0.930 . S
C456 C451 1.390 . S
C456 C455 1.387 . S
H457 C469 0.930 . S
H458 C471 0.930 . S
H459 C472 0.930 . S
H460 C476 0.959 . S
H461 C476 0.959 . S
H462 C476 0.961 . S
H463 C477 0.960 . S
H464 C477 0.961 . S
H465 C477 0.959 . S
H466 C480 0.929 . S
H467 C481 0.931 . S
H468 C483 0.930 . S
C469 H457 0.930 . S
C469 C470 1.399 . S
C469 C474 1.399 . S
C470 C469 1.399 . S
C470 C471 1.376 . S
C471 H458 0.930 . S
C471 C470 1.376 . S
C471 C472 1.388 . S
C472 H459 0.930 . S
C472 C471 1.388 . S
C472 C473 1.390 . S
C473 C472 1.390 . S
C473 C474 1.394 . S
C473 C479 1.465 . S
C474 C469 1.399 . S
C474 C473 1.394 . S
C474 C475 1.516 . S
C475 C474 1.516 . S
C475 C476 1.502 . S
C475 C477 1.561 . S
C475 C478 1.526 . S
C476 H460 0.959 . S
C476 H461 0.959 . S
C476 H462 0.961 . S
C476 C475 1.502 . S
C477 H463 0.960 . S
C477 H464 0.961 . S
C477 H465 0.959 . S
C477 C475 1.561 . S
C478 C475 1.526 . S
C478 C479 1.396 . S
C478 C483 1.390 . S
C479 C473 1.465 . S
C479 C478 1.396 . S
C479 C480 1.399 . S
C480 H466 0.929 . S
C480 C479 1.399 . S
C480 C481 1.385 . S
C481 H467 0.931 . S
C481 C480 1.385 . S
C481 C482 1.389 . S
C482 C481 1.389 . S
C482 C483 1.387 . S
C483 H468 0.930 . S
C483 C478 1.390 . S
C483 C482 1.387 . S
C173 C103 0.695 1_546 S
C185 C23 0.626 . S
C200 C143 0.510 . S
C212 C63 0.656 . S
C227 C82 0.594 1_565 S
C239 C2 0.603 . S
C254 C42 0.642 . S
C266 C122 0.537 1_455 S
C281 C57 1.113 . S
C293 C26 1.056 . S
C308 C66 0.957 . S
C320 C106 0.975 . S
C335 C146 1.031 . S
C347 C97 1.074 . S
C362 C137 1.193 . S
C374 C17 1.249 . S
C389 C93 4.563 . S
C401 C144 4.507 . S
C416 C13 4.837 . S
C428 C133 4.836 . S
C443 C53 4.558 . S
C455 C24 4.509 . S
C470 C104 4.275 . S
C482 C64 4.287 . S
