# Generated by pormake.
# Topology uow, (4)-cn, num edge types: 1
# Building blocks:
#     Node 0, Type 0, BuildingBlock: QUQFOY_clean_sbu_3, # of connection points: 4
#     Node 1, Type 0, BuildingBlock: QUQFOY_clean_sbu_3, # of connection points: 4
#     Node 2, Type 0, BuildingBlock: QUQFOY_clean_sbu_3, # of connection points: 4
#     Node 3, Type 0, BuildingBlock: QUQFOY_clean_sbu_3, # of connection points: 4
#     Node 4, Type 0, BuildingBlock: QUQFOY_clean_sbu_3, # of connection points: 4
#     Node 5, Type 0, BuildingBlock: QUQFOY_clean_sbu_3, # of connection points: 4
#     Node 6, Type 0, BuildingBlock: QUQFOY_clean_sbu_3, # of connection points: 4
#     Node 7, Type 0, BuildingBlock: QUQFOY_clean_sbu_3, # of connection points: 4
#     Node 8, Type 0, BuildingBlock: QUQFOY_clean_sbu_3, # of connection points: 4
#     Node 9, Type 0, BuildingBlock: QUQFOY_clean_sbu_3, # of connection points: 4
#     Node 10, Type 0, BuildingBlock: QUQFOY_clean_sbu_3, # of connection points: 4
#     Node 11, Type 0, BuildingBlock: QUQFOY_clean_sbu_3, # of connection points: 4
#     Node 12, Type 0, BuildingBlock: QUQFOY_clean_sbu_3, # of connection points: 4
#     Node 13, Type 0, BuildingBlock: QUQFOY_clean_sbu_3, # of connection points: 4
#     Node 14, Type 0, BuildingBlock: QUQFOY_clean_sbu_3, # of connection points: 4
#     Node 15, Type 0, BuildingBlock: QUQFOY_clean_sbu_3, # of connection points: 4
#     Node 16, Type 0, BuildingBlock: QUQFOY_clean_sbu_3, # of connection points: 4
#     Node 17, Type 0, BuildingBlock: QUQFOY_clean_sbu_3, # of connection points: 4
#     Node 18, Type 0, BuildingBlock: QUQFOY_clean_sbu_3, # of connection points: 4
#     Node 19, Type 0, BuildingBlock: QUQFOY_clean_sbu_3, # of connection points: 4
#     Node 20, Type 0, BuildingBlock: QUQFOY_clean_sbu_3, # of connection points: 4
#     Node 21, Type 0, BuildingBlock: QUQFOY_clean_sbu_3, # of connection points: 4
#     Node 22, Type 0, BuildingBlock: QUQFOY_clean_sbu_3, # of connection points: 4
#     Node 23, Type 0, BuildingBlock: QUQFOY_clean_sbu_3, # of connection points: 4
#     Node 24, Type 0, BuildingBlock: QUQFOY_clean_sbu_3, # of connection points: 4
#     Node 25, Type 0, BuildingBlock: QUQFOY_clean_sbu_3, # of connection points: 4
#     Node 26, Type 0, BuildingBlock: QUQFOY_clean_sbu_3, # of connection points: 4
#     Node 27, Type 0, BuildingBlock: QUQFOY_clean_sbu_3, # of connection points: 4
#     Node 28, Type 0, BuildingBlock: QUQFOY_clean_sbu_3, # of connection points: 4
#     Node 29, Type 0, BuildingBlock: QUQFOY_clean_sbu_3, # of connection points: 4
#     Node 30, Type 0, BuildingBlock: QUQFOY_clean_sbu_3, # of connection points: 4
#     Node 31, Type 0, BuildingBlock: QUQFOY_clean_sbu_3, # of connection points: 4
#     Edge 32, Type (0, 0), None
#     Edge 33, Type (0, 0), None
#     Edge 34, Type (0, 0), None
#     Edge 35, Type (0, 0), None
#     Edge 36, Type (0, 0), None
#     Edge 37, Type (0, 0), None
#     Edge 38, Type (0, 0), None
#     Edge 39, Type (0, 0), None
#     Edge 40, Type (0, 0), None
#     Edge 41, Type (0, 0), None
#     Edge 42, Type (0, 0), None
#     Edge 43, Type (0, 0), None
#     Edge 44, Type (0, 0), None
#     Edge 45, Type (0, 0), None
#     Edge 46, Type (0, 0), None
#     Edge 47, Type (0, 0), None
#     Edge 48, Type (0, 0), None
#     Edge 49, Type (0, 0), None
#     Edge 50, Type (0, 0), None
#     Edge 51, Type (0, 0), None
#     Edge 52, Type (0, 0), None
#     Edge 53, Type (0, 0), None
#     Edge 54, Type (0, 0), None
#     Edge 55, Type (0, 0), None
#     Edge 56, Type (0, 0), None
#     Edge 57, Type (0, 0), None
#     Edge 58, Type (0, 0), None
#     Edge 59, Type (0, 0), None
#     Edge 60, Type (0, 0), None
#     Edge 61, Type (0, 0), None
#     Edge 62, Type (0, 0), None
#     Edge 63, Type (0, 0), None
#     Edge 64, Type (0, 0), None
#     Edge 65, Type (0, 0), None
#     Edge 66, Type (0, 0), None
#     Edge 67, Type (0, 0), None
#     Edge 68, Type (0, 0), None
#     Edge 69, Type (0, 0), None
#     Edge 70, Type (0, 0), None
#     Edge 71, Type (0, 0), None
#     Edge 72, Type (0, 0), None
#     Edge 73, Type (0, 0), None
#     Edge 74, Type (0, 0), None
#     Edge 75, Type (0, 0), None
#     Edge 76, Type (0, 0), None
#     Edge 77, Type (0, 0), None
#     Edge 78, Type (0, 0), None
#     Edge 79, Type (0, 0), None
#     Edge 80, Type (0, 0), None
#     Edge 81, Type (0, 0), None
#     Edge 82, Type (0, 0), None
#     Edge 83, Type (0, 0), None
#     Edge 84, Type (0, 0), None
#     Edge 85, Type (0, 0), None
#     Edge 86, Type (0, 0), None
#     Edge 87, Type (0, 0), None
#     Edge 88, Type (0, 0), None
#     Edge 89, Type (0, 0), None
#     Edge 90, Type (0, 0), None
#     Edge 91, Type (0, 0), None
#     Edge 92, Type (0, 0), None
#     Edge 93, Type (0, 0), None
#     Edge 94, Type (0, 0), None
#     Edge 95, Type (0, 0), None
# Relax obj value: 0.094
# Max RMSD: 0.130
# Mean RMSD: 0.130
data_MOF--net-uow--node1-QUQFOY_clean_sbu_3--edge1-none
_symmetry_space_group_name_H-M    P1
_symmetry_Int_Tables_number       1
_symmetry_cell_setting            triclinic
loop_
_symmetry_equiv_pos_as_xyz
'x, y, z'
_cell_length_a     31.693031
_cell_length_b     31.414774
_cell_length_c     19.032361
_cell_angle_alpha  89.80629
_cell_angle_beta   89.931533
_cell_angle_gamma 89.80695
loop_
_atom_site_label
_atom_site_type_symbol
_atom_site_fract_x
_atom_site_fract_y
_atom_site_fract_z
_atom_type_partial_charge
C0 C -0.03121 0.2662 0.31051 0.0
O1 O -0.00345 0.23904 0.29273 0.0
Cd2 Cd 0.05872 0.24696 0.22249 0.0
O3 O -0.02681 0.30563 0.29714 0.0
Cd4 Cd 0.03714 0.34368 0.26176 0.0
C5 C 0.09322 0.27996 0.36757 0.0
O6 O 0.05047 0.308 0.15307 0.0
O7 O 0.10159 0.34666 0.19349 0.0
O8 O -0.00953 0.4009 0.22541 0.0
C9 C 0.08656 0.32439 0.14422 0.0
O10 O 0.1094 0.26873 0.3094 0.0
C11 C 0.01491 0.42988 0.24746 0.0
O12 O 0.06383 0.30775 0.36818 0.0
O13 O 0.0477 0.41861 0.28135 0.0
C14 C 0.81673 0.70018 0.58001 0.0
O15 O 0.80467 0.69075 0.5188 0.0
Cd16 Cd 0.79575 0.76714 0.49099 0.0
O17 O 0.81441 0.73875 0.59827 0.0
Cd18 Cd 0.78478 0.78818 0.50229 0.0
C19 C 0.84651 0.83195 0.58729 0.0
O20 O 0.82619 0.77385 0.38727 0.0
O21 O 0.81431 0.83937 0.41682 0.0
O22 O 0.72264 0.74278 0.48362 0.0
C23 C 0.83091 0.81307 0.37448 0.0
O24 O 0.85678 0.80323 0.54427 0.0
C25 C 0.69681 0.77352 0.47857 0.0
O26 O 0.80746 0.83954 0.59566 0.0
O27 O 0.71109 0.81096 0.48682 0.0
C28 C 0.47644 0.65966 0.78797 0.0
O29 O 0.46104 0.68764 0.74694 0.0
Cd30 Cd 0.39575 0.68383 0.68327 0.0
O31 O 0.45906 0.62361 0.79594 0.0
Cd32 Cd 0.39726 0.58558 0.75352 0.0
C33 C 0.35072 0.66503 0.84445 0.0
O34 O 0.38307 0.61555 0.64247 0.0
O35 O 0.32977 0.58572 0.69491 0.0
O36 O 0.44296 0.5281 0.7172 0.0
C37 C 0.34428 0.60564 0.64223 0.0
O38 O 0.35228 0.68642 0.78743 0.0
C39 C 0.41919 0.4993 0.74221 0.0
O40 O 0.36776 0.62821 0.85035 0.0
O41 O 0.38709 0.51083 0.77785 0.0
C42 C 0.58631 0.24419 0.02558 0.0
O43 O 0.56238 0.24771 -0.02761 0.0
Cd44 Cd 0.54829 0.18482 0.90401 0.0
O45 O 0.60969 0.21147 0.03379 0.0
Cd46 Cd 0.63842 0.14658 -0.02053 0.0
C47 C 0.54828 0.11001 0.04517 0.0
O48 O 0.61302 0.15921 0.86591 0.0
O49 O 0.63149 0.094 0.88627 0.0
O50 O 0.70127 0.18789 -0.02394 0.0
C51 C 0.61503 0.12104 0.84509 0.0
O52 O 0.53185 0.13233 -0.00402 0.0
C53 C 0.72602 0.15686 -0.01252 0.0
O54 O 0.58801 0.10997 0.05684 0.0
O55 O 0.70992 0.12059 0.0004 0.0
C56 C 0.90678 0.59106 0.11549 0.0
O57 O 0.89927 0.58393 0.17964 0.0
Cd58 Cd -0.02454 0.57005 0.19925 0.0
O59 O 0.9438 0.58396 0.09357 0.0
Cd60 Cd -0.00132 0.56102 0.18831 0.0
C61 C 0.03911 0.61231 0.08455 0.0
O62 O -0.01385 0.59455 0.30913 0.0
O63 O 0.04184 0.61475 0.253 0.0
O64 O -0.02847 0.48902 0.21511 0.0
C65 C 0.01965 0.61621 0.30831 0.0
O66 O 0.01108 0.62688 0.12552 0.0
C67 C 0.0081 0.47428 0.22815 0.0
O68 O 0.04756 0.57298 0.08834 0.0
O69 O 0.03932 0.49891 0.21952 0.0
C70 C 0.54997 0.64385 0.40446 0.0
O71 O 0.55007 0.63296 0.46852 0.0
Cd72 Cd 0.51491 0.69761 0.5052 0.0
O73 O 0.55123 0.68314 0.38913 0.0
Cd74 Cd 0.56493 0.74853 0.45775 0.0
C75 C 0.48838 0.75682 0.35776 0.0
O76 O 0.54361 0.74945 0.58264 0.0
O77 O 0.51987 0.79982 0.51454 0.0
O78 O 0.63674 0.72911 0.48189 0.0
C79 C 0.52577 0.78558 0.57606 0.0
O80 O 0.47806 0.72908 0.40361 0.0
C81 C 0.65206 0.76534 0.46721 0.0
O82 O 0.52413 0.775 0.36046 0.0
O83 O 0.62707 0.79381 0.44378 0.0
C84 C 0.52464 0.33801 0.6001 0.0
O85 O 0.53436 0.34263 0.66402 0.0
Cd86 Cd 0.45949 0.35825 0.69155 0.0
O87 O 0.48731 0.34724 0.58203 0.0
Cd88 Cd 0.43487 0.36851 0.68157 0.0
C89 C 0.39323 0.31723 0.58006 0.0
O90 O 0.44864 0.33163 0.80043 0.0
O91 O 0.39124 0.31547 0.74569 0.0
O92 O 0.46213 0.44007 0.70932 0.0
C93 C 0.41418 0.31143 0.79969 0.0
O94 O 0.42214 0.3027 0.61935 0.0
C95 C 0.42571 0.45482 0.72346 0.0
O96 O 0.38464 0.35652 0.58394 0.0
O97 O 0.39436 0.43037 0.71519 0.0
C98 C 0.86861 0.28412 0.9092 0.0
O99 O 0.87245 0.29337 -0.02654 0.0
Cd100 Cd 0.91143 0.22894 -0.0023 0.0
O101 O 0.86697 0.24521 0.89197 0.0
Cd102 Cd 0.8577 0.17889 0.96092 0.0
C103 C 0.92459 0.17076 0.84379 0.0
O104 O 0.88557 0.17895 0.08122 0.0
O105 O 0.90631 0.12795 0.01235 0.0
O106 O 0.78729 0.19927 -0.00752 0.0
C107 C 0.90316 0.14287 0.07387 0.0
O108 O 0.93895 0.19798 0.88705 0.0
C109 C 0.77131 0.16297 -0.01882 0.0
O110 O 0.88973 0.15225 0.85555 0.0
O111 O 0.7954 0.13373 0.95811 0.0
C112 C -0.03501 0.64202 0.64508 0.0
O113 O -0.03053 0.65787 0.70585 0.0
Cd114 Cd 0.90508 0.6659 0.77307 0.0
O115 O 0.93332 0.61911 0.63048 0.0
Cd116 Cd 0.87684 0.58124 0.6901 0.0
C117 C 0.83768 0.66979 0.62645 0.0
O118 O 0.87492 0.60184 0.80988 0.0
O119 O 0.8147 0.58733 0.75955 0.0
O120 O 0.92503 0.52424 0.71231 0.0
C121 C 0.83489 0.59912 0.81349 0.0
O122 O 0.85672 0.68535 0.67943 0.0
C123 C 0.89967 0.49535 0.69308 0.0
O124 O 0.84015 0.63027 0.61106 0.0
O125 O 0.86456 0.50664 0.66583 0.0
C126 C 0.0947 0.2483 0.42421 0.0
O127 O 0.06561 0.24781 0.47024 0.0
Cd128 Cd 0.04835 0.18286 0.53226 0.0
O129 O 0.11927 0.2165 0.4165 0.0
Cd130 Cd 0.14243 0.14741 0.46362 0.0
C131 C 0.05437 0.11308 0.38609 0.0
O132 O 0.11136 0.15494 0.57474 0.0
O133 O 0.13292 0.0912 0.55085 0.0
O134 O 0.20471 0.18863 0.47856 0.0
C135 C 0.11336 0.11603 0.59192 0.0
O136 O 0.03599 0.13325 0.43568 0.0
C137 C 0.23028 0.15889 0.46376 0.0
O138 O 0.0944 0.11427 0.37762 0.0
O139 O 0.21511 0.12315 0.44529 0.0
C140 C 0.45083 0.27252 0.14289 0.0
O141 O 0.46886 0.24427 0.18023 0.0
Cd142 Cd 0.53287 0.2499 0.24706 0.0
O143 O 0.46544 0.31001 0.13804 0.0
Cd144 Cd 0.52767 0.3479 0.1795 0.0
C145 C 0.57663 0.26937 0.08797 0.0
O146 O 0.54238 0.31815 0.29075 0.0
O147 O 0.59511 0.34915 0.23867 0.0
O148 O 0.48158 0.40522 0.21574 0.0
C149 C 0.58086 0.32921 0.29154 0.0
O150 O 0.57888 0.24918 0.14609 0.0
C151 C 0.50498 0.43417 0.19023 0.0
O152 O 0.55675 0.30474 0.08235 0.0
O153 O 0.53707 0.42279 0.15443 0.0
C154 C 0.33936 0.68944 0.90675 0.0
O155 O 0.36246 0.68581 0.96092 0.0
Cd156 Cd 0.37648 0.74926 0.02748 0.0
O157 O 0.31592 0.72205 0.89783 0.0
Cd158 Cd 0.28521 0.78609 0.95207 0.0
C159 C 0.37525 0.82286 0.88426 0.0
O160 O 0.31163 0.77437 0.06506 0.0
O161 O 0.29227 0.83931 0.04492 0.0
O162 O 0.22384 0.74207 0.95696 0.0
C163 C 0.30964 0.81257 0.08568 0.0
O164 O 0.39197 0.80101 0.93376 0.0
C165 C 0.19768 0.77189 0.9454 0.0
O166 O 0.33542 0.82269 0.87318 0.0
O167 O 0.21223 0.80882 0.93213 0.0
C168 C 0.01619 0.34346 0.83587 0.0
O169 O 0.02503 0.34973 0.77191 0.0
Cd170 Cd 0.94903 0.35822 0.74536 0.0
O171 O -0.02178 0.3487 0.85456 0.0
Cd172 Cd 0.9242 0.36587 0.75441 0.0
C173 C 0.88546 0.31317 0.85671 0.0
O174 O 0.94139 0.32981 0.63725 0.0
O175 O 0.88516 0.30882 0.69116 0.0
O176 O 0.94616 0.4385 0.72289 0.0
C177 C 0.90886 0.30663 0.63772 0.0
O178 O 0.91579 0.30038 0.81885 0.0
C179 C 0.90875 0.45101 0.71015 0.0
O180 O 0.87411 0.35168 0.85123 0.0
O181 O 0.87903 0.42479 0.72043 0.0
C182 C 0.37531 0.28897 0.52742 0.0
O183 O 0.3742 0.30035 0.4636 0.0
Cd184 Cd 0.40978 0.23631 0.42455 0.0
O185 O 0.37528 0.24956 0.54198 0.0
Cd186 Cd 0.36218 0.18472 0.47205 0.0
C187 C 0.43926 0.17681 0.56971 0.0
O188 O 0.38177 0.18422 0.34666 0.0
O189 O 0.40762 0.13462 0.41433 0.0
O190 O 0.28979 0.20347 0.45423 0.0
C191 C 0.40036 0.14845 0.35297 0.0
O192 O 0.44879 0.20496 0.52405 0.0
C193 C 0.27544 0.16663 0.4673 0.0
O194 O 0.40371 0.15826 0.56778 0.0
O195 O 0.30142 0.13784 0.48612 0.0
C196 C 0.39916 0.59574 0.33397 0.0
O197 O 0.38918 0.59143 0.2701 0.0
Cd198 Cd 0.46385 0.57538 0.24166 0.0
O199 O 0.4365 0.58617 0.35155 0.0
Cd200 Cd 0.48859 0.56499 0.25117 0.0
C201 C 0.5312 0.6158 0.3523 0.0
O202 O 0.4743 0.60223 0.13267 0.0
O203 O 0.53172 0.61853 0.18715 0.0
O204 O 0.46172 0.49318 0.22351 0.0
C205 C 0.50861 0.62267 0.13337 0.0
O206 O 0.50188 0.63053 0.31406 0.0
C207 C 0.49816 0.47868 0.20879 0.0
O208 O 0.53967 0.57651 0.34774 0.0
O209 O 0.52934 0.50341 0.2165 0.0
C210 C 0.05557 0.64023 0.02959 0.0
O211 O 0.05308 0.62894 0.96596 0.0
Cd212 Cd 0.01571 0.69332 0.93327 0.0
O213 O 0.057 0.67964 0.04351 0.0
Cd214 Cd 0.06629 0.74425 0.96936 0.0
C215 C -0.00336 0.75282 0.08218 0.0
O216 O 0.03762 0.74477 0.8483 0.0
O217 O 0.01688 0.79431 0.92008 0.0
O218 O 0.13811 0.72678 0.93933 0.0
C219 C 0.01922 0.78036 0.85789 0.0
O220 O -0.01631 0.72465 0.03936 0.0
C221 C 0.15258 0.76368 0.95129 0.0
O222 O 0.03177 0.77126 0.07228 0.0
O223 O 0.12708 0.79178 -0.026 0.0
C224 C 0.40446 0.84396 0.83558 0.0
O225 O 0.3955 0.8506 0.77179 0.0
Cd226 Cd 0.47143 0.86072 0.74507 0.0
O227 O 0.44232 0.84958 0.85418 0.0
Cd228 Cd 0.49548 0.86924 0.75425 0.0
C229 C 0.53707 0.81768 0.85586 0.0
O230 O 0.48004 0.83305 0.6362 0.0
O231 O 0.53686 0.81363 0.68996 0.0
O232 O 0.47006 0.94201 0.72586 0.0
C233 C 0.51344 0.81091 0.63635 0.0
O234 O 0.5072 0.80381 0.81828 0.0
C235 C 0.50686 0.95542 0.71135 0.0
O236 O 0.54659 0.85662 0.85035 0.0
O237 O 0.53743 0.92974 0.7194 0.0
C238 C 0.36798 0.14445 0.02282 0.0
O239 O 0.37161 0.13535 0.95843 0.0
Cd240 Cd 0.40929 0.20021 0.93384 0.0
O241 O 0.36548 0.18333 0.04018 0.0
Cd242 Cd 0.3552 0.25001 -0.02803 0.0
C243 C 0.42262 0.25847 0.08757 0.0
O244 O 0.38262 0.25046 0.85133 0.0
O245 O 0.40381 0.30067 0.92101 0.0
O246 O 0.28453 0.23084 0.94057 0.0
C247 C 0.40027 0.28634 0.85921 0.0
O248 O 0.43685 0.23115 0.04412 0.0
C249 C 0.26893 0.26743 0.95184 0.0
O250 O 0.38754 0.27694 0.07661 0.0
O251 O 0.29325 0.29612 -0.02462 0.0
C252 C 0.02683 0.09162 0.33574 0.0
O253 O 0.03688 0.08613 0.27211 0.0
Cd254 Cd -0.03806 0.07188 0.2436 0.0
O255 O -0.01081 0.0837 0.35339 0.0
Cd256 Cd 0.93785 0.06191 0.2533 0.0
C257 C 0.89418 0.11261 0.35328 0.0
O258 O 0.95169 0.09792 0.1338 0.0
O259 O 0.894 0.11445 0.18785 0.0
O260 O -0.03395 -0.00967 0.22724 0.0
C261 C 0.91708 0.11809 0.13388 0.0
O262 O 0.92339 0.12743 0.31497 0.0
C263 C 0.92966 -0.02473 0.21475 0.0
O264 O 0.88629 0.07326 0.34915 0.0
O265 O 0.89812 -0.00025 0.22245 0.0
C266 C 0.02195 0.78544 0.52212 0.0
O267 O 0.00129 0.78535 0.46531 0.0
Cd268 Cd -0.01248 0.7144 0.42758 0.0
O269 O 0.04253 0.75246 0.54042 0.0
Cd270 Cd 0.06451 0.68454 0.48518 0.0
C271 C -0.01021 0.65843 0.58674 0.0
O272 O 0.04159 0.68006 0.36322 0.0
O273 O 0.02968 0.62522 0.42991 0.0
O274 O 0.13553 0.70882 0.46303 0.0
C275 C 0.0325 0.64087 0.36866 0.0
O276 O -0.03015 0.67353 0.53405 0.0
C277 C 0.15249 0.67316 0.47723 0.0
O278 O 0.02978 0.65964 0.58974 0.0
O279 O 0.12889 0.64354 0.49977 0.0
C280 C 0.47178 0.16363 0.61912 0.0
O281 O 0.50041 0.19027 0.63409 0.0
Cd282 Cd 0.56282 0.18234 0.70347 0.0
O283 O 0.47514 0.12447 0.63549 0.0
Cd284 Cd 0.5384 0.08517 0.67207 0.0
C285 C 0.59425 0.14489 0.56177 0.0
O286 O 0.55278 0.12375 0.77808 0.0
O287 O 0.60309 0.08275 0.74046 0.0
O288 O 0.49087 0.02946 0.71182 0.0
C289 C 0.58866 0.107 0.78788 0.0
O290 O 0.61215 0.15434 0.61921 0.0
C291 C 0.51469 -0.00051 0.69078 0.0
O292 O 0.56433 0.11793 0.56242 0.0
O293 O 0.54769 0.00945 0.65639 0.0
C294 C 0.08557 0.18815 0.90689 0.0
O295 O 0.06146 0.18493 0.95997 0.0
Cd296 Cd 0.04606 0.24825 0.02649 0.0
O297 O 0.1084 0.22102 0.89784 0.0
Cd298 Cd 0.13618 0.28636 0.95113 0.0
C299 C 0.04568 0.32262 0.88446 0.0
O300 O 0.11078 0.27315 0.06431 0.0
O301 O 0.12883 0.3385 0.04538 0.0
O302 O 0.19854 0.24389 0.95488 0.0
C303 C 0.11269 0.31105 0.08611 0.0
O304 O 0.02933 0.3004 0.93377 0.0
C305 C 0.22377 0.27451 0.9447 0.0
O306 O 0.08547 0.32273 0.87305 0.0
O307 O 0.20822 0.31117 0.93203 0.0
C308 C -0.03203 0.76647 0.13746 0.0
O309 O 0.94175 0.73952 0.16117 0.0
Cd310 Cd 0.88348 0.74813 0.24034 0.0
O311 O -0.03602 0.80603 0.14971 0.0
Cd312 Cd 0.90185 0.84416 0.19308 0.0
C313 C 0.84099 0.77895 0.09801 0.0
O314 O 0.89236 0.81056 0.30529 0.0
O315 O 0.84002 0.84876 0.26685 0.0
O316 O 0.94866 0.90227 0.22133 0.0
C317 C 0.85645 0.8272 0.3161 0.0
O318 O 0.82856 0.76662 0.15822 0.0
C319 C 0.92331 0.9305 0.19859 0.0
O320 O 0.86984 0.80696 0.09296 0.0
O321 O 0.88979 0.91825 0.16811 0.0
C322 C 0.33301 0.75568 0.42199 0.0
O323 O 0.36315 0.75435 0.46597 0.0
Cd324 Cd 0.38081 0.68941 0.52834 0.0
O325 O 0.30782 0.72448 0.4156 0.0
Cd326 Cd 0.28563 0.65581 0.46395 0.0
C327 C 0.37242 0.61843 0.38446 0.0
O328 O 0.31824 0.66257 0.57392 0.0
O329 O 0.29575 0.59928 0.54989 0.0
O330 O 0.2229 0.69713 0.48266 0.0
C331 C 0.31601 0.62358 0.59053 0.0
O332 O 0.39163 0.63843 0.43313 0.0
C333 C 0.19773 0.66695 0.4695 0.0
O334 O 0.33238 0.621 0.37674 0.0
O335 O 0.2133 0.63153 0.44972 0.0
C336 C 0.51893 0.08875 0.09316 0.0
O337 O 0.52797 0.08113 0.15661 0.0
Cd338 Cd 0.45214 0.07206 0.18387 0.0
O339 O 0.48096 0.08397 0.07462 0.0
Cd340 Cd 0.4286 0.06416 0.17499 0.0
C341 C 0.38636 0.1158 0.07469 0.0
O342 O 0.44522 0.10061 0.29218 0.0
O343 O 0.38775 0.11976 0.24007 0.0
O344 O 0.45507 -0.00833 0.20208 0.0
C345 C 0.4119 0.12285 0.2927 0.0
O346 O 0.41656 0.12943 0.11172 0.0
C347 C 0.4186 -0.02204 0.21794 0.0
O348 O 0.37668 0.07688 0.08006 0.0
O349 O 0.38768 0.00338 0.2113 0.0
C350 C 0.55509 0.7894 0.90873 0.0
O351 O 0.55071 0.79884 -0.02713 0.0
Cd352 Cd 0.51406 0.73336 -0.0025 0.0
O353 O 0.55837 0.75045 0.89208 0.0
Cd354 Cd 0.56874 0.68429 0.96247 0.0
C355 C 0.50373 0.67403 0.84425 0.0
O356 O 0.5397 0.68404 0.08217 0.0
O357 O 0.51948 0.63361 0.01218 0.0
O358 O 0.63881 0.70456 -0.00383 0.0
C359 C 0.52234 0.64804 0.07401 0.0
O360 O 0.4885 0.70117 0.88705 0.0
C361 C 0.65477 0.66779 -0.01177 0.0
O362 O 0.53896 0.65615 0.85649 0.0
O363 O 0.6311 0.6385 0.96486 0.0
C364 C 0.88021 0.85164 0.62814 0.0
O365 O 0.87683 0.85878 0.6932 0.0
Cd366 Cd 0.9551 0.85986 0.70262 0.0
O367 O 0.91677 0.85298 0.60163 0.0
Cd368 Cd -0.02119 0.86666 0.68871 0.0
C369 C 0.00818 0.81433 0.57721 0.0
O370 O -0.02926 0.82954 0.808 0.0
O371 O 0.02166 0.80785 0.74171 0.0
O372 O 0.95803 0.93985 0.72166 0.0
C373 C 0.00273 0.80581 0.80022 0.0
O374 O -0.02057 0.8022 0.6189 0.0
C375 C -0.00418 0.95198 0.73067 0.0
O376 O 0.02256 0.85161 0.5842 0.0
O377 O 0.02503 0.9254 0.71802 0.0
C378 C 0.87501 0.14058 0.40525 0.0
O379 O 0.87427 0.12945 0.46918 0.0
Cd380 Cd 0.90956 0.19337 0.50731 0.0
O381 O 0.87402 0.1799 0.39019 0.0
Cd382 Cd 0.85967 0.24483 0.4589 0.0
C383 C 0.93665 0.25297 0.36047 0.0
O384 O 0.87952 0.24518 0.58384 0.0
O385 O 0.90437 0.2952 0.51617 0.0
O386 O 0.78763 0.22541 0.47728 0.0
C387 C 0.89752 0.28113 0.5775 0.0
O388 O 0.94682 0.2251 0.40628 0.0
C389 C 0.77271 0.26216 0.46459 0.0
O390 O 0.90085 0.27128 0.36275 0.0
O391 O 0.79819 0.29119 0.44554 0.0
C392 C 0.45635 0.77003 0.30735 0.0
O393 O 0.42806 0.74326 0.29129 0.0
Cd394 Cd 0.36533 0.75093 0.22228 0.0
O395 O 0.45255 0.80931 0.29207 0.0
Cd396 Cd 0.38874 0.84805 0.25562 0.0
C397 C 0.33338 0.78771 0.3659 0.0
O398 O 0.37327 0.81039 0.14923 0.0
O399 O 0.32317 0.85064 0.18999 0.0
O400 O 0.43523 0.9042 0.21546 0.0
C401 C 0.33706 0.82695 0.14138 0.0
O402 O 0.316 0.77692 0.30861 0.0
C403 C 0.41144 0.93378 0.23807 0.0
O404 O 0.36326 0.81471 0.3648 0.0
O405 O 0.37899 0.92334 0.27348 0.0
C406 C 0.83551 0.74871 0.04046 0.0
O407 O 0.86123 0.74921 -0.01078 0.0
Cd408 Cd 0.87588 0.68469 0.92481 0.0
O409 O 0.81194 0.71666 0.05144 0.0
Cd410 Cd 0.78754 0.64948 0.00146 0.0
C411 C 0.87704 0.61336 0.06936 0.0
O412 O 0.81275 0.65585 0.88501 0.0
O413 O 0.79933 0.59161 0.92089 0.0
O414 O 0.72526 0.6909 -0.01464 0.0
C415 C 0.81239 0.61621 0.87282 0.0
O416 O 0.89311 0.63382 0.01786 0.0
C417 C 0.69974 0.66104 -0.00101 0.0
O418 O 0.83756 0.61513 0.08321 0.0
O419 O 0.7149 0.62543 0.0192 0.0
C420 C 0.95264 0.1564 0.78827 0.0
O421 O -0.03238 0.18399 0.74624 0.0
Cd422 Cd 0.03317 0.17852 0.68269 0.0
O423 O -0.02953 0.12056 0.7972 0.0
Cd424 Cd 0.03188 0.08101 0.75648 0.0
C425 C 0.07641 0.16233 0.84526 0.0
O426 O 0.04633 0.10946 0.64469 0.0
O427 O 0.0994 0.07898 0.6972 0.0
O428 O -0.01669 0.02612 0.72298 0.0
C429 C 0.08503 0.09888 0.6443 0.0
O430 O 0.07602 0.18261 0.7871 0.0
C431 C 0.00573 -0.00398 0.74763 0.0
O432 O 0.05956 0.12558 0.8521 0.0
O433 O 0.03904 0.00565 0.78146 0.0
C434 C 0.59339 0.17846 0.50808 0.0
O435 O 0.56301 0.1801 0.46458 0.0
Cd436 Cd 0.54463 0.24554 0.40445 0.0
O437 O 0.61812 0.20997 0.51574 0.0
Cd438 Cd 0.63942 0.28025 0.47102 0.0
C439 C 0.55184 0.31571 0.5499 0.0
O440 O 0.60739 0.27299 0.36079 0.0
O441 O 0.62956 0.33647 0.3837 0.0
O442 O 0.70225 0.2396 0.45468 0.0
C443 C 0.60939 0.31184 0.34347 0.0
O444 O 0.53312 0.29567 0.50074 0.0
C445 C 0.72746 0.26953 0.46896 0.0
O446 O 0.59187 0.31377 0.55802 0.0
O447 O 0.71187 0.30512 0.48784 0.0
loop_
_geom_bond_atom_site_label_1
_geom_bond_atom_site_label_2
_geom_bond_distance
_geom_bond_site_symmetry_2
_ccdc_geom_bond_type
C0 O1 1.306 . S
C0 O3 1.160 1_655 S
O1 C0 1.306 . S
O1 Cd2 2.228 1_655 S
Cd2 O1 2.228 1_455 S
Cd2 O6 2.273 . S
Cd2 O10 2.277 . S
O3 C0 1.160 1_455 S
O3 Cd4 2.203 . S
Cd4 O3 2.203 . S
Cd4 O6 2.411 . S
Cd4 O7 2.333 . S
Cd4 O8 2.352 . S
Cd4 O12 2.277 . S
Cd4 O13 2.356 . S
C5 O10 1.209 . S
C5 O12 1.226 . S
O6 Cd2 2.273 . S
O6 Cd4 2.411 . S
O6 C9 1.320 . S
O7 Cd4 2.333 . S
O7 C9 1.214 . S
O8 Cd4 2.352 . S
O8 C11 1.258 . S
C9 O6 1.320 . S
C9 O7 1.214 . S
O10 Cd2 2.277 . S
O10 C5 1.209 . S
C11 O8 1.258 . S
C11 O13 1.282 . S
O12 Cd4 2.277 . S
O12 C5 1.226 . S
O13 Cd4 2.356 . S
O13 C11 1.282 . S
C14 O15 1.306 . S
C14 O17 1.160 . S
O15 C14 1.306 . S
O15 Cd16 2.228 . S
Cd16 O15 2.228 . S
Cd16 O20 2.273 . S
Cd16 O24 2.277 . S
O17 C14 1.160 . S
O17 Cd18 2.203 . S
Cd18 O17 2.203 . S
Cd18 O20 2.411 . S
Cd18 O21 2.333 . S
Cd18 O22 2.352 . S
Cd18 O26 2.277 . S
Cd18 O27 2.356 . S
C19 O24 1.209 . S
C19 O26 1.226 . S
O20 Cd16 2.273 . S
O20 Cd18 2.411 . S
O20 C23 1.320 . S
O21 Cd18 2.333 . S
O21 C23 1.214 . S
O22 Cd18 2.352 . S
O22 C25 1.258 . S
C23 O20 1.320 . S
C23 O21 1.214 . S
O24 Cd16 2.277 . S
O24 C19 1.209 . S
C25 O22 1.258 . S
C25 O27 1.282 . S
O26 Cd18 2.277 . S
O26 C19 1.226 . S
O27 Cd18 2.356 . S
O27 C25 1.282 . S
C28 O29 1.306 . S
C28 O31 1.160 . S
O29 C28 1.306 . S
O29 Cd30 2.228 . S
Cd30 O29 2.228 . S
Cd30 O34 2.273 . S
Cd30 O38 2.277 . S
O31 C28 1.160 . S
O31 Cd32 2.203 . S
Cd32 O31 2.203 . S
Cd32 O34 2.411 . S
Cd32 O35 2.333 . S
Cd32 O36 2.352 . S
Cd32 O40 2.277 . S
Cd32 O41 2.356 . S
C33 O38 1.209 . S
C33 O40 1.226 . S
O34 Cd30 2.273 . S
O34 Cd32 2.411 . S
O34 C37 1.320 . S
O35 Cd32 2.333 . S
O35 C37 1.214 . S
O36 Cd32 2.352 . S
O36 C39 1.258 . S
C37 O34 1.320 . S
C37 O35 1.214 . S
O38 Cd30 2.277 . S
O38 C33 1.209 . S
C39 O36 1.258 . S
C39 O41 1.282 . S
O40 Cd32 2.277 . S
O40 C33 1.226 . S
O41 Cd32 2.356 . S
O41 C39 1.282 . S
C42 O43 1.306 . S
C42 O45 1.160 . S
O43 C42 1.306 . S
O43 Cd44 2.228 1_554 S
Cd44 O43 2.228 1_556 S
Cd44 O48 2.273 . S
Cd44 O52 2.277 1_556 S
O45 C42 1.160 . S
O45 Cd46 2.203 . S
Cd46 O45 2.203 . S
Cd46 O48 2.411 1_554 S
Cd46 O49 2.333 1_554 S
Cd46 O50 2.352 . S
Cd46 O54 2.277 . S
Cd46 O55 2.356 . S
C47 O52 1.209 . S
C47 O54 1.226 . S
O48 Cd44 2.273 . S
O48 Cd46 2.411 1_556 S
O48 C51 1.320 . S
O49 Cd46 2.333 1_556 S
O49 C51 1.214 . S
O50 Cd46 2.352 . S
O50 C53 1.258 . S
C51 O48 1.320 . S
C51 O49 1.214 . S
O52 Cd44 2.277 1_554 S
O52 C47 1.209 . S
C53 O50 1.258 . S
C53 O55 1.282 . S
O54 Cd46 2.277 . S
O54 C47 1.226 . S
O55 Cd46 2.356 . S
O55 C53 1.282 . S
C56 O57 1.306 . S
C56 O59 1.160 1_655 S
O57 C56 1.306 . S
O57 Cd58 2.228 1_655 S
Cd58 O57 2.228 1_455 S
Cd58 O62 2.273 . S
Cd58 O66 2.277 . S
O59 C56 1.160 1_455 S
O59 Cd60 2.203 . S
Cd60 O59 2.203 . S
Cd60 O62 2.411 . S
Cd60 O63 2.333 . S
Cd60 O64 2.352 . S
Cd60 O68 2.277 . S
Cd60 O69 2.356 . S
C61 O66 1.209 . S
C61 O68 1.226 . S
O62 Cd58 2.273 . S
O62 Cd60 2.411 . S
O62 C65 1.320 . S
O63 Cd60 2.333 . S
O63 C65 1.214 . S
O64 Cd60 2.352 . S
O64 C67 1.258 . S
C65 O62 1.320 . S
C65 O63 1.214 . S
O66 Cd58 2.277 . S
O66 C61 1.209 . S
C67 O64 1.258 . S
C67 O69 1.282 . S
O68 Cd60 2.277 . S
O68 C61 1.226 . S
O69 Cd60 2.356 . S
O69 C67 1.282 . S
C70 O71 1.306 . S
C70 O73 1.160 . S
O71 C70 1.306 . S
O71 Cd72 2.228 . S
Cd72 O71 2.228 . S
Cd72 O76 2.273 . S
Cd72 O80 2.277 . S
O73 C70 1.160 . S
O73 Cd74 2.203 . S
Cd74 O73 2.203 . S
Cd74 O76 2.411 . S
Cd74 O77 2.333 . S
Cd74 O78 2.352 . S
Cd74 O82 2.277 . S
Cd74 O83 2.356 . S
C75 O80 1.209 . S
C75 O82 1.226 . S
O76 Cd72 2.273 . S
O76 Cd74 2.411 . S
O76 C79 1.320 . S
O77 Cd74 2.333 . S
O77 C79 1.214 . S
O78 Cd74 2.352 . S
O78 C81 1.258 . S
C79 O76 1.320 . S
C79 O77 1.214 . S
O80 Cd72 2.277 . S
O80 C75 1.209 . S
C81 O78 1.258 . S
C81 O83 1.282 . S
O82 Cd74 2.277 . S
O82 C75 1.226 . S
O83 Cd74 2.356 . S
O83 C81 1.282 . S
C84 O85 1.306 . S
C84 O87 1.160 . S
O85 C84 1.306 . S
O85 Cd86 2.228 . S
Cd86 O85 2.228 . S
Cd86 O90 2.273 . S
Cd86 O94 2.277 . S
O87 C84 1.160 . S
O87 Cd88 2.203 . S
Cd88 O87 2.203 . S
Cd88 O90 2.411 . S
Cd88 O91 2.333 . S
Cd88 O92 2.352 . S
Cd88 O96 2.277 . S
Cd88 O97 2.356 . S
C89 O94 1.209 . S
C89 O96 1.226 . S
O90 Cd86 2.273 . S
O90 Cd88 2.411 . S
O90 C93 1.320 . S
O91 Cd88 2.333 . S
O91 C93 1.214 . S
O92 Cd88 2.352 . S
O92 C95 1.258 . S
C93 O90 1.320 . S
C93 O91 1.214 . S
O94 Cd86 2.277 . S
O94 C89 1.209 . S
C95 O92 1.258 . S
C95 O97 1.282 . S
O96 Cd88 2.277 . S
O96 C89 1.226 . S
O97 Cd88 2.356 . S
O97 C95 1.282 . S
C98 O99 1.306 . S
C98 O101 1.160 . S
O99 C98 1.306 . S
O99 Cd100 2.228 1_556 S
Cd100 O99 2.228 1_554 S
Cd100 O104 2.273 . S
Cd100 O108 2.277 1_554 S
O101 C98 1.160 . S
O101 Cd102 2.203 . S
Cd102 O101 2.203 . S
Cd102 O104 2.411 1_556 S
Cd102 O105 2.333 1_556 S
Cd102 O106 2.352 . S
Cd102 O110 2.277 . S
Cd102 O111 2.356 . S
C103 O108 1.209 . S
C103 O110 1.226 . S
O104 Cd100 2.273 . S
O104 Cd102 2.411 1_554 S
O104 C107 1.320 . S
O105 Cd102 2.333 1_554 S
O105 C107 1.214 . S
O106 Cd102 2.352 . S
O106 C109 1.258 . S
C107 O104 1.320 . S
C107 O105 1.214 . S
O108 Cd100 2.277 1_556 S
O108 C103 1.209 . S
C109 O106 1.258 . S
C109 O111 1.282 . S
O110 Cd102 2.277 . S
O110 C103 1.226 . S
O111 Cd102 2.356 . S
O111 C109 1.282 . S
C112 O113 1.306 . S
C112 O115 1.160 1_455 S
O113 C112 1.306 . S
O113 Cd114 2.228 1_455 S
Cd114 O113 2.228 1_655 S
Cd114 O118 2.273 . S
Cd114 O122 2.277 . S
O115 C112 1.160 1_655 S
O115 Cd116 2.203 . S
Cd116 O115 2.203 . S
Cd116 O118 2.411 . S
Cd116 O119 2.333 . S
Cd116 O120 2.352 . S
Cd116 O124 2.277 . S
Cd116 O125 2.356 . S
C117 O122 1.209 . S
C117 O124 1.226 . S
O118 Cd114 2.273 . S
O118 Cd116 2.411 . S
O118 C121 1.320 . S
O119 Cd116 2.333 . S
O119 C121 1.214 . S
O120 Cd116 2.352 . S
O120 C123 1.258 . S
C121 O118 1.320 . S
C121 O119 1.214 . S
O122 Cd114 2.277 . S
O122 C117 1.209 . S
C123 O120 1.258 . S
C123 O125 1.282 . S
O124 Cd116 2.277 . S
O124 C117 1.226 . S
O125 Cd116 2.356 . S
O125 C123 1.282 . S
C126 O127 1.306 . S
C126 O129 1.160 . S
O127 C126 1.306 . S
O127 Cd128 2.228 . S
Cd128 O127 2.228 . S
Cd128 O132 2.273 . S
Cd128 O136 2.277 . S
O129 C126 1.160 . S
O129 Cd130 2.203 . S
Cd130 O129 2.203 . S
Cd130 O132 2.411 . S
Cd130 O133 2.333 . S
Cd130 O134 2.352 . S
Cd130 O138 2.277 . S
Cd130 O139 2.356 . S
C131 O136 1.209 . S
C131 O138 1.226 . S
O132 Cd128 2.273 . S
O132 Cd130 2.411 . S
O132 C135 1.320 . S
O133 Cd130 2.333 . S
O133 C135 1.214 . S
O134 Cd130 2.352 . S
O134 C137 1.258 . S
C135 O132 1.320 . S
C135 O133 1.214 . S
O136 Cd128 2.277 . S
O136 C131 1.209 . S
C137 O134 1.258 . S
C137 O139 1.282 . S
O138 Cd130 2.277 . S
O138 C131 1.226 . S
O139 Cd130 2.356 . S
O139 C137 1.282 . S
C140 O141 1.306 . S
C140 O143 1.160 . S
O141 C140 1.306 . S
O141 Cd142 2.228 . S
Cd142 O141 2.228 . S
Cd142 O146 2.273 . S
Cd142 O150 2.277 . S
O143 C140 1.160 . S
O143 Cd144 2.203 . S
Cd144 O143 2.203 . S
Cd144 O146 2.411 . S
Cd144 O147 2.333 . S
Cd144 O148 2.352 . S
Cd144 O152 2.277 . S
Cd144 O153 2.356 . S
C145 O150 1.209 . S
C145 O152 1.226 . S
O146 Cd142 2.273 . S
O146 Cd144 2.411 . S
O146 C149 1.320 . S
O147 Cd144 2.333 . S
O147 C149 1.214 . S
O148 Cd144 2.352 . S
O148 C151 1.258 . S
C149 O146 1.320 . S
C149 O147 1.214 . S
O150 Cd142 2.277 . S
O150 C145 1.209 . S
C151 O148 1.258 . S
C151 O153 1.282 . S
O152 Cd144 2.277 . S
O152 C145 1.226 . S
O153 Cd144 2.356 . S
O153 C151 1.282 . S
C154 O155 1.306 . S
C154 O157 1.160 . S
O155 C154 1.306 . S
O155 Cd156 2.228 1_556 S
Cd156 O155 2.228 1_554 S
Cd156 O160 2.273 . S
Cd156 O164 2.277 1_554 S
O157 C154 1.160 . S
O157 Cd158 2.203 . S
Cd158 O157 2.203 . S
Cd158 O160 2.411 1_556 S
Cd158 O161 2.333 1_556 S
Cd158 O162 2.352 . S
Cd158 O166 2.277 . S
Cd158 O167 2.356 . S
C159 O164 1.209 . S
C159 O166 1.226 . S
O160 Cd156 2.273 . S
O160 Cd158 2.411 1_554 S
O160 C163 1.320 . S
O161 Cd158 2.333 1_554 S
O161 C163 1.214 . S
O162 Cd158 2.352 . S
O162 C165 1.258 . S
C163 O160 1.320 . S
C163 O161 1.214 . S
O164 Cd156 2.277 1_556 S
O164 C159 1.209 . S
C165 O162 1.258 . S
C165 O167 1.282 . S
O166 Cd158 2.277 . S
O166 C159 1.226 . S
O167 Cd158 2.356 . S
O167 C165 1.282 . S
C168 O169 1.306 . S
C168 O171 1.160 1_455 S
O169 C168 1.306 . S
O169 Cd170 2.228 1_455 S
Cd170 O169 2.228 1_655 S
Cd170 O174 2.273 . S
Cd170 O178 2.277 . S
O171 C168 1.160 1_655 S
O171 Cd172 2.203 . S
Cd172 O171 2.203 . S
Cd172 O174 2.411 . S
Cd172 O175 2.333 . S
Cd172 O176 2.352 . S
Cd172 O180 2.277 . S
Cd172 O181 2.356 . S
C173 O178 1.209 . S
C173 O180 1.226 . S
O174 Cd170 2.273 . S
O174 Cd172 2.411 . S
O174 C177 1.320 . S
O175 Cd172 2.333 . S
O175 C177 1.214 . S
O176 Cd172 2.352 . S
O176 C179 1.258 . S
C177 O174 1.320 . S
C177 O175 1.214 . S
O178 Cd170 2.277 . S
O178 C173 1.209 . S
C179 O176 1.258 . S
C179 O181 1.282 . S
O180 Cd172 2.277 . S
O180 C173 1.226 . S
O181 Cd172 2.356 . S
O181 C179 1.282 . S
C182 O183 1.306 . S
C182 O185 1.160 . S
O183 C182 1.306 . S
O183 Cd184 2.228 . S
Cd184 O183 2.228 . S
Cd184 O188 2.273 . S
Cd184 O192 2.277 . S
O185 C182 1.160 . S
O185 Cd186 2.203 . S
Cd186 O185 2.203 . S
Cd186 O188 2.411 . S
Cd186 O189 2.333 . S
Cd186 O190 2.352 . S
Cd186 O194 2.277 . S
Cd186 O195 2.356 . S
C187 O192 1.209 . S
C187 O194 1.226 . S
O188 Cd184 2.273 . S
O188 Cd186 2.411 . S
O188 C191 1.320 . S
O189 Cd186 2.333 . S
O189 C191 1.214 . S
O190 Cd186 2.352 . S
O190 C193 1.258 . S
C191 O188 1.320 . S
C191 O189 1.214 . S
O192 Cd184 2.277 . S
O192 C187 1.209 . S
C193 O190 1.258 . S
C193 O195 1.282 . S
O194 Cd186 2.277 . S
O194 C187 1.226 . S
O195 Cd186 2.356 . S
O195 C193 1.282 . S
C196 O197 1.306 . S
C196 O199 1.160 . S
O197 C196 1.306 . S
O197 Cd198 2.228 . S
Cd198 O197 2.228 . S
Cd198 O202 2.273 . S
Cd198 O206 2.277 . S
O199 C196 1.160 . S
O199 Cd200 2.203 . S
Cd200 O199 2.203 . S
Cd200 O202 2.411 . S
Cd200 O203 2.333 . S
Cd200 O204 2.352 . S
Cd200 O208 2.277 . S
Cd200 O209 2.356 . S
C201 O206 1.209 . S
C201 O208 1.226 . S
O202 Cd198 2.273 . S
O202 Cd200 2.411 . S
O202 C205 1.320 . S
O203 Cd200 2.333 . S
O203 C205 1.214 . S
O204 Cd200 2.352 . S
O204 C207 1.258 . S
C205 O202 1.320 . S
C205 O203 1.214 . S
O206 Cd198 2.277 . S
O206 C201 1.209 . S
C207 O204 1.258 . S
C207 O209 1.282 . S
O208 Cd200 2.277 . S
O208 C201 1.226 . S
O209 Cd200 2.356 . S
O209 C207 1.282 . S
C210 O211 1.306 . S
C210 O213 1.160 . S
O211 C210 1.306 . S
O211 Cd212 2.228 1_554 S
Cd212 O211 2.228 1_556 S
Cd212 O216 2.273 . S
Cd212 O220 2.277 1_556 S
O213 C210 1.160 . S
O213 Cd214 2.203 . S
Cd214 O213 2.203 . S
Cd214 O216 2.411 1_554 S
Cd214 O217 2.333 1_554 S
Cd214 O218 2.352 . S
Cd214 O222 2.277 . S
Cd214 O223 2.356 . S
C215 O220 1.209 . S
C215 O222 1.226 . S
O216 Cd212 2.273 . S
O216 Cd214 2.411 1_556 S
O216 C219 1.320 . S
O217 Cd214 2.333 1_556 S
O217 C219 1.214 . S
O218 Cd214 2.352 . S
O218 C221 1.258 . S
C219 O216 1.320 . S
C219 O217 1.214 . S
O220 Cd212 2.277 1_554 S
O220 C215 1.209 . S
C221 O218 1.258 . S
C221 O223 1.282 . S
O222 Cd214 2.277 . S
O222 C215 1.226 . S
O223 Cd214 2.356 . S
O223 C221 1.282 . S
C224 O225 1.306 . S
C224 O227 1.160 . S
O225 C224 1.306 . S
O225 Cd226 2.228 . S
Cd226 O225 2.228 . S
Cd226 O230 2.273 . S
Cd226 O234 2.277 . S
O227 C224 1.160 . S
O227 Cd228 2.203 . S
Cd228 O227 2.203 . S
Cd228 O230 2.411 . S
Cd228 O231 2.333 . S
Cd228 O232 2.352 . S
Cd228 O236 2.277 . S
Cd228 O237 2.356 . S
C229 O234 1.209 . S
C229 O236 1.226 . S
O230 Cd226 2.273 . S
O230 Cd228 2.411 . S
O230 C233 1.320 . S
O231 Cd228 2.333 . S
O231 C233 1.214 . S
O232 Cd228 2.352 . S
O232 C235 1.258 . S
C233 O230 1.320 . S
C233 O231 1.214 . S
O234 Cd226 2.277 . S
O234 C229 1.209 . S
C235 O232 1.258 . S
C235 O237 1.282 . S
O236 Cd228 2.277 . S
O236 C229 1.226 . S
O237 Cd228 2.356 . S
O237 C235 1.282 . S
C238 O239 1.306 . S
C238 O241 1.160 . S
O239 C238 1.306 . S
O239 Cd240 2.228 1_554 S
Cd240 O239 2.228 1_556 S
Cd240 O244 2.273 . S
Cd240 O248 2.277 1_556 S
O241 C238 1.160 . S
O241 Cd242 2.203 . S
Cd242 O241 2.203 . S
Cd242 O244 2.411 1_554 S
Cd242 O245 2.333 1_554 S
Cd242 O246 2.352 . S
Cd242 O250 2.277 . S
Cd242 O251 2.356 . S
C243 O248 1.209 . S
C243 O250 1.226 . S
O244 Cd240 2.273 . S
O244 Cd242 2.411 1_556 S
O244 C247 1.320 . S
O245 Cd242 2.333 1_556 S
O245 C247 1.214 . S
O246 Cd242 2.352 . S
O246 C249 1.258 . S
C247 O244 1.320 . S
C247 O245 1.214 . S
O248 Cd240 2.277 1_554 S
O248 C243 1.209 . S
C249 O246 1.258 . S
C249 O251 1.282 . S
O250 Cd242 2.277 . S
O250 C243 1.226 . S
O251 Cd242 2.356 . S
O251 C249 1.282 . S
C252 O253 1.306 . S
C252 O255 1.160 1_455 S
O253 C252 1.306 . S
O253 Cd254 2.228 1_455 S
Cd254 O253 2.228 1_655 S
Cd254 O258 2.273 . S
Cd254 O262 2.277 . S
O255 C252 1.160 1_655 S
O255 Cd256 2.203 . S
Cd256 O255 2.203 . S
Cd256 O258 2.411 . S
Cd256 O259 2.333 . S
Cd256 O260 2.352 . S
Cd256 O264 2.277 . S
Cd256 O265 2.356 . S
C257 O262 1.209 . S
C257 O264 1.226 . S
O258 Cd254 2.273 . S
O258 Cd256 2.411 . S
O258 C261 1.320 . S
O259 Cd256 2.333 . S
O259 C261 1.214 . S
O260 Cd256 2.352 . S
O260 C263 1.258 . S
C261 O258 1.320 . S
C261 O259 1.214 . S
O262 Cd254 2.277 . S
O262 C257 1.209 . S
C263 O260 1.258 . S
C263 O265 1.282 . S
O264 Cd256 2.277 . S
O264 C257 1.226 . S
O265 Cd256 2.356 . S
O265 C263 1.282 . S
C266 O267 1.306 . S
C266 O269 1.160 . S
O267 C266 1.306 . S
O267 Cd268 2.228 . S
Cd268 O267 2.228 . S
Cd268 O272 2.273 . S
Cd268 O276 2.277 . S
O269 C266 1.160 . S
O269 Cd270 2.203 . S
Cd270 O269 2.203 . S
Cd270 O272 2.411 . S
Cd270 O273 2.333 . S
Cd270 O274 2.352 . S
Cd270 O278 2.277 . S
Cd270 O279 2.356 . S
C271 O276 1.209 . S
C271 O278 1.226 . S
O272 Cd268 2.273 . S
O272 Cd270 2.411 . S
O272 C275 1.320 . S
O273 Cd270 2.333 . S
O273 C275 1.214 . S
O274 Cd270 2.352 . S
O274 C277 1.258 . S
C275 O272 1.320 . S
C275 O273 1.214 . S
O276 Cd268 2.277 . S
O276 C271 1.209 . S
C277 O274 1.258 . S
C277 O279 1.282 . S
O278 Cd270 2.277 . S
O278 C271 1.226 . S
O279 Cd270 2.356 . S
O279 C277 1.282 . S
C280 O281 1.306 . S
C280 O283 1.160 . S
O281 C280 1.306 . S
O281 Cd282 2.228 . S
Cd282 O281 2.228 . S
Cd282 O286 2.273 . S
Cd282 O290 2.277 . S
O283 C280 1.160 . S
O283 Cd284 2.203 . S
Cd284 O283 2.203 . S
Cd284 O286 2.411 . S
Cd284 O287 2.333 . S
Cd284 O288 2.352 . S
Cd284 O292 2.277 . S
Cd284 O293 2.356 . S
C285 O290 1.209 . S
C285 O292 1.226 . S
O286 Cd282 2.273 . S
O286 Cd284 2.411 . S
O286 C289 1.320 . S
O287 Cd284 2.333 . S
O287 C289 1.214 . S
O288 Cd284 2.352 . S
O288 C291 1.258 . S
C289 O286 1.320 . S
C289 O287 1.214 . S
O290 Cd282 2.277 . S
O290 C285 1.209 . S
C291 O288 1.258 . S
C291 O293 1.282 . S
O292 Cd284 2.277 . S
O292 C285 1.226 . S
O293 Cd284 2.356 . S
O293 C291 1.282 . S
C294 O295 1.306 . S
C294 O297 1.160 . S
O295 C294 1.306 . S
O295 Cd296 2.228 1_556 S
Cd296 O295 2.228 1_554 S
Cd296 O300 2.273 . S
Cd296 O304 2.277 1_554 S
O297 C294 1.160 . S
O297 Cd298 2.203 . S
Cd298 O297 2.203 . S
Cd298 O300 2.411 1_556 S
Cd298 O301 2.333 1_556 S
Cd298 O302 2.352 . S
Cd298 O306 2.277 . S
Cd298 O307 2.356 . S
C299 O304 1.209 . S
C299 O306 1.226 . S
O300 Cd296 2.273 . S
O300 Cd298 2.411 1_554 S
O300 C303 1.320 . S
O301 Cd298 2.333 1_554 S
O301 C303 1.214 . S
O302 Cd298 2.352 . S
O302 C305 1.258 . S
C303 O300 1.320 . S
C303 O301 1.214 . S
O304 Cd296 2.277 1_556 S
O304 C299 1.209 . S
C305 O302 1.258 . S
C305 O307 1.282 . S
O306 Cd298 2.277 . S
O306 C299 1.226 . S
O307 Cd298 2.356 . S
O307 C305 1.282 . S
C308 O309 1.306 . S
C308 O311 1.160 1_455 S
O309 C308 1.306 . S
O309 Cd310 2.228 1_455 S
Cd310 O309 2.228 1_655 S
Cd310 O314 2.273 . S
Cd310 O318 2.277 . S
O311 C308 1.160 1_655 S
O311 Cd312 2.203 . S
Cd312 O311 2.203 . S
Cd312 O314 2.411 . S
Cd312 O315 2.333 . S
Cd312 O316 2.352 . S
Cd312 O320 2.277 . S
Cd312 O321 2.356 . S
C313 O318 1.209 . S
C313 O320 1.226 . S
O314 Cd310 2.273 . S
O314 Cd312 2.411 . S
O314 C317 1.320 . S
O315 Cd312 2.333 . S
O315 C317 1.214 . S
O316 Cd312 2.352 . S
O316 C319 1.258 . S
C317 O314 1.320 . S
C317 O315 1.214 . S
O318 Cd310 2.277 . S
O318 C313 1.209 . S
C319 O316 1.258 . S
C319 O321 1.282 . S
O320 Cd312 2.277 . S
O320 C313 1.226 . S
O321 Cd312 2.356 . S
O321 C319 1.282 . S
C322 O323 1.306 . S
C322 O325 1.160 . S
O323 C322 1.306 . S
O323 Cd324 2.228 . S
Cd324 O323 2.228 . S
Cd324 O328 2.273 . S
Cd324 O332 2.277 . S
O325 C322 1.160 . S
O325 Cd326 2.203 . S
Cd326 O325 2.203 . S
Cd326 O328 2.411 . S
Cd326 O329 2.333 . S
Cd326 O330 2.352 . S
Cd326 O334 2.277 . S
Cd326 O335 2.356 . S
C327 O332 1.209 . S
C327 O334 1.226 . S
O328 Cd324 2.273 . S
O328 Cd326 2.411 . S
O328 C331 1.320 . S
O329 Cd326 2.333 . S
O329 C331 1.214 . S
O330 Cd326 2.352 . S
O330 C333 1.258 . S
C331 O328 1.320 . S
C331 O329 1.214 . S
O332 Cd324 2.277 . S
O332 C327 1.209 . S
C333 O330 1.258 . S
C333 O335 1.282 . S
O334 Cd326 2.277 . S
O334 C327 1.226 . S
O335 Cd326 2.356 . S
O335 C333 1.282 . S
C336 O337 1.306 . S
C336 O339 1.160 . S
O337 C336 1.306 . S
O337 Cd338 2.228 . S
Cd338 O337 2.228 . S
Cd338 O342 2.273 . S
Cd338 O346 2.277 . S
O339 C336 1.160 . S
O339 Cd340 2.203 . S
Cd340 O339 2.203 . S
Cd340 O342 2.411 . S
Cd340 O343 2.333 . S
Cd340 O344 2.352 . S
Cd340 O348 2.277 . S
Cd340 O349 2.356 . S
C341 O346 1.209 . S
C341 O348 1.226 . S
O342 Cd338 2.273 . S
O342 Cd340 2.411 . S
O342 C345 1.320 . S
O343 Cd340 2.333 . S
O343 C345 1.214 . S
O344 Cd340 2.352 . S
O344 C347 1.258 . S
C345 O342 1.320 . S
C345 O343 1.214 . S
O346 Cd338 2.277 . S
O346 C341 1.209 . S
C347 O344 1.258 . S
C347 O349 1.282 . S
O348 Cd340 2.277 . S
O348 C341 1.226 . S
O349 Cd340 2.356 . S
O349 C347 1.282 . S
C350 O351 1.306 . S
C350 O353 1.160 . S
O351 C350 1.306 . S
O351 Cd352 2.228 1_556 S
Cd352 O351 2.228 1_554 S
Cd352 O356 2.273 . S
Cd352 O360 2.277 1_554 S
O353 C350 1.160 . S
O353 Cd354 2.203 . S
Cd354 O353 2.203 . S
Cd354 O356 2.411 1_556 S
Cd354 O357 2.333 1_556 S
Cd354 O358 2.352 . S
Cd354 O362 2.277 . S
Cd354 O363 2.356 . S
C355 O360 1.209 . S
C355 O362 1.226 . S
O356 Cd352 2.273 . S
O356 Cd354 2.411 1_554 S
O356 C359 1.320 . S
O357 Cd354 2.333 1_554 S
O357 C359 1.214 . S
O358 Cd354 2.352 . S
O358 C361 1.258 . S
C359 O356 1.320 . S
C359 O357 1.214 . S
O360 Cd352 2.277 1_556 S
O360 C355 1.209 . S
C361 O358 1.258 . S
C361 O363 1.282 . S
O362 Cd354 2.277 . S
O362 C355 1.226 . S
O363 Cd354 2.356 . S
O363 C361 1.282 . S
C364 O365 1.306 . S
C364 O367 1.160 1_655 S
O365 C364 1.306 . S
O365 Cd366 2.228 1_655 S
Cd366 O365 2.228 1_455 S
Cd366 O370 2.273 . S
Cd366 O374 2.277 . S
O367 C364 1.160 1_455 S
O367 Cd368 2.203 . S
Cd368 O367 2.203 . S
Cd368 O370 2.411 . S
Cd368 O371 2.333 . S
Cd368 O372 2.352 . S
Cd368 O376 2.277 . S
Cd368 O377 2.356 . S
C369 O374 1.209 . S
C369 O376 1.226 . S
O370 Cd366 2.273 . S
O370 Cd368 2.411 . S
O370 C373 1.320 . S
O371 Cd368 2.333 . S
O371 C373 1.214 . S
O372 Cd368 2.352 . S
O372 C375 1.258 . S
C373 O370 1.320 . S
C373 O371 1.214 . S
O374 Cd366 2.277 . S
O374 C369 1.209 . S
C375 O372 1.258 . S
C375 O377 1.282 . S
O376 Cd368 2.277 . S
O376 C369 1.226 . S
O377 Cd368 2.356 . S
O377 C375 1.282 . S
C378 O379 1.306 . S
C378 O381 1.160 . S
O379 C378 1.306 . S
O379 Cd380 2.228 . S
Cd380 O379 2.228 . S
Cd380 O384 2.273 . S
Cd380 O388 2.277 . S
O381 C378 1.160 . S
O381 Cd382 2.203 . S
Cd382 O381 2.203 . S
Cd382 O384 2.411 . S
Cd382 O385 2.333 . S
Cd382 O386 2.352 . S
Cd382 O390 2.277 . S
Cd382 O391 2.356 . S
C383 O388 1.209 . S
C383 O390 1.226 . S
O384 Cd380 2.273 . S
O384 Cd382 2.411 . S
O384 C387 1.320 . S
O385 Cd382 2.333 . S
O385 C387 1.214 . S
O386 Cd382 2.352 . S
O386 C389 1.258 . S
C387 O384 1.320 . S
C387 O385 1.214 . S
O388 Cd380 2.277 . S
O388 C383 1.209 . S
C389 O386 1.258 . S
C389 O391 1.282 . S
O390 Cd382 2.277 . S
O390 C383 1.226 . S
O391 Cd382 2.356 . S
O391 C389 1.282 . S
C392 O393 1.306 . S
C392 O395 1.160 . S
O393 C392 1.306 . S
O393 Cd394 2.228 . S
Cd394 O393 2.228 . S
Cd394 O398 2.273 . S
Cd394 O402 2.277 . S
O395 C392 1.160 . S
O395 Cd396 2.203 . S
Cd396 O395 2.203 . S
Cd396 O398 2.411 . S
Cd396 O399 2.333 . S
Cd396 O400 2.352 . S
Cd396 O404 2.277 . S
Cd396 O405 2.356 . S
C397 O402 1.209 . S
C397 O404 1.226 . S
O398 Cd394 2.273 . S
O398 Cd396 2.411 . S
O398 C401 1.320 . S
O399 Cd396 2.333 . S
O399 C401 1.214 . S
O400 Cd396 2.352 . S
O400 C403 1.258 . S
C401 O398 1.320 . S
C401 O399 1.214 . S
O402 Cd394 2.277 . S
O402 C397 1.209 . S
C403 O400 1.258 . S
C403 O405 1.282 . S
O404 Cd396 2.277 . S
O404 C397 1.226 . S
O405 Cd396 2.356 . S
O405 C403 1.282 . S
C406 O407 1.306 . S
C406 O409 1.160 . S
O407 C406 1.306 . S
O407 Cd408 2.228 1_554 S
Cd408 O407 2.228 1_556 S
Cd408 O412 2.273 . S
Cd408 O416 2.277 1_556 S
O409 C406 1.160 . S
O409 Cd410 2.203 . S
Cd410 O409 2.203 . S
Cd410 O412 2.411 1_554 S
Cd410 O413 2.333 1_554 S
Cd410 O414 2.352 . S
Cd410 O418 2.277 . S
Cd410 O419 2.356 . S
C411 O416 1.209 . S
C411 O418 1.226 . S
O412 Cd408 2.273 . S
O412 Cd410 2.411 1_556 S
O412 C415 1.320 . S
O413 Cd410 2.333 1_556 S
O413 C415 1.214 . S
O414 Cd410 2.352 . S
O414 C417 1.258 . S
C415 O412 1.320 . S
C415 O413 1.214 . S
O416 Cd408 2.277 1_554 S
O416 C411 1.209 . S
C417 O414 1.258 . S
C417 O419 1.282 . S
O418 Cd410 2.277 . S
O418 C411 1.226 . S
O419 Cd410 2.356 . S
O419 C417 1.282 . S
C420 O421 1.306 . S
C420 O423 1.160 1_655 S
O421 C420 1.306 . S
O421 Cd422 2.228 1_655 S
Cd422 O421 2.228 1_455 S
Cd422 O426 2.273 . S
Cd422 O430 2.277 . S
O423 C420 1.160 1_455 S
O423 Cd424 2.203 . S
Cd424 O423 2.203 . S
Cd424 O426 2.411 . S
Cd424 O427 2.333 . S
Cd424 O428 2.352 . S
Cd424 O432 2.277 . S
Cd424 O433 2.356 . S
C425 O430 1.209 . S
C425 O432 1.226 . S
O426 Cd422 2.273 . S
O426 Cd424 2.411 . S
O426 C429 1.320 . S
O427 Cd424 2.333 . S
O427 C429 1.214 . S
O428 Cd424 2.352 . S
O428 C431 1.258 . S
C429 O426 1.320 . S
C429 O427 1.214 . S
O430 Cd422 2.277 . S
O430 C425 1.209 . S
C431 O428 1.258 . S
C431 O433 1.282 . S
O432 Cd424 2.277 . S
O432 C425 1.226 . S
O433 Cd424 2.356 . S
O433 C431 1.282 . S
C434 O435 1.306 . S
C434 O437 1.160 . S
O435 C434 1.306 . S
O435 Cd436 2.228 . S
Cd436 O435 2.228 . S
Cd436 O440 2.273 . S
Cd436 O444 2.277 . S
O437 C434 1.160 . S
O437 Cd438 2.203 . S
Cd438 O437 2.203 . S
Cd438 O440 2.411 . S
Cd438 O441 2.333 . S
Cd438 O442 2.352 . S
Cd438 O446 2.277 . S
Cd438 O447 2.356 . S
C439 O444 1.209 . S
C439 O446 1.226 . S
O440 Cd436 2.273 . S
O440 Cd438 2.411 . S
O440 C443 1.320 . S
O441 Cd438 2.333 . S
O441 C443 1.214 . S
O442 Cd438 2.352 . S
O442 C445 1.258 . S
C443 O440 1.320 . S
C443 O441 1.214 . S
O444 Cd436 2.277 . S
O444 C439 1.209 . S
C445 O442 1.258 . S
C445 O447 1.282 . S
O446 Cd438 2.277 . S
O446 C439 1.226 . S
O447 Cd438 2.356 . S
O447 C445 1.282 . S
C9 C303 1.390 . S
C317 C23 1.390 . S
C37 C331 1.390 . S
C289 C51 1.390 . S
C65 C275 1.390 . S
C79 C233 1.390 . S
C247 C93 1.390 . S
C107 C261 1.390 . S
C121 C415 1.390 . S
C135 C429 1.390 . S
C443 C149 1.390 . S
C401 C163 1.390 . S
C177 C387 1.390 . S
C345 C191 1.390 . S
C205 C359 1.390 . S
C373 C219 1.390 . S
C5 C126 1.432 . S
C19 C364 1.432 . S
C154 C33 1.432 . S
C47 C336 1.432 . S
C61 C210 1.432 . S
C392 C75 1.432 . S
C182 C89 1.432 . S
C420 C103 1.432 . S
C117 C14 1.432 . S
C252 C131 1.432 . S
C42 C145 1.432 . S
C159 C224 1.432 . S
C98 C173 1.432 . S
C280 C187 1.432 . S
C70 C201 1.432 . S
C215 C308 1.432 . S
C350 C229 1.432 . S
C140 C243 1.432 . S
C378 C257 1.432 . S
C271 C112 1.432 . S
C434 C285 1.432 . S
C168 C299 1.432 . S
C406 C313 1.432 . S
C327 C196 1.432 . S
C341 C238 1.432 . S
C28 C355 1.432 . S
C369 C266 1.432 . S
C383 C0 1.432 . S
C397 C322 1.432 . S
C56 C411 1.432 . S
C294 C425 1.432 . S
C439 C84 1.432 . S
C11 C67 1.684 . S
C25 C81 1.685 . S
C95 C39 1.684 . S
C109 C53 1.685 1_556 S
C179 C123 1.684 . S
C193 C137 1.685 . S
C207 C151 1.684 . S
C221 C165 1.685 1_554 S
C235 C291 1.684 1_565 S
C249 C305 1.685 1_554 S
C263 C319 1.684 1_545 S
C333 C277 1.685 . S
C347 C403 1.684 1_545 S
C417 C361 1.685 1_554 S
C431 C375 1.684 1_545 S
C445 C389 1.685 . S
