# Generated by pormake.
# Topology wiv, (6)-cn, num edge types: 1
# Building blocks:
#     Node 0, Type 0, BuildingBlock: JUFBIX_clean_sbu_0, # of connection points: 6
#     Node 1, Type 0, BuildingBlock: JUFBIX_clean_sbu_0, # of connection points: 6
#     Node 2, Type 0, BuildingBlock: JUFBIX_clean_sbu_0, # of connection points: 6
#     Node 3, Type 0, BuildingBlock: JUFBIX_clean_sbu_0, # of connection points: 6
#     Node 4, Type 0, BuildingBlock: JUFBIX_clean_sbu_0, # of connection points: 6
#     Node 5, Type 0, BuildingBlock: JUFBIX_clean_sbu_0, # of connection points: 6
#     Node 6, Type 0, BuildingBlock: JUFBIX_clean_sbu_0, # of connection points: 6
#     Node 7, Type 0, BuildingBlock: JUFBIX_clean_sbu_0, # of connection points: 6
#     Node 8, Type 0, BuildingBlock: JUFBIX_clean_sbu_0, # of connection points: 6
#     Node 9, Type 0, BuildingBlock: JUFBIX_clean_sbu_0, # of connection points: 6
#     Node 10, Type 0, BuildingBlock: JUFBIX_clean_sbu_0, # of connection points: 6
#     Node 11, Type 0, BuildingBlock: JUFBIX_clean_sbu_0, # of connection points: 6
#     Node 12, Type 0, BuildingBlock: JUFBIX_clean_sbu_0, # of connection points: 6
#     Node 13, Type 0, BuildingBlock: JUFBIX_clean_sbu_0, # of connection points: 6
#     Node 14, Type 0, BuildingBlock: JUFBIX_clean_sbu_0, # of connection points: 6
#     Node 15, Type 0, BuildingBlock: JUFBIX_clean_sbu_0, # of connection points: 6
#     Edge 16, Type (0, 0), BuildingBlock: OJICUG_clean_linker_0, # of connection points: 2
#     Edge 17, Type (0, 0), BuildingBlock: OJICUG_clean_linker_0, # of connection points: 2
#     Edge 18, Type (0, 0), BuildingBlock: OJICUG_clean_linker_0, # of connection points: 2
#     Edge 19, Type (0, 0), BuildingBlock: OJICUG_clean_linker_0, # of connection points: 2
#     Edge 20, Type (0, 0), BuildingBlock: OJICUG_clean_linker_0, # of connection points: 2
#     Edge 21, Type (0, 0), BuildingBlock: OJICUG_clean_linker_0, # of connection points: 2
#     Edge 22, Type (0, 0), BuildingBlock: OJICUG_clean_linker_0, # of connection points: 2
#     Edge 23, Type (0, 0), BuildingBlock: OJICUG_clean_linker_0, # of connection points: 2
#     Edge 24, Type (0, 0), BuildingBlock: OJICUG_clean_linker_0, # of connection points: 2
#     Edge 25, Type (0, 0), BuildingBlock: OJICUG_clean_linker_0, # of connection points: 2
#     Edge 26, Type (0, 0), BuildingBlock: OJICUG_clean_linker_0, # of connection points: 2
#     Edge 27, Type (0, 0), BuildingBlock: OJICUG_clean_linker_0, # of connection points: 2
#     Edge 28, Type (0, 0), BuildingBlock: OJICUG_clean_linker_0, # of connection points: 2
#     Edge 29, Type (0, 0), BuildingBlock: OJICUG_clean_linker_0, # of connection points: 2
#     Edge 30, Type (0, 0), BuildingBlock: OJICUG_clean_linker_0, # of connection points: 2
#     Edge 31, Type (0, 0), BuildingBlock: OJICUG_clean_linker_0, # of connection points: 2
#     Edge 32, Type (0, 0), BuildingBlock: OJICUG_clean_linker_0, # of connection points: 2
#     Edge 33, Type (0, 0), BuildingBlock: OJICUG_clean_linker_0, # of connection points: 2
#     Edge 34, Type (0, 0), BuildingBlock: OJICUG_clean_linker_0, # of connection points: 2
#     Edge 35, Type (0, 0), BuildingBlock: OJICUG_clean_linker_0, # of connection points: 2
#     Edge 36, Type (0, 0), BuildingBlock: OJICUG_clean_linker_0, # of connection points: 2
#     Edge 37, Type (0, 0), BuildingBlock: OJICUG_clean_linker_0, # of connection points: 2
#     Edge 38, Type (0, 0), BuildingBlock: OJICUG_clean_linker_0, # of connection points: 2
#     Edge 39, Type (0, 0), BuildingBlock: OJICUG_clean_linker_0, # of connection points: 2
#     Edge 40, Type (0, 0), BuildingBlock: OJICUG_clean_linker_0, # of connection points: 2
#     Edge 41, Type (0, 0), BuildingBlock: OJICUG_clean_linker_0, # of connection points: 2
#     Edge 42, Type (0, 0), BuildingBlock: OJICUG_clean_linker_0, # of connection points: 2
#     Edge 43, Type (0, 0), BuildingBlock: OJICUG_clean_linker_0, # of connection points: 2
#     Edge 44, Type (0, 0), BuildingBlock: OJICUG_clean_linker_0, # of connection points: 2
#     Edge 45, Type (0, 0), BuildingBlock: OJICUG_clean_linker_0, # of connection points: 2
#     Edge 46, Type (0, 0), BuildingBlock: OJICUG_clean_linker_0, # of connection points: 2
#     Edge 47, Type (0, 0), BuildingBlock: OJICUG_clean_linker_0, # of connection points: 2
#     Edge 48, Type (0, 0), BuildingBlock: OJICUG_clean_linker_0, # of connection points: 2
#     Edge 49, Type (0, 0), BuildingBlock: OJICUG_clean_linker_0, # of connection points: 2
#     Edge 50, Type (0, 0), BuildingBlock: OJICUG_clean_linker_0, # of connection points: 2
#     Edge 51, Type (0, 0), BuildingBlock: OJICUG_clean_linker_0, # of connection points: 2
#     Edge 52, Type (0, 0), BuildingBlock: OJICUG_clean_linker_0, # of connection points: 2
#     Edge 53, Type (0, 0), BuildingBlock: OJICUG_clean_linker_0, # of connection points: 2
#     Edge 54, Type (0, 0), BuildingBlock: OJICUG_clean_linker_0, # of connection points: 2
#     Edge 55, Type (0, 0), BuildingBlock: OJICUG_clean_linker_0, # of connection points: 2
#     Edge 56, Type (0, 0), BuildingBlock: OJICUG_clean_linker_0, # of connection points: 2
#     Edge 57, Type (0, 0), BuildingBlock: OJICUG_clean_linker_0, # of connection points: 2
#     Edge 58, Type (0, 0), BuildingBlock: OJICUG_clean_linker_0, # of connection points: 2
#     Edge 59, Type (0, 0), BuildingBlock: OJICUG_clean_linker_0, # of connection points: 2
#     Edge 60, Type (0, 0), BuildingBlock: OJICUG_clean_linker_0, # of connection points: 2
#     Edge 61, Type (0, 0), BuildingBlock: OJICUG_clean_linker_0, # of connection points: 2
#     Edge 62, Type (0, 0), BuildingBlock: OJICUG_clean_linker_0, # of connection points: 2
#     Edge 63, Type (0, 0), BuildingBlock: OJICUG_clean_linker_0, # of connection points: 2
# Relax obj value: 0.330
# Max RMSD: 0.142
# Mean RMSD: 0.126
data_MOF--net-wiv--node1-JUFBIX_clean_sbu_0--edge1-OJICUG_clean_linker_0
_symmetry_space_group_name_H-M    P1
_symmetry_Int_Tables_number       1
_symmetry_cell_setting            triclinic
loop_
_symmetry_equiv_pos_as_xyz
'x, y, z'
_cell_length_a     51.612765
_cell_length_b     44.680907
_cell_length_c     11.09731
_cell_angle_alpha  82.605904
_cell_angle_beta   89.991218
_cell_angle_gamma 89.87574
loop_
_atom_site_label
_atom_site_type_symbol
_atom_site_fract_x
_atom_site_fract_y
_atom_site_fract_z
_atom_type_partial_charge
Co0 Co 0.39444 0.1605 0.2088 0.0
C1 C 0.41465 0.09963 0.24167 0.0
Co2 Co 0.43767 0.15866 0.21386 0.0
C3 C 0.34158 0.17002 0.1219 0.0
C4 C 0.34321 0.1455 0.30039 0.0
N5 N 0.35828 0.15986 0.21206 0.0
N6 N 0.31674 0.16226 0.14969 0.0
C7 C 0.31778 0.14699 0.26265 0.0
H8 H 0.34766 0.18225 1.03614 0.0
H9 H 0.35036 0.13346 0.38466 0.0
C10 C 0.41541 0.21938 0.18363 0.0
N11 N 0.47493 0.16144 0.20193 0.0
C12 C 0.49599 0.1548 0.27568 0.0
C13 C 0.48513 0.17819 0.10306 0.0
N14 N 0.51836 0.16702 0.22507 0.0
C15 C 0.51124 0.18148 0.11662 0.0
C16 C 0.41503 0.15939 0.97669 0.0
O17 O 0.39418 0.20465 0.18958 0.0
O18 O 0.4365 0.20401 0.18985 0.0
O19 O 0.43595 0.15774 0.03801 0.0
O20 O 0.39381 0.1611 1.03376 0.0
O21 O 0.43692 0.11289 0.24039 0.0
H22 H 0.4741 0.18915 1.0271 0.0
H23 H 0.49476 0.14285 0.36674 0.0
O24 O 0.39453 0.11639 0.22797 0.0
O25 O 0.39587 0.15988 0.38518 0.0
O26 O 0.43846 0.1592 0.38799 0.0
C27 C 0.41702 0.15952 0.4456 0.0
H28 H 0.30154 0.13627 0.31247 0.0
H29 H 0.52405 0.19442 0.05249 0.0
Co30 Co 0.17765 0.64355 0.83075 0.0
C31 C 0.22831 0.66602 0.80201 0.0
Co32 Co 0.17871 0.69284 0.80141 0.0
C33 C 0.15977 0.58797 0.77378 0.0
C34 C 0.1929 0.58156 0.89097 0.0
N35 N 0.17629 0.6027 0.83883 0.0
N36 N 0.16563 0.55864 0.78121 0.0
C37 C 0.18652 0.55426 0.85401 0.0
H38 H 0.14502 0.59894 0.71409 0.0
H39 H 0.20946 0.58607 0.94558 0.0
C40 C 0.1279 0.66924 0.82254 0.0
N41 N 0.17974 0.73454 0.79897 0.0
C42 C 0.19194 0.74733 0.88716 0.0
C43 C 0.16106 0.7544 0.75818 0.0
N44 N 0.1802 0.77283 0.91139 0.0
C45 C 0.16117 0.77783 0.82784 0.0
C46 C 0.17704 0.67094 0.5803 0.0
O47 O 0.14039 0.64456 0.83855 0.0
O48 O 0.14083 0.69369 0.80448 0.0
O49 O 0.17807 0.69587 0.62506 0.0
O50 O 0.17627 0.64654 0.65379 0.0
O51 O 0.21652 0.69134 0.79554 0.0
H52 H 0.14585 0.7499 0.696 0.0
H53 H 0.20604 0.73533 0.94762 0.0
O54 O 0.21488 0.64207 0.82125 0.0
O55 O 0.17911 0.64042 1.00741 0.0
O56 O 0.17907 0.68945 0.97868 0.0
C57 C 0.17918 0.66524 0.05233 0.0
H58 H 0.19708 0.53324 0.87366 0.0
H59 H 0.14627 0.79493 0.82759 0.0
Co60 Co 0.65312 0.90484 0.06372 0.0
C61 C 0.63584 0.96335 0.04153 0.0
Co62 Co 0.61022 0.90914 0.06605 0.0
C63 C 0.70543 0.91045 0.96774 0.0
C64 C 0.70448 0.88667 0.1477 0.0
N65 N 0.68918 0.90146 0.06107 0.0
N66 N 0.73017 0.90159 0.99197 0.0
C67 C 0.72961 0.88679 0.10579 0.0
H68 H 0.69912 0.92285 0.88261 0.0
H69 H 0.69766 0.87548 0.23407 0.0
C70 C 0.62858 0.85061 0.09701 0.0
N71 N 0.57367 0.91101 0.06895 0.0
C72 C 0.55751 0.91316 0.16423 0.0
C73 C 0.55783 0.90424 0.97944 0.0
N74 N 0.53258 0.9074 0.13778 0.0
C75 C 0.53278 0.90203 1.02126 0.0
C76 C 0.63128 0.90725 0.83014 0.0
O77 O 0.65048 0.86342 0.08905 0.0
O78 O 0.60803 0.86643 0.08493 0.0
O79 O 0.61033 0.91042 0.88844 0.0
O80 O 0.65229 0.90398 0.89025 0.0
O81 O 0.61318 0.95194 0.05084 0.0
H82 H 0.56405 0.89931 0.89116 0.0
H83 H 0.56394 0.91691 0.25378 0.0
O84 O 0.65548 0.94629 0.03949 0.0
O85 O 0.65349 0.90572 0.24007 0.0
O86 O 0.61115 0.90791 0.24072 0.0
C87 C 0.63238 0.90684 0.29955 0.0
H88 H 0.74596 0.87566 0.15362 0.0
H89 H 0.51608 0.89582 0.97103 0.0
Co90 Co 0.89156 0.42175 0.05725 0.0
C91 C 0.9341 0.40725 0.91839 0.0
Co92 Co 0.88055 0.4072 0.88288 0.0
C93 C 0.92352 0.42001 0.25277 0.0
C94 C 0.90461 0.46273 0.22939 0.0
N95 N 0.90291 0.43446 0.19927 0.0
N96 N 0.93906 0.43798 0.30944 0.0
C97 C 0.92673 0.46489 0.2978 0.0
H98 H 0.92831 0.39699 0.24091 0.0
H99 H 0.89215 0.48134 0.19443 0.0
C100 C 0.83735 0.42004 1.01299 0.0
N101 N 0.873 0.3937 0.7321 0.0
C102 C 0.88823 0.4073 0.64342 0.0
C103 C 0.87615 0.36397 0.72179 0.0
N104 N 0.90557 0.38808 0.60545 0.0
C105 C 0.89714 0.3604 0.64836 0.0
C106 C 0.88396 0.35759 0.07746 0.0
O107 O 0.85394 0.42627 0.09296 0.0
O108 O 0.84541 0.41221 0.91364 0.0
O109 O 0.87864 0.36491 0.96527 0.0
O110 O 0.89006 0.37907 0.13737 0.0
O111 O 0.91598 0.40098 0.85053 0.0
H112 H 0.86728 0.34572 0.78088 0.0
H113 H 0.89059 0.43144 0.62656 0.0
O114 O 0.92822 0.4174 1.0158 0.0
O115 O 0.89377 0.46315 0.98391 0.0
O116 O 0.88338 0.45172 0.80619 0.0
C117 C 0.89053 0.47189 0.87209 0.0
H118 H 0.93331 0.48474 0.33536 0.0
H119 H 0.90731 0.3395 0.64099 0.0
Co120 Co 0.39112 0.41268 0.11515 0.0
C121 C 0.41032 0.47392 0.08078 0.0
Co122 Co 0.43432 0.41536 0.10959 0.0
C123 C 0.33859 0.40311 0.20707 0.0
C124 C 0.33927 0.42599 1.02568 0.0
N125 N 0.35484 0.41255 0.11417 0.0
N126 N 0.31357 0.41049 0.18093 0.0
C127 C 0.314 0.4247 0.06608 0.0
H128 H 0.3451 0.39174 0.29372 0.0
H129 H 0.34595 0.4374 0.93944 0.0
C130 C 0.41345 0.35423 0.14082 0.0
N131 N 0.47153 0.41353 0.11933 0.0
C132 C 0.49203 0.42027 0.04247 0.0
C133 C 0.48253 0.39754 0.21808 0.0
N134 N 0.51486 0.40883 0.09102 0.0
C135 C 0.50863 0.39478 0.20138 0.0
C136 C 0.41194 0.41434 0.34697 0.0
O137 O 0.39185 0.3684 0.13513 0.0
O138 O 0.43416 0.37015 0.13409 0.0
O139 O 0.43284 0.41634 0.2855 0.0
O140 O 0.39078 0.41223 0.29004 0.0
O141 O 0.43275 0.46095 0.08256 0.0
H142 H 0.4721 0.38668 0.29608 0.0
H143 H 0.49007 0.43166 0.95076 0.0
O144 O 0.3904 0.4569 0.09498 0.0
O145 O 0.39231 0.41316 0.93873 0.0
O146 O 0.43488 0.41474 0.93558 0.0
C147 C 0.41347 0.41396 0.87816 0.0
H148 H 0.29747 0.43491 1.01665 0.0
H149 H 0.52202 0.38245 0.26463 0.0
Co150 Co 0.39564 0.65905 0.78464 0.0
C151 C 0.43265 0.66973 0.95433 0.0
Co152 Co 0.37899 0.67032 0.95221 0.0
C153 C 0.39371 0.62747 0.59195 0.0
C154 C 0.41674 0.66684 0.54487 0.0
N155 N 0.40805 0.648 0.64037 0.0
N156 N 0.38777 0.63667 0.47569 0.0
C157 C 0.40439 0.65964 0.44267 0.0
H158 H 0.3814 0.61167 0.64773 0.0
H159 H 0.42625 0.68811 0.55168 0.0
C160 C 0.34013 0.65979 0.79557 0.0
N161 N 0.36311 0.67992 0.0888 0.0
C162 C 0.34418 0.66241 0.14244 0.0
C163 C 0.35985 0.7068 0.12922 0.0
N164 N 0.32966 0.67626 0.21988 0.0
C165 C 0.33933 0.7047 0.20908 0.0
C166 C 0.38654 0.72266 0.77597 0.0
O167 O 0.35894 0.65307 0.73009 0.0
O168 O 0.34543 0.66816 0.89537 0.0
O169 O 0.37974 0.71405 0.88566 0.0
O170 O 0.3936 0.70207 0.7132 0.0
O171 O 0.4123 0.67328 1.0157 0.0
H172 H 0.37105 0.72686 0.10016 0.0
H173 H 0.34104 0.63945 0.1249 0.0
O174 O 0.43044 0.66487 0.84363 0.0
O175 O 0.39873 0.61714 0.85151 0.0
O176 O 0.37943 0.625 1.01807 0.0
C177 C 0.39068 0.60638 0.95567 0.0
H178 H 0.4028 0.67495 0.35891 0.0
H179 H 0.33329 0.7222 0.2621 0.0
Co180 Co 0.65008 0.66775 0.27902 0.0
C181 C 0.63085 0.61015 0.29695 0.0
Co182 Co 0.60719 0.66556 0.27564 0.0
C183 C 0.70274 0.66008 0.37094 0.0
C184 C 0.70152 0.68231 0.18845 0.0
N185 N 0.68623 0.66921 0.27869 0.0
N186 N 0.72765 0.6672 0.3423 0.0
C187 C 0.72689 0.68104 0.22699 0.0
H188 H 0.69653 0.64894 0.45846 0.0
H189 H 0.6946 0.6932 0.10171 0.0
C190 C 0.62735 0.72316 0.24697 0.0
N191 N 0.57088 0.66565 0.27646 0.0
C192 C 0.55349 0.6599 0.1906 0.0
C193 C 0.55649 0.67685 0.36181 0.0
N194 N 0.52893 0.66701 0.21999 0.0
C195 C 0.53097 0.67759 0.32796 0.0
C196 C 0.62879 0.666 0.51232 0.0
O197 O 0.64888 0.70941 0.25417 0.0
O198 O 0.60642 0.70822 0.25903 0.0
O199 O 0.60784 0.66367 0.4533 0.0
O200 O 0.64991 0.66851 0.45284 0.0
O201 O 0.60862 0.62277 0.2881 0.0
H202 H 0.56409 0.68561 0.44095 0.0
H203 H 0.55879 0.65146 0.10685 0.0
O204 O 0.65104 0.6261 0.30233 0.0
O205 O 0.64971 0.66696 0.10276 0.0
O206 O 0.60732 0.66728 0.10054 0.0
C207 C 0.62861 0.66713 0.0425 0.0
H208 H 0.7433 0.69093 0.17592 0.0
H209 H 0.51531 0.68678 0.37676 0.0
Co210 Co 0.67376 0.43468 0.97218 0.0
C211 C 0.72473 0.41282 0.9968 0.0
Co212 Co 0.67539 0.38538 1.00094 0.0
C213 C 0.6551 0.48951 1.03368 0.0
C214 C 0.68799 0.4972 0.91575 0.0
N215 N 0.67167 0.47555 0.96569 0.0
N216 N 0.66067 0.5188 1.03051 0.0
C217 C 0.68141 0.52396 0.95728 0.0
H218 H 0.64077 0.47787 0.0937 0.0
H219 H 0.70466 0.49329 0.86073 0.0
C220 C 0.62431 0.40823 0.98383 0.0
N221 N 0.67702 0.34371 1.00219 0.0
C222 C 0.68945 0.33128 0.91353 0.0
C223 C 0.65869 0.32346 0.04272 0.0
N224 N 0.67821 0.30556 0.88906 0.0
C225 C 0.65925 0.30012 0.97263 0.0
C226 C 0.67389 0.40706 0.22248 0.0
O227 O 0.63646 0.43306 0.96607 0.0
O228 O 0.63756 0.38395 1.00118 0.0
O229 O 0.67532 0.38216 0.17762 0.0
O230 O 0.67267 0.43143 0.14907 0.0
O231 O 0.71314 0.38744 1.00324 0.0
H232 H 0.64339 0.32758 0.10522 0.0
H233 H 0.70332 0.34362 0.85307 0.0
O234 O 0.71106 0.43671 0.9802 0.0
O235 O 0.67497 0.43801 0.79525 0.0
O236 O 0.67517 0.38895 0.82387 0.0
C237 C 0.67512 0.41317 0.75028 0.0
H238 H 0.69198 0.54501 0.94163 0.0
H239 H 0.64468 0.28271 0.9728 0.0
Co240 Co 0.89428 0.66482 0.70839 0.0
C241 C 0.91264 0.60344 0.74191 0.0
Co242 Co 0.9374 0.66182 0.71372 0.0
C243 C 0.84137 0.65797 0.62846 0.0
C244 C 0.84322 0.67992 0.78848 0.0
N245 N 0.85816 0.66669 0.71077 0.0
N246 N 0.8166 0.66556 0.65068 0.0
C247 C 0.81774 0.6792 0.7521 0.0
H248 H 0.8473 0.64687 0.55186 0.0
H249 H 0.85046 0.6906 0.86382 0.0
C250 C 0.9171 0.7231 0.68278 0.0
N251 N 0.97465 0.6629 0.70233 0.0
C252 C 0.99529 0.65646 0.77874 0.0
C253 C 0.98554 0.67817 0.60176 0.0
N254 N 1.01807 0.66733 0.728 0.0
C255 C 1.01167 0.68074 0.61686 0.0
C256 C 0.91474 0.6633 0.47632 0.0
O257 O 0.89561 0.70894 0.69035 0.0
O258 O 0.93784 0.70714 0.68818 0.0
O259 O 0.93557 0.66063 0.53816 0.0
O260 O 0.89361 0.66607 0.53293 0.0
O261 O 0.93515 0.61614 0.74159 0.0
H262 H 0.97504 0.68882 0.52352 0.0
H263 H 0.99349 0.64578 0.87158 0.0
O264 O 0.8928 0.6207 0.72647 0.0
O265 O 0.89571 0.66359 0.88493 0.0
O266 O 0.93828 0.66262 0.88782 0.0
C267 C 0.91684 0.66307 0.9454 0.0
H268 H 0.80154 0.6894 0.79361 0.0
H269 H 0.02498 0.69261 0.55209 0.0
Co270 Co 0.67871 0.14525 0.32412 0.0
C271 C 0.72923 0.16871 0.29521 0.0
Co272 Co 0.67921 0.19456 0.29494 0.0
C273 C 0.66169 0.08937 0.26629 0.0
C274 C 0.69489 0.08352 0.38324 0.0
N275 N 0.67795 0.10436 0.33166 0.0
N276 N 0.66803 0.06017 0.27292 0.0
C277 C 0.68896 0.05615 0.34561 0.0
H278 H 0.64679 0.1001 0.20686 0.0
H279 H 0.71136 0.0883 0.43786 0.0
C280 C 0.62858 0.16999 0.31599 0.0
N281 N 0.67959 0.2363 0.29313 0.0
C282 C 0.69147 0.24928 0.38172 0.0
C283 C 0.66057 0.25572 0.25268 0.0
N284 N 0.67924 0.27444 0.40641 0.0
C285 C 0.66018 0.27905 0.32285 0.0
C286 C 0.67781 0.17272 0.07374 0.0
O287 O 0.64137 0.14551 0.33186 0.0
O288 O 0.64125 0.19465 0.2983 0.0
O289 O 0.67853 0.19766 0.11849 0.0
O290 O 0.67736 0.14831 0.14722 0.0
O291 O 0.71712 0.19383 0.28868 0.0
H292 H 0.64548 0.25091 0.1904 0.0
H293 H 0.70575 0.23758 0.44206 0.0
O294 O 0.71606 0.14454 0.31458 0.0
O295 O 0.68014 0.14205 0.50088 0.0
O296 O 0.6796 0.19108 0.47217 0.0
C297 C 0.67994 0.16687 0.54582 0.0
H298 H 0.69985 1.03535 0.36475 0.0
H299 H 0.64495 0.29575 0.32288 0.0
Co300 Co 0.14871 0.40348 0.57398 0.0
C301 C 0.13214 0.46214 0.5519 0.0
Co302 Co 0.10588 0.40826 0.57636 0.0
C303 C 0.20114 0.40808 0.4772 0.0
C304 C 0.19996 0.38449 0.65743 0.0
N305 N 0.1848 0.39943 0.57062 0.0
N306 N 0.22582 0.39892 0.5017 0.0
C307 C 0.22509 0.38422 0.61567 0.0
H308 H 0.19496 0.42052 0.39193 0.0
H309 H 0.19305 0.37351 0.74398 0.0
C310 C 0.12348 0.34954 0.60664 0.0
N311 N 0.06954 0.41068 0.58073 0.0
C312 C 0.05366 0.4156 0.67395 0.0
C313 C 0.05369 0.4002 0.49912 0.0
N314 N 0.02883 0.40787 0.65429 0.0
C315 C 0.02888 0.39841 0.54392 0.0
C316 C 0.12667 0.40625 0.34039 0.0
O317 O 0.14547 0.36215 0.59916 0.0
O318 O 0.10307 0.36555 0.59458 0.0
O319 O 0.10572 0.40971 0.39853 0.0
O320 O 0.14765 0.40268 0.40063 0.0
O321 O 0.10938 0.45101 0.56164 0.0
H322 H 0.05995 0.39201 0.41634 0.0
H323 H 0.06037 0.42242 0.75861 0.0
O324 O 0.15162 0.44484 0.54974 0.0
O325 O 0.14927 0.40434 0.75051 0.0
O326 O 0.10695 0.40684 0.75096 0.0
C327 C 0.12815 0.4056 0.8099 0.0
H328 H 0.24133 0.37294 0.66385 0.0
H329 H 1.0124 0.38926 0.50123 0.0
Co330 Co 0.39592 0.91667 0.54698 0.0
C331 C 0.43705 0.90332 0.39918 0.0
Co332 Co 0.38314 0.90345 0.37506 0.0
C333 C 0.42906 0.91253 0.74018 0.0
C334 C 0.41059 0.95551 0.72472 0.0
N335 N 0.40897 0.92811 0.68694 0.0
N336 N 0.44347 0.92845 0.81062 0.0
C337 C 0.43167 0.95577 0.80091 0.0
H338 H 0.43362 0.88975 0.72398 0.0
H339 H 0.3983 0.97459 0.69348 0.0
C340 C 0.3414 0.91579 0.51537 0.0
N341 N 0.37331 0.89085 0.23001 0.0
C342 C 0.38866 0.87064 0.18479 0.0
C343 C 0.36386 0.90837 0.13261 0.0
N344 N 0.39462 0.87949 0.06833 0.0
C345 C 0.37658 0.9008 1.03191 0.0
C346 C 0.38752 0.85265 0.56121 0.0
O347 O 0.35882 0.92147 0.59228 0.0
O348 O 0.34844 0.9084 0.41399 0.0
O349 O 0.38136 0.86067 0.45037 0.0
O350 O 0.39445 0.87363 0.62232 0.0
O351 O 0.41831 0.89789 0.3333 0.0
H352 H 0.35333 0.92918 0.13658 0.0
H353 H 0.40136 0.85573 0.24273 0.0
O354 O 0.43199 0.91228 0.49956 0.0
O355 O 0.39798 0.95833 0.47689 0.0
O356 O 0.38579 0.94792 0.29957 0.0
C357 C 0.39379 0.96764 0.36605 0.0
H358 H 0.43722 0.97426 0.84957 0.0
H359 H 0.37745 0.9155 0.94633 0.0
Co360 Co 0.89486 0.91652 0.60394 0.0
C361 C 0.914 0.9777 0.56758 0.0
Co362 Co 0.93804 0.91909 0.59834 0.0
C363 C 0.84247 0.90666 0.69504 0.0
C364 C 0.84306 0.93006 0.51447 0.0
N365 N 0.85866 0.91641 0.60241 0.0
N366 N 0.81745 0.91408 0.66941 0.0
C367 C 0.81781 0.92859 0.55507 0.0
H368 H 0.84902 0.89505 0.7812 0.0
H369 H 0.84971 0.94171 0.42862 0.0
C370 C 0.91696 0.85802 0.63172 0.0
N371 N 0.9753 0.91708 0.60915 0.0
C372 C 0.99599 0.92322 0.53283 0.0
C373 C 0.98605 0.90139 0.70929 0.0
N374 N 1.01866 0.91174 0.58317 0.0
C375 C 1.01214 0.89826 0.694 0.0
C376 C 0.91555 0.91845 0.83559 0.0
O377 O 0.89546 0.87235 0.62491 0.0
O378 O 0.93776 0.87379 0.62463 0.0
O379 O 0.93644 0.92046 0.77403 0.0
O380 O 0.8944 0.91626 0.77876 0.0
O381 O 0.93647 0.9648 0.56936 0.0
H382 H 0.97544 0.89089 0.78738 0.0
H383 H 0.99427 0.93416 0.44032 0.0
O384 O 0.89414 0.96064 0.58298 0.0
O385 O 0.89613 0.91683 0.42764 0.0
O386 O 0.93871 0.91811 0.42453 0.0
C387 C 0.91728 0.91747 0.36709 0.0
H388 H 0.80123 0.93891 0.5063 0.0
H389 H 0.02533 0.886 0.7585 0.0
Co390 Co 0.89639 0.1652 0.28481 0.0
C391 C 0.93285 0.1746 0.46146 0.0
Co392 Co 0.8786 0.17274 0.45858 0.0
C393 C 0.90344 0.13133 0.09925 0.0
C394 C 0.9365 0.15946 0.10626 0.0
N395 N 0.91163 0.15619 0.14368 0.0
N396 N 0.92224 0.1176 0.04222 0.0
C397 C 0.94298 0.13591 0.04227 0.0
H398 H 0.88441 0.12186 0.11872 0.0
H399 H 0.94981 0.17605 0.13319 0.0
C400 C 0.84123 0.16388 0.28779 0.0
N401 N 0.86269 0.17622 0.61168 0.0
C402 C 0.87727 0.16307 0.70426 0.0
C403 C 0.83939 0.16241 0.63467 0.0
N404 N 0.86703 0.13702 0.75717 0.0
C405 C 0.84243 0.13724 0.71926 0.0
C406 C 0.88539 0.22758 0.29345 0.0
O407 O 0.86051 0.15986 0.21901 0.0
O408 O 0.84576 0.16958 0.39344 0.0
O409 O 0.87776 0.21751 0.40203 0.0
O410 O 0.89399 0.20834 0.22679 0.0
O411 O 0.91241 0.17671 0.52268 0.0
H412 H 0.82236 0.16653 0.57819 0.0
H413 H 0.89715 0.16907 0.71829 0.0
O414 O 0.93059 0.17064 0.35072 0.0
O415 O 0.89981 0.12224 0.3423 0.0
O416 O 0.88033 0.12707 0.51017 0.0
C417 C 0.89196 0.10981 0.4442 0.0
H418 H 0.96157 0.13215 1.00162 0.0
H419 H 0.82884 0.11882 0.73856 0.0
Co420 Co 0.1503 0.16831 0.77612 0.0
C421 C 0.1364 0.1095 0.79654 0.0
Co422 Co 0.10767 0.16259 0.77433 0.0
C423 C 0.20305 0.16566 0.86688 0.0
C424 C 0.20028 0.19091 0.69004 0.0
N425 N 0.18604 0.17451 0.77649 0.0
N426 N 0.22727 0.17605 0.84086 0.0
C427 C 0.22558 0.19181 0.72905 0.0
H428 H 0.19767 0.15206 0.95091 0.0
H429 H 0.19262 0.20227 0.60555 0.0
C430 C 0.123 0.22154 0.7445 0.0
N431 N 0.07185 0.15675 0.77349 0.0
C432 C 0.0543 0.16732 0.68738 0.0
C433 C 0.05779 0.14053 0.86107 0.0
N434 N 0.02989 0.15849 0.71854 0.0
C435 C 0.03208 0.14168 0.82797 0.0
C436 C 0.12848 0.16521 1.00993 0.0
O437 O 0.14514 0.20923 0.7531 0.0
O438 O 0.10276 0.20523 0.75438 0.0
O439 O 0.10756 0.16186 0.95162 0.0
O440 O 0.14951 0.16865 0.94987 0.0
O441 O 0.11337 0.11996 0.79028 0.0
H442 H 0.06573 0.12847 0.94364 0.0
H443 H 0.05927 0.18156 0.60422 0.0
O444 O 0.15537 0.12736 0.79825 0.0
O445 O 0.15052 0.16789 0.59937 0.0
O446 O 0.10831 0.1634 0.59994 0.0
C447 C 0.12947 0.16565 0.5405 0.0
H448 H 0.24126 0.20409 0.68057 0.0
H449 H 1.01623 0.1306 0.87969 0.0
Co450 Co 0.17838 0.93307 0.47542 0.0
C451 C 0.22894 0.9098 0.50212 0.0
Co452 Co 0.17911 0.88376 0.5047 0.0
C453 C 0.16147 0.98851 0.53729 0.0
C454 C 0.1945 0.99483 0.41963 0.0
N455 N 0.17742 0.97394 0.4687 0.0
N456 N 0.16827 1.0174 0.53604 0.0
C457 C 0.18905 1.02173 0.46253 0.0
H458 H 0.14672 0.97747 0.59654 0.0
H459 H 0.21095 0.99024 0.36437 0.0
C460 C 0.12842 0.90819 0.48521 0.0
N461 N 0.17978 0.84207 0.50652 0.0
C462 C 0.19192 0.82917 0.41835 0.0
C463 C 0.161 0.82243 0.54711 0.0
N464 N 0.1801 0.80379 0.39408 0.0
C465 C 0.16102 0.799 0.47743 0.0
C466 C 0.17784 0.9055 0.72597 0.0
O467 O 0.14108 0.93268 0.46842 0.0
O468 O 0.14119 0.88354 0.503 0.0
O469 O 0.17874 0.88057 0.68122 0.0
O470 O 0.17718 0.92989 0.65245 0.0
O471 O 0.21698 0.88465 0.50894 0.0
H472 H 0.14581 0.82708 0.60929 0.0
H473 H 0.20608 0.84103 0.35799 0.0
O474 O 0.21564 0.93393 0.48417 0.0
O475 O 0.17969 0.93633 0.29867 0.0
O476 O 0.1792 0.88728 0.32749 0.0
C477 C 0.1795 0.91149 0.25381 0.0
H478 H 0.20031 0.04229 0.4471 0.0
H479 H 0.14606 0.78205 0.4776 0.0
C480 C 0.42221 1.01454 0.36664 0.0
C481 C 0.40026 1.0007 0.32008 0.0
H482 H 0.44453 0.05508 0.37702 0.0
C483 C 0.38414 1.01974 0.24103 0.0
H484 H 0.4352 1.00104 0.42832 0.0
C485 C 0.3892 0.05129 0.21435 0.0
C486 C 0.41105 0.06516 0.26203 0.0
H487 H 0.36694 1.01055 0.20386 0.0
H488 H 0.37564 0.06505 0.15677 0.0
C489 C 0.42771 0.04582 0.33687 0.0
C490 C 0.05758 0.64135 0.81832 0.0
C491 C 0.04406 0.66806 0.77766 0.0
H492 H 0.09457 0.62064 0.8637 0.0
C493 C 0.05801 0.6954 0.76341 0.0
H494 H 0.04753 0.61993 0.8279 0.0
C495 C 0.08488 0.69596 0.78335 0.0
C496 C 0.09879 0.6691 0.81706 0.0
H497 H 0.04818 0.71634 0.73121 0.0
H498 H 0.09489 0.71738 0.76709 0.0
C499 C 0.08462 0.64184 0.83742 0.0
C500 C 0.66596 1.00581 0.04782 0.0
C501 C 0.64069 0.99435 0.06562 0.0
H502 H 0.69476 1.03526 0.10597 0.0
C503 C 0.62326 1.00852 0.13748 0.0
H504 H 0.67971 0.99556 0.99158 0.0
C505 C 0.63199 1.03139 0.20199 0.0
C506 C 0.65814 0.03981 0.19579 0.0
H507 H 0.60371 1.0001 0.15301 0.0
H508 H 0.61893 0.04104 0.26303 0.0
C509 C 0.67474 1.02805 0.11422 0.0
C510 C 0.96737 0.38059 0.81065 0.0
C511 C 0.96113 0.40445 0.87637 0.0
H512 H 0.99376 0.36306 0.68867 0.0
C513 C 0.97923 0.42779 0.8807 0.0
H514 H 0.95382 0.36227 0.80603 0.0
C515 C 1.00227 0.4283 0.81238 0.0
C516 C 1.00736 0.4056 0.73855 0.0
H517 H 0.97477 0.4466 0.92978 0.0
H518 H 1.01532 0.44727 0.81152 0.0
C519 C 0.99011 0.38121 0.74233 0.0
C520 C 0.38389 0.52228 0.10011 0.0
C521 C 0.40646 0.50835 0.05886 0.0
H522 H 0.36141 0.5632 0.10558 0.0
C523 C 0.42405 0.52767 0.9899 0.0
H524 H 0.36965 0.50855 0.15323 0.0
C525 C 0.41887 0.55902 0.95979 0.0
C526 C 0.39626 0.57296 0.99995 0.0
H527 H 0.4415 0.51838 0.95505 0.0
H528 H 0.43275 0.5725 0.90333 0.0
C529 C 0.37909 0.55391 0.07302 0.0
C530 C 0.4813 0.66465 0.21055 0.0
C531 C 0.50529 0.66598 0.1504 0.0
H532 H 0.44024 0.66516 0.19693 0.0
C533 C 0.50541 0.6678 1.02251 0.0
H534 H 0.48027 0.66241 0.30867 0.0
C535 C 0.48195 0.66902 0.95692 0.0
C536 C 0.45805 0.66868 1.01818 0.0
H537 H 0.52352 0.66897 0.97305 0.0
H538 H 0.48253 0.67062 0.85875 0.0
C539 C 0.45816 0.6662 0.1458 0.0
C540 C 0.65955 0.56682 0.279 0.0
C541 C 0.63469 0.5797 0.26395 0.0
H542 H 0.68765 0.53799 0.21023 0.0
C543 C 0.61706 0.5683 0.1848 0.0
H544 H 0.67344 0.57494 0.34041 0.0
C545 C 0.62534 0.54711 0.11083 0.0
C546 C 0.65121 0.53756 0.11518 0.0
H547 H 0.59781 0.57785 0.17111 0.0
H548 H 0.61217 0.53974 0.04466 0.0
C549 C 0.66788 0.54622 0.20353 0.0
C550 C 0.5551 0.38127 0.0536 0.0
C551 C 0.54075 0.4084 0.03985 0.0
H552 H 0.59218 0.35976 0.04592 0.0
C553 C 0.55372 0.43521 0.99603 0.0
H554 H 0.5457 0.36023 0.08775 0.0
C555 C 0.58065 0.43505 0.97336 0.0
C556 C 0.59523 0.40801 0.993 0.0
H557 H 0.54337 0.45648 0.98642 0.0
H558 H 0.5902 0.45633 0.94469 0.0
C559 C 0.58183 0.38102 1.03001 0.0
C560 C 0.91935 0.51849 0.87047 0.0
C561 C 0.8973 0.50476 0.82446 0.0
H562 H 0.94201 0.55884 0.87913 0.0
C563 C 0.8813 0.52382 0.74478 0.0
H564 H 0.93223 0.50499 0.93269 0.0
C565 C 0.88659 0.5553 0.71684 0.0
C566 C 0.90857 0.56905 0.76391 0.0
H567 H 0.86401 0.51471 0.7081 0.0
H568 H 0.87315 0.56908 0.65873 0.0
C569 C 0.9251 0.54967 0.83945 0.0
C570 C 0.58549 0.14198 0.32988 0.0
C571 C 0.59943 0.16944 0.31051 0.0
H572 H 0.54856 0.11967 0.32073 0.0
C573 C 0.58523 0.19616 0.27818 0.0
H574 H 0.59565 0.12087 0.35507 0.0
C575 C 0.55834 0.19532 0.25901 0.0
C576 C 0.54458 0.16783 0.27253 0.0
H577 H 0.59503 0.21772 0.26275 0.0
H578 H 0.5483 0.21623 0.22842 0.0
C579 C 0.55841 0.14121 0.31153 0.0
C580 C 0.1292 0.53028 0.71173 0.0
C581 C 0.15541 0.53839 0.70451 0.0
H582 H 0.10054 0.49928 0.66401 0.0
C583 C 0.17174 0.52645 0.62239 0.0
H584 H 0.11634 0.54009 0.7732 0.0
C585 C 0.16263 0.50428 0.55645 0.0
C586 C 0.1373 0.4931 0.57534 0.0
H587 H 0.19181 0.53344 0.6134 0.0
H588 H 0.17618 0.49386 0.49981 0.0
C589 C 0.12013 0.50749 0.64768 0.0
C590 C 0.50597 0.92424 0.30341 0.0
C591 C 0.51061 0.9039 0.21894 0.0
H592 H 0.47875 0.93998 0.42849 0.0
C593 C 0.49254 0.88087 0.20932 0.0
H594 H 0.51968 0.94208 0.31303 0.0
C595 C 0.46949 0.87946 0.27564 0.0
C596 C 0.46381 0.90117 0.3527 0.0
H597 H 0.49588 0.86445 0.14725 0.0
H598 H 0.45547 0.86219 0.26197 0.0
C599 C 0.48267 0.92293 0.36978 0.0
C600 C 0.92559 1.0312 0.46422 0.0
C601 C 0.90986 1.01207 0.54455 0.0
H602 H 0.93207 0.07572 0.36866 0.0
C603 C 0.88839 1.02598 0.59545 0.0
H604 H 0.94207 1.02185 0.42145 0.0
C605 C 0.88292 0.05741 0.56746 0.0
C606 C 0.89812 0.07628 0.4836 0.0
H607 H 0.87558 1.01239 0.65737 0.0
H608 H 0.86625 0.06672 0.60897 0.0
C609 C 0.91963 0.06236 0.43322 0.0
C610 C 0.98297 0.16898 0.71327 0.0
C611 C 1.00619 0.16526 0.6511 0.0
H612 H 0.94214 0.17561 0.70283 0.0
C613 C 1.00552 0.16685 0.52358 0.0
H614 H 0.98289 0.1683 0.81114 0.0
C615 C 0.98186 0.17075 0.46045 0.0
C616 C 0.9585 0.17365 0.5236 0.0
H617 H 0.02313 0.16393 0.47334 0.0
H618 H 0.98179 0.17082 0.36282 0.0
C619 C 0.95955 0.17333 0.65055 0.0
C620 C 0.17657 0.0487 0.69636 0.0
C621 C 0.15909 1.03669 0.61944 0.0
H622 H 0.18235 0.07997 0.82322 0.0
C623 C 0.1326 0.04326 0.6259 0.0
H624 H 0.19693 0.04278 0.69545 0.0
C625 C 0.1241 0.06467 0.69832 0.0
C626 C 0.14213 0.07924 0.76554 0.0
H627 H 0.11888 1.03333 0.56889 0.0
H628 H 0.104 0.07173 0.6926 0.0
C629 C 0.16808 0.06945 0.77073 0.0
C630 C 0.08526 0.88212 0.527 0.0
C631 C 0.09931 0.90875 0.492 0.0
H632 H 0.04852 0.86231 0.58086 0.0
C633 C 0.08529 0.9362 0.47161 0.0
H634 H 0.09514 0.86057 0.54338 0.0
C635 C 0.05829 0.93709 0.49166 0.0
C636 C 0.04464 0.91061 0.53342 0.0
H637 H 0.09535 0.95723 0.44441 0.0
H638 H 0.04838 0.95865 0.48177 0.0
C639 C 0.05844 0.88309 0.54792 0.0
C640 C 0.39178 0.27042 0.16719 0.0
C641 C 0.41529 0.25397 0.1719 0.0
H642 H 0.37265 0.31364 0.15443 0.0
C643 C 0.43836 0.27117 0.16682 0.0
H644 H 0.37348 0.25852 0.1709 0.0
C645 C 0.43787 0.30326 0.15739 0.0
C646 C 0.41429 0.31965 0.15271 0.0
H647 H 0.45695 0.25982 0.17025 0.0
H648 H 0.45611 0.31526 0.15361 0.0
C649 C 0.39129 0.30239 0.15784 0.0
C650 C 0.29717 0.63424 0.77967 0.0
C651 C 0.31226 0.66055 0.76056 0.0
H652 H 0.2591 0.61521 0.80844 0.0
C653 C 0.29934 0.6886 0.748 0.0
H654 H 0.3065 0.61234 0.79459 0.0
C655 C 0.27224 0.69041 0.75857 0.0
C656 C 0.25714 0.66416 0.78352 0.0
H657 H 0.31046 0.70933 0.73743 0.0
H658 H 0.26324 0.71249 0.75156 0.0
C659 C 0.26997 0.636 0.79028 0.0
C660 C 0.60386 0.80279 0.15333 0.0
C661 C 0.62755 0.81788 0.13114 0.0
H662 H 0.58514 0.76055 0.2095 0.0
C663 C 0.65086 0.80175 0.15014 0.0
H664 H 0.58562 0.81482 0.14024 0.0
C665 C 0.6506 0.77117 0.19113 0.0
C666 C 0.62702 0.75592 0.21316 0.0
H667 H 0.66947 0.81275 0.13453 0.0
H668 H 0.669 0.75946 0.20421 0.0
C669 C 0.60359 0.7719 0.19401 0.0
C670 C 0.79331 0.44411 1.03364 0.0
C671 C 0.80878 0.41817 1.03406 0.0
H672 H 0.75483 0.46293 1.02019 0.0
C673 C 0.79629 0.39046 1.02653 0.0
H674 H 0.80231 0.46592 1.03549 0.0
C675 C 0.7692 0.38864 1.01694 0.0
C676 C 0.75364 0.41465 1.0121 0.0
H677 H 0.80769 0.37016 1.02355 0.0
H678 H 0.76053 0.3669 1.00961 0.0
C679 C 0.76609 0.44238 1.02273 0.0
C680 C 0.94089 0.77448 0.66224 0.0
C681 C 0.91758 0.75769 0.66935 0.0
H682 H 0.95924 0.81831 0.64542 0.0
C683 C 0.89431 0.77457 0.66452 0.0
H684 H 0.95932 0.76277 0.66563 0.0
C685 C 0.89425 0.80655 0.65298 0.0
C686 C 0.91748 0.82342 0.64575 0.0
H687 H 0.87584 0.76302 0.66972 0.0
H688 H 0.87576 0.81812 0.64958 0.0
C689 C 0.94084 0.80661 0.6507 0.0
C690 C 0.80016 0.19219 0.23764 0.0
C691 C 0.81339 0.16431 0.25152 0.0
H692 H 0.76377 0.21563 0.24088 0.0
C693 C 0.7985 0.13786 0.27403 0.0
H694 H 0.81106 0.21306 0.22566 0.0
C695 C 0.77129 0.13929 0.28531 0.0
C696 C 0.75814 0.16727 0.27647 0.0
H697 H 0.80804 0.11611 0.29094 0.0
H698 H 0.76067 0.11838 0.30567 0.0
C699 C 0.773 0.19367 0.24915 0.0
C700 C 0.14553 0.30103 0.66584 0.0
C701 C 0.12229 0.31675 0.63936 0.0
H702 H 0.16378 0.25921 0.72253 0.0
C703 C 0.09862 0.30111 0.65128 0.0
H704 H 0.16411 0.31237 0.65875 0.0
C705 C 0.09841 0.26994 0.68823 0.0
C706 C 0.12185 0.25442 0.71419 0.0
H707 H 0.08042 0.31287 0.63217 0.0
H708 H 0.0801 0.25805 0.69525 0.0
C709 C 0.1453 0.27038 0.70338 0.0
C710 C 0.29781 0.9407 0.53277 0.0
C711 C 0.31302 0.9144 0.54111 0.0
H712 H 0.25959 0.95999 0.51309 0.0
C713 C 0.30025 0.88653 0.54143 0.0
H714 H 0.30703 0.96258 0.52782 0.0
C715 C 0.27312 0.88494 0.53145 0.0
C716 C 0.25786 0.91128 0.51859 0.0
H717 H 0.31145 0.86592 0.5439 0.0
H718 H 0.26421 0.86307 0.52988 0.0
C719 C 0.2706 0.93916 0.522 0.0
C720 C 0.2472 0.16824 0.0459 0.0
C721 C 0.24985 0.17267 0.91872 0.0
H722 H 0.2662 0.16225 0.21859 0.0
C723 C 0.27495 0.17423 0.86894 0.0
H724 H 0.22823 0.1675 0.08762 0.0
C725 C 0.29682 0.17117 0.94425 0.0
C726 C 0.2942 0.16657 0.07158 0.0
H727 H 0.27773 0.17728 0.77149 0.0
H728 H 0.31575 0.17179 0.90218 0.0
C729 C 0.26906 0.16529 0.12122 0.0
C730 C 0.15689 0.78565 0.09206 0.0
C731 C 0.18033 0.7826 1.03025 0.0
H732 H 0.13846 0.79394 0.25713 0.0
C733 C 0.20377 0.78517 0.09253 0.0
H734 H 0.13851 0.78301 0.04777 0.0
C735 C 0.20374 0.79114 0.21349 0.0
C736 C 0.18027 0.79396 0.27534 0.0
H737 H 0.22207 0.78244 0.04741 0.0
H738 H 0.22201 0.79369 0.25893 0.0
C739 C 0.15686 0.79111 0.21316 0.0
C740 C 0.74867 0.90808 0.78373 0.0
C741 C 0.75217 0.90497 0.91048 0.0
H742 H 0.76652 0.91268 0.60827 0.0
C743 C 0.77759 0.90454 0.95634 0.0
H744 H 0.72944 0.90794 0.74493 0.0
C745 C 0.79892 0.90722 0.87776 0.0
C746 C 0.79545 0.91035 0.75092 0.0
H747 H 0.78104 0.90257 0.05322 0.0
H748 H 0.81811 0.90744 0.91682 0.0
C749 C 0.77 0.9107 0.7051 0.0
C750 C 0.88413 0.30072 0.06264 0.0
C751 C 0.88375 0.32445 0.13538 0.0
H752 H 0.88526 0.2529 0.0532 0.0
C753 C 0.88351 0.31578 0.2629 0.0
H754 H 0.88446 0.30588 0.9646 0.0
C755 C 0.88343 0.28482 0.3147 0.0
C756 C 0.88425 0.26114 0.24135 0.0
H757 H 0.88324 0.33299 0.32325 0.0
H758 H 0.88322 0.27947 0.41266 0.0
C759 C 0.88466 0.26996 0.11417 0.0
C760 C 0.26602 0.40759 0.21569 0.0
C761 C 0.29144 0.40696 0.26203 0.0
H762 H 0.22539 0.40533 0.25456 0.0
C763 C 0.29476 0.40376 0.38898 0.0
H764 H 0.26262 0.40962 0.1188 0.0
C765 C 0.27332 0.40132 0.46707 0.0
C766 C 0.24793 0.40205 0.42066 0.0
H767 H 0.31391 0.40374 0.42855 0.0
H768 H 0.27668 0.39929 0.56402 0.0
C769 C 0.24458 0.40522 0.29382 0.0
C770 C 0.38664 0.77968 0.79542 0.0
C771 C 0.38644 0.75605 0.72176 0.0
H772 H 0.38767 0.8277 0.80517 0.0
C773 C 0.38646 0.76488 0.59464 0.0
H774 H 0.38673 0.77428 0.89339 0.0
C775 C 0.38642 0.79575 0.54366 0.0
C776 C 0.38698 0.81939 0.61712 0.0
H777 H 0.38628 0.74779 0.53369 0.0
H778 H 0.38631 0.80108 0.44567 0.0
C779 C 0.38723 0.81059 0.74435 0.0
C780 C 0.77514 0.66319 0.37318 0.0
C781 C 0.75 0.66405 0.42158 0.0
H782 H 0.81592 0.66309 0.40711 0.0
C783 C 0.74721 0.66345 0.54799 0.0
H784 H 0.77803 0.66325 0.27656 0.0
C785 C 0.769 0.6631 0.6233 0.0
C786 C 0.79416 0.66324 0.57436 0.0
H787 H 0.72821 0.66429 0.58863 0.0
H788 H 0.76612 0.66311 0.71989 0.0
C789 C 0.79693 0.66275 0.44849 0.0
C790 C 0.70245 0.28748 0.5875 0.0
C791 C 0.67911 0.28416 0.5254 0.0
H792 H 0.72041 0.2967 0.75364 0.0
C793 C 0.65558 0.28655 0.58731 0.0
H794 H 0.72082 0.28527 0.54231 0.0
C795 C 0.65537 0.29211 0.70831 0.0
C796 C 0.67867 0.29572 0.77029 0.0
H797 H 0.63729 0.28334 0.54316 0.0
H798 H 0.63689 0.2944 0.75235 0.0
C799 C 0.70223 0.29356 0.70835 0.0
C800 C 0.39291 0.16041 0.64523 0.0
C801 C 0.41653 0.15946 0.58167 0.0
H802 H 0.37381 0.16118 0.81714 0.0
C803 C 0.43962 0.15845 0.65003 0.0
H804 H 0.37467 0.1612 0.59666 0.0
C805 C 0.43911 0.15839 0.77718 0.0
C806 C 0.4155 0.15937 0.84071 0.0
H807 H 0.45822 0.1577 0.60529 0.0
H808 H 0.45735 0.15761 0.82577 0.0
C809 C 0.39241 0.1604 0.77236 0.0
C810 C 0.17711 0.64174 0.39817 0.0
C811 C 0.17735 0.66972 0.44488 0.0
H812 H 0.17758 0.61823 0.24058 0.0
C813 C 0.17834 0.69612 0.36055 0.0
H814 H 0.1764 0.62082 0.45938 0.0
C815 C 0.17904 0.69457 0.23433 0.0
C816 C 0.17882 0.66657 0.18768 0.0
H817 H 0.17861 0.7181 0.39193 0.0
H818 H 0.17973 0.71549 0.17311 0.0
C819 C 0.17784 0.64019 0.27201 0.0
C820 C 0.65534 0.90488 0.50353 0.0
C821 C 0.63222 0.90699 0.43543 0.0
H822 H 0.67324 0.90327 0.67909 0.0
C823 C 0.60875 0.9093 0.49906 0.0
H824 H 0.67382 0.90308 0.45869 0.0
C825 C 0.60839 0.90948 0.62603 0.0
C826 C 0.63149 0.90728 0.69418 0.0
H827 H 0.59048 0.911 0.4507 0.0
H828 H 0.58991 0.91128 0.67083 0.0
C829 C 0.65498 0.90498 0.6306 0.0
C830 C 0.96296 0.39575 0.40847 0.0
C831 C 0.95982 0.4274 0.39189 0.0
H832 H 0.94015 0.35692 0.47854 0.0
C833 C 0.95867 0.43953 0.50152 0.0
H834 H 0.97066 0.38455 0.33522 0.0
C835 C 0.94137 0.42511 0.58624 0.0
C836 C 0.93134 0.39657 0.56663 0.0
H837 H 0.9628 0.46318 0.5043 0.0
H838 H 0.93375 0.43757 0.65576 0.0
C839 C 0.94531 0.3799 0.48906 0.0
C840 C 0.43584 0.41567 0.54672 0.0
C841 C 0.41231 0.41432 0.48296 0.0
H842 H 0.45476 0.41659 0.71886 0.0
C843 C 0.38917 0.41283 0.5511 0.0
H844 H 0.45411 0.4168 0.49829 0.0
C845 C 0.38955 0.41273 0.67828 0.0
C846 C 0.41308 0.41405 0.74208 0.0
H847 H 0.37064 0.41174 0.50613 0.0
H848 H 0.37128 0.41159 0.72668 0.0
C849 C 0.43622 0.41552 0.67391 0.0
C850 C 0.32214 0.62875 0.34373 0.0
C851 C 0.31757 0.66026 0.32737 0.0
H852 H 0.35454 0.59783 0.38031 0.0
C853 C 0.32308 0.67343 0.43187 0.0
H854 H 0.31258 0.61452 0.28548 0.0
C855 C 0.3478 0.66675 0.47859 0.0
C856 C 0.36079 0.64071 0.44858 0.0
H857 H 0.31461 0.695 0.44434 0.0
H858 H 0.35745 0.6829 0.52786 0.0
C859 C 0.34639 0.6195 0.39366 0.0
C860 C 0.65206 0.66774 0.84043 0.0
C861 C 0.62871 0.66685 0.9067 0.0
H862 H 0.67048 0.6682 0.66644 0.0
C863 C 0.60536 0.66553 0.84141 0.0
H864 H 0.67046 0.66874 0.88665 0.0
C865 C 0.60536 0.66512 0.71453 0.0
C866 C 0.62871 0.66609 0.64821 0.0
H867 H 0.58694 0.66477 0.88843 0.0
H868 H 0.58696 0.66412 0.66832 0.0
C869 C 0.65206 0.66742 0.71349 0.0
C870 C 0.67381 0.43806 0.53031 0.0
C871 C 0.67492 0.41177 0.61497 0.0
H872 H 0.6725 0.45727 0.34273 0.0
C873 C 0.67558 0.38371 0.5687 0.0
H874 H 0.67322 0.46006 0.56141 0.0
C875 C 0.67518 0.38203 0.44254 0.0
C876 C 0.67405 0.40836 0.35787 0.0
H877 H 0.67641 0.36284 0.63018 0.0
H878 H 0.67576 0.36003 0.41148 0.0
C879 C 0.67335 0.43639 0.4042 0.0
C880 C 0.93938 0.66145 0.15026 0.0
C881 C 0.91633 0.66308 0.08144 0.0
H882 H 0.95703 0.66018 0.32631 0.0
C883 C 0.89272 0.66476 0.1445 0.0
H884 H 0.95796 0.66012 0.10591 0.0
C885 C 0.89218 0.66486 0.27158 0.0
C886 C 0.91523 0.66321 0.34037 0.0
H887 H 0.87452 0.66606 0.09556 0.0
H888 H 0.8736 0.6662 0.31596 0.0
C889 C 0.93883 0.66148 0.27736 0.0
C890 C 0.67891 0.14187 0.76563 0.0
C891 C 0.67956 0.16823 0.68116 0.0
H892 H 0.67773 0.12254 0.9531 0.0
C893 C 0.67944 0.19626 0.72765 0.0
H894 H 0.6789 0.11989 0.73435 0.0
C895 C 0.67875 0.19785 0.85384 0.0
C896 C 0.67811 0.17146 0.93832 0.0
H897 H 0.67987 0.21717 0.66632 0.0
H898 H 0.67875 0.21984 0.88509 0.0
C899 C 0.67818 0.14346 0.89178 0.0
C900 C 0.15049 0.40376 0.14134 0.0
C901 C 0.12696 0.40624 0.20443 0.0
H902 H 0.16947 0.40165 0.96989 0.0
C903 C 0.10392 0.40855 0.13582 0.0
H904 H 0.16871 0.40195 0.19019 0.0
C905 C 0.10439 0.40829 1.00889 0.0
C906 C 0.12791 0.4058 0.94576 0.0
H907 H 0.08542 0.41047 0.18024 0.0
H908 H 0.08617 0.41007 0.96014 0.0
C909 C 0.15096 0.40358 1.01432 0.0
C910 C 0.43126 0.91442 0.07498 0.0
C911 C 0.42128 0.88678 0.04433 0.0
H912 H 0.45933 0.94891 1.0304 0.0
C913 C 0.43747 0.86889 0.98108 0.0
H914 H 0.42033 0.92825 0.13 0.0
C915 C 0.45957 0.88276 0.9244 0.0
C916 C 0.45944 0.9147 0.91018 0.0
H917 H 0.43178 0.84644 0.96495 0.0
H918 H 0.47001 0.87091 0.86033 0.0
C919 C 0.45383 0.92611 1.01842 0.0
C920 C 0.93996 0.91923 0.16258 0.0
C921 C 0.91685 0.91768 0.23095 0.0
H922 H 0.95777 0.92076 0.9867 0.0
C923 C 0.89329 0.91649 0.16725 0.0
H924 H 0.95852 0.92022 0.20743 0.0
C925 C 0.89285 0.91678 0.03998 0.0
C926 C 0.91597 0.91835 0.97163 0.0
H927 H 0.87504 0.91531 0.21581 0.0
H928 H 0.8743 0.91577 0.9951 0.0
C929 C 0.93952 0.91958 1.03528 0.0
C930 C 0.89334 0.0793 0.98751 0.0
C931 C 0.91811 0.09267 0.97382 0.0
H932 H 0.85404 0.0906 0.93318 0.0
C933 C 0.92686 0.098 0.85393 0.0
H934 H 0.88715 0.06895 0.07645 0.0
C935 C 0.90859 0.10967 0.76805 0.0
C936 C 0.88235 0.11131 0.8041 0.0
H937 H 0.94711 0.10278 0.83462 0.0
H938 H 0.91546 0.12163 0.68322 0.0
C939 C 0.87422 0.09197 0.90661 0.0
C940 C 0.1056 0.16227 0.21437 0.0
C941 C 0.12865 0.16523 0.14587 0.0
H942 H 0.08772 0.16013 0.39013 0.0
C943 C 0.15205 0.1683 0.20911 0.0
H944 H 0.08719 0.15985 0.16982 0.0
C945 C 0.15238 0.16843 0.33615 0.0
C946 C 0.12933 0.16553 0.40461 0.0
H947 H 0.17027 0.17062 0.16035 0.0
H948 H 0.17079 0.17084 0.3807 0.0
C949 C 0.10593 0.16244 0.34138 0.0
C950 C 0.17878 0.88042 0.94596 0.0
C951 C 0.17807 0.90679 0.86137 0.0
H952 H 0.1798 0.86116 0.13357 0.0
C953 C 0.17792 0.93481 0.90778 0.0
H954 H 0.17894 0.85841 0.91482 0.0
C955 C 0.1785 0.93644 1.03391 0.0
C956 C 0.17921 0.9101 0.1185 0.0
H957 H 0.1774 0.95571 0.84637 0.0
H958 H 0.17833 0.95843 0.06509 0.0
C959 C 0.17931 0.88205 0.07214 0.0
loop_
_geom_bond_atom_site_label_1
_geom_bond_atom_site_label_2
_geom_bond_distance
_geom_bond_site_symmetry_2
_ccdc_geom_bond_type
Co0 N5 2.057 . S
Co0 O17 2.021 . S
Co0 O20 2.062 1_554 S
Co0 O24 2.117 . S
Co0 O25 2.020 . S
C1 O21 1.259 . S
C1 O24 1.258 . S
Co2 N11 2.057 . S
Co2 O18 2.117 . S
Co2 O19 2.020 1_554 S
Co2 O21 2.021 . S
Co2 O26 2.062 . S
C3 N5 1.316 . S
C3 N6 1.347 . S
C3 H8 0.931 . S
C4 N5 1.375 . S
C4 C7 1.350 . S
C4 H9 0.930 . S
N5 Co0 2.057 . S
N5 C3 1.316 . S
N5 C4 1.375 . S
N6 C3 1.347 . S
N6 C7 1.373 . S
C7 C4 1.350 . S
C7 N6 1.373 . S
C7 H28 0.931 . S
H8 C3 0.931 . S
H9 C4 0.930 . S
C10 O17 1.259 . S
C10 O18 1.258 . S
N11 Co2 2.057 . S
N11 C12 1.316 . S
N11 C13 1.375 . S
C12 N11 1.316 . S
C12 N14 1.347 . S
C12 H23 0.931 . S
C13 N11 1.375 . S
C13 C15 1.350 . S
C13 H22 0.930 . S
N14 C12 1.347 . S
N14 C15 1.373 . S
C15 C13 1.350 . S
C15 N14 1.373 . S
C15 H29 0.931 . S
C16 O19 1.256 . S
C16 O20 1.255 . S
O17 Co0 2.021 . S
O17 C10 1.259 . S
O18 Co2 2.117 . S
O18 C10 1.258 . S
O19 Co2 2.020 1_556 S
O19 C16 1.256 . S
O20 Co0 2.062 1_556 S
O20 C16 1.255 . S
O21 C1 1.259 . S
O21 Co2 2.021 . S
H22 C13 0.930 . S
H23 C12 0.931 . S
O24 Co0 2.117 . S
O24 C1 1.258 . S
O25 Co0 2.020 . S
O25 C27 1.256 . S
O26 Co2 2.062 . S
O26 C27 1.255 . S
C27 O25 1.256 . S
C27 O26 1.255 . S
H28 C7 0.931 . S
H29 C15 0.931 . S
Co30 N35 2.057 . S
Co30 O47 2.021 . S
Co30 O50 2.062 . S
Co30 O54 2.117 . S
Co30 O55 2.020 1_556 S
C31 O51 1.259 . S
C31 O54 1.258 . S
Co32 N41 2.057 . S
Co32 O48 2.117 . S
Co32 O49 2.020 . S
Co32 O51 2.021 . S
Co32 O56 2.062 1_556 S
C33 N35 1.316 . S
C33 N36 1.347 . S
C33 H38 0.931 . S
C34 N35 1.375 . S
C34 C37 1.350 . S
C34 H39 0.930 . S
N35 Co30 2.057 . S
N35 C33 1.316 . S
N35 C34 1.375 . S
N36 C33 1.347 . S
N36 C37 1.373 . S
C37 C34 1.350 . S
C37 N36 1.373 . S
C37 H58 0.931 . S
H38 C33 0.931 . S
H39 C34 0.930 . S
C40 O47 1.259 . S
C40 O48 1.258 . S
N41 Co32 2.057 . S
N41 C42 1.316 . S
N41 C43 1.375 . S
C42 N41 1.316 . S
C42 N44 1.347 . S
C42 H53 0.931 . S
C43 N41 1.375 . S
C43 C45 1.350 . S
C43 H52 0.930 . S
N44 C42 1.347 . S
N44 C45 1.373 . S
C45 C43 1.350 . S
C45 N44 1.373 . S
C45 H59 0.931 . S
C46 O49 1.256 . S
C46 O50 1.255 . S
O47 Co30 2.021 . S
O47 C40 1.259 . S
O48 Co32 2.117 . S
O48 C40 1.258 . S
O49 Co32 2.020 . S
O49 C46 1.256 . S
O50 Co30 2.062 . S
O50 C46 1.255 . S
O51 C31 1.259 . S
O51 Co32 2.021 . S
H52 C43 0.930 . S
H53 C42 0.931 . S
O54 Co30 2.117 . S
O54 C31 1.258 . S
O55 Co30 2.020 1_554 S
O55 C57 1.256 . S
O56 Co32 2.062 1_554 S
O56 C57 1.255 . S
C57 O55 1.256 . S
C57 O56 1.255 . S
H58 C37 0.931 . S
H59 C45 0.931 . S
Co60 N65 2.057 . S
Co60 O77 2.021 . S
Co60 O80 2.062 1_554 S
Co60 O84 2.117 . S
Co60 O85 2.020 . S
C61 O81 1.259 . S
C61 O84 1.258 . S
Co62 N71 2.057 . S
Co62 O78 2.117 . S
Co62 O79 2.020 1_554 S
Co62 O81 2.021 . S
Co62 O86 2.062 . S
C63 N65 1.316 . S
C63 N66 1.347 . S
C63 H68 0.931 . S
C64 N65 1.375 . S
C64 C67 1.350 . S
C64 H69 0.930 . S
N65 Co60 2.057 . S
N65 C63 1.316 . S
N65 C64 1.375 . S
N66 C63 1.347 . S
N66 C67 1.373 . S
C67 C64 1.350 . S
C67 N66 1.373 . S
C67 H88 0.931 . S
H68 C63 0.931 . S
H69 C64 0.930 . S
C70 O77 1.259 . S
C70 O78 1.258 . S
N71 Co62 2.057 . S
N71 C72 1.316 . S
N71 C73 1.375 . S
C72 N71 1.316 . S
C72 N74 1.347 . S
C72 H83 0.931 . S
C73 N71 1.375 . S
C73 C75 1.350 . S
C73 H82 0.930 . S
N74 C72 1.347 . S
N74 C75 1.373 . S
C75 C73 1.350 . S
C75 N74 1.373 . S
C75 H89 0.931 . S
C76 O79 1.256 . S
C76 O80 1.255 . S
O77 Co60 2.021 . S
O77 C70 1.259 . S
O78 Co62 2.117 . S
O78 C70 1.258 . S
O79 Co62 2.020 1_556 S
O79 C76 1.256 . S
O80 Co60 2.062 1_556 S
O80 C76 1.255 . S
O81 C61 1.259 . S
O81 Co62 2.021 . S
H82 C73 0.930 . S
H83 C72 0.931 . S
O84 Co60 2.117 . S
O84 C61 1.258 . S
O85 Co60 2.020 . S
O85 C87 1.256 . S
O86 Co62 2.062 . S
O86 C87 1.255 . S
C87 O85 1.256 . S
C87 O86 1.255 . S
H88 C67 0.931 . S
H89 C75 0.931 . S
Co90 N95 2.057 . S
Co90 O107 2.021 . S
Co90 O110 2.062 . S
Co90 O114 2.117 1_554 S
Co90 O115 2.020 1_554 S
C91 O111 1.259 . S
C91 O114 1.258 . S
Co92 N101 2.057 . S
Co92 O108 2.117 . S
Co92 O109 2.020 . S
Co92 O111 2.021 . S
Co92 O116 2.062 . S
C93 N95 1.316 . S
C93 N96 1.347 . S
C93 H98 0.931 . S
C94 N95 1.375 . S
C94 C97 1.350 . S
C94 H99 0.930 . S
N95 Co90 2.057 . S
N95 C93 1.316 . S
N95 C94 1.375 . S
N96 C93 1.347 . S
N96 C97 1.373 . S
C97 C94 1.350 . S
C97 N96 1.373 . S
C97 H118 0.931 . S
H98 C93 0.931 . S
H99 C94 0.930 . S
C100 O107 1.259 1_556 S
C100 O108 1.258 . S
N101 Co92 2.057 . S
N101 C102 1.316 . S
N101 C103 1.375 . S
C102 N101 1.316 . S
C102 N104 1.347 . S
C102 H113 0.931 . S
C103 N101 1.375 . S
C103 C105 1.350 . S
C103 H112 0.930 . S
N104 C102 1.347 . S
N104 C105 1.373 . S
C105 C103 1.350 . S
C105 N104 1.373 . S
C105 H119 0.931 . S
C106 O109 1.256 . S
C106 O110 1.255 1_556 S
O107 Co90 2.021 . S
O107 C100 1.259 1_554 S
O108 Co92 2.117 . S
O108 C100 1.258 . S
O109 Co92 2.020 . S
O109 C106 1.256 . S
O110 Co90 2.062 . S
O110 C106 1.255 1_554 S
O111 C91 1.259 . S
O111 Co92 2.021 . S
H112 C103 0.930 . S
H113 C102 0.931 . S
O114 Co90 2.117 1_556 S
O114 C91 1.258 . S
O115 Co90 2.020 1_556 S
O115 C117 1.256 . S
O116 Co92 2.062 . S
O116 C117 1.255 . S
C117 O115 1.256 . S
C117 O116 1.255 . S
H118 C97 0.931 . S
H119 C105 0.931 . S
Co120 N125 2.057 . S
Co120 O137 2.021 . S
Co120 O140 2.062 . S
Co120 O144 2.117 . S
Co120 O145 2.020 1_554 S
C121 O141 1.259 . S
C121 O144 1.258 . S
Co122 N131 2.057 . S
Co122 O138 2.117 . S
Co122 O139 2.020 . S
Co122 O141 2.021 . S
Co122 O146 2.062 1_554 S
C123 N125 1.316 . S
C123 N126 1.347 . S
C123 H128 0.931 . S
C124 N125 1.375 . S
C124 C127 1.350 . S
C124 H129 0.930 . S
N125 Co120 2.057 . S
N125 C123 1.316 . S
N125 C124 1.375 . S
N126 C123 1.347 . S
N126 C127 1.373 . S
C127 C124 1.350 . S
C127 N126 1.373 . S
C127 H148 0.931 . S
H128 C123 0.931 . S
H129 C124 0.930 . S
C130 O137 1.259 . S
C130 O138 1.258 . S
N131 Co122 2.057 . S
N131 C132 1.316 . S
N131 C133 1.375 . S
C132 N131 1.316 . S
C132 N134 1.347 . S
C132 H143 0.931 . S
C133 N131 1.375 . S
C133 C135 1.350 . S
C133 H142 0.930 . S
N134 C132 1.347 . S
N134 C135 1.373 . S
C135 C133 1.350 . S
C135 N134 1.373 . S
C135 H149 0.931 . S
C136 O139 1.256 . S
C136 O140 1.255 . S
O137 Co120 2.021 . S
O137 C130 1.259 . S
O138 Co122 2.117 . S
O138 C130 1.258 . S
O139 Co122 2.020 . S
O139 C136 1.256 . S
O140 Co120 2.062 . S
O140 C136 1.255 . S
O141 C121 1.259 . S
O141 Co122 2.021 . S
H142 C133 0.930 . S
H143 C132 0.931 . S
O144 Co120 2.117 . S
O144 C121 1.258 . S
O145 Co120 2.020 1_556 S
O145 C147 1.256 . S
O146 Co122 2.062 1_556 S
O146 C147 1.255 . S
C147 O145 1.256 . S
C147 O146 1.255 . S
H148 C127 0.931 . S
H149 C135 0.931 . S
Co150 N155 2.057 . S
Co150 O167 2.021 . S
Co150 O170 2.062 . S
Co150 O174 2.117 . S
Co150 O175 2.020 . S
C151 O171 1.259 . S
C151 O174 1.258 . S
Co152 N161 2.057 1_556 S
Co152 O168 2.117 . S
Co152 O169 2.020 . S
Co152 O171 2.021 . S
Co152 O176 2.062 . S
C153 N155 1.316 . S
C153 N156 1.347 . S
C153 H158 0.931 . S
C154 N155 1.375 . S
C154 C157 1.350 . S
C154 H159 0.930 . S
N155 Co150 2.057 . S
N155 C153 1.316 . S
N155 C154 1.375 . S
N156 C153 1.347 . S
N156 C157 1.373 . S
C157 C154 1.350 . S
C157 N156 1.373 . S
C157 H178 0.931 . S
H158 C153 0.931 . S
H159 C154 0.930 . S
C160 O167 1.259 . S
C160 O168 1.258 . S
N161 Co152 2.057 1_554 S
N161 C162 1.316 . S
N161 C163 1.375 . S
C162 N161 1.316 . S
C162 N164 1.347 . S
C162 H173 0.931 . S
C163 N161 1.375 . S
C163 C165 1.350 . S
C163 H172 0.930 . S
N164 C162 1.347 . S
N164 C165 1.373 . S
C165 C163 1.350 . S
C165 N164 1.373 . S
C165 H179 0.931 . S
C166 O169 1.256 . S
C166 O170 1.255 . S
O167 Co150 2.021 . S
O167 C160 1.259 . S
O168 Co152 2.117 . S
O168 C160 1.258 . S
O169 Co152 2.020 . S
O169 C166 1.256 . S
O170 Co150 2.062 . S
O170 C166 1.255 . S
O171 C151 1.259 . S
O171 Co152 2.021 . S
H172 C163 0.930 . S
H173 C162 0.931 . S
O174 Co150 2.117 . S
O174 C151 1.258 . S
O175 Co150 2.020 . S
O175 C177 1.256 . S
O176 Co152 2.062 . S
O176 C177 1.255 . S
C177 O175 1.256 . S
C177 O176 1.255 . S
H178 C157 0.931 . S
H179 C165 0.931 . S
Co180 N185 2.057 . S
Co180 O197 2.021 . S
Co180 O200 2.062 . S
Co180 O204 2.117 . S
Co180 O205 2.020 1_554 S
C181 O201 1.259 . S
C181 O204 1.258 . S
Co182 N191 2.057 . S
Co182 O198 2.117 . S
Co182 O199 2.020 . S
Co182 O201 2.021 . S
Co182 O206 2.062 1_554 S
C183 N185 1.316 . S
C183 N186 1.347 . S
C183 H188 0.931 . S
C184 N185 1.375 . S
C184 C187 1.350 . S
C184 H189 0.930 . S
N185 Co180 2.057 . S
N185 C183 1.316 . S
N185 C184 1.375 . S
N186 C183 1.347 . S
N186 C187 1.373 . S
C187 C184 1.350 . S
C187 N186 1.373 . S
C187 H208 0.931 . S
H188 C183 0.931 . S
H189 C184 0.930 . S
C190 O197 1.259 . S
C190 O198 1.258 . S
N191 Co182 2.057 . S
N191 C192 1.316 . S
N191 C193 1.375 . S
C192 N191 1.316 . S
C192 N194 1.347 . S
C192 H203 0.931 . S
C193 N191 1.375 . S
C193 C195 1.350 . S
C193 H202 0.930 . S
N194 C192 1.347 . S
N194 C195 1.373 . S
C195 C193 1.350 . S
C195 N194 1.373 . S
C195 H209 0.931 . S
C196 O199 1.256 . S
C196 O200 1.255 . S
O197 Co180 2.021 . S
O197 C190 1.259 . S
O198 Co182 2.117 . S
O198 C190 1.258 . S
O199 Co182 2.020 . S
O199 C196 1.256 . S
O200 Co180 2.062 . S
O200 C196 1.255 . S
O201 C181 1.259 . S
O201 Co182 2.021 . S
H202 C193 0.930 . S
H203 C192 0.931 . S
O204 Co180 2.117 . S
O204 C181 1.258 . S
O205 Co180 2.020 1_556 S
O205 C207 1.256 . S
O206 Co182 2.062 1_556 S
O206 C207 1.255 . S
C207 O205 1.256 . S
C207 O206 1.255 . S
H208 C187 0.931 . S
H209 C195 0.931 . S
Co210 N215 2.057 . S
Co210 O227 2.021 . S
Co210 O230 2.062 1_556 S
Co210 O234 2.117 . S
Co210 O235 2.020 . S
C211 O231 1.259 . S
C211 O234 1.258 . S
Co212 N221 2.057 . S
Co212 O228 2.117 . S
Co212 O229 2.020 1_556 S
Co212 O231 2.021 . S
Co212 O236 2.062 . S
C213 N215 1.316 . S
C213 N216 1.347 . S
C213 H218 0.931 . S
C214 N215 1.375 . S
C214 C217 1.350 . S
C214 H219 0.930 . S
N215 Co210 2.057 . S
N215 C213 1.316 . S
N215 C214 1.375 . S
N216 C213 1.347 . S
N216 C217 1.373 . S
C217 C214 1.350 . S
C217 N216 1.373 . S
C217 H238 0.931 . S
H218 C213 0.931 . S
H219 C214 0.930 . S
C220 O227 1.259 . S
C220 O228 1.258 . S
N221 Co212 2.057 . S
N221 C222 1.316 . S
N221 C223 1.375 . S
C222 N221 1.316 . S
C222 N224 1.347 . S
C222 H233 0.931 . S
C223 N221 1.375 . S
C223 C225 1.350 . S
C223 H232 0.930 . S
N224 C222 1.347 . S
N224 C225 1.373 . S
C225 C223 1.350 . S
C225 N224 1.373 . S
C225 H239 0.931 . S
C226 O229 1.256 . S
C226 O230 1.255 . S
O227 Co210 2.021 . S
O227 C220 1.259 . S
O228 Co212 2.117 . S
O228 C220 1.258 . S
O229 Co212 2.020 1_554 S
O229 C226 1.256 . S
O230 Co210 2.062 1_554 S
O230 C226 1.255 . S
O231 C211 1.259 . S
O231 Co212 2.021 . S
H232 C223 0.930 . S
H233 C222 0.931 . S
O234 Co210 2.117 . S
O234 C211 1.258 . S
O235 Co210 2.020 . S
O235 C237 1.256 . S
O236 Co212 2.062 . S
O236 C237 1.255 . S
C237 O235 1.256 . S
C237 O236 1.255 . S
H238 C217 0.931 . S
H239 C225 0.931 . S
Co240 N245 2.057 . S
Co240 O257 2.021 . S
Co240 O260 2.062 . S
Co240 O264 2.117 . S
Co240 O265 2.020 . S
C241 O261 1.259 . S
C241 O264 1.258 . S
Co242 N251 2.057 . S
Co242 O258 2.117 . S
Co242 O259 2.020 . S
Co242 O261 2.021 . S
Co242 O266 2.062 . S
C243 N245 1.316 . S
C243 N246 1.347 . S
C243 H248 0.931 . S
C244 N245 1.375 . S
C244 C247 1.350 . S
C244 H249 0.930 . S
N245 Co240 2.057 . S
N245 C243 1.316 . S
N245 C244 1.375 . S
N246 C243 1.347 . S
N246 C247 1.373 . S
C247 C244 1.350 . S
C247 N246 1.373 . S
C247 H268 0.931 . S
H248 C243 0.931 . S
H249 C244 0.930 . S
C250 O257 1.259 . S
C250 O258 1.258 . S
N251 Co242 2.057 . S
N251 C252 1.316 . S
N251 C253 1.375 . S
C252 N251 1.316 . S
C252 N254 1.347 . S
C252 H263 0.931 . S
C253 N251 1.375 . S
C253 C255 1.350 . S
C253 H262 0.930 . S
N254 C252 1.347 . S
N254 C255 1.373 . S
C255 C253 1.350 . S
C255 N254 1.373 . S
C255 H269 0.931 1_655 S
C256 O259 1.256 . S
C256 O260 1.255 . S
O257 Co240 2.021 . S
O257 C250 1.259 . S
O258 Co242 2.117 . S
O258 C250 1.258 . S
O259 Co242 2.020 . S
O259 C256 1.256 . S
O260 Co240 2.062 . S
O260 C256 1.255 . S
O261 C241 1.259 . S
O261 Co242 2.021 . S
H262 C253 0.930 . S
H263 C252 0.931 . S
O264 Co240 2.117 . S
O264 C241 1.258 . S
O265 Co240 2.020 . S
O265 C267 1.256 . S
O266 Co242 2.062 . S
O266 C267 1.255 . S
C267 O265 1.256 . S
C267 O266 1.255 . S
H268 C247 0.931 . S
H269 C255 0.931 1_455 S
Co270 N275 2.057 . S
Co270 O287 2.021 . S
Co270 O290 2.062 . S
Co270 O294 2.117 . S
Co270 O295 2.020 . S
C271 O291 1.259 . S
C271 O294 1.258 . S
Co272 N281 2.057 . S
Co272 O288 2.117 . S
Co272 O289 2.020 . S
Co272 O291 2.021 . S
Co272 O296 2.062 . S
C273 N275 1.316 . S
C273 N276 1.347 1_545 S
C273 H278 0.931 . S
C274 N275 1.375 . S
C274 C277 1.350 1_545 S
C274 H279 0.930 . S
N275 Co270 2.057 . S
N275 C273 1.316 . S
N275 C274 1.375 . S
N276 C273 1.347 1_565 S
N276 C277 1.373 . S
C277 C274 1.350 1_565 S
C277 N276 1.373 . S
C277 H298 0.931 . S
H278 C273 0.931 . S
H279 C274 0.930 . S
C280 O287 1.259 . S
C280 O288 1.258 . S
N281 Co272 2.057 . S
N281 C282 1.316 . S
N281 C283 1.375 . S
C282 N281 1.316 . S
C282 N284 1.347 . S
C282 H293 0.931 . S
C283 N281 1.375 . S
C283 C285 1.350 . S
C283 H292 0.930 . S
N284 C282 1.347 . S
N284 C285 1.373 . S
C285 C283 1.350 . S
C285 N284 1.373 . S
C285 H299 0.931 . S
C286 O289 1.256 . S
C286 O290 1.255 . S
O287 Co270 2.021 . S
O287 C280 1.259 . S
O288 Co272 2.117 . S
O288 C280 1.258 . S
O289 Co272 2.020 . S
O289 C286 1.256 . S
O290 Co270 2.062 . S
O290 C286 1.255 . S
O291 C271 1.259 . S
O291 Co272 2.021 . S
H292 C283 0.930 . S
H293 C282 0.931 . S
O294 Co270 2.117 . S
O294 C271 1.258 . S
O295 Co270 2.020 . S
O295 C297 1.256 . S
O296 Co272 2.062 . S
O296 C297 1.255 . S
C297 O295 1.256 . S
C297 O296 1.255 . S
H298 C277 0.931 . S
H299 C285 0.931 . S
Co300 N305 2.057 . S
Co300 O317 2.021 . S
Co300 O320 2.062 . S
Co300 O324 2.117 . S
Co300 O325 2.020 . S
C301 O321 1.259 . S
C301 O324 1.258 . S
Co302 N311 2.057 . S
Co302 O318 2.117 . S
Co302 O319 2.020 . S
Co302 O321 2.021 . S
Co302 O326 2.062 . S
C303 N305 1.316 . S
C303 N306 1.347 . S
C303 H308 0.931 . S
C304 N305 1.375 . S
C304 C307 1.350 . S
C304 H309 0.930 . S
N305 Co300 2.057 . S
N305 C303 1.316 . S
N305 C304 1.375 . S
N306 C303 1.347 . S
N306 C307 1.373 . S
C307 C304 1.350 . S
C307 N306 1.373 . S
C307 H328 0.931 . S
H308 C303 0.931 . S
H309 C304 0.930 . S
C310 O317 1.259 . S
C310 O318 1.258 . S
N311 Co302 2.057 . S
N311 C312 1.316 . S
N311 C313 1.375 . S
C312 N311 1.316 . S
C312 N314 1.347 . S
C312 H323 0.931 . S
C313 N311 1.375 . S
C313 C315 1.350 . S
C313 H322 0.930 . S
N314 C312 1.347 . S
N314 C315 1.373 . S
C315 C313 1.350 . S
C315 N314 1.373 . S
C315 H329 0.931 . S
C316 O319 1.256 . S
C316 O320 1.255 . S
O317 Co300 2.021 . S
O317 C310 1.259 . S
O318 Co302 2.117 . S
O318 C310 1.258 . S
O319 Co302 2.020 . S
O319 C316 1.256 . S
O320 Co300 2.062 . S
O320 C316 1.255 . S
O321 C301 1.259 . S
O321 Co302 2.021 . S
H322 C313 0.930 . S
H323 C312 0.931 . S
O324 Co300 2.117 . S
O324 C301 1.258 . S
O325 Co300 2.020 . S
O325 C327 1.256 . S
O326 Co302 2.062 . S
O326 C327 1.255 . S
C327 O325 1.256 . S
C327 O326 1.255 . S
H328 C307 0.931 . S
H329 C315 0.931 . S
Co330 N335 2.057 . S
Co330 O347 2.021 . S
Co330 O350 2.062 . S
Co330 O354 2.117 . S
Co330 O355 2.020 . S
C331 O351 1.259 . S
C331 O354 1.258 . S
Co332 N341 2.057 . S
Co332 O348 2.117 . S
Co332 O349 2.020 . S
Co332 O351 2.021 . S
Co332 O356 2.062 . S
C333 N335 1.316 . S
C333 N336 1.347 . S
C333 H338 0.931 . S
C334 N335 1.375 . S
C334 C337 1.350 . S
C334 H339 0.930 . S
N335 Co330 2.057 . S
N335 C333 1.316 . S
N335 C334 1.375 . S
N336 C333 1.347 . S
N336 C337 1.373 . S
C337 C334 1.350 . S
C337 N336 1.373 . S
C337 H358 0.931 . S
H338 C333 0.931 . S
H339 C334 0.930 . S
C340 O347 1.259 . S
C340 O348 1.258 . S
N341 Co332 2.057 . S
N341 C342 1.316 . S
N341 C343 1.375 . S
C342 N341 1.316 . S
C342 N344 1.347 1_554 S
C342 H353 0.931 . S
C343 N341 1.375 . S
C343 C345 1.350 1_554 S
C343 H352 0.930 . S
N344 C342 1.347 1_556 S
N344 C345 1.373 . S
C345 C343 1.350 1_556 S
C345 N344 1.373 . S
C345 H359 0.931 . S
C346 O349 1.256 . S
C346 O350 1.255 . S
O347 Co330 2.021 . S
O347 C340 1.259 . S
O348 Co332 2.117 . S
O348 C340 1.258 . S
O349 Co332 2.020 . S
O349 C346 1.256 . S
O350 Co330 2.062 . S
O350 C346 1.255 . S
O351 C331 1.259 . S
O351 Co332 2.021 . S
H352 C343 0.930 . S
H353 C342 0.931 . S
O354 Co330 2.117 . S
O354 C331 1.258 . S
O355 Co330 2.020 . S
O355 C357 1.256 . S
O356 Co332 2.062 . S
O356 C357 1.255 . S
C357 O355 1.256 . S
C357 O356 1.255 . S
H358 C337 0.931 . S
H359 C345 0.931 . S
Co360 N365 2.057 . S
Co360 O377 2.021 . S
Co360 O380 2.062 . S
Co360 O384 2.117 . S
Co360 O385 2.020 . S
C361 O381 1.259 . S
C361 O384 1.258 . S
Co362 N371 2.057 . S
Co362 O378 2.117 . S
Co362 O379 2.020 . S
Co362 O381 2.021 . S
Co362 O386 2.062 . S
C363 N365 1.316 . S
C363 N366 1.347 . S
C363 H368 0.931 . S
C364 N365 1.375 . S
C364 C367 1.350 . S
C364 H369 0.930 . S
N365 Co360 2.057 . S
N365 C363 1.316 . S
N365 C364 1.375 . S
N366 C363 1.347 . S
N366 C367 1.373 . S
C367 C364 1.350 . S
C367 N366 1.373 . S
C367 H388 0.931 . S
H368 C363 0.931 . S
H369 C364 0.930 . S
C370 O377 1.259 . S
C370 O378 1.258 . S
N371 Co362 2.057 . S
N371 C372 1.316 . S
N371 C373 1.375 . S
C372 N371 1.316 . S
C372 N374 1.347 . S
C372 H383 0.931 . S
C373 N371 1.375 . S
C373 C375 1.350 . S
C373 H382 0.930 . S
N374 C372 1.347 . S
N374 C375 1.373 . S
C375 C373 1.350 . S
C375 N374 1.373 . S
C375 H389 0.931 1_655 S
C376 O379 1.256 . S
C376 O380 1.255 . S
O377 Co360 2.021 . S
O377 C370 1.259 . S
O378 Co362 2.117 . S
O378 C370 1.258 . S
O379 Co362 2.020 . S
O379 C376 1.256 . S
O380 Co360 2.062 . S
O380 C376 1.255 . S
O381 C361 1.259 . S
O381 Co362 2.021 . S
H382 C373 0.930 . S
H383 C372 0.931 . S
O384 Co360 2.117 . S
O384 C361 1.258 . S
O385 Co360 2.020 . S
O385 C387 1.256 . S
O386 Co362 2.062 . S
O386 C387 1.255 . S
C387 O385 1.256 . S
C387 O386 1.255 . S
H388 C367 0.931 . S
H389 C375 0.931 1_455 S
Co390 N395 2.057 . S
Co390 O407 2.021 . S
Co390 O410 2.062 . S
Co390 O414 2.117 . S
Co390 O415 2.020 . S
C391 O411 1.259 . S
C391 O414 1.258 . S
Co392 N401 2.057 . S
Co392 O408 2.117 . S
Co392 O409 2.020 . S
Co392 O411 2.021 . S
Co392 O416 2.062 . S
C393 N395 1.316 1_556 S
C393 N396 1.347 . S
C393 H398 0.931 . S
C394 N395 1.375 . S
C394 C397 1.350 1_554 S
C394 H399 0.930 . S
N395 Co390 2.057 . S
N395 C393 1.316 1_554 S
N395 C394 1.375 . S
N396 C393 1.347 . S
N396 C397 1.373 . S
C397 C394 1.350 1_556 S
C397 N396 1.373 . S
C397 H418 0.931 . S
H398 C393 0.931 . S
H399 C394 0.930 . S
C400 O407 1.259 . S
C400 O408 1.258 . S
N401 Co392 2.057 . S
N401 C402 1.316 . S
N401 C403 1.375 . S
C402 N401 1.316 . S
C402 N404 1.347 . S
C402 H413 0.931 . S
C403 N401 1.375 . S
C403 C405 1.350 . S
C403 H412 0.930 . S
N404 C402 1.347 . S
N404 C405 1.373 . S
C405 C403 1.350 . S
C405 N404 1.373 . S
C405 H419 0.931 . S
C406 O409 1.256 . S
C406 O410 1.255 . S
O407 Co390 2.021 . S
O407 C400 1.259 . S
O408 Co392 2.117 . S
O408 C400 1.258 . S
O409 Co392 2.020 . S
O409 C406 1.256 . S
O410 Co390 2.062 . S
O410 C406 1.255 . S
O411 C391 1.259 . S
O411 Co392 2.021 . S
H412 C403 0.930 . S
H413 C402 0.931 . S
O414 Co390 2.117 . S
O414 C391 1.258 . S
O415 Co390 2.020 . S
O415 C417 1.256 . S
O416 Co392 2.062 . S
O416 C417 1.255 . S
C417 O415 1.256 . S
C417 O416 1.255 . S
H418 C397 0.931 . S
H419 C405 0.931 . S
Co420 N425 2.057 . S
Co420 O437 2.021 . S
Co420 O440 2.062 . S
Co420 O444 2.117 . S
Co420 O445 2.020 . S
C421 O441 1.259 . S
C421 O444 1.258 . S
Co422 N431 2.057 . S
Co422 O438 2.117 . S
Co422 O439 2.020 . S
Co422 O441 2.021 . S
Co422 O446 2.062 . S
C423 N425 1.316 . S
C423 N426 1.347 . S
C423 H428 0.931 . S
C424 N425 1.375 . S
C424 C427 1.350 . S
C424 H429 0.930 . S
N425 Co420 2.057 . S
N425 C423 1.316 . S
N425 C424 1.375 . S
N426 C423 1.347 . S
N426 C427 1.373 . S
C427 C424 1.350 . S
C427 N426 1.373 . S
C427 H448 0.931 . S
H428 C423 0.931 . S
H429 C424 0.930 . S
C430 O437 1.259 . S
C430 O438 1.258 . S
N431 Co422 2.057 . S
N431 C432 1.316 . S
N431 C433 1.375 . S
C432 N431 1.316 . S
C432 N434 1.347 . S
C432 H443 0.931 . S
C433 N431 1.375 . S
C433 C435 1.350 . S
C433 H442 0.930 . S
N434 C432 1.347 . S
N434 C435 1.373 . S
C435 C433 1.350 . S
C435 N434 1.373 . S
C435 H449 0.931 . S
C436 O439 1.256 . S
C436 O440 1.255 . S
O437 Co420 2.021 . S
O437 C430 1.259 . S
O438 Co422 2.117 . S
O438 C430 1.258 . S
O439 Co422 2.020 . S
O439 C436 1.256 . S
O440 Co420 2.062 . S
O440 C436 1.255 . S
O441 C421 1.259 . S
O441 Co422 2.021 . S
H442 C433 0.930 . S
H443 C432 0.931 . S
O444 Co420 2.117 . S
O444 C421 1.258 . S
O445 Co420 2.020 . S
O445 C447 1.256 . S
O446 Co422 2.062 . S
O446 C447 1.255 . S
C447 O445 1.256 . S
C447 O446 1.255 . S
H448 C427 0.931 . S
H449 C435 0.931 . S
Co450 N455 2.057 . S
Co450 O467 2.021 . S
Co450 O470 2.062 . S
Co450 O474 2.117 . S
Co450 O475 2.020 . S
C451 O471 1.259 . S
C451 O474 1.258 . S
Co452 N461 2.057 . S
Co452 O468 2.117 . S
Co452 O469 2.020 . S
Co452 O471 2.021 . S
Co452 O476 2.062 . S
C453 N455 1.316 . S
C453 N456 1.347 1_565 S
C453 H458 0.931 . S
C454 N455 1.375 . S
C454 C457 1.350 1_565 S
C454 H459 0.930 . S
N455 Co450 2.057 . S
N455 C453 1.316 . S
N455 C454 1.375 . S
N456 C453 1.347 1_545 S
N456 C457 1.373 . S
C457 C454 1.350 1_545 S
C457 N456 1.373 . S
C457 H478 0.931 . S
H458 C453 0.931 . S
H459 C454 0.930 . S
C460 O467 1.259 . S
C460 O468 1.258 . S
N461 Co452 2.057 . S
N461 C462 1.316 . S
N461 C463 1.375 . S
C462 N461 1.316 . S
C462 N464 1.347 . S
C462 H473 0.931 . S
C463 N461 1.375 . S
C463 C465 1.350 . S
C463 H472 0.930 . S
N464 C462 1.347 . S
N464 C465 1.373 . S
C465 C463 1.350 . S
C465 N464 1.373 . S
C465 H479 0.931 . S
C466 O469 1.256 . S
C466 O470 1.255 . S
O467 Co450 2.021 . S
O467 C460 1.259 . S
O468 Co452 2.117 . S
O468 C460 1.258 . S
O469 Co452 2.020 . S
O469 C466 1.256 . S
O470 Co450 2.062 . S
O470 C466 1.255 . S
O471 C451 1.259 . S
O471 Co452 2.021 . S
H472 C463 0.930 . S
H473 C462 0.931 . S
O474 Co450 2.117 . S
O474 C451 1.258 . S
O475 Co450 2.020 . S
O475 C477 1.256 . S
O476 Co452 2.062 . S
O476 C477 1.255 . S
C477 O475 1.256 . S
C477 O476 1.255 . S
H478 C457 0.931 . S
H479 C465 0.931 . S
C480 C481 1.387 . S
C480 H484 0.950 . S
C480 C489 1.390 1_565 S
C481 C480 1.387 . S
C481 C483 1.387 . S
H482 C489 0.950 . S
C483 C481 1.387 . S
C483 C485 1.390 1_565 S
C483 H487 0.950 . S
H484 C480 0.950 . S
C485 C483 1.390 1_545 S
C485 C486 1.387 . S
C485 H488 0.950 . S
C486 C485 1.387 . S
C486 C489 1.387 . S
H487 C483 0.950 . S
H488 C485 0.950 . S
C489 C480 1.390 1_545 S
C489 H482 0.950 . S
C489 C486 1.387 . S
C490 C491 1.387 . S
C490 H494 0.950 . S
C490 C499 1.390 . S
C491 C490 1.387 . S
C491 C493 1.387 . S
H492 C499 0.950 . S
C493 C491 1.387 . S
C493 C495 1.390 . S
C493 H497 0.950 . S
H494 C490 0.950 . S
C495 C493 1.390 . S
C495 C496 1.387 . S
C495 H498 0.950 . S
C496 C495 1.387 . S
C496 C499 1.387 . S
H497 C493 0.950 . S
H498 C495 0.950 . S
C499 C490 1.390 . S
C499 H492 0.950 . S
C499 C496 1.387 . S
C500 C501 1.387 . S
C500 H504 0.950 . S
C500 C509 1.390 . S
C501 C500 1.387 . S
C501 C503 1.387 . S
H502 C509 0.950 . S
C503 C501 1.387 . S
C503 C505 1.390 . S
C503 H507 0.950 . S
H504 C500 0.950 . S
C505 C503 1.390 . S
C505 C506 1.387 . S
C505 H508 0.950 . S
C506 C505 1.387 . S
C506 C509 1.387 . S
H507 C503 0.950 . S
H508 C505 0.950 . S
C509 C500 1.390 . S
C509 H502 0.950 . S
C509 C506 1.387 . S
C510 C511 1.387 . S
C510 H514 0.950 . S
C510 C519 1.390 . S
C511 C510 1.387 . S
C511 C513 1.387 . S
H512 C519 0.950 . S
C513 C511 1.387 . S
C513 C515 1.390 . S
C513 H517 0.950 . S
H514 C510 0.950 . S
C515 C513 1.390 . S
C515 C516 1.387 . S
C515 H518 0.950 . S
C516 C515 1.387 . S
C516 C519 1.387 . S
H517 C513 0.950 . S
H518 C515 0.950 . S
C519 C510 1.390 . S
C519 H512 0.950 . S
C519 C516 1.387 . S
C520 C521 1.387 . S
C520 H524 0.950 . S
C520 C529 1.390 1_554 S
C521 C520 1.387 . S
C521 C523 1.387 . S
H522 C529 0.950 . S
C523 C521 1.387 . S
C523 C525 1.390 1_554 S
C523 H527 0.950 . S
H524 C520 0.950 . S
C525 C523 1.390 1_556 S
C525 C526 1.387 . S
C525 H528 0.950 . S
C526 C525 1.387 . S
C526 C529 1.387 . S
H527 C523 0.950 . S
H528 C525 0.950 . S
C529 C520 1.390 1_556 S
C529 H522 0.950 . S
C529 C526 1.387 . S
C530 C531 1.387 1_554 S
C530 H534 0.950 . S
C530 C539 1.390 1_554 S
C531 C530 1.387 1_556 S
C531 C533 1.387 . S
H532 C539 0.950 . S
C533 C531 1.387 . S
C533 C535 1.390 . S
C533 H537 0.950 . S
H534 C530 0.950 . S
C535 C533 1.390 . S
C535 C536 1.387 . S
C535 H538 0.950 . S
C536 C535 1.387 . S
C536 C539 1.387 . S
H537 C533 0.950 . S
H538 C535 0.950 . S
C539 C530 1.390 1_556 S
C539 H532 0.950 . S
C539 C536 1.387 . S
C540 C541 1.387 . S
C540 H544 0.950 . S
C540 C549 1.390 . S
C541 C540 1.387 . S
C541 C543 1.387 1_554 S
H542 C549 0.950 . S
C543 C541 1.387 1_556 S
C543 C545 1.390 . S
C543 H547 0.950 . S
H544 C540 0.950 . S
C545 C543 1.390 . S
C545 C546 1.387 . S
C545 H548 0.950 . S
C546 C545 1.387 . S
C546 C549 1.387 1_556 S
H547 C543 0.950 . S
H548 C545 0.950 . S
C549 C540 1.390 . S
C549 H542 0.950 . S
C549 C546 1.387 1_554 S
C550 C551 1.387 . S
C550 H554 0.950 . S
C550 C559 1.390 . S
C551 C550 1.387 . S
C551 C553 1.387 1_556 S
H552 C559 0.950 . S
C553 C551 1.387 1_554 S
C553 C555 1.390 1_554 S
C553 H557 0.950 . S
H554 C550 0.950 . S
C555 C553 1.390 1_556 S
C555 C556 1.387 . S
C555 H558 0.950 . S
C556 C555 1.387 . S
C556 C559 1.387 . S
H557 C553 0.950 . S
H558 C555 0.950 . S
C559 C550 1.390 . S
C559 H552 0.950 . S
C559 C556 1.387 . S
C560 C561 1.387 . S
C560 H564 0.950 . S
C560 C569 1.390 . S
C561 C560 1.387 . S
C561 C563 1.387 . S
H562 C569 0.950 . S
C563 C561 1.387 . S
C563 C565 1.390 . S
C563 H567 0.950 . S
H564 C560 0.950 . S
C565 C563 1.390 . S
C565 C566 1.387 . S
C565 H568 0.950 . S
C566 C565 1.387 . S
C566 C569 1.387 . S
H567 C563 0.950 . S
H568 C565 0.950 . S
C569 C560 1.390 . S
C569 H562 0.950 . S
C569 C566 1.387 . S
C570 C571 1.387 . S
C570 H574 0.950 . S
C570 C579 1.390 . S
C571 C570 1.387 . S
C571 C573 1.387 . S
H572 C579 0.950 . S
C573 C571 1.387 . S
C573 C575 1.390 . S
C573 H577 0.950 . S
H574 C570 0.950 . S
C575 C573 1.390 . S
C575 C576 1.387 . S
C575 H578 0.950 . S
C576 C575 1.387 . S
C576 C579 1.387 . S
H577 C573 0.950 . S
H578 C575 0.950 . S
C579 C570 1.390 . S
C579 H572 0.950 . S
C579 C576 1.387 . S
C580 C581 1.387 . S
C580 H584 0.950 . S
C580 C589 1.390 . S
C581 C580 1.387 . S
C581 C583 1.387 . S
H582 C589 0.950 . S
C583 C581 1.387 . S
C583 C585 1.390 . S
C583 H587 0.950 . S
H584 C580 0.950 . S
C585 C583 1.390 . S
C585 C586 1.387 . S
C585 H588 0.950 . S
C586 C585 1.387 . S
C586 C589 1.387 . S
H587 C583 0.950 . S
H588 C585 0.950 . S
C589 C580 1.390 . S
C589 H582 0.950 . S
C589 C586 1.387 . S
C590 C591 1.387 . S
C590 H594 0.950 . S
C590 C599 1.390 . S
C591 C590 1.387 . S
C591 C593 1.387 . S
H592 C599 0.950 . S
C593 C591 1.387 . S
C593 C595 1.390 . S
C593 H597 0.950 . S
H594 C590 0.950 . S
C595 C593 1.390 . S
C595 C596 1.387 . S
C595 H598 0.950 . S
C596 C595 1.387 . S
C596 C599 1.387 . S
H597 C593 0.950 . S
H598 C595 0.950 . S
C599 C590 1.390 . S
C599 H592 0.950 . S
C599 C596 1.387 . S
C600 C601 1.387 . S
C600 H604 0.950 . S
C600 C609 1.390 1_565 S
C601 C600 1.387 . S
C601 C603 1.387 . S
H602 C609 0.950 . S
C603 C601 1.387 . S
C603 C605 1.390 1_565 S
C603 H607 0.950 . S
H604 C600 0.950 . S
C605 C603 1.390 1_545 S
C605 C606 1.387 . S
C605 H608 0.950 . S
C606 C605 1.387 . S
C606 C609 1.387 . S
H607 C603 0.950 . S
H608 C605 0.950 . S
C609 C600 1.390 1_545 S
C609 H602 0.950 . S
C609 C606 1.387 . S
C610 C611 1.387 . S
C610 H614 0.950 . S
C610 C619 1.390 . S
C611 C610 1.387 . S
C611 C613 1.387 . S
H612 C619 0.950 . S
C613 C611 1.387 . S
C613 C615 1.390 . S
C613 H617 0.950 . S
H614 C610 0.950 . S
C615 C613 1.390 . S
C615 C616 1.387 . S
C615 H618 0.950 . S
C616 C615 1.387 . S
C616 C619 1.387 . S
H617 C613 0.950 . S
H618 C615 0.950 . S
C619 C610 1.390 . S
C619 H612 0.950 . S
C619 C616 1.387 . S
C620 C621 1.387 . S
C620 H624 0.950 . S
C620 C629 1.390 . S
C621 C620 1.387 . S
C621 C623 1.387 . S
H622 C629 0.950 . S
C623 C621 1.387 . S
C623 C625 1.390 . S
C623 H627 0.950 . S
H624 C620 0.950 . S
C625 C623 1.390 . S
C625 C626 1.387 . S
C625 H628 0.950 . S
C626 C625 1.387 . S
C626 C629 1.387 . S
H627 C623 0.950 . S
H628 C625 0.950 . S
C629 C620 1.390 . S
C629 H622 0.950 . S
C629 C626 1.387 . S
C630 C631 1.387 . S
C630 H634 0.950 . S
C630 C639 1.390 . S
C631 C630 1.387 . S
C631 C633 1.387 . S
H632 C639 0.950 . S
C633 C631 1.387 . S
C633 C635 1.390 . S
C633 H637 0.950 . S
H634 C630 0.950 . S
C635 C633 1.390 . S
C635 C636 1.387 . S
C635 H638 0.950 . S
C636 C635 1.387 . S
C636 C639 1.387 . S
H637 C633 0.950 . S
H638 C635 0.950 . S
C639 C630 1.390 . S
C639 H632 0.950 . S
C639 C636 1.387 . S
C640 C641 1.387 . S
C640 H644 0.950 . S
C640 C649 1.390 . S
C641 C640 1.387 . S
C641 C643 1.387 . S
H642 C649 0.950 . S
C643 C641 1.387 . S
C643 C645 1.390 . S
C643 H647 0.950 . S
H644 C640 0.950 . S
C645 C643 1.390 . S
C645 C646 1.387 . S
C645 H648 0.950 . S
C646 C645 1.387 . S
C646 C649 1.387 . S
H647 C643 0.950 . S
H648 C645 0.950 . S
C649 C640 1.390 . S
C649 H642 0.950 . S
C649 C646 1.387 . S
C650 C651 1.387 . S
C650 H654 0.950 . S
C650 C659 1.390 . S
C651 C650 1.387 . S
C651 C653 1.387 . S
H652 C659 0.950 . S
C653 C651 1.387 . S
C653 C655 1.390 . S
C653 H657 0.950 1_556 S
H654 C650 0.950 . S
C655 C653 1.390 . S
C655 C656 1.387 . S
C655 H658 0.950 1_556 S
C656 C655 1.387 . S
C656 C659 1.387 . S
H657 C653 0.950 1_554 S
H658 C655 0.950 1_554 S
C659 C650 1.390 . S
C659 H652 0.950 . S
C659 C656 1.387 . S
C660 C661 1.387 . S
C660 H664 0.950 . S
C660 C669 1.390 . S
C661 C660 1.387 . S
C661 C663 1.387 . S
H662 C669 0.950 . S
C663 C661 1.387 . S
C663 C665 1.390 . S
C663 H667 0.950 . S
H664 C660 0.950 . S
C665 C663 1.390 . S
C665 C666 1.387 . S
C665 H668 0.950 . S
C666 C665 1.387 . S
C666 C669 1.387 . S
H667 C663 0.950 . S
H668 C665 0.950 . S
C669 C660 1.390 . S
C669 H662 0.950 . S
C669 C666 1.387 . S
C670 C671 1.387 . S
C670 H674 0.950 1_556 S
C670 C679 1.390 . S
C671 C670 1.387 . S
C671 C673 1.387 . S
H672 C679 0.950 1_554 S
C673 C671 1.387 . S
C673 C675 1.390 . S
C673 H677 0.950 . S
H674 C670 0.950 1_554 S
C675 C673 1.390 . S
C675 C676 1.387 . S
C675 H678 0.950 . S
C676 C675 1.387 . S
C676 C679 1.387 . S
H677 C673 0.950 . S
H678 C675 0.950 . S
C679 C670 1.390 . S
C679 H672 0.950 1_556 S
C679 C676 1.387 . S
C680 C681 1.387 . S
C680 H684 0.950 . S
C680 C689 1.390 . S
C681 C680 1.387 . S
C681 C683 1.387 . S
H682 C689 0.950 . S
C683 C681 1.387 . S
C683 C685 1.390 . S
C683 H687 0.950 . S
H684 C680 0.950 . S
C685 C683 1.390 . S
C685 C686 1.387 . S
C685 H688 0.950 . S
C686 C685 1.387 . S
C686 C689 1.387 . S
H687 C683 0.950 . S
H688 C685 0.950 . S
C689 C680 1.390 . S
C689 H682 0.950 . S
C689 C686 1.387 . S
C690 C691 1.387 . S
C690 H694 0.950 . S
C690 C699 1.390 . S
C691 C690 1.387 . S
C691 C693 1.387 . S
H692 C699 0.950 . S
C693 C691 1.387 . S
C693 C695 1.390 . S
C693 H697 0.950 . S
H694 C690 0.950 . S
C695 C693 1.390 . S
C695 C696 1.387 . S
C695 H698 0.950 . S
C696 C695 1.387 . S
C696 C699 1.387 . S
H697 C693 0.950 . S
H698 C695 0.950 . S
C699 C690 1.390 . S
C699 H692 0.950 . S
C699 C696 1.387 . S
C700 C701 1.387 . S
C700 H704 0.950 . S
C700 C709 1.390 . S
C701 C700 1.387 . S
C701 C703 1.387 . S
H702 C709 0.950 . S
C703 C701 1.387 . S
C703 C705 1.390 . S
C703 H707 0.950 . S
H704 C700 0.950 . S
C705 C703 1.390 . S
C705 C706 1.387 . S
C705 H708 0.950 . S
C706 C705 1.387 . S
C706 C709 1.387 . S
H707 C703 0.950 . S
H708 C705 0.950 . S
C709 C700 1.390 . S
C709 H702 0.950 . S
C709 C706 1.387 . S
C710 C711 1.387 . S
C710 H714 0.950 . S
C710 C719 1.390 . S
C711 C710 1.387 . S
C711 C713 1.387 . S
H712 C719 0.950 . S
C713 C711 1.387 . S
C713 C715 1.390 . S
C713 H717 0.950 . S
H714 C710 0.950 . S
C715 C713 1.390 . S
C715 C716 1.387 . S
C715 H718 0.950 . S
C716 C715 1.387 . S
C716 C719 1.387 . S
H717 C713 0.950 . S
H718 C715 0.950 . S
C719 C710 1.390 . S
C719 H712 0.950 . S
C719 C716 1.387 . S
C720 C721 1.387 . S
C720 H724 0.950 . S
C720 C729 1.390 . S
C721 C720 1.387 . S
C721 C723 1.387 . S
H722 C729 0.950 . S
C723 C721 1.387 . S
C723 C725 1.390 . S
C723 H727 0.950 . S
H724 C720 0.950 . S
C725 C723 1.390 . S
C725 C726 1.387 . S
C725 H728 0.950 . S
C726 C725 1.387 . S
C726 C729 1.387 . S
H727 C723 0.950 . S
H728 C725 0.950 . S
C729 C720 1.390 . S
C729 H722 0.950 . S
C729 C726 1.387 . S
C730 C731 1.387 . S
C730 H734 0.950 . S
C730 C739 1.390 . S
C731 C730 1.387 . S
C731 C733 1.387 . S
H732 C739 0.950 . S
C733 C731 1.387 . S
C733 C735 1.390 . S
C733 H737 0.950 . S
H734 C730 0.950 . S
C735 C733 1.390 . S
C735 C736 1.387 . S
C735 H738 0.950 . S
C736 C735 1.387 . S
C736 C739 1.387 . S
H737 C733 0.950 . S
H738 C735 0.950 . S
C739 C730 1.390 . S
C739 H732 0.950 . S
C739 C736 1.387 . S
C740 C741 1.387 . S
C740 H744 0.950 . S
C740 C749 1.390 . S
C741 C740 1.387 . S
C741 C743 1.387 . S
H742 C749 0.950 . S
C743 C741 1.387 . S
C743 C745 1.390 . S
C743 H747 0.950 . S
H744 C740 0.950 . S
C745 C743 1.390 . S
C745 C746 1.387 . S
C745 H748 0.950 . S
C746 C745 1.387 . S
C746 C749 1.387 . S
H747 C743 0.950 . S
H748 C745 0.950 . S
C749 C740 1.390 . S
C749 H742 0.950 . S
C749 C746 1.387 . S
C750 C751 1.387 . S
C750 H754 0.950 . S
C750 C759 1.390 . S
C751 C750 1.387 . S
C751 C753 1.387 . S
H752 C759 0.950 . S
C753 C751 1.387 . S
C753 C755 1.390 . S
C753 H757 0.950 . S
H754 C750 0.950 . S
C755 C753 1.390 . S
C755 C756 1.387 . S
C755 H758 0.950 . S
C756 C755 1.387 . S
C756 C759 1.387 . S
H757 C753 0.950 . S
H758 C755 0.950 . S
C759 C750 1.390 . S
C759 H752 0.950 . S
C759 C756 1.387 . S
C760 C761 1.387 . S
C760 H764 0.950 . S
C760 C769 1.390 . S
C761 C760 1.387 . S
C761 C763 1.387 . S
H762 C769 0.950 . S
C763 C761 1.387 . S
C763 C765 1.390 . S
C763 H767 0.950 . S
H764 C760 0.950 . S
C765 C763 1.390 . S
C765 C766 1.387 . S
C765 H768 0.950 . S
C766 C765 1.387 . S
C766 C769 1.387 . S
H767 C763 0.950 . S
H768 C765 0.950 . S
C769 C760 1.390 . S
C769 H762 0.950 . S
C769 C766 1.387 . S
C770 C771 1.387 . S
C770 H774 0.950 . S
C770 C779 1.390 . S
C771 C770 1.387 . S
C771 C773 1.387 . S
H772 C779 0.950 . S
C773 C771 1.387 . S
C773 C775 1.390 . S
C773 H777 0.950 . S
H774 C770 0.950 . S
C775 C773 1.390 . S
C775 C776 1.387 . S
C775 H778 0.950 . S
C776 C775 1.387 . S
C776 C779 1.387 . S
H777 C773 0.950 . S
H778 C775 0.950 . S
C779 C770 1.390 . S
C779 H772 0.950 . S
C779 C776 1.387 . S
C780 C781 1.387 . S
C780 H784 0.950 . S
C780 C789 1.390 . S
C781 C780 1.387 . S
C781 C783 1.387 . S
H782 C789 0.950 . S
C783 C781 1.387 . S
C783 C785 1.390 . S
C783 H787 0.950 . S
H784 C780 0.950 . S
C785 C783 1.390 . S
C785 C786 1.387 . S
C785 H788 0.950 . S
C786 C785 1.387 . S
C786 C789 1.387 . S
H787 C783 0.950 . S
H788 C785 0.950 . S
C789 C780 1.390 . S
C789 H782 0.950 . S
C789 C786 1.387 . S
C790 C791 1.387 . S
C790 H794 0.950 . S
C790 C799 1.390 . S
C791 C790 1.387 . S
C791 C793 1.387 . S
H792 C799 0.950 . S
C793 C791 1.387 . S
C793 C795 1.390 . S
C793 H797 0.950 . S
H794 C790 0.950 . S
C795 C793 1.390 . S
C795 C796 1.387 . S
C795 H798 0.950 . S
C796 C795 1.387 . S
C796 C799 1.387 . S
H797 C793 0.950 . S
H798 C795 0.950 . S
C799 C790 1.390 . S
C799 H792 0.950 . S
C799 C796 1.387 . S
C800 C801 1.387 . S
C800 H804 0.950 . S
C800 C809 1.390 . S
C801 C800 1.387 . S
C801 C803 1.387 . S
H802 C809 0.950 . S
C803 C801 1.387 . S
C803 C805 1.390 . S
C803 H807 0.950 . S
H804 C800 0.950 . S
C805 C803 1.390 . S
C805 C806 1.387 . S
C805 H808 0.950 . S
C806 C805 1.387 . S
C806 C809 1.387 . S
H807 C803 0.950 . S
H808 C805 0.950 . S
C809 C800 1.390 . S
C809 H802 0.950 . S
C809 C806 1.387 . S
C810 C811 1.387 . S
C810 H814 0.950 . S
C810 C819 1.390 . S
C811 C810 1.387 . S
C811 C813 1.387 . S
H812 C819 0.950 . S
C813 C811 1.387 . S
C813 C815 1.390 . S
C813 H817 0.950 . S
H814 C810 0.950 . S
C815 C813 1.390 . S
C815 C816 1.387 . S
C815 H818 0.950 . S
C816 C815 1.387 . S
C816 C819 1.387 . S
H817 C813 0.950 . S
H818 C815 0.950 . S
C819 C810 1.390 . S
C819 H812 0.950 . S
C819 C816 1.387 . S
C820 C821 1.387 . S
C820 H824 0.950 . S
C820 C829 1.390 . S
C821 C820 1.387 . S
C821 C823 1.387 . S
H822 C829 0.950 . S
C823 C821 1.387 . S
C823 C825 1.390 . S
C823 H827 0.950 . S
H824 C820 0.950 . S
C825 C823 1.390 . S
C825 C826 1.387 . S
C825 H828 0.950 . S
C826 C825 1.387 . S
C826 C829 1.387 . S
H827 C823 0.950 . S
H828 C825 0.950 . S
C829 C820 1.390 . S
C829 H822 0.950 . S
C829 C826 1.387 . S
C830 C831 1.387 . S
C830 H834 0.950 . S
C830 C839 1.390 . S
C831 C830 1.387 . S
C831 C833 1.387 . S
H832 C839 0.950 . S
C833 C831 1.387 . S
C833 C835 1.390 . S
C833 H837 0.950 . S
H834 C830 0.950 . S
C835 C833 1.390 . S
C835 C836 1.387 . S
C835 H838 0.950 . S
C836 C835 1.387 . S
C836 C839 1.387 . S
H837 C833 0.950 . S
H838 C835 0.950 . S
C839 C830 1.390 . S
C839 H832 0.950 . S
C839 C836 1.387 . S
C840 C841 1.387 . S
C840 H844 0.950 . S
C840 C849 1.390 . S
C841 C840 1.387 . S
C841 C843 1.387 . S
H842 C849 0.950 . S
C843 C841 1.387 . S
C843 C845 1.390 . S
C843 H847 0.950 . S
H844 C840 0.950 . S
C845 C843 1.390 . S
C845 C846 1.387 . S
C845 H848 0.950 . S
C846 C845 1.387 . S
C846 C849 1.387 . S
H847 C843 0.950 . S
H848 C845 0.950 . S
C849 C840 1.390 . S
C849 H842 0.950 . S
C849 C846 1.387 . S
C850 C851 1.387 . S
C850 H854 0.950 . S
C850 C859 1.390 . S
C851 C850 1.387 . S
C851 C853 1.387 . S
H852 C859 0.950 . S
C853 C851 1.387 . S
C853 C855 1.390 . S
C853 H857 0.950 . S
H854 C850 0.950 . S
C855 C853 1.390 . S
C855 C856 1.387 . S
C855 H858 0.950 . S
C856 C855 1.387 . S
C856 C859 1.387 . S
H857 C853 0.950 . S
H858 C855 0.950 . S
C859 C850 1.390 . S
C859 H852 0.950 . S
C859 C856 1.387 . S
C860 C861 1.387 . S
C860 H864 0.950 . S
C860 C869 1.390 . S
C861 C860 1.387 . S
C861 C863 1.387 . S
H862 C869 0.950 . S
C863 C861 1.387 . S
C863 C865 1.390 . S
C863 H867 0.950 . S
H864 C860 0.950 . S
C865 C863 1.390 . S
C865 C866 1.387 . S
C865 H868 0.950 . S
C866 C865 1.387 . S
C866 C869 1.387 . S
H867 C863 0.950 . S
H868 C865 0.950 . S
C869 C860 1.390 . S
C869 H862 0.950 . S
C869 C866 1.387 . S
C870 C871 1.387 . S
C870 H874 0.950 . S
C870 C879 1.390 . S
C871 C870 1.387 . S
C871 C873 1.387 . S
H872 C879 0.950 . S
C873 C871 1.387 . S
C873 C875 1.390 . S
C873 H877 0.950 . S
H874 C870 0.950 . S
C875 C873 1.390 . S
C875 C876 1.387 . S
C875 H878 0.950 . S
C876 C875 1.387 . S
C876 C879 1.387 . S
H877 C873 0.950 . S
H878 C875 0.950 . S
C879 C870 1.390 . S
C879 H872 0.950 . S
C879 C876 1.387 . S
C880 C881 1.387 . S
C880 H884 0.950 . S
C880 C889 1.390 . S
C881 C880 1.387 . S
C881 C883 1.387 . S
H882 C889 0.950 . S
C883 C881 1.387 . S
C883 C885 1.390 . S
C883 H887 0.950 . S
H884 C880 0.950 . S
C885 C883 1.390 . S
C885 C886 1.387 . S
C885 H888 0.950 . S
C886 C885 1.387 . S
C886 C889 1.387 . S
H887 C883 0.950 . S
H888 C885 0.950 . S
C889 C880 1.390 . S
C889 H882 0.950 . S
C889 C886 1.387 . S
C890 C891 1.387 . S
C890 H894 0.950 . S
C890 C899 1.390 . S
C891 C890 1.387 . S
C891 C893 1.387 . S
H892 C899 0.950 . S
C893 C891 1.387 . S
C893 C895 1.390 . S
C893 H897 0.950 . S
H894 C890 0.950 . S
C895 C893 1.390 . S
C895 C896 1.387 . S
C895 H898 0.950 . S
C896 C895 1.387 . S
C896 C899 1.387 . S
H897 C893 0.950 . S
H898 C895 0.950 . S
C899 C890 1.390 . S
C899 H892 0.950 . S
C899 C896 1.387 . S
C900 C901 1.387 . S
C900 H904 0.950 . S
C900 C909 1.390 . S
C901 C900 1.387 . S
C901 C903 1.387 . S
H902 C909 0.950 . S
C903 C901 1.387 . S
C903 C905 1.390 . S
C903 H907 0.950 . S
H904 C900 0.950 . S
C905 C903 1.390 . S
C905 C906 1.387 . S
C905 H908 0.950 . S
C906 C905 1.387 . S
C906 C909 1.387 . S
H907 C903 0.950 . S
H908 C905 0.950 . S
C909 C900 1.390 . S
C909 H902 0.950 . S
C909 C906 1.387 . S
C910 C911 1.387 . S
C910 H914 0.950 . S
C910 C919 1.390 . S
C911 C910 1.387 . S
C911 C913 1.387 . S
H912 C919 0.950 . S
C913 C911 1.387 . S
C913 C915 1.390 . S
C913 H917 0.950 . S
H914 C910 0.950 . S
C915 C913 1.390 . S
C915 C916 1.387 . S
C915 H918 0.950 . S
C916 C915 1.387 . S
C916 C919 1.387 . S
H917 C913 0.950 . S
H918 C915 0.950 . S
C919 C910 1.390 . S
C919 H912 0.950 . S
C919 C916 1.387 . S
C920 C921 1.387 . S
C920 H924 0.950 . S
C920 C929 1.390 . S
C921 C920 1.387 . S
C921 C923 1.387 . S
H922 C929 0.950 . S
C923 C921 1.387 . S
C923 C925 1.390 . S
C923 H927 0.950 . S
H924 C920 0.950 . S
C925 C923 1.390 . S
C925 C926 1.387 1_554 S
C925 H928 0.950 . S
C926 C925 1.387 1_556 S
C926 C929 1.387 1_556 S
H927 C923 0.950 . S
H928 C925 0.950 . S
C929 C920 1.390 . S
C929 H922 0.950 . S
C929 C926 1.387 1_554 S
C930 C931 1.387 . S
C930 H934 0.950 . S
C930 C939 1.390 . S
C931 C930 1.387 . S
C931 C933 1.387 . S
H932 C939 0.950 . S
C933 C931 1.387 . S
C933 C935 1.390 . S
C933 H937 0.950 . S
H934 C930 0.950 . S
C935 C933 1.390 . S
C935 C936 1.387 . S
C935 H938 0.950 1_556 S
C936 C935 1.387 . S
C936 C939 1.387 . S
H937 C933 0.950 . S
H938 C935 0.950 1_554 S
C939 C930 1.390 . S
C939 H932 0.950 . S
C939 C936 1.387 . S
C940 C941 1.387 . S
C940 H944 0.950 . S
C940 C949 1.390 . S
C941 C940 1.387 . S
C941 C943 1.387 . S
H942 C949 0.950 . S
C943 C941 1.387 . S
C943 C945 1.390 . S
C943 H947 0.950 1_554 S
H944 C940 0.950 . S
C945 C943 1.390 . S
C945 C946 1.387 . S
C945 H948 0.950 . S
C946 C945 1.387 . S
C946 C949 1.387 . S
H947 C943 0.950 1_556 S
H948 C945 0.950 . S
C949 C940 1.390 . S
C949 H942 0.950 . S
C949 C946 1.387 . S
C950 C951 1.387 . S
C950 H954 0.950 . S
C950 C959 1.390 . S
C951 C950 1.387 . S
C951 C953 1.387 . S
H952 C959 0.950 1_554 S
C953 C951 1.387 . S
C953 C955 1.390 . S
C953 H957 0.950 . S
H954 C950 0.950 . S
C955 C953 1.390 . S
C955 C956 1.387 . S
C955 H958 0.950 . S
C956 C955 1.387 . S
C956 C959 1.387 . S
H957 C953 0.950 . S
H958 C955 0.950 . S
C959 C950 1.390 . S
C959 H952 0.950 1_556 S
C959 C956 1.387 . S
C481 C357 2.199 . S
C486 C1 2.202 . S
C491 N254 1.482 1_455 S
C496 C40 1.512 . S
C501 C61 1.126 . S
C506 N276 1.152 . S
C511 C91 1.539 . S
C516 N314 1.558 1_655 S
C521 C121 2.202 . S
C526 C177 2.198 . S
C531 N194 1.557 1_556 S
C536 C151 1.540 . S
C541 C181 1.126 . S
C546 N216 1.152 . S
C551 N134 1.480 1_556 S
C556 C220 1.512 . S
C561 C117 2.199 . S
C566 C241 2.202 . S
C571 C280 1.512 . S
C576 N14 1.482 . S
C581 N36 1.152 . S
C586 C301 1.128 . S
C591 N74 1.556 . S
C596 C331 1.541 . S
C601 C361 2.203 . S
C606 C417 2.198 . S
C611 N434 1.556 1_655 S
C616 C391 1.541 . S
C621 N456 1.152 . S
C626 C421 1.128 . S
C631 C460 1.512 . S
C636 N374 1.480 1_455 S
C641 C10 1.998 . S
C646 C130 1.998 . S
C651 C160 1.853 . S
C656 C31 1.824 . S
C661 C70 0.837 . S
C666 C190 0.837 . S
C671 C100 1.853 . S
C676 C211 1.824 . S
C681 C250 1.997 . S
C686 C370 1.997 . S
C691 C400 1.852 . S
C696 C271 1.822 . S
C701 C310 0.838 . S
C706 C430 0.838 . S
C711 C340 1.853 . S
C716 C451 1.824 . S
C721 N426 1.590 . S
C726 N6 1.643 1_556 S
C731 N44 1.466 1_554 S
C736 N464 1.466 . S
C741 N66 1.591 1_556 S
C746 N366 1.644 . S
C751 C106 2.437 1_554 S
C756 C406 2.437 . S
C761 N126 1.644 . S
C766 N306 1.591 . S
C771 C166 2.437 . S
C776 C346 2.437 . S
C781 N186 1.589 . S
C786 N246 1.643 . S
C791 N284 1.463 . S
C796 N224 1.463 . S
C801 C27 1.982 . S
C806 C16 1.982 . S
C811 C46 2.009 . S
C816 C57 2.009 . S
C821 C87 2.005 . S
C826 C76 2.005 . S
C831 N96 1.333 . S
C836 N104 1.333 . S
C841 C136 1.981 . S
C846 C147 1.981 . S
C851 N164 1.338 . S
C856 N156 1.338 . S
C861 C207 2.005 . S
C866 C196 2.005 . S
C871 C237 2.009 . S
C876 C226 2.009 . S
C881 C267 1.981 1_554 S
C886 C256 1.981 . S
C891 C297 2.009 . S
C896 C286 2.009 1_556 S
C901 C316 2.005 . S
C906 C327 2.005 1_554 S
C911 N344 1.338 . S
C916 N336 1.338 . S
C921 C387 1.982 . S
C926 C376 1.982 . S
C931 N396 1.336 . S
C936 N404 1.336 . S
C941 C436 2.004 1_554 S
C946 C447 2.004 . S
C951 C466 2.008 . S
C956 C477 2.008 1_556 S
