# Generated by pormake.
# Topology wht, (6)-cn, num edge types: 1
# Building blocks:
#     Node 0, Type 0, BuildingBlock: OJICUG_clean_sbu_0, # of connection points: 6
#     Node 1, Type 0, BuildingBlock: OJICUG_clean_sbu_0, # of connection points: 6
#     Node 2, Type 0, BuildingBlock: OJICUG_clean_sbu_0, # of connection points: 6
#     Node 3, Type 0, BuildingBlock: OJICUG_clean_sbu_0, # of connection points: 6
#     Node 4, Type 0, BuildingBlock: OJICUG_clean_sbu_0, # of connection points: 6
#     Node 5, Type 0, BuildingBlock: OJICUG_clean_sbu_0, # of connection points: 6
#     Node 6, Type 0, BuildingBlock: OJICUG_clean_sbu_0, # of connection points: 6
#     Node 7, Type 0, BuildingBlock: OJICUG_clean_sbu_0, # of connection points: 6
#     Edge 8, Type (0, 0), BuildingBlock: XIVTED_clean_linker_0, # of connection points: 2
#     Edge 9, Type (0, 0), BuildingBlock: XIVTED_clean_linker_0, # of connection points: 2
#     Edge 10, Type (0, 0), BuildingBlock: XIVTED_clean_linker_0, # of connection points: 2
#     Edge 11, Type (0, 0), BuildingBlock: XIVTED_clean_linker_0, # of connection points: 2
#     Edge 12, Type (0, 0), BuildingBlock: XIVTED_clean_linker_0, # of connection points: 2
#     Edge 13, Type (0, 0), BuildingBlock: XIVTED_clean_linker_0, # of connection points: 2
#     Edge 14, Type (0, 0), BuildingBlock: XIVTED_clean_linker_0, # of connection points: 2
#     Edge 15, Type (0, 0), BuildingBlock: XIVTED_clean_linker_0, # of connection points: 2
#     Edge 16, Type (0, 0), BuildingBlock: XIVTED_clean_linker_0, # of connection points: 2
#     Edge 17, Type (0, 0), BuildingBlock: XIVTED_clean_linker_0, # of connection points: 2
#     Edge 18, Type (0, 0), BuildingBlock: XIVTED_clean_linker_0, # of connection points: 2
#     Edge 19, Type (0, 0), BuildingBlock: XIVTED_clean_linker_0, # of connection points: 2
#     Edge 20, Type (0, 0), BuildingBlock: XIVTED_clean_linker_0, # of connection points: 2
#     Edge 21, Type (0, 0), BuildingBlock: XIVTED_clean_linker_0, # of connection points: 2
#     Edge 22, Type (0, 0), BuildingBlock: XIVTED_clean_linker_0, # of connection points: 2
#     Edge 23, Type (0, 0), BuildingBlock: XIVTED_clean_linker_0, # of connection points: 2
#     Edge 24, Type (0, 0), BuildingBlock: XIVTED_clean_linker_0, # of connection points: 2
#     Edge 25, Type (0, 0), BuildingBlock: XIVTED_clean_linker_0, # of connection points: 2
#     Edge 26, Type (0, 0), BuildingBlock: XIVTED_clean_linker_0, # of connection points: 2
#     Edge 27, Type (0, 0), BuildingBlock: XIVTED_clean_linker_0, # of connection points: 2
#     Edge 28, Type (0, 0), BuildingBlock: XIVTED_clean_linker_0, # of connection points: 2
#     Edge 29, Type (0, 0), BuildingBlock: XIVTED_clean_linker_0, # of connection points: 2
#     Edge 30, Type (0, 0), BuildingBlock: XIVTED_clean_linker_0, # of connection points: 2
#     Edge 31, Type (0, 0), BuildingBlock: XIVTED_clean_linker_0, # of connection points: 2
# Relax obj value: 0.284
# Max RMSD: 0.260
# Mean RMSD: 0.260
data_MOF--net-wht--node1-OJICUG_clean_sbu_0--edge1-XIVTED_clean_linker_0
_symmetry_space_group_name_H-M    P1
_symmetry_Int_Tables_number       1
_symmetry_cell_setting            triclinic
loop_
_symmetry_equiv_pos_as_xyz
'x, y, z'
_cell_length_a     26.823747
_cell_length_b     26.764071
_cell_length_c     50.300885
_cell_angle_alpha  90.02498
_cell_angle_beta   90.047964
_cell_angle_gamma 89.931379
loop_
_atom_site_label
_atom_site_type_symbol
_atom_site_fract_x
_atom_site_fract_y
_atom_site_fract_z
_atom_type_partial_charge
Sc0 Sc 0.05748 0.16348 0.12773 0.0
Sc1 Sc 0.16166 0.24031 0.13549 0.0
Sc2 Sc 0.04501 0.27832 0.16006 0.0
O3 O 0.0883 0.22717 0.14136 0.0
C4 C 0.97449 0.24539 0.11358 0.0
C5 C 0.12665 0.19436 0.07992 0.0
C6 C 0.11777 0.34744 0.1258 0.0
C7 C 0.16554 0.1252 0.14669 0.0
C8 C 0.00112 0.17402 0.18154 0.0
C9 C 0.14221 0.27913 0.19517 0.0
O10 O 0.99004 0.20045 0.11444 0.0
O11 O 0.15958 0.21453 0.09467 0.0
O12 O 0.08248 0.34271 0.14251 0.0
O13 O 0.12139 0.11816 0.13818 0.0
O14 O 0.00078 0.22162 0.18035 0.0
O15 O 0.17097 0.26939 0.17562 0.0
O16 O 0.02585 0.14703 0.16553 0.0
O17 O 0.18429 0.16836 0.14947 0.0
O18 O 0.09488 0.27954 0.19332 0.0
O19 O 0.08643 0.17617 0.08895 0.0
O20 O -0.00644 0.28012 0.12749 0.0
O21 O 0.14712 0.3123 0.11979 0.0
Sc22 Sc 0.17828 0.53803 0.39793 0.0
Sc23 Sc 0.20587 0.66263 0.37975 0.0
Sc24 Sc 0.29807 0.57047 0.37478 0.0
O25 O 0.2274 0.59036 0.38421 0.0
C26 C 0.28021 0.50625 0.42655 0.0
C27 C 0.16002 0.63158 0.43587 0.0
C28 C 0.31777 0.67941 0.39834 0.0
C29 C 0.10734 0.60567 0.36208 0.0
C30 C 0.23378 0.4781 0.3524 0.0
C31 C 0.26805 0.64315 0.32738 0.0
O32 O 0.23316 0.5032 0.42373 0.0
O33 O 0.17634 0.66421 0.41962 0.0
O34 O 0.33206 0.63505 0.39335 0.0
O35 O 0.11593 0.56476 0.37407 0.0
O36 O 0.27359 0.50385 0.35392 0.0
O37 O 0.23345 0.66618 0.33956 0.0
O38 O 0.19553 0.48697 0.36652 0.0
O39 O 0.13633 0.64272 0.36316 0.0
O40 O 0.29417 0.60885 0.33788 0.0
O41 O 0.15773 0.58519 0.43051 0.0
O42 O 0.30804 0.53097 0.41105 0.0
O43 O 0.2734 0.69393 0.39461 0.0
Sc44 Sc 0.94857 0.82723 0.62931 0.0
Sc45 Sc 0.84161 0.76881 0.65189 0.0
Sc46 Sc 0.95806 0.7128 0.66145 0.0
O47 O 0.9162 0.76981 0.6481 0.0
C48 C 0.0147 0.73673 0.60899 0.0
C49 C 0.85746 0.80756 0.59296 0.0
C50 C 0.86416 0.65798 0.63591 0.0
C51 C 0.85636 0.88071 0.65911 0.0
C52 C 0.02181 0.81098 0.67601 0.0
C53 C 0.87902 0.72066 0.70686 0.0
O54 O 0.00702 0.78323 0.61171 0.0
O55 O 0.82907 0.80096 0.61291 0.0
O56 O 0.90526 0.65628 0.64858 0.0
O57 O 0.89314 0.88004 0.64311 0.0
O58 O 0.01511 0.76375 0.67553 0.0
O59 O 0.84496 0.73551 0.69106 0.0
O60 O -0.00478 0.84172 0.66283 0.0
O61 O 0.83981 0.8412 0.66984 0.0
O62 O 0.9243 0.71612 0.69988 0.0
O63 O 0.90443 0.81212 0.59488 0.0
O64 O -0.00566 0.70435 0.62383 0.0
O65 O 0.83836 0.69739 0.63333 0.0
Sc66 Sc 0.692 0.43501 0.8783 0.0
Sc67 Sc 0.74402 0.31868 0.89399 0.0
Sc68 Sc 0.81449 0.42849 0.90306 0.0
O69 O 0.75019 0.39422 0.89201 0.0
C70 C 0.78313 0.49864 0.85542 0.0
C71 C 0.69657 0.34597 0.83743 0.0
C72 C 0.8531 0.3329 0.87083 0.0
C73 C 0.63522 0.34762 0.90992 0.0
C74 C 0.72819 0.49804 0.92757 0.0
C75 C 0.80449 0.34286 0.94695 0.0
O76 O 0.73728 0.48788 0.85732 0.0
O77 O 0.71107 0.31401 0.85455 0.0
O78 O 0.86028 0.37683 0.87994 0.0
O79 O 0.63602 0.38822 0.89678 0.0
O80 O 0.77349 0.48338 0.92644 0.0
O81 O 0.77684 0.31439 0.93311 0.0
O82 O 0.69365 0.4818 0.91254 0.0
O83 O 0.67348 0.32062 0.91297 0.0
O84 O 0.82075 0.38442 0.93849 0.0
O85 O 0.68985 0.39186 0.84271 0.0
O86 O 0.81637 0.47775 0.86949 0.0
O87 O 0.81364 0.3084 0.87514 0.0
Sc88 Sc 0.54692 0.20856 0.5676 0.0
Sc89 Sc 0.66001 0.26462 0.58595 0.0
Sc90 Sc 0.54851 0.31555 0.60618 0.0
O91 O 0.58534 0.2624 0.58622 0.0
C92 C 0.49123 0.31235 0.55312 0.0
C93 C 0.63525 0.22719 0.52697 0.0
C94 C 0.64457 0.37635 0.5877 0.0
C95 C 0.63888 0.14973 0.59365 0.0
C96 C 0.47542 0.22474 0.61501 0.0
C97 C 0.62878 0.28537 0.6466 0.0
O98 O 0.49449 0.26453 0.55196 0.0
O99 O 0.66558 0.24288 0.54459 0.0
O100 O 0.6069 0.37051 0.60259 0.0
O101 O 0.59654 0.14954 0.58201 0.0
O102 O 0.48372 0.27127 0.61452 0.0
O103 O 0.66174 0.28465 0.6282 0.0
O104 O 0.50127 0.19403 0.60172 0.0
O105 O 0.66453 0.18879 0.59753 0.0
O106 O 0.58234 0.28994 0.64201 0.0
O107 O 0.58997 0.21678 0.53195 0.0
O108 O 0.51501 0.33873 0.56999 0.0
O109 O 0.66152 0.34108 0.57365 0.0
Sc110 Sc 0.18546 0.0578 0.84828 0.0
Sc111 Sc 0.24433 0.17095 0.83234 0.0
Sc112 Sc 0.31157 0.05915 0.82854 0.0
O113 O 0.2469 0.09572 0.83634 0.0
C114 C 0.27073 -0.00385 0.87759 0.0
C115 C 0.18728 0.15294 0.88657 0.0
C116 C 0.35124 0.1551 0.85814 0.0
C117 C 0.13459 0.14273 0.81361 0.0
C118 C 0.23008 0.98854 0.80256 0.0
C119 C 0.30573 0.13972 0.78182 0.0
O120 O 0.22624 0.01214 0.87603 0.0
O121 O 0.21588 0.17945 0.87215 0.0
O122 O 0.35423 0.10826 0.85414 0.0
O123 O 0.13504 0.09827 0.8225 0.0
O124 O 0.27385 0.00685 0.8028 0.0
O125 O 0.27248 0.16712 0.79241 0.0
O126 O 0.19522 0.00254 0.81798 0.0
O127 O 0.17113 0.17207 0.81633 0.0
O128 O 0.32612 0.10328 0.79384 0.0
O129 O 0.17173 0.10984 0.87984 0.0
O130 O 0.30472 0.00947 0.86161 0.0
O131 O 0.31663 0.18171 0.84854 0.0
Sc132 Sc 0.4525 0.77524 0.07098 0.0
Sc133 Sc 0.33623 0.71722 0.07933 0.0
Sc134 Sc 0.44489 0.65592 0.09862 0.0
O135 O 0.41123 0.71622 0.08266 0.0
C136 C 0.51558 0.6792 0.05134 0.0
C137 C 0.37042 0.77248 0.02601 0.0
C138 C 0.35048 0.60557 0.0695 0.0
C139 C 0.35875 0.82659 0.09966 0.0
C140 C 0.51274 0.7435 0.12163 0.0
C141 C 0.35506 0.66974 0.13667 0.0
O142 O 0.508 0.72631 0.05283 0.0
O143 O 0.33757 0.75265 0.04085 0.0
O144 O 0.38941 0.60423 0.08394 0.0
O145 O 0.40155 0.82951 0.0887 0.0
O146 O 0.50321 0.6975 0.11822 0.0
O147 O 0.32579 0.68351 0.11811 0.0
O148 O 0.49312 0.77749 0.10754 0.0
O149 O 0.33211 0.78754 0.09875 0.0
O150 O 0.40158 0.66347 0.13352 0.0
O151 O 0.41514 0.77955 0.03342 0.0
O152 O 0.49056 0.64709 0.06436 0.0
O153 O 0.33403 0.6461 0.05988 0.0
Sc154 Sc 0.67847 0.9476 0.32976 0.0
Sc155 Sc 0.70768 0.82484 0.35009 0.0
Sc156 Sc 0.79304 0.92121 0.36053 0.0
O157 O 0.72641 0.89789 0.3466 0.0
C158 C 0.78566 0.97981 0.3066 0.0
C159 C 0.66575 0.8531 0.29237 0.0
C160 C 0.82067 0.81215 0.33742 0.0
C161 C 0.60647 0.8788 0.36492 0.0
C162 C 0.7226 0.01403 0.37575 0.0
C163 C 0.75816 0.8492 0.40603 0.0
O164 O 0.73822 0.98385 0.30748 0.0
O165 O 0.6772 0.82161 0.31033 0.0
O166 O 0.83217 0.85407 0.34775 0.0
O167 O 0.6134 0.91739 0.35051 0.0
O168 O 0.76423 0.99121 0.37589 0.0
O169 O 0.736 0.81934 0.39029 0.0
O170 O 0.6861 0.00011 0.36153 0.0
O171 O 0.63806 0.84388 0.36697 0.0
O172 O 0.77807 0.88985 0.39865 0.0
O173 O 0.66634 0.9 0.2962 0.0
O174 O 0.81076 0.95463 0.32333 0.0
O175 O 0.77605 0.79812 0.33424 0.0
H176 H 0.91933 0.21015 0.20855 0.0
H177 H 0.8755 0.95394 0.28614 0.0
H178 H 0.01034 0.0782 0.19888 0.0
H179 H 0.76152 0.06749 0.28095 0.0
H180 H 0.92751 0.0024 0.25622 0.0
H181 H 0.86386 0.16255 0.238 0.0
C182 C 0.92793 0.17143 0.21282 0.0
C183 C 0.9695 0.14809 0.20122 0.0
C184 C 0.89102 0.01673 0.26141 0.0
C185 C 0.9063 0.09367 0.23456 0.0
C186 C 0.86126 0.98904 0.27851 0.0
C187 C 0.81416 0.0068 0.28607 0.0
C188 C 0.87399 0.063 0.25194 0.0
C189 C 0.79752 0.05238 0.27546 0.0
C190 C 0.89604 0.14423 0.22939 0.0
C191 C 0.97863 0.09772 0.20724 0.0
N192 N 0.82769 0.07928 0.25906 0.0
N193 N 0.94737 0.07232 0.22347 0.0
H194 H 0.36003 0.53747 0.45461 0.0
H195 H 0.41645 0.27398 0.52136 0.0
H196 H 0.25764 0.41403 0.44735 0.0
H197 H 0.48841 0.41224 0.54354 0.0
H198 H 0.3596 0.32168 0.49256 0.0
H199 H 0.40871 0.48969 0.48645 0.0
C200 C 0.34759 0.50031 0.46 0.0
C201 C 0.30498 0.47948 0.44837 0.0
C202 C 0.38777 0.34132 0.5039 0.0
C203 C 0.361 0.42403 0.48451 0.0
C204 C 0.42043 0.31418 0.52013 0.0
C205 C 0.45735 0.33911 0.53484 0.0
C206 C 0.39264 0.39349 0.50227 0.0
C207 C 0.46057 0.39128 0.53266 0.0
C208 C 0.37537 0.473 0.47817 0.0
C209 C 0.29025 0.43134 0.45607 0.0
N210 N 0.42883 0.41656 0.51666 0.0
N211 N 0.3187 0.40478 0.4735 0.0
H212 H 0.071 0.8993 0.66958 0.0
H213 H 0.18336 0.90077 0.81117 0.0
H214 H 0.06693 0.76721 0.71881 0.0
H215 H 0.24555 0.99257 0.74914 0.0
H216 H 0.14383 0.84835 0.77745 0.0
H217 H 0.13673 0.9333 0.69791 0.0
C218 C 0.08406 0.87742 0.68632 0.0
C219 C 0.06297 0.83079 0.69219 0.0
C220 C 0.16716 0.87914 0.77114 0.0
C221 C 0.13803 0.8693 0.72447 0.0
C222 C 0.18961 0.90895 0.79034 0.0
C223 C 0.21721 0.95088 0.7827 0.0
C224 C 0.17112 0.89256 0.74428 0.0
C225 C 0.22444 0.96034 0.75562 0.0
C226 C 0.12196 0.89655 0.70224 0.0
C227 C 0.08191 0.80353 0.71376 0.0
N228 N 0.20036 0.93202 0.73725 0.0
N229 N 0.11785 0.82361 0.72945 0.0
H230 H 0.57076 0.59581 0.06006 0.0
H231 H 0.67899 0.58363 0.91713 0.0
H232 H 0.55575 0.72035 0.00615 0.0
H233 H 0.74288 0.49824 0.98131 0.0
H234 H 0.63801 0.63795 0.94949 0.0
H235 H 0.63662 0.56169 0.03211 0.0
C236 C 0.58144 0.61602 0.0423 0.0
C237 C 0.55716 0.66044 0.03505 0.0
C238 C 0.66194 0.60817 0.95657 0.0
C239 C 0.63261 0.6216 0.00304 0.0
C240 C 0.68523 0.57722 0.93814 0.0
C241 C 0.71381 0.5365 0.94677 0.0
C242 C 0.66616 0.59722 0.98373 0.0
C243 C 0.72102 0.52943 0.97404 0.0
C244 C 0.61946 0.59681 0.02654 0.0
C245 C 0.57323 0.68571 0.01223 0.0
N246 N 0.69628 0.5589 -0.00832 0.0
N247 N 0.60944 0.66539 -0.00331 0.0
H248 H 0.09985 0.27344 0.24427 0.0
H249 H 0.29552 0.45991 0.30975 0.0
H250 H 0.23401 0.32113 0.2044 0.0
H251 H 0.16326 0.40492 0.34887 0.0
H252 H 0.28103 0.40048 0.27351 0.0
H253 H 0.12991 0.31165 0.28514 0.0
C254 C 0.13598 0.2915 0.24421 0.0
C255 C 0.16415 0.29475 0.22081 0.0
C256 C 0.25562 0.40102 0.29023 0.0
C257 C 0.1986 0.33941 0.26755 0.0
C258 C 0.26391 0.43487 0.31095 0.0
C259 C 0.23009 0.43802 0.3322 0.0
C260 C 0.21326 0.3702 0.29081 0.0
C261 C 0.18988 0.40452 0.33271 0.0
C262 C 0.15319 0.31334 0.26759 0.0
C263 C 0.21101 0.31798 0.22199 0.0
N264 N 0.18235 0.37246 0.31222 0.0
N265 N 0.22645 0.34022 0.2449 0.0
H266 H 0.03423 0.64069 0.59313 0.0
H267 H 0.15827 0.7267 0.45635 0.0
H268 H 0.0643 0.79467 0.5729 0.0
H269 H 0.12527 0.5732 0.47638 0.0
H270 H 0.13055 0.7519 0.50057 0.0
H271 H 0.07559 0.61468 0.55227 0.0
C272 C 0.05001 0.66902 0.58028 0.0
C273 C 0.04521 0.71998 0.5863 0.0
C274 C 0.12958 0.71269 0.49528 0.0
C275 C 0.09214 0.69047 0.53941 0.0
C276 C 0.14525 0.69829 0.47 0.0
C277 C 0.14371 0.6478 0.46252 0.0
C278 C 0.11223 0.67637 0.51315 0.0
C279 C 0.1268 0.61261 0.48114 0.0
C280 C 0.07349 0.65414 0.5569 0.0
C281 C 0.06663 0.75498 0.56895 0.0
N282 N 0.11155 0.62761 0.50555 0.0
N283 N 0.08876 0.73958 0.54615 0.0
H284 H 0.87738 0.53276 0.84452 0.0
H285 H 0.78499 0.712 0.72774 0.0
H286 H 0.7228 0.55462 0.82314 0.0
H287 H 0.94003 0.68466 0.74617 0.0
H288 H 0.76143 0.66502 0.76727 0.0
H289 H 0.90077 0.59694 0.81245 0.0
C290 C 0.84833 0.55105 0.83314 0.0
C291 C 0.79807 0.53781 0.83635 0.0
C292 C 0.80062 0.66981 0.76282 0.0
C293 C 0.82462 0.61155 0.79974 0.0
C294 C 0.81415 0.69688 0.7403 0.0
C295 C 0.86457 0.70146 0.73329 0.0
C296 C 0.83775 0.64707 0.77837 0.0
C297 C 0.90065 0.68141 0.75052 0.0
C298 C 0.86172 0.58785 0.81491 0.0
C299 C 0.76206 0.56317 0.82119 0.0
N300 N 0.8865 0.65449 0.77207 0.0
N301 N 0.77609 0.5986 0.80345 0.0
H302 H 0.93555 0.33789 0.10273 0.0
H303 H 0.8012 0.24884 0.96893 0.0
H304 H 0.92695 0.18341 0.07815 0.0
H305 H 0.84063 0.4016 0.98685 0.0
H306 H 0.83177 0.22398 0.01293 0.0
H307 H 0.88412 0.36107 0.06474 0.0
C308 C 0.9223 0.30868 0.0896 0.0
C309 C 0.9364 0.25867 0.09345 0.0
C310 C 0.8333 0.26297 0.00724 0.0
C311 C 0.87773 0.28517 0.04972 0.0
C312 C 0.81584 0.27718 0.98217 0.0
C313 C 0.81909 0.32725 0.97404 0.0
C314 C 0.85364 0.29917 0.02431 0.0
C315 C 0.83817 0.36244 -0.00793 0.0
C316 C 0.89305 0.32202 0.06783 0.0
C317 C 0.91758 0.22252 0.07583 0.0
N318 N 0.85492 0.34769 0.01627 0.0
N319 N 0.88968 0.23656 0.05454 0.0
H320 H 0.73176 0.20668 0.51258 0.0
H321 H 0.64275 0.07761 0.37781 0.0
H322 H 0.58227 0.21513 0.48102 0.0
H323 H 0.78566 0.04957 0.41459 0.0
H324 H 0.62698 0.14298 0.41038 0.0
H325 H 0.75871 0.16537 0.47161 0.0
C326 C 0.70487 0.20104 0.49679 0.0
C327 C 0.65447 0.21358 0.5004 0.0
C328 C 0.66201 0.12288 0.4112 0.0
C329 C 0.68494 0.16591 0.45372 0.0
C330 C 0.67106 0.08538 0.39261 0.0
C331 C 0.71527 0.05731 0.39371 0.0
C332 C 0.69725 0.13238 0.4312 0.0
C333 C 0.75081 0.06981 0.41313 0.0
C334 C 0.72022 0.1771 0.4735 0.0
C335 C 0.6213 0.20531 0.47927 0.0
N336 N 0.74075 0.10604 0.43133 0.0
N337 N 0.63699 0.18144 0.457 0.0
H338 H 0.28346 0.22082 0.75048 0.0
H339 H 0.46293 0.12937 0.63368 0.0
H340 H 0.36205 0.07978 0.74984 0.0
H341 H 0.40222 0.27853 0.63949 0.0
H342 H 0.41091 0.10424 0.67119 0.0
H343 H 0.31302 0.23662 0.70528 0.0
C344 C 0.30671 0.19312 0.74083 0.0
C345 C 0.32113 0.14941 0.75417 0.0
C346 C 0.40851 0.1423 0.66399 0.0
C347 C 0.3546 0.16699 0.70252 0.0
C348 C 0.43799 0.15656 0.6425 0.0
C349 C 0.43768 0.20635 0.63386 0.0
C350 C 0.37868 0.17812 0.67684 0.0
C351 C 0.40441 0.23998 0.6459 0.0
C352 C 0.32344 0.20208 0.71503 0.0
C353 C 0.3508 0.1145 0.74057 0.0
N354 N 0.37672 0.22541 0.66703 0.0
N355 N 0.36684 0.12423 0.71558 0.0
H356 H 0.42986 0.80453 0.98534 0.0
H357 H 0.20845 0.95114 0.91371 0.0
H358 H 0.27541 0.79064 0.00842 0.0
H359 H 0.36217 0.95558 0.88814 0.0
H360 H 0.23103 0.88838 0.94689 0.0
H361 H 0.40425 0.854 0.94709 0.0
C362 C 0.39048 0.81129 0.98217 0.0
C363 C 0.35479 0.79401 0.00033 0.0
C364 C 0.2597 0.90298 0.93391 0.0
C365 C 0.32525 0.85132 0.95676 0.0
C366 C 0.24691 0.93904 0.91507 0.0
C367 C 0.2835 0.95898 0.8982 0.0
C368 C 0.30943 0.88693 0.93594 0.0
C369 C 0.33267 0.94154 0.90076 0.0
C370 C 0.37586 0.83969 0.96034 0.0
C371 C 0.30424 0.80345 -0.00498 0.0
N372 N 0.34417 0.9067 0.91932 0.0
N373 N 0.291 0.83213 0.9739 0.0
H374 H 0.54743 0.83693 0.13372 0.0
H375 H 0.65189 0.75596 0.27611 0.0
H376 H 0.55093 0.684 0.16116 0.0
H377 H 0.64495 0.90838 0.24802 0.0
H378 H 0.62264 0.72757 0.23261 0.0
H379 H 0.59172 0.86228 0.17376 0.0
C380 C 0.55789 0.80856 0.14804 0.0
C381 C 0.54488 0.75831 0.14417 0.0
C382 C 0.62783 0.76719 0.23597 0.0
C383 C 0.59534 0.78725 0.19027 0.0
C384 C 0.64447 0.78345 0.26081 0.0
C385 C 0.65039 0.83471 0.26588 0.0
C386 C 0.61706 0.80243 0.21609 0.0
C387 C 0.64047 0.86855 0.2452 0.0
C388 C 0.58317 0.8231 0.17095 0.0
C389 C 0.55989 0.72321 0.16335 0.0
N390 N 0.62406 0.85181 0.22131 0.0
N391 N 0.58389 0.73844 0.18572 0.0
H392 H 0.23942 0.217 0.91881 0.0
H393 H 0.06232 0.15892 0.04246 0.0
H394 H 0.10545 0.12799 0.91529 0.0
H395 H 0.20665 0.2289 0.0509 0.0
H396 H 0.07309 0.15836 -0.00532 0.0
H397 H 0.22263 0.23389 0.96592 0.0
C398 C 0.20603 0.20185 0.92782 0.0
C399 C 0.17402 0.17059 0.91332 0.0
C400 C 0.10249 0.17387 0.00692 0.0
C401 C 0.15498 0.1893 0.96686 0.0
C402 C 0.09649 0.17404 0.03431 0.0
C403 C 0.13395 0.19344 0.05084 0.0
C404 C 0.14636 0.19306 -0.00423 0.0
C405 C 0.17703 0.21311 0.03894 0.0
C406 C 0.19671 0.21116 0.95469 0.0
C407 C 0.13145 0.1517 0.92588 0.0
N408 N 0.1822 0.21219 0.01205 0.0
N409 N 0.12337 0.16108 0.95196 0.0
H410 H 0.39357 0.60979 0.1746 0.0
H411 H 0.2048 0.68367 0.28991 0.0
H412 H 0.27212 0.71209 0.15958 0.0
H413 H 0.35432 0.62729 0.30122 0.0
H414 H 0.22116 0.68912 0.24179 0.0
H415 H 0.36915 0.60555 0.22085 0.0
C416 C 0.3615 0.63122 0.18109 0.0
C417 C 0.33528 0.66198 0.16347 0.0
C418 C 0.25025 0.67599 0.255 0.0
C419 C 0.3075 0.65795 0.21653 0.0
C420 C 0.24114 0.67321 0.28233 0.0
C421 C 0.27809 0.65433 0.29938 0.0
C422 C 0.29634 0.65952 0.24509 0.0
C423 C 0.32446 0.64115 0.28872 0.0
C424 C 0.34768 0.62899 0.20752 0.0
C425 C 0.29335 0.68812 0.17274 0.0
N426 N 0.33206 0.64364 0.26227 0.0
N427 N 0.28088 0.68596 0.19891 0.0
H428 H 0.78361 0.75951 0.42783 0.0
H429 H 0.77072 0.85265 0.57784 0.0
H430 H 0.74142 0.91047 0.44785 0.0
H431 H 0.89353 0.7646 0.54819 0.0
H432 H 0.73668 0.85693 0.53242 0.0
H433 H 0.80054 0.74335 0.47519 0.0
C434 C 0.77694 0.78876 0.44231 0.0
C435 C 0.76172 0.83643 0.43423 0.0
C436 C 0.77074 0.83626 0.53609 0.0
C437 C 0.77983 0.81816 0.48768 0.0
C438 C 0.79008 0.83385 0.56179 0.0
C439 C 0.83517 0.80887 0.56641 0.0
C440 C 0.79607 0.81222 0.51531 0.0
C441 C 0.85903 0.78489 0.54517 0.0
C442 C 0.78672 0.77965 0.4691 0.0
C443 C 0.75372 0.8734 0.45349 0.0
N444 N 0.83908 0.78703 0.52043 0.0
N445 N 0.76292 0.86351 0.47946 0.0
H446 H 0.57923 0.2453 0.68871 0.0
H447 H 0.72526 0.39877 0.79443 0.0
H448 H 0.71418 0.32371 0.668 0.0
H449 H 0.6576 0.25895 0.81704 0.0
H450 H 0.71565 0.37601 0.74772 0.0
H451 H 0.60162 0.25245 0.73583 0.0
C452 C 0.61382 0.26356 0.69412 0.0
C453 C 0.64481 0.28433 0.67457 0.0
C454 C 0.70329 0.35011 0.76289 0.0
C455 C 0.66997 0.29318 0.72811 0.0
C456 C 0.70828 0.36322 0.78948 0.0
C457 C 0.69166 0.33081 0.80947 0.0
C458 C 0.68036 0.30483 0.7562 0.0
C459 C 0.67067 0.28491 0.80209 0.0
C460 C 0.62663 0.26731 0.72091 0.0
C461 C 0.68935 0.30722 0.6825 0.0
N462 N 0.66474 0.27354 0.7759 0.0
N463 N 0.70019 0.3119 0.70877 0.0
H464 H 0.26758 0.12387 0.14608 0.0
H465 H 0.27789 0.82751 0.13233 0.0
H466 H 0.1396 0.02688 0.15254 0.0
H467 H 0.39033 0.92493 0.09938 0.0
H468 H 0.23601 0.89965 0.15124 0.0
H469 H 0.32093 0.05042 0.14072 0.0
C470 C 0.25078 0.08713 0.14704 0.0
C471 C 0.19885 0.0815 0.14942 0.0
C472 C 0.27004 0.90526 0.14006 0.0
C473 C 0.25978 -0.00235 0.14321 0.0
C474 C 0.29405 0.86409 0.12914 0.0
C475 C 0.3372 0.87023 0.11363 0.0
C476 C 0.28914 0.95316 0.13557 0.0
C477 C 0.35684 0.91852 0.11087 0.0
C478 C 0.28129 0.04533 0.14377 0.0
C479 C 0.17929 0.033 0.15044 0.0
N480 N 0.33227 0.95836 0.12148 0.0
N481 N 0.20974 0.99295 0.1471 0.0
H482 H 0.41256 0.66704 0.41804 0.0
H483 H 0.51129 0.90346 0.34889 0.0
H484 H 0.30942 0.78004 0.39082 0.0
H485 H 0.5938 0.83249 0.41213 0.0
H486 H 0.43482 0.8641 0.36573 0.0
H487 H 0.47887 0.72971 0.41803 0.0
C488 C 0.40364 0.70519 0.41261 0.0
C489 C 0.35555 0.7181 0.40416 0.0
C490 C 0.46951 0.85841 0.37634 0.0
C491 C 0.43127 0.7896 0.40344 0.0
C492 C 0.51299 0.88113 0.36683 0.0
C493 C 0.55888 0.87023 0.37881 0.0
C494 C 0.47261 0.82436 0.39762 0.0
C495 C 0.55917 0.84083 0.40195 0.0
C496 C 0.44141 0.741 0.41264 0.0
C497 C 0.34603 0.76828 0.39739 0.0
N498 N 0.51697 0.81788 0.41021 0.0
N499 N 0.38383 0.80193 0.39653 0.0
H500 H 0.72665 0.11679 0.57594 0.0
H501 H 0.75803 0.88872 0.67419 0.0
H502 H 0.60855 0.0803 0.63059 0.0
H503 H 0.88022 0.97425 0.64185 0.0
H504 H 0.70002 0.95323 0.65869 0.0
H505 H 0.77956 0.05432 0.59691 0.0
C506 C 0.71154 0.09444 0.592 0.0
C507 C 0.66328 0.10307 0.60147 0.0
C508 C 0.73964 0.95818 0.65554 0.0
C509 C 0.72414 0.03289 0.6263 0.0
C510 C 0.77293 0.92171 0.66462 0.0
C511 C 0.82411 0.92554 0.65878 0.0
C512 C 0.75784 -0.00179 0.64045 0.0
C513 C 0.84108 0.96917 0.64635 0.0
C514 C 0.74196 0.05948 0.60427 0.0
C515 C 0.64542 0.07387 0.62254 0.0
N516 N 0.80794 0.00325 0.63714 0.0
N517 N 0.67611 0.03993 0.63446 0.0
H518 H 0.43939 0.11885 0.8791 0.0
H519 H 0.54148 0.38713 0.90321 0.0
H520 H 0.34638 0.25074 0.87625 0.0
H521 H 0.6181 0.25564 0.93189 0.0
H522 H 0.46509 0.3385 0.89996 0.0
H523 H 0.50214 0.16708 0.90355 0.0
C524 C 0.43198 0.15766 0.88377 0.0
C525 C 0.38828 0.18109 0.87489 0.0
C526 C 0.49836 0.32052 0.90756 0.0
C527 C 0.45931 0.23619 0.9029 0.0
C528 C 0.54201 0.34845 0.90953 0.0
C529 C 0.58673 0.32502 0.91683 0.0
C530 C 0.49989 0.26881 0.91245 0.0
C531 C 0.58483 0.27496 0.92532 0.0
C532 C 0.46756 0.18509 0.89789 0.0
C533 C 0.38016 0.23132 0.88195 0.0
N534 N 0.54247 0.24804 0.9221 0.0
N535 N 0.41562 0.25731 0.89515 0.0
H536 H 0.82433 0.6441 0.58692 0.0
H537 H 0.65423 0.42875 0.63341 0.0
H538 H 0.85297 0.56912 0.66125 0.0
H539 H 0.70894 0.42172 0.55276 0.0
H540 H 0.71564 0.49327 0.64326 0.0
H541 H 0.77346 0.57267 0.57255 0.0
C542 C 0.82066 0.61203 0.59992 0.0
C543 C 0.84264 0.61198 0.62522 0.0
C544 C 0.71394 0.47768 0.6234 0.0
C545 C 0.78373 0.53211 0.60944 0.0
C546 C 0.67848 0.44154 0.6176 0.0
C547 C 0.67635 0.42026 0.59214 0.0
C548 C 0.74665 0.4935 0.60346 0.0
C549 C 0.70941 0.43749 0.57258 0.0
C550 C 0.79181 0.57159 0.59174 0.0
C551 C 0.8368 0.57009 0.64152 0.0
N552 N 0.74315 0.47371 0.57858 0.0
N553 N 0.80681 0.53209 0.63358 0.0
H554 H 0.04035 0.10304 0.81715 0.0
H555 H 0.94449 0.36851 0.85378 0.0
H556 H 0.11913 0.2364 0.79339 0.0
H557 H 0.84722 0.24013 0.84881 0.0
H558 H 0.0068 0.32238 0.8278 0.0
H559 H 0.96496 0.15275 0.82257 0.0
C560 C 0.0415 0.1424 0.81218 0.0
C561 C 0.08666 0.16591 0.80591 0.0
C562 C 0.97138 0.30479 0.83212 0.0
C563 C 0.00108 0.22324 0.81295 0.0
C564 C 0.9361 0.33094 0.84716 0.0
C565 C 0.89101 0.30793 0.85406 0.0
C566 C 0.96153 0.25528 0.82424 0.0
C567 C 0.88178 0.25932 0.84452 0.0
C568 C -0.00154 0.17097 0.81552 0.0
C569 C 0.0855 0.21698 0.79925 0.0
N570 N 0.91693 0.23449 0.83046 0.0
N571 N 0.04383 0.24435 0.80385 0.0
H572 H 0.26807 0.5848 0.03849 0.0
H573 H 0.1478 0.42756 0.15428 0.0
H574 H 0.35048 0.53217 0.10684 0.0
H575 H 0.12494 0.37548 0.07413 0.0
H576 H 0.20273 0.49332 0.13711 0.0
H577 H 0.19938 0.52809 0.0507 0.0
C578 C 0.27224 0.56067 0.05563 0.0
C579 C 0.31525 0.56325 0.0716 0.0
C580 C 0.18423 0.46844 0.12326 0.0
C581 C 0.23628 0.50127 0.08627 0.0
C582 C 0.15232 0.43166 0.13298 0.0
C583 C 0.13178 0.39662 0.1155 0.0
C584 C 0.19484 0.47032 0.09595 0.0
C585 C 0.13996 0.40236 0.08809 0.0
C586 C 0.23292 0.52898 0.0627 0.0
C587 C 0.3184 0.53145 0.09377 0.0
N588 N 0.17142 0.43833 0.07906 0.0
N589 N 0.27906 0.50259 0.10072 0.0
H590 H 0.9185 0.82957 0.32478 0.0
H591 H 0.09651 0.64985 0.31425 0.0
H592 H 0.81294 0.71076 0.3386 0.0
H593 H 0.01209 0.58488 0.37839 0.0
H594 H 0.02204 0.6949 0.2997 0.0
H595 H 0.98505 0.76712 0.32176 0.0
C596 C 0.90926 0.79034 0.32666 0.0
C597 C 0.86028 0.77531 0.3319 0.0
C598 C 0.01955 0.66986 0.31656 0.0
C599 C 0.93584 0.70388 0.32862 0.0
C600 C 0.06168 0.64365 0.32466 0.0
C601 C 0.06036 0.61441 0.34781 0.0
C602 C 0.97604 0.66685 0.33182 0.0
C603 C 0.0145 0.60728 0.36052 0.0
C604 C 0.94705 0.75469 0.32471 0.0
C605 C 0.85025 0.72391 0.33434 0.0
N606 N 0.97408 0.63433 0.35266 0.0
N607 N 0.88794 0.69005 0.33332 0.0
loop_
_geom_bond_atom_site_label_1
_geom_bond_atom_site_label_2
_geom_bond_distance
_geom_bond_site_symmetry_2
_ccdc_geom_bond_type
Sc0 O3 2.025 . S
Sc0 O10 2.105 1_455 S
Sc0 O13 2.105 . S
Sc0 O16 2.105 . S
Sc0 O19 2.105 . S
Sc1 O3 2.025 . S
Sc1 O11 2.105 . S
Sc1 O15 2.105 . S
Sc1 O17 2.105 . S
Sc1 O21 2.105 . S
Sc2 O3 2.025 . S
Sc2 O12 2.105 . S
Sc2 O14 2.105 1_455 S
Sc2 O18 2.105 . S
Sc2 O20 2.105 1_455 S
O3 Sc0 2.025 . S
O3 Sc1 2.025 . S
O3 Sc2 2.025 . S
C4 O10 1.268 . S
C4 O20 1.268 . S
C5 O11 1.268 . S
C5 O19 1.268 . S
C6 O12 1.268 . S
C6 O21 1.268 . S
C7 O13 1.268 . S
C7 O17 1.268 . S
C8 O14 1.268 . S
C8 O16 1.268 1_655 S
C9 O15 1.268 . S
C9 O18 1.268 . S
O10 Sc0 2.105 1_655 S
O10 C4 1.268 . S
O11 Sc1 2.105 . S
O11 C5 1.268 . S
O12 Sc2 2.105 . S
O12 C6 1.268 . S
O13 Sc0 2.105 . S
O13 C7 1.268 . S
O14 Sc2 2.105 1_655 S
O14 C8 1.268 . S
O15 Sc1 2.105 . S
O15 C9 1.268 . S
O16 Sc0 2.105 . S
O16 C8 1.268 1_455 S
O17 Sc1 2.105 . S
O17 C7 1.268 . S
O18 Sc2 2.105 . S
O18 C9 1.268 . S
O19 Sc0 2.105 . S
O19 C5 1.268 . S
O20 Sc2 2.105 1_655 S
O20 C4 1.268 . S
O21 Sc1 2.105 . S
O21 C6 1.268 . S
Sc22 O25 2.025 . S
Sc22 O32 2.105 . S
Sc22 O35 2.105 . S
Sc22 O38 2.105 . S
Sc22 O41 2.105 . S
Sc23 O25 2.025 . S
Sc23 O33 2.105 . S
Sc23 O37 2.105 . S
Sc23 O39 2.105 . S
Sc23 O43 2.105 . S
Sc24 O25 2.025 . S
Sc24 O34 2.105 . S
Sc24 O36 2.105 . S
Sc24 O40 2.105 . S
Sc24 O42 2.105 . S
O25 Sc22 2.025 . S
O25 Sc23 2.025 . S
O25 Sc24 2.025 . S
C26 O32 1.268 . S
C26 O42 1.268 . S
C27 O33 1.268 . S
C27 O41 1.268 . S
C28 O34 1.268 . S
C28 O43 1.268 . S
C29 O35 1.268 . S
C29 O39 1.268 . S
C30 O36 1.268 . S
C30 O38 1.268 . S
C31 O37 1.268 . S
C31 O40 1.268 . S
O32 Sc22 2.105 . S
O32 C26 1.268 . S
O33 Sc23 2.105 . S
O33 C27 1.268 . S
O34 Sc24 2.105 . S
O34 C28 1.268 . S
O35 Sc22 2.105 . S
O35 C29 1.268 . S
O36 Sc24 2.105 . S
O36 C30 1.268 . S
O37 Sc23 2.105 . S
O37 C31 1.268 . S
O38 Sc22 2.105 . S
O38 C30 1.268 . S
O39 Sc23 2.105 . S
O39 C29 1.268 . S
O40 Sc24 2.105 . S
O40 C31 1.268 . S
O41 Sc22 2.105 . S
O41 C27 1.268 . S
O42 Sc24 2.105 . S
O42 C26 1.268 . S
O43 Sc23 2.105 . S
O43 C28 1.268 . S
Sc44 O47 2.025 . S
Sc44 O54 2.105 1_655 S
Sc44 O57 2.105 . S
Sc44 O60 2.105 . S
Sc44 O63 2.105 . S
Sc45 O47 2.025 . S
Sc45 O55 2.105 . S
Sc45 O59 2.105 . S
Sc45 O61 2.105 . S
Sc45 O65 2.105 . S
Sc46 O47 2.025 . S
Sc46 O56 2.105 . S
Sc46 O58 2.105 1_655 S
Sc46 O62 2.105 . S
Sc46 O64 2.105 1_655 S
O47 Sc44 2.025 . S
O47 Sc45 2.025 . S
O47 Sc46 2.025 . S
C48 O54 1.268 . S
C48 O64 1.268 . S
C49 O55 1.268 . S
C49 O63 1.268 . S
C50 O56 1.268 . S
C50 O65 1.268 . S
C51 O57 1.268 . S
C51 O61 1.268 . S
C52 O58 1.268 . S
C52 O60 1.268 1_455 S
C53 O59 1.268 . S
C53 O62 1.268 . S
O54 Sc44 2.105 1_455 S
O54 C48 1.268 . S
O55 Sc45 2.105 . S
O55 C49 1.268 . S
O56 Sc46 2.105 . S
O56 C50 1.268 . S
O57 Sc44 2.105 . S
O57 C51 1.268 . S
O58 Sc46 2.105 1_455 S
O58 C52 1.268 . S
O59 Sc45 2.105 . S
O59 C53 1.268 . S
O60 Sc44 2.105 . S
O60 C52 1.268 1_655 S
O61 Sc45 2.105 . S
O61 C51 1.268 . S
O62 Sc46 2.105 . S
O62 C53 1.268 . S
O63 Sc44 2.105 . S
O63 C49 1.268 . S
O64 Sc46 2.105 1_455 S
O64 C48 1.268 . S
O65 Sc45 2.105 . S
O65 C50 1.268 . S
Sc66 O69 2.025 . S
Sc66 O76 2.105 . S
Sc66 O79 2.105 . S
Sc66 O82 2.105 . S
Sc66 O85 2.105 . S
Sc67 O69 2.025 . S
Sc67 O77 2.105 . S
Sc67 O81 2.105 . S
Sc67 O83 2.105 . S
Sc67 O87 2.105 . S
Sc68 O69 2.025 . S
Sc68 O78 2.105 . S
Sc68 O80 2.105 . S
Sc68 O84 2.105 . S
Sc68 O86 2.105 . S
O69 Sc66 2.025 . S
O69 Sc67 2.025 . S
O69 Sc68 2.025 . S
C70 O76 1.268 . S
C70 O86 1.268 . S
C71 O77 1.268 . S
C71 O85 1.268 . S
C72 O78 1.268 . S
C72 O87 1.268 . S
C73 O79 1.268 . S
C73 O83 1.268 . S
C74 O80 1.268 . S
C74 O82 1.268 . S
C75 O81 1.268 . S
C75 O84 1.268 . S
O76 Sc66 2.105 . S
O76 C70 1.268 . S
O77 Sc67 2.105 . S
O77 C71 1.268 . S
O78 Sc68 2.105 . S
O78 C72 1.268 . S
O79 Sc66 2.105 . S
O79 C73 1.268 . S
O80 Sc68 2.105 . S
O80 C74 1.268 . S
O81 Sc67 2.105 . S
O81 C75 1.268 . S
O82 Sc66 2.105 . S
O82 C74 1.268 . S
O83 Sc67 2.105 . S
O83 C73 1.268 . S
O84 Sc68 2.105 . S
O84 C75 1.268 . S
O85 Sc66 2.105 . S
O85 C71 1.268 . S
O86 Sc68 2.105 . S
O86 C70 1.268 . S
O87 Sc67 2.105 . S
O87 C72 1.268 . S
Sc88 O91 2.025 . S
Sc88 O98 2.105 . S
Sc88 O101 2.105 . S
Sc88 O104 2.105 . S
Sc88 O107 2.105 . S
Sc89 O91 2.025 . S
Sc89 O99 2.105 . S
Sc89 O103 2.105 . S
Sc89 O105 2.105 . S
Sc89 O109 2.105 . S
Sc90 O91 2.025 . S
Sc90 O100 2.105 . S
Sc90 O102 2.105 . S
Sc90 O106 2.105 . S
Sc90 O108 2.105 . S
O91 Sc88 2.025 . S
O91 Sc89 2.025 . S
O91 Sc90 2.025 . S
C92 O98 1.268 . S
C92 O108 1.268 . S
C93 O99 1.268 . S
C93 O107 1.268 . S
C94 O100 1.268 . S
C94 O109 1.268 . S
C95 O101 1.268 . S
C95 O105 1.268 . S
C96 O102 1.268 . S
C96 O104 1.268 . S
C97 O103 1.268 . S
C97 O106 1.268 . S
O98 Sc88 2.105 . S
O98 C92 1.268 . S
O99 Sc89 2.105 . S
O99 C93 1.268 . S
O100 Sc90 2.105 . S
O100 C94 1.268 . S
O101 Sc88 2.105 . S
O101 C95 1.268 . S
O102 Sc90 2.105 . S
O102 C96 1.268 . S
O103 Sc89 2.105 . S
O103 C97 1.268 . S
O104 Sc88 2.105 . S
O104 C96 1.268 . S
O105 Sc89 2.105 . S
O105 C95 1.268 . S
O106 Sc90 2.105 . S
O106 C97 1.268 . S
O107 Sc88 2.105 . S
O107 C93 1.268 . S
O108 Sc90 2.105 . S
O108 C92 1.268 . S
O109 Sc89 2.105 . S
O109 C94 1.268 . S
Sc110 O113 2.025 . S
Sc110 O120 2.105 1_545 S
Sc110 O123 2.105 . S
Sc110 O126 2.105 . S
Sc110 O129 2.105 . S
Sc111 O113 2.025 . S
Sc111 O121 2.105 . S
Sc111 O125 2.105 . S
Sc111 O127 2.105 . S
Sc111 O131 2.105 . S
Sc112 O113 2.025 . S
Sc112 O122 2.105 . S
Sc112 O124 2.105 1_545 S
Sc112 O128 2.105 . S
Sc112 O130 2.105 1_545 S
O113 Sc110 2.025 . S
O113 Sc111 2.025 . S
O113 Sc112 2.025 . S
C114 O120 1.268 . S
C114 O130 1.268 . S
C115 O121 1.268 . S
C115 O129 1.268 . S
C116 O122 1.268 . S
C116 O131 1.268 . S
C117 O123 1.268 . S
C117 O127 1.268 . S
C118 O124 1.268 . S
C118 O126 1.268 1_565 S
C119 O125 1.268 . S
C119 O128 1.268 . S
O120 Sc110 2.105 1_565 S
O120 C114 1.268 . S
O121 Sc111 2.105 . S
O121 C115 1.268 . S
O122 Sc112 2.105 . S
O122 C116 1.268 . S
O123 Sc110 2.105 . S
O123 C117 1.268 . S
O124 Sc112 2.105 1_565 S
O124 C118 1.268 . S
O125 Sc111 2.105 . S
O125 C119 1.268 . S
O126 Sc110 2.105 . S
O126 C118 1.268 1_545 S
O127 Sc111 2.105 . S
O127 C117 1.268 . S
O128 Sc112 2.105 . S
O128 C119 1.268 . S
O129 Sc110 2.105 . S
O129 C115 1.268 . S
O130 Sc112 2.105 1_565 S
O130 C114 1.268 . S
O131 Sc111 2.105 . S
O131 C116 1.268 . S
Sc132 O135 2.025 . S
Sc132 O142 2.105 . S
Sc132 O145 2.105 . S
Sc132 O148 2.105 . S
Sc132 O151 2.105 . S
Sc133 O135 2.025 . S
Sc133 O143 2.105 . S
Sc133 O147 2.105 . S
Sc133 O149 2.105 . S
Sc133 O153 2.105 . S
Sc134 O135 2.025 . S
Sc134 O144 2.105 . S
Sc134 O146 2.105 . S
Sc134 O150 2.105 . S
Sc134 O152 2.105 . S
O135 Sc132 2.025 . S
O135 Sc133 2.025 . S
O135 Sc134 2.025 . S
C136 O142 1.268 . S
C136 O152 1.268 . S
C137 O143 1.268 . S
C137 O151 1.268 . S
C138 O144 1.268 . S
C138 O153 1.268 . S
C139 O145 1.268 . S
C139 O149 1.268 . S
C140 O146 1.268 . S
C140 O148 1.268 . S
C141 O147 1.268 . S
C141 O150 1.268 . S
O142 Sc132 2.105 . S
O142 C136 1.268 . S
O143 Sc133 2.105 . S
O143 C137 1.268 . S
O144 Sc134 2.105 . S
O144 C138 1.268 . S
O145 Sc132 2.105 . S
O145 C139 1.268 . S
O146 Sc134 2.105 . S
O146 C140 1.268 . S
O147 Sc133 2.105 . S
O147 C141 1.268 . S
O148 Sc132 2.105 . S
O148 C140 1.268 . S
O149 Sc133 2.105 . S
O149 C139 1.268 . S
O150 Sc134 2.105 . S
O150 C141 1.268 . S
O151 Sc132 2.105 . S
O151 C137 1.268 . S
O152 Sc134 2.105 . S
O152 C136 1.268 . S
O153 Sc133 2.105 . S
O153 C138 1.268 . S
Sc154 O157 2.025 . S
Sc154 O164 2.105 1_565 S
Sc154 O167 2.105 . S
Sc154 O170 2.105 1_565 S
Sc154 O173 2.105 . S
Sc155 O157 2.025 . S
Sc155 O165 2.105 . S
Sc155 O169 2.105 . S
Sc155 O171 2.105 . S
Sc155 O175 2.105 . S
Sc156 O157 2.025 . S
Sc156 O166 2.105 . S
Sc156 O168 2.105 1_565 S
Sc156 O172 2.105 . S
Sc156 O174 2.105 . S
O157 Sc154 2.025 . S
O157 Sc155 2.025 . S
O157 Sc156 2.025 . S
C158 O164 1.268 . S
C158 O174 1.268 1_545 S
C159 O165 1.268 . S
C159 O173 1.268 . S
C160 O166 1.268 . S
C160 O175 1.268 . S
C161 O167 1.268 . S
C161 O171 1.268 . S
C162 O168 1.268 . S
C162 O170 1.268 . S
C163 O169 1.268 . S
C163 O172 1.268 . S
O164 Sc154 2.105 1_545 S
O164 C158 1.268 . S
O165 Sc155 2.105 . S
O165 C159 1.268 . S
O166 Sc156 2.105 . S
O166 C160 1.268 . S
O167 Sc154 2.105 . S
O167 C161 1.268 . S
O168 Sc156 2.105 1_545 S
O168 C162 1.268 . S
O169 Sc155 2.105 . S
O169 C163 1.268 . S
O170 Sc154 2.105 1_545 S
O170 C162 1.268 . S
O171 Sc155 2.105 . S
O171 C161 1.268 . S
O172 Sc156 2.105 . S
O172 C163 1.268 . S
O173 Sc154 2.105 . S
O173 C159 1.268 . S
O174 Sc156 2.105 . S
O174 C158 1.268 1_565 S
O175 Sc155 2.105 . S
O175 C160 1.268 . S
H176 C182 0.930 . S
H177 C186 0.930 1_565 S
H178 C191 0.929 . S
H179 C189 0.929 . S
H180 C184 0.929 . S
H181 C190 0.929 . S
C182 H176 0.930 . S
C182 C183 1.367 . S
C182 C190 1.378 . S
C183 C182 1.367 . S
C183 C191 1.433 . S
C184 H180 0.929 . S
C184 C186 1.378 . S
C184 C188 1.350 . S
C185 C188 1.463 . S
C185 C190 1.350 . S
C185 N193 1.427 . S
C186 H177 0.930 1_545 S
C186 C184 1.378 . S
C186 C187 1.367 . S
C187 C186 1.367 . S
C187 C189 1.433 . S
C188 C184 1.350 . S
C188 C185 1.463 . S
C188 N192 1.427 . S
C189 H179 0.929 . S
C189 C187 1.433 . S
C189 N192 1.384 . S
C190 H181 0.929 . S
C190 C182 1.378 . S
C190 C185 1.350 . S
C191 H178 0.929 . S
C191 C183 1.433 . S
C191 N193 1.384 . S
N192 C188 1.427 . S
N192 C189 1.384 . S
N193 C185 1.427 . S
N193 C191 1.384 . S
H194 C200 0.930 . S
H195 C204 0.930 . S
H196 C209 0.929 . S
H197 C207 0.929 . S
H198 C202 0.929 . S
H199 C208 0.929 . S
C200 H194 0.930 . S
C200 C201 1.367 . S
C200 C208 1.378 . S
C201 C200 1.367 . S
C201 C209 1.433 . S
C202 H198 0.929 . S
C202 C204 1.378 . S
C202 C206 1.350 . S
C203 C206 1.463 . S
C203 C208 1.350 . S
C203 N211 1.427 . S
C204 H195 0.930 . S
C204 C202 1.378 . S
C204 C205 1.367 . S
C205 C204 1.367 . S
C205 C207 1.433 . S
C206 C202 1.350 . S
C206 C203 1.463 . S
C206 N210 1.427 . S
C207 H197 0.929 . S
C207 C205 1.433 . S
C207 N210 1.384 . S
C208 H199 0.929 . S
C208 C200 1.378 . S
C208 C203 1.350 . S
C209 H196 0.929 . S
C209 C201 1.433 . S
C209 N211 1.384 . S
N210 C206 1.427 . S
N210 C207 1.384 . S
N211 C203 1.427 . S
N211 C209 1.384 . S
H212 C218 0.930 . S
H213 C222 0.930 . S
H214 C227 0.929 . S
H215 C225 0.929 1_545 S
H216 C220 0.929 . S
H217 C226 0.929 . S
C218 H212 0.930 . S
C218 C219 1.367 . S
C218 C226 1.378 . S
C219 C218 1.367 . S
C219 C227 1.433 . S
C220 H216 0.929 . S
C220 C222 1.378 . S
C220 C224 1.350 . S
C221 C224 1.463 . S
C221 C226 1.350 . S
C221 N229 1.427 . S
C222 H213 0.930 . S
C222 C220 1.378 . S
C222 C223 1.367 . S
C223 C222 1.367 . S
C223 C225 1.433 . S
C224 C220 1.350 . S
C224 C221 1.463 . S
C224 N228 1.427 . S
C225 H215 0.929 1_565 S
C225 C223 1.433 . S
C225 N228 1.384 . S
C226 H217 0.929 . S
C226 C218 1.378 . S
C226 C221 1.350 . S
C227 H214 0.929 . S
C227 C219 1.433 . S
C227 N229 1.384 . S
N228 C224 1.427 . S
N228 C225 1.384 . S
N229 C221 1.427 . S
N229 C227 1.384 . S
H230 C236 0.930 . S
H231 C240 0.930 . S
H232 C245 0.929 . S
H233 C243 0.929 . S
H234 C238 0.929 . S
H235 C244 0.929 . S
C236 H230 0.930 . S
C236 C237 1.367 . S
C236 C244 1.378 . S
C237 C236 1.367 . S
C237 C245 1.433 . S
C238 H234 0.929 . S
C238 C240 1.378 . S
C238 C242 1.350 . S
C239 C242 1.463 1_554 S
C239 C244 1.350 . S
C239 N247 1.427 . S
C240 H231 0.930 . S
C240 C238 1.378 . S
C240 C241 1.367 . S
C241 C240 1.367 . S
C241 C243 1.433 . S
C242 C238 1.350 . S
C242 C239 1.463 1_556 S
C242 N246 1.427 . S
C243 H233 0.929 . S
C243 C241 1.433 . S
C243 N246 1.384 . S
C244 H235 0.929 . S
C244 C236 1.378 . S
C244 C239 1.350 . S
C245 H232 0.929 . S
C245 C237 1.433 . S
C245 N247 1.384 . S
N246 C242 1.427 . S
N246 C243 1.384 . S
N247 C239 1.427 . S
N247 C245 1.384 . S
H248 C254 0.930 . S
H249 C258 0.930 . S
H250 C263 0.929 . S
H251 C261 0.929 . S
H252 C256 0.929 . S
H253 C262 0.929 . S
C254 H248 0.930 . S
C254 C255 1.367 . S
C254 C262 1.378 . S
C255 C254 1.367 . S
C255 C263 1.433 . S
C256 H252 0.929 . S
C256 C258 1.378 . S
C256 C260 1.350 . S
C257 C260 1.463 . S
C257 C262 1.350 . S
C257 N265 1.427 . S
C258 H249 0.930 . S
C258 C256 1.378 . S
C258 C259 1.367 . S
C259 C258 1.367 . S
C259 C261 1.433 . S
C260 C256 1.350 . S
C260 C257 1.463 . S
C260 N264 1.427 . S
C261 H251 0.929 . S
C261 C259 1.433 . S
C261 N264 1.384 . S
C262 H253 0.929 . S
C262 C254 1.378 . S
C262 C257 1.350 . S
C263 H250 0.929 . S
C263 C255 1.433 . S
C263 N265 1.384 . S
N264 C260 1.427 . S
N264 C261 1.384 . S
N265 C257 1.427 . S
N265 C263 1.384 . S
H266 C272 0.930 . S
H267 C276 0.930 . S
H268 C281 0.929 . S
H269 C279 0.929 . S
H270 C274 0.929 . S
H271 C280 0.929 . S
C272 H266 0.930 . S
C272 C273 1.367 . S
C272 C280 1.378 . S
C273 C272 1.367 . S
C273 C281 1.433 . S
C274 H270 0.929 . S
C274 C276 1.378 . S
C274 C278 1.350 . S
C275 C278 1.463 . S
C275 C280 1.350 . S
C275 N283 1.427 . S
C276 H267 0.930 . S
C276 C274 1.378 . S
C276 C277 1.367 . S
C277 C276 1.367 . S
C277 C279 1.433 . S
C278 C274 1.350 . S
C278 C275 1.463 . S
C278 N282 1.427 . S
C279 H269 0.929 . S
C279 C277 1.433 . S
C279 N282 1.384 . S
C280 H271 0.929 . S
C280 C272 1.378 . S
C280 C275 1.350 . S
C281 H268 0.929 . S
C281 C273 1.433 . S
C281 N283 1.384 . S
N282 C278 1.427 . S
N282 C279 1.384 . S
N283 C275 1.427 . S
N283 C281 1.384 . S
H284 C290 0.930 . S
H285 C294 0.930 . S
H286 C299 0.929 . S
H287 C297 0.929 . S
H288 C292 0.929 . S
H289 C298 0.929 . S
C290 H284 0.930 . S
C290 C291 1.367 . S
C290 C298 1.378 . S
C291 C290 1.367 . S
C291 C299 1.433 . S
C292 H288 0.929 . S
C292 C294 1.378 . S
C292 C296 1.350 . S
C293 C296 1.463 . S
C293 C298 1.350 . S
C293 N301 1.427 . S
C294 H285 0.930 . S
C294 C292 1.378 . S
C294 C295 1.367 . S
C295 C294 1.367 . S
C295 C297 1.433 . S
C296 C292 1.350 . S
C296 C293 1.463 . S
C296 N300 1.427 . S
C297 H287 0.929 . S
C297 C295 1.433 . S
C297 N300 1.384 . S
C298 H289 0.929 . S
C298 C290 1.378 . S
C298 C293 1.350 . S
C299 H286 0.929 . S
C299 C291 1.433 . S
C299 N301 1.384 . S
N300 C296 1.427 . S
N300 C297 1.384 . S
N301 C293 1.427 . S
N301 C299 1.384 . S
H302 C308 0.930 . S
H303 C312 0.930 . S
H304 C317 0.929 . S
H305 C315 0.929 . S
H306 C310 0.929 . S
H307 C316 0.929 . S
C308 H302 0.930 . S
C308 C309 1.367 . S
C308 C316 1.378 . S
C309 C308 1.367 . S
C309 C317 1.433 . S
C310 H306 0.929 . S
C310 C312 1.378 1_554 S
C310 C314 1.350 . S
C311 C314 1.463 . S
C311 C316 1.350 . S
C311 N319 1.427 . S
C312 H303 0.930 . S
C312 C310 1.378 1_556 S
C312 C313 1.367 . S
C313 C312 1.367 . S
C313 C315 1.433 . S
C314 C310 1.350 . S
C314 C311 1.463 . S
C314 N318 1.427 . S
C315 H305 0.929 . S
C315 C313 1.433 . S
C315 N318 1.384 1_556 S
C316 H307 0.929 . S
C316 C308 1.378 . S
C316 C311 1.350 . S
C317 H304 0.929 . S
C317 C309 1.433 . S
C317 N319 1.384 . S
N318 C314 1.427 . S
N318 C315 1.384 1_554 S
N319 C311 1.427 . S
N319 C317 1.384 . S
H320 C326 0.930 . S
H321 C330 0.930 1_565 S
H322 C335 0.929 . S
H323 C333 0.929 . S
H324 C328 0.929 . S
H325 C334 0.929 . S
C326 H320 0.930 . S
C326 C327 1.367 . S
C326 C334 1.378 . S
C327 C326 1.367 . S
C327 C335 1.433 . S
C328 H324 0.929 . S
C328 C330 1.378 . S
C328 C332 1.350 . S
C329 C332 1.463 . S
C329 C334 1.350 . S
C329 N337 1.427 . S
C330 H321 0.930 1_545 S
C330 C328 1.378 . S
C330 C331 1.367 . S
C331 C330 1.367 . S
C331 C333 1.433 . S
C332 C328 1.350 . S
C332 C329 1.463 . S
C332 N336 1.427 . S
C333 H323 0.929 . S
C333 C331 1.433 . S
C333 N336 1.384 . S
C334 H325 0.929 . S
C334 C326 1.378 . S
C334 C329 1.350 . S
C335 H322 0.929 . S
C335 C327 1.433 . S
C335 N337 1.384 . S
N336 C332 1.427 . S
N336 C333 1.384 . S
N337 C329 1.427 . S
N337 C335 1.384 . S
H338 C344 0.930 . S
H339 C348 0.930 . S
H340 C353 0.929 . S
H341 C351 0.929 . S
H342 C346 0.929 . S
H343 C352 0.929 . S
C344 H338 0.930 . S
C344 C345 1.367 . S
C344 C352 1.378 . S
C345 C344 1.367 . S
C345 C353 1.433 . S
C346 H342 0.929 . S
C346 C348 1.378 . S
C346 C350 1.350 . S
C347 C350 1.463 . S
C347 C352 1.350 . S
C347 N355 1.427 . S
C348 H339 0.930 . S
C348 C346 1.378 . S
C348 C349 1.367 . S
C349 C348 1.367 . S
C349 C351 1.433 . S
C350 C346 1.350 . S
C350 C347 1.463 . S
C350 N354 1.427 . S
C351 H341 0.929 . S
C351 C349 1.433 . S
C351 N354 1.384 . S
C352 H343 0.929 . S
C352 C344 1.378 . S
C352 C347 1.350 . S
C353 H340 0.929 . S
C353 C345 1.433 . S
C353 N355 1.384 . S
N354 C350 1.427 . S
N354 C351 1.384 . S
N355 C347 1.427 . S
N355 C353 1.384 . S
H356 C362 0.926 1_556 S
H357 C366 0.930 . S
H358 C371 0.929 . S
H359 C369 0.929 . S
H360 C364 0.929 . S
H361 C370 0.929 . S
C362 H356 0.926 1_554 S
C362 C363 1.367 . S
C362 C370 1.378 1_554 S
C363 C362 1.367 . S
C363 C371 1.433 . S
C364 H360 0.929 . S
C364 C366 1.378 . S
C364 C368 1.350 . S
C365 C368 1.463 . S
C365 C370 1.350 . S
C365 N373 1.427 1_556 S
C366 H357 0.930 . S
C366 C364 1.378 . S
C366 C367 1.367 . S
C367 C366 1.367 . S
C367 C369 1.433 . S
C368 C364 1.350 . S
C368 C365 1.463 . S
C368 N372 1.427 . S
C369 H359 0.929 . S
C369 C367 1.433 . S
C369 N372 1.384 . S
C370 H361 0.929 . S
C370 C362 1.378 1_556 S
C370 C365 1.350 . S
C371 H358 0.929 . S
C371 C363 1.433 . S
C371 N373 1.384 . S
N372 C368 1.427 . S
N372 C369 1.384 . S
N373 C365 1.427 1_554 S
N373 C371 1.384 . S
H374 C380 0.930 . S
H375 C384 0.930 . S
H376 C389 0.929 . S
H377 C387 0.929 . S
H378 C382 0.929 . S
H379 C388 0.929 . S
C380 H374 0.930 . S
C380 C381 1.367 . S
C380 C388 1.378 . S
C381 C380 1.367 . S
C381 C389 1.433 . S
C382 H378 0.929 . S
C382 C384 1.378 . S
C382 C386 1.350 . S
C383 C386 1.463 . S
C383 C388 1.350 . S
C383 N391 1.427 . S
C384 H375 0.930 . S
C384 C382 1.378 . S
C384 C385 1.367 . S
C385 C384 1.367 . S
C385 C387 1.433 . S
C386 C382 1.350 . S
C386 C383 1.463 . S
C386 N390 1.427 . S
C387 H377 0.929 . S
C387 C385 1.433 . S
C387 N390 1.384 . S
C388 H379 0.929 . S
C388 C380 1.378 . S
C388 C383 1.350 . S
C389 H376 0.929 . S
C389 C381 1.433 . S
C389 N391 1.384 . S
N390 C386 1.427 . S
N390 C387 1.384 . S
N391 C383 1.427 . S
N391 C389 1.384 . S
H392 C398 0.930 . S
H393 C402 0.930 . S
H394 C407 0.929 . S
H395 C405 0.929 . S
H396 C400 0.929 . S
H397 C406 0.929 . S
C398 H392 0.930 . S
C398 C399 1.367 . S
C398 C406 1.378 . S
C399 C398 1.367 . S
C399 C407 1.433 . S
C400 H396 0.929 . S
C400 C402 1.378 . S
C400 C404 1.350 . S
C401 C404 1.463 1_556 S
C401 C406 1.350 . S
C401 N409 1.427 . S
C402 H393 0.930 . S
C402 C400 1.378 . S
C402 C403 1.367 . S
C403 C402 1.367 . S
C403 C405 1.433 . S
C404 C400 1.350 . S
C404 C401 1.463 1_554 S
C404 N408 1.427 . S
C405 H395 0.929 . S
C405 C403 1.433 . S
C405 N408 1.384 . S
C406 H397 0.929 . S
C406 C398 1.378 . S
C406 C401 1.350 . S
C407 H394 0.929 . S
C407 C399 1.433 . S
C407 N409 1.384 . S
N408 C404 1.427 . S
N408 C405 1.384 . S
N409 C401 1.427 . S
N409 C407 1.384 . S
H410 C416 0.930 . S
H411 C420 0.930 . S
H412 C425 0.929 . S
H413 C423 0.929 . S
H414 C418 0.929 . S
H415 C424 0.929 . S
C416 H410 0.930 . S
C416 C417 1.367 . S
C416 C424 1.378 . S
C417 C416 1.367 . S
C417 C425 1.433 . S
C418 H414 0.929 . S
C418 C420 1.378 . S
C418 C422 1.350 . S
C419 C422 1.463 . S
C419 C424 1.350 . S
C419 N427 1.427 . S
C420 H411 0.930 . S
C420 C418 1.378 . S
C420 C421 1.367 . S
C421 C420 1.367 . S
C421 C423 1.433 . S
C422 C418 1.350 . S
C422 C419 1.463 . S
C422 N426 1.427 . S
C423 H413 0.929 . S
C423 C421 1.433 . S
C423 N426 1.384 . S
C424 H415 0.929 . S
C424 C416 1.378 . S
C424 C419 1.350 . S
C425 H412 0.929 . S
C425 C417 1.433 . S
C425 N427 1.384 . S
N426 C422 1.427 . S
N426 C423 1.384 . S
N427 C419 1.427 . S
N427 C425 1.384 . S
H428 C434 0.930 . S
H429 C438 0.930 . S
H430 C443 0.929 . S
H431 C441 0.929 . S
H432 C436 0.929 . S
H433 C442 0.929 . S
C434 H428 0.930 . S
C434 C435 1.367 . S
C434 C442 1.378 . S
C435 C434 1.367 . S
C435 C443 1.433 . S
C436 H432 0.929 . S
C436 C438 1.378 . S
C436 C440 1.350 . S
C437 C440 1.463 . S
C437 C442 1.350 . S
C437 N445 1.427 . S
C438 H429 0.930 . S
C438 C436 1.378 . S
C438 C439 1.367 . S
C439 C438 1.367 . S
C439 C441 1.433 . S
C440 C436 1.350 . S
C440 C437 1.463 . S
C440 N444 1.427 . S
C441 H431 0.929 . S
C441 C439 1.433 . S
C441 N444 1.384 . S
C442 H433 0.929 . S
C442 C434 1.378 . S
C442 C437 1.350 . S
C443 H430 0.929 . S
C443 C435 1.433 . S
C443 N445 1.384 . S
N444 C440 1.427 . S
N444 C441 1.384 . S
N445 C437 1.427 . S
N445 C443 1.384 . S
H446 C452 0.930 . S
H447 C456 0.930 . S
H448 C461 0.929 . S
H449 C459 0.929 . S
H450 C454 0.929 . S
H451 C460 0.929 . S
C452 H446 0.930 . S
C452 C453 1.367 . S
C452 C460 1.378 . S
C453 C452 1.367 . S
C453 C461 1.433 . S
C454 H450 0.929 . S
C454 C456 1.378 . S
C454 C458 1.350 . S
C455 C458 1.463 . S
C455 C460 1.350 . S
C455 N463 1.427 . S
C456 H447 0.930 . S
C456 C454 1.378 . S
C456 C457 1.367 . S
C457 C456 1.367 . S
C457 C459 1.433 . S
C458 C454 1.350 . S
C458 C455 1.463 . S
C458 N462 1.427 . S
C459 H449 0.929 . S
C459 C457 1.433 . S
C459 N462 1.384 . S
C460 H451 0.929 . S
C460 C452 1.378 . S
C460 C455 1.350 . S
C461 H448 0.929 . S
C461 C453 1.433 . S
C461 N463 1.384 . S
N462 C458 1.427 . S
N462 C459 1.384 . S
N463 C455 1.427 . S
N463 C461 1.384 . S
H464 C470 0.930 . S
H465 C474 0.930 . S
H466 C479 0.929 . S
H467 C477 0.929 . S
H468 C472 0.929 . S
H469 C478 0.929 . S
C470 H464 0.930 . S
C470 C471 1.367 . S
C470 C478 1.378 . S
C471 C470 1.367 . S
C471 C479 1.433 . S
C472 H468 0.929 . S
C472 C474 1.378 . S
C472 C476 1.350 . S
C473 C476 1.463 1_545 S
C473 C478 1.350 . S
C473 N481 1.427 . S
C474 H465 0.930 . S
C474 C472 1.378 . S
C474 C475 1.367 . S
C475 C474 1.367 . S
C475 C477 1.433 . S
C476 C472 1.350 . S
C476 C473 1.463 1_565 S
C476 N480 1.427 . S
C477 H467 0.929 . S
C477 C475 1.433 . S
C477 N480 1.384 . S
C478 H469 0.929 . S
C478 C470 1.378 . S
C478 C473 1.350 . S
C479 H466 0.929 . S
C479 C471 1.433 . S
C479 N481 1.384 . S
N480 C476 1.427 . S
N480 C477 1.384 . S
N481 C473 1.427 . S
N481 C479 1.384 . S
H482 C488 0.930 . S
H483 C492 0.930 . S
H484 C497 0.929 . S
H485 C495 0.929 . S
H486 C490 0.929 . S
H487 C496 0.929 . S
C488 H482 0.930 . S
C488 C489 1.367 . S
C488 C496 1.378 . S
C489 C488 1.367 . S
C489 C497 1.433 . S
C490 H486 0.929 . S
C490 C492 1.378 . S
C490 C494 1.350 . S
C491 C494 1.463 . S
C491 C496 1.350 . S
C491 N499 1.427 . S
C492 H483 0.930 . S
C492 C490 1.378 . S
C492 C493 1.367 . S
C493 C492 1.367 . S
C493 C495 1.433 . S
C494 C490 1.350 . S
C494 C491 1.463 . S
C494 N498 1.427 . S
C495 H485 0.929 . S
C495 C493 1.433 . S
C495 N498 1.384 . S
C496 H487 0.929 . S
C496 C488 1.378 . S
C496 C491 1.350 . S
C497 H484 0.929 . S
C497 C489 1.433 . S
C497 N499 1.384 . S
N498 C494 1.427 . S
N498 C495 1.384 . S
N499 C491 1.427 . S
N499 C497 1.384 . S
H500 C506 0.930 . S
H501 C510 0.930 . S
H502 C515 0.929 . S
H503 C513 0.929 . S
H504 C508 0.929 . S
H505 C514 0.929 . S
C506 H500 0.930 . S
C506 C507 1.367 . S
C506 C514 1.378 . S
C507 C506 1.367 . S
C507 C515 1.433 . S
C508 H504 0.929 . S
C508 C510 1.378 . S
C508 C512 1.350 . S
C509 C512 1.463 1_545 S
C509 C514 1.350 . S
C509 N517 1.427 . S
C510 H501 0.930 . S
C510 C508 1.378 . S
C510 C511 1.367 . S
C511 C510 1.367 . S
C511 C513 1.433 . S
C512 C508 1.350 . S
C512 C509 1.463 1_565 S
C512 N516 1.427 . S
C513 H503 0.929 . S
C513 C511 1.433 . S
C513 N516 1.384 . S
C514 H505 0.929 . S
C514 C506 1.378 . S
C514 C509 1.350 . S
C515 H502 0.929 . S
C515 C507 1.433 . S
C515 N517 1.384 . S
N516 C512 1.427 . S
N516 C513 1.384 . S
N517 C509 1.427 . S
N517 C515 1.384 . S
H518 C524 0.930 . S
H519 C528 0.930 . S
H520 C533 0.929 . S
H521 C531 0.929 . S
H522 C526 0.929 . S
H523 C532 0.929 . S
C524 H518 0.930 . S
C524 C525 1.367 . S
C524 C532 1.378 . S
C525 C524 1.367 . S
C525 C533 1.433 . S
C526 H522 0.929 . S
C526 C528 1.378 . S
C526 C530 1.350 . S
C527 C530 1.463 . S
C527 C532 1.350 . S
C527 N535 1.427 . S
C528 H519 0.930 . S
C528 C526 1.378 . S
C528 C529 1.367 . S
C529 C528 1.367 . S
C529 C531 1.433 . S
C530 C526 1.350 . S
C530 C527 1.463 . S
C530 N534 1.427 . S
C531 H521 0.929 . S
C531 C529 1.433 . S
C531 N534 1.384 . S
C532 H523 0.929 . S
C532 C524 1.378 . S
C532 C527 1.350 . S
C533 H520 0.929 . S
C533 C525 1.433 . S
C533 N535 1.384 . S
N534 C530 1.427 . S
N534 C531 1.384 . S
N535 C527 1.427 . S
N535 C533 1.384 . S
H536 C542 0.930 . S
H537 C546 0.930 . S
H538 C551 0.929 . S
H539 C549 0.929 . S
H540 C544 0.929 . S
H541 C550 0.929 . S
C542 H536 0.930 . S
C542 C543 1.367 . S
C542 C550 1.378 . S
C543 C542 1.367 . S
C543 C551 1.433 . S
C544 H540 0.929 . S
C544 C546 1.378 . S
C544 C548 1.350 . S
C545 C548 1.463 . S
C545 C550 1.350 . S
C545 N553 1.427 . S
C546 H537 0.930 . S
C546 C544 1.378 . S
C546 C547 1.367 . S
C547 C546 1.367 . S
C547 C549 1.433 . S
C548 C544 1.350 . S
C548 C545 1.463 . S
C548 N552 1.427 . S
C549 H539 0.929 . S
C549 C547 1.433 . S
C549 N552 1.384 . S
C550 H541 0.929 . S
C550 C542 1.378 . S
C550 C545 1.350 . S
C551 H538 0.929 . S
C551 C543 1.433 . S
C551 N553 1.384 . S
N552 C548 1.427 . S
N552 C549 1.384 . S
N553 C545 1.427 . S
N553 C551 1.384 . S
H554 C560 0.930 . S
H555 C564 0.930 . S
H556 C569 0.929 . S
H557 C567 0.929 . S
H558 C562 0.929 . S
H559 C568 0.929 . S
C560 H554 0.930 . S
C560 C561 1.367 . S
C560 C568 1.378 . S
C561 C560 1.367 . S
C561 C569 1.433 . S
C562 H558 0.929 . S
C562 C564 1.378 . S
C562 C566 1.350 . S
C563 C566 1.463 1_455 S
C563 C568 1.350 . S
C563 N571 1.427 . S
C564 H555 0.930 . S
C564 C562 1.378 . S
C564 C565 1.367 . S
C565 C564 1.367 . S
C565 C567 1.433 . S
C566 C562 1.350 . S
C566 C563 1.463 1_655 S
C566 N570 1.427 . S
C567 H557 0.929 . S
C567 C565 1.433 . S
C567 N570 1.384 . S
C568 H559 0.929 . S
C568 C560 1.378 . S
C568 C563 1.350 . S
C569 H556 0.929 . S
C569 C561 1.433 . S
C569 N571 1.384 . S
N570 C566 1.427 . S
N570 C567 1.384 . S
N571 C563 1.427 . S
N571 C569 1.384 . S
H572 C578 0.930 . S
H573 C582 0.930 . S
H574 C587 0.929 . S
H575 C585 0.929 . S
H576 C580 0.929 . S
H577 C586 0.929 . S
C578 H572 0.930 . S
C578 C579 1.367 . S
C578 C586 1.378 . S
C579 C578 1.367 . S
C579 C587 1.433 . S
C580 H576 0.929 . S
C580 C582 1.378 . S
C580 C584 1.350 . S
C581 C584 1.463 . S
C581 C586 1.350 . S
C581 N589 1.427 . S
C582 H573 0.930 . S
C582 C580 1.378 . S
C582 C583 1.367 . S
C583 C582 1.367 . S
C583 C585 1.433 . S
C584 C580 1.350 . S
C584 C581 1.463 . S
C584 N588 1.427 . S
C585 H575 0.929 . S
C585 C583 1.433 . S
C585 N588 1.384 . S
C586 H577 0.929 . S
C586 C578 1.378 . S
C586 C581 1.350 . S
C587 H574 0.929 . S
C587 C579 1.433 . S
C587 N589 1.384 . S
N588 C584 1.427 . S
N588 C585 1.384 . S
N589 C581 1.427 . S
N589 C587 1.384 . S
H590 C596 0.930 . S
H591 C600 0.930 . S
H592 C605 0.929 . S
H593 C603 0.929 . S
H594 C598 0.929 . S
H595 C604 0.929 . S
C596 H590 0.930 . S
C596 C597 1.367 . S
C596 C604 1.378 . S
C597 C596 1.367 . S
C597 C605 1.433 . S
C598 H594 0.929 . S
C598 C600 1.378 . S
C598 C602 1.350 . S
C599 C602 1.463 1_655 S
C599 C604 1.350 . S
C599 N607 1.427 . S
C600 H591 0.930 . S
C600 C598 1.378 . S
C600 C601 1.367 . S
C601 C600 1.367 . S
C601 C603 1.433 . S
C602 C598 1.350 . S
C602 C599 1.463 1_455 S
C602 N606 1.427 . S
C603 H593 0.929 . S
C603 C601 1.433 . S
C603 N606 1.384 . S
C604 H595 0.929 . S
C604 C596 1.378 . S
C604 C599 1.350 . S
C605 H592 0.929 . S
C605 C597 1.433 . S
C605 N607 1.384 . S
N606 C602 1.427 . S
N606 C603 1.384 . S
N607 C599 1.427 . S
N607 C605 1.384 . S
C183 C8 1.668 . S
C187 C158 1.669 . S
C201 C26 1.669 . S
C205 C92 1.668 . S
C219 C52 1.668 . S
C223 C118 1.668 . S
C237 C136 1.668 . S
C241 C74 1.668 . S
C255 C9 1.390 . S
C259 C30 1.462 . S
C273 C48 1.465 . S
C277 C27 1.379 . S
C291 C70 1.465 . S
C295 C53 1.380 . S
C309 C4 1.466 . S
C313 C75 1.390 . S
C327 C93 1.395 . S
C331 C162 1.465 . S
C345 C119 1.383 . S
C349 C96 1.466 . S
C363 C137 1.393 . S
C367 C114 1.462 . S
C381 C140 1.466 . S
C385 C159 1.390 . S
C399 C115 0.782 . S
C403 C5 0.771 . S
C417 C141 0.770 . S
C421 C31 0.780 . S
C435 C163 0.771 . S
C439 C49 0.773 . S
C453 C97 0.790 . S
C457 C71 0.784 . S
C471 C7 1.394 . S
C475 C139 1.428 . S
C489 C28 1.396 . S
C493 C161 1.444 . S
C507 C95 1.428 . S
C511 C51 1.404 . S
C525 C116 1.444 . S
C529 C73 1.394 . S
C543 C50 1.442 . S
C547 C94 1.388 . S
C561 C117 1.387 . S
C565 C72 1.441 . S
C579 C138 1.407 . S
C583 C6 1.435 . S
C597 C160 1.386 . S
C601 C29 1.437 . S
