# Generated by pormake.
# Topology mmt, (4)-cn, num edge types: 1
# Building blocks:
#     Node 0, Type 0, BuildingBlock: QUQFOY_clean_sbu_3, # of connection points: 4
#     Node 1, Type 0, BuildingBlock: QUQFOY_clean_sbu_3, # of connection points: 4
#     Node 2, Type 0, BuildingBlock: QUQFOY_clean_sbu_3, # of connection points: 4
#     Node 3, Type 0, BuildingBlock: QUQFOY_clean_sbu_3, # of connection points: 4
#     Node 4, Type 0, BuildingBlock: QUQFOY_clean_sbu_3, # of connection points: 4
#     Node 5, Type 0, BuildingBlock: QUQFOY_clean_sbu_3, # of connection points: 4
#     Node 6, Type 0, BuildingBlock: QUQFOY_clean_sbu_3, # of connection points: 4
#     Node 7, Type 0, BuildingBlock: QUQFOY_clean_sbu_3, # of connection points: 4
#     Edge 8, Type (0, 0), BuildingBlock: FUNLAD_clean_linker_0, # of connection points: 2
#     Edge 9, Type (0, 0), BuildingBlock: FUNLAD_clean_linker_0, # of connection points: 2
#     Edge 10, Type (0, 0), BuildingBlock: FUNLAD_clean_linker_0, # of connection points: 2
#     Edge 11, Type (0, 0), BuildingBlock: FUNLAD_clean_linker_0, # of connection points: 2
#     Edge 12, Type (0, 0), BuildingBlock: FUNLAD_clean_linker_0, # of connection points: 2
#     Edge 13, Type (0, 0), BuildingBlock: FUNLAD_clean_linker_0, # of connection points: 2
#     Edge 14, Type (0, 0), BuildingBlock: FUNLAD_clean_linker_0, # of connection points: 2
#     Edge 15, Type (0, 0), BuildingBlock: FUNLAD_clean_linker_0, # of connection points: 2
#     Edge 16, Type (0, 0), BuildingBlock: FUNLAD_clean_linker_0, # of connection points: 2
#     Edge 17, Type (0, 0), BuildingBlock: FUNLAD_clean_linker_0, # of connection points: 2
#     Edge 18, Type (0, 0), BuildingBlock: FUNLAD_clean_linker_0, # of connection points: 2
#     Edge 19, Type (0, 0), BuildingBlock: FUNLAD_clean_linker_0, # of connection points: 2
#     Edge 20, Type (0, 0), BuildingBlock: FUNLAD_clean_linker_0, # of connection points: 2
#     Edge 21, Type (0, 0), BuildingBlock: FUNLAD_clean_linker_0, # of connection points: 2
#     Edge 22, Type (0, 0), BuildingBlock: FUNLAD_clean_linker_0, # of connection points: 2
#     Edge 23, Type (0, 0), BuildingBlock: FUNLAD_clean_linker_0, # of connection points: 2
# Relax obj value: 0.026
# Max RMSD: 0.041
# Mean RMSD: 0.041
data_MOF--net-mmt--node1-QUQFOY_clean_sbu_3--edge1-FUNLAD_clean_linker_0
_symmetry_space_group_name_H-M    P1
_symmetry_Int_Tables_number       1
_symmetry_cell_setting            triclinic
loop_
_symmetry_equiv_pos_as_xyz
'x, y, z'
_cell_length_a     26.662502
_cell_length_b     44.031044
_cell_length_c     53.6073
_cell_angle_alpha  90.275365
_cell_angle_beta   89.839129
_cell_angle_gamma 90.331171
loop_
_atom_site_label
_atom_site_type_symbol
_atom_site_fract_x
_atom_site_fract_y
_atom_site_fract_z
_atom_type_partial_charge
C0 C 0.08174 0.64397 0.31459 0.0
O1 O 0.05577 0.64235 0.2948 0.0
Cd2 Cd 0.0058 0.59981 0.2812 0.0
O3 O 0.0808 0.62233 0.3303 0.0
Cd4 Cd 0.03756 0.57226 0.33395 0.0
C5 C 0.09746 0.5452 0.28296 0.0
O6 O 0.9555 0.58076 0.31436 0.0
O7 O 0.97987 0.5344 0.31823 0.0
O8 O 0.01265 0.57781 0.37764 0.0
C9 C 0.94592 0.55265 0.31161 0.0
O10 O 0.0662 0.56051 0.27029 0.0
C11 C 0.03736 0.55505 0.38518 0.0
O12 O 0.09841 0.54715 0.3067 0.0
O13 O 0.06369 0.54114 0.36903 0.0
C14 C 0.40864 0.84208 0.32622 0.0
O15 O 0.4358 0.84177 0.30672 0.0
Cd16 Cd 0.48242 0.88437 0.29073 0.0
O17 O 0.40706 0.86567 0.34007 0.0
Cd18 Cd 0.44615 0.91712 0.34099 0.0
C19 C 0.38522 0.93532 0.28784 0.0
O20 O 0.52991 0.90843 0.32291 0.0
O21 O 0.50387 0.95472 0.32516 0.0
O22 O 0.46763 0.91399 0.38509 0.0
C23 C 0.53887 0.93652 0.31967 0.0
O24 O 0.41772 0.91905 0.27666 0.0
C25 C 0.44295 0.9373 0.39167 0.0
O26 O 0.38464 0.93738 0.31158 0.0
O27 O 0.41804 0.95056 0.37478 0.0
C28 C 0.58013 0.34568 0.16135 0.0
O29 O 0.55367 0.34578 0.18109 0.0
Cd30 Cd 0.50378 0.38817 0.19509 0.0
O31 O 0.57922 0.3682 0.14653 0.0
Cd32 Cd 0.53451 0.41725 0.14383 0.0
C33 C 0.59293 0.44445 0.19519 0.0
O34 O 0.45149 0.40526 0.16199 0.0
O35 O 0.47118 0.45258 0.15715 0.0
O36 O 0.51502 0.40921 0.09987 0.0
C37 C 0.43836 0.43294 0.16296 0.0
O38 O 0.56184 0.42847 0.20765 0.0
C39 C 0.53453 0.434 0.09253 0.0
O40 O 0.59421 0.44292 0.17145 0.0
O41 O 0.55645 0.4502 0.10892 0.0
C42 C 0.91156 0.15655 0.16411 0.0
O43 O 0.93945 0.1594 0.18315 0.0
Cd44 Cd 0.98162 0.11749 0.20245 0.0
O45 O 0.90888 0.13128 0.15249 0.0
Cd46 Cd 0.94866 0.08043 0.15439 0.0
C47 C 0.88331 0.06647 0.20706 0.0
O48 O 0.03172 0.09058 0.17289 0.0
O49 O 0.00394 0.04437 0.17343 0.0
O50 O 0.97385 0.08102 0.11062 0.0
C51 C 0.03947 0.06281 0.17791 0.0
O52 O 0.91484 0.08413 0.21764 0.0
C53 C 0.94991 0.05709 0.10458 0.0
O54 O 0.88475 0.06203 0.18354 0.0
O55 O 0.92364 0.04462 0.12154 0.0
C56 C 0.88603 0.35454 0.65552 0.0
O57 O 0.91291 0.35245 0.67496 0.0
Cd58 Cd 0.96223 0.39321 0.69278 0.0
O59 O 0.88691 0.37864 0.64247 0.0
Cd60 Cd 0.93202 0.42804 0.64255 0.0
C61 C 0.87118 0.44837 0.69514 0.0
O62 O 0.01318 0.417 0.66207 0.0
O63 O -0.01093 0.46371 0.66151 0.0
O64 O 0.95761 0.42606 0.59888 0.0
C65 C 0.02252 0.44467 0.66723 0.0
O66 O 0.90203 0.43144 0.70663 0.0
C67 C 0.93441 0.44995 0.5926 0.0
O68 O 0.87059 0.44944 0.67137 0.0
O69 O 0.90853 0.46301 0.6094 0.0
C70 C 0.58674 0.14189 0.66096 0.0
O71 O 0.56213 0.14424 0.68119 0.0
Cd72 Cd 0.51679 0.10281 0.70027 0.0
O73 O 0.58504 0.11741 0.64822 0.0
Cd74 Cd 0.54191 0.06742 0.65014 0.0
C75 C 0.61114 0.05008 0.70075 0.0
O76 O 0.46175 0.07927 0.67085 0.0
O77 O 0.48418 0.03223 0.66961 0.0
O78 O 0.51547 0.06896 0.60656 0.0
C79 C 0.45119 0.05166 0.67536 0.0
O80 O 0.58097 0.06669 0.71317 0.0
C81 C 0.53764 0.04464 0.60022 0.0
O82 O 0.60783 0.04794 0.6771 0.0
O83 O 0.56312 0.03147 0.61695 0.0
C84 C 0.3897 0.64264 0.82073 0.0
O85 O 0.41532 0.6407 0.80077 0.0
Cd86 Cd 0.4649 0.59821 0.78726 0.0
O87 O 0.39033 0.62123 0.83664 0.0
Cd88 Cd 0.43226 0.57118 0.84044 0.0
C89 C 0.37219 0.54366 0.78971 0.0
O90 O 0.51423 0.57983 0.82063 0.0
O91 O 0.48961 0.5334 0.82491 0.0
O92 O 0.45643 0.57917 0.88382 0.0
C93 C 0.52363 0.55175 0.81804 0.0
O94 O 0.40446 0.55839 0.77693 0.0
C95 C 0.43481 0.55539 0.89192 0.0
O96 O 0.37026 0.54631 0.81341 0.0
O97 O 0.40985 0.53978 0.87623 0.0
C98 C 0.07487 0.84496 0.83545 0.0
O99 O 0.04619 0.84396 0.81659 0.0
Cd100 Cd 0.00156 0.88643 0.80013 0.0
O101 O 0.0787 0.86923 0.84838 0.0
Cd102 Cd 0.0412 0.92099 0.84826 0.0
C103 C 0.10157 0.93592 0.79423 0.0
O104 O 0.95613 0.91183 0.83231 0.0
O105 O 0.98482 0.95768 0.8302 0.0
O106 O 0.02059 0.91957 0.89255 0.0
C107 C 0.94823 0.93953 0.82726 0.0
O108 O 0.06761 0.91962 0.78405 0.0
C109 C 0.04504 0.9434 0.89833 0.0
O110 O 0.10328 0.93913 0.81787 0.0
O111 O 0.06961 0.95623 0.88092 0.0
C112 C 0.12835 0.52029 0.24388 0.0
C113 C 0.13284 0.52491 0.26974 0.0
C114 C 0.1624 0.50199 0.23107 0.0
C115 C 0.20218 0.48814 0.2438 0.0
C116 C 0.20551 0.49171 0.26978 0.0
C117 C 0.17128 0.50999 0.28265 0.0
C118 C 0.24162 0.47079 0.23041 0.0
C119 C 0.25548 0.47746 0.20688 0.0
C120 C 0.30012 0.46418 0.19461 0.0
C121 C 0.32715 0.48224 0.17777 0.0
C122 C 0.37149 0.47168 0.16711 0.0
C123 C 0.38915 0.44252 0.17266 0.0
H124 H 0.29596 0.41977 0.212 0.0
C125 C 0.36087 0.42372 0.18852 0.0
C126 C 0.31675 0.43453 0.19957 0.0
H127 H 0.37365 0.40109 0.19301 0.0
H128 H 0.09859 0.53092 0.2334 0.0
H129 H 0.15741 0.49884 0.2112 0.0
H130 H 0.23552 0.48104 0.28006 0.0
H131 H 0.17548 0.51281 0.30262 0.0
H132 H 0.26323 0.45451 0.24104 0.0
H133 H 0.23717 0.49592 0.19718 0.0
H134 H 0.31485 0.50504 0.17346 0.0
H135 H 0.39232 0.48655 0.15475 0.0
C136 C 0.09307 0.02122 0.19396 0.0
C137 C 0.08501 0.05247 0.19089 0.0
C138 C 0.13425 0.01087 0.20731 0.0
C139 C 0.16864 0.03153 0.21785 0.0
C140 C 0.16061 0.06281 0.2149 0.0
C141 C 0.11935 0.07323 0.20133 0.0
C142 C 0.21158 0.02078 0.23293 0.0
C143 C 0.23416 0.9941 0.22817 0.0
C144 C 0.2745 0.98114 0.24376 0.0
C145 C 0.30695 0.95992 0.23285 0.0
C146 C 0.34323 0.94546 0.24713 0.0
C147 C 0.34746 0.95155 0.27281 0.0
H148 H 0.25366 0.00326 0.27858 0.0
C149 C 0.31506 0.97289 0.28379 0.0
C150 C 0.27893 0.98761 0.2694 0.0
H151 H 0.31731 0.97805 0.30353 0.0
H152 H 0.06711 0.00463 0.18631 0.0
H153 H 0.1382 0.98663 0.20987 0.0
H154 H 0.1863 0.07918 0.22308 0.0
H155 H 0.11383 0.09746 0.19944 0.0
H156 H 0.22536 0.03542 0.24779 0.0
H157 H 0.22335 0.98119 0.21169 0.0
H158 H 0.30401 0.95432 0.2132 0.0
H159 H 0.36744 0.9291 0.23803 0.0
C160 C 0.67206 0.47535 0.19681 0.0
C161 C 0.62843 0.46453 0.20863 0.0
C162 C 0.70717 0.49261 0.21011 0.0
C163 C 0.699 0.49963 0.23542 0.0
C164 C 0.65429 0.49017 0.24686 0.0
C165 C 0.61955 0.4725 0.2337 0.0
C166 C 0.73753 0.5155 0.25057 0.0
C167 C 0.7865 0.50915 0.24792 0.0
C168 C 0.82559 0.5209 0.26502 0.0
C169 C 0.86653 0.50224 0.27031 0.0
C170 C 0.90465 0.51236 0.28605 0.0
C171 C 0.90332 0.54173 0.2964 0.0
H172 H 0.79283 0.56528 0.27148 0.0
C173 C 0.86246 0.56061 0.29104 0.0
C174 C 0.82362 0.55019 0.27559 0.0
H175 H 0.86067 0.58341 0.29865 0.0
H176 H 0.67977 0.46981 0.17747 0.0
H177 H 0.74087 0.50023 0.20065 0.0
H178 H 0.64706 0.4955 0.26629 0.0
H179 H 0.58596 0.46484 0.24324 0.0
H180 H 0.7251 0.52979 0.26595 0.0
H181 H 0.79796 0.49226 0.23421 0.0
H182 H 0.86894 0.47964 0.26232 0.0
H183 H 0.9358 0.49732 0.28963 0.0
C184 C 0.81326 0.02854 0.21221 0.0
C185 C 0.84487 0.05097 0.22249 0.0
C186 C 0.77707 0.01408 0.227 0.0
C187 C 0.77181 0.02182 0.25238 0.0
C188 C 0.80325 0.04429 0.26255 0.0
C189 C 0.83956 0.05856 0.24786 0.0
C190 C 0.73192 0.00864 0.26843 0.0
C191 C 0.71016 0.98139 0.26434 0.0
C192 C 0.66778 0.97001 0.2798 0.0
C193 C 0.6597 0.93859 0.28214 0.0
C194 C 0.61864 0.92745 0.29573 0.0
C195 C 0.58457 0.94762 0.30691 0.0
H196 H 0.63759 0.01444 0.28916 0.0
C197 C 0.59284 0.97902 0.30463 0.0
C198 C 0.63376 0.9901 0.29119 0.0
H199 H 0.56708 0.99518 0.31287 0.0
H200 H 0.81629 0.02223 0.19271 0.0
H201 H 0.75256 -0.00251 0.2183 0.0
H202 H 0.79966 0.05091 0.28196 0.0
H203 H 0.86312 0.07579 0.25641 0.0
H204 H 0.72096 0.02184 0.28471 0.0
H205 H 0.72426 0.96666 0.24964 0.0
H206 H 0.68507 0.92264 0.27333 0.0
H207 H 0.61301 0.90313 0.297 0.0
C208 C 0.60631 0.5601 0.79657 0.0
C209 C 0.56569 0.54096 0.80248 0.0
C210 C 0.64439 0.54995 0.78059 0.0
C211 C 0.64185 0.52065 0.77005 0.0
C212 C 0.60125 0.50168 0.77594 0.0
C213 C 0.56389 0.51154 0.79222 0.0
C214 C 0.67998 0.50931 0.75231 0.0
C215 C 0.72906 0.51583 0.7544 0.0
C216 C 0.76666 0.50058 0.73842 0.0
C217 C 0.81152 0.49061 0.74908 0.0
C218 C 0.84555 0.47369 0.73497 0.0
C219 C 0.83582 0.46707 0.70975 0.0
H220 H 0.72358 0.50277 0.70419 0.0
C221 C 0.79193 0.47829 0.69877 0.0
C222 C 0.75749 0.49476 0.71301 0.0
H223 H 0.78363 0.47376 0.67933 0.0
H224 H 0.60843 0.58294 0.80412 0.0
H225 H 0.67496 0.56525 0.77602 0.0
H226 H 0.59848 0.47906 0.76799 0.0
H227 H 0.53289 0.49631 0.79623 0.0
H228 H 0.66777 0.49266 0.73852 0.0
H229 H 0.74229 0.5298 0.76983 0.0
H230 H 0.81946 0.49502 0.76858 0.0
H231 H 0.87943 0.46571 0.74385 0.0
C232 C 0.64828 0.02946 0.73996 0.0
C233 C 0.65128 0.03378 0.71402 0.0
C234 C 0.68727 0.01537 0.75275 0.0
C235 C 0.73026 0.00556 0.73985 0.0
C236 C 0.7331 0.00967 0.71395 0.0
C237 C 0.69376 0.02333 0.70109 0.0
C238 C 0.77432 0.9934 0.75317 0.0
C239 C 0.77092 0.9777 0.7746 0.0
C240 C 0.81613 0.9681 0.7884 0.0
C241 C 0.81645 0.94011 0.80082 0.0
C242 C 0.85932 0.93068 0.8136 0.0
C243 C 0.90204 0.94949 0.81464 0.0
H244 H 0.85891 0.00919 0.78105 0.0
C245 C 0.90095 0.97792 0.80288 0.0
C246 C 0.85857 0.98708 0.78982 0.0
H247 H 0.93315 0.99302 0.80344 0.0
H248 H 0.61602 0.03726 0.75045 0.0
H249 H 0.6844 0.01323 0.77281 0.0
H250 H 0.76607 0.00255 0.70366 0.0
H251 H 0.69729 0.02646 0.68113 0.0
H252 H 0.81098 -0.00278 0.74478 0.0
H253 H 0.73443 0.97099 0.78185 0.0
H254 H 0.78388 0.9253 0.80023 0.0
H255 H 0.85905 0.90873 0.82264 0.0
C256 C 0.29132 0.51437 0.78801 0.0
C257 C 0.3363 0.52358 0.77654 0.0
C258 C 0.25596 0.49729 0.77468 0.0
C259 C 0.26526 0.4889 0.74974 0.0
C260 C 0.31134 0.49662 0.73879 0.0
C261 C 0.34632 0.51406 0.75195 0.0
C262 C 0.2266 0.47367 0.73424 0.0
C263 C 0.17801 0.48135 0.73598 0.0
C264 C 0.13962 0.47112 0.71785 0.0
C265 C 0.10034 0.49093 0.71231 0.0
C266 C 0.06332 0.48252 0.69532 0.0
C267 C 0.06409 0.45375 0.68387 0.0
H268 H 0.17035 0.42637 0.71053 0.0
C269 C 0.10321 0.43369 0.6895 0.0
C270 C 0.14093 0.44237 0.70628 0.0
H271 H 0.1045 0.4113 0.68108 0.0
H272 H 0.28276 0.52111 0.807 0.0
H273 H 0.22116 0.49099 0.78381 0.0
H274 H 0.31947 0.4902 0.71967 0.0
H275 H 0.38101 0.52039 0.74273 0.0
H276 H 0.23907 0.45905 0.71909 0.0
H277 H 0.1668 0.49851 0.74951 0.0
H278 H 0.09847 0.51317 0.72101 0.0
H279 H 0.03351 0.49846 0.69157 0.0
C280 C 0.17497 0.97131 0.78814 0.0
C281 C 0.13978 0.9507 0.77817 0.0
C282 C 0.21164 0.9845 0.77283 0.0
C283 C 0.2138 0.97726 0.74724 0.0
C284 C 0.17853 0.9568 0.73735 0.0
C285 C 0.14176 0.94384 0.75255 0.0
C286 C 0.2543 0.98864 0.73065 0.0
C287 C 0.27998 0.01464 0.73458 0.0
C288 C 0.32257 0.02404 0.71839 0.0
C289 C 0.33376 0.05502 0.71542 0.0
C290 C 0.3748 0.06424 0.70089 0.0
C291 C 0.40582 0.04254 0.68942 0.0
H292 H 0.34722 0.97831 0.70927 0.0
C293 C 0.3946 0.01158 0.69245 0.0
C294 C 0.35359 0.00241 0.70678 0.0
H295 H 0.41798 0.99428 0.68401 0.0
H296 H 0.17454 0.97703 0.80782 0.0
H297 H 0.23901 -0.00042 0.78126 0.0
H298 H 0.17961 0.95062 0.71776 0.0
H299 H 0.11538 0.92802 0.7442 0.0
H300 H 0.2624 0.97518 0.71409 0.0
H301 H 0.26893 0.02985 0.7496 0.0
H302 H 0.31074 0.07212 0.72438 0.0
H303 H 0.38278 0.08828 0.69905 0.0
C304 C -0.00113 0.55735 0.42782 0.0
C305 C 0.03285 0.54389 0.41107 0.0
C306 C -0.00894 0.54497 0.45149 0.0
C307 C 0.01703 0.51875 0.45886 0.0
C308 C 0.05252 0.50615 0.44249 0.0
C309 C 0.06018 0.51844 0.4188 0.0
C310 C 0.00847 0.50393 0.48337 0.0
C311 C 0.96531 0.50619 0.49641 0.0
C312 C 0.95666 0.4906 0.52058 0.0
C313 C 0.92243 0.50315 0.53764 0.0
C314 C 0.91431 0.48961 0.56085 0.0
C315 C 0.93984 0.46298 0.56735 0.0
H316 H 0.00611 0.4523 0.51377 0.0
C317 C 0.97267 0.44976 0.54992 0.0
C318 C 0.98095 0.46336 0.52676 0.0
H319 H -0.00741 0.42909 0.55427 0.0
H320 H 0.97754 0.57714 0.42249 0.0
H321 H 0.96478 0.55609 0.46387 0.0
H322 H 0.07352 0.4862 0.44779 0.0
H323 H 0.08682 0.50762 0.40638 0.0
H324 H 0.03857 0.48991 0.49045 0.0
H325 H 0.93517 0.52027 0.4895 0.0
H326 H 0.90269 0.52387 0.53322 0.0
H327 H 0.88859 0.50029 0.57383 0.0
C328 C 0.47704 0.93579 0.43511 0.0
C329 C 0.44596 0.94958 0.41737 0.0
C330 C 0.4835 0.94885 0.45871 0.0
C331 C 0.45916 0.97613 0.46504 0.0
C332 C 0.42652 0.98918 0.44765 0.0
C333 C 0.42016 0.97616 0.42402 0.0
C334 C 0.46646 0.99148 0.48955 0.0
C335 C 0.50818 0.98837 0.50347 0.0
C336 C 0.51592 0.00389 0.52787 0.0
C337 C 0.5493 0.99108 0.54503 0.0
C338 C 0.55704 0.00457 0.56836 0.0
C339 C 0.53195 0.03142 0.57495 0.0
H340 H 0.46724 0.0425 0.52121 0.0
C341 C 0.49973 0.04481 0.55751 0.0
C342 C 0.49183 0.03125 0.5342 0.0
H343 H 0.48014 0.06564 0.56195 0.0
H344 H 0.49708 0.91513 0.43065 0.0
H345 H 0.50742 0.93737 0.47187 0.0
H346 H 0.40678 0.00995 0.45213 0.0
H347 H 0.39577 0.98727 0.41081 0.0
H348 H 0.43672 0.00639 0.49589 0.0
H349 H 0.53793 0.9735 0.49709 0.0
H350 H 0.56883 0.97023 0.54054 0.0
H351 H 0.58228 0.99374 0.58134 0.0
C352 C 0.54379 0.47411 0.05988 0.0
C353 C 0.52783 0.44482 0.06669 0.0
C354 C 0.53211 0.48577 0.03641 0.0
C355 C 0.50404 0.46835 0.01928 0.0
C356 C 0.49032 0.43856 0.02566 0.0
C357 C 0.50181 0.42694 0.04916 0.0
C358 C 0.48855 0.48033 -0.00538 0.0
C359 C 0.48215 0.51013 0.99 0.0
C360 C 0.46653 0.52193 0.96532 0.0
C361 C 0.48168 0.55128 0.95838 0.0
C362 C 0.46995 0.56262 0.93481 0.0
C363 C 0.44217 0.54494 0.91782 0.0
H364 H 0.42276 0.48251 0.95377 0.0
C365 C 0.42482 0.51615 0.92522 0.0
C366 C 0.43683 0.50475 0.94873 0.0
H367 H 0.40299 0.50207 0.91262 0.0
H368 H 0.56428 0.48836 0.0729 0.0
H369 H 0.54516 0.50838 0.03186 0.0
H370 H 0.46933 0.42449 0.01269 0.0
H371 H 0.48917 0.40423 0.05379 0.0
H372 H 0.48098 0.46376 0.98002 0.0
H373 H 0.48978 0.52678 0.00451 0.0
H374 H 0.50395 0.56517 0.97095 0.0
H375 H 0.48366 0.58495 0.92971 0.0
C376 C 0.01121 0.94326 0.94193 0.0
C377 C 0.04202 0.9567 0.9237 0.0
C378 C 0.00455 0.9572 0.96517 0.0
C379 C 0.02843 0.98503 0.97065 0.0
C380 C 0.06086 -0.00223 0.9528 0.0
C381 C 0.0674 0.98387 0.92951 0.0
C382 C 0.02089 0.00125 -0.00523 0.0
C383 C 0.97904 -0.00167 0.00878 0.0
C384 C 0.97103 0.0146 0.03285 0.0
C385 C 0.93712 0.0023 0.05022 0.0
C386 C 0.92935 0.01641 0.07331 0.0
C387 C 0.955 0.04338 0.07944 0.0
H388 H 0.0205 0.05304 0.02551 0.0
C389 C -0.01237 0.0563 0.06174 0.0
C390 C -0.00448 0.04214 0.03868 0.0
H391 H 0.00766 0.07721 0.06582 0.0
H392 H -0.0085 0.92217 0.93812 0.0
H393 H 0.98084 0.94598 0.97873 0.0
H394 H 0.08027 0.01896 0.95664 0.0
H395 H 0.09157 0.99474 0.91591 0.0
H396 H 0.05057 0.0166 0.00069 0.0
H397 H 0.94937 0.98302 0.00276 0.0
H398 H 0.91726 0.98133 0.04611 0.0
H399 H 0.90382 0.00592 0.0865 0.0
C400 C 0.14966 0.67123 0.33858 0.0
C401 C 0.11686 0.66993 0.31806 0.0
C402 C 0.18677 0.69384 0.34008 0.0
C403 C 0.19172 0.71561 0.32107 0.0
C404 C 0.1579 0.71482 0.30107 0.0
C405 C 0.1208 0.69242 0.29963 0.0
C406 C 0.23364 0.73798 0.3202 0.0
C407 C 0.25989 0.7476 0.34021 0.0
C408 C 0.30137 0.77007 0.33771 0.0
C409 C 0.30826 0.7925 0.35608 0.0
C410 C 0.34435 0.81541 0.35288 0.0
C411 C 0.37484 0.81595 0.3314 0.0
H412 H 0.33038 0.75211 0.30279 0.0
C413 C 0.36989 0.79235 0.3138 0.0
C414 C 0.33357 0.76971 0.31689 0.0
H415 H 0.39299 0.79183 0.29715 0.0
H416 H 0.14781 0.6542 0.35306 0.0
H417 H 0.21265 0.69335 0.35558 0.0
H418 H 0.16084 0.73127 0.28615 0.0
H419 H 0.09624 0.69221 0.28356 0.0
H420 H 0.24228 0.74773 0.30209 0.0
H421 H 0.24888 0.74057 0.35883 0.0
H422 H 0.28437 0.793 0.37246 0.0
H423 H 0.34742 0.83311 0.3669 0.0
C424 C 0.83495 0.17637 0.14284 0.0
C425 C 0.87859 0.18194 0.15685 0.0
C426 C 0.80038 0.19959 0.13875 0.0
C427 C 0.80914 0.22891 0.14834 0.0
C428 C 0.85411 0.2349 0.16103 0.0
C429 C 0.88824 0.21159 0.16551 0.0
C430 C 0.77145 0.25341 0.14615 0.0
C431 C 0.72183 0.24796 0.14811 0.0
C432 C 0.68435 0.27267 0.14988 0.0
C433 C 0.64217 0.26865 0.16525 0.0
C434 C 0.60783 0.29218 0.16868 0.0
C435 C 0.61437 0.32 0.15631 0.0
H436 H 0.72174 0.30368 0.12446 0.0
C437 C 0.65541 0.32353 0.14001 0.0
C438 C 0.69024 0.30016 0.13693 0.0
H439 H 0.66142 0.34466 0.13015 0.0
H440 H 0.82649 0.15381 0.13585 0.0
H441 H 0.76661 0.19447 0.12834 0.0
H442 H 0.86191 0.2574 0.16838 0.0
H443 H 0.9217 0.21665 0.1762 0.0
H444 H 0.7851 0.27671 0.14579 0.0
H445 H 0.70865 0.22487 0.15121 0.0
H446 H 0.63658 0.24757 0.17525 0.0
H447 H 0.5764 0.28866 0.18121 0.0
C448 C 0.61698 0.19581 0.66397 0.0
C449 C 0.62152 0.16661 0.65353 0.0
C450 C 0.65335 0.2181 0.65931 0.0
C451 C 0.69534 0.21151 0.64431 0.0
C452 C 0.69924 0.18259 0.63341 0.0
C453 C 0.66241 0.16048 0.6377 0.0
C454 C 0.73778 0.23326 0.64187 0.0
C455 C 0.73169 0.26357 0.6421 0.0
C456 C 0.77447 0.28527 0.64304 0.0
C457 C 0.76934 0.31409 0.63234 0.0
C458 C 0.80693 0.3361 0.63523 0.0
C459 C 0.84988 0.32995 0.64947 0.0
H460 H 0.82304 0.25691 0.66542 0.0
C461 C 0.85552 0.30086 0.65973 0.0
C462 C 0.81835 0.27868 0.65644 0.0
H463 H 0.8881 0.29546 0.67086 0.0
H464 H 0.586 0.20121 0.6763 0.0
H465 H 0.64971 0.23995 0.66846 0.0
H466 H 0.73141 0.1769 0.62195 0.0
H467 H 0.66724 0.13814 0.62951 0.0
H468 H 0.77523 0.22392 0.63987 0.0
H469 H 0.69408 0.27294 0.6416 0.0
H470 H 0.73571 0.31979 0.6221 0.0
H471 H 0.80125 0.35837 0.62725 0.0
C472 C 0.32507 0.67126 0.84568 0.0
C473 C 0.35567 0.66886 0.82433 0.0
C474 C 0.28924 0.69432 0.84763 0.0
C475 C 0.28334 0.71539 0.82821 0.0
C476 C 0.31488 0.71344 0.80728 0.0
C477 C 0.35078 0.69062 0.80541 0.0
C478 C 0.24253 0.7382 0.82799 0.0
C479 C 0.21961 0.74924 0.84852 0.0
C480 C 0.17906 0.77209 0.8466 0.0
C481 C 0.17613 0.79587 0.86406 0.0
C482 C 0.14103 0.81913 0.86106 0.0
C483 C 0.10767 0.81867 0.84076 0.0
H484 H 0.14412 0.75218 0.81382 0.0
C485 C 0.10867 0.79377 0.82424 0.0
C486 C 0.14395 0.77078 0.82711 0.0
H487 H 0.08324 0.79244 0.80855 0.0
H488 H 0.32773 0.65482 0.86057 0.0
H489 H 0.265 0.69474 0.86385 0.0
H490 H 0.3111 0.72932 0.79203 0.0
H491 H 0.37363 0.68954 0.78869 0.0
H492 H 0.23195 0.74708 0.80987 0.0
H493 H 0.2328 0.7431 0.86696 0.0
H494 H 0.20235 0.79713 0.87944 0.0
H495 H 0.14103 0.83785 0.87424 0.0
loop_
_geom_bond_atom_site_label_1
_geom_bond_atom_site_label_2
_geom_bond_distance
_geom_bond_site_symmetry_2
_ccdc_geom_bond_type
C0 O1 1.306 . S
C0 O3 1.160 . S
O1 C0 1.306 . S
O1 Cd2 2.228 . S
Cd2 O1 2.228 . S
Cd2 O6 2.273 . S
Cd2 O10 2.277 . S
O3 C0 1.160 . S
O3 Cd4 2.203 . S
Cd4 O3 2.203 . S
Cd4 O6 2.411 . S
Cd4 O7 2.333 . S
Cd4 O8 2.352 . S
Cd4 O12 2.277 . S
Cd4 O13 2.356 . S
C5 O10 1.209 . S
C5 O12 1.226 . S
O6 Cd2 2.273 . S
O6 Cd4 2.411 . S
O6 C9 1.320 . S
O7 Cd4 2.333 . S
O7 C9 1.214 . S
O8 Cd4 2.352 . S
O8 C11 1.258 . S
C9 O6 1.320 . S
C9 O7 1.214 . S
O10 Cd2 2.277 . S
O10 C5 1.209 . S
C11 O8 1.258 . S
C11 O13 1.282 . S
O12 Cd4 2.277 . S
O12 C5 1.226 . S
O13 Cd4 2.356 . S
O13 C11 1.282 . S
C14 O15 1.306 . S
C14 O17 1.160 . S
O15 C14 1.306 . S
O15 Cd16 2.228 . S
Cd16 O15 2.228 . S
Cd16 O20 2.273 . S
Cd16 O24 2.277 . S
O17 C14 1.160 . S
O17 Cd18 2.203 . S
Cd18 O17 2.203 . S
Cd18 O20 2.411 . S
Cd18 O21 2.333 . S
Cd18 O22 2.352 . S
Cd18 O26 2.277 . S
Cd18 O27 2.356 . S
C19 O24 1.209 . S
C19 O26 1.226 . S
O20 Cd16 2.273 . S
O20 Cd18 2.411 . S
O20 C23 1.320 . S
O21 Cd18 2.333 . S
O21 C23 1.214 . S
O22 Cd18 2.352 . S
O22 C25 1.258 . S
C23 O20 1.320 . S
C23 O21 1.214 . S
O24 Cd16 2.277 . S
O24 C19 1.209 . S
C25 O22 1.258 . S
C25 O27 1.282 . S
O26 Cd18 2.277 . S
O26 C19 1.226 . S
O27 Cd18 2.356 . S
O27 C25 1.282 . S
C28 O29 1.306 . S
C28 O31 1.160 . S
O29 C28 1.306 . S
O29 Cd30 2.228 . S
Cd30 O29 2.228 . S
Cd30 O34 2.273 . S
Cd30 O38 2.277 . S
O31 C28 1.160 . S
O31 Cd32 2.203 . S
Cd32 O31 2.203 . S
Cd32 O34 2.411 . S
Cd32 O35 2.333 . S
Cd32 O36 2.352 . S
Cd32 O40 2.277 . S
Cd32 O41 2.356 . S
C33 O38 1.209 . S
C33 O40 1.226 . S
O34 Cd30 2.273 . S
O34 Cd32 2.411 . S
O34 C37 1.320 . S
O35 Cd32 2.333 . S
O35 C37 1.214 . S
O36 Cd32 2.352 . S
O36 C39 1.258 . S
C37 O34 1.320 . S
C37 O35 1.214 . S
O38 Cd30 2.277 . S
O38 C33 1.209 . S
C39 O36 1.258 . S
C39 O41 1.282 . S
O40 Cd32 2.277 . S
O40 C33 1.226 . S
O41 Cd32 2.356 . S
O41 C39 1.282 . S
C42 O43 1.306 . S
C42 O45 1.160 . S
O43 C42 1.306 . S
O43 Cd44 2.228 . S
Cd44 O43 2.228 . S
Cd44 O48 2.273 . S
Cd44 O52 2.277 . S
O45 C42 1.160 . S
O45 Cd46 2.203 . S
Cd46 O45 2.203 . S
Cd46 O48 2.411 . S
Cd46 O49 2.333 . S
Cd46 O50 2.352 . S
Cd46 O54 2.277 . S
Cd46 O55 2.356 . S
C47 O52 1.209 . S
C47 O54 1.226 . S
O48 Cd44 2.273 . S
O48 Cd46 2.411 . S
O48 C51 1.320 . S
O49 Cd46 2.333 . S
O49 C51 1.214 . S
O50 Cd46 2.352 . S
O50 C53 1.258 . S
C51 O48 1.320 . S
C51 O49 1.214 . S
O52 Cd44 2.277 . S
O52 C47 1.209 . S
C53 O50 1.258 . S
C53 O55 1.282 . S
O54 Cd46 2.277 . S
O54 C47 1.226 . S
O55 Cd46 2.356 . S
O55 C53 1.282 . S
C56 O57 1.306 . S
C56 O59 1.160 . S
O57 C56 1.306 . S
O57 Cd58 2.228 . S
Cd58 O57 2.228 . S
Cd58 O62 2.273 . S
Cd58 O66 2.277 . S
O59 C56 1.160 . S
O59 Cd60 2.203 . S
Cd60 O59 2.203 . S
Cd60 O62 2.411 . S
Cd60 O63 2.333 . S
Cd60 O64 2.352 . S
Cd60 O68 2.277 . S
Cd60 O69 2.356 . S
C61 O66 1.209 . S
C61 O68 1.226 . S
O62 Cd58 2.273 . S
O62 Cd60 2.411 . S
O62 C65 1.320 . S
O63 Cd60 2.333 . S
O63 C65 1.214 . S
O64 Cd60 2.352 . S
O64 C67 1.258 . S
C65 O62 1.320 . S
C65 O63 1.214 . S
O66 Cd58 2.277 . S
O66 C61 1.209 . S
C67 O64 1.258 . S
C67 O69 1.282 . S
O68 Cd60 2.277 . S
O68 C61 1.226 . S
O69 Cd60 2.356 . S
O69 C67 1.282 . S
C70 O71 1.306 . S
C70 O73 1.160 . S
O71 C70 1.306 . S
O71 Cd72 2.228 . S
Cd72 O71 2.228 . S
Cd72 O76 2.273 . S
Cd72 O80 2.277 . S
O73 C70 1.160 . S
O73 Cd74 2.203 . S
Cd74 O73 2.203 . S
Cd74 O76 2.411 . S
Cd74 O77 2.333 . S
Cd74 O78 2.352 . S
Cd74 O82 2.277 . S
Cd74 O83 2.356 . S
C75 O80 1.209 . S
C75 O82 1.226 . S
O76 Cd72 2.273 . S
O76 Cd74 2.411 . S
O76 C79 1.320 . S
O77 Cd74 2.333 . S
O77 C79 1.214 . S
O78 Cd74 2.352 . S
O78 C81 1.258 . S
C79 O76 1.320 . S
C79 O77 1.214 . S
O80 Cd72 2.277 . S
O80 C75 1.209 . S
C81 O78 1.258 . S
C81 O83 1.282 . S
O82 Cd74 2.277 . S
O82 C75 1.226 . S
O83 Cd74 2.356 . S
O83 C81 1.282 . S
C84 O85 1.306 . S
C84 O87 1.160 . S
O85 C84 1.306 . S
O85 Cd86 2.228 . S
Cd86 O85 2.228 . S
Cd86 O90 2.273 . S
Cd86 O94 2.277 . S
O87 C84 1.160 . S
O87 Cd88 2.203 . S
Cd88 O87 2.203 . S
Cd88 O90 2.411 . S
Cd88 O91 2.333 . S
Cd88 O92 2.352 . S
Cd88 O96 2.277 . S
Cd88 O97 2.356 . S
C89 O94 1.209 . S
C89 O96 1.226 . S
O90 Cd86 2.273 . S
O90 Cd88 2.411 . S
O90 C93 1.320 . S
O91 Cd88 2.333 . S
O91 C93 1.214 . S
O92 Cd88 2.352 . S
O92 C95 1.258 . S
C93 O90 1.320 . S
C93 O91 1.214 . S
O94 Cd86 2.277 . S
O94 C89 1.209 . S
C95 O92 1.258 . S
C95 O97 1.282 . S
O96 Cd88 2.277 . S
O96 C89 1.226 . S
O97 Cd88 2.356 . S
O97 C95 1.282 . S
C98 O99 1.306 . S
C98 O101 1.160 . S
O99 C98 1.306 . S
O99 Cd100 2.228 . S
Cd100 O99 2.228 . S
Cd100 O104 2.273 . S
Cd100 O108 2.277 . S
O101 C98 1.160 . S
O101 Cd102 2.203 . S
Cd102 O101 2.203 . S
Cd102 O104 2.411 . S
Cd102 O105 2.333 . S
Cd102 O106 2.352 . S
Cd102 O110 2.277 . S
Cd102 O111 2.356 . S
C103 O108 1.209 . S
C103 O110 1.226 . S
O104 Cd100 2.273 . S
O104 Cd102 2.411 . S
O104 C107 1.320 . S
O105 Cd102 2.333 . S
O105 C107 1.214 . S
O106 Cd102 2.352 . S
O106 C109 1.258 . S
C107 O104 1.320 . S
C107 O105 1.214 . S
O108 Cd100 2.277 . S
O108 C103 1.209 . S
C109 O106 1.258 . S
C109 O111 1.282 . S
O110 Cd102 2.277 . S
O110 C103 1.226 . S
O111 Cd102 2.356 . S
O111 C109 1.282 . S
C112 C113 1.386 . S
C112 C114 1.383 . S
C112 H128 0.951 . S
C113 C112 1.386 . S
C113 C117 1.383 . S
C114 C112 1.383 . S
C114 C115 1.402 . S
C114 H129 0.951 . S
C115 C114 1.402 . S
C115 C116 1.375 . S
C115 C118 1.481 . S
C116 C115 1.375 . S
C116 C117 1.367 . S
C116 H130 0.951 . S
C117 C113 1.383 . S
C117 C116 1.367 . S
C117 H131 0.950 . S
C118 C115 1.481 . S
C118 C119 1.297 . S
C118 H132 0.950 . S
C119 C118 1.297 . S
C119 C120 1.479 . S
C119 H133 0.950 . S
C120 C119 1.479 . S
C120 C121 1.375 . S
C120 C126 1.404 . S
C121 C120 1.375 . S
C121 C122 1.369 . S
C121 H134 0.950 . S
C122 C121 1.369 . S
C122 C123 1.392 . S
C122 H135 0.951 . S
C123 C122 1.392 . S
C123 C125 1.384 . S
H124 C126 0.949 . S
C125 C123 1.384 . S
C125 C126 1.385 . S
C125 H127 0.950 . S
C126 C120 1.404 . S
C126 H124 0.949 . S
C126 C125 1.385 . S
H127 C125 0.950 . S
H128 C112 0.951 . S
H129 C114 0.951 . S
H130 C116 0.951 . S
H131 C117 0.950 . S
H132 C118 0.950 . S
H133 C119 0.950 . S
H134 C121 0.950 . S
H135 C122 0.951 . S
C136 C137 1.386 1_455 S
C136 C138 1.383 . S
C136 H152 0.951 . S
C137 C136 1.386 1_655 S
C137 C141 1.383 . S
C138 C136 1.383 . S
C138 C139 1.402 . S
C138 H153 0.951 . S
C139 C138 1.402 . S
C139 C140 1.375 . S
C139 C142 1.481 . S
C140 C139 1.375 . S
C140 C141 1.367 1_455 S
C140 H154 0.951 . S
C141 C137 1.383 . S
C141 C140 1.367 1_655 S
C141 H155 0.950 . S
C142 C139 1.481 . S
C142 C143 1.297 . S
C142 H156 0.950 . S
C143 C142 1.297 . S
C143 C144 1.479 1_545 S
C143 H157 0.956 . S
C144 C143 1.479 1_565 S
C144 C145 1.375 . S
C144 C150 1.404 1_565 S
C145 C144 1.375 . S
C145 C146 1.369 . S
C145 H158 0.950 . S
C146 C145 1.369 . S
C146 C147 1.392 . S
C146 H159 0.951 . S
C147 C146 1.392 . S
C147 C149 1.384 . S
H148 C150 0.949 . S
C149 C147 1.384 . S
C149 C150 1.385 1_565 S
C149 H151 0.950 1_565 S
C150 C144 1.404 1_545 S
C150 H148 0.949 . S
C150 C149 1.385 1_545 S
H151 C149 0.950 1_545 S
H152 C136 0.951 . S
H153 C138 0.951 . S
H154 C140 0.951 . S
H155 C141 0.950 . S
H156 C142 0.950 . S
H157 C143 0.956 . S
H158 C145 0.950 . S
H159 C146 0.951 . S
C160 C161 1.386 . S
C160 C162 1.383 . S
C160 H176 0.951 . S
C161 C160 1.386 . S
C161 C165 1.383 . S
C162 C160 1.383 . S
C162 C163 1.402 . S
C162 H177 0.951 . S
C163 C162 1.402 . S
C163 C164 1.375 . S
C163 C166 1.481 . S
C164 C163 1.375 . S
C164 C165 1.367 . S
C164 H178 0.951 . S
C165 C161 1.383 . S
C165 C164 1.367 . S
C165 H179 0.950 . S
C166 C163 1.481 . S
C166 C167 1.297 . S
C166 H180 0.950 . S
C167 C166 1.297 . S
C167 C168 1.479 . S
C167 H181 0.950 . S
C168 C167 1.479 . S
C168 C169 1.375 . S
C168 C174 1.404 . S
C169 C168 1.375 . S
C169 C170 1.369 1_655 S
C169 H182 0.950 . S
C170 C169 1.369 1_455 S
C170 C171 1.392 . S
C170 H183 0.951 . S
C171 C170 1.392 . S
C171 C173 1.384 1_455 S
H172 C174 0.949 . S
C173 C171 1.384 1_655 S
C173 C174 1.385 . S
C173 H175 0.950 . S
C174 C168 1.404 . S
C174 H172 0.949 . S
C174 C173 1.385 . S
H175 C173 0.950 . S
H176 C160 0.951 . S
H177 C162 0.951 . S
H178 C164 0.951 . S
H179 C165 0.950 . S
H180 C166 0.950 . S
H181 C167 0.950 . S
H182 C169 0.950 . S
H183 C170 0.951 . S
C184 C185 1.386 . S
C184 C186 1.383 1_545 S
C184 H200 0.951 1_545 S
C185 C184 1.386 . S
C185 C189 1.383 . S
C186 C184 1.383 1_565 S
C186 C187 1.402 1_565 S
C186 H201 0.951 . S
C187 C186 1.402 1_545 S
C187 C188 1.375 . S
C187 C190 1.481 . S
C188 C187 1.375 . S
C188 C189 1.367 . S
C188 H202 0.951 . S
C189 C185 1.383 . S
C189 C188 1.367 . S
C189 H203 0.950 . S
C190 C187 1.481 . S
C190 C191 1.297 1_545 S
C190 H204 0.950 . S
C191 C190 1.297 1_565 S
C191 C192 1.479 . S
C191 H205 0.950 . S
C192 C191 1.479 . S
C192 C193 1.375 . S
C192 C198 1.404 1_565 S
C193 C192 1.375 . S
C193 C194 1.369 . S
C193 H206 0.950 . S
C194 C193 1.369 . S
C194 C195 1.392 . S
C194 H207 0.951 . S
C195 C194 1.392 . S
C195 C197 1.384 . S
H196 C198 0.949 . S
C197 C195 1.384 . S
C197 C198 1.385 1_565 S
C197 H199 0.950 1_565 S
C198 C192 1.404 1_545 S
C198 H196 0.949 . S
C198 C197 1.385 1_545 S
H199 C197 0.950 1_545 S
H200 C184 0.951 1_565 S
H201 C186 0.951 . S
H202 C188 0.951 . S
H203 C189 0.950 . S
H204 C190 0.950 . S
H205 C191 0.950 . S
H206 C193 0.950 . S
H207 C194 0.951 . S
C208 C209 1.386 . S
C208 C210 1.383 . S
C208 H224 0.951 . S
C209 C208 1.386 . S
C209 C213 1.383 . S
C210 C208 1.383 . S
C210 C211 1.402 . S
C210 H225 0.951 . S
C211 C210 1.402 . S
C211 C212 1.375 . S
C211 C214 1.481 . S
C212 C211 1.375 . S
C212 C213 1.367 . S
C212 H226 0.951 . S
C213 C209 1.383 . S
C213 C212 1.367 . S
C213 H227 0.950 . S
C214 C211 1.481 . S
C214 C215 1.297 . S
C214 H228 0.950 . S
C215 C214 1.297 . S
C215 C216 1.479 . S
C215 H229 0.950 . S
C216 C215 1.479 . S
C216 C217 1.375 . S
C216 C222 1.404 . S
C217 C216 1.375 . S
C217 C218 1.369 . S
C217 H230 0.950 . S
C218 C217 1.369 . S
C218 C219 1.392 . S
C218 H231 0.951 . S
C219 C218 1.392 . S
C219 C221 1.384 . S
H220 C222 0.949 . S
C221 C219 1.384 . S
C221 C222 1.385 . S
C221 H223 0.950 . S
C222 C216 1.404 . S
C222 H220 0.949 . S
C222 C221 1.385 . S
H223 C221 0.950 . S
H224 C208 0.951 . S
H225 C210 0.951 . S
H226 C212 0.951 . S
H227 C213 0.950 . S
H228 C214 0.950 . S
H229 C215 0.950 . S
H230 C217 0.950 . S
H231 C218 0.951 . S
C232 C233 1.386 . S
C232 C234 1.376 1_545 S
C232 H248 0.957 . S
C233 C232 1.386 . S
C233 C237 1.383 . S
C234 C232 1.376 1_565 S
C234 C235 1.394 1_565 S
C234 H249 0.966 . S
C235 C234 1.394 1_545 S
C235 C236 1.375 . S
C235 C238 1.481 . S
C236 C235 1.375 . S
C236 C237 1.367 . S
C236 H250 0.951 . S
C237 C233 1.383 . S
C237 C236 1.367 . S
C237 H251 0.950 . S
C238 C235 1.481 . S
C238 C239 1.297 1_545 S
C238 H252 0.950 . S
C239 C238 1.297 1_565 S
C239 C240 1.479 . S
C239 H253 0.950 . S
C240 C239 1.479 . S
C240 C241 1.375 . S
C240 C246 1.404 . S
C241 C240 1.375 . S
C241 C242 1.369 . S
C241 H254 0.950 . S
C242 C241 1.369 . S
C242 C243 1.392 1_655 S
C242 H255 0.951 . S
C243 C242 1.392 1_455 S
C243 C245 1.384 . S
H244 C246 0.949 . S
C245 C243 1.384 . S
C245 C246 1.385 1_455 S
C245 H247 0.950 . S
C246 C240 1.404 . S
C246 H244 0.949 . S
C246 C245 1.385 1_655 S
H247 C245 0.950 . S
H248 C232 0.957 . S
H249 C234 0.966 . S
H250 C236 0.951 . S
H251 C237 0.950 . S
H252 C238 0.950 . S
H253 C239 0.950 . S
H254 C241 0.950 . S
H255 C242 0.951 . S
C256 C257 1.386 . S
C256 C258 1.383 . S
C256 H272 0.951 . S
C257 C256 1.386 . S
C257 C261 1.383 . S
C258 C256 1.383 . S
C258 C259 1.402 . S
C258 H273 0.951 . S
C259 C258 1.402 . S
C259 C260 1.375 . S
C259 C262 1.481 . S
C260 C259 1.375 . S
C260 C261 1.367 . S
C260 H274 0.951 . S
C261 C257 1.383 . S
C261 C260 1.367 . S
C261 H275 0.950 . S
C262 C259 1.481 . S
C262 C263 1.297 . S
C262 H276 0.950 . S
C263 C262 1.297 . S
C263 C264 1.479 . S
C263 H277 0.950 . S
C264 C263 1.479 . S
C264 C265 1.375 . S
C264 C270 1.404 . S
C265 C264 1.375 . S
C265 C266 1.369 1_455 S
C265 H278 0.948 1_455 S
C266 C265 1.369 1_655 S
C266 C267 1.392 . S
C266 H279 0.951 . S
C267 C266 1.392 . S
C267 C269 1.384 1_655 S
H268 C270 0.949 . S
C269 C267 1.384 1_455 S
C269 C270 1.385 . S
C269 H271 0.950 . S
C270 C264 1.404 . S
C270 H268 0.949 . S
C270 C269 1.385 . S
H271 C269 0.950 . S
H272 C256 0.951 . S
H273 C258 0.951 . S
H274 C260 0.951 . S
H275 C261 0.950 . S
H276 C262 0.950 . S
H277 C263 0.950 . S
H278 C265 0.948 1_655 S
H279 C266 0.951 . S
C280 C281 1.386 . S
C280 C282 1.383 . S
C280 H296 0.951 . S
C281 C280 1.386 . S
C281 C285 1.383 . S
C282 C280 1.383 . S
C282 C283 1.402 . S
C282 H297 0.951 . S
C283 C282 1.402 . S
C283 C284 1.375 . S
C283 C286 1.481 . S
C284 C283 1.375 . S
C284 C285 1.367 . S
C284 H298 0.951 . S
C285 C281 1.383 . S
C285 C284 1.367 . S
C285 H299 0.950 . S
C286 C283 1.481 . S
C286 C287 1.297 . S
C286 H300 0.950 . S
C287 C286 1.297 . S
C287 C288 1.479 1_565 S
C287 H301 0.950 . S
C288 C287 1.479 1_545 S
C288 C289 1.375 . S
C288 C294 1.404 1_545 S
C289 C288 1.375 . S
C289 C290 1.369 . S
C289 H302 0.950 . S
C290 C289 1.369 . S
C290 C291 1.392 . S
C290 H303 0.951 . S
C291 C290 1.392 . S
C291 C293 1.384 . S
H292 C294 0.949 . S
C293 C291 1.384 . S
C293 C294 1.385 1_545 S
C293 H295 0.950 . S
C294 C288 1.404 1_565 S
C294 H292 0.949 . S
C294 C293 1.385 1_565 S
H295 C293 0.950 . S
H296 C280 0.951 . S
H297 C282 0.951 . S
H298 C284 0.951 . S
H299 C285 0.950 . S
H300 C286 0.950 . S
H301 C287 0.950 . S
H302 C289 0.950 . S
H303 C290 0.951 . S
C304 C305 1.386 . S
C304 C306 1.383 . S
C304 H320 0.951 . S
C305 C304 1.386 . S
C305 C309 1.383 . S
C306 C304 1.383 . S
C306 C307 1.402 . S
C306 H321 0.951 . S
C307 C306 1.402 . S
C307 C308 1.375 . S
C307 C310 1.481 1_455 S
C308 C307 1.375 . S
C308 C309 1.367 . S
C308 H322 0.951 1_455 S
C309 C305 1.383 . S
C309 C308 1.367 . S
C309 H323 0.950 . S
C310 C307 1.481 1_655 S
C310 C311 1.297 . S
C310 H324 0.950 . S
C311 C310 1.297 . S
C311 C312 1.479 . S
C311 H325 0.950 . S
C312 C311 1.479 . S
C312 C313 1.375 . S
C312 C318 1.404 . S
C313 C312 1.375 . S
C313 C314 1.369 . S
C313 H326 0.950 . S
C314 C313 1.369 . S
C314 C315 1.392 . S
C314 H327 0.951 . S
C315 C314 1.392 . S
C315 C317 1.384 . S
H316 C318 0.949 . S
C317 C315 1.384 . S
C317 C318 1.385 . S
C317 H319 0.950 . S
C318 C312 1.404 . S
C318 H316 0.949 . S
C318 C317 1.385 . S
H319 C317 0.950 . S
H320 C304 0.951 . S
H321 C306 0.951 . S
H322 C308 0.951 1_655 S
H323 C309 0.950 . S
H324 C310 0.950 . S
H325 C311 0.950 . S
H326 C313 0.950 . S
H327 C314 0.951 . S
C328 C329 1.386 . S
C328 C330 1.383 . S
C328 H344 0.951 . S
C329 C328 1.386 . S
C329 C333 1.383 . S
C330 C328 1.383 . S
C330 C331 1.402 . S
C330 H345 0.951 . S
C331 C330 1.402 . S
C331 C332 1.375 1_565 S
C331 C334 1.481 1_565 S
C332 C331 1.375 1_545 S
C332 C333 1.367 1_545 S
C332 H346 0.951 . S
C333 C329 1.383 . S
C333 C332 1.367 1_565 S
C333 H347 0.950 1_565 S
C334 C331 1.481 1_545 S
C334 C335 1.297 1_545 S
C334 H348 0.950 . S
C335 C334 1.297 1_565 S
C335 C336 1.479 1_565 S
C335 H349 0.950 . S
C336 C335 1.479 1_545 S
C336 C337 1.375 1_545 S
C336 C342 1.404 . S
C337 C336 1.375 1_565 S
C337 C338 1.369 1_565 S
C337 H350 0.950 . S
C338 C337 1.369 1_545 S
C338 C339 1.392 . S
C338 H351 0.951 1_545 S
C339 C338 1.392 . S
C339 C341 1.384 . S
H340 C342 0.949 . S
C341 C339 1.384 . S
C341 C342 1.385 . S
C341 H343 0.950 . S
C342 C336 1.404 . S
C342 H340 0.949 . S
C342 C341 1.385 . S
H343 C341 0.950 . S
H344 C328 0.951 . S
H345 C330 0.951 . S
H346 C332 0.951 . S
H347 C333 0.950 1_545 S
H348 C334 0.950 . S
H349 C335 0.950 . S
H350 C337 0.950 . S
H351 C338 0.951 1_565 S
C352 C353 1.386 . S
C352 C354 1.383 . S
C352 H368 0.951 . S
C353 C352 1.386 . S
C353 C357 1.383 . S
C354 C352 1.383 . S
C354 C355 1.402 . S
C354 H369 0.951 . S
C355 C354 1.402 . S
C355 C356 1.375 . S
C355 C358 1.481 . S
C356 C355 1.375 . S
C356 C357 1.367 . S
C356 H370 0.951 . S
C357 C353 1.383 . S
C357 C356 1.367 . S
C357 H371 0.950 . S
C358 C355 1.481 . S
C358 C359 1.297 1_554 S
C358 H372 0.950 . S
C359 C358 1.297 1_556 S
C359 C360 1.479 . S
C359 H373 0.950 . S
C360 C359 1.479 . S
C360 C361 1.375 . S
C360 C366 1.404 . S
C361 C360 1.375 . S
C361 C362 1.369 . S
C361 H374 0.950 . S
C362 C361 1.369 . S
C362 C363 1.392 . S
C362 H375 0.951 . S
C363 C362 1.392 . S
C363 C365 1.384 . S
H364 C366 0.949 . S
C365 C363 1.384 . S
C365 C366 1.385 . S
C365 H367 0.950 . S
C366 C360 1.404 . S
C366 H364 0.949 . S
C366 C365 1.385 . S
H367 C365 0.950 . S
H368 C352 0.951 . S
H369 C354 0.951 . S
H370 C356 0.951 . S
H371 C357 0.950 . S
H372 C358 0.950 . S
H373 C359 0.950 . S
H374 C361 0.950 . S
H375 C362 0.951 . S
C376 C377 1.386 . S
C376 C378 1.383 . S
C376 H392 0.951 . S
C377 C376 1.386 . S
C377 C381 1.383 . S
C378 C376 1.383 . S
C378 C379 1.402 . S
C378 H393 0.951 . S
C379 C378 1.402 . S
C379 C380 1.375 1_565 S
C379 C382 1.481 1_565 S
C380 C379 1.375 1_545 S
C380 C381 1.367 1_545 S
C380 H394 0.951 . S
C381 C377 1.383 . S
C381 C380 1.367 1_565 S
C381 H395 0.950 1_565 S
C382 C379 1.481 1_545 S
C382 C383 1.297 1_546 S
C382 H396 0.950 . S
C383 C382 1.297 1_564 S
C383 C384 1.479 1_465 S
C383 H397 0.950 1_455 S
C384 C383 1.479 1_645 S
C384 C385 1.375 1_545 S
C384 C390 1.404 1_655 S
C385 C384 1.375 1_565 S
C385 C386 1.369 1_565 S
C385 H398 0.950 . S
C386 C385 1.369 1_545 S
C386 C387 1.392 . S
C386 H399 0.951 1_545 S
C387 C386 1.392 . S
C387 C389 1.384 . S
H388 C390 0.949 . S
C389 C387 1.384 . S
C389 C390 1.385 1_655 S
C389 H391 0.950 . S
C390 C384 1.404 1_455 S
C390 H388 0.949 . S
C390 C389 1.385 1_455 S
H391 C389 0.950 . S
H392 C376 0.951 . S
H393 C378 0.951 . S
H394 C380 0.951 . S
H395 C381 0.950 1_545 S
H396 C382 0.950 . S
H397 C383 0.950 1_655 S
H398 C385 0.950 . S
H399 C386 0.951 1_565 S
C400 C401 1.386 . S
C400 C402 1.383 . S
C400 H416 0.951 . S
C401 C400 1.386 . S
C401 C405 1.383 . S
C402 C400 1.383 . S
C402 C403 1.402 . S
C402 H417 0.951 . S
C403 C402 1.402 . S
C403 C404 1.375 . S
C403 C406 1.481 . S
C404 C403 1.375 . S
C404 C405 1.367 . S
C404 H418 0.951 . S
C405 C401 1.383 . S
C405 C404 1.367 . S
C405 H419 0.950 . S
C406 C403 1.481 . S
C406 C407 1.297 . S
C406 H420 0.950 . S
C407 C406 1.297 . S
C407 C408 1.479 . S
C407 H421 0.950 . S
C408 C407 1.479 . S
C408 C409 1.375 . S
C408 C414 1.404 . S
C409 C408 1.375 . S
C409 C410 1.369 . S
C409 H422 0.950 . S
C410 C409 1.369 . S
C410 C411 1.392 . S
C410 H423 0.951 . S
C411 C410 1.392 . S
C411 C413 1.384 . S
H412 C414 0.949 . S
C413 C411 1.384 . S
C413 C414 1.385 . S
C413 H415 0.950 . S
C414 C408 1.404 . S
C414 H412 0.949 . S
C414 C413 1.385 . S
H415 C413 0.950 . S
H416 C400 0.951 . S
H417 C402 0.951 . S
H418 C404 0.951 . S
H419 C405 0.950 . S
H420 C406 0.950 . S
H421 C407 0.950 . S
H422 C409 0.950 . S
H423 C410 0.951 . S
C424 C425 1.386 . S
C424 C426 1.383 . S
C424 H440 0.951 . S
C425 C424 1.386 . S
C425 C429 1.383 . S
C426 C424 1.383 . S
C426 C427 1.402 . S
C426 H441 0.951 . S
C427 C426 1.402 . S
C427 C428 1.375 . S
C427 C430 1.481 . S
C428 C427 1.375 . S
C428 C429 1.367 . S
C428 H442 0.951 . S
C429 C425 1.383 . S
C429 C428 1.367 . S
C429 H443 0.950 . S
C430 C427 1.481 . S
C430 C431 1.297 . S
C430 H444 0.950 . S
C431 C430 1.297 . S
C431 C432 1.479 . S
C431 H445 0.950 . S
C432 C431 1.479 . S
C432 C433 1.375 . S
C432 C438 1.404 . S
C433 C432 1.375 . S
C433 C434 1.369 . S
C433 H446 0.950 . S
C434 C433 1.369 . S
C434 C435 1.392 . S
C434 H447 0.951 . S
C435 C434 1.392 . S
C435 C437 1.384 . S
H436 C438 0.949 . S
C437 C435 1.384 . S
C437 C438 1.385 . S
C437 H439 0.950 . S
C438 C432 1.404 . S
C438 H436 0.949 . S
C438 C437 1.385 . S
H439 C437 0.950 . S
H440 C424 0.951 . S
H441 C426 0.951 . S
H442 C428 0.951 . S
H443 C429 0.950 . S
H444 C430 0.950 . S
H445 C431 0.950 . S
H446 C433 0.950 . S
H447 C434 0.951 . S
C448 C449 1.386 . S
C448 C450 1.383 . S
C448 H464 0.951 . S
C449 C448 1.386 . S
C449 C453 1.383 . S
C450 C448 1.383 . S
C450 C451 1.402 . S
C450 H465 0.951 . S
C451 C450 1.402 . S
C451 C452 1.375 . S
C451 C454 1.481 . S
C452 C451 1.375 . S
C452 C453 1.367 . S
C452 H466 0.951 . S
C453 C449 1.383 . S
C453 C452 1.367 . S
C453 H467 0.950 . S
C454 C451 1.481 . S
C454 C455 1.297 . S
C454 H468 0.950 . S
C455 C454 1.297 . S
C455 C456 1.479 . S
C455 H469 0.950 . S
C456 C455 1.479 . S
C456 C457 1.375 . S
C456 C462 1.404 . S
C457 C456 1.375 . S
C457 C458 1.369 . S
C457 H470 0.950 . S
C458 C457 1.369 . S
C458 C459 1.392 . S
C458 H471 0.951 . S
C459 C458 1.392 . S
C459 C461 1.384 . S
H460 C462 0.949 . S
C461 C459 1.384 . S
C461 C462 1.385 . S
C461 H463 0.950 . S
C462 C456 1.404 . S
C462 H460 0.949 . S
C462 C461 1.385 . S
H463 C461 0.950 . S
H464 C448 0.951 . S
H465 C450 0.951 . S
H466 C452 0.951 . S
H467 C453 0.950 . S
H468 C454 0.950 . S
H469 C455 0.950 . S
H470 C457 0.950 . S
H471 C458 0.951 . S
C472 C473 1.386 . S
C472 C474 1.383 . S
C472 H488 0.951 . S
C473 C472 1.386 . S
C473 C477 1.383 . S
C474 C472 1.383 . S
C474 C475 1.402 . S
C474 H489 0.951 . S
C475 C474 1.402 . S
C475 C476 1.375 . S
C475 C478 1.481 . S
C476 C475 1.375 . S
C476 C477 1.367 . S
C476 H490 0.951 . S
C477 C473 1.383 . S
C477 C476 1.367 . S
C477 H491 0.950 . S
C478 C475 1.481 . S
C478 C479 1.297 . S
C478 H492 0.950 . S
C479 C478 1.297 . S
C479 C480 1.479 . S
C479 H493 0.950 . S
C480 C479 1.479 . S
C480 C481 1.375 . S
C480 C486 1.404 . S
C481 C480 1.375 . S
C481 C482 1.369 . S
C481 H494 0.950 . S
C482 C481 1.369 . S
C482 C483 1.392 . S
C482 H495 0.951 . S
C483 C482 1.392 . S
C483 C485 1.384 . S
H484 C486 0.949 . S
C485 C483 1.384 . S
C485 C486 1.385 . S
C485 H487 0.950 . S
C486 C480 1.404 . S
C486 H484 0.949 . S
C486 C485 1.385 . S
H487 C485 0.950 . S
H488 C472 0.951 . S
H489 C474 0.951 . S
H490 C476 0.951 . S
H491 C477 0.950 . S
H492 C478 0.950 . S
H493 C479 0.950 . S
H494 C481 0.950 . S
H495 C482 0.951 . S
C113 C5 1.405 . S
C123 C37 1.397 . S
C137 C51 1.405 . S
C147 C19 1.392 . S
C161 C33 1.396 . S
C171 C9 1.401 . S
C185 C47 1.391 . S
C195 C23 1.392 . S
C209 C93 1.399 . S
C219 C61 1.384 . S
C233 C75 1.404 . S
C243 C107 1.402 . S
C257 C89 1.391 . S
C267 C65 1.383 . S
C281 C103 1.392 . S
C291 C79 1.387 . S
C305 C11 1.502 . S
C315 C67 1.489 . S
C329 C25 1.499 . S
C339 C81 1.493 . S
C353 C39 1.508 . S
C363 C95 1.482 . S
C377 C109 1.504 . S
C387 C53 1.484 . S
C401 C0 1.490 . S
C411 C14 1.504 . S
C425 C42 1.491 . S
C435 C28 1.477 . S
C449 C70 1.501 . S
C459 C56 1.477 . S
C473 C84 1.490 . S
C483 C98 1.482 . S
