# Generated by pormake.
# Topology uoz, (4)-cn, num edge types: 1
# Building blocks:
#     Node 0, Type 0, BuildingBlock: QUQFOY_clean_sbu_1, # of connection points: 4
#     Node 1, Type 0, BuildingBlock: QUQFOY_clean_sbu_1, # of connection points: 4
#     Node 2, Type 0, BuildingBlock: QUQFOY_clean_sbu_1, # of connection points: 4
#     Node 3, Type 0, BuildingBlock: QUQFOY_clean_sbu_1, # of connection points: 4
#     Node 4, Type 0, BuildingBlock: QUQFOY_clean_sbu_1, # of connection points: 4
#     Node 5, Type 0, BuildingBlock: QUQFOY_clean_sbu_1, # of connection points: 4
#     Node 6, Type 0, BuildingBlock: QUQFOY_clean_sbu_1, # of connection points: 4
#     Node 7, Type 0, BuildingBlock: QUQFOY_clean_sbu_1, # of connection points: 4
#     Node 8, Type 0, BuildingBlock: QUQFOY_clean_sbu_1, # of connection points: 4
#     Node 9, Type 0, BuildingBlock: QUQFOY_clean_sbu_1, # of connection points: 4
#     Node 10, Type 0, BuildingBlock: QUQFOY_clean_sbu_1, # of connection points: 4
#     Node 11, Type 0, BuildingBlock: QUQFOY_clean_sbu_1, # of connection points: 4
#     Node 12, Type 0, BuildingBlock: QUQFOY_clean_sbu_1, # of connection points: 4
#     Node 13, Type 0, BuildingBlock: QUQFOY_clean_sbu_1, # of connection points: 4
#     Node 14, Type 0, BuildingBlock: QUQFOY_clean_sbu_1, # of connection points: 4
#     Node 15, Type 0, BuildingBlock: QUQFOY_clean_sbu_1, # of connection points: 4
#     Edge 16, Type (0, 0), BuildingBlock: CIFDUS_clean_linker_0, # of connection points: 2
#     Edge 17, Type (0, 0), BuildingBlock: CIFDUS_clean_linker_0, # of connection points: 2
#     Edge 18, Type (0, 0), BuildingBlock: CIFDUS_clean_linker_0, # of connection points: 2
#     Edge 19, Type (0, 0), BuildingBlock: CIFDUS_clean_linker_0, # of connection points: 2
#     Edge 20, Type (0, 0), BuildingBlock: CIFDUS_clean_linker_0, # of connection points: 2
#     Edge 21, Type (0, 0), BuildingBlock: CIFDUS_clean_linker_0, # of connection points: 2
#     Edge 22, Type (0, 0), BuildingBlock: CIFDUS_clean_linker_0, # of connection points: 2
#     Edge 23, Type (0, 0), BuildingBlock: CIFDUS_clean_linker_0, # of connection points: 2
#     Edge 24, Type (0, 0), BuildingBlock: CIFDUS_clean_linker_0, # of connection points: 2
#     Edge 25, Type (0, 0), BuildingBlock: CIFDUS_clean_linker_0, # of connection points: 2
#     Edge 26, Type (0, 0), BuildingBlock: CIFDUS_clean_linker_0, # of connection points: 2
#     Edge 27, Type (0, 0), BuildingBlock: CIFDUS_clean_linker_0, # of connection points: 2
#     Edge 28, Type (0, 0), BuildingBlock: CIFDUS_clean_linker_0, # of connection points: 2
#     Edge 29, Type (0, 0), BuildingBlock: CIFDUS_clean_linker_0, # of connection points: 2
#     Edge 30, Type (0, 0), BuildingBlock: CIFDUS_clean_linker_0, # of connection points: 2
#     Edge 31, Type (0, 0), BuildingBlock: CIFDUS_clean_linker_0, # of connection points: 2
#     Edge 32, Type (0, 0), BuildingBlock: CIFDUS_clean_linker_0, # of connection points: 2
#     Edge 33, Type (0, 0), BuildingBlock: CIFDUS_clean_linker_0, # of connection points: 2
#     Edge 34, Type (0, 0), BuildingBlock: CIFDUS_clean_linker_0, # of connection points: 2
#     Edge 35, Type (0, 0), BuildingBlock: CIFDUS_clean_linker_0, # of connection points: 2
#     Edge 36, Type (0, 0), BuildingBlock: CIFDUS_clean_linker_0, # of connection points: 2
#     Edge 37, Type (0, 0), BuildingBlock: CIFDUS_clean_linker_0, # of connection points: 2
#     Edge 38, Type (0, 0), BuildingBlock: CIFDUS_clean_linker_0, # of connection points: 2
#     Edge 39, Type (0, 0), BuildingBlock: CIFDUS_clean_linker_0, # of connection points: 2
#     Edge 40, Type (0, 0), BuildingBlock: CIFDUS_clean_linker_0, # of connection points: 2
#     Edge 41, Type (0, 0), BuildingBlock: CIFDUS_clean_linker_0, # of connection points: 2
#     Edge 42, Type (0, 0), BuildingBlock: CIFDUS_clean_linker_0, # of connection points: 2
#     Edge 43, Type (0, 0), BuildingBlock: CIFDUS_clean_linker_0, # of connection points: 2
#     Edge 44, Type (0, 0), BuildingBlock: CIFDUS_clean_linker_0, # of connection points: 2
#     Edge 45, Type (0, 0), BuildingBlock: CIFDUS_clean_linker_0, # of connection points: 2
#     Edge 46, Type (0, 0), BuildingBlock: CIFDUS_clean_linker_0, # of connection points: 2
#     Edge 47, Type (0, 0), BuildingBlock: CIFDUS_clean_linker_0, # of connection points: 2
# Relax obj value: 0.164
# Max RMSD: 0.207
# Mean RMSD: 0.207
data_MOF--net-uoz--node1-QUQFOY_clean_sbu_1--edge1-CIFDUS_clean_linker_0
_symmetry_space_group_name_H-M    P1
_symmetry_Int_Tables_number       1
_symmetry_cell_setting            triclinic
loop_
_symmetry_equiv_pos_as_xyz
'x, y, z'
_cell_length_a     56.86776
_cell_length_b     56.834788
_cell_length_c     19.930115
_cell_angle_alpha  89.934988
_cell_angle_beta   89.947226
_cell_angle_gamma 89.907159
loop_
_atom_site_label
_atom_site_type_symbol
_atom_site_fract_x
_atom_site_fract_y
_atom_site_fract_z
_atom_type_partial_charge
O0 O 0.08075 0.55558 0.24995 0.0
Cd1 Cd 0.08515 0.57552 0.3335 0.0
Cd2 Cd 0.04473 0.59984 0.27243 0.0
O3 O 0.04468 0.56736 0.2267 0.0
O4 O 0.10747 0.55657 0.38807 0.0
O5 O 0.07069 0.56333 0.41898 0.0
C6 C 0.09055 0.55292 0.42977 0.0
C7 C 0.00853 0.61879 0.25645 0.0
C8 C 0.06179 0.55343 0.21732 0.0
C9 C 0.09361 0.62341 0.28159 0.0
O10 O 0.07267 0.62287 0.25943 0.0
O11 O 0.10178 0.60684 0.31743 0.0
O12 O 0.0228 0.61482 0.2079 0.0
O13 O 0.01474 0.61205 0.31567 0.0
O14 O 0.75466 0.77707 0.47046 0.0
Cd15 Cd 0.73503 0.77661 0.55707 0.0
Cd16 Cd 0.71327 0.74211 0.48059 0.0
O17 O 0.74811 0.73943 0.45646 0.0
O18 O 0.75503 0.79323 0.62301 0.0
O19 O 0.74616 0.75538 0.63113 0.0
C20 C 0.75775 0.77333 0.65326 0.0
C21 C 0.69192 0.70874 0.44997 0.0
C22 C 0.76014 0.7576 0.44379 0.0
C23 C 0.69036 0.78979 0.50188 0.0
O24 O 0.69435 0.77263 0.46272 0.0
O25 O 0.70278 0.7927 0.55406 0.0
O26 O 0.70047 0.72288 0.40605 0.0
O27 O 0.69569 0.71335 0.51245 0.0
O28 O 0.52585 0.44271 0.72663 0.0
Cd29 Cd 0.52618 0.42187 0.80965 0.0
Cd30 Cd 0.56413 0.40044 0.73719 0.0
O31 O 0.55977 0.43117 0.68386 0.0
O32 O 0.50554 0.43923 0.87316 0.0
O33 O 0.54363 0.43404 0.89043 0.0
C34 C 0.52393 0.44339 0.90887 0.0
C35 C 0.60167 0.38341 0.73138 0.0
C36 C 0.542 0.44475 0.68323 0.0
C37 C 0.51796 0.37389 0.75784 0.0
O38 O 0.53798 0.37553 0.73002 0.0
O39 O 0.51029 0.3899 0.79649 0.0
O40 O 0.58832 0.38514 0.67969 0.0
O41 O 0.59404 0.39206 0.78715 0.0
O42 O 0.86396 0.22693 0.00526 0.0
Cd43 Cd 0.88424 0.22544 0.09048 0.0
Cd44 Cd 0.90875 0.25804 0.01421 0.0
O45 O 0.87548 0.26252 0.97736 0.0
O46 O 0.86336 0.20859 0.15447 0.0
O47 O 0.87421 0.24559 0.16866 0.0
C48 C 0.8617 0.22787 0.18812 0.0
C49 C 0.93242 0.29152 0.00502 0.0
C50 C 0.86124 0.24557 0.97115 0.0
C51 C 0.9279 0.20858 0.03261 0.0
O52 O 0.92609 0.22664 0.99532 0.0
O53 O 0.91481 0.20622 0.08384 0.0
O54 O 0.92613 0.27962 0.9533 0.0
O55 O 0.92528 0.2844 0.06308 0.0
O56 O 0.09351 0.45501 0.89086 0.0
Cd57 Cd 0.09363 0.43277 0.81069 0.0
Cd58 Cd 0.05936 0.41145 0.88782 0.0
O59 O 0.05854 0.44468 0.92792 0.0
O60 O 0.10902 0.45164 0.73943 0.0
O61 O 0.07172 0.4406 0.73487 0.0
C62 C 0.0889 0.45262 0.70972 0.0
C63 C 0.02473 0.38951 0.89852 0.0
C64 C 0.07605 0.45848 0.92909 0.0
C65 C 0.10804 0.38901 0.87334 0.0
O66 O 0.08881 0.39116 0.90525 0.0
O67 O 0.11277 0.4026 0.82454 0.0
O68 O 0.03712 0.39536 0.94967 0.0
O69 O 0.03159 0.39675 0.84031 0.0
O70 O 0.85919 0.78505 0.11297 0.0
Cd71 Cd 0.87988 0.78144 0.02887 0.0
Cd72 Cd 0.89543 0.7441 0.10406 0.0
O73 O 0.86157 0.74735 0.13626 0.0
O74 O 0.86442 0.8016 0.96068 0.0
O75 O 0.86616 0.76274 0.95301 0.0
C76 C 0.85861 0.78259 0.92964 0.0
C77 C 0.91278 0.70729 0.12207 0.0
C78 C 0.8519 0.76722 0.14508 0.0
C79 C 0.92537 0.78751 0.08969 0.0
O80 O 0.91859 0.77069 0.1268 0.0
O81 O 0.9141 0.79266 0.03671 0.0
O82 O 0.90657 0.72066 0.17084 0.0
O83 O 0.90833 0.71439 0.06188 0.0
O84 O 0.53015 0.54496 0.3664 0.0
Cd85 Cd 0.52953 0.5662 0.28303 0.0
Cd86 Cd 0.56387 0.58672 0.36161 0.0
O87 O 0.56783 0.55142 0.37922 0.0
O88 O 0.51267 0.54693 0.21565 0.0
O89 O 0.55033 0.55633 0.2066 0.0
C90 C 0.53243 0.54468 0.18443 0.0
C91 C 0.59681 0.60879 0.39131 0.0
C92 C 0.54987 0.53891 0.39042 0.0
C93 C 0.51566 0.60916 0.34709 0.0
O94 O 0.53298 0.60437 0.38497 0.0
O95 O 0.51286 0.59811 0.29236 0.0
O96 O 0.58376 0.59886 0.43564 0.0
O97 O 0.59142 0.60588 0.32896 0.0
O98 O 0.75958 0.2158 0.64983 0.0
Cd99 Cd 0.73905 0.21831 0.56512 0.0
Cd100 Cd 0.71867 0.25241 0.64518 0.0
O101 O 0.7517 0.25163 0.68507 0.0
O102 O 0.7562 0.19841 0.49916 0.0
O103 O 0.75252 0.23696 0.48796 0.0
C104 C 0.76121 0.21733 0.46655 0.0
C105 C 0.69892 0.2885 0.64803 0.0
C106 C 0.76406 0.23308 0.68793 0.0
C107 C 0.69304 0.20706 0.62191 0.0
O108 O 0.69725 0.22376 0.66236 0.0
O109 O 0.70582 0.20404 0.57032 0.0
O110 O 0.70333 0.2768 0.70184 0.0
O111 O 0.70623 0.27993 0.59175 0.0
O112 O 0.3523 0.26856 0.62581 0.0
Cd113 Cd 0.37385 0.27522 0.54594 0.0
Cd114 Cd 0.40307 0.24127 0.61662 0.0
O115 O 0.3739 0.24146 0.67623 0.0
O116 O 0.35368 0.29483 0.48657 0.0
O117 O 0.36549 0.25897 0.45932 0.0
C118 C 0.35316 0.27743 0.44532 0.0
C119 C 0.4239 0.20585 0.62279 0.0
C120 C 0.35548 0.25396 0.67308 0.0
C121 C 0.42093 0.29114 0.59755 0.0
O122 O 0.42398 0.27049 0.62024 0.0
O123 O 0.40257 0.29642 0.56443 0.0
O124 O 0.42213 0.21981 0.67307 0.0
O125 O 0.41384 0.21196 0.56744 0.0
O126 O 0.25836 0.72118 0.14477 0.0
Cd127 Cd 0.23862 0.71665 0.0603 0.0
Cd128 Cd 0.21201 0.75379 0.12761 0.0
O129 O 0.24394 0.7556 0.17547 0.0
O130 O 0.25867 0.69511 0.00604 0.0
O131 O 0.25063 0.73155 0.97474 0.0
C132 C 0.26174 0.71207 0.96411 0.0
C133 C 0.19047 0.78889 0.13587 0.0
C134 C 0.25908 0.73934 0.18151 0.0
C135 C 0.19176 0.70388 0.1141 0.0
O136 O 0.19135 0.72418 0.14081 0.0
O137 O 0.20813 0.69806 0.07396 0.0
O138 O 0.19464 0.77585 0.18711 0.0
O139 O 0.1986 0.78209 0.07861 0.0
O140 O 0.25331 0.26183 0.98012 0.0
Cd141 Cd 0.23304 0.26708 0.06319 0.0
Cd142 Cd 0.19973 0.23916 0.97799 0.0
O143 O 0.22743 0.24439 0.91427 0.0
O144 O 0.25566 0.28357 0.12282 0.0
O145 O 0.24134 0.24841 0.14622 0.0
C146 C 0.25545 0.26538 0.16132 0.0
C147 C 0.17795 0.20626 0.94535 0.0
C148 C 0.2476 0.2531 0.92403 0.0
C149 C 0.1851 0.28703 0.03037 0.0
O150 O 0.17956 0.26752 0.00404 0.0
O151 O 0.20555 0.29069 0.05384 0.0
O152 O 0.17855 0.22511 0.90999 0.0
O153 O 0.18948 0.20601 0.00106 0.0
O154 O 0.36121 0.70814 0.501 0.0
Cd155 Cd 0.38264 0.71092 0.58352 0.0
Cd156 Cd 0.40136 0.7448 0.50593 0.0
O157 O 0.36772 0.74463 0.46982 0.0
O158 O 0.36437 0.69553 0.65619 0.0
O159 O 0.37229 0.73367 0.6548 0.0
C160 C 0.36151 0.7161 0.68229 0.0
C161 C 0.42109 0.78075 0.49882 0.0
C162 C 0.35576 0.7259 0.4657 0.0
C163 C 0.42711 0.69864 0.52307 0.0
O164 O 0.42245 0.71605 0.48528 0.0
O165 O 0.41512 0.69507 0.57591 0.0
O166 O 0.41572 0.76883 0.44628 0.0
O167 O 0.41487 0.77244 0.55647 0.0
O168 O 0.5863 0.04549 0.74455 0.0
Cd169 Cd 0.58477 0.06918 0.82222 0.0
Cd170 Cd 0.55469 0.09129 0.73088 0.0
O171 O 0.55696 0.05965 0.68432 0.0
O172 O 0.60033 0.0506 0.89376 0.0
O173 O 0.56263 0.06016 0.8969 0.0
C174 C 0.58004 0.04842 0.92189 0.0
C175 C 0.51875 0.11067 0.72168 0.0
C176 C 0.57228 0.04395 0.69537 0.0
C177 C 0.60078 0.11466 0.76493 0.0
O178 O 0.58349 0.1127 0.72516 0.0
O179 O 0.60346 0.10037 0.81352 0.0
O180 O 0.53233 0.10775 0.67076 0.0
O181 O 0.52545 0.10224 0.77876 0.0
O182 O 0.0184 0.93869 0.24678 0.0
Cd183 Cd 0.02225 0.91838 0.3315 0.0
Cd184 Cd 0.05895 0.90179 0.25279 0.0
O185 O 0.05501 0.93461 0.21281 0.0
O186 O 0.00062 0.93389 0.39613 0.0
O187 O 0.03923 0.93322 0.4094 0.0
C188 C 0.01885 0.94044 0.4295 0.0
C189 C 0.09596 0.8841 0.24166 0.0
C190 C 0.0352 0.94481 0.20871 0.0
C191 C 0.01533 0.87236 0.2724 0.0
O192 O 0.03228 0.87834 0.23466 0.0
O193 O 0.01047 0.88425 0.32451 0.0
O194 O 0.08303 0.88876 0.19055 0.0
O195 O 0.0883 0.89034 0.29998 0.0
O196 O 0.57833 0.94585 0.361 0.0
Cd197 Cd 0.57903 0.92177 0.28431 0.0
Cd198 Cd 0.54802 0.89948 0.38259 0.0
O199 O 0.55007 0.93173 0.42588 0.0
O200 O 0.60045 0.93853 0.22164 0.0
O201 O 0.56282 0.93295 0.19966 0.0
C202 C 0.58266 0.9424 0.18344 0.0
C203 C 0.51278 0.87891 0.39513 0.0
C204 C 0.5648 0.94762 0.41132 0.0
C205 C 0.59472 0.87686 0.3493 0.0
O206 O 0.57751 0.87904 0.38932 0.0
O207 O 0.59703 0.89041 0.29889 0.0
O208 O 0.52644 0.88293 0.44519 0.0
O209 O 0.51888 0.88708 0.3372 0.0
O210 O 0.0162 0.04297 0.88756 0.0
Cd211 Cd 0.01589 0.0636 0.8027 0.0
Cd212 Cd 0.05203 0.08286 0.87173 0.0
O213 O 0.05436 0.04755 0.89084 0.0
O214 O 0.00036 0.04435 0.73288 0.0
O215 O 0.03817 0.05388 0.72994 0.0
C216 C 0.02074 0.04223 0.70484 0.0
C217 C 0.08694 0.10297 0.89243 0.0
C218 C 0.03621 0.03613 0.90759 0.0
C219 C 0.00531 0.10806 0.86278 0.0
O220 O 0.02288 0.10269 0.89905 0.0
O221 O 0.00094 0.09641 0.80996 0.0
O222 O 0.07471 0.094 0.94023 0.0
O223 O 0.07954 0.10023 0.83172 0.0
H224 H 0.14901 0.71135 0.17191 0.0
H225 H 0.19643 0.65625 0.1086 0.0
H226 H 0.17089 0.62673 0.15934 0.0
H227 H 0.13568 0.61657 0.22435 0.0
H228 H 0.08635 0.67083 0.2793 0.0
H229 H 0.11221 0.70084 0.23022 0.0
C230 C 0.15363 0.69286 0.16872 0.0
C231 C 0.17463 0.68602 0.13673 0.0
C232 C 0.13874 0.67592 0.19751 0.0
C233 C 0.18029 0.66199 0.1325 0.0
C234 C 0.16581 0.64509 0.16204 0.0
C235 C 0.13081 0.63503 0.22619 0.0
C236 C 0.10958 0.64172 0.25664 0.0
C237 C 0.14519 0.65189 0.19541 0.0
C238 C 0.10289 0.66548 0.25693 0.0
C239 C 0.11757 0.68254 0.2286 0.0
H240 H 0.60834 0.8635 0.47267 0.0
H241 H 0.62267 0.85208 0.26266 0.0
H242 H 0.65327 0.82338 0.29189 0.0
H243 H 0.67584 0.80182 0.37753 0.0
H244 H 0.66355 0.81591 0.58733 0.0
H245 H 0.6321 0.8435 0.55789 0.0
C246 C 0.61808 0.8546 0.4333 0.0
C247 C 0.61315 0.85956 0.36563 0.0
C248 C 0.63595 0.83876 0.45053 0.0
C249 C 0.62618 0.8484 0.31505 0.0
C250 C 0.64361 0.83203 0.33177 0.0
C251 C 0.66619 0.81089 0.41674 0.0
C252 C 0.67176 0.80676 0.48449 0.0
C253 C 0.64861 0.8271 0.39936 0.0
C254 C 0.65951 0.81888 0.53489 0.0
C255 C 0.64154 0.83457 0.51808 0.0
H256 H 0.47433 0.37955 0.71011 0.0
H257 H 0.52714 0.327 0.75058 0.0
H258 H 0.50202 0.29659 0.70095 0.0
H259 H 0.46515 0.28531 0.64574 0.0
H260 H 0.41363 0.33862 0.59778 0.0
H261 H 0.4385 0.36865 0.64885 0.0
C262 C 0.48008 0.36133 0.70896 0.0
C263 C 0.50211 0.3552 0.73538 0.0
C264 C 0.46607 0.34431 0.67772 0.0
C265 C 0.50996 0.33184 0.73158 0.0
C266 C 0.49572 0.31459 0.70277 0.0
C267 C 0.45946 0.30354 0.64586 0.0
C268 C 0.43753 0.30971 0.61824 0.0
C269 C 0.47381 0.32068 0.67531 0.0
C270 C 0.43049 0.33342 0.61828 0.0
C271 C 0.44458 0.35056 0.64811 0.0
H272 H 0.93832 0.19519 0.90637 0.0
H273 H 0.95246 0.1786 0.11363 0.0
H274 H 0.97832 0.14627 0.07891 0.0
H275 H -0.00348 0.12266 0.98939 0.0
H276 H 0.97948 0.13713 0.78254 0.0
H277 H 0.95494 0.17041 0.8172 0.0
C278 C 0.94723 0.18458 0.94386 0.0
C279 C 0.94382 0.18937 0.01239 0.0
C280 C 0.96136 0.16565 0.92354 0.0
C281 C 0.95496 0.17523 0.06061 0.0
C282 C 0.9697 0.15679 0.04076 0.0
C283 C 0.98745 0.13315 0.95196 0.0
C284 C 0.98989 0.12764 0.88351 0.0
C285 C 0.97297 0.15183 0.97238 0.0
C286 C 0.97779 0.14107 0.8355 0.0
C287 C 0.96385 0.16011 0.85528 0.0
H288 H 0.10068 0.35297 0.95978 0.0
H289 H 0.15489 0.38683 0.84269 0.0
H290 H 0.18429 0.36014 0.88991 0.0
H291 H 0.19428 0.32628 0.96137 0.0
H292 H 0.13956 0.29031 0.07001 0.0
H293 H 0.11061 0.31928 0.03103 0.0
C294 C 0.11893 0.35452 0.94448 0.0
C295 C 0.12558 0.37181 0.89761 0.0
C296 C 0.13565 0.33906 0.97142 0.0
C297 C 0.14927 0.37351 0.87813 0.0
C298 C 0.16611 0.35841 0.90555 0.0
C299 C 0.17611 0.32528 0.97787 0.0
C300 C 0.16898 0.30677 0.01977 0.0
C301 C 0.15949 0.34114 0.9522 0.0
C302 C 0.14534 0.30486 0.03896 0.0
C303 C 0.12884 0.32119 0.01603 0.0
H304 H 0.00712 0.85918 0.14497 0.0
H305 H 0.98765 0.84381 0.34966 0.0
H306 H 0.9593 0.81449 0.31027 0.0
H307 H 0.93864 0.79516 0.21755 0.0
H308 H 0.95542 0.81358 0.01294 0.0
H309 H 0.9865 0.83992 0.05243 0.0
C310 C -0.0031 0.84917 0.18103 0.0
C311 C -0.00047 0.85343 0.25012 0.0
C312 C 0.98015 0.83311 0.15796 0.0
C313 C 0.98589 0.84074 0.29627 0.0
C314 C 0.96971 0.82405 0.27376 0.0
C315 C 0.9493 0.80475 0.18158 0.0
C316 C 0.94493 0.80241 0.11245 0.0
C317 C 0.96649 0.82036 0.20471 0.0
C318 C 0.95852 0.81518 0.06637 0.0
C319 C 0.97624 0.83019 0.08892 0.0
H320 H 0.43944 0.68795 0.39603 0.0
H321 H 0.45475 0.67073 0.60227 0.0
H322 H 0.48422 0.64198 0.56551 0.0
H323 H 0.50512 0.62152 0.47459 0.0
H324 H 0.48738 0.63653 0.26847 0.0
H325 H 0.45919 0.66645 0.3053 0.0
C326 C 0.44937 0.67802 0.43293 0.0
C327 C 0.44518 0.68158 0.50176 0.0
C328 C 0.46569 0.66112 0.41139 0.0
C329 C 0.45776 0.66828 0.54906 0.0
C330 C 0.47457 0.65189 0.52804 0.0
C331 C 0.49513 0.63143 0.43775 0.0
C332 C 0.49841 0.62701 0.3689 0.0
C333 C 0.47861 0.64814 0.45935 0.0
C334 C 0.48512 0.63964 0.3217 0.0
C335 C 0.46907 0.65676 0.34274 0.0
H336 H 0.67941 0.19255 0.74502 0.0
H337 H 0.66515 0.18338 0.53414 0.0
H338 H 0.63452 0.15461 0.56074 0.0
H339 H 0.61254 0.13168 0.64359 0.0
H340 H 0.62904 0.13795 0.854 0.0
H341 H 0.65829 0.16833 0.82811 0.0
C342 C 0.66944 0.18435 0.70502 0.0
C343 C 0.67425 0.19017 0.63777 0.0
C344 C 0.65246 0.16733 0.72066 0.0
C345 C 0.66164 0.17915 0.58621 0.0
C346 C 0.64418 0.16275 0.60142 0.0
C347 C 0.62245 0.13981 0.68386 0.0
C348 C 0.61855 0.13284 0.75067 0.0
C349 C 0.63954 0.15666 0.66839 0.0
C350 C 0.63179 0.14311 0.80225 0.0
C351 C 0.64843 0.16046 0.78744 0.0
H352 H 0.00593 0.37409 0.01545 0.0
H353 H -0.00191 0.36896 0.8005 0.0
H354 H 0.96768 0.33902 0.81518 0.0
H355 H 0.94562 0.31238 0.88869 0.0
H356 H 0.95392 0.31711 0.10357 0.0
H357 H 0.98193 0.34933 0.08918 0.0
C358 C -0.00257 0.3666 0.97172 0.0
C359 C 0.00441 0.3736 0.9069 0.0
C360 C 0.98022 0.34925 0.98054 0.0
C361 C 0.99308 0.36385 0.85089 0.0
C362 C 0.97577 0.34667 0.85926 0.0
C363 C 0.95344 0.32053 0.93248 0.0
C364 C 0.9479 0.3122 0.99714 0.0
C365 C 0.96958 0.33891 0.9238 0.0
C366 C 0.95798 0.32313 0.0533 0.0
C367 C 0.97401 0.34151 0.04508 0.0
H368 H 0.49742 0.12379 0.60622 0.0
H369 H 0.49167 0.12931 0.82166 0.0
H370 H 0.4597 0.15777 0.80923 0.0
H371 H 0.4368 0.18419 0.73739 0.0
H372 H 0.44283 0.1792 0.52201 0.0
H373 H 0.47124 0.14706 0.53416 0.0
C374 C 0.48898 0.13101 0.6505 0.0
C375 C 0.49712 0.12479 0.71479 0.0
C376 C 0.47085 0.14751 0.64293 0.0
C377 C 0.48579 0.13394 0.77167 0.0
C378 C 0.46761 0.15028 0.76458 0.0
C379 C 0.44415 0.1759 0.69305 0.0
C380 C 0.4381 0.18426 0.62889 0.0
C381 C 0.46053 0.15769 0.70049 0.0
C382 C 0.44735 0.17311 0.57188 0.0
C383 C 0.46365 0.15484 0.57885 0.0
H384 H 0.62569 0.63476 0.3117 0.0
H385 H 0.61176 0.61721 0.51876 0.0
H386 H 0.64123 0.64546 0.55537 0.0
H387 H 0.66882 0.6773 0.52908 0.0
H388 H 0.68228 0.69523 0.32201 0.0
H389 H 0.65532 0.66462 0.28518 0.0
C390 C 0.62929 0.63694 0.36477 0.0
C391 C 0.6164 0.62408 0.41233 0.0
C392 C 0.6461 0.65341 0.38565 0.0
C393 C 0.62133 0.62702 0.48099 0.0
C394 C 0.63816 0.6432 0.5021 0.0
C395 C 0.66602 0.67435 0.47593 0.0
C396 C 0.67734 0.68867 0.4285 0.0
C397 C 0.65031 0.65684 0.45493 0.0
C398 C 0.67364 0.68456 0.35971 0.0
C399 C 0.6582 0.66706 0.33847 0.0
H400 H 0.17791 0.81021 0.2517 0.0
H401 H 0.1701 0.81535 0.03677 0.0
H402 H 0.14185 0.84749 0.05096 0.0
H403 H 0.11655 0.87106 0.12473 0.0
H404 H 0.12376 0.86514 0.33974 0.0
H405 H 0.15546 0.83651 0.3251 0.0
C406 C 0.1702 0.8185 0.20785 0.0
C407 C 0.1758 0.8102 0.14326 0.0
C408 C 0.15386 0.83673 0.21646 0.0
C409 C 0.16597 0.82135 0.08699 0.0
C410 C 0.14977 0.83966 0.09511 0.0
C411 C 0.12526 0.86376 0.16846 0.0
C412 C 0.11761 0.86999 0.23329 0.0
C413 C 0.14316 0.84705 0.15966 0.0
C414 C 0.12925 0.86057 0.28935 0.0
C415 C 0.14728 0.84411 0.281 0.0
H416 H 0.98885 0.6278 0.1359 0.0
H417 H 0.97885 0.63897 0.34822 0.0
H418 H 0.94573 0.66525 0.32462 0.0
H419 H 0.92309 0.6885 0.24348 0.0
H420 H 0.93428 0.67837 0.03112 0.0
H421 H 0.96333 0.64778 0.05507 0.0
C422 C 0.97928 0.63578 0.17714 0.0
C423 C 0.98651 0.6318 0.24371 0.0
C424 C 0.96058 0.65107 0.16314 0.0
C425 C 0.9737 0.64191 0.29657 0.0
C426 C 0.95484 0.65698 0.28307 0.0
C427 C 0.93161 0.67936 0.20233 0.0
C428 C 0.92681 0.68593 0.13557 0.0
C429 C 0.94863 0.66222 0.2165 0.0
C430 C 0.93777 0.67373 0.0829 0.0
C431 C 0.95447 0.65634 0.09658 0.0
H432 H 0.10869 0.13442 0.81124 0.0
H433 H 0.11125 0.10425 0.00987 0.0
H434 H 0.14158 0.13233 0.0424 0.0
H435 H 0.16438 0.16802 0.01787 0.0
H436 H 0.16001 0.19932 0.82083 0.0
H437 H 0.13357 0.16822 0.78425 0.0
C438 C 0.1162 0.13373 0.86123 0.0
C439 C 0.10765 0.11747 0.90818 0.0
C440 C 0.13314 0.15033 0.8802 0.0
C441 C 0.11744 0.1168 0.97293 0.0
C442 C 0.13475 0.13287 0.99167 0.0
C443 C 0.15785 0.16783 0.96675 0.0
C444 C 0.16389 0.18605 0.92246 0.0
C445 C 0.14225 0.15014 0.9463 0.0
C446 C 0.15536 0.18562 0.85625 0.0
C447 C 0.14026 0.16783 0.83515 0.0
H448 H 0.68564 0.3124 0.75951 0.0
H449 H 0.6793 0.31282 0.54366 0.0
H450 H 0.65036 0.34456 0.55059 0.0
H451 H 0.62373 0.36873 0.61849 0.0
H452 H 0.62933 0.36769 0.83445 0.0
H453 H 0.66204 0.33982 0.82686 0.0
C454 C 0.67815 0.31963 0.71387 0.0
C455 C 0.68434 0.31002 0.65118 0.0
C456 C 0.66133 0.33764 0.71831 0.0
C457 C 0.67474 0.3198 0.59253 0.0
C458 C 0.65812 0.33788 0.59649 0.0
C459 C 0.6323 0.36267 0.66394 0.0
C460 C 0.6239 0.36999 0.72702 0.0
C461 C 0.6508 0.34641 0.6592 0.0
C462 C 0.6354 0.36224 0.78533 0.0
C463 C 0.65401 0.34621 0.78101 0.0
H464 H 0.43178 0.8041 0.38434 0.0
H465 H 0.44242 0.80583 0.59872 0.0
H466 H 0.47026 0.83826 0.58554 0.0
H467 H 0.49434 0.86318 0.51224 0.0
H468 H 0.48426 0.86082 0.29767 0.0
H469 H 0.45312 0.83164 0.31195 0.0
C470 C 0.43999 0.81172 0.42832 0.0
C471 C 0.4353 0.80237 0.49237 0.0
C472 C 0.45613 0.83012 0.42027 0.0
C473 C 0.44583 0.81264 0.54887 0.0
C474 C 0.4618 0.83112 0.54133 0.0
C475 C 0.48516 0.85649 0.46858 0.0
C476 C 0.49181 0.86391 0.40388 0.0
C477 C 0.46753 0.83954 0.47712 0.0
C478 C 0.47956 0.8553 0.34795 0.0
C479 C 0.46182 0.83856 0.35608 0.0
H480 H 0.09748 0.53576 0.14485 0.0
H481 H 0.02233 0.53146 0.17172 0.0
H482 H 0.01996 0.50175 0.0831 0.0
H483 H 0.03953 0.4768 -0.0006 0.0
H484 H 0.11453 0.4829 0.96966 0.0
H485 H 0.11665 0.51247 0.05783 0.0
C486 C 0.08062 0.52819 0.13154 0.0
C487 C 0.06016 0.53543 0.16496 0.0
C488 C 0.07936 0.51167 0.07989 0.0
C489 C 0.03831 0.52597 0.14654 0.0
C490 C 0.03696 0.50906 0.09601 0.0
C491 C 0.05631 0.48468 0.01209 0.0
C492 C 0.07685 0.47762 0.97848 0.0
C493 C 0.0574 0.50177 0.06247 0.0
C494 C 0.09845 0.48811 0.99479 0.0
C495 C 0.09972 0.50491 0.04538 0.0
H496 H 0.83469 0.73272 0.22386 0.0
H497 H 0.82869 0.80723 0.18429 0.0
H498 H 0.80064 0.81114 0.27674 0.0
H499 H 0.77786 0.79318 0.36854 0.0
H500 H 0.78392 0.71853 0.40535 0.0
H501 H 0.81241 0.71499 0.31452 0.0
C502 C 0.82721 0.74985 0.23507 0.0
C503 C 0.83372 0.76964 0.19723 0.0
C504 C 0.81137 0.75198 0.28822 0.0
C505 C 0.82386 0.79168 0.21258 0.0
C506 C 0.80794 0.79396 0.2656 0.0
C507 C 0.78567 0.77623 0.35709 0.0
C508 C 0.77893 0.75616 0.39347 0.0
C509 C 0.80168 0.77422 0.30394 0.0
C510 C 0.78887 0.73421 0.37781 0.0
C511 C 0.80507 0.73215 0.32584 0.0
H512 H 0.51541 0.52148 0.46878 0.0
H513 H 0.58863 0.51256 0.41786 0.0
H514 H 0.59258 0.48201 0.50356 0.0
H515 H 0.57557 0.4592 0.59581 0.0
H516 H 0.50283 0.46991 0.65071 0.0
H517 H 0.4984 0.49865 0.56077 0.0
C518 C 0.53212 0.5126 0.47591 0.0
C519 C 0.55167 0.51906 0.43719 0.0
C520 C 0.53442 0.49566 0.52641 0.0
C521 C 0.57336 0.50778 0.44737 0.0
C522 C 0.57564 0.4904 0.49635 0.0
C523 C 0.55874 0.4678 0.58803 0.0
C524 C 0.5396 0.46249 0.62987 0.0
C525 C 0.55636 0.48446 0.53676 0.0
C526 C 0.51791 0.47383 0.61942 0.0
C527 C 0.51531 0.49017 0.56784 0.0
H528 H 0.84077 0.20953 0.90529 0.0
H529 H 0.84011 0.28516 0.924 0.0
H530 H 0.80994 0.28792 0.83713 0.0
H531 H 0.78415 0.26888 0.7558 0.0
H532 H 0.78608 0.19336 0.73283 0.0
H533 H 0.8157 0.19051 0.82121 0.0
C534 C 0.83384 0.22657 0.89065 0.0
C535 C 0.84239 0.2471 0.9211 0.0
C536 C 0.81699 0.22805 0.8397 0.0
C537 C 0.83368 0.26914 0.9011 0.0
C538 C 0.8165 0.27072 0.8515 0.0
C539 C 0.79107 0.25179 0.77007 0.0
C540 C 0.78292 0.23136 0.73816 0.0
C541 C 0.80813 0.2503 0.82034 0.0
C542 C 0.79218 0.20936 0.7566 0.0
C543 C 0.809 0.2077 0.80729 0.0
H544 H 0.29438 0.24759 0.93456 0.0
H545 H 0.23868 0.25858 0.79114 0.0
H546 H 0.26743 0.26012 0.69978 0.0
H547 H 0.3085 0.25899 0.66163 0.0
H548 H 0.36376 0.24488 0.80435 0.0
H549 H 0.33504 0.2438 0.89556 0.0
C550 C 0.28863 0.25033 0.88323 0.0
C551 C 0.26467 0.2532 0.86914 0.0
C552 C 0.3051 0.2506 0.8312 0.0
C553 C 0.25717 0.25633 0.80267 0.0
C554 C 0.27354 0.25727 0.75065 0.0
C555 C 0.31415 0.25565 0.71276 0.0
C556 C 0.33804 0.25218 0.72679 0.0
C557 C 0.29755 0.25453 0.76446 0.0
C558 C 0.34533 0.24752 0.79276 0.0
C559 C 0.32899 0.24699 0.8448 0.0
H560 H 0.33358 0.76216 0.40464 0.0
H561 H 0.33513 0.6863 0.41627 0.0
H562 H 0.30562 0.68387 0.32766 0.0
H563 H 0.28027 0.70328 0.2452 0.0
H564 H 0.27735 0.7791 0.23689 0.0
H565 H 0.30679 0.78161 0.32598 0.0
C566 C 0.32739 0.7451 0.38793 0.0
C567 C 0.33658 0.72444 0.4165 0.0
C568 C 0.3104 0.74384 0.3374 0.0
C569 C 0.32825 0.70246 0.39505 0.0
C570 C 0.31149 0.70104 0.34421 0.0
C571 C 0.28621 0.72034 0.26268 0.0
C572 C 0.27698 0.74098 0.23429 0.0
C573 C 0.30266 0.72162 0.31463 0.0
C574 C 0.28436 0.76299 0.25809 0.0
C575 C 0.30113 0.76443 0.30892 0.0
H576 H 0.57052 0.9472 0.5446 0.0
H577 H 0.56406 0.9934 0.374 0.0
H578 H 0.56604 0.02781 0.44785 0.0
H579 H 0.56837 0.04436 0.56135 0.0
H580 H 0.57863 -0.00171 0.73085 0.0
H581 H 0.5767 0.96391 0.657 0.0
C582 C 0.56957 0.96487 0.52402 0.0
C583 C 0.56679 0.96809 0.45483 0.0
C584 C 0.57149 0.98436 0.56632 0.0
C585 C 0.56607 0.99081 0.42757 0.0
C586 C 0.56718 0.01036 0.46959 0.0
C587 C 0.57031 0.02675 0.58176 0.0
C588 C 0.57338 0.02358 0.6509 0.0
C589 C 0.56972 0.0073 0.53904 0.0
C590 C 0.57628 0.00091 0.67741 0.0
C591 C 0.57506 0.98134 0.63542 0.0
H592 H 0.00332 0.02003 0.99461 0.0
H593 H 0.07486 0.00924 0.92875 0.0
H594 H 0.08082 0.98006 0.01687 0.0
H595 H 0.06635 0.95897 0.11467 0.0
H596 H 0.99518 0.97015 0.1836 0.0
H597 H 0.98852 -0.00185 0.09243 0.0
C598 C 0.02007 0.01101 -0.00092 0.0
C599 C 0.03861 0.01666 0.95548 0.0
C600 C 0.02356 0.99467 0.05084 0.0
C601 C 0.06036 0.00514 0.96204 0.0
C602 C 0.06381 0.98855 0.01246 0.0
C603 C 0.04938 0.96756 0.11006 0.0
C604 C 0.03134 0.96258 0.156 0.0
C605 C 0.04566 0.98349 0.0577 0.0
C606 C 0.00942 0.97379 0.14901 0.0
C607 C 0.00555 0.98971 0.09677 0.0
H608 H 0.12193 0.47903 0.64726 0.0
H609 H 0.04762 0.46375 0.64616 0.0
H610 H 0.04127 0.49452 0.5621 0.0
H611 H 0.05688 0.52641 0.49047 0.0
H612 H 0.13139 0.54055 0.49051 0.0
H613 H 0.13755 0.50987 0.57451 0.0
C614 C 0.10435 0.48224 0.6283 0.0
C615 C 0.08529 0.46907 0.65298 0.0
C616 C 0.10081 0.50005 0.5806 0.0
C617 C 0.06263 0.47352 0.62774 0.0
C618 C 0.05896 0.49125 0.58006 0.0
C619 C 0.07439 0.52294 0.50961 0.0
C620 C 0.09363 0.53589 0.48502 0.0
C621 C 0.07789 0.50482 0.55673 0.0
C622 C 0.1163 0.5309 0.50904 0.0
C623 C 0.11985 0.51329 0.55679 0.0
H624 H 0.83106 0.74745 0.88028 0.0
H625 H 0.84873 0.82064 0.85221 0.0
H626 H 0.81861 0.82427 0.76585 0.0
H627 H 0.78674 0.80713 0.70054 0.0
H628 H 0.76823 0.73414 0.72808 0.0
H629 H 0.79899 0.73005 0.8132 0.0
C630 C 0.82851 0.76409 0.85455 0.0
C631 C 0.84218 0.78372 0.87237 0.0
C632 C 0.81079 0.76619 0.80571 0.0
C633 C 0.83846 0.80526 0.83934 0.0
C634 C 0.82117 0.80738 0.79015 0.0
C635 C 0.78928 0.79033 0.72536 0.0
C636 C 0.7751 0.77101 0.70821 0.0
C637 C 0.80707 0.78806 0.77356 0.0
C638 C 0.7788 0.74934 0.74064 0.0
C639 C 0.79647 0.74696 0.78905 0.0
H640 H 0.49836 0.5167 0.13353 0.0
H641 H 0.57198 0.53347 0.1123 0.0
H642 H 0.57633 0.50236 0.02836 0.0
H643 H 0.55906 0.47024 0.96103 0.0
H644 H 0.4852 0.45451 0.98182 0.0
H645 H 0.48123 0.48507 0.06697 0.0
C646 C 0.51535 0.51372 0.11027 0.0
C647 C 0.53479 0.5275 0.12901 0.0
C648 C 0.51775 0.49572 0.06268 0.0
C649 C 0.55668 0.52325 0.09848 0.0
C650 C 0.55922 0.50535 0.05081 0.0
C651 C 0.5422 0.47331 0.98499 0.0
C652 C 0.52249 0.46002 0.9656 0.0
C653 C 0.5399 0.49135 0.03285 0.0
C654 C 0.50064 0.46446 0.99608 0.0
C655 C 0.49833 0.482 0.04451 0.0
H656 H 0.83307 0.19371 0.23594 0.0
H657 H 0.8513 0.2667 0.26439 0.0
H658 H 0.82069 0.2704 0.35024 0.0
H659 H 0.78866 0.25271 0.41742 0.0
H660 H 0.77153 0.17944 0.38926 0.0
H661 H 0.80153 0.17618 0.30225 0.0
C662 C 0.83049 0.21043 0.26111 0.0
C663 C 0.84455 0.22987 0.24388 0.0
C664 C 0.81283 0.21246 0.30992 0.0
C665 C 0.84084 0.2514 0.27695 0.0
C666 C 0.82324 0.25357 0.32578 0.0
C667 C 0.79132 0.23614 0.39155 0.0
C668 C 0.77779 0.21639 0.40943 0.0
C669 C 0.80903 0.23423 0.34243 0.0
C670 C 0.78168 0.19492 0.37631 0.0
C671 C 0.7989 0.193 0.32674 0.0
H672 H 0.32815 0.24147 0.39161 0.0
H673 H 0.34194 0.3157 0.37086 0.0
H674 H 0.31255 0.31855 0.28183 0.0
H675 H 0.28236 0.30025 0.21221 0.0
H676 H 0.26662 0.22647 0.2362 0.0
H677 H 0.29702 0.22318 0.32265 0.0
C678 C 0.32492 0.25814 0.36671 0.0
C679 C 0.33735 0.27829 0.38685 0.0
C680 C 0.30739 0.2598 0.31719 0.0
C681 C 0.33267 0.29995 0.35565 0.0
C682 C 0.3158 0.3016 0.30509 0.0
C683 C 0.28548 0.28344 0.2365 0.0
C684 C 0.27223 0.26364 0.21781 0.0
C685 C 0.30289 0.28171 0.28602 0.0
C686 C 0.27646 0.24203 0.25001 0.0
C687 C 0.29396 0.2401 0.29907 0.0
H688 H 0.3367 0.68245 0.74747 0.0
H689 H 0.34769 0.75753 0.74094 0.0
H690 H 0.31672 0.76314 0.82477 0.0
H691 H 0.28609 0.74659 0.89927 0.0
H692 H 0.27622 0.67137 0.9064 0.0
H693 H 0.30687 0.666 0.82208 0.0
C694 C 0.33249 0.70006 0.76467 0.0
C695 C 0.34457 0.71952 0.73802 0.0
C696 C 0.31459 0.70316 0.81232 0.0
C697 C 0.33879 0.74221 0.76089 0.0
C698 C 0.32096 0.74545 0.8085 0.0
C699 C 0.29049 0.72907 0.88166 0.0
C700 C 0.27877 0.70941 0.90857 0.0
C701 C 0.30858 0.72606 0.83415 0.0
C702 C 0.28493 0.68678 0.88627 0.0
C703 C 0.30252 0.68368 0.83827 0.0
H704 H 0.54877 0.9713 0.13298 0.0
H705 H 0.62188 0.95228 0.1118 0.0
H706 H 0.62767 0.98426 0.03176 0.0
H707 H 0.61247 0.01813 0.97068 0.0
H708 H 0.53957 0.03811 0.99129 0.0
H709 H 0.53331 0.00558 0.07001 0.0
C710 C 0.56582 0.97393 0.10975 0.0
C711 C 0.58483 0.95933 0.12763 0.0
C712 C 0.56919 0.99282 0.06503 0.0
C713 C 0.60697 0.96321 0.09843 0.0
C714 C 0.61033 0.98159 0.05308 0.0
C715 C 0.59522 0.01558 0.99277 0.0
C716 C 0.57656 0.03067 0.97544 0.0
C717 C 0.59168 -0.00331 0.03685 0.0
C718 C 0.5543 0.02689 0.00421 0.0
C719 C 0.55066 0.00817 0.04879 0.0
H720 H 0.98838 0.01267 0.65221 0.0
H721 H 0.06124 0.03294 0.63478 0.0
H722 H 0.06756 0.00219 0.55075 0.0
H723 H 0.05226 0.96933 0.48246 0.0
H724 H 0.97922 0.94979 0.50061 0.0
H725 H 0.97324 0.98021 0.58506 0.0
C726 C 0.00563 0.01054 0.62973 0.0
C727 C 0.02427 0.02519 0.64956 0.0
C728 C 0.00919 0.9927 0.58224 0.0
C729 C 0.04653 0.02201 0.62014 0.0
C730 C 0.0502 0.00433 0.57238 0.0
C731 C 0.03513 0.97156 0.50561 0.0
C732 C 0.01624 0.95723 0.4856 0.0
C733 C 0.03168 0.98945 0.55339 0.0
C734 C 0.99406 0.96055 0.51524 0.0
C735 C 0.99059 0.97801 0.56332 0.0
loop_
_geom_bond_atom_site_label_1
_geom_bond_atom_site_label_2
_geom_bond_distance
_geom_bond_site_symmetry_2
_ccdc_geom_bond_type
O0 Cd1 2.223 . S
O0 C8 1.315 . S
Cd1 O0 2.223 . S
Cd1 O4 2.297 . S
Cd1 O5 2.439 . S
Cd1 O11 2.240 . S
Cd2 O3 2.240 . S
Cd2 O10 2.223 . S
Cd2 O12 2.297 . S
Cd2 O13 2.439 . S
O3 Cd2 2.240 . S
O3 C8 1.279 . S
O4 Cd1 2.297 . S
O4 C6 1.247 . S
O5 Cd1 2.439 . S
O5 C6 1.208 . S
C6 O4 1.247 . S
C6 O5 1.208 . S
C7 O12 1.247 . S
C7 O13 1.208 . S
C8 O0 1.315 . S
C8 O3 1.279 . S
C9 O10 1.315 . S
C9 O11 1.279 . S
O10 Cd2 2.223 . S
O10 C9 1.315 . S
O11 Cd1 2.240 . S
O11 C9 1.279 . S
O12 Cd2 2.297 . S
O12 C7 1.247 . S
O13 Cd2 2.439 . S
O13 C7 1.208 . S
O14 Cd15 2.223 . S
O14 C22 1.315 . S
Cd15 O14 2.223 . S
Cd15 O18 2.297 . S
Cd15 O19 2.439 . S
Cd15 O25 2.240 . S
Cd16 O17 2.240 . S
Cd16 O24 2.223 . S
Cd16 O26 2.297 . S
Cd16 O27 2.439 . S
O17 Cd16 2.240 . S
O17 C22 1.279 . S
O18 Cd15 2.297 . S
O18 C20 1.247 . S
O19 Cd15 2.439 . S
O19 C20 1.208 . S
C20 O18 1.247 . S
C20 O19 1.208 . S
C21 O26 1.247 . S
C21 O27 1.208 . S
C22 O14 1.315 . S
C22 O17 1.279 . S
C23 O24 1.315 . S
C23 O25 1.279 . S
O24 Cd16 2.223 . S
O24 C23 1.315 . S
O25 Cd15 2.240 . S
O25 C23 1.279 . S
O26 Cd16 2.297 . S
O26 C21 1.247 . S
O27 Cd16 2.439 . S
O27 C21 1.208 . S
O28 Cd29 2.223 . S
O28 C36 1.315 . S
Cd29 O28 2.223 . S
Cd29 O32 2.297 . S
Cd29 O33 2.439 . S
Cd29 O39 2.240 . S
Cd30 O31 2.240 . S
Cd30 O38 2.223 . S
Cd30 O40 2.297 . S
Cd30 O41 2.439 . S
O31 Cd30 2.240 . S
O31 C36 1.279 . S
O32 Cd29 2.297 . S
O32 C34 1.247 . S
O33 Cd29 2.439 . S
O33 C34 1.208 . S
C34 O32 1.247 . S
C34 O33 1.208 . S
C35 O40 1.247 . S
C35 O41 1.208 . S
C36 O28 1.315 . S
C36 O31 1.279 . S
C37 O38 1.315 . S
C37 O39 1.279 . S
O38 Cd30 2.223 . S
O38 C37 1.315 . S
O39 Cd29 2.240 . S
O39 C37 1.279 . S
O40 Cd30 2.297 . S
O40 C35 1.247 . S
O41 Cd30 2.439 . S
O41 C35 1.208 . S
O42 Cd43 2.223 1_556 S
O42 C50 1.315 . S
Cd43 O42 2.223 1_554 S
Cd43 O46 2.297 . S
Cd43 O47 2.439 . S
Cd43 O53 2.240 . S
Cd44 O45 2.240 . S
Cd44 O52 2.223 . S
Cd44 O54 2.297 . S
Cd44 O55 2.439 1_556 S
O45 Cd44 2.240 . S
O45 C50 1.279 . S
O46 Cd43 2.297 . S
O46 C48 1.247 . S
O47 Cd43 2.439 . S
O47 C48 1.208 . S
C48 O46 1.247 . S
C48 O47 1.208 . S
C49 O54 1.243 1_554 S
C49 O55 1.211 . S
C50 O42 1.315 . S
C50 O45 1.279 . S
C51 O52 1.315 . S
C51 O53 1.279 1_556 S
O52 Cd44 2.223 . S
O52 C51 1.315 . S
O53 Cd43 2.240 . S
O53 C51 1.279 1_554 S
O54 Cd44 2.297 . S
O54 C49 1.243 1_556 S
O55 Cd44 2.439 1_554 S
O55 C49 1.211 . S
O56 Cd57 2.223 . S
O56 C64 1.315 . S
Cd57 O56 2.223 . S
Cd57 O60 2.297 . S
Cd57 O61 2.439 . S
Cd57 O67 2.240 . S
Cd58 O59 2.240 . S
Cd58 O66 2.223 . S
Cd58 O68 2.297 . S
Cd58 O69 2.439 . S
O59 Cd58 2.240 . S
O59 C64 1.279 . S
O60 Cd57 2.297 . S
O60 C62 1.247 . S
O61 Cd57 2.439 . S
O61 C62 1.208 . S
C62 O60 1.247 . S
C62 O61 1.208 . S
C63 O68 1.247 . S
C63 O69 1.208 . S
C64 O56 1.315 . S
C64 O59 1.279 . S
C65 O66 1.315 . S
C65 O67 1.279 . S
O66 Cd58 2.223 . S
O66 C65 1.315 . S
O67 Cd57 2.240 . S
O67 C65 1.279 . S
O68 Cd58 2.297 . S
O68 C63 1.247 . S
O69 Cd58 2.439 . S
O69 C63 1.208 . S
O70 Cd71 2.223 . S
O70 C78 1.315 . S
Cd71 O70 2.223 . S
Cd71 O74 2.297 1_554 S
Cd71 O75 2.439 1_554 S
Cd71 O81 2.240 . S
Cd72 O73 2.240 . S
Cd72 O80 2.223 . S
Cd72 O82 2.297 . S
Cd72 O83 2.439 . S
O73 Cd72 2.240 . S
O73 C78 1.279 . S
O74 Cd71 2.297 1_556 S
O74 C76 1.247 . S
O75 Cd71 2.439 1_556 S
O75 C76 1.208 . S
C76 O74 1.247 . S
C76 O75 1.208 . S
C77 O82 1.247 . S
C77 O83 1.208 . S
C78 O70 1.315 . S
C78 O73 1.279 . S
C79 O80 1.315 . S
C79 O81 1.279 . S
O80 Cd72 2.223 . S
O80 C79 1.315 . S
O81 Cd71 2.240 . S
O81 C79 1.279 . S
O82 Cd72 2.297 . S
O82 C77 1.247 . S
O83 Cd72 2.439 . S
O83 C77 1.208 . S
O84 Cd85 2.223 . S
O84 C92 1.315 . S
Cd85 O84 2.223 . S
Cd85 O88 2.297 . S
Cd85 O89 2.439 . S
Cd85 O95 2.240 . S
Cd86 O87 2.240 . S
Cd86 O94 2.223 . S
Cd86 O96 2.297 . S
Cd86 O97 2.439 . S
O87 Cd86 2.240 . S
O87 C92 1.279 . S
O88 Cd85 2.297 . S
O88 C90 1.247 . S
O89 Cd85 2.439 . S
O89 C90 1.208 . S
C90 O88 1.247 . S
C90 O89 1.208 . S
C91 O96 1.247 . S
C91 O97 1.208 . S
C92 O84 1.315 . S
C92 O87 1.279 . S
C93 O94 1.315 . S
C93 O95 1.279 . S
O94 Cd86 2.223 . S
O94 C93 1.315 . S
O95 Cd85 2.240 . S
O95 C93 1.279 . S
O96 Cd86 2.297 . S
O96 C91 1.247 . S
O97 Cd86 2.439 . S
O97 C91 1.208 . S
O98 Cd99 2.223 . S
O98 C106 1.315 . S
Cd99 O98 2.223 . S
Cd99 O102 2.297 . S
Cd99 O103 2.439 . S
Cd99 O109 2.240 . S
Cd100 O101 2.240 . S
Cd100 O108 2.223 . S
Cd100 O110 2.297 . S
Cd100 O111 2.439 . S
O101 Cd100 2.240 . S
O101 C106 1.279 . S
O102 Cd99 2.297 . S
O102 C104 1.247 . S
O103 Cd99 2.439 . S
O103 C104 1.208 . S
C104 O102 1.247 . S
C104 O103 1.208 . S
C105 O110 1.247 . S
C105 O111 1.208 . S
C106 O98 1.315 . S
C106 O101 1.279 . S
C107 O108 1.315 . S
C107 O109 1.279 . S
O108 Cd100 2.223 . S
O108 C107 1.315 . S
O109 Cd99 2.240 . S
O109 C107 1.279 . S
O110 Cd100 2.297 . S
O110 C105 1.247 . S
O111 Cd100 2.439 . S
O111 C105 1.208 . S
O112 Cd113 2.223 . S
O112 C120 1.315 . S
Cd113 O112 2.223 . S
Cd113 O116 2.297 . S
Cd113 O117 2.439 . S
Cd113 O123 2.240 . S
Cd114 O115 2.240 . S
Cd114 O122 2.223 . S
Cd114 O124 2.297 . S
Cd114 O125 2.439 . S
O115 Cd114 2.240 . S
O115 C120 1.279 . S
O116 Cd113 2.297 . S
O116 C118 1.247 . S
O117 Cd113 2.439 . S
O117 C118 1.208 . S
C118 O116 1.247 . S
C118 O117 1.208 . S
C119 O124 1.247 . S
C119 O125 1.208 . S
C120 O112 1.315 . S
C120 O115 1.279 . S
C121 O122 1.315 . S
C121 O123 1.279 . S
O122 Cd114 2.223 . S
O122 C121 1.315 . S
O123 Cd113 2.240 . S
O123 C121 1.279 . S
O124 Cd114 2.297 . S
O124 C119 1.247 . S
O125 Cd114 2.439 . S
O125 C119 1.208 . S
O126 Cd127 2.223 . S
O126 C134 1.315 . S
Cd127 O126 2.223 . S
Cd127 O130 2.297 1_554 S
Cd127 O131 2.439 1_554 S
Cd127 O137 2.240 . S
Cd128 O129 2.240 . S
Cd128 O136 2.223 . S
Cd128 O138 2.297 . S
Cd128 O139 2.439 . S
O129 Cd128 2.240 . S
O129 C134 1.279 . S
O130 Cd127 2.297 1_556 S
O130 C132 1.247 . S
O131 Cd127 2.439 1_556 S
O131 C132 1.208 . S
C132 O130 1.247 . S
C132 O131 1.208 . S
C133 O138 1.247 . S
C133 O139 1.208 . S
C134 O126 1.315 . S
C134 O129 1.279 . S
C135 O136 1.315 . S
C135 O137 1.279 . S
O136 Cd128 2.223 . S
O136 C135 1.315 . S
O137 Cd127 2.240 . S
O137 C135 1.279 . S
O138 Cd128 2.297 . S
O138 C133 1.247 . S
O139 Cd128 2.439 . S
O139 C133 1.208 . S
O140 Cd141 2.223 1_556 S
O140 C148 1.315 . S
Cd141 O140 2.223 1_554 S
Cd141 O144 2.297 . S
Cd141 O145 2.439 . S
Cd141 O151 2.240 . S
Cd142 O143 2.240 . S
Cd142 O150 2.223 . S
Cd142 O152 2.297 . S
Cd142 O153 2.439 1_556 S
O143 Cd142 2.240 . S
O143 C148 1.279 . S
O144 Cd141 2.297 . S
O144 C146 1.247 . S
O145 Cd141 2.439 . S
O145 C146 1.208 . S
C146 O144 1.247 . S
C146 O145 1.208 . S
C147 O152 1.244 1_554 S
C147 O153 1.211 . S
C148 O140 1.315 . S
C148 O143 1.279 . S
C149 O150 1.315 . S
C149 O151 1.279 1_556 S
O150 Cd142 2.223 . S
O150 C149 1.315 . S
O151 Cd141 2.240 . S
O151 C149 1.279 1_554 S
O152 Cd142 2.297 . S
O152 C147 1.244 1_556 S
O153 Cd142 2.439 1_554 S
O153 C147 1.211 . S
O154 Cd155 2.223 . S
O154 C162 1.315 . S
Cd155 O154 2.223 . S
Cd155 O158 2.297 . S
Cd155 O159 2.439 . S
Cd155 O165 2.240 . S
Cd156 O157 2.240 . S
Cd156 O164 2.223 . S
Cd156 O166 2.297 . S
Cd156 O167 2.439 . S
O157 Cd156 2.240 . S
O157 C162 1.279 . S
O158 Cd155 2.297 . S
O158 C160 1.247 . S
O159 Cd155 2.439 . S
O159 C160 1.208 . S
C160 O158 1.247 . S
C160 O159 1.208 . S
C161 O166 1.247 . S
C161 O167 1.208 . S
C162 O154 1.315 . S
C162 O157 1.279 . S
C163 O164 1.315 . S
C163 O165 1.279 . S
O164 Cd156 2.223 . S
O164 C163 1.315 . S
O165 Cd155 2.240 . S
O165 C163 1.279 . S
O166 Cd156 2.297 . S
O166 C161 1.247 . S
O167 Cd156 2.439 . S
O167 C161 1.208 . S
O168 Cd169 2.223 . S
O168 C176 1.315 . S
Cd169 O168 2.223 . S
Cd169 O172 2.297 . S
Cd169 O173 2.439 . S
Cd169 O179 2.240 . S
Cd170 O171 2.240 . S
Cd170 O178 2.223 . S
Cd170 O180 2.297 . S
Cd170 O181 2.439 . S
O171 Cd170 2.240 . S
O171 C176 1.279 . S
O172 Cd169 2.297 . S
O172 C174 1.247 . S
O173 Cd169 2.439 . S
O173 C174 1.208 . S
C174 O172 1.247 . S
C174 O173 1.208 . S
C175 O180 1.247 . S
C175 O181 1.208 . S
C176 O168 1.315 . S
C176 O171 1.279 . S
C177 O178 1.315 . S
C177 O179 1.279 . S
O178 Cd170 2.223 . S
O178 C177 1.315 . S
O179 Cd169 2.240 . S
O179 C177 1.279 . S
O180 Cd170 2.297 . S
O180 C175 1.247 . S
O181 Cd170 2.439 . S
O181 C175 1.208 . S
O182 Cd183 2.223 . S
O182 C190 1.315 . S
Cd183 O182 2.223 . S
Cd183 O186 2.297 . S
Cd183 O187 2.439 . S
Cd183 O193 2.240 . S
Cd184 O185 2.240 . S
Cd184 O192 2.223 . S
Cd184 O194 2.297 . S
Cd184 O195 2.439 . S
O185 Cd184 2.240 . S
O185 C190 1.279 . S
O186 Cd183 2.297 . S
O186 C188 1.247 . S
O187 Cd183 2.439 . S
O187 C188 1.208 . S
C188 O186 1.247 . S
C188 O187 1.208 . S
C189 O194 1.247 . S
C189 O195 1.208 . S
C190 O182 1.315 . S
C190 O185 1.279 . S
C191 O192 1.315 . S
C191 O193 1.279 . S
O192 Cd184 2.223 . S
O192 C191 1.315 . S
O193 Cd183 2.240 . S
O193 C191 1.279 . S
O194 Cd184 2.297 . S
O194 C189 1.247 . S
O195 Cd184 2.439 . S
O195 C189 1.208 . S
O196 Cd197 2.223 . S
O196 C204 1.315 . S
Cd197 O196 2.223 . S
Cd197 O200 2.297 . S
Cd197 O201 2.439 . S
Cd197 O207 2.240 . S
Cd198 O199 2.240 . S
Cd198 O206 2.223 . S
Cd198 O208 2.297 . S
Cd198 O209 2.439 . S
O199 Cd198 2.240 . S
O199 C204 1.279 . S
O200 Cd197 2.297 . S
O200 C202 1.247 . S
O201 Cd197 2.439 . S
O201 C202 1.208 . S
C202 O200 1.247 . S
C202 O201 1.208 . S
C203 O208 1.247 . S
C203 O209 1.208 . S
C204 O196 1.315 . S
C204 O199 1.279 . S
C205 O206 1.315 . S
C205 O207 1.279 . S
O206 Cd198 2.223 . S
O206 C205 1.315 . S
O207 Cd197 2.240 . S
O207 C205 1.279 . S
O208 Cd198 2.297 . S
O208 C203 1.247 . S
O209 Cd198 2.439 . S
O209 C203 1.208 . S
O210 Cd211 2.223 . S
O210 C218 1.315 . S
Cd211 O210 2.223 . S
Cd211 O214 2.297 . S
Cd211 O215 2.439 . S
Cd211 O221 2.240 . S
Cd212 O213 2.240 . S
Cd212 O220 2.223 . S
Cd212 O222 2.297 . S
Cd212 O223 2.439 . S
O213 Cd212 2.240 . S
O213 C218 1.279 . S
O214 Cd211 2.297 . S
O214 C216 1.247 . S
O215 Cd211 2.439 . S
O215 C216 1.208 . S
C216 O214 1.247 . S
C216 O215 1.208 . S
C217 O222 1.247 . S
C217 O223 1.208 . S
C218 O210 1.315 . S
C218 O213 1.279 . S
C219 O220 1.315 . S
C219 O221 1.279 . S
O220 Cd212 2.223 . S
O220 C219 1.315 . S
O221 Cd211 2.240 . S
O221 C219 1.279 . S
O222 Cd212 2.297 . S
O222 C217 1.247 . S
O223 Cd212 2.439 . S
O223 C217 1.208 . S
H224 C230 0.930 . S
H225 C233 0.930 . S
H226 C234 0.930 . S
H227 C235 0.930 . S
H228 C238 0.930 . S
H229 C239 0.930 . S
C230 H224 0.930 . S
C230 C231 1.355 . S
C230 C232 1.415 . S
C231 C230 1.355 . S
C231 C233 1.419 . S
C232 C230 1.415 . S
C232 C237 1.425 . S
C232 C239 1.409 . S
C233 H225 0.930 . S
C233 C231 1.419 . S
C233 C234 1.362 . S
C234 H226 0.930 . S
C234 C233 1.362 . S
C234 C237 1.409 . S
C235 H227 0.930 . S
C235 C236 1.355 . S
C235 C237 1.415 . S
C236 C235 1.355 . S
C236 C238 1.419 . S
C237 C232 1.425 . S
C237 C234 1.409 . S
C237 C235 1.415 . S
C238 H228 0.930 . S
C238 C236 1.419 . S
C238 C239 1.362 . S
C239 H229 0.930 . S
C239 C232 1.409 . S
C239 C238 1.362 . S
H240 C246 0.930 . S
H241 C249 0.930 . S
H242 C250 0.930 . S
H243 C251 0.930 . S
H244 C254 0.930 . S
H245 C255 0.930 . S
C246 H240 0.930 . S
C246 C247 1.355 . S
C246 C248 1.415 . S
C247 C246 1.355 . S
C247 C249 1.419 . S
C248 C246 1.415 . S
C248 C253 1.425 . S
C248 C255 1.409 . S
C249 H241 0.930 . S
C249 C247 1.419 . S
C249 C250 1.362 . S
C250 H242 0.930 . S
C250 C249 1.362 . S
C250 C253 1.409 . S
C251 H243 0.930 . S
C251 C252 1.355 . S
C251 C253 1.415 . S
C252 C251 1.355 . S
C252 C254 1.419 . S
C253 C248 1.425 . S
C253 C250 1.409 . S
C253 C251 1.415 . S
C254 H244 0.930 . S
C254 C252 1.419 . S
C254 C255 1.362 . S
C255 H245 0.930 . S
C255 C248 1.409 . S
C255 C254 1.362 . S
H256 C262 0.930 . S
H257 C265 0.930 . S
H258 C266 0.930 . S
H259 C267 0.930 . S
H260 C270 0.930 . S
H261 C271 0.930 . S
C262 H256 0.930 . S
C262 C263 1.355 . S
C262 C264 1.415 . S
C263 C262 1.355 . S
C263 C265 1.419 . S
C264 C262 1.415 . S
C264 C269 1.425 . S
C264 C271 1.409 . S
C265 H257 0.930 . S
C265 C263 1.419 . S
C265 C266 1.362 . S
C266 H258 0.930 . S
C266 C265 1.362 . S
C266 C269 1.409 . S
C267 H259 0.930 . S
C267 C268 1.355 . S
C267 C269 1.415 . S
C268 C267 1.355 . S
C268 C270 1.419 . S
C269 C264 1.425 . S
C269 C266 1.409 . S
C269 C267 1.415 . S
C270 H260 0.930 . S
C270 C268 1.419 . S
C270 C271 1.362 . S
C271 H261 0.930 . S
C271 C264 1.409 . S
C271 C270 1.362 . S
H272 C278 0.930 . S
H273 C281 0.930 . S
H274 C282 0.930 . S
H275 C283 0.930 1_554 S
H276 C286 0.930 1_455 S
H277 C287 0.930 . S
C278 H272 0.930 . S
C278 C279 1.355 . S
C278 C280 1.415 . S
C279 C278 1.355 . S
C279 C281 1.419 1_556 S
C280 C278 1.415 . S
C280 C285 1.425 . S
C280 C287 1.409 . S
C281 H273 0.930 . S
C281 C279 1.419 1_554 S
C281 C282 1.362 . S
C282 H274 0.930 . S
C282 C281 1.362 . S
C282 C285 1.409 1_554 S
C283 H275 0.930 1_556 S
C283 C284 1.355 . S
C283 C285 1.415 . S
C284 C283 1.355 . S
C284 C286 1.419 . S
C285 C280 1.425 . S
C285 C282 1.409 1_556 S
C285 C283 1.415 . S
C286 H276 0.930 1_655 S
C286 C284 1.419 . S
C286 C287 1.362 . S
C287 H277 0.930 . S
C287 C280 1.409 . S
C287 C286 1.362 . S
H288 C294 0.930 . S
H289 C297 0.930 . S
H290 C298 0.930 1_554 S
H291 C299 0.930 . S
H292 C302 0.930 . S
H293 C303 0.930 . S
C294 H288 0.930 . S
C294 C295 1.355 . S
C294 C296 1.415 . S
C295 C294 1.355 . S
C295 C297 1.419 . S
C296 C294 1.415 . S
C296 C301 1.425 . S
C296 C303 1.409 . S
C297 H289 0.930 . S
C297 C295 1.419 . S
C297 C298 1.362 . S
C298 H290 0.930 1_556 S
C298 C297 1.362 . S
C298 C301 1.409 . S
C299 H291 0.930 . S
C299 C300 1.355 . S
C299 C301 1.415 . S
C300 C299 1.355 . S
C300 C302 1.419 . S
C301 C296 1.425 . S
C301 C298 1.409 . S
C301 C299 1.415 . S
C302 H292 0.930 . S
C302 C300 1.419 . S
C302 C303 1.362 . S
C303 H293 0.930 . S
C303 C296 1.409 . S
C303 C302 1.362 . S
H304 C310 0.930 . S
H305 C313 0.930 1_455 S
H306 C314 0.930 . S
H307 C315 0.930 . S
H308 C318 0.930 . S
H309 C319 0.930 . S
C310 H304 0.930 . S
C310 C311 1.355 . S
C310 C312 1.415 . S
C311 C310 1.355 . S
C311 C313 1.419 . S
C312 C310 1.415 . S
C312 C317 1.425 . S
C312 C319 1.409 . S
C313 H305 0.930 1_655 S
C313 C311 1.419 . S
C313 C314 1.362 . S
C314 H306 0.930 . S
C314 C313 1.362 . S
C314 C317 1.409 . S
C315 H307 0.930 . S
C315 C316 1.355 . S
C315 C317 1.415 . S
C316 C315 1.355 . S
C316 C318 1.419 . S
C317 C312 1.425 . S
C317 C314 1.409 . S
C317 C315 1.415 . S
C318 H308 0.930 . S
C318 C316 1.419 . S
C318 C319 1.362 . S
C319 H309 0.930 . S
C319 C312 1.409 . S
C319 C318 1.362 . S
H320 C326 0.930 . S
H321 C329 0.930 . S
H322 C330 0.930 . S
H323 C331 0.930 . S
H324 C334 0.930 . S
H325 C335 0.930 . S
C326 H320 0.930 . S
C326 C327 1.355 . S
C326 C328 1.415 . S
C327 C326 1.355 . S
C327 C329 1.419 . S
C328 C326 1.415 . S
C328 C333 1.425 . S
C328 C335 1.409 . S
C329 H321 0.930 . S
C329 C327 1.419 . S
C329 C330 1.362 . S
C330 H322 0.930 . S
C330 C329 1.362 . S
C330 C333 1.409 . S
C331 H323 0.930 . S
C331 C332 1.355 . S
C331 C333 1.415 . S
C332 C331 1.355 . S
C332 C334 1.419 . S
C333 C328 1.425 . S
C333 C330 1.409 . S
C333 C331 1.415 . S
C334 H324 0.930 . S
C334 C332 1.419 . S
C334 C335 1.362 . S
C335 H325 0.930 . S
C335 C328 1.409 . S
C335 C334 1.362 . S
H336 C342 0.930 . S
H337 C345 0.930 . S
H338 C346 0.930 . S
H339 C347 0.930 . S
H340 C350 0.930 . S
H341 C351 0.930 . S
C342 H336 0.930 . S
C342 C343 1.355 . S
C342 C344 1.415 . S
C343 C342 1.355 . S
C343 C345 1.419 . S
C344 C342 1.415 . S
C344 C349 1.425 . S
C344 C351 1.409 . S
C345 H337 0.930 . S
C345 C343 1.419 . S
C345 C346 1.362 . S
C346 H338 0.930 . S
C346 C345 1.362 . S
C346 C349 1.409 . S
C347 H339 0.930 . S
C347 C348 1.355 . S
C347 C349 1.415 . S
C348 C347 1.355 . S
C348 C350 1.419 . S
C349 C344 1.425 . S
C349 C346 1.409 . S
C349 C347 1.415 . S
C350 H340 0.930 . S
C350 C348 1.419 . S
C350 C351 1.362 . S
C351 H341 0.930 . S
C351 C344 1.409 . S
C351 C350 1.362 . S
H352 C358 0.930 . S
H353 C361 0.930 . S
H354 C362 0.930 . S
H355 C363 0.930 . S
H356 C366 0.930 1_554 S
H357 C367 0.930 . S
C358 H352 0.930 . S
C358 C359 1.355 . S
C358 C360 1.415 1_455 S
C359 C358 1.355 . S
C359 C361 1.419 1_455 S
C360 C358 1.415 1_655 S
C360 C365 1.425 . S
C360 C367 1.409 1_655 S
C361 H353 0.930 . S
C361 C359 1.419 1_655 S
C361 C362 1.362 . S
C362 H354 0.930 . S
C362 C361 1.362 . S
C362 C365 1.409 . S
C363 H355 0.930 . S
C363 C364 1.355 . S
C363 C365 1.415 . S
C364 C363 1.355 . S
C364 C366 1.419 . S
C365 C360 1.425 . S
C365 C362 1.409 . S
C365 C363 1.415 . S
C366 H356 0.930 1_556 S
C366 C364 1.419 . S
C366 C367 1.362 1_655 S
C367 H357 0.930 . S
C367 C360 1.409 1_455 S
C367 C366 1.362 1_455 S
H368 C374 0.930 . S
H369 C377 0.930 . S
H370 C378 0.930 . S
H371 C379 0.930 . S
H372 C382 0.930 . S
H373 C383 0.930 . S
C374 H368 0.930 . S
C374 C375 1.355 . S
C374 C376 1.415 . S
C375 C374 1.355 . S
C375 C377 1.419 . S
C376 C374 1.415 . S
C376 C381 1.425 . S
C376 C383 1.409 . S
C377 H369 0.930 . S
C377 C375 1.419 . S
C377 C378 1.362 . S
C378 H370 0.930 . S
C378 C377 1.362 . S
C378 C381 1.409 . S
C379 H371 0.930 . S
C379 C380 1.355 . S
C379 C381 1.415 . S
C380 C379 1.355 . S
C380 C382 1.419 . S
C381 C376 1.425 . S
C381 C378 1.409 . S
C381 C379 1.415 . S
C382 H372 0.930 . S
C382 C380 1.419 . S
C382 C383 1.362 . S
C383 H373 0.930 . S
C383 C376 1.409 . S
C383 C382 1.362 . S
H384 C390 0.930 . S
H385 C393 0.930 . S
H386 C394 0.930 . S
H387 C395 0.930 . S
H388 C398 0.930 . S
H389 C399 0.930 . S
C390 H384 0.930 . S
C390 C391 1.355 . S
C390 C392 1.415 . S
C391 C390 1.355 . S
C391 C393 1.419 . S
C392 C390 1.415 . S
C392 C397 1.425 . S
C392 C399 1.409 . S
C393 H385 0.930 . S
C393 C391 1.419 . S
C393 C394 1.362 . S
C394 H386 0.930 . S
C394 C393 1.362 . S
C394 C397 1.409 . S
C395 H387 0.930 . S
C395 C396 1.355 . S
C395 C397 1.415 . S
C396 C395 1.355 . S
C396 C398 1.419 . S
C397 C392 1.425 . S
C397 C394 1.409 . S
C397 C395 1.415 . S
C398 H388 0.930 . S
C398 C396 1.419 . S
C398 C399 1.362 . S
C399 H389 0.930 . S
C399 C392 1.409 . S
C399 C398 1.362 . S
H400 C406 0.930 . S
H401 C409 0.930 . S
H402 C410 0.930 . S
H403 C411 0.930 . S
H404 C414 0.930 . S
H405 C415 0.930 . S
C406 H400 0.930 . S
C406 C407 1.355 . S
C406 C408 1.415 . S
C407 C406 1.355 . S
C407 C409 1.419 . S
C408 C406 1.415 . S
C408 C413 1.425 . S
C408 C415 1.409 . S
C409 H401 0.930 . S
C409 C407 1.419 . S
C409 C410 1.362 . S
C410 H402 0.930 . S
C410 C409 1.362 . S
C410 C413 1.409 . S
C411 H403 0.930 . S
C411 C412 1.355 . S
C411 C413 1.415 . S
C412 C411 1.355 . S
C412 C414 1.419 . S
C413 C408 1.425 . S
C413 C410 1.409 . S
C413 C411 1.415 . S
C414 H404 0.930 . S
C414 C412 1.419 . S
C414 C415 1.362 . S
C415 H405 0.930 . S
C415 C408 1.409 . S
C415 C414 1.362 . S
H416 C422 0.930 . S
H417 C425 0.930 . S
H418 C426 0.930 . S
H419 C427 0.930 . S
H420 C430 0.930 . S
H421 C431 0.930 . S
C422 H416 0.930 . S
C422 C423 1.355 . S
C422 C424 1.415 1_455 S
C423 C422 1.355 . S
C423 C425 1.419 1_455 S
C424 C422 1.415 1_655 S
C424 C429 1.425 . S
C424 C431 1.409 1_655 S
C425 H417 0.930 . S
C425 C423 1.419 1_655 S
C425 C426 1.362 . S
C426 H418 0.930 . S
C426 C425 1.362 . S
C426 C429 1.409 . S
C427 H419 0.930 . S
C427 C428 1.355 . S
C427 C429 1.415 . S
C428 C427 1.355 . S
C428 C430 1.419 . S
C429 C424 1.425 . S
C429 C426 1.409 . S
C429 C427 1.415 . S
C430 H420 0.930 . S
C430 C428 1.419 . S
C430 C431 1.362 1_655 S
C431 H421 0.930 . S
C431 C424 1.409 1_455 S
C431 C430 1.362 1_455 S
H432 C438 0.930 . S
H433 C441 0.930 . S
H434 C442 0.930 1_554 S
H435 C443 0.938 . S
H436 C446 0.930 . S
H437 C447 0.930 . S
C438 H432 0.930 . S
C438 C439 1.355 . S
C438 C440 1.415 . S
C439 C438 1.355 . S
C439 C441 1.419 . S
C440 C438 1.415 . S
C440 C445 1.425 . S
C440 C447 1.409 . S
C441 H433 0.930 . S
C441 C439 1.419 . S
C441 C442 1.362 . S
C442 H434 0.930 1_556 S
C442 C441 1.362 . S
C442 C445 1.409 . S
C443 H435 0.938 . S
C443 C444 1.353 1_554 S
C443 C445 1.408 1_554 S
C444 C443 1.353 1_556 S
C444 C446 1.419 . S
C445 C440 1.425 . S
C445 C442 1.409 . S
C445 C443 1.408 1_556 S
C446 H436 0.930 . S
C446 C444 1.419 . S
C446 C447 1.362 . S
C447 H437 0.930 . S
C447 C440 1.409 . S
C447 C446 1.362 . S
H448 C454 0.930 . S
H449 C457 0.930 . S
H450 C458 0.930 . S
H451 C459 0.930 . S
H452 C462 0.930 . S
H453 C463 0.930 . S
C454 H448 0.930 . S
C454 C455 1.355 . S
C454 C456 1.415 . S
C455 C454 1.355 . S
C455 C457 1.419 . S
C456 C454 1.415 . S
C456 C461 1.425 . S
C456 C463 1.409 . S
C457 H449 0.930 . S
C457 C455 1.419 . S
C457 C458 1.362 . S
C458 H450 0.930 . S
C458 C457 1.362 . S
C458 C461 1.409 . S
C459 H451 0.930 . S
C459 C460 1.355 . S
C459 C461 1.415 . S
C460 C459 1.355 . S
C460 C462 1.419 . S
C461 C456 1.425 . S
C461 C458 1.409 . S
C461 C459 1.415 . S
C462 H452 0.930 . S
C462 C460 1.419 . S
C462 C463 1.362 . S
C463 H453 0.930 . S
C463 C456 1.409 . S
C463 C462 1.362 . S
H464 C470 0.930 . S
H465 C473 0.930 . S
H466 C474 0.930 . S
H467 C475 0.930 . S
H468 C478 0.930 . S
H469 C479 0.930 . S
C470 H464 0.930 . S
C470 C471 1.355 . S
C470 C472 1.415 . S
C471 C470 1.355 . S
C471 C473 1.419 . S
C472 C470 1.415 . S
C472 C477 1.425 . S
C472 C479 1.409 . S
C473 H465 0.930 . S
C473 C471 1.419 . S
C473 C474 1.362 . S
C474 H466 0.930 . S
C474 C473 1.362 . S
C474 C477 1.409 . S
C475 H467 0.930 . S
C475 C476 1.355 . S
C475 C477 1.415 . S
C476 C475 1.355 . S
C476 C478 1.419 . S
C477 C472 1.425 . S
C477 C474 1.409 . S
C477 C475 1.415 . S
C478 H468 0.930 . S
C478 C476 1.419 . S
C478 C479 1.362 . S
C479 H469 0.930 . S
C479 C472 1.409 . S
C479 C478 1.362 . S
H480 C486 0.930 . S
H481 C489 0.930 . S
H482 C490 0.930 . S
H483 C491 0.930 . S
H484 C494 0.930 . S
H485 C495 0.930 . S
C486 H480 0.930 . S
C486 C487 1.355 . S
C486 C488 1.415 . S
C487 C486 1.355 . S
C487 C489 1.419 . S
C488 C486 1.415 . S
C488 C493 1.425 . S
C488 C495 1.409 . S
C489 H481 0.930 . S
C489 C487 1.419 . S
C489 C490 1.362 . S
C490 H482 0.930 . S
C490 C489 1.362 . S
C490 C493 1.409 . S
C491 H483 0.930 . S
C491 C492 1.355 1_554 S
C491 C493 1.415 . S
C492 C491 1.355 1_556 S
C492 C494 1.419 . S
C493 C488 1.425 . S
C493 C490 1.409 . S
C493 C491 1.415 . S
C494 H484 0.930 . S
C494 C492 1.419 . S
C494 C495 1.362 1_556 S
C495 H485 0.930 . S
C495 C488 1.409 . S
C495 C494 1.362 1_554 S
H496 C502 0.930 . S
H497 C505 0.930 . S
H498 C506 0.930 . S
H499 C507 0.930 . S
H500 C510 0.930 . S
H501 C511 0.930 . S
C502 H496 0.930 . S
C502 C503 1.355 . S
C502 C504 1.415 . S
C503 C502 1.355 . S
C503 C505 1.419 . S
C504 C502 1.415 . S
C504 C509 1.425 . S
C504 C511 1.409 . S
C505 H497 0.930 . S
C505 C503 1.419 . S
C505 C506 1.362 . S
C506 H498 0.930 . S
C506 C505 1.362 . S
C506 C509 1.409 . S
C507 H499 0.930 . S
C507 C508 1.355 . S
C507 C509 1.415 . S
C508 C507 1.355 . S
C508 C510 1.419 . S
C509 C504 1.425 . S
C509 C506 1.409 . S
C509 C507 1.415 . S
C510 H500 0.930 . S
C510 C508 1.419 . S
C510 C511 1.362 . S
C511 H501 0.930 . S
C511 C504 1.409 . S
C511 C510 1.362 . S
H512 C518 0.930 . S
H513 C521 0.930 . S
H514 C522 0.930 . S
H515 C523 0.930 . S
H516 C526 0.930 . S
H517 C527 0.930 . S
C518 H512 0.930 . S
C518 C519 1.355 . S
C518 C520 1.415 . S
C519 C518 1.355 . S
C519 C521 1.419 . S
C520 C518 1.415 . S
C520 C525 1.425 . S
C520 C527 1.409 . S
C521 H513 0.930 . S
C521 C519 1.419 . S
C521 C522 1.362 . S
C522 H514 0.930 . S
C522 C521 1.362 . S
C522 C525 1.409 . S
C523 H515 0.930 . S
C523 C524 1.355 . S
C523 C525 1.415 . S
C524 C523 1.355 . S
C524 C526 1.419 . S
C525 C520 1.425 . S
C525 C522 1.409 . S
C525 C523 1.415 . S
C526 H516 0.930 . S
C526 C524 1.419 . S
C526 C527 1.362 . S
C527 H517 0.930 . S
C527 C520 1.409 . S
C527 C526 1.362 . S
H528 C534 0.930 . S
H529 C537 0.930 . S
H530 C538 0.930 . S
H531 C539 0.930 . S
H532 C542 0.930 . S
H533 C543 0.930 . S
C534 H528 0.930 . S
C534 C535 1.355 . S
C534 C536 1.415 . S
C535 C534 1.355 . S
C535 C537 1.419 . S
C536 C534 1.415 . S
C536 C541 1.425 . S
C536 C543 1.409 . S
C537 H529 0.930 . S
C537 C535 1.419 . S
C537 C538 1.362 . S
C538 H530 0.930 . S
C538 C537 1.362 . S
C538 C541 1.409 . S
C539 H531 0.930 . S
C539 C540 1.355 . S
C539 C541 1.415 . S
C540 C539 1.355 . S
C540 C542 1.419 . S
C541 C536 1.425 . S
C541 C538 1.409 . S
C541 C539 1.415 . S
C542 H532 0.930 . S
C542 C540 1.419 . S
C542 C543 1.362 . S
C543 H533 0.930 . S
C543 C536 1.409 . S
C543 C542 1.362 . S
H544 C550 0.930 . S
H545 C553 0.930 . S
H546 C554 0.930 . S
H547 C555 0.930 . S
H548 C558 0.930 . S
H549 C559 0.930 . S
C550 H544 0.930 . S
C550 C551 1.355 . S
C550 C552 1.415 . S
C551 C550 1.355 . S
C551 C553 1.419 . S
C552 C550 1.415 . S
C552 C557 1.425 . S
C552 C559 1.409 . S
C553 H545 0.930 . S
C553 C551 1.419 . S
C553 C554 1.362 . S
C554 H546 0.930 . S
C554 C553 1.362 . S
C554 C557 1.409 . S
C555 H547 0.930 . S
C555 C556 1.355 . S
C555 C557 1.415 . S
C556 C555 1.355 . S
C556 C558 1.419 . S
C557 C552 1.425 . S
C557 C554 1.409 . S
C557 C555 1.415 . S
C558 H548 0.930 . S
C558 C556 1.419 . S
C558 C559 1.362 . S
C559 H549 0.930 . S
C559 C552 1.409 . S
C559 C558 1.362 . S
H560 C566 0.930 . S
H561 C569 0.930 . S
H562 C570 0.930 . S
H563 C571 0.930 . S
H564 C574 0.930 . S
H565 C575 0.930 . S
C566 H560 0.930 . S
C566 C567 1.355 . S
C566 C568 1.415 . S
C567 C566 1.355 . S
C567 C569 1.419 . S
C568 C566 1.415 . S
C568 C573 1.425 . S
C568 C575 1.409 . S
C569 H561 0.930 . S
C569 C567 1.419 . S
C569 C570 1.362 . S
C570 H562 0.930 . S
C570 C569 1.362 . S
C570 C573 1.409 . S
C571 H563 0.930 . S
C571 C572 1.355 . S
C571 C573 1.415 . S
C572 C571 1.355 . S
C572 C574 1.419 . S
C573 C568 1.425 . S
C573 C570 1.409 . S
C573 C571 1.415 . S
C574 H564 0.930 . S
C574 C572 1.419 . S
C574 C575 1.362 . S
C575 H565 0.930 . S
C575 C568 1.409 . S
C575 C574 1.362 . S
H576 C582 0.930 . S
H577 C585 0.930 . S
H578 C586 0.930 . S
H579 C587 0.930 . S
H580 C590 0.930 . S
H581 C591 0.930 . S
C582 H576 0.930 . S
C582 C583 1.355 . S
C582 C584 1.415 . S
C583 C582 1.355 . S
C583 C585 1.419 . S
C584 C582 1.415 . S
C584 C589 1.425 1_565 S
C584 C591 1.409 . S
C585 H577 0.930 . S
C585 C583 1.419 . S
C585 C586 1.362 1_565 S
C586 H578 0.930 . S
C586 C585 1.362 1_545 S
C586 C589 1.409 . S
C587 H579 0.930 . S
C587 C588 1.355 . S
C587 C589 1.415 . S
C588 C587 1.355 . S
C588 C590 1.419 . S
C589 C584 1.425 1_545 S
C589 C586 1.409 . S
C589 C587 1.415 . S
C590 H580 0.930 . S
C590 C588 1.419 . S
C590 C591 1.362 1_545 S
C591 H581 0.930 . S
C591 C584 1.409 . S
C591 C590 1.362 1_565 S
H592 C598 0.925 1_656 S
H593 C601 0.930 1_556 S
H594 C602 0.930 . S
H595 C603 0.930 . S
H596 C606 0.930 1_655 S
H597 C607 0.930 . S
C598 H592 0.925 1_454 S
C598 C599 1.351 1_554 S
C598 C600 1.422 . S
C599 C598 1.351 1_556 S
C599 C601 1.419 1_556 S
C600 C598 1.422 . S
C600 C605 1.425 1_545 S
C600 C607 1.409 1_445 S
C601 H593 0.930 1_554 S
C601 C599 1.419 1_554 S
C601 C602 1.362 . S
C602 H594 0.930 . S
C602 C601 1.362 . S
C602 C605 1.409 1_545 S
C603 H595 0.930 . S
C603 C604 1.355 . S
C603 C605 1.415 . S
C604 C603 1.355 . S
C604 C606 1.419 . S
C605 C600 1.425 1_565 S
C605 C602 1.409 1_565 S
C605 C603 1.415 . S
C606 H596 0.930 1_455 S
C606 C604 1.419 . S
C606 C607 1.362 1_455 S
C607 H597 0.930 . S
C607 C600 1.409 1_665 S
C607 C606 1.362 1_655 S
H608 C614 0.930 . S
H609 C617 0.930 . S
H610 C618 0.930 . S
H611 C619 0.930 . S
H612 C622 0.930 . S
H613 C623 0.930 . S
C614 H608 0.930 . S
C614 C615 1.355 . S
C614 C616 1.415 . S
C615 C614 1.355 . S
C615 C617 1.419 . S
C616 C614 1.415 . S
C616 C621 1.425 . S
C616 C623 1.409 . S
C617 H609 0.930 . S
C617 C615 1.419 . S
C617 C618 1.362 . S
C618 H610 0.930 . S
C618 C617 1.362 . S
C618 C621 1.409 . S
C619 H611 0.930 . S
C619 C620 1.355 . S
C619 C621 1.415 . S
C620 C619 1.355 . S
C620 C622 1.419 . S
C621 C616 1.425 . S
C621 C618 1.409 . S
C621 C619 1.415 . S
C622 H612 0.930 . S
C622 C620 1.419 . S
C622 C623 1.362 . S
C623 H613 0.930 . S
C623 C616 1.409 . S
C623 C622 1.362 . S
H624 C630 0.930 . S
H625 C633 0.930 . S
H626 C634 0.930 . S
H627 C635 0.930 . S
H628 C638 0.930 . S
H629 C639 0.930 . S
C630 H624 0.930 . S
C630 C631 1.355 . S
C630 C632 1.415 . S
C631 C630 1.355 . S
C631 C633 1.419 . S
C632 C630 1.415 . S
C632 C637 1.425 . S
C632 C639 1.409 . S
C633 H625 0.930 . S
C633 C631 1.419 . S
C633 C634 1.362 . S
C634 H626 0.930 . S
C634 C633 1.362 . S
C634 C637 1.409 . S
C635 H627 0.930 . S
C635 C636 1.355 . S
C635 C637 1.415 . S
C636 C635 1.355 . S
C636 C638 1.419 . S
C637 C632 1.425 . S
C637 C634 1.409 . S
C637 C635 1.415 . S
C638 H628 0.930 . S
C638 C636 1.419 . S
C638 C639 1.362 . S
C639 H629 0.930 . S
C639 C632 1.409 . S
C639 C638 1.362 . S
H640 C646 0.930 . S
H641 C649 0.930 . S
H642 C650 0.930 . S
H643 C651 0.930 . S
H644 C654 0.930 1_556 S
H645 C655 0.930 . S
C646 H640 0.930 . S
C646 C647 1.355 . S
C646 C648 1.415 . S
C647 C646 1.355 . S
C647 C649 1.419 . S
C648 C646 1.415 . S
C648 C653 1.425 . S
C648 C655 1.409 . S
C649 H641 0.930 . S
C649 C647 1.419 . S
C649 C650 1.362 . S
C650 H642 0.930 . S
C650 C649 1.362 . S
C650 C653 1.409 . S
C651 H643 0.930 . S
C651 C652 1.355 . S
C651 C653 1.415 1_556 S
C652 C651 1.355 . S
C652 C654 1.419 1_556 S
C653 C648 1.425 . S
C653 C650 1.409 . S
C653 C651 1.415 1_554 S
C654 H644 0.930 1_554 S
C654 C652 1.419 1_554 S
C654 C655 1.362 . S
C655 H645 0.930 . S
C655 C648 1.409 . S
C655 C654 1.362 . S
H656 C662 0.930 . S
H657 C665 0.930 . S
H658 C666 0.930 . S
H659 C667 0.930 . S
H660 C670 0.930 . S
H661 C671 0.930 . S
C662 H656 0.930 . S
C662 C663 1.355 . S
C662 C664 1.415 . S
C663 C662 1.355 . S
C663 C665 1.419 . S
C664 C662 1.415 . S
C664 C669 1.425 . S
C664 C671 1.409 . S
C665 H657 0.930 . S
C665 C663 1.419 . S
C665 C666 1.362 . S
C666 H658 0.930 . S
C666 C665 1.362 . S
C666 C669 1.409 . S
C667 H659 0.930 . S
C667 C668 1.355 . S
C667 C669 1.415 . S
C668 C667 1.355 . S
C668 C670 1.419 . S
C669 C664 1.425 . S
C669 C666 1.409 . S
C669 C667 1.415 . S
C670 H660 0.930 . S
C670 C668 1.419 . S
C670 C671 1.362 . S
C671 H661 0.930 . S
C671 C664 1.409 . S
C671 C670 1.362 . S
H672 C678 0.930 . S
H673 C681 0.930 . S
H674 C682 0.930 . S
H675 C683 0.930 . S
H676 C686 0.930 . S
H677 C687 0.930 . S
C678 H672 0.930 . S
C678 C679 1.355 . S
C678 C680 1.415 . S
C679 C678 1.355 . S
C679 C681 1.419 . S
C680 C678 1.415 . S
C680 C685 1.425 . S
C680 C687 1.409 . S
C681 H673 0.930 . S
C681 C679 1.419 . S
C681 C682 1.362 . S
C682 H674 0.930 . S
C682 C681 1.362 . S
C682 C685 1.409 . S
C683 H675 0.930 . S
C683 C684 1.355 . S
C683 C685 1.415 . S
C684 C683 1.355 . S
C684 C686 1.419 . S
C685 C680 1.425 . S
C685 C682 1.409 . S
C685 C683 1.415 . S
C686 H676 0.930 . S
C686 C684 1.419 . S
C686 C687 1.362 . S
C687 H677 0.930 . S
C687 C680 1.409 . S
C687 C686 1.362 . S
H688 C694 0.930 . S
H689 C697 0.930 . S
H690 C698 0.930 . S
H691 C699 0.930 . S
H692 C702 0.930 . S
H693 C703 0.930 . S
C694 H688 0.930 . S
C694 C695 1.355 . S
C694 C696 1.415 . S
C695 C694 1.355 . S
C695 C697 1.419 . S
C696 C694 1.415 . S
C696 C701 1.425 . S
C696 C703 1.409 . S
C697 H689 0.930 . S
C697 C695 1.419 . S
C697 C698 1.362 . S
C698 H690 0.930 . S
C698 C697 1.362 . S
C698 C701 1.409 . S
C699 H691 0.930 . S
C699 C700 1.355 . S
C699 C701 1.415 . S
C700 C699 1.355 . S
C700 C702 1.419 . S
C701 C696 1.425 . S
C701 C698 1.409 . S
C701 C699 1.415 . S
C702 H692 0.930 . S
C702 C700 1.419 . S
C702 C703 1.362 . S
C703 H693 0.930 . S
C703 C696 1.409 . S
C703 C702 1.362 . S
H704 C710 0.930 . S
H705 C713 0.930 . S
H706 C714 0.930 . S
H707 C715 0.930 . S
H708 C718 0.930 . S
H709 C719 0.930 . S
C710 H704 0.930 . S
C710 C711 1.355 . S
C710 C712 1.415 . S
C711 C710 1.355 . S
C711 C713 1.419 . S
C712 C710 1.415 . S
C712 C717 1.425 1_565 S
C712 C719 1.409 1_554 S
C713 H705 0.930 . S
C713 C711 1.419 . S
C713 C714 1.362 1_565 S
C714 H706 0.930 . S
C714 C713 1.362 1_545 S
C714 C717 1.409 . S
C715 H707 0.930 . S
C715 C716 1.355 1_554 S
C715 C717 1.415 . S
C716 C715 1.355 1_556 S
C716 C718 1.419 . S
C717 C712 1.425 1_545 S
C717 C714 1.409 . S
C717 C715 1.415 . S
C718 H708 0.930 . S
C718 C716 1.419 . S
C718 C719 1.362 1_545 S
C719 H709 0.930 . S
C719 C712 1.409 1_556 S
C719 C718 1.362 1_565 S
H720 C726 0.930 . S
H721 C729 0.930 . S
H722 C730 0.930 . S
H723 C731 0.930 . S
H724 C734 0.930 . S
H725 C735 0.930 . S
C726 H720 0.930 . S
C726 C727 1.355 . S
C726 C728 1.415 . S
C727 C726 1.355 . S
C727 C729 1.419 . S
C728 C726 1.415 . S
C728 C733 1.425 1_545 S
C728 C735 1.409 . S
C729 H721 0.930 . S
C729 C727 1.419 . S
C729 C730 1.362 1_545 S
C730 H722 0.930 . S
C730 C729 1.362 1_565 S
C730 C733 1.409 . S
C731 H723 0.930 . S
C731 C732 1.355 . S
C731 C733 1.415 . S
C732 C731 1.355 . S
C732 C734 1.419 . S
C733 C728 1.425 1_565 S
C733 C730 1.409 . S
C733 C731 1.415 . S
C734 H724 0.930 . S
C734 C732 1.419 . S
C734 C735 1.362 1_565 S
C735 H725 0.930 . S
C735 C728 1.409 . S
C735 C734 1.362 1_545 S
C231 C135 1.405 . S
C236 C9 1.352 . S
C247 C205 1.398 . S
C252 C23 1.351 . S
C263 C37 1.349 . S
C268 C121 1.402 . S
C279 C51 1.395 . S
C284 C219 1.352 1_655 S
C295 C65 1.398 . S
C300 C149 1.364 . S
C311 C191 1.366 1_655 S
C316 C79 1.378 . S
C327 C163 1.355 . S
C332 C93 1.391 . S
C343 C107 1.390 . S
C348 C177 1.356 . S
C359 C63 1.634 . S
C364 C49 1.642 1_556 S
C375 C175 1.590 . S
C380 C119 1.582 . S
C391 C91 1.585 . S
C396 C21 1.578 . S
C407 C133 1.632 . S
C412 C189 1.622 . S
C423 C7 1.642 . S
C428 C77 1.650 . S
C439 C217 1.596 . S
C444 C147 1.605 1_556 S
C455 C105 1.659 . S
C460 C35 1.662 . S
C471 C161 1.621 . S
C476 C203 1.611 . S
C487 C8 1.300 . S
C492 C64 1.308 . S
C503 C78 1.315 . S
C508 C22 1.309 . S
C519 C92 1.289 . S
C524 C36 1.296 . S
C535 C50 1.293 . S
C540 C106 1.300 . S
C551 C148 1.320 . S
C556 C120 1.319 . S
C567 C162 1.283 . S
C572 C134 1.280 . S
C583 C204 1.281 . S
C588 C176 1.284 . S
C599 C218 1.309 . S
C604 C190 1.315 . S
C615 C62 1.520 . S
C620 C6 1.532 . S
C631 C76 1.542 . S
C636 C20 1.519 . S
C647 C90 1.559 . S
C652 C34 1.497 . S
C663 C48 1.558 . S
C668 C104 1.500 . S
C679 C118 1.503 . S
C684 C146 1.556 . S
C695 C160 1.551 . S
C700 C132 1.502 . S
C711 C202 1.504 . S
C716 C174 1.549 . S
C727 C216 1.546 . S
C732 C188 1.506 . S
