# Generated by pormake.
# Topology lig, (3)-cn, num edge types: 1
# Building blocks:
#     Node 0, Type 0, BuildingBlock: WUSLED_clean_sbu_0, # of connection points: 3
#     Node 1, Type 0, BuildingBlock: WUSLED_clean_sbu_0, # of connection points: 3
#     Node 2, Type 0, BuildingBlock: WUSLED_clean_sbu_0, # of connection points: 3
#     Node 3, Type 0, BuildingBlock: WUSLED_clean_sbu_0, # of connection points: 3
#     Node 4, Type 0, BuildingBlock: WUSLED_clean_sbu_0, # of connection points: 3
#     Node 5, Type 0, BuildingBlock: WUSLED_clean_sbu_0, # of connection points: 3
#     Node 6, Type 0, BuildingBlock: WUSLED_clean_sbu_0, # of connection points: 3
#     Node 7, Type 0, BuildingBlock: WUSLED_clean_sbu_0, # of connection points: 3
#     Node 8, Type 0, BuildingBlock: WUSLED_clean_sbu_0, # of connection points: 3
#     Node 9, Type 0, BuildingBlock: WUSLED_clean_sbu_0, # of connection points: 3
#     Node 10, Type 0, BuildingBlock: WUSLED_clean_sbu_0, # of connection points: 3
#     Node 11, Type 0, BuildingBlock: WUSLED_clean_sbu_0, # of connection points: 3
#     Node 12, Type 0, BuildingBlock: WUSLED_clean_sbu_0, # of connection points: 3
#     Node 13, Type 0, BuildingBlock: WUSLED_clean_sbu_0, # of connection points: 3
#     Node 14, Type 0, BuildingBlock: WUSLED_clean_sbu_0, # of connection points: 3
#     Node 15, Type 0, BuildingBlock: WUSLED_clean_sbu_0, # of connection points: 3
#     Edge 16, Type (0, 0), BuildingBlock: ZUJKAS_clean_linker_0, # of connection points: 2
#     Edge 17, Type (0, 0), BuildingBlock: ZUJKAS_clean_linker_0, # of connection points: 2
#     Edge 18, Type (0, 0), BuildingBlock: ZUJKAS_clean_linker_0, # of connection points: 2
#     Edge 19, Type (0, 0), BuildingBlock: ZUJKAS_clean_linker_0, # of connection points: 2
#     Edge 20, Type (0, 0), BuildingBlock: ZUJKAS_clean_linker_0, # of connection points: 2
#     Edge 21, Type (0, 0), BuildingBlock: ZUJKAS_clean_linker_0, # of connection points: 2
#     Edge 22, Type (0, 0), BuildingBlock: ZUJKAS_clean_linker_0, # of connection points: 2
#     Edge 23, Type (0, 0), BuildingBlock: ZUJKAS_clean_linker_0, # of connection points: 2
#     Edge 24, Type (0, 0), BuildingBlock: ZUJKAS_clean_linker_0, # of connection points: 2
#     Edge 25, Type (0, 0), BuildingBlock: ZUJKAS_clean_linker_0, # of connection points: 2
#     Edge 26, Type (0, 0), BuildingBlock: ZUJKAS_clean_linker_0, # of connection points: 2
#     Edge 27, Type (0, 0), BuildingBlock: ZUJKAS_clean_linker_0, # of connection points: 2
#     Edge 28, Type (0, 0), BuildingBlock: ZUJKAS_clean_linker_0, # of connection points: 2
#     Edge 29, Type (0, 0), BuildingBlock: ZUJKAS_clean_linker_0, # of connection points: 2
#     Edge 30, Type (0, 0), BuildingBlock: ZUJKAS_clean_linker_0, # of connection points: 2
#     Edge 31, Type (0, 0), BuildingBlock: ZUJKAS_clean_linker_0, # of connection points: 2
#     Edge 32, Type (0, 0), BuildingBlock: ZUJKAS_clean_linker_0, # of connection points: 2
#     Edge 33, Type (0, 0), BuildingBlock: ZUJKAS_clean_linker_0, # of connection points: 2
#     Edge 34, Type (0, 0), BuildingBlock: ZUJKAS_clean_linker_0, # of connection points: 2
#     Edge 35, Type (0, 0), BuildingBlock: ZUJKAS_clean_linker_0, # of connection points: 2
#     Edge 36, Type (0, 0), BuildingBlock: ZUJKAS_clean_linker_0, # of connection points: 2
#     Edge 37, Type (0, 0), BuildingBlock: ZUJKAS_clean_linker_0, # of connection points: 2
#     Edge 38, Type (0, 0), BuildingBlock: ZUJKAS_clean_linker_0, # of connection points: 2
#     Edge 39, Type (0, 0), BuildingBlock: ZUJKAS_clean_linker_0, # of connection points: 2
# Relax obj value: 0.000
# Max RMSD: 0.009
# Mean RMSD: 0.006
data_MOF--net-lig--node1-WUSLED_clean_sbu_0--edge1-ZUJKAS_clean_linker_0
_symmetry_space_group_name_H-M    P1
_symmetry_Int_Tables_number       1
_symmetry_cell_setting            triclinic
loop_
_symmetry_equiv_pos_as_xyz
'x, y, z'
_cell_length_a     109.64428
_cell_length_b     110.81845
_cell_length_c     78.474783
_cell_angle_alpha  88.593116
_cell_angle_beta   89.997453
_cell_angle_gamma 91.376231
loop_
_atom_site_label
_atom_site_type_symbol
_atom_site_fract_x
_atom_site_fract_y
_atom_site_fract_z
_atom_type_partial_charge
C0 C 0.10303 1.01223 0.03667 0.0
C1 C 0.09806 0.023 0.03024 0.0
C2 C 0.07741 0.01431 0.03307 0.0
C3 C 0.08538 0.02402 0.02844 0.0
C4 C 0.08251 1.00347 0.03907 0.0
C5 C 0.09514 1.00247 0.04086 0.0
U6 U 0.13767 0.01772 0.02748 0.0
O7 O 0.15253 0.02092 0.04587 0.0
O8 O 0.15251 1.00476 0.03032 0.0
C9 C 0.15765 1.01055 0.04297 0.0
C10 C 0.11623 1.01102 0.04006 0.0
C11 C 0.16146 1.00313 0.05806 0.0
C12 C 0.16729 1.00146 0.08806 0.0
C13 C 0.16249 1.00815 0.07432 0.0
C14 C 0.17003 0.98453 0.06972 0.0
C15 C 0.17124 0.9896 0.08592 0.0
C16 C 0.16526 0.99122 0.05598 0.0
C17 C 0.14863 0.03695 0.98791 0.0
C18 C 0.16305 0.05341 0.98064 0.0
C19 C 0.15812 0.03836 0.95977 0.0
C20 C 0.15025 0.03245 0.97149 0.0
C21 C 0.16452 0.04901 0.9641 0.0
C22 C 0.1552 0.04747 0.99239 0.0
C23 C 0.13925 0.03126 0.99947 0.0
O24 O 0.12235 1.00448 0.0294 0.0
O25 O 0.1223 0.02077 0.04477 0.0
O26 O 0.13818 0.03568 0.01479 0.0
O27 O 0.13818 0.01941 0.99943 0.0
H28 H 0.10396 0.03068 0.0269 0.0
H29 H 0.08179 0.03253 0.02386 0.0
H30 H 0.07673 0.99571 0.04243 0.0
H31 H 0.09876 0.99406 0.0458 0.0
H32 H 0.16794 1.00563 0.10038 0.0
H33 H 0.1598 0.01733 0.07641 0.0
H34 H 0.17314 0.97551 0.06747 0.0
H35 H 0.16484 0.98713 0.04359 0.0
H36 H 0.16793 0.0615 0.9845 0.0
H37 H 0.15887 0.03479 0.9471 0.0
H38 H 0.14518 0.02449 0.96752 0.0
H39 H 0.15414 0.05127 1.00486 0.0
C40 C 0.26941 0.85953 0.28795 0.0
C41 C 0.25802 0.85419 0.28406 0.0
C42 C 0.26708 0.83424 0.28338 0.0
C43 C 0.25686 0.84168 0.28185 0.0
C44 C 0.27849 0.83969 0.287 0.0
C45 C 0.27962 0.85216 0.28929 0.0
U46 U 0.26356 0.89351 0.27918 0.0
O47 O 0.2607 0.90792 0.29749 0.0
O48 O 0.27651 0.90901 0.28036 0.0
C49 C 0.27079 0.91385 0.29312 0.0
C50 C 0.27089 0.87258 0.29143 0.0
C51 C 0.27848 0.91837 0.30717 0.0
C52 C 0.28888 0.91577 0.33442 0.0
C53 C 0.28194 0.91096 0.32103 0.0
C54 C 0.28906 0.93538 0.32014 0.0
C55 C 0.29252 0.92808 0.33417 0.0
C56 C 0.28215 0.93058 0.30683 0.0
C57 C 0.24264 0.90318 0.24149 0.0
C58 C 0.24287 0.92073 0.22207 0.0
C59 C 0.22422 0.90892 0.22622 0.0
C60 C 0.23023 0.90128 0.23776 0.0
C61 C 0.23049 0.91866 0.218 0.0
C62 C 0.24888 0.91308 0.23368 0.0
C63 C 0.24892 0.89425 0.2526 0.0
O64 O 0.27714 0.87912 0.28011 0.0
O65 O 0.26127 0.87807 0.29717 0.0
O66 O 0.24496 0.89302 0.26837 0.0
O67 O 0.26087 0.89392 0.25139 0.0
H68 H 0.24999 0.85965 0.28288 0.0
H69 H 0.24797 0.83783 0.27886 0.0
H70 H 0.28653 0.83428 0.2885 0.0
H71 H 0.28849 0.85605 0.29238 0.0
H72 H 0.29146 0.90984 0.34491 0.0
H73 H 0.27922 0.90149 0.32153 0.0
H74 H 0.29147 0.94492 0.31957 0.0
H75 H 0.27952 0.93648 0.29631 0.0
H76 H 0.24805 0.92805 0.21591 0.0
H77 H 0.21464 0.90715 0.22371 0.0
H78 H 0.22521 0.89371 0.24359 0.0
H79 H 0.25846 0.91479 0.23626 0.0
C80 C 0.36123 1.00411 0.49973 0.0
C81 C 0.36878 1.00135 0.48597 0.0
C82 C 0.35211 0.98976 0.47291 0.0
C83 C 0.36426 0.99426 0.47267 0.0
C84 C 0.34467 0.99248 0.48687 0.0
C85 C 0.34919 0.99956 0.50009 0.0
U86 U 0.38606 0.01935 0.52769 0.0
O87 O 0.3867 0.03785 0.53754 0.0
O88 O 0.38588 0.02226 0.55532 0.0
C89 C 0.38575 0.03408 0.55351 0.0
C90 C 0.36548 1.01195 0.51363 0.0
C91 C 0.37709 0.04049 0.56436 0.0
C92 C 0.35802 0.04151 0.5802 0.0
C93 C 0.36556 0.03556 0.56881 0.0
C94 C 0.37329 0.05752 0.58251 0.0
C95 C 0.36186 0.0525 0.5874 0.0
C96 C 0.38079 0.05158 0.57116 0.0
C97 C 0.42035 0.01335 0.51957 0.0
C98 C 0.43899 0.02566 0.52217 0.0
C99 C 0.44005 1.00388 0.52325 0.0
C100 C 0.42737 1.00296 0.52123 0.0
C101 C 0.44606 0.01523 0.52359 0.0
C102 C 0.42627 0.02474 0.52021 0.0
C103 C 0.40708 1.01197 0.51612 0.0
O104 O 0.37041 1.00648 0.52688 0.0
O105 O 0.37132 0.022 0.50902 0.0
O106 O 0.40148 0.02144 0.5098 0.0
O107 O 0.40058 1.0059 0.52766 0.0
H108 H 0.37813 1.00473 0.48547 0.0
H109 H 0.3703 0.99225 0.46226 0.0
H110 H 0.33524 0.98936 0.48742 0.0
H111 H 0.34319 1.00162 0.51054 0.0
H112 H 0.34933 0.03733 0.58374 0.0
H113 H 0.36249 0.02701 0.56374 0.0
H114 H 0.37648 0.06606 0.58748 0.0
H115 H 0.38963 0.05557 0.56788 0.0
H116 H 0.44328 0.03455 0.52257 0.0
H117 H 0.44517 0.99565 0.52406 0.0
H118 H 0.42306 0.99408 0.52062 0.0
H119 H 0.42112 0.03293 0.519 0.0
C120 C 0.2691 0.17912 0.76361 0.0
C121 C 0.25776 0.18394 0.76778 0.0
C122 C 0.267 0.2042 0.76915 0.0
C123 C 0.25672 0.19635 0.77046 0.0
C124 C 0.27835 0.19928 0.76527 0.0
C125 C 0.27937 0.1869 0.7625 0.0
U126 U 0.2632 0.14486 0.77178 0.0
O127 O 0.25926 0.13058 0.75331 0.0
O128 O 0.27573 0.12979 0.76914 0.0
C129 C 0.26946 0.12499 0.75662 0.0
C130 C 0.27042 0.1662 0.7596 0.0
C131 C 0.27645 0.12095 0.74173 0.0
C132 C 0.2941 0.12216 0.7228 0.0
C133 C 0.28736 0.12677 0.7363 0.0
C134 C 0.27903 0.10605 0.71978 0.0
C135 C 0.29007 0.11168 0.71442 0.0
C136 C 0.27233 0.11063 0.73326 0.0
C137 C 0.24313 0.13447 0.81068 0.0
C138 C 0.24311 0.11664 0.82956 0.0
C139 C 0.22516 0.12887 0.82764 0.0
C140 C 0.23109 0.13655 0.8157 0.0
C141 C 0.23114 0.11891 0.83496 0.0
C142 C 0.24905 0.12434 0.81756 0.0
C143 C 0.24942 0.14349 0.79927 0.0
O144 O 0.27695 0.15973 0.77031 0.0
O145 O 0.26059 0.16039 0.75427 0.0
O146 O 0.24499 0.1448 0.78379 0.0
O147 O 0.26142 0.14394 0.79971 0.0
H148 H 0.24968 0.17815 0.76881 0.0
H149 H 0.24786 0.19979 0.77363 0.0
H150 H 0.28643 0.20504 0.76395 0.0
H151 H 0.2882 0.18343 0.75921 0.0
H152 H 0.30248 0.12683 0.71891 0.0
H153 H 0.29072 0.13477 0.74259 0.0
H154 H 0.27569 0.09789 0.71386 0.0
H155 H 0.26399 0.10595 0.73728 0.0
H156 H 0.24804 0.10911 0.83498 0.0
H157 H 0.21588 0.1308 0.83119 0.0
H158 H 0.22632 0.14429 0.8106 0.0
H159 H 0.25835 0.1225 0.81396 0.0
C160 C 0.86073 1.00777 0.05776 0.0
C161 C 0.86704 0.99773 0.06414 0.0
C162 C 0.85122 0.99382 0.08571 0.0
C163 C 0.86231 0.99081 0.07795 0.0
C164 C 0.84508 1.004 0.07938 0.0
C165 C 0.84978 1.01087 0.06557 0.0
U166 U 0.88577 0.02109 0.02742 0.0
O167 O 0.88552 0.02299 0.99945 0.0
O168 O 0.88696 0.03916 0.01497 0.0
C169 C 0.88568 0.03485 0.9996 0.0
C170 C 0.86509 0.01492 0.0427 0.0
C171 C 0.87697 0.04108 0.98816 0.0
C172 C 0.85811 0.0416 0.97169 0.0
C173 C 0.86571 0.03577 0.98354 0.0
C174 C 0.87276 0.05824 0.96926 0.0
C175 C 0.86161 0.05286 0.96421 0.0
C176 C 0.88033 0.05241 0.98105 0.0
C177 C 0.91981 0.01425 0.03677 0.0
C178 C 0.93836 0.02542 0.02833 0.0
C179 C 0.93961 1.00491 0.0394 0.0
C180 C 0.92691 1.0043 0.04119 0.0
C181 C 0.94555 0.01553 0.03318 0.0
C182 C 0.92561 0.02479 0.03013 0.0
C183 C 0.90652 0.01347 0.04013 0.0
O184 O 0.87123 0.02495 0.04581 0.0
O185 O 0.86975 1.00885 0.03017 0.0
O186 O 0.89987 1.00723 0.02936 0.0
O187 O 0.9013 0.0234 0.04489 0.0
H188 H 0.87555 0.9952 0.05837 0.0
H189 H 0.86737 0.98313 0.0826 0.0
H190 H 0.83646 1.00651 0.08483 0.0
H191 H 0.84475 0.01854 0.06082 0.0
H192 H 0.84966 0.03713 0.96805 0.0
H193 H 0.86288 0.02703 0.98885 0.0
H194 H 0.87567 0.06699 0.96409 0.0
H195 H 0.88895 0.0567 0.98445 0.0
H196 H 0.94261 0.03376 0.02359 0.0
H197 H 0.94477 0.99703 0.04293 0.0
H198 H 0.92264 0.99607 0.0463 0.0
H199 H 0.92032 0.0326 0.02661 0.0
C200 C 0.7554 0.17837 0.76514 0.0
C201 C 0.76401 0.18309 0.77659 0.0
C202 C 0.75734 0.20361 0.77006 0.0
C203 C 0.76499 0.19559 0.77901 0.0
C204 C 0.74869 0.19876 0.7587 0.0
C205 C 0.74775 0.1863 0.75628 0.0
U206 U 0.76181 0.14469 0.77501 0.0
O207 O 0.74946 0.12886 0.77274 0.0
O208 O 0.766 0.13037 0.75701 0.0
C209 C 0.75581 0.12426 0.76036 0.0
C210 C 0.75435 0.16532 0.76185 0.0
C211 C 0.74891 0.11976 0.74549 0.0
C212 C 0.73113 0.11962 0.72681 0.0
C213 C 0.73779 0.1247 0.74025 0.0
C214 C 0.74673 0.10479 0.72341 0.0
C215 C 0.73544 0.10949 0.71833 0.0
C216 C 0.75334 0.10985 0.73683 0.0
C217 C 0.78168 0.13577 0.81407 0.0
C218 C 0.78267 0.11641 0.82939 0.0
C219 C 0.79857 0.13161 0.83331 0.0
C220 C 0.79264 0.13936 0.82184 0.0
C221 C 0.79364 0.12004 0.83733 0.0
C222 C 0.77676 0.12418 0.81783 0.0
C223 C 0.77545 0.14448 0.80263 0.0
O224 O 0.76439 0.16011 0.75707 0.0
O225 O 0.74793 0.15873 0.77291 0.0
O226 O 0.76345 0.14425 0.80298 0.0
O227 O 0.77994 0.14586 0.78715 0.0
H228 H 0.77 0.17712 0.78359 0.0
H229 H 0.77166 0.19897 0.788 0.0
H230 H 0.74278 0.20461 0.75138 0.0
H231 H 0.74108 0.18285 0.74733 0.0
H232 H 0.72245 0.12345 0.72336 0.0
H233 H 0.73415 0.13236 0.74672 0.0
H234 H 0.75048 0.09717 0.71702 0.0
H235 H 0.76191 0.1059 0.7406 0.0
H236 H 0.77868 0.10752 0.83202 0.0
H237 H 0.80689 0.13481 0.83932 0.0
H238 H 0.79658 0.14828 0.8192 0.0
H239 H 0.76832 0.12117 0.81195 0.0
C240 C 0.60361 1.01175 0.51921 0.0
C241 C 0.59834 0.02321 0.51936 0.0
C242 C 0.57802 0.01396 0.52329 0.0
C243 C 0.58569 0.02429 0.52136 0.0
C244 C 0.58338 1.00254 0.52343 0.0
C245 C 0.59599 1.00146 0.52137 0.0
U246 U 0.63831 0.01673 0.52765 0.0
O247 O 0.65296 1.00346 0.52648 0.0
O248 O 0.65332 0.01931 0.50917 0.0
C249 C 0.65839 1.00905 0.5135 0.0
C250 C 0.61678 1.01017 0.51569 0.0
C251 C 0.66235 1.00136 0.49945 0.0
C252 C 0.66023 0.99356 0.47079 0.0
C253 C 0.65579 1.00047 0.48413 0.0
C254 C 0.67767 0.98821 0.48803 0.0
C255 C 0.67127 0.98738 0.47253 0.0
C256 C 0.67326 0.99511 0.50129 0.0
C257 C 0.6491 0.03644 0.56557 0.0
C258 C 0.66376 0.0527 0.5717 0.0
C259 C 0.658 0.0382 0.59395 0.0
C260 C 0.65024 0.03224 0.58254 0.0
C261 C 0.66477 0.0486 0.58876 0.0
C262 C 0.65602 0.04671 0.56025 0.0
C263 C 0.63983 0.03071 0.55427 0.0
O264 O 0.62308 0.01964 0.50984 0.0
O265 O 0.62283 1.00366 0.52691 0.0
O266 O 0.63856 0.01889 0.55549 0.0
O267 O 0.63906 0.03489 0.53848 0.0
H268 H 0.60394 0.03133 0.51772 0.0
H269 H 0.58191 0.03323 0.52138 0.0
H270 H 0.57778 0.99437 0.52463 0.0
H271 H 0.59977 0.99253 0.52112 0.0
H272 H 0.65498 0.99303 0.45913 0.0
H273 H 0.64732 1.00517 0.48241 0.0
H274 H 0.68627 0.98375 0.48981 0.0
H275 H 0.6785 0.99572 0.51296 0.0
H276 H 0.66893 0.06059 0.56717 0.0
H277 H 0.65837 0.03486 0.60702 0.0
H278 H 0.64489 0.02449 0.58714 0.0
H279 H 0.65532 0.05029 0.54733 0.0
C280 C 0.75425 0.85991 0.28981 0.0
C281 C 0.76567 0.85497 0.28645 0.0
C282 C 0.7564 0.83469 0.28533 0.0
C283 C 0.76673 0.8425 0.28425 0.0
C284 C 0.74497 0.83976 0.28836 0.0
C285 C 0.74393 0.85219 0.29061 0.0
U286 U 0.76038 0.89402 0.28061 0.0
O287 O 0.7477 0.90911 0.28187 0.0
O288 O 0.7637 0.90869 0.29861 0.0
C289 C 0.75367 0.91428 0.29437 0.0
C290 C 0.75287 0.87292 0.29326 0.0
C291 C 0.74624 0.91866 0.30854 0.0
C292 C 0.73306 0.91535 0.33331 0.0
C293 C 0.73998 0.91076 0.31996 0.0
C294 C 0.73859 0.93572 0.32392 0.0
C295 C 0.73224 0.92791 0.33543 0.0
C296 C 0.74548 0.93114 0.31066 0.0
C297 C 0.78118 0.90379 0.24234 0.0
C298 C 0.782 0.92274 0.22585 0.0
C299 C 0.79834 0.90858 0.22348 0.0
C300 C 0.79242 0.90079 0.23527 0.0
C301 C 0.79315 0.9196 0.2184 0.0
C302 C 0.77607 0.91491 0.2377 0.0
C303 C 0.7748 0.89487 0.25376 0.0
O304 O 0.76257 0.87882 0.29883 0.0
O305 O 0.7466 0.87918 0.28201 0.0
O306 O 0.76283 0.89432 0.25278 0.0
O307 O 0.77887 0.89397 0.26948 0.0
H308 H 0.77381 0.86069 0.28575 0.0
H309 H 0.77571 0.83896 0.28211 0.0
H310 H 0.73677 0.83412 0.28896 0.0
H311 H 0.73502 0.85578 0.29315 0.0
H312 H 0.72822 0.90906 0.34182 0.0
H313 H 0.74045 0.90109 0.31853 0.0
H314 H 0.73839 0.94541 0.32528 0.0
H315 H 0.75029 0.93739 0.30204 0.0
H316 H 0.77767 0.93108 0.22218 0.0
H317 H 0.80702 0.90595 0.21832 0.0
H318 H 0.79655 0.89228 0.23869 0.0
H319 H 0.7674 0.91745 0.24298 0.0
C320 C 0.60377 0.51441 0.53788 0.0
C321 C 0.5982 0.51184 0.52218 0.0
C322 C 0.57821 0.51678 0.53356 0.0
C323 C 0.58557 0.51299 0.52007 0.0
C324 C 0.58387 0.51953 0.54914 0.0
C325 C 0.59647 0.51833 0.55126 0.0
U326 U 0.63845 0.51853 0.52833 0.0
O327 O 0.6535 0.52139 0.54657 0.0
O328 O 0.65304 0.50529 0.53083 0.0
C329 C 0.65843 0.51098 0.5434 0.0
C330 C 0.61692 0.5124 0.54111 0.0
C331 C 0.66231 0.5036 0.55844 0.0
C332 C 0.66378 0.48434 0.57397 0.0
C333 C 0.65903 0.4913 0.56045 0.0
C334 C 0.67493 0.50189 0.58394 0.0
C335 C 0.67189 0.48951 0.58581 0.0
C336 C 0.67023 0.50881 0.57041 0.0
C337 C 0.64928 0.53855 0.48947 0.0
C338 C 0.66579 0.53782 0.46867 0.0
C339 C 0.65691 0.55696 0.47507 0.0
C340 C 0.64897 0.55111 0.48673 0.0
C341 C 0.66536 0.5504 0.46575 0.0
C342 C 0.65785 0.53196 0.48041 0.0
C343 C 0.64 0.53258 0.50084 0.0
O344 O 0.62276 0.50578 0.53023 0.0
O345 O 0.6234 0.52177 0.54618 0.0
O346 O 0.63918 0.53674 0.51633 0.0
O347 O 0.63881 0.52075 0.50037 0.0
H348 H 0.60357 0.50881 0.5116 0.0
H349 H 0.58155 0.51093 0.50784 0.0
H350 H 0.57852 0.5223 0.5599 0.0
H351 H 0.60049 0.52026 0.56354 0.0
H352 H 0.66111 0.47488 0.57511 0.0
H353 H 0.65296 0.48697 0.55145 0.0
H354 H 0.68127 0.50616 0.59263 0.0
H355 H 0.67302 0.51823 0.56908 0.0
H356 H 0.67226 0.53249 0.46187 0.0
H357 H 0.65616 0.56662 0.47301 0.0
H358 H 0.64237 0.5564 0.49337 0.0
H359 H 0.65833 0.52226 0.48219 0.0
C360 C 0.76943 0.35885 0.78895 0.0
C361 C 0.76079 0.35421 0.77747 0.0
C362 C 0.76732 0.33363 0.78395 0.0
C363 C 0.75973 0.34171 0.77502 0.0
C364 C 0.77598 0.3384 0.79535 0.0
C365 C 0.77701 0.35085 0.7978 0.0
U366 U 0.76401 0.39275 0.77883 0.0
O367 O 0.75987 0.40719 0.79667 0.0
O368 O 0.77677 0.4082 0.78169 0.0
C369 C 0.77029 0.41298 0.79378 0.0
C370 C 0.77061 0.37189 0.79227 0.0
C371 C 0.77699 0.41732 0.80893 0.0
C372 C 0.79445 0.41712 0.8282 0.0
C373 C 0.78795 0.41219 0.81449 0.0
C374 C 0.77902 0.43217 0.83117 0.0
C375 C 0.7901 0.42723 0.83667 0.0
C376 C 0.77257 0.42728 0.81748 0.0
C377 C 0.74566 0.40254 0.73858 0.0
C378 C 0.73034 0.41753 0.73168 0.0
C379 C 0.74367 0.41065 0.70957 0.0
C380 C 0.74941 0.40306 0.72146 0.0
C381 C 0.73394 0.41788 0.71444 0.0
C382 C 0.73611 0.40994 0.74361 0.0
C383 C 0.75118 0.39355 0.75048 0.0
O384 O 0.77747 0.37835 0.78158 0.0
O385 O 0.76056 0.37731 0.79651 0.0
O386 O 0.74627 0.39214 0.76571 0.0
O387 O 0.76316 0.39326 0.75073 0.0
H388 H 0.75486 0.36023 0.77047 0.0
H389 H 0.75304 0.33839 0.76601 0.0
H390 H 0.78185 0.3325 0.80266 0.0
H391 H 0.7837 0.35424 0.80678 0.0
H392 H 0.80287 0.413 0.83218 0.0
H393 H 0.79156 0.40448 0.80814 0.0
H394 H 0.77545 0.44005 0.83717 0.0
H395 H 0.76419 0.43144 0.81336 0.0
H396 H 0.72281 0.42285 0.73591 0.0
H397 H 0.74686 0.41081 0.69651 0.0
H398 H 0.75668 0.39742 0.71718 0.0
H399 H 0.73292 0.40972 0.75667 0.0
C400 C 0.86197 0.50657 0.99667 0.0
C401 C 0.86832 0.49667 0.99062 0.0
C402 C 0.85206 0.4925 0.97006 0.0
C403 C 0.86342 0.48971 0.97742 0.0
C404 C 0.84593 0.5026 0.97596 0.0
C405 C 0.85082 0.50952 0.9891 0.0
U406 U 0.88677 0.52097 0.02586 0.0
O407 O 0.8869 0.5389 0.03734 0.0
O408 O 0.88647 0.52263 0.05381 0.0
C409 C 0.88575 0.53447 0.05297 0.0
C410 C 0.86636 0.51369 1.01125 0.0
C411 C 0.87658 0.54004 0.06418 0.0
C412 C 0.86345 0.55679 0.07088 0.0
C413 C 0.87109 0.55099 0.0595 0.0
C414 C 0.86643 0.54077 0.09183 0.0
C415 C 0.8611 0.55182 0.08728 0.0
C416 C 0.8741 0.535 0.08047 0.0
C417 C 0.92126 0.51688 0.01641 0.0
C418 C 0.93929 0.51542 0.03451 0.0
C419 C 0.94152 0.52142 1.0048 0.0
C420 C 0.92886 0.52044 1.0027 0.0
C421 C 0.94694 0.51881 0.02069 0.0
C422 C 0.92659 0.51448 0.03241 0.0
C423 C 0.908 0.51503 1.01327 0.0
O424 O 0.8716 0.50771 0.02383 0.0
O425 O 0.87184 0.5241 1.00755 0.0
O426 O 0.90202 0.52454 1.00793 0.0
O427 O 0.90181 0.50823 0.02437 0.0
H428 H 0.87696 0.49421 0.99626 0.0
H429 H 0.86838 0.48197 0.97329 0.0
H430 H 0.83731 0.50521 0.97041 0.0
H431 H 0.84578 0.51714 0.99351 0.0
H432 H 0.85941 0.56521 0.06684 0.0
H433 H 0.87287 0.55524 0.04714 0.0
H434 H 0.865 0.53675 0.10441 0.0
H435 H 0.87834 0.5267 0.08463 0.0
H436 H 0.94312 0.51348 0.04697 0.0
H437 H 0.94709 0.52389 0.99381 0.0
H438 H 0.92501 0.52224 0.99021 0.0
H439 H 0.92098 0.51173 0.04325 0.0
C440 C 0.7695 0.68015 0.2644 0.0
C441 C 0.75806 0.68509 0.26765 0.0
C442 C 0.76734 0.70533 0.26927 0.0
C443 C 0.757 0.69753 0.27005 0.0
C444 C 0.7788 0.70027 0.26639 0.0
C445 C 0.77984 0.68786 0.26395 0.0
U446 U 0.76458 0.64572 0.27304 0.0
O447 O 0.76062 0.6313 0.25477 0.0
O448 O 0.77748 0.63103 0.26982 0.0
C449 C 0.77108 0.62604 0.25757 0.0
C450 C 0.77088 0.66721 0.26046 0.0
C451 C 0.77784 0.62207 0.24239 0.0
C452 C 0.79638 0.62117 0.2253 0.0
C453 C 0.78983 0.62612 0.23872 0.0
C454 C 0.77897 0.60831 0.21871 0.0
C455 C 0.7911 0.61204 0.21528 0.0
C456 C 0.77245 0.61324 0.2321 0.0
C457 C 0.74631 0.63452 0.31326 0.0
C458 C 0.73059 0.61926 0.32046 0.0
C459 C 0.74462 0.62606 0.34217 0.0
C460 C 0.7504 0.63384 0.3302 0.0
C461 C 0.7345 0.61881 0.33756 0.0
C462 C 0.7364 0.62704 0.30846 0.0
C463 C 0.75177 0.64384 0.30141 0.0
O464 O 0.7779 0.66093 0.27076 0.0
O465 O 0.76102 0.66118 0.25577 0.0
O466 O 0.74684 0.64509 0.28621 0.0
O467 O 0.76375 0.6448 0.30113 0.0
H468 H 0.74989 0.67939 0.26806 0.0
H469 H 0.74801 0.70107 0.27207 0.0
H470 H 0.78701 0.7059 0.26601 0.0
H471 H 0.78877 0.6843 0.26146 0.0
H472 H 0.80572 0.62422 0.22315 0.0
H473 H 0.79426 0.6329 0.24645 0.0
H474 H 0.7745 0.60148 0.21112 0.0
H475 H 0.76323 0.60993 0.23466 0.0
H476 H 0.72275 0.61392 0.31644 0.0
H477 H 0.74805 0.62583 0.35512 0.0
H478 H 0.75796 0.63954 0.33432 0.0
H479 H 0.73292 0.62739 0.29555 0.0
C480 C 0.36134 0.50706 0.55827 0.0
C481 C 0.36723 0.49663 0.56415 0.0
C482 C 0.35177 0.4933 0.58638 0.0
C483 C 0.36247 0.4898 0.57804 0.0
C484 C 0.34606 0.50387 0.58055 0.0
C485 C 0.35078 0.51064 0.56667 0.0
U486 U 0.3863 0.52098 0.5282 0.0
O487 O 0.38622 0.52288 0.50021 0.0
O488 O 0.38704 0.53906 0.51578 0.0
C489 C 0.38613 0.53474 0.50037 0.0
C490 C 0.36568 0.51417 0.54314 0.0
C491 C 0.37753 0.54085 0.48865 0.0
C492 C 0.35844 0.54164 0.47275 0.0
C493 C 0.366 0.53585 0.48472 0.0
C494 C 0.37375 0.55756 0.4688 0.0
C495 C 0.36229 0.55251 0.46447 0.0
C496 C 0.38126 0.55179 0.4807 0.0
C497 C 0.42058 0.51613 0.53823 0.0
C498 C 0.43875 0.51406 0.52065 0.0
C499 C 0.44076 0.52108 0.54949 0.0
C500 C 0.42809 0.52015 0.55153 0.0
C501 C 0.4463 0.51796 0.53408 0.0
C502 C 0.42603 0.51318 0.52269 0.0
C503 C 0.40729 0.51445 0.54138 0.0
O504 O 0.37138 0.52446 0.54615 0.0
O505 O 0.37074 0.50815 0.53085 0.0
O506 O 0.40101 0.50786 0.53059 0.0
O507 O 0.40146 0.52403 0.54618 0.0
H508 H 0.37543 0.4937 0.55795 0.0
H509 H 0.3672 0.48181 0.58229 0.0
H510 H 0.33773 0.50677 0.58647 0.0
H511 H 0.34606 0.51862 0.56232 0.0
H512 H 0.34972 0.53744 0.46969 0.0
H513 H 0.36291 0.52741 0.4907 0.0
H514 H 0.37694 0.56602 0.463 0.0
H515 H 0.3901 0.55583 0.48358 0.0
H516 H 0.44267 0.51171 0.50855 0.0
H517 H 0.44626 0.52395 0.56019 0.0
H518 H 0.42415 0.52237 0.56369 0.0
H519 H 0.42051 0.51006 0.51217 0.0
C520 C 0.2577 0.67876 0.26517 0.0
C521 C 0.25572 0.6838 0.28119 0.0
C522 C 0.25999 0.7041 0.26938 0.0
C523 C 0.25682 0.69633 0.28325 0.0
C524 C 0.26215 0.69897 0.25345 0.0
C525 C 0.26098 0.68648 0.25139 0.0
U526 U 0.26247 0.64476 0.27539 0.0
O527 O 0.24932 0.62944 0.27418 0.0
O528 O 0.26546 0.63003 0.25765 0.0
C529 C 0.25522 0.62429 0.26183 0.0
C530 C 0.25583 0.66566 0.26219 0.0
C531 C 0.24775 0.61967 0.24763 0.0
C532 C 0.2363 0.62245 0.22126 0.0
C533 C 0.24325 0.62728 0.23464 0.0
C534 C 0.2383 0.60241 0.23378 0.0
C535 C 0.2337 0.60993 0.22069 0.0
C536 C 0.24522 0.60723 0.24707 0.0
C537 C 0.28284 0.63548 0.31381 0.0
C538 C 0.28317 0.6165 0.33019 0.0
C539 C 0.30016 0.63076 0.33199 0.0
C540 C 0.29431 0.63857 0.32053 0.0
C541 C 0.29466 0.61964 0.33707 0.0
C542 C 0.27733 0.62433 0.31863 0.0
C543 C 0.27674 0.64429 0.30237 0.0
O544 O 0.26539 0.65987 0.25688 0.0
O545 O 0.24926 0.65939 0.27346 0.0
O546 O 0.26478 0.64463 0.30326 0.0
O547 O 0.2809 0.64524 0.28668 0.0
H548 H 0.25321 0.67809 0.29209 0.0
H549 H 0.25524 0.69993 0.29574 0.0
H550 H 0.26444 0.70465 0.24243 0.0
H551 H 0.26247 0.68285 0.23888 0.0
H552 H 0.23284 0.62853 0.2115 0.0
H553 H 0.2451 0.63692 0.23485 0.0
H554 H 0.23671 0.59273 0.23367 0.0
H555 H 0.24866 0.6012 0.25692 0.0
H556 H 0.27872 0.60796 0.33367 0.0
H557 H 0.30889 0.63359 0.33718 0.0
H558 H 0.2987 0.64714 0.31707 0.0
H559 H 0.26849 0.6217 0.31359 0.0
C560 C 0.10439 0.51549 0.01613 0.0
C561 C 0.09894 0.51357 0.03223 0.0
C562 C 0.07881 0.51763 0.02025 0.0
C563 C 0.08629 0.5146 0.03425 0.0
C564 C 0.08437 0.51977 1.00426 0.0
C565 C 0.09698 0.51869 1.00224 0.0
U566 U 0.13886 0.51916 0.02675 0.0
O567 O 0.15336 0.50585 0.02493 0.0
O568 O 0.15434 0.52245 1.00912 0.0
C569 C 0.15905 0.51186 1.01252 0.0
C570 C 0.11756 0.51359 1.01318 0.0
C571 C 0.16305 0.50489 0.99766 0.0
C572 C 0.16348 0.48638 0.98143 0.0
C573 C 0.15879 0.49302 0.99486 0.0
C574 C 0.17657 0.50341 0.97316 0.0
C575 C 0.17251 0.49146 0.97046 0.0
C576 C 0.17192 0.51 0.9866 0.0
C577 C 0.1484 0.53753 0.06658 0.0
C578 C 0.16815 0.54667 0.07363 0.0
C579 C 0.15212 0.54542 0.09484 0.0
C580 C 0.14439 0.53975 0.08315 0.0
C581 C 0.16411 0.54902 0.09026 0.0
C582 C 0.16038 0.54096 0.0619 0.0
C583 C 0.13964 0.53214 0.05443 0.0
O584 O 0.12414 0.52316 1.00842 0.0
O585 O 0.12321 0.50653 0.02417 0.0
O586 O 0.13854 0.5203 0.05479 0.0
O587 O 0.13954 0.53686 0.0389 0.0
H588 H 0.10442 0.51113 0.04321 0.0
H589 H 0.08236 0.51303 0.0468 0.0
H590 H 0.07893 0.52196 0.99314 0.0
H591 H 0.10094 0.52014 0.98968 0.0
H592 H 0.16003 0.47726 0.97964 0.0
H593 H 0.15195 0.48879 1.00314 0.0
H594 H 0.18361 0.50758 0.96517 0.0
H595 H 0.17546 0.51908 0.98855 0.0
H596 H 0.17735 0.54919 0.06969 0.0
H597 H 0.14857 0.54723 0.10737 0.0
H598 H 0.13516 0.53726 0.087 0.0
H599 H 0.16368 0.53933 0.04917 0.0
C600 C 0.25684 0.3588 0.79121 0.0
C601 C 0.25534 0.35395 0.77493 0.0
C602 C 0.25939 0.33369 0.78627 0.0
C603 C 0.25656 0.34153 0.7725 0.0
C604 C 0.26109 0.33863 0.80247 0.0
C605 C 0.2598 0.35101 0.8049 0.0
U606 U 0.26134 0.3931 0.78168 0.0
O607 O 0.24797 0.40764 0.78291 0.0
O608 O 0.26405 0.40793 0.79956 0.0
C609 C 0.25362 0.41291 0.79561 0.0
C610 C 0.25483 0.37174 0.7945 0.0
C611 C 0.24588 0.41691 0.80988 0.0
C612 C 0.24196 0.41927 0.84024 0.0
C613 C 0.24868 0.41425 0.82705 0.0
C614 C 0.22933 0.42945 0.81941 0.0
C615 C 0.23231 0.4271 0.83661 0.0
C616 C 0.23605 0.42446 0.80625 0.0
C617 C 0.28195 0.40331 0.74322 0.0
C618 C 0.28267 0.42234 0.72693 0.0
C619 C 0.2988 0.40804 0.7238 0.0
C620 C 0.29301 0.40024 0.7357 0.0
C621 C 0.29365 0.41914 0.71906 0.0
C622 C 0.27686 0.41449 0.73889 0.0
C623 C 0.27577 0.39439 0.75483 0.0
O624 O 0.26431 0.37801 0.79999 0.0
O625 O 0.24826 0.37774 0.7833 0.0
O626 O 0.26381 0.39349 0.75383 0.0
O627 O 0.27984 0.39375 0.77056 0.0
H628 H 0.2531 0.35972 0.76409 0.0
H629 H 0.25534 0.33807 0.75981 0.0
H630 H 0.26312 0.33288 0.81341 0.0
H631 H 0.26093 0.3545 0.8176 0.0
H632 H 0.24461 0.41733 0.85329 0.0
H633 H 0.25624 0.40853 0.83033 0.0
H634 H 0.22184 0.43524 0.81606 0.0
H635 H 0.23371 0.42672 0.79316 0.0
H636 H 0.27838 0.43077 0.72354 0.0
H637 H 0.30735 0.40534 0.71831 0.0
H638 H 0.29712 0.39167 0.73889 0.0
H639 H 0.26832 0.41708 0.74452 0.0
H640 H 0.16655 0.07351 0.95834 0.0
H641 H 0.1787 0.08447 0.93661 0.0
H642 H 0.19225 0.05083 0.9188 0.0
H643 H 0.18013 0.03978 0.94053 0.0
H644 H 0.20358 0.08543 0.93086 0.0
H645 H 0.17951 0.06636 0.87501 0.0
H646 H 0.17357 0.06472 0.89641 0.0
H647 H 0.18563 0.05528 0.8895 0.0
C648 C 0.1722 0.06843 0.94992 0.0
C649 C 0.1723 0.05573 0.95119 0.0
C650 C 0.1791 0.07472 0.93742 0.0
C651 C 0.18625 0.06849 0.92584 0.0
C652 C 0.18658 0.05584 0.92729 0.0
H653 H 0.23168 0.09419 0.8396 0.0
H654 H 0.22156 0.08174 0.86194 0.0
C655 C 0.17965 0.04953 0.93976 0.0
C656 C 0.19339 0.07529 0.91239 0.0
H657 H 0.19679 0.07898 0.86922 0.0
C658 C 0.20209 0.08402 0.91739 0.0
C659 C 0.1915 0.07343 0.89478 0.0
C660 C 0.18198 0.06452 0.88854 0.0
C661 C 0.20895 0.09089 0.90531 0.0
C662 C 0.20692 0.08917 0.8877 0.0
C663 C 0.19836 0.08031 0.8827 0.0
C664 C 0.21328 0.09674 0.8743 0.0
C665 C 0.21843 0.09983 0.91155 0.0
C666 C 0.21191 0.10931 0.87366 0.0
C667 C 0.21773 0.11644 0.86098 0.0
C668 C 0.22499 0.11119 0.84849 0.0
C669 C 0.22629 0.09857 0.8491 0.0
C670 C 0.22045 0.09143 0.86181 0.0
H671 H 0.22136 0.09758 0.92478 0.0
H672 H 0.22658 0.10017 0.90315 0.0
H673 H 0.21448 0.10896 0.91154 0.0
H674 H 0.20625 0.11362 0.88292 0.0
H675 H 0.2166 0.12612 0.86109 0.0
H676 H 0.23293 0.94325 0.21225 0.0
H677 H 0.22267 0.95568 0.19062 0.0
H678 H 0.20357 0.92408 0.17248 0.0
H679 H 0.21386 0.91158 0.19382 0.0
H680 H 0.22295 0.95397 0.15499 0.0
H681 H 0.17587 0.94749 0.17995 0.0
H682 H 0.18917 0.94376 0.19238 0.0
H683 H 0.18357 0.93364 0.17646 0.0
C684 C 0.22659 0.93892 0.20362 0.0
C685 C 0.22419 0.92638 0.20494 0.0
C686 C 0.22068 0.94606 0.1913 0.0
C687 C 0.21217 0.94087 0.18009 0.0
C688 C 0.20985 0.92836 0.18124 0.0
H689 H 0.1683 0.96548 0.09443 0.0
H690 H 0.17842 0.95404 0.11722 0.0
C691 C 0.21576 0.92121 0.19351 0.0
C692 C 0.20597 0.94843 0.16688 0.0
H693 H 0.1779 0.95678 0.15242 0.0
C694 C 0.21311 0.95466 0.1545 0.0
C695 C 0.19312 0.94932 0.1662 0.0
C696 C 0.18497 0.9433 0.17954 0.0
C697 C 0.20774 0.96148 0.14124 0.0
C698 C 0.19488 0.9623 0.14049 0.0
C699 C 0.18775 0.95615 0.15295 0.0
C700 C 0.18864 0.96938 0.12678 0.0
C701 C 0.2159 0.96745 0.12786 0.0
C702 C 0.19084 0.98187 0.12469 0.0
C703 C 0.18511 0.98843 0.11159 0.0
C704 C 0.17698 0.98268 0.10031 0.0
C705 C 0.17463 0.9702 0.10267 0.0
C706 C 0.18035 0.96364 0.11578 0.0
H707 H 0.22508 0.96343 0.12772 0.0
H708 H 0.21181 0.96669 0.11497 0.0
H709 H 0.21707 0.97718 0.13063 0.0
H710 H 0.19701 0.98656 0.13318 0.0
H711 H 0.18724 0.99799 0.11012 0.0
H712 H 0.29001 0.92344 0.36866 0.0
H713 H 0.30094 0.9332 0.39203 0.0
H714 H 0.32208 0.95465 0.35566 0.0
H715 H 0.31133 0.94488 0.33226 0.0
H716 H 0.3262 0.93494 0.39996 0.0
H717 H 0.3072 0.9801 0.38608 0.0
H718 H 0.30089 0.96648 0.37708 0.0
H719 H 0.31453 0.97346 0.36824 0.0
C720 C 0.29708 0.93012 0.3656 0.0
C721 C 0.29967 0.93343 0.34851 0.0
C722 C 0.30329 0.93575 0.379 0.0
C723 C 0.31217 0.94484 0.37563 0.0
C724 C 0.31506 0.94788 0.35861 0.0
H725 H 0.35604 0.99315 0.43849 0.0
H726 H 0.34704 0.98174 0.41509 0.0
C727 C 0.30888 0.94227 0.34522 0.0
C728 C 0.31836 0.95123 0.38987 0.0
H729 H 0.32273 0.97909 0.40699 0.0
C730 C 0.32541 0.94458 0.40154 0.0
C731 C 0.31735 0.96383 0.39194 0.0
C732 C 0.3095 0.9714 0.38028 0.0
C733 C 0.33165 0.95022 0.415 0.0
C734 C 0.33063 0.96282 0.41707 0.0
C735 C 0.32357 0.96945 0.40539 0.0
C736 C 0.33661 0.96931 0.43141 0.0
C737 C 0.33951 0.94266 0.42663 0.0
C738 C 0.33377 0.96617 0.44842 0.0
C739 C 0.33896 0.97263 0.46184 0.0
C740 C 0.34708 0.98247 0.45859 0.0
C741 C 0.34998 0.98554 0.44152 0.0
C742 C 0.34476 0.97907 0.4281 0.0
H743 H 0.34212 0.93414 0.42058 0.0
H744 H 0.34795 0.9477 0.43029 0.0
H745 H 0.33433 0.94023 0.43842 0.0
H746 H 0.32734 0.95884 0.45134 0.0
H747 H 0.33658 0.96992 0.47479 0.0
H748 H 0.31497 0.10961 0.71252 0.0
H749 H 0.32686 0.10014 0.69031 0.0
H750 H 0.29376 0.0918 0.66293 0.0
H751 H 0.28185 0.10157 0.68477 0.0
H752 H 0.3254 0.07634 0.68028 0.0
H753 H 0.3152 0.10706 0.62552 0.0
H754 H 0.31213 0.11091 0.64729 0.0
H755 H 0.30189 0.10091 0.63621 0.0
C756 C 0.31022 0.10597 0.70162 0.0
C757 C 0.29742 0.10641 0.70048 0.0
C758 C 0.31704 0.10047 0.68898 0.0
C759 C 0.31124 0.09536 0.6748 0.0
C760 C 0.29849 0.09585 0.67355 0.0
H761 H 0.3369 0.055 0.58777 0.0
H762 H 0.32455 0.06498 0.60907 0.0
C763 C 0.29166 0.10133 0.68619 0.0
C764 C 0.31849 0.08908 0.66174 0.0
H765 H 0.32543 0.08904 0.61922 0.0
C766 C 0.32545 0.07917 0.66694 0.0
C767 C 0.31852 0.09269 0.64429 0.0
C768 C 0.31163 0.10354 0.63797 0.0
C769 C 0.33228 0.07269 0.65521 0.0
C770 C 0.33237 0.07634 0.63779 0.0
C771 C 0.32536 0.08622 0.63255 0.0
C772 C 0.33987 0.07019 0.62488 0.0
C773 C 0.33915 0.06183 0.66155 0.0
C774 C 0.3526 0.06988 0.62653 0.0
C775 C 0.35968 0.06413 0.61445 0.0
C776 C 0.35421 0.0586 0.60028 0.0
C777 C 0.34143 0.059 0.59859 0.0
C778 C 0.33435 0.06479 0.61071 0.0
H779 H 0.33546 0.05824 0.67391 0.0
H780 H 0.33876 0.05451 0.65215 0.0
H781 H 0.34886 0.06448 0.66354 0.0
H782 H 0.35711 0.07415 0.63716 0.0
H783 H 0.36945 0.06391 0.61633 0.0
H784 H 0.80489 0.91287 0.18937 0.0
H785 H 0.81512 0.92578 0.16784 0.0
H786 H 0.80501 0.95734 0.19506 0.0
H787 H 0.79512 0.94446 0.21705 0.0
H788 H 0.80562 0.94322 0.14669 0.0
H789 H 0.84139 0.96348 0.18785 0.0
H790 H 0.83227 0.95044 0.19451 0.0
H791 H 0.82611 0.9653 0.19542 0.0
C792 C 0.80499 0.92255 0.19098 0.0
C793 C 0.79925 0.92758 0.20512 0.0
C794 C 0.81078 0.92993 0.17854 0.0
C795 C 0.81103 0.94254 0.17992 0.0
C796 C 0.80518 0.94763 0.19387 0.0
H797 H 0.83982 1.0014 0.1146 0.0
H798 H 0.83007 0.98899 0.13722 0.0
C799 C 0.79938 0.94024 0.20635 0.0
C800 C 0.81714 0.9503 0.16648 0.0
H801 H 0.83986 0.97158 0.15968 0.0
C802 C 0.81313 0.94938 0.14954 0.0
C803 C 0.82694 0.95838 0.17015 0.0
C804 C 0.83203 0.95941 0.18793 0.0
C805 C 0.81854 0.9564 0.13626 0.0
C806 C 0.82837 0.96444 0.13992 0.0
C807 C 0.83234 0.96541 0.15686 0.0
C808 C 0.83461 0.97193 0.12633 0.0
C809 C 0.81349 0.95533 0.11846 0.0
C810 C 0.84064 0.9665 0.11281 0.0
C811 C 0.84619 0.97357 0.09981 0.0
C812 C 0.84588 0.98627 0.10004 0.0
C813 C 0.84008 0.99167 0.11383 0.0
C814 C 0.83456 0.98458 0.12685 0.0
H815 H 0.80414 0.95123 0.11851 0.0
H816 H 0.81323 0.96431 0.11187 0.0
H817 H 0.81945 0.94947 0.11099 0.0
H818 H 0.841 0.95676 0.11228 0.0
H819 H 0.85049 0.96908 0.08937 0.0
H820 H 0.83654 0.05415 0.96296 0.0
H821 H 0.82408 0.06411 0.94109 0.0
H822 H 0.85667 0.07555 0.9139 0.0
H823 H 0.86914 0.06528 0.93525 0.0
H824 H 0.82371 0.08809 0.93113 0.0
H825 H 0.83655 0.0606 0.87627 0.0
H826 H 0.83984 0.05611 0.89802 0.0
H827 H 0.84953 0.06705 0.88693 0.0
C828 C 0.84106 0.05863 0.9522 0.0
C829 C 0.85388 0.05887 0.95092 0.0
C830 C 0.83391 0.0644 0.93975 0.0
C831 C 0.8394 0.07044 0.92567 0.0
C832 C 0.85218 0.07075 0.92442 0.0
H833 H 0.81819 0.11632 0.8408 0.0
H834 H 0.82851 0.10399 0.8624 0.0
C835 C 0.85932 0.065 0.93682 0.0
C836 C 0.83185 0.07678 0.91257 0.0
H837 H 0.82645 0.079 0.86968 0.0
C838 C 0.82421 0.08601 0.91771 0.0
C839 C 0.83246 0.07407 0.89504 0.0
C840 C 0.83994 0.06384 0.88873 0.0
C841 C 0.81753 0.09289 0.90579 0.0
C842 C 0.81837 0.09036 0.88823 0.0
C843 C 0.82584 0.08098 0.88312 0.0
C844 C 0.81192 0.09761 0.87492 0.0
C845 C 0.80997 0.10309 0.91204 0.0
C846 C 0.79912 0.09798 0.87452 0.0
C847 C 0.79317 0.10508 0.86219 0.0
C848 C 0.79989 0.11196 0.84995 0.0
C849 C 0.81271 0.11132 0.85017 0.0
C850 C 0.81863 0.10421 0.86246 0.0
H851 H 0.81245 0.10559 0.92524 0.0
H852 H 0.81109 0.11121 0.90355 0.0
H853 H 0.8002 0.10026 0.91198 0.0
H854 H 0.79372 0.09281 0.8838 0.0
H855 H 0.78331 0.10538 0.86249 0.0
H856 H 0.67951 0.03928 0.61393 0.0
H857 H 0.69138 0.05028 0.63521 0.0
H858 H 0.6798 0.08407 0.61301 0.0
H859 H 0.66762 0.07315 0.59199 0.0
H860 H 0.71046 0.0673 0.63092 0.0
H861 H 0.67108 0.08743 0.66334 0.0
H862 H 0.6693 0.07518 0.64873 0.0
H863 H 0.67179 0.09038 0.64075 0.0
C864 C 0.67938 0.04905 0.61364 0.0
C865 C 0.67251 0.0553 0.60125 0.0
C866 C 0.68625 0.05533 0.62577 0.0
C867 C 0.68634 0.06801 0.62592 0.0
C868 C 0.6797 0.07429 0.61338 0.0
H869 H 0.72187 0.12036 0.69292 0.0
H870 H 0.71018 0.11061 0.67023 0.0
C871 C 0.67285 0.06802 0.60121 0.0
C872 C 0.69348 0.0746 0.63909 0.0
H873 H 0.69076 0.09381 0.67229 0.0
C874 C 0.70614 0.07308 0.63998 0.0
C875 C 0.68787 0.0822 0.6509 0.0
C876 C 0.67425 0.08385 0.65105 0.0
C877 C 0.71335 0.07899 0.65222 0.0
C878 C 0.70773 0.08647 0.66415 0.0
C879 C 0.69508 0.0881 0.66315 0.0
C880 C 0.71476 0.09241 0.67803 0.0
C881 C 0.72697 0.07732 0.65206 0.0
C882 C 0.72105 0.08545 0.69019 0.0
C883 C 0.72768 0.09099 0.70322 0.0
C884 C 0.72817 0.10365 0.70449 0.0
C885 C 0.72166 0.1106 0.69245 0.0
C886 C 0.71501 0.10504 0.6794 0.0
H887 H 0.73018 0.07426 0.63949 0.0
H888 H 0.73194 0.08584 0.65515 0.0
H889 H 0.72935 0.07034 0.66179 0.0
H890 H 0.72074 0.07569 0.68971 0.0
H891 H 0.73231 0.0853 0.71246 0.0
H892 H 0.71777 0.94781 0.33439 0.0
H893 H 0.70691 0.95687 0.35788 0.0
H894 H 0.71876 0.92841 0.39198 0.0
H895 H 0.73003 0.91949 0.36865 0.0
H896 H 0.68832 0.94799 0.3788 0.0
H897 H 0.72965 0.95856 0.41702 0.0
H898 H 0.73046 0.95417 0.39506 0.0
H899 H 0.72787 0.94295 0.41169 0.0
C900 C 0.71819 0.94351 0.34691 0.0
C901 C 0.72494 0.93297 0.3496 0.0
C902 C 0.71188 0.94867 0.36033 0.0
C903 C 0.71218 0.94347 0.37681 0.0
C904 C 0.71859 0.93275 0.37947 0.0
H905 H 0.68268 0.96556 0.47433 0.0
H906 H 0.69198 0.95463 0.45115 0.0
C907 C 0.72492 0.92757 0.36604 0.0
C908 C 0.70582 0.94934 0.39113 0.0
H909 H 0.71061 0.96233 0.42973 0.0
C910 C 0.6932 0.95114 0.38993 0.0
C911 C 0.71217 0.95346 0.40568 0.0
C912 C 0.7258 0.95231 0.40744 0.0
C913 C 0.68675 0.9568 0.40291 0.0
C914 C 0.69312 0.96099 0.4174 0.0
C915 C 0.70572 0.95911 0.41866 0.0
C916 C 0.68695 0.96747 0.43133 0.0
C917 C 0.67314 0.95804 0.40112 0.0
C918 C 0.68103 0.97839 0.42799 0.0
C919 C 0.67572 0.98471 0.44125 0.0
C920 C 0.6763 0.98031 0.45822 0.0
C921 C 0.68217 0.96932 0.46148 0.0
C922 C 0.68746 0.96301 0.44822 0.0
H923 H 0.66922 0.95151 0.39197 0.0
H924 H 0.66848 0.95664 0.41359 0.0
H925 H 0.67117 0.96728 0.39625 0.0
H926 H 0.68075 0.98218 0.41515 0.0
H927 H 0.67148 0.99322 0.43826 0.0
H928 H 0.7244 0.59595 0.33435 0.0
H929 H 0.71285 0.5839 0.35574 0.0
H930 H 0.71815 0.61214 0.392 0.0
H931 H 0.72931 0.62438 0.37063 0.0
H932 H 0.71976 0.57524 0.3881 0.0
H933 H 0.68128 0.60651 0.39312 0.0
H934 H 0.69225 0.60763 0.37597 0.0
H935 H 0.69595 0.61359 0.3965 0.0
C936 C 0.72301 0.59966 0.34682 0.0
C937 C 0.72778 0.61119 0.35068 0.0
C938 C 0.71647 0.59271 0.35908 0.0
C939 C 0.71446 0.59718 0.37542 0.0
C940 C 0.71938 0.60857 0.3794 0.0
H941 H 0.67728 0.57239 0.4679 0.0
H942 H 0.68944 0.58314 0.44597 0.0
C943 C 0.72591 0.61551 0.36719 0.0
C944 C 0.70728 0.58993 0.38836 0.0
H945 H 0.68211 0.59067 0.414 0.0
C946 C 0.71148 0.57857 0.39369 0.0
C947 C 0.69647 0.59426 0.39566 0.0
C948 C 0.69113 0.60611 0.38993 0.0
C949 C 0.70536 0.57159 0.40643 0.0
C950 C 0.69462 0.57599 0.41386 0.0
C951 C 0.69037 0.5873 0.4084 0.0
C952 C 0.68765 0.5691 0.42739 0.0
C953 C 0.71066 0.55973 0.41217 0.0
C954 C 0.68254 0.55761 0.42431 0.0
C955 C 0.67554 0.55144 0.43685 0.0
C956 C 0.67339 0.55666 0.45272 0.0
C957 C 0.67861 0.56814 0.45579 0.0
C958 C 0.68562 0.57429 0.44327 0.0
H959 H 0.72044 0.55918 0.40863 0.0
H960 H 0.70979 0.55835 0.42618 0.0
H961 H 0.70562 0.55224 0.40592 0.0
H962 H 0.68372 0.55352 0.41204 0.0
H963 H 0.67151 0.54272 0.4339 0.0
H964 H 0.68058 0.46654 0.58395 0.0
H965 H 0.69047 0.45457 0.60638 0.0
H966 H 0.68636 0.4836 0.64133 0.0
H967 H 0.67617 0.49552 0.61912 0.0
H968 H 0.7119 0.46036 0.6239 0.0
H969 H 0.67308 0.45438 0.66896 0.0
H970 H 0.6711 0.45935 0.64708 0.0
H971 H 0.67651 0.46979 0.6627 0.0
C972 C 0.68157 0.47032 0.59649 0.0
C973 C 0.6775 0.482 0.5997 0.0
C974 C 0.68732 0.46348 0.60928 0.0
C975 C 0.68904 0.4681 0.62564 0.0
C976 C 0.68496 0.47974 0.62892 0.0
H977 H 0.72486 0.44068 0.71792 0.0
H978 H 0.71413 0.45295 0.69657 0.0
C979 C 0.67924 0.4866 0.61613 0.0
C980 C 0.69555 0.46094 0.639 0.0
H981 H 0.69238 0.44795 0.67881 0.0
C982 C 0.70761 0.4576 0.63587 0.0
C983 C 0.68999 0.4574 0.65469 0.0
C984 C 0.67692 0.46031 0.65856 0.0
C985 C 0.71429 0.45096 0.64803 0.0
C986 C 0.70871 0.44733 0.66366 0.0
C987 C 0.69667 0.45073 0.66685 0.0
C988 C 0.71514 0.43981 0.67671 0.0
C989 C 0.72737 0.44809 0.64415 0.0
C990 C 0.71911 0.42826 0.67278 0.0
C991 C 0.72518 0.42119 0.68498 0.0
C992 C 0.72741 0.42549 0.70148 0.0
C993 C 0.72325 0.43702 0.70544 0.0
C994 C 0.71715 0.44408 0.69321 0.0
H995 H 0.73126 0.45421 0.63401 0.0
H996 H 0.73315 0.44881 0.65571 0.0
H997 H 0.72778 0.43871 0.63961 0.0
H998 H 0.7174 0.42463 0.66029 0.0
H999 H 0.72797 0.41227 0.68153 0.0
H1000 H 0.82802 0.48569 0.96639 0.0
H1001 H 0.81863 0.47395 0.94375 0.0
H1002 H 0.85384 0.47013 0.92032 0.0
H1003 H 0.86334 0.482 0.94293 0.0
H1004 H 0.81853 0.47936 0.90908 0.0
H1005 H 0.84039 0.43535 0.92184 0.0
H1006 H 0.84062 0.4473 0.93708 0.0
H1007 H 0.8508 0.44803 0.91913 0.0
C1008 C 0.8338 0.48242 0.95641 0.0
C1009 C 0.84646 0.48488 0.95651 0.0
C1010 C 0.8284 0.47563 0.9435 0.0
C1011 C 0.83551 0.47103 0.93039 0.0
C1012 C 0.84817 0.47336 0.93047 0.0
H1013 H 0.81494 0.43101 0.83927 0.0
H1014 H 0.82621 0.44141 0.86179 0.0
C1015 C 0.8536 0.48017 0.94342 0.0
C1016 C 0.82952 0.46425 0.91635 0.0
H1017 H 0.82805 0.43685 0.89714 0.0
C1018 C 0.82061 0.47006 0.9065 0.0
C1019 C 0.83227 0.45213 0.91288 0.0
C1020 C 0.84146 0.44527 0.92335 0.0
C1021 C 0.81441 0.46413 0.89331 0.0
C1022 C 0.81699 0.45195 0.89002 0.0
C1023 C 0.82604 0.44617 0.89968 0.0
C1024 C 0.81022 0.44504 0.8768 0.0
C1025 C 0.80527 0.47107 0.88282 0.0
C1026 C 0.79751 0.4433 0.87794 0.0
C1027 C 0.79105 0.43733 0.86513 0.0
C1028 C 0.79714 0.43286 0.85088 0.0
C1029 C 0.80994 0.43424 0.85008 0.0
C1030 C 0.8164 0.44025 0.86291 0.0
H1031 H 0.80681 0.48098 0.88371 0.0
H1032 H 0.80569 0.46862 0.86919 0.0
H1033 H 0.79595 0.46885 0.88762 0.0
H1034 H 0.79256 0.44664 0.88873 0.0
H1035 H 0.78125 0.43622 0.8664 0.0
H1036 H 0.84412 0.54222 0.10993 0.0
H1037 H 0.83219 0.55284 0.13097 0.0
H1038 H 0.84894 0.58667 0.11425 0.0
H1039 H 0.86091 0.57615 0.09322 0.0
H1040 H 0.8402 0.56644 0.15776 0.0
H1041 H 0.81303 0.59476 0.11338 0.0
H1042 H 0.8216 0.5821 0.10634 0.0
H1043 H 0.8292 0.59633 0.11021 0.0
C1044 C 0.84529 0.55193 0.11071 0.0
C1045 C 0.85347 0.55831 0.09976 0.0
C1046 C 0.83841 0.55799 0.12273 0.0
C1047 C 0.83949 0.5706 0.12406 0.0
C1048 C 0.84768 0.577 0.11321 0.0
H1049 H 0.80757 0.62251 0.19248 0.0
H1050 H 0.81954 0.61256 0.17074 0.0
C1051 C 0.85454 0.57094 0.10116 0.0
C1052 C 0.83241 0.57695 0.13724 0.0
H1053 H 0.81169 0.59913 0.1428 0.0
C1054 C 0.83392 0.57355 0.15446 0.0
C1055 C 0.82425 0.58628 0.133 0.0
C1056 C 0.82181 0.59003 0.11473 0.0
C1057 C 0.82765 0.57929 0.16752 0.0
C1058 C 0.81945 0.58858 0.16328 0.0
C1059 C 0.81798 0.59204 0.14607 0.0
C1060 C 0.81216 0.59464 0.17649 0.0
C1061 C 0.83007 0.57551 0.18579 0.0
C1062 C 0.80389 0.58794 0.18685 0.0
C1063 C 0.79709 0.59358 0.19934 0.0
C1064 C 0.7983 0.60612 0.20174 0.0
C1065 C 0.8065 0.61284 0.19119 0.0
C1066 C 0.8133 0.60717 0.17866 0.0
H1067 H 0.83889 0.57085 0.18716 0.0
H1068 H 0.83019 0.58342 0.19422 0.0
H1069 H 0.82271 0.56915 0.19024 0.0
H1070 H 0.80267 0.57831 0.18525 0.0
H1071 H 0.791 0.58806 0.2073 0.0
H1072 H 0.34975 0.46858 0.58963 0.0
H1073 H 0.34012 0.45654 0.61273 0.0
H1074 H 0.33198 0.48911 0.63898 0.0
H1075 H 0.34161 0.5012 0.61598 0.0
H1076 H 0.34526 0.45489 0.64725 0.0
H1077 H 0.29867 0.47222 0.6372 0.0
H1078 H 0.31076 0.47473 0.62182 0.0
H1079 H 0.31012 0.48378 0.6405 0.0
C1080 C 0.34602 0.47319 0.60038 0.0
C1081 C 0.3464 0.48589 0.60083 0.0
C1082 C 0.34044 0.46629 0.61356 0.0
C1083 C 0.33509 0.47191 0.62747 0.0
C1084 C 0.33574 0.48456 0.62819 0.0
H1085 H 0.29613 0.44396 0.7182 0.0
H1086 H 0.30632 0.45686 0.69643 0.0
C1087 C 0.34128 0.49147 0.61501 0.0
C1088 C 0.32893 0.46452 0.64125 0.0
H1089 H 0.30158 0.45956 0.66157 0.0
C1090 C 0.3357 0.4559 0.65034 0.0
C1091 C 0.31645 0.46583 0.64536 0.0
C1092 C 0.30852 0.47456 0.63563 0.0
C1093 C 0.33039 0.44867 0.66349 0.0
C1094 C 0.3179 0.44992 0.66751 0.0
C1095 C 0.31115 0.45861 0.65853 0.0
C1096 C 0.3116 0.4421 0.68069 0.0
C1097 C 0.3383 0.4399 0.67318 0.0
C1098 C 0.31093 0.42952 0.67896 0.0
C1099 C 0.30508 0.42214 0.69132 0.0
C1100 C 0.29966 0.42714 0.70573 0.0
C1101 C 0.30012 0.43978 0.70726 0.0
C1102 C 0.306 0.44717 0.69485 0.0
H1103 H 0.34814 0.4424 0.67194 0.0
H1104 H 0.33586 0.43946 0.68692 0.0
H1105 H 0.33691 0.43076 0.66795 0.0
H1106 H 0.31487 0.4254 0.66793 0.0
H1107 H 0.30467 0.41249 0.68946 0.0
H1108 H 0.31899 0.61451 0.33908 0.0
H1109 H 0.32935 0.60229 0.36074 0.0
H1110 H 0.29492 0.59423 0.38551 0.0
H1111 H 0.28447 0.60649 0.36389 0.0
H1112 H 0.33021 0.60593 0.39527 0.0
H1113 H 0.30944 0.56083 0.38277 0.0
H1114 H 0.30829 0.57344 0.36789 0.0
H1115 H 0.29865 0.57244 0.38642 0.0
C1116 C 0.31359 0.61014 0.34912 0.0
C1117 C 0.30087 0.61153 0.34971 0.0
C1118 C 0.31954 0.6031 0.36147 0.0
C1119 C 0.31293 0.59721 0.37469 0.0
C1120 C 0.30021 0.59845 0.37525 0.0
H1121 H 0.33733 0.5551 0.46418 0.0
H1122 H 0.325 0.56575 0.44277 0.0
C1123 C 0.29424 0.60548 0.36286 0.0
C1124 C 0.31949 0.5903 0.38829 0.0
H1125 H 0.32215 0.56229 0.40711 0.0
C1126 C 0.32846 0.59639 0.39781 0.0
C1127 C 0.31715 0.57785 0.39174 0.0
C1128 C 0.30794 0.5707 0.38159 0.0
C1129 C 0.33512 0.59041 0.41065 0.0
C1130 C 0.33294 0.57792 0.41391 0.0
C1131 C 0.32384 0.57186 0.4046 0.0
C1132 C 0.3403 0.57099 0.42659 0.0
C1133 C 0.34435 0.59758 0.42076 0.0
C1134 C 0.35295 0.57012 0.42443 0.0
C1135 C 0.36 0.56401 0.43658 0.0
C1136 C 0.35458 0.55856 0.45121 0.0
C1137 C 0.34183 0.55913 0.45308 0.0
C1138 C 0.33476 0.56526 0.44088 0.0
H1139 H 0.34257 0.60741 0.42003 0.0
H1140 H 0.34432 0.59458 0.43437 0.0
H1141 H 0.35359 0.5962 0.41551 0.0
H1142 H 0.35741 0.57419 0.41332 0.0
H1143 H 0.36973 0.56351 0.43444 0.0
H1144 H 0.2343 0.61595 0.1864 0.0
H1145 H 0.22252 0.60669 0.16338 0.0
H1146 H 0.20495 0.58229 0.19985 0.0
H1147 H 0.21632 0.59173 0.22291 0.0
H1148 H 0.22218 0.58301 0.15291 0.0
H1149 H 0.17598 0.59531 0.17381 0.0
H1150 H 0.18966 0.60221 0.18238 0.0
H1151 H 0.18438 0.5876 0.19022 0.0
C1152 C 0.22778 0.60875 0.18957 0.0
C1153 C 0.22628 0.60463 0.20658 0.0
C1154 C 0.22111 0.6034 0.17636 0.0
C1155 C 0.21271 0.59388 0.17986 0.0
C1156 C 0.21119 0.58976 0.19681 0.0
H1157 H 0.16623 0.5444 0.12467 0.0
H1158 H 0.17835 0.55556 0.14543 0.0
C1159 C 0.21783 0.59509 0.21 0.0
C1160 C 0.20579 0.58796 0.16583 0.0
H1161 H 0.17697 0.58019 0.15273 0.0
C1162 C 0.2123 0.5825 0.15277 0.0
C1163 C 0.19287 0.58729 0.16559 0.0
C1164 C 0.1853 0.59352 0.17865 0.0
C1165 C 0.20626 0.57605 0.13987 0.0
C1166 C 0.19336 0.57515 0.13989 0.0
C1167 C 0.18686 0.5808 0.15276 0.0
C1168 C 0.18639 0.56817 0.12693 0.0
C1169 C 0.21376 0.56989 0.12667 0.0
C1170 C 0.18684 0.57151 0.10955 0.0
C1171 C 0.17983 0.56517 0.09759 0.0
C1172 C 0.17216 0.55537 0.10277 0.0
C1173 C 0.17187 0.55199 0.1202 0.0
C1174 C 0.17885 0.55833 0.13211 0.0
H1175 H 0.22344 0.5691 0.13065 0.0
H1176 H 0.20996 0.56073 0.12416 0.0
H1177 H 0.21356 0.57526 0.11456 0.0
H1178 H 0.1924 0.5792 0.10526 0.0
H1179 H 0.18017 0.56817 0.08437 0.0
H1180 H 0.17883 0.46757 0.97137 0.0
H1181 H 0.18862 0.45622 0.94896 0.0
H1182 H 0.18822 0.48768 0.91558 0.0
H1183 H 0.17843 0.49908 0.93786 0.0
H1184 H 0.18145 0.4508 0.91603 0.0
H1185 H 0.224 0.47885 0.91457 0.0
H1186 H 0.21289 0.47967 0.93145 0.0
H1187 H 0.21046 0.4874 0.91135 0.0
C1188 C 0.18072 0.47206 0.95921 0.0
C1189 C 0.17792 0.4843 0.95653 0.0
C1190 C 0.18637 0.46556 0.94642 0.0
C1191 C 0.1894 0.47114 0.93066 0.0
C1192 C 0.18629 0.48325 0.92776 0.0
H1193 H 0.22434 0.45039 0.83704 0.0
H1194 H 0.21361 0.46038 0.85981 0.0
C1195 C 0.18067 0.48976 0.94054 0.0
C1196 C 0.1958 0.46434 0.91726 0.0
H1197 H 0.22146 0.46477 0.89244 0.0
C1198 C 0.19023 0.45381 0.91094 0.0
C1199 C 0.20729 0.46823 0.91063 0.0
C1200 C 0.21408 0.47909 0.91744 0.0
C1201 C 0.19566 0.44728 0.89787 0.0
C1202 C 0.20708 0.45127 0.8911 0.0
C1203 C 0.21269 0.46173 0.89755 0.0
C1204 C 0.21329 0.44488 0.87711 0.0
C1205 C 0.18893 0.43638 0.89108 0.0
C1206 C 0.2168 0.43282 0.87921 0.0
C1207 C 0.22288 0.42701 0.8661 0.0
C1208 C 0.22565 0.43315 0.85059 0.0
C1209 C 0.22218 0.44527 0.84862 0.0
C1210 C 0.21611 0.45105 0.86171 0.0
H1211 H 0.17908 0.43634 0.89444 0.0
H1212 H 0.18981 0.43602 0.87701 0.0
H1213 H 0.19291 0.42808 0.89672 0.0
H1214 H 0.21496 0.42792 0.89107 0.0
H1215 H 0.22534 0.41768 0.86809 0.0
H1216 H 0.96005 0.02629 1.00809 0.0
H1217 H 0.98241 0.02686 1.00641 0.0
H1218 H 0.98427 1.00711 0.0543 0.0
H1219 H 0.96205 1.00659 0.05618 0.0
H1220 H 1.00024 0.03617 0.02899 0.0
H1221 H 1.00459 0.98678 0.02255 0.0
H1222 H 0.99029 0.99428 0.01958 0.0
H1223 H 0.99574 0.99078 0.04071 0.0
C1224 C 0.96521 0.02214 0.01833 0.0
C1225 C 0.95919 0.01626 0.03217 0.0
C1226 C 0.97801 0.02243 0.01731 0.0
C1227 C 0.98504 0.01681 0.03005 0.0
C1228 C 0.97906 1.01123 0.04408 0.0
H1229 H 0.06023 1.00562 0.05589 0.0
H1230 H 0.03807 1.00682 0.05404 0.0
C1231 C 0.96632 1.01093 0.04511 0.0
C1232 C 0.99861 0.01678 0.02886 0.0
H1233 H 0.02284 0.99792 0.02875 0.0
C1234 C 1.00519 0.02782 0.02876 0.0
C1235 C 1.00508 1.00588 0.0285 0.0
C1236 C 0.99858 0.99376 0.02767 0.0
C1237 C 0.01805 0.02823 0.02901 0.0
C1238 C 0.02451 0.01731 0.0291 0.0
C1239 C 0.01791 1.0063 0.02878 0.0
C1240 C 0.03808 0.01701 0.03018 0.0
C1241 C 0.0246 0.04033 0.02981 0.0
C1242 C 0.04555 0.02231 0.01735 0.0
C1243 C 0.0583 0.02159 0.01832 0.0
C1244 C 0.06386 0.01546 0.0321 0.0
C1245 C 0.05632 1.01023 0.04495 0.0
C1246 C 0.04361 1.01097 0.04396 0.0
H1247 H 0.01839 0.04758 0.03357 0.0
H1248 H 0.03229 0.03997 0.03901 0.0
H1249 H 0.0284 0.04278 0.01706 0.0
H1250 H 0.04151 0.02682 1.00641 0.0
H1251 H 0.06378 0.02559 1.00809 0.0
H1252 H 0.24478 0.71847 0.28742 0.0
H1253 H 0.24571 0.74048 0.28964 0.0
H1254 H 0.27796 0.7421 0.25816 0.0
H1255 H 0.27707 0.72013 0.25582 0.0
H1256 H 0.26318 0.7558 0.30229 0.0
H1257 H 0.2566 0.7661 0.23349 0.0
H1258 H 0.25405 0.75116 0.24267 0.0
H1259 H 0.26929 0.75655 0.23773 0.0
C1260 C 0.25213 0.72349 0.28105 0.0
C1261 C 0.2608 0.71749 0.27133 0.0
C1262 C 0.25261 0.7361 0.28228 0.0
C1263 C 0.26175 0.74302 0.27378 0.0
C1264 C 0.2706 0.73703 0.26443 0.0
H1265 H 0.28259 0.81921 0.26706 0.0
H1266 H 0.28106 0.79721 0.26514 0.0
C1267 C 0.2701 0.72444 0.26314 0.0
C1268 C 0.26213 0.75646 0.27489 0.0
H1269 H 0.26233 0.78263 0.25079 0.0
C1270 C 0.26291 0.76166 0.29103 0.0
C1271 C 0.26176 0.76416 0.26021 0.0
C1272 C 0.26026 0.75923 0.24256 0.0
C1273 C 0.26363 0.77426 0.29286 0.0
C1274 C 0.26339 0.78194 0.27817 0.0
C1275 C 0.26255 0.77676 0.26204 0.0
C1276 C 0.26415 0.79535 0.27925 0.0
C1277 C 0.26495 0.77927 0.31049 0.0
C1278 C 0.25505 0.8017 0.28758 0.0
C1279 C 0.2559 0.8143 0.28872 0.0
C1280 C 0.26588 0.82086 0.28155 0.0
C1281 C 0.27487 0.81447 0.27295 0.0
C1282 C 0.27398 0.80188 0.27176 0.0
H1283 H 0.26789 0.77228 0.31992 0.0
H1284 H 0.27166 0.78693 0.31052 0.0
H1285 H 0.25602 0.78264 0.31469 0.0
H1286 H 0.24727 0.7969 0.29321 0.0
H1287 H 0.24885 0.81888 0.29552 0.0
H1288 H 0.46119 1.0015 0.54365 0.0
H1289 H 0.4835 1.00222 0.54462 0.0
H1290 H 0.48414 0.0315 0.5074 0.0
H1291 H 0.46184 0.03083 0.50634 0.0
H1292 H 0.49954 0.99849 0.51869 0.0
H1293 H 0.50719 0.04451 0.54338 0.0
H1294 H 0.49245 0.0369 0.54407 0.0
H1295 H 0.49785 0.04409 0.52461 0.0
C1296 C 0.46606 1.00812 0.53568 0.0
C1297 C 0.45966 0.01612 0.52493 0.0
C1298 C 0.47884 1.00855 0.5363 0.0
C1299 C 0.48555 0.01702 0.52627 0.0
C1300 C 0.4792 0.02507 0.51559 0.0
H1301 H 0.56308 0.02942 0.5056 0.0
H1302 H 0.5408 0.03026 0.50672 0.0
C1303 C 0.46642 0.02467 0.51499 0.0
C1304 C 0.49916 0.01699 0.52636 0.0
H1305 H 0.52468 0.03457 0.53335 0.0
C1306 C 0.50503 1.00636 0.522 0.0
C1307 C 0.50636 0.02728 0.5306 0.0
C1308 C 0.50067 0.03881 0.53609 0.0
C1309 C 0.51782 1.00578 0.52148 0.0
C1310 C 0.52503 0.01605 0.52575 0.0
C1311 C 0.51918 0.0267 0.53008 0.0
C1312 C 0.53864 0.0159 0.52572 0.0
C1313 C 0.52351 0.99424 0.51594 0.0
C1314 C 0.5449 1.00775 0.53633 0.0
C1315 C 0.55765 1.00726 0.53575 0.0
C1316 C 0.56447 0.01498 0.52464 0.0
C1317 C 0.55818 0.0234 0.51441 0.0
C1318 C 0.54541 0.02386 0.51498 0.0
H1319 H 0.51693 0.98848 0.50882 0.0
H1320 H 0.53162 0.99616 0.50777 0.0
H1321 H 0.52648 0.98901 0.52738 0.0
H1322 H 0.53993 1.00172 0.54505 0.0
H1323 H 0.56218 1.00084 0.54406 0.0
H1324 H 0.27618 0.31827 0.80012 0.0
H1325 H 0.27732 0.29643 0.79686 0.0
H1326 H 0.24576 0.29704 0.7641 0.0
H1327 H 0.24461 0.31889 0.76721 0.0
H1328 H 0.26099 0.27856 0.80552 0.0
H1329 H 0.26901 0.27821 0.7358 0.0
H1330 H 0.27025 0.29183 0.74786 0.0
H1331 H 0.25552 0.28601 0.74152 0.0
C1332 C 0.26947 0.31377 0.79221 0.0
C1333 C 0.26033 0.32039 0.78387 0.0
C1334 C 0.27016 0.30126 0.79031 0.0
C1335 C 0.26175 0.29505 0.78001 0.0
C1336 C 0.25257 0.30162 0.77175 0.0
H1337 H 0.24898 0.21903 0.75729 0.0
H1338 H 0.24749 0.24088 0.76048 0.0
C1339 C 0.25191 0.31414 0.77356 0.0
C1340 C 0.26237 0.28168 0.77839 0.0
H1341 H 0.26467 0.25921 0.74949 0.0
C1342 C 0.26186 0.27435 0.79326 0.0
C1343 C 0.26349 0.27612 0.7624 0.0
C1344 C 0.26472 0.28344 0.746 0.0
C1345 C 0.26225 0.26168 0.79258 0.0
C1346 C 0.26333 0.25614 0.77661 0.0
C1347 C 0.2638 0.26345 0.76173 0.0
C1348 C 0.26412 0.2428 0.77508 0.0
C1349 C 0.26128 0.2543 0.80896 0.0
C1350 C 0.274 0.23658 0.78214 0.0
C1351 C 0.27487 0.22408 0.78037 0.0
C1352 C 0.26588 0.21749 0.77147 0.0
C1353 C 0.25598 0.22376 0.76443 0.0
C1354 C 0.25515 0.23628 0.76614 0.0
H1355 H 0.25751 0.2596 0.81951 0.0
H1356 H 0.2554 0.24612 0.80726 0.0
H1357 H 0.27049 0.25133 0.81279 0.0
H1358 H 0.28113 0.24143 0.78888 0.0
H1359 H 0.28258 0.21956 0.78605 0.0
H1360 H 0.78565 0.31722 0.78229 0.0
H1361 H 0.78376 0.29531 0.77981 0.0
H1362 H 0.7446 0.29773 0.77801 0.0
H1363 H 0.74639 0.31967 0.78059 0.0
H1364 H 0.77211 0.27866 0.80146 0.0
H1365 H 0.75155 0.27719 0.73693 0.0
H1366 H 0.75859 0.29072 0.74519 0.0
H1367 H 0.74339 0.28618 0.75162 0.0
C1368 C 0.77661 0.31312 0.7814 0.0
C1369 C 0.76617 0.32028 0.78164 0.0
C1370 C 0.77556 0.30057 0.77992 0.0
C1371 C 0.76405 0.29484 0.77851 0.0
C1372 C 0.7536 0.30194 0.77869 0.0
H1373 H 0.73892 0.21994 0.77166 0.0
H1374 H 0.74071 0.24186 0.77412 0.0
C1375 C 0.75464 0.31451 0.78016 0.0
C1376 C 0.76302 0.28143 0.77742 0.0
H1377 H 0.7523 0.2586 0.75251 0.0
C1378 C 0.76783 0.27427 0.79072 0.0
C1379 C 0.75741 0.27568 0.76342 0.0
C1380 C 0.75253 0.28281 0.74839 0.0
C1381 C 0.767 0.26158 0.79055 0.0
C1382 C 0.7614 0.25583 0.77655 0.0
C1383 C 0.75658 0.26298 0.76326 0.0
C1384 C 0.76042 0.24241 0.77543 0.0
C1385 C 0.77187 0.25445 0.80559 0.0
C1386 C 0.7709 0.23536 0.77525 0.0
C1387 C 0.76992 0.22279 0.77378 0.0
C1388 C 0.75842 0.21697 0.77232 0.0
C1389 C 0.74794 0.22408 0.77254 0.0
C1390 C 0.74894 0.23664 0.77402 0.0
H1391 H 0.77282 0.26007 0.81706 0.0
H1392 H 0.76583 0.24652 0.80876 0.0
H1393 H 0.78103 0.25111 0.80238 0.0
H1394 H 0.77988 0.23961 0.77593 0.0
H1395 H 0.77819 0.21767 0.77336 0.0
H1396 H 0.77134 0.82245 0.26376 0.0
H1397 H 0.77308 0.80059 0.26114 0.0
H1398 H 0.74582 0.79471 0.3002 0.0
H1399 H 0.74413 0.8165 0.30313 0.0
H1400 H 0.77939 0.78304 0.28596 0.0
H1401 H 0.73271 0.77409 0.26126 0.0
H1402 H 0.73953 0.78907 0.26163 0.0
H1403 H 0.73319 0.78223 0.28077 0.0
C1404 C 0.76575 0.81653 0.27189 0.0
C1405 C 0.75752 0.82133 0.28359 0.0
C1406 C 0.76672 0.80401 0.2703 0.0
C1407 C 0.75943 0.79598 0.28026 0.0
C1408 C 0.75133 0.80071 0.29208 0.0
H1409 H 0.75227 0.7175 0.29072 0.0
H1410 H 0.7505 0.73936 0.29345 0.0
C1411 C 0.75037 0.81321 0.29371 0.0
C1412 C 0.76049 0.78266 0.27857 0.0
H1413 H 0.7443 0.75696 0.26886 0.0
C1414 C 0.77174 0.77735 0.28213 0.0
C1415 C 0.75049 0.77521 0.27364 0.0
C1416 C 0.73832 0.78042 0.26895 0.0
C1417 C 0.7732 0.76479 0.2812 0.0
C1418 C 0.7632 0.75734 0.27625 0.0
C1419 C 0.75195 0.76265 0.2727 0.0
C1420 C 0.76427 0.74402 0.27452 0.0
C1421 C 0.78537 0.75959 0.28592 0.0
C1422 C 0.77245 0.73933 0.26277 0.0
C1423 C 0.77343 0.72683 0.26109 0.0
C1424 C 0.76622 0.71869 0.27109 0.0
C1425 C 0.7579 0.72345 0.2827 0.0
C1426 C 0.75692 0.73596 0.28434 0.0
H1427 H 0.79093 0.76589 0.2937 0.0
H1428 H 0.78416 0.7509 0.29314 0.0
H1429 H 0.79054 0.75786 0.27411 0.0
H1430 H 0.77801 0.74534 0.25473 0.0
H1431 H 0.77973 0.72357 0.25173 0.0
H1432 H 0.46107 0.50175 0.51863 0.0
H1433 H 0.48339 0.50205 0.51726 0.0
H1434 H 0.48468 0.53554 0.54406 0.0
H1435 H 0.46239 0.53534 0.54546 0.0
H1436 H 0.50029 0.51885 0.50335 0.0
H1437 H 0.50644 0.5141 0.57334 0.0
H1438 H 0.49189 0.51154 0.56313 0.0
H1439 H 0.49737 0.52668 0.56686 0.0
C1440 C 0.46608 0.50926 0.52408 0.0
C1441 C 0.45989 0.51847 0.5323 0.0
C1442 C 0.47886 0.50938 0.52335 0.0
C1443 C 0.48575 0.51869 0.53085 0.0
C1444 C 0.4796 0.5281 0.53856 0.0
H1445 H 0.56318 0.53414 0.54556 0.0
H1446 H 0.54092 0.53473 0.54395 0.0
C1447 C 0.46683 0.52797 0.53934 0.0
C1448 C 0.49935 0.51852 0.53075 0.0
H1449 H 0.52428 0.5181 0.55693 0.0
C1450 C 0.50554 0.51863 0.51506 0.0
C1451 C 0.50623 0.51823 0.54603 0.0
C1452 C 0.50016 0.51752 0.56331 0.0
C1453 C 0.51838 0.51874 0.51424 0.0
C1454 C 0.52524 0.5185 0.52953 0.0
C1455 C 0.51905 0.51834 0.5452 0.0
C1456 C 0.53885 0.51837 0.52965 0.0
C1457 C 0.52446 0.5194 0.49699 0.0
C1458 C 0.54517 0.50896 0.52218 0.0
C1459 C 0.55793 0.50858 0.5231 0.0
C1460 C 0.56467 0.51755 0.53168 0.0
C1461 C 0.55831 0.52701 0.53903 0.0
C1462 C 0.54556 0.52739 0.53806 0.0
H1463 H 0.51823 0.52287 0.48694 0.0
H1464 H 0.53279 0.5253 0.49718 0.0
H1465 H 0.52718 0.51021 0.49345 0.0
H1466 H 0.54022 0.50173 0.51598 0.0
H1467 H 0.56248 0.50105 0.51755 0.0
H1468 H 0.96147 0.50307 0.03852 0.0
H1469 H 0.98377 0.50339 0.0405 0.0
H1470 H 0.98555 0.5356 1.00859 0.0
H1471 H 0.96328 0.53555 1.00694 0.0
H1472 H 1.00037 0.50189 1.01412 0.0
H1473 H 1.00788 0.54477 0.04792 0.0
H1474 H 0.99312 0.53725 0.04684 0.0
H1475 H 0.99872 0.54632 0.02907 0.0
C1476 C 0.96658 0.51036 0.03218 0.0
C1477 C 0.96053 0.51931 0.0226 0.0
C1478 C 0.97935 0.51048 0.03323 0.0
C1479 C 0.98637 0.5196 0.02488 0.0
C1480 C 0.98036 0.52859 0.01541 0.0
H1481 H 0.06338 0.53415 1.00576 0.0
H1482 H 0.04109 0.53437 1.00745 0.0
C1483 C 0.9676 0.52847 1.01432 0.0
C1484 C 0.99997 0.51939 0.02537 0.0
H1485 H 0.02545 0.53605 0.0358 0.0
C1486 C 1.00584 0.50932 0.019 0.0
C1487 C 1.00715 0.5291 0.03169 0.0
C1488 C 1.00142 0.53993 0.03942 0.0
C1489 C 0.01865 0.5088 0.01837 0.0
C1490 C 0.02583 0.51855 0.02455 0.0
C1491 C 0.01996 0.52859 0.03105 0.0
C1492 C 0.03943 0.51857 0.02408 0.0
C1493 C 0.02439 0.49798 1.0106 0.0
C1494 C 0.04597 0.50975 0.03314 0.0
C1495 C 0.05873 0.50957 0.03215 0.0
C1496 C 0.06526 0.51823 0.02211 0.0
C1497 C 0.05867 0.52723 1.0134 0.0
C1498 C 0.04592 0.52742 1.01443 0.0
H1499 H 0.01777 0.49277 1.00278 0.0
H1500 H 0.0323 0.50078 1.00247 0.0
H1501 H 0.02771 0.49189 0.02094 0.0
H1502 H 0.04119 0.50295 0.04091 0.0
H1503 H 0.06346 0.50246 0.03895 0.0
loop_
_geom_bond_atom_site_label_1
_geom_bond_atom_site_label_2
_geom_bond_distance
_geom_bond_site_symmetry_2
_ccdc_geom_bond_type
C0 C1 1.264 . S
C0 C5 1.479 . S
C0 C10 1.465 . S
C1 C0 1.264 . S
C1 C3 1.339 . S
C1 H28 0.931 1_554 S
C2 C3 1.395 . S
C2 C4 1.320 1_545 S
C3 C1 1.339 . S
C3 C2 1.395 . S
C3 H29 0.929 1_554 S
C4 C2 1.320 1_565 S
C4 C5 1.405 1_565 S
C4 H30 0.930 . S
C5 C0 1.479 . S
C5 C4 1.405 1_545 S
C5 H31 0.931 1_545 S
U6 O7 2.454 1_545 S
U6 O8 2.458 1_545 S
U6 C9 2.984 1_545 S
U6 C10 2.847 . S
U6 C23 2.882 1_554 S
U6 O24 2.441 . S
U6 O25 2.420 . S
U6 O26 2.455 . S
U6 O27 2.449 1_554 S
O7 U6 2.454 1_565 S
O7 C9 1.353 . S
O8 U6 2.458 1_565 S
O8 C9 1.286 . S
C9 U6 2.984 1_565 S
C9 O7 1.353 . S
C9 O8 1.286 . S
C9 C11 1.363 . S
C10 C0 1.465 . S
C10 U6 2.847 . S
C10 O24 1.249 . S
C10 O25 1.202 . S
C11 C9 1.363 . S
C11 C13 1.408 . S
C11 C16 1.342 . S
C12 C13 1.310 . S
C12 C15 1.461 . S
C12 H32 0.932 . S
C13 C11 1.408 . S
C13 C12 1.310 . S
C13 H33 0.930 . S
C14 C15 1.474 . S
C14 C16 1.285 . S
C14 H34 0.929 . S
C15 C12 1.461 . S
C15 C14 1.474 . S
C16 C11 1.342 . S
C16 C14 1.285 . S
C16 H35 0.930 . S
C17 C20 1.424 . S
C17 C22 1.245 . S
C17 C23 1.428 . S
C18 C21 1.260 . S
C18 C22 1.477 . S
C18 H36 0.932 . S
C19 C20 1.384 . S
C19 C21 1.479 . S
C19 H37 0.929 . S
C20 C17 1.424 . S
C20 C19 1.384 . S
C20 H38 0.928 . S
C21 C18 1.260 . S
C21 C19 1.479 . S
C22 C17 1.245 . S
C22 C18 1.477 . S
C22 H39 0.932 . S
C23 U6 2.882 1_556 S
C23 C17 1.428 . S
C23 O26 1.301 1_556 S
C23 O27 1.282 . S
O24 U6 2.441 . S
O24 C10 1.249 . S
O25 U6 2.420 . S
O25 C10 1.202 . S
O26 U6 2.455 . S
O26 C23 1.301 1_554 S
O27 U6 2.449 1_556 S
O27 C23 1.282 . S
H28 C1 0.931 1_556 S
H29 C3 0.929 1_556 S
H30 C4 0.930 . S
H31 C5 0.931 1_565 S
H32 C12 0.932 . S
H33 C13 0.930 . S
H34 C14 0.929 . S
H35 C16 0.930 . S
H36 C18 0.932 . S
H37 C19 0.929 . S
H38 C20 0.928 . S
H39 C22 0.932 . S
C40 C41 1.264 . S
C40 C45 1.479 . S
C40 C50 1.465 . S
C41 C40 1.264 . S
C41 C43 1.339 . S
C41 H68 0.931 . S
C42 C43 1.395 . S
C42 C44 1.320 . S
C43 C41 1.339 . S
C43 C42 1.395 . S
C43 H69 0.929 . S
C44 C42 1.320 . S
C44 C45 1.405 . S
C44 H70 0.930 . S
C45 C40 1.479 . S
C45 C44 1.405 . S
C45 H71 0.931 . S
U46 O47 2.454 . S
U46 O48 2.458 . S
U46 C49 2.984 . S
U46 C50 2.847 . S
U46 C63 2.882 . S
U46 O64 2.441 . S
U46 O65 2.420 . S
U46 O66 2.455 . S
U46 O67 2.449 . S
O47 U46 2.454 . S
O47 C49 1.353 . S
O48 U46 2.458 . S
O48 C49 1.286 . S
C49 U46 2.984 . S
C49 O47 1.353 . S
C49 O48 1.286 . S
C49 C51 1.363 . S
C50 C40 1.465 . S
C50 U46 2.847 . S
C50 O64 1.249 . S
C50 O65 1.202 . S
C51 C49 1.363 . S
C51 C53 1.408 . S
C51 C56 1.342 . S
C52 C53 1.310 . S
C52 C55 1.461 . S
C52 H72 0.932 . S
C53 C51 1.408 . S
C53 C52 1.310 . S
C53 H73 0.930 . S
C54 C55 1.474 . S
C54 C56 1.285 . S
C54 H74 0.929 . S
C55 C52 1.461 . S
C55 C54 1.474 . S
C56 C51 1.342 . S
C56 C54 1.285 . S
C56 H75 0.930 . S
C57 C60 1.424 . S
C57 C62 1.245 . S
C57 C63 1.428 . S
C58 C61 1.260 . S
C58 C62 1.477 . S
C58 H76 0.932 . S
C59 C60 1.384 . S
C59 C61 1.479 . S
C59 H77 0.929 . S
C60 C57 1.424 . S
C60 C59 1.384 . S
C60 H78 0.928 . S
C61 C58 1.260 . S
C61 C59 1.479 . S
C62 C57 1.245 . S
C62 C58 1.477 . S
C62 H79 0.932 . S
C63 U46 2.882 . S
C63 C57 1.428 . S
C63 O66 1.301 . S
C63 O67 1.282 . S
O64 U46 2.441 . S
O64 C50 1.249 . S
O65 U46 2.420 . S
O65 C50 1.202 . S
O66 U46 2.455 . S
O66 C63 1.301 . S
O67 U46 2.449 . S
O67 C63 1.282 . S
H68 C41 0.931 . S
H69 C43 0.929 . S
H70 C44 0.930 . S
H71 C45 0.931 . S
H72 C52 0.932 . S
H73 C53 0.930 . S
H74 C54 0.929 . S
H75 C56 0.930 . S
H76 C58 0.932 . S
H77 C59 0.929 . S
H78 C60 0.928 . S
H79 C62 0.932 . S
C80 C81 1.264 . S
C80 C85 1.479 . S
C80 C90 1.465 1_565 S
C81 C80 1.264 . S
C81 C83 1.339 . S
C81 H108 0.931 . S
C82 C83 1.395 . S
C82 C84 1.320 . S
C83 C81 1.339 . S
C83 C82 1.395 . S
C83 H109 0.929 . S
C84 C82 1.320 . S
C84 C85 1.405 . S
C84 H110 0.930 . S
C85 C80 1.479 . S
C85 C84 1.405 . S
C85 H111 0.931 . S
U86 O87 2.454 . S
U86 O88 2.458 . S
U86 C89 2.984 . S
U86 C90 2.847 . S
U86 C103 2.882 . S
U86 O104 2.441 . S
U86 O105 2.420 . S
U86 O106 2.455 . S
U86 O107 2.449 . S
O87 U86 2.454 . S
O87 C89 1.353 . S
O88 U86 2.458 . S
O88 C89 1.286 . S
C89 U86 2.984 . S
C89 O87 1.353 . S
C89 O88 1.286 . S
C89 C91 1.363 . S
C90 C80 1.465 1_545 S
C90 U86 2.847 . S
C90 O104 1.249 . S
C90 O105 1.202 . S
C91 C89 1.363 . S
C91 C93 1.408 . S
C91 C96 1.342 . S
C92 C93 1.310 . S
C92 C95 1.461 . S
C92 H112 0.932 . S
C93 C91 1.408 . S
C93 C92 1.310 . S
C93 H113 0.930 . S
C94 C95 1.474 . S
C94 C96 1.285 . S
C94 H114 0.929 . S
C95 C92 1.461 . S
C95 C94 1.474 . S
C96 C91 1.342 . S
C96 C94 1.285 . S
C96 H115 0.930 . S
C97 C100 1.424 . S
C97 C102 1.245 . S
C97 C103 1.428 . S
C98 C101 1.260 . S
C98 C102 1.477 . S
C98 H116 0.932 . S
C99 C100 1.384 . S
C99 C101 1.479 . S
C99 H117 0.929 . S
C100 C97 1.424 . S
C100 C99 1.384 . S
C100 H118 0.928 . S
C101 C98 1.260 . S
C101 C99 1.479 . S
C102 C97 1.245 . S
C102 C98 1.477 . S
C102 H119 0.932 . S
C103 U86 2.882 . S
C103 C97 1.428 . S
C103 O106 1.301 . S
C103 O107 1.282 . S
O104 U86 2.441 . S
O104 C90 1.249 . S
O105 U86 2.420 . S
O105 C90 1.202 . S
O106 U86 2.455 . S
O106 C103 1.301 . S
O107 U86 2.449 . S
O107 C103 1.282 . S
H108 C81 0.931 . S
H109 C83 0.929 . S
H110 C84 0.930 . S
H111 C85 0.931 . S
H112 C92 0.932 . S
H113 C93 0.930 . S
H114 C94 0.929 . S
H115 C96 0.930 . S
H116 C98 0.932 . S
H117 C99 0.929 . S
H118 C100 0.928 . S
H119 C102 0.932 . S
C120 C121 1.264 . S
C120 C125 1.479 . S
C120 C130 1.465 . S
C121 C120 1.264 . S
C121 C123 1.339 . S
C121 H148 0.931 . S
C122 C123 1.395 . S
C122 C124 1.320 . S
C123 C121 1.339 . S
C123 C122 1.395 . S
C123 H149 0.929 . S
C124 C122 1.320 . S
C124 C125 1.405 . S
C124 H150 0.930 . S
C125 C120 1.479 . S
C125 C124 1.405 . S
C125 H151 0.931 . S
U126 O127 2.454 . S
U126 O128 2.458 . S
U126 C129 2.984 . S
U126 C130 2.847 . S
U126 C143 2.882 . S
U126 O144 2.441 . S
U126 O145 2.420 . S
U126 O146 2.455 . S
U126 O147 2.449 . S
O127 U126 2.454 . S
O127 C129 1.353 . S
O128 U126 2.458 . S
O128 C129 1.286 . S
C129 U126 2.984 . S
C129 O127 1.353 . S
C129 O128 1.286 . S
C129 C131 1.363 . S
C130 C120 1.465 . S
C130 U126 2.847 . S
C130 O144 1.249 . S
C130 O145 1.202 . S
C131 C129 1.363 . S
C131 C133 1.408 . S
C131 C136 1.342 . S
C132 C133 1.310 . S
C132 C135 1.461 . S
C132 H152 0.932 . S
C133 C131 1.408 . S
C133 C132 1.310 . S
C133 H153 0.930 . S
C134 C135 1.474 . S
C134 C136 1.285 . S
C134 H154 0.929 . S
C135 C132 1.461 . S
C135 C134 1.474 . S
C136 C131 1.342 . S
C136 C134 1.285 . S
C136 H155 0.930 . S
C137 C140 1.424 . S
C137 C142 1.245 . S
C137 C143 1.428 . S
C138 C141 1.260 . S
C138 C142 1.477 . S
C138 H156 0.932 . S
C139 C140 1.384 . S
C139 C141 1.479 . S
C139 H157 0.929 . S
C140 C137 1.424 . S
C140 C139 1.384 . S
C140 H158 0.928 . S
C141 C138 1.260 . S
C141 C139 1.479 . S
C142 C137 1.245 . S
C142 C138 1.477 . S
C142 H159 0.932 . S
C143 U126 2.882 . S
C143 C137 1.428 . S
C143 O146 1.301 . S
C143 O147 1.282 . S
O144 U126 2.441 . S
O144 C130 1.249 . S
O145 U126 2.420 . S
O145 C130 1.202 . S
O146 U126 2.455 . S
O146 C143 1.301 . S
O147 U126 2.449 . S
O147 C143 1.282 . S
H148 C121 0.931 . S
H149 C123 0.929 . S
H150 C124 0.930 . S
H151 C125 0.931 . S
H152 C132 0.932 . S
H153 C133 0.930 . S
H154 C134 0.929 . S
H155 C136 0.930 . S
H156 C138 0.932 . S
H157 C139 0.929 . S
H158 C140 0.928 . S
H159 C142 0.932 . S
C160 C161 1.264 . S
C160 C165 1.479 . S
C160 C170 1.465 . S
C161 C160 1.264 . S
C161 C163 1.339 . S
C161 H188 0.931 . S
C162 C163 1.395 . S
C162 C164 1.320 . S
C163 C161 1.339 . S
C163 C162 1.395 . S
C163 H189 0.929 . S
C164 C162 1.320 . S
C164 C165 1.405 . S
C164 H190 0.930 . S
C165 C160 1.479 . S
C165 C164 1.405 . S
C165 H191 0.931 . S
U166 O167 2.454 1_554 S
U166 O168 2.458 1_554 S
U166 C169 2.984 1_554 S
U166 C170 2.847 1_545 S
U166 C183 2.882 . S
U166 O184 2.441 1_545 S
U166 O185 2.420 1_545 S
U166 O186 2.455 1_554 S
U166 O187 2.449 1_545 S
O167 U166 2.454 1_556 S
O167 C169 1.353 . S
O168 U166 2.458 1_556 S
O168 C169 1.286 . S
C169 U166 2.984 1_556 S
C169 O167 1.353 . S
C169 O168 1.286 . S
C169 C171 1.363 . S
C170 C160 1.465 . S
C170 U166 2.847 1_565 S
C170 O184 1.249 . S
C170 O185 1.202 . S
C171 C169 1.363 . S
C171 C173 1.408 . S
C171 C176 1.342 . S
C172 C173 1.310 . S
C172 C175 1.461 . S
C172 H192 0.932 . S
C173 C171 1.408 . S
C173 C172 1.310 . S
C173 H193 0.930 . S
C174 C175 1.474 . S
C174 C176 1.285 . S
C174 H194 0.929 . S
C175 C172 1.461 . S
C175 C174 1.474 . S
C176 C171 1.342 . S
C176 C174 1.285 . S
C176 H195 0.930 . S
C177 C180 1.432 . S
C177 C182 1.245 1_554 S
C177 C183 1.428 . S
C178 C181 1.303 . S
C178 C182 1.471 1_554 S
C178 H196 0.891 1_554 S
C179 C180 1.384 . S
C179 C181 1.502 . S
C179 H197 0.908 1_545 S
C180 C177 1.432 . S
C180 C179 1.384 . S
C180 H198 0.921 1_545 S
C181 C178 1.303 . S
C181 C179 1.502 . S
C182 C177 1.245 1_556 S
C182 C178 1.471 1_556 S
C182 H199 0.932 . S
C183 U166 2.882 . S
C183 C177 1.428 . S
C183 O186 1.301 1_554 S
C183 O187 1.282 1_545 S
O184 U166 2.441 1_565 S
O184 C170 1.249 . S
O185 U166 2.420 1_565 S
O185 C170 1.202 . S
O186 U166 2.455 1_556 S
O186 C183 1.301 1_556 S
O187 U166 2.449 1_565 S
O187 C183 1.282 1_565 S
H188 C161 0.931 . S
H189 C163 0.929 . S
H190 C164 0.930 . S
H191 C165 0.931 . S
H192 C172 0.932 . S
H193 C173 0.930 . S
H194 C174 0.929 . S
H195 C176 0.930 . S
H196 C178 0.891 1_556 S
H197 C179 0.908 1_565 S
H198 C180 0.921 1_565 S
H199 C182 0.932 . S
C200 C201 1.264 . S
C200 C205 1.479 . S
C200 C210 1.465 . S
C201 C200 1.264 . S
C201 C203 1.339 . S
C201 H228 0.931 . S
C202 C203 1.395 . S
C202 C204 1.320 . S
C203 C201 1.339 . S
C203 C202 1.395 . S
C203 H229 0.929 . S
C204 C202 1.320 . S
C204 C205 1.405 . S
C204 H230 0.930 . S
C205 C200 1.479 . S
C205 C204 1.405 . S
C205 H231 0.931 . S
U206 O207 2.454 . S
U206 O208 2.458 . S
U206 C209 2.984 . S
U206 C210 2.847 . S
U206 C223 2.882 . S
U206 O224 2.441 . S
U206 O225 2.420 . S
U206 O226 2.455 . S
U206 O227 2.449 . S
O207 U206 2.454 . S
O207 C209 1.353 . S
O208 U206 2.458 . S
O208 C209 1.286 . S
C209 U206 2.984 . S
C209 O207 1.353 . S
C209 O208 1.286 . S
C209 C211 1.363 . S
C210 C200 1.465 . S
C210 U206 2.847 . S
C210 O224 1.249 . S
C210 O225 1.202 . S
C211 C209 1.363 . S
C211 C213 1.408 . S
C211 C216 1.342 . S
C212 C213 1.310 . S
C212 C215 1.461 . S
C212 H232 0.932 . S
C213 C211 1.408 . S
C213 C212 1.310 . S
C213 H233 0.930 . S
C214 C215 1.474 . S
C214 C216 1.285 . S
C214 H234 0.929 . S
C215 C212 1.461 . S
C215 C214 1.474 . S
C216 C211 1.342 . S
C216 C214 1.285 . S
C216 H235 0.930 . S
C217 C220 1.424 . S
C217 C222 1.245 . S
C217 C223 1.428 . S
C218 C221 1.260 . S
C218 C222 1.477 . S
C218 H236 0.932 . S
C219 C220 1.384 . S
C219 C221 1.479 . S
C219 H237 0.929 . S
C220 C217 1.424 . S
C220 C219 1.384 . S
C220 H238 0.928 . S
C221 C218 1.260 . S
C221 C219 1.479 . S
C222 C217 1.245 . S
C222 C218 1.477 . S
C222 H239 0.932 . S
C223 U206 2.882 . S
C223 C217 1.428 . S
C223 O226 1.301 . S
C223 O227 1.282 . S
O224 U206 2.441 . S
O224 C210 1.249 . S
O225 U206 2.420 . S
O225 C210 1.202 . S
O226 U206 2.455 . S
O226 C223 1.301 . S
O227 U206 2.449 . S
O227 C223 1.282 . S
H228 C201 0.931 . S
H229 C203 0.929 . S
H230 C204 0.930 . S
H231 C205 0.931 . S
H232 C212 0.932 . S
H233 C213 0.930 . S
H234 C214 0.929 . S
H235 C216 0.930 . S
H236 C218 0.932 . S
H237 C219 0.929 . S
H238 C220 0.928 . S
H239 C222 0.932 . S
C240 C241 1.264 1_565 S
C240 C245 1.479 . S
C240 C250 1.465 . S
C241 C240 1.264 1_545 S
C241 C243 1.339 . S
C241 H268 0.931 . S
C242 C243 1.395 . S
C242 C244 1.320 1_545 S
C243 C241 1.339 . S
C243 C242 1.395 . S
C243 H269 0.929 . S
C244 C242 1.320 1_565 S
C244 C245 1.405 . S
C244 H270 0.930 . S
C245 C240 1.479 . S
C245 C244 1.405 . S
C245 H271 0.931 . S
U246 O247 2.454 . S
U246 O248 2.458 . S
U246 C249 2.984 . S
U246 C250 2.847 . S
U246 C263 2.882 1_565 S
U246 O264 2.441 . S
U246 O265 2.432 . S
U246 O266 2.455 1_565 S
U246 O267 2.449 1_565 S
O247 U246 2.454 . S
O247 C249 1.353 . S
O248 U246 2.458 . S
O248 C249 1.286 . S
C249 U246 2.984 . S
C249 O247 1.353 . S
C249 O248 1.286 . S
C249 C251 1.363 . S
C250 C240 1.465 . S
C250 U246 2.847 . S
C250 O264 1.249 . S
C250 O265 1.223 . S
C251 C249 1.363 . S
C251 C253 1.408 . S
C251 C256 1.342 . S
C252 C253 1.310 . S
C252 C255 1.461 . S
C252 H272 0.932 . S
C253 C251 1.408 . S
C253 C252 1.310 . S
C253 H273 0.930 . S
C254 C255 1.474 . S
C254 C256 1.285 . S
C254 H274 0.929 . S
C255 C252 1.461 . S
C255 C254 1.474 . S
C256 C251 1.342 . S
C256 C254 1.285 . S
C256 H275 0.930 . S
C257 C260 1.424 . S
C257 C262 1.245 . S
C257 C263 1.428 . S
C258 C261 1.260 . S
C258 C262 1.477 . S
C258 H276 0.932 . S
C259 C260 1.384 . S
C259 C261 1.479 . S
C259 H277 0.929 . S
C260 C257 1.424 . S
C260 C259 1.384 . S
C260 H278 0.928 . S
C261 C258 1.260 . S
C261 C259 1.479 . S
C262 C257 1.245 . S
C262 C258 1.477 . S
C262 H279 0.932 . S
C263 U246 2.882 1_545 S
C263 C257 1.428 . S
C263 O266 1.301 . S
C263 O267 1.282 . S
O264 U246 2.441 . S
O264 C250 1.249 . S
O265 U246 2.432 . S
O265 C250 1.223 . S
O266 U246 2.455 1_545 S
O266 C263 1.301 . S
O267 U246 2.449 1_545 S
O267 C263 1.282 . S
H268 C241 0.931 . S
H269 C243 0.929 . S
H270 C244 0.930 . S
H271 C245 0.931 . S
H272 C252 0.932 . S
H273 C253 0.930 . S
H274 C254 0.929 . S
H275 C256 0.930 . S
H276 C258 0.932 . S
H277 C259 0.929 . S
H278 C260 0.928 . S
H279 C262 0.932 . S
C280 C281 1.264 . S
C280 C285 1.479 . S
C280 C290 1.465 . S
C281 C280 1.264 . S
C281 C283 1.339 . S
C281 H308 0.931 . S
C282 C283 1.395 . S
C282 C284 1.320 . S
C283 C281 1.339 . S
C283 C282 1.395 . S
C283 H309 0.929 . S
C284 C282 1.320 . S
C284 C285 1.405 . S
C284 H310 0.930 . S
C285 C280 1.479 . S
C285 C284 1.405 . S
C285 H311 0.931 . S
U286 O287 2.454 . S
U286 O288 2.458 . S
U286 C289 2.984 . S
U286 C290 2.847 . S
U286 C303 2.882 . S
U286 O304 2.441 . S
U286 O305 2.420 . S
U286 O306 2.455 . S
U286 O307 2.449 . S
O287 U286 2.454 . S
O287 C289 1.353 . S
O288 U286 2.458 . S
O288 C289 1.286 . S
C289 U286 2.984 . S
C289 O287 1.353 . S
C289 O288 1.286 . S
C289 C291 1.363 . S
C290 C280 1.465 . S
C290 U286 2.847 . S
C290 O304 1.249 . S
C290 O305 1.202 . S
C291 C289 1.363 . S
C291 C293 1.408 . S
C291 C296 1.342 . S
C292 C293 1.310 . S
C292 C295 1.461 . S
C292 H312 0.932 . S
C293 C291 1.408 . S
C293 C292 1.310 . S
C293 H313 0.930 . S
C294 C295 1.474 . S
C294 C296 1.285 . S
C294 H314 0.929 . S
C295 C292 1.461 . S
C295 C294 1.474 . S
C296 C291 1.342 . S
C296 C294 1.285 . S
C296 H315 0.930 . S
C297 C300 1.424 . S
C297 C302 1.245 . S
C297 C303 1.428 . S
C298 C301 1.260 . S
C298 C302 1.477 . S
C298 H316 0.932 . S
C299 C300 1.384 . S
C299 C301 1.479 . S
C299 H317 0.929 . S
C300 C297 1.424 . S
C300 C299 1.384 . S
C300 H318 0.928 . S
C301 C298 1.260 . S
C301 C299 1.479 . S
C302 C297 1.245 . S
C302 C298 1.477 . S
C302 H319 0.932 . S
C303 U286 2.882 . S
C303 C297 1.428 . S
C303 O306 1.301 . S
C303 O307 1.282 . S
O304 U286 2.441 . S
O304 C290 1.249 . S
O305 U286 2.420 . S
O305 C290 1.202 . S
O306 U286 2.455 . S
O306 C303 1.301 . S
O307 U286 2.449 . S
O307 C303 1.282 . S
H308 C281 0.931 . S
H309 C283 0.929 . S
H310 C284 0.930 . S
H311 C285 0.931 . S
H312 C292 0.932 . S
H313 C293 0.930 . S
H314 C294 0.929 . S
H315 C296 0.930 . S
H316 C298 0.932 . S
H317 C299 0.929 . S
H318 C300 0.928 . S
H319 C302 0.932 . S
C320 C321 1.264 . S
C320 C325 1.479 . S
C320 C330 1.465 . S
C321 C320 1.264 . S
C321 C323 1.339 . S
C321 H348 0.931 . S
C322 C323 1.395 . S
C322 C324 1.320 . S
C323 C321 1.339 . S
C323 C322 1.395 . S
C323 H349 0.929 . S
C324 C322 1.320 . S
C324 C325 1.405 . S
C324 H350 0.930 . S
C325 C320 1.479 . S
C325 C324 1.405 . S
C325 H351 0.931 . S
U326 O327 2.454 . S
U326 O328 2.458 . S
U326 C329 2.984 . S
U326 C330 2.847 . S
U326 C343 2.882 . S
U326 O344 2.441 . S
U326 O345 2.420 . S
U326 O346 2.455 . S
U326 O347 2.449 . S
O327 U326 2.454 . S
O327 C329 1.353 . S
O328 U326 2.458 . S
O328 C329 1.286 . S
C329 U326 2.984 . S
C329 O327 1.353 . S
C329 O328 1.286 . S
C329 C331 1.363 . S
C330 C320 1.465 . S
C330 U326 2.847 . S
C330 O344 1.249 . S
C330 O345 1.202 . S
C331 C329 1.363 . S
C331 C333 1.408 . S
C331 C336 1.342 . S
C332 C333 1.310 . S
C332 C335 1.461 . S
C332 H352 0.932 . S
C333 C331 1.408 . S
C333 C332 1.310 . S
C333 H353 0.930 . S
C334 C335 1.474 . S
C334 C336 1.285 . S
C334 H354 0.929 . S
C335 C332 1.461 . S
C335 C334 1.474 . S
C336 C331 1.342 . S
C336 C334 1.285 . S
C336 H355 0.930 . S
C337 C340 1.424 . S
C337 C342 1.245 . S
C337 C343 1.428 . S
C338 C341 1.260 . S
C338 C342 1.477 . S
C338 H356 0.932 . S
C339 C340 1.384 . S
C339 C341 1.479 . S
C339 H357 0.929 . S
C340 C337 1.424 . S
C340 C339 1.384 . S
C340 H358 0.928 . S
C341 C338 1.260 . S
C341 C339 1.479 . S
C342 C337 1.245 . S
C342 C338 1.477 . S
C342 H359 0.932 . S
C343 U326 2.882 . S
C343 C337 1.428 . S
C343 O346 1.301 . S
C343 O347 1.282 . S
O344 U326 2.441 . S
O344 C330 1.249 . S
O345 U326 2.420 . S
O345 C330 1.202 . S
O346 U326 2.455 . S
O346 C343 1.301 . S
O347 U326 2.449 . S
O347 C343 1.282 . S
H348 C321 0.931 . S
H349 C323 0.929 . S
H350 C324 0.930 . S
H351 C325 0.931 . S
H352 C332 0.932 . S
H353 C333 0.930 . S
H354 C334 0.929 . S
H355 C336 0.930 . S
H356 C338 0.932 . S
H357 C339 0.929 . S
H358 C340 0.928 . S
H359 C342 0.932 . S
C360 C361 1.264 . S
C360 C365 1.479 . S
C360 C370 1.465 . S
C361 C360 1.264 . S
C361 C363 1.339 . S
C361 H388 0.931 . S
C362 C363 1.395 . S
C362 C364 1.320 . S
C363 C361 1.339 . S
C363 C362 1.395 . S
C363 H389 0.929 . S
C364 C362 1.320 . S
C364 C365 1.405 . S
C364 H390 0.930 . S
C365 C360 1.479 . S
C365 C364 1.405 . S
C365 H391 0.931 . S
U366 O367 2.454 . S
U366 O368 2.458 . S
U366 C369 2.984 . S
U366 C370 2.847 . S
U366 C383 2.882 . S
U366 O384 2.441 . S
U366 O385 2.420 . S
U366 O386 2.455 . S
U366 O387 2.449 . S
O367 U366 2.454 . S
O367 C369 1.353 . S
O368 U366 2.458 . S
O368 C369 1.286 . S
C369 U366 2.984 . S
C369 O367 1.353 . S
C369 O368 1.286 . S
C369 C371 1.363 . S
C370 C360 1.465 . S
C370 U366 2.847 . S
C370 O384 1.249 . S
C370 O385 1.202 . S
C371 C369 1.363 . S
C371 C373 1.408 . S
C371 C376 1.342 . S
C372 C373 1.310 . S
C372 C375 1.461 . S
C372 H392 0.932 . S
C373 C371 1.408 . S
C373 C372 1.310 . S
C373 H393 0.930 . S
C374 C375 1.474 . S
C374 C376 1.285 . S
C374 H394 0.929 . S
C375 C372 1.461 . S
C375 C374 1.474 . S
C376 C371 1.342 . S
C376 C374 1.285 . S
C376 H395 0.930 . S
C377 C380 1.424 . S
C377 C382 1.245 . S
C377 C383 1.428 . S
C378 C381 1.260 . S
C378 C382 1.477 . S
C378 H396 0.932 . S
C379 C380 1.384 . S
C379 C381 1.479 . S
C379 H397 0.929 . S
C380 C377 1.424 . S
C380 C379 1.384 . S
C380 H398 0.928 . S
C381 C378 1.260 . S
C381 C379 1.479 . S
C382 C377 1.245 . S
C382 C378 1.477 . S
C382 H399 0.932 . S
C383 U366 2.882 . S
C383 C377 1.428 . S
C383 O386 1.301 . S
C383 O387 1.282 . S
O384 U366 2.441 . S
O384 C370 1.249 . S
O385 U366 2.420 . S
O385 C370 1.202 . S
O386 U366 2.455 . S
O386 C383 1.301 . S
O387 U366 2.449 . S
O387 C383 1.282 . S
H388 C361 0.931 . S
H389 C363 0.929 . S
H390 C364 0.930 . S
H391 C365 0.931 . S
H392 C372 0.932 . S
H393 C373 0.930 . S
H394 C374 0.929 . S
H395 C376 0.930 . S
H396 C378 0.932 . S
H397 C379 0.929 . S
H398 C380 0.928 . S
H399 C382 0.932 . S
C400 C401 1.264 . S
C400 C405 1.479 . S
C400 C410 1.465 . S
C401 C400 1.264 . S
C401 C403 1.339 . S
C401 H428 0.931 . S
C402 C403 1.395 . S
C402 C404 1.320 . S
C403 C401 1.339 . S
C403 C402 1.395 . S
C403 H429 0.929 . S
C404 C402 1.320 . S
C404 C405 1.405 . S
C404 H430 0.930 . S
C405 C400 1.479 . S
C405 C404 1.405 . S
C405 H431 0.931 . S
U406 O407 2.454 . S
U406 O408 2.458 . S
U406 C409 2.984 . S
U406 C410 2.847 1_554 S
U406 C423 2.882 . S
U406 O424 2.441 1_554 S
U406 O425 2.420 1_554 S
U406 O426 2.455 . S
U406 O427 2.449 1_554 S
O407 U406 2.454 . S
O407 C409 1.353 . S
O408 U406 2.458 . S
O408 C409 1.286 . S
C409 U406 2.984 . S
C409 O407 1.353 . S
C409 O408 1.286 . S
C409 C411 1.363 . S
C410 C400 1.465 . S
C410 U406 2.847 1_556 S
C410 O424 1.249 . S
C410 O425 1.202 . S
C411 C409 1.363 . S
C411 C413 1.408 . S
C411 C416 1.342 . S
C412 C413 1.310 . S
C412 C415 1.461 . S
C412 H432 0.932 . S
C413 C411 1.408 . S
C413 C412 1.310 . S
C413 H433 0.930 . S
C414 C415 1.474 . S
C414 C416 1.285 . S
C414 H434 0.929 . S
C415 C412 1.461 . S
C415 C414 1.474 . S
C416 C411 1.342 . S
C416 C414 1.285 . S
C416 H435 0.930 . S
C417 C420 1.424 1_554 S
C417 C422 1.245 . S
C417 C423 1.428 . S
C418 C421 1.260 . S
C418 C422 1.477 . S
C418 H436 0.932 . S
C419 C420 1.384 . S
C419 C421 1.479 1_556 S
C419 H437 0.929 . S
C420 C417 1.424 1_556 S
C420 C419 1.384 . S
C420 H438 0.928 . S
C421 C418 1.260 . S
C421 C419 1.479 1_554 S
C422 C417 1.245 . S
C422 C418 1.477 . S
C422 H439 0.932 . S
C423 U406 2.882 . S
C423 C417 1.428 . S
C423 O426 1.301 . S
C423 O427 1.282 1_554 S
O424 U406 2.441 1_556 S
O424 C410 1.249 . S
O425 U406 2.420 1_556 S
O425 C410 1.202 . S
O426 U406 2.455 . S
O426 C423 1.301 . S
O427 U406 2.449 1_556 S
O427 C423 1.282 1_556 S
H428 C401 0.931 . S
H429 C403 0.929 . S
H430 C404 0.930 . S
H431 C405 0.931 . S
H432 C412 0.932 . S
H433 C413 0.930 . S
H434 C414 0.929 . S
H435 C416 0.930 . S
H436 C418 0.932 . S
H437 C419 0.929 . S
H438 C420 0.928 . S
H439 C422 0.932 . S
C440 C441 1.264 . S
C440 C445 1.479 . S
C440 C450 1.465 . S
C441 C440 1.264 . S
C441 C443 1.339 . S
C441 H468 0.931 . S
C442 C443 1.395 . S
C442 C444 1.320 . S
C443 C441 1.339 . S
C443 C442 1.395 . S
C443 H469 0.929 . S
C444 C442 1.320 . S
C444 C445 1.405 . S
C444 H470 0.930 . S
C445 C440 1.479 . S
C445 C444 1.405 . S
C445 H471 0.931 . S
U446 O447 2.454 . S
U446 O448 2.458 . S
U446 C449 2.984 . S
U446 C450 2.847 . S
U446 C463 2.882 . S
U446 O464 2.441 . S
U446 O465 2.420 . S
U446 O466 2.455 . S
U446 O467 2.449 . S
O447 U446 2.454 . S
O447 C449 1.353 . S
O448 U446 2.458 . S
O448 C449 1.286 . S
C449 U446 2.984 . S
C449 O447 1.353 . S
C449 O448 1.286 . S
C449 C451 1.363 . S
C450 C440 1.465 . S
C450 U446 2.847 . S
C450 O464 1.249 . S
C450 O465 1.202 . S
C451 C449 1.363 . S
C451 C453 1.408 . S
C451 C456 1.342 . S
C452 C453 1.310 . S
C452 C455 1.461 . S
C452 H472 0.932 . S
C453 C451 1.408 . S
C453 C452 1.310 . S
C453 H473 0.930 . S
C454 C455 1.474 . S
C454 C456 1.285 . S
C454 H474 0.929 . S
C455 C452 1.461 . S
C455 C454 1.474 . S
C456 C451 1.342 . S
C456 C454 1.285 . S
C456 H475 0.930 . S
C457 C460 1.424 . S
C457 C462 1.245 . S
C457 C463 1.428 . S
C458 C461 1.260 . S
C458 C462 1.477 . S
C458 H476 0.932 . S
C459 C460 1.384 . S
C459 C461 1.479 . S
C459 H477 0.929 . S
C460 C457 1.424 . S
C460 C459 1.384 . S
C460 H478 0.928 . S
C461 C458 1.260 . S
C461 C459 1.479 . S
C462 C457 1.245 . S
C462 C458 1.477 . S
C462 H479 0.932 . S
C463 U446 2.882 . S
C463 C457 1.428 . S
C463 O466 1.301 . S
C463 O467 1.282 . S
O464 U446 2.441 . S
O464 C450 1.249 . S
O465 U446 2.420 . S
O465 C450 1.202 . S
O466 U446 2.455 . S
O466 C463 1.301 . S
O467 U446 2.449 . S
O467 C463 1.282 . S
H468 C441 0.931 . S
H469 C443 0.929 . S
H470 C444 0.930 . S
H471 C445 0.931 . S
H472 C452 0.932 . S
H473 C453 0.930 . S
H474 C454 0.929 . S
H475 C456 0.930 . S
H476 C458 0.932 . S
H477 C459 0.929 . S
H478 C460 0.928 . S
H479 C462 0.932 . S
C480 C481 1.264 . S
C480 C485 1.479 . S
C480 C490 1.465 . S
C481 C480 1.264 . S
C481 C483 1.339 . S
C481 H508 0.931 . S
C482 C483 1.395 . S
C482 C484 1.320 . S
C483 C481 1.339 . S
C483 C482 1.395 . S
C483 H509 0.929 . S
C484 C482 1.320 . S
C484 C485 1.405 . S
C484 H510 0.930 . S
C485 C480 1.479 . S
C485 C484 1.405 . S
C485 H511 0.931 . S
U486 O487 2.454 . S
U486 O488 2.458 . S
U486 C489 2.984 . S
U486 C490 2.847 . S
U486 C503 2.882 . S
U486 O504 2.441 . S
U486 O505 2.420 . S
U486 O506 2.455 . S
U486 O507 2.449 . S
O487 U486 2.454 . S
O487 C489 1.353 . S
O488 U486 2.458 . S
O488 C489 1.286 . S
C489 U486 2.984 . S
C489 O487 1.353 . S
C489 O488 1.286 . S
C489 C491 1.363 . S
C490 C480 1.465 . S
C490 U486 2.847 . S
C490 O504 1.249 . S
C490 O505 1.202 . S
C491 C489 1.363 . S
C491 C493 1.408 . S
C491 C496 1.342 . S
C492 C493 1.310 . S
C492 C495 1.461 . S
C492 H512 0.932 . S
C493 C491 1.408 . S
C493 C492 1.310 . S
C493 H513 0.930 . S
C494 C495 1.474 . S
C494 C496 1.285 . S
C494 H514 0.929 . S
C495 C492 1.461 . S
C495 C494 1.474 . S
C496 C491 1.342 . S
C496 C494 1.285 . S
C496 H515 0.930 . S
C497 C500 1.424 . S
C497 C502 1.245 . S
C497 C503 1.428 . S
C498 C501 1.260 . S
C498 C502 1.477 . S
C498 H516 0.932 . S
C499 C500 1.384 . S
C499 C501 1.479 . S
C499 H517 0.929 . S
C500 C497 1.424 . S
C500 C499 1.384 . S
C500 H518 0.928 . S
C501 C498 1.260 . S
C501 C499 1.479 . S
C502 C497 1.245 . S
C502 C498 1.477 . S
C502 H519 0.932 . S
C503 U486 2.882 . S
C503 C497 1.428 . S
C503 O506 1.301 . S
C503 O507 1.282 . S
O504 U486 2.441 . S
O504 C490 1.249 . S
O505 U486 2.420 . S
O505 C490 1.202 . S
O506 U486 2.455 . S
O506 C503 1.301 . S
O507 U486 2.449 . S
O507 C503 1.282 . S
H508 C481 0.931 . S
H509 C483 0.929 . S
H510 C484 0.930 . S
H511 C485 0.931 . S
H512 C492 0.932 . S
H513 C493 0.930 . S
H514 C494 0.929 . S
H515 C496 0.930 . S
H516 C498 0.932 . S
H517 C499 0.929 . S
H518 C500 0.928 . S
H519 C502 0.932 . S
C520 C521 1.264 . S
C520 C525 1.479 . S
C520 C530 1.465 . S
C521 C520 1.264 . S
C521 C523 1.339 . S
C521 H548 0.931 . S
C522 C523 1.395 . S
C522 C524 1.320 . S
C523 C521 1.339 . S
C523 C522 1.395 . S
C523 H549 0.929 . S
C524 C522 1.320 . S
C524 C525 1.405 . S
C524 H550 0.930 . S
C525 C520 1.479 . S
C525 C524 1.405 . S
C525 H551 0.931 . S
U526 O527 2.454 . S
U526 O528 2.458 . S
U526 C529 2.984 . S
U526 C530 2.847 . S
U526 C543 2.882 . S
U526 O544 2.441 . S
U526 O545 2.420 . S
U526 O546 2.455 . S
U526 O547 2.449 . S
O527 U526 2.454 . S
O527 C529 1.353 . S
O528 U526 2.458 . S
O528 C529 1.286 . S
C529 U526 2.984 . S
C529 O527 1.353 . S
C529 O528 1.286 . S
C529 C531 1.363 . S
C530 C520 1.465 . S
C530 U526 2.847 . S
C530 O544 1.249 . S
C530 O545 1.202 . S
C531 C529 1.363 . S
C531 C533 1.408 . S
C531 C536 1.342 . S
C532 C533 1.310 . S
C532 C535 1.461 . S
C532 H552 0.932 . S
C533 C531 1.408 . S
C533 C532 1.310 . S
C533 H553 0.930 . S
C534 C535 1.474 . S
C534 C536 1.285 . S
C534 H554 0.929 . S
C535 C532 1.461 . S
C535 C534 1.474 . S
C536 C531 1.342 . S
C536 C534 1.285 . S
C536 H555 0.930 . S
C537 C540 1.424 . S
C537 C542 1.245 . S
C537 C543 1.428 . S
C538 C541 1.260 . S
C538 C542 1.477 . S
C538 H556 0.932 . S
C539 C540 1.384 . S
C539 C541 1.479 . S
C539 H557 0.929 . S
C540 C537 1.424 . S
C540 C539 1.384 . S
C540 H558 0.928 . S
C541 C538 1.260 . S
C541 C539 1.479 . S
C542 C537 1.245 . S
C542 C538 1.477 . S
C542 H559 0.932 . S
C543 U526 2.882 . S
C543 C537 1.428 . S
C543 O546 1.301 . S
C543 O547 1.282 . S
O544 U526 2.441 . S
O544 C530 1.249 . S
O545 U526 2.420 . S
O545 C530 1.202 . S
O546 U526 2.455 . S
O546 C543 1.301 . S
O547 U526 2.449 . S
O547 C543 1.282 . S
H548 C521 0.931 . S
H549 C523 0.929 . S
H550 C524 0.930 . S
H551 C525 0.931 . S
H552 C532 0.932 . S
H553 C533 0.930 . S
H554 C534 0.929 . S
H555 C536 0.930 . S
H556 C538 0.932 . S
H557 C539 0.929 . S
H558 C540 0.928 . S
H559 C542 0.932 . S
C560 C561 1.264 . S
C560 C565 1.479 . S
C560 C570 1.465 . S
C561 C560 1.264 . S
C561 C563 1.339 . S
C561 H588 0.931 . S
C562 C563 1.395 . S
C562 C564 1.320 . S
C563 C561 1.339 . S
C563 C562 1.395 . S
C563 H589 0.929 . S
C564 C562 1.320 . S
C564 C565 1.405 . S
C564 H590 0.930 1_554 S
C565 C560 1.479 . S
C565 C564 1.405 . S
C565 H591 0.931 1_554 S
U566 O567 2.454 1_554 S
U566 O568 2.458 . S
U566 C569 2.984 1_554 S
U566 C570 2.847 . S
U566 C583 2.882 . S
U566 O584 2.441 . S
U566 O585 2.420 . S
U566 O586 2.455 . S
U566 O587 2.449 . S
O567 U566 2.454 1_556 S
O567 C569 1.353 . S
O568 U566 2.458 . S
O568 C569 1.286 1_554 S
C569 U566 2.984 1_556 S
C569 O567 1.353 . S
C569 O568 1.286 1_556 S
C569 C571 1.363 . S
C570 C560 1.465 . S
C570 U566 2.847 . S
C570 O584 1.249 . S
C570 O585 1.202 . S
C571 C569 1.363 . S
C571 C573 1.408 . S
C571 C576 1.342 . S
C572 C573 1.310 . S
C572 C575 1.461 . S
C572 H592 0.932 . S
C573 C571 1.408 . S
C573 C572 1.310 . S
C573 H593 0.930 . S
C574 C575 1.474 . S
C574 C576 1.285 . S
C574 H594 0.929 . S
C575 C572 1.461 . S
C575 C574 1.474 . S
C576 C571 1.342 . S
C576 C574 1.285 . S
C576 H595 0.930 . S
C577 C580 1.424 . S
C577 C582 1.245 . S
C577 C583 1.428 . S
C578 C581 1.260 . S
C578 C582 1.477 . S
C578 H596 0.932 . S
C579 C580 1.384 . S
C579 C581 1.479 . S
C579 H597 0.929 . S
C580 C577 1.424 . S
C580 C579 1.384 . S
C580 H598 0.928 . S
C581 C578 1.260 . S
C581 C579 1.479 . S
C582 C577 1.245 . S
C582 C578 1.477 . S
C582 H599 0.932 . S
C583 U566 2.882 . S
C583 C577 1.428 . S
C583 O586 1.301 . S
C583 O587 1.282 . S
O584 U566 2.441 . S
O584 C570 1.249 . S
O585 U566 2.420 . S
O585 C570 1.202 . S
O586 U566 2.455 . S
O586 C583 1.301 . S
O587 U566 2.449 . S
O587 C583 1.282 . S
H588 C561 0.931 . S
H589 C563 0.929 . S
H590 C564 0.930 1_556 S
H591 C565 0.931 1_556 S
H592 C572 0.932 . S
H593 C573 0.930 . S
H594 C574 0.929 . S
H595 C576 0.930 . S
H596 C578 0.932 . S
H597 C579 0.929 . S
H598 C580 0.928 . S
H599 C582 0.932 . S
C600 C601 1.264 . S
C600 C605 1.479 . S
C600 C610 1.465 . S
C601 C600 1.264 . S
C601 C603 1.339 . S
C601 H628 0.931 . S
C602 C603 1.395 . S
C602 C604 1.320 . S
C603 C601 1.339 . S
C603 C602 1.395 . S
C603 H629 0.929 . S
C604 C602 1.320 . S
C604 C605 1.405 . S
C604 H630 0.930 . S
C605 C600 1.479 . S
C605 C604 1.405 . S
C605 H631 0.931 . S
U606 O607 2.454 . S
U606 O608 2.458 . S
U606 C609 2.984 . S
U606 C610 2.847 . S
U606 C623 2.882 . S
U606 O624 2.441 . S
U606 O625 2.420 . S
U606 O626 2.455 . S
U606 O627 2.449 . S
O607 U606 2.454 . S
O607 C609 1.353 . S
O608 U606 2.458 . S
O608 C609 1.286 . S
C609 U606 2.984 . S
C609 O607 1.353 . S
C609 O608 1.286 . S
C609 C611 1.363 . S
C610 C600 1.465 . S
C610 U606 2.847 . S
C610 O624 1.249 . S
C610 O625 1.202 . S
C611 C609 1.363 . S
C611 C613 1.408 . S
C611 C616 1.342 . S
C612 C613 1.310 . S
C612 C615 1.461 . S
C612 H632 0.932 . S
C613 C611 1.408 . S
C613 C612 1.310 . S
C613 H633 0.930 . S
C614 C615 1.474 . S
C614 C616 1.285 . S
C614 H634 0.929 . S
C615 C612 1.461 . S
C615 C614 1.474 . S
C616 C611 1.342 . S
C616 C614 1.285 . S
C616 H635 0.930 . S
C617 C620 1.424 . S
C617 C622 1.245 . S
C617 C623 1.428 . S
C618 C621 1.260 . S
C618 C622 1.477 . S
C618 H636 0.932 . S
C619 C620 1.384 . S
C619 C621 1.479 . S
C619 H637 0.929 . S
C620 C617 1.424 . S
C620 C619 1.384 . S
C620 H638 0.928 . S
C621 C618 1.260 . S
C621 C619 1.479 . S
C622 C617 1.245 . S
C622 C618 1.477 . S
C622 H639 0.932 . S
C623 U606 2.882 . S
C623 C617 1.428 . S
C623 O626 1.301 . S
C623 O627 1.282 . S
O624 U606 2.441 . S
O624 C610 1.249 . S
O625 U606 2.420 . S
O625 C610 1.202 . S
O626 U606 2.455 . S
O626 C623 1.301 . S
O627 U606 2.449 . S
O627 C623 1.282 . S
H628 C601 0.931 . S
H629 C603 0.929 . S
H630 C604 0.930 . S
H631 C605 0.931 . S
H632 C612 0.932 . S
H633 C613 0.930 . S
H634 C614 0.929 . S
H635 C616 0.930 . S
H636 C618 0.932 . S
H637 C619 0.929 . S
H638 C620 0.928 . S
H639 C622 0.932 . S
H640 C648 0.929 . S
H641 C650 0.930 . S
H642 C652 0.930 . S
H643 C655 0.929 . S
H644 C658 0.930 . S
H645 C660 0.960 . S
H646 C660 0.960 . S
H647 C660 0.960 . S
C648 H640 0.929 . S
C648 C649 1.377 . S
C648 C650 1.384 . S
C649 C648 1.377 . S
C649 C655 1.390 . S
C650 H641 0.930 . S
C650 C648 1.384 . S
C650 C651 1.372 . S
C651 C650 1.372 . S
C651 C652 1.400 . S
C651 C656 1.490 . S
C652 H642 0.930 . S
C652 C651 1.400 . S
C652 C655 1.386 . S
H653 C669 0.930 . S
H654 C670 0.931 . S
C655 H643 0.929 . S
C655 C649 1.390 . S
C655 C652 1.386 . S
C656 C651 1.490 . S
C656 C658 1.395 . S
C656 C659 1.403 . S
H657 C663 0.930 . S
C658 H644 0.930 . S
C658 C656 1.395 . S
C658 C661 1.403 . S
C659 C656 1.403 . S
C659 C660 1.524 . S
C659 C663 1.400 . S
C660 H645 0.960 . S
C660 H646 0.960 . S
C660 H647 0.960 . S
C660 C659 1.524 . S
C661 C658 1.403 . S
C661 C662 1.392 . S
C661 C665 1.495 . S
C662 C661 1.392 . S
C662 C663 1.385 . S
C662 C664 1.478 . S
C663 H657 0.930 . S
C663 C659 1.400 . S
C663 C662 1.385 . S
C664 C662 1.478 . S
C664 C666 1.381 . S
C664 C670 1.383 . S
C665 C661 1.495 . S
C665 H671 0.959 . S
C665 H672 0.961 . S
C665 H673 0.960 . S
C666 C664 1.381 . S
C666 C667 1.394 . S
C666 H674 0.930 . S
C667 C666 1.394 . S
C667 C668 1.383 . S
C667 H675 0.929 . S
C668 C667 1.383 . S
C668 C669 1.377 . S
C669 H653 0.930 . S
C669 C668 1.377 . S
C669 C670 1.379 . S
C670 H654 0.931 . S
C670 C664 1.383 . S
C670 C669 1.379 . S
H671 C665 0.959 . S
H672 C665 0.961 . S
H673 C665 0.960 . S
H674 C666 0.930 . S
H675 C667 0.929 . S
H676 C684 0.929 . S
H677 C686 0.930 . S
H678 C688 0.930 . S
H679 C691 0.929 . S
H680 C694 0.930 . S
H681 C696 0.960 . S
H682 C696 0.960 . S
H683 C696 0.960 . S
C684 H676 0.929 . S
C684 C685 1.377 . S
C684 C686 1.384 . S
C685 C684 1.377 . S
C685 C691 1.390 . S
C686 H677 0.930 . S
C686 C684 1.384 . S
C686 C687 1.372 . S
C687 C686 1.372 . S
C687 C688 1.400 . S
C687 C692 1.490 . S
C688 H678 0.930 . S
C688 C687 1.400 . S
C688 C691 1.386 . S
H689 C705 0.930 . S
H690 C706 0.931 . S
C691 H679 0.929 . S
C691 C685 1.390 . S
C691 C688 1.386 . S
C692 C687 1.490 . S
C692 C694 1.395 . S
C692 C695 1.403 . S
H693 C699 0.930 . S
C694 H680 0.930 . S
C694 C692 1.395 . S
C694 C697 1.403 . S
C695 C692 1.403 . S
C695 C696 1.524 . S
C695 C699 1.400 . S
C696 H681 0.960 . S
C696 H682 0.960 . S
C696 H683 0.960 . S
C696 C695 1.524 . S
C697 C694 1.403 . S
C697 C698 1.392 . S
C697 C701 1.495 . S
C698 C697 1.392 . S
C698 C699 1.385 . S
C698 C700 1.478 . S
C699 H693 0.930 . S
C699 C695 1.400 . S
C699 C698 1.385 . S
C700 C698 1.478 . S
C700 C702 1.381 . S
C700 C706 1.383 . S
C701 C697 1.495 . S
C701 H707 0.959 . S
C701 H708 0.961 . S
C701 H709 0.960 . S
C702 C700 1.381 . S
C702 C703 1.394 . S
C702 H710 0.930 . S
C703 C702 1.394 . S
C703 C704 1.383 . S
C703 H711 0.929 . S
C704 C703 1.383 . S
C704 C705 1.377 . S
C705 H689 0.930 . S
C705 C704 1.377 . S
C705 C706 1.379 . S
C706 H690 0.931 . S
C706 C700 1.383 . S
C706 C705 1.379 . S
H707 C701 0.959 . S
H708 C701 0.961 . S
H709 C701 0.960 . S
H710 C702 0.930 . S
H711 C703 0.929 . S
H712 C720 0.929 . S
H713 C722 0.930 . S
H714 C724 0.930 . S
H715 C727 0.929 . S
H716 C730 0.930 . S
H717 C732 0.960 . S
H718 C732 0.960 . S
H719 C732 0.960 . S
C720 H712 0.929 . S
C720 C721 1.377 . S
C720 C722 1.384 . S
C721 C720 1.377 . S
C721 C727 1.390 . S
C722 H713 0.930 . S
C722 C720 1.384 . S
C722 C723 1.372 . S
C723 C722 1.372 . S
C723 C724 1.400 . S
C723 C728 1.490 . S
C724 H714 0.930 . S
C724 C723 1.400 . S
C724 C727 1.386 . S
H725 C741 0.930 . S
H726 C742 0.931 . S
C727 H715 0.929 . S
C727 C721 1.390 . S
C727 C724 1.386 . S
C728 C723 1.490 . S
C728 C730 1.395 . S
C728 C731 1.403 . S
H729 C735 0.930 . S
C730 H716 0.930 . S
C730 C728 1.395 . S
C730 C733 1.403 . S
C731 C728 1.403 . S
C731 C732 1.524 . S
C731 C735 1.400 . S
C732 H717 0.960 . S
C732 H718 0.960 . S
C732 H719 0.960 . S
C732 C731 1.524 . S
C733 C730 1.403 . S
C733 C734 1.392 . S
C733 C737 1.495 . S
C734 C733 1.392 . S
C734 C735 1.385 . S
C734 C736 1.478 . S
C735 H729 0.930 . S
C735 C731 1.400 . S
C735 C734 1.385 . S
C736 C734 1.478 . S
C736 C738 1.381 . S
C736 C742 1.383 . S
C737 C733 1.495 . S
C737 H743 0.959 . S
C737 H744 0.961 . S
C737 H745 0.960 . S
C738 C736 1.381 . S
C738 C739 1.394 . S
C738 H746 0.930 . S
C739 C738 1.394 . S
C739 C740 1.383 . S
C739 H747 0.929 . S
C740 C739 1.383 . S
C740 C741 1.377 . S
C741 H725 0.930 . S
C741 C740 1.377 . S
C741 C742 1.379 . S
C742 H726 0.931 . S
C742 C736 1.383 . S
C742 C741 1.379 . S
H743 C737 0.959 . S
H744 C737 0.961 . S
H745 C737 0.960 . S
H746 C738 0.930 . S
H747 C739 0.929 . S
H748 C756 0.929 . S
H749 C758 0.930 . S
H750 C760 0.930 . S
H751 C763 0.929 . S
H752 C766 0.930 . S
H753 C768 0.960 . S
H754 C768 0.960 . S
H755 C768 0.960 . S
C756 H748 0.929 . S
C756 C757 1.377 . S
C756 C758 1.384 . S
C757 C756 1.377 . S
C757 C763 1.390 . S
C758 H749 0.930 . S
C758 C756 1.384 . S
C758 C759 1.372 . S
C759 C758 1.372 . S
C759 C760 1.400 . S
C759 C764 1.490 . S
C760 H750 0.930 . S
C760 C759 1.400 . S
C760 C763 1.386 . S
H761 C777 0.930 . S
H762 C778 0.931 . S
C763 H751 0.929 . S
C763 C757 1.390 . S
C763 C760 1.386 . S
C764 C759 1.490 . S
C764 C766 1.395 . S
C764 C767 1.403 . S
H765 C771 0.930 . S
C766 H752 0.930 . S
C766 C764 1.395 . S
C766 C769 1.403 . S
C767 C764 1.403 . S
C767 C768 1.524 . S
C767 C771 1.400 . S
C768 H753 0.960 . S
C768 H754 0.960 . S
C768 H755 0.960 . S
C768 C767 1.524 . S
C769 C766 1.403 . S
C769 C770 1.392 . S
C769 C773 1.495 . S
C770 C769 1.392 . S
C770 C771 1.385 . S
C770 C772 1.478 . S
C771 H765 0.930 . S
C771 C767 1.400 . S
C771 C770 1.385 . S
C772 C770 1.478 . S
C772 C774 1.381 . S
C772 C778 1.383 . S
C773 C769 1.495 . S
C773 H779 0.959 . S
C773 H780 0.961 . S
C773 H781 0.960 . S
C774 C772 1.381 . S
C774 C775 1.394 . S
C774 H782 0.930 . S
C775 C774 1.394 . S
C775 C776 1.383 . S
C775 H783 0.929 . S
C776 C775 1.383 . S
C776 C777 1.377 . S
C777 H761 0.930 . S
C777 C776 1.377 . S
C777 C778 1.379 . S
C778 H762 0.931 . S
C778 C772 1.383 . S
C778 C777 1.379 . S
H779 C773 0.959 . S
H780 C773 0.961 . S
H781 C773 0.960 . S
H782 C774 0.930 . S
H783 C775 0.929 . S
H784 C792 0.929 . S
H785 C794 0.930 . S
H786 C796 0.930 . S
H787 C799 0.929 . S
H788 C802 0.930 . S
H789 C804 0.960 . S
H790 C804 0.960 . S
H791 C804 0.960 . S
C792 H784 0.929 . S
C792 C793 1.377 . S
C792 C794 1.384 . S
C793 C792 1.377 . S
C793 C799 1.390 . S
C794 H785 0.930 . S
C794 C792 1.384 . S
C794 C795 1.372 . S
C795 C794 1.372 . S
C795 C796 1.400 . S
C795 C800 1.490 . S
C796 H786 0.930 . S
C796 C795 1.400 . S
C796 C799 1.386 . S
H797 C813 0.930 . S
H798 C814 0.931 . S
C799 H787 0.929 . S
C799 C793 1.390 . S
C799 C796 1.386 . S
C800 C795 1.490 . S
C800 C802 1.395 . S
C800 C803 1.403 . S
H801 C807 0.930 . S
C802 H788 0.930 . S
C802 C800 1.395 . S
C802 C805 1.403 . S
C803 C800 1.403 . S
C803 C804 1.524 . S
C803 C807 1.400 . S
C804 H789 0.960 . S
C804 H790 0.960 . S
C804 H791 0.960 . S
C804 C803 1.524 . S
C805 C802 1.403 . S
C805 C806 1.392 . S
C805 C809 1.495 . S
C806 C805 1.392 . S
C806 C807 1.385 . S
C806 C808 1.478 . S
C807 H801 0.930 . S
C807 C803 1.400 . S
C807 C806 1.385 . S
C808 C806 1.478 . S
C808 C810 1.381 . S
C808 C814 1.383 . S
C809 C805 1.495 . S
C809 H815 0.959 . S
C809 H816 0.961 . S
C809 H817 0.960 . S
C810 C808 1.381 . S
C810 C811 1.394 . S
C810 H818 0.930 . S
C811 C810 1.394 . S
C811 C812 1.383 . S
C811 H819 0.929 . S
C812 C811 1.383 . S
C812 C813 1.377 . S
C813 H797 0.930 . S
C813 C812 1.377 . S
C813 C814 1.379 . S
C814 H798 0.931 . S
C814 C808 1.383 . S
C814 C813 1.379 . S
H815 C809 0.959 . S
H816 C809 0.961 . S
H817 C809 0.960 . S
H818 C810 0.930 . S
H819 C811 0.929 . S
H820 C828 0.929 . S
H821 C830 0.930 . S
H822 C832 0.930 . S
H823 C835 0.929 . S
H824 C838 0.930 . S
H825 C840 0.960 . S
H826 C840 0.960 . S
H827 C840 0.960 . S
C828 H820 0.929 . S
C828 C829 1.377 . S
C828 C830 1.384 . S
C829 C828 1.377 . S
C829 C835 1.390 . S
C830 H821 0.930 . S
C830 C828 1.384 . S
C830 C831 1.372 . S
C831 C830 1.372 . S
C831 C832 1.400 . S
C831 C836 1.490 . S
C832 H822 0.930 . S
C832 C831 1.400 . S
C832 C835 1.386 . S
H833 C849 0.930 . S
H834 C850 0.931 . S
C835 H823 0.929 . S
C835 C829 1.390 . S
C835 C832 1.386 . S
C836 C831 1.490 . S
C836 C838 1.395 . S
C836 C839 1.403 . S
H837 C843 0.930 . S
C838 H824 0.930 . S
C838 C836 1.395 . S
C838 C841 1.403 . S
C839 C836 1.403 . S
C839 C840 1.524 . S
C839 C843 1.400 . S
C840 H825 0.960 . S
C840 H826 0.960 . S
C840 H827 0.960 . S
C840 C839 1.524 . S
C841 C838 1.403 . S
C841 C842 1.392 . S
C841 C845 1.495 . S
C842 C841 1.392 . S
C842 C843 1.385 . S
C842 C844 1.478 . S
C843 H837 0.930 . S
C843 C839 1.400 . S
C843 C842 1.385 . S
C844 C842 1.478 . S
C844 C846 1.381 . S
C844 C850 1.383 . S
C845 C841 1.495 . S
C845 H851 0.959 . S
C845 H852 0.961 . S
C845 H853 0.960 . S
C846 C844 1.381 . S
C846 C847 1.394 . S
C846 H854 0.930 . S
C847 C846 1.394 . S
C847 C848 1.383 . S
C847 H855 0.929 . S
C848 C847 1.383 . S
C848 C849 1.377 . S
C849 H833 0.930 . S
C849 C848 1.377 . S
C849 C850 1.379 . S
C850 H834 0.931 . S
C850 C844 1.383 . S
C850 C849 1.379 . S
H851 C845 0.959 . S
H852 C845 0.961 . S
H853 C845 0.960 . S
H854 C846 0.930 . S
H855 C847 0.929 . S
H856 C864 0.929 . S
H857 C866 0.930 . S
H858 C868 0.930 . S
H859 C871 0.929 . S
H860 C874 0.930 . S
H861 C876 0.960 . S
H862 C876 0.960 . S
H863 C876 0.960 . S
C864 H856 0.929 . S
C864 C865 1.377 . S
C864 C866 1.384 . S
C865 C864 1.377 . S
C865 C871 1.390 . S
C866 H857 0.930 . S
C866 C864 1.384 . S
C866 C867 1.372 . S
C867 C866 1.372 . S
C867 C868 1.400 . S
C867 C872 1.490 . S
C868 H858 0.930 . S
C868 C867 1.400 . S
C868 C871 1.386 . S
H869 C885 0.930 . S
H870 C886 0.931 . S
C871 H859 0.929 . S
C871 C865 1.390 . S
C871 C868 1.386 . S
C872 C867 1.490 . S
C872 C874 1.395 . S
C872 C875 1.403 . S
H873 C879 0.930 . S
C874 H860 0.930 . S
C874 C872 1.395 . S
C874 C877 1.403 . S
C875 C872 1.403 . S
C875 C876 1.524 . S
C875 C879 1.400 . S
C876 H861 0.960 . S
C876 H862 0.960 . S
C876 H863 0.960 . S
C876 C875 1.524 . S
C877 C874 1.403 . S
C877 C878 1.392 . S
C877 C881 1.495 . S
C878 C877 1.392 . S
C878 C879 1.385 . S
C878 C880 1.478 . S
C879 H873 0.930 . S
C879 C875 1.400 . S
C879 C878 1.385 . S
C880 C878 1.478 . S
C880 C882 1.381 . S
C880 C886 1.383 . S
C881 C877 1.495 . S
C881 H887 0.959 . S
C881 H888 0.961 . S
C881 H889 0.960 . S
C882 C880 1.381 . S
C882 C883 1.394 . S
C882 H890 0.930 . S
C883 C882 1.394 . S
C883 C884 1.383 . S
C883 H891 0.929 . S
C884 C883 1.383 . S
C884 C885 1.377 . S
C885 H869 0.930 . S
C885 C884 1.377 . S
C885 C886 1.379 . S
C886 H870 0.931 . S
C886 C880 1.383 . S
C886 C885 1.379 . S
H887 C881 0.959 . S
H888 C881 0.961 . S
H889 C881 0.960 . S
H890 C882 0.930 . S
H891 C883 0.929 . S
H892 C900 0.929 . S
H893 C902 0.930 . S
H894 C904 0.930 . S
H895 C907 0.929 . S
H896 C910 0.930 . S
H897 C912 0.960 . S
H898 C912 0.960 . S
H899 C912 0.960 . S
C900 H892 0.929 . S
C900 C901 1.377 . S
C900 C902 1.384 . S
C901 C900 1.377 . S
C901 C907 1.390 . S
C902 H893 0.930 . S
C902 C900 1.384 . S
C902 C903 1.372 . S
C903 C902 1.372 . S
C903 C904 1.400 . S
C903 C908 1.490 . S
C904 H894 0.930 . S
C904 C903 1.400 . S
C904 C907 1.386 . S
H905 C921 0.930 . S
H906 C922 0.931 . S
C907 H895 0.929 . S
C907 C901 1.390 . S
C907 C904 1.386 . S
C908 C903 1.490 . S
C908 C910 1.395 . S
C908 C911 1.403 . S
H909 C915 0.930 . S
C910 H896 0.930 . S
C910 C908 1.395 . S
C910 C913 1.403 . S
C911 C908 1.403 . S
C911 C912 1.524 . S
C911 C915 1.400 . S
C912 H897 0.960 . S
C912 H898 0.960 . S
C912 H899 0.960 . S
C912 C911 1.524 . S
C913 C910 1.403 . S
C913 C914 1.392 . S
C913 C917 1.495 . S
C914 C913 1.392 . S
C914 C915 1.385 . S
C914 C916 1.478 . S
C915 H909 0.930 . S
C915 C911 1.400 . S
C915 C914 1.385 . S
C916 C914 1.478 . S
C916 C918 1.381 . S
C916 C922 1.383 . S
C917 C913 1.495 . S
C917 H923 0.959 . S
C917 H924 0.961 . S
C917 H925 0.960 . S
C918 C916 1.381 . S
C918 C919 1.394 . S
C918 H926 0.930 . S
C919 C918 1.394 . S
C919 C920 1.383 . S
C919 H927 0.929 . S
C920 C919 1.383 . S
C920 C921 1.377 . S
C921 H905 0.930 . S
C921 C920 1.377 . S
C921 C922 1.379 . S
C922 H906 0.931 . S
C922 C916 1.383 . S
C922 C921 1.379 . S
H923 C917 0.959 . S
H924 C917 0.961 . S
H925 C917 0.960 . S
H926 C918 0.930 . S
H927 C919 0.929 . S
H928 C936 0.929 . S
H929 C938 0.930 . S
H930 C940 0.930 . S
H931 C943 0.929 . S
H932 C946 0.930 . S
H933 C948 0.960 . S
H934 C948 0.960 . S
H935 C948 0.960 . S
C936 H928 0.929 . S
C936 C937 1.377 . S
C936 C938 1.384 . S
C937 C936 1.377 . S
C937 C943 1.390 . S
C938 H929 0.930 . S
C938 C936 1.384 . S
C938 C939 1.372 . S
C939 C938 1.372 . S
C939 C940 1.400 . S
C939 C944 1.490 . S
C940 H930 0.930 . S
C940 C939 1.400 . S
C940 C943 1.386 . S
H941 C957 0.930 . S
H942 C958 0.931 . S
C943 H931 0.929 . S
C943 C937 1.390 . S
C943 C940 1.386 . S
C944 C939 1.490 . S
C944 C946 1.395 . S
C944 C947 1.403 . S
H945 C951 0.930 . S
C946 H932 0.930 . S
C946 C944 1.395 . S
C946 C949 1.403 . S
C947 C944 1.403 . S
C947 C948 1.524 . S
C947 C951 1.400 . S
C948 H933 0.960 . S
C948 H934 0.960 . S
C948 H935 0.960 . S
C948 C947 1.524 . S
C949 C946 1.403 . S
C949 C950 1.392 . S
C949 C953 1.495 . S
C950 C949 1.392 . S
C950 C951 1.385 . S
C950 C952 1.478 . S
C951 H945 0.930 . S
C951 C947 1.400 . S
C951 C950 1.385 . S
C952 C950 1.478 . S
C952 C954 1.381 . S
C952 C958 1.383 . S
C953 C949 1.495 . S
C953 H959 0.959 . S
C953 H960 0.961 . S
C953 H961 0.960 . S
C954 C952 1.381 . S
C954 C955 1.394 . S
C954 H962 0.930 . S
C955 C954 1.394 . S
C955 C956 1.383 . S
C955 H963 0.929 . S
C956 C955 1.383 . S
C956 C957 1.377 . S
C957 H941 0.930 . S
C957 C956 1.377 . S
C957 C958 1.379 . S
C958 H942 0.931 . S
C958 C952 1.383 . S
C958 C957 1.379 . S
H959 C953 0.959 . S
H960 C953 0.961 . S
H961 C953 0.960 . S
H962 C954 0.930 . S
H963 C955 0.929 . S
H964 C972 0.929 . S
H965 C974 0.930 . S
H966 C976 0.930 . S
H967 C979 0.929 . S
H968 C982 0.930 . S
H969 C984 0.960 . S
H970 C984 0.960 . S
H971 C984 0.960 . S
C972 H964 0.929 . S
C972 C973 1.377 . S
C972 C974 1.384 . S
C973 C972 1.377 . S
C973 C979 1.390 . S
C974 H965 0.930 . S
C974 C972 1.384 . S
C974 C975 1.372 . S
C975 C974 1.372 . S
C975 C976 1.400 . S
C975 C980 1.490 . S
C976 H966 0.930 . S
C976 C975 1.400 . S
C976 C979 1.386 . S
H977 C993 0.930 . S
H978 C994 0.931 . S
C979 H967 0.929 . S
C979 C973 1.390 . S
C979 C976 1.386 . S
C980 C975 1.490 . S
C980 C982 1.395 . S
C980 C983 1.403 . S
H981 C987 0.930 . S
C982 H968 0.930 . S
C982 C980 1.395 . S
C982 C985 1.403 . S
C983 C980 1.403 . S
C983 C984 1.524 . S
C983 C987 1.400 . S
C984 H969 0.960 . S
C984 H970 0.960 . S
C984 H971 0.960 . S
C984 C983 1.524 . S
C985 C982 1.403 . S
C985 C986 1.392 . S
C985 C989 1.495 . S
C986 C985 1.392 . S
C986 C987 1.385 . S
C986 C988 1.478 . S
C987 H981 0.930 . S
C987 C983 1.400 . S
C987 C986 1.385 . S
C988 C986 1.478 . S
C988 C990 1.381 . S
C988 C994 1.383 . S
C989 C985 1.495 . S
C989 H995 0.959 . S
C989 H996 0.961 . S
C989 H997 0.960 . S
C990 C988 1.381 . S
C990 C991 1.394 . S
C990 H998 0.930 . S
C991 C990 1.394 . S
C991 C992 1.383 . S
C991 H999 0.929 . S
C992 C991 1.383 . S
C992 C993 1.377 . S
C993 H977 0.930 . S
C993 C992 1.377 . S
C993 C994 1.379 . S
C994 H978 0.931 . S
C994 C988 1.383 . S
C994 C993 1.379 . S
H995 C989 0.959 . S
H996 C989 0.961 . S
H997 C989 0.960 . S
H998 C990 0.930 . S
H999 C991 0.929 . S
H1000 C1008 0.929 . S
H1001 C1010 0.930 . S
H1002 C1012 0.930 . S
H1003 C1015 0.929 . S
H1004 C1018 0.930 . S
H1005 C1020 0.960 . S
H1006 C1020 0.960 . S
H1007 C1020 0.960 . S
C1008 H1000 0.929 . S
C1008 C1009 1.377 . S
C1008 C1010 1.384 . S
C1009 C1008 1.377 . S
C1009 C1015 1.390 . S
C1010 H1001 0.930 . S
C1010 C1008 1.384 . S
C1010 C1011 1.372 . S
C1011 C1010 1.372 . S
C1011 C1012 1.400 . S
C1011 C1016 1.490 . S
C1012 H1002 0.930 . S
C1012 C1011 1.400 . S
C1012 C1015 1.386 . S
H1013 C1029 0.930 . S
H1014 C1030 0.931 . S
C1015 H1003 0.929 . S
C1015 C1009 1.390 . S
C1015 C1012 1.386 . S
C1016 C1011 1.490 . S
C1016 C1018 1.395 . S
C1016 C1019 1.403 . S
H1017 C1023 0.930 . S
C1018 H1004 0.930 . S
C1018 C1016 1.395 . S
C1018 C1021 1.403 . S
C1019 C1016 1.403 . S
C1019 C1020 1.524 . S
C1019 C1023 1.400 . S
C1020 H1005 0.960 . S
C1020 H1006 0.960 . S
C1020 H1007 0.960 . S
C1020 C1019 1.524 . S
C1021 C1018 1.403 . S
C1021 C1022 1.392 . S
C1021 C1025 1.495 . S
C1022 C1021 1.392 . S
C1022 C1023 1.385 . S
C1022 C1024 1.478 . S
C1023 H1017 0.930 . S
C1023 C1019 1.400 . S
C1023 C1022 1.385 . S
C1024 C1022 1.478 . S
C1024 C1026 1.381 . S
C1024 C1030 1.383 . S
C1025 C1021 1.495 . S
C1025 H1031 0.959 . S
C1025 H1032 0.961 . S
C1025 H1033 0.960 . S
C1026 C1024 1.381 . S
C1026 C1027 1.394 . S
C1026 H1034 0.930 . S
C1027 C1026 1.394 . S
C1027 C1028 1.383 . S
C1027 H1035 0.929 . S
C1028 C1027 1.383 . S
C1028 C1029 1.377 . S
C1029 H1013 0.930 . S
C1029 C1028 1.377 . S
C1029 C1030 1.379 . S
C1030 H1014 0.931 . S
C1030 C1024 1.383 . S
C1030 C1029 1.379 . S
H1031 C1025 0.959 . S
H1032 C1025 0.961 . S
H1033 C1025 0.960 . S
H1034 C1026 0.930 . S
H1035 C1027 0.929 . S
H1036 C1044 0.929 . S
H1037 C1046 0.930 . S
H1038 C1048 0.930 . S
H1039 C1051 0.929 . S
H1040 C1054 0.930 . S
H1041 C1056 0.960 . S
H1042 C1056 0.960 . S
H1043 C1056 0.960 . S
C1044 H1036 0.929 . S
C1044 C1045 1.377 . S
C1044 C1046 1.384 . S
C1045 C1044 1.377 . S
C1045 C1051 1.390 . S
C1046 H1037 0.930 . S
C1046 C1044 1.384 . S
C1046 C1047 1.372 . S
C1047 C1046 1.372 . S
C1047 C1048 1.400 . S
C1047 C1052 1.490 . S
C1048 H1038 0.930 . S
C1048 C1047 1.400 . S
C1048 C1051 1.386 . S
H1049 C1065 0.930 . S
H1050 C1066 0.931 . S
C1051 H1039 0.929 . S
C1051 C1045 1.390 . S
C1051 C1048 1.386 . S
C1052 C1047 1.490 . S
C1052 C1054 1.395 . S
C1052 C1055 1.403 . S
H1053 C1059 0.930 . S
C1054 H1040 0.930 . S
C1054 C1052 1.395 . S
C1054 C1057 1.403 . S
C1055 C1052 1.403 . S
C1055 C1056 1.524 . S
C1055 C1059 1.400 . S
C1056 H1041 0.960 . S
C1056 H1042 0.960 . S
C1056 H1043 0.960 . S
C1056 C1055 1.524 . S
C1057 C1054 1.403 . S
C1057 C1058 1.392 . S
C1057 C1061 1.495 . S
C1058 C1057 1.392 . S
C1058 C1059 1.385 . S
C1058 C1060 1.478 . S
C1059 H1053 0.930 . S
C1059 C1055 1.400 . S
C1059 C1058 1.385 . S
C1060 C1058 1.478 . S
C1060 C1062 1.381 . S
C1060 C1066 1.383 . S
C1061 C1057 1.495 . S
C1061 H1067 0.959 . S
C1061 H1068 0.961 . S
C1061 H1069 0.960 . S
C1062 C1060 1.381 . S
C1062 C1063 1.394 . S
C1062 H1070 0.930 . S
C1063 C1062 1.394 . S
C1063 C1064 1.383 . S
C1063 H1071 0.929 . S
C1064 C1063 1.383 . S
C1064 C1065 1.377 . S
C1065 H1049 0.930 . S
C1065 C1064 1.377 . S
C1065 C1066 1.379 . S
C1066 H1050 0.931 . S
C1066 C1060 1.383 . S
C1066 C1065 1.379 . S
H1067 C1061 0.959 . S
H1068 C1061 0.961 . S
H1069 C1061 0.960 . S
H1070 C1062 0.930 . S
H1071 C1063 0.929 . S
H1072 C1080 0.929 . S
H1073 C1082 0.930 . S
H1074 C1084 0.930 . S
H1075 C1087 0.929 . S
H1076 C1090 0.930 . S
H1077 C1092 0.960 . S
H1078 C1092 0.960 . S
H1079 C1092 0.960 . S
C1080 H1072 0.929 . S
C1080 C1081 1.377 . S
C1080 C1082 1.384 . S
C1081 C1080 1.377 . S
C1081 C1087 1.390 . S
C1082 H1073 0.930 . S
C1082 C1080 1.384 . S
C1082 C1083 1.372 . S
C1083 C1082 1.372 . S
C1083 C1084 1.400 . S
C1083 C1088 1.490 . S
C1084 H1074 0.930 . S
C1084 C1083 1.400 . S
C1084 C1087 1.386 . S
H1085 C1101 0.930 . S
H1086 C1102 0.931 . S
C1087 H1075 0.929 . S
C1087 C1081 1.390 . S
C1087 C1084 1.386 . S
C1088 C1083 1.490 . S
C1088 C1090 1.395 . S
C1088 C1091 1.403 . S
H1089 C1095 0.930 . S
C1090 H1076 0.930 . S
C1090 C1088 1.395 . S
C1090 C1093 1.403 . S
C1091 C1088 1.403 . S
C1091 C1092 1.524 . S
C1091 C1095 1.400 . S
C1092 H1077 0.960 . S
C1092 H1078 0.960 . S
C1092 H1079 0.960 . S
C1092 C1091 1.524 . S
C1093 C1090 1.403 . S
C1093 C1094 1.392 . S
C1093 C1097 1.495 . S
C1094 C1093 1.392 . S
C1094 C1095 1.385 . S
C1094 C1096 1.478 . S
C1095 H1089 0.930 . S
C1095 C1091 1.400 . S
C1095 C1094 1.385 . S
C1096 C1094 1.478 . S
C1096 C1098 1.381 . S
C1096 C1102 1.383 . S
C1097 C1093 1.495 . S
C1097 H1103 0.959 . S
C1097 H1104 0.961 . S
C1097 H1105 0.960 . S
C1098 C1096 1.381 . S
C1098 C1099 1.394 . S
C1098 H1106 0.930 . S
C1099 C1098 1.394 . S
C1099 C1100 1.383 . S
C1099 H1107 0.929 . S
C1100 C1099 1.383 . S
C1100 C1101 1.377 . S
C1101 H1085 0.930 . S
C1101 C1100 1.377 . S
C1101 C1102 1.379 . S
C1102 H1086 0.931 . S
C1102 C1096 1.383 . S
C1102 C1101 1.379 . S
H1103 C1097 0.959 . S
H1104 C1097 0.961 . S
H1105 C1097 0.960 . S
H1106 C1098 0.930 . S
H1107 C1099 0.929 . S
H1108 C1116 0.929 . S
H1109 C1118 0.930 . S
H1110 C1120 0.930 . S
H1111 C1123 0.929 . S
H1112 C1126 0.930 . S
H1113 C1128 0.960 . S
H1114 C1128 0.960 . S
H1115 C1128 0.960 . S
C1116 H1108 0.929 . S
C1116 C1117 1.377 . S
C1116 C1118 1.384 . S
C1117 C1116 1.377 . S
C1117 C1123 1.390 . S
C1118 H1109 0.930 . S
C1118 C1116 1.384 . S
C1118 C1119 1.372 . S
C1119 C1118 1.372 . S
C1119 C1120 1.400 . S
C1119 C1124 1.490 . S
C1120 H1110 0.930 . S
C1120 C1119 1.400 . S
C1120 C1123 1.386 . S
H1121 C1137 0.930 . S
H1122 C1138 0.931 . S
C1123 H1111 0.929 . S
C1123 C1117 1.390 . S
C1123 C1120 1.386 . S
C1124 C1119 1.490 . S
C1124 C1126 1.395 . S
C1124 C1127 1.403 . S
H1125 C1131 0.930 . S
C1126 H1112 0.930 . S
C1126 C1124 1.395 . S
C1126 C1129 1.403 . S
C1127 C1124 1.403 . S
C1127 C1128 1.524 . S
C1127 C1131 1.400 . S
C1128 H1113 0.960 . S
C1128 H1114 0.960 . S
C1128 H1115 0.960 . S
C1128 C1127 1.524 . S
C1129 C1126 1.403 . S
C1129 C1130 1.392 . S
C1129 C1133 1.495 . S
C1130 C1129 1.392 . S
C1130 C1131 1.385 . S
C1130 C1132 1.478 . S
C1131 H1125 0.930 . S
C1131 C1127 1.400 . S
C1131 C1130 1.385 . S
C1132 C1130 1.478 . S
C1132 C1134 1.381 . S
C1132 C1138 1.383 . S
C1133 C1129 1.495 . S
C1133 H1139 0.959 . S
C1133 H1140 0.961 . S
C1133 H1141 0.960 . S
C1134 C1132 1.381 . S
C1134 C1135 1.394 . S
C1134 H1142 0.930 . S
C1135 C1134 1.394 . S
C1135 C1136 1.383 . S
C1135 H1143 0.929 . S
C1136 C1135 1.383 . S
C1136 C1137 1.377 . S
C1137 H1121 0.930 . S
C1137 C1136 1.377 . S
C1137 C1138 1.379 . S
C1138 H1122 0.931 . S
C1138 C1132 1.383 . S
C1138 C1137 1.379 . S
H1139 C1133 0.959 . S
H1140 C1133 0.961 . S
H1141 C1133 0.960 . S
H1142 C1134 0.930 . S
H1143 C1135 0.929 . S
H1144 C1152 0.929 . S
H1145 C1154 0.930 . S
H1146 C1156 0.930 . S
H1147 C1159 0.929 . S
H1148 C1162 0.930 . S
H1149 C1164 0.960 . S
H1150 C1164 0.960 . S
H1151 C1164 0.960 . S
C1152 H1144 0.929 . S
C1152 C1153 1.377 . S
C1152 C1154 1.384 . S
C1153 C1152 1.377 . S
C1153 C1159 1.390 . S
C1154 H1145 0.930 . S
C1154 C1152 1.384 . S
C1154 C1155 1.372 . S
C1155 C1154 1.372 . S
C1155 C1156 1.400 . S
C1155 C1160 1.490 . S
C1156 H1146 0.930 . S
C1156 C1155 1.400 . S
C1156 C1159 1.386 . S
H1157 C1173 0.930 . S
H1158 C1174 0.931 . S
C1159 H1147 0.929 . S
C1159 C1153 1.390 . S
C1159 C1156 1.386 . S
C1160 C1155 1.490 . S
C1160 C1162 1.395 . S
C1160 C1163 1.403 . S
H1161 C1167 0.930 . S
C1162 H1148 0.930 . S
C1162 C1160 1.395 . S
C1162 C1165 1.403 . S
C1163 C1160 1.403 . S
C1163 C1164 1.524 . S
C1163 C1167 1.400 . S
C1164 H1149 0.960 . S
C1164 H1150 0.960 . S
C1164 H1151 0.960 . S
C1164 C1163 1.524 . S
C1165 C1162 1.403 . S
C1165 C1166 1.392 . S
C1165 C1169 1.495 . S
C1166 C1165 1.392 . S
C1166 C1167 1.385 . S
C1166 C1168 1.478 . S
C1167 H1161 0.930 . S
C1167 C1163 1.400 . S
C1167 C1166 1.385 . S
C1168 C1166 1.478 . S
C1168 C1170 1.381 . S
C1168 C1174 1.383 . S
C1169 C1165 1.495 . S
C1169 H1175 0.959 . S
C1169 H1176 0.961 . S
C1169 H1177 0.960 . S
C1170 C1168 1.381 . S
C1170 C1171 1.394 . S
C1170 H1178 0.930 . S
C1171 C1170 1.394 . S
C1171 C1172 1.383 . S
C1171 H1179 0.929 . S
C1172 C1171 1.383 . S
C1172 C1173 1.377 . S
C1173 H1157 0.930 . S
C1173 C1172 1.377 . S
C1173 C1174 1.379 . S
C1174 H1158 0.931 . S
C1174 C1168 1.383 . S
C1174 C1173 1.379 . S
H1175 C1169 0.959 . S
H1176 C1169 0.961 . S
H1177 C1169 0.960 . S
H1178 C1170 0.930 . S
H1179 C1171 0.929 . S
H1180 C1188 0.929 . S
H1181 C1190 0.930 . S
H1182 C1192 0.930 . S
H1183 C1195 0.929 . S
H1184 C1198 0.930 . S
H1185 C1200 0.960 . S
H1186 C1200 0.960 . S
H1187 C1200 0.960 . S
C1188 H1180 0.929 . S
C1188 C1189 1.377 . S
C1188 C1190 1.384 . S
C1189 C1188 1.377 . S
C1189 C1195 1.390 . S
C1190 H1181 0.930 . S
C1190 C1188 1.384 . S
C1190 C1191 1.372 . S
C1191 C1190 1.372 . S
C1191 C1192 1.400 . S
C1191 C1196 1.490 . S
C1192 H1182 0.930 . S
C1192 C1191 1.400 . S
C1192 C1195 1.386 . S
H1193 C1209 0.930 . S
H1194 C1210 0.931 . S
C1195 H1183 0.929 . S
C1195 C1189 1.390 . S
C1195 C1192 1.386 . S
C1196 C1191 1.490 . S
C1196 C1198 1.395 . S
C1196 C1199 1.403 . S
H1197 C1203 0.930 . S
C1198 H1184 0.930 . S
C1198 C1196 1.395 . S
C1198 C1201 1.403 . S
C1199 C1196 1.403 . S
C1199 C1200 1.524 . S
C1199 C1203 1.400 . S
C1200 H1185 0.960 . S
C1200 H1186 0.960 . S
C1200 H1187 0.960 . S
C1200 C1199 1.524 . S
C1201 C1198 1.403 . S
C1201 C1202 1.392 . S
C1201 C1205 1.495 . S
C1202 C1201 1.392 . S
C1202 C1203 1.385 . S
C1202 C1204 1.478 . S
C1203 H1197 0.930 . S
C1203 C1199 1.400 . S
C1203 C1202 1.385 . S
C1204 C1202 1.478 . S
C1204 C1206 1.381 . S
C1204 C1210 1.383 . S
C1205 C1201 1.495 . S
C1205 H1211 0.959 . S
C1205 H1212 0.961 . S
C1205 H1213 0.960 . S
C1206 C1204 1.381 . S
C1206 C1207 1.394 . S
C1206 H1214 0.930 . S
C1207 C1206 1.394 . S
C1207 C1208 1.383 . S
C1207 H1215 0.929 . S
C1208 C1207 1.383 . S
C1208 C1209 1.377 . S
C1209 H1193 0.930 . S
C1209 C1208 1.377 . S
C1209 C1210 1.379 . S
C1210 H1194 0.931 . S
C1210 C1204 1.383 . S
C1210 C1209 1.379 . S
H1211 C1205 0.959 . S
H1212 C1205 0.961 . S
H1213 C1205 0.960 . S
H1214 C1206 0.930 . S
H1215 C1207 0.929 . S
H1216 C1224 0.929 . S
H1217 C1226 0.930 . S
H1218 C1228 0.930 . S
H1219 C1231 0.929 . S
H1220 C1234 0.930 1_556 S
H1221 C1236 0.960 . S
H1222 C1236 0.960 . S
H1223 C1236 0.960 . S
C1224 H1216 0.929 . S
C1224 C1225 1.377 1_556 S
C1224 C1226 1.384 . S
C1225 C1224 1.377 1_554 S
C1225 C1231 1.390 . S
C1226 H1217 0.930 . S
C1226 C1224 1.384 . S
C1226 C1227 1.372 1_556 S
C1227 C1226 1.372 1_554 S
C1227 C1228 1.400 . S
C1227 C1232 1.490 . S
C1228 H1218 0.930 . S
C1228 C1227 1.400 . S
C1228 C1231 1.386 . S
H1229 C1245 0.930 . S
H1230 C1246 0.931 . S
C1231 H1219 0.929 . S
C1231 C1225 1.390 . S
C1231 C1228 1.386 . S
C1232 C1227 1.490 . S
C1232 C1234 1.395 . S
C1232 C1235 1.403 1_545 S
H1233 C1239 0.930 . S
C1234 H1220 0.930 1_554 S
C1234 C1232 1.395 . S
C1234 C1237 1.403 1_655 S
C1235 C1232 1.403 1_565 S
C1235 C1236 1.524 . S
C1235 C1239 1.400 1_655 S
C1236 H1221 0.960 . S
C1236 H1222 0.960 . S
C1236 H1223 0.960 . S
C1236 C1235 1.524 . S
C1237 C1234 1.403 1_455 S
C1237 C1238 1.392 . S
C1237 C1241 1.495 1_554 S
C1238 C1237 1.392 . S
C1238 C1239 1.385 1_545 S
C1238 C1240 1.478 . S
C1239 H1233 0.930 . S
C1239 C1235 1.400 1_455 S
C1239 C1238 1.385 1_565 S
C1240 C1238 1.478 . S
C1240 C1242 1.381 1_554 S
C1240 C1246 1.383 . S
C1241 C1237 1.495 1_556 S
C1241 H1247 0.959 . S
C1241 H1248 0.961 1_556 S
C1241 H1249 0.960 . S
C1242 C1240 1.381 1_556 S
C1242 C1243 1.394 . S
C1242 H1250 0.930 . S
C1243 C1242 1.394 . S
C1243 C1244 1.383 1_556 S
C1243 H1251 0.929 . S
C1244 C1243 1.383 1_554 S
C1244 C1245 1.377 . S
C1245 H1229 0.930 . S
C1245 C1244 1.377 . S
C1245 C1246 1.379 . S
C1246 H1230 0.931 . S
C1246 C1240 1.383 . S
C1246 C1245 1.379 . S
H1247 C1241 0.959 . S
H1248 C1241 0.961 1_554 S
H1249 C1241 0.960 . S
H1250 C1242 0.930 . S
H1251 C1243 0.929 . S
H1252 C1260 0.929 . S
H1253 C1262 0.930 . S
H1254 C1264 0.930 . S
H1255 C1267 0.929 . S
H1256 C1270 0.930 . S
H1257 C1272 0.960 . S
H1258 C1272 0.960 . S
H1259 C1272 0.960 . S
C1260 H1252 0.929 . S
C1260 C1261 1.377 . S
C1260 C1262 1.384 . S
C1261 C1260 1.377 . S
C1261 C1267 1.390 . S
C1262 H1253 0.930 . S
C1262 C1260 1.384 . S
C1262 C1263 1.372 . S
C1263 C1262 1.372 . S
C1263 C1264 1.400 . S
C1263 C1268 1.490 . S
C1264 H1254 0.930 . S
C1264 C1263 1.400 . S
C1264 C1267 1.386 . S
H1265 C1281 0.930 . S
H1266 C1282 0.931 . S
C1267 H1255 0.929 . S
C1267 C1261 1.390 . S
C1267 C1264 1.386 . S
C1268 C1263 1.490 . S
C1268 C1270 1.395 . S
C1268 C1271 1.403 . S
H1269 C1275 0.930 . S
C1270 H1256 0.930 . S
C1270 C1268 1.395 . S
C1270 C1273 1.403 . S
C1271 C1268 1.403 . S
C1271 C1272 1.524 . S
C1271 C1275 1.400 . S
C1272 H1257 0.960 . S
C1272 H1258 0.960 . S
C1272 H1259 0.960 . S
C1272 C1271 1.524 . S
C1273 C1270 1.403 . S
C1273 C1274 1.392 . S
C1273 C1277 1.495 . S
C1274 C1273 1.392 . S
C1274 C1275 1.385 . S
C1274 C1276 1.478 . S
C1275 H1269 0.930 . S
C1275 C1271 1.400 . S
C1275 C1274 1.385 . S
C1276 C1274 1.478 . S
C1276 C1278 1.381 . S
C1276 C1282 1.383 . S
C1277 C1273 1.495 . S
C1277 H1283 0.959 . S
C1277 H1284 0.961 . S
C1277 H1285 0.960 . S
C1278 C1276 1.381 . S
C1278 C1279 1.394 . S
C1278 H1286 0.930 . S
C1279 C1278 1.394 . S
C1279 C1280 1.383 . S
C1279 H1287 0.929 . S
C1280 C1279 1.383 . S
C1280 C1281 1.377 . S
C1281 H1265 0.930 . S
C1281 C1280 1.377 . S
C1281 C1282 1.379 . S
C1282 H1266 0.931 . S
C1282 C1276 1.383 . S
C1282 C1281 1.379 . S
H1283 C1277 0.959 . S
H1284 C1277 0.961 . S
H1285 C1277 0.960 . S
H1286 C1278 0.930 . S
H1287 C1279 0.929 . S
H1288 C1296 0.929 . S
H1289 C1298 0.930 . S
H1290 C1300 0.930 . S
H1291 C1303 0.929 . S
H1292 C1306 0.930 1_565 S
H1293 C1308 0.960 . S
H1294 C1308 0.960 . S
H1295 C1308 0.960 . S
C1296 H1288 0.929 . S
C1296 C1297 1.377 1_565 S
C1296 C1298 1.384 . S
C1297 C1296 1.377 1_545 S
C1297 C1303 1.390 . S
C1298 H1289 0.930 . S
C1298 C1296 1.384 . S
C1298 C1299 1.372 1_565 S
C1299 C1298 1.372 1_545 S
C1299 C1300 1.400 . S
C1299 C1304 1.490 . S
C1300 H1290 0.930 . S
C1300 C1299 1.400 . S
C1300 C1303 1.386 . S
H1301 C1317 0.930 . S
H1302 C1318 0.931 . S
C1303 H1291 0.929 . S
C1303 C1297 1.390 . S
C1303 C1300 1.386 . S
C1304 C1299 1.490 . S
C1304 C1306 1.395 . S
C1304 C1307 1.403 . S
H1305 C1311 0.930 . S
C1306 H1292 0.930 1_545 S
C1306 C1304 1.395 . S
C1306 C1309 1.412 . S
C1307 C1304 1.403 . S
C1307 C1308 1.524 . S
C1307 C1311 1.400 . S
C1308 H1293 0.960 . S
C1308 H1294 0.960 . S
C1308 H1295 0.960 . S
C1308 C1307 1.524 . S
C1309 C1306 1.412 . S
C1309 C1310 1.418 . S
C1309 C1313 1.467 1_545 S
C1310 C1309 1.418 . S
C1310 C1311 1.385 . S
C1310 C1312 1.478 . S
C1311 H1305 0.930 . S
C1311 C1307 1.400 . S
C1311 C1310 1.385 . S
C1312 C1310 1.478 . S
C1312 C1314 1.381 1_545 S
C1312 C1318 1.383 . S
C1313 C1309 1.467 1_565 S
C1313 H1319 0.959 . S
C1313 H1320 0.961 1_565 S
C1313 H1321 0.960 . S
C1314 C1312 1.381 1_565 S
C1314 C1315 1.394 . S
C1314 H1322 0.930 . S
C1315 C1314 1.394 . S
C1315 C1316 1.383 1_565 S
C1315 H1323 0.929 . S
C1316 C1315 1.383 1_545 S
C1316 C1317 1.377 . S
C1317 H1301 0.930 . S
C1317 C1316 1.377 . S
C1317 C1318 1.379 . S
C1318 H1302 0.931 . S
C1318 C1312 1.383 . S
C1318 C1317 1.379 . S
H1319 C1313 0.959 . S
H1320 C1313 0.961 1_545 S
H1321 C1313 0.960 . S
H1322 C1314 0.930 . S
H1323 C1315 0.929 . S
H1324 C1332 0.929 . S
H1325 C1334 0.930 . S
H1326 C1336 0.930 . S
H1327 C1339 0.929 . S
H1328 C1342 0.930 . S
H1329 C1344 0.960 . S
H1330 C1344 0.960 . S
H1331 C1344 0.960 . S
C1332 H1324 0.929 . S
C1332 C1333 1.377 . S
C1332 C1334 1.384 . S
C1333 C1332 1.377 . S
C1333 C1339 1.390 . S
C1334 H1325 0.930 . S
C1334 C1332 1.384 . S
C1334 C1335 1.372 . S
C1335 C1334 1.372 . S
C1335 C1336 1.400 . S
C1335 C1340 1.490 . S
C1336 H1326 0.930 . S
C1336 C1335 1.400 . S
C1336 C1339 1.386 . S
H1337 C1353 0.930 . S
H1338 C1354 0.931 . S
C1339 H1327 0.929 . S
C1339 C1333 1.390 . S
C1339 C1336 1.386 . S
C1340 C1335 1.490 . S
C1340 C1342 1.395 . S
C1340 C1343 1.403 . S
H1341 C1347 0.930 . S
C1342 H1328 0.930 . S
C1342 C1340 1.395 . S
C1342 C1345 1.403 . S
C1343 C1340 1.403 . S
C1343 C1344 1.524 . S
C1343 C1347 1.400 . S
C1344 H1329 0.960 . S
C1344 H1330 0.960 . S
C1344 H1331 0.960 . S
C1344 C1343 1.524 . S
C1345 C1342 1.403 . S
C1345 C1346 1.392 . S
C1345 C1349 1.495 . S
C1346 C1345 1.392 . S
C1346 C1347 1.385 . S
C1346 C1348 1.478 . S
C1347 H1341 0.930 . S
C1347 C1343 1.400 . S
C1347 C1346 1.385 . S
C1348 C1346 1.478 . S
C1348 C1350 1.381 . S
C1348 C1354 1.383 . S
C1349 C1345 1.495 . S
C1349 H1355 0.959 . S
C1349 H1356 0.961 . S
C1349 H1357 0.960 . S
C1350 C1348 1.381 . S
C1350 C1351 1.394 . S
C1350 H1358 0.930 . S
C1351 C1350 1.394 . S
C1351 C1352 1.383 . S
C1351 H1359 0.929 . S
C1352 C1351 1.383 . S
C1352 C1353 1.377 . S
C1353 H1337 0.930 . S
C1353 C1352 1.377 . S
C1353 C1354 1.379 . S
C1354 H1338 0.931 . S
C1354 C1348 1.383 . S
C1354 C1353 1.379 . S
H1355 C1349 0.959 . S
H1356 C1349 0.961 . S
H1357 C1349 0.960 . S
H1358 C1350 0.930 . S
H1359 C1351 0.929 . S
H1360 C1368 0.929 . S
H1361 C1370 0.930 . S
H1362 C1372 0.930 . S
H1363 C1375 0.929 . S
H1364 C1378 0.930 . S
H1365 C1380 0.960 . S
H1366 C1380 0.960 . S
H1367 C1380 0.960 . S
C1368 H1360 0.929 . S
C1368 C1369 1.377 . S
C1368 C1370 1.384 . S
C1369 C1368 1.377 . S
C1369 C1375 1.390 . S
C1370 H1361 0.930 . S
C1370 C1368 1.384 . S
C1370 C1371 1.372 . S
C1371 C1370 1.372 . S
C1371 C1372 1.400 . S
C1371 C1376 1.490 . S
C1372 H1362 0.930 . S
C1372 C1371 1.400 . S
C1372 C1375 1.386 . S
H1373 C1389 0.930 . S
H1374 C1390 0.931 . S
C1375 H1363 0.929 . S
C1375 C1369 1.390 . S
C1375 C1372 1.386 . S
C1376 C1371 1.490 . S
C1376 C1378 1.395 . S
C1376 C1379 1.403 . S
H1377 C1383 0.930 . S
C1378 H1364 0.930 . S
C1378 C1376 1.395 . S
C1378 C1381 1.403 . S
C1379 C1376 1.403 . S
C1379 C1380 1.524 . S
C1379 C1383 1.400 . S
C1380 H1365 0.960 . S
C1380 H1366 0.960 . S
C1380 H1367 0.960 . S
C1380 C1379 1.524 . S
C1381 C1378 1.403 . S
C1381 C1382 1.392 . S
C1381 C1385 1.495 . S
C1382 C1381 1.392 . S
C1382 C1383 1.385 . S
C1382 C1384 1.478 . S
C1383 H1377 0.930 . S
C1383 C1379 1.400 . S
C1383 C1382 1.385 . S
C1384 C1382 1.478 . S
C1384 C1386 1.381 . S
C1384 C1390 1.383 . S
C1385 C1381 1.495 . S
C1385 H1391 0.959 . S
C1385 H1392 0.961 . S
C1385 H1393 0.960 . S
C1386 C1384 1.381 . S
C1386 C1387 1.394 . S
C1386 H1394 0.930 . S
C1387 C1386 1.394 . S
C1387 C1388 1.383 . S
C1387 H1395 0.929 . S
C1388 C1387 1.383 . S
C1388 C1389 1.377 . S
C1389 H1373 0.930 . S
C1389 C1388 1.377 . S
C1389 C1390 1.379 . S
C1390 H1374 0.931 . S
C1390 C1384 1.383 . S
C1390 C1389 1.379 . S
H1391 C1385 0.959 . S
H1392 C1385 0.961 . S
H1393 C1385 0.960 . S
H1394 C1386 0.930 . S
H1395 C1387 0.929 . S
H1396 C1404 0.929 . S
H1397 C1406 0.930 . S
H1398 C1408 0.930 . S
H1399 C1411 0.929 . S
H1400 C1414 0.930 . S
H1401 C1416 0.960 . S
H1402 C1416 0.960 . S
H1403 C1416 0.960 . S
C1404 H1396 0.929 . S
C1404 C1405 1.377 . S
C1404 C1406 1.384 . S
C1405 C1404 1.377 . S
C1405 C1411 1.390 . S
C1406 H1397 0.930 . S
C1406 C1404 1.384 . S
C1406 C1407 1.372 . S
C1407 C1406 1.372 . S
C1407 C1408 1.400 . S
C1407 C1412 1.490 . S
C1408 H1398 0.930 . S
C1408 C1407 1.400 . S
C1408 C1411 1.386 . S
H1409 C1425 0.930 . S
H1410 C1426 0.931 . S
C1411 H1399 0.929 . S
C1411 C1405 1.390 . S
C1411 C1408 1.386 . S
C1412 C1407 1.490 . S
C1412 C1414 1.395 . S
C1412 C1415 1.403 . S
H1413 C1419 0.930 . S
C1414 H1400 0.930 . S
C1414 C1412 1.395 . S
C1414 C1417 1.403 . S
C1415 C1412 1.403 . S
C1415 C1416 1.524 . S
C1415 C1419 1.400 . S
C1416 H1401 0.960 . S
C1416 H1402 0.960 . S
C1416 H1403 0.960 . S
C1416 C1415 1.524 . S
C1417 C1414 1.403 . S
C1417 C1418 1.392 . S
C1417 C1421 1.495 . S
C1418 C1417 1.392 . S
C1418 C1419 1.385 . S
C1418 C1420 1.478 . S
C1419 H1413 0.930 . S
C1419 C1415 1.400 . S
C1419 C1418 1.385 . S
C1420 C1418 1.478 . S
C1420 C1422 1.381 . S
C1420 C1426 1.383 . S
C1421 C1417 1.495 . S
C1421 H1427 0.959 . S
C1421 H1428 0.961 . S
C1421 H1429 0.960 . S
C1422 C1420 1.381 . S
C1422 C1423 1.394 . S
C1422 H1430 0.930 . S
C1423 C1422 1.394 . S
C1423 C1424 1.383 . S
C1423 H1431 0.929 . S
C1424 C1423 1.383 . S
C1424 C1425 1.377 . S
C1425 H1409 0.930 . S
C1425 C1424 1.377 . S
C1425 C1426 1.379 . S
C1426 H1410 0.931 . S
C1426 C1420 1.383 . S
C1426 C1425 1.379 . S
H1427 C1421 0.959 . S
H1428 C1421 0.961 . S
H1429 C1421 0.960 . S
H1430 C1422 0.930 . S
H1431 C1423 0.929 . S
H1432 C1440 0.929 . S
H1433 C1442 0.930 . S
H1434 C1444 0.930 . S
H1435 C1447 0.929 . S
H1436 C1450 0.930 . S
H1437 C1452 0.960 . S
H1438 C1452 0.960 . S
H1439 C1452 0.960 . S
C1440 H1432 0.929 . S
C1440 C1441 1.377 . S
C1440 C1442 1.384 . S
C1441 C1440 1.377 . S
C1441 C1447 1.390 . S
C1442 H1433 0.930 . S
C1442 C1440 1.384 . S
C1442 C1443 1.372 . S
C1443 C1442 1.372 . S
C1443 C1444 1.400 . S
C1443 C1448 1.490 . S
C1444 H1434 0.930 . S
C1444 C1443 1.400 . S
C1444 C1447 1.386 . S
H1445 C1461 0.930 . S
H1446 C1462 0.931 . S
C1447 H1435 0.929 . S
C1447 C1441 1.390 . S
C1447 C1444 1.386 . S
C1448 C1443 1.490 . S
C1448 C1450 1.395 . S
C1448 C1451 1.403 . S
H1449 C1455 0.930 . S
C1450 H1436 0.930 . S
C1450 C1448 1.395 . S
C1450 C1453 1.403 . S
C1451 C1448 1.403 . S
C1451 C1452 1.524 . S
C1451 C1455 1.400 . S
C1452 H1437 0.960 . S
C1452 H1438 0.960 . S
C1452 H1439 0.960 . S
C1452 C1451 1.524 . S
C1453 C1450 1.403 . S
C1453 C1454 1.392 . S
C1453 C1457 1.495 . S
C1454 C1453 1.392 . S
C1454 C1455 1.385 . S
C1454 C1456 1.478 . S
C1455 H1449 0.930 . S
C1455 C1451 1.400 . S
C1455 C1454 1.385 . S
C1456 C1454 1.478 . S
C1456 C1458 1.381 . S
C1456 C1462 1.383 . S
C1457 C1453 1.495 . S
C1457 H1463 0.959 . S
C1457 H1464 0.961 . S
C1457 H1465 0.960 . S
C1458 C1456 1.381 . S
C1458 C1459 1.394 . S
C1458 H1466 0.930 . S
C1459 C1458 1.394 . S
C1459 C1460 1.383 . S
C1459 H1467 0.929 . S
C1460 C1459 1.383 . S
C1460 C1461 1.377 . S
C1461 H1445 0.930 . S
C1461 C1460 1.377 . S
C1461 C1462 1.379 . S
C1462 H1446 0.931 . S
C1462 C1456 1.383 . S
C1462 C1461 1.379 . S
H1463 C1457 0.959 . S
H1464 C1457 0.961 . S
H1465 C1457 0.960 . S
H1466 C1458 0.930 . S
H1467 C1459 0.929 . S
H1468 C1476 0.929 . S
H1469 C1478 0.930 . S
H1470 C1480 0.930 . S
H1471 C1483 0.929 . S
H1472 C1486 0.930 . S
H1473 C1488 0.960 . S
H1474 C1488 0.960 . S
H1475 C1488 0.960 1_556 S
C1476 H1468 0.929 . S
C1476 C1477 1.377 . S
C1476 C1478 1.384 . S
C1477 C1476 1.377 . S
C1477 C1483 1.390 1_554 S
C1478 H1469 0.930 . S
C1478 C1476 1.384 . S
C1478 C1479 1.372 . S
C1479 C1478 1.372 . S
C1479 C1480 1.400 1_554 S
C1479 C1484 1.490 . S
C1480 H1470 0.930 . S
C1480 C1479 1.400 1_556 S
C1480 C1483 1.386 . S
H1481 C1497 0.930 1_556 S
H1482 C1498 0.931 1_556 S
C1483 H1471 0.929 . S
C1483 C1477 1.390 1_556 S
C1483 C1480 1.386 . S
C1484 C1479 1.490 . S
C1484 C1486 1.395 . S
C1484 C1487 1.403 . S
H1485 C1491 0.930 . S
C1486 H1472 0.930 . S
C1486 C1484 1.395 . S
C1486 C1489 1.403 1_655 S
C1487 C1484 1.403 . S
C1487 C1488 1.524 . S
C1487 C1491 1.400 1_655 S
C1488 H1473 0.960 . S
C1488 H1474 0.960 . S
C1488 H1475 0.960 1_554 S
C1488 C1487 1.524 . S
C1489 C1486 1.403 1_455 S
C1489 C1490 1.392 . S
C1489 C1493 1.495 . S
C1490 C1489 1.392 . S
C1490 C1491 1.385 . S
C1490 C1492 1.478 . S
C1491 H1485 0.930 . S
C1491 C1487 1.400 1_455 S
C1491 C1490 1.385 . S
C1492 C1490 1.478 . S
C1492 C1494 1.381 . S
C1492 C1498 1.383 . S
C1493 C1489 1.495 . S
C1493 H1499 0.959 . S
C1493 H1500 0.961 . S
C1493 H1501 0.960 . S
C1494 C1492 1.381 . S
C1494 C1495 1.394 . S
C1494 H1502 0.930 . S
C1495 C1494 1.394 . S
C1495 C1496 1.383 . S
C1495 H1503 0.929 . S
C1496 C1495 1.383 . S
C1496 C1497 1.377 . S
C1497 H1481 0.930 1_554 S
C1497 C1496 1.377 . S
C1497 C1498 1.379 . S
C1498 H1482 0.931 1_554 S
C1498 C1492 1.383 . S
C1498 C1497 1.379 . S
H1499 C1493 0.959 . S
H1500 C1493 0.961 . S
H1501 C1493 0.960 . S
H1502 C1494 0.930 . S
H1503 C1495 0.929 . S
C649 C21 1.486 . S
C668 C141 1.501 . S
C685 C61 1.487 . S
C704 C15 1.497 . S
C721 C55 1.501 . S
C740 C82 1.499 . S
C757 C135 1.502 . S
C776 C95 1.499 . S
C793 C301 1.492 . S
C812 C162 1.479 . S
C829 C175 1.501 . S
C848 C221 1.476 . S
C865 C261 1.491 . S
C884 C215 1.499 . S
C901 C295 1.505 . S
C920 C255 1.502 . S
C937 C461 1.491 . S
C956 C341 1.484 . S
C973 C335 1.501 . S
C992 C381 1.496 . S
C1009 C402 1.493 . S
C1028 C375 1.498 . S
C1045 C415 1.503 . S
C1064 C455 1.499 . S
C1081 C482 1.490 . S
C1100 C621 1.496 . S
C1117 C541 1.492 . S
C1136 C495 1.501 . S
C1153 C535 1.501 . S
C1172 C581 1.490 . S
C1189 C575 1.505 . S
C1208 C615 1.498 . S
C1225 C181 1.485 . S
C1244 C2 1.483 . S
C1261 C522 1.485 . S
C1280 C42 1.472 . S
C1297 C101 1.498 . S
C1316 C242 1.486 . S
C1333 C602 1.492 . S
C1352 C122 1.504 . S
C1369 C362 1.488 . S
C1388 C202 1.484 . S
C1405 C282 1.486 . S
C1424 C442 1.497 . S
C1441 C501 1.486 . S
C1460 C322 1.486 . S
C1477 C421 1.496 . S
C1496 C562 1.479 . S
