# Generated by pormake.
# Topology snk, (6)-cn, num edge types: 1
# Building blocks:
#     Node 0, Type 0, BuildingBlock: JUFBIX_clean_sbu_0, # of connection points: 6
#     Node 1, Type 0, BuildingBlock: JUFBIX_clean_sbu_0, # of connection points: 6
#     Node 2, Type 0, BuildingBlock: JUFBIX_clean_sbu_0, # of connection points: 6
#     Node 3, Type 0, BuildingBlock: JUFBIX_clean_sbu_0, # of connection points: 6
#     Node 4, Type 0, BuildingBlock: JUFBIX_clean_sbu_0, # of connection points: 6
#     Node 5, Type 0, BuildingBlock: JUFBIX_clean_sbu_0, # of connection points: 6
#     Node 6, Type 0, BuildingBlock: JUFBIX_clean_sbu_0, # of connection points: 6
#     Node 7, Type 0, BuildingBlock: JUFBIX_clean_sbu_0, # of connection points: 6
#     Edge 8, Type (0, 0), BuildingBlock: TEMPAE_clean_linker_10, # of connection points: 2
#     Edge 9, Type (0, 0), BuildingBlock: TEMPAE_clean_linker_10, # of connection points: 2
#     Edge 10, Type (0, 0), BuildingBlock: TEMPAE_clean_linker_10, # of connection points: 2
#     Edge 11, Type (0, 0), BuildingBlock: TEMPAE_clean_linker_10, # of connection points: 2
#     Edge 12, Type (0, 0), BuildingBlock: TEMPAE_clean_linker_10, # of connection points: 2
#     Edge 13, Type (0, 0), BuildingBlock: TEMPAE_clean_linker_10, # of connection points: 2
#     Edge 14, Type (0, 0), BuildingBlock: TEMPAE_clean_linker_10, # of connection points: 2
#     Edge 15, Type (0, 0), BuildingBlock: TEMPAE_clean_linker_10, # of connection points: 2
#     Edge 16, Type (0, 0), BuildingBlock: TEMPAE_clean_linker_10, # of connection points: 2
#     Edge 17, Type (0, 0), BuildingBlock: TEMPAE_clean_linker_10, # of connection points: 2
#     Edge 18, Type (0, 0), BuildingBlock: TEMPAE_clean_linker_10, # of connection points: 2
#     Edge 19, Type (0, 0), BuildingBlock: TEMPAE_clean_linker_10, # of connection points: 2
#     Edge 20, Type (0, 0), BuildingBlock: TEMPAE_clean_linker_10, # of connection points: 2
#     Edge 21, Type (0, 0), BuildingBlock: TEMPAE_clean_linker_10, # of connection points: 2
#     Edge 22, Type (0, 0), BuildingBlock: TEMPAE_clean_linker_10, # of connection points: 2
#     Edge 23, Type (0, 0), BuildingBlock: TEMPAE_clean_linker_10, # of connection points: 2
#     Edge 24, Type (0, 0), BuildingBlock: TEMPAE_clean_linker_10, # of connection points: 2
#     Edge 25, Type (0, 0), BuildingBlock: TEMPAE_clean_linker_10, # of connection points: 2
#     Edge 26, Type (0, 0), BuildingBlock: TEMPAE_clean_linker_10, # of connection points: 2
#     Edge 27, Type (0, 0), BuildingBlock: TEMPAE_clean_linker_10, # of connection points: 2
#     Edge 28, Type (0, 0), BuildingBlock: TEMPAE_clean_linker_10, # of connection points: 2
#     Edge 29, Type (0, 0), BuildingBlock: TEMPAE_clean_linker_10, # of connection points: 2
#     Edge 30, Type (0, 0), BuildingBlock: TEMPAE_clean_linker_10, # of connection points: 2
#     Edge 31, Type (0, 0), BuildingBlock: TEMPAE_clean_linker_10, # of connection points: 2
# Relax obj value: 0.126
# Max RMSD: 0.108
# Mean RMSD: 0.069
data_MOF--net-snk--node1-JUFBIX_clean_sbu_0--edge1-TEMPAE_clean_linker_10
_symmetry_space_group_name_H-M    P1
_symmetry_Int_Tables_number       1
_symmetry_cell_setting            triclinic
loop_
_symmetry_equiv_pos_as_xyz
'x, y, z'
_cell_length_a     47.952876
_cell_length_b     48.069
_cell_length_c     15.15041
_cell_angle_alpha  99.008133
_cell_angle_beta   99.06363
_cell_angle_gamma 92.507014
loop_
_atom_site_label
_atom_site_type_symbol
_atom_site_fract_x
_atom_site_fract_y
_atom_site_fract_z
_atom_type_partial_charge
Co0 Co 1.01553 1.01268 0.47527 0.0
C1 C 0.99283 0.0644 0.47357 0.0
Co2 Co 0.04856 0.04709 0.51426 0.0
C3 C 0.98914 0.95965 0.48208 0.0
C4 C 0.96907 0.97633 0.36723 0.0
N5 N 0.98977 0.98222 0.44013 0.0
N6 N 0.96889 0.93972 0.43889 0.0
C7 C 0.95604 0.95016 0.36652 0.0
H8 H 1.00287 0.95832 0.54499 0.0
H9 H 0.96382 0.99015 0.31805 0.0
C10 C 0.07132 0.99544 0.51576 0.0
N11 N 0.07415 0.07765 0.54883 0.0
C12 C 0.07395 0.10013 0.50634 0.0
C13 C 0.09473 0.08428 0.62188 0.0
N14 N 0.09339 0.12078 0.54954 0.0
C15 C 0.10683 0.11086 0.62209 0.0
C16 C 1.02717 0.03124 0.66044 0.0
O17 O 0.04541 0.98721 0.48759 0.0
O18 O 0.07813 1.02185 0.53232 0.0
O19 O 0.04385 0.04884 0.63695 0.0
O20 O 1.01226 1.01296 0.59977 0.0
O21 O 1.01893 0.07239 0.49638 0.0
H22 H 0.10037 0.07079 0.67179 0.0
H23 H 0.06007 0.10099 0.4433 0.0
O24 O 0.9857 0.03811 0.46272 0.0
O25 O 1.01865 1.01247 0.35249 0.0
O26 O 0.05336 0.0454 0.38975 0.0
C27 C 0.03666 0.02866 0.32903 0.0
H28 H 0.93831 0.93988 0.31734 0.0
H29 H 0.12422 0.12186 0.67118 0.0
Co30 Co 0.29341 0.75851 0.73584 0.0
C31 C 0.23594 0.73161 0.69485 0.0
Co32 Co 0.26116 0.79062 0.73524 0.0
C33 C 0.32898 0.71091 0.77488 0.0
C34 C 0.34209 0.73429 0.67765 0.0
N35 N 0.32202 0.73275 0.73022 0.0
N36 N 0.35234 0.69872 0.75077 0.0
C37 C 0.36045 0.71358 0.68965 0.0
H38 H 0.31724 0.70417 0.82415 0.0
H39 H 0.34372 0.74997 0.63439 0.0
C40 C 0.3186 0.81754 0.77613 0.0
N41 N 0.23251 0.81633 0.74088 0.0
C42 C 0.22539 0.83804 0.69583 0.0
C43 C 0.21254 0.81482 0.79381 0.0
N44 N 0.20202 0.85018 0.72004 0.0
C45 C 0.19408 0.83543 0.78164 0.0
C46 C 0.27925 0.77365 0.90358 0.0
O47 O 0.32382 0.79127 0.76511 0.0
O48 O 0.29222 0.82269 0.76668 0.0
O49 O 0.26332 0.78947 0.86156 0.0
O50 O 0.29485 0.75764 0.86105 0.0
O51 O 0.23076 0.75788 0.70367 0.0
H52 H 0.21105 0.79923 0.83746 0.0
H53 H 0.23702 0.84472 0.64623 0.0
O54 O 0.26232 0.72645 0.70667 0.0
O55 O 0.2914 0.7598 0.60976 0.0
O56 O 0.25964 0.79141 0.60987 0.0
C57 C 0.27548 0.7756 0.56765 0.0
H58 H 0.37897 0.71032 0.65769 0.0
H59 H 0.17561 0.83871 0.81387 0.0
Co60 Co 0.54329 1.00903 0.98553 0.0
C61 C 0.56764 0.06835 0.027 0.0
Co62 Co 0.51063 0.04061 0.98171 0.0
C63 C 0.58104 0.96317 0.93628 0.0
C64 C 0.59163 0.98531 0.0723 0.0
N65 N 0.57245 0.98388 -0.00392 0.0
N66 N 0.60456 0.95157 0.97328 0.0
C67 C 0.61107 0.96565 0.05883 0.0
H68 H 0.57043 0.95692 0.86697 0.0
H69 H 0.59206 1.00036 0.13364 0.0
C70 C 0.48619 0.98136 0.94029 0.0
N71 N 0.48154 0.06577 0.97158 0.0
C72 C 0.47378 0.08708 0.0311 0.0
C73 C 0.46174 0.06403 0.89668 0.0
N74 N 0.45018 0.09875 -0.00485 0.0
C75 C 0.44276 0.08413 0.91061 0.0
C76 C 0.52916 1.02344 0.81656 0.0
O77 O 0.51266 0.97649 0.95117 0.0
O78 O 0.48069 1.00754 0.95099 0.0
O79 O 0.51229 0.03846 0.85655 0.0
O80 O 0.54577 1.00871 0.86095 0.0
O81 O 0.54121 0.0731 0.01117 0.0
H82 H 0.46062 0.04854 0.83599 0.0
H83 H 0.48505 0.09375 0.09944 0.0
O84 O 0.57317 0.0422 0.02113 0.0
O85 O 0.54015 1.00967 0.10922 0.0
O86 O 0.50954 0.04234 0.10767 0.0
C87 C 0.52452 1.02598 0.15045 0.0
H88 H 0.62928 0.96269 0.10771 0.0
H89 H 0.42424 0.08708 0.86288 0.0
Co90 Co 0.29674 0.29441 0.25225 0.0
C91 C 0.24452 0.31591 0.252 0.0
Co92 Co 0.26303 0.26066 0.21306 0.0
C93 C 0.35043 0.31966 0.24939 0.0
C94 C 0.3326 0.34169 0.35871 0.0
N95 N 0.32701 0.32041 0.28761 0.0
N96 N 0.3707 0.33937 0.29363 0.0
C97 C 0.35953 0.35361 0.36216 0.0
H98 H 0.35233 0.30509 0.18881 0.0
H99 H 0.31821 0.34786 0.40541 0.0
C100 C 0.31514 0.23907 0.21335 0.0
N101 N 0.23276 0.23468 0.17839 0.0
C102 C 0.21009 0.23473 0.22013 0.0
C103 C 0.22642 0.21406 0.10554 0.0
N104 N 0.18957 0.21521 0.17654 0.0
C105 C 0.1998 0.20181 0.10465 0.0
C106 C 0.27865 0.28224 0.06698 0.0
O107 O 0.32273 0.26501 0.24173 0.0
O108 O 0.2888 0.23165 0.19572 0.0
O109 O 0.26124 0.26533 0.09036 0.0
O110 O 0.2967 0.29746 0.12771 0.0
O111 O 0.23719 0.28972 0.23009 0.0
H112 H 0.2401 0.20855 0.05605 0.0
H113 H 0.20895 0.24865 0.28277 0.0
O114 O 0.27073 0.32372 0.26307 0.0
O115 O 0.29675 0.29152 0.37501 0.0
O116 O 0.26478 0.25594 0.3377 0.0
C117 C 0.28101 0.27312 0.39849 0.0
H118 H 0.36996 0.37135 0.41087 0.0
H119 H 0.18894 0.18441 0.05541 0.0
Co120 Co 0.79278 0.25836 0.23431 0.0
C121 C 0.73428 0.23297 0.19234 0.0
Co122 Co 0.76114 0.29077 0.23458 0.0
C123 C 0.83946 0.22166 0.28633 0.0
C124 C 0.81865 0.21148 0.14856 0.0
N125 N 0.81898 0.23013 0.22524 0.0
N126 N 0.85197 0.19875 0.24971 0.0
C127 C 0.83873 0.19251 0.16305 0.0
H128 H 0.84486 0.23188 0.3563 0.0
H129 H 0.80406 0.21106 0.08612 0.0
C130 C 0.81967 0.31616 0.27659 0.0
N131 N 0.73362 0.31772 0.24231 0.0
C132 C 0.72601 0.3387 0.19446 0.0
C133 C 0.71479 0.31776 0.29975 0.0
N134 N 0.70345 0.35188 0.22121 0.0
C135 C 0.69656 0.33853 0.28742 0.0
C136 C 0.77871 0.27308 0.40197 0.0
O137 O 0.8245 0.28981 0.2728 0.0
O138 O 0.79343 0.32163 0.25921 0.0
O139 O 0.76475 0.29065 0.36177 0.0
O140 O 0.79238 0.25539 0.35749 0.0
O141 O 0.72955 0.25924 0.21002 0.0
H142 H 0.71377 0.30299 0.34635 0.0
H143 H 0.7366 0.34402 0.14069 0.0
O144 O 0.76045 0.22764 0.19583 0.0
O145 O 0.7928 0.26204 0.1107 0.0
O146 O 0.7582 0.29051 0.10812 0.0
C147 C 0.77557 0.27643 0.06729 0.0
H148 H 0.84251 0.17475 0.11399 0.0
H149 H 0.67882 0.34275 0.32256 0.0
Co150 Co 0.79392 0.79152 0.7551 0.0
C151 C 0.7414 0.81278 0.75515 0.0
Co152 Co 0.76022 0.75776 0.71616 0.0
C153 C 0.84661 0.81871 0.74913 0.0
C154 C 0.82929 0.83883 0.86245 0.0
N155 N 0.82383 0.81793 0.79023 0.0
N156 N 0.8663 0.83918 0.79229 0.0
C157 C 0.85544 0.8521 0.86363 0.0
H158 H 0.84832 0.80481 0.68699 0.0
H159 H 0.81524 0.84398 0.91102 0.0
C160 C 0.81278 0.73654 0.71641 0.0
N161 N 0.73026 0.7314 0.68126 0.0
C162 C 0.70726 0.73121 0.72146 0.0
C163 C 0.72455 0.71062 0.60874 0.0
N164 N 0.68714 0.71137 0.67705 0.0
C165 C 0.69798 0.69803 0.60636 0.0
C166 C 0.77566 0.77937 0.56986 0.0
O167 O 0.82029 0.76252 0.74454 0.0
O168 O 0.78644 0.72903 0.69903 0.0
O169 O 0.75833 0.76242 0.59337 0.0
O170 O 0.7937 0.79462 0.63051 0.0
O171 O 0.73401 0.78658 0.73312 0.0
H172 H 0.7386 0.70525 0.56033 0.0
H173 H 0.70555 0.74522 0.7834 0.0
O174 O 0.76761 0.82052 0.766 0.0
O175 O 0.79406 0.78853 0.87793 0.0
O176 O 0.762 0.75301 0.84071 0.0
C177 C 0.77829 0.77015 0.90145 0.0
H178 H 0.86548 0.86997 0.91256 0.0
H179 H 0.68754 0.6805 0.55681 0.0
Co180 Co 0.51126 0.50632 0.96328 0.0
C181 C 0.48606 0.55666 0.95953 0.0
Co182 Co 0.5428 0.54208 0.00224 0.0
C183 C 0.48835 0.45194 0.96951 0.0
C184 C 0.46661 0.46752 0.85484 0.0
N185 N 0.48712 0.47463 0.92785 0.0
N186 N 0.46952 0.43075 0.92603 0.0
C187 C 0.45555 0.4405 0.85387 0.0
H188 H 0.5024 0.45137 0.03246 0.0
H189 H 0.46019 0.48106 0.80566 0.0
C190 C 0.56802 0.49175 0.00591 0.0
N191 N 0.56699 0.57371 0.03744 0.0
C192 C 0.56665 0.59602 -0.00593 0.0
C193 C 0.58682 0.58106 0.11218 0.0
N194 N 0.58541 0.61719 0.03822 0.0
C195 C 0.59838 0.60783 0.11255 0.0
C196 C 0.52191 0.52518 0.14811 0.0
O197 O 0.54245 0.48248 0.97692 0.0
O198 O 0.57371 0.51834 0.02219 0.0
O199 O 0.53776 0.54352 0.1246 0.0
O200 O 0.50789 0.50625 0.08754 0.0
O201 O 0.51189 0.56581 0.98244 0.0
H202 H 0.59242 0.56785 0.16298 0.0
H203 H 0.5533 0.59633 0.92964 0.0
O204 O 0.4801 0.53017 0.94948 0.0
O205 O 0.51446 0.50642 0.84072 0.0
O206 O 0.54788 0.54067 0.87807 0.0
C207 C 0.53184 0.52332 0.81732 0.0
H208 H 0.43836 0.42914 0.80477 0.0
H209 H 0.6152 0.6193 0.16283 0.0
Co210 Co 0.04382 0.5086 0.48543 0.0
C211 C 0.0682 0.5679 0.53019 0.0
Co212 Co 1.01111 0.54016 0.48855 0.0
C213 C 0.08189 0.46314 0.43509 0.0
C214 C 0.09267 0.48535 0.57097 0.0
N215 N 0.07319 0.48366 0.49527 0.0
N216 N 0.10573 0.4519 0.47144 0.0
C217 C 0.11234 0.466 0.55689 0.0
H218 H 0.07119 0.45683 0.3659 0.0
H219 H 0.09323 0.50043 0.63227 0.0
C220 C 0.98678 0.48076 0.44364 0.0
N221 N 0.98197 0.56535 0.47869 0.0
C222 C 0.97346 0.58602 0.53883 0.0
C223 C 0.96285 0.56417 0.40244 0.0
N224 N 0.95008 0.59785 0.50196 0.0
C225 C 0.94356 0.58397 0.41619 0.0
C226 C 0.02946 0.52353 0.32008 0.0
O227 O 1.01327 0.47598 0.45464 0.0
O228 O 0.98122 0.50695 0.4542 0.0
O229 O 1.01411 0.53969 0.36341 0.0
O230 O 0.0447 0.50699 0.36086 0.0
O231 O 0.04177 0.57272 0.52446 0.0
H232 H 0.9624 0.54926 0.3408 0.0
H233 H 0.98405 0.59212 0.60823 0.0
O234 O 0.07365 0.54176 0.51456 0.0
O235 O 0.04229 0.51062 0.61207 0.0
O236 O 1.00874 0.5403 0.61167 0.0
C237 C 1.02556 0.52535 0.65401 0.0
H238 H 0.13082 0.46333 0.60516 0.0
H239 H 0.92545 0.58721 0.36732 0.0
C240 C 0.12914 0.15571 0.52603 0.0
C241 C 0.10081 0.14551 0.51387 0.0
C242 C 0.13792 0.17369 0.47005 0.0
C243 C 0.11781 0.18123 0.40025 0.0
C244 C 0.08871 0.17416 0.39603 0.0
C245 C 0.0805 0.15651 0.45384 0.0
C246 C 0.16915 0.18183 0.4789 0.0
C247 C 0.06653 0.18244 0.32437 0.0
C248 C 0.15316 0.22827 0.26957 0.0
C249 C 0.16453 0.20788 0.21102 0.0
C250 C 0.13514 0.22024 0.32663 0.0
C251 C 0.1281 0.19124 0.32315 0.0
C252 C 0.13601 0.17102 0.25457 0.0
C253 C 0.15436 0.17962 0.19931 0.0
C254 C 0.12646 0.24253 0.39695 0.0
C255 C 0.12789 0.13989 0.24646 0.0
H256 H 0.14485 0.14763 0.57324 0.0
H257 H 0.05835 0.14956 0.44711 0.0
H258 H 0.17773 0.16933 0.42249 0.0
H259 H 0.1727 0.20448 0.4744 0.0
H260 H 0.18127 0.17783 0.54396 0.0
H261 H 0.04544 0.18278 0.34602 0.0
H262 H 0.07221 0.20344 0.308 0.0
H263 H 0.06477 0.16672 0.2614 0.0
H264 H 0.1601 0.25035 0.27584 0.0
H265 H 0.16272 0.16386 0.15318 0.0
H266 H 0.14191 0.24443 0.46073 0.0
H267 H 0.10525 0.23691 0.41218 0.0
H268 H 0.12629 0.26348 0.37465 0.0
H269 H 0.14024 0.13152 0.30369 0.0
H270 H 0.13216 0.12764 0.18204 0.0
H271 H 0.10512 0.13634 0.2501 0.0
C272 C 0.12151 0.98305 0.56444 0.0
C273 C 0.09274 0.97445 0.53433 0.0
C274 C 0.14142 0.96361 0.58866 0.0
C275 C 0.13246 0.93479 0.58342 0.0
C276 C 0.10359 0.92587 0.55069 0.0
C277 C 0.0842 0.94569 0.52645 0.0
C278 C 0.17192 0.97413 0.62278 0.0
C279 C 0.0929 0.89549 0.54437 0.0
C280 C 0.18546 0.87725 0.5964 0.0
C281 C 0.18715 0.87314 0.68678 0.0
C282 C 0.16831 0.89763 0.56203 0.0
C283 C 0.15256 0.91445 0.61939 0.0
C284 C 0.15509 0.91103 0.71142 0.0
C285 C 0.17226 0.89058 0.74371 0.0
C286 C 0.16633 0.90056 0.4636 0.0
C287 C 0.13898 0.92846 0.77559 0.0
H288 H 0.12845 1.00514 0.57076 0.0
H289 H 0.06208 0.93868 0.50349 0.0
H290 H 0.17751 0.97233 0.69547 0.0
H291 H 0.18612 0.96094 0.58557 0.0
H292 H 0.17605 0.9965 0.61538 0.0
H293 H 0.0703 0.89153 0.51223 0.0
H294 H 0.10571 0.88126 0.50472 0.0
H295 H 0.0952 0.88983 0.61327 0.0
H296 H 0.19669 0.86383 0.5517 0.0
H297 H 0.1738 0.88799 0.81401 0.0
H298 H 0.17073 0.92295 0.45729 0.0
H299 H 0.1445 0.89401 0.42747 0.0
H300 H 0.18133 0.88748 0.42947 0.0
H301 H 0.14386 0.95128 0.77648 0.0
H302 H 0.14407 0.92405 0.84595 0.0
H303 H 0.11588 0.92399 0.75193 0.0
C304 C 0.34085 0.86806 0.85402 0.0
C305 C 0.34309 0.84168 0.79971 0.0
C306 C 0.36362 0.88996 0.87888 0.0
C307 C 0.39003 0.88721 0.84564 0.0
C308 C 0.39197 0.86076 0.78842 0.0
C309 C 0.3694 0.83868 0.76897 0.0
C310 C 0.35884 0.91602 0.94268 0.0
C311 C 0.41788 0.85519 0.74531 0.0
C312 C 0.43541 0.96007 0.86221 0.0
C313 C 0.46186 0.95707 0.91548 0.0
C314 C 0.41289 0.93795 0.83745 0.0
C315 C 0.41501 0.91145 0.8699 0.0
C316 C 0.44156 0.90867 0.92595 0.0
C317 C 0.46429 0.93063 0.94531 0.0
C318 C 0.38682 0.94355 0.77481 0.0
C319 C 0.44655 0.88255 0.96808 0.0
H320 H 0.32126 0.87149 0.88003 0.0
H321 H 0.37228 0.81897 0.72678 0.0
H322 H 0.3789 0.9277 0.97874 0.0
H323 H 0.34627 0.93023 0.9036 0.0
H324 H 0.34633 0.91037 -0.00609 0.0
H325 H 0.41191 0.84257 0.67632 0.0
H326 H 0.42997 0.8749 0.74001 0.0
H327 H 0.43188 0.84252 0.78629 0.0
H328 H 0.43238 0.97983 0.83716 0.0
H329 H 0.48398 0.92721 0.98693 0.0
H330 H 0.37293 0.95619 0.81498 0.0
H331 H 0.37467 0.92386 0.73798 0.0
H332 H 0.39262 0.95623 0.72421 0.0
H333 H 0.42656 0.87081 0.97296 0.0
H334 H 0.45924 0.88811 0.03715 0.0
H335 H 0.45901 0.86842 0.92675 0.0
C336 C 0.43238 0.12438 0.12889 0.0
C337 C 0.43452 0.12098 0.03651 0.0
C338 C 0.41444 0.14392 0.1663 0.0
C339 C 0.39835 0.16057 0.11022 0.0
C340 C 0.40136 0.15792 0.01783 0.0
C341 C 0.4193 0.13829 0.98242 0.0
C342 C 0.41202 0.14612 0.26518 0.0
C343 C 0.385 0.17534 0.9554 0.0
C344 C 0.32881 0.18965 0.16353 0.0
C345 C 0.33679 0.21837 0.1953 0.0
C346 C 0.34881 0.17046 0.13921 0.0
C347 C 0.3776 0.18009 0.14626 0.0
C348 C 0.38592 0.2089 0.18075 0.0
C349 C 0.36551 0.2276 0.20491 0.0
C350 C 0.3389 0.13999 0.10282 0.0
C351 C 0.41624 0.22025 0.18906 0.0
H352 H 0.44388 0.11104 0.17113 0.0
H353 H 0.4212 0.13624 0.91144 0.0
H354 H 0.4159 0.16842 0.29937 0.0
H355 H 0.39022 0.139 0.27162 0.0
H356 H 0.42717 0.13314 0.30107 0.0
H357 H 0.39052 0.1716 0.88619 0.0
H358 H 0.36196 0.17018 0.95008 0.0
H359 H 0.3892 0.19815 0.98343 0.0
H360 H 0.30675 0.18222 0.15579 0.0
H361 H 0.37203 0.24972 0.22916 0.0
H362 H 0.35205 0.12583 0.14041 0.0
H363 H 0.34144 0.13491 0.03064 0.0
H364 H 0.31635 0.13534 0.10774 0.0
H365 H 0.4307 0.20732 0.22753 0.0
H366 H 0.41975 0.24261 0.22332 0.0
H367 H 0.42213 0.21888 0.12063 0.0
C368 C 0.93154 0.9055 0.45723 0.0
C369 C 0.96009 0.91532 0.47413 0.0
C370 C 0.92136 0.88709 0.50956 0.0
C371 C 0.94024 0.87867 0.58069 0.0
C372 C 0.96957 0.88571 0.5907 0.0
C373 C 0.97922 0.90384 0.53647 0.0
C374 C 0.88994 0.87914 0.49485 0.0
C375 C 0.99045 0.87659 0.66427 0.0
C376 C 0.9007 0.87635 0.77401 0.0
C377 C 0.89099 0.84785 0.75809 0.0
C378 C 0.91948 0.88627 0.72229 0.0
C379 C 0.92838 0.86718 0.65276 0.0
C380 C 0.92141 0.83794 0.64394 0.0
C381 C 0.90293 0.82856 0.69759 0.0
C382 C 0.92735 0.91762 0.73575 0.0
C383 C 0.93098 0.81685 0.57204 0.0
H384 H 0.91668 0.91395 0.40849 0.0
H385 H 1.00154 0.91045 0.54711 0.0
H386 H 0.88592 0.85628 0.4955 0.0
H387 H 0.88056 0.89093 0.55075 0.0
H388 H 0.87888 0.88412 0.42965 0.0
H389 H 1.01223 0.87703 0.64782 0.0
H390 H 0.99075 0.8913 0.72869 0.0
H391 H 0.98442 0.85505 0.67561 0.0
H392 H 0.8919 0.89133 0.82137 0.0
H393 H 0.8964 0.80628 0.68783 0.0
H394 H 0.91575 0.92665 0.67869 0.0
H395 H 0.95032 0.92166 0.73617 0.0
H396 H 0.922 0.9289 0.80005 0.0
H397 H 0.91648 0.81619 0.50687 0.0
H398 H 0.93053 0.79527 0.58971 0.0
H399 H 0.95266 0.82286 0.56148 0.0
C400 C 0.94299 0.077 0.42076 0.0
C401 C 0.97158 0.08551 0.45439 0.0
C402 C 0.92342 0.0966 0.39536 0.0
C403 C 0.93251 0.12553 0.4036 0.0
C404 C 0.96116 0.13436 0.44014 0.0
C405 C 0.98025 0.11434 0.46491 0.0
C406 C 0.89318 0.08613 0.35646 0.0
C407 C 0.97195 0.16486 0.45014 0.0
C408 C 0.89164 0.16778 0.23911 0.0
C409 C 0.87371 0.18261 0.29187 0.0
C410 C 0.91093 0.14958 0.27495 0.0
C411 C 0.91275 0.14599 0.36665 0.0
C412 C 0.89543 0.16159 0.42147 0.0
C413 C 0.87616 0.17971 0.38355 0.0
C414 C 0.92903 0.13373 0.21378 0.0
C415 C 0.89678 0.1586 0.51965 0.0
H416 H 0.93599 0.05485 0.4121 0.0
H417 H 1.00224 0.1213 0.49075 0.0
H418 H 0.87841 0.09878 0.39284 0.0
H419 H 0.88854 0.0888 0.28429 0.0
H420 H 0.88889 0.06351 0.36058 0.0
H421 H 0.99416 0.16875 0.48612 0.0
H422 H 0.97092 0.17102 0.38218 0.0
H423 H 0.95839 0.17878 0.48773 0.0
H424 H 0.89042 0.17024 0.1688 0.0
H425 H 0.86237 0.19088 0.42486 0.0
H426 H 0.9243 0.11066 0.20825 0.0
H427 H 0.95176 0.13836 0.2431 0.0
H428 H 0.9255 0.13924 0.14454 0.0
H429 H 0.89001 0.1366 0.52443 0.0
H430 H 0.88307 0.17315 0.55451 0.0
H431 H 0.91889 0.16288 0.55603 0.0
C432 C 0.68353 0.21163 0.19989 0.0
C433 C 0.7097 0.20894 0.16805 0.0
C434 C 0.66107 0.18943 0.18022 0.0
C435 C 0.66304 0.16318 0.12201 0.0
C436 C 0.68928 0.16075 0.08771 0.0
C437 C 0.71192 0.18277 0.11253 0.0
C438 C 0.63526 0.19462 0.22412 0.0
C439 C 0.69403 0.1349 0.02297 0.0
C440 C 0.61829 0.08999 0.10537 0.0
C441 C 0.59183 0.09277 0.05182 0.0
C442 C 0.64064 0.11229 0.13018 0.0
C443 C 0.63827 0.13877 0.09777 0.0
C444 C 0.6117 0.14135 0.04159 0.0
C445 C 0.58918 0.11919 0.02193 0.0
C446 C 0.66681 0.1069 0.19279 0.0
C447 C 0.60649 0.1675 -0.0002 0.0
H448 H 0.68069 0.23116 0.24307 0.0
H449 H 0.73142 0.17957 0.0858 0.0
H450 H 0.62097 0.20717 0.18358 0.0
H451 H 0.62346 0.17476 0.22948 0.0
H452 H 0.64128 0.20721 0.29315 0.0
H453 H 0.70654 0.1205 0.06139 0.0
H454 H 0.67394 0.12335 0.98656 0.0
H455 H 0.70656 0.14074 0.97205 0.0
H456 H 0.62149 0.07026 0.13049 0.0
H457 H 0.56946 0.12246 0.98021 0.0
H458 H 0.67869 0.12668 0.23001 0.0
H459 H 0.68089 0.0946 0.15248 0.0
H460 H 0.6612 0.09399 0.24302 0.0
H461 H 0.59427 0.18164 0.04199 0.0
H462 H 0.59352 0.16201 0.93115 0.0
H463 H 0.6264 0.17922 -0.0059 0.0
C464 C 0.72761 0.86225 0.80452 0.0
C465 C 0.71974 0.83347 0.77355 0.0
C466 C 0.70757 0.8814 0.82913 0.0
C467 C 0.67883 0.87168 0.82288 0.0
C468 C 0.67062 0.84281 0.78908 0.0
C469 C 0.69107 0.82414 0.76494 0.0
C470 C 0.71739 0.91191 0.86502 0.0
C471 C 0.64036 0.83135 0.78136 0.0
C472 C 0.63655 0.91285 0.98645 0.0
C473 C 0.62095 0.9299 0.93224 0.0
C474 C 0.65497 0.89368 0.95136 0.0
C475 C 0.65801 0.89113 0.85902 0.0
C476 C 0.64163 0.90755 0.80283 0.0
C477 C 0.62328 0.92669 0.83999 0.0
C478 C 0.67167 0.87655 0.01399 0.0
C479 C 0.64403 0.9054 0.70396 0.0
H480 H 0.74963 0.86976 0.81163 0.0
H481 H 0.68461 0.80199 0.74118 0.0
H482 H 0.7041 0.92597 0.82746 0.0
H483 H 0.71498 0.91705 0.9373 0.0
H484 H 0.73989 0.91663 0.85962 0.0
H485 H 0.63692 0.80893 0.74769 0.0
H486 H 0.63455 0.83288 0.84992 0.0
H487 H 0.6258 0.84412 0.74258 0.0
H488 H 0.63453 0.91467 0.05728 0.0
H489 H 0.61151 0.9398 0.79757 0.0
H490 H 0.69467 0.88177 0.0183 0.0
H491 H 0.66752 0.85369 0.98673 0.0
H492 H 0.66642 0.88048 0.08352 0.0
H493 H 0.66583 0.9125 0.69745 0.0
H494 H 0.62887 0.91838 0.66814 0.0
H495 H 0.64014 0.88309 0.66974 0.0
C496 C 0.57355 0.65202 0.93805 0.0
C497 C 0.59316 0.64173 0.002 0.0
C498 C 0.58256 0.66969 0.88143 0.0
C499 C 0.61174 0.67735 0.89046 0.0
C500 C 0.63095 0.67043 0.96361 0.0
C501 C 0.62139 0.65254 0.01856 0.0
C502 C 0.56128 0.67742 0.80625 0.0
C503 C 0.6622 0.67913 0.97743 0.0
C504 C 0.65171 0.67557 0.69711 0.0
C505 C 0.66171 0.70389 0.70913 0.0
C506 C 0.63244 0.66695 0.74943 0.0
C507 C 0.6233 0.68725 0.81525 0.0
C508 C 0.63032 0.71626 0.81879 0.0
C509 C 0.64942 0.72428 0.76497 0.0
C510 C 0.62454 0.63578 0.74149 0.0
C511 C 0.62029 0.73861 0.8859 0.0
H512 H 0.55142 0.64462 0.92773 0.0
H513 H 0.63657 0.64503 0.06869 0.0
H514 H 0.56708 0.69843 0.79019 0.0
H515 H 0.56066 0.66158 0.74411 0.0
H516 H 0.53968 0.67745 0.82415 0.0
H517 H 0.67344 0.67542 0.04405 0.0
H518 H 0.67188 0.66678 0.92326 0.0
H519 H 0.66561 0.7018 0.97299 0.0
H520 H 0.66084 0.6598 0.65312 0.0
H521 H 0.65629 0.7464 0.77149 0.0
H522 H 0.60153 0.63198 0.7408 0.0
H523 H 0.63595 0.6278 0.80108 0.0
H524 H 0.6301 0.62337 0.67919 0.0
H525 H 0.59867 0.73281 0.89742 0.0
H526 H 0.62041 0.75943 0.86273 0.0
H527 H 0.63476 0.7409 0.95182 0.0
C528 C 0.67375 0.39245 0.24242 0.0
C529 C 0.68814 0.37429 0.18586 0.0
C530 C 0.65598 0.41222 0.20852 0.0
C531 C 0.65243 0.41431 0.11526 0.0
C532 C 0.66781 0.39691 0.0582 0.0
C533 C 0.68547 0.37714 0.09409 0.0
C534 C 0.64023 0.43025 0.27238 0.0
C535 C 0.66487 0.39853 0.95858 0.0
C536 C 0.58256 0.4429 0.02236 0.0
C537 C 0.59026 0.47167 0.02598 0.0
C538 C 0.60269 0.42393 0.04818 0.0
C539 C 0.63149 0.4337 0.07779 0.0
C540 C 0.63959 0.4625 0.0786 0.0
C541 C 0.61893 0.48113 0.05327 0.0
C542 C 0.59285 0.39358 0.04703 0.0
C543 C 0.67 0.47387 0.10896 0.0
H544 H 0.67607 0.39093 0.31372 0.0
H545 H 0.69633 0.3632 0.04964 0.0
H546 H 0.64459 0.45292 0.26966 0.0
H547 H 0.61709 0.4253 0.25118 0.0
H548 H 0.64611 0.42688 0.34365 0.0
H549 H 0.6799 0.38541 0.92481 0.0
H550 H 0.64299 0.39117 0.9246 0.0
H551 H 0.66851 0.42072 0.94885 0.0
H552 H 0.56053 0.43525 0.00176 0.0
H553 H 0.6252 0.50323 0.05624 0.0
H554 H 0.59616 0.38889 0.1172 0.0
H555 H 0.60551 0.37916 0.00742 0.0
H556 H 0.57009 0.3889 0.01755 0.0
H557 H 0.67634 0.47323 0.18222 0.0
H558 H 0.67339 0.49597 0.09774 0.0
H559 H 0.68416 0.46049 0.07216 0.0
C560 C 0.93573 0.45939 0.44683 0.0
C561 C 0.96253 0.45634 0.41937 0.0
C562 C 0.91333 0.43712 0.42688 0.0
C563 C 0.91598 0.41035 0.37249 0.0
C564 C 0.9429 0.4075 0.34262 0.0
C565 C 0.96545 0.42965 0.36788 0.0
C566 C 0.8868 0.44287 0.4664 0.0
C567 C 0.94848 0.38105 0.2821 0.0
C568 C 0.87028 0.33766 0.35765 0.0
C569 C 0.84432 0.3402 0.30095 0.0
C570 C 0.89277 0.35986 0.38268 0.0
C571 C 0.89113 0.38593 0.3474 0.0
C572 C 0.86512 0.38818 0.28788 0.0
C573 C 0.84241 0.36621 0.26806 0.0
C574 C 0.91826 0.35483 0.44878 0.0
C575 C 0.8607 0.41378 0.24261 0.0
H576 H 0.9323 0.47931 0.48679 0.0
H577 H 0.98543 0.42615 0.34447 0.0
H578 H 0.87313 0.45509 0.42279 0.0
H579 H 0.87464 0.42324 0.47205 0.0
H580 H 0.89203 0.456 0.5348 0.0
H581 H 0.96059 0.36726 0.32407 0.0
H582 H 0.92874 0.3691 0.2446 0.0
H583 H 0.96173 0.38625 0.23218 0.0
H584 H 0.87291 0.31828 0.38525 0.0
H585 H 0.82311 0.36931 0.2239 0.0
H586 H 0.93004 0.37476 0.48526 0.0
H587 H 0.9327 0.34201 0.41145 0.0
H588 H 0.91188 0.34258 0.49961 0.0
H589 H 0.84785 0.4283 0.2811 0.0
H590 H 0.84864 0.40764 0.17282 0.0
H591 H 0.8809 0.42532 0.23872 0.0
C592 C 0.82657 0.68726 0.66454 0.0
C593 C 0.83451 0.71586 0.69875 0.0
C594 C 0.84672 0.66815 0.64077 0.0
C595 C 0.87566 0.67772 0.65108 0.0
C596 C 0.88392 0.70637 0.68815 0.0
C597 C 0.86335 0.72501 0.71146 0.0
C598 C 0.83685 0.63786 0.6015 0.0
C599 C 0.9144 0.71765 0.70019 0.0
C600 C 0.93068 0.62215 0.63461 0.0
C601 C 0.93385 0.6196 0.54317 0.0
C602 C 0.91226 0.64127 0.67141 0.0
C603 C 0.8967 0.65839 0.61571 0.0
C604 C 0.90068 0.65657 0.52435 0.0
C605 C 0.91909 0.63734 0.48955 0.0
C606 C 0.90882 0.64259 0.76919 0.0
C607 C 0.88492 0.67449 0.46235 0.0
H608 H 0.80443 0.67987 0.65435 0.0
H609 H 0.86986 0.74702 0.7377 0.0
H610 H 0.84003 0.63333 0.5298 0.0
H611 H 0.84958 0.62334 0.63878 0.0
H612 H 0.81413 0.63317 0.60403 0.0
H613 H 0.91779 0.7398 0.7364 0.0
H614 H 0.92839 0.7043 0.73848 0.0
H615 H 0.92097 0.71687 0.63288 0.0
H616 H 0.94181 0.60847 0.67647 0.0
H617 H 0.92175 0.63596 0.41936 0.0
H618 H 0.88678 0.6354 0.77281 0.0
H619 H 0.91257 0.66468 0.80537 0.0
H620 H 0.92354 0.62922 0.80503 0.0
H621 H 0.8618 0.66935 0.45484 0.0
H622 H 0.89103 0.67125 0.39391 0.0
H623 H 0.88905 0.69717 0.49213 0.0
C624 C 0.40697 0.37419 0.27267 0.0
C625 C 0.3965 0.34606 0.26227 0.0
C626 C 0.42626 0.38205 0.21927 0.0
C627 C 0.43488 0.36119 0.15392 0.0
C628 C 0.42762 0.33236 0.15281 0.0
C629 C 0.40856 0.32509 0.2078 0.0
C630 C 0.43459 0.41305 0.22513 0.0
C631 C 0.43724 0.3094 0.08674 0.0
C632 C 0.4345 0.39475 0.94773 0.0
C633 C 0.46258 0.40589 0.96196 0.0
C634 C 0.42575 0.37687 0.00402 0.0
C635 C 0.44563 0.37035 0.07623 0.0
C636 C 0.47467 0.37812 0.0823 0.0
C637 C 0.48287 0.3957 0.02422 0.0
C638 C 0.39462 0.36792 -0.00702 0.0
C639 C 0.49668 0.37071 0.15606 0.0
H640 H 0.39812 0.3904 0.31585 0.0
H641 H 0.40141 0.30311 0.2028 0.0
H642 H 0.45759 0.41642 0.22472 0.0
H643 H 0.42311 0.42083 0.16526 0.0
H644 H 0.42944 0.42593 0.28725 0.0
H645 H 0.43757 0.28901 0.11265 0.0
H646 H 0.4222 0.30632 0.02179 0.0
H647 H 0.45858 0.31502 0.07251 0.0
H648 H 0.4188 0.40208 0.89869 0.0
H649 H 0.50491 0.40326 0.03251 0.0
H650 H 0.38529 0.38033 0.04786 0.0
H651 H 0.39157 0.34528 -0.00164 0.0
H652 H 0.38278 0.37134 0.92681 0.0
H653 H 0.49844 0.38721 0.21709 0.0
H654 H 0.5178 0.3699 0.13468 0.0
H655 H 0.49093 0.35015 0.17537 0.0
C656 C 0.47143 0.60567 0.94625 0.0
C657 C 0.4638 0.57675 0.93962 0.0
C658 C 0.45138 0.62477 0.92106 0.0
C659 C 0.42274 0.61496 0.88841 0.0
C660 C 0.41468 0.58595 0.88421 0.0
C661 C 0.43525 0.56723 0.90958 0.0
C662 C 0.46115 0.65538 0.92639 0.0
C663 C 0.38445 0.5745 0.85007 0.0
C664 C 0.36873 0.67152 0.87421 0.0
C665 C 0.36714 0.67571 0.78393 0.0
C666 C 0.38601 0.65125 0.90875 0.0
C667 C 0.40199 0.63464 0.85169 0.0
C668 C 0.39945 0.63802 0.75961 0.0
C669 C 0.38214 0.65835 0.72714 0.0
C670 C 0.38797 0.64835 0.00719 0.0
C671 C 0.41582 0.62082 0.69574 0.0
H672 H 0.49336 0.61341 0.96925 0.0
H673 H 0.42902 0.54499 0.90407 0.0
H674 H 0.45852 0.66086 0.85722 0.0
H675 H 0.44799 0.66925 0.9658 0.0
H676 H 0.48371 0.66004 0.95831 0.0
H677 H 0.38101 0.55211 0.85837 0.0
H678 H 0.36982 0.58732 0.88656 0.0
H679 H 0.37878 0.57594 0.77713 0.0
H680 H 0.35739 0.68485 0.91879 0.0
H681 H 0.38067 0.66098 0.6569 0.0
H682 H 0.40959 0.65558 0.04378 0.0
H683 H 0.38426 0.62587 0.01373 0.0
H684 H 0.37249 0.6609 0.04066 0.0
H685 H 0.43886 0.62591 0.71889 0.0
H686 H 0.41039 0.62487 0.62507 0.0
H687 H 0.41158 0.59796 0.69593 0.0
C688 C 0.18486 0.7107 0.6184 0.0
C689 C 0.21142 0.7075 0.67068 0.0
C690 C 0.16224 0.68866 0.59377 0.0
C691 C 0.16443 0.66201 0.62522 0.0
C692 C 0.1911 0.65903 0.68032 0.0
C693 C 0.21387 0.68093 0.69966 0.0
C694 C 0.13601 0.69449 0.53231 0.0
C695 C 0.19617 0.63271 0.72132 0.0
C696 C 0.09045 0.61833 0.61 0.0
C697 C 0.09256 0.59219 0.55417 0.0
C698 C 0.1132 0.64026 0.63504 0.0
C699 C 0.13945 0.63778 0.60065 0.0
C700 C 0.14125 0.6116 0.54197 0.0
C701 C 0.11872 0.58948 0.52219 0.0
C702 C 0.10859 0.66605 0.70025 0.0
C703 C 0.16698 0.60635 0.49766 0.0
H704 H 0.1818 0.73056 0.59399 0.0
H705 H 0.23366 0.67734 0.74043 0.0
H706 H 0.12388 0.67488 0.49475 0.0
H707 H 0.12218 0.70681 0.57358 0.0
H708 H 0.14158 0.70754 0.48238 0.0
H709 H 0.20904 0.63805 0.79018 0.0
H710 H 0.17622 0.62094 0.72638 0.0
H711 H 0.20848 0.6187 0.67911 0.0
H712 H 0.07099 0.62153 0.63699 0.0
H713 H 0.12151 0.56997 0.47885 0.0
H714 H 0.09593 0.68046 0.66233 0.0
H715 H 0.12872 0.67761 0.73621 0.0
H716 H 0.09626 0.66012 0.75154 0.0
H717 H 0.17887 0.62619 0.49251 0.0
H718 H 0.16085 0.59389 0.42849 0.0
H719 H 0.18124 0.59365 0.53774 0.0
C720 C 0.19407 0.32683 0.26038 0.0
C721 C 0.22271 0.33643 0.27009 0.0
C722 C 0.1734 0.34518 0.2845 0.0
C723 C 0.18134 0.37403 0.31937 0.0
C724 C 0.21004 0.38406 0.32657 0.0
C725 C 0.23032 0.3652 0.30198 0.0
C726 C 0.14321 0.33339 0.27583 0.0
C727 C 0.21953 0.41458 0.36357 0.0
C728 C 0.1249 0.42801 0.33777 0.0
C729 C 0.12242 0.43068 0.42979 0.0
C730 C 0.14365 0.40943 0.30028 0.0
C731 C 0.16027 0.39304 0.35592 0.0
C732 C 0.15709 0.39503 0.44801 0.0
C733 C 0.13828 0.41366 0.48343 0.0
C734 C 0.14621 0.40785 0.20169 0.0
C735 C 0.17401 0.37786 0.50999 0.0
H736 H 0.18781 0.30467 0.23585 0.0
H737 H 0.2523 0.37291 0.30993 0.0
H738 H 0.13733 0.33444 0.34417 0.0
H739 H 0.12855 0.34624 0.2377 0.0
H740 H 0.13999 0.31108 0.24104 0.0
H741 H 0.242 0.41961 0.35842 0.0
H742 H 0.20607 0.42866 0.32661 0.0
H743 H 0.21708 0.41937 0.43589 0.0
H744 H 0.11292 0.44114 0.29586 0.0
H745 H 0.13616 0.41511 0.55409 0.0
H746 H 0.14263 0.38563 0.16649 0.0
H747 H 0.16796 0.41534 0.19593 0.0
H748 H 0.1309 0.4208 0.16632 0.0
H749 H 0.17016 0.35504 0.48188 0.0
H750 H 0.16867 0.38139 0.57944 0.0
H751 H 0.19696 0.38342 0.51472 0.0
C752 C 1.0224 1.00566 0.78934 0.0
C753 C 1.02679 0.03112 0.75773 0.0
C754 C 1.02473 1.00499 0.88264 0.0
C755 C 0.03066 0.03051 0.94547 0.0
C756 C 0.03426 0.05637 0.91344 0.0
C757 C 0.03278 0.05629 0.82008 0.0
C758 C 1.02146 0.9769 0.91405 0.0
C759 C 0.03954 0.08415 0.97773 0.0
C760 C 1.00957 0.03033 0.17677 0.0
C761 C 0.03581 0.0297 0.23193 0.0
C762 C 1.00768 0.03122 0.08395 0.0
C763 C 0.03257 0.03027 0.04456 0.0
C764 C 0.05917 0.02929 0.1 0.0
C765 C 0.06053 0.02962 0.19369 0.0
C766 C 0.97906 0.03345 0.02832 0.0
C767 C 0.08607 0.02738 0.06007 0.0
H768 H 1.01816 0.98613 0.74126 0.0
H769 H 0.03612 0.076 0.79566 0.0
H770 H 0.0408 0.97369 0.96118 0.0
H771 H 1.00348 0.97663 0.95191 0.0
H772 H 1.01774 0.95893 0.85675 0.0
H773 H 0.04058 0.10247 0.94157 0.0
H774 H 1.02246 0.08679 0.01935 0.0
H775 H 0.05975 0.08439 0.02501 0.0
H776 H 0.99047 0.03069 0.20686 0.0
H777 H 0.08078 0.02896 0.23654 0.0
H778 H 0.97359 1.01453 0.97506 0.0
H779 H 0.97966 0.05209 -0.00649 0.0
H780 H 0.96199 0.03542 0.07027 0.0
H781 H 0.084 1.00877 0.00533 0.0
H782 H 0.10484 1.02557 0.11161 0.0
H783 H 0.08982 0.04635 0.02911 0.0
C784 C 0.30175 0.775 0.43841 0.0
C785 C 0.27595 0.77577 0.47074 0.0
C786 C 0.30276 0.77525 0.34646 0.0
C787 C 0.27722 0.77505 0.2849 0.0
C788 C 0.25103 0.77535 0.31724 0.0
C789 C 0.25077 0.77631 0.41029 0.0
C790 C 0.33116 0.77606 0.31543 0.0
C791 C 0.22329 0.77416 0.25338 0.0
C792 C 0.27819 0.79953 0.0586 0.0
C793 C 0.27935 0.77396 0.00103 0.0
C794 C 0.2781 0.80026 0.15155 0.0
C795 C 0.27794 0.77465 0.18678 0.0
C796 C 0.27864 0.74869 0.12832 0.0
C797 C 0.27994 0.74872 0.03632 0.0
C798 C 0.2785 0.82844 0.21213 0.0
C799 C 0.27751 0.72088 0.16257 0.0
H800 H 0.32124 0.77482 0.48559 0.0
H801 H 0.23082 0.77666 0.4355 0.0
H802 H 0.33271 0.7568 0.26604 0.0
H803 H 0.33344 0.79444 0.28034 0.0
H804 H 0.34907 0.77754 0.37264 0.0
H805 H 0.20475 0.77327 0.2888 0.0
H806 H 0.22242 0.79299 0.21932 0.0
H807 H 0.22155 0.75531 0.19965 0.0
H808 H 0.27793 0.81906 0.03111 0.0
H809 H 0.28056 0.72893 -0.00866 0.0
H810 H 0.29672 0.83071 0.26848 0.0
H811 H 0.25899 0.82969 0.24291 0.0
H812 H 0.28003 0.84644 0.17485 0.0
H813 H 0.29623 0.72004 0.21514 0.0
H814 H 0.27696 0.70253 0.10754 0.0
H815 H 0.25844 0.71884 0.19478 0.0
C816 C 0.55385 1.02294 0.68283 0.0
C817 C 0.5287 1.02293 0.7188 0.0
C818 C 0.55343 1.02413 0.59048 0.0
C819 C 0.52715 1.02418 0.53253 0.0
C820 C 0.50166 1.02337 0.5685 0.0
C821 C 0.5028 1.02331 0.66155 0.0
C822 C 0.5811 1.02587 0.55526 0.0
C823 C 0.47317 1.02229 0.5086 0.0
C824 C 0.5234 0.05082 0.30742 0.0
C825 C 0.52413 1.02566 0.2474 0.0
C826 C 0.52499 0.05074 0.40084 0.0
C827 C 0.52621 1.02476 0.43409 0.0
C828 C 0.52614 0.99923 0.373 0.0
C829 C 0.52568 1.00007 0.28063 0.0
C830 C 0.5259 0.07847 0.46412 0.0
C831 C 0.52632 0.97102 0.40504 0.0
H832 H 0.57388 1.02291 0.72749 0.0
H833 H 0.48332 1.02309 0.68947 0.0
H834 H 0.58213 1.00728 0.50266 0.0
H835 H 0.58253 0.04493 0.52278 0.0
H836 H 0.59971 0.02679 0.6098 0.0
H837 H 0.45534 1.02043 0.54657 0.0
H838 H 0.4713 0.04162 0.47725 0.0
H839 H 0.47107 1.00402 0.45265 0.0
H840 H 0.52252 0.07063 0.28165 0.0
H841 H 0.52609 0.9806 0.23391 0.0
H842 H 0.54515 0.08074 0.51675 0.0
H843 H 0.50735 0.07894 0.49964 0.0
H844 H 0.52595 0.09686 0.42794 0.0
H845 H 0.54597 0.97002 0.45364 0.0
H846 H 0.52492 0.95307 0.34822 0.0
H847 H 0.50824 0.9684 0.44134 0.0
C848 C 0.3044 0.28619 0.93795 0.0
C849 C 0.2788 0.28259 0.96975 0.0
C850 C 0.30502 0.2838 0.84462 0.0
C851 C 0.27932 0.27866 0.78202 0.0
C852 C 0.25334 0.27585 0.81429 0.0
C853 C 0.25346 0.27731 0.90766 0.0
C854 C 0.33322 0.28617 0.81292 0.0
C855 C 0.2254 0.27148 0.7503 0.0
C856 C 0.28021 0.30005 0.55152 0.0
C857 C 0.28002 0.27387 0.49563 0.0
C858 C 0.27938 0.30184 0.64432 0.0
C859 C 0.27951 0.27687 0.68296 0.0
C860 C 0.27964 0.25032 0.62681 0.0
C861 C 0.27929 0.24909 0.53317 0.0
C862 C 0.27806 0.33044 0.70075 0.0
C863 C 0.28064 0.2233 0.66592 0.0
H864 H 0.32404 0.28985 0.9859 0.0
H865 H 0.23365 0.27456 0.93232 0.0
H866 H 0.33578 0.26678 0.76526 0.0
H867 H 0.3341 0.30418 0.77557 0.0
H868 H 0.3513 0.28922 0.87003 0.0
H869 H 0.20705 0.27097 0.78667 0.0
H870 H 0.2233 0.28868 0.70913 0.0
H871 H 0.22453 0.25133 0.70258 0.0
H872 H 0.28044 0.31921 0.52206 0.0
H873 H 0.2793 0.22889 0.4898 0.0
H874 H 0.29714 0.33524 0.75388 0.0
H875 H 0.2594 0.33039 0.73574 0.0
H876 H 0.27666 0.34763 0.65935 0.0
H877 H 0.2993 0.22469 0.72046 0.0
H878 H 0.28186 0.20454 0.61388 0.0
H879 H 0.26154 0.22011 0.69694 0.0
C880 C 0.80173 0.27546 0.93747 0.0
C881 C 0.776 0.27663 0.97027 0.0
C882 C 0.80264 0.27536 0.8453 0.0
C883 C 0.77708 0.27532 0.78401 0.0
C884 C 0.75097 0.27611 0.81677 0.0
C885 C 0.7508 0.2773 0.90996 0.0
C886 C 0.83098 0.27558 0.81371 0.0
C887 C 0.72321 0.27521 0.75322 0.0
C888 C 0.77839 0.29924 0.55716 0.0
C889 C 0.77893 0.27351 0.49963 0.0
C890 C 0.77835 0.30017 0.65017 0.0
C891 C 0.77772 0.27465 0.68574 0.0
C892 C 0.77787 0.24855 0.62749 0.0
C893 C 0.77902 0.24833 0.53527 0.0
C894 C 0.77926 0.32848 0.71048 0.0
C895 C 0.77632 0.22084 0.66226 0.0
H896 H 0.82124 0.27514 0.98438 0.0
H897 H 0.73088 0.27794 0.93535 0.0
H898 H 0.83214 0.25617 0.7645 0.0
H899 H 0.83352 0.29382 0.77822 0.0
H900 H 0.84894 0.27687 0.87066 0.0
H901 H 0.70471 0.27484 0.78904 0.0
H902 H 0.72264 0.29387 0.71843 0.0
H903 H 0.7211 0.25617 0.70004 0.0
H904 H 0.77853 0.31874 0.52956 0.0
H905 H 0.77918 0.22842 0.49047 0.0
H906 H 0.79758 0.33059 0.76644 0.0
H907 H 0.75987 0.33011 0.74181 0.0
H908 H 0.78097 0.34638 0.67284 0.0
H909 H 0.795 0.21985 0.71483 0.0
H910 H 0.77551 0.20238 0.60749 0.0
H911 H 0.75723 0.21919 0.69464 0.0
C912 C 0.80143 0.78313 0.44081 0.0
C913 C 0.77581 0.77967 0.47262 0.0
C914 C 0.80206 0.78068 0.34747 0.0
C915 C 0.77636 0.77566 0.28488 0.0
C916 C 0.75037 0.77299 0.31715 0.0
C917 C 0.75047 0.77448 0.41053 0.0
C918 C 0.83027 0.78288 0.31577 0.0
C919 C 0.72243 0.76874 0.25315 0.0
C920 C 0.77756 0.79709 0.05455 0.0
C921 C 0.7773 0.7709 -0.0014 0.0
C922 C 0.77663 0.79886 0.14729 0.0
C923 C 0.77659 0.77388 0.18583 0.0
C924 C 0.77664 0.74732 0.12963 0.0
C925 C 0.7764 0.74612 0.03604 0.0
C926 C 0.77541 0.82748 0.20378 0.0
C927 C 0.77747 0.72028 0.16864 0.0
H928 H 0.82108 0.78671 0.48875 0.0
H929 H 0.73064 0.77183 0.43521 0.0
H930 H 0.8327 0.76351 0.26787 0.0
H931 H 0.83131 0.80094 0.27871 0.0
H932 H 0.84835 0.78575 0.37286 0.0
H933 H 0.70407 0.76831 0.28951 0.0
H934 H 0.72042 0.78596 0.21204 0.0
H935 H 0.72148 0.7486 0.20538 0.0
H936 H 0.77792 0.81625 0.02517 0.0
H937 H 0.77634 0.7259 -0.00737 0.0
H938 H 0.79448 0.83219 0.25697 0.0
H939 H 0.75672 0.8275 0.23868 0.0
H940 H 0.77411 0.84468 0.16243 0.0
H941 H 0.79611 0.72158 0.2232 0.0
H942 H 0.7786 0.70152 0.11655 0.0
H943 H 0.75834 0.7172 0.19963 0.0
C944 C 0.55572 0.52597 0.68276 0.0
C945 C 0.53093 0.52429 0.72012 0.0
C946 C 0.55437 0.52554 0.58901 0.0
C947 C 0.52763 0.52463 0.53256 0.0
C948 C 0.50262 0.52382 0.57104 0.0
C949 C 0.50458 0.52309 0.66396 0.0
C950 C 0.58148 0.52555 0.55013 0.0
C951 C 0.47377 0.52402 0.51429 0.0
C952 C 0.52589 0.55044 0.30699 0.0
C953 C 0.52156 0.52504 0.2454 0.0
C954 C 0.52744 0.55064 0.40043 0.0
C955 C 0.52568 0.52472 0.43337 0.0
C956 C 0.52146 0.49897 0.37131 0.0
C957 C 0.51897 0.49947 0.27786 0.0
C958 C 0.53082 0.57859 0.46381 0.0
C959 C 0.52019 0.47086 0.40371 0.0
H960 H 0.57607 0.52675 0.72636 0.0
H961 H 0.4854 0.52211 0.69331 0.0
H962 H 0.58073 0.50693 0.49607 0.0
H963 H 0.58388 0.54464 0.51854 0.0
H964 H 0.60042 0.52509 0.60243 0.0
H965 H 0.45653 0.52479 0.55557 0.0
H966 H 0.47305 0.54255 0.47874 0.0
H967 H 0.46961 0.50485 0.46161 0.0
H968 H 0.52785 0.57024 0.28188 0.0
H969 H 0.51604 0.47978 0.23037 0.0
H970 H 0.55107 0.58025 0.51171 0.0
H971 H 0.51353 0.58002 0.50481 0.0
H972 H 0.53054 0.59684 0.42695 0.0
H973 H 0.53982 0.46903 0.45156 0.0
H974 H 0.51769 0.45276 0.34696 0.0
H975 H 0.50221 0.46933 0.44104 0.0
C976 C 0.0519 0.52498 0.8091 0.0
C977 C 1.02607 0.52527 0.75147 0.0
C978 C 0.05287 0.52534 0.90236 0.0
C979 C 1.02729 0.52481 0.93798 0.0
C980 C 1.00109 0.52459 0.87949 0.0
C981 C 1.00084 0.52541 0.78709 0.0
C982 C 0.08127 0.52666 0.96289 0.0
C983 C 0.97332 0.52303 0.91421 0.0
C984 C 0.03021 0.49867 0.16332 0.0
C985 C 0.02927 0.52389 0.22289 0.0
C986 C 0.02899 0.49859 0.07005 0.0
C987 C 1.02796 0.52449 0.03642 0.0
C988 C 1.02768 0.55009 0.09694 0.0
C989 C 1.02774 0.5494 0.18928 0.0
C990 C 0.02833 0.47077 0.00737 0.0
C991 C 1.02767 0.57822 0.06437 0.0
H992 H 0.07142 0.52513 0.78144 0.0
H993 H 0.98086 0.52542 0.74214 0.0
H994 H 0.08325 0.54515 0.01805 0.0
H995 H 0.08308 0.50753 -0.0047 0.0
H996 H 0.09919 0.5283 0.92516 0.0
H997 H 0.95479 0.52177 0.85918 0.0
H998 H 0.97187 0.50423 0.94789 0.0
H999 H 0.97213 0.54187 0.96569 0.0
H1000 H 0.03113 0.47891 0.18942 0.0
H1001 H 1.02721 0.56892 0.2357 0.0
H1002 H 0.04713 0.47019 0.97309 0.0
H1003 H 1.00933 0.46844 0.95374 0.0
H1004 H 1.02798 0.45245 0.0438 0.0
H1005 H 0.04596 0.58078 0.02899 0.0
H1006 H 0.0288 0.59624 0.12082 0.0
H1007 H 1.0082 0.57911 0.01484 0.0
loop_
_geom_bond_atom_site_label_1
_geom_bond_atom_site_label_2
_geom_bond_distance
_geom_bond_site_symmetry_2
_ccdc_geom_bond_type
Co0 N5 2.057 . S
Co0 O17 2.021 1_655 S
Co0 O20 2.062 . S
Co0 O24 2.117 1_565 S
Co0 O25 2.020 . S
C1 O21 1.259 . S
C1 O24 1.258 . S
Co2 N11 2.057 . S
Co2 O18 2.117 1_545 S
Co2 O19 2.020 . S
Co2 O21 2.021 1_455 S
Co2 O26 2.062 . S
C3 N5 1.316 . S
C3 N6 1.347 . S
C3 H8 0.931 . S
C4 N5 1.375 . S
C4 C7 1.350 . S
C4 H9 0.930 . S
N5 Co0 2.057 . S
N5 C3 1.316 . S
N5 C4 1.375 . S
N6 C3 1.347 . S
N6 C7 1.373 . S
C7 C4 1.350 . S
C7 N6 1.373 . S
C7 H28 0.931 . S
H8 C3 0.931 . S
H9 C4 0.930 . S
C10 O17 1.259 . S
C10 O18 1.258 . S
N11 Co2 2.057 . S
N11 C12 1.316 . S
N11 C13 1.375 . S
C12 N11 1.316 . S
C12 N14 1.347 . S
C12 H23 0.931 . S
C13 N11 1.375 . S
C13 C15 1.350 . S
C13 H22 0.930 . S
N14 C12 1.347 . S
N14 C15 1.373 . S
C15 C13 1.350 . S
C15 N14 1.373 . S
C15 H29 0.931 . S
C16 O19 1.256 . S
C16 O20 1.255 1_445 S
O17 Co0 2.021 1_455 S
O17 C10 1.259 . S
O18 Co2 2.117 1_565 S
O18 C10 1.258 . S
O19 Co2 2.020 . S
O19 C16 1.256 . S
O20 Co0 2.062 . S
O20 C16 1.255 1_665 S
O21 C1 1.259 . S
O21 Co2 2.021 1_655 S
H22 C13 0.930 . S
H23 C12 0.931 . S
O24 Co0 2.117 1_545 S
O24 C1 1.258 . S
O25 Co0 2.020 . S
O25 C27 1.256 . S
O26 Co2 2.062 . S
O26 C27 1.255 1_445 S
C27 O25 1.256 . S
C27 O26 1.255 1_665 S
H28 C7 0.931 . S
H29 C15 0.931 . S
Co30 N35 2.057 . S
Co30 O47 2.021 . S
Co30 O50 2.062 . S
Co30 O54 2.117 . S
Co30 O55 2.020 . S
C31 O51 1.259 . S
C31 O54 1.258 . S
Co32 N41 2.057 . S
Co32 O48 2.117 . S
Co32 O49 2.020 . S
Co32 O51 2.021 . S
Co32 O56 2.062 . S
C33 N35 1.316 . S
C33 N36 1.347 . S
C33 H38 0.931 . S
C34 N35 1.375 . S
C34 C37 1.350 . S
C34 H39 0.930 . S
N35 Co30 2.057 . S
N35 C33 1.316 . S
N35 C34 1.375 . S
N36 C33 1.347 . S
N36 C37 1.373 . S
C37 C34 1.350 . S
C37 N36 1.373 . S
C37 H58 0.931 . S
H38 C33 0.931 . S
H39 C34 0.930 . S
C40 O47 1.259 . S
C40 O48 1.258 . S
N41 Co32 2.057 . S
N41 C42 1.316 . S
N41 C43 1.375 . S
C42 N41 1.316 . S
C42 N44 1.347 . S
C42 H53 0.931 . S
C43 N41 1.375 . S
C43 C45 1.350 . S
C43 H52 0.930 . S
N44 C42 1.347 . S
N44 C45 1.373 . S
C45 C43 1.350 . S
C45 N44 1.373 . S
C45 H59 0.931 . S
C46 O49 1.256 . S
C46 O50 1.255 . S
O47 Co30 2.021 . S
O47 C40 1.259 . S
O48 Co32 2.117 . S
O48 C40 1.258 . S
O49 Co32 2.020 . S
O49 C46 1.256 . S
O50 Co30 2.062 . S
O50 C46 1.255 . S
O51 C31 1.259 . S
O51 Co32 2.021 . S
H52 C43 0.930 . S
H53 C42 0.931 . S
O54 Co30 2.117 . S
O54 C31 1.258 . S
O55 Co30 2.020 . S
O55 C57 1.256 . S
O56 Co32 2.062 . S
O56 C57 1.255 . S
C57 O55 1.256 . S
C57 O56 1.255 . S
H58 C37 0.931 . S
H59 C45 0.931 . S
Co60 N65 2.057 . S
Co60 O77 2.021 . S
Co60 O80 2.062 . S
Co60 O84 2.117 1_566 S
Co60 O85 2.020 1_556 S
C61 O81 1.259 . S
C61 O84 1.258 . S
Co62 N71 2.057 . S
Co62 O78 2.117 1_544 S
Co62 O79 2.020 1_554 S
Co62 O81 2.021 . S
Co62 O86 2.062 . S
C63 N65 1.316 . S
C63 N66 1.347 . S
C63 H68 0.931 . S
C64 N65 1.375 1_554 S
C64 C67 1.350 1_554 S
C64 H69 0.930 . S
N65 Co60 2.057 . S
N65 C63 1.316 . S
N65 C64 1.375 1_556 S
N66 C63 1.347 . S
N66 C67 1.373 . S
C67 C64 1.350 1_556 S
C67 N66 1.373 . S
C67 H88 0.931 . S
H68 C63 0.931 . S
H69 C64 0.930 . S
C70 O77 1.259 . S
C70 O78 1.258 . S
N71 Co62 2.057 . S
N71 C72 1.316 . S
N71 C73 1.375 1_554 S
C72 N71 1.316 . S
C72 N74 1.347 . S
C72 H83 0.931 . S
C73 N71 1.375 1_556 S
C73 C75 1.350 1_556 S
C73 H82 0.930 . S
N74 C72 1.347 . S
N74 C75 1.373 . S
C75 C73 1.350 1_554 S
C75 N74 1.373 . S
C75 H89 0.931 . S
C76 O79 1.267 . S
C76 O80 1.241 1_545 S
O77 Co60 2.021 . S
O77 C70 1.259 . S
O78 Co62 2.117 1_566 S
O78 C70 1.258 . S
O79 Co62 2.020 1_556 S
O79 C76 1.267 . S
O80 Co60 2.062 . S
O80 C76 1.241 1_565 S
O81 C61 1.259 . S
O81 Co62 2.021 . S
H82 C73 0.930 . S
H83 C72 0.931 . S
O84 Co60 2.117 1_544 S
O84 C61 1.258 . S
O85 Co60 2.020 1_554 S
O85 C87 1.261 . S
O86 Co62 2.062 . S
O86 C87 1.248 1_545 S
C87 O85 1.261 . S
C87 O86 1.248 1_565 S
H88 C67 0.931 . S
H89 C75 0.931 . S
Co90 N95 2.057 . S
Co90 O107 2.021 . S
Co90 O110 2.062 . S
Co90 O114 2.117 . S
Co90 O115 2.020 . S
C91 O111 1.259 . S
C91 O114 1.258 . S
Co92 N101 2.057 . S
Co92 O108 2.117 . S
Co92 O109 2.020 . S
Co92 O111 2.021 . S
Co92 O116 2.062 . S
C93 N95 1.316 . S
C93 N96 1.347 . S
C93 H98 0.931 . S
C94 N95 1.375 . S
C94 C97 1.350 . S
C94 H99 0.930 . S
N95 Co90 2.057 . S
N95 C93 1.316 . S
N95 C94 1.375 . S
N96 C93 1.347 . S
N96 C97 1.373 . S
C97 C94 1.350 . S
C97 N96 1.373 . S
C97 H118 0.931 . S
H98 C93 0.931 . S
H99 C94 0.930 . S
C100 O107 1.259 . S
C100 O108 1.258 . S
N101 Co92 2.057 . S
N101 C102 1.316 . S
N101 C103 1.375 . S
C102 N101 1.316 . S
C102 N104 1.347 . S
C102 H113 0.931 . S
C103 N101 1.375 . S
C103 C105 1.350 . S
C103 H112 0.930 . S
N104 C102 1.347 . S
N104 C105 1.373 . S
C105 C103 1.350 . S
C105 N104 1.373 . S
C105 H119 0.931 . S
C106 O109 1.256 . S
C106 O110 1.255 . S
O107 Co90 2.021 . S
O107 C100 1.259 . S
O108 Co92 2.117 . S
O108 C100 1.258 . S
O109 Co92 2.020 . S
O109 C106 1.256 . S
O110 Co90 2.062 . S
O110 C106 1.255 . S
O111 C91 1.259 . S
O111 Co92 2.021 . S
H112 C103 0.930 . S
H113 C102 0.931 . S
O114 Co90 2.117 . S
O114 C91 1.258 . S
O115 Co90 2.020 . S
O115 C117 1.256 . S
O116 Co92 2.062 . S
O116 C117 1.255 . S
C117 O115 1.256 . S
C117 O116 1.255 . S
H118 C97 0.931 . S
H119 C105 0.931 . S
Co120 N125 2.057 . S
Co120 O137 2.021 . S
Co120 O140 2.062 . S
Co120 O144 2.117 . S
Co120 O145 2.020 . S
C121 O141 1.259 . S
C121 O144 1.258 . S
Co122 N131 2.057 . S
Co122 O138 2.117 . S
Co122 O139 2.020 . S
Co122 O141 2.021 . S
Co122 O146 2.062 . S
C123 N125 1.316 . S
C123 N126 1.347 . S
C123 H128 0.931 . S
C124 N125 1.375 . S
C124 C127 1.350 . S
C124 H129 0.930 . S
N125 Co120 2.057 . S
N125 C123 1.316 . S
N125 C124 1.375 . S
N126 C123 1.347 . S
N126 C127 1.373 . S
C127 C124 1.350 . S
C127 N126 1.373 . S
C127 H148 0.931 . S
H128 C123 0.931 . S
H129 C124 0.930 . S
C130 O137 1.259 . S
C130 O138 1.258 . S
N131 Co122 2.057 . S
N131 C132 1.316 . S
N131 C133 1.375 . S
C132 N131 1.316 . S
C132 N134 1.347 . S
C132 H143 0.931 . S
C133 N131 1.375 . S
C133 C135 1.350 . S
C133 H142 0.930 . S
N134 C132 1.347 . S
N134 C135 1.373 . S
C135 C133 1.350 . S
C135 N134 1.373 . S
C135 H149 0.931 . S
C136 O139 1.256 . S
C136 O140 1.255 . S
O137 Co120 2.021 . S
O137 C130 1.259 . S
O138 Co122 2.117 . S
O138 C130 1.258 . S
O139 Co122 2.020 . S
O139 C136 1.256 . S
O140 Co120 2.062 . S
O140 C136 1.255 . S
O141 C121 1.259 . S
O141 Co122 2.021 . S
H142 C133 0.930 . S
H143 C132 0.931 . S
O144 Co120 2.117 . S
O144 C121 1.258 . S
O145 Co120 2.020 . S
O145 C147 1.256 . S
O146 Co122 2.062 . S
O146 C147 1.255 . S
C147 O145 1.256 . S
C147 O146 1.255 . S
H148 C127 0.931 . S
H149 C135 0.931 . S
Co150 N155 2.057 . S
Co150 O167 2.021 . S
Co150 O170 2.062 . S
Co150 O174 2.117 . S
Co150 O175 2.020 . S
C151 O171 1.259 . S
C151 O174 1.258 . S
Co152 N161 2.057 . S
Co152 O168 2.117 . S
Co152 O169 2.020 . S
Co152 O171 2.021 . S
Co152 O176 2.062 . S
C153 N155 1.316 . S
C153 N156 1.347 . S
C153 H158 0.931 . S
C154 N155 1.375 . S
C154 C157 1.350 . S
C154 H159 0.930 . S
N155 Co150 2.057 . S
N155 C153 1.316 . S
N155 C154 1.375 . S
N156 C153 1.347 . S
N156 C157 1.373 . S
C157 C154 1.350 . S
C157 N156 1.373 . S
C157 H178 0.931 . S
H158 C153 0.931 . S
H159 C154 0.930 . S
C160 O167 1.259 . S
C160 O168 1.258 . S
N161 Co152 2.057 . S
N161 C162 1.316 . S
N161 C163 1.375 . S
C162 N161 1.316 . S
C162 N164 1.347 . S
C162 H173 0.931 . S
C163 N161 1.375 . S
C163 C165 1.350 . S
C163 H172 0.930 . S
N164 C162 1.347 . S
N164 C165 1.373 . S
C165 C163 1.350 . S
C165 N164 1.373 . S
C165 H179 0.931 . S
C166 O169 1.256 . S
C166 O170 1.255 . S
O167 Co150 2.021 . S
O167 C160 1.259 . S
O168 Co152 2.117 . S
O168 C160 1.258 . S
O169 Co152 2.020 . S
O169 C166 1.256 . S
O170 Co150 2.062 . S
O170 C166 1.255 . S
O171 C151 1.259 . S
O171 Co152 2.021 . S
H172 C163 0.930 . S
H173 C162 0.931 . S
O174 Co150 2.117 . S
O174 C151 1.258 . S
O175 Co150 2.020 . S
O175 C177 1.256 . S
O176 Co152 2.062 . S
O176 C177 1.255 . S
C177 O175 1.256 . S
C177 O176 1.255 . S
H178 C157 0.931 . S
H179 C165 0.931 . S
Co180 N185 2.057 . S
Co180 O197 2.021 1_556 S
Co180 O200 2.062 1_556 S
Co180 O204 2.117 . S
Co180 O205 2.020 . S
C181 O201 1.259 . S
C181 O204 1.258 . S
Co182 N191 2.057 . S
Co182 O198 2.117 . S
Co182 O199 2.020 . S
Co182 O201 2.021 1_554 S
Co182 O206 2.062 1_554 S
C183 N185 1.316 1_554 S
C183 N186 1.347 . S
C183 H188 0.931 . S
C184 N185 1.375 . S
C184 C187 1.350 . S
C184 H189 0.930 . S
N185 Co180 2.057 . S
N185 C183 1.316 1_556 S
N185 C184 1.375 . S
N186 C183 1.347 . S
N186 C187 1.373 1_554 S
C187 C184 1.350 . S
C187 N186 1.373 1_556 S
C187 H208 0.931 . S
H188 C183 0.931 . S
H189 C184 0.930 . S
C190 O197 1.259 . S
C190 O198 1.258 . S
N191 Co182 2.057 . S
N191 C192 1.316 1_554 S
N191 C193 1.375 . S
C192 N191 1.316 1_556 S
C192 N194 1.347 . S
C192 H203 0.931 . S
C193 N191 1.375 . S
C193 C195 1.350 . S
C193 H202 0.930 . S
N194 C192 1.347 . S
N194 C195 1.373 1_556 S
C195 C193 1.350 . S
C195 N194 1.373 1_554 S
C195 H209 0.931 . S
C196 O199 1.256 . S
C196 O200 1.255 . S
O197 Co180 2.021 1_554 S
O197 C190 1.259 . S
O198 Co182 2.117 . S
O198 C190 1.258 . S
O199 Co182 2.020 . S
O199 C196 1.256 . S
O200 Co180 2.062 1_554 S
O200 C196 1.255 . S
O201 C181 1.259 . S
O201 Co182 2.021 1_556 S
H202 C193 0.930 . S
H203 C192 0.931 . S
O204 Co180 2.117 . S
O204 C181 1.258 . S
O205 Co180 2.020 . S
O205 C207 1.256 . S
O206 Co182 2.062 1_556 S
O206 C207 1.255 . S
C207 O205 1.256 . S
C207 O206 1.255 . S
H208 C187 0.931 . S
H209 C195 0.931 . S
Co210 N215 2.057 . S
Co210 O227 2.021 1_455 S
Co210 O230 2.062 . S
Co210 O234 2.117 . S
Co210 O235 2.020 . S
C211 O231 1.259 . S
C211 O234 1.258 . S
Co212 N221 2.057 . S
Co212 O228 2.117 . S
Co212 O229 2.020 . S
Co212 O231 2.021 1_655 S
Co212 O236 2.062 . S
C213 N215 1.316 . S
C213 N216 1.347 . S
C213 H218 0.931 . S
C214 N215 1.375 . S
C214 C217 1.350 . S
C214 H219 0.930 . S
N215 Co210 2.057 . S
N215 C213 1.316 . S
N215 C214 1.375 . S
N216 C213 1.347 . S
N216 C217 1.373 . S
C217 C214 1.350 . S
C217 N216 1.373 . S
C217 H238 0.931 . S
H218 C213 0.931 . S
H219 C214 0.930 . S
C220 O227 1.259 . S
C220 O228 1.258 . S
N221 Co212 2.057 . S
N221 C222 1.316 . S
N221 C223 1.375 . S
C222 N221 1.316 . S
C222 N224 1.347 . S
C222 H233 0.931 . S
C223 N221 1.375 . S
C223 C225 1.350 . S
C223 H232 0.930 . S
N224 C222 1.347 . S
N224 C225 1.373 . S
C225 C223 1.350 . S
C225 N224 1.373 . S
C225 H239 0.931 . S
C226 O229 1.256 . S
C226 O230 1.255 1_655 S
O227 Co210 2.021 1_655 S
O227 C220 1.259 . S
O228 Co212 2.117 . S
O228 C220 1.258 . S
O229 Co212 2.020 . S
O229 C226 1.256 . S
O230 Co210 2.062 . S
O230 C226 1.255 1_455 S
O231 C211 1.259 . S
O231 Co212 2.021 1_455 S
H232 C223 0.930 . S
H233 C222 0.931 . S
O234 Co210 2.117 . S
O234 C211 1.258 . S
O235 Co210 2.020 . S
O235 C237 1.256 . S
O236 Co212 2.062 . S
O236 C237 1.255 1_655 S
C237 O235 1.256 . S
C237 O236 1.255 1_455 S
H238 C217 0.931 . S
H239 C225 0.931 . S
C240 C241 1.391 . S
C240 C242 1.394 . S
C240 H256 0.931 . S
C241 C240 1.391 . S
C241 C245 1.376 . S
C242 C240 1.394 . S
C242 C243 1.369 . S
C242 C246 1.531 . S
C243 C242 1.369 . S
C243 C244 1.410 . S
C243 C251 1.503 . S
C244 C243 1.410 . S
C244 C245 1.392 . S
C244 C247 1.511 . S
C245 C241 1.376 . S
C245 C244 1.392 . S
C245 H257 0.929 . S
C246 C242 1.531 . S
C246 H258 0.960 . S
C246 H259 0.962 . S
C246 H260 0.960 . S
C247 C244 1.511 . S
C247 H261 0.961 . S
C247 H262 0.961 . S
C247 H263 0.961 . S
C248 C249 1.370 . S
C248 C250 1.363 . S
C248 H264 0.931 . S
C249 C248 1.370 . S
C249 C253 1.408 . S
C250 C248 1.363 . S
C250 C251 1.370 . S
C250 C254 1.524 . S
C251 C243 1.503 . S
C251 C250 1.370 . S
C251 C252 1.403 . S
C252 C251 1.403 . S
C252 C253 1.404 . S
C252 C255 1.539 . S
C253 C249 1.408 . S
C253 C252 1.404 . S
C253 H265 0.930 . S
C254 C250 1.524 . S
C254 H266 0.956 . S
C254 H267 0.961 . S
C254 H268 0.961 . S
C255 C252 1.539 . S
C255 H269 0.958 . S
C255 H270 0.961 . S
C255 H271 0.960 . S
H256 C240 0.931 . S
H257 C245 0.929 . S
H258 C246 0.960 . S
H259 C246 0.962 . S
H260 C246 0.960 . S
H261 C247 0.961 . S
H262 C247 0.961 . S
H263 C247 0.961 . S
H264 C248 0.931 . S
H265 C253 0.930 . S
H266 C254 0.956 . S
H267 C254 0.961 . S
H268 C254 0.961 . S
H269 C255 0.958 . S
H270 C255 0.961 . S
H271 C255 0.960 . S
C272 C273 1.391 . S
C272 C274 1.394 . S
C272 H288 0.931 . S
C273 C272 1.391 . S
C273 C277 1.376 . S
C274 C272 1.394 . S
C274 C275 1.369 . S
C274 C278 1.531 . S
C275 C274 1.369 . S
C275 C276 1.410 . S
C275 C283 1.503 . S
C276 C275 1.410 . S
C276 C277 1.392 . S
C276 C279 1.511 . S
C277 C273 1.376 . S
C277 C276 1.392 . S
C277 H289 0.929 . S
C278 C274 1.531 . S
C278 H290 0.960 . S
C278 H291 0.962 . S
C278 H292 0.960 . S
C279 C276 1.511 . S
C279 H293 0.961 . S
C279 H294 0.961 . S
C279 H295 0.961 . S
C280 C281 1.370 . S
C280 C282 1.363 . S
C280 H296 0.931 . S
C281 C280 1.370 . S
C281 C285 1.408 . S
C282 C280 1.363 . S
C282 C283 1.370 . S
C282 C286 1.524 . S
C283 C275 1.503 . S
C283 C282 1.370 . S
C283 C284 1.403 . S
C284 C283 1.403 . S
C284 C285 1.404 . S
C284 C287 1.539 . S
C285 C281 1.408 . S
C285 C284 1.404 . S
C285 H297 0.930 . S
C286 C282 1.524 . S
C286 H298 0.956 . S
C286 H299 0.961 . S
C286 H300 0.961 . S
C287 C284 1.539 . S
C287 H301 0.958 . S
C287 H302 0.961 . S
C287 H303 0.960 . S
H288 C272 0.931 . S
H289 C277 0.929 . S
H290 C278 0.960 . S
H291 C278 0.962 . S
H292 C278 0.960 . S
H293 C279 0.961 . S
H294 C279 0.961 . S
H295 C279 0.961 . S
H296 C280 0.931 . S
H297 C285 0.930 . S
H298 C286 0.956 . S
H299 C286 0.961 . S
H300 C286 0.961 . S
H301 C287 0.958 . S
H302 C287 0.961 . S
H303 C287 0.960 . S
C304 C305 1.391 . S
C304 C306 1.394 . S
C304 H320 0.931 . S
C305 C304 1.391 . S
C305 C309 1.376 . S
C306 C304 1.394 . S
C306 C307 1.369 . S
C306 C310 1.531 . S
C307 C306 1.369 . S
C307 C308 1.410 . S
C307 C315 1.503 . S
C308 C307 1.410 . S
C308 C309 1.392 . S
C308 C311 1.511 . S
C309 C305 1.376 . S
C309 C308 1.392 . S
C309 H321 0.929 . S
C310 C306 1.531 . S
C310 H322 0.960 1_556 S
C310 H323 0.962 . S
C310 H324 0.960 1_556 S
C311 C308 1.511 . S
C311 H325 0.961 . S
C311 H326 0.961 . S
C311 H327 0.961 . S
C312 C313 1.370 . S
C312 C314 1.363 . S
C312 H328 0.931 . S
C313 C312 1.370 . S
C313 C317 1.408 . S
C314 C312 1.363 . S
C314 C315 1.370 . S
C314 C318 1.524 . S
C315 C307 1.503 . S
C315 C314 1.370 . S
C315 C316 1.403 . S
C316 C315 1.403 . S
C316 C317 1.404 . S
C316 C319 1.539 1_556 S
C317 C313 1.408 . S
C317 C316 1.404 . S
C317 H329 0.930 1_556 S
C318 C314 1.524 . S
C318 H330 0.956 . S
C318 H331 0.961 . S
C318 H332 0.961 . S
C319 C316 1.539 1_554 S
C319 H333 0.958 . S
C319 H334 0.961 . S
C319 H335 0.960 1_554 S
H320 C304 0.931 . S
H321 C309 0.929 . S
H322 C310 0.960 1_554 S
H323 C310 0.962 . S
H324 C310 0.960 1_554 S
H325 C311 0.961 . S
H326 C311 0.961 . S
H327 C311 0.961 . S
H328 C312 0.931 . S
H329 C317 0.930 1_554 S
H330 C318 0.956 . S
H331 C318 0.961 . S
H332 C318 0.961 . S
H333 C319 0.958 . S
H334 C319 0.961 . S
H335 C319 0.960 1_556 S
C336 C337 1.391 . S
C336 C338 1.394 . S
C336 H352 0.931 . S
C337 C336 1.391 . S
C337 C341 1.376 . S
C338 C336 1.394 . S
C338 C339 1.369 . S
C338 C342 1.531 . S
C339 C338 1.369 . S
C339 C340 1.410 . S
C339 C347 1.503 . S
C340 C339 1.410 . S
C340 C341 1.392 . S
C340 C343 1.511 1_554 S
C341 C337 1.376 . S
C341 C340 1.392 . S
C341 H353 0.929 1_554 S
C342 C338 1.531 . S
C342 H354 0.960 . S
C342 H355 0.962 . S
C342 H356 0.960 . S
C343 C340 1.511 1_556 S
C343 H357 0.961 . S
C343 H358 0.961 . S
C343 H359 0.961 . S
C344 C345 1.370 . S
C344 C346 1.363 . S
C344 H360 0.931 . S
C345 C344 1.370 . S
C345 C349 1.408 . S
C346 C344 1.363 . S
C346 C347 1.370 . S
C346 C350 1.524 . S
C347 C339 1.503 . S
C347 C346 1.370 . S
C347 C348 1.403 . S
C348 C347 1.403 . S
C348 C349 1.404 . S
C348 C351 1.539 . S
C349 C345 1.408 . S
C349 C348 1.404 . S
C349 H361 0.930 . S
C350 C346 1.524 . S
C350 H362 0.956 . S
C350 H363 0.961 . S
C350 H364 0.961 . S
C351 C348 1.539 . S
C351 H365 0.958 . S
C351 H366 0.961 . S
C351 H367 0.960 . S
H352 C336 0.931 . S
H353 C341 0.929 1_556 S
H354 C342 0.960 . S
H355 C342 0.962 . S
H356 C342 0.960 . S
H357 C343 0.961 . S
H358 C343 0.961 . S
H359 C343 0.961 . S
H360 C344 0.931 . S
H361 C349 0.930 . S
H362 C350 0.956 . S
H363 C350 0.961 . S
H364 C350 0.961 . S
H365 C351 0.958 . S
H366 C351 0.961 . S
H367 C351 0.960 . S
C368 C369 1.391 . S
C368 C370 1.394 . S
C368 H384 0.931 . S
C369 C368 1.391 . S
C369 C373 1.376 . S
C370 C368 1.394 . S
C370 C371 1.369 . S
C370 C374 1.531 . S
C371 C370 1.369 . S
C371 C372 1.410 . S
C371 C379 1.503 . S
C372 C371 1.410 . S
C372 C373 1.392 . S
C372 C375 1.511 . S
C373 C369 1.376 . S
C373 C372 1.392 . S
C373 H385 0.929 . S
C374 C370 1.531 . S
C374 H386 0.960 . S
C374 H387 0.962 . S
C374 H388 0.960 . S
C375 C372 1.511 . S
C375 H389 0.961 . S
C375 H390 0.961 . S
C375 H391 0.961 . S
C376 C377 1.370 . S
C376 C378 1.363 . S
C376 H392 0.931 . S
C377 C376 1.370 . S
C377 C381 1.408 . S
C378 C376 1.363 . S
C378 C379 1.370 . S
C378 C382 1.524 . S
C379 C371 1.503 . S
C379 C378 1.370 . S
C379 C380 1.403 . S
C380 C379 1.403 . S
C380 C381 1.404 . S
C380 C383 1.539 . S
C381 C377 1.408 . S
C381 C380 1.404 . S
C381 H393 0.930 . S
C382 C378 1.524 . S
C382 H394 0.956 . S
C382 H395 0.961 . S
C382 H396 0.961 . S
C383 C380 1.539 . S
C383 H397 0.958 . S
C383 H398 0.961 . S
C383 H399 0.960 . S
H384 C368 0.931 . S
H385 C373 0.929 . S
H386 C374 0.960 . S
H387 C374 0.962 . S
H388 C374 0.960 . S
H389 C375 0.961 . S
H390 C375 0.961 . S
H391 C375 0.961 . S
H392 C376 0.931 . S
H393 C381 0.930 . S
H394 C382 0.956 . S
H395 C382 0.961 . S
H396 C382 0.961 . S
H397 C383 0.958 . S
H398 C383 0.961 . S
H399 C383 0.960 . S
C400 C401 1.391 . S
C400 C402 1.394 . S
C400 H416 0.931 . S
C401 C400 1.391 . S
C401 C405 1.376 . S
C402 C400 1.394 . S
C402 C403 1.369 . S
C402 C406 1.531 . S
C403 C402 1.369 . S
C403 C404 1.410 . S
C403 C411 1.503 . S
C404 C403 1.410 . S
C404 C405 1.392 . S
C404 C407 1.511 . S
C405 C401 1.376 . S
C405 C404 1.392 . S
C405 H417 0.929 . S
C406 C402 1.531 . S
C406 H418 0.960 . S
C406 H419 0.962 . S
C406 H420 0.960 . S
C407 C404 1.511 . S
C407 H421 0.961 . S
C407 H422 0.961 . S
C407 H423 0.961 . S
C408 C409 1.370 . S
C408 C410 1.363 . S
C408 H424 0.931 . S
C409 C408 1.370 . S
C409 C413 1.408 . S
C410 C408 1.363 . S
C410 C411 1.370 . S
C410 C414 1.524 . S
C411 C403 1.503 . S
C411 C410 1.370 . S
C411 C412 1.403 . S
C412 C411 1.403 . S
C412 C413 1.404 . S
C412 C415 1.539 . S
C413 C409 1.408 . S
C413 C412 1.404 . S
C413 H425 0.930 . S
C414 C410 1.524 . S
C414 H426 0.956 . S
C414 H427 0.961 . S
C414 H428 0.961 . S
C415 C412 1.539 . S
C415 H429 0.958 . S
C415 H430 0.961 . S
C415 H431 0.960 . S
H416 C400 0.931 . S
H417 C405 0.929 . S
H418 C406 0.960 . S
H419 C406 0.962 . S
H420 C406 0.960 . S
H421 C407 0.961 . S
H422 C407 0.961 . S
H423 C407 0.961 . S
H424 C408 0.931 . S
H425 C413 0.930 . S
H426 C414 0.956 . S
H427 C414 0.961 . S
H428 C414 0.961 . S
H429 C415 0.958 . S
H430 C415 0.961 . S
H431 C415 0.960 . S
C432 C433 1.391 . S
C432 C434 1.394 . S
C432 H448 0.931 . S
C433 C432 1.391 . S
C433 C437 1.376 . S
C434 C432 1.394 . S
C434 C435 1.369 . S
C434 C438 1.531 . S
C435 C434 1.369 . S
C435 C436 1.410 . S
C435 C443 1.503 . S
C436 C435 1.410 . S
C436 C437 1.392 . S
C436 C439 1.510 . S
C437 C433 1.376 . S
C437 C436 1.392 . S
C437 H449 0.929 . S
C438 C434 1.531 . S
C438 H450 0.960 . S
C438 H451 0.962 . S
C438 H452 0.960 . S
C439 C436 1.510 . S
C439 H453 0.961 1_554 S
C439 H454 0.961 . S
C439 H455 0.962 1_554 S
C440 C441 1.370 . S
C440 C442 1.363 . S
C440 H456 0.931 . S
C441 C440 1.370 . S
C441 C445 1.408 . S
C442 C440 1.363 . S
C442 C443 1.370 . S
C442 C446 1.524 . S
C443 C435 1.503 . S
C443 C442 1.370 . S
C443 C444 1.403 . S
C444 C443 1.403 . S
C444 C445 1.404 . S
C444 C447 1.539 1_554 S
C445 C441 1.408 . S
C445 C444 1.404 . S
C445 H457 0.930 1_554 S
C446 C442 1.524 . S
C446 H458 0.956 . S
C446 H459 0.961 . S
C446 H460 0.961 . S
C447 C444 1.539 1_556 S
C447 H461 0.958 . S
C447 H462 0.961 . S
C447 H463 0.960 . S
H448 C432 0.931 . S
H449 C437 0.929 . S
H450 C438 0.960 . S
H451 C438 0.962 . S
H452 C438 0.960 . S
H453 C439 0.961 1_556 S
H454 C439 0.961 . S
H455 C439 0.962 1_556 S
H456 C440 0.931 . S
H457 C445 0.930 1_556 S
H458 C446 0.956 . S
H459 C446 0.961 . S
H460 C446 0.961 . S
H461 C447 0.958 . S
H462 C447 0.961 . S
H463 C447 0.960 . S
C464 C465 1.391 . S
C464 C466 1.394 . S
C464 H480 0.931 . S
C465 C464 1.391 . S
C465 C469 1.376 . S
C466 C464 1.394 . S
C466 C467 1.369 . S
C466 C470 1.531 . S
C467 C466 1.369 . S
C467 C468 1.410 . S
C467 C475 1.503 . S
C468 C467 1.410 . S
C468 C469 1.392 . S
C468 C471 1.511 . S
C469 C465 1.376 . S
C469 C468 1.392 . S
C469 H481 0.929 . S
C470 C466 1.531 . S
C470 H482 0.960 . S
C470 H483 0.962 . S
C470 H484 0.960 . S
C471 C468 1.511 . S
C471 H485 0.961 . S
C471 H486 0.961 . S
C471 H487 0.961 . S
C472 C473 1.370 . S
C472 C474 1.363 . S
C472 H488 0.931 1_556 S
C473 C472 1.370 . S
C473 C477 1.408 . S
C474 C472 1.363 . S
C474 C475 1.370 . S
C474 C478 1.524 1_556 S
C475 C467 1.503 . S
C475 C474 1.370 . S
C475 C476 1.403 . S
C476 C475 1.403 . S
C476 C477 1.404 . S
C476 C479 1.539 . S
C477 C473 1.408 . S
C477 C476 1.404 . S
C477 H489 0.930 . S
C478 C474 1.524 1_554 S
C478 H490 0.956 1_554 S
C478 H491 0.961 . S
C478 H492 0.961 . S
C479 C476 1.539 . S
C479 H493 0.958 . S
C479 H494 0.961 . S
C479 H495 0.960 . S
H480 C464 0.931 . S
H481 C469 0.929 . S
H482 C470 0.960 . S
H483 C470 0.962 . S
H484 C470 0.960 . S
H485 C471 0.961 . S
H486 C471 0.961 . S
H487 C471 0.961 . S
H488 C472 0.931 1_554 S
H489 C477 0.930 . S
H490 C478 0.956 1_556 S
H491 C478 0.961 . S
H492 C478 0.961 . S
H493 C479 0.958 . S
H494 C479 0.961 . S
H495 C479 0.960 . S
C496 C497 1.391 . S
C496 C498 1.394 . S
C496 H512 0.931 . S
C497 C496 1.391 . S
C497 C501 1.377 . S
C498 C496 1.394 . S
C498 C499 1.369 . S
C498 C502 1.531 . S
C499 C498 1.369 . S
C499 C500 1.410 . S
C499 C507 1.503 . S
C500 C499 1.410 . S
C500 C501 1.395 . S
C500 C503 1.511 . S
C501 C497 1.377 . S
C501 C500 1.395 . S
C501 H513 0.925 1_556 S
C502 C498 1.531 . S
C502 H514 0.960 . S
C502 H515 0.962 . S
C502 H516 0.960 . S
C503 C500 1.511 . S
C503 H517 0.961 1_556 S
C503 H518 0.961 . S
C503 H519 0.961 1_556 S
C504 C505 1.370 . S
C504 C506 1.363 . S
C504 H520 0.931 . S
C505 C504 1.370 . S
C505 C509 1.408 . S
C506 C504 1.363 . S
C506 C507 1.370 . S
C506 C510 1.524 . S
C507 C499 1.503 . S
C507 C506 1.370 . S
C507 C508 1.403 . S
C508 C507 1.403 . S
C508 C509 1.404 . S
C508 C511 1.539 1_556 S
C509 C505 1.408 . S
C509 C508 1.404 . S
C509 H521 0.930 . S
C510 C506 1.524 . S
C510 H522 0.956 . S
C510 H523 0.961 . S
C510 H524 0.961 . S
C511 C508 1.539 1_554 S
C511 H525 0.958 . S
C511 H526 0.961 . S
C511 H527 0.960 . S
H512 C496 0.931 . S
H513 C501 0.925 1_554 S
H514 C502 0.960 . S
H515 C502 0.962 . S
H516 C502 0.960 . S
H517 C503 0.961 1_554 S
H518 C503 0.961 . S
H519 C503 0.961 1_554 S
H520 C504 0.931 . S
H521 C509 0.930 . S
H522 C510 0.956 . S
H523 C510 0.961 . S
H524 C510 0.961 . S
H525 C511 0.958 . S
H526 C511 0.961 . S
H527 C511 0.960 . S
C528 C529 1.391 . S
C528 C530 1.394 . S
C528 H544 0.931 . S
C529 C528 1.391 . S
C529 C533 1.376 . S
C530 C528 1.394 . S
C530 C531 1.369 . S
C530 C534 1.531 . S
C531 C530 1.369 . S
C531 C532 1.410 . S
C531 C539 1.503 . S
C532 C531 1.410 . S
C532 C533 1.392 . S
C532 C535 1.511 . S
C533 C529 1.376 . S
C533 C532 1.392 . S
C533 H545 0.929 . S
C534 C530 1.531 . S
C534 H546 0.960 . S
C534 H547 0.962 . S
C534 H548 0.960 . S
C535 C532 1.511 . S
C535 H549 0.961 . S
C535 H550 0.961 . S
C535 H551 0.961 1_554 S
C536 C537 1.370 . S
C536 C538 1.363 . S
C536 H552 0.931 . S
C537 C536 1.370 . S
C537 C541 1.408 1_554 S
C538 C536 1.363 . S
C538 C539 1.370 . S
C538 C542 1.524 . S
C539 C531 1.503 . S
C539 C538 1.370 . S
C539 C540 1.403 1_554 S
C540 C539 1.403 1_556 S
C540 C541 1.404 . S
C540 C543 1.539 . S
C541 C537 1.408 1_556 S
C541 C540 1.404 . S
C541 H553 0.930 . S
C542 C538 1.524 . S
C542 H554 0.956 . S
C542 H555 0.961 . S
C542 H556 0.961 . S
C543 C540 1.539 . S
C543 H557 0.958 . S
C543 H558 0.961 . S
C543 H559 0.960 . S
H544 C528 0.931 . S
H545 C533 0.929 . S
H546 C534 0.960 . S
H547 C534 0.962 . S
H548 C534 0.960 . S
H549 C535 0.961 . S
H550 C535 0.961 . S
H551 C535 0.961 1_556 S
H552 C536 0.931 . S
H553 C541 0.930 . S
H554 C542 0.956 . S
H555 C542 0.961 . S
H556 C542 0.961 . S
H557 C543 0.958 . S
H558 C543 0.961 . S
H559 C543 0.960 . S
C560 C561 1.391 . S
C560 C562 1.394 . S
C560 H576 0.931 . S
C561 C560 1.391 . S
C561 C565 1.376 . S
C562 C560 1.394 . S
C562 C563 1.369 . S
C562 C566 1.531 . S
C563 C562 1.369 . S
C563 C564 1.410 . S
C563 C571 1.503 . S
C564 C563 1.410 . S
C564 C565 1.392 . S
C564 C567 1.511 . S
C565 C561 1.376 . S
C565 C564 1.392 . S
C565 H577 0.929 . S
C566 C562 1.531 . S
C566 H578 0.960 . S
C566 H579 0.962 . S
C566 H580 0.960 . S
C567 C564 1.511 . S
C567 H581 0.961 . S
C567 H582 0.961 . S
C567 H583 0.961 . S
C568 C569 1.370 . S
C568 C570 1.363 . S
C568 H584 0.931 . S
C569 C568 1.370 . S
C569 C573 1.408 . S
C570 C568 1.363 . S
C570 C571 1.370 . S
C570 C574 1.524 . S
C571 C563 1.503 . S
C571 C570 1.370 . S
C571 C572 1.403 . S
C572 C571 1.403 . S
C572 C573 1.404 . S
C572 C575 1.539 . S
C573 C569 1.408 . S
C573 C572 1.404 . S
C573 H585 0.930 . S
C574 C570 1.524 . S
C574 H586 0.956 . S
C574 H587 0.961 . S
C574 H588 0.961 . S
C575 C572 1.539 . S
C575 H589 0.958 . S
C575 H590 0.961 . S
C575 H591 0.960 . S
H576 C560 0.931 . S
H577 C565 0.929 . S
H578 C566 0.960 . S
H579 C566 0.962 . S
H580 C566 0.960 . S
H581 C567 0.961 . S
H582 C567 0.961 . S
H583 C567 0.961 . S
H584 C568 0.931 . S
H585 C573 0.930 . S
H586 C574 0.956 . S
H587 C574 0.961 . S
H588 C574 0.961 . S
H589 C575 0.958 . S
H590 C575 0.961 . S
H591 C575 0.960 . S
C592 C593 1.391 . S
C592 C594 1.394 . S
C592 H608 0.931 . S
C593 C592 1.391 . S
C593 C597 1.376 . S
C594 C592 1.394 . S
C594 C595 1.369 . S
C594 C598 1.531 . S
C595 C594 1.369 . S
C595 C596 1.410 . S
C595 C603 1.503 . S
C596 C595 1.410 . S
C596 C597 1.392 . S
C596 C599 1.511 . S
C597 C593 1.376 . S
C597 C596 1.392 . S
C597 H609 0.929 . S
C598 C594 1.531 . S
C598 H610 0.960 . S
C598 H611 0.962 . S
C598 H612 0.960 . S
C599 C596 1.511 . S
C599 H613 0.961 . S
C599 H614 0.961 . S
C599 H615 0.961 . S
C600 C601 1.370 . S
C600 C602 1.363 . S
C600 H616 0.931 . S
C601 C600 1.370 . S
C601 C605 1.408 . S
C602 C600 1.363 . S
C602 C603 1.370 . S
C602 C606 1.524 . S
C603 C595 1.503 . S
C603 C602 1.370 . S
C603 C604 1.403 . S
C604 C603 1.403 . S
C604 C605 1.404 . S
C604 C607 1.539 . S
C605 C601 1.408 . S
C605 C604 1.404 . S
C605 H617 0.930 . S
C606 C602 1.524 . S
C606 H618 0.956 . S
C606 H619 0.961 . S
C606 H620 0.961 . S
C607 C604 1.539 . S
C607 H621 0.958 . S
C607 H622 0.961 . S
C607 H623 0.960 . S
H608 C592 0.931 . S
H609 C597 0.929 . S
H610 C598 0.960 . S
H611 C598 0.962 . S
H612 C598 0.960 . S
H613 C599 0.961 . S
H614 C599 0.961 . S
H615 C599 0.961 . S
H616 C600 0.931 . S
H617 C605 0.930 . S
H618 C606 0.956 . S
H619 C606 0.961 . S
H620 C606 0.961 . S
H621 C607 0.958 . S
H622 C607 0.961 . S
H623 C607 0.960 . S
C624 C625 1.391 . S
C624 C626 1.394 . S
C624 H640 0.931 . S
C625 C624 1.391 . S
C625 C629 1.376 . S
C626 C624 1.394 . S
C626 C627 1.369 . S
C626 C630 1.531 . S
C627 C626 1.369 . S
C627 C628 1.410 . S
C627 C635 1.503 . S
C628 C627 1.410 . S
C628 C629 1.392 . S
C628 C631 1.511 . S
C629 C625 1.376 . S
C629 C628 1.392 . S
C629 H641 0.929 . S
C630 C626 1.531 . S
C630 H642 0.960 . S
C630 H643 0.962 . S
C630 H644 0.960 . S
C631 C628 1.511 . S
C631 H645 0.961 . S
C631 H646 0.961 . S
C631 H647 0.961 . S
C632 C633 1.370 1_556 S
C632 C634 1.363 1_556 S
C632 H648 0.931 . S
C633 C632 1.370 1_554 S
C633 C637 1.408 . S
C634 C632 1.363 1_554 S
C634 C635 1.370 . S
C634 C638 1.524 1_554 S
C635 C627 1.503 . S
C635 C634 1.370 . S
C635 C636 1.403 . S
C636 C635 1.403 . S
C636 C637 1.404 . S
C636 C639 1.539 . S
C637 C633 1.408 . S
C637 C636 1.404 . S
C637 H649 0.930 . S
C638 C634 1.524 1_556 S
C638 H650 0.956 1_556 S
C638 H651 0.961 . S
C638 H652 0.961 . S
C639 C636 1.539 . S
C639 H653 0.958 . S
C639 H654 0.961 . S
C639 H655 0.960 . S
H640 C624 0.931 . S
H641 C629 0.929 . S
H642 C630 0.960 . S
H643 C630 0.962 . S
H644 C630 0.960 . S
H645 C631 0.961 . S
H646 C631 0.961 . S
H647 C631 0.961 . S
H648 C632 0.931 . S
H649 C637 0.930 . S
H650 C638 0.956 1_554 S
H651 C638 0.961 . S
H652 C638 0.961 . S
H653 C639 0.958 . S
H654 C639 0.961 . S
H655 C639 0.960 . S
C656 C657 1.391 . S
C656 C658 1.394 . S
C656 H672 0.931 . S
C657 C656 1.391 . S
C657 C661 1.376 1_556 S
C658 C656 1.394 . S
C658 C659 1.369 . S
C658 C662 1.531 . S
C659 C658 1.369 . S
C659 C660 1.410 . S
C659 C667 1.503 . S
C660 C659 1.410 . S
C660 C661 1.392 1_556 S
C660 C663 1.511 1_556 S
C661 C657 1.376 1_554 S
C661 C660 1.392 1_554 S
C661 H673 0.929 . S
C662 C658 1.531 . S
C662 H674 0.960 . S
C662 H675 0.962 . S
C662 H676 0.960 . S
C663 C660 1.511 1_554 S
C663 H677 0.961 . S
C663 H678 0.961 . S
C663 H679 0.961 . S
C664 C665 1.370 . S
C664 C666 1.363 . S
C664 H680 0.931 . S
C665 C664 1.370 . S
C665 C669 1.408 . S
C666 C664 1.363 . S
C666 C667 1.370 . S
C666 C670 1.524 . S
C667 C659 1.503 . S
C667 C666 1.370 . S
C667 C668 1.403 . S
C668 C667 1.403 . S
C668 C669 1.404 . S
C668 C671 1.539 . S
C669 C665 1.408 . S
C669 C668 1.404 . S
C669 H681 0.930 . S
C670 C666 1.524 . S
C670 H682 0.956 . S
C670 H683 0.961 1_556 S
C670 H684 0.961 1_556 S
C671 C668 1.539 . S
C671 H685 0.958 . S
C671 H686 0.961 . S
C671 H687 0.960 . S
H672 C656 0.931 . S
H673 C661 0.929 . S
H674 C662 0.960 . S
H675 C662 0.962 . S
H676 C662 0.960 . S
H677 C663 0.961 . S
H678 C663 0.961 . S
H679 C663 0.961 . S
H680 C664 0.931 . S
H681 C669 0.930 . S
H682 C670 0.956 . S
H683 C670 0.961 1_554 S
H684 C670 0.961 1_554 S
H685 C671 0.958 . S
H686 C671 0.961 . S
H687 C671 0.960 . S
C688 C689 1.391 . S
C688 C690 1.394 . S
C688 H704 0.931 . S
C689 C688 1.391 . S
C689 C693 1.376 . S
C690 C688 1.394 . S
C690 C691 1.369 . S
C690 C694 1.531 . S
C691 C690 1.369 . S
C691 C692 1.410 . S
C691 C699 1.503 . S
C692 C691 1.410 . S
C692 C693 1.392 . S
C692 C695 1.511 . S
C693 C689 1.376 . S
C693 C692 1.392 . S
C693 H705 0.929 . S
C694 C690 1.531 . S
C694 H706 0.960 . S
C694 H707 0.962 . S
C694 H708 0.960 . S
C695 C692 1.511 . S
C695 H709 0.961 . S
C695 H710 0.961 . S
C695 H711 0.961 . S
C696 C697 1.370 . S
C696 C698 1.363 . S
C696 H712 0.931 . S
C697 C696 1.370 . S
C697 C701 1.408 . S
C698 C696 1.363 . S
C698 C699 1.370 . S
C698 C702 1.524 . S
C699 C691 1.503 . S
C699 C698 1.370 . S
C699 C700 1.403 . S
C700 C699 1.403 . S
C700 C701 1.404 . S
C700 C703 1.539 . S
C701 C697 1.408 . S
C701 C700 1.404 . S
C701 H713 0.930 . S
C702 C698 1.524 . S
C702 H714 0.956 . S
C702 H715 0.961 . S
C702 H716 0.961 . S
C703 C700 1.539 . S
C703 H717 0.958 . S
C703 H718 0.961 . S
C703 H719 0.960 . S
H704 C688 0.931 . S
H705 C693 0.929 . S
H706 C694 0.960 . S
H707 C694 0.962 . S
H708 C694 0.960 . S
H709 C695 0.961 . S
H710 C695 0.961 . S
H711 C695 0.961 . S
H712 C696 0.931 . S
H713 C701 0.930 . S
H714 C702 0.956 . S
H715 C702 0.961 . S
H716 C702 0.961 . S
H717 C703 0.958 . S
H718 C703 0.961 . S
H719 C703 0.960 . S
C720 C721 1.391 . S
C720 C722 1.394 . S
C720 H736 0.931 . S
C721 C720 1.391 . S
C721 C725 1.376 . S
C722 C720 1.394 . S
C722 C723 1.369 . S
C722 C726 1.531 . S
C723 C722 1.369 . S
C723 C724 1.410 . S
C723 C731 1.503 . S
C724 C723 1.410 . S
C724 C725 1.392 . S
C724 C727 1.511 . S
C725 C721 1.376 . S
C725 C724 1.392 . S
C725 H737 0.929 . S
C726 C722 1.531 . S
C726 H738 0.960 . S
C726 H739 0.962 . S
C726 H740 0.960 . S
C727 C724 1.511 . S
C727 H741 0.961 . S
C727 H742 0.961 . S
C727 H743 0.961 . S
C728 C729 1.370 . S
C728 C730 1.363 . S
C728 H744 0.931 . S
C729 C728 1.370 . S
C729 C733 1.408 . S
C730 C728 1.363 . S
C730 C731 1.370 . S
C730 C734 1.524 . S
C731 C723 1.503 . S
C731 C730 1.370 . S
C731 C732 1.403 . S
C732 C731 1.403 . S
C732 C733 1.404 . S
C732 C735 1.539 . S
C733 C729 1.408 . S
C733 C732 1.404 . S
C733 H745 0.930 . S
C734 C730 1.524 . S
C734 H746 0.956 . S
C734 H747 0.961 . S
C734 H748 0.961 . S
C735 C732 1.539 . S
C735 H749 0.958 . S
C735 H750 0.961 . S
C735 H751 0.960 . S
H736 C720 0.931 . S
H737 C725 0.929 . S
H738 C726 0.960 . S
H739 C726 0.962 . S
H740 C726 0.960 . S
H741 C727 0.961 . S
H742 C727 0.961 . S
H743 C727 0.961 . S
H744 C728 0.931 . S
H745 C733 0.930 . S
H746 C734 0.956 . S
H747 C734 0.961 . S
H748 C734 0.961 . S
H749 C735 0.958 . S
H750 C735 0.961 . S
H751 C735 0.960 . S
C752 C753 1.391 1_665 S
C752 C754 1.394 . S
C752 H768 0.931 . S
C753 C752 1.391 1_445 S
C753 C757 1.376 . S
C754 C752 1.394 . S
C754 C755 1.369 1_655 S
C754 C758 1.531 . S
C755 C754 1.369 1_455 S
C755 C756 1.410 1_565 S
C755 C763 1.503 1_556 S
C756 C755 1.410 1_545 S
C756 C757 1.392 . S
C756 C759 1.511 . S
C757 C753 1.376 . S
C757 C756 1.392 . S
C757 H769 0.929 . S
C758 C754 1.531 . S
C758 H770 0.960 . S
C758 H771 0.962 . S
C758 H772 0.960 . S
C759 C756 1.511 . S
C759 H773 0.961 . S
C759 H774 0.961 1_556 S
C759 H775 0.961 1_556 S
C760 C761 1.379 1_545 S
C760 C762 1.363 . S
C760 H776 0.931 . S
C761 C760 1.379 1_565 S
C761 C765 1.396 1_655 S
C762 C760 1.363 . S
C762 C763 1.370 1_645 S
C762 C766 1.524 . S
C763 C755 1.503 1_554 S
C763 C762 1.370 1_465 S
C763 C764 1.403 . S
C764 C763 1.403 . S
C764 C765 1.404 . S
C764 C767 1.539 . S
C765 C761 1.396 1_455 S
C765 C764 1.404 . S
C765 H777 0.930 . S
C766 C762 1.524 . S
C766 H778 0.956 . S
C766 H779 0.961 . S
C766 H780 0.961 . S
C767 C764 1.539 . S
C767 H781 0.958 . S
C767 H782 0.961 . S
C767 H783 0.960 1_554 S
H768 C752 0.931 . S
H769 C757 0.929 . S
H770 C758 0.960 . S
H771 C758 0.962 . S
H772 C758 0.960 . S
H773 C759 0.961 . S
H774 C759 0.961 1_554 S
H775 C759 0.961 1_554 S
H776 C760 0.931 . S
H777 C765 0.930 . S
H778 C766 0.956 . S
H779 C766 0.961 . S
H780 C766 0.961 . S
H781 C767 0.958 . S
H782 C767 0.961 . S
H783 C767 0.960 1_556 S
C784 C785 1.391 . S
C784 C786 1.394 . S
C784 H800 0.931 . S
C785 C784 1.391 . S
C785 C789 1.376 . S
C786 C784 1.394 . S
C786 C787 1.369 . S
C786 C790 1.531 . S
C787 C786 1.369 . S
C787 C788 1.410 . S
C787 C795 1.503 . S
C788 C787 1.410 . S
C788 C789 1.392 . S
C788 C791 1.511 . S
C789 C785 1.376 . S
C789 C788 1.392 . S
C789 H801 0.929 . S
C790 C786 1.531 . S
C790 H802 0.960 . S
C790 H803 0.962 . S
C790 H804 0.960 . S
C791 C788 1.511 . S
C791 H805 0.961 . S
C791 H806 0.961 . S
C791 H807 0.961 . S
C792 C793 1.370 . S
C792 C794 1.363 . S
C792 H808 0.931 . S
C793 C792 1.370 . S
C793 C797 1.408 . S
C794 C792 1.363 . S
C794 C795 1.370 . S
C794 C798 1.524 . S
C795 C787 1.503 . S
C795 C794 1.370 . S
C795 C796 1.403 . S
C796 C795 1.403 . S
C796 C797 1.404 . S
C796 C799 1.539 . S
C797 C793 1.408 . S
C797 C796 1.404 . S
C797 H809 0.930 1_554 S
C798 C794 1.524 . S
C798 H810 0.956 . S
C798 H811 0.961 . S
C798 H812 0.961 . S
C799 C796 1.539 . S
C799 H813 0.958 . S
C799 H814 0.961 . S
C799 H815 0.960 . S
H800 C784 0.931 . S
H801 C789 0.929 . S
H802 C790 0.960 . S
H803 C790 0.962 . S
H804 C790 0.960 . S
H805 C791 0.961 . S
H806 C791 0.961 . S
H807 C791 0.961 . S
H808 C792 0.931 . S
H809 C797 0.930 1_556 S
H810 C798 0.956 . S
H811 C798 0.961 . S
H812 C798 0.961 . S
H813 C799 0.958 . S
H814 C799 0.961 . S
H815 C799 0.960 . S
C816 C817 1.391 . S
C816 C818 1.394 . S
C816 H832 0.931 . S
C817 C816 1.391 . S
C817 C821 1.376 1_565 S
C818 C816 1.394 . S
C818 C819 1.369 . S
C818 C822 1.531 . S
C819 C818 1.369 . S
C819 C820 1.410 1_565 S
C819 C827 1.503 . S
C820 C819 1.410 1_545 S
C820 C821 1.392 . S
C820 C823 1.511 . S
C821 C817 1.376 1_545 S
C821 C820 1.392 . S
C821 H833 0.929 . S
C822 C818 1.531 . S
C822 H834 0.960 . S
C822 H835 0.962 . S
C822 H836 0.960 . S
C823 C820 1.511 . S
C823 H837 0.961 . S
C823 H838 0.961 . S
C823 H839 0.961 . S
C824 C825 1.370 1_545 S
C824 C826 1.363 . S
C824 H840 0.931 . S
C825 C824 1.370 1_565 S
C825 C829 1.408 . S
C826 C824 1.363 . S
C826 C827 1.370 1_545 S
C826 C830 1.524 . S
C827 C819 1.503 . S
C827 C826 1.370 1_565 S
C827 C828 1.403 . S
C828 C827 1.403 . S
C828 C829 1.404 . S
C828 C831 1.539 . S
C829 C825 1.408 . S
C829 C828 1.404 . S
C829 H841 0.930 . S
C830 C826 1.524 . S
C830 H842 0.956 . S
C830 H843 0.961 . S
C830 H844 0.961 . S
C831 C828 1.539 . S
C831 H845 0.958 . S
C831 H846 0.961 . S
C831 H847 0.960 . S
H832 C816 0.931 . S
H833 C821 0.929 . S
H834 C822 0.960 . S
H835 C822 0.962 . S
H836 C822 0.960 . S
H837 C823 0.961 . S
H838 C823 0.961 . S
H839 C823 0.961 . S
H840 C824 0.931 . S
H841 C829 0.930 . S
H842 C830 0.956 . S
H843 C830 0.961 . S
H844 C830 0.961 . S
H845 C831 0.958 . S
H846 C831 0.961 . S
H847 C831 0.960 . S
C848 C849 1.391 . S
C848 C850 1.394 . S
C848 H864 0.931 1_556 S
C849 C848 1.391 . S
C849 C853 1.376 . S
C850 C848 1.394 . S
C850 C851 1.369 . S
C850 C854 1.531 . S
C851 C850 1.369 . S
C851 C852 1.410 . S
C851 C859 1.503 . S
C852 C851 1.410 . S
C852 C853 1.392 . S
C852 C855 1.511 . S
C853 C849 1.376 . S
C853 C852 1.392 . S
C853 H865 0.929 . S
C854 C850 1.531 . S
C854 H866 0.960 . S
C854 H867 0.962 . S
C854 H868 0.960 . S
C855 C852 1.511 . S
C855 H869 0.961 . S
C855 H870 0.961 . S
C855 H871 0.961 . S
C856 C857 1.370 . S
C856 C858 1.363 . S
C856 H872 0.931 . S
C857 C856 1.370 . S
C857 C861 1.408 . S
C858 C856 1.363 . S
C858 C859 1.370 . S
C858 C862 1.524 . S
C859 C851 1.503 . S
C859 C858 1.370 . S
C859 C860 1.403 . S
C860 C859 1.403 . S
C860 C861 1.404 . S
C860 C863 1.539 . S
C861 C857 1.408 . S
C861 C860 1.404 . S
C861 H873 0.930 . S
C862 C858 1.524 . S
C862 H874 0.956 . S
C862 H875 0.961 . S
C862 H876 0.961 . S
C863 C860 1.539 . S
C863 H877 0.958 . S
C863 H878 0.961 . S
C863 H879 0.960 . S
H864 C848 0.931 1_554 S
H865 C853 0.929 . S
H866 C854 0.960 . S
H867 C854 0.962 . S
H868 C854 0.960 . S
H869 C855 0.961 . S
H870 C855 0.961 . S
H871 C855 0.961 . S
H872 C856 0.931 . S
H873 C861 0.930 . S
H874 C862 0.956 . S
H875 C862 0.961 . S
H876 C862 0.961 . S
H877 C863 0.958 . S
H878 C863 0.961 . S
H879 C863 0.960 . S
C880 C881 1.391 . S
C880 C882 1.394 . S
C880 H896 0.931 . S
C881 C880 1.391 . S
C881 C885 1.376 . S
C882 C880 1.394 . S
C882 C883 1.369 . S
C882 C886 1.531 . S
C883 C882 1.369 . S
C883 C884 1.410 . S
C883 C891 1.503 . S
C884 C883 1.410 . S
C884 C885 1.392 . S
C884 C887 1.511 . S
C885 C881 1.376 . S
C885 C884 1.392 . S
C885 H897 0.929 . S
C886 C882 1.531 . S
C886 H898 0.960 . S
C886 H899 0.962 . S
C886 H900 0.960 . S
C887 C884 1.511 . S
C887 H901 0.961 . S
C887 H902 0.961 . S
C887 H903 0.961 . S
C888 C889 1.370 . S
C888 C890 1.363 . S
C888 H904 0.931 . S
C889 C888 1.370 . S
C889 C893 1.408 . S
C890 C888 1.363 . S
C890 C891 1.370 . S
C890 C894 1.524 . S
C891 C883 1.503 . S
C891 C890 1.370 . S
C891 C892 1.403 . S
C892 C891 1.403 . S
C892 C893 1.404 . S
C892 C895 1.539 . S
C893 C889 1.408 . S
C893 C892 1.404 . S
C893 H905 0.930 . S
C894 C890 1.524 . S
C894 H906 0.956 . S
C894 H907 0.961 . S
C894 H908 0.961 . S
C895 C892 1.539 . S
C895 H909 0.958 . S
C895 H910 0.961 . S
C895 H911 0.960 . S
H896 C880 0.931 . S
H897 C885 0.929 . S
H898 C886 0.960 . S
H899 C886 0.962 . S
H900 C886 0.960 . S
H901 C887 0.961 . S
H902 C887 0.961 . S
H903 C887 0.961 . S
H904 C888 0.931 . S
H905 C893 0.930 . S
H906 C894 0.956 . S
H907 C894 0.961 . S
H908 C894 0.961 . S
H909 C895 0.958 . S
H910 C895 0.961 . S
H911 C895 0.960 . S
C912 C913 1.391 . S
C912 C914 1.394 . S
C912 H928 0.931 . S
C913 C912 1.391 . S
C913 C917 1.376 . S
C914 C912 1.394 . S
C914 C915 1.369 . S
C914 C918 1.531 . S
C915 C914 1.369 . S
C915 C916 1.410 . S
C915 C923 1.503 . S
C916 C915 1.410 . S
C916 C917 1.392 . S
C916 C919 1.511 . S
C917 C913 1.376 . S
C917 C916 1.392 . S
C917 H929 0.929 . S
C918 C914 1.531 . S
C918 H930 0.960 . S
C918 H931 0.962 . S
C918 H932 0.960 . S
C919 C916 1.511 . S
C919 H933 0.961 . S
C919 H934 0.961 . S
C919 H935 0.961 . S
C920 C921 1.370 . S
C920 C922 1.363 . S
C920 H936 0.931 . S
C921 C920 1.370 . S
C921 C925 1.408 . S
C922 C920 1.363 . S
C922 C923 1.370 . S
C922 C926 1.524 . S
C923 C915 1.503 . S
C923 C922 1.370 . S
C923 C924 1.403 . S
C924 C923 1.403 . S
C924 C925 1.404 . S
C924 C927 1.539 . S
C925 C921 1.408 . S
C925 C924 1.404 . S
C925 H937 0.930 1_554 S
C926 C922 1.524 . S
C926 H938 0.956 . S
C926 H939 0.961 . S
C926 H940 0.961 . S
C927 C924 1.539 . S
C927 H941 0.958 . S
C927 H942 0.961 . S
C927 H943 0.960 . S
H928 C912 0.931 . S
H929 C917 0.929 . S
H930 C918 0.960 . S
H931 C918 0.962 . S
H932 C918 0.960 . S
H933 C919 0.961 . S
H934 C919 0.961 . S
H935 C919 0.961 . S
H936 C920 0.931 . S
H937 C925 0.930 1_556 S
H938 C926 0.956 . S
H939 C926 0.961 . S
H940 C926 0.961 . S
H941 C927 0.958 . S
H942 C927 0.961 . S
H943 C927 0.960 . S
C944 C945 1.391 . S
C944 C946 1.394 . S
C944 H960 0.931 . S
C945 C944 1.391 . S
C945 C949 1.376 . S
C946 C944 1.394 . S
C946 C947 1.369 . S
C946 C950 1.531 . S
C947 C946 1.369 . S
C947 C948 1.410 . S
C947 C955 1.503 . S
C948 C947 1.410 . S
C948 C949 1.392 . S
C948 C951 1.511 . S
C949 C945 1.376 . S
C949 C948 1.392 . S
C949 H961 0.929 . S
C950 C946 1.531 . S
C950 H962 0.960 . S
C950 H963 0.962 . S
C950 H964 0.960 . S
C951 C948 1.511 . S
C951 H965 0.961 . S
C951 H966 0.961 . S
C951 H967 0.961 . S
C952 C953 1.370 . S
C952 C954 1.363 . S
C952 H968 0.931 . S
C953 C952 1.370 . S
C953 C957 1.408 . S
C954 C952 1.363 . S
C954 C955 1.370 . S
C954 C958 1.524 . S
C955 C947 1.503 . S
C955 C954 1.370 . S
C955 C956 1.403 . S
C956 C955 1.403 . S
C956 C957 1.404 . S
C956 C959 1.539 . S
C957 C953 1.408 . S
C957 C956 1.404 . S
C957 H969 0.930 . S
C958 C954 1.524 . S
C958 H970 0.956 . S
C958 H971 0.961 . S
C958 H972 0.961 . S
C959 C956 1.539 . S
C959 H973 0.958 . S
C959 H974 0.961 . S
C959 H975 0.960 . S
H960 C944 0.931 . S
H961 C949 0.929 . S
H962 C950 0.960 . S
H963 C950 0.962 . S
H964 C950 0.960 . S
H965 C951 0.961 . S
H966 C951 0.961 . S
H967 C951 0.961 . S
H968 C952 0.931 . S
H969 C957 0.930 . S
H970 C958 0.956 . S
H971 C958 0.961 . S
H972 C958 0.961 . S
H973 C959 0.958 . S
H974 C959 0.961 . S
H975 C959 0.960 . S
C976 C977 1.391 . S
C976 C978 1.394 . S
C976 H992 0.931 . S
C977 C976 1.391 . S
C977 C981 1.376 1_455 S
C978 C976 1.394 . S
C978 C979 1.369 . S
C978 C982 1.531 . S
C979 C978 1.369 . S
C979 C980 1.410 1_455 S
C979 C987 1.505 1_556 S
C980 C979 1.410 1_655 S
C980 C981 1.392 . S
C980 C983 1.511 . S
C981 C977 1.376 1_655 S
C981 C980 1.392 . S
C981 H993 0.929 . S
C982 C978 1.531 . S
C982 H994 0.960 1_556 S
C982 H995 0.962 . S
C982 H996 0.960 . S
C983 C980 1.511 . S
C983 H997 0.961 . S
C983 H998 0.961 . S
C983 H999 0.961 . S
C984 C985 1.370 . S
C984 C986 1.363 . S
C984 H1000 0.931 . S
C985 C984 1.370 . S
C985 C989 1.404 1_655 S
C986 C984 1.363 . S
C986 C987 1.369 1_655 S
C986 C990 1.524 . S
C987 C979 1.505 1_554 S
C987 C986 1.369 1_455 S
C987 C988 1.402 . S
C988 C987 1.402 . S
C988 C989 1.410 . S
C988 C991 1.539 . S
C989 C985 1.404 1_455 S
C989 C988 1.410 . S
C989 H1001 0.929 . S
C990 C986 1.524 . S
C990 H1002 0.956 1_654 S
C990 H1003 0.961 1_554 S
C990 H1004 0.961 . S
C991 C988 1.539 . S
C991 H1005 0.958 . S
C991 H1006 0.961 1_455 S
C991 H1007 0.960 1_455 S
H992 C976 0.931 . S
H993 C981 0.929 . S
H994 C982 0.960 1_554 S
H995 C982 0.962 . S
H996 C982 0.960 . S
H997 C983 0.961 . S
H998 C983 0.961 . S
H999 C983 0.961 . S
H1000 C984 0.931 . S
H1001 C989 0.929 . S
H1002 C990 0.956 1_456 S
H1003 C990 0.961 1_556 S
H1004 C990 0.961 . S
H1005 C991 0.958 . S
H1006 C991 0.961 1_655 S
H1007 C991 0.960 1_655 S
C241 N14 0.597 . S
C249 N104 0.591 . S
C273 C10 1.511 . S
C281 N44 1.465 . S
C305 C40 2.747 . S
C313 C70 2.755 . S
C337 N74 1.490 . S
C345 C100 1.497 . S
C369 N6 0.561 . S
C377 N156 0.579 . S
C401 C1 1.498 . S
C409 N126 1.488 . S
C433 C121 2.747 . S
C441 C61 2.748 . S
C465 C151 1.501 . S
C473 N66 1.489 . S
C497 N194 0.619 . S
C505 N164 0.592 . S
C529 N134 1.482 . S
C537 C190 1.507 . S
C561 C220 2.752 . S
C569 C130 2.757 . S
C593 C160 1.492 . S
C601 N224 1.484 . S
C625 N96 0.614 . S
C633 N186 0.595 . S
C657 C181 1.508 . S
C665 N36 1.466 . S
C689 C31 2.750 . S
C697 C211 2.749 . S
C721 C91 1.502 . S
C729 N216 1.464 . S
C753 C16 1.257 . S
C761 C27 1.280 . S
C785 C57 1.228 . S
C793 C46 1.231 1_554 S
C817 C76 1.228 1_565 S
C825 C87 1.232 . S
C849 C106 1.267 1_556 S
C857 C117 1.273 . S
C881 C147 1.229 1_556 S
C889 C136 1.231 . S
C913 C166 1.274 . S
C921 C177 1.270 1_554 S
C945 C207 1.285 . S
C953 C196 1.267 . S
C977 C237 1.226 . S
C985 C226 1.232 . S
