# Generated by pormake.
# Topology uov, (4)-cn, num edge types: 1
# Building blocks:
#     Node 0, Type 0, BuildingBlock: UXUYUI_clean_sbu_0, # of connection points: 4
#     Node 1, Type 0, BuildingBlock: UXUYUI_clean_sbu_0, # of connection points: 4
#     Node 2, Type 0, BuildingBlock: UXUYUI_clean_sbu_0, # of connection points: 4
#     Node 3, Type 0, BuildingBlock: UXUYUI_clean_sbu_0, # of connection points: 4
#     Node 4, Type 0, BuildingBlock: UXUYUI_clean_sbu_0, # of connection points: 4
#     Node 5, Type 0, BuildingBlock: UXUYUI_clean_sbu_0, # of connection points: 4
#     Node 6, Type 0, BuildingBlock: UXUYUI_clean_sbu_0, # of connection points: 4
#     Node 7, Type 0, BuildingBlock: UXUYUI_clean_sbu_0, # of connection points: 4
#     Edge 8, Type (0, 0), BuildingBlock: OJICUG_clean_linker_0, # of connection points: 2
#     Edge 9, Type (0, 0), BuildingBlock: OJICUG_clean_linker_0, # of connection points: 2
#     Edge 10, Type (0, 0), BuildingBlock: OJICUG_clean_linker_0, # of connection points: 2
#     Edge 11, Type (0, 0), BuildingBlock: OJICUG_clean_linker_0, # of connection points: 2
#     Edge 12, Type (0, 0), BuildingBlock: OJICUG_clean_linker_0, # of connection points: 2
#     Edge 13, Type (0, 0), BuildingBlock: OJICUG_clean_linker_0, # of connection points: 2
#     Edge 14, Type (0, 0), BuildingBlock: OJICUG_clean_linker_0, # of connection points: 2
#     Edge 15, Type (0, 0), BuildingBlock: OJICUG_clean_linker_0, # of connection points: 2
#     Edge 16, Type (0, 0), BuildingBlock: OJICUG_clean_linker_0, # of connection points: 2
#     Edge 17, Type (0, 0), BuildingBlock: OJICUG_clean_linker_0, # of connection points: 2
#     Edge 18, Type (0, 0), BuildingBlock: OJICUG_clean_linker_0, # of connection points: 2
#     Edge 19, Type (0, 0), BuildingBlock: OJICUG_clean_linker_0, # of connection points: 2
#     Edge 20, Type (0, 0), BuildingBlock: OJICUG_clean_linker_0, # of connection points: 2
#     Edge 21, Type (0, 0), BuildingBlock: OJICUG_clean_linker_0, # of connection points: 2
#     Edge 22, Type (0, 0), BuildingBlock: OJICUG_clean_linker_0, # of connection points: 2
#     Edge 23, Type (0, 0), BuildingBlock: OJICUG_clean_linker_0, # of connection points: 2
# Relax obj value: 0.339
# Max RMSD: 0.266
# Mean RMSD: 0.265
data_MOF--net-uov--node1-UXUYUI_clean_sbu_0--edge1-OJICUG_clean_linker_0
_symmetry_space_group_name_H-M    P1
_symmetry_Int_Tables_number       1
_symmetry_cell_setting            triclinic
loop_
_symmetry_equiv_pos_as_xyz
'x, y, z'
_cell_length_a     35.745271
_cell_length_b     35.730042
_cell_length_c     50.918112
_cell_angle_alpha  90.030586
_cell_angle_beta   89.985931
_cell_angle_gamma 90.239702
loop_
_atom_site_label
_atom_site_type_symbol
_atom_site_fract_x
_atom_site_fract_y
_atom_site_fract_z
_atom_type_partial_charge
Li0 Li 0.03483 0.23108 0.62959 0.0
Li1 Li 0.01751 0.28931 0.60797 0.0
Li2 Li 0.97963 0.23291 0.60277 0.0
Li3 Li 0.04119 0.23839 0.58204 0.0
C4 C 0.95426 0.2641 0.64523 0.0
N5 N 0.88135 0.26837 0.66292 0.0
C6 C 0.93387 0.29704 0.64187 0.0
C7 C 0.93768 0.23342 0.65772 0.0
C8 C 0.89701 0.29863 0.65093 0.0
C9 C 0.90075 0.2361 0.66647 0.0
C10 C 0.09002 0.29538 0.61647 0.0
C11 C 0.12049 0.35356 0.60526 0.0
N12 N 0.13261 0.35692 0.63048 0.0
C13 C 0.10285 0.29933 0.64225 0.0
C14 C 0.09902 0.3226 0.59777 0.0
C15 C 0.12434 0.33066 0.64895 0.0
C16 C 0.09246 0.19392 0.65597 0.0
N17 N 0.05808 0.2093 0.65942 0.0
C18 C 0.05792 0.19167 0.70467 0.0
C19 C 0.04074 0.2088 0.68317 0.0
C20 C 0.09296 0.17462 0.70145 0.0
C21 C 0.11031 0.17594 0.67675 0.0
H22 H 0.10582 0.19537 0.63694 0.0
H23 H 0.01354 0.22154 0.68539 0.0
C24 C 0.00074 0.36206 0.59099 0.0
N25 N 0.01471 0.34213 0.61143 0.0
C26 C 0.99741 0.40081 0.59279 0.0
C27 C 0.02239 0.39786 0.63686 0.0
C28 C 0.025 0.35904 0.63425 0.0
C29 C 0.00851 0.4193 0.6159 0.0
H30 H 0.99166 0.3478 0.5734 0.0
H31 H 0.03519 0.34235 0.65042 0.0
C32 C 0.03142 0.16223 0.61125 0.0
N33 N 0.0574 0.09621 0.63266 0.0
C34 C 0.06472 0.14647 0.60213 0.0
C35 C 0.01123 0.1443 0.63115 0.0
C36 C 0.07738 0.11307 0.61322 0.0
C37 C 0.02488 0.111 0.64177 0.0
C38 C 0.99599 0.26923 0.54878 0.0
C39 C 0.974 0.24351 0.5349 0.0
C40 C 0.01925 0.29397 0.53506 0.0
C41 C 0.97566 0.243 0.50749 0.0
C42 C 0.02016 0.29252 0.50765 0.0
N43 N -0.00147 0.26728 0.49455 0.0
C44 C 0.90442 0.24054 0.58816 0.0
C45 C 0.92518 0.17786 0.59209 0.0
C46 C 0.87195 0.22873 0.57532 0.0
N47 N 0.93067 0.21517 0.59547 0.0
C48 C 0.89316 0.16482 0.57931 0.0
C49 C 0.86684 0.19054 0.56969 0.0
H50 H 0.91008 0.27013 0.59039 0.0
H51 H 0.94701 0.15842 0.5973 0.0
C52 C 0.10031 0.24067 0.54392 0.0
N53 N 0.06844 0.2232 0.55189 0.0
C54 C 0.12001 0.22725 0.52216 0.0
C55 C 0.0734 0.17852 0.51723 0.0
C56 C 0.05457 0.193 0.53889 0.0
C57 C 0.10687 0.19539 0.50871 0.0
H58 H 0.11069 0.26466 0.55463 0.0
H59 H 0.0292 0.17963 0.54579 0.0
O60 O 0.99018 0.26178 0.63615 0.0
O61 O 0.06862 0.26511 0.60959 0.0
O62 O 0.01893 0.19531 0.60104 0.0
O63 O 0.99553 0.26957 0.57566 0.0
H64 H 0.94621 0.32102 0.63218 0.0
H65 H 0.95307 0.20772 0.66045 0.0
H66 H 0.88084 0.32388 0.64837 0.0
H67 H 0.88749 0.21252 0.67607 0.0
H68 H 0.12743 0.37499 0.59105 0.0
H69 H 0.09606 0.2786 0.65699 0.0
H70 H 0.08905 0.32014 0.57779 0.0
H71 H 0.13435 0.33416 0.66885 0.0
H72 H 0.04371 0.19113 0.72346 0.0
H73 H 0.13755 0.16352 0.67363 0.0
H74 H 0.98566 0.41603 0.57639 0.0
H75 H 0.03143 0.41091 0.65499 0.0
H76 H 0.08093 0.16012 0.58695 0.0
H77 H 0.98553 0.15621 0.63853 0.0
H78 H 0.10321 0.10067 0.60646 0.0
H79 H 0.00967 0.09697 0.6573 0.0
H80 H 0.95622 0.2238 0.54511 0.0
H81 H 0.0368 0.31374 0.54548 0.0
H82 H 0.9589 0.22315 0.49651 0.0
H83 H 0.03819 0.31136 0.4968 0.0
H84 H 0.85228 0.24947 0.56839 0.0
H85 H 0.89078 0.13522 0.57502 0.0
H86 H 0.14545 0.2414 0.51616 0.0
H87 H 0.06251 0.1535 0.50793 0.0
Li88 Li 0.24046 0.9976 0.39692 0.0
Li89 Li 0.29162 0.96071 0.38385 0.0
Li90 Li 0.22816 0.94727 0.36539 0.0
Li91 Li 0.24556 0.93398 0.4122 0.0
C92 C 0.25047 0.026 0.34921 0.0
N93 N 0.23107 0.09327 0.32625 0.0
C94 C 0.27007 0.05874 0.35553 0.0
C95 C 0.22108 0.02749 0.33113 0.0
C96 C 0.25979 0.09247 0.34375 0.0
C97 C 0.2117 0.06176 0.31975 0.0
C98 C 0.31385 0.98642 0.42812 0.0
C99 C 0.37396 0.97091 0.44662 0.0
N100 N 0.38586 0.00656 0.44223 0.0
C101 C 0.32665 0.02295 0.42389 0.0
C102 C 0.33766 0.96018 0.43966 0.0
C103 C 0.36313 0.03257 0.43114 0.0
C104 C 0.23256 0.05194 0.43528 0.0
N105 N 0.22302 0.04496 0.40991 0.0
C106 C 0.18242 0.09807 0.40965 0.0
C107 C 0.19865 0.0675 0.39689 0.0
C108 C 0.19107 0.10521 0.43612 0.0
C109 C 0.21706 0.08201 0.44874 0.0
H110 H 0.2507 0.03291 0.44564 0.0
H111 H 0.19021 0.06073 0.37709 0.0
C112 C 0.3655 0.93237 0.3825 0.0
N113 N 0.34352 0.96158 0.37537 0.0
C114 C 0.40432 0.93519 0.3804 0.0
C115 C 0.39695 0.99698 0.36182 0.0
C116 C 0.35829 0.99306 0.36448 0.0
C117 C 0.42047 0.9682 0.37054 0.0
H118 H 0.35304 0.90761 0.39097 0.0
H119 H 0.34018 0.01576 0.35887 0.0
C120 C 0.17112 0.97666 0.4086 0.0
N121 N 0.11334 0.01661 0.43106 0.0
C122 C 0.16845 0.97967 0.43591 0.0
C123 C 0.14433 0.99383 0.39271 0.0
C124 C 0.13906 6e-05 0.44688 0.0
C125 C 0.11532 0.01389 0.40445 0.0
C126 C 0.26353 0.87428 0.38581 0.0
C127 C 0.23679 0.85163 0.3735 0.0
C128 C 0.28658 0.85901 0.40519 0.0
C129 C 0.23343 0.81411 0.3809 0.0
C130 C 0.28231 0.8214 0.41207 0.0
N131 N 0.25605 0.79991 0.39988 0.0
C132 C 0.22111 0.92125 0.31393 0.0
C133 C 0.16395 0.92217 0.33753 0.0
C134 C 0.2033 0.90572 0.29209 0.0
N135 N 0.2013 0.92905 0.336 0.0
C136 C 0.14491 0.90699 0.31605 0.0
C137 C 0.16463 0.89831 0.29293 0.0
H138 H 0.25093 0.92654 0.31351 0.0
H139 H 0.14906 0.92798 0.35554 0.0
C140 C 0.24966 0.90658 0.46466 0.0
N141 N 0.23261 0.90267 0.44096 0.0
C142 C 0.23614 0.8872 0.48653 0.0
C143 C 0.18803 0.86 0.45906 0.0
C144 C 0.20258 0.87973 0.43775 0.0
C145 C 0.20442 0.86409 0.48402 0.0
H146 H 0.27274 0.9259 0.46687 0.0
H147 H 0.18895 0.87804 0.41881 0.0
O148 O 0.26035 0.99258 0.3603 0.0
O149 O 0.27857 0.97618 0.42037 0.0
O150 O 0.20036 0.95784 0.39749 0.0
O151 O 0.26687 0.91125 0.37911 0.0
H152 H 0.29266 0.05828 0.36962 0.0
H153 H 0.20555 0.00255 0.32596 0.0
H154 H 0.27459 0.11803 0.34858 0.0
H155 H 0.18897 0.06331 0.30577 0.0
H156 H 0.39279 0.95079 0.45532 0.0
H157 H 0.30875 0.04357 0.41485 0.0
H158 H 0.32857 0.9316 0.44264 0.0
H159 H 0.37344 0.06068 0.42783 0.0
H160 H 0.16243 0.11516 0.39917 0.0
H161 H 0.2238 0.08563 0.46932 0.0
H162 H 0.42155 0.91219 0.38704 0.0
H163 H 0.40835 0.02295 0.35425 0.0
H164 H 0.18918 0.96692 0.4485 0.0
H165 H 0.14635 0.99233 0.37153 0.0
H166 H 0.1368 0.00286 0.46798 0.0
H167 H 0.09454 0.02756 0.3924 0.0
H168 H 0.21867 0.86284 0.35848 0.0
H169 H 0.307 0.8762 0.41525 0.0
H170 H 0.21279 0.79631 0.37158 0.0
H171 H 0.29975 0.80933 0.42719 0.0
H172 H 0.21988 0.89885 0.27497 0.0
H173 H 0.11506 0.90216 0.31756 0.0
H174 H 0.24976 0.89109 0.50533 0.0
H175 H 0.16304 0.84325 0.45622 0.0
Li176 Li 0.95054 0.76888 0.63781 0.0
Li177 Li 0.97218 0.70903 0.61741 0.0
Li178 Li 0.00301 0.76697 0.60787 0.0
Li179 Li 0.9413 0.75592 0.5902 0.0
C180 C 0.03361 0.74833 0.65261 0.0
N181 N 0.10507 0.76206 0.67099 0.0
C182 C 0.06193 0.72212 0.64852 0.0
C183 C 0.04147 0.78123 0.66642 0.0
C184 C 0.09793 0.72965 0.65786 0.0
C185 C 0.07781 0.78774 0.67546 0.0
C186 C 0.89398 0.70262 0.61191 0.0
C187 C 0.87575 0.65389 0.58166 0.0
N188 N 0.84229 0.65075 0.59421 0.0
C189 C 0.85941 0.69896 0.62448 0.0
C190 C 0.90224 0.67997 0.59029 0.0
C191 C 0.83365 0.67255 0.61525 0.0
C192 C 0.90353 0.82044 0.66243 0.0
N193 N 0.9276 0.79187 0.66714 0.0
C194 C 0.9175 0.79705 0.71337 0.0
C195 C 0.93481 0.77983 0.69193 0.0
C196 C 0.89311 0.82715 0.70909 0.0
C197 C 0.88622 0.83889 0.68326 0.0
H198 H 0.89797 0.82902 0.64244 0.0
H199 H 0.95397 0.75689 0.69501 0.0
C200 C 0.00997 0.64283 0.60898 0.0
N201 N 0.97981 0.6571 0.62165 0.0
C202 C 0.01666 0.60445 0.60925 0.0
C203 C 0.96127 0.59613 0.63594 0.0
C204 C 0.95585 0.63484 0.63535 0.0
C205 C 0.99178 0.58041 0.62246 0.0
H206 H 0.0286 0.66133 0.59836 0.0
H207 H 0.93204 0.64703 0.64524 0.0
C208 C 0.96534 0.83935 0.6073 0.0
N209 N 0.97566 0.91608 0.60703 0.0
C210 C 0.95939 0.85983 0.58429 0.0
C211 C 0.97623 0.858 0.63022 0.0
C212 C 0.96488 0.89856 0.58453 0.0
C213 C 0.98136 0.89677 0.62968 0.0
C214 C -0.0 0.73382 0.55774 0.0
C215 C 0.00066 0.77011 0.54753 0.0
C216 C 0.01278 0.70405 0.54242 0.0
C217 C 0.01423 0.77606 0.52215 0.0
C218 C 0.02609 0.71112 0.51709 0.0
N219 N 0.02656 0.74669 0.50757 0.0
C220 C 0.07557 0.75962 0.58896 0.0
C221 C 0.05867 0.82307 0.59477 0.0
C222 C 0.10726 0.77006 0.57471 0.0
N223 N 0.05126 0.78598 0.59777 0.0
C224 C 0.08988 0.83479 0.58046 0.0
C225 C 0.11383 0.80806 0.56925 0.0
H226 H 0.06895 0.73026 0.59139 0.0
H227 H 0.03932 0.8437 0.60185 0.0
C228 C 0.88601 0.79585 0.56484 0.0
N229 N 0.90858 0.76572 0.56178 0.0
C230 C 0.86481 0.80888 0.54382 0.0
C231 C 0.88887 0.75828 0.51724 0.0
C232 C 0.90962 0.74618 0.53886 0.0
C233 C 0.86677 0.79058 0.51941 0.0
H234 H 0.8858 0.81076 0.58333 0.0
H235 H 0.9275 0.722 0.53704 0.0
O236 O -0.00164 0.74175 0.64321 0.0
O237 O 0.9194 0.72843 0.62075 0.0
O238 O 0.9597 0.80141 0.60747 0.0
O239 O 0.98747 0.72731 0.58274 0.0
H240 H 0.05625 0.69639 0.63804 0.0
H241 H 0.01973 0.80145 0.6702 0.0
H242 H 0.12019 0.70975 0.65464 0.0
H243 H 0.08434 0.81318 0.68607 0.0
H244 H 0.8818 0.63615 0.56498 0.0
H245 H 0.85259 0.71635 0.64122 0.0
H246 H 0.92885 0.68234 0.58032 0.0
H247 H 0.80679 0.66938 0.6248 0.0
H248 H 0.92349 0.78735 0.73307 0.0
H249 H 0.86724 0.86173 0.67923 0.0
H250 H 0.04095 0.59375 0.59904 0.0
H251 H 0.94116 0.57868 0.64615 0.0
H252 H 0.95063 0.84603 0.56639 0.0
H253 H 0.98072 0.84276 0.64824 0.0
H254 H 0.96049 0.91471 0.56684 0.0
H255 H 0.98987 0.91151 0.64726 0.0
H256 H 0.99109 0.79344 0.55914 0.0
H257 H 0.01243 0.67576 0.55002 0.0
H258 H 0.01501 0.80404 0.51406 0.0
H259 H 0.03608 0.68835 0.50501 0.0
H260 H 0.1253 0.74848 0.56689 0.0
H261 H 0.09353 0.86439 0.57666 0.0
H262 H 0.84862 0.83417 0.54634 0.0
H263 H 0.89081 0.74311 0.49888 0.0
Li264 Li 0.76913 0.04268 0.36694 0.0
Li265 Li 0.75311 0.05133 0.41342 0.0
Li266 Li 0.76615 0.99034 0.39714 0.0
Li267 Li 0.7072 0.01901 0.38632 0.0
C268 C 0.83791 0.02996 0.3994 0.0
N269 N 0.91471 0.02195 0.40226 0.0
C270 C 0.85658 0.03574 0.42321 0.0
C271 C 0.85843 0.02053 0.37699 0.0
C272 C 0.89537 0.03141 0.42427 0.0
C273 C 0.8972 0.01651 0.37885 0.0
C274 C 0.71588 0.10522 0.39226 0.0
C275 C 0.67571 0.14231 0.41988 0.0
N276 N 0.69738 0.17289 0.41491 0.0
C277 C 0.7377 0.13698 0.38732 0.0
C278 C 0.68458 0.10783 0.40859 0.0
C279 C 0.72789 0.17095 0.39899 0.0
C280 C 0.7845 0.05408 0.31295 0.0
N281 N 0.79307 0.06506 0.33778 0.0
C282 C 0.83808 0.109 0.32176 0.0
C283 C 0.8191 0.09202 0.34254 0.0
C284 C 0.82992 0.09838 0.29578 0.0
C285 C 0.80264 0.07052 0.29153 0.0
H286 H 0.76355 0.0326 0.30983 0.0
H287 H 0.82534 0.10004 0.36256 0.0
C288 C 0.7395 0.08397 0.46414 0.0
N289 N 0.76075 0.08485 0.44199 0.0
C290 C 0.74971 0.10546 0.48597 0.0
C291 C 0.80181 0.13013 0.46099 0.0
C292 C 0.79081 0.10799 0.43982 0.0
C293 C 0.78172 0.12834 0.48469 0.0
H294 H 0.71537 0.0657 0.4652 0.0
H295 H 0.80708 0.10814 0.42191 0.0
C296 C 0.75075 0.95879 0.35221 0.0
N297 N 0.76788 0.88775 0.33458 0.0
C298 C 0.72495 0.92961 0.35515 0.0
C299 C 0.78504 0.95198 0.33997 0.0
C300 C 0.73419 0.89385 0.3462 0.0
C301 C 0.79325 0.91584 0.33128 0.0
C302 C 0.72996 0.99276 0.44636 0.0
C303 C 0.76556 0.99291 0.45768 0.0
C304 C 0.69944 0.97937 0.46076 0.0
C305 C 0.77008 0.97964 0.48327 0.0
C306 C 0.70508 0.96637 0.48633 0.0
N307 N 0.73999 0.96676 0.49696 0.0
C308 C 0.82266 0.93566 0.41028 0.0
C309 C 0.75935 0.91766 0.416 0.0
C310 C 0.83463 0.90418 0.42407 0.0
N311 N 0.78552 0.9426 0.40749 0.0
C312 C 0.77005 0.88576 0.4298 0.0
C313 C 0.8081 0.87956 0.435 0.0
H314 H 0.8431 0.95545 0.40328 0.0
H315 H 0.72996 0.92381 0.41354 0.0
C316 C 0.63409 0.03454 0.36752 0.0
N317 N 0.65596 0.00992 0.38075 0.0
C318 C 0.59581 0.02749 0.36469 0.0
C319 C 0.60378 0.9697 0.38875 0.0
C320 C 0.64172 0.97801 0.39128 0.0
C321 C 0.58015 0.99476 0.37552 0.0
H322 H 0.64628 0.05986 0.35955 0.0
H323 H 0.65992 0.9591 0.40179 0.0
O324 O 0.79995 0.03452 0.39796 0.0
O325 O 0.72566 0.07147 0.38173 0.0
O326 O 0.74254 0.99381 0.36134 0.0
O327 O 0.72489 0.00502 0.42116 0.0
H328 H 0.84136 0.04358 0.44072 0.0
H329 H 0.84466 0.01626 0.35837 0.0
H330 H 0.91012 0.03567 0.44259 0.0
H331 H 0.91336 0.00909 0.36167 0.0
H332 H 0.65169 0.14474 0.43269 0.0
H333 H 0.76211 0.13532 0.37482 0.0
H334 H 0.66763 0.08336 0.41276 0.0
H335 H 0.7446 0.19576 0.39547 0.0
H336 H 0.85925 0.12987 0.32606 0.0
H337 H 0.79501 0.06181 0.27187 0.0
H338 H 0.7333 0.10358 0.5038 0.0
H339 H 0.82693 0.14699 0.45923 0.0
H340 H 0.6982 0.93443 0.36442 0.0
H341 H 0.80508 0.97434 0.33718 0.0
H342 H 0.71459 0.87094 0.34853 0.0
H343 H 0.81977 0.91013 0.32189 0.0
H344 H 0.78945 0.00285 0.44675 0.0
H345 H 0.6717 0.97898 0.45224 0.0
H346 H 0.79752 0.97951 0.49223 0.0
H347 H 0.68171 0.95593 0.4977 0.0
H348 H 0.86426 0.90076 0.4277 0.0
H349 H 0.74866 0.86719 0.43745 0.0
H350 H 0.5786 0.04786 0.35468 0.0
H351 H 0.59313 0.94389 0.39706 0.0
Li352 Li 0.94942 0.23898 0.08881 0.0
Li353 Li 0.95987 0.22579 0.13444 0.0
Li354 Li 0.97981 0.28789 0.1146 0.0
Li355 Li 0.01116 0.2289 0.10379 0.0
C356 C 0.89602 0.28551 0.11413 0.0
N357 N 0.83044 0.32373 0.10415 0.0
C358 C 0.86168 0.27091 0.12255 0.0
C359 C 0.89697 0.3198 0.10093 0.0
C360 C 0.82885 0.29056 0.1172 0.0
C361 C 0.86354 0.33864 0.09601 0.0
C362 C 0.94357 0.16419 0.10462 0.0
C363 C 0.92701 0.09867 0.10333 0.0
N364 N 0.89029 0.10789 0.10569 0.0
C365 C 0.90568 0.17296 0.10704 0.0
C366 C 0.95435 0.12672 0.10273 0.0
C367 C 0.87916 0.14415 0.10753 0.0
C368 C 0.93389 0.20098 0.04331 0.0
N369 N 0.91913 0.22849 0.05851 0.0
C370 C 0.86792 0.23546 0.02864 0.0
C371 C 0.88676 0.24588 0.05162 0.0
C372 C 0.88297 0.20741 0.01253 0.0
C373 C 0.91644 0.19019 0.02008 0.0
H374 H 0.95953 0.18745 0.04927 0.0
H375 H 0.87537 0.26769 0.06378 0.0
C376 C 0.91296 0.22196 0.17842 0.0
N377 N 0.93962 0.20306 0.16488 0.0
C378 C 0.8955 0.20546 0.20004 0.0
C379 C 0.93396 0.15067 0.19375 0.0
C380 C 0.95054 0.16818 0.17214 0.0
C381 C 0.90581 0.16923 0.20794 0.0
H382 H 0.90491 0.2497 0.17219 0.0
H383 H 0.97185 0.15384 0.16096 0.0
C384 C 0.99281 0.27419 0.05384 0.0
N385 N 0.98738 0.2844 0.00018 0.0
C386 C 0.0102 0.24919 0.03664 0.0
C387 C 0.97305 0.30463 0.04374 0.0
C388 C 0.00704 0.25478 0.00958 0.0
C389 C 0.97051 0.30923 0.01656 0.0
C390 C 0.04358 0.24855 0.14695 0.0
C391 C 0.06986 0.27742 0.14474 0.0
C392 C 0.05452 0.21364 0.15655 0.0
C393 C 0.10692 0.27077 0.15204 0.0
C394 C 0.09185 0.2081 0.16362 0.0
N395 N 0.11706 0.23653 0.16123 0.0
C396 C 0.9709 0.35939 0.1387 0.0
C397 C 0.01204 0.35596 0.1022 0.0
C398 C 0.97673 0.39802 0.1406 0.0
N399 N 0.98818 0.3395 0.11948 0.0
C400 C 0.01852 0.39436 0.10329 0.0
C401 C 0.00037 0.41596 0.12244 0.0
H402 H 0.95207 0.34538 0.15215 0.0
H403 H 0.02569 0.33925 0.08734 0.0
C404 C 0.06272 0.17286 0.08958 0.0
N405 N 0.05809 0.21025 0.09286 0.0
C406 C 0.09317 0.15944 0.07529 0.0
C407 C 0.11472 0.2232 0.06969 0.0
C408 C 0.0838 0.23537 0.08401 0.0
C409 C 0.11883 0.18488 0.06422 0.0
H410 H 0.04149 0.15368 0.09652 0.0
H411 H 0.07893 0.26501 0.08655 0.0
O412 O 0.92852 0.26686 0.11951 0.0
O413 O 0.97018 0.1919 0.10436 0.0
O414 O 0.995 0.26883 0.08041 0.0
O415 O 0.00742 0.25421 0.13931 0.0
H416 H 0.86031 0.24471 0.13315 0.0
H417 H 0.92316 0.33172 0.09443 0.0
H418 H 0.8021 0.2795 0.12351 0.0
H419 H 0.8639 0.36511 0.08571 0.0
H420 H 0.93499 0.06957 0.10193 0.0
H421 H 0.8968 0.20166 0.10841 0.0
H422 H 0.98355 0.11932 0.10093 0.0
H423 H 0.84974 0.15062 0.10937 0.0
H424 H 0.84203 0.24925 0.02345 0.0
H425 H 0.92857 0.16792 0.00846 0.0
H426 H 0.87362 0.22068 0.21009 0.0
H427 H 0.94321 0.12297 0.19932 0.0
H428 H 0.02546 0.22536 0.04405 0.0
H429 H 0.95974 0.32446 0.05672 0.0
H430 H 0.02009 0.23547 0.99605 0.0
H431 H 0.95513 0.33255 0.00848 0.0
H432 H 0.06178 0.30456 0.13726 0.0
H433 H 0.03448 0.19099 0.15823 0.0
H434 H 0.12764 0.29279 0.15033 0.0
H435 H 0.10081 0.18117 0.17094 0.0
H436 H 0.96206 0.41382 0.15552 0.0
H437 H 0.03735 0.40709 0.08918 0.0
H438 H 0.09491 0.12973 0.0713 0.0
H439 H 0.13405 0.24371 0.06178 0.0
Li440 Li 0.23803 0.0499 0.90686 0.0
Li441 Li 0.22855 0.98838 0.88847 0.0
Li442 Li 0.28548 0.02084 0.87912 0.0
Li443 Li 0.22506 0.04143 0.85913 0.0
C444 C 0.26203 0.9916 0.93871 0.0
N445 N 0.25051 0.96482 0.98898 0.0
C446 C 0.22582 0.98912 0.94892 0.0
C447 C 0.29241 0.98054 0.95408 0.0
C448 C 0.22055 0.97546 0.97435 0.0
C449 C 0.286 0.96709 0.97946 0.0
C450 C 0.15523 0.02393 0.88971 0.0
C451 C 0.09801 0.00766 0.86722 0.0
N452 N 0.07884 0.01151 0.89013 0.0
C453 C 0.13488 0.02805 0.91298 0.0
C454 C 0.1366 0.01391 0.86659 0.0
C455 C 0.09633 0.0215 0.91282 0.0
C456 C 0.19706 0.10377 0.93315 0.0
N457 N 0.22773 0.08181 0.93571 0.0
C458 C 0.23596 0.10146 0.98021 0.0
C459 C 0.24784 0.081 0.95838 0.0
C460 C 0.20338 0.12317 0.97848 0.0
C461 C 0.18431 0.12478 0.95438 0.0
H462 H 0.18169 0.10382 0.91485 0.0
H463 H 0.27244 0.06365 0.95981 0.0
C464 C 0.23683 0.91623 0.90826 0.0
N465 N 0.21058 0.93934 0.89784 0.0
C466 C 0.2261 0.8843 0.92212 0.0
C467 C 0.16166 0.8983 0.91199 0.0
C468 C 0.17366 0.93007 0.89839 0.0
C469 C 0.18794 0.87595 0.92512 0.0
H470 H 0.26607 0.92404 0.90741 0.0
H471 H 0.15319 0.94827 0.88976 0.0
C472 C 0.28987 0.09914 0.88549 0.0
N473 N 0.3404 0.15192 0.90351 0.0
C474 C 0.29235 0.1341 0.87333 0.0
C475 C 0.31303 0.09102 0.90685 0.0
C476 C 0.3181 0.16042 0.88273 0.0
C477 C 0.33841 0.11807 0.91565 0.0
C478 C 0.24698 0.95912 0.84369 0.0
C479 C 0.27293 0.93075 0.8483 0.0
C480 C 0.21439 0.95122 0.82957 0.0
C481 C 0.2655 0.89465 0.83907 0.0
C482 C 0.20797 0.91477 0.82065 0.0
N483 N 0.23342 0.88746 0.82558 0.0
C484 C 0.35297 0.98512 0.8869 0.0
C485 C 0.3587 0.03974 0.86075 0.0
C486 C 0.39154 0.97982 0.88636 0.0
N487 N 0.3375 0.01488 0.87449 0.0
C488 C 0.39756 0.03572 0.85989 0.0
C489 C 0.41451 0.0057 0.87314 0.0
H490 H 0.33527 0.96576 0.89757 0.0
H491 H 0.34556 0.06319 0.85107 0.0
C492 C 0.17302 0.08847 0.83498 0.0
N493 N 0.20168 0.06462 0.83008 0.0
C494 C 0.15471 0.10629 0.81431 0.0
C495 C 0.19664 0.07563 0.78396 0.0
C496 C 0.21379 0.05794 0.80524 0.0
C497 C 0.16651 0.10015 0.7883 0.0
H498 H 0.1642 0.09342 0.855 0.0
H499 H 0.23693 0.03907 0.80201 0.0
O500 O 0.26793 0.00439 0.9137 0.0
O501 O 0.19294 0.03079 0.88945 0.0
O502 O 0.26476 0.07315 0.87647 0.0
O503 O 0.25336 0.99443 0.85307 0.0
H504 H 0.20204 0.99732 0.93726 0.0
H505 H 0.32064 0.98233 0.94648 0.0
H506 H 0.19264 0.97325 0.98244 0.0
H507 H 0.30926 0.95842 0.99158 0.0
H508 H 0.0833 -0.00025 0.84949 0.0
H509 H 0.14863 0.03633 0.93101 0.0
H510 H 0.15174 0.01081 0.84837 0.0
H511 H 0.08028 0.02447 0.93071 0.0
H512 H 0.25165 0.09978 0.99836 0.0
H513 H 0.1588 0.14074 0.95225 0.0
H514 H 0.24731 0.86747 0.93158 0.0
H515 H 0.13192 0.893 0.91383 0.0
H516 H 0.27456 0.1408 0.8568 0.0
H517 H 0.31158 0.0641 0.91649 0.0
H518 H 0.32035 0.1876 0.8735 0.0
H519 H 0.35653 0.11215 0.93213 0.0
H520 H 0.29836 0.93645 0.85911 0.0
H521 H 0.1943 0.97299 0.8255 0.0
H522 H 0.2852 0.87233 0.84267 0.0
H523 H 0.18278 0.9082 0.80979 0.0
H524 H 0.40324 0.95587 0.8964 0.0
H525 H 0.41416 0.05655 0.84968 0.0
H526 H 0.1313 0.12435 0.81873 0.0
H527 H 0.20727 0.07049 0.76439 0.0
Li528 Li 0.99349 0.75961 0.09777 0.0
Li529 Li 0.02722 0.70575 0.11029 0.0
Li530 Li 0.04213 0.76844 0.12942 0.0
Li531 Li 0.05559 0.75358 0.08257 0.0
C532 C 0.96178 0.7402 0.14405 0.0
N533 N 0.89092 0.74529 0.16532 0.0
C534 C 0.93303 0.71711 0.13478 0.0
C535 C 0.95467 0.76557 0.16432 0.0
C536 C 0.89733 0.72022 0.14573 0.0
C537 C 0.91861 0.76778 0.17478 0.0
C538 C 0.02499 0.69316 0.05742 0.0
C539 C 0.07211 0.64969 0.04275 0.0
N540 N 0.04865 0.63765 0.02347 0.0
C541 C 0.00135 0.68027 0.03747 0.0
C542 C 0.06067 0.67767 0.06012 0.0
C543 C 0.01382 0.65222 0.02051 0.0
C544 C 0.9426 0.77163 0.05855 0.0
N545 N 0.94623 0.77684 0.08485 0.0
C546 C 0.88857 0.81059 0.08616 0.0
C547 C 0.91983 0.79564 0.09885 0.0
C548 C 0.88458 0.80605 0.05889 0.0
C549 C 0.91188 0.78581 0.04517 0.0
H550 H 0.96447 0.75779 0.04768 0.0
H551 H 0.92362 0.80044 0.1196 0.0
C552 C 0.04806 0.63472 0.13143 0.0
N553 N 0.023 0.65388 0.11659 0.0
C554 C 0.0447 0.59588 0.13409 0.0
C555 C 0.98971 0.59776 0.10643 0.0
C556 C 0.99393 0.63638 0.1045 0.0
C557 C 0.01553 0.57698 0.1211 0.0
H558 H 0.07091 0.64951 0.14079 0.0
H559 H 0.97441 0.65242 0.09289 0.0
C560 C 0.01121 0.83039 0.09564 0.0
N561 N 0.96562 0.89232 0.09079 0.0
C562 C 0.00674 0.84772 0.07124 0.0
C563 C 0.99266 0.84474 0.1176 0.0
C564 C 0.98347 0.87891 0.06918 0.0
C565 C 0.96978 0.87608 0.11476 0.0
C566 C 0.11377 0.74073 0.11912 0.0
C567 C 0.12408 0.77822 0.11572 0.0
C568 C 0.14045 0.71481 0.12737 0.0
C569 C 0.16099 0.78912 0.12066 0.0
C570 C 0.17709 0.72681 0.13207 0.0
N571 N 0.18651 0.76341 0.12866 0.0
C572 C 0.06556 0.77349 0.18207 0.0
C573 C 0.07018 0.83027 0.15825 0.0
C574 C 0.0813 0.79042 0.20422 0.0
N575 N 0.06045 0.79353 0.15971 0.0
C576 C 0.08563 0.84842 0.17997 0.0
C577 C 0.09176 0.82842 0.20334 0.0
H578 H 0.05806 0.74412 0.18248 0.0
H579 H 0.06651 0.84539 0.14006 0.0
C580 C 0.06616 0.77731 0.03201 0.0
N581 N 0.08591 0.76336 0.05253 0.0
C582 C 0.08441 0.78921 0.00932 0.0
C583 C 0.14302 0.76969 0.02847 0.0
C584 C 0.12352 0.75813 0.05089 0.0
C585 C 0.12351 0.78635 0.00756 0.0
H586 H 0.03613 0.78002 0.0336 0.0
H587 H 0.13856 0.74561 0.067 0.0
O588 O 0.99697 0.7374 0.1338 0.0
O589 O 0.01278 0.72043 0.07428 0.0
O590 O 0.03314 0.79924 0.098 0.0
O591 O 0.07769 0.72935 0.11483 0.0
H592 H 0.93812 0.69731 0.11913 0.0
H593 H 0.97677 0.78337 0.17187 0.0
H594 H 0.87472 0.70273 0.13863 0.0
H595 H 0.91263 0.78739 0.19041 0.0
H596 H 0.09963 0.63751 0.04463 0.0
H597 H 0.97354 0.69166 0.0352 0.0
H598 H 0.07944 0.68697 0.07541 0.0
H599 H 0.99578 0.64199 0.00501 0.0
H600 H 0.86824 0.82624 0.09743 0.0
H601 H 0.91056 0.78254 0.02404 0.0
H602 H 0.06525 0.5807 0.14546 0.0
H603 H 0.96659 0.58424 0.0964 0.0
H604 H 0.02097 0.83725 0.05405 0.0
H605 H 0.99535 0.83143 0.13656 0.0
H606 H 0.9796 0.89245 0.05038 0.0
H607 H 0.95508 0.88728 0.13156 0.0
H608 H 0.10397 0.79866 0.10915 0.0
H609 H 0.1329 0.6857 0.13012 0.0
H610 H 0.16935 0.81802 0.11809 0.0
H611 H 0.19803 0.70703 0.13845 0.0
H612 H 0.08608 0.77365 0.22159 0.0
H613 H 0.09274 0.87782 0.17839 0.0
H614 H 0.06814 0.80205 0.99384 0.0
H615 H 0.17308 0.76623 0.02772 0.0
Li616 Li 0.76366 0.01805 0.89398 0.0
Li617 Li 0.75416 0.95689 0.91447 0.0
Li618 Li 0.76354 0.96289 0.86701 0.0
Li619 Li 0.70561 0.98316 0.88774 0.0
C620 C 0.8317 0.96208 0.88694 0.0
N621 N 0.89724 0.93196 0.86758 0.0
C622 C 0.84535 0.92845 0.89707 0.0
C623 C 0.85149 0.98049 0.86705 0.0
C624 C 0.87853 0.91368 0.88702 0.0
C625 C 0.88451 0.96476 0.85748 0.0
C626 C 0.72404 0.00373 0.94728 0.0
C627 C 0.69805 0.97989 0.98771 0.0
N628 N 0.72268 0.00131 0.00153 0.0
C629 C 0.74907 0.02553 0.96189 0.0
C630 C 0.69826 0.98076 0.96028 0.0
C631 C 0.74793 0.02393 0.98929 0.0
C632 C 0.76155 0.09419 0.90869 0.0
N633 N 0.78455 0.06566 0.90169 0.0
C634 C 0.83766 0.09835 0.91854 0.0
C635 C 0.82206 0.06767 0.90559 0.0
C636 C 0.81435 0.12711 0.92776 0.0
C637 C 0.776 0.12553 0.92168 0.0
H638 H 0.73166 0.09131 0.90605 0.0
H639 H 0.83953 0.04413 0.90062 0.0
C640 C 0.74989 0.89612 0.95116 0.0
N641 N 0.76695 0.92892 0.94474 0.0
C642 C 0.76217 0.87569 0.9729 0.0
C643 C 0.80863 0.9237 0.9811 0.0
C644 C 0.79551 0.94308 0.95929 0.0
C645 C 0.7923 0.88924 0.98798 0.0
H646 H 0.72734 0.88546 0.93913 0.0
H647 H 0.80877 0.96905 0.95346 0.0
C648 C 0.73542 0.04532 0.8513 0.0
N649 N 0.73584 0.1187 0.83428 0.0
C650 C 0.70366 0.06753 0.85448 0.0
C651 C 0.76732 0.06031 0.83933 0.0
C652 C 0.70444 0.1046 0.84576 0.0
C653 C 0.767 0.09751 0.83091 0.0
C654 C 0.69643 0.91062 0.87913 0.0
C655 C 0.69254 0.89829 0.85322 0.0
C656 C 0.66863 0.90223 0.89754 0.0
C657 C 0.66064 0.87796 0.8461 0.0
C658 C 0.6371 0.88193 0.88962 0.0
N659 N 0.63379 0.87032 0.86428 0.0
C660 C 0.7992 0.90376 0.84111 0.0
C661 C 0.78661 0.95579 0.81373 0.0
C662 C 0.81692 0.88517 0.82051 0.0
N663 N 0.78508 0.93861 0.83749 0.0
C664 C 0.8035 0.93793 0.7924 0.0
C665 C 0.81934 0.9022 0.79566 0.0
H666 H 0.79715 0.89062 0.86018 0.0
H667 H 0.77469 0.98334 0.81134 0.0
C668 C 0.63314 0.00217 0.90394 0.0
N669 N 0.65312 0.988 0.88358 0.0
C670 C 0.59443 0.00557 0.90206 0.0
C671 C 0.59757 0.98063 0.85797 0.0
C672 C 0.63635 0.97797 0.86066 0.0
C673 C 0.57603 0.99429 0.87897 0.0
H674 H 0.64729 0.011 0.92163 0.0
H675 H 0.65308 0.96756 0.84456 0.0
O676 O 0.79893 0.9767 0.8962 0.0
O677 O 0.72524 0.00421 0.9204 0.0
O678 O 0.73543 0.00917 0.86006 0.0
O679 O 0.72726 0.93089 0.88642 0.0
H680 H 0.83028 0.91362 0.9123 0.0
H681 H 0.84121 0.00642 0.85888 0.0
H682 H 0.88933 0.88758 0.89459 0.0
H683 H 0.89997 0.97858 0.84198 0.0
H684 H 0.67839 0.96209 0.99801 0.0
H685 H 0.76954 0.04312 0.95226 0.0
H686 H 0.67892 0.96342 0.94931 0.0
H687 H 0.76724 0.04054 0.00083 0.0
H688 H 0.86722 0.09786 0.92316 0.0
H689 H 0.75705 0.14716 0.92825 0.0
H690 H 0.74871 0.84932 0.97758 0.0
H691 H 0.83242 0.93486 0.99173 0.0
H692 H 0.67877 0.0564 0.86377 0.0
H693 H 0.79214 0.04348 0.83676 0.0
H694 H 0.68012 0.12218 0.84819 0.0
H695 H 0.79154 0.10955 0.82173 0.0
H696 H 0.71375 0.90459 0.83871 0.0
H697 H 0.67113 0.91171 0.91764 0.0
H698 H 0.65717 0.86837 0.82609 0.0
H699 H 0.61523 0.87548 0.90361 0.0
H700 H 0.82909 0.85801 0.82424 0.0
H701 H 0.80384 0.95193 0.77356 0.0
H702 H 0.57912 0.0172 0.91849 0.0
H703 H 0.58459 0.97148 0.83985 0.0
C704 C 0.98928 0.51642 0.64312 0.0
C705 C 0.99693 0.53919 0.62123 0.0
H706 H 0.98654 0.46077 0.65858 0.0
C707 C 0.00906 0.52221 0.59783 0.0
H708 H 0.98025 0.5286 0.66152 0.0
C709 C 0.01332 0.48349 0.59629 0.0
C710 C 0.00524 0.46064 0.61803 0.0
H711 H 0.0147 0.53875 0.58045 0.0
H712 H 0.02302 0.47147 0.57799 0.0
C713 C 0.99336 0.47757 0.64153 0.0
C714 C 0.51907 0.99608 0.35094 0.0
C715 C 0.53932 0.9872 0.37378 0.0
H716 H 0.46558 0.99666 0.33188 0.0
C717 C 0.52015 0.97133 0.39521 0.0
H718 H 0.53303 0.00786 0.33395 0.0
C719 C 0.48176 0.96454 0.39387 0.0
C720 C 0.46153 0.97369 0.37115 0.0
H721 H 0.53464 0.96488 0.41331 0.0
H722 H 0.4677 0.95304 0.41092 0.0
C723 C 0.48052 0.98953 0.34968 0.0
C724 C 0.01115 0.47696 0.14593 0.0
C725 C 0.00483 0.45716 0.12247 0.0
H726 H 0.01991 0.53068 0.16387 0.0
C727 C 0.00257 0.47699 0.09872 0.0
H728 H 0.01322 0.46228 0.16447 0.0
C729 C 0.00631 0.5158 0.09839 0.0
C730 C 0.01256 0.53568 0.12179 0.0
H731 H 0.99736 0.46251 0.08038 0.0
H732 H 0.00446 0.5303 0.07976 0.0
C733 C 0.01527 0.51594 0.14556 0.0
C734 C 0.47819 0.01068 0.85224 0.0
C735 C 0.45588 0.00213 0.8742 0.0
H736 H 0.5336 0.01531 0.83654 0.0
C737 C 0.47343 0.99059 0.89752 0.0
H738 H 0.46557 0.01931 0.8339 0.0
C739 C 0.51226 0.98768 0.89889 0.0
C740 C 0.53464 0.99657 0.87706 0.0
H741 H 0.45722 0.98431 0.91495 0.0
H742 H 0.52472 0.9783 0.9171 0.0
C743 C 0.51717 0.00795 0.85366 0.0
C744 C 0.18875 0.15407 0.47155 0.0
C745 C 0.17053 0.13384 0.45157 0.0
H746 H 0.18308 0.1889 0.50539 0.0
C747 C 0.13169 0.13802 0.44852 0.0
H748 H 0.21875 0.152 0.47415 0.0
C749 C 0.11126 0.15989 0.46613 0.0
C750 C 0.12913 0.1778 0.48734 0.0
H751 H 0.11666 0.12272 0.43345 0.0
H752 H 0.08122 0.16162 0.46368 0.0
C753 C 0.1683 0.17565 0.4893 0.0
C754 C 0.16889 0.81178 0.50573 0.0
C755 C 0.1863 0.84703 0.50746 0.0
H756 H 0.13217 0.77207 0.52362 0.0
C757 C 0.18328 0.86733 0.53105 0.0
H758 H 0.17115 0.7951 0.48804 0.0
C759 C 0.16158 0.85368 0.5518 0.0
C760 C 0.14217 0.81955 0.54939 0.0
H761 H 0.19608 0.8947 0.53306 0.0
H762 H 0.15896 0.87053 0.56939 0.0
C763 C 0.14696 0.79829 0.52638 0.0
C764 C 0.79929 0.84619 0.4778 0.0
C765 C 0.81986 0.85097 0.45448 0.0
H766 H 0.79752 0.82257 0.51636 0.0
C767 C 0.85375 0.8316 0.45151 0.0
H768 H 0.77326 0.86094 0.48093 0.0
C769 C 0.86798 0.81005 0.47209 0.0
C770 C 0.84856 0.80739 0.49605 0.0
H771 H 0.87003 0.83429 0.43366 0.0
H772 H 0.89522 0.79732 0.46973 0.0
C773 C 0.81343 0.82456 0.4983 0.0
C774 C 0.79938 0.1282 0.53233 0.0
C775 C 0.79656 0.14753 0.50837 0.0
H776 H 0.82331 0.12701 0.5709 0.0
C777 C 0.81225 0.18351 0.50637 0.0
H778 H 0.78771 0.10034 0.53445 0.0
C779 C 0.83285 0.19863 0.52713 0.0
C780 C 0.8382 0.17809 0.55039 0.0
H781 H 0.81012 0.19926 0.48827 0.0
H782 H 0.84668 0.22532 0.52419 0.0
C783 C 0.82005 0.14332 0.55313 0.0
C784 C 0.8086 0.16389 0.96955 0.0
C785 C 0.82925 0.15495 0.94685 0.0
H786 H 0.80953 0.18779 0.00815 0.0
C787 C 0.8661 0.1685 0.94457 0.0
H788 H 0.78033 0.15355 0.97219 0.0
C789 C 0.88293 0.18765 0.96539 0.0
C790 C 0.86312 0.19403 0.98878 0.0
H791 H 0.88253 0.16277 0.92716 0.0
H792 H 0.91196 0.19613 0.96363 0.0
C793 C 0.82535 0.18339 0.99027 0.0
C794 C 0.1849 0.12246 0.026 0.0
C795 C 0.18739 0.14173 0.00199 0.0
H796 H 0.16177 0.1213 0.06482 0.0
C797 C 0.1711 0.1773 -0.00011 0.0
H798 H 0.197 0.0949 0.02819 0.0
C799 C 0.15068 0.19223 0.02074 0.0
C800 C 0.14614 0.17195 0.04421 0.0
H801 H 0.17295 0.19301 0.98175 0.0
H802 H 0.13668 0.21873 0.01784 0.0
C803 C 0.16442 0.13741 0.0469 0.0
C804 C 0.12846 0.803 0.95965 0.0
C805 C 0.14368 0.80383 0.98513 0.0
H806 H 0.13092 0.82466 0.92043 0.0
C807 C 0.17628 0.82499 0.98964 0.0
H808 H 0.10375 0.78643 0.9554 0.0
C809 C 0.1919 0.84666 0.96961 0.0
C810 C 0.17529 0.8477 0.94459 0.0
H811 H 0.18848 0.82672 0.00907 0.0
H812 H 0.21563 0.86442 0.97425 0.0
C813 C 0.14404 0.8248 0.9396 0.0
C814 C 0.82393 0.88326 0.03182 0.0
C815 C 0.80933 0.86625 0.00908 0.0
H816 H 0.85924 0.87748 0.06549 0.0
C817 C 0.81509 0.82776 0.00518 0.0
H818 H 0.81942 0.91273 0.03561 0.0
C819 C 0.83742 0.80746 0.02252 0.0
C820 C 0.85456 0.82522 0.04405 0.0
H821 H 0.80439 0.81378 0.98785 0.0
H822 H 0.84277 0.77823 0.01834 0.0
C823 C 0.84638 0.86296 0.04912 0.0
C824 C 0.12568 0.11923 0.72063 0.0
C825 C 0.11145 0.15553 0.72369 0.0
H826 H 0.15305 0.07285 0.73868 0.0
C827 C 0.11533 0.17359 0.74801 0.0
H828 H 0.12268 0.10458 0.70211 0.0
C829 C 0.13346 0.15582 0.76884 0.0
C830 C 0.14757 0.11928 0.76596 0.0
H831 H 0.10497 0.20178 0.75075 0.0
H832 H 0.13684 0.17103 0.78708 0.0
C833 C 0.14329 0.10119 0.74157 0.0
C834 C 0.09892 0.83776 0.25212 0.0
C835 C 0.10982 0.84684 0.22635 0.0
H836 H 0.10792 0.84619 0.29321 0.0
C837 C 0.13851 0.87341 0.22271 0.0
H838 H 0.07664 0.81779 0.25571 0.0
C839 C 0.15583 0.89042 0.24423 0.0
C840 C 0.14527 0.88103 0.27001 0.0
H841 H 0.14809 0.88076 0.2032 0.0
H842 H 0.17748 0.91106 0.24059 0.0
C843 C 0.11651 0.85453 0.27367 0.0
C844 C 0.87615 0.88535 0.73359 0.0
C845 C 0.87469 0.84622 0.73137 0.0
H846 H 0.86108 0.93358 0.75594 0.0
C847 C 0.85504 0.82549 0.7503 0.0
H848 H 0.89146 0.9019 0.71933 0.0
C849 C 0.83678 0.84361 0.77095 0.0
C850 C 0.83835 0.88287 0.77341 0.0
H851 H 0.85316 0.79529 0.74882 0.0
H852 H 0.82098 0.82677 0.78474 0.0
C853 C 0.85848 0.90346 0.75449 0.0
C854 C 0.85998 0.0954 0.25113 0.0
C855 C 0.84964 0.11639 0.27333 0.0
H856 H 0.88525 0.09554 0.21305 0.0
C857 C 0.85832 0.15481 0.27393 0.0
H858 H 0.85418 0.06566 0.25012 0.0
C859 C 0.87684 0.1718 0.2529 0.0
C860 C 0.88694 0.15088 0.23061 0.0
H861 H 0.85041 0.17198 0.29054 0.0
H862 H 0.88342 0.20135 0.25421 0.0
C863 C 0.87832 0.11244 0.23001 0.0
loop_
_geom_bond_atom_site_label_1
_geom_bond_atom_site_label_2
_geom_bond_distance
_geom_bond_site_symmetry_2
_ccdc_geom_bond_type
Li0 N17 1.990 . S
Li0 O60 1.956 . S
Li0 O61 1.970 . S
Li0 O62 1.961 . S
Li1 N25 1.990 . S
Li1 O60 1.970 . S
Li1 O61 1.956 . S
Li1 O63 1.961 . S
Li2 N47 1.990 1_455 S
Li2 O60 1.961 . S
Li2 O62 1.956 . S
Li2 O63 1.970 . S
Li3 N53 1.990 . S
Li3 O61 1.961 . S
Li3 O62 1.970 . S
Li3 O63 1.956 . S
C4 C6 1.348 . S
C4 C7 1.356 . S
C4 O60 1.325 1_655 S
N5 C8 1.314 . S
N5 C9 1.279 . S
C6 C4 1.348 . S
C6 C8 1.353 . S
C6 H64 0.929 . S
C7 C4 1.356 . S
C7 C9 1.358 . S
C7 H65 0.930 . S
C8 N5 1.314 . S
C8 C6 1.353 . S
C8 H66 0.930 . S
C9 N5 1.279 . S
C9 C7 1.358 . S
C9 H67 0.930 . S
C10 C13 1.348 . S
C10 C14 1.356 . S
C10 O61 1.325 . S
C11 N12 1.279 . S
C11 C14 1.358 . S
C11 H68 0.930 . S
N12 C11 1.279 . S
N12 C15 1.314 . S
C13 C10 1.348 . S
C13 C15 1.353 . S
C13 H69 0.929 . S
C14 C10 1.356 . S
C14 C11 1.358 . S
C14 H70 0.930 . S
C15 N12 1.314 . S
C15 C13 1.353 . S
C15 H71 0.930 . S
C16 N17 1.314 . S
C16 C21 1.353 . S
C16 H22 0.930 . S
N17 Li0 1.990 . S
N17 C16 1.314 . S
N17 C19 1.279 . S
C18 C19 1.358 . S
C18 C20 1.356 . S
C18 H72 0.930 . S
C19 N17 1.279 . S
C19 C18 1.358 . S
C19 H23 0.930 . S
C20 C18 1.356 . S
C20 C21 1.348 . S
C21 C16 1.353 . S
C21 C20 1.348 . S
C21 H73 0.929 . S
H22 C16 0.930 . S
H23 C19 0.930 . S
C24 N25 1.314 . S
C24 C26 1.353 . S
C24 H30 0.930 1_455 S
N25 Li1 1.990 . S
N25 C24 1.314 . S
N25 C28 1.279 . S
C26 C24 1.353 . S
C26 C29 1.348 . S
C26 H74 0.929 1_455 S
C27 C28 1.358 . S
C27 C29 1.356 . S
C27 H75 0.930 . S
C28 N25 1.279 . S
C28 C27 1.358 . S
C28 H31 0.930 . S
C29 C26 1.348 . S
C29 C27 1.356 . S
H30 C24 0.930 1_655 S
H31 C28 0.930 . S
C32 C34 1.348 . S
C32 C35 1.356 . S
C32 O62 1.325 . S
N33 C36 1.314 . S
N33 C37 1.279 . S
C34 C32 1.348 . S
C34 C36 1.353 . S
C34 H76 0.929 . S
C35 C32 1.356 . S
C35 C37 1.358 . S
C35 H77 0.930 . S
C36 N33 1.314 . S
C36 C34 1.353 . S
C36 H78 0.930 . S
C37 N33 1.279 . S
C37 C35 1.358 . S
C37 H79 0.930 . S
C38 C39 1.330 1_455 S
C38 C40 1.356 . S
C38 O63 1.325 . S
C39 C38 1.330 1_655 S
C39 C41 1.357 . S
C39 H80 0.943 . S
C40 C38 1.356 . S
C40 C42 1.358 . S
C40 H81 0.930 . S
C41 C39 1.357 . S
C41 N43 1.314 1_655 S
C41 H82 0.930 . S
C42 C40 1.358 . S
C42 N43 1.279 . S
C42 H83 0.930 . S
N43 C41 1.314 1_455 S
N43 C42 1.279 . S
C44 C46 1.353 . S
C44 N47 1.314 . S
C44 H50 0.930 . S
C45 N47 1.279 . S
C45 C48 1.358 . S
C45 H51 0.930 . S
C46 C44 1.353 . S
C46 C49 1.348 . S
C46 H84 0.929 . S
N47 Li2 1.990 1_655 S
N47 C44 1.314 . S
N47 C45 1.279 . S
C48 C45 1.358 . S
C48 C49 1.356 . S
C48 H85 0.930 . S
C49 C46 1.348 . S
C49 C48 1.356 . S
H50 C44 0.930 . S
H51 C45 0.930 . S
C52 N53 1.314 . S
C52 C54 1.353 . S
C52 H58 0.930 . S
N53 Li3 1.990 . S
N53 C52 1.314 . S
N53 C56 1.279 . S
C54 C52 1.353 . S
C54 C57 1.348 . S
C54 H86 0.929 . S
C55 C56 1.358 . S
C55 C57 1.356 . S
C55 H87 0.930 . S
C56 N53 1.279 . S
C56 C55 1.358 . S
C56 H59 0.930 . S
C57 C54 1.348 . S
C57 C55 1.356 . S
H58 C52 0.930 . S
H59 C56 0.930 . S
O60 Li0 1.956 . S
O60 Li1 1.970 . S
O60 Li2 1.961 . S
O60 C4 1.325 1_455 S
O61 Li0 1.970 . S
O61 Li1 1.956 . S
O61 Li3 1.961 . S
O61 C10 1.325 . S
O62 Li0 1.961 . S
O62 Li2 1.956 . S
O62 Li3 1.970 . S
O62 C32 1.325 . S
O63 Li1 1.961 . S
O63 Li2 1.970 . S
O63 Li3 1.956 . S
O63 C38 1.325 . S
H64 C6 0.929 . S
H65 C7 0.930 . S
H66 C8 0.930 . S
H67 C9 0.930 . S
H68 C11 0.930 . S
H69 C13 0.929 . S
H70 C14 0.930 . S
H71 C15 0.930 . S
H72 C18 0.930 . S
H73 C21 0.929 . S
H74 C26 0.929 1_655 S
H75 C27 0.930 . S
H76 C34 0.929 . S
H77 C35 0.930 . S
H78 C36 0.930 . S
H79 C37 0.930 . S
H80 C39 0.943 . S
H81 C40 0.930 . S
H82 C41 0.930 . S
H83 C42 0.930 . S
H84 C46 0.929 . S
H85 C48 0.930 . S
H86 C54 0.929 . S
H87 C55 0.930 . S
Li88 N105 2.008 . S
Li88 O148 1.954 1_545 S
Li88 O149 1.959 1_545 S
Li88 O150 1.946 1_545 S
Li89 N113 1.990 . S
Li89 O148 1.970 . S
Li89 O149 1.956 . S
Li89 O151 1.961 . S
Li90 N135 1.990 . S
Li90 O148 1.961 . S
Li90 O150 1.956 . S
Li90 O151 1.970 . S
Li91 N141 1.990 . S
Li91 O149 1.961 . S
Li91 O150 1.970 . S
Li91 O151 1.956 . S
C92 C94 1.348 . S
C92 C95 1.356 . S
C92 O148 1.325 1_545 S
N93 C96 1.314 . S
N93 C97 1.279 . S
C94 C92 1.348 . S
C94 C96 1.353 . S
C94 H152 0.929 . S
C95 C92 1.356 . S
C95 C97 1.358 . S
C95 H153 0.930 . S
C96 N93 1.314 . S
C96 C94 1.353 . S
C96 H154 0.930 . S
C97 N93 1.279 . S
C97 C95 1.358 . S
C97 H155 0.930 . S
C98 C101 1.348 1_565 S
C98 C102 1.356 . S
C98 O149 1.325 . S
C99 N100 1.279 . S
C99 C102 1.358 . S
C99 H156 0.930 . S
N100 C99 1.279 . S
N100 C103 1.314 1_565 S
C101 C98 1.348 1_545 S
C101 C103 1.353 . S
C101 H157 0.929 . S
C102 C98 1.356 . S
C102 C99 1.358 . S
C102 H158 0.930 . S
C103 N100 1.314 1_545 S
C103 C101 1.353 . S
C103 H159 0.930 . S
C104 N105 1.314 . S
C104 C109 1.353 . S
C104 H110 0.930 . S
N105 Li88 2.008 . S
N105 C104 1.314 . S
N105 C107 1.279 . S
C106 C107 1.358 . S
C106 C108 1.356 . S
C106 H160 0.930 . S
C107 N105 1.279 . S
C107 C106 1.358 . S
C107 H111 0.930 . S
C108 C106 1.356 . S
C108 C109 1.348 . S
C109 C104 1.353 . S
C109 C108 1.348 . S
C109 H161 0.929 . S
H110 C104 0.930 . S
H111 C107 0.930 . S
C112 N113 1.314 . S
C112 C114 1.353 . S
C112 H118 0.930 . S
N113 Li89 1.990 . S
N113 C112 1.314 . S
N113 C116 1.279 . S
C114 C112 1.353 . S
C114 C117 1.348 . S
C114 H162 0.929 . S
C115 C116 1.358 . S
C115 C117 1.356 . S
C115 H163 0.930 . S
C116 N113 1.279 . S
C116 C115 1.358 . S
C116 H119 0.930 . S
C117 C114 1.348 . S
C117 C115 1.356 . S
H118 C112 0.930 . S
H119 C116 0.930 . S
C120 C122 1.348 . S
C120 C123 1.356 . S
C120 O150 1.325 . S
N121 C124 1.314 . S
N121 C125 1.279 . S
C122 C120 1.348 . S
C122 C124 1.353 . S
C122 H164 0.929 . S
C123 C120 1.356 . S
C123 C125 1.358 . S
C123 H165 0.930 1_565 S
C124 N121 1.314 . S
C124 C122 1.353 . S
C124 H166 0.930 . S
C125 N121 1.279 . S
C125 C123 1.358 . S
C125 H167 0.930 1_565 S
C126 C127 1.348 . S
C126 C128 1.356 . S
C126 O151 1.325 . S
C127 C126 1.348 . S
C127 C129 1.353 . S
C127 H168 0.929 . S
C128 C126 1.356 . S
C128 C130 1.358 . S
C128 H169 0.930 . S
C129 C127 1.353 . S
C129 N131 1.314 . S
C129 H170 0.930 . S
C130 C128 1.358 . S
C130 N131 1.279 . S
C130 H171 0.930 . S
N131 C129 1.314 . S
N131 C130 1.279 . S
C132 C134 1.353 . S
C132 N135 1.314 . S
C132 H138 0.930 . S
C133 N135 1.279 . S
C133 C136 1.358 . S
C133 H139 0.930 . S
C134 C132 1.353 . S
C134 C137 1.348 . S
C134 H172 0.929 . S
N135 Li90 1.990 . S
N135 C132 1.314 . S
N135 C133 1.279 . S
C136 C133 1.358 . S
C136 C137 1.356 . S
C136 H173 0.930 . S
C137 C134 1.348 . S
C137 C136 1.356 . S
H138 C132 0.930 . S
H139 C133 0.930 . S
C140 N141 1.314 . S
C140 C142 1.353 . S
C140 H146 0.930 . S
N141 Li91 1.990 . S
N141 C140 1.314 . S
N141 C144 1.279 . S
C142 C140 1.353 . S
C142 C145 1.348 . S
C142 H174 0.929 . S
C143 C144 1.358 . S
C143 C145 1.356 . S
C143 H175 0.930 . S
C144 N141 1.279 . S
C144 C143 1.358 . S
C144 H147 0.930 . S
C145 C142 1.348 . S
C145 C143 1.356 . S
H146 C140 0.930 . S
H147 C144 0.930 . S
O148 Li88 1.954 1_565 S
O148 Li89 1.970 . S
O148 Li90 1.961 . S
O148 C92 1.325 1_565 S
O149 Li88 1.959 1_565 S
O149 Li89 1.956 . S
O149 Li91 1.961 . S
O149 C98 1.325 . S
O150 Li88 1.946 1_565 S
O150 Li90 1.956 . S
O150 Li91 1.970 . S
O150 C120 1.325 . S
O151 Li89 1.961 . S
O151 Li90 1.970 . S
O151 Li91 1.956 . S
O151 C126 1.325 . S
H152 C94 0.929 . S
H153 C95 0.930 . S
H154 C96 0.930 . S
H155 C97 0.930 . S
H156 C99 0.930 . S
H157 C101 0.929 . S
H158 C102 0.930 . S
H159 C103 0.930 . S
H160 C106 0.930 . S
H161 C109 0.929 . S
H162 C114 0.929 . S
H163 C115 0.930 . S
H164 C122 0.929 . S
H165 C123 0.930 1_545 S
H166 C124 0.930 . S
H167 C125 0.930 1_545 S
H168 C127 0.929 . S
H169 C128 0.930 . S
H170 C129 0.930 . S
H171 C130 0.930 . S
H172 C134 0.929 . S
H173 C136 0.930 . S
H174 C142 0.929 . S
H175 C143 0.930 . S
Li176 N193 1.990 . S
Li176 O236 1.956 . S
Li176 O237 1.970 . S
Li176 O238 1.961 . S
Li177 N201 1.990 . S
Li177 O236 1.970 . S
Li177 O237 1.956 . S
Li177 O239 1.961 . S
Li178 N223 1.990 1_655 S
Li178 O236 1.961 . S
Li178 O238 1.956 . S
Li178 O239 1.970 . S
Li179 N229 1.990 . S
Li179 O237 1.961 . S
Li179 O238 1.970 . S
Li179 O239 1.956 . S
C180 C182 1.348 . S
C180 C183 1.356 . S
C180 O236 1.325 1_455 S
N181 C184 1.314 . S
N181 C185 1.279 . S
C182 C180 1.348 . S
C182 C184 1.353 . S
C182 H240 0.929 . S
C183 C180 1.356 . S
C183 C185 1.358 . S
C183 H241 0.930 . S
C184 N181 1.314 . S
C184 C182 1.353 . S
C184 H242 0.930 . S
C185 N181 1.279 . S
C185 C183 1.358 . S
C185 H243 0.930 . S
C186 C189 1.348 . S
C186 C190 1.356 . S
C186 O237 1.325 . S
C187 N188 1.279 . S
C187 C190 1.358 . S
C187 H244 0.930 . S
N188 C187 1.279 . S
N188 C191 1.314 . S
C189 C186 1.348 . S
C189 C191 1.353 . S
C189 H245 0.929 . S
C190 C186 1.356 . S
C190 C187 1.358 . S
C190 H246 0.930 . S
C191 N188 1.314 . S
C191 C189 1.353 . S
C191 H247 0.930 . S
C192 N193 1.314 . S
C192 C197 1.353 . S
C192 H198 0.930 . S
N193 Li176 1.990 . S
N193 C192 1.314 . S
N193 C195 1.279 . S
C194 C195 1.358 . S
C194 C196 1.356 . S
C194 H248 0.930 . S
C195 N193 1.279 . S
C195 C194 1.358 . S
C195 H199 0.930 . S
C196 C194 1.356 . S
C196 C197 1.348 . S
C197 C192 1.353 . S
C197 C196 1.348 . S
C197 H249 0.929 . S
H198 C192 0.930 . S
H199 C195 0.930 . S
C200 N201 1.314 . S
C200 C202 1.353 . S
C200 H206 0.930 1_655 S
N201 Li177 1.990 . S
N201 C200 1.314 . S
N201 C204 1.279 . S
C202 C200 1.353 . S
C202 C205 1.348 . S
C202 H250 0.929 1_655 S
C203 C204 1.358 . S
C203 C205 1.356 . S
C203 H251 0.930 . S
C204 N201 1.279 . S
C204 C203 1.358 . S
C204 H207 0.930 . S
C205 C202 1.348 . S
C205 C203 1.356 . S
H206 C200 0.930 1_455 S
H207 C204 0.930 . S
C208 C210 1.348 . S
C208 C211 1.356 . S
C208 O238 1.325 . S
N209 C212 1.314 . S
N209 C213 1.279 . S
C210 C208 1.348 . S
C210 C212 1.353 . S
C210 H252 0.929 . S
C211 C208 1.356 . S
C211 C213 1.358 . S
C211 H253 0.930 . S
C212 N209 1.314 . S
C212 C210 1.353 . S
C212 H254 0.930 . S
C213 N209 1.279 . S
C213 C211 1.358 . S
C213 H255 0.930 . S
C214 C215 1.330 1_655 S
C214 C216 1.356 . S
C214 O239 1.325 . S
C215 C214 1.330 1_455 S
C215 C217 1.357 . S
C215 H256 0.943 . S
C216 C214 1.356 . S
C216 C218 1.358 . S
C216 H257 0.930 . S
C217 C215 1.357 . S
C217 N219 1.314 1_455 S
C217 H258 0.930 . S
C218 C216 1.358 . S
C218 N219 1.279 . S
C218 H259 0.930 . S
N219 C217 1.314 1_655 S
N219 C218 1.279 . S
C220 C222 1.353 . S
C220 N223 1.314 . S
C220 H226 0.930 . S
C221 N223 1.279 . S
C221 C224 1.358 . S
C221 H227 0.930 . S
C222 C220 1.353 . S
C222 C225 1.348 . S
C222 H260 0.929 . S
N223 Li178 1.990 1_455 S
N223 C220 1.314 . S
N223 C221 1.279 . S
C224 C221 1.358 . S
C224 C225 1.356 . S
C224 H261 0.930 . S
C225 C222 1.348 . S
C225 C224 1.356 . S
H226 C220 0.930 . S
H227 C221 0.930 . S
C228 N229 1.314 . S
C228 C230 1.353 . S
C228 H234 0.930 . S
N229 Li179 1.990 . S
N229 C228 1.314 . S
N229 C232 1.279 . S
C230 C228 1.353 . S
C230 C233 1.348 . S
C230 H262 0.929 . S
C231 C232 1.358 . S
C231 C233 1.356 . S
C231 H263 0.930 . S
C232 N229 1.279 . S
C232 C231 1.358 . S
C232 H235 0.930 . S
C233 C230 1.348 . S
C233 C231 1.356 . S
H234 C228 0.930 . S
H235 C232 0.930 . S
O236 Li176 1.956 . S
O236 Li177 1.970 . S
O236 Li178 1.961 . S
O236 C180 1.325 1_655 S
O237 Li176 1.970 . S
O237 Li177 1.956 . S
O237 Li179 1.961 . S
O237 C186 1.325 . S
O238 Li176 1.961 . S
O238 Li178 1.956 . S
O238 Li179 1.970 . S
O238 C208 1.325 . S
O239 Li177 1.961 . S
O239 Li178 1.970 . S
O239 Li179 1.956 . S
O239 C214 1.325 . S
H240 C182 0.929 . S
H241 C183 0.930 . S
H242 C184 0.930 . S
H243 C185 0.930 . S
H244 C187 0.930 . S
H245 C189 0.929 . S
H246 C190 0.930 . S
H247 C191 0.930 . S
H248 C194 0.930 . S
H249 C197 0.929 . S
H250 C202 0.929 1_455 S
H251 C203 0.930 . S
H252 C210 0.929 . S
H253 C211 0.930 . S
H254 C212 0.930 . S
H255 C213 0.930 . S
H256 C215 0.943 . S
H257 C216 0.930 . S
H258 C217 0.930 . S
H259 C218 0.930 . S
H260 C222 0.929 . S
H261 C224 0.930 . S
H262 C230 0.929 . S
H263 C231 0.930 . S
Li264 N281 1.990 . S
Li264 O324 1.956 . S
Li264 O325 1.970 . S
Li264 O326 1.961 . S
Li265 N289 1.990 . S
Li265 O324 1.970 . S
Li265 O325 1.956 . S
Li265 O327 1.961 . S
Li266 N311 2.008 . S
Li266 O324 1.946 1_565 S
Li266 O326 1.954 1_565 S
Li266 O327 1.959 1_565 S
Li267 N317 1.990 . S
Li267 O325 1.961 . S
Li267 O326 1.970 . S
Li267 O327 1.956 . S
C268 C270 1.348 . S
C268 C271 1.356 . S
C268 O324 1.325 . S
N269 C272 1.314 . S
N269 C273 1.279 . S
C270 C268 1.348 . S
C270 C272 1.353 . S
C270 H328 0.929 . S
C271 C268 1.356 . S
C271 C273 1.358 . S
C271 H329 0.930 1_545 S
C272 N269 1.314 . S
C272 C270 1.353 . S
C272 H330 0.930 . S
C273 N269 1.279 . S
C273 C271 1.358 . S
C273 H331 0.930 1_545 S
C274 C277 1.348 . S
C274 C278 1.356 . S
C274 O325 1.325 . S
C275 N276 1.279 . S
C275 C278 1.358 . S
C275 H332 0.930 . S
N276 C275 1.279 . S
N276 C279 1.314 . S
C277 C274 1.348 . S
C277 C279 1.353 . S
C277 H333 0.929 . S
C278 C274 1.356 . S
C278 C275 1.358 . S
C278 H334 0.930 . S
C279 N276 1.314 . S
C279 C277 1.353 . S
C279 H335 0.930 . S
C280 N281 1.314 . S
C280 C285 1.353 . S
C280 H286 0.930 . S
N281 Li264 1.990 . S
N281 C280 1.314 . S
N281 C283 1.279 . S
C282 C283 1.358 . S
C282 C284 1.356 . S
C282 H336 0.930 . S
C283 N281 1.279 . S
C283 C282 1.358 . S
C283 H287 0.930 . S
C284 C282 1.356 . S
C284 C285 1.348 . S
C285 C280 1.353 . S
C285 C284 1.348 . S
C285 H337 0.929 . S
H286 C280 0.930 . S
H287 C283 0.930 . S
C288 N289 1.314 . S
C288 C290 1.353 . S
C288 H294 0.930 . S
N289 Li265 1.990 . S
N289 C288 1.314 . S
N289 C292 1.279 . S
C290 C288 1.353 . S
C290 C293 1.348 . S
C290 H338 0.929 . S
C291 C292 1.358 . S
C291 C293 1.356 . S
C291 H339 0.930 . S
C292 N289 1.279 . S
C292 C291 1.358 . S
C292 H295 0.930 . S
C293 C290 1.348 . S
C293 C291 1.356 . S
H294 C288 0.930 . S
H295 C292 0.930 . S
C296 C298 1.348 . S
C296 C299 1.356 . S
C296 O326 1.325 1_565 S
N297 C300 1.314 . S
N297 C301 1.279 . S
C298 C296 1.348 . S
C298 C300 1.353 . S
C298 H340 0.929 . S
C299 C296 1.356 . S
C299 C301 1.358 . S
C299 H341 0.930 . S
C300 N297 1.314 . S
C300 C298 1.353 . S
C300 H342 0.930 . S
C301 N297 1.279 . S
C301 C299 1.358 . S
C301 H343 0.930 . S
C302 C303 1.348 1_545 S
C302 C304 1.356 . S
C302 O327 1.325 . S
C303 C302 1.348 1_565 S
C303 C305 1.353 . S
C303 H344 0.929 . S
C304 C302 1.356 . S
C304 C306 1.358 . S
C304 H345 0.930 . S
C305 C303 1.353 . S
C305 N307 1.314 1_565 S
C305 H346 0.930 . S
C306 C304 1.358 . S
C306 N307 1.279 . S
C306 H347 0.930 . S
N307 C305 1.314 1_545 S
N307 C306 1.279 . S
C308 C310 1.353 . S
C308 N311 1.314 . S
C308 H314 0.930 . S
C309 N311 1.279 . S
C309 C312 1.358 . S
C309 H315 0.930 . S
C310 C308 1.353 . S
C310 C313 1.348 . S
C310 H348 0.929 . S
N311 Li266 2.008 . S
N311 C308 1.314 . S
N311 C309 1.279 . S
C312 C309 1.358 . S
C312 C313 1.356 . S
C312 H349 0.930 . S
C313 C310 1.348 . S
C313 C312 1.356 . S
H314 C308 0.930 . S
H315 C309 0.930 . S
C316 N317 1.314 . S
C316 C318 1.353 . S
C316 H322 0.930 . S
N317 Li267 1.990 . S
N317 C316 1.314 . S
N317 C320 1.279 . S
C318 C316 1.353 . S
C318 C321 1.348 . S
C318 H350 0.929 . S
C319 C320 1.358 . S
C319 C321 1.356 . S
C319 H351 0.930 . S
C320 N317 1.279 . S
C320 C319 1.358 . S
C320 H323 0.930 . S
C321 C318 1.348 . S
C321 C319 1.356 . S
H322 C316 0.930 . S
H323 C320 0.930 . S
O324 Li264 1.956 . S
O324 Li265 1.970 . S
O324 Li266 1.946 1_545 S
O324 C268 1.325 . S
O325 Li264 1.970 . S
O325 Li265 1.956 . S
O325 Li267 1.961 . S
O325 C274 1.325 . S
O326 Li264 1.961 . S
O326 Li266 1.954 1_545 S
O326 Li267 1.970 . S
O326 C296 1.325 1_545 S
O327 Li265 1.961 . S
O327 Li266 1.959 1_545 S
O327 Li267 1.956 . S
O327 C302 1.325 . S
H328 C270 0.929 . S
H329 C271 0.930 1_565 S
H330 C272 0.930 . S
H331 C273 0.930 1_565 S
H332 C275 0.930 . S
H333 C277 0.929 . S
H334 C278 0.930 . S
H335 C279 0.930 . S
H336 C282 0.930 . S
H337 C285 0.929 . S
H338 C290 0.929 . S
H339 C291 0.930 . S
H340 C298 0.929 . S
H341 C299 0.930 . S
H342 C300 0.930 . S
H343 C301 0.930 . S
H344 C303 0.929 . S
H345 C304 0.930 . S
H346 C305 0.930 . S
H347 C306 0.930 . S
H348 C310 0.929 . S
H349 C312 0.930 . S
H350 C318 0.929 . S
H351 C319 0.930 . S
Li352 N369 1.990 . S
Li352 O412 1.956 . S
Li352 O413 1.970 . S
Li352 O414 1.961 . S
Li353 N377 1.990 . S
Li353 O412 1.970 . S
Li353 O413 1.956 . S
Li353 O415 1.961 . S
Li354 N399 1.990 . S
Li354 O412 1.961 . S
Li354 O414 1.956 . S
Li354 O415 1.970 . S
Li355 N405 2.008 . S
Li355 O413 1.946 1_455 S
Li355 O414 1.959 1_455 S
Li355 O415 1.954 1_455 S
C356 C358 1.348 . S
C356 C359 1.356 . S
C356 O412 1.325 . S
N357 C360 1.314 . S
N357 C361 1.279 . S
C358 C356 1.348 . S
C358 C360 1.353 . S
C358 H416 0.929 . S
C359 C356 1.356 . S
C359 C361 1.358 . S
C359 H417 0.930 . S
C360 N357 1.314 . S
C360 C358 1.353 . S
C360 H418 0.930 . S
C361 N357 1.279 . S
C361 C359 1.358 . S
C361 H419 0.930 . S
C362 C365 1.348 . S
C362 C366 1.356 . S
C362 O413 1.325 . S
C363 N364 1.279 . S
C363 C366 1.358 . S
C363 H420 0.930 1_655 S
N364 C363 1.279 . S
N364 C367 1.314 . S
C365 C362 1.348 . S
C365 C367 1.353 . S
C365 H421 0.929 . S
C366 C362 1.356 . S
C366 C363 1.358 . S
C366 H422 0.930 1_655 S
C367 N364 1.314 . S
C367 C365 1.353 . S
C367 H423 0.930 . S
C368 N369 1.314 . S
C368 C373 1.353 . S
C368 H374 0.930 . S
N369 Li352 1.990 . S
N369 C368 1.314 . S
N369 C371 1.279 . S
C370 C371 1.358 . S
C370 C372 1.356 . S
C370 H424 0.930 . S
C371 N369 1.279 . S
C371 C370 1.358 . S
C371 H375 0.930 . S
C372 C370 1.356 . S
C372 C373 1.348 . S
C373 C368 1.353 . S
C373 C372 1.348 . S
C373 H425 0.929 1_554 S
H374 C368 0.930 . S
H375 C371 0.930 . S
C376 N377 1.314 . S
C376 C378 1.353 . S
C376 H382 0.930 . S
N377 Li353 1.990 . S
N377 C376 1.314 . S
N377 C380 1.279 . S
C378 C376 1.353 . S
C378 C381 1.348 . S
C378 H426 0.929 . S
C379 C380 1.358 . S
C379 C381 1.356 . S
C379 H427 0.930 . S
C380 N377 1.279 . S
C380 C379 1.358 . S
C380 H383 0.930 . S
C381 C378 1.348 . S
C381 C379 1.356 . S
H382 C376 0.930 . S
H383 C380 0.930 . S
C384 C386 1.348 1_655 S
C384 C387 1.356 . S
C384 O414 1.325 . S
N385 C388 1.314 1_656 S
N385 C389 1.298 . S
C386 C384 1.348 1_455 S
C386 C388 1.353 . S
C386 H428 0.929 . S
C387 C384 1.356 . S
C387 C389 1.320 1_554 S
C387 H429 0.930 . S
C388 N385 1.314 1_454 S
C388 C386 1.353 . S
C388 H430 0.930 1_554 S
C389 N385 1.298 . S
C389 C387 1.320 1_556 S
C389 H431 0.953 . S
C390 C391 1.348 . S
C390 C392 1.356 . S
C390 O415 1.325 1_455 S
C391 C390 1.348 . S
C391 C393 1.353 . S
C391 H432 0.929 . S
C392 C390 1.356 . S
C392 C394 1.358 . S
C392 H433 0.930 . S
C393 C391 1.353 . S
C393 N395 1.314 . S
C393 H434 0.930 . S
C394 C392 1.358 . S
C394 N395 1.279 . S
C394 H435 0.930 . S
N395 C393 1.314 . S
N395 C394 1.279 . S
C396 C398 1.353 . S
C396 N399 1.314 . S
C396 H402 0.930 . S
C397 N399 1.279 . S
C397 C400 1.358 . S
C397 H403 0.930 . S
C398 C396 1.353 . S
C398 C401 1.348 . S
C398 H436 0.929 . S
N399 Li354 1.990 . S
N399 C396 1.314 . S
N399 C397 1.279 . S
C400 C397 1.358 . S
C400 C401 1.356 . S
C400 H437 0.930 . S
C401 C398 1.348 . S
C401 C400 1.356 . S
H402 C396 0.930 . S
H403 C397 0.930 . S
C404 N405 1.314 . S
C404 C406 1.353 . S
C404 H410 0.930 . S
N405 Li355 2.008 . S
N405 C404 1.314 . S
N405 C408 1.279 . S
C406 C404 1.353 . S
C406 C409 1.348 . S
C406 H438 0.929 . S
C407 C408 1.358 . S
C407 C409 1.356 . S
C407 H439 0.930 . S
C408 N405 1.279 . S
C408 C407 1.358 . S
C408 H411 0.930 . S
C409 C406 1.348 . S
C409 C407 1.356 . S
H410 C404 0.930 . S
H411 C408 0.930 . S
O412 Li352 1.956 . S
O412 Li353 1.970 . S
O412 Li354 1.961 . S
O412 C356 1.325 . S
O413 Li352 1.970 . S
O413 Li353 1.956 . S
O413 Li355 1.946 1_655 S
O413 C362 1.325 . S
O414 Li352 1.961 . S
O414 Li354 1.956 . S
O414 Li355 1.959 1_655 S
O414 C384 1.325 . S
O415 Li353 1.961 . S
O415 Li354 1.970 . S
O415 Li355 1.954 1_655 S
O415 C390 1.325 1_655 S
H416 C358 0.929 . S
H417 C359 0.930 . S
H418 C360 0.930 . S
H419 C361 0.930 . S
H420 C363 0.930 1_455 S
H421 C365 0.929 . S
H422 C366 0.930 1_455 S
H423 C367 0.930 . S
H424 C370 0.930 . S
H425 C373 0.929 1_556 S
H426 C378 0.929 . S
H427 C379 0.930 . S
H428 C386 0.929 . S
H429 C387 0.930 . S
H430 C388 0.930 1_556 S
H431 C389 0.953 . S
H432 C391 0.929 . S
H433 C392 0.930 . S
H434 C393 0.930 . S
H435 C394 0.930 . S
H436 C398 0.929 . S
H437 C400 0.930 . S
H438 C406 0.929 . S
H439 C407 0.930 . S
Li440 N457 1.990 . S
Li440 O500 1.956 . S
Li440 O501 1.970 . S
Li440 O502 1.961 . S
Li441 N465 1.990 1_545 S
Li441 O500 1.970 . S
Li441 O501 1.956 . S
Li441 O503 1.961 . S
Li442 N487 1.990 . S
Li442 O500 1.961 . S
Li442 O502 1.956 . S
Li442 O503 1.970 . S
Li443 N493 1.990 . S
Li443 O501 1.961 . S
Li443 O502 1.970 . S
Li443 O503 1.956 . S
C444 C446 1.330 1_545 S
C444 C447 1.356 . S
C444 O500 1.325 . S
N445 C448 1.314 1_545 S
N445 C449 1.279 1_554 S
C446 C444 1.330 1_565 S
C446 C448 1.357 1_556 S
C446 H504 0.943 . S
C447 C444 1.356 . S
C447 C449 1.358 . S
C447 H505 0.930 . S
C448 N445 1.314 1_565 S
C448 C446 1.357 1_554 S
C448 H506 0.930 . S
C449 N445 1.279 1_556 S
C449 C447 1.358 . S
C449 H507 0.930 1_556 S
C450 C453 1.348 . S
C450 C454 1.356 . S
C450 O501 1.325 . S
C451 N452 1.279 . S
C451 C454 1.358 . S
C451 H508 0.930 . S
N452 C451 1.279 . S
N452 C455 1.314 . S
C453 C450 1.348 . S
C453 C455 1.353 . S
C453 H509 0.929 . S
C454 C450 1.356 . S
C454 C451 1.358 . S
C454 H510 0.930 . S
C455 N452 1.314 . S
C455 C453 1.353 . S
C455 H511 0.930 . S
C456 N457 1.314 . S
C456 C461 1.353 . S
C456 H462 0.930 . S
N457 Li440 1.990 . S
N457 C456 1.314 . S
N457 C459 1.279 . S
C458 C459 1.358 . S
C458 C460 1.356 . S
C458 H512 0.930 1_556 S
C459 N457 1.279 . S
C459 C458 1.358 . S
C459 H463 0.930 . S
C460 C458 1.356 . S
C460 C461 1.348 . S
C461 C456 1.353 . S
C461 C460 1.348 . S
C461 H513 0.929 . S
H462 C456 0.930 . S
H463 C459 0.930 . S
C464 N465 1.314 . S
C464 C466 1.353 . S
C464 H470 0.930 . S
N465 Li441 1.990 1_565 S
N465 C464 1.314 . S
N465 C468 1.279 . S
C466 C464 1.353 . S
C466 C469 1.348 . S
C466 H514 0.929 . S
C467 C468 1.358 . S
C467 C469 1.356 . S
C467 H515 0.930 . S
C468 N465 1.279 . S
C468 C467 1.358 . S
C468 H471 0.930 . S
C469 C466 1.348 . S
C469 C467 1.356 . S
H470 C464 0.930 . S
H471 C468 0.930 . S
C472 C474 1.348 . S
C472 C475 1.356 . S
C472 O502 1.325 . S
N473 C476 1.314 . S
N473 C477 1.279 . S
C474 C472 1.348 . S
C474 C476 1.353 . S
C474 H516 0.929 . S
C475 C472 1.356 . S
C475 C477 1.358 . S
C475 H517 0.930 . S
C476 N473 1.314 . S
C476 C474 1.353 . S
C476 H518 0.930 . S
C477 N473 1.279 . S
C477 C475 1.358 . S
C477 H519 0.930 . S
C478 C479 1.348 . S
C478 C480 1.356 . S
C478 O503 1.325 1_565 S
C479 C478 1.348 . S
C479 C481 1.353 . S
C479 H520 0.929 . S
C480 C478 1.356 . S
C480 C482 1.358 . S
C480 H521 0.930 . S
C481 C479 1.353 . S
C481 N483 1.314 . S
C481 H522 0.930 . S
C482 C480 1.358 . S
C482 N483 1.279 . S
C482 H523 0.930 . S
N483 C481 1.314 . S
N483 C482 1.279 . S
C484 C486 1.353 . S
C484 N487 1.314 . S
C484 H490 0.930 1_545 S
C485 N487 1.279 . S
C485 C488 1.358 . S
C485 H491 0.930 . S
C486 C484 1.353 . S
C486 C489 1.348 . S
C486 H524 0.929 1_545 S
N487 Li442 1.990 . S
N487 C484 1.314 . S
N487 C485 1.279 . S
C488 C485 1.358 . S
C488 C489 1.356 . S
C488 H525 0.930 . S
C489 C486 1.348 . S
C489 C488 1.356 . S
H490 C484 0.930 1_565 S
H491 C485 0.930 . S
C492 N493 1.314 . S
C492 C494 1.353 . S
C492 H498 0.930 . S
N493 Li443 1.990 . S
N493 C492 1.314 . S
N493 C496 1.279 . S
C494 C492 1.353 . S
C494 C497 1.348 . S
C494 H526 0.929 . S
C495 C496 1.358 . S
C495 C497 1.356 . S
C495 H527 0.930 . S
C496 N493 1.279 . S
C496 C495 1.358 . S
C496 H499 0.930 . S
C497 C494 1.348 . S
C497 C495 1.356 . S
H498 C492 0.930 . S
H499 C496 0.930 . S
O500 Li440 1.956 . S
O500 Li441 1.970 . S
O500 Li442 1.961 . S
O500 C444 1.325 . S
O501 Li440 1.970 . S
O501 Li441 1.956 . S
O501 Li443 1.961 . S
O501 C450 1.325 . S
O502 Li440 1.961 . S
O502 Li442 1.956 . S
O502 Li443 1.970 . S
O502 C472 1.325 . S
O503 Li441 1.961 . S
O503 Li442 1.970 . S
O503 Li443 1.956 . S
O503 C478 1.325 1_545 S
H504 C446 0.943 . S
H505 C447 0.930 . S
H506 C448 0.930 . S
H507 C449 0.930 1_554 S
H508 C451 0.930 . S
H509 C453 0.929 . S
H510 C454 0.930 . S
H511 C455 0.930 . S
H512 C458 0.930 1_554 S
H513 C461 0.929 . S
H514 C466 0.929 . S
H515 C467 0.930 . S
H516 C474 0.929 . S
H517 C475 0.930 . S
H518 C476 0.930 . S
H519 C477 0.930 . S
H520 C479 0.929 . S
H521 C480 0.930 . S
H522 C481 0.930 . S
H523 C482 0.930 . S
H524 C486 0.929 1_565 S
H525 C488 0.930 . S
H526 C494 0.929 . S
H527 C495 0.930 . S
Li528 N545 2.008 . S
Li528 O588 1.954 1_655 S
Li528 O589 1.959 1_655 S
Li528 O590 1.946 1_655 S
Li529 N553 1.990 . S
Li529 O588 1.970 . S
Li529 O589 1.956 . S
Li529 O591 1.961 . S
Li530 N575 1.990 . S
Li530 O588 1.961 . S
Li530 O590 1.956 . S
Li530 O591 1.970 . S
Li531 N581 1.990 . S
Li531 O589 1.961 . S
Li531 O590 1.970 . S
Li531 O591 1.956 . S
C532 C534 1.348 . S
C532 C535 1.356 . S
C532 O588 1.325 1_655 S
N533 C536 1.314 . S
N533 C537 1.279 . S
C534 C532 1.348 . S
C534 C536 1.353 . S
C534 H592 0.929 . S
C535 C532 1.356 . S
C535 C537 1.358 . S
C535 H593 0.930 . S
C536 N533 1.314 . S
C536 C534 1.353 . S
C536 H594 0.930 . S
C537 N533 1.279 . S
C537 C535 1.358 . S
C537 H595 0.930 . S
C538 C541 1.348 1_455 S
C538 C542 1.356 . S
C538 O589 1.325 . S
C539 N540 1.298 . S
C539 C542 1.320 1_556 S
C539 H596 0.953 . S
N540 C539 1.298 . S
N540 C543 1.314 1_456 S
C541 C538 1.348 1_655 S
C541 C543 1.353 . S
C541 H597 0.929 . S
C542 C538 1.356 . S
C542 C539 1.320 1_554 S
C542 H598 0.930 . S
C543 N540 1.314 1_654 S
C543 C541 1.353 . S
C543 H599 0.930 1_554 S
C544 N545 1.314 . S
C544 C549 1.353 . S
C544 H550 0.930 . S
N545 Li528 2.008 . S
N545 C544 1.314 . S
N545 C547 1.279 . S
C546 C547 1.358 . S
C546 C548 1.356 . S
C546 H600 0.930 . S
C547 N545 1.279 . S
C547 C546 1.358 . S
C547 H551 0.930 . S
C548 C546 1.356 . S
C548 C549 1.348 . S
C549 C544 1.353 . S
C549 C548 1.348 . S
C549 H601 0.929 . S
H550 C544 0.930 . S
H551 C547 0.930 . S
C552 N553 1.314 . S
C552 C554 1.353 . S
C552 H558 0.930 . S
N553 Li529 1.990 . S
N553 C552 1.314 . S
N553 C556 1.279 . S
C554 C552 1.353 . S
C554 C557 1.348 . S
C554 H602 0.929 . S
C555 C556 1.358 . S
C555 C557 1.356 . S
C555 H603 0.930 . S
C556 N553 1.279 . S
C556 C555 1.358 . S
C556 H559 0.930 . S
C557 C554 1.348 . S
C557 C555 1.356 . S
H558 C552 0.930 . S
H559 C556 0.930 . S
C560 C562 1.348 . S
C560 C563 1.356 . S
C560 O590 1.325 . S
N561 C564 1.314 . S
N561 C565 1.279 . S
C562 C560 1.348 . S
C562 C564 1.353 . S
C562 H604 0.929 . S
C563 C560 1.356 . S
C563 C565 1.358 . S
C563 H605 0.930 1_455 S
C564 N561 1.314 . S
C564 C562 1.353 . S
C564 H606 0.930 . S
C565 N561 1.279 . S
C565 C563 1.358 . S
C565 H607 0.930 1_455 S
C566 C567 1.348 . S
C566 C568 1.356 . S
C566 O591 1.325 . S
C567 C566 1.348 . S
C567 C569 1.353 . S
C567 H608 0.929 . S
C568 C566 1.356 . S
C568 C570 1.358 . S
C568 H609 0.930 . S
C569 C567 1.353 . S
C569 N571 1.314 . S
C569 H610 0.930 . S
C570 C568 1.358 . S
C570 N571 1.279 . S
C570 H611 0.930 . S
N571 C569 1.314 . S
N571 C570 1.279 . S
C572 C574 1.353 . S
C572 N575 1.314 . S
C572 H578 0.930 . S
C573 N575 1.279 . S
C573 C576 1.358 . S
C573 H579 0.930 . S
C574 C572 1.353 . S
C574 C577 1.348 . S
C574 H612 0.929 . S
N575 Li530 1.990 . S
N575 C572 1.314 . S
N575 C573 1.279 . S
C576 C573 1.358 . S
C576 C577 1.356 . S
C576 H613 0.930 . S
C577 C574 1.348 . S
C577 C576 1.356 . S
H578 C572 0.930 . S
H579 C573 0.930 . S
C580 N581 1.314 . S
C580 C582 1.353 . S
C580 H586 0.930 . S
N581 Li531 1.990 . S
N581 C580 1.314 . S
N581 C584 1.279 . S
C582 C580 1.353 . S
C582 C585 1.348 . S
C582 H614 0.929 1_554 S
C583 C584 1.358 . S
C583 C585 1.356 . S
C583 H615 0.930 . S
C584 N581 1.279 . S
C584 C583 1.358 . S
C584 H587 0.930 . S
C585 C582 1.348 . S
C585 C583 1.356 . S
H586 C580 0.930 . S
H587 C584 0.930 . S
O588 Li528 1.954 1_455 S
O588 Li529 1.970 . S
O588 Li530 1.961 . S
O588 C532 1.325 1_455 S
O589 Li528 1.959 1_455 S
O589 Li529 1.956 . S
O589 Li531 1.961 . S
O589 C538 1.325 . S
O590 Li528 1.946 1_455 S
O590 Li530 1.956 . S
O590 Li531 1.970 . S
O590 C560 1.325 . S
O591 Li529 1.961 . S
O591 Li530 1.970 . S
O591 Li531 1.956 . S
O591 C566 1.325 . S
H592 C534 0.929 . S
H593 C535 0.930 . S
H594 C536 0.930 . S
H595 C537 0.930 . S
H596 C539 0.953 . S
H597 C541 0.929 . S
H598 C542 0.930 . S
H599 C543 0.930 1_556 S
H600 C546 0.930 . S
H601 C549 0.929 . S
H602 C554 0.929 . S
H603 C555 0.930 . S
H604 C562 0.929 . S
H605 C563 0.930 1_655 S
H606 C564 0.930 . S
H607 C565 0.930 1_655 S
H608 C567 0.929 . S
H609 C568 0.930 . S
H610 C569 0.930 . S
H611 C570 0.930 . S
H612 C574 0.929 . S
H613 C576 0.930 . S
H614 C582 0.929 1_556 S
H615 C583 0.930 . S
Li616 N633 1.990 1_565 S
Li616 O676 1.956 . S
Li616 O677 1.970 . S
Li616 O678 1.961 . S
Li617 N641 1.990 . S
Li617 O676 1.970 . S
Li617 O677 1.956 . S
Li617 O679 1.961 . S
Li618 N663 1.990 . S
Li618 O676 1.961 . S
Li618 O678 1.956 . S
Li618 O679 1.970 . S
Li619 N669 1.990 . S
Li619 O677 1.961 . S
Li619 O678 1.970 . S
Li619 O679 1.956 . S
C620 C622 1.348 . S
C620 C623 1.356 . S
C620 O676 1.325 . S
N621 C624 1.314 . S
N621 C625 1.279 . S
C622 C620 1.348 . S
C622 C624 1.353 . S
C622 H680 0.929 . S
C623 C620 1.356 . S
C623 C625 1.358 . S
C623 H681 0.930 . S
C624 N621 1.314 . S
C624 C622 1.353 . S
C624 H682 0.930 . S
C625 N621 1.279 . S
C625 C623 1.358 . S
C625 H683 0.930 . S
C626 C629 1.330 1_565 S
C626 C630 1.356 . S
C626 O677 1.325 . S
C627 N628 1.279 1_556 S
C627 C630 1.358 . S
C627 H684 0.930 1_556 S
N628 C627 1.279 1_554 S
N628 C631 1.314 1_565 S
C629 C626 1.330 1_545 S
C629 C631 1.357 1_556 S
C629 H685 0.943 . S
C630 C626 1.356 . S
C630 C627 1.358 . S
C630 H686 0.930 . S
C631 N628 1.314 1_545 S
C631 C629 1.357 1_554 S
C631 H687 0.930 . S
C632 N633 1.314 . S
C632 C637 1.353 . S
C632 H638 0.930 . S
N633 Li616 1.990 1_545 S
N633 C632 1.314 . S
N633 C635 1.279 . S
C634 C635 1.358 . S
C634 C636 1.356 . S
C634 H688 0.930 . S
C635 N633 1.279 . S
C635 C634 1.358 . S
C635 H639 0.930 . S
C636 C634 1.356 . S
C636 C637 1.348 . S
C637 C632 1.353 . S
C637 C636 1.348 . S
C637 H689 0.929 . S
H638 C632 0.930 . S
H639 C635 0.930 . S
C640 N641 1.314 . S
C640 C642 1.353 . S
C640 H646 0.930 . S
N641 Li617 1.990 . S
N641 C640 1.314 . S
N641 C644 1.279 . S
C642 C640 1.353 . S
C642 C645 1.348 . S
C642 H690 0.929 . S
C643 C644 1.358 . S
C643 C645 1.356 . S
C643 H691 0.930 1_556 S
C644 N641 1.279 . S
C644 C643 1.358 . S
C644 H647 0.930 . S
C645 C642 1.348 . S
C645 C643 1.356 . S
H646 C640 0.930 . S
H647 C644 0.930 . S
C648 C650 1.348 . S
C648 C651 1.356 . S
C648 O678 1.325 1_545 S
N649 C652 1.314 . S
N649 C653 1.279 . S
C650 C648 1.348 . S
C650 C652 1.353 . S
C650 H692 0.929 . S
C651 C648 1.356 . S
C651 C653 1.358 . S
C651 H693 0.930 . S
C652 N649 1.314 . S
C652 C650 1.353 . S
C652 H694 0.930 . S
C653 N649 1.279 . S
C653 C651 1.358 . S
C653 H695 0.930 . S
C654 C655 1.348 . S
C654 C656 1.356 . S
C654 O679 1.325 . S
C655 C654 1.348 . S
C655 C657 1.353 . S
C655 H696 0.929 . S
C656 C654 1.356 . S
C656 C658 1.358 . S
C656 H697 0.930 . S
C657 C655 1.353 . S
C657 N659 1.314 . S
C657 H698 0.930 . S
C658 C656 1.358 . S
C658 N659 1.279 . S
C658 H699 0.930 . S
N659 C657 1.314 . S
N659 C658 1.279 . S
C660 C662 1.353 . S
C660 N663 1.314 . S
C660 H666 0.930 . S
C661 N663 1.279 . S
C661 C664 1.358 . S
C661 H667 0.930 . S
C662 C660 1.353 . S
C662 C665 1.348 . S
C662 H700 0.929 . S
N663 Li618 1.990 . S
N663 C660 1.314 . S
N663 C661 1.279 . S
C664 C661 1.358 . S
C664 C665 1.356 . S
C664 H701 0.930 . S
C665 C662 1.348 . S
C665 C664 1.356 . S
H666 C660 0.930 . S
H667 C661 0.930 . S
C668 N669 1.314 . S
C668 C670 1.353 . S
C668 H674 0.930 1_565 S
N669 Li619 1.990 . S
N669 C668 1.314 . S
N669 C672 1.279 . S
C670 C668 1.353 . S
C670 C673 1.348 . S
C670 H702 0.929 1_565 S
C671 C672 1.358 . S
C671 C673 1.356 . S
C671 H703 0.930 . S
C672 N669 1.279 . S
C672 C671 1.358 . S
C672 H675 0.930 . S
C673 C670 1.348 . S
C673 C671 1.356 . S
H674 C668 0.930 1_545 S
H675 C672 0.930 . S
O676 Li616 1.956 . S
O676 Li617 1.970 . S
O676 Li618 1.961 . S
O676 C620 1.325 . S
O677 Li616 1.970 . S
O677 Li617 1.956 . S
O677 Li619 1.961 . S
O677 C626 1.325 . S
O678 Li616 1.961 . S
O678 Li618 1.956 . S
O678 Li619 1.970 . S
O678 C648 1.325 1_565 S
O679 Li617 1.961 . S
O679 Li618 1.970 . S
O679 Li619 1.956 . S
O679 C654 1.325 . S
H680 C622 0.929 . S
H681 C623 0.930 . S
H682 C624 0.930 . S
H683 C625 0.930 . S
H684 C627 0.930 1_554 S
H685 C629 0.943 . S
H686 C630 0.930 . S
H687 C631 0.930 . S
H688 C634 0.930 . S
H689 C637 0.929 . S
H690 C642 0.929 . S
H691 C643 0.930 1_554 S
H692 C650 0.929 . S
H693 C651 0.930 . S
H694 C652 0.930 . S
H695 C653 0.930 . S
H696 C655 0.929 . S
H697 C656 0.930 . S
H698 C657 0.930 . S
H699 C658 0.930 . S
H700 C662 0.929 . S
H701 C664 0.930 . S
H702 C670 0.929 1_545 S
H703 C671 0.930 . S
C704 C705 1.387 . S
C704 H708 0.950 . S
C704 C713 1.390 1_655 S
C705 C704 1.387 . S
C705 C707 1.387 . S
H706 C713 0.950 . S
C707 C705 1.387 . S
C707 C709 1.390 1_655 S
C707 H711 0.950 . S
H708 C704 0.950 . S
C709 C707 1.390 1_455 S
C709 C710 1.387 . S
C709 H712 0.950 . S
C710 C709 1.387 . S
C710 C713 1.387 . S
H711 C707 0.950 . S
H712 C709 0.950 . S
C713 C704 1.390 1_455 S
C713 H706 0.950 . S
C713 C710 1.387 . S
C714 C715 1.387 . S
C714 H718 0.950 . S
C714 C723 1.390 1_545 S
C715 C714 1.387 . S
C715 C717 1.387 . S
H716 C723 0.950 . S
C717 C715 1.387 . S
C717 C719 1.390 1_545 S
C717 H721 0.950 . S
H718 C714 0.950 . S
C719 C717 1.390 1_565 S
C719 C720 1.387 . S
C719 H722 0.950 . S
C720 C719 1.387 . S
C720 C723 1.387 . S
H721 C717 0.950 . S
H722 C719 0.950 . S
C723 C714 1.390 1_565 S
C723 H716 0.950 . S
C723 C720 1.387 . S
C724 C725 1.387 . S
C724 H728 0.950 . S
C724 C733 1.390 1_655 S
C725 C724 1.387 . S
C725 C727 1.387 . S
H726 C733 0.950 . S
C727 C725 1.387 . S
C727 C729 1.390 1_655 S
C727 H731 0.950 . S
H728 C724 0.950 . S
C729 C727 1.390 1_455 S
C729 C730 1.387 . S
C729 H732 0.950 . S
C730 C729 1.387 . S
C730 C733 1.387 . S
H731 C727 0.950 . S
H732 C729 0.950 . S
C733 C724 1.390 1_455 S
C733 H726 0.950 . S
C733 C730 1.387 . S
C734 C735 1.387 . S
C734 H738 0.950 . S
C734 C743 1.390 1_545 S
C735 C734 1.387 . S
C735 C737 1.387 . S
H736 C743 0.950 . S
C737 C735 1.387 . S
C737 C739 1.390 1_545 S
C737 H741 0.950 . S
H738 C734 0.950 . S
C739 C737 1.390 1_565 S
C739 C740 1.387 . S
C739 H742 0.950 . S
C740 C739 1.387 . S
C740 C743 1.387 . S
H741 C737 0.950 . S
H742 C739 0.950 . S
C743 C734 1.390 1_565 S
C743 H736 0.950 . S
C743 C740 1.387 . S
C744 C745 1.387 . S
C744 H748 0.950 . S
C744 C753 1.390 . S
C745 C744 1.387 . S
C745 C747 1.387 . S
H746 C753 0.950 . S
C747 C745 1.387 . S
C747 C749 1.390 . S
C747 H751 0.950 . S
H748 C744 0.950 . S
C749 C747 1.390 . S
C749 C750 1.387 . S
C749 H752 0.950 . S
C750 C749 1.387 . S
C750 C753 1.387 . S
H751 C747 0.950 . S
H752 C749 0.950 . S
C753 C744 1.390 . S
C753 H746 0.950 . S
C753 C750 1.387 . S
C754 C755 1.387 . S
C754 H758 0.950 . S
C754 C763 1.390 . S
C755 C754 1.387 . S
C755 C757 1.387 . S
H756 C763 0.950 . S
C757 C755 1.387 . S
C757 C759 1.390 . S
C757 H761 0.950 . S
H758 C754 0.950 . S
C759 C757 1.390 . S
C759 C760 1.387 . S
C759 H762 0.950 . S
C760 C759 1.387 . S
C760 C763 1.387 . S
H761 C757 0.950 . S
H762 C759 0.950 . S
C763 C754 1.390 . S
C763 H756 0.950 . S
C763 C760 1.387 . S
C764 C765 1.387 . S
C764 H768 0.950 . S
C764 C773 1.390 . S
C765 C764 1.387 . S
C765 C767 1.387 . S
H766 C773 0.950 . S
C767 C765 1.387 . S
C767 C769 1.390 . S
C767 H771 0.950 . S
H768 C764 0.950 . S
C769 C767 1.390 . S
C769 C770 1.387 . S
C769 H772 0.950 . S
C770 C769 1.387 . S
C770 C773 1.387 . S
H771 C767 0.950 . S
H772 C769 0.950 . S
C773 C764 1.390 . S
C773 H766 0.950 . S
C773 C770 1.387 . S
C774 C775 1.387 . S
C774 H778 0.950 . S
C774 C783 1.390 . S
C775 C774 1.387 . S
C775 C777 1.387 . S
H776 C783 0.950 . S
C777 C775 1.387 . S
C777 C779 1.390 . S
C777 H781 0.950 . S
H778 C774 0.950 . S
C779 C777 1.390 . S
C779 C780 1.387 . S
C779 H782 0.950 . S
C780 C779 1.387 . S
C780 C783 1.387 . S
H781 C777 0.950 . S
H782 C779 0.950 . S
C783 C774 1.390 . S
C783 H776 0.950 . S
C783 C780 1.387 . S
C784 C785 1.387 . S
C784 H788 0.950 . S
C784 C793 1.390 . S
C785 C784 1.387 . S
C785 C787 1.387 . S
H786 C793 0.950 1_554 S
C787 C785 1.387 . S
C787 C789 1.390 . S
C787 H791 0.950 . S
H788 C784 0.950 . S
C789 C787 1.390 . S
C789 C790 1.371 1_556 S
C789 H792 0.950 . S
C790 C789 1.371 1_554 S
C790 C793 1.385 1_554 S
H791 C787 0.950 . S
H792 C789 0.950 . S
C793 C784 1.390 . S
C793 H786 0.950 1_556 S
C793 C790 1.385 1_556 S
C794 C795 1.374 1_554 S
C794 H798 0.946 1_554 S
C794 C803 1.390 . S
C795 C794 1.374 1_556 S
C795 C797 1.369 1_556 S
H796 C803 0.950 . S
C797 C795 1.369 1_554 S
C797 C799 1.390 . S
C797 H801 0.950 . S
H798 C794 0.946 1_556 S
C799 C797 1.390 . S
C799 C800 1.387 . S
C799 H802 0.950 . S
C800 C799 1.387 . S
C800 C803 1.387 . S
H801 C797 0.950 . S
H802 C799 0.950 . S
C803 C794 1.390 . S
C803 H796 0.950 . S
C803 C800 1.387 . S
C804 C805 1.377 1_556 S
C804 H808 0.950 . S
C804 C813 1.390 . S
C805 C804 1.377 1_554 S
C805 C807 1.380 1_554 S
H806 C813 0.950 . S
C807 C805 1.380 1_556 S
C807 C809 1.390 . S
C807 H811 0.950 1_556 S
H808 C804 0.950 . S
C809 C807 1.390 . S
C809 C810 1.387 . S
C809 H812 0.950 . S
C810 C809 1.387 . S
C810 C813 1.387 . S
H811 C807 0.950 1_554 S
H812 C809 0.950 . S
C813 C804 1.390 . S
C813 H806 0.950 . S
C813 C810 1.387 . S
C814 C815 1.358 1_554 S
C814 H818 0.950 . S
C814 C823 1.390 . S
C815 C814 1.358 1_556 S
C815 C817 1.384 1_556 S
H816 C823 0.950 . S
C817 C815 1.384 1_554 S
C817 C819 1.430 . S
C817 H821 0.914 1_554 S
H818 C814 0.950 . S
C819 C817 1.430 . S
C819 C820 1.387 . S
C819 H822 0.950 . S
C820 C819 1.387 . S
C820 C823 1.387 . S
H821 C817 0.914 1_556 S
H822 C819 0.950 . S
C823 C814 1.390 . S
C823 H816 0.950 . S
C823 C820 1.387 . S
C824 C825 1.387 . S
C824 H828 0.950 . S
C824 C833 1.390 . S
C825 C824 1.387 . S
C825 C827 1.387 . S
H826 C833 0.950 . S
C827 C825 1.387 . S
C827 C829 1.390 . S
C827 H831 0.950 . S
H828 C824 0.950 . S
C829 C827 1.390 . S
C829 C830 1.387 . S
C829 H832 0.950 . S
C830 C829 1.387 . S
C830 C833 1.387 . S
H831 C827 0.950 . S
H832 C829 0.950 . S
C833 C824 1.390 . S
C833 H826 0.950 . S
C833 C830 1.387 . S
C834 C835 1.387 . S
C834 H838 0.950 . S
C834 C843 1.390 . S
C835 C834 1.387 . S
C835 C837 1.387 . S
H836 C843 0.950 . S
C837 C835 1.387 . S
C837 C839 1.390 . S
C837 H841 0.950 . S
H838 C834 0.950 . S
C839 C837 1.390 . S
C839 C840 1.387 . S
C839 H842 0.950 . S
C840 C839 1.387 . S
C840 C843 1.387 . S
H841 C837 0.950 . S
H842 C839 0.950 . S
C843 C834 1.390 . S
C843 H836 0.950 . S
C843 C840 1.387 . S
C844 C845 1.387 . S
C844 H848 0.950 . S
C844 C853 1.390 . S
C845 C844 1.387 . S
C845 C847 1.387 . S
H846 C853 0.950 . S
C847 C845 1.387 . S
C847 C849 1.390 . S
C847 H851 0.950 . S
H848 C844 0.950 . S
C849 C847 1.390 . S
C849 C850 1.387 . S
C849 H852 0.950 . S
C850 C849 1.387 . S
C850 C853 1.387 . S
H851 C847 0.950 . S
H852 C849 0.950 . S
C853 C844 1.390 . S
C853 H846 0.950 . S
C853 C850 1.387 . S
C854 C855 1.387 . S
C854 H858 0.950 . S
C854 C863 1.390 . S
C855 C854 1.387 . S
C855 C857 1.387 . S
H856 C863 0.950 . S
C857 C855 1.387 . S
C857 C859 1.390 . S
C857 H861 0.950 . S
H858 C854 0.950 . S
C859 C857 1.390 . S
C859 C860 1.387 . S
C859 H862 0.950 . S
C860 C859 1.387 . S
C860 C863 1.387 . S
H861 C857 0.950 . S
H862 C859 0.950 . S
C863 C854 1.390 . S
C863 H856 0.950 . S
C863 C860 1.387 . S
C705 C205 1.316 . S
C710 C29 1.316 . S
C715 C321 1.305 . S
C720 C117 1.305 . S
C725 C401 1.305 . S
C730 C557 1.305 . S
C735 C489 1.316 . S
C740 C673 1.316 . S
C745 C108 1.078 . S
C750 C57 1.073 . S
C755 C145 1.069 . S
C760 C225 1.071 . S
C765 C313 1.076 . S
C770 C233 1.071 . S
C775 C293 1.069 . S
C780 C49 1.066 . S
C785 C636 1.066 . S
C790 C372 1.084 . S
C795 C460 1.099 . S
C800 C409 1.081 . S
C805 C585 1.086 . S
C810 C469 1.066 . S
C815 C645 1.095 . S
C820 C548 1.078 . S
C825 C20 2.195 . S
C830 C497 2.195 . S
C835 C577 2.192 . S
C840 C137 2.192 . S
C845 C196 2.195 . S
C850 C665 2.195 . S
C855 C284 2.192 . S
C860 C381 2.192 . S
