# Generated by pormake.
# Topology lcy-e, (6)-cn, num edge types: 1
# Building blocks:
#     Node 0, Type 0, BuildingBlock: PAMTOO_clean_sbu_0, # of connection points: 6
#     Node 1, Type 0, BuildingBlock: PAMTOO_clean_sbu_0, # of connection points: 6
#     Node 2, Type 0, BuildingBlock: PAMTOO_clean_sbu_0, # of connection points: 6
#     Node 3, Type 0, BuildingBlock: PAMTOO_clean_sbu_0, # of connection points: 6
#     Node 4, Type 0, BuildingBlock: PAMTOO_clean_sbu_0, # of connection points: 6
#     Node 5, Type 0, BuildingBlock: PAMTOO_clean_sbu_0, # of connection points: 6
#     Node 6, Type 0, BuildingBlock: PAMTOO_clean_sbu_0, # of connection points: 6
#     Node 7, Type 0, BuildingBlock: PAMTOO_clean_sbu_0, # of connection points: 6
#     Node 8, Type 0, BuildingBlock: PAMTOO_clean_sbu_0, # of connection points: 6
#     Node 9, Type 0, BuildingBlock: PAMTOO_clean_sbu_0, # of connection points: 6
#     Node 10, Type 0, BuildingBlock: PAMTOO_clean_sbu_0, # of connection points: 6
#     Node 11, Type 0, BuildingBlock: PAMTOO_clean_sbu_0, # of connection points: 6
#     Edge 12, Type (0, 0), BuildingBlock: KIFKEQ_clean_linker_1, # of connection points: 2
#     Edge 13, Type (0, 0), BuildingBlock: KIFKEQ_clean_linker_1, # of connection points: 2
#     Edge 14, Type (0, 0), BuildingBlock: KIFKEQ_clean_linker_1, # of connection points: 2
#     Edge 15, Type (0, 0), BuildingBlock: KIFKEQ_clean_linker_1, # of connection points: 2
#     Edge 16, Type (0, 0), BuildingBlock: KIFKEQ_clean_linker_1, # of connection points: 2
#     Edge 17, Type (0, 0), BuildingBlock: KIFKEQ_clean_linker_1, # of connection points: 2
#     Edge 18, Type (0, 0), BuildingBlock: KIFKEQ_clean_linker_1, # of connection points: 2
#     Edge 19, Type (0, 0), BuildingBlock: KIFKEQ_clean_linker_1, # of connection points: 2
#     Edge 20, Type (0, 0), BuildingBlock: KIFKEQ_clean_linker_1, # of connection points: 2
#     Edge 21, Type (0, 0), BuildingBlock: KIFKEQ_clean_linker_1, # of connection points: 2
#     Edge 22, Type (0, 0), BuildingBlock: KIFKEQ_clean_linker_1, # of connection points: 2
#     Edge 23, Type (0, 0), BuildingBlock: KIFKEQ_clean_linker_1, # of connection points: 2
#     Edge 24, Type (0, 0), BuildingBlock: KIFKEQ_clean_linker_1, # of connection points: 2
#     Edge 25, Type (0, 0), BuildingBlock: KIFKEQ_clean_linker_1, # of connection points: 2
#     Edge 26, Type (0, 0), BuildingBlock: KIFKEQ_clean_linker_1, # of connection points: 2
#     Edge 27, Type (0, 0), BuildingBlock: KIFKEQ_clean_linker_1, # of connection points: 2
#     Edge 28, Type (0, 0), BuildingBlock: KIFKEQ_clean_linker_1, # of connection points: 2
#     Edge 29, Type (0, 0), BuildingBlock: KIFKEQ_clean_linker_1, # of connection points: 2
#     Edge 30, Type (0, 0), BuildingBlock: KIFKEQ_clean_linker_1, # of connection points: 2
#     Edge 31, Type (0, 0), BuildingBlock: KIFKEQ_clean_linker_1, # of connection points: 2
#     Edge 32, Type (0, 0), BuildingBlock: KIFKEQ_clean_linker_1, # of connection points: 2
#     Edge 33, Type (0, 0), BuildingBlock: KIFKEQ_clean_linker_1, # of connection points: 2
#     Edge 34, Type (0, 0), BuildingBlock: KIFKEQ_clean_linker_1, # of connection points: 2
#     Edge 35, Type (0, 0), BuildingBlock: KIFKEQ_clean_linker_1, # of connection points: 2
#     Edge 36, Type (0, 0), BuildingBlock: KIFKEQ_clean_linker_1, # of connection points: 2
#     Edge 37, Type (0, 0), BuildingBlock: KIFKEQ_clean_linker_1, # of connection points: 2
#     Edge 38, Type (0, 0), BuildingBlock: KIFKEQ_clean_linker_1, # of connection points: 2
#     Edge 39, Type (0, 0), BuildingBlock: KIFKEQ_clean_linker_1, # of connection points: 2
#     Edge 40, Type (0, 0), BuildingBlock: KIFKEQ_clean_linker_1, # of connection points: 2
#     Edge 41, Type (0, 0), BuildingBlock: KIFKEQ_clean_linker_1, # of connection points: 2
#     Edge 42, Type (0, 0), BuildingBlock: KIFKEQ_clean_linker_1, # of connection points: 2
#     Edge 43, Type (0, 0), BuildingBlock: KIFKEQ_clean_linker_1, # of connection points: 2
#     Edge 44, Type (0, 0), BuildingBlock: KIFKEQ_clean_linker_1, # of connection points: 2
#     Edge 45, Type (0, 0), BuildingBlock: KIFKEQ_clean_linker_1, # of connection points: 2
#     Edge 46, Type (0, 0), BuildingBlock: KIFKEQ_clean_linker_1, # of connection points: 2
#     Edge 47, Type (0, 0), BuildingBlock: KIFKEQ_clean_linker_1, # of connection points: 2
# Relax obj value: 0.150
# Max RMSD: 0.303
# Mean RMSD: 0.285
data_MOF--net-lcy-e--node1-PAMTOO_clean_sbu_0--edge1-KIFKEQ_clean_linker_1
_symmetry_space_group_name_H-M    P1
_symmetry_Int_Tables_number       1
_symmetry_cell_setting            triclinic
loop_
_symmetry_equiv_pos_as_xyz
'x, y, z'
_cell_length_a     45.176557
_cell_length_b     44.54176
_cell_length_c     45.728605
_cell_angle_alpha  89.719848
_cell_angle_beta   89.96371
_cell_angle_gamma 89.28704
loop_
_atom_site_label
_atom_site_type_symbol
_atom_site_fract_x
_atom_site_fract_y
_atom_site_fract_z
_atom_type_partial_charge
Dy0 Dy 0.11518 0.26223 0.44833 0.0
Dy1 Dy 0.14354 0.2164 0.50047 0.0
C2 C 0.17661 0.22628 0.43763 0.0
O3 O 0.09919 0.21611 0.44053 0.0
O4 O 0.09863 0.19987 0.48765 0.0
O5 O 0.09604 0.26689 0.40518 0.0
O6 O 0.09956 0.30567 0.43305 0.0
O7 O 0.11409 0.24639 0.5254 0.0
O8 O 0.08627 0.26889 0.48849 0.0
O9 O 0.17136 0.25799 0.50445 0.0
O10 O 0.15081 0.28846 0.46824 0.0
O11 O 0.15654 0.20201 0.544 0.0
O12 O 0.1596 0.17117 0.50764 0.0
C13 C 0.08849 0.19871 0.46087 0.0
O14 O 0.15866 0.24808 0.42925 0.0
O15 O 0.17288 0.21066 0.46171 0.0
C16 C 0.10832 0.31251 0.38253 0.0
C17 C 0.13587 0.34094 0.33443 0.0
C18 C 0.15252 0.33198 0.35905 0.0
C19 C 0.1389 0.3178 0.38281 0.0
C20 C 0.09155 0.32169 0.35825 0.0
C21 C 0.10517 0.33577 0.33441 0.0
C22 C 0.09419 0.29604 0.40673 0.0
C23 C 0.09197 0.26325 0.5164 0.0
C24 C 0.16968 0.28353 0.48955 0.0
C25 C 0.14764 0.15026 0.55327 0.0
C26 C 0.12116 0.10141 0.58266 0.0
C27 C 0.10458 0.12759 0.57608 0.0
C28 C 0.11766 0.15173 0.56135 0.0
C29 C 0.16428 0.1244 0.56006 0.0
C30 C 0.15122 0.10023 0.57458 0.0
C31 C 0.16143 0.17432 0.53589 0.0
H32 H 0.17622 0.33529 0.3597 0.0
H33 H 0.1523 0.3106 0.40126 0.0
H34 H 0.06795 0.3177 0.35759 0.0
H35 H 0.09161 0.34275 0.31601 0.0
H36 H 0.08134 0.12914 0.58176 0.0
H37 H 0.10429 0.17134 0.55591 0.0
H38 H 0.18738 0.12274 0.5538 0.0
H39 H 0.16474 0.08064 0.57965 0.0
Dy40 Dy 0.05645 0.88997 0.76193 0.0
Dy41 Dy 1.00368 0.8714 0.716 0.0
C42 C 0.06262 0.83295 0.71986 0.0
O43 O 0.05253 0.92789 0.73043 0.0
O44 O 0.03468 0.90181 0.69134 0.0
O45 O 0.10064 0.90609 0.76914 0.0
O46 O 0.07265 0.89518 0.80614 0.0
O47 O 0.99138 0.91646 0.73259 0.0
O48 O 0.01394 0.91233 0.77721 0.0
O49 O 0.99059 0.8542 0.76066 0.0
O50 O 0.03724 0.84809 0.77934 0.0
O51 O 0.95754 0.86881 0.70378 0.0
O52 O 0.99162 0.85024 0.67547 0.0
C53 C 0.04778 0.92555 0.70226 0.0
O54 O 0.07631 0.85635 0.7306 0.0
O55 O 0.03371 0.83185 0.71939 0.0
C56 C 0.12383 0.88502 0.81094 0.0
C57 C 0.1714 0.85347 0.83748 0.0
C58 C 0.16155 0.84554 0.80941 0.0
C59 C 0.13786 0.86108 0.79632 0.0
C60 C 0.13345 0.89283 0.83897 0.0
C61 C 0.15696 0.87721 0.85214 0.0
C62 C 0.09921 0.90206 0.7974 0.0
C63 C 0.99272 0.9234 0.76034 0.0
C64 C 0.00866 0.84404 0.78118 0.0
C65 C 0.94856 0.86945 0.65224 0.0
C66 C 0.91918 0.89111 0.60156 0.0
C67 C 0.91439 0.90481 0.6289 0.0
C68 C 0.92897 0.89415 0.65396 0.0
C69 C 0.95334 0.85578 0.62504 0.0
C70 C 0.93903 0.86657 0.59999 0.0
C71 C 0.96357 0.85689 0.67839 0.0
H72 H 0.17199 0.82717 0.79769 0.0
H73 H 0.13058 0.85445 0.77475 0.0
H74 H 0.12287 0.91118 0.85062 0.0
H75 H 0.16421 0.88414 0.87361 0.0
H76 H 0.89895 0.92344 0.63111 0.0
H77 H 0.92467 0.9051 0.67466 0.0
H78 H 0.96822 0.83662 0.62312 0.0
H79 H 0.94375 0.85573 0.57934 0.0
Dy80 Dy 0.40887 0.72181 0.94588 0.0
Dy81 Dy 0.3887 0.7757 1.00293 0.0
C82 C 0.35216 0.77359 0.94351 0.0
O83 O 0.44148 0.75954 0.9468 0.0
O84 O 0.41956 0.79941 0.97257 0.0
O85 O 0.41836 0.71872 0.89973 0.0
O86 O 0.4146 0.67821 0.92601 0.0
O87 O 0.41607 0.73852 0.99324 0.0
O88 O 0.43853 0.70001 0.9811 0.0
O89 O 0.36281 0.73403 0.0127 0.0
O90 O 0.36993 0.70449 0.97068 0.0
O91 O 0.41366 0.78934 0.0405 0.0
O92 O 0.36762 0.80409 0.03516 0.0
C93 C 0.4403 0.78792 0.95529 0.0
O94 O 0.36825 0.7504 0.93361 0.0
O95 O 0.35683 0.78762 0.96847 0.0
C96 C 0.40044 0.67521 0.87652 0.0
C97 C 0.36901 0.64778 0.83077 0.0
C98 C 0.35613 0.67159 0.84666 0.0
C99 C 0.3717 0.68513 0.86946 0.0
C100 C 0.41319 0.65133 0.86099 0.0
C101 C 0.39766 0.63773 0.83835 0.0
C102 C 0.41769 0.68941 0.8998 0.0
C103 C 0.43285 0.71735 1.00285 0.0
C104 C 0.35762 0.71005 0.9964 0.0
C105 C 0.40063 0.83723 0.05981 0.0
C106 C 0.41606 0.89394 0.08264 0.0
C107 C 0.43751 0.871 0.07968 0.0
C108 C 0.42988 0.84299 0.06851 0.0
C109 C 0.37927 0.8603 0.0623 0.0
C110 C 0.38692 0.88835 0.0735 0.0
C111 C 0.39223 0.80674 0.05018 0.0
H112 H 0.334 0.67964 0.84155 0.0
H113 H 0.36141 0.7034 0.88144 0.0
H114 H 0.43534 0.64338 0.86619 0.0
H115 H 0.40843 0.61978 0.82632 0.0
H116 H 0.46004 0.87431 0.08695 0.0
H117 H 0.44683 0.82563 0.06732 0.0
H118 H 0.35649 0.85657 0.05605 0.0
H119 H 0.36991 0.9056 0.07522 0.0
Dy120 Dy 0.47279 0.11064 0.2581 0.0
Dy121 Dy 0.52563 0.12686 0.21009 0.0
C122 C 0.46628 0.16578 0.21336 0.0
O123 O 0.47524 0.07243 0.22704 0.0
O124 O 0.49296 0.09764 0.18704 0.0
O125 O 0.42895 0.09408 0.26709 0.0
O126 O 0.4572 0.10778 0.30274 0.0
O127 O 0.53643 0.08209 0.22897 0.0
O128 O 0.5155 0.08957 0.27387 0.0
O129 O 0.53874 0.14599 0.25401 0.0
O130 O 0.49185 0.15409 0.27143 0.0
O131 O 0.57149 0.12519 0.1961 0.0
O132 O 0.53838 0.1474 0.16913 0.0
C133 C 0.47918 0.07463 0.19868 0.0
O134 O 0.45274 0.14315 0.22595 0.0
O135 O 0.49521 0.16648 0.21102 0.0
C136 C 0.40554 0.11509 0.30836 0.0
C137 C 0.35559 0.14447 0.33266 0.0
C138 C 0.37706 0.16087 0.31724 0.0
C139 C 0.40177 0.14626 0.30505 0.0
C140 C 0.38438 0.09875 0.32395 0.0
C141 C 0.35962 0.11327 0.33594 0.0
C142 C 0.43085 0.09908 0.29509 0.0
C143 C 0.53602 0.07717 0.25722 0.0
C144 C 0.52046 0.15803 0.27337 0.0
C145 C 0.57891 0.12484 0.14405 0.0
C146 C 0.60641 0.10306 0.09231 0.0
C147 C 0.60803 0.08648 0.11861 0.0
C148 C 0.59446 0.09726 0.14422 0.0
C149 C 0.5768 0.14102 0.1177 0.0
C150 C 0.59021 0.13026 0.09219 0.0
C151 C 0.56577 0.13803 0.17096 0.0
H152 H 0.37446 0.18488 0.31417 0.0
H153 H 0.41782 0.15921 0.29289 0.0
H154 H 0.38695 0.07469 0.32673 0.0
H155 H 0.34372 0.10008 0.34803 0.0
H156 H 0.62049 0.06558 0.11966 0.0
H157 H 0.59655 0.08422 0.16418 0.0
H158 H 0.56497 0.16233 0.11689 0.0
H159 H 0.58792 0.14341 0.07232 0.0
Dy160 Dy 0.64737 0.2887 0.47342 0.0
Dy161 Dy 0.62843 0.24117 0.52739 0.0
C162 C 0.59264 0.30183 0.51419 0.0
O163 O 0.66911 0.30239 0.51507 0.0
O164 O 0.67413 0.2568 0.53751 0.0
O165 O 0.65879 0.33447 0.46359 0.0
O166 O 0.65842 0.3016 0.42897 0.0
O167 O 0.66203 0.21552 0.50296 0.0
O168 O 0.67883 0.24932 0.46793 0.0
O169 O 0.59756 0.22951 0.49018 0.0
O170 O 0.61462 0.25975 0.45232 0.0
O171 O 0.61732 0.19843 0.54712 0.0
O172 O 0.61657 0.23887 0.57313 0.0
C173 C 0.68281 0.28447 0.53353 0.0
O174 O 0.60152 0.30166 0.48696 0.0
O175 O 0.60641 0.28572 0.53409 0.0
C176 C 0.64307 0.35123 0.4173 0.0
C177 C 0.6117 0.39584 0.38542 0.0
C178 C 0.59731 0.37866 0.40694 0.0
C179 C 0.61284 0.35651 0.4227 0.0
C180 C 0.65732 0.36772 0.39542 0.0
C181 C 0.64181 0.38978 0.37959 0.0
C182 C 0.66029 0.32996 0.4355 0.0
C183 C 0.67924 0.22278 0.48103 0.0
C184 C 0.59751 0.23862 0.46257 0.0
C185 C 0.63011 0.19409 0.5976 0.0
C186 C 0.6591 0.16622 0.64569 0.0
C187 C 0.67208 0.16594 0.61764 0.0
C188 C 0.65779 0.17988 0.59384 0.0
C189 C 0.61713 0.19432 0.62546 0.0
C190 C 0.63143 0.1806 0.64923 0.0
C191 C 0.61472 0.20972 0.57329 0.0
H192 H 0.57409 0.38247 0.41175 0.0
H193 H 0.60142 0.34391 0.4395 0.0
H194 H 0.68066 0.36404 0.39104 0.0
H195 H 0.65372 0.4028 0.36346 0.0
H196 H 0.69348 0.15532 0.61417 0.0
H197 H 0.66843 0.17971 0.5726 0.0
H198 H 0.59584 0.20524 0.62887 0.0
H199 H 0.62056 0.18089 0.67034 0.0
Dy200 Dy 0.97302 0.39965 0.71803 0.0
Dy201 Dy 0.02047 0.37778 0.7694 0.0
C202 C 0.95937 0.34561 0.76234 0.0
O203 O 0.97567 0.43749 0.74934 0.0
O204 O 0.98738 0.40934 0.78985 0.0
O205 O 0.93134 0.41995 0.70536 0.0
O206 O 0.96172 0.40372 0.67212 0.0
O207 O 0.03508 0.42181 0.75331 0.0
O208 O 0.0183 0.41749 0.70648 0.0
O209 O 0.03556 0.35782 0.72626 0.0
O210 O 0.9895 0.3543 0.706 0.0
O211 O 0.06492 0.37383 0.78675 0.0
O212 O 0.02772 0.35695 0.81161 0.0
C213 C 0.97703 0.43423 0.77781 0.0
O214 O 0.94823 0.36957 0.74916 0.0
O215 O 0.98799 0.34154 0.765 0.0
C216 C 0.91053 0.39872 0.66278 0.0
C217 C 0.86281 0.37094 0.63378 0.0
C218 C 0.86842 0.36516 0.66361 0.0
C219 C 0.89211 0.37875 0.67789 0.0
C220 C 0.90532 0.40429 0.63303 0.0
C221 C 0.88182 0.39048 0.61864 0.0
C222 C 0.93512 0.41391 0.67769 0.0
C223 C 0.03809 0.42705 0.72537 0.0
C224 C 0.01772 0.34734 0.70595 0.0
C225 C 0.06757 0.37626 0.83893 0.0
C226 C 0.09095 0.39938 0.89163 0.0
C227 C 0.09106 0.41673 0.86577 0.0
C228 C 0.07948 0.40529 0.83966 0.0
C229 C 0.06678 0.35931 0.86482 0.0
C230 C 0.07822 0.37071 0.89084 0.0
C231 C 0.05591 0.36291 0.81173 0.0
H232 H 0.85416 0.35062 0.6762 0.0
H233 H 0.8958 0.37389 0.70085 0.0
H234 H 0.91943 0.41941 0.6209 0.0
H235 H 0.8787 0.39506 0.59557 0.0
H236 H 0.10085 0.4388 0.8655 0.0
H237 H 0.08016 0.41898 0.82003 0.0
H238 H 0.05746 0.33701 0.86489 0.0
H239 H 0.07718 0.35693 0.91037 0.0
Dy240 Dy 0.8651 0.71767 0.98222 0.0
Dy241 Dy 0.89085 0.77384 0.03396 0.0
C242 C 0.92456 0.71078 0.02752 0.0
O243 O 0.83697 0.71599 0.02258 0.0
O244 O 0.85785 0.74624 0.05888 0.0
O245 O 0.85571 0.67052 0.97787 0.0
O246 O 0.85386 0.69991 0.93992 0.0
O247 O 0.85926 0.76667 1.00084 0.0
O248 O 0.83388 0.75473 0.96537 0.0
O249 O 0.91711 0.78225 0.9928 0.0
O250 O 0.90203 0.74323 0.96192 0.0
O251 O 0.87317 0.81728 0.04526 0.0
O252 O 0.91386 0.80062 0.06574 0.0
C253 C 0.83851 0.72626 0.04962 0.0
O254 O 0.90836 0.70304 1.00441 0.0
O255 O 0.92033 0.73525 0.04329 0.0
C256 C 0.86739 0.64954 0.93199 0.0
C257 C 0.89501 0.60445 0.89846 0.0
C258 C 0.91197 0.62306 0.91653 0.0
C259 C 0.89821 0.64546 0.93327 0.0
C260 C 0.85056 0.63154 0.91351 0.0
C261 C 0.86423 0.60916 0.89689 0.0
C262 C 0.85225 0.67241 0.94958 0.0
C263 C 0.84105 0.77691 0.98166 0.0
C264 C 0.9181 0.76708 0.96783 0.0
C265 C 0.88064 0.82981 0.09507 0.0
C266 C 0.85767 0.8477 0.14993 0.0
C267 C 0.84134 0.85263 0.12417 0.0
C268 C 0.85272 0.84394 0.09709 0.0
C269 C 0.89693 0.82462 0.12086 0.0
C270 C 0.88551 0.83337 0.14803 0.0
C271 C 0.89263 0.821 0.06612 0.0
H272 H 0.93571 0.61982 0.91824 0.0
H273 H 0.9115 0.65938 0.94737 0.0
H274 H 0.82678 0.63467 0.91208 0.0
H275 H 0.85069 0.59551 0.88278 0.0
H276 H 0.8197 0.86336 0.12491 0.0
H277 H 0.83962 0.84844 0.07769 0.0
H278 H 0.91864 0.81404 0.12007 0.0
H279 H 0.89882 0.82967 0.16743 0.0
Dy280 Dy 0.49113 0.63765 0.26849 0.0
Dy281 Dy 0.54385 0.61313 0.22284 0.0
C282 C 0.53433 0.58258 0.28364 0.0
O283 O 0.52876 0.66817 0.27648 0.0
O284 O 0.56258 0.6558 0.24031 0.0
O285 O 0.4797 0.65427 0.3113 0.0
O286 O 0.44505 0.64317 0.2807 0.0
O287 O 0.52041 0.64918 0.19838 0.0
O288 O 0.48645 0.66996 0.23086 0.0
O289 O 0.50484 0.58135 0.21902 0.0
O290 O 0.46879 0.61524 0.23222 0.0
O291 O 0.56058 0.60452 0.17924 0.0
O292 O 0.58638 0.5912 0.2169 0.0
C293 C 0.55347 0.67271 0.26213 0.0
O294 O 0.50663 0.59176 0.28323 0.0
O295 O 0.55392 0.59583 0.26726 0.0
C296 C 0.43589 0.63335 0.33065 0.0
C297 C 0.40596 0.60378 0.37659 0.0
C298 C 0.43622 0.59804 0.37139 0.0
C299 C 0.45099 0.61253 0.34856 0.0
C300 C 0.40556 0.63844 0.33511 0.0
C301 C 0.39069 0.62371 0.35772 0.0
C302 C 0.45142 0.65018 0.30755 0.0
C303 C 0.49964 0.66882 0.20511 0.0
C304 C 0.47666 0.58951 0.221 0.0
C305 C 0.61243 0.61002 0.1764 0.0
C306 C 0.66399 0.63813 0.1549 0.0
C307 C 0.64247 0.65467 0.17051 0.0
C308 C 0.61697 0.64075 0.18114 0.0
C309 C 0.63359 0.59347 0.16068 0.0
C310 C 0.65907 0.60736 0.14997 0.0
C311 C 0.58625 0.595 0.18866 0.0
H312 H 0.44884 0.58311 0.38553 0.0
H313 H 0.47436 0.6079 0.34532 0.0
H314 H 0.39342 0.65411 0.32128 0.0
H315 H 0.36726 0.62819 0.36055 0.0
H316 H 0.64556 0.67827 0.17501 0.0
H317 H 0.60091 0.65392 0.19332 0.0
H318 H 0.63048 0.56974 0.15679 0.0
H319 H 0.67481 0.59399 0.13761 0.0
Dy320 Dy 0.26522 0.45684 0.10406 0.0
Dy321 Dy 0.21852 0.51065 0.12425 0.0
C322 C 0.2231 0.44979 0.16009 0.0
O323 O 0.23356 0.46218 0.06742 0.0
O324 O 0.19379 0.48088 0.09288 0.0
O325 O 0.27322 0.41186 0.08838 0.0
O326 O 0.31007 0.44162 0.09588 0.0
O327 O 0.23592 0.52444 0.08126 0.0
O328 O 0.28088 0.50048 0.0844 0.0
O329 O 0.26406 0.52215 0.14174 0.0
O330 O 0.28238 0.47422 0.14583 0.0
O331 O 0.20674 0.5576 0.12875 0.0
O332 O 0.17655 0.52328 0.14358 0.0
C333 C 0.20508 0.46754 0.06964 0.0
O334 O 0.23354 0.43638 0.13654 0.0
O335 O 0.22191 0.47912 0.16181 0.0
C336 C 0.31853 0.38997 0.10419 0.0
C337 C 0.35075 0.3423 0.13049 0.0
C338 C 0.32305 0.35138 0.14177 0.0
C339 C 0.30712 0.37509 0.12879 0.0
C340 C 0.3463 0.38141 0.09323 0.0
C341 C 0.36231 0.3579 0.10627 0.0
C342 C 0.30195 0.41443 0.0896 0.0
C343 C 0.26411 0.52291 0.07499 0.0
C344 C 0.28471 0.50298 0.15084 0.0
C345 C 0.15526 0.5679 0.12476 0.0
C346 C 0.10508 0.59625 0.09927 0.0
C347 C 0.12748 0.58362 0.08156 0.0
C348 C 0.1523 0.56946 0.0942 0.0
C349 C 0.1333 0.58089 0.14242 0.0
C350 C 0.10853 0.59494 0.12987 0.0
C351 C 0.18031 0.55186 0.1387 0.0
H352 H 0.31333 0.33978 0.16021 0.0
H353 H 0.28579 0.38155 0.13777 0.0
H354 H 0.35559 0.39287 0.07445 0.0
H355 H 0.38382 0.35203 0.09737 0.0
H356 H 0.12549 0.58401 0.05796 0.0
H357 H 0.16897 0.55937 0.08017 0.0
H358 H 0.13519 0.57992 0.16603 0.0
H359 H 0.09208 0.60488 0.14421 0.0
Dy360 Dy 0.73103 0.98847 0.85712 0.0
Dy361 Dy 0.78312 0.04453 0.87696 0.0
C362 C 0.72284 0.03797 0.91274 0.0
O363 O 0.73324 0.02352 0.8219 0.0
O364 O 0.75318 0.06575 0.8435 0.0
O365 O 0.6851 0.98282 0.84579 0.0
O366 O 0.71406 0.94382 0.85089 0.0
O367 O 0.78829 0.00635 0.84959 0.0
O368 O 0.76772 0.96802 0.82972 0.0
O369 O 0.79439 0.0051 0.90616 0.0
O370 O 0.75629 0.97141 0.89584 0.0
O371 O 0.82552 0.05628 0.85916 0.0
O372 O 0.80804 0.08043 0.89667 0.0
C373 C 0.73881 0.05252 0.82211 0.0
O374 O 0.714 0.01538 0.89605 0.0
O375 O 0.74774 0.05253 0.90894 0.0
C376 C 0.66361 0.93735 0.86207 0.0
C377 C 0.61767 0.90579 0.88977 0.0
C378 C 0.62727 0.93334 0.90106 0.0
C379 C 0.65019 0.94896 0.88738 0.0
C380 C 0.65434 0.90975 0.85102 0.0
C381 C 0.63163 0.89408 0.86473 0.0
C382 C 0.68707 0.95353 0.84652 0.0
C383 C 0.79154 0.98343 0.83312 0.0
C384 C 0.78017 0.97955 0.9103 0.0
C385 C 0.83664 0.10799 0.86181 0.0
C386 C 0.85477 0.1621 0.83503 0.0
C387 C 0.85976 0.13438 0.82119 0.0
C388 C 0.85095 0.10765 0.83447 0.0
C389 C 0.8312 0.13573 0.87543 0.0
C390 C 0.84007 0.16251 0.86213 0.0
C391 C 0.82839 0.07942 0.87628 0.0
H392 H 0.6171 0.94275 0.92047 0.0
H393 H 0.65726 0.97013 0.89641 0.0
H394 H 0.66448 0.90045 0.83152 0.0
H395 H 0.62449 0.87313 0.85529 0.0
H396 H 0.87079 0.13331 0.80017 0.0
H397 H 0.85569 0.08669 0.82339 0.0
H398 H 0.8205 0.13674 0.89661 0.0
H399 H 0.83631 0.18345 0.87356 0.0
Dy400 Dy 0.7432 0.95445 0.38995 0.0
Dy401 Dy 0.79269 0.00497 0.37171 0.0
C402 C 0.78803 0.9447 0.3363 0.0
O403 O 0.77487 0.95649 0.42707 0.0
O404 O 0.81555 0.97112 0.40087 0.0
O405 O 0.73246 0.91033 0.40637 0.0
O406 O 0.69742 0.9419 0.39498 0.0
O407 O 0.77622 0.01671 0.41564 0.0
O408 O 0.72953 0.99958 0.40867 0.0
O409 O 0.74852 0.01934 0.35277 0.0
O410 O 0.72975 0.97243 0.3467 0.0
O411 O 0.8052 0.05144 0.36802 0.0
O412 O 0.83541 0.01616 0.35378 0.0
C413 C 0.80361 0.95906 0.42434 0.0
O414 O 0.77508 0.93178 0.35883 0.0
O415 O 0.79023 0.97391 0.33441 0.0
C416 C 0.68912 0.89058 0.3859 0.0
C417 C 0.66178 0.84375 0.35497 0.0
C418 C 0.67836 0.86554 0.34004 0.0
C419 C 0.69204 0.88868 0.3554 0.0
C420 C 0.67236 0.86914 0.40083 0.0
C421 C 0.65885 0.84588 0.38553 0.0
C422 C 0.70408 0.9143 0.40238 0.0
C423 C 0.74782 0.01894 0.42048 0.0
C424 C 0.72886 1.00127 0.34122 0.0
C425 C 0.85653 0.06037 0.37204 0.0
C426 C 0.90498 0.09039 0.39686 0.0
C427 C 0.88366 0.0768 0.41489 0.0
C428 C 0.85957 0.0619 0.40256 0.0
C429 C 0.87783 0.07361 0.35407 0.0
C430 C 0.90182 0.08845 0.36631 0.0
C431 C 0.83166 0.04485 0.35832 0.0
H432 H 0.68122 0.86435 0.31655 0.0
H433 H 0.70508 0.90497 0.34352 0.0
H434 H 0.66985 0.87028 0.42437 0.0
H435 H 0.64592 0.82966 0.3976 0.0
H436 H 0.8854 0.07804 0.43847 0.0
H437 H 0.84333 0.05165 0.41677 0.0
H438 H 0.87595 0.0724 0.33048 0.0
H439 H 0.91811 0.09813 0.35179 0.0
Dy440 Dy 0.24845 0.54202 0.59329 0.0
Dy441 Dy 0.29458 0.48853 0.61675 0.0
C442 C 0.29114 0.55172 0.64755 0.0
O443 O 0.29299 0.55042 0.57453 0.0
O444 O 0.30876 0.50178 0.57149 0.0
O445 O 0.2428 0.58765 0.57817 0.0
O446 O 0.2047 0.55888 0.58163 0.0
O447 O 0.25567 0.46782 0.5967 0.0
O448 O 0.24523 0.50304 0.56172 0.0
O449 O 0.25851 0.48835 0.65082 0.0
O450 O 0.22298 0.51623 0.62575 0.0
O451 O 0.30812 0.44195 0.61713 0.0
O452 O 0.33481 0.47476 0.6392 0.0
C453 C 0.30943 0.52967 0.56221 0.0
O454 O 0.26413 0.55582 0.63763 0.0
O455 O 0.30901 0.53187 0.63565 0.0
C456 C 0.19835 0.60979 0.59533 0.0
C457 C 0.16904 0.65584 0.6269 0.0
C458 C 0.19669 0.64462 0.63625 0.0
C459 C 0.2111 0.6217 0.62076 0.0
C460 C 0.17056 0.6206 0.58619 0.0
C461 C 0.15596 0.64333 0.60189 0.0
C462 C 0.21398 0.58631 0.57831 0.0
C463 C 0.24628 0.47479 0.57056 0.0
C464 C 0.23122 0.49894 0.64766 0.0
C465 C 0.35986 0.43482 0.61563 0.0
C466 C 0.41118 0.41082 0.58881 0.0
C467 C 0.38762 0.422 0.57169 0.0
C468 C 0.36223 0.43404 0.58498 0.0
C469 C 0.38325 0.42367 0.63274 0.0
C470 C 0.40868 0.4118 0.61949 0.0
C471 C 0.33322 0.4472 0.62998 0.0
H472 H 0.20712 0.65349 0.65564 0.0
H473 H 0.23235 0.61346 0.62854 0.0
H474 H 0.16026 0.61165 0.56675 0.0
H475 H 0.13475 0.65162 0.59407 0.0
H476 H 0.38897 0.42182 0.54805 0.0
H477 H 0.34448 0.44273 0.57132 0.0
H478 H 0.38181 0.42406 0.65639 0.0
H479 H 0.42625 0.40299 0.6333 0.0
H480 H 0.19975 0.29373 0.54096 0.0
H481 H 0.17994 0.33337 0.4566 0.0
H482 H 0.22125 0.3413 0.5565 0.0
H483 H 0.20087 0.38056 0.47229 0.0
H484 H 0.20009 0.46782 0.53161 0.0
H485 H 0.18528 0.42019 0.50909 0.0
H486 H 0.26291 0.37637 0.54525 0.0
H487 H 0.27756 0.4234 0.56731 0.0
C488 C 0.20052 0.31226 0.52557 0.0
C489 C 0.18784 0.30973 0.49771 0.0
C490 C 0.21268 0.33956 0.53447 0.0
C491 C 0.21225 0.3648 0.5157 0.0
C492 C 0.20096 0.36175 0.4874 0.0
C493 C 0.18912 0.33454 0.47844 0.0
C494 C 0.21427 0.44817 0.53396 0.0
C495 C 0.23972 0.44916 0.5514 0.0
C496 C 0.2058 0.4209 0.52129 0.0
C497 C 0.2227 0.39442 0.52598 0.0
C498 C 0.2491 0.39614 0.54184 0.0
C499 C 0.25752 0.42316 0.5543 0.0
H500 H 0.80812 0.95052 0.78504 0.0
H501 H 0.84262 0.99817 0.85938 0.0
H502 H 0.859 0.94022 0.76857 0.0
H503 H 0.89299 0.98824 0.84295 0.0
H504 H 0.97594 0.927 0.8181 0.0
H505 H 0.92747 0.94331 0.83662 0.0
H506 H 0.90173 0.97061 0.74948 0.0
H507 H 0.94984 0.95461 0.731 0.0
C508 C 0.82653 0.95858 0.79784 0.0
C509 C 0.8215 0.97511 0.82328 0.0
C510 C 0.85557 0.95303 0.78837 0.0
C511 C 0.87994 0.96361 0.80443 0.0
C512 C 0.87475 0.97975 0.83018 0.0
C513 C 0.84585 0.98556 0.8394 0.0
C514 C 0.96024 0.93723 0.80306 0.0
C515 C 0.96668 0.9392 0.77303 0.0
C516 C 0.93244 0.94642 0.81363 0.0
C517 C 0.91062 0.95754 0.7943 0.0
C518 C 0.91785 0.96141 0.76472 0.0
C519 C 0.94555 0.95244 0.75422 0.0
H520 H 0.32923 0.66666 0.96599 0.0
H521 H 0.34584 0.69736 0.05394 0.0
H522 H 0.30722 0.62109 0.9854 0.0
H523 H 0.32346 0.6516 0.07333 0.0
H524 H 0.25229 0.57937 0.09221 0.0
H525 H 0.27348 0.62588 0.07399 0.0
H526 H 0.32771 0.57521 0.01352 0.0
H527 H 0.30667 0.5282 0.03238 0.0
C528 C 0.32785 0.66387 0.98949 0.0
C529 C 0.33935 0.68562 1.00845 0.0
C530 C 0.31549 0.63763 1.00054 0.0
C531 C 0.31413 0.63262 0.03079 0.0
C532 C 0.32427 0.65495 0.04986 0.0
C533 C 0.33683 0.68124 0.03879 0.0
C534 C 0.26868 0.57817 0.07494 0.0
C535 C 0.27766 0.55034 0.06335 0.0
C536 C 0.28096 0.60476 0.06473 0.0
C537 C 0.30209 0.60414 0.0423 0.0
C538 C 0.31123 0.57626 0.03071 0.0
C539 C 0.29936 0.54945 0.04147 0.0
H540 H 0.57607 0.0404 0.23038 0.0
H541 H 0.55613 0.08179 0.31347 0.0
H542 H 0.62365 0.02296 0.24935 0.0
H543 H 0.60381 0.06399 0.33259 0.0
H544 H 0.70514 0.05815 0.34372 0.0
H545 H 0.6574 0.07515 0.32389 0.0
H546 H 0.64476 0.98785 0.28546 0.0
H547 H 0.69232 0.97105 0.30488 0.0
C548 C 0.58163 0.0453 0.25289 0.0
C549 C 0.56227 0.06234 0.27046 0.0
C550 C 0.60892 0.03533 0.26374 0.0
C551 C 0.61761 0.04236 0.29237 0.0
C552 C 0.59789 0.05862 0.31029 0.0
C553 C 0.5704 0.0684 0.29949 0.0
C554 C 0.69242 0.04285 0.33051 0.0
C555 C 0.70255 0.01333 0.32572 0.0
C556 C 0.66491 0.05242 0.31954 0.0
C557 C 0.64721 0.03273 0.30335 0.0
C558 C 0.65791 0.0036 0.29772 0.0
C559 C 0.68519 0.99399 0.30885 0.0
H560 H 0.7144 0.18613 0.51297 0.0
H561 H 0.68315 0.20221 0.42513 0.0
H562 H 0.73117 0.13602 0.49924 0.0
H563 H 0.70029 0.15181 0.41101 0.0
H564 H 0.69516 0.04831 0.41007 0.0
H565 H 0.68281 0.1003 0.42298 0.0
H566 H 0.76542 0.10682 0.46994 0.0
H567 H 0.77735 0.05501 0.45763 0.0
C568 C 0.71226 0.17927 0.49037 0.0
C569 C 0.69788 0.19806 0.46999 0.0
C570 C 0.72164 0.15048 0.48253 0.0
C571 C 0.7166 0.13973 0.45416 0.0
C572 C 0.70399 0.15931 0.43318 0.0
C573 C 0.69479 0.18835 0.44103 0.0
C574 C 0.71022 0.06063 0.42383 0.0
C575 C 0.73708 0.04753 0.43307 0.0
C576 C 0.70348 0.09058 0.43071 0.0
C577 C 0.72338 0.10783 0.4471 0.0
C578 C 0.7496 0.09419 0.45733 0.0
C579 C 0.75637 0.06444 0.45038 0.0
H580 H 0.09068 0.41876 0.75251 0.0
H581 H 0.05108 0.4598 0.67592 0.0
H582 H 0.13925 0.43572 0.73712 0.0
H583 H 0.10015 0.47753 0.6608 0.0
H584 H 0.1847 0.53288 0.66471 0.0
H585 H 0.13786 0.51506 0.68414 0.0
H586 H 0.17524 0.42581 0.69286 0.0
H587 H 0.22241 0.44366 0.67277 0.0
C588 C 0.09231 0.4317 0.73247 0.0
C589 C 0.06701 0.43834 0.71553 0.0
C590 C 0.1202 0.44113 0.72361 0.0
C591 C 0.12336 0.45797 0.69794 0.0
C592 C 0.09814 0.4647 0.68088 0.0
C593 C 0.07017 0.45459 0.68942 0.0
C594 C 0.18316 0.50957 0.67139 0.0
C595 C 0.2071 0.48957 0.66718 0.0
C596 C 0.15626 0.49936 0.68216 0.0
C597 C 0.15282 0.469 0.68926 0.0
C598 C 0.17741 0.44936 0.68731 0.0
C599 C 0.20444 0.45958 0.67622 0.0
H600 H 0.8377 0.96014 0.91561 0.0
H601 H 0.74955 0.9455 0.94854 0.0
H602 H 0.85402 0.91217 0.93712 0.0
H603 H 0.76578 0.8982 0.97056 0.0
H604 H 0.79038 0.79889 0.95801 0.0
H605 H 0.77769 0.85104 0.94667 0.0
H606 H 0.86246 0.87893 0.97997 0.0
H607 H 0.87536 0.82637 0.99039 0.0
C608 C 0.82218 0.94729 0.92852 0.0
C609 C 0.79236 0.95644 0.93038 0.0
C610 C 0.83143 0.91972 0.94069 0.0
C611 C 0.811 0.90098 0.95496 0.0
C612 C 0.78189 0.91165 0.95905 0.0
C613 C 0.77266 0.93893 0.94675 0.0
C614 C 0.80616 0.81622 0.96311 0.0
C615 C 0.83348 0.80873 0.97582 0.0
C616 C 0.79885 0.84615 0.95687 0.0
C617 C 0.81885 0.86934 0.9629 0.0
C618 C 0.84646 0.86171 0.97526 0.0
C619 C 0.85368 0.83167 0.98166 0.0
H620 H 0.47103 0.55164 0.17315 0.0
H621 H 0.42539 0.58415 0.24994 0.0
H622 H 0.42453 0.5288 0.15626 0.0
H623 H 0.37965 0.5622 0.23304 0.0
H624 H 0.29814 0.559 0.17194 0.0
H625 H 0.34639 0.57638 0.189 0.0
H626 H 0.38456 0.48883 0.17252 0.0
H627 H 0.33654 0.47122 0.15601 0.0
C628 C 0.45139 0.5533 0.18667 0.0
C629 C 0.45178 0.56993 0.21267 0.0
C630 C 0.42477 0.5405 0.17695 0.0
C631 C 0.39832 0.54443 0.19304 0.0
C632 C 0.39941 0.55946 0.21982 0.0
C633 C 0.42574 0.57186 0.22954 0.0
C634 C 0.31672 0.5434 0.17222 0.0
C635 C 0.31325 0.51366 0.16296 0.0
C636 C 0.34437 0.55334 0.18189 0.0
C637 C 0.36927 0.53393 0.18199 0.0
C638 C 0.36588 0.50432 0.17248 0.0
C639 C 0.33819 0.49423 0.16333 0.0
H640 H 0.57467 0.14993 0.29967 0.0
H641 H 0.49074 0.19625 0.30946 0.0
H642 H 0.58958 0.16728 0.34822 0.0
H643 H 0.50539 0.21316 0.3578 0.0
H644 H 0.55943 0.26664 0.42601 0.0
H645 H 0.54038 0.24726 0.38009 0.0
H646 H 0.57679 0.15966 0.40108 0.0
H647 H 0.59602 0.17944 0.44733 0.0
C648 C 0.55964 0.16423 0.31193 0.0
C649 C 0.53165 0.17198 0.30055 0.0
C650 C 0.56795 0.17372 0.33996 0.0
C651 C 0.54855 0.19138 0.35706 0.0
C652 C 0.52092 0.19971 0.34525 0.0
C653 C 0.51256 0.19006 0.31746 0.0
C654 C 0.56235 0.24296 0.4213 0.0
C655 C 0.57863 0.22437 0.44045 0.0
C656 C 0.55165 0.23188 0.39487 0.0
C657 C 0.55733 0.20197 0.3867 0.0
C658 C 0.57237 0.18291 0.40658 0.0
C659 C 0.58282 0.194 0.43331 0.0
H660 H 0.08438 0.32235 0.53007 0.0
H661 H 0.06137 0.23285 0.55725 0.0
H662 H 0.06646 0.342 0.57711 0.0
H663 H 0.04316 0.25227 0.6039 0.0
H664 H 0.98942 0.30574 0.67348 0.0
H665 H 1.00384 0.28634 0.62564 0.0
H666 H 0.08541 0.33553 0.63018 0.0
H667 H 0.07102 0.35483 0.67842 0.0
C668 C 0.07439 0.30712 0.54564 0.0
C669 C 0.07357 0.27623 0.53987 0.0
C670 C 0.06469 0.31822 0.57274 0.0
C671 C 0.0537 0.29861 0.59432 0.0
C672 C 0.05136 0.26796 0.58772 0.0
C673 C 0.0615 0.25687 0.56094 0.0
C674 C 0.01071 0.31194 0.66453 0.0
C675 C 0.02926 0.33153 0.67984 0.0
C676 C 0.01888 0.30095 0.63706 0.0
C677 C 0.04557 0.30971 0.62397 0.0
C678 C 0.06451 0.32873 0.63957 0.0
C679 C 0.05654 0.33935 0.66737 0.0
H680 H 0.03503 0.84471 0.8346 0.0
H681 H 0.95521 0.817 0.79084 0.0
H682 H 0.01511 0.82737 0.88127 0.0
H683 H 0.93565 0.79888 0.83774 0.0
H684 H 0.93359 0.73619 0.91884 0.0
H685 H 0.95559 0.75555 0.87433 0.0
H686 H 0.96693 0.84173 0.9151 0.0
H687 H 0.94376 0.82266 0.9601 0.0
C688 C 0.01335 0.83459 0.83487 0.0
C689 C 0.99679 0.83185 0.80893 0.0
C690 C 1.0019 0.825 0.86167 0.0
C691 C 0.97392 0.81188 0.86304 0.0
C692 C 0.95737 0.80891 0.83716 0.0
C693 C 0.96854 0.81917 0.81038 0.0
C694 C 0.9408 0.7593 0.91863 0.0
C695 C 0.93648 0.778 0.9431 0.0
C696 C 0.95332 0.77033 0.89297 0.0
C697 C 0.96239 0.8002 0.89116 0.0
C698 C 0.95988 0.81859 0.91601 0.0
C699 C 0.94683 0.80763 0.94178 0.0
H700 H 0.53228 0.69574 0.16321 0.0
H701 H 0.44218 0.68029 0.19007 0.0
H702 H 0.5152 0.71035 0.11461 0.0
H703 H 0.42492 0.69416 0.14109 0.0
H704 H 0.40308 0.7353 0.05169 0.0
H705 H 0.41881 0.73074 0.10243 0.0
H706 H 0.4965 0.68096 0.07458 0.0
H707 H 0.48122 0.68703 0.02357 0.0
C708 C 0.50869 0.69642 0.15891 0.0
C709 C 0.48852 0.68699 0.18035 0.0
C710 C 0.49893 0.70428 0.13093 0.0
C711 C 0.46879 0.70259 0.12367 0.0
C712 C 0.44832 0.69569 0.14591 0.0
C713 C 0.45812 0.68802 0.17409 0.0
C714 C 0.42382 0.724 0.05636 0.0
C715 C 0.44142 0.7124 0.03365 0.0
C716 C 0.43264 0.72098 0.08552 0.0
C717 C 0.45919 0.70596 0.09265 0.0
C718 C 0.47631 0.69342 0.06986 0.0
C719 C 0.46746 0.69655 0.04067 0.0
H720 H 0.12588 0.33092 0.27614 0.0
H721 H 0.17905 0.38368 0.33462 0.0
H722 H 0.14872 0.35569 0.23421 0.0
H723 H 0.20247 0.40778 0.29272 0.0
H724 H 0.20695 0.47119 0.21355 0.0
H725 H 0.18765 0.44374 0.25513 0.0
H726 H 0.1959 0.36084 0.20707 0.0
H727 H 0.21515 0.38859 0.16483 0.0
C728 C 0.14246 0.34778 0.28006 0.0
C729 C 0.15046 0.35543 0.3088 0.0
C730 C 0.15583 0.3617 0.256 0.0
C731 C 0.17743 0.38375 0.26005 0.0
C732 C 0.18572 0.3911 0.28878 0.0
C733 C 0.17246 0.37709 0.31283 0.0
C734 C 0.20481 0.44708 0.21169 0.0
C735 C 0.21253 0.43214 0.18566 0.0
C736 C 0.19389 0.43129 0.23574 0.0
C737 C 0.19024 0.40006 0.23453 0.0
C738 C 0.1982 0.38495 0.20863 0.0
C739 C 0.20936 0.40081 0.18448 0.0
H740 H 0.89783 0.85775 0.55597 0.0
H741 H 0.90443 0.94926 0.58637 0.0
H742 H 0.87248 0.87563 0.51204 0.0
H743 H 0.87762 0.96669 0.54297 0.0
H744 H 0.79213 0.96963 0.4814 0.0
H745 H 0.82188 0.95454 0.52382 0.0
H746 H 0.88651 0.91359 0.46651 0.0
H747 H 0.85711 0.92969 0.42379 0.0
C748 C 0.8942 0.88167 0.55326 0.0
C749 C 0.90338 0.90203 0.57482 0.0
C750 C 0.87957 0.89182 0.5281 0.0
C751 C 0.8733 0.92248 0.52418 0.0
C752 C 0.88218 0.9429 0.54563 0.0
C753 C 0.8973 0.93283 0.57057 0.0
C754 C 0.81279 0.95757 0.47789 0.0
C755 C 0.82239 0.9507 0.44946 0.0
C756 C 0.82982 0.94911 0.50209 0.0
C757 C 0.85637 0.93293 0.49832 0.0
C758 C 0.86605 0.92605 0.46987 0.0
C759 C 0.84938 0.9353 0.44555 0.0
H760 H 0.26126 0.59483 0.67927 0.0
H761 H 0.34375 0.54467 0.676 0.0
H762 H 0.27714 0.61821 0.72494 0.0
H763 H 0.35944 0.56802 0.72113 0.0
H764 H 0.36605 0.58823 0.81705 0.0
H765 H 0.34528 0.56594 0.77318 0.0
H766 H 0.31553 0.65353 0.74385 0.0
H767 H 0.33652 0.67596 0.78779 0.0
C768 C 0.28282 0.58897 0.6881 0.0
C769 C 0.3012 0.56784 0.67395 0.0
C770 C 0.29189 0.60237 0.71424 0.0
C771 C 0.31939 0.59468 0.72681 0.0
C772 C 0.33789 0.57399 0.71233 0.0
C773 C 0.32896 0.5608 0.68625 0.0
C774 C 0.35506 0.60276 0.80128 0.0
C775 C 0.35332 0.63393 0.80573 0.0
C776 C 0.34315 0.58998 0.77614 0.0
C777 C 0.32916 0.60805 0.75485 0.0
C778 C 0.32609 0.63902 0.75992 0.0
C779 C 0.33808 0.65185 0.78511 0.0
H780 H 0.61323 0.04544 0.07103 0.0
H781 H 0.63597 0.13747 0.0523 0.0
H782 H 0.64035 0.02927 0.02743 0.0
H783 H 0.66161 0.12158 1.0083 0.0
H784 H 0.73438 0.08195 0.95243 0.0
H785 H 0.70599 0.09625 0.99505 0.0
H786 H 0.64045 0.02993 0.97409 0.0
H787 H 0.66955 0.01482 0.93134 0.0
C788 C 0.62392 0.06224 0.05765 0.0
C789 C 0.62231 0.09281 0.06533 0.0
C790 C 0.63917 0.053 0.03241 0.0
C791 C 0.6533 0.07407 0.01427 0.0
C792 C 0.6514 0.10461 0.02186 0.0
C793 C 0.63628 0.1138 0.04701 0.0
C794 C 0.71388 0.07035 0.95663 0.0
C795 C 0.70428 0.04723 0.93815 0.0
C796 C 0.69743 0.07875 0.98117 0.0
C797 C 0.67072 0.06448 0.98804 0.0
C798 C 0.66103 0.04129 0.96964 0.0
C799 C 0.67761 0.03277 0.94497 0.0
H800 H 0.66353 0.18649 0.70211 0.0
H801 H 0.68819 0.11182 0.64698 0.0
H802 H 0.68434 0.16017 0.74447 0.0
H803 H 0.70977 0.0859 0.68913 0.0
H804 H 0.70757 0.03302 0.7749 0.0
H805 H 0.69083 0.06143 0.73262 0.0
H806 H 0.7303 0.14141 0.76759 0.0
H807 H 0.74697 0.11286 0.81058 0.0
C808 C 0.67352 0.16451 0.69899 0.0
C809 C 0.67391 0.15118 0.67112 0.0
C810 C 0.68576 0.14956 0.72325 0.0
C811 C 0.69858 0.1208 0.72032 0.0
C812 C 0.69971 0.10785 0.6923 0.0
C813 C 0.6876 0.12285 0.66803 0.0
C814 C 0.71285 0.05665 0.77375 0.0
C815 C 0.72871 0.07055 0.79635 0.0
C816 C 0.70336 0.07294 0.74925 0.0
C817 C 0.70937 0.10369 0.74648 0.0
C818 C 0.72511 0.11778 0.76909 0.0
C819 C 0.73474 0.10138 0.79371 0.0
H820 H 0.14674 0.48328 0.05765 0.0
H821 H 0.22072 0.43109 0.02469 0.0
H822 H 0.11709 0.46781 0.01527 0.0
H823 H 0.19165 0.41625 0.98296 0.0
H824 H 0.12501 0.36695 0.92995 0.0
H825 H 0.1494 0.38389 0.97405 0.0
H826 H 0.11523 0.47365 0.95946 0.0
H827 H 0.08975 0.45637 0.91535 0.0
C828 C 0.15663 0.4685 0.04154 0.0
C829 C 0.18608 0.45834 0.04474 0.0
C830 C 0.13976 0.45984 0.01718 0.0
C831 C 0.15194 0.44057 0.99585 0.0
C832 C 0.18136 0.43066 0.99916 0.0
C833 C 0.19814 0.43939 0.02315 0.0
C834 C 0.1222 0.39021 0.93626 0.0
C835 C 0.1053 0.41023 0.919 0.0
C836 C 0.13647 0.40001 0.96148 0.0
C837 C 0.13445 0.43018 0.97023 0.0
C838 C 0.11709 0.45022 0.95341 0.0
C839 C 0.10279 0.44038 0.92797 0.0
H840 H 0.826 0.96368 0.2946 0.0
H841 H 0.777 0.88559 0.3219 0.0
H842 H 0.84228 0.93767 0.25107 0.0
H843 H 0.79365 0.85924 0.27748 0.0
H844 H 0.85879 0.81965 0.20372 0.0
H845 H 0.842 0.8403 0.25069 0.0
H846 H 0.81392 0.92179 0.20675 0.0
H847 H 0.83112 0.90172 0.16038 0.0
C848 C 0.81868 0.94086 0.29136 0.0
C849 C 0.79975 0.92688 0.31153 0.0
C850 C 0.82805 0.92599 0.26631 0.0
C851 C 0.81879 0.89667 0.26063 0.0
C852 C 0.80103 0.88191 0.28138 0.0
C853 C 0.79151 0.89696 0.3067 0.0
C854 C 0.84903 0.84197 0.2042 0.0
C855 C 0.84633 0.85909 0.17834 0.0
C856 C 0.83918 0.85361 0.23098 0.0
C857 C 0.82685 0.88268 0.23234 0.0
C858 C 0.82362 0.89942 0.2064 0.0
C859 C 0.83324 0.8878 0.17977 0.0
H860 H 0.32672 0.49393 0.51643 0.0
H861 H 0.33089 0.5846 0.54895 0.0
H862 H 0.34938 0.51022 0.47045 0.0
H863 H 0.35457 0.60062 0.50396 0.0
H864 H 0.36391 0.63012 0.41152 0.0
H865 H 0.3412 0.61011 0.45527 0.0
H866 H 0.39261 0.5282 0.44622 0.0
H867 H 0.41385 0.54745 0.40093 0.0
C868 C 0.33307 0.51718 0.51397 0.0
C869 C 0.32686 0.53806 0.53614 0.0
C870 C 0.34604 0.52655 0.48764 0.0
C871 C 0.35335 0.5569 0.48319 0.0
C872 C 0.34841 0.5773 0.50612 0.0
C873 C 0.3351 0.56806 0.5321 0.0
C874 C 0.36997 0.60756 0.41835 0.0
C875 C 0.39089 0.59052 0.40258 0.0
C876 C 0.35729 0.59625 0.44388 0.0
C877 C 0.36548 0.56772 0.45474 0.0
C878 C 0.38574 0.55024 0.43857 0.0
C879 C 0.39822 0.56147 0.41275 0.0
H880 H 0.23247 0.21788 0.45726 0.0
H881 H 0.18001 0.21771 0.37847 0.0
H882 H 0.27593 0.20138 0.42949 0.0
H883 H 0.2235 0.20021 0.35061 0.0
H884 H 0.29799 0.1265 0.33013 0.0
H885 H 0.2547 0.1499 0.35324 0.0
H886 H 0.30983 0.22005 0.38717 0.0
H887 H 0.35322 0.19669 0.36402 0.0
C888 C 0.23038 0.21449 0.4339 0.0
C889 C 0.20301 0.21901 0.41993 0.0
C890 C 0.25523 0.20518 0.41801 0.0
C891 C 0.25306 0.19947 0.38793 0.0
C892 C 0.22573 0.20441 0.37381 0.0
C893 C 0.20096 0.21454 0.38964 0.0
C894 C 0.30085 0.14699 0.34242 0.0
C895 C 0.32905 0.15967 0.34536 0.0
C896 C 0.27603 0.16052 0.35539 0.0
C897 C 0.27892 0.18681 0.37192 0.0
C898 C 0.30701 0.19976 0.37456 0.0
C899 C 0.33178 0.18647 0.36122 0.0
H900 H 0.128 0.04141 0.5708 0.0
H901 H 0.08321 0.10265 0.62941 0.0
H902 H 0.10828 0.99885 0.59817 0.0
H903 H 0.06296 0.06013 0.65634 0.0
H904 H 0.06887 0.97977 0.71925 0.0
H905 H 0.08406 0.02164 0.68895 0.0
H906 H 0.06199 0.97181 0.61137 0.0
H907 H 0.04677 0.92929 0.64195 0.0
C908 C 0.11384 0.0458 0.58945 0.0
C909 C 0.10742 0.07548 0.59807 0.0
C910 C 0.10227 0.02139 0.60493 0.0
C911 C 0.08417 0.02605 0.62955 0.0
C912 C 0.07712 0.05573 0.63768 0.0
C913 C 0.08852 0.08013 0.62209 0.0
C914 C 0.06714 0.97756 0.69574 0.0
C915 C 0.05662 0.95099 0.68308 0.0
C916 C 0.07567 1.00179 0.67834 0.0
C917 C 0.0741 1.00021 0.64772 0.0
C918 C 0.06362 0.97368 0.63491 0.0
C919 C 0.05481 0.94936 0.65242 0.0
H920 H 0.22408 0.83629 0.81227 0.0
H921 H 0.17652 0.83467 0.89421 0.0
H922 H 0.26769 0.81469 0.83656 0.0
H923 H 0.21993 0.81311 0.91838 0.0
H924 H 0.31179 0.8172 0.95799 0.0
H925 H 0.26817 0.83329 0.93128 0.0
H926 H 0.28873 0.76987 0.86288 0.0
H927 H 0.33313 0.75368 0.88964 0.0
C928 C 0.22277 0.83087 0.83535 0.0
C929 C 0.19697 0.83761 0.85141 0.0
C930 C 0.24776 0.81848 0.84925 0.0
C931 C 0.24742 0.8126 0.87948 0.0
C932 C 0.22114 0.81804 0.89519 0.0
C933 C 0.19626 0.83041 0.88135 0.0
C934 C 0.30728 0.80658 0.93723 0.0
C935 C 0.32615 0.78399 0.92609 0.0
C936 C 0.28199 0.8157 0.922 0.0
C937 C 0.27473 0.80262 0.89512 0.0
C938 C 0.29376 0.78042 0.88354 0.0
C939 C 0.31916 0.7711 0.89893 0.0
H940 H 0.44804 0.02542 0.21549 0.0
H941 H 0.48667 0.06751 0.13936 0.0
H942 H 0.43208 0.98377 0.18566 0.0
H943 H 0.47004 0.02572 0.10921 0.0
H944 H 0.46647 0.92707 0.07547 0.0
H945 H 0.48078 0.97203 0.10205 0.0
H946 H 0.39705 0.9717 0.14771 0.0
H947 H 0.38327 0.92621 0.12208 0.0
C948 C 0.45298 0.02594 0.19231 0.0
C949 C 0.46871 0.04988 0.17986 0.0
C950 C 0.44359 1.00208 0.17513 0.0
C951 C 0.44962 1.00144 0.14499 0.0
C952 C 0.46523 0.02542 0.13242 0.0
C953 C 0.47462 0.04944 0.14966 0.0
C954 C 0.45114 0.93659 0.09121 0.0
C955 C 0.42378 0.92288 0.09675 0.0
C956 C 0.4592 0.96256 0.1062 0.0
C957 C 0.44014 0.97538 0.12715 0.0
C958 C 0.41244 0.96218 0.13201 0.0
C959 C 0.40438 0.93627 0.11704 0.0
H960 H 0.82724 0.39594 0.59119 0.0
H961 H 0.83929 0.31473 0.64217 0.0
H962 H 0.7851 0.37404 0.56697 0.0
H963 H 0.79549 0.29375 0.61968 0.0
H964 H 0.73068 0.25294 0.55457 0.0
H965 H 0.77478 0.27302 0.57789 0.0
H966 H 0.736 0.36225 0.57374 0.0
H967 H 0.69302 0.34227 0.54896 0.0
C968 C 0.821 0.37337 0.59728 0.0
C969 C 0.83689 0.35722 0.61877 0.0
C970 C 0.79632 0.36093 0.58369 0.0
C971 C 0.78639 0.33213 0.59149 0.0
C972 C 0.80244 0.31585 0.61281 0.0
C973 C 0.82741 0.32814 0.62611 0.0
C974 C 0.73164 0.27681 0.55883 0.0
C975 C 0.70849 0.29605 0.54986 0.0
C976 C 0.7569 0.28839 0.57231 0.0
C977 C 0.7593 0.31943 0.57763 0.0
C978 C 0.73554 0.3384 0.56936 0.0
C979 C 0.71067 0.32691 0.55537 0.0
H980 H 0.96273 0.43257 0.83591 0.0
H981 H 0.96941 0.49292 0.76195 0.0
H982 H 0.9449 0.47417 0.86615 0.0
H983 H 0.95176 0.53439 0.79226 0.0
H984 H 0.94558 0.60584 0.86535 0.0
H985 H 0.96764 0.56465 0.83704 0.0
H986 H 0.89781 0.50608 0.86573 0.0
H987 H 0.876 0.54695 0.89411 0.0
C988 C 0.96057 0.45471 0.82617 0.0
C989 C 0.96724 0.45942 0.79652 0.0
C990 C 0.95029 0.47846 0.84344 0.0
C991 C 0.94694 0.50744 0.83149 0.0
C992 C 0.95435 0.51232 0.80206 0.0
C993 C 0.96422 0.48851 0.78469 0.0
C994 C 0.93515 0.58408 0.86576 0.0
C995 C 0.90903 0.57959 0.88183 0.0
C996 C 0.94763 0.56062 0.84945 0.0
C997 C 0.93443 0.5322 0.8493 0.0
C998 C 0.90859 0.52767 0.86571 0.0
C999 C 0.89597 0.55113 0.8817 0.0
H1000 H 0.80828 0.75547 0.09369 0.0
H1001 H 0.81832 0.66948 0.05148 0.0
H1002 H 0.76714 0.73549 0.12299 0.0
H1003 H 0.77791 0.64963 0.0806 0.0
H1004 H 0.72044 0.61475 0.15341 0.0
H1005 H 0.76461 0.63706 0.13232 0.0
H1006 H 0.71459 0.71732 0.11086 0.0
H1007 H 0.67005 0.69482 0.13141 0.0
C1008 C 0.80208 0.73222 0.0911 0.0
C1009 C 0.81642 0.71403 0.07029 0.0
C1010 C 0.77844 0.72087 0.10764 0.0
C1011 C 0.76928 0.69097 0.10408 0.0
C1012 C 0.78454 0.67263 0.08409 0.0
C1013 C 0.80763 0.68406 0.06729 0.0
C1014 C 0.71871 0.63709 0.14409 0.0
C1015 C 0.69145 0.65274 0.1438 0.0
C1016 C 0.74413 0.64996 0.13218 0.0
C1017 C 0.74309 0.67892 0.11984 0.0
C1018 C 0.71619 0.6951 0.12052 0.0
C1019 C 0.69064 0.68214 0.13228 0.0
H1020 H 0.57274 0.43729 0.40837 0.0
H1021 H 0.61512 0.41133 0.32749 0.0
H1022 H 0.55137 0.48152 0.38413 0.0
H1023 H 0.59394 0.45554 0.30341 0.0
H1024 H 0.58872 0.55565 0.28385 0.0
H1025 H 0.60398 0.50944 0.30789 0.0
H1026 H 0.51658 0.5004 0.34491 0.0
H1027 H 0.50104 0.54733 0.32069 0.0
C1028 C 0.57707 0.44069 0.3853 0.0
C1029 C 0.596 0.42093 0.36997 0.0
C1030 C 0.56482 0.46608 0.37143 0.0
C1031 C 0.5713 0.4723 0.34197 0.0
C1032 C 0.58905 0.45175 0.32632 0.0
C1033 C 0.60122 0.42642 0.34013 0.0
C1034 C 0.57264 0.54404 0.29718 0.0
C1035 C 0.54357 0.55529 0.30026 0.0
C1036 C 0.58138 0.51729 0.31077 0.0
C1037 C 0.56141 0.50098 0.32799 0.0
C1038 C 0.53249 0.51247 0.33176 0.0
C1039 C 0.52359 0.53932 0.31789 0.0
H1040 H 0.35602 0.32624 0.18849 0.0
H1041 H 0.38282 0.29908 0.10167 0.0
H1042 H 0.38315 0.28328 0.20913 0.0
H1043 H 0.41048 0.25689 0.12244 0.0
H1044 H 0.48392 0.20762 0.17366 0.0
H1045 H 0.45569 0.25033 0.15455 0.0
H1046 H 0.38105 0.22552 0.20807 0.0
H1047 H 0.40933 0.18245 0.22728 0.0
C1048 C 0.3675 0.31109 0.17378 0.0
C1049 C 0.36729 0.31628 0.14338 0.0
C1050 C 0.38307 0.28654 0.18564 0.0
C1051 C 0.39899 0.26684 0.16739 0.0
C1052 C 0.39874 0.27196 0.13707 0.0
C1053 C 0.38298 0.29625 0.1252 0.0
C1054 C 0.4615 0.21123 0.18142 0.0
C1055 C 0.4488 0.19157 0.2019 0.0
C1056 C 0.4453 0.23563 0.17035 0.0
C1057 C 0.41616 0.24118 0.17976 0.0
C1058 C 0.40354 0.22182 0.20056 0.0
C1059 C 0.41963 0.19708 0.21137 0.0
H1060 H 0.90103 0.33339 0.74886 0.0
H1061 H 0.9744 0.30406 0.80299 0.0
H1062 H 0.8725 0.28977 0.76569 0.0
H1063 H 0.94627 0.26134 0.8195 0.0
H1064 H 0.90885 0.16954 0.81003 0.0
H1065 H 0.93054 0.21557 0.79176 0.0
H1066 H 0.85069 0.26474 0.81364 0.0
H1067 H 0.82837 0.21808 0.83149 0.0
C1068 C 0.91088 0.31794 0.76453 0.0
C1069 C 0.94015 0.32181 0.77414 0.0
C1070 C 0.89461 0.29308 0.77414 0.0
C1071 C 0.90749 0.2719 0.7934 0.0
C1072 C 0.93607 0.27686 0.80409 0.0
C1073 C 0.95217 0.30142 0.79459 0.0
C1074 C 0.8956 0.18996 0.81048 0.0
C1075 C 0.86688 0.19012 0.82226 0.0
C1076 C 0.90815 0.21641 0.80025 0.0
C1077 C 0.89238 0.24375 0.80156 0.0
C1078 C 0.86327 0.24393 0.81235 0.0
C1079 C 0.85066 0.21733 0.82278 0.0
H1080 H 0.1005 0.63243 0.05034 0.0
H1081 H 0.04794 0.59176 0.11846 0.0
H1082 H 0.056 0.65751 0.03102 0.0
H1083 H 1.0039 0.61723 0.09953 0.0
H1084 H 0.94561 0.70171 0.08247 0.0
H1085 H 0.98865 0.67212 0.09768 0.0
H1086 H 1.0044 0.64631 1.0081 0.0
H1087 H 0.9607 0.67587 0.99275 0.0
C1088 C 0.07948 0.62854 0.061 0.0
C1089 C 0.07794 0.61034 0.08622 0.0
C1090 C 0.05401 0.64291 0.04991 0.0
C1091 C 0.02651 0.63951 0.0639 0.0
C1092 C 0.02485 0.62066 0.08854 0.0
C1093 C 0.05016 0.60618 0.09947 0.0
C1094 C 0.9581 0.68959 0.06598 0.0
C1095 C 0.94972 0.69108 0.03641 0.0
C1096 C 0.9827 0.67252 0.07473 0.0
C1097 C 0.9999 0.65685 0.0541 0.0
C1098 C 0.99159 0.65825 0.02446 0.0
C1099 C 0.9665 0.67494 0.01572 0.0
H1100 H 0.6297 0.84692 0.30423 0.0
H1101 H 0.6621 0.78406 0.36927 0.0
H1102 H 0.60539 0.80583 0.27856 0.0
H1103 H 0.63793 0.74306 0.34348 0.0
H1104 H 0.61337 0.67469 0.27067 0.0
H1105 H 0.64152 0.71648 0.2914 0.0
H1106 H 0.56163 0.77054 0.29448 0.0
H1107 H 0.53352 0.72865 0.27476 0.0
C1108 C 0.63187 0.82431 0.31287 0.0
C1109 C 0.64773 0.81874 0.33882 0.0
C1110 C 0.61788 0.80086 0.29824 0.0
C1111 C 0.61993 0.77129 0.30898 0.0
C1112 C 0.63627 0.7656 0.33457 0.0
C1113 C 0.64984 0.7891 0.34946 0.0
C1114 C 0.60203 0.69567 0.27547 0.0
C1115 C 0.57135 0.69854 0.27125 0.0
C1116 C 0.61802 0.71944 0.28745 0.0
C1117 C 0.6037 0.74668 0.29454 0.0
C1118 C 0.57324 0.74986 0.28908 0.0
C1119 C 0.55717 0.7259 0.27791 0.0
H1120 H 0.57567 0.31572 0.56962 0.0
H1121 H 0.55121 0.32999 0.4792 0.0
H1122 H 0.53234 0.34417 0.58518 0.0
H1123 H 0.50754 0.35888 0.495 0.0
H1124 H 0.41503 0.37305 0.54166 0.0
H1125 H 0.45958 0.34927 0.5214 0.0
H1126 H 0.51304 0.39602 0.58435 0.0
H1127 H 0.46868 0.41976 0.60451 0.0
C1128 C 0.56114 0.3251 0.55301 0.0
C1129 C 0.56693 0.32058 0.52315 0.0
C1130 C 0.53636 0.34161 0.56197 0.0
C1131 C 0.51657 0.35391 0.54134 0.0
C1132 C 0.52233 0.34954 0.5114 0.0
C1133 C 0.54741 0.33318 0.50237 0.0
C1134 C 0.43635 0.37858 0.55086 0.0
C1135 C 0.43829 0.39801 0.57494 0.0
C1136 C 0.46186 0.365 0.53922 0.0
C1137 C 0.48979 0.37056 0.55146 0.0
C1138 C 0.49177 0.39084 0.5748 0.0
C1139 C 0.46636 0.40439 0.58639 0.0
H1140 H 0.11111 0.66029 0.64391 0.0
H1141 H 0.19353 0.70812 0.64581 0.0
H1142 H 0.08645 0.70205 0.66849 0.0
H1143 H 0.16879 0.75057 0.6693 0.0
H1144 H 0.12008 0.81481 0.73111 0.0
H1145 H 0.14615 0.77095 0.71113 0.0
H1146 H 0.06906 0.75029 0.65928 0.0
H1147 H 0.04296 0.79281 0.6802 0.0
C1148 C 0.1239 0.67989 0.64941 0.0
C1149 C 0.15421 0.68097 0.64277 0.0
C1150 C 0.10976 0.70398 0.66341 0.0
C1151 C 0.12544 0.73009 0.67069 0.0
C1152 C 0.15595 0.73084 0.66447 0.0
C1153 C 0.17017 0.70653 0.65084 0.0
C1154 C 0.10882 0.80078 0.71546 0.0
C1155 C 0.07942 0.80719 0.7074 0.0
C1156 C 0.12376 0.77567 0.70388 0.0
C1157 C 0.10975 0.7567 0.68364 0.0
C1158 C 0.08047 0.76365 0.67535 0.0
C1159 C 0.06549 0.78832 0.68722 0.0
H1160 H 0.45695 0.84225 0.97791 0.0
H1161 H 0.48003 0.77708 0.91166 0.0
H1162 H 0.50056 0.87138 0.96476 0.0
H1163 H 0.52294 0.8063 0.89831 0.0
H1164 H 0.61364 0.84575 0.90109 0.0
H1165 H 0.57059 0.81845 0.91839 0.0
H1166 H 0.52148 0.90197 0.92556 0.0
H1167 H 0.56478 0.92932 0.90852 0.0
C1168 C 0.47106 0.83433 0.96033 0.0
C1169 C 0.46506 0.80724 0.94595 0.0
C1170 C 0.49605 0.85101 0.95282 0.0
C1171 C 0.51545 0.84096 0.93075 0.0
C1172 C 0.5089 0.81432 0.91591 0.0
C1173 C 0.48411 0.79766 0.92344 0.0
C1174 C 0.59368 0.85828 0.90646 0.0
C1175 C 0.59249 0.88964 0.90317 0.0
C1176 C 0.56898 0.84265 0.9163 0.0
C1177 C 0.54243 0.858 0.92293 0.0
C1178 C 0.54162 0.88949 0.9208 0.0
C1179 C 0.56643 0.90516 0.91105 0.0
H1180 H 0.94008 0.07371 0.44346 0.0
H1181 H 0.92768 0.1438 0.37886 0.0
H1182 H 0.9848 0.09847 0.4609 0.0
H1183 H 0.97203 0.16839 0.39618 0.0
H1184 H 0.06921 0.18403 0.40659 0.0
H1185 H 0.02465 0.15742 0.3935 0.0
H1186 H 1.0045 0.14406 0.48496 0.0
H1187 H 0.04984 0.17046 0.49823 0.0
C1188 C 0.94666 0.09458 0.43325 0.0
C1189 C 0.93059 0.10654 0.40945 0.0
C1190 C 0.97228 0.10873 0.44323 0.0
C1191 C 0.98229 0.13509 0.42958 0.0
C1192 C 0.96542 0.14766 0.40666 0.0
C1193 C 0.93995 0.13358 0.39673 0.0
C1194 C 0.05546 0.17528 0.424 0.0
C1195 C 0.06298 0.1796 0.45347 0.0
C1196 C 0.02975 0.16018 0.41646 0.0
C1197 C 0.0107 0.14912 0.43817 0.0
C1198 C 0.01874 0.15231 0.46772 0.0
C1199 C 0.04469 0.16742 0.47531 0.0
loop_
_geom_bond_atom_site_label_1
_geom_bond_atom_site_label_2
_geom_bond_distance
_geom_bond_site_symmetry_2
_ccdc_geom_bond_type
Dy0 O3 2.307 . S
Dy0 O5 2.395 . S
Dy0 O6 2.379 . S
Dy0 O8 2.339 . S
Dy0 O10 2.298 . S
Dy0 O14 2.275 . S
Dy0 C22 2.738 . S
Dy1 O4 2.298 . S
Dy1 O7 2.275 . S
Dy1 O9 2.307 . S
Dy1 O11 2.395 . S
Dy1 O12 2.379 . S
Dy1 O15 2.339 . S
Dy1 C31 2.738 . S
C2 O14 1.254 . S
C2 O15 1.257 . S
O3 Dy0 2.307 . S
O3 C13 1.266 . S
O4 Dy1 2.298 . S
O4 C13 1.236 . S
O5 Dy0 2.395 . S
O5 C22 1.255 . S
O6 Dy0 2.379 . S
O6 C22 1.249 . S
O7 Dy1 2.275 . S
O7 C23 1.254 . S
O8 Dy0 2.339 . S
O8 C23 1.257 . S
O9 Dy1 2.307 . S
O9 C24 1.266 . S
O10 Dy0 2.298 . S
O10 C24 1.236 . S
O11 Dy1 2.395 . S
O11 C31 1.255 . S
O12 Dy1 2.379 . S
O12 C31 1.249 . S
C13 O3 1.266 . S
C13 O4 1.236 . S
O14 Dy0 2.275 . S
O14 C2 1.254 . S
O15 Dy1 2.339 . S
O15 C2 1.257 . S
C16 C19 1.344 . S
C16 C20 1.328 . S
C16 C22 1.516 . S
C17 C18 1.304 . S
C17 C21 1.323 . S
C18 C17 1.304 . S
C18 C19 1.371 . S
C18 H32 0.930 . S
C19 C16 1.344 . S
C19 C18 1.371 . S
C19 H33 0.931 . S
C20 C16 1.328 . S
C20 C21 1.433 . S
C20 H34 0.931 . S
C21 C17 1.323 . S
C21 C20 1.433 . S
C21 H35 0.933 . S
C22 Dy0 2.738 . S
C22 O5 1.255 . S
C22 O6 1.249 . S
C22 C16 1.516 . S
C23 O7 1.254 . S
C23 O8 1.257 . S
C24 O9 1.266 . S
C24 O10 1.236 . S
C25 C28 1.344 . S
C25 C29 1.328 . S
C25 C31 1.516 . S
C26 C27 1.304 . S
C26 C30 1.323 . S
C27 C26 1.304 . S
C27 C28 1.371 . S
C27 H36 0.930 . S
C28 C25 1.344 . S
C28 C27 1.371 . S
C28 H37 0.931 . S
C29 C25 1.328 . S
C29 C30 1.433 . S
C29 H38 0.931 . S
C30 C26 1.323 . S
C30 C29 1.433 . S
C30 H39 0.933 . S
C31 Dy1 2.738 . S
C31 O11 1.255 . S
C31 O12 1.249 . S
C31 C25 1.516 . S
H32 C18 0.930 . S
H33 C19 0.931 . S
H34 C20 0.931 . S
H35 C21 0.933 . S
H36 C27 0.930 . S
H37 C28 0.931 . S
H38 C29 0.931 . S
H39 C30 0.933 . S
Dy40 O43 2.307 . S
Dy40 O45 2.395 . S
Dy40 O46 2.379 . S
Dy40 O48 2.339 . S
Dy40 O50 2.298 . S
Dy40 O54 2.275 . S
Dy40 C62 2.738 . S
Dy41 O44 2.298 1_655 S
Dy41 O47 2.275 . S
Dy41 O49 2.307 . S
Dy41 O51 2.395 . S
Dy41 O52 2.379 . S
Dy41 O55 2.339 1_655 S
Dy41 C71 2.738 . S
C42 O54 1.254 . S
C42 O55 1.257 . S
O43 Dy40 2.307 . S
O43 C53 1.266 . S
O44 Dy41 2.298 1_455 S
O44 C53 1.236 . S
O45 Dy40 2.395 . S
O45 C62 1.255 . S
O46 Dy40 2.379 . S
O46 C62 1.249 . S
O47 Dy41 2.275 . S
O47 C63 1.254 . S
O48 Dy40 2.339 . S
O48 C63 1.257 1_455 S
O49 Dy41 2.307 . S
O49 C64 1.266 1_655 S
O50 Dy40 2.298 . S
O50 C64 1.236 . S
O51 Dy41 2.395 . S
O51 C71 1.255 . S
O52 Dy41 2.379 . S
O52 C71 1.249 . S
C53 O43 1.266 . S
C53 O44 1.236 . S
O54 Dy40 2.275 . S
O54 C42 1.254 . S
O55 Dy41 2.339 1_455 S
O55 C42 1.257 . S
C56 C59 1.344 . S
C56 C60 1.328 . S
C56 C62 1.516 . S
C57 C58 1.304 . S
C57 C61 1.323 . S
C58 C57 1.304 . S
C58 C59 1.371 . S
C58 H72 0.930 . S
C59 C56 1.344 . S
C59 C58 1.371 . S
C59 H73 0.931 . S
C60 C56 1.328 . S
C60 C61 1.433 . S
C60 H74 0.931 . S
C61 C57 1.323 . S
C61 C60 1.433 . S
C61 H75 0.933 . S
C62 Dy40 2.738 . S
C62 O45 1.255 . S
C62 O46 1.249 . S
C62 C56 1.516 . S
C63 O47 1.254 . S
C63 O48 1.257 1_655 S
C64 O49 1.266 1_455 S
C64 O50 1.236 . S
C65 C68 1.344 . S
C65 C69 1.328 . S
C65 C71 1.516 . S
C66 C67 1.304 . S
C66 C70 1.323 . S
C67 C66 1.304 . S
C67 C68 1.371 . S
C67 H76 0.930 . S
C68 C65 1.344 . S
C68 C67 1.371 . S
C68 H77 0.931 . S
C69 C65 1.328 . S
C69 C70 1.433 . S
C69 H78 0.931 . S
C70 C66 1.323 . S
C70 C69 1.433 . S
C70 H79 0.933 . S
C71 Dy41 2.738 . S
C71 O51 1.255 . S
C71 O52 1.249 . S
C71 C65 1.516 . S
H72 C58 0.930 . S
H73 C59 0.931 . S
H74 C60 0.931 . S
H75 C61 0.933 . S
H76 C67 0.930 . S
H77 C68 0.931 . S
H78 C69 0.931 . S
H79 C70 0.933 . S
Dy80 O83 2.307 . S
Dy80 O85 2.395 . S
Dy80 O86 2.379 . S
Dy80 O88 2.339 . S
Dy80 O90 2.298 . S
Dy80 O94 2.275 . S
Dy80 C102 2.738 . S
Dy81 O84 2.298 . S
Dy81 O87 2.275 . S
Dy81 O89 2.307 . S
Dy81 O91 2.395 1_556 S
Dy81 O92 2.379 1_556 S
Dy81 O95 2.339 . S
Dy81 C111 2.738 1_556 S
C82 O94 1.254 . S
C82 O95 1.257 . S
O83 Dy80 2.307 . S
O83 C93 1.266 . S
O84 Dy81 2.298 . S
O84 C93 1.236 . S
O85 Dy80 2.395 . S
O85 C102 1.255 . S
O86 Dy80 2.379 . S
O86 C102 1.249 . S
O87 Dy81 2.275 . S
O87 C103 1.254 . S
O88 Dy80 2.339 . S
O88 C103 1.257 . S
O89 Dy81 2.307 . S
O89 C104 1.266 . S
O90 Dy80 2.298 . S
O90 C104 1.236 . S
O91 Dy81 2.395 1_554 S
O91 C111 1.255 . S
O92 Dy81 2.379 1_554 S
O92 C111 1.249 . S
C93 O83 1.266 . S
C93 O84 1.236 . S
O94 Dy80 2.275 . S
O94 C82 1.254 . S
O95 Dy81 2.339 . S
O95 C82 1.257 . S
C96 C99 1.344 . S
C96 C100 1.328 . S
C96 C102 1.516 . S
C97 C98 1.304 . S
C97 C101 1.323 . S
C98 C97 1.304 . S
C98 C99 1.371 . S
C98 H112 0.930 . S
C99 C96 1.344 . S
C99 C98 1.371 . S
C99 H113 0.931 . S
C100 C96 1.328 . S
C100 C101 1.433 . S
C100 H114 0.931 . S
C101 C97 1.323 . S
C101 C100 1.433 . S
C101 H115 0.933 . S
C102 Dy80 2.738 . S
C102 O85 1.255 . S
C102 O86 1.249 . S
C102 C96 1.516 . S
C103 O87 1.254 . S
C103 O88 1.257 . S
C104 O89 1.266 . S
C104 O90 1.236 . S
C105 C108 1.344 . S
C105 C109 1.328 . S
C105 C111 1.516 . S
C106 C107 1.304 . S
C106 C110 1.323 . S
C107 C106 1.304 . S
C107 C108 1.371 . S
C107 H116 0.930 . S
C108 C105 1.344 . S
C108 C107 1.371 . S
C108 H117 0.931 . S
C109 C105 1.328 . S
C109 C110 1.433 . S
C109 H118 0.931 . S
C110 C106 1.323 . S
C110 C109 1.433 . S
C110 H119 0.933 . S
C111 Dy81 2.738 1_554 S
C111 O91 1.255 . S
C111 O92 1.249 . S
C111 C105 1.516 . S
H112 C98 0.930 . S
H113 C99 0.931 . S
H114 C100 0.931 . S
H115 C101 0.933 . S
H116 C107 0.930 . S
H117 C108 0.931 . S
H118 C109 0.931 . S
H119 C110 0.933 . S
Dy120 O123 2.307 . S
Dy120 O125 2.395 . S
Dy120 O126 2.379 . S
Dy120 O128 2.339 . S
Dy120 O130 2.298 . S
Dy120 O134 2.275 . S
Dy120 C142 2.738 . S
Dy121 O124 2.298 . S
Dy121 O127 2.275 . S
Dy121 O129 2.307 . S
Dy121 O131 2.395 . S
Dy121 O132 2.379 . S
Dy121 O135 2.339 . S
Dy121 C151 2.738 . S
C122 O134 1.254 . S
C122 O135 1.257 . S
O123 Dy120 2.307 . S
O123 C133 1.266 . S
O124 Dy121 2.298 . S
O124 C133 1.236 . S
O125 Dy120 2.395 . S
O125 C142 1.255 . S
O126 Dy120 2.379 . S
O126 C142 1.249 . S
O127 Dy121 2.275 . S
O127 C143 1.254 . S
O128 Dy120 2.339 . S
O128 C143 1.257 . S
O129 Dy121 2.307 . S
O129 C144 1.266 . S
O130 Dy120 2.298 . S
O130 C144 1.236 . S
O131 Dy121 2.395 . S
O131 C151 1.255 . S
O132 Dy121 2.379 . S
O132 C151 1.249 . S
C133 O123 1.266 . S
C133 O124 1.236 . S
O134 Dy120 2.275 . S
O134 C122 1.254 . S
O135 Dy121 2.339 . S
O135 C122 1.257 . S
C136 C139 1.344 . S
C136 C140 1.328 . S
C136 C142 1.516 . S
C137 C138 1.304 . S
C137 C141 1.323 . S
C138 C137 1.304 . S
C138 C139 1.371 . S
C138 H152 0.930 . S
C139 C136 1.344 . S
C139 C138 1.371 . S
C139 H153 0.931 . S
C140 C136 1.328 . S
C140 C141 1.433 . S
C140 H154 0.931 . S
C141 C137 1.323 . S
C141 C140 1.433 . S
C141 H155 0.933 . S
C142 Dy120 2.738 . S
C142 O125 1.255 . S
C142 O126 1.249 . S
C142 C136 1.516 . S
C143 O127 1.254 . S
C143 O128 1.257 . S
C144 O129 1.266 . S
C144 O130 1.236 . S
C145 C148 1.344 . S
C145 C149 1.328 . S
C145 C151 1.516 . S
C146 C147 1.304 . S
C146 C150 1.323 . S
C147 C146 1.304 . S
C147 C148 1.371 . S
C147 H156 0.930 . S
C148 C145 1.344 . S
C148 C147 1.371 . S
C148 H157 0.931 . S
C149 C145 1.328 . S
C149 C150 1.433 . S
C149 H158 0.931 . S
C150 C146 1.323 . S
C150 C149 1.433 . S
C150 H159 0.933 . S
C151 Dy121 2.738 . S
C151 O131 1.255 . S
C151 O132 1.249 . S
C151 C145 1.516 . S
H152 C138 0.930 . S
H153 C139 0.931 . S
H154 C140 0.931 . S
H155 C141 0.933 . S
H156 C147 0.930 . S
H157 C148 0.931 . S
H158 C149 0.931 . S
H159 C150 0.933 . S
Dy160 O163 2.307 . S
Dy160 O165 2.395 . S
Dy160 O166 2.379 . S
Dy160 O168 2.339 . S
Dy160 O170 2.298 . S
Dy160 O174 2.275 . S
Dy160 C182 2.738 . S
Dy161 O164 2.298 . S
Dy161 O167 2.275 . S
Dy161 O169 2.307 . S
Dy161 O171 2.395 . S
Dy161 O172 2.379 . S
Dy161 O175 2.339 . S
Dy161 C191 2.738 . S
C162 O174 1.254 . S
C162 O175 1.257 . S
O163 Dy160 2.307 . S
O163 C173 1.266 . S
O164 Dy161 2.298 . S
O164 C173 1.236 . S
O165 Dy160 2.395 . S
O165 C182 1.255 . S
O166 Dy160 2.379 . S
O166 C182 1.249 . S
O167 Dy161 2.275 . S
O167 C183 1.254 . S
O168 Dy160 2.339 . S
O168 C183 1.257 . S
O169 Dy161 2.307 . S
O169 C184 1.266 . S
O170 Dy160 2.298 . S
O170 C184 1.236 . S
O171 Dy161 2.395 . S
O171 C191 1.255 . S
O172 Dy161 2.379 . S
O172 C191 1.249 . S
C173 O163 1.266 . S
C173 O164 1.236 . S
O174 Dy160 2.275 . S
O174 C162 1.254 . S
O175 Dy161 2.339 . S
O175 C162 1.257 . S
C176 C179 1.344 . S
C176 C180 1.328 . S
C176 C182 1.516 . S
C177 C178 1.304 . S
C177 C181 1.323 . S
C178 C177 1.304 . S
C178 C179 1.371 . S
C178 H192 0.930 . S
C179 C176 1.344 . S
C179 C178 1.371 . S
C179 H193 0.931 . S
C180 C176 1.328 . S
C180 C181 1.433 . S
C180 H194 0.931 . S
C181 C177 1.323 . S
C181 C180 1.433 . S
C181 H195 0.933 . S
C182 Dy160 2.738 . S
C182 O165 1.255 . S
C182 O166 1.249 . S
C182 C176 1.516 . S
C183 O167 1.254 . S
C183 O168 1.257 . S
C184 O169 1.266 . S
C184 O170 1.236 . S
C185 C188 1.344 . S
C185 C189 1.328 . S
C185 C191 1.516 . S
C186 C187 1.304 . S
C186 C190 1.323 . S
C187 C186 1.304 . S
C187 C188 1.371 . S
C187 H196 0.930 . S
C188 C185 1.344 . S
C188 C187 1.371 . S
C188 H197 0.931 . S
C189 C185 1.328 . S
C189 C190 1.433 . S
C189 H198 0.931 . S
C190 C186 1.323 . S
C190 C189 1.433 . S
C190 H199 0.933 . S
C191 Dy161 2.738 . S
C191 O171 1.255 . S
C191 O172 1.249 . S
C191 C185 1.516 . S
H192 C178 0.930 . S
H193 C179 0.931 . S
H194 C180 0.931 . S
H195 C181 0.933 . S
H196 C187 0.930 . S
H197 C188 0.931 . S
H198 C189 0.931 . S
H199 C190 0.933 . S
Dy200 O203 2.307 . S
Dy200 O205 2.395 . S
Dy200 O206 2.379 . S
Dy200 O208 2.339 . S
Dy200 O210 2.298 . S
Dy200 O214 2.275 . S
Dy200 C222 2.738 . S
Dy201 O204 2.298 1_455 S
Dy201 O207 2.275 . S
Dy201 O209 2.307 . S
Dy201 O211 2.395 . S
Dy201 O212 2.379 . S
Dy201 O215 2.339 1_455 S
Dy201 C231 2.738 . S
C202 O214 1.254 . S
C202 O215 1.257 . S
O203 Dy200 2.307 . S
O203 C213 1.266 . S
O204 Dy201 2.298 1_655 S
O204 C213 1.236 . S
O205 Dy200 2.395 . S
O205 C222 1.255 . S
O206 Dy200 2.379 . S
O206 C222 1.249 . S
O207 Dy201 2.275 . S
O207 C223 1.254 . S
O208 Dy200 2.339 . S
O208 C223 1.257 1_655 S
O209 Dy201 2.307 . S
O209 C224 1.266 1_455 S
O210 Dy200 2.298 . S
O210 C224 1.236 . S
O211 Dy201 2.395 . S
O211 C231 1.255 . S
O212 Dy201 2.379 . S
O212 C231 1.249 . S
C213 O203 1.266 . S
C213 O204 1.236 . S
O214 Dy200 2.275 . S
O214 C202 1.254 . S
O215 Dy201 2.339 1_655 S
O215 C202 1.257 . S
C216 C219 1.344 . S
C216 C220 1.328 . S
C216 C222 1.516 . S
C217 C218 1.304 . S
C217 C221 1.323 . S
C218 C217 1.304 . S
C218 C219 1.371 . S
C218 H232 0.930 . S
C219 C216 1.344 . S
C219 C218 1.371 . S
C219 H233 0.931 . S
C220 C216 1.328 . S
C220 C221 1.433 . S
C220 H234 0.931 . S
C221 C217 1.323 . S
C221 C220 1.433 . S
C221 H235 0.933 . S
C222 Dy200 2.738 . S
C222 O205 1.255 . S
C222 O206 1.249 . S
C222 C216 1.516 . S
C223 O207 1.254 . S
C223 O208 1.257 1_455 S
C224 O209 1.266 1_655 S
C224 O210 1.236 . S
C225 C228 1.344 . S
C225 C229 1.328 . S
C225 C231 1.516 . S
C226 C227 1.304 . S
C226 C230 1.323 . S
C227 C226 1.304 . S
C227 C228 1.371 . S
C227 H236 0.930 . S
C228 C225 1.344 . S
C228 C227 1.371 . S
C228 H237 0.931 . S
C229 C225 1.328 . S
C229 C230 1.433 . S
C229 H238 0.931 . S
C230 C226 1.323 . S
C230 C229 1.433 . S
C230 H239 0.933 . S
C231 Dy201 2.738 . S
C231 O211 1.255 . S
C231 O212 1.249 . S
C231 C225 1.516 . S
H232 C218 0.930 . S
H233 C219 0.931 . S
H234 C220 0.931 . S
H235 C221 0.933 . S
H236 C227 0.930 . S
H237 C228 0.931 . S
H238 C229 0.931 . S
H239 C230 0.933 . S
Dy240 O243 2.307 1_556 S
Dy240 O245 2.395 . S
Dy240 O246 2.379 . S
Dy240 O248 2.339 . S
Dy240 O250 2.298 . S
Dy240 O254 2.275 1_556 S
Dy240 C262 2.738 . S
Dy241 O244 2.298 . S
Dy241 O247 2.275 . S
Dy241 O249 2.307 1_554 S
Dy241 O251 2.395 . S
Dy241 O252 2.379 . S
Dy241 O255 2.339 . S
Dy241 C271 2.738 . S
C242 O254 1.254 . S
C242 O255 1.257 . S
O243 Dy240 2.307 1_554 S
O243 C253 1.266 . S
O244 Dy241 2.298 . S
O244 C253 1.236 . S
O245 Dy240 2.395 . S
O245 C262 1.255 . S
O246 Dy240 2.379 . S
O246 C262 1.249 . S
O247 Dy241 2.275 . S
O247 C263 1.254 1_554 S
O248 Dy240 2.339 . S
O248 C263 1.257 . S
O249 Dy241 2.307 1_556 S
O249 C264 1.266 . S
O250 Dy240 2.298 . S
O250 C264 1.236 . S
O251 Dy241 2.395 . S
O251 C271 1.255 . S
O252 Dy241 2.379 . S
O252 C271 1.249 . S
C253 O243 1.266 . S
C253 O244 1.236 . S
O254 Dy240 2.275 1_554 S
O254 C242 1.254 . S
O255 Dy241 2.339 . S
O255 C242 1.257 . S
C256 C259 1.344 . S
C256 C260 1.328 . S
C256 C262 1.516 . S
C257 C258 1.304 . S
C257 C261 1.323 . S
C258 C257 1.304 . S
C258 C259 1.371 . S
C258 H272 0.930 . S
C259 C256 1.344 . S
C259 C258 1.371 . S
C259 H273 0.931 . S
C260 C256 1.328 . S
C260 C261 1.433 . S
C260 H274 0.931 . S
C261 C257 1.323 . S
C261 C260 1.433 . S
C261 H275 0.933 . S
C262 Dy240 2.738 . S
C262 O245 1.255 . S
C262 O246 1.249 . S
C262 C256 1.516 . S
C263 O247 1.254 1_556 S
C263 O248 1.257 . S
C264 O249 1.266 . S
C264 O250 1.236 . S
C265 C268 1.344 . S
C265 C269 1.328 . S
C265 C271 1.516 . S
C266 C267 1.304 . S
C266 C270 1.323 . S
C267 C266 1.304 . S
C267 C268 1.371 . S
C267 H276 0.930 . S
C268 C265 1.344 . S
C268 C267 1.371 . S
C268 H277 0.931 . S
C269 C265 1.328 . S
C269 C270 1.433 . S
C269 H278 0.931 . S
C270 C266 1.323 . S
C270 C269 1.433 . S
C270 H279 0.933 . S
C271 Dy241 2.738 . S
C271 O251 1.255 . S
C271 O252 1.249 . S
C271 C265 1.516 . S
H272 C258 0.930 . S
H273 C259 0.931 . S
H274 C260 0.931 . S
H275 C261 0.933 . S
H276 C267 0.930 . S
H277 C268 0.931 . S
H278 C269 0.931 . S
H279 C270 0.933 . S
Dy280 O283 2.307 . S
Dy280 O285 2.395 . S
Dy280 O286 2.379 . S
Dy280 O288 2.339 . S
Dy280 O290 2.298 . S
Dy280 O294 2.275 . S
Dy280 C302 2.738 . S
Dy281 O284 2.298 . S
Dy281 O287 2.275 . S
Dy281 O289 2.307 . S
Dy281 O291 2.395 . S
Dy281 O292 2.379 . S
Dy281 O295 2.339 . S
Dy281 C311 2.738 . S
C282 O294 1.254 . S
C282 O295 1.257 . S
O283 Dy280 2.307 . S
O283 C293 1.266 . S
O284 Dy281 2.298 . S
O284 C293 1.236 . S
O285 Dy280 2.395 . S
O285 C302 1.255 . S
O286 Dy280 2.379 . S
O286 C302 1.249 . S
O287 Dy281 2.275 . S
O287 C303 1.254 . S
O288 Dy280 2.339 . S
O288 C303 1.257 . S
O289 Dy281 2.307 . S
O289 C304 1.266 . S
O290 Dy280 2.298 . S
O290 C304 1.236 . S
O291 Dy281 2.395 . S
O291 C311 1.255 . S
O292 Dy281 2.379 . S
O292 C311 1.249 . S
C293 O283 1.266 . S
C293 O284 1.236 . S
O294 Dy280 2.275 . S
O294 C282 1.254 . S
O295 Dy281 2.339 . S
O295 C282 1.257 . S
C296 C299 1.344 . S
C296 C300 1.328 . S
C296 C302 1.516 . S
C297 C298 1.304 . S
C297 C301 1.323 . S
C298 C297 1.304 . S
C298 C299 1.371 . S
C298 H312 0.930 . S
C299 C296 1.344 . S
C299 C298 1.371 . S
C299 H313 0.931 . S
C300 C296 1.328 . S
C300 C301 1.433 . S
C300 H314 0.931 . S
C301 C297 1.323 . S
C301 C300 1.433 . S
C301 H315 0.933 . S
C302 Dy280 2.738 . S
C302 O285 1.255 . S
C302 O286 1.249 . S
C302 C296 1.516 . S
C303 O287 1.254 . S
C303 O288 1.257 . S
C304 O289 1.266 . S
C304 O290 1.236 . S
C305 C308 1.344 . S
C305 C309 1.328 . S
C305 C311 1.516 . S
C306 C307 1.304 . S
C306 C310 1.323 . S
C307 C306 1.304 . S
C307 C308 1.371 . S
C307 H316 0.930 . S
C308 C305 1.344 . S
C308 C307 1.371 . S
C308 H317 0.931 . S
C309 C305 1.328 . S
C309 C310 1.433 . S
C309 H318 0.931 . S
C310 C306 1.323 . S
C310 C309 1.433 . S
C310 H319 0.933 . S
C311 Dy281 2.738 . S
C311 O291 1.255 . S
C311 O292 1.249 . S
C311 C305 1.516 . S
H312 C298 0.930 . S
H313 C299 0.931 . S
H314 C300 0.931 . S
H315 C301 0.933 . S
H316 C307 0.930 . S
H317 C308 0.931 . S
H318 C309 0.931 . S
H319 C310 0.933 . S
Dy320 O323 2.307 . S
Dy320 O325 2.395 . S
Dy320 O326 2.379 . S
Dy320 O328 2.339 . S
Dy320 O330 2.298 . S
Dy320 O334 2.275 . S
Dy320 C342 2.738 . S
Dy321 O324 2.298 . S
Dy321 O327 2.275 . S
Dy321 O329 2.307 . S
Dy321 O331 2.395 . S
Dy321 O332 2.379 . S
Dy321 O335 2.339 . S
Dy321 C351 2.738 . S
C322 O334 1.254 . S
C322 O335 1.257 . S
O323 Dy320 2.307 . S
O323 C333 1.266 . S
O324 Dy321 2.298 . S
O324 C333 1.236 . S
O325 Dy320 2.395 . S
O325 C342 1.255 . S
O326 Dy320 2.379 . S
O326 C342 1.249 . S
O327 Dy321 2.275 . S
O327 C343 1.254 . S
O328 Dy320 2.339 . S
O328 C343 1.257 . S
O329 Dy321 2.307 . S
O329 C344 1.266 . S
O330 Dy320 2.298 . S
O330 C344 1.236 . S
O331 Dy321 2.395 . S
O331 C351 1.255 . S
O332 Dy321 2.379 . S
O332 C351 1.249 . S
C333 O323 1.266 . S
C333 O324 1.236 . S
O334 Dy320 2.275 . S
O334 C322 1.254 . S
O335 Dy321 2.339 . S
O335 C322 1.257 . S
C336 C339 1.344 . S
C336 C340 1.328 . S
C336 C342 1.516 . S
C337 C338 1.304 . S
C337 C341 1.323 . S
C338 C337 1.304 . S
C338 C339 1.371 . S
C338 H352 0.930 . S
C339 C336 1.344 . S
C339 C338 1.371 . S
C339 H353 0.931 . S
C340 C336 1.328 . S
C340 C341 1.433 . S
C340 H354 0.931 . S
C341 C337 1.323 . S
C341 C340 1.433 . S
C341 H355 0.933 . S
C342 Dy320 2.738 . S
C342 O325 1.255 . S
C342 O326 1.249 . S
C342 C336 1.516 . S
C343 O327 1.254 . S
C343 O328 1.257 . S
C344 O329 1.266 . S
C344 O330 1.236 . S
C345 C348 1.344 . S
C345 C349 1.328 . S
C345 C351 1.516 . S
C346 C347 1.304 . S
C346 C350 1.323 . S
C347 C346 1.304 . S
C347 C348 1.371 . S
C347 H356 0.930 . S
C348 C345 1.344 . S
C348 C347 1.371 . S
C348 H357 0.931 . S
C349 C345 1.328 . S
C349 C350 1.433 . S
C349 H358 0.931 . S
C350 C346 1.323 . S
C350 C349 1.433 . S
C350 H359 0.933 . S
C351 Dy321 2.738 . S
C351 O331 1.255 . S
C351 O332 1.249 . S
C351 C345 1.516 . S
H352 C338 0.930 . S
H353 C339 0.931 . S
H354 C340 0.931 . S
H355 C341 0.933 . S
H356 C347 0.930 . S
H357 C348 0.931 . S
H358 C349 0.931 . S
H359 C350 0.933 . S
Dy360 O363 2.307 1_565 S
Dy360 O365 2.395 . S
Dy360 O366 2.379 . S
Dy360 O368 2.339 . S
Dy360 O370 2.298 . S
Dy360 O374 2.275 1_565 S
Dy360 C382 2.738 . S
Dy361 O364 2.298 . S
Dy361 O367 2.275 . S
Dy361 O369 2.307 . S
Dy361 O371 2.395 . S
Dy361 O372 2.379 . S
Dy361 O375 2.339 . S
Dy361 C391 2.738 . S
C362 O374 1.254 . S
C362 O375 1.257 . S
O363 Dy360 2.307 1_545 S
O363 C373 1.266 . S
O364 Dy361 2.298 . S
O364 C373 1.236 . S
O365 Dy360 2.395 . S
O365 C382 1.255 . S
O366 Dy360 2.379 . S
O366 C382 1.249 . S
O367 Dy361 2.275 . S
O367 C383 1.254 1_545 S
O368 Dy360 2.339 . S
O368 C383 1.257 . S
O369 Dy361 2.307 . S
O369 C384 1.266 1_545 S
O370 Dy360 2.298 . S
O370 C384 1.236 . S
O371 Dy361 2.395 . S
O371 C391 1.255 . S
O372 Dy361 2.379 . S
O372 C391 1.249 . S
C373 O363 1.266 . S
C373 O364 1.236 . S
O374 Dy360 2.275 1_545 S
O374 C362 1.254 . S
O375 Dy361 2.339 . S
O375 C362 1.257 . S
C376 C379 1.344 . S
C376 C380 1.328 . S
C376 C382 1.516 . S
C377 C378 1.304 . S
C377 C381 1.323 . S
C378 C377 1.304 . S
C378 C379 1.371 . S
C378 H392 0.930 . S
C379 C376 1.344 . S
C379 C378 1.371 . S
C379 H393 0.931 . S
C380 C376 1.328 . S
C380 C381 1.433 . S
C380 H394 0.931 . S
C381 C377 1.323 . S
C381 C380 1.433 . S
C381 H395 0.933 . S
C382 Dy360 2.738 . S
C382 O365 1.255 . S
C382 O366 1.249 . S
C382 C376 1.516 . S
C383 O367 1.254 1_565 S
C383 O368 1.257 . S
C384 O369 1.266 1_565 S
C384 O370 1.236 . S
C385 C388 1.344 . S
C385 C389 1.328 . S
C385 C391 1.516 . S
C386 C387 1.304 . S
C386 C390 1.323 . S
C387 C386 1.304 . S
C387 C388 1.371 . S
C387 H396 0.930 . S
C388 C385 1.344 . S
C388 C387 1.371 . S
C388 H397 0.931 . S
C389 C385 1.328 . S
C389 C390 1.433 . S
C389 H398 0.931 . S
C390 C386 1.323 . S
C390 C389 1.433 . S
C390 H399 0.933 . S
C391 Dy361 2.738 . S
C391 O371 1.255 . S
C391 O372 1.249 . S
C391 C385 1.516 . S
H392 C378 0.930 . S
H393 C379 0.931 . S
H394 C380 0.931 . S
H395 C381 0.933 . S
H396 C387 0.930 . S
H397 C388 0.931 . S
H398 C389 0.931 . S
H399 C390 0.933 . S
Dy400 O403 2.307 . S
Dy400 O405 2.395 . S
Dy400 O406 2.379 . S
Dy400 O408 2.339 . S
Dy400 O410 2.298 . S
Dy400 O414 2.275 . S
Dy400 C422 2.738 . S
Dy401 O404 2.298 1_545 S
Dy401 O407 2.275 . S
Dy401 O409 2.307 . S
Dy401 O411 2.395 . S
Dy401 O412 2.379 . S
Dy401 O415 2.339 1_545 S
Dy401 C431 2.738 . S
C402 O414 1.254 . S
C402 O415 1.257 . S
O403 Dy400 2.307 . S
O403 C413 1.266 . S
O404 Dy401 2.298 1_565 S
O404 C413 1.236 . S
O405 Dy400 2.395 . S
O405 C422 1.255 . S
O406 Dy400 2.379 . S
O406 C422 1.249 . S
O407 Dy401 2.275 . S
O407 C423 1.254 . S
O408 Dy400 2.339 . S
O408 C423 1.257 1_565 S
O409 Dy401 2.307 . S
O409 C424 1.266 1_545 S
O410 Dy400 2.298 . S
O410 C424 1.236 . S
O411 Dy401 2.395 . S
O411 C431 1.255 . S
O412 Dy401 2.379 . S
O412 C431 1.249 . S
C413 O403 1.266 . S
C413 O404 1.236 . S
O414 Dy400 2.275 . S
O414 C402 1.254 . S
O415 Dy401 2.339 1_565 S
O415 C402 1.257 . S
C416 C419 1.344 . S
C416 C420 1.328 . S
C416 C422 1.516 . S
C417 C418 1.304 . S
C417 C421 1.323 . S
C418 C417 1.304 . S
C418 C419 1.371 . S
C418 H432 0.930 . S
C419 C416 1.344 . S
C419 C418 1.371 . S
C419 H433 0.931 . S
C420 C416 1.328 . S
C420 C421 1.433 . S
C420 H434 0.931 . S
C421 C417 1.323 . S
C421 C420 1.433 . S
C421 H435 0.933 . S
C422 Dy400 2.738 . S
C422 O405 1.255 . S
C422 O406 1.249 . S
C422 C416 1.516 . S
C423 O407 1.254 . S
C423 O408 1.257 1_545 S
C424 O409 1.266 1_565 S
C424 O410 1.236 . S
C425 C428 1.344 . S
C425 C429 1.328 . S
C425 C431 1.516 . S
C426 C427 1.304 . S
C426 C430 1.323 . S
C427 C426 1.304 . S
C427 C428 1.371 . S
C427 H436 0.930 . S
C428 C425 1.344 . S
C428 C427 1.371 . S
C428 H437 0.931 . S
C429 C425 1.328 . S
C429 C430 1.433 . S
C429 H438 0.931 . S
C430 C426 1.323 . S
C430 C429 1.433 . S
C430 H439 0.933 . S
C431 Dy401 2.738 . S
C431 O411 1.255 . S
C431 O412 1.249 . S
C431 C425 1.516 . S
H432 C418 0.930 . S
H433 C419 0.931 . S
H434 C420 0.931 . S
H435 C421 0.933 . S
H436 C427 0.930 . S
H437 C428 0.931 . S
H438 C429 0.931 . S
H439 C430 0.933 . S
Dy440 O443 2.307 . S
Dy440 O445 2.395 . S
Dy440 O446 2.379 . S
Dy440 O448 2.339 . S
Dy440 O450 2.298 . S
Dy440 O454 2.275 . S
Dy440 C462 2.738 . S
Dy441 O444 2.298 . S
Dy441 O447 2.275 . S
Dy441 O449 2.307 . S
Dy441 O451 2.395 . S
Dy441 O452 2.379 . S
Dy441 O455 2.339 . S
Dy441 C471 2.738 . S
C442 O454 1.254 . S
C442 O455 1.257 . S
O443 Dy440 2.307 . S
O443 C453 1.266 . S
O444 Dy441 2.298 . S
O444 C453 1.236 . S
O445 Dy440 2.395 . S
O445 C462 1.255 . S
O446 Dy440 2.379 . S
O446 C462 1.249 . S
O447 Dy441 2.275 . S
O447 C463 1.254 . S
O448 Dy440 2.339 . S
O448 C463 1.257 . S
O449 Dy441 2.307 . S
O449 C464 1.266 . S
O450 Dy440 2.298 . S
O450 C464 1.236 . S
O451 Dy441 2.395 . S
O451 C471 1.255 . S
O452 Dy441 2.379 . S
O452 C471 1.249 . S
C453 O443 1.266 . S
C453 O444 1.236 . S
O454 Dy440 2.275 . S
O454 C442 1.254 . S
O455 Dy441 2.339 . S
O455 C442 1.257 . S
C456 C459 1.344 . S
C456 C460 1.328 . S
C456 C462 1.516 . S
C457 C458 1.304 . S
C457 C461 1.323 . S
C458 C457 1.304 . S
C458 C459 1.371 . S
C458 H472 0.930 . S
C459 C456 1.344 . S
C459 C458 1.371 . S
C459 H473 0.931 . S
C460 C456 1.328 . S
C460 C461 1.433 . S
C460 H474 0.931 . S
C461 C457 1.323 . S
C461 C460 1.433 . S
C461 H475 0.933 . S
C462 Dy440 2.738 . S
C462 O445 1.255 . S
C462 O446 1.249 . S
C462 C456 1.516 . S
C463 O447 1.254 . S
C463 O448 1.257 . S
C464 O449 1.266 . S
C464 O450 1.236 . S
C465 C468 1.344 . S
C465 C469 1.328 . S
C465 C471 1.516 . S
C466 C467 1.304 . S
C466 C470 1.323 . S
C467 C466 1.304 . S
C467 C468 1.371 . S
C467 H476 0.930 . S
C468 C465 1.344 . S
C468 C467 1.371 . S
C468 H477 0.931 . S
C469 C465 1.328 . S
C469 C470 1.433 . S
C469 H478 0.931 . S
C470 C466 1.323 . S
C470 C469 1.433 . S
C470 H479 0.933 . S
C471 Dy441 2.738 . S
C471 O451 1.255 . S
C471 O452 1.249 . S
C471 C465 1.516 . S
H472 C458 0.930 . S
H473 C459 0.931 . S
H474 C460 0.931 . S
H475 C461 0.933 . S
H476 C467 0.930 . S
H477 C468 0.931 . S
H478 C469 0.931 . S
H479 C470 0.933 . S
H480 C488 0.950 . S
H481 C493 0.950 . S
H482 C490 0.950 . S
H483 C492 0.950 . S
H484 C494 0.950 . S
H485 C496 0.950 . S
H486 C498 0.950 . S
H487 C499 0.950 . S
C488 H480 0.950 . S
C488 C489 1.386 . S
C488 C490 1.391 . S
C489 C488 1.386 . S
C489 C493 1.393 . S
C490 H482 0.950 . S
C490 C488 1.391 . S
C490 C491 1.400 . S
C491 C490 1.400 . S
C491 C492 1.398 . S
C491 C497 1.491 . S
C492 H483 0.950 . S
C492 C491 1.398 . S
C492 C493 1.391 . S
C493 H481 0.950 . S
C493 C489 1.393 . S
C493 C492 1.391 . S
C494 H484 0.950 . S
C494 C495 1.386 . S
C494 C496 1.391 . S
C495 C494 1.386 . S
C495 C499 1.393 . S
C496 H485 0.950 . S
C496 C494 1.391 . S
C496 C497 1.400 . S
C497 C491 1.491 . S
C497 C496 1.400 . S
C497 C498 1.398 . S
C498 H486 0.950 . S
C498 C497 1.398 . S
C498 C499 1.391 . S
C499 H487 0.950 . S
C499 C495 1.393 . S
C499 C498 1.391 . S
H500 C508 0.950 . S
H501 C513 0.950 . S
H502 C510 0.950 . S
H503 C512 0.950 . S
H504 C514 0.950 . S
H505 C516 0.950 . S
H506 C518 0.950 . S
H507 C519 0.950 . S
C508 H500 0.950 . S
C508 C509 1.386 . S
C508 C510 1.391 . S
C509 C508 1.386 . S
C509 C513 1.393 . S
C510 H502 0.950 . S
C510 C508 1.391 . S
C510 C511 1.400 . S
C511 C510 1.400 . S
C511 C512 1.398 . S
C511 C517 1.491 . S
C512 H503 0.950 . S
C512 C511 1.398 . S
C512 C513 1.391 . S
C513 H501 0.950 . S
C513 C509 1.393 . S
C513 C512 1.391 . S
C514 H504 0.950 . S
C514 C515 1.386 . S
C514 C516 1.391 . S
C515 C514 1.386 . S
C515 C519 1.393 . S
C516 H505 0.950 . S
C516 C514 1.391 . S
C516 C517 1.400 . S
C517 C511 1.491 . S
C517 C516 1.400 . S
C517 C518 1.398 . S
C518 H506 0.950 . S
C518 C517 1.398 . S
C518 C519 1.391 . S
C519 H507 0.950 . S
C519 C515 1.393 . S
C519 C518 1.391 . S
H520 C528 0.950 . S
H521 C533 0.950 . S
H522 C530 0.950 . S
H523 C532 0.950 . S
H524 C534 0.950 . S
H525 C536 0.950 . S
H526 C538 0.950 1_556 S
H527 C539 0.950 . S
C528 H520 0.950 . S
C528 C529 1.386 . S
C528 C530 1.391 . S
C529 C528 1.386 . S
C529 C533 1.393 1_556 S
C530 H522 0.950 . S
C530 C528 1.391 . S
C530 C531 1.400 1_556 S
C531 C530 1.400 1_554 S
C531 C532 1.398 . S
C531 C537 1.491 . S
C532 H523 0.950 . S
C532 C531 1.398 . S
C532 C533 1.391 . S
C533 H521 0.950 . S
C533 C529 1.393 1_554 S
C533 C532 1.391 . S
C534 H524 0.950 . S
C534 C535 1.386 . S
C534 C536 1.391 . S
C535 C534 1.386 . S
C535 C539 1.393 . S
C536 H525 0.950 . S
C536 C534 1.391 . S
C536 C537 1.400 . S
C537 C531 1.491 . S
C537 C536 1.400 . S
C537 C538 1.398 . S
C538 H526 0.950 1_554 S
C538 C537 1.398 . S
C538 C539 1.391 . S
C539 H527 0.950 . S
C539 C535 1.393 . S
C539 C538 1.391 . S
H540 C548 0.950 . S
H541 C553 0.950 . S
H542 C550 0.950 . S
H543 C552 0.950 . S
H544 C554 0.950 . S
H545 C556 0.950 . S
H546 C558 0.950 . S
H547 C559 0.950 . S
C548 H540 0.950 . S
C548 C549 1.386 . S
C548 C550 1.391 . S
C549 C548 1.386 . S
C549 C553 1.393 . S
C550 H542 0.950 . S
C550 C548 1.391 . S
C550 C551 1.400 . S
C551 C550 1.400 . S
C551 C552 1.398 . S
C551 C557 1.491 . S
C552 H543 0.950 . S
C552 C551 1.398 . S
C552 C553 1.391 . S
C553 H541 0.950 . S
C553 C549 1.393 . S
C553 C552 1.391 . S
C554 H544 0.950 . S
C554 C555 1.386 . S
C554 C556 1.391 . S
C555 C554 1.386 . S
C555 C559 1.393 1_545 S
C556 H545 0.950 . S
C556 C554 1.391 . S
C556 C557 1.400 . S
C557 C551 1.491 . S
C557 C556 1.400 . S
C557 C558 1.398 . S
C558 H546 0.950 . S
C558 C557 1.398 . S
C558 C559 1.391 1_545 S
C559 H547 0.950 . S
C559 C555 1.393 1_565 S
C559 C558 1.391 1_565 S
H560 C568 0.950 . S
H561 C573 0.950 . S
H562 C570 0.950 . S
H563 C572 0.950 . S
H564 C574 0.950 . S
H565 C576 0.950 . S
H566 C578 0.950 . S
H567 C579 0.950 . S
C568 H560 0.950 . S
C568 C569 1.386 . S
C568 C570 1.391 . S
C569 C568 1.386 . S
C569 C573 1.393 . S
C570 H562 0.950 . S
C570 C568 1.391 . S
C570 C571 1.400 . S
C571 C570 1.400 . S
C571 C572 1.398 . S
C571 C577 1.491 . S
C572 H563 0.950 . S
C572 C571 1.398 . S
C572 C573 1.391 . S
C573 H561 0.950 . S
C573 C569 1.393 . S
C573 C572 1.391 . S
C574 H564 0.950 . S
C574 C575 1.386 . S
C574 C576 1.391 . S
C575 C574 1.386 . S
C575 C579 1.393 . S
C576 H565 0.950 . S
C576 C574 1.391 . S
C576 C577 1.400 . S
C577 C571 1.491 . S
C577 C576 1.400 . S
C577 C578 1.398 . S
C578 H566 0.950 . S
C578 C577 1.398 . S
C578 C579 1.391 . S
C579 H567 0.950 . S
C579 C575 1.393 . S
C579 C578 1.391 . S
H580 C588 0.950 . S
H581 C593 0.950 . S
H582 C590 0.950 . S
H583 C592 0.950 . S
H584 C594 0.950 . S
H585 C596 0.950 . S
H586 C598 0.950 . S
H587 C599 0.950 . S
C588 H580 0.950 . S
C588 C589 1.386 . S
C588 C590 1.391 . S
C589 C588 1.386 . S
C589 C593 1.393 . S
C590 H582 0.950 . S
C590 C588 1.391 . S
C590 C591 1.400 . S
C591 C590 1.400 . S
C591 C592 1.398 . S
C591 C597 1.491 . S
C592 H583 0.950 . S
C592 C591 1.398 . S
C592 C593 1.391 . S
C593 H581 0.950 . S
C593 C589 1.393 . S
C593 C592 1.391 . S
C594 H584 0.950 . S
C594 C595 1.386 . S
C594 C596 1.391 . S
C595 C594 1.386 . S
C595 C599 1.393 . S
C596 H585 0.950 . S
C596 C594 1.391 . S
C596 C597 1.400 . S
C597 C591 1.491 . S
C597 C596 1.400 . S
C597 C598 1.398 . S
C598 H586 0.950 . S
C598 C597 1.398 . S
C598 C599 1.391 . S
C599 H587 0.950 . S
C599 C595 1.393 . S
C599 C598 1.391 . S
H600 C608 0.950 . S
H601 C613 0.950 . S
H602 C610 0.950 . S
H603 C612 0.950 . S
H604 C614 0.950 . S
H605 C616 0.950 . S
H606 C618 0.950 . S
H607 C619 0.950 . S
C608 H600 0.950 . S
C608 C609 1.386 . S
C608 C610 1.391 . S
C609 C608 1.386 . S
C609 C613 1.393 . S
C610 H602 0.950 . S
C610 C608 1.391 . S
C610 C611 1.400 . S
C611 C610 1.400 . S
C611 C612 1.398 . S
C611 C617 1.491 . S
C612 H603 0.950 . S
C612 C611 1.398 . S
C612 C613 1.391 . S
C613 H601 0.950 . S
C613 C609 1.393 . S
C613 C612 1.391 . S
C614 H604 0.950 . S
C614 C615 1.386 . S
C614 C616 1.391 . S
C615 C614 1.386 . S
C615 C619 1.393 . S
C616 H605 0.950 . S
C616 C614 1.391 . S
C616 C617 1.400 . S
C617 C611 1.491 . S
C617 C616 1.400 . S
C617 C618 1.398 . S
C618 H606 0.950 . S
C618 C617 1.398 . S
C618 C619 1.391 . S
C619 H607 0.950 . S
C619 C615 1.393 . S
C619 C618 1.391 . S
H620 C628 0.950 . S
H621 C633 0.950 . S
H622 C630 0.950 . S
H623 C632 0.950 . S
H624 C634 0.950 . S
H625 C636 0.950 . S
H626 C638 0.950 . S
H627 C639 0.950 . S
C628 H620 0.950 . S
C628 C629 1.386 . S
C628 C630 1.391 . S
C629 C628 1.386 . S
C629 C633 1.393 . S
C630 H622 0.950 . S
C630 C628 1.391 . S
C630 C631 1.400 . S
C631 C630 1.400 . S
C631 C632 1.398 . S
C631 C637 1.491 . S
C632 H623 0.950 . S
C632 C631 1.398 . S
C632 C633 1.391 . S
C633 H621 0.950 . S
C633 C629 1.393 . S
C633 C632 1.391 . S
C634 H624 0.950 . S
C634 C635 1.386 . S
C634 C636 1.391 . S
C635 C634 1.386 . S
C635 C639 1.393 . S
C636 H625 0.950 . S
C636 C634 1.391 . S
C636 C637 1.400 . S
C637 C631 1.491 . S
C637 C636 1.400 . S
C637 C638 1.398 . S
C638 H626 0.950 . S
C638 C637 1.398 . S
C638 C639 1.391 . S
C639 H627 0.950 . S
C639 C635 1.393 . S
C639 C638 1.391 . S
H640 C648 0.950 . S
H641 C653 0.950 . S
H642 C650 0.950 . S
H643 C652 0.950 . S
H644 C654 0.950 . S
H645 C656 0.950 . S
H646 C658 0.950 . S
H647 C659 0.950 . S
C648 H640 0.950 . S
C648 C649 1.386 . S
C648 C650 1.391 . S
C649 C648 1.386 . S
C649 C653 1.393 . S
C650 H642 0.950 . S
C650 C648 1.391 . S
C650 C651 1.400 . S
C651 C650 1.400 . S
C651 C652 1.398 . S
C651 C657 1.491 . S
C652 H643 0.950 . S
C652 C651 1.398 . S
C652 C653 1.391 . S
C653 H641 0.950 . S
C653 C649 1.393 . S
C653 C652 1.391 . S
C654 H644 0.950 . S
C654 C655 1.386 . S
C654 C656 1.391 . S
C655 C654 1.386 . S
C655 C659 1.393 . S
C656 H645 0.950 . S
C656 C654 1.391 . S
C656 C657 1.400 . S
C657 C651 1.491 . S
C657 C656 1.400 . S
C657 C658 1.398 . S
C658 H646 0.950 . S
C658 C657 1.398 . S
C658 C659 1.391 . S
C659 H647 0.950 . S
C659 C655 1.393 . S
C659 C658 1.391 . S
H660 C668 0.950 . S
H661 C673 0.950 . S
H662 C670 0.950 . S
H663 C672 0.950 . S
H664 C674 0.950 . S
H665 C676 0.938 1_655 S
H666 C678 0.950 . S
H667 C679 0.950 . S
C668 H660 0.950 . S
C668 C669 1.386 . S
C668 C670 1.391 . S
C669 C668 1.386 . S
C669 C673 1.393 . S
C670 H662 0.950 . S
C670 C668 1.391 . S
C670 C671 1.400 . S
C671 C670 1.400 . S
C671 C672 1.398 . S
C671 C677 1.491 . S
C672 H663 0.950 . S
C672 C671 1.398 . S
C672 C673 1.391 . S
C673 H661 0.950 . S
C673 C669 1.393 . S
C673 C672 1.391 . S
C674 H664 0.950 . S
C674 C675 1.386 1_655 S
C674 C676 1.391 1_655 S
C675 C674 1.386 1_455 S
C675 C679 1.393 . S
C676 H665 0.938 1_455 S
C676 C674 1.391 1_455 S
C676 C677 1.400 . S
C677 C671 1.491 . S
C677 C676 1.400 . S
C677 C678 1.398 . S
C678 H666 0.950 . S
C678 C677 1.398 . S
C678 C679 1.391 . S
C679 H667 0.950 . S
C679 C675 1.393 . S
C679 C678 1.391 . S
H680 C688 0.950 . S
H681 C693 0.950 . S
H682 C690 0.950 1_455 S
H683 C692 0.950 . S
H684 C694 0.950 . S
H685 C696 0.950 . S
H686 C698 0.950 . S
H687 C699 0.950 . S
C688 H680 0.950 . S
C688 C689 1.386 1_455 S
C688 C690 1.391 1_455 S
C689 C688 1.386 1_655 S
C689 C693 1.393 . S
C690 H682 0.950 1_655 S
C690 C688 1.391 1_655 S
C690 C691 1.400 . S
C691 C690 1.400 . S
C691 C692 1.398 . S
C691 C697 1.491 . S
C692 H683 0.950 . S
C692 C691 1.398 . S
C692 C693 1.391 . S
C693 H681 0.950 . S
C693 C689 1.393 . S
C693 C692 1.391 . S
C694 H684 0.950 . S
C694 C695 1.386 . S
C694 C696 1.391 . S
C695 C694 1.386 . S
C695 C699 1.393 . S
C696 H685 0.950 . S
C696 C694 1.391 . S
C696 C697 1.400 . S
C697 C691 1.491 . S
C697 C696 1.400 . S
C697 C698 1.398 . S
C698 H686 0.950 . S
C698 C697 1.398 . S
C698 C699 1.391 . S
C699 H687 0.950 . S
C699 C695 1.393 . S
C699 C698 1.391 . S
H700 C708 0.950 . S
H701 C713 0.950 . S
H702 C710 0.950 . S
H703 C712 0.950 . S
H704 C714 0.950 . S
H705 C716 0.950 . S
H706 C718 0.950 . S
H707 C719 0.950 . S
C708 H700 0.950 . S
C708 C709 1.386 . S
C708 C710 1.391 . S
C709 C708 1.386 . S
C709 C713 1.393 . S
C710 H702 0.950 . S
C710 C708 1.391 . S
C710 C711 1.400 . S
C711 C710 1.400 . S
C711 C712 1.398 . S
C711 C717 1.491 . S
C712 H703 0.950 . S
C712 C711 1.398 . S
C712 C713 1.391 . S
C713 H701 0.950 . S
C713 C709 1.393 . S
C713 C712 1.391 . S
C714 H704 0.950 . S
C714 C715 1.386 . S
C714 C716 1.391 . S
C715 C714 1.386 . S
C715 C719 1.393 . S
C716 H705 0.950 . S
C716 C714 1.391 . S
C716 C717 1.400 . S
C717 C711 1.491 . S
C717 C716 1.400 . S
C717 C718 1.398 . S
C718 H706 0.950 . S
C718 C717 1.398 . S
C718 C719 1.391 . S
C719 H707 0.950 . S
C719 C715 1.393 . S
C719 C718 1.391 . S
H720 C728 0.950 . S
H721 C733 0.950 . S
H722 C730 0.950 . S
H723 C732 0.950 . S
H724 C734 0.950 . S
H725 C736 0.950 . S
H726 C738 0.950 . S
H727 C739 0.950 . S
C728 H720 0.950 . S
C728 C729 1.386 . S
C728 C730 1.391 . S
C729 C728 1.386 . S
C729 C733 1.393 . S
C730 H722 0.950 . S
C730 C728 1.391 . S
C730 C731 1.400 . S
C731 C730 1.400 . S
C731 C732 1.398 . S
C731 C737 1.491 . S
C732 H723 0.950 . S
C732 C731 1.398 . S
C732 C733 1.391 . S
C733 H721 0.950 . S
C733 C729 1.393 . S
C733 C732 1.391 . S
C734 H724 0.950 . S
C734 C735 1.386 . S
C734 C736 1.391 . S
C735 C734 1.386 . S
C735 C739 1.393 . S
C736 H725 0.950 . S
C736 C734 1.391 . S
C736 C737 1.400 . S
C737 C731 1.491 . S
C737 C736 1.400 . S
C737 C738 1.398 . S
C738 H726 0.950 . S
C738 C737 1.398 . S
C738 C739 1.391 . S
C739 H727 0.950 . S
C739 C735 1.393 . S
C739 C738 1.391 . S
H740 C748 0.950 . S
H741 C753 0.950 . S
H742 C750 0.950 . S
H743 C752 0.950 . S
H744 C754 0.962 . S
H745 C756 0.950 . S
H746 C758 0.950 . S
H747 C759 0.950 . S
C748 H740 0.950 . S
C748 C749 1.386 . S
C748 C750 1.391 . S
C749 C748 1.386 . S
C749 C753 1.393 . S
C750 H742 0.950 . S
C750 C748 1.391 . S
C750 C751 1.400 . S
C751 C750 1.400 . S
C751 C752 1.398 . S
C751 C757 1.491 . S
C752 H743 0.950 . S
C752 C751 1.398 . S
C752 C753 1.391 . S
C753 H741 0.950 . S
C753 C749 1.393 . S
C753 C752 1.391 . S
C754 H744 0.962 . S
C754 C755 1.386 . S
C754 C756 1.391 . S
C755 C754 1.386 . S
C755 C759 1.393 . S
C756 H745 0.950 . S
C756 C754 1.391 . S
C756 C757 1.400 . S
C757 C751 1.491 . S
C757 C756 1.400 . S
C757 C758 1.398 . S
C758 H746 0.950 . S
C758 C757 1.398 . S
C758 C759 1.391 . S
C759 H747 0.950 . S
C759 C755 1.393 . S
C759 C758 1.391 . S
H760 C768 0.950 . S
H761 C773 0.950 . S
H762 C770 0.950 . S
H763 C772 0.950 . S
H764 C774 0.950 . S
H765 C776 0.950 . S
H766 C778 0.950 . S
H767 C779 0.950 . S
C768 H760 0.950 . S
C768 C769 1.386 . S
C768 C770 1.391 . S
C769 C768 1.386 . S
C769 C773 1.393 . S
C770 H762 0.950 . S
C770 C768 1.391 . S
C770 C771 1.400 . S
C771 C770 1.400 . S
C771 C772 1.398 . S
C771 C777 1.491 . S
C772 H763 0.950 . S
C772 C771 1.398 . S
C772 C773 1.391 . S
C773 H761 0.950 . S
C773 C769 1.393 . S
C773 C772 1.391 . S
C774 H764 0.950 . S
C774 C775 1.386 . S
C774 C776 1.391 . S
C775 C774 1.386 . S
C775 C779 1.393 . S
C776 H765 0.950 . S
C776 C774 1.391 . S
C776 C777 1.400 . S
C777 C771 1.491 . S
C777 C776 1.400 . S
C777 C778 1.398 . S
C778 H766 0.950 . S
C778 C777 1.398 . S
C778 C779 1.391 . S
C779 H767 0.950 . S
C779 C775 1.393 . S
C779 C778 1.391 . S
H780 C788 0.950 . S
H781 C793 0.950 . S
H782 C790 0.949 . S
H783 C792 0.950 . S
H784 C794 0.950 . S
H785 C796 0.950 . S
H786 C798 0.950 . S
H787 C799 0.950 . S
C788 H780 0.950 . S
C788 C789 1.386 . S
C788 C790 1.391 . S
C789 C788 1.386 . S
C789 C793 1.393 . S
C790 H782 0.949 . S
C790 C788 1.391 . S
C790 C791 1.400 . S
C791 C790 1.400 . S
C791 C792 1.398 . S
C791 C797 1.491 1_554 S
C792 H783 0.950 . S
C792 C791 1.398 . S
C792 C793 1.391 . S
C793 H781 0.950 . S
C793 C789 1.393 . S
C793 C792 1.391 . S
C794 H784 0.950 . S
C794 C795 1.386 . S
C794 C796 1.391 . S
C795 C794 1.386 . S
C795 C799 1.393 . S
C796 H785 0.950 . S
C796 C794 1.391 . S
C796 C797 1.400 . S
C797 C791 1.491 1_556 S
C797 C796 1.400 . S
C797 C798 1.398 . S
C798 H786 0.950 . S
C798 C797 1.398 . S
C798 C799 1.391 . S
C799 H787 0.950 . S
C799 C795 1.393 . S
C799 C798 1.391 . S
H800 C808 0.950 . S
H801 C813 0.950 . S
H802 C810 0.950 . S
H803 C812 0.950 . S
H804 C814 0.950 . S
H805 C816 0.950 . S
H806 C818 0.950 . S
H807 C819 0.950 . S
C808 H800 0.950 . S
C808 C809 1.386 . S
C808 C810 1.391 . S
C809 C808 1.386 . S
C809 C813 1.393 . S
C810 H802 0.950 . S
C810 C808 1.391 . S
C810 C811 1.400 . S
C811 C810 1.400 . S
C811 C812 1.398 . S
C811 C817 1.491 . S
C812 H803 0.950 . S
C812 C811 1.398 . S
C812 C813 1.391 . S
C813 H801 0.950 . S
C813 C809 1.393 . S
C813 C812 1.391 . S
C814 H804 0.950 . S
C814 C815 1.386 . S
C814 C816 1.391 . S
C815 C814 1.386 . S
C815 C819 1.393 . S
C816 H805 0.950 . S
C816 C814 1.391 . S
C816 C817 1.400 . S
C817 C811 1.491 . S
C817 C816 1.400 . S
C817 C818 1.398 . S
C818 H806 0.950 . S
C818 C817 1.398 . S
C818 C819 1.391 . S
C819 H807 0.950 . S
C819 C815 1.393 . S
C819 C818 1.391 . S
H820 C828 0.950 . S
H821 C833 0.950 . S
H822 C830 0.950 1_556 S
H823 C832 0.950 . S
H824 C834 0.950 . S
H825 C836 0.950 . S
H826 C838 0.950 . S
H827 C839 0.950 . S
C828 H820 0.950 . S
C828 C829 1.386 . S
C828 C830 1.391 . S
C829 C828 1.386 . S
C829 C833 1.393 . S
C830 H822 0.950 1_554 S
C830 C828 1.391 . S
C830 C831 1.400 1_554 S
C831 C830 1.400 1_556 S
C831 C832 1.398 . S
C831 C837 1.491 . S
C832 H823 0.950 . S
C832 C831 1.398 . S
C832 C833 1.391 1_556 S
C833 H821 0.950 . S
C833 C829 1.393 . S
C833 C832 1.391 1_554 S
C834 H824 0.950 . S
C834 C835 1.386 . S
C834 C836 1.391 . S
C835 C834 1.386 . S
C835 C839 1.393 . S
C836 H825 0.950 . S
C836 C834 1.391 . S
C836 C837 1.400 . S
C837 C831 1.491 . S
C837 C836 1.400 . S
C837 C838 1.398 . S
C838 H826 0.950 . S
C838 C837 1.398 . S
C838 C839 1.391 . S
C839 H827 0.950 . S
C839 C835 1.393 . S
C839 C838 1.391 . S
H840 C848 0.950 . S
H841 C853 0.950 . S
H842 C850 0.950 . S
H843 C852 0.950 . S
H844 C854 0.950 . S
H845 C856 0.950 . S
H846 C858 0.950 . S
H847 C859 0.950 . S
C848 H840 0.950 . S
C848 C849 1.386 . S
C848 C850 1.391 . S
C849 C848 1.386 . S
C849 C853 1.393 . S
C850 H842 0.950 . S
C850 C848 1.391 . S
C850 C851 1.400 . S
C851 C850 1.400 . S
C851 C852 1.398 . S
C851 C857 1.491 . S
C852 H843 0.950 . S
C852 C851 1.398 . S
C852 C853 1.391 . S
C853 H841 0.950 . S
C853 C849 1.393 . S
C853 C852 1.391 . S
C854 H844 0.950 . S
C854 C855 1.386 . S
C854 C856 1.391 . S
C855 C854 1.386 . S
C855 C859 1.393 . S
C856 H845 0.950 . S
C856 C854 1.391 . S
C856 C857 1.400 . S
C857 C851 1.491 . S
C857 C856 1.400 . S
C857 C858 1.398 . S
C858 H846 0.950 . S
C858 C857 1.398 . S
C858 C859 1.391 . S
C859 H847 0.950 . S
C859 C855 1.393 . S
C859 C858 1.391 . S
H860 C868 0.950 . S
H861 C873 0.950 . S
H862 C870 0.950 . S
H863 C872 0.950 . S
H864 C874 0.950 . S
H865 C876 0.950 . S
H866 C878 0.950 . S
H867 C879 0.950 . S
C868 H860 0.950 . S
C868 C869 1.386 . S
C868 C870 1.391 . S
C869 C868 1.386 . S
C869 C873 1.393 . S
C870 H862 0.950 . S
C870 C868 1.391 . S
C870 C871 1.400 . S
C871 C870 1.400 . S
C871 C872 1.398 . S
C871 C877 1.491 . S
C872 H863 0.950 . S
C872 C871 1.398 . S
C872 C873 1.391 . S
C873 H861 0.950 . S
C873 C869 1.393 . S
C873 C872 1.391 . S
C874 H864 0.950 . S
C874 C875 1.386 . S
C874 C876 1.391 . S
C875 C874 1.386 . S
C875 C879 1.393 . S
C876 H865 0.950 . S
C876 C874 1.391 . S
C876 C877 1.400 . S
C877 C871 1.491 . S
C877 C876 1.400 . S
C877 C878 1.398 . S
C878 H866 0.950 . S
C878 C877 1.398 . S
C878 C879 1.391 . S
C879 H867 0.950 . S
C879 C875 1.393 . S
C879 C878 1.391 . S
H880 C888 0.950 . S
H881 C893 0.950 . S
H882 C890 0.950 . S
H883 C892 0.950 . S
H884 C894 0.950 . S
H885 C896 0.950 . S
H886 C898 0.950 . S
H887 C899 0.950 . S
C888 H880 0.950 . S
C888 C889 1.386 . S
C888 C890 1.391 . S
C889 C888 1.386 . S
C889 C893 1.393 . S
C890 H882 0.950 . S
C890 C888 1.391 . S
C890 C891 1.400 . S
C891 C890 1.400 . S
C891 C892 1.398 . S
C891 C897 1.491 . S
C892 H883 0.950 . S
C892 C891 1.398 . S
C892 C893 1.391 . S
C893 H881 0.950 . S
C893 C889 1.393 . S
C893 C892 1.391 . S
C894 H884 0.950 . S
C894 C895 1.386 . S
C894 C896 1.391 . S
C895 C894 1.386 . S
C895 C899 1.393 . S
C896 H885 0.950 . S
C896 C894 1.391 . S
C896 C897 1.400 . S
C897 C891 1.491 . S
C897 C896 1.400 . S
C897 C898 1.398 . S
C898 H886 0.950 . S
C898 C897 1.398 . S
C898 C899 1.391 . S
C899 H887 0.950 . S
C899 C895 1.393 . S
C899 C898 1.391 . S
H900 C908 0.950 . S
H901 C913 0.950 . S
H902 C910 0.950 1_565 S
H903 C912 0.950 . S
H904 C914 0.950 . S
H905 C916 0.950 1_545 S
H906 C918 0.950 . S
H907 C919 0.950 . S
C908 H900 0.950 . S
C908 C909 1.386 . S
C908 C910 1.391 . S
C909 C908 1.386 . S
C909 C913 1.393 . S
C910 H902 0.950 1_545 S
C910 C908 1.391 . S
C910 C911 1.400 . S
C911 C910 1.400 . S
C911 C912 1.398 . S
C911 C917 1.491 1_545 S
C912 H903 0.950 . S
C912 C911 1.398 . S
C912 C913 1.391 . S
C913 H901 0.950 . S
C913 C909 1.393 . S
C913 C912 1.391 . S
C914 H904 0.950 . S
C914 C915 1.386 . S
C914 C916 1.391 . S
C915 C914 1.386 . S
C915 C919 1.393 . S
C916 H905 0.950 1_565 S
C916 C914 1.391 . S
C916 C917 1.400 . S
C917 C911 1.491 1_565 S
C917 C916 1.400 . S
C917 C918 1.398 . S
C918 H906 0.950 . S
C918 C917 1.398 . S
C918 C919 1.391 . S
C919 H907 0.950 . S
C919 C915 1.393 . S
C919 C918 1.391 . S
H920 C928 0.950 . S
H921 C933 0.950 . S
H922 C930 0.950 . S
H923 C932 0.950 . S
H924 C934 0.950 . S
H925 C936 0.950 . S
H926 C938 0.950 . S
H927 C939 0.950 . S
C928 H920 0.950 . S
C928 C929 1.386 . S
C928 C930 1.391 . S
C929 C928 1.386 . S
C929 C933 1.393 . S
C930 H922 0.950 . S
C930 C928 1.391 . S
C930 C931 1.400 . S
C931 C930 1.400 . S
C931 C932 1.398 . S
C931 C937 1.491 . S
C932 H923 0.950 . S
C932 C931 1.398 . S
C932 C933 1.391 . S
C933 H921 0.950 . S
C933 C929 1.393 . S
C933 C932 1.391 . S
C934 H924 0.950 . S
C934 C935 1.386 . S
C934 C936 1.391 . S
C935 C934 1.386 . S
C935 C939 1.393 . S
C936 H925 0.950 . S
C936 C934 1.391 . S
C936 C937 1.400 . S
C937 C931 1.491 . S
C937 C936 1.400 . S
C937 C938 1.398 . S
C938 H926 0.950 . S
C938 C937 1.398 . S
C938 C939 1.391 . S
C939 H927 0.950 . S
C939 C935 1.393 . S
C939 C938 1.391 . S
H940 C948 0.950 . S
H941 C953 0.950 . S
H942 C950 0.950 1_565 S
H943 C952 0.950 . S
H944 C954 0.950 . S
H945 C956 0.950 . S
H946 C958 0.950 . S
H947 C959 0.950 . S
C948 H940 0.950 . S
C948 C949 1.386 . S
C948 C950 1.391 . S
C949 C948 1.386 . S
C949 C953 1.393 . S
C950 H942 0.950 1_545 S
C950 C948 1.391 . S
C950 C951 1.400 1_545 S
C951 C950 1.400 1_565 S
C951 C952 1.398 1_565 S
C951 C957 1.491 . S
C952 H943 0.950 . S
C952 C951 1.398 1_545 S
C952 C953 1.391 . S
C953 H941 0.950 . S
C953 C949 1.393 . S
C953 C952 1.391 . S
C954 H944 0.950 . S
C954 C955 1.386 . S
C954 C956 1.391 . S
C955 C954 1.386 . S
C955 C959 1.393 . S
C956 H945 0.950 . S
C956 C954 1.391 . S
C956 C957 1.400 . S
C957 C951 1.491 . S
C957 C956 1.400 . S
C957 C958 1.398 . S
C958 H946 0.950 . S
C958 C957 1.398 . S
C958 C959 1.391 . S
C959 H947 0.950 . S
C959 C955 1.393 . S
C959 C958 1.391 . S
H960 C968 0.950 . S
H961 C973 0.950 . S
H962 C970 0.950 . S
H963 C972 0.950 . S
H964 C974 0.950 . S
H965 C976 0.950 . S
H966 C978 0.950 . S
H967 C979 0.950 . S
C968 H960 0.950 . S
C968 C969 1.386 . S
C968 C970 1.391 . S
C969 C968 1.386 . S
C969 C973 1.393 . S
C970 H962 0.950 . S
C970 C968 1.391 . S
C970 C971 1.400 . S
C971 C970 1.400 . S
C971 C972 1.398 . S
C971 C977 1.491 . S
C972 H963 0.950 . S
C972 C971 1.398 . S
C972 C973 1.391 . S
C973 H961 0.950 . S
C973 C969 1.393 . S
C973 C972 1.391 . S
C974 H964 0.950 . S
C974 C975 1.386 . S
C974 C976 1.391 . S
C975 C974 1.386 . S
C975 C979 1.393 . S
C976 H965 0.950 . S
C976 C974 1.391 . S
C976 C977 1.400 . S
C977 C971 1.491 . S
C977 C976 1.400 . S
C977 C978 1.398 . S
C978 H966 0.950 . S
C978 C977 1.398 . S
C978 C979 1.391 . S
C979 H967 0.950 . S
C979 C975 1.393 . S
C979 C978 1.391 . S
H980 C988 0.950 . S
H981 C993 0.950 . S
H982 C990 0.950 . S
H983 C992 0.950 . S
H984 C994 0.950 . S
H985 C996 0.950 . S
H986 C998 0.950 . S
H987 C999 0.950 . S
C988 H980 0.950 . S
C988 C989 1.386 . S
C988 C990 1.391 . S
C989 C988 1.386 . S
C989 C993 1.393 . S
C990 H982 0.950 . S
C990 C988 1.391 . S
C990 C991 1.400 . S
C991 C990 1.400 . S
C991 C992 1.398 . S
C991 C997 1.491 . S
C992 H983 0.950 . S
C992 C991 1.398 . S
C992 C993 1.391 . S
C993 H981 0.950 . S
C993 C989 1.393 . S
C993 C992 1.391 . S
C994 H984 0.950 . S
C994 C995 1.386 . S
C994 C996 1.391 . S
C995 C994 1.386 . S
C995 C999 1.393 . S
C996 H985 0.950 . S
C996 C994 1.391 . S
C996 C997 1.400 . S
C997 C991 1.491 . S
C997 C996 1.400 . S
C997 C998 1.398 . S
C998 H986 0.950 . S
C998 C997 1.398 . S
C998 C999 1.391 . S
C999 H987 0.950 . S
C999 C995 1.393 . S
C999 C998 1.391 . S
H1000 C1008 0.950 . S
H1001 C1013 0.950 . S
H1002 C1010 0.950 . S
H1003 C1012 0.950 . S
H1004 C1014 0.950 . S
H1005 C1016 0.950 . S
H1006 C1018 0.950 . S
H1007 C1019 0.950 . S
C1008 H1000 0.950 . S
C1008 C1009 1.386 . S
C1008 C1010 1.391 . S
C1009 C1008 1.386 . S
C1009 C1013 1.393 . S
C1010 H1002 0.950 . S
C1010 C1008 1.391 . S
C1010 C1011 1.400 . S
C1011 C1010 1.400 . S
C1011 C1012 1.398 . S
C1011 C1017 1.491 . S
C1012 H1003 0.950 . S
C1012 C1011 1.398 . S
C1012 C1013 1.391 . S
C1013 H1001 0.950 . S
C1013 C1009 1.393 . S
C1013 C1012 1.391 . S
C1014 H1004 0.950 . S
C1014 C1015 1.386 . S
C1014 C1016 1.391 . S
C1015 C1014 1.386 . S
C1015 C1019 1.393 . S
C1016 H1005 0.950 . S
C1016 C1014 1.391 . S
C1016 C1017 1.400 . S
C1017 C1011 1.491 . S
C1017 C1016 1.400 . S
C1017 C1018 1.398 . S
C1018 H1006 0.950 . S
C1018 C1017 1.398 . S
C1018 C1019 1.391 . S
C1019 H1007 0.950 . S
C1019 C1015 1.393 . S
C1019 C1018 1.391 . S
H1020 C1028 0.950 . S
H1021 C1033 0.950 . S
H1022 C1030 0.950 . S
H1023 C1032 0.950 . S
H1024 C1034 0.950 . S
H1025 C1036 0.950 . S
H1026 C1038 0.950 . S
H1027 C1039 0.950 . S
C1028 H1020 0.950 . S
C1028 C1029 1.386 . S
C1028 C1030 1.391 . S
C1029 C1028 1.386 . S
C1029 C1033 1.393 . S
C1030 H1022 0.950 . S
C1030 C1028 1.391 . S
C1030 C1031 1.400 . S
C1031 C1030 1.400 . S
C1031 C1032 1.398 . S
C1031 C1037 1.491 . S
C1032 H1023 0.950 . S
C1032 C1031 1.398 . S
C1032 C1033 1.391 . S
C1033 H1021 0.950 . S
C1033 C1029 1.393 . S
C1033 C1032 1.391 . S
C1034 H1024 0.950 . S
C1034 C1035 1.386 . S
C1034 C1036 1.391 . S
C1035 C1034 1.386 . S
C1035 C1039 1.393 . S
C1036 H1025 0.950 . S
C1036 C1034 1.391 . S
C1036 C1037 1.400 . S
C1037 C1031 1.491 . S
C1037 C1036 1.400 . S
C1037 C1038 1.398 . S
C1038 H1026 0.950 . S
C1038 C1037 1.398 . S
C1038 C1039 1.391 . S
C1039 H1027 0.950 . S
C1039 C1035 1.393 . S
C1039 C1038 1.391 . S
H1040 C1048 0.950 . S
H1041 C1053 0.950 . S
H1042 C1050 0.950 . S
H1043 C1052 0.950 . S
H1044 C1054 0.950 . S
H1045 C1056 0.950 . S
H1046 C1058 0.950 . S
H1047 C1059 0.950 . S
C1048 H1040 0.950 . S
C1048 C1049 1.386 . S
C1048 C1050 1.391 . S
C1049 C1048 1.386 . S
C1049 C1053 1.393 . S
C1050 H1042 0.950 . S
C1050 C1048 1.391 . S
C1050 C1051 1.400 . S
C1051 C1050 1.400 . S
C1051 C1052 1.398 . S
C1051 C1057 1.491 . S
C1052 H1043 0.950 . S
C1052 C1051 1.398 . S
C1052 C1053 1.391 . S
C1053 H1041 0.950 . S
C1053 C1049 1.393 . S
C1053 C1052 1.391 . S
C1054 H1044 0.950 . S
C1054 C1055 1.386 . S
C1054 C1056 1.391 . S
C1055 C1054 1.386 . S
C1055 C1059 1.393 . S
C1056 H1045 0.950 . S
C1056 C1054 1.391 . S
C1056 C1057 1.400 . S
C1057 C1051 1.491 . S
C1057 C1056 1.400 . S
C1057 C1058 1.398 . S
C1058 H1046 0.950 . S
C1058 C1057 1.398 . S
C1058 C1059 1.391 . S
C1059 H1047 0.950 . S
C1059 C1055 1.393 . S
C1059 C1058 1.391 . S
H1060 C1068 0.950 . S
H1061 C1073 0.950 . S
H1062 C1070 0.950 . S
H1063 C1072 0.950 . S
H1064 C1074 0.950 . S
H1065 C1076 0.950 . S
H1066 C1078 0.950 . S
H1067 C1079 0.950 . S
C1068 H1060 0.950 . S
C1068 C1069 1.386 . S
C1068 C1070 1.391 . S
C1069 C1068 1.386 . S
C1069 C1073 1.393 . S
C1070 H1062 0.950 . S
C1070 C1068 1.391 . S
C1070 C1071 1.400 . S
C1071 C1070 1.400 . S
C1071 C1072 1.398 . S
C1071 C1077 1.491 . S
C1072 H1063 0.950 . S
C1072 C1071 1.398 . S
C1072 C1073 1.391 . S
C1073 H1061 0.950 . S
C1073 C1069 1.393 . S
C1073 C1072 1.391 . S
C1074 H1064 0.950 . S
C1074 C1075 1.386 . S
C1074 C1076 1.391 . S
C1075 C1074 1.386 . S
C1075 C1079 1.393 . S
C1076 H1065 0.950 . S
C1076 C1074 1.391 . S
C1076 C1077 1.400 . S
C1077 C1071 1.491 . S
C1077 C1076 1.400 . S
C1077 C1078 1.398 . S
C1078 H1066 0.950 . S
C1078 C1077 1.398 . S
C1078 C1079 1.391 . S
C1079 H1067 0.950 . S
C1079 C1075 1.393 . S
C1079 C1078 1.391 . S
H1080 C1088 0.950 . S
H1081 C1093 0.950 . S
H1082 C1090 0.950 . S
H1083 C1092 0.950 . S
H1084 C1094 0.950 . S
H1085 C1096 0.950 . S
H1086 C1098 0.953 . S
H1087 C1099 0.950 . S
C1088 H1080 0.950 . S
C1088 C1089 1.386 . S
C1088 C1090 1.391 . S
C1089 C1088 1.386 . S
C1089 C1093 1.393 . S
C1090 H1082 0.950 . S
C1090 C1088 1.391 . S
C1090 C1091 1.400 . S
C1091 C1090 1.400 . S
C1091 C1092 1.398 . S
C1091 C1097 1.494 1_455 S
C1092 H1083 0.950 . S
C1092 C1091 1.398 . S
C1092 C1093 1.391 . S
C1093 H1081 0.950 . S
C1093 C1089 1.393 . S
C1093 C1092 1.391 . S
C1094 H1084 0.950 . S
C1094 C1095 1.386 . S
C1094 C1096 1.391 . S
C1095 C1094 1.386 . S
C1095 C1099 1.393 . S
C1096 H1085 0.950 . S
C1096 C1094 1.391 . S
C1096 C1097 1.397 . S
C1097 C1091 1.494 1_655 S
C1097 C1096 1.397 . S
C1097 C1098 1.398 1_655 S
C1098 H1086 0.953 . S
C1098 C1097 1.398 1_455 S
C1098 C1099 1.388 1_455 S
C1099 H1087 0.950 . S
C1099 C1095 1.393 . S
C1099 C1098 1.388 1_655 S
H1100 C1108 0.950 . S
H1101 C1113 0.950 . S
H1102 C1110 0.950 . S
H1103 C1112 0.950 . S
H1104 C1114 0.950 . S
H1105 C1116 0.950 . S
H1106 C1118 0.950 . S
H1107 C1119 0.950 . S
C1108 H1100 0.950 . S
C1108 C1109 1.386 . S
C1108 C1110 1.391 . S
C1109 C1108 1.386 . S
C1109 C1113 1.393 . S
C1110 H1102 0.950 . S
C1110 C1108 1.391 . S
C1110 C1111 1.400 . S
C1111 C1110 1.400 . S
C1111 C1112 1.398 . S
C1111 C1117 1.491 . S
C1112 H1103 0.950 . S
C1112 C1111 1.398 . S
C1112 C1113 1.391 . S
C1113 H1101 0.950 . S
C1113 C1109 1.393 . S
C1113 C1112 1.391 . S
C1114 H1104 0.950 . S
C1114 C1115 1.386 . S
C1114 C1116 1.391 . S
C1115 C1114 1.386 . S
C1115 C1119 1.393 . S
C1116 H1105 0.950 . S
C1116 C1114 1.391 . S
C1116 C1117 1.400 . S
C1117 C1111 1.491 . S
C1117 C1116 1.400 . S
C1117 C1118 1.398 . S
C1118 H1106 0.950 . S
C1118 C1117 1.398 . S
C1118 C1119 1.391 . S
C1119 H1107 0.950 . S
C1119 C1115 1.393 . S
C1119 C1118 1.391 . S
H1120 C1128 0.950 . S
H1121 C1133 0.950 . S
H1122 C1130 0.950 . S
H1123 C1132 0.950 . S
H1124 C1134 0.950 . S
H1125 C1136 0.950 . S
H1126 C1138 0.950 . S
H1127 C1139 0.950 . S
C1128 H1120 0.950 . S
C1128 C1129 1.386 . S
C1128 C1130 1.391 . S
C1129 C1128 1.386 . S
C1129 C1133 1.393 . S
C1130 H1122 0.950 . S
C1130 C1128 1.391 . S
C1130 C1131 1.400 . S
C1131 C1130 1.400 . S
C1131 C1132 1.398 . S
C1131 C1137 1.491 . S
C1132 H1123 0.950 . S
C1132 C1131 1.398 . S
C1132 C1133 1.391 . S
C1133 H1121 0.950 . S
C1133 C1129 1.393 . S
C1133 C1132 1.391 . S
C1134 H1124 0.950 . S
C1134 C1135 1.386 . S
C1134 C1136 1.391 . S
C1135 C1134 1.386 . S
C1135 C1139 1.393 . S
C1136 H1125 0.950 . S
C1136 C1134 1.391 . S
C1136 C1137 1.400 . S
C1137 C1131 1.491 . S
C1137 C1136 1.400 . S
C1137 C1138 1.398 . S
C1138 H1126 0.950 . S
C1138 C1137 1.398 . S
C1138 C1139 1.391 . S
C1139 H1127 0.950 . S
C1139 C1135 1.393 . S
C1139 C1138 1.391 . S
H1140 C1148 0.950 . S
H1141 C1153 0.950 . S
H1142 C1150 0.950 . S
H1143 C1152 0.950 . S
H1144 C1154 0.950 . S
H1145 C1156 0.950 . S
H1146 C1158 0.950 . S
H1147 C1159 0.950 . S
C1148 H1140 0.950 . S
C1148 C1149 1.386 . S
C1148 C1150 1.391 . S
C1149 C1148 1.386 . S
C1149 C1153 1.393 . S
C1150 H1142 0.950 . S
C1150 C1148 1.391 . S
C1150 C1151 1.400 . S
C1151 C1150 1.400 . S
C1151 C1152 1.398 . S
C1151 C1157 1.491 . S
C1152 H1143 0.950 . S
C1152 C1151 1.398 . S
C1152 C1153 1.391 . S
C1153 H1141 0.950 . S
C1153 C1149 1.393 . S
C1153 C1152 1.391 . S
C1154 H1144 0.950 . S
C1154 C1155 1.386 . S
C1154 C1156 1.391 . S
C1155 C1154 1.386 . S
C1155 C1159 1.393 . S
C1156 H1145 0.950 . S
C1156 C1154 1.391 . S
C1156 C1157 1.400 . S
C1157 C1151 1.491 . S
C1157 C1156 1.400 . S
C1157 C1158 1.398 . S
C1158 H1146 0.950 . S
C1158 C1157 1.398 . S
C1158 C1159 1.391 . S
C1159 H1147 0.950 . S
C1159 C1155 1.393 . S
C1159 C1158 1.391 . S
H1160 C1168 0.950 . S
H1161 C1173 0.950 . S
H1162 C1170 0.950 . S
H1163 C1172 0.950 . S
H1164 C1174 0.950 . S
H1165 C1176 0.950 . S
H1166 C1178 0.950 . S
H1167 C1179 0.950 . S
C1168 H1160 0.950 . S
C1168 C1169 1.386 . S
C1168 C1170 1.391 . S
C1169 C1168 1.386 . S
C1169 C1173 1.393 . S
C1170 H1162 0.950 . S
C1170 C1168 1.391 . S
C1170 C1171 1.400 . S
C1171 C1170 1.400 . S
C1171 C1172 1.398 . S
C1171 C1177 1.491 . S
C1172 H1163 0.950 . S
C1172 C1171 1.398 . S
C1172 C1173 1.391 . S
C1173 H1161 0.950 . S
C1173 C1169 1.393 . S
C1173 C1172 1.391 . S
C1174 H1164 0.950 . S
C1174 C1175 1.386 . S
C1174 C1176 1.391 . S
C1175 C1174 1.386 . S
C1175 C1179 1.393 . S
C1176 H1165 0.950 . S
C1176 C1174 1.391 . S
C1176 C1177 1.400 . S
C1177 C1171 1.491 . S
C1177 C1176 1.400 . S
C1177 C1178 1.398 . S
C1178 H1166 0.950 . S
C1178 C1177 1.398 . S
C1178 C1179 1.391 . S
C1179 H1167 0.950 . S
C1179 C1175 1.393 . S
C1179 C1178 1.391 . S
H1180 C1188 0.950 . S
H1181 C1193 0.950 . S
H1182 C1190 0.950 . S
H1183 C1192 0.950 . S
H1184 C1194 0.950 . S
H1185 C1196 0.950 . S
H1186 C1198 0.950 1_655 S
H1187 C1199 0.950 . S
C1188 H1180 0.950 . S
C1188 C1189 1.386 . S
C1188 C1190 1.391 . S
C1189 C1188 1.386 . S
C1189 C1193 1.393 . S
C1190 H1182 0.950 . S
C1190 C1188 1.391 . S
C1190 C1191 1.400 . S
C1191 C1190 1.400 . S
C1191 C1192 1.398 . S
C1191 C1197 1.491 1_655 S
C1192 H1183 0.950 . S
C1192 C1191 1.398 . S
C1192 C1193 1.391 . S
C1193 H1181 0.950 . S
C1193 C1189 1.393 . S
C1193 C1192 1.391 . S
C1194 H1184 0.950 . S
C1194 C1195 1.386 . S
C1194 C1196 1.391 . S
C1195 C1194 1.386 . S
C1195 C1199 1.393 . S
C1196 H1185 0.950 . S
C1196 C1194 1.391 . S
C1196 C1197 1.400 . S
C1197 C1191 1.491 1_455 S
C1197 C1196 1.400 . S
C1197 C1198 1.398 . S
C1198 H1186 0.950 1_455 S
C1198 C1197 1.398 . S
C1198 C1199 1.391 . S
C1199 H1187 0.950 . S
C1199 C1195 1.393 . S
C1199 C1198 1.391 . S
C489 C24 1.338 . S
C495 C463 1.361 . S
C509 C383 1.701 . S
C515 C63 1.687 . S
C529 C104 1.410 . S
C535 C343 1.456 . S
C549 C143 1.693 . S
C555 C424 1.652 1_545 S
C569 C183 1.701 . S
C575 C423 1.713 . S
C589 C223 1.511 . S
C595 C464 1.506 . S
C609 C384 1.659 . S
C615 C263 1.684 . S
C629 C304 1.468 . S
C635 C344 1.449 . S
C649 C144 1.545 . S
C655 C184 1.581 . S
C669 C23 1.775 . S
C675 C224 1.738 1_455 S
C689 C64 1.673 1_655 S
C695 C264 1.686 . S
C709 C303 1.609 . S
C715 C103 1.621 1_554 S
C729 C17 1.613 . S
C735 C322 1.622 . S
C749 C66 1.565 . S
C755 C413 1.573 . S
C769 C442 2.099 . S
C775 C97 2.081 . S
C789 C146 1.257 . S
C795 C362 1.228 . S
C809 C186 1.787 . S
C815 C373 1.792 . S
C829 C333 1.718 . S
C835 C226 1.716 . S
C849 C402 1.178 . S
C855 C266 1.202 . S
C869 C453 1.931 . S
C875 C297 1.832 . S
C889 C2 1.927 . S
C895 C137 1.920 . S
C909 C26 1.525 . S
C915 C53 1.528 . S
C929 C57 1.974 . S
C935 C82 1.973 . S
C949 C133 1.694 . S
C955 C106 1.690 . S
C969 C217 1.548 . S
C975 C173 1.610 . S
C989 C213 1.396 . S
C995 C257 1.353 . S
C1009 C253 1.569 . S
C1015 C306 1.559 . S
C1029 C177 1.392 . S
C1035 C282 1.399 . S
C1049 C337 1.356 . S
C1055 C122 1.352 . S
C1069 C202 1.459 . S
C1075 C386 1.504 . S
C1089 C346 0.940 . S
C1095 C242 0.921 . S
C1109 C417 1.784 . S
C1115 C293 1.870 . S
C1129 C162 1.517 . S
C1135 C466 1.559 . S
C1149 C457 1.511 . S
C1155 C42 1.512 . S
C1169 C93 1.854 . S
C1175 C377 1.778 . S
C1189 C426 1.279 . S
C1195 C13 1.281 . S
