# Generated by pormake.
# Topology vmh, (6)-cn, num edge types: 1
# Building blocks:
#     Node 0, Type 0, BuildingBlock: IZENUY_clean_sbu_0, # of connection points: 6
#     Node 1, Type 0, BuildingBlock: IZENUY_clean_sbu_0, # of connection points: 6
#     Node 2, Type 0, BuildingBlock: IZENUY_clean_sbu_0, # of connection points: 6
#     Node 3, Type 0, BuildingBlock: IZENUY_clean_sbu_0, # of connection points: 6
#     Node 4, Type 0, BuildingBlock: IZENUY_clean_sbu_0, # of connection points: 6
#     Node 5, Type 0, BuildingBlock: IZENUY_clean_sbu_0, # of connection points: 6
#     Node 6, Type 0, BuildingBlock: IZENUY_clean_sbu_0, # of connection points: 6
#     Node 7, Type 0, BuildingBlock: IZENUY_clean_sbu_0, # of connection points: 6
#     Edge 8, Type (0, 0), BuildingBlock: MIFKUJ_clean_linker_0, # of connection points: 2
#     Edge 9, Type (0, 0), BuildingBlock: MIFKUJ_clean_linker_0, # of connection points: 2
#     Edge 10, Type (0, 0), BuildingBlock: MIFKUJ_clean_linker_0, # of connection points: 2
#     Edge 11, Type (0, 0), BuildingBlock: MIFKUJ_clean_linker_0, # of connection points: 2
#     Edge 12, Type (0, 0), BuildingBlock: MIFKUJ_clean_linker_0, # of connection points: 2
#     Edge 13, Type (0, 0), BuildingBlock: MIFKUJ_clean_linker_0, # of connection points: 2
#     Edge 14, Type (0, 0), BuildingBlock: MIFKUJ_clean_linker_0, # of connection points: 2
#     Edge 15, Type (0, 0), BuildingBlock: MIFKUJ_clean_linker_0, # of connection points: 2
#     Edge 16, Type (0, 0), BuildingBlock: MIFKUJ_clean_linker_0, # of connection points: 2
#     Edge 17, Type (0, 0), BuildingBlock: MIFKUJ_clean_linker_0, # of connection points: 2
#     Edge 18, Type (0, 0), BuildingBlock: MIFKUJ_clean_linker_0, # of connection points: 2
#     Edge 19, Type (0, 0), BuildingBlock: MIFKUJ_clean_linker_0, # of connection points: 2
#     Edge 20, Type (0, 0), BuildingBlock: MIFKUJ_clean_linker_0, # of connection points: 2
#     Edge 21, Type (0, 0), BuildingBlock: MIFKUJ_clean_linker_0, # of connection points: 2
#     Edge 22, Type (0, 0), BuildingBlock: MIFKUJ_clean_linker_0, # of connection points: 2
#     Edge 23, Type (0, 0), BuildingBlock: MIFKUJ_clean_linker_0, # of connection points: 2
#     Edge 24, Type (0, 0), BuildingBlock: MIFKUJ_clean_linker_0, # of connection points: 2
#     Edge 25, Type (0, 0), BuildingBlock: MIFKUJ_clean_linker_0, # of connection points: 2
#     Edge 26, Type (0, 0), BuildingBlock: MIFKUJ_clean_linker_0, # of connection points: 2
#     Edge 27, Type (0, 0), BuildingBlock: MIFKUJ_clean_linker_0, # of connection points: 2
#     Edge 28, Type (0, 0), BuildingBlock: MIFKUJ_clean_linker_0, # of connection points: 2
#     Edge 29, Type (0, 0), BuildingBlock: MIFKUJ_clean_linker_0, # of connection points: 2
#     Edge 30, Type (0, 0), BuildingBlock: MIFKUJ_clean_linker_0, # of connection points: 2
#     Edge 31, Type (0, 0), BuildingBlock: MIFKUJ_clean_linker_0, # of connection points: 2
# Relax obj value: 0.247
# Max RMSD: 0.263
# Mean RMSD: 0.263
data_MOF--net-vmh--node1-IZENUY_clean_sbu_0--edge1-MIFKUJ_clean_linker_0
_symmetry_space_group_name_H-M    P1
_symmetry_Int_Tables_number       1
_symmetry_cell_setting            triclinic
loop_
_symmetry_equiv_pos_as_xyz
'x, y, z'
_cell_length_a     36.077459
_cell_length_b     55.21439
_cell_length_c     37.035232
_cell_angle_alpha  90.005593
_cell_angle_beta   104.07939
_cell_angle_gamma 89.897306
loop_
_atom_site_label
_atom_site_type_symbol
_atom_site_fract_x
_atom_site_fract_y
_atom_site_fract_z
_atom_type_partial_charge
Fe0 Fe 0.25057 0.09428 0.09148 0.0
Fe1 Fe 0.26619 0.04997 0.04721 0.0
O2 O 0.27452 0.08069 0.06017 0.0
Fe3 Fe 0.30801 0.0976 0.04265 0.0
O4 O 0.32436 0.11638 0.08452 0.0
O5 O 0.29614 0.10011 0.12461 0.0
O6 O 0.24872 0.0665 0.11812 0.0
C7 C 0.26854 0.04729 0.12133 0.0
C8 C 0.25434 0.13244 0.03972 0.0
O9 O 0.28232 0.03985 0.09511 0.0
C10 C 0.26996 0.0691 0.98055 0.0
O11 O 0.20308 0.08806 0.06083 0.0
O12 O 0.21669 0.05017 0.0504 0.0
O13 O 0.27201 0.11947 0.02138 0.0
O14 O 0.24918 0.12496 0.07064 0.0
C15 C 0.34575 0.0547 0.0556 0.0
O16 O 0.2494 0.05809 0.99836 0.0
O17 O 0.29816 0.08175 0.99752 0.0
C18 C 0.19244 0.06666 0.05068 0.0
O19 O 0.31451 0.04405 0.0419 0.0
O20 O 0.34627 0.07692 0.06316 0.0
C21 C 0.32436 0.11098 0.11767 0.0
Fe22 Fe 0.76054 0.09445 0.4185 0.0
Fe23 Fe 0.74802 0.04722 0.45954 0.0
O24 O 0.73783 0.07829 0.44869 0.0
Fe25 Fe 0.70322 0.09298 0.4678 0.0
O26 O 0.67254 0.09679 0.42213 0.0
O27 O 0.71603 0.11098 0.39472 0.0
O28 O 0.74664 0.07248 0.3818 0.0
C29 C 0.75106 0.04991 0.38353 0.0
C30 C 0.75483 0.13126 0.46673 0.0
O31 O 0.75716 0.03886 0.41434 0.0
C32 C 0.74172 0.06829 0.52843 0.0
O33 O 0.80788 0.0794 0.43671 0.0
O34 O 0.79791 0.05359 0.47906 0.0
O35 O 0.72233 0.12339 0.46743 0.0
O36 O 0.77672 0.11886 0.4521 0.0
C37 C 0.67078 0.04756 0.4508 0.0
O38 O 0.7413 0.05005 0.50727 0.0
O39 O 0.73251 0.08908 0.51474 0.0
C40 C 0.82044 0.06467 0.46357 0.0
O41 O 0.69831 0.03833 0.44024 0.0
O42 O 0.67607 0.06588 0.47156 0.0
C43 C 0.6814 0.10575 0.39411 0.0
Fe44 Fe 0.74762 0.96904 0.95515 0.0
Fe45 Fe 0.76606 0.92387 0.91444 0.0
O46 O 0.74171 0.93771 0.94542 0.0
Fe47 Fe 0.71064 0.92035 0.9655 0.0
O48 O 0.67017 0.93961 0.94616 0.0
O49 O 0.69949 0.97421 0.96094 0.0
O50 O 0.72972 0.97681 0.90634 0.0
C51 C 0.74495 0.96954 0.88104 0.0
C52 C 0.74784 0.95176 0.02446 0.0
O53 O 0.76654 0.95112 0.88619 0.0
C54 C 0.76557 0.88643 0.9679 0.0
O55 O 0.79703 0.96964 0.95135 0.0
O56 O 0.81315 0.93164 0.9446 0.0
O57 O 0.72171 0.93689 0.00991 0.0
O58 O 0.76554 0.96353 0.00465 0.0
C59 C 0.69269 0.90597 0.89061 0.0
O60 O 0.76932 0.89353 0.93638 0.0
O61 O 0.74849 0.89956 0.98645 0.0
C62 C 0.8224 0.95353 0.95306 0.0
O63 O 0.72056 0.91648 0.88223 0.0
O64 O 0.69377 0.90111 0.92429 0.0
C65 C 0.66912 0.96208 0.95115 0.0
Fe66 Fe 0.25925 0.92552 0.58909 0.0
Fe67 Fe 0.31194 0.92641 0.53487 0.0
O68 O 0.27949 0.94122 0.5566 0.0
Fe69 Fe 0.26837 0.97221 0.54569 0.0
O70 O 0.26016 0.98063 0.59122 0.0
O71 O 0.27572 0.94794 0.62488 0.0
O72 O 0.3043 0.90892 0.61084 0.0
C73 C 0.33848 0.91205 0.60777 0.0
C74 C 0.19729 0.9545 0.5452 0.0
O75 O 0.34508 0.92125 0.57886 0.0
C76 C 0.2718 0.95186 0.47581 0.0
O77 O 0.24101 0.90069 0.55692 0.0
O78 O 0.29188 0.89631 0.53507 0.0
O79 O 0.21853 0.96516 0.52773 0.0
O80 O 0.21147 0.94061 0.57285 0.0
C81 C 0.34512 0.9719 0.55202 0.0
O82 O 0.28055 0.93098 0.48906 0.0
O83 O 0.2737 0.9699 0.49746 0.0
C84 C 0.26061 0.88842 0.53953 0.0
O85 O 0.3393 0.95354 0.53116 0.0
O86 O 0.31815 0.98125 0.56346 0.0
C87 C 0.26931 0.97031 0.62258 0.0
Fe88 Fe 0.75178 0.59278 0.09666 0.0
Fe89 Fe 0.76945 0.54819 0.05421 0.0
O90 O 0.7771 0.57906 0.06648 0.0
Fe91 Fe 0.81092 0.59623 0.04987 0.0
O92 O 0.82623 0.61444 0.09247 0.0
O93 O 0.79685 0.59776 0.13147 0.0
O94 O 0.74673 0.56497 0.12189 0.0
C95 C 0.76675 0.5459 0.12717 0.0
C96 C 0.75761 0.63121 0.04648 0.0
O97 O 0.78331 0.53865 0.10279 0.0
C98 C 0.77546 0.56709 0.98751 0.0
O99 O 0.7054 0.58727 0.06366 0.0
O100 O 0.71868 0.54904 0.05402 0.0
O101 O 0.77503 0.61808 0.02824 0.0
O102 O 0.75236 0.62373 0.07729 0.0
C103 C 0.84955 0.5535 0.06266 0.0
O104 O 0.75528 0.55536 0.00492 0.0
O105 O 0.802 0.58087 0.00463 0.0
C106 C 0.6948 0.56627 0.05104 0.0
O107 O 0.81861 0.54201 0.05139 0.0
O108 O 0.84934 0.57571 0.07013 0.0
C109 C 0.82576 0.6084 0.12533 0.0
Fe110 Fe 0.26978 0.59549 0.41314 0.0
Fe111 Fe 0.24986 0.55061 0.4531 0.0
O112 O 0.24464 0.58199 0.44363 0.0
Fe113 Fe 0.21368 0.59977 0.4633 0.0
O114 O 0.1971 0.61868 0.42152 0.0
O115 O 0.22447 0.60263 0.38028 0.0
O116 O 0.27079 0.56808 0.38561 0.0
C117 C 0.2474 0.55066 0.37891 0.0
C118 C 0.26857 0.63348 0.46543 0.0
O119 O 0.23185 0.54315 0.4039 0.0
C120 C 0.25088 0.56853 0.52245 0.0
O121 O 0.31649 0.58761 0.44441 0.0
O122 O 0.29956 0.54966 0.44974 0.0
O123 O 0.25166 0.62039 0.48405 0.0
O124 O 0.27262 0.62612 0.43417 0.0
C125 C 0.1715 0.55847 0.45107 0.0
O126 O 0.26774 0.55601 0.50265 0.0
O127 O 0.22491 0.58357 0.5079 0.0
C128 C 0.32532 0.56574 0.454 0.0
O129 O 0.20162 0.54588 0.45916 0.0
O130 O 0.17289 0.58072 0.44459 0.0
C131 C 0.19618 0.61313 0.38809 0.0
Fe132 Fe 0.24743 0.4705 0.952 0.0
Fe133 Fe 0.26811 0.42533 0.91244 0.0
O134 O 0.2419 0.43922 0.9417 0.0
Fe135 Fe 0.20913 0.42167 0.95924 0.0
O136 O 0.16939 0.4407 0.93713 0.0
O137 O 0.19752 0.47562 0.95331 0.0
O138 O 0.23388 0.47881 0.90287 0.0
C139 C 0.25061 0.47109 0.87892 0.0
C140 C 0.24142 0.45307 0.01966 0.0
O141 O 0.27167 0.45253 0.8855 0.0
C142 C 0.26455 0.38796 0.96512 0.0
O143 O 0.29843 0.47055 0.95306 0.0
O144 O 0.31406 0.43246 0.94511 0.0
O145 O 0.21616 0.43827 1.00321 0.0
O146 O 0.26114 0.46482 1.00182 0.0
C147 C 0.19505 0.4079 0.88487 0.0
O148 O 0.26929 0.39485 0.93381 0.0
O149 O 0.24656 0.40127 0.98262 0.0
C150 C 0.32335 0.45388 0.9567 0.0
O151 O 0.2233 0.41885 0.87786 0.0
O152 O 0.19579 0.40212 0.91807 0.0
C153 C 0.1675 0.46315 0.94212 0.0
Fe154 Fe 0.7535 0.4247 0.59425 0.0
Fe155 Fe 0.81437 0.42045 0.54938 0.0
O156 O 0.78153 0.43828 0.56646 0.0
Fe157 Fe 0.77748 0.46968 0.55702 0.0
O158 O 0.79099 0.47715 0.60639 0.0
O159 O 0.75048 0.45191 0.62163 0.0
O160 O 0.79699 0.41711 0.62971 0.0
C161 C 0.82574 0.40618 0.62361 0.0
C162 C 0.70053 0.45481 0.5504 0.0
O163 O 0.82657 0.40078 0.59058 0.0
C164 C 0.78257 0.45208 0.48912 0.0
O165 O 0.75178 0.3943 0.57246 0.0
O166 O 0.77693 0.40046 0.52517 0.0
O167 O 0.72653 0.47079 0.55574 0.0
O168 O 0.70856 0.43295 0.56053 0.0
C169 C 0.85715 0.46131 0.56798 0.0
O170 O 0.80802 0.43726 0.50549 0.0
O171 O 0.76372 0.46442 0.50721 0.0
C172 C 0.75802 0.38727 0.5418 0.0
O173 O 0.85446 0.43888 0.5723 0.0
O174 O 0.82762 0.47413 0.55609 0.0
C175 C 0.77265 0.4699 0.62932 0.0
H176 H 0.32706 0.06461 0.94501 0.0
H177 H 0.32225 0.05165 0.88112 0.0
H178 H 0.19958 0.04772 0.86204 0.0
H179 H 0.20461 0.05921 0.92709 0.0
H180 H 0.2204 0.01131 0.83223 0.0
H181 H 0.25074 0.09467 0.82501 0.0
H182 H 0.28615 0.13272 0.84285 0.0
H183 H 0.38731 0.10029 0.82229 0.0
H184 H 0.35274 0.06191 0.805 0.0
H185 H 0.24777 0.01764 0.62945 0.0
H186 H 0.243 0.0386 0.68658 0.0
H187 H 0.28495 0.97474 0.75069 0.0
H188 H 0.2897 0.95372 0.69416 0.0
H189 H 0.29485 0.04992 0.75152 0.0
H190 H 0.23454 0.96695 0.81673 0.0
H191 H 0.19341 0.93156 0.79529 0.0
H192 H 0.14136 0.96862 0.69359 0.0
H193 H 0.18187 1.00427 0.71463 0.0
C194 C 0.299 0.06132 0.92703 0.0
C195 C 0.26614 0.0632 0.94086 0.0
C196 C 0.29627 0.05403 0.89037 0.0
C197 C 0.26051 0.04927 0.86618 0.0
C198 C 0.22754 0.05137 0.87994 0.0
C199 C 0.23036 0.05803 0.91704 0.0
C200 C 0.25797 0.04081 0.82734 0.0
C201 C 0.23654 0.01992 0.81463 0.0
C202 C 0.27826 0.05223 0.80364 0.0
C203 C 0.29914 0.07536 0.81386 0.0
C204 C 0.28059 0.0956 0.8245 0.0
C205 C 0.30053 0.11724 0.83451 0.0
C206 C 0.33895 0.11892 0.8337 0.0
C207 C 0.35752 0.09898 0.82281 0.0
C208 C 0.33777 0.07728 0.81291 0.0
C209 C 0.25627 1.00813 0.65575 0.0
C210 C 0.26888 0.98392 0.6571 0.0
C211 C 0.25354 0.02014 0.68837 0.0
C212 C 0.26312 1.00812 0.72283 0.0
C213 C 0.2768 0.98425 0.72435 0.0
C214 C 0.27959 0.97228 0.69192 0.0
C215 C 0.25842 0.02015 0.75738 0.0
C216 C 0.27847 0.04159 0.76917 0.0
C217 C 0.23607 1.00965 0.77981 0.0
C218 C 0.21143 0.98825 0.76717 0.0
C219 C 0.2142 0.96759 0.78988 0.0
C220 C 0.19103 0.94746 0.77777 0.0
C221 C 0.16485 0.94781 0.74307 0.0
C222 C 0.16172 0.96832 0.72042 0.0
C223 C 0.18481 0.98848 0.73241 0.0
H224 H 0.14696 0.93221 0.73376 0.0
H225 H 0.35434 0.13568 0.8415 0.0
H226 H 0.78093 0.9616 0.82543 0.0
H227 H 0.77936 0.98663 0.77108 0.0
H228 H 0.70183 0.03626 0.80508 0.0
H229 H 0.70294 0.01104 0.85988 0.0
H230 H 0.67992 0.026 0.73168 0.0
H231 H 0.79342 0.05253 0.81557 0.0
H232 H 0.85497 0.04774 0.86177 0.0
H233 H 0.9026 0.01258 0.77992 0.0
H234 H 0.84113 0.01674 0.73337 0.0
H235 H 0.73547 0.1016 0.58201 0.0
H236 H 0.73392 0.09333 0.64673 0.0
H237 H 0.75239 0.01748 0.63037 0.0
H238 H 0.75518 0.02544 0.56627 0.0
H239 H 0.80018 0.05248 0.70137 0.0
H240 H 0.65146 1.00651 0.66858 0.0
H241 H 0.58621 0.01077 0.62899 0.0
H242 H 0.6066 0.08597 0.61185 0.0
H243 H 0.67111 0.08252 0.65313 0.0
C244 C 0.76348 0.97782 0.82151 0.0
C245 C 0.74229 0.98441 0.84724 0.0
C246 C 0.76287 0.99222 0.7905 0.0
C247 C 0.74121 0.0136 0.78452 0.0
C248 C 0.71912 0.01997 0.80949 0.0
C249 C 0.71978 1.00554 0.84074 0.0
C250 C 0.74091 0.0286 0.75128 0.0
C251 C 0.7061 0.03211 0.72514 0.0
C252 C 0.77514 0.03694 0.74332 0.0
C253 C 0.81254 0.03489 0.77097 0.0
C254 C 0.81695 0.04368 0.80744 0.0
C255 C 0.85183 0.04107 0.8337 0.0
C256 C 0.88266 0.02985 0.82379 0.0
C257 C 0.8787 0.02128 0.78755 0.0
C258 C 0.84384 0.02379 0.76119 0.0
C259 C 0.73942 0.08316 0.59221 0.0
C260 C 0.74489 0.06413 0.56868 0.0
C261 C 0.73804 0.07846 0.62904 0.0
C262 C 0.74119 0.05464 0.64258 0.0
C263 C 0.74856 0.03586 0.61988 0.0
C264 C 0.75051 0.04052 0.58335 0.0
C265 C 0.73925 0.04901 0.6811 0.0
C266 C 0.77385 0.04694 0.70818 0.0
C267 C 0.70469 0.04207 0.68994 0.0
C268 C 0.66681 0.04407 0.66308 0.0
C269 C 0.64213 0.02397 0.6563 0.0
C270 C 0.60504 0.0263 0.63393 0.0
C271 C 0.59232 0.0486 0.61776 0.0
C272 C 0.61661 0.06864 0.62413 0.0
C273 C 0.65353 0.0665 0.64701 0.0
H274 H 0.56368 0.05032 0.60022 0.0
H275 H 0.90963 0.0278 0.84419 0.0
H276 H 0.75817 0.06921 0.31803 0.0
H277 H 0.75711 0.04847 0.26002 0.0
H278 H 0.74221 0.97999 0.31075 0.0
H279 H 0.74454 1.00078 0.36998 0.0
H280 H 0.79003 0.97458 0.26767 0.0
H281 H 0.6668 1.00873 0.25048 0.0
H282 H 0.61831 0.04001 0.2518 0.0
H283 H 0.65958 0.08267 0.17291 0.0
H284 H 0.70884 0.05186 0.17163 0.0
H285 H 0.73072 0.92444 0.07984 0.0
H286 H 0.73203 0.93723 0.14358 0.0
H287 H 0.77522 1.00706 0.1218 0.0
H288 H 0.77501 0.99426 0.05849 0.0
H289 H 0.70662 1.00716 0.15097 0.0
H290 H 0.83392 0.97174 0.17459 0.0
H291 H 0.87909 0.93832 0.17354 0.0
H292 H 0.8227 0.89457 0.23977 0.0
H293 H 0.77683 0.92764 0.24077 0.0
C294 C 0.75457 0.04973 0.31703 0.0
C295 C 0.751 0.03668 0.34864 0.0
C296 C 0.75381 0.03787 0.28366 0.0
C297 C 0.7486 0.01271 0.28062 0.0
C298 C 0.74594 0.99945 0.31232 0.0
C299 C 0.74721 0.01134 0.34611 0.0
C300 C 0.74619 1.00063 0.24418 0.0
C301 C 0.77123 0.98142 0.24225 0.0
C302 C 0.72166 1.00948 0.21086 0.0
C303 C 0.69177 0.02802 0.21118 0.0
C304 C 0.66574 0.02485 0.2336 0.0
C305 C 0.63809 0.0425 0.23433 0.0
C306 C 0.63591 0.06333 0.21251 0.0
C307 C 0.66132 0.06652 0.18983 0.0
C308 C 0.68911 0.04896 0.18907 0.0
C309 C 0.74112 0.94238 0.08886 0.0
C310 C 0.75288 0.95832 0.06416 0.0
C311 C 0.74182 0.94964 0.12524 0.0
C312 C 0.75357 0.97311 0.13727 0.0
C313 C 0.76601 0.98888 0.11296 0.0
C314 C 0.7661 0.98147 0.07689 0.0
C315 C 0.75121 0.98175 0.17455 0.0
C316 C 0.72503 1.00021 0.17651 0.0
C317 C 0.77398 0.97183 0.20781 0.0
C318 C 0.80169 0.95205 0.20739 0.0
C319 C 0.83093 0.95491 0.18864 0.0
C320 C 0.85671 0.93606 0.18812 0.0
C321 C 0.85369 0.91431 0.20648 0.0
C322 C 0.82496 0.91141 0.22551 0.0
C323 C 0.79909 0.93021 0.22608 0.0
H324 H 0.87367 0.89973 0.20604 0.0
H325 H 0.61449 0.07699 0.21313 0.0
H326 H 0.26874 0.99783 0.12695 0.0
H327 H 0.26953 0.97383 0.18323 0.0
H328 H 0.27777 0.03956 0.24752 0.0
H329 H 0.27575 0.06356 0.19151 0.0
H330 H 0.33352 0.99547 0.27458 0.0
H331 H 0.19955 0.02253 0.23083 0.0
H332 H 0.13941 0.02457 0.18196 0.0
H333 H 0.135 0.9469 0.17688 0.0
H334 H 0.19555 0.94444 0.22531 0.0
H335 H 0.26362 0.99525 0.43923 0.0
H336 H 0.26592 1.00286 0.37488 0.0
H337 H 0.27229 0.92621 0.35584 0.0
H338 H 0.27112 0.91822 0.42078 0.0
H339 H 0.21297 0.96548 0.30041 0.0
H340 H 0.3393 0.93792 0.35342 0.0
H341 H 0.40362 0.93336 0.39457 0.0
H342 H 0.42828 1.0077 0.37608 0.0
H343 H 0.36322 0.01318 0.33667 0.0
C344 C 0.27101 1.00705 0.15321 0.0
C345 C 0.27212 0.03249 0.15506 0.0
C346 C 0.27128 0.99339 0.18514 0.0
C347 C 0.27352 1.00503 0.21926 0.0
C348 C 0.27591 0.03034 0.22131 0.0
C349 C 0.2747 0.04398 0.18938 0.0
C350 C 0.2731 0.99117 0.2532 0.0
C351 C 0.30731 0.98888 0.28051 0.0
C352 C 0.23897 0.98179 0.25977 0.0
C353 C 0.20228 0.98331 0.23128 0.0
C354 C 0.18595 1.0059 0.21902 0.0
C355 C 0.15176 1.00713 0.19146 0.0
C356 C 0.13347 0.98588 0.17622 0.0
C357 C 0.14925 0.96335 0.18864 0.0
C358 C 0.18349 0.96202 0.21614 0.0
C359 C 0.26532 0.97991 0.42146 0.0
C360 C 0.2678 0.95611 0.43545 0.0
C361 C 0.26698 0.98435 0.38478 0.0
C362 C 0.27063 0.96515 0.36118 0.0
C363 C 0.27052 0.94128 0.37406 0.0
C364 C 0.26959 0.93678 0.41108 0.0
C365 C 0.27344 0.97056 0.32284 0.0
C366 C 0.23952 0.97153 0.29459 0.0
C367 C 0.30814 0.97851 0.31532 0.0
C368 C 0.34576 0.97608 0.34261 0.0
C369 C 0.35778 0.95356 0.35916 0.0
C370 C 0.3946 0.95076 0.38198 0.0
C371 C 0.42006 0.9702 0.38787 0.0
C372 C 0.40857 0.99261 0.3714 0.0
C373 C 0.37157 0.99563 0.34912 0.0
H374 H 0.44864 0.96796 0.40533 0.0
H375 H 0.10702 0.98687 0.15486 0.0
H376 H 0.81453 0.51064 0.65597 0.0
H377 H 0.81463 0.53287 0.71344 0.0
H378 H 0.73275 0.48244 0.7377 0.0
H379 H 0.73211 0.46046 0.68075 0.0
H380 H 0.71417 0.52879 0.74985 0.0
H381 H 0.8271 0.47746 0.77848 0.0
H382 H 0.88771 0.46334 0.76607 0.0
H383 H 0.9347 0.53479 0.7873 0.0
H384 H 0.87401 0.54948 0.79904 0.0
H385 H 0.72861 0.53428 0.94287 0.0
H386 H 0.72835 0.52308 0.87905 0.0
H387 H 0.8146 0.57684 0.87766 0.0
H388 H 0.81556 0.58792 0.94173 0.0
H389 H 0.83294 0.53494 0.85057 0.0
H390 H 0.72236 0.58547 0.8285 0.0
H391 H 0.66056 0.60045 0.83687 0.0
H392 H 0.60897 0.53161 0.80193 0.0
H393 H 0.6706 0.5161 0.79386 0.0
C394 C 0.7965 0.50436 0.67354 0.0
C395 C 0.7734 0.48373 0.66377 0.0
C396 C 0.7966 0.51706 0.70633 0.0
C397 C 0.77376 0.50923 0.72987 0.0
C398 C 0.75044 0.48887 0.71988 0.0
C399 C 0.75031 0.47623 0.68732 0.0
C400 C 0.77462 0.52154 0.76565 0.0
C401 C 0.74008 0.53006 0.77197 0.0
C402 C 0.80866 0.52377 0.79406 0.0
C403 C 0.84584 0.51465 0.78912 0.0
C404 C 0.8503 0.49019 0.78033 0.0
C405 C 0.8846 0.4821 0.77329 0.0
C406 C 0.91486 0.49823 0.77547 0.0
C407 C 0.9111 0.52238 0.78529 0.0
C408 C 0.87675 0.5306 0.79215 0.0
C409 C 0.74722 0.54395 0.92891 0.0
C410 C 0.77212 0.562 0.94752 0.0
C411 C 0.74699 0.53755 0.89234 0.0
C412 C 0.77131 0.54923 0.87345 0.0
C413 C 0.79566 0.56756 0.89169 0.0
C414 C 0.79599 0.57394 0.92829 0.0
C415 C 0.77218 0.54166 0.83517 0.0
C416 C 0.80707 0.53402 0.82837 0.0
C417 C 0.73843 0.54026 0.80622 0.0
C418 C 0.70121 0.54957 0.81084 0.0
C419 C 0.69791 0.57347 0.82285 0.0
C420 C 0.66289 0.58206 0.8275 0.0
C421 C 0.63088 0.56698 0.82 0.0
C422 C 0.6338 0.54328 0.80775 0.0
C423 C 0.66876 0.53458 0.80308 0.0
H424 H 0.6038 0.57366 0.82363 0.0
H425 H 0.94136 0.49194 0.76987 0.0
H426 H 0.23047 0.59629 0.57552 0.0
H427 H 0.23468 0.58565 0.64043 0.0
H428 H 0.28794 0.51769 0.62472 0.0
H429 H 0.28501 0.52858 0.56026 0.0
H430 H 0.20096 0.55155 0.66705 0.0
H431 H 0.34312 0.49613 0.70338 0.0
H432 H 0.4069 0.49734 0.69023 0.0
H433 H 0.39465 0.57373 0.66888 0.0
H434 H 0.33104 0.57306 0.68241 0.0
H435 H 0.27194 0.4548 0.81797 0.0
H436 H 0.27379 0.47691 0.76176 0.0
H437 H 0.2289 0.54041 0.8043 0.0
H438 H 0.22635 0.51803 0.86104 0.0
H439 H 0.31455 0.51604 0.75412 0.0
H440 H 0.17995 0.57403 0.72659 0.0
H441 H 0.11688 0.5753 0.74134 0.0
H442 H 0.11555 0.49763 0.74673 0.0
H443 H 0.17841 0.49589 0.73158 0.0
C444 C 0.24367 0.57925 0.58608 0.0
C445 C 0.25741 0.56327 0.56271 0.0
C446 C 0.24594 0.57316 0.62318 0.0
C447 C 0.26184 0.55095 0.63767 0.0
C448 C 0.2763 0.53518 0.61455 0.0
C449 C 0.27449 0.54139 0.57758 0.0
C450 C 0.26104 0.54347 0.67606 0.0
C451 C 0.22603 0.54422 0.68634 0.0
C452 C 0.29362 0.53385 0.70135 0.0
C453 C 0.33214 0.53449 0.69365 0.0
C454 C 0.35411 0.51321 0.69609 0.0
C455 C 0.39022 0.5138 0.68852 0.0
C456 C 0.40477 0.53558 0.67864 0.0
C457 C 0.38329 0.55685 0.67642 0.0
C458 C 0.34718 0.55637 0.68399 0.0
C459 C 0.26231 0.47346 0.81549 0.0
C460 C 0.24918 0.48469 0.84414 0.0
C461 C 0.26349 0.4861 0.78328 0.0
C462 C 0.25161 0.51033 0.77878 0.0
C463 C 0.23795 0.52165 0.80705 0.0
C464 C 0.2365 0.50886 0.83943 0.0
C465 C 0.25425 0.52334 0.7444 0.0
C466 C 0.28968 0.52371 0.73495 0.0
C467 C 0.2222 0.53427 0.72013 0.0
C468 C 0.18409 0.53488 0.72851 0.0
C469 C 0.16613 0.55723 0.73084 0.0
C470 C 0.13045 0.55803 0.73928 0.0
C471 C 0.11239 0.53659 0.74527 0.0
C472 C 0.12971 0.51425 0.74237 0.0
C473 C 0.1654 0.51334 0.73389 0.0
H474 H 0.08496 0.53737 0.75213 0.0
H475 H 0.43272 0.53599 0.67275 0.0
H476 H 0.20366 0.51017 0.35366 0.0
H477 H 0.19576 0.49018 0.29287 0.0
H478 H 0.27019 0.54307 0.26173 0.0
H479 H 0.27776 0.5631 0.32129 0.0
H480 H 0.20732 0.53543 0.20629 0.0
H481 H 0.2995 0.48622 0.29565 0.0
H482 H 0.31725 0.45989 0.35103 0.0
H483 H 0.23094 0.4088 0.29979 0.0
H484 H 0.21159 0.43522 0.24468 0.0
H485 H 0.27983 0.49067 0.06076 0.0
H486 H 0.27536 0.50385 0.1226 0.0
H487 H 0.20202 0.44328 0.12928 0.0
H488 H 0.20643 0.42986 0.06758 0.0
H489 H 0.25265 0.45145 0.19579 0.0
H490 H 0.1635 0.49634 0.10567 0.0
H491 H 0.14029 0.52179 0.05011 0.0
H492 H 0.21323 0.57977 0.10172 0.0
H493 H 0.23817 0.55435 0.15708 0.0
C494 C 0.21825 0.5175 0.33377 0.0
C495 C 0.24156 0.53814 0.34252 0.0
C496 C 0.21375 0.50606 0.29911 0.0
C497 C 0.23259 0.51507 0.27285 0.0
C498 C 0.25531 0.53582 0.28146 0.0
C499 C 0.25976 0.54719 0.31577 0.0
C500 C 0.22974 0.50312 0.23637 0.0
C501 C 0.21744 0.51711 0.204 0.0
C502 C 0.24143 0.47886 0.23327 0.0
C503 C 0.25377 0.46285 0.2662 0.0
C504 C 0.28407 0.46948 0.29629 0.0
C505 C 0.29445 0.45453 0.32763 0.0
C506 C 0.27533 0.43269 0.32887 0.0
C507 C 0.24571 0.42574 0.29881 0.0
C508 C 0.23493 0.44073 0.26757 0.0
C509 C 0.26319 0.47993 0.07556 0.0
C510 C 0.2432 0.45933 0.05901 0.0
C511 C 0.26049 0.48757 0.11083 0.0
C512 C 0.2378 0.47477 0.13025 0.0
C513 C 0.21949 0.45349 0.11471 0.0
C514 C 0.22202 0.4459 0.07937 0.0
C515 C 0.232 0.48422 0.16601 0.0
C516 C 0.2423 0.46971 0.19805 0.0
C517 C 0.21791 0.50791 0.16881 0.0
C518 C 0.20302 0.5233 0.13547 0.0
C519 C 0.17494 0.51441 0.10507 0.0
C520 C 0.16139 0.52886 0.07362 0.0
C521 C 0.17511 0.5524 0.07245 0.0
C522 C 0.2026 0.56152 0.10267 0.0
C523 C 0.21655 0.54707 0.13407 0.0
H524 H 0.16447 0.56357 0.0481 0.0
H525 H 0.28348 0.42114 0.35313 0.0
H526 H 0.80887 0.50479 0.15214 0.0
H527 H 0.80979 0.48179 0.20922 0.0
H528 H 0.72744 0.53132 0.23528 0.0
H529 H 0.72602 0.554 0.17889 0.0
H530 H 0.83057 0.49667 0.28109 0.0
H531 H 0.66927 0.50559 0.27582 0.0
H532 H 0.60725 0.5039 0.22947 0.0
H533 H 0.65652 0.4583 0.1595 0.0
H534 H 0.71893 0.46012 0.20503 0.0
H535 H 0.7362 0.4857 0.4456 0.0
H536 H 0.73239 0.49549 0.38045 0.0
H537 H 0.81357 0.43882 0.3759 0.0
H538 H 0.81808 0.42914 0.44118 0.0
H539 H 0.71221 0.47027 0.31543 0.0
H540 H 0.87119 0.45806 0.32088 0.0
H541 H 0.93313 0.45764 0.36741 0.0
H542 H 0.88903 0.50715 0.43612 0.0
H543 H 0.82697 0.50811 0.38978 0.0
C544 C 0.79074 0.5106 0.16992 0.0
C545 C 0.76735 0.53122 0.16085 0.0
C546 C 0.79131 0.49747 0.20249 0.0
C547 C 0.76819 0.5046 0.2262 0.0
C548 C 0.74485 0.52511 0.21704 0.0
C549 C 0.74435 0.53821 0.1848 0.0
C550 C 0.76973 0.49181 0.2618 0.0
C551 C 0.80483 0.49035 0.28828 0.0
C552 C 0.7361 0.48392 0.27147 0.0
C553 C 0.69877 0.48311 0.24373 0.0
C554 C 0.66685 0.49525 0.25049 0.0
C555 C 0.63168 0.49437 0.22426 0.0
C556 C 0.62801 0.48116 0.19139 0.0
C557 C 0.6595 0.4688 0.1847 0.0
C558 C 0.69482 0.46986 0.21061 0.0
C559 C 0.7531 0.4752 0.43073 0.0
C560 C 0.7778 0.45682 0.44882 0.0
C561 C 0.75076 0.48077 0.39342 0.0
C562 C 0.77308 0.46811 0.37345 0.0
C563 C 0.79656 0.44909 0.39094 0.0
C564 C 0.79903 0.44357 0.42828 0.0
C565 C 0.77291 0.4756 0.33489 0.0
C566 C 0.73804 0.47616 0.30798 0.0
C567 C 0.80681 0.48251 0.32476 0.0
C568 C 0.84437 0.4829 0.3521 0.0
C569 C 0.87481 0.46896 0.34581 0.0
C570 C 0.90989 0.46862 0.37214 0.0
C571 C 0.91486 0.48227 0.40472 0.0
C572 C 0.88499 0.49652 0.4109 0.0
C573 C 0.84987 0.49696 0.38464 0.0
H574 H 0.94179 0.48177 0.42519 0.0
H575 H 0.60074 0.48043 0.17118 0.0
H576 H 0.41823 0.06643 0.09386 0.0
H577 H 0.47784 0.05198 0.08013 0.0
H578 H 0.41336 1.00315 0.99763 0.0
H579 H 0.35416 0.01685 0.01156 0.0
H580 H 0.51249 1.004 0.07439 0.0
H581 H 0.44213 0.01936 0.917 0.0
H582 H 0.39281 0.04559 0.87804 0.0
H583 H 0.41149 0.09902 0.96479 0.0
H584 H 0.46165 0.07348 1.0038 0.0
H585 H 0.60533 0.93935 0.96099 0.0
H586 H 0.55244 0.95825 0.98099 0.0
H587 H 0.59874 0.02896 0.96926 0.0
H588 H 0.65229 0.01023 0.94974 0.0
H589 H 0.51599 0.02456 0.94459 0.0
H590 H 0.62052 0.01078 0.04839 0.0
H591 H 0.67286 0.9876 0.08887 0.0
H592 H 0.59185 0.93735 0.11379 0.0
H593 H 0.53902 0.95984 0.0725 0.0
C594 C 0.41699 0.05221 0.07344 0.0
C595 C 0.38168 0.04298 0.05338 0.0
C596 C 0.45088 0.04402 0.06574 0.0
C597 C 0.44952 0.027 0.03741 0.0
C598 C 0.41465 0.01651 0.01934 0.0
C599 C 0.38093 0.02431 0.02745 0.0
C600 C 0.4836 0.02187 0.02368 0.0
C601 C 0.51348 1.00853 0.04613 0.0
C602 C 0.48505 0.02862 0.9872 0.0
C603 C 0.45535 0.04432 0.96353 0.0
C604 C 0.43587 0.03676 0.92769 0.0
C605 C 0.40781 0.05154 0.90556 0.0
C606 C 0.39896 0.07392 0.919 0.0
C607 C 0.4183 0.08165 0.95447 0.0
C608 C 0.44654 0.06702 0.9766 0.0
C609 C 0.60381 0.95894 0.96175 0.0
C610 C 0.63316 0.97336 0.95435 0.0
C611 C 0.57375 0.96965 0.97337 0.0
C612 C 0.57241 0.99486 0.97718 0.0
C613 C 0.59973 1.00943 0.9667 0.0
C614 C 0.63016 0.99872 0.95559 0.0
C615 C 0.54398 1.0057 0.99469 0.0
C616 C 0.5152 0.02019 0.97296 0.0
C617 C 0.5441 1.00054 0.03214 0.0
C618 C 0.57579 0.98688 0.057 0.0
C619 C 0.61386 0.99462 0.06212 0.0
C620 C 0.64364 0.98163 0.0853 0.0
C621 C 0.63569 0.96103 0.10394 0.0
C622 C 0.59796 0.95332 0.09932 0.0
C623 C 0.56808 0.96617 0.07599 0.0
H624 H 0.65873 0.95106 0.12203 0.0
H625 H 0.37705 0.08527 0.90199 0.0
H626 H 0.36094 0.02017 0.54573 0.0
H627 H 0.4202 0.03568 0.53269 0.0
H628 H 0.47139 0.96479 0.55458 0.0
H629 H 0.41315 0.94964 0.56845 0.0
H630 H 0.52549 0.99887 0.56847 0.0
H631 H 0.41204 0.97994 0.47201 0.0
H632 H 0.34455 0.98581 0.44021 0.0
H633 H 0.36785 0.05904 0.41349 0.0
H634 H 0.43567 0.05373 0.44612 0.0
H635 H 0.65511 0.9995 0.45881 0.0
H636 H 0.59577 0.98458 0.47231 0.0
H637 H 0.54439 0.05507 0.44627 0.0
H638 H 0.60259 0.06959 0.43158 0.0
H639 H 0.4903 0.02204 0.43486 0.0
H640 H 0.60275 0.04166 0.53151 0.0
H641 H 0.67019 0.03665 0.5644 0.0
H642 H 0.64873 0.96305 0.59084 0.0
H643 H 0.581 0.96756 0.5574 0.0
C644 C 0.38557 1.00834 0.54954 0.0
C645 C 0.38251 0.98367 0.55729 0.0
C646 C 0.41929 0.01712 0.54188 0.0
C647 C 0.44967 1.00113 0.54146 0.0
C648 C 0.44822 0.97738 0.55428 0.0
C649 C 0.41484 0.9687 0.56204 0.0
C650 C 0.4792 1.00715 0.52122 0.0
C651 C 0.5178 1.00388 0.53926 0.0
C652 C 0.46917 0.01368 0.48304 0.0
C653 C 0.4288 0.01656 0.46206 0.0
C654 C 0.40271 0.99739 0.45976 0.0
C655 C 0.36432 1.00065 0.44165 0.0
C656 C 0.35171 0.0229 0.42515 0.0
C657 C 0.37761 0.04187 0.42649 0.0
C658 C 0.41604 0.03875 0.44484 0.0
C659 C 0.63039 0.01131 0.45406 0.0
C660 C 0.6334 0.03574 0.44488 0.0
C661 C 0.59665 1.0029 0.46211 0.0
C662 C 0.56622 0.01904 0.4616 0.0
C663 C 0.56758 0.04241 0.4473 0.0
C664 C 0.60094 0.0507 0.43902 0.0
C665 C 0.5366 0.01362 0.48206 0.0
C666 C 0.498 0.01704 0.46407 0.0
C667 C 0.54662 1.00731 0.52033 0.0
C668 C 0.58697 1.00484 0.54152 0.0
C669 C 0.61249 0.02433 0.54402 0.0
C670 C 0.65083 0.02156 0.5627 0.0
C671 C 0.66393 0.99943 0.57938 0.0
C672 C 0.63859 0.98012 0.57769 0.0
C673 C 0.60022 0.98278 0.55888 0.0
H674 H 0.69359 0.99724 0.59386 0.0
H675 H 0.32199 0.02544 0.41108 0.0
H676 H 0.86417 0.50564 0.05276 0.0
H677 H 0.91876 0.48901 0.03248 0.0
H678 H 0.96865 0.56028 0.03829 0.0
H679 H 0.91497 0.5769 0.05921 0.0
H680 H 0.93744 0.50096 0.96873 0.0
H681 H 0.06804 0.55475 0.05664 0.0
H682 H 0.09188 0.57085 0.12009 0.0
H683 H 0.02168 0.5204 0.1614 0.0
H684 H 0.99813 0.50352 0.09841 0.0
H685 H 0.15079 0.51073 0.95121 0.0
H686 H 0.09374 0.52648 0.96762 0.0
H687 H 0.04419 0.45495 0.95517 0.0
H688 H 0.10033 0.43925 0.9377 0.0
H689 H 0.07469 0.51293 0.02867 0.0
H690 H 0.95148 0.45625 0.94235 0.0
H691 H 0.93211 0.43807 0.87969 0.0
H692 H 0.98893 0.49516 0.83582 0.0
H693 H 1.00908 0.51348 0.89821 0.0
C694 C 0.88728 0.51763 0.05065 0.0
C695 C 0.88533 0.54255 0.05774 0.0
C696 C 0.91828 0.50814 0.03887 0.0
C697 C 0.94775 0.52342 0.03407 0.0
C698 C 0.94653 0.5481 0.04246 0.0
C699 C 0.91579 0.55756 0.05449 0.0
C700 C 0.97823 0.51412 0.01742 0.0
C701 C 0.96751 0.5033 0.98207 0.0
C702 C 0.01738 0.5178 0.03444 0.0
C703 C 0.03087 0.52806 0.07254 0.0
C704 C 0.05771 0.54702 0.07924 0.0
C705 C 0.07131 0.55623 0.11518 0.0
C706 C 0.05828 0.54666 0.14475 0.0
C707 C 0.03168 0.52783 0.13844 0.0
C708 C 0.01815 0.51845 0.10258 0.0
C709 C 0.12727 0.4985 0.95091 0.0
C710 C 0.13031 0.4737 0.94365 0.0
C711 C 0.09475 0.50751 0.96038 0.0
C712 C 0.06478 0.49188 0.96274 0.0
C713 C 0.06668 0.46743 0.95305 0.0
C714 C 0.099 0.45845 0.94327 0.0
C715 C 0.03401 0.5004 0.97972 0.0
C716 C 0.04465 0.51088 0.01524 0.0
C717 C 0.99493 0.49655 0.96286 0.0
C718 C 0.98201 0.4861 0.925 0.0
C719 C 0.95974 0.46495 0.91928 0.0
C720 C 0.94882 0.45454 0.88386 0.0
C721 C 0.95967 0.4653 0.85387 0.0
C722 C 0.981 0.48666 0.85915 0.0
C723 C 0.99231 0.49701 0.89456 0.0
H724 H 0.9515 0.45709 0.82655 0.0
H725 H 0.06871 0.55389 0.17253 0.0
H726 H 0.15249 0.51092 0.45397 0.0
H727 H 0.10122 0.49431 0.47907 0.0
H728 H 0.06174 0.56661 0.49363 0.0
H729 H 0.11282 0.5834 0.46845 0.0
H730 H 0.06843 0.53937 0.55611 0.0
H731 H 1.00813 0.5318 0.42611 0.0
H732 H 1.00381 0.5205 0.36078 0.0
H733 H 0.0236 0.44594 0.39289 0.0
H734 H 0.02845 0.4569 0.45852 0.0
H735 H 0.87626 0.50909 0.56532 0.0
H736 H 0.93546 0.52518 0.55369 0.0
H737 H 0.98239 0.45302 0.55973 0.0
H738 H 0.92385 0.43677 0.57211 0.0
H739 H 0.97472 0.47882 0.49006 0.0
H740 H 0.02727 0.48744 0.62053 0.0
H741 H 0.02898 0.50015 0.68471 0.0
H742 H 0.02068 0.57468 0.6506 0.0
H743 H 0.01847 0.56241 0.58605 0.0
C744 C 0.13236 0.52325 0.46174 0.0
C745 C 0.13653 0.54842 0.45903 0.0
C746 C 0.10319 0.51376 0.47618 0.0
C747 C 0.07774 0.52928 0.48815 0.0
C748 C 0.08116 0.55438 0.48453 0.0
C749 C 0.11011 0.5639 0.46978 0.0
C750 C 0.04811 0.51925 0.50524 0.0
C751 C 0.04753 0.5264 0.54151 0.0
C752 C 0.02163 0.50192 0.48648 0.0
C753 C 0.01909 0.4952 0.4472 0.0
C754 C 0.01194 0.51304 0.41925 0.0
C755 C 1.00929 0.50669 0.38218 0.0
C756 C 0.01357 0.48252 0.37271 0.0
C757 C 0.02043 0.46466 0.40029 0.0
C758 C 0.02309 0.47092 0.43742 0.0
C759 C 0.89957 0.49672 0.56519 0.0
C760 C 0.89514 0.47163 0.56904 0.0
C761 C 0.93337 0.50595 0.55869 0.0
C762 C 0.963 0.4902 0.55569 0.0
C763 C 0.95971 0.46538 0.56199 0.0
C764 C 0.92621 0.45618 0.56906 0.0
C765 C 0.99464 0.49917 0.54064 0.0
C766 C 0.9956 0.49179 0.50465 0.0
C767 C 0.02106 0.51649 0.55955 0.0
C768 C 0.02221 0.52398 0.59831 0.0
C769 C 0.02539 0.50653 0.6266 0.0
C770 C 0.02657 0.51366 0.66309 0.0
C771 C 0.02471 0.53819 0.67168 0.0
C772 C 0.02198 0.55567 0.64387 0.0
C773 C 0.02083 0.54864 0.60733 0.0
H774 H 0.02543 0.54368 0.6999 0.0
H775 H 0.01143 0.47762 0.34398 0.0
H776 H 0.12471 0.08943 0.01443 0.0
H777 H 0.06066 0.07062 0.99793 0.0
H778 H 0.10685 1.00612 0.05811 0.0
H779 H 0.16976 0.02456 0.07457 0.0
H780 H 0.06657 0.99517 0.98822 0.0
H781 H 0.05021 0.04258 0.09215 0.0
H782 H 0.04948 0.08002 0.12828 0.0
H783 H 0.96319 0.11013 0.03859 0.0
H784 H 0.96379 0.07296 1.00169 0.0
H785 H 0.89074 0.93122 0.98871 0.0
H786 H 0.95439 0.95048 0.0055 0.0
H787 H 0.90664 0.0155 0.94782 0.0
H788 H 0.8441 0.99667 0.93123 0.0
H789 H 0.94772 0.02635 0.01625 0.0
H790 H 0.96385 0.97917 0.91223 0.0
H791 H 0.96461 0.94193 0.87566 0.0
H792 H 0.05128 0.9116 0.96481 0.0
H793 H 0.05065 0.94857 1.00214 0.0
C794 C 0.12083 0.07149 0.02472 0.0
C795 C 0.15232 0.05842 0.04544 0.0
C796 C 0.08436 0.06067 0.01514 0.0
C797 C 0.07905 0.03675 0.02634 0.0
C798 C 0.11021 0.02436 0.0486 0.0
C799 C 0.14621 0.03504 0.05808 0.0
C800 C 0.04175 0.0239 0.01408 0.0
C801 C 0.04064 1.00189 0.99468 0.0
C802 C 1.00777 0.03276 0.02191 0.0
C803 C 1.00737 0.05512 0.04399 0.0
C804 C 0.03134 0.05728 0.07999 0.0
C805 C 0.03089 0.07842 0.10063 0.0
C806 C 1.0064 0.09747 0.08569 0.0
C807 C 0.98221 0.09538 0.05009 0.0
C808 C 0.98257 0.07427 0.02931 0.0
C809 C 0.89415 0.94942 0.97912 0.0
C810 C 0.86229 0.96246 0.95905 0.0
C811 C 0.93042 0.96048 0.98883 0.0
C812 C 0.93525 0.98463 0.97831 0.0
C813 C 0.90369 0.99708 0.95682 0.0
C814 C 0.86786 0.98617 0.94727 0.0
C815 C 0.97251 0.99758 0.99039 0.0
C816 C 0.97362 0.01962 0.00976 0.0
C817 C 1.00649 0.98876 0.98246 0.0
C818 C 1.00688 0.96651 0.96015 0.0
C819 C 0.98281 0.96447 0.92418 0.0
C820 C 0.98328 0.94343 0.90328 0.0
C821 C 1.00789 0.92438 0.91795 0.0
C822 C 0.03217 0.92636 0.95352 0.0
C823 C 0.03179 0.94735 0.97455 0.0
H824 H 1.00822 0.90811 0.90172 0.0
H825 H 1.00608 0.11383 0.10172 0.0
H826 H 0.87707 0.0713 0.42555 0.0
H827 H 0.94114 0.053 0.44005 0.0
H828 H 0.92031 0.02165 0.53989 0.0
H829 H 0.85721 0.04023 0.5262 0.0
H830 H 0.99153 0.0354 0.55401 0.0
H831 H 0.90964 0.98913 0.45631 0.0
H832 H 0.86539 0.98325 0.39473 0.0
H833 H 0.9516 1.00789 0.34136 0.0
H834 H 0.99619 0.01427 0.40267 0.0
H835 H 0.14279 0.94819 0.58603 0.0
H836 H 0.07833 0.96591 0.57302 0.0
H837 H 0.09488 0.99635 0.47087 0.0
H838 H 0.15805 0.97818 0.48291 0.0
H839 H 0.02513 0.98252 0.45849 0.0
H840 H 0.10675 0.02941 0.55631 0.0
H841 H 0.1505 0.03603 0.61798 0.0
H842 H 0.06479 0.01032 0.67115 0.0
H843 H 0.0207 1.00323 0.60978 0.0
C844 C 0.88644 0.06094 0.45098 0.0
C845 C 0.86163 0.0572 0.4745 0.0
C846 C 0.92302 0.05021 0.45908 0.0
C847 C 0.93557 0.03539 0.49077 0.0
C848 C 0.91156 0.03279 0.51519 0.0
C849 C 0.87523 0.04347 0.50719 0.0
C850 C 0.97282 0.02177 0.49805 0.0
C851 C 0.99863 0.02366 0.53318 0.0
C852 C 0.9827 1.00655 0.47096 0.0
C853 C 0.95612 1.0024 0.43408 0.0
C854 C 0.91908 0.99343 0.43145 0.0
C855 C 0.89395 0.99 0.3966 0.0
C856 C 0.90565 0.99525 0.36416 0.0
C857 C 0.94256 1.00386 0.36651 0.0
C858 C 0.96778 1.00738 0.4013 0.0
C859 C 0.13238 0.95824 0.56045 0.0
C860 C 0.15599 0.96178 0.53572 0.0
C861 C 0.09558 0.96866 0.5532 0.0
C862 C 0.08168 0.98306 0.52124 0.0
C863 C 0.1046 0.98553 0.49579 0.0
C864 C 0.14103 0.97509 0.50286 0.0
C865 C 0.04405 0.99626 0.51441 0.0
C866 C 0.01809 0.99426 0.47936 0.0
C867 C 0.03405 0.01138 0.54157 0.0
C868 C 0.06056 0.0156 0.57846 0.0
C869 C 0.09734 0.02501 0.58115 0.0
C870 C 0.12218 0.02886 0.61604 0.0
C871 C 0.1104 0.02361 0.64843 0.0
C872 C 0.07384 0.01439 0.64602 0.0
C873 C 0.04892 0.01046 0.6112 0.0
H874 H 0.12952 0.0268 0.6754 0.0
H875 H 0.88614 0.99259 0.33721 0.0
H876 H 0.3497 0.48807 0.00873 0.0
H877 H 0.41251 0.50699 0.02475 0.0
H878 H 0.45186 0.45725 0.95234 0.0
H879 H 0.38844 0.4378 0.93647 0.0
H880 H 0.5082 0.46689 0.01557 0.0
H881 H 0.4229 0.51414 0.92268 0.0
H882 H 0.36341 0.53635 0.89503 0.0
H883 H 0.38601 0.58554 0.9876 0.0
H884 H 0.44537 0.56338 0.01611 0.0
H885 H 0.66639 0.53408 0.99655 0.0
H886 H 0.60293 0.51599 0.98046 0.0
H887 H 0.56685 0.56405 0.05714 0.0
H888 H 0.63096 0.58259 0.07324 0.0
H889 H 0.50892 0.55544 0.99221 0.0
H890 H 0.59648 0.50893 0.0835 0.0
H891 H 0.65748 0.48784 0.10855 0.0
H892 H 0.63069 0.4367 0.01866 0.0
H893 H 0.57029 0.45824 0.99194 0.0
C894 C 0.37186 0.48082 0.9966 0.0
C895 C 0.3639 0.46149 0.97109 0.0
C896 C 0.4078 0.49181 0.00565 0.0
C897 C 0.43684 0.48408 0.98906 0.0
C898 C 0.42988 0.46374 0.96532 0.0
C899 C 0.39369 0.45252 0.95639 0.0
C900 C 0.47347 0.49806 0.99541 0.0
C901 C 0.50834 0.48616 0.00995 0.0
C902 C 0.47387 0.52342 0.98897 0.0
C903 C 0.43842 0.53696 0.97169 0.0
C904 C 0.41506 0.5296 0.93726 0.0
C905 C 0.38138 0.54219 0.92142 0.0
C906 C 0.3709 0.56231 0.93959 0.0
C907 C 0.39415 0.56993 0.97358 0.0
C908 C 0.42783 0.55737 0.98958 0.0
C909 C 0.64477 0.5412 0.00952 0.0
C910 C 0.65386 0.5597 0.03639 0.0
C911 C 0.60846 0.53072 1.00038 0.0
C912 C 0.58021 0.53818 0.01818 0.0
C913 C 0.58822 0.55783 0.04318 0.0
C914 C 0.6248 0.56853 0.05225 0.0
C915 C 0.5436 0.52425 0.01227 0.0
C916 C 0.50876 0.53616 0.99786 0.0
C917 C 0.54326 0.4989 0.01877 0.0
C918 C 0.57894 0.48537 0.03549 0.0
C919 C 0.60368 0.49331 0.06886 0.0
C920 C 0.63819 0.48127 0.08337 0.0
C921 C 0.64789 0.46086 0.06534 0.0
C922 C 0.62313 0.45251 0.03263 0.0
C923 C 0.58881 0.46469 0.01768 0.0
H924 H 0.67458 0.45152 0.0767 0.0
H925 H 0.34481 0.57203 0.92728 0.0
H926 H 0.67845 0.49809 0.5175 0.0
H927 H 0.61544 0.51639 0.5019 0.0
H928 H 0.56727 0.45126 0.53537 0.0
H929 H 0.63145 0.43254 0.55206 0.0
H930 H 0.52348 0.47377 0.46596 0.0
H931 H 0.57948 0.49562 0.59298 0.0
H932 H 0.63043 0.51128 0.64462 0.0
H933 H 0.62504 0.58016 0.58977 0.0
H934 H 0.57449 0.56478 0.53745 0.0
H935 H 0.34885 0.52154 0.48252 0.0
H936 H 0.41221 0.50397 0.49653 0.0
H937 H 0.45851 0.57117 0.46792 0.0
H938 H 0.39378 0.58924 0.45284 0.0
H939 H 0.50389 0.54828 0.53415 0.0
H940 H 0.4501 0.52815 0.40804 0.0
H941 H 0.40303 0.51328 0.35268 0.0
H942 H 0.40658 0.44272 0.4021 0.0
H943 H 0.4533 0.45727 0.4581 0.0
C944 C 0.65465 0.4874 0.52161 0.0
C945 C 0.66041 0.4638 0.53663 0.0
C946 C 0.61847 0.49804 0.5126 0.0
C947 C 0.58662 0.48546 0.51803 0.0
C948 C 0.59154 0.46142 0.5312 0.0
C949 C 0.6282 0.45068 0.54061 0.0
C950 C 0.54874 0.49802 0.51051 0.0
C951 C 0.51894 0.48977 0.48135 0.0
C952 C 0.5433 0.51958 0.52948 0.0
C953 C 0.57341 0.52897 0.56111 0.0
C954 C 0.58937 0.51405 0.59177 0.0
C955 C 0.61815 0.52288 0.62119 0.0
C956 C 0.63102 0.54668 0.62044 0.0
C957 C 0.61507 0.56171 0.5903 0.0
C958 C 0.58632 0.55295 0.56076 0.0
C959 C 0.37223 0.53285 0.47903 0.0
C960 C 0.36575 0.55689 0.46592 0.0
C961 C 0.40868 0.52261 0.48713 0.0
C962 C 0.44018 0.536 0.48272 0.0
C963 C 0.43453 0.56039 0.47129 0.0
C964 C 0.39755 0.57073 0.46274 0.0
C965 C 0.47843 0.52389 0.48978 0.0
C966 C 0.50833 0.53224 0.51882 0.0
C967 C 0.48414 0.50255 0.47043 0.0
C968 C 0.45499 0.49387 0.43744 0.0
C969 C 0.44048 0.50955 0.40735 0.0
C970 C 0.41396 0.50116 0.3758 0.0
C971 C 0.40188 0.47708 0.37387 0.0
C972 C 0.41602 0.46137 0.40364 0.0
C973 C 0.44254 0.46968 0.4353 0.0
H974 H 0.38177 0.47056 0.34918 0.0
H975 H 0.65331 0.55348 0.64325 0.0
H976 H 0.37793 0.14685 0.12259 0.0
H977 H 0.4394 0.15037 0.16834 0.0
H978 H 0.41347 0.086 0.22365 0.0
H979 H 0.35109 0.08359 0.17968 0.0
H980 H 0.44808 0.11319 0.27338 0.0
H981 H 0.47456 0.09055 0.15598 0.0
H982 H 0.47372 0.0957 0.08956 0.0
H983 H 0.53599 0.1622 0.11432 0.0
H984 H 0.53639 0.15788 0.1807 0.0
H985 H 0.6276 0.07263 0.3673 0.0
H986 H 0.56948 0.07716 0.31806 0.0
H987 H 0.60429 0.14905 0.29501 0.0
H988 H 0.66378 0.14427 0.3445 0.0
H989 H 0.56693 0.12301 0.23001 0.0
H990 H 0.54296 0.14256 0.34935 0.0
H991 H 0.54566 0.13474 0.41551 0.0
H992 H 0.4803 0.06969 0.38584 0.0
H993 H 0.47762 0.07696 0.3195 0.0
C994 C 0.38516 0.13374 0.14497 0.0
C995 C 0.35955 0.11503 0.14763 0.0
C996 C 0.42061 0.13554 0.17089 0.0
C997 C 0.432 0.11807 0.19915 0.0
C998 C 0.4058 0.09977 0.20229 0.0
C999 C 0.36994 0.09841 0.17712 0.0
C1000 C 0.471 0.11848 0.22534 0.0
C1001 C 0.47392 0.11512 0.26358 0.0
C1002 C 0.50521 0.12159 0.21321 0.0
C1003 C 0.50513 0.12403 0.17329 0.0
C1004 C 0.48785 0.10636 0.14724 0.0
C1005 C 0.48747 0.10911 0.10962 0.0
C1006 C 0.50478 0.12921 0.09777 0.0
C1007 C 0.52253 0.14665 0.12352 0.0
C1008 C 0.52279 0.14409 0.16114 0.0
C1009 C 0.6232 0.08933 0.35144 0.0
C1010 C 0.64998 0.10824 0.36005 0.0
C1011 C 0.58986 0.09191 0.32332 0.0
C1012 C 0.5819 0.11368 0.30342 0.0
C1013 C 0.60967 0.13215 0.31025 0.0
C1014 C 0.64364 0.12943 0.3384 0.0
C1015 C 0.54355 0.11721 0.27742 0.0
C1016 C 0.54086 0.1213 0.23948 0.0
C1017 C 0.50948 0.11434 0.28961 0.0
C1018 C 0.51022 0.11028 0.32944 0.0
C1019 C 0.52926 0.12656 0.35693 0.0
C1020 C 0.53079 0.12222 0.39446 0.0
C1021 C 0.51315 0.10175 0.40485 0.0
C1022 C 0.49389 0.08557 0.37772 0.0
C1023 C 0.4923 0.08981 0.34015 0.0
H1024 H 0.51439 0.09843 0.43392 0.0
H1025 H 0.50447 0.13127 0.06863 0.0
H1026 H 0.68173 0.9066 0.81439 0.0
H1027 H 0.62101 0.90396 0.76742 0.0
H1028 H 0.56136 0.89408 0.85416 0.0
H1029 H 0.62195 0.89554 0.90091 0.0
H1030 H 0.52806 0.86776 0.79923 0.0
H1031 H 0.56922 0.95048 0.80937 0.0
H1032 H 0.61341 0.98444 0.80889 0.0
H1033 H 0.6105 0.97004 0.69431 0.0
H1034 H 0.56695 0.93562 0.69431 0.0
H1035 H 0.34356 0.90535 0.68307 0.0
H1036 H 0.40258 0.90118 0.73286 0.0
H1037 H 0.46916 0.90091 0.65068 0.0
H1038 H 0.41115 0.90489 0.60143 0.0
H1039 H 0.49706 0.93329 0.70512 0.0
H1040 H 0.45682 0.8496 0.69691 0.0
H1041 H 0.41192 0.81621 0.69843 0.0
H1042 H 0.41107 0.83458 0.8109 0.0
H1043 H 0.4556 0.86831 0.80986 0.0
C1044 C 0.65576 0.90343 0.8234 0.0
C1045 C 0.65688 0.90126 0.8615 0.0
C1046 C 0.62089 0.90218 0.79651 0.0
C1047 C 0.58617 0.89943 0.80709 0.0
C1048 C 0.58749 0.89629 0.84504 0.0
C1049 C 0.62235 0.8971 0.87185 0.0
C1050 C 0.54847 0.90053 0.77899 0.0
C1051 C 0.52121 0.8823 0.77899 0.0
C1052 C 0.53923 0.91936 0.75217 0.0
C1053 C 0.5651 0.94027 0.75198 0.0
C1054 C 0.57821 0.95442 0.78414 0.0
C1055 C 0.60316 0.97376 0.78396 0.0
C1056 C 0.61486 0.97934 0.75163 0.0
C1057 C 0.60151 0.96564 0.71937 0.0
C1058 C 0.5767 0.94621 0.71945 0.0
C1059 C 0.37072 0.90386 0.67566 0.0
C1060 C 0.37245 0.90555 0.63818 0.0
C1061 C 0.40449 0.9016 0.70414 0.0
C1062 C 0.4405 0.90092 0.69559 0.0
C1063 C 0.44193 0.90165 0.65814 0.0
C1064 C 0.40851 0.90384 0.62991 0.0
C1065 C 0.47705 0.9004 0.72518 0.0
C1066 C 0.50399 0.91882 0.72549 0.0
C1067 C 0.48581 0.88195 0.75247 0.0
C1068 C 0.4592 0.86163 0.75316 0.0
C1069 C 0.44681 0.84664 0.72185 0.0
C1070 C 0.42148 0.82763 0.72265 0.0
C1071 C 0.40856 0.82332 0.7547 0.0
C1072 C 0.42105 0.83797 0.78607 0.0
C1073 C 0.44635 0.85702 0.7854 0.0
H1074 H 0.38895 0.8086 0.75527 0.0
H1075 H 0.63418 0.9943 0.75156 0.0
H1076 H 0.88166 0.64241 0.12912 0.0
H1077 H 0.94349 0.64487 0.17411 0.0
H1078 H 0.91329 0.58349 0.23317 0.0
H1079 H 0.85051 0.58191 0.18927 0.0
H1080 H 0.95234 0.60918 0.28168 0.0
H1081 H 0.97958 0.579 0.17203 0.0
H1082 H 0.98111 0.57524 0.10631 0.0
H1083 H 0.03395 0.64507 0.11014 0.0
H1084 H 0.03343 0.64908 0.17646 0.0
H1085 H 0.17525 0.59171 0.3194 0.0
H1086 H 0.11221 0.5917 0.2762 0.0
H1087 H 0.07133 0.64176 0.3473 0.0
H1088 H 0.134 0.6411 0.39129 0.0
H1089 H 0.06825 0.61965 0.23374 0.0
H1090 H 0.97985 0.63391 0.34522 0.0
H1091 H 0.98186 0.62149 0.40971 0.0
H1092 H 0.0534 0.56096 0.39908 0.0
H1093 H 0.05192 0.57307 0.33478 0.0
C1094 C 0.88794 0.6297 0.15209 0.0
C1095 C 0.86098 0.61204 0.15564 0.0
C1096 C 0.92366 0.63089 0.17763 0.0
C1097 C 0.93398 0.61397 0.2068 0.0
C1098 C 0.90647 0.59682 0.21109 0.0
C1099 C 0.87036 0.59596 0.18598 0.0
C1100 C 0.97337 0.61405 0.23245 0.0
C1101 C 0.97756 0.61159 0.27104 0.0
C1102 C 1.00693 0.61614 0.21908 0.0
C1103 C 1.00587 0.6145 0.17895 0.0
C1104 C 0.99103 0.59371 0.15872 0.0
C1105 C 0.99176 0.59152 0.12136 0.0
C1106 C 1.00708 0.61003 0.10379 0.0
C1107 C 0.02192 0.63078 0.12371 0.0
C1108 C 0.02156 0.63299 0.16125 0.0
C1109 C 0.15305 0.60304 0.3256 0.0
C1110 C 0.15988 0.61644 0.35891 0.0
C1111 C 0.11679 0.60295 0.30084 0.0
C1112 C 0.08639 0.61637 0.30855 0.0
C1113 C 0.09374 0.6307 0.34095 0.0
C1114 C 0.12986 0.63055 0.36597 0.0
C1115 C 0.04713 0.6152 0.28295 0.0
C1116 C 0.04297 0.61751 0.24439 0.0
C1117 C 0.01386 0.61128 0.29616 0.0
C1118 C 0.01614 0.60459 0.33538 0.0
C1119 C 0.99616 0.61804 0.35678 0.0
C1120 C 0.99724 0.61106 0.39331 0.0
C1121 C 0.0179 0.59052 0.40859 0.0
C1122 C 0.03769 0.57699 0.38743 0.0
C1123 C 0.03687 0.58396 0.35098 0.0
H1124 H 0.01835 0.58505 0.43673 0.0
H1125 H 1.00773 0.60819 0.07485 0.0
H1126 H 0.89061 0.38175 0.61957 0.0
H1127 H 0.95135 0.38004 0.66587 0.0
H1128 H 0.90208 0.41951 0.7433 0.0
H1129 H 0.84101 0.42184 0.69645 0.0
H1130 H 0.9687 0.43818 0.74301 0.0
H1131 H 0.9253 0.35808 0.75528 0.0
H1132 H 0.89903 0.31789 0.73419 0.0
H1133 H 0.99578 0.30323 0.68917 0.0
H1134 H 0.02239 0.34348 0.70955 0.0
H1135 H 0.13591 0.37794 0.88825 0.0
H1136 H 0.07259 0.37625 0.84591 0.0
H1137 H 0.10772 0.42782 0.7734 0.0
H1138 H 0.1715 0.42977 0.81612 0.0
H1139 H 0.04536 0.36324 0.77612 0.0
H1140 H 0.02184 0.46504 0.73387 0.0
H1141 H 0.04325 0.50544 0.75777 0.0
H1142 H 0.07782 0.4772 0.86876 0.0
H1143 H 0.05422 0.43678 0.84605 0.0
C1144 C 0.8923 0.38971 0.64665 0.0
C1145 C 0.86058 0.40177 0.65422 0.0
C1146 C 0.92724 0.38868 0.67325 0.0
C1147 C 0.9315 0.39944 0.7084 0.0
C1148 C 0.89965 0.41102 0.71645 0.0
C1149 C 0.86457 0.41213 0.68973 0.0
C1150 C 0.96968 0.39956 0.73576 0.0
C1151 C 0.98552 0.4218 0.75024 0.0
C1152 C 0.99149 0.37816 0.74584 0.0
C1153 C 0.97569 0.35388 0.7337 0.0
C1154 C 0.94085 0.34635 0.74066 0.0
C1155 C 0.92592 0.32355 0.72886 0.0
C1156 C 0.94569 0.30803 0.71028 0.0
C1157 C 0.98048 0.31527 0.70354 0.0
C1158 C 0.99553 0.33807 0.71526 0.0
C1159 C 0.1305 0.38867 0.86302 0.0
C1160 C 0.15902 0.40393 0.85563 0.0
C1161 C 0.09411 0.38771 0.83879 0.0
C1162 C 0.08496 0.40214 0.8066 0.0
C1163 C 0.11379 0.41672 0.79828 0.0
C1164 C 0.15044 0.41761 0.82252 0.0
C1165 C 0.04509 0.40201 0.78245 0.0
C1166 C 0.02879 0.3797 0.76874 0.0
C1167 C 0.02276 0.42338 0.77348 0.0
C1168 C 0.03706 0.44761 0.78799 0.0
C1169 C 0.03391 0.46738 0.76344 0.0
C1170 C 0.04635 0.49034 0.77684 0.0
C1171 C 0.06269 0.4938 0.8147 0.0
C1172 C 0.0658 0.47436 0.83938 0.0
C1173 C 0.05258 0.45142 0.82628 0.0
H1174 H 0.07251 0.5116 0.82499 0.0
H1175 H 0.93407 0.29039 0.70116 0.0
H1176 H 0.2307 0.16944 0.07876 0.0
H1177 H 0.2318 0.21292 0.06605 0.0
H1178 H 0.26645 0.19802 0.96477 0.0
H1179 H 0.26548 0.15468 0.97715 0.0
H1180 H 0.31251 0.23131 0.00644 0.0
H1181 H 0.17767 0.21911 0.96189 0.0
H1182 H 0.11347 0.20562 0.96517 0.0
H1183 H 0.11716 0.25334 0.05752 0.0
H1184 H 0.18167 0.26688 0.05513 0.0
H1185 H 0.28878 0.35048 0.92753 0.0
H1186 H 0.28758 0.30719 0.94124 0.0
H1187 H 0.25158 0.32326 0.04146 0.0
H1188 H 0.2525 0.36648 0.02795 0.0
H1189 H 0.20637 0.28943 1.00108 0.0
H1190 H 0.34105 0.30186 0.04537 0.0
H1191 H 0.40527 0.31533 0.04213 0.0
H1192 H 0.402 0.26714 0.95041 0.0
H1193 H 0.33749 0.25362 0.95276 0.0
C1194 C 0.23778 0.17536 0.05338 0.0
C1195 C 0.24815 0.15844 0.02911 0.0
C1196 C 0.23848 0.20028 0.04618 0.0
C1197 C 0.24942 0.20881 0.01451 0.0
C1198 C 0.25822 0.19193 0.98951 0.0
C1199 C 0.2574 0.16708 0.99658 0.0
C1200 C 0.25359 0.23525 0.0083 0.0
C1201 C 0.28912 0.24397 0.00475 0.0
C1202 C 0.22345 0.25192 0.00706 0.0
C1203 C 0.18468 0.24382 0.00858 0.0
C1204 C 0.16494 0.22657 0.98312 0.0
C1205 C 0.12846 0.21895 0.98477 0.0
C1206 C 0.11129 0.22856 0.01161 0.0
C1207 C 0.13053 0.24588 0.03679 0.0
C1208 C 0.16704 0.25355 0.03528 0.0
C1209 C 0.28137 0.34487 0.95289 0.0
C1210 C 0.27061 0.36208 0.97652 0.0
C1211 C 0.28063 0.32005 0.96069 0.0
C1212 C 0.26934 0.31188 0.99236 0.0
C1213 C 0.26011 0.32906 0.01673 0.0
C1214 C 0.26091 0.35383 0.00903 0.0
C1215 C 0.2653 0.28549 0.99916 0.0
C1216 C 0.22979 0.27678 1.00281 0.0
C1217 C 0.29547 0.26882 1.00051 0.0
C1218 C 0.33426 0.27691 0.999 0.0
C1219 C 0.35388 0.29429 0.0243 0.0
C1220 C 0.39037 0.3019 0.02266 0.0
C1221 C 0.40767 0.29215 0.99601 0.0
C1222 C 0.38854 0.27471 0.971 0.0
C1223 C 0.35203 0.26704 0.97249 0.0
H1224 H 0.43592 0.29806 0.9948 0.0
H1225 H 0.08304 0.22264 0.01283 0.0
H1226 H 0.79692 0.16523 0.43917 0.0
H1227 H 0.79918 0.209 0.45175 0.0
H1228 H 0.73385 0.19834 0.53378 0.0
H1229 H 0.73085 0.15504 0.52074 0.0
H1230 H 0.70257 0.23285 0.48937 0.0
H1231 H 0.83064 0.21462 0.55688 0.0
H1232 H 0.89594 0.19828 0.56619 0.0
H1233 H 0.91639 0.24546 0.48096 0.0
H1234 H 0.85099 0.26187 0.47079 0.0
H1235 H 0.72595 0.35061 0.57456 0.0
H1236 H 0.72621 0.30717 0.56092 0.0
H1237 H 0.77876 0.32163 0.47037 0.0
H1238 H 0.77835 0.36491 0.48344 0.0
H1239 H 0.81681 0.28581 0.51729 0.0
H1240 H 0.68806 0.30445 0.45159 0.0
H1241 H 0.62306 0.32089 0.44428 0.0
H1242 H 0.60452 0.27263 0.52906 0.0
H1243 H 0.66965 0.25613 0.53726 0.0
C1244 C 0.78392 0.1722 0.46052 0.0
C1245 C 0.76365 0.15669 0.47889 0.0
C1246 C 0.78508 0.19725 0.46764 0.0
C1247 C 0.76648 0.20713 0.49365 0.0
C1248 C 0.74806 0.19135 0.51331 0.0
C1249 C 0.74658 0.16652 0.50598 0.0
C1250 C 0.76396 0.23388 0.49906 0.0
C1251 C 0.7277 0.24432 0.49598 0.0
C1252 C 0.79648 0.24913 0.50679 0.0
C1253 C 0.83577 0.23927 0.51278 0.0
C1254 C 0.84894 0.22136 0.53989 0.0
C1255 C 0.886 0.21211 0.54537 0.0
C1256 C 0.91026 0.22077 0.5241 0.0
C1257 C 0.89754 0.23874 0.49737 0.0
C1258 C 0.86049 0.24803 0.49175 0.0
C1259 C 0.73689 0.34462 0.55128 0.0
C1260 C 0.75216 0.3614 0.5302 0.0
C1261 C 0.73714 0.31974 0.54359 0.0
C1262 C 0.75274 0.31108 0.51473 0.0
C1263 C 0.76684 0.32782 0.49293 0.0
C1264 C 0.7663 0.35265 0.50035 0.0
C1265 C 0.75555 0.28457 0.50798 0.0
C1266 C 0.79178 0.27425 0.51069 0.0
C1267 C 0.72307 0.26937 0.50022 0.0
C1268 C 0.68387 0.27923 0.4953 0.0
C1269 C 0.67024 0.29749 0.46891 0.0
C1270 C 0.63335 0.30679 0.46455 0.0
C1271 C 0.60971 0.29786 0.48626 0.0
C1272 C 0.62288 0.27956 0.5123 0.0
C1273 C 0.65977 0.27021 0.5168 0.0
H1274 H 0.58115 0.30508 0.48284 0.0
H1275 H 0.93894 0.2136 0.5284 0.0
H1276 H 0.7566 0.86475 0.0317 0.0
H1277 H 0.75615 0.82159 0.04499 0.0
H1278 H 0.78902 0.80583 0.94301 0.0
H1279 H 0.78856 0.84918 0.92893 0.0
H1280 H 0.73053 0.7784 0.94815 0.0
H1281 H 0.8511 0.79757 0.03089 0.0
H1282 H 0.89533 0.82017 0.08068 0.0
H1283 H 0.82953 0.80001 0.15817 0.0
H1284 H 0.78459 0.77753 0.1087 0.0
H1285 H 0.76835 0.65321 0.98361 0.0
H1286 H 0.76961 0.69642 0.97091 0.0
H1287 H 0.73596 0.71194 0.07256 0.0
H1288 H 0.73553 0.66851 0.08603 0.0
H1289 H 0.79481 0.73949 0.06773 0.0
H1290 H 0.67427 0.72035 0.98503 0.0
H1291 H 0.6299 0.69783 0.93523 0.0
H1292 H 0.69557 0.71803 0.85764 0.0
H1293 H 0.74065 0.74041 0.90712 0.0
C1294 C 0.76444 0.8522 0.01231 0.0
C1295 C 0.77253 0.86058 0.97912 0.0
C1296 C 0.76425 0.82741 0.02006 0.0
C1297 C 0.77267 0.81031 0.99512 0.0
C1298 C 0.7823 0.81862 0.96268 0.0
C1299 C 0.78235 0.84347 0.9548 0.0
C1300 C 0.76914 0.78383 1.00185 0.0
C1301 C 0.74512 0.76983 0.97408 0.0
C1302 C 0.78714 0.77268 0.03611 0.0
C1303 C 0.81429 0.78603 0.06599 0.0
C1304 C 0.84591 0.79809 0.05848 0.0
C1305 C 0.87114 0.81086 0.08666 0.0
C1306 C 0.8652 0.81157 0.12255 0.0
C1307 C 0.83408 0.79945 0.13035 0.0
C1308 C 0.80875 0.78667 0.10227 0.0
C1309 C 0.76059 0.66572 1.00308 0.0
C1310 C 0.75188 0.65725 0.03595 0.0
C1311 C 0.76123 0.69053 0.99567 0.0
C1312 C 0.75272 0.70758 0.02065 0.0
C1313 C 0.74273 0.69919 0.05287 0.0
C1314 C 0.74218 0.6743 0.06039 0.0
C1315 C 0.75625 0.73406 0.014 0.0
C1316 C 0.78024 0.74806 0.04179 0.0
C1317 C 0.73822 0.74522 0.97975 0.0
C1318 C 0.71103 0.73188 0.94988 0.0
C1319 C 0.67941 0.71984 0.95742 0.0
C1320 C 0.6541 0.70713 0.92923 0.0
C1321 C 0.65996 0.70645 0.89332 0.0
C1322 C 0.69109 0.71855 0.88548 0.0
C1323 C 0.7165 0.73128 0.91358 0.0
H1324 H 0.64034 0.69659 0.87154 0.0
H1325 H 0.88474 0.82148 0.14432 0.0
H1326 H 0.2584 0.65532 0.52866 0.0
H1327 H 0.25595 0.69859 0.54104 0.0
H1328 H 0.28864 0.71435 0.43909 0.0
H1329 H 0.29094 0.67087 0.42617 0.0
H1330 H 0.32408 0.74474 0.49884 0.0
H1331 H 0.19779 0.71704 0.43899 0.0
H1332 H 0.14172 0.69033 0.43137 0.0
H1333 H 0.12742 0.71225 0.53841 0.0
H1334 H 0.18386 0.73878 0.54697 0.0
H1335 H 0.27201 0.86616 0.47814 0.0
H1336 H 0.2709 0.82278 0.46553 0.0
H1337 H 0.22877 0.80936 0.56313 0.0
H1338 H 0.22902 0.8532 0.57543 0.0
H1339 H 0.19813 0.77743 0.50727 0.0
H1340 H 0.32333 0.80495 0.56789 0.0
H1341 H 0.38002 0.83126 0.57722 0.0
H1342 H 0.39736 0.80922 0.47134 0.0
H1343 H 0.34037 0.78306 0.46109 0.0
C1344 C 0.26571 0.66789 0.50903 0.0
C1345 C 0.27455 0.65948 0.47616 0.0
C1346 C 0.26408 0.69269 0.51613 0.0
C1347 C 0.27136 0.70975 0.49066 0.0
C1348 C 0.28265 0.70151 0.45903 0.0
C1349 C 0.28407 0.67661 0.45174 0.0
C1350 C 0.2654 0.73608 0.49628 0.0
C1351 C 0.29645 0.75193 0.5002 0.0
C1352 C 0.22955 0.74541 0.49908 0.0
C1353 C 0.19528 0.72972 0.49378 0.0
C1354 C 0.18287 0.71603 0.46103 0.0
C1355 C 0.151 0.70093 0.45652 0.0
C1356 C 0.13107 0.69955 0.48442 0.0
C1357 C 0.14291 0.71332 0.51685 0.0
C1358 C 0.17483 0.72839 0.52153 0.0
C1359 C 0.26156 0.85403 0.49642 0.0
C1360 C 0.25075 0.86308 0.52787 0.0
C1361 C 0.26122 0.82919 0.48934 0.0
C1362 C 0.25081 0.81268 0.51394 0.0
C1363 C 0.23723 0.82172 0.5439 0.0
C1364 C 0.23714 0.84677 0.5508 0.0
C1365 C 0.25678 0.78617 0.50956 0.0
C1366 C 0.22578 0.77027 0.50595 0.0
C1367 C 0.29278 0.77673 0.50731 0.0
C1368 C 0.32738 0.7922 0.51359 0.0
C1369 C 0.33909 0.80583 0.54648 0.0
C1370 C 0.37129 0.82071 0.55195 0.0
C1371 C 0.39223 0.82195 0.52485 0.0
C1372 C 0.38108 0.80826 0.49228 0.0
C1373 C 0.34885 0.79339 0.48664 0.0
H1374 H 0.41715 0.83348 0.52913 0.0
H1375 H 0.1064 0.68786 0.48089 0.0
loop_
_geom_bond_atom_site_label_1
_geom_bond_atom_site_label_2
_geom_bond_distance
_geom_bond_site_symmetry_2
_ccdc_geom_bond_type
Fe0 O2 1.918 . S
Fe0 O5 1.997 . S
Fe0 O6 2.002 . S
Fe0 O11 1.976 . S
Fe0 O14 1.996 . S
Fe1 O2 1.918 . S
Fe1 O9 1.997 . S
Fe1 O12 1.996 . S
Fe1 O16 1.976 1_554 S
Fe1 O19 2.002 . S
O2 Fe0 1.918 . S
O2 Fe1 1.918 . S
O2 Fe3 1.918 . S
Fe3 O2 1.918 . S
Fe3 O4 2.002 . S
Fe3 O13 1.976 . S
Fe3 O17 1.996 1_554 S
Fe3 O20 1.997 . S
O4 Fe3 2.002 . S
O4 C21 1.295 . S
O5 Fe0 1.997 . S
O5 C21 1.235 . S
O6 Fe0 2.002 . S
O6 C7 1.295 . S
C7 O6 1.295 . S
C7 O9 1.235 . S
C8 O13 1.287 . S
C8 O14 1.255 . S
O9 Fe1 1.997 . S
O9 C7 1.235 . S
C10 O16 1.287 . S
C10 O17 1.255 . S
O11 Fe0 1.976 . S
O11 C18 1.287 . S
O12 Fe1 1.996 . S
O12 C18 1.255 . S
O13 Fe3 1.976 . S
O13 C8 1.287 . S
O14 Fe0 1.996 . S
O14 C8 1.255 . S
C15 O19 1.295 . S
C15 O20 1.235 . S
O16 Fe1 1.976 1_556 S
O16 C10 1.287 . S
O17 Fe3 1.996 1_556 S
O17 C10 1.255 . S
C18 O11 1.287 . S
C18 O12 1.255 . S
O19 Fe1 2.002 . S
O19 C15 1.295 . S
O20 Fe3 1.997 . S
O20 C15 1.235 . S
C21 O4 1.295 . S
C21 O5 1.235 . S
Fe22 O24 1.918 . S
Fe22 O27 1.997 . S
Fe22 O28 2.002 . S
Fe22 O33 1.976 . S
Fe22 O36 1.996 . S
Fe23 O24 1.918 . S
Fe23 O31 1.997 . S
Fe23 O34 1.996 . S
Fe23 O38 1.976 . S
Fe23 O41 2.002 . S
O24 Fe22 1.918 . S
O24 Fe23 1.918 . S
O24 Fe25 1.918 . S
Fe25 O24 1.918 . S
Fe25 O26 2.002 . S
Fe25 O35 1.976 . S
Fe25 O39 1.996 . S
Fe25 O42 1.997 . S
O26 Fe25 2.002 . S
O26 C43 1.295 . S
O27 Fe22 1.997 . S
O27 C43 1.235 . S
O28 Fe22 2.002 . S
O28 C29 1.295 . S
C29 O28 1.295 . S
C29 O31 1.235 . S
C30 O35 1.287 . S
C30 O36 1.255 . S
O31 Fe23 1.997 . S
O31 C29 1.235 . S
C32 O38 1.287 . S
C32 O39 1.255 . S
O33 Fe22 1.976 . S
O33 C40 1.287 . S
O34 Fe23 1.996 . S
O34 C40 1.255 . S
O35 Fe25 1.976 . S
O35 C30 1.287 . S
O36 Fe22 1.996 . S
O36 C30 1.255 . S
C37 O41 1.295 . S
C37 O42 1.235 . S
O38 Fe23 1.976 . S
O38 C32 1.287 . S
O39 Fe25 1.996 . S
O39 C32 1.255 . S
C40 O33 1.287 . S
C40 O34 1.255 . S
O41 Fe23 2.002 . S
O41 C37 1.295 . S
O42 Fe25 1.997 . S
O42 C37 1.235 . S
C43 O26 1.295 . S
C43 O27 1.235 . S
Fe44 O46 1.918 . S
Fe44 O49 1.997 . S
Fe44 O50 2.002 . S
Fe44 O55 1.976 . S
Fe44 O58 1.996 1_556 S
Fe45 O46 1.918 . S
Fe45 O53 1.997 . S
Fe45 O56 1.996 . S
Fe45 O60 1.976 . S
Fe45 O63 2.002 . S
O46 Fe44 1.918 . S
O46 Fe45 1.918 . S
O46 Fe47 1.918 . S
Fe47 O46 1.918 . S
Fe47 O48 2.002 . S
Fe47 O57 1.976 1_556 S
Fe47 O61 1.996 . S
Fe47 O64 1.997 . S
O48 Fe47 2.002 . S
O48 C65 1.295 . S
O49 Fe44 1.997 . S
O49 C65 1.235 . S
O50 Fe44 2.002 . S
O50 C51 1.295 . S
C51 O50 1.295 . S
C51 O53 1.235 . S
C52 O57 1.287 . S
C52 O58 1.255 . S
O53 Fe45 1.997 . S
O53 C51 1.235 . S
C54 O60 1.287 . S
C54 O61 1.255 . S
O55 Fe44 1.976 . S
O55 C62 1.287 . S
O56 Fe45 1.996 . S
O56 C62 1.255 . S
O57 Fe47 1.976 1_554 S
O57 C52 1.287 . S
O58 Fe44 1.996 1_554 S
O58 C52 1.255 . S
C59 O63 1.295 . S
C59 O64 1.235 . S
O60 Fe45 1.976 . S
O60 C54 1.287 . S
O61 Fe47 1.996 . S
O61 C54 1.255 . S
C62 O55 1.287 . S
C62 O56 1.255 . S
O63 Fe45 2.002 . S
O63 C59 1.295 . S
O64 Fe47 1.997 . S
O64 C59 1.235 . S
C65 O48 1.295 . S
C65 O49 1.235 . S
Fe66 O68 1.918 . S
Fe66 O71 1.997 . S
Fe66 O72 2.002 . S
Fe66 O77 1.976 . S
Fe66 O80 1.996 . S
Fe67 O68 1.918 . S
Fe67 O75 1.997 . S
Fe67 O78 1.996 . S
Fe67 O82 1.976 . S
Fe67 O85 2.002 . S
O68 Fe66 1.918 . S
O68 Fe67 1.918 . S
O68 Fe69 1.918 . S
Fe69 O68 1.918 . S
Fe69 O70 2.002 . S
Fe69 O79 1.976 . S
Fe69 O83 1.996 . S
Fe69 O86 1.997 . S
O70 Fe69 2.002 . S
O70 C87 1.295 . S
O71 Fe66 1.997 . S
O71 C87 1.235 . S
O72 Fe66 2.002 . S
O72 C73 1.295 . S
C73 O72 1.295 . S
C73 O75 1.235 . S
C74 O79 1.287 . S
C74 O80 1.255 . S
O75 Fe67 1.997 . S
O75 C73 1.235 . S
C76 O82 1.287 . S
C76 O83 1.255 . S
O77 Fe66 1.976 . S
O77 C84 1.287 . S
O78 Fe67 1.996 . S
O78 C84 1.255 . S
O79 Fe69 1.976 . S
O79 C74 1.287 . S
O80 Fe66 1.996 . S
O80 C74 1.255 . S
C81 O85 1.295 . S
C81 O86 1.235 . S
O82 Fe67 1.976 . S
O82 C76 1.287 . S
O83 Fe69 1.996 . S
O83 C76 1.255 . S
C84 O77 1.287 . S
C84 O78 1.255 . S
O85 Fe67 2.002 . S
O85 C81 1.295 . S
O86 Fe69 1.997 . S
O86 C81 1.235 . S
C87 O70 1.295 . S
C87 O71 1.235 . S
Fe88 O90 1.918 . S
Fe88 O93 1.997 . S
Fe88 O94 2.002 . S
Fe88 O99 1.976 . S
Fe88 O102 1.996 . S
Fe89 O90 1.918 . S
Fe89 O97 1.997 . S
Fe89 O100 1.996 . S
Fe89 O104 1.976 1_554 S
Fe89 O107 2.002 . S
O90 Fe88 1.918 . S
O90 Fe89 1.918 . S
O90 Fe91 1.918 . S
Fe91 O90 1.918 . S
Fe91 O92 2.002 . S
Fe91 O101 1.976 . S
Fe91 O105 1.996 1_554 S
Fe91 O108 1.997 . S
O92 Fe91 2.002 . S
O92 C109 1.295 . S
O93 Fe88 1.997 . S
O93 C109 1.235 . S
O94 Fe88 2.002 . S
O94 C95 1.295 . S
C95 O94 1.295 . S
C95 O97 1.235 . S
C96 O101 1.287 . S
C96 O102 1.255 . S
O97 Fe89 1.997 . S
O97 C95 1.235 . S
C98 O104 1.287 . S
C98 O105 1.255 . S
O99 Fe88 1.976 . S
O99 C106 1.287 . S
O100 Fe89 1.996 . S
O100 C106 1.255 . S
O101 Fe91 1.976 . S
O101 C96 1.287 . S
O102 Fe88 1.996 . S
O102 C96 1.255 . S
C103 O107 1.295 . S
C103 O108 1.235 . S
O104 Fe89 1.976 1_556 S
O104 C98 1.287 . S
O105 Fe91 1.996 1_556 S
O105 C98 1.255 . S
C106 O99 1.287 . S
C106 O100 1.255 . S
O107 Fe89 2.002 . S
O107 C103 1.295 . S
O108 Fe91 1.997 . S
O108 C103 1.235 . S
C109 O92 1.295 . S
C109 O93 1.235 . S
Fe110 O112 1.918 . S
Fe110 O115 1.997 . S
Fe110 O116 2.002 . S
Fe110 O121 1.976 . S
Fe110 O124 1.996 . S
Fe111 O112 1.918 . S
Fe111 O119 1.997 . S
Fe111 O122 1.996 . S
Fe111 O126 1.976 . S
Fe111 O129 2.002 . S
O112 Fe110 1.918 . S
O112 Fe111 1.918 . S
O112 Fe113 1.918 . S
Fe113 O112 1.918 . S
Fe113 O114 2.002 . S
Fe113 O123 1.976 . S
Fe113 O127 1.996 . S
Fe113 O130 1.997 . S
O114 Fe113 2.002 . S
O114 C131 1.295 . S
O115 Fe110 1.997 . S
O115 C131 1.235 . S
O116 Fe110 2.002 . S
O116 C117 1.295 . S
C117 O116 1.295 . S
C117 O119 1.235 . S
C118 O123 1.287 . S
C118 O124 1.255 . S
O119 Fe111 1.997 . S
O119 C117 1.235 . S
C120 O126 1.287 . S
C120 O127 1.255 . S
O121 Fe110 1.976 . S
O121 C128 1.287 . S
O122 Fe111 1.996 . S
O122 C128 1.255 . S
O123 Fe113 1.976 . S
O123 C118 1.287 . S
O124 Fe110 1.996 . S
O124 C118 1.255 . S
C125 O129 1.295 . S
C125 O130 1.235 . S
O126 Fe111 1.976 . S
O126 C120 1.287 . S
O127 Fe113 1.996 . S
O127 C120 1.255 . S
C128 O121 1.287 . S
C128 O122 1.255 . S
O129 Fe111 2.002 . S
O129 C125 1.295 . S
O130 Fe113 1.997 . S
O130 C125 1.235 . S
C131 O114 1.295 . S
C131 O115 1.235 . S
Fe132 O134 1.918 . S
Fe132 O137 1.997 . S
Fe132 O138 2.002 . S
Fe132 O143 1.976 . S
Fe132 O146 1.996 1_556 S
Fe133 O134 1.918 . S
Fe133 O141 1.997 . S
Fe133 O144 1.996 . S
Fe133 O148 1.976 . S
Fe133 O151 2.002 . S
O134 Fe132 1.918 . S
O134 Fe133 1.918 . S
O134 Fe135 1.918 . S
Fe135 O134 1.918 . S
Fe135 O136 2.002 . S
Fe135 O145 1.976 1_556 S
Fe135 O149 1.996 . S
Fe135 O152 1.997 . S
O136 Fe135 2.002 . S
O136 C153 1.295 . S
O137 Fe132 1.997 . S
O137 C153 1.235 . S
O138 Fe132 2.002 . S
O138 C139 1.295 . S
C139 O138 1.295 . S
C139 O141 1.235 . S
C140 O145 1.287 . S
C140 O146 1.255 . S
O141 Fe133 1.997 . S
O141 C139 1.235 . S
C142 O148 1.287 . S
C142 O149 1.255 . S
O143 Fe132 1.976 . S
O143 C150 1.287 . S
O144 Fe133 1.996 . S
O144 C150 1.255 . S
O145 Fe135 1.976 1_554 S
O145 C140 1.287 . S
O146 Fe132 1.996 1_554 S
O146 C140 1.255 . S
C147 O151 1.295 . S
C147 O152 1.235 . S
O148 Fe133 1.976 . S
O148 C142 1.287 . S
O149 Fe135 1.996 . S
O149 C142 1.255 . S
C150 O143 1.287 . S
C150 O144 1.255 . S
O151 Fe133 2.002 . S
O151 C147 1.295 . S
O152 Fe135 1.997 . S
O152 C147 1.235 . S
C153 O136 1.295 . S
C153 O137 1.235 . S
Fe154 O156 1.918 . S
Fe154 O159 1.997 . S
Fe154 O160 2.002 . S
Fe154 O165 1.976 . S
Fe154 O168 1.996 . S
Fe155 O156 1.918 . S
Fe155 O163 1.997 . S
Fe155 O166 1.996 . S
Fe155 O170 1.976 . S
Fe155 O173 2.002 . S
O156 Fe154 1.918 . S
O156 Fe155 1.918 . S
O156 Fe157 1.918 . S
Fe157 O156 1.918 . S
Fe157 O158 2.002 . S
Fe157 O167 1.976 . S
Fe157 O171 1.996 . S
Fe157 O174 1.997 . S
O158 Fe157 2.002 . S
O158 C175 1.295 . S
O159 Fe154 1.997 . S
O159 C175 1.235 . S
O160 Fe154 2.002 . S
O160 C161 1.295 . S
C161 O160 1.295 . S
C161 O163 1.235 . S
C162 O167 1.287 . S
C162 O168 1.255 . S
O163 Fe155 1.997 . S
O163 C161 1.235 . S
C164 O170 1.287 . S
C164 O171 1.255 . S
O165 Fe154 1.976 . S
O165 C172 1.287 . S
O166 Fe155 1.996 . S
O166 C172 1.255 . S
O167 Fe157 1.976 . S
O167 C162 1.287 . S
O168 Fe154 1.996 . S
O168 C162 1.255 . S
C169 O173 1.295 . S
C169 O174 1.235 . S
O170 Fe155 1.976 . S
O170 C164 1.287 . S
O171 Fe157 1.996 . S
O171 C164 1.255 . S
C172 O165 1.287 . S
C172 O166 1.255 . S
O173 Fe155 2.002 . S
O173 C169 1.295 . S
O174 Fe157 1.997 . S
O174 C169 1.235 . S
C175 O158 1.295 . S
C175 O159 1.235 . S
H176 C194 0.951 . S
H177 C196 0.951 . S
H178 C198 0.950 . S
H179 C199 0.950 . S
H180 C201 0.950 . S
H181 C204 0.950 . S
H182 C205 0.950 . S
H183 C207 0.950 . S
H184 C208 0.950 . S
H185 C209 0.951 . S
H186 C211 0.966 . S
H187 C213 0.950 . S
H188 C214 0.950 . S
H189 C216 0.950 . S
H190 C219 0.950 . S
H191 C220 0.950 . S
H192 C222 0.950 . S
H193 C223 0.950 . S
C194 H176 0.951 . S
C194 C195 1.366 . S
C194 C196 1.388 . S
C195 C194 1.366 . S
C195 C199 1.385 . S
C196 H177 0.951 . S
C196 C194 1.388 . S
C196 C197 1.366 . S
C197 C196 1.366 . S
C197 C198 1.414 . S
C197 C200 1.499 . S
C198 H178 0.950 . S
C198 C197 1.414 . S
C198 C199 1.374 . S
C199 H179 0.950 . S
C199 C195 1.385 . S
C199 C198 1.374 . S
C200 C197 1.499 . S
C200 C201 1.373 . S
C200 C202 1.389 . S
C201 H180 0.950 . S
C201 C200 1.373 . S
C201 C217 1.377 . S
C202 C200 1.389 . S
C202 C203 1.524 . S
C202 C216 1.377 . S
C203 C202 1.524 . S
C203 C204 1.397 . S
C203 C208 1.363 . S
C204 H181 0.950 . S
C204 C203 1.397 . S
C204 C205 1.334 . S
C205 H182 0.950 . S
C205 C204 1.334 . S
C205 C206 1.287 . S
C206 C205 1.287 . S
C206 C207 1.524 . S
C206 H225 0.913 . S
C207 H183 0.950 . S
C207 C206 1.524 . S
C207 C208 1.415 . S
C208 H184 0.950 . S
C208 C203 1.363 . S
C208 C207 1.415 . S
C209 H185 0.951 . S
C209 C210 1.366 . S
C209 C211 1.379 1_565 S
C210 C209 1.366 . S
C210 C214 1.385 . S
C211 H186 0.966 . S
C211 C209 1.379 1_545 S
C211 C212 1.360 1_545 S
C212 C211 1.360 1_565 S
C212 C213 1.414 . S
C212 C215 1.499 1_565 S
C213 H187 0.950 . S
C213 C212 1.414 . S
C213 C214 1.374 . S
C214 H188 0.950 . S
C214 C210 1.385 . S
C214 C213 1.374 . S
C215 C212 1.499 1_545 S
C215 C216 1.373 . S
C215 C217 1.389 . S
C216 H189 0.950 . S
C216 C202 1.377 . S
C216 C215 1.373 . S
C217 C201 1.377 . S
C217 C215 1.389 . S
C217 C218 1.524 1_545 S
C218 C217 1.524 1_565 S
C218 C219 1.397 . S
C218 C223 1.363 1_565 S
C219 H190 0.950 . S
C219 C218 1.397 . S
C219 C220 1.334 . S
C220 H191 0.950 . S
C220 C219 1.334 . S
C220 C221 1.287 . S
C221 C220 1.287 . S
C221 C222 1.524 . S
C221 H224 0.999 . S
C222 H192 0.950 . S
C222 C221 1.524 . S
C222 C223 1.415 1_565 S
C223 H193 0.950 . S
C223 C218 1.363 1_545 S
C223 C222 1.415 1_545 S
H224 C221 0.999 . S
H225 C206 0.913 . S
H226 C244 0.951 . S
H227 C246 0.951 . S
H228 C248 0.950 . S
H229 C249 0.951 . S
H230 C251 0.950 . S
H231 C254 0.950 . S
H232 C255 0.950 . S
H233 C257 0.943 1_565 S
H234 C258 0.950 1_565 S
H235 C259 0.951 . S
H236 C261 0.951 . S
H237 C263 0.950 . S
H238 C264 0.950 . S
H239 C266 0.950 . S
H240 C269 0.950 1_565 S
H241 C270 0.950 1_565 S
H242 C272 0.950 . S
H243 C273 0.950 . S
C244 H226 0.951 . S
C244 C245 1.366 . S
C244 C246 1.388 . S
C245 C244 1.366 . S
C245 C249 1.385 . S
C246 H227 0.951 . S
C246 C244 1.388 . S
C246 C247 1.366 . S
C247 C246 1.366 . S
C247 C248 1.414 1_565 S
C247 C250 1.499 1_565 S
C248 H228 0.950 . S
C248 C247 1.414 1_545 S
C248 C249 1.374 1_545 S
C249 H229 0.951 . S
C249 C245 1.385 . S
C249 C248 1.374 1_565 S
C250 C247 1.499 1_545 S
C250 C251 1.373 . S
C250 C252 1.389 . S
C251 H230 0.950 . S
C251 C250 1.373 . S
C251 C267 1.377 . S
C252 C250 1.389 . S
C252 C253 1.524 . S
C252 C266 1.377 . S
C253 C252 1.524 . S
C253 C254 1.397 . S
C253 C258 1.363 . S
C254 H231 0.950 . S
C254 C253 1.397 . S
C254 C255 1.334 . S
C255 H232 0.950 . S
C255 C254 1.334 . S
C255 C256 1.287 . S
C256 C255 1.287 . S
C256 C257 1.524 . S
C256 H275 0.913 . S
C257 H233 0.943 1_545 S
C257 C256 1.524 . S
C257 C258 1.415 . S
C258 H234 0.950 1_545 S
C258 C253 1.363 . S
C258 C257 1.415 . S
C259 H235 0.951 . S
C259 C260 1.366 . S
C259 C261 1.388 . S
C260 C259 1.366 . S
C260 C264 1.385 . S
C261 H236 0.951 . S
C261 C259 1.388 . S
C261 C262 1.366 . S
C262 C261 1.366 . S
C262 C263 1.414 . S
C262 C265 1.499 . S
C263 H237 0.950 . S
C263 C262 1.414 . S
C263 C264 1.374 . S
C264 H238 0.950 . S
C264 C260 1.385 . S
C264 C263 1.374 . S
C265 C262 1.499 . S
C265 C266 1.373 . S
C265 C267 1.389 . S
C266 H239 0.950 . S
C266 C252 1.377 . S
C266 C265 1.373 . S
C267 C251 1.377 . S
C267 C265 1.389 . S
C267 C268 1.524 . S
C268 C267 1.524 . S
C268 C269 1.397 . S
C268 C273 1.363 . S
C269 H240 0.950 1_545 S
C269 C268 1.397 . S
C269 C270 1.334 . S
C270 H241 0.950 1_545 S
C270 C269 1.334 . S
C270 C271 1.287 . S
C271 C270 1.287 . S
C271 C272 1.524 . S
C271 H274 0.999 . S
C272 H242 0.950 . S
C272 C271 1.524 . S
C272 C273 1.415 . S
C273 H243 0.950 . S
C273 C268 1.363 . S
C273 C272 1.415 . S
H274 C271 0.999 . S
H275 C256 0.913 . S
H276 C294 0.951 . S
H277 C296 0.951 . S
H278 C298 0.950 . S
H279 C299 0.950 1_565 S
H280 C301 0.950 . S
H281 C304 0.950 . S
H282 C305 0.950 . S
H283 C307 0.950 . S
H284 C308 0.950 . S
H285 C309 0.951 . S
H286 C311 0.951 . S
H287 C313 0.950 . S
H288 C314 0.950 . S
H289 C316 0.950 1_545 S
H290 C319 0.950 . S
H291 C320 0.950 . S
H292 C322 0.950 . S
H293 C323 0.950 . S
C294 H276 0.951 . S
C294 C295 1.366 . S
C294 C296 1.388 . S
C295 C294 1.366 . S
C295 C299 1.385 . S
C296 H277 0.951 . S
C296 C294 1.388 . S
C296 C297 1.366 . S
C297 C296 1.366 . S
C297 C298 1.414 1_545 S
C297 C300 1.499 1_545 S
C298 H278 0.950 . S
C298 C297 1.414 1_565 S
C298 C299 1.374 1_565 S
C299 H279 0.950 1_545 S
C299 C295 1.385 . S
C299 C298 1.374 1_545 S
C300 C297 1.499 1_565 S
C300 C301 1.373 . S
C300 C302 1.389 1_565 S
C301 H280 0.950 . S
C301 C300 1.373 . S
C301 C317 1.377 . S
C302 C300 1.389 1_545 S
C302 C303 1.524 . S
C302 C316 1.377 1_545 S
C303 C302 1.524 . S
C303 C304 1.397 . S
C303 C308 1.363 . S
C304 H281 0.950 . S
C304 C303 1.397 . S
C304 C305 1.334 . S
C305 H282 0.950 . S
C305 C304 1.334 . S
C305 C306 1.287 . S
C306 C305 1.287 . S
C306 C307 1.524 . S
C306 H325 0.913 . S
C307 H283 0.950 . S
C307 C306 1.524 . S
C307 C308 1.415 . S
C308 H284 0.950 . S
C308 C303 1.363 . S
C308 C307 1.415 . S
C309 H285 0.951 . S
C309 C310 1.366 . S
C309 C311 1.388 . S
C310 C309 1.366 . S
C310 C314 1.385 . S
C311 H286 0.951 . S
C311 C309 1.388 . S
C311 C312 1.366 . S
C312 C311 1.366 . S
C312 C313 1.414 . S
C312 C315 1.499 . S
C313 H287 0.950 . S
C313 C312 1.414 . S
C313 C314 1.374 . S
C314 H288 0.950 . S
C314 C310 1.385 . S
C314 C313 1.374 . S
C315 C312 1.499 . S
C315 C316 1.373 . S
C315 C317 1.389 . S
C316 H289 0.950 1_565 S
C316 C302 1.377 1_565 S
C316 C315 1.373 . S
C317 C301 1.377 . S
C317 C315 1.389 . S
C317 C318 1.524 . S
C318 C317 1.524 . S
C318 C319 1.397 . S
C318 C323 1.363 . S
C319 H290 0.950 . S
C319 C318 1.397 . S
C319 C320 1.334 . S
C320 H291 0.950 . S
C320 C319 1.334 . S
C320 C321 1.287 . S
C321 C320 1.287 . S
C321 C322 1.524 . S
C321 H324 0.999 . S
C322 H292 0.950 . S
C322 C321 1.524 . S
C322 C323 1.415 . S
C323 H293 0.950 . S
C323 C318 1.363 . S
C323 C322 1.415 . S
H324 C321 0.999 . S
H325 C306 0.913 . S
H326 C344 0.951 1_565 S
H327 C346 0.951 . S
H328 C348 0.950 . S
H329 C349 0.950 . S
H330 C351 0.940 1_545 S
H331 C354 0.950 1_545 S
H332 C355 0.950 1_545 S
H333 C357 0.950 . S
H334 C358 0.950 . S
H335 C359 0.951 . S
H336 C361 0.951 . S
H337 C363 0.950 . S
H338 C364 0.950 . S
H339 C366 0.950 . S
H340 C369 0.950 . S
H341 C370 0.950 . S
H342 C372 0.950 . S
H343 C373 0.950 . S
C344 H326 0.951 1_545 S
C344 C345 1.366 . S
C344 C346 1.388 1_545 S
C345 C344 1.366 . S
C345 C349 1.385 . S
C346 H327 0.951 . S
C346 C344 1.388 1_565 S
C346 C347 1.366 1_565 S
C347 C346 1.366 1_545 S
C347 C348 1.414 . S
C347 C350 1.499 1_545 S
C348 H328 0.950 . S
C348 C347 1.414 . S
C348 C349 1.374 . S
C349 H329 0.950 . S
C349 C345 1.385 . S
C349 C348 1.374 . S
C350 C347 1.499 1_565 S
C350 C351 1.376 . S
C350 C352 1.389 . S
C351 H330 0.940 1_565 S
C351 C350 1.376 . S
C351 C367 1.384 . S
C352 C350 1.389 . S
C352 C353 1.524 . S
C352 C366 1.377 . S
C353 C352 1.524 . S
C353 C354 1.397 . S
C353 C358 1.363 . S
C354 H331 0.950 1_565 S
C354 C353 1.397 . S
C354 C355 1.334 . S
C355 H332 0.950 1_565 S
C355 C354 1.334 . S
C355 C356 1.287 . S
C356 C355 1.287 . S
C356 C357 1.524 . S
C356 H375 0.913 . S
C357 H333 0.950 . S
C357 C356 1.524 . S
C357 C358 1.415 . S
C358 H334 0.950 . S
C358 C353 1.363 . S
C358 C357 1.415 . S
C359 H335 0.951 . S
C359 C360 1.366 . S
C359 C361 1.388 . S
C360 C359 1.366 . S
C360 C364 1.385 . S
C361 H336 0.951 . S
C361 C359 1.388 . S
C361 C362 1.366 . S
C362 C361 1.366 . S
C362 C363 1.414 . S
C362 C365 1.499 . S
C363 H337 0.950 . S
C363 C362 1.414 . S
C363 C364 1.374 . S
C364 H338 0.950 . S
C364 C360 1.385 . S
C364 C363 1.374 . S
C365 C362 1.499 . S
C365 C366 1.373 . S
C365 C367 1.389 . S
C366 H339 0.950 . S
C366 C352 1.377 . S
C366 C365 1.373 . S
C367 C351 1.384 . S
C367 C365 1.389 . S
C367 C368 1.524 . S
C368 C367 1.524 . S
C368 C369 1.397 . S
C368 C373 1.363 1_565 S
C369 H340 0.950 . S
C369 C368 1.397 . S
C369 C370 1.334 . S
C370 H341 0.950 . S
C370 C369 1.334 . S
C370 C371 1.287 . S
C371 C370 1.287 . S
C371 C372 1.524 1_565 S
C371 H374 0.999 . S
C372 H342 0.950 . S
C372 C371 1.524 1_545 S
C372 C373 1.415 . S
C373 H343 0.950 . S
C373 C368 1.363 1_545 S
C373 C372 1.415 . S
H374 C371 0.999 . S
H375 C356 0.913 . S
H376 C394 0.951 . S
H377 C396 0.951 . S
H378 C398 0.950 . S
H379 C399 0.950 . S
H380 C401 0.950 . S
H381 C404 0.950 . S
H382 C405 0.950 . S
H383 C407 0.950 . S
H384 C408 0.950 . S
H385 C409 0.951 . S
H386 C411 0.951 . S
H387 C413 0.950 . S
H388 C414 0.950 . S
H389 C416 0.950 . S
H390 C419 0.950 . S
H391 C420 0.950 . S
H392 C422 0.950 . S
H393 C423 0.950 . S
C394 H376 0.951 . S
C394 C395 1.366 . S
C394 C396 1.388 . S
C395 C394 1.366 . S
C395 C399 1.385 . S
C396 H377 0.951 . S
C396 C394 1.388 . S
C396 C397 1.366 . S
C397 C396 1.366 . S
C397 C398 1.414 . S
C397 C400 1.499 . S
C398 H378 0.950 . S
C398 C397 1.414 . S
C398 C399 1.374 . S
C399 H379 0.950 . S
C399 C395 1.385 . S
C399 C398 1.374 . S
C400 C397 1.499 . S
C400 C401 1.373 . S
C400 C402 1.389 . S
C401 H380 0.950 . S
C401 C400 1.373 . S
C401 C417 1.377 . S
C402 C400 1.389 . S
C402 C403 1.524 . S
C402 C416 1.377 . S
C403 C402 1.524 . S
C403 C404 1.397 . S
C403 C408 1.363 . S
C404 H381 0.950 . S
C404 C403 1.397 . S
C404 C405 1.334 . S
C405 H382 0.950 . S
C405 C404 1.334 . S
C405 C406 1.287 . S
C406 C405 1.287 . S
C406 C407 1.524 . S
C406 H425 0.913 . S
C407 H383 0.950 . S
C407 C406 1.524 . S
C407 C408 1.415 . S
C408 H384 0.950 . S
C408 C403 1.363 . S
C408 C407 1.415 . S
C409 H385 0.951 . S
C409 C410 1.366 . S
C409 C411 1.388 . S
C410 C409 1.366 . S
C410 C414 1.385 . S
C411 H386 0.951 . S
C411 C409 1.388 . S
C411 C412 1.366 . S
C412 C411 1.366 . S
C412 C413 1.414 . S
C412 C415 1.499 . S
C413 H387 0.950 . S
C413 C412 1.414 . S
C413 C414 1.374 . S
C414 H388 0.950 . S
C414 C410 1.385 . S
C414 C413 1.374 . S
C415 C412 1.499 . S
C415 C416 1.373 . S
C415 C417 1.389 . S
C416 H389 0.950 . S
C416 C402 1.377 . S
C416 C415 1.373 . S
C417 C401 1.377 . S
C417 C415 1.389 . S
C417 C418 1.524 . S
C418 C417 1.524 . S
C418 C419 1.397 . S
C418 C423 1.363 . S
C419 H390 0.950 . S
C419 C418 1.397 . S
C419 C420 1.334 . S
C420 H391 0.950 . S
C420 C419 1.334 . S
C420 C421 1.287 . S
C421 C420 1.287 . S
C421 C422 1.524 . S
C421 H424 0.999 . S
C422 H392 0.950 . S
C422 C421 1.524 . S
C422 C423 1.415 . S
C423 H393 0.950 . S
C423 C418 1.363 . S
C423 C422 1.415 . S
H424 C421 0.999 . S
H425 C406 0.913 . S
H426 C444 0.951 . S
H427 C446 0.951 . S
H428 C448 0.950 . S
H429 C449 0.950 . S
H430 C451 0.950 . S
H431 C454 0.950 . S
H432 C455 0.950 . S
H433 C457 0.950 . S
H434 C458 0.950 . S
H435 C459 0.951 . S
H436 C461 0.951 . S
H437 C463 0.950 . S
H438 C464 0.950 . S
H439 C466 0.950 . S
H440 C469 0.950 . S
H441 C470 0.950 . S
H442 C472 0.950 . S
H443 C473 0.950 . S
C444 H426 0.951 . S
C444 C445 1.366 . S
C444 C446 1.388 . S
C445 C444 1.366 . S
C445 C449 1.385 . S
C446 H427 0.951 . S
C446 C444 1.388 . S
C446 C447 1.366 . S
C447 C446 1.366 . S
C447 C448 1.414 . S
C447 C450 1.499 . S
C448 H428 0.950 . S
C448 C447 1.414 . S
C448 C449 1.374 . S
C449 H429 0.950 . S
C449 C445 1.385 . S
C449 C448 1.374 . S
C450 C447 1.499 . S
C450 C451 1.373 . S
C450 C452 1.389 . S
C451 H430 0.950 . S
C451 C450 1.373 . S
C451 C467 1.377 . S
C452 C450 1.389 . S
C452 C453 1.524 . S
C452 C466 1.377 . S
C453 C452 1.524 . S
C453 C454 1.397 . S
C453 C458 1.363 . S
C454 H431 0.950 . S
C454 C453 1.397 . S
C454 C455 1.334 . S
C455 H432 0.950 . S
C455 C454 1.334 . S
C455 C456 1.287 . S
C456 C455 1.287 . S
C456 C457 1.524 . S
C456 H475 0.913 . S
C457 H433 0.950 . S
C457 C456 1.524 . S
C457 C458 1.415 . S
C458 H434 0.950 . S
C458 C453 1.363 . S
C458 C457 1.415 . S
C459 H435 0.951 . S
C459 C460 1.366 . S
C459 C461 1.388 . S
C460 C459 1.366 . S
C460 C464 1.385 . S
C461 H436 0.951 . S
C461 C459 1.388 . S
C461 C462 1.366 . S
C462 C461 1.366 . S
C462 C463 1.414 . S
C462 C465 1.499 . S
C463 H437 0.950 . S
C463 C462 1.414 . S
C463 C464 1.374 . S
C464 H438 0.950 . S
C464 C460 1.385 . S
C464 C463 1.374 . S
C465 C462 1.499 . S
C465 C466 1.373 . S
C465 C467 1.389 . S
C466 H439 0.950 . S
C466 C452 1.377 . S
C466 C465 1.373 . S
C467 C451 1.377 . S
C467 C465 1.389 . S
C467 C468 1.524 . S
C468 C467 1.524 . S
C468 C469 1.397 . S
C468 C473 1.363 . S
C469 H440 0.950 . S
C469 C468 1.397 . S
C469 C470 1.334 . S
C470 H441 0.950 . S
C470 C469 1.334 . S
C470 C471 1.287 . S
C471 C470 1.287 . S
C471 C472 1.524 . S
C471 H474 0.999 . S
C472 H442 0.950 . S
C472 C471 1.524 . S
C472 C473 1.415 . S
C473 H443 0.950 . S
C473 C468 1.363 . S
C473 C472 1.415 . S
H474 C471 0.999 . S
H475 C456 0.913 . S
H476 C494 0.951 . S
H477 C496 0.951 . S
H478 C498 0.950 . S
H479 C499 0.950 . S
H480 C501 0.950 . S
H481 C504 0.950 . S
H482 C505 0.950 . S
H483 C507 0.950 . S
H484 C508 0.950 . S
H485 C509 0.951 . S
H486 C511 0.951 . S
H487 C513 0.950 . S
H488 C514 0.950 . S
H489 C516 0.950 . S
H490 C519 0.950 . S
H491 C520 0.950 . S
H492 C522 0.950 . S
H493 C523 0.950 . S
C494 H476 0.951 . S
C494 C495 1.366 . S
C494 C496 1.388 . S
C495 C494 1.366 . S
C495 C499 1.385 . S
C496 H477 0.951 . S
C496 C494 1.388 . S
C496 C497 1.366 . S
C497 C496 1.366 . S
C497 C498 1.414 . S
C497 C500 1.499 . S
C498 H478 0.950 . S
C498 C497 1.414 . S
C498 C499 1.374 . S
C499 H479 0.950 . S
C499 C495 1.385 . S
C499 C498 1.374 . S
C500 C497 1.499 . S
C500 C501 1.373 . S
C500 C502 1.389 . S
C501 H480 0.950 . S
C501 C500 1.373 . S
C501 C517 1.377 . S
C502 C500 1.389 . S
C502 C503 1.524 . S
C502 C516 1.377 . S
C503 C502 1.524 . S
C503 C504 1.397 . S
C503 C508 1.363 . S
C504 H481 0.950 . S
C504 C503 1.397 . S
C504 C505 1.334 . S
C505 H482 0.950 . S
C505 C504 1.334 . S
C505 C506 1.287 . S
C506 C505 1.287 . S
C506 C507 1.524 . S
C506 H525 0.913 . S
C507 H483 0.950 . S
C507 C506 1.524 . S
C507 C508 1.415 . S
C508 H484 0.950 . S
C508 C503 1.363 . S
C508 C507 1.415 . S
C509 H485 0.951 . S
C509 C510 1.366 . S
C509 C511 1.388 . S
C510 C509 1.366 . S
C510 C514 1.385 . S
C511 H486 0.951 . S
C511 C509 1.388 . S
C511 C512 1.366 . S
C512 C511 1.366 . S
C512 C513 1.414 . S
C512 C515 1.499 . S
C513 H487 0.950 . S
C513 C512 1.414 . S
C513 C514 1.374 . S
C514 H488 0.950 . S
C514 C510 1.385 . S
C514 C513 1.374 . S
C515 C512 1.499 . S
C515 C516 1.373 . S
C515 C517 1.389 . S
C516 H489 0.950 . S
C516 C502 1.377 . S
C516 C515 1.373 . S
C517 C501 1.377 . S
C517 C515 1.389 . S
C517 C518 1.524 . S
C518 C517 1.524 . S
C518 C519 1.397 . S
C518 C523 1.363 . S
C519 H490 0.950 . S
C519 C518 1.397 . S
C519 C520 1.334 . S
C520 H491 0.950 . S
C520 C519 1.334 . S
C520 C521 1.287 . S
C521 C520 1.287 . S
C521 C522 1.524 . S
C521 H524 0.999 . S
C522 H492 0.950 . S
C522 C521 1.524 . S
C522 C523 1.415 . S
C523 H493 0.950 . S
C523 C518 1.363 . S
C523 C522 1.415 . S
H524 C521 0.999 . S
H525 C506 0.913 . S
H526 C544 0.951 . S
H527 C546 0.951 . S
H528 C548 0.950 . S
H529 C549 0.950 . S
H530 C551 0.950 . S
H531 C554 0.950 . S
H532 C555 0.950 . S
H533 C557 0.950 . S
H534 C558 0.950 . S
H535 C559 0.951 . S
H536 C561 0.951 . S
H537 C563 0.950 . S
H538 C564 0.950 . S
H539 C566 0.950 . S
H540 C569 0.950 . S
H541 C570 0.950 . S
H542 C572 0.950 . S
H543 C573 0.950 . S
C544 H526 0.951 . S
C544 C545 1.366 . S
C544 C546 1.388 . S
C545 C544 1.366 . S
C545 C549 1.385 . S
C546 H527 0.951 . S
C546 C544 1.388 . S
C546 C547 1.366 . S
C547 C546 1.366 . S
C547 C548 1.414 . S
C547 C550 1.499 . S
C548 H528 0.950 . S
C548 C547 1.414 . S
C548 C549 1.374 . S
C549 H529 0.950 . S
C549 C545 1.385 . S
C549 C548 1.374 . S
C550 C547 1.499 . S
C550 C551 1.373 . S
C550 C552 1.389 . S
C551 H530 0.950 . S
C551 C550 1.373 . S
C551 C567 1.377 . S
C552 C550 1.389 . S
C552 C553 1.524 . S
C552 C566 1.377 . S
C553 C552 1.524 . S
C553 C554 1.397 . S
C553 C558 1.363 . S
C554 H531 0.950 . S
C554 C553 1.397 . S
C554 C555 1.334 . S
C555 H532 0.950 . S
C555 C554 1.334 . S
C555 C556 1.287 . S
C556 C555 1.287 . S
C556 C557 1.524 . S
C556 H575 0.913 . S
C557 H533 0.950 . S
C557 C556 1.524 . S
C557 C558 1.415 . S
C558 H534 0.950 . S
C558 C553 1.363 . S
C558 C557 1.415 . S
C559 H535 0.951 . S
C559 C560 1.366 . S
C559 C561 1.388 . S
C560 C559 1.366 . S
C560 C564 1.385 . S
C561 H536 0.951 . S
C561 C559 1.388 . S
C561 C562 1.366 . S
C562 C561 1.366 . S
C562 C563 1.414 . S
C562 C565 1.499 . S
C563 H537 0.950 . S
C563 C562 1.414 . S
C563 C564 1.374 . S
C564 H538 0.950 . S
C564 C560 1.385 . S
C564 C563 1.374 . S
C565 C562 1.499 . S
C565 C566 1.373 . S
C565 C567 1.389 . S
C566 H539 0.950 . S
C566 C552 1.377 . S
C566 C565 1.373 . S
C567 C551 1.377 . S
C567 C565 1.389 . S
C567 C568 1.524 . S
C568 C567 1.524 . S
C568 C569 1.397 . S
C568 C573 1.363 . S
C569 H540 0.950 . S
C569 C568 1.397 . S
C569 C570 1.334 . S
C570 H541 0.950 . S
C570 C569 1.334 . S
C570 C571 1.287 . S
C571 C570 1.287 . S
C571 C572 1.524 . S
C571 H574 0.999 . S
C572 H542 0.950 . S
C572 C571 1.524 . S
C572 C573 1.415 . S
C573 H543 0.950 . S
C573 C568 1.363 . S
C573 C572 1.415 . S
H574 C571 0.999 . S
H575 C556 0.913 . S
H576 C594 0.951 . S
H577 C596 0.951 . S
H578 C598 0.950 . S
H579 C599 0.950 1_565 S
H580 C601 0.950 . S
H581 C604 0.950 1_565 S
H582 C605 0.950 . S
H583 C607 0.950 . S
H584 C608 0.950 . S
H585 C609 0.951 . S
H586 C611 0.951 . S
H587 C613 0.950 . S
H588 C614 0.950 1_545 S
H589 C616 0.950 . S
H590 C619 0.950 1_545 S
H591 C620 0.950 . S
H592 C622 0.950 . S
H593 C623 0.950 . S
C594 H576 0.951 . S
C594 C595 1.366 . S
C594 C596 1.388 . S
C595 C594 1.366 . S
C595 C599 1.385 . S
C596 H577 0.951 . S
C596 C594 1.388 . S
C596 C597 1.366 . S
C597 C596 1.366 . S
C597 C598 1.414 1_545 S
C597 C600 1.499 . S
C598 H578 0.950 . S
C598 C597 1.414 1_565 S
C598 C599 1.374 1_565 S
C599 H579 0.950 1_545 S
C599 C595 1.385 . S
C599 C598 1.374 1_545 S
C600 C597 1.499 . S
C600 C601 1.373 1_545 S
C600 C602 1.389 1_554 S
C601 H580 0.950 . S
C601 C600 1.373 1_565 S
C601 C617 1.377 . S
C602 C600 1.389 1_556 S
C602 C603 1.524 . S
C602 C616 1.377 . S
C603 C602 1.524 . S
C603 C604 1.397 . S
C603 C608 1.363 . S
C604 H581 0.950 1_545 S
C604 C603 1.397 . S
C604 C605 1.334 . S
C605 H582 0.950 . S
C605 C604 1.334 . S
C605 C606 1.287 . S
C606 C605 1.287 . S
C606 C607 1.524 . S
C606 H625 0.913 . S
C607 H583 0.950 . S
C607 C606 1.524 . S
C607 C608 1.415 . S
C608 H584 0.950 . S
C608 C603 1.363 . S
C608 C607 1.415 . S
C609 H585 0.951 . S
C609 C610 1.366 . S
C609 C611 1.388 . S
C610 C609 1.366 . S
C610 C614 1.385 . S
C611 H586 0.951 . S
C611 C609 1.388 . S
C611 C612 1.366 . S
C612 C611 1.366 . S
C612 C613 1.414 1_565 S
C612 C615 1.499 . S
C613 H587 0.950 . S
C613 C612 1.414 1_545 S
C613 C614 1.374 1_545 S
C614 H588 0.950 1_565 S
C614 C610 1.385 . S
C614 C613 1.374 1_565 S
C615 C612 1.499 . S
C615 C616 1.373 1_565 S
C615 C617 1.389 1_556 S
C616 H589 0.950 . S
C616 C602 1.377 . S
C616 C615 1.373 1_545 S
C617 C601 1.377 . S
C617 C615 1.389 1_554 S
C617 C618 1.524 . S
C618 C617 1.524 . S
C618 C619 1.397 . S
C618 C623 1.363 . S
C619 H590 0.950 1_565 S
C619 C618 1.397 . S
C619 C620 1.334 . S
C620 H591 0.950 . S
C620 C619 1.334 . S
C620 C621 1.287 . S
C621 C620 1.287 . S
C621 C622 1.524 . S
C621 H624 0.999 . S
C622 H592 0.950 . S
C622 C621 1.524 . S
C622 C623 1.415 . S
C623 H593 0.950 . S
C623 C618 1.363 . S
C623 C622 1.415 . S
H624 C621 0.999 . S
H625 C606 0.913 . S
H626 C644 0.951 1_545 S
H627 C646 0.998 . S
H628 C648 0.950 . S
H629 C649 0.950 . S
H630 C651 0.950 . S
H631 C654 0.950 . S
H632 C655 0.950 1_565 S
H633 C657 0.950 . S
H634 C658 0.950 . S
H635 C659 0.951 1_565 S
H636 C661 0.951 . S
H637 C663 0.950 . S
H638 C664 0.950 . S
H639 C666 0.950 . S
H640 C669 0.950 . S
H641 C670 0.950 1_545 S
H642 C672 0.950 . S
H643 C673 0.950 . S
C644 H626 0.951 1_565 S
C644 C645 1.366 . S
C644 C646 1.375 1_565 S
C645 C644 1.366 . S
C645 C649 1.385 . S
C646 H627 0.998 . S
C646 C644 1.375 1_545 S
C646 C647 1.333 1_545 S
C647 C646 1.333 1_565 S
C647 C648 1.414 . S
C647 C650 1.499 . S
C648 H628 0.950 . S
C648 C647 1.414 . S
C648 C649 1.374 . S
C649 H629 0.950 . S
C649 C645 1.385 . S
C649 C648 1.374 . S
C650 C647 1.499 . S
C650 C651 1.373 . S
C650 C652 1.389 1_565 S
C651 H630 0.950 . S
C651 C650 1.373 . S
C651 C667 1.377 . S
C652 C650 1.389 1_545 S
C652 C653 1.524 . S
C652 C666 1.377 . S
C653 C652 1.524 . S
C653 C654 1.397 1_545 S
C653 C658 1.363 . S
C654 H631 0.950 . S
C654 C653 1.397 1_565 S
C654 C655 1.334 1_565 S
C655 H632 0.950 1_545 S
C655 C654 1.334 1_545 S
C655 C656 1.287 . S
C656 C655 1.287 . S
C656 C657 1.524 . S
C656 H675 0.913 . S
C657 H633 0.950 . S
C657 C656 1.524 . S
C657 C658 1.415 . S
C658 H634 0.950 . S
C658 C653 1.363 . S
C658 C657 1.415 . S
C659 H635 0.951 1_545 S
C659 C660 1.366 . S
C659 C661 1.388 1_545 S
C660 C659 1.366 . S
C660 C664 1.385 . S
C661 H636 0.951 . S
C661 C659 1.388 1_565 S
C661 C662 1.366 1_565 S
C662 C661 1.366 1_545 S
C662 C663 1.414 . S
C662 C665 1.499 . S
C663 H637 0.950 . S
C663 C662 1.414 . S
C663 C664 1.374 . S
C664 H638 0.950 . S
C664 C660 1.385 . S
C664 C663 1.374 . S
C665 C662 1.499 . S
C665 C666 1.373 . S
C665 C667 1.389 1_545 S
C666 H639 0.950 . S
C666 C652 1.377 . S
C666 C665 1.373 . S
C667 C651 1.377 . S
C667 C665 1.389 1_565 S
C667 C668 1.524 . S
C668 C667 1.524 . S
C668 C669 1.397 1_565 S
C668 C673 1.363 . S
C669 H640 0.950 . S
C669 C668 1.397 1_545 S
C669 C670 1.334 1_545 S
C670 H641 0.950 1_565 S
C670 C669 1.334 1_565 S
C670 C671 1.287 . S
C671 C670 1.287 . S
C671 C672 1.524 . S
C671 H674 0.999 . S
C672 H642 0.950 . S
C672 C671 1.524 . S
C672 C673 1.415 . S
C673 H643 0.950 . S
C673 C668 1.363 . S
C673 C672 1.415 . S
H674 C671 0.999 . S
H675 C656 0.913 . S
H676 C694 0.951 . S
H677 C696 0.951 . S
H678 C698 0.929 1_556 S
H679 C699 0.950 1_556 S
H680 C701 0.950 . S
H681 C704 0.950 . S
H682 C705 0.950 . S
H683 C707 0.950 . S
H684 C708 0.950 . S
H685 C709 0.951 . S
H686 C711 0.951 . S
H687 C713 0.933 1_554 S
H688 C714 0.950 1_554 S
H689 C716 0.950 . S
H690 C719 0.950 . S
H691 C720 0.950 . S
H692 C722 0.950 . S
H693 C723 0.950 . S
C694 H676 0.951 . S
C694 C695 1.366 . S
C694 C696 1.388 . S
C695 C694 1.366 . S
C695 C699 1.385 . S
C696 H677 0.951 . S
C696 C694 1.388 . S
C696 C697 1.366 . S
C697 C696 1.366 . S
C697 C698 1.424 . S
C697 C700 1.499 . S
C698 H678 0.929 1_554 S
C698 C697 1.424 . S
C698 C699 1.386 . S
C699 H679 0.950 1_554 S
C699 C695 1.385 . S
C699 C698 1.386 . S
C700 C697 1.499 . S
C700 C701 1.373 1_554 S
C700 C702 1.412 . S
C701 H680 0.950 . S
C701 C700 1.373 1_556 S
C701 C717 1.374 . S
C702 C700 1.412 . S
C702 C703 1.530 1_655 S
C702 C716 1.347 1_655 S
C703 C702 1.530 1_455 S
C703 C704 1.397 1_455 S
C703 C708 1.363 . S
C704 H681 0.950 . S
C704 C703 1.397 1_655 S
C704 C705 1.334 . S
C705 H682 0.950 . S
C705 C704 1.334 . S
C705 C706 1.287 1_655 S
C706 C705 1.287 1_455 S
C706 C707 1.524 . S
C706 H725 0.913 . S
C707 H683 0.950 . S
C707 C706 1.524 . S
C707 C708 1.415 . S
C708 H684 0.950 . S
C708 C703 1.363 . S
C708 C707 1.415 . S
C709 H685 0.951 . S
C709 C710 1.366 . S
C709 C711 1.388 . S
C710 C709 1.366 . S
C710 C714 1.385 . S
C711 H686 0.951 . S
C711 C709 1.388 . S
C711 C712 1.366 . S
C712 C711 1.366 . S
C712 C713 1.422 . S
C712 C715 1.499 . S
C713 H687 0.933 1_556 S
C713 C712 1.422 . S
C713 C714 1.383 . S
C714 H688 0.950 1_556 S
C714 C710 1.385 . S
C714 C713 1.383 . S
C715 C712 1.499 . S
C715 C716 1.373 1_556 S
C715 C717 1.391 1_455 S
C716 H689 0.950 . S
C716 C702 1.347 1_455 S
C716 C715 1.373 1_554 S
C717 C701 1.374 . S
C717 C715 1.391 1_655 S
C717 C718 1.525 . S
C718 C717 1.525 . S
C718 C719 1.397 1_655 S
C718 C723 1.363 . S
C719 H690 0.950 . S
C719 C718 1.397 1_455 S
C719 C720 1.334 . S
C720 H691 0.950 . S
C720 C719 1.334 . S
C720 C721 1.287 1_455 S
C721 C720 1.287 1_655 S
C721 C722 1.524 . S
C721 H724 0.999 . S
C722 H692 0.950 . S
C722 C721 1.524 . S
C722 C723 1.415 . S
C723 H693 0.950 . S
C723 C718 1.363 . S
C723 C722 1.415 . S
H724 C721 0.999 . S
H725 C706 0.913 . S
H726 C744 0.951 . S
H727 C746 0.951 . S
H728 C748 0.950 . S
H729 C749 0.950 . S
H730 C751 0.950 . S
H731 C754 0.950 . S
H732 C755 0.950 . S
H733 C757 0.950 . S
H734 C758 0.950 . S
H735 C759 0.951 . S
H736 C761 0.951 . S
H737 C763 0.950 . S
H738 C764 0.950 . S
H739 C766 0.950 . S
H740 C769 0.950 . S
H741 C770 0.950 . S
H742 C772 0.950 . S
H743 C773 0.950 . S
C744 H726 0.951 . S
C744 C745 1.366 . S
C744 C746 1.388 . S
C745 C744 1.366 . S
C745 C749 1.385 . S
C746 H727 0.951 . S
C746 C744 1.388 . S
C746 C747 1.366 . S
C747 C746 1.366 . S
C747 C748 1.414 . S
C747 C750 1.499 . S
C748 H728 0.950 . S
C748 C747 1.414 . S
C748 C749 1.374 . S
C749 H729 0.950 . S
C749 C745 1.385 . S
C749 C748 1.374 . S
C750 C747 1.499 . S
C750 C751 1.373 . S
C750 C752 1.383 1_455 S
C751 H730 0.950 . S
C751 C750 1.373 . S
C751 C767 1.377 . S
C752 C750 1.383 1_655 S
C752 C753 1.524 . S
C752 C766 1.384 . S
C753 C752 1.524 . S
C753 C754 1.397 1_655 S
C753 C758 1.363 . S
C754 H731 0.950 . S
C754 C753 1.397 1_455 S
C754 C755 1.334 . S
C755 H732 0.950 . S
C755 C754 1.334 . S
C755 C756 1.287 1_455 S
C756 C755 1.287 1_655 S
C756 C757 1.524 . S
C756 H775 0.913 . S
C757 H733 0.950 . S
C757 C756 1.524 . S
C757 C758 1.415 . S
C758 H734 0.950 . S
C758 C753 1.363 . S
C758 C757 1.415 . S
C759 H735 0.951 . S
C759 C760 1.366 . S
C759 C761 1.388 . S
C760 C759 1.366 . S
C760 C764 1.385 . S
C761 H736 0.951 . S
C761 C759 1.388 . S
C761 C762 1.366 . S
C762 C761 1.366 . S
C762 C763 1.414 . S
C762 C765 1.499 . S
C763 H737 0.950 . S
C763 C762 1.414 . S
C763 C764 1.374 . S
C764 H738 0.950 . S
C764 C760 1.385 . S
C764 C763 1.374 . S
C765 C762 1.499 . S
C765 C766 1.373 . S
C765 C767 1.389 1_655 S
C766 H739 0.950 . S
C766 C752 1.384 . S
C766 C765 1.373 . S
C767 C751 1.377 . S
C767 C765 1.389 1_455 S
C767 C768 1.524 . S
C768 C767 1.524 . S
C768 C769 1.397 1_455 S
C768 C773 1.363 . S
C769 H740 0.950 . S
C769 C768 1.397 1_655 S
C769 C770 1.334 . S
C770 H741 0.950 . S
C770 C769 1.334 . S
C770 C771 1.287 1_655 S
C771 C770 1.287 1_455 S
C771 C772 1.524 . S
C771 H774 0.999 . S
C772 H742 0.950 . S
C772 C771 1.524 . S
C772 C773 1.415 . S
C773 H743 0.950 . S
C773 C768 1.363 . S
C773 C772 1.415 . S
H774 C771 0.999 . S
H775 C756 0.913 . S
H776 C794 0.951 . S
H777 C796 0.951 1_556 S
H778 C798 0.950 1_565 S
H779 C799 0.950 . S
H780 C801 0.950 . S
H781 C804 0.950 . S
H782 C805 0.950 . S
H783 C807 0.950 . S
H784 C808 0.950 . S
H785 C809 0.951 . S
H786 C811 0.951 1_554 S
H787 C813 0.950 1_545 S
H788 C814 0.950 . S
H789 C816 0.950 . S
H790 C819 0.950 . S
H791 C820 0.950 . S
H792 C822 0.950 . S
H793 C823 0.950 . S
C794 H776 0.951 . S
C794 C795 1.366 . S
C794 C796 1.388 . S
C795 C794 1.366 . S
C795 C799 1.385 . S
C796 H777 0.951 1_554 S
C796 C794 1.388 . S
C796 C797 1.366 . S
C797 C796 1.366 . S
C797 C798 1.414 . S
C797 C800 1.499 . S
C798 H778 0.950 1_545 S
C798 C797 1.414 . S
C798 C799 1.374 . S
C799 H779 0.950 . S
C799 C795 1.385 . S
C799 C798 1.374 . S
C800 C797 1.499 . S
C800 C801 1.373 1_544 S
C800 C802 1.389 . S
C801 H780 0.950 . S
C801 C800 1.373 1_566 S
C801 C817 1.377 1_455 S
C802 C800 1.389 . S
C802 C803 1.524 . S
C802 C816 1.377 1_455 S
C803 C802 1.524 . S
C803 C804 1.397 . S
C803 C808 1.363 1_455 S
C804 H781 0.950 . S
C804 C803 1.397 . S
C804 C805 1.334 . S
C805 H782 0.950 . S
C805 C804 1.334 . S
C805 C806 1.287 . S
C806 C805 1.287 . S
C806 C807 1.524 1_455 S
C806 H825 0.913 . S
C807 H783 0.950 . S
C807 C806 1.524 1_655 S
C807 C808 1.415 . S
C808 H784 0.950 . S
C808 C803 1.363 1_655 S
C808 C807 1.415 . S
C809 H785 0.951 . S
C809 C810 1.366 . S
C809 C811 1.388 . S
C810 C809 1.366 . S
C810 C814 1.385 . S
C811 H786 0.951 1_556 S
C811 C809 1.388 . S
C811 C812 1.366 . S
C812 C811 1.366 . S
C812 C813 1.414 . S
C812 C815 1.499 . S
C813 H787 0.950 1_565 S
C813 C812 1.414 . S
C813 C814 1.374 . S
C814 H788 0.950 . S
C814 C810 1.385 . S
C814 C813 1.374 . S
C815 C812 1.499 . S
C815 C816 1.373 1_566 S
C815 C817 1.389 . S
C816 H789 0.950 . S
C816 C802 1.377 1_655 S
C816 C815 1.373 1_544 S
C817 C801 1.377 1_655 S
C817 C815 1.389 . S
C817 C818 1.524 . S
C818 C817 1.524 . S
C818 C819 1.397 . S
C818 C823 1.363 1_655 S
C819 H790 0.950 . S
C819 C818 1.397 . S
C819 C820 1.334 . S
C820 H791 0.950 . S
C820 C819 1.334 . S
C820 C821 1.287 . S
C821 C820 1.287 . S
C821 C822 1.524 1_655 S
C821 H824 0.999 . S
C822 H792 0.950 . S
C822 C821 1.524 1_455 S
C822 C823 1.415 . S
C823 H793 0.950 . S
C823 C818 1.363 1_455 S
C823 C822 1.415 . S
H824 C821 0.999 . S
H825 C806 0.913 . S
H826 C844 0.951 . S
H827 C846 0.951 . S
H828 C848 0.950 1_565 S
H829 C849 0.950 . S
H830 C851 0.950 . S
H831 C854 0.950 . S
H832 C855 0.950 . S
H833 C857 0.950 . S
H834 C858 0.950 . S
H835 C859 0.951 . S
H836 C861 0.951 . S
H837 C863 0.950 1_545 S
H838 C864 0.950 . S
H839 C866 0.950 . S
H840 C869 0.950 . S
H841 C870 0.950 . S
H842 C872 0.950 . S
H843 C873 0.950 . S
C844 H826 0.951 . S
C844 C845 1.366 . S
C844 C846 1.388 . S
C845 C844 1.366 . S
C845 C849 1.385 . S
C846 H827 0.951 . S
C846 C844 1.388 . S
C846 C847 1.366 . S
C847 C846 1.366 . S
C847 C848 1.414 . S
C847 C850 1.499 . S
C848 H828 0.950 1_545 S
C848 C847 1.414 . S
C848 C849 1.374 . S
C849 H829 0.950 . S
C849 C845 1.385 . S
C849 C848 1.374 . S
C850 C847 1.499 . S
C850 C851 1.373 1_545 S
C850 C852 1.389 . S
C851 H830 0.950 . S
C851 C850 1.373 1_565 S
C851 C867 1.377 1_655 S
C852 C850 1.389 . S
C852 C853 1.524 . S
C852 C866 1.377 1_655 S
C853 C852 1.524 . S
C853 C854 1.397 . S
C853 C858 1.363 1_655 S
C854 H831 0.950 . S
C854 C853 1.397 . S
C854 C855 1.334 . S
C855 H832 0.950 . S
C855 C854 1.334 . S
C855 C856 1.287 . S
C856 C855 1.287 . S
C856 C857 1.524 1_655 S
C856 H875 0.913 . S
C857 H833 0.950 . S
C857 C856 1.524 1_455 S
C857 C858 1.415 . S
C858 H834 0.950 . S
C858 C853 1.363 1_455 S
C858 C857 1.415 . S
C859 H835 0.951 . S
C859 C860 1.366 . S
C859 C861 1.388 . S
C860 C859 1.366 . S
C860 C864 1.385 . S
C861 H836 0.951 . S
C861 C859 1.388 . S
C861 C862 1.366 . S
C862 C861 1.366 . S
C862 C863 1.414 . S
C862 C865 1.499 . S
C863 H837 0.950 1_565 S
C863 C862 1.414 . S
C863 C864 1.374 . S
C864 H838 0.950 . S
C864 C860 1.385 . S
C864 C863 1.374 . S
C865 C862 1.499 . S
C865 C866 1.373 1_565 S
C865 C867 1.389 . S
C866 H839 0.950 . S
C866 C852 1.377 1_455 S
C866 C865 1.373 1_545 S
C867 C851 1.377 1_455 S
C867 C865 1.389 . S
C867 C868 1.524 . S
C868 C867 1.524 . S
C868 C869 1.397 . S
C868 C873 1.363 1_455 S
C869 H840 0.950 . S
C869 C868 1.397 . S
C869 C870 1.334 . S
C870 H841 0.950 . S
C870 C869 1.334 . S
C870 C871 1.287 . S
C871 C870 1.287 . S
C871 C872 1.524 1_455 S
C871 H874 0.999 . S
C872 H842 0.950 . S
C872 C871 1.524 1_655 S
C872 C873 1.415 . S
C873 H843 0.950 . S
C873 C868 1.363 1_655 S
C873 C872 1.415 . S
H874 C871 0.999 . S
H875 C856 0.913 . S
H876 C894 0.951 . S
H877 C896 0.951 . S
H878 C898 0.950 . S
H879 C899 0.950 . S
H880 C901 0.950 . S
H881 C904 0.950 . S
H882 C905 0.950 . S
H883 C907 0.950 . S
H884 C908 0.950 . S
H885 C909 0.951 . S
H886 C911 0.951 . S
H887 C913 0.950 . S
H888 C914 0.950 . S
H889 C916 0.950 . S
H890 C919 0.950 . S
H891 C920 0.950 . S
H892 C922 0.950 . S
H893 C923 0.950 . S
C894 H876 0.951 . S
C894 C895 1.366 1_554 S
C894 C896 1.388 . S
C895 C894 1.366 1_556 S
C895 C899 1.385 . S
C896 H877 0.951 . S
C896 C894 1.388 . S
C896 C897 1.366 1_554 S
C897 C896 1.366 1_556 S
C897 C898 1.414 . S
C897 C900 1.499 . S
C898 H878 0.950 . S
C898 C897 1.414 . S
C898 C899 1.374 . S
C899 H879 0.950 . S
C899 C895 1.385 . S
C899 C898 1.374 . S
C900 C897 1.499 . S
C900 C901 1.373 . S
C900 C902 1.389 . S
C901 H880 0.950 . S
C901 C900 1.373 . S
C901 C917 1.377 1_556 S
C902 C900 1.389 . S
C902 C903 1.524 . S
C902 C916 1.377 1_556 S
C903 C902 1.524 . S
C903 C904 1.397 . S
C903 C908 1.363 1_556 S
C904 H881 0.950 . S
C904 C903 1.397 . S
C904 C905 1.334 . S
C905 H882 0.950 . S
C905 C904 1.334 . S
C905 C906 1.287 . S
C906 C905 1.287 . S
C906 C907 1.524 1_556 S
C906 H925 0.913 . S
C907 H883 0.950 . S
C907 C906 1.524 1_554 S
C907 C908 1.415 . S
C908 H884 0.950 . S
C908 C903 1.363 1_554 S
C908 C907 1.415 . S
C909 H885 0.951 . S
C909 C910 1.366 1_556 S
C909 C911 1.388 . S
C910 C909 1.366 1_554 S
C910 C914 1.385 . S
C911 H886 0.951 . S
C911 C909 1.388 . S
C911 C912 1.366 1_556 S
C912 C911 1.366 1_554 S
C912 C913 1.414 . S
C912 C915 1.499 . S
C913 H887 0.950 . S
C913 C912 1.414 . S
C913 C914 1.374 . S
C914 H888 0.950 . S
C914 C910 1.385 . S
C914 C913 1.374 . S
C915 C912 1.499 . S
C915 C916 1.373 . S
C915 C917 1.389 . S
C916 H889 0.950 . S
C916 C902 1.377 1_554 S
C916 C915 1.373 . S
C917 C901 1.377 1_554 S
C917 C915 1.389 . S
C917 C918 1.524 . S
C918 C917 1.524 . S
C918 C919 1.397 . S
C918 C923 1.363 1_554 S
C919 H890 0.950 . S
C919 C918 1.397 . S
C919 C920 1.334 . S
C920 H891 0.950 . S
C920 C919 1.334 . S
C920 C921 1.287 . S
C921 C920 1.287 . S
C921 C922 1.524 1_554 S
C921 H924 0.999 . S
C922 H892 0.950 . S
C922 C921 1.524 1_556 S
C922 C923 1.415 . S
C923 H893 0.950 . S
C923 C918 1.363 1_556 S
C923 C922 1.415 . S
H924 C921 0.999 . S
H925 C906 0.913 . S
H926 C944 0.951 . S
H927 C946 0.951 . S
H928 C948 0.950 . S
H929 C949 0.950 . S
H930 C951 0.950 . S
H931 C954 0.950 . S
H932 C955 0.950 . S
H933 C957 0.950 . S
H934 C958 0.950 . S
H935 C959 0.951 . S
H936 C961 0.951 . S
H937 C963 0.950 . S
H938 C964 0.950 . S
H939 C966 0.950 . S
H940 C969 0.950 . S
H941 C970 0.950 . S
H942 C972 0.950 . S
H943 C973 0.950 . S
C944 H926 0.951 . S
C944 C945 1.366 . S
C944 C946 1.388 . S
C945 C944 1.366 . S
C945 C949 1.385 . S
C946 H927 0.951 . S
C946 C944 1.388 . S
C946 C947 1.366 . S
C947 C946 1.366 . S
C947 C948 1.414 . S
C947 C950 1.499 . S
C948 H928 0.950 . S
C948 C947 1.414 . S
C948 C949 1.374 . S
C949 H929 0.950 . S
C949 C945 1.385 . S
C949 C948 1.374 . S
C950 C947 1.499 . S
C950 C951 1.373 . S
C950 C952 1.389 . S
C951 H930 0.950 . S
C951 C950 1.373 . S
C951 C967 1.377 . S
C952 C950 1.389 . S
C952 C953 1.524 . S
C952 C966 1.377 . S
C953 C952 1.524 . S
C953 C954 1.397 . S
C953 C958 1.363 . S
C954 H931 0.950 . S
C954 C953 1.397 . S
C954 C955 1.334 . S
C955 H932 0.950 . S
C955 C954 1.334 . S
C955 C956 1.287 . S
C956 C955 1.287 . S
C956 C957 1.524 . S
C956 H975 0.913 . S
C957 H933 0.950 . S
C957 C956 1.524 . S
C957 C958 1.415 . S
C958 H934 0.950 . S
C958 C953 1.363 . S
C958 C957 1.415 . S
C959 H935 0.951 . S
C959 C960 1.366 . S
C959 C961 1.388 . S
C960 C959 1.366 . S
C960 C964 1.385 . S
C961 H936 0.951 . S
C961 C959 1.388 . S
C961 C962 1.366 . S
C962 C961 1.366 . S
C962 C963 1.414 . S
C962 C965 1.499 . S
C963 H937 0.950 . S
C963 C962 1.414 . S
C963 C964 1.374 . S
C964 H938 0.950 . S
C964 C960 1.385 . S
C964 C963 1.374 . S
C965 C962 1.499 . S
C965 C966 1.373 . S
C965 C967 1.389 . S
C966 H939 0.950 . S
C966 C952 1.377 . S
C966 C965 1.373 . S
C967 C951 1.377 . S
C967 C965 1.389 . S
C967 C968 1.524 . S
C968 C967 1.524 . S
C968 C969 1.397 . S
C968 C973 1.363 . S
C969 H940 0.950 . S
C969 C968 1.397 . S
C969 C970 1.334 . S
C970 H941 0.950 . S
C970 C969 1.334 . S
C970 C971 1.287 . S
C971 C970 1.287 . S
C971 C972 1.524 . S
C971 H974 0.999 . S
C972 H942 0.950 . S
C972 C971 1.524 . S
C972 C973 1.415 . S
C973 H943 0.950 . S
C973 C968 1.363 . S
C973 C972 1.415 . S
H974 C971 0.999 . S
H975 C956 0.913 . S
H976 C994 0.951 . S
H977 C996 0.951 . S
H978 C998 0.950 . S
H979 C999 0.950 . S
H980 C1001 0.950 . S
H981 C1004 0.950 . S
H982 C1005 0.950 . S
H983 C1007 0.950 . S
H984 C1008 0.950 . S
H985 C1009 0.951 . S
H986 C1011 0.951 . S
H987 C1013 0.950 . S
H988 C1014 0.950 . S
H989 C1016 0.950 . S
H990 C1019 0.950 . S
H991 C1020 0.950 . S
H992 C1022 0.950 . S
H993 C1023 0.950 . S
C994 H976 0.951 . S
C994 C995 1.366 . S
C994 C996 1.388 . S
C995 C994 1.366 . S
C995 C999 1.385 . S
C996 H977 0.951 . S
C996 C994 1.388 . S
C996 C997 1.366 . S
C997 C996 1.366 . S
C997 C998 1.414 . S
C997 C1000 1.499 . S
C998 H978 0.950 . S
C998 C997 1.414 . S
C998 C999 1.374 . S
C999 H979 0.950 . S
C999 C995 1.385 . S
C999 C998 1.374 . S
C1000 C997 1.499 . S
C1000 C1001 1.373 . S
C1000 C1002 1.389 . S
C1001 H980 0.950 . S
C1001 C1000 1.373 . S
C1001 C1017 1.377 . S
C1002 C1000 1.389 . S
C1002 C1003 1.524 . S
C1002 C1016 1.377 . S
C1003 C1002 1.524 . S
C1003 C1004 1.397 . S
C1003 C1008 1.363 . S
C1004 H981 0.950 . S
C1004 C1003 1.397 . S
C1004 C1005 1.334 . S
C1005 H982 0.950 . S
C1005 C1004 1.334 . S
C1005 C1006 1.287 . S
C1006 C1005 1.287 . S
C1006 C1007 1.524 . S
C1006 H1025 0.913 . S
C1007 H983 0.950 . S
C1007 C1006 1.524 . S
C1007 C1008 1.415 . S
C1008 H984 0.950 . S
C1008 C1003 1.363 . S
C1008 C1007 1.415 . S
C1009 H985 0.951 . S
C1009 C1010 1.366 . S
C1009 C1011 1.388 . S
C1010 C1009 1.366 . S
C1010 C1014 1.385 . S
C1011 H986 0.951 . S
C1011 C1009 1.388 . S
C1011 C1012 1.366 . S
C1012 C1011 1.366 . S
C1012 C1013 1.414 . S
C1012 C1015 1.499 . S
C1013 H987 0.950 . S
C1013 C1012 1.414 . S
C1013 C1014 1.374 . S
C1014 H988 0.950 . S
C1014 C1010 1.385 . S
C1014 C1013 1.374 . S
C1015 C1012 1.499 . S
C1015 C1016 1.373 . S
C1015 C1017 1.389 . S
C1016 H989 0.950 . S
C1016 C1002 1.377 . S
C1016 C1015 1.373 . S
C1017 C1001 1.377 . S
C1017 C1015 1.389 . S
C1017 C1018 1.524 . S
C1018 C1017 1.524 . S
C1018 C1019 1.397 . S
C1018 C1023 1.363 . S
C1019 H990 0.950 . S
C1019 C1018 1.397 . S
C1019 C1020 1.334 . S
C1020 H991 0.950 . S
C1020 C1019 1.334 . S
C1020 C1021 1.287 . S
C1021 C1020 1.287 . S
C1021 C1022 1.524 . S
C1021 H1024 0.999 . S
C1022 H992 0.950 . S
C1022 C1021 1.524 . S
C1022 C1023 1.415 . S
C1023 H993 0.950 . S
C1023 C1018 1.363 . S
C1023 C1022 1.415 . S
H1024 C1021 0.999 . S
H1025 C1006 0.913 . S
H1026 C1044 0.951 . S
H1027 C1046 0.951 . S
H1028 C1048 0.950 . S
H1029 C1049 0.950 . S
H1030 C1051 0.950 . S
H1031 C1054 0.950 . S
H1032 C1055 0.950 . S
H1033 C1057 0.950 . S
H1034 C1058 0.950 . S
H1035 C1059 0.951 . S
H1036 C1061 0.951 . S
H1037 C1063 0.950 . S
H1038 C1064 0.950 . S
H1039 C1066 0.950 . S
H1040 C1069 0.950 . S
H1041 C1070 0.950 . S
H1042 C1072 0.950 . S
H1043 C1073 0.950 . S
C1044 H1026 0.951 . S
C1044 C1045 1.366 . S
C1044 C1046 1.388 . S
C1045 C1044 1.366 . S
C1045 C1049 1.385 . S
C1046 H1027 0.951 . S
C1046 C1044 1.388 . S
C1046 C1047 1.366 . S
C1047 C1046 1.366 . S
C1047 C1048 1.414 . S
C1047 C1050 1.499 . S
C1048 H1028 0.950 . S
C1048 C1047 1.414 . S
C1048 C1049 1.374 . S
C1049 H1029 0.950 . S
C1049 C1045 1.385 . S
C1049 C1048 1.374 . S
C1050 C1047 1.499 . S
C1050 C1051 1.373 . S
C1050 C1052 1.389 . S
C1051 H1030 0.950 . S
C1051 C1050 1.373 . S
C1051 C1067 1.377 . S
C1052 C1050 1.389 . S
C1052 C1053 1.524 . S
C1052 C1066 1.377 . S
C1053 C1052 1.524 . S
C1053 C1054 1.397 . S
C1053 C1058 1.363 . S
C1054 H1031 0.950 . S
C1054 C1053 1.397 . S
C1054 C1055 1.334 . S
C1055 H1032 0.950 . S
C1055 C1054 1.334 . S
C1055 C1056 1.287 . S
C1056 C1055 1.287 . S
C1056 C1057 1.524 . S
C1056 H1075 0.913 . S
C1057 H1033 0.950 . S
C1057 C1056 1.524 . S
C1057 C1058 1.415 . S
C1058 H1034 0.950 . S
C1058 C1053 1.363 . S
C1058 C1057 1.415 . S
C1059 H1035 0.951 . S
C1059 C1060 1.366 . S
C1059 C1061 1.388 . S
C1060 C1059 1.366 . S
C1060 C1064 1.385 . S
C1061 H1036 0.951 . S
C1061 C1059 1.388 . S
C1061 C1062 1.366 . S
C1062 C1061 1.366 . S
C1062 C1063 1.414 . S
C1062 C1065 1.499 . S
C1063 H1037 0.950 . S
C1063 C1062 1.414 . S
C1063 C1064 1.374 . S
C1064 H1038 0.950 . S
C1064 C1060 1.385 . S
C1064 C1063 1.374 . S
C1065 C1062 1.499 . S
C1065 C1066 1.373 . S
C1065 C1067 1.389 . S
C1066 H1039 0.950 . S
C1066 C1052 1.377 . S
C1066 C1065 1.373 . S
C1067 C1051 1.377 . S
C1067 C1065 1.389 . S
C1067 C1068 1.524 . S
C1068 C1067 1.524 . S
C1068 C1069 1.397 . S
C1068 C1073 1.363 . S
C1069 H1040 0.950 . S
C1069 C1068 1.397 . S
C1069 C1070 1.334 . S
C1070 H1041 0.950 . S
C1070 C1069 1.334 . S
C1070 C1071 1.287 . S
C1071 C1070 1.287 . S
C1071 C1072 1.524 . S
C1071 H1074 0.999 . S
C1072 H1042 0.950 . S
C1072 C1071 1.524 . S
C1072 C1073 1.415 . S
C1073 H1043 0.950 . S
C1073 C1068 1.363 . S
C1073 C1072 1.415 . S
H1074 C1071 0.999 . S
H1075 C1056 0.913 . S
H1076 C1094 0.951 . S
H1077 C1096 0.951 . S
H1078 C1098 0.950 . S
H1079 C1099 0.950 . S
H1080 C1101 0.950 . S
H1081 C1104 0.950 1_655 S
H1082 C1105 0.950 . S
H1083 C1107 0.950 . S
H1084 C1108 0.950 . S
H1085 C1109 0.951 . S
H1086 C1111 0.951 . S
H1087 C1113 0.950 . S
H1088 C1114 0.950 . S
H1089 C1116 0.950 . S
H1090 C1119 0.950 1_455 S
H1091 C1120 0.950 . S
H1092 C1122 0.950 . S
H1093 C1123 0.950 . S
C1094 H1076 0.951 . S
C1094 C1095 1.366 . S
C1094 C1096 1.388 . S
C1095 C1094 1.366 . S
C1095 C1099 1.385 . S
C1096 H1077 0.951 . S
C1096 C1094 1.388 . S
C1096 C1097 1.366 . S
C1097 C1096 1.366 . S
C1097 C1098 1.414 . S
C1097 C1100 1.499 . S
C1098 H1078 0.950 . S
C1098 C1097 1.414 . S
C1098 C1099 1.374 . S
C1099 H1079 0.950 . S
C1099 C1095 1.385 . S
C1099 C1098 1.374 . S
C1100 C1097 1.499 . S
C1100 C1101 1.373 . S
C1100 C1102 1.389 1_655 S
C1101 H1080 0.950 . S
C1101 C1100 1.373 . S
C1101 C1117 1.377 . S
C1102 C1100 1.389 1_455 S
C1102 C1103 1.524 . S
C1102 C1116 1.377 . S
C1103 C1102 1.524 . S
C1103 C1104 1.397 . S
C1103 C1108 1.363 . S
C1104 H1081 0.950 1_455 S
C1104 C1103 1.397 . S
C1104 C1105 1.334 . S
C1105 H1082 0.950 . S
C1105 C1104 1.334 . S
C1105 C1106 1.287 . S
C1106 C1105 1.287 . S
C1106 C1107 1.524 . S
C1106 H1125 0.913 . S
C1107 H1083 0.950 . S
C1107 C1106 1.524 . S
C1107 C1108 1.415 . S
C1108 H1084 0.950 . S
C1108 C1103 1.363 . S
C1108 C1107 1.415 . S
C1109 H1085 0.951 . S
C1109 C1110 1.366 . S
C1109 C1111 1.388 . S
C1110 C1109 1.366 . S
C1110 C1114 1.385 . S
C1111 H1086 0.951 . S
C1111 C1109 1.388 . S
C1111 C1112 1.366 . S
C1112 C1111 1.366 . S
C1112 C1113 1.414 . S
C1112 C1115 1.499 . S
C1113 H1087 0.950 . S
C1113 C1112 1.414 . S
C1113 C1114 1.374 . S
C1114 H1088 0.950 . S
C1114 C1110 1.385 . S
C1114 C1113 1.374 . S
C1115 C1112 1.499 . S
C1115 C1116 1.373 . S
C1115 C1117 1.389 1_455 S
C1116 H1089 0.950 . S
C1116 C1102 1.377 . S
C1116 C1115 1.373 . S
C1117 C1101 1.377 . S
C1117 C1115 1.389 1_655 S
C1117 C1118 1.524 . S
C1118 C1117 1.524 . S
C1118 C1119 1.397 . S
C1118 C1123 1.363 . S
C1119 H1090 0.950 1_655 S
C1119 C1118 1.397 . S
C1119 C1120 1.334 . S
C1120 H1091 0.950 . S
C1120 C1119 1.334 . S
C1120 C1121 1.287 . S
C1121 C1120 1.287 . S
C1121 C1122 1.524 . S
C1121 H1124 0.999 . S
C1122 H1092 0.950 . S
C1122 C1121 1.524 . S
C1122 C1123 1.415 . S
C1123 H1093 0.950 . S
C1123 C1118 1.363 . S
C1123 C1122 1.415 . S
H1124 C1121 0.999 . S
H1125 C1106 0.913 . S
H1126 C1144 0.951 . S
H1127 C1146 0.951 . S
H1128 C1148 0.950 . S
H1129 C1149 0.950 . S
H1130 C1151 0.950 . S
H1131 C1154 0.950 . S
H1132 C1155 0.950 . S
H1133 C1157 0.950 . S
H1134 C1158 0.950 . S
H1135 C1159 0.951 . S
H1136 C1161 0.951 . S
H1137 C1163 0.950 . S
H1138 C1164 0.950 . S
H1139 C1166 0.950 . S
H1140 C1169 0.950 . S
H1141 C1170 0.950 . S
H1142 C1172 0.950 . S
H1143 C1173 0.950 . S
C1144 H1126 0.951 . S
C1144 C1145 1.366 . S
C1144 C1146 1.388 . S
C1145 C1144 1.366 . S
C1145 C1149 1.385 . S
C1146 H1127 0.951 . S
C1146 C1144 1.388 . S
C1146 C1147 1.366 . S
C1147 C1146 1.366 . S
C1147 C1148 1.414 . S
C1147 C1150 1.499 . S
C1148 H1128 0.950 . S
C1148 C1147 1.414 . S
C1148 C1149 1.374 . S
C1149 H1129 0.950 . S
C1149 C1145 1.385 . S
C1149 C1148 1.374 . S
C1150 C1147 1.499 . S
C1150 C1151 1.373 . S
C1150 C1152 1.389 . S
C1151 H1130 0.950 . S
C1151 C1150 1.373 . S
C1151 C1167 1.377 1_655 S
C1152 C1150 1.389 . S
C1152 C1153 1.524 . S
C1152 C1166 1.377 1_655 S
C1153 C1152 1.524 . S
C1153 C1154 1.397 . S
C1153 C1158 1.363 . S
C1154 H1131 0.950 . S
C1154 C1153 1.397 . S
C1154 C1155 1.334 . S
C1155 H1132 0.950 . S
C1155 C1154 1.334 . S
C1155 C1156 1.287 . S
C1156 C1155 1.287 . S
C1156 C1157 1.524 . S
C1156 H1175 0.913 . S
C1157 H1133 0.950 . S
C1157 C1156 1.524 . S
C1157 C1158 1.415 . S
C1158 H1134 0.950 . S
C1158 C1153 1.363 . S
C1158 C1157 1.415 . S
C1159 H1135 0.951 . S
C1159 C1160 1.366 . S
C1159 C1161 1.388 . S
C1160 C1159 1.366 . S
C1160 C1164 1.385 . S
C1161 H1136 0.951 . S
C1161 C1159 1.388 . S
C1161 C1162 1.366 . S
C1162 C1161 1.366 . S
C1162 C1163 1.414 . S
C1162 C1165 1.499 . S
C1163 H1137 0.950 . S
C1163 C1162 1.414 . S
C1163 C1164 1.374 . S
C1164 H1138 0.950 . S
C1164 C1160 1.385 . S
C1164 C1163 1.374 . S
C1165 C1162 1.499 . S
C1165 C1166 1.373 . S
C1165 C1167 1.389 . S
C1166 H1139 0.950 . S
C1166 C1152 1.377 1_455 S
C1166 C1165 1.373 . S
C1167 C1151 1.377 1_455 S
C1167 C1165 1.389 . S
C1167 C1168 1.524 . S
C1168 C1167 1.524 . S
C1168 C1169 1.397 . S
C1168 C1173 1.363 . S
C1169 H1140 0.950 . S
C1169 C1168 1.397 . S
C1169 C1170 1.334 . S
C1170 H1141 0.950 . S
C1170 C1169 1.334 . S
C1170 C1171 1.287 . S
C1171 C1170 1.287 . S
C1171 C1172 1.524 . S
C1171 H1174 0.999 . S
C1172 H1142 0.950 . S
C1172 C1171 1.524 . S
C1172 C1173 1.415 . S
C1173 H1143 0.950 . S
C1173 C1168 1.363 . S
C1173 C1172 1.415 . S
H1174 C1171 0.999 . S
H1175 C1156 0.913 . S
H1176 C1194 0.951 . S
H1177 C1196 0.950 1_556 S
H1178 C1198 0.950 . S
H1179 C1199 0.950 . S
H1180 C1201 0.950 . S
H1181 C1204 0.950 . S
H1182 C1205 0.950 . S
H1183 C1207 0.950 . S
H1184 C1208 0.950 . S
H1185 C1209 0.951 . S
H1186 C1211 0.951 1_554 S
H1187 C1213 0.950 . S
H1188 C1214 0.950 . S
H1189 C1216 0.950 . S
H1190 C1219 0.950 . S
H1191 C1220 0.950 . S
H1192 C1222 0.950 . S
H1193 C1223 0.950 . S
C1194 H1176 0.951 . S
C1194 C1195 1.366 . S
C1194 C1196 1.388 . S
C1195 C1194 1.366 . S
C1195 C1199 1.385 . S
C1196 H1177 0.950 1_554 S
C1196 C1194 1.388 . S
C1196 C1197 1.366 . S
C1197 C1196 1.366 . S
C1197 C1198 1.414 . S
C1197 C1200 1.499 . S
C1198 H1178 0.950 . S
C1198 C1197 1.414 . S
C1198 C1199 1.374 . S
C1199 H1179 0.950 . S
C1199 C1195 1.385 . S
C1199 C1198 1.374 . S
C1200 C1197 1.499 . S
C1200 C1201 1.373 . S
C1200 C1202 1.389 1_554 S
C1201 H1180 0.950 . S
C1201 C1200 1.373 . S
C1201 C1217 1.377 . S
C1202 C1200 1.389 1_556 S
C1202 C1203 1.524 . S
C1202 C1216 1.377 . S
C1203 C1202 1.524 . S
C1203 C1204 1.397 . S
C1203 C1208 1.363 . S
C1204 H1181 0.950 . S
C1204 C1203 1.397 . S
C1204 C1205 1.334 . S
C1205 H1182 0.950 . S
C1205 C1204 1.334 . S
C1205 C1206 1.287 . S
C1206 C1205 1.287 . S
C1206 C1207 1.524 . S
C1206 H1225 0.913 . S
C1207 H1183 0.950 . S
C1207 C1206 1.524 . S
C1207 C1208 1.415 . S
C1208 H1184 0.950 . S
C1208 C1203 1.363 . S
C1208 C1207 1.415 . S
C1209 H1185 0.951 . S
C1209 C1210 1.366 . S
C1209 C1211 1.388 . S
C1210 C1209 1.366 . S
C1210 C1214 1.385 . S
C1211 H1186 0.951 1_556 S
C1211 C1209 1.388 . S
C1211 C1212 1.366 . S
C1212 C1211 1.366 . S
C1212 C1213 1.414 . S
C1212 C1215 1.499 . S
C1213 H1187 0.950 . S
C1213 C1212 1.414 . S
C1213 C1214 1.374 . S
C1214 H1188 0.950 . S
C1214 C1210 1.385 . S
C1214 C1213 1.374 . S
C1215 C1212 1.499 . S
C1215 C1216 1.373 . S
C1215 C1217 1.389 1_556 S
C1216 H1189 0.950 . S
C1216 C1202 1.377 . S
C1216 C1215 1.373 . S
C1217 C1201 1.377 . S
C1217 C1215 1.389 1_554 S
C1217 C1218 1.524 . S
C1218 C1217 1.524 . S
C1218 C1219 1.397 . S
C1218 C1223 1.363 . S
C1219 H1190 0.950 . S
C1219 C1218 1.397 . S
C1219 C1220 1.334 . S
C1220 H1191 0.950 . S
C1220 C1219 1.334 . S
C1220 C1221 1.287 . S
C1221 C1220 1.287 . S
C1221 C1222 1.524 . S
C1221 H1224 0.999 . S
C1222 H1192 0.950 . S
C1222 C1221 1.524 . S
C1222 C1223 1.415 . S
C1223 H1193 0.950 . S
C1223 C1218 1.363 . S
C1223 C1222 1.415 . S
H1224 C1221 0.999 . S
H1225 C1206 0.913 . S
H1226 C1244 0.951 . S
H1227 C1246 0.951 . S
H1228 C1248 0.950 . S
H1229 C1249 0.950 . S
H1230 C1251 0.950 . S
H1231 C1254 0.950 . S
H1232 C1255 0.950 . S
H1233 C1257 0.950 . S
H1234 C1258 0.950 . S
H1235 C1259 0.951 . S
H1236 C1261 0.951 . S
H1237 C1263 0.950 . S
H1238 C1264 0.950 . S
H1239 C1266 0.950 . S
H1240 C1269 0.950 . S
H1241 C1270 0.950 . S
H1242 C1272 0.950 . S
H1243 C1273 0.950 . S
C1244 H1226 0.951 . S
C1244 C1245 1.366 . S
C1244 C1246 1.388 . S
C1245 C1244 1.366 . S
C1245 C1249 1.385 . S
C1246 H1227 0.951 . S
C1246 C1244 1.388 . S
C1246 C1247 1.366 . S
C1247 C1246 1.366 . S
C1247 C1248 1.414 . S
C1247 C1250 1.499 . S
C1248 H1228 0.950 . S
C1248 C1247 1.414 . S
C1248 C1249 1.374 . S
C1249 H1229 0.950 . S
C1249 C1245 1.385 . S
C1249 C1248 1.374 . S
C1250 C1247 1.499 . S
C1250 C1251 1.373 . S
C1250 C1252 1.389 . S
C1251 H1230 0.950 . S
C1251 C1250 1.373 . S
C1251 C1267 1.377 . S
C1252 C1250 1.389 . S
C1252 C1253 1.524 . S
C1252 C1266 1.377 . S
C1253 C1252 1.524 . S
C1253 C1254 1.397 . S
C1253 C1258 1.363 . S
C1254 H1231 0.950 . S
C1254 C1253 1.397 . S
C1254 C1255 1.334 . S
C1255 H1232 0.950 . S
C1255 C1254 1.334 . S
C1255 C1256 1.287 . S
C1256 C1255 1.287 . S
C1256 C1257 1.524 . S
C1256 H1275 0.913 . S
C1257 H1233 0.950 . S
C1257 C1256 1.524 . S
C1257 C1258 1.415 . S
C1258 H1234 0.950 . S
C1258 C1253 1.363 . S
C1258 C1257 1.415 . S
C1259 H1235 0.951 . S
C1259 C1260 1.366 . S
C1259 C1261 1.388 . S
C1260 C1259 1.366 . S
C1260 C1264 1.385 . S
C1261 H1236 0.951 . S
C1261 C1259 1.388 . S
C1261 C1262 1.366 . S
C1262 C1261 1.366 . S
C1262 C1263 1.414 . S
C1262 C1265 1.499 . S
C1263 H1237 0.950 . S
C1263 C1262 1.414 . S
C1263 C1264 1.374 . S
C1264 H1238 0.950 . S
C1264 C1260 1.385 . S
C1264 C1263 1.374 . S
C1265 C1262 1.499 . S
C1265 C1266 1.373 . S
C1265 C1267 1.389 . S
C1266 H1239 0.950 . S
C1266 C1252 1.377 . S
C1266 C1265 1.373 . S
C1267 C1251 1.377 . S
C1267 C1265 1.389 . S
C1267 C1268 1.524 . S
C1268 C1267 1.524 . S
C1268 C1269 1.397 . S
C1268 C1273 1.363 . S
C1269 H1240 0.950 . S
C1269 C1268 1.397 . S
C1269 C1270 1.334 . S
C1270 H1241 0.950 . S
C1270 C1269 1.334 . S
C1270 C1271 1.287 . S
C1271 C1270 1.287 . S
C1271 C1272 1.524 . S
C1271 H1274 0.999 . S
C1272 H1242 0.950 . S
C1272 C1271 1.524 . S
C1272 C1273 1.415 . S
C1273 H1243 0.950 . S
C1273 C1268 1.363 . S
C1273 C1272 1.415 . S
H1274 C1271 0.999 . S
H1275 C1256 0.913 . S
H1276 C1294 0.951 . S
H1277 C1296 0.951 1_554 S
H1278 C1298 0.950 . S
H1279 C1299 0.950 . S
H1280 C1301 0.950 . S
H1281 C1304 0.950 . S
H1282 C1305 0.950 . S
H1283 C1307 0.950 . S
H1284 C1308 0.950 . S
H1285 C1309 0.951 . S
H1286 C1311 0.951 1_556 S
H1287 C1313 0.950 . S
H1288 C1314 0.950 . S
H1289 C1316 0.950 . S
H1290 C1319 0.950 . S
H1291 C1320 0.950 . S
H1292 C1322 0.950 . S
H1293 C1323 0.950 . S
C1294 H1276 0.951 . S
C1294 C1295 1.366 . S
C1294 C1296 1.388 . S
C1295 C1294 1.366 . S
C1295 C1299 1.385 . S
C1296 H1277 0.951 1_556 S
C1296 C1294 1.388 . S
C1296 C1297 1.366 . S
C1297 C1296 1.366 . S
C1297 C1298 1.414 . S
C1297 C1300 1.499 . S
C1298 H1278 0.950 . S
C1298 C1297 1.414 . S
C1298 C1299 1.374 . S
C1299 H1279 0.950 . S
C1299 C1295 1.385 . S
C1299 C1298 1.374 . S
C1300 C1297 1.499 . S
C1300 C1301 1.373 . S
C1300 C1302 1.389 1_556 S
C1301 H1280 0.950 . S
C1301 C1300 1.373 . S
C1301 C1317 1.377 . S
C1302 C1300 1.389 1_554 S
C1302 C1303 1.524 . S
C1302 C1316 1.377 . S
C1303 C1302 1.524 . S
C1303 C1304 1.397 . S
C1303 C1308 1.363 . S
C1304 H1281 0.950 . S
C1304 C1303 1.397 . S
C1304 C1305 1.334 . S
C1305 H1282 0.950 . S
C1305 C1304 1.334 . S
C1305 C1306 1.287 . S
C1306 C1305 1.287 . S
C1306 C1307 1.524 . S
C1306 H1325 0.913 . S
C1307 H1283 0.950 . S
C1307 C1306 1.524 . S
C1307 C1308 1.415 . S
C1308 H1284 0.950 . S
C1308 C1303 1.363 . S
C1308 C1307 1.415 . S
C1309 H1285 0.951 . S
C1309 C1310 1.366 . S
C1309 C1311 1.388 . S
C1310 C1309 1.366 . S
C1310 C1314 1.385 . S
C1311 H1286 0.951 1_554 S
C1311 C1309 1.388 . S
C1311 C1312 1.366 . S
C1312 C1311 1.366 . S
C1312 C1313 1.414 . S
C1312 C1315 1.499 . S
C1313 H1287 0.950 . S
C1313 C1312 1.414 . S
C1313 C1314 1.374 . S
C1314 H1288 0.950 . S
C1314 C1310 1.385 . S
C1314 C1313 1.374 . S
C1315 C1312 1.499 . S
C1315 C1316 1.373 . S
C1315 C1317 1.389 1_554 S
C1316 H1289 0.950 . S
C1316 C1302 1.377 . S
C1316 C1315 1.373 . S
C1317 C1301 1.377 . S
C1317 C1315 1.389 1_556 S
C1317 C1318 1.524 . S
C1318 C1317 1.524 . S
C1318 C1319 1.397 . S
C1318 C1323 1.363 . S
C1319 H1290 0.950 . S
C1319 C1318 1.397 . S
C1319 C1320 1.334 . S
C1320 H1291 0.950 . S
C1320 C1319 1.334 . S
C1320 C1321 1.287 . S
C1321 C1320 1.287 . S
C1321 C1322 1.524 . S
C1321 H1324 0.999 . S
C1322 H1292 0.950 . S
C1322 C1321 1.524 . S
C1322 C1323 1.415 . S
C1323 H1293 0.950 . S
C1323 C1318 1.363 . S
C1323 C1322 1.415 . S
H1324 C1321 0.999 . S
H1325 C1306 0.913 . S
H1326 C1344 0.951 . S
H1327 C1346 0.951 . S
H1328 C1348 0.950 . S
H1329 C1349 0.950 . S
H1330 C1351 0.950 . S
H1331 C1354 0.950 . S
H1332 C1355 0.950 . S
H1333 C1357 0.950 . S
H1334 C1358 0.950 . S
H1335 C1359 0.951 . S
H1336 C1361 0.951 . S
H1337 C1363 0.950 . S
H1338 C1364 0.950 . S
H1339 C1366 0.950 . S
H1340 C1369 0.950 . S
H1341 C1370 0.950 . S
H1342 C1372 0.950 . S
H1343 C1373 0.950 . S
C1344 H1326 0.951 . S
C1344 C1345 1.366 . S
C1344 C1346 1.388 . S
C1345 C1344 1.366 . S
C1345 C1349 1.385 . S
C1346 H1327 0.951 . S
C1346 C1344 1.388 . S
C1346 C1347 1.366 . S
C1347 C1346 1.366 . S
C1347 C1348 1.414 . S
C1347 C1350 1.499 . S
C1348 H1328 0.950 . S
C1348 C1347 1.414 . S
C1348 C1349 1.374 . S
C1349 H1329 0.950 . S
C1349 C1345 1.385 . S
C1349 C1348 1.374 . S
C1350 C1347 1.499 . S
C1350 C1351 1.373 . S
C1350 C1352 1.389 . S
C1351 H1330 0.950 . S
C1351 C1350 1.373 . S
C1351 C1367 1.377 . S
C1352 C1350 1.389 . S
C1352 C1353 1.524 . S
C1352 C1366 1.377 . S
C1353 C1352 1.524 . S
C1353 C1354 1.397 . S
C1353 C1358 1.363 . S
C1354 H1331 0.950 . S
C1354 C1353 1.397 . S
C1354 C1355 1.334 . S
C1355 H1332 0.950 . S
C1355 C1354 1.334 . S
C1355 C1356 1.287 . S
C1356 C1355 1.287 . S
C1356 C1357 1.524 . S
C1356 H1375 0.913 . S
C1357 H1333 0.950 . S
C1357 C1356 1.524 . S
C1357 C1358 1.415 . S
C1358 H1334 0.950 . S
C1358 C1353 1.363 . S
C1358 C1357 1.415 . S
C1359 H1335 0.951 . S
C1359 C1360 1.366 . S
C1359 C1361 1.388 . S
C1360 C1359 1.366 . S
C1360 C1364 1.385 . S
C1361 H1336 0.951 . S
C1361 C1359 1.388 . S
C1361 C1362 1.366 . S
C1362 C1361 1.366 . S
C1362 C1363 1.414 . S
C1362 C1365 1.499 . S
C1363 H1337 0.950 . S
C1363 C1362 1.414 . S
C1363 C1364 1.374 . S
C1364 H1338 0.950 . S
C1364 C1360 1.385 . S
C1364 C1363 1.374 . S
C1365 C1362 1.499 . S
C1365 C1366 1.373 . S
C1365 C1367 1.389 . S
C1366 H1339 0.950 . S
C1366 C1352 1.377 . S
C1366 C1365 1.373 . S
C1367 C1351 1.377 . S
C1367 C1365 1.389 . S
C1367 C1368 1.524 . S
C1368 C1367 1.524 . S
C1368 C1369 1.397 . S
C1368 C1373 1.363 . S
C1369 H1340 0.950 . S
C1369 C1368 1.397 . S
C1369 C1370 1.334 . S
C1370 H1341 0.950 . S
C1370 C1369 1.334 . S
C1370 C1371 1.287 . S
C1371 C1370 1.287 . S
C1371 C1372 1.524 . S
C1371 H1374 0.999 . S
C1372 H1342 0.950 . S
C1372 C1371 1.524 . S
C1372 C1373 1.415 . S
C1373 H1343 0.950 . S
C1373 C1368 1.363 . S
C1373 C1372 1.415 . S
H1374 C1371 0.999 . S
H1375 C1356 0.913 . S
C195 C10 1.317 . S
C210 C87 1.330 . S
C245 C51 1.330 . S
C260 C32 1.317 . S
C295 C29 1.313 . S
C310 C52 1.301 . S
C345 C7 1.314 . S
C360 C76 1.302 . S
C395 C175 1.329 . S
C410 C98 1.316 . S
C445 C120 1.316 . S
C460 C139 1.329 . S
C495 C117 1.313 . S
C510 C140 1.302 . S
C545 C95 1.314 . S
C560 C164 1.302 . S
C595 C15 0.614 . S
C610 C65 0.617 . S
C645 C81 0.617 . S
C660 C37 0.613 . S
C695 C103 0.612 . S
C710 C153 0.616 . S
C745 C125 0.612 . S
C760 C169 0.616 . S
C795 C18 2.103 . S
C810 C62 2.114 . S
C845 C40 2.104 . S
C860 C74 2.114 . S
C895 C150 2.114 . S
C910 C106 2.104 . S
C945 C162 2.114 . S
C960 C128 2.104 . S
C995 C21 1.363 . S
C1010 C43 1.363 . S
C1045 C59 1.354 . S
C1060 C73 1.353 . S
C1095 C109 1.363 . S
C1110 C131 1.363 . S
C1145 C161 1.353 . S
C1160 C147 1.354 . S
C1195 C8 1.394 . S
C1210 C142 1.393 . S
C1245 C30 1.394 . S
C1260 C172 1.393 . S
C1295 C54 1.393 . S
C1310 C96 1.394 . S
C1345 C118 1.394 . S
C1360 C84 1.393 . S
