# Generated by pormake.
# Topology afw, (4)-cn, num edge types: 1
# Building blocks:
#     Node 0, Type 0, BuildingBlock: ICAMEG_clean_sbu_1, # of connection points: 4
#     Node 1, Type 0, BuildingBlock: ICAMEG_clean_sbu_1, # of connection points: 4
#     Node 2, Type 0, BuildingBlock: ICAMEG_clean_sbu_1, # of connection points: 4
#     Node 3, Type 0, BuildingBlock: ICAMEG_clean_sbu_1, # of connection points: 4
#     Node 4, Type 0, BuildingBlock: ICAMEG_clean_sbu_1, # of connection points: 4
#     Node 5, Type 0, BuildingBlock: ICAMEG_clean_sbu_1, # of connection points: 4
#     Node 6, Type 0, BuildingBlock: ICAMEG_clean_sbu_1, # of connection points: 4
#     Node 7, Type 0, BuildingBlock: ICAMEG_clean_sbu_1, # of connection points: 4
#     Node 8, Type 0, BuildingBlock: ICAMEG_clean_sbu_1, # of connection points: 4
#     Edge 9, Type (0, 0), BuildingBlock: MIFKUJ_clean_linker_0, # of connection points: 2
#     Edge 10, Type (0, 0), BuildingBlock: MIFKUJ_clean_linker_0, # of connection points: 2
#     Edge 11, Type (0, 0), BuildingBlock: MIFKUJ_clean_linker_0, # of connection points: 2
#     Edge 12, Type (0, 0), BuildingBlock: MIFKUJ_clean_linker_0, # of connection points: 2
#     Edge 13, Type (0, 0), BuildingBlock: MIFKUJ_clean_linker_0, # of connection points: 2
#     Edge 14, Type (0, 0), BuildingBlock: MIFKUJ_clean_linker_0, # of connection points: 2
#     Edge 15, Type (0, 0), BuildingBlock: MIFKUJ_clean_linker_0, # of connection points: 2
#     Edge 16, Type (0, 0), BuildingBlock: MIFKUJ_clean_linker_0, # of connection points: 2
#     Edge 17, Type (0, 0), BuildingBlock: MIFKUJ_clean_linker_0, # of connection points: 2
#     Edge 18, Type (0, 0), BuildingBlock: MIFKUJ_clean_linker_0, # of connection points: 2
#     Edge 19, Type (0, 0), BuildingBlock: MIFKUJ_clean_linker_0, # of connection points: 2
#     Edge 20, Type (0, 0), BuildingBlock: MIFKUJ_clean_linker_0, # of connection points: 2
#     Edge 21, Type (0, 0), BuildingBlock: MIFKUJ_clean_linker_0, # of connection points: 2
#     Edge 22, Type (0, 0), BuildingBlock: MIFKUJ_clean_linker_0, # of connection points: 2
#     Edge 23, Type (0, 0), BuildingBlock: MIFKUJ_clean_linker_0, # of connection points: 2
#     Edge 24, Type (0, 0), BuildingBlock: MIFKUJ_clean_linker_0, # of connection points: 2
#     Edge 25, Type (0, 0), BuildingBlock: MIFKUJ_clean_linker_0, # of connection points: 2
#     Edge 26, Type (0, 0), BuildingBlock: MIFKUJ_clean_linker_0, # of connection points: 2
# Relax obj value: 0.104
# Max RMSD: 0.138
# Mean RMSD: 0.138
data_MOF--net-afw--node1-ICAMEG_clean_sbu_1--edge1-MIFKUJ_clean_linker_0
_symmetry_space_group_name_H-M    P1
_symmetry_Int_Tables_number       1
_symmetry_cell_setting            triclinic
loop_
_symmetry_equiv_pos_as_xyz
'x, y, z'
_cell_length_a     58.897243
_cell_length_b     58.940011
_cell_length_c     44.58878
_cell_angle_alpha  90.05757
_cell_angle_beta   90.026116
_cell_angle_gamma 119.99141
loop_
_atom_site_label
_atom_site_type_symbol
_atom_site_fract_x
_atom_site_fract_y
_atom_site_fract_z
_atom_type_partial_charge
Co0 Co 0.02661 0.21431 0.0498 0.0
Co1 Co 0.02564 0.20404 0.97383 0.0
O2 O 0.02337 0.22338 0.00836 0.0
C3 C 0.97582 0.21379 0.05818 0.0
O4 O 0.96408 0.19427 0.03915 0.0
C5 C 0.06425 0.25898 0.95813 0.0
O6 O 0.07373 0.26224 0.98545 0.0
O7 O 0.05957 0.20848 0.98837 0.0
O8 O 0.0534 0.2047 0.03812 0.0
H9 H 0.04096 0.13666 0.92321 0.0
H10 H 0.03239 0.26614 0.03622 0.0
O11 O 0.00029 0.22418 0.06321 0.0
H12 H 0.11598 0.28532 0.08314 0.0
H13 H 0.03214 0.22745 0.16172 0.0
H14 H 0.02999 0.17084 0.07895 0.0
H15 H 0.08036 0.23969 0.07644 0.0
H16 H 0.02908 0.23874 0.10927 0.0
O17 O 0.04476 0.23715 0.95028 0.0
H18 H 0.0377 0.16118 0.96619 0.0
H19 H 0.01886 0.20625 0.9077 0.0
H20 H 0.03307 0.15881 0.13115 0.0
H21 H 0.0674 0.31208 0.04274 0.0
H22 H 0.03408 0.18718 0.17299 0.0
H23 H 0.10959 0.3219 0.06627 0.0
O24 O 0.99838 0.17713 0.04324 0.0
H25 H 0.96187 0.23436 0.94907 0.0
H26 H 0.97566 0.15846 0.95198 0.0
H27 H 0.93303 0.15231 0.93522 0.0
H28 H 0.92595 0.19045 0.93362 0.0
H29 H 0.00414 0.23959 0.96594 0.0
H30 H 0.02217 0.18236 0.86399 0.0
H31 H 0.03318 0.14721 0.87162 0.0
O32 O 0.00656 0.17038 0.99593 0.0
C33 C 0.06599 0.20524 0.01466 0.0
C34 C 0.03608 0.15189 0.91958 0.0
C35 C 0.02557 0.17757 0.88636 0.0
N36 N 0.02795 0.18503 0.9395 0.0
C37 C 0.03415 0.16581 0.94385 0.0
C38 C 0.0238 0.19108 0.91118 0.0
C39 C 0.03174 0.15784 0.89065 0.0
C40 C 0.05061 0.27027 0.0467 0.0
N41 N 0.0543 0.25025 0.05598 0.0
C42 C 0.0704 0.29631 0.05024 0.0
C43 C 0.09408 0.30181 0.0634 0.0
C44 C 0.09769 0.28129 0.07284 0.0
C45 C 0.07748 0.25548 0.0689 0.0
C46 C 0.03163 0.21488 0.14372 0.0
C47 C 0.03055 0.18335 0.09702 0.0
C48 C 0.02989 0.22117 0.11394 0.0
N49 N 0.02949 0.20554 0.09103 0.0
C50 C 0.03223 0.17641 0.12654 0.0
C51 C 0.03278 0.19232 0.15001 0.0
C52 C 0.99524 0.16205 0.02111 0.0
C53 C 0.96474 0.21761 0.9496 0.0
C54 C 0.97271 0.17515 0.95144 0.0
C55 C 0.94854 0.17155 0.94187 0.0
C56 C 0.94459 0.19296 0.94096 0.0
N57 N 0.99241 0.19941 0.95977 0.0
C58 C 0.98866 0.22047 0.95904 0.0
Co59 Co 0.82806 0.83849 0.97736 0.0
Co60 Co 0.81529 0.84205 0.0523 0.0
O61 O 0.80691 0.82401 0.0136 0.0
C62 C 0.77592 0.82764 0.95626 0.0
O63 O 0.77515 0.84105 0.97939 0.0
C64 C 0.81217 0.79195 0.0696 0.0
O65 O 0.82808 0.79508 0.04735 0.0
O66 O 0.85229 0.84927 0.05054 0.0
O67 O 0.86085 0.85306 0.00104 0.0
H68 H 0.86948 0.91543 0.12392 0.0
H69 H 0.78692 0.78239 0.97898 0.0
O70 O 0.79547 0.82428 0.95252 0.0
H71 H 0.86995 0.78297 0.96196 0.0
H72 H 0.85078 0.83541 0.86911 0.0
H73 H 0.87639 0.88815 0.96178 0.0
H74 H 0.86945 0.82442 0.96643 0.0
H75 H 0.82424 0.81841 0.91504 0.0
O76 O 0.80445 0.80839 0.07373 0.0
H77 H 0.85867 0.89242 0.07526 0.0
H78 H 0.7892 0.82955 0.11218 0.0
H79 H 0.9037 0.90574 0.91654 0.0
H80 H 0.7865 0.74045 0.97438 0.0
H81 H 0.89092 0.87931 0.86973 0.0
H82 H 0.82825 0.74059 0.96588 0.0
O83 O 0.82883 0.87259 0.9823 0.0
H84 H 0.71752 0.78607 0.04271 0.0
H85 H 0.79058 0.87448 0.06589 0.0
H86 H 0.74523 0.86634 0.06647 0.0
H87 H 0.70831 0.82183 0.05484 0.0
H88 H 0.76322 0.79518 0.04215 0.0
H89 H 0.79941 0.85175 0.16133 0.0
H90 H 0.83975 0.89507 0.16739 0.0
O91 O 0.82632 0.87612 0.03224 0.0
C92 C 0.86791 0.85526 0.02834 0.0
C93 C 0.85182 0.89659 0.12155 0.0
C94 C 0.81251 0.86083 0.14255 0.0
N95 N 0.82326 0.85973 0.09084 0.0
C96 C 0.84556 0.88349 0.09403 0.0
C97 C 0.80687 0.84831 0.11469 0.0
C98 C 0.83514 0.88514 0.14594 0.0
C99 C 0.80513 0.78259 0.97501 0.0
N100 N 0.82814 0.8058 0.97278 0.0
C101 C 0.80479 0.75879 0.97254 0.0
C102 C 0.82822 0.75888 0.96781 0.0
C103 C 0.85163 0.78265 0.96562 0.0
C104 C 0.85123 0.80606 0.96823 0.0
C105 C 0.85653 0.84713 0.88936 0.0
C106 C 0.87074 0.87649 0.94157 0.0
C107 C 0.84152 0.83765 0.91541 0.0
N108 N 0.84878 0.85225 0.94114 0.0
C109 C 0.88624 0.88659 0.91597 0.0
C110 C 0.87905 0.87176 0.88972 0.0
C111 C 0.83002 0.88554 0.00583 0.0
C112 C 0.73343 0.80554 0.04786 0.0
C113 C 0.77464 0.85513 0.06067 0.0
C114 C 0.74899 0.85059 0.06113 0.0
C115 C 0.72828 0.82562 0.05463 0.0
N116 N 0.77953 0.83534 0.05401 0.0
C117 C 0.75933 0.81079 0.04766 0.0
Co118 Co 0.19106 0.00389 0.0479 0.0
Co119 Co 0.19231 0.0221 0.97367 0.0
O120 O 0.20697 0.01292 0.00794 0.0
C121 C 0.24297 0.05009 0.06247 0.0
O122 O 0.23984 0.063 0.04037 0.0
C123 C 0.1968 0.97683 0.95165 0.0
O124 O 0.18903 0.96574 0.97802 0.0
O125 O 0.15616 0.99234 0.98184 0.0
O126 O 0.15582 0.9813 0.03019 0.0
H127 H 0.12773 0.04101 0.92205 0.0
H128 H 0.2366 0.99737 0.03366 0.0
O129 O 0.22597 0.02622 0.06718 0.0
H130 H 0.16534 0.90911 0.06068 0.0
H131 H 0.18801 0.97988 0.15671 0.0
H132 H 0.14366 0.00018 0.07602 0.0
H133 H 0.15831 0.94699 0.06221 0.0
H134 H 0.20595 0.98894 0.10539 0.0
O135 O 0.1991 0.99912 0.94652 0.0
H136 H 0.14648 0.0294 0.96482 0.0
H137 H 0.20756 0.03468 0.90936 0.0
H138 H 0.12588 0.99256 0.12739 0.0
H139 H 0.2446 0.96009 0.03212 0.0
H140 H 0.14765 0.9817 0.16798 0.0
H141 H 0.20876 0.91556 0.04557 0.0
O142 O 0.18465 0.03424 0.04796 0.0
H143 H 0.28986 0.06422 0.96087 0.0
H144 H 0.21446 0.07889 0.96028 0.0
H145 H 0.25892 0.11613 0.9515 0.0
H146 H 0.297 0.10888 0.95169 0.0
H147 H 0.24508 0.0276 0.96987 0.0
H148 H 0.18934 0.04613 0.86593 0.0
H149 H 0.14919 0.04946 0.87215 0.0
O150 O 0.18548 0.04539 0.99953 0.0
C151 C 0.14461 0.9786 0.00495 0.0
C152 C 0.14525 0.03967 0.91906 0.0
C153 C 0.17981 0.0425 0.88755 0.0
N154 N 0.17812 0.03144 0.93963 0.0
C155 C 0.15599 0.03315 0.94321 0.0
C156 C 0.18998 0.03592 0.91221 0.0
C157 C 0.15729 0.04438 0.89107 0.0
C158 C 0.22099 0.97808 0.03978 0.0
N159 N 0.197 0.97434 0.04797 0.0
C160 C 0.2256 0.95704 0.03876 0.0
C161 C 0.20547 0.93205 0.04627 0.0
C162 C 0.18109 0.92841 0.05472 0.0
C163 C 0.17718 0.9499 0.05541 0.0
C164 C 0.17814 0.9843 0.13914 0.0
C165 C 0.1534 0.99566 0.09361 0.0
C166 C 0.18817 0.9894 0.11001 0.0
N167 N 0.17578 0.99495 0.08768 0.0
C168 C 0.14311 0.99117 0.1226 0.0
C169 C 0.15549 0.9853 0.14544 0.0
C170 C 0.18285 0.04829 0.02735 0.0
C171 C 0.27343 0.06762 0.96069 0.0
C172 C 0.23095 0.07563 0.96059 0.0
C173 C 0.25607 0.09676 0.95549 0.0
C174 C 0.27742 0.09268 0.95558 0.0
N175 N 0.22719 0.05111 0.96559 0.0
C176 C 0.24802 0.04695 0.96569 0.0
Co177 Co 0.70232 0.54025 0.31458 0.0
Co178 Co 0.70808 0.55007 0.39065 0.0
O179 O 0.70353 0.56033 0.35028 0.0
C180 C 0.74147 0.59475 0.29681 0.0
O181 O 0.75308 0.59821 0.32292 0.0
C182 C 0.66143 0.55626 0.3997 0.0
O183 O 0.65089 0.5423 0.37538 0.0
O184 O 0.67745 0.5142 0.38474 0.0
O185 O 0.68343 0.50657 0.33695 0.0
H186 H 0.71369 0.49012 0.46658 0.0
H187 H 0.68293 0.57786 0.31076 0.0
O188 O 0.72097 0.57314 0.29062 0.0
H189 H 0.60732 0.49212 0.28366 0.0
H190 H 0.6902 0.51823 0.20442 0.0
H191 H 0.71163 0.49598 0.30305 0.0
H192 H 0.64991 0.4961 0.29628 0.0
H193 H 0.6911 0.54272 0.24972 0.0
O194 O 0.68439 0.56191 0.40779 0.0
H195 H 0.70873 0.50389 0.41596 0.0
H196 H 0.71635 0.57429 0.45143 0.0
H197 H 0.71073 0.47086 0.25841 0.0
H198 H 0.64068 0.57477 0.29816 0.0
H199 H 0.69996 0.48194 0.20862 0.0
H200 H 0.60247 0.53163 0.28459 0.0
O201 O 0.73642 0.54306 0.32547 0.0
H202 H 0.75506 0.64832 0.38617 0.0
H203 H 0.76301 0.57135 0.41257 0.0
H204 H 0.80127 0.61565 0.41848 0.0
H205 H 0.79742 0.65453 0.40528 0.0
H206 H 0.71733 0.60363 0.38037 0.0
H207 H 0.72109 0.56114 0.50249 0.0
H208 H 0.71988 0.51882 0.51031 0.0
O209 O 0.732 0.53792 0.37528 0.0
C210 C 0.67268 0.49883 0.36252 0.0
C211 C 0.7143 0.50863 0.46347 0.0
C212 C 0.71842 0.54847 0.48362 0.0
N213 N 0.71236 0.53992 0.43071 0.0
C214 C 0.71156 0.51656 0.43484 0.0
C215 C 0.71565 0.55578 0.45467 0.0
C216 C 0.71775 0.52473 0.48799 0.0
C217 C 0.66644 0.55906 0.30468 0.0
N218 N 0.66893 0.53723 0.30413 0.0
C219 C 0.64254 0.55741 0.29767 0.0
C220 C 0.6211 0.53319 0.29009 0.0
C221 C 0.62379 0.51101 0.28963 0.0
C222 C 0.64796 0.51339 0.29683 0.0
C223 C 0.69489 0.51319 0.22599 0.0
C224 C 0.70679 0.50084 0.28151 0.0
C225 C 0.69549 0.52704 0.25171 0.0
N226 N 0.70127 0.5207 0.27905 0.0
C227 C 0.70637 0.48658 0.25629 0.0
C228 C 0.70035 0.49283 0.22837 0.0
C229 C 0.74325 0.53826 0.35074 0.0
C230 C 0.75696 0.63154 0.39207 0.0
C231 C 0.7612 0.58816 0.40667 0.0
C232 C 0.78292 0.6132 0.41014 0.0
C233 C 0.78074 0.635 0.40275 0.0
N234 N 0.73794 0.58493 0.39622 0.0
C235 C 0.73565 0.6062 0.38893 0.0
Co236 Co 0.497 0.18252 0.30534 0.0
Co237 Co 0.48654 0.18074 0.38167 0.0
O238 O 0.47686 0.16525 0.34151 0.0
C239 C 0.44326 0.17036 0.28798 0.0
O240 O 0.44071 0.17925 0.31404 0.0
C241 C 0.48427 0.12989 0.39405 0.0
O242 O 0.5017 0.13502 0.37291 0.0
O243 O 0.52341 0.188 0.37671 0.0
O244 O 0.53049 0.19557 0.32738 0.0
H245 H 0.54365 0.24916 0.45686 0.0
H246 H 0.45639 0.12635 0.30313 0.0
O247 O 0.46407 0.16985 0.28174 0.0
H248 H 0.53912 0.12941 0.27643 0.0
H249 H 0.51733 0.18861 0.19494 0.0
H250 H 0.54395 0.23401 0.29249 0.0
H251 H 0.53845 0.17007 0.28751 0.0
H252 H 0.49254 0.16716 0.24085 0.0
O253 O 0.47589 0.14565 0.39929 0.0
H254 H 0.53078 0.22938 0.40653 0.0
H255 H 0.46266 0.16425 0.44256 0.0
H256 H 0.5694 0.25609 0.24721 0.0
H257 H 0.45611 0.08522 0.29187 0.0
H258 H 0.55612 0.23337 0.19796 0.0
H259 H 0.49771 0.0866 0.27848 0.0
O260 O 0.49696 0.21553 0.31517 0.0
H261 H 0.38848 0.12554 0.37543 0.0
H262 H 0.46254 0.21199 0.40333 0.0
H263 H 0.41734 0.20374 0.40831 0.0
H264 H 0.37991 0.16021 0.39435 0.0
H265 H 0.43404 0.13477 0.37053 0.0
H266 H 0.47491 0.18319 0.49336 0.0
H267 H 0.51561 0.22599 0.50074 0.0
O268 O 0.49696 0.21607 0.36553 0.0
C269 C 0.53848 0.19546 0.35385 0.0
C270 C 0.52583 0.23053 0.45394 0.0
C271 C 0.48727 0.19348 0.47442 0.0
N272 N 0.49593 0.19579 0.42158 0.0
C273 C 0.51841 0.21927 0.42548 0.0
C274 C 0.48047 0.18282 0.44561 0.0
C275 C 0.5101 0.21751 0.47854 0.0
C276 C 0.47453 0.12711 0.29709 0.0
N277 N 0.49737 0.15058 0.29583 0.0
C278 C 0.47427 0.10376 0.29084 0.0
C279 C 0.49762 0.10454 0.28336 0.0
C280 C 0.52086 0.12855 0.28222 0.0
C281 C 0.52037 0.15151 0.2886 0.0
C282 C 0.5233 0.19872 0.21626 0.0
C283 C 0.53807 0.22396 0.27117 0.0
C284 C 0.50929 0.18671 0.24232 0.0
N285 N 0.51678 0.19932 0.26934 0.0
C286 C 0.55255 0.23658 0.24559 0.0
C287 C 0.54508 0.22382 0.21797 0.0
C288 C 0.49892 0.22689 0.3402 0.0
C289 C 0.40462 0.14458 0.3816 0.0
C290 C 0.44639 0.1931 0.39699 0.0
C291 C 0.42082 0.18848 0.39999 0.0
C292 C 0.39982 0.16405 0.39218 0.0
N293 N 0.45094 0.17393 0.38657 0.0
C294 C 0.43045 0.1499 0.37895 0.0
Co295 Co 0.86422 0.3393 0.31707 0.0
Co296 Co 0.86203 0.33299 0.39445 0.0
O297 O 0.87789 0.33491 0.35531 0.0
C298 C 0.85568 0.29269 0.28282 0.0
O299 O 0.83109 0.28672 0.28022 0.0
C300 C 0.91522 0.37903 0.40374 0.0
O301 O 0.91223 0.38946 0.37912 0.0
O302 O 0.85798 0.36401 0.38521 0.0
O303 O 0.85696 0.36592 0.33491 0.0
H304 H 0.7949 0.3323 0.46453 0.0
H305 H 0.91663 0.34381 0.3197 0.0
O306 O 0.87158 0.31255 0.2984 0.0
H307 H 0.93251 0.42928 0.28245 0.0
H308 H 0.86507 0.34952 0.20475 0.0
H309 H 0.81828 0.34386 0.29864 0.0
H310 H 0.88762 0.39389 0.29359 0.0
H311 H 0.882 0.34443 0.25336 0.0
O312 O 0.89738 0.35647 0.41223 0.0
H313 H 0.81497 0.33444 0.41532 0.0
H314 H 0.8761 0.32776 0.45739 0.0
H315 H 0.80074 0.3491 0.25052 0.0
H316 H 0.96182 0.37856 0.30848 0.0
H317 H 0.82416 0.35191 0.20313 0.0
H318 H 0.97 0.42169 0.2898 0.0
O319 O 0.82779 0.31139 0.32767 0.0
H320 H 0.91053 0.28314 0.39987 0.0
H321 H 0.82649 0.27973 0.41939 0.0
H322 H 0.83075 0.24102 0.43031 0.0
H323 H 0.87306 0.24261 0.42064 0.0
H324 H 0.90529 0.32131 0.38898 0.0
H325 H 0.85682 0.3258 0.50708 0.0
H326 H 0.81586 0.32797 0.51086 0.0
O327 O 0.82653 0.30944 0.378 0.0
C328 C 0.85536 0.37397 0.36093 0.0
C329 C 0.81271 0.33126 0.46317 0.0
C330 C 0.84748 0.32766 0.48705 0.0
N331 N 0.84658 0.33105 0.43346 0.0
C332 C 0.82412 0.33239 0.43536 0.0
C333 C 0.85834 0.32884 0.45886 0.0
C334 C 0.82449 0.32886 0.48916 0.0
C335 C 0.92 0.36245 0.31132 0.0
N336 N 0.89948 0.36676 0.30718 0.0
C337 C 0.94565 0.38208 0.30512 0.0
C338 C 0.95022 0.40629 0.29467 0.0
C339 C 0.9292 0.41056 0.29056 0.0
C340 C 0.90382 0.39048 0.29701 0.0
C341 C 0.85469 0.34833 0.22524 0.0
C342 C 0.82863 0.34515 0.27812 0.0
C343 C 0.86417 0.34543 0.25284 0.0
N344 N 0.85113 0.34382 0.27883 0.0
C345 C 0.81859 0.34809 0.25094 0.0
C346 C 0.83173 0.34966 0.22435 0.0
C347 C 0.81564 0.3024 0.3524 0.0
C348 C 0.892 0.28222 0.40421 0.0
C349 C 0.84487 0.2805 0.4149 0.0
C350 C 0.84722 0.25856 0.42124 0.0
C351 C 0.87097 0.25947 0.41584 0.0
N352 N 0.86561 0.30275 0.40357 0.0
C353 C 0.88894 0.30378 0.39815 0.0
Co354 Co 0.36367 0.88552 0.72552 0.0
Co355 Co 0.3616 0.88625 0.64802 0.0
O356 O 0.36282 0.90177 0.68739 0.0
C357 C 0.31815 0.89361 0.73382 0.0
O358 O 0.31078 0.88559 0.70619 0.0
C359 C 0.40667 0.92875 0.61629 0.0
O360 O 0.41524 0.91214 0.61327 0.0
O361 O 0.39207 0.88206 0.65887 0.0
O362 O 0.3881 0.87478 0.70843 0.0
H363 H 0.36443 0.82071 0.57821 0.0
H364 H 0.37489 0.9404 0.72514 0.0
O365 O 0.33917 0.89559 0.74429 0.0
H366 H 0.4545 0.94429 0.76628 0.0
H367 H 0.36761 0.88057 0.83802 0.0
H368 H 0.36144 0.83578 0.74234 0.0
H369 H 0.41644 0.90199 0.7515 0.0
H370 H 0.36717 0.90094 0.7899 0.0
O371 O 0.38585 0.9222 0.63138 0.0
H372 H 0.36557 0.84056 0.62726 0.0
H373 H 0.35527 0.8993 0.5848 0.0
H374 H 0.36206 0.81483 0.78994 0.0
H375 H 0.41242 0.98312 0.73993 0.0
H376 H 0.36515 0.83725 0.83824 0.0
H377 H 0.4526 0.98523 0.76063 0.0
O378 O 0.3331 0.85131 0.71327 0.0
H379 H 0.31217 0.93506 0.64037 0.0
H380 H 0.30829 0.85056 0.62284 0.0
H381 H 0.26969 0.85489 0.61129 0.0
H382 H 0.27151 0.89741 0.61996 0.0
H383 H 0.35023 0.92978 0.65197 0.0
H384 H 0.35404 0.88007 0.53525 0.0
H385 H 0.35862 0.84048 0.53174 0.0
O386 O 0.33756 0.85035 0.66339 0.0
C387 C 0.39866 0.87561 0.68324 0.0
C388 C 0.36235 0.83793 0.57944 0.0
C389 C 0.35652 0.87125 0.55534 0.0
N390 N 0.36035 0.871 0.60894 0.0
C391 C 0.36295 0.84925 0.60717 0.0
C392 C 0.35721 0.88203 0.58346 0.0
C393 C 0.3591 0.84904 0.55338 0.0
C394 C 0.39226 0.94117 0.73429 0.0
N395 N 0.39344 0.91874 0.73757 0.0
C396 C 0.41347 0.96541 0.74255 0.0
C397 C 0.43602 0.96658 0.75414 0.0
C398 C 0.4371 0.94362 0.7573 0.0
C399 C 0.41552 0.91974 0.7488 0.0
C400 C 0.36631 0.87063 0.81713 0.0
C401 C 0.36295 0.84574 0.76325 0.0
C402 C 0.366 0.88204 0.7898 0.0
N403 N 0.36446 0.86965 0.76332 0.0
C404 C 0.36322 0.83375 0.79014 0.0
C405 C 0.36493 0.84633 0.81723 0.0
C406 C 0.32688 0.83943 0.6881 0.0
C407 C 0.31118 0.91647 0.63638 0.0
C408 C 0.30922 0.8691 0.62681 0.0
C409 C 0.28731 0.87145 0.62013 0.0
C410 C 0.28835 0.89532 0.62498 0.0
N411 N 0.33157 0.88996 0.6379 0.0
C412 C 0.33271 0.9134 0.64277 0.0
Co413 Co 0.16212 0.51055 0.64984 0.0
Co414 Co 0.16432 0.51772 0.72724 0.0
O415 O 0.14714 0.4992 0.69007 0.0
C416 C 0.12129 0.51615 0.61794 0.0
O417 O 0.13953 0.54046 0.61261 0.0
C418 C 0.155 0.46382 0.73833 0.0
O419 O 0.16088 0.46219 0.71031 0.0
O420 O 0.19838 0.52098 0.7147 0.0
O421 O 0.19749 0.51948 0.66441 0.0
H422 H 0.23839 0.58728 0.78768 0.0
H423 H 0.11497 0.45815 0.6574 0.0
O424 O 0.12654 0.50158 0.63429 0.0
H425 H 0.18279 0.44123 0.61618 0.0
H426 H 0.1637 0.5026 0.53726 0.0
H427 H 0.21042 0.55574 0.62577 0.0
H428 H 0.19253 0.48644 0.62566 0.0
H429 H 0.14518 0.48858 0.58797 0.0
O430 O 0.15484 0.48409 0.74781 0.0
H431 H 0.21489 0.5653 0.74127 0.0
H432 H 0.15051 0.50879 0.79231 0.0
H433 H 0.22962 0.57038 0.5755 0.0
H434 H 0.1043 0.41264 0.64787 0.0
H435 H 0.20619 0.54372 0.5308 0.0
H436 H 0.13837 0.40395 0.62717 0.0
O437 O 0.17053 0.54726 0.65824 0.0
H438 H 0.06683 0.46933 0.74295 0.0
H439 H 0.14837 0.55422 0.75369 0.0
H440 H 0.1063 0.5504 0.76869 0.0
H441 H 0.06513 0.50766 0.76345 0.0
H442 H 0.10934 0.47418 0.72788 0.0
H443 H 0.17296 0.53077 0.83923 0.0
H444 H 0.21725 0.57035 0.83708 0.0
O445 O 0.17412 0.55194 0.70836 0.0
C446 C 0.20911 0.52242 0.68939 0.0
C447 C 0.21892 0.57036 0.78889 0.0
C448 C 0.18228 0.53851 0.81783 0.0
N449 N 0.18127 0.5359 0.76406 0.0
C450 C 0.20555 0.55776 0.76269 0.0
C451 C 0.16965 0.52618 0.79118 0.0
C452 C 0.20712 0.56072 0.81661 0.0
C453 C 0.12983 0.45455 0.64811 0.0
N454 N 0.15428 0.47496 0.64191 0.0
C455 C 0.1237 0.42873 0.64289 0.0
C456 C 0.14284 0.42386 0.63132 0.0
C457 C 0.16778 0.44477 0.62517 0.0
C458 C 0.1732 0.47033 0.63069 0.0
C459 C 0.17407 0.51435 0.55658 0.0
C460 C 0.20011 0.54402 0.60644 0.0
C461 C 0.16369 0.50654 0.58534 0.0
N462 N 0.1767 0.52136 0.60984 0.0
C463 C 0.21108 0.55241 0.57803 0.0
C464 C 0.19792 0.53744 0.55296 0.0
C465 C 0.17522 0.56089 0.68208 0.0
C466 C 0.08463 0.48807 0.74531 0.0
C467 C 0.13052 0.53569 0.75099 0.0
C468 C 0.10677 0.53358 0.7597 0.0
C469 C 0.08368 0.50958 0.75679 0.0
N470 N 0.13129 0.51451 0.73975 0.0
C471 C 0.10875 0.49092 0.73685 0.0
Co472 Co 0.53463 0.68253 0.70163 0.0
Co473 Co 0.53032 0.68518 0.62407 0.0
O474 O 0.54854 0.68505 0.66099 0.0
C475 C 0.57462 0.73083 0.73118 0.0
O476 O 0.5556 0.73595 0.73569 0.0
C477 C 0.54005 0.64048 0.61521 0.0
O478 O 0.53769 0.63574 0.64411 0.0
O479 O 0.4962 0.65559 0.63846 0.0
O480 O 0.4993 0.65484 0.68858 0.0
H481 H 0.45763 0.68499 0.56481 0.0
H482 H 0.58279 0.67914 0.6938 0.0
O483 O 0.57021 0.71065 0.71592 0.0
H484 H 0.51796 0.59465 0.73823 0.0
H485 H 0.53619 0.67689 0.81441 0.0
H486 H 0.4863 0.67894 0.72661 0.0
H487 H 0.50641 0.62875 0.72802 0.0
H488 H 0.55351 0.68021 0.76328 0.0
O489 O 0.53815 0.65941 0.60437 0.0
H490 H 0.48074 0.68473 0.61084 0.0
H491 H 0.54183 0.6862 0.5587 0.0
H492 H 0.46823 0.67554 0.77734 0.0
H493 H 0.59528 0.6457 0.70402 0.0
H494 H 0.49324 0.67452 0.82169 0.0
H495 H 0.56271 0.60306 0.72631 0.0
O496 O 0.52468 0.70959 0.69227 0.0
H497 H 0.62683 0.7305 0.60207 0.0
H498 H 0.54692 0.73751 0.59702 0.0
H499 H 0.58882 0.77407 0.5788 0.0
H500 H 0.62914 0.77064 0.58111 0.0
H501 H 0.58458 0.69456 0.62041 0.0
H502 H 0.51926 0.68623 0.51215 0.0
H503 H 0.47689 0.68573 0.51501 0.0
O504 O 0.52182 0.71079 0.64217 0.0
C505 C 0.48657 0.64629 0.66419 0.0
C506 C 0.47611 0.68529 0.56327 0.0
C507 C 0.51069 0.68595 0.53371 0.0
N508 N 0.51269 0.68563 0.58749 0.0
C509 C 0.48933 0.68522 0.58925 0.0
C510 C 0.52335 0.68587 0.56016 0.0
C511 C 0.48692 0.68568 0.53533 0.0
C512 C 0.5686 0.66075 0.70382 0.0
N513 N 0.54395 0.65598 0.71046 0.0
C514 C 0.57575 0.64184 0.70941 0.0
C515 C 0.55745 0.6179 0.72187 0.0
C516 C 0.53233 0.61316 0.72854 0.0
C517 C 0.52587 0.63252 0.7226 0.0
C518 C 0.52509 0.67729 0.79527 0.0
C519 C 0.49728 0.67844 0.74578 0.0
C520 C 0.53479 0.67915 0.76626 0.0
N521 N 0.5209 0.67971 0.74195 0.0
C522 C 0.48695 0.67654 0.77446 0.0
C523 C 0.501 0.67597 0.79933 0.0
C524 C 0.52017 0.7185 0.66832 0.0
C525 C 0.60939 0.73222 0.60089 0.0
C526 C 0.56442 0.73596 0.59835 0.0
C527 C 0.58807 0.75669 0.58788 0.0
C528 C 0.61068 0.75474 0.58916 0.0
N529 N 0.56329 0.71389 0.60968 0.0
C530 C 0.5854 0.7119 0.61117 0.0
H531 H 0.20454 0.09712 0.00425 0.0
H532 H 0.18874 0.12811 0.00959 0.0
H533 H 0.13004 0.07615 0.07237 0.0
H534 H 0.14606 0.04495 0.06721 0.0
H535 H 0.11001 0.09186 0.02368 0.0
H536 H 0.1767 0.13085 0.09846 0.0
H537 H 0.22116 0.14842 0.1192 0.0
H538 H 0.25183 0.20859 0.052 0.0
H539 H 0.20758 0.19108 0.0305 0.0
H540 H 0.08961 0.20345 0.06666 0.0
H541 H 0.11585 0.18248 0.07413 0.0
H542 H 0.11541 0.16981 0.97885 0.0
H543 H 0.08929 0.19101 0.97096 0.0
H544 H 0.16353 0.18594 0.05101 0.0
H545 H 0.0928 0.10361 0.97232 0.0
H546 H 0.0493 0.08883 0.9498 0.0
H547 H 0.02641 0.11588 0.02725 0.0
H548 H 0.06935 0.12994 0.05066 0.0
C549 C 0.1886 0.09254 0.01963 0.0
C550 C 0.17647 0.0687 0.0353 0.0
C551 C 0.17964 0.11027 0.02271 0.0
C552 C 0.15822 0.10438 0.04133 0.0
C553 C 0.14663 0.081 0.05791 0.0
C554 C 0.15591 0.06336 0.05518 0.0
C555 C 0.147 0.12194 0.04146 0.0
C556 C 0.12161 0.11234 0.02997 0.0
C557 C 0.16219 0.14867 0.04961 0.0
C558 C 0.18881 0.15953 0.06274 0.0
C559 C 0.19294 0.14772 0.08797 0.0
C560 C 0.21812 0.15769 0.09988 0.0
C561 C 0.23933 0.17959 0.0869 0.0
C562 C 0.23538 0.19162 0.06203 0.0
C563 C 0.21024 0.18169 0.04999 0.0
C564 C 0.09568 0.1969 0.04713 0.0
C565 C 0.08685 0.19842 0.01822 0.0
C566 C 0.11083 0.18505 0.05149 0.0
C567 C 0.11716 0.17429 0.02711 0.0
C568 C 0.11049 0.17788 0.99796 0.0
C569 C 0.09551 0.18996 0.99351 0.0
C570 C 0.12696 0.15595 0.03256 0.0
C571 C 0.15193 0.16538 0.04506 0.0
C572 C 0.11132 0.129 0.02558 0.0
C573 C 0.08445 0.11813 0.01307 0.0
C574 C 0.07835 0.10607 0.98472 0.0
C575 C 0.05381 0.09787 0.97176 0.0
C576 C 0.0352 0.10165 0.98695 0.0
C577 C 0.04091 0.11318 0.01537 0.0
C578 C 0.06529 0.12111 0.02857 0.0
H579 H 0.01629 0.09542 0.9768 0.0
H580 H 0.25882 0.18728 0.09612 0.0
H581 H 0.82333 0.91647 0.04628 0.0
H582 H 0.84802 0.96412 0.04901 0.0
H583 H 0.8844 0.96707 0.96412 0.0
H584 H 0.85936 0.91921 0.96089 0.0
H585 H 0.91963 0.99111 0.01283 0.0
H586 H 0.84546 0.99135 0.96786 0.0
H587 H 0.79884 0.97857 0.96335 0.0
H588 H 0.80136 0.01092 0.05043 0.0
H589 H 0.84792 0.02356 0.05566 0.0
H590 H 0.99277 0.12465 0.98346 0.0
H591 H 0.96248 0.07799 0.98435 0.0
H592 H 0.92698 0.08671 0.06489 0.0
H593 H 0.95763 0.1343 0.0641 0.0
H594 H 0.89033 0.05635 0.02314 0.0
H595 H 0.96354 0.05772 0.06864 0.0
H596 H 0.00914 0.06814 0.07695 0.0
H597 H 0.00808 0.03128 0.99348 0.0
H598 H 0.9626 0.02098 0.98439 0.0
C599 C 0.83597 0.92721 0.0277 0.0
C600 C 0.83959 0.91396 0.0035 0.0
C601 C 0.85007 0.95449 0.02934 0.0
C602 C 0.86816 0.96906 0.0069 0.0
C603 C 0.87055 0.95608 0.98171 0.0
C604 C 0.85613 0.92874 0.97984 0.0
C605 C 0.88664 0.99735 0.01151 0.0
C606 C 0.91334 0.0055 0.01455 0.0
C607 C 0.87811 0.01572 0.01541 0.0
C608 C 0.85012 0.00816 0.01228 0.0
C609 C 0.83602 0.99552 0.98618 0.0
C610 C 0.80961 0.98835 0.98346 0.0
C611 C 0.79713 0.99386 0.00662 0.0
C612 C 0.81104 0.00663 0.03252 0.0
C613 C 0.83745 0.01382 0.03536 0.0
C614 C 0.97871 0.11685 0.00159 0.0
C615 C 0.97763 0.13335 0.0237 0.0
C616 C 0.96145 0.09 0.00213 0.0
C617 C 0.94262 0.07879 0.02482 0.0
C618 C 0.94148 0.09501 0.04723 0.0
C619 C 0.95903 0.12213 0.04682 0.0
C620 C 0.92351 0.0503 0.0237 0.0
C621 C 0.89669 0.04201 0.02149 0.0
C622 C 0.93188 0.03165 0.02097 0.0
C623 C 0.95963 0.03868 0.02576 0.0
C624 C 0.97309 0.05206 0.05189 0.0
C625 C 0.99888 0.05782 0.05683 0.0
C626 C 0.01142 0.0502 0.03586 0.0
C627 C 0.99827 0.03699 0.0098 0.0
C628 C 0.97248 0.03121 0.00474 0.0
H629 H 0.03141 0.05474 0.03969 0.0
H630 H 0.77668 0.9883 0.00447 0.0
H631 H 0.90533 0.90054 0.00538 0.0
H632 H 0.95228 0.91641 0.00362 0.0
H633 H 0.94143 0.85215 0.05976 0.0
H634 H 0.89386 0.8361 0.06161 0.0
H635 H 0.98774 0.90211 0.07243 0.0
H636 H 0.94603 0.84468 0.98927 0.0
H637 H 0.91512 0.82794 0.94676 0.0
H638 H 0.958 0.90229 0.90253 0.0
H639 H 0.98902 0.91962 0.94498 0.0
H640 H 0.11684 0.93419 0.038 0.0
H641 H 0.06933 0.90774 0.04272 0.0
H642 H 0.06017 0.9552 0.9755 0.0
H643 H 0.10782 0.98114 0.96985 0.0
H644 H 0.02237 0.90691 0.96968 0.0
H645 H 0.05912 0.96624 0.05386 0.0
H646 H 0.0864 0.98637 0.09872 0.0
H647 H 0.0514 0.91119 0.14175 0.0
H648 H 0.02397 0.89061 0.09703 0.0
C649 C 0.91303 0.89005 0.01776 0.0
C650 C 0.89617 0.86704 0.0334 0.0
C651 C 0.93978 0.89907 0.01667 0.0
C652 C 0.95014 0.88507 0.03094 0.0
C653 C 0.93365 0.86304 0.04841 0.0
C654 C 0.90665 0.854 0.04962 0.0
C655 C 0.97796 0.89303 0.02589 0.0
C656 C 0.99534 0.90259 0.05012 0.0
C657 C 0.98772 0.89416 0.9966 0.0
C658 C 0.96983 0.88347 0.97037 0.0
C659 C 0.94886 0.85748 0.9705 0.0
C660 C 0.9313 0.84789 0.94643 0.0
C661 C 0.93459 0.86404 0.92197 0.0
C662 C 0.95551 0.88979 0.92148 0.0
C663 C 0.97313 0.8995 0.94551 0.0
C664 C 0.10471 0.93872 0.02383 0.0
C665 C 0.11609 0.95994 0.00378 0.0
C666 C 0.07752 0.92367 0.0267 0.0
C667 C 0.06114 0.92993 0.01013 0.0
C668 C 0.07239 0.95008 0.98871 0.0
C669 C 0.09965 0.96489 0.98544 0.0
C670 C 0.0325 0.91654 0.01626 0.0
C671 C 0.01488 0.90596 0.99214 0.0
C672 C 0.0225 0.91468 0.04568 0.0
C673 C 0.03973 0.92687 0.07202 0.0
C674 C 0.05746 0.95397 0.07277 0.0
C675 C 0.07288 0.96546 0.09821 0.0
C676 C 0.07066 0.95004 0.12307 0.0
C677 C 0.05311 0.92309 0.12247 0.0
C678 C 0.03761 0.91152 0.09712 0.0
H679 H 0.0824 0.95895 0.14289 0.0
H680 H 0.92095 0.85659 0.90338 0.0
H681 H 0.85642 0.40517 0.31512 0.0
H682 H 0.84304 0.43804 0.31616 0.0
H683 H 0.82619 0.42432 0.41064 0.0
H684 H 0.83973 0.39113 0.40994 0.0
H685 H 0.78566 0.42362 0.37807 0.0
H686 H 0.87792 0.47982 0.38933 0.0
H687 H 0.92466 0.49753 0.3775 0.0
H688 H 0.91284 0.52061 0.29022 0.0
H689 H 0.8659 0.50266 0.30135 0.0
H690 H 0.76337 0.52799 0.40062 0.0
H691 H 0.78838 0.50545 0.403 0.0
H692 H 0.79285 0.5058 0.30652 0.0
H693 H 0.76727 0.52822 0.30366 0.0
H694 H 0.84111 0.51497 0.34207 0.0
H695 H 0.74833 0.45527 0.32941 0.0
H696 H 0.70192 0.43917 0.34165 0.0
H697 H 0.71521 0.42328 0.43195 0.0
H698 H 0.76188 0.43979 0.42036 0.0
C699 C 0.85022 0.40926 0.3363 0.0
C700 C 0.84924 0.39548 0.3625 0.0
C701 C 0.84262 0.42817 0.33682 0.0
C702 C 0.8338 0.43375 0.3635 0.0
C703 C 0.83303 0.42033 0.38983 0.0
C704 C 0.84088 0.40147 0.38941 0.0
C705 C 0.82422 0.45271 0.3632 0.0
C706 C 0.79794 0.4437 0.3707 0.0
C707 C 0.84007 0.47874 0.35285 0.0
C708 C 0.86832 0.48968 0.34609 0.0
C709 C 0.88523 0.48847 0.36751 0.0
C710 C 0.91177 0.49859 0.36095 0.0
C711 C 0.9217 0.51014 0.3331 0.0
C712 C 0.90511 0.51164 0.31178 0.0
C713 C 0.87854 0.50152 0.31821 0.0
C714 C 0.77001 0.5238 0.3798 0.0
C715 C 0.76288 0.52956 0.35187 0.0
C716 C 0.78441 0.51096 0.38129 0.0
C717 C 0.79216 0.50378 0.35496 0.0
C718 C 0.78698 0.51126 0.32707 0.0
C719 C 0.77233 0.524 0.3255 0.0
C720 C 0.8027 0.48574 0.35679 0.0
C721 C 0.82901 0.4949 0.34956 0.0
C722 C 0.7869 0.45982 0.36731 0.0
C723 C 0.75866 0.44901 0.3741 0.0
C724 C 0.7414 0.44851 0.35194 0.0
C725 C 0.71505 0.43931 0.35875 0.0
C726 C 0.70563 0.43028 0.38759 0.0
C727 C 0.72254 0.43032 0.40963 0.0
C728 C 0.74895 0.43958 0.40295 0.0
H729 H 0.68523 0.42319 0.39283 0.0
H730 H 0.94226 0.51796 0.32806 0.0
H731 H 0.52398 0.26317 0.29593 0.0
H732 H 0.54796 0.31074 0.30242 0.0
H733 H 0.51662 0.3021 0.39164 0.0
H734 H 0.4932 0.25461 0.3858 0.0
H735 H 0.5272 0.35159 0.35023 0.0
H736 H 0.56588 0.30485 0.40151 0.0
H737 H 0.57584 0.26884 0.40088 0.0
H738 H 0.62113 0.30001 0.3206 0.0
H739 H 0.61127 0.33616 0.32067 0.0
H740 H 0.6326 0.47426 0.40339 0.0
H741 H 0.59858 0.42771 0.40375 0.0
H742 H 0.63593 0.41357 0.32851 0.0
H743 H 0.66973 0.45943 0.32822 0.0
H744 H 0.6196 0.3747 0.3681 0.0
H745 H 0.58418 0.42352 0.31871 0.0
H746 H 0.57135 0.4574 0.31571 0.0
H747 H 0.51834 0.42188 0.38944 0.0
H748 H 0.53108 0.38793 0.39312 0.0
C749 C 0.52149 0.27135 0.31657 0.0
C750 C 0.5071 0.25505 0.34056 0.0
C751 C 0.53511 0.29855 0.32018 0.0
C752 C 0.53407 0.30976 0.34755 0.0
C753 C 0.5175 0.29374 0.37032 0.0
C754 C 0.50426 0.26656 0.36695 0.0
C755 C 0.55407 0.33707 0.35445 0.0
C756 C 0.54734 0.35674 0.35458 0.0
C757 C 0.58023 0.34356 0.35999 0.0
C758 C 0.58776 0.32306 0.36102 0.0
C759 C 0.57797 0.304 0.38374 0.0
C760 C 0.5835 0.28354 0.38343 0.0
C761 C 0.5989 0.28205 0.36058 0.0
C762 C 0.60912 0.30119 0.33822 0.0
C763 C 0.60364 0.3217 0.33843 0.0
C764 C 0.63369 0.46109 0.38726 0.0
C765 C 0.65364 0.47057 0.36556 0.0
C766 C 0.6142 0.43458 0.38737 0.0
C767 C 0.61455 0.41728 0.36586 0.0
C768 C 0.63519 0.42655 0.34523 0.0
C769 C 0.65445 0.45287 0.345 0.0
C770 C 0.59302 0.38972 0.36357 0.0
C771 C 0.59944 0.36978 0.36427 0.0
C772 C 0.5666 0.38312 0.35877 0.0
C773 C 0.5588 0.40338 0.35642 0.0
C774 C 0.56993 0.42305 0.33442 0.0
C775 C 0.56267 0.44225 0.33258 0.0
C776 C 0.54413 0.44186 0.35244 0.0
C777 C 0.53274 0.42219 0.37412 0.0
C778 C 0.53996 0.40296 0.37609 0.0
H779 H 0.53853 0.45674 0.35098 0.0
H780 H 0.60303 0.26614 0.36032 0.0
H781 H 0.56484 0.19221 0.40353 0.0
H782 H 0.61136 0.20492 0.40657 0.0
H783 H 0.62228 0.23158 0.31482 0.0
H784 H 0.57636 0.21841 0.3113 0.0
H785 H 0.64493 0.20401 0.32243 0.0
H786 H 0.64757 0.27802 0.37722 0.0
H787 H 0.63302 0.29675 0.41743 0.0
H788 H 0.65108 0.25522 0.48358 0.0
H789 H 0.6657 0.2363 0.44371 0.0
H790 H 0.78109 0.29331 0.30641 0.0
H791 H 0.73324 0.2694 0.30929 0.0
H792 H 0.73729 0.24706 0.40041 0.0
H793 H 0.78494 0.27148 0.39804 0.0
H794 H 0.70619 0.26643 0.39792 0.0
H795 H 0.71429 0.20183 0.34158 0.0
H796 H 0.72985 0.18504 0.30048 0.0
H797 H 0.69177 0.20897 0.23606 0.0
H798 H 0.67628 0.22624 0.27673 0.0
C799 C 0.57723 0.20087 0.3841 0.0
C800 C 0.56673 0.20414 0.35718 0.0
C801 C 0.60383 0.20823 0.38587 0.0
C802 C 0.62039 0.21929 0.36091 0.0
C803 C 0.60993 0.22286 0.33429 0.0
C804 C 0.58353 0.21534 0.3324 0.0
C805 C 0.64856 0.22695 0.36172 0.0
C806 C 0.65837 0.21777 0.33886 0.0
C807 C 0.66601 0.2442 0.38364 0.0
C808 C 0.65728 0.25549 0.40755 0.0
C809 C 0.64815 0.27273 0.40034 0.0
C810 C 0.63997 0.28341 0.42304 0.0
C811 C 0.64092 0.27701 0.45301 0.0
C812 C 0.65025 0.26008 0.46035 0.0
C813 C 0.65854 0.24943 0.43774 0.0
C814 C 0.7718 0.28289 0.32685 0.0
C815 C 0.7869 0.28446 0.35203 0.0
C816 C 0.74441 0.26915 0.32847 0.0
C817 C 0.73162 0.25633 0.35507 0.0
C818 C 0.74668 0.25688 0.37971 0.0
C819 C 0.77398 0.2708 0.37824 0.0
C820 C 0.70273 0.24414 0.35804 0.0
C821 C 0.69278 0.25238 0.3817 0.0
C822 C 0.68519 0.22608 0.33674 0.0
C823 C 0.69426 0.21548 0.31223 0.0
C824 C 0.70937 0.20366 0.31864 0.0
C825 C 0.71815 0.19404 0.29541 0.0
C826 C 0.71184 0.19598 0.26568 0.0
C827 C 0.69665 0.20748 0.25911 0.0
C828 C 0.68783 0.21716 0.28224 0.0
H829 H 0.71867 0.18853 0.24773 0.0
H830 H 0.63455 0.28527 0.47054 0.0
H831 H 0.42317 0.86995 0.63379 0.0
H832 H 0.44951 0.84855 0.63163 0.0
H833 H 0.44331 0.83818 0.7276 0.0
H834 H 0.41753 0.86002 0.73019 0.0
H835 H 0.4913 0.84861 0.70753 0.0
H836 H 0.40056 0.79026 0.68308 0.0
H837 H 0.3598 0.77767 0.6551 0.0
H838 H 0.39802 0.77894 0.57261 0.0
H839 H 0.43916 0.792 0.60007 0.0
H840 H 0.50825 0.73691 0.71916 0.0
H841 H 0.49202 0.76781 0.72194 0.0
H842 H 0.4967 0.77568 0.62564 0.0
H843 H 0.51247 0.7447 0.62252 0.0
H844 H 0.45068 0.76776 0.64556 0.0
H845 H 0.5414 0.82423 0.67146 0.0
H846 H 0.58186 0.83748 0.70033 0.0
H847 H 0.54318 0.83918 0.7812 0.0
H848 H 0.50236 0.82557 0.75287 0.0
C849 C 0.42784 0.86363 0.65454 0.0
C850 C 0.41787 0.86639 0.68211 0.0
C851 C 0.44285 0.85134 0.65324 0.0
C852 C 0.44792 0.84136 0.6794 0.0
C853 C 0.43954 0.84566 0.70714 0.0
C854 C 0.42465 0.85804 0.70851 0.0
C855 C 0.45962 0.82424 0.67762 0.0
C856 C 0.48237 0.83083 0.69416 0.0
C857 C 0.44799 0.80115 0.66001 0.0
C858 C 0.423 0.79233 0.64359 0.0
C859 C 0.4003 0.78794 0.65896 0.0
C860 C 0.37713 0.78075 0.6432 0.0
C861 C 0.37634 0.77757 0.61209 0.0
C862 C 0.39867 0.78145 0.59671 0.0
C863 C 0.42192 0.78873 0.61236 0.0
C864 C 0.50608 0.7454 0.69859 0.0
C865 C 0.51176 0.73831 0.67063 0.0
C866 C 0.49684 0.76311 0.70023 0.0
C867 C 0.49333 0.77419 0.67399 0.0
C868 C 0.49924 0.76736 0.64616 0.0
C869 C 0.50836 0.74965 0.64447 0.0
C870 C 0.4826 0.79219 0.67527 0.0
C871 C 0.45981 0.78563 0.65876 0.0
C872 C 0.49414 0.81518 0.69307 0.0
C873 C 0.51875 0.82365 0.71008 0.0
C874 C 0.54147 0.82725 0.69544 0.0
C875 C 0.56448 0.83485 0.7117 0.0
C876 C 0.56507 0.83911 0.74259 0.0
C877 C 0.54268 0.83585 0.75727 0.0
C878 C 0.51961 0.82822 0.74112 0.0
H879 H 0.5829 0.84497 0.75515 0.0
H880 H 0.35841 0.77205 0.59991 0.0
H881 H 0.31693 0.80528 0.642 0.0
H882 H 0.28599 0.75856 0.64074 0.0
H883 H 0.26018 0.76253 0.73018 0.0
H884 H 0.29208 0.80951 0.7321 0.0
H885 H 0.26724 0.72275 0.72607 0.0
H886 H 0.22175 0.75388 0.66608 0.0
H887 H 0.21614 0.77923 0.62573 0.0
H888 H 0.23259 0.73633 0.5597 0.0
H889 H 0.23871 0.71098 0.59968 0.0
H890 H 0.1679 0.59119 0.72266 0.0
H891 H 0.18744 0.63865 0.72237 0.0
H892 H 0.22247 0.64216 0.63629 0.0
H893 H 0.20203 0.59431 0.63596 0.0
H894 H 0.20727 0.67842 0.64044 0.0
H895 H 0.25367 0.64803 0.70377 0.0
H896 H 0.2574 0.62299 0.74582 0.0
H897 H 0.23789 0.66615 0.80811 0.0
H898 H 0.23275 0.69059 0.76634 0.0
C899 C 0.30457 0.79637 0.66139 0.0
C900 C 0.30696 0.81122 0.68717 0.0
C901 C 0.28669 0.76958 0.66052 0.0
C902 C 0.27034 0.75705 0.68511 0.0
C903 C 0.27251 0.77181 0.71085 0.0
C904 C 0.29072 0.79865 0.71192 0.0
C905 C 0.25213 0.72829 0.68443 0.0
C906 C 0.25373 0.71312 0.70764 0.0
C907 C 0.23483 0.71565 0.6601 0.0
C908 C 0.23087 0.73064 0.63593 0.0
C909 C 0.22433 0.74995 0.64297 0.0
C910 C 0.22105 0.76432 0.62015 0.0
C911 C 0.22405 0.75942 0.59017 0.0
C912 C 0.23028 0.7401 0.58294 0.0
C913 C 0.23363 0.72571 0.60567 0.0
C914 C 0.17943 0.60197 0.70345 0.0
C915 C 0.18381 0.58904 0.67957 0.0
C916 C 0.19062 0.62914 0.70334 0.0
C917 C 0.20701 0.64401 0.67972 0.0
C918 C 0.21004 0.63106 0.65488 0.0
C919 C 0.1984 0.60374 0.65473 0.0
C920 C 0.22255 0.67299 0.68199 0.0
C921 C 0.22054 0.68814 0.65902 0.0
C922 C 0.23926 0.68568 0.70678 0.0
C923 C 0.24258 0.671 0.73185 0.0
C924 C 0.24992 0.65203 0.72639 0.0
C925 C 0.2523 0.63794 0.75019 0.0
C926 C 0.24809 0.64312 0.77962 0.0
C927 C 0.24119 0.66219 0.7853 0.0
C928 C 0.23841 0.67607 0.76156 0.0
H929 H 0.25021 0.63242 0.79808 0.0
H930 H 0.22151 0.77057 0.57255 0.0
H931 H 0.24237 0.53063 0.73675 0.0
H932 H 0.28923 0.54535 0.73437 0.0
H933 H 0.28594 0.54522 0.63769 0.0
H934 H 0.23925 0.52983 0.63975 0.0
H935 H 0.3172 0.52807 0.65454 0.0
H936 H 0.3076 0.60245 0.67934 0.0
H937 H 0.29249 0.62791 0.7086 0.0
H938 H 0.33149 0.62157 0.78686 0.0
H939 H 0.34675 0.59595 0.75803 0.0
H940 H 0.44957 0.62614 0.61927 0.0
H941 H 0.4021 0.59843 0.62528 0.0
H942 H 0.41225 0.59386 0.72044 0.0
H943 H 0.45947 0.62135 0.71482 0.0
H944 H 0.37783 0.61074 0.70728 0.0
H945 H 0.39201 0.54048 0.67816 0.0
H946 H 0.40857 0.51789 0.64597 0.0
H947 H 0.36168 0.5188 0.57271 0.0
H948 H 0.34512 0.54174 0.60434 0.0
C949 C 0.25155 0.53343 0.71498 0.0
C950 C 0.23699 0.52922 0.68847 0.0
C951 C 0.27838 0.54197 0.71365 0.0
C952 C 0.29122 0.54681 0.68583 0.0
C953 C 0.27652 0.54165 0.65941 0.0
C954 C 0.24975 0.53294 0.66068 0.0
C955 C 0.32011 0.55845 0.684 0.0
C956 C 0.33046 0.54623 0.66594 0.0
C957 C 0.33748 0.58195 0.69917 0.0
C958 C 0.32805 0.59705 0.71663 0.0
C959 C 0.31276 0.6063 0.70285 0.0
C960 C 0.30422 0.6208 0.71935 0.0
C961 C 0.31094 0.62627 0.74962 0.0
C962 C 0.32626 0.61728 0.76343 0.0
C963 C 0.33489 0.60281 0.74702 0.0
C964 C 0.44178 0.61879 0.64139 0.0
C965 C 0.45841 0.6262 0.66657 0.0
C966 C 0.41463 0.60292 0.64478 0.0
C967 C 0.40369 0.59415 0.67334 0.0
C968 C 0.4203 0.60049 0.69823 0.0
C969 C 0.44736 0.61622 0.6949 0.0
C970 C 0.3749 0.58045 0.67774 0.0
C971 C 0.36458 0.59238 0.69621 0.0
C972 C 0.35765 0.55694 0.6626 0.0
C973 C 0.36749 0.54303 0.64356 0.0
C974 C 0.38539 0.53606 0.65511 0.0
C975 C 0.39474 0.52315 0.63698 0.0
C976 C 0.38623 0.51697 0.60729 0.0
C977 C 0.36828 0.52362 0.5957 0.0
C978 C 0.35888 0.53655 0.61374 0.0
H979 H 0.39349 0.50698 0.59329 0.0
H980 H 0.30439 0.63757 0.76236 0.0
H981 H 0.09846 0.31129 0.96786 0.0
H982 H 0.11682 0.34632 0.93019 0.0
H983 H 0.07566 0.28967 0.86037 0.0
H984 H 0.05721 0.25475 0.89761 0.0
H985 H 0.1279 0.32621 0.84535 0.0
H986 H 0.05041 0.32423 0.88469 0.0
H987 H 0.02244 0.3255 0.92503 0.0
H988 H 0.08368 0.40209 0.95103 0.0
H989 H 0.11218 0.40109 0.9111 0.0
H990 H 0.13479 0.41137 0.72688 0.0
H991 H 0.12175 0.37626 0.76397 0.0
H992 H 0.1495 0.43361 0.83524 0.0
H993 H 0.16138 0.46831 0.7986 0.0
H994 H 0.10478 0.39632 0.8501 0.0
H995 H 0.18244 0.39995 0.81116 0.0
H996 H 0.21179 0.39924 0.77221 0.0
H997 H 0.15309 0.32127 0.747 0.0
H998 H 0.12324 0.32164 0.78556 0.0
C999 C 0.09346 0.30632 0.94447 0.0
C1000 C 0.07625 0.28029 0.93576 0.0
C1001 C 0.10392 0.32631 0.92301 0.0
C1002 C 0.09749 0.32054 0.89253 0.0
C1003 C 0.0809 0.29451 0.88375 0.0
C1004 C 0.07023 0.27462 0.90514 0.0
C1005 C 0.10709 0.34165 0.8698 0.0
C1006 C 0.12275 0.34149 0.84618 0.0
C1007 C 0.10071 0.36176 0.87129 0.0
C1008 C 0.08351 0.36246 0.89512 0.0
C1009 C 0.05799 0.34125 0.89917 0.0
C1010 C 0.04203 0.34194 0.92193 0.0
C1011 C 0.0513 0.36383 0.94064 0.0
C1012 C 0.07654 0.38512 0.93656 0.0
C1013 C 0.0926 0.38451 0.91386 0.0
C1014 C 0.13825 0.41639 0.75046 0.0
C1015 C 0.14892 0.44251 0.75987 0.0
C1016 C 0.13092 0.39636 0.77165 0.0
C1017 C 0.13477 0.40225 0.8025 0.0
C1018 C 0.14611 0.42847 0.81167 0.0
C1019 C 0.15294 0.44832 0.79066 0.0
C1020 C 0.12599 0.38125 0.82552 0.0
C1021 C 0.11025 0.38128 0.84921 0.0
C1022 C 0.13259 0.36122 0.82423 0.0
C1023 C 0.15051 0.36093 0.80105 0.0
C1024 C 0.17571 0.38273 0.79716 0.0
C1025 C 0.19245 0.38238 0.77518 0.0
C1026 C 0.18428 0.36026 0.75709 0.0
C1027 C 0.15938 0.33841 0.761 0.0
C1028 C 0.14255 0.33867 0.78293 0.0
H1029 H 0.19727 0.36002 0.74008 0.0
H1030 H 0.03892 0.36433 0.95825 0.0
H1031 H 0.7361 0.83862 0.95002 0.0
H1032 H 0.70327 0.8239 0.91005 0.0
H1033 H 0.73528 0.77893 0.87085 0.0
H1034 H 0.76854 0.79412 0.91017 0.0
H1035 H 0.72619 0.80395 0.82849 0.0
H1036 H 0.67688 0.74996 0.91117 0.0
H1037 H 0.65956 0.74049 0.96276 0.0
H1038 H 0.62072 0.78475 0.94805 0.0
H1039 H 0.63812 0.7948 0.89647 0.0
H1040 H 0.61531 0.7208 0.73553 0.0
H1041 H 0.65139 0.73963 0.77179 0.0
H1042 H 0.62449 0.79096 0.80467 0.0
H1043 H 0.58852 0.7724 0.76859 0.0
H1044 H 0.63109 0.76314 0.8497 0.0
H1045 H 0.68015 0.81569 0.76558 0.0
H1046 H 0.69716 0.82357 0.71384 0.0
H1047 H 0.73585 0.77955 0.7312 0.0
H1048 H 0.71876 0.77109 0.78295 0.0
C1049 C 0.73603 0.82546 0.933 0.0
C1050 C 0.75492 0.81754 0.93331 0.0
C1051 C 0.71721 0.817 0.91018 0.0
C1052 C 0.71663 0.8001 0.88752 0.0
C1053 C 0.73536 0.79202 0.88798 0.0
C1054 C 0.7543 0.80065 0.91059 0.0
C1055 C 0.69678 0.79109 0.86309 0.0
C1056 C 0.70537 0.79473 0.83316 0.0
C1057 C 0.66962 0.77946 0.86909 0.0
C1058 C 0.65902 0.77335 0.90005 0.0
C1059 C 0.66481 0.75784 0.91901 0.0
C1060 C 0.65495 0.75234 0.94824 0.0
C1061 C 0.63911 0.76207 0.9587 0.0
C1062 C 0.63303 0.77726 0.93992 0.0
C1063 C 0.64286 0.78285 0.91068 0.0
C1064 C 0.61739 0.73648 0.75003 0.0
C1065 C 0.59892 0.74498 0.74924 0.0
C1066 C 0.63801 0.74721 0.77077 0.0
C1067 C 0.64054 0.76662 0.79101 0.0
C1068 C 0.6228 0.77589 0.78937 0.0
C1069 C 0.6023 0.7653 0.76861 0.0
C1070 C 0.66053 0.77607 0.8152 0.0
C1071 C 0.65193 0.77243 0.84508 0.0
C1072 C 0.68762 0.78742 0.80914 0.0
C1073 C 0.69796 0.79254 0.77805 0.0
C1074 C 0.6921 0.8075 0.75829 0.0
C1075 C 0.70179 0.81211 0.72898 0.0
C1076 C 0.71751 0.80201 0.71922 0.0
C1077 C 0.72364 0.78733 0.73878 0.0
C1078 C 0.71397 0.78264 0.76811 0.0
H1079 H 0.725 0.80561 0.69651 0.0
H1080 H 0.63149 0.75779 0.98134 0.0
H1081 H 0.28314 0.9096 0.71868 0.0
H1082 H 0.2576 0.92076 0.75327 0.0
H1083 H 0.28998 0.90061 0.82859 0.0
H1084 H 0.31586 0.89012 0.7945 0.0
H1085 H 0.23283 0.88039 0.83021 0.0
H1086 H 0.31677 0.96 0.81523 0.0
H1087 H 0.35133 0.9943 0.78386 0.0
H1088 H 0.29581 0.01431 0.74836 0.0
H1089 H 0.26081 0.9798 0.77922 0.0
H1090 H 0.21222 0.94023 0.95764 0.0
H1091 H 0.22826 0.923 0.91805 0.0
H1092 H 0.21336 0.96759 0.8521 0.0
H1093 H 0.19844 0.98564 0.89165 0.0
H1094 H 0.2584 0.9739 0.84188 0.0
H1095 H 0.17505 0.89829 0.85886 0.0
H1096 H 0.13891 0.8634 0.88798 0.0
H1097 H 0.18954 0.83466 0.91656 0.0
H1098 H 0.22612 0.86962 0.88793 0.0
C1099 C 0.28464 0.90744 0.74261 0.0
C1100 C 0.30163 0.89922 0.75393 0.0
C1101 C 0.27008 0.91378 0.76228 0.0
C1102 C 0.27195 0.91145 0.79343 0.0
C1103 C 0.28823 0.90243 0.80463 0.0
C1104 C 0.30314 0.89665 0.78512 0.0
C1105 C 0.25816 0.91973 0.81467 0.0
C1106 C 0.23839 0.90082 0.83295 0.0
C1107 C 0.26506 0.94627 0.81758 0.0
C1108 C 0.28613 0.96712 0.79922 0.0
C1109 C 0.31188 0.97154 0.80052 0.0
C1110 C 0.33156 0.99105 0.78288 0.0
C1111 C 0.32575 0.00642 0.76405 0.0
C1112 C 0.30027 0.00235 0.76291 0.0
C1113 C 0.28051 0.98283 0.78047 0.0
C1114 C 0.2121 0.94608 0.93464 0.0
C1115 C 0.20415 0.96432 0.92775 0.0
C1116 C 0.22116 0.93614 0.91197 0.0
C1117 C 0.22182 0.94377 0.88192 0.0
C1118 C 0.21318 0.96146 0.87504 0.0
C1119 C 0.20459 0.97172 0.89769 0.0
C1120 C 0.23287 0.93457 0.85788 0.0
C1121 C 0.25234 0.95336 0.83906 0.0
C1122 C 0.22534 0.90782 0.8542 0.0
C1123 C 0.2034 0.88673 0.87144 0.0
C1124 C 0.17854 0.88466 0.87153 0.0
C1125 C 0.15797 0.86484 0.88792 0.0
C1126 C 0.16194 0.84686 0.90417 0.0
C1127 C 0.1865 0.84862 0.90399 0.0
C1128 C 0.20715 0.86841 0.88765 0.0
H1129 H 0.14599 0.83154 0.91684 0.0
H1130 H 0.34101 0.02152 0.75042 0.0
H1131 H 0.39166 0.15726 0.29515 0.0
H1132 H 0.35681 0.13844 0.25703 0.0
H1133 H 0.41298 0.14393 0.19121 0.0
H1134 H 0.44746 0.1621 0.22883 0.0
H1135 H 0.3485 0.15425 0.20193 0.0
H1136 H 0.38658 0.08956 0.14924 0.0
H1137 H 0.41141 0.06799 0.16469 0.0
H1138 H 0.38546 0.06402 0.2555 0.0
H1139 H 0.36014 0.08516 0.24051 0.0
H1140 H 0.28262 0.10162 0.06267 0.0
H1141 H 0.31649 0.1238 0.10117 0.0
H1142 H 0.28543 0.05136 0.15047 0.0
H1143 H 0.25235 0.02909 0.11205 0.0
H1144 H 0.3356 0.07389 0.15058 0.0
H1145 H 0.27296 0.10136 0.17053 0.0
H1146 H 0.24559 0.12114 0.15935 0.0
H1147 H 0.31462 0.19482 0.14078 0.0
H1148 H 0.3424 0.17538 0.15143 0.0
C1149 C 0.39654 0.15459 0.27249 0.0
C1150 C 0.42222 0.16078 0.26514 0.0
C1151 C 0.37667 0.14394 0.25074 0.0
C1152 C 0.38226 0.13941 0.22142 0.0
C1153 C 0.40812 0.14678 0.21382 0.0
C1154 C 0.42782 0.15715 0.23544 0.0
C1155 C 0.36109 0.12575 0.19895 0.0
C1156 C 0.3456 0.13666 0.19069 0.0
C1157 C 0.35706 0.10256 0.18467 0.0
C1158 C 0.37166 0.08917 0.19376 0.0
C1159 C 0.38605 0.08394 0.17246 0.0
C1160 C 0.40023 0.07181 0.18115 0.0
C1161 C 0.40008 0.06472 0.21108 0.0
C1162 C 0.38563 0.0696 0.23235 0.0
C1163 C 0.37138 0.08167 0.22377 0.0
C1164 C 0.28319 0.09041 0.08159 0.0
C1165 C 0.26472 0.06359 0.08426 0.0
C1166 C 0.30241 0.10315 0.10371 0.0
C1167 C 0.30329 0.08933 0.12897 0.0
C1168 C 0.28519 0.06248 0.13125 0.0
C1169 C 0.2662 0.04975 0.10918 0.0
C1170 C 0.32305 0.10249 0.15311 0.0
C1171 C 0.3384 0.09149 0.16171 0.0
C1172 C 0.32642 0.12518 0.16814 0.0
C1173 C 0.30974 0.13684 0.16151 0.0
C1174 C 0.28229 0.12172 0.16381 0.0
C1175 C 0.26671 0.13287 0.15761 0.0
C1176 C 0.27837 0.15921 0.14934 0.0
C1177 C 0.30562 0.17442 0.14718 0.0
C1178 C 0.3213 0.16335 0.15331 0.0
H1179 H 0.2663 0.16786 0.14474 0.0
H1180 H 0.41112 0.05539 0.21777 0.0
H1181 H 0.99493 0.25591 0.0956 0.0
H1182 H 0.97101 0.26568 0.13309 0.0
H1183 H 0.89831 0.19988 0.10277 0.0
H1184 H 0.92223 0.18978 0.06484 0.0
H1185 H 0.89488 0.24529 0.11707 0.0
H1186 H 0.92541 0.19144 0.16166 0.0
H1187 H 0.95825 0.17864 0.17417 0.0
H1188 H 0.00366 0.25078 0.22224 0.0
H1189 H 0.97135 0.26425 0.20953 0.0
H1190 H 0.82789 0.24989 0.24673 0.0
H1191 H 0.84527 0.23264 0.20883 0.0
H1192 H 0.92412 0.28955 0.23516 0.0
H1193 H 0.90695 0.30655 0.27347 0.0
H1194 H 0.92094 0.2439 0.22267 0.0
H1195 H 0.89385 0.2998 0.17509 0.0
H1196 H 0.86255 0.3145 0.16213 0.0
H1197 H 0.81235 0.24068 0.11929 0.0
H1198 H 0.84318 0.22538 0.13243 0.0
C1199 C 0.97381 0.24361 0.09655 0.0
C1200 C 0.96052 0.22183 0.07741 0.0
C1201 C 0.96018 0.24923 0.11809 0.0
C1202 C 0.93298 0.2332 0.12109 0.0
C1203 C 0.91935 0.21238 0.1009 0.0
C1204 C 0.93304 0.20667 0.07924 0.0
C1205 C 0.91929 0.23762 0.14639 0.0
C1206 C 0.90018 0.24451 0.1402 0.0
C1207 C 0.92665 0.2371 0.17652 0.0
C1208 C 0.94601 0.22892 0.18448 0.0
C1209 C 0.94249 0.20466 0.17472 0.0
C1210 C 0.961 0.19728 0.18186 0.0
C1211 C 0.98301 0.21387 0.19901 0.0
C1212 C 0.98658 0.23792 0.20899 0.0
C1213 C 0.96816 0.24544 0.20184 0.0
C1214 C 0.84893 0.25849 0.24479 0.0
C1215 C 0.86601 0.27975 0.263 0.0
C1216 C 0.85884 0.24868 0.22298 0.0
C1217 C 0.886 0.26014 0.21872 0.0
C1218 C 0.90308 0.28045 0.23793 0.0
C1219 C 0.89321 0.29016 0.25986 0.0
C1220 C 0.89672 0.25195 0.19341 0.0
C1221 C 0.91535 0.24437 0.19959 0.0
C1222 C 0.88907 0.25206 0.16327 0.0
C1223 C 0.87068 0.26134 0.15503 0.0
C1224 C 0.87605 0.28664 0.16309 0.0
C1225 C 0.8584 0.29509 0.1557 0.0
C1226 C 0.83544 0.27851 0.13997 0.0
C1227 C 0.83012 0.25348 0.13152 0.0
C1228 C 0.84767 0.24491 0.13893 0.0
H1229 H 0.8218 0.28508 0.13426 0.0
H1230 H 0.99727 0.20808 0.2046 0.0
H1231 H 0.77748 0.64715 0.30388 0.0
H1232 H 0.79154 0.68167 0.26571 0.0
H1233 H 0.74325 0.6238 0.19991 0.0
H1234 H 0.72884 0.58961 0.23762 0.0
H1235 H 0.81611 0.69137 0.21132 0.0
H1236 H 0.71332 0.64719 0.15652 0.0
H1237 H 0.66692 0.61981 0.17104 0.0
H1238 H 0.68632 0.64617 0.26217 0.0
H1239 H 0.73274 0.67402 0.24811 0.0
H1240 H 0.8265 0.75412 0.07107 0.0
H1241 H 0.8161 0.72106 0.11009 0.0
H1242 H 0.77156 0.7495 0.15783 0.0
H1243 H 0.78123 0.78192 0.11889 0.0
H1244 H 0.74598 0.69874 0.15824 0.0
H1245 H 0.83422 0.7655 0.17955 0.0
H1246 H 0.88097 0.79533 0.16847 0.0
H1247 H 0.89134 0.72945 0.15069 0.0
H1248 H 0.84453 0.69922 0.16126 0.0
C1249 C 0.77002 0.64184 0.28122 0.0
C1250 C 0.75175 0.61571 0.2739 0.0
C1251 C 0.77812 0.66153 0.25944 0.0
C1252 C 0.76809 0.65535 0.2301 0.0
C1253 C 0.75083 0.62912 0.22253 0.0
C1254 C 0.7426 0.60957 0.2442 0.0
C1255 C 0.77453 0.67619 0.20752 0.0
C1256 C 0.80082 0.69304 0.19971 0.0
C1257 C 0.75458 0.67864 0.19274 0.0
C1258 C 0.72655 0.66251 0.20128 0.0
C1259 C 0.70766 0.64727 0.17961 0.0
C1260 C 0.68135 0.63165 0.18778 0.0
C1261 C 0.67369 0.63119 0.21753 0.0
C1262 C 0.69229 0.64647 0.23915 0.0
C1263 C 0.7186 0.66217 0.2311 0.0
C1264 C 0.81433 0.75318 0.08977 0.0
C1265 C 0.80479 0.77074 0.09186 0.0
C1266 C 0.80856 0.7344 0.11217 0.0
C1267 C 0.79334 0.73302 0.13714 0.0
C1268 C 0.78335 0.75017 0.13885 0.0
C1269 C 0.78898 0.76877 0.1165 0.0
C1270 C 0.7876 0.71376 0.16158 0.0
C1271 C 0.76135 0.69714 0.16976 0.0
C1272 C 0.80764 0.71199 0.17713 0.0
C1273 C 0.83582 0.73011 0.17091 0.0
C1274 C 0.84642 0.75738 0.17306 0.0
C1275 C 0.87294 0.77436 0.16691 0.0
C1276 C 0.8891 0.76429 0.1588 0.0
C1277 C 0.87879 0.73722 0.15693 0.0
C1278 C 0.85227 0.72015 0.16302 0.0
H1279 H 0.90963 0.77747 0.15405 0.0
H1280 H 0.65333 0.61903 0.22381 0.0
H1281 H 0.08069 0.46552 0.61991 0.0
H1282 H 0.04484 0.44388 0.5839 0.0
H1283 H 0.07153 0.51722 0.53785 0.0
H1284 H 0.10716 0.53917 0.57409 0.0
H1285 H 0.01824 0.48831 0.53869 0.0
H1286 H 0.08995 0.47467 0.51336 0.0
H1287 H 0.12286 0.46148 0.52372 0.0
H1288 H 0.06157 0.38309 0.54265 0.0
H1289 H 0.02825 0.39587 0.53273 0.0
H1290 H 0.95237 0.43128 0.4009 0.0
H1291 H 0.98768 0.45632 0.43701 0.0
H1292 H 0.9648 0.38579 0.4876 0.0
H1293 H 0.92984 0.36071 0.45172 0.0
H1294 H 0.01738 0.41495 0.4829 0.0
H1295 H 0.9458 0.4285 0.50956 0.0
H1296 H 0.91255 0.44145 0.50034 0.0
H1297 H 0.97325 0.51969 0.4795 0.0
H1298 H 0.00687 0.50709 0.48819 0.0
C1299 C 0.07866 0.47719 0.6025 0.0
C1300 C 0.09701 0.50403 0.59969 0.0
C1301 C 0.05822 0.46475 0.58183 0.0
C1302 C 0.05589 0.47884 0.55779 0.0
C1303 C 0.07307 0.50595 0.5561 0.0
C1304 C 0.09346 0.51845 0.57686 0.0
C1305 C 0.03679 0.465 0.5333 0.0
C1306 C 0.01825 0.47249 0.52622 0.0
C1307 C 0.03663 0.44416 0.51725 0.0
C1308 C 0.05661 0.43628 0.52254 0.0
C1309 C 0.08349 0.45465 0.51987 0.0
C1310 C 0.10222 0.44726 0.52568 0.0
C1311 C 0.09432 0.4215 0.53396 0.0
C1312 C 0.06766 0.40305 0.53628 0.0
C1313 C 0.04884 0.41034 0.53053 0.0
C1314 C 0.95508 0.42108 0.41952 0.0
C1315 C 0.93819 0.39404 0.42353 0.0
C1316 C 0.97515 0.43543 0.44022 0.0
C1317 C 0.97864 0.42296 0.46521 0.0
C1318 C 0.96243 0.39583 0.46855 0.0
C1319 C 0.94239 0.38154 0.44802 0.0
C1320 C 0.99864 0.43807 0.48845 0.0
C1321 C 0.01743 0.43085 0.49525 0.0
C1322 C 0.99899 0.45911 0.50422 0.0
C1323 C 0.97883 0.46677 0.49919 0.0
C1324 C 0.95205 0.44841 0.50277 0.0
C1325 C 0.93314 0.45569 0.49768 0.0
C1326 C 0.94078 0.48135 0.48925 0.0
C1327 C 0.96736 0.4998 0.48598 0.0
C1328 C 0.98635 0.49261 0.491 0.0
H1329 H 0.92611 0.48696 0.48532 0.0
H1330 H 0.10886 0.41584 0.5385 0.0
H1331 H 0.67389 0.57529 0.45661 0.0
H1332 H 0.64806 0.58513 0.49122 0.0
H1333 H 0.58843 0.5641 0.42364 0.0
H1334 H 0.61418 0.55369 0.38853 0.0
H1335 H 0.60548 0.61396 0.45743 0.0
H1336 H 0.57368 0.52215 0.47338 0.0
H1337 H 0.57887 0.48371 0.48227 0.0
H1338 H 0.61874 0.51735 0.56519 0.0
H1339 H 0.61415 0.55621 0.55656 0.0
H1340 H 0.52157 0.62546 0.5589 0.0
H1341 H 0.53652 0.60562 0.52144 0.0
H1342 H 0.58934 0.60269 0.58646 0.0
H1343 H 0.57312 0.62118 0.62462 0.0
H1344 H 0.5722 0.56212 0.55108 0.0
H1345 H 0.6087 0.65442 0.53515 0.0
H1346 H 0.60642 0.69473 0.5281 0.0
H1347 H 0.56234 0.6633 0.44694 0.0
H1348 H 0.56395 0.62258 0.4538 0.0
C1349 C 0.65537 0.57283 0.44887 0.0
C1350 C 0.64608 0.56362 0.41974 0.0
C1351 C 0.64059 0.5784 0.4688 0.0
C1352 C 0.61629 0.57512 0.46005 0.0
C1353 C 0.60716 0.56665 0.43077 0.0
C1354 C 0.62184 0.56069 0.41081 0.0
C1355 C 0.60062 0.58042 0.48196 0.0
C1356 C 0.59767 0.60234 0.47761 0.0
C1357 C 0.5913 0.56571 0.50871 0.0
C1358 C 0.59373 0.54218 0.5142 0.0
C1359 C 0.58372 0.52144 0.4934 0.0
C1360 C 0.58653 0.49956 0.49841 0.0
C1361 C 0.59917 0.49811 0.52425 0.0
C1362 C 0.60896 0.51851 0.54518 0.0
C1363 C 0.60623 0.54045 0.54026 0.0
C1364 C 0.53599 0.62007 0.56532 0.0
C1365 C 0.54641 0.625 0.59448 0.0
C1366 C 0.54465 0.60889 0.54387 0.0
C1367 C 0.56467 0.60342 0.55081 0.0
C1368 C 0.57401 0.60692 0.58049 0.0
C1369 C 0.56478 0.61747 0.60227 0.0
C1370 C 0.57705 0.59581 0.52671 0.0
C1371 C 0.5796 0.57357 0.53072 0.0
C1372 C 0.58648 0.61054 0.49986 0.0
C1373 C 0.58625 0.63536 0.49513 0.0
C1374 C 0.59845 0.65607 0.51585 0.0
C1375 C 0.59725 0.67898 0.51191 0.0
C1376 C 0.58419 0.68155 0.48712 0.0
C1377 C 0.57241 0.66126 0.46615 0.0
C1378 C 0.57347 0.63826 0.47005 0.0
H1379 H 0.58323 0.69927 0.48414 0.0
H1380 H 0.60134 0.48116 0.52808 0.0
H1381 H 0.45027 0.94797 0.58095 0.0
H1382 H 0.46491 0.98268 0.54359 0.0
H1383 H 0.4033 0.99776 0.57033 0.0
H1384 H 0.38821 0.96271 0.60755 0.0
H1385 H 0.40375 0.99202 0.5107 0.0
H1386 H 0.4677 0.04119 0.58627 0.0
H1387 H 0.50249 0.05016 0.62303 0.0
H1388 H 0.55128 0.04812 0.55278 0.0
H1389 H 0.51662 0.03877 0.51563 0.0
H1390 H 0.444 0.11066 0.43401 0.0
H1391 H 0.43234 0.07614 0.47087 0.0
H1392 H 0.49342 0.06289 0.43729 0.0
H1393 H 0.50551 0.09787 0.40019 0.0
H1394 H 0.4942 0.06677 0.49884 0.0
H1395 H 0.43061 0.01884 0.42309 0.0
H1396 H 0.39586 0.01022 0.38639 0.0
H1397 H 0.34637 0.01003 0.45719 0.0
H1398 H 0.38098 0.01903 0.49428 0.0
C1399 C 0.44006 0.95893 0.57928 0.0
C1400 C 0.418 0.95249 0.59722 0.0
C1401 C 0.44853 0.97885 0.55791 0.0
C1402 C 0.43524 0.99287 0.55417 0.0
C1403 C 0.4138 0.98714 0.57279 0.0
C1404 C 0.40531 0.96722 0.59421 0.0
C1405 C 0.44264 0.01228 0.52956 0.0
C1406 C 0.42344 0.00859 0.50838 0.0
C1407 C 0.46855 0.03337 0.52591 0.0
C1408 C 0.48945 0.03901 0.54821 0.0
C1409 C 0.48575 0.04243 0.57869 0.0
C1410 C 0.50547 0.04763 0.5996 0.0
C1411 C 0.52906 0.04964 0.59026 0.0
C1412 C 0.53299 0.04652 0.55999 0.0
C1413 C 0.51333 0.0413 0.53899 0.0
C1414 C 0.45486 0.10029 0.43418 0.0
C1415 C 0.47573 0.10704 0.41413 0.0
C1416 C 0.44808 0.08047 0.45526 0.0
C1417 C 0.4619 0.06683 0.45674 0.0
C1418 C 0.4825 0.07319 0.43649 0.0
C1419 C 0.48926 0.09303 0.4152 0.0
C1420 C 0.45523 0.04664 0.48024 0.0
C1421 C 0.47455 0.05014 0.50115 0.0
C1422 C 0.42941 0.02536 0.48368 0.0
C1423 C 0.40849 0.01983 0.46144 0.0
C1424 C 0.4124 0.01717 0.43081 0.0
C1425 C 0.39271 0.01218 0.40994 0.0
C1426 C 0.36895 0.00964 0.41945 0.0
C1427 C 0.3648 0.01202 0.44986 0.0
C1428 C 0.38443 0.01704 0.47082 0.0
H1429 H 0.35373 0.00577 0.40325 0.0
H1430 H 0.5443 0.05367 0.60648 0.0
loop_
_geom_bond_atom_site_label_1
_geom_bond_atom_site_label_2
_geom_bond_distance
_geom_bond_site_symmetry_2
_ccdc_geom_bond_type
Co0 O2 2.143 . S
Co0 O8 2.074 . S
Co0 O11 2.093 1_455 S
Co0 O24 2.097 1_455 S
Co0 N41 2.151 . S
Co0 N49 2.214 . S
Co1 O2 2.160 1_556 S
Co1 O7 2.058 . S
Co1 O17 2.057 . S
Co1 O32 2.037 1_455 S
Co1 N36 2.145 . S
Co1 N57 2.257 1_455 S
O2 Co0 2.143 . S
O2 Co1 2.160 1_554 S
C3 O4 1.278 . S
C3 O11 1.224 . S
O4 C3 1.278 . S
C5 O6 1.245 . S
C5 O17 1.232 . S
O6 C5 1.245 . S
O7 Co1 2.058 . S
O7 C33 1.269 1_556 S
O8 Co0 2.074 . S
O8 C33 1.257 . S
H9 C34 0.933 1_655 S
H10 C40 0.930 . S
O11 Co0 2.093 1_655 S
O11 C3 1.224 . S
H12 C44 0.929 . S
H13 C46 0.930 . S
H14 C47 0.930 . S
H15 C45 0.929 . S
H16 C48 0.928 . S
O17 Co1 2.057 . S
O17 C5 1.232 . S
H18 C37 0.929 . S
H19 C38 0.929 . S
H20 C50 0.931 . S
H21 C42 0.929 . S
H22 C51 0.930 . S
H23 C43 0.931 . S
O24 Co0 2.097 1_655 S
O24 C52 1.214 . S
H25 C53 0.929 . S
H26 C54 0.929 . S
H27 C55 0.930 . S
H28 C56 0.929 . S
H29 C58 0.930 . S
H30 C35 0.930 . S
H31 C39 0.930 1_655 S
O32 Co1 2.037 1_655 S
O32 C52 1.234 1_556 S
C33 O7 1.269 1_554 S
C33 O8 1.257 . S
C34 H9 0.933 1_455 S
C34 C37 1.386 . S
C34 C39 1.416 . S
C35 H30 0.930 . S
C35 C38 1.404 . S
C35 C39 1.353 . S
N36 Co1 2.145 . S
N36 C37 1.397 . S
N36 C38 1.334 . S
C37 H18 0.929 . S
C37 C34 1.386 . S
C37 N36 1.397 . S
C38 H19 0.929 . S
C38 C35 1.404 . S
C38 N36 1.334 . S
C39 H31 0.930 1_455 S
C39 C34 1.416 . S
C39 C35 1.353 . S
C40 H10 0.930 . S
C40 N41 1.330 . S
C40 C42 1.446 . S
N41 Co0 2.151 . S
N41 C40 1.330 . S
N41 C45 1.418 . S
C42 H21 0.929 . S
C42 C40 1.446 . S
C42 C43 1.332 . S
C43 H23 0.931 . S
C43 C42 1.332 . S
C43 C44 1.267 . S
C44 H12 0.929 . S
C44 C43 1.267 . S
C44 C45 1.251 . S
C45 H15 0.929 . S
C45 N41 1.418 . S
C45 C44 1.251 . S
C46 H13 0.930 . S
C46 C48 1.406 . S
C46 C51 1.261 . S
C47 H14 0.930 . S
C47 N49 1.325 . S
C47 C50 1.357 . S
C48 H16 0.928 . S
C48 C46 1.406 . S
C48 N49 1.261 . S
N49 Co0 2.214 . S
N49 C47 1.325 . S
N49 C48 1.261 . S
C50 H20 0.931 . S
C50 C47 1.357 . S
C50 C51 1.312 . S
C51 H22 0.930 . S
C51 C46 1.261 . S
C51 C50 1.312 . S
C52 O24 1.214 . S
C52 O32 1.234 1_554 S
C53 H25 0.929 . S
C53 C56 1.391 . S
C53 C58 1.391 . S
C54 H26 0.929 . S
C54 C55 1.390 . S
C54 N57 1.391 . S
C55 H27 0.930 . S
C55 C54 1.390 . S
C55 C56 1.392 . S
C56 H28 0.929 . S
C56 C53 1.391 . S
C56 C55 1.392 . S
N57 Co1 2.257 1_655 S
N57 C54 1.391 . S
N57 C58 1.388 . S
C58 H29 0.930 . S
C58 C53 1.391 . S
C58 N57 1.388 . S
Co59 O61 2.143 1_556 S
Co59 O67 2.074 . S
Co59 O70 2.093 . S
Co59 O83 2.097 . S
Co59 N100 2.151 . S
Co59 N108 2.214 . S
Co60 O61 2.160 . S
Co60 O66 2.058 . S
Co60 O76 2.057 . S
Co60 O91 2.037 . S
Co60 N95 2.145 . S
Co60 N116 2.257 . S
O61 Co59 2.143 1_554 S
O61 Co60 2.160 . S
C62 O63 1.278 . S
C62 O70 1.224 . S
O63 C62 1.278 . S
C64 O65 1.245 . S
C64 O76 1.232 . S
O65 C64 1.245 . S
O66 Co60 2.058 . S
O66 C92 1.269 . S
O67 Co59 2.074 . S
O67 C92 1.257 1_556 S
H68 C93 0.930 . S
H69 C99 0.930 . S
O70 Co59 2.093 . S
O70 C62 1.224 . S
H71 C103 0.929 . S
H72 C105 0.930 . S
H73 C106 0.930 . S
H74 C104 0.929 . S
H75 C107 0.928 . S
O76 Co60 2.057 . S
O76 C64 1.232 . S
H77 C96 0.929 . S
H78 C97 0.929 . S
H79 C109 0.931 . S
H80 C101 0.929 . S
H81 C110 0.930 . S
H82 C102 0.931 . S
O83 Co59 2.097 . S
O83 C111 1.214 1_556 S
H84 C112 0.929 . S
H85 C113 0.929 . S
H86 C114 0.930 . S
H87 C115 0.929 . S
H88 C117 0.930 . S
H89 C94 0.930 . S
H90 C98 0.930 . S
O91 Co60 2.037 . S
O91 C111 1.234 . S
C92 O66 1.269 . S
C92 O67 1.257 1_554 S
C93 H68 0.930 . S
C93 C96 1.388 . S
C93 C98 1.418 . S
C94 H89 0.930 . S
C94 C97 1.404 . S
C94 C98 1.353 . S
N95 Co60 2.145 . S
N95 C96 1.397 . S
N95 C97 1.334 . S
C96 H77 0.929 . S
C96 C93 1.388 . S
C96 N95 1.397 . S
C97 H78 0.929 . S
C97 C94 1.404 . S
C97 N95 1.334 . S
C98 H90 0.930 . S
C98 C93 1.418 . S
C98 C94 1.353 . S
C99 H69 0.930 . S
C99 N100 1.330 . S
C99 C101 1.446 . S
N100 Co59 2.151 . S
N100 C99 1.330 . S
N100 C104 1.418 . S
C101 H80 0.929 . S
C101 C99 1.446 . S
C101 C102 1.332 . S
C102 H82 0.931 . S
C102 C101 1.332 . S
C102 C103 1.267 . S
C103 H71 0.929 . S
C103 C102 1.267 . S
C103 C104 1.251 . S
C104 H74 0.929 . S
C104 N100 1.418 . S
C104 C103 1.251 . S
C105 H72 0.930 . S
C105 C107 1.406 . S
C105 C110 1.261 . S
C106 H73 0.930 . S
C106 N108 1.325 . S
C106 C109 1.357 . S
C107 H75 0.928 . S
C107 C105 1.406 . S
C107 N108 1.261 . S
N108 Co59 2.214 . S
N108 C106 1.325 . S
N108 C107 1.261 . S
C109 H79 0.931 . S
C109 C106 1.357 . S
C109 C110 1.312 . S
C110 H81 0.930 . S
C110 C105 1.261 . S
C110 C109 1.312 . S
C111 O83 1.214 1_554 S
C111 O91 1.234 . S
C112 H84 0.929 . S
C112 C115 1.391 . S
C112 C117 1.391 . S
C113 H85 0.929 . S
C113 C114 1.390 . S
C113 N116 1.391 . S
C114 H86 0.930 . S
C114 C113 1.390 . S
C114 C115 1.392 . S
C115 H87 0.929 . S
C115 C112 1.391 . S
C115 C114 1.392 . S
N116 Co60 2.257 . S
N116 C113 1.391 . S
N116 C117 1.388 . S
C117 H88 0.930 . S
C117 C112 1.391 . S
C117 N116 1.388 . S
Co118 O120 2.143 . S
Co118 O126 2.074 1_545 S
Co118 O129 2.093 . S
Co118 O142 2.097 . S
Co118 N159 2.151 1_545 S
Co118 N167 2.214 . S
Co119 O120 2.160 1_556 S
Co119 O125 2.058 1_545 S
Co119 O135 2.057 . S
Co119 O150 2.037 . S
Co119 N154 2.145 . S
Co119 N175 2.257 . S
O120 Co118 2.143 . S
O120 Co119 2.160 1_554 S
C121 O122 1.278 . S
C121 O129 1.224 . S
O122 C121 1.278 . S
C123 O124 1.245 . S
C123 O135 1.232 1_565 S
O124 C123 1.245 . S
O125 Co119 2.058 1_565 S
O125 C151 1.269 1_556 S
O126 Co118 2.074 1_565 S
O126 C151 1.257 . S
H127 C152 0.930 . S
H128 C158 0.930 . S
O129 Co118 2.093 . S
O129 C121 1.224 . S
H130 C162 0.929 . S
H131 C164 0.930 . S
H132 C165 0.930 . S
H133 C163 0.929 . S
H134 C166 0.928 . S
O135 Co119 2.057 . S
O135 C123 1.232 1_545 S
H136 C155 0.929 . S
H137 C156 0.929 . S
H138 C168 0.931 . S
H139 C160 0.929 . S
H140 C169 0.930 . S
H141 C161 0.931 . S
O142 Co118 2.097 . S
O142 C170 1.214 . S
H143 C171 0.929 . S
H144 C172 0.929 . S
H145 C173 0.930 . S
H146 C174 0.929 . S
H147 C176 0.930 . S
H148 C153 0.930 . S
H149 C157 0.930 . S
O150 Co119 2.037 . S
O150 C170 1.234 1_556 S
C151 O125 1.269 1_554 S
C151 O126 1.257 . S
C152 H127 0.930 . S
C152 C155 1.388 . S
C152 C157 1.418 . S
C153 H148 0.930 . S
C153 C156 1.404 . S
C153 C157 1.353 . S
N154 Co119 2.145 . S
N154 C155 1.397 . S
N154 C156 1.334 . S
C155 H136 0.929 . S
C155 C152 1.388 . S
C155 N154 1.397 . S
C156 H137 0.929 . S
C156 C153 1.404 . S
C156 N154 1.334 . S
C157 H149 0.930 . S
C157 C152 1.418 . S
C157 C153 1.353 . S
C158 H128 0.930 . S
C158 N159 1.330 . S
C158 C160 1.446 . S
N159 Co118 2.151 1_565 S
N159 C158 1.330 . S
N159 C163 1.418 . S
C160 H139 0.929 . S
C160 C158 1.446 . S
C160 C161 1.332 . S
C161 H141 0.931 . S
C161 C160 1.332 . S
C161 C162 1.267 . S
C162 H130 0.929 . S
C162 C161 1.267 . S
C162 C163 1.251 . S
C163 H133 0.929 . S
C163 N159 1.418 . S
C163 C162 1.251 . S
C164 H131 0.930 . S
C164 C166 1.406 . S
C164 C169 1.261 . S
C165 H132 0.930 . S
C165 N167 1.325 . S
C165 C168 1.357 . S
C166 H134 0.928 . S
C166 C164 1.406 . S
C166 N167 1.261 . S
N167 Co118 2.214 . S
N167 C165 1.325 . S
N167 C166 1.261 . S
C168 H138 0.931 . S
C168 C165 1.357 . S
C168 C169 1.312 . S
C169 H140 0.930 . S
C169 C164 1.261 . S
C169 C168 1.312 . S
C170 O142 1.214 . S
C170 O150 1.234 1_554 S
C171 H143 0.929 . S
C171 C174 1.391 . S
C171 C176 1.391 . S
C172 H144 0.929 . S
C172 C173 1.390 . S
C172 N175 1.391 . S
C173 H145 0.930 . S
C173 C172 1.390 . S
C173 C174 1.392 . S
C174 H146 0.929 . S
C174 C171 1.391 . S
C174 C173 1.392 . S
N175 Co119 2.257 . S
N175 C172 1.391 . S
N175 C176 1.388 . S
C176 H147 0.930 . S
C176 C171 1.391 . S
C176 N175 1.388 . S
Co177 O179 2.143 . S
Co177 O185 2.074 . S
Co177 O188 2.093 . S
Co177 O201 2.097 . S
Co177 N218 2.151 . S
Co177 N226 2.214 . S
Co178 O179 2.160 . S
Co178 O184 2.058 . S
Co178 O194 2.057 . S
Co178 O209 2.037 . S
Co178 N213 2.145 . S
Co178 N234 2.257 . S
O179 Co177 2.143 . S
O179 Co178 2.160 . S
C180 O181 1.278 . S
C180 O188 1.224 . S
O181 C180 1.278 . S
C182 O183 1.245 . S
C182 O194 1.232 . S
O183 C182 1.245 . S
O184 Co178 2.058 . S
O184 C210 1.269 . S
O185 Co177 2.074 . S
O185 C210 1.257 . S
H186 C211 0.930 . S
H187 C217 0.930 . S
O188 Co177 2.093 . S
O188 C180 1.224 . S
H189 C221 0.929 . S
H190 C223 0.930 . S
H191 C224 0.930 . S
H192 C222 0.929 . S
H193 C225 0.928 . S
O194 Co178 2.057 . S
O194 C182 1.232 . S
H195 C214 0.929 . S
H196 C215 0.929 . S
H197 C227 0.931 . S
H198 C219 0.929 . S
H199 C228 0.930 . S
H200 C220 0.931 . S
O201 Co177 2.097 . S
O201 C229 1.214 . S
H202 C230 0.929 . S
H203 C231 0.929 . S
H204 C232 0.930 . S
H205 C233 0.929 . S
H206 C235 0.930 . S
H207 C212 0.930 . S
H208 C216 0.930 . S
O209 Co178 2.037 . S
O209 C229 1.234 . S
C210 O184 1.269 . S
C210 O185 1.257 . S
C211 H186 0.930 . S
C211 C214 1.388 . S
C211 C216 1.418 . S
C212 H207 0.930 . S
C212 C215 1.404 . S
C212 C216 1.353 . S
N213 Co178 2.145 . S
N213 C214 1.397 . S
N213 C215 1.334 . S
C214 H195 0.929 . S
C214 C211 1.388 . S
C214 N213 1.397 . S
C215 H196 0.929 . S
C215 C212 1.404 . S
C215 N213 1.334 . S
C216 H208 0.930 . S
C216 C211 1.418 . S
C216 C212 1.353 . S
C217 H187 0.930 . S
C217 N218 1.330 . S
C217 C219 1.446 . S
N218 Co177 2.151 . S
N218 C217 1.330 . S
N218 C222 1.418 . S
C219 H198 0.929 . S
C219 C217 1.446 . S
C219 C220 1.332 . S
C220 H200 0.931 . S
C220 C219 1.332 . S
C220 C221 1.267 . S
C221 H189 0.929 . S
C221 C220 1.267 . S
C221 C222 1.251 . S
C222 H192 0.929 . S
C222 N218 1.418 . S
C222 C221 1.251 . S
C223 H190 0.930 . S
C223 C225 1.406 . S
C223 C228 1.261 . S
C224 H191 0.930 . S
C224 N226 1.325 . S
C224 C227 1.357 . S
C225 H193 0.928 . S
C225 C223 1.406 . S
C225 N226 1.261 . S
N226 Co177 2.214 . S
N226 C224 1.325 . S
N226 C225 1.261 . S
C227 H197 0.931 . S
C227 C224 1.357 . S
C227 C228 1.312 . S
C228 H199 0.930 . S
C228 C223 1.261 . S
C228 C227 1.312 . S
C229 O201 1.214 . S
C229 O209 1.234 . S
C230 H202 0.929 . S
C230 C233 1.391 . S
C230 C235 1.391 . S
C231 H203 0.929 . S
C231 C232 1.390 . S
C231 N234 1.391 . S
C232 H204 0.930 . S
C232 C231 1.390 . S
C232 C233 1.392 . S
C233 H205 0.929 . S
C233 C230 1.391 . S
C233 C232 1.392 . S
N234 Co178 2.257 . S
N234 C231 1.391 . S
N234 C235 1.388 . S
C235 H206 0.930 . S
C235 C230 1.391 . S
C235 N234 1.388 . S
Co236 O238 2.143 . S
Co236 O244 2.074 . S
Co236 O247 2.093 . S
Co236 O260 2.097 . S
Co236 N277 2.151 . S
Co236 N285 2.214 . S
Co237 O238 2.160 . S
Co237 O243 2.058 . S
Co237 O253 2.057 . S
Co237 O268 2.037 . S
Co237 N272 2.145 . S
Co237 N293 2.257 . S
O238 Co236 2.143 . S
O238 Co237 2.160 . S
C239 O240 1.278 . S
C239 O247 1.224 . S
O240 C239 1.278 . S
C241 O242 1.245 . S
C241 O253 1.232 . S
O242 C241 1.245 . S
O243 Co237 2.058 . S
O243 C269 1.269 . S
O244 Co236 2.074 . S
O244 C269 1.257 . S
H245 C270 0.930 . S
H246 C276 0.930 . S
O247 Co236 2.093 . S
O247 C239 1.224 . S
H248 C280 0.929 . S
H249 C282 0.930 . S
H250 C283 0.930 . S
H251 C281 0.929 . S
H252 C284 0.928 . S
O253 Co237 2.057 . S
O253 C241 1.232 . S
H254 C273 0.929 . S
H255 C274 0.929 . S
H256 C286 0.931 . S
H257 C278 0.929 . S
H258 C287 0.930 . S
H259 C279 0.931 . S
O260 Co236 2.097 . S
O260 C288 1.214 . S
H261 C289 0.929 . S
H262 C290 0.929 . S
H263 C291 0.930 . S
H264 C292 0.929 . S
H265 C294 0.930 . S
H266 C271 0.930 . S
H267 C275 0.930 . S
O268 Co237 2.037 . S
O268 C288 1.234 . S
C269 O243 1.269 . S
C269 O244 1.257 . S
C270 H245 0.930 . S
C270 C273 1.388 . S
C270 C275 1.418 . S
C271 H266 0.930 . S
C271 C274 1.404 . S
C271 C275 1.353 . S
N272 Co237 2.145 . S
N272 C273 1.397 . S
N272 C274 1.334 . S
C273 H254 0.929 . S
C273 C270 1.388 . S
C273 N272 1.397 . S
C274 H255 0.929 . S
C274 C271 1.404 . S
C274 N272 1.334 . S
C275 H267 0.930 . S
C275 C270 1.418 . S
C275 C271 1.353 . S
C276 H246 0.930 . S
C276 N277 1.330 . S
C276 C278 1.446 . S
N277 Co236 2.151 . S
N277 C276 1.330 . S
N277 C281 1.418 . S
C278 H257 0.929 . S
C278 C276 1.446 . S
C278 C279 1.332 . S
C279 H259 0.931 . S
C279 C278 1.332 . S
C279 C280 1.267 . S
C280 H248 0.929 . S
C280 C279 1.267 . S
C280 C281 1.251 . S
C281 H251 0.929 . S
C281 N277 1.418 . S
C281 C280 1.251 . S
C282 H249 0.930 . S
C282 C284 1.406 . S
C282 C287 1.261 . S
C283 H250 0.930 . S
C283 N285 1.325 . S
C283 C286 1.357 . S
C284 H252 0.928 . S
C284 C282 1.406 . S
C284 N285 1.261 . S
N285 Co236 2.214 . S
N285 C283 1.325 . S
N285 C284 1.261 . S
C286 H256 0.931 . S
C286 C283 1.357 . S
C286 C287 1.312 . S
C287 H258 0.930 . S
C287 C282 1.261 . S
C287 C286 1.312 . S
C288 O260 1.214 . S
C288 O268 1.234 . S
C289 H261 0.929 . S
C289 C292 1.391 . S
C289 C294 1.391 . S
C290 H262 0.929 . S
C290 C291 1.390 . S
C290 N293 1.391 . S
C291 H263 0.930 . S
C291 C290 1.390 . S
C291 C292 1.392 . S
C292 H264 0.929 . S
C292 C289 1.391 . S
C292 C291 1.392 . S
N293 Co237 2.257 . S
N293 C290 1.391 . S
N293 C294 1.388 . S
C294 H265 0.930 . S
C294 C289 1.391 . S
C294 N293 1.388 . S
Co295 O297 2.143 . S
Co295 O303 2.074 . S
Co295 O306 2.093 . S
Co295 O319 2.097 . S
Co295 N336 2.151 . S
Co295 N344 2.214 . S
Co296 O297 2.160 . S
Co296 O302 2.058 . S
Co296 O312 2.057 . S
Co296 O327 2.037 . S
Co296 N331 2.145 . S
Co296 N352 2.257 . S
O297 Co295 2.143 . S
O297 Co296 2.160 . S
C298 O299 1.278 . S
C298 O306 1.224 . S
O299 C298 1.278 . S
C300 O301 1.245 . S
C300 O312 1.232 . S
O301 C300 1.245 . S
O302 Co296 2.058 . S
O302 C328 1.269 . S
O303 Co295 2.074 . S
O303 C328 1.257 . S
H304 C329 0.930 . S
H305 C335 0.930 . S
O306 Co295 2.093 . S
O306 C298 1.224 . S
H307 C339 0.929 . S
H308 C341 0.930 . S
H309 C342 0.930 . S
H310 C340 0.929 . S
H311 C343 0.928 . S
O312 Co296 2.057 . S
O312 C300 1.232 . S
H313 C332 0.929 . S
H314 C333 0.929 . S
H315 C345 0.931 . S
H316 C337 0.929 . S
H317 C346 0.930 . S
H318 C338 0.931 . S
O319 Co295 2.097 . S
O319 C347 1.214 . S
H320 C348 0.929 . S
H321 C349 0.929 . S
H322 C350 0.930 . S
H323 C351 0.929 . S
H324 C353 0.930 . S
H325 C330 0.930 . S
H326 C334 0.930 . S
O327 Co296 2.037 . S
O327 C347 1.234 . S
C328 O302 1.269 . S
C328 O303 1.257 . S
C329 H304 0.930 . S
C329 C332 1.388 . S
C329 C334 1.418 . S
C330 H325 0.930 . S
C330 C333 1.404 . S
C330 C334 1.353 . S
N331 Co296 2.145 . S
N331 C332 1.397 . S
N331 C333 1.334 . S
C332 H313 0.929 . S
C332 C329 1.388 . S
C332 N331 1.397 . S
C333 H314 0.929 . S
C333 C330 1.404 . S
C333 N331 1.334 . S
C334 H326 0.930 . S
C334 C329 1.418 . S
C334 C330 1.353 . S
C335 H305 0.930 . S
C335 N336 1.330 . S
C335 C337 1.446 . S
N336 Co295 2.151 . S
N336 C335 1.330 . S
N336 C340 1.418 . S
C337 H316 0.929 . S
C337 C335 1.446 . S
C337 C338 1.332 . S
C338 H318 0.931 . S
C338 C337 1.332 . S
C338 C339 1.267 . S
C339 H307 0.929 . S
C339 C338 1.267 . S
C339 C340 1.251 . S
C340 H310 0.929 . S
C340 N336 1.418 . S
C340 C339 1.251 . S
C341 H308 0.930 . S
C341 C343 1.406 . S
C341 C346 1.261 . S
C342 H309 0.930 . S
C342 N344 1.325 . S
C342 C345 1.357 . S
C343 H311 0.928 . S
C343 C341 1.406 . S
C343 N344 1.261 . S
N344 Co295 2.214 . S
N344 C342 1.325 . S
N344 C343 1.261 . S
C345 H315 0.931 . S
C345 C342 1.357 . S
C345 C346 1.312 . S
C346 H317 0.930 . S
C346 C341 1.261 . S
C346 C345 1.312 . S
C347 O319 1.214 . S
C347 O327 1.234 . S
C348 H320 0.929 . S
C348 C351 1.391 . S
C348 C353 1.391 . S
C349 H321 0.929 . S
C349 C350 1.390 . S
C349 N352 1.391 . S
C350 H322 0.930 . S
C350 C349 1.390 . S
C350 C351 1.392 . S
C351 H323 0.929 . S
C351 C348 1.391 . S
C351 C350 1.392 . S
N352 Co296 2.257 . S
N352 C349 1.391 . S
N352 C353 1.388 . S
C353 H324 0.930 . S
C353 C348 1.391 . S
C353 N352 1.388 . S
Co354 O356 2.143 . S
Co354 O362 2.074 . S
Co354 O365 2.093 . S
Co354 O378 2.097 . S
Co354 N395 2.151 . S
Co354 N403 2.214 . S
Co355 O356 2.160 . S
Co355 O361 2.058 . S
Co355 O371 2.057 . S
Co355 O386 2.037 . S
Co355 N390 2.145 . S
Co355 N411 2.257 . S
O356 Co354 2.143 . S
O356 Co355 2.160 . S
C357 O358 1.278 . S
C357 O365 1.224 . S
O358 C357 1.278 . S
C359 O360 1.245 . S
C359 O371 1.232 . S
O360 C359 1.245 . S
O361 Co355 2.058 . S
O361 C387 1.269 . S
O362 Co354 2.074 . S
O362 C387 1.257 . S
H363 C388 0.930 . S
H364 C394 0.930 . S
O365 Co354 2.093 . S
O365 C357 1.224 . S
H366 C398 0.929 . S
H367 C400 0.930 . S
H368 C401 0.930 . S
H369 C399 0.929 . S
H370 C402 0.928 . S
O371 Co355 2.057 . S
O371 C359 1.232 . S
H372 C391 0.929 . S
H373 C392 0.929 . S
H374 C404 0.931 . S
H375 C396 0.929 . S
H376 C405 0.930 . S
H377 C397 0.931 . S
O378 Co354 2.097 . S
O378 C406 1.214 . S
H379 C407 0.929 . S
H380 C408 0.929 . S
H381 C409 0.930 . S
H382 C410 0.929 . S
H383 C412 0.930 . S
H384 C389 0.930 . S
H385 C393 0.930 . S
O386 Co355 2.037 . S
O386 C406 1.234 . S
C387 O361 1.269 . S
C387 O362 1.257 . S
C388 H363 0.930 . S
C388 C391 1.388 . S
C388 C393 1.418 . S
C389 H384 0.930 . S
C389 C392 1.404 . S
C389 C393 1.353 . S
N390 Co355 2.145 . S
N390 C391 1.397 . S
N390 C392 1.334 . S
C391 H372 0.929 . S
C391 C388 1.388 . S
C391 N390 1.397 . S
C392 H373 0.929 . S
C392 C389 1.404 . S
C392 N390 1.334 . S
C393 H385 0.930 . S
C393 C388 1.418 . S
C393 C389 1.353 . S
C394 H364 0.930 . S
C394 N395 1.330 . S
C394 C396 1.446 . S
N395 Co354 2.151 . S
N395 C394 1.330 . S
N395 C399 1.418 . S
C396 H375 0.929 . S
C396 C394 1.446 . S
C396 C397 1.332 . S
C397 H377 0.931 . S
C397 C396 1.332 . S
C397 C398 1.267 . S
C398 H366 0.929 . S
C398 C397 1.267 . S
C398 C399 1.251 . S
C399 H369 0.929 . S
C399 N395 1.418 . S
C399 C398 1.251 . S
C400 H367 0.930 . S
C400 C402 1.406 . S
C400 C405 1.261 . S
C401 H368 0.930 . S
C401 N403 1.325 . S
C401 C404 1.357 . S
C402 H370 0.928 . S
C402 C400 1.406 . S
C402 N403 1.261 . S
N403 Co354 2.214 . S
N403 C401 1.325 . S
N403 C402 1.261 . S
C404 H374 0.931 . S
C404 C401 1.357 . S
C404 C405 1.312 . S
C405 H376 0.930 . S
C405 C400 1.261 . S
C405 C404 1.312 . S
C406 O378 1.214 . S
C406 O386 1.234 . S
C407 H379 0.929 . S
C407 C410 1.391 . S
C407 C412 1.391 . S
C408 H380 0.929 . S
C408 C409 1.390 . S
C408 N411 1.391 . S
C409 H381 0.930 . S
C409 C408 1.390 . S
C409 C410 1.392 . S
C410 H382 0.929 . S
C410 C407 1.391 . S
C410 C409 1.392 . S
N411 Co355 2.257 . S
N411 C408 1.391 . S
N411 C412 1.388 . S
C412 H383 0.930 . S
C412 C407 1.391 . S
C412 N411 1.388 . S
Co413 O415 2.143 . S
Co413 O421 2.074 . S
Co413 O424 2.093 . S
Co413 O437 2.097 . S
Co413 N454 2.151 . S
Co413 N462 2.214 . S
Co414 O415 2.160 . S
Co414 O420 2.058 . S
Co414 O430 2.057 . S
Co414 O445 2.037 . S
Co414 N449 2.145 . S
Co414 N470 2.257 . S
O415 Co413 2.143 . S
O415 Co414 2.160 . S
C416 O417 1.278 . S
C416 O424 1.224 . S
O417 C416 1.278 . S
C418 O419 1.245 . S
C418 O430 1.232 . S
O419 C418 1.245 . S
O420 Co414 2.058 . S
O420 C446 1.269 . S
O421 Co413 2.074 . S
O421 C446 1.257 . S
H422 C447 0.930 . S
H423 C453 0.930 . S
O424 Co413 2.093 . S
O424 C416 1.224 . S
H425 C457 0.929 . S
H426 C459 0.930 . S
H427 C460 0.930 . S
H428 C458 0.929 . S
H429 C461 0.928 . S
O430 Co414 2.057 . S
O430 C418 1.232 . S
H431 C450 0.929 . S
H432 C451 0.929 . S
H433 C463 0.931 . S
H434 C455 0.929 . S
H435 C464 0.930 . S
H436 C456 0.931 . S
O437 Co413 2.097 . S
O437 C465 1.214 . S
H438 C466 0.929 . S
H439 C467 0.929 . S
H440 C468 0.930 . S
H441 C469 0.929 . S
H442 C471 0.930 . S
H443 C448 0.930 . S
H444 C452 0.930 . S
O445 Co414 2.037 . S
O445 C465 1.234 . S
C446 O420 1.269 . S
C446 O421 1.257 . S
C447 H422 0.930 . S
C447 C450 1.388 . S
C447 C452 1.418 . S
C448 H443 0.930 . S
C448 C451 1.404 . S
C448 C452 1.353 . S
N449 Co414 2.145 . S
N449 C450 1.397 . S
N449 C451 1.334 . S
C450 H431 0.929 . S
C450 C447 1.388 . S
C450 N449 1.397 . S
C451 H432 0.929 . S
C451 C448 1.404 . S
C451 N449 1.334 . S
C452 H444 0.930 . S
C452 C447 1.418 . S
C452 C448 1.353 . S
C453 H423 0.930 . S
C453 N454 1.330 . S
C453 C455 1.446 . S
N454 Co413 2.151 . S
N454 C453 1.330 . S
N454 C458 1.418 . S
C455 H434 0.929 . S
C455 C453 1.446 . S
C455 C456 1.332 . S
C456 H436 0.931 . S
C456 C455 1.332 . S
C456 C457 1.267 . S
C457 H425 0.929 . S
C457 C456 1.267 . S
C457 C458 1.251 . S
C458 H428 0.929 . S
C458 N454 1.418 . S
C458 C457 1.251 . S
C459 H426 0.930 . S
C459 C461 1.406 . S
C459 C464 1.261 . S
C460 H427 0.930 . S
C460 N462 1.325 . S
C460 C463 1.357 . S
C461 H429 0.928 . S
C461 C459 1.406 . S
C461 N462 1.261 . S
N462 Co413 2.214 . S
N462 C460 1.325 . S
N462 C461 1.261 . S
C463 H433 0.931 . S
C463 C460 1.357 . S
C463 C464 1.312 . S
C464 H435 0.930 . S
C464 C459 1.261 . S
C464 C463 1.312 . S
C465 O437 1.214 . S
C465 O445 1.234 . S
C466 H438 0.929 . S
C466 C469 1.391 . S
C466 C471 1.391 . S
C467 H439 0.929 . S
C467 C468 1.390 . S
C467 N470 1.391 . S
C468 H440 0.930 . S
C468 C467 1.390 . S
C468 C469 1.392 . S
C469 H441 0.929 . S
C469 C466 1.391 . S
C469 C468 1.392 . S
N470 Co414 2.257 . S
N470 C467 1.391 . S
N470 C471 1.388 . S
C471 H442 0.930 . S
C471 C466 1.391 . S
C471 N470 1.388 . S
Co472 O474 2.143 . S
Co472 O480 2.074 . S
Co472 O483 2.093 . S
Co472 O496 2.097 . S
Co472 N513 2.151 . S
Co472 N521 2.214 . S
Co473 O474 2.160 . S
Co473 O479 2.058 . S
Co473 O489 2.057 . S
Co473 O504 2.037 . S
Co473 N508 2.145 . S
Co473 N529 2.257 . S
O474 Co472 2.143 . S
O474 Co473 2.160 . S
C475 O476 1.278 . S
C475 O483 1.224 . S
O476 C475 1.278 . S
C477 O478 1.245 . S
C477 O489 1.232 . S
O478 C477 1.245 . S
O479 Co473 2.058 . S
O479 C505 1.269 . S
O480 Co472 2.074 . S
O480 C505 1.257 . S
H481 C506 0.930 . S
H482 C512 0.930 . S
O483 Co472 2.093 . S
O483 C475 1.224 . S
H484 C516 0.929 . S
H485 C518 0.930 . S
H486 C519 0.930 . S
H487 C517 0.929 . S
H488 C520 0.928 . S
O489 Co473 2.057 . S
O489 C477 1.232 . S
H490 C509 0.929 . S
H491 C510 0.929 . S
H492 C522 0.931 . S
H493 C514 0.929 . S
H494 C523 0.930 . S
H495 C515 0.931 . S
O496 Co472 2.097 . S
O496 C524 1.214 . S
H497 C525 0.929 . S
H498 C526 0.929 . S
H499 C527 0.930 . S
H500 C528 0.929 . S
H501 C530 0.930 . S
H502 C507 0.930 . S
H503 C511 0.930 . S
O504 Co473 2.037 . S
O504 C524 1.234 . S
C505 O479 1.269 . S
C505 O480 1.257 . S
C506 H481 0.930 . S
C506 C509 1.388 . S
C506 C511 1.418 . S
C507 H502 0.930 . S
C507 C510 1.404 . S
C507 C511 1.353 . S
N508 Co473 2.145 . S
N508 C509 1.397 . S
N508 C510 1.334 . S
C509 H490 0.929 . S
C509 C506 1.388 . S
C509 N508 1.397 . S
C510 H491 0.929 . S
C510 C507 1.404 . S
C510 N508 1.334 . S
C511 H503 0.930 . S
C511 C506 1.418 . S
C511 C507 1.353 . S
C512 H482 0.930 . S
C512 N513 1.330 . S
C512 C514 1.446 . S
N513 Co472 2.151 . S
N513 C512 1.330 . S
N513 C517 1.418 . S
C514 H493 0.929 . S
C514 C512 1.446 . S
C514 C515 1.332 . S
C515 H495 0.931 . S
C515 C514 1.332 . S
C515 C516 1.267 . S
C516 H484 0.929 . S
C516 C515 1.267 . S
C516 C517 1.251 . S
C517 H487 0.929 . S
C517 N513 1.418 . S
C517 C516 1.251 . S
C518 H485 0.930 . S
C518 C520 1.406 . S
C518 C523 1.261 . S
C519 H486 0.930 . S
C519 N521 1.325 . S
C519 C522 1.357 . S
C520 H488 0.928 . S
C520 C518 1.406 . S
C520 N521 1.261 . S
N521 Co472 2.214 . S
N521 C519 1.325 . S
N521 C520 1.261 . S
C522 H492 0.931 . S
C522 C519 1.357 . S
C522 C523 1.312 . S
C523 H494 0.930 . S
C523 C518 1.261 . S
C523 C522 1.312 . S
C524 O496 1.214 . S
C524 O504 1.234 . S
C525 H497 0.929 . S
C525 C528 1.391 . S
C525 C530 1.391 . S
C526 H498 0.929 . S
C526 C527 1.390 . S
C526 N529 1.391 . S
C527 H499 0.930 . S
C527 C526 1.390 . S
C527 C528 1.392 . S
C528 H500 0.929 . S
C528 C525 1.391 . S
C528 C527 1.392 . S
N529 Co473 2.257 . S
N529 C526 1.391 . S
N529 C530 1.388 . S
C530 H501 0.930 . S
C530 C525 1.391 . S
C530 N529 1.388 . S
H531 C549 0.951 . S
H532 C551 0.951 . S
H533 C553 0.950 . S
H534 C554 0.950 . S
H535 C556 0.950 . S
H536 C559 0.950 . S
H537 C560 0.950 . S
H538 C562 0.950 . S
H539 C563 0.950 . S
H540 C564 0.951 . S
H541 C566 0.951 . S
H542 C568 0.950 . S
H543 C569 0.950 . S
H544 C571 0.950 . S
H545 C574 0.950 . S
H546 C575 0.950 . S
H547 C577 0.950 . S
H548 C578 0.950 . S
C549 H531 0.951 . S
C549 C550 1.366 . S
C549 C551 1.388 . S
C550 C549 1.366 . S
C550 C554 1.385 . S
C551 H532 0.951 . S
C551 C549 1.388 . S
C551 C552 1.366 . S
C552 C551 1.366 . S
C552 C553 1.414 . S
C552 C555 1.499 . S
C553 H533 0.950 . S
C553 C552 1.414 . S
C553 C554 1.374 . S
C554 H534 0.950 . S
C554 C550 1.385 . S
C554 C553 1.374 . S
C555 C552 1.499 . S
C555 C556 1.373 1_554 S
C555 C557 1.389 . S
C556 H535 0.950 . S
C556 C555 1.373 1_556 S
C556 C572 1.377 . S
C557 C555 1.389 . S
C557 C558 1.524 . S
C557 C571 1.377 . S
C558 C557 1.524 . S
C558 C559 1.397 . S
C558 C563 1.363 . S
C559 H536 0.950 . S
C559 C558 1.397 . S
C559 C560 1.334 . S
C560 H537 0.950 . S
C560 C559 1.334 . S
C560 C561 1.287 . S
C561 C560 1.287 . S
C561 C562 1.524 . S
C561 H580 0.913 . S
C562 H538 0.950 . S
C562 C561 1.524 . S
C562 C563 1.415 . S
C563 H539 0.950 . S
C563 C558 1.363 . S
C563 C562 1.415 . S
C564 H540 0.951 . S
C564 C565 1.366 . S
C564 C566 1.388 . S
C565 C564 1.366 . S
C565 C569 1.385 . S
C566 H541 0.951 . S
C566 C564 1.388 . S
C566 C567 1.366 . S
C567 C566 1.366 . S
C567 C568 1.414 . S
C567 C570 1.499 . S
C568 H542 0.950 . S
C568 C567 1.414 . S
C568 C569 1.374 . S
C569 H543 0.950 . S
C569 C565 1.385 . S
C569 C568 1.374 . S
C570 C567 1.499 . S
C570 C571 1.373 . S
C570 C572 1.389 1_554 S
C571 H544 0.950 . S
C571 C557 1.377 . S
C571 C570 1.373 . S
C572 C556 1.377 . S
C572 C570 1.389 1_556 S
C572 C573 1.524 . S
C573 C572 1.524 . S
C573 C574 1.397 . S
C573 C578 1.363 . S
C574 H545 0.950 . S
C574 C573 1.397 . S
C574 C575 1.334 . S
C575 H546 0.950 . S
C575 C574 1.334 . S
C575 C576 1.287 . S
C576 C575 1.287 . S
C576 C577 1.524 . S
C576 H579 0.999 . S
C577 H547 0.950 . S
C577 C576 1.524 . S
C577 C578 1.415 . S
C578 H548 0.950 . S
C578 C573 1.363 . S
C578 C577 1.415 . S
H579 C576 0.999 . S
H580 C561 0.913 . S
H581 C599 0.951 . S
H582 C601 0.951 . S
H583 C603 0.960 . S
H584 C604 0.950 . S
H585 C606 0.950 1_565 S
H586 C609 0.950 . S
H587 C610 0.950 . S
H588 C612 0.950 . S
H589 C613 0.950 1_554 S
H590 C614 0.961 . S
H591 C616 0.948 1_556 S
H592 C618 0.950 . S
H593 C619 0.950 . S
H594 C621 0.950 1_556 S
H595 C624 0.950 . S
H596 C625 0.950 . S
H597 C627 0.950 . S
H598 C628 0.950 . S
C599 H581 0.951 . S
C599 C600 1.366 . S
C599 C601 1.388 . S
C600 C599 1.366 . S
C600 C604 1.385 1_554 S
C601 H582 0.951 . S
C601 C599 1.388 . S
C601 C602 1.366 . S
C602 C601 1.366 . S
C602 C603 1.405 1_554 S
C602 C605 1.499 . S
C603 H583 0.960 . S
C603 C602 1.405 1_556 S
C603 C604 1.375 . S
C604 H584 0.950 . S
C604 C600 1.385 1_556 S
C604 C603 1.375 . S
C605 C602 1.499 . S
C605 C606 1.373 1_565 S
C605 C607 1.401 1_565 S
C606 H585 0.950 1_545 S
C606 C605 1.373 1_545 S
C606 C622 1.377 . S
C607 C605 1.401 1_545 S
C607 C608 1.511 1_544 S
C607 C621 1.381 . S
C608 C607 1.511 1_566 S
C608 C609 1.426 . S
C608 C613 1.331 1_565 S
C609 H586 0.950 . S
C609 C608 1.426 . S
C609 C610 1.334 . S
C610 H587 0.950 . S
C610 C609 1.334 . S
C610 C611 1.287 . S
C611 C610 1.287 . S
C611 C612 1.524 . S
C611 H630 0.913 . S
C612 H588 0.950 . S
C612 C611 1.524 . S
C612 C613 1.415 1_565 S
C613 H589 0.950 1_556 S
C613 C608 1.331 1_545 S
C613 C612 1.415 1_545 S
C614 H590 0.961 . S
C614 C615 1.366 . S
C614 C616 1.388 . S
C615 C614 1.366 . S
C615 C619 1.385 . S
C616 H591 0.948 1_554 S
C616 C614 1.388 . S
C616 C617 1.366 . S
C617 C616 1.366 . S
C617 C618 1.414 . S
C617 C620 1.499 . S
C618 H592 0.950 . S
C618 C617 1.414 . S
C618 C619 1.374 . S
C619 H593 0.950 . S
C619 C615 1.385 . S
C619 C618 1.374 . S
C620 C617 1.499 . S
C620 C621 1.373 . S
C620 C622 1.389 . S
C621 H594 0.950 1_554 S
C621 C607 1.381 . S
C621 C620 1.373 . S
C622 C606 1.377 . S
C622 C620 1.389 . S
C622 C623 1.524 . S
C623 C622 1.524 . S
C623 C624 1.397 . S
C623 C628 1.363 . S
C624 H595 0.950 . S
C624 C623 1.397 . S
C624 C625 1.334 . S
C625 H596 0.950 . S
C625 C624 1.334 . S
C625 C626 1.287 1_655 S
C626 C625 1.287 1_455 S
C626 C627 1.524 . S
C626 H629 0.999 . S
C627 H597 0.950 . S
C627 C626 1.524 . S
C627 C628 1.415 1_455 S
C628 H598 0.950 . S
C628 C623 1.363 . S
C628 C627 1.415 1_655 S
H629 C626 0.999 . S
H630 C611 0.913 . S
H631 C649 0.951 . S
H632 C651 0.951 . S
H633 C653 0.950 . S
H634 C654 0.950 . S
H635 C656 0.950 1_655 S
H636 C659 0.950 . S
H637 C660 0.950 . S
H638 C662 0.950 . S
H639 C663 0.950 1_455 S
H640 C664 0.951 . S
H641 C666 0.951 . S
H642 C668 0.950 . S
H643 C669 0.950 1_545 S
H644 C671 0.950 . S
H645 C674 0.950 . S
H646 C675 0.950 . S
H647 C677 0.950 . S
H648 C678 0.950 . S
C649 H631 0.951 . S
C649 C650 1.366 . S
C649 C651 1.388 . S
C650 C649 1.366 . S
C650 C654 1.385 . S
C651 H632 0.951 . S
C651 C649 1.388 . S
C651 C652 1.366 . S
C652 C651 1.366 . S
C652 C653 1.414 . S
C652 C655 1.499 . S
C653 H633 0.950 . S
C653 C652 1.414 . S
C653 C654 1.374 . S
C654 H634 0.950 . S
C654 C650 1.385 . S
C654 C653 1.374 . S
C655 C652 1.499 . S
C655 C656 1.373 1_655 S
C655 C657 1.389 1_654 S
C656 H635 0.950 1_455 S
C656 C655 1.373 1_455 S
C656 C672 1.377 . S
C657 C655 1.389 1_456 S
C657 C658 1.524 1_455 S
C657 C671 1.377 . S
C658 C657 1.524 1_655 S
C658 C659 1.397 . S
C658 C663 1.363 . S
C659 H636 0.950 . S
C659 C658 1.397 . S
C659 C660 1.334 . S
C660 H637 0.950 . S
C660 C659 1.334 . S
C660 C661 1.287 . S
C661 C660 1.287 . S
C661 C662 1.524 . S
C661 H680 0.913 . S
C662 H638 0.950 . S
C662 C661 1.524 . S
C662 C663 1.415 . S
C663 H639 0.950 1_655 S
C663 C658 1.363 . S
C663 C662 1.415 . S
C664 H640 0.951 . S
C664 C665 1.366 . S
C664 C666 1.388 . S
C665 C664 1.366 . S
C665 C669 1.385 . S
C666 H641 0.951 . S
C666 C664 1.388 . S
C666 C667 1.366 . S
C667 C666 1.366 . S
C667 C668 1.414 . S
C667 C670 1.499 . S
C668 H642 0.950 . S
C668 C667 1.414 . S
C668 C669 1.374 . S
C669 H643 0.950 1_565 S
C669 C665 1.385 . S
C669 C668 1.374 . S
C670 C667 1.499 . S
C670 C671 1.373 1_554 S
C670 C672 1.389 . S
C671 H644 0.950 . S
C671 C657 1.377 . S
C671 C670 1.373 1_556 S
C672 C656 1.377 . S
C672 C670 1.389 . S
C672 C673 1.524 . S
C673 C672 1.524 . S
C673 C674 1.397 . S
C673 C678 1.363 . S
C674 H645 0.950 . S
C674 C673 1.397 . S
C674 C675 1.334 . S
C675 H646 0.950 . S
C675 C674 1.334 . S
C675 C676 1.287 . S
C676 C675 1.287 . S
C676 C677 1.524 . S
C676 H679 0.999 . S
C677 H647 0.950 . S
C677 C676 1.524 . S
C677 C678 1.415 . S
C678 H648 0.950 . S
C678 C673 1.363 . S
C678 C677 1.415 . S
H679 C676 0.999 . S
H680 C661 0.913 . S
H681 C699 0.951 . S
H682 C701 0.951 . S
H683 C703 0.950 . S
H684 C704 0.950 . S
H685 C706 0.950 . S
H686 C709 0.950 . S
H687 C710 0.950 . S
H688 C712 0.950 . S
H689 C713 0.950 . S
H690 C714 0.951 . S
H691 C716 0.951 . S
H692 C718 0.950 . S
H693 C719 0.950 . S
H694 C721 0.950 . S
H695 C724 0.950 . S
H696 C725 0.950 . S
H697 C727 0.950 . S
H698 C728 0.950 . S
C699 H681 0.951 . S
C699 C700 1.366 . S
C699 C701 1.388 . S
C700 C699 1.366 . S
C700 C704 1.385 . S
C701 H682 0.951 . S
C701 C699 1.388 . S
C701 C702 1.366 . S
C702 C701 1.366 . S
C702 C703 1.414 . S
C702 C705 1.499 . S
C703 H683 0.950 . S
C703 C702 1.414 . S
C703 C704 1.374 . S
C704 H684 0.950 . S
C704 C700 1.385 . S
C704 C703 1.374 . S
C705 C702 1.499 . S
C705 C706 1.373 . S
C705 C707 1.389 . S
C706 H685 0.950 . S
C706 C705 1.373 . S
C706 C722 1.377 . S
C707 C705 1.389 . S
C707 C708 1.524 . S
C707 C721 1.377 . S
C708 C707 1.524 . S
C708 C709 1.397 . S
C708 C713 1.363 . S
C709 H686 0.950 . S
C709 C708 1.397 . S
C709 C710 1.334 . S
C710 H687 0.950 . S
C710 C709 1.334 . S
C710 C711 1.287 . S
C711 C710 1.287 . S
C711 C712 1.524 . S
C711 H730 0.913 . S
C712 H688 0.950 . S
C712 C711 1.524 . S
C712 C713 1.415 . S
C713 H689 0.950 . S
C713 C708 1.363 . S
C713 C712 1.415 . S
C714 H690 0.951 . S
C714 C715 1.366 . S
C714 C716 1.388 . S
C715 C714 1.366 . S
C715 C719 1.385 . S
C716 H691 0.951 . S
C716 C714 1.388 . S
C716 C717 1.366 . S
C717 C716 1.366 . S
C717 C718 1.414 . S
C717 C720 1.499 . S
C718 H692 0.950 . S
C718 C717 1.414 . S
C718 C719 1.374 . S
C719 H693 0.950 . S
C719 C715 1.385 . S
C719 C718 1.374 . S
C720 C717 1.499 . S
C720 C721 1.373 . S
C720 C722 1.389 . S
C721 H694 0.950 . S
C721 C707 1.377 . S
C721 C720 1.373 . S
C722 C706 1.377 . S
C722 C720 1.389 . S
C722 C723 1.524 . S
C723 C722 1.524 . S
C723 C724 1.397 . S
C723 C728 1.363 . S
C724 H695 0.950 . S
C724 C723 1.397 . S
C724 C725 1.334 . S
C725 H696 0.950 . S
C725 C724 1.334 . S
C725 C726 1.287 . S
C726 C725 1.287 . S
C726 C727 1.524 . S
C726 H729 0.999 . S
C727 H697 0.950 . S
C727 C726 1.524 . S
C727 C728 1.415 . S
C728 H698 0.950 . S
C728 C723 1.363 . S
C728 C727 1.415 . S
H729 C726 0.999 . S
H730 C711 0.913 . S
H731 C749 0.951 . S
H732 C751 0.951 . S
H733 C753 0.950 . S
H734 C754 0.950 . S
H735 C756 0.950 . S
H736 C759 0.950 . S
H737 C760 0.950 . S
H738 C762 0.950 . S
H739 C763 0.950 . S
H740 C764 0.951 . S
H741 C766 0.951 . S
H742 C768 0.950 . S
H743 C769 0.950 . S
H744 C771 0.950 . S
H745 C774 0.950 . S
H746 C775 0.950 . S
H747 C777 0.950 . S
H748 C778 0.950 . S
C749 H731 0.951 . S
C749 C750 1.366 . S
C749 C751 1.388 . S
C750 C749 1.366 . S
C750 C754 1.385 . S
C751 H732 0.951 . S
C751 C749 1.388 . S
C751 C752 1.366 . S
C752 C751 1.366 . S
C752 C753 1.414 . S
C752 C755 1.499 . S
C753 H733 0.950 . S
C753 C752 1.414 . S
C753 C754 1.374 . S
C754 H734 0.950 . S
C754 C750 1.385 . S
C754 C753 1.374 . S
C755 C752 1.499 . S
C755 C756 1.373 . S
C755 C757 1.389 . S
C756 H735 0.950 . S
C756 C755 1.373 . S
C756 C772 1.377 . S
C757 C755 1.389 . S
C757 C758 1.524 . S
C757 C771 1.377 . S
C758 C757 1.524 . S
C758 C759 1.397 . S
C758 C763 1.363 . S
C759 H736 0.950 . S
C759 C758 1.397 . S
C759 C760 1.334 . S
C760 H737 0.950 . S
C760 C759 1.334 . S
C760 C761 1.287 . S
C761 C760 1.287 . S
C761 C762 1.524 . S
C761 H780 0.913 . S
C762 H738 0.950 . S
C762 C761 1.524 . S
C762 C763 1.415 . S
C763 H739 0.950 . S
C763 C758 1.363 . S
C763 C762 1.415 . S
C764 H740 0.951 . S
C764 C765 1.366 . S
C764 C766 1.388 . S
C765 C764 1.366 . S
C765 C769 1.385 . S
C766 H741 0.951 . S
C766 C764 1.388 . S
C766 C767 1.366 . S
C767 C766 1.366 . S
C767 C768 1.414 . S
C767 C770 1.499 . S
C768 H742 0.950 . S
C768 C767 1.414 . S
C768 C769 1.374 . S
C769 H743 0.950 . S
C769 C765 1.385 . S
C769 C768 1.374 . S
C770 C767 1.499 . S
C770 C771 1.373 . S
C770 C772 1.389 . S
C771 H744 0.950 . S
C771 C757 1.377 . S
C771 C770 1.373 . S
C772 C756 1.377 . S
C772 C770 1.389 . S
C772 C773 1.524 . S
C773 C772 1.524 . S
C773 C774 1.397 . S
C773 C778 1.363 . S
C774 H745 0.950 . S
C774 C773 1.397 . S
C774 C775 1.334 . S
C775 H746 0.950 . S
C775 C774 1.334 . S
C775 C776 1.287 . S
C776 C775 1.287 . S
C776 C777 1.524 . S
C776 H779 0.999 . S
C777 H747 0.950 . S
C777 C776 1.524 . S
C777 C778 1.415 . S
C778 H748 0.950 . S
C778 C773 1.363 . S
C778 C777 1.415 . S
H779 C776 0.999 . S
H780 C761 0.913 . S
H781 C799 0.951 . S
H782 C801 0.951 . S
H783 C803 0.950 . S
H784 C804 0.950 . S
H785 C806 0.950 . S
H786 C809 0.950 . S
H787 C810 0.950 . S
H788 C812 0.950 . S
H789 C813 0.950 . S
H790 C814 0.951 . S
H791 C816 0.951 . S
H792 C818 0.950 . S
H793 C819 0.950 . S
H794 C821 0.950 . S
H795 C824 0.950 . S
H796 C825 0.950 . S
H797 C827 0.950 . S
H798 C828 0.950 . S
C799 H781 0.951 . S
C799 C800 1.366 . S
C799 C801 1.388 . S
C800 C799 1.366 . S
C800 C804 1.385 . S
C801 H782 0.951 . S
C801 C799 1.388 . S
C801 C802 1.366 . S
C802 C801 1.366 . S
C802 C803 1.414 . S
C802 C805 1.499 . S
C803 H783 0.950 . S
C803 C802 1.414 . S
C803 C804 1.374 . S
C804 H784 0.950 . S
C804 C800 1.385 . S
C804 C803 1.374 . S
C805 C802 1.499 . S
C805 C806 1.373 . S
C805 C807 1.389 . S
C806 H785 0.950 . S
C806 C805 1.373 . S
C806 C822 1.377 . S
C807 C805 1.389 . S
C807 C808 1.524 . S
C807 C821 1.377 . S
C808 C807 1.524 . S
C808 C809 1.397 . S
C808 C813 1.363 . S
C809 H786 0.950 . S
C809 C808 1.397 . S
C809 C810 1.334 . S
C810 H787 0.950 . S
C810 C809 1.334 . S
C810 C811 1.287 . S
C811 C810 1.287 . S
C811 C812 1.524 . S
C811 H830 0.913 . S
C812 H788 0.950 . S
C812 C811 1.524 . S
C812 C813 1.415 . S
C813 H789 0.950 . S
C813 C808 1.363 . S
C813 C812 1.415 . S
C814 H790 0.951 . S
C814 C815 1.366 . S
C814 C816 1.388 . S
C815 C814 1.366 . S
C815 C819 1.385 . S
C816 H791 0.951 . S
C816 C814 1.388 . S
C816 C817 1.366 . S
C817 C816 1.366 . S
C817 C818 1.414 . S
C817 C820 1.499 . S
C818 H792 0.950 . S
C818 C817 1.414 . S
C818 C819 1.374 . S
C819 H793 0.950 . S
C819 C815 1.385 . S
C819 C818 1.374 . S
C820 C817 1.499 . S
C820 C821 1.373 . S
C820 C822 1.389 . S
C821 H794 0.950 . S
C821 C807 1.377 . S
C821 C820 1.373 . S
C822 C806 1.377 . S
C822 C820 1.389 . S
C822 C823 1.524 . S
C823 C822 1.524 . S
C823 C824 1.397 . S
C823 C828 1.363 . S
C824 H795 0.950 . S
C824 C823 1.397 . S
C824 C825 1.334 . S
C825 H796 0.950 . S
C825 C824 1.334 . S
C825 C826 1.287 . S
C826 C825 1.287 . S
C826 C827 1.524 . S
C826 H829 0.999 . S
C827 H797 0.950 . S
C827 C826 1.524 . S
C827 C828 1.415 . S
C828 H798 0.950 . S
C828 C823 1.363 . S
C828 C827 1.415 . S
H829 C826 0.999 . S
H830 C811 0.913 . S
H831 C849 0.951 . S
H832 C851 0.951 . S
H833 C853 0.950 . S
H834 C854 0.950 . S
H835 C856 0.950 . S
H836 C859 0.950 . S
H837 C860 0.950 . S
H838 C862 0.950 . S
H839 C863 0.950 . S
H840 C864 0.951 . S
H841 C866 0.951 . S
H842 C868 0.950 . S
H843 C869 0.950 . S
H844 C871 0.950 . S
H845 C874 0.950 . S
H846 C875 0.950 . S
H847 C877 0.950 . S
H848 C878 0.950 . S
C849 H831 0.951 . S
C849 C850 1.366 . S
C849 C851 1.388 . S
C850 C849 1.366 . S
C850 C854 1.385 . S
C851 H832 0.951 . S
C851 C849 1.388 . S
C851 C852 1.366 . S
C852 C851 1.366 . S
C852 C853 1.414 . S
C852 C855 1.499 . S
C853 H833 0.950 . S
C853 C852 1.414 . S
C853 C854 1.374 . S
C854 H834 0.950 . S
C854 C850 1.385 . S
C854 C853 1.374 . S
C855 C852 1.499 . S
C855 C856 1.373 . S
C855 C857 1.389 . S
C856 H835 0.950 . S
C856 C855 1.373 . S
C856 C872 1.377 . S
C857 C855 1.389 . S
C857 C858 1.524 . S
C857 C871 1.377 . S
C858 C857 1.524 . S
C858 C859 1.397 . S
C858 C863 1.363 . S
C859 H836 0.950 . S
C859 C858 1.397 . S
C859 C860 1.334 . S
C860 H837 0.950 . S
C860 C859 1.334 . S
C860 C861 1.287 . S
C861 C860 1.287 . S
C861 C862 1.524 . S
C861 H880 0.913 . S
C862 H838 0.950 . S
C862 C861 1.524 . S
C862 C863 1.415 . S
C863 H839 0.950 . S
C863 C858 1.363 . S
C863 C862 1.415 . S
C864 H840 0.951 . S
C864 C865 1.366 . S
C864 C866 1.388 . S
C865 C864 1.366 . S
C865 C869 1.385 . S
C866 H841 0.951 . S
C866 C864 1.388 . S
C866 C867 1.366 . S
C867 C866 1.366 . S
C867 C868 1.414 . S
C867 C870 1.499 . S
C868 H842 0.950 . S
C868 C867 1.414 . S
C868 C869 1.374 . S
C869 H843 0.950 . S
C869 C865 1.385 . S
C869 C868 1.374 . S
C870 C867 1.499 . S
C870 C871 1.373 . S
C870 C872 1.389 . S
C871 H844 0.950 . S
C871 C857 1.377 . S
C871 C870 1.373 . S
C872 C856 1.377 . S
C872 C870 1.389 . S
C872 C873 1.524 . S
C873 C872 1.524 . S
C873 C874 1.397 . S
C873 C878 1.363 . S
C874 H845 0.950 . S
C874 C873 1.397 . S
C874 C875 1.334 . S
C875 H846 0.950 . S
C875 C874 1.334 . S
C875 C876 1.287 . S
C876 C875 1.287 . S
C876 C877 1.524 . S
C876 H879 0.999 . S
C877 H847 0.950 . S
C877 C876 1.524 . S
C877 C878 1.415 . S
C878 H848 0.950 . S
C878 C873 1.363 . S
C878 C877 1.415 . S
H879 C876 0.999 . S
H880 C861 0.913 . S
H881 C899 0.951 . S
H882 C901 0.951 . S
H883 C903 0.950 . S
H884 C904 0.950 . S
H885 C906 0.950 . S
H886 C909 0.950 . S
H887 C910 0.950 . S
H888 C912 0.950 . S
H889 C913 0.950 . S
H890 C914 0.951 . S
H891 C916 0.951 . S
H892 C918 0.950 . S
H893 C919 0.950 . S
H894 C921 0.950 . S
H895 C924 0.950 . S
H896 C925 0.950 . S
H897 C927 0.950 . S
H898 C928 0.950 . S
C899 H881 0.951 . S
C899 C900 1.366 . S
C899 C901 1.388 . S
C900 C899 1.366 . S
C900 C904 1.385 . S
C901 H882 0.951 . S
C901 C899 1.388 . S
C901 C902 1.366 . S
C902 C901 1.366 . S
C902 C903 1.414 . S
C902 C905 1.499 . S
C903 H883 0.950 . S
C903 C902 1.414 . S
C903 C904 1.374 . S
C904 H884 0.950 . S
C904 C900 1.385 . S
C904 C903 1.374 . S
C905 C902 1.499 . S
C905 C906 1.373 . S
C905 C907 1.389 . S
C906 H885 0.950 . S
C906 C905 1.373 . S
C906 C922 1.377 . S
C907 C905 1.389 . S
C907 C908 1.524 . S
C907 C921 1.377 . S
C908 C907 1.524 . S
C908 C909 1.397 . S
C908 C913 1.363 . S
C909 H886 0.950 . S
C909 C908 1.397 . S
C909 C910 1.334 . S
C910 H887 0.950 . S
C910 C909 1.334 . S
C910 C911 1.287 . S
C911 C910 1.287 . S
C911 C912 1.524 . S
C911 H930 0.913 . S
C912 H888 0.950 . S
C912 C911 1.524 . S
C912 C913 1.415 . S
C913 H889 0.950 . S
C913 C908 1.363 . S
C913 C912 1.415 . S
C914 H890 0.951 . S
C914 C915 1.366 . S
C914 C916 1.388 . S
C915 C914 1.366 . S
C915 C919 1.385 . S
C916 H891 0.951 . S
C916 C914 1.388 . S
C916 C917 1.366 . S
C917 C916 1.366 . S
C917 C918 1.414 . S
C917 C920 1.499 . S
C918 H892 0.950 . S
C918 C917 1.414 . S
C918 C919 1.374 . S
C919 H893 0.950 . S
C919 C915 1.385 . S
C919 C918 1.374 . S
C920 C917 1.499 . S
C920 C921 1.373 . S
C920 C922 1.389 . S
C921 H894 0.950 . S
C921 C907 1.377 . S
C921 C920 1.373 . S
C922 C906 1.377 . S
C922 C920 1.389 . S
C922 C923 1.524 . S
C923 C922 1.524 . S
C923 C924 1.397 . S
C923 C928 1.363 . S
C924 H895 0.950 . S
C924 C923 1.397 . S
C924 C925 1.334 . S
C925 H896 0.950 . S
C925 C924 1.334 . S
C925 C926 1.287 . S
C926 C925 1.287 . S
C926 C927 1.524 . S
C926 H929 0.999 . S
C927 H897 0.950 . S
C927 C926 1.524 . S
C927 C928 1.415 . S
C928 H898 0.950 . S
C928 C923 1.363 . S
C928 C927 1.415 . S
H929 C926 0.999 . S
H930 C911 0.913 . S
H931 C949 0.951 . S
H932 C951 0.951 . S
H933 C953 0.950 . S
H934 C954 0.950 . S
H935 C956 0.950 . S
H936 C959 0.950 . S
H937 C960 0.950 . S
H938 C962 0.950 . S
H939 C963 0.950 . S
H940 C964 0.951 . S
H941 C966 0.951 . S
H942 C968 0.950 . S
H943 C969 0.950 . S
H944 C971 0.950 . S
H945 C974 0.950 . S
H946 C975 0.950 . S
H947 C977 0.950 . S
H948 C978 0.950 . S
C949 H931 0.951 . S
C949 C950 1.366 . S
C949 C951 1.388 . S
C950 C949 1.366 . S
C950 C954 1.385 . S
C951 H932 0.951 . S
C951 C949 1.388 . S
C951 C952 1.366 . S
C952 C951 1.366 . S
C952 C953 1.414 . S
C952 C955 1.499 . S
C953 H933 0.950 . S
C953 C952 1.414 . S
C953 C954 1.374 . S
C954 H934 0.950 . S
C954 C950 1.385 . S
C954 C953 1.374 . S
C955 C952 1.499 . S
C955 C956 1.373 . S
C955 C957 1.389 . S
C956 H935 0.950 . S
C956 C955 1.373 . S
C956 C972 1.377 . S
C957 C955 1.389 . S
C957 C958 1.524 . S
C957 C971 1.377 . S
C958 C957 1.524 . S
C958 C959 1.397 . S
C958 C963 1.363 . S
C959 H936 0.950 . S
C959 C958 1.397 . S
C959 C960 1.334 . S
C960 H937 0.950 . S
C960 C959 1.334 . S
C960 C961 1.287 . S
C961 C960 1.287 . S
C961 C962 1.524 . S
C961 H980 0.913 . S
C962 H938 0.950 . S
C962 C961 1.524 . S
C962 C963 1.415 . S
C963 H939 0.950 . S
C963 C958 1.363 . S
C963 C962 1.415 . S
C964 H940 0.951 . S
C964 C965 1.366 . S
C964 C966 1.388 . S
C965 C964 1.366 . S
C965 C969 1.385 . S
C966 H941 0.951 . S
C966 C964 1.388 . S
C966 C967 1.366 . S
C967 C966 1.366 . S
C967 C968 1.414 . S
C967 C970 1.499 . S
C968 H942 0.950 . S
C968 C967 1.414 . S
C968 C969 1.374 . S
C969 H943 0.950 . S
C969 C965 1.385 . S
C969 C968 1.374 . S
C970 C967 1.499 . S
C970 C971 1.373 . S
C970 C972 1.389 . S
C971 H944 0.950 . S
C971 C957 1.377 . S
C971 C970 1.373 . S
C972 C956 1.377 . S
C972 C970 1.389 . S
C972 C973 1.524 . S
C973 C972 1.524 . S
C973 C974 1.397 . S
C973 C978 1.363 . S
C974 H945 0.950 . S
C974 C973 1.397 . S
C974 C975 1.334 . S
C975 H946 0.950 . S
C975 C974 1.334 . S
C975 C976 1.287 . S
C976 C975 1.287 . S
C976 C977 1.524 . S
C976 H979 0.999 . S
C977 H947 0.950 . S
C977 C976 1.524 . S
C977 C978 1.415 . S
C978 H948 0.950 . S
C978 C973 1.363 . S
C978 C977 1.415 . S
H979 C976 0.999 . S
H980 C961 0.913 . S
H981 C999 0.951 . S
H982 C1001 0.951 . S
H983 C1003 0.950 . S
H984 C1004 0.950 . S
H985 C1006 0.950 . S
H986 C1009 0.950 . S
H987 C1010 0.950 . S
H988 C1012 0.950 . S
H989 C1013 0.950 . S
H990 C1014 0.951 . S
H991 C1016 0.951 . S
H992 C1018 0.950 . S
H993 C1019 0.950 . S
H994 C1021 0.950 . S
H995 C1024 0.950 . S
H996 C1025 0.950 . S
H997 C1027 0.950 . S
H998 C1028 0.950 . S
C999 H981 0.951 . S
C999 C1000 1.366 . S
C999 C1001 1.388 . S
C1000 C999 1.366 . S
C1000 C1004 1.385 . S
C1001 H982 0.951 . S
C1001 C999 1.388 . S
C1001 C1002 1.366 . S
C1002 C1001 1.366 . S
C1002 C1003 1.414 . S
C1002 C1005 1.499 . S
C1003 H983 0.950 . S
C1003 C1002 1.414 . S
C1003 C1004 1.374 . S
C1004 H984 0.950 . S
C1004 C1000 1.385 . S
C1004 C1003 1.374 . S
C1005 C1002 1.499 . S
C1005 C1006 1.373 . S
C1005 C1007 1.389 . S
C1006 H985 0.950 . S
C1006 C1005 1.373 . S
C1006 C1022 1.377 . S
C1007 C1005 1.389 . S
C1007 C1008 1.524 . S
C1007 C1021 1.377 . S
C1008 C1007 1.524 . S
C1008 C1009 1.397 . S
C1008 C1013 1.363 . S
C1009 H986 0.950 . S
C1009 C1008 1.397 . S
C1009 C1010 1.334 . S
C1010 H987 0.950 . S
C1010 C1009 1.334 . S
C1010 C1011 1.287 . S
C1011 C1010 1.287 . S
C1011 C1012 1.524 . S
C1011 H1030 0.913 . S
C1012 H988 0.950 . S
C1012 C1011 1.524 . S
C1012 C1013 1.415 . S
C1013 H989 0.950 . S
C1013 C1008 1.363 . S
C1013 C1012 1.415 . S
C1014 H990 0.951 . S
C1014 C1015 1.366 . S
C1014 C1016 1.388 . S
C1015 C1014 1.366 . S
C1015 C1019 1.385 . S
C1016 H991 0.951 . S
C1016 C1014 1.388 . S
C1016 C1017 1.366 . S
C1017 C1016 1.366 . S
C1017 C1018 1.414 . S
C1017 C1020 1.499 . S
C1018 H992 0.950 . S
C1018 C1017 1.414 . S
C1018 C1019 1.374 . S
C1019 H993 0.950 . S
C1019 C1015 1.385 . S
C1019 C1018 1.374 . S
C1020 C1017 1.499 . S
C1020 C1021 1.373 . S
C1020 C1022 1.389 . S
C1021 H994 0.950 . S
C1021 C1007 1.377 . S
C1021 C1020 1.373 . S
C1022 C1006 1.377 . S
C1022 C1020 1.389 . S
C1022 C1023 1.524 . S
C1023 C1022 1.524 . S
C1023 C1024 1.397 . S
C1023 C1028 1.363 . S
C1024 H995 0.950 . S
C1024 C1023 1.397 . S
C1024 C1025 1.334 . S
C1025 H996 0.950 . S
C1025 C1024 1.334 . S
C1025 C1026 1.287 . S
C1026 C1025 1.287 . S
C1026 C1027 1.524 . S
C1026 H1029 0.999 . S
C1027 H997 0.950 . S
C1027 C1026 1.524 . S
C1027 C1028 1.415 . S
C1028 H998 0.950 . S
C1028 C1023 1.363 . S
C1028 C1027 1.415 . S
H1029 C1026 0.999 . S
H1030 C1011 0.913 . S
H1031 C1049 0.951 . S
H1032 C1051 0.951 . S
H1033 C1053 0.950 . S
H1034 C1054 0.950 . S
H1035 C1056 0.950 . S
H1036 C1059 0.950 . S
H1037 C1060 0.950 . S
H1038 C1062 0.950 . S
H1039 C1063 0.950 . S
H1040 C1064 0.951 . S
H1041 C1066 0.951 . S
H1042 C1068 0.950 . S
H1043 C1069 0.950 . S
H1044 C1071 0.950 . S
H1045 C1074 0.950 . S
H1046 C1075 0.950 . S
H1047 C1077 0.950 . S
H1048 C1078 0.950 . S
C1049 H1031 0.951 . S
C1049 C1050 1.366 . S
C1049 C1051 1.388 . S
C1050 C1049 1.366 . S
C1050 C1054 1.385 . S
C1051 H1032 0.951 . S
C1051 C1049 1.388 . S
C1051 C1052 1.366 . S
C1052 C1051 1.366 . S
C1052 C1053 1.414 . S
C1052 C1055 1.499 . S
C1053 H1033 0.950 . S
C1053 C1052 1.414 . S
C1053 C1054 1.374 . S
C1054 H1034 0.950 . S
C1054 C1050 1.385 . S
C1054 C1053 1.374 . S
C1055 C1052 1.499 . S
C1055 C1056 1.373 . S
C1055 C1057 1.389 . S
C1056 H1035 0.950 . S
C1056 C1055 1.373 . S
C1056 C1072 1.377 . S
C1057 C1055 1.389 . S
C1057 C1058 1.524 . S
C1057 C1071 1.377 . S
C1058 C1057 1.524 . S
C1058 C1059 1.397 . S
C1058 C1063 1.363 . S
C1059 H1036 0.950 . S
C1059 C1058 1.397 . S
C1059 C1060 1.334 . S
C1060 H1037 0.950 . S
C1060 C1059 1.334 . S
C1060 C1061 1.287 . S
C1061 C1060 1.287 . S
C1061 C1062 1.524 . S
C1061 H1080 0.913 . S
C1062 H1038 0.950 . S
C1062 C1061 1.524 . S
C1062 C1063 1.415 . S
C1063 H1039 0.950 . S
C1063 C1058 1.363 . S
C1063 C1062 1.415 . S
C1064 H1040 0.951 . S
C1064 C1065 1.366 . S
C1064 C1066 1.388 . S
C1065 C1064 1.366 . S
C1065 C1069 1.385 . S
C1066 H1041 0.951 . S
C1066 C1064 1.388 . S
C1066 C1067 1.366 . S
C1067 C1066 1.366 . S
C1067 C1068 1.414 . S
C1067 C1070 1.499 . S
C1068 H1042 0.950 . S
C1068 C1067 1.414 . S
C1068 C1069 1.374 . S
C1069 H1043 0.950 . S
C1069 C1065 1.385 . S
C1069 C1068 1.374 . S
C1070 C1067 1.499 . S
C1070 C1071 1.373 . S
C1070 C1072 1.389 . S
C1071 H1044 0.950 . S
C1071 C1057 1.377 . S
C1071 C1070 1.373 . S
C1072 C1056 1.377 . S
C1072 C1070 1.389 . S
C1072 C1073 1.524 . S
C1073 C1072 1.524 . S
C1073 C1074 1.397 . S
C1073 C1078 1.363 . S
C1074 H1045 0.950 . S
C1074 C1073 1.397 . S
C1074 C1075 1.334 . S
C1075 H1046 0.950 . S
C1075 C1074 1.334 . S
C1075 C1076 1.287 . S
C1076 C1075 1.287 . S
C1076 C1077 1.524 . S
C1076 H1079 0.999 . S
C1077 H1047 0.950 . S
C1077 C1076 1.524 . S
C1077 C1078 1.415 . S
C1078 H1048 0.950 . S
C1078 C1073 1.363 . S
C1078 C1077 1.415 . S
H1079 C1076 0.999 . S
H1080 C1061 0.913 . S
H1081 C1099 0.951 . S
H1082 C1101 0.951 . S
H1083 C1103 0.950 . S
H1084 C1104 0.950 . S
H1085 C1106 0.950 . S
H1086 C1109 0.950 . S
H1087 C1110 0.950 . S
H1088 C1112 0.950 . S
H1089 C1113 0.950 . S
H1090 C1114 0.951 . S
H1091 C1116 0.951 . S
H1092 C1118 0.950 . S
H1093 C1119 0.950 1_545 S
H1094 C1121 0.950 . S
H1095 C1124 0.950 . S
H1096 C1125 0.950 . S
H1097 C1127 0.950 . S
H1098 C1128 0.950 . S
C1099 H1081 0.951 . S
C1099 C1100 1.366 . S
C1099 C1101 1.388 . S
C1100 C1099 1.366 . S
C1100 C1104 1.385 . S
C1101 H1082 0.951 . S
C1101 C1099 1.388 . S
C1101 C1102 1.366 . S
C1102 C1101 1.366 . S
C1102 C1103 1.414 . S
C1102 C1105 1.499 . S
C1103 H1083 0.950 . S
C1103 C1102 1.414 . S
C1103 C1104 1.374 . S
C1104 H1084 0.950 . S
C1104 C1100 1.385 . S
C1104 C1103 1.374 . S
C1105 C1102 1.499 . S
C1105 C1106 1.373 . S
C1105 C1107 1.389 . S
C1106 H1085 0.950 . S
C1106 C1105 1.373 . S
C1106 C1122 1.377 . S
C1107 C1105 1.389 . S
C1107 C1108 1.524 . S
C1107 C1121 1.377 . S
C1108 C1107 1.524 . S
C1108 C1109 1.397 . S
C1108 C1113 1.363 1_565 S
C1109 H1086 0.950 . S
C1109 C1108 1.397 . S
C1109 C1110 1.334 . S
C1110 H1087 0.950 . S
C1110 C1109 1.334 . S
C1110 C1111 1.287 1_565 S
C1111 C1110 1.287 1_545 S
C1111 C1112 1.524 . S
C1111 H1130 0.913 . S
C1112 H1088 0.950 . S
C1112 C1111 1.524 . S
C1112 C1113 1.415 . S
C1113 H1089 0.950 . S
C1113 C1108 1.363 1_545 S
C1113 C1112 1.415 . S
C1114 H1090 0.951 . S
C1114 C1115 1.366 . S
C1114 C1116 1.388 . S
C1115 C1114 1.366 . S
C1115 C1119 1.385 . S
C1116 H1091 0.951 . S
C1116 C1114 1.388 . S
C1116 C1117 1.366 . S
C1117 C1116 1.366 . S
C1117 C1118 1.414 . S
C1117 C1120 1.499 . S
C1118 H1092 0.950 . S
C1118 C1117 1.414 . S
C1118 C1119 1.374 . S
C1119 H1093 0.950 1_565 S
C1119 C1115 1.385 . S
C1119 C1118 1.374 . S
C1120 C1117 1.499 . S
C1120 C1121 1.373 . S
C1120 C1122 1.389 . S
C1121 H1094 0.950 . S
C1121 C1107 1.377 . S
C1121 C1120 1.373 . S
C1122 C1106 1.377 . S
C1122 C1120 1.389 . S
C1122 C1123 1.524 . S
C1123 C1122 1.524 . S
C1123 C1124 1.397 . S
C1123 C1128 1.363 . S
C1124 H1095 0.950 . S
C1124 C1123 1.397 . S
C1124 C1125 1.334 . S
C1125 H1096 0.950 . S
C1125 C1124 1.334 . S
C1125 C1126 1.287 . S
C1126 C1125 1.287 . S
C1126 C1127 1.524 . S
C1126 H1129 0.999 . S
C1127 H1097 0.950 . S
C1127 C1126 1.524 . S
C1127 C1128 1.415 . S
C1128 H1098 0.950 . S
C1128 C1123 1.363 . S
C1128 C1127 1.415 . S
H1129 C1126 0.999 . S
H1130 C1111 0.913 . S
H1131 C1149 0.951 . S
H1132 C1151 0.951 . S
H1133 C1153 0.950 . S
H1134 C1154 0.950 . S
H1135 C1156 0.950 . S
H1136 C1159 0.950 . S
H1137 C1160 0.950 . S
H1138 C1162 0.950 . S
H1139 C1163 0.950 . S
H1140 C1164 0.951 . S
H1141 C1166 0.951 . S
H1142 C1168 0.950 . S
H1143 C1169 0.950 . S
H1144 C1171 0.950 . S
H1145 C1174 0.950 . S
H1146 C1175 0.950 . S
H1147 C1177 0.950 . S
H1148 C1178 0.950 . S
C1149 H1131 0.951 . S
C1149 C1150 1.366 . S
C1149 C1151 1.388 . S
C1150 C1149 1.366 . S
C1150 C1154 1.385 . S
C1151 H1132 0.951 . S
C1151 C1149 1.388 . S
C1151 C1152 1.366 . S
C1152 C1151 1.366 . S
C1152 C1153 1.414 . S
C1152 C1155 1.499 . S
C1153 H1133 0.950 . S
C1153 C1152 1.414 . S
C1153 C1154 1.374 . S
C1154 H1134 0.950 . S
C1154 C1150 1.385 . S
C1154 C1153 1.374 . S
C1155 C1152 1.499 . S
C1155 C1156 1.373 . S
C1155 C1157 1.389 . S
C1156 H1135 0.950 . S
C1156 C1155 1.373 . S
C1156 C1172 1.377 . S
C1157 C1155 1.389 . S
C1157 C1158 1.524 . S
C1157 C1171 1.377 . S
C1158 C1157 1.524 . S
C1158 C1159 1.397 . S
C1158 C1163 1.363 . S
C1159 H1136 0.950 . S
C1159 C1158 1.397 . S
C1159 C1160 1.334 . S
C1160 H1137 0.950 . S
C1160 C1159 1.334 . S
C1160 C1161 1.287 . S
C1161 C1160 1.287 . S
C1161 C1162 1.524 . S
C1161 H1180 0.913 . S
C1162 H1138 0.950 . S
C1162 C1161 1.524 . S
C1162 C1163 1.415 . S
C1163 H1139 0.950 . S
C1163 C1158 1.363 . S
C1163 C1162 1.415 . S
C1164 H1140 0.951 . S
C1164 C1165 1.366 . S
C1164 C1166 1.388 . S
C1165 C1164 1.366 . S
C1165 C1169 1.385 . S
C1166 H1141 0.951 . S
C1166 C1164 1.388 . S
C1166 C1167 1.366 . S
C1167 C1166 1.366 . S
C1167 C1168 1.414 . S
C1167 C1170 1.499 . S
C1168 H1142 0.950 . S
C1168 C1167 1.414 . S
C1168 C1169 1.374 . S
C1169 H1143 0.950 . S
C1169 C1165 1.385 . S
C1169 C1168 1.374 . S
C1170 C1167 1.499 . S
C1170 C1171 1.373 . S
C1170 C1172 1.389 . S
C1171 H1144 0.950 . S
C1171 C1157 1.377 . S
C1171 C1170 1.373 . S
C1172 C1156 1.377 . S
C1172 C1170 1.389 . S
C1172 C1173 1.524 . S
C1173 C1172 1.524 . S
C1173 C1174 1.397 . S
C1173 C1178 1.363 . S
C1174 H1145 0.950 . S
C1174 C1173 1.397 . S
C1174 C1175 1.334 . S
C1175 H1146 0.950 . S
C1175 C1174 1.334 . S
C1175 C1176 1.287 . S
C1176 C1175 1.287 . S
C1176 C1177 1.524 . S
C1176 H1179 0.999 . S
C1177 H1147 0.950 . S
C1177 C1176 1.524 . S
C1177 C1178 1.415 . S
C1178 H1148 0.950 . S
C1178 C1173 1.363 . S
C1178 C1177 1.415 . S
H1179 C1176 0.999 . S
H1180 C1161 0.913 . S
H1181 C1199 0.951 1_455 S
H1182 C1201 0.951 . S
H1183 C1203 0.950 . S
H1184 C1204 0.950 . S
H1185 C1206 0.950 . S
H1186 C1209 0.950 . S
H1187 C1210 0.950 . S
H1188 C1212 0.950 . S
H1189 C1213 0.950 . S
H1190 C1214 0.951 . S
H1191 C1216 0.951 . S
H1192 C1218 0.950 . S
H1193 C1219 0.950 . S
H1194 C1221 0.950 . S
H1195 C1224 0.950 . S
H1196 C1225 0.950 . S
H1197 C1227 0.950 . S
H1198 C1228 0.950 . S
C1199 H1181 0.951 1_655 S
C1199 C1200 1.366 . S
C1199 C1201 1.388 . S
C1200 C1199 1.366 . S
C1200 C1204 1.385 . S
C1201 H1182 0.951 . S
C1201 C1199 1.388 . S
C1201 C1202 1.366 . S
C1202 C1201 1.366 . S
C1202 C1203 1.414 . S
C1202 C1205 1.499 . S
C1203 H1183 0.950 . S
C1203 C1202 1.414 . S
C1203 C1204 1.374 . S
C1204 H1184 0.950 . S
C1204 C1200 1.385 . S
C1204 C1203 1.374 . S
C1205 C1202 1.499 . S
C1205 C1206 1.373 . S
C1205 C1207 1.389 . S
C1206 H1185 0.950 . S
C1206 C1205 1.373 . S
C1206 C1222 1.377 . S
C1207 C1205 1.389 . S
C1207 C1208 1.524 . S
C1207 C1221 1.377 . S
C1208 C1207 1.524 . S
C1208 C1209 1.397 . S
C1208 C1213 1.363 1_655 S
C1209 H1186 0.950 . S
C1209 C1208 1.397 . S
C1209 C1210 1.334 . S
C1210 H1187 0.950 . S
C1210 C1209 1.334 . S
C1210 C1211 1.287 1_655 S
C1211 C1210 1.287 1_455 S
C1211 C1212 1.524 . S
C1211 H1230 0.913 . S
C1212 H1188 0.950 . S
C1212 C1211 1.524 . S
C1212 C1213 1.415 . S
C1213 H1189 0.950 . S
C1213 C1208 1.363 1_455 S
C1213 C1212 1.415 . S
C1214 H1190 0.951 . S
C1214 C1215 1.366 . S
C1214 C1216 1.388 . S
C1215 C1214 1.366 . S
C1215 C1219 1.385 . S
C1216 H1191 0.951 . S
C1216 C1214 1.388 . S
C1216 C1217 1.366 . S
C1217 C1216 1.366 . S
C1217 C1218 1.414 . S
C1217 C1220 1.499 . S
C1218 H1192 0.950 . S
C1218 C1217 1.414 . S
C1218 C1219 1.374 . S
C1219 H1193 0.950 . S
C1219 C1215 1.385 . S
C1219 C1218 1.374 . S
C1220 C1217 1.499 . S
C1220 C1221 1.373 . S
C1220 C1222 1.389 . S
C1221 H1194 0.950 . S
C1221 C1207 1.377 . S
C1221 C1220 1.373 . S
C1222 C1206 1.377 . S
C1222 C1220 1.389 . S
C1222 C1223 1.524 . S
C1223 C1222 1.524 . S
C1223 C1224 1.397 . S
C1223 C1228 1.363 . S
C1224 H1195 0.950 . S
C1224 C1223 1.397 . S
C1224 C1225 1.334 . S
C1225 H1196 0.950 . S
C1225 C1224 1.334 . S
C1225 C1226 1.287 . S
C1226 C1225 1.287 . S
C1226 C1227 1.524 . S
C1226 H1229 0.999 . S
C1227 H1197 0.950 . S
C1227 C1226 1.524 . S
C1227 C1228 1.415 . S
C1228 H1198 0.950 . S
C1228 C1223 1.363 . S
C1228 C1227 1.415 . S
H1229 C1226 0.999 . S
H1230 C1211 0.913 . S
H1231 C1249 0.951 . S
H1232 C1251 0.951 . S
H1233 C1253 0.950 . S
H1234 C1254 0.950 . S
H1235 C1256 0.950 . S
H1236 C1259 0.950 . S
H1237 C1260 0.950 . S
H1238 C1262 0.950 . S
H1239 C1263 0.950 . S
H1240 C1264 0.951 . S
H1241 C1266 0.951 . S
H1242 C1268 0.950 . S
H1243 C1269 0.950 . S
H1244 C1271 0.950 . S
H1245 C1274 0.950 . S
H1246 C1275 0.950 . S
H1247 C1277 0.950 . S
H1248 C1278 0.950 . S
C1249 H1231 0.951 . S
C1249 C1250 1.366 . S
C1249 C1251 1.388 . S
C1250 C1249 1.366 . S
C1250 C1254 1.385 . S
C1251 H1232 0.951 . S
C1251 C1249 1.388 . S
C1251 C1252 1.366 . S
C1252 C1251 1.366 . S
C1252 C1253 1.414 . S
C1252 C1255 1.499 . S
C1253 H1233 0.950 . S
C1253 C1252 1.414 . S
C1253 C1254 1.374 . S
C1254 H1234 0.950 . S
C1254 C1250 1.385 . S
C1254 C1253 1.374 . S
C1255 C1252 1.499 . S
C1255 C1256 1.373 . S
C1255 C1257 1.389 . S
C1256 H1235 0.950 . S
C1256 C1255 1.373 . S
C1256 C1272 1.377 . S
C1257 C1255 1.389 . S
C1257 C1258 1.524 . S
C1257 C1271 1.377 . S
C1258 C1257 1.524 . S
C1258 C1259 1.397 . S
C1258 C1263 1.363 . S
C1259 H1236 0.950 . S
C1259 C1258 1.397 . S
C1259 C1260 1.334 . S
C1260 H1237 0.950 . S
C1260 C1259 1.334 . S
C1260 C1261 1.287 . S
C1261 C1260 1.287 . S
C1261 C1262 1.524 . S
C1261 H1280 0.913 . S
C1262 H1238 0.950 . S
C1262 C1261 1.524 . S
C1262 C1263 1.415 . S
C1263 H1239 0.950 . S
C1263 C1258 1.363 . S
C1263 C1262 1.415 . S
C1264 H1240 0.951 . S
C1264 C1265 1.366 . S
C1264 C1266 1.388 . S
C1265 C1264 1.366 . S
C1265 C1269 1.385 . S
C1266 H1241 0.951 . S
C1266 C1264 1.388 . S
C1266 C1267 1.366 . S
C1267 C1266 1.366 . S
C1267 C1268 1.414 . S
C1267 C1270 1.499 . S
C1268 H1242 0.950 . S
C1268 C1267 1.414 . S
C1268 C1269 1.374 . S
C1269 H1243 0.950 . S
C1269 C1265 1.385 . S
C1269 C1268 1.374 . S
C1270 C1267 1.499 . S
C1270 C1271 1.373 . S
C1270 C1272 1.389 . S
C1271 H1244 0.950 . S
C1271 C1257 1.377 . S
C1271 C1270 1.373 . S
C1272 C1256 1.377 . S
C1272 C1270 1.389 . S
C1272 C1273 1.524 . S
C1273 C1272 1.524 . S
C1273 C1274 1.397 . S
C1273 C1278 1.363 . S
C1274 H1245 0.950 . S
C1274 C1273 1.397 . S
C1274 C1275 1.334 . S
C1275 H1246 0.950 . S
C1275 C1274 1.334 . S
C1275 C1276 1.287 . S
C1276 C1275 1.287 . S
C1276 C1277 1.524 . S
C1276 H1279 0.999 . S
C1277 H1247 0.950 . S
C1277 C1276 1.524 . S
C1277 C1278 1.415 . S
C1278 H1248 0.950 . S
C1278 C1273 1.363 . S
C1278 C1277 1.415 . S
H1279 C1276 0.999 . S
H1280 C1261 0.913 . S
H1281 C1299 0.951 . S
H1282 C1301 0.951 . S
H1283 C1303 0.950 . S
H1284 C1304 0.950 . S
H1285 C1306 0.950 . S
H1286 C1309 0.950 . S
H1287 C1310 0.950 . S
H1288 C1312 0.950 . S
H1289 C1313 0.950 . S
H1290 C1314 0.951 . S
H1291 C1316 0.951 . S
H1292 C1318 0.950 . S
H1293 C1319 0.950 . S
H1294 C1321 0.950 . S
H1295 C1324 0.950 . S
H1296 C1325 0.950 . S
H1297 C1327 0.950 . S
H1298 C1328 0.950 . S
C1299 H1281 0.951 . S
C1299 C1300 1.366 . S
C1299 C1301 1.388 . S
C1300 C1299 1.366 . S
C1300 C1304 1.385 . S
C1301 H1282 0.951 . S
C1301 C1299 1.388 . S
C1301 C1302 1.366 . S
C1302 C1301 1.366 . S
C1302 C1303 1.414 . S
C1302 C1305 1.499 . S
C1303 H1283 0.950 . S
C1303 C1302 1.414 . S
C1303 C1304 1.374 . S
C1304 H1284 0.950 . S
C1304 C1300 1.385 . S
C1304 C1303 1.374 . S
C1305 C1302 1.499 . S
C1305 C1306 1.373 . S
C1305 C1307 1.389 . S
C1306 H1285 0.950 . S
C1306 C1305 1.373 . S
C1306 C1322 1.377 1_455 S
C1307 C1305 1.389 . S
C1307 C1308 1.524 . S
C1307 C1321 1.377 . S
C1308 C1307 1.524 . S
C1308 C1309 1.397 . S
C1308 C1313 1.363 . S
C1309 H1286 0.950 . S
C1309 C1308 1.397 . S
C1309 C1310 1.334 . S
C1310 H1287 0.950 . S
C1310 C1309 1.334 . S
C1310 C1311 1.287 . S
C1311 C1310 1.287 . S
C1311 C1312 1.524 . S
C1311 H1330 0.913 . S
C1312 H1288 0.950 . S
C1312 C1311 1.524 . S
C1312 C1313 1.415 . S
C1313 H1289 0.950 . S
C1313 C1308 1.363 . S
C1313 C1312 1.415 . S
C1314 H1290 0.951 . S
C1314 C1315 1.366 . S
C1314 C1316 1.388 . S
C1315 C1314 1.366 . S
C1315 C1319 1.385 . S
C1316 H1291 0.951 . S
C1316 C1314 1.388 . S
C1316 C1317 1.366 . S
C1317 C1316 1.366 . S
C1317 C1318 1.414 . S
C1317 C1320 1.499 . S
C1318 H1292 0.950 . S
C1318 C1317 1.414 . S
C1318 C1319 1.374 . S
C1319 H1293 0.950 . S
C1319 C1315 1.385 . S
C1319 C1318 1.374 . S
C1320 C1317 1.499 . S
C1320 C1321 1.373 1_655 S
C1320 C1322 1.389 . S
C1321 H1294 0.950 . S
C1321 C1307 1.377 . S
C1321 C1320 1.373 1_455 S
C1322 C1306 1.377 1_655 S
C1322 C1320 1.389 . S
C1322 C1323 1.524 . S
C1323 C1322 1.524 . S
C1323 C1324 1.397 . S
C1323 C1328 1.363 . S
C1324 H1295 0.950 . S
C1324 C1323 1.397 . S
C1324 C1325 1.334 . S
C1325 H1296 0.950 . S
C1325 C1324 1.334 . S
C1325 C1326 1.287 . S
C1326 C1325 1.287 . S
C1326 C1327 1.524 . S
C1326 H1329 0.999 . S
C1327 H1297 0.950 . S
C1327 C1326 1.524 . S
C1327 C1328 1.415 . S
C1328 H1298 0.950 . S
C1328 C1323 1.363 . S
C1328 C1327 1.415 . S
H1329 C1326 0.999 . S
H1330 C1311 0.913 . S
H1331 C1349 0.951 . S
H1332 C1351 0.951 . S
H1333 C1353 0.950 . S
H1334 C1354 0.950 . S
H1335 C1356 0.950 . S
H1336 C1359 0.950 . S
H1337 C1360 0.950 . S
H1338 C1362 0.950 . S
H1339 C1363 0.950 . S
H1340 C1364 0.951 . S
H1341 C1366 0.951 . S
H1342 C1368 0.950 . S
H1343 C1369 0.950 . S
H1344 C1371 0.950 . S
H1345 C1374 0.950 . S
H1346 C1375 0.950 . S
H1347 C1377 0.950 . S
H1348 C1378 0.950 . S
C1349 H1331 0.951 . S
C1349 C1350 1.366 . S
C1349 C1351 1.388 . S
C1350 C1349 1.366 . S
C1350 C1354 1.385 . S
C1351 H1332 0.951 . S
C1351 C1349 1.388 . S
C1351 C1352 1.366 . S
C1352 C1351 1.366 . S
C1352 C1353 1.414 . S
C1352 C1355 1.499 . S
C1353 H1333 0.950 . S
C1353 C1352 1.414 . S
C1353 C1354 1.374 . S
C1354 H1334 0.950 . S
C1354 C1350 1.385 . S
C1354 C1353 1.374 . S
C1355 C1352 1.499 . S
C1355 C1356 1.373 . S
C1355 C1357 1.389 . S
C1356 H1335 0.950 . S
C1356 C1355 1.373 . S
C1356 C1372 1.377 . S
C1357 C1355 1.389 . S
C1357 C1358 1.524 . S
C1357 C1371 1.377 . S
C1358 C1357 1.524 . S
C1358 C1359 1.397 . S
C1358 C1363 1.363 . S
C1359 H1336 0.950 . S
C1359 C1358 1.397 . S
C1359 C1360 1.334 . S
C1360 H1337 0.950 . S
C1360 C1359 1.334 . S
C1360 C1361 1.287 . S
C1361 C1360 1.287 . S
C1361 C1362 1.524 . S
C1361 H1380 0.913 . S
C1362 H1338 0.950 . S
C1362 C1361 1.524 . S
C1362 C1363 1.415 . S
C1363 H1339 0.950 . S
C1363 C1358 1.363 . S
C1363 C1362 1.415 . S
C1364 H1340 0.951 . S
C1364 C1365 1.366 . S
C1364 C1366 1.388 . S
C1365 C1364 1.366 . S
C1365 C1369 1.385 . S
C1366 H1341 0.951 . S
C1366 C1364 1.388 . S
C1366 C1367 1.366 . S
C1367 C1366 1.366 . S
C1367 C1368 1.414 . S
C1367 C1370 1.499 . S
C1368 H1342 0.950 . S
C1368 C1367 1.414 . S
C1368 C1369 1.374 . S
C1369 H1343 0.950 . S
C1369 C1365 1.385 . S
C1369 C1368 1.374 . S
C1370 C1367 1.499 . S
C1370 C1371 1.373 . S
C1370 C1372 1.389 . S
C1371 H1344 0.950 . S
C1371 C1357 1.377 . S
C1371 C1370 1.373 . S
C1372 C1356 1.377 . S
C1372 C1370 1.389 . S
C1372 C1373 1.524 . S
C1373 C1372 1.524 . S
C1373 C1374 1.397 . S
C1373 C1378 1.363 . S
C1374 H1345 0.950 . S
C1374 C1373 1.397 . S
C1374 C1375 1.334 . S
C1375 H1346 0.950 . S
C1375 C1374 1.334 . S
C1375 C1376 1.287 . S
C1376 C1375 1.287 . S
C1376 C1377 1.524 . S
C1376 H1379 0.999 . S
C1377 H1347 0.950 . S
C1377 C1376 1.524 . S
C1377 C1378 1.415 . S
C1378 H1348 0.950 . S
C1378 C1373 1.363 . S
C1378 C1377 1.415 . S
H1379 C1376 0.999 . S
H1380 C1361 0.913 . S
H1381 C1399 0.951 . S
H1382 C1401 0.951 . S
H1383 C1403 0.950 . S
H1384 C1404 0.950 . S
H1385 C1406 0.950 1_565 S
H1386 C1409 0.950 . S
H1387 C1410 0.950 . S
H1388 C1412 0.950 . S
H1389 C1413 0.950 . S
H1390 C1414 0.951 . S
H1391 C1416 0.951 . S
H1392 C1418 0.950 . S
H1393 C1419 0.950 . S
H1394 C1421 0.950 . S
H1395 C1424 0.950 . S
H1396 C1425 0.950 . S
H1397 C1427 0.950 . S
H1398 C1428 0.950 . S
C1399 H1381 0.951 . S
C1399 C1400 1.366 . S
C1399 C1401 1.388 . S
C1400 C1399 1.366 . S
C1400 C1404 1.385 . S
C1401 H1382 0.951 . S
C1401 C1399 1.388 . S
C1401 C1402 1.366 . S
C1402 C1401 1.366 . S
C1402 C1403 1.414 . S
C1402 C1405 1.499 1_565 S
C1403 H1383 0.950 . S
C1403 C1402 1.414 . S
C1403 C1404 1.374 . S
C1404 H1384 0.950 . S
C1404 C1400 1.385 . S
C1404 C1403 1.374 . S
C1405 C1402 1.499 1_545 S
C1405 C1406 1.373 . S
C1405 C1407 1.389 . S
C1406 H1385 0.950 1_545 S
C1406 C1405 1.373 . S
C1406 C1422 1.377 . S
C1407 C1405 1.389 . S
C1407 C1408 1.524 . S
C1407 C1421 1.377 . S
C1408 C1407 1.524 . S
C1408 C1409 1.397 . S
C1408 C1413 1.363 . S
C1409 H1386 0.950 . S
C1409 C1408 1.397 . S
C1409 C1410 1.334 . S
C1410 H1387 0.950 . S
C1410 C1409 1.334 . S
C1410 C1411 1.287 . S
C1411 C1410 1.287 . S
C1411 C1412 1.524 . S
C1411 H1430 0.913 . S
C1412 H1388 0.950 . S
C1412 C1411 1.524 . S
C1412 C1413 1.415 . S
C1413 H1389 0.950 . S
C1413 C1408 1.363 . S
C1413 C1412 1.415 . S
C1414 H1390 0.951 . S
C1414 C1415 1.366 . S
C1414 C1416 1.388 . S
C1415 C1414 1.366 . S
C1415 C1419 1.385 . S
C1416 H1391 0.951 . S
C1416 C1414 1.388 . S
C1416 C1417 1.366 . S
C1417 C1416 1.366 . S
C1417 C1418 1.414 . S
C1417 C1420 1.499 . S
C1418 H1392 0.950 . S
C1418 C1417 1.414 . S
C1418 C1419 1.374 . S
C1419 H1393 0.950 . S
C1419 C1415 1.385 . S
C1419 C1418 1.374 . S
C1420 C1417 1.499 . S
C1420 C1421 1.373 . S
C1420 C1422 1.389 . S
C1421 H1394 0.950 . S
C1421 C1407 1.377 . S
C1421 C1420 1.373 . S
C1422 C1406 1.377 . S
C1422 C1420 1.389 . S
C1422 C1423 1.524 . S
C1423 C1422 1.524 . S
C1423 C1424 1.397 . S
C1423 C1428 1.363 . S
C1424 H1395 0.950 . S
C1424 C1423 1.397 . S
C1424 C1425 1.334 . S
C1425 H1396 0.950 . S
C1425 C1424 1.334 . S
C1425 C1426 1.287 1_545 S
C1426 C1425 1.287 1_565 S
C1426 C1427 1.524 . S
C1426 H1429 0.999 . S
C1427 H1397 0.950 . S
C1427 C1426 1.524 . S
C1427 C1428 1.415 1_565 S
C1428 H1398 0.950 . S
C1428 C1423 1.363 . S
C1428 C1427 1.415 1_545 S
H1429 C1426 0.999 . S
H1430 C1411 0.913 . S
C550 C170 1.113 . S
C565 C33 1.107 . S
C600 C111 1.113 . S
C615 C52 1.113 . S
C650 C92 1.107 . S
C665 C151 1.107 . S
C700 C328 1.106 . S
C715 C229 1.112 . S
C750 C288 1.111 . S
C765 C210 1.105 . S
C800 C269 1.107 . S
C815 C347 1.113 . S
C850 C387 1.106 . S
C865 C524 1.111 . S
C900 C406 1.110 . S
C915 C465 1.110 . S
C950 C446 1.104 . S
C965 C505 1.104 . S
C1000 C5 1.492 . S
C1015 C418 1.492 . S
C1050 C62 1.485 . S
C1065 C475 1.485 . S
C1100 C357 1.484 . S
C1115 C123 1.494 . S
C1150 C239 1.483 . S
C1165 C121 1.483 . S
C1200 C3 1.486 . S
C1215 C298 1.486 . S
C1250 C180 1.485 . S
C1265 C64 1.494 . S
C1300 C416 1.483 . S
C1315 C300 1.493 . S
C1350 C182 1.492 . S
C1365 C477 1.492 . S
C1400 C359 1.494 . S
C1415 C241 1.494 . S
