# Generated by pormake.
# Topology gie, (4)-cn, num edge types: 1
# Building blocks:
#     Node 0, Type 0, BuildingBlock: ESEHIV_clean_sbu_0, # of connection points: 4
#     Node 1, Type 0, BuildingBlock: ESEHIV_clean_sbu_0, # of connection points: 4
#     Node 2, Type 0, BuildingBlock: ESEHIV_clean_sbu_0, # of connection points: 4
#     Node 3, Type 0, BuildingBlock: ESEHIV_clean_sbu_0, # of connection points: 4
#     Node 4, Type 0, BuildingBlock: ESEHIV_clean_sbu_0, # of connection points: 4
#     Node 5, Type 0, BuildingBlock: ESEHIV_clean_sbu_0, # of connection points: 4
#     Node 6, Type 0, BuildingBlock: ESEHIV_clean_sbu_0, # of connection points: 4
#     Node 7, Type 0, BuildingBlock: ESEHIV_clean_sbu_0, # of connection points: 4
#     Node 8, Type 0, BuildingBlock: ESEHIV_clean_sbu_0, # of connection points: 4
#     Node 9, Type 0, BuildingBlock: ESEHIV_clean_sbu_0, # of connection points: 4
#     Node 10, Type 0, BuildingBlock: ESEHIV_clean_sbu_0, # of connection points: 4
#     Node 11, Type 0, BuildingBlock: ESEHIV_clean_sbu_0, # of connection points: 4
#     Node 12, Type 0, BuildingBlock: ESEHIV_clean_sbu_0, # of connection points: 4
#     Node 13, Type 0, BuildingBlock: ESEHIV_clean_sbu_0, # of connection points: 4
#     Node 14, Type 0, BuildingBlock: ESEHIV_clean_sbu_0, # of connection points: 4
#     Node 15, Type 0, BuildingBlock: ESEHIV_clean_sbu_0, # of connection points: 4
#     Node 16, Type 0, BuildingBlock: ESEHIV_clean_sbu_0, # of connection points: 4
#     Node 17, Type 0, BuildingBlock: ESEHIV_clean_sbu_0, # of connection points: 4
#     Node 18, Type 0, BuildingBlock: ESEHIV_clean_sbu_0, # of connection points: 4
#     Node 19, Type 0, BuildingBlock: ESEHIV_clean_sbu_0, # of connection points: 4
#     Node 20, Type 0, BuildingBlock: ESEHIV_clean_sbu_0, # of connection points: 4
#     Node 21, Type 0, BuildingBlock: ESEHIV_clean_sbu_0, # of connection points: 4
#     Node 22, Type 0, BuildingBlock: ESEHIV_clean_sbu_0, # of connection points: 4
#     Node 23, Type 0, BuildingBlock: ESEHIV_clean_sbu_0, # of connection points: 4
#     Node 24, Type 0, BuildingBlock: ESEHIV_clean_sbu_0, # of connection points: 4
#     Node 25, Type 0, BuildingBlock: ESEHIV_clean_sbu_0, # of connection points: 4
#     Node 26, Type 0, BuildingBlock: ESEHIV_clean_sbu_0, # of connection points: 4
#     Node 27, Type 0, BuildingBlock: ESEHIV_clean_sbu_0, # of connection points: 4
#     Node 28, Type 0, BuildingBlock: ESEHIV_clean_sbu_0, # of connection points: 4
#     Node 29, Type 0, BuildingBlock: ESEHIV_clean_sbu_0, # of connection points: 4
#     Node 30, Type 0, BuildingBlock: ESEHIV_clean_sbu_0, # of connection points: 4
#     Node 31, Type 0, BuildingBlock: ESEHIV_clean_sbu_0, # of connection points: 4
#     Node 32, Type 0, BuildingBlock: ESEHIV_clean_sbu_0, # of connection points: 4
#     Node 33, Type 0, BuildingBlock: ESEHIV_clean_sbu_0, # of connection points: 4
#     Node 34, Type 0, BuildingBlock: ESEHIV_clean_sbu_0, # of connection points: 4
#     Node 35, Type 0, BuildingBlock: ESEHIV_clean_sbu_0, # of connection points: 4
#     Node 36, Type 0, BuildingBlock: ESEHIV_clean_sbu_0, # of connection points: 4
#     Node 37, Type 0, BuildingBlock: ESEHIV_clean_sbu_0, # of connection points: 4
#     Node 38, Type 0, BuildingBlock: ESEHIV_clean_sbu_0, # of connection points: 4
#     Node 39, Type 0, BuildingBlock: ESEHIV_clean_sbu_0, # of connection points: 4
#     Node 40, Type 0, BuildingBlock: ESEHIV_clean_sbu_0, # of connection points: 4
#     Node 41, Type 0, BuildingBlock: ESEHIV_clean_sbu_0, # of connection points: 4
#     Node 42, Type 0, BuildingBlock: ESEHIV_clean_sbu_0, # of connection points: 4
#     Node 43, Type 0, BuildingBlock: ESEHIV_clean_sbu_0, # of connection points: 4
#     Node 44, Type 0, BuildingBlock: ESEHIV_clean_sbu_0, # of connection points: 4
#     Node 45, Type 0, BuildingBlock: ESEHIV_clean_sbu_0, # of connection points: 4
#     Node 46, Type 0, BuildingBlock: ESEHIV_clean_sbu_0, # of connection points: 4
#     Node 47, Type 0, BuildingBlock: ESEHIV_clean_sbu_0, # of connection points: 4
#     Node 48, Type 0, BuildingBlock: ESEHIV_clean_sbu_0, # of connection points: 4
#     Node 49, Type 0, BuildingBlock: ESEHIV_clean_sbu_0, # of connection points: 4
#     Node 50, Type 0, BuildingBlock: ESEHIV_clean_sbu_0, # of connection points: 4
#     Node 51, Type 0, BuildingBlock: ESEHIV_clean_sbu_0, # of connection points: 4
#     Node 52, Type 0, BuildingBlock: ESEHIV_clean_sbu_0, # of connection points: 4
#     Node 53, Type 0, BuildingBlock: ESEHIV_clean_sbu_0, # of connection points: 4
#     Node 54, Type 0, BuildingBlock: ESEHIV_clean_sbu_0, # of connection points: 4
#     Node 55, Type 0, BuildingBlock: ESEHIV_clean_sbu_0, # of connection points: 4
#     Node 56, Type 0, BuildingBlock: ESEHIV_clean_sbu_0, # of connection points: 4
#     Node 57, Type 0, BuildingBlock: ESEHIV_clean_sbu_0, # of connection points: 4
#     Node 58, Type 0, BuildingBlock: ESEHIV_clean_sbu_0, # of connection points: 4
#     Node 59, Type 0, BuildingBlock: ESEHIV_clean_sbu_0, # of connection points: 4
#     Node 60, Type 0, BuildingBlock: ESEHIV_clean_sbu_0, # of connection points: 4
#     Node 61, Type 0, BuildingBlock: ESEHIV_clean_sbu_0, # of connection points: 4
#     Node 62, Type 0, BuildingBlock: ESEHIV_clean_sbu_0, # of connection points: 4
#     Node 63, Type 0, BuildingBlock: ESEHIV_clean_sbu_0, # of connection points: 4
#     Node 64, Type 0, BuildingBlock: ESEHIV_clean_sbu_0, # of connection points: 4
#     Node 65, Type 0, BuildingBlock: ESEHIV_clean_sbu_0, # of connection points: 4
#     Node 66, Type 0, BuildingBlock: ESEHIV_clean_sbu_0, # of connection points: 4
#     Node 67, Type 0, BuildingBlock: ESEHIV_clean_sbu_0, # of connection points: 4
#     Node 68, Type 0, BuildingBlock: ESEHIV_clean_sbu_0, # of connection points: 4
#     Node 69, Type 0, BuildingBlock: ESEHIV_clean_sbu_0, # of connection points: 4
#     Node 70, Type 0, BuildingBlock: ESEHIV_clean_sbu_0, # of connection points: 4
#     Node 71, Type 0, BuildingBlock: ESEHIV_clean_sbu_0, # of connection points: 4
#     Node 72, Type 0, BuildingBlock: ESEHIV_clean_sbu_0, # of connection points: 4
#     Node 73, Type 0, BuildingBlock: ESEHIV_clean_sbu_0, # of connection points: 4
#     Node 74, Type 0, BuildingBlock: ESEHIV_clean_sbu_0, # of connection points: 4
#     Node 75, Type 0, BuildingBlock: ESEHIV_clean_sbu_0, # of connection points: 4
#     Node 76, Type 0, BuildingBlock: ESEHIV_clean_sbu_0, # of connection points: 4
#     Node 77, Type 0, BuildingBlock: ESEHIV_clean_sbu_0, # of connection points: 4
#     Node 78, Type 0, BuildingBlock: ESEHIV_clean_sbu_0, # of connection points: 4
#     Node 79, Type 0, BuildingBlock: ESEHIV_clean_sbu_0, # of connection points: 4
#     Node 80, Type 0, BuildingBlock: ESEHIV_clean_sbu_0, # of connection points: 4
#     Node 81, Type 0, BuildingBlock: ESEHIV_clean_sbu_0, # of connection points: 4
#     Node 82, Type 0, BuildingBlock: ESEHIV_clean_sbu_0, # of connection points: 4
#     Node 83, Type 0, BuildingBlock: ESEHIV_clean_sbu_0, # of connection points: 4
#     Node 84, Type 0, BuildingBlock: ESEHIV_clean_sbu_0, # of connection points: 4
#     Node 85, Type 0, BuildingBlock: ESEHIV_clean_sbu_0, # of connection points: 4
#     Node 86, Type 0, BuildingBlock: ESEHIV_clean_sbu_0, # of connection points: 4
#     Node 87, Type 0, BuildingBlock: ESEHIV_clean_sbu_0, # of connection points: 4
#     Node 88, Type 0, BuildingBlock: ESEHIV_clean_sbu_0, # of connection points: 4
#     Node 89, Type 0, BuildingBlock: ESEHIV_clean_sbu_0, # of connection points: 4
#     Node 90, Type 0, BuildingBlock: ESEHIV_clean_sbu_0, # of connection points: 4
#     Node 91, Type 0, BuildingBlock: ESEHIV_clean_sbu_0, # of connection points: 4
#     Node 92, Type 0, BuildingBlock: ESEHIV_clean_sbu_0, # of connection points: 4
#     Node 93, Type 0, BuildingBlock: ESEHIV_clean_sbu_0, # of connection points: 4
#     Node 94, Type 0, BuildingBlock: ESEHIV_clean_sbu_0, # of connection points: 4
#     Node 95, Type 0, BuildingBlock: ESEHIV_clean_sbu_0, # of connection points: 4
#     Edge 96, Type (0, 0), None
#     Edge 97, Type (0, 0), None
#     Edge 98, Type (0, 0), None
#     Edge 99, Type (0, 0), None
#     Edge 100, Type (0, 0), None
#     Edge 101, Type (0, 0), None
#     Edge 102, Type (0, 0), None
#     Edge 103, Type (0, 0), None
#     Edge 104, Type (0, 0), None
#     Edge 105, Type (0, 0), None
#     Edge 106, Type (0, 0), None
#     Edge 107, Type (0, 0), None
#     Edge 108, Type (0, 0), None
#     Edge 109, Type (0, 0), None
#     Edge 110, Type (0, 0), None
#     Edge 111, Type (0, 0), None
#     Edge 112, Type (0, 0), None
#     Edge 113, Type (0, 0), None
#     Edge 114, Type (0, 0), None
#     Edge 115, Type (0, 0), None
#     Edge 116, Type (0, 0), None
#     Edge 117, Type (0, 0), None
#     Edge 118, Type (0, 0), None
#     Edge 119, Type (0, 0), None
#     Edge 120, Type (0, 0), None
#     Edge 121, Type (0, 0), None
#     Edge 122, Type (0, 0), None
#     Edge 123, Type (0, 0), None
#     Edge 124, Type (0, 0), None
#     Edge 125, Type (0, 0), None
#     Edge 126, Type (0, 0), None
#     Edge 127, Type (0, 0), None
#     Edge 128, Type (0, 0), None
#     Edge 129, Type (0, 0), None
#     Edge 130, Type (0, 0), None
#     Edge 131, Type (0, 0), None
#     Edge 132, Type (0, 0), None
#     Edge 133, Type (0, 0), None
#     Edge 134, Type (0, 0), None
#     Edge 135, Type (0, 0), None
#     Edge 136, Type (0, 0), None
#     Edge 137, Type (0, 0), None
#     Edge 138, Type (0, 0), None
#     Edge 139, Type (0, 0), None
#     Edge 140, Type (0, 0), None
#     Edge 141, Type (0, 0), None
#     Edge 142, Type (0, 0), None
#     Edge 143, Type (0, 0), None
#     Edge 144, Type (0, 0), None
#     Edge 145, Type (0, 0), None
#     Edge 146, Type (0, 0), None
#     Edge 147, Type (0, 0), None
#     Edge 148, Type (0, 0), None
#     Edge 149, Type (0, 0), None
#     Edge 150, Type (0, 0), None
#     Edge 151, Type (0, 0), None
#     Edge 152, Type (0, 0), None
#     Edge 153, Type (0, 0), None
#     Edge 154, Type (0, 0), None
#     Edge 155, Type (0, 0), None
#     Edge 156, Type (0, 0), None
#     Edge 157, Type (0, 0), None
#     Edge 158, Type (0, 0), None
#     Edge 159, Type (0, 0), None
#     Edge 160, Type (0, 0), None
#     Edge 161, Type (0, 0), None
#     Edge 162, Type (0, 0), None
#     Edge 163, Type (0, 0), None
#     Edge 164, Type (0, 0), None
#     Edge 165, Type (0, 0), None
#     Edge 166, Type (0, 0), None
#     Edge 167, Type (0, 0), None
#     Edge 168, Type (0, 0), None
#     Edge 169, Type (0, 0), None
#     Edge 170, Type (0, 0), None
#     Edge 171, Type (0, 0), None
#     Edge 172, Type (0, 0), None
#     Edge 173, Type (0, 0), None
#     Edge 174, Type (0, 0), None
#     Edge 175, Type (0, 0), None
#     Edge 176, Type (0, 0), None
#     Edge 177, Type (0, 0), None
#     Edge 178, Type (0, 0), None
#     Edge 179, Type (0, 0), None
#     Edge 180, Type (0, 0), None
#     Edge 181, Type (0, 0), None
#     Edge 182, Type (0, 0), None
#     Edge 183, Type (0, 0), None
#     Edge 184, Type (0, 0), None
#     Edge 185, Type (0, 0), None
#     Edge 186, Type (0, 0), None
#     Edge 187, Type (0, 0), None
#     Edge 188, Type (0, 0), None
#     Edge 189, Type (0, 0), None
#     Edge 190, Type (0, 0), None
#     Edge 191, Type (0, 0), None
#     Edge 192, Type (0, 0), None
#     Edge 193, Type (0, 0), None
#     Edge 194, Type (0, 0), None
#     Edge 195, Type (0, 0), None
#     Edge 196, Type (0, 0), None
#     Edge 197, Type (0, 0), None
#     Edge 198, Type (0, 0), None
#     Edge 199, Type (0, 0), None
#     Edge 200, Type (0, 0), None
#     Edge 201, Type (0, 0), None
#     Edge 202, Type (0, 0), None
#     Edge 203, Type (0, 0), None
#     Edge 204, Type (0, 0), None
#     Edge 205, Type (0, 0), None
#     Edge 206, Type (0, 0), None
#     Edge 207, Type (0, 0), None
#     Edge 208, Type (0, 0), None
#     Edge 209, Type (0, 0), None
#     Edge 210, Type (0, 0), None
#     Edge 211, Type (0, 0), None
#     Edge 212, Type (0, 0), None
#     Edge 213, Type (0, 0), None
#     Edge 214, Type (0, 0), None
#     Edge 215, Type (0, 0), None
#     Edge 216, Type (0, 0), None
#     Edge 217, Type (0, 0), None
#     Edge 218, Type (0, 0), None
#     Edge 219, Type (0, 0), None
#     Edge 220, Type (0, 0), None
#     Edge 221, Type (0, 0), None
#     Edge 222, Type (0, 0), None
#     Edge 223, Type (0, 0), None
#     Edge 224, Type (0, 0), None
#     Edge 225, Type (0, 0), None
#     Edge 226, Type (0, 0), None
#     Edge 227, Type (0, 0), None
#     Edge 228, Type (0, 0), None
#     Edge 229, Type (0, 0), None
#     Edge 230, Type (0, 0), None
#     Edge 231, Type (0, 0), None
#     Edge 232, Type (0, 0), None
#     Edge 233, Type (0, 0), None
#     Edge 234, Type (0, 0), None
#     Edge 235, Type (0, 0), None
#     Edge 236, Type (0, 0), None
#     Edge 237, Type (0, 0), None
#     Edge 238, Type (0, 0), None
#     Edge 239, Type (0, 0), None
#     Edge 240, Type (0, 0), None
#     Edge 241, Type (0, 0), None
#     Edge 242, Type (0, 0), None
#     Edge 243, Type (0, 0), None
#     Edge 244, Type (0, 0), None
#     Edge 245, Type (0, 0), None
#     Edge 246, Type (0, 0), None
#     Edge 247, Type (0, 0), None
#     Edge 248, Type (0, 0), None
#     Edge 249, Type (0, 0), None
#     Edge 250, Type (0, 0), None
#     Edge 251, Type (0, 0), None
#     Edge 252, Type (0, 0), None
#     Edge 253, Type (0, 0), None
#     Edge 254, Type (0, 0), None
#     Edge 255, Type (0, 0), None
#     Edge 256, Type (0, 0), None
#     Edge 257, Type (0, 0), None
#     Edge 258, Type (0, 0), None
#     Edge 259, Type (0, 0), None
#     Edge 260, Type (0, 0), None
#     Edge 261, Type (0, 0), None
#     Edge 262, Type (0, 0), None
#     Edge 263, Type (0, 0), None
#     Edge 264, Type (0, 0), None
#     Edge 265, Type (0, 0), None
#     Edge 266, Type (0, 0), None
#     Edge 267, Type (0, 0), None
#     Edge 268, Type (0, 0), None
#     Edge 269, Type (0, 0), None
#     Edge 270, Type (0, 0), None
#     Edge 271, Type (0, 0), None
#     Edge 272, Type (0, 0), None
#     Edge 273, Type (0, 0), None
#     Edge 274, Type (0, 0), None
#     Edge 275, Type (0, 0), None
#     Edge 276, Type (0, 0), None
#     Edge 277, Type (0, 0), None
#     Edge 278, Type (0, 0), None
#     Edge 279, Type (0, 0), None
#     Edge 280, Type (0, 0), None
#     Edge 281, Type (0, 0), None
#     Edge 282, Type (0, 0), None
#     Edge 283, Type (0, 0), None
#     Edge 284, Type (0, 0), None
#     Edge 285, Type (0, 0), None
#     Edge 286, Type (0, 0), None
#     Edge 287, Type (0, 0), None
# Relax obj value: 0.081
# Max RMSD: 0.190
# Mean RMSD: 0.154
data_MOF--net-gie--node1-ESEHIV_clean_sbu_0--edge1-none
_symmetry_space_group_name_H-M    P1
_symmetry_Int_Tables_number       1
_symmetry_cell_setting            triclinic
loop_
_symmetry_equiv_pos_as_xyz
'x, y, z'
_cell_length_a     41.426359
_cell_length_b     47.617593
_cell_length_c     47.618272
_cell_angle_alpha  90.000004
_cell_angle_beta   89.999853
_cell_angle_gamma 89.999799
loop_
_atom_site_label
_atom_site_type_symbol
_atom_site_fract_x
_atom_site_fract_y
_atom_site_fract_z
_atom_type_partial_charge
Cu0 Cu 0.02739 0.16948 0.46205 0.0
N1 N 0.05842 0.18567 0.439 0.0
N2 N 0.08588 0.21819 0.41564 0.0
C3 C 0.05709 0.21104 0.42666 0.0
C4 C 0.10613 0.19678 0.4212 0.0
C5 C 0.08898 0.17659 0.43558 0.0
O6 O 0.05023 0.16029 0.49684 0.0
C7 C 0.96736 0.19644 0.44912 0.0
O8 O 0.96482 0.17637 0.43038 0.0
H9 H 0.03633 0.22481 0.42771 0.0
H10 H 0.09856 0.15742 0.44448 0.0
N11 N 1.01413 0.13561 0.44537 0.0
N12 N 0.98483 0.09829 0.43257 0.0
C13 C 0.98635 0.12132 0.44914 0.0
C14 C 0.03088 0.12072 0.42621 0.0
C15 C 1.01291 0.09767 0.41829 0.0
C16 C 0.0704 0.1763 0.50933 0.0
O17 O 0.07317 0.20267 0.50164 0.0
H18 H 0.96732 0.12809 0.46319 0.0
H19 H 0.05437 0.12646 0.41817 0.0
O20 O 0.99166 0.19671 0.46567 0.0
H21 H 0.13168 0.19643 0.41648 0.0
H22 H 1.01959 0.08212 0.40274 0.0
Cu23 Cu 0.14516 0.77929 0.67742 0.0
N24 N 0.13396 0.80618 0.65073 0.0
N25 N 0.10729 0.84223 0.63183 0.0
C26 C 0.11119 0.82588 0.6547 0.0
C27 C 0.12849 0.83251 0.61263 0.0
C28 C 0.14499 0.81015 0.62441 0.0
O29 O 0.14467 0.79765 0.71397 0.0
C30 C 0.10972 0.73194 0.69555 0.0
O31 O 0.12695 0.73464 0.71858 0.0
H32 H 0.09745 0.82789 0.67395 0.0
H33 H 0.16343 0.79753 0.61444 0.0
N34 N 0.18522 0.76307 0.66953 0.0
N35 N 0.22192 0.72954 0.66198 0.0
C36 C 0.19182 0.73542 0.671 0.0
C37 C 0.21217 0.77517 0.65933 0.0
C38 C 0.23496 0.75445 0.65463 0.0
C39 C 0.1582 0.82151 0.71686 0.0
O40 O 0.17451 0.83212 0.69569 0.0
H41 H 0.17455 0.7198 0.67784 0.0
H42 H 0.21479 0.79735 0.65503 0.0
O43 O 0.11321 0.74964 0.6758 0.0
H44 H 0.13157 0.84072 0.59159 0.0
H45 H 0.25896 0.75743 0.64612 0.0
Cu46 Cu 0.52744 0.89233 0.96204 0.0
N47 N 0.49641 0.87615 0.93899 0.0
N48 N 0.46894 0.84362 0.91564 0.0
C49 C 0.49774 0.85077 0.92665 0.0
C50 C 0.4487 0.86503 0.9212 0.0
C51 C 0.46585 0.88522 0.93557 0.0
O52 O 0.5046 0.90152 0.99683 0.0
C53 C 0.58746 0.86537 0.9491 0.0
O54 O 0.58998 0.88543 0.93034 0.0
H55 H 0.51849 0.837 0.9277 0.0
H56 H 0.45627 0.90439 0.94447 0.0
N57 N 0.5407 0.9262 0.94536 0.0
N58 N 0.57 0.96353 0.93255 0.0
C59 C 0.56848 0.94049 0.94912 0.0
C60 C 0.52394 0.9411 0.92621 0.0
C61 C 0.54191 0.96415 0.91828 0.0
C62 C 0.48443 0.88551 1.00931 0.0
O63 O 0.48165 0.85915 1.00163 0.0
H64 H 0.58751 0.93372 0.96317 0.0
H65 H 0.50045 0.93537 0.91817 0.0
O66 O 0.56317 0.86511 0.96565 0.0
H67 H 0.42314 0.86538 0.91647 0.0
H68 H 0.53522 0.97971 0.90274 0.0
Cu69 Cu 0.40966 0.28252 0.17742 0.0
N70 N 0.42086 0.25563 0.15073 0.0
N71 N 0.44752 0.21959 0.13183 0.0
C72 C 0.44363 0.23593 0.1547 0.0
C73 C 0.42633 0.2293 0.11263 0.0
C74 C 0.40983 0.25166 0.12441 0.0
O75 O 0.41015 0.26416 0.21397 0.0
C76 C 0.4451 0.32987 0.19555 0.0
O77 O 0.42787 0.32717 0.21858 0.0
H78 H 0.45737 0.23392 0.17395 0.0
H79 H 0.39139 0.26428 0.11444 0.0
N80 N 0.3696 0.29874 0.16953 0.0
N81 N 0.33289 0.33227 0.16198 0.0
C82 C 0.363 0.32639 0.171 0.0
C83 C 0.34265 0.28665 0.15933 0.0
C84 C 0.31986 0.30736 0.15463 0.0
C85 C 0.39662 0.2403 0.21686 0.0
O86 O 0.38031 0.22969 0.19569 0.0
H87 H 0.38026 0.34201 0.17784 0.0
H88 H 0.34003 0.26446 0.15502 0.0
O89 O 0.44161 0.31217 0.17579 0.0
H90 H 0.42325 0.2211 0.09159 0.0
H91 H 0.29586 0.30438 0.14612 0.0
Cu92 Cu 0.02739 0.89235 0.09974 0.0
N93 N 0.05841 0.87616 0.12279 0.0
N94 N 0.08588 0.84363 0.14615 0.0
C95 C 0.05708 0.85078 0.13513 0.0
C96 C 0.10613 0.86504 0.14059 0.0
C97 C 0.08898 0.88523 0.12621 0.0
O98 O 0.05023 0.90153 0.06496 0.0
C99 C 0.96736 0.86539 0.11269 0.0
O100 O 0.96485 0.88544 0.13145 0.0
H101 H 0.03633 0.83701 0.13408 0.0
H102 H 0.09856 0.90441 0.11732 0.0
N103 N 1.01413 0.92622 0.11643 0.0
N104 N 0.98483 0.96354 0.12924 0.0
C105 C 0.98635 0.94051 0.11267 0.0
C106 C 0.03089 0.94112 0.13558 0.0
C107 C 1.01291 0.96417 0.1435 0.0
C108 C 0.0704 0.88552 0.05247 0.0
O109 O 0.07317 0.85916 0.06016 0.0
H110 H 0.96731 0.93373 0.09862 0.0
H111 H 0.05438 0.93539 0.1436 0.0
O112 O 0.99166 0.86512 0.09613 0.0
H113 H 0.13168 0.86539 0.14531 0.0
H114 H 1.01961 0.97973 0.15904 0.0
Cu115 Cu 0.40966 0.77929 0.38436 0.0
N116 N 0.42085 0.80618 0.41105 0.0
N117 N 0.44752 0.84223 0.42995 0.0
C118 C 0.44362 0.82588 0.40708 0.0
C119 C 0.42633 0.83251 0.44915 0.0
C120 C 0.40982 0.81015 0.43736 0.0
O121 O 0.41014 0.79766 0.34781 0.0
C122 C 0.44509 0.73194 0.36622 0.0
O123 O 0.42786 0.73465 0.3432 0.0
H124 H 0.45737 0.82789 0.38783 0.0
H125 H 0.39139 0.79753 0.44734 0.0
N126 N 0.3696 0.76307 0.39225 0.0
N127 N 0.33289 0.72954 0.39979 0.0
C128 C 0.363 0.73543 0.39077 0.0
C129 C 0.34264 0.77517 0.40244 0.0
C130 C 0.31985 0.75445 0.40715 0.0
C131 C 0.39662 0.82152 0.34492 0.0
O132 O 0.3803 0.83212 0.36609 0.0
H133 H 0.38026 0.7198 0.38393 0.0
H134 H 0.34003 0.79735 0.40675 0.0
O135 O 0.44161 0.74964 0.38598 0.0
H136 H 0.42324 0.84072 0.47019 0.0
H137 H 0.29585 0.75743 0.41566 0.0
Cu138 Cu 0.52743 0.16947 0.59974 0.0
N139 N 0.49641 0.18566 0.62279 0.0
N140 N 0.46894 0.21818 0.64615 0.0
C141 C 0.49774 0.21103 0.63513 0.0
C142 C 0.44869 0.19677 0.64059 0.0
C143 C 0.46584 0.17658 0.62621 0.0
O144 O 0.50459 0.16028 0.56496 0.0
C145 C 0.58746 0.19642 0.61269 0.0
O146 O 0.58997 0.17637 0.63145 0.0
H147 H 0.51849 0.2248 0.63408 0.0
H148 H 0.45626 0.15741 0.61732 0.0
N149 N 0.54069 0.1356 0.61642 0.0
N150 N 0.56999 0.09828 0.62924 0.0
C151 C 0.56847 0.12131 0.61266 0.0
C152 C 0.52393 0.1207 0.63557 0.0
C153 C 0.5419 0.09765 0.6435 0.0
C154 C 0.48442 0.17629 0.55247 0.0
O155 O 0.48165 0.20266 0.56015 0.0
H156 H 0.58751 0.12809 0.59862 0.0
H157 H 0.50044 0.12643 0.6436 0.0
O158 O 0.56316 0.19669 0.59613 0.0
H159 H 0.42314 0.19643 0.64531 0.0
H160 H 0.53521 0.08209 0.65904 0.0
Cu161 Cu 0.14516 0.28252 0.88435 0.0
N162 N 0.13397 0.25563 0.91105 0.0
N163 N 0.1073 0.21959 0.92994 0.0
C164 C 0.11119 0.23593 0.90708 0.0
C165 C 0.12849 0.2293 0.94915 0.0
C166 C 0.145 0.25166 0.93736 0.0
O167 O 0.14468 0.26416 0.8478 0.0
C168 C 0.10973 0.32987 0.86622 0.0
O169 O 0.12696 0.32717 0.8432 0.0
H170 H 0.09745 0.23392 0.88782 0.0
H171 H 0.16343 0.26428 0.94734 0.0
N172 N 0.18522 0.29874 0.89225 0.0
N173 N 0.22193 0.33227 0.89979 0.0
C174 C 0.19182 0.32639 0.89077 0.0
C175 C 0.21218 0.28664 0.90244 0.0
C176 C 0.23497 0.30736 0.90715 0.0
C177 C 0.15821 0.2403 0.84492 0.0
O178 O 0.17452 0.22969 0.86609 0.0
H179 H 0.17456 0.34201 0.88393 0.0
H180 H 0.21479 0.26446 0.90675 0.0
O181 O 0.11321 0.31217 0.88598 0.0
H182 H 0.13157 0.22109 0.97018 0.0
H183 H 0.25897 0.30438 0.91566 0.0
Cu184 Cu 0.40856 0.03569 0.19268 0.0
N185 N 0.37641 0.05811 0.20875 0.0
N186 N 0.35417 0.09136 0.23565 0.0
C187 C 0.38109 0.08263 0.22222 0.0
C188 C 0.33155 0.07171 0.23026 0.0
C189 C 0.3454 0.05117 0.21367 0.0
O190 O 0.44842 0.05692 0.18949 0.0
C191 C 0.43578 0.9841 0.21305 0.0
O192 O 0.46021 0.98934 0.19626 0.0
H193 H 0.40437 0.09286 0.22377 0.0
H194 H 0.33417 0.03179 0.20698 0.0
N195 N 0.39729 1.02341 0.15698 0.0
N196 N 0.402 0.99717 0.11852 0.0
C197 C 0.41756 1.00903 0.14031 0.0
C198 C 0.3679 1.02093 0.14512 0.0
C199 C 0.37072 1.00457 0.12126 0.0
C200 C 0.44801 0.08005 0.17602 0.0
O201 O 0.42067 0.08893 0.16518 0.0
H202 H 0.44263 1.00543 0.14542 0.0
H203 H 0.34572 1.02874 0.15418 0.0
O204 O 0.41315 1.00208 0.2155 0.0
H205 H 0.3073 0.07152 0.23875 0.0
H206 H 0.35114 0.99733 0.10808 0.0
Cu207 Cu 0.27744 0.21206 0.41945 0.0
N208 N 0.24641 0.18902 0.43564 0.0
N209 N 0.21895 0.16566 0.46817 0.0
C210 C 0.24774 0.17668 0.46101 0.0
C211 C 0.1987 0.17122 0.44675 0.0
C212 C 0.21585 0.1856 0.42656 0.0
O213 O 0.25459 0.24685 0.41026 0.0
C214 C 0.33748 0.19915 0.4464 0.0
O215 O 0.34002 0.18041 0.42633 0.0
H216 H 0.2685 0.17773 0.47478 0.0
H217 H 0.20626 0.19449 0.40739 0.0
N218 N 0.2907 0.19538 0.38558 0.0
N219 N 0.31999 0.18257 0.34825 0.0
C220 C 0.31847 0.19915 0.37128 0.0
C221 C 0.27395 0.17621 0.37069 0.0
C222 C 0.29192 0.16829 0.34764 0.0
C223 C 0.23443 0.25934 0.42627 0.0
O224 O 0.23166 0.25166 0.45264 0.0
H225 H 0.3375 0.21321 0.37805 0.0
H226 H 0.25046 0.16817 0.37644 0.0
O227 O 0.31316 0.21568 0.44668 0.0
H228 H 0.17314 0.1665 0.44641 0.0
H229 H 0.28523 0.15274 0.33209 0.0
Cu230 Cu 0.14626 1.02612 0.69268 0.0
N231 N 0.17841 1.0037 0.70875 0.0
N232 N 0.20065 0.97045 0.73565 0.0
C233 C 0.17373 0.97917 0.72222 0.0
C234 C 0.22327 0.9901 0.73027 0.0
C235 C 0.20942 1.01064 0.71368 0.0
O236 O 0.10641 1.00489 0.68949 0.0
C237 C 0.11905 0.07771 0.71305 0.0
O238 O 0.09461 0.07247 0.69626 0.0
H239 H 0.15045 0.96895 0.72377 0.0
H240 H 0.22065 1.03002 0.70699 0.0
N241 N 0.15753 0.0384 0.65698 0.0
N242 N 0.15283 0.06464 0.61853 0.0
C243 C 0.13727 0.05278 0.64031 0.0
C244 C 0.18692 0.04087 0.64512 0.0
C245 C 0.1841 0.05724 0.62126 0.0
C246 C 0.10681 0.98176 0.67602 0.0
O247 O 0.13415 0.97288 0.66519 0.0
H248 H 0.11219 0.05638 0.64542 0.0
H249 H 0.2091 0.03306 0.65418 0.0
O250 O 0.14167 0.05973 0.7155 0.0
H251 H 0.24752 0.99029 0.73876 0.0
H252 H 0.20368 0.06448 0.60809 0.0
Cu253 Cu 0.27738 0.84975 0.91945 0.0
N254 N 0.30841 0.87279 0.93564 0.0
N255 N 0.33588 0.89615 0.96816 0.0
C256 C 0.30708 0.88513 0.96101 0.0
C257 C 0.35613 0.89059 0.94675 0.0
C258 C 0.33898 0.87621 0.92656 0.0
O259 O 0.30023 0.81496 0.91026 0.0
C260 C 0.21734 0.86266 0.9464 0.0
O261 O 0.2148 0.8814 0.92633 0.0
H262 H 0.28633 0.88408 0.97478 0.0
H263 H 0.34856 0.86732 0.90739 0.0
N264 N 0.26412 0.86643 0.88558 0.0
N265 N 0.23483 0.87924 0.84826 0.0
C266 C 0.23635 0.86266 0.87128 0.0
C267 C 0.28087 0.8856 0.8707 0.0
C268 C 0.2629 0.89352 0.84764 0.0
C269 C 0.32039 0.80247 0.92627 0.0
O270 O 0.32316 0.81016 0.95264 0.0
H271 H 0.21732 0.8486 0.87805 0.0
H272 H 0.30436 0.89364 0.87644 0.0
O273 O 0.24166 0.84613 0.94668 0.0
H274 H 0.38168 0.89531 0.94641 0.0
H275 H 0.26959 0.90907 0.83209 0.0
Cu276 Cu 0.40857 1.02612 0.3691 0.0
N277 N 0.37641 1.00371 0.35303 0.0
N278 N 0.35417 0.97046 0.32613 0.0
C279 C 0.38109 0.97918 0.33956 0.0
C280 C 0.33155 0.9901 0.33151 0.0
C281 C 0.3454 1.01064 0.3481 0.0
O282 O 0.44842 1.00489 0.37229 0.0
C283 C 0.43578 0.07772 0.34872 0.0
O284 O 0.46021 0.07248 0.36551 0.0
H285 H 0.40437 0.96896 0.33801 0.0
H286 H 0.33418 1.03003 0.35479 0.0
N287 N 0.39729 0.0384 0.4048 0.0
N288 N 0.402 0.06464 0.44325 0.0
C289 C 0.41756 0.05278 0.42147 0.0
C290 C 0.36791 0.04088 0.41666 0.0
C291 C 0.37073 0.05724 0.44052 0.0
C292 C 0.44802 0.98177 0.38576 0.0
O293 O 0.42067 0.97289 0.39659 0.0
H294 H 0.44263 0.05638 0.41635 0.0
H295 H 0.34573 0.03307 0.4076 0.0
O296 O 0.41315 0.05974 0.34628 0.0
H297 H 0.3073 0.99029 0.32302 0.0
H298 H 0.35115 0.06448 0.4537 0.0
Cu299 Cu 0.27739 0.21206 0.64234 0.0
N300 N 0.30842 0.18901 0.62615 0.0
N301 N 0.33588 0.16565 0.59362 0.0
C302 C 0.30709 0.17667 0.60077 0.0
C303 C 0.35613 0.17121 0.61503 0.0
C304 C 0.33898 0.18559 0.63522 0.0
O305 O 0.30024 0.24684 0.65152 0.0
C306 C 0.21735 0.19914 0.61538 0.0
O307 O 0.21481 0.1804 0.63545 0.0
H308 H 0.28633 0.17773 0.587 0.0
H309 H 0.34856 0.19448 0.65439 0.0
N310 N 0.26413 0.19538 0.6762 0.0
N311 N 0.23484 0.18257 0.71353 0.0
C312 C 0.23636 0.19915 0.6905 0.0
C313 C 0.28088 0.17621 0.69109 0.0
C314 C 0.26291 0.16829 0.71415 0.0
C315 C 0.3204 0.25933 0.63551 0.0
O316 O 0.32316 0.25165 0.60914 0.0
H317 H 0.21733 0.21321 0.68373 0.0
H318 H 0.30437 0.16817 0.68535 0.0
O319 O 0.24167 0.21568 0.61511 0.0
H320 H 0.38168 0.16649 0.61537 0.0
H321 H 0.2696 0.15274 0.72969 0.0
Cu322 Cu 0.14625 0.03569 0.8691 0.0
N323 N 0.17841 0.05811 0.85302 0.0
N324 N 0.20065 0.09135 0.82613 0.0
C325 C 0.17373 0.08263 0.83956 0.0
C326 C 0.22327 0.07171 0.83151 0.0
C327 C 0.20942 0.05117 0.8481 0.0
O328 O 0.1064 0.05692 0.87229 0.0
C329 C 0.11904 0.98409 0.84872 0.0
O330 O 0.09461 0.98933 0.86551 0.0
H331 H 0.15045 0.09286 0.83801 0.0
H332 H 0.22064 0.03178 0.85479 0.0
N333 N 0.15752 1.02341 0.9048 0.0
N334 N 0.15282 0.99717 0.94325 0.0
C335 C 0.13726 1.00903 0.92147 0.0
C336 C 0.18691 1.02093 0.91666 0.0
C337 C 0.18409 1.00457 0.94052 0.0
C338 C 0.1068 0.08004 0.88576 0.0
O339 O 0.13414 0.08893 0.89659 0.0
H340 H 0.11219 1.00543 0.91635 0.0
H341 H 0.20909 1.02875 0.9076 0.0
O342 O 0.14166 1.00207 0.84628 0.0
H343 H 0.24752 0.07151 0.82302 0.0
H344 H 0.20367 0.99733 0.9537 0.0
Cu345 Cu 0.27743 0.84975 0.14233 0.0
N346 N 0.24641 0.8728 0.12614 0.0
N347 N 0.21894 0.89616 0.09362 0.0
C348 C 0.24774 0.88514 0.10077 0.0
C349 C 0.19869 0.8906 0.11503 0.0
C350 C 0.21584 0.87622 0.13522 0.0
O351 O 0.25459 0.81497 0.15152 0.0
C352 C 0.33748 0.86267 0.11538 0.0
O353 O 0.34002 0.88141 0.13545 0.0
H354 H 0.26849 0.88409 0.087 0.0
H355 H 0.20626 0.86733 0.15439 0.0
N356 N 0.2907 0.86644 0.1762 0.0
N357 N 0.31999 0.87924 0.21353 0.0
C358 C 0.31847 0.86266 0.1905 0.0
C359 C 0.27395 0.88561 0.19109 0.0
C360 C 0.29192 0.89353 0.21414 0.0
C361 C 0.23443 0.80248 0.13551 0.0
O362 O 0.23166 0.81016 0.10914 0.0
H363 H 0.33749 0.8486 0.18373 0.0
H364 H 0.25046 0.89365 0.18534 0.0
O365 O 0.31316 0.84614 0.1151 0.0
H366 H 0.17314 0.89532 0.11537 0.0
H367 H 0.28523 0.90908 0.22969 0.0
Cu368 Cu 0.15966 0.42744 1.02927 0.0
N369 N 0.17086 0.40074 0.05617 0.0
N370 N 0.19752 0.38185 0.09221 0.0
C371 C 0.19363 0.40471 0.07586 0.0
C372 C 0.17633 0.36265 0.08249 0.0
C373 C 0.15983 0.37443 0.06013 0.0
O374 O 0.16015 0.46399 0.04763 0.0
C375 C 0.1951 0.44557 0.98192 0.0
O376 O 0.17788 0.4686 0.98463 0.0
H377 H 0.20737 0.42397 0.07787 0.0
H378 H 0.14139 0.36446 0.04751 0.0
N379 N 0.1196 0.41955 1.01305 0.0
N380 N 0.0829 0.412 0.97952 0.0
C381 C 0.11301 0.42102 0.98541 0.0
C382 C 0.09265 0.40935 1.02515 0.0
C383 C 0.06986 0.40465 1.00443 0.0
C384 C 0.14662 0.46688 0.07149 0.0
O385 O 0.1303 0.44571 0.0821 0.0
H386 H 0.13027 0.42786 0.96978 0.0
H387 H 0.09003 0.40504 0.04733 0.0
O388 O 0.19161 0.42581 0.99963 0.0
H389 H 0.17325 0.34161 0.0907 0.0
H390 H 0.04586 0.39614 1.00741 0.0
Cu391 Cu 0.65966 0.13437 0.0325 0.0
N392 N 0.67086 0.16106 1.00561 0.0
N393 N 0.69753 0.17996 0.96957 0.0
C394 C 0.69363 0.15709 0.98592 0.0
C395 C 0.67633 0.19916 0.97928 0.0
C396 C 0.65983 0.18738 1.00164 0.0
O397 O 0.66014 0.09782 1.01414 0.0
C398 C 0.6951 0.11623 0.07985 0.0
O399 O 0.67787 0.09321 0.07714 0.0
H400 H 0.70737 0.13784 0.98391 0.0
H401 H 0.64139 0.19735 1.01426 0.0
N402 N 0.6196 0.14226 0.04872 0.0
N403 N 0.58289 0.14981 0.08225 0.0
C404 C 0.613 0.14079 0.07637 0.0
C405 C 0.59265 0.15246 0.03663 0.0
C406 C 0.56986 0.15716 0.05734 0.0
C407 C 0.64662 0.09493 0.99028 0.0
O408 O 0.63031 0.1161 0.97967 0.0
H409 H 0.63026 0.13395 0.09199 0.0
H410 H 0.59003 0.15677 1.01444 0.0
O411 O 0.69161 0.13599 0.06215 0.0
H412 H 0.67325 0.2202 0.97108 0.0
H413 H 0.54586 0.16568 0.05436 0.0
Cu414 Cu 0.15857 0.4427 0.2761 0.0
N415 N 0.12641 0.45878 0.25368 0.0
N416 N 0.10417 0.48567 0.22044 0.0
C417 C 0.13109 0.47225 0.22916 0.0
C418 C 0.08155 0.4803 0.24008 0.0
C419 C 0.0954 0.46371 0.26063 0.0
O420 O 0.19842 0.43952 0.25487 0.0
C421 C 0.18578 0.46308 0.32769 0.0
O422 O 0.21021 0.44629 0.32245 0.0
H423 H 0.15437 0.47379 0.21893 0.0
H424 H 0.08418 0.45702 0.28001 0.0
N425 N 0.14729 0.407 0.28838 0.0
N426 N 0.152 0.36855 0.31462 0.0
C427 C 0.16756 0.39033 0.30276 0.0
C428 C 0.11791 0.39515 0.29086 0.0
C429 C 0.12073 0.37129 0.30722 0.0
C430 C 0.19802 0.42604 0.23175 0.0
O431 O 0.17067 0.41521 0.22287 0.0
H432 H 0.19263 0.39545 0.30635 0.0
H433 H 0.09573 0.40421 0.28305 0.0
O434 O 0.16315 0.46552 0.30972 0.0
H435 H 0.0573 0.48879 0.24028 0.0
H436 H 0.10115 0.35811 0.31446 0.0
Cu437 Cu 0.89516 0.92745 0.5325 0.0
N438 N 0.88397 0.90076 0.50561 0.0
N439 N 0.85729 0.88186 0.46957 0.0
C440 C 0.86119 0.90473 0.48592 0.0
C441 C 0.87849 0.86266 0.47928 0.0
C442 C 0.895 0.87445 0.50164 0.0
O443 O 0.89467 0.964 0.51414 0.0
C444 C 0.85972 0.94558 0.57986 0.0
O445 O 0.87695 0.96861 0.57715 0.0
H446 H 0.84745 0.92398 0.48391 0.0
H447 H 0.91343 0.86447 0.51425 0.0
N448 N 0.93522 0.91956 0.54872 0.0
N449 N 0.97193 0.91201 0.58225 0.0
C450 C 0.94182 0.92103 0.57637 0.0
C451 C 0.96218 0.90936 0.53663 0.0
C452 C 0.98496 0.90466 0.55734 0.0
C453 C 0.9082 0.96689 0.49028 0.0
O454 O 0.92451 0.94572 0.47967 0.0
H455 H 0.92456 0.92787 0.59199 0.0
H456 H 0.96479 0.90506 0.51444 0.0
O457 O 0.86321 0.92582 0.56215 0.0
H458 H 0.88158 0.84162 0.47107 0.0
H459 H 1.00896 0.89614 0.55436 0.0
Cu460 Cu 0.89625 0.11912 0.2761 0.0
N461 N 0.92841 0.10305 0.25369 0.0
N462 N 0.95066 0.07615 0.22045 0.0
C463 C 0.92374 0.08958 0.22916 0.0
C464 C 0.97327 0.08152 0.24011 0.0
C465 C 0.95942 0.09811 0.26064 0.0
O466 O 0.8564 0.1223 0.25487 0.0
C467 C 0.86904 0.09877 0.32771 0.0
O468 O 0.84461 0.11556 0.32247 0.0
H469 H 0.90046 0.08805 0.21893 0.0
H470 H 0.97063 0.10479 0.28004 0.0
N471 N 0.90752 0.15483 0.28838 0.0
N472 N 0.90282 0.19328 0.31462 0.0
C473 C 0.88726 0.1715 0.30275 0.0
C474 C 0.93691 0.16668 0.29086 0.0
C475 C 0.93409 0.19054 0.30722 0.0
C476 C 0.8568 0.13578 0.23175 0.0
O477 O 0.88414 0.14662 0.22287 0.0
H478 H 0.86218 0.16639 0.30634 0.0
H479 H 0.95909 0.15762 0.28306 0.0
O480 O 0.89166 0.09631 0.30973 0.0
H481 H 0.99752 0.07302 0.24031 0.0
H482 H 0.95367 0.20371 0.31447 0.0
Cu483 Cu 0.39516 0.63437 0.52927 0.0
N484 N 0.38396 0.66107 0.55616 0.0
N485 N 0.35729 0.67996 0.59221 0.0
C486 C 0.36119 0.6571 0.57586 0.0
C487 C 0.37849 0.69917 0.58249 0.0
C488 C 0.39499 0.68738 0.56013 0.0
O489 O 0.39467 0.59782 0.54763 0.0
C490 C 0.35972 0.61624 0.48192 0.0
O491 O 0.37695 0.59321 0.48463 0.0
H492 H 0.34745 0.63784 0.57787 0.0
H493 H 0.41342 0.69736 0.54751 0.0
N494 N 0.43522 0.64227 0.51305 0.0
N495 N 0.47192 0.64981 0.47952 0.0
C496 C 0.44181 0.64079 0.4854 0.0
C497 C 0.46217 0.65246 0.52514 0.0
C498 C 0.48496 0.65716 0.50443 0.0
C499 C 0.4082 0.59493 0.57149 0.0
O500 O 0.42452 0.6161 0.5821 0.0
H501 H 0.42455 0.63395 0.46978 0.0
H502 H 0.46479 0.65677 0.54733 0.0
O503 O 0.36321 0.636 0.49962 0.0
H504 H 0.38157 0.7202 0.5907 0.0
H505 H 0.50896 0.66567 0.50741 0.0
Cu506 Cu 0.15857 0.61911 0.28567 0.0
N507 N 0.12641 0.60304 0.30809 0.0
N508 N 0.10417 0.57614 0.34134 0.0
C509 C 0.13109 0.58957 0.33262 0.0
C510 C 0.08155 0.58152 0.32169 0.0
C511 C 0.0954 0.59811 0.30115 0.0
O512 O 0.19842 0.6223 0.3069 0.0
C513 C 0.18578 0.59874 0.23408 0.0
O514 O 0.21021 0.61553 0.23932 0.0
H515 H 0.15437 0.58802 0.34284 0.0
H516 H 0.08418 0.6048 0.28176 0.0
N517 N 0.14729 0.65481 0.27339 0.0
N518 N 0.152 0.69327 0.24715 0.0
C519 C 0.16756 0.67148 0.25902 0.0
C520 C 0.11791 0.66667 0.27092 0.0
C521 C 0.12073 0.69053 0.25455 0.0
C522 C 0.19802 0.63577 0.33003 0.0
O523 O 0.17067 0.64661 0.33891 0.0
H524 H 0.19263 0.66637 0.25542 0.0
H525 H 0.09573 0.65761 0.27873 0.0
O526 O 0.16316 0.59629 0.25206 0.0
H527 H 0.0573 0.57303 0.3215 0.0
H528 H 0.10115 0.70371 0.24732 0.0
Cu529 Cu 0.39625 0.4427 0.78567 0.0
N530 N 0.4284 0.45878 0.80809 0.0
N531 N 0.45064 0.48567 0.84134 0.0
C532 C 0.42373 0.47224 0.83262 0.0
C533 C 0.47326 0.4803 0.82169 0.0
C534 C 0.45941 0.46371 0.80115 0.0
O535 O 0.3564 0.43951 0.8069 0.0
C536 C 0.36904 0.46307 0.73408 0.0
O537 O 0.3446 0.44628 0.73932 0.0
H538 H 0.40044 0.47379 0.84284 0.0
H539 H 0.47063 0.45702 0.78176 0.0
N540 N 0.40753 0.407 0.7734 0.0
N541 N 0.40282 0.36855 0.74715 0.0
C542 C 0.38726 0.39033 0.75902 0.0
C543 C 0.43691 0.39515 0.77092 0.0
C544 C 0.4341 0.37129 0.75455 0.0
C545 C 0.3568 0.42604 0.83003 0.0
O546 O 0.38414 0.4152 0.83891 0.0
H547 H 0.36219 0.39544 0.75542 0.0
H548 H 0.45909 0.40421 0.77872 0.0
O549 O 0.39166 0.46552 0.75206 0.0
H550 H 0.49751 0.48879 0.8215 0.0
H551 H 0.45368 0.35811 0.74731 0.0
Cu552 Cu 0.03184 0.89616 0.64884 0.0
N553 N 1.00102 0.88175 0.67354 0.0
N554 N 0.96551 0.85198 0.69241 0.0
C555 C 0.98361 0.85819 0.66967 0.0
C556 C 0.97172 0.87235 0.71133 0.0
C557 C 0.99387 0.89059 0.69969 0.0
O558 O 1.01359 0.89966 0.61136 0.0
C559 C 0.08544 0.8633 0.6289 0.0
O560 O 0.08266 0.87688 0.60499 0.0
H561 H 0.98461 0.84567 0.6507 0.0
H562 H 1.00459 0.90858 0.7099 0.0
N563 N 0.04643 0.93109 0.66144 0.0
N564 N 0.07948 0.9663 0.67289 0.0
C565 C 0.07702 0.94062 0.66102 0.0
C566 C 0.02893 0.95157 0.67366 0.0
C567 C 0.04933 0.97329 0.68096 0.0
C568 C 0.98549 0.91 0.60819 0.0
O569 O 0.96938 0.91837 0.63045 0.0
H570 H 0.0971 0.92877 0.65255 0.0
H571 H 1.00317 0.95066 0.67723 0.0
O572 O 0.06685 0.86933 0.64928 0.0
H573 H 0.96142 0.87372 0.73219 0.0
H574 H 0.04252 0.9927 0.69125 0.0
Cu575 Cu 0.90079 0.25022 0.40999 0.0
N576 N 0.93246 0.27695 0.40298 0.0
N577 N 0.96005 0.31682 0.40598 0.0
C578 C 0.93136 0.30422 0.41019 0.0
C579 C 0.98005 0.29697 0.39586 0.0
C580 C 0.96279 0.27228 0.39383 0.0
O581 O 0.86403 0.26902 0.42837 0.0
C582 C 0.94564 0.22094 0.44668 0.0
O583 O 0.95524 0.24561 0.45574 0.0
H584 H 0.91079 0.31404 0.42018 0.0
H585 H 0.97219 0.25198 0.38776 0.0
N586 N 0.88764 0.23469 0.37592 0.0
N587 N 0.89016 0.21092 0.33571 0.0
C588 C 0.90712 0.22443 0.35574 0.0
C589 C 0.85749 0.22718 0.36844 0.0
C590 C 0.85892 0.21263 0.34349 0.0
C591 C 0.84505 0.28411 0.41348 0.0
O592 O 0.85028 0.28625 0.38637 0.0
H593 H 0.93318 0.22508 0.35683 0.0
H594 H 0.83613 0.23068 0.38103 0.0
O595 O 0.92132 0.2192 0.43029 0.0
H596 H 1.00547 0.29985 0.39148 0.0
H597 H 0.83883 0.2028 0.33283 0.0
Cu598 Cu 0.52298 0.16565 0.14884 0.0
N599 N 0.55379 0.18006 0.17354 0.0
N600 N 0.5893 0.20983 0.19242 0.0
C601 C 0.5712 0.20362 0.16967 0.0
C602 C 0.58309 0.18946 0.21133 0.0
C603 C 0.56095 0.17123 0.19969 0.0
O604 O 0.54123 0.16215 0.11136 0.0
C605 C 0.46938 0.19851 0.1289 0.0
O606 O 0.47216 0.18494 0.10499 0.0
H607 H 0.57021 0.21615 0.1507 0.0
H608 H 0.55022 0.15323 0.2099 0.0
N609 N 0.50839 0.13072 0.16144 0.0
N610 N 0.47534 0.09551 0.17289 0.0
C611 C 0.4778 0.12119 0.16102 0.0
C612 C 0.52589 0.11024 0.17366 0.0
C613 C 0.50549 0.08852 0.18096 0.0
C614 C 0.56933 0.15181 0.10819 0.0
O615 O 0.58544 0.14345 0.13045 0.0
H616 H 0.45772 0.13304 0.15255 0.0
H617 H 0.55165 0.11115 0.17723 0.0
O618 O 0.48796 0.19248 0.14928 0.0
H619 H 0.5934 0.18809 0.23219 0.0
H620 H 0.5123 0.06912 0.19124 0.0
Cu621 Cu 0.65402 0.81158 0.90997 0.0
N622 N 0.62235 0.78484 0.90297 0.0
N623 N 0.59476 0.74498 0.90598 0.0
C624 C 0.62345 0.75757 0.91018 0.0
C625 C 0.57475 0.76482 0.89586 0.0
C626 C 0.59202 0.78951 0.89383 0.0
O627 O 0.69078 0.79278 0.92836 0.0
C628 C 0.60918 0.84087 0.94665 0.0
O629 O 0.59959 0.81621 0.95574 0.0
H630 H 0.64402 0.74775 0.92018 0.0
H631 H 0.58262 0.80981 0.88776 0.0
N632 N 0.66718 0.82708 0.87589 0.0
N633 N 0.66467 0.85082 0.83566 0.0
C634 C 0.6477 0.83732 0.8557 0.0
C635 C 0.69733 0.83461 0.86843 0.0
C636 C 0.6959 0.84914 0.84347 0.0
C637 C 0.70976 0.77769 0.91347 0.0
O638 O 0.70454 0.77554 0.88637 0.0
H639 H 0.62164 0.83669 0.8568 0.0
H640 H 0.71868 0.83114 0.88104 0.0
O641 O 0.63349 0.84261 0.93026 0.0
H642 H 0.54934 0.76195 0.89148 0.0
H643 H 0.71599 0.85902 0.83284 0.0
Cu644 Cu 0.03184 0.16565 0.91293 0.0
N645 N 1.00103 0.18007 0.88822 0.0
N646 N 0.96551 0.20983 0.86935 0.0
C647 C 0.98361 0.20363 0.8921 0.0
C648 C 0.97173 0.18947 0.85044 0.0
C649 C 0.99387 0.17123 0.86208 0.0
O650 O 1.01359 0.16216 0.95041 0.0
C651 C 0.08544 0.19851 0.93287 0.0
O652 O 0.08265 0.18494 0.95678 0.0
H653 H 0.98461 0.21615 0.91107 0.0
H654 H 1.0046 0.15324 0.85187 0.0
N655 N 0.04642 0.13073 0.90033 0.0
N656 N 0.07947 0.09551 0.88888 0.0
C657 C 0.07701 0.12119 0.90076 0.0
C658 C 0.02893 0.11024 0.88811 0.0
C659 C 0.04933 0.08852 0.88081 0.0
C660 C 0.98548 0.15183 0.95358 0.0
O661 O 0.96936 0.14347 0.93132 0.0
H662 H 0.09709 0.13304 0.90922 0.0
H663 H 1.00317 0.11116 0.88454 0.0
O664 O 0.06686 0.19248 0.91249 0.0
H665 H 0.96142 0.1881 0.82958 0.0
H666 H 0.04252 0.06912 0.87053 0.0
Cu667 Cu 0.65401 0.25022 0.65181 0.0
N668 N 0.62234 0.27696 0.65881 0.0
N669 N 0.59476 0.31683 0.65579 0.0
C670 C 0.62345 0.30423 0.65159 0.0
C671 C 0.57475 0.29698 0.66592 0.0
C672 C 0.59201 0.2723 0.66795 0.0
O673 O 0.69078 0.26901 0.63343 0.0
C674 C 0.60918 0.22093 0.61513 0.0
O675 O 0.59959 0.24559 0.60604 0.0
H676 H 0.64402 0.31404 0.6416 0.0
H677 H 0.58261 0.252 0.67403 0.0
N678 N 0.66717 0.23472 0.6859 0.0
N679 N 0.66466 0.21099 0.72613 0.0
C680 C 0.64769 0.22448 0.70609 0.0
C681 C 0.69732 0.22719 0.69336 0.0
C682 C 0.69589 0.21266 0.71832 0.0
C683 C 0.70976 0.2841 0.64831 0.0
O684 O 0.70453 0.28625 0.67541 0.0
H685 H 0.62163 0.22511 0.70499 0.0
H686 H 0.71867 0.23067 0.68076 0.0
O687 O 0.63348 0.21919 0.63153 0.0
H688 H 0.54934 0.29986 0.67029 0.0
H689 H 0.71598 0.20279 0.72896 0.0
Cu690 Cu 0.52298 0.89616 0.41294 0.0
N691 N 0.55379 0.88174 0.38823 0.0
N692 N 0.58931 0.85198 0.36936 0.0
C693 C 0.5712 0.85819 0.39211 0.0
C694 C 0.58309 0.87235 0.35044 0.0
C695 C 0.56095 0.89058 0.36209 0.0
O696 O 0.54123 0.89966 0.45042 0.0
C697 C 0.46938 0.8633 0.43288 0.0
O698 O 0.47216 0.87687 0.45678 0.0
H699 H 0.57021 0.84566 0.41108 0.0
H700 H 0.55022 0.90857 0.35187 0.0
N701 N 0.50839 0.93109 0.40034 0.0
N702 N 0.47535 0.9663 0.38889 0.0
C703 C 0.4778 0.94062 0.40076 0.0
C704 C 0.52589 0.95157 0.38812 0.0
C705 C 0.50549 0.97329 0.38081 0.0
C706 C 0.56933 0.90998 0.45359 0.0
O707 O 0.58545 0.91834 0.43132 0.0
H708 H 0.45772 0.92877 0.40923 0.0
H709 H 0.55165 0.95066 0.38455 0.0
O710 O 0.48796 0.86933 0.41249 0.0
H711 H 0.5934 0.87372 0.32959 0.0
H712 H 0.5123 0.99269 0.37053 0.0
Cu713 Cu 0.9008 0.8116 0.15182 0.0
N714 N 0.93247 0.78486 0.15882 0.0
N715 N 0.96006 0.74499 0.15579 0.0
C716 C 0.93137 0.75759 0.1516 0.0
C717 C 0.98007 0.76484 0.16593 0.0
C718 C 0.96281 0.78952 0.16796 0.0
O719 O 0.86404 0.79281 0.13343 0.0
C720 C 0.94564 0.84089 0.11514 0.0
O721 O 0.95523 0.81623 0.10605 0.0
H722 H 0.9108 0.74777 0.1416 0.0
H723 H 0.97221 0.80982 0.17404 0.0
N724 N 0.88765 0.8271 0.1859 0.0
N725 N 0.89015 0.85084 0.22613 0.0
C726 C 0.90712 0.83734 0.20609 0.0
C727 C 0.8575 0.83463 0.19336 0.0
C728 C 0.85893 0.84917 0.21832 0.0
C729 C 0.84506 0.77772 0.14831 0.0
O730 O 0.85028 0.77557 0.17542 0.0
H731 H 0.93318 0.83671 0.20499 0.0
H732 H 0.83615 0.83116 0.18075 0.0
O733 O 0.92134 0.84263 0.13154 0.0
H734 H 1.00548 0.76196 0.1703 0.0
H735 H 0.83884 0.85904 0.22895 0.0
Cu736 Cu 0.63262 1.02438 0.90603 0.0
N737 N 0.66281 1.00144 0.88825 0.0
N738 N 0.68355 0.97652 0.85284 0.0
C739 C 0.6586 0.99233 0.86176 0.0
C740 C 0.70448 0.97566 0.87456 0.0
C741 C 0.69163 0.99123 0.89644 0.0
O742 O 0.59412 1.0019 0.91247 0.0
C743 C 0.60202 0.05803 0.86335 0.0
O744 O 0.57626 0.04228 0.86668 0.0
H745 H 0.63735 0.99707 0.84938 0.0
H746 H 0.70258 0.99483 0.91672 0.0
N747 N 0.64674 0.03999 0.93996 0.0
N748 N 0.65019 0.07084 0.97522 0.0
C749 C 0.63813 0.06557 0.94942 0.0
C750 C 0.66483 1.02864 0.96056 0.0
C751 C 0.66708 0.0477 0.98237 0.0
C752 C 0.5955 0.98125 0.92948 0.0
O753 O 0.62251 0.9764 0.9431 0.0
H754 H 0.62308 0.07994 0.93761 0.0
H755 H 0.67525 1.00784 0.96001 0.0
O756 O 0.62627 0.05457 0.87933 0.0
H757 H 0.72724 0.96448 0.8747 0.0
H758 H 0.68004 0.04476 1.00191 0.0
Cu759 Cu 0.77299 0.89886 0.64614 0.0
N760 N 0.8038 0.92357 0.63173 0.0
N761 N 0.83931 0.94244 0.60196 0.0
C762 C 0.82121 0.9197 0.60817 0.0
C763 C 0.8331 0.96136 0.62233 0.0
C764 C 0.81095 0.94972 0.64057 0.0
O765 O 0.79124 0.86138 0.64964 0.0
C766 C 0.71937 0.87893 0.61329 0.0
O767 O 0.72214 0.85503 0.62688 0.0
H768 H 0.82021 0.90073 0.59565 0.0
H769 H 0.80022 0.95993 0.65856 0.0
N770 N 0.7584 0.91146 0.68107 0.0
N771 N 0.72535 0.92291 0.71628 0.0
C772 C 0.72781 0.91104 0.6906 0.0
C773 C 0.77589 0.92368 0.70155 0.0
C774 C 0.7555 0.93098 0.72327 0.0
C775 C 0.81934 0.85821 0.65997 0.0
O776 O 0.83546 0.88048 0.66833 0.0
H777 H 0.70773 0.90258 0.67875 0.0
H778 H 0.80166 0.92724 0.70064 0.0
O779 O 0.73797 0.89931 0.61931 0.0
H780 H 0.8434 0.98222 0.6237 0.0
H781 H 0.76231 0.94126 0.74268 0.0
Cu782 Cu 0.9222 0.03745 0.40604 0.0
N783 N 0.89202 0.0604 0.38827 0.0
N784 N 0.8713 0.08535 0.35286 0.0
C785 C 0.89623 0.06952 0.36178 0.0
C786 C 0.85036 0.08621 0.37458 0.0
C787 C 0.8632 0.07063 0.39646 0.0
O788 O 0.9607 0.05992 0.41248 0.0
C789 C 0.95279 1.0038 0.36336 0.0
O790 O 0.97856 1.01953 0.3667 0.0
H791 H 0.91747 0.06476 0.34938 0.0
H792 H 0.85225 0.06703 0.41674 0.0
N793 N 0.90808 1.02184 0.43997 0.0
N794 N 0.90462 0.99098 0.47523 0.0
C795 C 0.91668 0.99626 0.44942 0.0
C796 C 0.88998 0.03319 0.46057 0.0
C797 C 0.88773 1.01412 0.48238 0.0
C798 C 0.95933 0.08057 0.4295 0.0
O799 O 0.93232 0.08541 0.44313 0.0
H800 H 0.93173 0.98188 0.43761 0.0
H801 H 0.87956 0.05399 0.46002 0.0
O802 O 0.92853 1.00726 0.37934 0.0
H803 H 0.82761 0.0974 0.37473 0.0
H804 H 0.87477 1.01706 0.50191 0.0
Cu805 Cu 0.78183 0.16295 0.14614 0.0
N806 N 0.75102 0.13824 0.13173 0.0
N807 N 0.71551 0.11937 0.10196 0.0
C808 C 0.73361 0.14212 0.10817 0.0
C809 C 0.72173 0.10045 0.12233 0.0
C810 C 0.74387 0.1121 0.14056 0.0
O811 O 0.76358 0.20043 0.14964 0.0
C812 C 0.83544 0.18289 0.11329 0.0
O813 O 0.83268 0.20679 0.12688 0.0
H814 H 0.7346 0.16109 0.09565 0.0
H815 H 0.7546 0.10188 0.15855 0.0
N816 N 0.79642 0.15035 0.18107 0.0
N817 N 0.82947 0.1389 0.21628 0.0
C818 C 0.82701 0.15077 0.1906 0.0
C819 C 0.77893 0.13812 0.20155 0.0
C820 C 0.79933 0.13082 0.22327 0.0
C821 C 0.73548 0.2036 0.15997 0.0
O822 O 0.71937 0.18134 0.16833 0.0
H823 H 0.84709 0.15925 0.17875 0.0
H824 H 0.75317 0.13455 0.20063 0.0
O825 O 0.81685 0.16251 0.11931 0.0
H826 H 0.71142 0.0796 0.1237 0.0
H827 H 0.79252 0.12054 0.24267 0.0
Cu828 Cu 0.63261 0.03743 0.65576 0.0
N829 N 0.6628 0.06036 0.67353 0.0
N830 N 0.68354 0.08528 0.70895 0.0
C831 C 0.65859 0.06947 0.70002 0.0
C832 C 0.70447 0.08614 0.68723 0.0
C833 C 0.69162 0.07057 0.66535 0.0
O834 O 0.59411 0.0599 0.64932 0.0
C835 C 0.60202 1.00377 0.69844 0.0
O836 O 0.57626 1.01952 0.6951 0.0
H837 H 0.63734 0.06473 0.71241 0.0
H838 H 0.70257 0.06697 0.64507 0.0
N839 N 0.64673 1.02181 0.62182 0.0
N840 N 0.65018 0.99097 0.58655 0.0
C841 C 0.63812 0.99624 0.61236 0.0
C842 C 0.66482 0.03317 0.60123 0.0
C843 C 0.66707 1.01411 0.57941 0.0
C844 C 0.59549 0.08055 0.63231 0.0
O845 O 0.6225 0.0854 0.61869 0.0
H846 H 0.62307 0.98186 0.62417 0.0
H847 H 0.67525 0.05397 0.60178 0.0
O848 O 0.62627 1.00723 0.68245 0.0
H849 H 0.72724 0.09732 0.68708 0.0
H850 H 0.68003 1.01705 0.55988 0.0
Cu851 Cu 0.78183 0.89887 0.41564 0.0
N852 N 0.75102 0.92357 0.43005 0.0
N853 N 0.7155 0.94244 0.45982 0.0
C854 C 0.73361 0.9197 0.45361 0.0
C855 C 0.72171 0.96136 0.43945 0.0
C856 C 0.74386 0.94971 0.42121 0.0
O857 O 0.76358 0.86139 0.41214 0.0
C858 C 0.83544 0.87893 0.44849 0.0
O859 O 0.83266 0.85502 0.43492 0.0
H860 H 0.73461 0.90073 0.46614 0.0
H861 H 0.75458 0.95993 0.40322 0.0
N862 N 0.79642 0.91147 0.38071 0.0
N863 N 0.82947 0.92293 0.3455 0.0
C864 C 0.82701 0.91106 0.37118 0.0
C865 C 0.77892 0.92368 0.36023 0.0
C866 C 0.79932 0.93099 0.33851 0.0
C867 C 0.73548 0.85821 0.40181 0.0
O868 O 0.71936 0.88048 0.39345 0.0
H869 H 0.84709 0.90259 0.38304 0.0
H870 H 0.75316 0.92724 0.36114 0.0
O871 O 0.81685 0.89931 0.44247 0.0
H872 H 0.7114 0.98221 0.43808 0.0
H873 H 0.79251 0.94127 0.3191 0.0
Cu874 Cu 0.92221 1.0244 0.15576 0.0
N875 N 0.89202 1.00147 0.17354 0.0
N876 N 0.87128 0.97656 0.20896 0.0
C877 C 0.89623 0.99236 0.20003 0.0
C878 C 0.85034 0.9757 0.18724 0.0
C879 C 0.86319 0.99127 0.16536 0.0
O880 O 0.96071 1.00192 0.14932 0.0
C881 C 0.9528 0.05802 0.19846 0.0
O882 O 0.97853 0.04222 0.19517 0.0
H883 H 0.91748 0.9971 0.21242 0.0
H884 H 0.85224 0.99487 0.14508 0.0
N885 N 0.9081 0.04001 0.12182 0.0
N886 N 0.90465 0.07085 0.08655 0.0
C887 C 0.91671 0.06558 0.11236 0.0
C888 C 0.89 1.02865 0.10123 0.0
C889 C 0.88775 0.04771 0.07941 0.0
C890 C 0.95933 0.98126 0.13231 0.0
O891 O 0.93232 0.97642 0.11869 0.0
H892 H 0.93176 0.07996 0.12416 0.0
H893 H 0.87957 1.00785 0.10178 0.0
O894 O 0.92857 0.0546 0.18244 0.0
H895 H 0.82758 0.96453 0.1871 0.0
H896 H 0.87479 0.04476 0.05988 0.0
Cu897 Cu 0.77298 0.16295 0.91563 0.0
N898 N 0.8038 0.13825 0.93005 0.0
N899 N 0.83931 0.11937 0.95981 0.0
C900 C 0.82121 0.14212 0.95361 0.0
C901 C 0.8331 0.10046 0.93945 0.0
C902 C 0.81096 0.1121 0.92121 0.0
O903 O 0.79124 0.20043 0.91214 0.0
C904 C 0.71938 0.18289 0.94849 0.0
O905 O 0.72217 0.2068 0.93492 0.0
H906 H 0.82021 0.16109 0.96613 0.0
H907 H 0.80023 0.10189 0.90322 0.0
N908 N 0.7584 0.15035 0.88071 0.0
N909 N 0.72535 0.1389 0.8455 0.0
C910 C 0.72781 0.15077 0.87118 0.0
C911 C 0.77589 0.13814 0.86023 0.0
C912 C 0.7555 0.13083 0.83851 0.0
C913 C 0.81934 0.2036 0.90181 0.0
O914 O 0.83546 0.18134 0.89345 0.0
H915 H 0.70772 0.15923 0.88304 0.0
H916 H 0.80165 0.13457 0.86114 0.0
O917 O 0.73797 0.16251 0.94247 0.0
H918 H 0.84341 0.07961 0.93807 0.0
H919 H 0.7623 0.12055 0.8191 0.0
Cu920 Cu 0.90402 0.65997 1.00021 0.0
N921 N 0.87235 0.65297 1.02694 0.0
N922 N 0.84477 0.656 0.06681 0.0
C923 C 0.87345 0.66019 0.05421 0.0
C924 C 0.82476 0.64586 0.04697 0.0
C925 C 0.84202 0.64383 1.02228 0.0
O926 O 0.94078 0.67835 1.01899 0.0
C927 C 0.85918 0.69664 0.97091 0.0
O928 O 0.84961 0.70574 0.99557 0.0
H929 H 0.89402 0.67019 0.06403 0.0
H930 H 0.83262 0.63775 1.00198 0.0
N931 N 0.91718 0.62588 0.98471 0.0
N932 N 0.91467 0.58565 0.96097 0.0
C933 C 0.8977 0.60569 0.97446 0.0
C934 C 0.94733 0.61842 0.97718 0.0
C935 C 0.94589 0.59346 0.96264 0.0
C936 C 0.95977 0.66347 0.03409 0.0
O937 O 0.95454 0.63637 0.03624 0.0
H938 H 0.87164 0.6068 0.97509 0.0
H939 H 0.96867 0.63102 0.98066 0.0
O940 O 0.88349 0.68025 0.96918 0.0
H941 H 0.79934 0.64149 0.04985 0.0
H942 H 0.96598 0.58282 0.95277 0.0
Cu943 Cu 0.40403 0.90179 0.06158 0.0
N944 N 0.37234 0.90879 0.03486 0.0
N945 N 0.34473 0.90575 0.99501 0.0
C946 C 0.37342 0.90154 1.00759 0.0
C947 C 0.32475 0.91595 1.01484 0.0
C948 C 0.34203 0.91798 0.03952 0.0
O949 O 0.44079 0.88342 0.04278 0.0
C950 C 0.35918 0.86511 0.09087 0.0
O951 O 0.34957 0.85605 0.06621 0.0
H952 H 0.39398 0.89155 0.99777 0.0
H953 H 0.33265 0.9241 0.05982 0.0
N954 N 0.41717 0.93587 0.0771 0.0
N955 N 0.41466 0.97608 0.10088 0.0
C956 C 0.39769 0.95605 0.08737 0.0
C957 C 0.44733 0.94335 0.08461 0.0
C958 C 0.44589 0.9683 0.09916 0.0
C959 C 0.45976 0.89831 1.02768 0.0
O960 O 0.45452 0.92542 1.02554 0.0
H961 H 0.37163 0.95495 0.08673 0.0
H962 H 0.46868 0.93077 0.0811 0.0
O963 O 0.38351 0.88149 0.09261 0.0
H964 H 0.29935 0.92039 1.01196 0.0
H965 H 0.46598 0.97897 0.10899 0.0
Cu966 Cu 0.88261 0.65604 0.7874 0.0
N967 N 0.9128 0.63827 0.81033 0.0
N968 N 0.93354 0.60285 0.83525 0.0
C969 C 0.9086 0.61178 0.81944 0.0
C970 C 0.95448 0.62457 0.83611 0.0
C971 C 0.94163 0.64645 0.82054 0.0
O972 O 0.84412 0.66248 0.80988 0.0
C973 C 0.85203 0.61334 0.75377 0.0
O974 O 0.82628 0.61666 0.76955 0.0
H975 H 0.88735 0.59939 0.8147 0.0
H976 H 0.95258 0.66673 0.81695 0.0
N977 N 0.89673 0.68998 0.77179 0.0
N978 N 0.90018 0.72525 0.74094 0.0
C979 C 0.88812 0.69944 0.74621 0.0
C980 C 0.91483 0.71058 0.78315 0.0
C981 C 0.91708 0.73239 0.76408 0.0
C982 C 0.8455 0.67949 0.83054 0.0
O983 O 0.87251 0.6931 0.83539 0.0
H984 H 0.87307 0.68763 0.73184 0.0
H985 H 0.92525 0.71002 0.80395 0.0
O986 O 0.87627 0.62935 0.75721 0.0
H987 H 0.97724 0.62472 0.84729 0.0
H988 H 0.93004 0.75192 0.76703 0.0
Cu989 Cu 0.1508 0.16002 0.56159 0.0
N990 N 0.18248 0.15302 0.53486 0.0
N991 N 0.2101 0.15607 0.49502 0.0
C992 C 0.1814 0.16027 0.5076 0.0
C993 C 0.23008 0.14586 0.51485 0.0
C994 C 0.2128 0.14384 0.53953 0.0
O995 O 0.11404 0.17839 0.54279 0.0
C996 C 0.19564 0.1967 0.59088 0.0
O997 O 0.20525 0.20576 0.56621 0.0
H998 H 0.16084 0.17027 0.49777 0.0
H999 H 0.22218 0.13771 0.55982 0.0
N1000 N 0.13765 0.12594 0.57711 0.0
N1001 N 0.14017 0.08573 0.60089 0.0
C1002 C 0.15714 0.10576 0.58738 0.0
C1003 C 0.1075 0.11846 0.58461 0.0
C1004 C 0.10894 0.09351 0.59916 0.0
C1005 C 0.09507 0.1635 0.52769 0.0
O1006 O 0.10031 0.1364 0.52554 0.0
H1007 H 0.1832 0.10686 0.58673 0.0
H1008 H 0.08615 0.13104 0.5811 0.0
O1009 O 0.17132 0.18032 0.59261 0.0
H1010 H 0.25548 0.14142 0.51196 0.0
H1011 H 0.08884 0.08284 0.60899 0.0
Cu1012 Cu 0.1722 0.90576 0.78741 0.0
N1013 N 0.14202 0.92354 0.81035 0.0
N1014 N 0.1213 0.95894 0.8353 0.0
C1015 C 0.14623 0.95003 0.81947 0.0
C1016 C 0.10036 0.93722 0.83615 0.0
C1017 C 0.1132 0.91535 0.82057 0.0
O1018 O 0.2107 0.89932 0.80988 0.0
C1019 C 0.20279 0.94846 0.75378 0.0
O1020 O 0.22853 0.94516 0.76957 0.0
H1021 H 0.16748 0.96242 0.81473 0.0
H1022 H 0.10225 0.89507 0.81696 0.0
N1023 N 0.15808 0.87183 0.7718 0.0
N1024 N 0.15462 0.83657 0.74095 0.0
C1025 C 0.16669 0.86237 0.74622 0.0
C1026 C 0.13998 0.85124 0.78315 0.0
C1027 C 0.13773 0.82942 0.76409 0.0
C1028 C 0.20933 0.8823 0.83053 0.0
O1029 O 0.18233 0.86867 0.83537 0.0
H1030 H 0.18174 0.87418 0.73185 0.0
H1031 H 0.12956 0.85178 0.80395 0.0
O1032 O 0.17855 0.93245 0.75721 0.0
H1033 H 0.0776 0.93708 0.84734 0.0
H1034 H 0.12477 0.80989 0.76703 0.0
Cu1035 Cu 0.6508 0.40184 0.5002 0.0
N1036 N 0.68247 0.40884 0.52693 0.0
N1037 N 0.71005 0.40581 0.5668 0.0
C1038 C 0.68137 0.40162 0.5542 0.0
C1039 C 0.73006 0.41595 0.54695 0.0
C1040 C 0.7128 0.41798 0.52227 0.0
O1041 O 0.61404 0.38346 0.51899 0.0
C1042 C 0.69564 0.36516 0.4709 0.0
O1043 O 0.70521 0.35607 0.49556 0.0
H1044 H 0.6608 0.39162 0.56402 0.0
H1045 H 0.7222 0.42406 0.50197 0.0
N1046 N 0.63764 0.43592 0.4847 0.0
N1047 N 0.64015 0.47616 0.46096 0.0
C1048 C 0.65712 0.45612 0.47446 0.0
C1049 C 0.60749 0.44338 0.47717 0.0
C1050 C 0.60893 0.46834 0.46263 0.0
C1051 C 0.59505 0.39834 0.53408 0.0
O1052 O 0.60028 0.42545 0.53623 0.0
H1053 H 0.68318 0.45502 0.47509 0.0
H1054 H 0.58615 0.43078 0.48064 0.0
O1055 O 0.67133 0.38156 0.46917 0.0
H1056 H 0.75548 0.42032 0.54983 0.0
H1057 H 0.58884 0.47898 0.45276 0.0
Cu1058 Cu 0.88262 0.40576 0.77435 0.0
N1059 N 0.91281 0.42353 0.7514 0.0
N1060 N 0.93353 0.45894 0.72646 0.0
C1061 C 0.9086 0.45002 0.7423 0.0
C1062 C 0.95445 0.43721 0.72558 0.0
C1063 C 0.94161 0.41533 0.74116 0.0
O1064 O 0.84412 0.39932 0.75188 0.0
C1065 C 0.85203 0.44845 0.808 0.0
O1066 O 0.82626 0.4451 0.79226 0.0
H1067 H 0.88737 0.46242 0.74706 0.0
H1068 H 0.95255 0.39504 0.74474 0.0
N1069 N 0.89674 0.37183 0.78996 0.0
N1070 N 0.90018 0.33656 0.82082 0.0
C1071 C 0.88813 0.36237 0.81554 0.0
C1072 C 0.91483 0.35123 0.77861 0.0
C1073 C 0.91708 0.32941 0.79768 0.0
C1074 C 0.84549 0.3823 0.73123 0.0
O1075 O 0.8725 0.36867 0.72639 0.0
H1076 H 0.87308 0.37418 0.82992 0.0
H1077 H 0.92526 0.35177 0.75781 0.0
O1078 O 0.87629 0.43246 0.80454 0.0
H1079 H 0.9772 0.43705 0.71437 0.0
H1080 H 0.93004 0.30988 0.79474 0.0
Cu1081 Cu 0.6722 0.65606 0.27435 0.0
N1082 N 0.64201 0.63829 0.25141 0.0
N1083 N 0.62128 0.60288 0.22647 0.0
C1084 C 0.64621 0.61179 0.24231 0.0
C1085 C 0.60037 0.62462 0.22557 0.0
C1086 C 0.61322 0.64649 0.24116 0.0
O1087 O 0.7107 0.6625 0.25188 0.0
C1088 C 0.70279 0.61338 0.30801 0.0
O1089 O 0.72857 0.61673 0.29227 0.0
H1090 H 0.66744 0.59939 0.24708 0.0
H1091 H 0.60228 0.66678 0.24473 0.0
N1092 N 0.65808 0.68999 0.28997 0.0
N1093 N 0.65464 0.72525 0.32082 0.0
C1094 C 0.66669 0.69945 0.31555 0.0
C1095 C 0.63999 0.71059 0.27862 0.0
C1096 C 0.63774 0.73241 0.29768 0.0
C1097 C 0.70933 0.67952 0.23123 0.0
O1098 O 0.68232 0.69315 0.2264 0.0
H1099 H 0.68174 0.68764 0.32992 0.0
H1100 H 0.62956 0.71005 0.25782 0.0
O1101 O 0.67854 0.62936 0.30454 0.0
H1102 H 0.57763 0.62478 0.21436 0.0
H1103 H 0.62478 0.75194 0.29474 0.0
Cu1104 Cu 0.52738 0.66946 0.96206 0.0
N1105 N 0.55841 0.68564 0.93902 0.0
N1106 N 0.58591 0.71817 0.9157 0.0
C1107 C 0.55711 0.71103 0.92671 0.0
C1108 C 0.60614 0.69673 0.92121 0.0
C1109 C 0.58897 0.67654 0.93558 0.0
O1110 O 0.55021 0.66027 0.99684 0.0
C1111 C 0.46734 0.69641 0.94914 0.0
O1112 O 0.46479 0.67633 0.9304 0.0
H1113 H 0.53636 0.72481 0.92775 0.0
H1114 H 0.59852 0.65735 0.94443 0.0
N1115 N 0.51412 0.63559 0.94537 0.0
N1116 N 0.48482 0.59826 0.93256 0.0
C1117 C 0.48635 0.62129 0.94915 0.0
C1118 C 0.53086 0.62071 0.92619 0.0
C1119 C 0.51289 0.59766 0.91827 0.0
C1120 C 0.57038 0.67628 1.00933 0.0
O1121 O 0.57315 0.70264 1.00164 0.0
H1122 H 0.46733 0.62805 0.96321 0.0
H1123 H 0.55434 0.62646 0.91814 0.0
O1124 O 0.49166 0.69669 0.96567 0.0
H1125 H 0.63167 0.69635 0.91644 0.0
H1126 H 0.51957 0.58211 0.90271 0.0
Cu1127 Cu 0.64516 0.27929 0.17742 0.0
N1128 N 0.63396 0.30618 0.15073 0.0
N1129 N 0.60729 0.34223 0.13183 0.0
C1130 C 0.61119 0.32588 0.1547 0.0
C1131 C 0.62849 0.33251 0.11263 0.0
C1132 C 0.64499 0.31015 0.12442 0.0
O1133 O 0.64467 0.29765 0.21397 0.0
C1134 C 0.60972 0.23194 0.19555 0.0
O1135 O 0.62695 0.23464 0.21858 0.0
H1136 H 0.59745 0.32789 0.17395 0.0
H1137 H 0.66343 0.29753 0.11444 0.0
N1138 N 0.68521 0.26307 0.16953 0.0
N1139 N 0.72191 0.22954 0.16197 0.0
C1140 C 0.69181 0.23542 0.17099 0.0
C1141 C 0.71217 0.27516 0.15934 0.0
C1142 C 0.73496 0.25445 0.15463 0.0
C1143 C 0.6582 0.32151 0.21686 0.0
O1144 O 0.67452 0.33211 0.19569 0.0
H1145 H 0.67454 0.21979 0.17782 0.0
H1146 H 0.71479 0.29735 0.15505 0.0
O1147 O 0.6132 0.24964 0.1758 0.0
H1148 H 0.63158 0.34072 0.09159 0.0
H1149 H 0.75896 0.25743 0.14613 0.0
Cu1150 Cu 0.02743 0.39235 0.46204 0.0
N1151 N 0.9964 0.37616 0.43901 0.0
N1152 N 0.9689 0.34363 0.4157 0.0
C1153 C 0.99771 0.35077 0.4267 0.0
C1154 C 0.94868 0.36507 0.4212 0.0
C1155 C 0.96585 0.38526 0.43556 0.0
O1156 O 1.0046 0.40154 0.49683 0.0
C1157 C 0.08748 0.3654 0.44913 0.0
O1158 O 0.09003 0.38548 0.4304 0.0
H1159 H 1.01845 0.33699 0.42775 0.0
H1160 H 0.95629 0.40446 0.44442 0.0
N1161 N 0.04069 0.42621 0.44535 0.0
N1162 N 0.06999 0.46354 0.43255 0.0
C1163 C 0.06846 0.44052 0.44914 0.0
C1164 C 1.02396 0.44109 0.42617 0.0
C1165 C 0.04193 0.46415 0.41825 0.0
C1166 C 0.98443 0.38553 0.50932 0.0
O1167 O 0.98166 0.35916 0.50163 0.0
H1168 H 0.08748 0.43376 0.46321 0.0
H1169 H 1.00048 0.43534 0.41811 0.0
O1170 O 0.06316 0.36512 0.46566 0.0
H1171 H 0.92314 0.36545 0.41643 0.0
H1172 H 0.03525 0.47969 0.40269 0.0
Cu1173 Cu 0.90966 0.78252 0.67742 0.0
N1174 N 0.92086 0.75563 0.65072 0.0
N1175 N 0.94752 0.71958 0.63183 0.0
C1176 C 0.94363 0.73594 0.65469 0.0
C1177 C 0.92633 0.7293 0.61263 0.0
C1178 C 0.90982 0.75166 0.62441 0.0
O1179 O 0.91014 0.76416 0.71397 0.0
C1180 C 0.9451 0.82987 0.69555 0.0
O1181 O 0.92787 0.82717 0.71857 0.0
H1182 H 0.95737 0.73393 0.67395 0.0
H1183 H 0.89139 0.76427 0.61444 0.0
N1184 N 0.86961 0.79874 0.66952 0.0
N1185 N 0.83291 0.83228 0.66196 0.0
C1186 C 0.86301 0.82639 0.67098 0.0
C1187 C 0.84264 0.78665 0.65934 0.0
C1188 C 0.81986 0.80736 0.65463 0.0
C1189 C 0.89661 0.7403 0.71686 0.0
O1190 O 0.8803 0.72969 0.69568 0.0
H1191 H 0.88028 0.84202 0.67782 0.0
H1192 H 0.84002 0.76446 0.65504 0.0
O1193 O 0.94162 0.81217 0.67579 0.0
H1194 H 0.92324 0.72109 0.59159 0.0
H1195 H 0.79585 0.80439 0.64613 0.0
Cu1196 Cu 0.52738 0.39235 0.59971 0.0
N1197 N 0.55842 0.37616 0.62275 0.0
N1198 N 0.58592 0.34363 0.64606 0.0
C1199 C 0.55711 0.35077 0.63506 0.0
C1200 C 0.60614 0.36507 0.64056 0.0
C1201 C 0.58897 0.38526 0.62619 0.0
O1202 O 0.55021 0.40154 0.56493 0.0
C1203 C 0.46734 0.3654 0.61264 0.0
O1204 O 0.46479 0.38547 0.63137 0.0
H1205 H 0.53636 0.337 0.63402 0.0
H1206 H 0.59853 0.40445 0.61733 0.0
N1207 N 0.51412 0.42622 0.61641 0.0
N1208 N 0.48483 0.46354 0.62921 0.0
C1209 C 0.48635 0.44052 0.61263 0.0
C1210 C 0.53086 0.44109 0.63559 0.0
C1211 C 0.51289 0.46415 0.64351 0.0
C1212 C 0.57038 0.38554 0.55244 0.0
O1213 O 0.57317 0.35917 0.56013 0.0
H1214 H 0.46733 0.43376 0.59856 0.0
H1215 H 0.55434 0.43534 0.64364 0.0
O1216 O 0.49166 0.36512 0.59611 0.0
H1217 H 0.63168 0.36545 0.64533 0.0
H1218 H 0.51957 0.47969 0.65907 0.0
Cu1219 Cu 0.90966 0.27929 0.88435 0.0
N1220 N 0.92085 0.30619 0.91104 0.0
N1221 N 0.94752 0.34223 0.92994 0.0
C1222 C 0.94363 0.32588 0.90707 0.0
C1223 C 0.92632 0.33252 0.94914 0.0
C1224 C 0.90982 0.31016 0.93735 0.0
O1225 O 0.91014 0.29765 0.8478 0.0
C1226 C 0.9451 0.23194 0.86622 0.0
O1227 O 0.92787 0.23465 0.84319 0.0
H1228 H 0.95738 0.32788 0.88782 0.0
H1229 H 0.89138 0.29755 0.94732 0.0
N1230 N 0.8696 0.26307 0.89225 0.0
N1231 N 0.8329 0.22954 0.89981 0.0
C1232 C 0.86301 0.23542 0.89079 0.0
C1233 C 0.84264 0.27517 0.90243 0.0
C1234 C 0.81986 0.25445 0.90714 0.0
C1235 C 0.89662 0.32151 0.84491 0.0
O1236 O 0.88031 0.33213 0.86608 0.0
H1237 H 0.88028 0.2198 0.88396 0.0
H1238 H 0.84002 0.29736 0.90672 0.0
O1239 O 0.94161 0.24965 0.88598 0.0
H1240 H 0.92323 0.34073 0.97017 0.0
H1241 H 0.79585 0.25743 0.91564 0.0
Cu1242 Cu 0.02744 0.66947 0.09972 0.0
N1243 N 0.9964 0.68566 0.12275 0.0
N1244 N 0.9689 0.71819 0.14607 0.0
C1245 C 0.99771 0.71105 0.13507 0.0
C1246 C 0.94868 0.69675 0.14057 0.0
C1247 C 0.96585 0.67656 0.1262 0.0
O1248 O 1.00461 0.66027 0.06493 0.0
C1249 C 0.08748 0.69642 0.11264 0.0
O1250 O 0.09003 0.67634 0.13137 0.0
H1251 H 1.01846 0.72482 0.13403 0.0
H1252 H 0.95629 0.65736 0.11734 0.0
N1253 N 0.0407 0.6356 0.11642 0.0
N1254 N 0.06999 0.59827 0.12922 0.0
C1255 C 0.06846 0.62129 0.11263 0.0
C1256 C 1.02396 0.62073 0.1356 0.0
C1257 C 0.04193 0.59767 0.14352 0.0
C1258 C 0.98444 0.67628 0.05245 0.0
O1259 O 0.98165 0.70264 0.06013 0.0
H1260 H 0.08748 0.62805 0.09856 0.0
H1261 H 1.00048 0.62648 0.14365 0.0
O1262 O 0.06316 0.6967 0.09611 0.0
H1263 H 0.92314 0.69637 0.14533 0.0
H1264 H 0.03525 0.58213 0.15908 0.0
Cu1265 Cu 0.64516 0.78252 0.38436 0.0
N1266 N 0.63397 0.75562 0.41105 0.0
N1267 N 0.6073 0.71958 0.42994 0.0
C1268 C 0.61119 0.73593 0.40708 0.0
C1269 C 0.6285 0.72929 0.44914 0.0
C1270 C 0.645 0.75165 0.43736 0.0
O1271 O 0.64468 0.76416 0.3478 0.0
C1272 C 0.60972 0.82987 0.36622 0.0
O1273 O 0.62695 0.82717 0.3432 0.0
H1274 H 0.59744 0.73393 0.38782 0.0
H1275 H 0.66344 0.76426 0.44733 0.0
N1276 N 0.68522 0.79874 0.39226 0.0
N1277 N 0.72191 0.83228 0.39981 0.0
C1278 C 0.69181 0.82639 0.3908 0.0
C1279 C 0.71218 0.78665 0.40243 0.0
C1280 C 0.73496 0.80736 0.40714 0.0
C1281 C 0.6582 0.7403 0.34491 0.0
O1282 O 0.67451 0.72969 0.36608 0.0
H1283 H 0.67454 0.84202 0.38396 0.0
H1284 H 0.7148 0.76446 0.40673 0.0
O1285 O 0.61321 0.81217 0.38598 0.0
H1286 H 0.63159 0.72108 0.47017 0.0
H1287 H 0.75897 0.80439 0.41564 0.0
Cu1288 Cu 0.90857 0.53569 0.69267 0.0
N1289 N 0.87642 0.5581 0.70875 0.0
N1290 N 0.85418 0.59133 0.73567 0.0
C1291 C 0.8811 0.58262 0.72224 0.0
C1292 C 0.83155 0.57171 0.73026 0.0
C1293 C 0.8454 0.55117 0.71366 0.0
O1294 O 0.94842 0.55692 0.68948 0.0
C1295 C 0.93578 0.48408 0.71303 0.0
O1296 O 0.9602 0.48932 0.69622 0.0
H1297 H 0.90438 0.59284 0.72379 0.0
H1298 H 0.83417 0.5318 0.70695 0.0
N1299 N 0.89729 0.52341 0.65697 0.0
N1300 N 0.90199 0.49718 0.61851 0.0
C1301 C 0.91756 0.50904 0.6403 0.0
C1302 C 0.8679 0.52093 0.64512 0.0
C1303 C 0.87072 0.50457 0.62126 0.0
C1304 C 0.94802 0.58005 0.67602 0.0
O1305 O 0.92067 0.58893 0.66519 0.0
H1306 H 0.94263 0.50545 0.64541 0.0
H1307 H 0.84572 0.52874 0.65418 0.0
O1308 O 0.91316 0.50207 0.71549 0.0
H1309 H 0.80729 0.57153 0.73873 0.0
H1310 H 0.85114 0.49733 0.60808 0.0
Cu1311 Cu 0.77744 0.71205 0.91945 0.0
N1312 N 0.74641 0.689 0.93564 0.0
N1313 N 0.71894 0.66564 0.96816 0.0
C1314 C 0.74774 0.67666 0.96101 0.0
C1315 C 0.6987 0.67121 0.94675 0.0
C1316 C 0.71585 0.68558 0.92656 0.0
O1317 O 0.7546 0.74684 0.91027 0.0
C1318 C 0.83746 0.69909 0.94641 0.0
O1319 O 0.83997 0.68032 0.92636 0.0
H1320 H 0.76849 0.67771 0.97478 0.0
H1321 H 0.70627 0.69448 0.90739 0.0
N1322 N 0.7907 0.69537 0.88558 0.0
N1323 N 0.82001 0.68255 0.84827 0.0
C1324 C 0.81849 0.69912 0.8713 0.0
C1325 C 0.77393 0.67623 0.87067 0.0
C1326 C 0.79191 0.6683 0.84762 0.0
C1327 C 0.73443 0.75932 0.92628 0.0
O1328 O 0.73164 0.75163 0.95264 0.0
H1329 H 0.83753 0.71316 0.87808 0.0
H1330 H 0.75043 0.66821 0.8764 0.0
O1331 O 0.81317 0.71565 0.94668 0.0
H1332 H 0.67314 0.66648 0.94641 0.0
H1333 H 0.78521 0.65277 0.83206 0.0
Cu1334 Cu 0.64625 0.52613 0.19269 0.0
N1335 N 0.6784 0.50372 0.20877 0.0
N1336 N 0.70065 0.47047 0.23566 0.0
C1337 C 0.67374 0.47918 0.22222 0.0
C1338 C 0.72326 0.49014 0.2303 0.0
C1339 C 0.70941 0.51068 0.21372 0.0
O1340 O 0.6064 0.50489 0.1895 0.0
C1341 C 0.61903 0.57773 0.21304 0.0
O1342 O 0.59462 0.5725 0.19622 0.0
H1343 H 0.65046 0.46894 0.22375 0.0
H1344 H 0.72062 0.53007 0.20704 0.0
N1345 N 0.65753 0.5384 0.15699 0.0
N1346 N 0.65283 0.56464 0.11853 0.0
C1347 C 0.63726 0.55277 0.14031 0.0
C1348 C 0.68692 0.54089 0.14515 0.0
C1349 C 0.68411 0.55725 0.12128 0.0
C1350 C 0.6068 0.48177 0.17602 0.0
O1351 O 0.63415 0.47289 0.16519 0.0
H1352 H 0.61218 0.55636 0.14541 0.0
H1353 H 0.7091 0.5331 0.15422 0.0
O1354 O 0.64165 0.55974 0.21551 0.0
H1355 H 0.7475 0.49034 0.23881 0.0
H1356 H 0.70369 0.5645 0.10812 0.0
Cu1357 Cu 0.77738 0.34976 0.41945 0.0
N1358 N 0.80841 0.3728 0.43563 0.0
N1359 N 0.83588 0.39616 0.46816 0.0
C1360 C 0.80708 0.38514 0.46101 0.0
C1361 C 0.85613 0.3906 0.44674 0.0
C1362 C 0.83897 0.37622 0.42656 0.0
O1363 O 0.80021 0.31497 0.41027 0.0
C1364 C 0.71735 0.36271 0.4464 0.0
O1365 O 0.71483 0.38146 0.42634 0.0
H1366 H 0.78633 0.3841 0.47478 0.0
H1367 H 0.84855 0.36733 0.40739 0.0
N1368 N 0.76412 0.36644 0.38557 0.0
N1369 N 0.73483 0.37924 0.34825 0.0
C1370 C 0.73634 0.36267 0.37128 0.0
C1371 C 0.78088 0.38559 0.37068 0.0
C1372 C 0.76291 0.39351 0.34762 0.0
C1373 C 0.82038 0.30248 0.42627 0.0
O1374 O 0.82317 0.31017 0.45264 0.0
H1375 H 0.71731 0.34863 0.37806 0.0
H1376 H 0.80437 0.39362 0.37641 0.0
O1377 O 0.74165 0.34615 0.44667 0.0
H1378 H 0.88168 0.39532 0.4464 0.0
H1379 H 0.7696 0.40905 0.33207 0.0
Cu1380 Cu 0.90858 0.52612 0.86908 0.0
N1381 N 0.87642 0.50369 0.85301 0.0
N1382 N 0.85419 0.47045 0.8261 0.0
C1383 C 0.88111 0.47919 0.83951 0.0
C1384 C 0.83154 0.49006 0.83155 0.0
C1385 C 0.84539 0.5106 0.84813 0.0
O1386 O 0.94843 0.50489 0.87227 0.0
C1387 C 0.9358 0.5777 0.84868 0.0
O1388 O 0.96024 0.57246 0.86546 0.0
H1389 H 0.90441 0.46898 0.83793 0.0
H1390 H 0.83415 0.52996 0.85487 0.0
N1391 N 0.89731 0.53841 0.90478 0.0
N1392 N 0.902 0.56466 0.94321 0.0
C1393 C 0.91756 0.55283 0.92142 0.0
C1394 C 0.86793 0.5408 0.91668 0.0
C1395 C 0.87075 0.55716 0.94054 0.0
C1396 C 0.94802 0.48176 0.88574 0.0
O1397 O 0.92068 0.47288 0.89656 0.0
H1398 H 0.94262 0.55646 0.91629 0.0
H1399 H 0.84577 0.53292 0.90766 0.0
O1400 O 0.91316 0.55973 0.84625 0.0
H1401 H 0.80727 0.49022 0.8231 0.0
H1402 H 0.85118 0.56431 0.95379 0.0
Cu1403 Cu 0.77738 0.71209 0.14232 0.0
N1404 N 0.80842 0.68905 0.12613 0.0
N1405 N 0.83592 0.66573 0.09361 0.0
C1406 C 0.80711 0.67673 0.10075 0.0
C1407 C 0.85614 0.67124 0.11505 0.0
C1408 C 0.83897 0.68561 0.13523 0.0
O1409 O 0.80021 0.74687 0.15151 0.0
C1410 C 0.71735 0.69915 0.11537 0.0
O1411 O 0.71482 0.6804 0.13543 0.0
H1412 H 0.78636 0.67777 0.08697 0.0
H1413 H 0.84853 0.69447 0.15443 0.0
N1414 N 0.76412 0.69539 0.17619 0.0
N1415 N 0.73482 0.68257 0.2135 0.0
C1416 C 0.73635 0.69916 0.19048 0.0
C1417 C 0.78087 0.67623 0.19107 0.0
C1418 C 0.7629 0.6683 0.21413 0.0
C1419 C 0.82039 0.75936 0.13551 0.0
O1420 O 0.82318 0.75167 0.10914 0.0
H1421 H 0.71732 0.71322 0.18371 0.0
H1422 H 0.80436 0.66819 0.18534 0.0
O1423 O 0.74166 0.71569 0.11509 0.0
H1424 H 0.88168 0.66647 0.11543 0.0
H1425 H 0.76959 0.65275 0.22968 0.0
Cu1426 Cu 0.64625 0.5357 0.36908 0.0
N1427 N 0.67841 0.55813 0.35302 0.0
N1428 N 0.70064 0.59137 0.32612 0.0
C1429 C 0.67371 0.58263 0.33952 0.0
C1430 C 0.72329 0.57177 0.33156 0.0
C1431 C 0.70944 0.55123 0.34815 0.0
O1432 O 0.6064 0.55693 0.37227 0.0
C1433 C 0.61903 0.48412 0.34867 0.0
O1434 O 0.59457 0.48938 0.36542 0.0
H1435 H 0.65042 0.59283 0.33793 0.0
H1436 H 0.72069 0.53187 0.35489 0.0
N1437 N 0.65752 0.52341 0.40478 0.0
N1438 N 0.65282 0.49715 0.44321 0.0
C1439 C 0.63726 0.50898 0.42141 0.0
C1440 C 0.68689 0.52103 0.41669 0.0
C1441 C 0.68407 0.50466 0.44056 0.0
C1442 C 0.6068 0.58005 0.38574 0.0
O1443 O 0.63415 0.58894 0.39656 0.0
H1444 H 0.6122 0.50534 0.41628 0.0
H1445 H 0.70905 0.52892 0.40769 0.0
O1446 O 0.64168 0.50209 0.34625 0.0
H1447 H 0.74757 0.57162 0.32313 0.0
H1448 H 0.70363 0.49752 0.4538 0.0
Cu1449 Cu 0.77744 0.34973 0.64232 0.0
N1450 N 0.7464 0.37277 0.62613 0.0
N1451 N 0.7189 0.39609 0.5936 0.0
C1452 C 0.74771 0.38509 0.60074 0.0
C1453 C 0.69868 0.39058 0.61504 0.0
C1454 C 0.71585 0.37621 0.63523 0.0
O1455 O 0.75461 0.31494 0.65151 0.0
C1456 C 0.83747 0.36267 0.61536 0.0
O1457 O 0.84 0.38141 0.63543 0.0
H1458 H 0.76846 0.38404 0.58697 0.0
H1459 H 0.70629 0.36735 0.65442 0.0
N1460 N 0.7907 0.36643 0.67618 0.0
N1461 N 0.82 0.37925 0.7135 0.0
C1462 C 0.81847 0.36266 0.69048 0.0
C1463 C 0.77395 0.38559 0.69107 0.0
C1464 C 0.79192 0.39352 0.71412 0.0
C1465 C 0.73443 0.30246 0.63551 0.0
O1466 O 0.73164 0.31015 0.60914 0.0
H1467 H 0.8375 0.3486 0.68371 0.0
H1468 H 0.75045 0.39363 0.68534 0.0
O1469 O 0.81316 0.34612 0.61509 0.0
H1470 H 0.67314 0.39535 0.61542 0.0
H1471 H 0.78523 0.40906 0.72967 0.0
Cu1472 Cu 0.65965 0.92744 0.52928 0.0
N1473 N 0.67085 0.90075 0.55617 0.0
N1474 N 0.69753 0.88185 0.59221 0.0
C1475 C 0.69364 0.90472 0.57585 0.0
C1476 C 0.67631 0.86266 0.58251 0.0
C1477 C 0.6598 0.87445 0.56016 0.0
O1478 O 0.66013 0.96399 0.54764 0.0
C1479 C 0.69509 0.94558 0.48193 0.0
O1480 O 0.67786 0.9686 0.48463 0.0
H1481 H 0.70739 0.92396 0.57785 0.0
H1482 H 0.64135 0.86448 0.54756 0.0
N1483 N 0.6196 0.91954 0.51306 0.0
N1484 N 0.5829 0.91198 0.47952 0.0
C1485 C 0.61301 0.921 0.48541 0.0
C1486 C 0.59264 0.90937 0.52515 0.0
C1487 C 0.56985 0.90466 0.50444 0.0
C1488 C 0.64661 0.96688 0.5715 0.0
O1489 O 0.6303 0.94571 0.58211 0.0
H1490 H 0.63027 0.92783 0.46978 0.0
H1491 H 0.59001 0.90508 0.54734 0.0
O1492 O 0.69161 0.92582 0.49963 0.0
H1493 H 0.6732 0.84163 0.59074 0.0
H1494 H 0.54584 0.89616 0.50741 0.0
Cu1495 Cu 0.15966 0.63437 0.5325 0.0
N1496 N 0.17086 0.66107 0.50561 0.0
N1497 N 0.19752 0.67996 0.46957 0.0
C1498 C 0.19363 0.6571 0.48591 0.0
C1499 C 0.17633 0.69917 0.47929 0.0
C1500 C 0.15983 0.68738 0.50164 0.0
O1501 O 0.16015 0.59782 0.51414 0.0
C1502 C 0.1951 0.61624 0.57985 0.0
O1503 O 0.17787 0.59321 0.57714 0.0
H1504 H 0.20737 0.63784 0.4839 0.0
H1505 H 0.1414 0.69736 0.51426 0.0
N1506 N 0.1196 0.64227 0.54872 0.0
N1507 N 0.0829 0.64981 0.58225 0.0
C1508 C 0.113 0.64079 0.57637 0.0
C1509 C 0.09265 0.65246 0.53663 0.0
C1510 C 0.06986 0.65716 0.55734 0.0
C1511 C 0.14662 0.59493 0.49028 0.0
O1512 O 0.1303 0.6161 0.47968 0.0
H1513 H 0.13026 0.63395 0.59199 0.0
H1514 H 0.09003 0.65677 0.51444 0.0
O1515 O 0.19161 0.636 0.56215 0.0
H1516 H 0.17325 0.72021 0.47108 0.0
H1517 H 0.04586 0.66568 0.55436 0.0
Cu1518 Cu 0.65858 0.94269 0.77611 0.0
N1519 N 0.62642 0.95876 0.75369 0.0
N1520 N 0.60418 0.98566 0.72045 0.0
C1521 C 0.63111 0.97226 0.72918 0.0
C1522 C 0.58154 0.98023 0.74006 0.0
C1523 C 0.59539 0.96364 0.7606 0.0
O1524 O 0.69843 0.93951 0.75487 0.0
C1525 C 0.6858 0.96309 0.82769 0.0
O1526 O 0.71024 0.94632 0.82244 0.0
H1527 H 0.6544 0.97383 0.71897 0.0
H1528 H 0.58415 0.9569 0.77996 0.0
N1529 N 0.64731 0.907 0.7884 0.0
N1530 N 0.652 0.86856 0.81466 0.0
C1531 C 0.66757 0.89036 0.80283 0.0
C1532 C 0.61794 0.89509 0.7908 0.0
C1533 C 0.62075 0.87123 0.80716 0.0
C1534 C 0.69802 0.92604 0.73175 0.0
O1535 O 0.67068 0.91521 0.72286 0.0
H1536 H 0.69263 0.89549 0.80646 0.0
H1537 H 0.59577 0.9041 0.78291 0.0
O1538 O 0.66317 0.96553 0.80972 0.0
H1539 H 0.55727 0.98867 0.74022 0.0
H1540 H 0.60119 0.85799 0.81431 0.0
Cu1541 Cu 0.39516 0.42744 0.03251 0.0
N1542 N 0.38396 0.40074 1.00561 0.0
N1543 N 0.3573 0.38185 0.96957 0.0
C1544 C 0.36119 0.40471 0.98592 0.0
C1545 C 0.37849 0.36264 0.97929 0.0
C1546 C 0.39499 0.37443 1.00164 0.0
O1547 O 0.39467 0.46399 1.01414 0.0
C1548 C 0.35972 0.44557 0.07986 0.0
O1549 O 0.37695 0.4686 0.07715 0.0
H1550 H 0.34745 0.42397 0.98391 0.0
H1551 H 0.41342 0.36445 1.01426 0.0
N1552 N 0.43522 0.41954 0.04872 0.0
N1553 N 0.47193 0.412 0.08225 0.0
C1554 C 0.44182 0.42102 0.07637 0.0
C1555 C 0.46217 0.40935 0.03663 0.0
C1556 C 0.48496 0.40465 0.05734 0.0
C1557 C 0.4082 0.46688 0.99028 0.0
O1558 O 0.42452 0.44571 0.97968 0.0
H1559 H 0.42456 0.42786 0.09199 0.0
H1560 H 0.46479 0.40504 1.01444 0.0
O1561 O 0.36321 0.42581 0.06215 0.0
H1562 H 0.38157 0.3416 0.97108 0.0
H1563 H 0.50896 0.39613 0.05437 0.0
Cu1564 Cu 0.39625 0.61911 0.7761 0.0
N1565 N 0.4284 0.60303 0.75369 0.0
N1566 N 0.45064 0.57614 0.72044 0.0
C1567 C 0.42373 0.58957 0.72916 0.0
C1568 C 0.47326 0.58152 0.74009 0.0
C1569 C 0.45941 0.5981 0.76063 0.0
O1570 O 0.3564 0.6223 0.75487 0.0
C1571 C 0.36903 0.59873 0.8277 0.0
O1572 O 0.3446 0.61552 0.82246 0.0
H1573 H 0.40044 0.58802 0.71893 0.0
H1574 H 0.47063 0.60479 0.78001 0.0
N1575 N 0.40752 0.65481 0.78838 0.0
N1576 N 0.40282 0.69326 0.81462 0.0
C1577 C 0.38726 0.67148 0.80276 0.0
C1578 C 0.43691 0.66666 0.79086 0.0
C1579 C 0.43409 0.69052 0.80722 0.0
C1580 C 0.3568 0.63577 0.73175 0.0
O1581 O 0.38414 0.6466 0.72287 0.0
H1582 H 0.36218 0.66636 0.80636 0.0
H1583 H 0.45909 0.6576 0.78305 0.0
O1584 O 0.39166 0.59629 0.80972 0.0
H1585 H 0.49751 0.57302 0.74028 0.0
H1586 H 0.45367 0.7037 0.81446 0.0
Cu1587 Cu 0.89516 0.13437 1.02927 0.0
N1588 N 0.88397 0.16107 0.05617 0.0
N1589 N 0.85729 0.17996 0.09221 0.0
C1590 C 0.86118 0.1571 0.07585 0.0
C1591 C 0.87851 0.19915 0.08251 0.0
C1592 C 0.89501 0.18737 0.06015 0.0
O1593 O 0.89468 0.09782 0.04764 0.0
C1594 C 0.85972 0.11624 0.98192 0.0
O1595 O 0.87696 0.09322 0.98463 0.0
H1596 H 0.84743 0.13785 0.07785 0.0
H1597 H 0.91347 0.19734 0.04755 0.0
N1598 N 0.93522 0.14227 1.01305 0.0
N1599 N 0.97192 0.14983 0.97952 0.0
C1600 C 0.94181 0.14081 0.9854 0.0
C1601 C 0.96218 0.15245 1.02515 0.0
C1602 C 0.98497 0.15716 1.00443 0.0
C1603 C 0.90821 0.09494 0.0715 0.0
O1604 O 0.92452 0.11611 0.0821 0.0
H1605 H 0.92454 0.13398 0.96978 0.0
H1606 H 0.9648 0.15674 0.04734 0.0
O1607 O 0.86321 0.136 0.99963 0.0
H1608 H 0.88161 0.22018 0.09074 0.0
H1609 H 1.00897 0.16566 1.00741 0.0
Cu1610 Cu 0.65857 0.11911 0.78568 0.0
N1611 N 0.62642 0.10304 0.8081 0.0
N1612 N 0.60418 0.07614 0.84134 0.0
C1613 C 0.6311 0.08954 0.83261 0.0
C1614 C 0.58154 0.08157 0.82173 0.0
C1615 C 0.59539 0.09816 0.80119 0.0
O1616 O 0.69842 0.1223 0.80691 0.0
C1617 C 0.68579 0.09871 0.7341 0.0
O1618 O 0.71023 0.11549 0.73934 0.0
H1619 H 0.6544 0.08797 0.84281 0.0
H1620 H 0.58414 0.10489 0.78183 0.0
N1621 N 0.6473 0.15481 0.77339 0.0
N1622 N 0.65199 0.19324 0.74713 0.0
C1623 C 0.66756 0.17145 0.75897 0.0
C1624 C 0.61793 0.16671 0.77099 0.0
C1625 C 0.62074 0.19057 0.75463 0.0
C1626 C 0.69802 0.13576 0.83004 0.0
O1627 O 0.67067 0.14659 0.83892 0.0
H1628 H 0.69262 0.16632 0.75534 0.0
H1629 H 0.59576 0.15769 0.77888 0.0
O1630 O 0.66316 0.09628 0.75207 0.0
H1631 H 0.55726 0.07313 0.82156 0.0
H1632 H 0.60118 0.20381 0.74747 0.0
Cu1633 Cu 0.89625 0.94272 0.28568 0.0
N1634 N 0.9284 0.95878 0.30811 0.0
N1635 N 0.95063 0.98569 0.34135 0.0
C1636 C 0.92371 0.97228 0.33261 0.0
C1637 C 0.97328 0.98024 0.32175 0.0
C1638 C 0.95943 0.96365 0.3012 0.0
O1639 O 0.85639 0.93953 0.30691 0.0
C1640 C 0.86903 0.96313 0.2341 0.0
O1641 O 0.84458 0.94635 0.23935 0.0
H1642 H 0.90041 0.97387 0.34281 0.0
H1643 H 0.97068 0.95691 0.28185 0.0
N1644 N 0.90751 0.90702 0.27339 0.0
N1645 N 0.90282 0.86859 0.24713 0.0
C1646 C 0.88726 0.89038 0.25896 0.0
C1647 C 0.93688 0.89511 0.271 0.0
C1648 C 0.93407 0.87125 0.25463 0.0
C1649 C 0.8568 0.92606 0.33004 0.0
O1650 O 0.88414 0.91524 0.33892 0.0
H1651 H 0.8622 0.89552 0.25533 0.0
H1652 H 0.95905 0.90412 0.27889 0.0
O1653 O 0.89166 0.96555 0.25207 0.0
H1654 H 0.99756 0.98868 0.32159 0.0
H1655 H 0.95364 0.85801 0.24748 0.0
Cu1656 Cu 0.53184 0.39616 0.14884 0.0
N1657 N 0.50103 0.38175 0.17355 0.0
N1658 N 0.46551 0.35198 0.19242 0.0
C1659 C 0.48361 0.35819 0.16967 0.0
C1660 C 0.47173 0.37235 0.21133 0.0
C1661 C 0.49387 0.39058 0.19969 0.0
O1662 O 0.51359 0.39966 0.11136 0.0
C1663 C 0.58544 0.36331 0.1289 0.0
O1664 O 0.58266 0.37688 0.10499 0.0
H1665 H 0.48461 0.34567 0.1507 0.0
H1666 H 0.50461 0.40857 0.20991 0.0
N1667 N 0.54643 0.43109 0.16144 0.0
N1668 N 0.57947 0.4663 0.17289 0.0
C1669 C 0.57701 0.44063 0.16102 0.0
C1670 C 0.52893 0.45157 0.17366 0.0
C1671 C 0.54933 0.47329 0.18097 0.0
C1672 C 0.48549 0.41 0.10819 0.0
O1673 O 0.46938 0.41837 0.13045 0.0
H1674 H 0.5971 0.42877 0.15255 0.0
H1675 H 0.50317 0.45065 0.17723 0.0
O1676 O 0.56686 0.36933 0.14928 0.0
H1677 H 0.46143 0.37372 0.23219 0.0
H1678 H 0.54252 0.49269 0.19125 0.0
Cu1679 Cu 0.40079 0.7502 0.91 0.0
N1680 N 0.43248 0.77693 0.903 0.0
N1681 N 0.46009 0.81677 0.90604 0.0
C1682 C 0.4314 0.80419 0.91025 0.0
C1683 C 0.48007 0.79694 0.89584 0.0
C1684 C 0.46279 0.77226 0.89381 0.0
O1685 O 0.36403 0.76901 0.92837 0.0
C1686 C 0.44563 0.72092 0.94669 0.0
O1687 O 0.45524 0.74558 0.95574 0.0
H1688 H 0.41084 0.81402 0.92024 0.0
H1689 H 0.47217 0.75196 0.88769 0.0
N1690 N 0.38764 0.73468 0.87592 0.0
N1691 N 0.39016 0.7109 0.83572 0.0
C1692 C 0.40713 0.72441 0.85575 0.0
C1693 C 0.35749 0.72717 0.86844 0.0
C1694 C 0.35893 0.71262 0.84349 0.0
C1695 C 0.34507 0.78411 0.91348 0.0
O1696 O 0.3503 0.78625 0.88637 0.0
H1697 H 0.43319 0.72505 0.85685 0.0
H1698 H 0.33614 0.73068 0.88102 0.0
O1699 O 0.42131 0.71918 0.93031 0.0
H1700 H 0.50547 0.79982 0.8914 0.0
H1701 H 0.33883 0.7028 0.83282 0.0
Cu1702 Cu 1.02298 0.66565 0.64884 0.0
N1703 N 0.0538 0.68006 0.67354 0.0
N1704 N 0.08931 0.70983 0.69242 0.0
C1705 C 0.07121 0.70362 0.66967 0.0
C1706 C 0.08309 0.68946 0.71133 0.0
C1707 C 0.06095 0.67123 0.69969 0.0
O1708 O 0.04123 0.66215 0.61136 0.0
C1709 C 0.96938 0.69851 0.6289 0.0
O1710 O 0.97216 0.68493 0.60499 0.0
H1711 H 0.07021 0.71614 0.6507 0.0
H1712 H 0.05022 0.65324 0.7099 0.0
N1713 N 1.00839 0.63072 0.66144 0.0
N1714 N 0.97535 0.59551 0.67289 0.0
C1715 C 0.9778 0.62119 0.66102 0.0
C1716 C 1.02589 0.61024 0.67366 0.0
C1717 C 1.00549 0.58852 0.68096 0.0
C1718 C 0.06933 0.65181 0.60819 0.0
O1719 O 0.08544 0.64344 0.63045 0.0
H1720 H 0.95772 0.63305 0.65255 0.0
H1721 H 0.05165 0.61115 0.67722 0.0
O1722 O 0.98797 0.69248 0.64928 0.0
H1723 H 0.0934 0.68809 0.73219 0.0
H1724 H 1.0123 0.56911 0.69124 0.0
Cu1725 Cu 0.15403 0.31161 0.41 0.0
N1726 N 0.12235 0.28488 0.403 0.0
N1727 N 0.09473 0.24504 0.40604 0.0
C1728 C 0.12343 0.25762 0.41024 0.0
C1729 C 0.07475 0.26487 0.39584 0.0
C1730 C 0.09203 0.28955 0.39381 0.0
O1731 O 0.19079 0.2928 0.42836 0.0
C1732 C 0.10919 0.34089 0.44668 0.0
O1733 O 0.09958 0.31623 0.45573 0.0
H1734 H 0.14399 0.24779 0.42024 0.0
H1735 H 0.08266 0.30984 0.38769 0.0
N1736 N 0.16718 0.32713 0.37592 0.0
N1737 N 0.16466 0.35091 0.33571 0.0
C1738 C 0.14769 0.3374 0.35574 0.0
C1739 C 0.19733 0.33464 0.36844 0.0
C1740 C 0.19589 0.34918 0.34348 0.0
C1741 C 0.20976 0.27771 0.41347 0.0
O1742 O 0.20452 0.27556 0.38637 0.0
H1743 H 0.12163 0.33676 0.35684 0.0
H1744 H 0.21869 0.33112 0.38102 0.0
O1745 O 0.13351 0.34263 0.4303 0.0
H1746 H 0.04935 0.26198 0.3914 0.0
H1747 H 0.21599 0.35901 0.33282 0.0
Cu1748 Cu 0.53183 0.66565 0.41293 0.0
N1749 N 0.50102 0.68007 0.38823 0.0
N1750 N 0.46551 0.70983 0.36936 0.0
C1751 C 0.48361 0.70362 0.39211 0.0
C1752 C 0.47172 0.68946 0.35044 0.0
C1753 C 0.49386 0.67123 0.36208 0.0
O1754 O 0.51358 0.66215 0.45041 0.0
C1755 C 0.58544 0.6985 0.43287 0.0
O1756 O 0.58266 0.68493 0.45677 0.0
H1757 H 0.48461 0.71615 0.41108 0.0
H1758 H 0.50459 0.65324 0.35187 0.0
N1759 N 0.54642 0.63073 0.40033 0.0
N1760 N 0.57947 0.59551 0.38887 0.0
C1761 C 0.57701 0.62119 0.40074 0.0
C1762 C 0.52893 0.61024 0.38811 0.0
C1763 C 0.54932 0.58852 0.3808 0.0
C1764 C 0.48549 0.65181 0.45358 0.0
O1765 O 0.46937 0.64345 0.43132 0.0
H1766 H 0.59709 0.63305 0.40921 0.0
H1767 H 0.50316 0.61115 0.38455 0.0
O1768 O 0.56685 0.69248 0.41249 0.0
H1769 H 0.46142 0.6881 0.32958 0.0
H1770 H 0.54252 0.56912 0.37052 0.0
Cu1771 Cu 0.15402 0.75021 0.15178 0.0
N1772 N 0.12234 0.77694 0.15878 0.0
N1773 N 0.09473 0.81678 0.15574 0.0
C1774 C 0.12342 0.8042 0.15154 0.0
C1775 C 0.07475 0.79695 0.16594 0.0
C1776 C 0.09203 0.77227 0.16797 0.0
O1777 O 0.19079 0.76902 0.13341 0.0
C1778 C 0.10919 0.72093 0.11509 0.0
O1779 O 0.09958 0.74559 0.10604 0.0
H1780 H 0.14398 0.81403 0.14154 0.0
H1781 H 0.08265 0.75197 0.17409 0.0
N1782 N 0.16717 0.73469 0.18585 0.0
N1783 N 0.16466 0.71091 0.22606 0.0
C1784 C 0.14769 0.72442 0.20603 0.0
C1785 C 0.19733 0.72718 0.19334 0.0
C1786 C 0.19589 0.71263 0.21829 0.0
C1787 C 0.20975 0.78411 0.1483 0.0
O1788 O 0.20451 0.78626 0.17541 0.0
H1789 H 0.12163 0.72506 0.20493 0.0
H1790 H 0.21868 0.73069 0.18076 0.0
O1791 O 0.13351 0.71919 0.13147 0.0
H1792 H 0.04935 0.79983 0.17038 0.0
H1793 H 0.21599 0.7028 0.22896 0.0
Cu1794 Cu 1.02299 0.39616 0.91293 0.0
N1795 N 0.0538 0.38175 0.88823 0.0
N1796 N 0.08932 0.35198 0.86936 0.0
C1797 C 0.07121 0.35819 0.8921 0.0
C1798 C 0.0831 0.37235 0.85044 0.0
C1799 C 0.06096 0.39058 0.86208 0.0
O1800 O 0.04124 0.39966 0.95041 0.0
C1801 C 0.96938 0.36331 0.93287 0.0
O1802 O 0.97216 0.37689 0.95677 0.0
H1803 H 0.07022 0.34567 0.91108 0.0
H1804 H 0.05023 0.40857 0.85187 0.0
N1805 N 1.0084 0.43109 0.90033 0.0
N1806 N 0.97535 0.4663 0.88887 0.0
C1807 C 0.97781 0.44062 0.90074 0.0
C1808 C 1.0259 0.45157 0.88811 0.0
C1809 C 1.0055 0.47329 0.88081 0.0
C1810 C 0.06933 0.41 0.95358 0.0
O1811 O 0.08545 0.41837 0.93132 0.0
H1812 H 0.95773 0.42876 0.9092 0.0
H1813 H 0.05166 0.45066 0.88455 0.0
O1814 O 0.98797 0.36933 0.91249 0.0
H1815 H 0.09341 0.37372 0.82958 0.0
H1816 H 1.01231 0.4927 0.87053 0.0
Cu1817 Cu 0.4008 0.31161 0.65178 0.0
N1818 N 0.43248 0.28488 0.65878 0.0
N1819 N 0.4601 0.24504 0.65574 0.0
C1820 C 0.4314 0.25762 0.65154 0.0
C1821 C 0.48007 0.26487 0.66594 0.0
C1822 C 0.4628 0.28955 0.66796 0.0
O1823 O 0.36404 0.2928 0.63341 0.0
C1824 C 0.44563 0.34089 0.61509 0.0
O1825 O 0.45524 0.31622 0.60604 0.0
H1826 H 0.41084 0.24779 0.64154 0.0
H1827 H 0.47217 0.30984 0.67408 0.0
N1828 N 0.38765 0.32713 0.68585 0.0
N1829 N 0.39017 0.35091 0.72606 0.0
C1830 C 0.40714 0.3374 0.70603 0.0
C1831 C 0.3575 0.33463 0.69334 0.0
C1832 C 0.35893 0.34918 0.71829 0.0
C1833 C 0.34507 0.2777 0.6483 0.0
O1834 O 0.35032 0.27556 0.67541 0.0
H1835 H 0.43319 0.33676 0.70493 0.0
H1836 H 0.33614 0.33112 0.68076 0.0
O1837 O 0.42131 0.34263 0.63147 0.0
H1838 H 0.50547 0.26198 0.67038 0.0
H1839 H 0.33884 0.35901 0.72896 0.0
Cu1840 Cu 0.13262 0.52439 0.40603 0.0
N1841 N 0.1628 0.50145 0.38825 0.0
N1842 N 0.18352 0.4765 0.35285 0.0
C1843 C 0.15859 0.49233 0.36176 0.0
C1844 C 0.20446 0.47564 0.37456 0.0
C1845 C 0.19162 0.49123 0.39644 0.0
O1846 O 0.09412 0.50191 0.41247 0.0
C1847 C 0.10203 0.55801 0.36333 0.0
O1848 O 0.07629 0.54222 0.36663 0.0
H1849 H 0.13734 0.49707 0.34937 0.0
H1850 H 0.20258 0.49483 0.41672 0.0
N1851 N 0.14674 0.54 0.43996 0.0
N1852 N 0.15019 0.57085 0.47522 0.0
C1853 C 0.13813 0.56557 0.44942 0.0
C1854 C 0.16484 0.52864 0.46055 0.0
C1855 C 0.16709 0.54771 0.48237 0.0
C1856 C 0.09548 0.48127 0.4295 0.0
O1857 O 0.12248 0.47644 0.44314 0.0
H1858 H 0.12307 0.57995 0.43762 0.0
H1859 H 0.17527 0.50785 0.46 0.0
O1860 O 0.12627 0.55458 0.37934 0.0
H1861 H 0.22722 0.46446 0.37471 0.0
H1862 H 0.18005 0.54476 0.5019 0.0
Cu1863 Cu 0.27298 0.39886 0.14614 0.0
N1864 N 0.30379 0.42356 0.13173 0.0
N1865 N 0.33931 0.44243 0.10196 0.0
C1866 C 0.32121 0.41968 0.10817 0.0
C1867 C 0.33309 0.46135 0.12233 0.0
C1868 C 0.31095 0.44971 0.14056 0.0
O1869 O 0.29123 0.36138 0.14964 0.0
C1870 C 0.21938 0.37892 0.11329 0.0
O1871 O 0.22216 0.35501 0.12686 0.0
H1872 H 0.32021 0.40071 0.09565 0.0
H1873 H 0.30021 0.45993 0.15855 0.0
N1874 N 0.25839 0.41146 0.18107 0.0
N1875 N 0.22535 0.42291 0.21628 0.0
C1876 C 0.22781 0.41104 0.19061 0.0
C1877 C 0.27589 0.42368 0.20155 0.0
C1878 C 0.25549 0.43099 0.22327 0.0
C1879 C 0.31933 0.35821 0.15998 0.0
O1880 O 0.33544 0.38047 0.16835 0.0
H1881 H 0.20772 0.40257 0.17875 0.0
H1882 H 0.30165 0.42725 0.20063 0.0
O1883 O 0.23796 0.3993 0.11931 0.0
H1884 H 0.34339 0.48221 0.12369 0.0
H1885 H 0.2623 0.44127 0.24267 0.0
Cu1886 Cu 0.42219 0.53742 0.90603 0.0
N1887 N 0.39201 0.56037 0.88825 0.0
N1888 N 0.37129 0.58531 0.85285 0.0
C1889 C 0.39623 0.56948 0.86177 0.0
C1890 C 0.35035 0.58617 0.87456 0.0
C1891 C 0.36319 0.57058 0.89644 0.0
O1892 O 0.46069 0.55989 0.91247 0.0
C1893 C 0.45278 0.5038 0.86333 0.0
O1894 O 0.47852 0.51959 0.86663 0.0
H1895 H 0.41747 0.56474 0.84938 0.0
H1896 H 0.35224 0.56698 0.91672 0.0
N1897 N 0.40807 0.52181 0.93996 0.0
N1898 N 0.40462 0.49096 0.97523 0.0
C1899 C 0.41669 0.49624 0.94942 0.0
C1900 C 0.38997 0.53316 0.96056 0.0
C1901 C 0.38772 0.5141 0.98237 0.0
C1902 C 0.45933 0.58054 0.9295 0.0
O1903 O 0.43233 0.58537 0.94314 0.0
H1904 H 0.43174 0.48186 0.93762 0.0
H1905 H 0.37954 0.55396 0.96001 0.0
O1906 O 0.42855 0.50723 0.87934 0.0
H1907 H 0.32759 0.59735 0.87471 0.0
H1908 H 0.37476 0.51704 1.0019 0.0
Cu1909 Cu 0.28184 0.66296 0.64614 0.0
N1910 N 0.25103 0.63825 0.63173 0.0
N1911 N 0.21551 0.61938 0.60196 0.0
C1912 C 0.23361 0.64213 0.60817 0.0
C1913 C 0.22173 0.60046 0.62233 0.0
C1914 C 0.24387 0.6121 0.64056 0.0
O1915 O 0.26359 0.70043 0.64964 0.0
C1916 C 0.33544 0.6829 0.61328 0.0
O1917 O 0.33265 0.7068 0.62685 0.0
H1918 H 0.23461 0.6611 0.59565 0.0
H1919 H 0.25461 0.60189 0.65855 0.0
N1920 N 0.29642 0.65035 0.68107 0.0
N1921 N 0.32947 0.6389 0.71628 0.0
C1922 C 0.32701 0.65077 0.6906 0.0
C1923 C 0.27893 0.63813 0.70155 0.0
C1924 C 0.29932 0.63082 0.72327 0.0
C1925 C 0.23549 0.7036 0.65998 0.0
O1926 O 0.21938 0.68134 0.66834 0.0
H1927 H 0.34709 0.65924 0.67875 0.0
H1928 H 0.25317 0.63456 0.70063 0.0
O1929 O 0.31686 0.66251 0.61931 0.0
H1930 H 0.21143 0.5796 0.62369 0.0
H1931 H 0.29252 0.62054 0.74267 0.0
Cu1932 Cu 0.13262 0.53743 0.15575 0.0
N1933 N 0.1628 0.56037 0.17352 0.0
N1934 N 0.18352 0.58531 0.20893 0.0
C1935 C 0.15859 0.56949 0.20001 0.0
C1936 C 0.20446 0.58617 0.18721 0.0
C1937 C 0.19162 0.57058 0.16533 0.0
O1938 O 0.09412 0.5599 0.1493 0.0
C1939 C 0.10203 0.5038 0.19845 0.0
O1940 O 0.07629 0.51959 0.19514 0.0
H1941 H 0.13734 0.56474 0.2124 0.0
H1942 H 0.20258 0.56698 0.14506 0.0
N1943 N 0.14674 0.52182 0.12181 0.0
N1944 N 0.15019 0.49096 0.08655 0.0
C1945 C 0.13813 0.49624 0.11235 0.0
C1946 C 0.16484 0.53317 0.10122 0.0
C1947 C 0.16709 0.5141 0.0794 0.0
C1948 C 0.09548 0.58055 0.13228 0.0
O1949 O 0.12248 0.58538 0.11863 0.0
H1950 H 0.12307 0.48187 0.12416 0.0
H1951 H 0.17527 0.55397 0.10177 0.0
O1952 O 0.12627 0.50723 0.18244 0.0
H1953 H 0.22722 0.59735 0.18706 0.0
H1954 H 0.18005 0.51705 0.05987 0.0
Cu1955 Cu 0.28184 0.39886 0.91563 0.0
N1956 N 0.25103 0.42356 0.93005 0.0
N1957 N 0.21551 0.44243 0.95981 0.0
C1958 C 0.23361 0.41969 0.95361 0.0
C1959 C 0.22173 0.46135 0.93945 0.0
C1960 C 0.24388 0.44971 0.92122 0.0
O1961 O 0.26359 0.36138 0.91214 0.0
C1962 C 0.33544 0.37892 0.94849 0.0
O1963 O 0.33265 0.35501 0.93492 0.0
H1964 H 0.23461 0.40071 0.96613 0.0
H1965 H 0.25461 0.45992 0.90323 0.0
N1966 N 0.29643 0.41146 0.88071 0.0
N1967 N 0.32947 0.42291 0.84549 0.0
C1968 C 0.32701 0.41104 0.87117 0.0
C1969 C 0.27893 0.42368 0.86023 0.0
C1970 C 0.29933 0.43099 0.83851 0.0
C1971 C 0.23549 0.35821 0.9018 0.0
O1972 O 0.21938 0.38047 0.89343 0.0
H1973 H 0.3471 0.40257 0.88302 0.0
H1974 H 0.25317 0.42725 0.86114 0.0
O1975 O 0.31686 0.3993 0.94246 0.0
H1976 H 0.21143 0.48221 0.93808 0.0
H1977 H 0.29252 0.44127 0.8191 0.0
Cu1978 Cu 0.4222 0.52438 0.65575 0.0
N1979 N 0.39201 0.50144 0.67352 0.0
N1980 N 0.37129 0.4765 0.70892 0.0
C1981 C 0.39623 0.49233 0.70001 0.0
C1982 C 0.35036 0.47564 0.68721 0.0
C1983 C 0.3632 0.49123 0.66533 0.0
O1984 O 0.4607 0.50191 0.6493 0.0
C1985 C 0.45279 0.55801 0.69845 0.0
O1986 O 0.47852 0.54222 0.69514 0.0
H1987 H 0.41747 0.49707 0.7124 0.0
H1988 H 0.35224 0.49483 0.64506 0.0
N1989 N 0.40808 0.54 0.62181 0.0
N1990 N 0.40462 0.57085 0.58655 0.0
C1991 C 0.41669 0.56557 0.61235 0.0
C1992 C 0.38997 0.52864 0.60122 0.0
C1993 C 0.38772 0.54771 0.5794 0.0
C1994 C 0.45933 0.48127 0.63227 0.0
O1995 O 0.43233 0.47644 0.61863 0.0
H1996 H 0.43174 0.57995 0.62416 0.0
H1997 H 0.37955 0.50785 0.60177 0.0
O1998 O 0.42855 0.55458 0.68244 0.0
H1999 H 0.32759 0.46446 0.68706 0.0
H2000 H 0.37476 0.54476 0.55987 0.0
Cu2001 Cu 0.27298 0.66295 0.41563 0.0
N2002 N 0.30379 0.63825 0.43005 0.0
N2003 N 0.33931 0.61938 0.45981 0.0
C2004 C 0.32121 0.64213 0.4536 0.0
C2005 C 0.33309 0.60046 0.43945 0.0
C2006 C 0.31095 0.6121 0.42121 0.0
O2007 O 0.29123 0.70043 0.41213 0.0
C2008 C 0.21938 0.6829 0.44849 0.0
O2009 O 0.22217 0.7068 0.43492 0.0
H2010 H 0.32021 0.6611 0.46612 0.0
H2011 H 0.30021 0.60189 0.40322 0.0
N2012 N 0.25839 0.65035 0.38071 0.0
N2013 N 0.22535 0.6389 0.34549 0.0
C2014 C 0.22781 0.65077 0.37117 0.0
C2015 C 0.27589 0.63813 0.36023 0.0
C2016 C 0.25549 0.63082 0.3385 0.0
C2017 C 0.31933 0.7036 0.4018 0.0
O2018 O 0.33544 0.68134 0.39343 0.0
H2019 H 0.20772 0.65924 0.38302 0.0
H2020 H 0.30165 0.63456 0.36114 0.0
O2021 O 0.23796 0.66251 0.44246 0.0
H2022 H 0.34339 0.5796 0.43808 0.0
H2023 H 0.2623 0.62054 0.3191 0.0
Cu2024 Cu 0.40403 0.16002 0.5002 0.0
N2025 N 0.37234 0.15302 0.52692 0.0
N2026 N 0.34473 0.15606 0.56677 0.0
C2027 C 0.37342 0.16026 0.55419 0.0
C2028 C 0.32475 0.14586 0.54693 0.0
C2029 C 0.34203 0.14384 0.52226 0.0
O2030 O 0.44079 0.17839 0.519 0.0
C2031 C 0.35919 0.1967 0.47091 0.0
O2032 O 0.34957 0.20576 0.49557 0.0
H2033 H 0.39399 0.17026 0.56401 0.0
H2034 H 0.33265 0.13771 0.50196 0.0
N2035 N 0.41717 0.12594 0.48468 0.0
N2036 N 0.41466 0.08574 0.46089 0.0
C2037 C 0.39769 0.10576 0.4744 0.0
C2038 C 0.44733 0.11846 0.47717 0.0
C2039 C 0.44589 0.09351 0.46262 0.0
C2040 C 0.45975 0.1635 0.5341 0.0
O2041 O 0.45452 0.13639 0.53624 0.0
H2042 H 0.37163 0.10687 0.47505 0.0
H2043 H 0.46868 0.13104 0.48068 0.0
O2044 O 0.38351 0.18032 0.46917 0.0
H2045 H 0.29935 0.14142 0.54982 0.0
H2046 H 0.46599 0.08284 0.45279 0.0
Cu2047 Cu 0.90402 0.4018 0.56158 0.0
N2048 N 0.87234 0.4088 0.53485 0.0
N2049 N 0.84473 0.40576 0.49501 0.0
C2050 C 0.87342 0.40155 0.50758 0.0
C2051 C 0.82475 0.41596 0.51484 0.0
C2052 C 0.84203 0.41799 0.53952 0.0
O2053 O 0.94079 0.38343 0.54277 0.0
C2054 C 0.85918 0.36511 0.59086 0.0
O2055 O 0.84958 0.35605 0.56619 0.0
H2056 H 0.89398 0.39155 0.49776 0.0
H2057 H 0.83265 0.42411 0.55981 0.0
N2058 N 0.91717 0.43588 0.5771 0.0
N2059 N 0.91465 0.47609 0.60087 0.0
C2060 C 0.89768 0.45606 0.58736 0.0
C2061 C 0.94732 0.44336 0.5846 0.0
C2062 C 0.94589 0.46831 0.59915 0.0
C2063 C 0.95976 0.39832 0.52768 0.0
O2064 O 0.95452 0.42543 0.52553 0.0
H2065 H 0.87162 0.45495 0.58672 0.0
H2066 H 0.96868 0.43078 0.58109 0.0
O2067 O 0.8835 0.3815 0.5926 0.0
H2068 H 0.79935 0.4204 0.51195 0.0
H2069 H 0.96598 0.47898 0.60898 0.0
Cu2070 Cu 0.38262 0.15605 0.28741 0.0
N2071 N 0.4128 0.13827 0.31035 0.0
N2072 N 0.43352 0.10287 0.3353 0.0
C2073 C 0.40858 0.11178 0.31947 0.0
C2074 C 0.45446 0.12459 0.33615 0.0
C2075 C 0.44162 0.14646 0.32056 0.0
O2076 O 0.34412 0.16249 0.30988 0.0
C2077 C 0.35203 0.11335 0.25378 0.0
O2078 O 0.32629 0.11665 0.26956 0.0
H2079 H 0.38734 0.09939 0.31473 0.0
H2080 H 0.45257 0.16673 0.31696 0.0
N2081 N 0.39674 0.18998 0.2718 0.0
N2082 N 0.40019 0.22524 0.24094 0.0
C2083 C 0.38813 0.19944 0.24622 0.0
C2084 C 0.41484 0.21057 0.28315 0.0
C2085 C 0.41709 0.23239 0.26408 0.0
C2086 C 0.34549 0.17951 0.33053 0.0
O2087 O 0.37249 0.19314 0.33537 0.0
H2088 H 0.37308 0.18763 0.23184 0.0
H2089 H 0.42526 0.21003 0.30395 0.0
O2090 O 0.37627 0.12935 0.25721 0.0
H2091 H 0.47722 0.12473 0.34733 0.0
H2092 H 0.43005 0.25192 0.26703 0.0
Cu2093 Cu 0.6508 0.66001 0.06159 0.0
N2094 N 0.68248 0.65301 0.03486 0.0
N2095 N 0.71009 0.65605 0.99502 0.0
C2096 C 0.6814 0.66026 1.00759 0.0
C2097 C 0.73007 0.64585 1.01485 0.0
C2098 C 0.71279 0.64382 0.03952 0.0
O2099 O 0.61403 0.67838 0.04278 0.0
C2100 C 0.69563 0.6967 0.09086 0.0
O2101 O 0.70524 0.70576 0.0662 0.0
H2102 H 0.66084 0.67025 0.99777 0.0
H2103 H 0.72217 0.6377 0.05982 0.0
N2104 N 0.63765 0.62594 0.07711 0.0
N2105 N 0.64017 0.58573 0.10089 0.0
C2106 C 0.65714 0.60576 0.08738 0.0
C2107 C 0.6075 0.61845 0.08461 0.0
C2108 C 0.60894 0.5935 0.09916 0.0
C2109 C 0.59506 0.66348 1.02769 0.0
O2110 O 0.6003 0.63638 1.02554 0.0
H2111 H 0.6832 0.60686 0.08674 0.0
H2112 H 0.58614 0.63103 0.0811 0.0
O2113 O 0.67131 0.68032 0.0926 0.0
H2114 H 0.75547 0.64141 1.01196 0.0
H2115 H 0.58884 0.58283 0.10899 0.0
Cu2116 Cu 0.67221 0.40577 0.2874 0.0
N2117 N 0.64202 0.42355 0.31033 0.0
N2118 N 0.62129 0.45897 0.33525 0.0
C2119 C 0.64625 0.45004 0.31945 0.0
C2120 C 0.60034 0.43727 0.33608 0.0
C2121 C 0.61318 0.41538 0.3205 0.0
O2122 O 0.71071 0.39932 0.30987 0.0
C2123 C 0.7028 0.44848 0.25379 0.0
O2124 O 0.72852 0.44519 0.2696 0.0
H2125 H 0.66751 0.46241 0.31473 0.0
H2126 H 0.60221 0.39512 0.31688 0.0
N2127 N 0.65809 0.37184 0.27179 0.0
N2128 N 0.65463 0.33657 0.24094 0.0
C2129 C 0.6667 0.36237 0.24621 0.0
C2130 C 0.63998 0.35124 0.28314 0.0
C2131 C 0.63773 0.32943 0.26408 0.0
C2132 C 0.70933 0.38231 0.33053 0.0
O2133 O 0.68232 0.36869 0.33537 0.0
H2134 H 0.68175 0.37417 0.23184 0.0
H2135 H 0.62956 0.3518 0.30394 0.0
O2136 O 0.67857 0.43245 0.2572 0.0
H2137 H 0.57755 0.43714 0.34723 0.0
H2138 H 0.62477 0.3099 0.26703 0.0
Cu2139 Cu 0.1508 0.90179 1.0002 0.0
N2140 N 0.18248 0.90879 1.02692 0.0
N2141 N 0.21009 0.90575 0.06676 0.0
C2142 C 0.1814 0.90155 0.05419 0.0
C2143 C 0.23007 0.91595 0.04693 0.0
C2144 C 0.21279 0.91798 1.02226 0.0
O2145 O 0.11403 0.88343 1.019 0.0
C2146 C 0.19564 0.86511 0.97091 0.0
O2147 O 0.20525 0.85605 0.99558 0.0
H2148 H 0.16084 0.89155 0.06401 0.0
H2149 H 0.22217 0.9241 1.00196 0.0
N2150 N 0.13765 0.93587 0.98468 0.0
N2151 N 0.14016 0.97608 0.96089 0.0
C2152 C 0.15713 0.95605 0.9744 0.0
C2153 C 0.10749 0.94335 0.97717 0.0
C2154 C 0.10893 0.9683 0.96262 0.0
C2155 C 0.09507 0.89832 0.0341 0.0
O2156 O 0.1003 0.92542 0.03625 0.0
H2157 H 0.18319 0.95495 0.97505 0.0
H2158 H 0.08614 0.93077 0.98068 0.0
O2159 O 0.17131 0.88149 0.96917 0.0
H2160 H 0.25547 0.92039 0.04982 0.0
H2161 H 0.08883 0.97897 0.95279 0.0
Cu2162 Cu 0.38262 0.90577 0.27437 0.0
N2163 N 0.4128 0.92354 0.25143 0.0
N2164 N 0.43352 0.95895 0.22648 0.0
C2165 C 0.40858 0.95003 0.24231 0.0
C2166 C 0.45446 0.93723 0.22563 0.0
C2167 C 0.44162 0.91536 0.24121 0.0
O2168 O 0.34412 0.89933 0.2519 0.0
C2169 C 0.35203 0.94847 0.308 0.0
O2170 O 0.32629 0.94516 0.29221 0.0
H2171 H 0.38734 0.96242 0.24705 0.0
H2172 H 0.45257 0.89508 0.24482 0.0
N2173 N 0.39674 0.87184 0.28998 0.0
N2174 N 0.40019 0.83657 0.32083 0.0
C2175 C 0.38813 0.86238 0.31556 0.0
C2176 C 0.41484 0.85124 0.27863 0.0
C2177 C 0.41709 0.82942 0.29769 0.0
C2178 C 0.34549 0.88231 0.23125 0.0
O2179 O 0.37249 0.86867 0.22641 0.0
H2180 H 0.37307 0.87418 0.32993 0.0
H2181 H 0.42526 0.85179 0.25783 0.0
O2182 O 0.37627 0.93246 0.30457 0.0
H2183 H 0.47722 0.93708 0.21444 0.0
H2184 H 0.43005 0.80989 0.29475 0.0
Cu2185 Cu 0.17221 0.15604 0.77437 0.0
N2186 N 0.14202 0.13827 0.75143 0.0
N2187 N 0.1213 0.10286 0.72648 0.0
C2188 C 0.14624 0.11178 0.74231 0.0
C2189 C 0.10036 0.12458 0.72562 0.0
C2190 C 0.1132 0.14646 0.74121 0.0
O2191 O 0.21071 0.16248 0.7519 0.0
C2192 C 0.20279 0.11334 0.808 0.0
O2193 O 0.22853 0.11665 0.79221 0.0
H2194 H 0.16748 0.09939 0.74705 0.0
H2195 H 0.10225 0.16673 0.74482 0.0
N2196 N 0.15809 0.18997 0.78998 0.0
N2197 N 0.15463 0.22524 0.82083 0.0
C2198 C 0.16669 0.19944 0.81556 0.0
C2199 C 0.13999 0.21057 0.77863 0.0
C2200 C 0.13773 0.23239 0.79769 0.0
C2201 C 0.20934 0.17951 0.73125 0.0
O2202 O 0.18233 0.19314 0.72641 0.0
H2203 H 0.18175 0.18763 0.82993 0.0
H2204 H 0.12956 0.21002 0.75783 0.0
O2205 O 0.17855 0.12935 0.80457 0.0
H2206 H 0.0776 0.12473 0.71444 0.0
H2207 H 0.12478 0.25192 0.79474 0.0
loop_
_geom_bond_atom_site_label_1
_geom_bond_atom_site_label_2
_geom_bond_distance
_geom_bond_site_symmetry_2
_ccdc_geom_bond_type
Cu0 N1 1.999 . S
Cu0 O6 1.974 . S
Cu0 N11 1.985 1_455 S
Cu0 O20 1.959 1_455 S
N1 Cu0 1.999 . S
N1 C3 1.263 . S
N1 C5 1.389 . S
N2 C3 1.358 . S
N2 C4 1.400 . S
C3 N1 1.263 . S
C3 N2 1.358 . S
C3 H9 0.930 . S
C4 N2 1.400 . S
C4 C5 1.351 . S
C4 H21 0.930 . S
C5 N1 1.389 . S
C5 C4 1.351 . S
C5 H10 0.930 . S
O6 Cu0 1.974 . S
O6 C16 1.282 . S
C7 O8 1.261 . S
C7 O20 1.251 . S
O8 C7 1.261 . S
H9 C3 0.930 . S
H10 C5 0.930 . S
N11 Cu0 1.985 1_655 S
N11 C13 1.335 . S
N11 C14 1.390 . S
N12 C13 1.345 . S
N12 C15 1.336 . S
C13 N11 1.335 . S
C13 N12 1.345 . S
C13 H18 0.930 . S
C14 N11 1.390 . S
C14 C15 1.346 . S
C14 H19 0.930 1_655 S
C15 N12 1.336 . S
C15 C14 1.346 . S
C15 H22 0.929 . S
C16 O6 1.282 . S
C16 O17 1.216 . S
O17 C16 1.216 . S
H18 C13 0.930 . S
H19 C14 0.930 1_455 S
O20 Cu0 1.959 1_655 S
O20 C7 1.251 . S
H21 C4 0.930 . S
H22 C15 0.929 . S
Cu23 N24 1.999 . S
Cu23 O29 1.974 . S
Cu23 N34 1.985 . S
Cu23 O43 1.959 . S
N24 Cu23 1.999 . S
N24 C26 1.263 . S
N24 C28 1.389 . S
N25 C26 1.358 . S
N25 C27 1.400 . S
C26 N24 1.263 . S
C26 N25 1.358 . S
C26 H32 0.930 . S
C27 N25 1.400 . S
C27 C28 1.351 . S
C27 H44 0.930 . S
C28 N24 1.389 . S
C28 C27 1.351 . S
C28 H33 0.930 . S
O29 Cu23 1.974 . S
O29 C39 1.282 . S
C30 O31 1.261 . S
C30 O43 1.251 . S
O31 C30 1.261 . S
H32 C26 0.930 . S
H33 C28 0.930 . S
N34 Cu23 1.985 . S
N34 C36 1.335 . S
N34 C37 1.390 . S
N35 C36 1.345 . S
N35 C38 1.336 . S
C36 N34 1.335 . S
C36 N35 1.345 . S
C36 H41 0.930 . S
C37 N34 1.390 . S
C37 C38 1.346 . S
C37 H42 0.930 . S
C38 N35 1.336 . S
C38 C37 1.346 . S
C38 H45 0.929 . S
C39 O29 1.282 . S
C39 O40 1.216 . S
O40 C39 1.216 . S
H41 C36 0.930 . S
H42 C37 0.930 . S
O43 Cu23 1.959 . S
O43 C30 1.251 . S
H44 C27 0.930 . S
H45 C38 0.929 . S
Cu46 N47 1.999 . S
Cu46 O52 1.974 . S
Cu46 N57 1.985 . S
Cu46 O66 1.959 . S
N47 Cu46 1.999 . S
N47 C49 1.263 . S
N47 C51 1.389 . S
N48 C49 1.358 . S
N48 C50 1.400 . S
C49 N47 1.263 . S
C49 N48 1.358 . S
C49 H55 0.930 . S
C50 N48 1.400 . S
C50 C51 1.351 . S
C50 H67 0.930 . S
C51 N47 1.389 . S
C51 C50 1.351 . S
C51 H56 0.930 . S
O52 Cu46 1.974 . S
O52 C62 1.282 . S
C53 O54 1.261 . S
C53 O66 1.251 . S
O54 C53 1.261 . S
H55 C49 0.930 . S
H56 C51 0.930 . S
N57 Cu46 1.985 . S
N57 C59 1.335 . S
N57 C60 1.390 . S
N58 C59 1.345 . S
N58 C61 1.336 . S
C59 N57 1.335 . S
C59 N58 1.345 . S
C59 H64 0.930 . S
C60 N57 1.390 . S
C60 C61 1.346 . S
C60 H65 0.930 . S
C61 N58 1.336 . S
C61 C60 1.346 . S
C61 H68 0.929 . S
C62 O52 1.282 . S
C62 O63 1.216 . S
O63 C62 1.216 . S
H64 C59 0.930 . S
H65 C60 0.930 . S
O66 Cu46 1.959 . S
O66 C53 1.251 . S
H67 C50 0.930 . S
H68 C61 0.929 . S
Cu69 N70 1.999 . S
Cu69 O75 1.974 . S
Cu69 N80 1.985 . S
Cu69 O89 1.959 . S
N70 Cu69 1.999 . S
N70 C72 1.263 . S
N70 C74 1.389 . S
N71 C72 1.358 . S
N71 C73 1.400 . S
C72 N70 1.263 . S
C72 N71 1.358 . S
C72 H78 0.930 . S
C73 N71 1.400 . S
C73 C74 1.351 . S
C73 H90 0.930 . S
C74 N70 1.389 . S
C74 C73 1.351 . S
C74 H79 0.930 . S
O75 Cu69 1.974 . S
O75 C85 1.282 . S
C76 O77 1.261 . S
C76 O89 1.251 . S
O77 C76 1.261 . S
H78 C72 0.930 . S
H79 C74 0.930 . S
N80 Cu69 1.985 . S
N80 C82 1.335 . S
N80 C83 1.390 . S
N81 C82 1.345 . S
N81 C84 1.336 . S
C82 N80 1.335 . S
C82 N81 1.345 . S
C82 H87 0.930 . S
C83 N80 1.390 . S
C83 C84 1.346 . S
C83 H88 0.930 . S
C84 N81 1.336 . S
C84 C83 1.346 . S
C84 H91 0.929 . S
C85 O75 1.282 . S
C85 O86 1.216 . S
O86 C85 1.216 . S
H87 C82 0.930 . S
H88 C83 0.930 . S
O89 Cu69 1.959 . S
O89 C76 1.251 . S
H90 C73 0.930 . S
H91 C84 0.929 . S
Cu92 N93 1.999 . S
Cu92 O98 1.974 . S
Cu92 N103 1.985 1_455 S
Cu92 O112 1.959 1_455 S
N93 Cu92 1.999 . S
N93 C95 1.263 . S
N93 C97 1.389 . S
N94 C95 1.358 . S
N94 C96 1.400 . S
C95 N93 1.263 . S
C95 N94 1.358 . S
C95 H101 0.930 . S
C96 N94 1.400 . S
C96 C97 1.351 . S
C96 H113 0.930 . S
C97 N93 1.389 . S
C97 C96 1.351 . S
C97 H102 0.930 . S
O98 Cu92 1.974 . S
O98 C108 1.282 . S
C99 O100 1.261 . S
C99 O112 1.251 . S
O100 C99 1.261 . S
H101 C95 0.930 . S
H102 C97 0.930 . S
N103 Cu92 1.985 1_655 S
N103 C105 1.335 . S
N103 C106 1.390 . S
N104 C105 1.345 . S
N104 C107 1.336 . S
C105 N103 1.335 . S
C105 N104 1.345 . S
C105 H110 0.930 . S
C106 N103 1.390 . S
C106 C107 1.346 . S
C106 H111 0.930 1_655 S
C107 N104 1.336 . S
C107 C106 1.346 . S
C107 H114 0.929 . S
C108 O98 1.282 . S
C108 O109 1.216 . S
O109 C108 1.216 . S
H110 C105 0.930 . S
H111 C106 0.930 1_455 S
O112 Cu92 1.959 1_655 S
O112 C99 1.251 . S
H113 C96 0.930 . S
H114 C107 0.929 . S
Cu115 N116 1.999 . S
Cu115 O121 1.974 . S
Cu115 N126 1.985 . S
Cu115 O135 1.959 . S
N116 Cu115 1.999 . S
N116 C118 1.263 . S
N116 C120 1.389 . S
N117 C118 1.358 . S
N117 C119 1.400 . S
C118 N116 1.263 . S
C118 N117 1.358 . S
C118 H124 0.930 . S
C119 N117 1.400 . S
C119 C120 1.351 . S
C119 H136 0.930 . S
C120 N116 1.389 . S
C120 C119 1.351 . S
C120 H125 0.930 . S
O121 Cu115 1.974 . S
O121 C131 1.282 . S
C122 O123 1.261 . S
C122 O135 1.251 . S
O123 C122 1.261 . S
H124 C118 0.930 . S
H125 C120 0.930 . S
N126 Cu115 1.985 . S
N126 C128 1.335 . S
N126 C129 1.390 . S
N127 C128 1.345 . S
N127 C130 1.336 . S
C128 N126 1.335 . S
C128 N127 1.345 . S
C128 H133 0.930 . S
C129 N126 1.390 . S
C129 C130 1.346 . S
C129 H134 0.930 . S
C130 N127 1.336 . S
C130 C129 1.346 . S
C130 H137 0.929 . S
C131 O121 1.282 . S
C131 O132 1.216 . S
O132 C131 1.216 . S
H133 C128 0.930 . S
H134 C129 0.930 . S
O135 Cu115 1.959 . S
O135 C122 1.251 . S
H136 C119 0.930 . S
H137 C130 0.929 . S
Cu138 N139 1.999 . S
Cu138 O144 1.974 . S
Cu138 N149 1.985 . S
Cu138 O158 1.959 . S
N139 Cu138 1.999 . S
N139 C141 1.263 . S
N139 C143 1.389 . S
N140 C141 1.358 . S
N140 C142 1.400 . S
C141 N139 1.263 . S
C141 N140 1.358 . S
C141 H147 0.930 . S
C142 N140 1.400 . S
C142 C143 1.351 . S
C142 H159 0.930 . S
C143 N139 1.389 . S
C143 C142 1.351 . S
C143 H148 0.930 . S
O144 Cu138 1.974 . S
O144 C154 1.282 . S
C145 O146 1.261 . S
C145 O158 1.251 . S
O146 C145 1.261 . S
H147 C141 0.930 . S
H148 C143 0.930 . S
N149 Cu138 1.985 . S
N149 C151 1.335 . S
N149 C152 1.390 . S
N150 C151 1.345 . S
N150 C153 1.336 . S
C151 N149 1.335 . S
C151 N150 1.345 . S
C151 H156 0.930 . S
C152 N149 1.390 . S
C152 C153 1.346 . S
C152 H157 0.930 . S
C153 N150 1.336 . S
C153 C152 1.346 . S
C153 H160 0.929 . S
C154 O144 1.282 . S
C154 O155 1.216 . S
O155 C154 1.216 . S
H156 C151 0.930 . S
H157 C152 0.930 . S
O158 Cu138 1.959 . S
O158 C145 1.251 . S
H159 C142 0.930 . S
H160 C153 0.929 . S
Cu161 N162 1.999 . S
Cu161 O167 1.974 . S
Cu161 N172 1.985 . S
Cu161 O181 1.959 . S
N162 Cu161 1.999 . S
N162 C164 1.263 . S
N162 C166 1.389 . S
N163 C164 1.358 . S
N163 C165 1.400 . S
C164 N162 1.263 . S
C164 N163 1.358 . S
C164 H170 0.930 . S
C165 N163 1.400 . S
C165 C166 1.351 . S
C165 H182 0.930 . S
C166 N162 1.389 . S
C166 C165 1.351 . S
C166 H171 0.930 . S
O167 Cu161 1.974 . S
O167 C177 1.282 . S
C168 O169 1.261 . S
C168 O181 1.251 . S
O169 C168 1.261 . S
H170 C164 0.930 . S
H171 C166 0.930 . S
N172 Cu161 1.985 . S
N172 C174 1.335 . S
N172 C175 1.390 . S
N173 C174 1.345 . S
N173 C176 1.336 . S
C174 N172 1.335 . S
C174 N173 1.345 . S
C174 H179 0.930 . S
C175 N172 1.390 . S
C175 C176 1.346 . S
C175 H180 0.930 . S
C176 N173 1.336 . S
C176 C175 1.346 . S
C176 H183 0.929 . S
C177 O167 1.282 . S
C177 O178 1.216 . S
O178 C177 1.216 . S
H179 C174 0.930 . S
H180 C175 0.930 . S
O181 Cu161 1.959 . S
O181 C168 1.251 . S
H182 C165 0.930 . S
H183 C176 0.929 . S
Cu184 N185 1.999 . S
Cu184 O190 1.974 . S
Cu184 N195 1.985 1_545 S
Cu184 O204 1.959 1_545 S
N185 Cu184 1.999 . S
N185 C187 1.263 . S
N185 C189 1.389 . S
N186 C187 1.358 . S
N186 C188 1.400 . S
C187 N185 1.263 . S
C187 N186 1.358 . S
C187 H193 0.930 . S
C188 N186 1.400 . S
C188 C189 1.351 . S
C188 H205 0.930 . S
C189 N185 1.389 . S
C189 C188 1.351 . S
C189 H194 0.930 . S
O190 Cu184 1.974 . S
O190 C200 1.282 . S
C191 O192 1.261 . S
C191 O204 1.251 . S
O192 C191 1.261 . S
H193 C187 0.930 . S
H194 C189 0.930 . S
N195 Cu184 1.985 1_565 S
N195 C197 1.335 . S
N195 C198 1.390 . S
N196 C197 1.345 . S
N196 C199 1.336 . S
C197 N195 1.335 . S
C197 N196 1.345 . S
C197 H202 0.930 . S
C198 N195 1.390 . S
C198 C199 1.346 . S
C198 H203 0.930 1_565 S
C199 N196 1.336 . S
C199 C198 1.346 . S
C199 H206 0.929 . S
C200 O190 1.282 . S
C200 O201 1.216 . S
O201 C200 1.216 . S
H202 C197 0.930 . S
H203 C198 0.930 1_545 S
O204 Cu184 1.959 1_565 S
O204 C191 1.251 . S
H205 C188 0.930 . S
H206 C199 0.929 . S
Cu207 N208 1.999 . S
Cu207 O213 1.974 . S
Cu207 N218 1.985 . S
Cu207 O227 1.959 . S
N208 Cu207 1.999 . S
N208 C210 1.263 . S
N208 C212 1.389 . S
N209 C210 1.358 . S
N209 C211 1.400 . S
C210 N208 1.263 . S
C210 N209 1.358 . S
C210 H216 0.930 . S
C211 N209 1.400 . S
C211 C212 1.351 . S
C211 H228 0.930 . S
C212 N208 1.389 . S
C212 C211 1.351 . S
C212 H217 0.930 . S
O213 Cu207 1.974 . S
O213 C223 1.282 . S
C214 O215 1.261 . S
C214 O227 1.251 . S
O215 C214 1.261 . S
H216 C210 0.930 . S
H217 C212 0.930 . S
N218 Cu207 1.985 . S
N218 C220 1.335 . S
N218 C221 1.390 . S
N219 C220 1.345 . S
N219 C222 1.336 . S
C220 N218 1.335 . S
C220 N219 1.345 . S
C220 H225 0.930 . S
C221 N218 1.390 . S
C221 C222 1.346 . S
C221 H226 0.930 . S
C222 N219 1.336 . S
C222 C221 1.346 . S
C222 H229 0.929 . S
C223 O213 1.282 . S
C223 O224 1.216 . S
O224 C223 1.216 . S
H225 C220 0.930 . S
H226 C221 0.930 . S
O227 Cu207 1.959 . S
O227 C214 1.251 . S
H228 C211 0.930 . S
H229 C222 0.929 . S
Cu230 N231 1.999 . S
Cu230 O236 1.974 . S
Cu230 N241 1.985 1_565 S
Cu230 O250 1.959 1_565 S
N231 Cu230 1.999 . S
N231 C233 1.263 . S
N231 C235 1.389 . S
N232 C233 1.358 . S
N232 C234 1.400 . S
C233 N231 1.263 . S
C233 N232 1.358 . S
C233 H239 0.930 . S
C234 N232 1.400 . S
C234 C235 1.351 . S
C234 H251 0.930 . S
C235 N231 1.389 . S
C235 C234 1.351 . S
C235 H240 0.930 . S
O236 Cu230 1.974 . S
O236 C246 1.282 . S
C237 O238 1.261 . S
C237 O250 1.251 . S
O238 C237 1.261 . S
H239 C233 0.930 . S
H240 C235 0.930 . S
N241 Cu230 1.985 1_545 S
N241 C243 1.335 . S
N241 C244 1.390 . S
N242 C243 1.345 . S
N242 C245 1.336 . S
C243 N241 1.335 . S
C243 N242 1.345 . S
C243 H248 0.930 . S
C244 N241 1.390 . S
C244 C245 1.346 . S
C244 H249 0.930 1_545 S
C245 N242 1.336 . S
C245 C244 1.346 . S
C245 H252 0.929 . S
C246 O236 1.282 . S
C246 O247 1.216 . S
O247 C246 1.216 . S
H248 C243 0.930 . S
H249 C244 0.930 1_565 S
O250 Cu230 1.959 1_545 S
O250 C237 1.251 . S
H251 C234 0.930 . S
H252 C245 0.929 . S
Cu253 N254 1.999 . S
Cu253 O259 1.974 . S
Cu253 N264 1.985 . S
Cu253 O273 1.959 . S
N254 Cu253 1.999 . S
N254 C256 1.263 . S
N254 C258 1.389 . S
N255 C256 1.358 . S
N255 C257 1.400 . S
C256 N254 1.263 . S
C256 N255 1.358 . S
C256 H262 0.930 . S
C257 N255 1.400 . S
C257 C258 1.351 . S
C257 H274 0.930 . S
C258 N254 1.389 . S
C258 C257 1.351 . S
C258 H263 0.930 . S
O259 Cu253 1.974 . S
O259 C269 1.282 . S
C260 O261 1.261 . S
C260 O273 1.251 . S
O261 C260 1.261 . S
H262 C256 0.930 . S
H263 C258 0.930 . S
N264 Cu253 1.985 . S
N264 C266 1.335 . S
N264 C267 1.390 . S
N265 C266 1.345 . S
N265 C268 1.336 . S
C266 N264 1.335 . S
C266 N265 1.345 . S
C266 H271 0.930 . S
C267 N264 1.390 . S
C267 C268 1.346 . S
C267 H272 0.930 . S
C268 N265 1.336 . S
C268 C267 1.346 . S
C268 H275 0.929 . S
C269 O259 1.282 . S
C269 O270 1.216 . S
O270 C269 1.216 . S
H271 C266 0.930 . S
H272 C267 0.930 . S
O273 Cu253 1.959 . S
O273 C260 1.251 . S
H274 C257 0.930 . S
H275 C268 0.929 . S
Cu276 N277 1.999 . S
Cu276 O282 1.974 . S
Cu276 N287 1.985 1_565 S
Cu276 O296 1.959 1_565 S
N277 Cu276 1.999 . S
N277 C279 1.263 . S
N277 C281 1.389 . S
N278 C279 1.358 . S
N278 C280 1.400 . S
C279 N277 1.263 . S
C279 N278 1.358 . S
C279 H285 0.930 . S
C280 N278 1.400 . S
C280 C281 1.351 . S
C280 H297 0.930 . S
C281 N277 1.389 . S
C281 C280 1.351 . S
C281 H286 0.930 . S
O282 Cu276 1.974 . S
O282 C292 1.282 . S
C283 O284 1.261 . S
C283 O296 1.251 . S
O284 C283 1.261 . S
H285 C279 0.930 . S
H286 C281 0.930 . S
N287 Cu276 1.985 1_545 S
N287 C289 1.335 . S
N287 C290 1.390 . S
N288 C289 1.345 . S
N288 C291 1.336 . S
C289 N287 1.335 . S
C289 N288 1.345 . S
C289 H294 0.930 . S
C290 N287 1.390 . S
C290 C291 1.346 . S
C290 H295 0.930 1_545 S
C291 N288 1.336 . S
C291 C290 1.346 . S
C291 H298 0.929 . S
C292 O282 1.282 . S
C292 O293 1.216 . S
O293 C292 1.216 . S
H294 C289 0.930 . S
H295 C290 0.930 1_565 S
O296 Cu276 1.959 1_545 S
O296 C283 1.251 . S
H297 C280 0.930 . S
H298 C291 0.929 . S
Cu299 N300 1.999 . S
Cu299 O305 1.974 . S
Cu299 N310 1.985 . S
Cu299 O319 1.959 . S
N300 Cu299 1.999 . S
N300 C302 1.263 . S
N300 C304 1.389 . S
N301 C302 1.358 . S
N301 C303 1.400 . S
C302 N300 1.263 . S
C302 N301 1.358 . S
C302 H308 0.930 . S
C303 N301 1.400 . S
C303 C304 1.351 . S
C303 H320 0.930 . S
C304 N300 1.389 . S
C304 C303 1.351 . S
C304 H309 0.930 . S
O305 Cu299 1.974 . S
O305 C315 1.282 . S
C306 O307 1.261 . S
C306 O319 1.251 . S
O307 C306 1.261 . S
H308 C302 0.930 . S
H309 C304 0.930 . S
N310 Cu299 1.985 . S
N310 C312 1.335 . S
N310 C313 1.390 . S
N311 C312 1.345 . S
N311 C314 1.336 . S
C312 N310 1.335 . S
C312 N311 1.345 . S
C312 H317 0.930 . S
C313 N310 1.390 . S
C313 C314 1.346 . S
C313 H318 0.930 . S
C314 N311 1.336 . S
C314 C313 1.346 . S
C314 H321 0.929 . S
C315 O305 1.282 . S
C315 O316 1.216 . S
O316 C315 1.216 . S
H317 C312 0.930 . S
H318 C313 0.930 . S
O319 Cu299 1.959 . S
O319 C306 1.251 . S
H320 C303 0.930 . S
H321 C314 0.929 . S
Cu322 N323 1.999 . S
Cu322 O328 1.974 . S
Cu322 N333 1.985 1_545 S
Cu322 O342 1.959 1_545 S
N323 Cu322 1.999 . S
N323 C325 1.263 . S
N323 C327 1.389 . S
N324 C325 1.358 . S
N324 C326 1.400 . S
C325 N323 1.263 . S
C325 N324 1.358 . S
C325 H331 0.930 . S
C326 N324 1.400 . S
C326 C327 1.351 . S
C326 H343 0.930 . S
C327 N323 1.389 . S
C327 C326 1.351 . S
C327 H332 0.930 . S
O328 Cu322 1.974 . S
O328 C338 1.282 . S
C329 O330 1.261 . S
C329 O342 1.251 . S
O330 C329 1.261 . S
H331 C325 0.930 . S
H332 C327 0.930 . S
N333 Cu322 1.985 1_565 S
N333 C335 1.335 . S
N333 C336 1.390 . S
N334 C335 1.345 . S
N334 C337 1.336 . S
C335 N333 1.335 . S
C335 N334 1.345 . S
C335 H340 0.930 . S
C336 N333 1.390 . S
C336 C337 1.346 . S
C336 H341 0.930 1_565 S
C337 N334 1.336 . S
C337 C336 1.346 . S
C337 H344 0.929 . S
C338 O328 1.282 . S
C338 O339 1.216 . S
O339 C338 1.216 . S
H340 C335 0.930 . S
H341 C336 0.930 1_545 S
O342 Cu322 1.959 1_565 S
O342 C329 1.251 . S
H343 C326 0.930 . S
H344 C337 0.929 . S
Cu345 N346 1.999 . S
Cu345 O351 1.974 . S
Cu345 N356 1.985 . S
Cu345 O365 1.959 . S
N346 Cu345 1.999 . S
N346 C348 1.263 . S
N346 C350 1.389 . S
N347 C348 1.358 . S
N347 C349 1.400 . S
C348 N346 1.263 . S
C348 N347 1.358 . S
C348 H354 0.930 . S
C349 N347 1.400 . S
C349 C350 1.351 . S
C349 H366 0.930 . S
C350 N346 1.389 . S
C350 C349 1.351 . S
C350 H355 0.930 . S
O351 Cu345 1.974 . S
O351 C361 1.282 . S
C352 O353 1.261 . S
C352 O365 1.251 . S
O353 C352 1.261 . S
H354 C348 0.930 . S
H355 C350 0.930 . S
N356 Cu345 1.985 . S
N356 C358 1.335 . S
N356 C359 1.390 . S
N357 C358 1.345 . S
N357 C360 1.336 . S
C358 N356 1.335 . S
C358 N357 1.345 . S
C358 H363 0.930 . S
C359 N356 1.390 . S
C359 C360 1.346 . S
C359 H364 0.930 . S
C360 N357 1.336 . S
C360 C359 1.346 . S
C360 H367 0.929 . S
C361 O351 1.282 . S
C361 O362 1.216 . S
O362 C361 1.216 . S
H363 C358 0.930 . S
H364 C359 0.930 . S
O365 Cu345 1.959 . S
O365 C352 1.251 . S
H366 C349 0.930 . S
H367 C360 0.929 . S
Cu368 N369 1.999 . S
Cu368 O374 1.974 . S
Cu368 N379 1.985 1_554 S
Cu368 O388 1.959 1_554 S
N369 Cu368 1.999 . S
N369 C371 1.263 . S
N369 C373 1.389 . S
N370 C371 1.358 . S
N370 C372 1.400 . S
C371 N369 1.263 . S
C371 N370 1.358 . S
C371 H377 0.930 . S
C372 N370 1.400 . S
C372 C373 1.351 . S
C372 H389 0.930 . S
C373 N369 1.389 . S
C373 C372 1.351 . S
C373 H378 0.930 . S
O374 Cu368 1.974 . S
O374 C384 1.282 . S
C375 O376 1.261 . S
C375 O388 1.251 . S
O376 C375 1.261 . S
H377 C371 0.930 . S
H378 C373 0.930 . S
N379 Cu368 1.985 1_556 S
N379 C381 1.335 . S
N379 C382 1.390 . S
N380 C381 1.345 . S
N380 C383 1.336 . S
C381 N379 1.335 . S
C381 N380 1.345 . S
C381 H386 0.930 . S
C382 N379 1.390 . S
C382 C383 1.346 . S
C382 H387 0.930 1_556 S
C383 N380 1.336 . S
C383 C382 1.346 . S
C383 H390 0.929 . S
C384 O374 1.282 . S
C384 O385 1.216 . S
O385 C384 1.216 . S
H386 C381 0.930 . S
H387 C382 0.930 1_554 S
O388 Cu368 1.959 1_556 S
O388 C375 1.251 . S
H389 C372 0.930 . S
H390 C383 0.929 . S
Cu391 N392 1.999 . S
Cu391 O397 1.974 . S
Cu391 N402 1.985 1_556 S
Cu391 O411 1.959 1_556 S
N392 Cu391 1.999 . S
N392 C394 1.263 . S
N392 C396 1.389 . S
N393 C394 1.358 . S
N393 C395 1.400 . S
C394 N392 1.263 . S
C394 N393 1.358 . S
C394 H400 0.930 . S
C395 N393 1.400 . S
C395 C396 1.351 . S
C395 H412 0.930 . S
C396 N392 1.389 . S
C396 C395 1.351 . S
C396 H401 0.930 . S
O397 Cu391 1.974 . S
O397 C407 1.282 . S
C398 O399 1.261 . S
C398 O411 1.251 . S
O399 C398 1.261 . S
H400 C394 0.930 . S
H401 C396 0.930 . S
N402 Cu391 1.985 1_554 S
N402 C404 1.335 . S
N402 C405 1.390 . S
N403 C404 1.345 . S
N403 C406 1.336 . S
C404 N402 1.335 . S
C404 N403 1.345 . S
C404 H409 0.930 . S
C405 N402 1.390 . S
C405 C406 1.346 . S
C405 H410 0.930 1_554 S
C406 N403 1.336 . S
C406 C405 1.346 . S
C406 H413 0.929 . S
C407 O397 1.282 . S
C407 O408 1.216 . S
O408 C407 1.216 . S
H409 C404 0.930 . S
H410 C405 0.930 1_556 S
O411 Cu391 1.959 1_554 S
O411 C398 1.251 . S
H412 C395 0.930 . S
H413 C406 0.929 . S
Cu414 N415 1.999 . S
Cu414 O420 1.974 . S
Cu414 N425 1.985 . S
Cu414 O434 1.959 . S
N415 Cu414 1.999 . S
N415 C417 1.263 . S
N415 C419 1.389 . S
N416 C417 1.358 . S
N416 C418 1.400 . S
C417 N415 1.263 . S
C417 N416 1.358 . S
C417 H423 0.930 . S
C418 N416 1.400 . S
C418 C419 1.351 . S
C418 H435 0.930 . S
C419 N415 1.389 . S
C419 C418 1.351 . S
C419 H424 0.930 . S
O420 Cu414 1.974 . S
O420 C430 1.282 . S
C421 O422 1.261 . S
C421 O434 1.251 . S
O422 C421 1.261 . S
H423 C417 0.930 . S
H424 C419 0.930 . S
N425 Cu414 1.985 . S
N425 C427 1.335 . S
N425 C428 1.390 . S
N426 C427 1.345 . S
N426 C429 1.336 . S
C427 N425 1.335 . S
C427 N426 1.345 . S
C427 H432 0.930 . S
C428 N425 1.390 . S
C428 C429 1.346 . S
C428 H433 0.930 . S
C429 N426 1.336 . S
C429 C428 1.346 . S
C429 H436 0.929 . S
C430 O420 1.282 . S
C430 O431 1.216 . S
O431 C430 1.216 . S
H432 C427 0.930 . S
H433 C428 0.930 . S
O434 Cu414 1.959 . S
O434 C421 1.251 . S
H435 C418 0.930 . S
H436 C429 0.929 . S
Cu437 N438 1.999 . S
Cu437 O443 1.974 . S
Cu437 N448 1.985 . S
Cu437 O457 1.959 . S
N438 Cu437 1.999 . S
N438 C440 1.263 . S
N438 C442 1.389 . S
N439 C440 1.358 . S
N439 C441 1.400 . S
C440 N438 1.263 . S
C440 N439 1.358 . S
C440 H446 0.930 . S
C441 N439 1.400 . S
C441 C442 1.351 . S
C441 H458 0.930 . S
C442 N438 1.389 . S
C442 C441 1.351 . S
C442 H447 0.930 . S
O443 Cu437 1.974 . S
O443 C453 1.282 . S
C444 O445 1.261 . S
C444 O457 1.251 . S
O445 C444 1.261 . S
H446 C440 0.930 . S
H447 C442 0.930 . S
N448 Cu437 1.985 . S
N448 C450 1.335 . S
N448 C451 1.390 . S
N449 C450 1.345 . S
N449 C452 1.336 . S
C450 N448 1.335 . S
C450 N449 1.345 . S
C450 H455 0.930 . S
C451 N448 1.390 . S
C451 C452 1.346 . S
C451 H456 0.930 . S
C452 N449 1.336 . S
C452 C451 1.346 . S
C452 H459 0.929 . S
C453 O443 1.282 . S
C453 O454 1.216 . S
O454 C453 1.216 . S
H455 C450 0.930 . S
H456 C451 0.930 . S
O457 Cu437 1.959 . S
O457 C444 1.251 . S
H458 C441 0.930 . S
H459 C452 0.929 . S
Cu460 N461 1.999 . S
Cu460 O466 1.974 . S
Cu460 N471 1.985 . S
Cu460 O480 1.959 . S
N461 Cu460 1.999 . S
N461 C463 1.263 . S
N461 C465 1.389 . S
N462 C463 1.358 . S
N462 C464 1.400 . S
C463 N461 1.263 . S
C463 N462 1.358 . S
C463 H469 0.930 . S
C464 N462 1.400 . S
C464 C465 1.351 . S
C464 H481 0.930 . S
C465 N461 1.389 . S
C465 C464 1.351 . S
C465 H470 0.930 . S
O466 Cu460 1.974 . S
O466 C476 1.282 . S
C467 O468 1.261 . S
C467 O480 1.251 . S
O468 C467 1.261 . S
H469 C463 0.930 . S
H470 C465 0.930 . S
N471 Cu460 1.985 . S
N471 C473 1.335 . S
N471 C474 1.390 . S
N472 C473 1.345 . S
N472 C475 1.336 . S
C473 N471 1.335 . S
C473 N472 1.345 . S
C473 H478 0.930 . S
C474 N471 1.390 . S
C474 C475 1.346 . S
C474 H479 0.930 . S
C475 N472 1.336 . S
C475 C474 1.346 . S
C475 H482 0.929 . S
C476 O466 1.282 . S
C476 O477 1.216 . S
O477 C476 1.216 . S
H478 C473 0.930 . S
H479 C474 0.930 . S
O480 Cu460 1.959 . S
O480 C467 1.251 . S
H481 C464 0.930 . S
H482 C475 0.929 . S
Cu483 N484 1.999 . S
Cu483 O489 1.974 . S
Cu483 N494 1.985 . S
Cu483 O503 1.959 . S
N484 Cu483 1.999 . S
N484 C486 1.263 . S
N484 C488 1.389 . S
N485 C486 1.358 . S
N485 C487 1.400 . S
C486 N484 1.263 . S
C486 N485 1.358 . S
C486 H492 0.930 . S
C487 N485 1.400 . S
C487 C488 1.351 . S
C487 H504 0.930 . S
C488 N484 1.389 . S
C488 C487 1.351 . S
C488 H493 0.930 . S
O489 Cu483 1.974 . S
O489 C499 1.282 . S
C490 O491 1.261 . S
C490 O503 1.251 . S
O491 C490 1.261 . S
H492 C486 0.930 . S
H493 C488 0.930 . S
N494 Cu483 1.985 . S
N494 C496 1.335 . S
N494 C497 1.390 . S
N495 C496 1.345 . S
N495 C498 1.336 . S
C496 N494 1.335 . S
C496 N495 1.345 . S
C496 H501 0.930 . S
C497 N494 1.390 . S
C497 C498 1.346 . S
C497 H502 0.930 . S
C498 N495 1.336 . S
C498 C497 1.346 . S
C498 H505 0.929 . S
C499 O489 1.282 . S
C499 O500 1.216 . S
O500 C499 1.216 . S
H501 C496 0.930 . S
H502 C497 0.930 . S
O503 Cu483 1.959 . S
O503 C490 1.251 . S
H504 C487 0.930 . S
H505 C498 0.929 . S
Cu506 N507 1.999 . S
Cu506 O512 1.974 . S
Cu506 N517 1.985 . S
Cu506 O526 1.959 . S
N507 Cu506 1.999 . S
N507 C509 1.263 . S
N507 C511 1.389 . S
N508 C509 1.358 . S
N508 C510 1.400 . S
C509 N507 1.263 . S
C509 N508 1.358 . S
C509 H515 0.930 . S
C510 N508 1.400 . S
C510 C511 1.351 . S
C510 H527 0.930 . S
C511 N507 1.389 . S
C511 C510 1.351 . S
C511 H516 0.930 . S
O512 Cu506 1.974 . S
O512 C522 1.282 . S
C513 O514 1.261 . S
C513 O526 1.251 . S
O514 C513 1.261 . S
H515 C509 0.930 . S
H516 C511 0.930 . S
N517 Cu506 1.985 . S
N517 C519 1.335 . S
N517 C520 1.390 . S
N518 C519 1.345 . S
N518 C521 1.336 . S
C519 N517 1.335 . S
C519 N518 1.345 . S
C519 H524 0.930 . S
C520 N517 1.390 . S
C520 C521 1.346 . S
C520 H525 0.930 . S
C521 N518 1.336 . S
C521 C520 1.346 . S
C521 H528 0.929 . S
C522 O512 1.282 . S
C522 O523 1.216 . S
O523 C522 1.216 . S
H524 C519 0.930 . S
H525 C520 0.930 . S
O526 Cu506 1.959 . S
O526 C513 1.251 . S
H527 C510 0.930 . S
H528 C521 0.929 . S
Cu529 N530 1.999 . S
Cu529 O535 1.974 . S
Cu529 N540 1.985 . S
Cu529 O549 1.959 . S
N530 Cu529 1.999 . S
N530 C532 1.263 . S
N530 C534 1.389 . S
N531 C532 1.358 . S
N531 C533 1.400 . S
C532 N530 1.263 . S
C532 N531 1.358 . S
C532 H538 0.930 . S
C533 N531 1.400 . S
C533 C534 1.351 . S
C533 H550 0.930 . S
C534 N530 1.389 . S
C534 C533 1.351 . S
C534 H539 0.930 . S
O535 Cu529 1.974 . S
O535 C545 1.282 . S
C536 O537 1.261 . S
C536 O549 1.251 . S
O537 C536 1.261 . S
H538 C532 0.930 . S
H539 C534 0.930 . S
N540 Cu529 1.985 . S
N540 C542 1.335 . S
N540 C543 1.390 . S
N541 C542 1.345 . S
N541 C544 1.336 . S
C542 N540 1.335 . S
C542 N541 1.345 . S
C542 H547 0.930 . S
C543 N540 1.390 . S
C543 C544 1.346 . S
C543 H548 0.930 . S
C544 N541 1.336 . S
C544 C543 1.346 . S
C544 H551 0.929 . S
C545 O535 1.282 . S
C545 O546 1.216 . S
O546 C545 1.216 . S
H547 C542 0.930 . S
H548 C543 0.930 . S
O549 Cu529 1.959 . S
O549 C536 1.251 . S
H550 C533 0.930 . S
H551 C544 0.929 . S
Cu552 N553 1.999 . S
Cu552 O558 1.974 . S
Cu552 N563 1.985 1_655 S
Cu552 O572 1.959 1_655 S
N553 Cu552 1.999 . S
N553 C555 1.263 . S
N553 C557 1.389 . S
N554 C555 1.358 . S
N554 C556 1.400 . S
C555 N553 1.263 . S
C555 N554 1.358 . S
C555 H561 0.930 . S
C556 N554 1.400 . S
C556 C557 1.351 . S
C556 H573 0.930 . S
C557 N553 1.389 . S
C557 C556 1.351 . S
C557 H562 0.930 . S
O558 Cu552 1.974 . S
O558 C568 1.282 . S
C559 O560 1.261 . S
C559 O572 1.251 . S
O560 C559 1.261 . S
H561 C555 0.930 . S
H562 C557 0.930 . S
N563 Cu552 1.985 1_455 S
N563 C565 1.335 . S
N563 C566 1.390 . S
N564 C565 1.345 . S
N564 C567 1.336 . S
C565 N563 1.335 . S
C565 N564 1.345 . S
C565 H570 0.930 . S
C566 N563 1.390 . S
C566 C567 1.346 . S
C566 H571 0.930 1_455 S
C567 N564 1.336 . S
C567 C566 1.346 . S
C567 H574 0.929 . S
C568 O558 1.282 . S
C568 O569 1.216 . S
O569 C568 1.216 . S
H570 C565 0.930 . S
H571 C566 0.930 1_655 S
O572 Cu552 1.959 1_455 S
O572 C559 1.251 . S
H573 C556 0.930 . S
H574 C567 0.929 . S
Cu575 N576 1.999 . S
Cu575 O581 1.974 . S
Cu575 N586 1.985 . S
Cu575 O595 1.959 . S
N576 Cu575 1.999 . S
N576 C578 1.263 . S
N576 C580 1.389 . S
N577 C578 1.358 . S
N577 C579 1.400 . S
C578 N576 1.263 . S
C578 N577 1.358 . S
C578 H584 0.930 . S
C579 N577 1.400 . S
C579 C580 1.351 . S
C579 H596 0.930 . S
C580 N576 1.389 . S
C580 C579 1.351 . S
C580 H585 0.930 . S
O581 Cu575 1.974 . S
O581 C591 1.282 . S
C582 O583 1.261 . S
C582 O595 1.251 . S
O583 C582 1.261 . S
H584 C578 0.930 . S
H585 C580 0.930 . S
N586 Cu575 1.985 . S
N586 C588 1.335 . S
N586 C589 1.390 . S
N587 C588 1.345 . S
N587 C590 1.336 . S
C588 N586 1.335 . S
C588 N587 1.345 . S
C588 H593 0.930 . S
C589 N586 1.390 . S
C589 C590 1.346 . S
C589 H594 0.930 . S
C590 N587 1.336 . S
C590 C589 1.346 . S
C590 H597 0.929 . S
C591 O581 1.282 . S
C591 O592 1.216 . S
O592 C591 1.216 . S
H593 C588 0.930 . S
H594 C589 0.930 . S
O595 Cu575 1.959 . S
O595 C582 1.251 . S
H596 C579 0.930 . S
H597 C590 0.929 . S
Cu598 N599 1.999 . S
Cu598 O604 1.974 . S
Cu598 N609 1.985 . S
Cu598 O618 1.959 . S
N599 Cu598 1.999 . S
N599 C601 1.263 . S
N599 C603 1.389 . S
N600 C601 1.358 . S
N600 C602 1.400 . S
C601 N599 1.263 . S
C601 N600 1.358 . S
C601 H607 0.930 . S
C602 N600 1.400 . S
C602 C603 1.351 . S
C602 H619 0.930 . S
C603 N599 1.389 . S
C603 C602 1.351 . S
C603 H608 0.930 . S
O604 Cu598 1.974 . S
O604 C614 1.282 . S
C605 O606 1.261 . S
C605 O618 1.251 . S
O606 C605 1.261 . S
H607 C601 0.930 . S
H608 C603 0.930 . S
N609 Cu598 1.985 . S
N609 C611 1.335 . S
N609 C612 1.390 . S
N610 C611 1.345 . S
N610 C613 1.336 . S
C611 N609 1.335 . S
C611 N610 1.345 . S
C611 H616 0.930 . S
C612 N609 1.390 . S
C612 C613 1.346 . S
C612 H617 0.930 . S
C613 N610 1.336 . S
C613 C612 1.346 . S
C613 H620 0.929 . S
C614 O604 1.282 . S
C614 O615 1.216 . S
O615 C614 1.216 . S
H616 C611 0.930 . S
H617 C612 0.930 . S
O618 Cu598 1.959 . S
O618 C605 1.251 . S
H619 C602 0.930 . S
H620 C613 0.929 . S
Cu621 N622 1.999 . S
Cu621 O627 1.974 . S
Cu621 N632 1.985 . S
Cu621 O641 1.959 . S
N622 Cu621 1.999 . S
N622 C624 1.263 . S
N622 C626 1.389 . S
N623 C624 1.358 . S
N623 C625 1.400 . S
C624 N622 1.263 . S
C624 N623 1.358 . S
C624 H630 0.930 . S
C625 N623 1.400 . S
C625 C626 1.351 . S
C625 H642 0.930 . S
C626 N622 1.389 . S
C626 C625 1.351 . S
C626 H631 0.930 . S
O627 Cu621 1.974 . S
O627 C637 1.282 . S
C628 O629 1.261 . S
C628 O641 1.251 . S
O629 C628 1.261 . S
H630 C624 0.930 . S
H631 C626 0.930 . S
N632 Cu621 1.985 . S
N632 C634 1.335 . S
N632 C635 1.390 . S
N633 C634 1.345 . S
N633 C636 1.336 . S
C634 N632 1.335 . S
C634 N633 1.345 . S
C634 H639 0.930 . S
C635 N632 1.390 . S
C635 C636 1.346 . S
C635 H640 0.930 . S
C636 N633 1.336 . S
C636 C635 1.346 . S
C636 H643 0.929 . S
C637 O627 1.282 . S
C637 O638 1.216 . S
O638 C637 1.216 . S
H639 C634 0.930 . S
H640 C635 0.930 . S
O641 Cu621 1.959 . S
O641 C628 1.251 . S
H642 C625 0.930 . S
H643 C636 0.929 . S
Cu644 N645 1.999 . S
Cu644 O650 1.974 . S
Cu644 N655 1.985 1_655 S
Cu644 O664 1.959 1_655 S
N645 Cu644 1.999 . S
N645 C647 1.263 . S
N645 C649 1.389 . S
N646 C647 1.358 . S
N646 C648 1.400 . S
C647 N645 1.263 . S
C647 N646 1.358 . S
C647 H653 0.930 . S
C648 N646 1.400 . S
C648 C649 1.351 . S
C648 H665 0.930 . S
C649 N645 1.389 . S
C649 C648 1.351 . S
C649 H654 0.930 . S
O650 Cu644 1.974 . S
O650 C660 1.282 . S
C651 O652 1.261 . S
C651 O664 1.251 . S
O652 C651 1.261 . S
H653 C647 0.930 . S
H654 C649 0.930 . S
N655 Cu644 1.985 1_455 S
N655 C657 1.335 . S
N655 C658 1.390 . S
N656 C657 1.345 . S
N656 C659 1.336 . S
C657 N655 1.335 . S
C657 N656 1.345 . S
C657 H662 0.930 . S
C658 N655 1.390 . S
C658 C659 1.346 . S
C658 H663 0.930 1_455 S
C659 N656 1.336 . S
C659 C658 1.346 . S
C659 H666 0.929 . S
C660 O650 1.282 . S
C660 O661 1.216 . S
O661 C660 1.216 . S
H662 C657 0.930 . S
H663 C658 0.930 1_655 S
O664 Cu644 1.959 1_455 S
O664 C651 1.251 . S
H665 C648 0.930 . S
H666 C659 0.929 . S
Cu667 N668 1.999 . S
Cu667 O673 1.974 . S
Cu667 N678 1.985 . S
Cu667 O687 1.959 . S
N668 Cu667 1.999 . S
N668 C670 1.263 . S
N668 C672 1.389 . S
N669 C670 1.358 . S
N669 C671 1.400 . S
C670 N668 1.263 . S
C670 N669 1.358 . S
C670 H676 0.930 . S
C671 N669 1.400 . S
C671 C672 1.351 . S
C671 H688 0.930 . S
C672 N668 1.389 . S
C672 C671 1.351 . S
C672 H677 0.930 . S
O673 Cu667 1.974 . S
O673 C683 1.282 . S
C674 O675 1.261 . S
C674 O687 1.251 . S
O675 C674 1.261 . S
H676 C670 0.930 . S
H677 C672 0.930 . S
N678 Cu667 1.985 . S
N678 C680 1.335 . S
N678 C681 1.390 . S
N679 C680 1.345 . S
N679 C682 1.336 . S
C680 N678 1.335 . S
C680 N679 1.345 . S
C680 H685 0.930 . S
C681 N678 1.390 . S
C681 C682 1.346 . S
C681 H686 0.930 . S
C682 N679 1.336 . S
C682 C681 1.346 . S
C682 H689 0.929 . S
C683 O673 1.282 . S
C683 O684 1.216 . S
O684 C683 1.216 . S
H685 C680 0.930 . S
H686 C681 0.930 . S
O687 Cu667 1.959 . S
O687 C674 1.251 . S
H688 C671 0.930 . S
H689 C682 0.929 . S
Cu690 N691 1.999 . S
Cu690 O696 1.974 . S
Cu690 N701 1.985 . S
Cu690 O710 1.959 . S
N691 Cu690 1.999 . S
N691 C693 1.263 . S
N691 C695 1.389 . S
N692 C693 1.358 . S
N692 C694 1.400 . S
C693 N691 1.263 . S
C693 N692 1.358 . S
C693 H699 0.930 . S
C694 N692 1.400 . S
C694 C695 1.351 . S
C694 H711 0.930 . S
C695 N691 1.389 . S
C695 C694 1.351 . S
C695 H700 0.930 . S
O696 Cu690 1.974 . S
O696 C706 1.282 . S
C697 O698 1.261 . S
C697 O710 1.251 . S
O698 C697 1.261 . S
H699 C693 0.930 . S
H700 C695 0.930 . S
N701 Cu690 1.985 . S
N701 C703 1.335 . S
N701 C704 1.390 . S
N702 C703 1.345 . S
N702 C705 1.336 . S
C703 N701 1.335 . S
C703 N702 1.345 . S
C703 H708 0.930 . S
C704 N701 1.390 . S
C704 C705 1.346 . S
C704 H709 0.930 . S
C705 N702 1.336 . S
C705 C704 1.346 . S
C705 H712 0.929 . S
C706 O696 1.282 . S
C706 O707 1.216 . S
O707 C706 1.216 . S
H708 C703 0.930 . S
H709 C704 0.930 . S
O710 Cu690 1.959 . S
O710 C697 1.251 . S
H711 C694 0.930 . S
H712 C705 0.929 . S
Cu713 N714 1.999 . S
Cu713 O719 1.974 . S
Cu713 N724 1.985 . S
Cu713 O733 1.959 . S
N714 Cu713 1.999 . S
N714 C716 1.263 . S
N714 C718 1.389 . S
N715 C716 1.358 . S
N715 C717 1.400 . S
C716 N714 1.263 . S
C716 N715 1.358 . S
C716 H722 0.930 . S
C717 N715 1.400 . S
C717 C718 1.351 . S
C717 H734 0.930 . S
C718 N714 1.389 . S
C718 C717 1.351 . S
C718 H723 0.930 . S
O719 Cu713 1.974 . S
O719 C729 1.282 . S
C720 O721 1.261 . S
C720 O733 1.251 . S
O721 C720 1.261 . S
H722 C716 0.930 . S
H723 C718 0.930 . S
N724 Cu713 1.985 . S
N724 C726 1.335 . S
N724 C727 1.390 . S
N725 C726 1.345 . S
N725 C728 1.336 . S
C726 N724 1.335 . S
C726 N725 1.345 . S
C726 H731 0.930 . S
C727 N724 1.390 . S
C727 C728 1.346 . S
C727 H732 0.930 . S
C728 N725 1.336 . S
C728 C727 1.346 . S
C728 H735 0.929 . S
C729 O719 1.282 . S
C729 O730 1.216 . S
O730 C729 1.216 . S
H731 C726 0.930 . S
H732 C727 0.930 . S
O733 Cu713 1.959 . S
O733 C720 1.251 . S
H734 C717 0.930 . S
H735 C728 0.929 . S
Cu736 N737 1.999 . S
Cu736 O742 1.974 . S
Cu736 N747 1.985 1_565 S
Cu736 O756 1.959 1_565 S
N737 Cu736 1.999 . S
N737 C739 1.263 . S
N737 C741 1.389 . S
N738 C739 1.358 . S
N738 C740 1.400 . S
C739 N737 1.263 . S
C739 N738 1.358 . S
C739 H745 0.930 . S
C740 N738 1.400 . S
C740 C741 1.351 . S
C740 H757 0.930 . S
C741 N737 1.389 . S
C741 C740 1.351 . S
C741 H746 0.930 . S
O742 Cu736 1.974 . S
O742 C752 1.282 . S
C743 O744 1.261 . S
C743 O756 1.251 . S
O744 C743 1.261 . S
H745 C739 0.930 . S
H746 C741 0.930 . S
N747 Cu736 1.985 1_545 S
N747 C749 1.335 . S
N747 C750 1.390 . S
N748 C749 1.345 . S
N748 C751 1.336 . S
C749 N747 1.335 . S
C749 N748 1.345 . S
C749 H754 0.930 . S
C750 N747 1.390 . S
C750 C751 1.346 . S
C750 H755 0.930 1_545 S
C751 N748 1.336 . S
C751 C750 1.346 . S
C751 H758 0.929 . S
C752 O742 1.282 . S
C752 O753 1.216 . S
O753 C752 1.216 . S
H754 C749 0.930 . S
H755 C750 0.930 1_565 S
O756 Cu736 1.959 1_545 S
O756 C743 1.251 . S
H757 C740 0.930 . S
H758 C751 0.929 . S
Cu759 N760 1.999 . S
Cu759 O765 1.974 . S
Cu759 N770 1.985 . S
Cu759 O779 1.959 . S
N760 Cu759 1.999 . S
N760 C762 1.263 . S
N760 C764 1.389 . S
N761 C762 1.358 . S
N761 C763 1.400 . S
C762 N760 1.263 . S
C762 N761 1.358 . S
C762 H768 0.930 . S
C763 N761 1.400 . S
C763 C764 1.351 . S
C763 H780 0.930 . S
C764 N760 1.389 . S
C764 C763 1.351 . S
C764 H769 0.930 . S
O765 Cu759 1.974 . S
O765 C775 1.282 . S
C766 O767 1.261 . S
C766 O779 1.251 . S
O767 C766 1.261 . S
H768 C762 0.930 . S
H769 C764 0.930 . S
N770 Cu759 1.985 . S
N770 C772 1.335 . S
N770 C773 1.390 . S
N771 C772 1.345 . S
N771 C774 1.336 . S
C772 N770 1.335 . S
C772 N771 1.345 . S
C772 H777 0.930 . S
C773 N770 1.390 . S
C773 C774 1.346 . S
C773 H778 0.930 . S
C774 N771 1.336 . S
C774 C773 1.346 . S
C774 H781 0.929 . S
C775 O765 1.282 . S
C775 O776 1.216 . S
O776 C775 1.216 . S
H777 C772 0.930 . S
H778 C773 0.930 . S
O779 Cu759 1.959 . S
O779 C766 1.251 . S
H780 C763 0.930 . S
H781 C774 0.929 . S
Cu782 N783 1.999 . S
Cu782 O788 1.974 . S
Cu782 N793 1.985 1_545 S
Cu782 O802 1.959 1_545 S
N783 Cu782 1.999 . S
N783 C785 1.263 . S
N783 C787 1.389 . S
N784 C785 1.358 . S
N784 C786 1.400 . S
C785 N783 1.263 . S
C785 N784 1.358 . S
C785 H791 0.930 . S
C786 N784 1.400 . S
C786 C787 1.351 . S
C786 H803 0.930 . S
C787 N783 1.389 . S
C787 C786 1.351 . S
C787 H792 0.930 . S
O788 Cu782 1.974 . S
O788 C798 1.282 . S
C789 O790 1.261 . S
C789 O802 1.251 . S
O790 C789 1.261 . S
H791 C785 0.930 . S
H792 C787 0.930 . S
N793 Cu782 1.985 1_565 S
N793 C795 1.335 . S
N793 C796 1.390 . S
N794 C795 1.345 . S
N794 C797 1.336 . S
C795 N793 1.335 . S
C795 N794 1.345 . S
C795 H800 0.930 . S
C796 N793 1.390 . S
C796 C797 1.346 . S
C796 H801 0.930 1_565 S
C797 N794 1.336 . S
C797 C796 1.346 . S
C797 H804 0.929 . S
C798 O788 1.282 . S
C798 O799 1.216 . S
O799 C798 1.216 . S
H800 C795 0.930 . S
H801 C796 0.930 1_545 S
O802 Cu782 1.959 1_565 S
O802 C789 1.251 . S
H803 C786 0.930 . S
H804 C797 0.929 . S
Cu805 N806 1.999 . S
Cu805 O811 1.974 . S
Cu805 N816 1.985 . S
Cu805 O825 1.959 . S
N806 Cu805 1.999 . S
N806 C808 1.263 . S
N806 C810 1.389 . S
N807 C808 1.358 . S
N807 C809 1.400 . S
C808 N806 1.263 . S
C808 N807 1.358 . S
C808 H814 0.930 . S
C809 N807 1.400 . S
C809 C810 1.351 . S
C809 H826 0.930 . S
C810 N806 1.389 . S
C810 C809 1.351 . S
C810 H815 0.930 . S
O811 Cu805 1.974 . S
O811 C821 1.282 . S
C812 O813 1.261 . S
C812 O825 1.251 . S
O813 C812 1.261 . S
H814 C808 0.930 . S
H815 C810 0.930 . S
N816 Cu805 1.985 . S
N816 C818 1.335 . S
N816 C819 1.390 . S
N817 C818 1.345 . S
N817 C820 1.336 . S
C818 N816 1.335 . S
C818 N817 1.345 . S
C818 H823 0.930 . S
C819 N816 1.390 . S
C819 C820 1.346 . S
C819 H824 0.930 . S
C820 N817 1.336 . S
C820 C819 1.346 . S
C820 H827 0.929 . S
C821 O811 1.282 . S
C821 O822 1.216 . S
O822 C821 1.216 . S
H823 C818 0.930 . S
H824 C819 0.930 . S
O825 Cu805 1.959 . S
O825 C812 1.251 . S
H826 C809 0.930 . S
H827 C820 0.929 . S
Cu828 N829 1.999 . S
Cu828 O834 1.974 . S
Cu828 N839 1.985 1_545 S
Cu828 O848 1.959 1_545 S
N829 Cu828 1.999 . S
N829 C831 1.263 . S
N829 C833 1.389 . S
N830 C831 1.358 . S
N830 C832 1.400 . S
C831 N829 1.263 . S
C831 N830 1.358 . S
C831 H837 0.930 . S
C832 N830 1.400 . S
C832 C833 1.351 . S
C832 H849 0.930 . S
C833 N829 1.389 . S
C833 C832 1.351 . S
C833 H838 0.930 . S
O834 Cu828 1.974 . S
O834 C844 1.282 . S
C835 O836 1.261 . S
C835 O848 1.251 . S
O836 C835 1.261 . S
H837 C831 0.930 . S
H838 C833 0.930 . S
N839 Cu828 1.985 1_565 S
N839 C841 1.335 . S
N839 C842 1.390 . S
N840 C841 1.345 . S
N840 C843 1.336 . S
C841 N839 1.335 . S
C841 N840 1.345 . S
C841 H846 0.930 . S
C842 N839 1.390 . S
C842 C843 1.346 . S
C842 H847 0.930 1_565 S
C843 N840 1.336 . S
C843 C842 1.346 . S
C843 H850 0.929 . S
C844 O834 1.282 . S
C844 O845 1.216 . S
O845 C844 1.216 . S
H846 C841 0.930 . S
H847 C842 0.930 1_545 S
O848 Cu828 1.959 1_565 S
O848 C835 1.251 . S
H849 C832 0.930 . S
H850 C843 0.929 . S
Cu851 N852 1.999 . S
Cu851 O857 1.974 . S
Cu851 N862 1.985 . S
Cu851 O871 1.959 . S
N852 Cu851 1.999 . S
N852 C854 1.263 . S
N852 C856 1.389 . S
N853 C854 1.358 . S
N853 C855 1.400 . S
C854 N852 1.263 . S
C854 N853 1.358 . S
C854 H860 0.930 . S
C855 N853 1.400 . S
C855 C856 1.351 . S
C855 H872 0.930 . S
C856 N852 1.389 . S
C856 C855 1.351 . S
C856 H861 0.930 . S
O857 Cu851 1.974 . S
O857 C867 1.282 . S
C858 O859 1.261 . S
C858 O871 1.251 . S
O859 C858 1.261 . S
H860 C854 0.930 . S
H861 C856 0.930 . S
N862 Cu851 1.985 . S
N862 C864 1.335 . S
N862 C865 1.390 . S
N863 C864 1.345 . S
N863 C866 1.336 . S
C864 N862 1.335 . S
C864 N863 1.345 . S
C864 H869 0.930 . S
C865 N862 1.390 . S
C865 C866 1.346 . S
C865 H870 0.930 . S
C866 N863 1.336 . S
C866 C865 1.346 . S
C866 H873 0.929 . S
C867 O857 1.282 . S
C867 O868 1.216 . S
O868 C867 1.216 . S
H869 C864 0.930 . S
H870 C865 0.930 . S
O871 Cu851 1.959 . S
O871 C858 1.251 . S
H872 C855 0.930 . S
H873 C866 0.929 . S
Cu874 N875 1.999 . S
Cu874 O880 1.974 . S
Cu874 N885 1.985 1_565 S
Cu874 O894 1.959 1_565 S
N875 Cu874 1.999 . S
N875 C877 1.263 . S
N875 C879 1.389 . S
N876 C877 1.358 . S
N876 C878 1.400 . S
C877 N875 1.263 . S
C877 N876 1.358 . S
C877 H883 0.930 . S
C878 N876 1.400 . S
C878 C879 1.351 . S
C878 H895 0.930 . S
C879 N875 1.389 . S
C879 C878 1.351 . S
C879 H884 0.930 . S
O880 Cu874 1.974 . S
O880 C890 1.282 . S
C881 O882 1.261 . S
C881 O894 1.251 . S
O882 C881 1.261 . S
H883 C877 0.930 . S
H884 C879 0.930 . S
N885 Cu874 1.985 1_545 S
N885 C887 1.335 . S
N885 C888 1.390 . S
N886 C887 1.345 . S
N886 C889 1.336 . S
C887 N885 1.335 . S
C887 N886 1.345 . S
C887 H892 0.930 . S
C888 N885 1.390 . S
C888 C889 1.346 . S
C888 H893 0.930 1_545 S
C889 N886 1.336 . S
C889 C888 1.346 . S
C889 H896 0.929 . S
C890 O880 1.282 . S
C890 O891 1.216 . S
O891 C890 1.216 . S
H892 C887 0.930 . S
H893 C888 0.930 1_565 S
O894 Cu874 1.959 1_545 S
O894 C881 1.251 . S
H895 C878 0.930 . S
H896 C889 0.929 . S
Cu897 N898 1.999 . S
Cu897 O903 1.974 . S
Cu897 N908 1.985 . S
Cu897 O917 1.959 . S
N898 Cu897 1.999 . S
N898 C900 1.263 . S
N898 C902 1.389 . S
N899 C900 1.358 . S
N899 C901 1.400 . S
C900 N898 1.263 . S
C900 N899 1.358 . S
C900 H906 0.930 . S
C901 N899 1.400 . S
C901 C902 1.351 . S
C901 H918 0.930 . S
C902 N898 1.389 . S
C902 C901 1.351 . S
C902 H907 0.930 . S
O903 Cu897 1.974 . S
O903 C913 1.282 . S
C904 O905 1.261 . S
C904 O917 1.251 . S
O905 C904 1.261 . S
H906 C900 0.930 . S
H907 C902 0.930 . S
N908 Cu897 1.985 . S
N908 C910 1.335 . S
N908 C911 1.390 . S
N909 C910 1.345 . S
N909 C912 1.336 . S
C910 N908 1.335 . S
C910 N909 1.345 . S
C910 H915 0.930 . S
C911 N908 1.390 . S
C911 C912 1.346 . S
C911 H916 0.930 . S
C912 N909 1.336 . S
C912 C911 1.346 . S
C912 H919 0.929 . S
C913 O903 1.282 . S
C913 O914 1.216 . S
O914 C913 1.216 . S
H915 C910 0.930 . S
H916 C911 0.930 . S
O917 Cu897 1.959 . S
O917 C904 1.251 . S
H918 C901 0.930 . S
H919 C912 0.929 . S
Cu920 N921 1.978 1_556 S
Cu920 O926 1.974 . S
Cu920 N931 1.985 . S
Cu920 O940 1.959 . S
N921 Cu920 1.978 1_554 S
N921 C923 1.285 . S
N921 C925 1.393 . S
N922 C923 1.358 . S
N922 C924 1.400 . S
C923 N921 1.285 . S
C923 N922 1.358 . S
C923 H929 0.930 . S
C924 N922 1.400 . S
C924 C925 1.351 . S
C924 H941 0.930 . S
C925 N921 1.393 . S
C925 C924 1.351 . S
C925 H930 0.930 1_554 S
O926 Cu920 1.974 . S
O926 C936 1.282 1_556 S
C927 O928 1.261 . S
C927 O940 1.251 . S
O928 C927 1.261 . S
H929 C923 0.930 . S
H930 C925 0.930 1_556 S
N931 Cu920 1.985 . S
N931 C933 1.335 . S
N931 C934 1.390 . S
N932 C933 1.345 . S
N932 C935 1.336 . S
C933 N931 1.335 . S
C933 N932 1.345 . S
C933 H938 0.930 . S
C934 N931 1.390 . S
C934 C935 1.346 . S
C934 H939 0.930 . S
C935 N932 1.336 . S
C935 C934 1.346 . S
C935 H942 0.929 . S
C936 O926 1.282 1_554 S
C936 O937 1.216 1_554 S
O937 C936 1.216 1_556 S
H938 C933 0.930 . S
H939 C934 0.930 . S
O940 Cu920 1.959 . S
O940 C927 1.251 . S
H941 C924 0.930 . S
H942 C935 0.929 . S
Cu943 N944 1.977 1_554 S
Cu943 O949 1.974 . S
Cu943 N954 1.985 . S
Cu943 O963 1.959 . S
N944 Cu943 1.977 1_556 S
N944 C946 1.285 . S
N944 C948 1.393 . S
N945 C946 1.358 . S
N945 C947 1.400 . S
C946 N944 1.285 . S
C946 N945 1.358 . S
C946 H952 0.930 . S
C947 N945 1.400 . S
C947 C948 1.351 . S
C947 H964 0.930 . S
C948 N944 1.393 . S
C948 C947 1.351 . S
C948 H953 0.930 1_556 S
O949 Cu943 1.974 . S
O949 C959 1.282 1_554 S
C950 O951 1.261 . S
C950 O963 1.251 . S
O951 C950 1.261 . S
H952 C946 0.930 . S
H953 C948 0.930 1_554 S
N954 Cu943 1.985 . S
N954 C956 1.335 . S
N954 C957 1.390 . S
N955 C956 1.345 . S
N955 C958 1.336 . S
C956 N954 1.335 . S
C956 N955 1.345 . S
C956 H961 0.930 . S
C957 N954 1.390 . S
C957 C958 1.346 . S
C957 H962 0.930 . S
C958 N955 1.336 . S
C958 C957 1.346 . S
C958 H965 0.929 . S
C959 O949 1.282 1_556 S
C959 O960 1.216 1_556 S
O960 C959 1.216 1_554 S
H961 C956 0.930 . S
H962 C957 0.930 . S
O963 Cu943 1.959 . S
O963 C950 1.251 . S
H964 C947 0.930 . S
H965 C958 0.929 . S
Cu966 N967 1.999 . S
Cu966 O972 1.974 . S
Cu966 N977 1.985 . S
Cu966 O986 1.959 . S
N967 Cu966 1.999 . S
N967 C969 1.263 . S
N967 C971 1.389 . S
N968 C969 1.358 . S
N968 C970 1.400 . S
C969 N967 1.263 . S
C969 N968 1.358 . S
C969 H975 0.930 . S
C970 N968 1.400 . S
C970 C971 1.351 . S
C970 H987 0.930 . S
C971 N967 1.389 . S
C971 C970 1.351 . S
C971 H976 0.930 . S
O972 Cu966 1.974 . S
O972 C982 1.282 . S
C973 O974 1.261 . S
C973 O986 1.251 . S
O974 C973 1.261 . S
H975 C969 0.930 . S
H976 C971 0.930 . S
N977 Cu966 1.985 . S
N977 C979 1.335 . S
N977 C980 1.390 . S
N978 C979 1.345 . S
N978 C981 1.336 . S
C979 N977 1.335 . S
C979 N978 1.345 . S
C979 H984 0.930 . S
C980 N977 1.390 . S
C980 C981 1.346 . S
C980 H985 0.930 . S
C981 N978 1.336 . S
C981 C980 1.346 . S
C981 H988 0.929 . S
C982 O972 1.282 . S
C982 O983 1.216 . S
O983 C982 1.216 . S
H984 C979 0.930 . S
H985 C980 0.930 . S
O986 Cu966 1.959 . S
O986 C973 1.251 . S
H987 C970 0.930 . S
H988 C981 0.929 . S
Cu989 N990 1.999 . S
Cu989 O995 1.974 . S
Cu989 N1000 1.985 . S
Cu989 O1009 1.959 . S
N990 Cu989 1.999 . S
N990 C992 1.263 . S
N990 C994 1.389 . S
N991 C992 1.358 . S
N991 C993 1.400 . S
C992 N990 1.263 . S
C992 N991 1.358 . S
C992 H998 0.930 . S
C993 N991 1.400 . S
C993 C994 1.351 . S
C993 H1010 0.930 . S
C994 N990 1.389 . S
C994 C993 1.351 . S
C994 H999 0.930 . S
O995 Cu989 1.974 . S
O995 C1005 1.282 . S
C996 O997 1.261 . S
C996 O1009 1.251 . S
O997 C996 1.261 . S
H998 C992 0.930 . S
H999 C994 0.930 . S
N1000 Cu989 1.985 . S
N1000 C1002 1.335 . S
N1000 C1003 1.390 . S
N1001 C1002 1.345 . S
N1001 C1004 1.336 . S
C1002 N1000 1.335 . S
C1002 N1001 1.345 . S
C1002 H1007 0.930 . S
C1003 N1000 1.390 . S
C1003 C1004 1.346 . S
C1003 H1008 0.930 . S
C1004 N1001 1.336 . S
C1004 C1003 1.346 . S
C1004 H1011 0.929 . S
C1005 O995 1.282 . S
C1005 O1006 1.216 . S
O1006 C1005 1.216 . S
H1007 C1002 0.930 . S
H1008 C1003 0.930 . S
O1009 Cu989 1.959 . S
O1009 C996 1.251 . S
H1010 C993 0.930 . S
H1011 C1004 0.929 . S
Cu1012 N1013 1.999 . S
Cu1012 O1018 1.974 . S
Cu1012 N1023 1.985 . S
Cu1012 O1032 1.959 . S
N1013 Cu1012 1.999 . S
N1013 C1015 1.263 . S
N1013 C1017 1.389 . S
N1014 C1015 1.358 . S
N1014 C1016 1.400 . S
C1015 N1013 1.263 . S
C1015 N1014 1.358 . S
C1015 H1021 0.930 . S
C1016 N1014 1.400 . S
C1016 C1017 1.351 . S
C1016 H1033 0.930 . S
C1017 N1013 1.389 . S
C1017 C1016 1.351 . S
C1017 H1022 0.930 . S
O1018 Cu1012 1.974 . S
O1018 C1028 1.282 . S
C1019 O1020 1.261 . S
C1019 O1032 1.251 . S
O1020 C1019 1.261 . S
H1021 C1015 0.930 . S
H1022 C1017 0.930 . S
N1023 Cu1012 1.985 . S
N1023 C1025 1.335 . S
N1023 C1026 1.390 . S
N1024 C1025 1.345 . S
N1024 C1027 1.336 . S
C1025 N1023 1.335 . S
C1025 N1024 1.345 . S
C1025 H1030 0.930 . S
C1026 N1023 1.390 . S
C1026 C1027 1.346 . S
C1026 H1031 0.930 . S
C1027 N1024 1.336 . S
C1027 C1026 1.346 . S
C1027 H1034 0.929 . S
C1028 O1018 1.282 . S
C1028 O1029 1.216 . S
O1029 C1028 1.216 . S
H1030 C1025 0.930 . S
H1031 C1026 0.930 . S
O1032 Cu1012 1.959 . S
O1032 C1019 1.251 . S
H1033 C1016 0.930 . S
H1034 C1027 0.929 . S
Cu1035 N1036 1.999 . S
Cu1035 O1041 1.974 . S
Cu1035 N1046 1.985 . S
Cu1035 O1055 1.959 . S
N1036 Cu1035 1.999 . S
N1036 C1038 1.263 . S
N1036 C1040 1.389 . S
N1037 C1038 1.358 . S
N1037 C1039 1.400 . S
C1038 N1036 1.263 . S
C1038 N1037 1.358 . S
C1038 H1044 0.930 . S
C1039 N1037 1.400 . S
C1039 C1040 1.351 . S
C1039 H1056 0.930 . S
C1040 N1036 1.389 . S
C1040 C1039 1.351 . S
C1040 H1045 0.930 . S
O1041 Cu1035 1.974 . S
O1041 C1051 1.282 . S
C1042 O1043 1.261 . S
C1042 O1055 1.251 . S
O1043 C1042 1.261 . S
H1044 C1038 0.930 . S
H1045 C1040 0.930 . S
N1046 Cu1035 1.985 . S
N1046 C1048 1.335 . S
N1046 C1049 1.390 . S
N1047 C1048 1.345 . S
N1047 C1050 1.336 . S
C1048 N1046 1.335 . S
C1048 N1047 1.345 . S
C1048 H1053 0.930 . S
C1049 N1046 1.390 . S
C1049 C1050 1.346 . S
C1049 H1054 0.930 . S
C1050 N1047 1.336 . S
C1050 C1049 1.346 . S
C1050 H1057 0.929 . S
C1051 O1041 1.282 . S
C1051 O1052 1.216 . S
O1052 C1051 1.216 . S
H1053 C1048 0.930 . S
H1054 C1049 0.930 . S
O1055 Cu1035 1.959 . S
O1055 C1042 1.251 . S
H1056 C1039 0.930 . S
H1057 C1050 0.929 . S
Cu1058 N1059 1.999 . S
Cu1058 O1064 1.974 . S
Cu1058 N1069 1.985 . S
Cu1058 O1078 1.959 . S
N1059 Cu1058 1.999 . S
N1059 C1061 1.263 . S
N1059 C1063 1.389 . S
N1060 C1061 1.358 . S
N1060 C1062 1.400 . S
C1061 N1059 1.263 . S
C1061 N1060 1.358 . S
C1061 H1067 0.930 . S
C1062 N1060 1.400 . S
C1062 C1063 1.351 . S
C1062 H1079 0.930 . S
C1063 N1059 1.389 . S
C1063 C1062 1.351 . S
C1063 H1068 0.930 . S
O1064 Cu1058 1.974 . S
O1064 C1074 1.282 . S
C1065 O1066 1.261 . S
C1065 O1078 1.251 . S
O1066 C1065 1.261 . S
H1067 C1061 0.930 . S
H1068 C1063 0.930 . S
N1069 Cu1058 1.985 . S
N1069 C1071 1.335 . S
N1069 C1072 1.390 . S
N1070 C1071 1.345 . S
N1070 C1073 1.336 . S
C1071 N1069 1.335 . S
C1071 N1070 1.345 . S
C1071 H1076 0.930 . S
C1072 N1069 1.390 . S
C1072 C1073 1.346 . S
C1072 H1077 0.930 . S
C1073 N1070 1.336 . S
C1073 C1072 1.346 . S
C1073 H1080 0.929 . S
C1074 O1064 1.282 . S
C1074 O1075 1.216 . S
O1075 C1074 1.216 . S
H1076 C1071 0.930 . S
H1077 C1072 0.930 . S
O1078 Cu1058 1.959 . S
O1078 C1065 1.251 . S
H1079 C1062 0.930 . S
H1080 C1073 0.929 . S
Cu1081 N1082 1.999 . S
Cu1081 O1087 1.974 . S
Cu1081 N1092 1.985 . S
Cu1081 O1101 1.959 . S
N1082 Cu1081 1.999 . S
N1082 C1084 1.263 . S
N1082 C1086 1.389 . S
N1083 C1084 1.358 . S
N1083 C1085 1.400 . S
C1084 N1082 1.263 . S
C1084 N1083 1.358 . S
C1084 H1090 0.930 . S
C1085 N1083 1.400 . S
C1085 C1086 1.351 . S
C1085 H1102 0.930 . S
C1086 N1082 1.389 . S
C1086 C1085 1.351 . S
C1086 H1091 0.930 . S
O1087 Cu1081 1.974 . S
O1087 C1097 1.282 . S
C1088 O1089 1.261 . S
C1088 O1101 1.251 . S
O1089 C1088 1.261 . S
H1090 C1084 0.930 . S
H1091 C1086 0.930 . S
N1092 Cu1081 1.985 . S
N1092 C1094 1.335 . S
N1092 C1095 1.390 . S
N1093 C1094 1.345 . S
N1093 C1096 1.336 . S
C1094 N1092 1.335 . S
C1094 N1093 1.345 . S
C1094 H1099 0.930 . S
C1095 N1092 1.390 . S
C1095 C1096 1.346 . S
C1095 H1100 0.930 . S
C1096 N1093 1.336 . S
C1096 C1095 1.346 . S
C1096 H1103 0.929 . S
C1097 O1087 1.282 . S
C1097 O1098 1.216 . S
O1098 C1097 1.216 . S
H1099 C1094 0.930 . S
H1100 C1095 0.930 . S
O1101 Cu1081 1.959 . S
O1101 C1088 1.251 . S
H1102 C1085 0.930 . S
H1103 C1096 0.929 . S
Cu1104 N1105 1.999 . S
Cu1104 O1110 1.974 . S
Cu1104 N1115 1.985 . S
Cu1104 O1124 1.959 . S
N1105 Cu1104 1.999 . S
N1105 C1107 1.263 . S
N1105 C1109 1.389 . S
N1106 C1107 1.358 . S
N1106 C1108 1.400 . S
C1107 N1105 1.263 . S
C1107 N1106 1.358 . S
C1107 H1113 0.930 . S
C1108 N1106 1.400 . S
C1108 C1109 1.351 . S
C1108 H1125 0.930 . S
C1109 N1105 1.389 . S
C1109 C1108 1.351 . S
C1109 H1114 0.930 . S
O1110 Cu1104 1.974 . S
O1110 C1120 1.282 . S
C1111 O1112 1.261 . S
C1111 O1124 1.251 . S
O1112 C1111 1.261 . S
H1113 C1107 0.930 . S
H1114 C1109 0.930 . S
N1115 Cu1104 1.985 . S
N1115 C1117 1.335 . S
N1115 C1118 1.390 . S
N1116 C1117 1.345 . S
N1116 C1119 1.336 . S
C1117 N1115 1.335 . S
C1117 N1116 1.345 . S
C1117 H1122 0.930 . S
C1118 N1115 1.390 . S
C1118 C1119 1.346 . S
C1118 H1123 0.930 . S
C1119 N1116 1.336 . S
C1119 C1118 1.346 . S
C1119 H1126 0.929 . S
C1120 O1110 1.282 . S
C1120 O1121 1.216 . S
O1121 C1120 1.216 . S
H1122 C1117 0.930 . S
H1123 C1118 0.930 . S
O1124 Cu1104 1.959 . S
O1124 C1111 1.251 . S
H1125 C1108 0.930 . S
H1126 C1119 0.929 . S
Cu1127 N1128 1.999 . S
Cu1127 O1133 1.974 . S
Cu1127 N1138 1.985 . S
Cu1127 O1147 1.959 . S
N1128 Cu1127 1.999 . S
N1128 C1130 1.263 . S
N1128 C1132 1.389 . S
N1129 C1130 1.358 . S
N1129 C1131 1.400 . S
C1130 N1128 1.263 . S
C1130 N1129 1.358 . S
C1130 H1136 0.930 . S
C1131 N1129 1.400 . S
C1131 C1132 1.351 . S
C1131 H1148 0.930 . S
C1132 N1128 1.389 . S
C1132 C1131 1.351 . S
C1132 H1137 0.930 . S
O1133 Cu1127 1.974 . S
O1133 C1143 1.282 . S
C1134 O1135 1.261 . S
C1134 O1147 1.251 . S
O1135 C1134 1.261 . S
H1136 C1130 0.930 . S
H1137 C1132 0.930 . S
N1138 Cu1127 1.985 . S
N1138 C1140 1.335 . S
N1138 C1141 1.390 . S
N1139 C1140 1.345 . S
N1139 C1142 1.336 . S
C1140 N1138 1.335 . S
C1140 N1139 1.345 . S
C1140 H1145 0.930 . S
C1141 N1138 1.390 . S
C1141 C1142 1.346 . S
C1141 H1146 0.930 . S
C1142 N1139 1.336 . S
C1142 C1141 1.346 . S
C1142 H1149 0.929 . S
C1143 O1133 1.282 . S
C1143 O1144 1.216 . S
O1144 C1143 1.216 . S
H1145 C1140 0.930 . S
H1146 C1141 0.930 . S
O1147 Cu1127 1.959 . S
O1147 C1134 1.251 . S
H1148 C1131 0.930 . S
H1149 C1142 0.929 . S
Cu1150 N1151 1.999 . S
Cu1150 O1156 1.974 . S
Cu1150 N1161 1.985 1_655 S
Cu1150 O1170 1.959 1_655 S
N1151 Cu1150 1.999 . S
N1151 C1153 1.263 . S
N1151 C1155 1.389 . S
N1152 C1153 1.358 . S
N1152 C1154 1.400 . S
C1153 N1151 1.263 . S
C1153 N1152 1.358 . S
C1153 H1159 0.930 . S
C1154 N1152 1.400 . S
C1154 C1155 1.351 . S
C1154 H1171 0.930 . S
C1155 N1151 1.389 . S
C1155 C1154 1.351 . S
C1155 H1160 0.930 . S
O1156 Cu1150 1.974 . S
O1156 C1166 1.282 . S
C1157 O1158 1.261 . S
C1157 O1170 1.251 . S
O1158 C1157 1.261 . S
H1159 C1153 0.930 . S
H1160 C1155 0.930 . S
N1161 Cu1150 1.985 1_455 S
N1161 C1163 1.335 . S
N1161 C1164 1.390 . S
N1162 C1163 1.345 . S
N1162 C1165 1.336 . S
C1163 N1161 1.335 . S
C1163 N1162 1.345 . S
C1163 H1168 0.930 . S
C1164 N1161 1.390 . S
C1164 C1165 1.346 . S
C1164 H1169 0.930 1_455 S
C1165 N1162 1.336 . S
C1165 C1164 1.346 . S
C1165 H1172 0.929 . S
C1166 O1156 1.282 . S
C1166 O1167 1.216 . S
O1167 C1166 1.216 . S
H1168 C1163 0.930 . S
H1169 C1164 0.930 1_655 S
O1170 Cu1150 1.959 1_455 S
O1170 C1157 1.251 . S
H1171 C1154 0.930 . S
H1172 C1165 0.929 . S
Cu1173 N1174 1.999 . S
Cu1173 O1179 1.974 . S
Cu1173 N1184 1.985 . S
Cu1173 O1193 1.959 . S
N1174 Cu1173 1.999 . S
N1174 C1176 1.263 . S
N1174 C1178 1.389 . S
N1175 C1176 1.358 . S
N1175 C1177 1.400 . S
C1176 N1174 1.263 . S
C1176 N1175 1.358 . S
C1176 H1182 0.930 . S
C1177 N1175 1.400 . S
C1177 C1178 1.351 . S
C1177 H1194 0.930 . S
C1178 N1174 1.389 . S
C1178 C1177 1.351 . S
C1178 H1183 0.930 . S
O1179 Cu1173 1.974 . S
O1179 C1189 1.282 . S
C1180 O1181 1.261 . S
C1180 O1193 1.251 . S
O1181 C1180 1.261 . S
H1182 C1176 0.930 . S
H1183 C1178 0.930 . S
N1184 Cu1173 1.985 . S
N1184 C1186 1.335 . S
N1184 C1187 1.390 . S
N1185 C1186 1.345 . S
N1185 C1188 1.336 . S
C1186 N1184 1.335 . S
C1186 N1185 1.345 . S
C1186 H1191 0.930 . S
C1187 N1184 1.390 . S
C1187 C1188 1.346 . S
C1187 H1192 0.930 . S
C1188 N1185 1.336 . S
C1188 C1187 1.346 . S
C1188 H1195 0.929 . S
C1189 O1179 1.282 . S
C1189 O1190 1.216 . S
O1190 C1189 1.216 . S
H1191 C1186 0.930 . S
H1192 C1187 0.930 . S
O1193 Cu1173 1.959 . S
O1193 C1180 1.251 . S
H1194 C1177 0.930 . S
H1195 C1188 0.929 . S
Cu1196 N1197 1.999 . S
Cu1196 O1202 1.974 . S
Cu1196 N1207 1.985 . S
Cu1196 O1216 1.959 . S
N1197 Cu1196 1.999 . S
N1197 C1199 1.263 . S
N1197 C1201 1.389 . S
N1198 C1199 1.358 . S
N1198 C1200 1.400 . S
C1199 N1197 1.263 . S
C1199 N1198 1.358 . S
C1199 H1205 0.930 . S
C1200 N1198 1.400 . S
C1200 C1201 1.351 . S
C1200 H1217 0.930 . S
C1201 N1197 1.389 . S
C1201 C1200 1.351 . S
C1201 H1206 0.930 . S
O1202 Cu1196 1.974 . S
O1202 C1212 1.282 . S
C1203 O1204 1.261 . S
C1203 O1216 1.251 . S
O1204 C1203 1.261 . S
H1205 C1199 0.930 . S
H1206 C1201 0.930 . S
N1207 Cu1196 1.985 . S
N1207 C1209 1.335 . S
N1207 C1210 1.390 . S
N1208 C1209 1.345 . S
N1208 C1211 1.336 . S
C1209 N1207 1.335 . S
C1209 N1208 1.345 . S
C1209 H1214 0.930 . S
C1210 N1207 1.390 . S
C1210 C1211 1.346 . S
C1210 H1215 0.930 . S
C1211 N1208 1.336 . S
C1211 C1210 1.346 . S
C1211 H1218 0.929 . S
C1212 O1202 1.282 . S
C1212 O1213 1.216 . S
O1213 C1212 1.216 . S
H1214 C1209 0.930 . S
H1215 C1210 0.930 . S
O1216 Cu1196 1.959 . S
O1216 C1203 1.251 . S
H1217 C1200 0.930 . S
H1218 C1211 0.929 . S
Cu1219 N1220 1.999 . S
Cu1219 O1225 1.974 . S
Cu1219 N1230 1.985 . S
Cu1219 O1239 1.959 . S
N1220 Cu1219 1.999 . S
N1220 C1222 1.263 . S
N1220 C1224 1.389 . S
N1221 C1222 1.358 . S
N1221 C1223 1.400 . S
C1222 N1220 1.263 . S
C1222 N1221 1.358 . S
C1222 H1228 0.930 . S
C1223 N1221 1.400 . S
C1223 C1224 1.351 . S
C1223 H1240 0.930 . S
C1224 N1220 1.389 . S
C1224 C1223 1.351 . S
C1224 H1229 0.930 . S
O1225 Cu1219 1.974 . S
O1225 C1235 1.282 . S
C1226 O1227 1.261 . S
C1226 O1239 1.251 . S
O1227 C1226 1.261 . S
H1228 C1222 0.930 . S
H1229 C1224 0.930 . S
N1230 Cu1219 1.985 . S
N1230 C1232 1.335 . S
N1230 C1233 1.390 . S
N1231 C1232 1.345 . S
N1231 C1234 1.336 . S
C1232 N1230 1.335 . S
C1232 N1231 1.345 . S
C1232 H1237 0.930 . S
C1233 N1230 1.390 . S
C1233 C1234 1.346 . S
C1233 H1238 0.930 . S
C1234 N1231 1.336 . S
C1234 C1233 1.346 . S
C1234 H1241 0.929 . S
C1235 O1225 1.282 . S
C1235 O1236 1.216 . S
O1236 C1235 1.216 . S
H1237 C1232 0.930 . S
H1238 C1233 0.930 . S
O1239 Cu1219 1.959 . S
O1239 C1226 1.251 . S
H1240 C1223 0.930 . S
H1241 C1234 0.929 . S
Cu1242 N1243 1.999 . S
Cu1242 O1248 1.974 . S
Cu1242 N1253 1.985 1_655 S
Cu1242 O1262 1.959 1_655 S
N1243 Cu1242 1.999 . S
N1243 C1245 1.263 . S
N1243 C1247 1.389 . S
N1244 C1245 1.358 . S
N1244 C1246 1.400 . S
C1245 N1243 1.263 . S
C1245 N1244 1.358 . S
C1245 H1251 0.930 . S
C1246 N1244 1.400 . S
C1246 C1247 1.351 . S
C1246 H1263 0.930 . S
C1247 N1243 1.389 . S
C1247 C1246 1.351 . S
C1247 H1252 0.930 . S
O1248 Cu1242 1.974 . S
O1248 C1258 1.282 . S
C1249 O1250 1.261 . S
C1249 O1262 1.251 . S
O1250 C1249 1.261 . S
H1251 C1245 0.930 . S
H1252 C1247 0.930 . S
N1253 Cu1242 1.985 1_455 S
N1253 C1255 1.335 . S
N1253 C1256 1.390 . S
N1254 C1255 1.345 . S
N1254 C1257 1.336 . S
C1255 N1253 1.335 . S
C1255 N1254 1.345 . S
C1255 H1260 0.930 . S
C1256 N1253 1.390 . S
C1256 C1257 1.346 . S
C1256 H1261 0.930 1_455 S
C1257 N1254 1.336 . S
C1257 C1256 1.346 . S
C1257 H1264 0.929 . S
C1258 O1248 1.282 . S
C1258 O1259 1.216 . S
O1259 C1258 1.216 . S
H1260 C1255 0.930 . S
H1261 C1256 0.930 1_655 S
O1262 Cu1242 1.959 1_455 S
O1262 C1249 1.251 . S
H1263 C1246 0.930 . S
H1264 C1257 0.929 . S
Cu1265 N1266 1.999 . S
Cu1265 O1271 1.974 . S
Cu1265 N1276 1.985 . S
Cu1265 O1285 1.959 . S
N1266 Cu1265 1.999 . S
N1266 C1268 1.263 . S
N1266 C1270 1.389 . S
N1267 C1268 1.358 . S
N1267 C1269 1.400 . S
C1268 N1266 1.263 . S
C1268 N1267 1.358 . S
C1268 H1274 0.930 . S
C1269 N1267 1.400 . S
C1269 C1270 1.351 . S
C1269 H1286 0.930 . S
C1270 N1266 1.389 . S
C1270 C1269 1.351 . S
C1270 H1275 0.930 . S
O1271 Cu1265 1.974 . S
O1271 C1281 1.282 . S
C1272 O1273 1.261 . S
C1272 O1285 1.251 . S
O1273 C1272 1.261 . S
H1274 C1268 0.930 . S
H1275 C1270 0.930 . S
N1276 Cu1265 1.985 . S
N1276 C1278 1.335 . S
N1276 C1279 1.390 . S
N1277 C1278 1.345 . S
N1277 C1280 1.336 . S
C1278 N1276 1.335 . S
C1278 N1277 1.345 . S
C1278 H1283 0.930 . S
C1279 N1276 1.390 . S
C1279 C1280 1.346 . S
C1279 H1284 0.930 . S
C1280 N1277 1.336 . S
C1280 C1279 1.346 . S
C1280 H1287 0.929 . S
C1281 O1271 1.282 . S
C1281 O1282 1.216 . S
O1282 C1281 1.216 . S
H1283 C1278 0.930 . S
H1284 C1279 0.930 . S
O1285 Cu1265 1.959 . S
O1285 C1272 1.251 . S
H1286 C1269 0.930 . S
H1287 C1280 0.929 . S
Cu1288 N1289 1.999 . S
Cu1288 O1294 1.974 . S
Cu1288 N1299 1.985 . S
Cu1288 O1308 1.959 . S
N1289 Cu1288 1.999 . S
N1289 C1291 1.263 . S
N1289 C1293 1.389 . S
N1290 C1291 1.358 . S
N1290 C1292 1.400 . S
C1291 N1289 1.263 . S
C1291 N1290 1.358 . S
C1291 H1297 0.930 . S
C1292 N1290 1.400 . S
C1292 C1293 1.351 . S
C1292 H1309 0.930 . S
C1293 N1289 1.389 . S
C1293 C1292 1.351 . S
C1293 H1298 0.930 . S
O1294 Cu1288 1.974 . S
O1294 C1304 1.282 . S
C1295 O1296 1.261 . S
C1295 O1308 1.251 . S
O1296 C1295 1.261 . S
H1297 C1291 0.930 . S
H1298 C1293 0.930 . S
N1299 Cu1288 1.985 . S
N1299 C1301 1.335 . S
N1299 C1302 1.390 . S
N1300 C1301 1.345 . S
N1300 C1303 1.336 . S
C1301 N1299 1.335 . S
C1301 N1300 1.345 . S
C1301 H1306 0.930 . S
C1302 N1299 1.390 . S
C1302 C1303 1.346 . S
C1302 H1307 0.930 . S
C1303 N1300 1.336 . S
C1303 C1302 1.346 . S
C1303 H1310 0.929 . S
C1304 O1294 1.282 . S
C1304 O1305 1.216 . S
O1305 C1304 1.216 . S
H1306 C1301 0.930 . S
H1307 C1302 0.930 . S
O1308 Cu1288 1.959 . S
O1308 C1295 1.251 . S
H1309 C1292 0.930 . S
H1310 C1303 0.929 . S
Cu1311 N1312 1.999 . S
Cu1311 O1317 1.974 . S
Cu1311 N1322 1.985 . S
Cu1311 O1331 1.959 . S
N1312 Cu1311 1.999 . S
N1312 C1314 1.263 . S
N1312 C1316 1.389 . S
N1313 C1314 1.358 . S
N1313 C1315 1.400 . S
C1314 N1312 1.263 . S
C1314 N1313 1.358 . S
C1314 H1320 0.930 . S
C1315 N1313 1.400 . S
C1315 C1316 1.351 . S
C1315 H1332 0.930 . S
C1316 N1312 1.389 . S
C1316 C1315 1.351 . S
C1316 H1321 0.930 . S
O1317 Cu1311 1.974 . S
O1317 C1327 1.282 . S
C1318 O1319 1.261 . S
C1318 O1331 1.251 . S
O1319 C1318 1.261 . S
H1320 C1314 0.930 . S
H1321 C1316 0.930 . S
N1322 Cu1311 1.985 . S
N1322 C1324 1.335 . S
N1322 C1325 1.390 . S
N1323 C1324 1.345 . S
N1323 C1326 1.336 . S
C1324 N1322 1.335 . S
C1324 N1323 1.345 . S
C1324 H1329 0.930 . S
C1325 N1322 1.390 . S
C1325 C1326 1.346 . S
C1325 H1330 0.930 . S
C1326 N1323 1.336 . S
C1326 C1325 1.346 . S
C1326 H1333 0.929 . S
C1327 O1317 1.282 . S
C1327 O1328 1.216 . S
O1328 C1327 1.216 . S
H1329 C1324 0.930 . S
H1330 C1325 0.930 . S
O1331 Cu1311 1.959 . S
O1331 C1318 1.251 . S
H1332 C1315 0.930 . S
H1333 C1326 0.929 . S
Cu1334 N1335 1.999 . S
Cu1334 O1340 1.974 . S
Cu1334 N1345 1.985 . S
Cu1334 O1354 1.959 . S
N1335 Cu1334 1.999 . S
N1335 C1337 1.263 . S
N1335 C1339 1.389 . S
N1336 C1337 1.358 . S
N1336 C1338 1.400 . S
C1337 N1335 1.263 . S
C1337 N1336 1.358 . S
C1337 H1343 0.930 . S
C1338 N1336 1.400 . S
C1338 C1339 1.351 . S
C1338 H1355 0.930 . S
C1339 N1335 1.389 . S
C1339 C1338 1.351 . S
C1339 H1344 0.930 . S
O1340 Cu1334 1.974 . S
O1340 C1350 1.282 . S
C1341 O1342 1.261 . S
C1341 O1354 1.251 . S
O1342 C1341 1.261 . S
H1343 C1337 0.930 . S
H1344 C1339 0.930 . S
N1345 Cu1334 1.985 . S
N1345 C1347 1.335 . S
N1345 C1348 1.390 . S
N1346 C1347 1.345 . S
N1346 C1349 1.336 . S
C1347 N1345 1.335 . S
C1347 N1346 1.345 . S
C1347 H1352 0.930 . S
C1348 N1345 1.390 . S
C1348 C1349 1.346 . S
C1348 H1353 0.930 . S
C1349 N1346 1.336 . S
C1349 C1348 1.346 . S
C1349 H1356 0.929 . S
C1350 O1340 1.282 . S
C1350 O1351 1.216 . S
O1351 C1350 1.216 . S
H1352 C1347 0.930 . S
H1353 C1348 0.930 . S
O1354 Cu1334 1.959 . S
O1354 C1341 1.251 . S
H1355 C1338 0.930 . S
H1356 C1349 0.929 . S
Cu1357 N1358 1.999 . S
Cu1357 O1363 1.974 . S
Cu1357 N1368 1.985 . S
Cu1357 O1377 1.959 . S
N1358 Cu1357 1.999 . S
N1358 C1360 1.263 . S
N1358 C1362 1.389 . S
N1359 C1360 1.358 . S
N1359 C1361 1.400 . S
C1360 N1358 1.263 . S
C1360 N1359 1.358 . S
C1360 H1366 0.930 . S
C1361 N1359 1.400 . S
C1361 C1362 1.351 . S
C1361 H1378 0.930 . S
C1362 N1358 1.389 . S
C1362 C1361 1.351 . S
C1362 H1367 0.930 . S
O1363 Cu1357 1.974 . S
O1363 C1373 1.282 . S
C1364 O1365 1.261 . S
C1364 O1377 1.251 . S
O1365 C1364 1.261 . S
H1366 C1360 0.930 . S
H1367 C1362 0.930 . S
N1368 Cu1357 1.985 . S
N1368 C1370 1.335 . S
N1368 C1371 1.390 . S
N1369 C1370 1.345 . S
N1369 C1372 1.336 . S
C1370 N1368 1.335 . S
C1370 N1369 1.345 . S
C1370 H1375 0.930 . S
C1371 N1368 1.390 . S
C1371 C1372 1.346 . S
C1371 H1376 0.930 . S
C1372 N1369 1.336 . S
C1372 C1371 1.346 . S
C1372 H1379 0.929 . S
C1373 O1363 1.282 . S
C1373 O1374 1.216 . S
O1374 C1373 1.216 . S
H1375 C1370 0.930 . S
H1376 C1371 0.930 . S
O1377 Cu1357 1.959 . S
O1377 C1364 1.251 . S
H1378 C1361 0.930 . S
H1379 C1372 0.929 . S
Cu1380 N1381 1.999 . S
Cu1380 O1386 1.974 . S
Cu1380 N1391 1.985 . S
Cu1380 O1400 1.959 . S
N1381 Cu1380 1.999 . S
N1381 C1383 1.263 . S
N1381 C1385 1.389 . S
N1382 C1383 1.358 . S
N1382 C1384 1.400 . S
C1383 N1381 1.263 . S
C1383 N1382 1.358 . S
C1383 H1389 0.930 . S
C1384 N1382 1.400 . S
C1384 C1385 1.351 . S
C1384 H1401 0.930 . S
C1385 N1381 1.389 . S
C1385 C1384 1.351 . S
C1385 H1390 0.930 . S
O1386 Cu1380 1.974 . S
O1386 C1396 1.282 . S
C1387 O1388 1.261 . S
C1387 O1400 1.251 . S
O1388 C1387 1.261 . S
H1389 C1383 0.930 . S
H1390 C1385 0.930 . S
N1391 Cu1380 1.985 . S
N1391 C1393 1.335 . S
N1391 C1394 1.390 . S
N1392 C1393 1.345 . S
N1392 C1395 1.336 . S
C1393 N1391 1.335 . S
C1393 N1392 1.345 . S
C1393 H1398 0.930 . S
C1394 N1391 1.390 . S
C1394 C1395 1.346 . S
C1394 H1399 0.930 . S
C1395 N1392 1.336 . S
C1395 C1394 1.346 . S
C1395 H1402 0.929 . S
C1396 O1386 1.282 . S
C1396 O1397 1.216 . S
O1397 C1396 1.216 . S
H1398 C1393 0.930 . S
H1399 C1394 0.930 . S
O1400 Cu1380 1.959 . S
O1400 C1387 1.251 . S
H1401 C1384 0.930 . S
H1402 C1395 0.929 . S
Cu1403 N1404 1.999 . S
Cu1403 O1409 1.974 . S
Cu1403 N1414 1.985 . S
Cu1403 O1423 1.959 . S
N1404 Cu1403 1.999 . S
N1404 C1406 1.263 . S
N1404 C1408 1.389 . S
N1405 C1406 1.358 . S
N1405 C1407 1.400 . S
C1406 N1404 1.263 . S
C1406 N1405 1.358 . S
C1406 H1412 0.930 . S
C1407 N1405 1.400 . S
C1407 C1408 1.351 . S
C1407 H1424 0.930 . S
C1408 N1404 1.389 . S
C1408 C1407 1.351 . S
C1408 H1413 0.930 . S
O1409 Cu1403 1.974 . S
O1409 C1419 1.282 . S
C1410 O1411 1.261 . S
C1410 O1423 1.251 . S
O1411 C1410 1.261 . S
H1412 C1406 0.930 . S
H1413 C1408 0.930 . S
N1414 Cu1403 1.985 . S
N1414 C1416 1.335 . S
N1414 C1417 1.390 . S
N1415 C1416 1.345 . S
N1415 C1418 1.336 . S
C1416 N1414 1.335 . S
C1416 N1415 1.345 . S
C1416 H1421 0.930 . S
C1417 N1414 1.390 . S
C1417 C1418 1.346 . S
C1417 H1422 0.930 . S
C1418 N1415 1.336 . S
C1418 C1417 1.346 . S
C1418 H1425 0.929 . S
C1419 O1409 1.282 . S
C1419 O1420 1.216 . S
O1420 C1419 1.216 . S
H1421 C1416 0.930 . S
H1422 C1417 0.930 . S
O1423 Cu1403 1.959 . S
O1423 C1410 1.251 . S
H1424 C1407 0.930 . S
H1425 C1418 0.929 . S
Cu1426 N1427 1.999 . S
Cu1426 O1432 1.974 . S
Cu1426 N1437 1.985 . S
Cu1426 O1446 1.959 . S
N1427 Cu1426 1.999 . S
N1427 C1429 1.263 . S
N1427 C1431 1.389 . S
N1428 C1429 1.358 . S
N1428 C1430 1.400 . S
C1429 N1427 1.263 . S
C1429 N1428 1.358 . S
C1429 H1435 0.930 . S
C1430 N1428 1.400 . S
C1430 C1431 1.351 . S
C1430 H1447 0.930 . S
C1431 N1427 1.389 . S
C1431 C1430 1.351 . S
C1431 H1436 0.930 . S
O1432 Cu1426 1.974 . S
O1432 C1442 1.282 . S
C1433 O1434 1.261 . S
C1433 O1446 1.251 . S
O1434 C1433 1.261 . S
H1435 C1429 0.930 . S
H1436 C1431 0.930 . S
N1437 Cu1426 1.985 . S
N1437 C1439 1.335 . S
N1437 C1440 1.390 . S
N1438 C1439 1.345 . S
N1438 C1441 1.336 . S
C1439 N1437 1.335 . S
C1439 N1438 1.345 . S
C1439 H1444 0.930 . S
C1440 N1437 1.390 . S
C1440 C1441 1.346 . S
C1440 H1445 0.930 . S
C1441 N1438 1.336 . S
C1441 C1440 1.346 . S
C1441 H1448 0.929 . S
C1442 O1432 1.282 . S
C1442 O1443 1.216 . S
O1443 C1442 1.216 . S
H1444 C1439 0.930 . S
H1445 C1440 0.930 . S
O1446 Cu1426 1.959 . S
O1446 C1433 1.251 . S
H1447 C1430 0.930 . S
H1448 C1441 0.929 . S
Cu1449 N1450 1.999 . S
Cu1449 O1455 1.974 . S
Cu1449 N1460 1.985 . S
Cu1449 O1469 1.959 . S
N1450 Cu1449 1.999 . S
N1450 C1452 1.263 . S
N1450 C1454 1.389 . S
N1451 C1452 1.358 . S
N1451 C1453 1.400 . S
C1452 N1450 1.263 . S
C1452 N1451 1.358 . S
C1452 H1458 0.930 . S
C1453 N1451 1.400 . S
C1453 C1454 1.351 . S
C1453 H1470 0.930 . S
C1454 N1450 1.389 . S
C1454 C1453 1.351 . S
C1454 H1459 0.930 . S
O1455 Cu1449 1.974 . S
O1455 C1465 1.282 . S
C1456 O1457 1.261 . S
C1456 O1469 1.251 . S
O1457 C1456 1.261 . S
H1458 C1452 0.930 . S
H1459 C1454 0.930 . S
N1460 Cu1449 1.985 . S
N1460 C1462 1.335 . S
N1460 C1463 1.390 . S
N1461 C1462 1.345 . S
N1461 C1464 1.336 . S
C1462 N1460 1.335 . S
C1462 N1461 1.345 . S
C1462 H1467 0.930 . S
C1463 N1460 1.390 . S
C1463 C1464 1.346 . S
C1463 H1468 0.930 . S
C1464 N1461 1.336 . S
C1464 C1463 1.346 . S
C1464 H1471 0.929 . S
C1465 O1455 1.282 . S
C1465 O1466 1.216 . S
O1466 C1465 1.216 . S
H1467 C1462 0.930 . S
H1468 C1463 0.930 . S
O1469 Cu1449 1.959 . S
O1469 C1456 1.251 . S
H1470 C1453 0.930 . S
H1471 C1464 0.929 . S
Cu1472 N1473 1.999 . S
Cu1472 O1478 1.974 . S
Cu1472 N1483 1.985 . S
Cu1472 O1492 1.959 . S
N1473 Cu1472 1.999 . S
N1473 C1475 1.263 . S
N1473 C1477 1.389 . S
N1474 C1475 1.358 . S
N1474 C1476 1.400 . S
C1475 N1473 1.263 . S
C1475 N1474 1.358 . S
C1475 H1481 0.930 . S
C1476 N1474 1.400 . S
C1476 C1477 1.351 . S
C1476 H1493 0.930 . S
C1477 N1473 1.389 . S
C1477 C1476 1.351 . S
C1477 H1482 0.930 . S
O1478 Cu1472 1.974 . S
O1478 C1488 1.282 . S
C1479 O1480 1.261 . S
C1479 O1492 1.251 . S
O1480 C1479 1.261 . S
H1481 C1475 0.930 . S
H1482 C1477 0.930 . S
N1483 Cu1472 1.985 . S
N1483 C1485 1.335 . S
N1483 C1486 1.390 . S
N1484 C1485 1.345 . S
N1484 C1487 1.336 . S
C1485 N1483 1.335 . S
C1485 N1484 1.345 . S
C1485 H1490 0.930 . S
C1486 N1483 1.390 . S
C1486 C1487 1.346 . S
C1486 H1491 0.930 . S
C1487 N1484 1.336 . S
C1487 C1486 1.346 . S
C1487 H1494 0.929 . S
C1488 O1478 1.282 . S
C1488 O1489 1.216 . S
O1489 C1488 1.216 . S
H1490 C1485 0.930 . S
H1491 C1486 0.930 . S
O1492 Cu1472 1.959 . S
O1492 C1479 1.251 . S
H1493 C1476 0.930 . S
H1494 C1487 0.929 . S
Cu1495 N1496 1.999 . S
Cu1495 O1501 1.974 . S
Cu1495 N1506 1.985 . S
Cu1495 O1515 1.959 . S
N1496 Cu1495 1.999 . S
N1496 C1498 1.263 . S
N1496 C1500 1.389 . S
N1497 C1498 1.358 . S
N1497 C1499 1.400 . S
C1498 N1496 1.263 . S
C1498 N1497 1.358 . S
C1498 H1504 0.930 . S
C1499 N1497 1.400 . S
C1499 C1500 1.351 . S
C1499 H1516 0.930 . S
C1500 N1496 1.389 . S
C1500 C1499 1.351 . S
C1500 H1505 0.930 . S
O1501 Cu1495 1.974 . S
O1501 C1511 1.282 . S
C1502 O1503 1.261 . S
C1502 O1515 1.251 . S
O1503 C1502 1.261 . S
H1504 C1498 0.930 . S
H1505 C1500 0.930 . S
N1506 Cu1495 1.985 . S
N1506 C1508 1.335 . S
N1506 C1509 1.390 . S
N1507 C1508 1.345 . S
N1507 C1510 1.336 . S
C1508 N1506 1.335 . S
C1508 N1507 1.345 . S
C1508 H1513 0.930 . S
C1509 N1506 1.390 . S
C1509 C1510 1.346 . S
C1509 H1514 0.930 . S
C1510 N1507 1.336 . S
C1510 C1509 1.346 . S
C1510 H1517 0.929 . S
C1511 O1501 1.282 . S
C1511 O1512 1.216 . S
O1512 C1511 1.216 . S
H1513 C1508 0.930 . S
H1514 C1509 0.930 . S
O1515 Cu1495 1.959 . S
O1515 C1502 1.251 . S
H1516 C1499 0.930 . S
H1517 C1510 0.929 . S
Cu1518 N1519 1.999 . S
Cu1518 O1524 1.974 . S
Cu1518 N1529 1.985 . S
Cu1518 O1538 1.959 . S
N1519 Cu1518 1.999 . S
N1519 C1521 1.263 . S
N1519 C1523 1.389 . S
N1520 C1521 1.358 . S
N1520 C1522 1.400 . S
C1521 N1519 1.263 . S
C1521 N1520 1.358 . S
C1521 H1527 0.930 . S
C1522 N1520 1.400 . S
C1522 C1523 1.351 . S
C1522 H1539 0.930 . S
C1523 N1519 1.389 . S
C1523 C1522 1.351 . S
C1523 H1528 0.930 . S
O1524 Cu1518 1.974 . S
O1524 C1534 1.282 . S
C1525 O1526 1.261 . S
C1525 O1538 1.251 . S
O1526 C1525 1.261 . S
H1527 C1521 0.930 . S
H1528 C1523 0.930 . S
N1529 Cu1518 1.985 . S
N1529 C1531 1.335 . S
N1529 C1532 1.390 . S
N1530 C1531 1.345 . S
N1530 C1533 1.336 . S
C1531 N1529 1.335 . S
C1531 N1530 1.345 . S
C1531 H1536 0.930 . S
C1532 N1529 1.390 . S
C1532 C1533 1.346 . S
C1532 H1537 0.930 . S
C1533 N1530 1.336 . S
C1533 C1532 1.346 . S
C1533 H1540 0.929 . S
C1534 O1524 1.282 . S
C1534 O1535 1.216 . S
O1535 C1534 1.216 . S
H1536 C1531 0.930 . S
H1537 C1532 0.930 . S
O1538 Cu1518 1.959 . S
O1538 C1525 1.251 . S
H1539 C1522 0.930 . S
H1540 C1533 0.929 . S
Cu1541 N1542 1.999 . S
Cu1541 O1547 1.974 . S
Cu1541 N1552 1.985 1_556 S
Cu1541 O1561 1.959 1_556 S
N1542 Cu1541 1.999 . S
N1542 C1544 1.263 . S
N1542 C1546 1.389 . S
N1543 C1544 1.358 . S
N1543 C1545 1.400 . S
C1544 N1542 1.263 . S
C1544 N1543 1.358 . S
C1544 H1550 0.930 . S
C1545 N1543 1.400 . S
C1545 C1546 1.351 . S
C1545 H1562 0.930 . S
C1546 N1542 1.389 . S
C1546 C1545 1.351 . S
C1546 H1551 0.930 . S
O1547 Cu1541 1.974 . S
O1547 C1557 1.282 . S
C1548 O1549 1.261 . S
C1548 O1561 1.251 . S
O1549 C1548 1.261 . S
H1550 C1544 0.930 . S
H1551 C1546 0.930 . S
N1552 Cu1541 1.985 1_554 S
N1552 C1554 1.335 . S
N1552 C1555 1.390 . S
N1553 C1554 1.345 . S
N1553 C1556 1.336 . S
C1554 N1552 1.335 . S
C1554 N1553 1.345 . S
C1554 H1559 0.930 . S
C1555 N1552 1.390 . S
C1555 C1556 1.346 . S
C1555 H1560 0.930 1_554 S
C1556 N1553 1.336 . S
C1556 C1555 1.346 . S
C1556 H1563 0.929 . S
C1557 O1547 1.282 . S
C1557 O1558 1.216 . S
O1558 C1557 1.216 . S
H1559 C1554 0.930 . S
H1560 C1555 0.930 1_556 S
O1561 Cu1541 1.959 1_554 S
O1561 C1548 1.251 . S
H1562 C1545 0.930 . S
H1563 C1556 0.929 . S
Cu1564 N1565 1.999 . S
Cu1564 O1570 1.974 . S
Cu1564 N1575 1.985 . S
Cu1564 O1584 1.959 . S
N1565 Cu1564 1.999 . S
N1565 C1567 1.263 . S
N1565 C1569 1.389 . S
N1566 C1567 1.358 . S
N1566 C1568 1.400 . S
C1567 N1565 1.263 . S
C1567 N1566 1.358 . S
C1567 H1573 0.930 . S
C1568 N1566 1.400 . S
C1568 C1569 1.351 . S
C1568 H1585 0.930 . S
C1569 N1565 1.389 . S
C1569 C1568 1.351 . S
C1569 H1574 0.930 . S
O1570 Cu1564 1.974 . S
O1570 C1580 1.282 . S
C1571 O1572 1.261 . S
C1571 O1584 1.251 . S
O1572 C1571 1.261 . S
H1573 C1567 0.930 . S
H1574 C1569 0.930 . S
N1575 Cu1564 1.985 . S
N1575 C1577 1.335 . S
N1575 C1578 1.390 . S
N1576 C1577 1.345 . S
N1576 C1579 1.336 . S
C1577 N1575 1.335 . S
C1577 N1576 1.345 . S
C1577 H1582 0.930 . S
C1578 N1575 1.390 . S
C1578 C1579 1.346 . S
C1578 H1583 0.930 . S
C1579 N1576 1.336 . S
C1579 C1578 1.346 . S
C1579 H1586 0.929 . S
C1580 O1570 1.282 . S
C1580 O1581 1.216 . S
O1581 C1580 1.216 . S
H1582 C1577 0.930 . S
H1583 C1578 0.930 . S
O1584 Cu1564 1.959 . S
O1584 C1571 1.251 . S
H1585 C1568 0.930 . S
H1586 C1579 0.929 . S
Cu1587 N1588 1.999 . S
Cu1587 O1593 1.974 . S
Cu1587 N1598 1.985 1_554 S
Cu1587 O1607 1.959 1_554 S
N1588 Cu1587 1.999 . S
N1588 C1590 1.263 . S
N1588 C1592 1.389 . S
N1589 C1590 1.358 . S
N1589 C1591 1.400 . S
C1590 N1588 1.263 . S
C1590 N1589 1.358 . S
C1590 H1596 0.930 . S
C1591 N1589 1.400 . S
C1591 C1592 1.351 . S
C1591 H1608 0.930 . S
C1592 N1588 1.389 . S
C1592 C1591 1.351 . S
C1592 H1597 0.930 . S
O1593 Cu1587 1.974 . S
O1593 C1603 1.282 . S
C1594 O1595 1.261 . S
C1594 O1607 1.251 . S
O1595 C1594 1.261 . S
H1596 C1590 0.930 . S
H1597 C1592 0.930 . S
N1598 Cu1587 1.985 1_556 S
N1598 C1600 1.335 . S
N1598 C1601 1.390 . S
N1599 C1600 1.345 . S
N1599 C1602 1.336 . S
C1600 N1598 1.335 . S
C1600 N1599 1.345 . S
C1600 H1605 0.930 . S
C1601 N1598 1.390 . S
C1601 C1602 1.346 . S
C1601 H1606 0.930 1_556 S
C1602 N1599 1.336 . S
C1602 C1601 1.346 . S
C1602 H1609 0.929 . S
C1603 O1593 1.282 . S
C1603 O1604 1.216 . S
O1604 C1603 1.216 . S
H1605 C1600 0.930 . S
H1606 C1601 0.930 1_554 S
O1607 Cu1587 1.959 1_556 S
O1607 C1594 1.251 . S
H1608 C1591 0.930 . S
H1609 C1602 0.929 . S
Cu1610 N1611 1.999 . S
Cu1610 O1616 1.974 . S
Cu1610 N1621 1.985 . S
Cu1610 O1630 1.959 . S
N1611 Cu1610 1.999 . S
N1611 C1613 1.263 . S
N1611 C1615 1.389 . S
N1612 C1613 1.358 . S
N1612 C1614 1.400 . S
C1613 N1611 1.263 . S
C1613 N1612 1.358 . S
C1613 H1619 0.930 . S
C1614 N1612 1.400 . S
C1614 C1615 1.351 . S
C1614 H1631 0.930 . S
C1615 N1611 1.389 . S
C1615 C1614 1.351 . S
C1615 H1620 0.930 . S
O1616 Cu1610 1.974 . S
O1616 C1626 1.282 . S
C1617 O1618 1.261 . S
C1617 O1630 1.251 . S
O1618 C1617 1.261 . S
H1619 C1613 0.930 . S
H1620 C1615 0.930 . S
N1621 Cu1610 1.985 . S
N1621 C1623 1.335 . S
N1621 C1624 1.390 . S
N1622 C1623 1.345 . S
N1622 C1625 1.336 . S
C1623 N1621 1.335 . S
C1623 N1622 1.345 . S
C1623 H1628 0.930 . S
C1624 N1621 1.390 . S
C1624 C1625 1.346 . S
C1624 H1629 0.930 . S
C1625 N1622 1.336 . S
C1625 C1624 1.346 . S
C1625 H1632 0.929 . S
C1626 O1616 1.282 . S
C1626 O1627 1.216 . S
O1627 C1626 1.216 . S
H1628 C1623 0.930 . S
H1629 C1624 0.930 . S
O1630 Cu1610 1.959 . S
O1630 C1617 1.251 . S
H1631 C1614 0.930 . S
H1632 C1625 0.929 . S
Cu1633 N1634 1.999 . S
Cu1633 O1639 1.974 . S
Cu1633 N1644 1.985 . S
Cu1633 O1653 1.959 . S
N1634 Cu1633 1.999 . S
N1634 C1636 1.263 . S
N1634 C1638 1.389 . S
N1635 C1636 1.358 . S
N1635 C1637 1.400 . S
C1636 N1634 1.263 . S
C1636 N1635 1.358 . S
C1636 H1642 0.930 . S
C1637 N1635 1.400 . S
C1637 C1638 1.351 . S
C1637 H1654 0.930 . S
C1638 N1634 1.389 . S
C1638 C1637 1.351 . S
C1638 H1643 0.930 . S
O1639 Cu1633 1.974 . S
O1639 C1649 1.282 . S
C1640 O1641 1.261 . S
C1640 O1653 1.251 . S
O1641 C1640 1.261 . S
H1642 C1636 0.930 . S
H1643 C1638 0.930 . S
N1644 Cu1633 1.985 . S
N1644 C1646 1.335 . S
N1644 C1647 1.390 . S
N1645 C1646 1.345 . S
N1645 C1648 1.336 . S
C1646 N1644 1.335 . S
C1646 N1645 1.345 . S
C1646 H1651 0.930 . S
C1647 N1644 1.390 . S
C1647 C1648 1.346 . S
C1647 H1652 0.930 . S
C1648 N1645 1.336 . S
C1648 C1647 1.346 . S
C1648 H1655 0.929 . S
C1649 O1639 1.282 . S
C1649 O1650 1.216 . S
O1650 C1649 1.216 . S
H1651 C1646 0.930 . S
H1652 C1647 0.930 . S
O1653 Cu1633 1.959 . S
O1653 C1640 1.251 . S
H1654 C1637 0.930 . S
H1655 C1648 0.929 . S
Cu1656 N1657 1.999 . S
Cu1656 O1662 1.974 . S
Cu1656 N1667 1.985 . S
Cu1656 O1676 1.959 . S
N1657 Cu1656 1.999 . S
N1657 C1659 1.263 . S
N1657 C1661 1.389 . S
N1658 C1659 1.358 . S
N1658 C1660 1.400 . S
C1659 N1657 1.263 . S
C1659 N1658 1.358 . S
C1659 H1665 0.930 . S
C1660 N1658 1.400 . S
C1660 C1661 1.351 . S
C1660 H1677 0.930 . S
C1661 N1657 1.389 . S
C1661 C1660 1.351 . S
C1661 H1666 0.930 . S
O1662 Cu1656 1.974 . S
O1662 C1672 1.282 . S
C1663 O1664 1.261 . S
C1663 O1676 1.251 . S
O1664 C1663 1.261 . S
H1665 C1659 0.930 . S
H1666 C1661 0.930 . S
N1667 Cu1656 1.985 . S
N1667 C1669 1.335 . S
N1667 C1670 1.390 . S
N1668 C1669 1.345 . S
N1668 C1671 1.336 . S
C1669 N1667 1.335 . S
C1669 N1668 1.345 . S
C1669 H1674 0.930 . S
C1670 N1667 1.390 . S
C1670 C1671 1.346 . S
C1670 H1675 0.930 . S
C1671 N1668 1.336 . S
C1671 C1670 1.346 . S
C1671 H1678 0.929 . S
C1672 O1662 1.282 . S
C1672 O1673 1.216 . S
O1673 C1672 1.216 . S
H1674 C1669 0.930 . S
H1675 C1670 0.930 . S
O1676 Cu1656 1.959 . S
O1676 C1663 1.251 . S
H1677 C1660 0.930 . S
H1678 C1671 0.929 . S
Cu1679 N1680 1.999 . S
Cu1679 O1685 1.974 . S
Cu1679 N1690 1.985 . S
Cu1679 O1699 1.959 . S
N1680 Cu1679 1.999 . S
N1680 C1682 1.263 . S
N1680 C1684 1.389 . S
N1681 C1682 1.358 . S
N1681 C1683 1.400 . S
C1682 N1680 1.263 . S
C1682 N1681 1.358 . S
C1682 H1688 0.930 . S
C1683 N1681 1.400 . S
C1683 C1684 1.351 . S
C1683 H1700 0.930 . S
C1684 N1680 1.389 . S
C1684 C1683 1.351 . S
C1684 H1689 0.930 . S
O1685 Cu1679 1.974 . S
O1685 C1695 1.282 . S
C1686 O1687 1.261 . S
C1686 O1699 1.251 . S
O1687 C1686 1.261 . S
H1688 C1682 0.930 . S
H1689 C1684 0.930 . S
N1690 Cu1679 1.985 . S
N1690 C1692 1.335 . S
N1690 C1693 1.390 . S
N1691 C1692 1.345 . S
N1691 C1694 1.336 . S
C1692 N1690 1.335 . S
C1692 N1691 1.345 . S
C1692 H1697 0.930 . S
C1693 N1690 1.390 . S
C1693 C1694 1.346 . S
C1693 H1698 0.930 . S
C1694 N1691 1.336 . S
C1694 C1693 1.346 . S
C1694 H1701 0.929 . S
C1695 O1685 1.282 . S
C1695 O1696 1.216 . S
O1696 C1695 1.216 . S
H1697 C1692 0.930 . S
H1698 C1693 0.930 . S
O1699 Cu1679 1.959 . S
O1699 C1686 1.251 . S
H1700 C1683 0.930 . S
H1701 C1694 0.929 . S
Cu1702 N1703 1.999 . S
Cu1702 O1708 1.974 . S
Cu1702 N1713 1.985 1_455 S
Cu1702 O1722 1.959 1_455 S
N1703 Cu1702 1.999 . S
N1703 C1705 1.263 . S
N1703 C1707 1.389 . S
N1704 C1705 1.358 . S
N1704 C1706 1.400 . S
C1705 N1703 1.263 . S
C1705 N1704 1.358 . S
C1705 H1711 0.930 . S
C1706 N1704 1.400 . S
C1706 C1707 1.351 . S
C1706 H1723 0.930 . S
C1707 N1703 1.389 . S
C1707 C1706 1.351 . S
C1707 H1712 0.930 . S
O1708 Cu1702 1.974 . S
O1708 C1718 1.282 . S
C1709 O1710 1.261 . S
C1709 O1722 1.251 . S
O1710 C1709 1.261 . S
H1711 C1705 0.930 . S
H1712 C1707 0.930 . S
N1713 Cu1702 1.985 1_655 S
N1713 C1715 1.335 . S
N1713 C1716 1.390 . S
N1714 C1715 1.345 . S
N1714 C1717 1.336 . S
C1715 N1713 1.335 . S
C1715 N1714 1.345 . S
C1715 H1720 0.930 . S
C1716 N1713 1.390 . S
C1716 C1717 1.346 . S
C1716 H1721 0.930 1_655 S
C1717 N1714 1.336 . S
C1717 C1716 1.346 . S
C1717 H1724 0.929 . S
C1718 O1708 1.282 . S
C1718 O1719 1.216 . S
O1719 C1718 1.216 . S
H1720 C1715 0.930 . S
H1721 C1716 0.930 1_455 S
O1722 Cu1702 1.959 1_655 S
O1722 C1709 1.251 . S
H1723 C1706 0.930 . S
H1724 C1717 0.929 . S
Cu1725 N1726 1.999 . S
Cu1725 O1731 1.974 . S
Cu1725 N1736 1.985 . S
Cu1725 O1745 1.959 . S
N1726 Cu1725 1.999 . S
N1726 C1728 1.263 . S
N1726 C1730 1.389 . S
N1727 C1728 1.358 . S
N1727 C1729 1.400 . S
C1728 N1726 1.263 . S
C1728 N1727 1.358 . S
C1728 H1734 0.930 . S
C1729 N1727 1.400 . S
C1729 C1730 1.351 . S
C1729 H1746 0.930 . S
C1730 N1726 1.389 . S
C1730 C1729 1.351 . S
C1730 H1735 0.930 . S
O1731 Cu1725 1.974 . S
O1731 C1741 1.282 . S
C1732 O1733 1.261 . S
C1732 O1745 1.251 . S
O1733 C1732 1.261 . S
H1734 C1728 0.930 . S
H1735 C1730 0.930 . S
N1736 Cu1725 1.985 . S
N1736 C1738 1.335 . S
N1736 C1739 1.390 . S
N1737 C1738 1.345 . S
N1737 C1740 1.336 . S
C1738 N1736 1.335 . S
C1738 N1737 1.345 . S
C1738 H1743 0.930 . S
C1739 N1736 1.390 . S
C1739 C1740 1.346 . S
C1739 H1744 0.930 . S
C1740 N1737 1.336 . S
C1740 C1739 1.346 . S
C1740 H1747 0.929 . S
C1741 O1731 1.282 . S
C1741 O1742 1.216 . S
O1742 C1741 1.216 . S
H1743 C1738 0.930 . S
H1744 C1739 0.930 . S
O1745 Cu1725 1.959 . S
O1745 C1732 1.251 . S
H1746 C1729 0.930 . S
H1747 C1740 0.929 . S
Cu1748 N1749 1.999 . S
Cu1748 O1754 1.974 . S
Cu1748 N1759 1.985 . S
Cu1748 O1768 1.959 . S
N1749 Cu1748 1.999 . S
N1749 C1751 1.263 . S
N1749 C1753 1.389 . S
N1750 C1751 1.358 . S
N1750 C1752 1.400 . S
C1751 N1749 1.263 . S
C1751 N1750 1.358 . S
C1751 H1757 0.930 . S
C1752 N1750 1.400 . S
C1752 C1753 1.351 . S
C1752 H1769 0.930 . S
C1753 N1749 1.389 . S
C1753 C1752 1.351 . S
C1753 H1758 0.930 . S
O1754 Cu1748 1.974 . S
O1754 C1764 1.282 . S
C1755 O1756 1.261 . S
C1755 O1768 1.251 . S
O1756 C1755 1.261 . S
H1757 C1751 0.930 . S
H1758 C1753 0.930 . S
N1759 Cu1748 1.985 . S
N1759 C1761 1.335 . S
N1759 C1762 1.390 . S
N1760 C1761 1.345 . S
N1760 C1763 1.336 . S
C1761 N1759 1.335 . S
C1761 N1760 1.345 . S
C1761 H1766 0.930 . S
C1762 N1759 1.390 . S
C1762 C1763 1.346 . S
C1762 H1767 0.930 . S
C1763 N1760 1.336 . S
C1763 C1762 1.346 . S
C1763 H1770 0.929 . S
C1764 O1754 1.282 . S
C1764 O1765 1.216 . S
O1765 C1764 1.216 . S
H1766 C1761 0.930 . S
H1767 C1762 0.930 . S
O1768 Cu1748 1.959 . S
O1768 C1755 1.251 . S
H1769 C1752 0.930 . S
H1770 C1763 0.929 . S
Cu1771 N1772 1.999 . S
Cu1771 O1777 1.974 . S
Cu1771 N1782 1.985 . S
Cu1771 O1791 1.959 . S
N1772 Cu1771 1.999 . S
N1772 C1774 1.263 . S
N1772 C1776 1.389 . S
N1773 C1774 1.358 . S
N1773 C1775 1.400 . S
C1774 N1772 1.263 . S
C1774 N1773 1.358 . S
C1774 H1780 0.930 . S
C1775 N1773 1.400 . S
C1775 C1776 1.351 . S
C1775 H1792 0.930 . S
C1776 N1772 1.389 . S
C1776 C1775 1.351 . S
C1776 H1781 0.930 . S
O1777 Cu1771 1.974 . S
O1777 C1787 1.282 . S
C1778 O1779 1.261 . S
C1778 O1791 1.251 . S
O1779 C1778 1.261 . S
H1780 C1774 0.930 . S
H1781 C1776 0.930 . S
N1782 Cu1771 1.985 . S
N1782 C1784 1.335 . S
N1782 C1785 1.390 . S
N1783 C1784 1.345 . S
N1783 C1786 1.336 . S
C1784 N1782 1.335 . S
C1784 N1783 1.345 . S
C1784 H1789 0.930 . S
C1785 N1782 1.390 . S
C1785 C1786 1.346 . S
C1785 H1790 0.930 . S
C1786 N1783 1.336 . S
C1786 C1785 1.346 . S
C1786 H1793 0.929 . S
C1787 O1777 1.282 . S
C1787 O1788 1.216 . S
O1788 C1787 1.216 . S
H1789 C1784 0.930 . S
H1790 C1785 0.930 . S
O1791 Cu1771 1.959 . S
O1791 C1778 1.251 . S
H1792 C1775 0.930 . S
H1793 C1786 0.929 . S
Cu1794 N1795 1.999 . S
Cu1794 O1800 1.974 . S
Cu1794 N1805 1.985 1_455 S
Cu1794 O1814 1.959 1_455 S
N1795 Cu1794 1.999 . S
N1795 C1797 1.263 . S
N1795 C1799 1.389 . S
N1796 C1797 1.358 . S
N1796 C1798 1.400 . S
C1797 N1795 1.263 . S
C1797 N1796 1.358 . S
C1797 H1803 0.930 . S
C1798 N1796 1.400 . S
C1798 C1799 1.351 . S
C1798 H1815 0.930 . S
C1799 N1795 1.389 . S
C1799 C1798 1.351 . S
C1799 H1804 0.930 . S
O1800 Cu1794 1.974 . S
O1800 C1810 1.282 . S
C1801 O1802 1.261 . S
C1801 O1814 1.251 . S
O1802 C1801 1.261 . S
H1803 C1797 0.930 . S
H1804 C1799 0.930 . S
N1805 Cu1794 1.985 1_655 S
N1805 C1807 1.335 . S
N1805 C1808 1.390 . S
N1806 C1807 1.345 . S
N1806 C1809 1.336 . S
C1807 N1805 1.335 . S
C1807 N1806 1.345 . S
C1807 H1812 0.930 . S
C1808 N1805 1.390 . S
C1808 C1809 1.346 . S
C1808 H1813 0.930 1_655 S
C1809 N1806 1.336 . S
C1809 C1808 1.346 . S
C1809 H1816 0.929 . S
C1810 O1800 1.282 . S
C1810 O1811 1.216 . S
O1811 C1810 1.216 . S
H1812 C1807 0.930 . S
H1813 C1808 0.930 1_455 S
O1814 Cu1794 1.959 1_655 S
O1814 C1801 1.251 . S
H1815 C1798 0.930 . S
H1816 C1809 0.929 . S
Cu1817 N1818 1.999 . S
Cu1817 O1823 1.974 . S
Cu1817 N1828 1.985 . S
Cu1817 O1837 1.959 . S
N1818 Cu1817 1.999 . S
N1818 C1820 1.263 . S
N1818 C1822 1.389 . S
N1819 C1820 1.358 . S
N1819 C1821 1.400 . S
C1820 N1818 1.263 . S
C1820 N1819 1.358 . S
C1820 H1826 0.930 . S
C1821 N1819 1.400 . S
C1821 C1822 1.351 . S
C1821 H1838 0.930 . S
C1822 N1818 1.389 . S
C1822 C1821 1.351 . S
C1822 H1827 0.930 . S
O1823 Cu1817 1.974 . S
O1823 C1833 1.282 . S
C1824 O1825 1.261 . S
C1824 O1837 1.251 . S
O1825 C1824 1.261 . S
H1826 C1820 0.930 . S
H1827 C1822 0.930 . S
N1828 Cu1817 1.985 . S
N1828 C1830 1.335 . S
N1828 C1831 1.390 . S
N1829 C1830 1.345 . S
N1829 C1832 1.336 . S
C1830 N1828 1.335 . S
C1830 N1829 1.345 . S
C1830 H1835 0.930 . S
C1831 N1828 1.390 . S
C1831 C1832 1.346 . S
C1831 H1836 0.930 . S
C1832 N1829 1.336 . S
C1832 C1831 1.346 . S
C1832 H1839 0.929 . S
C1833 O1823 1.282 . S
C1833 O1834 1.216 . S
O1834 C1833 1.216 . S
H1835 C1830 0.930 . S
H1836 C1831 0.930 . S
O1837 Cu1817 1.959 . S
O1837 C1824 1.251 . S
H1838 C1821 0.930 . S
H1839 C1832 0.929 . S
Cu1840 N1841 1.999 . S
Cu1840 O1846 1.974 . S
Cu1840 N1851 1.985 . S
Cu1840 O1860 1.959 . S
N1841 Cu1840 1.999 . S
N1841 C1843 1.263 . S
N1841 C1845 1.389 . S
N1842 C1843 1.358 . S
N1842 C1844 1.400 . S
C1843 N1841 1.263 . S
C1843 N1842 1.358 . S
C1843 H1849 0.930 . S
C1844 N1842 1.400 . S
C1844 C1845 1.351 . S
C1844 H1861 0.930 . S
C1845 N1841 1.389 . S
C1845 C1844 1.351 . S
C1845 H1850 0.930 . S
O1846 Cu1840 1.974 . S
O1846 C1856 1.282 . S
C1847 O1848 1.261 . S
C1847 O1860 1.251 . S
O1848 C1847 1.261 . S
H1849 C1843 0.930 . S
H1850 C1845 0.930 . S
N1851 Cu1840 1.985 . S
N1851 C1853 1.335 . S
N1851 C1854 1.390 . S
N1852 C1853 1.345 . S
N1852 C1855 1.336 . S
C1853 N1851 1.335 . S
C1853 N1852 1.345 . S
C1853 H1858 0.930 . S
C1854 N1851 1.390 . S
C1854 C1855 1.346 . S
C1854 H1859 0.930 . S
C1855 N1852 1.336 . S
C1855 C1854 1.346 . S
C1855 H1862 0.929 . S
C1856 O1846 1.282 . S
C1856 O1857 1.216 . S
O1857 C1856 1.216 . S
H1858 C1853 0.930 . S
H1859 C1854 0.930 . S
O1860 Cu1840 1.959 . S
O1860 C1847 1.251 . S
H1861 C1844 0.930 . S
H1862 C1855 0.929 . S
Cu1863 N1864 1.999 . S
Cu1863 O1869 1.974 . S
Cu1863 N1874 1.985 . S
Cu1863 O1883 1.959 . S
N1864 Cu1863 1.999 . S
N1864 C1866 1.263 . S
N1864 C1868 1.389 . S
N1865 C1866 1.358 . S
N1865 C1867 1.400 . S
C1866 N1864 1.263 . S
C1866 N1865 1.358 . S
C1866 H1872 0.930 . S
C1867 N1865 1.400 . S
C1867 C1868 1.351 . S
C1867 H1884 0.930 . S
C1868 N1864 1.389 . S
C1868 C1867 1.351 . S
C1868 H1873 0.930 . S
O1869 Cu1863 1.974 . S
O1869 C1879 1.282 . S
C1870 O1871 1.261 . S
C1870 O1883 1.251 . S
O1871 C1870 1.261 . S
H1872 C1866 0.930 . S
H1873 C1868 0.930 . S
N1874 Cu1863 1.985 . S
N1874 C1876 1.335 . S
N1874 C1877 1.390 . S
N1875 C1876 1.345 . S
N1875 C1878 1.336 . S
C1876 N1874 1.335 . S
C1876 N1875 1.345 . S
C1876 H1881 0.930 . S
C1877 N1874 1.390 . S
C1877 C1878 1.346 . S
C1877 H1882 0.930 . S
C1878 N1875 1.336 . S
C1878 C1877 1.346 . S
C1878 H1885 0.929 . S
C1879 O1869 1.282 . S
C1879 O1880 1.216 . S
O1880 C1879 1.216 . S
H1881 C1876 0.930 . S
H1882 C1877 0.930 . S
O1883 Cu1863 1.959 . S
O1883 C1870 1.251 . S
H1884 C1867 0.930 . S
H1885 C1878 0.929 . S
Cu1886 N1887 1.999 . S
Cu1886 O1892 1.974 . S
Cu1886 N1897 1.985 . S
Cu1886 O1906 1.959 . S
N1887 Cu1886 1.999 . S
N1887 C1889 1.263 . S
N1887 C1891 1.389 . S
N1888 C1889 1.358 . S
N1888 C1890 1.400 . S
C1889 N1887 1.263 . S
C1889 N1888 1.358 . S
C1889 H1895 0.930 . S
C1890 N1888 1.400 . S
C1890 C1891 1.351 . S
C1890 H1907 0.930 . S
C1891 N1887 1.389 . S
C1891 C1890 1.351 . S
C1891 H1896 0.930 . S
O1892 Cu1886 1.974 . S
O1892 C1902 1.282 . S
C1893 O1894 1.261 . S
C1893 O1906 1.251 . S
O1894 C1893 1.261 . S
H1895 C1889 0.930 . S
H1896 C1891 0.930 . S
N1897 Cu1886 1.985 . S
N1897 C1899 1.335 . S
N1897 C1900 1.390 . S
N1898 C1899 1.345 . S
N1898 C1901 1.336 . S
C1899 N1897 1.335 . S
C1899 N1898 1.345 . S
C1899 H1904 0.930 . S
C1900 N1897 1.390 . S
C1900 C1901 1.346 . S
C1900 H1905 0.930 . S
C1901 N1898 1.336 . S
C1901 C1900 1.346 . S
C1901 H1908 0.929 . S
C1902 O1892 1.282 . S
C1902 O1903 1.216 . S
O1903 C1902 1.216 . S
H1904 C1899 0.930 . S
H1905 C1900 0.930 . S
O1906 Cu1886 1.959 . S
O1906 C1893 1.251 . S
H1907 C1890 0.930 . S
H1908 C1901 0.929 . S
Cu1909 N1910 1.999 . S
Cu1909 O1915 1.974 . S
Cu1909 N1920 1.985 . S
Cu1909 O1929 1.959 . S
N1910 Cu1909 1.999 . S
N1910 C1912 1.263 . S
N1910 C1914 1.389 . S
N1911 C1912 1.358 . S
N1911 C1913 1.400 . S
C1912 N1910 1.263 . S
C1912 N1911 1.358 . S
C1912 H1918 0.930 . S
C1913 N1911 1.400 . S
C1913 C1914 1.351 . S
C1913 H1930 0.930 . S
C1914 N1910 1.389 . S
C1914 C1913 1.351 . S
C1914 H1919 0.930 . S
O1915 Cu1909 1.974 . S
O1915 C1925 1.282 . S
C1916 O1917 1.261 . S
C1916 O1929 1.251 . S
O1917 C1916 1.261 . S
H1918 C1912 0.930 . S
H1919 C1914 0.930 . S
N1920 Cu1909 1.985 . S
N1920 C1922 1.335 . S
N1920 C1923 1.390 . S
N1921 C1922 1.345 . S
N1921 C1924 1.336 . S
C1922 N1920 1.335 . S
C1922 N1921 1.345 . S
C1922 H1927 0.930 . S
C1923 N1920 1.390 . S
C1923 C1924 1.346 . S
C1923 H1928 0.930 . S
C1924 N1921 1.336 . S
C1924 C1923 1.346 . S
C1924 H1931 0.929 . S
C1925 O1915 1.282 . S
C1925 O1926 1.216 . S
O1926 C1925 1.216 . S
H1927 C1922 0.930 . S
H1928 C1923 0.930 . S
O1929 Cu1909 1.959 . S
O1929 C1916 1.251 . S
H1930 C1913 0.930 . S
H1931 C1924 0.929 . S
Cu1932 N1933 1.999 . S
Cu1932 O1938 1.974 . S
Cu1932 N1943 1.985 . S
Cu1932 O1952 1.959 . S
N1933 Cu1932 1.999 . S
N1933 C1935 1.263 . S
N1933 C1937 1.389 . S
N1934 C1935 1.358 . S
N1934 C1936 1.400 . S
C1935 N1933 1.263 . S
C1935 N1934 1.358 . S
C1935 H1941 0.930 . S
C1936 N1934 1.400 . S
C1936 C1937 1.351 . S
C1936 H1953 0.930 . S
C1937 N1933 1.389 . S
C1937 C1936 1.351 . S
C1937 H1942 0.930 . S
O1938 Cu1932 1.974 . S
O1938 C1948 1.282 . S
C1939 O1940 1.261 . S
C1939 O1952 1.251 . S
O1940 C1939 1.261 . S
H1941 C1935 0.930 . S
H1942 C1937 0.930 . S
N1943 Cu1932 1.985 . S
N1943 C1945 1.335 . S
N1943 C1946 1.390 . S
N1944 C1945 1.345 . S
N1944 C1947 1.336 . S
C1945 N1943 1.335 . S
C1945 N1944 1.345 . S
C1945 H1950 0.930 . S
C1946 N1943 1.390 . S
C1946 C1947 1.346 . S
C1946 H1951 0.930 . S
C1947 N1944 1.336 . S
C1947 C1946 1.346 . S
C1947 H1954 0.929 . S
C1948 O1938 1.282 . S
C1948 O1949 1.216 . S
O1949 C1948 1.216 . S
H1950 C1945 0.930 . S
H1951 C1946 0.930 . S
O1952 Cu1932 1.959 . S
O1952 C1939 1.251 . S
H1953 C1936 0.930 . S
H1954 C1947 0.929 . S
Cu1955 N1956 1.999 . S
Cu1955 O1961 1.974 . S
Cu1955 N1966 1.985 . S
Cu1955 O1975 1.959 . S
N1956 Cu1955 1.999 . S
N1956 C1958 1.263 . S
N1956 C1960 1.389 . S
N1957 C1958 1.358 . S
N1957 C1959 1.400 . S
C1958 N1956 1.263 . S
C1958 N1957 1.358 . S
C1958 H1964 0.930 . S
C1959 N1957 1.400 . S
C1959 C1960 1.351 . S
C1959 H1976 0.930 . S
C1960 N1956 1.389 . S
C1960 C1959 1.351 . S
C1960 H1965 0.930 . S
O1961 Cu1955 1.974 . S
O1961 C1971 1.282 . S
C1962 O1963 1.261 . S
C1962 O1975 1.251 . S
O1963 C1962 1.261 . S
H1964 C1958 0.930 . S
H1965 C1960 0.930 . S
N1966 Cu1955 1.985 . S
N1966 C1968 1.335 . S
N1966 C1969 1.390 . S
N1967 C1968 1.345 . S
N1967 C1970 1.336 . S
C1968 N1966 1.335 . S
C1968 N1967 1.345 . S
C1968 H1973 0.930 . S
C1969 N1966 1.390 . S
C1969 C1970 1.346 . S
C1969 H1974 0.930 . S
C1970 N1967 1.336 . S
C1970 C1969 1.346 . S
C1970 H1977 0.929 . S
C1971 O1961 1.282 . S
C1971 O1972 1.216 . S
O1972 C1971 1.216 . S
H1973 C1968 0.930 . S
H1974 C1969 0.930 . S
O1975 Cu1955 1.959 . S
O1975 C1962 1.251 . S
H1976 C1959 0.930 . S
H1977 C1970 0.929 . S
Cu1978 N1979 1.999 . S
Cu1978 O1984 1.974 . S
Cu1978 N1989 1.985 . S
Cu1978 O1998 1.959 . S
N1979 Cu1978 1.999 . S
N1979 C1981 1.263 . S
N1979 C1983 1.389 . S
N1980 C1981 1.358 . S
N1980 C1982 1.400 . S
C1981 N1979 1.263 . S
C1981 N1980 1.358 . S
C1981 H1987 0.930 . S
C1982 N1980 1.400 . S
C1982 C1983 1.351 . S
C1982 H1999 0.930 . S
C1983 N1979 1.389 . S
C1983 C1982 1.351 . S
C1983 H1988 0.930 . S
O1984 Cu1978 1.974 . S
O1984 C1994 1.282 . S
C1985 O1986 1.261 . S
C1985 O1998 1.251 . S
O1986 C1985 1.261 . S
H1987 C1981 0.930 . S
H1988 C1983 0.930 . S
N1989 Cu1978 1.985 . S
N1989 C1991 1.335 . S
N1989 C1992 1.390 . S
N1990 C1991 1.345 . S
N1990 C1993 1.336 . S
C1991 N1989 1.335 . S
C1991 N1990 1.345 . S
C1991 H1996 0.930 . S
C1992 N1989 1.390 . S
C1992 C1993 1.346 . S
C1992 H1997 0.930 . S
C1993 N1990 1.336 . S
C1993 C1992 1.346 . S
C1993 H2000 0.929 . S
C1994 O1984 1.282 . S
C1994 O1995 1.216 . S
O1995 C1994 1.216 . S
H1996 C1991 0.930 . S
H1997 C1992 0.930 . S
O1998 Cu1978 1.959 . S
O1998 C1985 1.251 . S
H1999 C1982 0.930 . S
H2000 C1993 0.929 . S
Cu2001 N2002 1.999 . S
Cu2001 O2007 1.974 . S
Cu2001 N2012 1.985 . S
Cu2001 O2021 1.959 . S
N2002 Cu2001 1.999 . S
N2002 C2004 1.263 . S
N2002 C2006 1.389 . S
N2003 C2004 1.358 . S
N2003 C2005 1.400 . S
C2004 N2002 1.263 . S
C2004 N2003 1.358 . S
C2004 H2010 0.930 . S
C2005 N2003 1.400 . S
C2005 C2006 1.351 . S
C2005 H2022 0.930 . S
C2006 N2002 1.389 . S
C2006 C2005 1.351 . S
C2006 H2011 0.930 . S
O2007 Cu2001 1.974 . S
O2007 C2017 1.282 . S
C2008 O2009 1.261 . S
C2008 O2021 1.251 . S
O2009 C2008 1.261 . S
H2010 C2004 0.930 . S
H2011 C2006 0.930 . S
N2012 Cu2001 1.985 . S
N2012 C2014 1.335 . S
N2012 C2015 1.390 . S
N2013 C2014 1.345 . S
N2013 C2016 1.336 . S
C2014 N2012 1.335 . S
C2014 N2013 1.345 . S
C2014 H2019 0.930 . S
C2015 N2012 1.390 . S
C2015 C2016 1.346 . S
C2015 H2020 0.930 . S
C2016 N2013 1.336 . S
C2016 C2015 1.346 . S
C2016 H2023 0.929 . S
C2017 O2007 1.282 . S
C2017 O2018 1.216 . S
O2018 C2017 1.216 . S
H2019 C2014 0.930 . S
H2020 C2015 0.930 . S
O2021 Cu2001 1.959 . S
O2021 C2008 1.251 . S
H2022 C2005 0.930 . S
H2023 C2016 0.929 . S
Cu2024 N2025 1.999 . S
Cu2024 O2030 1.974 . S
Cu2024 N2035 1.985 . S
Cu2024 O2044 1.959 . S
N2025 Cu2024 1.999 . S
N2025 C2027 1.263 . S
N2025 C2029 1.389 . S
N2026 C2027 1.358 . S
N2026 C2028 1.400 . S
C2027 N2025 1.263 . S
C2027 N2026 1.358 . S
C2027 H2033 0.930 . S
C2028 N2026 1.400 . S
C2028 C2029 1.351 . S
C2028 H2045 0.930 . S
C2029 N2025 1.389 . S
C2029 C2028 1.351 . S
C2029 H2034 0.930 . S
O2030 Cu2024 1.974 . S
O2030 C2040 1.282 . S
C2031 O2032 1.261 . S
C2031 O2044 1.251 . S
O2032 C2031 1.261 . S
H2033 C2027 0.930 . S
H2034 C2029 0.930 . S
N2035 Cu2024 1.985 . S
N2035 C2037 1.335 . S
N2035 C2038 1.390 . S
N2036 C2037 1.345 . S
N2036 C2039 1.336 . S
C2037 N2035 1.335 . S
C2037 N2036 1.345 . S
C2037 H2042 0.930 . S
C2038 N2035 1.390 . S
C2038 C2039 1.346 . S
C2038 H2043 0.930 . S
C2039 N2036 1.336 . S
C2039 C2038 1.346 . S
C2039 H2046 0.929 . S
C2040 O2030 1.282 . S
C2040 O2041 1.216 . S
O2041 C2040 1.216 . S
H2042 C2037 0.930 . S
H2043 C2038 0.930 . S
O2044 Cu2024 1.959 . S
O2044 C2031 1.251 . S
H2045 C2028 0.930 . S
H2046 C2039 0.929 . S
Cu2047 N2048 1.999 . S
Cu2047 O2053 1.974 . S
Cu2047 N2058 1.985 . S
Cu2047 O2067 1.959 . S
N2048 Cu2047 1.999 . S
N2048 C2050 1.263 . S
N2048 C2052 1.389 . S
N2049 C2050 1.358 . S
N2049 C2051 1.400 . S
C2050 N2048 1.263 . S
C2050 N2049 1.358 . S
C2050 H2056 0.930 . S
C2051 N2049 1.400 . S
C2051 C2052 1.351 . S
C2051 H2068 0.930 . S
C2052 N2048 1.389 . S
C2052 C2051 1.351 . S
C2052 H2057 0.930 . S
O2053 Cu2047 1.974 . S
O2053 C2063 1.282 . S
C2054 O2055 1.261 . S
C2054 O2067 1.251 . S
O2055 C2054 1.261 . S
H2056 C2050 0.930 . S
H2057 C2052 0.930 . S
N2058 Cu2047 1.985 . S
N2058 C2060 1.335 . S
N2058 C2061 1.390 . S
N2059 C2060 1.345 . S
N2059 C2062 1.336 . S
C2060 N2058 1.335 . S
C2060 N2059 1.345 . S
C2060 H2065 0.930 . S
C2061 N2058 1.390 . S
C2061 C2062 1.346 . S
C2061 H2066 0.930 . S
C2062 N2059 1.336 . S
C2062 C2061 1.346 . S
C2062 H2069 0.929 . S
C2063 O2053 1.282 . S
C2063 O2064 1.216 . S
O2064 C2063 1.216 . S
H2065 C2060 0.930 . S
H2066 C2061 0.930 . S
O2067 Cu2047 1.959 . S
O2067 C2054 1.251 . S
H2068 C2051 0.930 . S
H2069 C2062 0.929 . S
Cu2070 N2071 1.999 . S
Cu2070 O2076 1.974 . S
Cu2070 N2081 1.985 . S
Cu2070 O2090 1.959 . S
N2071 Cu2070 1.999 . S
N2071 C2073 1.263 . S
N2071 C2075 1.389 . S
N2072 C2073 1.358 . S
N2072 C2074 1.400 . S
C2073 N2071 1.263 . S
C2073 N2072 1.358 . S
C2073 H2079 0.930 . S
C2074 N2072 1.400 . S
C2074 C2075 1.351 . S
C2074 H2091 0.930 . S
C2075 N2071 1.389 . S
C2075 C2074 1.351 . S
C2075 H2080 0.930 . S
O2076 Cu2070 1.974 . S
O2076 C2086 1.282 . S
C2077 O2078 1.261 . S
C2077 O2090 1.251 . S
O2078 C2077 1.261 . S
H2079 C2073 0.930 . S
H2080 C2075 0.930 . S
N2081 Cu2070 1.985 . S
N2081 C2083 1.335 . S
N2081 C2084 1.390 . S
N2082 C2083 1.345 . S
N2082 C2085 1.336 . S
C2083 N2081 1.335 . S
C2083 N2082 1.345 . S
C2083 H2088 0.930 . S
C2084 N2081 1.390 . S
C2084 C2085 1.346 . S
C2084 H2089 0.930 . S
C2085 N2082 1.336 . S
C2085 C2084 1.346 . S
C2085 H2092 0.929 . S
C2086 O2076 1.282 . S
C2086 O2087 1.216 . S
O2087 C2086 1.216 . S
H2088 C2083 0.930 . S
H2089 C2084 0.930 . S
O2090 Cu2070 1.959 . S
O2090 C2077 1.251 . S
H2091 C2074 0.930 . S
H2092 C2085 0.929 . S
Cu2093 N2094 1.977 1_554 S
Cu2093 O2099 1.974 . S
Cu2093 N2104 1.985 . S
Cu2093 O2113 1.959 . S
N2094 Cu2093 1.977 1_556 S
N2094 C2096 1.285 . S
N2094 C2098 1.393 . S
N2095 C2096 1.358 . S
N2095 C2097 1.400 . S
C2096 N2094 1.285 . S
C2096 N2095 1.358 . S
C2096 H2102 0.930 . S
C2097 N2095 1.400 . S
C2097 C2098 1.351 . S
C2097 H2114 0.930 . S
C2098 N2094 1.393 . S
C2098 C2097 1.351 . S
C2098 H2103 0.930 1_556 S
O2099 Cu2093 1.974 . S
O2099 C2109 1.282 1_554 S
C2100 O2101 1.261 . S
C2100 O2113 1.251 . S
O2101 C2100 1.261 . S
H2102 C2096 0.930 . S
H2103 C2098 0.930 1_554 S
N2104 Cu2093 1.985 . S
N2104 C2106 1.335 . S
N2104 C2107 1.390 . S
N2105 C2106 1.345 . S
N2105 C2108 1.336 . S
C2106 N2104 1.335 . S
C2106 N2105 1.345 . S
C2106 H2111 0.930 . S
C2107 N2104 1.390 . S
C2107 C2108 1.346 . S
C2107 H2112 0.930 . S
C2108 N2105 1.336 . S
C2108 C2107 1.346 . S
C2108 H2115 0.929 . S
C2109 O2099 1.282 1_556 S
C2109 O2110 1.216 1_556 S
O2110 C2109 1.216 1_554 S
H2111 C2106 0.930 . S
H2112 C2107 0.930 . S
O2113 Cu2093 1.959 . S
O2113 C2100 1.251 . S
H2114 C2097 0.930 . S
H2115 C2108 0.929 . S
Cu2116 N2117 1.999 . S
Cu2116 O2122 1.974 . S
Cu2116 N2127 1.985 . S
Cu2116 O2136 1.959 . S
N2117 Cu2116 1.999 . S
N2117 C2119 1.263 . S
N2117 C2121 1.389 . S
N2118 C2119 1.358 . S
N2118 C2120 1.400 . S
C2119 N2117 1.263 . S
C2119 N2118 1.358 . S
C2119 H2125 0.930 . S
C2120 N2118 1.400 . S
C2120 C2121 1.351 . S
C2120 H2137 0.930 . S
C2121 N2117 1.389 . S
C2121 C2120 1.351 . S
C2121 H2126 0.930 . S
O2122 Cu2116 1.974 . S
O2122 C2132 1.282 . S
C2123 O2124 1.261 . S
C2123 O2136 1.251 . S
O2124 C2123 1.261 . S
H2125 C2119 0.930 . S
H2126 C2121 0.930 . S
N2127 Cu2116 1.985 . S
N2127 C2129 1.335 . S
N2127 C2130 1.390 . S
N2128 C2129 1.345 . S
N2128 C2131 1.336 . S
C2129 N2127 1.335 . S
C2129 N2128 1.345 . S
C2129 H2134 0.930 . S
C2130 N2127 1.390 . S
C2130 C2131 1.346 . S
C2130 H2135 0.930 . S
C2131 N2128 1.336 . S
C2131 C2130 1.346 . S
C2131 H2138 0.929 . S
C2132 O2122 1.282 . S
C2132 O2133 1.216 . S
O2133 C2132 1.216 . S
H2134 C2129 0.930 . S
H2135 C2130 0.930 . S
O2136 Cu2116 1.959 . S
O2136 C2123 1.251 . S
H2137 C2120 0.930 . S
H2138 C2131 0.929 . S
Cu2139 N2140 1.978 1_556 S
Cu2139 O2145 1.974 . S
Cu2139 N2150 1.985 . S
Cu2139 O2159 1.959 . S
N2140 Cu2139 1.978 1_554 S
N2140 C2142 1.285 . S
N2140 C2144 1.393 . S
N2141 C2142 1.358 . S
N2141 C2143 1.400 . S
C2142 N2140 1.285 . S
C2142 N2141 1.358 . S
C2142 H2148 0.930 . S
C2143 N2141 1.400 . S
C2143 C2144 1.351 . S
C2143 H2160 0.930 . S
C2144 N2140 1.393 . S
C2144 C2143 1.351 . S
C2144 H2149 0.930 1_554 S
O2145 Cu2139 1.974 . S
O2145 C2155 1.282 1_556 S
C2146 O2147 1.261 . S
C2146 O2159 1.251 . S
O2147 C2146 1.261 . S
H2148 C2142 0.930 . S
H2149 C2144 0.930 1_556 S
N2150 Cu2139 1.985 . S
N2150 C2152 1.335 . S
N2150 C2153 1.390 . S
N2151 C2152 1.345 . S
N2151 C2154 1.336 . S
C2152 N2150 1.335 . S
C2152 N2151 1.345 . S
C2152 H2157 0.930 . S
C2153 N2150 1.390 . S
C2153 C2154 1.346 . S
C2153 H2158 0.930 . S
C2154 N2151 1.336 . S
C2154 C2153 1.346 . S
C2154 H2161 0.929 . S
C2155 O2145 1.282 1_554 S
C2155 O2156 1.216 1_554 S
O2156 C2155 1.216 1_556 S
H2157 C2152 0.930 . S
H2158 C2153 0.930 . S
O2159 Cu2139 1.959 . S
O2159 C2146 1.251 . S
H2160 C2143 0.930 . S
H2161 C2154 0.929 . S
Cu2162 N2163 1.999 . S
Cu2162 O2168 1.974 . S
Cu2162 N2173 1.985 . S
Cu2162 O2182 1.959 . S
N2163 Cu2162 1.999 . S
N2163 C2165 1.263 . S
N2163 C2167 1.389 . S
N2164 C2165 1.358 . S
N2164 C2166 1.400 . S
C2165 N2163 1.263 . S
C2165 N2164 1.358 . S
C2165 H2171 0.930 . S
C2166 N2164 1.400 . S
C2166 C2167 1.351 . S
C2166 H2183 0.930 . S
C2167 N2163 1.389 . S
C2167 C2166 1.351 . S
C2167 H2172 0.930 . S
O2168 Cu2162 1.974 . S
O2168 C2178 1.282 . S
C2169 O2170 1.261 . S
C2169 O2182 1.251 . S
O2170 C2169 1.261 . S
H2171 C2165 0.930 . S
H2172 C2167 0.930 . S
N2173 Cu2162 1.985 . S
N2173 C2175 1.335 . S
N2173 C2176 1.390 . S
N2174 C2175 1.345 . S
N2174 C2177 1.336 . S
C2175 N2173 1.335 . S
C2175 N2174 1.345 . S
C2175 H2180 0.930 . S
C2176 N2173 1.390 . S
C2176 C2177 1.346 . S
C2176 H2181 0.930 . S
C2177 N2174 1.336 . S
C2177 C2176 1.346 . S
C2177 H2184 0.929 . S
C2178 O2168 1.282 . S
C2178 O2179 1.216 . S
O2179 C2178 1.216 . S
H2180 C2175 0.930 . S
H2181 C2176 0.930 . S
O2182 Cu2162 1.959 . S
O2182 C2169 1.251 . S
H2183 C2166 0.930 . S
H2184 C2177 0.929 . S
Cu2185 N2186 1.999 . S
Cu2185 O2191 1.974 . S
Cu2185 N2196 1.985 . S
Cu2185 O2205 1.959 . S
N2186 Cu2185 1.999 . S
N2186 C2188 1.263 . S
N2186 C2190 1.389 . S
N2187 C2188 1.358 . S
N2187 C2189 1.400 . S
C2188 N2186 1.263 . S
C2188 N2187 1.358 . S
C2188 H2194 0.930 . S
C2189 N2187 1.400 . S
C2189 C2190 1.351 . S
C2189 H2206 0.930 . S
C2190 N2186 1.389 . S
C2190 C2189 1.351 . S
C2190 H2195 0.930 . S
O2191 Cu2185 1.974 . S
O2191 C2201 1.282 . S
C2192 O2193 1.261 . S
C2192 O2205 1.251 . S
O2193 C2192 1.261 . S
H2194 C2188 0.930 . S
H2195 C2190 0.930 . S
N2196 Cu2185 1.985 . S
N2196 C2198 1.335 . S
N2196 C2199 1.390 . S
N2197 C2198 1.345 . S
N2197 C2200 1.336 . S
C2198 N2196 1.335 . S
C2198 N2197 1.345 . S
C2198 H2203 0.930 . S
C2199 N2196 1.390 . S
C2199 C2200 1.346 . S
C2199 H2204 0.930 . S
C2200 N2197 1.336 . S
C2200 C2199 1.346 . S
C2200 H2207 0.929 . S
C2201 O2191 1.282 . S
C2201 O2202 1.216 . S
O2202 C2201 1.216 . S
H2203 C2198 0.930 . S
H2204 C2199 0.930 . S
O2205 Cu2185 1.959 . S
O2205 C2192 1.251 . S
H2206 C2189 0.930 . S
H2207 C2200 0.929 . S
N2 N1727 1.542 . S
C559 N25 1.435 . S
N1681 N48 1.542 . S
C605 N71 1.435 . S
N94 N1773 1.542 . S
N117 C697 1.435 . S
N1819 N140 1.542 . S
N163 C651 1.435 . S
N186 C2077 1.358 . S
N991 N209 1.542 . S
N232 C1019 1.358 . S
N255 N945 1.542 . S
N278 C2169 1.358 . S
N301 N2026 1.542 . S
N324 C2192 1.358 . S
N347 N2141 1.542 . S
C1870 N370 1.435 . S
N393 C904 1.435 . S
N416 C1939 1.358 . S
C858 N439 1.435 . S
N462 C881 1.358 . S
C1916 N485 1.435 . S
N508 C1847 1.358 . S
C1893 N531 1.358 . S
C1180 N554 1.793 . S
C7 C582 2.325 . S
N600 C1134 1.793 . S
C628 C53 2.325 . S
N646 C1226 1.793 . S
C145 C674 2.325 . S
N692 C1272 1.793 . S
C720 C99 2.325 . S
N738 C1525 1.841 . S
C444 N761 1.793 . S
N784 C467 1.841 . S
C398 N807 1.793 . S
N830 C1617 1.841 . S
N853 C1479 1.793 . S
N876 C1640 1.841 . S
C1594 N899 1.793 . S
C1318 C927 2.325 . S
C352 C950 2.324 . S
C1387 N968 1.841 . S
C996 C306 2.325 . S
N1014 C329 1.841 . S
C1042 C1364 2.325 . S
C1295 N1060 1.841 . S
N1083 C1341 1.841 . S
N623 N1106 1.542 . S
C1663 N1129 1.435 . S
N1152 N577 1.542 . S
C1709 N1175 1.435 . S
N1198 N669 1.542 . S
C1801 N1221 1.435 . S
N1244 N715 1.542 . S
C1755 N1267 1.435 . S
C973 N1290 1.358 . S
N1313 N2095 1.542 . S
C2123 N1336 1.358 . S
N1359 N2049 1.542 . S
C1065 N1382 1.357 . S
N1405 N922 1.542 . S
C1088 N1428 1.358 . S
N1037 N1451 1.542 . S
C766 N1474 1.435 . S
C2008 N1497 1.435 . S
N1520 C835 1.358 . S
N1543 C1962 1.435 . S
C1985 N1566 1.358 . S
C812 N1589 1.435 . S
C743 N1612 1.358 . S
C789 N1635 1.358 . S
N1658 C76 1.793 . S
C1686 C1111 2.325 . S
N1704 C30 1.793 . S
C1732 C1157 2.325 . S
C122 N1750 1.793 . S
C1249 C1778 2.325 . S
C168 N1796 1.793 . S
C1203 C1824 2.325 . S
N1842 C421 1.841 . S
C1548 N1865 1.793 . S
N1888 C1571 1.841 . S
N1911 C1502 1.793 . S
C513 N1934 1.841 . S
C375 N1957 1.793 . S
N1980 C536 1.841 . S
C490 N2003 1.793 . S
C2031 C214 2.325 . S
C2054 C1456 2.325 . S
C283 N2072 1.841 . S
C2100 C1410 2.325 . S
C1433 N2118 1.841 . S
C2146 C260 2.325 . S
N2164 C191 1.841 . S
N2187 C237 1.841 . S
C16 C1005 2.127 . S
N1024 C39 1.732 . S
C959 C62 2.127 . S
C85 N2082 1.732 . S
C108 C2155 2.127 . S
C131 N2174 1.732 . S
C2040 C154 2.127 . S
N2197 C177 1.732 . S
N610 C200 1.726 . S
C223 C1741 2.127 . S
N564 C246 1.726 . S
C1695 C269 2.127 . S
N702 C292 1.726 . S
C315 C1833 2.127 . S
C338 N656 1.726 . S
C361 C1787 2.127 . S
C384 N1944 1.732 . S
N748 C407 1.732 . S
C430 N1875 1.726 . S
C453 N794 1.732 . S
C476 N817 1.726 . S
C499 N1990 1.732 . S
N2013 C522 1.726 . S
N1967 C545 1.726 . S
N449 C568 1.753 . S
N587 N472 2.397 . S
C614 N403 1.753 . S
N633 N1530 2.397 . S
N1599 C660 1.753 . S
N1622 N679 2.396 . S
C706 N1484 1.753 . S
N1645 N725 2.397 . S
C752 N58 1.997 . S
N1185 C775 1.753 . S
C798 N12 1.997 . S
N1139 C821 1.753 . S
C844 N150 1.997 . S
N1277 C867 1.753 . S
N104 C890 1.997 . S
N1231 C913 1.753 . S
N932 N1392 2.396 . S
N955 N196 2.397 . S
N1323 C982 1.997 . S
N1001 N242 2.397 . S
N265 C1028 1.997 . S
N1438 N1047 2.397 . S
N1461 C1074 1.997 . S
N1415 C1097 1.997 . S
C1120 C2109 2.127 . S
C1143 N2128 1.732 . S
C1166 C2063 2.127 . S
N978 C1189 1.732 . S
C1212 C1051 2.127 . S
N1070 C1235 1.732 . S
C936 C1258 2.127 . S
N1093 C1281 1.732 . S
C1304 N1714 1.726 . S
C637 C1327 2.127 . S
C1350 N1668 1.726 . S
C1373 C591 2.127 . S
C1396 N1806 1.726 . S
C1419 C729 2.127 . S
N1760 C1442 1.726 . S
C683 C1465 2.127 . S
C1488 N840 1.732 . S
C1511 N1852 1.732 . S
C1534 N771 1.726 . S
N1898 C1557 1.732 . S
C1580 N1921 1.726 . S
C1603 N886 1.732 . S
N909 C1626 1.726 . S
C1649 N863 1.726 . S
C1672 N1553 1.753 . S
N1576 N1691 2.397 . S
N1507 C1718 1.753 . S
N1737 N426 2.397 . S
C1764 N495 1.753 . S
N1783 N518 2.397 . S
N380 C1810 1.753 . S
N1829 N541 2.397 . S
C1856 N1162 1.997 . S
C1879 N81 1.753 . S
C1902 N1116 1.997 . S
C1925 N35 1.753 . S
C1948 N1254 1.997 . S
C1971 N173 1.753 . S
C1994 N1208 1.997 . S
C2017 N127 1.753 . S
N2036 N288 2.397 . S
N2059 N1300 2.396 . S
C2086 N219 1.997 . S
N2105 N1346 2.397 . S
C2132 N1369 1.997 . S
N334 N2151 2.397 . S
C2178 N357 1.997 . S
C2201 N311 1.997 . S
