# Generated by pormake.
# Topology uob, (4)-cn, num edge types: 1
# Building blocks:
#     Node 0, Type 0, BuildingBlock: NAWXER_clean_sbu_0, # of connection points: 4
#     Node 1, Type 0, BuildingBlock: NAWXER_clean_sbu_0, # of connection points: 4
#     Node 2, Type 0, BuildingBlock: NAWXER_clean_sbu_0, # of connection points: 4
#     Node 3, Type 0, BuildingBlock: NAWXER_clean_sbu_0, # of connection points: 4
#     Node 4, Type 0, BuildingBlock: NAWXER_clean_sbu_0, # of connection points: 4
#     Node 5, Type 0, BuildingBlock: NAWXER_clean_sbu_0, # of connection points: 4
#     Node 6, Type 0, BuildingBlock: NAWXER_clean_sbu_0, # of connection points: 4
#     Node 7, Type 0, BuildingBlock: NAWXER_clean_sbu_0, # of connection points: 4
#     Node 8, Type 0, BuildingBlock: NAWXER_clean_sbu_0, # of connection points: 4
#     Node 9, Type 0, BuildingBlock: NAWXER_clean_sbu_0, # of connection points: 4
#     Node 10, Type 0, BuildingBlock: NAWXER_clean_sbu_0, # of connection points: 4
#     Node 11, Type 0, BuildingBlock: NAWXER_clean_sbu_0, # of connection points: 4
#     Node 12, Type 0, BuildingBlock: NAWXER_clean_sbu_0, # of connection points: 4
#     Node 13, Type 0, BuildingBlock: NAWXER_clean_sbu_0, # of connection points: 4
#     Node 14, Type 0, BuildingBlock: NAWXER_clean_sbu_0, # of connection points: 4
#     Node 15, Type 0, BuildingBlock: NAWXER_clean_sbu_0, # of connection points: 4
#     Edge 16, Type (0, 0), BuildingBlock: UVAHIK_clean_linker_0, # of connection points: 2
#     Edge 17, Type (0, 0), BuildingBlock: UVAHIK_clean_linker_0, # of connection points: 2
#     Edge 18, Type (0, 0), BuildingBlock: UVAHIK_clean_linker_0, # of connection points: 2
#     Edge 19, Type (0, 0), BuildingBlock: UVAHIK_clean_linker_0, # of connection points: 2
#     Edge 20, Type (0, 0), BuildingBlock: UVAHIK_clean_linker_0, # of connection points: 2
#     Edge 21, Type (0, 0), BuildingBlock: UVAHIK_clean_linker_0, # of connection points: 2
#     Edge 22, Type (0, 0), BuildingBlock: UVAHIK_clean_linker_0, # of connection points: 2
#     Edge 23, Type (0, 0), BuildingBlock: UVAHIK_clean_linker_0, # of connection points: 2
#     Edge 24, Type (0, 0), BuildingBlock: UVAHIK_clean_linker_0, # of connection points: 2
#     Edge 25, Type (0, 0), BuildingBlock: UVAHIK_clean_linker_0, # of connection points: 2
#     Edge 26, Type (0, 0), BuildingBlock: UVAHIK_clean_linker_0, # of connection points: 2
#     Edge 27, Type (0, 0), BuildingBlock: UVAHIK_clean_linker_0, # of connection points: 2
#     Edge 28, Type (0, 0), BuildingBlock: UVAHIK_clean_linker_0, # of connection points: 2
#     Edge 29, Type (0, 0), BuildingBlock: UVAHIK_clean_linker_0, # of connection points: 2
#     Edge 30, Type (0, 0), BuildingBlock: UVAHIK_clean_linker_0, # of connection points: 2
#     Edge 31, Type (0, 0), BuildingBlock: UVAHIK_clean_linker_0, # of connection points: 2
#     Edge 32, Type (0, 0), BuildingBlock: UVAHIK_clean_linker_0, # of connection points: 2
#     Edge 33, Type (0, 0), BuildingBlock: UVAHIK_clean_linker_0, # of connection points: 2
#     Edge 34, Type (0, 0), BuildingBlock: UVAHIK_clean_linker_0, # of connection points: 2
#     Edge 35, Type (0, 0), BuildingBlock: UVAHIK_clean_linker_0, # of connection points: 2
#     Edge 36, Type (0, 0), BuildingBlock: UVAHIK_clean_linker_0, # of connection points: 2
#     Edge 37, Type (0, 0), BuildingBlock: UVAHIK_clean_linker_0, # of connection points: 2
#     Edge 38, Type (0, 0), BuildingBlock: UVAHIK_clean_linker_0, # of connection points: 2
#     Edge 39, Type (0, 0), BuildingBlock: UVAHIK_clean_linker_0, # of connection points: 2
#     Edge 40, Type (0, 0), BuildingBlock: UVAHIK_clean_linker_0, # of connection points: 2
#     Edge 41, Type (0, 0), BuildingBlock: UVAHIK_clean_linker_0, # of connection points: 2
#     Edge 42, Type (0, 0), BuildingBlock: UVAHIK_clean_linker_0, # of connection points: 2
#     Edge 43, Type (0, 0), BuildingBlock: UVAHIK_clean_linker_0, # of connection points: 2
#     Edge 44, Type (0, 0), BuildingBlock: UVAHIK_clean_linker_0, # of connection points: 2
#     Edge 45, Type (0, 0), BuildingBlock: UVAHIK_clean_linker_0, # of connection points: 2
#     Edge 46, Type (0, 0), BuildingBlock: UVAHIK_clean_linker_0, # of connection points: 2
#     Edge 47, Type (0, 0), BuildingBlock: UVAHIK_clean_linker_0, # of connection points: 2
# Relax obj value: 0.120
# Max RMSD: 0.245
# Mean RMSD: 0.245
data_MOF--net-uob--node1-NAWXER_clean_sbu_0--edge1-UVAHIK_clean_linker_0
_symmetry_space_group_name_H-M    P1
_symmetry_Int_Tables_number       1
_symmetry_cell_setting            triclinic
loop_
_symmetry_equiv_pos_as_xyz
'x, y, z'
_cell_length_a     68.135276
_cell_length_b     68.129895
_cell_length_c     36.9822
_cell_angle_alpha  89.997365
_cell_angle_beta   89.98722
_cell_angle_gamma 90.004239
loop_
_atom_site_label
_atom_site_type_symbol
_atom_site_fract_x
_atom_site_fract_y
_atom_site_fract_z
_atom_type_partial_charge
C0 C 0.11062 0.07986 0.34549 0.0
C1 C 0.12749 0.09151 0.22055 0.0
O2 O 0.1176 0.06418 0.331 0.0
Zn3 Zn 0.12947 0.0562 0.27798 0.0
O4 O 0.10976 0.09557 0.32712 0.0
Zn5 Zn 0.12054 0.08511 0.28402 0.0
O6 O 0.09761 0.06442 0.26837 0.0
O7 O 0.11196 0.03549 0.26419 0.0
O8 O 0.12176 0.1032 0.24497 0.0
O9 O 0.13114 0.07357 0.22882 0.0
O10 O 0.15593 0.0485 0.28904 0.0
O11 O 0.15059 0.07974 0.30039 0.0
C12 C 0.09654 0.04589 0.26206 0.0
C13 C 0.16207 0.06481 0.30108 0.0
C14 C 0.92247 0.61055 0.59512 0.0
C15 C 0.91014 0.6265 0.46999 0.0
O16 O 0.93806 0.61746 0.58019 0.0
Zn17 Zn 0.94573 0.62895 0.52669 0.0
O18 O 0.90668 0.6095 0.57704 0.0
Zn19 Zn 0.91689 0.62002 0.53352 0.0
O20 O 0.93753 0.597 0.5181 0.0
O21 O 0.96639 0.61139 0.51294 0.0
O22 O 0.89859 0.62092 0.49475 0.0
O23 O 0.92811 0.63026 0.47785 0.0
O24 O 0.95349 0.65548 0.53697 0.0
O25 O 0.92235 0.65017 0.54924 0.0
C26 C 0.95601 0.59593 0.51144 0.0
C27 C 0.93728 0.66167 0.54935 0.0
C28 C 0.3914 0.42336 0.84654 0.0
C29 C 0.3749 0.4157 0.72016 0.0
O30 O 0.3849 0.43954 0.83325 0.0
Zn31 Zn 0.37353 0.44925 0.781 0.0
O32 O 0.39202 0.4081 0.82688 0.0
Zn33 Zn 0.38159 0.41991 0.78446 0.0
O34 O 0.40514 0.44046 0.77074 0.0
O35 O 0.39152 0.46985 0.7696 0.0
O36 O 0.3796 0.40295 0.74351 0.0
O37 O 0.37211 0.43352 0.73021 0.0
O38 O 0.34715 0.45726 0.79222 0.0
O39 O 0.35178 0.42571 0.80139 0.0
C40 C 0.40666 0.45912 0.7663 0.0
C41 C 0.34065 0.44086 0.80316 0.0
C42 C 0.58052 0.89175 0.0961 0.0
C43 C 0.59268 0.87775 0.97053 0.0
O44 O 0.56484 0.88506 0.08116 0.0
Zn45 Zn 0.55704 0.87441 0.02706 0.0
O46 O 0.59616 0.89323 0.07771 0.0
Zn47 Zn 0.58582 0.88333 0.0341 0.0
O48 O 0.56516 0.90648 0.01966 0.0
O49 O 0.53632 0.89208 0.01424 0.0
O50 O 0.60417 0.88297 0.99562 0.0
O51 O 0.57469 0.87382 0.97806 0.0
O52 O 0.54934 0.84772 0.03613 0.0
O53 O 0.58045 0.85298 0.04867 0.0
C54 C 0.54666 0.90757 0.01316 0.0
C55 C 0.56556 0.84145 0.04834 0.0
C56 C 0.1644 0.43986 0.01829 0.0
C57 C 0.09817 0.45787 0.0541 0.0
O58 O 0.15329 0.42467 0.01963 0.0
Zn59 Zn 0.12336 0.41877 0.03585 0.0
O60 O 0.15778 0.4562 0.02925 0.0
Zn61 Zn 0.13137 0.44809 0.03979 0.0
O62 O 0.13255 0.43217 0.09042 0.0
O63 O 0.12513 0.40165 0.07662 0.0
O64 O 0.11331 0.46862 0.05115 0.0
O65 O 0.09972 0.43923 0.04943 0.0
O66 O 0.11319 0.40709 0.99313 0.0
O67 O 0.12032 0.43855 0.98718 0.0
C68 C 0.12972 0.41431 0.1002 0.0
C69 C 0.11391 0.4224 0.97361 0.0
C70 C 0.58239 0.61394 0.21991 0.0
C71 C 0.59046 0.63138 0.34571 0.0
O72 O 0.56616 0.62025 0.23333 0.0
Zn73 Zn 0.55649 0.6318 0.28548 0.0
O74 O 0.59776 0.61375 0.23929 0.0
Zn75 Zn 0.58598 0.62423 0.28168 0.0
O76 O 0.56597 0.60045 0.29624 0.0
O77 O 0.53628 0.61338 0.29756 0.0
O78 O 0.6031 0.62666 0.32217 0.0
O79 O 0.57253 0.63387 0.33602 0.0
O80 O 0.54803 0.65802 0.27364 0.0
O81 O 0.57964 0.65384 0.26447 0.0
C82 C 0.54738 0.59851 0.30098 0.0
C83 C 0.56432 0.66473 0.26258 0.0
C84 C 0.39034 0.08096 0.4725 0.0
C85 C 0.3727 0.08958 0.59804 0.0
O86 O 0.3831 0.06503 0.48549 0.0
Zn87 Zn 0.37153 0.05562 0.5379 0.0
O88 O 0.39155 0.09614 0.49227 0.0
Zn89 Zn 0.3802 0.08475 0.5342 0.0
O90 O 0.40322 0.06402 0.54896 0.0
O91 O 0.38927 0.03481 0.55007 0.0
O92 O 0.37808 0.10201 0.57459 0.0
O93 O 0.36968 0.07173 0.58835 0.0
O94 O 0.34517 0.0479 0.52622 0.0
O95 O 0.35034 0.07932 0.51638 0.0
C96 C 0.4045 0.04537 0.55367 0.0
C97 C 0.33899 0.0643 0.51471 0.0
C98 C 0.92146 0.88974 0.7192 0.0
C99 C 0.91303 0.8727 0.84514 0.0
O100 O 0.9376 0.88327 0.73271 0.0
Zn101 Zn 0.94705 0.87173 0.78501 0.0
O102 O 0.90608 0.89015 0.73855 0.0
Zn103 Zn 0.91768 0.87963 0.78106 0.0
O104 O 0.93794 0.9032 0.7956 0.0
O105 O 0.96748 0.88991 0.79701 0.0
O106 O 0.90047 0.87749 0.82151 0.0
O107 O 0.93094 0.86998 0.83553 0.0
O108 O 0.95525 0.8454 0.77347 0.0
O109 O 0.9237 0.84989 0.76411 0.0
C110 C 0.95656 0.90491 0.80038 0.0
C111 C 0.93891 0.83883 0.7624 0.0
C112 C 0.66477 0.56367 0.79905 0.0
C113 C 0.59826 0.54671 0.76279 0.0
O114 O 0.65383 0.57898 0.79783 0.0
Zn115 Zn 0.62402 0.58532 0.7817 0.0
O116 O 0.658 0.54743 0.78789 0.0
Zn117 Zn 0.63166 0.5559 0.77718 0.0
O118 O 0.63323 0.57219 0.72685 0.0
O119 O 0.62599 0.60265 0.74143 0.0
O120 O 0.61322 0.53567 0.76545 0.0
O121 O 0.60016 0.56529 0.76774 0.0
O122 O 0.61396 0.59688 0.82458 0.0
O123 O 0.62065 0.5653 0.82995 0.0
C124 C 0.63057 0.59016 0.71754 0.0
C125 C 0.61442 0.58145 0.84379 0.0
C126 C 0.42263 0.11382 0.09607 0.0
C127 C 0.41259 0.12975 0.96997 0.0
O128 O 0.43843 0.12064 0.08183 0.0
Zn129 Zn 0.44727 0.13137 0.02865 0.0
O130 O 0.40713 0.11251 0.07718 0.0
Zn131 Zn 0.41802 0.1231 0.03399 0.0
O132 O 0.43829 0.09969 0.01928 0.0
O133 O 0.46769 0.11316 0.01651 0.0
O134 O 0.40034 0.12484 0.99408 0.0
O135 O 0.43055 0.13273 0.9789 0.0
O136 O 0.45541 0.15779 0.03879 0.0
O137 O 0.42405 0.1531 0.05009 0.0
C138 C 0.45685 0.09806 0.01391 0.0
C139 C 0.43921 0.1643 0.05066 0.0
C140 C 0.90547 0.95742 0.26207 0.0
C141 C 0.83897 0.94065 0.29913 0.0
O142 O 0.90351 0.93883 0.26696 0.0
Zn143 Zn 0.87961 0.91889 0.28121 0.0
O144 O 0.89057 0.96851 0.26507 0.0
Zn145 Zn 0.87208 0.94833 0.27693 0.0
O146 O 0.88325 0.93882 0.32951 0.0
O147 O 0.88979 0.90722 0.32391 0.0
O148 O 0.84579 0.95687 0.28797 0.0
O149 O 0.84986 0.9253 0.29773 0.0
O150 O 0.87744 0.90161 0.24088 0.0
O151 O 0.87034 0.93213 0.2265 0.0
C152 C 0.88946 0.92263 0.34319 0.0
C153 C 0.87289 0.91417 0.21707 0.0
C154 C 0.04515 0.40527 0.51712 0.0
C155 C 0.0626 0.33908 0.55482 0.0
O156 O 0.0638 0.40338 0.52114 0.0
Zn157 Zn 0.08401 0.37964 0.53513 0.0
O158 O 0.03412 0.3904 0.52119 0.0
Zn159 Zn 0.05448 0.37204 0.53253 0.0
O160 O 0.06469 0.38356 0.58425 0.0
O161 O 0.0962 0.39012 0.57721 0.0
O162 O 0.04618 0.34581 0.54451 0.0
O163 O 0.07789 0.34999 0.55241 0.0
O164 O 0.10068 0.37716 0.4939 0.0
O165 O 0.06991 0.37003 0.48142 0.0
C166 C 0.08103 0.38988 0.59713 0.0
C167 C 0.08771 0.37248 0.47094 0.0
C168 C 0.66146 0.94076 0.51203 0.0
C169 C 0.59577 0.95765 0.55349 0.0
O170 O 0.65074 0.92535 0.51489 0.0
Zn171 Zn 0.62132 0.91907 0.5339 0.0
O172 O 0.65472 0.95708 0.52286 0.0
Zn173 Zn 0.62885 0.94847 0.53637 0.0
O174 O 0.63216 0.93271 0.5872 0.0
O175 O 0.62415 0.90222 0.57423 0.0
O176 O 0.61056 0.96874 0.5491 0.0
O177 O 0.59769 0.93904 0.5491 0.0
O178 O 0.61015 0.90672 0.49317 0.0
O179 O 0.61642 0.93822 0.48501 0.0
C180 C 0.62956 0.91484 0.59724 0.0
C181 C 0.60987 0.92176 0.47297 0.0
C182 C 0.06474 0.16106 0.76537 0.0
C183 C 0.04609 0.09542 0.80389 0.0
O184 O 0.07977 0.1497 0.76623 0.0
Zn185 Zn 0.08528 0.1196 0.78256 0.0
O186 O 0.04843 0.15475 0.77711 0.0
Zn187 Zn 0.05629 0.1284 0.78816 0.0
O188 O 0.07343 0.13032 0.83743 0.0
O189 O 0.10315 0.12079 0.82207 0.0
O190 O 0.03565 0.11081 0.80175 0.0
O191 O 0.06463 0.09656 0.79777 0.0
O192 O 0.09598 0.10894 0.73952 0.0
O193 O 0.06457 0.11662 0.73527 0.0
C194 C 0.0913 0.12665 0.84612 0.0
C195 C 0.08033 0.10974 0.72096 0.0
C196 C 0.90712 0.54622 0.05366 0.0
C197 C 0.84147 0.56378 0.01336 0.0
O198 O 0.90557 0.56475 0.04788 0.0
Zn199 Zn 0.88234 0.58499 0.03212 0.0
O200 O 0.89203 0.53538 0.05071 0.0
Zn201 Zn 0.87407 0.55575 0.03704 0.0
O202 O 0.88616 0.56448 0.98469 0.0
O203 O 0.89322 0.59601 0.98947 0.0
O204 O 0.84792 0.5475 0.02497 0.0
O205 O 0.85256 0.57899 0.01488 0.0
O206 O 0.88043 0.60264 0.07184 0.0
O207 O 0.8715 0.57263 0.08655 0.0
C208 C 0.89289 0.5804 0.97075 0.0
C209 C 0.87471 0.59055 0.0956 0.0
C210 C 0.42458 0.39136 0.22306 0.0
C211 C 0.41735 0.37451 0.34939 0.0
O212 O 0.44082 0.38487 0.23613 0.0
Zn213 Zn 0.45074 0.37343 0.28819 0.0
O214 O 0.40938 0.39191 0.2429 0.0
Zn215 Zn 0.42137 0.38145 0.28513 0.0
O216 O 0.44189 0.40502 0.2987 0.0
O217 O 0.47132 0.3915 0.29951 0.0
O218 O 0.40454 0.37932 0.32623 0.0
O219 O 0.43515 0.37179 0.33915 0.0
O220 O 0.45876 0.34708 0.2766 0.0
O221 O 0.42716 0.35168 0.26801 0.0
C222 C 0.46055 0.4066 0.30295 0.0
C223 C 0.44232 0.34056 0.26592 0.0
C224 C 0.3094 0.04838 0.48718 0.0
C225 C 0.31974 0.06559 0.49606 0.0
C226 C 0.29247 0.04924 0.4659 0.0
C227 C 0.25273 0.08142 0.43458 0.0
H228 H 0.25012 0.0452 0.35383 0.0
C229 C 0.18894 0.08416 0.33118 0.0
C230 C 0.18155 0.06608 0.31893 0.0
C231 C 0.2064 0.08499 0.35112 0.0
C232 C 0.25043 0.05527 0.37648 0.0
H233 H 0.31989 0.09729 0.49064 0.0
H234 H 0.29005 0.09879 0.45392 0.0
H235 H 0.27853 0.04475 0.39375 0.0
H236 H 0.18695 0.0347 0.31762 0.0
H237 H 0.21695 0.03607 0.35289 0.0
H238 H 0.22441 0.0916 0.41802 0.0
C239 C 0.29518 0.08463 0.46333 0.0
C240 C 0.26677 0.05502 0.39932 0.0
C241 C 0.31228 0.08376 0.48432 0.0
C242 C 0.19227 0.04892 0.32637 0.0
C243 C 0.20959 0.04972 0.34655 0.0
C244 C 0.23624 0.08152 0.41195 0.0
C245 C 0.28533 0.06734 0.45328 0.0
C246 C 0.26805 0.068 0.42876 0.0
C247 C 0.21682 0.06774 0.35956 0.0
C248 C 0.2348 0.06834 0.3827 0.0
H249 H 0.31469 0.03413 0.49572 0.0
H250 H 0.28504 0.03569 0.45901 0.0
H251 H 0.25326 0.09151 0.45719 0.0
H252 H 0.18108 0.09767 0.32585 0.0
H253 H 0.21166 0.09918 0.36006 0.0
C254 C 0.91965 0.81155 0.73346 0.0
C255 C 0.93783 0.81945 0.74414 0.0
C256 C 0.91882 0.79438 0.71269 0.0
C257 C 0.94799 0.76639 0.64735 0.0
H258 H 0.91206 0.72369 0.66771 0.0
C259 C 0.9534 0.69198 0.57365 0.0
C260 C 0.93619 0.68119 0.56709 0.0
C261 C 0.95283 0.70929 0.5939 0.0
C262 C 0.92196 0.73561 0.66119 0.0
H263 H 0.96936 0.81512 0.74217 0.0
H264 H 0.96788 0.78529 0.70583 0.0
H265 H 0.91251 0.75247 0.707 0.0
H266 H 0.9047 0.68059 0.57562 0.0
H267 H 0.90359 0.71114 0.60997 0.0
H268 H 0.95725 0.74987 0.60128 0.0
C269 C 0.95428 0.79245 0.71338 0.0
C270 C 0.92227 0.75206 0.68389 0.0
C271 C 0.95511 0.80946 0.73447 0.0
C272 C 0.91826 0.6885 0.58025 0.0
C273 C 0.91766 0.70595 0.60028 0.0
C274 C 0.94754 0.75007 0.62444 0.0
C275 C 0.93616 0.78488 0.7018 0.0
C276 C 0.93544 0.76753 0.67743 0.0
C277 C 0.93499 0.71643 0.6079 0.0
C278 C 0.93467 0.73433 0.63122 0.0
H279 H 0.90606 0.81888 0.74041 0.0
H280 H 0.90464 0.78892 0.70408 0.0
H281 H 0.95806 0.77825 0.64128 0.0
H282 H 0.9675 0.68673 0.56418 0.0
H283 H 0.96654 0.71671 0.59957 0.0
C284 C 0.31106 0.45696 0.83042 0.0
C285 C 0.3213 0.43971 0.82148 0.0
C286 C 0.29415 0.45617 0.85175 0.0
C287 C 0.25447 0.42396 0.88375 0.0
H288 H 0.25216 0.46031 0.96432 0.0
C289 C 0.19158 0.42075 0.98874 0.0
C290 C 0.18393 0.4388 0.00063 0.0
C291 C 0.20897 0.42007 0.96857 0.0
C292 C 0.2524 0.4502 0.94174 0.0
H293 H 0.32124 0.40799 0.82672 0.0
H294 H 0.29146 0.40662 0.86355 0.0
H295 H 0.28031 0.46087 0.92376 0.0
H296 H 0.18885 0.47026 0.00126 0.0
H297 H 0.21877 0.46914 0.96567 0.0
H298 H 0.22637 0.41358 0.90109 0.0
C299 C 0.29664 0.42076 0.85415 0.0
C300 C 0.26858 0.45052 0.91851 0.0
C301 C 0.31372 0.42156 0.83309 0.0
C302 C 0.19437 0.45608 0.99277 0.0
C303 C 0.21163 0.45542 0.9724 0.0
C304 C 0.23816 0.42377 0.90678 0.0
C305 C 0.28693 0.4381 0.86436 0.0
C306 C 0.26975 0.43749 0.88913 0.0
C307 C 0.21906 0.43744 0.95959 0.0
C308 C 0.23685 0.43697 0.936 0.0
H309 H 0.31646 0.47119 0.82197 0.0
H310 H 0.2868 0.46975 0.85874 0.0
H311 H 0.25492 0.41382 0.86119 0.0
H312 H 0.18395 0.40715 0.9944 0.0
H313 H 0.21441 0.40592 0.9598 0.0
C314 C 0.58457 0.81454 0.07897 0.0
C315 C 0.56666 0.82183 0.06572 0.0
C316 C 0.58516 0.7971 0.09902 0.0
C317 C 0.55531 0.75299 0.1235 0.0
H318 H 0.59015 0.75106 0.20636 0.0
C319 C 0.5479 0.69384 0.23412 0.0
C320 C 0.56525 0.68406 0.24411 0.0
C321 C 0.54862 0.71079 0.21283 0.0
C322 C 0.58044 0.75134 0.18317 0.0
H323 H 0.53537 0.81622 0.06254 0.0
H324 H 0.5363 0.78623 0.09795 0.0
H325 H 0.59058 0.77968 0.16669 0.0
H326 H 0.59702 0.68494 0.24069 0.0
H327 H 0.59826 0.71476 0.204 0.0
H328 H 0.54487 0.72483 0.14063 0.0
C329 C 0.55001 0.79367 0.09237 0.0
C330 C 0.58075 0.7677 0.16025 0.0
C331 C 0.54945 0.81098 0.07209 0.0
C332 C 0.58338 0.6921 0.23351 0.0
C333 C 0.5841 0.7092 0.21253 0.0
C334 C 0.55487 0.73676 0.14662 0.0
C335 C 0.56782 0.78661 0.10657 0.0
C336 C 0.56812 0.7688 0.13015 0.0
C337 C 0.56672 0.7185 0.20135 0.0
C338 C 0.56736 0.73578 0.1768 0.0
H339 H 0.59812 0.82249 0.07448 0.0
H340 H 0.59921 0.79195 0.10885 0.0
H341 H 0.54565 0.75307 0.10026 0.0
H342 H 0.53368 0.68806 0.24175 0.0
H343 H 0.53499 0.71778 0.20506 0.0
C344 C 0.69431 0.54711 0.82559 0.0
C345 C 0.68425 0.56451 0.81694 0.0
C346 C 0.7114 0.54765 0.8465 0.0
C347 C 0.75165 0.57946 0.87776 0.0
H348 H 0.7541 0.54304 0.95822 0.0
C349 C 0.81451 0.58276 0.98281 0.0
C350 C 0.82211 0.56476 0.99503 0.0
C351 C 0.79721 0.58336 0.96238 0.0
C352 C 0.75382 0.55316 0.93565 0.0
H353 H 0.68479 0.59622 0.82227 0.0
H354 H 0.71483 0.59715 0.85834 0.0
H355 H 0.72581 0.54262 0.918 0.0
H356 H 0.81725 0.53329 0.99578 0.0
H357 H 0.78749 0.53428 0.95971 0.0
H358 H 0.77983 0.58975 0.89483 0.0
C359 C 0.7094 0.58309 0.84904 0.0
C360 C 0.73756 0.55292 0.91261 0.0
C361 C 0.69217 0.58254 0.82842 0.0
C362 C 0.81176 0.54744 0.98707 0.0
C363 C 0.79459 0.54802 0.96642 0.0
C364 C 0.76803 0.57958 0.90061 0.0
C365 C 0.71896 0.56561 0.85896 0.0
C366 C 0.73632 0.566 0.88332 0.0
C367 C 0.78717 0.56596 0.95342 0.0
C368 C 0.76939 0.56637 0.92982 0.0
H369 H 0.68865 0.53296 0.81724 0.0
H370 H 0.7186 0.53396 0.85327 0.0
H371 H 0.75116 0.58963 0.85526 0.0
H372 H 0.82208 0.59639 0.98854 0.0
H373 H 0.79178 0.59749 0.95346 0.0
C374 C 0.42283 0.31354 0.23671 0.0
C375 C 0.44107 0.32122 0.24759 0.0
C376 C 0.42187 0.29645 0.21573 0.0
C377 C 0.45096 0.26845 0.15026 0.0
H378 H 0.41437 0.22613 0.16933 0.0
C379 C 0.45569 0.19428 0.07556 0.0
C380 C 0.43833 0.1838 0.0685 0.0
C381 C 0.45527 0.21152 0.09603 0.0
C382 C 0.42445 0.23795 0.16318 0.0
H383 H 0.47256 0.31656 0.24581 0.0
H384 H 0.47084 0.28687 0.20914 0.0
H385 H 0.41504 0.2547 0.20915 0.0
H386 H 0.40679 0.1837 0.07632 0.0
H387 H 0.40597 0.21412 0.11108 0.0
H388 H 0.46021 0.25203 0.10404 0.0
C389 C 0.45731 0.29414 0.21667 0.0
C390 C 0.42489 0.25428 0.18618 0.0
C391 C 0.45827 0.31108 0.23795 0.0
C392 C 0.42045 0.19137 0.08134 0.0
C393 C 0.42 0.20874 0.1016 0.0
C394 C 0.4504 0.25225 0.12707 0.0
C395 C 0.43913 0.28682 0.20484 0.0
C396 C 0.4383 0.2696 0.18018 0.0
C397 C 0.43746 0.21888 0.10975 0.0
C398 C 0.43728 0.23666 0.13338 0.0
H399 H 0.4093 0.32099 0.24364 0.0
H400 H 0.40765 0.29119 0.20693 0.0
H401 H 0.46121 0.2802 0.14454 0.0
H402 H 0.46975 0.18883 0.06633 0.0
H403 H 0.46906 0.21869 0.1021 0.0
C404 C 0.81159 0.92186 0.32886 0.0
C405 C 0.81947 0.93985 0.31704 0.0
C406 C 0.79428 0.92137 0.3493 0.0
C407 C 0.76544 0.95197 0.41142 0.0
H408 H 0.72377 0.91437 0.39436 0.0
C409 C 0.69081 0.95727 0.48461 0.0
C410 C 0.68075 0.93989 0.49337 0.0
C411 C 0.70801 0.95671 0.46404 0.0
C412 C 0.73539 0.92477 0.39993 0.0
H413 H 0.81493 0.97137 0.31658 0.0
H414 H 0.78483 0.97048 0.35222 0.0
H415 H 0.75267 0.9144 0.35535 0.0
H416 H 0.68131 0.90819 0.48821 0.0
H417 H 0.71165 0.90715 0.4532 0.0
H418 H 0.74848 0.96219 0.45626 0.0
C419 C 0.79213 0.95677 0.34591 0.0
C420 C 0.75192 0.92483 0.3774 0.0
C421 C 0.80931 0.95726 0.32521 0.0
C422 C 0.68864 0.92187 0.48188 0.0
C423 C 0.70597 0.92129 0.46149 0.0
C424 C 0.74903 0.9518 0.43412 0.0
C425 C 0.78458 0.93886 0.35867 0.0
C426 C 0.76706 0.93855 0.38271 0.0
C427 C 0.71576 0.93874 0.45187 0.0
C428 C 0.73368 0.93831 0.42855 0.0
H429 H 0.81905 0.90818 0.3231 0.0
H430 H 0.78888 0.90735 0.35885 0.0
H431 H 0.77703 0.96248 0.41665 0.0
H432 H 0.68509 0.97144 0.49275 0.0
H433 H 0.71491 0.97048 0.45679 0.0
C434 C 0.04653 0.3097 0.58297 0.0
C435 C 0.06376 0.31966 0.57291 0.0
C436 C 0.04747 0.29261 0.60382 0.0
C437 C 0.07963 0.25203 0.63197 0.0
H438 H 0.04506 0.24951 0.71515 0.0
C439 C 0.0838 0.18793 0.73461 0.0
C440 C 0.06587 0.18059 0.7477 0.0
C441 C 0.08443 0.20546 0.71483 0.0
C442 C 0.05466 0.24981 0.69183 0.0
H443 H 0.09556 0.31896 0.5757 0.0
H444 H 0.09718 0.28889 0.61167 0.0
H445 H 0.04414 0.2781 0.67567 0.0
H446 H 0.03456 0.18619 0.75074 0.0
H447 H 0.03556 0.21633 0.71585 0.0
H448 H 0.08984 0.22354 0.64752 0.0
C449 C 0.08294 0.29442 0.60352 0.0
C450 C 0.05414 0.26624 0.66922 0.0
C451 C 0.082 0.31166 0.58297 0.0
C452 C 0.04867 0.19144 0.74131 0.0
C453 C 0.04926 0.20885 0.72135 0.0
C454 C 0.08002 0.23546 0.6544 0.0
C455 C 0.06567 0.28494 0.61479 0.0
C456 C 0.06652 0.26749 0.63892 0.0
C457 C 0.06711 0.21602 0.70747 0.0
C458 C 0.06744 0.23406 0.68453 0.0
H459 H 0.03223 0.31543 0.57573 0.0
H460 H 0.03392 0.28547 0.61166 0.0
H461 H 0.08926 0.25253 0.60869 0.0
H462 H 0.09734 0.17997 0.73911 0.0
H463 H 0.09849 0.21068 0.70516 0.0
C464 C 0.06003 0.04785 0.25372 0.0
C465 C 0.07731 0.03656 0.25452 0.0
C466 C 0.04173 0.03884 0.24948 0.0
C467 C 0.01713 0.99146 0.26445 0.0
H468 H 0.97521 0.01463 0.20786 0.0
C469 C 0.94168 0.95378 0.25154 0.0
C470 C 0.92511 0.96595 0.25487 0.0
C471 C 0.96039 0.96189 0.2473 0.0
C472 C 0.98672 0.00805 0.22399 0.0
H473 H 0.0889 0.00699 0.25021 0.0
H474 H 0.057 0.99133 0.24258 0.0
H475 H 0.00769 0.0298 0.20784 0.0
H476 H 0.91522 0.99622 0.25544 0.0
H477 H 0.94783 0.01034 0.24857 0.0
H478 H 0.99618 0.96995 0.28122 0.0
C479 C 0.05759 0.00712 0.24574 0.0
C480 C 0.00533 0.01674 0.22395 0.0
C481 C 0.07589 0.01613 0.2499 0.0
C482 C 0.92765 0.9864 0.2529 0.0
C483 C 0.94636 0.99452 0.24875 0.0
C484 C 0.99854 0.9828 0.26455 0.0
C485 C 0.04027 0.01834 0.24601 0.0
C486 C 0.02072 0.00862 0.2444 0.0
C487 C 0.96301 0.98237 0.24637 0.0
C488 C 0.98305 0.99106 0.24456 0.0
H489 H 0.06058 0.06362 0.2572 0.0
H490 H 0.02867 0.0479 0.25014 0.0
H491 H 0.02855 0.98501 0.28098 0.0
H492 H 0.94025 0.93796 0.25272 0.0
H493 H 0.97285 0.9521 0.24495 0.0
C494 C 0.98575 0.57528 0.49908 0.0
C495 C 0.96535 0.57666 0.50429 0.0
C496 C 0.99479 0.55697 0.49537 0.0
C497 C 0.98522 0.50439 0.47623 0.0
H498 H 0.03253 0.49621 0.5325 0.0
C499 C 0.01603 0.42726 0.50813 0.0
C500 C 0.0365 0.4248 0.50946 0.0
C501 C 0.00783 0.44589 0.50334 0.0
C502 C 0.01952 0.4983 0.51612 0.0
H503 H 0.93839 0.55985 0.50849 0.0
H504 H 0.95419 0.52793 0.50225 0.0
H505 H 0.01735 0.52852 0.53118 0.0
H506 H 0.06443 0.43996 0.50556 0.0
H507 H 0.05012 0.47241 0.49673 0.0
H508 H 0.98729 0.47405 0.46154 0.0
C509 C 0.96318 0.54102 0.50075 0.0
C510 C 0.0108 0.51685 0.51539 0.0
C511 C 0.95413 0.55933 0.50452 0.0
C512 C 0.04859 0.44134 0.5049 0.0
C513 C 0.04039 0.45997 0.50003 0.0
C514 C 0.99397 0.48582 0.47691 0.0
C515 C 0.98366 0.5396 0.49672 0.0
C516 C 0.99345 0.52009 0.4957 0.0
C517 C 0.0199 0.46252 0.49969 0.0
C518 C 0.01114 0.4825 0.49714 0.0
H519 H 0.99483 0.58832 0.49858 0.0
H520 H 0.01055 0.55641 0.49175 0.0
H521 H 0.972 0.50647 0.46041 0.0
H522 H 0.00627 0.41485 0.5116 0.0
H523 H 0.992 0.44732 0.50364 0.0
C524 C 0.44314 0.45666 0.75776 0.0
C525 C 0.42605 0.46821 0.75917 0.0
C526 C 0.46157 0.46544 0.75357 0.0
C527 C 0.48686 0.51243 0.76926 0.0
H528 H 0.52805 0.48944 0.7106 0.0
C529 C 0.56198 0.55023 0.75338 0.0
C530 C 0.57861 0.53811 0.75607 0.0
C531 C 0.54326 0.54206 0.74982 0.0
C532 C 0.51674 0.49596 0.72731 0.0
H533 H 0.4149 0.498 0.75605 0.0
H534 H 0.44698 0.51324 0.74847 0.0
H535 H 0.49551 0.47439 0.71152 0.0
H536 H 0.58863 0.50788 0.75611 0.0
H537 H 0.55598 0.49365 0.75037 0.0
H538 H 0.50807 0.53378 0.78558 0.0
C539 C 0.44617 0.49743 0.75115 0.0
C540 C 0.4981 0.48734 0.72783 0.0
C541 C 0.42777 0.48866 0.7553 0.0
C542 C 0.57614 0.51765 0.75407 0.0
C543 C 0.55741 0.50948 0.75058 0.0
C544 C 0.50547 0.52102 0.7688 0.0
C545 C 0.46332 0.48596 0.75075 0.0
C546 C 0.48296 0.49543 0.74895 0.0
C547 C 0.54071 0.52157 0.74894 0.0
C548 C 0.52068 0.51284 0.74798 0.0
H549 H 0.44236 0.44087 0.76067 0.0
H550 H 0.4745 0.45619 0.7537 0.0
H551 H 0.47565 0.51884 0.78634 0.0
H552 H 0.56336 0.56605 0.75461 0.0
H553 H 0.53074 0.55181 0.74801 0.0
C554 C 0.51687 0.92824 0.00147 0.0
C555 C 0.53729 0.92685 0.00631 0.0
C556 C 0.50783 0.94653 -0.0024 0.0
C557 C 0.51732 0.99884 0.97656 0.0
H558 H 0.47026 0.00762 0.03326 0.0
C559 C 0.48613 0.07627 0.00492 0.0
C560 C 0.46564 0.07855 0.00669 0.0
C561 C 0.49446 0.05764 0.00089 0.0
C562 C 0.4832 0.00536 0.01676 0.0
H563 H 0.56429 0.94364 0.00982 0.0
H564 H 0.54848 0.97556 0.00326 0.0
H565 H 0.48554 0.97535 0.03316 0.0
H566 H 0.43783 0.0631 0.00422 0.0
H567 H 0.45236 0.03067 0.99662 0.0
H568 H 0.51506 0.02895 0.96044 0.0
C569 C 0.53948 0.96247 0.00219 0.0
C570 C 0.49198 0.98684 0.01674 0.0
C571 C 0.54852 0.94417 0.00615 0.0
C572 C 0.45367 0.06185 0.00321 0.0
C573 C 0.46201 0.04324 -0.00092 0.0
C574 C 0.5085 0.01738 0.9765 0.0
C575 C 0.51899 0.96388 -0.0016 0.0
C576 C 0.50922 0.98338 0.99687 0.0
C577 C 0.48251 0.04086 -0.00157 0.0
C578 C 0.49141 0.02092 0.99683 0.0
H579 H 0.50777 0.9152 0.00129 0.0
H580 H 0.49205 0.9471 0.9942 0.0
H581 H 0.53046 0.99658 0.96061 0.0
H582 H 0.49579 0.08881 0.00757 0.0
H583 H 0.5103 0.05635 0.00091 0.0
C584 C 0.07706 0.48735 0.06552 0.0
C585 C 0.07876 0.46692 0.06112 0.0
C586 C 0.05866 0.49612 0.06954 0.0
C587 C 0.00653 0.48603 0.09135 0.0
H588 H 0.9972 0.53286 0.0343 0.0
C589 C 0.92886 0.51696 0.06337 0.0
C590 C 0.92656 0.53744 0.06143 0.0
C591 C 0.94749 0.50864 0.0675 0.0
C592 C 0.99961 0.51999 0.0509 0.0
H593 H 0.06241 0.43963 0.0586 0.0
H594 H 0.03026 0.45497 0.06534 0.0
H595 H 0.02955 0.5178 0.03406 0.0
H596 H 0.942 0.56527 0.06389 0.0
H597 H 0.97441 0.55077 0.07164 0.0
H598 H 0.97646 0.48815 0.10785 0.0
C599 C 0.0432 0.46419 0.06597 0.0
C600 C 0.01818 0.51134 0.05073 0.0
C601 C 0.06164 0.4554 0.06192 0.0
C602 C 0.94324 0.54943 0.06501 0.0
C603 C 0.96185 0.54111 0.06923 0.0
C604 C 0.98792 0.49473 0.09158 0.0
C605 C 0.04149 0.48468 0.06927 0.0
C606 C 0.02186 0.4942 0.07078 0.0
C607 C 0.96425 0.52061 0.06987 0.0
C608 C 0.98421 0.51177 0.07118 0.0
H609 H 0.08995 0.49667 0.06527 0.0
H610 H 0.05787 0.51191 0.07263 0.0
H611 H 0.00895 0.47297 0.10743 0.0
H612 H 0.91632 0.50729 0.06067 0.0
H613 H 0.9488 0.4928 0.06754 0.0
C614 C 0.49004 0.42783 0.31375 0.0
C615 C 0.46959 0.42604 0.30988 0.0
C616 C 0.49875 0.44628 0.31756 0.0
C617 C 0.48848 0.49841 0.33945 0.0
H618 H 0.53495 0.50802 0.28157 0.0
C619 C 0.51841 0.57633 0.31035 0.0
C620 C 0.53886 0.57889 0.30839 0.0
C621 C 0.51033 0.5576 0.31455 0.0
C622 C 0.52218 0.50553 0.29838 0.0
H623 H 0.44221 0.44227 0.30808 0.0
H624 H 0.45745 0.47448 0.31443 0.0
H625 H 0.52017 0.47553 0.28185 0.0
H626 H 0.56687 0.56381 0.31068 0.0
H627 H 0.5528 0.5312 0.31847 0.0
H628 H 0.49039 0.52855 0.35561 0.0
C629 C 0.46673 0.46158 0.31483 0.0
C630 C 0.51368 0.48688 0.29853 0.0
C631 C 0.458 0.44311 0.31101 0.0
C632 C 0.55106 0.56236 0.31185 0.0
C633 C 0.54298 0.54364 0.3161 0.0
C634 C 0.497 0.5171 0.33934 0.0
C635 C 0.48724 0.46341 0.3176 0.0
C636 C 0.49666 0.4831 0.31887 0.0
C637 C 0.52251 0.54098 0.31694 0.0
C638 C 0.51389 0.52092 0.31861 0.0
H639 H 0.4994 0.41498 0.31323 0.0
H640 H 0.51456 0.44714 0.32023 0.0
H641 H 0.47552 0.49592 0.35578 0.0
H642 H 0.50857 0.58874 0.30775 0.0
H643 H 0.49451 0.55609 0.31471 0.0
C644 C 0.42532 0.01569 0.56552 0.0
C645 C 0.42378 0.03614 0.56124 0.0
C646 C 0.44366 0.0068 0.56986 0.0
C647 C 0.49584 0.01678 0.59226 0.0
H648 H 0.50531 0.96991 0.53541 0.0
C649 C 0.57365 0.98665 0.56304 0.0
C650 C 0.57622 0.96619 0.56138 0.0
C651 C 0.55493 0.99473 0.56743 0.0
C652 C 0.50286 0.98279 0.55195 0.0
H653 H 0.44032 0.06333 0.55926 0.0
H654 H 0.47231 0.0478 0.56649 0.0
H655 H 0.47288 0.98482 0.53528 0.0
H656 H 0.56116 0.93817 0.56448 0.0
H657 H 0.52858 0.95227 0.57258 0.0
H658 H 0.52597 0.01487 0.60846 0.0
C659 C 0.45932 0.03865 0.56685 0.0
C660 C 0.48423 0.99136 0.55187 0.0
C661 C 0.44096 0.04754 0.5625 0.0
C662 C 0.55971 0.954 0.56541 0.0
C663 C 0.541 0.96208 0.56984 0.0
C664 C 0.5145 0.00819 0.59236 0.0
C665 C 0.46091 0.01814 0.57003 0.0
C666 C 0.48052 0.00854 0.57178 0.0
C667 C 0.53834 0.98255 0.5703 0.0
C668 C 0.51827 0.99117 0.57197 0.0
H669 H 0.41238 0.00646 0.5649 0.0
H670 H 0.44434 0.991 0.57283 0.0
H671 H 0.49341 0.02986 0.60828 0.0
H672 H 0.58603 0.99648 0.56001 0.0
H673 H 0.55341 0.01056 0.5673 0.0
C674 C 0.04804 0.05886 0.81143 0.0
C675 C 0.03678 0.07616 0.81117 0.0
C676 C 0.03901 0.04054 0.81531 0.0
C677 C 0.99152 0.01623 0.80011 0.0
H678 H 0.01461 0.97376 0.85542 0.0
C679 C 0.95331 0.94105 0.81186 0.0
C680 C 0.96531 0.92441 0.80792 0.0
C681 C 0.96161 0.95966 0.81643 0.0
C682 C 0.00805 0.98543 0.83964 0.0
H683 H 0.00724 0.08777 0.81613 0.0
H684 H 0.99156 0.05585 0.82316 0.0
H685 H 0.02998 0.00615 0.85608 0.0
H686 H 0.99548 0.91423 0.80662 0.0
H687 H 0.00993 0.94667 0.81406 0.0
H688 H 0.96984 0.99553 0.78305 0.0
C689 C 0.00734 0.05644 0.81982 0.0
C690 C 0.01685 0.00399 0.84005 0.0
C691 C 0.01636 0.07474 0.816 0.0
C692 C 0.98579 0.92673 0.80962 0.0
C693 C 0.9941 0.94534 0.8141 0.0
C694 C 0.98276 0.9977 0.79964 0.0
C695 C 0.01852 0.0391 0.81896 0.0
C696 C 0.00875 0.01958 0.82009 0.0
C697 C 0.98212 0.96207 0.81707 0.0
C698 C 0.99098 0.98202 0.81919 0.0
H699 H 0.0638 0.05941 0.80775 0.0
H700 H 0.04804 0.02747 0.8142 0.0
H701 H 0.98509 0.02781 0.78392 0.0
H702 H 0.93747 0.93978 0.81091 0.0
H703 H 0.95195 0.97218 0.81924 0.0
C704 C 0.06294 0.10175 0.66306 0.0
C705 C 0.08044 0.10296 0.68304 0.0
C706 C 0.0633 0.09584 0.62687 0.0
C707 C 0.07048 0.0969 0.54592 0.0
H708 H 0.10916 0.05956 0.51146 0.0
C709 C 0.0985 0.09752 0.4002 0.0
C710 C 0.10384 0.07982 0.38342 0.0
C711 C 0.09274 0.09779 0.43634 0.0
C712 C 0.09801 0.06976 0.52057 0.0
H713 H 0.11199 0.09869 0.68089 0.0
H714 H 0.11267 0.08895 0.61783 0.0
H715 H 0.10414 0.06368 0.57613 0.0
H716 H 0.10678 0.04839 0.39109 0.0
H717 H 0.09639 0.04881 0.4543 0.0
H718 H 0.06425 0.10288 0.49036 0.0
C719 C 0.0986 0.09209 0.63016 0.0
C720 C 0.09533 0.07232 0.55768 0.0
C721 C 0.09823 0.09786 0.6663 0.0
C722 C 0.10289 0.06229 0.40336 0.0
C723 C 0.09699 0.06254 0.43958 0.0
C724 C 0.07304 0.09422 0.50881 0.0
C725 C 0.08117 0.09112 0.60992 0.0
C726 C 0.08197 0.08635 0.57078 0.0
C727 C 0.09203 0.08034 0.45656 0.0
C728 C 0.08727 0.08107 0.49571 0.0
H729 H 0.04898 0.10545 0.6753 0.0
H730 H 0.04959 0.09503 0.61214 0.0
H731 H 0.06011 0.10789 0.55501 0.0
H732 H 0.09913 0.11131 0.38564 0.0
H733 H 0.08942 0.11181 0.4487 0.0
C734 C 0.94026 0.60366 0.65314 0.0
C735 C 0.9227 0.60405 0.63321 0.0
C736 C 0.94017 0.59798 0.68948 0.0
C737 C 0.9329 0.59914 0.77056 0.0
H738 H 0.89596 0.56013 0.80525 0.0
C739 C 0.90464 0.59864 0.91634 0.0
C740 C 0.89994 0.58072 0.933 0.0
C741 C 0.91054 0.59917 0.88027 0.0
C742 C 0.90663 0.57082 0.7961 0.0
H743 H 0.89134 0.59857 0.63564 0.0
H744 H 0.89112 0.5892 0.69887 0.0
H745 H 0.90085 0.56429 0.74059 0.0
H746 H 0.89843 0.54919 0.92527 0.0
H747 H 0.90909 0.55008 0.86228 0.0
H748 H 0.93877 0.60558 0.82609 0.0
C749 C 0.90505 0.59283 0.68642 0.0
C750 C 0.90923 0.57339 0.75897 0.0
C751 C 0.90515 0.59838 0.65017 0.0
C752 C 0.90178 0.56326 0.91307 0.0
C753 C 0.90783 0.56377 0.87697 0.0
C754 C 0.93041 0.59646 0.8077 0.0
C755 C 0.92252 0.59265 0.70659 0.0
C756 C 0.92194 0.58799 0.74578 0.0
C757 C 0.91206 0.58177 0.86004 0.0
C758 C 0.91681 0.58268 0.82089 0.0
H759 H 0.95405 0.60782 0.64075 0.0
H760 H 0.95392 0.59782 0.70419 0.0
H761 H 0.94275 0.61056 0.76135 0.0
H762 H 0.90334 0.61237 0.93091 0.0
H763 H 0.91331 0.61332 0.86796 0.0
C764 C 0.40522 0.40247 0.16947 0.0
C765 C 0.42344 0.39776 0.18496 0.0
C766 C 0.40393 0.40774 0.13311 0.0
C767 C 0.40565 0.42699 0.05972 0.0
H768 H 0.43598 0.39656 0.99099 0.0
C769 C 0.39884 0.43944 0.90592 0.0
C770 C 0.39779 0.42237 0.88467 0.0
C771 C 0.40428 0.43831 0.9423 0.0
C772 C 0.42737 0.40515 0.00983 0.0
H773 H 0.45471 0.39544 0.1747 0.0
H774 H 0.45249 0.40496 0.11124 0.0
H775 H 0.4407 0.3913 0.05548 0.0
H776 H 0.40183 0.39078 0.88479 0.0
H777 H 0.41083 0.38876 0.94821 0.0
H778 H 0.39157 0.44009 0.01408 0.0
C779 C 0.43915 0.40423 0.1271 0.0
C780 C 0.43026 0.40233 0.04683 0.0
C781 C 0.44042 0.39885 0.16348 0.0
C782 C 0.40256 0.40422 0.90037 0.0
C783 C 0.40788 0.40308 0.93672 0.0
C784 C 0.40267 0.42973 0.02272 0.0
C785 C 0.42085 0.40854 0.11141 0.0
C786 C 0.41917 0.41295 0.07221 0.0
C787 C 0.40869 0.42009 0.95819 0.0
C788 C 0.41323 0.41857 -0.00265 0.0
H789 H 0.39184 0.40173 0.18524 0.0
H790 H 0.38956 0.41063 0.12179 0.0
H791 H 0.3971 0.43564 0.07857 0.0
H792 H 0.39538 0.45367 0.89453 0.0
H793 H 0.40501 0.45172 0.95797 0.0
C794 C 0.59631 0.90164 0.42254 0.0
C795 C 0.60253 0.91999 0.43557 0.0
C796 C 0.59076 0.8994 0.38656 0.0
C797 C 0.57546 0.92484 0.30396 0.0
H798 H 0.60342 0.88263 0.25586 0.0
C799 C 0.56333 0.89827 0.15493 0.0
C800 C 0.58079 0.89694 0.1348 0.0
C801 C 0.56399 0.90222 0.19204 0.0
C802 C 0.59547 0.89441 0.26901 0.0
H803 H 0.60684 0.95062 0.42155 0.0
H804 H 0.59714 0.9466 0.35824 0.0
H805 H 0.60744 0.88735 0.32073 0.0
H806 H 0.61256 0.89916 0.13754 0.0
H807 H 0.61364 0.90567 0.20213 0.0
H808 H 0.56364 0.93189 0.25168 0.0
C809 C 0.59656 0.93402 0.37612 0.0
C810 C 0.59766 0.89703 0.30608 0.0
C811 C 0.60223 0.93627 0.41222 0.0
C812 C 0.59884 0.90004 0.15225 0.0
C813 C 0.5995 0.90371 0.18922 0.0
C814 C 0.57305 0.92203 0.26674 0.0
C815 C 0.59123 0.91546 0.36286 0.0
C816 C 0.58784 0.91236 0.32385 0.0
C817 C 0.58213 0.90459 0.20948 0.0
C818 C 0.5833 0.90696 0.24901 0.0
H819 H 0.59617 0.88883 0.43989 0.0
H820 H 0.58649 0.88498 0.37703 0.0
H821 H 0.5677 0.93671 0.31719 0.0
H822 H 0.5492 0.89604 0.14213 0.0
H823 H 0.55043 0.90281 0.2073 0.0
C824 C 0.0653 0.39806 0.65649 0.0
C825 C 0.08228 0.39648 0.63512 0.0
C826 C 0.06665 0.40361 0.69277 0.0
C827 C 0.07534 0.4018 0.77305 0.0
H828 H 0.11482 0.43876 0.80573 0.0
C829 C 0.10271 0.4034 0.91965 0.0
C830 C 0.10773 0.42149 0.93535 0.0
C831 C 0.09752 0.40231 0.88324 0.0
C832 C 0.1035 0.42863 0.7971 0.0
H833 H 0.11396 0.39976 0.63489 0.0
H834 H 0.11636 0.40894 0.69821 0.0
H835 H 0.10935 0.43423 0.74123 0.0
H836 H 0.11078 0.45273 0.92536 0.0
H837 H 0.10142 0.45085 0.86176 0.0
H838 H 0.06936 0.39634 0.8289 0.0
C839 C 0.10194 0.40631 0.68687 0.0
C840 C 0.10055 0.42584 0.76009 0.0
C841 C 0.10058 0.40089 0.65059 0.0
C842 C 0.10711 0.43854 0.91399 0.0
C843 C 0.10182 0.43746 0.87753 0.0
C844 C 0.07821 0.40467 0.81004 0.0
C845 C 0.08502 0.40759 0.70849 0.0
C846 C 0.08673 0.41208 0.74765 0.0
C847 C 0.09712 0.4193 0.86168 0.0
C848 C 0.09263 0.4178 0.82249 0.0
H849 H 0.05096 0.39491 0.64527 0.0
H850 H 0.0533 0.40472 0.70854 0.0
H851 H 0.06467 0.39099 0.76445 0.0
H852 H 0.1031 0.38997 0.93531 0.0
H853 H 0.09434 0.38803 0.87178 0.0
C854 C 0.56616 0.60578 0.161 0.0
C855 C 0.58329 0.60725 0.18195 0.0
C856 C 0.56721 0.60009 0.12474 0.0
C857 C 0.57554 0.60163 0.04425 0.0
H858 H 0.61457 0.56427 0.01125 0.0
C859 C 0.60319 0.60027 0.89791 0.0
C860 C 0.6081 0.58222 0.88197 0.0
C861 C 0.59785 0.60123 0.93426 0.0
C862 C 0.60337 0.57451 0.01997 0.0
H863 H 0.61494 0.60364 0.18148 0.0
H864 H 0.61682 0.59422 0.11825 0.0
H865 H 0.60924 0.56881 0.07579 0.0
H866 H 0.61078 0.5509 0.89144 0.0
H867 H 0.60115 0.55255 0.95495 0.0
H868 H 0.56956 0.60722 0.98844 0.0
C869 C 0.60251 0.59704 0.12988 0.0
C870 C 0.60049 0.5773 0.05699 0.0
C871 C 0.60145 0.60261 0.16611 0.0
C872 C 0.6072 0.56506 0.90301 0.0
C873 C 0.60175 0.56601 0.93941 0.0
C874 C 0.57833 0.59876 0.00724 0.0
C875 C 0.58543 0.59586 0.10868 0.0
C876 C 0.58688 0.59123 0.06955 0.0
C877 C 0.59717 0.58414 0.95551 0.0
C878 C 0.59261 0.58551 0.99467 0.0
H879 H 0.55192 0.60912 0.17251 0.0
H880 H 0.55375 0.59908 0.10927 0.0
H881 H 0.56502 0.61257 0.05294 0.0
H882 H 0.60379 0.61378 0.8825 0.0
H883 H 0.59477 0.61548 0.94592 0.0
C884 C 0.3889 0.06917 0.40857 0.0
C885 C 0.39686 0.08188 0.43456 0.0
C886 C 0.39405 0.0711 0.37217 0.0
C887 C 0.41497 0.1077 0.30858 0.0
H888 H 0.41579 0.06338 0.2428 0.0
C889 C 0.43664 0.11504 0.15848 0.0
C890 C 0.42232 0.10797 0.13445 0.0
C891 C 0.43559 0.11051 0.19526 0.0
C892 C 0.41563 0.07585 0.26098 0.0
H893 H 0.41723 0.10584 0.4434 0.0
H894 H 0.42691 0.10866 0.38032 0.0
H895 H 0.41076 0.05778 0.3074 0.0
H896 H 0.39616 0.09 0.1297 0.0
H897 H 0.39458 0.0818 0.19396 0.0
H898 H 0.42012 0.12568 0.26207 0.0
C899 C 0.41609 0.0977 0.38757 0.0
C900 C 0.41262 0.07269 0.29791 0.0
C901 C 0.41065 0.09602 0.42379 0.0
C902 C 0.40734 0.09574 0.14765 0.0
C903 C 0.40649 0.09094 0.18431 0.0
C904 C 0.4183 0.11079 0.27182 0.0
C905 C 0.40755 0.08556 0.36113 0.0
C906 C 0.412 0.08862 0.32214 0.0
C907 C 0.42043 0.09854 0.20848 0.0
C908 C 0.41841 0.09493 0.24767 0.0
H909 H 0.37815 0.05819 0.41617 0.0
H910 H 0.38693 0.06166 0.35261 0.0
H911 H 0.41416 0.12039 0.32614 0.0
H912 H 0.44834 0.12452 0.14906 0.0
H913 H 0.44654 0.11647 0.21345 0.0
C914 C 0.90258 0.90127 0.66534 0.0
C915 C 0.92066 0.89637 0.68119 0.0
C916 C 0.9016 0.90682 0.6291 0.0
C917 C 0.90389 0.92655 0.55624 0.0
H918 H 0.93435 0.89621 0.48756 0.0
C919 C 0.89707 0.93891 0.40235 0.0
C920 C 0.89591 0.92177 0.3813 0.0
C921 C 0.90261 0.93788 0.4387 0.0
C922 C 0.92571 0.90479 0.50639 0.0
H923 H 0.952 0.89401 0.67172 0.0
H924 H 0.95031 0.90402 0.60844 0.0
H925 H 0.93885 0.89077 0.55205 0.0
H926 H 0.89989 0.89017 0.38173 0.0
H927 H 0.90906 0.88833 0.44506 0.0
H928 H 0.88997 0.93979 0.51056 0.0
C929 C 0.93684 0.90322 0.62393 0.0
C930 C 0.92848 0.90186 0.54339 0.0
C931 C 0.93782 0.89756 0.66021 0.0
C932 C 0.90068 0.90366 0.39715 0.0
C933 C 0.90611 0.90262 0.43345 0.0
C934 C 0.90103 0.92939 0.51923 0.0
C935 C 0.91869 0.90774 0.60787 0.0
C936 C 0.9173 0.91241 0.56874 0.0
C937 C 0.90702 0.91969 0.45473 0.0
C938 C 0.91161 0.91824 0.49388 0.0
H939 H 0.88907 0.90046 0.68072 0.0
H940 H 0.88733 0.90985 0.61748 0.0
H941 H 0.89529 0.93516 0.57507 0.0
H942 H 0.89361 0.95311 0.39084 0.0
H943 H 0.90339 0.95132 0.45424 0.0
C944 C 0.08657 0.13727 0.91051 0.0
C945 C 0.09767 0.12733 0.88431 0.0
C946 C 0.0918 0.13625 0.94706 0.0
C947 C 0.1319 0.11936 0.00955 0.0
H948 H 0.089 0.11622 0.07816 0.0
C949 C 0.13601 0.08641 0.15507 0.0
C950 C 0.1279 0.09818 0.18248 0.0
C951 C 0.13437 0.09199 0.11875 0.0
C952 C 0.10112 0.11722 0.05929 0.0
H953 H 0.12315 0.10881 0.87574 0.0
H954 H 0.13172 0.10629 0.93911 0.0
H955 H 0.08197 0.12252 0.01476 0.0
H956 H 0.11224 0.12534 0.19329 0.0
H957 H 0.10904 0.13471 0.13001 0.0
H958 H 0.15087 0.11295 0.05441 0.0
C959 C 0.11936 0.11543 0.93175 0.0
C960 C 0.09714 0.12101 0.02293 0.0
C961 C 0.11436 0.11678 0.89525 0.0
C962 C 0.11868 0.11592 0.1729 0.0
C963 C 0.11675 0.12129 0.13669 0.0
C964 C 0.13582 0.11517 0.04587 0.0
C965 C 0.10802 0.12493 0.95828 0.0
C966 C 0.11246 0.12207 -0.00255 0.0
C967 C 0.1243 0.10924 0.1093 0.0
C968 C 0.12045 0.11405 0.07098 0.0
H969 H 0.07372 0.14564 0.90284 0.0
H970 H 0.08296 0.14417 0.96651 0.0
H971 H 0.14415 0.12044 0.99101 0.0
H972 H 0.14321 0.07268 0.1616 0.0
H973 H 0.14025 0.08244 0.09797 0.0
C974 C 0.91466 0.63508 0.4044 0.0
C975 C 0.90328 0.62663 0.43203 0.0
C976 C 0.9089 0.63331 0.36819 0.0
C977 C 0.88427 0.59956 0.30885 0.0
H978 H 0.87923 0.64281 0.24144 0.0
C979 C 0.86428 0.58512 0.15994 0.0
C980 C 0.87377 0.59672 0.1339 0.0
C981 C 0.86517 0.59018 0.19659 0.0
C982 C 0.88082 0.63051 0.25973 0.0
H983 H 0.87668 0.61016 0.44338 0.0
H984 H 0.86701 0.60671 0.38026 0.0
H985 H 0.88687 0.64945 0.3048 0.0
H986 H 0.89135 0.6229 0.12575 0.0
H987 H 0.89366 0.63119 0.18924 0.0
H988 H 0.87936 0.58047 0.26407 0.0
C989 C 0.88025 0.61481 0.38668 0.0
C990 C 0.88509 0.63438 0.29603 0.0
C991 C 0.88578 0.61688 0.42279 0.0
C992 C 0.88373 0.61372 0.14511 0.0
C993 C 0.88495 0.61856 0.1817 0.0
C994 C 0.88041 0.59565 0.27249 0.0
C995 C 0.89189 0.62276 0.35907 0.0
C996 C 0.88689 0.61892 0.32082 0.0
C997 C 0.87592 0.60673 0.20807 0.0
C998 C 0.87873 0.61105 0.2473 0.0
H999 H 0.9282 0.64268 0.41067 0.0
H1000 H 0.91814 0.63949 0.34724 0.0
H1001 H 0.88578 0.58738 0.32749 0.0
H1002 H 0.85637 0.57201 0.15207 0.0
H1003 H 0.85761 0.58094 0.21592 0.0
C1004 C 0.37579 0.42499 0.65465 0.0
C1005 C 0.37479 0.41037 0.68137 0.0
C1006 C 0.3787 0.41992 0.6184 0.0
C1007 C 0.37592 0.37944 0.55247 0.0
H1008 H 0.41798 0.40753 0.50429 0.0
C1009 C 0.42673 0.37515 0.41488 0.0
C1010 C 0.41208 0.37415 0.3882 0.0
C1011 C 0.42167 0.37779 0.45121 0.0
C1012 C 0.4063 0.39946 0.51749 0.0
H1013 H 0.37491 0.37892 0.69078 0.0
H1014 H 0.37975 0.37012 0.62746 0.0
H1015 H 0.40877 0.41651 0.56586 0.0
H1016 H 0.38064 0.37398 0.37893 0.0
H1017 H 0.37185 0.37835 0.44236 0.0
H1018 H 0.37347 0.36241 0.5039 0.0
C1019 C 0.37838 0.38548 0.63457 0.0
C1020 C 0.40086 0.40477 0.55254 0.0
C1021 C 0.37568 0.39055 0.67084 0.0
C1022 C 0.39227 0.37476 0.39883 0.0
C1023 C 0.38722 0.37719 0.43518 0.0
C1024 C 0.38123 0.37426 0.51719 0.0
C1025 C 0.38044 0.40013 0.60813 0.0
C1026 C 0.38562 0.39482 0.57042 0.0
C1027 C 0.40187 0.37925 0.4616 0.0
C1028 C 0.39653 0.38418 0.4994 0.0
H1029 H 0.37517 0.44039 0.66186 0.0
H1030 H 0.37999 0.43151 0.59848 0.0
H1031 H 0.3641 0.37155 0.56561 0.0
H1032 H 0.44212 0.37474 0.40758 0.0
H1033 H 0.43326 0.37909 0.47111 0.0
C1034 C 0.63891 0.92177 0.66174 0.0
C1035 C 0.6307 0.90919 0.63578 0.0
C1036 C 0.63805 0.91696 0.69853 0.0
C1037 C 0.62508 0.87586 0.76205 0.0
H1038 H 0.61514 0.91874 0.82847 0.0
C1039 C 0.58876 0.8697 0.90461 0.0
C1040 C 0.59966 0.87829 0.93271 0.0
C1041 C 0.59476 0.87193 0.86862 0.0
C1042 C 0.61802 0.90666 0.81016 0.0
H1043 H 0.61548 0.88151 0.62796 0.0
H1044 H 0.61319 0.87362 0.69146 0.0
H1045 H 0.62216 0.92587 0.76526 0.0
H1046 H 0.62555 0.89566 0.94516 0.0
H1047 H 0.63555 0.89994 0.8824 0.0
H1048 H 0.61977 0.85671 0.80712 0.0
C1049 C 0.62091 0.88688 0.68385 0.0
C1050 C 0.62224 0.91071 0.77399 0.0
C1051 C 0.6221 0.8915 0.64722 0.0
C1052 C 0.61685 0.88878 0.92418 0.0
C1053 C 0.62257 0.89133 0.88831 0.0
C1054 C 0.62042 0.87182 0.7981 0.0
C1055 C 0.62862 0.89964 0.71012 0.0
C1056 C 0.62569 0.89536 0.7493 0.0
C1057 C 0.61147 0.88311 0.86026 0.0
C1058 C 0.61679 0.8872 0.82233 0.0
H1059 H 0.64574 0.93545 0.65371 0.0
H1060 H 0.64454 0.92697 0.71785 0.0
H1061 H 0.62809 0.86364 0.74418 0.0
H1062 H 0.57547 0.86155 0.91037 0.0
H1063 H 0.58596 0.86553 0.84725 0.0
C1064 C 0.07806 0.37314 0.40559 0.0
C1065 C 0.09281 0.37202 0.43206 0.0
C1066 C 0.08298 0.37577 0.3692 0.0
C1067 C 0.09821 0.39744 0.30282 0.0
H1068 H 0.14017 0.36949 0.25406 0.0
C1069 C 0.12867 0.42335 0.16584 0.0
C1070 C 0.12968 0.40883 0.13892 0.0
C1071 C 0.1257 0.41815 0.202 0.0
C1072 C 0.12841 0.37739 0.26736 0.0
H1073 H 0.1243 0.37159 0.44086 0.0
H1074 H 0.13284 0.37593 0.37732 0.0
H1075 H 0.13091 0.3602 0.31575 0.0
H1076 H 0.12946 0.37743 0.1291 0.0
H1077 H 0.12451 0.36839 0.19228 0.0
H1078 H 0.09569 0.41465 0.25464 0.0
C1079 C 0.11749 0.37488 0.38472 0.0
C1080 C 0.12317 0.37213 0.30264 0.0
C1081 C 0.11258 0.37247 0.42113 0.0
C1082 C 0.12869 0.38897 0.14919 0.0
C1083 C 0.12593 0.38378 0.18538 0.0
C1084 C 0.10358 0.40283 0.26777 0.0
C1085 C 0.10275 0.37709 0.35852 0.0
C1086 C 0.10797 0.38207 0.32068 0.0
C1087 C 0.12389 0.39832 0.21201 0.0
C1088 C 0.11874 0.39287 0.24967 0.0
H1089 H 0.0627 0.37286 0.41312 0.0
H1090 H 0.07132 0.37718 0.34947 0.0
H1091 H 0.08661 0.40553 0.31621 0.0
H1092 H 0.12936 0.43878 0.15883 0.0
H1093 H 0.12444 0.42966 0.22207 0.0
C1094 C 0.62911 0.61597 0.66952 0.0
C1095 C 0.6309 0.59607 0.67902 0.0
C1096 C 0.62686 0.62152 0.63342 0.0
C1097 C 0.6317 0.60392 0.53893 0.0
H1098 H 0.592 0.64339 0.51981 0.0
C1099 C 0.58178 0.63206 0.41164 0.0
C1100 C 0.59613 0.63193 0.38434 0.0
C1101 C 0.58715 0.62975 0.44791 0.0
C1102 C 0.60308 0.63231 0.52467 0.0
H1103 H 0.6325 0.56643 0.65784 0.0
H1104 H 0.62838 0.57609 0.59479 0.0
H1105 H 0.59982 0.63461 0.58202 0.0
H1106 H 0.62744 0.63044 0.37391 0.0
H1107 H 0.63677 0.62683 0.43707 0.0
H1108 H 0.63444 0.60108 0.48158 0.0
C1109 C 0.62891 0.58745 0.61526 0.0
C1110 C 0.60775 0.62743 0.56036 0.0
C1111 C 0.63123 0.58189 0.65143 0.0
C1112 C 0.616 0.63043 0.39424 0.0
C1113 C 0.62135 0.62821 0.43045 0.0
C1114 C 0.62702 0.60878 0.50325 0.0
C1115 C 0.62628 0.6073 0.60591 0.0
C1116 C 0.62203 0.61309 0.56793 0.0
C1117 C 0.60697 0.62735 0.45764 0.0
C1118 C 0.61256 0.62294 0.49567 0.0
H1119 H 0.62895 0.62729 0.69008 0.0
H1120 H 0.6253 0.63697 0.6271 0.0
H1121 H 0.64289 0.59294 0.54379 0.0
H1122 H 0.56635 0.6331 0.40491 0.0
H1123 H 0.57567 0.62901 0.46813 0.0
C1124 C 0.37143 0.08114 0.66402 0.0
C1125 C 0.37185 0.09539 0.63657 0.0
C1126 C 0.37338 0.08663 0.7003 0.0
C1127 C 0.39369 0.12685 0.75582 0.0
H1128 H 0.36791 0.09925 0.83418 0.0
C1129 C 0.38657 0.12802 0.92229 0.0
C1130 C 0.40647 0.13015 0.93156 0.0
C1131 C 0.38093 0.12593 0.88619 0.0
C1132 C 0.37505 0.10731 0.81264 0.0
H1133 H 0.37343 0.12666 0.62581 0.0
H1134 H 0.37635 0.13623 0.68897 0.0
H1135 H 0.35939 0.09144 0.77186 0.0
H1136 H 0.43599 0.13247 0.91001 0.0
H1137 H 0.42618 0.12855 0.84706 0.0
H1138 H 0.4092 0.14286 0.79657 0.0
C1139 C 0.37507 0.12078 0.6825 0.0
C1140 C 0.37034 0.10264 0.77688 0.0
C1141 C 0.37325 0.11529 0.64628 0.0
C1142 C 0.42053 0.13093 0.90379 0.0
C1143 C 0.41488 0.12874 0.86765 0.0
C1144 C 0.39836 0.13155 0.79157 0.0
C1145 C 0.37566 0.1065 0.7099 0.0
C1146 C 0.37974 0.11221 0.74801 0.0
C1147 C 0.39505 0.12582 0.85848 0.0
C1148 C 0.38925 0.12171 0.82043 0.0
H1149 H 0.37045 0.06568 0.65743 0.0
H1150 H 0.37394 0.07522 0.72065 0.0
H1151 H 0.40141 0.13436 0.73429 0.0
H1152 H 0.37535 0.1275 0.94301 0.0
H1153 H 0.36549 0.12412 0.88004 0.0
C1154 C 0.87414 0.88842 0.1689 0.0
C1155 C 0.87251 0.90832 0.17851 0.0
C1156 C 0.87638 0.88291 0.13277 0.0
C1157 C 0.87186 0.90072 0.03834 0.0
H1158 H 0.91117 0.86085 0.01921 0.0
C1159 C 0.92162 0.87203 0.91111 0.0
C1160 C 0.90731 0.87232 0.88377 0.0
C1161 C 0.91625 0.87444 0.94736 0.0
C1162 C 0.9002 0.87205 0.02407 0.0
H1163 H 0.87119 0.93801 0.15749 0.0
H1164 H 0.8753 0.92841 0.0944 0.0
H1165 H 0.90335 0.86963 0.08142 0.0
H1166 H 0.87603 0.87423 0.87324 0.0
H1167 H 0.86668 0.87801 0.93636 0.0
H1168 H 0.86924 0.90367 0.98099 0.0
C1169 C 0.87465 0.91703 0.1148 0.0
C1170 C 0.89553 0.87693 0.05976 0.0
C1171 C 0.87233 0.92255 0.151 0.0
C1172 C 0.88745 0.8741 0.8936 0.0
C1173 C 0.88209 0.87643 0.92979 0.0
C1174 C 0.87655 0.89586 0.00265 0.0
C1175 C 0.87712 0.89717 0.10535 0.0
C1176 C 0.88139 0.89141 0.06734 0.0
C1177 C 0.89644 0.87711 0.95704 0.0
C1178 C 0.89087 0.88155 0.99507 0.0
H1179 H 0.87418 0.87706 0.1894 0.0
H1180 H 0.87782 0.86746 0.12638 0.0
H1181 H 0.86078 0.91181 0.04319 0.0
H1182 H 0.93705 0.87076 0.90443 0.0
H1183 H 0.92771 0.87503 0.96762 0.0
loop_
_geom_bond_atom_site_label_1
_geom_bond_atom_site_label_2
_geom_bond_distance
_geom_bond_site_symmetry_2
_ccdc_geom_bond_type
C0 O2 1.247 . S
C0 O4 1.258 . S
C1 O8 1.247 . S
C1 O9 1.258 . S
O2 C0 1.247 . S
O2 Zn3 2.028 . S
Zn3 O2 2.028 . S
Zn3 O7 2.035 . S
Zn3 O9 2.035 . S
Zn3 O10 2.028 . S
O4 C0 1.258 . S
O4 Zn5 2.035 . S
Zn5 O4 2.035 . S
Zn5 O6 2.028 . S
Zn5 O8 2.028 . S
Zn5 O11 2.035 . S
O6 Zn5 2.028 . S
O6 C12 1.247 . S
O7 Zn3 2.035 . S
O7 C12 1.258 . S
O8 C1 1.247 . S
O8 Zn5 2.028 . S
O9 C1 1.258 . S
O9 Zn3 2.035 . S
O10 Zn3 2.028 . S
O10 C13 1.247 . S
O11 Zn5 2.035 . S
O11 C13 1.258 . S
C12 O6 1.247 . S
C12 O7 1.258 . S
C13 O10 1.247 . S
C13 O11 1.258 . S
C14 O16 1.247 . S
C14 O18 1.258 . S
C15 O22 1.247 . S
C15 O23 1.258 . S
O16 C14 1.247 . S
O16 Zn17 2.028 . S
Zn17 O16 2.028 . S
Zn17 O21 2.035 . S
Zn17 O23 2.035 . S
Zn17 O24 2.028 . S
O18 C14 1.258 . S
O18 Zn19 2.035 . S
Zn19 O18 2.035 . S
Zn19 O20 2.028 . S
Zn19 O22 2.028 . S
Zn19 O25 2.035 . S
O20 Zn19 2.028 . S
O20 C26 1.247 . S
O21 Zn17 2.035 . S
O21 C26 1.258 . S
O22 C15 1.247 . S
O22 Zn19 2.028 . S
O23 C15 1.258 . S
O23 Zn17 2.035 . S
O24 Zn17 2.028 . S
O24 C27 1.247 . S
O25 Zn19 2.035 . S
O25 C27 1.258 . S
C26 O20 1.247 . S
C26 O21 1.258 . S
C27 O24 1.247 . S
C27 O25 1.258 . S
C28 O30 1.247 . S
C28 O32 1.258 . S
C29 O36 1.247 . S
C29 O37 1.258 . S
O30 C28 1.247 . S
O30 Zn31 2.028 . S
Zn31 O30 2.028 . S
Zn31 O35 2.035 . S
Zn31 O37 2.035 . S
Zn31 O38 2.028 . S
O32 C28 1.258 . S
O32 Zn33 2.035 . S
Zn33 O32 2.035 . S
Zn33 O34 2.028 . S
Zn33 O36 2.028 . S
Zn33 O39 2.035 . S
O34 Zn33 2.028 . S
O34 C40 1.247 . S
O35 Zn31 2.035 . S
O35 C40 1.258 . S
O36 C29 1.247 . S
O36 Zn33 2.028 . S
O37 C29 1.258 . S
O37 Zn31 2.035 . S
O38 Zn31 2.028 . S
O38 C41 1.247 . S
O39 Zn33 2.035 . S
O39 C41 1.258 . S
C40 O34 1.247 . S
C40 O35 1.258 . S
C41 O38 1.247 . S
C41 O39 1.258 . S
C42 O44 1.247 . S
C42 O46 1.258 . S
C43 O50 1.247 . S
C43 O51 1.258 1_556 S
O44 C42 1.247 . S
O44 Zn45 2.028 . S
Zn45 O44 2.028 . S
Zn45 O49 2.035 . S
Zn45 O51 2.035 . S
Zn45 O52 2.028 . S
O46 C42 1.258 . S
O46 Zn47 2.035 . S
Zn47 O46 2.035 . S
Zn47 O48 2.028 . S
Zn47 O50 2.028 1_554 S
Zn47 O53 2.035 . S
O48 Zn47 2.028 . S
O48 C54 1.247 . S
O49 Zn45 2.035 . S
O49 C54 1.258 . S
O50 C43 1.247 . S
O50 Zn47 2.028 1_556 S
O51 C43 1.258 1_554 S
O51 Zn45 2.035 . S
O52 Zn45 2.028 . S
O52 C55 1.247 . S
O53 Zn47 2.035 . S
O53 C55 1.258 . S
C54 O48 1.247 . S
C54 O49 1.258 . S
C55 O52 1.247 . S
C55 O53 1.258 . S
C56 O58 1.247 . S
C56 O60 1.258 . S
C57 O64 1.247 . S
C57 O65 1.258 . S
O58 C56 1.247 . S
O58 Zn59 2.028 . S
Zn59 O58 2.028 . S
Zn59 O63 2.035 . S
Zn59 O65 2.035 . S
Zn59 O66 2.028 1_554 S
O60 C56 1.258 . S
O60 Zn61 2.035 . S
Zn61 O60 2.035 . S
Zn61 O62 2.028 . S
Zn61 O64 2.028 . S
Zn61 O67 2.035 1_554 S
O62 Zn61 2.028 . S
O62 C68 1.247 . S
O63 Zn59 2.035 . S
O63 C68 1.258 . S
O64 C57 1.247 . S
O64 Zn61 2.028 . S
O65 C57 1.258 . S
O65 Zn59 2.035 . S
O66 Zn59 2.028 1_556 S
O66 C69 1.247 . S
O67 Zn61 2.035 1_556 S
O67 C69 1.258 . S
C68 O62 1.247 . S
C68 O63 1.258 . S
C69 O66 1.247 . S
C69 O67 1.258 . S
C70 O72 1.247 . S
C70 O74 1.258 . S
C71 O78 1.247 . S
C71 O79 1.258 . S
O72 C70 1.247 . S
O72 Zn73 2.028 . S
Zn73 O72 2.028 . S
Zn73 O77 2.035 . S
Zn73 O79 2.035 . S
Zn73 O80 2.028 . S
O74 C70 1.258 . S
O74 Zn75 2.035 . S
Zn75 O74 2.035 . S
Zn75 O76 2.028 . S
Zn75 O78 2.028 . S
Zn75 O81 2.035 . S
O76 Zn75 2.028 . S
O76 C82 1.247 . S
O77 Zn73 2.035 . S
O77 C82 1.258 . S
O78 C71 1.247 . S
O78 Zn75 2.028 . S
O79 C71 1.258 . S
O79 Zn73 2.035 . S
O80 Zn73 2.028 . S
O80 C83 1.247 . S
O81 Zn75 2.035 . S
O81 C83 1.258 . S
C82 O76 1.247 . S
C82 O77 1.258 . S
C83 O80 1.247 . S
C83 O81 1.258 . S
C84 O86 1.247 . S
C84 O88 1.258 . S
C85 O92 1.247 . S
C85 O93 1.258 . S
O86 C84 1.247 . S
O86 Zn87 2.028 . S
Zn87 O86 2.028 . S
Zn87 O91 2.035 . S
Zn87 O93 2.035 . S
Zn87 O94 2.028 . S
O88 C84 1.258 . S
O88 Zn89 2.035 . S
Zn89 O88 2.035 . S
Zn89 O90 2.028 . S
Zn89 O92 2.028 . S
Zn89 O95 2.035 . S
O90 Zn89 2.028 . S
O90 C96 1.247 . S
O91 Zn87 2.035 . S
O91 C96 1.258 . S
O92 C85 1.247 . S
O92 Zn89 2.028 . S
O93 C85 1.258 . S
O93 Zn87 2.035 . S
O94 Zn87 2.028 . S
O94 C97 1.247 . S
O95 Zn89 2.035 . S
O95 C97 1.258 . S
C96 O90 1.247 . S
C96 O91 1.258 . S
C97 O94 1.247 . S
C97 O95 1.258 . S
C98 O100 1.247 . S
C98 O102 1.258 . S
C99 O106 1.247 . S
C99 O107 1.258 . S
O100 C98 1.247 . S
O100 Zn101 2.028 . S
Zn101 O100 2.028 . S
Zn101 O105 2.035 . S
Zn101 O107 2.035 . S
Zn101 O108 2.028 . S
O102 C98 1.258 . S
O102 Zn103 2.035 . S
Zn103 O102 2.035 . S
Zn103 O104 2.028 . S
Zn103 O106 2.028 . S
Zn103 O109 2.035 . S
O104 Zn103 2.028 . S
O104 C110 1.247 . S
O105 Zn101 2.035 . S
O105 C110 1.258 . S
O106 C99 1.247 . S
O106 Zn103 2.028 . S
O107 C99 1.258 . S
O107 Zn101 2.035 . S
O108 Zn101 2.028 . S
O108 C111 1.247 . S
O109 Zn103 2.035 . S
O109 C111 1.258 . S
C110 O104 1.247 . S
C110 O105 1.258 . S
C111 O108 1.247 . S
C111 O109 1.258 . S
C112 O114 1.247 . S
C112 O116 1.258 . S
C113 O120 1.247 . S
C113 O121 1.258 . S
O114 C112 1.247 . S
O114 Zn115 2.028 . S
Zn115 O114 2.028 . S
Zn115 O119 2.035 . S
Zn115 O121 2.035 . S
Zn115 O122 2.028 . S
O116 C112 1.258 . S
O116 Zn117 2.035 . S
Zn117 O116 2.035 . S
Zn117 O118 2.028 . S
Zn117 O120 2.028 . S
Zn117 O123 2.035 . S
O118 Zn117 2.028 . S
O118 C124 1.247 . S
O119 Zn115 2.035 . S
O119 C124 1.258 . S
O120 C113 1.247 . S
O120 Zn117 2.028 . S
O121 C113 1.258 . S
O121 Zn115 2.035 . S
O122 Zn115 2.028 . S
O122 C125 1.247 . S
O123 Zn117 2.035 . S
O123 C125 1.258 . S
C124 O118 1.247 . S
C124 O119 1.258 . S
C125 O122 1.247 . S
C125 O123 1.258 . S
C126 O128 1.247 . S
C126 O130 1.258 . S
C127 O134 1.247 . S
C127 O135 1.258 1_556 S
O128 C126 1.247 . S
O128 Zn129 2.028 . S
Zn129 O128 2.028 . S
Zn129 O133 2.035 . S
Zn129 O135 2.035 . S
Zn129 O136 2.028 . S
O130 C126 1.258 . S
O130 Zn131 2.035 . S
Zn131 O130 2.035 . S
Zn131 O132 2.028 . S
Zn131 O134 2.028 1_554 S
Zn131 O137 2.035 . S
O132 Zn131 2.028 . S
O132 C138 1.247 . S
O133 Zn129 2.035 . S
O133 C138 1.258 . S
O134 C127 1.247 . S
O134 Zn131 2.028 1_556 S
O135 C127 1.258 1_554 S
O135 Zn129 2.035 . S
O136 Zn129 2.028 . S
O136 C139 1.247 . S
O137 Zn131 2.035 . S
O137 C139 1.258 . S
C138 O132 1.247 . S
C138 O133 1.258 . S
C139 O136 1.247 . S
C139 O137 1.258 . S
C140 O142 1.247 . S
C140 O144 1.258 . S
C141 O148 1.247 . S
C141 O149 1.258 . S
O142 C140 1.247 . S
O142 Zn143 2.028 . S
Zn143 O142 2.028 . S
Zn143 O147 2.035 . S
Zn143 O149 2.035 . S
Zn143 O150 2.028 . S
O144 C140 1.258 . S
O144 Zn145 2.035 . S
Zn145 O144 2.035 . S
Zn145 O146 2.028 . S
Zn145 O148 2.028 . S
Zn145 O151 2.035 . S
O146 Zn145 2.028 . S
O146 C152 1.247 . S
O147 Zn143 2.035 . S
O147 C152 1.258 . S
O148 C141 1.247 . S
O148 Zn145 2.028 . S
O149 C141 1.258 . S
O149 Zn143 2.035 . S
O150 Zn143 2.028 . S
O150 C153 1.247 . S
O151 Zn145 2.035 . S
O151 C153 1.258 . S
C152 O146 1.247 . S
C152 O147 1.258 . S
C153 O150 1.247 . S
C153 O151 1.258 . S
C154 O156 1.247 . S
C154 O158 1.258 . S
C155 O162 1.247 . S
C155 O163 1.258 . S
O156 C154 1.247 . S
O156 Zn157 2.028 . S
Zn157 O156 2.028 . S
Zn157 O161 2.035 . S
Zn157 O163 2.035 . S
Zn157 O164 2.028 . S
O158 C154 1.258 . S
O158 Zn159 2.035 . S
Zn159 O158 2.035 . S
Zn159 O160 2.028 . S
Zn159 O162 2.028 . S
Zn159 O165 2.035 . S
O160 Zn159 2.028 . S
O160 C166 1.247 . S
O161 Zn157 2.035 . S
O161 C166 1.258 . S
O162 C155 1.247 . S
O162 Zn159 2.028 . S
O163 C155 1.258 . S
O163 Zn157 2.035 . S
O164 Zn157 2.028 . S
O164 C167 1.247 . S
O165 Zn159 2.035 . S
O165 C167 1.258 . S
C166 O160 1.247 . S
C166 O161 1.258 . S
C167 O164 1.247 . S
C167 O165 1.258 . S
C168 O170 1.247 . S
C168 O172 1.258 . S
C169 O176 1.247 . S
C169 O177 1.258 . S
O170 C168 1.247 . S
O170 Zn171 2.028 . S
Zn171 O170 2.028 . S
Zn171 O175 2.035 . S
Zn171 O177 2.035 . S
Zn171 O178 2.028 . S
O172 C168 1.258 . S
O172 Zn173 2.035 . S
Zn173 O172 2.035 . S
Zn173 O174 2.028 . S
Zn173 O176 2.028 . S
Zn173 O179 2.035 . S
O174 Zn173 2.028 . S
O174 C180 1.247 . S
O175 Zn171 2.035 . S
O175 C180 1.258 . S
O176 C169 1.247 . S
O176 Zn173 2.028 . S
O177 C169 1.258 . S
O177 Zn171 2.035 . S
O178 Zn171 2.028 . S
O178 C181 1.247 . S
O179 Zn173 2.035 . S
O179 C181 1.258 . S
C180 O174 1.247 . S
C180 O175 1.258 . S
C181 O178 1.247 . S
C181 O179 1.258 . S
C182 O184 1.247 . S
C182 O186 1.258 . S
C183 O190 1.247 . S
C183 O191 1.258 . S
O184 C182 1.247 . S
O184 Zn185 2.028 . S
Zn185 O184 2.028 . S
Zn185 O189 2.035 . S
Zn185 O191 2.035 . S
Zn185 O192 2.028 . S
O186 C182 1.258 . S
O186 Zn187 2.035 . S
Zn187 O186 2.035 . S
Zn187 O188 2.028 . S
Zn187 O190 2.028 . S
Zn187 O193 2.035 . S
O188 Zn187 2.028 . S
O188 C194 1.247 . S
O189 Zn185 2.035 . S
O189 C194 1.258 . S
O190 C183 1.247 . S
O190 Zn187 2.028 . S
O191 C183 1.258 . S
O191 Zn185 2.035 . S
O192 Zn185 2.028 . S
O192 C195 1.247 . S
O193 Zn187 2.035 . S
O193 C195 1.258 . S
C194 O188 1.247 . S
C194 O189 1.258 . S
C195 O192 1.247 . S
C195 O193 1.258 . S
C196 O198 1.247 . S
C196 O200 1.258 . S
C197 O204 1.247 . S
C197 O205 1.258 . S
O198 C196 1.247 . S
O198 Zn199 2.028 . S
Zn199 O198 2.028 . S
Zn199 O203 2.035 1_554 S
Zn199 O205 2.035 . S
Zn199 O206 2.028 . S
O200 C196 1.258 . S
O200 Zn201 2.035 . S
Zn201 O200 2.035 . S
Zn201 O202 2.028 1_554 S
Zn201 O204 2.028 . S
Zn201 O207 2.035 . S
O202 Zn201 2.028 1_556 S
O202 C208 1.247 . S
O203 Zn199 2.035 1_556 S
O203 C208 1.258 . S
O204 C197 1.247 . S
O204 Zn201 2.028 . S
O205 C197 1.258 . S
O205 Zn199 2.035 . S
O206 Zn199 2.028 . S
O206 C209 1.247 . S
O207 Zn201 2.035 . S
O207 C209 1.258 . S
C208 O202 1.247 . S
C208 O203 1.258 . S
C209 O206 1.247 . S
C209 O207 1.258 . S
C210 O212 1.247 . S
C210 O214 1.258 . S
C211 O218 1.247 . S
C211 O219 1.258 . S
O212 C210 1.247 . S
O212 Zn213 2.028 . S
Zn213 O212 2.028 . S
Zn213 O217 2.035 . S
Zn213 O219 2.035 . S
Zn213 O220 2.028 . S
O214 C210 1.258 . S
O214 Zn215 2.035 . S
Zn215 O214 2.035 . S
Zn215 O216 2.028 . S
Zn215 O218 2.028 . S
Zn215 O221 2.035 . S
O216 Zn215 2.028 . S
O216 C222 1.247 . S
O217 Zn213 2.035 . S
O217 C222 1.258 . S
O218 C211 1.247 . S
O218 Zn215 2.028 . S
O219 C211 1.258 . S
O219 Zn213 2.035 . S
O220 Zn213 2.028 . S
O220 C223 1.247 . S
O221 Zn215 2.035 . S
O221 C223 1.258 . S
C222 O216 1.247 . S
C222 O217 1.258 . S
C223 O220 1.247 . S
C223 O221 1.258 . S
C224 C225 1.349 . S
C224 C226 1.327 . S
C224 H249 0.950 . S
C225 C224 1.349 . S
C225 C241 1.349 . S
C226 C224 1.327 . S
C226 C245 1.429 . S
C226 H250 0.950 . S
C227 C244 1.574 . S
C227 C246 1.368 . S
C227 H251 0.949 . S
H228 C232 0.949 . S
C229 C230 1.349 . S
C229 C231 1.327 . S
C229 H252 0.950 . S
C230 C229 1.349 . S
C230 C242 1.349 . S
C231 C229 1.327 . S
C231 C247 1.429 . S
C231 H253 0.950 . S
C232 H228 0.949 . S
C232 C240 1.574 . S
C232 C248 1.368 . S
H233 C241 0.950 . S
H234 C239 0.950 . S
H235 C240 0.949 . S
H236 C242 0.950 . S
H237 C243 0.950 . S
H238 C244 0.949 . S
C239 H234 0.950 . S
C239 C241 1.327 . S
C239 C245 1.429 . S
C240 C232 1.574 . S
C240 H235 0.949 . S
C240 C246 1.368 . S
C241 C225 1.349 . S
C241 H233 0.950 . S
C241 C239 1.327 . S
C242 C230 1.349 . S
C242 H236 0.950 . S
C242 C243 1.327 . S
C243 H237 0.950 . S
C243 C242 1.327 . S
C243 C247 1.429 . S
C244 C227 1.574 . S
C244 H238 0.949 . S
C244 C248 1.368 . S
C245 C226 1.429 . S
C245 C239 1.429 . S
C245 C246 1.523 . S
C246 C227 1.368 . S
C246 C240 1.368 . S
C246 C245 1.523 . S
C247 C231 1.429 . S
C247 C243 1.429 . S
C247 C248 1.523 . S
C248 C232 1.368 . S
C248 C244 1.368 . S
C248 C247 1.523 . S
H249 C224 0.950 . S
H250 C226 0.950 . S
H251 C227 0.949 . S
H252 C229 0.950 . S
H253 C231 0.950 . S
C254 C255 1.349 . S
C254 C256 1.327 . S
C254 H279 0.950 . S
C255 C254 1.349 . S
C255 C271 1.349 . S
C256 C254 1.327 . S
C256 C275 1.429 . S
C256 H280 0.950 . S
C257 C274 1.574 . S
C257 C276 1.368 . S
C257 H281 0.949 . S
H258 C262 0.949 . S
C259 C260 1.349 . S
C259 C261 1.327 . S
C259 H282 0.950 . S
C260 C259 1.349 . S
C260 C272 1.349 . S
C261 C259 1.327 . S
C261 C277 1.429 . S
C261 H283 0.950 . S
C262 H258 0.949 . S
C262 C270 1.574 . S
C262 C278 1.368 . S
H263 C271 0.950 . S
H264 C269 0.950 . S
H265 C270 0.949 . S
H266 C272 0.950 . S
H267 C273 0.950 . S
H268 C274 0.949 . S
C269 H264 0.950 . S
C269 C271 1.327 . S
C269 C275 1.429 . S
C270 C262 1.574 . S
C270 H265 0.949 . S
C270 C276 1.368 . S
C271 C255 1.349 . S
C271 H263 0.950 . S
C271 C269 1.327 . S
C272 C260 1.349 . S
C272 H266 0.950 . S
C272 C273 1.327 . S
C273 H267 0.950 . S
C273 C272 1.327 . S
C273 C277 1.429 . S
C274 C257 1.574 . S
C274 H268 0.949 . S
C274 C278 1.368 . S
C275 C256 1.429 . S
C275 C269 1.429 . S
C275 C276 1.523 . S
C276 C257 1.368 . S
C276 C270 1.368 . S
C276 C275 1.523 . S
C277 C261 1.429 . S
C277 C273 1.429 . S
C277 C278 1.523 . S
C278 C262 1.368 . S
C278 C274 1.368 . S
C278 C277 1.523 . S
H279 C254 0.950 . S
H280 C256 0.950 . S
H281 C257 0.949 . S
H282 C259 0.950 . S
H283 C261 0.950 . S
C284 C285 1.349 . S
C284 C286 1.327 . S
C284 H309 0.950 . S
C285 C284 1.349 . S
C285 C301 1.349 . S
C286 C284 1.327 . S
C286 C305 1.429 . S
C286 H310 0.950 . S
C287 C304 1.574 . S
C287 C306 1.368 . S
C287 H311 0.949 . S
H288 C292 0.949 . S
C289 C290 1.349 . S
C289 C291 1.327 . S
C289 H312 0.950 1_556 S
C290 C289 1.349 . S
C290 C302 1.349 . S
C291 C289 1.327 . S
C291 C307 1.429 . S
C291 H313 0.950 . S
C292 H288 0.949 . S
C292 C300 1.574 . S
C292 C308 1.368 . S
H293 C301 0.950 . S
H294 C299 0.950 . S
H295 C300 0.949 . S
H296 C302 0.950 . S
H297 C303 0.950 . S
H298 C304 0.949 . S
C299 H294 0.950 . S
C299 C301 1.327 . S
C299 C305 1.429 . S
C300 C292 1.574 . S
C300 H295 0.949 . S
C300 C306 1.368 . S
C301 C285 1.349 . S
C301 H293 0.950 . S
C301 C299 1.327 . S
C302 C290 1.349 . S
C302 H296 0.950 . S
C302 C303 1.327 . S
C303 H297 0.950 . S
C303 C302 1.327 . S
C303 C307 1.429 . S
C304 C287 1.574 . S
C304 H298 0.949 . S
C304 C308 1.368 . S
C305 C286 1.429 . S
C305 C299 1.429 . S
C305 C306 1.523 . S
C306 C287 1.368 . S
C306 C300 1.368 . S
C306 C305 1.523 . S
C307 C291 1.429 . S
C307 C303 1.429 . S
C307 C308 1.523 . S
C308 C292 1.368 . S
C308 C304 1.368 . S
C308 C307 1.523 . S
H309 C284 0.950 . S
H310 C286 0.950 . S
H311 C287 0.949 . S
H312 C289 0.950 1_554 S
H313 C291 0.950 . S
C314 C315 1.349 . S
C314 C316 1.327 . S
C314 H339 0.950 . S
C315 C314 1.349 . S
C315 C331 1.349 . S
C316 C314 1.327 . S
C316 C335 1.429 . S
C316 H340 0.950 . S
C317 C334 1.574 . S
C317 C336 1.368 . S
C317 H341 0.949 . S
H318 C322 0.949 . S
C319 C320 1.349 . S
C319 C321 1.327 . S
C319 H342 0.950 . S
C320 C319 1.349 . S
C320 C332 1.349 . S
C321 C319 1.327 . S
C321 C337 1.429 . S
C321 H343 0.950 . S
C322 H318 0.949 . S
C322 C330 1.574 . S
C322 C338 1.368 . S
H323 C331 0.950 . S
H324 C329 0.950 . S
H325 C330 0.949 . S
H326 C332 0.950 . S
H327 C333 0.950 . S
H328 C334 0.949 . S
C329 H324 0.950 . S
C329 C331 1.327 . S
C329 C335 1.429 . S
C330 C322 1.574 . S
C330 H325 0.949 . S
C330 C336 1.368 . S
C331 C315 1.349 . S
C331 H323 0.950 . S
C331 C329 1.327 . S
C332 C320 1.349 . S
C332 H326 0.950 . S
C332 C333 1.327 . S
C333 H327 0.950 . S
C333 C332 1.327 . S
C333 C337 1.429 . S
C334 C317 1.574 . S
C334 H328 0.949 . S
C334 C338 1.368 . S
C335 C316 1.429 . S
C335 C329 1.429 . S
C335 C336 1.523 . S
C336 C317 1.368 . S
C336 C330 1.368 . S
C336 C335 1.523 . S
C337 C321 1.429 . S
C337 C333 1.429 . S
C337 C338 1.523 . S
C338 C322 1.368 . S
C338 C334 1.368 . S
C338 C337 1.523 . S
H339 C314 0.950 . S
H340 C316 0.950 . S
H341 C317 0.949 . S
H342 C319 0.950 . S
H343 C321 0.950 . S
C344 C345 1.349 . S
C344 C346 1.327 . S
C344 H369 0.950 . S
C345 C344 1.349 . S
C345 C361 1.349 . S
C346 C344 1.327 . S
C346 C365 1.429 . S
C346 H370 0.950 . S
C347 C364 1.574 . S
C347 C366 1.368 . S
C347 H371 0.949 . S
H348 C352 0.949 . S
C349 C350 1.349 . S
C349 C351 1.327 . S
C349 H372 0.950 1_556 S
C350 C349 1.349 . S
C350 C362 1.349 . S
C351 C349 1.327 . S
C351 C367 1.429 . S
C351 H373 0.950 . S
C352 H348 0.949 . S
C352 C360 1.574 . S
C352 C368 1.368 . S
H353 C361 0.950 . S
H354 C359 0.950 . S
H355 C360 0.949 . S
H356 C362 0.950 . S
H357 C363 0.950 . S
H358 C364 0.949 . S
C359 H354 0.950 . S
C359 C361 1.327 . S
C359 C365 1.429 . S
C360 C352 1.574 . S
C360 H355 0.949 . S
C360 C366 1.368 . S
C361 C345 1.349 . S
C361 H353 0.950 . S
C361 C359 1.327 . S
C362 C350 1.349 . S
C362 H356 0.950 . S
C362 C363 1.327 . S
C363 H357 0.950 . S
C363 C362 1.327 . S
C363 C367 1.429 . S
C364 C347 1.574 . S
C364 H358 0.949 . S
C364 C368 1.368 . S
C365 C346 1.429 . S
C365 C359 1.429 . S
C365 C366 1.523 . S
C366 C347 1.368 . S
C366 C360 1.368 . S
C366 C365 1.523 . S
C367 C351 1.429 . S
C367 C363 1.429 . S
C367 C368 1.523 . S
C368 C352 1.368 . S
C368 C364 1.368 . S
C368 C367 1.523 . S
H369 C344 0.950 . S
H370 C346 0.950 . S
H371 C347 0.949 . S
H372 C349 0.950 1_554 S
H373 C351 0.950 . S
C374 C375 1.349 . S
C374 C376 1.327 . S
C374 H399 0.950 . S
C375 C374 1.349 . S
C375 C391 1.349 . S
C376 C374 1.327 . S
C376 C395 1.429 . S
C376 H400 0.950 . S
C377 C394 1.574 . S
C377 C396 1.368 . S
C377 H401 0.949 . S
H378 C382 0.949 . S
C379 C380 1.349 . S
C379 C381 1.327 . S
C379 H402 0.950 . S
C380 C379 1.349 . S
C380 C392 1.349 . S
C381 C379 1.327 . S
C381 C397 1.429 . S
C381 H403 0.950 . S
C382 H378 0.949 . S
C382 C390 1.574 . S
C382 C398 1.368 . S
H383 C391 0.950 . S
H384 C389 0.950 . S
H385 C390 0.949 . S
H386 C392 0.950 . S
H387 C393 0.950 . S
H388 C394 0.949 . S
C389 H384 0.950 . S
C389 C391 1.327 . S
C389 C395 1.429 . S
C390 C382 1.574 . S
C390 H385 0.949 . S
C390 C396 1.368 . S
C391 C375 1.349 . S
C391 H383 0.950 . S
C391 C389 1.327 . S
C392 C380 1.349 . S
C392 H386 0.950 . S
C392 C393 1.327 . S
C393 H387 0.950 . S
C393 C392 1.327 . S
C393 C397 1.429 . S
C394 C377 1.574 . S
C394 H388 0.949 . S
C394 C398 1.368 . S
C395 C376 1.429 . S
C395 C389 1.429 . S
C395 C396 1.523 . S
C396 C377 1.368 . S
C396 C390 1.368 . S
C396 C395 1.523 . S
C397 C381 1.429 . S
C397 C393 1.429 . S
C397 C398 1.523 . S
C398 C382 1.368 . S
C398 C394 1.368 . S
C398 C397 1.523 . S
H399 C374 0.950 . S
H400 C376 0.950 . S
H401 C377 0.949 . S
H402 C379 0.950 . S
H403 C381 0.950 . S
C404 C405 1.349 . S
C404 C406 1.327 . S
C404 H429 0.950 . S
C405 C404 1.349 . S
C405 C421 1.349 . S
C406 C404 1.327 . S
C406 C425 1.429 . S
C406 H430 0.950 . S
C407 C424 1.574 . S
C407 C426 1.368 . S
C407 H431 0.949 . S
H408 C412 0.949 . S
C409 C410 1.349 . S
C409 C411 1.327 . S
C409 H432 0.950 . S
C410 C409 1.349 . S
C410 C422 1.349 . S
C411 C409 1.327 . S
C411 C427 1.429 . S
C411 H433 0.950 . S
C412 H408 0.949 . S
C412 C420 1.574 . S
C412 C428 1.368 . S
H413 C421 0.950 . S
H414 C419 0.950 . S
H415 C420 0.949 . S
H416 C422 0.950 . S
H417 C423 0.950 . S
H418 C424 0.949 . S
C419 H414 0.950 . S
C419 C421 1.327 . S
C419 C425 1.429 . S
C420 C412 1.574 . S
C420 H415 0.949 . S
C420 C426 1.368 . S
C421 C405 1.349 . S
C421 H413 0.950 . S
C421 C419 1.327 . S
C422 C410 1.349 . S
C422 H416 0.950 . S
C422 C423 1.327 . S
C423 H417 0.950 . S
C423 C422 1.327 . S
C423 C427 1.429 . S
C424 C407 1.574 . S
C424 H418 0.949 . S
C424 C428 1.368 . S
C425 C406 1.429 . S
C425 C419 1.429 . S
C425 C426 1.523 . S
C426 C407 1.368 . S
C426 C420 1.368 . S
C426 C425 1.523 . S
C427 C411 1.429 . S
C427 C423 1.429 . S
C427 C428 1.523 . S
C428 C412 1.368 . S
C428 C424 1.368 . S
C428 C427 1.523 . S
H429 C404 0.950 . S
H430 C406 0.950 . S
H431 C407 0.949 . S
H432 C409 0.950 . S
H433 C411 0.950 . S
C434 C435 1.349 . S
C434 C436 1.327 . S
C434 H459 0.950 . S
C435 C434 1.349 . S
C435 C451 1.349 . S
C436 C434 1.327 . S
C436 C455 1.429 . S
C436 H460 0.950 . S
C437 C454 1.574 . S
C437 C456 1.368 . S
C437 H461 0.949 . S
H438 C442 0.949 . S
C439 C440 1.349 . S
C439 C441 1.327 . S
C439 H462 0.950 . S
C440 C439 1.349 . S
C440 C452 1.349 . S
C441 C439 1.327 . S
C441 C457 1.429 . S
C441 H463 0.950 . S
C442 H438 0.949 . S
C442 C450 1.574 . S
C442 C458 1.368 . S
H443 C451 0.950 . S
H444 C449 0.950 . S
H445 C450 0.949 . S
H446 C452 0.950 . S
H447 C453 0.950 . S
H448 C454 0.949 . S
C449 H444 0.950 . S
C449 C451 1.327 . S
C449 C455 1.429 . S
C450 C442 1.574 . S
C450 H445 0.949 . S
C450 C456 1.368 . S
C451 C435 1.349 . S
C451 H443 0.950 . S
C451 C449 1.327 . S
C452 C440 1.349 . S
C452 H446 0.950 . S
C452 C453 1.327 . S
C453 H447 0.950 . S
C453 C452 1.327 . S
C453 C457 1.429 . S
C454 C437 1.574 . S
C454 H448 0.949 . S
C454 C458 1.368 . S
C455 C436 1.429 . S
C455 C449 1.429 . S
C455 C456 1.523 . S
C456 C437 1.368 . S
C456 C450 1.368 . S
C456 C455 1.523 . S
C457 C441 1.429 . S
C457 C453 1.429 . S
C457 C458 1.523 . S
C458 C442 1.368 . S
C458 C454 1.368 . S
C458 C457 1.523 . S
H459 C434 0.950 . S
H460 C436 0.950 . S
H461 C437 0.949 . S
H462 C439 0.950 . S
H463 C441 0.950 . S
C464 C465 1.349 . S
C464 C466 1.327 . S
C464 H489 0.950 . S
C465 C464 1.349 . S
C465 C481 1.349 . S
C466 C464 1.327 . S
C466 C485 1.429 . S
C466 H490 0.950 . S
C467 C484 1.578 1_445 S
C467 C486 1.368 . S
C467 H491 0.949 . S
H468 C472 0.949 . S
C469 C470 1.349 . S
C469 C471 1.327 . S
C469 H492 0.950 . S
C470 C469 1.349 . S
C470 C482 1.349 . S
C471 C469 1.327 . S
C471 C487 1.429 . S
C471 H493 0.950 . S
C472 H468 0.949 . S
C472 C480 1.578 1_665 S
C472 C488 1.368 . S
H473 C481 0.950 . S
H474 C479 0.950 . S
H475 C480 0.949 . S
H476 C482 0.950 . S
H477 C483 0.950 . S
H478 C484 0.949 . S
C479 H474 0.950 . S
C479 C481 1.327 . S
C479 C485 1.429 . S
C480 C472 1.578 1_445 S
C480 H475 0.949 . S
C480 C486 1.364 . S
C481 C465 1.349 . S
C481 H473 0.950 . S
C481 C479 1.327 . S
C482 C470 1.349 . S
C482 H476 0.950 . S
C482 C483 1.327 . S
C483 H477 0.950 . S
C483 C482 1.327 . S
C483 C487 1.429 . S
C484 C467 1.578 1_665 S
C484 H478 0.949 . S
C484 C488 1.364 . S
C485 C466 1.429 . S
C485 C479 1.429 . S
C485 C486 1.523 . S
C486 C467 1.368 . S
C486 C480 1.364 . S
C486 C485 1.523 . S
C487 C471 1.429 . S
C487 C483 1.429 . S
C487 C488 1.523 . S
C488 C472 1.368 . S
C488 C484 1.364 . S
C488 C487 1.523 . S
H489 C464 0.950 . S
H490 C466 0.950 . S
H491 C467 0.949 . S
H492 C469 0.950 . S
H493 C471 0.950 . S
C494 C495 1.349 . S
C494 C496 1.327 . S
C494 H519 0.950 . S
C495 C494 1.349 . S
C495 C511 1.349 . S
C496 C494 1.327 . S
C496 C515 1.429 . S
C496 H520 0.950 . S
C497 C514 1.574 1_655 S
C497 C516 1.368 . S
C497 H521 0.949 . S
H498 C502 0.949 . S
C499 C500 1.349 . S
C499 C501 1.327 . S
C499 H522 0.950 . S
C500 C499 1.349 . S
C500 C512 1.349 . S
C501 C499 1.327 . S
C501 C517 1.429 . S
C501 H523 0.950 . S
C502 H498 0.949 . S
C502 C510 1.574 1_455 S
C502 C518 1.368 . S
H503 C511 0.950 . S
H504 C509 0.950 . S
H505 C510 0.949 . S
H506 C512 0.950 . S
H507 C513 0.950 . S
H508 C514 0.949 . S
C509 H504 0.950 . S
C509 C511 1.327 . S
C509 C515 1.429 . S
C510 C502 1.574 1_655 S
C510 H505 0.949 . S
C510 C516 1.368 . S
C511 C495 1.349 . S
C511 H503 0.950 . S
C511 C509 1.327 . S
C512 C500 1.349 . S
C512 H506 0.950 . S
C512 C513 1.327 . S
C513 H507 0.950 . S
C513 C512 1.327 . S
C513 C517 1.429 . S
C514 C497 1.574 1_455 S
C514 H508 0.949 . S
C514 C518 1.368 . S
C515 C496 1.429 . S
C515 C509 1.429 . S
C515 C516 1.523 . S
C516 C497 1.368 . S
C516 C510 1.368 . S
C516 C515 1.523 . S
C517 C501 1.429 . S
C517 C513 1.429 . S
C517 C518 1.523 . S
C518 C502 1.368 . S
C518 C514 1.368 . S
C518 C517 1.523 . S
H519 C494 0.950 . S
H520 C496 0.950 . S
H521 C497 0.949 . S
H522 C499 0.950 . S
H523 C501 0.950 . S
C524 C525 1.349 . S
C524 C526 1.327 . S
C524 H549 0.950 . S
C525 C524 1.349 . S
C525 C541 1.349 . S
C526 C524 1.327 . S
C526 C545 1.429 . S
C526 H550 0.950 . S
C527 C544 1.574 . S
C527 C546 1.368 . S
C527 H551 0.949 . S
H528 C532 0.949 . S
C529 C530 1.349 . S
C529 C531 1.327 . S
C529 H552 0.950 . S
C530 C529 1.349 . S
C530 C542 1.349 . S
C531 C529 1.327 . S
C531 C547 1.429 . S
C531 H553 0.950 . S
C532 H528 0.949 . S
C532 C540 1.574 . S
C532 C548 1.368 . S
H533 C541 0.950 . S
H534 C539 0.950 . S
H535 C540 0.949 . S
H536 C542 0.950 . S
H537 C543 0.950 . S
H538 C544 0.949 . S
C539 H534 0.950 . S
C539 C541 1.327 . S
C539 C545 1.429 . S
C540 C532 1.574 . S
C540 H535 0.949 . S
C540 C546 1.368 . S
C541 C525 1.349 . S
C541 H533 0.950 . S
C541 C539 1.327 . S
C542 C530 1.349 . S
C542 H536 0.950 . S
C542 C543 1.327 . S
C543 H537 0.950 . S
C543 C542 1.327 . S
C543 C547 1.429 . S
C544 C527 1.574 . S
C544 H538 0.949 . S
C544 C548 1.368 . S
C545 C526 1.429 . S
C545 C539 1.429 . S
C545 C546 1.523 . S
C546 C527 1.368 . S
C546 C540 1.368 . S
C546 C545 1.523 . S
C547 C531 1.429 . S
C547 C543 1.429 . S
C547 C548 1.523 . S
C548 C532 1.368 . S
C548 C544 1.368 . S
C548 C547 1.523 . S
H549 C524 0.950 . S
H550 C526 0.950 . S
H551 C527 0.949 . S
H552 C529 0.950 . S
H553 C531 0.950 . S
C554 C555 1.349 . S
C554 C556 1.327 . S
C554 H579 0.950 1_554 S
C555 C554 1.349 . S
C555 C571 1.349 . S
C556 C554 1.327 . S
C556 C575 1.429 . S
C556 H580 0.950 1_554 S
C557 C574 1.578 1_565 S
C557 C576 1.364 . S
C557 H581 0.949 . S
H558 C562 0.949 1_556 S
C559 C560 1.349 . S
C559 C561 1.327 . S
C559 H582 0.950 . S
C560 C559 1.349 . S
C560 C572 1.349 . S
C561 C559 1.327 . S
C561 C577 1.429 . S
C561 H583 0.950 . S
C562 H558 0.949 1_554 S
C562 C570 1.578 1_545 S
C562 C578 1.364 . S
H563 C571 0.950 . S
H564 C569 0.950 . S
H565 C570 0.949 1_556 S
H566 C572 0.950 1_556 S
H567 C573 0.950 1_556 S
H568 C574 0.949 . S
C569 H564 0.950 . S
C569 C571 1.327 . S
C569 C575 1.429 . S
C570 C562 1.578 1_565 S
C570 H565 0.949 1_554 S
C570 C576 1.368 . S
C571 C555 1.349 . S
C571 H563 0.950 . S
C571 C569 1.327 . S
C572 C560 1.349 . S
C572 H566 0.950 1_554 S
C572 C573 1.327 . S
C573 H567 0.950 1_554 S
C573 C572 1.327 . S
C573 C577 1.429 . S
C574 C557 1.578 1_545 S
C574 H568 0.949 . S
C574 C578 1.368 . S
C575 C556 1.429 . S
C575 C569 1.429 . S
C575 C576 1.523 . S
C576 C557 1.364 . S
C576 C570 1.368 . S
C576 C575 1.523 . S
C577 C561 1.429 . S
C577 C573 1.429 . S
C577 C578 1.523 . S
C578 C562 1.364 . S
C578 C574 1.368 . S
C578 C577 1.523 . S
H579 C554 0.950 1_556 S
H580 C556 0.950 1_556 S
H581 C557 0.949 . S
H582 C559 0.950 . S
H583 C561 0.950 . S
C584 C585 1.349 . S
C584 C586 1.327 . S
C584 H609 0.950 . S
C585 C584 1.349 . S
C585 C601 1.349 . S
C586 C584 1.327 . S
C586 C605 1.429 . S
C586 H610 0.950 . S
C587 C604 1.578 1_455 S
C587 C606 1.364 . S
C587 H611 0.949 1_554 S
H588 C592 0.949 . S
C589 C590 1.349 . S
C589 C591 1.327 . S
C589 H612 0.950 1_554 S
C590 C589 1.349 . S
C590 C602 1.349 . S
C591 C589 1.327 . S
C591 C607 1.429 . S
C591 H613 0.950 1_554 S
C592 H588 0.949 . S
C592 C600 1.578 1_655 S
C592 C608 1.364 . S
H593 C601 0.950 1_556 S
H594 C599 0.950 1_556 S
H595 C600 0.949 . S
H596 C602 0.950 . S
H597 C603 0.950 . S
H598 C604 0.949 1_556 S
C599 H594 0.950 1_554 S
C599 C601 1.327 . S
C599 C605 1.429 . S
C600 C592 1.578 1_455 S
C600 H595 0.949 . S
C600 C606 1.368 . S
C601 C585 1.349 . S
C601 H593 0.950 1_554 S
C601 C599 1.327 . S
C602 C590 1.349 . S
C602 H596 0.950 . S
C602 C603 1.327 . S
C603 H597 0.950 . S
C603 C602 1.327 . S
C603 C607 1.429 . S
C604 C587 1.578 1_655 S
C604 H598 0.949 1_554 S
C604 C608 1.368 . S
C605 C586 1.429 . S
C605 C599 1.429 . S
C605 C606 1.523 . S
C606 C587 1.364 . S
C606 C600 1.368 . S
C606 C605 1.523 . S
C607 C591 1.429 . S
C607 C603 1.429 . S
C607 C608 1.523 . S
C608 C592 1.364 . S
C608 C604 1.368 . S
C608 C607 1.523 . S
H609 C584 0.950 . S
H610 C586 0.950 . S
H611 C587 0.949 1_556 S
H612 C589 0.950 1_556 S
H613 C591 0.950 1_556 S
C614 C615 1.349 . S
C614 C616 1.327 . S
C614 H639 0.950 . S
C615 C614 1.349 . S
C615 C631 1.349 . S
C616 C614 1.327 . S
C616 C635 1.429 . S
C616 H640 0.950 . S
C617 C634 1.574 . S
C617 C636 1.368 . S
C617 H641 0.949 . S
H618 C622 0.949 . S
C619 C620 1.349 . S
C619 C621 1.327 . S
C619 H642 0.950 . S
C620 C619 1.349 . S
C620 C632 1.349 . S
C621 C619 1.327 . S
C621 C637 1.429 . S
C621 H643 0.950 . S
C622 H618 0.949 . S
C622 C630 1.574 . S
C622 C638 1.368 . S
H623 C631 0.950 . S
H624 C629 0.950 . S
H625 C630 0.949 . S
H626 C632 0.950 . S
H627 C633 0.950 . S
H628 C634 0.949 . S
C629 H624 0.950 . S
C629 C631 1.327 . S
C629 C635 1.429 . S
C630 C622 1.574 . S
C630 H625 0.949 . S
C630 C636 1.368 . S
C631 C615 1.349 . S
C631 H623 0.950 . S
C631 C629 1.327 . S
C632 C620 1.349 . S
C632 H626 0.950 . S
C632 C633 1.327 . S
C633 H627 0.950 . S
C633 C632 1.327 . S
C633 C637 1.429 . S
C634 C617 1.574 . S
C634 H628 0.949 . S
C634 C638 1.368 . S
C635 C616 1.429 . S
C635 C629 1.429 . S
C635 C636 1.523 . S
C636 C617 1.368 . S
C636 C630 1.368 . S
C636 C635 1.523 . S
C637 C621 1.429 . S
C637 C633 1.429 . S
C637 C638 1.523 . S
C638 C622 1.368 . S
C638 C634 1.368 . S
C638 C637 1.523 . S
H639 C614 0.950 . S
H640 C616 0.950 . S
H641 C617 0.949 . S
H642 C619 0.950 . S
H643 C621 0.950 . S
C644 C645 1.349 . S
C644 C646 1.327 . S
C644 H669 0.950 . S
C645 C644 1.349 . S
C645 C661 1.349 . S
C646 C644 1.327 . S
C646 C665 1.429 . S
C646 H670 0.950 . S
C647 C664 1.574 1_545 S
C647 C666 1.368 . S
C647 H671 0.949 . S
H648 C652 0.949 . S
C649 C650 1.349 . S
C649 C651 1.327 . S
C649 H672 0.950 . S
C650 C649 1.349 . S
C650 C662 1.349 . S
C651 C649 1.327 . S
C651 C667 1.429 . S
C651 H673 0.950 . S
C652 H648 0.949 . S
C652 C660 1.574 1_565 S
C652 C668 1.368 . S
H653 C661 0.950 . S
H654 C659 0.950 . S
H655 C660 0.949 . S
H656 C662 0.950 . S
H657 C663 0.950 . S
H658 C664 0.949 . S
C659 H654 0.950 . S
C659 C661 1.327 . S
C659 C665 1.429 . S
C660 C652 1.574 1_545 S
C660 H655 0.949 . S
C660 C666 1.368 . S
C661 C645 1.349 . S
C661 H653 0.950 . S
C661 C659 1.327 . S
C662 C650 1.349 . S
C662 H656 0.950 . S
C662 C663 1.327 . S
C663 H657 0.950 . S
C663 C662 1.327 . S
C663 C667 1.429 . S
C664 C647 1.574 1_565 S
C664 H658 0.949 . S
C664 C668 1.368 . S
C665 C646 1.429 . S
C665 C659 1.429 . S
C665 C666 1.523 . S
C666 C647 1.368 . S
C666 C660 1.368 . S
C666 C665 1.523 . S
C667 C651 1.429 . S
C667 C663 1.429 . S
C667 C668 1.523 . S
C668 C652 1.368 . S
C668 C664 1.368 . S
C668 C667 1.523 . S
H669 C644 0.950 . S
H670 C646 0.950 . S
H671 C647 0.949 . S
H672 C649 0.950 . S
H673 C651 0.950 . S
C674 C675 1.349 . S
C674 C676 1.327 . S
C674 H699 0.950 . S
C675 C674 1.349 . S
C675 C691 1.349 . S
C676 C674 1.327 . S
C676 C695 1.429 . S
C676 H700 0.950 . S
C677 C694 1.578 1_445 S
C677 C696 1.368 . S
C677 H701 0.949 . S
H678 C682 0.949 . S
C679 C680 1.349 . S
C679 C681 1.327 . S
C679 H702 0.950 . S
C680 C679 1.349 . S
C680 C692 1.349 . S
C681 C679 1.327 . S
C681 C697 1.429 . S
C681 H703 0.950 . S
C682 H678 0.949 . S
C682 C690 1.578 1_665 S
C682 C698 1.368 . S
H683 C691 0.950 . S
H684 C689 0.950 . S
H685 C690 0.949 . S
H686 C692 0.950 . S
H687 C693 0.950 . S
H688 C694 0.949 . S
C689 H684 0.950 . S
C689 C691 1.327 . S
C689 C695 1.429 . S
C690 C682 1.578 1_445 S
C690 H685 0.949 . S
C690 C696 1.364 . S
C691 C675 1.349 . S
C691 H683 0.950 . S
C691 C689 1.327 . S
C692 C680 1.349 . S
C692 H686 0.950 . S
C692 C693 1.327 . S
C693 H687 0.950 . S
C693 C692 1.327 . S
C693 C697 1.429 . S
C694 C677 1.578 1_665 S
C694 H688 0.949 . S
C694 C698 1.364 . S
C695 C676 1.429 . S
C695 C689 1.429 . S
C695 C696 1.523 . S
C696 C677 1.368 . S
C696 C690 1.364 . S
C696 C695 1.523 . S
C697 C681 1.429 . S
C697 C693 1.429 . S
C697 C698 1.523 . S
C698 C682 1.368 . S
C698 C694 1.364 . S
C698 C697 1.523 . S
H699 C674 0.950 . S
H700 C676 0.950 . S
H701 C677 0.949 . S
H702 C679 0.950 . S
H703 C681 0.950 . S
C704 C705 1.349 . S
C704 C706 1.327 . S
C704 H729 0.950 . S
C705 C704 1.349 . S
C705 C721 1.349 . S
C706 C704 1.327 . S
C706 C725 1.429 . S
C706 H730 0.950 . S
C707 C724 1.574 . S
C707 C726 1.368 . S
C707 H731 0.949 . S
H708 C712 0.949 . S
C709 C710 1.349 . S
C709 C711 1.327 . S
C709 H732 0.950 . S
C710 C709 1.349 . S
C710 C722 1.349 . S
C711 C709 1.327 . S
C711 C727 1.429 . S
C711 H733 0.950 . S
C712 H708 0.949 . S
C712 C720 1.574 . S
C712 C728 1.368 . S
H713 C721 0.950 . S
H714 C719 0.950 . S
H715 C720 0.949 . S
H716 C722 0.950 . S
H717 C723 0.950 . S
H718 C724 0.949 . S
C719 H714 0.950 . S
C719 C721 1.327 . S
C719 C725 1.429 . S
C720 C712 1.574 . S
C720 H715 0.949 . S
C720 C726 1.368 . S
C721 C705 1.349 . S
C721 H713 0.950 . S
C721 C719 1.327 . S
C722 C710 1.349 . S
C722 H716 0.950 . S
C722 C723 1.327 . S
C723 H717 0.950 . S
C723 C722 1.327 . S
C723 C727 1.429 . S
C724 C707 1.574 . S
C724 H718 0.949 . S
C724 C728 1.368 . S
C725 C706 1.429 . S
C725 C719 1.429 . S
C725 C726 1.523 . S
C726 C707 1.368 . S
C726 C720 1.368 . S
C726 C725 1.523 . S
C727 C711 1.429 . S
C727 C723 1.429 . S
C727 C728 1.523 . S
C728 C712 1.368 . S
C728 C724 1.368 . S
C728 C727 1.523 . S
H729 C704 0.950 . S
H730 C706 0.950 . S
H731 C707 0.949 . S
H732 C709 0.950 . S
H733 C711 0.950 . S
C734 C735 1.349 . S
C734 C736 1.327 . S
C734 H759 0.950 . S
C735 C734 1.349 . S
C735 C751 1.349 . S
C736 C734 1.327 . S
C736 C755 1.429 . S
C736 H760 0.950 . S
C737 C754 1.574 . S
C737 C756 1.368 . S
C737 H761 0.949 . S
H738 C742 0.949 . S
C739 C740 1.349 . S
C739 C741 1.327 . S
C739 H762 0.950 . S
C740 C739 1.349 . S
C740 C752 1.349 . S
C741 C739 1.327 . S
C741 C757 1.429 . S
C741 H763 0.950 . S
C742 H738 0.949 . S
C742 C750 1.574 . S
C742 C758 1.368 . S
H743 C751 0.950 . S
H744 C749 0.950 . S
H745 C750 0.949 . S
H746 C752 0.950 . S
H747 C753 0.950 . S
H748 C754 0.949 . S
C749 H744 0.950 . S
C749 C751 1.327 . S
C749 C755 1.429 . S
C750 C742 1.574 . S
C750 H745 0.949 . S
C750 C756 1.368 . S
C751 C735 1.349 . S
C751 H743 0.950 . S
C751 C749 1.327 . S
C752 C740 1.349 . S
C752 H746 0.950 . S
C752 C753 1.327 . S
C753 H747 0.950 . S
C753 C752 1.327 . S
C753 C757 1.429 . S
C754 C737 1.574 . S
C754 H748 0.949 . S
C754 C758 1.368 . S
C755 C736 1.429 . S
C755 C749 1.429 . S
C755 C756 1.523 . S
C756 C737 1.368 . S
C756 C750 1.368 . S
C756 C755 1.523 . S
C757 C741 1.429 . S
C757 C753 1.429 . S
C757 C758 1.523 . S
C758 C742 1.368 . S
C758 C754 1.368 . S
C758 C757 1.523 . S
H759 C734 0.950 . S
H760 C736 0.950 . S
H761 C737 0.949 . S
H762 C739 0.950 . S
H763 C741 0.950 . S
C764 C765 1.349 . S
C764 C766 1.327 . S
C764 H789 0.950 . S
C765 C764 1.349 . S
C765 C781 1.349 . S
C766 C764 1.327 . S
C766 C785 1.429 . S
C766 H790 0.950 . S
C767 C784 1.574 . S
C767 C786 1.368 . S
C767 H791 0.949 . S
H768 C772 0.941 1_556 S
C769 C770 1.349 . S
C769 C771 1.327 . S
C769 H792 0.950 . S
C770 C769 1.349 . S
C770 C782 1.349 . S
C771 C769 1.327 . S
C771 C787 1.429 . S
C771 H793 0.950 . S
C772 H768 0.941 1_554 S
C772 C780 1.574 . S
C772 C788 1.368 . S
H773 C781 0.950 . S
H774 C779 0.950 . S
H775 C780 0.949 . S
H776 C782 0.950 . S
H777 C783 0.950 . S
H778 C784 0.949 . S
C779 H774 0.950 . S
C779 C781 1.327 . S
C779 C785 1.429 . S
C780 C772 1.574 . S
C780 H775 0.949 . S
C780 C786 1.368 . S
C781 C765 1.349 . S
C781 H773 0.950 . S
C781 C779 1.327 . S
C782 C770 1.349 . S
C782 H776 0.950 . S
C782 C783 1.327 . S
C783 H777 0.950 . S
C783 C782 1.327 . S
C783 C787 1.429 . S
C784 C767 1.574 . S
C784 H778 0.949 . S
C784 C788 1.368 . S
C785 C766 1.429 . S
C785 C779 1.429 . S
C785 C786 1.523 . S
C786 C767 1.368 . S
C786 C780 1.368 . S
C786 C785 1.523 . S
C787 C771 1.429 . S
C787 C783 1.429 . S
C787 C788 1.523 1_556 S
C788 C772 1.368 . S
C788 C784 1.368 . S
C788 C787 1.523 1_554 S
H789 C764 0.950 . S
H790 C766 0.950 . S
H791 C767 0.949 . S
H792 C769 0.950 . S
H793 C771 0.950 . S
C794 C795 1.349 . S
C794 C796 1.327 . S
C794 H819 0.950 . S
C795 C794 1.349 . S
C795 C811 1.349 . S
C796 C794 1.327 . S
C796 C815 1.429 . S
C796 H820 0.950 . S
C797 C814 1.574 . S
C797 C816 1.368 . S
C797 H821 0.949 . S
H798 C802 0.949 . S
C799 C800 1.349 . S
C799 C801 1.327 . S
C799 H822 0.950 . S
C800 C799 1.349 . S
C800 C812 1.349 . S
C801 C799 1.327 . S
C801 C817 1.429 . S
C801 H823 0.950 . S
C802 H798 0.949 . S
C802 C810 1.574 . S
C802 C818 1.368 . S
H803 C811 0.950 . S
H804 C809 0.950 . S
H805 C810 0.949 . S
H806 C812 0.950 . S
H807 C813 0.950 . S
H808 C814 0.949 . S
C809 H804 0.950 . S
C809 C811 1.327 . S
C809 C815 1.429 . S
C810 C802 1.574 . S
C810 H805 0.949 . S
C810 C816 1.368 . S
C811 C795 1.349 . S
C811 H803 0.950 . S
C811 C809 1.327 . S
C812 C800 1.349 . S
C812 H806 0.950 . S
C812 C813 1.327 . S
C813 H807 0.950 . S
C813 C812 1.327 . S
C813 C817 1.429 . S
C814 C797 1.574 . S
C814 H808 0.949 . S
C814 C818 1.368 . S
C815 C796 1.429 . S
C815 C809 1.429 . S
C815 C816 1.523 . S
C816 C797 1.368 . S
C816 C810 1.368 . S
C816 C815 1.523 . S
C817 C801 1.429 . S
C817 C813 1.429 . S
C817 C818 1.523 . S
C818 C802 1.368 . S
C818 C814 1.368 . S
C818 C817 1.523 . S
H819 C794 0.950 . S
H820 C796 0.950 . S
H821 C797 0.949 . S
H822 C799 0.950 . S
H823 C801 0.950 . S
C824 C825 1.349 . S
C824 C826 1.327 . S
C824 H849 0.950 . S
C825 C824 1.349 . S
C825 C841 1.349 . S
C826 C824 1.327 . S
C826 C845 1.429 . S
C826 H850 0.950 . S
C827 C844 1.574 . S
C827 C846 1.368 . S
C827 H851 0.949 . S
H828 C832 0.949 . S
C829 C830 1.349 . S
C829 C831 1.327 . S
C829 H852 0.950 . S
C830 C829 1.349 . S
C830 C842 1.349 . S
C831 C829 1.327 . S
C831 C847 1.429 . S
C831 H853 0.950 . S
C832 H828 0.949 . S
C832 C840 1.574 . S
C832 C848 1.368 . S
H833 C841 0.950 . S
H834 C839 0.950 . S
H835 C840 0.949 . S
H836 C842 0.950 . S
H837 C843 0.950 . S
H838 C844 0.949 . S
C839 H834 0.950 . S
C839 C841 1.327 . S
C839 C845 1.429 . S
C840 C832 1.574 . S
C840 H835 0.949 . S
C840 C846 1.368 . S
C841 C825 1.349 . S
C841 H833 0.950 . S
C841 C839 1.327 . S
C842 C830 1.349 . S
C842 H836 0.950 . S
C842 C843 1.327 . S
C843 H837 0.950 . S
C843 C842 1.327 . S
C843 C847 1.429 . S
C844 C827 1.574 . S
C844 H838 0.949 . S
C844 C848 1.368 . S
C845 C826 1.429 . S
C845 C839 1.429 . S
C845 C846 1.523 . S
C846 C827 1.368 . S
C846 C840 1.368 . S
C846 C845 1.523 . S
C847 C831 1.429 . S
C847 C843 1.429 . S
C847 C848 1.523 . S
C848 C832 1.368 . S
C848 C844 1.368 . S
C848 C847 1.523 . S
H849 C824 0.950 . S
H850 C826 0.950 . S
H851 C827 0.949 . S
H852 C829 0.950 . S
H853 C831 0.950 . S
C854 C855 1.349 . S
C854 C856 1.327 . S
C854 H879 0.950 . S
C855 C854 1.349 . S
C855 C871 1.349 . S
C856 C854 1.327 . S
C856 C875 1.429 . S
C856 H880 0.950 . S
C857 C874 1.574 . S
C857 C876 1.368 . S
C857 H881 0.949 . S
H858 C862 0.949 . S
C859 C860 1.349 . S
C859 C861 1.327 . S
C859 H882 0.950 . S
C860 C859 1.349 . S
C860 C872 1.349 . S
C861 C859 1.327 . S
C861 C877 1.429 . S
C861 H883 0.950 . S
C862 H858 0.949 . S
C862 C870 1.574 . S
C862 C878 1.368 . S
H863 C871 0.950 . S
H864 C869 0.950 . S
H865 C870 0.949 . S
H866 C872 0.950 . S
H867 C873 0.950 . S
H868 C874 0.949 1_556 S
C869 H864 0.950 . S
C869 C871 1.327 . S
C869 C875 1.429 . S
C870 C862 1.574 . S
C870 H865 0.949 . S
C870 C876 1.368 . S
C871 C855 1.349 . S
C871 H863 0.950 . S
C871 C869 1.327 . S
C872 C860 1.349 . S
C872 H866 0.950 . S
C872 C873 1.327 . S
C873 H867 0.950 . S
C873 C872 1.327 . S
C873 C877 1.429 . S
C874 C857 1.574 . S
C874 H868 0.949 1_554 S
C874 C878 1.368 . S
C875 C856 1.429 . S
C875 C869 1.429 . S
C875 C876 1.523 . S
C876 C857 1.368 . S
C876 C870 1.368 . S
C876 C875 1.523 . S
C877 C861 1.429 . S
C877 C873 1.429 . S
C877 C878 1.523 1_556 S
C878 C862 1.368 . S
C878 C874 1.368 . S
C878 C877 1.523 1_554 S
H879 C854 0.950 . S
H880 C856 0.950 . S
H881 C857 0.949 . S
H882 C859 0.950 . S
H883 C861 0.950 . S
C884 C885 1.349 . S
C884 C886 1.327 . S
C884 H909 0.950 . S
C885 C884 1.349 . S
C885 C901 1.349 . S
C886 C884 1.327 . S
C886 C905 1.429 . S
C886 H910 0.950 . S
C887 C904 1.574 . S
C887 C906 1.368 . S
C887 H911 0.949 . S
H888 C892 0.949 . S
C889 C890 1.349 . S
C889 C891 1.327 . S
C889 H912 0.950 . S
C890 C889 1.349 . S
C890 C902 1.349 . S
C891 C889 1.327 . S
C891 C907 1.429 . S
C891 H913 0.950 . S
C892 H888 0.949 . S
C892 C900 1.574 . S
C892 C908 1.368 . S
H893 C901 0.950 . S
H894 C899 0.950 . S
H895 C900 0.949 . S
H896 C902 0.950 . S
H897 C903 0.950 . S
H898 C904 0.949 . S
C899 H894 0.950 . S
C899 C901 1.327 . S
C899 C905 1.429 . S
C900 C892 1.574 . S
C900 H895 0.949 . S
C900 C906 1.368 . S
C901 C885 1.349 . S
C901 H893 0.950 . S
C901 C899 1.327 . S
C902 C890 1.349 . S
C902 H896 0.950 . S
C902 C903 1.327 . S
C903 H897 0.950 . S
C903 C902 1.327 . S
C903 C907 1.429 . S
C904 C887 1.574 . S
C904 H898 0.949 . S
C904 C908 1.368 . S
C905 C886 1.429 . S
C905 C899 1.429 . S
C905 C906 1.523 . S
C906 C887 1.368 . S
C906 C900 1.368 . S
C906 C905 1.523 . S
C907 C891 1.429 . S
C907 C903 1.429 . S
C907 C908 1.523 . S
C908 C892 1.368 . S
C908 C904 1.368 . S
C908 C907 1.523 . S
H909 C884 0.950 . S
H910 C886 0.950 . S
H911 C887 0.949 . S
H912 C889 0.950 . S
H913 C891 0.950 . S
C914 C915 1.349 . S
C914 C916 1.327 . S
C914 H939 0.950 . S
C915 C914 1.349 . S
C915 C931 1.349 . S
C916 C914 1.327 . S
C916 C935 1.429 . S
C916 H940 0.950 . S
C917 C934 1.574 . S
C917 C936 1.368 . S
C917 H941 0.949 . S
H918 C922 0.949 . S
C919 C920 1.349 . S
C919 C921 1.327 . S
C919 H942 0.950 . S
C920 C919 1.349 . S
C920 C932 1.349 . S
C921 C919 1.327 . S
C921 C937 1.429 . S
C921 H943 0.950 . S
C922 H918 0.949 . S
C922 C930 1.574 . S
C922 C938 1.368 . S
H923 C931 0.950 . S
H924 C929 0.950 . S
H925 C930 0.949 . S
H926 C932 0.950 . S
H927 C933 0.950 . S
H928 C934 0.949 . S
C929 H924 0.950 . S
C929 C931 1.327 . S
C929 C935 1.429 . S
C930 C922 1.574 . S
C930 H925 0.949 . S
C930 C936 1.368 . S
C931 C915 1.349 . S
C931 H923 0.950 . S
C931 C929 1.327 . S
C932 C920 1.349 . S
C932 H926 0.950 . S
C932 C933 1.327 . S
C933 H927 0.950 . S
C933 C932 1.327 . S
C933 C937 1.429 . S
C934 C917 1.574 . S
C934 H928 0.949 . S
C934 C938 1.368 . S
C935 C916 1.429 . S
C935 C929 1.429 . S
C935 C936 1.523 . S
C936 C917 1.368 . S
C936 C930 1.368 . S
C936 C935 1.523 . S
C937 C921 1.429 . S
C937 C933 1.429 . S
C937 C938 1.523 . S
C938 C922 1.368 . S
C938 C934 1.368 . S
C938 C937 1.523 . S
H939 C914 0.950 . S
H940 C916 0.950 . S
H941 C917 0.949 . S
H942 C919 0.950 . S
H943 C921 0.950 . S
C944 C945 1.349 . S
C944 C946 1.327 . S
C944 H969 0.950 . S
C945 C944 1.349 . S
C945 C961 1.349 . S
C946 C944 1.327 . S
C946 C965 1.429 . S
C946 H970 0.950 . S
C947 C964 1.574 . S
C947 C966 1.368 . S
C947 H971 0.949 1_554 S
H948 C952 0.949 . S
C949 C950 1.349 . S
C949 C951 1.327 . S
C949 H972 0.950 . S
C950 C949 1.349 . S
C950 C962 1.349 . S
C951 C949 1.327 . S
C951 C967 1.429 . S
C951 H973 0.950 . S
C952 H948 0.949 . S
C952 C960 1.574 . S
C952 C968 1.368 . S
H953 C961 0.950 . S
H954 C959 0.950 . S
H955 C960 0.949 . S
H956 C962 0.950 . S
H957 C963 0.950 . S
H958 C964 0.949 . S
C959 H954 0.950 . S
C959 C961 1.327 . S
C959 C965 1.429 . S
C960 C952 1.574 . S
C960 H955 0.949 . S
C960 C966 1.368 . S
C961 C945 1.349 . S
C961 H953 0.950 . S
C961 C959 1.327 . S
C962 C950 1.349 . S
C962 H956 0.950 . S
C962 C963 1.327 . S
C963 H957 0.950 . S
C963 C962 1.327 . S
C963 C967 1.429 . S
C964 C947 1.574 . S
C964 H958 0.949 . S
C964 C968 1.368 . S
C965 C946 1.429 . S
C965 C959 1.429 . S
C965 C966 1.523 1_556 S
C966 C947 1.368 . S
C966 C960 1.368 . S
C966 C965 1.523 1_554 S
C967 C951 1.429 . S
C967 C963 1.429 . S
C967 C968 1.523 . S
C968 C952 1.368 . S
C968 C964 1.368 . S
C968 C967 1.523 . S
H969 C944 0.950 . S
H970 C946 0.950 . S
H971 C947 0.949 1_556 S
H972 C949 0.950 . S
H973 C951 0.950 . S
C974 C975 1.349 . S
C974 C976 1.327 . S
C974 H999 0.950 . S
C975 C974 1.349 . S
C975 C991 1.349 . S
C976 C974 1.327 . S
C976 C995 1.429 . S
C976 H1000 0.950 . S
C977 C994 1.574 . S
C977 C996 1.368 . S
C977 H1001 0.949 . S
H978 C982 0.949 . S
C979 C980 1.349 . S
C979 C981 1.327 . S
C979 H1002 0.950 . S
C980 C979 1.349 . S
C980 C992 1.349 . S
C981 C979 1.327 . S
C981 C997 1.429 . S
C981 H1003 0.950 . S
C982 H978 0.949 . S
C982 C990 1.574 . S
C982 C998 1.368 . S
H983 C991 0.950 . S
H984 C989 0.950 . S
H985 C990 0.949 . S
H986 C992 0.950 . S
H987 C993 0.950 . S
H988 C994 0.949 . S
C989 H984 0.950 . S
C989 C991 1.327 . S
C989 C995 1.429 . S
C990 C982 1.574 . S
C990 H985 0.949 . S
C990 C996 1.368 . S
C991 C975 1.349 . S
C991 H983 0.950 . S
C991 C989 1.327 . S
C992 C980 1.349 . S
C992 H986 0.950 . S
C992 C993 1.327 . S
C993 H987 0.950 . S
C993 C992 1.327 . S
C993 C997 1.429 . S
C994 C977 1.574 . S
C994 H988 0.949 . S
C994 C998 1.368 . S
C995 C976 1.429 . S
C995 C989 1.429 . S
C995 C996 1.523 . S
C996 C977 1.368 . S
C996 C990 1.368 . S
C996 C995 1.523 . S
C997 C981 1.429 . S
C997 C993 1.429 . S
C997 C998 1.523 . S
C998 C982 1.368 . S
C998 C994 1.368 . S
C998 C997 1.523 . S
H999 C974 0.950 . S
H1000 C976 0.950 . S
H1001 C977 0.949 . S
H1002 C979 0.950 . S
H1003 C981 0.950 . S
C1004 C1005 1.349 . S
C1004 C1006 1.327 . S
C1004 H1029 0.950 . S
C1005 C1004 1.349 . S
C1005 C1021 1.349 . S
C1006 C1004 1.327 . S
C1006 C1025 1.429 . S
C1006 H1030 0.950 . S
C1007 C1024 1.574 . S
C1007 C1026 1.368 . S
C1007 H1031 0.949 . S
H1008 C1012 0.949 . S
C1009 C1010 1.349 . S
C1009 C1011 1.327 . S
C1009 H1032 0.950 . S
C1010 C1009 1.349 . S
C1010 C1022 1.349 . S
C1011 C1009 1.327 . S
C1011 C1027 1.429 . S
C1011 H1033 0.950 . S
C1012 H1008 0.949 . S
C1012 C1020 1.574 . S
C1012 C1028 1.368 . S
H1013 C1021 0.950 . S
H1014 C1019 0.950 . S
H1015 C1020 0.949 . S
H1016 C1022 0.950 . S
H1017 C1023 0.950 . S
H1018 C1024 0.949 . S
C1019 H1014 0.950 . S
C1019 C1021 1.327 . S
C1019 C1025 1.429 . S
C1020 C1012 1.574 . S
C1020 H1015 0.949 . S
C1020 C1026 1.368 . S
C1021 C1005 1.349 . S
C1021 H1013 0.950 . S
C1021 C1019 1.327 . S
C1022 C1010 1.349 . S
C1022 H1016 0.950 . S
C1022 C1023 1.327 . S
C1023 H1017 0.950 . S
C1023 C1022 1.327 . S
C1023 C1027 1.429 . S
C1024 C1007 1.574 . S
C1024 H1018 0.949 . S
C1024 C1028 1.368 . S
C1025 C1006 1.429 . S
C1025 C1019 1.429 . S
C1025 C1026 1.523 . S
C1026 C1007 1.368 . S
C1026 C1020 1.368 . S
C1026 C1025 1.523 . S
C1027 C1011 1.429 . S
C1027 C1023 1.429 . S
C1027 C1028 1.523 . S
C1028 C1012 1.368 . S
C1028 C1024 1.368 . S
C1028 C1027 1.523 . S
H1029 C1004 0.950 . S
H1030 C1006 0.950 . S
H1031 C1007 0.949 . S
H1032 C1009 0.950 . S
H1033 C1011 0.950 . S
C1034 C1035 1.349 . S
C1034 C1036 1.327 . S
C1034 H1059 0.950 . S
C1035 C1034 1.349 . S
C1035 C1051 1.349 . S
C1036 C1034 1.327 . S
C1036 C1055 1.429 . S
C1036 H1060 0.950 . S
C1037 C1054 1.574 . S
C1037 C1056 1.368 . S
C1037 H1061 0.949 . S
H1038 C1042 0.949 . S
C1039 C1040 1.349 . S
C1039 C1041 1.327 . S
C1039 H1062 0.950 . S
C1040 C1039 1.349 . S
C1040 C1052 1.349 . S
C1041 C1039 1.327 . S
C1041 C1057 1.429 . S
C1041 H1063 0.950 . S
C1042 H1038 0.949 . S
C1042 C1050 1.574 . S
C1042 C1058 1.368 . S
H1043 C1051 0.950 . S
H1044 C1049 0.950 . S
H1045 C1050 0.949 . S
H1046 C1052 0.950 . S
H1047 C1053 0.950 . S
H1048 C1054 0.949 . S
C1049 H1044 0.950 . S
C1049 C1051 1.327 . S
C1049 C1055 1.429 . S
C1050 C1042 1.574 . S
C1050 H1045 0.949 . S
C1050 C1056 1.368 . S
C1051 C1035 1.349 . S
C1051 H1043 0.950 . S
C1051 C1049 1.327 . S
C1052 C1040 1.349 . S
C1052 H1046 0.950 . S
C1052 C1053 1.327 . S
C1053 H1047 0.950 . S
C1053 C1052 1.327 . S
C1053 C1057 1.429 . S
C1054 C1037 1.574 . S
C1054 H1048 0.949 . S
C1054 C1058 1.368 . S
C1055 C1036 1.429 . S
C1055 C1049 1.429 . S
C1055 C1056 1.523 . S
C1056 C1037 1.368 . S
C1056 C1050 1.368 . S
C1056 C1055 1.523 . S
C1057 C1041 1.429 . S
C1057 C1053 1.429 . S
C1057 C1058 1.523 . S
C1058 C1042 1.368 . S
C1058 C1054 1.368 . S
C1058 C1057 1.523 . S
H1059 C1034 0.950 . S
H1060 C1036 0.950 . S
H1061 C1037 0.949 . S
H1062 C1039 0.950 . S
H1063 C1041 0.950 . S
C1064 C1065 1.349 . S
C1064 C1066 1.327 . S
C1064 H1089 0.950 . S
C1065 C1064 1.349 . S
C1065 C1081 1.349 . S
C1066 C1064 1.327 . S
C1066 C1085 1.429 . S
C1066 H1090 0.950 . S
C1067 C1084 1.574 . S
C1067 C1086 1.368 . S
C1067 H1091 0.949 . S
H1068 C1072 0.949 . S
C1069 C1070 1.349 . S
C1069 C1071 1.327 . S
C1069 H1092 0.950 . S
C1070 C1069 1.349 . S
C1070 C1082 1.349 . S
C1071 C1069 1.327 . S
C1071 C1087 1.429 . S
C1071 H1093 0.950 . S
C1072 H1068 0.949 . S
C1072 C1080 1.574 . S
C1072 C1088 1.368 . S
H1073 C1081 0.950 . S
H1074 C1079 0.950 . S
H1075 C1080 0.949 . S
H1076 C1082 0.950 . S
H1077 C1083 0.950 . S
H1078 C1084 0.949 . S
C1079 H1074 0.950 . S
C1079 C1081 1.327 . S
C1079 C1085 1.429 . S
C1080 C1072 1.574 . S
C1080 H1075 0.949 . S
C1080 C1086 1.368 . S
C1081 C1065 1.349 . S
C1081 H1073 0.950 . S
C1081 C1079 1.327 . S
C1082 C1070 1.349 . S
C1082 H1076 0.950 . S
C1082 C1083 1.327 . S
C1083 H1077 0.950 . S
C1083 C1082 1.327 . S
C1083 C1087 1.429 . S
C1084 C1067 1.574 . S
C1084 H1078 0.949 . S
C1084 C1088 1.368 . S
C1085 C1066 1.429 . S
C1085 C1079 1.429 . S
C1085 C1086 1.523 . S
C1086 C1067 1.368 . S
C1086 C1080 1.368 . S
C1086 C1085 1.523 . S
C1087 C1071 1.429 . S
C1087 C1083 1.429 . S
C1087 C1088 1.523 . S
C1088 C1072 1.368 . S
C1088 C1084 1.368 . S
C1088 C1087 1.523 . S
H1089 C1064 0.950 . S
H1090 C1066 0.950 . S
H1091 C1067 0.949 . S
H1092 C1069 0.950 . S
H1093 C1071 0.950 . S
C1094 C1095 1.349 . S
C1094 C1096 1.327 . S
C1094 H1119 0.950 . S
C1095 C1094 1.349 . S
C1095 C1111 1.349 . S
C1096 C1094 1.327 . S
C1096 C1115 1.429 . S
C1096 H1120 0.950 . S
C1097 C1114 1.574 . S
C1097 C1116 1.368 . S
C1097 H1121 0.949 . S
H1098 C1102 0.949 . S
C1099 C1100 1.349 . S
C1099 C1101 1.327 . S
C1099 H1122 0.950 . S
C1100 C1099 1.349 . S
C1100 C1112 1.349 . S
C1101 C1099 1.327 . S
C1101 C1117 1.429 . S
C1101 H1123 0.950 . S
C1102 H1098 0.949 . S
C1102 C1110 1.574 . S
C1102 C1118 1.368 . S
H1103 C1111 0.950 . S
H1104 C1109 0.950 . S
H1105 C1110 0.949 . S
H1106 C1112 0.950 . S
H1107 C1113 0.950 . S
H1108 C1114 0.949 . S
C1109 H1104 0.950 . S
C1109 C1111 1.327 . S
C1109 C1115 1.429 . S
C1110 C1102 1.574 . S
C1110 H1105 0.949 . S
C1110 C1116 1.368 . S
C1111 C1095 1.349 . S
C1111 H1103 0.950 . S
C1111 C1109 1.327 . S
C1112 C1100 1.349 . S
C1112 H1106 0.950 . S
C1112 C1113 1.327 . S
C1113 H1107 0.950 . S
C1113 C1112 1.327 . S
C1113 C1117 1.429 . S
C1114 C1097 1.574 . S
C1114 H1108 0.949 . S
C1114 C1118 1.368 . S
C1115 C1096 1.429 . S
C1115 C1109 1.429 . S
C1115 C1116 1.523 . S
C1116 C1097 1.368 . S
C1116 C1110 1.368 . S
C1116 C1115 1.523 . S
C1117 C1101 1.429 . S
C1117 C1113 1.429 . S
C1117 C1118 1.523 . S
C1118 C1102 1.368 . S
C1118 C1114 1.368 . S
C1118 C1117 1.523 . S
H1119 C1094 0.950 . S
H1120 C1096 0.950 . S
H1121 C1097 0.949 . S
H1122 C1099 0.950 . S
H1123 C1101 0.950 . S
C1124 C1125 1.349 . S
C1124 C1126 1.327 . S
C1124 H1149 0.950 . S
C1125 C1124 1.349 . S
C1125 C1141 1.349 . S
C1126 C1124 1.327 . S
C1126 C1145 1.429 . S
C1126 H1150 0.950 . S
C1127 C1144 1.574 . S
C1127 C1146 1.368 . S
C1127 H1151 0.949 . S
H1128 C1132 0.949 . S
C1129 C1130 1.349 . S
C1129 C1131 1.327 . S
C1129 H1152 0.950 . S
C1130 C1129 1.349 . S
C1130 C1142 1.349 . S
C1131 C1129 1.327 . S
C1131 C1147 1.429 . S
C1131 H1153 0.950 . S
C1132 H1128 0.949 . S
C1132 C1140 1.574 . S
C1132 C1148 1.368 . S
H1133 C1141 0.950 . S
H1134 C1139 0.950 . S
H1135 C1140 0.949 . S
H1136 C1142 0.950 . S
H1137 C1143 0.950 . S
H1138 C1144 0.949 . S
C1139 H1134 0.950 . S
C1139 C1141 1.327 . S
C1139 C1145 1.429 . S
C1140 C1132 1.574 . S
C1140 H1135 0.949 . S
C1140 C1146 1.368 . S
C1141 C1125 1.349 . S
C1141 H1133 0.950 . S
C1141 C1139 1.327 . S
C1142 C1130 1.349 . S
C1142 H1136 0.950 . S
C1142 C1143 1.327 . S
C1143 H1137 0.950 . S
C1143 C1142 1.327 . S
C1143 C1147 1.429 . S
C1144 C1127 1.574 . S
C1144 H1138 0.949 . S
C1144 C1148 1.368 . S
C1145 C1126 1.429 . S
C1145 C1139 1.429 . S
C1145 C1146 1.523 . S
C1146 C1127 1.368 . S
C1146 C1140 1.368 . S
C1146 C1145 1.523 . S
C1147 C1131 1.429 . S
C1147 C1143 1.429 . S
C1147 C1148 1.523 . S
C1148 C1132 1.368 . S
C1148 C1144 1.368 . S
C1148 C1147 1.523 . S
H1149 C1124 0.950 . S
H1150 C1126 0.950 . S
H1151 C1127 0.949 . S
H1152 C1129 0.950 . S
H1153 C1131 0.950 . S
C1154 C1155 1.349 . S
C1154 C1156 1.327 . S
C1154 H1179 0.950 . S
C1155 C1154 1.349 . S
C1155 C1171 1.349 . S
C1156 C1154 1.327 . S
C1156 C1175 1.429 . S
C1156 H1180 0.950 . S
C1157 C1174 1.574 . S
C1157 C1176 1.368 . S
C1157 H1181 0.949 . S
H1158 C1162 0.954 . S
C1159 C1160 1.349 . S
C1159 C1161 1.327 . S
C1159 H1182 0.950 . S
C1160 C1159 1.349 . S
C1160 C1172 1.349 . S
C1161 C1159 1.327 . S
C1161 C1177 1.429 . S
C1161 H1183 0.950 . S
C1162 H1158 0.954 . S
C1162 C1170 1.574 . S
C1162 C1178 1.368 . S
H1163 C1171 0.950 . S
H1164 C1169 0.950 . S
H1165 C1170 0.949 . S
H1166 C1172 0.950 . S
H1167 C1173 0.950 . S
H1168 C1174 0.949 . S
C1169 H1164 0.950 . S
C1169 C1171 1.327 . S
C1169 C1175 1.429 . S
C1170 C1162 1.574 . S
C1170 H1165 0.949 . S
C1170 C1176 1.368 . S
C1171 C1155 1.349 . S
C1171 H1163 0.950 . S
C1171 C1169 1.327 . S
C1172 C1160 1.349 . S
C1172 H1166 0.950 . S
C1172 C1173 1.327 . S
C1173 H1167 0.950 . S
C1173 C1172 1.327 . S
C1173 C1177 1.429 . S
C1174 C1157 1.574 . S
C1174 H1168 0.949 . S
C1174 C1178 1.368 . S
C1175 C1156 1.429 . S
C1175 C1169 1.429 . S
C1175 C1176 1.523 . S
C1176 C1157 1.368 . S
C1176 C1170 1.368 . S
C1176 C1175 1.523 . S
C1177 C1161 1.429 . S
C1177 C1173 1.429 . S
C1177 C1178 1.523 1_556 S
C1178 C1162 1.368 . S
C1178 C1174 1.368 . S
C1178 C1177 1.523 1_554 S
H1179 C1154 0.950 . S
H1180 C1156 0.950 . S
H1181 C1157 0.949 . S
H1182 C1159 0.950 . S
H1183 C1161 0.950 . S
C225 C97 2.176 . S
C230 C13 2.176 . S
C255 C111 2.175 . S
C260 C27 2.175 . S
C285 C41 2.176 . S
C290 C56 2.178 1_556 S
C315 C55 2.175 . S
C320 C83 2.175 . S
C345 C112 2.178 . S
C350 C197 2.176 1_556 S
C375 C223 2.175 . S
C380 C139 2.175 . S
C405 C141 2.176 . S
C410 C168 2.178 . S
C435 C155 2.175 . S
C440 C182 2.177 . S
C465 C12 2.074 . S
C470 C140 2.074 . S
C495 C26 2.074 . S
C500 C154 2.074 . S
C525 C40 2.074 . S
C530 C113 2.071 . S
C555 C54 2.074 . S
C560 C138 2.074 . S
C585 C57 2.071 . S
C590 C196 2.074 . S
C615 C222 2.074 . S
C620 C82 2.074 . S
C645 C96 2.074 . S
C650 C169 2.071 . S
C675 C183 2.071 . S
C680 C110 2.074 . S
C705 C195 0.457 . S
C710 C0 0.457 . S
C735 C14 0.456 . S
C740 C208 0.456 . S
C765 C210 0.456 . S
C770 C28 0.456 . S
C795 C181 0.457 . S
C800 C42 0.456 . S
C825 C166 0.456 . S
C830 C69 0.457 . S
C855 C70 0.456 . S
C860 C125 0.457 . S
C885 C84 0.456 . S
C890 C126 0.456 . S
C915 C98 0.457 . S
C920 C152 0.457 . S
C945 C194 1.780 . S
C950 C1 1.779 . S
C975 C15 1.779 . S
C980 C209 1.779 . S
C1005 C29 1.779 . S
C1010 C211 1.779 . S
C1035 C180 1.780 . S
C1040 C43 1.779 . S
C1065 C167 1.779 . S
C1070 C68 1.780 . S
C1095 C124 1.780 . S
C1100 C71 1.779 . S
C1125 C85 1.779 . S
C1130 C127 1.779 . S
C1155 C153 1.779 . S
C1160 C99 1.779 . S
