# Generated by pormake.
# Topology mdf, (4)-cn, num edge types: 1
# Building blocks:
#     Node 0, Type 0, BuildingBlock: KUFVIS_clean_sbu_0, # of connection points: 4
#     Node 1, Type 0, BuildingBlock: KUFVIS_clean_sbu_0, # of connection points: 4
#     Node 2, Type 0, BuildingBlock: KUFVIS_clean_sbu_0, # of connection points: 4
#     Node 3, Type 0, BuildingBlock: KUFVIS_clean_sbu_0, # of connection points: 4
#     Node 4, Type 0, BuildingBlock: KUFVIS_clean_sbu_0, # of connection points: 4
#     Node 5, Type 0, BuildingBlock: KUFVIS_clean_sbu_0, # of connection points: 4
#     Node 6, Type 0, BuildingBlock: KUFVIS_clean_sbu_0, # of connection points: 4
#     Node 7, Type 0, BuildingBlock: KUFVIS_clean_sbu_0, # of connection points: 4
#     Edge 8, Type (0, 0), BuildingBlock: FUNLAD_clean_linker_0, # of connection points: 2
#     Edge 9, Type (0, 0), BuildingBlock: FUNLAD_clean_linker_0, # of connection points: 2
#     Edge 10, Type (0, 0), BuildingBlock: FUNLAD_clean_linker_0, # of connection points: 2
#     Edge 11, Type (0, 0), BuildingBlock: FUNLAD_clean_linker_0, # of connection points: 2
#     Edge 12, Type (0, 0), BuildingBlock: FUNLAD_clean_linker_0, # of connection points: 2
#     Edge 13, Type (0, 0), BuildingBlock: FUNLAD_clean_linker_0, # of connection points: 2
#     Edge 14, Type (0, 0), BuildingBlock: FUNLAD_clean_linker_0, # of connection points: 2
#     Edge 15, Type (0, 0), BuildingBlock: FUNLAD_clean_linker_0, # of connection points: 2
#     Edge 16, Type (0, 0), BuildingBlock: FUNLAD_clean_linker_0, # of connection points: 2
#     Edge 17, Type (0, 0), BuildingBlock: FUNLAD_clean_linker_0, # of connection points: 2
#     Edge 18, Type (0, 0), BuildingBlock: FUNLAD_clean_linker_0, # of connection points: 2
#     Edge 19, Type (0, 0), BuildingBlock: FUNLAD_clean_linker_0, # of connection points: 2
#     Edge 20, Type (0, 0), BuildingBlock: FUNLAD_clean_linker_0, # of connection points: 2
#     Edge 21, Type (0, 0), BuildingBlock: FUNLAD_clean_linker_0, # of connection points: 2
#     Edge 22, Type (0, 0), BuildingBlock: FUNLAD_clean_linker_0, # of connection points: 2
#     Edge 23, Type (0, 0), BuildingBlock: FUNLAD_clean_linker_0, # of connection points: 2
# Relax obj value: 0.028
# Max RMSD: 0.051
# Mean RMSD: 0.051
data_MOF--net-mdf--node1-KUFVIS_clean_sbu_0--edge1-FUNLAD_clean_linker_0
_symmetry_space_group_name_H-M    P1
_symmetry_Int_Tables_number       1
_symmetry_cell_setting            triclinic
loop_
_symmetry_equiv_pos_as_xyz
'x, y, z'
_cell_length_a     43.5508
_cell_length_b     43.571173
_cell_length_c     14.277152
_cell_angle_alpha  90.008438
_cell_angle_beta   90.060614
_cell_angle_gamma 92.85497
loop_
_atom_site_label
_atom_site_type_symbol
_atom_site_fract_x
_atom_site_fract_y
_atom_site_fract_z
_atom_type_partial_charge
Mn0 Mn 0.24233 0.5283 0.40239 0.0
Mn1 Mn 0.25224 0.49089 0.19769 0.0
C2 C 0.20942 0.48718 0.36023 0.0
C3 C 0.2203 0.56724 0.48869 0.0
C4 C 0.293 0.48341 0.36841 0.0
O5 O 0.26984 0.55864 0.32719 0.0
O6 O 0.27058 0.53322 0.18929 0.0
C7 C 0.21325 0.52711 0.07353 0.0
N8 N 0.22072 0.49955 0.10975 0.0
C9 C 0.1827 0.47251 0.01417 0.0
C10 C 0.17493 0.50057 0.97478 0.0
C11 C 0.19015 0.528 0.00503 0.0
C12 C 0.20595 0.47306 0.08204 0.0
H13 H 0.22476 0.54824 0.09706 0.0
C14 C 0.27693 0.55685 0.24046 0.0
O15 O 0.24516 0.55478 0.51695 0.0
O16 O 0.20909 0.558 0.40877 0.0
N17 N 0.23496 0.44963 0.19612 0.0
C18 C 0.24329 0.42492 0.24699 0.0
C19 C 0.22899 0.3959 0.22922 0.0
C20 C 0.20655 0.39252 0.15872 0.0
C21 C 0.19852 0.41825 0.10685 0.0
C22 C 0.21354 0.44659 0.12773 0.0
H23 H 0.26064 0.42733 0.3009 0.0
O24 O 0.2122 0.49512 0.44757 0.0
O25 O 0.22608 0.50317 0.30109 0.0
O26 O 0.27849 0.50055 0.42377 0.0
O27 O 0.28562 0.47948 0.28254 0.0
C28 C 0.17574 0.417 0.03659 0.0
C29 C 0.16778 0.44412 0.99047 0.0
H30 H 0.15703 0.50137 0.92224 0.0
H31 H 0.18406 0.54978 0.97565 0.0
H32 H 0.23526 0.37617 0.26971 0.0
H33 H 0.19544 0.37013 0.1456 0.0
H34 H 0.16375 0.39539 0.01887 0.0
H35 H 0.14976 0.44296 0.93805 0.0
Mn36 Mn 0.47812 0.75797 0.60615 0.0
Mn37 Mn 0.51663 0.7508 0.81014 0.0
C38 C 0.51738 0.79329 0.64635 0.0
C39 C 0.43687 0.77767 0.52336 0.0
C40 C 0.5254 0.70961 0.64095 0.0
O41 O 0.44979 0.72888 0.6829 0.0
O42 O 0.47522 0.73043 0.8209 0.0
C43 C 0.47919 0.78775 0.93636 0.0
N44 N 0.50685 0.78213 0.89724 0.0
C45 C 0.53242 0.82218 0.98863 0.0
C46 C 0.50422 0.82833 0.03019 0.0
C47 C 0.47748 0.81111 0.00368 0.0
C48 C 0.53271 0.79862 0.92201 0.0
H49 H 0.45861 0.77448 0.9164 0.0
C50 C 0.45196 0.72233 0.76999 0.0
O51 O 0.45095 0.75406 0.49268 0.0
O52 O 0.44619 0.78907 0.60286 0.0
N53 N 0.55707 0.77014 0.80871 0.0
C54 C 0.58193 0.76286 0.75688 0.0
C55 C 0.61027 0.77895 0.77162 0.0
C56 C 0.61283 0.8021 0.8401 0.0
C57 C 0.58697 0.80902 0.89303 0.0
C58 C 0.55932 0.79226 0.87512 0.0
H59 H 0.58013 0.74498 0.70452 0.0
O60 O 0.50922 0.78993 0.55935 0.0
O61 O 0.50266 0.77576 0.7062 0.0
O62 O 0.50805 0.72339 0.58404 0.0
O63 O 0.529 0.71764 0.7264 0.0
C64 C 0.5874 0.83231 0.96159 0.0
C65 C 0.56014 0.83893 0.00923 0.0
H66 H 0.50278 0.8464 0.08191 0.0
H67 H 0.45561 0.8158 0.03521 0.0
H68 H 0.63011 0.77352 0.73034 0.0
H69 H 0.63469 0.81458 0.85089 0.0
H70 H 0.60845 0.84566 0.97695 0.0
H71 H 0.56064 0.85727 0.0605 0.0
Mn72 Mn 0.26175 0.97823 0.92715 0.0
Mn73 Mn 0.25324 0.02065 0.73131 0.0
C74 C 0.29578 0.01945 0.89527 0.0
C75 C 0.2824 0.93617 1.0032 0.0
C76 C 0.21243 0.02543 0.90286 0.0
O77 O 0.2336 0.95057 0.84549 0.0
O78 O 0.23304 0.97927 0.71404 0.0
C79 C 0.29003 0.98586 0.5974 0.0
N80 N 0.28425 0.01272 0.64121 0.0
C81 C 0.32314 0.04042 0.55087 0.0
C82 C 0.32946 0.01307 0.50452 0.0
C83 C 0.31292 0.98565 0.52821 0.0
C84 C 0.30015 0.03919 0.61941 0.0
H85 H 0.2772 0.96479 0.61495 0.0
C86 C 0.22601 0.95465 0.76 0.0
O87 O 0.25824 0.94896 0.03532 0.0
O88 O 0.29392 0.94726 0.92589 0.0
N89 N 0.27213 0.06118 0.73839 0.0
C90 C 0.26487 0.085 0.79471 0.0
C91 C 0.28039 0.11379 0.78324 0.0
C92 C 0.30282 0.1179 0.71313 0.0
C93 C 0.30969 0.09309 0.65553 0.0
C94 C 0.29367 0.06489 0.67075 0.0
H95 H 0.24746 0.08204 0.84818 0.0
O96 O 0.29248 0.00929 0.98029 0.0
O97 O 0.27904 0.00535 0.83182 0.0
O98 O 0.22616 0.00649 0.95464 0.0
O99 O 0.22043 0.03133 0.81857 0.0
C100 C 0.33208 0.09514 0.58443 0.0
C101 C 0.33896 0.06878 0.53255 0.0
H102 H 0.34708 0.01281 0.45108 0.0
H103 H 0.31772 0.96444 0.49291 0.0
H104 H 0.27498 0.1328 0.82808 0.0
H105 H 0.31478 0.14012 0.70457 0.0
H106 H 0.34459 0.11675 0.57033 0.0
H107 H 0.35672 0.07052 0.47948 0.0
Mn108 Mn 0.03363 0.74508 0.11345 0.0
Mn109 Mn 0.99358 0.75213 0.31489 0.0
C110 C 0.99367 0.71009 0.14974 0.0
C111 C 0.07459 0.72601 0.02904 0.0
C112 C 0.98486 0.7925 0.1447 0.0
O113 O 0.06197 0.77358 0.19206 0.0
O114 O 0.0343 0.77415 0.32538 0.0
C115 C 0.03259 0.71703 0.44195 0.0
N116 N 0.00459 0.72167 0.40336 0.0
C117 C 0.98048 0.68142 0.49712 0.0
C118 C 0.00904 0.67629 0.53819 0.0
C119 C 0.03522 0.6941 0.5102 0.0
C120 C 0.97928 0.70457 0.42941 0.0
H121 H 0.05274 0.73077 0.4209 0.0
C122 C 0.05833 0.78163 0.2773 0.0
O123 O 0.06092 0.75024 1.00151 0.0
O124 O 0.06522 0.71357 0.10713 0.0
N125 N 0.9537 0.73161 0.31522 0.0
C126 C 0.92831 0.73816 0.26457 0.0
C127 C 0.90035 0.72166 0.28165 0.0
C128 C 0.89869 0.69889 0.35139 0.0
C129 C 0.92505 0.6928 0.40331 0.0
C130 C 0.95227 0.70998 0.38315 0.0
H131 H 0.9294 0.75577 0.21132 0.0
O132 O 1.0024 0.7139 0.06345 0.0
O133 O 0.00832 0.72692 0.21189 0.0
O134 O 0.00418 0.77987 0.0917 0.0
O135 O 0.97984 0.78415 0.22919 0.0
C136 C 0.92554 0.66992 0.47297 0.0
C137 C 0.95325 0.66416 0.51962 0.0
H138 H 0.01117 0.65859 0.59075 0.0
H139 H 0.05735 0.6902 0.54136 0.0
H140 H 0.88012 0.72648 0.24122 0.0
H141 H 0.87714 0.68606 0.36393 0.0
H142 H 0.90484 0.65624 0.49004 0.0
H143 H 0.95344 0.64615 0.57188 0.0
Mn144 Mn 0.74888 0.02812 0.90756 0.0
Mn145 Mn 0.75253 0.98439 0.71188 0.0
C146 C 0.71179 0.98951 0.8775 0.0
C147 C 0.73211 0.07044 0.99117 0.0
C148 C 0.79352 0.9763 0.88058 0.0
O149 O 0.77758 0.05434 0.82311 0.0
O150 O 0.77724 0.02328 0.6963 0.0
C151 C 0.71995 0.02415 0.58056 0.0
N152 N 0.7227 0.99636 0.62259 0.0
C153 C 0.68079 0.97377 0.53196 0.0
C154 C 0.67757 0.00212 0.48743 0.0
C155 C 0.69715 0.02744 0.51214 0.0
C156 C 0.70383 0.97191 0.59985 0.0
H157 H 0.73508 0.04361 0.59896 0.0
C158 C 0.7857 0.04805 0.73941 0.0
O159 O 0.75604 0.056 0.01713 0.0
O160 O 0.71885 0.06129 0.9139 0.0
N161 N 0.72931 0.94597 0.71674 0.0
C162 C 0.73434 0.92075 0.76998 0.0
C163 C 0.71603 0.89367 0.7561 0.0
C164 C 0.69309 0.89266 0.68675 0.0
C165 C 0.68861 0.91878 0.63205 0.0
C166 C 0.70749 0.94514 0.64926 0.0
H167 H 0.75213 0.92133 0.82277 0.0
O168 O 0.71686 0.99882 0.96273 0.0
O169 O 0.72887 0.00248 0.81301 0.0
O170 O 0.78269 0.9976 0.93015 0.0
O171 O 0.78378 0.96963 0.79845 0.0
C172 C 0.66581 0.91988 0.56219 0.0
C173 C 0.6618 0.9474 0.51251 0.0
H174 H 0.66003 0.00476 0.43459 0.0
H175 H 0.69476 0.04941 0.47825 0.0
H176 H 0.71963 0.87361 0.79861 0.0
H177 H 0.6789 0.87178 0.67659 0.0
H178 H 0.65087 0.89985 0.54727 0.0
H179 H 0.64383 0.9481 0.46013 0.0
Mn180 Mn 0.97111 0.25743 0.09592 0.0
Mn181 Mn 0.01095 0.25444 0.29917 0.0
C182 C 0.0121 0.29214 0.12515 0.0
C183 C 0.93061 0.27588 0.00683 0.0
C184 C 0.01725 0.20864 0.14032 0.0
O185 O 0.9421 0.2318 0.18152 0.0
O186 O 0.96888 0.23632 0.31695 0.0
C187 C 0.97586 0.29717 0.41398 0.0
N188 N 0.00308 0.28857 0.37808 0.0
C189 C 0.03104 0.32916 0.46093 0.0
C190 C 0.00336 0.33813 0.50006 0.0
C191 C 0.97563 0.3222 0.47592 0.0
C192 C 0.02982 0.30408 0.3995 0.0
H193 H 0.95451 0.28511 0.39509 0.0
C194 C 0.94482 0.22795 0.27003 0.0
O195 O 0.94366 0.25073 0.98462 0.0
O196 O 0.94027 0.2896 0.08273 0.0
N197 N 0.05212 0.27184 0.2919 0.0
C198 C 0.07636 0.26195 0.24187 0.0
C199 C 0.10557 0.27657 0.25378 0.0
C200 C 0.10965 0.30091 0.31784 0.0
C201 C 0.08441 0.31053 0.36905 0.0
C202 C 0.05583 0.29516 0.354 0.0
H203 H 0.07344 0.24308 0.19317 0.0
O204 O 0.00319 0.28671 0.0397 0.0
O205 O 0.99707 0.27706 0.18994 0.0
O206 O 0.99952 0.22136 0.08228 0.0
O207 O 0.02171 0.21851 0.22368 0.0
C208 C 0.08638 0.33513 0.43318 0.0
C209 C 0.05969 0.34454 0.47876 0.0
H210 H 0.00308 0.35748 0.54767 0.0
H211 H 0.95413 0.32921 0.50501 0.0
H212 H 0.12492 0.26904 0.21388 0.0
H213 H 0.13219 0.31222 0.32655 0.0
H214 H 0.10819 0.34743 0.44636 0.0
H215 H 0.06138 0.36395 0.52622 0.0
Mn216 Mn 0.75676 0.47653 0.3991 0.0
Mn217 Mn 0.75484 0.51134 0.18737 0.0
C218 C 0.79312 0.51516 0.36113 0.0
C219 C 0.77368 0.43715 0.49568 0.0
C220 C 0.71027 0.52399 0.34515 0.0
O221 O 0.72924 0.44685 0.32107 0.0
O222 O 0.73417 0.46995 0.17992 0.0
C223 C 0.79444 0.47086 0.07932 0.0
N224 N 0.78792 0.49943 0.10979 0.0
C225 C 0.82991 0.52271 0.02124 0.0
C226 C 0.83687 0.49356 0.98806 0.0
C227 C 0.81915 0.46752 0.01761 0.0
C228 C 0.80499 0.52461 0.0825 0.0
H229 H 0.78092 0.45081 0.10207 0.0
C230 C 0.7247 0.44763 0.23252 0.0
O231 O 0.74941 0.45195 0.51618 0.0
O232 O 0.78737 0.44448 0.41764 0.0
N233 N 0.7745 0.5516 0.18425 0.0
C234 C 0.76621 0.57768 0.22824 0.0
C235 C 0.78258 0.60561 0.20983 0.0
C236 C 0.80701 0.60652 0.14558 0.0
C237 C 0.81493 0.57944 0.1005 0.0
C238 C 0.79781 0.55228 0.12169 0.0
H239 H 0.74732 0.57717 0.27718 0.0
O240 O 0.78756 0.50838 0.44815 0.0
O241 O 0.77732 0.49929 0.29935 0.0
O242 O 0.72221 0.50707 0.40706 0.0
O243 O 0.72012 0.52596 0.26106 0.0
C244 C 0.83954 0.57821 0.03685 0.0
C245 C 0.84709 0.54985 0.99746 0.0
H246 H 0.85597 0.49088 0.9407 0.0
H247 H 0.82451 0.44493 0.99282 0.0
H248 H 0.77635 0.6264 0.245 0.0
H249 H 0.81971 0.62807 0.13201 0.0
H250 H 0.8532 0.59885 0.01912 0.0
H251 H 0.86644 0.54912 0.95004 0.0
Mn252 Mn 0.52819 0.2456 0.58041 0.0
Mn253 Mn 0.48818 0.25024 0.78282 0.0
C254 C 0.48814 0.21023 0.61293 0.0
C255 C 0.56893 0.22795 0.49138 0.0
C256 C 0.47935 0.29257 0.61736 0.0
O257 O 0.55663 0.2731 0.66179 0.0
O258 O 0.52881 0.27235 0.79494 0.0
C259 C 0.52751 0.21431 0.9066 0.0
N260 N 0.49945 0.21914 0.86871 0.0
C261 C 0.47528 0.17922 0.96353 0.0
C262 C 0.5039 0.17386 0.00385 0.0
C263 C 0.53016 0.19137 0.97486 0.0
C264 C 0.47411 0.2022 0.89534 0.0
H265 H 0.54768 0.22795 0.8852 0.0
C266 C 0.55292 0.28025 0.74778 0.0
O267 O 0.55484 0.25236 0.46803 0.0
O268 O 0.56012 0.21441 0.56849 0.0
N269 N 0.4484 0.22953 0.78211 0.0
C270 C 0.423 0.23611 0.73158 0.0
C271 C 0.39503 0.21965 0.74895 0.0
C272 C 0.39333 0.1971 0.81934 0.0
C273 C 0.41971 0.19102 0.87117 0.0
C274 C 0.44702 0.20784 0.84984 0.0
H275 H 0.4241 0.25371 0.67828 0.0
O276 O 0.49692 0.21524 0.52721 0.0
O277 O 0.50292 0.22603 0.6773 0.0
O278 O 0.49881 0.28065 0.56337 0.0
O279 O 0.47407 0.28308 0.70058 0.0
C280 C 0.42007 0.16871 0.94251 0.0
C281 C 0.44788 0.16258 0.98799 0.0
H282 H 0.50601 0.15628 0.05679 0.0
H283 H 0.55233 0.18735 0.00554 0.0
H284 H 0.37478 0.22448 0.70861 0.0
H285 H 0.37171 0.18448 0.83262 0.0
H286 H 0.39917 0.15573 0.96177 0.0
H287 H 0.44798 0.14488 0.04123 0.0
C288 C 0.42646 0.70204 0.9153 0.0
C289 C 0.42629 0.70501 0.81711 0.0
C290 C 0.40298 0.68529 0.96134 0.0
C291 C 0.37856 0.67115 0.91041 0.0
C292 C 0.37821 0.6742 0.8124 0.0
C293 C 0.40173 0.69116 0.7661 0.0
C294 C 0.35473 0.65095 0.95656 0.0
C295 C 0.34694 0.65344 0.0477 0.0
C296 C 0.32642 0.63047 0.0971 0.0
C297 C 0.32809 0.6283 0.19532 0.0
C298 C 0.3113 0.605 0.24334 0.0
C299 C 0.29274 0.58338 0.19357 0.0
H300 H 0.30287 0.61156 0.97367 0.0
C301 C 0.28993 0.58655 0.09601 0.0
C302 C 0.3062 0.60997 0.04849 0.0
H303 H 0.27526 0.5707 0.05563 0.0
H304 H 0.44496 0.71239 0.95719 0.0
H305 H 0.40477 0.68267 0.03645 0.0
H306 H 0.3598 0.66321 0.77146 0.0
H307 H 0.4009 0.69298 0.69049 0.0
H308 H 0.34436 0.63272 0.91359 0.0
H309 H 0.35732 0.67197 0.08966 0.0
H310 H 0.34318 0.64405 0.23475 0.0
H311 H 0.31372 0.60327 0.31865 0.0
C312 C 0.40594 0.78361 0.37563 0.0
C313 C 0.41261 0.79239 0.46852 0.0
C314 C 0.38482 0.79953 0.32217 0.0
C315 C 0.36995 0.82465 0.36066 0.0
C316 C 0.37583 0.83252 0.45459 0.0
C317 C 0.39697 0.81676 0.50764 0.0
C318 C 0.34843 0.8435 0.30611 0.0
C319 C 0.34849 0.84575 0.21176 0.0
C320 C 0.32966 0.86759 0.15829 0.0
C321 C 0.33935 0.87654 0.06809 0.0
C322 C 0.32358 0.89822 0.01712 0.0
C323 C 0.29745 0.91136 0.05467 0.0
H324 H 0.29385 0.87296 0.26243 0.0
C325 C 0.28694 0.9016 0.1434 0.0
C326 C 0.3028 0.87991 0.19463 0.0
H327 H 0.26674 0.91107 0.17404 0.0
H328 H 0.41746 0.76481 0.34358 0.0
H329 H 0.38031 0.79204 0.25105 0.0
H330 H 0.36458 0.85149 0.48667 0.0
H331 H 0.40139 0.82406 0.57913 0.0
H332 H 0.33384 0.85807 0.34635 0.0
H333 H 0.36485 0.83307 0.17185 0.0
H334 H 0.35971 0.8673 0.03764 0.0
H335 H 0.33224 0.90506 0.94877 0.0
C336 C 0.07932 0.8083 0.42019 0.0
C337 C 0.083 0.80027 0.32552 0.0
C338 C 0.10192 0.82603 0.4671 0.0
C339 C 0.12911 0.83603 0.42099 0.0
C340 C 0.1329 0.82809 0.3264 0.0
C341 C 0.11015 0.81025 0.27912 0.0
C342 C 0.15257 0.85674 0.46764 0.0
C343 C 0.15556 0.85885 0.56157 0.0
C344 C 0.17529 0.88284 0.60951 0.0
C345 C 0.18313 0.87874 0.70407 0.0
C346 C 0.19972 0.90186 0.75339 0.0
C347 C 0.20861 0.92971 0.70915 0.0
H348 H 0.1779 0.91537 0.49374 0.0
C349 C 0.20082 0.9337 0.61438 0.0
C350 C 0.18429 0.91068 0.56533 0.0
H351 H 0.20717 0.95483 0.57773 0.0
H352 H 0.05871 0.80121 0.4585 0.0
H353 H 0.09741 0.83253 0.53869 0.0
H354 H 0.15344 0.83585 0.28881 0.0
H355 H 0.11374 0.80452 0.20626 0.0
H356 H 0.16755 0.87082 0.42254 0.0
H357 H 0.14279 0.84258 0.60611 0.0
H358 H 0.17616 0.85767 0.7402 0.0
H359 H 0.20534 0.89797 0.82621 0.0
C360 C 0.10304 0.68023 0.98013 0.0
C361 C 0.09802 0.71169 0.9705 0.0
C362 C 0.12303 0.66579 0.91961 0.0
C363 C 0.13891 0.68266 0.84936 0.0
C364 C 0.13496 0.71436 0.84224 0.0
C365 C 0.1143 0.72868 0.90128 0.0
C366 C 0.15938 0.66734 0.78266 0.0
C367 C 0.15061 0.64051 0.74148 0.0
C368 C 0.16974 0.62457 0.67256 0.0
C369 C 0.15517 0.60905 0.59739 0.0
C370 C 0.17199 0.59168 0.53528 0.0
C371 C 0.20366 0.58864 0.54864 0.0
H372 H 0.21341 0.63384 0.74265 0.0
C373 C 0.21842 0.60441 0.62341 0.0
C374 C 0.20166 0.62252 0.68432 0.0
H375 H 0.24278 0.60237 0.63563 0.0
H376 H 0.09079 0.66651 0.03266 0.0
H377 H 0.12606 0.64141 0.92771 0.0
H378 H 0.14712 0.72786 0.78901 0.0
H379 H 0.11096 0.75298 0.89247 0.0
H380 H 0.18087 0.67923 0.76239 0.0
H381 H 0.12765 0.63054 0.75497 0.0
H382 H 0.13058 0.61012 0.58722 0.0
H383 H 0.15988 0.57962 0.47889 0.0
C384 C 0.80247 0.10242 0.6991 0.0
C385 C 0.80445 0.07073 0.68459 0.0
C386 C 0.81677 0.12347 0.63681 0.0
C387 C 0.83363 0.11305 0.55964 0.0
C388 C 0.83625 0.08137 0.54755 0.0
C389 C 0.82189 0.0605 0.60906 0.0
C390 C 0.84881 0.13387 0.48932 0.0
C391 C 0.85425 0.16424 0.50147 0.0
C392 C 0.87444 0.18263 0.43704 0.0
C393 C 0.89433 0.20544 0.47563 0.0
C394 C 0.91659 0.22052 0.42029 0.0
C395 C 0.91902 0.21368 0.32431 0.0
H396 H 0.86 0.15979 0.30782 0.0
C397 C 0.89774 0.19234 0.2839 0.0
C398 C 0.87567 0.17674 0.34003 0.0
H399 H 0.89891 0.18683 0.21004 0.0
H400 H 0.78878 0.11091 0.75593 0.0
H401 H 0.81369 0.14763 0.64833 0.0
H402 H 0.8492 0.07261 0.48942 0.0
H403 H 0.82395 0.03618 0.59614 0.0
H404 H 0.85814 0.12312 0.42755 0.0
H405 H 0.84741 0.17521 0.56582 0.0
H406 H 0.89365 0.2106 0.54985 0.0
H407 H 0.93237 0.23713 0.45359 0.0
C408 C 0.89449 0.3174 0.96927 0.0
C409 C 0.90762 0.28968 0.94465 0.0
C410 C 0.87518 0.33209 0.90679 0.0
C411 C 0.86844 0.31932 0.81798 0.0
C412 C 0.88109 0.29128 0.79439 0.0
C413 C 0.9003 0.27655 0.857 0.0
C414 C 0.85046 0.33557 0.74559 0.0
C415 C 0.83089 0.35784 0.7649 0.0
C416 C 0.81504 0.37582 0.69165 0.0
C417 C 0.7886 0.39125 0.71611 0.0
C418 C 0.77445 0.41028 0.65158 0.0
C419 C 0.78665 0.41462 0.56115 0.0
H420 H 0.84761 0.36902 0.57898 0.0
C421 C 0.81279 0.39883 0.53603 0.0
C422 C 0.82685 0.37971 0.60034 0.0
H423 H 0.82294 0.40183 0.46719 0.0
H424 H 0.89982 0.32827 0.03597 0.0
H425 H 0.86666 0.35399 0.9273 0.0
H426 H 0.87654 0.28093 0.72644 0.0
H427 H 0.91011 0.2553 0.8355 0.0
H428 H 0.85338 0.32847 0.6734 0.0
H429 H 0.82578 0.36306 0.83739 0.0
H430 H 0.77908 0.38895 0.78598 0.0
H431 H 0.75446 0.42222 0.67349 0.0
C432 C 0.71218 0.41706 0.0889 0.0
C433 C 0.70801 0.42154 0.18551 0.0
C434 C 0.69525 0.39408 0.04105 0.0
C435 C 0.67311 0.3753 0.08824 0.0
C436 C 0.66993 0.37879 0.18572 0.0
C437 C 0.68728 0.40166 0.2341 0.0
C438 C 0.65247 0.3525 0.03813 0.0
C439 C 0.64662 0.35379 0.94527 0.0
C440 C 0.62344 0.33327 0.89678 0.0
C441 C 0.62573 0.32907 0.79942 0.0
C442 C 0.60316 0.31154 0.7505 0.0
C443 C 0.57761 0.2982 0.79803 0.0
H444 H 0.59472 0.32314 0.01854 0.0
C445 C 0.57548 0.30235 0.89559 0.0
C446 C 0.598 0.3197 0.94427 0.0
H447 H 0.55616 0.29244 0.93486 0.0
H448 H 0.72851 0.43149 0.04954 0.0
H449 H 0.69969 0.39141 0.96712 0.0
H450 H 0.65335 0.36437 0.2242 0.0
H451 H 0.68371 0.40441 0.30864 0.0
H452 H 0.64066 0.33495 0.08057 0.0
H453 H 0.65844 0.37107 0.90207 0.0
H454 H 0.64495 0.33955 0.76095 0.0
H455 H 0.60553 0.30884 0.67548 0.0
C456 C 0.69155 0.10791 0.02545 0.0
C457 C 0.71864 0.09393 0.052 0.0
C458 C 0.6767 0.12712 0.08769 0.0
C459 C 0.68868 0.1329 0.1781 0.0
C460 C 0.71621 0.11955 0.20342 0.0
C461 C 0.7311 0.10044 0.1411 0.0
C462 C 0.67201 0.15051 0.25018 0.0
C463 C 0.65062 0.17089 0.22986 0.0
C464 C 0.63213 0.18653 0.30204 0.0
C465 C 0.61803 0.21373 0.27776 0.0
C466 C 0.59846 0.22781 0.34055 0.0
C467 C 0.59219 0.2148 0.42902 0.0
H468 H 0.63608 0.15254 0.41248 0.0
C469 C 0.60669 0.18789 0.45425 0.0
C470 C 0.6264 0.17388 0.39157 0.0
H471 H 0.60218 0.17714 0.52158 0.0
H472 H 0.68119 0.10318 0.95763 0.0
H473 H 0.65519 0.13625 0.06579 0.0
H474 H 0.72594 0.12339 0.27256 0.0
H475 H 0.75185 0.08996 0.16409 0.0
H476 H 0.67801 0.14663 0.3229 0.0
H477 H 0.64659 0.1769 0.15725 0.0
H478 H 0.62179 0.22392 0.20924 0.0
H479 H 0.58758 0.24844 0.31859 0.0
C480 C 0.33298 0.44441 0.34775 0.0
C481 C 0.31858 0.46554 0.40568 0.0
C482 C 0.35531 0.42565 0.38341 0.0
C483 C 0.3642 0.42768 0.47814 0.0
C484 C 0.35024 0.44917 0.53565 0.0
C485 C 0.32775 0.46792 0.49997 0.0
C486 C 0.38614 0.40641 0.52097 0.0
C487 C 0.40542 0.38931 0.47122 0.0
C488 C 0.42513 0.36578 0.51297 0.0
C489 C 0.44919 0.35461 0.45912 0.0
C490 C 0.46706 0.33118 0.49304 0.0
C491 C 0.46125 0.31822 0.58183 0.0
H492 H 0.4006 0.3599 0.64508 0.0
C493 C 0.4373 0.32953 0.63602 0.0
C494 C 0.41939 0.35285 0.60202 0.0
H495 H 0.43189 0.31997 0.70441 0.0
H496 H 0.32642 0.44166 0.27491 0.0
H497 H 0.3646 0.40895 0.33671 0.0
H498 H 0.35639 0.45117 0.60903 0.0
H499 H 0.31717 0.48383 0.54683 0.0
H500 H 0.38626 0.40505 0.59683 0.0
H501 H 0.40725 0.39262 0.39612 0.0
H502 H 0.45404 0.36386 0.38996 0.0
H503 H 0.48526 0.32308 0.44921 0.0
C504 C 0.67554 0.94389 0.89948 0.0
C505 C 0.68355 0.97154 0.85362 0.0
C506 C 0.65032 0.92556 0.86816 0.0
C507 C 0.63274 0.93504 0.79151 0.0
C508 C 0.6395 0.96381 0.75089 0.0
C509 C 0.66449 0.98213 0.7826 0.0
C510 C 0.60979 0.91393 0.74589 0.0
C511 C 0.59164 0.89402 0.79431 0.0
C512 C 0.57152 0.87063 0.74712 0.0
C513 C 0.54196 0.86407 0.78224 0.0
C514 C 0.52394 0.83954 0.74606 0.0
C515 C 0.53568 0.82062 0.6766 0.0
H516 H 0.60536 0.85762 0.64478 0.0
C517 C 0.56449 0.8282 0.63712 0.0
C518 C 0.58245 0.85306 0.67254 0.0
H519 H 0.5736 0.81414 0.58215 0.0
H520 H 0.68975 0.9357 0.95562 0.0
H521 H 0.64577 0.90327 0.90018 0.0
H522 H 0.62614 0.97161 0.69223 0.0
H523 H 0.66976 0.00401 0.74872 0.0
H524 H 0.60778 0.91481 0.67004 0.0
H525 H 0.5912 0.89508 0.87036 0.0
H526 H 0.53308 0.87749 0.83913 0.0
H527 H 0.50121 0.83465 0.77481 0.0
C528 C 0.05721 0.16994 0.16863 0.0
C529 C 0.03523 0.1823 0.10884 0.0
C530 C 0.07613 0.14701 0.1374 0.0
C531 C 0.07344 0.13552 0.04539 0.0
C532 C 0.05094 0.14734 0.98649 0.0
C533 C 0.03207 0.17039 0.01765 0.0
C534 C 0.09488 0.1131 0.00567 0.0
C535 C 0.11491 0.09709 0.05647 0.0
C536 C 0.13853 0.07755 0.01412 0.0
C537 C 0.15255 0.05558 0.06995 0.0
C538 C 0.17616 0.03819 0.03413 0.0
C539 C 0.18647 0.04254 0.94154 0.0
H540 H 0.13966 0.09905 0.87648 0.0
C541 C 0.17229 0.06444 0.88571 0.0
C542 C 0.14884 0.08176 0.92142 0.0
H543 H 0.17968 0.06876 0.8143 0.0
H544 H 0.06052 0.17858 0.23925 0.0
H545 H 0.09339 0.1393 0.18514 0.0
H546 H 0.04831 0.13914 0.91513 0.0
H547 H 0.01546 0.17927 0.96948 0.0
H548 H 0.09404 0.10994 0.93033 0.0
H549 H 0.11424 0.09806 0.1323 0.0
H550 H 0.14539 0.052 0.14194 0.0
H551 H 0.18655 0.02166 0.07938 0.0
C552 C 0.94535 0.67738 0.13123 0.0
C553 C 0.97358 0.68353 0.17635 0.0
C554 C 0.9255 0.65334 0.16276 0.0
C555 C 0.93393 0.63515 0.23914 0.0
C556 C 0.96301 0.64014 0.2798 0.0
C557 C 0.98292 0.66385 0.2475 0.0
C558 C 0.91175 0.61275 0.28237 0.0
C559 C 0.89368 0.59355 0.23094 0.0
C560 C 0.87011 0.57257 0.27394 0.0
C561 C 0.86594 0.54255 0.2397 0.0
C562 C 0.84147 0.5235 0.27146 0.0
C563 C 0.82025 0.53459 0.33536 0.0
H564 H 0.85292 0.60612 0.37057 0.0
C565 C 0.82542 0.56391 0.37432 0.0
C566 C 0.8502 0.58292 0.34345 0.0
H567 H 0.80958 0.57256 0.42526 0.0
H568 H 0.93809 0.69197 0.07479 0.0
H569 H 0.90306 0.64997 0.13055 0.0
H570 H 0.97002 0.62617 0.33808 0.0
H571 H 0.00521 0.66754 0.28051 0.0
H572 H 0.91083 0.61151 0.35838 0.0
H573 H 0.89677 0.5926 0.15545 0.0
H574 H 0.88122 0.53409 0.18683 0.0
H575 H 0.83849 0.50042 0.24355 0.0
C576 C 0.34182 0.03245 0.79809 0.0
C577 C 0.3221 0.04028 0.87099 0.0
C578 C 0.36669 0.05216 0.77314 0.0
C579 C 0.37273 0.07962 0.82274 0.0
C580 C 0.35411 0.0865 0.89946 0.0
C581 C 0.32891 0.06694 0.92346 0.0
C582 C 0.39828 0.10142 0.79593 0.0
C583 C 0.40496 0.10804 0.70604 0.0
C584 C 0.42729 0.13323 0.67988 0.0
C585 C 0.42049 0.15265 0.605 0.0
C586 C 0.44033 0.1778 0.58277 0.0
C587 C 0.46723 0.18375 0.63511 0.0
H588 H 0.46125 0.12315 0.78527 0.0
C589 C 0.47503 0.16316 0.70574 0.0
C590 C 0.45502 0.13832 0.72902 0.0
H591 H 0.4965 0.16647 0.74364 0.0
H592 H 0.33782 0.01115 0.75984 0.0
H593 H 0.38124 0.04584 0.71549 0.0
H594 H 0.35864 0.10738 0.93939 0.0
H595 H 0.31441 0.07291 0.98165 0.0
H596 H 0.40992 0.11438 0.85137 0.0
H597 H 0.39168 0.09683 0.6504 0.0
H598 H 0.3994 0.14885 0.56543 0.0
H599 H 0.43436 0.19298 0.52623 0.0
C600 C 0.82935 0.93308 0.86851 0.0
C601 C 0.8184 0.95791 0.91967 0.0
C602 C 0.85231 0.91523 0.90499 0.0
C603 C 0.8652 0.92186 0.99358 0.0
C604 C 0.85425 0.94662 0.04481 0.0
C605 C 0.83121 0.9645 0.0083 0.0
C606 C 0.88853 0.90237 0.03715 0.0
C607 C 0.90637 0.8836 0.98812 0.0
C608 C 0.92768 0.86197 0.03196 0.0
C609 C 0.9506 0.84939 0.97658 0.0
C610 C 0.96967 0.82736 0.01324 0.0
C611 C 0.96614 0.81725 0.1063 0.0
H612 H 0.90652 0.86026 0.17006 0.0
C613 C 0.94343 0.83013 0.162 0.0
C614 C 0.92438 0.85204 0.12537 0.0
H615 H 0.93977 0.82279 0.23379 0.0
H616 H 0.81989 0.92704 0.80039 0.0
H617 H 0.85916 0.89581 0.86425 0.0
H618 H 0.86347 0.95209 0.11366 0.0
H619 H 0.82336 0.98336 0.04987 0.0
H620 H 0.89119 0.90403 0.11256 0.0
H621 H 0.90572 0.88409 0.91215 0.0
H622 H 0.95355 0.85635 0.90416 0.0
H623 H 0.98682 0.81795 0.96811 0.0
C624 C 0.06124 0.32372 0.108 0.0
C625 C 0.032 0.31919 0.14791 0.0
C626 C 0.08099 0.3479 0.13935 0.0
C627 C 0.07139 0.3678 0.21011 0.0
C628 C 0.04137 0.36441 0.24459 0.0
C629 C 0.02166 0.34051 0.21273 0.0
C630 C 0.09307 0.39023 0.25541 0.0
C631 C 0.1142 0.4069 0.20704 0.0
C632 C 0.13639 0.42821 0.25448 0.0
C633 C 0.14112 0.45809 0.21994 0.0
C634 C 0.16412 0.47765 0.25804 0.0
C635 C 0.18339 0.46719 0.32873 0.0
H636 H 0.15072 0.39538 0.35793 0.0
C637 C 0.17753 0.43796 0.36753 0.0
C638 C 0.15411 0.41846 0.33033 0.0
H639 H 0.19184 0.4298 0.42344 0.0
H640 H 0.06934 0.3077 0.0567 0.0
H641 H 0.1042 0.34996 0.11212 0.0
H642 H 0.03347 0.37965 0.29847 0.0
H643 H 0.99871 0.3379 0.24186 0.0
H644 H 0.09099 0.39384 0.33047 0.0
H645 H 0.11438 0.40594 0.13098 0.0
H646 H 0.1274 0.46609 0.16236 0.0
H647 H 0.16759 0.50065 0.22983 0.0
C648 C 0.54728 0.6772 0.51236 0.0
C649 C 0.54296 0.6832 0.60814 0.0
C650 C 0.56551 0.65321 0.48364 0.0
C651 C 0.57968 0.63462 0.55035 0.0
C652 C 0.57442 0.64007 0.64564 0.0
C653 C 0.55655 0.66407 0.67419 0.0
C654 C 0.60006 0.60936 0.52479 0.0
C655 C 0.61599 0.6084 0.44395 0.0
C656 C 0.6386 0.58475 0.42126 0.0
C657 C 0.64827 0.58211 0.32801 0.0
C658 C 0.67084 0.56188 0.30342 0.0
C659 C 0.68463 0.54369 0.37162 0.0
H660 H 0.64597 0.56784 0.56281 0.0
C661 C 0.67466 0.54587 0.46496 0.0
C662 C 0.65201 0.5662 0.48966 0.0
H663 H 0.68488 0.53243 0.51952 0.0
H664 H 0.53702 0.69134 0.45961 0.0
H665 H 0.5682 0.64925 0.40939 0.0
H666 H 0.58472 0.62604 0.69867 0.0
H667 H 0.55355 0.66768 0.74862 0.0
H668 H 0.60299 0.59178 0.57733 0.0
H669 H 0.61299 0.62614 0.39185 0.0
H670 H 0.63858 0.59607 0.27371 0.0
H671 H 0.6778 0.56096 0.23072 0.0
loop_
_geom_bond_atom_site_label_1
_geom_bond_atom_site_label_2
_geom_bond_distance
_geom_bond_site_symmetry_2
_ccdc_geom_bond_type
Mn0 O5 2.095 . S
Mn0 O15 2.162 . S
Mn0 O16 2.297 . S
Mn0 O24 2.385 . S
Mn0 O25 2.209 . S
Mn0 O26 2.094 . S
Mn1 O6 2.121 . S
Mn1 N8 2.257 . S
Mn1 N17 2.282 . S
Mn1 O25 2.215 . S
Mn1 O27 2.117 . S
C2 O24 1.234 . S
C2 O25 1.283 . S
C3 O15 1.281 . S
C3 O16 1.236 . S
C4 O26 1.240 . S
C4 O27 1.264 . S
O5 Mn0 2.095 . S
O5 C14 1.250 . S
O6 Mn1 2.121 . S
O6 C14 1.258 . S
C7 N8 1.326 . S
C7 C11 1.460 1_554 S
C7 H13 0.929 . S
N8 Mn1 2.257 . S
N8 C7 1.326 . S
N8 C12 1.362 . S
C9 C10 1.258 . S
C9 C12 1.431 1_556 S
C9 C29 1.449 . S
C10 C9 1.258 . S
C10 C11 1.477 . S
C10 H30 0.931 . S
C11 C7 1.460 1_556 S
C11 C10 1.477 . S
C11 H31 0.930 . S
C12 N8 1.362 . S
C12 C9 1.431 1_554 S
C12 C22 1.476 . S
H13 C7 0.929 . S
C14 O5 1.250 . S
C14 O6 1.258 . S
O15 Mn0 2.162 . S
O15 C3 1.281 . S
O16 Mn0 2.297 . S
O16 C3 1.236 . S
N17 Mn1 2.282 . S
N17 C18 1.328 . S
N17 C22 1.318 . S
C18 N17 1.328 . S
C18 C19 1.457 . S
C18 H23 0.929 . S
C19 C18 1.457 . S
C19 C20 1.291 . S
C19 H32 0.931 . S
C20 C19 1.291 . S
C20 C21 1.373 . S
C20 H33 0.929 . S
C21 C20 1.373 . S
C21 C22 1.396 . S
C21 C28 1.403 . S
C22 C12 1.476 . S
C22 N17 1.318 . S
C22 C21 1.396 . S
H23 C18 0.929 . S
O24 Mn0 2.385 . S
O24 C2 1.234 . S
O25 Mn0 2.209 . S
O25 Mn1 2.215 . S
O25 C2 1.283 . S
O26 Mn0 2.094 . S
O26 C4 1.240 . S
O27 Mn1 2.117 . S
O27 C4 1.264 . S
C28 C21 1.403 . S
C28 C29 1.399 1_554 S
C28 H34 0.929 . S
C29 C9 1.449 . S
C29 C28 1.399 1_556 S
C29 H35 0.930 . S
H30 C10 0.931 . S
H31 C11 0.930 . S
H32 C19 0.931 . S
H33 C20 0.929 . S
H34 C28 0.929 . S
H35 C29 0.930 . S
Mn36 O41 2.095 . S
Mn36 O51 2.162 . S
Mn36 O52 2.297 . S
Mn36 O60 2.385 . S
Mn36 O61 2.209 . S
Mn36 O62 2.094 . S
Mn37 O42 2.121 . S
Mn37 N44 2.257 . S
Mn37 N53 2.282 . S
Mn37 O61 2.215 . S
Mn37 O63 2.117 . S
C38 O60 1.234 . S
C38 O61 1.283 . S
C39 O51 1.281 . S
C39 O52 1.236 . S
C40 O62 1.240 . S
C40 O63 1.264 . S
O41 Mn36 2.095 . S
O41 C50 1.250 . S
O42 Mn37 2.121 . S
O42 C50 1.258 . S
C43 N44 1.326 . S
C43 C47 1.460 1_556 S
C43 H49 0.929 . S
N44 Mn37 2.257 . S
N44 C43 1.326 . S
N44 C48 1.362 . S
C45 C46 1.258 . S
C45 C48 1.431 1_554 S
C45 C65 1.449 . S
C46 C45 1.258 . S
C46 C47 1.477 . S
C46 H66 0.931 . S
C47 C43 1.460 1_554 S
C47 C46 1.477 . S
C47 H67 0.930 . S
C48 N44 1.362 . S
C48 C45 1.431 1_556 S
C48 C58 1.476 . S
H49 C43 0.929 . S
C50 O41 1.250 . S
C50 O42 1.258 . S
O51 Mn36 2.162 . S
O51 C39 1.281 . S
O52 Mn36 2.297 . S
O52 C39 1.236 . S
N53 Mn37 2.282 . S
N53 C54 1.328 . S
N53 C58 1.318 . S
C54 N53 1.328 . S
C54 C55 1.457 . S
C54 H59 0.929 . S
C55 C54 1.457 . S
C55 C56 1.291 . S
C55 H68 0.931 . S
C56 C55 1.291 . S
C56 C57 1.373 . S
C56 H69 0.929 . S
C57 C56 1.373 . S
C57 C58 1.396 . S
C57 C64 1.403 . S
C58 C48 1.476 . S
C58 N53 1.318 . S
C58 C57 1.396 . S
H59 C54 0.929 . S
O60 Mn36 2.385 . S
O60 C38 1.234 . S
O61 Mn36 2.209 . S
O61 Mn37 2.215 . S
O61 C38 1.283 . S
O62 Mn36 2.094 . S
O62 C40 1.240 . S
O63 Mn37 2.117 . S
O63 C40 1.264 . S
C64 C57 1.403 . S
C64 C65 1.399 1_556 S
C64 H70 0.929 . S
C65 C45 1.449 . S
C65 C64 1.399 1_554 S
C65 H71 0.930 . S
H66 C46 0.931 . S
H67 C47 0.930 . S
H68 C55 0.931 . S
H69 C56 0.929 . S
H70 C64 0.929 . S
H71 C65 0.930 . S
Mn72 O77 2.095 . S
Mn72 O87 2.162 1_556 S
Mn72 O88 2.297 . S
Mn72 O96 2.385 1_565 S
Mn72 O97 2.209 . S
Mn72 O98 2.094 . S
Mn73 O78 2.121 1_545 S
Mn73 N80 2.257 . S
Mn73 N89 2.282 . S
Mn73 O97 2.215 1_545 S
Mn73 O99 2.117 . S
C74 O96 1.234 . S
C74 O97 1.283 1_545 S
C75 O87 1.283 . S
C75 O88 1.232 1_554 S
C76 O98 1.240 1_545 S
C76 O99 1.264 . S
O77 Mn72 2.095 . S
O77 C86 1.250 . S
O78 Mn73 2.121 1_565 S
O78 C86 1.258 . S
C79 N80 1.326 1_565 S
C79 C83 1.460 . S
C79 H85 0.929 . S
N80 Mn73 2.257 . S
N80 C79 1.326 1_545 S
N80 C84 1.362 . S
C81 C82 1.258 . S
C81 C84 1.431 . S
C81 C101 1.449 . S
C82 C81 1.258 . S
C82 C83 1.475 1_545 S
C82 H102 0.931 . S
C83 C79 1.460 . S
C83 C82 1.475 1_565 S
C83 H103 0.932 . S
C84 N80 1.362 . S
C84 C81 1.431 . S
C84 C94 1.476 . S
H85 C79 0.929 . S
C86 O77 1.250 . S
C86 O78 1.258 . S
O87 Mn72 2.162 1_554 S
O87 C75 1.283 . S
O88 Mn72 2.297 . S
O88 C75 1.232 1_556 S
N89 Mn73 2.282 . S
N89 C90 1.328 . S
N89 C94 1.318 . S
C90 N89 1.328 . S
C90 C91 1.457 . S
C90 H95 0.929 . S
C91 C90 1.457 . S
C91 C92 1.291 . S
C91 H104 0.931 . S
C92 C91 1.291 . S
C92 C93 1.373 . S
C92 H105 0.929 . S
C93 C92 1.373 . S
C93 C94 1.396 . S
C93 C100 1.403 . S
C94 C84 1.476 . S
C94 N89 1.318 . S
C94 C93 1.396 . S
H95 C90 0.929 . S
O96 Mn72 2.385 1_545 S
O96 C74 1.234 . S
O97 Mn72 2.209 . S
O97 Mn73 2.215 1_565 S
O97 C74 1.283 1_565 S
O98 Mn72 2.094 . S
O98 C76 1.240 1_565 S
O99 Mn73 2.117 . S
O99 C76 1.264 . S
C100 C93 1.403 . S
C100 C101 1.399 . S
C100 H106 0.929 . S
C101 C81 1.449 . S
C101 C100 1.399 . S
C101 H107 0.930 . S
H102 C82 0.931 . S
H103 C83 0.932 . S
H104 C91 0.931 . S
H105 C92 0.929 . S
H106 C100 0.929 . S
H107 C101 0.930 . S
Mn108 O113 2.095 . S
Mn108 O123 2.162 1_554 S
Mn108 O124 2.297 . S
Mn108 O132 2.385 1_455 S
Mn108 O133 2.209 . S
Mn108 O134 2.094 . S
Mn109 O114 2.121 1_655 S
Mn109 N116 2.257 . S
Mn109 N125 2.282 . S
Mn109 O133 2.215 1_655 S
Mn109 O135 2.117 . S
C110 O132 1.234 . S
C110 O133 1.283 1_655 S
C111 O123 1.283 . S
C111 O124 1.232 1_556 S
C112 O134 1.240 1_655 S
C112 O135 1.264 . S
O113 Mn108 2.095 . S
O113 C122 1.250 . S
O114 Mn109 2.121 1_455 S
O114 C122 1.258 . S
C115 N116 1.326 1_455 S
C115 C119 1.460 . S
C115 H121 0.929 . S
N116 Mn109 2.257 . S
N116 C115 1.326 1_655 S
N116 C120 1.362 . S
C117 C118 1.258 . S
C117 C120 1.431 . S
C117 C137 1.449 . S
C118 C117 1.258 . S
C118 C119 1.475 1_655 S
C118 H138 0.931 . S
C119 C115 1.460 . S
C119 C118 1.475 1_455 S
C119 H139 0.932 . S
C120 N116 1.362 . S
C120 C117 1.431 . S
C120 C130 1.476 . S
H121 C115 0.929 . S
C122 O113 1.250 . S
C122 O114 1.258 . S
O123 Mn108 2.162 1_556 S
O123 C111 1.283 . S
O124 Mn108 2.297 . S
O124 C111 1.232 1_554 S
N125 Mn109 2.282 . S
N125 C126 1.328 . S
N125 C130 1.318 . S
C126 N125 1.328 . S
C126 C127 1.457 . S
C126 H131 0.929 . S
C127 C126 1.457 . S
C127 C128 1.291 . S
C127 H140 0.931 . S
C128 C127 1.291 . S
C128 C129 1.373 . S
C128 H141 0.929 . S
C129 C128 1.373 . S
C129 C130 1.396 . S
C129 C136 1.403 . S
C130 C120 1.476 . S
C130 N125 1.318 . S
C130 C129 1.396 . S
H131 C126 0.929 . S
O132 Mn108 2.385 1_655 S
O132 C110 1.234 . S
O133 Mn108 2.209 . S
O133 Mn109 2.215 1_455 S
O133 C110 1.283 1_455 S
O134 Mn108 2.094 . S
O134 C112 1.240 1_455 S
O135 Mn109 2.117 . S
O135 C112 1.264 . S
C136 C129 1.403 . S
C136 C137 1.399 . S
C136 H142 0.929 . S
C137 C117 1.449 . S
C137 C136 1.399 . S
C137 H143 0.930 . S
H138 C118 0.931 . S
H139 C119 0.932 . S
H140 C127 0.931 . S
H141 C128 0.929 . S
H142 C136 0.929 . S
H143 C137 0.930 . S
Mn144 O149 2.095 . S
Mn144 O159 2.162 1_556 S
Mn144 O160 2.297 . S
Mn144 O168 2.385 1_545 S
Mn144 O169 2.209 . S
Mn144 O170 2.094 . S
Mn145 O150 2.121 1_565 S
Mn145 N152 2.257 . S
Mn145 N161 2.282 . S
Mn145 O169 2.215 1_565 S
Mn145 O171 2.117 . S
C146 O168 1.234 . S
C146 O169 1.283 1_565 S
C147 O159 1.283 . S
C147 O160 1.232 1_554 S
C148 O170 1.240 1_565 S
C148 O171 1.264 . S
O149 Mn144 2.095 . S
O149 C158 1.250 . S
O150 Mn145 2.121 1_545 S
O150 C158 1.258 . S
C151 N152 1.326 1_545 S
C151 C155 1.460 . S
C151 H157 0.929 . S
N152 Mn145 2.257 . S
N152 C151 1.326 1_565 S
N152 C156 1.362 . S
C153 C154 1.258 . S
C153 C156 1.431 . S
C153 C173 1.449 . S
C154 C153 1.258 . S
C154 C155 1.475 1_565 S
C154 H174 0.931 . S
C155 C151 1.460 . S
C155 C154 1.475 1_545 S
C155 H175 0.932 . S
C156 N152 1.362 . S
C156 C153 1.431 . S
C156 C166 1.476 . S
H157 C151 0.929 . S
C158 O149 1.250 . S
C158 O150 1.258 . S
O159 Mn144 2.162 1_554 S
O159 C147 1.283 . S
O160 Mn144 2.297 . S
O160 C147 1.232 1_556 S
N161 Mn145 2.282 . S
N161 C162 1.328 . S
N161 C166 1.318 . S
C162 N161 1.328 . S
C162 C163 1.457 . S
C162 H167 0.929 . S
C163 C162 1.457 . S
C163 C164 1.291 . S
C163 H176 0.931 . S
C164 C163 1.291 . S
C164 C165 1.373 . S
C164 H177 0.929 . S
C165 C164 1.373 . S
C165 C166 1.396 . S
C165 C172 1.403 . S
C166 C156 1.476 . S
C166 N161 1.318 . S
C166 C165 1.396 . S
H167 C162 0.929 . S
O168 Mn144 2.385 1_565 S
O168 C146 1.234 . S
O169 Mn144 2.209 . S
O169 Mn145 2.215 1_545 S
O169 C146 1.283 1_545 S
O170 Mn144 2.094 . S
O170 C148 1.240 1_545 S
O171 Mn145 2.117 . S
O171 C148 1.264 . S
C172 C165 1.403 . S
C172 C173 1.399 . S
C172 H178 0.929 . S
C173 C153 1.449 . S
C173 C172 1.399 . S
C173 H179 0.930 . S
H174 C154 0.931 . S
H175 C155 0.932 . S
H176 C163 0.931 . S
H177 C164 0.929 . S
H178 C172 0.929 . S
H179 C173 0.930 . S
Mn180 O185 2.095 . S
Mn180 O195 2.162 1_554 S
Mn180 O196 2.297 . S
Mn180 O204 2.385 1_655 S
Mn180 O205 2.209 . S
Mn180 O206 2.094 . S
Mn181 O186 2.121 1_455 S
Mn181 N188 2.257 . S
Mn181 N197 2.282 . S
Mn181 O205 2.215 1_455 S
Mn181 O207 2.117 . S
C182 O204 1.234 . S
C182 O205 1.283 1_455 S
C183 O195 1.283 . S
C183 O196 1.232 1_556 S
C184 O206 1.240 1_455 S
C184 O207 1.264 . S
O185 Mn180 2.095 . S
O185 C194 1.250 . S
O186 Mn181 2.121 1_655 S
O186 C194 1.258 . S
C187 N188 1.326 1_655 S
C187 C191 1.460 . S
C187 H193 0.929 . S
N188 Mn181 2.257 . S
N188 C187 1.326 1_455 S
N188 C192 1.362 . S
C189 C190 1.258 . S
C189 C192 1.431 . S
C189 C209 1.449 . S
C190 C189 1.258 . S
C190 C191 1.475 1_455 S
C190 H210 0.931 . S
C191 C187 1.460 . S
C191 C190 1.475 1_655 S
C191 H211 0.932 . S
C192 N188 1.362 . S
C192 C189 1.431 . S
C192 C202 1.476 . S
H193 C187 0.929 . S
C194 O185 1.250 . S
C194 O186 1.258 . S
O195 Mn180 2.162 1_556 S
O195 C183 1.283 . S
O196 Mn180 2.297 . S
O196 C183 1.232 1_554 S
N197 Mn181 2.282 . S
N197 C198 1.328 . S
N197 C202 1.318 . S
C198 N197 1.328 . S
C198 C199 1.457 . S
C198 H203 0.929 . S
C199 C198 1.457 . S
C199 C200 1.291 . S
C199 H212 0.931 . S
C200 C199 1.291 . S
C200 C201 1.373 . S
C200 H213 0.929 . S
C201 C200 1.373 . S
C201 C202 1.396 . S
C201 C208 1.403 . S
C202 C192 1.476 . S
C202 N197 1.318 . S
C202 C201 1.396 . S
H203 C198 0.929 . S
O204 Mn180 2.385 1_455 S
O204 C182 1.234 . S
O205 Mn180 2.209 . S
O205 Mn181 2.215 1_655 S
O205 C182 1.283 1_655 S
O206 Mn180 2.094 . S
O206 C184 1.240 1_655 S
O207 Mn181 2.117 . S
O207 C184 1.264 . S
C208 C201 1.403 . S
C208 C209 1.399 . S
C208 H214 0.929 . S
C209 C189 1.449 . S
C209 C208 1.399 . S
C209 H215 0.930 . S
H210 C190 0.931 . S
H211 C191 0.932 . S
H212 C199 0.931 . S
H213 C200 0.929 . S
H214 C208 0.929 . S
H215 C209 0.930 . S
Mn216 O221 2.095 . S
Mn216 O231 2.162 . S
Mn216 O232 2.297 . S
Mn216 O240 2.385 . S
Mn216 O241 2.209 . S
Mn216 O242 2.094 . S
Mn217 O222 2.121 . S
Mn217 N224 2.257 . S
Mn217 N233 2.282 . S
Mn217 O241 2.215 . S
Mn217 O243 2.117 . S
C218 O240 1.234 . S
C218 O241 1.283 . S
C219 O231 1.281 . S
C219 O232 1.236 . S
C220 O242 1.240 . S
C220 O243 1.264 . S
O221 Mn216 2.095 . S
O221 C230 1.250 . S
O222 Mn217 2.121 . S
O222 C230 1.258 . S
C223 N224 1.326 . S
C223 C227 1.460 1_554 S
C223 H229 0.929 . S
N224 Mn217 2.257 . S
N224 C223 1.326 . S
N224 C228 1.362 . S
C225 C226 1.258 . S
C225 C228 1.431 1_556 S
C225 C245 1.449 . S
C226 C225 1.258 . S
C226 C227 1.477 . S
C226 H246 0.931 . S
C227 C223 1.460 1_556 S
C227 C226 1.477 . S
C227 H247 0.930 . S
C228 N224 1.362 . S
C228 C225 1.431 1_554 S
C228 C238 1.476 . S
H229 C223 0.929 . S
C230 O221 1.250 . S
C230 O222 1.258 . S
O231 Mn216 2.162 . S
O231 C219 1.281 . S
O232 Mn216 2.297 . S
O232 C219 1.236 . S
N233 Mn217 2.282 . S
N233 C234 1.328 . S
N233 C238 1.318 . S
C234 N233 1.328 . S
C234 C235 1.457 . S
C234 H239 0.929 . S
C235 C234 1.457 . S
C235 C236 1.291 . S
C235 H248 0.931 . S
C236 C235 1.291 . S
C236 C237 1.373 . S
C236 H249 0.929 . S
C237 C236 1.373 . S
C237 C238 1.396 . S
C237 C244 1.403 . S
C238 C228 1.476 . S
C238 N233 1.318 . S
C238 C237 1.396 . S
H239 C234 0.929 . S
O240 Mn216 2.385 . S
O240 C218 1.234 . S
O241 Mn216 2.209 . S
O241 Mn217 2.215 . S
O241 C218 1.283 . S
O242 Mn216 2.094 . S
O242 C220 1.240 . S
O243 Mn217 2.117 . S
O243 C220 1.264 . S
C244 C237 1.403 . S
C244 C245 1.399 1_554 S
C244 H250 0.929 . S
C245 C225 1.449 . S
C245 C244 1.399 1_556 S
C245 H251 0.930 . S
H246 C226 0.931 . S
H247 C227 0.930 . S
H248 C235 0.931 . S
H249 C236 0.929 . S
H250 C244 0.929 . S
H251 C245 0.930 . S
Mn252 O257 2.095 . S
Mn252 O267 2.162 . S
Mn252 O268 2.297 . S
Mn252 O276 2.385 . S
Mn252 O277 2.209 . S
Mn252 O278 2.094 . S
Mn253 O258 2.121 . S
Mn253 N260 2.257 . S
Mn253 N269 2.282 . S
Mn253 O277 2.215 . S
Mn253 O279 2.117 . S
C254 O276 1.234 . S
C254 O277 1.283 . S
C255 O267 1.281 . S
C255 O268 1.236 . S
C256 O278 1.240 . S
C256 O279 1.264 . S
O257 Mn252 2.095 . S
O257 C266 1.250 . S
O258 Mn253 2.121 . S
O258 C266 1.258 . S
C259 N260 1.326 . S
C259 C263 1.460 1_556 S
C259 H265 0.929 . S
N260 Mn253 2.257 . S
N260 C259 1.326 . S
N260 C264 1.362 . S
C261 C262 1.258 . S
C261 C264 1.431 1_554 S
C261 C281 1.449 . S
C262 C261 1.258 . S
C262 C263 1.477 . S
C262 H282 0.931 . S
C263 C259 1.460 1_554 S
C263 C262 1.477 . S
C263 H283 0.930 . S
C264 N260 1.362 . S
C264 C261 1.431 1_556 S
C264 C274 1.476 . S
H265 C259 0.929 . S
C266 O257 1.250 . S
C266 O258 1.258 . S
O267 Mn252 2.162 . S
O267 C255 1.281 . S
O268 Mn252 2.297 . S
O268 C255 1.236 . S
N269 Mn253 2.282 . S
N269 C270 1.328 . S
N269 C274 1.318 . S
C270 N269 1.328 . S
C270 C271 1.457 . S
C270 H275 0.929 . S
C271 C270 1.457 . S
C271 C272 1.291 . S
C271 H284 0.931 . S
C272 C271 1.291 . S
C272 C273 1.373 . S
C272 H285 0.929 . S
C273 C272 1.373 . S
C273 C274 1.396 . S
C273 C280 1.403 . S
C274 C264 1.476 . S
C274 N269 1.318 . S
C274 C273 1.396 . S
H275 C270 0.929 . S
O276 Mn252 2.385 . S
O276 C254 1.234 . S
O277 Mn252 2.209 . S
O277 Mn253 2.215 . S
O277 C254 1.283 . S
O278 Mn252 2.094 . S
O278 C256 1.240 . S
O279 Mn253 2.117 . S
O279 C256 1.264 . S
C280 C273 1.403 . S
C280 C281 1.399 1_556 S
C280 H286 0.929 . S
C281 C261 1.449 . S
C281 C280 1.399 1_554 S
C281 H287 0.930 . S
H282 C262 0.931 . S
H283 C263 0.930 . S
H284 C271 0.931 . S
H285 C272 0.929 . S
H286 C280 0.929 . S
H287 C281 0.930 . S
C288 C289 1.386 . S
C288 C290 1.383 . S
C288 H304 0.951 . S
C289 C288 1.386 . S
C289 C293 1.383 . S
C290 C288 1.383 . S
C290 C291 1.402 . S
C290 H305 0.951 1_556 S
C291 C290 1.402 . S
C291 C292 1.375 . S
C291 C294 1.481 . S
C292 C291 1.375 . S
C292 C293 1.367 . S
C292 H306 0.951 . S
C293 C289 1.383 . S
C293 C292 1.367 . S
C293 H307 0.950 . S
C294 C291 1.481 . S
C294 C295 1.297 1_556 S
C294 H308 0.950 . S
C295 C294 1.297 1_554 S
C295 C296 1.479 . S
C295 H309 0.950 . S
C296 C295 1.479 . S
C296 C297 1.375 . S
C296 C302 1.404 . S
C297 C296 1.375 . S
C297 C298 1.369 . S
C297 H310 0.950 . S
C298 C297 1.369 . S
C298 C299 1.392 . S
C298 H311 0.951 . S
C299 C298 1.392 . S
C299 C301 1.384 . S
H300 C302 0.949 . S
C301 C299 1.384 . S
C301 C302 1.385 . S
C301 H303 0.950 . S
C302 C296 1.404 . S
C302 H300 0.949 . S
C302 C301 1.385 . S
H303 C301 0.950 . S
H304 C288 0.951 . S
H305 C290 0.951 1_554 S
H306 C292 0.951 . S
H307 C293 0.950 . S
H308 C294 0.950 . S
H309 C295 0.950 . S
H310 C297 0.950 . S
H311 C298 0.951 . S
C312 C313 1.386 . S
C312 C314 1.383 . S
C312 H328 0.951 . S
C313 C312 1.386 . S
C313 C317 1.383 . S
C314 C312 1.383 . S
C314 C315 1.402 . S
C314 H329 0.951 . S
C315 C314 1.402 . S
C315 C316 1.375 . S
C315 C318 1.481 . S
C316 C315 1.375 . S
C316 C317 1.367 . S
C316 H330 0.951 . S
C317 C313 1.383 . S
C317 C316 1.367 . S
C317 H331 0.950 . S
C318 C315 1.481 . S
C318 C319 1.297 . S
C318 H332 0.950 . S
C319 C318 1.297 . S
C319 C320 1.479 . S
C319 H333 0.950 . S
C320 C319 1.479 . S
C320 C321 1.375 . S
C320 C326 1.404 . S
C321 C320 1.375 . S
C321 C322 1.369 . S
C321 H334 0.950 . S
C322 C321 1.369 . S
C322 C323 1.392 . S
C322 H335 0.951 1_554 S
C323 C322 1.392 . S
C323 C325 1.384 . S
H324 C326 0.949 . S
C325 C323 1.384 . S
C325 C326 1.385 . S
C325 H327 0.950 . S
C326 C320 1.404 . S
C326 H324 0.949 . S
C326 C325 1.385 . S
H327 C325 0.950 . S
H328 C312 0.951 . S
H329 C314 0.951 . S
H330 C316 0.951 . S
H331 C317 0.950 . S
H332 C318 0.950 . S
H333 C319 0.950 . S
H334 C321 0.950 . S
H335 C322 0.951 1_556 S
C336 C337 1.386 . S
C336 C338 1.383 . S
C336 H352 0.951 . S
C337 C336 1.386 . S
C337 C341 1.383 . S
C338 C336 1.383 . S
C338 C339 1.402 . S
C338 H353 0.951 . S
C339 C338 1.402 . S
C339 C340 1.375 . S
C339 C342 1.481 . S
C340 C339 1.375 . S
C340 C341 1.367 . S
C340 H354 0.951 . S
C341 C337 1.383 . S
C341 C340 1.367 . S
C341 H355 0.950 . S
C342 C339 1.481 . S
C342 C343 1.297 . S
C342 H356 0.950 . S
C343 C342 1.297 . S
C343 C344 1.479 . S
C343 H357 0.950 . S
C344 C343 1.479 . S
C344 C345 1.375 . S
C344 C350 1.404 . S
C345 C344 1.375 . S
C345 C346 1.369 . S
C345 H358 0.950 . S
C346 C345 1.369 . S
C346 C347 1.392 . S
C346 H359 0.951 . S
C347 C346 1.392 . S
C347 C349 1.384 . S
H348 C350 0.949 . S
C349 C347 1.384 . S
C349 C350 1.385 . S
C349 H351 0.950 . S
C350 C344 1.404 . S
C350 H348 0.949 . S
C350 C349 1.385 . S
H351 C349 0.950 . S
H352 C336 0.951 . S
H353 C338 0.951 . S
H354 C340 0.951 . S
H355 C341 0.950 . S
H356 C342 0.950 . S
H357 C343 0.950 . S
H358 C345 0.950 . S
H359 C346 0.951 . S
C360 C361 1.386 . S
C360 C362 1.383 . S
C360 H376 0.951 . S
C361 C360 1.386 . S
C361 C365 1.383 . S
C362 C360 1.383 . S
C362 C363 1.402 . S
C362 H377 0.951 . S
C363 C362 1.402 . S
C363 C364 1.375 . S
C363 C366 1.481 . S
C364 C363 1.375 . S
C364 C365 1.367 . S
C364 H378 0.951 . S
C365 C361 1.383 . S
C365 C364 1.367 . S
C365 H379 0.950 . S
C366 C363 1.481 . S
C366 C367 1.297 . S
C366 H380 0.950 . S
C367 C366 1.297 . S
C367 C368 1.479 . S
C367 H381 0.950 . S
C368 C367 1.479 . S
C368 C369 1.375 . S
C368 C374 1.404 . S
C369 C368 1.375 . S
C369 C370 1.369 . S
C369 H382 0.950 . S
C370 C369 1.369 . S
C370 C371 1.392 . S
C370 H383 0.951 . S
C371 C370 1.392 . S
C371 C373 1.384 . S
H372 C374 0.949 . S
C373 C371 1.384 . S
C373 C374 1.385 . S
C373 H375 0.950 . S
C374 C368 1.404 . S
C374 H372 0.949 . S
C374 C373 1.385 . S
H375 C373 0.950 . S
H376 C360 0.951 . S
H377 C362 0.951 . S
H378 C364 0.951 . S
H379 C365 0.950 . S
H380 C366 0.950 . S
H381 C367 0.950 . S
H382 C369 0.950 . S
H383 C370 0.951 . S
C384 C385 1.386 . S
C384 C386 1.383 . S
C384 H400 0.951 . S
C385 C384 1.386 . S
C385 C389 1.383 . S
C386 C384 1.383 . S
C386 C387 1.402 . S
C386 H401 0.951 . S
C387 C386 1.402 . S
C387 C388 1.375 . S
C387 C390 1.481 . S
C388 C387 1.375 . S
C388 C389 1.367 . S
C388 H402 0.951 . S
C389 C385 1.383 . S
C389 C388 1.367 . S
C389 H403 0.950 . S
C390 C387 1.481 . S
C390 C391 1.297 . S
C390 H404 0.950 . S
C391 C390 1.297 . S
C391 C392 1.479 . S
C391 H405 0.950 . S
C392 C391 1.479 . S
C392 C393 1.375 . S
C392 C398 1.404 . S
C393 C392 1.375 . S
C393 C394 1.369 . S
C393 H406 0.950 . S
C394 C393 1.369 . S
C394 C395 1.392 . S
C394 H407 0.951 . S
C395 C394 1.392 . S
C395 C397 1.384 . S
H396 C398 0.949 . S
C397 C395 1.384 . S
C397 C398 1.385 . S
C397 H399 0.950 . S
C398 C392 1.404 . S
C398 H396 0.949 . S
C398 C397 1.385 . S
H399 C397 0.950 . S
H400 C384 0.951 . S
H401 C386 0.951 . S
H402 C388 0.951 . S
H403 C389 0.950 . S
H404 C390 0.950 . S
H405 C391 0.950 . S
H406 C393 0.950 . S
H407 C394 0.951 . S
C408 C409 1.386 . S
C408 C410 1.383 . S
C408 H424 0.951 . S
C409 C408 1.386 . S
C409 C413 1.383 . S
C410 C408 1.383 . S
C410 C411 1.402 . S
C410 H425 0.951 . S
C411 C410 1.402 . S
C411 C412 1.375 . S
C411 C414 1.481 . S
C412 C411 1.375 . S
C412 C413 1.367 . S
C412 H426 0.951 . S
C413 C409 1.383 . S
C413 C412 1.367 . S
C413 H427 0.950 . S
C414 C411 1.481 . S
C414 C415 1.297 . S
C414 H428 0.950 . S
C415 C414 1.297 . S
C415 C416 1.479 . S
C415 H429 0.950 . S
C416 C415 1.479 . S
C416 C417 1.375 . S
C416 C422 1.404 . S
C417 C416 1.375 . S
C417 C418 1.369 . S
C417 H430 0.950 . S
C418 C417 1.369 . S
C418 C419 1.392 . S
C418 H431 0.951 . S
C419 C418 1.392 . S
C419 C421 1.384 . S
H420 C422 0.949 . S
C421 C419 1.384 . S
C421 C422 1.385 . S
C421 H423 0.950 . S
C422 C416 1.404 . S
C422 H420 0.949 . S
C422 C421 1.385 . S
H423 C421 0.950 . S
H424 C408 0.951 . S
H425 C410 0.951 . S
H426 C412 0.951 . S
H427 C413 0.950 . S
H428 C414 0.950 . S
H429 C415 0.950 . S
H430 C417 0.950 . S
H431 C418 0.951 . S
C432 C433 1.386 . S
C432 C434 1.383 . S
C432 H448 0.951 . S
C433 C432 1.386 . S
C433 C437 1.383 . S
C434 C432 1.383 . S
C434 C435 1.402 . S
C434 H449 0.951 . S
C435 C434 1.402 . S
C435 C436 1.375 . S
C435 C438 1.481 . S
C436 C435 1.375 . S
C436 C437 1.367 . S
C436 H450 0.951 . S
C437 C433 1.383 . S
C437 C436 1.367 . S
C437 H451 0.950 . S
C438 C435 1.481 . S
C438 C439 1.301 . S
C438 H452 0.950 . S
C439 C438 1.301 . S
C439 C440 1.476 1_554 S
C439 H453 0.950 . S
C440 C439 1.476 1_556 S
C440 C441 1.375 . S
C440 C446 1.404 . S
C441 C440 1.375 . S
C441 C442 1.369 . S
C441 H454 0.950 . S
C442 C441 1.369 . S
C442 C443 1.392 . S
C442 H455 0.951 . S
C443 C442 1.392 . S
C443 C445 1.384 . S
H444 C446 0.949 . S
C445 C443 1.384 . S
C445 C446 1.385 . S
C445 H447 0.950 . S
C446 C440 1.404 . S
C446 H444 0.949 . S
C446 C445 1.385 . S
H447 C445 0.950 . S
H448 C432 0.951 . S
H449 C434 0.951 . S
H450 C436 0.951 . S
H451 C437 0.950 . S
H452 C438 0.950 . S
H453 C439 0.950 . S
H454 C441 0.950 . S
H455 C442 0.951 . S
C456 C457 1.386 . S
C456 C458 1.383 . S
C456 H472 0.951 1_554 S
C457 C456 1.386 . S
C457 C461 1.383 . S
C458 C456 1.383 . S
C458 C459 1.402 . S
C458 H473 0.951 . S
C459 C458 1.402 . S
C459 C460 1.375 . S
C459 C462 1.481 . S
C460 C459 1.375 . S
C460 C461 1.367 . S
C460 H474 0.951 . S
C461 C457 1.383 . S
C461 C460 1.367 . S
C461 H475 0.950 . S
C462 C459 1.481 . S
C462 C463 1.297 . S
C462 H476 0.950 . S
C463 C462 1.297 . S
C463 C464 1.479 . S
C463 H477 0.950 . S
C464 C463 1.479 . S
C464 C465 1.375 . S
C464 C470 1.404 . S
C465 C464 1.375 . S
C465 C466 1.369 . S
C465 H478 0.950 . S
C466 C465 1.369 . S
C466 C467 1.392 . S
C466 H479 0.951 . S
C467 C466 1.392 . S
C467 C469 1.384 . S
H468 C470 0.949 . S
C469 C467 1.384 . S
C469 C470 1.385 . S
C469 H471 0.950 . S
C470 C464 1.404 . S
C470 H468 0.949 . S
C470 C469 1.385 . S
H471 C469 0.950 . S
H472 C456 0.951 1_556 S
H473 C458 0.951 . S
H474 C460 0.951 . S
H475 C461 0.950 . S
H476 C462 0.950 . S
H477 C463 0.950 . S
H478 C465 0.950 . S
H479 C466 0.951 . S
C480 C481 1.386 . S
C480 C482 1.383 . S
C480 H496 0.951 . S
C481 C480 1.386 . S
C481 C485 1.383 . S
C482 C480 1.383 . S
C482 C483 1.402 . S
C482 H497 0.951 . S
C483 C482 1.402 . S
C483 C484 1.375 . S
C483 C486 1.481 . S
C484 C483 1.375 . S
C484 C485 1.367 . S
C484 H498 0.951 . S
C485 C481 1.383 . S
C485 C484 1.367 . S
C485 H499 0.950 . S
C486 C483 1.481 . S
C486 C487 1.297 . S
C486 H500 0.950 . S
C487 C486 1.297 . S
C487 C488 1.479 . S
C487 H501 0.950 . S
C488 C487 1.479 . S
C488 C489 1.375 . S
C488 C494 1.404 . S
C489 C488 1.375 . S
C489 C490 1.369 . S
C489 H502 0.950 . S
C490 C489 1.369 . S
C490 C491 1.392 . S
C490 H503 0.951 . S
C491 C490 1.392 . S
C491 C493 1.384 . S
H492 C494 0.949 . S
C493 C491 1.384 . S
C493 C494 1.385 . S
C493 H495 0.950 . S
C494 C488 1.404 . S
C494 H492 0.949 . S
C494 C493 1.385 . S
H495 C493 0.950 . S
H496 C480 0.951 . S
H497 C482 0.951 . S
H498 C484 0.951 . S
H499 C485 0.950 . S
H500 C486 0.950 . S
H501 C487 0.950 . S
H502 C489 0.950 . S
H503 C490 0.951 . S
C504 C505 1.386 . S
C504 C506 1.383 . S
C504 H520 0.951 . S
C505 C504 1.386 . S
C505 C509 1.383 . S
C506 C504 1.383 . S
C506 C507 1.402 . S
C506 H521 0.951 . S
C507 C506 1.402 . S
C507 C508 1.375 . S
C507 C510 1.481 . S
C508 C507 1.375 . S
C508 C509 1.367 . S
C508 H522 0.951 . S
C509 C505 1.383 . S
C509 C508 1.367 . S
C509 H523 0.950 . S
C510 C507 1.481 . S
C510 C511 1.297 . S
C510 H524 0.950 . S
C511 C510 1.297 . S
C511 C512 1.479 . S
C511 H525 0.950 . S
C512 C511 1.479 . S
C512 C513 1.375 . S
C512 C518 1.404 . S
C513 C512 1.375 . S
C513 C514 1.369 . S
C513 H526 0.950 . S
C514 C513 1.369 . S
C514 C515 1.392 . S
C514 H527 0.951 . S
C515 C514 1.392 . S
C515 C517 1.384 . S
H516 C518 0.949 . S
C517 C515 1.384 . S
C517 C518 1.385 . S
C517 H519 0.950 . S
C518 C512 1.404 . S
C518 H516 0.949 . S
C518 C517 1.385 . S
H519 C517 0.950 . S
H520 C504 0.951 . S
H521 C506 0.951 . S
H522 C508 0.951 . S
H523 C509 0.950 . S
H524 C510 0.950 . S
H525 C511 0.950 . S
H526 C513 0.950 . S
H527 C514 0.951 . S
C528 C529 1.386 . S
C528 C530 1.383 . S
C528 H544 0.951 . S
C529 C528 1.386 . S
C529 C533 1.383 . S
C530 C528 1.383 . S
C530 C531 1.402 . S
C530 H545 0.951 . S
C531 C530 1.402 . S
C531 C532 1.375 1_554 S
C531 C534 1.481 . S
C532 C531 1.375 1_556 S
C532 C533 1.367 1_556 S
C532 H546 0.951 . S
C533 C529 1.383 . S
C533 C532 1.367 1_554 S
C533 H547 0.950 1_554 S
C534 C531 1.481 . S
C534 C535 1.297 . S
C534 H548 0.950 1_554 S
C535 C534 1.297 . S
C535 C536 1.479 . S
C535 H549 0.950 . S
C536 C535 1.479 . S
C536 C537 1.375 . S
C536 C542 1.404 1_554 S
C537 C536 1.375 . S
C537 C538 1.369 . S
C537 H550 0.950 . S
C538 C537 1.369 . S
C538 C539 1.392 1_554 S
C538 H551 0.951 . S
C539 C538 1.392 1_556 S
C539 C541 1.384 . S
H540 C542 0.949 . S
C541 C539 1.384 . S
C541 C542 1.385 . S
C541 H543 0.950 . S
C542 C536 1.404 1_556 S
C542 H540 0.949 . S
C542 C541 1.385 . S
H543 C541 0.950 . S
H544 C528 0.951 . S
H545 C530 0.951 . S
H546 C532 0.951 . S
H547 C533 0.950 1_556 S
H548 C534 0.950 1_556 S
H549 C535 0.950 . S
H550 C537 0.950 . S
H551 C538 0.951 . S
C552 C553 1.386 . S
C552 C554 1.383 . S
C552 H568 0.951 . S
C553 C552 1.386 . S
C553 C557 1.383 . S
C554 C552 1.383 . S
C554 C555 1.402 . S
C554 H569 0.951 . S
C555 C554 1.402 . S
C555 C556 1.375 . S
C555 C558 1.481 . S
C556 C555 1.375 . S
C556 C557 1.367 . S
C556 H570 0.951 . S
C557 C553 1.383 . S
C557 C556 1.367 . S
C557 H571 0.950 . S
C558 C555 1.481 . S
C558 C559 1.297 . S
C558 H572 0.950 . S
C559 C558 1.297 . S
C559 C560 1.479 . S
C559 H573 0.950 . S
C560 C559 1.479 . S
C560 C561 1.375 . S
C560 C566 1.404 . S
C561 C560 1.375 . S
C561 C562 1.369 . S
C561 H574 0.950 . S
C562 C561 1.369 . S
C562 C563 1.392 . S
C562 H575 0.951 . S
C563 C562 1.392 . S
C563 C565 1.384 . S
H564 C566 0.949 . S
C565 C563 1.384 . S
C565 C566 1.385 . S
C565 H567 0.950 . S
C566 C560 1.404 . S
C566 H564 0.949 . S
C566 C565 1.385 . S
H567 C565 0.950 . S
H568 C552 0.951 . S
H569 C554 0.951 . S
H570 C556 0.951 . S
H571 C557 0.950 . S
H572 C558 0.950 . S
H573 C559 0.950 . S
H574 C561 0.950 . S
H575 C562 0.951 . S
C576 C577 1.386 . S
C576 C578 1.383 . S
C576 H592 0.951 . S
C577 C576 1.386 . S
C577 C581 1.383 . S
C578 C576 1.383 . S
C578 C579 1.402 . S
C578 H593 0.951 . S
C579 C578 1.402 . S
C579 C580 1.375 . S
C579 C582 1.481 . S
C580 C579 1.375 . S
C580 C581 1.367 . S
C580 H594 0.951 . S
C581 C577 1.383 . S
C581 C580 1.367 . S
C581 H595 0.950 . S
C582 C579 1.481 . S
C582 C583 1.297 . S
C582 H596 0.950 . S
C583 C582 1.297 . S
C583 C584 1.479 . S
C583 H597 0.950 . S
C584 C583 1.479 . S
C584 C585 1.375 . S
C584 C590 1.404 . S
C585 C584 1.375 . S
C585 C586 1.369 . S
C585 H598 0.950 . S
C586 C585 1.369 . S
C586 C587 1.392 . S
C586 H599 0.951 . S
C587 C586 1.392 . S
C587 C589 1.384 . S
H588 C590 0.949 . S
C589 C587 1.384 . S
C589 C590 1.385 . S
C589 H591 0.950 . S
C590 C584 1.404 . S
C590 H588 0.949 . S
C590 C589 1.385 . S
H591 C589 0.950 . S
H592 C576 0.951 . S
H593 C578 0.951 . S
H594 C580 0.951 . S
H595 C581 0.950 . S
H596 C582 0.950 . S
H597 C583 0.950 . S
H598 C585 0.950 . S
H599 C586 0.951 . S
C600 C601 1.386 . S
C600 C602 1.383 . S
C600 H616 0.951 . S
C601 C600 1.386 . S
C601 C605 1.383 . S
C602 C600 1.383 . S
C602 C603 1.402 . S
C602 H617 0.951 . S
C603 C602 1.402 . S
C603 C604 1.375 . S
C603 C606 1.481 . S
C604 C603 1.375 . S
C604 C605 1.367 . S
C604 H618 0.951 1_556 S
C605 C601 1.383 . S
C605 C604 1.367 . S
C605 H619 0.973 1_556 S
C606 C603 1.481 . S
C606 C607 1.297 . S
C606 H620 0.950 1_556 S
C607 C606 1.297 . S
C607 C608 1.479 . S
C607 H621 0.950 . S
C608 C607 1.479 . S
C608 C609 1.375 . S
C608 C614 1.404 1_556 S
C609 C608 1.375 . S
C609 C610 1.369 . S
C609 H622 0.950 . S
C610 C609 1.369 . S
C610 C611 1.392 1_556 S
C610 H623 0.951 . S
C611 C610 1.392 1_554 S
C611 C613 1.384 . S
H612 C614 0.949 . S
C613 C611 1.384 . S
C613 C614 1.385 . S
C613 H615 0.950 . S
C614 C608 1.404 1_554 S
C614 H612 0.949 . S
C614 C613 1.385 . S
H615 C613 0.950 . S
H616 C600 0.951 . S
H617 C602 0.951 . S
H618 C604 0.951 1_554 S
H619 C605 0.973 1_554 S
H620 C606 0.950 1_554 S
H621 C607 0.950 . S
H622 C609 0.950 . S
H623 C610 0.951 . S
C624 C625 1.386 . S
C624 C626 1.383 . S
C624 H640 0.951 . S
C625 C624 1.386 . S
C625 C629 1.383 . S
C626 C624 1.383 . S
C626 C627 1.402 . S
C626 H641 0.951 . S
C627 C626 1.402 . S
C627 C628 1.375 . S
C627 C630 1.481 . S
C628 C627 1.375 . S
C628 C629 1.367 . S
C628 H642 0.951 . S
C629 C625 1.383 . S
C629 C628 1.367 . S
C629 H643 0.950 . S
C630 C627 1.481 . S
C630 C631 1.297 . S
C630 H644 0.950 . S
C631 C630 1.297 . S
C631 C632 1.479 . S
C631 H645 0.950 . S
C632 C631 1.479 . S
C632 C633 1.375 . S
C632 C638 1.404 . S
C633 C632 1.375 . S
C633 C634 1.369 . S
C633 H646 0.950 . S
C634 C633 1.369 . S
C634 C635 1.392 . S
C634 H647 0.951 . S
C635 C634 1.392 . S
C635 C637 1.384 . S
H636 C638 0.949 . S
C637 C635 1.384 . S
C637 C638 1.385 . S
C637 H639 0.950 . S
C638 C632 1.404 . S
C638 H636 0.949 . S
C638 C637 1.385 . S
H639 C637 0.950 . S
H640 C624 0.951 . S
H641 C626 0.951 . S
H642 C628 0.951 . S
H643 C629 0.950 . S
H644 C630 0.950 . S
H645 C631 0.950 . S
H646 C633 0.950 . S
H647 C634 0.951 . S
C648 C649 1.386 . S
C648 C650 1.383 . S
C648 H664 0.951 . S
C649 C648 1.386 . S
C649 C653 1.383 . S
C650 C648 1.383 . S
C650 C651 1.402 . S
C650 H665 0.951 . S
C651 C650 1.402 . S
C651 C652 1.375 . S
C651 C654 1.481 . S
C652 C651 1.375 . S
C652 C653 1.367 . S
C652 H666 0.951 . S
C653 C649 1.383 . S
C653 C652 1.367 . S
C653 H667 0.950 . S
C654 C651 1.481 . S
C654 C655 1.297 . S
C654 H668 0.950 . S
C655 C654 1.297 . S
C655 C656 1.479 . S
C655 H669 0.950 . S
C656 C655 1.479 . S
C656 C657 1.375 . S
C656 C662 1.404 . S
C657 C656 1.375 . S
C657 C658 1.369 . S
C657 H670 0.950 . S
C658 C657 1.369 . S
C658 C659 1.392 . S
C658 H671 0.951 . S
C659 C658 1.392 . S
C659 C661 1.384 . S
H660 C662 0.949 . S
C661 C659 1.384 . S
C661 C662 1.385 . S
C661 H663 0.950 . S
C662 C656 1.404 . S
C662 H660 0.949 . S
C662 C661 1.385 . S
H663 C661 0.950 . S
H664 C648 0.951 . S
H665 C650 0.951 . S
H666 C652 0.951 . S
H667 C653 0.950 . S
H668 C654 0.950 . S
H669 C655 0.950 . S
H670 C657 0.950 . S
H671 C658 0.951 . S
C289 C50 1.365 . S
C299 C14 1.382 . S
C313 C39 1.422 . S
C323 C75 1.412 . S
C337 C122 1.343 . S
C347 C86 1.341 . S
C361 C111 1.420 . S
C371 C3 1.417 . S
C385 C158 1.296 . S
C395 C194 1.266 . S
C409 C183 1.419 . S
C419 C219 1.415 . S
C433 C230 1.336 . S
C443 C266 1.330 . S
C457 C147 1.419 . S
C467 C255 1.410 . S
C481 C4 1.434 . S
C491 C256 1.401 . S
C505 C146 1.435 . S
C515 C38 1.418 . S
C529 C184 1.444 . S
C539 C76 1.461 . S
C553 C110 1.431 . S
C563 C218 1.394 . S
C577 C74 1.403 . S
C587 C254 1.381 . S
C601 C148 1.443 . S
C611 C112 1.460 . S
C625 C182 1.432 . S
C635 C2 1.433 . S
C649 C40 1.421 . S
C659 C220 1.411 . S
