# Generated by pormake.
# Topology sxf, (6)-cn, num edge types: 1
# Building blocks:
#     Node 0, Type 0, BuildingBlock: OJICUG_clean_sbu_0, # of connection points: 6
#     Node 1, Type 0, BuildingBlock: OJICUG_clean_sbu_0, # of connection points: 6
#     Node 2, Type 0, BuildingBlock: OJICUG_clean_sbu_0, # of connection points: 6
#     Node 3, Type 0, BuildingBlock: OJICUG_clean_sbu_0, # of connection points: 6
#     Node 4, Type 0, BuildingBlock: OJICUG_clean_sbu_0, # of connection points: 6
#     Node 5, Type 0, BuildingBlock: OJICUG_clean_sbu_0, # of connection points: 6
#     Node 6, Type 0, BuildingBlock: OJICUG_clean_sbu_0, # of connection points: 6
#     Node 7, Type 0, BuildingBlock: OJICUG_clean_sbu_0, # of connection points: 6
#     Node 8, Type 0, BuildingBlock: OJICUG_clean_sbu_0, # of connection points: 6
#     Node 9, Type 0, BuildingBlock: OJICUG_clean_sbu_0, # of connection points: 6
#     Node 10, Type 0, BuildingBlock: OJICUG_clean_sbu_0, # of connection points: 6
#     Node 11, Type 0, BuildingBlock: OJICUG_clean_sbu_0, # of connection points: 6
#     Node 12, Type 0, BuildingBlock: OJICUG_clean_sbu_0, # of connection points: 6
#     Node 13, Type 0, BuildingBlock: OJICUG_clean_sbu_0, # of connection points: 6
#     Node 14, Type 0, BuildingBlock: OJICUG_clean_sbu_0, # of connection points: 6
#     Node 15, Type 0, BuildingBlock: OJICUG_clean_sbu_0, # of connection points: 6
#     Node 16, Type 0, BuildingBlock: OJICUG_clean_sbu_0, # of connection points: 6
#     Node 17, Type 0, BuildingBlock: OJICUG_clean_sbu_0, # of connection points: 6
#     Node 18, Type 0, BuildingBlock: OJICUG_clean_sbu_0, # of connection points: 6
#     Node 19, Type 0, BuildingBlock: OJICUG_clean_sbu_0, # of connection points: 6
#     Node 20, Type 0, BuildingBlock: OJICUG_clean_sbu_0, # of connection points: 6
#     Node 21, Type 0, BuildingBlock: OJICUG_clean_sbu_0, # of connection points: 6
#     Node 22, Type 0, BuildingBlock: OJICUG_clean_sbu_0, # of connection points: 6
#     Node 23, Type 0, BuildingBlock: OJICUG_clean_sbu_0, # of connection points: 6
#     Edge 24, Type (0, 0), BuildingBlock: AJUNOK_clean_linker_0, # of connection points: 2
#     Edge 25, Type (0, 0), BuildingBlock: AJUNOK_clean_linker_0, # of connection points: 2
#     Edge 26, Type (0, 0), BuildingBlock: AJUNOK_clean_linker_0, # of connection points: 2
#     Edge 27, Type (0, 0), BuildingBlock: AJUNOK_clean_linker_0, # of connection points: 2
#     Edge 28, Type (0, 0), BuildingBlock: AJUNOK_clean_linker_0, # of connection points: 2
#     Edge 29, Type (0, 0), BuildingBlock: AJUNOK_clean_linker_0, # of connection points: 2
#     Edge 30, Type (0, 0), BuildingBlock: AJUNOK_clean_linker_0, # of connection points: 2
#     Edge 31, Type (0, 0), BuildingBlock: AJUNOK_clean_linker_0, # of connection points: 2
#     Edge 32, Type (0, 0), BuildingBlock: AJUNOK_clean_linker_0, # of connection points: 2
#     Edge 33, Type (0, 0), BuildingBlock: AJUNOK_clean_linker_0, # of connection points: 2
#     Edge 34, Type (0, 0), BuildingBlock: AJUNOK_clean_linker_0, # of connection points: 2
#     Edge 35, Type (0, 0), BuildingBlock: AJUNOK_clean_linker_0, # of connection points: 2
#     Edge 36, Type (0, 0), BuildingBlock: AJUNOK_clean_linker_0, # of connection points: 2
#     Edge 37, Type (0, 0), BuildingBlock: AJUNOK_clean_linker_0, # of connection points: 2
#     Edge 38, Type (0, 0), BuildingBlock: AJUNOK_clean_linker_0, # of connection points: 2
#     Edge 39, Type (0, 0), BuildingBlock: AJUNOK_clean_linker_0, # of connection points: 2
#     Edge 40, Type (0, 0), BuildingBlock: AJUNOK_clean_linker_0, # of connection points: 2
#     Edge 41, Type (0, 0), BuildingBlock: AJUNOK_clean_linker_0, # of connection points: 2
#     Edge 42, Type (0, 0), BuildingBlock: AJUNOK_clean_linker_0, # of connection points: 2
#     Edge 43, Type (0, 0), BuildingBlock: AJUNOK_clean_linker_0, # of connection points: 2
#     Edge 44, Type (0, 0), BuildingBlock: AJUNOK_clean_linker_0, # of connection points: 2
#     Edge 45, Type (0, 0), BuildingBlock: AJUNOK_clean_linker_0, # of connection points: 2
#     Edge 46, Type (0, 0), BuildingBlock: AJUNOK_clean_linker_0, # of connection points: 2
#     Edge 47, Type (0, 0), BuildingBlock: AJUNOK_clean_linker_0, # of connection points: 2
#     Edge 48, Type (0, 0), BuildingBlock: AJUNOK_clean_linker_0, # of connection points: 2
#     Edge 49, Type (0, 0), BuildingBlock: AJUNOK_clean_linker_0, # of connection points: 2
#     Edge 50, Type (0, 0), BuildingBlock: AJUNOK_clean_linker_0, # of connection points: 2
#     Edge 51, Type (0, 0), BuildingBlock: AJUNOK_clean_linker_0, # of connection points: 2
#     Edge 52, Type (0, 0), BuildingBlock: AJUNOK_clean_linker_0, # of connection points: 2
#     Edge 53, Type (0, 0), BuildingBlock: AJUNOK_clean_linker_0, # of connection points: 2
#     Edge 54, Type (0, 0), BuildingBlock: AJUNOK_clean_linker_0, # of connection points: 2
#     Edge 55, Type (0, 0), BuildingBlock: AJUNOK_clean_linker_0, # of connection points: 2
#     Edge 56, Type (0, 0), BuildingBlock: AJUNOK_clean_linker_0, # of connection points: 2
#     Edge 57, Type (0, 0), BuildingBlock: AJUNOK_clean_linker_0, # of connection points: 2
#     Edge 58, Type (0, 0), BuildingBlock: AJUNOK_clean_linker_0, # of connection points: 2
#     Edge 59, Type (0, 0), BuildingBlock: AJUNOK_clean_linker_0, # of connection points: 2
#     Edge 60, Type (0, 0), BuildingBlock: AJUNOK_clean_linker_0, # of connection points: 2
#     Edge 61, Type (0, 0), BuildingBlock: AJUNOK_clean_linker_0, # of connection points: 2
#     Edge 62, Type (0, 0), BuildingBlock: AJUNOK_clean_linker_0, # of connection points: 2
#     Edge 63, Type (0, 0), BuildingBlock: AJUNOK_clean_linker_0, # of connection points: 2
#     Edge 64, Type (0, 0), BuildingBlock: AJUNOK_clean_linker_0, # of connection points: 2
#     Edge 65, Type (0, 0), BuildingBlock: AJUNOK_clean_linker_0, # of connection points: 2
#     Edge 66, Type (0, 0), BuildingBlock: AJUNOK_clean_linker_0, # of connection points: 2
#     Edge 67, Type (0, 0), BuildingBlock: AJUNOK_clean_linker_0, # of connection points: 2
#     Edge 68, Type (0, 0), BuildingBlock: AJUNOK_clean_linker_0, # of connection points: 2
#     Edge 69, Type (0, 0), BuildingBlock: AJUNOK_clean_linker_0, # of connection points: 2
#     Edge 70, Type (0, 0), BuildingBlock: AJUNOK_clean_linker_0, # of connection points: 2
#     Edge 71, Type (0, 0), BuildingBlock: AJUNOK_clean_linker_0, # of connection points: 2
#     Edge 72, Type (0, 0), BuildingBlock: AJUNOK_clean_linker_0, # of connection points: 2
#     Edge 73, Type (0, 0), BuildingBlock: AJUNOK_clean_linker_0, # of connection points: 2
#     Edge 74, Type (0, 0), BuildingBlock: AJUNOK_clean_linker_0, # of connection points: 2
#     Edge 75, Type (0, 0), BuildingBlock: AJUNOK_clean_linker_0, # of connection points: 2
#     Edge 76, Type (0, 0), BuildingBlock: AJUNOK_clean_linker_0, # of connection points: 2
#     Edge 77, Type (0, 0), BuildingBlock: AJUNOK_clean_linker_0, # of connection points: 2
#     Edge 78, Type (0, 0), BuildingBlock: AJUNOK_clean_linker_0, # of connection points: 2
#     Edge 79, Type (0, 0), BuildingBlock: AJUNOK_clean_linker_0, # of connection points: 2
#     Edge 80, Type (0, 0), BuildingBlock: AJUNOK_clean_linker_0, # of connection points: 2
#     Edge 81, Type (0, 0), BuildingBlock: AJUNOK_clean_linker_0, # of connection points: 2
#     Edge 82, Type (0, 0), BuildingBlock: AJUNOK_clean_linker_0, # of connection points: 2
#     Edge 83, Type (0, 0), BuildingBlock: AJUNOK_clean_linker_0, # of connection points: 2
#     Edge 84, Type (0, 0), BuildingBlock: AJUNOK_clean_linker_0, # of connection points: 2
#     Edge 85, Type (0, 0), BuildingBlock: AJUNOK_clean_linker_0, # of connection points: 2
#     Edge 86, Type (0, 0), BuildingBlock: AJUNOK_clean_linker_0, # of connection points: 2
#     Edge 87, Type (0, 0), BuildingBlock: AJUNOK_clean_linker_0, # of connection points: 2
#     Edge 88, Type (0, 0), BuildingBlock: AJUNOK_clean_linker_0, # of connection points: 2
#     Edge 89, Type (0, 0), BuildingBlock: AJUNOK_clean_linker_0, # of connection points: 2
#     Edge 90, Type (0, 0), BuildingBlock: AJUNOK_clean_linker_0, # of connection points: 2
#     Edge 91, Type (0, 0), BuildingBlock: AJUNOK_clean_linker_0, # of connection points: 2
#     Edge 92, Type (0, 0), BuildingBlock: AJUNOK_clean_linker_0, # of connection points: 2
#     Edge 93, Type (0, 0), BuildingBlock: AJUNOK_clean_linker_0, # of connection points: 2
#     Edge 94, Type (0, 0), BuildingBlock: AJUNOK_clean_linker_0, # of connection points: 2
#     Edge 95, Type (0, 0), BuildingBlock: AJUNOK_clean_linker_0, # of connection points: 2
# Relax obj value: 0.447
# Max RMSD: 0.186
# Mean RMSD: 0.186
data_MOF--net-sxf--node1-OJICUG_clean_sbu_0--edge1-AJUNOK_clean_linker_0
_symmetry_space_group_name_H-M    P1
_symmetry_Int_Tables_number       1
_symmetry_cell_setting            triclinic
loop_
_symmetry_equiv_pos_as_xyz
'x, y, z'
_cell_length_a     35.327711
_cell_length_b     35.223233
_cell_length_c     35.35165
_cell_angle_alpha  90.105549
_cell_angle_beta   90.173994
_cell_angle_gamma 89.792792
loop_
_atom_site_label
_atom_site_type_symbol
_atom_site_fract_x
_atom_site_fract_y
_atom_site_fract_z
_atom_type_partial_charge
Sc0 Sc 0.07033 0.46666 0.15748 0.0
Sc1 Sc 0.07545 0.38867 0.21682 0.0
Sc2 Sc 0.03184 0.47414 0.24795 0.0
O3 O 0.05878 0.44313 0.20762 0.0
C4 C 0.08059 0.53928 0.20953 0.0
C5 C 0.1429 0.41758 0.16432 0.0
C6 C 0.10286 0.43474 0.2887 0.0
C7 C 0.04249 0.38258 0.13549 0.0
C8 C 0.98449 0.49154 0.17374 0.0
C9 C 0.00175 0.39279 0.26886 0.0
O10 O 0.08742 0.52009 0.18003 0.0
O11 O 0.12529 0.39157 0.18161 0.0
O12 O 0.07615 0.45928 0.28721 0.0
O13 O 0.05447 0.41575 0.12797 0.0
O14 O 0.98645 0.48923 0.20968 0.0
O15 O 0.02858 0.3751 0.25285 0.0
O16 O 0.01263 0.48523 0.15215 0.0
O17 O 0.04389 0.36833 0.16858 0.0
O18 O -0.00202 0.4284 0.26742 0.0
O19 O 0.1287 0.45028 0.15939 0.0
O20 O 0.06029 0.52684 0.23622 0.0
O21 O 0.10785 0.40823 0.26455 0.0
Sc22 Sc 0.46005 0.51535 0.75342 0.0
Sc23 Sc 0.41717 0.60147 0.72222 0.0
Sc24 Sc 0.42337 0.52349 0.66246 0.0
O25 O 0.43416 0.54698 0.71281 0.0
C26 C 0.50971 0.50063 0.68091 0.0
C27 C 0.48936 0.59721 0.77638 0.0
C28 C 0.44943 0.60835 0.64098 0.0
C29 C 0.38644 0.55221 0.79097 0.0
C30 C 0.41488 0.44948 0.71178 0.0
C31 C 0.35052 0.57223 0.6684 0.0
O32 O 0.50763 0.50359 0.71685 0.0
O33 O 0.46453 0.61545 0.75786 0.0
O34 O 0.43903 0.57457 0.63373 0.0
O35 O 0.41213 0.52661 0.78929 0.0
O36 O 0.40582 0.46978 0.68373 0.0
O37 O 0.36747 0.59818 0.68663 0.0
O38 O 0.43573 0.46157 0.73827 0.0
O39 O 0.38454 0.58117 0.76939 0.0
O40 O 0.36501 0.53969 0.66325 0.0
O41 O 0.49088 0.56144 0.77695 0.0
O42 O 0.48147 0.50539 0.65881 0.0
O43 O 0.4478 0.62284 0.674 0.0
Sc44 Sc 0.5319 0.01526 0.72986 0.0
Sc45 Sc 0.57477 0.0991 0.76512 0.0
Sc46 Sc 0.56872 0.01921 0.82147 0.0
O47 O 0.55813 0.04446 0.7719 0.0
C48 C 0.48346 -0.00502 0.80266 0.0
C49 C 0.50047 0.09737 0.71351 0.0
C50 C 0.54119 0.10272 0.84588 0.0
C51 C 0.60315 0.05637 0.69186 0.0
C52 C 0.57945 0.94827 0.76674 0.0
C53 C 0.64188 0.06694 0.817 0.0
O54 O 0.48654 -0.00239 0.76683 0.0
O55 O 0.52792 0.11429 0.72926 0.0
O56 O 0.55372 0.06949 0.85269 0.0
O57 O 0.57617 0.03227 0.69154 0.0
O58 O 0.5846 0.9659 0.79754 0.0
O59 O 0.62432 0.09412 0.80109 0.0
O60 O 0.56131 0.96243 0.73919 0.0
O61 O 0.60779 0.08162 0.71732 0.0
O62 O 0.62735 0.03429 0.82044 0.0
O63 O 0.49714 0.06171 0.71327 0.0
O64 O 0.5107 0.00194 0.82532 0.0
O65 O 0.54239 0.1176 0.81314 0.0
Sc66 Sc 0.92009 0.95565 0.32374 0.0
Sc67 Sc 0.91223 0.88245 0.25856 0.0
Sc68 Sc 0.96097 0.96721 0.23534 0.0
O69 O 0.93186 0.93491 0.27248 0.0
C70 C 0.91397 0.03193 0.27672 0.0
C71 C 0.84595 0.91104 0.31254 0.0
C72 C 0.88715 0.93706 0.19211 0.0
C73 C 0.94444 0.86867 0.33895 0.0
C74 C 0.00697 0.97788 0.31167 0.0
C75 C 0.98706 0.88663 0.20808 0.0
O76 O 0.90583 0.01155 0.30498 0.0
O77 O 0.86284 0.8847 0.29474 0.0
O78 O 0.91647 0.95806 0.19486 0.0
O79 O 0.93345 0.90166 0.34905 0.0
O80 O 0.00587 0.97768 0.2756 0.0
O81 O 0.95835 0.86954 0.22095 0.0
O82 O 0.97817 0.97113 0.33213 0.0
O83 O 0.94287 0.85668 0.3049 0.0
O84 O -0.00666 0.92139 0.21363 0.0
O85 O 0.86126 0.9429 0.31846 0.0
O86 O 0.93431 0.02002 0.2498 0.0
O87 O 0.88049 0.90851 0.21328 0.0
Sc88 Sc 0.16668 0.06035 0.47193 0.0
Sc89 Sc 0.22318 0.06394 0.3914 0.0
Sc90 Sc 0.2568 0.02091 0.47592 0.0
O91 O 0.21564 0.04816 0.44615 0.0
C92 C 0.21958 0.07008 0.54214 0.0
C93 C 0.1729 0.13325 0.42084 0.0
C94 C 0.29608 0.09185 0.43662 0.0
C95 C 0.14132 0.02976 0.39004 0.0
C96 C 0.18484 0.97435 0.49729 0.0
C97 C 0.27451 0.98959 0.3939 0.0
O98 O 0.1927 0.08255 0.52188 0.0
O99 O 0.19175 0.1164 0.39536 0.0
O100 O 0.29411 0.06714 0.46298 0.0
O101 O 0.13537 0.03959 0.42417 0.0
O102 O 0.21983 0.97422 0.48874 0.0
O103 O 0.2551 0.01432 0.37652 0.0
O104 O 0.16405 0.00392 0.49508 0.0
O105 O 0.17268 0.035 0.37319 0.0
O106 O 0.27778 0.98912 0.42941 0.0
O107 O 0.16429 0.11752 0.45181 0.0
O108 O 0.24339 0.04615 0.52982 0.0
O109 O 0.27327 0.09402 0.40863 0.0
Sc110 Sc 0.32342 0.91724 0.96113 0.0
Sc111 Sc 0.26514 0.91089 0.88223 0.0
Sc112 Sc 0.23143 0.95296 0.96734 0.0
O113 O 0.2731 0.92736 0.93687 0.0
C114 C 0.27087 0.90553 0.03293 0.0
C115 C 0.31695 0.84333 0.9133 0.0
C116 C 0.19244 0.88223 0.92612 0.0
C117 C 0.34659 0.94385 0.87744 0.0
C118 C 0.30395 0.00274 0.98522 0.0
C119 C 0.21299 0.98497 0.88594 0.0
O120 O 0.30109 0.90055 0.01448 0.0
O121 O 0.29992 0.86051 0.88666 0.0
O122 O 0.19338 0.90812 0.95143 0.0
O123 O 0.35345 0.93264 0.91092 0.0
O124 O 0.2681 -0.00087 0.98359 0.0
O125 O 0.23 0.95873 0.86817 0.0
O126 O 0.32699 0.97564 0.97851 0.0
O127 O 0.31379 0.94207 0.86251 0.0
O128 O 0.21222 0.98701 0.92158 0.0
O129 O 0.32272 0.85856 0.94534 0.0
O130 O 0.24299 0.92409 0.01986 0.0
O131 O 0.21686 0.87836 0.8999 0.0
Sc132 Sc 0.66203 0.42117 0.51717 0.0
Sc133 Sc 0.72336 0.41284 0.59408 0.0
Sc134 Sc 0.75309 0.45843 0.5095 0.0
O135 O 0.71299 0.43102 0.5403 0.0
C136 C 0.7135 0.4102 0.44453 0.0
C137 C 0.67156 0.34548 0.563 0.0
C138 C 0.79588 0.38799 0.54766 0.0
C139 C 0.642 0.44705 0.60201 0.0
C140 C 0.67926 0.50672 0.49201 0.0
C141 C 0.77231 0.48894 0.59114 0.0
O142 O 0.68393 0.40385 0.46363 0.0
O143 O 0.6906 0.36124 0.58914 0.0
O144 O 0.79327 0.41463 0.52338 0.0
O145 O 0.63366 0.43798 0.56816 0.0
O146 O 0.71512 0.50413 0.49445 0.0
O147 O 0.75702 0.46151 0.60846 0.0
O148 O 0.65731 0.47904 0.49893 0.0
O149 O 0.67467 0.4421 0.61641 0.0
O150 O 0.77183 0.49227 0.5556 0.0
O151 O 0.66235 0.3626 0.53284 0.0
O152 O 0.74088 0.4297 0.4571 0.0
O153 O 0.77217 0.3824 0.57414 0.0
Sc154 Sc 0.72853 0.53221 0.01621 0.0
Sc155 Sc 0.76505 0.57529 0.09927 0.0
Sc156 Sc 0.81961 0.56994 0.01794 0.0
O157 O 0.77093 0.55874 0.04449 0.0
C158 C 0.80096 0.48404 -0.00599 0.0
C159 C 0.71316 0.50119 0.09836 0.0
C160 C 0.84638 0.54173 0.10032 0.0
C161 C 0.69158 0.60461 0.05688 0.0
C162 C 0.76362 0.57909 0.94825 0.0
C163 C 0.81595 0.64276 0.06727 0.0
O164 O 0.76531 0.4863 -0.001 0.0
O165 O 0.72997 0.52816 0.11513 0.0
O166 O 0.85203 0.55386 0.06693 0.0
O167 O 0.69087 0.5776 0.03268 0.0
O168 O 0.79408 0.58669 0.96562 0.0
O169 O 0.79997 0.62509 0.09401 0.0
O170 O 0.73733 0.55988 0.96297 0.0
O171 O 0.71676 0.60839 0.08251 0.0
O172 O 0.81926 0.62857 0.03444 0.0
O173 O 0.71217 0.49832 0.06284 0.0
O174 O 0.82328 0.51195 -0.00075 0.0
O175 O 0.81434 0.54355 0.11669 0.0
Sc176 Sc 0.46118 0.25544 0.02346 0.0
Sc177 Sc 0.37733 0.22373 0.0682 0.0
Sc178 Sc 0.45667 0.1655 0.06408 0.0
O179 O 0.43167 0.21496 0.05148 0.0
C180 C 0.48258 0.18067 0.97862 0.0
C181 C 0.37964 0.27232 -0.00795 0.0
C182 C 0.37359 0.14171 0.03566 0.0
C183 C 0.42218 0.29697 0.09396 0.0
C184 C 0.52705 0.22018 0.07359 0.0
C185 C 0.40727 0.17245 0.13634 0.0
O186 O 0.47808 0.21652 0.97957 0.0
O187 O 0.36267 0.25822 0.02022 0.0
O188 O 0.40699 0.13473 0.04739 0.0
O189 O 0.44543 0.29581 0.0664 0.0
O190 O 0.50886 0.19035 0.0815 0.0
O191 O 0.38106 0.18959 0.11867 0.0
O192 O 0.51382 0.24603 0.05248 0.0
O193 O 0.3965 0.2723 0.09986 0.0
O194 O 0.43976 0.16734 0.12215 0.0
O195 O 0.41512 0.27158 0.98847 0.0
O196 O 0.47645 0.15942 0.00703 0.0
O197 O 0.35795 0.1743 0.03781 0.0
Sc198 Sc 0.95985 0.32224 0.91619 0.0
Sc199 Sc 0.88086 0.26367 0.91225 0.0
Sc200 Sc 0.96657 0.23137 0.95452 0.0
O201 O 0.93561 0.27233 0.92805 0.0
C202 C 0.0313 0.2693 0.90496 0.0
C203 C 0.90947 0.31474 0.84356 0.0
C204 C 0.92669 0.19135 0.88397 0.0
C205 C 0.87657 0.34617 0.94448 0.0
C206 C 0.9865 0.30478 0.00162 0.0
C207 C 0.88532 0.21244 0.98651 0.0
O208 O 0.01179 0.2983 0.89662 0.0
O209 O 0.88404 0.29644 0.8609 0.0
O210 O 0.95224 0.19297 0.90952 0.0
O211 O 0.91038 0.35264 0.93411 0.0
O212 O 0.98166 0.26898 0.00023 0.0
O213 O 0.86724 0.23005 0.96094 0.0
O214 O 0.98088 0.32648 0.97329 0.0
O215 O 0.86118 0.31361 0.94186 0.0
O216 O 0.92099 0.21137 0.98799 0.0
O217 O 0.94129 0.32219 0.85842 0.0
O218 O 0.01931 0.24359 0.92679 0.0
O219 O 0.89912 0.21461 0.88091 0.0
Sc220 Sc 0.51759 0.66735 0.41783 0.0
Sc221 Sc 0.59617 0.7254 0.41229 0.0
Sc222 Sc 0.5115 0.75897 0.45478 0.0
O223 O 0.54177 0.71744 0.4288 0.0
C224 C 0.44553 0.72041 0.40719 0.0
C225 C 0.56661 0.6712 0.34612 0.0
C226 C 0.55137 0.79738 0.38317 0.0
C227 C 0.60156 0.64446 0.44549 0.0
C228 C 0.49318 0.68578 0.50326 0.0
C229 C 0.59275 0.77912 0.48506 0.0
O230 O 0.46405 0.6902 0.40115 0.0
O231 O 0.5928 0.6883 0.36377 0.0
O232 O 0.52719 0.79711 0.41001 0.0
O233 O 0.56837 0.63733 0.43336 0.0
O234 O 0.49558 0.72177 0.50054 0.0
O235 O 0.61016 0.76273 0.45832 0.0
O236 O 0.49987 0.66331 0.47573 0.0
O237 O 0.61596 0.67756 0.4448 0.0
O238 O 0.55728 0.77799 0.48885 0.0
O239 O 0.53346 0.66846 0.35939 0.0
O240 O 0.45882 0.74786 0.42613 0.0
O241 O 0.57726 0.77248 0.37857 0.0
Sc242 Sc 0.00811 0.72438 0.52972 0.0
Sc243 Sc 0.09209 0.75926 0.57346 0.0
Sc244 Sc 0.01442 0.81832 0.56092 0.0
O245 O 0.03827 0.76711 0.55433 0.0
C246 C -0.00727 0.79492 0.47593 0.0
C247 C 0.09065 0.70447 0.5016 0.0
C248 C 0.10014 0.8401 0.53972 0.0
C249 C 0.04614 0.68821 0.60344 0.0
C250 C 0.94168 0.76669 0.5726 0.0
C251 C 0.05831 0.81381 0.63737 0.0
O252 O -0.00659 0.75917 0.48147 0.0
O253 O 0.10767 0.72283 0.52736 0.0
O254 O 0.06584 0.84736 0.54775 0.0
O255 O 0.02178 0.68808 0.57672 0.0
O256 O 0.96017 0.79717 0.57587 0.0
O257 O 0.08538 0.79537 0.62244 0.0
O258 O 0.95481 0.73751 0.55626 0.0
O259 O 0.07279 0.71224 0.60664 0.0
O260 O 0.02736 0.82014 0.62015 0.0
O261 O 0.05506 0.70343 0.49845 0.0
O262 O -0.00011 0.81924 0.50176 0.0
O263 O 0.11423 0.80693 0.54239 0.0
Sc264 Sc 0.90787 0.51662 0.82068 0.0
Sc265 Sc 0.90526 0.59721 0.76512 0.0
Sc266 Sc 0.94827 0.51265 0.73089 0.0
O267 O 0.92084 0.54213 0.77195 0.0
C268 C -0.00577 0.49349 0.80548 0.0
C269 C 0.93431 0.59945 0.8479 0.0
C270 C 0.98046 0.59467 0.71552 0.0
C271 C 0.8357 0.56581 0.81326 0.0
C272 C 0.89958 0.44572 0.76582 0.0
C273 C 0.87883 0.55474 0.69047 0.0
O274 O 0.96594 0.49915 0.82711 0.0
O275 O 0.93553 0.6149 0.81536 0.0
O276 O 0.98285 0.55893 0.71428 0.0
O277 O 0.84944 0.5327 0.81689 0.0
O278 O 0.91966 0.45939 0.73959 0.0
O279 O 0.87405 0.58053 0.71543 0.0
O280 O 0.89254 0.46374 0.79595 0.0
O281 O 0.85433 0.59265 0.7984 0.0
O282 O 0.90486 0.52948 0.69156 0.0
O283 O 0.92143 0.56625 0.85287 0.0
O284 O -0.00747 0.49606 0.76956 0.0
O285 O 0.95359 0.61204 0.73176 0.0
Sc286 Sc 0.52875 0.46967 0.22637 0.0
Sc287 Sc 0.56941 0.38228 0.25774 0.0
Sc288 Sc 0.55573 0.45746 0.32055 0.0
O289 O 0.55098 0.43635 0.26806 0.0
C290 C 0.57163 0.53272 0.27355 0.0
C291 C 0.60197 0.43128 0.19001 0.0
C292 C 0.63259 0.4129 0.31461 0.0
C293 C 0.4979 0.38871 0.20247 0.0
C294 C 0.47284 0.48311 0.29513 0.0
C295 C 0.53192 0.37114 0.33679 0.0
O296 O 0.55656 0.52128 0.24311 0.0
O297 O 0.60362 0.40288 0.21211 0.0
O298 O 0.61434 0.44258 0.32388 0.0
O299 O 0.49671 0.42456 0.20262 0.0
O300 O 0.49712 0.47367 0.32012 0.0
O301 O 0.53796 0.35784 0.3039 0.0
O302 O 0.4799 0.48454 0.25987 0.0
O303 O 0.52254 0.36964 0.2206 0.0
O304 O 0.53913 0.40518 0.34601 0.0
O305 O 0.57638 0.45681 0.19107 0.0
O306 O 0.57307 0.51265 0.30315 0.0
O307 O 0.61862 0.38684 0.29403 0.0
Sc308 Sc 0.45135 0.97501 0.25441 0.0
Sc309 Sc 0.41338 0.88857 0.21955 0.0
Sc310 Sc 0.41703 0.96963 0.16252 0.0
O311 O 0.42742 0.94407 0.21217 0.0
C312 C 0.40086 0.03909 0.2149 0.0
C313 C 0.38276 0.93182 0.29259 0.0
C314 C 0.34557 0.91559 0.16626 0.0
C315 C 0.48573 0.89384 0.27276 0.0
C316 C 0.49995 -3e-05 0.18563 0.0
C317 C 0.44882 0.88789 0.13759 0.0
O318 O 0.42457 0.02808 0.23955 0.0
O319 O 0.3827 0.90354 0.27005 0.0
O320 O 0.36162 0.94608 0.15628 0.0
O321 O 0.48353 0.92935 0.27669 0.0
O322 O 0.47192 -0.00335 0.16306 0.0
O323 O 0.44213 0.87101 0.16869 0.0
O324 O 0.499 0.98977 0.22007 0.0
O325 O 0.46359 0.87522 0.25148 0.0
O326 O 0.44122 0.92282 0.13213 0.0
O327 O 0.40487 0.96026 0.29007 0.0
O328 O 0.39063 0.01814 0.18763 0.0
O329 O 0.36105 0.89166 0.1882 0.0
Sc330 Sc 0.06229 0.02047 0.66424 0.0
Sc331 Sc 0.07097 0.09904 0.7227 0.0
Sc332 Sc 0.02648 0.01509 0.7559 0.0
O333 O 0.05285 0.04489 0.7145 0.0
C334 C 0.97621 0.00037 0.68295 0.0
C335 C 0.03934 0.10572 0.64112 0.0
C336 C -0.00298 0.09794 0.77413 0.0
C337 C 0.13777 0.06476 0.67228 0.0
C338 C 0.06946 0.94702 0.71594 0.0
C339 C 0.0992 0.05268 0.79439 0.0
O340 O 0.00337 0.00637 0.66008 0.0
O341 O 0.04084 0.12026 0.67403 0.0
O342 O -0.00546 0.06225 0.7754 0.0
O343 O 0.12145 0.03327 0.66624 0.0
O344 O 0.05241 0.96114 0.74406 0.0
O345 O 0.1027 0.07974 0.77081 0.0
O346 O 0.07571 0.96556 0.68601 0.0
O347 O 0.1213 0.09237 0.68861 0.0
O348 O 0.07257 0.02825 0.79367 0.0
O349 O 0.04975 0.07184 0.63419 0.0
O350 O 0.97975 0.00122 0.71886 0.0
O351 O 0.02343 0.11505 0.75708 0.0
Sc352 Sc 0.73177 0.96236 0.51103 0.0
Sc353 Sc 0.76104 0.91665 0.59615 0.0
Sc354 Sc 0.82316 0.92536 0.52003 0.0
O355 O 0.77188 0.93496 0.54257 0.0
C356 C 0.77253 0.91251 0.44747 0.0
C357 C 0.68936 0.8916 0.54769 0.0
C358 C 0.81402 0.84956 0.56706 0.0
C359 C 0.71194 0.99275 0.593 0.0
C360 C 0.80463 0.01084 0.4938 0.0
C361 C 0.8424 0.95182 0.6047 0.0
O362 O 0.74646 0.93477 0.45844 0.0
O363 O 0.71168 0.88749 0.57575 0.0
O364 O 0.82582 0.86762 0.5385 0.0
O365 O 0.71028 -0.00524 0.55733 0.0
O366 O 0.82634 0.98241 0.499 0.0
O367 O 0.81049 0.944 0.61926 0.0
O368 O 0.76893 0.00918 0.49822 0.0
O369 O 0.72903 0.96634 0.61041 0.0
O370 O 0.85065 0.94537 0.5703 0.0
O371 O 0.69268 0.9173 0.52256 0.0
O372 O 0.80103 0.90447 0.46778 0.0
O373 O 0.792 0.8641 0.59136 0.0
Sc374 Sc 0.65814 0.07167 0.02518 0.0
Sc375 Sc 0.71591 0.08225 0.10315 0.0
Sc376 Sc 0.74889 0.03179 0.02334 0.0
O377 O 0.70775 0.06131 0.05048 0.0
C378 C 0.67444 0.98442 0.00562 0.0
C379 C 0.63466 0.05256 0.111 0.0
C380 C 0.76758 0.00779 0.10633 0.0
C381 C 0.66345 0.1471 0.06864 0.0
C382 C 0.71279 0.07607 0.95386 0.0
C383 C 0.78855 0.10592 0.05825 0.0
O384 O 0.65221 0.01231 0.01197 0.0
O385 O 0.66802 0.05132 0.12487 0.0
O386 O 0.764 -0.00128 0.07191 0.0
O387 O 0.66109 0.13162 0.03629 0.0
O388 O 0.74041 0.0589 0.96926 0.0
O389 O 0.76249 0.1143 0.08171 0.0
O390 O 0.68187 0.08238 0.97081 0.0
O391 O 0.67935 0.13057 0.09622 0.0
O392 O 0.78902 0.07575 0.03806 0.0
O393 O 0.62784 0.06236 0.077 0.0
O394 O 0.71039 0.98701 0.00735 0.0
O395 O 0.75372 0.03799 0.12003 0.0
Sc396 Sc 0.32702 0.56516 0.45569 0.0
Sc397 Sc 0.26136 0.57542 0.38267 0.0
Sc398 Sc 0.23681 0.52706 0.46748 0.0
O399 O 0.27491 0.55565 0.43517 0.0
C400 C 0.31162 0.47908 0.48037 0.0
C401 C 0.34163 0.54037 0.36945 0.0
C402 C 0.21244 0.4993 0.38636 0.0
C403 C 0.31549 0.64168 0.41145 0.0
C404 C 0.27928 0.57556 0.53072 0.0
C405 C 0.19203 0.59878 0.43405 0.0
O406 O 0.33246 0.50757 0.47374 0.0
O407 O 0.30841 0.54659 0.35698 0.0
O408 O 0.21512 0.49452 0.42165 0.0
O409 O 0.32668 0.62368 0.44036 0.0
O410 O 0.25216 0.55479 0.51966 0.0
O411 O 0.21414 0.60536 0.40646 0.0
O412 O 0.30762 0.58287 0.51013 0.0
O413 O 0.2945 0.62685 0.38633 0.0
O414 O 0.1959 0.57123 0.45716 0.0
O415 O 0.35224 0.54781 0.40308 0.0
O416 O 0.27563 0.4808 0.4791 0.0
O417 O 0.22668 0.52734 0.36916 0.0
Sc418 Sc 0.16085 0.41955 0.96042 0.0
Sc419 Sc 0.21524 0.41332 0.87862 0.0
Sc420 Sc 0.25191 0.45664 0.96179 0.0
O421 O 0.20938 0.43018 0.93333 0.0
C422 C 0.18123 0.50539 0.98447 0.0
C423 C 0.1337 0.44889 0.87874 0.0
C424 C 0.2685 0.4863 0.87882 0.0
C425 C 0.1639 0.3461 0.90988 0.0
C426 C 0.21598 0.40853 0.02912 0.0
C427 C 0.28847 0.38395 0.92224 0.0
O428 O 0.15965 0.47652 0.98249 0.0
O429 O 0.16475 0.44334 0.86123 0.0
O430 O 0.27197 0.48768 0.91433 0.0
O431 O 0.15709 0.36201 0.9413 0.0
O432 O 0.24001 0.43173 0.01619 0.0
O433 O 0.26472 0.38163 0.89509 0.0
O434 O 0.18762 0.39776 0.01006 0.0
O435 O 0.18247 0.36222 0.88391 0.0
O436 O 0.28796 0.40947 0.94796 0.0
O437 O 0.12856 0.43981 0.91315 0.0
O438 O 0.21618 0.5042 0.97581 0.0
O439 O 0.24855 0.46138 0.86238 0.0
Sc440 Sc 0.51758 0.73361 0.95592 0.0
Sc441 Sc 0.60172 0.76683 0.91284 0.0
Sc442 Sc 0.52134 0.82393 0.91604 0.0
O443 O 0.54694 0.77464 0.92859 0.0
C444 C 0.45123 0.76918 0.90609 0.0
C445 C 0.55811 0.69301 0.88578 0.0
C446 C 0.5714 0.8167 0.84379 0.0
C447 C 0.59918 0.7168 0.98808 0.0
C448 C 0.49589 0.80779 0.00149 0.0
C449 C 0.60343 0.84889 0.94645 0.0
O450 O 0.4648 0.74357 0.92728 0.0
O451 O 0.58417 0.71758 0.88113 0.0
O452 O 0.53916 0.8227 0.85825 0.0
O453 O 0.56359 0.71615 0.99049 0.0
O454 O 0.50093 0.82907 0.97288 0.0
O455 O 0.61967 0.81663 0.94368 0.0
O456 O 0.50118 0.77201 0.00057 0.0
O457 O 0.61647 0.73278 0.96114 0.0
O458 O 0.57019 0.85552 0.93405 0.0
O459 O 0.53352 0.69422 0.91218 0.0
O460 O 0.46948 0.79881 0.89751 0.0
O461 O 0.59787 0.80031 0.86183 0.0
Sc462 Sc 0.02214 0.66581 0.06584 0.0
Sc463 Sc 0.10022 0.72448 0.06611 0.0
Sc464 Sc 0.01456 0.7544 0.02261 0.0
O465 O 0.04566 0.71498 0.05082 0.0
C466 C -0.00647 0.678 0.98048 0.0
C467 C 0.10523 0.64207 0.03646 0.0
C468 C 0.09512 0.77321 0.99015 0.0
C469 C 0.07327 0.67465 0.13616 0.0
C470 C 0.95006 0.71883 0.07413 0.0
C471 C 0.05424 0.79688 0.0924 0.0
O472 O 0.00136 0.65779 0.00933 0.0
O473 O 0.11951 0.67522 0.03563 0.0
O474 O 0.05961 0.7716 0.98672 0.0
O475 O 0.03993 0.67077 0.12357 0.0
O476 O 0.96241 0.74432 0.05223 0.0
O477 O 0.08077 0.77277 0.09762 0.0
O478 O 0.96936 0.68982 0.083 0.0
O479 O 0.09892 0.6904 0.11681 0.0
O480 O 0.03021 0.79542 0.06529 0.0
O481 O 0.07255 0.63522 0.04997 0.0
O482 O -0.0023 0.71396 0.97972 0.0
O483 O 0.11285 0.75903 0.01794 0.0
Sc484 Sc 0.47126 0.31723 0.55957 0.0
Sc485 Sc 0.391 0.26174 0.56753 0.0
Sc486 Sc 0.47494 0.22394 0.52653 0.0
O487 O 0.44569 0.26737 0.55087 0.0
C488 C 0.49246 0.29415 0.47414 0.0
C489 C 0.38826 0.34224 0.53172 0.0
C490 C 0.39234 0.2056 0.49686 0.0
C491 C 0.42344 0.31532 0.63304 0.0
C492 C 0.54273 0.26385 0.57047 0.0
C493 C 0.43524 0.18994 0.59995 0.0
O494 O 0.48793 0.31799 0.50102 0.0
O495 O 0.37225 0.31004 0.53461 0.0
O496 O 0.42793 0.20282 0.49543 0.0
O497 O 0.4558 0.31938 0.61812 0.0
O498 O 0.52904 0.23634 0.55193 0.0
O499 O 0.40836 0.21418 0.60169 0.0
O500 O 0.52423 0.29391 0.57699 0.0
O501 O 0.3967 0.29804 0.61638 0.0
O502 O 0.46063 0.18917 0.57428 0.0
O503 O 0.4217 0.34832 0.54344 0.0
O504 O 0.48913 0.25836 0.47821 0.0
O505 O 0.37528 0.22546 0.52138 0.0
Sc506 Sc 0.9776 0.2575 0.45496 0.0
Sc507 Sc 0.89254 0.22658 0.41094 0.0
Sc508 Sc 0.96949 0.1658 0.41844 0.0
O509 O 0.94651 0.21682 0.42855 0.0
C510 C 0.04334 0.21579 0.40946 0.0
C511 C 0.94017 0.29716 0.38244 0.0
C512 C 0.92162 0.17164 0.34531 0.0
C513 C 0.89618 0.27971 0.48397 0.0
C514 C -0.00679 0.18403 0.50421 0.0
C515 C 0.8846 0.14561 0.44456 0.0
O516 O 0.03063 0.24357 0.42838 0.0
O517 O 0.91308 0.27364 0.3782 0.0
O518 O 0.95409 0.16664 0.35984 0.0
O519 O 0.93172 0.27905 0.48742 0.0
O520 O 0.98688 0.16174 0.47648 0.0
O521 O 0.87076 0.17898 0.44236 0.0
O522 O 0.99107 0.22008 0.50153 0.0
O523 O 0.87868 0.26302 0.45747 0.0
O524 O 0.91802 0.13742 0.43386 0.0
O525 O 0.96452 0.29581 0.40924 0.0
O526 O 0.0237 0.1867 0.40215 0.0
O527 O 0.89585 0.19032 0.36195 0.0
C528 C 0.1699 0.44572 0.30482 0.0
C529 C 0.13234 0.4413 0.31693 0.0
C530 C 0.19681 0.46259 0.32848 0.0
C531 C 0.18703 0.47439 0.36512 0.0
H532 H 0.17771 0.43907 0.27592 0.0
H533 H 0.22484 0.46814 0.31746 0.0
S534 S 0.09347 0.46452 0.41131 0.0
N535 N 0.08735 0.44688 0.36841 0.0
N536 N 0.13833 0.4774 0.41362 0.0
C537 C 0.1504 0.46706 0.37859 0.0
C538 C 0.12285 0.45076 0.35421 0.0
C539 C 0.29699 0.50268 0.8167 0.0
C540 C 0.29337 0.51059 0.85557 0.0
C541 C 0.32633 0.51832 0.79561 0.0
C542 C 0.35274 0.54267 0.8125 0.0
H543 H 0.27858 0.48242 0.80281 0.0
H544 H 0.32953 0.50981 0.76629 0.0
S545 S 0.35243 0.57827 0.91083 0.0
N546 N 0.31607 0.54897 0.90862 0.0
N547 N 0.37156 0.57797 0.86825 0.0
C548 C 0.34799 0.55348 0.85019 0.0
C549 C 0.31803 0.53762 0.87191 0.0
C550 C 0.62398 0.04167 0.62667 0.0
C551 C 0.63336 0.05056 0.66423 0.0
C552 C 0.65106 0.02631 0.60228 0.0
C553 C 0.68794 0.01843 0.6152 0.0
H554 H 0.59504 0.04452 0.6168 0.0
H555 H 0.64213 0.01758 0.57424 0.0
S556 S 0.72759 0.04098 0.7097 0.0
N557 N 0.68286 0.05457 0.71204 0.0
N558 N 0.73364 0.02447 0.66636 0.0
C559 C 0.69838 0.02988 0.65179 0.0
C560 C 0.67104 0.04635 0.67633 0.0
C561 C 0.84811 0.9915 0.17348 0.0
C562 C 0.85596 0.95261 0.16955 0.0
C563 C 0.81824 0.00833 0.15413 0.0
C564 C 0.79532 0.98709 0.12951 0.0
H565 H 0.86507 0.0092 0.19203 0.0
H566 H 0.81396 0.03863 0.15761 0.0
S567 S 0.80313 0.8838 0.11052 0.0
N568 N 0.83765 0.89263 0.14095 0.0
N569 N 0.78165 0.92487 0.10283 0.0
C570 C 0.80244 0.94797 0.12553 0.0
C571 C 0.83266 0.93052 0.14613 0.0
C572 C 0.38392 0.14286 0.46643 0.0
C573 C 0.37002 0.17978 0.4731 0.0
C574 C 0.36038 0.11464 0.45182 0.0
C575 C 0.32272 0.12287 0.44235 0.0
H576 H 0.41225 0.13489 0.47527 0.0
H577 H 0.37106 0.08583 0.44976 0.0
S578 S 0.27426 0.21607 0.44949 0.0
N579 N 0.31738 0.22388 0.4659 0.0
N580 N 0.27334 0.17084 0.4371 0.0
C581 C 0.30941 0.16032 0.44574 0.0
C582 C 0.33306 0.18886 0.46151 0.0
C583 C 0.17739 0.815 0.9378 0.0
C584 C 0.16457 0.85222 0.93139 0.0
C585 C 0.15363 0.78816 0.95445 0.0
C586 C 0.11624 0.79765 0.96418 0.0
H587 H 0.20681 0.80759 0.93309 0.0
H588 H 0.1652 0.76059 0.96178 0.0
S589 S 0.06814 0.88998 0.94767 0.0
N590 N 0.11172 0.89633 0.93222 0.0
N591 N 0.06633 0.84551 0.96228 0.0
C592 C 0.10214 0.83372 0.9544 0.0
C593 C 0.1266 0.86122 0.93831 0.0
C594 C 0.83848 0.29447 0.52107 0.0
C595 C 0.87453 0.30522 0.5085 0.0
C596 C 0.81417 0.32108 0.53761 0.0
C597 C 0.825 0.35927 0.54098 0.0
H598 H 0.82837 0.26582 0.5164 0.0
H599 H 0.78571 0.31239 0.5449 0.0
S600 S 0.91757 0.40086 0.51571 0.0
N601 N 0.92123 0.35565 0.50376 0.0
N602 N 0.87478 0.40598 0.53375 0.0
C603 C 0.86175 0.36982 0.53079 0.0
C604 C 0.88681 0.34262 0.51479 0.0
C605 C 0.62782 0.62945 0.04177 0.0
C606 C 0.666 0.6365 0.0498 0.0
C607 C 0.60532 0.65727 0.02471 0.0
C608 C 0.62075 0.69247 0.0141 0.0
H609 H 0.61593 0.60158 0.04666 0.0
H610 H 0.57653 0.64994 0.01705 0.0
S611 S 0.71833 0.72589 0.03285 0.0
N612 N 0.71748 0.68218 0.04968 0.0
N613 N 0.67532 0.73424 0.01627 0.0
C614 C 0.65821 0.70073 0.02434 0.0
C615 C 0.68085 0.67273 0.04262 0.0
C616 C 0.43855 0.31022 0.16052 0.0
C617 C 0.43102 0.32412 0.12401 0.0
C618 C 0.45891 0.332 0.18667 0.0
C619 C 0.47151 0.36856 0.17727 0.0
H620 H 0.43153 0.28121 0.16781 0.0
H621 H 0.46618 0.31958 0.21376 0.0
S622 S 0.4544 0.41925 0.08676 0.0
N623 N 0.43449 0.37732 0.08076 0.0
N624 N 0.47173 0.41905 0.13019 0.0
C625 C 0.46126 0.38388 0.14191 0.0
C626 C 0.44122 0.36141 0.11515 0.0
C627 C 0.94224 0.12735 0.86022 0.0
C628 C 0.93406 0.1655 0.85262 0.0
C629 C 0.95998 0.10469 0.83309 0.0
C630 C 0.97115 0.11998 0.79809 0.0
H631 H 0.93692 0.11565 0.88804 0.0
H632 H 0.96758 0.07589 0.84079 0.0
S633 S 0.95252 0.21757 0.76363 0.0
N634 N 0.93485 0.21689 0.80683 0.0
N635 N 0.96948 0.17447 0.75597 0.0
C636 C 0.96089 0.15746 0.78933 0.0
C637 C 0.94193 0.18023 0.81664 0.0
C638 C 0.52331 0.83603 0.28881 0.0
C639 C 0.51125 0.8729 0.29833 0.0
C640 C 0.54038 0.81261 0.31588 0.0
C641 C 0.54514 0.82525 0.35328 0.0
H642 H 0.51765 0.82451 0.26093 0.0
H643 H 0.54689 0.78348 0.30832 0.0
S644 S 0.52339 0.92066 0.39148 0.0
N645 N 0.50961 0.92235 0.34684 0.0
N646 N 0.54083 0.87758 0.39769 0.0
C647 C 0.53611 0.86284 0.36241 0.0
C648 C 0.51939 0.88695 0.33485 0.0
C649 C 0.03196 0.62421 0.6279 0.0
C650 C 0.0392 0.66262 0.63505 0.0
C651 C 0.01613 0.60128 0.65581 0.0
C652 C 0.00598 0.61651 0.69123 0.0
H653 H 0.03666 0.61239 0.59997 0.0
H654 H 0.00897 0.5723 0.64843 0.0
S655 S 0.0229 0.71475 0.72471 0.0
N656 N 0.03878 0.71424 0.68081 0.0
N657 N 0.00765 0.67129 0.73313 0.0
C658 C 0.01543 0.65429 0.69948 0.0
C659 C 0.03244 0.67737 0.67134 0.0
C660 C 0.81217 0.54289 0.67389 0.0
C661 C 0.84946 0.54938 0.6619 0.0
C662 C 0.78606 0.5254 0.64978 0.0
C663 C 0.79637 0.5149 0.61287 0.0
H664 H 0.80419 0.54813 0.70302 0.0
H665 H 0.75839 0.51815 0.66071 0.0
S666 S 0.88921 0.53108 0.5669 0.0
N667 N 0.8945 0.54771 0.61029 0.0
N668 N 0.84507 0.51601 0.56422 0.0
C669 C 0.83252 0.52469 0.59953 0.0
C670 C 0.85925 0.54167 0.62434 0.0
C671 C 0.66591 0.45702 0.1829 0.0
C672 C 0.63456 0.43915 0.16634 0.0
C673 C 0.69306 0.47476 0.16046 0.0
C674 C 0.68964 0.47497 0.12079 0.0
H675 H 0.66797 0.45969 0.2134 0.0
H676 H 0.7156 0.49022 0.17441 0.0
S677 S 0.61505 0.42611 0.06447 0.0
N678 N 0.60315 0.41867 0.10896 0.0
N679 N 0.6546 0.45092 0.06603 0.0
C680 C 0.66 0.45389 0.10401 0.0
C681 C 0.63217 0.43636 0.12705 0.0
C682 C 0.31573 0.94042 0.30906 0.0
C683 C 0.35316 0.93439 0.32096 0.0
C684 C 0.28898 0.95548 0.33402 0.0
C685 C 0.29897 0.9643 0.37155 0.0
H686 H 0.30802 0.93678 0.27958 0.0
H687 H 0.26111 0.96261 0.32322 0.0
S688 S 0.3923 0.94692 0.41722 0.0
N689 N 0.3981 0.93353 0.37284 0.0
N690 N 0.34772 0.96077 0.42054 0.0
C691 C 0.3354 0.95434 0.38462 0.0
C692 C 0.36267 0.9397 0.35898 0.0
C693 C 0.15205 0.01929 0.88004 0.0
C694 C 0.18775 0.01037 0.86472 0.0
C695 C 0.12381 0.03577 0.8577 0.0
C696 C 0.13089 0.04489 0.81984 0.0
H697 H 0.14485 0.01082 0.90857 0.0
H698 H 0.09576 0.03959 0.86947 0.0
S699 S 0.22101 0.03193 0.76785 0.0
N700 N 0.22968 0.01489 0.81054 0.0
N701 N 0.17676 0.04722 0.76873 0.0
C702 C 0.16735 0.03916 0.8051 0.0
C703 C 0.19582 0.02148 0.82754 0.0
C704 C 0.6735 0.82405 0.53813 0.0
C705 C 0.66138 0.86203 0.54052 0.0
C706 C 0.6502 0.79639 0.52191 0.0
C707 C 0.61385 0.80585 0.50878 0.0
H708 H 0.70213 0.81628 0.54613 0.0
H709 H 0.66122 0.76788 0.51813 0.0
S710 S 0.56793 0.90069 0.51249 0.0
N711 N 0.61035 0.90733 0.53104 0.0
N712 N 0.56576 0.85508 0.50182 0.0
C713 C 0.60044 0.84317 0.51374 0.0
C714 C 0.6245 0.87142 0.52932 0.0
C715 C 0.82699 0.19818 0.023 0.0
C716 C 0.86402 0.18809 0.01255 0.0
C717 C 0.80362 0.17221 0.04144 0.0
C718 C 0.81636 0.13516 0.04909 0.0
H719 H 0.81546 0.22567 0.01534 0.0
H720 H 0.77451 0.18024 0.04701 0.0
S721 S 0.91209 0.0961 0.03159 0.0
N722 N 0.91362 0.13982 0.01488 0.0
N723 N 0.86895 0.09072 0.04855 0.0
C724 C 0.85398 0.12554 0.04117 0.0
C725 C 0.87808 0.15216 0.02315 0.0
C726 C 0.14923 0.69084 0.46535 0.0
C727 C 0.11313 0.67946 0.47725 0.0
C728 C 0.17375 0.66499 0.44796 0.0
C729 C 0.16307 0.62695 0.44297 0.0
H730 H 0.15909 0.71942 0.4709 0.0
H731 H 0.20213 0.67412 0.44092 0.0
S732 S 0.0707 0.58382 0.46617 0.0
N733 N 0.06673 0.62851 0.47989 0.0
N734 N 0.11362 0.57966 0.44824 0.0
C735 C 0.12644 0.61574 0.45277 0.0
C736 C 0.10116 0.64216 0.46966 0.0
C737 C 0.37422 0.3303 0.95306 0.0
C738 C 0.35808 0.29607 0.9656 0.0
C739 C 0.35199 0.35802 0.93556 0.0
C740 C 0.31344 0.3517 0.92899 0.0
H741 H 0.4034 0.3371 0.95962 0.0
H742 H 0.36441 0.38539 0.92931 0.0
S743 S 0.25908 0.26483 0.95115 0.0
N744 N 0.30232 0.25586 0.96678 0.0
N745 N 0.26068 0.30775 0.93247 0.0
C746 C 0.29778 0.31631 0.93803 0.0
C747 C 0.32014 0.28845 0.95678 0.0
C748 C 0.52601 0.65542 0.79233 0.0
C749 C 0.51486 0.61836 0.80171 0.0
C750 C 0.54438 0.67844 0.8189 0.0
C751 C 0.55129 0.66527 0.85577 0.0
H752 H 0.51893 0.66728 0.76494 0.0
H753 H 0.55023 0.7077 0.81155 0.0
S754 S 0.53158 0.56939 0.89324 0.0
N755 N 0.51571 0.5683 0.84926 0.0
N756 N 0.5491 0.61235 0.89944 0.0
C757 C 0.54272 0.62758 0.86468 0.0
C758 C 0.52477 0.60386 0.83751 0.0
C759 C 0.02476 0.83041 0.18835 0.0
C760 C 0.01091 0.86691 0.18059 0.0
C761 C 0.0426 0.80914 0.16009 0.0
C762 C 0.04589 0.82343 0.1231 0.0
H763 H 0.02056 0.8178 0.21595 0.0
H764 H 0.05118 0.78027 0.16648 0.0
S765 S 0.01596 0.91826 0.08926 0.0
N766 N 0.00386 0.91758 0.13436 0.0
N767 N 0.03603 0.8767 0.08074 0.0
C768 C 0.0337 0.86049 0.11552 0.0
C769 C 0.01648 0.88251 0.14447 0.0
C770 C 0.46363 0.1035 0.65417 0.0
C771 C 0.47501 0.11937 0.68896 0.0
C772 C 0.44758 0.12614 0.62597 0.0
C773 C 0.44131 0.16492 0.63223 0.0
H774 H 0.47001 0.07415 0.64744 0.0
H775 H 0.4421 0.11377 0.5984 0.0
S776 S 0.4606 0.21883 0.72023 0.0
N777 N 0.47527 0.17522 0.7295 0.0
N778 N 0.44372 0.21763 0.67661 0.0
C779 C 0.44917 0.18039 0.668 0.0
C780 C 0.46642 0.15758 0.69643 0.0
C781 C 0.95027 0.3117 0.3148 0.0
C782 C 0.94706 0.32463 0.35229 0.0
C783 C 0.96608 0.33484 0.28689 0.0
C784 C 0.97802 0.37183 0.29557 0.0
H785 H 0.94323 0.28263 0.30765 0.0
H786 H 0.97055 0.3232 0.25886 0.0
S787 S 0.97161 0.41996 0.38885 0.0
N788 N 0.9543 0.37712 0.39621 0.0
N789 N 0.98283 0.42133 0.34355 0.0
C790 C 0.97215 0.38599 0.33235 0.0
C791 C 0.95696 0.36213 0.36085 0.0
C792 C 0.21972 0.43361 0.09434 0.0
C793 C 0.21412 0.40224 0.07031 0.0
C794 C 0.20042 0.43632 0.12879 0.0
C795 C 0.17565 0.40743 0.1404 0.0
H796 H 0.23462 0.45846 0.08433 0.0
H797 H 0.20144 0.46297 0.14413 0.0
S798 S 0.16199 0.31426 0.09323 0.0
N799 N 0.19005 0.33803 0.06455 0.0
N800 N 0.1544 0.34256 0.12974 0.0
C801 C 0.17564 0.37309 0.11995 0.0
C802 C 0.19483 0.37062 0.08464 0.0
C803 C 0.27432 0.55582 0.59768 0.0
C804 C 0.28292 0.58438 0.57133 0.0
C805 C 0.29253 0.55477 0.6329 0.0
C806 C 0.3191 0.58266 0.64295 0.0
H807 H 0.25747 0.53155 0.58934 0.0
H808 H 0.28909 0.5298 0.65042 0.0
S809 S 0.34258 0.66907 0.58806 0.0
N810 N 0.31305 0.64528 0.56065 0.0
N811 N 0.3466 0.64391 0.62725 0.0
C812 C 0.32278 0.61466 0.61948 0.0
C813 C 0.30481 0.61534 0.58338 0.0
C814 C 0.67408 0.10982 0.86235 0.0
C815 C 0.67458 0.07564 0.84166 0.0
C816 C 0.69223 0.11233 0.89753 0.0
C817 C 0.71205 0.08109 0.91252 0.0
H818 H 0.65551 0.13291 0.85404 0.0
H819 H 0.68693 0.1371 0.91499 0.0
S820 S 0.73156 0.98996 0.86368 0.0
N821 N 0.70366 0.01348 0.83429 0.0
N822 N 0.7385 0.0185 0.90015 0.0
C823 C 0.71834 0.04948 0.88902 0.0
C824 C 0.69933 0.04666 0.85351 0.0
C825 C 0.76859 0.93156 0.38028 0.0
C826 C 0.77531 0.90277 0.40701 0.0
C827 C 0.78756 0.93133 0.34556 0.0
C828 C 0.81312 0.90201 0.33647 0.0
H829 H 0.75293 0.95687 0.38811 0.0
H830 H 0.78579 0.9564 0.3279 0.0
S831 S 0.83049 0.81447 0.39203 0.0
N832 N 0.80172 0.84012 0.41858 0.0
N833 N 0.83686 0.83922 0.35294 0.0
C834 C 0.81449 0.8699 0.36 0.0
C835 C 0.79565 0.87042 0.39557 0.0
C836 C 0.13144 0.16876 0.37692 0.0
C837 C 0.15189 0.16809 0.41111 0.0
C838 C 0.09795 0.18996 0.3738 0.0
C839 C 0.08456 0.21158 0.4045 0.0
H840 H 0.13822 0.1489 0.35447 0.0
H841 H 0.08018 0.1857 0.34913 0.0
S842 S 0.13468 0.22824 0.49531 0.0
N843 N 0.16152 0.19729 0.47258 0.0
N844 N 0.09914 0.2381 0.46645 0.0
C845 C 0.10851 0.21644 0.436 0.0
C846 C 0.14216 0.19428 0.43943 0.0
C847 C 0.36126 0.81007 0.87056 0.0
C848 C 0.34002 0.80966 0.90416 0.0
C849 C 0.39603 0.791 0.86852 0.0
C850 C 0.40998 0.77053 0.89973 0.0
H851 H 0.35388 0.82936 0.84784 0.0
H852 H 0.4141 0.79627 0.84438 0.0
S853 S 0.35843 0.75056 0.98874 0.0
N854 N 0.33042 0.77983 0.96518 0.0
N855 N 0.39528 0.74296 0.96107 0.0
C856 C 0.38549 0.76406 0.93037 0.0
C857 C 0.35048 0.78406 0.93271 0.0
C858 C 0.59781 0.2862 0.60753 0.0
C859 C 0.58398 0.26652 0.57575 0.0
C860 C 0.6312 0.30742 0.60536 0.0
C861 C 0.65107 0.31005 0.57105 0.0
H862 H 0.58032 0.28919 0.6325 0.0
H863 H 0.63824 0.32594 0.62883 0.0
S864 S 0.63239 0.25522 0.48354 0.0
N865 N 0.59743 0.24375 0.5122 0.0
N866 N 0.65965 0.28453 0.50781 0.0
C867 C 0.64095 0.28555 0.54135 0.0
C868 C 0.60741 0.26338 0.54382 0.0
C869 C 0.85081 0.70052 0.04717 0.0
C870 C 0.83995 0.67586 0.07641 0.0
C871 C 0.88472 0.72087 0.0495 0.0
C872 C 0.90902 0.71638 0.0808 0.0
H873 H 0.83525 0.70087 0.0207 0.0
H874 H 0.89427 0.73572 0.02448 0.0
S875 S 0.88806 0.66463 0.16925 0.0
N876 N 0.85155 0.65574 0.14138 0.0
N877 N 0.91589 0.69314 0.14499 0.0
C878 C 0.89544 0.69701 0.11258 0.0
C879 C 0.86062 0.67682 0.11055 0.0
C880 C 0.42441 0.10504 0.21565 0.0
C881 C 0.39373 0.08014 0.21062 0.0
C882 C 0.42652 0.13883 0.19501 0.0
C883 C 0.39763 0.14904 0.1695 0.0
H884 H 0.44926 0.09612 0.23138 0.0
H885 H 0.4527 0.15477 0.19583 0.0
S886 S 0.30625 0.09919 0.1558 0.0
N887 N 0.33026 0.07203 0.18546 0.0
N888 N 0.3336 0.13611 0.14735 0.0
C889 C 0.36397 0.12776 0.16957 0.0
C890 C 0.36215 0.09303 0.19008 0.0
C891 C 0.92453 0.38052 0.76281 0.0
C892 C 0.89295 0.40453 0.76726 0.0
C893 C 0.92774 0.34708 0.784 0.0
C894 C 0.89907 0.33644 0.80936 0.0
H895 H 0.94925 0.39029 0.74764 0.0
H896 H 0.95457 0.33205 0.78394 0.0
S897 S 0.8057 0.3835 0.82085 0.0
N898 N 0.82896 0.41094 0.79115 0.0
N899 N 0.8343 0.34749 0.83015 0.0
C900 C 0.86451 0.35641 0.80819 0.0
C901 C 0.86157 0.39073 0.78713 0.0
C902 C 0.55171 0.59981 0.26929 0.0
C903 C 0.58015 0.57325 0.27826 0.0
C904 C 0.5499 0.63477 0.28819 0.0
C905 C 0.57697 0.64439 0.31578 0.0
H906 H 0.52814 0.59174 0.25136 0.0
H907 H 0.52518 0.65259 0.28398 0.0
S908 S 0.66192 0.58795 0.34228 0.0
N909 N 0.63932 0.56126 0.31118 0.0
N910 N 0.63686 0.62746 0.3458 0.0
C911 C 0.60862 0.62041 0.32055 0.0
C912 C 0.60996 0.58456 0.30195 0.0
C913 C 0.10421 0.89032 0.69346 0.0
C914 C 0.07295 0.90555 0.71278 0.0
C915 C 0.10104 0.85623 0.6733 0.0
C916 C 0.06619 0.83708 0.67116 0.0
H917 H 0.12975 0.90696 0.69028 0.0
H918 H 0.12446 0.84777 0.65539 0.0
S919 S 0.97909 0.86039 0.72449 0.0
N920 N 0.00882 0.89491 0.73514 0.0
N921 N 0.00256 0.83135 0.69621 0.0
C922 C 0.03665 0.84907 0.69484 0.0
C923 C 0.04015 0.88331 0.71604 0.0
C924 C 0.80289 0.61034 0.85658 0.0
C925 C 0.80264 0.57553 0.83688 0.0
C926 C 0.78439 0.61402 0.89135 0.0
C927 C 0.76444 0.58336 0.90683 0.0
H928 H 0.82157 0.63305 0.84797 0.0
H929 H 0.78961 0.63919 0.90823 0.0
S930 S 0.74505 0.49109 0.85998 0.0
N931 N 0.77342 0.51353 0.83055 0.0
N932 N 0.7377 0.52074 0.89547 0.0
C933 C 0.75814 0.55122 0.88397 0.0
C934 C 0.7776 0.54719 0.84894 0.0
C935 C 0.66952 0.37188 0.35755 0.0
C936 C 0.66749 0.40532 0.33601 0.0
C937 C 0.69051 0.37096 0.39121 0.0
C938 C 0.71045 0.40318 0.40362 0.0
H939 H 0.65078 0.34835 0.35141 0.0
H940 H 0.6872 0.3468 0.40984 0.0
S941 S 0.72283 0.49312 0.3509 0.0
N942 N 0.69341 0.46794 0.32461 0.0
N943 N 0.73389 0.46589 0.38731 0.0
C944 C 0.71401 0.43403 0.37872 0.0
C945 C 0.69206 0.43524 0.34492 0.0
C946 C 0.26609 0.92864 0.09857 0.0
C947 C 0.27322 0.89813 0.07384 0.0
C948 C 0.28595 0.93181 0.13279 0.0
C949 C 0.31254 0.90404 0.14356 0.0
H950 H 0.24955 0.95282 0.08913 0.0
H951 H 0.28386 0.95814 0.14857 0.0
S952 S 0.33255 0.81358 0.09361 0.0
N953 N 0.3021 0.83602 0.06596 0.0
N954 N 0.33849 0.84125 0.13092 0.0
C955 C 0.31459 0.87033 0.12229 0.0
C956 C 0.29502 0.86751 0.08712 0.0
C957 C 0.19611 0.1077 0.59663 0.0
C958 C 0.21571 0.07551 0.58337 0.0
C959 C 0.17499 0.10613 0.63002 0.0
C960 C 0.17256 0.07213 0.65067 0.0
H961 H 0.19324 0.13257 0.57882 0.0
H962 H 0.15661 0.12991 0.63665 0.0
S963 S 0.22845 0.98452 0.6347 0.0
N964 N 0.23933 0.0123 0.59879 0.0
N965 N 0.19882 0.00927 0.66115 0.0
C966 C 0.19716 0.04225 0.6413 0.0
C967 C 0.21915 0.04402 0.60765 0.0
C968 C 0.87648 0.76677 0.54866 0.0
C969 C 0.90094 0.76972 0.57994 0.0
C970 C 0.84372 0.7892 0.54659 0.0
C971 C 0.83423 0.81417 0.57618 0.0
H972 H 0.88548 0.75177 0.52342 0.0
H973 H 0.82841 0.79045 0.52 0.0
S974 S 0.88361 0.82333 0.66833 0.0
N975 N 0.90963 0.79289 0.644 0.0
N976 N 0.84724 0.83403 0.64083 0.0
C977 C 0.85482 0.81194 0.61018 0.0
C978 C 0.88854 0.78977 0.61192 0.0
C979 C 0.6263 0.20313 0.04693 0.0
C980 C 0.63795 0.17938 0.0767 0.0
C981 C 0.59196 0.22296 0.04891 0.0
C982 C 0.56803 0.21867 0.08034 0.0
H983 H 0.64172 0.20323 0.02047 0.0
H984 H 0.58187 0.23715 0.02363 0.0
S985 S 0.59028 0.16862 0.16959 0.0
N986 N 0.62698 0.16007 0.14202 0.0
N987 N 0.56173 0.19624 0.14476 0.0
C988 C 0.58208 0.20004 0.11242 0.0
C989 C 0.61736 0.18051 0.11081 0.0
C990 C 0.39133 0.69845 0.36847 0.0
C991 C 0.40443 0.71831 0.40046 0.0
C992 C 0.35721 0.67834 0.36961 0.0
C993 C 0.33592 0.67696 0.40311 0.0
H994 H 0.40974 0.69447 0.3443 0.0
H995 H 0.35063 0.65944 0.34629 0.0
S996 S 0.35273 0.73252 0.49047 0.0
N997 N 0.3891 0.74257 0.46305 0.0
N998 N 0.3256 0.70364 0.46555 0.0
C999 C 0.34553 0.70167 0.43277 0.0
C1000 C 0.37981 0.72277 0.43133 0.0
C1001 C 0.09716 0.26697 0.92809 0.0
C1002 C 0.07217 0.27178 0.8974 0.0
C1003 C 0.13107 0.28737 0.92985 0.0
C1004 C 0.14117 0.31232 0.90059 0.0
H1005 H 0.08816 0.25193 0.9532 0.0
H1006 H 0.14709 0.28707 0.95604 0.0
S1007 S 0.091 0.32467 0.80911 0.0
N1008 N 0.06382 0.29571 0.8336 0.0
N1009 N 0.12813 0.33327 0.83625 0.0
C1010 C 0.11985 0.31164 0.86692 0.0
C1011 C 0.08503 0.29143 0.86546 0.0
C1012 C 0.61462 0.85936 0.80922 0.0
C1013 C 0.5807 0.83855 0.80953 0.0
C1014 C 0.61706 0.8934 0.789 0.0
C1015 C 0.58594 0.90701 0.7681 0.0
H1016 H 0.63732 0.85244 0.82874 0.0
H1017 H 0.64136 0.9115 0.79382 0.0
S1018 S 0.49612 0.85603 0.74988 0.0
N1019 N 0.5194 0.82867 0.77995 0.0
N1020 N 0.5243 0.89226 0.74113 0.0
C1021 C 0.55497 0.88268 0.76243 0.0
C1022 C 0.5522 0.84842 0.78356 0.0
C1023 C 0.05618 0.64026 0.19493 0.0
C1024 C 0.08412 0.65056 0.16862 0.0
C1025 C 0.05848 0.60567 0.21431 0.0
C1026 C 0.08844 0.58025 0.20726 0.0
H1027 H 0.03033 0.65676 0.19719 0.0
H1028 H 0.03412 0.59667 0.23051 0.0
S1029 S 0.17405 0.59908 0.15024 0.0
N1030 N 0.14708 0.63696 0.14402 0.0
N1031 N 0.1507 0.5715 0.17974 0.0
C1032 C 0.11944 0.59314 0.1862 0.0
C1033 C 0.11745 0.62859 0.16696 0.0
C1034 C 0.44123 0.38455 0.71119 0.0
C1035 C 0.40939 0.40834 0.7074 0.0
C1036 C 0.44391 0.35077 0.6904 0.0
C1037 C 0.41451 0.33957 0.66596 0.0
H1038 H 0.4662 0.39437 0.72611 0.0
H1039 H 0.47062 0.33554 0.69042 0.0
S1040 S 0.32089 0.38666 0.65555 0.0
N1041 N 0.34495 0.41462 0.68435 0.0
N1042 N 0.34926 0.35054 0.64609 0.0
C1043 C 0.38011 0.35987 0.66719 0.0
C1044 C 0.37772 0.39455 0.68781 0.0
C1045 C 0.93632 0.09816 0.27117 0.0
C1046 C 0.90684 0.07298 0.28008 0.0
C1047 C 0.93851 0.13377 0.28862 0.0
C1048 C 0.91083 0.14542 0.31468 0.0
H1049 H 0.9603 0.08859 0.25459 0.0
H1050 H 0.96399 0.15039 0.28493 0.0
S1051 S 0.82257 0.09404 0.33861 0.0
N1052 N 0.8456 0.06505 0.30994 0.0
N1053 N 0.84897 0.13249 0.34199 0.0
C1054 C 0.8781 0.12311 0.31866 0.0
C1055 C 0.8763 0.08657 0.30152 0.0
C1056 C 0.01185 0.3812 0.07237 0.0
C1057 C 0.02598 0.36094 0.10363 0.0
C1058 C -0.0014 0.36263 0.04019 0.0
C1059 C -0.00094 0.32278 0.03749 0.0
H1060 H 0.01135 0.41193 0.07244 0.0
H1061 H 0.98827 0.37999 0.01706 0.0
S1062 S 0.03251 0.25621 0.11201 0.0
N1063 N 0.03894 0.29878 0.13056 0.0
N1064 N 0.01411 0.26338 0.0696 0.0
C1065 C 0.01231 0.30191 0.06893 0.0
C1066 C 0.02572 0.32107 0.10208 0.0
C1067 C 0.48897 0.62903 0.54454 0.0
C1068 C 0.48344 0.66832 0.5401 0.0
C1069 C 0.47899 0.61064 0.57778 0.0
C1070 C 0.46351 0.63054 0.60856 0.0
H1071 H 0.50072 0.61187 0.52194 0.0
H1072 H 0.48272 0.58017 0.57894 0.0
S1073 S 0.44332 0.73382 0.61221 0.0
N1074 N 0.46151 0.72691 0.56974 0.0
N1075 N 0.44316 0.69183 0.63295 0.0
C1076 C 0.45862 0.67001 0.60525 0.0
C1077 C 0.46849 0.68898 0.57089 0.0
C1078 C 0.50244 0.1228 0.94334 0.0
C1079 C 0.49609 0.16224 0.94337 0.0
C1080 C 0.51633 0.10415 0.91151 0.0
C1081 C 0.52465 0.12396 0.87804 0.0
H1082 H 0.49701 0.10586 0.96828 0.0
H1083 H 0.52073 0.07376 0.91346 0.0
S1084 S 0.51146 0.22733 0.86225 0.0
N1085 N 0.49787 0.22054 0.90636 0.0
N1086 N 0.52431 0.18517 0.84622 0.0
C1087 C 0.51767 0.16331 0.87711 0.0
C1088 C 0.50341 0.1825 0.90981 0.0
C1089 C -0.00227 0.84562 0.42767 0.0
C1090 C 0.98384 0.80971 0.43777 0.0
C1091 C 0.98672 0.86295 0.394 0.0
C1092 C 0.96144 0.84526 0.36895 0.0
H1093 H 0.0165 0.86108 0.44643 0.0
H1094 H -0.00305 0.89121 0.38814 0.0
S1095 S 0.91932 0.74989 0.38008 0.0
N1096 N 0.94546 0.75564 0.41851 0.0
N1097 N 0.92469 0.78889 0.35476 0.0
C1098 C 0.94905 0.80843 0.37724 0.0
C1099 C 0.96028 0.7905 0.41182 0.0
C1100 C 0.10497 0.01813 0.33027 0.0
C1101 C 0.10949 0.01236 0.36936 0.0
C1102 C 0.07221 0.00585 0.31144 0.0
C1103 C 0.04291 0.98745 0.33112 0.0
H1104 H 0.12611 0.03356 0.31443 0.0
H1105 H 0.06931 0.01203 0.28157 0.0
S1106 S 0.04408 0.9606 0.43285 0.0
N1107 N 0.0843 0.98322 0.42625 0.0
N1108 N 0.0226 0.9609 0.39136 0.0
C1109 C 0.0482 0.97983 0.3699 0.0
C1110 C 0.08153 0.99207 0.38888 0.0
C1111 C 0.44291 0.9855 0.85919 0.0
C1112 C 0.44678 0.98371 0.81963 0.0
C1113 C 0.40997 0.97361 0.87701 0.0
C1114 C 0.37899 0.95959 0.85627 0.0
H1115 H 0.46572 -0.00425 0.87699 0.0
H1116 H 0.40915 0.97495 0.9076 0.0
S1117 S 0.37329 0.9505 0.7519 0.0
N1118 N 0.41594 0.96792 0.75988 0.0
N1119 N 0.35345 0.94571 0.79386 0.0
C1120 C 0.38162 0.95874 0.81661 0.0
C1121 C 0.41561 0.97072 0.79821 0.0
C1122 C 0.60497 0.45402 0.66203 0.0
C1123 C 0.6119 0.46504 0.62449 0.0
C1124 C 0.57253 0.46696 0.68117 0.0
C1125 C 0.54635 0.49122 0.66318 0.0
H1126 H 0.62359 0.43388 0.67594 0.0
H1127 H 0.56705 0.45651 0.70942 0.0
S1128 S 0.556 0.53366 0.56766 0.0
N1129 N 0.59302 0.50531 0.57199 0.0
N1130 N 0.53253 0.52973 0.60773 0.0
C1131 C 0.55468 0.50443 0.62665 0.0
C1132 C 0.58737 0.49129 0.60734 0.0
C1133 C 0.91922 0.52017 0.17641 0.0
C1134 C 0.94789 0.50156 0.15573 0.0
C1135 C 0.88537 0.53178 0.15886 0.0
C1136 C 0.87926 0.52517 0.12011 0.0
H1137 H 0.92336 0.52683 0.20606 0.0
H1138 H 0.86462 0.54731 0.17532 0.0
S1139 S 0.94276 0.47297 0.05454 0.0
N1140 N 0.96582 0.47372 0.09516 0.0
N1141 N 0.9027 0.49575 0.0625 0.0
C1142 C 0.90683 0.50504 0.09964 0.0
C1143 C 0.94102 0.49318 0.11735 0.0
C1144 C 0.31652 0.10033 0.02955 0.0
C1145 C 0.35336 0.10978 0.01824 0.0
C1146 C 0.30002 0.06599 0.01788 0.0
C1147 C 0.32002 0.04025 -0.00527 0.0
H1148 H 0.30119 0.11857 0.04893 0.0
H1149 H 0.27212 0.0589 0.02828 0.0
S1150 S 0.41502 0.05552 0.95274 0.0
N1151 N 0.40761 0.09329 0.97942 0.0
N1152 N 0.3768 0.02912 0.95733 0.0
C1153 C 0.356 0.05077 0.98151 0.0
C1154 C 0.37262 0.08548 -0.00668 0.0
C1155 C 0.87568 0.40957 0.9748 0.0
C1156 C 0.8552 0.37889 0.95975 0.0
C1157 C 0.85766 0.44299 0.98576 0.0
C1158 C 0.8182 0.44732 0.98267 0.0
H1159 H 0.90621 0.40813 0.97764 0.0
H1160 H 0.87517 0.46578 -0.0036 0.0
S1161 S 0.75124 0.37521 0.94534 0.0
N1162 N 0.79319 0.35455 0.94241 0.0
N1163 N 0.75886 0.41764 0.96377 0.0
C1164 C 0.79703 0.41652 0.9685 0.0
C1165 C 0.81561 0.38224 0.95699 0.0
C1166 C 0.60341 0.58059 0.4744 0.0
C1167 C 0.62341 0.61186 0.46023 0.0
C1168 C 0.62192 0.54718 0.48457 0.0
C1169 C 0.66145 0.54345 0.48148 0.0
H1170 H 0.57286 0.58158 0.47712 0.0
H1171 H 0.60472 0.52392 0.49456 0.0
S1172 S 0.7272 0.61738 0.44617 0.0
N1173 N 0.68495 0.63747 0.44367 0.0
N1174 N 0.72028 0.57444 0.46347 0.0
C1175 C 0.68211 0.57486 0.46812 0.0
C1176 C 0.66301 0.60913 0.45748 0.0
C1177 C 0.11129 0.90954 0.53881 0.0
C1178 C 0.12418 0.87285 0.52945 0.0
C1179 C 0.13184 0.9417 0.52924 0.0
C1180 C 0.16633 0.93891 0.50977 0.0
H1181 H 0.08487 0.91375 0.55375 0.0
H1182 H 0.12019 0.96912 0.537 0.0
S1183 S 0.21361 0.84954 0.47966 0.0
N1184 N 0.1744 0.83537 0.50061 0.0
N1185 N 0.21332 0.89638 0.48225 0.0
C1186 C 0.18035 0.90243 0.50103 0.0
C1187 C 0.15921 0.86931 0.51094 0.0
C1188 C 0.96615 0.65551 0.87865 0.0
C1189 C 0.94848 0.6199 0.8819 0.0
C1190 C 0.9804 0.67447 0.91063 0.0
C1191 C 0.97772 0.65837 0.94694 0.0
H1192 H 0.96932 0.66876 0.85122 0.0
H1193 H -0.00589 0.70165 0.90677 0.0
S1194 S 0.93172 0.56695 0.97152 0.0
N1195 N 0.92759 0.5702 0.9252 0.0
N1196 N 0.95425 0.60571 0.9846 0.0
C1197 C 0.95952 0.62313 0.95068 0.0
C1198 C 0.94494 0.60395 0.91838 0.0
C1199 C 0.492 0.36331 0.39321 0.0
C1200 C 0.51695 0.34685 0.36701 0.0
C1201 C 0.48333 0.3451 0.42698 0.0
C1202 C 0.49945 0.30979 0.43615 0.0
H1203 H 0.48036 0.39136 0.38835 0.0
H1204 H 0.46454 0.35935 0.44653 0.0
S1205 S 0.56499 0.25362 0.37624 0.0
N1206 N 0.55636 0.29238 0.35133 0.0
N1207 N 0.53993 0.25781 0.41545 0.0
C1208 C 0.52286 0.29188 0.40936 0.0
C1209 C 0.53167 0.31053 0.3746 0.0
C1210 C 0.48189 0.86632 0.03838 0.0
C1211 C 0.48458 0.82648 0.03737 0.0
C1212 C 0.47188 0.88558 0.07128 0.0
C1213 C 0.4634 0.866 0.10482 0.0
H1214 H 0.48736 0.88318 0.01342 0.0
H1215 H 0.47017 0.91626 0.06993 0.0
S1216 S 0.46603 0.76136 0.11769 0.0
N1217 N 0.47835 0.76782 0.07317 0.0
N1218 N 0.45859 0.8042 0.13523 0.0
C1219 C 0.4662 0.82607 0.10457 0.0
C1220 C 0.47685 0.8063 0.07084 0.0
C1221 C -0.00082 0.12671 0.54463 0.0
C1222 C 0.00304 0.16627 0.54097 0.0
C1223 C 0.01001 0.10801 0.57756 0.0
C1224 C 0.02486 0.12788 0.6087 0.0
H1225 H 0.98814 0.10958 0.52165 0.0
H1226 H 0.00716 0.07741 0.57827 0.0
S1227 S 0.03931 0.23192 0.61495 0.0
N1228 N 0.02171 0.22512 0.57213 0.0
N1229 N 0.04177 0.1895 0.63468 0.0
C1230 C 0.0277 0.1676 0.6063 0.0
C1231 C 0.01689 0.18688 0.57231 0.0
C1232 C 0.88223 0.95276 0.66316 0.0
C1233 C 0.87213 0.96888 0.62819 0.0
C1234 C 0.91526 0.96434 0.68206 0.0
C1235 C 0.93889 0.99221 0.66633 0.0
H1236 H 0.86579 0.92968 0.6748 0.0
H1237 H 0.92338 0.95003 0.70796 0.0
S1238 S 0.92062 0.04767 0.57902 0.0
N1239 N 0.88528 0.01722 0.58119 0.0
N1240 N 0.94708 0.03912 0.61664 0.0
C1241 C 0.92741 0.01031 0.63281 0.0
C1242 C 0.89404 -0.00142 0.61373 0.0
C1243 C 0.60346 0.01364 0.16139 0.0
C1244 C 0.60159 0.04285 0.1344 0.0
C1245 C 0.57051 0.00074 0.17938 0.0
C1246 C 0.53494 0.01664 0.17066 0.0
H1247 H 0.63012 -0.00049 0.1673 0.0
H1248 H 0.57263 0.97708 0.19882 0.0
S1249 S 0.51612 0.09852 0.10764 0.0
N1250 N 0.56208 0.09084 0.10403 0.0
N1251 N 0.50046 0.06619 0.13741 0.0
C1252 C 0.53318 0.04748 0.14572 0.0
C1253 C 0.56648 0.06073 0.12771 0.0
C1254 C 0.41832 0.52822 0.29682 0.0
C1255 C 0.43502 0.49386 0.3085 0.0
C1256 C 0.38589 0.54229 0.31498 0.0
C1257 C 0.36946 0.5221 0.3449 0.0
H1258 H 0.43175 0.5454 0.27534 0.0
H1259 H 0.37505 0.57003 0.3072 0.0
S1260 S 0.3981 0.42756 0.38065 0.0
N1261 N 0.42975 0.43771 0.34792 0.0
N1262 N 0.36885 0.46423 0.38201 0.0
C1263 C 0.38415 0.48648 0.35469 0.0
C1264 C 0.417 0.47227 0.33641 0.0
C1265 C 0.09297 0.45352 0.82107 0.0
C1266 C 0.10084 0.4647 0.85844 0.0
C1267 C 0.05859 0.46348 0.80372 0.0
C1268 C 0.03109 0.4848 0.82328 0.0
H1269 H 0.11268 0.43558 0.80579 0.0
H1270 H 0.05304 0.45337 0.77529 0.0
S1271 S 0.04097 0.5259 0.91964 0.0
N1272 N 0.08043 0.50158 0.91296 0.0
N1273 N 0.01602 0.52038 0.88048 0.0
C1274 C 0.03963 0.4978 0.85996 0.0
C1275 C 0.0745 0.48774 0.8775 0.0
C1276 C 0.66131 0.88804 0.95874 0.0
C1277 C 0.62288 0.88061 0.96548 0.0
C1278 C 0.67832 0.92116 0.9729 0.0
C1279 C 0.65744 0.94771 -0.00564 0.0
H1280 H 0.67781 0.86908 0.94108 0.0
H1281 H 0.70759 0.92665 0.96575 0.0
S1282 S 0.55757 0.93762 0.02507 0.0
N1283 N 0.56568 0.89991 -0.00152 0.0
N1284 N 0.59754 0.96168 0.02538 0.0
C1285 C 0.61962 0.9392 0.00315 0.0
C1286 C 0.60238 0.90576 0.98863 0.0
C1287 C 0.12398 0.54437 -0.00276 0.0
C1288 C 0.16371 0.54176 -0.00365 0.0
C1289 C 0.10577 0.57732 0.00919 0.0
C1290 C 0.12634 0.60931 0.021 0.0
H1291 H 0.10644 0.52064 0.98883 0.0
H1292 H 0.07508 0.57748 0.00941 0.0
S1293 S 0.23091 0.618 0.02358 0.0
N1294 N 0.2233 0.57458 0.00761 0.0
N1295 N 0.18864 0.63693 0.03053 0.0
C1296 C 0.16608 0.60773 0.01955 0.0
C1297 C 0.18485 0.57388 0.00719 0.0
C1298 C 0.32849 0.3783 0.51637 0.0
C1299 C 0.36813 0.37497 0.51467 0.0
C1300 C 0.3101 0.4117 0.50443 0.0
C1301 C 0.33076 0.44279 0.4903 0.0
H1302 H 0.31173 0.35563 0.52832 0.0
H1303 H 0.27963 0.4135 0.50728 0.0
S1304 S 0.43511 0.44626 0.47617 0.0
N1305 N 0.42714 0.40424 0.49484 0.0
N1306 N 0.39309 0.46641 0.47255 0.0
C1307 C 0.37034 0.43886 0.48686 0.0
C1308 C 0.38886 0.40512 0.49897 0.0
C1309 C 0.88126 0.08339 0.47679 0.0
C1310 C 0.86199 0.11406 0.46007 0.0
C1311 C 0.86218 0.05077 0.48792 0.0
C1312 C 0.82279 0.04721 0.48313 0.0
H1313 H 0.91168 0.08423 0.4808 0.0
H1314 H 0.87881 0.02792 0.50003 0.0
S1315 S 0.75875 0.12003 0.44171 0.0
N1316 N 0.80117 0.13953 0.43992 0.0
N1317 N 0.76482 0.07791 0.46135 0.0
C1318 C 0.80278 0.07818 0.46754 0.0
C1319 C 0.82247 0.11168 0.45598 0.0
loop_
_geom_bond_atom_site_label_1
_geom_bond_atom_site_label_2
_geom_bond_distance
_geom_bond_site_symmetry_2
_ccdc_geom_bond_type
Sc0 O3 2.025 . S
Sc0 O10 2.105 . S
Sc0 O13 2.105 . S
Sc0 O16 2.105 1_455 S
Sc0 O19 2.105 . S
Sc1 O3 2.025 . S
Sc1 O11 2.105 . S
Sc1 O15 2.105 . S
Sc1 O17 2.105 . S
Sc1 O21 2.105 . S
Sc2 O3 2.025 . S
Sc2 O12 2.105 . S
Sc2 O14 2.105 1_455 S
Sc2 O18 2.105 . S
Sc2 O20 2.105 . S
O3 Sc0 2.025 . S
O3 Sc1 2.025 . S
O3 Sc2 2.025 . S
C4 O10 1.268 . S
C4 O20 1.268 . S
C5 O11 1.268 . S
C5 O19 1.268 . S
C6 O12 1.268 . S
C6 O21 1.268 . S
C7 O13 1.268 . S
C7 O17 1.268 . S
C8 O14 1.268 . S
C8 O16 1.268 . S
C9 O15 1.268 . S
C9 O18 1.268 . S
O10 Sc0 2.105 . S
O10 C4 1.268 . S
O11 Sc1 2.105 . S
O11 C5 1.268 . S
O12 Sc2 2.105 . S
O12 C6 1.268 . S
O13 Sc0 2.105 . S
O13 C7 1.268 . S
O14 Sc2 2.105 1_655 S
O14 C8 1.268 . S
O15 Sc1 2.105 . S
O15 C9 1.268 . S
O16 Sc0 2.105 1_655 S
O16 C8 1.268 . S
O17 Sc1 2.105 . S
O17 C7 1.268 . S
O18 Sc2 2.105 . S
O18 C9 1.268 . S
O19 Sc0 2.105 . S
O19 C5 1.268 . S
O20 Sc2 2.105 . S
O20 C4 1.268 . S
O21 Sc1 2.105 . S
O21 C6 1.268 . S
Sc22 O25 2.025 . S
Sc22 O32 2.105 . S
Sc22 O35 2.105 . S
Sc22 O38 2.105 . S
Sc22 O41 2.105 . S
Sc23 O25 2.025 . S
Sc23 O33 2.105 . S
Sc23 O37 2.105 . S
Sc23 O39 2.105 . S
Sc23 O43 2.105 . S
Sc24 O25 2.025 . S
Sc24 O34 2.105 . S
Sc24 O36 2.105 . S
Sc24 O40 2.105 . S
Sc24 O42 2.105 . S
O25 Sc22 2.025 . S
O25 Sc23 2.025 . S
O25 Sc24 2.025 . S
C26 O32 1.268 . S
C26 O42 1.268 . S
C27 O33 1.268 . S
C27 O41 1.268 . S
C28 O34 1.268 . S
C28 O43 1.268 . S
C29 O35 1.268 . S
C29 O39 1.268 . S
C30 O36 1.268 . S
C30 O38 1.268 . S
C31 O37 1.268 . S
C31 O40 1.268 . S
O32 Sc22 2.105 . S
O32 C26 1.268 . S
O33 Sc23 2.105 . S
O33 C27 1.268 . S
O34 Sc24 2.105 . S
O34 C28 1.268 . S
O35 Sc22 2.105 . S
O35 C29 1.268 . S
O36 Sc24 2.105 . S
O36 C30 1.268 . S
O37 Sc23 2.105 . S
O37 C31 1.268 . S
O38 Sc22 2.105 . S
O38 C30 1.268 . S
O39 Sc23 2.105 . S
O39 C29 1.268 . S
O40 Sc24 2.105 . S
O40 C31 1.268 . S
O41 Sc22 2.105 . S
O41 C27 1.268 . S
O42 Sc24 2.105 . S
O42 C26 1.268 . S
O43 Sc23 2.105 . S
O43 C28 1.268 . S
Sc44 O47 2.025 . S
Sc44 O54 2.105 . S
Sc44 O57 2.105 . S
Sc44 O60 2.105 1_545 S
Sc44 O63 2.105 . S
Sc45 O47 2.025 . S
Sc45 O55 2.105 . S
Sc45 O59 2.105 . S
Sc45 O61 2.105 . S
Sc45 O65 2.105 . S
Sc46 O47 2.025 . S
Sc46 O56 2.105 . S
Sc46 O58 2.105 . S
Sc46 O62 2.105 . S
Sc46 O64 2.105 . S
O47 Sc44 2.025 . S
O47 Sc45 2.025 . S
O47 Sc46 2.025 . S
C48 O54 1.268 . S
C48 O64 1.268 . S
C49 O55 1.268 . S
C49 O63 1.268 . S
C50 O56 1.268 . S
C50 O65 1.268 . S
C51 O57 1.268 . S
C51 O61 1.268 . S
C52 O58 1.268 1_565 S
C52 O60 1.268 . S
C53 O59 1.268 . S
C53 O62 1.268 . S
O54 Sc44 2.105 . S
O54 C48 1.268 . S
O55 Sc45 2.105 . S
O55 C49 1.268 . S
O56 Sc46 2.105 . S
O56 C50 1.268 . S
O57 Sc44 2.105 . S
O57 C51 1.268 . S
O58 Sc46 2.105 . S
O58 C52 1.268 1_545 S
O59 Sc45 2.105 . S
O59 C53 1.268 . S
O60 Sc44 2.105 1_565 S
O60 C52 1.268 . S
O61 Sc45 2.105 . S
O61 C51 1.268 . S
O62 Sc46 2.105 . S
O62 C53 1.268 . S
O63 Sc44 2.105 . S
O63 C49 1.268 . S
O64 Sc46 2.105 . S
O64 C48 1.268 . S
O65 Sc45 2.105 . S
O65 C50 1.268 . S
Sc66 O69 2.025 . S
Sc66 O76 2.105 . S
Sc66 O79 2.105 . S
Sc66 O82 2.105 1_655 S
Sc66 O85 2.105 . S
Sc67 O69 2.025 . S
Sc67 O77 2.105 . S
Sc67 O81 2.105 . S
Sc67 O83 2.105 . S
Sc67 O87 2.105 . S
Sc68 O69 2.025 . S
Sc68 O78 2.105 . S
Sc68 O80 2.105 1_655 S
Sc68 O84 2.105 . S
Sc68 O86 2.105 1_565 S
O69 Sc66 2.025 . S
O69 Sc67 2.025 . S
O69 Sc68 2.025 . S
C70 O76 1.268 1_545 S
C70 O86 1.268 . S
C71 O77 1.268 . S
C71 O85 1.268 . S
C72 O78 1.268 . S
C72 O87 1.268 . S
C73 O79 1.268 . S
C73 O83 1.268 . S
C74 O80 1.268 . S
C74 O82 1.268 . S
C75 O81 1.268 . S
C75 O84 1.268 . S
O76 Sc66 2.105 . S
O76 C70 1.268 1_565 S
O77 Sc67 2.105 . S
O77 C71 1.268 . S
O78 Sc68 2.105 . S
O78 C72 1.268 . S
O79 Sc66 2.105 . S
O79 C73 1.268 . S
O80 Sc68 2.105 1_455 S
O80 C74 1.268 . S
O81 Sc67 2.105 . S
O81 C75 1.268 . S
O82 Sc66 2.105 1_455 S
O82 C74 1.268 . S
O83 Sc67 2.105 . S
O83 C73 1.268 . S
O84 Sc68 2.105 . S
O84 C75 1.268 . S
O85 Sc66 2.105 . S
O85 C71 1.268 . S
O86 Sc68 2.105 1_545 S
O86 C70 1.268 . S
O87 Sc67 2.105 . S
O87 C72 1.268 . S
Sc88 O91 2.025 . S
Sc88 O98 2.105 . S
Sc88 O101 2.105 . S
Sc88 O104 2.105 1_545 S
Sc88 O107 2.105 . S
Sc89 O91 2.025 . S
Sc89 O99 2.105 . S
Sc89 O103 2.105 . S
Sc89 O105 2.105 . S
Sc89 O109 2.105 . S
Sc90 O91 2.025 . S
Sc90 O100 2.105 . S
Sc90 O102 2.105 1_545 S
Sc90 O106 2.105 . S
Sc90 O108 2.105 . S
O91 Sc88 2.025 . S
O91 Sc89 2.025 . S
O91 Sc90 2.025 . S
C92 O98 1.268 . S
C92 O108 1.268 . S
C93 O99 1.268 . S
C93 O107 1.268 . S
C94 O100 1.268 . S
C94 O109 1.268 . S
C95 O101 1.268 . S
C95 O105 1.268 . S
C96 O102 1.268 . S
C96 O104 1.268 . S
C97 O103 1.268 . S
C97 O106 1.268 . S
O98 Sc88 2.105 . S
O98 C92 1.268 . S
O99 Sc89 2.105 . S
O99 C93 1.268 . S
O100 Sc90 2.105 . S
O100 C94 1.268 . S
O101 Sc88 2.105 . S
O101 C95 1.268 . S
O102 Sc90 2.105 1_565 S
O102 C96 1.268 . S
O103 Sc89 2.105 . S
O103 C97 1.268 . S
O104 Sc88 2.105 1_565 S
O104 C96 1.268 . S
O105 Sc89 2.105 . S
O105 C95 1.268 . S
O106 Sc90 2.105 . S
O106 C97 1.268 . S
O107 Sc88 2.105 . S
O107 C93 1.268 . S
O108 Sc90 2.105 . S
O108 C92 1.268 . S
O109 Sc89 2.105 . S
O109 C94 1.268 . S
Sc110 O113 2.025 . S
Sc110 O120 2.105 . S
Sc110 O123 2.105 . S
Sc110 O126 2.105 1_565 S
Sc110 O129 2.105 . S
Sc111 O113 2.025 . S
Sc111 O121 2.105 . S
Sc111 O125 2.105 . S
Sc111 O127 2.105 . S
Sc111 O131 2.105 . S
Sc112 O113 2.025 . S
Sc112 O122 2.105 . S
Sc112 O124 2.105 1_565 S
Sc112 O128 2.105 . S
Sc112 O130 2.105 1_556 S
O113 Sc110 2.025 . S
O113 Sc111 2.025 . S
O113 Sc112 2.025 . S
C114 O120 1.268 1_554 S
C114 O130 1.268 . S
C115 O121 1.268 . S
C115 O129 1.268 . S
C116 O122 1.268 . S
C116 O131 1.268 . S
C117 O123 1.268 . S
C117 O127 1.268 . S
C118 O124 1.268 . S
C118 O126 1.268 . S
C119 O125 1.268 . S
C119 O128 1.268 . S
O120 Sc110 2.105 . S
O120 C114 1.268 1_556 S
O121 Sc111 2.105 . S
O121 C115 1.268 . S
O122 Sc112 2.105 . S
O122 C116 1.268 . S
O123 Sc110 2.105 . S
O123 C117 1.268 . S
O124 Sc112 2.105 1_545 S
O124 C118 1.268 . S
O125 Sc111 2.105 . S
O125 C119 1.268 . S
O126 Sc110 2.105 1_545 S
O126 C118 1.268 . S
O127 Sc111 2.105 . S
O127 C117 1.268 . S
O128 Sc112 2.105 . S
O128 C119 1.268 . S
O129 Sc110 2.105 . S
O129 C115 1.268 . S
O130 Sc112 2.105 1_554 S
O130 C114 1.268 . S
O131 Sc111 2.105 . S
O131 C116 1.268 . S
Sc132 O135 2.025 . S
Sc132 O142 2.105 . S
Sc132 O145 2.105 . S
Sc132 O148 2.105 . S
Sc132 O151 2.105 . S
Sc133 O135 2.025 . S
Sc133 O143 2.105 . S
Sc133 O147 2.105 . S
Sc133 O149 2.105 . S
Sc133 O153 2.105 . S
Sc134 O135 2.025 . S
Sc134 O144 2.105 . S
Sc134 O146 2.105 . S
Sc134 O150 2.105 . S
Sc134 O152 2.105 . S
O135 Sc132 2.025 . S
O135 Sc133 2.025 . S
O135 Sc134 2.025 . S
C136 O142 1.268 . S
C136 O152 1.268 . S
C137 O143 1.268 . S
C137 O151 1.268 . S
C138 O144 1.268 . S
C138 O153 1.268 . S
C139 O145 1.268 . S
C139 O149 1.268 . S
C140 O146 1.268 . S
C140 O148 1.268 . S
C141 O147 1.268 . S
C141 O150 1.268 . S
O142 Sc132 2.105 . S
O142 C136 1.268 . S
O143 Sc133 2.105 . S
O143 C137 1.268 . S
O144 Sc134 2.105 . S
O144 C138 1.268 . S
O145 Sc132 2.105 . S
O145 C139 1.268 . S
O146 Sc134 2.105 . S
O146 C140 1.268 . S
O147 Sc133 2.105 . S
O147 C141 1.268 . S
O148 Sc132 2.105 . S
O148 C140 1.268 . S
O149 Sc133 2.105 . S
O149 C139 1.268 . S
O150 Sc134 2.105 . S
O150 C141 1.268 . S
O151 Sc132 2.105 . S
O151 C137 1.268 . S
O152 Sc134 2.105 . S
O152 C136 1.268 . S
O153 Sc133 2.105 . S
O153 C138 1.268 . S
Sc154 O157 2.025 . S
Sc154 O164 2.105 . S
Sc154 O167 2.105 . S
Sc154 O170 2.105 1_554 S
Sc154 O173 2.105 . S
Sc155 O157 2.025 . S
Sc155 O165 2.105 . S
Sc155 O169 2.105 . S
Sc155 O171 2.105 . S
Sc155 O175 2.105 . S
Sc156 O157 2.025 . S
Sc156 O166 2.105 . S
Sc156 O168 2.105 . S
Sc156 O172 2.105 . S
Sc156 O174 2.105 . S
O157 Sc154 2.025 . S
O157 Sc155 2.025 . S
O157 Sc156 2.025 . S
C158 O164 1.268 . S
C158 O174 1.268 . S
C159 O165 1.268 . S
C159 O173 1.268 . S
C160 O166 1.268 . S
C160 O175 1.268 . S
C161 O167 1.268 . S
C161 O171 1.268 . S
C162 O168 1.268 1_556 S
C162 O170 1.268 . S
C163 O169 1.268 . S
C163 O172 1.268 . S
O164 Sc154 2.105 . S
O164 C158 1.268 . S
O165 Sc155 2.105 . S
O165 C159 1.268 . S
O166 Sc156 2.105 . S
O166 C160 1.268 . S
O167 Sc154 2.105 . S
O167 C161 1.268 . S
O168 Sc156 2.105 . S
O168 C162 1.268 1_554 S
O169 Sc155 2.105 . S
O169 C163 1.268 . S
O170 Sc154 2.105 1_556 S
O170 C162 1.268 . S
O171 Sc155 2.105 . S
O171 C161 1.268 . S
O172 Sc156 2.105 . S
O172 C163 1.268 . S
O173 Sc154 2.105 . S
O173 C159 1.268 . S
O174 Sc156 2.105 . S
O174 C158 1.268 . S
O175 Sc155 2.105 . S
O175 C160 1.268 . S
Sc176 O179 2.025 . S
Sc176 O186 2.105 1_554 S
Sc176 O189 2.105 . S
Sc176 O192 2.105 . S
Sc176 O195 2.105 . S
Sc177 O179 2.025 . S
Sc177 O187 2.105 . S
Sc177 O191 2.105 . S
Sc177 O193 2.105 . S
Sc177 O197 2.105 . S
Sc178 O179 2.025 . S
Sc178 O188 2.105 . S
Sc178 O190 2.105 . S
Sc178 O194 2.105 . S
Sc178 O196 2.105 1_554 S
O179 Sc176 2.025 . S
O179 Sc177 2.025 . S
O179 Sc178 2.025 . S
C180 O186 1.268 . S
C180 O196 1.268 . S
C181 O187 1.268 . S
C181 O195 1.268 . S
C182 O188 1.268 . S
C182 O197 1.268 . S
C183 O189 1.268 . S
C183 O193 1.268 . S
C184 O190 1.268 . S
C184 O192 1.268 . S
C185 O191 1.268 . S
C185 O194 1.268 . S
O186 Sc176 2.105 1_556 S
O186 C180 1.268 . S
O187 Sc177 2.105 . S
O187 C181 1.268 . S
O188 Sc178 2.105 . S
O188 C182 1.268 . S
O189 Sc176 2.105 . S
O189 C183 1.268 . S
O190 Sc178 2.105 . S
O190 C184 1.268 . S
O191 Sc177 2.105 . S
O191 C185 1.268 . S
O192 Sc176 2.105 . S
O192 C184 1.268 . S
O193 Sc177 2.105 . S
O193 C183 1.268 . S
O194 Sc178 2.105 . S
O194 C185 1.268 . S
O195 Sc176 2.105 . S
O195 C181 1.268 . S
O196 Sc178 2.105 1_556 S
O196 C180 1.268 . S
O197 Sc177 2.105 . S
O197 C182 1.268 . S
Sc198 O201 2.025 . S
Sc198 O208 2.105 . S
Sc198 O211 2.105 . S
Sc198 O214 2.105 1_556 S
Sc198 O217 2.105 . S
Sc199 O201 2.025 . S
Sc199 O209 2.105 . S
Sc199 O213 2.105 . S
Sc199 O215 2.105 . S
Sc199 O219 2.105 . S
Sc200 O201 2.025 . S
Sc200 O210 2.105 . S
Sc200 O212 2.105 1_556 S
Sc200 O216 2.105 . S
Sc200 O218 2.105 1_655 S
O201 Sc198 2.025 . S
O201 Sc199 2.025 . S
O201 Sc200 2.025 . S
C202 O208 1.268 1_455 S
C202 O218 1.268 . S
C203 O209 1.268 . S
C203 O217 1.268 . S
C204 O210 1.268 . S
C204 O219 1.268 . S
C205 O211 1.268 . S
C205 O215 1.268 . S
C206 O212 1.268 . S
C206 O214 1.268 . S
C207 O213 1.268 . S
C207 O216 1.268 . S
O208 Sc198 2.105 . S
O208 C202 1.268 1_655 S
O209 Sc199 2.105 . S
O209 C203 1.268 . S
O210 Sc200 2.105 . S
O210 C204 1.268 . S
O211 Sc198 2.105 . S
O211 C205 1.268 . S
O212 Sc200 2.105 1_554 S
O212 C206 1.268 . S
O213 Sc199 2.105 . S
O213 C207 1.268 . S
O214 Sc198 2.105 1_554 S
O214 C206 1.268 . S
O215 Sc199 2.105 . S
O215 C205 1.268 . S
O216 Sc200 2.105 . S
O216 C207 1.268 . S
O217 Sc198 2.105 . S
O217 C203 1.268 . S
O218 Sc200 2.105 1_455 S
O218 C202 1.268 . S
O219 Sc199 2.105 . S
O219 C204 1.268 . S
Sc220 O223 2.025 . S
Sc220 O230 2.105 . S
Sc220 O233 2.105 . S
Sc220 O236 2.105 . S
Sc220 O239 2.105 . S
Sc221 O223 2.025 . S
Sc221 O231 2.105 . S
Sc221 O235 2.105 . S
Sc221 O237 2.105 . S
Sc221 O241 2.105 . S
Sc222 O223 2.025 . S
Sc222 O232 2.105 . S
Sc222 O234 2.105 . S
Sc222 O238 2.105 . S
Sc222 O240 2.105 . S
O223 Sc220 2.025 . S
O223 Sc221 2.025 . S
O223 Sc222 2.025 . S
C224 O230 1.268 . S
C224 O240 1.268 . S
C225 O231 1.268 . S
C225 O239 1.268 . S
C226 O232 1.268 . S
C226 O241 1.268 . S
C227 O233 1.268 . S
C227 O237 1.268 . S
C228 O234 1.268 . S
C228 O236 1.268 . S
C229 O235 1.268 . S
C229 O238 1.268 . S
O230 Sc220 2.105 . S
O230 C224 1.268 . S
O231 Sc221 2.105 . S
O231 C225 1.268 . S
O232 Sc222 2.105 . S
O232 C226 1.268 . S
O233 Sc220 2.105 . S
O233 C227 1.268 . S
O234 Sc222 2.105 . S
O234 C228 1.268 . S
O235 Sc221 2.105 . S
O235 C229 1.268 . S
O236 Sc220 2.105 . S
O236 C228 1.268 . S
O237 Sc221 2.105 . S
O237 C227 1.268 . S
O238 Sc222 2.105 . S
O238 C229 1.268 . S
O239 Sc220 2.105 . S
O239 C225 1.268 . S
O240 Sc222 2.105 . S
O240 C224 1.268 . S
O241 Sc221 2.105 . S
O241 C226 1.268 . S
Sc242 O245 2.025 . S
Sc242 O252 2.105 . S
Sc242 O255 2.105 . S
Sc242 O258 2.105 1_455 S
Sc242 O261 2.105 . S
Sc243 O245 2.025 . S
Sc243 O253 2.105 . S
Sc243 O257 2.105 . S
Sc243 O259 2.105 . S
Sc243 O263 2.105 . S
Sc244 O245 2.025 . S
Sc244 O254 2.105 . S
Sc244 O256 2.105 . S
Sc244 O260 2.105 . S
Sc244 O262 2.105 . S
O245 Sc242 2.025 . S
O245 Sc243 2.025 . S
O245 Sc244 2.025 . S
C246 O252 1.268 . S
C246 O262 1.268 . S
C247 O253 1.268 . S
C247 O261 1.268 . S
C248 O254 1.268 . S
C248 O263 1.268 . S
C249 O255 1.268 . S
C249 O259 1.268 . S
C250 O256 1.268 1_655 S
C250 O258 1.268 . S
C251 O257 1.268 . S
C251 O260 1.268 . S
O252 Sc242 2.105 . S
O252 C246 1.268 . S
O253 Sc243 2.105 . S
O253 C247 1.268 . S
O254 Sc244 2.105 . S
O254 C248 1.268 . S
O255 Sc242 2.105 . S
O255 C249 1.268 . S
O256 Sc244 2.105 . S
O256 C250 1.268 1_455 S
O257 Sc243 2.105 . S
O257 C251 1.268 . S
O258 Sc242 2.105 1_655 S
O258 C250 1.268 . S
O259 Sc243 2.105 . S
O259 C249 1.268 . S
O260 Sc244 2.105 . S
O260 C251 1.268 . S
O261 Sc242 2.105 . S
O261 C247 1.268 . S
O262 Sc244 2.105 . S
O262 C246 1.268 . S
O263 Sc243 2.105 . S
O263 C248 1.268 . S
Sc264 O267 2.025 . S
Sc264 O274 2.105 1_655 S
Sc264 O277 2.105 . S
Sc264 O280 2.105 . S
Sc264 O283 2.105 . S
Sc265 O267 2.025 . S
Sc265 O275 2.105 . S
Sc265 O279 2.105 . S
Sc265 O281 2.105 . S
Sc265 O285 2.105 . S
Sc266 O267 2.025 . S
Sc266 O276 2.105 . S
Sc266 O278 2.105 . S
Sc266 O282 2.105 . S
Sc266 O284 2.105 1_655 S
O267 Sc264 2.025 . S
O267 Sc265 2.025 . S
O267 Sc266 2.025 . S
C268 O274 1.268 . S
C268 O284 1.268 . S
C269 O275 1.268 . S
C269 O283 1.268 . S
C270 O276 1.268 . S
C270 O285 1.268 . S
C271 O277 1.268 . S
C271 O281 1.268 . S
C272 O278 1.268 . S
C272 O280 1.268 . S
C273 O279 1.268 . S
C273 O282 1.268 . S
O274 Sc264 2.105 1_455 S
O274 C268 1.268 . S
O275 Sc265 2.105 . S
O275 C269 1.268 . S
O276 Sc266 2.105 . S
O276 C270 1.268 . S
O277 Sc264 2.105 . S
O277 C271 1.268 . S
O278 Sc266 2.105 . S
O278 C272 1.268 . S
O279 Sc265 2.105 . S
O279 C273 1.268 . S
O280 Sc264 2.105 . S
O280 C272 1.268 . S
O281 Sc265 2.105 . S
O281 C271 1.268 . S
O282 Sc266 2.105 . S
O282 C273 1.268 . S
O283 Sc264 2.105 . S
O283 C269 1.268 . S
O284 Sc266 2.105 1_455 S
O284 C268 1.268 . S
O285 Sc265 2.105 . S
O285 C270 1.268 . S
Sc286 O289 2.025 . S
Sc286 O296 2.105 . S
Sc286 O299 2.105 . S
Sc286 O302 2.105 . S
Sc286 O305 2.105 . S
Sc287 O289 2.025 . S
Sc287 O297 2.105 . S
Sc287 O301 2.105 . S
Sc287 O303 2.105 . S
Sc287 O307 2.105 . S
Sc288 O289 2.025 . S
Sc288 O298 2.105 . S
Sc288 O300 2.105 . S
Sc288 O304 2.105 . S
Sc288 O306 2.105 . S
O289 Sc286 2.025 . S
O289 Sc287 2.025 . S
O289 Sc288 2.025 . S
C290 O296 1.268 . S
C290 O306 1.268 . S
C291 O297 1.268 . S
C291 O305 1.268 . S
C292 O298 1.268 . S
C292 O307 1.268 . S
C293 O299 1.268 . S
C293 O303 1.268 . S
C294 O300 1.268 . S
C294 O302 1.268 . S
C295 O301 1.268 . S
C295 O304 1.268 . S
O296 Sc286 2.105 . S
O296 C290 1.268 . S
O297 Sc287 2.105 . S
O297 C291 1.268 . S
O298 Sc288 2.105 . S
O298 C292 1.268 . S
O299 Sc286 2.105 . S
O299 C293 1.268 . S
O300 Sc288 2.105 . S
O300 C294 1.268 . S
O301 Sc287 2.105 . S
O301 C295 1.268 . S
O302 Sc286 2.105 . S
O302 C294 1.268 . S
O303 Sc287 2.105 . S
O303 C293 1.268 . S
O304 Sc288 2.105 . S
O304 C295 1.268 . S
O305 Sc286 2.105 . S
O305 C291 1.268 . S
O306 Sc288 2.105 . S
O306 C290 1.268 . S
O307 Sc287 2.105 . S
O307 C292 1.268 . S
Sc308 O311 2.025 . S
Sc308 O318 2.105 1_565 S
Sc308 O321 2.105 . S
Sc308 O324 2.105 . S
Sc308 O327 2.105 . S
Sc309 O311 2.025 . S
Sc309 O319 2.105 . S
Sc309 O323 2.105 . S
Sc309 O325 2.105 . S
Sc309 O329 2.105 . S
Sc310 O311 2.025 . S
Sc310 O320 2.105 . S
Sc310 O322 2.105 . S
Sc310 O326 2.105 . S
Sc310 O328 2.105 . S
O311 Sc308 2.025 . S
O311 Sc309 2.025 . S
O311 Sc310 2.025 . S
C312 O318 1.268 . S
C312 O328 1.268 1_545 S
C313 O319 1.268 . S
C313 O327 1.268 . S
C314 O320 1.268 . S
C314 O329 1.268 . S
C315 O321 1.268 . S
C315 O325 1.268 . S
C316 O322 1.268 . S
C316 O324 1.268 . S
C317 O323 1.268 . S
C317 O326 1.268 . S
O318 Sc308 2.105 1_545 S
O318 C312 1.268 . S
O319 Sc309 2.105 . S
O319 C313 1.268 . S
O320 Sc310 2.105 . S
O320 C314 1.268 . S
O321 Sc308 2.105 . S
O321 C315 1.268 . S
O322 Sc310 2.105 . S
O322 C316 1.268 . S
O323 Sc309 2.105 . S
O323 C317 1.268 . S
O324 Sc308 2.105 . S
O324 C316 1.268 . S
O325 Sc309 2.105 . S
O325 C315 1.268 . S
O326 Sc310 2.105 . S
O326 C317 1.268 . S
O327 Sc308 2.105 . S
O327 C313 1.268 . S
O328 Sc310 2.105 . S
O328 C312 1.268 1_565 S
O329 Sc309 2.105 . S
O329 C314 1.268 . S
Sc330 O333 2.025 . S
Sc330 O340 2.105 1_455 S
Sc330 O343 2.105 . S
Sc330 O346 2.105 . S
Sc330 O349 2.105 . S
Sc331 O333 2.025 . S
Sc331 O341 2.105 . S
Sc331 O345 2.105 . S
Sc331 O347 2.105 . S
Sc331 O351 2.105 . S
Sc332 O333 2.025 . S
Sc332 O342 2.105 . S
Sc332 O344 2.105 1_545 S
Sc332 O348 2.105 . S
Sc332 O350 2.105 1_455 S
O333 Sc330 2.025 . S
O333 Sc331 2.025 . S
O333 Sc332 2.025 . S
C334 O340 1.268 . S
C334 O350 1.268 . S
C335 O341 1.268 . S
C335 O349 1.268 . S
C336 O342 1.268 . S
C336 O351 1.268 . S
C337 O343 1.268 . S
C337 O347 1.268 . S
C338 O344 1.268 . S
C338 O346 1.268 1_565 S
C339 O345 1.268 . S
C339 O348 1.268 . S
O340 Sc330 2.105 1_655 S
O340 C334 1.268 . S
O341 Sc331 2.105 . S
O341 C335 1.268 . S
O342 Sc332 2.105 . S
O342 C336 1.268 . S
O343 Sc330 2.105 . S
O343 C337 1.268 . S
O344 Sc332 2.105 1_565 S
O344 C338 1.268 . S
O345 Sc331 2.105 . S
O345 C339 1.268 . S
O346 Sc330 2.105 . S
O346 C338 1.268 1_545 S
O347 Sc331 2.105 . S
O347 C337 1.268 . S
O348 Sc332 2.105 . S
O348 C339 1.268 . S
O349 Sc330 2.105 . S
O349 C335 1.268 . S
O350 Sc332 2.105 1_655 S
O350 C334 1.268 . S
O351 Sc331 2.105 . S
O351 C336 1.268 . S
Sc352 O355 2.025 . S
Sc352 O362 2.105 . S
Sc352 O365 2.105 . S
Sc352 O368 2.105 1_565 S
Sc352 O371 2.105 . S
Sc353 O355 2.025 . S
Sc353 O363 2.105 . S
Sc353 O367 2.105 . S
Sc353 O369 2.105 . S
Sc353 O373 2.105 . S
Sc354 O355 2.025 . S
Sc354 O364 2.105 . S
Sc354 O366 2.105 1_565 S
Sc354 O370 2.105 . S
Sc354 O372 2.105 . S
O355 Sc352 2.025 . S
O355 Sc353 2.025 . S
O355 Sc354 2.025 . S
C356 O362 1.268 . S
C356 O372 1.268 . S
C357 O363 1.268 . S
C357 O371 1.268 . S
C358 O364 1.268 . S
C358 O373 1.268 . S
C359 O365 1.268 . S
C359 O369 1.268 . S
C360 O366 1.268 . S
C360 O368 1.268 . S
C361 O367 1.268 . S
C361 O370 1.268 . S
O362 Sc352 2.105 . S
O362 C356 1.268 . S
O363 Sc353 2.105 . S
O363 C357 1.268 . S
O364 Sc354 2.105 . S
O364 C358 1.268 . S
O365 Sc352 2.105 . S
O365 C359 1.268 . S
O366 Sc354 2.105 1_545 S
O366 C360 1.268 . S
O367 Sc353 2.105 . S
O367 C361 1.268 . S
O368 Sc352 2.105 1_545 S
O368 C360 1.268 . S
O369 Sc353 2.105 . S
O369 C359 1.268 . S
O370 Sc354 2.105 . S
O370 C361 1.268 . S
O371 Sc352 2.105 . S
O371 C357 1.268 . S
O372 Sc354 2.105 . S
O372 C356 1.268 . S
O373 Sc353 2.105 . S
O373 C358 1.268 . S
Sc374 O377 2.025 . S
Sc374 O384 2.105 1_545 S
Sc374 O387 2.105 . S
Sc374 O390 2.105 . S
Sc374 O393 2.105 . S
Sc375 O377 2.025 . S
Sc375 O385 2.105 . S
Sc375 O389 2.105 . S
Sc375 O391 2.105 . S
Sc375 O395 2.105 . S
Sc376 O377 2.025 . S
Sc376 O386 2.105 . S
Sc376 O388 2.105 1_554 S
Sc376 O392 2.105 . S
Sc376 O394 2.105 1_545 S
O377 Sc374 2.025 . S
O377 Sc375 2.025 . S
O377 Sc376 2.025 . S
C378 O384 1.268 . S
C378 O394 1.268 . S
C379 O385 1.268 . S
C379 O393 1.268 . S
C380 O386 1.268 . S
C380 O395 1.268 . S
C381 O387 1.268 . S
C381 O391 1.268 . S
C382 O388 1.268 . S
C382 O390 1.268 1_556 S
C383 O389 1.268 . S
C383 O392 1.268 . S
O384 Sc374 2.105 1_565 S
O384 C378 1.268 . S
O385 Sc375 2.105 . S
O385 C379 1.268 . S
O386 Sc376 2.105 . S
O386 C380 1.268 . S
O387 Sc374 2.105 . S
O387 C381 1.268 . S
O388 Sc376 2.105 1_556 S
O388 C382 1.268 . S
O389 Sc375 2.105 . S
O389 C383 1.268 . S
O390 Sc374 2.105 . S
O390 C382 1.268 1_554 S
O391 Sc375 2.105 . S
O391 C381 1.268 . S
O392 Sc376 2.105 . S
O392 C383 1.268 . S
O393 Sc374 2.105 . S
O393 C379 1.268 . S
O394 Sc376 2.105 1_565 S
O394 C378 1.268 . S
O395 Sc375 2.105 . S
O395 C380 1.268 . S
Sc396 O399 2.025 . S
Sc396 O406 2.105 . S
Sc396 O409 2.105 . S
Sc396 O412 2.105 . S
Sc396 O415 2.105 . S
Sc397 O399 2.025 . S
Sc397 O407 2.105 . S
Sc397 O411 2.105 . S
Sc397 O413 2.105 . S
Sc397 O417 2.105 . S
Sc398 O399 2.025 . S
Sc398 O408 2.105 . S
Sc398 O410 2.105 . S
Sc398 O414 2.105 . S
Sc398 O416 2.105 . S
O399 Sc396 2.025 . S
O399 Sc397 2.025 . S
O399 Sc398 2.025 . S
C400 O406 1.268 . S
C400 O416 1.268 . S
C401 O407 1.268 . S
C401 O415 1.268 . S
C402 O408 1.268 . S
C402 O417 1.268 . S
C403 O409 1.268 . S
C403 O413 1.268 . S
C404 O410 1.268 . S
C404 O412 1.268 . S
C405 O411 1.268 . S
C405 O414 1.268 . S
O406 Sc396 2.105 . S
O406 C400 1.268 . S
O407 Sc397 2.105 . S
O407 C401 1.268 . S
O408 Sc398 2.105 . S
O408 C402 1.268 . S
O409 Sc396 2.105 . S
O409 C403 1.268 . S
O410 Sc398 2.105 . S
O410 C404 1.268 . S
O411 Sc397 2.105 . S
O411 C405 1.268 . S
O412 Sc396 2.105 . S
O412 C404 1.268 . S
O413 Sc397 2.105 . S
O413 C403 1.268 . S
O414 Sc398 2.105 . S
O414 C405 1.268 . S
O415 Sc396 2.105 . S
O415 C401 1.268 . S
O416 Sc398 2.105 . S
O416 C400 1.268 . S
O417 Sc397 2.105 . S
O417 C402 1.268 . S
Sc418 O421 2.025 . S
Sc418 O428 2.105 . S
Sc418 O431 2.105 . S
Sc418 O434 2.105 . S
Sc418 O437 2.105 . S
Sc419 O421 2.025 . S
Sc419 O429 2.105 . S
Sc419 O433 2.105 . S
Sc419 O435 2.105 . S
Sc419 O439 2.105 . S
Sc420 O421 2.025 . S
Sc420 O430 2.105 . S
Sc420 O432 2.105 1_556 S
Sc420 O436 2.105 . S
Sc420 O438 2.105 . S
O421 Sc418 2.025 . S
O421 Sc419 2.025 . S
O421 Sc420 2.025 . S
C422 O428 1.268 . S
C422 O438 1.268 . S
C423 O429 1.268 . S
C423 O437 1.268 . S
C424 O430 1.268 . S
C424 O439 1.268 . S
C425 O431 1.268 . S
C425 O435 1.268 . S
C426 O432 1.268 . S
C426 O434 1.268 1_554 S
C427 O433 1.268 . S
C427 O436 1.268 . S
O428 Sc418 2.105 . S
O428 C422 1.268 . S
O429 Sc419 2.105 . S
O429 C423 1.268 . S
O430 Sc420 2.105 . S
O430 C424 1.268 . S
O431 Sc418 2.105 . S
O431 C425 1.268 . S
O432 Sc420 2.105 1_554 S
O432 C426 1.268 . S
O433 Sc419 2.105 . S
O433 C427 1.268 . S
O434 Sc418 2.105 . S
O434 C426 1.268 1_556 S
O435 Sc419 2.105 . S
O435 C425 1.268 . S
O436 Sc420 2.105 . S
O436 C427 1.268 . S
O437 Sc418 2.105 . S
O437 C423 1.268 . S
O438 Sc420 2.105 . S
O438 C422 1.268 . S
O439 Sc419 2.105 . S
O439 C424 1.268 . S
Sc440 O443 2.025 . S
Sc440 O450 2.105 . S
Sc440 O453 2.105 . S
Sc440 O456 2.105 1_556 S
Sc440 O459 2.105 . S
Sc441 O443 2.025 . S
Sc441 O451 2.105 . S
Sc441 O455 2.105 . S
Sc441 O457 2.105 . S
Sc441 O461 2.105 . S
Sc442 O443 2.025 . S
Sc442 O452 2.105 . S
Sc442 O454 2.105 1_556 S
Sc442 O458 2.105 . S
Sc442 O460 2.105 . S
O443 Sc440 2.025 . S
O443 Sc441 2.025 . S
O443 Sc442 2.025 . S
C444 O450 1.268 . S
C444 O460 1.268 . S
C445 O451 1.268 . S
C445 O459 1.268 . S
C446 O452 1.268 . S
C446 O461 1.268 . S
C447 O453 1.268 . S
C447 O457 1.268 . S
C448 O454 1.268 . S
C448 O456 1.268 . S
C449 O455 1.268 . S
C449 O458 1.268 . S
O450 Sc440 2.105 . S
O450 C444 1.268 . S
O451 Sc441 2.105 . S
O451 C445 1.268 . S
O452 Sc442 2.105 . S
O452 C446 1.268 . S
O453 Sc440 2.105 . S
O453 C447 1.268 . S
O454 Sc442 2.105 1_554 S
O454 C448 1.268 . S
O455 Sc441 2.105 . S
O455 C449 1.268 . S
O456 Sc440 2.105 1_554 S
O456 C448 1.268 . S
O457 Sc441 2.105 . S
O457 C447 1.268 . S
O458 Sc442 2.105 . S
O458 C449 1.268 . S
O459 Sc440 2.105 . S
O459 C445 1.268 . S
O460 Sc442 2.105 . S
O460 C444 1.268 . S
O461 Sc441 2.105 . S
O461 C446 1.268 . S
Sc462 O465 2.025 . S
Sc462 O472 2.105 1_554 S
Sc462 O475 2.105 . S
Sc462 O478 2.105 . S
Sc462 O481 2.105 . S
Sc463 O465 2.025 . S
Sc463 O473 2.105 . S
Sc463 O477 2.105 . S
Sc463 O479 2.105 . S
Sc463 O483 2.105 . S
Sc464 O465 2.025 . S
Sc464 O474 2.105 . S
Sc464 O476 2.105 1_455 S
Sc464 O480 2.105 . S
Sc464 O482 2.105 1_554 S
O465 Sc462 2.025 . S
O465 Sc463 2.025 . S
O465 Sc464 2.025 . S
C466 O472 1.268 . S
C466 O482 1.268 . S
C467 O473 1.268 . S
C467 O481 1.268 . S
C468 O474 1.268 . S
C468 O483 1.268 . S
C469 O475 1.268 . S
C469 O479 1.268 . S
C470 O476 1.268 . S
C470 O478 1.268 1_655 S
C471 O477 1.268 . S
C471 O480 1.268 . S
O472 Sc462 2.105 1_556 S
O472 C466 1.268 . S
O473 Sc463 2.105 . S
O473 C467 1.268 . S
O474 Sc464 2.105 . S
O474 C468 1.268 . S
O475 Sc462 2.105 . S
O475 C469 1.268 . S
O476 Sc464 2.105 1_655 S
O476 C470 1.268 . S
O477 Sc463 2.105 . S
O477 C471 1.268 . S
O478 Sc462 2.105 . S
O478 C470 1.268 1_455 S
O479 Sc463 2.105 . S
O479 C469 1.268 . S
O480 Sc464 2.105 . S
O480 C471 1.268 . S
O481 Sc462 2.105 . S
O481 C467 1.268 . S
O482 Sc464 2.105 1_556 S
O482 C466 1.268 . S
O483 Sc463 2.105 . S
O483 C468 1.268 . S
Sc484 O487 2.025 . S
Sc484 O494 2.105 . S
Sc484 O497 2.105 . S
Sc484 O500 2.105 . S
Sc484 O503 2.105 . S
Sc485 O487 2.025 . S
Sc485 O495 2.105 . S
Sc485 O499 2.105 . S
Sc485 O501 2.105 . S
Sc485 O505 2.105 . S
Sc486 O487 2.025 . S
Sc486 O496 2.105 . S
Sc486 O498 2.105 . S
Sc486 O502 2.105 . S
Sc486 O504 2.105 . S
O487 Sc484 2.025 . S
O487 Sc485 2.025 . S
O487 Sc486 2.025 . S
C488 O494 1.268 . S
C488 O504 1.268 . S
C489 O495 1.268 . S
C489 O503 1.268 . S
C490 O496 1.268 . S
C490 O505 1.268 . S
C491 O497 1.268 . S
C491 O501 1.268 . S
C492 O498 1.268 . S
C492 O500 1.268 . S
C493 O499 1.268 . S
C493 O502 1.268 . S
O494 Sc484 2.105 . S
O494 C488 1.268 . S
O495 Sc485 2.105 . S
O495 C489 1.268 . S
O496 Sc486 2.105 . S
O496 C490 1.268 . S
O497 Sc484 2.105 . S
O497 C491 1.268 . S
O498 Sc486 2.105 . S
O498 C492 1.268 . S
O499 Sc485 2.105 . S
O499 C493 1.268 . S
O500 Sc484 2.105 . S
O500 C492 1.268 . S
O501 Sc485 2.105 . S
O501 C491 1.268 . S
O502 Sc486 2.105 . S
O502 C493 1.268 . S
O503 Sc484 2.105 . S
O503 C489 1.268 . S
O504 Sc486 2.105 . S
O504 C488 1.268 . S
O505 Sc485 2.105 . S
O505 C490 1.268 . S
Sc506 O509 2.025 . S
Sc506 O516 2.105 1_655 S
Sc506 O519 2.105 . S
Sc506 O522 2.105 . S
Sc506 O525 2.105 . S
Sc507 O509 2.025 . S
Sc507 O517 2.105 . S
Sc507 O521 2.105 . S
Sc507 O523 2.105 . S
Sc507 O527 2.105 . S
Sc508 O509 2.025 . S
Sc508 O518 2.105 . S
Sc508 O520 2.105 . S
Sc508 O524 2.105 . S
Sc508 O526 2.105 . S
O509 Sc506 2.025 . S
O509 Sc507 2.025 . S
O509 Sc508 2.025 . S
C510 O516 1.268 . S
C510 O526 1.268 1_455 S
C511 O517 1.268 . S
C511 O525 1.268 . S
C512 O518 1.268 . S
C512 O527 1.268 . S
C513 O519 1.268 . S
C513 O523 1.268 . S
C514 O520 1.268 . S
C514 O522 1.268 . S
C515 O521 1.268 . S
C515 O524 1.268 . S
O516 Sc506 2.105 1_455 S
O516 C510 1.268 . S
O517 Sc507 2.105 . S
O517 C511 1.268 . S
O518 Sc508 2.105 . S
O518 C512 1.268 . S
O519 Sc506 2.105 . S
O519 C513 1.268 . S
O520 Sc508 2.105 . S
O520 C514 1.268 . S
O521 Sc507 2.105 . S
O521 C515 1.268 . S
O522 Sc506 2.105 . S
O522 C514 1.268 . S
O523 Sc507 2.105 . S
O523 C513 1.268 . S
O524 Sc508 2.105 . S
O524 C515 1.268 . S
O525 Sc506 2.105 . S
O525 C511 1.268 . S
O526 Sc508 2.105 . S
O526 C510 1.268 1_655 S
O527 Sc507 2.105 . S
O527 C512 1.268 . S
C528 C529 1.369 . S
C528 C530 1.419 . S
C528 H532 0.930 . S
C529 C528 1.369 . S
C529 C538 1.429 . S
C530 C528 1.419 . S
C530 C531 1.363 . S
C530 H533 0.929 . S
C531 C530 1.363 . S
C531 C537 1.428 . S
H532 C528 0.930 . S
H533 C530 0.929 . S
S534 N535 1.613 . S
S534 N536 1.610 . S
N535 S534 1.613 . S
N535 C538 1.350 . S
N536 S534 1.610 . S
N536 C537 1.351 . S
C537 C531 1.428 . S
C537 N536 1.351 . S
C537 C538 1.434 . S
C538 C529 1.429 . S
C538 N535 1.350 . S
C538 C537 1.434 . S
C539 C540 1.369 . S
C539 C541 1.419 . S
C539 H543 0.930 . S
C540 C539 1.369 . S
C540 C549 1.429 . S
C541 C539 1.419 . S
C541 C542 1.363 . S
C541 H544 0.929 . S
C542 C541 1.363 . S
C542 C548 1.428 . S
H543 C539 0.930 . S
H544 C541 0.929 . S
S545 N546 1.613 . S
S545 N547 1.610 . S
N546 S545 1.613 . S
N546 C549 1.350 . S
N547 S545 1.610 . S
N547 C548 1.351 . S
C548 C542 1.428 . S
C548 N547 1.351 . S
C548 C549 1.434 . S
C549 C540 1.429 . S
C549 N546 1.350 . S
C549 C548 1.434 . S
C550 C551 1.369 . S
C550 C552 1.419 . S
C550 H554 0.930 . S
C551 C550 1.369 . S
C551 C560 1.429 . S
C552 C550 1.419 . S
C552 C553 1.363 . S
C552 H555 0.929 . S
C553 C552 1.363 . S
C553 C559 1.428 1_545 S
H554 C550 0.930 . S
H555 C552 0.929 . S
S556 N557 1.613 . S
S556 N558 1.610 . S
N557 S556 1.613 . S
N557 C560 1.350 1_565 S
N558 S556 1.610 . S
N558 C559 1.351 . S
C559 C553 1.428 1_565 S
C559 N558 1.351 . S
C559 C560 1.434 1_565 S
C560 C551 1.429 . S
C560 N557 1.350 1_545 S
C560 C559 1.434 1_545 S
C561 C562 1.369 . S
C561 C563 1.419 1_565 S
C561 H565 0.930 . S
C562 C561 1.369 . S
C562 C571 1.429 . S
C563 C561 1.419 1_545 S
C563 C564 1.363 1_545 S
C563 H566 0.929 . S
C564 C563 1.363 1_565 S
C564 C570 1.428 . S
H565 C561 0.930 . S
H566 C563 0.929 . S
S567 N568 1.613 . S
S567 N569 1.610 . S
N568 S567 1.613 . S
N568 C571 1.350 . S
N569 S567 1.610 . S
N569 C570 1.351 . S
C570 C564 1.428 . S
C570 N569 1.351 . S
C570 C571 1.434 . S
C571 C562 1.429 . S
C571 N568 1.350 . S
C571 C570 1.434 . S
C572 C573 1.369 . S
C572 C574 1.419 . S
C572 H576 0.930 . S
C573 C572 1.369 . S
C573 C582 1.429 . S
C574 C572 1.419 . S
C574 C575 1.363 . S
C574 H577 0.929 . S
C575 C574 1.363 . S
C575 C581 1.428 . S
H576 C572 0.930 . S
H577 C574 0.929 . S
S578 N579 1.613 . S
S578 N580 1.610 . S
N579 S578 1.613 . S
N579 C582 1.350 . S
N580 S578 1.610 . S
N580 C581 1.351 . S
C581 C575 1.428 . S
C581 N580 1.351 . S
C581 C582 1.434 . S
C582 C573 1.429 . S
C582 N579 1.350 . S
C582 C581 1.434 . S
C583 C584 1.369 . S
C583 C585 1.419 . S
C583 H587 0.930 . S
C584 C583 1.369 . S
C584 C593 1.429 . S
C585 C583 1.419 . S
C585 C586 1.363 . S
C585 H588 0.929 . S
C586 C585 1.363 . S
C586 C592 1.428 . S
H587 C583 0.930 . S
H588 C585 0.929 . S
S589 N590 1.613 . S
S589 N591 1.610 . S
N590 S589 1.613 . S
N590 C593 1.350 . S
N591 S589 1.610 . S
N591 C592 1.351 . S
C592 C586 1.428 . S
C592 N591 1.351 . S
C592 C593 1.434 . S
C593 C584 1.429 . S
C593 N590 1.350 . S
C593 C592 1.434 . S
C594 C595 1.369 . S
C594 C596 1.419 . S
C594 H598 0.930 . S
C595 C594 1.369 . S
C595 C604 1.429 . S
C596 C594 1.419 . S
C596 C597 1.363 . S
C596 H599 0.929 . S
C597 C596 1.363 . S
C597 C603 1.428 . S
H598 C594 0.930 . S
H599 C596 0.929 . S
S600 N601 1.613 . S
S600 N602 1.610 . S
N601 S600 1.613 . S
N601 C604 1.350 . S
N602 S600 1.610 . S
N602 C603 1.351 . S
C603 C597 1.428 . S
C603 N602 1.351 . S
C603 C604 1.434 . S
C604 C595 1.429 . S
C604 N601 1.350 . S
C604 C603 1.434 . S
C605 C606 1.369 . S
C605 C607 1.419 . S
C605 H609 0.930 . S
C606 C605 1.369 . S
C606 C615 1.429 . S
C607 C605 1.419 . S
C607 C608 1.363 . S
C607 H610 0.930 . S
C608 C607 1.363 . S
C608 C614 1.428 . S
H609 C605 0.930 . S
H610 C607 0.930 . S
S611 N612 1.613 . S
S611 N613 1.610 . S
N612 S611 1.613 . S
N612 C615 1.350 . S
N613 S611 1.610 . S
N613 C614 1.351 . S
C614 C608 1.428 . S
C614 N613 1.351 . S
C614 C615 1.434 . S
C615 C606 1.429 . S
C615 N612 1.350 . S
C615 C614 1.434 . S
C616 C617 1.369 . S
C616 C618 1.419 . S
C616 H620 0.930 . S
C617 C616 1.369 . S
C617 C626 1.429 . S
C618 C616 1.419 . S
C618 C619 1.363 . S
C618 H621 0.929 . S
C619 C618 1.363 . S
C619 C625 1.428 . S
H620 C616 0.930 . S
H621 C618 0.929 . S
S622 N623 1.613 . S
S622 N624 1.610 . S
N623 S622 1.613 . S
N623 C626 1.350 . S
N624 S622 1.610 . S
N624 C625 1.351 . S
C625 C619 1.428 . S
C625 N624 1.351 . S
C625 C626 1.434 . S
C626 C617 1.429 . S
C626 N623 1.350 . S
C626 C625 1.434 . S
C627 C628 1.369 . S
C627 C629 1.419 . S
C627 H631 0.930 . S
C628 C627 1.369 . S
C628 C637 1.429 . S
C629 C627 1.419 . S
C629 C630 1.363 . S
C629 H632 0.940 . S
C630 C629 1.363 . S
C630 C636 1.428 . S
H631 C627 0.930 . S
H632 C629 0.940 . S
S633 N634 1.613 . S
S633 N635 1.610 . S
N634 S633 1.613 . S
N634 C637 1.350 . S
N635 S633 1.610 . S
N635 C636 1.351 . S
C636 C630 1.428 . S
C636 N635 1.351 . S
C636 C637 1.434 . S
C637 C628 1.429 . S
C637 N634 1.350 . S
C637 C636 1.434 . S
C638 C639 1.369 . S
C638 C640 1.419 . S
C638 H642 0.930 . S
C639 C638 1.369 . S
C639 C648 1.429 . S
C640 C638 1.419 . S
C640 C641 1.363 . S
C640 H643 0.929 . S
C641 C640 1.363 . S
C641 C647 1.428 . S
H642 C638 0.930 . S
H643 C640 0.929 . S
S644 N645 1.613 . S
S644 N646 1.610 . S
N645 S644 1.613 . S
N645 C648 1.350 . S
N646 S644 1.610 . S
N646 C647 1.351 . S
C647 C641 1.428 . S
C647 N646 1.351 . S
C647 C648 1.434 . S
C648 C639 1.429 . S
C648 N645 1.350 . S
C648 C647 1.434 . S
C649 C650 1.369 . S
C649 C651 1.419 . S
C649 H653 0.930 . S
C650 C649 1.369 . S
C650 C659 1.429 . S
C651 C649 1.419 . S
C651 C652 1.363 . S
C651 H654 0.929 . S
C652 C651 1.363 . S
C652 C658 1.428 1_455 S
H653 C649 0.930 . S
H654 C651 0.929 . S
S655 N656 1.613 1_655 S
S655 N657 1.610 . S
N656 S655 1.613 1_455 S
N656 C659 1.350 . S
N657 S655 1.610 . S
N657 C658 1.351 . S
C658 C652 1.428 1_655 S
C658 N657 1.351 . S
C658 C659 1.434 1_655 S
C659 C650 1.429 . S
C659 N656 1.350 . S
C659 C658 1.434 1_455 S
C660 C661 1.369 . S
C660 C662 1.419 . S
C660 H664 0.930 . S
C661 C660 1.369 . S
C661 C670 1.429 . S
C662 C660 1.419 . S
C662 C663 1.363 . S
C662 H665 0.929 . S
C663 C662 1.363 . S
C663 C669 1.428 . S
H664 C660 0.930 . S
H665 C662 0.929 . S
S666 N667 1.613 . S
S666 N668 1.610 . S
N667 S666 1.613 . S
N667 C670 1.350 . S
N668 S666 1.610 . S
N668 C669 1.351 . S
C669 C663 1.428 . S
C669 N668 1.351 . S
C669 C670 1.434 . S
C670 C661 1.429 . S
C670 N667 1.350 . S
C670 C669 1.434 . S
C671 C672 1.369 . S
C671 C673 1.419 . S
C671 H675 0.930 . S
C672 C671 1.369 . S
C672 C681 1.429 . S
C673 C671 1.419 . S
C673 C674 1.363 . S
C673 H676 0.929 . S
C674 C673 1.363 . S
C674 C680 1.428 . S
H675 C671 0.930 . S
H676 C673 0.929 . S
S677 N678 1.613 . S
S677 N679 1.610 . S
N678 S677 1.613 . S
N678 C681 1.350 . S
N679 S677 1.610 . S
N679 C680 1.351 . S
C680 C674 1.428 . S
C680 N679 1.351 . S
C680 C681 1.434 . S
C681 C672 1.429 . S
C681 N678 1.350 . S
C681 C680 1.434 . S
C682 C683 1.369 . S
C682 C684 1.419 . S
C682 H686 0.930 . S
C683 C682 1.369 . S
C683 C692 1.429 . S
C684 C682 1.419 . S
C684 C685 1.363 . S
C684 H687 0.929 . S
C685 C684 1.363 . S
C685 C691 1.428 . S
H686 C682 0.930 . S
H687 C684 0.929 . S
S688 N689 1.613 . S
S688 N690 1.610 . S
N689 S688 1.613 . S
N689 C692 1.350 . S
N690 S688 1.610 . S
N690 C691 1.351 . S
C691 C685 1.428 . S
C691 N690 1.351 . S
C691 C692 1.434 . S
C692 C683 1.429 . S
C692 N689 1.350 . S
C692 C691 1.434 . S
C693 C694 1.369 . S
C693 C695 1.419 . S
C693 H697 0.930 . S
C694 C693 1.369 . S
C694 C703 1.429 1_545 S
C695 C693 1.419 . S
C695 C696 1.363 . S
C695 H698 0.929 . S
C696 C695 1.363 . S
C696 C702 1.428 . S
H697 C693 0.930 . S
H698 C695 0.929 . S
S699 N700 1.613 . S
S699 N701 1.610 . S
N700 S699 1.613 . S
N700 C703 1.350 . S
N701 S699 1.610 . S
N701 C702 1.351 1_565 S
C702 C696 1.428 . S
C702 N701 1.351 1_545 S
C702 C703 1.434 1_545 S
C703 C694 1.429 1_565 S
C703 N700 1.350 . S
C703 C702 1.434 1_565 S
C704 C705 1.369 . S
C704 C706 1.419 . S
C704 H708 0.930 . S
C705 C704 1.369 . S
C705 C714 1.429 . S
C706 C704 1.419 . S
C706 C707 1.363 . S
C706 H709 0.929 . S
C707 C706 1.363 . S
C707 C713 1.428 . S
H708 C704 0.930 . S
H709 C706 0.929 . S
S710 N711 1.613 . S
S710 N712 1.610 . S
N711 S710 1.613 . S
N711 C714 1.350 . S
N712 S710 1.610 . S
N712 C713 1.351 . S
C713 C707 1.428 . S
C713 N712 1.351 . S
C713 C714 1.434 . S
C714 C705 1.429 . S
C714 N711 1.350 . S
C714 C713 1.434 . S
C715 C716 1.369 1_556 S
C715 C717 1.419 1_556 S
C715 H719 0.930 . S
C716 C715 1.369 1_554 S
C716 C725 1.429 . S
C717 C715 1.419 1_554 S
C717 C718 1.363 . S
C717 H720 0.934 . S
C718 C717 1.363 . S
C718 C724 1.428 . S
H719 C715 0.930 . S
H720 C717 0.934 . S
S721 N722 1.613 . S
S721 N723 1.610 . S
N722 S721 1.613 . S
N722 C725 1.350 . S
N723 S721 1.610 . S
N723 C724 1.351 . S
C724 C718 1.428 . S
C724 N723 1.351 . S
C724 C725 1.434 . S
C725 C716 1.429 . S
C725 N722 1.350 . S
C725 C724 1.434 . S
C726 C727 1.369 . S
C726 C728 1.419 . S
C726 H730 0.930 . S
C727 C726 1.369 . S
C727 C736 1.429 . S
C728 C726 1.419 . S
C728 C729 1.363 . S
C728 H731 0.929 . S
C729 C728 1.363 . S
C729 C735 1.428 . S
H730 C726 0.930 . S
H731 C728 0.929 . S
S732 N733 1.613 . S
S732 N734 1.610 . S
N733 S732 1.613 . S
N733 C736 1.350 . S
N734 S732 1.610 . S
N734 C735 1.351 . S
C735 C729 1.428 . S
C735 N734 1.351 . S
C735 C736 1.434 . S
C736 C727 1.429 . S
C736 N733 1.350 . S
C736 C735 1.434 . S
C737 C738 1.369 . S
C737 C739 1.419 . S
C737 H741 0.930 . S
C738 C737 1.369 . S
C738 C747 1.429 . S
C739 C737 1.419 . S
C739 C740 1.363 . S
C739 H742 0.929 . S
C740 C739 1.363 . S
C740 C746 1.428 . S
H741 C737 0.930 . S
H742 C739 0.929 . S
S743 N744 1.613 . S
S743 N745 1.610 . S
N744 S743 1.613 . S
N744 C747 1.350 . S
N745 S743 1.610 . S
N745 C746 1.351 . S
C746 C740 1.428 . S
C746 N745 1.351 . S
C746 C747 1.434 . S
C747 C738 1.429 . S
C747 N744 1.350 . S
C747 C746 1.434 . S
C748 C749 1.369 . S
C748 C750 1.419 . S
C748 H752 0.930 . S
C749 C748 1.369 . S
C749 C758 1.429 . S
C750 C748 1.419 . S
C750 C751 1.363 . S
C750 H753 0.929 . S
C751 C750 1.363 . S
C751 C757 1.428 . S
H752 C748 0.930 . S
H753 C750 0.929 . S
S754 N755 1.613 . S
S754 N756 1.610 . S
N755 S754 1.613 . S
N755 C758 1.350 . S
N756 S754 1.610 . S
N756 C757 1.351 . S
C757 C751 1.428 . S
C757 N756 1.351 . S
C757 C758 1.434 . S
C758 C749 1.429 . S
C758 N755 1.350 . S
C758 C757 1.434 . S
C759 C760 1.369 . S
C759 C761 1.419 . S
C759 H763 0.930 . S
C760 C759 1.369 . S
C760 C769 1.429 1_455 S
C761 C759 1.419 . S
C761 C762 1.363 . S
C761 H764 0.929 . S
C762 C761 1.363 . S
C762 C768 1.428 . S
H763 C759 0.930 . S
H764 C761 0.929 . S
S765 N766 1.613 . S
S765 N767 1.610 1_655 S
N766 S765 1.613 . S
N766 C769 1.350 . S
N767 S765 1.610 1_455 S
N767 C768 1.351 . S
C768 C762 1.428 . S
C768 N767 1.351 . S
C768 C769 1.434 1_455 S
C769 C760 1.429 1_655 S
C769 N766 1.350 . S
C769 C768 1.434 1_655 S
C770 C771 1.369 . S
C770 C772 1.419 . S
C770 H774 0.930 . S
C771 C770 1.369 . S
C771 C780 1.429 . S
C772 C770 1.419 . S
C772 C773 1.363 . S
C772 H775 0.929 . S
C773 C772 1.363 . S
C773 C779 1.428 . S
H774 C770 0.930 . S
H775 C772 0.929 . S
S776 N777 1.613 . S
S776 N778 1.610 . S
N777 S776 1.613 . S
N777 C780 1.350 . S
N778 S776 1.610 . S
N778 C779 1.351 . S
C779 C773 1.428 . S
C779 N778 1.351 . S
C779 C780 1.434 . S
C780 C771 1.429 . S
C780 N777 1.350 . S
C780 C779 1.434 . S
C781 C782 1.369 . S
C781 C783 1.419 1_655 S
C781 H785 0.942 . S
C782 C781 1.369 . S
C782 C791 1.429 . S
C783 C781 1.419 1_455 S
C783 C784 1.363 1_455 S
C783 H786 0.929 . S
C784 C783 1.363 1_655 S
C784 C790 1.428 . S
H785 C781 0.942 . S
H786 C783 0.929 . S
S787 N788 1.613 . S
S787 N789 1.610 . S
N788 S787 1.613 . S
N788 C791 1.350 . S
N789 S787 1.610 . S
N789 C790 1.351 . S
C790 C784 1.428 . S
C790 N789 1.351 . S
C790 C791 1.434 . S
C791 C782 1.429 . S
C791 N788 1.350 . S
C791 C790 1.434 . S
C792 C793 1.369 . S
C792 C794 1.419 . S
C792 H796 0.930 . S
C793 C792 1.369 . S
C793 C802 1.429 . S
C794 C792 1.419 . S
C794 C795 1.363 . S
C794 H797 0.929 . S
C795 C794 1.363 . S
C795 C801 1.428 . S
H796 C792 0.930 . S
H797 C794 0.929 . S
S798 N799 1.613 . S
S798 N800 1.610 . S
N799 S798 1.613 . S
N799 C802 1.350 . S
N800 S798 1.610 . S
N800 C801 1.351 . S
C801 C795 1.428 . S
C801 N800 1.351 . S
C801 C802 1.434 . S
C802 C793 1.429 . S
C802 N799 1.350 . S
C802 C801 1.434 . S
C803 C804 1.369 . S
C803 C805 1.419 . S
C803 H807 0.930 . S
C804 C803 1.369 . S
C804 C813 1.429 . S
C805 C803 1.419 . S
C805 C806 1.363 . S
C805 H808 0.929 . S
C806 C805 1.363 . S
C806 C812 1.428 . S
H807 C803 0.930 . S
H808 C805 0.929 . S
S809 N810 1.613 . S
S809 N811 1.610 . S
N810 S809 1.613 . S
N810 C813 1.350 . S
N811 S809 1.610 . S
N811 C812 1.351 . S
C812 C806 1.428 . S
C812 N811 1.351 . S
C812 C813 1.434 . S
C813 C804 1.429 . S
C813 N810 1.350 . S
C813 C812 1.434 . S
C814 C815 1.369 . S
C814 C816 1.419 . S
C814 H818 0.930 . S
C815 C814 1.369 . S
C815 C824 1.429 . S
C816 C814 1.419 . S
C816 C817 1.363 . S
C816 H819 0.929 . S
C817 C816 1.363 . S
C817 C823 1.428 . S
H818 C814 0.930 . S
H819 C816 0.929 . S
S820 N821 1.613 1_565 S
S820 N822 1.610 1_565 S
N821 S820 1.613 1_545 S
N821 C824 1.350 . S
N822 S820 1.610 1_545 S
N822 C823 1.351 . S
C823 C817 1.428 . S
C823 N822 1.351 . S
C823 C824 1.434 . S
C824 C815 1.429 . S
C824 N821 1.350 . S
C824 C823 1.434 . S
C825 C826 1.369 . S
C825 C827 1.419 . S
C825 H829 0.930 . S
C826 C825 1.369 . S
C826 C835 1.429 . S
C827 C825 1.419 . S
C827 C828 1.363 . S
C827 H830 0.929 . S
C828 C827 1.363 . S
C828 C834 1.428 . S
H829 C825 0.930 . S
H830 C827 0.929 . S
S831 N832 1.613 . S
S831 N833 1.610 . S
N832 S831 1.613 . S
N832 C835 1.350 . S
N833 S831 1.610 . S
N833 C834 1.351 . S
C834 C828 1.428 . S
C834 N833 1.351 . S
C834 C835 1.434 . S
C835 C826 1.429 . S
C835 N832 1.350 . S
C835 C834 1.434 . S
C836 C837 1.369 . S
C836 C838 1.419 . S
C836 H840 0.930 . S
C837 C836 1.369 . S
C837 C846 1.429 . S
C838 C836 1.419 . S
C838 C839 1.363 . S
C838 H841 0.929 . S
C839 C838 1.363 . S
C839 C845 1.428 . S
H840 C836 0.930 . S
H841 C838 0.929 . S
S842 N843 1.613 . S
S842 N844 1.610 . S
N843 S842 1.613 . S
N843 C846 1.350 . S
N844 S842 1.610 . S
N844 C845 1.351 . S
C845 C839 1.428 . S
C845 N844 1.351 . S
C845 C846 1.434 . S
C846 C837 1.429 . S
C846 N843 1.350 . S
C846 C845 1.434 . S
C847 C848 1.369 . S
C847 C849 1.419 . S
C847 H851 0.930 . S
C848 C847 1.369 . S
C848 C857 1.429 . S
C849 C847 1.419 . S
C849 C850 1.363 . S
C849 H852 0.929 . S
C850 C849 1.363 . S
C850 C856 1.428 . S
H851 C847 0.930 . S
H852 C849 0.929 . S
S853 N854 1.613 1_554 S
S853 N855 1.610 1_554 S
N854 S853 1.613 1_556 S
N854 C857 1.350 . S
N855 S853 1.610 1_556 S
N855 C856 1.351 . S
C856 C850 1.428 . S
C856 N855 1.351 . S
C856 C857 1.434 . S
C857 C848 1.429 . S
C857 N854 1.350 . S
C857 C856 1.434 . S
C858 C859 1.369 . S
C858 C860 1.419 . S
C858 H862 0.930 . S
C859 C858 1.369 . S
C859 C868 1.429 . S
C860 C858 1.419 . S
C860 C861 1.363 . S
C860 H863 0.929 . S
C861 C860 1.363 . S
C861 C867 1.428 . S
H862 C858 0.930 . S
H863 C860 0.929 . S
S864 N865 1.613 . S
S864 N866 1.610 . S
N865 S864 1.613 . S
N865 C868 1.350 . S
N866 S864 1.610 . S
N866 C867 1.351 . S
C867 C861 1.428 . S
C867 N866 1.351 . S
C867 C868 1.434 . S
C868 C859 1.429 . S
C868 N865 1.350 . S
C868 C867 1.434 . S
C869 C870 1.369 . S
C869 C871 1.419 . S
C869 H873 0.930 . S
C870 C869 1.369 . S
C870 C879 1.429 . S
C871 C869 1.419 . S
C871 C872 1.363 . S
C871 H874 0.929 . S
C872 C871 1.363 . S
C872 C878 1.428 . S
H873 C869 0.930 . S
H874 C871 0.929 . S
S875 N876 1.613 . S
S875 N877 1.610 . S
N876 S875 1.613 . S
N876 C879 1.350 . S
N877 S875 1.610 . S
N877 C878 1.351 . S
C878 C872 1.428 . S
C878 N877 1.351 . S
C878 C879 1.434 . S
C879 C870 1.429 . S
C879 N876 1.350 . S
C879 C878 1.434 . S
C880 C881 1.369 . S
C880 C882 1.419 . S
C880 H884 0.930 . S
C881 C880 1.369 . S
C881 C890 1.429 . S
C882 C880 1.419 . S
C882 C883 1.363 . S
C882 H885 0.929 . S
C883 C882 1.363 . S
C883 C889 1.428 . S
H884 C880 0.930 . S
H885 C882 0.929 . S
S886 N887 1.613 . S
S886 N888 1.610 . S
N887 S886 1.613 . S
N887 C890 1.350 . S
N888 S886 1.610 . S
N888 C889 1.351 . S
C889 C883 1.428 . S
C889 N888 1.351 . S
C889 C890 1.434 . S
C890 C881 1.429 . S
C890 N887 1.350 . S
C890 C889 1.434 . S
C891 C892 1.369 . S
C891 C893 1.419 . S
C891 H895 0.930 . S
C892 C891 1.369 . S
C892 C901 1.429 . S
C893 C891 1.419 . S
C893 C894 1.363 . S
C893 H896 0.929 . S
C894 C893 1.363 . S
C894 C900 1.428 . S
H895 C891 0.930 . S
H896 C893 0.929 . S
S897 N898 1.613 . S
S897 N899 1.610 . S
N898 S897 1.613 . S
N898 C901 1.350 . S
N899 S897 1.610 . S
N899 C900 1.351 . S
C900 C894 1.428 . S
C900 N899 1.351 . S
C900 C901 1.434 . S
C901 C892 1.429 . S
C901 N898 1.350 . S
C901 C900 1.434 . S
C902 C903 1.369 . S
C902 C904 1.419 . S
C902 H906 0.930 . S
C903 C902 1.369 . S
C903 C912 1.429 . S
C904 C902 1.419 . S
C904 C905 1.363 . S
C904 H907 0.929 . S
C905 C904 1.363 . S
C905 C911 1.428 . S
H906 C902 0.930 . S
H907 C904 0.929 . S
S908 N909 1.613 . S
S908 N910 1.610 . S
N909 S908 1.613 . S
N909 C912 1.350 . S
N910 S908 1.610 . S
N910 C911 1.351 . S
C911 C905 1.428 . S
C911 N910 1.351 . S
C911 C912 1.434 . S
C912 C903 1.429 . S
C912 N909 1.350 . S
C912 C911 1.434 . S
C913 C914 1.369 . S
C913 C915 1.419 . S
C913 H917 0.930 . S
C914 C913 1.369 . S
C914 C923 1.429 . S
C915 C913 1.419 . S
C915 C916 1.363 . S
C915 H918 0.929 . S
C916 C915 1.363 . S
C916 C922 1.428 . S
H917 C913 0.930 . S
H918 C915 0.929 . S
S919 N920 1.613 . S
S919 N921 1.610 . S
N920 S919 1.613 . S
N920 C923 1.350 . S
N921 S919 1.610 . S
N921 C922 1.351 . S
C922 C916 1.428 . S
C922 N921 1.351 . S
C922 C923 1.434 . S
C923 C914 1.429 . S
C923 N920 1.350 . S
C923 C922 1.434 . S
C924 C925 1.369 . S
C924 C926 1.419 . S
C924 H928 0.930 . S
C925 C924 1.369 . S
C925 C934 1.429 . S
C926 C924 1.419 . S
C926 C927 1.363 . S
C926 H929 0.929 . S
C927 C926 1.363 . S
C927 C933 1.428 . S
H928 C924 0.930 . S
H929 C926 0.929 . S
S930 N931 1.613 . S
S930 N932 1.610 . S
N931 S930 1.613 . S
N931 C934 1.350 . S
N932 S930 1.610 . S
N932 C933 1.351 . S
C933 C927 1.428 . S
C933 N932 1.351 . S
C933 C934 1.434 . S
C934 C925 1.429 . S
C934 N931 1.350 . S
C934 C933 1.434 . S
C935 C936 1.369 . S
C935 C937 1.419 . S
C935 H939 0.930 . S
C936 C935 1.369 . S
C936 C945 1.429 . S
C937 C935 1.419 . S
C937 C938 1.363 . S
C937 H940 0.929 . S
C938 C937 1.363 . S
C938 C944 1.428 . S
H939 C935 0.930 . S
H940 C937 0.929 . S
S941 N942 1.613 . S
S941 N943 1.610 . S
N942 S941 1.613 . S
N942 C945 1.350 . S
N943 S941 1.610 . S
N943 C944 1.351 . S
C944 C938 1.428 . S
C944 N943 1.351 . S
C944 C945 1.434 . S
C945 C936 1.429 . S
C945 N942 1.350 . S
C945 C944 1.434 . S
C946 C947 1.369 . S
C946 C948 1.419 . S
C946 H950 0.930 . S
C947 C946 1.369 . S
C947 C956 1.429 . S
C948 C946 1.419 . S
C948 C949 1.363 . S
C948 H951 0.929 . S
C949 C948 1.363 . S
C949 C955 1.428 . S
H950 C946 0.930 . S
H951 C948 0.929 . S
S952 N953 1.613 . S
S952 N954 1.610 . S
N953 S952 1.613 . S
N953 C956 1.350 . S
N954 S952 1.610 . S
N954 C955 1.351 . S
C955 C949 1.428 . S
C955 N954 1.351 . S
C955 C956 1.434 . S
C956 C947 1.429 . S
C956 N953 1.350 . S
C956 C955 1.434 . S
C957 C958 1.369 . S
C957 C959 1.419 . S
C957 H961 0.930 . S
C958 C957 1.369 . S
C958 C967 1.429 . S
C959 C957 1.419 . S
C959 C960 1.363 . S
C959 H962 0.929 . S
C960 C959 1.363 . S
C960 C966 1.428 . S
H961 C957 0.930 . S
H962 C959 0.929 . S
S963 N964 1.613 1_565 S
S963 N965 1.610 1_565 S
N964 S963 1.613 1_545 S
N964 C967 1.350 . S
N965 S963 1.610 1_545 S
N965 C966 1.351 . S
C966 C960 1.428 . S
C966 N965 1.351 . S
C966 C967 1.434 . S
C967 C958 1.429 . S
C967 N964 1.350 . S
C967 C966 1.434 . S
C968 C969 1.369 . S
C968 C970 1.419 . S
C968 H972 0.930 . S
C969 C968 1.369 . S
C969 C978 1.429 . S
C970 C968 1.419 . S
C970 C971 1.363 . S
C970 H973 0.929 . S
C971 C970 1.363 . S
C971 C977 1.428 . S
H972 C968 0.930 . S
H973 C970 0.929 . S
S974 N975 1.613 . S
S974 N976 1.610 . S
N975 S974 1.613 . S
N975 C978 1.350 . S
N976 S974 1.610 . S
N976 C977 1.351 . S
C977 C971 1.428 . S
C977 N976 1.351 . S
C977 C978 1.434 . S
C978 C969 1.429 . S
C978 N975 1.350 . S
C978 C977 1.434 . S
C979 C980 1.369 . S
C979 C981 1.419 . S
C979 H983 0.930 . S
C980 C979 1.369 . S
C980 C989 1.429 . S
C981 C979 1.419 . S
C981 C982 1.363 . S
C981 H984 0.929 . S
C982 C981 1.363 . S
C982 C988 1.428 . S
H983 C979 0.930 . S
H984 C981 0.929 . S
S985 N986 1.613 . S
S985 N987 1.610 . S
N986 S985 1.613 . S
N986 C989 1.350 . S
N987 S985 1.610 . S
N987 C988 1.351 . S
C988 C982 1.428 . S
C988 N987 1.351 . S
C988 C989 1.434 . S
C989 C980 1.429 . S
C989 N986 1.350 . S
C989 C988 1.434 . S
C990 C991 1.369 . S
C990 C992 1.419 . S
C990 H994 0.930 . S
C991 C990 1.369 . S
C991 C1000 1.429 . S
C992 C990 1.419 . S
C992 C993 1.363 . S
C992 H995 0.929 . S
C993 C992 1.363 . S
C993 C999 1.428 . S
H994 C990 0.930 . S
H995 C992 0.929 . S
S996 N997 1.613 . S
S996 N998 1.610 . S
N997 S996 1.613 . S
N997 C1000 1.350 . S
N998 S996 1.610 . S
N998 C999 1.351 . S
C999 C993 1.428 . S
C999 N998 1.351 . S
C999 C1000 1.434 . S
C1000 C991 1.429 . S
C1000 N997 1.350 . S
C1000 C999 1.434 . S
C1001 C1002 1.369 . S
C1001 C1003 1.419 . S
C1001 H1005 0.930 . S
C1002 C1001 1.369 . S
C1002 C1011 1.429 . S
C1003 C1001 1.419 . S
C1003 C1004 1.363 . S
C1003 H1006 0.929 . S
C1004 C1003 1.363 . S
C1004 C1010 1.428 . S
H1005 C1001 0.930 . S
H1006 C1003 0.929 . S
S1007 N1008 1.613 . S
S1007 N1009 1.610 . S
N1008 S1007 1.613 . S
N1008 C1011 1.350 . S
N1009 S1007 1.610 . S
N1009 C1010 1.351 . S
C1010 C1004 1.428 . S
C1010 N1009 1.351 . S
C1010 C1011 1.434 . S
C1011 C1002 1.429 . S
C1011 N1008 1.350 . S
C1011 C1010 1.434 . S
C1012 C1013 1.369 . S
C1012 C1014 1.419 . S
C1012 H1016 0.930 . S
C1013 C1012 1.369 . S
C1013 C1022 1.429 . S
C1014 C1012 1.419 . S
C1014 C1015 1.363 . S
C1014 H1017 0.929 . S
C1015 C1014 1.363 . S
C1015 C1021 1.428 . S
H1016 C1012 0.930 . S
H1017 C1014 0.929 . S
S1018 N1019 1.613 . S
S1018 N1020 1.610 . S
N1019 S1018 1.613 . S
N1019 C1022 1.350 . S
N1020 S1018 1.610 . S
N1020 C1021 1.351 . S
C1021 C1015 1.428 . S
C1021 N1020 1.351 . S
C1021 C1022 1.434 . S
C1022 C1013 1.429 . S
C1022 N1019 1.350 . S
C1022 C1021 1.434 . S
C1023 C1024 1.369 . S
C1023 C1025 1.419 . S
C1023 H1027 0.930 . S
C1024 C1023 1.369 . S
C1024 C1033 1.429 . S
C1025 C1023 1.419 . S
C1025 C1026 1.363 . S
C1025 H1028 0.929 . S
C1026 C1025 1.363 . S
C1026 C1032 1.428 . S
H1027 C1023 0.930 . S
H1028 C1025 0.929 . S
S1029 N1030 1.613 . S
S1029 N1031 1.610 . S
N1030 S1029 1.613 . S
N1030 C1033 1.350 . S
N1031 S1029 1.610 . S
N1031 C1032 1.351 . S
C1032 C1026 1.428 . S
C1032 N1031 1.351 . S
C1032 C1033 1.434 . S
C1033 C1024 1.429 . S
C1033 N1030 1.350 . S
C1033 C1032 1.434 . S
C1034 C1035 1.369 . S
C1034 C1036 1.419 . S
C1034 H1038 0.930 . S
C1035 C1034 1.369 . S
C1035 C1044 1.429 . S
C1036 C1034 1.419 . S
C1036 C1037 1.363 . S
C1036 H1039 0.929 . S
C1037 C1036 1.363 . S
C1037 C1043 1.428 . S
H1038 C1034 0.930 . S
H1039 C1036 0.929 . S
S1040 N1041 1.613 . S
S1040 N1042 1.610 . S
N1041 S1040 1.613 . S
N1041 C1044 1.350 . S
N1042 S1040 1.610 . S
N1042 C1043 1.351 . S
C1043 C1037 1.428 . S
C1043 N1042 1.351 . S
C1043 C1044 1.434 . S
C1044 C1035 1.429 . S
C1044 N1041 1.350 . S
C1044 C1043 1.434 . S
C1045 C1046 1.369 . S
C1045 C1047 1.419 . S
C1045 H1049 0.930 . S
C1046 C1045 1.369 . S
C1046 C1055 1.429 . S
C1047 C1045 1.419 . S
C1047 C1048 1.363 . S
C1047 H1050 0.929 . S
C1048 C1047 1.363 . S
C1048 C1054 1.428 . S
H1049 C1045 0.930 . S
H1050 C1047 0.929 . S
S1051 N1052 1.613 . S
S1051 N1053 1.610 . S
N1052 S1051 1.613 . S
N1052 C1055 1.350 . S
N1053 S1051 1.610 . S
N1053 C1054 1.351 . S
C1054 C1048 1.428 . S
C1054 N1053 1.351 . S
C1054 C1055 1.434 . S
C1055 C1046 1.429 . S
C1055 N1052 1.350 . S
C1055 C1054 1.434 . S
C1056 C1057 1.369 1_655 S
C1056 C1058 1.419 . S
C1056 H1060 0.930 . S
C1057 C1056 1.369 1_455 S
C1057 C1066 1.429 . S
C1058 C1056 1.419 . S
C1058 C1059 1.363 . S
C1058 H1061 0.929 . S
C1059 C1058 1.363 . S
C1059 C1065 1.428 1_655 S
H1060 C1056 0.930 . S
H1061 C1058 0.929 . S
S1062 N1063 1.613 . S
S1062 N1064 1.610 . S
N1063 S1062 1.613 . S
N1063 C1066 1.350 . S
N1064 S1062 1.610 . S
N1064 C1065 1.351 . S
C1065 C1059 1.428 1_455 S
C1065 N1064 1.351 . S
C1065 C1066 1.434 . S
C1066 C1057 1.429 . S
C1066 N1063 1.350 . S
C1066 C1065 1.434 . S
C1067 C1068 1.369 . S
C1067 C1069 1.419 . S
C1067 H1071 0.930 . S
C1068 C1067 1.369 . S
C1068 C1077 1.429 . S
C1069 C1067 1.419 . S
C1069 C1070 1.363 . S
C1069 H1072 0.929 . S
C1070 C1069 1.363 . S
C1070 C1076 1.428 . S
H1071 C1067 0.930 . S
H1072 C1069 0.929 . S
S1073 N1074 1.613 . S
S1073 N1075 1.610 . S
N1074 S1073 1.613 . S
N1074 C1077 1.350 . S
N1075 S1073 1.610 . S
N1075 C1076 1.351 . S
C1076 C1070 1.428 . S
C1076 N1075 1.351 . S
C1076 C1077 1.434 . S
C1077 C1068 1.429 . S
C1077 N1074 1.350 . S
C1077 C1076 1.434 . S
C1078 C1079 1.369 . S
C1078 C1080 1.419 . S
C1078 H1082 0.930 . S
C1079 C1078 1.369 . S
C1079 C1088 1.429 . S
C1080 C1078 1.419 . S
C1080 C1081 1.363 . S
C1080 H1083 0.929 . S
C1081 C1080 1.363 . S
C1081 C1087 1.428 . S
H1082 C1078 0.930 . S
H1083 C1080 0.929 . S
S1084 N1085 1.613 . S
S1084 N1086 1.610 . S
N1085 S1084 1.613 . S
N1085 C1088 1.350 . S
N1086 S1084 1.610 . S
N1086 C1087 1.351 . S
C1087 C1081 1.428 . S
C1087 N1086 1.351 . S
C1087 C1088 1.434 . S
C1088 C1079 1.429 . S
C1088 N1085 1.350 . S
C1088 C1087 1.434 . S
C1089 C1090 1.369 . S
C1089 C1091 1.419 . S
C1089 H1093 0.930 . S
C1090 C1089 1.369 . S
C1090 C1099 1.429 . S
C1091 C1089 1.419 . S
C1091 C1092 1.363 1_455 S
C1091 H1094 0.929 . S
C1092 C1091 1.363 1_655 S
C1092 C1098 1.428 . S
H1093 C1089 0.930 . S
H1094 C1091 0.929 . S
S1095 N1096 1.613 1_655 S
S1095 N1097 1.610 . S
N1096 S1095 1.613 1_455 S
N1096 C1099 1.350 . S
N1097 S1095 1.610 . S
N1097 C1098 1.351 . S
C1098 C1092 1.428 . S
C1098 N1097 1.351 . S
C1098 C1099 1.434 1_655 S
C1099 C1090 1.429 . S
C1099 N1096 1.350 . S
C1099 C1098 1.434 1_455 S
C1100 C1101 1.369 . S
C1100 C1102 1.419 1_545 S
C1100 H1104 0.930 . S
C1101 C1100 1.369 . S
C1101 C1110 1.429 1_545 S
C1102 C1100 1.419 1_565 S
C1102 C1103 1.363 . S
C1102 H1105 0.929 1_565 S
C1103 C1102 1.363 . S
C1103 C1109 1.428 . S
H1104 C1100 0.930 . S
H1105 C1102 0.929 1_545 S
S1106 N1107 1.613 . S
S1106 N1108 1.610 . S
N1107 S1106 1.613 . S
N1107 C1110 1.350 . S
N1108 S1106 1.610 . S
N1108 C1109 1.351 . S
C1109 C1103 1.428 . S
C1109 N1108 1.351 . S
C1109 C1110 1.434 . S
C1110 C1101 1.429 1_565 S
C1110 N1107 1.350 . S
C1110 C1109 1.434 . S
C1111 C1112 1.369 . S
C1111 C1113 1.419 1_545 S
C1111 H1115 0.930 1_545 S
C1112 C1111 1.369 . S
C1112 C1121 1.429 . S
C1113 C1111 1.419 1_565 S
C1113 C1114 1.363 . S
C1113 H1116 0.929 . S
C1114 C1113 1.363 . S
C1114 C1120 1.428 1_565 S
H1115 C1111 0.930 1_565 S
H1116 C1113 0.929 . S
S1117 N1118 1.613 . S
S1117 N1119 1.610 . S
N1118 S1117 1.613 . S
N1118 C1121 1.350 . S
N1119 S1117 1.610 . S
N1119 C1120 1.351 . S
C1120 C1114 1.428 1_545 S
C1120 N1119 1.351 . S
C1120 C1121 1.434 . S
C1121 C1112 1.429 . S
C1121 N1118 1.350 . S
C1121 C1120 1.434 . S
C1122 C1123 1.369 . S
C1122 C1124 1.419 . S
C1122 H1126 0.930 . S
C1123 C1122 1.369 . S
C1123 C1132 1.429 . S
C1124 C1122 1.419 . S
C1124 C1125 1.363 . S
C1124 H1127 0.929 . S
C1125 C1124 1.363 . S
C1125 C1131 1.428 . S
H1126 C1122 0.930 . S
H1127 C1124 0.929 . S
S1128 N1129 1.613 . S
S1128 N1130 1.610 . S
N1129 S1128 1.613 . S
N1129 C1132 1.350 . S
N1130 S1128 1.610 . S
N1130 C1131 1.351 . S
C1131 C1125 1.428 . S
C1131 N1130 1.351 . S
C1131 C1132 1.434 . S
C1132 C1123 1.429 . S
C1132 N1129 1.350 . S
C1132 C1131 1.434 . S
C1133 C1134 1.369 . S
C1133 C1135 1.419 . S
C1133 H1137 0.930 . S
C1134 C1133 1.369 . S
C1134 C1143 1.429 . S
C1135 C1133 1.419 . S
C1135 C1136 1.363 . S
C1135 H1138 0.929 . S
C1136 C1135 1.363 . S
C1136 C1142 1.428 . S
H1137 C1133 0.930 . S
H1138 C1135 0.929 . S
S1139 N1140 1.613 . S
S1139 N1141 1.610 . S
N1140 S1139 1.613 . S
N1140 C1143 1.350 . S
N1141 S1139 1.610 . S
N1141 C1142 1.351 . S
C1142 C1136 1.428 . S
C1142 N1141 1.351 . S
C1142 C1143 1.434 . S
C1143 C1134 1.429 . S
C1143 N1140 1.350 . S
C1143 C1142 1.434 . S
C1144 C1145 1.369 . S
C1144 C1146 1.419 1_554 S
C1144 H1148 0.930 . S
C1145 C1144 1.369 . S
C1145 C1154 1.429 1_554 S
C1146 C1144 1.419 1_556 S
C1146 C1147 1.363 . S
C1146 H1149 0.929 . S
C1147 C1146 1.363 . S
C1147 C1153 1.428 . S
H1148 C1144 0.930 . S
H1149 C1146 0.929 . S
S1150 N1151 1.613 . S
S1150 N1152 1.610 . S
N1151 S1150 1.613 . S
N1151 C1154 1.350 . S
N1152 S1150 1.610 . S
N1152 C1153 1.351 . S
C1153 C1147 1.428 . S
C1153 N1152 1.351 . S
C1153 C1154 1.434 . S
C1154 C1145 1.429 1_556 S
C1154 N1151 1.350 . S
C1154 C1153 1.434 . S
C1155 C1156 1.369 1_554 S
C1155 C1157 1.419 . S
C1155 H1159 0.930 . S
C1156 C1155 1.369 1_556 S
C1156 C1165 1.429 . S
C1157 C1155 1.419 . S
C1157 C1158 1.363 . S
C1157 H1160 0.929 . S
C1158 C1157 1.363 . S
C1158 C1164 1.428 1_554 S
H1159 C1155 0.930 . S
H1160 C1157 0.929 . S
S1161 N1162 1.613 . S
S1161 N1163 1.610 . S
N1162 S1161 1.613 . S
N1162 C1165 1.350 . S
N1163 S1161 1.610 . S
N1163 C1164 1.351 . S
C1164 C1158 1.428 1_556 S
C1164 N1163 1.351 . S
C1164 C1165 1.434 . S
C1165 C1156 1.429 . S
C1165 N1162 1.350 . S
C1165 C1164 1.434 . S
C1166 C1167 1.369 . S
C1166 C1168 1.419 . S
C1166 H1170 0.930 . S
C1167 C1166 1.369 . S
C1167 C1176 1.429 . S
C1168 C1166 1.419 . S
C1168 C1169 1.363 . S
C1168 H1171 0.929 . S
C1169 C1168 1.363 . S
C1169 C1175 1.428 . S
H1170 C1166 0.930 . S
H1171 C1168 0.929 . S
S1172 N1173 1.613 . S
S1172 N1174 1.610 . S
N1173 S1172 1.613 . S
N1173 C1176 1.350 . S
N1174 S1172 1.610 . S
N1174 C1175 1.351 . S
C1175 C1169 1.428 . S
C1175 N1174 1.351 . S
C1175 C1176 1.434 . S
C1176 C1167 1.429 . S
C1176 N1173 1.350 . S
C1176 C1175 1.434 . S
C1177 C1178 1.369 . S
C1177 C1179 1.419 . S
C1177 H1181 0.930 . S
C1178 C1177 1.369 . S
C1178 C1187 1.429 . S
C1179 C1177 1.419 . S
C1179 C1180 1.363 . S
C1179 H1182 0.929 . S
C1180 C1179 1.363 . S
C1180 C1186 1.428 . S
H1181 C1177 0.930 . S
H1182 C1179 0.929 . S
S1183 N1184 1.613 . S
S1183 N1185 1.610 . S
N1184 S1183 1.613 . S
N1184 C1187 1.350 . S
N1185 S1183 1.610 . S
N1185 C1186 1.351 . S
C1186 C1180 1.428 . S
C1186 N1185 1.351 . S
C1186 C1187 1.434 . S
C1187 C1178 1.429 . S
C1187 N1184 1.350 . S
C1187 C1186 1.434 . S
C1188 C1189 1.369 . S
C1188 C1190 1.419 1_655 S
C1188 H1192 0.930 . S
C1189 C1188 1.369 . S
C1189 C1198 1.429 1_655 S
C1190 C1188 1.419 1_455 S
C1190 C1191 1.363 . S
C1190 H1193 0.929 . S
C1191 C1190 1.363 . S
C1191 C1197 1.428 . S
H1192 C1188 0.930 . S
H1193 C1190 0.929 . S
S1194 N1195 1.613 . S
S1194 N1196 1.610 . S
N1195 S1194 1.613 . S
N1195 C1198 1.350 . S
N1196 S1194 1.610 . S
N1196 C1197 1.351 . S
C1197 C1191 1.428 . S
C1197 N1196 1.351 . S
C1197 C1198 1.434 . S
C1198 C1189 1.429 1_455 S
C1198 N1195 1.350 . S
C1198 C1197 1.434 . S
C1199 C1200 1.369 . S
C1199 C1201 1.419 . S
C1199 H1203 0.930 . S
C1200 C1199 1.369 . S
C1200 C1209 1.429 . S
C1201 C1199 1.419 . S
C1201 C1202 1.363 . S
C1201 H1204 0.929 . S
C1202 C1201 1.363 . S
C1202 C1208 1.428 . S
H1203 C1199 0.930 . S
H1204 C1201 0.929 . S
S1205 N1206 1.613 . S
S1205 N1207 1.610 . S
N1206 S1205 1.613 . S
N1206 C1209 1.350 . S
N1207 S1205 1.610 . S
N1207 C1208 1.351 . S
C1208 C1202 1.428 . S
C1208 N1207 1.351 . S
C1208 C1209 1.434 . S
C1209 C1200 1.429 . S
C1209 N1206 1.350 . S
C1209 C1208 1.434 . S
C1210 C1211 1.369 . S
C1210 C1212 1.419 . S
C1210 H1214 0.930 . S
C1211 C1210 1.369 . S
C1211 C1220 1.429 . S
C1212 C1210 1.419 . S
C1212 C1213 1.363 . S
C1212 H1215 0.929 . S
C1213 C1212 1.363 . S
C1213 C1219 1.428 . S
H1214 C1210 0.930 . S
H1215 C1212 0.929 . S
S1216 N1217 1.613 . S
S1216 N1218 1.610 . S
N1217 S1216 1.613 . S
N1217 C1220 1.350 . S
N1218 S1216 1.610 . S
N1218 C1219 1.351 . S
C1219 C1213 1.428 . S
C1219 N1218 1.351 . S
C1219 C1220 1.434 . S
C1220 C1211 1.429 . S
C1220 N1217 1.350 . S
C1220 C1219 1.434 . S
C1221 C1222 1.369 . S
C1221 C1223 1.419 . S
C1221 H1225 0.930 . S
C1222 C1221 1.369 . S
C1222 C1231 1.429 . S
C1223 C1221 1.419 . S
C1223 C1224 1.363 1_655 S
C1223 H1226 0.929 . S
C1224 C1223 1.363 1_455 S
C1224 C1230 1.428 . S
H1225 C1221 0.930 . S
H1226 C1223 0.929 . S
S1227 N1228 1.613 1_455 S
S1227 N1229 1.610 . S
N1228 S1227 1.613 1_655 S
N1228 C1231 1.350 . S
N1229 S1227 1.610 . S
N1229 C1230 1.351 . S
C1230 C1224 1.428 . S
C1230 N1229 1.351 . S
C1230 C1231 1.434 1_455 S
C1231 C1222 1.429 . S
C1231 N1228 1.350 . S
C1231 C1230 1.434 1_655 S
C1232 C1233 1.369 . S
C1232 C1234 1.419 1_565 S
C1232 H1236 0.930 . S
C1233 C1232 1.369 . S
C1233 C1242 1.429 1_565 S
C1234 C1232 1.419 1_545 S
C1234 C1235 1.363 . S
C1234 H1237 0.929 . S
C1235 C1234 1.363 . S
C1235 C1241 1.428 . S
H1236 C1232 0.930 . S
H1237 C1234 0.929 . S
S1238 N1239 1.613 . S
S1238 N1240 1.610 . S
N1239 S1238 1.613 . S
N1239 C1242 1.350 . S
N1240 S1238 1.610 . S
N1240 C1241 1.351 . S
C1241 C1235 1.428 . S
C1241 N1240 1.351 . S
C1241 C1242 1.434 . S
C1242 C1233 1.429 1_545 S
C1242 N1239 1.350 . S
C1242 C1241 1.434 . S
C1243 C1244 1.369 1_565 S
C1243 C1245 1.419 . S
C1243 H1247 0.930 . S
C1244 C1243 1.369 1_545 S
C1244 C1253 1.429 1_545 S
C1245 C1243 1.419 . S
C1245 C1246 1.363 . S
C1245 H1248 0.929 . S
C1246 C1245 1.363 . S
C1246 C1252 1.428 . S
H1247 C1243 0.930 . S
H1248 C1245 0.929 . S
S1249 N1250 1.608 1_565 S
S1249 N1251 1.620 . S
N1250 S1249 1.608 1_545 S
N1250 C1253 1.350 1_545 S
N1251 S1249 1.620 . S
N1251 C1252 1.351 . S
C1252 C1246 1.428 . S
C1252 N1251 1.351 . S
C1252 C1253 1.434 . S
C1253 C1244 1.429 1_565 S
C1253 N1250 1.350 1_565 S
C1253 C1252 1.434 . S
C1254 C1255 1.369 . S
C1254 C1256 1.419 . S
C1254 H1258 0.930 . S
C1255 C1254 1.369 . S
C1255 C1264 1.429 . S
C1256 C1254 1.419 . S
C1256 C1257 1.363 . S
C1256 H1259 0.929 . S
C1257 C1256 1.363 . S
C1257 C1263 1.428 . S
H1258 C1254 0.930 . S
H1259 C1256 0.929 . S
S1260 N1261 1.613 . S
S1260 N1262 1.610 . S
N1261 S1260 1.613 . S
N1261 C1264 1.350 . S
N1262 S1260 1.610 . S
N1262 C1263 1.351 . S
C1263 C1257 1.428 . S
C1263 N1262 1.351 . S
C1263 C1264 1.434 . S
C1264 C1255 1.429 . S
C1264 N1261 1.350 . S
C1264 C1263 1.434 . S
C1265 C1266 1.369 . S
C1265 C1267 1.419 . S
C1265 H1269 0.930 . S
C1266 C1265 1.369 . S
C1266 C1275 1.429 . S
C1267 C1265 1.419 . S
C1267 C1268 1.363 . S
C1267 H1270 0.929 . S
C1268 C1267 1.363 . S
C1268 C1274 1.428 . S
H1269 C1265 0.930 . S
H1270 C1267 0.929 . S
S1271 N1272 1.613 . S
S1271 N1273 1.610 . S
N1272 S1271 1.613 . S
N1272 C1275 1.350 . S
N1273 S1271 1.610 . S
N1273 C1274 1.351 . S
C1274 C1268 1.428 . S
C1274 N1273 1.351 . S
C1274 C1275 1.434 . S
C1275 C1266 1.429 . S
C1275 N1272 1.350 . S
C1275 C1274 1.434 . S
C1276 C1277 1.369 . S
C1276 C1278 1.419 1_556 S
C1276 H1280 0.930 . S
C1277 C1276 1.369 . S
C1277 C1286 1.429 1_556 S
C1278 C1276 1.419 1_554 S
C1278 C1279 1.363 . S
C1278 H1281 0.929 . S
C1279 C1278 1.363 . S
C1279 C1285 1.428 . S
H1280 C1276 0.930 . S
H1281 C1278 0.929 . S
S1282 N1283 1.613 . S
S1282 N1284 1.610 . S
N1283 S1282 1.613 . S
N1283 C1286 1.350 . S
N1284 S1282 1.610 . S
N1284 C1285 1.351 . S
C1285 C1279 1.428 . S
C1285 N1284 1.351 . S
C1285 C1286 1.434 . S
C1286 C1277 1.429 1_554 S
C1286 N1283 1.350 . S
C1286 C1285 1.434 . S
C1287 C1288 1.369 . S
C1287 C1289 1.419 . S
C1287 H1291 0.930 . S
C1288 C1287 1.369 . S
C1288 C1297 1.429 . S
C1289 C1287 1.419 . S
C1289 C1290 1.363 1_556 S
C1289 H1292 0.929 . S
C1290 C1289 1.363 1_554 S
C1290 C1296 1.428 . S
H1291 C1287 0.930 . S
H1292 C1289 0.929 . S
S1293 N1294 1.613 1_554 S
S1293 N1295 1.610 . S
N1294 S1293 1.613 1_556 S
N1294 C1297 1.350 . S
N1295 S1293 1.610 . S
N1295 C1296 1.351 . S
C1296 C1290 1.428 . S
C1296 N1295 1.351 . S
C1296 C1297 1.434 1_554 S
C1297 C1288 1.429 . S
C1297 N1294 1.350 . S
C1297 C1296 1.434 1_556 S
C1298 C1299 1.369 . S
C1298 C1300 1.419 . S
C1298 H1302 0.930 . S
C1299 C1298 1.369 . S
C1299 C1308 1.429 . S
C1300 C1298 1.419 . S
C1300 C1301 1.363 . S
C1300 H1303 0.929 . S
C1301 C1300 1.363 . S
C1301 C1307 1.428 . S
H1302 C1298 0.930 . S
H1303 C1300 0.929 . S
S1304 N1305 1.613 . S
S1304 N1306 1.610 . S
N1305 S1304 1.613 . S
N1305 C1308 1.350 . S
N1306 S1304 1.610 . S
N1306 C1307 1.351 . S
C1307 C1301 1.428 . S
C1307 N1306 1.351 . S
C1307 C1308 1.434 . S
C1308 C1299 1.429 . S
C1308 N1305 1.350 . S
C1308 C1307 1.434 . S
C1309 C1310 1.369 . S
C1309 C1311 1.419 . S
C1309 H1313 0.930 . S
C1310 C1309 1.369 . S
C1310 C1319 1.429 . S
C1311 C1309 1.419 . S
C1311 C1312 1.363 . S
C1311 H1314 0.929 . S
C1312 C1311 1.363 . S
C1312 C1318 1.428 . S
H1313 C1309 0.930 . S
H1314 C1311 0.929 . S
S1315 N1316 1.613 . S
S1315 N1317 1.610 . S
N1316 S1315 1.613 . S
N1316 C1319 1.350 . S
N1317 S1315 1.610 . S
N1317 C1318 1.351 . S
C1318 C1312 1.428 . S
C1318 N1317 1.351 . S
C1318 C1319 1.434 . S
C1319 C1310 1.429 . S
C1319 N1316 1.350 . S
C1319 C1318 1.434 . S
C529 C6 1.299 . S
C531 C402 1.331 . S
C540 C424 1.331 . S
C542 C29 1.300 . S
C551 C51 1.295 . S
C553 C359 1.331 1_545 S
C562 C72 1.299 . S
C564 C380 1.331 1_565 S
C573 C490 1.331 . S
C575 C94 1.300 . S
C584 C116 1.292 . S
C586 C468 1.331 1_556 S
C595 C513 1.330 . S
C597 C138 1.294 . S
C606 C161 1.301 . S
C608 C447 1.331 1_554 S
C617 C183 1.297 . S
C619 C293 1.331 . S
C628 C204 1.301 . S
C630 C336 1.331 1_655 S
C639 C315 1.331 . S
C641 C226 1.300 . S
C650 C249 1.299 . S
C652 C270 1.331 1_455 S
C661 C273 1.301 . S
C663 C141 1.331 . S
C672 C291 1.294 . S
C674 C159 1.331 . S
C683 C313 1.294 . S
C685 C97 1.331 1_565 S
C694 C119 1.330 1_545 S
C696 C339 1.296 . S
C705 C357 1.300 . S
C707 C229 1.331 . S
C716 C207 1.331 1_554 S
C718 C383 1.298 . S
C727 C247 1.331 . S
C729 C405 1.294 . S
C738 C181 1.331 1_556 S
C740 C427 1.300 . S
C749 C27 1.330 . S
C751 C445 1.294 . S
C760 C75 1.330 1_455 S
C762 C471 1.294 . S
C771 C49 1.331 . S
C773 C493 1.298 . S
C782 C511 1.300 . S
C784 C9 1.331 1_655 S
C793 C426 1.337 . S
C795 C5 1.306 . S
C804 C404 1.329 . S
C806 C31 1.299 . S
C815 C53 1.301 . S
C817 C382 1.329 . S
C826 C356 1.337 . S
C828 C71 1.305 . S
C837 C93 1.298 . S
C839 C510 1.330 . S
C848 C115 1.303 . S
C850 C444 1.330 . S
C859 C492 1.335 . S
C861 C137 1.308 . S
C870 C163 1.298 . S
C872 C470 1.331 . S
C881 C312 1.332 . S
C883 C185 1.299 . S
C892 C272 1.328 . S
C894 C203 1.300 . S
C903 C290 1.331 . S
C905 C225 1.299 . S
C914 C338 1.328 . S
C916 C251 1.302 . S
C925 C271 1.308 . S
C927 C162 1.336 . S
C936 C292 1.301 . S
C938 C136 1.329 . S
C947 C114 1.332 . S
C949 C314 1.299 . S
C958 C92 1.329 . S
C960 C337 1.304 . S
C969 C250 1.337 . S
C971 C358 1.307 . S
C980 C381 1.297 . S
C982 C184 1.331 . S
C991 C224 1.328 . S
C993 C403 1.301 . S
C1002 C202 1.335 . S
C1004 C425 1.308 . S
C1013 C446 1.307 . S
C1015 C52 1.331 . S
C1024 C469 1.298 . S
C1026 C4 1.330 . S
C1035 C30 1.329 . S
C1037 C491 1.299 . S
C1046 C70 1.336 . S
C1048 C512 1.302 . S
C1057 C7 1.210 . S
C1059 C206 1.204 . S
C1068 C228 1.211 . S
C1070 C28 1.219 . S
C1079 C180 1.204 . S
C1081 C50 1.214 . S
C1090 C246 1.212 . S
C1092 C73 1.219 . S
C1101 C95 1.221 . S
C1103 C74 1.214 . S
C1112 C48 1.215 . S
C1114 C117 1.218 . S
C1123 C139 1.211 . S
C1125 C26 1.207 . S
C1134 C8 1.206 . S
C1136 C160 1.212 . S
C1145 C182 1.215 . S
C1147 C118 1.211 . S
C1156 C205 1.210 . S
C1158 C158 1.204 . S
C1167 C227 1.217 . S
C1169 C140 1.208 . S
C1178 C248 1.217 . S
C1180 C96 1.212 . S
C1189 C269 1.210 . S
C1191 C466 1.207 . S
C1200 C295 1.212 . S
C1202 C488 1.204 . S
C1211 C448 1.202 . S
C1213 C317 1.211 . S
C1222 C514 1.207 . S
C1224 C335 1.217 . S
C1233 C361 1.209 . S
C1235 C334 1.206 . S
C1244 C379 1.209 . S
C1246 C316 1.204 . S
C1255 C294 1.215 . S
C1257 C401 1.220 . S
C1266 C423 1.211 . S
C1268 C268 1.209 . S
C1277 C449 1.221 . S
C1279 C378 1.214 . S
C1288 C422 1.207 . S
C1290 C467 1.218 . S
C1299 C489 1.209 . S
C1301 C400 1.204 . S
C1310 C515 1.222 . S
C1312 C360 1.212 . S
