# Generated by pormake.
# Topology wjc, (7)-cn, num edge types: 1
# Building blocks:
#     Node 0, Type 0, BuildingBlock: HICVOG_clean_sbu_0, # of connection points: 7
#     Node 1, Type 0, BuildingBlock: HICVOG_clean_sbu_0, # of connection points: 7
#     Node 2, Type 0, BuildingBlock: HICVOG_clean_sbu_0, # of connection points: 7
#     Node 3, Type 0, BuildingBlock: HICVOG_clean_sbu_0, # of connection points: 7
#     Node 4, Type 0, BuildingBlock: HICVOG_clean_sbu_0, # of connection points: 7
#     Node 5, Type 0, BuildingBlock: HICVOG_clean_sbu_0, # of connection points: 7
#     Node 6, Type 0, BuildingBlock: HICVOG_clean_sbu_0, # of connection points: 7
#     Node 7, Type 0, BuildingBlock: HICVOG_clean_sbu_0, # of connection points: 7
#     Node 8, Type 0, BuildingBlock: HICVOG_clean_sbu_0, # of connection points: 7
#     Node 9, Type 0, BuildingBlock: HICVOG_clean_sbu_0, # of connection points: 7
#     Node 10, Type 0, BuildingBlock: HICVOG_clean_sbu_0, # of connection points: 7
#     Node 11, Type 0, BuildingBlock: HICVOG_clean_sbu_0, # of connection points: 7
#     Node 12, Type 0, BuildingBlock: HICVOG_clean_sbu_0, # of connection points: 7
#     Node 13, Type 0, BuildingBlock: HICVOG_clean_sbu_0, # of connection points: 7
#     Node 14, Type 0, BuildingBlock: HICVOG_clean_sbu_0, # of connection points: 7
#     Node 15, Type 0, BuildingBlock: HICVOG_clean_sbu_0, # of connection points: 7
#     Node 16, Type 0, BuildingBlock: HICVOG_clean_sbu_0, # of connection points: 7
#     Node 17, Type 0, BuildingBlock: HICVOG_clean_sbu_0, # of connection points: 7
#     Node 18, Type 0, BuildingBlock: HICVOG_clean_sbu_0, # of connection points: 7
#     Node 19, Type 0, BuildingBlock: HICVOG_clean_sbu_0, # of connection points: 7
#     Node 20, Type 0, BuildingBlock: HICVOG_clean_sbu_0, # of connection points: 7
#     Node 21, Type 0, BuildingBlock: HICVOG_clean_sbu_0, # of connection points: 7
#     Node 22, Type 0, BuildingBlock: HICVOG_clean_sbu_0, # of connection points: 7
#     Node 23, Type 0, BuildingBlock: HICVOG_clean_sbu_0, # of connection points: 7
#     Edge 24, Type (0, 0), BuildingBlock: UVAHIK_clean_linker_0, # of connection points: 2
#     Edge 25, Type (0, 0), BuildingBlock: UVAHIK_clean_linker_0, # of connection points: 2
#     Edge 26, Type (0, 0), BuildingBlock: UVAHIK_clean_linker_0, # of connection points: 2
#     Edge 27, Type (0, 0), BuildingBlock: UVAHIK_clean_linker_0, # of connection points: 2
#     Edge 28, Type (0, 0), BuildingBlock: UVAHIK_clean_linker_0, # of connection points: 2
#     Edge 29, Type (0, 0), BuildingBlock: UVAHIK_clean_linker_0, # of connection points: 2
#     Edge 30, Type (0, 0), BuildingBlock: UVAHIK_clean_linker_0, # of connection points: 2
#     Edge 31, Type (0, 0), BuildingBlock: UVAHIK_clean_linker_0, # of connection points: 2
#     Edge 32, Type (0, 0), BuildingBlock: UVAHIK_clean_linker_0, # of connection points: 2
#     Edge 33, Type (0, 0), BuildingBlock: UVAHIK_clean_linker_0, # of connection points: 2
#     Edge 34, Type (0, 0), BuildingBlock: UVAHIK_clean_linker_0, # of connection points: 2
#     Edge 35, Type (0, 0), BuildingBlock: UVAHIK_clean_linker_0, # of connection points: 2
#     Edge 36, Type (0, 0), BuildingBlock: UVAHIK_clean_linker_0, # of connection points: 2
#     Edge 37, Type (0, 0), BuildingBlock: UVAHIK_clean_linker_0, # of connection points: 2
#     Edge 38, Type (0, 0), BuildingBlock: UVAHIK_clean_linker_0, # of connection points: 2
#     Edge 39, Type (0, 0), BuildingBlock: UVAHIK_clean_linker_0, # of connection points: 2
#     Edge 40, Type (0, 0), BuildingBlock: UVAHIK_clean_linker_0, # of connection points: 2
#     Edge 41, Type (0, 0), BuildingBlock: UVAHIK_clean_linker_0, # of connection points: 2
#     Edge 42, Type (0, 0), BuildingBlock: UVAHIK_clean_linker_0, # of connection points: 2
#     Edge 43, Type (0, 0), BuildingBlock: UVAHIK_clean_linker_0, # of connection points: 2
#     Edge 44, Type (0, 0), BuildingBlock: UVAHIK_clean_linker_0, # of connection points: 2
#     Edge 45, Type (0, 0), BuildingBlock: UVAHIK_clean_linker_0, # of connection points: 2
#     Edge 46, Type (0, 0), BuildingBlock: UVAHIK_clean_linker_0, # of connection points: 2
#     Edge 47, Type (0, 0), BuildingBlock: UVAHIK_clean_linker_0, # of connection points: 2
#     Edge 48, Type (0, 0), BuildingBlock: UVAHIK_clean_linker_0, # of connection points: 2
#     Edge 49, Type (0, 0), BuildingBlock: UVAHIK_clean_linker_0, # of connection points: 2
#     Edge 50, Type (0, 0), BuildingBlock: UVAHIK_clean_linker_0, # of connection points: 2
#     Edge 51, Type (0, 0), BuildingBlock: UVAHIK_clean_linker_0, # of connection points: 2
#     Edge 52, Type (0, 0), BuildingBlock: UVAHIK_clean_linker_0, # of connection points: 2
#     Edge 53, Type (0, 0), BuildingBlock: UVAHIK_clean_linker_0, # of connection points: 2
#     Edge 54, Type (0, 0), BuildingBlock: UVAHIK_clean_linker_0, # of connection points: 2
#     Edge 55, Type (0, 0), BuildingBlock: UVAHIK_clean_linker_0, # of connection points: 2
#     Edge 56, Type (0, 0), BuildingBlock: UVAHIK_clean_linker_0, # of connection points: 2
#     Edge 57, Type (0, 0), BuildingBlock: UVAHIK_clean_linker_0, # of connection points: 2
#     Edge 58, Type (0, 0), BuildingBlock: UVAHIK_clean_linker_0, # of connection points: 2
#     Edge 59, Type (0, 0), BuildingBlock: UVAHIK_clean_linker_0, # of connection points: 2
#     Edge 60, Type (0, 0), BuildingBlock: UVAHIK_clean_linker_0, # of connection points: 2
#     Edge 61, Type (0, 0), BuildingBlock: UVAHIK_clean_linker_0, # of connection points: 2
#     Edge 62, Type (0, 0), BuildingBlock: UVAHIK_clean_linker_0, # of connection points: 2
#     Edge 63, Type (0, 0), BuildingBlock: UVAHIK_clean_linker_0, # of connection points: 2
#     Edge 64, Type (0, 0), BuildingBlock: UVAHIK_clean_linker_0, # of connection points: 2
#     Edge 65, Type (0, 0), BuildingBlock: UVAHIK_clean_linker_0, # of connection points: 2
#     Edge 66, Type (0, 0), BuildingBlock: UVAHIK_clean_linker_0, # of connection points: 2
#     Edge 67, Type (0, 0), BuildingBlock: UVAHIK_clean_linker_0, # of connection points: 2
#     Edge 68, Type (0, 0), BuildingBlock: UVAHIK_clean_linker_0, # of connection points: 2
#     Edge 69, Type (0, 0), BuildingBlock: UVAHIK_clean_linker_0, # of connection points: 2
#     Edge 70, Type (0, 0), BuildingBlock: UVAHIK_clean_linker_0, # of connection points: 2
#     Edge 71, Type (0, 0), BuildingBlock: UVAHIK_clean_linker_0, # of connection points: 2
#     Edge 72, Type (0, 0), BuildingBlock: UVAHIK_clean_linker_0, # of connection points: 2
#     Edge 73, Type (0, 0), BuildingBlock: UVAHIK_clean_linker_0, # of connection points: 2
#     Edge 74, Type (0, 0), BuildingBlock: UVAHIK_clean_linker_0, # of connection points: 2
#     Edge 75, Type (0, 0), BuildingBlock: UVAHIK_clean_linker_0, # of connection points: 2
#     Edge 76, Type (0, 0), BuildingBlock: UVAHIK_clean_linker_0, # of connection points: 2
#     Edge 77, Type (0, 0), BuildingBlock: UVAHIK_clean_linker_0, # of connection points: 2
#     Edge 78, Type (0, 0), BuildingBlock: UVAHIK_clean_linker_0, # of connection points: 2
#     Edge 79, Type (0, 0), BuildingBlock: UVAHIK_clean_linker_0, # of connection points: 2
#     Edge 80, Type (0, 0), BuildingBlock: UVAHIK_clean_linker_0, # of connection points: 2
#     Edge 81, Type (0, 0), BuildingBlock: UVAHIK_clean_linker_0, # of connection points: 2
#     Edge 82, Type (0, 0), BuildingBlock: UVAHIK_clean_linker_0, # of connection points: 2
#     Edge 83, Type (0, 0), BuildingBlock: UVAHIK_clean_linker_0, # of connection points: 2
#     Edge 84, Type (0, 0), BuildingBlock: UVAHIK_clean_linker_0, # of connection points: 2
#     Edge 85, Type (0, 0), BuildingBlock: UVAHIK_clean_linker_0, # of connection points: 2
#     Edge 86, Type (0, 0), BuildingBlock: UVAHIK_clean_linker_0, # of connection points: 2
#     Edge 87, Type (0, 0), BuildingBlock: UVAHIK_clean_linker_0, # of connection points: 2
#     Edge 88, Type (0, 0), BuildingBlock: UVAHIK_clean_linker_0, # of connection points: 2
#     Edge 89, Type (0, 0), BuildingBlock: UVAHIK_clean_linker_0, # of connection points: 2
#     Edge 90, Type (0, 0), BuildingBlock: UVAHIK_clean_linker_0, # of connection points: 2
#     Edge 91, Type (0, 0), BuildingBlock: UVAHIK_clean_linker_0, # of connection points: 2
#     Edge 92, Type (0, 0), BuildingBlock: UVAHIK_clean_linker_0, # of connection points: 2
#     Edge 93, Type (0, 0), BuildingBlock: UVAHIK_clean_linker_0, # of connection points: 2
#     Edge 94, Type (0, 0), BuildingBlock: UVAHIK_clean_linker_0, # of connection points: 2
#     Edge 95, Type (0, 0), BuildingBlock: UVAHIK_clean_linker_0, # of connection points: 2
#     Edge 96, Type (0, 0), BuildingBlock: UVAHIK_clean_linker_0, # of connection points: 2
#     Edge 97, Type (0, 0), BuildingBlock: UVAHIK_clean_linker_0, # of connection points: 2
#     Edge 98, Type (0, 0), BuildingBlock: UVAHIK_clean_linker_0, # of connection points: 2
#     Edge 99, Type (0, 0), BuildingBlock: UVAHIK_clean_linker_0, # of connection points: 2
#     Edge 100, Type (0, 0), BuildingBlock: UVAHIK_clean_linker_0, # of connection points: 2
#     Edge 101, Type (0, 0), BuildingBlock: UVAHIK_clean_linker_0, # of connection points: 2
#     Edge 102, Type (0, 0), BuildingBlock: UVAHIK_clean_linker_0, # of connection points: 2
#     Edge 103, Type (0, 0), BuildingBlock: UVAHIK_clean_linker_0, # of connection points: 2
#     Edge 104, Type (0, 0), BuildingBlock: UVAHIK_clean_linker_0, # of connection points: 2
#     Edge 105, Type (0, 0), BuildingBlock: UVAHIK_clean_linker_0, # of connection points: 2
#     Edge 106, Type (0, 0), BuildingBlock: UVAHIK_clean_linker_0, # of connection points: 2
#     Edge 107, Type (0, 0), BuildingBlock: UVAHIK_clean_linker_0, # of connection points: 2
# Relax obj value: 0.230
# Max RMSD: 0.226
# Mean RMSD: 0.226
data_MOF--net-wjc--node1-HICVOG_clean_sbu_0--edge1-UVAHIK_clean_linker_0
_symmetry_space_group_name_H-M    P1
_symmetry_Int_Tables_number       1
_symmetry_cell_setting            triclinic
loop_
_symmetry_equiv_pos_as_xyz
'x, y, z'
_cell_length_a     52.711636
_cell_length_b     52.741075
_cell_length_c     97.494543
_cell_angle_alpha  90.001515
_cell_angle_beta   90.007121
_cell_angle_gamma 120.04965
loop_
_atom_site_label
_atom_site_type_symbol
_atom_site_fract_x
_atom_site_fract_y
_atom_site_fract_z
_atom_type_partial_charge
Zn0 Zn 0.42846 0.11597 0.11667 0.0
C1 C 0.48993 0.13316 0.14558 0.0
N2 N 0.49241 0.11244 0.13877 0.0
C3 C 0.47009 0.10245 0.12981 0.0
N4 N 0.45488 0.11672 0.13084 0.0
N5 N 0.46735 0.13587 0.14093 0.0
C6 C 0.50104 0.21839 0.14626 0.0
O7 O 0.49367 0.2123 0.13329 0.0
O8 O 0.39571 0.07413 0.11369 0.0
Zn9 Zn 0.45393 0.15906 0.15026 0.0
N10 N 0.45258 0.13076 0.10045 0.0
C11 C 0.49992 0.16546 0.09219 0.0
C12 C 0.47981 0.15384 0.10285 0.0
C13 C 0.44424 0.11914 0.08763 0.0
N14 N 0.49188 0.15374 0.07947 0.0
C15 C 0.46454 0.13096 0.07678 0.0
O16 O 0.42569 0.1659 0.13961 0.0
C17 C 0.41055 0.15982 0.12871 0.0
O18 O 0.41041 0.14209 0.11978 0.0
H19 H 0.48595 0.16289 0.11307 0.0
H20 H 0.42246 0.1007 0.08601 0.0
C21 C 0.43831 0.15602 0.17852 0.0
C22 C 0.42574 0.14202 0.19103 0.0
C23 C 0.40851 0.09591 0.18013 0.0
C24 C 0.42098 0.10995 0.16778 0.0
N25 N 0.4356 0.13966 0.16723 0.0
N26 N 0.41123 0.11218 0.19141 0.0
H27 H 0.45073 0.17963 0.17772 0.0
C28 C 0.37973 0.06054 0.12394 0.0
O29 O 0.38536 0.07412 0.1358 0.0
O30 O 0.48754 0.19875 0.15526 0.0
H31 H 0.41931 0.09734 0.15874 0.0
H32 H 0.52178 0.18361 0.09398 0.0
H33 H 0.39687 0.07225 0.18077 0.0
Zn34 Zn 0.29315 0.44777 0.14892 0.0
C35 C 0.3657 0.46203 0.12875 0.0
N36 N 0.37806 0.48553 0.13705 0.0
C37 C 0.3549 0.48408 0.14349 0.0
N38 N 0.32959 0.46078 0.1393 0.0
N39 N 0.33617 0.44712 0.12976 0.0
C40 C 0.3195 0.37319 0.12341 0.0
O41 O 0.31237 0.37943 0.13533 0.0
O42 O 0.28584 0.48112 0.15271 0.0
Zn43 Zn 0.30994 0.41977 0.11596 0.0
N44 N 0.29545 0.43143 0.16628 0.0
C45 C 0.31197 0.40422 0.17917 0.0
C46 C 0.3104 0.41668 0.16683 0.0
C47 C 0.28213 0.43451 0.17761 0.0
N48 N 0.29861 0.40715 0.19047 0.0
C49 C 0.28375 0.42211 0.19014 0.0
O50 O 0.26582 0.40051 0.11967 0.0
C51 C 0.24846 0.40114 0.12859 0.0
O52 O 0.25784 0.41766 0.13904 0.0
H53 H 0.3209 0.41455 0.15773 0.0
H54 H 0.27001 0.44599 0.17672 0.0
C55 C 0.31308 0.43104 0.08655 0.0
C56 C 0.31586 0.44862 0.07513 0.0
C57 C 0.32633 0.4882 0.09011 0.0
C58 C 0.32297 0.47061 0.10136 0.0
N59 N 0.31655 0.44249 0.09941 0.0
N60 N 0.32247 0.47678 0.07732 0.0
H61 H 0.30713 0.40833 0.08531 0.0
C62 C 0.27753 0.49103 0.14287 0.0
O63 O 0.27512 0.48008 0.13052 0.0
O64 O 0.32021 0.38796 0.11296 0.0
H65 H 0.32513 0.4792 0.11162 0.0
H66 H 0.32368 0.39228 0.17976 0.0
H67 H 0.33146 0.51063 0.09152 0.0
Zn68 Zn 0.89086 0.31212 0.11588 0.0
C69 C 0.86981 0.35622 0.14324 0.0
N70 N 0.88916 0.37934 0.13589 0.0
C71 C 0.90022 0.36735 0.12734 0.0
N72 N 0.888 0.33816 0.12919 0.0
N73 N 0.86897 0.33134 0.13936 0.0
C74 C 0.78588 0.27051 0.14647 0.0
O75 O 0.79114 0.25992 0.13532 0.0
O76 O 0.93316 0.32218 0.11388 0.0
Zn77 Zn 0.84796 0.29564 0.14957 0.0
N78 N 0.87707 0.3197 0.09884 0.0
C79 C 0.84248 0.33042 0.08869 0.0
C80 C 0.85333 0.3232 0.10012 0.0
C81 C 0.89018 0.32254 0.08643 0.0
N82 N 0.85565 0.33361 0.07637 0.0
C83 C 0.87917 0.32973 0.07481 0.0
O84 O 0.84347 0.26053 0.13978 0.0
C85 C 0.84932 0.25093 0.12901 0.0
O86 O 0.86565 0.26801 0.11955 0.0
H87 H 0.84315 0.32075 0.11004 0.0
H88 H 0.9092 0.31987 0.08573 0.0
C89 C 0.85248 0.28587 0.17809 0.0
C90 C 0.8672 0.28855 0.19053 0.0
C91 C 0.9126 0.31872 0.17926 0.0
C92 C 0.89784 0.31613 0.16701 0.0
N93 N 0.86815 0.29966 0.16666 0.0
N94 N 0.89702 0.30488 0.19067 0.0
H95 H 0.82888 0.27257 0.17737 0.0
C96 C 0.94619 0.31952 0.12429 0.0
O97 O 0.93187 0.31087 0.13595 0.0
O98 O 0.80715 0.28735 0.15418 0.0
H99 H 0.9099 0.32705 0.15784 0.0
H100 H 0.82379 0.33358 0.08959 0.0
H101 H 0.93625 0.33162 0.1797 0.0
Zn102 Zn 0.5591 0.84498 0.14909 0.0
C103 C 0.54312 0.90189 0.12877 0.0
N104 N 0.51932 0.89007 0.13687 0.0
C105 C 0.52136 0.86882 0.14343 0.0
N106 N 0.54535 0.8678 0.13951 0.0
N107 N 0.55886 0.88822 0.13002 0.0
C108 C 0.63418 0.94503 0.12453 0.0
O109 O 0.62842 0.9303 0.13607 0.0
O110 O 0.52598 0.80438 0.15283 0.0
Zn111 Zn 0.58637 0.8902 0.11613 0.0
N112 N 0.5751 0.86316 0.16664 0.0
C113 C 0.60013 0.90629 0.18016 0.0
C114 C 0.58919 0.89282 0.16754 0.0
C115 C 0.5715 0.84629 0.17786 0.0
N116 N 0.59652 0.88952 0.19137 0.0
C117 C 0.58255 0.85973 0.19067 0.0
O118 O 0.60464 0.86427 0.11921 0.0
C119 C 0.60463 0.84659 0.12815 0.0
O120 O 0.58898 0.83991 0.1389 0.0
H121 H 0.59163 0.90584 0.15854 0.0
H122 H 0.55961 0.82272 0.17678 0.0
C123 C 0.57385 0.88903 0.08676 0.0
C124 C 0.55497 0.87812 0.07533 0.0
C125 C 0.51738 0.84312 0.08976 0.0
C126 C 0.53612 0.85382 0.10097 0.0
N127 N 0.56379 0.87671 0.09933 0.0
N128 N 0.52716 0.85551 0.07727 0.0
H129 H 0.59593 0.90733 0.08577 0.0
C130 C 0.51569 0.78628 0.14298 0.0
O131 O 0.52624 0.79487 0.13057 0.0
O132 O 0.61875 0.93229 0.11402 0.0
H133 H 0.52859 0.84417 0.11099 0.0
H134 H 0.61132 0.92989 0.18107 0.0
H135 H 0.4952 0.82512 0.09094 0.0
Zn136 Zn 0.69179 0.5773 0.11539 0.0
C137 C 0.64737 0.51335 0.14317 0.0
N138 N 0.62405 0.50996 0.13611 0.0
C139 C 0.63594 0.53303 0.12754 0.0
N140 N 0.66534 0.54943 0.12897 0.0
N141 N 0.67224 0.53711 0.13903 0.0
C142 C 0.72771 0.50993 0.14414 0.0
O143 O 0.73512 0.5239 0.13237 0.0
O144 O 0.68189 0.60943 0.11258 0.0
Zn145 Zn 0.70824 0.55069 0.14888 0.0
N146 N 0.68555 0.5551 0.09868 0.0
C147 C 0.67581 0.50957 0.08917 0.0
C148 C 0.67894 0.52688 0.1005 0.0
C149 C 0.68945 0.56692 0.08589 0.0
N150 N 0.6801 0.52136 0.07644 0.0
C151 C 0.68691 0.54962 0.07439 0.0
O152 O 0.7439 0.58074 0.13912 0.0
C153 C 0.75326 0.59661 0.12845 0.0
O154 O 0.73586 0.59648 0.11932 0.0
H155 H 0.67648 0.51798 0.11072 0.0
H156 H 0.69554 0.58969 0.08476 0.0
C157 C 0.7188 0.56467 0.17749 0.0
C158 C 0.71685 0.57716 0.18992 0.0
C159 C 0.68788 0.5939 0.17873 0.0
C160 C 0.6898 0.58136 0.16648 0.0
N161 N 0.7053 0.56716 0.16609 0.0
N162 N 0.70145 0.59159 0.1901 0.0
H163 H 0.73134 0.55361 0.17673 0.0
C164 C 0.68429 0.62512 0.12294 0.0
O165 O 0.69246 0.61932 0.13471 0.0
O166 O 0.71487 0.51707 0.15307 0.0
H167 H 0.67914 0.58302 0.15732 0.0
H168 H 0.67053 0.48707 0.09046 0.0
H169 H 0.67575 0.60542 0.1792 0.0
Zn170 Zn 0.16085 0.71428 0.14893 0.0
C171 C 0.10175 0.64133 0.12928 0.0
N172 N 0.11339 0.62911 0.13733 0.0
C173 C 0.13533 0.65232 0.14364 0.0
N174 N 0.13691 0.67754 0.13963 0.0
N175 N 0.11617 0.67081 0.13031 0.0
C176 C 0.0585 0.68815 0.12427 0.0
O177 O 0.07212 0.69566 0.13614 0.0
O178 O 0.20109 0.72076 0.1529 0.0
Zn179 Zn 0.11445 0.69638 0.11629 0.0
N180 N 0.14262 0.71383 0.16622 0.0
C181 C 0.09918 0.70142 0.17872 0.0
C182 C 0.11294 0.70063 0.16665 0.0
C183 C 0.15922 0.72738 0.17749 0.0
N184 N 0.1157 0.71533 0.18989 0.0
C185 C 0.14546 0.72827 0.1897 0.0
O186 O 0.14081 0.74072 0.11921 0.0
C187 C 0.15955 0.75825 0.12787 0.0
O188 O 0.16665 0.7491 0.13841 0.0
H189 H 0.10013 0.68985 0.15763 0.0
H190 H 0.18286 0.73802 0.1768 0.0
C191 C 0.11597 0.68425 0.08703 0.0
C192 C 0.12731 0.67634 0.07576 0.0
C193 C 0.16262 0.67504 0.09045 0.0
C194 C 0.15152 0.68305 0.1015 0.0
N195 N 0.12827 0.68715 0.09966 0.0
N196 N 0.15028 0.67182 0.0779 0.0
H197 H 0.0974 0.68754 0.08587 0.0
C198 C 0.2192 0.72806 0.14306 0.0
O199 O 0.2108 0.73015 0.13062 0.0
O200 O 0.07228 0.68682 0.11384 0.0
H201 H 0.16114 0.68569 0.11157 0.0
H202 H 0.07557 0.69122 0.17918 0.0
H203 H 0.18092 0.67139 0.0918 0.0
Zn204 Zn 0.89108 0.58181 0.3907 0.0
C205 C 0.87122 0.51818 0.36278 0.0
N206 N 0.89265 0.51622 0.36924 0.0
C207 C 0.90393 0.53952 0.37766 0.0
N208 N 0.88971 0.5548 0.37669 0.0
N209 N 0.86953 0.54155 0.36708 0.0
C210 C 0.78466 0.51721 0.36195 0.0
O211 O 0.79071 0.5334 0.37304 0.0
O212 O 0.93334 0.61322 0.39377 0.0
Zn213 Zn 0.84635 0.55488 0.35761 0.0
N214 N 0.875 0.55795 0.4069 0.0
C215 C 0.83801 0.51154 0.41509 0.0
C216 C 0.85072 0.53157 0.40446 0.0
C217 C 0.88681 0.56557 0.41971 0.0
N218 N 0.8499 0.51884 0.4278 0.0
C219 C 0.87388 0.54537 0.43053 0.0
O220 O 0.84226 0.5856 0.36757 0.0
C221 C 0.84921 0.60172 0.37816 0.0
O222 O 0.86653 0.60153 0.38724 0.0
H223 H 0.84158 0.52602 0.39424 0.0
H224 H 0.90621 0.58668 0.42136 0.0
C225 C 0.84796 0.56667 0.32883 0.0
C226 C 0.86155 0.57876 0.31616 0.0
C227 C 0.90807 0.59825 0.32703 0.0
C228 C 0.89443 0.58643 0.33951 0.0
N229 N 0.86473 0.57094 0.34017 0.0
N230 N 0.89141 0.59418 0.31572 0.0
H231 H 0.82443 0.55367 0.3298 0.0
C232 C 0.9469 0.62875 0.38341 0.0
O233 O 0.93281 0.62349 0.37169 0.0
O234 O 0.80531 0.52171 0.3538 0.0
H235 H 0.90735 0.58946 0.34862 0.0
H236 H 0.8189 0.49032 0.41326 0.0
H237 H 0.93172 0.61061 0.32631 0.0
Zn238 Zn 0.29636 0.84683 0.35721 0.0
C239 C 0.36927 0.90188 0.37819 0.0
N240 N 0.38084 0.88969 0.37007 0.0
C241 C 0.3574 0.86911 0.3633 0.0
N242 N 0.33272 0.86887 0.36709 0.0
N243 N 0.33986 0.88893 0.37679 0.0
C244 C 0.31599 0.94389 0.38266 0.0
O245 O 0.30294 0.92749 0.3719 0.0
O246 O 0.28943 0.80696 0.35167 0.0
Zn247 Zn 0.31388 0.89089 0.39056 0.0
N248 N 0.29788 0.86756 0.3406 0.0
C249 C 0.31071 0.91242 0.32936 0.0
C250 C 0.31076 0.8972 0.34104 0.0
C251 C 0.28539 0.85244 0.32885 0.0
N252 N 0.29789 0.89735 0.31769 0.0
C253 C 0.28532 0.86767 0.31702 0.0
O254 O 0.2695 0.86426 0.38755 0.0
C255 C 0.25214 0.84628 0.3786 0.0
O256 O 0.26151 0.84017 0.36783 0.0
H257 H 0.32077 0.90883 0.35043 0.0
H258 H 0.27499 0.82879 0.32886 0.0
C259 C 0.32572 0.89031 0.41995 0.0
C260 C 0.33316 0.87905 0.43141 0.0
C261 C 0.33373 0.8428 0.41715 0.0
C262 C 0.32617 0.85382 0.4059 0.0
N263 N 0.3227 0.87752 0.40744 0.0
N264 N 0.33711 0.85566 0.42957 0.0
H265 H 0.32285 0.90917 0.42088 0.0
C266 C 0.27822 0.78595 0.36021 0.0
O267 O 0.27216 0.79082 0.37267 0.0
O268 O 0.32312 0.93292 0.39251 0.0
H269 H 0.32342 0.84381 0.39593 0.0
H270 H 0.32065 0.93601 0.32958 0.0
H271 H 0.33691 0.82417 0.41604 0.0
Zn272 Zn 0.45083 0.29444 0.35813 0.0
C273 C 0.46815 0.3653 0.38058 0.0
N274 N 0.49129 0.37793 0.37208 0.0
C275 C 0.48817 0.35515 0.36466 0.0
N276 N 0.46442 0.32987 0.36846 0.0
N277 N 0.45176 0.33608 0.37864 0.0
C278 C 0.37776 0.32083 0.38354 0.0
O279 O 0.38492 0.31431 0.37169 0.0
O280 O 0.48405 0.28674 0.35481 0.0
Zn281 Zn 0.42279 0.30929 0.39172 0.0
N282 N 0.43684 0.29932 0.34059 0.0
C283 C 0.41558 0.32146 0.32715 0.0
C284 C 0.42513 0.31708 0.33978 0.0
C285 C 0.43933 0.28559 0.32928 0.0
N286 N 0.41806 0.30781 0.31585 0.0
C287 C 0.42958 0.28976 0.31648 0.0
O288 O 0.40324 0.26553 0.38719 0.0
C289 C 0.40293 0.24874 0.3777 0.0
O290 O 0.41924 0.25862 0.36719 0.0
H291 H 0.42345 0.32791 0.34887 0.0
H292 H 0.44932 0.27209 0.33031 0.0
C293 C 0.43195 0.3105 0.42138 0.0
C294 C 0.4488 0.31243 0.43298 0.0
C295 C 0.48905 0.32294 0.41843 0.0
C296 C 0.47221 0.32046 0.407 0.0
N297 N 0.44409 0.31437 0.40865 0.0
N298 N 0.47694 0.31866 0.43108 0.0
H299 H 0.4093 0.30495 0.42238 0.0
C300 C 0.49037 0.27428 0.36427 0.0
O301 O 0.47569 0.26787 0.37585 0.0
O302 O 0.39127 0.3203 0.39425 0.0
H303 H 0.48138 0.32295 0.39685 0.0
H304 H 0.40631 0.33563 0.32631 0.0
H305 H 0.51144 0.32776 0.41727 0.0
Zn306 Zn 0.16028 0.45628 0.35722 0.0
C307 C 0.10319 0.46999 0.37878 0.0
N308 N 0.1145 0.49402 0.37083 0.0
C309 C 0.13495 0.49188 0.36358 0.0
N310 N 0.13625 0.46789 0.36707 0.0
N311 N 0.11666 0.45418 0.37688 0.0
C312 C 0.06082 0.37785 0.38286 0.0
O313 O 0.07417 0.38418 0.37093 0.0
O314 O 0.19937 0.49142 0.35251 0.0
Zn315 Zn 0.11636 0.42666 0.3904 0.0
N316 N 0.14097 0.43823 0.3402 0.0
C317 C 0.09709 0.40951 0.32761 0.0
C318 C 0.11124 0.42258 0.33984 0.0
C319 C 0.15725 0.44152 0.3288 0.0
N320 N 0.11327 0.41261 0.31624 0.0
C321 C 0.14314 0.42821 0.31638 0.0
O322 O 0.14353 0.40976 0.38668 0.0
C323 C 0.16223 0.41192 0.37776 0.0
O324 O 0.16831 0.42835 0.36732 0.0
H325 H 0.09871 0.42042 0.34898 0.0
H326 H 0.18082 0.45473 0.3295 0.0
C327 C 0.11932 0.44123 0.4197 0.0
C328 C 0.13152 0.46111 0.43069 0.0
C329 C 0.16694 0.49631 0.41555 0.0
C330 C 0.15495 0.47663 0.40474 0.0
N331 N 0.13122 0.44972 0.40694 0.0
N332 N 0.15493 0.48817 0.4282 0.0
H333 H 0.10039 0.4197 0.42118 0.0
C334 C 0.21791 0.50546 0.36188 0.0
O335 O 0.21096 0.49718 0.3747 0.0
O336 O 0.0746 0.39331 0.39322 0.0
H337 H 0.16418 0.48288 0.39457 0.0
H338 H 0.07341 0.39699 0.32713 0.0
H339 H 0.18559 0.51793 0.4139 0.0
Zn340 Zn 0.69612 0.11396 0.39113 0.0
C341 C 0.65137 0.13239 0.36302 0.0
N342 N 0.62825 0.11035 0.36935 0.0
C343 C 0.64074 0.09967 0.37781 0.0
N344 N 0.6703 0.11479 0.377 0.0
N345 N 0.67684 0.13495 0.3674 0.0
C346 C 0.73113 0.21786 0.36345 0.0
O347 O 0.73421 0.21005 0.37586 0.0
O348 O 0.686 0.07182 0.39402 0.0
Zn349 Zn 0.71374 0.15826 0.35796 0.0
N350 N 0.68752 0.12943 0.40734 0.0
C351 C 0.67698 0.16573 0.41538 0.0
C352 C 0.68475 0.15328 0.40482 0.0
C353 C 0.6836 0.11785 0.42019 0.0
N354 N 0.67265 0.15406 0.42813 0.0
C355 C 0.67587 0.13053 0.43095 0.0
O356 O 0.74871 0.16364 0.36827 0.0
C357 C 0.75799 0.15715 0.37896 0.0
O358 O 0.7405 0.13947 0.38795 0.0
H359 H 0.68818 0.16228 0.39458 0.0
H360 H 0.68589 0.09883 0.42192 0.0
C361 C 0.72518 0.1564 0.32934 0.0
C362 C 0.72415 0.14273 0.31675 0.0
C363 C 0.69662 0.09631 0.32763 0.0
C364 C 0.69791 0.11003 0.34003 0.0
N365 N 0.71218 0.13972 0.34064 0.0
N366 N 0.70969 0.11289 0.31637 0.0
H367 H 0.73571 0.17992 0.33026 0.0
C368 C 0.68779 0.05854 0.38351 0.0
O369 O 0.69621 0.07285 0.37184 0.0
O370 O 0.72164 0.19896 0.3539 0.0
H371 H 0.68754 0.09718 0.34909 0.0
H372 H 0.67435 0.18449 0.41348 0.0
H373 H 0.68531 0.07267 0.32696 0.0
Zn374 Zn 0.55122 0.70597 0.35826 0.0
C375 C 0.53448 0.63628 0.38162 0.0
N376 N 0.50889 0.6242 0.37484 0.0
C377 C 0.51176 0.64632 0.36697 0.0
N378 N 0.53784 0.67082 0.36893 0.0
N379 N 0.55207 0.6648 0.37841 0.0
C380 C 0.6296 0.68455 0.38244 0.0
O381 O 0.62279 0.69152 0.37061 0.0
O382 O 0.51763 0.71245 0.35414 0.0
Zn383 Zn 0.58174 0.69208 0.39117 0.0
N384 N 0.56671 0.70183 0.34095 0.0
C385 C 0.58966 0.68084 0.32791 0.0
C386 C 0.57908 0.68463 0.34038 0.0
C387 C 0.56451 0.71553 0.32954 0.0
N388 N 0.58745 0.69443 0.31652 0.0
C389 C 0.57523 0.71188 0.31689 0.0
O390 O 0.59907 0.73595 0.38719 0.0
C391 C 0.5977 0.7525 0.37803 0.0
O392 O 0.58111 0.74219 0.36763 0.0
H393 H 0.58047 0.67379 0.34952 0.0
H394 H 0.55396 0.72855 0.33036 0.0
C395 C 0.57162 0.68215 0.42083 0.0
C396 C 0.55362 0.67515 0.43253 0.0
C397 C 0.51608 0.67457 0.41881 0.0
C398 C 0.53393 0.68161 0.40731 0.0
N399 N 0.56113 0.68492 0.40846 0.0
N400 N 0.52626 0.67142 0.43108 0.0
H401 H 0.59328 0.68471 0.42145 0.0
C402 C 0.50321 0.71475 0.364 0.0
O403 O 0.51032 0.71235 0.37665 0.0
O404 O 0.61475 0.68308 0.39299 0.0
H405 H 0.52603 0.68401 0.39744 0.0
H406 H 0.59949 0.66713 0.32727 0.0
H407 H 0.49427 0.67154 0.418 0.0
Zn408 Zn 0.58838 0.89162 0.89113 0.0
C409 C 0.52222 0.86939 0.86437 0.0
N410 N 0.52059 0.89105 0.87075 0.0
C411 C 0.54474 0.90317 0.87863 0.0
N412 N 0.56029 0.88928 0.87744 0.0
N413 N 0.54627 0.86838 0.8682 0.0
C414 C 0.51615 0.78688 0.86459 0.0
O415 O 0.52671 0.79547 0.877 0.0
O416 O 0.62087 0.93387 0.89323 0.0
Zn417 Zn 0.55977 0.84556 0.85847 0.0
N418 N 0.56605 0.87793 0.90799 0.0
C419 C 0.51986 0.84363 0.91753 0.0
C420 C 0.53863 0.85463 0.90634 0.0
C421 C 0.57587 0.89038 0.92057 0.0
N422 N 0.52939 0.85614 0.93001 0.0
C423 C 0.55696 0.87915 0.93197 0.0
O424 O 0.58989 0.84054 0.86846 0.0
C425 C 0.60607 0.84755 0.87904 0.0
O426 O 0.60663 0.86562 0.88791 0.0
H427 H 0.5313 0.84488 0.89633 0.0
H428 H 0.59777 0.90899 0.92159 0.0
C429 C 0.57264 0.84736 0.82972 0.0
C430 C 0.58342 0.86103 0.81693 0.0
C431 C 0.59935 0.90728 0.82747 0.0
C432 C 0.58865 0.89359 0.84006 0.0
N433 N 0.57552 0.86398 0.84094 0.0
N434 N 0.59643 0.89077 0.81625 0.0
H435 H 0.56147 0.82379 0.83077 0.0
C436 C 0.63455 0.94785 0.88254 0.0
O437 O 0.62702 0.9344 0.87063 0.0
O438 O 0.52653 0.80495 0.85473 0.0
H439 H 0.5905 0.90639 0.84905 0.0
H440 H 0.49787 0.82529 0.91633 0.0
H441 H 0.60978 0.93084 0.82658 0.0
Zn442 Zn 0.70862 0.55106 0.8565 0.0
C443 C 0.6377 0.53522 0.8786 0.0
N444 N 0.6247 0.51254 0.86987 0.0
C445 C 0.6473 0.51535 0.8624 0.0
N446 N 0.67286 0.53842 0.86646 0.0
N447 N 0.66703 0.55094 0.87683 0.0
C448 C 0.68752 0.62708 0.88296 0.0
O449 O 0.6951 0.6211 0.87108 0.0
O450 O 0.71358 0.51672 0.85165 0.0
Zn451 Zn 0.6941 0.57839 0.89036 0.0
N452 N 0.70681 0.56894 0.83955 0.0
C453 C 0.69102 0.59704 0.82693 0.0
C454 C 0.69226 0.58409 0.83917 0.0
C455 C 0.72012 0.56603 0.82819 0.0
N456 N 0.70446 0.59434 0.81559 0.0
C457 C 0.7192 0.57923 0.81578 0.0
O458 O 0.73798 0.59618 0.88637 0.0
C459 C 0.7547 0.59526 0.87717 0.0
O460 O 0.74457 0.57943 0.86653 0.0
H461 H 0.68164 0.58597 0.84829 0.0
H462 H 0.73083 0.55318 0.82894 0.0
C463 C 0.69106 0.56776 0.91985 0.0
C464 C 0.68781 0.55022 0.93135 0.0
C465 C 0.67598 0.51 0.91657 0.0
C466 C 0.67977 0.52753 0.90523 0.0
N467 N 0.68714 0.55597 0.90705 0.0
N468 N 0.68032 0.52177 0.9293 0.0
H469 H 0.69767 0.59066 0.92099 0.0
C470 C 0.71985 0.50383 0.86091 0.0
O471 O 0.72216 0.51268 0.87368 0.0
O472 O 0.68532 0.61133 0.89327 0.0
H473 H 0.67724 0.51862 0.89501 0.0
H474 H 0.67949 0.60917 0.82642 0.0
H475 H 0.67013 0.48734 0.91527 0.0
Zn476 Zn 0.11585 0.69373 0.89155 0.0
C477 C 0.1346 0.64847 0.86382 0.0
N478 N 0.11327 0.62547 0.87054 0.0
C479 C 0.10254 0.63798 0.87896 0.0
N480 N 0.11704 0.66745 0.87779 0.0
N481 N 0.13671 0.67382 0.86797 0.0
C482 C 0.21893 0.72542 0.86459 0.0
O483 O 0.21023 0.72766 0.87694 0.0
O484 O 0.0738 0.68408 0.89389 0.0
Zn485 Zn 0.1602 0.71015 0.8583 0.0
N486 N 0.13009 0.68552 0.9083 0.0
C487 C 0.1651 0.67469 0.91784 0.0
C488 C 0.15371 0.68195 0.90663 0.0
C489 C 0.11768 0.6828 0.92088 0.0
N490 N 0.15263 0.67163 0.93034 0.0
C491 C 0.12928 0.67562 0.9323 0.0
O492 O 0.16547 0.74527 0.86829 0.0
C493 C 0.15917 0.75495 0.8789 0.0
O494 O 0.14173 0.7379 0.88807 0.0
H495 H 0.16334 0.68437 0.89658 0.0
H496 H 0.0988 0.68563 0.92189 0.0
C497 C 0.15883 0.72079 0.82946 0.0
C498 C 0.14524 0.71929 0.81677 0.0
C499 C 0.09871 0.69202 0.82763 0.0
C500 C 0.11234 0.69378 0.8401 0.0
N501 N 0.14204 0.70813 0.84078 0.0
N502 N 0.11537 0.70475 0.81634 0.0
H503 H 0.18237 0.73143 0.83043 0.0
C504 C 0.06093 0.68627 0.88331 0.0
O505 O 0.07559 0.69481 0.87173 0.0
O506 O 0.20088 0.71737 0.8547 0.0
H507 H 0.09941 0.68371 0.84918 0.0
H508 H 0.18369 0.67146 0.91663 0.0
H509 H 0.07506 0.68065 0.8269 0.0
Zn510 Zn 0.42666 0.11442 0.89142 0.0
C511 C 0.49306 0.14061 0.86468 0.0
N512 N 0.49734 0.12097 0.87147 0.0
C513 C 0.47312 0.10711 0.87926 0.0
N514 N 0.45499 0.11803 0.87757 0.0
N515 N 0.46749 0.13879 0.86815 0.0
C516 C 0.48374 0.22157 0.85914 0.0
O517 O 0.46542 0.21716 0.86921 0.0
O518 O 0.39572 0.07178 0.89377 0.0
Zn519 Zn 0.45106 0.15841 0.85807 0.0
N520 N 0.44971 0.12974 0.90796 0.0
C521 C 0.49591 0.16635 0.91658 0.0
C522 C 0.47621 0.15409 0.9058 0.0
C523 C 0.44163 0.1175 0.92068 0.0
N524 N 0.48819 0.154 0.92918 0.0
C525 C 0.46153 0.12999 0.93165 0.0
O526 O 0.41989 0.16122 0.8682 0.0
C527 C 0.4045 0.1545 0.87903 0.0
O528 O 0.40607 0.13826 0.88829 0.0
H529 H 0.48213 0.16368 0.89568 0.0
H530 H 0.42043 0.09809 0.92214 0.0
C531 C 0.43671 0.15313 0.82964 0.0
C532 C 0.42463 0.13827 0.81725 0.0
C533 C 0.40889 0.09302 0.82871 0.0
C534 C 0.42116 0.10793 0.84092 0.0
N535 N 0.43465 0.13763 0.84115 0.0
N536 N 0.41084 0.10845 0.81721 0.0
H537 H 0.44719 0.17673 0.83026 0.0
C538 C 0.379 0.05939 0.88356 0.0
O539 O 0.38298 0.07471 0.87233 0.0
O540 O 0.48225 0.19964 0.85297 0.0
H541 H 0.41989 0.09601 0.85015 0.0
H542 H 0.51722 0.1855 0.91496 0.0
H543 H 0.39791 0.06936 0.82836 0.0
Zn544 Zn 0.29475 0.44716 0.85762 0.0
C545 C 0.36609 0.46229 0.879 0.0
N546 N 0.37871 0.48626 0.87102 0.0
C547 C 0.35589 0.48449 0.86411 0.0
N548 N 0.33056 0.46052 0.86772 0.0
N549 N 0.33673 0.44671 0.87735 0.0
C550 C 0.31669 0.37106 0.88337 0.0
O551 O 0.30739 0.37639 0.87181 0.0
O552 O 0.28735 0.48025 0.85367 0.0
Zn553 Zn 0.30999 0.4191 0.89093 0.0
N554 N 0.29786 0.43114 0.84032 0.0
C555 C 0.31509 0.4047 0.82734 0.0
C556 C 0.31287 0.41645 0.83977 0.0
C557 C 0.28496 0.43466 0.82895 0.0
N558 N 0.30208 0.40802 0.81599 0.0
C559 C 0.28684 0.42262 0.81634 0.0
O560 O 0.26594 0.4002 0.887 0.0
C561 C 0.24917 0.40071 0.87771 0.0
O562 O 0.25921 0.41704 0.86724 0.0
H563 H 0.32305 0.41399 0.84891 0.0
H564 H 0.27378 0.44704 0.82985 0.0
C565 C 0.31275 0.42989 0.92044 0.0
C566 C 0.31582 0.4475 0.93189 0.0
C567 C 0.32746 0.48752 0.917 0.0
C568 C 0.32385 0.46992 0.90572 0.0
N569 N 0.31666 0.44155 0.90761 0.0
N570 N 0.32313 0.47588 0.92976 0.0
H571 H 0.3063 0.40704 0.92163 0.0
C572 C 0.27884 0.49001 0.86346 0.0
O573 O 0.27632 0.47904 0.87582 0.0
O574 O 0.31984 0.38702 0.89373 0.0
H575 H 0.32636 0.47873 0.89549 0.0
H576 H 0.327 0.39297 0.8267 0.0
H577 H 0.33316 0.51012 0.91564 0.0
Zn578 Zn 0.89158 0.31407 0.8912 0.0
C579 C 0.86886 0.35995 0.86616 0.0
N580 N 0.88862 0.3824 0.87374 0.0
C581 C 0.90125 0.37013 0.88106 0.0
N582 N 0.88922 0.34121 0.87847 0.0
N583 N 0.86922 0.33507 0.86884 0.0
C584 C 0.79026 0.29194 0.86466 0.0
O585 O 0.80023 0.29538 0.87727 0.0
O586 O 0.93366 0.32353 0.89292 0.0
Zn587 Zn 0.8469 0.29973 0.85834 0.0
N588 N 0.8778 0.32075 0.90847 0.0
C589 C 0.84253 0.33018 0.91886 0.0
C590 C 0.85362 0.32354 0.90733 0.0
C591 C 0.89114 0.32371 0.92082 0.0
N592 N 0.85594 0.33351 0.93113 0.0
C593 C 0.8799 0.33033 0.93254 0.0
O594 O 0.84132 0.26336 0.86737 0.0
C595 C 0.84799 0.25342 0.87778 0.0
O596 O 0.86566 0.27031 0.88695 0.0
H597 H 0.84333 0.3211 0.89745 0.0
H598 H 0.91051 0.3216 0.92142 0.0
C599 C 0.84963 0.28934 0.82959 0.0
C600 C 0.8628 0.2955 0.81655 0.0
C601 C 0.90753 0.33166 0.8265 0.0
C602 C 0.89434 0.32562 0.8394 0.0
N603 N 0.86563 0.30481 0.84067 0.0
N604 N 0.89145 0.31671 0.8154 0.0
H605 H 0.82668 0.27319 0.83086 0.0
C606 C 0.94662 0.32248 0.88213 0.0
O607 O 0.93228 0.31571 0.87044 0.0
O608 O 0.8065 0.29311 0.85478 0.0
H609 H 0.90673 0.33781 0.84828 0.0
H610 H 0.8235 0.33279 0.91807 0.0
H611 H 0.93028 0.34837 0.8253 0.0
Zn612 Zn 0.15877 0.44945 0.64948 0.0
C613 C 0.10274 0.46575 0.62854 0.0
N614 N 0.11341 0.48881 0.63708 0.0
C615 C 0.13389 0.48627 0.64409 0.0
N616 N 0.13578 0.46289 0.63995 0.0
N617 N 0.11639 0.45003 0.62997 0.0
C618 C 0.0604 0.37479 0.62362 0.0
O619 O 0.07446 0.38077 0.63536 0.0
O620 O 0.19872 0.48313 0.65383 0.0
Zn621 Zn 0.11554 0.42321 0.61597 0.0
N622 N 0.13954 0.43174 0.66657 0.0
C623 C 0.0955 0.40361 0.67916 0.0
C624 C 0.10979 0.41692 0.66699 0.0
C625 C 0.15571 0.43414 0.67789 0.0
N626 N 0.11158 0.40585 0.69046 0.0
C627 C 0.14144 0.42092 0.69026 0.0
O628 O 0.14175 0.40521 0.6192 0.0
C629 C 0.15936 0.40544 0.62825 0.0
O630 O 0.16532 0.42077 0.63908 0.0
H631 H 0.09733 0.41543 0.65791 0.0
H632 H 0.17936 0.44576 0.67712 0.0
C633 C 0.11863 0.43878 0.5868 0.0
C634 C 0.13051 0.45913 0.57596 0.0
C635 C 0.16508 0.49436 0.59139 0.0
C636 C 0.15339 0.47423 0.60203 0.0
N637 N 0.13025 0.44704 0.59962 0.0
N638 N 0.15335 0.48641 0.57868 0.0
H639 H 0.10013 0.41704 0.58515 0.0
C640 C 0.21605 0.49615 0.64394 0.0
O641 O 0.20705 0.48768 0.63131 0.0
O642 O 0.07362 0.39042 0.61322 0.0
H643 H 0.16242 0.48034 0.61225 0.0
H644 H 0.07182 0.39158 0.67965 0.0
H645 H 0.18327 0.51618 0.59321 0.0
Zn646 Zn 0.7124 0.15854 0.64955 0.0
C647 C 0.63979 0.10079 0.6292 0.0
N648 N 0.62755 0.11222 0.63737 0.0
C649 C 0.65075 0.13383 0.64385 0.0
N650 N 0.67598 0.13548 0.6398 0.0
N651 N 0.66929 0.11511 0.63031 0.0
C652 C 0.68577 0.05818 0.62377 0.0
O653 O 0.69179 0.0711 0.63582 0.0
O654 O 0.71993 0.19933 0.65293 0.0
Zn655 Zn 0.69534 0.11434 0.61638 0.0
N656 N 0.70877 0.14059 0.66732 0.0
C657 C 0.68429 0.09848 0.68158 0.0
C658 C 0.68952 0.11145 0.66865 0.0
C659 C 0.72354 0.15727 0.67838 0.0
N660 N 0.6985 0.11519 0.69266 0.0
C661 C 0.7182 0.1443 0.69145 0.0
O662 O 0.73946 0.1396 0.62005 0.0
C663 C 0.75701 0.15675 0.62918 0.0
O664 O 0.74788 0.16332 0.63991 0.0
H665 H 0.67788 0.09852 0.65978 0.0
H666 H 0.73845 0.18051 0.67706 0.0
C667 C 0.68346 0.11844 0.58724 0.0
C668 C 0.67605 0.13126 0.57643 0.0
C669 C 0.67744 0.16672 0.59191 0.0
C670 C 0.68489 0.15412 0.60254 0.0
N671 N 0.68737 0.1301 0.60009 0.0
N672 N 0.67311 0.15498 0.57918 0.0
H673 H 0.68548 0.09924 0.58557 0.0
C674 C 0.72779 0.21736 0.64304 0.0
O675 O 0.73003 0.2088 0.63067 0.0
O676 O 0.68561 0.07249 0.61331 0.0
H677 H 0.68827 0.16314 0.61276 0.0
H678 H 0.6688 0.07537 0.68282 0.0
H679 H 0.67504 0.18564 0.59376 0.0
Zn680 Zn 0.58245 0.6938 0.61607 0.0
C681 C 0.51607 0.65084 0.64275 0.0
N682 N 0.51316 0.62741 0.63598 0.0
C683 C 0.53726 0.63894 0.62807 0.0
N684 N 0.55398 0.66822 0.62964 0.0
N685 N 0.54075 0.6755 0.63912 0.0
C686 C 0.5125 0.72953 0.64593 0.0
O687 O 0.52223 0.7344 0.63325 0.0
O688 O 0.61491 0.68409 0.61435 0.0
Zn689 Zn 0.55566 0.71171 0.64914 0.0
N690 N 0.56073 0.68502 0.59904 0.0
C691 C 0.51491 0.67272 0.58894 0.0
C692 C 0.53315 0.68064 0.60034 0.0
C693 C 0.57121 0.68251 0.58663 0.0
N694 N 0.5251 0.66985 0.57662 0.0
C695 C 0.55284 0.67466 0.57502 0.0
O696 O 0.58482 0.74677 0.63881 0.0
C697 C 0.60042 0.75571 0.62804 0.0
O698 O 0.60062 0.73803 0.61917 0.0
H699 H 0.52528 0.68295 0.61024 0.0
H700 H 0.59322 0.68599 0.58589 0.0
C701 C 0.57104 0.72192 0.67757 0.0
C702 C 0.583 0.71897 0.68999 0.0
C703 C 0.59887 0.68965 0.67841 0.0
C704 C 0.58696 0.69268 0.66618 0.0
N705 N 0.57331 0.70872 0.666 0.0
N706 N 0.59654 0.70271 0.68997 0.0
H707 H 0.55941 0.73394 0.67708 0.0
C708 C 0.63192 0.68937 0.62452 0.0
O709 O 0.62764 0.70079 0.63565 0.0
O710 O 0.52312 0.71923 0.6545 0.0
H711 H 0.58827 0.68209 0.65693 0.0
H712 H 0.49279 0.66884 0.58986 0.0
H713 H 0.60973 0.67687 0.67875 0.0
Zn714 Zn 0.84629 0.55557 0.64887 0.0
C715 C 0.90045 0.53724 0.62778 0.0
N716 N 0.88762 0.513 0.63559 0.0
C717 C 0.86711 0.51599 0.64234 0.0
N718 N 0.8674 0.54079 0.6388 0.0
N719 N 0.88815 0.55417 0.62944 0.0
C720 C 0.94687 0.62916 0.62358 0.0
O721 O 0.93233 0.62417 0.63515 0.0
O722 O 0.80512 0.5233 0.65345 0.0
Zn723 Zn 0.891 0.58245 0.61577 0.0
N724 N 0.8664 0.57155 0.66598 0.0
C725 C 0.91079 0.59721 0.67861 0.0
C726 C 0.89612 0.5851 0.66634 0.0
C727 C 0.85064 0.56931 0.67742 0.0
N728 N 0.89512 0.59511 0.69003 0.0
C729 C 0.86528 0.5813 0.68987 0.0
O730 O 0.86688 0.60262 0.6193 0.0
C731 C 0.85003 0.60311 0.62856 0.0
O732 O 0.84305 0.58689 0.63911 0.0
H733 H 0.90825 0.58657 0.65715 0.0
H734 H 0.82704 0.5588 0.67669 0.0
C735 C 0.88745 0.56706 0.58656 0.0
C736 C 0.87456 0.54707 0.57566 0.0
C737 C 0.83788 0.51342 0.59083 0.0
C738 C 0.85055 0.53321 0.60155 0.0
N739 N 0.87521 0.55939 0.5993 0.0
N740 N 0.85019 0.52074 0.57821 0.0
H741 H 0.90716 0.58799 0.58505 0.0
C742 C 0.78332 0.52129 0.64691 0.0
O743 O 0.78796 0.53963 0.63683 0.0
O744 O 0.93364 0.61355 0.61318 0.0
H745 H 0.84103 0.5276 0.6117 0.0
H746 H 0.93446 0.60823 0.67905 0.0
H747 H 0.81845 0.49236 0.59252 0.0
Zn748 Zn 0.31414 0.88916 0.61546 0.0
C749 C 0.35819 0.86877 0.64324 0.0
N750 N 0.38153 0.88866 0.63617 0.0
C751 C 0.36963 0.8997 0.62754 0.0
N752 N 0.34022 0.88672 0.62896 0.0
N753 N 0.33331 0.86753 0.63906 0.0
C754 C 0.27419 0.78347 0.64491 0.0
O755 O 0.26397 0.78909 0.63373 0.0
O756 O 0.32417 0.9315 0.61355 0.0
Zn757 Zn 0.29729 0.84503 0.64888 0.0
N758 N 0.32212 0.87544 0.59846 0.0
C759 C 0.33269 0.84056 0.58855 0.0
C760 C 0.32544 0.85164 0.59989 0.0
C761 C 0.32507 0.88836 0.58599 0.0
N762 N 0.336 0.85354 0.57617 0.0
C763 C 0.33226 0.87709 0.57445 0.0
O764 O 0.26222 0.84017 0.63891 0.0
C765 C 0.25265 0.84633 0.62821 0.0
O766 O 0.26984 0.86339 0.61895 0.0
H767 H 0.32285 0.84159 0.60985 0.0
H768 H 0.32245 0.90738 0.58516 0.0
C769 C 0.28644 0.84794 0.67757 0.0
C770 C 0.28844 0.86221 0.69007 0.0
C771 C 0.31773 0.90809 0.67904 0.0
C772 C 0.31578 0.89381 0.66673 0.0
N773 N 0.30009 0.8641 0.66621 0.0
N774 N 0.30403 0.89205 0.69035 0.0
H775 H 0.27378 0.82434 0.67672 0.0
C776 C 0.32149 0.9441 0.62412 0.0
O777 O 0.31246 0.92916 0.63561 0.0
O778 O 0.29012 0.80437 0.65299 0.0
H779 H 0.3266 0.90625 0.65763 0.0
H780 H 0.33573 0.82183 0.58957 0.0
H781 H 0.33002 0.93174 0.6796 0.0
Zn782 Zn 0.45134 0.29464 0.65047 0.0
C783 C 0.46711 0.36583 0.62864 0.0
N784 N 0.49024 0.37868 0.63713 0.0
C785 C 0.48768 0.35602 0.64446 0.0
N786 N 0.46426 0.33054 0.64056 0.0
N787 N 0.45133 0.3365 0.63041 0.0
C788 C 0.3759 0.318 0.62457 0.0
O789 O 0.38233 0.31123 0.63654 0.0
O790 O 0.48514 0.28842 0.65447 0.0
Zn791 Zn 0.42346 0.30954 0.61692 0.0
N792 N 0.43468 0.29684 0.66775 0.0
C793 C 0.40778 0.31337 0.68083 0.0
C794 C 0.41997 0.3118 0.66842 0.0
C795 C 0.43786 0.28339 0.679 0.0
N796 N 0.41073 0.29981 0.69205 0.0
C797 C 0.42539 0.28463 0.6916 0.0
O798 O 0.40527 0.26551 0.62081 0.0
C799 C 0.40607 0.24877 0.63003 0.0
O800 O 0.42211 0.25889 0.6406 0.0
H801 H 0.41785 0.32247 0.65938 0.0
H802 H 0.45031 0.2723 0.67801 0.0
C803 C 0.43339 0.31217 0.58739 0.0
C804 C 0.45063 0.31527 0.57579 0.0
C805 C 0.49134 0.32757 0.59033 0.0
C806 C 0.47411 0.32395 0.60177 0.0
N807 N 0.44556 0.31639 0.60012 0.0
N808 N 0.47919 0.32291 0.57767 0.0
H809 H 0.41041 0.30544 0.58638 0.0
C810 C 0.49813 0.28434 0.64449 0.0
O811 O 0.48982 0.28545 0.63191 0.0
O812 O 0.39086 0.31889 0.61416 0.0
H813 H 0.48335 0.32673 0.61193 0.0
H814 H 0.39601 0.32523 0.68156 0.0
H815 H 0.51408 0.33355 0.59149 0.0
C816 C 0.33858 0.01508 0.1343 0.0
C817 C 0.35483 0.0301 0.12264 0.0
C818 C 0.31478 0.98663 0.13323 0.0
C819 C 0.28184 0.92089 0.11094 0.0
H820 H 0.21475 0.89798 0.13467 0.0
C821 C 0.18206 0.80213 0.11219 0.0
C822 C 0.17528 0.79031 0.1255 0.0
C823 C 0.20091 0.83232 0.11025 0.0
C824 C 0.2333 0.90405 0.12795 0.0
H825 H 0.35879 0.02681 0.10066 0.0
H826 H 0.31689 0.97711 0.09875 0.0
H827 H 0.2541 0.94889 0.13421 0.0
H828 H 0.18164 0.80096 0.14716 0.0
H829 H 0.21376 0.85329 0.14381 0.0
H830 H 0.26096 0.87577 0.10484 0.0
C831 C 0.3228 0.9873 0.10877 0.0
C832 C 0.25596 0.93321 0.12774 0.0
C833 C 0.34676 0.01585 0.10985 0.0
C834 C 0.18647 0.80939 0.13678 0.0
C835 C 0.2048 0.83943 0.13486 0.0
C836 C 0.259 0.89168 0.11109 0.0
C837 C 0.3064 0.97237 0.12045 0.0
C838 C 0.28093 0.94191 0.11951 0.0
C839 C 0.21278 0.85122 0.12159 0.0
C840 C 0.23483 0.88281 0.11986 0.0
H841 H 0.34427 0.02526 0.14433 0.0
H842 H 0.30317 0.97566 0.14251 0.0
H843 H 0.30077 0.9267 0.10454 0.0
H844 H 0.17394 0.78792 0.1033 0.0
H845 H 0.20656 0.84082 0.09991 0.0
C846 C 0.3319 0.34055 0.1095 0.0
C847 C 0.32607 0.349 0.12227 0.0
C848 C 0.33753 0.31728 0.1086 0.0
C849 C 0.32825 0.25257 0.1282 0.0
H850 H 0.39087 0.25889 0.10498 0.0
C851 C 0.3862 0.1867 0.13754 0.0
C852 C 0.39413 0.17544 0.1263 0.0
C853 C 0.37381 0.20439 0.13553 0.0
C854 C 0.37297 0.25656 0.11133 0.0
H855 H 0.32208 0.33987 0.14411 0.0
H856 H 0.33233 0.29992 0.14257 0.0
H857 H 0.37788 0.29733 0.10438 0.0
H858 H 0.39456 0.17335 0.10411 0.0
H859 H 0.37307 0.20481 0.10058 0.0
H860 H 0.32406 0.21236 0.13551 0.0
C861 C 0.33192 0.31071 0.13319 0.0
C862 C 0.36552 0.27861 0.11101 0.0
C863 C 0.32626 0.33385 0.13409 0.0
C864 C 0.38853 0.18157 0.11296 0.0
C865 C 0.37646 0.19974 0.11095 0.0
C866 C 0.3358 0.23069 0.12858 0.0
C867 C 0.33745 0.30196 0.12044 0.0
C868 C 0.34352 0.27723 0.11968 0.0
C869 C 0.36928 0.21159 0.12223 0.0
C870 C 0.35867 0.23274 0.12039 0.0
H871 H 0.33191 0.35177 0.1002 0.0
H872 H 0.34153 0.31104 0.0986 0.0
H873 H 0.31068 0.25037 0.13477 0.0
H874 H 0.39016 0.18235 0.14795 0.0
H875 H 0.36882 0.21339 0.14444 0.0
C876 C 0.9914 0.32415 0.13511 0.0
C877 C 0.9767 0.32521 0.12329 0.0
C878 C 0.01988 0.32878 0.13427 0.0
C879 C 0.08601 0.36091 0.11216 0.0
H880 H 0.10842 0.3171 0.13637 0.0
C881 C 0.20414 0.37889 0.11322 0.0
C882 C 0.21632 0.38437 0.12646 0.0
C883 C 0.17392 0.36755 0.11144 0.0
C884 C 0.10249 0.32948 0.12953 0.0
H885 H 0.98057 0.33216 0.10129 0.0
H886 H 0.03022 0.33986 0.09979 0.0
H887 H 0.05764 0.30598 0.13585 0.0
H888 H 0.20627 0.38073 0.14819 0.0
H889 H 0.15383 0.36052 0.1451 0.0
H890 H 0.1311 0.38457 0.10596 0.0
C891 C 0.01982 0.33577 0.10975 0.0
C892 C 0.0734 0.32325 0.12928 0.0
C893 C 0.99129 0.33125 0.1106 0.0
C894 C 0.19754 0.37678 0.13785 0.0
C895 C 0.16744 0.36508 0.13608 0.0
C896 C 0.11512 0.36701 0.11234 0.0
C897 C 0.03445 0.33446 0.12158 0.0
C898 C 0.06489 0.33935 0.12084 0.0
C899 C 0.15534 0.36098 0.12288 0.0
C900 C 0.12381 0.3518 0.12126 0.0
H901 H 0.98094 0.31977 0.14507 0.0
H902 H 0.03061 0.32826 0.14365 0.0
H903 H 0.08038 0.37394 0.10561 0.0
H904 H 0.2181 0.38474 0.10426 0.0
H905 H 0.16516 0.36444 0.10114 0.0
C906 C 0.82496 0.20064 0.13884 0.0
C907 C 0.83393 0.21875 0.12719 0.0
C908 C 0.80578 0.17059 0.13763 0.0
C909 C 0.77015 0.10804 0.11332 0.0
H910 H 0.70972 0.07765 0.14131 0.0
C911 C 0.66587 0.9917 0.1115 0.0
C912 C 0.65803 0.97604 0.12394 0.0
C913 C 0.68829 0.02109 0.11114 0.0
C914 C 0.72656 0.08568 0.13348 0.0
H915 H 0.83106 0.21931 0.10504 0.0
H916 H 0.79694 0.16653 0.10291 0.0
H917 H 0.7479 0.12879 0.14192 0.0
H918 H 0.66779 0.97898 0.1457 0.0
H919 H 0.70661 0.02999 0.14505 0.0
H920 H 0.74822 0.06463 0.10483 0.0
C921 C 0.80507 0.17563 0.11298 0.0
C922 C 0.74858 0.11504 0.13385 0.0
C923 C 0.82465 0.20585 0.11419 0.0
C924 C 0.67317 0.99036 0.13595 0.0
C925 C 0.69537 0.01968 0.13559 0.0
C926 C 0.74792 0.07855 0.11292 0.0
C927 C 0.79465 0.15782 0.12476 0.0
C928 C 0.77093 0.12656 0.12391 0.0
C929 C 0.7031 0.03547 0.12322 0.0
C930 C 0.7261 0.06698 0.12311 0.0
H931 H 0.83202 0.20989 0.14899 0.0
H932 H 0.79898 0.15746 0.14688 0.0
H933 H 0.78705 0.11616 0.10553 0.0
H934 H 0.65465 0.98131 0.10206 0.0
H935 H 0.69361 0.03273 0.10146 0.0
C936 C 0.67272 0.65847 0.10913 0.0
C937 C 0.67885 0.65007 0.12184 0.0
C938 C 0.66842 0.68259 0.10822 0.0
C939 C 0.68213 0.74931 0.12748 0.0
H940 H 0.6197 0.74528 0.10487 0.0
C941 C 0.62932 0.82004 0.13694 0.0
C942 C 0.62109 0.83104 0.12571 0.0
C943 C 0.64086 0.8016 0.13494 0.0
C944 C 0.63757 0.74697 0.11104 0.0
H945 H 0.68474 0.66018 0.14358 0.0
H946 H 0.67673 0.7016 0.14204 0.0
H947 H 0.63017 0.7051 0.10435 0.0
H948 H 0.61941 0.83206 0.10352 0.0
H949 H 0.63944 0.79935 0.09999 0.0
H950 H 0.6888 0.79067 0.13454 0.0
C951 C 0.67591 0.6901 0.1327 0.0
C952 C 0.64357 0.72392 0.11076 0.0
C953 C 0.68027 0.66613 0.1336 0.0
C954 C 0.62574 0.82408 0.11237 0.0
C955 C 0.63694 0.80518 0.11036 0.0
C956 C 0.67602 0.77221 0.12782 0.0
C957 C 0.67013 0.69883 0.12 0.0
C958 C 0.66549 0.72449 0.11922 0.0
C959 C 0.64418 0.79338 0.12165 0.0
C960 C 0.65327 0.77104 0.11983 0.0
H961 H 0.67152 0.64659 0.09986 0.0
H962 H 0.66419 0.68877 0.09825 0.0
H963 H 0.69967 0.75089 0.13387 0.0
H964 H 0.62602 0.825 0.14735 0.0
H965 H 0.64594 0.7927 0.14386 0.0
C966 C 0.01243 0.68148 0.13503 0.0
C967 C 0.02772 0.68166 0.12319 0.0
C968 C 0.98357 0.67576 0.13417 0.0
C969 C 0.91773 0.64232 0.11188 0.0
H970 H 0.89253 0.68296 0.13664 0.0
C971 C 0.79775 0.61963 0.11314 0.0
C972 C 0.78544 0.61361 0.12637 0.0
C973 C 0.82809 0.63173 0.11139 0.0
C974 C 0.89922 0.67143 0.12965 0.0
H975 H 0.02449 0.67582 0.10112 0.0
H976 H 0.97411 0.66618 0.09959 0.0
H977 H 0.94395 0.69627 0.13606 0.0
H978 H 0.79544 0.61692 0.1481 0.0
H979 H 0.84803 0.63837 0.14506 0.0
H980 H 0.87276 0.6173 0.10559 0.0
C981 C 0.98439 0.67017 0.10958 0.0
C982 C 0.92869 0.67894 0.12936 0.0
C983 C 0.01333 0.67582 0.11044 0.0
C984 C 0.80421 0.62125 0.13777 0.0
C985 C 0.83441 0.63368 0.13603 0.0
C986 C 0.88822 0.63493 0.11211 0.0
C987 C 0.96916 0.67019 0.12144 0.0
C988 C 0.93826 0.66401 0.12072 0.0
C989 C 0.84669 0.63851 0.12283 0.0
C990 C 0.87852 0.64895 0.12123 0.0
H991 H 0.02269 0.68566 0.14503 0.0
H992 H 0.97241 0.67532 0.14358 0.0
H993 H 0.92419 0.63018 0.10516 0.0
H994 H 0.78384 0.61379 0.10416 0.0
H995 H 0.83695 0.63538 0.1011 0.0
C996 C 0.20138 0.82014 0.36938 0.0
C997 C 0.22005 0.83001 0.38083 0.0
C998 C 0.17156 0.80028 0.37091 0.0
C999 C 0.10993 0.76433 0.39554 0.0
H1000 H 0.08044 0.70291 0.36804 0.0
C1001 C 0.99311 0.65995 0.39692 0.0
C1002 C 0.97804 0.65226 0.38432 0.0
C1003 C 0.02261 0.68217 0.39755 0.0
C1004 C 0.08823 0.71999 0.37574 0.0
H1005 H 0.22181 0.82808 0.40298 0.0
H1006 H 0.16931 0.79277 0.40569 0.0
H1007 H 0.13143 0.74154 0.36738 0.0
H1008 H 0.98214 0.66209 0.36255 0.0
H1009 H 0.03323 0.70049 0.36365 0.0
H1010 H 0.06634 0.74229 0.4039 0.0
C1011 C 0.17785 0.80068 0.39551 0.0
C1012 C 0.11748 0.74224 0.37535 0.0
C1013 C 0.20789 0.82093 0.39398 0.0
C1014 C 0.99304 0.66733 0.37242 0.0
C1015 C 0.02242 0.68929 0.37303 0.0
C1016 C 0.08049 0.74186 0.39596 0.0
C1017 C 0.15957 0.78938 0.38392 0.0
C1018 C 0.12863 0.76504 0.38506 0.0
C1019 C 0.03764 0.6969 0.38557 0.0
C1020 C 0.06923 0.71974 0.3859 0.0
H1021 H 0.21003 0.82704 0.35913 0.0
H1022 H 0.158 0.79279 0.3618 0.0
H1023 H 0.1178 0.78155 0.40317 0.0
H1024 H 0.98217 0.64878 0.40628 0.0
H1025 H 0.03379 0.68743 0.40734 0.0
C1026 C 0.38272 0.20348 0.3923 0.0
C1027 C 0.38598 0.21652 0.37936 0.0
C1028 C 0.37223 0.17329 0.39338 0.0
C1029 C 0.36664 0.11243 0.37196 0.0
H1030 H 0.32126 0.0632 0.40236 0.0
C1031 C 0.31864 0.98766 0.37127 0.0
C1032 C 0.32253 0.97471 0.38308 0.0
C1033 C 0.32514 0.0168 0.37143 0.0
C1034 C 0.33413 0.07679 0.39386 0.0
H1035 H 0.37863 0.20798 0.35757 0.0
H1036 H 0.35913 0.15548 0.35947 0.0
H1037 H 0.33291 0.11434 0.40147 0.0
H1038 H 0.33593 0.98217 0.40442 0.0
H1039 H 0.3471 0.03322 0.40472 0.0
H1040 H 0.36758 0.07493 0.36427 0.0
C1041 C 0.36576 0.16848 0.36876 0.0
C1042 C 0.34084 0.1061 0.39335 0.0
C1043 C 0.37662 0.19857 0.36767 0.0
C1044 C 0.33274 0.99152 0.39514 0.0
C1045 C 0.33897 0.02068 0.39534 0.0
C1046 C 0.35972 0.08321 0.37241 0.0
C1047 C 0.36451 0.15556 0.38156 0.0
C1048 C 0.35703 0.12427 0.38232 0.0
C1049 C 0.33549 0.03369 0.38344 0.0
C1050 C 0.34326 0.06498 0.38331 0.0
H1051 H 0.39002 0.21683 0.40148 0.0
H1052 H 0.37167 0.1642 0.40341 0.0
H1053 H 0.37992 0.12586 0.36352 0.0
H1054 H 0.31079 0.97539 0.3618 0.0
H1055 H 0.32194 0.0261 0.36214 0.0
C1056 C 0.18588 0.39046 0.39274 0.0
C1057 C 0.17916 0.39662 0.37963 0.0
C1058 C 0.20601 0.38053 0.39425 0.0
C1059 C 0.26791 0.38249 0.37526 0.0
H1060 H 0.26195 0.32484 0.40168 0.0
C1061 C 0.342 0.33197 0.37205 0.0
C1062 C 0.35454 0.32892 0.38422 0.0
C1063 C 0.32034 0.33981 0.37246 0.0
C1064 C 0.26404 0.34121 0.39435 0.0
H1065 H 0.18647 0.39503 0.35784 0.0
H1066 H 0.22052 0.37707 0.36042 0.0
H1067 H 0.22345 0.33799 0.40064 0.0
H1068 H 0.35381 0.33146 0.40641 0.0
H1069 H 0.31571 0.34517 0.4071 0.0
H1070 H 0.30816 0.3856 0.36885 0.0
C1071 C 0.21126 0.38084 0.36959 0.0
C1072 C 0.24199 0.34873 0.39375 0.0
C1073 C 0.1915 0.39093 0.3681 0.0
C1074 C 0.34463 0.33366 0.39684 0.0
C1075 C 0.3227 0.34135 0.39725 0.0
C1076 C 0.28974 0.37491 0.37582 0.0
C1077 C 0.2196 0.37645 0.38267 0.0
C1078 C 0.24343 0.36913 0.38402 0.0
C1079 C 0.31049 0.34475 0.38504 0.0
C1080 C 0.28791 0.35387 0.38521 0.0
H1081 H 0.17681 0.39475 0.40182 0.0
H1082 H 0.2119 0.37735 0.40448 0.0
H1083 H 0.27028 0.39894 0.36791 0.0
H1084 H 0.34899 0.32842 0.36215 0.0
H1085 H 0.31111 0.34183 0.36287 0.0
C1086 C 0.01612 0.34438 0.39688 0.0
C1087 C 0.03038 0.35284 0.3841 0.0
C1088 C 0.98752 0.32043 0.39787 0.0
C1089 C 0.93321 0.25424 0.37856 0.0
H1090 H 0.87591 0.25864 0.40183 0.0
C1091 C 0.80909 0.18392 0.36987 0.0
C1092 C 0.79015 0.17288 0.38122 0.0
C1093 C 0.83917 0.2024 0.3717 0.0
C1094 C 0.89177 0.25684 0.39546 0.0
H1095 H 0.02548 0.34292 0.36234 0.0
H1096 H 0.97583 0.30184 0.36402 0.0
H1097 H 0.92686 0.29841 0.40217 0.0
H1098 H 0.78812 0.17197 0.40342 0.0
H1099 H 0.84104 0.20473 0.40663 0.0
H1100 H 0.89793 0.21317 0.37151 0.0
C1101 C 0.98682 0.31315 0.37335 0.0
C1102 C 0.92101 0.27966 0.39564 0.0
C1103 C 0.01531 0.33695 0.37236 0.0
C1104 C 0.80219 0.17995 0.39448 0.0
C1105 C 0.83241 0.1989 0.39631 0.0
C1106 C 0.90402 0.23156 0.37832 0.0
C1107 C 0.97253 0.30441 0.38611 0.0
C1108 C 0.942 0.27897 0.38696 0.0
C1109 C 0.85117 0.21067 0.38492 0.0
C1110 C 0.88281 0.23285 0.38655 0.0
H1111 H 0.0271 0.35612 0.40613 0.0
H1112 H 0.97732 0.31425 0.40788 0.0
H1113 H 0.94885 0.25252 0.37199 0.0
H1114 H 0.80052 0.17891 0.35951 0.0
H1115 H 0.85289 0.21126 0.36269 0.0
C1116 C 0.62032 0.80274 0.36816 0.0
C1117 C 0.61363 0.78475 0.37978 0.0
C1118 C 0.63068 0.83267 0.36952 0.0
C1119 C 0.66087 0.8954 0.39388 0.0
H1120 H 0.62648 0.92507 0.36779 0.0
C1121 C 0.67379 0.01219 0.3967 0.0
C1122 C 0.6802 0.0274 0.38416 0.0
C1123 C 0.6665 0.98269 0.39706 0.0
C1124 C 0.63646 0.91722 0.3751 0.0
H1125 H 0.61399 0.78436 0.402 0.0
H1126 H 0.63174 0.83691 0.40443 0.0
H1127 H 0.61347 0.87396 0.36686 0.0
H1128 H 0.6841 0.02351 0.3622 0.0
H1129 H 0.67129 0.97238 0.36284 0.0
H1130 H 0.6836 0.939 0.40218 0.0
C1131 C 0.62923 0.82781 0.39423 0.0
C1132 C 0.62911 0.88788 0.37453 0.0
C1133 C 0.6191 0.79771 0.39285 0.0
C1134 C 0.67924 0.01252 0.37204 0.0
C1135 C 0.67175 0.98311 0.37239 0.0
C1136 C 0.66813 0.92488 0.3945 0.0
C1137 C 0.63426 0.84547 0.38256 0.0
C1138 C 0.64157 0.87663 0.38375 0.0
C1139 C 0.66514 0.96778 0.38487 0.0
C1140 C 0.65633 0.93619 0.38496 0.0
H1141 H 0.6167 0.79349 0.35794 0.0
H1142 H 0.6352 0.84569 0.3603 0.0
H1143 H 0.67093 0.88752 0.40112 0.0
H1144 H 0.67437 0.02304 0.40622 0.0
H1145 H 0.66135 0.97141 0.40682 0.0
C1146 C 0.66358 0.67372 0.39614 0.0
C1147 C 0.65458 0.67909 0.38342 0.0
C1148 C 0.68755 0.66915 0.39697 0.0
C1149 C 0.75296 0.68047 0.37723 0.0
H1150 H 0.74932 0.6197 0.40092 0.0
C1151 C 0.82315 0.62653 0.36888 0.0
C1152 C 0.83414 0.61876 0.38028 0.0
C1153 C 0.80492 0.6384 0.37062 0.0
C1154 C 0.75093 0.63711 0.39443 0.0
H1155 H 0.66351 0.68342 0.36157 0.0
H1156 H 0.70471 0.67495 0.36296 0.0
H1157 H 0.70949 0.63067 0.40128 0.0
H1158 H 0.83538 0.61832 0.40249 0.0
H1159 H 0.80312 0.63901 0.40555 0.0
H1160 H 0.79391 0.6862 0.37005 0.0
C1161 C 0.69378 0.67491 0.37237 0.0
C1162 C 0.72805 0.6434 0.39462 0.0
C1163 C 0.66993 0.67955 0.37155 0.0
C1164 C 0.82743 0.62429 0.39351 0.0
C1165 C 0.80875 0.63585 0.39526 0.0
C1166 C 0.7757 0.67408 0.37699 0.0
C1167 C 0.70305 0.6698 0.38509 0.0
C1168 C 0.72848 0.66475 0.38581 0.0
C1169 C 0.7969 0.64256 0.38381 0.0
C1170 C 0.77469 0.65194 0.38539 0.0
H1171 H 0.65227 0.67326 0.40549 0.0
H1172 H 0.69417 0.66551 0.40695 0.0
H1173 H 0.75443 0.69755 0.37054 0.0
H1174 H 0.82791 0.62255 0.35855 0.0
H1175 H 0.79598 0.64304 0.36158 0.0
C1176 C 0.82027 0.20281 0.86812 0.0
C1177 C 0.83262 0.22116 0.87958 0.0
C1178 C 0.80255 0.17258 0.86972 0.0
C1179 C 0.75248 0.11799 0.89416 0.0
H1180 H 0.75535 0.06305 0.86868 0.0
C1181 C 0.66892 0.99284 0.89609 0.0
C1182 C 0.65883 0.97868 0.88337 0.0
C1183 C 0.69221 0.02181 0.89672 0.0
C1184 C 0.75405 0.07808 0.87582 0.0
H1185 H 0.83665 0.22195 0.90172 0.0
H1186 H 0.80527 0.16881 0.90455 0.0
H1187 H 0.79335 0.1145 0.86793 0.0
H1188 H 0.66505 0.98413 0.86135 0.0
H1189 H 0.705 0.03449 0.86242 0.0
H1190 H 0.71264 0.08177 0.90176 0.0
C1191 C 0.80944 0.17803 0.89431 0.0
C1192 C 0.77594 0.10757 0.87542 0.0
C1193 C 0.82759 0.20839 0.89269 0.0
C1194 C 0.67237 0.99423 0.87133 0.0
C1195 C 0.69551 0.02313 0.87196 0.0
C1196 C 0.73043 0.08846 0.89451 0.0
C1197 C 0.79641 0.15985 0.88284 0.0
C1198 C 0.77514 0.12799 0.88441 0.0
C1199 C 0.7059 0.0373 0.88465 0.0
C1200 C 0.7306 0.06822 0.88514 0.0
H1201 H 0.82373 0.21192 0.85787 0.0
H1202 H 0.79266 0.15928 0.86069 0.0
H1203 H 0.75107 0.13322 0.90114 0.0
H1204 H 0.659 0.98148 0.90557 0.0
H1205 H 0.69974 0.03191 0.90668 0.0
C1206 C 0.62772 0.82517 0.8946 0.0
C1207 C 0.62265 0.83204 0.88132 0.0
C1208 C 0.63904 0.80632 0.89648 0.0
C1209 C 0.67799 0.77366 0.87861 0.0
H1210 H 0.63329 0.70656 0.90225 0.0
C1211 C 0.68324 0.66812 0.8725 0.0
C1212 C 0.68214 0.65207 0.88421 0.0
C1213 C 0.6787 0.69198 0.87351 0.0
C1214 C 0.64638 0.72538 0.89578 0.0
H1215 H 0.62692 0.82587 0.85963 0.0
H1216 H 0.64709 0.79372 0.86288 0.0
H1217 H 0.62237 0.74645 0.90193 0.0
H1218 H 0.67523 0.6485 0.90621 0.0
H1219 H 0.66761 0.69048 0.90801 0.0
H1220 H 0.70179 0.75264 0.87232 0.0
C1221 C 0.64224 0.80262 0.87186 0.0
C1222 C 0.64011 0.74827 0.89562 0.0
C1223 C 0.63056 0.82099 0.87 0.0
C1224 C 0.6762 0.66038 0.89698 0.0
C1225 C 0.67172 0.68439 0.898 0.0
C1226 C 0.68436 0.75092 0.87884 0.0
C1227 C 0.64601 0.7945 0.8851 0.0
C1228 C 0.65538 0.77233 0.88678 0.0
C1229 C 0.67305 0.7006 0.88627 0.0
C1230 C 0.66815 0.7261 0.88716 0.0
H1231 H 0.62161 0.83317 0.90352 0.0
H1232 H 0.64188 0.80057 0.9068 0.0
H1233 H 0.69045 0.7921 0.87185 0.0
H1234 H 0.68754 0.66224 0.86247 0.0
H1235 H 0.67923 0.70344 0.8642 0.0
C1236 C 0.01429 0.67189 0.89627 0.0
C1237 C 0.02985 0.6789 0.88382 0.0
C1238 C 0.9848 0.66464 0.89653 0.0
C1239 C 0.91995 0.63561 0.87424 0.0
H1240 H 0.88926 0.66818 0.90077 0.0
C1241 C 0.8051 0.61861 0.86745 0.0
C1242 C 0.78691 0.61112 0.87904 0.0
C1243 C 0.83507 0.62919 0.86885 0.0
C1244 C 0.89742 0.65866 0.89339 0.0
H1245 H 0.02665 0.68401 0.86191 0.0
H1246 H 0.97548 0.67127 0.86237 0.0
H1247 H 0.94089 0.68127 0.90186 0.0
H1248 H 0.78615 0.61024 0.90125 0.0
H1249 H 0.83879 0.62833 0.90375 0.0
H1250 H 0.87683 0.61271 0.86582 0.0
C1251 C 0.98594 0.67122 0.87193 0.0
C1252 C 0.92698 0.66616 0.89402 0.0
C1253 C 0.01535 0.67866 0.87168 0.0
C1254 C 0.79967 0.61596 0.89214 0.0
C1255 C 0.82981 0.6263 0.89355 0.0
C1256 C 0.89054 0.62801 0.87366 0.0
C1257 C 0.97024 0.66394 0.88433 0.0
C1258 C 0.93863 0.65503 0.88431 0.0
C1259 C 0.84769 0.63218 0.88188 0.0
C1260 C 0.87894 0.63978 0.88306 0.0
H1261 H 0.02483 0.67191 0.90581 0.0
H1262 H 0.97322 0.65896 0.90623 0.0
H1263 H 0.92808 0.62613 0.8668 0.0
H1264 H 0.79599 0.61552 0.85721 0.0
H1265 H 0.84826 0.63437 0.85965 0.0
C1266 C 0.34809 0.01242 0.89655 0.0
C1267 C 0.35527 0.02832 0.88419 0.0
C1268 C 0.32541 0.98313 0.89698 0.0
C1269 C 0.28484 0.91897 0.87461 0.0
H1270 H 0.22534 0.8894 0.90303 0.0
C1271 C 0.18436 0.80539 0.86927 0.0
C1272 C 0.17515 0.7871 0.88085 0.0
C1273 C 0.2042 0.83528 0.87055 0.0
C1274 C 0.24195 0.89724 0.8951 0.0
H1275 H 0.34417 0.02586 0.86262 0.0
H1276 H 0.30499 0.97502 0.86335 0.0
H1277 H 0.26523 0.94049 0.90376 0.0
H1278 H 0.17828 0.78604 0.90297 0.0
H1279 H 0.21359 0.83853 0.90524 0.0
H1280 H 0.26222 0.87604 0.866 0.0
C1281 C 0.3169 0.98507 0.87271 0.0
C1282 C 0.26479 0.92649 0.89553 0.0
C1283 C 0.33931 0.0143 0.87231 0.0
C1284 C 0.18487 0.79968 0.89388 0.0
C1285 C 0.20514 0.82973 0.89516 0.0
C1286 C 0.26225 0.88986 0.87423 0.0
C1287 C 0.30971 0.96909 0.88502 0.0
C1288 C 0.28625 0.93775 0.88516 0.0
C1289 C 0.2158 0.84769 0.88343 0.0
C1290 C 0.24021 0.87867 0.88433 0.0
H1291 H 0.35994 0.0226 0.9059 0.0
H1292 H 0.32051 0.97132 0.9066 0.0
H1293 H 0.30138 0.92678 0.86664 0.0
H1294 H 0.17698 0.79636 0.85911 0.0
H1295 H 0.21114 0.84855 0.86134 0.0
C1296 C 0.33202 0.33982 0.89654 0.0
C1297 C 0.32349 0.34701 0.88413 0.0
C1298 C 0.33859 0.31715 0.89704 0.0
C1299 C 0.3622 0.27655 0.87467 0.0
H1300 H 0.33387 0.21812 0.90356 0.0
C1301 C 0.37643 0.17695 0.8697 0.0
C1302 C 0.38708 0.16909 0.88118 0.0
C1303 C 0.36565 0.19616 0.87102 0.0
C1304 C 0.34214 0.23442 0.89549 0.0
H1305 H 0.31493 0.33578 0.86256 0.0
H1306 H 0.32635 0.29651 0.86344 0.0
H1307 H 0.32208 0.25758 0.90415 0.0
H1308 H 0.39317 0.1738 0.90319 0.0
H1309 H 0.37458 0.20793 0.90551 0.0
H1310 H 0.38251 0.25396 0.86605 0.0
C1311 C 0.32821 0.30848 0.87277 0.0
C1312 C 0.33542 0.25702 0.89584 0.0
C1313 C 0.32152 0.33094 0.87229 0.0
C1314 C 0.38489 0.17932 0.89419 0.0
C1315 C 0.37433 0.19894 0.8955 0.0
C1316 C 0.36896 0.25416 0.87435 0.0
C1317 C 0.337 0.3014 0.88512 0.0
C1318 C 0.34507 0.2781 0.88531 0.0
C1319 C 0.36563 0.20842 0.88382 0.0
C1320 C 0.35868 0.23252 0.88463 0.0
H1321 H 0.33373 0.35176 0.90586 0.0
H1322 H 0.34549 0.31234 0.90669 0.0
H1323 H 0.37056 0.29281 0.86659 0.0
H1324 H 0.37757 0.16917 0.85956 0.0
H1325 H 0.35829 0.20225 0.86187 0.0
C1326 C 0.99253 0.33421 0.89514 0.0
C1327 C 0.97727 0.32845 0.88263 0.0
C1328 C 0.02147 0.33976 0.89545 0.0
C1329 C 0.08635 0.36519 0.87324 0.0
H1330 H 0.11349 0.33067 0.90054 0.0
C1331 C 0.19902 0.37634 0.86773 0.0
C1332 C 0.21694 0.38442 0.87943 0.0
C1333 C 0.16913 0.36644 0.86888 0.0
C1334 C 0.1063 0.34067 0.89292 0.0
H1335 H 0.98045 0.3238 0.86069 0.0
H1336 H 0.03064 0.33343 0.86125 0.0
H1337 H 0.06272 0.32043 0.90121 0.0
H1338 H 0.21728 0.38681 0.90161 0.0
H1339 H 0.16477 0.36979 0.90366 0.0
H1340 H 0.12964 0.38567 0.865 0.0
C1341 C 0.02041 0.33393 0.8708 0.0
C1342 C 0.07724 0.33483 0.89332 0.0
C1343 C 0.99154 0.32827 0.87049 0.0
C1344 C 0.20394 0.38057 0.89242 0.0
C1345 C 0.17389 0.37088 0.89358 0.0
C1346 C 0.11525 0.37106 0.87288 0.0
C1347 C 0.0358 0.33989 0.88327 0.0
C1348 C 0.06687 0.34678 0.88336 0.0
C1349 C 0.15637 0.36472 0.88176 0.0
C1350 C 0.12555 0.35859 0.88258 0.0
H1351 H 0.98216 0.33448 0.90468 0.0
H1352 H 0.0328 0.34451 0.9052 0.0
H1353 H 0.0793 0.3753 0.86562 0.0
H1354 H 0.20835 0.37875 0.85758 0.0
H1355 H 0.15617 0.36103 0.85959 0.0
C1356 C 0.80106 0.17857 0.61362 0.0
C1357 C 0.78914 0.17202 0.62692 0.0
C1358 C 0.83129 0.19716 0.6117 0.0
C1359 C 0.90307 0.22966 0.62943 0.0
H1360 H 0.92585 0.29608 0.6053 0.0
C1361 C 0.01514 0.33442 0.6345 0.0
C1362 C 0.02983 0.35 0.62264 0.0
C1363 C 0.98652 0.3108 0.63374 0.0
C1364 C 0.92002 0.27744 0.6119 0.0
H1365 H 0.79972 0.1785 0.64859 0.0
H1366 H 0.85217 0.21025 0.64526 0.0
H1367 H 0.8748 0.25666 0.60595 0.0
H1368 H 0.02581 0.35294 0.60064 0.0
H1369 H 0.97584 0.31133 0.59928 0.0
H1370 H 0.94805 0.25037 0.6355 0.0
C1371 C 0.83832 0.20126 0.63631 0.0
C1372 C 0.89072 0.25482 0.61226 0.0
C1373 C 0.8082 0.18314 0.63822 0.0
C1374 C 0.0151 0.34143 0.60998 0.0
C1375 C 0.9864 0.31764 0.60921 0.0
C1376 C 0.93234 0.25212 0.629 0.0
C1377 C 0.85017 0.20907 0.62304 0.0
C1378 C 0.8818 0.23101 0.62127 0.0
C1379 C 0.97176 0.30192 0.62109 0.0
C1380 C 0.94111 0.27669 0.62048 0.0
H1381 H 0.78691 0.17051 0.60471 0.0
H1382 H 0.83983 0.20263 0.60136 0.0
H1383 H 0.89698 0.21139 0.63632 0.0
H1384 H 0.02569 0.34052 0.64444 0.0
H1385 H 0.97581 0.29973 0.64316 0.0
C1386 C 0.62517 0.80689 0.63691 0.0
C1387 C 0.61713 0.78774 0.62565 0.0
C1388 C 0.6374 0.83697 0.63494 0.0
C1389 C 0.63698 0.88948 0.61086 0.0
H1390 H 0.69838 0.94619 0.6345 0.0
C1391 C 0.67499 0.0139 0.60964 0.0
C1392 C 0.68004 0.02772 0.62249 0.0
C1393 C 0.67025 0.98534 0.60857 0.0
C1394 C 0.68107 0.93064 0.62787 0.0
H1395 H 0.61646 0.78526 0.60346 0.0
H1396 H 0.63773 0.83822 0.59998 0.0
H1397 H 0.68635 0.89516 0.635 0.0
H1398 H 0.68359 0.02213 0.64432 0.0
H1399 H 0.67492 0.97249 0.64251 0.0
H1400 H 0.631 0.9248 0.60408 0.0
C1401 C 0.63453 0.82974 0.61034 0.0
C1402 C 0.67429 0.90142 0.62811 0.0
C1403 C 0.62261 0.79951 0.61232 0.0
C1404 C 0.67998 0.01227 0.63424 0.0
C1405 C 0.67523 0.98381 0.63319 0.0
C1406 C 0.64369 0.91877 0.61065 0.0
C1407 C 0.64167 0.84871 0.62165 0.0
C1408 C 0.65171 0.88037 0.61986 0.0
C1409 C 0.67048 0.97 0.62034 0.0
C1410 C 0.66533 0.93956 0.61942 0.0
H1411 H 0.62128 0.79853 0.64731 0.0
H1412 H 0.64235 0.85089 0.64387 0.0
H1413 H 0.61927 0.87372 0.60447 0.0
H1414 H 0.67491 0.02521 0.60038 0.0
H1415 H 0.66681 0.97543 0.59851 0.0
C1416 C 0.66307 0.67343 0.61173 0.0
C1417 C 0.65617 0.6828 0.62397 0.0
C1418 C 0.68602 0.66724 0.61136 0.0
C1419 C 0.72794 0.64583 0.63396 0.0
H1420 H 0.78547 0.6731 0.60469 0.0
C1421 C 0.82724 0.63051 0.63832 0.0
C1422 C 0.8352 0.62038 0.62669 0.0
C1423 C 0.808 0.64132 0.63721 0.0
C1424 C 0.76943 0.66509 0.61287 0.0
H1425 H 0.66811 0.69316 0.64538 0.0
H1426 H 0.70782 0.68224 0.64474 0.0
H1427 H 0.74583 0.6846 0.60412 0.0
H1428 H 0.83049 0.61506 0.60465 0.0
H1429 H 0.79622 0.63351 0.60269 0.0
H1430 H 0.75081 0.62585 0.64264 0.0
C1431 C 0.69546 0.67954 0.63544 0.0
C1432 C 0.74673 0.67168 0.61254 0.0
C1433 C 0.67276 0.68593 0.63579 0.0
C1434 C 0.82491 0.62297 0.61377 0.0
C1435 C 0.80522 0.63348 0.61267 0.0
C1436 C 0.75039 0.63911 0.63425 0.0
C1437 C 0.70231 0.67001 0.62326 0.0
C1438 C 0.72592 0.66236 0.62318 0.0
C1439 C 0.79573 0.6418 0.62447 0.0
C1440 C 0.77169 0.64894 0.62382 0.0
H1441 H 0.65075 0.67083 0.60243 0.0
H1442 H 0.69063 0.65973 0.60185 0.0
H1443 H 0.71191 0.63777 0.64216 0.0
H1444 H 0.83505 0.62902 0.64841 0.0
H1445 H 0.80197 0.64841 0.64646 0.0
C1446 C 0.99349 0.66037 0.61034 0.0
C1447 C 0.97809 0.65259 0.62285 0.0
C1448 C 0.02297 0.68266 0.60986 0.0
C1449 C 0.08819 0.72096 0.63196 0.0
H1450 H 0.11788 0.78198 0.60428 0.0
C1451 C 0.20212 0.82077 0.6378 0.0
C1452 C 0.22046 0.83044 0.62623 0.0
C1453 C 0.1722 0.80104 0.63646 0.0
C1454 C 0.10999 0.76494 0.61199 0.0
H1455 H 0.98167 0.66226 0.64463 0.0
H1456 H 0.03277 0.70078 0.64378 0.0
H1457 H 0.06649 0.74268 0.60354 0.0
H1458 H 0.22148 0.8282 0.60407 0.0
H1459 H 0.16889 0.79318 0.6017 0.0
H1460 H 0.13135 0.74267 0.64038 0.0
C1461 C 0.0222 0.68962 0.63435 0.0
C1462 C 0.08057 0.74243 0.61156 0.0
C1463 C 0.99281 0.66759 0.63482 0.0
C1464 C 0.20784 0.82127 0.61317 0.0
C1465 C 0.17773 0.80115 0.61182 0.0
C1466 C 0.11745 0.74326 0.63235 0.0
C1467 C 0.03771 0.69738 0.6219 0.0
C1468 C 0.06926 0.72044 0.62168 0.0
C1469 C 0.15976 0.79005 0.62352 0.0
C1470 C 0.12868 0.76585 0.62253 0.0
H1471 H 0.98278 0.64926 0.60093 0.0
H1472 H 0.03437 0.688 0.60012 0.0
H1473 H 0.08037 0.70401 0.63972 0.0
H1474 H 0.21113 0.82769 0.64801 0.0
H1475 H 0.15892 0.79373 0.64567 0.0
C1476 C 0.33557 0.99079 0.61124 0.0
C1477 C 0.32847 0.97507 0.62366 0.0
C1478 C 0.34214 0.02007 0.61101 0.0
C1479 C 0.36854 0.08456 0.63349 0.0
H1480 H 0.33602 0.11404 0.60631 0.0
C1481 C 0.38254 0.19839 0.63978 0.0
C1482 C 0.39025 0.21655 0.62818 0.0
C1483 C 0.37253 0.16852 0.63845 0.0
C1484 C 0.34552 0.10623 0.61389 0.0
H1485 H 0.32257 0.97785 0.64552 0.0
H1486 H 0.3341 0.02863 0.6451 0.0
H1487 H 0.32442 0.06289 0.6053 0.0
H1488 H 0.39206 0.21729 0.60598 0.0
H1489 H 0.37493 0.16486 0.6036 0.0
H1490 H 0.38995 0.1276 0.64202 0.0
C1491 C 0.33476 0.01846 0.63556 0.0
C1492 C 0.33888 0.07693 0.6133 0.0
C1493 C 0.32801 0.98925 0.63578 0.0
C1494 C 0.38612 0.2038 0.6151 0.0
C1495 C 0.37635 0.17376 0.61376 0.0
C1496 C 0.37528 0.11373 0.63404 0.0
C1497 C 0.34204 0.0343 0.6232 0.0
C1498 C 0.35002 0.06569 0.62323 0.0
C1499 C 0.37034 0.15595 0.62546 0.0
C1500 C 0.36353 0.12491 0.62439 0.0
H1501 H 0.33608 0.98051 0.60171 0.0
H1502 H 0.34784 0.03174 0.60134 0.0
H1503 H 0.37802 0.07681 0.64111 0.0
H1504 H 0.38514 0.20749 0.65 0.0
H1505 H 0.36723 0.15538 0.64767 0.0
C1506 C 0.18187 0.38371 0.61277 0.0
C1507 C 0.17515 0.38911 0.62603 0.0
C1508 C 0.20042 0.372 0.61097 0.0
C1509 C 0.23193 0.33226 0.62909 0.0
H1510 H 0.2988 0.37472 0.60505 0.0
C1511 C 0.33595 0.32408 0.63509 0.0
C1512 C 0.35138 0.32411 0.62334 0.0
C1513 C 0.31257 0.3294 0.63409 0.0
C1514 C 0.28003 0.36226 0.61164 0.0
H1515 H 0.18141 0.38512 0.64774 0.0
H1516 H 0.2131 0.36441 0.64461 0.0
H1517 H 0.25983 0.38701 0.60534 0.0
H1518 H 0.35434 0.32992 0.60126 0.0
H1519 H 0.31322 0.33892 0.59949 0.0
H1520 H 0.25208 0.30775 0.63554 0.0
C1521 C 0.20427 0.36926 0.6356 0.0
C1522 C 0.25766 0.36931 0.61179 0.0
C1523 C 0.1862 0.38129 0.63739 0.0
C1524 C 0.34293 0.32976 0.61053 0.0
C1525 C 0.31943 0.33504 0.60952 0.0
C1526 C 0.25413 0.32513 0.62889 0.0
C1527 C 0.2121 0.36499 0.62239 0.0
C1528 C 0.23371 0.35485 0.62077 0.0
C1529 C 0.30384 0.33479 0.6213 0.0
C1530 C 0.27886 0.34052 0.62042 0.0
H1531 H 0.17384 0.38968 0.60382 0.0
H1532 H 0.20594 0.36879 0.60066 0.0
H1533 H 0.21353 0.3204 0.63597 0.0
H1534 H 0.34194 0.32002 0.64514 0.0
H1535 H 0.30158 0.32966 0.64343 0.0
C1536 C 0.43085 0.11326 0.05625 0.0
C1537 C 0.45753 0.11993 0.06252 0.0
C1538 C 0.42705 0.10817 0.04206 0.0
C1539 C 0.47301 0.12918 0.01117 0.0
H1540 H 0.40286 0.0729 0.99184 0.0
C1541 C 0.47709 0.11802 0.95355 0.0
C1542 C 0.45485 0.1184 0.94581 0.0
C1543 C 0.47379 0.11285 0.96762 0.0
C1544 C 0.42251 0.08882 0.99713 0.0
H1545 H 0.50008 0.12415 0.05912 0.0
H1546 H 0.49326 0.11461 0.03462 0.0
H1547 H 0.40349 0.07342 0.01707 0.0
H1548 H 0.41097 0.11207 0.94658 0.0
H1549 H 0.40529 0.10341 0.97143 0.0
H1550 H 0.49205 0.14497 0.9915 0.0
C1551 C 0.47558 0.11414 0.04048 0.0
C1552 C 0.42288 0.08912 0.01155 0.0
C1553 C 0.47944 0.11946 0.05454 0.0
C1554 C 0.42837 0.11165 0.9523 0.0
C1555 C 0.42516 0.10675 0.96652 0.0
C1556 C 0.47265 0.12888 0.99689 0.0
C1557 C 0.44985 0.10959 0.03396 0.0
C1558 C 0.44835 0.10907 0.01871 0.0
C1559 C 0.44834 0.10842 0.97439 0.0
C1560 C 0.44762 0.10846 0.98966 0.0
H1561 H 0.41366 0.11373 0.06213 0.0
H1562 H 0.40699 0.10477 0.03733 0.0
H1563 H 0.49268 0.14547 0.01632 0.0
H1564 H 0.4976 0.12285 0.94877 0.0
H1565 H 0.49175 0.11349 0.97332 0.0
C1566 C 0.31995 0.41835 0.05606 0.0
C1567 C 0.31042 0.43734 0.06087 0.0
C1568 C 0.31665 0.41022 0.04217 0.0
C1569 C 0.27588 0.40764 0.01071 0.0
H1570 H 0.34598 0.42286 0.99096 0.0
C1571 C 0.2964 0.44615 0.95526 0.0
C1572 C 0.31003 0.43611 0.94612 0.0
C1573 C 0.29273 0.43793 0.96902 0.0
C1574 C 0.32602 0.41783 0.99634 0.0
H1575 H 0.28917 0.46186 0.05505 0.0
H1576 H 0.28322 0.44759 0.03107 0.0
H1577 H 0.34616 0.42324 0.01607 0.0
H1578 H 0.33036 0.4093 0.94423 0.0
H1579 H 0.32425 0.39511 0.96856 0.0
H1580 H 0.25614 0.4036 0.99106 0.0
C1581 C 0.29315 0.43886 0.03793 0.0
C1582 C 0.32612 0.41806 0.01072 0.0
C1583 C 0.29681 0.44726 0.05166 0.0
C1584 C 0.31948 0.41712 0.95101 0.0
C1585 C 0.31618 0.40918 0.96493 0.0
C1586 C 0.27577 0.40741 0.9964 0.0
C1587 C 0.30331 0.42054 0.03296 0.0
C1588 C 0.30142 0.41415 0.01803 0.0
C1589 C 0.30291 0.41969 0.97408 0.0
C1590 C 0.3012 0.41369 0.98905 0.0
H1591 H 0.33083 0.41061 0.06289 0.0
H1592 H 0.32473 0.3961 0.03862 0.0
H1593 H 0.25633 0.40399 0.01607 0.0
H1594 H 0.28884 0.46076 0.95179 0.0
H1595 H 0.28284 0.44679 0.97581 0.0
C1596 C 0.89233 0.35446 0.05207 0.0
C1597 C 0.89206 0.33334 0.06093 0.0
C1598 C 0.90081 0.35605 0.0384 0.0
C1599 C 0.90084 0.30957 0.01081 0.0
H1600 H 0.94105 0.38346 0.99125 0.0
C1601 C 0.9024 0.3151 0.95136 0.0
C1602 C 0.89298 0.33406 0.94637 0.0
C1603 C 0.91047 0.31634 0.96517 0.0
C1604 C 0.92991 0.36263 0.99656 0.0
H1605 H 0.90112 0.29762 0.06246 0.0
H1606 H 0.91587 0.30028 0.03839 0.0
H1607 H 0.94074 0.38325 0.01628 0.0
H1608 H 0.88606 0.37001 0.95171 0.0
H1609 H 0.90028 0.37237 0.97558 0.0
H1610 H 0.88887 0.28904 0.99106 0.0
C1611 C 0.90961 0.31572 0.04212 0.0
C1612 C 0.92972 0.36251 0.01089 0.0
C1613 C 0.90142 0.31437 0.05592 0.0
C1614 C 0.89318 0.35511 0.95526 0.0
C1615 C 0.90156 0.35659 0.96893 0.0
C1616 C 0.90102 0.30969 0.99644 0.0
C1617 C 0.90898 0.33634 0.03317 0.0
C1618 C 0.91424 0.33606 0.01818 0.0
C1619 C 0.90968 0.33683 0.97416 0.0
C1620 C 0.91461 0.3363 0.98916 0.0
H1621 H 0.88525 0.3694 0.05563 0.0
H1622 H 0.89965 0.37192 0.03178 0.0
H1623 H 0.88855 0.28883 0.0161 0.0
H1624 H 0.90215 0.29842 0.94479 0.0
H1625 H 0.9167 0.30088 0.96889 0.0
C1626 C 0.59363 0.89969 0.95137 0.0
C1627 C 0.56568 0.89117 0.94604 0.0
C1628 C 0.59976 0.9069 0.9653 0.0
C1629 C 0.57203 0.92591 0.99653 0.0
H1630 H 0.60364 0.88405 0.01626 0.0
C1631 C 0.5431 0.89036 0.05242 0.0
C1632 C 0.56398 0.89007 0.06126 0.0
C1633 C 0.54966 0.89804 0.03865 0.0
C1634 C 0.59538 0.89644 0.01092 0.0
H1635 H 0.52281 0.88486 0.95098 0.0
H1636 H 0.53347 0.89755 0.97506 0.0
H1637 H 0.60406 0.88439 0.99121 0.0
H1638 H 0.60851 0.89817 0.06259 0.0
H1639 H 0.62003 0.91158 0.03837 0.0
H1640 H 0.56225 0.93696 0.01619 0.0
C1641 C 0.55074 0.8988 0.96857 0.0
C1642 C 0.59562 0.89664 0.99654 0.0
C1643 C 0.54454 0.8913 0.95477 0.0
C1644 C 0.59204 0.89853 0.05609 0.0
C1645 C 0.59854 0.90593 0.04219 0.0
C1646 C 0.57179 0.92571 0.01087 0.0
C1647 C 0.5782 0.90611 0.97411 0.0
C1648 C 0.58301 0.91051 0.98919 0.0
C1649 C 0.57725 0.90538 0.03327 0.0
C1650 C 0.58251 0.91012 0.01823 0.0
H1651 H 0.61028 0.89945 0.94495 0.0
H1652 H 0.62117 0.91254 0.96925 0.0
H1653 H 0.56266 0.93729 0.99118 0.0
H1654 H 0.5213 0.88397 0.05609 0.0
H1655 H 0.53259 0.89695 0.03207 0.0
C1656 C 0.70669 0.55156 0.05104 0.0
C1657 C 0.69279 0.56126 0.0602 0.0
C1658 C 0.71057 0.56011 0.03733 0.0
C1659 C 0.67761 0.58074 0.01004 0.0
H1660 H 0.74759 0.59496 0.99046 0.0
C1661 C 0.68429 0.58094 0.95035 0.0
C1662 C 0.6936 0.56176 0.94556 0.0
C1663 C 0.68762 0.58909 0.96423 0.0
C1664 C 0.72796 0.59122 0.99578 0.0
H1665 H 0.6722 0.58782 0.06216 0.0
H1666 H 0.6787 0.6026 0.03791 0.0
H1667 H 0.74741 0.59488 0.01547 0.0
H1668 H 0.71458 0.53701 0.95139 0.0
H1669 H 0.72066 0.55136 0.97536 0.0
H1670 H 0.65776 0.57572 0.99026 0.0
C1671 C 0.68681 0.58853 0.0415 0.0
C1672 C 0.72786 0.59117 0.01009 0.0
C1673 C 0.68328 0.58025 0.05537 0.0
C1674 C 0.70713 0.55175 0.95477 0.0
C1675 C 0.71084 0.5602 0.9685 0.0
C1676 C 0.67772 0.58082 0.99566 0.0
C1677 C 0.70036 0.57836 0.03232 0.0
C1678 C 0.70232 0.58472 0.01738 0.0
C1679 C 0.7008 0.57862 0.97346 0.0
C1680 C 0.70254 0.58486 0.9884 0.0
H1681 H 0.71432 0.53697 0.05445 0.0
H1682 H 0.72066 0.55149 0.03051 0.0
H1683 H 0.65756 0.5756 0.01537 0.0
H1684 H 0.67349 0.58875 0.94351 0.0
H1685 H 0.67965 0.6033 0.96778 0.0
C1686 C 0.11589 0.65178 0.05295 0.0
C1687 C 0.1155 0.67285 0.06163 0.0
C1688 C 0.10849 0.65029 0.03912 0.0
C1689 C 0.10971 0.69677 0.01107 0.0
H1690 H 0.0711 0.62293 0.99142 0.0
C1691 C 0.10789 0.69117 0.95153 0.0
C1692 C 0.11728 0.67232 0.94637 0.0
C1693 C 0.1004 0.69004 0.96542 0.0
C1694 C 0.08186 0.64375 0.99675 0.0
H1695 H 0.1064 0.70861 0.06259 0.0
H1696 H 0.09343 0.70603 0.03827 0.0
H1697 H 0.0706 0.62303 0.01644 0.0
H1698 H 0.12493 0.63675 0.95157 0.0
H1699 H 0.11175 0.63463 0.97559 0.0
H1700 H 0.12193 0.71742 0.99134 0.0
C1701 C 0.09943 0.69059 0.04227 0.0
C1702 C 0.08158 0.64381 0.01108 0.0
C1703 C 0.10657 0.69188 0.05622 0.0
C1704 C 0.11782 0.65159 0.95523 0.0
C1705 C 0.11004 0.65023 0.969 0.0
C1706 C 0.10996 0.69671 0.99669 0.0
C1707 C 0.10073 0.67003 0.03352 0.0
C1708 C 0.09638 0.67026 0.01843 0.0
C1709 C 0.10177 0.66978 0.97435 0.0
C1710 C 0.09691 0.67014 0.98938 0.0
H1711 H 0.12264 0.63679 0.0568 0.0
H1712 H 0.11015 0.63445 0.03268 0.0
H1713 H 0.1215 0.71753 0.01639 0.0
H1714 H 0.10759 0.70765 0.94501 0.0
H1715 H 0.09404 0.70534 0.96924 0.0
C1716 C 0.88543 0.53058 0.55374 0.0
C1717 C 0.88611 0.55333 0.56148 0.0
C1718 C 0.8907 0.53374 0.53967 0.0
C1719 C 0.91699 0.58513 0.51023 0.0
H1720 H 0.85817 0.51642 0.49092 0.0
C1721 C 0.89319 0.57866 0.45113 0.0
C1722 C 0.88501 0.55168 0.44479 0.0
C1723 C 0.89831 0.58206 0.46533 0.0
C1724 C 0.87507 0.53566 0.4961 0.0
H1725 H 0.89446 0.59793 0.56072 0.0
H1726 H 0.90333 0.60339 0.53589 0.0
H1727 H 0.85857 0.51685 0.51574 0.0
H1728 H 0.87814 0.50806 0.44804 0.0
H1729 H 0.88779 0.51417 0.47255 0.0
H1730 H 0.93314 0.60394 0.49033 0.0
C1731 C 0.89905 0.58321 0.54079 0.0
C1732 C 0.8753 0.5359 0.51038 0.0
C1733 C 0.89402 0.58011 0.555 0.0
C1734 C 0.88402 0.52896 0.45268 0.0
C1735 C 0.8894 0.53243 0.46674 0.0
C1736 C 0.91677 0.58488 0.49581 0.0
C1737 C 0.89634 0.5596 0.53291 0.0
C1738 C 0.89646 0.56042 0.51765 0.0
C1739 C 0.89544 0.55857 0.47335 0.0
C1740 C 0.89601 0.55991 0.48861 0.0
H1741 H 0.87972 0.50983 0.5585 0.0
H1742 H 0.88922 0.51542 0.53396 0.0
H1743 H 0.9335 0.60439 0.51555 0.0
H1744 H 0.89386 0.59647 0.44531 0.0
H1745 H 0.90288 0.60245 0.47011 0.0
C1746 C 0.35692 0.88954 0.55167 0.0
C1747 C 0.3359 0.88965 0.56048 0.0
C1748 C 0.35848 0.89762 0.53794 0.0
C1749 C 0.31211 0.89756 0.51017 0.0
H1750 H 0.38604 0.93724 0.49061 0.0
C1751 C 0.31762 0.9004 0.45066 0.0
C1752 C 0.33668 0.89134 0.44543 0.0
C1753 C 0.31878 0.90782 0.46457 0.0
C1754 C 0.36519 0.92619 0.49591 0.0
H1755 H 0.30031 0.89896 0.56183 0.0
H1756 H 0.30294 0.91304 0.53765 0.0
H1757 H 0.38585 0.93683 0.51563 0.0
H1758 H 0.37271 0.88429 0.45051 0.0
H1759 H 0.37488 0.89733 0.47455 0.0
H1760 H 0.29151 0.88586 0.49042 0.0
C1761 C 0.31832 0.90678 0.54147 0.0
C1762 C 0.36508 0.92596 0.51025 0.0
C1763 C 0.31699 0.89899 0.55534 0.0
C1764 C 0.3577 0.89115 0.45422 0.0
C1765 C 0.35909 0.89885 0.468 0.0
C1766 C 0.31221 0.89779 0.4958 0.0
C1767 C 0.33884 0.90577 0.53258 0.0
C1768 C 0.33861 0.91076 0.51755 0.0
C1769 C 0.33927 0.90669 0.47344 0.0
C1770 C 0.33882 0.91122 0.4885 0.0
H1771 H 0.3718 0.88247 0.55533 0.0
H1772 H 0.37428 0.89618 0.53137 0.0
H1773 H 0.29133 0.88548 0.51547 0.0
H1774 H 0.30093 0.90043 0.44419 0.0
H1775 H 0.30328 0.91387 0.46844 0.0
C1776 C 0.44815 0.29511 0.55248 0.0
C1777 C 0.43865 0.30914 0.56166 0.0
C1778 C 0.43932 0.29108 0.5388 0.0
C1779 C 0.41891 0.32404 0.51154 0.0
H1780 H 0.40263 0.25322 0.49217 0.0
C1781 C 0.41859 0.31712 0.4519 0.0
C1782 C 0.43688 0.3067 0.44712 0.0
C1783 C 0.41038 0.31398 0.46578 0.0
C1784 C 0.40696 0.2731 0.49742 0.0
H1785 H 0.41221 0.32983 0.56373 0.0
H1786 H 0.39703 0.32317 0.53952 0.0
H1787 H 0.40323 0.25386 0.51718 0.0
H1788 H 0.45987 0.28389 0.45293 0.0
H1789 H 0.44549 0.27824 0.47687 0.0
H1790 H 0.42415 0.34371 0.49172 0.0
C1791 C 0.4111 0.31503 0.54306 0.0
C1792 C 0.40729 0.27345 0.51174 0.0
C1793 C 0.41961 0.31865 0.5569 0.0
C1794 C 0.44583 0.29221 0.45631 0.0
C1795 C 0.43735 0.28874 0.47003 0.0
C1796 C 0.41864 0.3237 0.49716 0.0
C1797 C 0.42104 0.30132 0.53386 0.0
C1798 C 0.41444 0.29925 0.51895 0.0
C1799 C 0.41991 0.29994 0.475 0.0
C1800 C 0.41386 0.29857 0.48997 0.0
H1801 H 0.46279 0.28751 0.55585 0.0
H1802 H 0.44774 0.28085 0.53195 0.0
H1803 H 0.4246 0.34428 0.51682 0.0
H1804 H 0.41161 0.32866 0.44508 0.0
H1805 H 0.39692 0.32284 0.46933 0.0
C1806 C 0.11333 0.42596 0.55525 0.0
C1807 C 0.11949 0.45231 0.56169 0.0
C1808 C 0.10856 0.42258 0.54102 0.0
C1809 C 0.12992 0.46959 0.5105 0.0
H1810 H 0.07459 0.40007 0.49051 0.0
C1811 C 0.11973 0.47587 0.45289 0.0
C1812 C 0.12025 0.45399 0.44491 0.0
C1813 C 0.11454 0.47204 0.46695 0.0
C1814 C 0.09027 0.41955 0.49598 0.0
H1815 H 0.12307 0.49464 0.55857 0.0
H1816 H 0.11408 0.48853 0.53402 0.0
H1817 H 0.07445 0.39966 0.51574 0.0
H1818 H 0.11419 0.41021 0.44528 0.0
H1819 H 0.10548 0.40361 0.47011 0.0
H1820 H 0.14611 0.48951 0.49102 0.0
C1821 C 0.11376 0.4708 0.53977 0.0
C1822 C 0.09018 0.41932 0.5104 0.0
C1823 C 0.11875 0.47425 0.55386 0.0
C1824 C 0.11368 0.42736 0.45117 0.0
C1825 C 0.10874 0.42361 0.46538 0.0
C1826 C 0.13001 0.46982 0.49622 0.0
C1827 C 0.10981 0.44547 0.53307 0.0
C1828 C 0.10976 0.44456 0.5178 0.0
C1829 C 0.11019 0.44641 0.47349 0.0
C1830 C 0.10994 0.44503 0.48875 0.0
H1831 H 0.114 0.40877 0.56102 0.0
H1832 H 0.10559 0.40281 0.53616 0.0
H1833 H 0.14594 0.48911 0.51585 0.0
H1834 H 0.12438 0.49647 0.4483 0.0
H1835 H 0.115 0.48972 0.47282 0.0
C1836 C 0.64938 0.1204 0.45314 0.0
C1837 C 0.67131 0.1197 0.44527 0.0
C1838 C 0.6477 0.11545 0.46724 0.0
C1839 C 0.67364 0.0896 0.49653 0.0
H1840 H 0.66285 0.14756 0.51606 0.0
C1841 C 0.69059 0.11263 0.55575 0.0
C1842 C 0.67144 0.1203 0.56213 0.0
C1843 C 0.68904 0.10778 0.54152 0.0
C1844 C 0.66546 0.1309 0.51082 0.0
H1845 H 0.70786 0.11177 0.44591 0.0
H1846 H 0.70517 0.10344 0.47077 0.0
H1847 H 0.66281 0.14741 0.49124 0.0
H1848 H 0.63427 0.12654 0.55891 0.0
H1849 H 0.63105 0.11738 0.53436 0.0
H1850 H 0.67661 0.07342 0.51638 0.0
C1851 C 0.68904 0.10748 0.46593 0.0
C1852 C 0.66544 0.13082 0.49654 0.0
C1853 C 0.69056 0.11221 0.4517 0.0
C1854 C 0.64956 0.12105 0.55424 0.0
C1855 C 0.64784 0.11596 0.54015 0.0
C1856 C 0.67365 0.08967 0.51095 0.0
C1857 C 0.6682 0.1101 0.47391 0.0
C1858 C 0.66909 0.10995 0.48918 0.0
C1859 C 0.66825 0.11043 0.53351 0.0
C1860 C 0.66911 0.11011 0.51824 0.0
H1861 H 0.63402 0.12575 0.44844 0.0
H1862 H 0.63087 0.11685 0.47301 0.0
H1863 H 0.67659 0.07329 0.49116 0.0
H1864 H 0.70784 0.11215 0.56157 0.0
H1865 H 0.7051 0.10359 0.53672 0.0
C1866 C 0.54235 0.65026 0.45521 0.0
C1867 C 0.56306 0.67163 0.44638 0.0
C1868 C 0.54919 0.64892 0.46891 0.0
C1869 C 0.59467 0.69624 0.49657 0.0
H1870 H 0.56219 0.62264 0.51629 0.0
C1871 C 0.5905 0.69113 0.55607 0.0
C1872 C 0.56234 0.67148 0.56111 0.0
C1873 C 0.5974 0.69012 0.54225 0.0
C1874 C 0.57151 0.6434 0.51094 0.0
H1875 H 0.60757 0.70801 0.44492 0.0
H1876 H 0.61957 0.70581 0.46907 0.0
H1877 H 0.56239 0.62263 0.49127 0.0
H1878 H 0.51991 0.6346 0.55583 0.0
H1879 H 0.53188 0.63268 0.53193 0.0
H1880 H 0.60257 0.7169 0.51627 0.0
C1881 C 0.59803 0.68998 0.46529 0.0
C1882 C 0.57164 0.64339 0.49661 0.0
C1883 C 0.59125 0.69108 0.45145 0.0
C1884 C 0.54178 0.65006 0.55225 0.0
C1885 C 0.54874 0.64882 0.53855 0.0
C1886 C 0.59454 0.69625 0.51094 0.0
C1887 C 0.57686 0.66915 0.47422 0.0
C1888 C 0.58221 0.66971 0.48925 0.0
C1889 C 0.5764 0.66919 0.53329 0.0
C1890 C 0.58194 0.66973 0.51828 0.0
H1891 H 0.52044 0.63498 0.4516 0.0
H1892 H 0.53222 0.63285 0.47552 0.0
H1893 H 0.6028 0.71688 0.49122 0.0
H1894 H 0.60672 0.70812 0.56261 0.0
H1895 H 0.61894 0.70606 0.5385 0.0
C1896 C 0.42705 0.14609 0.21666 0.0
C1897 C 0.42823 0.15866 0.20378 0.0
C1898 C 0.42874 0.16107 0.22877 0.0
C1899 C 0.41683 0.21961 0.24234 0.0
H1900 H 0.46193 0.21772 0.27336 0.0
C1901 C 0.4337 0.28876 0.29092 0.0
C1902 C 0.43169 0.27548 0.3037 0.0
C1903 C 0.43461 0.27527 0.27874 0.0
C1904 C 0.449 0.21822 0.26484 0.0
H1905 H 0.43135 0.19688 0.19368 0.0
H1906 H 0.4349 0.22311 0.21476 0.0
H1907 H 0.46117 0.19298 0.25208 0.0
H1908 H 0.42839 0.23696 0.31353 0.0
H1909 H 0.43005 0.21356 0.29231 0.0
H1910 H 0.40447 0.24464 0.2551 0.0
C1911 C 0.43263 0.20158 0.21547 0.0
C1912 C 0.44857 0.20405 0.25263 0.0
C1913 C 0.43101 0.18663 0.20335 0.0
C1914 C 0.43069 0.2483 0.30396 0.0
C1915 C 0.43156 0.23478 0.29175 0.0
C1916 C 0.41724 0.23375 0.25454 0.0
C1917 C 0.43145 0.18896 0.22833 0.0
C1918 C 0.43243 0.20452 0.24124 0.0
C1919 C 0.43335 0.24801 0.27898 0.0
C1920 C 0.43328 0.23321 0.26595 0.0
H1921 H 0.42488 0.1246 0.21741 0.0
H1922 H 0.42736 0.15052 0.23849 0.0
H1923 H 0.40377 0.22 0.23386 0.0
H1924 H 0.43469 0.30974 0.29031 0.0
H1925 H 0.43645 0.28631 0.26911 0.0
C1926 C 0.25951 0.40201 0.21273 0.0
C1927 C 0.2695 0.42441 0.20287 0.0
C1928 C 0.24674 0.404 0.22494 0.0
C1929 C 0.21195 0.44265 0.24118 0.0
H1930 H 0.22713 0.41265 0.27461 0.0
C1931 C 0.14515 0.42537 0.29076 0.0
C1932 C 0.15952 0.43068 0.30349 0.0
C1933 C 0.15961 0.42646 0.27856 0.0
C1934 C 0.2229 0.42148 0.26543 0.0
H1935 H 0.27457 0.46703 0.19837 0.0
H1936 H 0.25251 0.4706 0.2197 0.0
H1937 H 0.25074 0.41162 0.25338 0.0
H1938 H 0.20082 0.44089 0.31315 0.0
H1939 H 0.22612 0.44386 0.29194 0.0
H1940 H 0.18465 0.45317 0.25333 0.0
C1941 C 0.25389 0.45109 0.21784 0.0
C1942 C 0.23613 0.42048 0.25317 0.0
C1943 C 0.26651 0.44901 0.20556 0.0
C1944 C 0.18894 0.43728 0.30364 0.0
C1945 C 0.20345 0.43853 0.29142 0.0
C1946 C 0.19882 0.44379 0.25347 0.0
C1947 C 0.2439 0.42863 0.22771 0.0
C1948 C 0.23062 0.43078 0.24085 0.0
C1949 C 0.18892 0.43295 0.27872 0.0
C1950 C 0.20392 0.43298 0.26574 0.0
H1951 H 0.26131 0.38269 0.21097 0.0
H1952 H 0.23883 0.38601 0.23215 0.0
H1953 H 0.20699 0.45058 0.2319 0.0
H1954 H 0.12253 0.42018 0.29016 0.0
H1955 H 0.14751 0.42156 0.26902 0.0
C1956 C 0.82325 0.26949 0.20621 0.0
C1957 C 0.85134 0.27388 0.20335 0.0
C1958 C 0.80904 0.25632 0.21851 0.0
C1959 C 0.82351 0.23884 0.25365 0.0
H1960 H 0.73967 0.1851 0.25391 0.0
C1961 C 0.76043 0.18911 0.30415 0.0
C1962 C 0.73797 0.15953 0.30391 0.0
C1963 C 0.77346 0.20401 0.29197 0.0
C1964 C 0.76314 0.19988 0.25402 0.0
H1965 H 0.88636 0.26772 0.21119 0.0
H1966 H 0.86141 0.24423 0.23242 0.0
H1967 H 0.76398 0.20837 0.23251 0.0
H1968 H 0.71197 0.12267 0.29042 0.0
H1969 H 0.73521 0.14831 0.26937 0.0
H1970 H 0.8229 0.22949 0.27502 0.0
C1971 C 0.85054 0.25147 0.22532 0.0
C1972 C 0.77705 0.21356 0.24175 0.0
C1973 C 0.86481 0.26481 0.21309 0.0
C1974 C 0.7291 0.1454 0.29111 0.0
C1975 C 0.74226 0.16024 0.27896 0.0
C1976 C 0.80964 0.22502 0.26589 0.0
C1977 C 0.8225 0.24714 0.22824 0.0
C1978 C 0.80747 0.23311 0.24138 0.0
C1979 C 0.76468 0.18974 0.27921 0.0
C1980 C 0.77928 0.20523 0.26624 0.0
H1981 H 0.81245 0.27683 0.19912 0.0
H1982 H 0.78771 0.25386 0.2205 0.0
H1983 H 0.84688 0.25409 0.25383 0.0
H1984 H 0.76856 0.20087 0.3137 0.0
H1985 H 0.79047 0.2268 0.29258 0.0
C1986 C 0.57696 0.8149 0.20301 0.0
C1987 C 0.57917 0.84263 0.20341 0.0
C1988 C 0.57486 0.79978 0.21516 0.0
C1989 C 0.55677 0.79632 0.25218 0.0
H1990 H 0.60233 0.75738 0.25543 0.0
C1991 C 0.57334 0.75272 0.30407 0.0
C1992 C 0.57338 0.72603 0.30397 0.0
C1993 C 0.57271 0.76611 0.29176 0.0
C1994 C 0.58914 0.76778 0.25466 0.0
H1995 H 0.58081 0.87597 0.21702 0.0
H1996 H 0.57745 0.84977 0.23811 0.0
H1997 H 0.60329 0.78174 0.23405 0.0
H1998 H 0.57247 0.69252 0.29073 0.0
H1999 H 0.57108 0.71566 0.26938 0.0
H2000 H 0.5427 0.78244 0.27282 0.0
C2001 C 0.57694 0.83954 0.2284 0.0
C2002 C 0.5897 0.78177 0.24237 0.0
C2003 C 0.57913 0.85469 0.21628 0.0
C2004 C 0.57264 0.71313 0.29124 0.0
C2005 C 0.57196 0.72647 0.27896 0.0
C2006 C 0.55617 0.78228 0.26447 0.0
C2007 C 0.57493 0.81195 0.22801 0.0
C2008 C 0.57361 0.79632 0.24098 0.0
C2009 C 0.57217 0.75324 0.27903 0.0
C2010 C 0.57242 0.76789 0.26589 0.0
H2011 H 0.5775 0.80503 0.19337 0.0
H2012 H 0.57315 0.77848 0.21447 0.0
H2013 H 0.54378 0.80695 0.25142 0.0
H2014 H 0.57463 0.7638 0.3136 0.0
H2015 H 0.5734 0.78696 0.29222 0.0
C2016 C 0.73478 0.55127 0.20561 0.0
C2017 C 0.73136 0.57553 0.20271 0.0
C2018 C 0.74773 0.54985 0.21791 0.0
C2019 C 0.76602 0.58202 0.25297 0.0
H2020 H 0.81807 0.55 0.25341 0.0
C2021 C 0.81517 0.56855 0.30357 0.0
C2022 C 0.84464 0.5753 0.30332 0.0
C2023 C 0.80022 0.56646 0.29138 0.0
C2024 C 0.80375 0.55921 0.25347 0.0
H2025 H 0.73909 0.61735 0.21045 0.0
H2026 H 0.76218 0.6152 0.23168 0.0
H2027 H 0.79506 0.55137 0.23198 0.0
H2028 H 0.8812 0.58512 0.28981 0.0
H2029 H 0.85546 0.58232 0.26873 0.0
H2030 H 0.77559 0.59095 0.27432 0.0
C2031 C 0.75433 0.59695 0.22462 0.0
C2032 C 0.79022 0.55964 0.24119 0.0
C2033 C 0.74122 0.59827 0.21239 0.0
C2034 C 0.85857 0.57985 0.2905 0.0
C2035 C 0.84367 0.57794 0.27834 0.0
C2036 C 0.77967 0.58175 0.26522 0.0
C2037 C 0.75763 0.57266 0.22759 0.0
C2038 C 0.77134 0.57126 0.24075 0.0
C2039 C 0.81432 0.57135 0.2786 0.0
C2040 C 0.79887 0.57051 0.26563 0.0
H2041 H 0.72683 0.53301 0.19856 0.0
H2042 H 0.74944 0.53058 0.21994 0.0
H2043 H 0.75126 0.5907 0.25311 0.0
H2044 H 0.80359 0.56548 0.31313 0.0
H2045 H 0.77754 0.56105 0.29199 0.0
C2046 C 0.15372 0.76006 0.21012 0.0
C2047 C 0.16235 0.74344 0.20217 0.0
C2048 C 0.16881 0.77386 0.22213 0.0
C2049 C 0.21045 0.76819 0.25014 0.0
H2050 H 0.2404 0.85129 0.2553 0.0
C2051 C 0.27439 0.82878 0.29926 0.0
C2052 C 0.27148 0.85236 0.30401 0.0
C2053 C 0.26234 0.81551 0.28663 0.0
C2054 C 0.23176 0.82796 0.2542 0.0
H2055 H 0.19316 0.72768 0.20075 0.0
H2056 H 0.21912 0.75128 0.22206 0.0
H2057 H 0.21693 0.82817 0.23373 0.0
H2058 H 0.25312 0.88005 0.29943 0.0
H2059 H 0.23089 0.85618 0.27785 0.0
H2060 H 0.22386 0.76742 0.27076 0.0
C2061 C 0.20097 0.75396 0.21878 0.0
C2062 C 0.21855 0.81482 0.24175 0.0
C2063 C 0.18627 0.74067 0.20657 0.0
C2064 C 0.25592 0.86207 0.29598 0.0
C2065 C 0.24339 0.84848 0.28351 0.0
C2066 C 0.22315 0.7812 0.26272 0.0
C2067 C 0.19241 0.77075 0.22664 0.0
C2068 C 0.20767 0.78481 0.23962 0.0
C2069 C 0.24667 0.8252 0.27854 0.0
C2070 C 0.23384 0.81129 0.26498 0.0
H2071 H 0.13536 0.76254 0.20699 0.0
H2072 H 0.16167 0.78654 0.22805 0.0
H2073 H 0.20198 0.74493 0.24877 0.0
H2074 H 0.2867 0.82111 0.30512 0.0
H2075 H 0.26587 0.79805 0.28312 0.0
C2076 C 0.57923 0.75829 0.70321 0.0
C2077 C 0.58083 0.73243 0.70306 0.0
C2078 C 0.57793 0.77092 0.71563 0.0
C2079 C 0.59483 0.7726 0.75267 0.0
H2080 H 0.54571 0.80762 0.75629 0.0
C2081 C 0.57986 0.81713 0.80454 0.0
C2082 C 0.5807 0.84423 0.80418 0.0
C2083 C 0.57843 0.80234 0.79237 0.0
C2084 C 0.55973 0.79814 0.75542 0.0
H2085 H 0.58218 0.69965 0.71599 0.0
H2086 H 0.57964 0.72147 0.73757 0.0
H2087 H 0.54597 0.78417 0.73477 0.0
H2088 H 0.58056 0.8768 0.79064 0.0
H2089 H 0.57832 0.85119 0.76951 0.0
H2090 H 0.60865 0.78666 0.7733 0.0
C2091 C 0.57977 0.73221 0.72808 0.0
C2092 C 0.55991 0.78472 0.74306 0.0
C2093 C 0.58112 0.71963 0.71567 0.0
C2094 C 0.57994 0.856 0.79134 0.0
C2095 C 0.57839 0.84118 0.7792 0.0
C2096 C 0.5946 0.78596 0.76503 0.0
C2097 C 0.57827 0.75809 0.72824 0.0
C2098 C 0.57758 0.77189 0.74149 0.0
C2099 C 0.57777 0.81423 0.77954 0.0
C2100 C 0.57716 0.79905 0.76654 0.0
H2101 H 0.57971 0.76931 0.69376 0.0
H2102 H 0.57735 0.79114 0.71535 0.0
H2103 H 0.60907 0.76338 0.75178 0.0
H2104 H 0.58099 0.80754 0.81417 0.0
H2105 H 0.5778 0.78153 0.79301 0.0
C2106 C 0.72463 0.58252 0.79017 0.0
C2107 C 0.73348 0.57712 0.80294 0.0
C2108 C 0.73817 0.5815 0.77802 0.0
C2109 C 0.80635 0.58576 0.76506 0.0
H2110 H 0.76127 0.55643 0.73155 0.0
C2111 C 0.86238 0.60232 0.71243 0.0
C2112 C 0.84928 0.57974 0.70268 0.0
C2113 C 0.84787 0.60109 0.72462 0.0
C2114 C 0.77419 0.56441 0.74083 0.0
H2115 H 0.76452 0.56698 0.81269 0.0
H2116 H 0.78705 0.56402 0.79158 0.0
H2117 H 0.73646 0.55472 0.75287 0.0
H2118 H 0.81088 0.53753 0.6984 0.0
H2119 H 0.78574 0.53524 0.7197 0.0
H2120 H 0.84395 0.59467 0.75312 0.0
C2121 C 0.76976 0.56939 0.79099 0.0
C2122 C 0.75998 0.5638 0.75305 0.0
C2123 C 0.75636 0.57061 0.80316 0.0
C2124 C 0.82137 0.55569 0.7055 0.0
C2125 C 0.80693 0.55435 0.71775 0.0
C2126 C 0.82052 0.58619 0.75287 0.0
C2127 C 0.76096 0.57497 0.77826 0.0
C2128 C 0.7759 0.57467 0.76532 0.0
C2129 C 0.81998 0.57705 0.72748 0.0
C2130 C 0.80468 0.57575 0.74056 0.0
H2131 H 0.70719 0.58767 0.78951 0.0
H2132 H 0.7311 0.58641 0.76845 0.0
H2133 H 0.81943 0.59463 0.77424 0.0
H2134 H 0.88379 0.62121 0.71056 0.0
H2135 H 0.85842 0.61924 0.73173 0.0
C2136 C 0.26452 0.85899 0.71268 0.0
C2137 C 0.27389 0.84596 0.70285 0.0
C2138 C 0.2516 0.84459 0.72495 0.0
C2139 C 0.21541 0.77128 0.74153 0.0
H2140 H 0.23134 0.81735 0.77472 0.0
C2141 C 0.14795 0.7235 0.7911 0.0
C2142 C 0.16207 0.73276 0.8039 0.0
C2143 C 0.16271 0.73646 0.77891 0.0
C2144 C 0.22689 0.80403 0.76561 0.0
H2145 H 0.27763 0.80759 0.69848 0.0
H2146 H 0.25533 0.78258 0.71991 0.0
H2147 H 0.25527 0.8413 0.75341 0.0
H2148 H 0.20337 0.76375 0.8136 0.0
H2149 H 0.22917 0.78537 0.79239 0.0
H2150 H 0.1876 0.73389 0.75383 0.0
C2151 C 0.25731 0.80371 0.71798 0.0
C2152 C 0.24031 0.81788 0.7533 0.0
C2153 C 0.27008 0.81807 0.70564 0.0
C2154 C 0.19162 0.75535 0.80407 0.0
C2155 C 0.20644 0.7682 0.79183 0.0
C2156 C 0.20211 0.7574 0.75387 0.0
C2157 C 0.24797 0.81682 0.72783 0.0
C2158 C 0.23452 0.80177 0.74105 0.0
C2159 C 0.19213 0.75908 0.77908 0.0
C2160 C 0.20743 0.77362 0.76606 0.0
H2161 H 0.26694 0.88036 0.71085 0.0
H2162 H 0.24418 0.85517 0.73212 0.0
H2163 H 0.21021 0.75815 0.73231 0.0
H2164 H 0.12525 0.70624 0.79046 0.0
H2165 H 0.15074 0.72912 0.76934 0.0
C2166 C 0.45024 0.18191 0.80148 0.0
C2167 C 0.42615 0.15408 0.80437 0.0
C2168 C 0.4515 0.19626 0.7892 0.0
C2169 C 0.41909 0.18275 0.75417 0.0
H2170 H 0.45107 0.26684 0.75424 0.0
C2171 C 0.43399 0.24718 0.70397 0.0
C2172 C 0.42774 0.27022 0.70435 0.0
C2173 C 0.43535 0.23365 0.71608 0.0
C2174 C 0.44184 0.24331 0.75404 0.0
H2175 H 0.38457 0.11957 0.79658 0.0
H2176 H 0.38639 0.14479 0.77538 0.0
H2177 H 0.44955 0.24194 0.7755 0.0
H2178 H 0.41783 0.29667 0.71799 0.0
H2179 H 0.41934 0.27256 0.73891 0.0
H2180 H 0.41031 0.18394 0.73284 0.0
C2181 C 0.40463 0.15536 0.78245 0.0
C2182 C 0.44134 0.22905 0.76622 0.0
C2183 C 0.40348 0.14093 0.79466 0.0
C2184 C 0.42277 0.27911 0.71721 0.0
C2185 C 0.42394 0.26544 0.72928 0.0
C2186 C 0.41941 0.19698 0.74201 0.0
C2187 C 0.42867 0.18321 0.77953 0.0
C2188 C 0.42983 0.19854 0.76647 0.0
C2189 C 0.4302 0.24248 0.7289 0.0
C2190 C 0.43067 0.22745 0.74178 0.0
H2191 H 0.46848 0.19242 0.80854 0.0
H2192 H 0.47064 0.2174 0.78721 0.0
H2193 H 0.41047 0.15932 0.75389 0.0
H2194 H 0.43731 0.23899 0.69438 0.0
H2195 H 0.4405 0.21623 0.71537 0.0
C2196 C 0.2827 0.42116 0.79068 0.0
C2197 C 0.27295 0.4253 0.80348 0.0
C2198 C 0.2694 0.42248 0.7785 0.0
C2199 C 0.20051 0.41623 0.76532 0.0
H2200 H 0.24625 0.4483 0.73218 0.0
C2201 C 0.14539 0.39948 0.71249 0.0
C2202 C 0.15779 0.42257 0.70297 0.0
C2203 C 0.15999 0.40086 0.72468 0.0
C2204 C 0.23314 0.43953 0.74136 0.0
H2205 H 0.24069 0.43362 0.81326 0.0
H2206 H 0.21852 0.43706 0.79211 0.0
H2207 H 0.27089 0.45013 0.7536 0.0
H2208 H 0.19512 0.46574 0.69906 0.0
H2209 H 0.22044 0.46826 0.72036 0.0
H2210 H 0.16287 0.40633 0.7532 0.0
C2211 C 0.23633 0.43245 0.79151 0.0
C2212 C 0.24726 0.44023 0.75363 0.0
C2213 C 0.2495 0.43095 0.80371 0.0
C2214 C 0.18518 0.44721 0.70598 0.0
C2215 C 0.19972 0.44869 0.71824 0.0
C2216 C 0.18643 0.41568 0.75308 0.0
C2217 C 0.24596 0.42804 0.77874 0.0
C2218 C 0.23111 0.42838 0.76576 0.0
C2219 C 0.18727 0.42555 0.72777 0.0
C2220 C 0.20251 0.42707 0.7409 0.0
H2221 H 0.30062 0.41672 0.79001 0.0
H2222 H 0.27715 0.4185 0.7689 0.0
H2223 H 0.18727 0.40658 0.77439 0.0
H2224 H 0.12442 0.38011 0.71047 0.0
H2225 H 0.14995 0.38237 0.73162 0.0
C2226 C 0.82888 0.24956 0.80366 0.0
C2227 C 0.84621 0.2802 0.80406 0.0
C2228 C 0.8148 0.23528 0.79151 0.0
C2229 C 0.81462 0.24855 0.75359 0.0
H2230 H 0.74304 0.17342 0.75507 0.0
C2231 C 0.76311 0.18055 0.70434 0.0
C2232 C 0.73269 0.16153 0.70391 0.0
C2233 C 0.77675 0.19526 0.71649 0.0
C2234 C 0.76273 0.19464 0.75436 0.0
H2235 H 0.86176 0.32001 0.79228 0.0
H2236 H 0.83583 0.29554 0.77139 0.0
H2237 H 0.76559 0.19878 0.77616 0.0
H2238 H 0.69252 0.1436 0.71563 0.0
H2239 H 0.71575 0.17054 0.7365 0.0
H2240 H 0.81068 0.24535 0.73179 0.0
C2241 C 0.83398 0.28216 0.78016 0.0
C2242 C 0.77613 0.20902 0.76659 0.0
C2243 C 0.84867 0.29632 0.7922 0.0
C2244 C 0.71608 0.15801 0.71573 0.0
C2245 C 0.72955 0.17329 0.72776 0.0
C2246 C 0.80082 0.23451 0.74137 0.0
C2247 C 0.81713 0.25134 0.77953 0.0
C2248 C 0.80242 0.23615 0.76643 0.0
C2249 C 0.76019 0.19186 0.72843 0.0
C2250 C 0.77472 0.20721 0.74153 0.0
H2251 H 0.82697 0.23659 0.81263 0.0
H2252 H 0.80266 0.21158 0.79149 0.0
H2253 H 0.83509 0.26906 0.75289 0.0
H2254 H 0.77647 0.18332 0.6954 0.0
H2255 H 0.80038 0.20875 0.71653 0.0
C2256 C 0.44821 0.05078 0.1232 0.0
C2257 C 0.46593 0.08029 0.11958 0.0
C2258 C 0.45504 0.02988 0.11845 0.0
C2259 C 0.50077 0.01176 0.09682 0.0
H2260 H 0.5217 0.99043 0.13136 0.0
C2261 C 0.52674 0.9186 0.10885 0.0
C2262 C 0.54813 0.92504 0.11895 0.0
C2263 C 0.52104 0.94035 0.10418 0.0
C2264 C 0.51626 0.99642 0.12162 0.0
H2265 H 0.50224 0.11066 0.10694 0.0
H2266 H 0.51353 0.07395 0.09824 0.0
H2267 H 0.49647 0.01843 0.13142 0.0
H2268 H 0.58253 0.95955 0.13096 0.0
H2269 H 0.57266 0.99766 0.12284 0.0
H2270 H 0.52003 0.98868 0.08709 0.0
C2271 C 0.49451 0.06692 0.10475 0.0
C2272 C 0.50139 0.01203 0.12166 0.0
C2273 C 0.48788 0.08789 0.10964 0.0
C2274 C 0.56629 0.9542 0.12299 0.0
C2275 C 0.56038 0.9759 0.11846 0.0
C2276 C 0.51515 0.99536 0.09678 0.0
C2277 C 0.4795 0.03825 0.10992 0.0
C2278 C 0.49342 0.01983 0.10931 0.0
C2279 C 0.5364 0.96867 0.10975 0.0
C2280 C 0.52326 0.98782 0.10922 0.0
H2281 H 0.43156 0.04454 0.13105 0.0
H2282 H 0.44309 0.00784 0.12255 0.0
H2283 H 0.49512 0.01784 0.08717 0.0
H2284 H 0.51211 0.89611 0.1058 0.0
H2285 H 0.50239 0.93415 0.09751 0.0
C2286 C 0.60548 0.51528 0.10672 0.0
C2287 C 0.61782 0.53648 0.1171 0.0
C2288 C 0.57859 0.50844 0.10084 0.0
C2289 C 0.51813 0.52669 0.10186 0.0
H2290 H 0.4688 0.44217 0.10326 0.0
C2291 C 0.39739 0.44201 0.12238 0.0
C2292 C 0.38349 0.4576 0.11849 0.0
C2293 C 0.42412 0.44845 0.11641 0.0
C2294 C 0.48218 0.4658 0.10275 0.0
H2295 H 0.61328 0.56887 0.12868 0.0
H2296 H 0.56635 0.557 0.11862 0.0
H2297 H 0.52171 0.46398 0.10329 0.0
H2298 H 0.38497 0.4902 0.10455 0.0
H2299 H 0.43067 0.50035 0.09356 0.0
H2300 H 0.47862 0.52857 0.10251 0.0
C2301 C 0.57739 0.54585 0.11471 0.0
C2302 C 0.5127 0.47841 0.10257 0.0
C2303 C 0.60449 0.55291 0.12046 0.0
C2304 C 0.39494 0.47736 0.1075 0.0
C2305 C 0.42151 0.48365 0.10143 0.0
C2306 C 0.48761 0.51408 0.10215 0.0
C2307 C 0.56321 0.52224 0.10546 0.0
C2308 C 0.53115 0.5091 0.10263 0.0
C2309 C 0.43742 0.47069 0.10643 0.0
C2310 C 0.46921 0.48347 0.10311 0.0
H2311 H 0.61507 0.50189 0.10417 0.0
H2312 H 0.56878 0.4907 0.09348 0.0
H2313 H 0.53153 0.55034 0.10167 0.0
H2314 H 0.38932 0.42721 0.13107 0.0
H2315 H 0.43561 0.43803 0.12063 0.0
C2316 C 0.95213 0.3962 0.1208 0.0
C2317 C 0.92274 0.38553 0.11727 0.0
C2318 C 0.9737 0.42401 0.11639 0.0
C2319 C 0.99198 0.49 0.09588 0.0
H2320 H 0.01763 0.52975 0.13092 0.0
C2321 C 0.08515 0.60955 0.10888 0.0
C2322 C 0.07847 0.62331 0.11948 0.0
C2323 C 0.06384 0.58202 0.10402 0.0
C2324 C 0.01051 0.519 0.12106 0.0
H2325 H 0.89321 0.39337 0.10498 0.0
H2326 H 0.93098 0.4415 0.09688 0.0
H2327 H 0.98961 0.47653 0.13022 0.0
H2328 H 0.04387 0.62093 0.13225 0.0
H2329 H 0.00656 0.57285 0.12381 0.0
H2330 H 0.01371 0.53307 0.08679 0.0
C2331 C 0.93746 0.42868 0.1031 0.0
C2332 C 0.99489 0.48851 0.12063 0.0
C2333 C 0.91586 0.40102 0.10765 0.0
C2334 C 0.04937 0.61099 0.1239 0.0
C2335 C 0.02814 0.58333 0.11918 0.0
C2336 C 0.00837 0.52078 0.09629 0.0
C2337 C 0.96609 0.44129 0.10829 0.0
C2338 C 0.98534 0.47362 0.10808 0.0
C2339 C 0.03575 0.56782 0.10988 0.0
C2340 C 0.01736 0.5355 0.10893 0.0
H2341 H 0.95785 0.38489 0.1284 0.0
H2342 H 0.9957 0.43319 0.12045 0.0
H2343 H 0.98457 0.47901 0.08609 0.0
H2344 H 0.10763 0.61835 0.10555 0.0
H2345 H 0.0703 0.5705 0.09691 0.0
C2346 C 0.08971 0.48559 0.40004 0.0
C2347 C 0.0813 0.46524 0.38929 0.0
C2348 C 0.06935 0.49187 0.40602 0.0
C2349 C 0.99063 0.47365 0.40455 0.0
H2350 H 0.02599 0.55821 0.40392 0.0
C2351 C 0.9555 0.55903 0.38429 0.0
C2352 C 0.92586 0.54343 0.38799 0.0
C2353 C 0.97554 0.55233 0.39033 0.0
C2354 C 0.0157 0.53457 0.40422 0.0
H2355 H 0.04478 0.43352 0.37724 0.0
H2356 H 0.00921 0.44437 0.3875 0.0
H2357 H 0.05708 0.53643 0.40392 0.0
H2358 H 0.89422 0.51063 0.4017 0.0
H2359 H 0.92932 0.49988 0.41279 0.0
H2360 H 0.94926 0.47181 0.40367 0.0
C2361 C 0.03127 0.45533 0.39158 0.0
C2362 C 0.03359 0.52196 0.40442 0.0
C2363 C 0.05162 0.44885 0.38572 0.0
C2364 C 0.91714 0.52338 0.39888 0.0
C2365 C 0.93716 0.5168 0.40501 0.0
C2366 C 0.97274 0.48627 0.40426 0.0
C2367 C 0.04032 0.47832 0.40116 0.0
C2368 C 0.02132 0.49129 0.40406 0.0
C2369 C 0.96619 0.52982 0.40019 0.0
C2370 C 0.98505 0.51691 0.40356 0.0
H2371 H 0.11261 0.49891 0.40279 0.0
H2372 H 0.07698 0.5091 0.41364 0.0
H2373 H 0.98035 0.45 0.40449 0.0
H2374 H 0.96256 0.57407 0.3757 0.0
H2375 H 0.9976 0.56281 0.38626 0.0
C2376 C 0.60869 0.04799 0.38413 0.0
C2377 C 0.62289 0.07748 0.38808 0.0
C2378 C 0.58169 0.0279 0.38995 0.0
C2379 C 0.51835 0.03094 0.40359 0.0
H2380 H 0.4832 0.94657 0.40272 0.0
C2381 C 0.39955 0.91502 0.39909 0.0
C2382 C 0.38755 0.92376 0.3885 0.0
C2383 C 0.42651 0.935 0.40495 0.0
C2384 C 0.4925 0.97007 0.40335 0.0
H2385 H 0.62164 0.10869 0.40204 0.0
H2386 H 0.57535 0.07347 0.41273 0.0
H2387 H 0.5362 0.97715 0.40302 0.0
H2388 H 0.39289 0.96052 0.3765 0.0
H2389 H 0.43995 0.99547 0.38654 0.0
H2390 H 0.47463 0.02386 0.40365 0.0
C2391 C 0.58454 0.0658 0.40493 0.0
C2392 C 0.52306 0.98766 0.40334 0.0
C2393 C 0.61143 0.08589 0.39903 0.0
C2394 C 0.40137 0.95343 0.38488 0.0
C2395 C 0.42855 0.97341 0.39061 0.0
C2396 C 0.48777 0.01334 0.40368 0.0
C2397 C 0.56839 0.03703 0.39982 0.0
C2398 C 0.53643 0.01835 0.40291 0.0
C2399 C 0.44233 0.964 0.4001 0.0
C2400 C 0.47439 0.98266 0.40302 0.0
H2401 H 0.61676 0.04118 0.37548 0.0
H2402 H 0.57002 0.00603 0.38567 0.0
H2403 H 0.52767 0.05447 0.40316 0.0
H2404 H 0.38962 0.8921 0.40184 0.0
H2405 H 0.43601 0.9271 0.41248 0.0
C2406 C 0.44568 0.39461 0.38701 0.0
C2407 C 0.46337 0.3829 0.39079 0.0
C2408 C 0.45225 0.42226 0.39177 0.0
C2409 C 0.49646 0.48587 0.41367 0.0
H2410 H 0.51939 0.5286 0.37927 0.0
C2411 C 0.51946 0.60353 0.40166 0.0
C2412 C 0.54057 0.61903 0.39152 0.0
C2413 C 0.51498 0.57657 0.40641 0.0
C2414 C 0.51347 0.51707 0.38899 0.0
H2415 H 0.49922 0.3888 0.40375 0.0
H2416 H 0.51005 0.43668 0.41247 0.0
H2417 H 0.49489 0.47539 0.37909 0.0
H2418 H 0.576 0.62067 0.37967 0.0
H2419 H 0.56827 0.57354 0.38794 0.0
H2420 H 0.51437 0.52802 0.42348 0.0
C2421 C 0.49127 0.4247 0.40582 0.0
C2422 C 0.49899 0.48658 0.38887 0.0
C2423 C 0.48491 0.39718 0.40091 0.0
C2424 C 0.55988 0.60933 0.38764 0.0
C2425 C 0.55518 0.58217 0.39225 0.0
C2426 C 0.51045 0.51663 0.41378 0.0
C2427 C 0.47638 0.43833 0.40049 0.0
C2428 C 0.49019 0.47064 0.40116 0.0
C2429 C 0.53133 0.56465 0.4009 0.0
C2430 C 0.51924 0.53248 0.40141 0.0
H2431 H 0.4294 0.38432 0.37899 0.0
H2432 H 0.44042 0.43235 0.38754 0.0
H2433 H 0.49017 0.47399 0.42329 0.0
H2434 H 0.5041 0.61051 0.40467 0.0
H2435 H 0.49647 0.56359 0.41307 0.0
C2436 C 0.45077 0.05477 0.88506 0.0
C2437 C 0.46931 0.08402 0.88886 0.0
C2438 C 0.45695 0.03311 0.88938 0.0
C2439 C 0.5038 0.0145 0.91045 0.0
H2440 H 0.51822 0.98796 0.87574 0.0
C2441 C 0.52988 0.92077 0.89876 0.0
C2442 C 0.55026 0.92688 0.88819 0.0
C2443 C 0.52374 0.94233 0.90328 0.0
C2444 C 0.5145 0.99534 0.88552 0.0
H2445 H 0.50635 0.1132 0.90145 0.0
H2446 H 0.51657 0.07526 0.90939 0.0
H2447 H 0.49334 0.01629 0.87601 0.0
H2448 H 0.58249 0.9608 0.87513 0.0
H2449 H 0.5719 0.99856 0.883 0.0
H2450 H 0.52474 0.99275 0.91989 0.0
C2451 C 0.49747 0.06895 0.90302 0.0
C2452 C 0.49981 0.01113 0.88569 0.0
C2453 C 0.49152 0.09065 0.89855 0.0
C2454 C 0.56711 0.95574 0.88347 0.0
C2455 C 0.56076 0.97721 0.88786 0.0
C2456 C 0.51801 0.99795 0.91029 0.0
C2457 C 0.48156 0.04047 0.89767 0.0
C2458 C 0.49437 0.02102 0.89812 0.0
C2459 C 0.53766 0.9701 0.89711 0.0
C2460 C 0.52386 0.98864 0.89777 0.0
H2461 H 0.43385 0.04925 0.87742 0.0
H2462 H 0.4442 0.01122 0.88519 0.0
H2463 H 0.50013 0.02214 0.92015 0.0
H2464 H 0.51619 0.89848 0.90233 0.0
H2465 H 0.50579 0.93625 0.91038 0.0
C2466 C 0.39785 0.47817 0.89938 0.0
C2467 C 0.38353 0.457 0.88911 0.0
C2468 C 0.42523 0.4841 0.9043 0.0
C2469 C 0.48692 0.49138 0.88716 0.0
H2470 H 0.52873 0.50908 0.92178 0.0
C2471 C 0.60937 0.55815 0.88602 0.0
C2472 C 0.62048 0.53963 0.88917 0.0
C2473 C 0.58181 0.55166 0.89093 0.0
C2474 C 0.51721 0.50445 0.91208 0.0
H2475 H 0.38459 0.42311 0.87711 0.0
H2476 H 0.43246 0.43343 0.88566 0.0
H2477 H 0.47458 0.48381 0.92163 0.0
H2478 H 0.61374 0.50238 0.90125 0.0
H2479 H 0.56612 0.49166 0.91023 0.0
H2480 H 0.52896 0.51242 0.87755 0.0
C2481 C 0.42252 0.44532 0.88999 0.0
C2482 C 0.48639 0.48985 0.912 0.0
C2483 C 0.39499 0.43917 0.8852 0.0
C2484 C 0.60583 0.5173 0.8989 0.0
C2485 C 0.57843 0.51101 0.90395 0.0
C2486 C 0.51743 0.50648 0.88726 0.0
C2487 C 0.43871 0.46917 0.89884 0.0
C2488 C 0.47104 0.48287 0.89949 0.0
C2489 C 0.56527 0.52677 0.89915 0.0
C2490 C 0.53294 0.51318 0.89968 0.0
H2491 H 0.38967 0.49258 0.90233 0.0
H2492 H 0.43728 0.50266 0.91106 0.0
H2493 H 0.47567 0.4868 0.87739 0.0
H2494 H 0.62001 0.57514 0.87834 0.0
H2495 H 0.57213 0.56421 0.88713 0.0
C2496 C 0.08979 0.60895 0.90024 0.0
C2497 C 0.0809 0.62043 0.88949 0.0
C2498 C 0.06975 0.58251 0.9065 0.0
C2499 C 0.03359 0.51646 0.9058 0.0
H2500 H 0.94935 0.48297 0.90614 0.0
C2501 C 0.95314 0.40021 0.8876 0.0
C2502 C 0.92361 0.38728 0.89139 0.0
C2503 C 0.97392 0.42701 0.89336 0.0
C2504 C 0.97283 0.49181 0.90645 0.0
H2505 H 0.04393 0.61483 0.87757 0.0
H2506 H 0.00886 0.56874 0.88831 0.0
H2507 H 0.98085 0.53582 0.90607 0.0
H2508 H 0.89302 0.39006 0.9052 0.0
H2509 H 0.92941 0.4358 0.91588 0.0
H2510 H 0.02554 0.47243 0.90592 0.0
C2511 C 0.03108 0.58013 0.89221 0.0
C2512 C 0.99094 0.52228 0.90621 0.0
C2513 C 0.05113 0.60673 0.88606 0.0
C2514 C 0.9158 0.39945 0.90225 0.0
C2515 C 0.93658 0.42601 0.90815 0.0
C2516 C 0.01547 0.48597 0.90613 0.0
C2517 C 0.04053 0.56677 0.9019 0.0
C2518 C 0.02154 0.53503 0.90531 0.0
C2519 C 0.96544 0.4412 0.90306 0.0
C2520 C 0.98481 0.47318 0.90589 0.0
H2521 H 0.11279 0.61879 0.90285 0.0
H2522 H 0.0777 0.57329 0.91415 0.0
H2523 H 0.05701 0.52528 0.90501 0.0
H2524 H 0.95953 0.39152 0.87904 0.0
H2525 H 0.99584 0.43789 0.88912 0.0
C2526 C 0.9529 0.55987 0.62235 0.0
C2527 C 0.92379 0.5421 0.61811 0.0
C2528 C 0.97452 0.55379 0.61787 0.0
C2529 C 0.99457 0.5096 0.59594 0.0
H2530 H 0.01579 0.48855 0.63046 0.0
C2531 C 0.08748 0.48311 0.60846 0.0
C2532 C 0.08034 0.46118 0.61835 0.0
C2533 C 0.06611 0.48927 0.60366 0.0
C2534 C 0.00987 0.49408 0.62073 0.0
H2535 H 0.89494 0.50669 0.60466 0.0
H2536 H 0.9329 0.49668 0.59647 0.0
H2537 H 0.98755 0.51353 0.63054 0.0
H2538 H 0.04498 0.42628 0.62978 0.0
H2539 H 0.00757 0.43694 0.62142 0.0
H2540 H 0.01786 0.49055 0.58621 0.0
C2541 C 0.93909 0.51511 0.60327 0.0
C2542 C 0.99412 0.50882 0.62078 0.0
C2543 C 0.9174 0.52097 0.60789 0.0
C2544 C 0.05089 0.44295 0.62197 0.0
C2545 C 0.02958 0.4493 0.61731 0.0
C2546 C 0.0111 0.49536 0.5959 0.0
C2547 C 0.96728 0.53006 0.60901 0.0
C2548 C 0.98626 0.51674 0.60842 0.0
C2549 C 0.03747 0.47379 0.60887 0.0
C2550 C 0.01855 0.48717 0.60833 0.0
H2551 H 0.95821 0.5759 0.63041 0.0
H2552 H 0.99619 0.56572 0.62239 0.0
H2553 H 0.98846 0.51521 0.58628 0.0
H2554 H 0.11018 0.49781 0.60574 0.0
H2555 H 0.0728 0.50829 0.5972 0.0
C2556 C 0.61049 0.08678 0.60795 0.0
C2557 C 0.62198 0.07853 0.61894 0.0
C2558 C 0.58395 0.06641 0.60186 0.0
C2559 C 0.51781 0.03029 0.60254 0.0
H2560 H 0.48426 0.94611 0.60347 0.0
C2561 C 0.40098 0.95121 0.62067 0.0
C2562 C 0.38781 0.92151 0.61719 0.0
C2563 C 0.42808 0.9715 0.61499 0.0
C2564 C 0.49312 0.96954 0.60282 0.0
H2565 H 0.6163 0.04232 0.63148 0.0
H2566 H 0.5701 0.00669 0.62101 0.0
H2567 H 0.53715 0.97758 0.60353 0.0
H2568 H 0.3908 0.89003 0.60411 0.0
H2569 H 0.43716 0.92554 0.59357 0.0
H2570 H 0.47377 0.02225 0.60206 0.0
C2571 C 0.58151 0.02863 0.61681 0.0
C2572 C 0.52362 0.98766 0.60304 0.0
C2573 C 0.60819 0.04901 0.6228 0.0
C2574 C 0.40031 0.91296 0.60677 0.0
C2575 C 0.42722 0.93325 0.60096 0.0
C2576 C 0.48731 0.01217 0.60222 0.0
C2577 C 0.56815 0.0375 0.60683 0.0
C2578 C 0.53639 0.01829 0.60347 0.0
C2579 C 0.44243 0.96237 0.6057 0.0
C2580 C 0.47448 0.98154 0.60292 0.0
H2581 H 0.62046 0.1096 0.60499 0.0
H2582 H 0.57475 0.07389 0.59398 0.0
H2583 H 0.52665 0.05374 0.60296 0.0
H2584 H 0.39207 0.95817 0.62892 0.0
H2585 H 0.43898 0.99363 0.61898 0.0
C2586 C 0.44385 0.39436 0.62209 0.0
C2587 C 0.46213 0.38327 0.6184 0.0
C2588 C 0.45009 0.42201 0.61745 0.0
C2589 C 0.49542 0.48659 0.59599 0.0
H2590 H 0.51495 0.52838 0.63065 0.0
C2591 C 0.52049 0.60547 0.60826 0.0
C2592 C 0.542 0.62052 0.61832 0.0
C2593 C 0.51478 0.57802 0.6036 0.0
C2594 C 0.50988 0.51708 0.62088 0.0
H2595 H 0.49869 0.39024 0.6057 0.0
H2596 H 0.50891 0.43802 0.59717 0.0
H2597 H 0.49015 0.47514 0.63057 0.0
H2598 H 0.57653 0.62052 0.63025 0.0
H2599 H 0.56654 0.57245 0.62217 0.0
H2600 H 0.51467 0.52906 0.58638 0.0
C2601 C 0.48995 0.42561 0.60367 0.0
C2602 C 0.49523 0.48658 0.62083 0.0
C2603 C 0.48393 0.39812 0.60846 0.0
C2604 C 0.56019 0.60955 0.62232 0.0
C2605 C 0.55422 0.5819 0.61781 0.0
C2606 C 0.50955 0.51736 0.59604 0.0
C2607 C 0.47447 0.43867 0.60895 0.0
C2608 C 0.48782 0.47097 0.60843 0.0
C2609 C 0.53021 0.56512 0.60912 0.0
C2610 C 0.51718 0.53284 0.60852 0.0
H2611 H 0.42731 0.3836 0.62995 0.0
H2612 H 0.43775 0.4316 0.62162 0.0
H2613 H 0.49022 0.475 0.5863 0.0
H2614 H 0.50585 0.61332 0.60523 0.0
H2615 H 0.49611 0.56553 0.59694 0.0
C2616 C 0.74913 0.27659 0.16042 0.0
C2617 C 0.75539 0.26132 0.15038 0.0
C2618 C 0.72008 0.26696 0.16427 0.0
C2619 C 0.64795 0.20068 0.16534 0.0
H2620 H 0.61421 0.25091 0.16153 0.0
C2621 C 0.53401 0.18192 0.14618 0.0
C2622 C 0.51504 0.15598 0.15313 0.0
C2623 C 0.56247 0.20015 0.15091 0.0
C2624 C 0.62341 0.23673 0.16287 0.0
H2625 H 0.73622 0.22414 0.13652 0.0
H2626 H 0.68588 0.2072 0.1434 0.0
H2627 H 0.66738 0.27185 0.15946 0.0
H2628 H 0.51037 0.1287 0.17057 0.0
H2629 H 0.56045 0.16057 0.17897 0.0
H2630 H 0.60426 0.16528 0.16791 0.0
C2631 C 0.70333 0.22655 0.14828 0.0
C2632 C 0.6538 0.24874 0.16173 0.0
C2633 C 0.73216 0.23641 0.14427 0.0
C2634 C 0.52445 0.14909 0.16529 0.0
C2635 C 0.55311 0.16721 0.17 0.0
C2636 C 0.61774 0.18875 0.16658 0.0
C2637 C 0.69699 0.24158 0.15836 0.0
C2638 C 0.66611 0.23053 0.16237 0.0
C2639 C 0.57284 0.19221 0.16248 0.0
C2640 C 0.60496 0.20639 0.16479 0.0
H2641 H 0.76664 0.29594 0.16527 0.0
H2642 H 0.71569 0.27898 0.17202 0.0
H2643 H 0.657 0.18626 0.16602 0.0
H2644 H 0.52772 0.18677 0.13637 0.0
H2645 H 0.57713 0.21883 0.14469 0.0
C2646 C 0.37581 0.52635 0.15966 0.0
C2647 C 0.35688 0.51104 0.14878 0.0
C2648 C 0.38534 0.55613 0.16164 0.0
C2649 C 0.4047 0.61681 0.13926 0.0
H2650 H 0.41865 0.66422 0.1718 0.0
C2651 C 0.47129 0.74114 0.13488 0.0
C2652 C 0.49154 0.75624 0.14534 0.0
C2653 C 0.44946 0.71203 0.13674 0.0
C2654 C 0.41512 0.65128 0.16263 0.0
H2655 H 0.33334 0.51457 0.13141 0.0
H2656 H 0.34852 0.56574 0.13523 0.0
H2657 H 0.38889 0.6107 0.1734 0.0
H2658 H 0.50441 0.75341 0.16612 0.0
H2659 H 0.46744 0.70195 0.16912 0.0
H2660 H 0.43207 0.65641 0.12856 0.0
C2661 C 0.35568 0.55487 0.14238 0.0
C2662 C 0.39794 0.6207 0.16357 0.0
C2663 C 0.34647 0.52539 0.14037 0.0
C2664 C 0.48902 0.74211 0.15788 0.0
C2665 C 0.46765 0.71269 0.15963 0.0
C2666 C 0.42213 0.6471 0.13836 0.0
C2667 C 0.37639 0.57089 0.15256 0.0
C2668 C 0.39262 0.60326 0.15186 0.0
C2669 C 0.44797 0.69705 0.14895 0.0
C2670 C 0.42771 0.66484 0.15002 0.0
H2671 H 0.38492 0.51592 0.16595 0.0
H2672 H 0.40164 0.56812 0.16945 0.0
H2673 H 0.40158 0.60385 0.13013 0.0
H2674 H 0.47238 0.75183 0.12523 0.0
H2675 H 0.43413 0.7011 0.12844 0.0
C2676 C 0.724 0.46866 0.15855 0.0
C2677 C 0.73625 0.48783 0.14732 0.0
C2678 C 0.73391 0.44928 0.16199 0.0
C2679 C 0.79969 0.44403 0.16001 0.0
H2680 H 0.75104 0.35943 0.16135 0.0
C2681 C 0.81925 0.34661 0.14572 0.0
C2682 C 0.84727 0.35772 0.15141 0.0
C2683 C 0.80076 0.3567 0.15028 0.0
C2684 C 0.76483 0.38305 0.16121 0.0
H2685 H 0.76775 0.50114 0.13072 0.0
H2686 H 0.78532 0.46788 0.13689 0.0
H2687 H 0.72817 0.38985 0.15848 0.0
H2688 H 0.87745 0.38644 0.16682 0.0
H2689 H 0.84493 0.40375 0.17507 0.0
H2690 H 0.8364 0.43774 0.16198 0.0
C2691 C 0.76811 0.46781 0.143 0.0
C2692 C 0.75174 0.40038 0.15961 0.0
C2693 C 0.75793 0.48673 0.13943 0.0
C2694 C 0.85566 0.3772 0.16248 0.0
C2695 C 0.83715 0.38726 0.16709 0.0
C2696 C 0.8127 0.42686 0.16172 0.0
C2697 C 0.75655 0.44926 0.15442 0.0
C2698 C 0.76924 0.43094 0.15848 0.0
C2699 C 0.81028 0.37849 0.16045 0.0
C2700 C 0.79555 0.39612 0.16187 0.0
H2701 H 0.70706 0.46889 0.16474 0.0
H2702 H 0.72461 0.43505 0.1708 0.0
H2703 H 0.8136 0.46759 0.15929 0.0
H2704 H 0.8128 0.33236 0.13684 0.0
H2705 H 0.7804 0.34967 0.14483 0.0
C2706 C 0.26336 0.74507 0.15799 0.0
C2707 C 0.24911 0.73353 0.14545 0.0
C2708 C 0.29277 0.75298 0.15969 0.0
C2709 C 0.3582 0.77298 0.1383 0.0
H2710 H 0.39484 0.77565 0.1732 0.0
C2711 C 0.48008 0.81914 0.13998 0.0
C2712 C 0.49461 0.84344 0.14866 0.0
C2713 C 0.45054 0.79885 0.14192 0.0
C2714 C 0.38478 0.77484 0.1634 0.0
H2715 H 0.25331 0.71874 0.12532 0.0
H2716 H 0.30399 0.73099 0.12846 0.0
H2717 H 0.3413 0.75218 0.17172 0.0
H2718 H 0.48994 0.86572 0.16625 0.0
H2719 H 0.4377 0.83022 0.16965 0.0
H2720 H 0.40138 0.79561 0.12998 0.0
C2721 C 0.29317 0.73543 0.13678 0.0
C2722 C 0.35418 0.76159 0.16254 0.0
C2723 C 0.26407 0.72826 0.13497 0.0
C2724 C 0.4794 0.84651 0.15975 0.0
C2725 C 0.44957 0.82625 0.16166 0.0
C2726 C 0.3885 0.78571 0.13913 0.0
C2727 C 0.30828 0.74889 0.14897 0.0
C2728 C 0.34052 0.76077 0.14997 0.0
C2729 C 0.43461 0.80307 0.15232 0.0
C2730 C 0.40217 0.78702 0.15167 0.0
H2731 H 0.25219 0.74926 0.16625 0.0
H2732 H 0.30361 0.76346 0.16918 0.0
H2733 H 0.34881 0.7737 0.12854 0.0
H2734 H 0.49082 0.81728 0.13088 0.0
H2735 H 0.43956 0.78121 0.13458 0.0
C2736 C 0.63172 0.47765 0.16247 0.0
C2737 C 0.64662 0.48829 0.15004 0.0
C2738 C 0.62428 0.44956 0.167 0.0
C2739 C 0.63035 0.38334 0.1576 0.0
H2740 H 0.54878 0.34194 0.16873 0.0
C2741 C 0.54491 0.26683 0.1407 0.0
C2742 C 0.52449 0.24786 0.15038 0.0
C2743 C 0.56565 0.2955 0.14434 0.0
C2744 C 0.57173 0.35318 0.16589 0.0
H2745 H 0.666 0.4788 0.13268 0.0
H2746 H 0.65274 0.42996 0.14025 0.0
H2747 H 0.57596 0.39503 0.16924 0.0
H2748 H 0.51051 0.24355 0.1716 0.0
H2749 H 0.54623 0.2941 0.17781 0.0
H2750 H 0.62489 0.34104 0.15312 0.0
C2751 C 0.64756 0.44316 0.14692 0.0
C2752 C 0.58749 0.38374 0.16625 0.0
C2753 C 0.6552 0.47123 0.14252 0.0
C2754 C 0.52592 0.25774 0.1639 0.0
C2755 C 0.54632 0.2866 0.16747 0.0
C2756 C 0.61435 0.35274 0.15699 0.0
C2757 C 0.63089 0.43141 0.15892 0.0
C2758 C 0.6167 0.39931 0.16161 0.0
C2759 C 0.56605 0.30587 0.15766 0.0
C2760 C 0.58464 0.33748 0.16071 0.0
H2761 H 0.62452 0.4904 0.16828 0.0
H2762 H 0.61193 0.44149 0.17642 0.0
H2763 H 0.653 0.3945 0.1543 0.0
H2764 H 0.5445 0.2597 0.13024 0.0
H2765 H 0.58044 0.31001 0.13654 0.0
C2766 C 0.18446 0.65954 0.1397 0.0
C2767 C 0.16058 0.65038 0.14861 0.0
C2768 C 0.20439 0.64978 0.14146 0.0
C2769 C 0.22891 0.6086 0.16292 0.0
H2770 H 0.22823 0.57214 0.12827 0.0
C2771 C 0.26032 0.51805 0.15778 0.0
C2772 C 0.27136 0.51504 0.14516 0.0
C2773 C 0.25179 0.5391 0.15941 0.0
C2774 C 0.22944 0.5827 0.13797 0.0
H2775 H 0.13869 0.62397 0.1664 0.0
H2776 H 0.17365 0.60649 0.16952 0.0
H2777 H 0.20625 0.60273 0.12973 0.0
H2778 H 0.28455 0.53307 0.12475 0.0
H2779 H 0.27123 0.57071 0.12775 0.0
H2780 H 0.25224 0.58845 0.17115 0.0
C2781 C 0.17753 0.62217 0.16147 0.0
C2782 C 0.21665 0.6002 0.1388 0.0
C2783 C 0.1576 0.63219 0.15972 0.0
C2784 C 0.27545 0.53453 0.13449 0.0
C2785 C 0.26764 0.556 0.13621 0.0
C2786 C 0.24222 0.59133 0.16204 0.0
C2787 C 0.20027 0.62982 0.15194 0.0
C2788 C 0.21606 0.6132 0.15127 0.0
C2789 C 0.25474 0.55795 0.14853 0.0
C2790 C 0.24245 0.57796 0.14955 0.0
H2791 H 0.18625 0.67211 0.1306 0.0
H2792 H 0.22169 0.656 0.13396 0.0
H2793 H 0.22866 0.61835 0.17266 0.0
H2794 H 0.25704 0.50327 0.16618 0.0
H2795 H 0.24177 0.53969 0.169 0.0
C2796 C 0.81993 0.47842 0.36414 0.0
C2797 C 0.84644 0.49184 0.35686 0.0
C2798 C 0.79934 0.44905 0.36191 0.0
C2799 C 0.77787 0.38242 0.3417 0.0
H2800 H 0.77266 0.34753 0.37734 0.0
C2801 C 0.74885 0.26181 0.34841 0.0
C2802 C 0.73673 0.2477 0.36089 0.0
C2803 C 0.75644 0.29106 0.34649 0.0
C2804 C 0.77297 0.35655 0.36734 0.0
H2805 H 0.872 0.48567 0.34127 0.0
H2806 H 0.83583 0.43392 0.33731 0.0
H2807 H 0.79412 0.39995 0.37545 0.0
H2808 H 0.72064 0.25184 0.38069 0.0
H2809 H 0.732 0.30209 0.3771 0.0
H2810 H 0.75654 0.33885 0.33358 0.0
C2811 C 0.83063 0.44641 0.34444 0.0
C2812 C 0.78548 0.38679 0.36626 0.0
C2813 C 0.85129 0.47594 0.34669 0.0
C2814 C 0.73063 0.26257 0.37109 0.0
C2815 C 0.73733 0.29144 0.36903 0.0
C2816 C 0.76469 0.3519 0.3428 0.0
C2817 C 0.80522 0.4324 0.35257 0.0
C2818 C 0.78846 0.40008 0.35345 0.0
C2819 C 0.75131 0.30649 0.3569 0.0
C2820 C 0.76253 0.33859 0.35564 0.0
H2821 H 0.81631 0.48982 0.37248 0.0
H2822 H 0.77996 0.43871 0.36832 0.0
H2823 H 0.78003 0.39225 0.3317 0.0
H2824 H 0.75367 0.25065 0.34038 0.0
H2825 H 0.76741 0.3018 0.33707 0.0
C2826 C 0.47804 0.73389 0.34906 0.0
C2827 C 0.47894 0.72034 0.3613 0.0
C2828 C 0.45685 0.74209 0.34717 0.0
C2829 C 0.41018 0.76023 0.36839 0.0
H2830 H 0.38332 0.77166 0.33312 0.0
C2831 C 0.34502 0.81809 0.36652 0.0
C2832 C 0.35761 0.84309 0.35819 0.0
C2833 C 0.35159 0.79589 0.36449 0.0
C2834 C 0.39054 0.76838 0.34302 0.0
H2835 H 0.45691 0.7022 0.38059 0.0
H2836 H 0.41906 0.71509 0.37706 0.0
H2837 H 0.40982 0.74456 0.33442 0.0
H2838 H 0.38705 0.86487 0.34125 0.0
H2839 H 0.39924 0.82606 0.33776 0.0
H2840 H 0.39144 0.78426 0.37699 0.0
C2841 C 0.4355 0.72078 0.36917 0.0
C2842 C 0.40583 0.75303 0.34379 0.0
C2843 C 0.4571 0.71325 0.37119 0.0
C2844 C 0.37629 0.84522 0.34747 0.0
C2845 C 0.3832 0.82304 0.34549 0.0
C2846 C 0.39467 0.77512 0.36764 0.0
C2847 C 0.43577 0.73635 0.35739 0.0
C2848 C 0.41634 0.74926 0.35648 0.0
C2849 C 0.37187 0.79881 0.3544 0.0
C2850 C 0.38509 0.7798 0.35495 0.0
H2851 H 0.4946 0.73948 0.34123 0.0
H2852 H 0.45801 0.75425 0.33802 0.0
H2853 H 0.41851 0.75861 0.37831 0.0
H2854 H 0.33176 0.81668 0.37529 0.0
H2855 H 0.34249 0.77745 0.37148 0.0
C2856 C 0.73102 0.49594 0.36566 0.0
C2857 C 0.75395 0.49524 0.35868 0.0
C2858 C 0.70194 0.47655 0.36216 0.0
C2859 C 0.65187 0.40549 0.34768 0.0
H2860 H 0.60171 0.43935 0.34399 0.0
C2861 C 0.52254 0.37602 0.3451 0.0
C2862 C 0.51262 0.35746 0.35653 0.0
C2863 C 0.55121 0.38707 0.34035 0.0
C2864 C 0.61533 0.42939 0.34462 0.0
H2865 H 0.76439 0.47292 0.34288 0.0
H2866 H 0.71306 0.43838 0.33695 0.0
H2867 H 0.65433 0.47124 0.34598 0.0
H2868 H 0.52405 0.33497 0.37169 0.0
H2869 H 0.57379 0.35375 0.3634 0.0
H2870 H 0.61253 0.36351 0.34693 0.0
C2871 C 0.71786 0.45431 0.345 0.0
C2872 C 0.6455 0.44775 0.34595 0.0
C2873 C 0.74714 0.47409 0.34837 0.0
C2874 C 0.53088 0.3483 0.3625 0.0
C2875 C 0.55951 0.3593 0.35778 0.0
C2876 C 0.62149 0.38699 0.34643 0.0
C2877 C 0.69504 0.45576 0.35172 0.0
C2878 C 0.66394 0.43603 0.34798 0.0
C2879 C 0.57055 0.38019 0.34718 0.0
C2880 C 0.6028 0.39879 0.34534 0.0
H2881 H 0.73549 0.5119 0.37365 0.0
H2882 H 0.68474 0.47782 0.36766 0.0
H2883 H 0.66567 0.39593 0.3492 0.0
H2884 H 0.50894 0.38381 0.34055 0.0
H2885 H 0.55892 0.40279 0.33203 0.0
C2886 C 0.16048 0.52678 0.34424 0.0
C2887 C 0.15995 0.51826 0.3579 0.0
C2888 C 0.18178 0.55495 0.33998 0.0
C2889 C 0.24918 0.62316 0.35193 0.0
H2890 H 0.21204 0.66255 0.33474 0.0
C2891 C 0.2716 0.73724 0.36665 0.0
C2892 C 0.27332 0.75673 0.35641 0.0
C2893 C 0.26543 0.70902 0.36323 0.0
C2894 C 0.22303 0.65188 0.33926 0.0
H2895 H 0.18092 0.53144 0.37773 0.0
H2896 H 0.21781 0.58012 0.37046 0.0
H2897 H 0.18727 0.60928 0.33461 0.0
H2898 H 0.2709 0.76242 0.33451 0.0
H2899 H 0.25891 0.71239 0.32858 0.0
H2900 H 0.28375 0.66593 0.35761 0.0
C2901 C 0.20264 0.56538 0.36284 0.0
C2902 C 0.2089 0.62129 0.33914 0.0
C2903 C 0.1814 0.53752 0.36706 0.0
C2904 C 0.26959 0.74776 0.34262 0.0
C2905 C 0.26278 0.71923 0.33922 0.0
C2906 C 0.26309 0.65372 0.35221 0.0
C2907 C 0.20258 0.57486 0.34937 0.0
C2908 C 0.22113 0.60654 0.34607 0.0
C2909 C 0.26035 0.69952 0.34953 0.0
C2910 C 0.24951 0.66826 0.3464 0.0
H2911 H 0.14375 0.51225 0.3371 0.0
H2912 H 0.1812 0.56155 0.32952 0.0
H2913 H 0.25954 0.61248 0.35707 0.0
H2914 H 0.27471 0.74368 0.37734 0.0
H2915 H 0.26335 0.69417 0.3714 0.0
C2916 C 0.66144 0.18319 0.36446 0.0
C2917 C 0.64866 0.15667 0.35726 0.0
C2918 C 0.65257 0.20365 0.36213 0.0
C2919 C 0.59963 0.21771 0.34228 0.0
H2920 H 0.59226 0.24706 0.37764 0.0
C2921 C 0.53138 0.27567 0.3505 0.0
C2922 C 0.51352 0.2666 0.36227 0.0
C2923 C 0.55263 0.26747 0.34857 0.0
C2924 C 0.59407 0.23903 0.36767 0.0
H2925 H 0.61599 0.13022 0.34217 0.0
H2926 H 0.59892 0.16506 0.33861 0.0
H2927 H 0.62168 0.22398 0.37564 0.0
H2928 H 0.50402 0.24195 0.38122 0.0
H2929 H 0.54044 0.22732 0.37778 0.0
H2930 H 0.56997 0.2311 0.33467 0.0
C2931 C 0.61729 0.17115 0.34543 0.0
C2932 C 0.61148 0.22618 0.36643 0.0
C2933 C 0.62701 0.15109 0.34745 0.0
C2934 C 0.51751 0.24946 0.37209 0.0
C2935 C 0.53858 0.24122 0.37015 0.0
C2936 C 0.58187 0.23038 0.34357 0.0
C2937 C 0.62911 0.19715 0.35321 0.0
C2938 C 0.61405 0.21472 0.35379 0.0
C2939 C 0.55642 0.25009 0.35838 0.0
C2940 C 0.57825 0.24039 0.35639 0.0
H2941 H 0.67631 0.18693 0.37286 0.0
H2942 H 0.6626 0.22357 0.36816 0.0
H2943 H 0.60138 0.20953 0.33235 0.0
H2944 H 0.52892 0.28905 0.34278 0.0
H2945 H 0.56618 0.27486 0.33946 0.0
C2946 C 0.4783 0.643 0.34783 0.0
C2947 C 0.48557 0.64618 0.3618 0.0
C2948 C 0.45051 0.63768 0.3437 0.0
C2949 C 0.38306 0.63647 0.35645 0.0
H2950 H 0.3414 0.56309 0.33664 0.0
C2951 C 0.26579 0.54857 0.36879 0.0
C2952 C 0.24715 0.53036 0.35839 0.0
C2953 C 0.29442 0.57037 0.36575 0.0
C2954 C 0.35268 0.58398 0.34189 0.0
H2955 H 0.47065 0.64733 0.38233 0.0
H2956 H 0.42276 0.63848 0.37525 0.0
H2957 H 0.39477 0.58959 0.33698 0.0
H2958 H 0.24331 0.52187 0.3365 0.0
H2959 H 0.29363 0.55975 0.33122 0.0
H2960 H 0.34089 0.6298 0.36213 0.0
C2961 C 0.43814 0.64037 0.36739 0.0
C2962 C 0.38333 0.59924 0.34204 0.0
C2963 C 0.46549 0.64523 0.37148 0.0
C2964 C 0.25726 0.53538 0.34477 0.0
C2965 C 0.28606 0.55704 0.34173 0.0
C2966 C 0.35243 0.62119 0.35632 0.0
C2967 C 0.42996 0.63575 0.35351 0.0
C2968 C 0.39879 0.62484 0.34992 0.0
C2969 C 0.30515 0.57435 0.35225 0.0
C2970 C 0.33693 0.59405 0.3496 0.0
H2971 H 0.49347 0.6433 0.34025 0.0
H2972 H 0.44471 0.63407 0.33293 0.0
H2973 H 0.39441 0.65642 0.36242 0.0
H2974 H 0.25855 0.5455 0.37937 0.0
H2975 H 0.30862 0.5831 0.37412 0.0
C2976 C 0.48079 0.81993 0.86822 0.0
C2977 C 0.49525 0.84393 0.85936 0.0
C2978 C 0.4512 0.79963 0.86639 0.0
C2979 C 0.38542 0.77452 0.84485 0.0
H2980 H 0.34917 0.7743 0.87949 0.0
C2981 C 0.26335 0.74283 0.8498 0.0
C2982 C 0.24913 0.73157 0.86237 0.0
C2983 C 0.29295 0.75133 0.84822 0.0
C2984 C 0.35865 0.77332 0.8698 0.0
H2985 H 0.49042 0.86567 0.84159 0.0
H2986 H 0.43813 0.83007 0.83837 0.0
H2987 H 0.40182 0.79667 0.87812 0.0
H2988 H 0.25367 0.71796 0.88273 0.0
H2989 H 0.30469 0.73124 0.87982 0.0
H2990 H 0.34198 0.75107 0.83653 0.0
C2991 C 0.45006 0.82638 0.84643 0.0
C2992 C 0.38899 0.78634 0.86901 0.0
C2993 C 0.47992 0.84668 0.84823 0.0
C2994 C 0.26437 0.72723 0.87304 0.0
C2995 C 0.29367 0.73501 0.87136 0.0
C2996 C 0.35479 0.76099 0.84568 0.0
C2997 C 0.43519 0.80349 0.85591 0.0
C2998 C 0.40275 0.78729 0.85654 0.0
C2999 C 0.3087 0.74813 0.85911 0.0
C3000 C 0.34103 0.76047 0.85816 0.0
H3001 H 0.49167 0.81829 0.87731 0.0
H3002 H 0.44028 0.78221 0.87385 0.0
H3003 H 0.39555 0.77504 0.83511 0.0
H3004 H 0.25197 0.74632 0.84141 0.0
H3005 H 0.3037 0.76154 0.83868 0.0
C3006 C 0.62984 0.4824 0.84209 0.0
C3007 C 0.64475 0.4904 0.85464 0.0
C3008 C 0.61926 0.4541 0.8369 0.0
C3009 C 0.57487 0.38955 0.8385 0.0
H3010 H 0.60509 0.33787 0.84728 0.0
C3011 C 0.50225 0.27525 0.8597 0.0
C3012 C 0.50516 0.25177 0.85486 0.0
C3013 C 0.52189 0.30383 0.85561 0.0
C3014 C 0.59648 0.352 0.84451 0.0
H3015 H 0.66075 0.47585 0.87156 0.0
H3016 H 0.64303 0.42694 0.86253 0.0
H3017 H 0.63873 0.39079 0.84588 0.0
H3018 H 0.5312 0.23986 0.84202 0.0
H3019 H 0.5662 0.29034 0.8351 0.0
H3020 H 0.53253 0.35102 0.83777 0.0
C3021 C 0.64008 0.44236 0.85637 0.0
C3022 C 0.61568 0.38228 0.84377 0.0
C3023 C 0.6504 0.47047 0.86155 0.0
C3024 C 0.52838 0.25754 0.8459 0.0
C3025 C 0.5484 0.28635 0.84195 0.0
C3026 C 0.55577 0.3594 0.83926 0.0
C3027 C 0.62307 0.43333 0.84435 0.0
C3028 C 0.60486 0.40148 0.84137 0.0
C3029 C 0.54513 0.30972 0.84668 0.0
C3030 C 0.56618 0.34048 0.8429 0.0
H3031 H 0.62464 0.4973 0.8368 0.0
H3032 H 0.60639 0.44786 0.82757 0.0
H3033 H 0.56565 0.40357 0.83673 0.0
H3034 H 0.48463 0.27159 0.8666 0.0
H3035 H 0.51916 0.32146 0.85964 0.0
C3036 C 0.18421 0.65653 0.86689 0.0
C3037 C 0.15951 0.64649 0.85844 0.0
C3038 C 0.20439 0.64726 0.86477 0.0
C3039 C 0.22837 0.60592 0.84329 0.0
H3040 H 0.22931 0.57053 0.87802 0.0
C3041 C 0.26105 0.5164 0.84854 0.0
C3042 C 0.27253 0.51386 0.86112 0.0
C3043 C 0.25234 0.53729 0.84686 0.0
C3044 C 0.23009 0.58081 0.8683 0.0
H3045 H 0.13635 0.61898 0.84112 0.0
H3046 H 0.17171 0.60215 0.83744 0.0
H3047 H 0.20668 0.60051 0.87663 0.0
H3048 H 0.28638 0.53253 0.88138 0.0
H3049 H 0.27279 0.56995 0.87829 0.0
H3050 H 0.25196 0.58611 0.83497 0.0
C3051 C 0.17603 0.61823 0.84536 0.0
C3052 C 0.21691 0.59794 0.8675 0.0
C3053 C 0.15586 0.62783 0.84743 0.0
C3054 C 0.27693 0.53365 0.87169 0.0
C3055 C 0.26898 0.55499 0.8699 0.0
C3056 C 0.2421 0.58904 0.84413 0.0
C3057 C 0.19968 0.62683 0.85445 0.0
C3058 C 0.21575 0.61054 0.85501 0.0
C3059 C 0.25557 0.55643 0.85766 0.0
C3060 C 0.24292 0.57609 0.85666 0.0
H3061 H 0.18651 0.66941 0.87594 0.0
H3062 H 0.22237 0.65413 0.87195 0.0
H3063 H 0.22765 0.61537 0.83354 0.0
H3064 H 0.25753 0.50136 0.84022 0.0
H3065 H 0.24193 0.5375 0.83733 0.0
C3066 C 0.74652 0.29543 0.8716 0.0
C3067 C 0.76052 0.28681 0.86198 0.0
C3068 C 0.71767 0.2889 0.86948 0.0
C3069 C 0.6557 0.2566 0.84394 0.0
H3070 H 0.60913 0.23093 0.87715 0.0
C3071 C 0.53548 0.1638 0.84878 0.0
C3072 C 0.51801 0.16677 0.85876 0.0
C3073 C 0.56409 0.18662 0.84644 0.0
C3074 C 0.62181 0.23859 0.86778 0.0
H3075 H 0.75587 0.26564 0.84236 0.0
H3076 H 0.70504 0.25255 0.83903 0.0
H3077 H 0.66187 0.2554 0.87877 0.0
H3078 H 0.51608 0.19583 0.87386 0.0
H3079 H 0.56578 0.23587 0.86963 0.0
H3080 H 0.61481 0.23726 0.83301 0.0
C3081 C 0.71642 0.26526 0.848 0.0
C3082 C 0.65225 0.25279 0.86869 0.0
C3083 C 0.74554 0.27247 0.84997 0.0
C3084 C 0.52882 0.19344 0.86576 0.0
C3085 C 0.55736 0.21618 0.86347 0.0
C3086 C 0.62507 0.24183 0.84303 0.0
C3087 C 0.70184 0.27282 0.85788 0.0
C3088 C 0.66968 0.26145 0.85679 0.0
C3089 C 0.57574 0.21242 0.85429 0.0
C3090 C 0.60787 0.23223 0.85495 0.0
H3091 H 0.75782 0.30708 0.88082 0.0
H3092 H 0.70763 0.29598 0.87711 0.0
H3093 H 0.66834 0.26347 0.83455 0.0
H3094 H 0.52781 0.14308 0.84356 0.0
H3095 H 0.57791 0.18298 0.83943 0.0
C3096 C 0.37658 0.52673 0.84794 0.0
C3097 C 0.35768 0.51136 0.85882 0.0
C3098 C 0.3861 0.55652 0.846 0.0
C3099 C 0.40537 0.61726 0.8684 0.0
H3100 H 0.41936 0.66454 0.83582 0.0
C3101 C 0.47178 0.74169 0.8727 0.0
C3102 C 0.49201 0.7568 0.86223 0.0
C3103 C 0.45003 0.71252 0.87086 0.0
C3104 C 0.41582 0.65164 0.845 0.0
H3105 H 0.33413 0.5148 0.87621 0.0
H3106 H 0.34935 0.56602 0.87247 0.0
H3107 H 0.38969 0.61102 0.83425 0.0
H3108 H 0.50489 0.75393 0.84146 0.0
H3109 H 0.46804 0.70242 0.8385 0.0
H3110 H 0.43263 0.65692 0.87909 0.0
C3111 C 0.35651 0.55518 0.86529 0.0
C3112 C 0.39869 0.62106 0.84408 0.0
C3113 C 0.34728 0.52568 0.86727 0.0
C3114 C 0.48952 0.74263 0.8497 0.0
C3115 C 0.46821 0.71316 0.84798 0.0
C3116 C 0.42275 0.64756 0.86928 0.0
C3117 C 0.37719 0.57125 0.85511 0.0
C3118 C 0.39336 0.60364 0.8558 0.0
C3119 C 0.44857 0.69752 0.85867 0.0
C3120 C 0.42835 0.66527 0.85762 0.0
H3121 H 0.3857 0.51634 0.84163 0.0
H3122 H 0.40236 0.56853 0.83818 0.0
H3123 H 0.40224 0.60434 0.87755 0.0
H3124 H 0.47286 0.75239 0.88235 0.0
H3125 H 0.43472 0.7016 0.87916 0.0
C3126 C 0.72896 0.47397 0.84367 0.0
C3127 C 0.7245 0.4792 0.85736 0.0
C3128 C 0.73585 0.45222 0.84051 0.0
C3129 C 0.73678 0.38742 0.85471 0.0
H3130 H 0.81086 0.41791 0.83553 0.0
C3131 C 0.82409 0.36191 0.87032 0.0
C3132 C 0.8432 0.36049 0.86078 0.0
C3133 C 0.80194 0.36705 0.86604 0.0
C3134 C 0.78969 0.40857 0.84052 0.0
H3135 H 0.72197 0.46461 0.87836 0.0
H3136 H 0.73385 0.42673 0.87288 0.0
H3137 H 0.78501 0.44542 0.83526 0.0
H3138 H 0.85433 0.36288 0.8393 0.0
H3139 H 0.81541 0.3727 0.83163 0.0
H3140 H 0.7424 0.35149 0.86067 0.0
C3141 C 0.73206 0.43937 0.86456 0.0
C3142 C 0.77491 0.4244 0.84041 0.0
C3143 C 0.72556 0.4613 0.86773 0.0
C3144 C 0.83945 0.36353 0.84676 0.0
C3145 C 0.81732 0.36916 0.84243 0.0
C3146 C 0.75147 0.37154 0.85476 0.0
C3147 C 0.7379 0.43499 0.85096 0.0
C3148 C 0.74914 0.41474 0.84812 0.0
C3149 C 0.7987 0.37151 0.8521 0.0
C3150 C 0.7789 0.3828 0.84832 0.0
H3151 H 0.72812 0.48732 0.83543 0.0
H3152 H 0.74015 0.44926 0.82994 0.0
H3153 H 0.71664 0.37917 0.8605 0.0
H3154 H 0.82694 0.35995 0.88121 0.0
H3155 H 0.78847 0.3693 0.87379 0.0
C3156 C 0.18218 0.53091 0.64336 0.0
C3157 C 0.15744 0.51187 0.65107 0.0
C3158 C 0.20093 0.55947 0.6478 0.0
C3159 C 0.23961 0.62017 0.65973 0.0
H3160 H 0.1904 0.65484 0.66447 0.0
C3161 C 0.28044 0.74632 0.65844 0.0
C3162 C 0.26515 0.75288 0.64853 0.0
C3163 C 0.27081 0.71716 0.66208 0.0
C3164 C 0.20448 0.64548 0.66336 0.0
H3165 H 0.13258 0.50742 0.66943 0.0
H3166 H 0.16526 0.55785 0.67725 0.0
H3167 H 0.16886 0.60197 0.66624 0.0
H3168 H 0.22792 0.73413 0.63469 0.0
H3169 H 0.2109 0.6836 0.64124 0.0
H3170 H 0.27492 0.66394 0.65608 0.0
C3171 C 0.1707 0.55034 0.66796 0.0
C3172 C 0.19224 0.61521 0.66452 0.0
C3173 C 0.15214 0.5215 0.66357 0.0
C3174 C 0.24022 0.72983 0.64232 0.0
C3175 C 0.23033 0.7009 0.64615 0.0
C3176 C 0.25195 0.6506 0.65872 0.0
C3177 C 0.19463 0.56996 0.65982 0.0
C3178 C 0.20938 0.60208 0.66216 0.0
C3179 C 0.24537 0.69428 0.6561 0.0
C3180 C 0.23417 0.66331 0.65995 0.0
H3181 H 0.18572 0.52447 0.63331 0.0
H3182 H 0.2187 0.57409 0.64112 0.0
H3183 H 0.25337 0.61065 0.65791 0.0
H3184 H 0.29979 0.76368 0.66336 0.0
H3185 H 0.28284 0.71253 0.66973 0.0
C3186 C 0.52293 0.26441 0.6592 0.0
C3187 C 0.52194 0.27797 0.64697 0.0
C3188 C 0.54357 0.25537 0.66086 0.0
C3189 C 0.58821 0.23513 0.6393 0.0
H3190 H 0.6191 0.22722 0.67416 0.0
C3191 C 0.65924 0.18348 0.6403 0.0
C3192 C 0.64907 0.1591 0.64895 0.0
C3193 C 0.65064 0.2042 0.64234 0.0
C3194 C 0.61066 0.22943 0.66437 0.0
H3195 H 0.5432 0.29515 0.62744 0.0
H3196 H 0.58 0.28063 0.63053 0.0
H3197 H 0.59132 0.2531 0.67311 0.0
H3198 H 0.62182 0.13693 0.66649 0.0
H3199 H 0.60615 0.1732 0.67003 0.0
H3200 H 0.60711 0.21136 0.63056 0.0
C3201 C 0.5641 0.27568 0.63861 0.0
C3202 C 0.59467 0.24411 0.66375 0.0
C3203 C 0.54311 0.28413 0.63684 0.0
C3204 C 0.63079 0.15619 0.66001 0.0
C3205 C 0.62185 0.17689 0.66201 0.0
C3206 C 0.60435 0.22087 0.6399 0.0
C3207 C 0.56393 0.26021 0.65042 0.0
C3208 C 0.58301 0.24689 0.6512 0.0
C3209 C 0.63072 0.20037 0.65278 0.0
C3210 C 0.61559 0.21766 0.65242 0.0
H3211 H 0.50685 0.25949 0.6672 0.0
H3212 H 0.54257 0.24336 0.67004 0.0
H3213 H 0.57892 0.23595 0.62952 0.0
H3214 H 0.67186 0.18526 0.63123 0.0
H3215 H 0.65783 0.22206 0.63508 0.0
C3216 C 0.47664 0.66233 0.64012 0.0
C3217 C 0.49 0.65043 0.64825 0.0
C3218 C 0.44762 0.65479 0.6424 0.0
C3219 C 0.38184 0.6133 0.66419 0.0
H3220 H 0.34377 0.58437 0.62904 0.0
C3221 C 0.26073 0.52214 0.65861 0.0
C3222 C 0.24571 0.52088 0.64651 0.0
C3223 C 0.28999 0.54399 0.66036 0.0
C3224 C 0.35377 0.59291 0.63892 0.0
H3225 H 0.48388 0.62144 0.66518 0.0
H3226 H 0.43255 0.60758 0.66911 0.0
H3227 H 0.39647 0.61361 0.6301 0.0
H3228 H 0.24826 0.54278 0.62736 0.0
H3229 H 0.29872 0.58174 0.63064 0.0
H3230 H 0.33882 0.59202 0.67302 0.0
C3231 C 0.44494 0.62379 0.66133 0.0
C3232 C 0.38417 0.6097 0.63953 0.0
C3233 C 0.47425 0.63167 0.6591 0.0
C3234 C 0.25966 0.5429 0.63663 0.0
C3235 C 0.28861 0.56515 0.63852 0.0
C3236 C 0.35117 0.5967 0.66357 0.0
C3237 C 0.43101 0.63423 0.65255 0.0
C3238 C 0.3986 0.6197 0.65216 0.0
C3239 C 0.30455 0.56536 0.65015 0.0
C3240 C 0.33678 0.58584 0.65093 0.0
H3241 H 0.48787 0.67557 0.63124 0.0
H3242 H 0.43749 0.66323 0.6355 0.0
H3243 H 0.39245 0.62078 0.67406 0.0
H3244 H 0.25034 0.50541 0.66642 0.0
H3245 H 0.3015 0.54321 0.6694 0.0
C3246 C 0.7261 0.26128 0.63496 0.0
C3247 C 0.73287 0.24715 0.64528 0.0
C3248 C 0.73201 0.28998 0.63681 0.0
C3249 C 0.75854 0.35107 0.66276 0.0
H3250 H 0.78635 0.39864 0.62991 0.0
C3251 C 0.84632 0.4739 0.65843 0.0
C3252 C 0.84185 0.49033 0.64841 0.0
C3253 C 0.82499 0.44466 0.66075 0.0
C3254 C 0.7781 0.3856 0.63915 0.0
H3255 H 0.75035 0.25134 0.66577 0.0
H3256 H 0.76277 0.30214 0.66869 0.0
H3257 H 0.7652 0.34622 0.62815 0.0
H3258 H 0.81152 0.48979 0.63329 0.0
H3259 H 0.77415 0.43886 0.63741 0.0
H3260 H 0.77415 0.39155 0.67377 0.0
C3261 C 0.75179 0.29094 0.65935 0.0
C3262 C 0.76578 0.35535 0.63816 0.0
C3263 C 0.74498 0.26188 0.65764 0.0
C3264 C 0.815 0.47784 0.64142 0.0
C3265 C 0.79379 0.44863 0.64365 0.0
C3266 C 0.77155 0.38158 0.66377 0.0
C3267 C 0.74585 0.30561 0.64885 0.0
C3268 C 0.75616 0.33758 0.64995 0.0
C3269 C 0.79926 0.43139 0.65282 0.0
C3270 C 0.78171 0.39908 0.65197 0.0
H3271 H 0.71613 0.25009 0.62544 0.0
H3272 H 0.72611 0.29999 0.62866 0.0
H3273 H 0.75089 0.3382 0.67205 0.0
H3274 H 0.86722 0.48293 0.66365 0.0
H3275 H 0.82988 0.43173 0.66775 0.0
C3276 C 0.46913 0.73471 0.64028 0.0
C3277 C 0.48881 0.73509 0.65008 0.0
C3278 C 0.44766 0.74151 0.64404 0.0
C3279 C 0.43833 0.7896 0.66611 0.0
H3280 H 0.35673 0.74654 0.65508 0.0
C3281 C 0.37495 0.85035 0.66272 0.0
C3282 C 0.35913 0.84495 0.6505 0.0
C3283 C 0.38322 0.83042 0.66738 0.0
C3284 C 0.37947 0.75894 0.65821 0.0
H3285 H 0.50103 0.74196 0.67157 0.0
H3286 H 0.46417 0.7552 0.67803 0.0
H3287 H 0.38677 0.72331 0.65352 0.0
H3288 H 0.33859 0.81457 0.63375 0.0
H3289 H 0.35358 0.7804 0.64144 0.0
H3290 H 0.43239 0.82614 0.66954 0.0
C3291 C 0.4651 0.74908 0.66751 0.0
C3292 C 0.39654 0.7455 0.6574 0.0
C3293 C 0.48614 0.74158 0.66381 0.0
C3294 C 0.35022 0.81874 0.64341 0.0
C3295 C 0.35887 0.79911 0.64788 0.0
C3296 C 0.42153 0.80329 0.66661 0.0
C3297 C 0.4459 0.74938 0.65762 0.0
C3298 C 0.42633 0.76107 0.66094 0.0
C3299 C 0.37669 0.80532 0.65959 0.0
C3300 C 0.39214 0.78854 0.66216 0.0
H3301 H 0.47051 0.72945 0.62966 0.0
H3302 H 0.43328 0.7419 0.63621 0.0
H3303 H 0.46134 0.80211 0.66881 0.0
H3304 H 0.38233 0.87072 0.66822 0.0
H3305 H 0.39627 0.83564 0.67663 0.0
C3306 C 0.52163 0.37311 0.66442 0.0
C3307 C 0.51309 0.35852 0.6518 0.0
C3308 C 0.55034 0.38406 0.66919 0.0
C3309 C 0.61484 0.42911 0.66697 0.0
H3310 H 0.66657 0.39926 0.65757 0.0
C3311 C 0.72956 0.50247 0.646 0.0
C3312 C 0.75299 0.49952 0.6509 0.0
C3313 C 0.70087 0.48264 0.64989 0.0
C3314 C 0.65243 0.40777 0.66049 0.0
H3315 H 0.52731 0.34376 0.63428 0.0
H3316 H 0.57677 0.3618 0.64265 0.0
H3317 H 0.61363 0.36554 0.65903 0.0
H3318 H 0.76468 0.47316 0.66362 0.0
H3319 H 0.714 0.43782 0.67019 0.0
H3320 H 0.65337 0.47146 0.66776 0.0
C3321 C 0.56147 0.36422 0.64916 0.0
C3322 C 0.62214 0.38852 0.66127 0.0
C3323 C 0.533 0.35362 0.64438 0.0
C3324 C 0.74704 0.47602 0.6597 0.0
C3325 C 0.71812 0.45582 0.66345 0.0
C3326 C 0.645 0.44829 0.66612 0.0
C3327 C 0.57094 0.38086 0.66128 0.0
C3328 C 0.60292 0.39919 0.66397 0.0
C3329 C 0.6948 0.45916 0.65867 0.0
C3330 C 0.66395 0.43801 0.66231 0.0
H3331 H 0.50681 0.37785 0.67009 0.0
H3332 H 0.55695 0.39671 0.67859 0.0
H3333 H 0.60078 0.4382 0.66894 0.0
H3334 H 0.73336 0.52031 0.63922 0.0
H3335 H 0.68329 0.48546 0.64584 0.0
loop_
_geom_bond_atom_site_label_1
_geom_bond_atom_site_label_2
_geom_bond_distance
_geom_bond_site_symmetry_2
_ccdc_geom_bond_type
Zn0 N4 2.020 . S
Zn0 O8 2.019 . S
Zn0 N10 2.119 . S
Zn0 O18 1.975 . S
C1 N2 1.334 . S
C1 N5 1.336 . S
N2 C1 1.334 . S
N2 C3 1.334 . S
C3 N2 1.334 . S
C3 N4 1.336 . S
N4 Zn0 2.020 . S
N4 C3 1.336 . S
N4 N5 1.354 . S
N5 C1 1.336 . S
N5 N4 1.354 . S
N5 Zn9 2.020 . S
C6 O7 1.244 . S
C6 O30 1.257 . S
O7 C6 1.244 . S
O8 Zn0 2.019 . S
O8 C28 1.257 . S
Zn9 N5 2.020 . S
Zn9 O16 1.975 . S
Zn9 N25 2.119 . S
Zn9 O30 2.019 . S
N10 Zn0 2.119 . S
N10 C12 1.334 . S
N10 C13 1.328 . S
C11 C12 1.391 . S
C11 N14 1.329 . S
C11 H32 0.930 . S
C12 N10 1.334 . S
C12 C11 1.391 . S
C12 H19 0.930 . S
C13 N10 1.328 . S
C13 C15 1.392 . S
C13 H20 0.930 . S
N14 C11 1.329 . S
N14 C15 1.331 . S
C15 C13 1.392 . S
C15 N14 1.331 . S
O16 Zn9 1.975 . S
O16 C17 1.252 . S
C17 O16 1.252 . S
C17 O18 1.252 . S
O18 Zn0 1.975 . S
O18 C17 1.252 . S
H19 C12 0.930 . S
H20 C13 0.930 . S
C21 C22 1.392 . S
C21 N25 1.328 . S
C21 H27 0.930 . S
C22 C21 1.392 . S
C22 N26 1.331 . S
C23 C24 1.391 . S
C23 N26 1.329 . S
C23 H33 0.930 . S
C24 C23 1.391 . S
C24 N25 1.334 . S
C24 H31 0.930 . S
N25 Zn9 2.119 . S
N25 C21 1.328 . S
N25 C24 1.334 . S
N26 C22 1.331 . S
N26 C23 1.329 . S
H27 C21 0.930 . S
C28 O8 1.257 . S
C28 O29 1.244 . S
O29 C28 1.244 . S
O30 C6 1.257 . S
O30 Zn9 2.019 . S
H31 C24 0.930 . S
H32 C11 0.930 . S
H33 C23 0.930 . S
Zn34 N38 2.020 . S
Zn34 O42 2.019 . S
Zn34 N44 2.119 . S
Zn34 O52 1.975 . S
C35 N36 1.334 . S
C35 N39 1.336 . S
N36 C35 1.334 . S
N36 C37 1.334 . S
C37 N36 1.334 . S
C37 N38 1.336 . S
N38 Zn34 2.020 . S
N38 C37 1.336 . S
N38 N39 1.354 . S
N39 C35 1.336 . S
N39 N38 1.354 . S
N39 Zn43 2.020 . S
C40 O41 1.244 . S
C40 O64 1.257 . S
O41 C40 1.244 . S
O42 Zn34 2.019 . S
O42 C62 1.257 . S
Zn43 N39 2.020 . S
Zn43 O50 1.975 . S
Zn43 N59 2.119 . S
Zn43 O64 2.019 . S
N44 Zn34 2.119 . S
N44 C46 1.334 . S
N44 C47 1.328 . S
C45 C46 1.391 . S
C45 N48 1.329 . S
C45 H66 0.930 . S
C46 N44 1.334 . S
C46 C45 1.391 . S
C46 H53 0.930 . S
C47 N44 1.328 . S
C47 C49 1.392 . S
C47 H54 0.930 . S
N48 C45 1.329 . S
N48 C49 1.331 . S
C49 C47 1.392 . S
C49 N48 1.331 . S
O50 Zn43 1.975 . S
O50 C51 1.252 . S
C51 O50 1.252 . S
C51 O52 1.252 . S
O52 Zn34 1.975 . S
O52 C51 1.252 . S
H53 C46 0.930 . S
H54 C47 0.930 . S
C55 C56 1.392 . S
C55 N59 1.328 . S
C55 H61 0.930 . S
C56 C55 1.392 . S
C56 N60 1.331 . S
C57 C58 1.391 . S
C57 N60 1.329 . S
C57 H67 0.930 . S
C58 C57 1.391 . S
C58 N59 1.334 . S
C58 H65 0.930 . S
N59 Zn43 2.119 . S
N59 C55 1.328 . S
N59 C58 1.334 . S
N60 C56 1.331 . S
N60 C57 1.329 . S
H61 C55 0.930 . S
C62 O42 1.257 . S
C62 O63 1.244 . S
O63 C62 1.244 . S
O64 C40 1.257 . S
O64 Zn43 2.019 . S
H65 C58 0.930 . S
H66 C45 0.930 . S
H67 C57 0.930 . S
Zn68 N72 2.020 . S
Zn68 O76 2.019 . S
Zn68 N78 2.119 . S
Zn68 O86 1.975 . S
C69 N70 1.334 . S
C69 N73 1.336 . S
N70 C69 1.334 . S
N70 C71 1.334 . S
C71 N70 1.334 . S
C71 N72 1.336 . S
N72 Zn68 2.020 . S
N72 C71 1.336 . S
N72 N73 1.354 . S
N73 C69 1.336 . S
N73 N72 1.354 . S
N73 Zn77 2.020 . S
C74 O75 1.244 . S
C74 O98 1.257 . S
O75 C74 1.244 . S
O76 Zn68 2.019 . S
O76 C96 1.257 . S
Zn77 N73 2.020 . S
Zn77 O84 1.975 . S
Zn77 N93 2.119 . S
Zn77 O98 2.019 . S
N78 Zn68 2.119 . S
N78 C80 1.334 . S
N78 C81 1.328 . S
C79 C80 1.391 . S
C79 N82 1.329 . S
C79 H100 0.930 . S
C80 N78 1.334 . S
C80 C79 1.391 . S
C80 H87 0.930 . S
C81 N78 1.328 . S
C81 C83 1.392 . S
C81 H88 0.930 . S
N82 C79 1.329 . S
N82 C83 1.331 . S
C83 C81 1.392 . S
C83 N82 1.331 . S
O84 Zn77 1.975 . S
O84 C85 1.252 . S
C85 O84 1.252 . S
C85 O86 1.252 . S
O86 Zn68 1.975 . S
O86 C85 1.252 . S
H87 C80 0.930 . S
H88 C81 0.930 . S
C89 C90 1.392 . S
C89 N93 1.328 . S
C89 H95 0.930 . S
C90 C89 1.392 . S
C90 N94 1.331 . S
C91 C92 1.391 . S
C91 N94 1.329 . S
C91 H101 0.930 . S
C92 C91 1.391 . S
C92 N93 1.334 . S
C92 H99 0.930 . S
N93 Zn77 2.119 . S
N93 C89 1.328 . S
N93 C92 1.334 . S
N94 C90 1.331 . S
N94 C91 1.329 . S
H95 C89 0.930 . S
C96 O76 1.257 . S
C96 O97 1.244 . S
O97 C96 1.244 . S
O98 C74 1.257 . S
O98 Zn77 2.019 . S
H99 C92 0.930 . S
H100 C79 0.930 . S
H101 C91 0.930 . S
Zn102 N106 2.020 . S
Zn102 O110 2.019 . S
Zn102 N112 2.119 . S
Zn102 O120 1.975 . S
C103 N104 1.334 . S
C103 N107 1.336 . S
N104 C103 1.334 . S
N104 C105 1.334 . S
C105 N104 1.334 . S
C105 N106 1.336 . S
N106 Zn102 2.020 . S
N106 C105 1.336 . S
N106 N107 1.354 . S
N107 C103 1.336 . S
N107 N106 1.354 . S
N107 Zn111 2.020 . S
C108 O109 1.244 . S
C108 O132 1.257 . S
O109 C108 1.244 . S
O110 Zn102 2.019 . S
O110 C130 1.257 . S
Zn111 N107 2.020 . S
Zn111 O118 1.975 . S
Zn111 N127 2.119 . S
Zn111 O132 2.019 . S
N112 Zn102 2.119 . S
N112 C114 1.334 . S
N112 C115 1.328 . S
C113 C114 1.391 . S
C113 N116 1.329 . S
C113 H134 0.930 . S
C114 N112 1.334 . S
C114 C113 1.391 . S
C114 H121 0.930 . S
C115 N112 1.328 . S
C115 C117 1.392 . S
C115 H122 0.930 . S
N116 C113 1.329 . S
N116 C117 1.331 . S
C117 C115 1.392 . S
C117 N116 1.331 . S
O118 Zn111 1.975 . S
O118 C119 1.252 . S
C119 O118 1.252 . S
C119 O120 1.252 . S
O120 Zn102 1.975 . S
O120 C119 1.252 . S
H121 C114 0.930 . S
H122 C115 0.930 . S
C123 C124 1.392 . S
C123 N127 1.328 . S
C123 H129 0.930 . S
C124 C123 1.392 . S
C124 N128 1.331 . S
C125 C126 1.391 . S
C125 N128 1.329 . S
C125 H135 0.930 . S
C126 C125 1.391 . S
C126 N127 1.334 . S
C126 H133 0.930 . S
N127 Zn111 2.119 . S
N127 C123 1.328 . S
N127 C126 1.334 . S
N128 C124 1.331 . S
N128 C125 1.329 . S
H129 C123 0.930 . S
C130 O110 1.257 . S
C130 O131 1.244 . S
O131 C130 1.244 . S
O132 C108 1.257 . S
O132 Zn111 2.019 . S
H133 C126 0.930 . S
H134 C113 0.930 . S
H135 C125 0.930 . S
Zn136 N140 2.020 . S
Zn136 O144 2.019 . S
Zn136 N146 2.119 . S
Zn136 O154 1.975 . S
C137 N138 1.334 . S
C137 N141 1.336 . S
N138 C137 1.334 . S
N138 C139 1.334 . S
C139 N138 1.334 . S
C139 N140 1.336 . S
N140 Zn136 2.020 . S
N140 C139 1.336 . S
N140 N141 1.354 . S
N141 C137 1.336 . S
N141 N140 1.354 . S
N141 Zn145 2.020 . S
C142 O143 1.244 . S
C142 O166 1.257 . S
O143 C142 1.244 . S
O144 Zn136 2.019 . S
O144 C164 1.257 . S
Zn145 N141 2.020 . S
Zn145 O152 1.975 . S
Zn145 N161 2.119 . S
Zn145 O166 2.019 . S
N146 Zn136 2.119 . S
N146 C148 1.334 . S
N146 C149 1.328 . S
C147 C148 1.391 . S
C147 N150 1.329 . S
C147 H168 0.930 . S
C148 N146 1.334 . S
C148 C147 1.391 . S
C148 H155 0.930 . S
C149 N146 1.328 . S
C149 C151 1.392 . S
C149 H156 0.930 . S
N150 C147 1.329 . S
N150 C151 1.331 . S
C151 C149 1.392 . S
C151 N150 1.331 . S
O152 Zn145 1.975 . S
O152 C153 1.252 . S
C153 O152 1.252 . S
C153 O154 1.252 . S
O154 Zn136 1.975 . S
O154 C153 1.252 . S
H155 C148 0.930 . S
H156 C149 0.930 . S
C157 C158 1.392 . S
C157 N161 1.328 . S
C157 H163 0.930 . S
C158 C157 1.392 . S
C158 N162 1.331 . S
C159 C160 1.391 . S
C159 N162 1.329 . S
C159 H169 0.930 . S
C160 C159 1.391 . S
C160 N161 1.334 . S
C160 H167 0.930 . S
N161 Zn145 2.119 . S
N161 C157 1.328 . S
N161 C160 1.334 . S
N162 C158 1.331 . S
N162 C159 1.329 . S
H163 C157 0.930 . S
C164 O144 1.257 . S
C164 O165 1.244 . S
O165 C164 1.244 . S
O166 C142 1.257 . S
O166 Zn145 2.019 . S
H167 C160 0.930 . S
H168 C147 0.930 . S
H169 C159 0.930 . S
Zn170 N174 2.020 . S
Zn170 O178 2.019 . S
Zn170 N180 2.119 . S
Zn170 O188 1.975 . S
C171 N172 1.334 . S
C171 N175 1.336 . S
N172 C171 1.334 . S
N172 C173 1.334 . S
C173 N172 1.334 . S
C173 N174 1.336 . S
N174 Zn170 2.020 . S
N174 C173 1.336 . S
N174 N175 1.354 . S
N175 C171 1.336 . S
N175 N174 1.354 . S
N175 Zn179 2.020 . S
C176 O177 1.244 . S
C176 O200 1.257 . S
O177 C176 1.244 . S
O178 Zn170 2.019 . S
O178 C198 1.257 . S
Zn179 N175 2.020 . S
Zn179 O186 1.975 . S
Zn179 N195 2.119 . S
Zn179 O200 2.019 . S
N180 Zn170 2.119 . S
N180 C182 1.334 . S
N180 C183 1.328 . S
C181 C182 1.391 . S
C181 N184 1.329 . S
C181 H202 0.930 . S
C182 N180 1.334 . S
C182 C181 1.391 . S
C182 H189 0.930 . S
C183 N180 1.328 . S
C183 C185 1.392 . S
C183 H190 0.930 . S
N184 C181 1.329 . S
N184 C185 1.331 . S
C185 C183 1.392 . S
C185 N184 1.331 . S
O186 Zn179 1.975 . S
O186 C187 1.252 . S
C187 O186 1.252 . S
C187 O188 1.252 . S
O188 Zn170 1.975 . S
O188 C187 1.252 . S
H189 C182 0.930 . S
H190 C183 0.930 . S
C191 C192 1.392 . S
C191 N195 1.328 . S
C191 H197 0.930 . S
C192 C191 1.392 . S
C192 N196 1.331 . S
C193 C194 1.391 . S
C193 N196 1.329 . S
C193 H203 0.930 . S
C194 C193 1.391 . S
C194 N195 1.334 . S
C194 H201 0.930 . S
N195 Zn179 2.119 . S
N195 C191 1.328 . S
N195 C194 1.334 . S
N196 C192 1.331 . S
N196 C193 1.329 . S
H197 C191 0.930 . S
C198 O178 1.257 . S
C198 O199 1.244 . S
O199 C198 1.244 . S
O200 C176 1.257 . S
O200 Zn179 2.019 . S
H201 C194 0.930 . S
H202 C181 0.930 . S
H203 C193 0.930 . S
Zn204 N208 2.020 . S
Zn204 O212 2.019 . S
Zn204 N214 2.119 . S
Zn204 O222 1.975 . S
C205 N206 1.334 . S
C205 N209 1.336 . S
N206 C205 1.334 . S
N206 C207 1.334 . S
C207 N206 1.334 . S
C207 N208 1.336 . S
N208 Zn204 2.020 . S
N208 C207 1.336 . S
N208 N209 1.354 . S
N209 C205 1.336 . S
N209 N208 1.354 . S
N209 Zn213 2.020 . S
C210 O211 1.244 . S
C210 O234 1.257 . S
O211 C210 1.244 . S
O212 Zn204 2.019 . S
O212 C232 1.257 . S
Zn213 N209 2.020 . S
Zn213 O220 1.975 . S
Zn213 N229 2.119 . S
Zn213 O234 2.019 . S
N214 Zn204 2.119 . S
N214 C216 1.334 . S
N214 C217 1.328 . S
C215 C216 1.391 . S
C215 N218 1.329 . S
C215 H236 0.930 . S
C216 N214 1.334 . S
C216 C215 1.391 . S
C216 H223 0.930 . S
C217 N214 1.328 . S
C217 C219 1.392 . S
C217 H224 0.930 . S
N218 C215 1.329 . S
N218 C219 1.331 . S
C219 C217 1.392 . S
C219 N218 1.331 . S
O220 Zn213 1.975 . S
O220 C221 1.252 . S
C221 O220 1.252 . S
C221 O222 1.252 . S
O222 Zn204 1.975 . S
O222 C221 1.252 . S
H223 C216 0.930 . S
H224 C217 0.930 . S
C225 C226 1.392 . S
C225 N229 1.328 . S
C225 H231 0.930 . S
C226 C225 1.392 . S
C226 N230 1.331 . S
C227 C228 1.391 . S
C227 N230 1.329 . S
C227 H237 0.930 . S
C228 C227 1.391 . S
C228 N229 1.334 . S
C228 H235 0.930 . S
N229 Zn213 2.119 . S
N229 C225 1.328 . S
N229 C228 1.334 . S
N230 C226 1.331 . S
N230 C227 1.329 . S
H231 C225 0.930 . S
C232 O212 1.257 . S
C232 O233 1.244 . S
O233 C232 1.244 . S
O234 C210 1.257 . S
O234 Zn213 2.019 . S
H235 C228 0.930 . S
H236 C215 0.930 . S
H237 C227 0.930 . S
Zn238 N242 2.020 . S
Zn238 O246 2.019 . S
Zn238 N248 2.119 . S
Zn238 O256 1.975 . S
C239 N240 1.334 . S
C239 N243 1.336 . S
N240 C239 1.334 . S
N240 C241 1.334 . S
C241 N240 1.334 . S
C241 N242 1.336 . S
N242 Zn238 2.020 . S
N242 C241 1.336 . S
N242 N243 1.354 . S
N243 C239 1.336 . S
N243 N242 1.354 . S
N243 Zn247 2.020 . S
C244 O245 1.244 . S
C244 O268 1.257 . S
O245 C244 1.244 . S
O246 Zn238 2.019 . S
O246 C266 1.257 . S
Zn247 N243 2.020 . S
Zn247 O254 1.975 . S
Zn247 N263 2.119 . S
Zn247 O268 2.019 . S
N248 Zn238 2.119 . S
N248 C250 1.334 . S
N248 C251 1.328 . S
C249 C250 1.391 . S
C249 N252 1.329 . S
C249 H270 0.930 . S
C250 N248 1.334 . S
C250 C249 1.391 . S
C250 H257 0.930 . S
C251 N248 1.328 . S
C251 C253 1.392 . S
C251 H258 0.930 . S
N252 C249 1.329 . S
N252 C253 1.331 . S
C253 C251 1.392 . S
C253 N252 1.331 . S
O254 Zn247 1.975 . S
O254 C255 1.252 . S
C255 O254 1.252 . S
C255 O256 1.252 . S
O256 Zn238 1.975 . S
O256 C255 1.252 . S
H257 C250 0.930 . S
H258 C251 0.930 . S
C259 C260 1.392 . S
C259 N263 1.328 . S
C259 H265 0.930 . S
C260 C259 1.392 . S
C260 N264 1.331 . S
C261 C262 1.391 . S
C261 N264 1.329 . S
C261 H271 0.930 . S
C262 C261 1.391 . S
C262 N263 1.334 . S
C262 H269 0.930 . S
N263 Zn247 2.119 . S
N263 C259 1.328 . S
N263 C262 1.334 . S
N264 C260 1.331 . S
N264 C261 1.329 . S
H265 C259 0.930 . S
C266 O246 1.257 . S
C266 O267 1.244 . S
O267 C266 1.244 . S
O268 C244 1.257 . S
O268 Zn247 2.019 . S
H269 C262 0.930 . S
H270 C249 0.930 . S
H271 C261 0.930 . S
Zn272 N276 2.020 . S
Zn272 O280 2.019 . S
Zn272 N282 2.119 . S
Zn272 O290 1.975 . S
C273 N274 1.334 . S
C273 N277 1.336 . S
N274 C273 1.334 . S
N274 C275 1.334 . S
C275 N274 1.334 . S
C275 N276 1.336 . S
N276 Zn272 2.020 . S
N276 C275 1.336 . S
N276 N277 1.354 . S
N277 C273 1.336 . S
N277 N276 1.354 . S
N277 Zn281 2.020 . S
C278 O279 1.244 . S
C278 O302 1.257 . S
O279 C278 1.244 . S
O280 Zn272 2.019 . S
O280 C300 1.257 . S
Zn281 N277 2.020 . S
Zn281 O288 1.975 . S
Zn281 N297 2.119 . S
Zn281 O302 2.019 . S
N282 Zn272 2.119 . S
N282 C284 1.334 . S
N282 C285 1.328 . S
C283 C284 1.391 . S
C283 N286 1.329 . S
C283 H304 0.930 . S
C284 N282 1.334 . S
C284 C283 1.391 . S
C284 H291 0.930 . S
C285 N282 1.328 . S
C285 C287 1.392 . S
C285 H292 0.930 . S
N286 C283 1.329 . S
N286 C287 1.331 . S
C287 C285 1.392 . S
C287 N286 1.331 . S
O288 Zn281 1.975 . S
O288 C289 1.252 . S
C289 O288 1.252 . S
C289 O290 1.252 . S
O290 Zn272 1.975 . S
O290 C289 1.252 . S
H291 C284 0.930 . S
H292 C285 0.930 . S
C293 C294 1.392 . S
C293 N297 1.328 . S
C293 H299 0.930 . S
C294 C293 1.392 . S
C294 N298 1.331 . S
C295 C296 1.391 . S
C295 N298 1.329 . S
C295 H305 0.930 . S
C296 C295 1.391 . S
C296 N297 1.334 . S
C296 H303 0.930 . S
N297 Zn281 2.119 . S
N297 C293 1.328 . S
N297 C296 1.334 . S
N298 C294 1.331 . S
N298 C295 1.329 . S
H299 C293 0.930 . S
C300 O280 1.257 . S
C300 O301 1.244 . S
O301 C300 1.244 . S
O302 C278 1.257 . S
O302 Zn281 2.019 . S
H303 C296 0.930 . S
H304 C283 0.930 . S
H305 C295 0.930 . S
Zn306 N310 2.020 . S
Zn306 O314 2.019 . S
Zn306 N316 2.119 . S
Zn306 O324 1.975 . S
C307 N308 1.334 . S
C307 N311 1.336 . S
N308 C307 1.334 . S
N308 C309 1.334 . S
C309 N308 1.334 . S
C309 N310 1.336 . S
N310 Zn306 2.020 . S
N310 C309 1.336 . S
N310 N311 1.354 . S
N311 C307 1.336 . S
N311 N310 1.354 . S
N311 Zn315 2.020 . S
C312 O313 1.244 . S
C312 O336 1.257 . S
O313 C312 1.244 . S
O314 Zn306 2.019 . S
O314 C334 1.257 . S
Zn315 N311 2.020 . S
Zn315 O322 1.975 . S
Zn315 N331 2.119 . S
Zn315 O336 2.019 . S
N316 Zn306 2.119 . S
N316 C318 1.334 . S
N316 C319 1.328 . S
C317 C318 1.391 . S
C317 N320 1.329 . S
C317 H338 0.930 . S
C318 N316 1.334 . S
C318 C317 1.391 . S
C318 H325 0.930 . S
C319 N316 1.328 . S
C319 C321 1.392 . S
C319 H326 0.930 . S
N320 C317 1.329 . S
N320 C321 1.331 . S
C321 C319 1.392 . S
C321 N320 1.331 . S
O322 Zn315 1.975 . S
O322 C323 1.252 . S
C323 O322 1.252 . S
C323 O324 1.252 . S
O324 Zn306 1.975 . S
O324 C323 1.252 . S
H325 C318 0.930 . S
H326 C319 0.930 . S
C327 C328 1.392 . S
C327 N331 1.328 . S
C327 H333 0.930 . S
C328 C327 1.392 . S
C328 N332 1.331 . S
C329 C330 1.391 . S
C329 N332 1.329 . S
C329 H339 0.930 . S
C330 C329 1.391 . S
C330 N331 1.334 . S
C330 H337 0.930 . S
N331 Zn315 2.119 . S
N331 C327 1.328 . S
N331 C330 1.334 . S
N332 C328 1.331 . S
N332 C329 1.329 . S
H333 C327 0.930 . S
C334 O314 1.257 . S
C334 O335 1.244 . S
O335 C334 1.244 . S
O336 C312 1.257 . S
O336 Zn315 2.019 . S
H337 C330 0.930 . S
H338 C317 0.930 . S
H339 C329 0.930 . S
Zn340 N344 2.020 . S
Zn340 O348 2.019 . S
Zn340 N350 2.119 . S
Zn340 O358 1.975 . S
C341 N342 1.334 . S
C341 N345 1.336 . S
N342 C341 1.334 . S
N342 C343 1.334 . S
C343 N342 1.334 . S
C343 N344 1.336 . S
N344 Zn340 2.020 . S
N344 C343 1.336 . S
N344 N345 1.354 . S
N345 C341 1.336 . S
N345 N344 1.354 . S
N345 Zn349 2.020 . S
C346 O347 1.244 . S
C346 O370 1.257 . S
O347 C346 1.244 . S
O348 Zn340 2.019 . S
O348 C368 1.257 . S
Zn349 N345 2.020 . S
Zn349 O356 1.975 . S
Zn349 N365 2.119 . S
Zn349 O370 2.019 . S
N350 Zn340 2.119 . S
N350 C352 1.334 . S
N350 C353 1.328 . S
C351 C352 1.391 . S
C351 N354 1.329 . S
C351 H372 0.930 . S
C352 N350 1.334 . S
C352 C351 1.391 . S
C352 H359 0.930 . S
C353 N350 1.328 . S
C353 C355 1.392 . S
C353 H360 0.930 . S
N354 C351 1.329 . S
N354 C355 1.331 . S
C355 C353 1.392 . S
C355 N354 1.331 . S
O356 Zn349 1.975 . S
O356 C357 1.252 . S
C357 O356 1.252 . S
C357 O358 1.252 . S
O358 Zn340 1.975 . S
O358 C357 1.252 . S
H359 C352 0.930 . S
H360 C353 0.930 . S
C361 C362 1.392 . S
C361 N365 1.328 . S
C361 H367 0.930 . S
C362 C361 1.392 . S
C362 N366 1.331 . S
C363 C364 1.391 . S
C363 N366 1.329 . S
C363 H373 0.930 . S
C364 C363 1.391 . S
C364 N365 1.334 . S
C364 H371 0.930 . S
N365 Zn349 2.119 . S
N365 C361 1.328 . S
N365 C364 1.334 . S
N366 C362 1.331 . S
N366 C363 1.329 . S
H367 C361 0.930 . S
C368 O348 1.257 . S
C368 O369 1.244 . S
O369 C368 1.244 . S
O370 C346 1.257 . S
O370 Zn349 2.019 . S
H371 C364 0.930 . S
H372 C351 0.930 . S
H373 C363 0.930 . S
Zn374 N378 2.020 . S
Zn374 O382 2.019 . S
Zn374 N384 2.119 . S
Zn374 O392 1.975 . S
C375 N376 1.334 . S
C375 N379 1.336 . S
N376 C375 1.334 . S
N376 C377 1.334 . S
C377 N376 1.334 . S
C377 N378 1.336 . S
N378 Zn374 2.020 . S
N378 C377 1.336 . S
N378 N379 1.354 . S
N379 C375 1.336 . S
N379 N378 1.354 . S
N379 Zn383 2.020 . S
C380 O381 1.244 . S
C380 O404 1.257 . S
O381 C380 1.244 . S
O382 Zn374 2.019 . S
O382 C402 1.257 . S
Zn383 N379 2.020 . S
Zn383 O390 1.975 . S
Zn383 N399 2.119 . S
Zn383 O404 2.019 . S
N384 Zn374 2.119 . S
N384 C386 1.334 . S
N384 C387 1.328 . S
C385 C386 1.391 . S
C385 N388 1.329 . S
C385 H406 0.930 . S
C386 N384 1.334 . S
C386 C385 1.391 . S
C386 H393 0.930 . S
C387 N384 1.328 . S
C387 C389 1.392 . S
C387 H394 0.930 . S
N388 C385 1.329 . S
N388 C389 1.331 . S
C389 C387 1.392 . S
C389 N388 1.331 . S
O390 Zn383 1.975 . S
O390 C391 1.252 . S
C391 O390 1.252 . S
C391 O392 1.252 . S
O392 Zn374 1.975 . S
O392 C391 1.252 . S
H393 C386 0.930 . S
H394 C387 0.930 . S
C395 C396 1.392 . S
C395 N399 1.328 . S
C395 H401 0.930 . S
C396 C395 1.392 . S
C396 N400 1.331 . S
C397 C398 1.391 . S
C397 N400 1.329 . S
C397 H407 0.930 . S
C398 C397 1.391 . S
C398 N399 1.334 . S
C398 H405 0.930 . S
N399 Zn383 2.119 . S
N399 C395 1.328 . S
N399 C398 1.334 . S
N400 C396 1.331 . S
N400 C397 1.329 . S
H401 C395 0.930 . S
C402 O382 1.257 . S
C402 O403 1.244 . S
O403 C402 1.244 . S
O404 C380 1.257 . S
O404 Zn383 2.019 . S
H405 C398 0.930 . S
H406 C385 0.930 . S
H407 C397 0.930 . S
Zn408 N412 2.020 . S
Zn408 O416 2.019 . S
Zn408 N418 2.119 . S
Zn408 O426 1.975 . S
C409 N410 1.334 . S
C409 N413 1.336 . S
N410 C409 1.334 . S
N410 C411 1.334 . S
C411 N410 1.334 . S
C411 N412 1.336 . S
N412 Zn408 2.020 . S
N412 C411 1.336 . S
N412 N413 1.354 . S
N413 C409 1.336 . S
N413 N412 1.354 . S
N413 Zn417 2.020 . S
C414 O415 1.244 . S
C414 O438 1.257 . S
O415 C414 1.244 . S
O416 Zn408 2.019 . S
O416 C436 1.257 . S
Zn417 N413 2.020 . S
Zn417 O424 1.975 . S
Zn417 N433 2.119 . S
Zn417 O438 2.019 . S
N418 Zn408 2.119 . S
N418 C420 1.334 . S
N418 C421 1.328 . S
C419 C420 1.391 . S
C419 N422 1.329 . S
C419 H440 0.930 . S
C420 N418 1.334 . S
C420 C419 1.391 . S
C420 H427 0.930 . S
C421 N418 1.328 . S
C421 C423 1.392 . S
C421 H428 0.930 . S
N422 C419 1.329 . S
N422 C423 1.331 . S
C423 C421 1.392 . S
C423 N422 1.331 . S
O424 Zn417 1.975 . S
O424 C425 1.252 . S
C425 O424 1.252 . S
C425 O426 1.252 . S
O426 Zn408 1.975 . S
O426 C425 1.252 . S
H427 C420 0.930 . S
H428 C421 0.930 . S
C429 C430 1.392 . S
C429 N433 1.328 . S
C429 H435 0.930 . S
C430 C429 1.392 . S
C430 N434 1.331 . S
C431 C432 1.391 . S
C431 N434 1.329 . S
C431 H441 0.930 . S
C432 C431 1.391 . S
C432 N433 1.334 . S
C432 H439 0.930 . S
N433 Zn417 2.119 . S
N433 C429 1.328 . S
N433 C432 1.334 . S
N434 C430 1.331 . S
N434 C431 1.329 . S
H435 C429 0.930 . S
C436 O416 1.257 . S
C436 O437 1.244 . S
O437 C436 1.244 . S
O438 C414 1.257 . S
O438 Zn417 2.019 . S
H439 C432 0.930 . S
H440 C419 0.930 . S
H441 C431 0.930 . S
Zn442 N446 2.020 . S
Zn442 O450 2.019 . S
Zn442 N452 2.119 . S
Zn442 O460 1.975 . S
C443 N444 1.334 . S
C443 N447 1.336 . S
N444 C443 1.334 . S
N444 C445 1.334 . S
C445 N444 1.334 . S
C445 N446 1.336 . S
N446 Zn442 2.020 . S
N446 C445 1.336 . S
N446 N447 1.354 . S
N447 C443 1.336 . S
N447 N446 1.354 . S
N447 Zn451 2.020 . S
C448 O449 1.244 . S
C448 O472 1.257 . S
O449 C448 1.244 . S
O450 Zn442 2.019 . S
O450 C470 1.257 . S
Zn451 N447 2.020 . S
Zn451 O458 1.975 . S
Zn451 N467 2.119 . S
Zn451 O472 2.019 . S
N452 Zn442 2.119 . S
N452 C454 1.334 . S
N452 C455 1.328 . S
C453 C454 1.391 . S
C453 N456 1.329 . S
C453 H474 0.930 . S
C454 N452 1.334 . S
C454 C453 1.391 . S
C454 H461 0.930 . S
C455 N452 1.328 . S
C455 C457 1.392 . S
C455 H462 0.930 . S
N456 C453 1.329 . S
N456 C457 1.331 . S
C457 C455 1.392 . S
C457 N456 1.331 . S
O458 Zn451 1.975 . S
O458 C459 1.252 . S
C459 O458 1.252 . S
C459 O460 1.252 . S
O460 Zn442 1.975 . S
O460 C459 1.252 . S
H461 C454 0.930 . S
H462 C455 0.930 . S
C463 C464 1.392 . S
C463 N467 1.328 . S
C463 H469 0.930 . S
C464 C463 1.392 . S
C464 N468 1.331 . S
C465 C466 1.391 . S
C465 N468 1.329 . S
C465 H475 0.930 . S
C466 C465 1.391 . S
C466 N467 1.334 . S
C466 H473 0.930 . S
N467 Zn451 2.119 . S
N467 C463 1.328 . S
N467 C466 1.334 . S
N468 C464 1.331 . S
N468 C465 1.329 . S
H469 C463 0.930 . S
C470 O450 1.257 . S
C470 O471 1.244 . S
O471 C470 1.244 . S
O472 C448 1.257 . S
O472 Zn451 2.019 . S
H473 C466 0.930 . S
H474 C453 0.930 . S
H475 C465 0.930 . S
Zn476 N480 2.020 . S
Zn476 O484 2.019 . S
Zn476 N486 2.119 . S
Zn476 O494 1.975 . S
C477 N478 1.334 . S
C477 N481 1.336 . S
N478 C477 1.334 . S
N478 C479 1.334 . S
C479 N478 1.334 . S
C479 N480 1.336 . S
N480 Zn476 2.020 . S
N480 C479 1.336 . S
N480 N481 1.354 . S
N481 C477 1.336 . S
N481 N480 1.354 . S
N481 Zn485 2.020 . S
C482 O483 1.244 . S
C482 O506 1.257 . S
O483 C482 1.244 . S
O484 Zn476 2.019 . S
O484 C504 1.257 . S
Zn485 N481 2.020 . S
Zn485 O492 1.975 . S
Zn485 N501 2.119 . S
Zn485 O506 2.019 . S
N486 Zn476 2.119 . S
N486 C488 1.334 . S
N486 C489 1.328 . S
C487 C488 1.391 . S
C487 N490 1.329 . S
C487 H508 0.930 . S
C488 N486 1.334 . S
C488 C487 1.391 . S
C488 H495 0.930 . S
C489 N486 1.328 . S
C489 C491 1.392 . S
C489 H496 0.930 . S
N490 C487 1.329 . S
N490 C491 1.331 . S
C491 C489 1.392 . S
C491 N490 1.331 . S
O492 Zn485 1.975 . S
O492 C493 1.252 . S
C493 O492 1.252 . S
C493 O494 1.252 . S
O494 Zn476 1.975 . S
O494 C493 1.252 . S
H495 C488 0.930 . S
H496 C489 0.930 . S
C497 C498 1.392 . S
C497 N501 1.328 . S
C497 H503 0.930 . S
C498 C497 1.392 . S
C498 N502 1.331 . S
C499 C500 1.391 . S
C499 N502 1.329 . S
C499 H509 0.930 . S
C500 C499 1.391 . S
C500 N501 1.334 . S
C500 H507 0.930 . S
N501 Zn485 2.119 . S
N501 C497 1.328 . S
N501 C500 1.334 . S
N502 C498 1.331 . S
N502 C499 1.329 . S
H503 C497 0.930 . S
C504 O484 1.257 . S
C504 O505 1.244 . S
O505 C504 1.244 . S
O506 C482 1.257 . S
O506 Zn485 2.019 . S
H507 C500 0.930 . S
H508 C487 0.930 . S
H509 C499 0.930 . S
Zn510 N514 2.020 . S
Zn510 O518 2.019 . S
Zn510 N520 2.119 . S
Zn510 O528 1.975 . S
C511 N512 1.334 . S
C511 N515 1.336 . S
N512 C511 1.334 . S
N512 C513 1.334 . S
C513 N512 1.334 . S
C513 N514 1.336 . S
N514 Zn510 2.020 . S
N514 C513 1.336 . S
N514 N515 1.354 . S
N515 C511 1.336 . S
N515 N514 1.354 . S
N515 Zn519 2.020 . S
C516 O517 1.244 . S
C516 O540 1.257 . S
O517 C516 1.244 . S
O518 Zn510 2.019 . S
O518 C538 1.257 . S
Zn519 N515 2.020 . S
Zn519 O526 1.975 . S
Zn519 N535 2.119 . S
Zn519 O540 2.019 . S
N520 Zn510 2.119 . S
N520 C522 1.334 . S
N520 C523 1.328 . S
C521 C522 1.391 . S
C521 N524 1.329 . S
C521 H542 0.930 . S
C522 N520 1.334 . S
C522 C521 1.391 . S
C522 H529 0.930 . S
C523 N520 1.328 . S
C523 C525 1.392 . S
C523 H530 0.930 . S
N524 C521 1.329 . S
N524 C525 1.331 . S
C525 C523 1.392 . S
C525 N524 1.331 . S
O526 Zn519 1.975 . S
O526 C527 1.252 . S
C527 O526 1.252 . S
C527 O528 1.252 . S
O528 Zn510 1.975 . S
O528 C527 1.252 . S
H529 C522 0.930 . S
H530 C523 0.930 . S
C531 C532 1.392 . S
C531 N535 1.328 . S
C531 H537 0.930 . S
C532 C531 1.392 . S
C532 N536 1.331 . S
C533 C534 1.391 . S
C533 N536 1.329 . S
C533 H543 0.930 . S
C534 C533 1.391 . S
C534 N535 1.334 . S
C534 H541 0.930 . S
N535 Zn519 2.119 . S
N535 C531 1.328 . S
N535 C534 1.334 . S
N536 C532 1.331 . S
N536 C533 1.329 . S
H537 C531 0.930 . S
C538 O518 1.257 . S
C538 O539 1.244 . S
O539 C538 1.244 . S
O540 C516 1.257 . S
O540 Zn519 2.019 . S
H541 C534 0.930 . S
H542 C521 0.930 . S
H543 C533 0.930 . S
Zn544 N548 2.020 . S
Zn544 O552 2.019 . S
Zn544 N554 2.119 . S
Zn544 O562 1.975 . S
C545 N546 1.334 . S
C545 N549 1.336 . S
N546 C545 1.334 . S
N546 C547 1.334 . S
C547 N546 1.334 . S
C547 N548 1.336 . S
N548 Zn544 2.020 . S
N548 C547 1.336 . S
N548 N549 1.354 . S
N549 C545 1.336 . S
N549 N548 1.354 . S
N549 Zn553 2.020 . S
C550 O551 1.244 . S
C550 O574 1.257 . S
O551 C550 1.244 . S
O552 Zn544 2.019 . S
O552 C572 1.257 . S
Zn553 N549 2.020 . S
Zn553 O560 1.975 . S
Zn553 N569 2.119 . S
Zn553 O574 2.019 . S
N554 Zn544 2.119 . S
N554 C556 1.334 . S
N554 C557 1.328 . S
C555 C556 1.391 . S
C555 N558 1.329 . S
C555 H576 0.930 . S
C556 N554 1.334 . S
C556 C555 1.391 . S
C556 H563 0.930 . S
C557 N554 1.328 . S
C557 C559 1.392 . S
C557 H564 0.930 . S
N558 C555 1.329 . S
N558 C559 1.331 . S
C559 C557 1.392 . S
C559 N558 1.331 . S
O560 Zn553 1.975 . S
O560 C561 1.252 . S
C561 O560 1.252 . S
C561 O562 1.252 . S
O562 Zn544 1.975 . S
O562 C561 1.252 . S
H563 C556 0.930 . S
H564 C557 0.930 . S
C565 C566 1.392 . S
C565 N569 1.328 . S
C565 H571 0.930 . S
C566 C565 1.392 . S
C566 N570 1.331 . S
C567 C568 1.391 . S
C567 N570 1.329 . S
C567 H577 0.930 . S
C568 C567 1.391 . S
C568 N569 1.334 . S
C568 H575 0.930 . S
N569 Zn553 2.119 . S
N569 C565 1.328 . S
N569 C568 1.334 . S
N570 C566 1.331 . S
N570 C567 1.329 . S
H571 C565 0.930 . S
C572 O552 1.257 . S
C572 O573 1.244 . S
O573 C572 1.244 . S
O574 C550 1.257 . S
O574 Zn553 2.019 . S
H575 C568 0.930 . S
H576 C555 0.930 . S
H577 C567 0.930 . S
Zn578 N582 2.020 . S
Zn578 O586 2.019 . S
Zn578 N588 2.119 . S
Zn578 O596 1.975 . S
C579 N580 1.334 . S
C579 N583 1.336 . S
N580 C579 1.334 . S
N580 C581 1.334 . S
C581 N580 1.334 . S
C581 N582 1.336 . S
N582 Zn578 2.020 . S
N582 C581 1.336 . S
N582 N583 1.354 . S
N583 C579 1.336 . S
N583 N582 1.354 . S
N583 Zn587 2.020 . S
C584 O585 1.244 . S
C584 O608 1.257 . S
O585 C584 1.244 . S
O586 Zn578 2.019 . S
O586 C606 1.257 . S
Zn587 N583 2.020 . S
Zn587 O594 1.975 . S
Zn587 N603 2.119 . S
Zn587 O608 2.019 . S
N588 Zn578 2.119 . S
N588 C590 1.334 . S
N588 C591 1.328 . S
C589 C590 1.391 . S
C589 N592 1.329 . S
C589 H610 0.930 . S
C590 N588 1.334 . S
C590 C589 1.391 . S
C590 H597 0.930 . S
C591 N588 1.328 . S
C591 C593 1.392 . S
C591 H598 0.930 . S
N592 C589 1.329 . S
N592 C593 1.331 . S
C593 C591 1.392 . S
C593 N592 1.331 . S
O594 Zn587 1.975 . S
O594 C595 1.252 . S
C595 O594 1.252 . S
C595 O596 1.252 . S
O596 Zn578 1.975 . S
O596 C595 1.252 . S
H597 C590 0.930 . S
H598 C591 0.930 . S
C599 C600 1.392 . S
C599 N603 1.328 . S
C599 H605 0.930 . S
C600 C599 1.392 . S
C600 N604 1.331 . S
C601 C602 1.391 . S
C601 N604 1.329 . S
C601 H611 0.930 . S
C602 C601 1.391 . S
C602 N603 1.334 . S
C602 H609 0.930 . S
N603 Zn587 2.119 . S
N603 C599 1.328 . S
N603 C602 1.334 . S
N604 C600 1.331 . S
N604 C601 1.329 . S
H605 C599 0.930 . S
C606 O586 1.257 . S
C606 O607 1.244 . S
O607 C606 1.244 . S
O608 C584 1.257 . S
O608 Zn587 2.019 . S
H609 C602 0.930 . S
H610 C589 0.930 . S
H611 C601 0.930 . S
Zn612 N616 2.020 . S
Zn612 O620 2.019 . S
Zn612 N622 2.119 . S
Zn612 O630 1.975 . S
C613 N614 1.334 . S
C613 N617 1.336 . S
N614 C613 1.334 . S
N614 C615 1.334 . S
C615 N614 1.334 . S
C615 N616 1.336 . S
N616 Zn612 2.020 . S
N616 C615 1.336 . S
N616 N617 1.354 . S
N617 C613 1.336 . S
N617 N616 1.354 . S
N617 Zn621 2.020 . S
C618 O619 1.244 . S
C618 O642 1.257 . S
O619 C618 1.244 . S
O620 Zn612 2.019 . S
O620 C640 1.257 . S
Zn621 N617 2.020 . S
Zn621 O628 1.975 . S
Zn621 N637 2.119 . S
Zn621 O642 2.019 . S
N622 Zn612 2.119 . S
N622 C624 1.334 . S
N622 C625 1.328 . S
C623 C624 1.391 . S
C623 N626 1.329 . S
C623 H644 0.930 . S
C624 N622 1.334 . S
C624 C623 1.391 . S
C624 H631 0.930 . S
C625 N622 1.328 . S
C625 C627 1.392 . S
C625 H632 0.930 . S
N626 C623 1.329 . S
N626 C627 1.331 . S
C627 C625 1.392 . S
C627 N626 1.331 . S
O628 Zn621 1.975 . S
O628 C629 1.252 . S
C629 O628 1.252 . S
C629 O630 1.252 . S
O630 Zn612 1.975 . S
O630 C629 1.252 . S
H631 C624 0.930 . S
H632 C625 0.930 . S
C633 C634 1.392 . S
C633 N637 1.328 . S
C633 H639 0.930 . S
C634 C633 1.392 . S
C634 N638 1.331 . S
C635 C636 1.391 . S
C635 N638 1.329 . S
C635 H645 0.930 . S
C636 C635 1.391 . S
C636 N637 1.334 . S
C636 H643 0.930 . S
N637 Zn621 2.119 . S
N637 C633 1.328 . S
N637 C636 1.334 . S
N638 C634 1.331 . S
N638 C635 1.329 . S
H639 C633 0.930 . S
C640 O620 1.257 . S
C640 O641 1.244 . S
O641 C640 1.244 . S
O642 C618 1.257 . S
O642 Zn621 2.019 . S
H643 C636 0.930 . S
H644 C623 0.930 . S
H645 C635 0.930 . S
Zn646 N650 2.020 . S
Zn646 O654 2.019 . S
Zn646 N656 2.119 . S
Zn646 O664 1.975 . S
C647 N648 1.334 . S
C647 N651 1.336 . S
N648 C647 1.334 . S
N648 C649 1.334 . S
C649 N648 1.334 . S
C649 N650 1.336 . S
N650 Zn646 2.020 . S
N650 C649 1.336 . S
N650 N651 1.354 . S
N651 C647 1.336 . S
N651 N650 1.354 . S
N651 Zn655 2.020 . S
C652 O653 1.244 . S
C652 O676 1.257 . S
O653 C652 1.244 . S
O654 Zn646 2.019 . S
O654 C674 1.257 . S
Zn655 N651 2.020 . S
Zn655 O662 1.975 . S
Zn655 N671 2.119 . S
Zn655 O676 2.019 . S
N656 Zn646 2.119 . S
N656 C658 1.334 . S
N656 C659 1.328 . S
C657 C658 1.391 . S
C657 N660 1.329 . S
C657 H678 0.930 . S
C658 N656 1.334 . S
C658 C657 1.391 . S
C658 H665 0.930 . S
C659 N656 1.328 . S
C659 C661 1.392 . S
C659 H666 0.930 . S
N660 C657 1.329 . S
N660 C661 1.331 . S
C661 C659 1.392 . S
C661 N660 1.331 . S
O662 Zn655 1.975 . S
O662 C663 1.252 . S
C663 O662 1.252 . S
C663 O664 1.252 . S
O664 Zn646 1.975 . S
O664 C663 1.252 . S
H665 C658 0.930 . S
H666 C659 0.930 . S
C667 C668 1.392 . S
C667 N671 1.328 . S
C667 H673 0.930 . S
C668 C667 1.392 . S
C668 N672 1.331 . S
C669 C670 1.391 . S
C669 N672 1.329 . S
C669 H679 0.930 . S
C670 C669 1.391 . S
C670 N671 1.334 . S
C670 H677 0.930 . S
N671 Zn655 2.119 . S
N671 C667 1.328 . S
N671 C670 1.334 . S
N672 C668 1.331 . S
N672 C669 1.329 . S
H673 C667 0.930 . S
C674 O654 1.257 . S
C674 O675 1.244 . S
O675 C674 1.244 . S
O676 C652 1.257 . S
O676 Zn655 2.019 . S
H677 C670 0.930 . S
H678 C657 0.930 . S
H679 C669 0.930 . S
Zn680 N684 2.020 . S
Zn680 O688 2.019 . S
Zn680 N690 2.119 . S
Zn680 O698 1.975 . S
C681 N682 1.334 . S
C681 N685 1.336 . S
N682 C681 1.334 . S
N682 C683 1.334 . S
C683 N682 1.334 . S
C683 N684 1.336 . S
N684 Zn680 2.020 . S
N684 C683 1.336 . S
N684 N685 1.354 . S
N685 C681 1.336 . S
N685 N684 1.354 . S
N685 Zn689 2.020 . S
C686 O687 1.244 . S
C686 O710 1.257 . S
O687 C686 1.244 . S
O688 Zn680 2.019 . S
O688 C708 1.257 . S
Zn689 N685 2.020 . S
Zn689 O696 1.975 . S
Zn689 N705 2.119 . S
Zn689 O710 2.019 . S
N690 Zn680 2.119 . S
N690 C692 1.334 . S
N690 C693 1.328 . S
C691 C692 1.391 . S
C691 N694 1.329 . S
C691 H712 0.930 . S
C692 N690 1.334 . S
C692 C691 1.391 . S
C692 H699 0.930 . S
C693 N690 1.328 . S
C693 C695 1.392 . S
C693 H700 0.930 . S
N694 C691 1.329 . S
N694 C695 1.331 . S
C695 C693 1.392 . S
C695 N694 1.331 . S
O696 Zn689 1.975 . S
O696 C697 1.252 . S
C697 O696 1.252 . S
C697 O698 1.252 . S
O698 Zn680 1.975 . S
O698 C697 1.252 . S
H699 C692 0.930 . S
H700 C693 0.930 . S
C701 C702 1.392 . S
C701 N705 1.328 . S
C701 H707 0.930 . S
C702 C701 1.392 . S
C702 N706 1.331 . S
C703 C704 1.391 . S
C703 N706 1.329 . S
C703 H713 0.930 . S
C704 C703 1.391 . S
C704 N705 1.334 . S
C704 H711 0.930 . S
N705 Zn689 2.119 . S
N705 C701 1.328 . S
N705 C704 1.334 . S
N706 C702 1.331 . S
N706 C703 1.329 . S
H707 C701 0.930 . S
C708 O688 1.257 . S
C708 O709 1.244 . S
O709 C708 1.244 . S
O710 C686 1.257 . S
O710 Zn689 2.019 . S
H711 C704 0.930 . S
H712 C691 0.930 . S
H713 C703 0.930 . S
Zn714 N718 2.020 . S
Zn714 O722 2.019 . S
Zn714 N724 2.119 . S
Zn714 O732 1.975 . S
C715 N716 1.334 . S
C715 N719 1.336 . S
N716 C715 1.334 . S
N716 C717 1.334 . S
C717 N716 1.334 . S
C717 N718 1.336 . S
N718 Zn714 2.020 . S
N718 C717 1.336 . S
N718 N719 1.354 . S
N719 C715 1.336 . S
N719 N718 1.354 . S
N719 Zn723 2.020 . S
C720 O721 1.244 . S
C720 O744 1.257 . S
O721 C720 1.244 . S
O722 Zn714 2.019 . S
O722 C742 1.257 . S
Zn723 N719 2.020 . S
Zn723 O730 1.975 . S
Zn723 N739 2.119 . S
Zn723 O744 2.019 . S
N724 Zn714 2.119 . S
N724 C726 1.334 . S
N724 C727 1.328 . S
C725 C726 1.391 . S
C725 N728 1.329 . S
C725 H746 0.930 . S
C726 N724 1.334 . S
C726 C725 1.391 . S
C726 H733 0.930 . S
C727 N724 1.328 . S
C727 C729 1.392 . S
C727 H734 0.930 . S
N728 C725 1.329 . S
N728 C729 1.331 . S
C729 C727 1.392 . S
C729 N728 1.331 . S
O730 Zn723 1.975 . S
O730 C731 1.252 . S
C731 O730 1.252 . S
C731 O732 1.252 . S
O732 Zn714 1.975 . S
O732 C731 1.252 . S
H733 C726 0.930 . S
H734 C727 0.930 . S
C735 C736 1.392 . S
C735 N739 1.328 . S
C735 H741 0.930 . S
C736 C735 1.392 . S
C736 N740 1.331 . S
C737 C738 1.391 . S
C737 N740 1.329 . S
C737 H747 0.930 . S
C738 C737 1.391 . S
C738 N739 1.334 . S
C738 H745 0.930 . S
N739 Zn723 2.119 . S
N739 C735 1.328 . S
N739 C738 1.334 . S
N740 C736 1.331 . S
N740 C737 1.329 . S
H741 C735 0.930 . S
C742 O722 1.257 . S
C742 O743 1.244 . S
O743 C742 1.244 . S
O744 C720 1.257 . S
O744 Zn723 2.019 . S
H745 C738 0.930 . S
H746 C725 0.930 . S
H747 C737 0.930 . S
Zn748 N752 2.020 . S
Zn748 O756 2.019 . S
Zn748 N758 2.119 . S
Zn748 O766 1.975 . S
C749 N750 1.334 . S
C749 N753 1.336 . S
N750 C749 1.334 . S
N750 C751 1.334 . S
C751 N750 1.334 . S
C751 N752 1.336 . S
N752 Zn748 2.020 . S
N752 C751 1.336 . S
N752 N753 1.354 . S
N753 C749 1.336 . S
N753 N752 1.354 . S
N753 Zn757 2.020 . S
C754 O755 1.244 . S
C754 O778 1.257 . S
O755 C754 1.244 . S
O756 Zn748 2.019 . S
O756 C776 1.257 . S
Zn757 N753 2.020 . S
Zn757 O764 1.975 . S
Zn757 N773 2.119 . S
Zn757 O778 2.019 . S
N758 Zn748 2.119 . S
N758 C760 1.334 . S
N758 C761 1.328 . S
C759 C760 1.391 . S
C759 N762 1.329 . S
C759 H780 0.930 . S
C760 N758 1.334 . S
C760 C759 1.391 . S
C760 H767 0.930 . S
C761 N758 1.328 . S
C761 C763 1.392 . S
C761 H768 0.930 . S
N762 C759 1.329 . S
N762 C763 1.331 . S
C763 C761 1.392 . S
C763 N762 1.331 . S
O764 Zn757 1.975 . S
O764 C765 1.252 . S
C765 O764 1.252 . S
C765 O766 1.252 . S
O766 Zn748 1.975 . S
O766 C765 1.252 . S
H767 C760 0.930 . S
H768 C761 0.930 . S
C769 C770 1.392 . S
C769 N773 1.328 . S
C769 H775 0.930 . S
C770 C769 1.392 . S
C770 N774 1.331 . S
C771 C772 1.391 . S
C771 N774 1.329 . S
C771 H781 0.930 . S
C772 C771 1.391 . S
C772 N773 1.334 . S
C772 H779 0.930 . S
N773 Zn757 2.119 . S
N773 C769 1.328 . S
N773 C772 1.334 . S
N774 C770 1.331 . S
N774 C771 1.329 . S
H775 C769 0.930 . S
C776 O756 1.257 . S
C776 O777 1.244 . S
O777 C776 1.244 . S
O778 C754 1.257 . S
O778 Zn757 2.019 . S
H779 C772 0.930 . S
H780 C759 0.930 . S
H781 C771 0.930 . S
Zn782 N786 2.020 . S
Zn782 O790 2.019 . S
Zn782 N792 2.119 . S
Zn782 O800 1.975 . S
C783 N784 1.334 . S
C783 N787 1.336 . S
N784 C783 1.334 . S
N784 C785 1.334 . S
C785 N784 1.334 . S
C785 N786 1.336 . S
N786 Zn782 2.020 . S
N786 C785 1.336 . S
N786 N787 1.354 . S
N787 C783 1.336 . S
N787 N786 1.354 . S
N787 Zn791 2.020 . S
C788 O789 1.244 . S
C788 O812 1.257 . S
O789 C788 1.244 . S
O790 Zn782 2.019 . S
O790 C810 1.257 . S
Zn791 N787 2.020 . S
Zn791 O798 1.975 . S
Zn791 N807 2.119 . S
Zn791 O812 2.019 . S
N792 Zn782 2.119 . S
N792 C794 1.334 . S
N792 C795 1.328 . S
C793 C794 1.391 . S
C793 N796 1.329 . S
C793 H814 0.930 . S
C794 N792 1.334 . S
C794 C793 1.391 . S
C794 H801 0.930 . S
C795 N792 1.328 . S
C795 C797 1.392 . S
C795 H802 0.930 . S
N796 C793 1.329 . S
N796 C797 1.331 . S
C797 C795 1.392 . S
C797 N796 1.331 . S
O798 Zn791 1.975 . S
O798 C799 1.252 . S
C799 O798 1.252 . S
C799 O800 1.252 . S
O800 Zn782 1.975 . S
O800 C799 1.252 . S
H801 C794 0.930 . S
H802 C795 0.930 . S
C803 C804 1.392 . S
C803 N807 1.328 . S
C803 H809 0.930 . S
C804 C803 1.392 . S
C804 N808 1.331 . S
C805 C806 1.391 . S
C805 N808 1.329 . S
C805 H815 0.930 . S
C806 C805 1.391 . S
C806 N807 1.334 . S
C806 H813 0.930 . S
N807 Zn791 2.119 . S
N807 C803 1.328 . S
N807 C806 1.334 . S
N808 C804 1.331 . S
N808 C805 1.329 . S
H809 C803 0.930 . S
C810 O790 1.257 . S
C810 O811 1.244 . S
O811 C810 1.244 . S
O812 C788 1.257 . S
O812 Zn791 2.019 . S
H813 C806 0.930 . S
H814 C793 0.930 . S
H815 C805 0.930 . S
C816 C817 1.349 . S
C816 C818 1.327 1_545 S
C816 H841 0.950 . S
C817 C816 1.349 . S
C817 C833 1.349 . S
C818 C816 1.327 1_565 S
C818 C837 1.429 . S
C818 H842 0.950 . S
C819 C836 1.574 . S
C819 C838 1.368 . S
C819 H843 0.949 . S
H820 C824 0.949 . S
C821 C822 1.349 . S
C821 C823 1.327 . S
C821 H844 0.950 . S
C822 C821 1.349 . S
C822 C834 1.349 . S
C823 C821 1.327 . S
C823 C839 1.429 . S
C823 H845 0.950 . S
C824 H820 0.949 . S
C824 C832 1.574 . S
C824 C840 1.368 . S
H825 C833 0.950 . S
H826 C831 0.950 . S
H827 C832 0.949 . S
H828 C834 0.950 . S
H829 C835 0.950 . S
H830 C836 0.949 . S
C831 H826 0.950 . S
C831 C833 1.327 1_565 S
C831 C837 1.429 . S
C832 C824 1.574 . S
C832 H827 0.949 . S
C832 C838 1.368 . S
C833 C817 1.349 . S
C833 H825 0.950 . S
C833 C831 1.327 1_545 S
C834 C822 1.349 . S
C834 H828 0.950 . S
C834 C835 1.327 . S
C835 H829 0.950 . S
C835 C834 1.327 . S
C835 C839 1.429 . S
C836 C819 1.574 . S
C836 H830 0.949 . S
C836 C840 1.368 . S
C837 C818 1.429 . S
C837 C831 1.429 . S
C837 C838 1.523 . S
C838 C819 1.368 . S
C838 C832 1.368 . S
C838 C837 1.523 . S
C839 C823 1.429 . S
C839 C835 1.429 . S
C839 C840 1.523 . S
C840 C824 1.368 . S
C840 C836 1.368 . S
C840 C839 1.523 . S
H841 C816 0.950 . S
H842 C818 0.950 . S
H843 C819 0.949 . S
H844 C821 0.950 . S
H845 C823 0.950 . S
C846 C847 1.349 . S
C846 C848 1.327 . S
C846 H871 0.950 . S
C847 C846 1.349 . S
C847 C863 1.349 . S
C848 C846 1.327 . S
C848 C867 1.429 . S
C848 H872 0.950 . S
C849 C866 1.574 . S
C849 C868 1.368 . S
C849 H873 0.949 . S
H850 C854 0.949 . S
C851 C852 1.349 . S
C851 C853 1.327 . S
C851 H874 0.950 . S
C852 C851 1.349 . S
C852 C864 1.349 . S
C853 C851 1.327 . S
C853 C869 1.429 . S
C853 H875 0.950 . S
C854 H850 0.949 . S
C854 C862 1.574 . S
C854 C870 1.368 . S
H855 C863 0.950 . S
H856 C861 0.950 . S
H857 C862 0.949 . S
H858 C864 0.950 . S
H859 C865 0.950 . S
H860 C866 0.949 . S
C861 H856 0.950 . S
C861 C863 1.327 . S
C861 C867 1.429 . S
C862 C854 1.574 . S
C862 H857 0.949 . S
C862 C868 1.368 . S
C863 C847 1.349 . S
C863 H855 0.950 . S
C863 C861 1.327 . S
C864 C852 1.349 . S
C864 H858 0.950 . S
C864 C865 1.327 . S
C865 H859 0.950 . S
C865 C864 1.327 . S
C865 C869 1.429 . S
C866 C849 1.574 . S
C866 H860 0.949 . S
C866 C870 1.368 . S
C867 C848 1.429 . S
C867 C861 1.429 . S
C867 C868 1.523 . S
C868 C849 1.368 . S
C868 C862 1.368 . S
C868 C867 1.523 . S
C869 C853 1.429 . S
C869 C865 1.429 . S
C869 C870 1.523 . S
C870 C854 1.368 . S
C870 C866 1.368 . S
C870 C869 1.523 . S
H871 C846 0.950 . S
H872 C848 0.950 . S
H873 C849 0.949 . S
H874 C851 0.950 . S
H875 C853 0.950 . S
C876 C877 1.349 . S
C876 C878 1.327 1_655 S
C876 H901 0.950 . S
C877 C876 1.349 . S
C877 C893 1.349 . S
C878 C876 1.327 1_455 S
C878 C897 1.429 . S
C878 H902 0.950 . S
C879 C896 1.574 . S
C879 C898 1.368 . S
C879 H903 0.949 . S
H880 C884 0.949 . S
C881 C882 1.349 . S
C881 C883 1.327 . S
C881 H904 0.950 . S
C882 C881 1.349 . S
C882 C894 1.349 . S
C883 C881 1.327 . S
C883 C899 1.429 . S
C883 H905 0.950 . S
C884 H880 0.949 . S
C884 C892 1.574 . S
C884 C900 1.368 . S
H885 C893 0.950 . S
H886 C891 0.950 . S
H887 C892 0.949 . S
H888 C894 0.950 . S
H889 C895 0.950 . S
H890 C896 0.949 . S
C891 H886 0.950 . S
C891 C893 1.327 1_455 S
C891 C897 1.429 . S
C892 C884 1.574 . S
C892 H887 0.949 . S
C892 C898 1.368 . S
C893 C877 1.349 . S
C893 H885 0.950 . S
C893 C891 1.327 1_655 S
C894 C882 1.349 . S
C894 H888 0.950 . S
C894 C895 1.327 . S
C895 H889 0.950 . S
C895 C894 1.327 . S
C895 C899 1.429 . S
C896 C879 1.574 . S
C896 H890 0.949 . S
C896 C900 1.368 . S
C897 C878 1.429 . S
C897 C891 1.429 . S
C897 C898 1.523 . S
C898 C879 1.368 . S
C898 C892 1.368 . S
C898 C897 1.523 . S
C899 C883 1.429 . S
C899 C895 1.429 . S
C899 C900 1.523 . S
C900 C884 1.368 . S
C900 C896 1.368 . S
C900 C899 1.523 . S
H901 C876 0.950 . S
H902 C878 0.950 . S
H903 C879 0.949 . S
H904 C881 0.950 . S
H905 C883 0.950 . S
C906 C907 1.349 . S
C906 C908 1.327 . S
C906 H931 0.950 . S
C907 C906 1.349 . S
C907 C923 1.349 . S
C908 C906 1.327 . S
C908 C927 1.429 . S
C908 H932 0.950 . S
C909 C926 1.574 . S
C909 C928 1.368 . S
C909 H933 0.949 . S
H910 C914 0.949 . S
C911 C912 1.349 . S
C911 C913 1.327 1_565 S
C911 H934 0.950 . S
C912 C911 1.349 . S
C912 C924 1.349 . S
C913 C911 1.327 1_545 S
C913 C929 1.429 . S
C913 H935 0.950 . S
C914 H910 0.949 . S
C914 C922 1.574 . S
C914 C930 1.368 . S
H915 C923 0.950 . S
H916 C921 0.950 . S
H917 C922 0.949 . S
H918 C924 0.950 . S
H919 C925 0.950 . S
H920 C926 0.949 . S
C921 H916 0.950 . S
C921 C923 1.327 . S
C921 C927 1.429 . S
C922 C914 1.574 . S
C922 H917 0.949 . S
C922 C928 1.368 . S
C923 C907 1.349 . S
C923 H915 0.950 . S
C923 C921 1.327 . S
C924 C912 1.349 . S
C924 H918 0.950 . S
C924 C925 1.327 1_565 S
C925 H919 0.950 . S
C925 C924 1.327 1_545 S
C925 C929 1.429 . S
C926 C909 1.574 . S
C926 H920 0.949 . S
C926 C930 1.368 . S
C927 C908 1.429 . S
C927 C921 1.429 . S
C927 C928 1.523 . S
C928 C909 1.368 . S
C928 C922 1.368 . S
C928 C927 1.523 . S
C929 C913 1.429 . S
C929 C925 1.429 . S
C929 C930 1.523 . S
C930 C914 1.368 . S
C930 C926 1.368 . S
C930 C929 1.523 . S
H931 C906 0.950 . S
H932 C908 0.950 . S
H933 C909 0.949 . S
H934 C911 0.950 . S
H935 C913 0.950 . S
C936 C937 1.349 . S
C936 C938 1.327 . S
C936 H961 0.950 . S
C937 C936 1.349 . S
C937 C953 1.349 . S
C938 C936 1.327 . S
C938 C957 1.429 . S
C938 H962 0.950 . S
C939 C956 1.574 . S
C939 C958 1.368 . S
C939 H963 0.949 . S
H940 C944 0.949 . S
C941 C942 1.349 . S
C941 C943 1.327 . S
C941 H964 0.950 . S
C942 C941 1.349 . S
C942 C954 1.349 . S
C943 C941 1.327 . S
C943 C959 1.429 . S
C943 H965 0.950 . S
C944 H940 0.949 . S
C944 C952 1.574 . S
C944 C960 1.368 . S
H945 C953 0.950 . S
H946 C951 0.950 . S
H947 C952 0.949 . S
H948 C954 0.950 . S
H949 C955 0.950 . S
H950 C956 0.949 . S
C951 H946 0.950 . S
C951 C953 1.327 . S
C951 C957 1.429 . S
C952 C944 1.574 . S
C952 H947 0.949 . S
C952 C958 1.368 . S
C953 C937 1.349 . S
C953 H945 0.950 . S
C953 C951 1.327 . S
C954 C942 1.349 . S
C954 H948 0.950 . S
C954 C955 1.327 . S
C955 H949 0.950 . S
C955 C954 1.327 . S
C955 C959 1.429 . S
C956 C939 1.574 . S
C956 H950 0.949 . S
C956 C960 1.368 . S
C957 C938 1.429 . S
C957 C951 1.429 . S
C957 C958 1.523 . S
C958 C939 1.368 . S
C958 C952 1.368 . S
C958 C957 1.523 . S
C959 C943 1.429 . S
C959 C955 1.429 . S
C959 C960 1.523 . S
C960 C944 1.368 . S
C960 C956 1.368 . S
C960 C959 1.523 . S
H961 C936 0.950 . S
H962 C938 0.950 . S
H963 C939 0.949 . S
H964 C941 0.950 . S
H965 C943 0.950 . S
C966 C967 1.349 . S
C966 C968 1.327 1_455 S
C966 H991 0.950 . S
C967 C966 1.349 . S
C967 C983 1.349 . S
C968 C966 1.327 1_655 S
C968 C987 1.429 . S
C968 H992 0.950 . S
C969 C986 1.574 . S
C969 C988 1.368 . S
C969 H993 0.949 . S
H970 C974 0.949 . S
C971 C972 1.349 . S
C971 C973 1.327 . S
C971 H994 0.950 . S
C972 C971 1.349 . S
C972 C984 1.349 . S
C973 C971 1.327 . S
C973 C989 1.429 . S
C973 H995 0.950 . S
C974 H970 0.949 . S
C974 C982 1.574 . S
C974 C990 1.368 . S
H975 C983 0.950 . S
H976 C981 0.950 . S
H977 C982 0.949 . S
H978 C984 0.950 . S
H979 C985 0.950 . S
H980 C986 0.949 . S
C981 H976 0.950 . S
C981 C983 1.327 1_655 S
C981 C987 1.429 . S
C982 C974 1.574 . S
C982 H977 0.949 . S
C982 C988 1.368 . S
C983 C967 1.349 . S
C983 H975 0.950 . S
C983 C981 1.327 1_455 S
C984 C972 1.349 . S
C984 H978 0.950 . S
C984 C985 1.327 . S
C985 H979 0.950 . S
C985 C984 1.327 . S
C985 C989 1.429 . S
C986 C969 1.574 . S
C986 H980 0.949 . S
C986 C990 1.368 . S
C987 C968 1.429 . S
C987 C981 1.429 . S
C987 C988 1.523 . S
C988 C969 1.368 . S
C988 C982 1.368 . S
C988 C987 1.523 . S
C989 C973 1.429 . S
C989 C985 1.429 . S
C989 C990 1.523 . S
C990 C974 1.368 . S
C990 C986 1.368 . S
C990 C989 1.523 . S
H991 C966 0.950 . S
H992 C968 0.950 . S
H993 C969 0.949 . S
H994 C971 0.950 . S
H995 C973 0.950 . S
C996 C997 1.349 . S
C996 C998 1.327 . S
C996 H1021 0.950 . S
C997 C996 1.349 . S
C997 C1013 1.349 . S
C998 C996 1.327 . S
C998 C1017 1.429 . S
C998 H1022 0.950 . S
C999 C1016 1.574 . S
C999 C1018 1.368 . S
C999 H1023 0.949 . S
H1000 C1004 0.949 . S
C1001 C1002 1.349 . S
C1001 C1003 1.327 1_655 S
C1001 H1024 0.950 . S
C1002 C1001 1.349 . S
C1002 C1014 1.349 . S
C1003 C1001 1.327 1_455 S
C1003 C1019 1.429 . S
C1003 H1025 0.950 . S
C1004 H1000 0.949 . S
C1004 C1012 1.574 . S
C1004 C1020 1.368 . S
H1005 C1013 0.950 . S
H1006 C1011 0.950 . S
H1007 C1012 0.949 . S
H1008 C1014 0.950 . S
H1009 C1015 0.950 . S
H1010 C1016 0.949 . S
C1011 H1006 0.950 . S
C1011 C1013 1.327 . S
C1011 C1017 1.429 . S
C1012 C1004 1.574 . S
C1012 H1007 0.949 . S
C1012 C1018 1.368 . S
C1013 C997 1.349 . S
C1013 H1005 0.950 . S
C1013 C1011 1.327 . S
C1014 C1002 1.349 . S
C1014 H1008 0.950 . S
C1014 C1015 1.327 1_655 S
C1015 H1009 0.950 . S
C1015 C1014 1.327 1_455 S
C1015 C1019 1.429 . S
C1016 C999 1.574 . S
C1016 H1010 0.949 . S
C1016 C1020 1.368 . S
C1017 C998 1.429 . S
C1017 C1011 1.429 . S
C1017 C1018 1.523 . S
C1018 C999 1.368 . S
C1018 C1012 1.368 . S
C1018 C1017 1.523 . S
C1019 C1003 1.429 . S
C1019 C1015 1.429 . S
C1019 C1020 1.523 . S
C1020 C1004 1.368 . S
C1020 C1016 1.368 . S
C1020 C1019 1.523 . S
H1021 C996 0.950 . S
H1022 C998 0.950 . S
H1023 C999 0.949 . S
H1024 C1001 0.950 . S
H1025 C1003 0.950 . S
C1026 C1027 1.349 . S
C1026 C1028 1.327 . S
C1026 H1051 0.950 . S
C1027 C1026 1.349 . S
C1027 C1043 1.349 . S
C1028 C1026 1.327 . S
C1028 C1047 1.429 . S
C1028 H1052 0.950 . S
C1029 C1046 1.574 . S
C1029 C1048 1.368 . S
C1029 H1053 0.949 . S
H1030 C1034 0.949 . S
C1031 C1032 1.349 . S
C1031 C1033 1.327 1_565 S
C1031 H1054 0.950 . S
C1032 C1031 1.349 . S
C1032 C1044 1.349 . S
C1033 C1031 1.327 1_545 S
C1033 C1049 1.429 . S
C1033 H1055 0.950 . S
C1034 H1030 0.949 . S
C1034 C1042 1.574 . S
C1034 C1050 1.368 . S
H1035 C1043 0.950 . S
H1036 C1041 0.950 . S
H1037 C1042 0.949 . S
H1038 C1044 0.950 . S
H1039 C1045 0.950 . S
H1040 C1046 0.949 . S
C1041 H1036 0.950 . S
C1041 C1043 1.327 . S
C1041 C1047 1.429 . S
C1042 C1034 1.574 . S
C1042 H1037 0.949 . S
C1042 C1048 1.368 . S
C1043 C1027 1.349 . S
C1043 H1035 0.950 . S
C1043 C1041 1.327 . S
C1044 C1032 1.349 . S
C1044 H1038 0.950 . S
C1044 C1045 1.327 1_565 S
C1045 H1039 0.950 . S
C1045 C1044 1.327 1_545 S
C1045 C1049 1.429 . S
C1046 C1029 1.574 . S
C1046 H1040 0.949 . S
C1046 C1050 1.368 . S
C1047 C1028 1.429 . S
C1047 C1041 1.429 . S
C1047 C1048 1.523 . S
C1048 C1029 1.368 . S
C1048 C1042 1.368 . S
C1048 C1047 1.523 . S
C1049 C1033 1.429 . S
C1049 C1045 1.429 . S
C1049 C1050 1.523 . S
C1050 C1034 1.368 . S
C1050 C1046 1.368 . S
C1050 C1049 1.523 . S
H1051 C1026 0.950 . S
H1052 C1028 0.950 . S
H1053 C1029 0.949 . S
H1054 C1031 0.950 . S
H1055 C1033 0.950 . S
C1056 C1057 1.349 . S
C1056 C1058 1.327 . S
C1056 H1081 0.950 . S
C1057 C1056 1.349 . S
C1057 C1073 1.349 . S
C1058 C1056 1.327 . S
C1058 C1077 1.429 . S
C1058 H1082 0.950 . S
C1059 C1076 1.574 . S
C1059 C1078 1.368 . S
C1059 H1083 0.949 . S
H1060 C1064 0.949 . S
C1061 C1062 1.349 . S
C1061 C1063 1.327 . S
C1061 H1084 0.950 . S
C1062 C1061 1.349 . S
C1062 C1074 1.349 . S
C1063 C1061 1.327 . S
C1063 C1079 1.429 . S
C1063 H1085 0.950 . S
C1064 H1060 0.949 . S
C1064 C1072 1.574 . S
C1064 C1080 1.368 . S
H1065 C1073 0.950 . S
H1066 C1071 0.950 . S
H1067 C1072 0.949 . S
H1068 C1074 0.950 . S
H1069 C1075 0.950 . S
H1070 C1076 0.949 . S
C1071 H1066 0.950 . S
C1071 C1073 1.327 . S
C1071 C1077 1.429 . S
C1072 C1064 1.574 . S
C1072 H1067 0.949 . S
C1072 C1078 1.368 . S
C1073 C1057 1.349 . S
C1073 H1065 0.950 . S
C1073 C1071 1.327 . S
C1074 C1062 1.349 . S
C1074 H1068 0.950 . S
C1074 C1075 1.327 . S
C1075 H1069 0.950 . S
C1075 C1074 1.327 . S
C1075 C1079 1.429 . S
C1076 C1059 1.574 . S
C1076 H1070 0.949 . S
C1076 C1080 1.368 . S
C1077 C1058 1.429 . S
C1077 C1071 1.429 . S
C1077 C1078 1.523 . S
C1078 C1059 1.368 . S
C1078 C1072 1.368 . S
C1078 C1077 1.523 . S
C1079 C1063 1.429 . S
C1079 C1075 1.429 . S
C1079 C1080 1.523 . S
C1080 C1064 1.368 . S
C1080 C1076 1.368 . S
C1080 C1079 1.523 . S
H1081 C1056 0.950 . S
H1082 C1058 0.950 . S
H1083 C1059 0.949 . S
H1084 C1061 0.950 . S
H1085 C1063 0.950 . S
C1086 C1087 1.349 . S
C1086 C1088 1.327 1_455 S
C1086 H1111 0.950 . S
C1087 C1086 1.349 . S
C1087 C1103 1.349 . S
C1088 C1086 1.327 1_655 S
C1088 C1107 1.429 . S
C1088 H1112 0.950 . S
C1089 C1106 1.574 . S
C1089 C1108 1.368 . S
C1089 H1113 0.949 . S
H1090 C1094 0.949 . S
C1091 C1092 1.349 . S
C1091 C1093 1.327 . S
C1091 H1114 0.950 . S
C1092 C1091 1.349 . S
C1092 C1104 1.349 . S
C1093 C1091 1.327 . S
C1093 C1109 1.429 . S
C1093 H1115 0.950 . S
C1094 H1090 0.949 . S
C1094 C1102 1.574 . S
C1094 C1110 1.368 . S
H1095 C1103 0.950 . S
H1096 C1101 0.950 . S
H1097 C1102 0.949 . S
H1098 C1104 0.950 . S
H1099 C1105 0.950 . S
H1100 C1106 0.949 . S
C1101 H1096 0.950 . S
C1101 C1103 1.327 1_655 S
C1101 C1107 1.429 . S
C1102 C1094 1.574 . S
C1102 H1097 0.949 . S
C1102 C1108 1.368 . S
C1103 C1087 1.349 . S
C1103 H1095 0.950 . S
C1103 C1101 1.327 1_455 S
C1104 C1092 1.349 . S
C1104 H1098 0.950 . S
C1104 C1105 1.327 . S
C1105 H1099 0.950 . S
C1105 C1104 1.327 . S
C1105 C1109 1.429 . S
C1106 C1089 1.574 . S
C1106 H1100 0.949 . S
C1106 C1110 1.368 . S
C1107 C1088 1.429 . S
C1107 C1101 1.429 . S
C1107 C1108 1.523 . S
C1108 C1089 1.368 . S
C1108 C1102 1.368 . S
C1108 C1107 1.523 . S
C1109 C1093 1.429 . S
C1109 C1105 1.429 . S
C1109 C1110 1.523 . S
C1110 C1094 1.368 . S
C1110 C1106 1.368 . S
C1110 C1109 1.523 . S
H1111 C1086 0.950 . S
H1112 C1088 0.950 . S
H1113 C1089 0.949 . S
H1114 C1091 0.950 . S
H1115 C1093 0.950 . S
C1116 C1117 1.349 . S
C1116 C1118 1.327 . S
C1116 H1141 0.950 . S
C1117 C1116 1.349 . S
C1117 C1133 1.349 . S
C1118 C1116 1.327 . S
C1118 C1137 1.429 . S
C1118 H1142 0.950 . S
C1119 C1136 1.574 . S
C1119 C1138 1.368 . S
C1119 H1143 0.949 . S
H1120 C1124 0.949 . S
C1121 C1122 1.349 . S
C1121 C1123 1.327 1_545 S
C1121 H1144 0.950 . S
C1122 C1121 1.349 . S
C1122 C1134 1.349 . S
C1123 C1121 1.327 1_565 S
C1123 C1139 1.429 . S
C1123 H1145 0.950 . S
C1124 H1120 0.949 . S
C1124 C1132 1.574 . S
C1124 C1140 1.368 . S
H1125 C1133 0.950 . S
H1126 C1131 0.950 . S
H1127 C1132 0.949 . S
H1128 C1134 0.950 . S
H1129 C1135 0.950 . S
H1130 C1136 0.949 . S
C1131 H1126 0.950 . S
C1131 C1133 1.327 . S
C1131 C1137 1.429 . S
C1132 C1124 1.574 . S
C1132 H1127 0.949 . S
C1132 C1138 1.368 . S
C1133 C1117 1.349 . S
C1133 H1125 0.950 . S
C1133 C1131 1.327 . S
C1134 C1122 1.349 . S
C1134 H1128 0.950 . S
C1134 C1135 1.327 1_545 S
C1135 H1129 0.950 . S
C1135 C1134 1.327 1_565 S
C1135 C1139 1.429 . S
C1136 C1119 1.574 . S
C1136 H1130 0.949 . S
C1136 C1140 1.368 . S
C1137 C1118 1.429 . S
C1137 C1131 1.429 . S
C1137 C1138 1.523 . S
C1138 C1119 1.368 . S
C1138 C1132 1.368 . S
C1138 C1137 1.523 . S
C1139 C1123 1.429 . S
C1139 C1135 1.429 . S
C1139 C1140 1.523 . S
C1140 C1124 1.368 . S
C1140 C1136 1.368 . S
C1140 C1139 1.523 . S
H1141 C1116 0.950 . S
H1142 C1118 0.950 . S
H1143 C1119 0.949 . S
H1144 C1121 0.950 . S
H1145 C1123 0.950 . S
C1146 C1147 1.349 . S
C1146 C1148 1.327 . S
C1146 H1171 0.950 . S
C1147 C1146 1.349 . S
C1147 C1163 1.349 . S
C1148 C1146 1.327 . S
C1148 C1167 1.429 . S
C1148 H1172 0.950 . S
C1149 C1166 1.574 . S
C1149 C1168 1.368 . S
C1149 H1173 0.949 . S
H1150 C1154 0.949 . S
C1151 C1152 1.349 . S
C1151 C1153 1.327 . S
C1151 H1174 0.950 . S
C1152 C1151 1.349 . S
C1152 C1164 1.349 . S
C1153 C1151 1.327 . S
C1153 C1169 1.429 . S
C1153 H1175 0.950 . S
C1154 H1150 0.949 . S
C1154 C1162 1.574 . S
C1154 C1170 1.368 . S
H1155 C1163 0.950 . S
H1156 C1161 0.950 . S
H1157 C1162 0.949 . S
H1158 C1164 0.950 . S
H1159 C1165 0.950 . S
H1160 C1166 0.949 . S
C1161 H1156 0.950 . S
C1161 C1163 1.327 . S
C1161 C1167 1.429 . S
C1162 C1154 1.574 . S
C1162 H1157 0.949 . S
C1162 C1168 1.368 . S
C1163 C1147 1.349 . S
C1163 H1155 0.950 . S
C1163 C1161 1.327 . S
C1164 C1152 1.349 . S
C1164 H1158 0.950 . S
C1164 C1165 1.327 . S
C1165 H1159 0.950 . S
C1165 C1164 1.327 . S
C1165 C1169 1.429 . S
C1166 C1149 1.574 . S
C1166 H1160 0.949 . S
C1166 C1170 1.368 . S
C1167 C1148 1.429 . S
C1167 C1161 1.429 . S
C1167 C1168 1.523 . S
C1168 C1149 1.368 . S
C1168 C1162 1.368 . S
C1168 C1167 1.523 . S
C1169 C1153 1.429 . S
C1169 C1165 1.429 . S
C1169 C1170 1.523 . S
C1170 C1154 1.368 . S
C1170 C1166 1.368 . S
C1170 C1169 1.523 . S
H1171 C1146 0.950 . S
H1172 C1148 0.950 . S
H1173 C1149 0.949 . S
H1174 C1151 0.950 . S
H1175 C1153 0.950 . S
C1176 C1177 1.349 . S
C1176 C1178 1.327 . S
C1176 H1201 0.950 . S
C1177 C1176 1.349 . S
C1177 C1193 1.349 . S
C1178 C1176 1.327 . S
C1178 C1197 1.429 . S
C1178 H1202 0.950 . S
C1179 C1196 1.574 . S
C1179 C1198 1.368 . S
C1179 H1203 0.949 . S
H1180 C1184 0.949 . S
C1181 C1182 1.349 . S
C1181 C1183 1.327 1_565 S
C1181 H1204 0.950 . S
C1182 C1181 1.349 . S
C1182 C1194 1.349 . S
C1183 C1181 1.327 1_545 S
C1183 C1199 1.429 . S
C1183 H1205 0.950 . S
C1184 H1180 0.949 . S
C1184 C1192 1.574 . S
C1184 C1200 1.368 . S
H1185 C1193 0.950 . S
H1186 C1191 0.950 . S
H1187 C1192 0.949 . S
H1188 C1194 0.950 . S
H1189 C1195 0.950 . S
H1190 C1196 0.949 . S
C1191 H1186 0.950 . S
C1191 C1193 1.327 . S
C1191 C1197 1.429 . S
C1192 C1184 1.574 . S
C1192 H1187 0.949 . S
C1192 C1198 1.368 . S
C1193 C1177 1.349 . S
C1193 H1185 0.950 . S
C1193 C1191 1.327 . S
C1194 C1182 1.349 . S
C1194 H1188 0.950 . S
C1194 C1195 1.327 1_565 S
C1195 H1189 0.950 . S
C1195 C1194 1.327 1_545 S
C1195 C1199 1.429 . S
C1196 C1179 1.574 . S
C1196 H1190 0.949 . S
C1196 C1200 1.368 . S
C1197 C1178 1.429 . S
C1197 C1191 1.429 . S
C1197 C1198 1.523 . S
C1198 C1179 1.368 . S
C1198 C1192 1.368 . S
C1198 C1197 1.523 . S
C1199 C1183 1.429 . S
C1199 C1195 1.429 . S
C1199 C1200 1.523 . S
C1200 C1184 1.368 . S
C1200 C1196 1.368 . S
C1200 C1199 1.523 . S
H1201 C1176 0.950 . S
H1202 C1178 0.950 . S
H1203 C1179 0.949 . S
H1204 C1181 0.950 . S
H1205 C1183 0.950 . S
C1206 C1207 1.349 . S
C1206 C1208 1.327 . S
C1206 H1231 0.950 . S
C1207 C1206 1.349 . S
C1207 C1223 1.349 . S
C1208 C1206 1.327 . S
C1208 C1227 1.429 . S
C1208 H1232 0.950 . S
C1209 C1226 1.574 . S
C1209 C1228 1.368 . S
C1209 H1233 0.949 . S
H1210 C1214 0.949 . S
C1211 C1212 1.349 . S
C1211 C1213 1.327 . S
C1211 H1234 0.950 . S
C1212 C1211 1.349 . S
C1212 C1224 1.349 . S
C1213 C1211 1.327 . S
C1213 C1229 1.429 . S
C1213 H1235 0.950 . S
C1214 H1210 0.949 . S
C1214 C1222 1.574 . S
C1214 C1230 1.368 . S
H1215 C1223 0.950 . S
H1216 C1221 0.950 . S
H1217 C1222 0.949 . S
H1218 C1224 0.950 . S
H1219 C1225 0.950 . S
H1220 C1226 0.949 . S
C1221 H1216 0.950 . S
C1221 C1223 1.327 . S
C1221 C1227 1.429 . S
C1222 C1214 1.574 . S
C1222 H1217 0.949 . S
C1222 C1228 1.368 . S
C1223 C1207 1.349 . S
C1223 H1215 0.950 . S
C1223 C1221 1.327 . S
C1224 C1212 1.349 . S
C1224 H1218 0.950 . S
C1224 C1225 1.327 . S
C1225 H1219 0.950 . S
C1225 C1224 1.327 . S
C1225 C1229 1.429 . S
C1226 C1209 1.574 . S
C1226 H1220 0.949 . S
C1226 C1230 1.368 . S
C1227 C1208 1.429 . S
C1227 C1221 1.429 . S
C1227 C1228 1.523 . S
C1228 C1209 1.368 . S
C1228 C1222 1.368 . S
C1228 C1227 1.523 . S
C1229 C1213 1.429 . S
C1229 C1225 1.429 . S
C1229 C1230 1.523 . S
C1230 C1214 1.368 . S
C1230 C1226 1.368 . S
C1230 C1229 1.523 . S
H1231 C1206 0.950 . S
H1232 C1208 0.950 . S
H1233 C1209 0.949 . S
H1234 C1211 0.950 . S
H1235 C1213 0.950 . S
C1236 C1237 1.349 . S
C1236 C1238 1.327 1_455 S
C1236 H1261 0.950 . S
C1237 C1236 1.349 . S
C1237 C1253 1.349 . S
C1238 C1236 1.327 1_655 S
C1238 C1257 1.429 . S
C1238 H1262 0.950 . S
C1239 C1256 1.574 . S
C1239 C1258 1.368 . S
C1239 H1263 0.949 . S
H1240 C1244 0.949 . S
C1241 C1242 1.349 . S
C1241 C1243 1.327 . S
C1241 H1264 0.950 . S
C1242 C1241 1.349 . S
C1242 C1254 1.349 . S
C1243 C1241 1.327 . S
C1243 C1259 1.429 . S
C1243 H1265 0.950 . S
C1244 H1240 0.949 . S
C1244 C1252 1.574 . S
C1244 C1260 1.368 . S
H1245 C1253 0.950 . S
H1246 C1251 0.950 . S
H1247 C1252 0.949 . S
H1248 C1254 0.950 . S
H1249 C1255 0.950 . S
H1250 C1256 0.949 . S
C1251 H1246 0.950 . S
C1251 C1253 1.327 1_655 S
C1251 C1257 1.429 . S
C1252 C1244 1.574 . S
C1252 H1247 0.949 . S
C1252 C1258 1.368 . S
C1253 C1237 1.349 . S
C1253 H1245 0.950 . S
C1253 C1251 1.327 1_455 S
C1254 C1242 1.349 . S
C1254 H1248 0.950 . S
C1254 C1255 1.327 . S
C1255 H1249 0.950 . S
C1255 C1254 1.327 . S
C1255 C1259 1.429 . S
C1256 C1239 1.574 . S
C1256 H1250 0.949 . S
C1256 C1260 1.368 . S
C1257 C1238 1.429 . S
C1257 C1251 1.429 . S
C1257 C1258 1.523 . S
C1258 C1239 1.368 . S
C1258 C1252 1.368 . S
C1258 C1257 1.523 . S
C1259 C1243 1.429 . S
C1259 C1255 1.429 . S
C1259 C1260 1.523 . S
C1260 C1244 1.368 . S
C1260 C1256 1.368 . S
C1260 C1259 1.523 . S
H1261 C1236 0.950 . S
H1262 C1238 0.950 . S
H1263 C1239 0.949 . S
H1264 C1241 0.950 . S
H1265 C1243 0.950 . S
C1266 C1267 1.349 . S
C1266 C1268 1.327 1_545 S
C1266 H1291 0.950 . S
C1267 C1266 1.349 . S
C1267 C1283 1.349 . S
C1268 C1266 1.327 1_565 S
C1268 C1287 1.429 . S
C1268 H1292 0.950 . S
C1269 C1286 1.574 . S
C1269 C1288 1.368 . S
C1269 H1293 0.949 . S
H1270 C1274 0.949 . S
C1271 C1272 1.349 . S
C1271 C1273 1.327 . S
C1271 H1294 0.950 . S
C1272 C1271 1.349 . S
C1272 C1284 1.349 . S
C1273 C1271 1.327 . S
C1273 C1289 1.429 . S
C1273 H1295 0.950 . S
C1274 H1270 0.949 . S
C1274 C1282 1.574 . S
C1274 C1290 1.368 . S
H1275 C1283 0.950 . S
H1276 C1281 0.950 . S
H1277 C1282 0.949 . S
H1278 C1284 0.950 . S
H1279 C1285 0.950 . S
H1280 C1286 0.949 . S
C1281 H1276 0.950 . S
C1281 C1283 1.327 1_565 S
C1281 C1287 1.429 . S
C1282 C1274 1.574 . S
C1282 H1277 0.949 . S
C1282 C1288 1.368 . S
C1283 C1267 1.349 . S
C1283 H1275 0.950 . S
C1283 C1281 1.327 1_545 S
C1284 C1272 1.349 . S
C1284 H1278 0.950 . S
C1284 C1285 1.327 . S
C1285 H1279 0.950 . S
C1285 C1284 1.327 . S
C1285 C1289 1.429 . S
C1286 C1269 1.574 . S
C1286 H1280 0.949 . S
C1286 C1290 1.368 . S
C1287 C1268 1.429 . S
C1287 C1281 1.429 . S
C1287 C1288 1.523 . S
C1288 C1269 1.368 . S
C1288 C1282 1.368 . S
C1288 C1287 1.523 . S
C1289 C1273 1.429 . S
C1289 C1285 1.429 . S
C1289 C1290 1.523 . S
C1290 C1274 1.368 . S
C1290 C1286 1.368 . S
C1290 C1289 1.523 . S
H1291 C1266 0.950 . S
H1292 C1268 0.950 . S
H1293 C1269 0.949 . S
H1294 C1271 0.950 . S
H1295 C1273 0.950 . S
C1296 C1297 1.349 . S
C1296 C1298 1.327 . S
C1296 H1321 0.950 . S
C1297 C1296 1.349 . S
C1297 C1313 1.349 . S
C1298 C1296 1.327 . S
C1298 C1317 1.429 . S
C1298 H1322 0.950 . S
C1299 C1316 1.574 . S
C1299 C1318 1.368 . S
C1299 H1323 0.949 . S
H1300 C1304 0.949 . S
C1301 C1302 1.349 . S
C1301 C1303 1.327 . S
C1301 H1324 0.950 . S
C1302 C1301 1.349 . S
C1302 C1314 1.349 . S
C1303 C1301 1.327 . S
C1303 C1319 1.429 . S
C1303 H1325 0.950 . S
C1304 H1300 0.949 . S
C1304 C1312 1.574 . S
C1304 C1320 1.368 . S
H1305 C1313 0.950 . S
H1306 C1311 0.950 . S
H1307 C1312 0.949 . S
H1308 C1314 0.950 . S
H1309 C1315 0.950 . S
H1310 C1316 0.949 . S
C1311 H1306 0.950 . S
C1311 C1313 1.327 . S
C1311 C1317 1.429 . S
C1312 C1304 1.574 . S
C1312 H1307 0.949 . S
C1312 C1318 1.368 . S
C1313 C1297 1.349 . S
C1313 H1305 0.950 . S
C1313 C1311 1.327 . S
C1314 C1302 1.349 . S
C1314 H1308 0.950 . S
C1314 C1315 1.327 . S
C1315 H1309 0.950 . S
C1315 C1314 1.327 . S
C1315 C1319 1.429 . S
C1316 C1299 1.574 . S
C1316 H1310 0.949 . S
C1316 C1320 1.368 . S
C1317 C1298 1.429 . S
C1317 C1311 1.429 . S
C1317 C1318 1.523 . S
C1318 C1299 1.368 . S
C1318 C1312 1.368 . S
C1318 C1317 1.523 . S
C1319 C1303 1.429 . S
C1319 C1315 1.429 . S
C1319 C1320 1.523 . S
C1320 C1304 1.368 . S
C1320 C1316 1.368 . S
C1320 C1319 1.523 . S
H1321 C1296 0.950 . S
H1322 C1298 0.950 . S
H1323 C1299 0.949 . S
H1324 C1301 0.950 . S
H1325 C1303 0.950 . S
C1326 C1327 1.349 . S
C1326 C1328 1.327 1_655 S
C1326 H1351 0.950 . S
C1327 C1326 1.349 . S
C1327 C1343 1.349 . S
C1328 C1326 1.327 1_455 S
C1328 C1347 1.429 . S
C1328 H1352 0.950 . S
C1329 C1346 1.574 . S
C1329 C1348 1.368 . S
C1329 H1353 0.949 . S
H1330 C1334 0.949 . S
C1331 C1332 1.349 . S
C1331 C1333 1.327 . S
C1331 H1354 0.950 . S
C1332 C1331 1.349 . S
C1332 C1344 1.349 . S
C1333 C1331 1.327 . S
C1333 C1349 1.429 . S
C1333 H1355 0.950 . S
C1334 H1330 0.949 . S
C1334 C1342 1.574 . S
C1334 C1350 1.368 . S
H1335 C1343 0.950 . S
H1336 C1341 0.950 . S
H1337 C1342 0.949 . S
H1338 C1344 0.950 . S
H1339 C1345 0.950 . S
H1340 C1346 0.949 . S
C1341 H1336 0.950 . S
C1341 C1343 1.327 1_455 S
C1341 C1347 1.429 . S
C1342 C1334 1.574 . S
C1342 H1337 0.949 . S
C1342 C1348 1.368 . S
C1343 C1327 1.349 . S
C1343 H1335 0.950 . S
C1343 C1341 1.327 1_655 S
C1344 C1332 1.349 . S
C1344 H1338 0.950 . S
C1344 C1345 1.327 . S
C1345 H1339 0.950 . S
C1345 C1344 1.327 . S
C1345 C1349 1.429 . S
C1346 C1329 1.574 . S
C1346 H1340 0.949 . S
C1346 C1350 1.368 . S
C1347 C1328 1.429 . S
C1347 C1341 1.429 . S
C1347 C1348 1.523 . S
C1348 C1329 1.368 . S
C1348 C1342 1.368 . S
C1348 C1347 1.523 . S
C1349 C1333 1.429 . S
C1349 C1345 1.429 . S
C1349 C1350 1.523 . S
C1350 C1334 1.368 . S
C1350 C1346 1.368 . S
C1350 C1349 1.523 . S
H1351 C1326 0.950 . S
H1352 C1328 0.950 . S
H1353 C1329 0.949 . S
H1354 C1331 0.950 . S
H1355 C1333 0.950 . S
C1356 C1357 1.349 . S
C1356 C1358 1.327 . S
C1356 H1381 0.950 . S
C1357 C1356 1.349 . S
C1357 C1373 1.349 . S
C1358 C1356 1.327 . S
C1358 C1377 1.429 . S
C1358 H1382 0.950 . S
C1359 C1376 1.574 . S
C1359 C1378 1.368 . S
C1359 H1383 0.949 . S
H1360 C1364 0.949 . S
C1361 C1362 1.349 . S
C1361 C1363 1.327 1_455 S
C1361 H1384 0.950 . S
C1362 C1361 1.349 . S
C1362 C1374 1.349 . S
C1363 C1361 1.327 1_655 S
C1363 C1379 1.429 . S
C1363 H1385 0.950 . S
C1364 H1360 0.949 . S
C1364 C1372 1.574 . S
C1364 C1380 1.368 . S
H1365 C1373 0.950 . S
H1366 C1371 0.950 . S
H1367 C1372 0.949 . S
H1368 C1374 0.950 . S
H1369 C1375 0.950 . S
H1370 C1376 0.949 . S
C1371 H1366 0.950 . S
C1371 C1373 1.327 . S
C1371 C1377 1.429 . S
C1372 C1364 1.574 . S
C1372 H1367 0.949 . S
C1372 C1378 1.368 . S
C1373 C1357 1.349 . S
C1373 H1365 0.950 . S
C1373 C1371 1.327 . S
C1374 C1362 1.349 . S
C1374 H1368 0.950 . S
C1374 C1375 1.327 1_455 S
C1375 H1369 0.950 . S
C1375 C1374 1.327 1_655 S
C1375 C1379 1.429 . S
C1376 C1359 1.574 . S
C1376 H1370 0.949 . S
C1376 C1380 1.368 . S
C1377 C1358 1.429 . S
C1377 C1371 1.429 . S
C1377 C1378 1.523 . S
C1378 C1359 1.368 . S
C1378 C1372 1.368 . S
C1378 C1377 1.523 . S
C1379 C1363 1.429 . S
C1379 C1375 1.429 . S
C1379 C1380 1.523 . S
C1380 C1364 1.368 . S
C1380 C1376 1.368 . S
C1380 C1379 1.523 . S
H1381 C1356 0.950 . S
H1382 C1358 0.950 . S
H1383 C1359 0.949 . S
H1384 C1361 0.950 . S
H1385 C1363 0.950 . S
C1386 C1387 1.349 . S
C1386 C1388 1.327 . S
C1386 H1411 0.950 . S
C1387 C1386 1.349 . S
C1387 C1403 1.349 . S
C1388 C1386 1.327 . S
C1388 C1407 1.429 . S
C1388 H1412 0.950 . S
C1389 C1406 1.574 . S
C1389 C1408 1.368 . S
C1389 H1413 0.949 . S
H1390 C1394 0.949 . S
C1391 C1392 1.349 . S
C1391 C1393 1.327 1_545 S
C1391 H1414 0.950 . S
C1392 C1391 1.349 . S
C1392 C1404 1.349 . S
C1393 C1391 1.327 1_565 S
C1393 C1409 1.429 . S
C1393 H1415 0.950 . S
C1394 H1390 0.949 . S
C1394 C1402 1.574 . S
C1394 C1410 1.368 . S
H1395 C1403 0.950 . S
H1396 C1401 0.950 . S
H1397 C1402 0.949 . S
H1398 C1404 0.950 . S
H1399 C1405 0.950 . S
H1400 C1406 0.949 . S
C1401 H1396 0.950 . S
C1401 C1403 1.327 . S
C1401 C1407 1.429 . S
C1402 C1394 1.574 . S
C1402 H1397 0.949 . S
C1402 C1408 1.368 . S
C1403 C1387 1.349 . S
C1403 H1395 0.950 . S
C1403 C1401 1.327 . S
C1404 C1392 1.349 . S
C1404 H1398 0.950 . S
C1404 C1405 1.327 1_545 S
C1405 H1399 0.950 . S
C1405 C1404 1.327 1_565 S
C1405 C1409 1.429 . S
C1406 C1389 1.574 . S
C1406 H1400 0.949 . S
C1406 C1410 1.368 . S
C1407 C1388 1.429 . S
C1407 C1401 1.429 . S
C1407 C1408 1.523 . S
C1408 C1389 1.368 . S
C1408 C1402 1.368 . S
C1408 C1407 1.523 . S
C1409 C1393 1.429 . S
C1409 C1405 1.429 . S
C1409 C1410 1.523 . S
C1410 C1394 1.368 . S
C1410 C1406 1.368 . S
C1410 C1409 1.523 . S
H1411 C1386 0.950 . S
H1412 C1388 0.950 . S
H1413 C1389 0.949 . S
H1414 C1391 0.950 . S
H1415 C1393 0.950 . S
C1416 C1417 1.349 . S
C1416 C1418 1.327 . S
C1416 H1441 0.950 . S
C1417 C1416 1.349 . S
C1417 C1433 1.349 . S
C1418 C1416 1.327 . S
C1418 C1437 1.429 . S
C1418 H1442 0.950 . S
C1419 C1436 1.574 . S
C1419 C1438 1.368 . S
C1419 H1443 0.949 . S
H1420 C1424 0.949 . S
C1421 C1422 1.349 . S
C1421 C1423 1.327 . S
C1421 H1444 0.950 . S
C1422 C1421 1.349 . S
C1422 C1434 1.349 . S
C1423 C1421 1.327 . S
C1423 C1439 1.429 . S
C1423 H1445 0.950 . S
C1424 H1420 0.949 . S
C1424 C1432 1.574 . S
C1424 C1440 1.368 . S
H1425 C1433 0.950 . S
H1426 C1431 0.950 . S
H1427 C1432 0.949 . S
H1428 C1434 0.950 . S
H1429 C1435 0.950 . S
H1430 C1436 0.949 . S
C1431 H1426 0.950 . S
C1431 C1433 1.327 . S
C1431 C1437 1.429 . S
C1432 C1424 1.574 . S
C1432 H1427 0.949 . S
C1432 C1438 1.368 . S
C1433 C1417 1.349 . S
C1433 H1425 0.950 . S
C1433 C1431 1.327 . S
C1434 C1422 1.349 . S
C1434 H1428 0.950 . S
C1434 C1435 1.327 . S
C1435 H1429 0.950 . S
C1435 C1434 1.327 . S
C1435 C1439 1.429 . S
C1436 C1419 1.574 . S
C1436 H1430 0.949 . S
C1436 C1440 1.368 . S
C1437 C1418 1.429 . S
C1437 C1431 1.429 . S
C1437 C1438 1.523 . S
C1438 C1419 1.368 . S
C1438 C1432 1.368 . S
C1438 C1437 1.523 . S
C1439 C1423 1.429 . S
C1439 C1435 1.429 . S
C1439 C1440 1.523 . S
C1440 C1424 1.368 . S
C1440 C1436 1.368 . S
C1440 C1439 1.523 . S
H1441 C1416 0.950 . S
H1442 C1418 0.950 . S
H1443 C1419 0.949 . S
H1444 C1421 0.950 . S
H1445 C1423 0.950 . S
C1446 C1447 1.349 . S
C1446 C1448 1.327 1_655 S
C1446 H1471 0.950 . S
C1447 C1446 1.349 . S
C1447 C1463 1.349 . S
C1448 C1446 1.327 1_455 S
C1448 C1467 1.429 . S
C1448 H1472 0.950 . S
C1449 C1466 1.574 . S
C1449 C1468 1.368 . S
C1449 H1473 0.949 . S
H1450 C1454 0.949 . S
C1451 C1452 1.349 . S
C1451 C1453 1.327 . S
C1451 H1474 0.950 . S
C1452 C1451 1.349 . S
C1452 C1464 1.349 . S
C1453 C1451 1.327 . S
C1453 C1469 1.429 . S
C1453 H1475 0.950 . S
C1454 H1450 0.949 . S
C1454 C1462 1.574 . S
C1454 C1470 1.368 . S
H1455 C1463 0.950 . S
H1456 C1461 0.950 . S
H1457 C1462 0.949 . S
H1458 C1464 0.950 . S
H1459 C1465 0.950 . S
H1460 C1466 0.949 . S
C1461 H1456 0.950 . S
C1461 C1463 1.327 1_455 S
C1461 C1467 1.429 . S
C1462 C1454 1.574 . S
C1462 H1457 0.949 . S
C1462 C1468 1.368 . S
C1463 C1447 1.349 . S
C1463 H1455 0.950 . S
C1463 C1461 1.327 1_655 S
C1464 C1452 1.349 . S
C1464 H1458 0.950 . S
C1464 C1465 1.327 . S
C1465 H1459 0.950 . S
C1465 C1464 1.327 . S
C1465 C1469 1.429 . S
C1466 C1449 1.574 . S
C1466 H1460 0.949 . S
C1466 C1470 1.368 . S
C1467 C1448 1.429 . S
C1467 C1461 1.429 . S
C1467 C1468 1.523 . S
C1468 C1449 1.368 . S
C1468 C1462 1.368 . S
C1468 C1467 1.523 . S
C1469 C1453 1.429 . S
C1469 C1465 1.429 . S
C1469 C1470 1.523 . S
C1470 C1454 1.368 . S
C1470 C1466 1.368 . S
C1470 C1469 1.523 . S
H1471 C1446 0.950 . S
H1472 C1448 0.950 . S
H1473 C1449 0.949 . S
H1474 C1451 0.950 . S
H1475 C1453 0.950 . S
C1476 C1477 1.349 . S
C1476 C1478 1.327 1_565 S
C1476 H1501 0.950 . S
C1477 C1476 1.349 . S
C1477 C1493 1.349 . S
C1478 C1476 1.327 1_545 S
C1478 C1497 1.429 . S
C1478 H1502 0.950 . S
C1479 C1496 1.574 . S
C1479 C1498 1.368 . S
C1479 H1503 0.949 . S
H1480 C1484 0.949 . S
C1481 C1482 1.349 . S
C1481 C1483 1.327 . S
C1481 H1504 0.950 . S
C1482 C1481 1.349 . S
C1482 C1494 1.349 . S
C1483 C1481 1.327 . S
C1483 C1499 1.429 . S
C1483 H1505 0.950 . S
C1484 H1480 0.949 . S
C1484 C1492 1.574 . S
C1484 C1500 1.368 . S
H1485 C1493 0.950 . S
H1486 C1491 0.950 . S
H1487 C1492 0.949 . S
H1488 C1494 0.950 . S
H1489 C1495 0.950 . S
H1490 C1496 0.949 . S
C1491 H1486 0.950 . S
C1491 C1493 1.327 1_545 S
C1491 C1497 1.429 . S
C1492 C1484 1.574 . S
C1492 H1487 0.949 . S
C1492 C1498 1.368 . S
C1493 C1477 1.349 . S
C1493 H1485 0.950 . S
C1493 C1491 1.327 1_565 S
C1494 C1482 1.349 . S
C1494 H1488 0.950 . S
C1494 C1495 1.327 . S
C1495 H1489 0.950 . S
C1495 C1494 1.327 . S
C1495 C1499 1.429 . S
C1496 C1479 1.574 . S
C1496 H1490 0.949 . S
C1496 C1500 1.368 . S
C1497 C1478 1.429 . S
C1497 C1491 1.429 . S
C1497 C1498 1.523 . S
C1498 C1479 1.368 . S
C1498 C1492 1.368 . S
C1498 C1497 1.523 . S
C1499 C1483 1.429 . S
C1499 C1495 1.429 . S
C1499 C1500 1.523 . S
C1500 C1484 1.368 . S
C1500 C1496 1.368 . S
C1500 C1499 1.523 . S
H1501 C1476 0.950 . S
H1502 C1478 0.950 . S
H1503 C1479 0.949 . S
H1504 C1481 0.950 . S
H1505 C1483 0.950 . S
C1506 C1507 1.349 . S
C1506 C1508 1.327 . S
C1506 H1531 0.950 . S
C1507 C1506 1.349 . S
C1507 C1523 1.349 . S
C1508 C1506 1.327 . S
C1508 C1527 1.429 . S
C1508 H1532 0.950 . S
C1509 C1526 1.574 . S
C1509 C1528 1.368 . S
C1509 H1533 0.949 . S
H1510 C1514 0.949 . S
C1511 C1512 1.349 . S
C1511 C1513 1.327 . S
C1511 H1534 0.950 . S
C1512 C1511 1.349 . S
C1512 C1524 1.349 . S
C1513 C1511 1.327 . S
C1513 C1529 1.429 . S
C1513 H1535 0.950 . S
C1514 H1510 0.949 . S
C1514 C1522 1.574 . S
C1514 C1530 1.368 . S
H1515 C1523 0.950 . S
H1516 C1521 0.950 . S
H1517 C1522 0.949 . S
H1518 C1524 0.950 . S
H1519 C1525 0.950 . S
H1520 C1526 0.949 . S
C1521 H1516 0.950 . S
C1521 C1523 1.327 . S
C1521 C1527 1.429 . S
C1522 C1514 1.574 . S
C1522 H1517 0.949 . S
C1522 C1528 1.368 . S
C1523 C1507 1.349 . S
C1523 H1515 0.950 . S
C1523 C1521 1.327 . S
C1524 C1512 1.349 . S
C1524 H1518 0.950 . S
C1524 C1525 1.327 . S
C1525 H1519 0.950 . S
C1525 C1524 1.327 . S
C1525 C1529 1.429 . S
C1526 C1509 1.574 . S
C1526 H1520 0.949 . S
C1526 C1530 1.368 . S
C1527 C1508 1.429 . S
C1527 C1521 1.429 . S
C1527 C1528 1.523 . S
C1528 C1509 1.368 . S
C1528 C1522 1.368 . S
C1528 C1527 1.523 . S
C1529 C1513 1.429 . S
C1529 C1525 1.429 . S
C1529 C1530 1.523 . S
C1530 C1514 1.368 . S
C1530 C1526 1.368 . S
C1530 C1529 1.523 . S
H1531 C1506 0.950 . S
H1532 C1508 0.950 . S
H1533 C1509 0.949 . S
H1534 C1511 0.950 . S
H1535 C1513 0.950 . S
C1536 C1537 1.349 . S
C1536 C1538 1.327 . S
C1536 H1561 0.950 . S
C1537 C1536 1.349 . S
C1537 C1553 1.349 . S
C1538 C1536 1.327 . S
C1538 C1557 1.429 . S
C1538 H1562 0.950 . S
C1539 C1556 1.574 1_554 S
C1539 C1558 1.368 . S
C1539 H1563 0.949 . S
H1540 C1544 0.949 . S
C1541 C1542 1.349 . S
C1541 C1543 1.327 . S
C1541 H1564 0.950 . S
C1542 C1541 1.349 . S
C1542 C1554 1.349 . S
C1543 C1541 1.327 . S
C1543 C1559 1.429 . S
C1543 H1565 0.950 . S
C1544 H1540 0.949 . S
C1544 C1552 1.574 1_556 S
C1544 C1560 1.368 . S
H1545 C1553 0.950 . S
H1546 C1551 0.950 . S
H1547 C1552 0.949 . S
H1548 C1554 0.950 . S
H1549 C1555 0.950 . S
H1550 C1556 0.949 . S
C1551 H1546 0.950 . S
C1551 C1553 1.327 . S
C1551 C1557 1.429 . S
C1552 C1544 1.574 1_554 S
C1552 H1547 0.949 . S
C1552 C1558 1.368 . S
C1553 C1537 1.349 . S
C1553 H1545 0.950 . S
C1553 C1551 1.327 . S
C1554 C1542 1.349 . S
C1554 H1548 0.950 . S
C1554 C1555 1.327 . S
C1555 H1549 0.950 . S
C1555 C1554 1.327 . S
C1555 C1559 1.429 . S
C1556 C1539 1.574 1_556 S
C1556 H1550 0.949 . S
C1556 C1560 1.368 . S
C1557 C1538 1.429 . S
C1557 C1551 1.429 . S
C1557 C1558 1.523 . S
C1558 C1539 1.368 . S
C1558 C1552 1.368 . S
C1558 C1557 1.523 . S
C1559 C1543 1.429 . S
C1559 C1555 1.429 . S
C1559 C1560 1.523 . S
C1560 C1544 1.368 . S
C1560 C1556 1.368 . S
C1560 C1559 1.523 . S
H1561 C1536 0.950 . S
H1562 C1538 0.950 . S
H1563 C1539 0.949 . S
H1564 C1541 0.950 . S
H1565 C1543 0.950 . S
C1566 C1567 1.349 . S
C1566 C1568 1.327 . S
C1566 H1591 0.950 . S
C1567 C1566 1.349 . S
C1567 C1583 1.349 . S
C1568 C1566 1.327 . S
C1568 C1587 1.429 . S
C1568 H1592 0.950 . S
C1569 C1586 1.574 1_554 S
C1569 C1588 1.368 . S
C1569 H1593 0.949 . S
H1570 C1574 0.949 . S
C1571 C1572 1.349 . S
C1571 C1573 1.327 . S
C1571 H1594 0.950 . S
C1572 C1571 1.349 . S
C1572 C1584 1.349 . S
C1573 C1571 1.327 . S
C1573 C1589 1.429 . S
C1573 H1595 0.950 . S
C1574 H1570 0.949 . S
C1574 C1582 1.574 1_556 S
C1574 C1590 1.368 . S
H1575 C1583 0.950 . S
H1576 C1581 0.950 . S
H1577 C1582 0.949 . S
H1578 C1584 0.950 . S
H1579 C1585 0.950 . S
H1580 C1586 0.949 . S
C1581 H1576 0.950 . S
C1581 C1583 1.327 . S
C1581 C1587 1.429 . S
C1582 C1574 1.574 1_554 S
C1582 H1577 0.949 . S
C1582 C1588 1.368 . S
C1583 C1567 1.349 . S
C1583 H1575 0.950 . S
C1583 C1581 1.327 . S
C1584 C1572 1.349 . S
C1584 H1578 0.950 . S
C1584 C1585 1.327 . S
C1585 H1579 0.950 . S
C1585 C1584 1.327 . S
C1585 C1589 1.429 . S
C1586 C1569 1.574 1_556 S
C1586 H1580 0.949 . S
C1586 C1590 1.368 . S
C1587 C1568 1.429 . S
C1587 C1581 1.429 . S
C1587 C1588 1.523 . S
C1588 C1569 1.368 . S
C1588 C1582 1.368 . S
C1588 C1587 1.523 . S
C1589 C1573 1.429 . S
C1589 C1585 1.429 . S
C1589 C1590 1.523 . S
C1590 C1574 1.368 . S
C1590 C1586 1.368 . S
C1590 C1589 1.523 . S
H1591 C1566 0.950 . S
H1592 C1568 0.950 . S
H1593 C1569 0.949 . S
H1594 C1571 0.950 . S
H1595 C1573 0.950 . S
C1596 C1597 1.349 . S
C1596 C1598 1.327 . S
C1596 H1621 0.950 . S
C1597 C1596 1.349 . S
C1597 C1613 1.349 . S
C1598 C1596 1.327 . S
C1598 C1617 1.429 . S
C1598 H1622 0.950 . S
C1599 C1616 1.574 1_554 S
C1599 C1618 1.368 . S
C1599 H1623 0.949 . S
H1600 C1604 0.949 . S
C1601 C1602 1.349 . S
C1601 C1603 1.327 . S
C1601 H1624 0.950 . S
C1602 C1601 1.349 . S
C1602 C1614 1.349 . S
C1603 C1601 1.327 . S
C1603 C1619 1.429 . S
C1603 H1625 0.950 . S
C1604 H1600 0.949 . S
C1604 C1612 1.574 1_556 S
C1604 C1620 1.368 . S
H1605 C1613 0.950 . S
H1606 C1611 0.950 . S
H1607 C1612 0.949 . S
H1608 C1614 0.950 . S
H1609 C1615 0.950 . S
H1610 C1616 0.949 . S
C1611 H1606 0.950 . S
C1611 C1613 1.327 . S
C1611 C1617 1.429 . S
C1612 C1604 1.574 1_554 S
C1612 H1607 0.949 . S
C1612 C1618 1.368 . S
C1613 C1597 1.349 . S
C1613 H1605 0.950 . S
C1613 C1611 1.327 . S
C1614 C1602 1.349 . S
C1614 H1608 0.950 . S
C1614 C1615 1.327 . S
C1615 H1609 0.950 . S
C1615 C1614 1.327 . S
C1615 C1619 1.429 . S
C1616 C1599 1.574 1_556 S
C1616 H1610 0.949 . S
C1616 C1620 1.368 . S
C1617 C1598 1.429 . S
C1617 C1611 1.429 . S
C1617 C1618 1.523 . S
C1618 C1599 1.368 . S
C1618 C1612 1.368 . S
C1618 C1617 1.523 . S
C1619 C1603 1.429 . S
C1619 C1615 1.429 . S
C1619 C1620 1.523 . S
C1620 C1604 1.368 . S
C1620 C1616 1.368 . S
C1620 C1619 1.523 . S
H1621 C1596 0.950 . S
H1622 C1598 0.950 . S
H1623 C1599 0.949 . S
H1624 C1601 0.950 . S
H1625 C1603 0.950 . S
C1626 C1627 1.349 . S
C1626 C1628 1.327 . S
C1626 H1651 0.950 . S
C1627 C1626 1.349 . S
C1627 C1643 1.349 . S
C1628 C1626 1.327 . S
C1628 C1647 1.429 . S
C1628 H1652 0.950 . S
C1629 C1646 1.574 1_556 S
C1629 C1648 1.368 . S
C1629 H1653 0.949 . S
H1630 C1634 0.949 . S
C1631 C1632 1.349 . S
C1631 C1633 1.327 . S
C1631 H1654 0.950 . S
C1632 C1631 1.349 . S
C1632 C1644 1.349 . S
C1633 C1631 1.327 . S
C1633 C1649 1.429 . S
C1633 H1655 0.950 . S
C1634 H1630 0.949 . S
C1634 C1642 1.574 1_554 S
C1634 C1650 1.368 . S
H1635 C1643 0.950 . S
H1636 C1641 0.950 . S
H1637 C1642 0.949 . S
H1638 C1644 0.950 . S
H1639 C1645 0.950 . S
H1640 C1646 0.949 . S
C1641 H1636 0.950 . S
C1641 C1643 1.327 . S
C1641 C1647 1.429 . S
C1642 C1634 1.574 1_556 S
C1642 H1637 0.949 . S
C1642 C1648 1.368 . S
C1643 C1627 1.349 . S
C1643 H1635 0.950 . S
C1643 C1641 1.327 . S
C1644 C1632 1.349 . S
C1644 H1638 0.950 . S
C1644 C1645 1.327 . S
C1645 H1639 0.950 . S
C1645 C1644 1.327 . S
C1645 C1649 1.429 . S
C1646 C1629 1.574 1_554 S
C1646 H1640 0.949 . S
C1646 C1650 1.368 . S
C1647 C1628 1.429 . S
C1647 C1641 1.429 . S
C1647 C1648 1.523 . S
C1648 C1629 1.368 . S
C1648 C1642 1.368 . S
C1648 C1647 1.523 . S
C1649 C1633 1.429 . S
C1649 C1645 1.429 . S
C1649 C1650 1.523 . S
C1650 C1634 1.368 . S
C1650 C1646 1.368 . S
C1650 C1649 1.523 . S
H1651 C1626 0.950 . S
H1652 C1628 0.950 . S
H1653 C1629 0.949 . S
H1654 C1631 0.950 . S
H1655 C1633 0.950 . S
C1656 C1657 1.349 . S
C1656 C1658 1.327 . S
C1656 H1681 0.950 . S
C1657 C1656 1.349 . S
C1657 C1673 1.349 . S
C1658 C1656 1.327 . S
C1658 C1677 1.429 . S
C1658 H1682 0.950 . S
C1659 C1676 1.574 1_554 S
C1659 C1678 1.368 . S
C1659 H1683 0.949 . S
H1660 C1664 0.949 . S
C1661 C1662 1.349 . S
C1661 C1663 1.327 . S
C1661 H1684 0.950 . S
C1662 C1661 1.349 . S
C1662 C1674 1.349 . S
C1663 C1661 1.327 . S
C1663 C1679 1.429 . S
C1663 H1685 0.950 . S
C1664 H1660 0.949 . S
C1664 C1672 1.574 1_556 S
C1664 C1680 1.368 . S
H1665 C1673 0.950 . S
H1666 C1671 0.950 . S
H1667 C1672 0.949 . S
H1668 C1674 0.950 . S
H1669 C1675 0.950 . S
H1670 C1676 0.949 . S
C1671 H1666 0.950 . S
C1671 C1673 1.327 . S
C1671 C1677 1.429 . S
C1672 C1664 1.574 1_554 S
C1672 H1667 0.949 . S
C1672 C1678 1.368 . S
C1673 C1657 1.349 . S
C1673 H1665 0.950 . S
C1673 C1671 1.327 . S
C1674 C1662 1.349 . S
C1674 H1668 0.950 . S
C1674 C1675 1.327 . S
C1675 H1669 0.950 . S
C1675 C1674 1.327 . S
C1675 C1679 1.429 . S
C1676 C1659 1.574 1_556 S
C1676 H1670 0.949 . S
C1676 C1680 1.368 . S
C1677 C1658 1.429 . S
C1677 C1671 1.429 . S
C1677 C1678 1.523 . S
C1678 C1659 1.368 . S
C1678 C1672 1.368 . S
C1678 C1677 1.523 . S
C1679 C1663 1.429 . S
C1679 C1675 1.429 . S
C1679 C1680 1.523 . S
C1680 C1664 1.368 . S
C1680 C1676 1.368 . S
C1680 C1679 1.523 . S
H1681 C1656 0.950 . S
H1682 C1658 0.950 . S
H1683 C1659 0.949 . S
H1684 C1661 0.950 . S
H1685 C1663 0.950 . S
C1686 C1687 1.349 . S
C1686 C1688 1.327 . S
C1686 H1711 0.950 . S
C1687 C1686 1.349 . S
C1687 C1703 1.349 . S
C1688 C1686 1.327 . S
C1688 C1707 1.429 . S
C1688 H1712 0.950 . S
C1689 C1706 1.574 1_554 S
C1689 C1708 1.368 . S
C1689 H1713 0.949 . S
H1690 C1694 0.949 . S
C1691 C1692 1.349 . S
C1691 C1693 1.327 . S
C1691 H1714 0.950 . S
C1692 C1691 1.349 . S
C1692 C1704 1.349 . S
C1693 C1691 1.327 . S
C1693 C1709 1.429 . S
C1693 H1715 0.950 . S
C1694 H1690 0.949 . S
C1694 C1702 1.574 1_556 S
C1694 C1710 1.368 . S
H1695 C1703 0.950 . S
H1696 C1701 0.950 . S
H1697 C1702 0.949 . S
H1698 C1704 0.950 . S
H1699 C1705 0.950 . S
H1700 C1706 0.949 . S
C1701 H1696 0.950 . S
C1701 C1703 1.327 . S
C1701 C1707 1.429 . S
C1702 C1694 1.574 1_554 S
C1702 H1697 0.949 . S
C1702 C1708 1.368 . S
C1703 C1687 1.349 . S
C1703 H1695 0.950 . S
C1703 C1701 1.327 . S
C1704 C1692 1.349 . S
C1704 H1698 0.950 . S
C1704 C1705 1.327 . S
C1705 H1699 0.950 . S
C1705 C1704 1.327 . S
C1705 C1709 1.429 . S
C1706 C1689 1.574 1_556 S
C1706 H1700 0.949 . S
C1706 C1710 1.368 . S
C1707 C1688 1.429 . S
C1707 C1701 1.429 . S
C1707 C1708 1.523 . S
C1708 C1689 1.368 . S
C1708 C1702 1.368 . S
C1708 C1707 1.523 . S
C1709 C1693 1.429 . S
C1709 C1705 1.429 . S
C1709 C1710 1.523 . S
C1710 C1694 1.368 . S
C1710 C1706 1.368 . S
C1710 C1709 1.523 . S
H1711 C1686 0.950 . S
H1712 C1688 0.950 . S
H1713 C1689 0.949 . S
H1714 C1691 0.950 . S
H1715 C1693 0.950 . S
C1716 C1717 1.349 . S
C1716 C1718 1.327 . S
C1716 H1741 0.950 . S
C1717 C1716 1.349 . S
C1717 C1733 1.349 . S
C1718 C1716 1.327 . S
C1718 C1737 1.429 . S
C1718 H1742 0.950 . S
C1719 C1736 1.574 . S
C1719 C1738 1.368 . S
C1719 H1743 0.949 . S
H1720 C1724 0.949 . S
C1721 C1722 1.349 . S
C1721 C1723 1.327 . S
C1721 H1744 0.950 . S
C1722 C1721 1.349 . S
C1722 C1734 1.349 . S
C1723 C1721 1.327 . S
C1723 C1739 1.429 . S
C1723 H1745 0.950 . S
C1724 H1720 0.949 . S
C1724 C1732 1.574 . S
C1724 C1740 1.368 . S
H1725 C1733 0.950 . S
H1726 C1731 0.950 . S
H1727 C1732 0.949 . S
H1728 C1734 0.950 . S
H1729 C1735 0.950 . S
H1730 C1736 0.949 . S
C1731 H1726 0.950 . S
C1731 C1733 1.327 . S
C1731 C1737 1.429 . S
C1732 C1724 1.574 . S
C1732 H1727 0.949 . S
C1732 C1738 1.368 . S
C1733 C1717 1.349 . S
C1733 H1725 0.950 . S
C1733 C1731 1.327 . S
C1734 C1722 1.349 . S
C1734 H1728 0.950 . S
C1734 C1735 1.327 . S
C1735 H1729 0.950 . S
C1735 C1734 1.327 . S
C1735 C1739 1.429 . S
C1736 C1719 1.574 . S
C1736 H1730 0.949 . S
C1736 C1740 1.368 . S
C1737 C1718 1.429 . S
C1737 C1731 1.429 . S
C1737 C1738 1.523 . S
C1738 C1719 1.368 . S
C1738 C1732 1.368 . S
C1738 C1737 1.523 . S
C1739 C1723 1.429 . S
C1739 C1735 1.429 . S
C1739 C1740 1.523 . S
C1740 C1724 1.368 . S
C1740 C1736 1.368 . S
C1740 C1739 1.523 . S
H1741 C1716 0.950 . S
H1742 C1718 0.950 . S
H1743 C1719 0.949 . S
H1744 C1721 0.950 . S
H1745 C1723 0.950 . S
C1746 C1747 1.349 . S
C1746 C1748 1.327 . S
C1746 H1771 0.950 . S
C1747 C1746 1.349 . S
C1747 C1763 1.349 . S
C1748 C1746 1.327 . S
C1748 C1767 1.429 . S
C1748 H1772 0.950 . S
C1749 C1766 1.574 . S
C1749 C1768 1.368 . S
C1749 H1773 0.949 . S
H1750 C1754 0.949 . S
C1751 C1752 1.349 . S
C1751 C1753 1.327 . S
C1751 H1774 0.950 . S
C1752 C1751 1.349 . S
C1752 C1764 1.349 . S
C1753 C1751 1.327 . S
C1753 C1769 1.429 . S
C1753 H1775 0.950 . S
C1754 H1750 0.949 . S
C1754 C1762 1.574 . S
C1754 C1770 1.368 . S
H1755 C1763 0.950 . S
H1756 C1761 0.950 . S
H1757 C1762 0.949 . S
H1758 C1764 0.950 . S
H1759 C1765 0.950 . S
H1760 C1766 0.949 . S
C1761 H1756 0.950 . S
C1761 C1763 1.327 . S
C1761 C1767 1.429 . S
C1762 C1754 1.574 . S
C1762 H1757 0.949 . S
C1762 C1768 1.368 . S
C1763 C1747 1.349 . S
C1763 H1755 0.950 . S
C1763 C1761 1.327 . S
C1764 C1752 1.349 . S
C1764 H1758 0.950 . S
C1764 C1765 1.327 . S
C1765 H1759 0.950 . S
C1765 C1764 1.327 . S
C1765 C1769 1.429 . S
C1766 C1749 1.574 . S
C1766 H1760 0.949 . S
C1766 C1770 1.368 . S
C1767 C1748 1.429 . S
C1767 C1761 1.429 . S
C1767 C1768 1.523 . S
C1768 C1749 1.368 . S
C1768 C1762 1.368 . S
C1768 C1767 1.523 . S
C1769 C1753 1.429 . S
C1769 C1765 1.429 . S
C1769 C1770 1.523 . S
C1770 C1754 1.368 . S
C1770 C1766 1.368 . S
C1770 C1769 1.523 . S
H1771 C1746 0.950 . S
H1772 C1748 0.950 . S
H1773 C1749 0.949 . S
H1774 C1751 0.950 . S
H1775 C1753 0.950 . S
C1776 C1777 1.349 . S
C1776 C1778 1.327 . S
C1776 H1801 0.950 . S
C1777 C1776 1.349 . S
C1777 C1793 1.349 . S
C1778 C1776 1.327 . S
C1778 C1797 1.429 . S
C1778 H1802 0.950 . S
C1779 C1796 1.574 . S
C1779 C1798 1.368 . S
C1779 H1803 0.949 . S
H1780 C1784 0.949 . S
C1781 C1782 1.349 . S
C1781 C1783 1.327 . S
C1781 H1804 0.950 . S
C1782 C1781 1.349 . S
C1782 C1794 1.349 . S
C1783 C1781 1.327 . S
C1783 C1799 1.429 . S
C1783 H1805 0.950 . S
C1784 H1780 0.949 . S
C1784 C1792 1.574 . S
C1784 C1800 1.368 . S
H1785 C1793 0.950 . S
H1786 C1791 0.950 . S
H1787 C1792 0.949 . S
H1788 C1794 0.950 . S
H1789 C1795 0.950 . S
H1790 C1796 0.949 . S
C1791 H1786 0.950 . S
C1791 C1793 1.327 . S
C1791 C1797 1.429 . S
C1792 C1784 1.574 . S
C1792 H1787 0.949 . S
C1792 C1798 1.368 . S
C1793 C1777 1.349 . S
C1793 H1785 0.950 . S
C1793 C1791 1.327 . S
C1794 C1782 1.349 . S
C1794 H1788 0.950 . S
C1794 C1795 1.327 . S
C1795 H1789 0.950 . S
C1795 C1794 1.327 . S
C1795 C1799 1.429 . S
C1796 C1779 1.574 . S
C1796 H1790 0.949 . S
C1796 C1800 1.368 . S
C1797 C1778 1.429 . S
C1797 C1791 1.429 . S
C1797 C1798 1.523 . S
C1798 C1779 1.368 . S
C1798 C1792 1.368 . S
C1798 C1797 1.523 . S
C1799 C1783 1.429 . S
C1799 C1795 1.429 . S
C1799 C1800 1.523 . S
C1800 C1784 1.368 . S
C1800 C1796 1.368 . S
C1800 C1799 1.523 . S
H1801 C1776 0.950 . S
H1802 C1778 0.950 . S
H1803 C1779 0.949 . S
H1804 C1781 0.950 . S
H1805 C1783 0.950 . S
C1806 C1807 1.349 . S
C1806 C1808 1.327 . S
C1806 H1831 0.950 . S
C1807 C1806 1.349 . S
C1807 C1823 1.349 . S
C1808 C1806 1.327 . S
C1808 C1827 1.429 . S
C1808 H1832 0.950 . S
C1809 C1826 1.574 . S
C1809 C1828 1.368 . S
C1809 H1833 0.949 . S
H1810 C1814 0.949 . S
C1811 C1812 1.349 . S
C1811 C1813 1.327 . S
C1811 H1834 0.950 . S
C1812 C1811 1.349 . S
C1812 C1824 1.349 . S
C1813 C1811 1.327 . S
C1813 C1829 1.429 . S
C1813 H1835 0.950 . S
C1814 H1810 0.949 . S
C1814 C1822 1.574 . S
C1814 C1830 1.368 . S
H1815 C1823 0.950 . S
H1816 C1821 0.950 . S
H1817 C1822 0.949 . S
H1818 C1824 0.950 . S
H1819 C1825 0.950 . S
H1820 C1826 0.949 . S
C1821 H1816 0.950 . S
C1821 C1823 1.327 . S
C1821 C1827 1.429 . S
C1822 C1814 1.574 . S
C1822 H1817 0.949 . S
C1822 C1828 1.368 . S
C1823 C1807 1.349 . S
C1823 H1815 0.950 . S
C1823 C1821 1.327 . S
C1824 C1812 1.349 . S
C1824 H1818 0.950 . S
C1824 C1825 1.327 . S
C1825 H1819 0.950 . S
C1825 C1824 1.327 . S
C1825 C1829 1.429 . S
C1826 C1809 1.574 . S
C1826 H1820 0.949 . S
C1826 C1830 1.368 . S
C1827 C1808 1.429 . S
C1827 C1821 1.429 . S
C1827 C1828 1.523 . S
C1828 C1809 1.368 . S
C1828 C1822 1.368 . S
C1828 C1827 1.523 . S
C1829 C1813 1.429 . S
C1829 C1825 1.429 . S
C1829 C1830 1.523 . S
C1830 C1814 1.368 . S
C1830 C1826 1.368 . S
C1830 C1829 1.523 . S
H1831 C1806 0.950 . S
H1832 C1808 0.950 . S
H1833 C1809 0.949 . S
H1834 C1811 0.950 . S
H1835 C1813 0.950 . S
C1836 C1837 1.349 . S
C1836 C1838 1.327 . S
C1836 H1861 0.950 . S
C1837 C1836 1.349 . S
C1837 C1853 1.349 . S
C1838 C1836 1.327 . S
C1838 C1857 1.429 . S
C1838 H1862 0.950 . S
C1839 C1856 1.574 . S
C1839 C1858 1.368 . S
C1839 H1863 0.949 . S
H1840 C1844 0.949 . S
C1841 C1842 1.349 . S
C1841 C1843 1.327 . S
C1841 H1864 0.950 . S
C1842 C1841 1.349 . S
C1842 C1854 1.349 . S
C1843 C1841 1.327 . S
C1843 C1859 1.429 . S
C1843 H1865 0.950 . S
C1844 H1840 0.949 . S
C1844 C1852 1.574 . S
C1844 C1860 1.368 . S
H1845 C1853 0.950 . S
H1846 C1851 0.950 . S
H1847 C1852 0.949 . S
H1848 C1854 0.950 . S
H1849 C1855 0.950 . S
H1850 C1856 0.949 . S
C1851 H1846 0.950 . S
C1851 C1853 1.327 . S
C1851 C1857 1.429 . S
C1852 C1844 1.574 . S
C1852 H1847 0.949 . S
C1852 C1858 1.368 . S
C1853 C1837 1.349 . S
C1853 H1845 0.950 . S
C1853 C1851 1.327 . S
C1854 C1842 1.349 . S
C1854 H1848 0.950 . S
C1854 C1855 1.327 . S
C1855 H1849 0.950 . S
C1855 C1854 1.327 . S
C1855 C1859 1.429 . S
C1856 C1839 1.574 . S
C1856 H1850 0.949 . S
C1856 C1860 1.368 . S
C1857 C1838 1.429 . S
C1857 C1851 1.429 . S
C1857 C1858 1.523 . S
C1858 C1839 1.368 . S
C1858 C1852 1.368 . S
C1858 C1857 1.523 . S
C1859 C1843 1.429 . S
C1859 C1855 1.429 . S
C1859 C1860 1.523 . S
C1860 C1844 1.368 . S
C1860 C1856 1.368 . S
C1860 C1859 1.523 . S
H1861 C1836 0.950 . S
H1862 C1838 0.950 . S
H1863 C1839 0.949 . S
H1864 C1841 0.950 . S
H1865 C1843 0.950 . S
C1866 C1867 1.349 . S
C1866 C1868 1.327 . S
C1866 H1891 0.950 . S
C1867 C1866 1.349 . S
C1867 C1883 1.349 . S
C1868 C1866 1.327 . S
C1868 C1887 1.429 . S
C1868 H1892 0.950 . S
C1869 C1886 1.574 . S
C1869 C1888 1.368 . S
C1869 H1893 0.949 . S
H1870 C1874 0.949 . S
C1871 C1872 1.349 . S
C1871 C1873 1.327 . S
C1871 H1894 0.950 . S
C1872 C1871 1.349 . S
C1872 C1884 1.349 . S
C1873 C1871 1.327 . S
C1873 C1889 1.429 . S
C1873 H1895 0.950 . S
C1874 H1870 0.949 . S
C1874 C1882 1.574 . S
C1874 C1890 1.368 . S
H1875 C1883 0.950 . S
H1876 C1881 0.950 . S
H1877 C1882 0.949 . S
H1878 C1884 0.950 . S
H1879 C1885 0.950 . S
H1880 C1886 0.949 . S
C1881 H1876 0.950 . S
C1881 C1883 1.327 . S
C1881 C1887 1.429 . S
C1882 C1874 1.574 . S
C1882 H1877 0.949 . S
C1882 C1888 1.368 . S
C1883 C1867 1.349 . S
C1883 H1875 0.950 . S
C1883 C1881 1.327 . S
C1884 C1872 1.349 . S
C1884 H1878 0.950 . S
C1884 C1885 1.327 . S
C1885 H1879 0.950 . S
C1885 C1884 1.327 . S
C1885 C1889 1.429 . S
C1886 C1869 1.574 . S
C1886 H1880 0.949 . S
C1886 C1890 1.368 . S
C1887 C1868 1.429 . S
C1887 C1881 1.429 . S
C1887 C1888 1.523 . S
C1888 C1869 1.368 . S
C1888 C1882 1.368 . S
C1888 C1887 1.523 . S
C1889 C1873 1.429 . S
C1889 C1885 1.429 . S
C1889 C1890 1.523 . S
C1890 C1874 1.368 . S
C1890 C1886 1.368 . S
C1890 C1889 1.523 . S
H1891 C1866 0.950 . S
H1892 C1868 0.950 . S
H1893 C1869 0.949 . S
H1894 C1871 0.950 . S
H1895 C1873 0.950 . S
C1896 C1897 1.349 . S
C1896 C1898 1.327 . S
C1896 H1921 0.950 . S
C1897 C1896 1.349 . S
C1897 C1913 1.349 . S
C1898 C1896 1.327 . S
C1898 C1917 1.429 . S
C1898 H1922 0.950 . S
C1899 C1916 1.574 . S
C1899 C1918 1.368 . S
C1899 H1923 0.949 . S
H1900 C1904 0.949 . S
C1901 C1902 1.349 . S
C1901 C1903 1.327 . S
C1901 H1924 0.950 . S
C1902 C1901 1.349 . S
C1902 C1914 1.349 . S
C1903 C1901 1.327 . S
C1903 C1919 1.429 . S
C1903 H1925 0.950 . S
C1904 H1900 0.949 . S
C1904 C1912 1.574 . S
C1904 C1920 1.368 . S
H1905 C1913 0.950 . S
H1906 C1911 0.950 . S
H1907 C1912 0.949 . S
H1908 C1914 0.950 . S
H1909 C1915 0.950 . S
H1910 C1916 0.949 . S
C1911 H1906 0.950 . S
C1911 C1913 1.327 . S
C1911 C1917 1.429 . S
C1912 C1904 1.574 . S
C1912 H1907 0.949 . S
C1912 C1918 1.368 . S
C1913 C1897 1.349 . S
C1913 H1905 0.950 . S
C1913 C1911 1.327 . S
C1914 C1902 1.349 . S
C1914 H1908 0.950 . S
C1914 C1915 1.327 . S
C1915 H1909 0.950 . S
C1915 C1914 1.327 . S
C1915 C1919 1.429 . S
C1916 C1899 1.574 . S
C1916 H1910 0.949 . S
C1916 C1920 1.368 . S
C1917 C1898 1.429 . S
C1917 C1911 1.429 . S
C1917 C1918 1.523 . S
C1918 C1899 1.368 . S
C1918 C1912 1.368 . S
C1918 C1917 1.523 . S
C1919 C1903 1.429 . S
C1919 C1915 1.429 . S
C1919 C1920 1.523 . S
C1920 C1904 1.368 . S
C1920 C1916 1.368 . S
C1920 C1919 1.523 . S
H1921 C1896 0.950 . S
H1922 C1898 0.950 . S
H1923 C1899 0.949 . S
H1924 C1901 0.950 . S
H1925 C1903 0.950 . S
C1926 C1927 1.349 . S
C1926 C1928 1.327 . S
C1926 H1951 0.950 . S
C1927 C1926 1.349 . S
C1927 C1943 1.349 . S
C1928 C1926 1.327 . S
C1928 C1947 1.429 . S
C1928 H1952 0.950 . S
C1929 C1946 1.574 . S
C1929 C1948 1.368 . S
C1929 H1953 0.949 . S
H1930 C1934 0.949 . S
C1931 C1932 1.349 . S
C1931 C1933 1.327 . S
C1931 H1954 0.950 . S
C1932 C1931 1.349 . S
C1932 C1944 1.349 . S
C1933 C1931 1.327 . S
C1933 C1949 1.429 . S
C1933 H1955 0.950 . S
C1934 H1930 0.949 . S
C1934 C1942 1.574 . S
C1934 C1950 1.368 . S
H1935 C1943 0.950 . S
H1936 C1941 0.950 . S
H1937 C1942 0.949 . S
H1938 C1944 0.950 . S
H1939 C1945 0.950 . S
H1940 C1946 0.949 . S
C1941 H1936 0.950 . S
C1941 C1943 1.327 . S
C1941 C1947 1.429 . S
C1942 C1934 1.574 . S
C1942 H1937 0.949 . S
C1942 C1948 1.368 . S
C1943 C1927 1.349 . S
C1943 H1935 0.950 . S
C1943 C1941 1.327 . S
C1944 C1932 1.349 . S
C1944 H1938 0.950 . S
C1944 C1945 1.327 . S
C1945 H1939 0.950 . S
C1945 C1944 1.327 . S
C1945 C1949 1.429 . S
C1946 C1929 1.574 . S
C1946 H1940 0.949 . S
C1946 C1950 1.368 . S
C1947 C1928 1.429 . S
C1947 C1941 1.429 . S
C1947 C1948 1.523 . S
C1948 C1929 1.368 . S
C1948 C1942 1.368 . S
C1948 C1947 1.523 . S
C1949 C1933 1.429 . S
C1949 C1945 1.429 . S
C1949 C1950 1.523 . S
C1950 C1934 1.368 . S
C1950 C1946 1.368 . S
C1950 C1949 1.523 . S
H1951 C1926 0.950 . S
H1952 C1928 0.950 . S
H1953 C1929 0.949 . S
H1954 C1931 0.950 . S
H1955 C1933 0.950 . S
C1956 C1957 1.349 . S
C1956 C1958 1.327 . S
C1956 H1981 0.950 . S
C1957 C1956 1.349 . S
C1957 C1973 1.349 . S
C1958 C1956 1.327 . S
C1958 C1977 1.429 . S
C1958 H1982 0.950 . S
C1959 C1976 1.574 . S
C1959 C1978 1.368 . S
C1959 H1983 0.949 . S
H1960 C1964 0.949 . S
C1961 C1962 1.349 . S
C1961 C1963 1.327 . S
C1961 H1984 0.950 . S
C1962 C1961 1.349 . S
C1962 C1974 1.349 . S
C1963 C1961 1.327 . S
C1963 C1979 1.429 . S
C1963 H1985 0.950 . S
C1964 H1960 0.949 . S
C1964 C1972 1.574 . S
C1964 C1980 1.368 . S
H1965 C1973 0.950 . S
H1966 C1971 0.950 . S
H1967 C1972 0.949 . S
H1968 C1974 0.950 . S
H1969 C1975 0.950 . S
H1970 C1976 0.949 . S
C1971 H1966 0.950 . S
C1971 C1973 1.327 . S
C1971 C1977 1.429 . S
C1972 C1964 1.574 . S
C1972 H1967 0.949 . S
C1972 C1978 1.368 . S
C1973 C1957 1.349 . S
C1973 H1965 0.950 . S
C1973 C1971 1.327 . S
C1974 C1962 1.349 . S
C1974 H1968 0.950 . S
C1974 C1975 1.327 . S
C1975 H1969 0.950 . S
C1975 C1974 1.327 . S
C1975 C1979 1.429 . S
C1976 C1959 1.574 . S
C1976 H1970 0.949 . S
C1976 C1980 1.368 . S
C1977 C1958 1.429 . S
C1977 C1971 1.429 . S
C1977 C1978 1.523 . S
C1978 C1959 1.368 . S
C1978 C1972 1.368 . S
C1978 C1977 1.523 . S
C1979 C1963 1.429 . S
C1979 C1975 1.429 . S
C1979 C1980 1.523 . S
C1980 C1964 1.368 . S
C1980 C1976 1.368 . S
C1980 C1979 1.523 . S
H1981 C1956 0.950 . S
H1982 C1958 0.950 . S
H1983 C1959 0.949 . S
H1984 C1961 0.950 . S
H1985 C1963 0.950 . S
C1986 C1987 1.349 . S
C1986 C1988 1.327 . S
C1986 H2011 0.950 . S
C1987 C1986 1.349 . S
C1987 C2003 1.349 . S
C1988 C1986 1.327 . S
C1988 C2007 1.429 . S
C1988 H2012 0.950 . S
C1989 C2006 1.574 . S
C1989 C2008 1.368 . S
C1989 H2013 0.949 . S
H1990 C1994 0.949 . S
C1991 C1992 1.349 . S
C1991 C1993 1.327 . S
C1991 H2014 0.950 . S
C1992 C1991 1.349 . S
C1992 C2004 1.349 . S
C1993 C1991 1.327 . S
C1993 C2009 1.429 . S
C1993 H2015 0.950 . S
C1994 H1990 0.949 . S
C1994 C2002 1.574 . S
C1994 C2010 1.368 . S
H1995 C2003 0.950 . S
H1996 C2001 0.950 . S
H1997 C2002 0.949 . S
H1998 C2004 0.950 . S
H1999 C2005 0.950 . S
H2000 C2006 0.949 . S
C2001 H1996 0.950 . S
C2001 C2003 1.327 . S
C2001 C2007 1.429 . S
C2002 C1994 1.574 . S
C2002 H1997 0.949 . S
C2002 C2008 1.368 . S
C2003 C1987 1.349 . S
C2003 H1995 0.950 . S
C2003 C2001 1.327 . S
C2004 C1992 1.349 . S
C2004 H1998 0.950 . S
C2004 C2005 1.327 . S
C2005 H1999 0.950 . S
C2005 C2004 1.327 . S
C2005 C2009 1.429 . S
C2006 C1989 1.574 . S
C2006 H2000 0.949 . S
C2006 C2010 1.368 . S
C2007 C1988 1.429 . S
C2007 C2001 1.429 . S
C2007 C2008 1.523 . S
C2008 C1989 1.368 . S
C2008 C2002 1.368 . S
C2008 C2007 1.523 . S
C2009 C1993 1.429 . S
C2009 C2005 1.429 . S
C2009 C2010 1.523 . S
C2010 C1994 1.368 . S
C2010 C2006 1.368 . S
C2010 C2009 1.523 . S
H2011 C1986 0.950 . S
H2012 C1988 0.950 . S
H2013 C1989 0.949 . S
H2014 C1991 0.950 . S
H2015 C1993 0.950 . S
C2016 C2017 1.349 . S
C2016 C2018 1.327 . S
C2016 H2041 0.950 . S
C2017 C2016 1.349 . S
C2017 C2033 1.349 . S
C2018 C2016 1.327 . S
C2018 C2037 1.429 . S
C2018 H2042 0.950 . S
C2019 C2036 1.574 . S
C2019 C2038 1.368 . S
C2019 H2043 0.949 . S
H2020 C2024 0.949 . S
C2021 C2022 1.349 . S
C2021 C2023 1.327 . S
C2021 H2044 0.950 . S
C2022 C2021 1.349 . S
C2022 C2034 1.349 . S
C2023 C2021 1.327 . S
C2023 C2039 1.429 . S
C2023 H2045 0.950 . S
C2024 H2020 0.949 . S
C2024 C2032 1.574 . S
C2024 C2040 1.368 . S
H2025 C2033 0.950 . S
H2026 C2031 0.950 . S
H2027 C2032 0.949 . S
H2028 C2034 0.950 . S
H2029 C2035 0.950 . S
H2030 C2036 0.949 . S
C2031 H2026 0.950 . S
C2031 C2033 1.327 . S
C2031 C2037 1.429 . S
C2032 C2024 1.574 . S
C2032 H2027 0.949 . S
C2032 C2038 1.368 . S
C2033 C2017 1.349 . S
C2033 H2025 0.950 . S
C2033 C2031 1.327 . S
C2034 C2022 1.349 . S
C2034 H2028 0.950 . S
C2034 C2035 1.327 . S
C2035 H2029 0.950 . S
C2035 C2034 1.327 . S
C2035 C2039 1.429 . S
C2036 C2019 1.574 . S
C2036 H2030 0.949 . S
C2036 C2040 1.368 . S
C2037 C2018 1.429 . S
C2037 C2031 1.429 . S
C2037 C2038 1.523 . S
C2038 C2019 1.368 . S
C2038 C2032 1.368 . S
C2038 C2037 1.523 . S
C2039 C2023 1.429 . S
C2039 C2035 1.429 . S
C2039 C2040 1.523 . S
C2040 C2024 1.368 . S
C2040 C2036 1.368 . S
C2040 C2039 1.523 . S
H2041 C2016 0.950 . S
H2042 C2018 0.950 . S
H2043 C2019 0.949 . S
H2044 C2021 0.950 . S
H2045 C2023 0.950 . S
C2046 C2047 1.349 . S
C2046 C2048 1.327 . S
C2046 H2071 0.950 . S
C2047 C2046 1.349 . S
C2047 C2063 1.349 . S
C2048 C2046 1.327 . S
C2048 C2067 1.429 . S
C2048 H2072 0.950 . S
C2049 C2066 1.574 . S
C2049 C2068 1.368 . S
C2049 H2073 0.949 . S
H2050 C2054 0.949 . S
C2051 C2052 1.349 . S
C2051 C2053 1.327 . S
C2051 H2074 0.950 . S
C2052 C2051 1.349 . S
C2052 C2064 1.349 . S
C2053 C2051 1.327 . S
C2053 C2069 1.429 . S
C2053 H2075 0.950 . S
C2054 H2050 0.949 . S
C2054 C2062 1.574 . S
C2054 C2070 1.368 . S
H2055 C2063 0.950 . S
H2056 C2061 0.950 . S
H2057 C2062 0.949 . S
H2058 C2064 0.950 . S
H2059 C2065 0.950 . S
H2060 C2066 0.949 . S
C2061 H2056 0.950 . S
C2061 C2063 1.327 . S
C2061 C2067 1.429 . S
C2062 C2054 1.574 . S
C2062 H2057 0.949 . S
C2062 C2068 1.368 . S
C2063 C2047 1.349 . S
C2063 H2055 0.950 . S
C2063 C2061 1.327 . S
C2064 C2052 1.349 . S
C2064 H2058 0.950 . S
C2064 C2065 1.327 . S
C2065 H2059 0.950 . S
C2065 C2064 1.327 . S
C2065 C2069 1.429 . S
C2066 C2049 1.574 . S
C2066 H2060 0.949 . S
C2066 C2070 1.368 . S
C2067 C2048 1.429 . S
C2067 C2061 1.429 . S
C2067 C2068 1.523 . S
C2068 C2049 1.368 . S
C2068 C2062 1.368 . S
C2068 C2067 1.523 . S
C2069 C2053 1.429 . S
C2069 C2065 1.429 . S
C2069 C2070 1.523 . S
C2070 C2054 1.368 . S
C2070 C2066 1.368 . S
C2070 C2069 1.523 . S
H2071 C2046 0.950 . S
H2072 C2048 0.950 . S
H2073 C2049 0.949 . S
H2074 C2051 0.950 . S
H2075 C2053 0.950 . S
C2076 C2077 1.349 . S
C2076 C2078 1.327 . S
C2076 H2101 0.950 . S
C2077 C2076 1.349 . S
C2077 C2093 1.349 . S
C2078 C2076 1.327 . S
C2078 C2097 1.429 . S
C2078 H2102 0.950 . S
C2079 C2096 1.574 . S
C2079 C2098 1.368 . S
C2079 H2103 0.949 . S
H2080 C2084 0.949 . S
C2081 C2082 1.349 . S
C2081 C2083 1.327 . S
C2081 H2104 0.950 . S
C2082 C2081 1.349 . S
C2082 C2094 1.349 . S
C2083 C2081 1.327 . S
C2083 C2099 1.429 . S
C2083 H2105 0.950 . S
C2084 H2080 0.949 . S
C2084 C2092 1.574 . S
C2084 C2100 1.368 . S
H2085 C2093 0.950 . S
H2086 C2091 0.950 . S
H2087 C2092 0.949 . S
H2088 C2094 0.950 . S
H2089 C2095 0.950 . S
H2090 C2096 0.949 . S
C2091 H2086 0.950 . S
C2091 C2093 1.327 . S
C2091 C2097 1.429 . S
C2092 C2084 1.574 . S
C2092 H2087 0.949 . S
C2092 C2098 1.368 . S
C2093 C2077 1.349 . S
C2093 H2085 0.950 . S
C2093 C2091 1.327 . S
C2094 C2082 1.349 . S
C2094 H2088 0.950 . S
C2094 C2095 1.327 . S
C2095 H2089 0.950 . S
C2095 C2094 1.327 . S
C2095 C2099 1.429 . S
C2096 C2079 1.574 . S
C2096 H2090 0.949 . S
C2096 C2100 1.368 . S
C2097 C2078 1.429 . S
C2097 C2091 1.429 . S
C2097 C2098 1.523 . S
C2098 C2079 1.368 . S
C2098 C2092 1.368 . S
C2098 C2097 1.523 . S
C2099 C2083 1.429 . S
C2099 C2095 1.429 . S
C2099 C2100 1.523 . S
C2100 C2084 1.368 . S
C2100 C2096 1.368 . S
C2100 C2099 1.523 . S
H2101 C2076 0.950 . S
H2102 C2078 0.950 . S
H2103 C2079 0.949 . S
H2104 C2081 0.950 . S
H2105 C2083 0.950 . S
C2106 C2107 1.349 . S
C2106 C2108 1.327 . S
C2106 H2131 0.950 . S
C2107 C2106 1.349 . S
C2107 C2123 1.349 . S
C2108 C2106 1.327 . S
C2108 C2127 1.429 . S
C2108 H2132 0.950 . S
C2109 C2126 1.574 . S
C2109 C2128 1.368 . S
C2109 H2133 0.949 . S
H2110 C2114 0.949 . S
C2111 C2112 1.349 . S
C2111 C2113 1.327 . S
C2111 H2134 0.950 . S
C2112 C2111 1.349 . S
C2112 C2124 1.349 . S
C2113 C2111 1.327 . S
C2113 C2129 1.429 . S
C2113 H2135 0.950 . S
C2114 H2110 0.949 . S
C2114 C2122 1.574 . S
C2114 C2130 1.368 . S
H2115 C2123 0.950 . S
H2116 C2121 0.950 . S
H2117 C2122 0.949 . S
H2118 C2124 0.950 . S
H2119 C2125 0.950 . S
H2120 C2126 0.949 . S
C2121 H2116 0.950 . S
C2121 C2123 1.327 . S
C2121 C2127 1.429 . S
C2122 C2114 1.574 . S
C2122 H2117 0.949 . S
C2122 C2128 1.368 . S
C2123 C2107 1.349 . S
C2123 H2115 0.950 . S
C2123 C2121 1.327 . S
C2124 C2112 1.349 . S
C2124 H2118 0.950 . S
C2124 C2125 1.327 . S
C2125 H2119 0.950 . S
C2125 C2124 1.327 . S
C2125 C2129 1.429 . S
C2126 C2109 1.574 . S
C2126 H2120 0.949 . S
C2126 C2130 1.368 . S
C2127 C2108 1.429 . S
C2127 C2121 1.429 . S
C2127 C2128 1.523 . S
C2128 C2109 1.368 . S
C2128 C2122 1.368 . S
C2128 C2127 1.523 . S
C2129 C2113 1.429 . S
C2129 C2125 1.429 . S
C2129 C2130 1.523 . S
C2130 C2114 1.368 . S
C2130 C2126 1.368 . S
C2130 C2129 1.523 . S
H2131 C2106 0.950 . S
H2132 C2108 0.950 . S
H2133 C2109 0.949 . S
H2134 C2111 0.950 . S
H2135 C2113 0.950 . S
C2136 C2137 1.349 . S
C2136 C2138 1.327 . S
C2136 H2161 0.950 . S
C2137 C2136 1.349 . S
C2137 C2153 1.349 . S
C2138 C2136 1.327 . S
C2138 C2157 1.429 . S
C2138 H2162 0.950 . S
C2139 C2156 1.574 . S
C2139 C2158 1.368 . S
C2139 H2163 0.949 . S
H2140 C2144 0.949 . S
C2141 C2142 1.349 . S
C2141 C2143 1.327 . S
C2141 H2164 0.950 . S
C2142 C2141 1.349 . S
C2142 C2154 1.349 . S
C2143 C2141 1.327 . S
C2143 C2159 1.429 . S
C2143 H2165 0.950 . S
C2144 H2140 0.949 . S
C2144 C2152 1.574 . S
C2144 C2160 1.368 . S
H2145 C2153 0.950 . S
H2146 C2151 0.950 . S
H2147 C2152 0.949 . S
H2148 C2154 0.950 . S
H2149 C2155 0.950 . S
H2150 C2156 0.949 . S
C2151 H2146 0.950 . S
C2151 C2153 1.327 . S
C2151 C2157 1.429 . S
C2152 C2144 1.574 . S
C2152 H2147 0.949 . S
C2152 C2158 1.368 . S
C2153 C2137 1.349 . S
C2153 H2145 0.950 . S
C2153 C2151 1.327 . S
C2154 C2142 1.349 . S
C2154 H2148 0.950 . S
C2154 C2155 1.327 . S
C2155 H2149 0.950 . S
C2155 C2154 1.327 . S
C2155 C2159 1.429 . S
C2156 C2139 1.574 . S
C2156 H2150 0.949 . S
C2156 C2160 1.368 . S
C2157 C2138 1.429 . S
C2157 C2151 1.429 . S
C2157 C2158 1.523 . S
C2158 C2139 1.368 . S
C2158 C2152 1.368 . S
C2158 C2157 1.523 . S
C2159 C2143 1.429 . S
C2159 C2155 1.429 . S
C2159 C2160 1.523 . S
C2160 C2144 1.368 . S
C2160 C2156 1.368 . S
C2160 C2159 1.523 . S
H2161 C2136 0.950 . S
H2162 C2138 0.950 . S
H2163 C2139 0.949 . S
H2164 C2141 0.950 . S
H2165 C2143 0.950 . S
C2166 C2167 1.349 . S
C2166 C2168 1.327 . S
C2166 H2191 0.950 . S
C2167 C2166 1.349 . S
C2167 C2183 1.349 . S
C2168 C2166 1.327 . S
C2168 C2187 1.429 . S
C2168 H2192 0.950 . S
C2169 C2186 1.574 . S
C2169 C2188 1.368 . S
C2169 H2193 0.949 . S
H2170 C2174 0.949 . S
C2171 C2172 1.349 . S
C2171 C2173 1.327 . S
C2171 H2194 0.950 . S
C2172 C2171 1.349 . S
C2172 C2184 1.349 . S
C2173 C2171 1.327 . S
C2173 C2189 1.429 . S
C2173 H2195 0.950 . S
C2174 H2170 0.949 . S
C2174 C2182 1.574 . S
C2174 C2190 1.368 . S
H2175 C2183 0.950 . S
H2176 C2181 0.950 . S
H2177 C2182 0.949 . S
H2178 C2184 0.950 . S
H2179 C2185 0.950 . S
H2180 C2186 0.949 . S
C2181 H2176 0.950 . S
C2181 C2183 1.327 . S
C2181 C2187 1.429 . S
C2182 C2174 1.574 . S
C2182 H2177 0.949 . S
C2182 C2188 1.368 . S
C2183 C2167 1.349 . S
C2183 H2175 0.950 . S
C2183 C2181 1.327 . S
C2184 C2172 1.349 . S
C2184 H2178 0.950 . S
C2184 C2185 1.327 . S
C2185 H2179 0.950 . S
C2185 C2184 1.327 . S
C2185 C2189 1.429 . S
C2186 C2169 1.574 . S
C2186 H2180 0.949 . S
C2186 C2190 1.368 . S
C2187 C2168 1.429 . S
C2187 C2181 1.429 . S
C2187 C2188 1.523 . S
C2188 C2169 1.368 . S
C2188 C2182 1.368 . S
C2188 C2187 1.523 . S
C2189 C2173 1.429 . S
C2189 C2185 1.429 . S
C2189 C2190 1.523 . S
C2190 C2174 1.368 . S
C2190 C2186 1.368 . S
C2190 C2189 1.523 . S
H2191 C2166 0.950 . S
H2192 C2168 0.950 . S
H2193 C2169 0.949 . S
H2194 C2171 0.950 . S
H2195 C2173 0.950 . S
C2196 C2197 1.349 . S
C2196 C2198 1.327 . S
C2196 H2221 0.950 . S
C2197 C2196 1.349 . S
C2197 C2213 1.349 . S
C2198 C2196 1.327 . S
C2198 C2217 1.429 . S
C2198 H2222 0.950 . S
C2199 C2216 1.574 . S
C2199 C2218 1.368 . S
C2199 H2223 0.949 . S
H2200 C2204 0.949 . S
C2201 C2202 1.349 . S
C2201 C2203 1.327 . S
C2201 H2224 0.950 . S
C2202 C2201 1.349 . S
C2202 C2214 1.349 . S
C2203 C2201 1.327 . S
C2203 C2219 1.429 . S
C2203 H2225 0.950 . S
C2204 H2200 0.949 . S
C2204 C2212 1.574 . S
C2204 C2220 1.368 . S
H2205 C2213 0.950 . S
H2206 C2211 0.950 . S
H2207 C2212 0.949 . S
H2208 C2214 0.950 . S
H2209 C2215 0.950 . S
H2210 C2216 0.949 . S
C2211 H2206 0.950 . S
C2211 C2213 1.327 . S
C2211 C2217 1.429 . S
C2212 C2204 1.574 . S
C2212 H2207 0.949 . S
C2212 C2218 1.368 . S
C2213 C2197 1.349 . S
C2213 H2205 0.950 . S
C2213 C2211 1.327 . S
C2214 C2202 1.349 . S
C2214 H2208 0.950 . S
C2214 C2215 1.327 . S
C2215 H2209 0.950 . S
C2215 C2214 1.327 . S
C2215 C2219 1.429 . S
C2216 C2199 1.574 . S
C2216 H2210 0.949 . S
C2216 C2220 1.368 . S
C2217 C2198 1.429 . S
C2217 C2211 1.429 . S
C2217 C2218 1.523 . S
C2218 C2199 1.368 . S
C2218 C2212 1.368 . S
C2218 C2217 1.523 . S
C2219 C2203 1.429 . S
C2219 C2215 1.429 . S
C2219 C2220 1.523 . S
C2220 C2204 1.368 . S
C2220 C2216 1.368 . S
C2220 C2219 1.523 . S
H2221 C2196 0.950 . S
H2222 C2198 0.950 . S
H2223 C2199 0.949 . S
H2224 C2201 0.950 . S
H2225 C2203 0.950 . S
C2226 C2227 1.349 . S
C2226 C2228 1.327 . S
C2226 H2251 0.950 . S
C2227 C2226 1.349 . S
C2227 C2243 1.349 . S
C2228 C2226 1.327 . S
C2228 C2247 1.429 . S
C2228 H2252 0.950 . S
C2229 C2246 1.574 . S
C2229 C2248 1.368 . S
C2229 H2253 0.949 . S
H2230 C2234 0.949 . S
C2231 C2232 1.349 . S
C2231 C2233 1.327 . S
C2231 H2254 0.950 . S
C2232 C2231 1.349 . S
C2232 C2244 1.349 . S
C2233 C2231 1.327 . S
C2233 C2249 1.429 . S
C2233 H2255 0.950 . S
C2234 H2230 0.949 . S
C2234 C2242 1.574 . S
C2234 C2250 1.368 . S
H2235 C2243 0.950 . S
H2236 C2241 0.950 . S
H2237 C2242 0.949 . S
H2238 C2244 0.950 . S
H2239 C2245 0.950 . S
H2240 C2246 0.949 . S
C2241 H2236 0.950 . S
C2241 C2243 1.327 . S
C2241 C2247 1.429 . S
C2242 C2234 1.574 . S
C2242 H2237 0.949 . S
C2242 C2248 1.368 . S
C2243 C2227 1.349 . S
C2243 H2235 0.950 . S
C2243 C2241 1.327 . S
C2244 C2232 1.349 . S
C2244 H2238 0.950 . S
C2244 C2245 1.327 . S
C2245 H2239 0.950 . S
C2245 C2244 1.327 . S
C2245 C2249 1.429 . S
C2246 C2229 1.574 . S
C2246 H2240 0.949 . S
C2246 C2250 1.368 . S
C2247 C2228 1.429 . S
C2247 C2241 1.429 . S
C2247 C2248 1.523 . S
C2248 C2229 1.368 . S
C2248 C2242 1.368 . S
C2248 C2247 1.523 . S
C2249 C2233 1.429 . S
C2249 C2245 1.429 . S
C2249 C2250 1.523 . S
C2250 C2234 1.368 . S
C2250 C2246 1.368 . S
C2250 C2249 1.523 . S
H2251 C2226 0.950 . S
H2252 C2228 0.950 . S
H2253 C2229 0.949 . S
H2254 C2231 0.950 . S
H2255 C2233 0.950 . S
C2256 C2257 1.349 . S
C2256 C2258 1.327 . S
C2256 H2281 0.950 . S
C2257 C2256 1.349 . S
C2257 C2273 1.349 . S
C2258 C2256 1.327 . S
C2258 C2277 1.429 . S
C2258 H2282 0.950 . S
C2259 C2276 1.574 . S
C2259 C2278 1.368 . S
C2259 H2283 0.949 . S
H2260 C2264 0.949 . S
C2261 C2262 1.349 . S
C2261 C2263 1.327 . S
C2261 H2284 0.950 . S
C2262 C2261 1.349 . S
C2262 C2274 1.349 . S
C2263 C2261 1.327 . S
C2263 C2279 1.429 . S
C2263 H2285 0.950 . S
C2264 H2260 0.949 . S
C2264 C2272 1.574 . S
C2264 C2280 1.368 . S
H2265 C2273 0.950 . S
H2266 C2271 0.950 . S
H2267 C2272 0.949 . S
H2268 C2274 0.950 . S
H2269 C2275 0.950 . S
H2270 C2276 0.949 . S
C2271 H2266 0.950 . S
C2271 C2273 1.327 . S
C2271 C2277 1.429 . S
C2272 C2264 1.574 . S
C2272 H2267 0.949 . S
C2272 C2278 1.368 1_565 S
C2273 C2257 1.349 . S
C2273 H2265 0.950 . S
C2273 C2271 1.327 . S
C2274 C2262 1.349 . S
C2274 H2268 0.950 . S
C2274 C2275 1.327 . S
C2275 H2269 0.950 . S
C2275 C2274 1.327 . S
C2275 C2279 1.429 . S
C2276 C2259 1.574 . S
C2276 H2270 0.949 . S
C2276 C2280 1.368 1_545 S
C2277 C2258 1.429 . S
C2277 C2271 1.429 . S
C2277 C2278 1.523 . S
C2278 C2259 1.368 . S
C2278 C2272 1.368 1_545 S
C2278 C2277 1.523 . S
C2279 C2263 1.429 . S
C2279 C2275 1.429 . S
C2279 C2280 1.523 . S
C2280 C2264 1.368 . S
C2280 C2276 1.368 1_565 S
C2280 C2279 1.523 . S
H2281 C2256 0.950 . S
H2282 C2258 0.950 . S
H2283 C2259 0.949 . S
H2284 C2261 0.950 . S
H2285 C2263 0.950 . S
C2286 C2287 1.349 . S
C2286 C2288 1.327 . S
C2286 H2311 0.950 . S
C2287 C2286 1.349 . S
C2287 C2303 1.349 . S
C2288 C2286 1.327 . S
C2288 C2307 1.429 . S
C2288 H2312 0.950 . S
C2289 C2306 1.574 . S
C2289 C2308 1.368 . S
C2289 H2313 0.949 . S
H2290 C2294 0.949 . S
C2291 C2292 1.349 . S
C2291 C2293 1.327 . S
C2291 H2314 0.950 . S
C2292 C2291 1.349 . S
C2292 C2304 1.349 . S
C2293 C2291 1.327 . S
C2293 C2309 1.429 . S
C2293 H2315 0.950 . S
C2294 H2290 0.949 . S
C2294 C2302 1.574 . S
C2294 C2310 1.368 . S
H2295 C2303 0.950 . S
H2296 C2301 0.950 . S
H2297 C2302 0.949 . S
H2298 C2304 0.950 . S
H2299 C2305 0.950 . S
H2300 C2306 0.949 . S
C2301 H2296 0.950 . S
C2301 C2303 1.327 . S
C2301 C2307 1.429 . S
C2302 C2294 1.574 . S
C2302 H2297 0.949 . S
C2302 C2308 1.368 . S
C2303 C2287 1.349 . S
C2303 H2295 0.950 . S
C2303 C2301 1.327 . S
C2304 C2292 1.349 . S
C2304 H2298 0.950 . S
C2304 C2305 1.327 . S
C2305 H2299 0.950 . S
C2305 C2304 1.327 . S
C2305 C2309 1.429 . S
C2306 C2289 1.574 . S
C2306 H2300 0.949 . S
C2306 C2310 1.368 . S
C2307 C2288 1.429 . S
C2307 C2301 1.429 . S
C2307 C2308 1.523 . S
C2308 C2289 1.368 . S
C2308 C2302 1.368 . S
C2308 C2307 1.523 . S
C2309 C2293 1.429 . S
C2309 C2305 1.429 . S
C2309 C2310 1.523 . S
C2310 C2294 1.368 . S
C2310 C2306 1.368 . S
C2310 C2309 1.523 . S
H2311 C2286 0.950 . S
H2312 C2288 0.950 . S
H2313 C2289 0.949 . S
H2314 C2291 0.950 . S
H2315 C2293 0.950 . S
C2316 C2317 1.349 . S
C2316 C2318 1.327 . S
C2316 H2341 0.950 . S
C2317 C2316 1.349 . S
C2317 C2333 1.349 . S
C2318 C2316 1.327 . S
C2318 C2337 1.429 . S
C2318 H2342 0.950 . S
C2319 C2336 1.574 . S
C2319 C2338 1.368 . S
C2319 H2343 0.949 . S
H2320 C2324 0.949 . S
C2321 C2322 1.349 . S
C2321 C2323 1.327 . S
C2321 H2344 0.950 . S
C2322 C2321 1.349 . S
C2322 C2334 1.349 . S
C2323 C2321 1.327 . S
C2323 C2339 1.429 . S
C2323 H2345 0.950 . S
C2324 H2320 0.949 . S
C2324 C2332 1.574 . S
C2324 C2340 1.368 . S
H2325 C2333 0.950 . S
H2326 C2331 0.950 . S
H2327 C2332 0.949 . S
H2328 C2334 0.950 . S
H2329 C2335 0.950 . S
H2330 C2336 0.949 . S
C2331 H2326 0.950 . S
C2331 C2333 1.327 . S
C2331 C2337 1.429 . S
C2332 C2324 1.574 . S
C2332 H2327 0.949 . S
C2332 C2338 1.368 1_455 S
C2333 C2317 1.349 . S
C2333 H2325 0.950 . S
C2333 C2331 1.327 . S
C2334 C2322 1.349 . S
C2334 H2328 0.950 . S
C2334 C2335 1.327 . S
C2335 H2329 0.950 . S
C2335 C2334 1.327 . S
C2335 C2339 1.429 . S
C2336 C2319 1.574 . S
C2336 H2330 0.949 . S
C2336 C2340 1.368 1_655 S
C2337 C2318 1.429 . S
C2337 C2331 1.429 . S
C2337 C2338 1.523 . S
C2338 C2319 1.368 . S
C2338 C2332 1.368 1_655 S
C2338 C2337 1.523 . S
C2339 C2323 1.429 . S
C2339 C2335 1.429 . S
C2339 C2340 1.523 . S
C2340 C2324 1.368 . S
C2340 C2336 1.368 1_455 S
C2340 C2339 1.523 . S
H2341 C2316 0.950 . S
H2342 C2318 0.950 . S
H2343 C2319 0.949 . S
H2344 C2321 0.950 . S
H2345 C2323 0.950 . S
C2346 C2347 1.349 . S
C2346 C2348 1.327 . S
C2346 H2371 0.950 . S
C2347 C2346 1.349 . S
C2347 C2363 1.349 . S
C2348 C2346 1.327 . S
C2348 C2367 1.429 . S
C2348 H2372 0.950 . S
C2349 C2366 1.574 . S
C2349 C2368 1.368 1_655 S
C2349 H2373 0.949 . S
H2350 C2354 0.949 . S
C2351 C2352 1.349 . S
C2351 C2353 1.327 . S
C2351 H2374 0.950 . S
C2352 C2351 1.349 . S
C2352 C2364 1.349 . S
C2353 C2351 1.327 . S
C2353 C2369 1.429 . S
C2353 H2375 0.950 . S
C2354 H2350 0.949 . S
C2354 C2362 1.574 . S
C2354 C2370 1.368 1_455 S
H2355 C2363 0.950 . S
H2356 C2361 0.950 . S
H2357 C2362 0.949 . S
H2358 C2364 0.950 . S
H2359 C2365 0.950 . S
H2360 C2366 0.949 . S
C2361 H2356 0.950 . S
C2361 C2363 1.327 . S
C2361 C2367 1.429 . S
C2362 C2354 1.574 . S
C2362 H2357 0.949 . S
C2362 C2368 1.368 . S
C2363 C2347 1.349 . S
C2363 H2355 0.950 . S
C2363 C2361 1.327 . S
C2364 C2352 1.349 . S
C2364 H2358 0.950 . S
C2364 C2365 1.327 . S
C2365 H2359 0.950 . S
C2365 C2364 1.327 . S
C2365 C2369 1.429 . S
C2366 C2349 1.574 . S
C2366 H2360 0.949 . S
C2366 C2370 1.368 . S
C2367 C2348 1.429 . S
C2367 C2361 1.429 . S
C2367 C2368 1.523 . S
C2368 C2349 1.368 1_455 S
C2368 C2362 1.368 . S
C2368 C2367 1.523 . S
C2369 C2353 1.429 . S
C2369 C2365 1.429 . S
C2369 C2370 1.523 . S
C2370 C2354 1.368 1_655 S
C2370 C2366 1.368 . S
C2370 C2369 1.523 . S
H2371 C2346 0.950 . S
H2372 C2348 0.950 . S
H2373 C2349 0.949 . S
H2374 C2351 0.950 . S
H2375 C2353 0.950 . S
C2376 C2377 1.349 . S
C2376 C2378 1.327 . S
C2376 H2401 0.950 . S
C2377 C2376 1.349 . S
C2377 C2393 1.349 . S
C2378 C2376 1.327 . S
C2378 C2397 1.429 . S
C2378 H2402 0.950 . S
C2379 C2396 1.574 . S
C2379 C2398 1.368 . S
C2379 H2403 0.949 . S
H2380 C2384 0.949 . S
C2381 C2382 1.349 . S
C2381 C2383 1.327 . S
C2381 H2404 0.950 . S
C2382 C2381 1.349 . S
C2382 C2394 1.349 . S
C2383 C2381 1.327 . S
C2383 C2399 1.429 . S
C2383 H2405 0.950 . S
C2384 H2380 0.949 . S
C2384 C2392 1.574 . S
C2384 C2400 1.368 . S
H2385 C2393 0.950 . S
H2386 C2391 0.950 . S
H2387 C2392 0.949 . S
H2388 C2394 0.950 . S
H2389 C2395 0.950 . S
H2390 C2396 0.949 . S
C2391 H2386 0.950 . S
C2391 C2393 1.327 . S
C2391 C2397 1.429 . S
C2392 C2384 1.574 . S
C2392 H2387 0.949 . S
C2392 C2398 1.368 1_565 S
C2393 C2377 1.349 . S
C2393 H2385 0.950 . S
C2393 C2391 1.327 . S
C2394 C2382 1.349 . S
C2394 H2388 0.950 . S
C2394 C2395 1.327 . S
C2395 H2389 0.950 . S
C2395 C2394 1.327 . S
C2395 C2399 1.429 . S
C2396 C2379 1.574 . S
C2396 H2390 0.949 . S
C2396 C2400 1.368 1_545 S
C2397 C2378 1.429 . S
C2397 C2391 1.429 . S
C2397 C2398 1.523 . S
C2398 C2379 1.368 . S
C2398 C2392 1.368 1_545 S
C2398 C2397 1.523 . S
C2399 C2383 1.429 . S
C2399 C2395 1.429 . S
C2399 C2400 1.523 . S
C2400 C2384 1.368 . S
C2400 C2396 1.368 1_565 S
C2400 C2399 1.523 . S
H2401 C2376 0.950 . S
H2402 C2378 0.950 . S
H2403 C2379 0.949 . S
H2404 C2381 0.950 . S
H2405 C2383 0.950 . S
C2406 C2407 1.349 . S
C2406 C2408 1.327 . S
C2406 H2431 0.950 . S
C2407 C2406 1.349 . S
C2407 C2423 1.349 . S
C2408 C2406 1.327 . S
C2408 C2427 1.429 . S
C2408 H2432 0.950 . S
C2409 C2426 1.574 . S
C2409 C2428 1.368 . S
C2409 H2433 0.949 . S
H2410 C2414 0.949 . S
C2411 C2412 1.349 . S
C2411 C2413 1.327 . S
C2411 H2434 0.950 . S
C2412 C2411 1.349 . S
C2412 C2424 1.349 . S
C2413 C2411 1.327 . S
C2413 C2429 1.429 . S
C2413 H2435 0.950 . S
C2414 H2410 0.949 . S
C2414 C2422 1.574 . S
C2414 C2430 1.368 . S
H2415 C2423 0.950 . S
H2416 C2421 0.950 . S
H2417 C2422 0.949 . S
H2418 C2424 0.950 . S
H2419 C2425 0.950 . S
H2420 C2426 0.949 . S
C2421 H2416 0.950 . S
C2421 C2423 1.327 . S
C2421 C2427 1.429 . S
C2422 C2414 1.574 . S
C2422 H2417 0.949 . S
C2422 C2428 1.368 . S
C2423 C2407 1.349 . S
C2423 H2415 0.950 . S
C2423 C2421 1.327 . S
C2424 C2412 1.349 . S
C2424 H2418 0.950 . S
C2424 C2425 1.327 . S
C2425 H2419 0.950 . S
C2425 C2424 1.327 . S
C2425 C2429 1.429 . S
C2426 C2409 1.574 . S
C2426 H2420 0.949 . S
C2426 C2430 1.368 . S
C2427 C2408 1.429 . S
C2427 C2421 1.429 . S
C2427 C2428 1.523 . S
C2428 C2409 1.368 . S
C2428 C2422 1.368 . S
C2428 C2427 1.523 . S
C2429 C2413 1.429 . S
C2429 C2425 1.429 . S
C2429 C2430 1.523 . S
C2430 C2414 1.368 . S
C2430 C2426 1.368 . S
C2430 C2429 1.523 . S
H2431 C2406 0.950 . S
H2432 C2408 0.950 . S
H2433 C2409 0.949 . S
H2434 C2411 0.950 . S
H2435 C2413 0.950 . S
C2436 C2437 1.349 . S
C2436 C2438 1.327 . S
C2436 H2461 0.950 . S
C2437 C2436 1.349 . S
C2437 C2453 1.349 . S
C2438 C2436 1.327 . S
C2438 C2457 1.429 . S
C2438 H2462 0.950 . S
C2439 C2456 1.574 . S
C2439 C2458 1.368 1_565 S
C2439 H2463 0.949 . S
H2440 C2444 0.949 . S
C2441 C2442 1.349 . S
C2441 C2443 1.327 . S
C2441 H2464 0.950 . S
C2442 C2441 1.349 . S
C2442 C2454 1.349 . S
C2443 C2441 1.327 . S
C2443 C2459 1.429 . S
C2443 H2465 0.950 . S
C2444 H2440 0.949 . S
C2444 C2452 1.574 . S
C2444 C2460 1.368 1_545 S
H2445 C2453 0.950 . S
H2446 C2451 0.950 . S
H2447 C2452 0.949 . S
H2448 C2454 0.950 . S
H2449 C2455 0.950 . S
H2450 C2456 0.949 . S
C2451 H2446 0.950 . S
C2451 C2453 1.327 . S
C2451 C2457 1.429 . S
C2452 C2444 1.574 . S
C2452 H2447 0.949 . S
C2452 C2458 1.368 . S
C2453 C2437 1.349 . S
C2453 H2445 0.950 . S
C2453 C2451 1.327 . S
C2454 C2442 1.349 . S
C2454 H2448 0.950 . S
C2454 C2455 1.327 . S
C2455 H2449 0.950 . S
C2455 C2454 1.327 . S
C2455 C2459 1.429 . S
C2456 C2439 1.574 . S
C2456 H2450 0.949 . S
C2456 C2460 1.368 . S
C2457 C2438 1.429 . S
C2457 C2451 1.429 . S
C2457 C2458 1.523 . S
C2458 C2439 1.368 1_545 S
C2458 C2452 1.368 . S
C2458 C2457 1.523 . S
C2459 C2443 1.429 . S
C2459 C2455 1.429 . S
C2459 C2460 1.523 . S
C2460 C2444 1.368 1_565 S
C2460 C2456 1.368 . S
C2460 C2459 1.523 . S
H2461 C2436 0.950 . S
H2462 C2438 0.950 . S
H2463 C2439 0.949 . S
H2464 C2441 0.950 . S
H2465 C2443 0.950 . S
C2466 C2467 1.349 . S
C2466 C2468 1.327 . S
C2466 H2491 0.950 . S
C2467 C2466 1.349 . S
C2467 C2483 1.349 . S
C2468 C2466 1.327 . S
C2468 C2487 1.429 . S
C2468 H2492 0.950 . S
C2469 C2486 1.574 . S
C2469 C2488 1.368 . S
C2469 H2493 0.949 . S
H2470 C2474 0.949 . S
C2471 C2472 1.349 . S
C2471 C2473 1.327 . S
C2471 H2494 0.950 . S
C2472 C2471 1.349 . S
C2472 C2484 1.349 . S
C2473 C2471 1.327 . S
C2473 C2489 1.429 . S
C2473 H2495 0.950 . S
C2474 H2470 0.949 . S
C2474 C2482 1.574 . S
C2474 C2490 1.368 . S
H2475 C2483 0.950 . S
H2476 C2481 0.950 . S
H2477 C2482 0.949 . S
H2478 C2484 0.950 . S
H2479 C2485 0.950 . S
H2480 C2486 0.949 . S
C2481 H2476 0.950 . S
C2481 C2483 1.327 . S
C2481 C2487 1.429 . S
C2482 C2474 1.574 . S
C2482 H2477 0.949 . S
C2482 C2488 1.368 . S
C2483 C2467 1.349 . S
C2483 H2475 0.950 . S
C2483 C2481 1.327 . S
C2484 C2472 1.349 . S
C2484 H2478 0.950 . S
C2484 C2485 1.327 . S
C2485 H2479 0.950 . S
C2485 C2484 1.327 . S
C2485 C2489 1.429 . S
C2486 C2469 1.574 . S
C2486 H2480 0.949 . S
C2486 C2490 1.368 . S
C2487 C2468 1.429 . S
C2487 C2481 1.429 . S
C2487 C2488 1.523 . S
C2488 C2469 1.368 . S
C2488 C2482 1.368 . S
C2488 C2487 1.523 . S
C2489 C2473 1.429 . S
C2489 C2485 1.429 . S
C2489 C2490 1.523 . S
C2490 C2474 1.368 . S
C2490 C2486 1.368 . S
C2490 C2489 1.523 . S
H2491 C2466 0.950 . S
H2492 C2468 0.950 . S
H2493 C2469 0.949 . S
H2494 C2471 0.950 . S
H2495 C2473 0.950 . S
C2496 C2497 1.349 . S
C2496 C2498 1.327 . S
C2496 H2521 0.950 . S
C2497 C2496 1.349 . S
C2497 C2513 1.349 . S
C2498 C2496 1.327 . S
C2498 C2517 1.429 . S
C2498 H2522 0.950 . S
C2499 C2516 1.574 . S
C2499 C2518 1.368 . S
C2499 H2523 0.949 . S
H2500 C2504 0.949 . S
C2501 C2502 1.349 . S
C2501 C2503 1.327 . S
C2501 H2524 0.950 . S
C2502 C2501 1.349 . S
C2502 C2514 1.349 . S
C2503 C2501 1.327 . S
C2503 C2519 1.429 . S
C2503 H2525 0.950 . S
C2504 H2500 0.949 . S
C2504 C2512 1.574 . S
C2504 C2520 1.368 . S
H2505 C2513 0.950 . S
H2506 C2511 0.950 . S
H2507 C2512 0.949 . S
H2508 C2514 0.950 . S
H2509 C2515 0.950 . S
H2510 C2516 0.949 . S
C2511 H2506 0.950 . S
C2511 C2513 1.327 . S
C2511 C2517 1.429 . S
C2512 C2504 1.574 . S
C2512 H2507 0.949 . S
C2512 C2518 1.368 1_655 S
C2513 C2497 1.349 . S
C2513 H2505 0.950 . S
C2513 C2511 1.327 . S
C2514 C2502 1.349 . S
C2514 H2508 0.950 . S
C2514 C2515 1.327 . S
C2515 H2509 0.950 . S
C2515 C2514 1.327 . S
C2515 C2519 1.429 . S
C2516 C2499 1.574 . S
C2516 H2510 0.949 . S
C2516 C2520 1.368 1_455 S
C2517 C2498 1.429 . S
C2517 C2511 1.429 . S
C2517 C2518 1.523 . S
C2518 C2499 1.368 . S
C2518 C2512 1.368 1_455 S
C2518 C2517 1.523 . S
C2519 C2503 1.429 . S
C2519 C2515 1.429 . S
C2519 C2520 1.523 . S
C2520 C2504 1.368 . S
C2520 C2516 1.368 1_655 S
C2520 C2519 1.523 . S
H2521 C2496 0.950 . S
H2522 C2498 0.950 . S
H2523 C2499 0.949 . S
H2524 C2501 0.950 . S
H2525 C2503 0.950 . S
C2526 C2527 1.349 . S
C2526 C2528 1.327 . S
C2526 H2551 0.950 . S
C2527 C2526 1.349 . S
C2527 C2543 1.349 . S
C2528 C2526 1.327 . S
C2528 C2547 1.429 . S
C2528 H2552 0.950 . S
C2529 C2546 1.574 . S
C2529 C2548 1.368 1_455 S
C2529 H2553 0.949 . S
H2530 C2534 0.949 . S
C2531 C2532 1.349 . S
C2531 C2533 1.327 . S
C2531 H2554 0.950 . S
C2532 C2531 1.349 . S
C2532 C2544 1.349 . S
C2533 C2531 1.327 . S
C2533 C2549 1.429 . S
C2533 H2555 0.950 . S
C2534 H2530 0.949 . S
C2534 C2542 1.574 . S
C2534 C2550 1.368 1_655 S
H2535 C2543 0.950 . S
H2536 C2541 0.950 . S
H2537 C2542 0.949 . S
H2538 C2544 0.950 . S
H2539 C2545 0.950 . S
H2540 C2546 0.949 . S
C2541 H2536 0.950 . S
C2541 C2543 1.327 . S
C2541 C2547 1.429 . S
C2542 C2534 1.574 . S
C2542 H2537 0.949 . S
C2542 C2548 1.368 . S
C2543 C2527 1.349 . S
C2543 H2535 0.950 . S
C2543 C2541 1.327 . S
C2544 C2532 1.349 . S
C2544 H2538 0.950 . S
C2544 C2545 1.327 . S
C2545 H2539 0.950 . S
C2545 C2544 1.327 . S
C2545 C2549 1.429 . S
C2546 C2529 1.574 . S
C2546 H2540 0.949 . S
C2546 C2550 1.368 . S
C2547 C2528 1.429 . S
C2547 C2541 1.429 . S
C2547 C2548 1.523 . S
C2548 C2529 1.368 1_655 S
C2548 C2542 1.368 . S
C2548 C2547 1.523 . S
C2549 C2533 1.429 . S
C2549 C2545 1.429 . S
C2549 C2550 1.523 . S
C2550 C2534 1.368 1_455 S
C2550 C2546 1.368 . S
C2550 C2549 1.523 . S
H2551 C2526 0.950 . S
H2552 C2528 0.950 . S
H2553 C2529 0.949 . S
H2554 C2531 0.950 . S
H2555 C2533 0.950 . S
C2556 C2557 1.349 . S
C2556 C2558 1.327 . S
C2556 H2581 0.950 . S
C2557 C2556 1.349 . S
C2557 C2573 1.349 . S
C2558 C2556 1.327 . S
C2558 C2577 1.429 . S
C2558 H2582 0.950 . S
C2559 C2576 1.574 . S
C2559 C2578 1.368 . S
C2559 H2583 0.949 . S
H2560 C2564 0.949 . S
C2561 C2562 1.349 . S
C2561 C2563 1.327 . S
C2561 H2584 0.950 . S
C2562 C2561 1.349 . S
C2562 C2574 1.349 . S
C2563 C2561 1.327 . S
C2563 C2579 1.429 . S
C2563 H2585 0.950 . S
C2564 H2560 0.949 . S
C2564 C2572 1.574 . S
C2564 C2580 1.368 . S
H2565 C2573 0.950 . S
H2566 C2571 0.950 . S
H2567 C2572 0.949 . S
H2568 C2574 0.950 . S
H2569 C2575 0.950 . S
H2570 C2576 0.949 . S
C2571 H2566 0.950 . S
C2571 C2573 1.327 . S
C2571 C2577 1.429 . S
C2572 C2564 1.574 . S
C2572 H2567 0.949 . S
C2572 C2578 1.368 1_565 S
C2573 C2557 1.349 . S
C2573 H2565 0.950 . S
C2573 C2571 1.327 . S
C2574 C2562 1.349 . S
C2574 H2568 0.950 . S
C2574 C2575 1.327 . S
C2575 H2569 0.950 . S
C2575 C2574 1.327 . S
C2575 C2579 1.429 . S
C2576 C2559 1.574 . S
C2576 H2570 0.949 . S
C2576 C2580 1.368 1_545 S
C2577 C2558 1.429 . S
C2577 C2571 1.429 . S
C2577 C2578 1.523 . S
C2578 C2559 1.368 . S
C2578 C2572 1.368 1_545 S
C2578 C2577 1.523 . S
C2579 C2563 1.429 . S
C2579 C2575 1.429 . S
C2579 C2580 1.523 . S
C2580 C2564 1.368 . S
C2580 C2576 1.368 1_565 S
C2580 C2579 1.523 . S
H2581 C2556 0.950 . S
H2582 C2558 0.950 . S
H2583 C2559 0.949 . S
H2584 C2561 0.950 . S
H2585 C2563 0.950 . S
C2586 C2587 1.349 . S
C2586 C2588 1.327 . S
C2586 H2611 0.950 . S
C2587 C2586 1.349 . S
C2587 C2603 1.349 . S
C2588 C2586 1.327 . S
C2588 C2607 1.429 . S
C2588 H2612 0.950 . S
C2589 C2606 1.574 . S
C2589 C2608 1.368 . S
C2589 H2613 0.949 . S
H2590 C2594 0.949 . S
C2591 C2592 1.349 . S
C2591 C2593 1.327 . S
C2591 H2614 0.950 . S
C2592 C2591 1.349 . S
C2592 C2604 1.349 . S
C2593 C2591 1.327 . S
C2593 C2609 1.429 . S
C2593 H2615 0.950 . S
C2594 H2590 0.949 . S
C2594 C2602 1.574 . S
C2594 C2610 1.368 . S
H2595 C2603 0.950 . S
H2596 C2601 0.950 . S
H2597 C2602 0.949 . S
H2598 C2604 0.950 . S
H2599 C2605 0.950 . S
H2600 C2606 0.949 . S
C2601 H2596 0.950 . S
C2601 C2603 1.327 . S
C2601 C2607 1.429 . S
C2602 C2594 1.574 . S
C2602 H2597 0.949 . S
C2602 C2608 1.368 . S
C2603 C2587 1.349 . S
C2603 H2595 0.950 . S
C2603 C2601 1.327 . S
C2604 C2592 1.349 . S
C2604 H2598 0.950 . S
C2604 C2605 1.327 . S
C2605 H2599 0.950 . S
C2605 C2604 1.327 . S
C2605 C2609 1.429 . S
C2606 C2589 1.574 . S
C2606 H2600 0.949 . S
C2606 C2610 1.368 . S
C2607 C2588 1.429 . S
C2607 C2601 1.429 . S
C2607 C2608 1.523 . S
C2608 C2589 1.368 . S
C2608 C2602 1.368 . S
C2608 C2607 1.523 . S
C2609 C2593 1.429 . S
C2609 C2605 1.429 . S
C2609 C2610 1.523 . S
C2610 C2594 1.368 . S
C2610 C2606 1.368 . S
C2610 C2609 1.523 . S
H2611 C2586 0.950 . S
H2612 C2588 0.950 . S
H2613 C2589 0.949 . S
H2614 C2591 0.950 . S
H2615 C2593 0.950 . S
C2616 C2617 1.349 . S
C2616 C2618 1.327 . S
C2616 H2641 0.950 . S
C2617 C2616 1.349 . S
C2617 C2633 1.349 . S
C2618 C2616 1.327 . S
C2618 C2637 1.429 . S
C2618 H2642 0.950 . S
C2619 C2636 1.574 . S
C2619 C2638 1.368 . S
C2619 H2643 0.949 . S
H2620 C2624 0.949 . S
C2621 C2622 1.349 . S
C2621 C2623 1.327 . S
C2621 H2644 0.950 . S
C2622 C2621 1.349 . S
C2622 C2634 1.349 . S
C2623 C2621 1.327 . S
C2623 C2639 1.429 . S
C2623 H2645 0.950 . S
C2624 H2620 0.949 . S
C2624 C2632 1.574 . S
C2624 C2640 1.368 . S
H2625 C2633 0.950 . S
H2626 C2631 0.950 . S
H2627 C2632 0.949 . S
H2628 C2634 0.950 . S
H2629 C2635 0.950 . S
H2630 C2636 0.949 . S
C2631 H2626 0.950 . S
C2631 C2633 1.327 . S
C2631 C2637 1.429 . S
C2632 C2624 1.574 . S
C2632 H2627 0.949 . S
C2632 C2638 1.368 . S
C2633 C2617 1.349 . S
C2633 H2625 0.950 . S
C2633 C2631 1.327 . S
C2634 C2622 1.349 . S
C2634 H2628 0.950 . S
C2634 C2635 1.327 . S
C2635 H2629 0.950 . S
C2635 C2634 1.327 . S
C2635 C2639 1.429 . S
C2636 C2619 1.574 . S
C2636 H2630 0.949 . S
C2636 C2640 1.368 . S
C2637 C2618 1.429 . S
C2637 C2631 1.429 . S
C2637 C2638 1.523 . S
C2638 C2619 1.368 . S
C2638 C2632 1.368 . S
C2638 C2637 1.523 . S
C2639 C2623 1.429 . S
C2639 C2635 1.429 . S
C2639 C2640 1.523 . S
C2640 C2624 1.368 . S
C2640 C2636 1.368 . S
C2640 C2639 1.523 . S
H2641 C2616 0.950 . S
H2642 C2618 0.950 . S
H2643 C2619 0.949 . S
H2644 C2621 0.950 . S
H2645 C2623 0.950 . S
C2646 C2647 1.349 . S
C2646 C2648 1.327 . S
C2646 H2671 0.950 . S
C2647 C2646 1.349 . S
C2647 C2663 1.349 . S
C2648 C2646 1.327 . S
C2648 C2667 1.429 . S
C2648 H2672 0.950 . S
C2649 C2666 1.574 . S
C2649 C2668 1.368 . S
C2649 H2673 0.949 . S
H2650 C2654 0.949 . S
C2651 C2652 1.349 . S
C2651 C2653 1.327 . S
C2651 H2674 0.950 . S
C2652 C2651 1.349 . S
C2652 C2664 1.349 . S
C2653 C2651 1.327 . S
C2653 C2669 1.429 . S
C2653 H2675 0.950 . S
C2654 H2650 0.949 . S
C2654 C2662 1.574 . S
C2654 C2670 1.368 . S
H2655 C2663 0.950 . S
H2656 C2661 0.950 . S
H2657 C2662 0.949 . S
H2658 C2664 0.950 . S
H2659 C2665 0.950 . S
H2660 C2666 0.949 . S
C2661 H2656 0.950 . S
C2661 C2663 1.327 . S
C2661 C2667 1.429 . S
C2662 C2654 1.574 . S
C2662 H2657 0.949 . S
C2662 C2668 1.368 . S
C2663 C2647 1.349 . S
C2663 H2655 0.950 . S
C2663 C2661 1.327 . S
C2664 C2652 1.349 . S
C2664 H2658 0.950 . S
C2664 C2665 1.327 . S
C2665 H2659 0.950 . S
C2665 C2664 1.327 . S
C2665 C2669 1.429 . S
C2666 C2649 1.574 . S
C2666 H2660 0.949 . S
C2666 C2670 1.368 . S
C2667 C2648 1.429 . S
C2667 C2661 1.429 . S
C2667 C2668 1.523 . S
C2668 C2649 1.368 . S
C2668 C2662 1.368 . S
C2668 C2667 1.523 . S
C2669 C2653 1.429 . S
C2669 C2665 1.429 . S
C2669 C2670 1.523 . S
C2670 C2654 1.368 . S
C2670 C2666 1.368 . S
C2670 C2669 1.523 . S
H2671 C2646 0.950 . S
H2672 C2648 0.950 . S
H2673 C2649 0.949 . S
H2674 C2651 0.950 . S
H2675 C2653 0.950 . S
C2676 C2677 1.349 . S
C2676 C2678 1.327 . S
C2676 H2701 0.950 . S
C2677 C2676 1.349 . S
C2677 C2693 1.349 . S
C2678 C2676 1.327 . S
C2678 C2697 1.429 . S
C2678 H2702 0.950 . S
C2679 C2696 1.574 . S
C2679 C2698 1.368 . S
C2679 H2703 0.949 . S
H2680 C2684 0.949 . S
C2681 C2682 1.349 . S
C2681 C2683 1.327 . S
C2681 H2704 0.950 . S
C2682 C2681 1.349 . S
C2682 C2694 1.349 . S
C2683 C2681 1.327 . S
C2683 C2699 1.429 . S
C2683 H2705 0.950 . S
C2684 H2680 0.949 . S
C2684 C2692 1.574 . S
C2684 C2700 1.368 . S
H2685 C2693 0.950 . S
H2686 C2691 0.950 . S
H2687 C2692 0.949 . S
H2688 C2694 0.950 . S
H2689 C2695 0.950 . S
H2690 C2696 0.949 . S
C2691 H2686 0.950 . S
C2691 C2693 1.327 . S
C2691 C2697 1.429 . S
C2692 C2684 1.574 . S
C2692 H2687 0.949 . S
C2692 C2698 1.368 . S
C2693 C2677 1.349 . S
C2693 H2685 0.950 . S
C2693 C2691 1.327 . S
C2694 C2682 1.349 . S
C2694 H2688 0.950 . S
C2694 C2695 1.327 . S
C2695 H2689 0.950 . S
C2695 C2694 1.327 . S
C2695 C2699 1.429 . S
C2696 C2679 1.574 . S
C2696 H2690 0.949 . S
C2696 C2700 1.368 . S
C2697 C2678 1.429 . S
C2697 C2691 1.429 . S
C2697 C2698 1.523 . S
C2698 C2679 1.368 . S
C2698 C2692 1.368 . S
C2698 C2697 1.523 . S
C2699 C2683 1.429 . S
C2699 C2695 1.429 . S
C2699 C2700 1.523 . S
C2700 C2684 1.368 . S
C2700 C2696 1.368 . S
C2700 C2699 1.523 . S
H2701 C2676 0.950 . S
H2702 C2678 0.950 . S
H2703 C2679 0.949 . S
H2704 C2681 0.950 . S
H2705 C2683 0.950 . S
C2706 C2707 1.349 . S
C2706 C2708 1.327 . S
C2706 H2731 0.950 . S
C2707 C2706 1.349 . S
C2707 C2723 1.349 . S
C2708 C2706 1.327 . S
C2708 C2727 1.429 . S
C2708 H2732 0.950 . S
C2709 C2726 1.574 . S
C2709 C2728 1.368 . S
C2709 H2733 0.949 . S
H2710 C2714 0.949 . S
C2711 C2712 1.349 . S
C2711 C2713 1.327 . S
C2711 H2734 0.950 . S
C2712 C2711 1.349 . S
C2712 C2724 1.349 . S
C2713 C2711 1.327 . S
C2713 C2729 1.429 . S
C2713 H2735 0.950 . S
C2714 H2710 0.949 . S
C2714 C2722 1.574 . S
C2714 C2730 1.368 . S
H2715 C2723 0.950 . S
H2716 C2721 0.950 . S
H2717 C2722 0.949 . S
H2718 C2724 0.950 . S
H2719 C2725 0.950 . S
H2720 C2726 0.949 . S
C2721 H2716 0.950 . S
C2721 C2723 1.327 . S
C2721 C2727 1.429 . S
C2722 C2714 1.574 . S
C2722 H2717 0.949 . S
C2722 C2728 1.368 . S
C2723 C2707 1.349 . S
C2723 H2715 0.950 . S
C2723 C2721 1.327 . S
C2724 C2712 1.349 . S
C2724 H2718 0.950 . S
C2724 C2725 1.327 . S
C2725 H2719 0.950 . S
C2725 C2724 1.327 . S
C2725 C2729 1.429 . S
C2726 C2709 1.574 . S
C2726 H2720 0.949 . S
C2726 C2730 1.368 . S
C2727 C2708 1.429 . S
C2727 C2721 1.429 . S
C2727 C2728 1.523 . S
C2728 C2709 1.368 . S
C2728 C2722 1.368 . S
C2728 C2727 1.523 . S
C2729 C2713 1.429 . S
C2729 C2725 1.429 . S
C2729 C2730 1.523 . S
C2730 C2714 1.368 . S
C2730 C2726 1.368 . S
C2730 C2729 1.523 . S
H2731 C2706 0.950 . S
H2732 C2708 0.950 . S
H2733 C2709 0.949 . S
H2734 C2711 0.950 . S
H2735 C2713 0.950 . S
C2736 C2737 1.349 . S
C2736 C2738 1.327 . S
C2736 H2761 0.950 . S
C2737 C2736 1.349 . S
C2737 C2753 1.349 . S
C2738 C2736 1.327 . S
C2738 C2757 1.429 . S
C2738 H2762 0.950 . S
C2739 C2756 1.574 . S
C2739 C2758 1.368 . S
C2739 H2763 0.949 . S
H2740 C2744 0.949 . S
C2741 C2742 1.349 . S
C2741 C2743 1.327 . S
C2741 H2764 0.950 . S
C2742 C2741 1.349 . S
C2742 C2754 1.349 . S
C2743 C2741 1.327 . S
C2743 C2759 1.429 . S
C2743 H2765 0.950 . S
C2744 H2740 0.949 . S
C2744 C2752 1.574 . S
C2744 C2760 1.368 . S
H2745 C2753 0.950 . S
H2746 C2751 0.950 . S
H2747 C2752 0.949 . S
H2748 C2754 0.950 . S
H2749 C2755 0.950 . S
H2750 C2756 0.949 . S
C2751 H2746 0.950 . S
C2751 C2753 1.327 . S
C2751 C2757 1.429 . S
C2752 C2744 1.574 . S
C2752 H2747 0.949 . S
C2752 C2758 1.368 . S
C2753 C2737 1.349 . S
C2753 H2745 0.950 . S
C2753 C2751 1.327 . S
C2754 C2742 1.349 . S
C2754 H2748 0.950 . S
C2754 C2755 1.327 . S
C2755 H2749 0.950 . S
C2755 C2754 1.327 . S
C2755 C2759 1.429 . S
C2756 C2739 1.574 . S
C2756 H2750 0.949 . S
C2756 C2760 1.368 . S
C2757 C2738 1.429 . S
C2757 C2751 1.429 . S
C2757 C2758 1.523 . S
C2758 C2739 1.368 . S
C2758 C2752 1.368 . S
C2758 C2757 1.523 . S
C2759 C2743 1.429 . S
C2759 C2755 1.429 . S
C2759 C2760 1.523 . S
C2760 C2744 1.368 . S
C2760 C2756 1.368 . S
C2760 C2759 1.523 . S
H2761 C2736 0.950 . S
H2762 C2738 0.950 . S
H2763 C2739 0.949 . S
H2764 C2741 0.950 . S
H2765 C2743 0.950 . S
C2766 C2767 1.349 . S
C2766 C2768 1.327 . S
C2766 H2791 0.950 . S
C2767 C2766 1.349 . S
C2767 C2783 1.349 . S
C2768 C2766 1.327 . S
C2768 C2787 1.429 . S
C2768 H2792 0.950 . S
C2769 C2786 1.574 . S
C2769 C2788 1.368 . S
C2769 H2793 0.949 . S
H2770 C2774 0.949 . S
C2771 C2772 1.349 . S
C2771 C2773 1.327 . S
C2771 H2794 0.950 . S
C2772 C2771 1.349 . S
C2772 C2784 1.349 . S
C2773 C2771 1.327 . S
C2773 C2789 1.429 . S
C2773 H2795 0.950 . S
C2774 H2770 0.949 . S
C2774 C2782 1.574 . S
C2774 C2790 1.368 . S
H2775 C2783 0.950 . S
H2776 C2781 0.950 . S
H2777 C2782 0.949 . S
H2778 C2784 0.950 . S
H2779 C2785 0.950 . S
H2780 C2786 0.949 . S
C2781 H2776 0.950 . S
C2781 C2783 1.327 . S
C2781 C2787 1.429 . S
C2782 C2774 1.574 . S
C2782 H2777 0.949 . S
C2782 C2788 1.368 . S
C2783 C2767 1.349 . S
C2783 H2775 0.950 . S
C2783 C2781 1.327 . S
C2784 C2772 1.349 . S
C2784 H2778 0.950 . S
C2784 C2785 1.327 . S
C2785 H2779 0.950 . S
C2785 C2784 1.327 . S
C2785 C2789 1.429 . S
C2786 C2769 1.574 . S
C2786 H2780 0.949 . S
C2786 C2790 1.368 . S
C2787 C2768 1.429 . S
C2787 C2781 1.429 . S
C2787 C2788 1.523 . S
C2788 C2769 1.368 . S
C2788 C2782 1.368 . S
C2788 C2787 1.523 . S
C2789 C2773 1.429 . S
C2789 C2785 1.429 . S
C2789 C2790 1.523 . S
C2790 C2774 1.368 . S
C2790 C2786 1.368 . S
C2790 C2789 1.523 . S
H2791 C2766 0.950 . S
H2792 C2768 0.950 . S
H2793 C2769 0.949 . S
H2794 C2771 0.950 . S
H2795 C2773 0.950 . S
C2796 C2797 1.349 . S
C2796 C2798 1.327 . S
C2796 H2821 0.950 . S
C2797 C2796 1.349 . S
C2797 C2813 1.349 . S
C2798 C2796 1.327 . S
C2798 C2817 1.429 . S
C2798 H2822 0.950 . S
C2799 C2816 1.574 . S
C2799 C2818 1.368 . S
C2799 H2823 0.949 . S
H2800 C2804 0.949 . S
C2801 C2802 1.349 . S
C2801 C2803 1.327 . S
C2801 H2824 0.950 . S
C2802 C2801 1.349 . S
C2802 C2814 1.349 . S
C2803 C2801 1.327 . S
C2803 C2819 1.429 . S
C2803 H2825 0.950 . S
C2804 H2800 0.949 . S
C2804 C2812 1.574 . S
C2804 C2820 1.368 . S
H2805 C2813 0.950 . S
H2806 C2811 0.950 . S
H2807 C2812 0.949 . S
H2808 C2814 0.950 . S
H2809 C2815 0.950 . S
H2810 C2816 0.949 . S
C2811 H2806 0.950 . S
C2811 C2813 1.327 . S
C2811 C2817 1.429 . S
C2812 C2804 1.574 . S
C2812 H2807 0.949 . S
C2812 C2818 1.368 . S
C2813 C2797 1.349 . S
C2813 H2805 0.950 . S
C2813 C2811 1.327 . S
C2814 C2802 1.349 . S
C2814 H2808 0.950 . S
C2814 C2815 1.327 . S
C2815 H2809 0.950 . S
C2815 C2814 1.327 . S
C2815 C2819 1.429 . S
C2816 C2799 1.574 . S
C2816 H2810 0.949 . S
C2816 C2820 1.368 . S
C2817 C2798 1.429 . S
C2817 C2811 1.429 . S
C2817 C2818 1.523 . S
C2818 C2799 1.368 . S
C2818 C2812 1.368 . S
C2818 C2817 1.523 . S
C2819 C2803 1.429 . S
C2819 C2815 1.429 . S
C2819 C2820 1.523 . S
C2820 C2804 1.368 . S
C2820 C2816 1.368 . S
C2820 C2819 1.523 . S
H2821 C2796 0.950 . S
H2822 C2798 0.950 . S
H2823 C2799 0.949 . S
H2824 C2801 0.950 . S
H2825 C2803 0.950 . S
C2826 C2827 1.349 . S
C2826 C2828 1.327 . S
C2826 H2851 0.950 . S
C2827 C2826 1.349 . S
C2827 C2843 1.349 . S
C2828 C2826 1.327 . S
C2828 C2847 1.429 . S
C2828 H2852 0.950 . S
C2829 C2846 1.574 . S
C2829 C2848 1.368 . S
C2829 H2853 0.949 . S
H2830 C2834 0.949 . S
C2831 C2832 1.349 . S
C2831 C2833 1.327 . S
C2831 H2854 0.950 . S
C2832 C2831 1.349 . S
C2832 C2844 1.349 . S
C2833 C2831 1.327 . S
C2833 C2849 1.429 . S
C2833 H2855 0.950 . S
C2834 H2830 0.949 . S
C2834 C2842 1.574 . S
C2834 C2850 1.368 . S
H2835 C2843 0.950 . S
H2836 C2841 0.950 . S
H2837 C2842 0.949 . S
H2838 C2844 0.950 . S
H2839 C2845 0.950 . S
H2840 C2846 0.949 . S
C2841 H2836 0.950 . S
C2841 C2843 1.327 . S
C2841 C2847 1.429 . S
C2842 C2834 1.574 . S
C2842 H2837 0.949 . S
C2842 C2848 1.368 . S
C2843 C2827 1.349 . S
C2843 H2835 0.950 . S
C2843 C2841 1.327 . S
C2844 C2832 1.349 . S
C2844 H2838 0.950 . S
C2844 C2845 1.327 . S
C2845 H2839 0.950 . S
C2845 C2844 1.327 . S
C2845 C2849 1.429 . S
C2846 C2829 1.574 . S
C2846 H2840 0.949 . S
C2846 C2850 1.368 . S
C2847 C2828 1.429 . S
C2847 C2841 1.429 . S
C2847 C2848 1.523 . S
C2848 C2829 1.368 . S
C2848 C2842 1.368 . S
C2848 C2847 1.523 . S
C2849 C2833 1.429 . S
C2849 C2845 1.429 . S
C2849 C2850 1.523 . S
C2850 C2834 1.368 . S
C2850 C2846 1.368 . S
C2850 C2849 1.523 . S
H2851 C2826 0.950 . S
H2852 C2828 0.950 . S
H2853 C2829 0.949 . S
H2854 C2831 0.950 . S
H2855 C2833 0.950 . S
C2856 C2857 1.349 . S
C2856 C2858 1.327 . S
C2856 H2881 0.950 . S
C2857 C2856 1.349 . S
C2857 C2873 1.349 . S
C2858 C2856 1.327 . S
C2858 C2877 1.429 . S
C2858 H2882 0.950 . S
C2859 C2876 1.574 . S
C2859 C2878 1.368 . S
C2859 H2883 0.949 . S
H2860 C2864 0.949 . S
C2861 C2862 1.349 . S
C2861 C2863 1.327 . S
C2861 H2884 0.950 . S
C2862 C2861 1.349 . S
C2862 C2874 1.349 . S
C2863 C2861 1.327 . S
C2863 C2879 1.429 . S
C2863 H2885 0.950 . S
C2864 H2860 0.949 . S
C2864 C2872 1.574 . S
C2864 C2880 1.368 . S
H2865 C2873 0.950 . S
H2866 C2871 0.950 . S
H2867 C2872 0.949 . S
H2868 C2874 0.950 . S
H2869 C2875 0.950 . S
H2870 C2876 0.949 . S
C2871 H2866 0.950 . S
C2871 C2873 1.327 . S
C2871 C2877 1.429 . S
C2872 C2864 1.574 . S
C2872 H2867 0.949 . S
C2872 C2878 1.368 . S
C2873 C2857 1.349 . S
C2873 H2865 0.950 . S
C2873 C2871 1.327 . S
C2874 C2862 1.349 . S
C2874 H2868 0.950 . S
C2874 C2875 1.327 . S
C2875 H2869 0.950 . S
C2875 C2874 1.327 . S
C2875 C2879 1.429 . S
C2876 C2859 1.574 . S
C2876 H2870 0.949 . S
C2876 C2880 1.368 . S
C2877 C2858 1.429 . S
C2877 C2871 1.429 . S
C2877 C2878 1.523 . S
C2878 C2859 1.368 . S
C2878 C2872 1.368 . S
C2878 C2877 1.523 . S
C2879 C2863 1.429 . S
C2879 C2875 1.429 . S
C2879 C2880 1.523 . S
C2880 C2864 1.368 . S
C2880 C2876 1.368 . S
C2880 C2879 1.523 . S
H2881 C2856 0.950 . S
H2882 C2858 0.950 . S
H2883 C2859 0.949 . S
H2884 C2861 0.950 . S
H2885 C2863 0.950 . S
C2886 C2887 1.349 . S
C2886 C2888 1.327 . S
C2886 H2911 0.950 . S
C2887 C2886 1.349 . S
C2887 C2903 1.349 . S
C2888 C2886 1.327 . S
C2888 C2907 1.429 . S
C2888 H2912 0.950 . S
C2889 C2906 1.574 . S
C2889 C2908 1.368 . S
C2889 H2913 0.949 . S
H2890 C2894 0.949 . S
C2891 C2892 1.349 . S
C2891 C2893 1.327 . S
C2891 H2914 0.950 . S
C2892 C2891 1.349 . S
C2892 C2904 1.349 . S
C2893 C2891 1.327 . S
C2893 C2909 1.429 . S
C2893 H2915 0.950 . S
C2894 H2890 0.949 . S
C2894 C2902 1.574 . S
C2894 C2910 1.368 . S
H2895 C2903 0.950 . S
H2896 C2901 0.950 . S
H2897 C2902 0.949 . S
H2898 C2904 0.950 . S
H2899 C2905 0.950 . S
H2900 C2906 0.949 . S
C2901 H2896 0.950 . S
C2901 C2903 1.327 . S
C2901 C2907 1.429 . S
C2902 C2894 1.574 . S
C2902 H2897 0.949 . S
C2902 C2908 1.368 . S
C2903 C2887 1.349 . S
C2903 H2895 0.950 . S
C2903 C2901 1.327 . S
C2904 C2892 1.349 . S
C2904 H2898 0.950 . S
C2904 C2905 1.327 . S
C2905 H2899 0.950 . S
C2905 C2904 1.327 . S
C2905 C2909 1.429 . S
C2906 C2889 1.574 . S
C2906 H2900 0.949 . S
C2906 C2910 1.368 . S
C2907 C2888 1.429 . S
C2907 C2901 1.429 . S
C2907 C2908 1.523 . S
C2908 C2889 1.368 . S
C2908 C2902 1.368 . S
C2908 C2907 1.523 . S
C2909 C2893 1.429 . S
C2909 C2905 1.429 . S
C2909 C2910 1.523 . S
C2910 C2894 1.368 . S
C2910 C2906 1.368 . S
C2910 C2909 1.523 . S
H2911 C2886 0.950 . S
H2912 C2888 0.950 . S
H2913 C2889 0.949 . S
H2914 C2891 0.950 . S
H2915 C2893 0.950 . S
C2916 C2917 1.349 . S
C2916 C2918 1.327 . S
C2916 H2941 0.950 . S
C2917 C2916 1.349 . S
C2917 C2933 1.349 . S
C2918 C2916 1.327 . S
C2918 C2937 1.429 . S
C2918 H2942 0.950 . S
C2919 C2936 1.574 . S
C2919 C2938 1.368 . S
C2919 H2943 0.949 . S
H2920 C2924 0.949 . S
C2921 C2922 1.349 . S
C2921 C2923 1.327 . S
C2921 H2944 0.950 . S
C2922 C2921 1.349 . S
C2922 C2934 1.349 . S
C2923 C2921 1.327 . S
C2923 C2939 1.429 . S
C2923 H2945 0.950 . S
C2924 H2920 0.949 . S
C2924 C2932 1.574 . S
C2924 C2940 1.368 . S
H2925 C2933 0.950 . S
H2926 C2931 0.950 . S
H2927 C2932 0.949 . S
H2928 C2934 0.950 . S
H2929 C2935 0.950 . S
H2930 C2936 0.949 . S
C2931 H2926 0.950 . S
C2931 C2933 1.327 . S
C2931 C2937 1.429 . S
C2932 C2924 1.574 . S
C2932 H2927 0.949 . S
C2932 C2938 1.368 . S
C2933 C2917 1.349 . S
C2933 H2925 0.950 . S
C2933 C2931 1.327 . S
C2934 C2922 1.349 . S
C2934 H2928 0.950 . S
C2934 C2935 1.327 . S
C2935 H2929 0.950 . S
C2935 C2934 1.327 . S
C2935 C2939 1.429 . S
C2936 C2919 1.574 . S
C2936 H2930 0.949 . S
C2936 C2940 1.368 . S
C2937 C2918 1.429 . S
C2937 C2931 1.429 . S
C2937 C2938 1.523 . S
C2938 C2919 1.368 . S
C2938 C2932 1.368 . S
C2938 C2937 1.523 . S
C2939 C2923 1.429 . S
C2939 C2935 1.429 . S
C2939 C2940 1.523 . S
C2940 C2924 1.368 . S
C2940 C2936 1.368 . S
C2940 C2939 1.523 . S
H2941 C2916 0.950 . S
H2942 C2918 0.950 . S
H2943 C2919 0.949 . S
H2944 C2921 0.950 . S
H2945 C2923 0.950 . S
C2946 C2947 1.349 . S
C2946 C2948 1.327 . S
C2946 H2971 0.950 . S
C2947 C2946 1.349 . S
C2947 C2963 1.349 . S
C2948 C2946 1.327 . S
C2948 C2967 1.429 . S
C2948 H2972 0.950 . S
C2949 C2966 1.574 . S
C2949 C2968 1.368 . S
C2949 H2973 0.949 . S
H2950 C2954 0.949 . S
C2951 C2952 1.349 . S
C2951 C2953 1.327 . S
C2951 H2974 0.950 . S
C2952 C2951 1.349 . S
C2952 C2964 1.349 . S
C2953 C2951 1.327 . S
C2953 C2969 1.429 . S
C2953 H2975 0.950 . S
C2954 H2950 0.949 . S
C2954 C2962 1.574 . S
C2954 C2970 1.368 . S
H2955 C2963 0.950 . S
H2956 C2961 0.950 . S
H2957 C2962 0.949 . S
H2958 C2964 0.950 . S
H2959 C2965 0.950 . S
H2960 C2966 0.949 . S
C2961 H2956 0.950 . S
C2961 C2963 1.327 . S
C2961 C2967 1.429 . S
C2962 C2954 1.574 . S
C2962 H2957 0.949 . S
C2962 C2968 1.368 . S
C2963 C2947 1.349 . S
C2963 H2955 0.950 . S
C2963 C2961 1.327 . S
C2964 C2952 1.349 . S
C2964 H2958 0.950 . S
C2964 C2965 1.327 . S
C2965 H2959 0.950 . S
C2965 C2964 1.327 . S
C2965 C2969 1.429 . S
C2966 C2949 1.574 . S
C2966 H2960 0.949 . S
C2966 C2970 1.368 . S
C2967 C2948 1.429 . S
C2967 C2961 1.429 . S
C2967 C2968 1.523 . S
C2968 C2949 1.368 . S
C2968 C2962 1.368 . S
C2968 C2967 1.523 . S
C2969 C2953 1.429 . S
C2969 C2965 1.429 . S
C2969 C2970 1.523 . S
C2970 C2954 1.368 . S
C2970 C2966 1.368 . S
C2970 C2969 1.523 . S
H2971 C2946 0.950 . S
H2972 C2948 0.950 . S
H2973 C2949 0.949 . S
H2974 C2951 0.950 . S
H2975 C2953 0.950 . S
C2976 C2977 1.349 . S
C2976 C2978 1.327 . S
C2976 H3001 0.950 . S
C2977 C2976 1.349 . S
C2977 C2993 1.349 . S
C2978 C2976 1.327 . S
C2978 C2997 1.429 . S
C2978 H3002 0.950 . S
C2979 C2996 1.574 . S
C2979 C2998 1.368 . S
C2979 H3003 0.949 . S
H2980 C2984 0.949 . S
C2981 C2982 1.349 . S
C2981 C2983 1.327 . S
C2981 H3004 0.950 . S
C2982 C2981 1.349 . S
C2982 C2994 1.349 . S
C2983 C2981 1.327 . S
C2983 C2999 1.429 . S
C2983 H3005 0.950 . S
C2984 H2980 0.949 . S
C2984 C2992 1.574 . S
C2984 C3000 1.368 . S
H2985 C2993 0.950 . S
H2986 C2991 0.950 . S
H2987 C2992 0.949 . S
H2988 C2994 0.950 . S
H2989 C2995 0.950 . S
H2990 C2996 0.949 . S
C2991 H2986 0.950 . S
C2991 C2993 1.327 . S
C2991 C2997 1.429 . S
C2992 C2984 1.574 . S
C2992 H2987 0.949 . S
C2992 C2998 1.368 . S
C2993 C2977 1.349 . S
C2993 H2985 0.950 . S
C2993 C2991 1.327 . S
C2994 C2982 1.349 . S
C2994 H2988 0.950 . S
C2994 C2995 1.327 . S
C2995 H2989 0.950 . S
C2995 C2994 1.327 . S
C2995 C2999 1.429 . S
C2996 C2979 1.574 . S
C2996 H2990 0.949 . S
C2996 C3000 1.368 . S
C2997 C2978 1.429 . S
C2997 C2991 1.429 . S
C2997 C2998 1.523 . S
C2998 C2979 1.368 . S
C2998 C2992 1.368 . S
C2998 C2997 1.523 . S
C2999 C2983 1.429 . S
C2999 C2995 1.429 . S
C2999 C3000 1.523 . S
C3000 C2984 1.368 . S
C3000 C2996 1.368 . S
C3000 C2999 1.523 . S
H3001 C2976 0.950 . S
H3002 C2978 0.950 . S
H3003 C2979 0.949 . S
H3004 C2981 0.950 . S
H3005 C2983 0.950 . S
C3006 C3007 1.349 . S
C3006 C3008 1.327 . S
C3006 H3031 0.950 . S
C3007 C3006 1.349 . S
C3007 C3023 1.349 . S
C3008 C3006 1.327 . S
C3008 C3027 1.429 . S
C3008 H3032 0.950 . S
C3009 C3026 1.574 . S
C3009 C3028 1.368 . S
C3009 H3033 0.949 . S
H3010 C3014 0.949 . S
C3011 C3012 1.349 . S
C3011 C3013 1.327 . S
C3011 H3034 0.950 . S
C3012 C3011 1.349 . S
C3012 C3024 1.349 . S
C3013 C3011 1.327 . S
C3013 C3029 1.429 . S
C3013 H3035 0.950 . S
C3014 H3010 0.949 . S
C3014 C3022 1.574 . S
C3014 C3030 1.368 . S
H3015 C3023 0.950 . S
H3016 C3021 0.950 . S
H3017 C3022 0.949 . S
H3018 C3024 0.950 . S
H3019 C3025 0.950 . S
H3020 C3026 0.949 . S
C3021 H3016 0.950 . S
C3021 C3023 1.327 . S
C3021 C3027 1.429 . S
C3022 C3014 1.574 . S
C3022 H3017 0.949 . S
C3022 C3028 1.368 . S
C3023 C3007 1.349 . S
C3023 H3015 0.950 . S
C3023 C3021 1.327 . S
C3024 C3012 1.349 . S
C3024 H3018 0.950 . S
C3024 C3025 1.327 . S
C3025 H3019 0.950 . S
C3025 C3024 1.327 . S
C3025 C3029 1.429 . S
C3026 C3009 1.574 . S
C3026 H3020 0.949 . S
C3026 C3030 1.368 . S
C3027 C3008 1.429 . S
C3027 C3021 1.429 . S
C3027 C3028 1.523 . S
C3028 C3009 1.368 . S
C3028 C3022 1.368 . S
C3028 C3027 1.523 . S
C3029 C3013 1.429 . S
C3029 C3025 1.429 . S
C3029 C3030 1.523 . S
C3030 C3014 1.368 . S
C3030 C3026 1.368 . S
C3030 C3029 1.523 . S
H3031 C3006 0.950 . S
H3032 C3008 0.950 . S
H3033 C3009 0.949 . S
H3034 C3011 0.950 . S
H3035 C3013 0.950 . S
C3036 C3037 1.349 . S
C3036 C3038 1.327 . S
C3036 H3061 0.950 . S
C3037 C3036 1.349 . S
C3037 C3053 1.349 . S
C3038 C3036 1.327 . S
C3038 C3057 1.429 . S
C3038 H3062 0.950 . S
C3039 C3056 1.574 . S
C3039 C3058 1.368 . S
C3039 H3063 0.949 . S
H3040 C3044 0.949 . S
C3041 C3042 1.349 . S
C3041 C3043 1.327 . S
C3041 H3064 0.950 . S
C3042 C3041 1.349 . S
C3042 C3054 1.349 . S
C3043 C3041 1.327 . S
C3043 C3059 1.429 . S
C3043 H3065 0.950 . S
C3044 H3040 0.949 . S
C3044 C3052 1.574 . S
C3044 C3060 1.368 . S
H3045 C3053 0.950 . S
H3046 C3051 0.950 . S
H3047 C3052 0.949 . S
H3048 C3054 0.950 . S
H3049 C3055 0.950 . S
H3050 C3056 0.949 . S
C3051 H3046 0.950 . S
C3051 C3053 1.327 . S
C3051 C3057 1.429 . S
C3052 C3044 1.574 . S
C3052 H3047 0.949 . S
C3052 C3058 1.368 . S
C3053 C3037 1.349 . S
C3053 H3045 0.950 . S
C3053 C3051 1.327 . S
C3054 C3042 1.349 . S
C3054 H3048 0.950 . S
C3054 C3055 1.327 . S
C3055 H3049 0.950 . S
C3055 C3054 1.327 . S
C3055 C3059 1.429 . S
C3056 C3039 1.574 . S
C3056 H3050 0.949 . S
C3056 C3060 1.368 . S
C3057 C3038 1.429 . S
C3057 C3051 1.429 . S
C3057 C3058 1.523 . S
C3058 C3039 1.368 . S
C3058 C3052 1.368 . S
C3058 C3057 1.523 . S
C3059 C3043 1.429 . S
C3059 C3055 1.429 . S
C3059 C3060 1.523 . S
C3060 C3044 1.368 . S
C3060 C3056 1.368 . S
C3060 C3059 1.523 . S
H3061 C3036 0.950 . S
H3062 C3038 0.950 . S
H3063 C3039 0.949 . S
H3064 C3041 0.950 . S
H3065 C3043 0.950 . S
C3066 C3067 1.349 . S
C3066 C3068 1.327 . S
C3066 H3091 0.950 . S
C3067 C3066 1.349 . S
C3067 C3083 1.349 . S
C3068 C3066 1.327 . S
C3068 C3087 1.429 . S
C3068 H3092 0.950 . S
C3069 C3086 1.574 . S
C3069 C3088 1.368 . S
C3069 H3093 0.949 . S
H3070 C3074 0.949 . S
C3071 C3072 1.349 . S
C3071 C3073 1.327 . S
C3071 H3094 0.950 . S
C3072 C3071 1.349 . S
C3072 C3084 1.349 . S
C3073 C3071 1.327 . S
C3073 C3089 1.429 . S
C3073 H3095 0.950 . S
C3074 H3070 0.949 . S
C3074 C3082 1.574 . S
C3074 C3090 1.368 . S
H3075 C3083 0.950 . S
H3076 C3081 0.950 . S
H3077 C3082 0.949 . S
H3078 C3084 0.950 . S
H3079 C3085 0.950 . S
H3080 C3086 0.949 . S
C3081 H3076 0.950 . S
C3081 C3083 1.327 . S
C3081 C3087 1.429 . S
C3082 C3074 1.574 . S
C3082 H3077 0.949 . S
C3082 C3088 1.368 . S
C3083 C3067 1.349 . S
C3083 H3075 0.950 . S
C3083 C3081 1.327 . S
C3084 C3072 1.349 . S
C3084 H3078 0.950 . S
C3084 C3085 1.327 . S
C3085 H3079 0.950 . S
C3085 C3084 1.327 . S
C3085 C3089 1.429 . S
C3086 C3069 1.574 . S
C3086 H3080 0.949 . S
C3086 C3090 1.368 . S
C3087 C3068 1.429 . S
C3087 C3081 1.429 . S
C3087 C3088 1.523 . S
C3088 C3069 1.368 . S
C3088 C3082 1.368 . S
C3088 C3087 1.523 . S
C3089 C3073 1.429 . S
C3089 C3085 1.429 . S
C3089 C3090 1.523 . S
C3090 C3074 1.368 . S
C3090 C3086 1.368 . S
C3090 C3089 1.523 . S
H3091 C3066 0.950 . S
H3092 C3068 0.950 . S
H3093 C3069 0.949 . S
H3094 C3071 0.950 . S
H3095 C3073 0.950 . S
C3096 C3097 1.349 . S
C3096 C3098 1.327 . S
C3096 H3121 0.950 . S
C3097 C3096 1.349 . S
C3097 C3113 1.349 . S
C3098 C3096 1.327 . S
C3098 C3117 1.429 . S
C3098 H3122 0.950 . S
C3099 C3116 1.574 . S
C3099 C3118 1.368 . S
C3099 H3123 0.949 . S
H3100 C3104 0.949 . S
C3101 C3102 1.349 . S
C3101 C3103 1.327 . S
C3101 H3124 0.950 . S
C3102 C3101 1.349 . S
C3102 C3114 1.349 . S
C3103 C3101 1.327 . S
C3103 C3119 1.429 . S
C3103 H3125 0.950 . S
C3104 H3100 0.949 . S
C3104 C3112 1.574 . S
C3104 C3120 1.368 . S
H3105 C3113 0.950 . S
H3106 C3111 0.950 . S
H3107 C3112 0.949 . S
H3108 C3114 0.950 . S
H3109 C3115 0.950 . S
H3110 C3116 0.949 . S
C3111 H3106 0.950 . S
C3111 C3113 1.327 . S
C3111 C3117 1.429 . S
C3112 C3104 1.574 . S
C3112 H3107 0.949 . S
C3112 C3118 1.368 . S
C3113 C3097 1.349 . S
C3113 H3105 0.950 . S
C3113 C3111 1.327 . S
C3114 C3102 1.349 . S
C3114 H3108 0.950 . S
C3114 C3115 1.327 . S
C3115 H3109 0.950 . S
C3115 C3114 1.327 . S
C3115 C3119 1.429 . S
C3116 C3099 1.574 . S
C3116 H3110 0.949 . S
C3116 C3120 1.368 . S
C3117 C3098 1.429 . S
C3117 C3111 1.429 . S
C3117 C3118 1.523 . S
C3118 C3099 1.368 . S
C3118 C3112 1.368 . S
C3118 C3117 1.523 . S
C3119 C3103 1.429 . S
C3119 C3115 1.429 . S
C3119 C3120 1.523 . S
C3120 C3104 1.368 . S
C3120 C3116 1.368 . S
C3120 C3119 1.523 . S
H3121 C3096 0.950 . S
H3122 C3098 0.950 . S
H3123 C3099 0.949 . S
H3124 C3101 0.950 . S
H3125 C3103 0.950 . S
C3126 C3127 1.349 . S
C3126 C3128 1.327 . S
C3126 H3151 0.950 . S
C3127 C3126 1.349 . S
C3127 C3143 1.349 . S
C3128 C3126 1.327 . S
C3128 C3147 1.429 . S
C3128 H3152 0.950 . S
C3129 C3146 1.574 . S
C3129 C3148 1.368 . S
C3129 H3153 0.949 . S
H3130 C3134 0.949 . S
C3131 C3132 1.349 . S
C3131 C3133 1.327 . S
C3131 H3154 0.950 . S
C3132 C3131 1.349 . S
C3132 C3144 1.349 . S
C3133 C3131 1.327 . S
C3133 C3149 1.429 . S
C3133 H3155 0.950 . S
C3134 H3130 0.949 . S
C3134 C3142 1.574 . S
C3134 C3150 1.368 . S
H3135 C3143 0.950 . S
H3136 C3141 0.950 . S
H3137 C3142 0.949 . S
H3138 C3144 0.950 . S
H3139 C3145 0.950 . S
H3140 C3146 0.949 . S
C3141 H3136 0.950 . S
C3141 C3143 1.327 . S
C3141 C3147 1.429 . S
C3142 C3134 1.574 . S
C3142 H3137 0.949 . S
C3142 C3148 1.368 . S
C3143 C3127 1.349 . S
C3143 H3135 0.950 . S
C3143 C3141 1.327 . S
C3144 C3132 1.349 . S
C3144 H3138 0.950 . S
C3144 C3145 1.327 . S
C3145 H3139 0.950 . S
C3145 C3144 1.327 . S
C3145 C3149 1.429 . S
C3146 C3129 1.574 . S
C3146 H3140 0.949 . S
C3146 C3150 1.368 . S
C3147 C3128 1.429 . S
C3147 C3141 1.429 . S
C3147 C3148 1.523 . S
C3148 C3129 1.368 . S
C3148 C3142 1.368 . S
C3148 C3147 1.523 . S
C3149 C3133 1.429 . S
C3149 C3145 1.429 . S
C3149 C3150 1.523 . S
C3150 C3134 1.368 . S
C3150 C3146 1.368 . S
C3150 C3149 1.523 . S
H3151 C3126 0.950 . S
H3152 C3128 0.950 . S
H3153 C3129 0.949 . S
H3154 C3131 0.950 . S
H3155 C3133 0.950 . S
C3156 C3157 1.349 . S
C3156 C3158 1.327 . S
C3156 H3181 0.950 . S
C3157 C3156 1.349 . S
C3157 C3173 1.349 . S
C3158 C3156 1.327 . S
C3158 C3177 1.429 . S
C3158 H3182 0.950 . S
C3159 C3176 1.574 . S
C3159 C3178 1.368 . S
C3159 H3183 0.949 . S
H3160 C3164 0.949 . S
C3161 C3162 1.349 . S
C3161 C3163 1.327 . S
C3161 H3184 0.950 . S
C3162 C3161 1.349 . S
C3162 C3174 1.349 . S
C3163 C3161 1.327 . S
C3163 C3179 1.429 . S
C3163 H3185 0.950 . S
C3164 H3160 0.949 . S
C3164 C3172 1.574 . S
C3164 C3180 1.368 . S
H3165 C3173 0.950 . S
H3166 C3171 0.950 . S
H3167 C3172 0.949 . S
H3168 C3174 0.950 . S
H3169 C3175 0.950 . S
H3170 C3176 0.949 . S
C3171 H3166 0.950 . S
C3171 C3173 1.327 . S
C3171 C3177 1.429 . S
C3172 C3164 1.574 . S
C3172 H3167 0.949 . S
C3172 C3178 1.368 . S
C3173 C3157 1.349 . S
C3173 H3165 0.950 . S
C3173 C3171 1.327 . S
C3174 C3162 1.349 . S
C3174 H3168 0.950 . S
C3174 C3175 1.327 . S
C3175 H3169 0.950 . S
C3175 C3174 1.327 . S
C3175 C3179 1.429 . S
C3176 C3159 1.574 . S
C3176 H3170 0.949 . S
C3176 C3180 1.368 . S
C3177 C3158 1.429 . S
C3177 C3171 1.429 . S
C3177 C3178 1.523 . S
C3178 C3159 1.368 . S
C3178 C3172 1.368 . S
C3178 C3177 1.523 . S
C3179 C3163 1.429 . S
C3179 C3175 1.429 . S
C3179 C3180 1.523 . S
C3180 C3164 1.368 . S
C3180 C3176 1.368 . S
C3180 C3179 1.523 . S
H3181 C3156 0.950 . S
H3182 C3158 0.950 . S
H3183 C3159 0.949 . S
H3184 C3161 0.950 . S
H3185 C3163 0.950 . S
C3186 C3187 1.349 . S
C3186 C3188 1.327 . S
C3186 H3211 0.950 . S
C3187 C3186 1.349 . S
C3187 C3203 1.349 . S
C3188 C3186 1.327 . S
C3188 C3207 1.429 . S
C3188 H3212 0.950 . S
C3189 C3206 1.574 . S
C3189 C3208 1.368 . S
C3189 H3213 0.949 . S
H3190 C3194 0.949 . S
C3191 C3192 1.349 . S
C3191 C3193 1.327 . S
C3191 H3214 0.950 . S
C3192 C3191 1.349 . S
C3192 C3204 1.349 . S
C3193 C3191 1.327 . S
C3193 C3209 1.429 . S
C3193 H3215 0.950 . S
C3194 H3190 0.949 . S
C3194 C3202 1.574 . S
C3194 C3210 1.368 . S
H3195 C3203 0.950 . S
H3196 C3201 0.950 . S
H3197 C3202 0.949 . S
H3198 C3204 0.950 . S
H3199 C3205 0.950 . S
H3200 C3206 0.949 . S
C3201 H3196 0.950 . S
C3201 C3203 1.327 . S
C3201 C3207 1.429 . S
C3202 C3194 1.574 . S
C3202 H3197 0.949 . S
C3202 C3208 1.368 . S
C3203 C3187 1.349 . S
C3203 H3195 0.950 . S
C3203 C3201 1.327 . S
C3204 C3192 1.349 . S
C3204 H3198 0.950 . S
C3204 C3205 1.327 . S
C3205 H3199 0.950 . S
C3205 C3204 1.327 . S
C3205 C3209 1.429 . S
C3206 C3189 1.574 . S
C3206 H3200 0.949 . S
C3206 C3210 1.368 . S
C3207 C3188 1.429 . S
C3207 C3201 1.429 . S
C3207 C3208 1.523 . S
C3208 C3189 1.368 . S
C3208 C3202 1.368 . S
C3208 C3207 1.523 . S
C3209 C3193 1.429 . S
C3209 C3205 1.429 . S
C3209 C3210 1.523 . S
C3210 C3194 1.368 . S
C3210 C3206 1.368 . S
C3210 C3209 1.523 . S
H3211 C3186 0.950 . S
H3212 C3188 0.950 . S
H3213 C3189 0.949 . S
H3214 C3191 0.950 . S
H3215 C3193 0.950 . S
C3216 C3217 1.349 . S
C3216 C3218 1.327 . S
C3216 H3241 0.950 . S
C3217 C3216 1.349 . S
C3217 C3233 1.349 . S
C3218 C3216 1.327 . S
C3218 C3237 1.429 . S
C3218 H3242 0.950 . S
C3219 C3236 1.574 . S
C3219 C3238 1.368 . S
C3219 H3243 0.949 . S
H3220 C3224 0.949 . S
C3221 C3222 1.349 . S
C3221 C3223 1.327 . S
C3221 H3244 0.950 . S
C3222 C3221 1.349 . S
C3222 C3234 1.349 . S
C3223 C3221 1.327 . S
C3223 C3239 1.429 . S
C3223 H3245 0.950 . S
C3224 H3220 0.949 . S
C3224 C3232 1.574 . S
C3224 C3240 1.368 . S
H3225 C3233 0.950 . S
H3226 C3231 0.950 . S
H3227 C3232 0.949 . S
H3228 C3234 0.950 . S
H3229 C3235 0.950 . S
H3230 C3236 0.949 . S
C3231 H3226 0.950 . S
C3231 C3233 1.327 . S
C3231 C3237 1.429 . S
C3232 C3224 1.574 . S
C3232 H3227 0.949 . S
C3232 C3238 1.368 . S
C3233 C3217 1.349 . S
C3233 H3225 0.950 . S
C3233 C3231 1.327 . S
C3234 C3222 1.349 . S
C3234 H3228 0.950 . S
C3234 C3235 1.327 . S
C3235 H3229 0.950 . S
C3235 C3234 1.327 . S
C3235 C3239 1.429 . S
C3236 C3219 1.574 . S
C3236 H3230 0.949 . S
C3236 C3240 1.368 . S
C3237 C3218 1.429 . S
C3237 C3231 1.429 . S
C3237 C3238 1.523 . S
C3238 C3219 1.368 . S
C3238 C3232 1.368 . S
C3238 C3237 1.523 . S
C3239 C3223 1.429 . S
C3239 C3235 1.429 . S
C3239 C3240 1.523 . S
C3240 C3224 1.368 . S
C3240 C3236 1.368 . S
C3240 C3239 1.523 . S
H3241 C3216 0.950 . S
H3242 C3218 0.950 . S
H3243 C3219 0.949 . S
H3244 C3221 0.950 . S
H3245 C3223 0.950 . S
C3246 C3247 1.349 . S
C3246 C3248 1.327 . S
C3246 H3271 0.950 . S
C3247 C3246 1.349 . S
C3247 C3263 1.349 . S
C3248 C3246 1.327 . S
C3248 C3267 1.429 . S
C3248 H3272 0.950 . S
C3249 C3266 1.574 . S
C3249 C3268 1.368 . S
C3249 H3273 0.949 . S
H3250 C3254 0.949 . S
C3251 C3252 1.349 . S
C3251 C3253 1.327 . S
C3251 H3274 0.950 . S
C3252 C3251 1.349 . S
C3252 C3264 1.349 . S
C3253 C3251 1.327 . S
C3253 C3269 1.429 . S
C3253 H3275 0.950 . S
C3254 H3250 0.949 . S
C3254 C3262 1.574 . S
C3254 C3270 1.368 . S
H3255 C3263 0.950 . S
H3256 C3261 0.950 . S
H3257 C3262 0.949 . S
H3258 C3264 0.950 . S
H3259 C3265 0.950 . S
H3260 C3266 0.949 . S
C3261 H3256 0.950 . S
C3261 C3263 1.327 . S
C3261 C3267 1.429 . S
C3262 C3254 1.574 . S
C3262 H3257 0.949 . S
C3262 C3268 1.368 . S
C3263 C3247 1.349 . S
C3263 H3255 0.950 . S
C3263 C3261 1.327 . S
C3264 C3252 1.349 . S
C3264 H3258 0.950 . S
C3264 C3265 1.327 . S
C3265 H3259 0.950 . S
C3265 C3264 1.327 . S
C3265 C3269 1.429 . S
C3266 C3249 1.574 . S
C3266 H3260 0.949 . S
C3266 C3270 1.368 . S
C3267 C3248 1.429 . S
C3267 C3261 1.429 . S
C3267 C3268 1.523 . S
C3268 C3249 1.368 . S
C3268 C3262 1.368 . S
C3268 C3267 1.523 . S
C3269 C3253 1.429 . S
C3269 C3265 1.429 . S
C3269 C3270 1.523 . S
C3270 C3254 1.368 . S
C3270 C3266 1.368 . S
C3270 C3269 1.523 . S
H3271 C3246 0.950 . S
H3272 C3248 0.950 . S
H3273 C3249 0.949 . S
H3274 C3251 0.950 . S
H3275 C3253 0.950 . S
C3276 C3277 1.349 . S
C3276 C3278 1.327 . S
C3276 H3301 0.950 . S
C3277 C3276 1.349 . S
C3277 C3293 1.349 . S
C3278 C3276 1.327 . S
C3278 C3297 1.429 . S
C3278 H3302 0.950 . S
C3279 C3296 1.574 . S
C3279 C3298 1.368 . S
C3279 H3303 0.949 . S
H3280 C3284 0.949 . S
C3281 C3282 1.349 . S
C3281 C3283 1.327 . S
C3281 H3304 0.950 . S
C3282 C3281 1.349 . S
C3282 C3294 1.349 . S
C3283 C3281 1.327 . S
C3283 C3299 1.429 . S
C3283 H3305 0.950 . S
C3284 H3280 0.949 . S
C3284 C3292 1.574 . S
C3284 C3300 1.368 . S
H3285 C3293 0.950 . S
H3286 C3291 0.950 . S
H3287 C3292 0.949 . S
H3288 C3294 0.950 . S
H3289 C3295 0.950 . S
H3290 C3296 0.949 . S
C3291 H3286 0.950 . S
C3291 C3293 1.327 . S
C3291 C3297 1.429 . S
C3292 C3284 1.574 . S
C3292 H3287 0.949 . S
C3292 C3298 1.368 . S
C3293 C3277 1.349 . S
C3293 H3285 0.950 . S
C3293 C3291 1.327 . S
C3294 C3282 1.349 . S
C3294 H3288 0.950 . S
C3294 C3295 1.327 . S
C3295 H3289 0.950 . S
C3295 C3294 1.327 . S
C3295 C3299 1.429 . S
C3296 C3279 1.574 . S
C3296 H3290 0.949 . S
C3296 C3300 1.368 . S
C3297 C3278 1.429 . S
C3297 C3291 1.429 . S
C3297 C3298 1.523 . S
C3298 C3279 1.368 . S
C3298 C3292 1.368 . S
C3298 C3297 1.523 . S
C3299 C3283 1.429 . S
C3299 C3295 1.429 . S
C3299 C3300 1.523 . S
C3300 C3284 1.368 . S
C3300 C3296 1.368 . S
C3300 C3299 1.523 . S
H3301 C3276 0.950 . S
H3302 C3278 0.950 . S
H3303 C3279 0.949 . S
H3304 C3281 0.950 . S
H3305 C3283 0.950 . S
C3306 C3307 1.349 . S
C3306 C3308 1.327 . S
C3306 H3331 0.950 . S
C3307 C3306 1.349 . S
C3307 C3323 1.349 . S
C3308 C3306 1.327 . S
C3308 C3327 1.429 . S
C3308 H3332 0.950 . S
C3309 C3326 1.574 . S
C3309 C3328 1.368 . S
C3309 H3333 0.949 . S
H3310 C3314 0.949 . S
C3311 C3312 1.349 . S
C3311 C3313 1.327 . S
C3311 H3334 0.950 . S
C3312 C3311 1.349 . S
C3312 C3324 1.349 . S
C3313 C3311 1.327 . S
C3313 C3329 1.429 . S
C3313 H3335 0.950 . S
C3314 H3310 0.949 . S
C3314 C3322 1.574 . S
C3314 C3330 1.368 . S
H3315 C3323 0.950 . S
H3316 C3321 0.950 . S
H3317 C3322 0.949 . S
H3318 C3324 0.950 . S
H3319 C3325 0.950 . S
H3320 C3326 0.949 . S
C3321 H3316 0.950 . S
C3321 C3323 1.327 . S
C3321 C3327 1.429 . S
C3322 C3314 1.574 . S
C3322 H3317 0.949 . S
C3322 C3328 1.368 . S
C3323 C3307 1.349 . S
C3323 H3315 0.950 . S
C3323 C3321 1.327 . S
C3324 C3312 1.349 . S
C3324 H3318 0.950 . S
C3324 C3325 1.327 . S
C3325 H3319 0.950 . S
C3325 C3324 1.327 . S
C3325 C3329 1.429 . S
C3326 C3309 1.574 . S
C3326 H3320 0.949 . S
C3326 C3330 1.368 . S
C3327 C3308 1.429 . S
C3327 C3321 1.429 . S
C3327 C3328 1.523 . S
C3328 C3309 1.368 . S
C3328 C3322 1.368 . S
C3328 C3327 1.523 . S
C3329 C3313 1.429 . S
C3329 C3325 1.429 . S
C3329 C3330 1.523 . S
C3330 C3314 1.368 . S
C3330 C3326 1.368 . S
C3330 C3329 1.523 . S
H3331 C3306 0.950 . S
H3332 C3308 0.950 . S
H3333 C3309 0.949 . S
H3334 C3311 0.950 . S
H3335 C3313 0.950 . S
C817 C28 1.088 . S
C822 C187 1.068 . S
C847 C40 1.088 . S
C852 C17 1.068 . S
C877 C96 1.088 . S
C882 C51 1.068 . S
C907 C85 1.068 . S
C912 C108 1.088 . S
C937 C164 1.088 . S
C942 C119 1.068 . S
C967 C176 1.088 . S
C972 C153 1.068 . S
C997 C255 1.068 . S
C1002 C232 1.088 . S
C1027 C289 1.068 . S
C1032 C244 1.088 . S
C1057 C323 1.068 . S
C1062 C278 1.088 . S
C1087 C312 1.088 . S
C1092 C357 1.068 . S
C1117 C391 1.068 . S
C1122 C368 1.088 . S
C1147 C380 1.088 . S
C1152 C221 1.068 . S
C1177 C595 1.068 . S
C1182 C436 1.088 . S
C1207 C425 1.068 . S
C1212 C448 1.088 . S
C1237 C504 1.088 . S
C1242 C459 1.068 . S
C1267 C538 1.088 . S
C1272 C493 1.068 . S
C1297 C550 1.088 . S
C1302 C527 1.068 . S
C1327 C606 1.088 . S
C1332 C561 1.068 . S
C1357 C663 1.068 . S
C1362 C618 1.088 . S
C1387 C697 1.068 . S
C1392 C652 1.088 . S
C1417 C708 1.088 . S
C1422 C731 1.068 . S
C1447 C720 1.088 . S
C1452 C765 1.068 . S
C1477 C776 1.088 . S
C1482 C799 1.068 . S
C1507 C629 1.068 . S
C1512 C788 1.088 . S
C1537 C15 1.757 . S
C1542 C525 1.757 . S
C1567 C56 1.757 . S
C1572 C566 1.757 . S
C1597 C83 1.757 . S
C1602 C593 1.757 . S
C1627 C423 1.757 . S
C1632 C124 1.757 . S
C1657 C151 1.757 . S
C1662 C464 1.757 . S
C1687 C192 1.757 . S
C1692 C491 1.757 . S
C1717 C736 1.756 . S
C1722 C219 1.756 . S
C1747 C763 1.757 . S
C1752 C260 1.757 . S
C1777 C804 1.757 . S
C1782 C294 1.757 . S
C1807 C634 1.756 . S
C1812 C328 1.756 . S
C1837 C355 1.757 . S
C1842 C668 1.757 . S
C1867 C396 1.757 . S
C1872 C695 1.757 . S
C1897 C22 1.534 . S
C1902 C287 1.534 . S
C1927 C49 1.534 . S
C1932 C321 1.534 . S
C1957 C90 1.534 . S
C1962 C362 1.534 . S
C1987 C117 1.534 . S
C1992 C389 1.534 . S
C2017 C158 1.534 . S
C2022 C226 1.534 . S
C2047 C185 1.534 . S
C2052 C253 1.534 . S
C2077 C702 1.534 . S
C2082 C430 1.534 . S
C2107 C457 1.534 . S
C2112 C729 1.534 . S
C2137 C770 1.534 . S
C2142 C498 1.534 . S
C2167 C532 1.534 . S
C2172 C797 1.534 . S
C2197 C559 1.534 . S
C2202 C627 1.534 . S
C2227 C600 1.534 . S
C2232 C661 1.534 . S
C2257 C3 1.735 . S
C2262 C103 1.735 . S
C2287 C139 1.735 . S
C2292 C35 1.735 . S
C2317 C71 1.735 . S
C2322 C171 1.735 . S
C2347 C307 1.735 . S
C2352 C207 1.735 . S
C2377 C343 1.735 . S
C2382 C239 1.735 . S
C2407 C273 1.735 . S
C2412 C375 1.735 . S
C2437 C513 1.735 . S
C2442 C411 1.735 . S
C2467 C545 1.735 . S
C2472 C443 1.735 . S
C2497 C479 1.735 . S
C2502 C581 1.735 . S
C2527 C715 1.735 . S
C2532 C613 1.735 . S
C2557 C647 1.735 . S
C2562 C751 1.735 . S
C2587 C783 1.735 . S
C2592 C683 1.735 . S
C2617 C74 1.423 . S
C2622 C1 1.310 . S
C2647 C37 1.310 . S
C2652 C130 1.423 . S
C2677 C142 1.423 . S
C2682 C69 1.310 . S
C2707 C198 1.423 . S
C2712 C105 1.310 . S
C2737 C137 1.310 . S
C2742 C6 1.423 . S
C2767 C173 1.310 . S
C2772 C62 1.423 . S
C2797 C205 1.310 . S
C2802 C346 1.423 . S
C2827 C402 1.423 . S
C2832 C241 1.310 . S
C2857 C210 1.423 . S
C2862 C275 1.310 . S
C2887 C309 1.310 . S
C2892 C266 1.423 . S
C2917 C341 1.310 . S
C2922 C300 1.423 . S
C2947 C377 1.310 . S
C2952 C334 1.423 . S
C2977 C409 1.310 . S
C2982 C482 1.423 . S
C3007 C445 1.310 . S
C3012 C516 1.423 . S
C3037 C477 1.310 . S
C3042 C572 1.423 . S
C3067 C584 1.423 . S
C3072 C511 1.310 . S
C3097 C547 1.310 . S
C3102 C414 1.423 . S
C3127 C470 1.423 . S
C3132 C579 1.310 . S
C3157 C615 1.310 . S
C3162 C754 1.423 . S
C3187 C810 1.423 . S
C3192 C649 1.310 . S
C3217 C681 1.310 . S
C3222 C640 1.423 . S
C3247 C674 1.423 . S
C3252 C717 1.310 . S
C3277 C686 1.423 . S
C3282 C749 1.310 . S
C3307 C785 1.310 . S
C3312 C742 1.423 . S
