# Generated by pormake.
# Topology crs, (6)-cn, num edge types: 1
# Building blocks:
#     Node 0, Type 0, BuildingBlock: CUKXOW_clean_sbu_0, # of connection points: 6
#     Node 1, Type 0, BuildingBlock: CUKXOW_clean_sbu_0, # of connection points: 6
#     Node 2, Type 0, BuildingBlock: CUKXOW_clean_sbu_0, # of connection points: 6
#     Node 3, Type 0, BuildingBlock: CUKXOW_clean_sbu_0, # of connection points: 6
#     Node 4, Type 0, BuildingBlock: CUKXOW_clean_sbu_0, # of connection points: 6
#     Node 5, Type 0, BuildingBlock: CUKXOW_clean_sbu_0, # of connection points: 6
#     Node 6, Type 0, BuildingBlock: CUKXOW_clean_sbu_0, # of connection points: 6
#     Node 7, Type 0, BuildingBlock: CUKXOW_clean_sbu_0, # of connection points: 6
#     Node 8, Type 0, BuildingBlock: CUKXOW_clean_sbu_0, # of connection points: 6
#     Node 9, Type 0, BuildingBlock: CUKXOW_clean_sbu_0, # of connection points: 6
#     Node 10, Type 0, BuildingBlock: CUKXOW_clean_sbu_0, # of connection points: 6
#     Node 11, Type 0, BuildingBlock: CUKXOW_clean_sbu_0, # of connection points: 6
#     Node 12, Type 0, BuildingBlock: CUKXOW_clean_sbu_0, # of connection points: 6
#     Node 13, Type 0, BuildingBlock: CUKXOW_clean_sbu_0, # of connection points: 6
#     Node 14, Type 0, BuildingBlock: CUKXOW_clean_sbu_0, # of connection points: 6
#     Node 15, Type 0, BuildingBlock: CUKXOW_clean_sbu_0, # of connection points: 6
#     Edge 16, Type (0, 0), BuildingBlock: CIFDUS_clean_linker_0, # of connection points: 2
#     Edge 17, Type (0, 0), BuildingBlock: CIFDUS_clean_linker_0, # of connection points: 2
#     Edge 18, Type (0, 0), BuildingBlock: CIFDUS_clean_linker_0, # of connection points: 2
#     Edge 19, Type (0, 0), BuildingBlock: CIFDUS_clean_linker_0, # of connection points: 2
#     Edge 20, Type (0, 0), BuildingBlock: CIFDUS_clean_linker_0, # of connection points: 2
#     Edge 21, Type (0, 0), BuildingBlock: CIFDUS_clean_linker_0, # of connection points: 2
#     Edge 22, Type (0, 0), BuildingBlock: CIFDUS_clean_linker_0, # of connection points: 2
#     Edge 23, Type (0, 0), BuildingBlock: CIFDUS_clean_linker_0, # of connection points: 2
#     Edge 24, Type (0, 0), BuildingBlock: CIFDUS_clean_linker_0, # of connection points: 2
#     Edge 25, Type (0, 0), BuildingBlock: CIFDUS_clean_linker_0, # of connection points: 2
#     Edge 26, Type (0, 0), BuildingBlock: CIFDUS_clean_linker_0, # of connection points: 2
#     Edge 27, Type (0, 0), BuildingBlock: CIFDUS_clean_linker_0, # of connection points: 2
#     Edge 28, Type (0, 0), BuildingBlock: CIFDUS_clean_linker_0, # of connection points: 2
#     Edge 29, Type (0, 0), BuildingBlock: CIFDUS_clean_linker_0, # of connection points: 2
#     Edge 30, Type (0, 0), BuildingBlock: CIFDUS_clean_linker_0, # of connection points: 2
#     Edge 31, Type (0, 0), BuildingBlock: CIFDUS_clean_linker_0, # of connection points: 2
#     Edge 32, Type (0, 0), BuildingBlock: CIFDUS_clean_linker_0, # of connection points: 2
#     Edge 33, Type (0, 0), BuildingBlock: CIFDUS_clean_linker_0, # of connection points: 2
#     Edge 34, Type (0, 0), BuildingBlock: CIFDUS_clean_linker_0, # of connection points: 2
#     Edge 35, Type (0, 0), BuildingBlock: CIFDUS_clean_linker_0, # of connection points: 2
#     Edge 36, Type (0, 0), BuildingBlock: CIFDUS_clean_linker_0, # of connection points: 2
#     Edge 37, Type (0, 0), BuildingBlock: CIFDUS_clean_linker_0, # of connection points: 2
#     Edge 38, Type (0, 0), BuildingBlock: CIFDUS_clean_linker_0, # of connection points: 2
#     Edge 39, Type (0, 0), BuildingBlock: CIFDUS_clean_linker_0, # of connection points: 2
#     Edge 40, Type (0, 0), BuildingBlock: CIFDUS_clean_linker_0, # of connection points: 2
#     Edge 41, Type (0, 0), BuildingBlock: CIFDUS_clean_linker_0, # of connection points: 2
#     Edge 42, Type (0, 0), BuildingBlock: CIFDUS_clean_linker_0, # of connection points: 2
#     Edge 43, Type (0, 0), BuildingBlock: CIFDUS_clean_linker_0, # of connection points: 2
#     Edge 44, Type (0, 0), BuildingBlock: CIFDUS_clean_linker_0, # of connection points: 2
#     Edge 45, Type (0, 0), BuildingBlock: CIFDUS_clean_linker_0, # of connection points: 2
#     Edge 46, Type (0, 0), BuildingBlock: CIFDUS_clean_linker_0, # of connection points: 2
#     Edge 47, Type (0, 0), BuildingBlock: CIFDUS_clean_linker_0, # of connection points: 2
#     Edge 48, Type (0, 0), BuildingBlock: CIFDUS_clean_linker_0, # of connection points: 2
#     Edge 49, Type (0, 0), BuildingBlock: CIFDUS_clean_linker_0, # of connection points: 2
#     Edge 50, Type (0, 0), BuildingBlock: CIFDUS_clean_linker_0, # of connection points: 2
#     Edge 51, Type (0, 0), BuildingBlock: CIFDUS_clean_linker_0, # of connection points: 2
#     Edge 52, Type (0, 0), BuildingBlock: CIFDUS_clean_linker_0, # of connection points: 2
#     Edge 53, Type (0, 0), BuildingBlock: CIFDUS_clean_linker_0, # of connection points: 2
#     Edge 54, Type (0, 0), BuildingBlock: CIFDUS_clean_linker_0, # of connection points: 2
#     Edge 55, Type (0, 0), BuildingBlock: CIFDUS_clean_linker_0, # of connection points: 2
#     Edge 56, Type (0, 0), BuildingBlock: CIFDUS_clean_linker_0, # of connection points: 2
#     Edge 57, Type (0, 0), BuildingBlock: CIFDUS_clean_linker_0, # of connection points: 2
#     Edge 58, Type (0, 0), BuildingBlock: CIFDUS_clean_linker_0, # of connection points: 2
#     Edge 59, Type (0, 0), BuildingBlock: CIFDUS_clean_linker_0, # of connection points: 2
#     Edge 60, Type (0, 0), BuildingBlock: CIFDUS_clean_linker_0, # of connection points: 2
#     Edge 61, Type (0, 0), BuildingBlock: CIFDUS_clean_linker_0, # of connection points: 2
#     Edge 62, Type (0, 0), BuildingBlock: CIFDUS_clean_linker_0, # of connection points: 2
#     Edge 63, Type (0, 0), BuildingBlock: CIFDUS_clean_linker_0, # of connection points: 2
# Relax obj value: 0.158
# Max RMSD: 0.225
# Mean RMSD: 0.191
data_MOF--net-crs--node1-CUKXOW_clean_sbu_0--edge1-CIFDUS_clean_linker_0
_symmetry_space_group_name_H-M    P1
_symmetry_Int_Tables_number       1
_symmetry_cell_setting            triclinic
loop_
_symmetry_equiv_pos_as_xyz
'x, y, z'
_cell_length_a     32.931921
_cell_length_b     39.147975
_cell_length_c     42.866609
_cell_angle_alpha  96.754278
_cell_angle_beta   95.486631
_cell_angle_gamma 94.337524
loop_
_atom_site_label
_atom_site_type_symbol
_atom_site_fract_x
_atom_site_fract_y
_atom_site_fract_z
_atom_type_partial_charge
Tb0 Tb 0.02258 0.98882 0.97369 0.0
C1 C 0.06006 0.01133 0.04365 0.0
Tb2 Tb 0.98517 0.04348 0.01254 0.0
O3 O 0.04456 0.02603 0.94363 0.0
O4 O 0.04053 0.04165 0.99124 0.0
O5 O 0.05351 0.98545 0.02041 0.0
C6 C 0.95426 0.09734 0.04331 0.0
O7 O 0.04037 0.0396 0.04348 0.0
C8 C 0.96105 0.97985 0.02079 0.0
C9 C 0.95253 0.02409 0.94055 0.0
O10 O 0.99051 0.09764 0.03375 0.0
O11 O 0.9353 0.06703 0.03467 0.0
O12 O 0.96664 0.00559 0.04307 0.0
O13 O 0.96716 0.99066 -0.00506 0.0
O14 O 0.9563 0.04848 0.96518 0.0
O15 O 0.97121 0.99544 0.94075 0.0
C16 C 0.04744 0.9315 0.94413 0.0
O17 O 0.01243 0.93399 0.95534 0.0
O18 O 0.06883 0.96111 0.95051 0.0
C19 C 0.04829 0.05213 0.96559 0.0
Tb20 Tb 0.96827 0.24266 0.26208 0.0
C21 C 0.04347 0.21046 0.23571 0.0
Tb22 Tb 0.01764 0.2832 0.21728 0.0
O23 O 0.94538 0.20112 0.2242 0.0
O24 O 0.96302 0.25054 0.21399 0.0
O25 O 0.0196 0.21167 0.25895 0.0
C26 C 0.05764 0.30501 0.17105 0.0
O27 O 0.04391 0.23331 0.21507 0.0
C28 C 0.03221 0.30594 0.2773 0.0
C29 C 0.93987 0.3136 0.24199 0.0
O30 O 0.07432 0.29774 0.19784 0.0
O31 O 0.01806 0.29997 0.17011 0.0
O32 O 0.03891 0.32492 0.25517 0.0
O33 O 0.02304 0.27514 0.26526 0.0
O34 O 0.96441 0.31283 0.21907 0.0
O35 O 0.94027 0.29134 0.26309 0.0
C36 C 0.9358 0.22388 0.3128 0.0
O37 O 0.91545 0.22656 0.28583 0.0
O38 O 0.97448 0.23149 0.31108 0.0
C39 C 0.95271 0.21985 0.20188 0.0
Tb40 Tb 0.73539 0.29347 0.47613 0.0
C41 C 0.71112 0.29905 0.54567 0.0
Tb42 Tb 0.78373 0.25398 0.52417 0.0
O43 O 0.70418 0.24429 0.45152 0.0
O44 O 0.72543 0.24967 0.49914 0.0
O45 O 0.70503 0.30953 0.51736 0.0
C46 C 0.8027 0.20991 0.5648 0.0
O47 O 0.73922 0.27764 0.55317 0.0
C48 C 0.82138 0.31114 0.51111 0.0
C49 C 0.80013 0.24462 0.45272 0.0
O50 O 0.81156 0.24319 0.56995 0.0
O51 O 0.78365 0.20152 0.53667 0.0
O52 O 0.84055 0.28546 0.51992 0.0
O53 O 0.78372 0.30488 0.51298 0.0
O54 O 0.80097 0.22996 0.47916 0.0
O55 O 0.7815 0.27276 0.44855 0.0
C56 C 0.71673 0.3465 0.44603 0.0
O57 O 0.75278 0.34151 0.4586 0.0
O58 O 0.69052 0.32097 0.44963 0.0
C59 C 0.7101 0.22818 0.47633 0.0
Tb60 Tb 0.77388 0.03587 0.7316 0.0
C61 C 0.81424 0.97232 0.75503 0.0
Tb62 Tb 0.73758 0.00301 0.78541 0.0
O63 O 0.82956 0.05303 0.76262 0.0
O64 O 0.77308 0.04888 0.78083 0.0
O65 O 0.80932 0.99056 0.73075 0.0
C66 C 0.72624 0.97883 0.83974 0.0
O67 O 0.79162 0.97525 0.7791 0.0
C68 C 0.70053 0.98175 0.72896 0.0
C69 C 0.69675 0.06514 0.76273 0.0
O70 O 0.70326 0.97013 0.81332 0.0
O71 O 0.75573 1.00113 0.83559 0.0
O72 O 0.68252 0.98233 0.75462 0.0
O73 O 0.73835 0.98974 0.73599 0.0
O74 O 0.70448 0.04855 0.78751 0.0
O75 O 0.71684 0.06069 0.73722 0.0
C76 C 0.78875 0.06782 0.68154 0.0
O77 O 0.80029 0.0796 0.71076 0.0
O78 O 0.76903 0.03764 0.68029 0.0
C79 C 0.81107 0.05531 0.78809 0.0
Tb80 Tb 0.49695 0.7604 0.27826 0.0
C81 C 0.58569 0.74477 0.27151 0.0
Tb82 Tb 0.53853 0.79842 0.2348 0.0
O83 O 0.50239 0.71097 0.25121 0.0
O84 O 0.49563 0.75408 0.22763 0.0
O85 O 0.5573 0.74504 0.29134 0.0
C86 C 0.57891 0.82005 0.18907 0.0
O87 O 0.58219 0.76101 0.24605 0.0
C88 C 0.53176 0.83685 0.28813 0.0
C89 C 0.44893 0.81245 0.24157 0.0
O90 O 0.59357 0.82187 0.21841 0.0
O91 O 0.54186 0.80552 0.18537 0.0
O92 O 0.53217 0.84829 0.26107 0.0
O93 O 0.53904 0.80538 0.28529 0.0
O94 O 0.47728 0.81235 0.22177 0.0
O95 O 0.45331 0.79741 0.26752 0.0
C96 C 0.44848 0.73835 0.31912 0.0
O97 O 0.43969 0.73539 0.28886 0.0
O98 O 0.48504 0.75375 0.3267 0.0
C99 C 0.50204 0.72242 0.22408 0.0
Tb100 Tb 0.24125 0.79281 0.47995 0.0
C101 C 0.20767 0.78989 0.5456 0.0
Tb102 Tb 0.28419 0.75085 0.52588 0.0
O103 O 0.21885 0.74676 0.44736 0.0
O104 O 0.22808 0.74413 0.49587 0.0
O105 O 0.20343 0.80276 0.51831 0.0
C106 C 0.30747 0.70892 0.5672 0.0
O107 O 0.23593 0.76886 0.55291 0.0
C108 C 0.32202 0.81095 0.52047 0.0
C109 C 0.31306 0.74949 0.45975 0.0
O110 O 0.31146 0.74237 0.57234 0.0
O111 O 0.28971 0.69894 0.53886 0.0
O112 O 0.34092 0.7841 0.526 0.0
O113 O 0.28418 0.80373 0.5202 0.0
O114 O 0.30879 0.73107 0.48325 0.0
O115 O 0.29393 0.7776 0.45638 0.0
C116 C 0.22387 0.84688 0.45095 0.0
O117 O 0.19826 0.82006 0.45176 0.0
O118 O 0.2587 0.84293 0.46624 0.0
C119 C 0.21889 0.72635 0.4692 0.0
Tb120 Tb 0.28494 0.54242 0.73206 0.0
C121 C 0.29644 0.46212 0.72915 0.0
Tb122 Tb 0.23054 0.49779 0.76774 0.0
O123 O 0.32232 0.56517 0.77599 0.0
O124 O 0.29299 0.51581 0.77178 0.0
O125 O 0.30431 0.49132 0.71697 0.0
C126 C 0.20554 0.47409 0.81893 0.0
O127 O 0.27188 0.45986 0.75187 0.0
C128 C 0.20379 0.49964 0.70846 0.0
C129 C 0.21563 0.57751 0.76716 0.0
O130 O 0.19247 0.46126 0.78997 0.0
O131 O 0.2319 0.50034 0.81876 0.0
O132 O 0.19389 0.47393 0.72384 0.0
O133 O 0.22284 0.52361 0.72767 0.0
O134 O 0.20747 0.54864 0.7799 0.0
O135 O 0.24188 0.57947 0.74564 0.0
C136 C 0.31422 0.56906 0.68368 0.0
O137 O 0.32322 0.58148 0.71322 0.0
O138 O 0.28935 0.54143 0.6816 0.0
C139 C 0.31269 0.5393 0.79111 0.0
Tb140 Tb 0.0434 0.48859 0.46793 0.0
C141 C 0.07776 0.50068 0.54012 0.0
Tb142 Tb 0.00668 0.54256 0.51154 0.0
O143 O 0.07207 0.52975 0.44393 0.0
O144 O 0.06161 0.53895 0.4907 0.0
O145 O 0.07503 0.47932 0.51324 0.0
C146 C 0.99471 0.5946 0.55413 0.0
O147 O 0.05681 0.52841 0.54342 0.0
C148 C 0.96359 0.48214 0.49865 0.0
C149 C 0.97367 0.5307 0.44036 0.0
O150 O 0.9904 0.56212 0.55761 0.0
O151 O 0.00495 0.59812 0.52607 0.0
O152 O 0.94751 0.51106 0.50519 0.0
O153 O 0.00183 0.4881 0.50237 0.0
O154 O 0.98294 0.55458 0.46517 0.0
O155 O 0.98908 0.50029 0.43875 0.0
C156 C 0.06128 0.43103 0.43465 0.0
O157 O 0.08765 0.4569 0.44618 0.0
O158 O 0.0252 0.43762 0.44215 0.0
C159 C 0.07353 0.55323 0.46817 0.0
Tb160 Tb 0.22644 0.28943 0.97112 0.0
C161 C 0.213 0.2982 0.04398 0.0
Tb162 Tb 0.27279 0.24766 0.01475 0.0
O163 O 0.18785 0.24324 0.94937 0.0
O164 O 0.21099 0.24807 -0.00328 0.0
O165 O 0.20758 0.31107 0.01667 0.0
C166 C 0.29162 0.19197 0.04125 0.0
O167 O 0.23359 0.27087 0.04747 0.0
C168 C 0.3092 0.30916 0.01214 0.0
C169 C 0.28861 0.24013 0.94258 0.0
O170 O 0.30701 0.22336 0.0512 0.0
O171 O 0.26631 0.19207 0.01622 0.0
O172 O 0.31427 0.29212 0.03633 0.0
O173 O 0.28852 0.28965 0.9897 0.0
O174 O 0.29369 0.22751 0.96993 0.0
O175 O 0.26699 0.26687 0.93857 0.0
C176 C 0.19746 0.3384 0.93919 0.0
O177 O 0.18282 0.30639 0.93577 0.0
O178 O 0.22842 0.34299 0.96084 0.0
C179 C 0.19144 0.22773 0.97448 0.0
Tb180 Tb 0.26267 0.0286 0.21532 0.0
C181 C 0.29586 0.95792 0.22638 0.0
Tb182 Tb 0.21794 0.985 0.25812 0.0
O183 O 0.31456 0.03979 0.25131 0.0
O184 O 0.25529 0.03215 0.26443 0.0
O185 O 0.29625 0.98321 0.20829 0.0
C186 C 0.20161 0.95239 0.30703 0.0
O187 O 0.26971 0.95503 0.24795 0.0
C188 C 0.1869 0.97535 0.19947 0.0
C189 C 0.18319 0.05381 0.24367 0.0
O190 O 0.23661 0.96793 0.30337 0.0
O191 O 0.17561 0.95453 0.28281 0.0
O192 O 0.16619 0.9683 0.22251 0.0
O193 O 0.22413 0.98232 0.20946 0.0
O194 O 0.18712 0.03216 0.26518 0.0
O195 O 0.20656 0.05387 0.22016 0.0
C196 C 0.28733 0.06767 0.1727 0.0
O197 O 0.29449 0.07517 0.20302 0.0
O198 O 0.26592 0.038 0.16609 0.0
C199 C 0.29269 0.03714 0.27465 0.0
Tb200 Tb 0.45462 0.23125 0.74969 0.0
C201 C 0.54136 0.20923 0.74162 0.0
Tb202 Tb 0.5076 0.27456 0.71474 0.0
O203 O 0.45378 0.18512 0.71625 0.0
O204 O 0.46007 0.23382 0.70048 0.0
O205 O 0.51165 0.20825 0.76038 0.0
C206 C 0.56416 0.29811 0.68028 0.0
O207 O 0.54201 0.23006 0.71953 0.0
C208 C 0.50102 0.30225 0.77297 0.0
C209 C 0.42055 0.29594 0.72013 0.0
O210 O 0.56998 0.29418 0.70985 0.0
O211 O 0.52601 0.28912 0.66988 0.0
O212 O 0.50826 0.31978 0.74998 0.0
O213 O 0.50274 0.27061 0.76359 0.0
O214 O 0.45138 0.29753 0.70253 0.0
O215 O 0.41883 0.27482 0.74205 0.0
C216 C 0.40376 0.21115 0.79013 0.0
O217 O 0.39378 0.213 0.76044 0.0
O218 O 0.44268 0.21987 0.79689 0.0
C219 C 0.46148 0.20159 0.69261 0.0
Tb220 Tb 0.9602 0.74224 0.76831 0.0
C221 C 0.04114 0.70585 0.76479 0.0
Tb222 Tb 0.02453 0.77132 0.73005 0.0
O223 O 0.94756 0.69488 0.73638 0.0
O224 O 0.9684 0.74023 0.71966 0.0
O225 O 0.01015 0.71152 0.78189 0.0
C226 C 0.07719 0.78333 0.68892 0.0
O227 O 0.04858 0.72322 0.74085 0.0
C228 C 0.02582 0.80314 0.78732 0.0
C229 C 0.94824 0.81158 0.73803 0.0
O230 O 0.0866 0.78356 0.71898 0.0
O231 O 0.03812 0.77578 0.68178 0.0
O232 O 0.03922 0.81777 0.76421 0.0
O233 O 0.01718 0.77146 0.77859 0.0
O234 O 0.97639 0.8042 0.71882 0.0
O235 O 0.94105 0.79346 0.76155 0.0
C236 C 0.90287 0.72886 0.8053 0.0
O237 O 0.89616 0.73687 0.77692 0.0
O238 O 0.94194 0.72912 0.81324 0.0
C239 C 0.96109 0.708 0.71266 0.0
Tb240 Tb 0.77854 0.54442 0.2318 0.0
C241 C 0.7936 0.4663 0.23666 0.0
Tb242 Tb 0.72372 0.50017 0.27119 0.0
O243 O 0.83234 0.55731 0.26755 0.0
O244 O 0.78196 0.52657 0.27553 0.0
O245 O 0.79646 0.49237 0.21955 0.0
C246 C 0.69223 0.47197 0.31815 0.0
O247 O 0.77057 0.46588 0.26043 0.0
C248 C 0.69891 0.49925 0.21069 0.0
C249 C 0.71277 0.58074 0.27107 0.0
O250 O 0.67813 0.46541 0.28854 0.0
O251 O 0.72352 0.49476 0.32117 0.0
O252 O 0.69044 0.47381 0.22664 0.0
O253 O 0.71693 0.52401 0.22955 0.0
O254 O 0.7032 0.55167 0.28327 0.0
O255 O 0.7391 0.58297 0.24947 0.0
C256 C 0.80054 0.56742 0.17987 0.0
O257 O 0.80864 0.58409 0.20818 0.0
O258 O 0.78009 0.53801 0.1809 0.0
C259 C 0.81679 0.53932 0.28794 0.0
Tb260 Tb 0.73111 0.78835 0.98581 0.0
C261 C 0.72724 0.79852 0.05982 0.0
Tb262 Tb 0.78021 0.74591 0.02627 0.0
O263 O 0.68866 0.74433 0.96578 0.0
O264 O 0.71675 0.74684 0.01209 0.0
O265 O 0.71933 0.8111 0.03272 0.0
C266 C 0.81154 0.69613 0.05555 0.0
O267 O 0.74632 0.77024 0.06211 0.0
C268 C 0.81669 0.80629 0.01974 0.0
C269 C 0.78327 0.73409 0.95266 0.0
O270 O 0.82784 0.72754 0.05745 0.0
O271 O 0.7775 0.69273 0.03714 0.0
O272 O 0.82238 0.79114 0.04489 0.0
O273 O 0.79416 0.78622 -0.00107 0.0
O274 O 0.79006 0.7213 0.97973 0.0
O275 O 0.76522 0.76299 0.95043 0.0
C276 C 0.7072 0.84195 0.95815 0.0
O277 O 0.68761 0.81147 0.95444 0.0
O278 O 0.73989 0.84217 0.97754 0.0
C279 C 0.69451 0.72771 0.9901 0.0
Tb280 Tb 0.54721 0.00512 0.51603 0.0
C281 C 0.53105 0.96858 0.44577 0.0
Tb282 Tb 0.4909 0.03444 0.47317 0.0
O283 O 0.49559 0.98952 0.54111 0.0
O284 O 0.48766 0.98767 0.49313 0.0
O285 O 0.55753 0.97405 0.47165 0.0
C286 C 0.43306 0.05941 0.43619 0.0
O287 O 0.49889 0.98693 0.44292 0.0
C288 C 0.56813 0.05449 0.46901 0.0
C289 C 0.5054 0.06843 0.54475 0.0
O290 O 0.42765 0.03238 0.4507 0.0
O291 O 0.4704 0.07262 0.44356 0.0
O292 O 0.54039 0.04612 0.44536 0.0
O293 O 0.55189 0.05132 0.49425 0.0
O294 O 0.47969 0.06398 0.51844 0.0
O295 O 0.53795 0.05078 0.5474 0.0
C296 C 0.60542 0.98043 0.55304 0.0
O297 O 0.56742 0.9686 0.54751 0.0
O298 O 0.6113 0.00597 0.53674 0.0
C299 C 0.46941 0.98093 0.51644 0.0
Tb300 Tb 0.52183 0.48515 0.97482 0.0
C301 C 0.56609 0.49711 0.04469 0.0
Tb302 Tb 0.49775 0.54261 0.02173 0.0
O303 O 0.54739 0.52441 0.94791 0.0
O304 O 0.549 0.53454 -0.00335 0.0
O305 O 0.55392 0.47361 0.01972 0.0
C306 C 0.48821 0.60052 0.05988 0.0
O307 O 0.55286 0.52838 0.04716 0.0
C308 C 0.46251 0.4804 0.02484 0.0
C309 C 0.45297 0.5311 0.95197 0.0
O310 O 0.46889 0.57042 0.05988 0.0
O311 O 0.5121 0.59838 0.03744 0.0
O312 O 0.47165 0.50401 0.04885 0.0
O313 O 0.4704 0.49302 0.00015 0.0
O314 O 0.46274 0.55335 0.97808 0.0
O315 O 0.46853 0.5008 0.94781 0.0
C316 C 0.53403 0.42901 0.935 0.0
O317 O 0.50183 0.43298 0.94992 0.0
O318 O 0.55983 0.45592 0.94385 0.0
C319 C 0.55684 0.54755 0.97223 0.0
H320 H 0.99421 0.15918 0.06777 0.0
H321 H 0.88684 0.09135 0.07465 0.0
H322 H 0.87479 0.12547 0.12379 0.0
H323 H 0.90037 0.16975 0.16839 0.0
H324 H 0.00721 0.23749 0.16125 0.0
H325 H 0.01384 0.20875 0.10872 0.0
C326 C 0.96762 0.15245 0.07965 0.0
C327 C 0.94178 0.12263 0.06796 0.0
C328 C 0.96111 0.17197 0.10807 0.0
C329 C 0.90729 0.11417 0.08336 0.0
C330 C 0.90053 0.1335 0.11158 0.0
C331 C 0.9246 0.17852 0.15499 0.0
C332 C 0.95325 0.20581 0.16855 0.0
C333 C 0.92814 0.16164 0.12475 0.0
C334 C 0.98439 0.21713 0.15108 0.0
C335 C 0.98842 0.20036 0.12111 0.0
H336 H 0.88045 0.23541 0.44951 0.0
H337 H 0.76212 0.22147 0.39519 0.0
H338 H 0.79404 0.2088 0.34645 0.0
H339 H 0.85568 0.21025 0.31889 0.0
H340 H 0.97462 0.22809 0.37237 0.0
H341 H 0.94276 0.23033 0.4218 0.0
C342 C 0.86186 0.22847 0.42704 0.0
C343 C 0.8192 0.22905 0.42564 0.0
C344 C 0.88059 0.22254 0.39898 0.0
C345 C 0.79509 0.22088 0.39654 0.0
C346 C 0.81331 0.2139 0.36873 0.0
C347 C 0.8746 0.21395 0.34138 0.0
C348 C 0.91727 0.2193 0.34212 0.0
C349 C 0.85606 0.21598 0.36956 0.0
C350 C 0.94159 0.22399 0.37132 0.0
C351 C 0.9234 0.22541 0.39956 0.0
H352 H 0.82783 0.13112 0.6837 0.0
H353 H 0.75818 0.04952 0.61986 0.0
H354 H 0.75902 0.08574 0.57701 0.0
H355 H 0.77538 0.14224 0.55901 0.0
H356 H 0.84304 0.22424 0.62374 0.0
H357 H 0.84748 0.18617 0.66501 0.0
C358 C 0.81326 0.12115 0.66029 0.0
C359 C 0.79288 0.08783 0.65484 0.0
C360 C 0.81338 0.14225 0.63606 0.0
C361 C 0.7741 0.07512 0.6245 0.0
C362 C 0.77446 0.09585 0.60008 0.0
C363 C 0.79153 0.15156 0.58205 0.0
C364 C 0.8088 0.18593 0.58848 0.0
C365 C 0.79339 0.12968 0.60576 0.0
C366 C 0.82948 0.19786 0.61836 0.0
C367 C 0.83195 0.17615 0.64194 0.0
H368 H 0.88142 0.05499 0.93037 0.0
H369 H 0.97552 0.00551 0.88317 0.0
H370 H 0.94066 0.01227 0.83198 0.0
H371 H 0.88331 0.03077 0.80053 0.0
H372 H 0.78569 0.07679 0.84558 0.0
H373 H 0.82185 0.07293 0.89783 0.0
C374 C 0.89418 0.04598 0.9088 0.0
C375 C 0.93079 0.02977 0.91037 0.0
C376 C 0.87341 0.04926 0.8792 0.0
C377 C 0.94709 0.0178 0.88241 0.0
C378 C 0.92732 0.02173 0.85316 0.0
C379 C 0.87015 0.04027 0.82181 0.0
C380 C 0.8323 0.05426 0.81954 0.0
C381 C 0.89046 0.03722 0.85129 0.0
C382 C 0.81504 0.06598 0.84708 0.0
C383 C 0.83564 0.06375 0.87681 0.0
H384 H 0.07576 0.9544 0.07083 0.0
H385 H 0.112 0.06327 0.07605 0.0
H386 H 0.1602 0.06032 0.12257 0.0
H387 H 0.18678 0.02788 0.16425 0.0
H388 H 0.14417 0.92104 0.16321 0.0
H389 H 0.10392 0.92161 0.11214 0.0
C390 C 0.09465 0.97729 0.08202 0.0
C391 C 0.09055 0.00897 0.07035 0.0
C392 C 0.12101 0.97564 0.10934 0.0
C393 C 0.1146 0.03868 0.08502 0.0
C394 C 0.14215 0.03699 0.11147 0.0
C395 C 0.16958 0.00459 0.15244 0.0
C396 C 0.16882 0.97432 0.16687 0.0
C397 C 0.14498 0.00575 0.12417 0.0
C398 C 0.14535 0.94446 0.15201 0.0
C399 C 0.12224 0.94487 0.12304 0.0
H400 H 0.01026 0.37447 0.41283 0.0
H401 H 0.12763 0.42573 0.40172 0.0
H402 H 0.13113 0.38769 0.35271 0.0
H403 H 0.09543 0.34645 0.30914 0.0
H404 H 0.97752 0.29639 0.3199 0.0
H405 H 0.97959 0.32686 0.37311 0.0
C406 C 0.03704 0.37666 0.40004 0.0
C407 C 0.06835 0.40304 0.41038 0.0
C408 C 0.03846 0.35514 0.37173 0.0
C409 C 0.10312 0.4056 0.39399 0.0
C410 C 0.10496 0.38407 0.36588 0.0
C411 C 0.07073 0.34172 0.32356 0.0
C412 C 0.03655 0.31907 0.31098 0.0
C413 C 0.072 0.3598 0.3539 0.0
C414 C 0.00456 0.31299 0.3295 0.0
C415 C 0.00554 0.33081 0.35977 0.0
H416 H 0.72156 0.29971 0.60931 0.0
H417 H 0.63379 0.31732 0.5327 0.0
H418 H 0.58061 0.32157 0.56842 0.0
H419 H 0.55722 0.31353 0.62011 0.0
H420 H 0.6454 0.29769 0.69698 0.0
H421 H 0.70022 0.29977 0.6626 0.0
C422 C 0.69095 0.30501 0.60058 0.0
C423 C 0.68151 0.30773 0.56841 0.0
C424 C 0.66047 0.30745 0.62122 0.0
C425 C 0.64188 0.31509 0.55743 0.0
C426 C 0.61132 0.31731 0.57778 0.0
C427 C 0.58857 0.31113 0.62935 0.0
C428 C 0.59734 0.30503 0.66074 0.0
C429 C 0.61998 0.31251 0.6095 0.0
C430 C 0.63801 0.30229 0.67274 0.0
C431 C 0.66934 0.30333 0.6531 0.0
H432 H 0.66718 0.93086 0.84925 0.0
H433 H 0.77849 0.98881 0.89374 0.0
H434 H 0.77909 0.95385 0.93747 0.0
H435 H 0.75274 0.90227 0.95909 0.0
H436 H 0.6433 0.84263 0.91313 0.0
H437 H 0.63663 0.8832 0.87408 0.0
C438 C 0.69114 0.93616 0.86882 0.0
C439 C 0.72299 0.96192 0.86828 0.0
C440 C 0.69167 0.91559 0.89342 0.0
C441 C 0.75378 0.96888 0.89372 0.0
C442 C 0.7542 0.94886 0.91861 0.0
C443 C 0.72698 0.8986 0.94088 0.0
C444 C 0.69875 0.86948 0.93863 0.0
C445 C 0.72401 0.92147 0.91815 0.0
C446 C 0.66546 0.86488 0.9151 0.0
C447 C 0.66177 0.88794 0.89274 0.0
H448 H 0.13318 0.31111 0.04252 0.0
H449 H 0.24387 0.31161 0.10502 0.0
H450 H 0.20522 0.31875 0.15087 0.0
H451 H 0.13931 0.31601 0.17245 0.0
H452 H 0.02743 0.31071 0.11038 0.0
H453 H 0.06691 0.31456 0.06504 0.0
C454 C 0.1488 0.31393 0.06626 0.0
C455 C 0.19115 0.31103 0.07064 0.0
C456 C 0.12605 0.31647 0.09246 0.0
C457 C 0.21122 0.31392 0.10133 0.0
C458 C 0.18913 0.31775 0.12746 0.0
C459 C 0.1236 0.31629 0.14906 0.0
C460 C 0.08067 0.31274 0.14457 0.0
C461 C 0.14641 0.31764 0.12323 0.0
C462 C 0.06056 0.3133 0.11427 0.0
C463 C 0.08312 0.31539 0.08838 0.0
H464 H 0.72934 0.4777 0.37719 0.0
H465 H 0.63318 0.41813 0.3139 0.0
H466 H 0.62753 0.37544 0.35111 0.0
H467 H 0.6578 0.3509 0.39786 0.0
H468 H 0.75858 0.40894 0.45758 0.0
H469 H 0.75447 0.4565 0.42586 0.0
C470 C 0.70649 0.45578 0.37188 0.0
C471 C 0.68198 0.45075 0.34287 0.0
C472 C 0.70469 0.43083 0.39264 0.0
C473 C 0.65246 0.42235 0.33617 0.0
C474 C 0.64944 0.39786 0.35732 0.0
C475 C 0.6781 0.37434 0.40418 0.0
C476 C 0.70863 0.37652 0.42969 0.0
C477 C 0.67655 0.40115 0.38506 0.0
C478 C 0.73511 0.40674 0.43775 0.0
C479 C 0.7328 0.4339 0.41966 0.0
H480 H 0.5793 0.95993 0.6053 0.0
H481 H 0.68939 0.98947 0.56459 0.0
H482 H 0.73019 0.9867 0.61529 0.0
H483 H 0.73283 0.98053 0.6725 0.0
H484 H 0.61992 0.96273 0.71361 0.0
H485 H 0.5818 0.95479 0.66133 0.0
C486 C 0.61234 0.96522 0.60734 0.0
C487 C 0.63154 0.97455 0.58135 0.0
C488 C 0.63484 0.96589 0.63677 0.0
C489 C 0.67417 0.98202 0.58438 0.0
C490 C 0.69733 0.98065 0.61334 0.0
C491 C 0.69985 0.97591 0.66996 0.0
C492 C 0.67905 0.97364 0.69688 0.0
C493 C 0.67777 0.97361 0.63995 0.0
C494 C 0.63654 0.96522 0.69325 0.0
C495 C 0.6147 0.96074 0.66339 0.0
H496 H 0.9997 0.8726 0.92248 0.0
H497 H 0.11249 0.93038 0.90982 0.0
H498 H 0.11688 0.89395 0.86018 0.0
H499 H 0.08384 0.85081 0.81724 0.0
H500 H 0.97165 0.79254 0.82979 0.0
H501 H 0.97151 0.82403 0.88264 0.0
C502 C 0.02575 0.87658 0.90922 0.0
C503 C 0.05547 0.90427 0.91944 0.0
C504 C 0.02768 0.85592 0.88047 0.0
C505 C 0.08919 0.90921 0.90226 0.0
C506 C 0.09152 0.88862 0.87376 0.0
C507 C 0.05966 0.84487 0.83179 0.0
C508 C 0.02761 0.81977 0.8199 0.0
C509 C 0.06012 0.86283 0.86209 0.0
C510 C 0.99668 0.81171 0.8388 0.0
C511 C 0.99655 0.82978 0.86888 0.0
H512 H 0.09099 0.09751 0.01269 0.0
H513 H 0.05769 0.08055 0.91196 0.0
H514 H 0.09913 0.13334 0.90576 0.0
H515 H 0.14596 0.18369 0.92875 0.0
H516 H 0.18168 0.19994 0.02916 0.0
H517 H 0.13879 0.14791 0.03573 0.0
C518 C 0.0926 0.10561 0.98946 0.0
C519 C 0.07123 0.08534 0.96279 0.0
C520 C 0.11729 0.13563 0.986 0.0
C521 C 0.07389 0.09582 0.93279 0.0
C522 C 0.09765 0.12593 0.92923 0.0
C523 C 0.14436 0.1758 0.95206 0.0
C524 C 0.16689 0.19558 0.97841 0.0
C525 C 0.11973 0.14588 0.95561 0.0
C526 C 0.16469 0.18504 0.00848 0.0
C527 C 0.14004 0.15538 0.01226 0.0
H528 H 0.72227 0.6438 0.25058 0.0
H529 H 0.65209 0.58666 0.31056 0.0
H530 H 0.60973 0.63472 0.31935 0.0
H531 H 0.58808 0.69027 0.3055 0.0
H532 H 0.65657 0.74584 0.24353 0.0
H533 H 0.70442 0.70123 0.24046 0.0
C534 C 0.69801 0.64185 0.26586 0.0
C535 C 0.69015 0.61133 0.27952 0.0
C536 C 0.67333 0.66934 0.27043 0.0
C537 C 0.65874 0.60964 0.29949 0.0
C538 C 0.63441 0.63714 0.30453 0.0
C539 C 0.61399 0.69303 0.29188 0.0
C540 C 0.61859 0.72128 0.27462 0.0
C541 C 0.64079 0.66676 0.28949 0.0
C542 C 0.65217 0.72427 0.2569 0.0
C543 C 0.67948 0.69869 0.25502 0.0
H544 H 0.39963 0.82599 0.50864 0.0
H545 H 0.28945 0.87321 0.52873 0.0
H546 H 0.32467 0.93068 0.52862 0.0
H547 H 0.3885 0.96776 0.52484 0.0
H548 H 0.49739 0.91914 0.50337 0.0
H549 H 0.46127 0.86213 0.50202 0.0
C550 C 0.38337 0.8489 0.51293 0.0
C551 C 0.34223 0.84553 0.51884 0.0
C552 C 0.40372 0.88165 0.5127 0.0
C553 C 0.32124 0.87529 0.52406 0.0
C554 C 0.34139 0.90812 0.52411 0.0
C555 C 0.40397 0.94457 0.51973 0.0
C556 C 0.44539 0.94737 0.51434 0.0
C557 C 0.38283 0.91168 0.51877 0.0
C558 C 0.4654 0.91735 0.50761 0.0
C559 C 0.44485 0.88481 0.50687 0.0
H560 H 0.12137 0.70941 0.75815 0.0
H561 H 0.02508 0.64493 0.78911 0.0
H562 H 0.07235 0.60012 0.79624 0.0
H563 H 0.13962 0.57746 0.78844 0.0
H564 H 0.23468 0.64356 0.75733 0.0
H565 H 0.18945 0.68975 0.75595 0.0
C566 C 0.11076 0.68562 0.76666 0.0
C567 C 0.06977 0.68014 0.77264 0.0
C568 C 0.13793 0.6603 0.77067 0.0
C569 C 0.05658 0.64959 0.78427 0.0
C570 C 0.08355 0.62398 0.78823 0.0
C571 C 0.15066 0.60223 0.78204 0.0
C572 C 0.19034 0.60688 0.77261 0.0
C573 C 0.12414 0.62877 0.78085 0.0
C574 C 0.20415 0.63912 0.76432 0.0
C575 C 0.17829 0.66557 0.76344 0.0
H576 H 0.90039 0.32626 0.50119 0.0
H577 H 0.78727 0.37255 0.51304 0.0
H578 H 0.82034 0.42915 0.50739 0.0
H579 H 0.88242 0.46611 0.50162 0.0
H580 H 0.99675 0.42042 0.49407 0.0
H581 H 0.9624 0.36318 0.49525 0.0
C582 C 0.88302 0.34876 0.50238 0.0
C583 C 0.84132 0.34516 0.50693 0.0
C584 C 0.90253 0.3814 0.49989 0.0
C585 C 0.81919 0.37452 0.50875 0.0
C586 C 0.83816 0.40696 0.50578 0.0
C587 C 0.89967 0.44356 0.49996 0.0
C588 C 0.94195 0.44744 0.49739 0.0
C589 C 0.87991 0.41078 0.50159 0.0
C590 C 0.96404 0.41806 0.49554 0.0
C591 C 0.94448 0.38532 0.49648 0.0
H592 H 0.2971 0.89843 0.25275 0.0
H593 H 0.36075 0.95793 0.1908 0.0
H594 H 0.41189 0.91593 0.18735 0.0
H595 H 0.44128 0.86468 0.20532 0.0
H596 H 0.37787 0.80674 0.26849 0.0
H597 H 0.32363 0.84569 0.26775 0.0
C598 C 0.32201 0.90224 0.23834 0.0
C599 C 0.32529 0.93149 0.22234 0.0
C600 C 0.35137 0.87825 0.23667 0.0
C601 C 0.35756 0.9357 0.20349 0.0
C602 C 0.38686 0.91172 0.20152 0.0
C603 C 0.4152 0.86025 0.21843 0.0
C604 C 0.41367 0.83302 0.23704 0.0
C605 C 0.38443 0.88318 0.21843 0.0
C606 C 0.37988 0.82769 0.25414 0.0
C607 C 0.34889 0.84998 0.25381 0.0
H608 H 0.28479 0.39703 0.74452 0.0
H609 H 0.36009 0.45997 0.6924 0.0
H610 H 0.40289 0.41254 0.68193 0.0
H611 H 0.42288 0.35511 0.69204 0.0
H612 H 0.34766 0.29308 0.74503 0.0
H613 H 0.30084 0.33808 0.75032 0.0
C614 C 0.31034 0.40035 0.73063 0.0
C615 C 0.31949 0.43221 0.71969 0.0
C616 C 0.33504 0.37311 0.72491 0.0
C617 C 0.35242 0.43581 0.70134 0.0
C618 C 0.37703 0.4087 0.69537 0.0
C619 C 0.39584 0.35118 0.70422 0.0
C620 C 0.38912 0.32092 0.7184 0.0
C621 C 0.36919 0.37749 0.70766 0.0
C622 C 0.35391 0.31628 0.73415 0.0
C623 C 0.32706 0.34204 0.73727 0.0
H624 H 0.22431 0.79633 0.60827 0.0
H625 H 0.12637 0.79896 0.5345 0.0
H626 H 0.07639 0.79928 0.57342 0.0
H627 H 0.06063 0.79214 0.62755 0.0
H628 H 0.15959 0.78925 0.70062 0.0
H629 H 0.20947 0.79553 0.66268 0.0
C630 C 0.19204 0.79746 0.60083 0.0
C631 C 0.17867 0.79714 0.56878 0.0
C632 C 0.16385 0.79709 0.62306 0.0
C633 C 0.1371 0.79923 0.55922 0.0
C634 C 0.10861 0.79908 0.58137 0.0
C635 C 0.09315 0.79318 0.63507 0.0
C636 C 0.10668 0.78975 0.66648 0.0
C637 C 0.1216 0.7969 0.61318 0.0
C638 C 0.1487 0.79158 0.67636 0.0
C639 C 0.17716 0.79519 0.65476 0.0
H640 H 0.24706 0.96052 0.36286 0.0
H641 H 0.13896 0.90397 0.31157 0.0
H642 H 0.13246 0.86856 0.35472 0.0
H643 H 0.16316 0.84938 0.40393 0.0
H644 H 0.27242 0.90592 0.45375 0.0
H645 H 0.27244 0.94629 0.41459 0.0
C646 C 0.22182 0.94068 0.36135 0.0
C647 C 0.19395 0.93421 0.33412 0.0
C648 C 0.21857 0.92054 0.38594 0.0
C649 C 0.16091 0.90902 0.33241 0.0
C650 C 0.15728 0.88881 0.35698 0.0
C651 C 0.18629 0.87105 0.40649 0.0
C652 C 0.21801 0.8746 0.43126 0.0
C653 C 0.18667 0.8937 0.38345 0.0
C654 C 0.24793 0.90264 0.43458 0.0
C655 C 0.24808 0.92561 0.41218 0.0
H656 H 0.96875 0.72265 0.65225 0.0
H657 H 0.98498 0.64462 0.7146 0.0
H658 H 0.99914 0.60358 0.67098 0.0
H659 H 0.00055 0.58786 0.6151 0.0
H660 H 0.98476 0.66337 0.55052 0.0
H661 H 0.97677 0.70756 0.59491 0.0
C662 C 0.976 0.69681 0.65611 0.0
C663 C 0.97513 0.68634 0.68629 0.0
C664 C 0.98353 0.67284 0.63058 0.0
C665 C 0.9847 0.65296 0.69135 0.0
C666 C 0.99284 0.62944 0.66647 0.0
C667 C 0.99541 0.61402 0.61069 0.0
C668 C 0.99234 0.62239 0.5798 0.0
C669 C 0.99108 0.63878 0.63597 0.0
C670 C 0.98672 0.65646 0.57431 0.0
C671 C 0.98218 0.6816 0.59962 0.0
H672 H 0.29805 0.73706 0.39694 0.0
H673 H 0.39325 0.74174 0.4739 0.0
H674 H 0.44488 0.73551 0.43646 0.0
H675 H 0.46294 0.73537 0.38191 0.0
H676 H 0.36658 0.72779 0.30516 0.0
H677 H 0.31503 0.72786 0.34233 0.0
C678 C 0.33007 0.73606 0.40527 0.0
C679 C 0.3424 0.74009 0.43767 0.0
C680 C 0.35914 0.7321 0.38375 0.0
C681 C 0.38357 0.73853 0.44876 0.0
C682 C 0.41294 0.73518 0.42747 0.0
C683 C 0.43061 0.73309 0.37345 0.0
C684 C 0.41835 0.7321 0.34115 0.0
C685 C 0.40115 0.7329 0.39493 0.0
C686 C 0.37654 0.72873 0.3301 0.0
C687 C 0.34709 0.72894 0.35128 0.0
H688 H 0.26248 0.06099 0.10997 0.0
H689 H 0.33697 0.12696 0.18498 0.0
H690 H 0.34955 0.16986 0.14927 0.0
H691 H 0.3333 0.19121 0.09849 0.0
H692 H 0.25609 0.12673 0.02408 0.0
H693 H 0.25115 0.08041 0.05749 0.0
C694 C 0.28198 0.08453 0.11824 0.0
C695 C 0.29854 0.09108 0.14996 0.0
C696 C 0.28845 0.10936 0.09773 0.0
C697 C 0.32368 0.1216 0.16061 0.0
C698 C 0.33088 0.14611 0.14025 0.0
C699 C 0.31611 0.16675 0.08943 0.0
C700 C 0.29496 0.16231 0.05908 0.0
C701 C 0.31256 0.14066 0.10901 0.0
C702 C 0.27264 0.13062 0.04749 0.0
C703 C 0.26961 0.10423 0.06661 0.0
H704 H 0.7621 0.7406 0.89159 0.0
H705 H 0.84893 0.69575 0.95317 0.0
H706 H 0.89223 0.68593 0.91046 0.0
H707 H 0.91077 0.69981 0.85904 0.0
H708 H 0.8245 0.74549 0.79782 0.0
H709 H 0.77531 0.74525 0.83703 0.0
C710 C 0.79008 0.728 0.89539 0.0
C711 C 0.80297 0.71971 0.92548 0.0
C712 C 0.81514 0.72318 0.87106 0.0
C713 C 0.83864 0.70264 0.93015 0.0
C714 C 0.86358 0.69729 0.90586 0.0
C715 C 0.8809 0.70916 0.8542 0.0
C716 C 0.8713 0.7234 0.82625 0.0
C717 C 0.85305 0.70905 0.87679 0.0
C718 C 0.83244 0.73481 0.81957 0.0
C719 C 0.80443 0.73472 0.84192 0.0
H720 H 0.34808 0.63432 0.68629 0.0
H721 H 0.29464 0.54632 0.62138 0.0
H722 H 0.29171 0.58173 0.57805 0.0
H723 H 0.2958 0.63928 0.56049 0.0
H724 H 0.34536 0.72782 0.62634 0.0
H725 H 0.35847 0.69071 0.66751 0.0
C726 C 0.33675 0.62278 0.66249 0.0
C727 C 0.32136 0.588 0.6569 0.0
C728 C 0.33381 0.64353 0.63805 0.0
C729 C 0.3066 0.57318 0.6261 0.0
C730 C 0.30463 0.59344 0.60142 0.0
C731 C 0.30994 0.65029 0.58376 0.0
C732 C 0.31915 0.68609 0.59066 0.0
C733 C 0.31673 0.6289 0.6074 0.0
C734 C 0.33768 0.70024 0.62071 0.0
C735 C 0.34521 0.67908 0.64422 0.0
H736 H 0.36704 0.06773 0.29686 0.0
H737 H 0.25444 0.02741 0.32772 0.0
H738 H 0.28742 0.03128 0.38194 0.0
H739 H 0.35132 0.04147 0.41928 0.0
H740 H 0.45948 0.09104 0.38857 0.0
H741 H 0.42472 0.08959 0.33575 0.0
C742 C 0.34958 0.06002 0.31548 0.0
C743 C 0.30934 0.04491 0.30809 0.0
C744 C 0.36787 0.0645 0.34666 0.0
C745 C 0.2864 0.03673 0.33259 0.0
C746 C 0.30505 0.03955 0.36366 0.0
C747 C 0.36676 0.05267 0.40115 0.0
C748 C 0.40802 0.06577 0.40755 0.0
C749 C 0.34625 0.05249 0.37079 0.0
C750 C 0.42773 0.08067 0.38414 0.0
C751 C 0.40802 0.07964 0.35383 0.0
H752 H 0.86735 0.84941 0.06269 0.0
H753 H 0.8218 0.83327 0.96393 0.0
H754 H 0.86438 0.88454 0.95482 0.0
H755 H 0.91433 0.93465 0.97539 0.0
H756 H 0.95747 0.95102 0.07465 0.0
H757 H 0.91679 0.89874 0.08303 0.0
C758 C 0.86677 0.85712 0.03916 0.0
C759 C 0.84143 0.83768 0.01406 0.0
C760 C 0.89125 0.88653 0.03416 0.0
C761 C 0.8409 0.84797 0.9837 0.0
C762 C 0.86538 0.87719 0.97846 0.0
C763 C 0.91505 0.92648 -0.00126 0.0
C764 C 0.93891 0.94653 0.0244 0.0
C765 C 0.89074 0.8967 0.00353 0.0
C766 C 0.9393 0.93595 0.05459 0.0
C767 C 0.91597 0.90614 0.05941 0.0
H768 H 0.68052 0.17573 0.43043 0.0
H769 H 0.69667 0.20384 0.53144 0.0
H770 H 0.65846 0.15009 0.53886 0.0
H771 H 0.61377 0.09794 0.51627 0.0
H772 H 0.59875 0.06927 0.4153 0.0
H773 H 0.64358 0.11967 0.40833 0.0
C774 C 0.67597 0.16981 0.45401 0.0
C775 C 0.69084 0.19385 0.48025 0.0
C776 C 0.65403 0.13869 0.45818 0.0
C777 C 0.68531 0.18577 0.51078 0.0
C778 C 0.66337 0.15504 0.5151 0.0
C779 C 0.62111 0.10234 0.49285 0.0
C780 C 0.60245 0.08025 0.46634 0.0
C781 C 0.64668 0.13167 0.48893 0.0
C782 C 0.6124 0.08615 0.4361 0.0
C783 C 0.63788 0.11508 0.43204 0.0
H784 H 0.80739 0.4161 0.27358 0.0
H785 H 0.84065 0.45345 0.1878 0.0
H786 H 0.88893 0.40927 0.18163 0.0
H787 H 0.92309 0.36106 0.20163 0.0
H788 H 0.88965 0.32544 0.28821 0.0
H789 H 0.84017 0.36812 0.29292 0.0
C790 C 0.82481 0.41447 0.2533 0.0
C791 C 0.82031 0.43802 0.23117 0.0
C792 C 0.85278 0.38946 0.25014 0.0
C793 C 0.8435 0.43561 0.20522 0.0
C794 C 0.8712 0.41042 0.20171 0.0
C795 C 0.905 0.36265 0.22152 0.0
C796 C 0.9102 0.34002 0.24448 0.0
C797 C 0.8764 0.38742 0.22423 0.0
C798 C 0.88637 0.34241 0.27008 0.0
C799 C 0.85795 0.36684 0.27286 0.0
H800 H 0.11324 0.58432 0.42441 0.0
H801 H 0.09107 0.59689 0.5225 0.0
H802 H 0.13613 0.6502 0.53206 0.0
H803 H 0.18194 0.69358 0.51274 0.0
H804 H 0.2024 0.68296 0.41438 0.0
H805 H 0.15869 0.6285 0.40482 0.0
C806 C 0.11817 0.59889 0.44778 0.0
C807 C 0.09878 0.58669 0.47266 0.0
C808 C 0.14425 0.62972 0.45317 0.0
C809 C 0.10545 0.60579 0.50288 0.0
C810 C 0.13142 0.63622 0.50844 0.0
C811 C 0.17714 0.67913 0.4893 0.0
C812 C 0.1955 0.69207 0.46433 0.0
C813 C 0.15114 0.64838 0.48383 0.0
C814 C 0.18862 0.67337 0.43398 0.0
C815 C 0.16351 0.64233 0.42849 0.0
H816 H 0.68474 0.1139 0.724 0.0
H817 H 0.63834 0.07235 0.80384 0.0
H818 H 0.58617 0.1136 0.80492 0.0
H819 H 0.55324 0.16126 0.78256 0.0
H820 H 0.60199 0.20257 0.70323 0.0
H821 H 0.65356 0.16168 0.70278 0.0
C822 C 0.66318 0.11374 0.74162 0.0
C823 C 0.66531 0.09004 0.76368 0.0
C824 C 0.63362 0.13758 0.74228 0.0
C825 C 0.63739 0.09044 0.78657 0.0
C826 C 0.60751 0.11398 0.7872 0.0
C827 C 0.57525 0.16137 0.7653 0.0
C828 C 0.57352 0.18496 0.743 0.0
C829 C 0.60529 0.13769 0.76511 0.0
C830 C 0.60238 0.18477 0.72077 0.0
C831 C 0.63201 0.16131 0.72037 0.0
H832 H 0.85247 0.62211 0.17353 0.0
H833 H 0.76239 0.54552 0.12136 0.0
H834 H 0.76263 0.57661 0.07519 0.0
H835 H 0.78047 0.63014 0.05313 0.0
H836 H 0.8702 0.70694 0.10544 0.0
H837 H 0.879 0.6708 0.1479 0.0
C838 C 0.83361 0.61196 0.15178 0.0
C839 C 0.80698 0.58214 0.15075 0.0
C840 C 0.83374 0.63004 0.12552 0.0
C841 C 0.78298 0.56869 0.12254 0.0
C842 C 0.78296 0.58648 0.09623 0.0
C843 C 0.80265 0.63848 0.0735 0.0
C844 C 0.82408 0.6712 0.07666 0.0
C845 C 0.80703 0.61786 0.09793 0.0
C846 C 0.85314 0.68182 0.1028 0.0
C847 C 0.85799 0.66131 0.12713 0.0
H848 H 0.9106 0.48835 0.40739 0.0
H849 H 0.97308 0.5901 0.41354 0.0
H850 H 0.92906 0.60211 0.36747 0.0
H851 H 0.87488 0.5827 0.32397 0.0
H852 H 0.808 0.4831 0.32014 0.0
H853 H 0.85103 0.47126 0.36691 0.0
C854 C 0.91438 0.51315 0.3986 0.0
C855 C 0.94537 0.53819 0.4135 0.0
C856 C 0.88805 0.52024 0.37264 0.0
C857 C 0.94953 0.57045 0.40238 0.0
C858 C 0.92441 0.57728 0.37603 0.0
C859 C 0.86944 0.55857 0.33365 0.0
C860 C 0.83846 0.53374 0.31858 0.0
C861 C 0.89384 0.55228 0.36081 0.0
C862 C 0.83147 0.5027 0.33142 0.0
C863 C 0.8563 0.49585 0.35804 0.0
H864 H 0.16817 0.45032 0.66125 0.0
H865 H 0.19837 0.56016 0.6841 0.0
H866 H 0.16365 0.56992 0.63353 0.0
H867 H 0.1212 0.54781 0.58416 0.0
H868 H 0.0938 0.43809 0.55886 0.0
H869 H 0.13118 0.42761 0.60871 0.0
C870 C 0.16727 0.47631 0.65498 0.0
C871 C 0.1853 0.5045 0.67658 0.0
C872 C 0.14772 0.48176 0.62544 0.0
C873 C 0.18451 0.53803 0.66802 0.0
C874 C 0.16461 0.54367 0.63909 0.0
C875 C 0.12372 0.52157 0.58945 0.0
C876 C 0.10449 0.49376 0.56806 0.0
C877 C 0.14558 0.51582 0.61785 0.0
C878 C 0.10847 0.4599 0.57495 0.0
C879 C 0.12962 0.45394 0.60353 0.0
H880 H 0.66076 0.8252 0.19049 0.0
H881 H 0.54965 0.83009 0.12986 0.0
H882 H 0.58867 0.83119 0.08414 0.0
H883 H 0.65228 0.82085 0.0607 0.0
H884 H 0.76117 0.80729 0.12059 0.0
H885 H 0.72556 0.82008 0.16758 0.0
C886 C 0.64536 0.82736 0.16736 0.0
C887 C 0.60267 0.82734 0.16319 0.0
C888 C 0.66763 0.8261 0.14114 0.0
C889 C 0.58265 0.82986 0.13329 0.0
C890 C 0.60487 0.83039 0.10724 0.0
C891 C 0.66838 0.82171 0.08412 0.0
C892 C 0.70897 0.81317 0.08753 0.0
C893 C 0.6471 0.82708 0.11073 0.0
C894 C 0.7297 0.81371 0.11774 0.0
C895 C 0.70937 0.82087 0.14448 0.0
H896 H 0.65743 0.44885 0.16666 0.0
H897 H 0.69975 0.55715 0.18169 0.0
H898 H 0.66589 0.56495 0.13029 0.0
H899 H 0.61968 0.5425 0.08316 0.0
H900 H 0.57619 0.43462 0.06671 0.0
H901 H 0.61539 0.425 0.11619 0.0
C902 C 0.65946 0.47404 0.15848 0.0
C903 C 0.68094 0.50242 0.17813 0.0
C904 C 0.63957 0.47844 0.12868 0.0
C905 C 0.6835 0.53487 0.16714 0.0
C906 C 0.66401 0.5394 0.13773 0.0
C907 C 0.61908 0.51674 0.09018 0.0
C908 C 0.59474 0.48935 0.07139 0.0
C909 C 0.64131 0.51158 0.11862 0.0
C910 C 0.59479 0.4561 0.08065 0.0
C911 C 0.61695 0.45069 0.10909 0.0
H912 H 0.41419 0.43938 0.97679 0.0
H913 H 0.45412 0.4483 0.07644 0.0
H914 H 0.4102 0.39655 0.08129 0.0
H915 H 0.35947 0.34933 0.05777 0.0
H916 H 0.31727 0.34021 0.95858 0.0
H917 H 0.3624 0.39146 0.95302 0.0
C918 C 0.41342 0.42975 -0.00055 0.0
C919 C 0.43747 0.44761 0.02624 0.0
C920 C 0.38733 0.40013 0.00223 0.0
C921 C 0.4359 0.43506 0.05551 0.0
C922 C 0.41071 0.40549 0.05833 0.0
C923 C 0.36008 0.35858 0.03493 0.0
C924 C 0.33504 0.34098 0.00865 0.0
C925 C 0.38606 0.38798 0.03195 0.0
C926 C 0.33614 0.35336 0.97923 0.0
C927 C 0.36209 0.3826 0.97601 0.0
H928 H 0.05639 0.16216 0.27546 0.0
H929 H 0.09098 0.19491 0.1881 0.0
H930 H 0.13606 0.14854 0.18262 0.0
H931 H 0.16646 0.0998 0.20288 0.0
H932 H 0.13314 0.06694 0.29047 0.0
H933 H 0.08623 0.11234 0.29538 0.0
C934 C 0.07371 0.15917 0.25517 0.0
C935 C 0.07045 0.18213 0.23233 0.0
C936 C 0.09969 0.1325 0.25217 0.0
C937 C 0.09309 0.1778 0.20618 0.0
C938 C 0.11883 0.15124 0.20296 0.0
C939 C 0.14901 0.10244 0.22311 0.0
C940 C 0.15351 0.08013 0.2464 0.0
C941 C 0.12251 0.12862 0.2259 0.0
C942 C 0.13032 0.08383 0.27225 0.0
C943 C 0.10357 0.10981 0.2751 0.0
H944 H 0.22752 0.40506 0.94277 0.0
H945 H 0.1421 0.32726 0.88711 0.0
H946 H 0.13253 0.36489 0.84588 0.0
H947 H 0.15597 0.41653 0.8227 0.0
H948 H 0.24229 0.49381 0.87822 0.0
H949 H 0.24356 0.46011 0.92263 0.0
C950 C 0.20621 0.39671 0.92189 0.0
C951 C 0.18599 0.36342 0.91765 0.0
C952 C 0.20128 0.41828 0.89816 0.0
C953 C 0.1582 0.35281 0.89069 0.0
C954 C 0.15284 0.37423 0.86707 0.0
C955 C 0.17428 0.42627 0.84479 0.0
C956 C 0.19932 0.45726 0.84717 0.0
C957 C 0.17533 0.40652 0.87008 0.0
C958 C 0.22285 0.46985 0.87587 0.0
C959 C 0.22378 0.45054 0.90121 0.0
H960 H 0.26679 0.23538 0.87969 0.0
H961 H 0.36364 0.21579 0.94864 0.0
H962 H 0.40714 0.20143 0.90674 0.0
H963 H 0.41999 0.20059 0.85107 0.0
H964 H 0.3222 0.21781 0.78188 0.0
H965 H 0.27638 0.22635 0.82317 0.0
C966 C 0.29724 0.22754 0.88539 0.0
C967 C 0.31231 0.22706 0.91705 0.0
C968 C 0.32185 0.21894 0.86119 0.0
C969 C 0.35149 0.21635 0.92433 0.0
C970 C 0.37641 0.20828 0.90043 0.0
C971 C 0.38838 0.20547 0.84504 0.0
C972 C 0.37446 0.20892 0.81371 0.0
C973 C 0.36226 0.21032 0.86887 0.0
C974 C 0.33348 0.21503 0.80595 0.0
C975 C 0.30738 0.22017 0.82955 0.0
H976 H 0.40071 0.48663 0.91121 0.0
H977 H 0.44071 0.59485 0.93413 0.0
H978 H 0.39947 0.60752 0.88676 0.0
H979 H 0.35576 0.58682 0.83655 0.0
H980 H 0.31461 0.47852 0.81559 0.0
H981 H 0.35225 0.46694 0.86444 0.0
C982 C 0.40012 0.51306 0.906 0.0
C983 C 0.42402 0.53974 0.92597 0.0
C984 C 0.37627 0.52008 0.87891 0.0
C985 C 0.42248 0.57389 0.91917 0.0
C986 C 0.39911 0.58108 0.89197 0.0
C987 C 0.35486 0.56077 0.84287 0.0
C988 C 0.3328 0.53352 0.82227 0.0
C989 C 0.37648 0.55426 0.87131 0.0
C990 C 0.33149 0.49995 0.8309 0.0
C991 C 0.35309 0.49326 0.85885 0.0
H992 H 0.64923 0.68553 0.94334 0.0
H993 H 0.68798 0.69508 0.04313 0.0
H994 H 0.64749 0.64065 0.04694 0.0
H995 H 0.60073 0.59005 0.02139 0.0
H996 H 0.56473 0.58081 0.92111 0.0
H997 H 0.60407 0.63549 0.91802 0.0
C998 C 0.64884 0.67572 0.96596 0.0
C999 C 0.67147 0.69435 -0.00707 0.0
C1000 C 0.62575 0.6445 0.96785 0.0
C1001 C 0.67087 0.68118 0.02201 0.0
C1002 C 0.64761 0.65012 0.02418 0.0
C1003 C 0.6014 0.60019 -0.00106 0.0
C1004 C 0.57973 0.58147 0.97148 0.0
C1005 C 0.62481 0.63155 -0.00276 0.0
C1006 C 0.58114 0.5947 0.94252 0.0
C1007 C 0.60367 0.62596 0.94073 0.0
H1008 H 0.92324 0.85335 0.78531 0.0
H1009 H 0.92518 0.84006 0.68426 0.0
H1010 H 0.8861 0.89068 0.68016 0.0
H1011 H 0.8476 0.93681 0.70566 0.0
H1012 H 0.84956 0.94981 0.8073 0.0
H1013 H 0.89127 0.90165 0.81077 0.0
C1014 C 0.91503 0.86149 0.76236 0.0
C1015 C 0.92626 0.84273 0.73508 0.0
C1016 C 0.89334 0.8907 0.76031 0.0
C1017 C 0.91648 0.85405 0.70558 0.0
C1018 C 0.89417 0.88295 0.70325 0.0
C1019 C 0.85773 0.92937 0.72852 0.0
C1020 C 0.84473 0.94647 0.75608 0.0
C1021 C 0.88196 0.9013 0.73048 0.0
C1022 C 0.85832 0.93665 0.7856 0.0
C1023 C 0.88225 0.90908 0.7877 0.0
H1024 H 0.48312 0.1372 0.68178 0.0
H1025 H 0.4572 0.22484 0.63357 0.0
H1026 H 0.46619 0.19112 0.5827 0.0
H1027 H 0.48115 0.13533 0.55187 0.0
H1028 H 0.51048 0.05038 0.60313 0.0
H1029 H 0.49997 0.08413 0.65259 0.0
C1030 C 0.47934 0.14905 0.66015 0.0
C1031 C 0.46906 0.18338 0.66145 0.0
C1032 C 0.48492 0.12971 0.63139 0.0
C1033 C 0.46502 0.19843 0.63324 0.0
C1034 C 0.47001 0.17904 0.60415 0.0
C1035 C 0.48483 0.12428 0.57389 0.0
C1036 C 0.49629 0.09016 0.57372 0.0
C1037 C 0.47973 0.14443 0.60284 0.0
C1038 C 0.50169 0.07644 0.60253 0.0
C1039 C 0.49572 0.09575 0.6309 0.0
H1040 H 0.55916 0.35073 0.80208 0.0
H1041 H 0.45046 0.29002 0.81829 0.0
H1042 H 0.45188 0.32236 0.87122 0.0
H1043 H 0.48152 0.37168 0.91126 0.0
H1044 H 0.59262 0.42954 0.89491 0.0
H1045 H 0.59314 0.39448 0.8441 0.0
C1046 C 0.53614 0.34428 0.81743 0.0
C1047 C 0.50473 0.31811 0.80638 0.0
C1048 C 0.53756 0.36266 0.84784 0.0
C1049 C 0.47516 0.30984 0.82646 0.0
C1050 C 0.47586 0.32852 0.85662 0.0
C1051 C 0.50619 0.37613 0.89679 0.0
C1052 C 0.53686 0.40344 0.90687 0.0
C1053 C 0.50654 0.35549 0.8674 0.0
C1054 C 0.56864 0.40881 0.88783 0.0
C1055 C 0.56888 0.38884 0.85862 0.0
H1056 H 0.5717 0.84288 0.34839 0.0
H1057 H 0.4743 0.88147 0.29169 0.0
H1058 H 0.46458 0.9247 0.33548 0.0
H1059 H 0.48619 0.9541 0.38848 0.0
H1060 H 0.58599 0.91882 0.44541 0.0
H1061 H 0.59261 0.87228 0.40315 0.0
C1062 C 0.5479 0.86037 0.346 0.0
C1063 C 0.52344 0.85881 0.31697 0.0
C1064 C 0.54339 0.88624 0.37116 0.0
C1065 C 0.49332 0.88209 0.31387 0.0
C1066 C 0.48788 0.90696 0.33885 0.0
C1067 C 0.50939 0.93624 0.39183 0.0
C1068 C 0.53565 0.94023 0.42018 0.0
C1069 C 0.51322 0.90975 0.36737 0.0
C1070 C 0.56549 0.91666 0.42382 0.0
C1071 C 0.5692 0.88989 0.39965 0.0
H1072 H 0.45791 0.59844 0.1157 0.0
H1073 H 0.52234 0.66727 0.06216 0.0
H1074 H 0.5296 0.71286 0.1075 0.0
H1075 H 0.52134 0.73164 0.16424 0.0
H1076 H 0.46193 0.65912 0.21744 0.0
H1077 H 0.44909 0.61673 0.17067 0.0
C1078 C 0.47305 0.62358 0.11375 0.0
C1079 C 0.48927 0.62957 0.08557 0.0
C1080 C 0.47834 0.64901 0.14013 0.0
C1081 C 0.50939 0.66211 0.0836 0.0
C1082 C 0.51368 0.68811 0.10957 0.0
C1083 C 0.50518 0.7067 0.16532 0.0
C1084 C 0.49251 0.69862 0.19428 0.0
C1085 C 0.49883 0.68169 0.13824 0.0
C1086 C 0.47212 0.66601 0.19552 0.0
C1087 C 0.46468 0.64168 0.16874 0.0
loop_
_geom_bond_atom_site_label_1
_geom_bond_atom_site_label_2
_geom_bond_distance
_geom_bond_site_symmetry_2
_ccdc_geom_bond_type
Tb0 O3 2.453 1_565 S
Tb0 O4 2.596 1_566 S
Tb0 O5 2.374 1_556 S
Tb0 O13 2.343 1_455 S
Tb0 O15 2.353 1_465 S
Tb0 O17 2.427 . S
Tb0 O18 2.513 . S
C1 O5 1.251 . S
C1 O7 1.263 1_565 S
Tb2 O4 2.343 1_655 S
Tb2 O7 2.353 1_655 S
Tb2 O10 2.433 . S
Tb2 O11 2.513 . S
Tb2 O12 2.453 1_545 S
Tb2 O13 2.596 1_544 S
Tb2 O14 2.374 1_554 S
O3 Tb0 2.453 1_545 S
O3 C19 1.245 1_556 S
O4 Tb0 2.596 1_544 S
O4 Tb2 2.343 1_455 S
O4 C19 1.259 . S
O5 Tb0 2.374 1_554 S
O5 C1 1.251 . S
C6 O10 1.282 . S
C6 O11 1.246 . S
O7 C1 1.263 1_545 S
O7 Tb2 2.353 1_455 S
C8 O12 1.245 . S
C8 O13 1.259 1_554 S
C9 O14 1.250 . S
C9 O15 1.263 . S
O10 Tb2 2.433 . S
O10 C6 1.282 . S
O11 Tb2 2.513 . S
O11 C6 1.246 . S
O12 Tb2 2.453 1_565 S
O12 C8 1.245 . S
O13 Tb0 2.343 1_655 S
O13 Tb2 2.596 1_566 S
O13 C8 1.259 1_556 S
O14 Tb2 2.374 1_556 S
O14 C9 1.250 . S
O15 Tb0 2.353 1_645 S
O15 C9 1.263 . S
C16 O17 1.275 . S
C16 O18 1.246 . S
O17 Tb0 2.427 . S
O17 C16 1.275 . S
O18 Tb0 2.513 . S
O18 C16 1.246 . S
C19 O3 1.245 1_554 S
C19 O4 1.259 . S
Tb20 O23 2.453 . S
Tb20 O24 2.596 1_655 S
Tb20 O25 2.374 1_655 S
Tb20 O33 2.343 1_655 S
Tb20 O35 2.353 . S
Tb20 O37 2.427 . S
Tb20 O38 2.513 . S
C21 O25 1.251 . S
C21 O27 1.263 . S
Tb22 O24 2.343 . S
Tb22 O27 2.353 . S
Tb22 O30 2.427 . S
Tb22 O31 2.513 . S
Tb22 O32 2.453 . S
Tb22 O33 2.596 . S
Tb22 O34 2.374 1_455 S
O23 Tb20 2.453 . S
O23 C39 1.245 . S
O24 Tb20 2.596 1_455 S
O24 Tb22 2.343 . S
O24 C39 1.259 1_455 S
O25 Tb20 2.374 1_455 S
O25 C21 1.251 . S
C26 O30 1.275 . S
C26 O31 1.246 . S
O27 C21 1.263 . S
O27 Tb22 2.353 . S
C28 O32 1.245 . S
C28 O33 1.259 . S
C29 O34 1.250 . S
C29 O35 1.263 . S
O30 Tb22 2.427 . S
O30 C26 1.275 . S
O31 Tb22 2.513 . S
O31 C26 1.246 . S
O32 Tb22 2.453 . S
O32 C28 1.245 . S
O33 Tb20 2.343 1_455 S
O33 Tb22 2.596 . S
O33 C28 1.259 . S
O34 Tb22 2.374 1_655 S
O34 C29 1.250 . S
O35 Tb20 2.353 . S
O35 C29 1.263 . S
C36 O37 1.275 . S
C36 O38 1.246 . S
O37 Tb20 2.427 . S
O37 C36 1.275 . S
O38 Tb20 2.513 . S
O38 C36 1.246 . S
C39 O23 1.245 . S
C39 O24 1.259 1_655 S
Tb40 O43 2.453 . S
Tb40 O44 2.596 . S
Tb40 O45 2.374 . S
Tb40 O53 2.343 . S
Tb40 O55 2.353 . S
Tb40 O57 2.427 . S
Tb40 O58 2.513 . S
C41 O45 1.251 . S
C41 O47 1.263 . S
Tb42 O44 2.343 . S
Tb42 O47 2.353 . S
Tb42 O50 2.427 . S
Tb42 O51 2.513 . S
Tb42 O52 2.453 . S
Tb42 O53 2.596 . S
Tb42 O54 2.374 . S
O43 Tb40 2.453 . S
O43 C59 1.245 . S
O44 Tb40 2.596 . S
O44 Tb42 2.343 . S
O44 C59 1.259 . S
O45 Tb40 2.374 . S
O45 C41 1.251 . S
C46 O50 1.275 . S
C46 O51 1.246 . S
O47 C41 1.263 . S
O47 Tb42 2.353 . S
C48 O52 1.245 . S
C48 O53 1.259 . S
C49 O54 1.250 . S
C49 O55 1.263 . S
O50 Tb42 2.427 . S
O50 C46 1.275 . S
O51 Tb42 2.513 . S
O51 C46 1.246 . S
O52 Tb42 2.453 . S
O52 C48 1.245 . S
O53 Tb40 2.343 . S
O53 Tb42 2.596 . S
O53 C48 1.259 . S
O54 Tb42 2.374 . S
O54 C49 1.250 . S
O55 Tb40 2.353 . S
O55 C49 1.263 . S
C56 O57 1.275 . S
C56 O58 1.246 . S
O57 Tb40 2.427 . S
O57 C56 1.275 . S
O58 Tb40 2.513 . S
O58 C56 1.246 . S
C59 O43 1.245 . S
C59 O44 1.259 . S
Tb60 O63 2.453 . S
Tb60 O64 2.596 . S
Tb60 O65 2.374 . S
Tb60 O73 2.343 . S
Tb60 O75 2.353 . S
Tb60 O77 2.427 . S
Tb60 O78 2.513 . S
C61 O65 1.251 1_565 S
C61 O67 1.263 . S
Tb62 O64 2.343 1_565 S
Tb62 O67 2.353 . S
Tb62 O70 2.427 . S
Tb62 O71 2.513 . S
Tb62 O72 2.453 . S
Tb62 O73 2.596 1_565 S
Tb62 O74 2.374 1_565 S
O63 Tb60 2.453 . S
O63 C79 1.245 . S
O64 Tb60 2.596 . S
O64 Tb62 2.343 1_545 S
O64 C79 1.259 . S
O65 Tb60 2.374 . S
O65 C61 1.251 1_545 S
C66 O70 1.275 . S
C66 O71 1.246 . S
O67 C61 1.263 . S
O67 Tb62 2.353 . S
C68 O72 1.245 1_545 S
C68 O73 1.259 . S
C69 O74 1.250 . S
C69 O75 1.263 . S
O70 Tb62 2.427 . S
O70 C66 1.275 . S
O71 Tb62 2.513 . S
O71 C66 1.246 . S
O72 Tb62 2.453 . S
O72 C68 1.245 1_565 S
O73 Tb60 2.343 . S
O73 Tb62 2.596 1_545 S
O73 C68 1.259 . S
O74 Tb62 2.374 1_545 S
O74 C69 1.250 . S
O75 Tb60 2.353 . S
O75 C69 1.263 . S
C76 O77 1.275 . S
C76 O78 1.246 . S
O77 Tb60 2.427 . S
O77 C76 1.275 . S
O78 Tb60 2.513 . S
O78 C76 1.246 . S
C79 O63 1.245 . S
C79 O64 1.259 . S
Tb80 O83 2.453 . S
Tb80 O84 2.596 . S
Tb80 O85 2.374 . S
Tb80 O93 2.343 . S
Tb80 O95 2.353 . S
Tb80 O97 2.427 . S
Tb80 O98 2.513 . S
C81 O85 1.251 . S
C81 O87 1.263 . S
Tb82 O84 2.343 . S
Tb82 O87 2.353 . S
Tb82 O90 2.427 . S
Tb82 O91 2.513 . S
Tb82 O92 2.453 . S
Tb82 O93 2.596 . S
Tb82 O94 2.374 . S
O83 Tb80 2.453 . S
O83 C99 1.245 . S
O84 Tb80 2.596 . S
O84 Tb82 2.343 . S
O84 C99 1.259 . S
O85 Tb80 2.374 . S
O85 C81 1.251 . S
C86 O90 1.275 . S
C86 O91 1.246 . S
O87 C81 1.263 . S
O87 Tb82 2.353 . S
C88 O92 1.245 . S
C88 O93 1.259 . S
C89 O94 1.250 . S
C89 O95 1.263 . S
O90 Tb82 2.427 . S
O90 C86 1.275 . S
O91 Tb82 2.513 . S
O91 C86 1.246 . S
O92 Tb82 2.453 . S
O92 C88 1.245 . S
O93 Tb80 2.343 . S
O93 Tb82 2.596 . S
O93 C88 1.259 . S
O94 Tb82 2.374 . S
O94 C89 1.250 . S
O95 Tb80 2.353 . S
O95 C89 1.263 . S
C96 O97 1.275 . S
C96 O98 1.246 . S
O97 Tb80 2.427 . S
O97 C96 1.275 . S
O98 Tb80 2.513 . S
O98 C96 1.246 . S
C99 O83 1.245 . S
C99 O84 1.259 . S
Tb100 O103 2.453 . S
Tb100 O104 2.596 . S
Tb100 O105 2.374 . S
Tb100 O113 2.343 . S
Tb100 O115 2.353 . S
Tb100 O117 2.427 . S
Tb100 O118 2.513 . S
C101 O105 1.251 . S
C101 O107 1.263 . S
Tb102 O104 2.343 . S
Tb102 O107 2.353 . S
Tb102 O110 2.427 . S
Tb102 O111 2.513 . S
Tb102 O112 2.453 . S
Tb102 O113 2.596 . S
Tb102 O114 2.374 . S
O103 Tb100 2.453 . S
O103 C119 1.245 . S
O104 Tb100 2.596 . S
O104 Tb102 2.343 . S
O104 C119 1.259 . S
O105 Tb100 2.374 . S
O105 C101 1.251 . S
C106 O110 1.275 . S
C106 O111 1.246 . S
O107 C101 1.263 . S
O107 Tb102 2.353 . S
C108 O112 1.245 . S
C108 O113 1.259 . S
C109 O114 1.250 . S
C109 O115 1.263 . S
O110 Tb102 2.427 . S
O110 C106 1.275 . S
O111 Tb102 2.513 . S
O111 C106 1.246 . S
O112 Tb102 2.453 . S
O112 C108 1.245 . S
O113 Tb100 2.343 . S
O113 Tb102 2.596 . S
O113 C108 1.259 . S
O114 Tb102 2.374 . S
O114 C109 1.250 . S
O115 Tb100 2.353 . S
O115 C109 1.263 . S
C116 O117 1.275 . S
C116 O118 1.246 . S
O117 Tb100 2.427 . S
O117 C116 1.275 . S
O118 Tb100 2.513 . S
O118 C116 1.246 . S
C119 O103 1.245 . S
C119 O104 1.259 . S
Tb120 O123 2.453 . S
Tb120 O124 2.596 . S
Tb120 O125 2.374 . S
Tb120 O133 2.343 . S
Tb120 O135 2.353 . S
Tb120 O137 2.427 . S
Tb120 O138 2.513 . S
C121 O125 1.251 . S
C121 O127 1.263 . S
Tb122 O124 2.343 . S
Tb122 O127 2.353 . S
Tb122 O130 2.427 . S
Tb122 O131 2.513 . S
Tb122 O132 2.453 . S
Tb122 O133 2.596 . S
Tb122 O134 2.374 . S
O123 Tb120 2.453 . S
O123 C139 1.245 . S
O124 Tb120 2.596 . S
O124 Tb122 2.343 . S
O124 C139 1.259 . S
O125 Tb120 2.374 . S
O125 C121 1.251 . S
C126 O130 1.275 . S
C126 O131 1.246 . S
O127 C121 1.263 . S
O127 Tb122 2.353 . S
C128 O132 1.245 . S
C128 O133 1.259 . S
C129 O134 1.250 . S
C129 O135 1.263 . S
O130 Tb122 2.427 . S
O130 C126 1.275 . S
O131 Tb122 2.513 . S
O131 C126 1.246 . S
O132 Tb122 2.453 . S
O132 C128 1.245 . S
O133 Tb120 2.343 . S
O133 Tb122 2.596 . S
O133 C128 1.259 . S
O134 Tb122 2.374 . S
O134 C129 1.250 . S
O135 Tb120 2.353 . S
O135 C129 1.263 . S
C136 O137 1.275 . S
C136 O138 1.246 . S
O137 Tb120 2.427 . S
O137 C136 1.275 . S
O138 Tb120 2.513 . S
O138 C136 1.246 . S
C139 O123 1.245 . S
C139 O124 1.259 . S
Tb140 O143 2.453 . S
Tb140 O144 2.596 . S
Tb140 O145 2.374 . S
Tb140 O153 2.343 1_455 S
Tb140 O155 2.353 1_455 S
Tb140 O157 2.427 . S
Tb140 O158 2.513 . S
C141 O145 1.251 . S
C141 O147 1.263 . S
Tb142 O144 2.343 1_655 S
Tb142 O147 2.353 1_655 S
Tb142 O150 2.427 . S
Tb142 O151 2.513 . S
Tb142 O152 2.453 . S
Tb142 O153 2.596 . S
Tb142 O154 2.374 . S
O143 Tb140 2.453 . S
O143 C159 1.245 . S
O144 Tb140 2.596 . S
O144 Tb142 2.343 1_455 S
O144 C159 1.259 . S
O145 Tb140 2.374 . S
O145 C141 1.251 . S
C146 O150 1.275 . S
C146 O151 1.246 . S
O147 C141 1.263 . S
O147 Tb142 2.353 1_455 S
C148 O152 1.245 . S
C148 O153 1.259 . S
C149 O154 1.250 . S
C149 O155 1.263 . S
O150 Tb142 2.427 . S
O150 C146 1.275 . S
O151 Tb142 2.513 . S
O151 C146 1.246 . S
O152 Tb142 2.453 . S
O152 C148 1.245 . S
O153 Tb140 2.343 1_655 S
O153 Tb142 2.596 . S
O153 C148 1.259 . S
O154 Tb142 2.374 . S
O154 C149 1.250 . S
O155 Tb140 2.353 1_655 S
O155 C149 1.263 . S
C156 O157 1.275 . S
C156 O158 1.246 . S
O157 Tb140 2.427 . S
O157 C156 1.275 . S
O158 Tb140 2.513 . S
O158 C156 1.246 . S
C159 O143 1.245 . S
C159 O144 1.259 . S
Tb160 O163 2.453 . S
Tb160 O164 2.596 1_556 S
Tb160 O165 2.374 1_556 S
Tb160 O173 2.352 . S
Tb160 O175 2.353 . S
Tb160 O177 2.427 . S
Tb160 O178 2.513 . S
C161 O165 1.251 . S
C161 O167 1.263 . S
Tb162 O164 2.343 . S
Tb162 O167 2.353 . S
Tb162 O170 2.427 . S
Tb162 O171 2.513 . S
Tb162 O172 2.453 . S
Tb162 O173 2.583 1_554 S
Tb162 O174 2.374 1_554 S
O163 Tb160 2.453 . S
O163 C179 1.245 . S
O164 Tb160 2.596 1_554 S
O164 Tb162 2.343 . S
O164 C179 1.259 1_554 S
O165 Tb160 2.374 1_554 S
O165 C161 1.251 . S
C166 O170 1.275 . S
C166 O171 1.246 . S
O167 C161 1.263 . S
O167 Tb162 2.353 . S
C168 O172 1.245 . S
C168 O173 1.254 1_554 S
C169 O174 1.250 . S
C169 O175 1.263 . S
O170 Tb162 2.427 . S
O170 C166 1.275 . S
O171 Tb162 2.513 . S
O171 C166 1.246 . S
O172 Tb162 2.453 . S
O172 C168 1.245 . S
O173 Tb160 2.352 . S
O173 Tb162 2.583 1_556 S
O173 C168 1.254 1_556 S
O174 Tb162 2.374 1_556 S
O174 C169 1.250 . S
O175 Tb160 2.353 . S
O175 C169 1.263 . S
C176 O177 1.275 . S
C176 O178 1.246 . S
O177 Tb160 2.427 . S
O177 C176 1.275 . S
O178 Tb160 2.513 . S
O178 C176 1.246 . S
C179 O163 1.245 . S
C179 O164 1.259 1_556 S
Tb180 O183 2.453 . S
Tb180 O184 2.596 . S
Tb180 O185 2.374 1_545 S
Tb180 O193 2.343 . S
Tb180 O195 2.353 . S
Tb180 O197 2.427 . S
Tb180 O198 2.513 . S
C181 O185 1.251 . S
C181 O187 1.263 . S
Tb182 O184 2.343 1_565 S
Tb182 O187 2.353 . S
Tb182 O190 2.427 . S
Tb182 O191 2.513 . S
Tb182 O192 2.453 . S
Tb182 O193 2.596 1_565 S
Tb182 O194 2.374 1_565 S
O183 Tb180 2.453 . S
O183 C199 1.245 . S
O184 Tb180 2.596 . S
O184 Tb182 2.343 1_545 S
O184 C199 1.259 . S
O185 Tb180 2.374 1_565 S
O185 C181 1.251 . S
C186 O190 1.275 . S
C186 O191 1.246 . S
O187 C181 1.263 . S
O187 Tb182 2.353 . S
C188 O192 1.245 . S
C188 O193 1.259 1_565 S
C189 O194 1.250 . S
C189 O195 1.263 . S
O190 Tb182 2.427 . S
O190 C186 1.275 . S
O191 Tb182 2.513 . S
O191 C186 1.246 . S
O192 Tb182 2.453 . S
O192 C188 1.245 . S
O193 Tb180 2.343 . S
O193 Tb182 2.596 1_545 S
O193 C188 1.259 1_545 S
O194 Tb182 2.374 1_545 S
O194 C189 1.250 . S
O195 Tb180 2.353 . S
O195 C189 1.263 . S
C196 O197 1.275 . S
C196 O198 1.246 . S
O197 Tb180 2.427 . S
O197 C196 1.275 . S
O198 Tb180 2.513 . S
O198 C196 1.246 . S
C199 O183 1.245 . S
C199 O184 1.259 . S
Tb200 O203 2.453 . S
Tb200 O204 2.596 . S
Tb200 O205 2.374 . S
Tb200 O213 2.343 . S
Tb200 O215 2.353 . S
Tb200 O217 2.427 . S
Tb200 O218 2.513 . S
C201 O205 1.251 . S
C201 O207 1.263 . S
Tb202 O204 2.343 . S
Tb202 O207 2.353 . S
Tb202 O210 2.427 . S
Tb202 O211 2.513 . S
Tb202 O212 2.453 . S
Tb202 O213 2.596 . S
Tb202 O214 2.374 . S
O203 Tb200 2.453 . S
O203 C219 1.245 . S
O204 Tb200 2.596 . S
O204 Tb202 2.343 . S
O204 C219 1.259 . S
O205 Tb200 2.374 . S
O205 C201 1.251 . S
C206 O210 1.275 . S
C206 O211 1.246 . S
O207 C201 1.263 . S
O207 Tb202 2.353 . S
C208 O212 1.245 . S
C208 O213 1.259 . S
C209 O214 1.250 . S
C209 O215 1.263 . S
O210 Tb202 2.427 . S
O210 C206 1.275 . S
O211 Tb202 2.513 . S
O211 C206 1.246 . S
O212 Tb202 2.453 . S
O212 C208 1.245 . S
O213 Tb200 2.343 . S
O213 Tb202 2.596 . S
O213 C208 1.259 . S
O214 Tb202 2.374 . S
O214 C209 1.250 . S
O215 Tb200 2.353 . S
O215 C209 1.263 . S
C216 O217 1.275 . S
C216 O218 1.246 . S
O217 Tb200 2.427 . S
O217 C216 1.275 . S
O218 Tb200 2.513 . S
O218 C216 1.246 . S
C219 O203 1.245 . S
C219 O204 1.259 . S
Tb220 O223 2.453 . S
Tb220 O224 2.596 1_655 S
Tb220 O225 2.374 1_655 S
Tb220 O233 2.343 1_655 S
Tb220 O235 2.353 . S
Tb220 O237 2.427 . S
Tb220 O238 2.513 . S
C221 O225 1.251 . S
C221 O227 1.263 . S
Tb222 O224 2.343 . S
Tb222 O227 2.353 . S
Tb222 O230 2.427 . S
Tb222 O231 2.513 . S
Tb222 O232 2.453 . S
Tb222 O233 2.596 . S
Tb222 O234 2.374 1_455 S
O223 Tb220 2.453 . S
O223 C239 1.245 . S
O224 Tb220 2.596 1_455 S
O224 Tb222 2.343 . S
O224 C239 1.259 1_455 S
O225 Tb220 2.374 1_455 S
O225 C221 1.251 . S
C226 O230 1.275 . S
C226 O231 1.246 . S
O227 C221 1.263 . S
O227 Tb222 2.353 . S
C228 O232 1.245 . S
C228 O233 1.259 . S
C229 O234 1.250 . S
C229 O235 1.263 . S
O230 Tb222 2.427 . S
O230 C226 1.275 . S
O231 Tb222 2.513 . S
O231 C226 1.246 . S
O232 Tb222 2.453 . S
O232 C228 1.245 . S
O233 Tb220 2.343 1_455 S
O233 Tb222 2.596 . S
O233 C228 1.259 . S
O234 Tb222 2.374 1_655 S
O234 C229 1.250 . S
O235 Tb220 2.353 . S
O235 C229 1.263 . S
C236 O237 1.275 . S
C236 O238 1.246 . S
O237 Tb220 2.427 . S
O237 C236 1.275 . S
O238 Tb220 2.513 . S
O238 C236 1.246 . S
C239 O223 1.245 . S
C239 O224 1.259 1_655 S
Tb240 O243 2.453 . S
Tb240 O244 2.596 . S
Tb240 O245 2.374 . S
Tb240 O253 2.343 . S
Tb240 O255 2.353 . S
Tb240 O257 2.427 . S
Tb240 O258 2.513 . S
C241 O245 1.251 . S
C241 O247 1.263 . S
Tb242 O244 2.343 . S
Tb242 O247 2.353 . S
Tb242 O250 2.427 . S
Tb242 O251 2.513 . S
Tb242 O252 2.453 . S
Tb242 O253 2.596 . S
Tb242 O254 2.374 . S
O243 Tb240 2.453 . S
O243 C259 1.245 . S
O244 Tb240 2.596 . S
O244 Tb242 2.343 . S
O244 C259 1.259 . S
O245 Tb240 2.374 . S
O245 C241 1.251 . S
C246 O250 1.275 . S
C246 O251 1.246 . S
O247 C241 1.263 . S
O247 Tb242 2.353 . S
C248 O252 1.245 . S
C248 O253 1.259 . S
C249 O254 1.250 . S
C249 O255 1.263 . S
O250 Tb242 2.427 . S
O250 C246 1.275 . S
O251 Tb242 2.513 . S
O251 C246 1.246 . S
O252 Tb242 2.453 . S
O252 C248 1.245 . S
O253 Tb240 2.343 . S
O253 Tb242 2.596 . S
O253 C248 1.259 . S
O254 Tb242 2.374 . S
O254 C249 1.250 . S
O255 Tb240 2.353 . S
O255 C249 1.263 . S
C256 O257 1.275 . S
C256 O258 1.246 . S
O257 Tb240 2.427 . S
O257 C256 1.275 . S
O258 Tb240 2.513 . S
O258 C256 1.246 . S
C259 O243 1.245 . S
C259 O244 1.259 . S
Tb260 O263 2.453 . S
Tb260 O264 2.596 1_556 S
Tb260 O265 2.374 1_556 S
Tb260 O273 2.343 1_556 S
Tb260 O275 2.353 . S
Tb260 O277 2.427 . S
Tb260 O278 2.513 . S
C261 O265 1.251 . S
C261 O267 1.263 . S
Tb262 O264 2.343 . S
Tb262 O267 2.353 . S
Tb262 O270 2.427 . S
Tb262 O271 2.513 . S
Tb262 O272 2.453 . S
Tb262 O273 2.596 . S
Tb262 O274 2.374 1_554 S
O263 Tb260 2.453 . S
O263 C279 1.245 . S
O264 Tb260 2.596 1_554 S
O264 Tb262 2.343 . S
O264 C279 1.259 1_554 S
O265 Tb260 2.374 1_554 S
O265 C261 1.251 . S
C266 O270 1.275 . S
C266 O271 1.246 . S
O267 C261 1.263 . S
O267 Tb262 2.353 . S
C268 O272 1.245 . S
C268 O273 1.259 . S
C269 O274 1.250 . S
C269 O275 1.263 . S
O270 Tb262 2.427 . S
O270 C266 1.275 . S
O271 Tb262 2.513 . S
O271 C266 1.246 . S
O272 Tb262 2.453 . S
O272 C268 1.245 . S
O273 Tb260 2.343 1_554 S
O273 Tb262 2.596 . S
O273 C268 1.259 . S
O274 Tb262 2.374 1_556 S
O274 C269 1.250 . S
O275 Tb260 2.353 . S
O275 C269 1.263 . S
C276 O277 1.275 . S
C276 O278 1.246 . S
O277 Tb260 2.427 . S
O277 C276 1.275 . S
O278 Tb260 2.513 . S
O278 C276 1.246 . S
C279 O263 1.245 . S
C279 O264 1.259 1_556 S
Tb280 O283 2.453 . S
Tb280 O284 2.596 . S
Tb280 O285 2.374 . S
Tb280 O293 2.343 1_565 S
Tb280 O295 2.353 1_565 S
Tb280 O297 2.427 1_565 S
Tb280 O298 2.513 . S
C281 O285 1.251 . S
C281 O287 1.263 . S
Tb282 O284 2.343 1_545 S
Tb282 O287 2.353 1_545 S
Tb282 O290 2.427 . S
Tb282 O291 2.513 . S
Tb282 O292 2.453 . S
Tb282 O293 2.596 . S
Tb282 O294 2.374 . S
O283 Tb280 2.453 . S
O283 C299 1.245 . S
O284 Tb280 2.596 . S
O284 Tb282 2.343 1_565 S
O284 C299 1.259 . S
O285 Tb280 2.374 . S
O285 C281 1.251 . S
C286 O290 1.275 . S
C286 O291 1.246 . S
O287 C281 1.263 . S
O287 Tb282 2.353 1_565 S
C288 O292 1.245 . S
C288 O293 1.259 . S
C289 O294 1.250 . S
C289 O295 1.263 . S
O290 Tb282 2.427 . S
O290 C286 1.275 . S
O291 Tb282 2.513 . S
O291 C286 1.246 . S
O292 Tb282 2.453 . S
O292 C288 1.245 . S
O293 Tb280 2.343 1_545 S
O293 Tb282 2.596 . S
O293 C288 1.259 . S
O294 Tb282 2.374 . S
O294 C289 1.250 . S
O295 Tb280 2.353 1_545 S
O295 C289 1.263 . S
C296 O297 1.275 . S
C296 O298 1.246 1_545 S
O297 Tb280 2.427 1_545 S
O297 C296 1.275 . S
O298 Tb280 2.513 . S
O298 C296 1.246 1_565 S
C299 O283 1.245 . S
C299 O284 1.259 . S
Tb300 O303 2.453 . S
Tb300 O304 2.596 1_556 S
Tb300 O305 2.374 1_556 S
Tb300 O313 2.343 . S
Tb300 O315 2.353 . S
Tb300 O317 2.427 . S
Tb300 O318 2.513 . S
C301 O305 1.251 . S
C301 O307 1.263 . S
Tb302 O304 2.343 . S
Tb302 O307 2.353 . S
Tb302 O310 2.427 . S
Tb302 O311 2.513 . S
Tb302 O312 2.453 . S
Tb302 O313 2.596 1_554 S
Tb302 O314 2.374 1_554 S
O303 Tb300 2.453 . S
O303 C319 1.245 1_556 S
O304 Tb300 2.596 1_554 S
O304 Tb302 2.343 . S
O304 C319 1.259 . S
O305 Tb300 2.374 1_554 S
O305 C301 1.251 . S
C306 O310 1.275 . S
C306 O311 1.246 . S
O307 C301 1.263 . S
O307 Tb302 2.353 . S
C308 O312 1.245 . S
C308 O313 1.259 1_554 S
C309 O314 1.250 . S
C309 O315 1.263 . S
O310 Tb302 2.427 . S
O310 C306 1.275 . S
O311 Tb302 2.513 . S
O311 C306 1.246 . S
O312 Tb302 2.453 . S
O312 C308 1.245 . S
O313 Tb300 2.343 . S
O313 Tb302 2.596 1_556 S
O313 C308 1.259 1_556 S
O314 Tb302 2.374 1_556 S
O314 C309 1.250 . S
O315 Tb300 2.353 . S
O315 C309 1.263 . S
C316 O317 1.275 . S
C316 O318 1.246 . S
O317 Tb300 2.427 . S
O317 C316 1.275 . S
O318 Tb300 2.513 . S
O318 C316 1.246 . S
C319 O303 1.245 1_554 S
C319 O304 1.259 . S
H320 C326 0.930 . S
H321 C329 0.930 . S
H322 C330 0.930 . S
H323 C331 0.930 . S
H324 C334 0.930 . S
H325 C335 0.930 . S
C326 H320 0.930 . S
C326 C327 1.355 1_455 S
C326 C328 1.415 . S
C327 C326 1.355 1_655 S
C327 C329 1.419 . S
C328 C326 1.415 . S
C328 C333 1.425 1_455 S
C328 C335 1.409 . S
C329 H321 0.930 . S
C329 C327 1.419 . S
C329 C330 1.362 . S
C330 H322 0.930 . S
C330 C329 1.362 . S
C330 C333 1.409 . S
C331 H323 0.930 . S
C331 C332 1.354 1_655 S
C331 C333 1.415 . S
C332 C331 1.354 1_455 S
C332 C334 1.420 . S
C333 C328 1.425 1_655 S
C333 C330 1.409 . S
C333 C331 1.415 . S
C334 H324 0.930 . S
C334 C332 1.420 . S
C334 C335 1.362 . S
C335 H325 0.930 . S
C335 C328 1.409 . S
C335 C334 1.362 . S
H336 C342 0.930 . S
H337 C345 0.930 . S
H338 C346 0.930 . S
H339 C347 0.930 . S
H340 C350 0.930 . S
H341 C351 0.930 . S
C342 H336 0.930 . S
C342 C343 1.355 . S
C342 C344 1.415 . S
C343 C342 1.355 . S
C343 C345 1.419 . S
C344 C342 1.415 . S
C344 C349 1.425 . S
C344 C351 1.409 . S
C345 H337 0.930 . S
C345 C343 1.419 . S
C345 C346 1.362 . S
C346 H338 0.930 . S
C346 C345 1.362 . S
C346 C349 1.409 . S
C347 H339 0.930 . S
C347 C348 1.355 . S
C347 C349 1.415 . S
C348 C347 1.355 . S
C348 C350 1.419 . S
C349 C344 1.425 . S
C349 C346 1.409 . S
C349 C347 1.415 . S
C350 H340 0.930 . S
C350 C348 1.419 . S
C350 C351 1.362 . S
C351 H341 0.930 . S
C351 C344 1.409 . S
C351 C350 1.362 . S
H352 C358 0.930 . S
H353 C361 0.930 . S
H354 C362 0.930 . S
H355 C363 0.930 . S
H356 C366 0.930 . S
H357 C367 0.930 . S
C358 H352 0.930 . S
C358 C359 1.355 . S
C358 C360 1.415 . S
C359 C358 1.355 . S
C359 C361 1.419 . S
C360 C358 1.415 . S
C360 C365 1.425 . S
C360 C367 1.409 . S
C361 H353 0.930 . S
C361 C359 1.419 . S
C361 C362 1.362 . S
C362 H354 0.930 . S
C362 C361 1.362 . S
C362 C365 1.409 . S
C363 H355 0.930 . S
C363 C364 1.355 . S
C363 C365 1.415 . S
C364 C363 1.355 . S
C364 C366 1.419 . S
C365 C360 1.425 . S
C365 C362 1.409 . S
C365 C363 1.415 . S
C366 H356 0.930 . S
C366 C364 1.419 . S
C366 C367 1.362 . S
C367 H357 0.930 . S
C367 C360 1.409 . S
C367 C366 1.362 . S
H368 C374 0.930 . S
H369 C377 0.930 . S
H370 C378 0.930 1_565 S
H371 C379 0.930 . S
H372 C382 0.930 . S
H373 C383 0.930 . S
C374 H368 0.930 . S
C374 C375 1.355 . S
C374 C376 1.415 . S
C375 C374 1.355 . S
C375 C377 1.419 . S
C376 C374 1.415 . S
C376 C381 1.425 . S
C376 C383 1.409 . S
C377 H369 0.930 . S
C377 C375 1.419 . S
C377 C378 1.362 . S
C378 H370 0.930 1_545 S
C378 C377 1.362 . S
C378 C381 1.409 . S
C379 H371 0.930 . S
C379 C380 1.355 . S
C379 C381 1.415 . S
C380 C379 1.355 . S
C380 C382 1.419 . S
C381 C376 1.425 . S
C381 C378 1.409 . S
C381 C379 1.415 . S
C382 H372 0.930 . S
C382 C380 1.419 . S
C382 C383 1.362 . S
C383 H373 0.930 . S
C383 C376 1.409 . S
C383 C382 1.362 . S
H384 C390 0.930 . S
H385 C393 0.930 . S
H386 C394 0.930 . S
H387 C395 0.930 . S
H388 C398 0.930 . S
H389 C399 0.930 . S
C390 H384 0.930 . S
C390 C391 1.341 1_565 S
C390 C392 1.415 . S
C391 C390 1.341 1_545 S
C391 C393 1.435 . S
C392 C390 1.415 . S
C392 C397 1.425 1_565 S
C392 C399 1.409 . S
C393 H385 0.930 . S
C393 C391 1.435 . S
C393 C394 1.362 . S
C394 H386 0.930 . S
C394 C393 1.362 . S
C394 C397 1.409 . S
C395 H387 0.930 . S
C395 C396 1.355 1_545 S
C395 C397 1.415 . S
C396 C395 1.355 1_565 S
C396 C398 1.419 . S
C397 C392 1.425 1_545 S
C397 C394 1.409 . S
C397 C395 1.415 . S
C398 H388 0.930 . S
C398 C396 1.419 . S
C398 C399 1.362 . S
C399 H389 0.930 . S
C399 C392 1.409 . S
C399 C398 1.362 . S
H400 C406 0.930 . S
H401 C409 0.930 . S
H402 C410 0.930 . S
H403 C411 0.930 1_655 S
H404 C414 0.930 . S
H405 C415 0.930 . S
C406 H400 0.930 . S
C406 C407 1.355 . S
C406 C408 1.415 . S
C407 C406 1.355 . S
C407 C409 1.419 1_455 S
C408 C406 1.415 . S
C408 C413 1.425 . S
C408 C415 1.409 . S
C409 H401 0.930 . S
C409 C407 1.419 1_655 S
C409 C410 1.362 . S
C410 H402 0.930 . S
C410 C409 1.362 . S
C410 C413 1.409 1_655 S
C411 H403 0.930 1_455 S
C411 C412 1.354 . S
C411 C413 1.415 . S
C412 C411 1.354 . S
C412 C414 1.419 . S
C413 C408 1.425 . S
C413 C410 1.409 1_455 S
C413 C411 1.415 . S
C414 H404 0.930 . S
C414 C412 1.419 . S
C414 C415 1.362 . S
C415 H405 0.930 . S
C415 C408 1.409 . S
C415 C414 1.362 . S
H416 C422 0.930 . S
H417 C425 0.930 . S
H418 C426 0.930 . S
H419 C427 0.930 . S
H420 C430 0.930 . S
H421 C431 0.930 . S
C422 H416 0.930 . S
C422 C423 1.355 . S
C422 C424 1.415 . S
C423 C422 1.355 . S
C423 C425 1.419 . S
C424 C422 1.415 . S
C424 C429 1.425 . S
C424 C431 1.409 . S
C425 H417 0.930 . S
C425 C423 1.419 . S
C425 C426 1.362 . S
C426 H418 0.930 . S
C426 C425 1.362 . S
C426 C429 1.409 . S
C427 H419 0.930 . S
C427 C428 1.355 . S
C427 C429 1.415 . S
C428 C427 1.355 . S
C428 C430 1.419 . S
C429 C424 1.425 . S
C429 C426 1.409 . S
C429 C427 1.415 . S
C430 H420 0.930 . S
C430 C428 1.419 . S
C430 C431 1.362 . S
C431 H421 0.930 . S
C431 C424 1.409 . S
C431 C430 1.362 . S
H432 C438 0.930 . S
H433 C441 0.930 . S
H434 C442 0.930 . S
H435 C443 0.930 . S
H436 C446 0.930 . S
H437 C447 0.930 . S
C438 H432 0.930 . S
C438 C439 1.355 . S
C438 C440 1.415 . S
C439 C438 1.355 . S
C439 C441 1.419 . S
C440 C438 1.415 . S
C440 C445 1.425 . S
C440 C447 1.409 . S
C441 H433 0.930 . S
C441 C439 1.419 . S
C441 C442 1.362 . S
C442 H434 0.930 . S
C442 C441 1.362 . S
C442 C445 1.409 . S
C443 H435 0.930 . S
C443 C444 1.355 . S
C443 C445 1.415 . S
C444 C443 1.355 . S
C444 C446 1.419 . S
C445 C440 1.425 . S
C445 C442 1.409 . S
C445 C443 1.415 . S
C446 H436 0.930 . S
C446 C444 1.419 . S
C446 C447 1.362 . S
C447 H437 0.930 . S
C447 C440 1.409 . S
C447 C446 1.362 . S
H448 C454 0.930 . S
H449 C457 0.930 . S
H450 C458 0.930 . S
H451 C459 0.930 . S
H452 C462 0.930 . S
H453 C463 0.930 . S
C454 H448 0.930 . S
C454 C455 1.355 . S
C454 C456 1.415 . S
C455 C454 1.355 . S
C455 C457 1.419 . S
C456 C454 1.415 . S
C456 C461 1.425 . S
C456 C463 1.409 . S
C457 H449 0.930 . S
C457 C455 1.419 . S
C457 C458 1.362 . S
C458 H450 0.930 . S
C458 C457 1.362 . S
C458 C461 1.409 . S
C459 H451 0.930 . S
C459 C460 1.355 . S
C459 C461 1.415 . S
C460 C459 1.355 . S
C460 C462 1.419 . S
C461 C456 1.425 . S
C461 C458 1.409 . S
C461 C459 1.415 . S
C462 H452 0.930 . S
C462 C460 1.419 . S
C462 C463 1.362 . S
C463 H453 0.930 . S
C463 C456 1.409 . S
C463 C462 1.362 . S
H464 C470 0.930 . S
H465 C473 0.930 . S
H466 C474 0.930 . S
H467 C475 0.930 . S
H468 C478 0.930 . S
H469 C479 0.930 . S
C470 H464 0.930 . S
C470 C471 1.355 . S
C470 C472 1.415 . S
C471 C470 1.355 . S
C471 C473 1.419 . S
C472 C470 1.415 . S
C472 C477 1.425 . S
C472 C479 1.409 . S
C473 H465 0.930 . S
C473 C471 1.419 . S
C473 C474 1.362 . S
C474 H466 0.930 . S
C474 C473 1.362 . S
C474 C477 1.409 . S
C475 H467 0.930 . S
C475 C476 1.355 . S
C475 C477 1.415 . S
C476 C475 1.355 . S
C476 C478 1.419 . S
C477 C472 1.425 . S
C477 C474 1.409 . S
C477 C475 1.415 . S
C478 H468 0.930 . S
C478 C476 1.419 . S
C478 C479 1.362 . S
C479 H469 0.930 . S
C479 C472 1.409 . S
C479 C478 1.362 . S
H480 C486 0.930 . S
H481 C489 0.930 . S
H482 C490 0.930 . S
H483 C491 0.930 1_565 S
H484 C494 0.930 . S
H485 C495 0.930 . S
C486 H480 0.930 . S
C486 C487 1.355 . S
C486 C488 1.415 . S
C487 C486 1.355 . S
C487 C489 1.419 1_545 S
C488 C486 1.415 . S
C488 C493 1.425 . S
C488 C495 1.409 . S
C489 H481 0.930 . S
C489 C487 1.419 1_565 S
C489 C490 1.362 . S
C490 H482 0.930 . S
C490 C489 1.362 . S
C490 C493 1.409 1_565 S
C491 H483 0.930 1_545 S
C491 C492 1.355 . S
C491 C493 1.415 . S
C492 C491 1.355 . S
C492 C494 1.419 . S
C493 C488 1.425 . S
C493 C490 1.409 1_545 S
C493 C491 1.415 . S
C494 H484 0.930 . S
C494 C492 1.419 . S
C494 C495 1.362 . S
C495 H485 0.930 . S
C495 C488 1.409 . S
C495 C494 1.362 . S
H496 C502 0.930 . S
H497 C505 0.930 . S
H498 C506 0.930 . S
H499 C507 0.930 . S
H500 C510 0.930 1_655 S
H501 C511 0.930 1_655 S
C502 H496 0.930 . S
C502 C503 1.355 . S
C502 C504 1.415 . S
C503 C502 1.355 . S
C503 C505 1.419 . S
C504 C502 1.415 . S
C504 C509 1.425 . S
C504 C511 1.409 . S
C505 H497 0.930 . S
C505 C503 1.419 . S
C505 C506 1.362 . S
C506 H498 0.930 . S
C506 C505 1.362 . S
C506 C509 1.409 . S
C507 H499 0.930 . S
C507 C508 1.355 . S
C507 C509 1.415 . S
C508 C507 1.355 . S
C508 C510 1.419 . S
C509 C504 1.425 . S
C509 C506 1.409 . S
C509 C507 1.415 . S
C510 H500 0.930 1_455 S
C510 C508 1.419 . S
C510 C511 1.362 . S
C511 H501 0.930 1_455 S
C511 C504 1.409 . S
C511 C510 1.362 . S
H512 C518 0.930 . S
H513 C521 0.930 . S
H514 C522 0.927 1_556 S
H515 C523 0.930 1_556 S
H516 C526 0.930 . S
H517 C527 0.930 . S
C518 H512 0.930 . S
C518 C519 1.355 . S
C518 C520 1.415 . S
C519 C518 1.355 . S
C519 C521 1.419 . S
C520 C518 1.415 . S
C520 C525 1.425 . S
C520 C527 1.409 . S
C521 H513 0.930 . S
C521 C519 1.419 . S
C521 C522 1.366 . S
C522 H514 0.927 1_554 S
C522 C521 1.366 . S
C522 C525 1.410 . S
C523 H515 0.930 1_554 S
C523 C524 1.355 . S
C523 C525 1.415 . S
C524 C523 1.355 . S
C524 C526 1.419 . S
C525 C520 1.425 . S
C525 C522 1.410 . S
C525 C523 1.415 . S
C526 H516 0.930 . S
C526 C524 1.419 . S
C526 C527 1.362 . S
C527 H517 0.930 . S
C527 C520 1.409 . S
C527 C526 1.362 . S
H528 C534 0.930 . S
H529 C537 0.930 . S
H530 C538 0.930 . S
H531 C539 0.930 . S
H532 C542 0.930 . S
H533 C543 0.930 . S
C534 H528 0.930 . S
C534 C535 1.355 . S
C534 C536 1.415 . S
C535 C534 1.355 . S
C535 C537 1.419 . S
C536 C534 1.415 . S
C536 C541 1.425 . S
C536 C543 1.409 . S
C537 H529 0.930 . S
C537 C535 1.419 . S
C537 C538 1.362 . S
C538 H530 0.930 . S
C538 C537 1.362 . S
C538 C541 1.409 . S
C539 H531 0.930 . S
C539 C540 1.355 . S
C539 C541 1.415 . S
C540 C539 1.355 . S
C540 C542 1.419 . S
C541 C536 1.425 . S
C541 C538 1.409 . S
C541 C539 1.415 . S
C542 H532 0.930 . S
C542 C540 1.419 . S
C542 C543 1.362 . S
C543 H533 0.930 . S
C543 C536 1.409 . S
C543 C542 1.362 . S
H544 C550 0.930 . S
H545 C553 0.930 . S
H546 C554 0.930 . S
H547 C555 0.930 . S
H548 C558 0.930 . S
H549 C559 0.930 . S
C550 H544 0.930 . S
C550 C551 1.355 . S
C550 C552 1.415 . S
C551 C550 1.355 . S
C551 C553 1.419 . S
C552 C550 1.415 . S
C552 C557 1.425 . S
C552 C559 1.409 . S
C553 H545 0.930 . S
C553 C551 1.419 . S
C553 C554 1.362 . S
C554 H546 0.930 . S
C554 C553 1.362 . S
C554 C557 1.409 . S
C555 H547 0.930 . S
C555 C556 1.355 . S
C555 C557 1.415 . S
C556 C555 1.355 . S
C556 C558 1.419 . S
C557 C552 1.425 . S
C557 C554 1.409 . S
C557 C555 1.415 . S
C558 H548 0.930 . S
C558 C556 1.419 . S
C558 C559 1.362 . S
C559 H549 0.930 . S
C559 C552 1.409 . S
C559 C558 1.362 . S
H560 C566 0.930 . S
H561 C569 0.930 . S
H562 C570 0.930 . S
H563 C571 0.930 . S
H564 C574 0.930 . S
H565 C575 0.930 . S
C566 H560 0.930 . S
C566 C567 1.355 . S
C566 C568 1.415 . S
C567 C566 1.355 . S
C567 C569 1.419 . S
C568 C566 1.415 . S
C568 C573 1.425 . S
C568 C575 1.409 . S
C569 H561 0.930 . S
C569 C567 1.419 . S
C569 C570 1.362 . S
C570 H562 0.930 . S
C570 C569 1.362 . S
C570 C573 1.409 . S
C571 H563 0.930 . S
C571 C572 1.355 . S
C571 C573 1.415 . S
C572 C571 1.355 . S
C572 C574 1.419 . S
C573 C568 1.425 . S
C573 C570 1.409 . S
C573 C571 1.415 . S
C574 H564 0.930 . S
C574 C572 1.419 . S
C574 C575 1.362 . S
C575 H565 0.930 . S
C575 C568 1.409 . S
C575 C574 1.362 . S
H576 C582 0.930 . S
H577 C585 0.930 . S
H578 C586 0.930 . S
H579 C587 0.930 . S
H580 C590 0.930 . S
H581 C591 0.930 . S
C582 H576 0.930 . S
C582 C583 1.355 . S
C582 C584 1.415 . S
C583 C582 1.355 . S
C583 C585 1.419 . S
C584 C582 1.415 . S
C584 C589 1.425 . S
C584 C591 1.409 . S
C585 H577 0.930 . S
C585 C583 1.419 . S
C585 C586 1.362 . S
C586 H578 0.930 . S
C586 C585 1.362 . S
C586 C589 1.409 . S
C587 H579 0.930 . S
C587 C588 1.355 . S
C587 C589 1.415 . S
C588 C587 1.355 . S
C588 C590 1.419 . S
C589 C584 1.425 . S
C589 C586 1.409 . S
C589 C587 1.415 . S
C590 H580 0.930 . S
C590 C588 1.419 . S
C590 C591 1.362 . S
C591 H581 0.930 . S
C591 C584 1.409 . S
C591 C590 1.362 . S
H592 C598 0.930 . S
H593 C601 0.930 . S
H594 C602 0.930 . S
H595 C603 0.930 . S
H596 C606 0.930 . S
H597 C607 0.930 . S
C598 H592 0.930 . S
C598 C599 1.355 . S
C598 C600 1.415 . S
C599 C598 1.355 . S
C599 C601 1.419 . S
C600 C598 1.415 . S
C600 C605 1.425 . S
C600 C607 1.409 . S
C601 H593 0.930 . S
C601 C599 1.419 . S
C601 C602 1.362 . S
C602 H594 0.930 . S
C602 C601 1.362 . S
C602 C605 1.409 . S
C603 H595 0.930 . S
C603 C604 1.355 . S
C603 C605 1.415 . S
C604 C603 1.355 . S
C604 C606 1.419 . S
C605 C600 1.425 . S
C605 C602 1.409 . S
C605 C603 1.415 . S
C606 H596 0.930 . S
C606 C604 1.419 . S
C606 C607 1.362 . S
C607 H597 0.930 . S
C607 C600 1.409 . S
C607 C606 1.362 . S
H608 C614 0.930 . S
H609 C617 0.930 . S
H610 C618 0.930 . S
H611 C619 0.930 . S
H612 C622 0.930 . S
H613 C623 0.930 . S
C614 H608 0.930 . S
C614 C615 1.355 . S
C614 C616 1.415 . S
C615 C614 1.355 . S
C615 C617 1.419 . S
C616 C614 1.415 . S
C616 C621 1.425 . S
C616 C623 1.409 . S
C617 H609 0.930 . S
C617 C615 1.419 . S
C617 C618 1.362 . S
C618 H610 0.930 . S
C618 C617 1.362 . S
C618 C621 1.409 . S
C619 H611 0.930 . S
C619 C620 1.355 . S
C619 C621 1.415 . S
C620 C619 1.355 . S
C620 C622 1.419 . S
C621 C616 1.425 . S
C621 C618 1.409 . S
C621 C619 1.415 . S
C622 H612 0.930 . S
C622 C620 1.419 . S
C622 C623 1.362 . S
C623 H613 0.930 . S
C623 C616 1.409 . S
C623 C622 1.362 . S
H624 C630 0.930 . S
H625 C633 0.930 . S
H626 C634 0.930 . S
H627 C635 0.930 . S
H628 C638 0.930 . S
H629 C639 0.930 . S
C630 H624 0.930 . S
C630 C631 1.355 . S
C630 C632 1.415 . S
C631 C630 1.355 . S
C631 C633 1.419 . S
C632 C630 1.415 . S
C632 C637 1.425 . S
C632 C639 1.409 . S
C633 H625 0.930 . S
C633 C631 1.419 . S
C633 C634 1.362 . S
C634 H626 0.930 . S
C634 C633 1.362 . S
C634 C637 1.409 . S
C635 H627 0.930 . S
C635 C636 1.355 . S
C635 C637 1.415 . S
C636 C635 1.355 . S
C636 C638 1.419 . S
C637 C632 1.425 . S
C637 C634 1.409 . S
C637 C635 1.415 . S
C638 H628 0.930 . S
C638 C636 1.419 . S
C638 C639 1.362 . S
C639 H629 0.930 . S
C639 C632 1.409 . S
C639 C638 1.362 . S
H640 C646 0.930 . S
H641 C649 0.930 . S
H642 C650 0.930 . S
H643 C651 0.930 . S
H644 C654 0.930 . S
H645 C655 0.930 . S
C646 H640 0.930 . S
C646 C647 1.355 . S
C646 C648 1.415 . S
C647 C646 1.355 . S
C647 C649 1.419 . S
C648 C646 1.415 . S
C648 C653 1.425 . S
C648 C655 1.409 . S
C649 H641 0.930 . S
C649 C647 1.419 . S
C649 C650 1.362 . S
C650 H642 0.930 . S
C650 C649 1.362 . S
C650 C653 1.409 . S
C651 H643 0.930 . S
C651 C652 1.355 . S
C651 C653 1.415 . S
C652 C651 1.355 . S
C652 C654 1.419 . S
C653 C648 1.425 . S
C653 C650 1.409 . S
C653 C651 1.415 . S
C654 H644 0.930 . S
C654 C652 1.419 . S
C654 C655 1.362 . S
C655 H645 0.930 . S
C655 C648 1.409 . S
C655 C654 1.362 . S
H656 C662 0.930 . S
H657 C665 0.930 . S
H658 C666 0.930 . S
H659 C667 0.930 . S
H660 C670 0.930 . S
H661 C671 0.930 . S
C662 H656 0.930 . S
C662 C663 1.355 . S
C662 C664 1.415 . S
C663 C662 1.355 . S
C663 C665 1.419 1_655 S
C664 C662 1.415 . S
C664 C669 1.425 1_655 S
C664 C671 1.409 . S
C665 H657 0.930 . S
C665 C663 1.419 1_455 S
C665 C666 1.362 . S
C666 H658 0.930 . S
C666 C665 1.362 . S
C666 C669 1.409 . S
C667 H659 0.930 . S
C667 C668 1.355 1_455 S
C667 C669 1.415 . S
C668 C667 1.355 1_655 S
C668 C670 1.419 . S
C669 C664 1.425 1_455 S
C669 C666 1.409 . S
C669 C667 1.415 . S
C670 H660 0.930 . S
C670 C668 1.419 . S
C670 C671 1.362 . S
C671 H661 0.930 . S
C671 C664 1.409 . S
C671 C670 1.362 . S
H672 C678 0.930 . S
H673 C681 0.930 . S
H674 C682 0.930 . S
H675 C683 0.930 . S
H676 C686 0.930 . S
H677 C687 0.930 . S
C678 H672 0.930 . S
C678 C679 1.355 . S
C678 C680 1.415 . S
C679 C678 1.355 . S
C679 C681 1.419 . S
C680 C678 1.415 . S
C680 C685 1.425 . S
C680 C687 1.409 . S
C681 H673 0.930 . S
C681 C679 1.419 . S
C681 C682 1.362 . S
C682 H674 0.930 . S
C682 C681 1.362 . S
C682 C685 1.409 . S
C683 H675 0.930 . S
C683 C684 1.355 . S
C683 C685 1.415 . S
C684 C683 1.355 . S
C684 C686 1.419 . S
C685 C680 1.425 . S
C685 C682 1.409 . S
C685 C683 1.415 . S
C686 H676 0.930 . S
C686 C684 1.419 . S
C686 C687 1.362 . S
C687 H677 0.930 . S
C687 C680 1.409 . S
C687 C686 1.362 . S
H688 C694 0.930 . S
H689 C697 0.930 . S
H690 C698 0.930 . S
H691 C699 0.930 . S
H692 C702 0.930 . S
H693 C703 0.930 . S
C694 H688 0.930 . S
C694 C695 1.355 . S
C694 C696 1.415 . S
C695 C694 1.355 . S
C695 C697 1.419 . S
C696 C694 1.415 . S
C696 C701 1.425 . S
C696 C703 1.409 . S
C697 H689 0.930 . S
C697 C695 1.419 . S
C697 C698 1.362 . S
C698 H690 0.930 . S
C698 C697 1.362 . S
C698 C701 1.409 . S
C699 H691 0.930 . S
C699 C700 1.355 . S
C699 C701 1.415 . S
C700 C699 1.355 . S
C700 C702 1.419 . S
C701 C696 1.425 . S
C701 C698 1.409 . S
C701 C699 1.415 . S
C702 H692 0.930 . S
C702 C700 1.419 . S
C702 C703 1.362 . S
C703 H693 0.930 . S
C703 C696 1.409 . S
C703 C702 1.362 . S
H704 C710 0.930 . S
H705 C713 0.930 . S
H706 C714 0.930 . S
H707 C715 0.930 . S
H708 C718 0.930 . S
H709 C719 0.930 . S
C710 H704 0.930 . S
C710 C711 1.355 . S
C710 C712 1.415 . S
C711 C710 1.355 . S
C711 C713 1.419 . S
C712 C710 1.415 . S
C712 C717 1.425 . S
C712 C719 1.409 . S
C713 H705 0.930 . S
C713 C711 1.419 . S
C713 C714 1.362 . S
C714 H706 0.930 . S
C714 C713 1.362 . S
C714 C717 1.409 . S
C715 H707 0.930 . S
C715 C716 1.355 . S
C715 C717 1.415 . S
C716 C715 1.355 . S
C716 C718 1.419 . S
C717 C712 1.425 . S
C717 C714 1.409 . S
C717 C715 1.415 . S
C718 H708 0.930 . S
C718 C716 1.419 . S
C718 C719 1.362 . S
C719 H709 0.930 . S
C719 C712 1.409 . S
C719 C718 1.362 . S
H720 C726 0.930 . S
H721 C729 0.930 . S
H722 C730 0.930 . S
H723 C731 0.930 . S
H724 C734 0.930 . S
H725 C735 0.930 . S
C726 H720 0.930 . S
C726 C727 1.355 . S
C726 C728 1.415 . S
C727 C726 1.355 . S
C727 C729 1.419 . S
C728 C726 1.415 . S
C728 C733 1.425 . S
C728 C735 1.409 . S
C729 H721 0.930 . S
C729 C727 1.419 . S
C729 C730 1.362 . S
C730 H722 0.930 . S
C730 C729 1.362 . S
C730 C733 1.409 . S
C731 H723 0.930 . S
C731 C732 1.355 . S
C731 C733 1.415 . S
C732 C731 1.355 . S
C732 C734 1.419 . S
C733 C728 1.425 . S
C733 C730 1.409 . S
C733 C731 1.415 . S
C734 H724 0.930 . S
C734 C732 1.419 . S
C734 C735 1.362 . S
C735 H725 0.930 . S
C735 C728 1.409 . S
C735 C734 1.362 . S
H736 C742 0.930 . S
H737 C745 0.930 . S
H738 C746 0.930 . S
H739 C747 0.930 . S
H740 C750 0.930 . S
H741 C751 0.930 . S
C742 H736 0.930 . S
C742 C743 1.355 . S
C742 C744 1.415 . S
C743 C742 1.355 . S
C743 C745 1.419 . S
C744 C742 1.415 . S
C744 C749 1.425 . S
C744 C751 1.409 . S
C745 H737 0.930 . S
C745 C743 1.419 . S
C745 C746 1.362 . S
C746 H738 0.930 . S
C746 C745 1.362 . S
C746 C749 1.409 . S
C747 H739 0.930 . S
C747 C748 1.355 . S
C747 C749 1.415 . S
C748 C747 1.355 . S
C748 C750 1.419 . S
C749 C744 1.425 . S
C749 C746 1.409 . S
C749 C747 1.415 . S
C750 H740 0.930 . S
C750 C748 1.419 . S
C750 C751 1.362 . S
C751 H741 0.930 . S
C751 C744 1.409 . S
C751 C750 1.362 . S
H752 C758 0.930 . S
H753 C761 0.930 . S
H754 C762 0.932 . S
H755 C763 0.930 . S
H756 C766 0.930 . S
H757 C767 0.930 . S
C758 H752 0.930 . S
C758 C759 1.355 . S
C758 C760 1.415 . S
C759 C758 1.355 . S
C759 C761 1.419 . S
C760 C758 1.415 . S
C760 C765 1.425 . S
C760 C767 1.409 . S
C761 H753 0.930 . S
C761 C759 1.419 . S
C761 C762 1.360 1_554 S
C762 H754 0.932 . S
C762 C761 1.360 1_556 S
C762 C765 1.409 1_556 S
C763 H755 0.930 . S
C763 C764 1.356 1_556 S
C763 C765 1.413 1_556 S
C764 C763 1.356 1_554 S
C764 C766 1.422 . S
C765 C760 1.425 . S
C765 C762 1.409 1_554 S
C765 C763 1.413 1_554 S
C766 H756 0.930 . S
C766 C764 1.422 . S
C766 C767 1.362 . S
C767 H757 0.930 . S
C767 C760 1.409 . S
C767 C766 1.362 . S
H768 C774 0.930 . S
H769 C777 0.930 . S
H770 C778 0.930 . S
H771 C779 0.930 . S
H772 C782 0.930 . S
H773 C783 0.930 . S
C774 H768 0.930 . S
C774 C775 1.355 . S
C774 C776 1.415 . S
C775 C774 1.355 . S
C775 C777 1.419 . S
C776 C774 1.415 . S
C776 C781 1.425 . S
C776 C783 1.409 . S
C777 H769 0.930 . S
C777 C775 1.419 . S
C777 C778 1.362 . S
C778 H770 0.930 . S
C778 C777 1.362 . S
C778 C781 1.409 . S
C779 H771 0.930 . S
C779 C780 1.355 . S
C779 C781 1.415 . S
C780 C779 1.355 . S
C780 C782 1.419 . S
C781 C776 1.425 . S
C781 C778 1.409 . S
C781 C779 1.415 . S
C782 H772 0.930 . S
C782 C780 1.419 . S
C782 C783 1.362 . S
C783 H773 0.930 . S
C783 C776 1.409 . S
C783 C782 1.362 . S
H784 C790 0.930 . S
H785 C793 0.930 . S
H786 C794 0.930 . S
H787 C795 0.930 . S
H788 C798 0.930 . S
H789 C799 0.930 . S
C790 H784 0.930 . S
C790 C791 1.355 . S
C790 C792 1.415 . S
C791 C790 1.355 . S
C791 C793 1.419 . S
C792 C790 1.415 . S
C792 C797 1.425 . S
C792 C799 1.409 . S
C793 H785 0.930 . S
C793 C791 1.419 . S
C793 C794 1.362 . S
C794 H786 0.930 . S
C794 C793 1.362 . S
C794 C797 1.409 . S
C795 H787 0.930 . S
C795 C796 1.355 . S
C795 C797 1.415 . S
C796 C795 1.355 . S
C796 C798 1.419 . S
C797 C792 1.425 . S
C797 C794 1.409 . S
C797 C795 1.415 . S
C798 H788 0.930 . S
C798 C796 1.419 . S
C798 C799 1.362 . S
C799 H789 0.930 . S
C799 C792 1.409 . S
C799 C798 1.362 . S
H800 C806 0.930 . S
H801 C809 0.930 . S
H802 C810 0.930 . S
H803 C811 0.930 . S
H804 C814 0.930 . S
H805 C815 0.930 . S
C806 H800 0.930 . S
C806 C807 1.355 . S
C806 C808 1.415 . S
C807 C806 1.355 . S
C807 C809 1.419 . S
C808 C806 1.415 . S
C808 C813 1.425 . S
C808 C815 1.409 . S
C809 H801 0.930 . S
C809 C807 1.419 . S
C809 C810 1.362 . S
C810 H802 0.930 . S
C810 C809 1.362 . S
C810 C813 1.409 . S
C811 H803 0.930 . S
C811 C812 1.355 . S
C811 C813 1.415 . S
C812 C811 1.355 . S
C812 C814 1.419 . S
C813 C808 1.425 . S
C813 C810 1.409 . S
C813 C811 1.415 . S
C814 H804 0.930 . S
C814 C812 1.419 . S
C814 C815 1.362 . S
C815 H805 0.930 . S
C815 C808 1.409 . S
C815 C814 1.362 . S
H816 C822 0.930 . S
H817 C825 0.930 . S
H818 C826 0.930 . S
H819 C827 0.930 . S
H820 C830 0.930 . S
H821 C831 0.930 . S
C822 H816 0.930 . S
C822 C823 1.355 . S
C822 C824 1.415 . S
C823 C822 1.355 . S
C823 C825 1.419 . S
C824 C822 1.415 . S
C824 C829 1.425 . S
C824 C831 1.409 . S
C825 H817 0.930 . S
C825 C823 1.419 . S
C825 C826 1.362 . S
C826 H818 0.930 . S
C826 C825 1.362 . S
C826 C829 1.409 . S
C827 H819 0.930 . S
C827 C828 1.355 . S
C827 C829 1.415 . S
C828 C827 1.355 . S
C828 C830 1.419 . S
C829 C824 1.425 . S
C829 C826 1.409 . S
C829 C827 1.415 . S
C830 H820 0.930 . S
C830 C828 1.419 . S
C830 C831 1.362 . S
C831 H821 0.930 . S
C831 C824 1.409 . S
C831 C830 1.362 . S
H832 C838 0.930 . S
H833 C841 0.930 . S
H834 C842 0.930 . S
H835 C843 0.930 . S
H836 C846 0.930 . S
H837 C847 0.930 . S
C838 H832 0.930 . S
C838 C839 1.355 . S
C838 C840 1.415 . S
C839 C838 1.355 . S
C839 C841 1.419 . S
C840 C838 1.415 . S
C840 C845 1.425 . S
C840 C847 1.409 . S
C841 H833 0.930 . S
C841 C839 1.419 . S
C841 C842 1.362 . S
C842 H834 0.930 . S
C842 C841 1.362 . S
C842 C845 1.409 . S
C843 H835 0.930 . S
C843 C844 1.355 . S
C843 C845 1.415 . S
C844 C843 1.355 . S
C844 C846 1.419 . S
C845 C840 1.425 . S
C845 C842 1.409 . S
C845 C843 1.415 . S
C846 H836 0.930 . S
C846 C844 1.419 . S
C846 C847 1.362 . S
C847 H837 0.930 . S
C847 C840 1.409 . S
C847 C846 1.362 . S
H848 C854 0.930 . S
H849 C857 0.930 . S
H850 C858 0.930 . S
H851 C859 0.930 . S
H852 C862 0.930 . S
H853 C863 0.930 . S
C854 H848 0.930 . S
C854 C855 1.355 . S
C854 C856 1.415 . S
C855 C854 1.355 . S
C855 C857 1.419 . S
C856 C854 1.415 . S
C856 C861 1.425 . S
C856 C863 1.409 . S
C857 H849 0.930 . S
C857 C855 1.419 . S
C857 C858 1.362 . S
C858 H850 0.930 . S
C858 C857 1.362 . S
C858 C861 1.409 . S
C859 H851 0.930 . S
C859 C860 1.355 . S
C859 C861 1.415 . S
C860 C859 1.355 . S
C860 C862 1.419 . S
C861 C856 1.425 . S
C861 C858 1.409 . S
C861 C859 1.415 . S
C862 H852 0.930 . S
C862 C860 1.419 . S
C862 C863 1.362 . S
C863 H853 0.930 . S
C863 C856 1.409 . S
C863 C862 1.362 . S
H864 C870 0.930 . S
H865 C873 0.930 . S
H866 C874 0.930 . S
H867 C875 0.930 . S
H868 C878 0.930 . S
H869 C879 0.930 . S
C870 H864 0.930 . S
C870 C871 1.355 . S
C870 C872 1.415 . S
C871 C870 1.355 . S
C871 C873 1.419 . S
C872 C870 1.415 . S
C872 C877 1.425 . S
C872 C879 1.409 . S
C873 H865 0.930 . S
C873 C871 1.419 . S
C873 C874 1.362 . S
C874 H866 0.930 . S
C874 C873 1.362 . S
C874 C877 1.409 . S
C875 H867 0.930 . S
C875 C876 1.355 . S
C875 C877 1.415 . S
C876 C875 1.355 . S
C876 C878 1.419 . S
C877 C872 1.425 . S
C877 C874 1.409 . S
C877 C875 1.415 . S
C878 H868 0.930 . S
C878 C876 1.419 . S
C878 C879 1.362 . S
C879 H869 0.930 . S
C879 C872 1.409 . S
C879 C878 1.362 . S
H880 C886 0.930 . S
H881 C889 0.930 . S
H882 C890 0.930 . S
H883 C891 0.930 . S
H884 C894 0.930 . S
H885 C895 0.930 . S
C886 H880 0.930 . S
C886 C887 1.355 . S
C886 C888 1.415 . S
C887 C886 1.355 . S
C887 C889 1.419 . S
C888 C886 1.415 . S
C888 C893 1.425 . S
C888 C895 1.409 . S
C889 H881 0.930 . S
C889 C887 1.419 . S
C889 C890 1.362 . S
C890 H882 0.930 . S
C890 C889 1.362 . S
C890 C893 1.409 . S
C891 H883 0.930 . S
C891 C892 1.355 . S
C891 C893 1.415 . S
C892 C891 1.355 . S
C892 C894 1.419 . S
C893 C888 1.425 . S
C893 C890 1.409 . S
C893 C891 1.415 . S
C894 H884 0.930 . S
C894 C892 1.419 . S
C894 C895 1.362 . S
C895 H885 0.930 . S
C895 C888 1.409 . S
C895 C894 1.362 . S
H896 C902 0.930 . S
H897 C905 0.930 . S
H898 C906 0.930 . S
H899 C907 0.930 . S
H900 C910 0.930 . S
H901 C911 0.930 . S
C902 H896 0.930 . S
C902 C903 1.355 . S
C902 C904 1.415 . S
C903 C902 1.355 . S
C903 C905 1.419 . S
C904 C902 1.415 . S
C904 C909 1.425 . S
C904 C911 1.409 . S
C905 H897 0.930 . S
C905 C903 1.419 . S
C905 C906 1.362 . S
C906 H898 0.930 . S
C906 C905 1.362 . S
C906 C909 1.409 . S
C907 H899 0.930 . S
C907 C908 1.355 . S
C907 C909 1.415 . S
C908 C907 1.355 . S
C908 C910 1.419 . S
C909 C904 1.425 . S
C909 C906 1.409 . S
C909 C907 1.415 . S
C910 H900 0.930 . S
C910 C908 1.419 . S
C910 C911 1.362 . S
C911 H901 0.930 . S
C911 C904 1.409 . S
C911 C910 1.362 . S
H912 C918 0.929 1_554 S
H913 C921 0.930 . S
H914 C922 0.930 . S
H915 C923 0.930 . S
H916 C926 0.930 . S
H917 C927 0.930 . S
C918 H912 0.929 1_556 S
C918 C919 1.355 . S
C918 C920 1.414 1_556 S
C919 C918 1.355 . S
C919 C921 1.419 . S
C920 C918 1.414 1_554 S
C920 C925 1.425 . S
C920 C927 1.409 . S
C921 H913 0.930 . S
C921 C919 1.419 . S
C921 C922 1.362 . S
C922 H914 0.930 . S
C922 C921 1.362 . S
C922 C925 1.408 1_556 S
C923 H915 0.930 . S
C923 C924 1.355 . S
C923 C925 1.416 . S
C924 C923 1.355 . S
C924 C926 1.419 . S
C925 C920 1.425 . S
C925 C922 1.408 1_554 S
C925 C923 1.416 . S
C926 H916 0.930 . S
C926 C924 1.419 . S
C926 C927 1.362 . S
C927 H917 0.930 . S
C927 C920 1.409 . S
C927 C926 1.362 . S
H928 C934 0.930 . S
H929 C937 0.930 . S
H930 C938 0.930 . S
H931 C939 0.930 . S
H932 C942 0.930 . S
H933 C943 0.930 . S
C934 H928 0.930 . S
C934 C935 1.355 . S
C934 C936 1.415 . S
C935 C934 1.355 . S
C935 C937 1.419 . S
C936 C934 1.415 . S
C936 C941 1.425 . S
C936 C943 1.409 . S
C937 H929 0.930 . S
C937 C935 1.419 . S
C937 C938 1.362 . S
C938 H930 0.930 . S
C938 C937 1.362 . S
C938 C941 1.409 . S
C939 H931 0.930 . S
C939 C940 1.355 . S
C939 C941 1.415 . S
C940 C939 1.355 . S
C940 C942 1.419 . S
C941 C936 1.425 . S
C941 C938 1.409 . S
C941 C939 1.415 . S
C942 H932 0.930 . S
C942 C940 1.419 . S
C942 C943 1.362 . S
C943 H933 0.930 . S
C943 C936 1.409 . S
C943 C942 1.362 . S
H944 C950 0.930 . S
H945 C953 0.930 . S
H946 C954 0.930 . S
H947 C955 0.930 . S
H948 C958 0.930 . S
H949 C959 0.930 . S
C950 H944 0.930 . S
C950 C951 1.355 . S
C950 C952 1.415 . S
C951 C950 1.355 . S
C951 C953 1.419 . S
C952 C950 1.415 . S
C952 C957 1.425 . S
C952 C959 1.409 . S
C953 H945 0.930 . S
C953 C951 1.419 . S
C953 C954 1.362 . S
C954 H946 0.930 . S
C954 C953 1.362 . S
C954 C957 1.409 . S
C955 H947 0.930 . S
C955 C956 1.355 . S
C955 C957 1.415 . S
C956 C955 1.355 . S
C956 C958 1.419 . S
C957 C952 1.425 . S
C957 C954 1.409 . S
C957 C955 1.415 . S
C958 H948 0.930 . S
C958 C956 1.419 . S
C958 C959 1.362 . S
C959 H949 0.930 . S
C959 C952 1.409 . S
C959 C958 1.362 . S
H960 C966 0.930 . S
H961 C969 0.930 . S
H962 C970 0.930 . S
H963 C971 0.930 . S
H964 C974 0.930 . S
H965 C975 0.930 . S
C966 H960 0.930 . S
C966 C967 1.355 . S
C966 C968 1.415 . S
C967 C966 1.355 . S
C967 C969 1.419 . S
C968 C966 1.415 . S
C968 C973 1.425 . S
C968 C975 1.409 . S
C969 H961 0.930 . S
C969 C967 1.419 . S
C969 C970 1.362 . S
C970 H962 0.930 . S
C970 C969 1.362 . S
C970 C973 1.409 . S
C971 H963 0.930 . S
C971 C972 1.355 . S
C971 C973 1.415 . S
C972 C971 1.355 . S
C972 C974 1.419 . S
C973 C968 1.425 . S
C973 C970 1.409 . S
C973 C971 1.415 . S
C974 H964 0.930 . S
C974 C972 1.419 . S
C974 C975 1.362 . S
C975 H965 0.930 . S
C975 C968 1.409 . S
C975 C974 1.362 . S
H976 C982 0.930 . S
H977 C985 0.930 . S
H978 C986 0.930 . S
H979 C987 0.930 . S
H980 C990 0.930 . S
H981 C991 0.930 . S
C982 H976 0.930 . S
C982 C983 1.355 . S
C982 C984 1.415 . S
C983 C982 1.355 . S
C983 C985 1.419 . S
C984 C982 1.415 . S
C984 C989 1.425 . S
C984 C991 1.409 . S
C985 H977 0.930 . S
C985 C983 1.419 . S
C985 C986 1.362 . S
C986 H978 0.930 . S
C986 C985 1.362 . S
C986 C989 1.409 . S
C987 H979 0.930 . S
C987 C988 1.355 . S
C987 C989 1.415 . S
C988 C987 1.355 . S
C988 C990 1.419 . S
C989 C984 1.425 . S
C989 C986 1.409 . S
C989 C987 1.415 . S
C990 H980 0.930 . S
C990 C988 1.419 . S
C990 C991 1.362 . S
C991 H981 0.930 . S
C991 C984 1.409 . S
C991 C990 1.362 . S
H992 C998 0.930 . S
H993 C1001 0.930 . S
H994 C1002 0.930 . S
H995 C1003 0.930 . S
H996 C1006 0.930 . S
H997 C1007 0.930 . S
C998 H992 0.930 . S
C998 C999 1.355 . S
C998 C1000 1.415 . S
C999 C998 1.355 . S
C999 C1001 1.419 . S
C1000 C998 1.415 . S
C1000 C1005 1.425 . S
C1000 C1007 1.409 . S
C1001 H993 0.930 . S
C1001 C999 1.419 . S
C1001 C1002 1.362 . S
C1002 H994 0.930 . S
C1002 C1001 1.362 . S
C1002 C1005 1.409 . S
C1003 H995 0.930 . S
C1003 C1004 1.355 . S
C1003 C1005 1.415 . S
C1004 C1003 1.355 . S
C1004 C1006 1.419 . S
C1005 C1000 1.425 . S
C1005 C1002 1.409 . S
C1005 C1003 1.415 . S
C1006 H996 0.930 . S
C1006 C1004 1.419 . S
C1006 C1007 1.362 . S
C1007 H997 0.930 . S
C1007 C1000 1.409 . S
C1007 C1006 1.362 . S
H1008 C1014 0.930 . S
H1009 C1017 0.930 . S
H1010 C1018 0.930 . S
H1011 C1019 0.930 . S
H1012 C1022 0.930 . S
H1013 C1023 0.930 . S
C1014 H1008 0.930 . S
C1014 C1015 1.355 . S
C1014 C1016 1.415 . S
C1015 C1014 1.355 . S
C1015 C1017 1.419 . S
C1016 C1014 1.415 . S
C1016 C1021 1.425 . S
C1016 C1023 1.409 . S
C1017 H1009 0.930 . S
C1017 C1015 1.419 . S
C1017 C1018 1.362 . S
C1018 H1010 0.930 . S
C1018 C1017 1.362 . S
C1018 C1021 1.409 . S
C1019 H1011 0.930 . S
C1019 C1020 1.355 . S
C1019 C1021 1.415 . S
C1020 C1019 1.355 . S
C1020 C1022 1.419 . S
C1021 C1016 1.425 . S
C1021 C1018 1.409 . S
C1021 C1019 1.415 . S
C1022 H1012 0.930 . S
C1022 C1020 1.419 . S
C1022 C1023 1.362 . S
C1023 H1013 0.930 . S
C1023 C1016 1.409 . S
C1023 C1022 1.362 . S
H1024 C1030 0.930 . S
H1025 C1033 0.930 . S
H1026 C1034 0.930 . S
H1027 C1035 0.930 . S
H1028 C1038 0.930 . S
H1029 C1039 0.930 . S
C1030 H1024 0.930 . S
C1030 C1031 1.355 . S
C1030 C1032 1.415 . S
C1031 C1030 1.355 . S
C1031 C1033 1.419 . S
C1032 C1030 1.415 . S
C1032 C1037 1.425 . S
C1032 C1039 1.409 . S
C1033 H1025 0.930 . S
C1033 C1031 1.419 . S
C1033 C1034 1.362 . S
C1034 H1026 0.930 . S
C1034 C1033 1.362 . S
C1034 C1037 1.409 . S
C1035 H1027 0.930 . S
C1035 C1036 1.355 . S
C1035 C1037 1.415 . S
C1036 C1035 1.355 . S
C1036 C1038 1.419 . S
C1037 C1032 1.425 . S
C1037 C1034 1.409 . S
C1037 C1035 1.415 . S
C1038 H1028 0.930 . S
C1038 C1036 1.419 . S
C1038 C1039 1.362 . S
C1039 H1029 0.930 . S
C1039 C1032 1.409 . S
C1039 C1038 1.362 . S
H1040 C1046 0.930 . S
H1041 C1049 0.930 . S
H1042 C1050 0.930 . S
H1043 C1051 0.930 . S
H1044 C1054 0.930 . S
H1045 C1055 0.930 . S
C1046 H1040 0.930 . S
C1046 C1047 1.355 . S
C1046 C1048 1.415 . S
C1047 C1046 1.355 . S
C1047 C1049 1.419 . S
C1048 C1046 1.415 . S
C1048 C1053 1.425 . S
C1048 C1055 1.409 . S
C1049 H1041 0.930 . S
C1049 C1047 1.419 . S
C1049 C1050 1.362 . S
C1050 H1042 0.930 . S
C1050 C1049 1.362 . S
C1050 C1053 1.409 . S
C1051 H1043 0.930 . S
C1051 C1052 1.355 . S
C1051 C1053 1.415 . S
C1052 C1051 1.355 . S
C1052 C1054 1.419 . S
C1053 C1048 1.425 . S
C1053 C1050 1.409 . S
C1053 C1051 1.415 . S
C1054 H1044 0.930 . S
C1054 C1052 1.419 . S
C1054 C1055 1.362 . S
C1055 H1045 0.930 . S
C1055 C1048 1.409 . S
C1055 C1054 1.362 . S
H1056 C1062 0.930 . S
H1057 C1065 0.930 . S
H1058 C1066 0.930 . S
H1059 C1067 0.930 . S
H1060 C1070 0.930 . S
H1061 C1071 0.930 . S
C1062 H1056 0.930 . S
C1062 C1063 1.355 . S
C1062 C1064 1.415 . S
C1063 C1062 1.355 . S
C1063 C1065 1.419 . S
C1064 C1062 1.415 . S
C1064 C1069 1.425 . S
C1064 C1071 1.409 . S
C1065 H1057 0.930 . S
C1065 C1063 1.419 . S
C1065 C1066 1.362 . S
C1066 H1058 0.930 . S
C1066 C1065 1.362 . S
C1066 C1069 1.409 . S
C1067 H1059 0.930 . S
C1067 C1068 1.355 . S
C1067 C1069 1.415 . S
C1068 C1067 1.355 . S
C1068 C1070 1.419 . S
C1069 C1064 1.425 . S
C1069 C1066 1.409 . S
C1069 C1067 1.415 . S
C1070 H1060 0.930 . S
C1070 C1068 1.419 . S
C1070 C1071 1.362 . S
C1071 H1061 0.930 . S
C1071 C1064 1.409 . S
C1071 C1070 1.362 . S
H1072 C1078 0.930 . S
H1073 C1081 0.930 . S
H1074 C1082 0.930 . S
H1075 C1083 0.930 . S
H1076 C1086 0.930 . S
H1077 C1087 0.930 . S
C1078 H1072 0.930 . S
C1078 C1079 1.355 . S
C1078 C1080 1.415 . S
C1079 C1078 1.355 . S
C1079 C1081 1.419 . S
C1080 C1078 1.415 . S
C1080 C1085 1.425 . S
C1080 C1087 1.409 . S
C1081 H1073 0.930 . S
C1081 C1079 1.419 . S
C1081 C1082 1.362 . S
C1082 H1074 0.930 . S
C1082 C1081 1.362 . S
C1082 C1085 1.409 . S
C1083 H1075 0.930 . S
C1083 C1084 1.355 . S
C1083 C1085 1.415 . S
C1084 C1083 1.355 . S
C1084 C1086 1.419 . S
C1085 C1080 1.425 . S
C1085 C1082 1.409 . S
C1085 C1083 1.415 . S
C1086 H1076 0.930 . S
C1086 C1084 1.419 . S
C1086 C1087 1.362 . S
C1087 H1077 0.930 . S
C1087 C1080 1.409 . S
C1087 C1086 1.362 . S
C327 C6 1.109 . S
C332 C39 1.184 1_455 S
C343 C49 0.989 . S
C348 C36 1.032 . S
C359 C76 0.950 . S
C364 C46 0.889 . S
C375 C9 1.070 . S
C380 C79 1.042 . S
C391 C1 1.079 1_545 S
C396 C188 1.027 . S
C407 C156 1.106 . S
C412 C28 1.153 . S
C423 C41 1.184 . S
C428 C206 1.126 . S
C439 C66 1.014 . S
C444 C276 1.003 . S
C455 C161 0.995 . S
C460 C26 1.009 . S
C471 C246 1.030 . S
C476 C56 1.030 . S
C487 C296 1.135 . S
C492 C68 1.109 . S
C503 C16 1.110 . S
C508 C228 1.187 . S
C519 C19 1.244 . S
C524 C179 1.323 1_554 S
C535 C249 1.517 . S
C540 C81 1.520 . S
C551 C108 1.376 . S
C556 C299 1.328 . S
C567 C221 1.411 . S
C572 C129 1.392 . S
C583 C48 1.347 . S
C588 C148 1.335 . S
C599 C181 1.455 . S
C604 C89 1.426 . S
C615 C121 1.511 . S
C620 C209 1.518 . S
C631 C101 0.995 . S
C636 C226 0.964 . S
C647 C186 0.925 . S
C652 C116 0.935 . S
C663 C239 1.151 . S
C668 C146 1.183 . S
C679 C109 1.183 . S
C684 C96 1.120 . S
C695 C196 1.005 . S
C700 C166 1.037 . S
C711 C269 1.033 . S
C716 C236 0.977 . S
C727 C136 1.065 . S
C732 C106 0.996 . S
C743 C199 1.128 . S
C748 C286 1.040 . S
C759 C268 1.321 . S
C764 C8 1.249 . S
C775 C59 1.405 . S
C780 C288 1.281 . S
C791 C241 1.409 . S
C796 C29 1.398 . S
C807 C159 1.281 . S
C812 C119 1.323 . S
C823 C69 1.457 . S
C828 C201 1.432 . S
C839 C256 1.017 . S
C844 C266 1.000 . S
C855 C149 1.424 . S
C860 C259 1.416 . S
C871 C128 1.385 . S
C876 C141 1.459 . S
C887 C86 0.994 . S
C892 C261 1.017 . S
C903 C248 1.370 . S
C908 C301 1.448 . S
C919 C308 1.336 1_556 S
C924 C168 1.333 . S
C935 C21 1.373 . S
C940 C189 1.339 . S
C951 C176 0.983 . S
C956 C126 1.030 . S
C967 C169 1.029 . S
C972 C216 1.032 . S
C983 C309 1.448 . S
C988 C139 1.366 . S
C999 C279 1.336 1_554 S
C1004 C319 1.331 . S
C1015 C229 1.372 . S
C1020 C61 1.359 . S
C1031 C219 1.525 . S
C1036 C289 1.541 . S
C1047 C208 1.437 . S
C1052 C316 1.427 . S
C1063 C88 1.512 . S
C1068 C281 1.563 . S
C1079 C306 1.465 . S
C1084 C99 1.466 . S
